# Generated by pormake.
# Topology zft, (5)-cn, num edge types: 1
# Building blocks:
#     Node 0, Type 0, BuildingBlock: XOMCOT_clean_sbu_1, # of connection points: 5
#     Node 1, Type 0, BuildingBlock: XOMCOT_clean_sbu_1, # of connection points: 5
#     Node 2, Type 0, BuildingBlock: XOMCOT_clean_sbu_1, # of connection points: 5
#     Node 3, Type 0, BuildingBlock: XOMCOT_clean_sbu_1, # of connection points: 5
#     Node 4, Type 0, BuildingBlock: XOMCOT_clean_sbu_1, # of connection points: 5
#     Node 5, Type 0, BuildingBlock: XOMCOT_clean_sbu_1, # of connection points: 5
#     Node 6, Type 0, BuildingBlock: XOMCOT_clean_sbu_1, # of connection points: 5
#     Node 7, Type 0, BuildingBlock: XOMCOT_clean_sbu_1, # of connection points: 5
#     Edge 8, Type (0, 0), BuildingBlock: TEMPAE_clean_linker_10, # of connection points: 2
#     Edge 9, Type (0, 0), BuildingBlock: TEMPAE_clean_linker_10, # of connection points: 2
#     Edge 10, Type (0, 0), BuildingBlock: TEMPAE_clean_linker_10, # of connection points: 2
#     Edge 11, Type (0, 0), BuildingBlock: TEMPAE_clean_linker_10, # of connection points: 2
#     Edge 12, Type (0, 0), BuildingBlock: TEMPAE_clean_linker_10, # of connection points: 2
#     Edge 13, Type (0, 0), BuildingBlock: TEMPAE_clean_linker_10, # of connection points: 2
#     Edge 14, Type (0, 0), BuildingBlock: TEMPAE_clean_linker_10, # of connection points: 2
#     Edge 15, Type (0, 0), BuildingBlock: TEMPAE_clean_linker_10, # of connection points: 2
#     Edge 16, Type (0, 0), BuildingBlock: TEMPAE_clean_linker_10, # of connection points: 2
#     Edge 17, Type (0, 0), BuildingBlock: TEMPAE_clean_linker_10, # of connection points: 2
#     Edge 18, Type (0, 0), BuildingBlock: TEMPAE_clean_linker_10, # of connection points: 2
#     Edge 19, Type (0, 0), BuildingBlock: TEMPAE_clean_linker_10, # of connection points: 2
#     Edge 20, Type (0, 0), BuildingBlock: TEMPAE_clean_linker_10, # of connection points: 2
#     Edge 21, Type (0, 0), BuildingBlock: TEMPAE_clean_linker_10, # of connection points: 2
#     Edge 22, Type (0, 0), BuildingBlock: TEMPAE_clean_linker_10, # of connection points: 2
#     Edge 23, Type (0, 0), BuildingBlock: TEMPAE_clean_linker_10, # of connection points: 2
#     Edge 24, Type (0, 0), BuildingBlock: TEMPAE_clean_linker_10, # of connection points: 2
#     Edge 25, Type (0, 0), BuildingBlock: TEMPAE_clean_linker_10, # of connection points: 2
#     Edge 26, Type (0, 0), BuildingBlock: TEMPAE_clean_linker_10, # of connection points: 2
#     Edge 27, Type (0, 0), BuildingBlock: TEMPAE_clean_linker_10, # of connection points: 2
# Relax obj value: 0.081
# Max RMSD: 0.115
# Mean RMSD: 0.115
data_MOF--net-zft--node1-XOMCOT_clean_sbu_1--edge1-TEMPAE_clean_linker_10
_symmetry_space_group_name_H-M    P1
_symmetry_Int_Tables_number       1
_symmetry_cell_setting            triclinic
loop_
_symmetry_equiv_pos_as_xyz
'x, y, z'
_cell_length_a     29.732333
_cell_length_b     29.779966
_cell_length_c     47.026993
_cell_angle_alpha  90.161682
_cell_angle_beta   90.054989
_cell_angle_gamma 90.147536
loop_
_atom_site_label
_atom_site_type_symbol
_atom_site_fract_x
_atom_site_fract_y
_atom_site_fract_z
_atom_type_partial_charge
C0 C 0.0248 0.30637 0.23451 0.0
C1 C 0.98956 0.28164 0.24501 0.0
N2 N 1.00427 0.23976 0.25032 0.0
N3 N 0.06186 0.28043 0.23313 0.0
C4 C 0.04828 0.23985 0.24291 0.0
H5 H 0.0235 0.34128 0.22828 0.0
Co6 Co 0.118 0.30153 0.22111 0.0
C7 C 0.10096 0.33762 0.16266 0.0
O8 O 0.14099 0.32397 0.15461 0.0
N9 N 0.17458 0.32461 0.20945 0.0
C10 C 0.24596 0.33638 0.19712 0.0
C11 C 0.2153 0.30508 0.2065 0.0
C12 C 0.18205 0.36815 0.20256 0.0
N13 N 0.22494 0.37615 0.19445 0.0
O14 O 0.11045 0.35406 0.24473 0.0
H15 H 0.22301 0.27038 0.21064 0.0
H16 H 0.15598 0.3934 0.20311 0.0
O17 O 0.08813 0.33081 0.18833 0.0
C18 C 0.12986 0.34737 0.26857 0.0
O19 O 0.14923 0.3083 0.27273 0.0
N20 N 0.12733 0.24736 0.20085 0.0
C21 C 0.15247 0.1644 0.17779 0.0
C22 C 0.12172 0.1922 0.16354 0.0
C23 C 0.10866 0.23317 0.1758 0.0
C24 C 0.1541 0.21903 0.21596 0.0
C25 C 0.16773 0.17791 0.2047 0.0
H26 H 0.08338 0.25282 0.16516 0.0
H27 H 0.16622 0.22927 0.23669 0.0
H28 H 0.07021 0.21109 0.24485 0.0
H29 H 0.95544 0.29335 0.24796 0.0
H30 H 0.2808 0.32983 0.192 0.0
H31 H 0.1075 0.18216 0.14328 0.0
H32 H 0.19102 0.15749 0.21673 0.0
C33 C 0.23357 0.57428 0.52197 0.0
C34 C 0.25611 0.53744 0.53191 0.0
N35 N 0.27481 0.51609 0.50964 0.0
N36 N 0.23724 0.57622 0.49341 0.0
C37 C 0.26293 0.54029 0.48646 0.0
H38 H 0.21702 0.59908 0.53504 0.0
Co39 Co 0.21467 0.62435 0.47228 0.0
C40 C 0.18756 0.58975 0.41516 0.0
O41 O 0.1997 0.62857 0.40439 0.0
N42 N 0.1915 0.67448 0.45214 0.0
C43 C 0.1828 0.73953 0.42946 0.0
C44 C 0.21303 0.71163 0.44266 0.0
C45 C 0.14792 0.68135 0.44487 0.0
N46 N 0.14187 0.72044 0.43095 0.0
O47 O 0.15836 0.61912 0.49252 0.0
H48 H 0.24842 0.71866 0.44495 0.0
H49 H 0.12118 0.65757 0.44911 0.0
O50 O 0.1925 0.58261 0.44195 0.0
C51 C 0.1524 0.65063 0.5106 0.0
O52 O 0.18256 0.68289 0.51228 0.0
N53 N 0.27173 0.63156 0.45527 0.0
C54 C 0.3559 0.65861 0.43499 0.0
C55 C 0.3307 0.62559 0.42063 0.0
C56 C 0.28922 0.61166 0.43153 0.0
C57 C 0.29759 0.66024 0.47094 0.0
C58 C 0.33955 0.67446 0.46116 0.0
H59 H 0.27177 0.58503 0.42064 0.0
H60 H 0.28441 0.67386 0.49058 0.0
H61 H 0.27352 0.53254 0.46501 0.0
H62 H 0.26036 0.52834 0.55402 0.0
H63 H 0.1902 0.77171 0.41987 0.0
H64 H 0.34217 0.61129 0.40074 0.0
H65 H 0.35854 0.69829 0.47382 0.0
C66 C 0.94249 0.74656 0.76586 0.0
C67 C 0.97801 0.77378 0.77305 0.0
N68 N 0.99701 0.78921 0.749 0.0
N69 N 0.93881 0.74423 0.73732 0.0
C70 C 0.97293 0.7704 0.72754 0.0
H71 H 0.91927 0.73146 0.78069 0.0
Co72 Co 0.88862 0.71771 0.7196 0.0
C73 C 0.91718 0.68475 0.66262 0.0
O74 O 0.87687 0.69468 0.6531 0.0
N75 N 0.83655 0.69076 0.7029 0.0
C76 C 0.76914 0.67869 0.68348 0.0
C77 C 0.79757 0.71041 0.69488 0.0
C78 C 0.83008 0.64658 0.69682 0.0
N79 N 0.78963 0.63856 0.68465 0.0
O80 O 0.89735 0.66411 0.74214 0.0
H81 H 0.78969 0.74555 0.69682 0.0
H82 H 0.85528 0.621 0.70028 0.0
O83 O 0.92727 0.69332 0.68866 0.0
C84 C 0.86781 0.66043 0.76173 0.0
O85 O 0.83625 0.69114 0.76352 0.0
N86 N 0.87812 0.7723 0.70038 0.0
C87 C 0.85136 0.85554 0.67902 0.0
C88 C 0.88279 0.82915 0.66435 0.0
C89 C 0.89641 0.78796 0.67564 0.0
C90 C 0.85038 0.79915 0.71595 0.0
C91 C 0.83597 0.84051 0.70552 0.0
H92 H 0.92222 0.76969 0.66458 0.0
H93 H 0.83784 0.78732 0.73619 0.0
H94 H 0.97822 0.77796 0.70531 0.0
H95 H 0.98797 0.78304 0.79443 0.0
H96 H 0.7358 0.68466 0.67505 0.0
H97 H 0.89712 0.84044 0.64444 0.0
H98 H 0.81197 0.85983 0.71776 0.0
C99 C 0.78326 0.4545 0.01863 0.0
C100 C 0.75902 0.49112 0.02722 0.0
N101 N 0.73669 0.50734 1.00463 0.0
N102 N 0.77724 0.44748 0.9905 0.0
C103 C 0.74812 0.48025 0.98255 0.0
H104 H 0.80269 0.43336 0.03257 0.0
Co105 Co 0.80229 0.39734 0.97172 0.0
C106 C 0.8344 0.42656 0.91455 0.0
O107 O 0.82409 0.38636 0.90496 0.0
N108 N 0.82798 0.34562 0.95448 0.0
C109 C 0.84146 0.2764 0.93861 0.0
C110 C 0.80913 0.30523 0.94878 0.0
C111 C 0.87206 0.33992 0.94803 0.0
N112 N 0.88115 0.29825 0.93816 0.0
O113 O 0.85749 0.40514 0.99344 0.0
H114 H 0.77446 0.2963 0.95238 0.0
H115 H 0.89698 0.36623 0.9503 0.0
O116 O 0.82626 0.43645 0.9407 0.0
C117 C 0.8631 0.37504 1.01244 0.0
O118 O 0.83233 0.34354 1.01506 0.0
N119 N 0.74663 0.38747 0.95273 0.0
C120 C 0.66538 0.3579 0.92916 0.0
C121 C 0.69172 0.39002 0.91515 0.0
C122 C 0.73167 0.40534 0.92767 0.0
C123 C 0.7194 0.35926 0.96771 0.0
C124 C 0.6788 0.34373 0.95626 0.0
H125 H 0.74984 0.43163 0.91704 0.0
H126 H 0.73049 0.34693 0.98816 0.0
H127 H 0.73488 0.48377 0.96125 0.0
H128 H 0.75625 0.50356 0.0488 0.0
H129 H 0.83625 0.24157 0.93283 0.0
H130 H 0.68148 0.4032 0.89471 0.0
H131 H 0.65909 0.3194 0.96799 0.0
C132 C 0.56102 0.231 0.51722 0.0
C133 C 0.52344 0.25415 0.50906 0.0
N134 N 0.50669 0.27532 0.53199 0.0
N135 N 0.56806 0.23671 0.54536 0.0
C136 C 0.53436 0.26433 0.55379 0.0
H137 H 0.58272 0.21261 0.503 0.0
Co138 Co 0.61853 0.21375 0.56445 0.0
C139 C 0.58744 0.18032 0.62144 0.0
O140 O 0.62733 0.19017 0.63178 0.0
N141 N 0.67054 0.19045 0.5823 0.0
C142 C 0.73947 0.18122 0.59984 0.0
C143 C 0.70946 0.21163 0.58887 0.0
C144 C 0.67828 0.14694 0.58905 0.0
N145 N 0.71979 0.14048 0.59999 0.0
O146 O 0.61341 0.15842 0.54249 0.0
H147 H 0.71637 0.24682 0.58572 0.0
H148 H 0.65383 0.12042 0.58583 0.0
O149 O 0.57887 0.18881 0.59516 0.0
C150 C 0.64375 0.15576 0.52326 0.0
O151 O 0.67339 0.18847 0.52147 0.0
N152 N 0.62633 0.26982 0.58313 0.0
C153 C 0.65612 0.35232 0.60512 0.0
C154 C 0.62624 0.32503 0.62056 0.0
C155 C 0.61101 0.28433 0.60896 0.0
C156 C 0.65185 0.29772 0.56681 0.0
C157 C 0.66733 0.33884 0.57738 0.0
H158 H 0.58717 0.26507 0.62103 0.0
H159 H 0.66219 0.28679 0.54586 0.0
H160 H 0.53067 0.27689 0.57526 0.0
H161 H 0.51072 0.25705 0.48757 0.0
H162 H 0.77308 0.18872 0.60736 0.0
H163 H 0.61557 0.33422 0.64179 0.0
H164 H 0.68858 0.35944 0.564 0.0
C165 C 0.22014 0.11312 0.78262 0.0
C166 C 0.19299 0.08477 0.76723 0.0
N167 N 0.21232 0.04391 0.76629 0.0
N168 N 0.25635 0.0905 0.79212 0.0
C169 C 0.25156 0.04881 0.78078 0.0
H170 H 0.21291 0.14781 0.78764 0.0
Co171 Co 0.29859 0.11803 0.81667 0.0
C172 C 0.2972 0.02301 0.84561 0.0
O173 O 0.26196 1.00494 0.83322 0.0
N174 N 0.34041 0.14641 0.8411 0.0
C175 C 0.3753 0.16413 0.88153 0.0
C176 C 0.33942 0.14199 0.8697 0.0
C177 C 0.37693 0.17265 0.83612 0.0
N178 N 0.39882 0.18341 0.86046 0.0
O179 O 0.34621 0.10336 0.79018 0.0
H180 H 0.31429 0.12324 0.88133 0.0
H181 H 0.388 0.18276 0.81519 0.0
O182 O 0.30947 0.06297 0.83921 0.0
C183 C 0.34763 0.13362 0.77096 0.0
O184 O 0.31844 0.16662 0.77258 0.0
N185 N 0.25121 0.13638 0.84079 0.0
C186 C 0.17618 0.1733 0.86806 0.0
C187 C 0.18237 0.12657 0.86681 0.0
C188 C 0.22002 0.10877 0.85297 0.0
C189 C 0.24621 0.18183 0.84228 0.0
C190 C 0.2093 0.20097 0.85601 0.0
H191 H 0.22254 0.07295 0.8508 0.0
H192 H 0.27044 0.20343 0.83191 0.0
H193 H 0.27602 0.02235 0.78339 0.0
H194 H 0.16012 0.09311 0.75891 0.0
H195 H 0.38359 0.166 0.90393 0.0
H196 H 0.15729 0.1038 0.87526 0.0
H197 H 0.20636 0.23719 0.85666 0.0
C198 C 0.43112 0.77248 0.01742 0.0
C199 C 0.46787 0.74957 1.00762 0.0
N200 N 0.49115 0.7343 0.03011 0.0
N201 N 0.43111 0.77266 0.0461 0.0
C202 C 0.46808 0.74855 0.05333 0.0
H203 H 0.405 0.78672 1.0043 0.0
Co204 Co 0.38288 0.79817 0.06601 0.0
C205 C 0.41547 0.82944 0.12265 0.0
O206 O 0.37582 0.81826 0.13275 0.0
N207 N 0.33219 0.82429 0.08448 0.0
C208 C 0.26332 0.83692 0.1013 0.0
C209 C 0.29229 0.80499 0.09094 0.0
C210 C 0.32612 0.86834 0.09097 0.0
N211 N 0.28451 0.87689 0.10124 0.0
O212 O 0.38997 0.85253 0.04366 0.0
H213 H 0.28364 0.7702 0.08783 0.0
H214 H 0.3515 0.89386 0.08753 0.0
O215 O 0.42415 0.82225 0.09621 0.0
C216 C 0.35842 0.85948 0.02573 0.0
O217 O 0.32386 0.83192 0.02513 0.0
N218 N 0.37434 0.74285 0.08515 0.0
C219 C 0.3504 0.65945 0.10785 0.0
C220 C 0.38388 0.68583 0.12073 0.0
C221 C 0.39621 0.72693 0.10864 0.0
C222 C 0.34469 0.71581 0.07103 0.0
C223 C 0.3317 0.67431 0.08218 0.0
H224 H 0.42374 0.74504 0.11815 0.0
H225 H 0.32959 0.72751 0.05148 0.0
H226 H 0.47745 0.74089 0.07501 0.0
H227 H 0.47572 0.74279 0.98554 0.0
H228 H 0.22913 0.83104 0.10827 0.0
H229 H 0.40073 0.67456 0.13985 0.0
H230 H 0.30623 0.65475 0.07123 0.0
C231 C 0.73673 0.94009 0.2669 0.0
C232 C 0.76162 0.97656 0.25863 0.0
N233 N 0.77975 0.99572 0.28196 0.0
N234 N 0.73841 0.93611 0.29542 0.0
C235 C 0.7651 0.97054 0.30408 0.0
H236 H 0.7203 0.91666 0.2527 0.0
Co237 Co 0.71452 0.88647 0.31446 0.0
C238 C 0.68432 0.91689 0.37215 0.0
O239 O 0.69447 0.87681 0.38176 0.0
N240 N 0.69037 0.83481 0.33245 0.0
C241 C 0.68146 0.76856 0.35368 0.0
C242 C 0.71182 0.7973 0.34129 0.0
C243 C 0.64663 0.82717 0.33905 0.0
N244 N 0.64054 0.78743 0.35221 0.0
O245 O 0.65883 0.89324 0.2932 0.0
H246 H 0.74733 0.79082 0.33935 0.0
H247 H 0.61996 0.8511 0.33527 0.0
O248 O 0.69146 0.9261 0.3458 0.0
C249 C 0.65393 0.8631 0.27399 0.0
O250 O 0.68462 0.83159 0.27182 0.0
N251 N 0.77085 0.87776 0.33222 0.0
C252 C 0.8549 0.84991 0.3522 0.0
C253 C 0.82873 0.88043 0.36786 0.0
C254 C 0.78723 0.89472 0.35721 0.0
C255 C 0.79748 0.85133 0.31563 0.0
C256 C 0.83936 0.83673 0.32523 0.0
H257 H 0.769 0.91943 0.36922 0.0
H258 H 0.78506 0.83991 0.29521 0.0
H259 H 0.7747 0.97619 0.32599 0.0
H260 H 0.76796 0.9866 0.23689 0.0
H261 H 0.68883 0.7362 0.36301 0.0
H262 H 0.83957 0.89252 0.38849 0.0
H263 H 0.85904 0.8148 0.31174 0.0
C264 C 0.16678 0.3783 0.31205 0.0
C265 C 0.13369 0.38261 0.2909 0.0
C266 C 0.17245 0.41097 0.3333 0.0
C267 C 0.14375 0.44878 0.33394 0.0
C268 C 0.10938 0.45284 0.31312 0.0
C269 C 0.10508 0.41994 0.29162 0.0
C270 C 0.21031 0.40574 0.35449 0.0
C271 C 0.07761 0.49225 0.31335 0.0
C272 C 0.14687 0.51776 0.40272 0.0
C273 C 0.17554 0.55312 0.39504 0.0
C274 C 0.13472 0.48433 0.38277 0.0
C275 C 0.1527 0.48573 0.35482 0.0
C276 C 0.18199 0.52121 0.34719 0.0
C277 C 0.19257 0.55456 0.36721 0.0
C278 C 0.10271 0.44752 0.39155 0.0
C279 C 0.20312 0.52346 0.318 0.0
H280 H 0.18925 0.3497 0.31164 0.0
H281 H 0.07921 0.4233 0.27551 0.0
H282 H 0.23462 0.43381 0.35206 0.0
H283 H 0.19709 0.40731 0.3765 0.0
H284 H 0.22866 0.37357 0.35173 0.0
H285 H 0.05012 0.48838 0.29752 0.0
H286 H 0.06258 0.49637 0.33479 0.0
H287 H 0.0964 0.52355 0.30854 0.0
H288 H 0.13334 0.51669 0.42411 0.0
H289 H 0.21512 0.58154 0.36114 0.0
H290 H 0.12008 0.41462 0.39084 0.0
H291 H 0.0741 0.44565 0.37642 0.0
H292 H 0.08931 0.4528 0.41335 0.0
H293 H 0.22374 0.49302 0.31421 0.0
H294 H 0.22492 0.5535 0.31536 0.0
H295 H 0.17662 0.52415 0.3014 0.0
C296 C 0.99744 0.66802 0.64869 0.0
C297 C 0.95171 0.6706 0.64158 0.0
C298 C 0.03012 0.65946 0.62767 0.0
C299 C 0.01675 0.6538 0.5989 0.0
C300 C 0.9705 0.65437 0.5919 0.0
C301 C 0.93868 0.66244 0.61328 0.0
C302 C 0.0791 0.65843 0.63605 0.0
C303 C 0.95466 0.64901 0.56154 0.0
C304 C 0.09872 0.69127 0.54175 0.0
C305 C 0.11488 0.65032 0.53122 0.0
C306 C 0.06665 0.69269 0.56357 0.0
C307 C 0.05092 0.6521 0.57568 0.0
C308 C 0.06681 0.6105 0.56494 0.0
C309 C 0.09833 0.61008 0.54257 0.0
C310 C 0.04978 0.73776 0.57376 0.0
C311 C 0.0513 0.56657 0.57754 0.0
H312 H 0.00785 0.67405 0.67047 0.0
H313 H 0.90342 0.66383 0.60749 0.0
H314 H 0.09578 0.6285 0.62676 0.0
H315 H 0.09642 0.68854 0.6275 0.0
H316 H 0.08367 0.65793 0.6595 0.0
H317 H 0.91744 0.64662 0.55994 0.0
H318 H 0.96606 0.67823 0.54882 0.0
H319 H 0.96952 0.61852 0.55179 0.0
H320 H 0.11142 0.72244 0.53295 0.0
H321 H 0.11134 0.5784 0.53475 0.0
H322 H 0.05785 0.74228 0.59663 0.0
H323 H 0.01265 0.73933 0.5716 0.0
H324 H 0.06476 0.76613 0.56172 0.0
H325 H 0.06012 0.56551 0.60046 0.0
H326 H 0.06669 0.53714 0.56676 0.0
H327 H 0.01418 0.56365 0.576 0.0
C328 C 0.85481 0.44836 0.86496 0.0
C329 C 0.84845 0.46112 0.89349 0.0
C330 C 0.86292 0.48021 0.84366 0.0
C331 C 0.86549 0.52624 0.85092 0.0
C332 C 0.86166 0.53929 0.87987 0.0
C333 C 0.85292 0.5066 0.90083 0.0
C334 C 0.86616 0.46467 0.81311 0.0
C335 C 0.86491 0.588 0.88855 0.0
C336 C 0.90873 0.60633 0.79356 0.0
C337 C 0.86835 0.62382 0.78296 0.0
C338 C 0.90858 0.57521 0.81614 0.0
C339 C 0.86706 0.56062 0.82783 0.0
C340 C 0.82628 0.57746 0.81657 0.0
C341 C 0.82749 0.60912 0.79457 0.0
C342 C 0.95274 0.55856 0.82782 0.0
C343 C 0.78121 0.56198 0.82772 0.0
H344 H 0.85194 0.41332 0.85894 0.0
H345 H 0.84836 0.51682 0.92278 0.0
H346 H 0.8367 0.47716 0.801 0.0
H347 H 0.89672 0.47866 0.8029 0.0
H348 H 0.86708 0.42748 0.81123 0.0
H349 H 0.86693 0.59216 0.912 0.0
H350 H 0.89491 0.60388 0.87875 0.0
H351 H 0.83491 0.60631 0.88076 0.0
H352 H 0.94038 0.61816 0.7849 0.0
H353 H 0.79618 0.62248 0.78635 0.0
H354 H 0.9546 0.52149 0.82586 0.0
H355 H 0.95515 0.56681 0.8508 0.0
H356 H 0.98208 0.57354 0.81669 0.0
H357 H 0.77811 0.52501 0.82539 0.0
H358 H 0.75262 0.57797 0.81641 0.0
H359 H 0.77841 0.56989 0.85071 0.0
C360 C 0.92383 0.41488 0.04031 0.0
C361 C 0.90204 0.37504 0.03219 0.0
C362 C 0.95753 0.41461 0.06148 0.0
C363 C 0.9701 0.37347 0.07437 0.0
C364 C 0.94916 0.33308 0.0654 0.0
C365 C 0.91529 0.33445 0.04466 0.0
C366 C 0.97879 0.45839 0.0706 0.0
C367 C 0.96205 0.28831 0.07803 0.0
C368 C 0.08176 0.35539 0.11201 0.0
C369 C 0.06858 0.35336 0.14067 0.0
C370 C 0.05054 0.36433 0.09031 0.0
C371 C 1.0049 0.37188 0.09734 0.0
C372 C 0.99185 0.37254 0.12635 0.0
C373 C 0.02377 0.36311 0.14765 0.0
C374 C 0.06596 0.36298 0.05973 0.0
C375 C 0.94365 0.38094 0.13481 0.0
H376 H 0.91343 0.44637 0.03089 0.0
H377 H 0.89885 0.30347 0.03829 0.0
H378 H 0.97103 0.46493 0.0933 0.0
H379 H 0.01591 0.4564 0.06869 0.0
H380 H 0.96667 0.48721 0.05778 0.0
H381 H 0.94361 0.25986 0.06804 0.0
H382 H 0.99867 0.28257 0.0754 0.0
H383 H 0.95488 0.28828 0.10118 0.0
H384 H 0.11632 0.34825 0.10629 0.0
H385 H 0.01321 0.36193 0.16969 0.0
H386 H 0.05365 0.39282 0.04805 0.0
H387 H 0.05165 0.33285 0.04909 0.0
H388 H 0.10319 0.36165 0.05791 0.0
H389 H 0.93042 0.41104 0.12378 0.0
H390 H 0.93994 0.38579 0.15812 0.0
H391 H 0.92254 0.35192 0.12826 0.0
C392 C 0.6068 0.0947 0.49396 0.0
C393 C 0.64535 0.11893 0.50189 0.0
C394 C 0.60841 0.06269 0.47176 0.0
C395 C 0.64967 0.05421 0.45757 0.0
C396 C 0.6887 0.0782 0.4659 0.0
C397 C 0.68596 0.11034 0.48771 0.0
C398 C 0.56596 0.03819 0.46333 0.0
C399 C 0.73366 0.06963 0.45197 0.0
C400 C 0.67262 0.94153 0.42247 0.0
C401 C 0.67148 0.95201 0.39332 0.0
C402 C 0.66409 0.97404 0.44341 0.0
C403 C 0.65329 0.01838 0.43526 0.0
C404 C 0.6502 0.02896 0.40589 0.0
C405 C 0.65971 0.99576 0.38524 0.0
C406 C 0.66871 0.96126 0.47436 0.0
C407 C 0.63808 0.07568 0.3963 0.0
H408 H 0.5752 0.10158 0.50457 0.0
H409 H 0.71597 0.12879 0.49376 0.0
H410 H 0.55928 0.04312 0.44033 0.0
H411 H 0.57012 1.0016 0.46678 0.0
H412 H 0.53625 0.04981 0.4756 0.0
H413 H 0.76074 0.09138 0.46076 0.0
H414 H 0.74345 0.03403 0.45497 0.0
H415 H 0.73126 0.0756 0.42875 0.0
H416 H 0.68155 0.90793 0.42916 0.0
H417 H 0.65844 1.0042 0.36285 0.0
H418 H 0.63792 0.97054 0.48627 0.0
H419 H 0.69718 0.98005 0.48403 0.0
H420 H 0.67483 0.92476 0.47722 0.0
H421 H 0.60736 0.08737 0.40745 0.0
H422 H 0.63225 0.07738 0.37299 0.0
H423 H 0.66565 0.09928 0.40189 0.0
C424 C 0.40706 0.0966 0.74021 0.0
C425 C 0.38217 0.13466 0.74801 0.0
C426 C 0.43902 0.09863 0.718 0.0
C427 C 0.4469 0.13986 0.70368 0.0
C428 C 0.42171 0.17818 0.71154 0.0
C429 C 0.38963 0.175 0.73331 0.0
C430 C 0.46465 0.05683 0.70999 0.0
C431 C 0.42951 0.22312 0.69749 0.0
C432 C 0.56073 0.16699 0.67115 0.0
C433 C 0.55167 0.16596 0.64179 0.0
C434 C 0.52747 0.1569 0.69133 0.0
C435 C 0.48382 0.14454 0.68217 0.0
C436 C 0.47479 0.14148 0.65256 0.0
C437 C 0.50867 0.15264 0.6327 0.0
C438 C 0.53861 0.16166 0.72256 0.0
C439 C 0.42894 0.12766 0.64186 0.0
H440 H 0.40129 0.06523 0.75126 0.0
H441 H 0.37084 0.20475 0.73918 0.0
H442 H 0.46206 0.05077 0.68675 0.0
H443 H 0.50082 0.06137 0.71505 0.0
H444 H 0.4521 0.02668 0.72139 0.0
H445 H 0.40631 0.24944 0.70553 0.0
H446 H 0.4646 0.23437 0.70137 0.0
H447 H 0.42502 0.22011 0.67415 0.0
H448 H 0.59372 0.17713 0.67862 0.0
H449 H 0.50133 0.15137 0.61014 0.0
H450 H 0.5297 0.1305 0.73412 0.0
H451 H 0.51848 0.18932 0.73193 0.0
H452 H 0.5748 0.16903 0.72625 0.0
H453 H 0.41747 0.09676 0.65286 0.0
H454 H 0.42877 0.12149 0.61855 0.0
H455 H 0.40424 0.15445 0.64671 0.0
C456 C 0.32558 0.92274 0.99872 0.0
C457 C 0.36177 0.89363 1.00317 0.0
C458 C 0.32181 0.94757 0.97349 0.0
C459 C 0.35417 0.94182 0.95167 0.0
C460 C 0.39214 0.91419 0.95673 0.0
C461 C 0.39574 0.89077 0.98263 0.0
C462 C 0.28151 0.97763 0.96946 0.0
C463 C 0.42696 0.9063 0.93395 0.0
C464 C 0.30345 0.95644 0.87799 0.0
C465 C 0.31735 1.00001 0.87073 0.0
C466 C 0.31733 0.93628 0.90352 0.0
C467 C 0.34512 0.9605 0.92271 0.0
C468 C 0.36101 1.00362 0.91495 0.0
C469 C 0.3476 0.02246 0.88885 0.0
C470 C 0.30063 0.88965 0.91047 0.0
C471 C 0.39023 0.03089 0.93482 0.0
H472 H 0.2991 0.92456 1.01454 0.0
H473 H 0.42328 0.86753 0.98585 0.0
H474 H 0.29202 0.01062 0.96074 0.0
H475 H 0.25804 0.96205 0.95394 0.0
H476 H 0.26307 0.98333 0.98969 0.0
H477 H 0.45753 0.88973 0.94252 0.0
H478 H 0.41238 0.88442 0.91715 0.0
H479 H 0.43692 0.93833 0.92375 0.0
H480 H 0.28072 0.93832 0.86402 0.0
H481 H 0.35967 0.05548 0.88321 0.0
H482 H 0.27664 0.89134 0.92849 0.0
H483 H 0.32906 0.86802 0.91715 0.0
H484 H 0.28338 0.87351 0.89212 0.0
H485 H 0.37056 0.04014 0.95399 0.0
H486 H 0.40283 0.06218 0.92473 0.0
H487 H 0.4194 0.01081 0.94209 0.0
C488 C 0.6014 0.82262 0.24166 0.0
C489 C 0.61648 0.86349 0.25313 0.0
C490 C 0.56925 0.82126 0.2198 0.0
C491 C 0.55222 0.86187 0.20854 0.0
C492 C 0.56716 0.90339 0.22012 0.0
C493 C 0.59881 0.90372 0.24253 0.0
C494 C 0.55347 0.77617 0.20879 0.0
C495 C 0.55034 0.94741 0.20846 0.0
C496 C 0.49621 0.8476 0.13579 0.0
C497 C 0.45079 0.84344 0.14344 0.0
C498 C 0.52953 0.85616 0.15656 0.0
C499 C 0.51721 0.86016 0.18563 0.0
C500 C 0.47125 0.85786 0.19319 0.0
C501 C 0.43879 0.84992 0.17208 0.0
C502 C 0.57812 0.85912 0.14755 0.0
C503 C 0.4564 0.86129 0.22384 0.0
H504 H 0.61491 0.79142 0.24983 0.0
H505 H 0.61093 0.93539 0.25103 0.0
H506 H 0.51649 0.77314 0.21134 0.0
H507 H 0.56091 0.77319 0.18576 0.0
H508 H 0.5697 0.74772 0.22003 0.0
H509 H 0.56561 0.97678 0.21948 0.0
H510 H 0.55815 0.94959 0.18544 0.0
H511 H 0.51326 0.94935 0.21063 0.0
H512 H 0.50589 0.84289 0.11378 0.0
H513 H 0.40382 0.84733 0.17836 0.0
H514 H 0.59653 0.82917 0.15526 0.0
H515 H 0.59437 0.8891 0.15719 0.0
H516 H 0.58174 0.8609 0.12406 0.0
H517 H 0.46923 0.83198 0.23588 0.0
H518 H 0.41921 0.8622 0.22599 0.0
H519 H 0.47064 0.89189 0.23393 0.0
C520 C 0.29331 0.95353 0.12114 0.0
C521 C 0.26578 0.91958 0.10981 0.0
C522 C 0.2749 0.99422 0.13094 0.0
C523 C 0.22782 1.00124 0.1293 0.0
C524 C 0.20005 0.96757 0.11721 0.0
C525 C 0.21932 0.92727 0.10764 0.0
C526 C 0.30569 0.02925 0.14373 0.0
C527 C 0.14978 0.97374 0.11485 0.0
C528 C 0.17469 0.08327 0.18152 0.0
C529 C 0.16926 0.12187 0.1648 0.0
C530 C 0.19353 0.04389 0.17019 0.0
C531 C 0.20732 0.04287 0.14138 0.0
C532 C 0.2012 0.08141 0.12422 0.0
C533 C 0.1822 0.12041 0.13612 0.0
C534 C 0.19902 1.00345 0.18917 0.0
C535 C 0.2154 0.08168 0.09341 0.0
H536 H 0.32913 0.94778 0.12309 0.0
H537 H 0.19787 0.90166 0.0984 0.0
H538 H 0.30094 0.06191 0.13287 0.0
H539 H 0.29714 0.03432 0.16648 0.0
H540 H 0.34169 0.01964 0.14221 0.0
H541 H 0.13309 0.94512 0.10387 0.0
H542 H 0.13497 0.97728 0.13639 0.0
H543 H 0.14212 1.00502 0.10305 0.0
H544 H 0.16419 0.08385 0.20358 0.0
H545 H 0.17861 0.1502 0.12313 0.0
H546 H 0.23503 0.99396 0.19039 0.0
H547 H 0.18055 0.97435 0.18007 0.0
H548 H 0.18649 0.00964 0.21108 0.0
H549 H 0.25213 0.07567 0.09185 0.0
H550 H 0.2075 0.11397 0.08276 0.0
H551 H 0.19834 0.05408 0.0817 0.0
C552 C 0.5591 0.77296 0.34847 0.0
C553 C 0.59944 0.76959 0.36369 0.0
C554 C 0.51906 0.75443 0.35921 0.0
C555 C 0.51933 0.73311 0.38612 0.0
C556 C 0.55996 0.73037 0.40175 0.0
C557 C 0.5996 0.74819 0.39018 0.0
C558 C 0.47664 0.75722 0.34165 0.0
C559 C 0.56147 0.70898 0.43082 0.0
C560 C 0.40901 0.72296 0.4263 0.0
C561 C 0.39814 0.67736 0.42252 0.0
C562 C 0.44833 0.74145 0.41466 0.0
C563 C 0.47712 0.71406 0.39817 0.0
C564 C 0.46616 0.66825 0.39383 0.0
C565 C 0.42714 0.65034 0.4063 0.0
C566 C 0.45918 0.79029 0.42017 0.0
C567 C 0.49575 0.63811 0.37605 0.0
H568 H 0.55921 0.7892 0.32788 0.0
H569 H 0.63077 0.74614 0.40206 0.0
H570 H 0.4632 0.72298 0.33765 0.0
H571 H 0.45046 0.77605 0.35346 0.0
H572 H 0.48233 0.77398 0.32088 0.0
H573 H 0.59561 0.71033 0.44041 0.0
H574 H 0.53764 0.72627 0.44529 0.0
H575 H 0.55073 0.67335 0.42939 0.0
H576 H 0.3865 0.74457 0.43815 0.0
H577 H 0.41966 0.61499 0.40351 0.0
H578 H 0.46114 0.80876 0.39976 0.0
H579 H 0.49256 0.79327 0.43059 0.0
H580 H 0.43372 0.80683 0.4339 0.0
H581 H 0.50075 0.65297 0.35466 0.0
H582 H 0.48132 0.60389 0.37346 0.0
H583 H 0.52939 0.63514 0.38607 0.0
C584 C 0.71141 0.06504 0.62117 0.0
C585 C 0.73901 0.09902 0.61009 0.0
C586 C 0.72987 0.02514 0.63189 0.0
C587 C 0.77709 0.01903 0.63151 0.0
C588 C 0.8051 0.05294 0.62007 0.0
C589 C 0.78573 0.09247 0.6095 0.0
C590 C 0.69888 0.98979 0.64398 0.0
C591 C 0.85557 0.0476 0.61915 0.0
C592 C 0.82758 0.93608 0.68382 0.0
C593 C 0.83407 0.89806 0.66662 0.0
C594 C 0.80932 0.97571 0.67263 0.0
C595 C 0.79725 0.97745 0.64351 0.0
C596 C 0.80422 0.93942 0.62595 0.0
C597 C 0.82255 0.9002 0.63771 0.0
C598 C 0.80267 0.01566 0.69201 0.0
C599 C 0.79172 0.93994 0.59482 0.0
H600 H 0.67538 0.07004 0.62206 0.0
H601 H 0.80724 0.11821 0.60059 0.0
H602 H 0.7041 0.95734 0.63284 0.0
H603 H 0.70681 0.98435 0.66677 0.0
H604 H 0.66288 0.99923 0.6421 0.0
H605 H 0.87259 0.07688 0.60923 0.0
H606 H 0.86889 0.04336 0.64102 0.0
H607 H 0.8645 0.01693 0.60698 0.0
H608 H 0.83697 0.9349 0.70608 0.0
H609 H 0.82689 0.8708 0.62436 0.0
H610 H 0.76657 0.02497 0.69257 0.0
H611 H 0.82146 0.04506 0.6837 0.0
H612 H 0.8141 0.00897 0.71409 0.0
H613 H 0.75511 0.94601 0.59248 0.0
H614 H 0.8002 0.90792 0.58392 0.0
H615 H 0.80944 0.9678 0.58389 0.0
C616 C 0.44324 0.25274 0.85413 0.0
C617 C 0.43966 0.2087 0.86421 0.0
C618 C 0.48004 0.28008 0.86192 0.0
C619 C 0.51429 0.26243 0.87967 0.0
C620 C 0.51181 0.21704 0.88848 0.0
C621 C 0.47427 0.191 0.88095 0.0
C622 C 0.48103 0.32843 0.85244 0.0
C623 C 0.54797 0.19641 0.90681 0.0
C624 C 0.62864 0.31899 0.88792 0.0
C625 C 0.62519 0.33779 0.91521 0.0
C626 C 0.59234 0.29561 0.87558 0.0
C627 C 0.55133 0.29169 0.8907 0.0
C628 C 0.54706 0.31254 0.9177 0.0
C629 C 0.5842 0.33486 0.92977 0.0
C630 C 0.59865 0.27319 0.84704 0.0
C631 C 0.50371 0.30997 0.93431 0.0
H632 H 0.41608 0.26642 0.84148 0.0
H633 H 0.4713 0.15684 0.88862 0.0
H634 H 0.4767 0.35071 0.87119 0.0
H635 H 0.51403 0.33672 0.84279 0.0
H636 H 0.45405 0.33594 0.83682 0.0
H637 H 0.54305 0.15969 0.90963 0.0
H638 H 0.58159 0.20224 0.89726 0.0
H639 H 0.54796 0.21257 0.92809 0.0
H640 H 0.66045 0.32087 0.87673 0.0
H641 H 0.58135 0.34971 0.95077 0.0
H642 H 0.5708 0.28213 0.83243 0.0
H643 H 0.59785 0.23619 0.84974 0.0
H644 H 0.63108 0.28263 0.83695 0.0
H645 H 0.47495 0.32011 0.92073 0.0
H646 H 0.50436 0.33171 0.95355 0.0
H647 H 0.49759 0.27483 0.94109 0.0
C648 C 0.6518 0.42105 0.63673 0.0
C649 C 0.67638 0.39385 0.6179 0.0
C650 C 0.67091 0.4599 0.64891 0.0
C651 C 0.71549 0.47246 0.64179 0.0
C652 C 0.74057 0.44515 0.62294 0.0
C653 C 0.72094 0.4061 0.61149 0.0
C654 C 0.64316 0.48785 0.66913 0.0
C655 C 0.78801 0.45751 0.61452 0.0
C656 C 0.74672 0.59599 0.64869 0.0
C657 C 0.77222 0.59663 0.67378 0.0
C658 C 0.72849 0.55583 0.63797 0.0
C659 C 0.73521 0.51522 0.65297 0.0
C660 C 0.76096 0.51563 0.67839 0.0
C661 C 0.77957 0.55629 0.68833 0.0
C662 C 0.70217 0.55686 0.6105 0.0
C663 C 0.76831 0.47324 0.69526 0.0
H664 H 0.61726 0.41247 0.64167 0.0
H665 H 0.74082 0.38497 0.59759 0.0
H666 H 0.66172 0.49305 0.68937 0.0
H667 H 0.63707 0.52147 0.65981 0.0
H668 H 0.61016 0.47205 0.67395 0.0
H669 H 0.80316 0.43255 0.59981 0.0
H670 H 0.78819 0.49082 0.604 0.0
H671 H 0.80958 0.46029 0.6337 0.0
H672 H 0.74152 0.62703 0.6372 0.0
H673 H 0.79893 0.55683 0.70786 0.0
H674 H 0.6673 0.5449 0.6142 0.0
H675 H 0.71768 0.53382 0.59475 0.0
H676 H 0.70069 0.59105 0.60116 0.0
H677 H 0.7354 0.45872 0.70158 0.0
H678 H 0.78868 0.47926 0.71472 0.0
H679 H 0.78561 0.44781 0.68194 0.0
C680 C 0.11424 0.17478 0.90465 0.0
C681 C 0.13422 0.193 0.8802 0.0
C682 C 0.0737 0.19207 0.91546 0.0
C683 C 0.05258 0.22852 0.90155 0.0
C684 C 0.07291 0.2475 0.87716 0.0
C685 C 0.11327 0.22945 0.86675 0.0
C686 C 0.05309 0.17089 0.94152 0.0
C687 C 0.05152 0.28636 0.86167 0.0
C688 C 0.92642 0.24512 0.90964 0.0
C689 C 0.92419 0.2805 0.92937 0.0
C690 C 0.96789 0.22754 0.90075 0.0
C691 C 0.00835 0.2458 0.91176 0.0
C692 C 1.00645 0.28131 0.93182 0.0
C693 C 0.96444 0.2982 0.94039 0.0
C694 C 0.96839 0.1897 0.8793 0.0
C695 C 0.0488 0.30169 0.94408 0.0
H696 H 0.13036 0.14698 0.9154 0.0
H697 H 0.12785 0.24331 0.84757 0.0
H698 H 0.04775 0.19671 0.95822 0.0
H699 H 0.01964 0.15661 0.93612 0.0
H700 H 0.0744 0.14374 0.95041 0.0
H701 H 0.07258 0.29858 0.84378 0.0
H702 H 0.01827 0.27601 0.85312 0.0
H703 H 0.04567 0.31466 0.8766 0.0
H704 H 0.89566 0.23158 0.90071 0.0
H705 H 0.96316 0.32499 0.95598 0.0
H706 H 0.98726 0.16067 0.88793 0.0
H707 H 0.98597 0.2007 0.85971 0.0
H708 H 0.93399 0.17832 0.87345 0.0
H709 H 0.06937 0.27531 0.95439 0.0
H710 H 0.04158 0.32838 0.95998 0.0
H711 H 0.06943 0.31636 0.92677 0.0
C712 C 0.32443 0.61619 0.15047 0.0
C713 C 0.33445 0.61717 0.12133 0.0
C714 C 0.3071 0.57726 0.1633 0.0
C715 C 0.30005 0.53816 0.14665 0.0
C716 C 0.3109 0.5387 0.11732 0.0
C717 C 0.32771 0.57825 0.10499 0.0
C718 C 0.2955 0.57826 0.19454 0.0
C719 C 0.30445 0.49755 0.09892 0.0
C720 C 0.29028 0.42519 0.18389 0.0
C721 C 0.24363 0.41754 0.18345 0.0
C722 C 0.30907 0.46428 0.17209 0.0
C723 C 0.28059 0.49691 0.15978 0.0
C724 C 0.23347 0.48987 0.15967 0.0
C725 C 0.21562 0.45027 0.17134 0.0
C726 C 0.3595 0.47043 0.17254 0.0
C727 C 0.20189 0.52398 0.14691 0.0
H728 H 0.32906 0.64634 0.16313 0.0
H729 H 0.33583 0.57869 0.08252 0.0
H730 H 0.25904 0.57158 0.19738 0.0
H731 H 0.31393 0.55141 0.20593 0.0
H732 H 0.30375 0.61104 0.20462 0.0
H733 H 0.31573 0.50307 0.07668 0.0
H734 H 0.32347 0.4689 0.10791 0.0
H735 H 0.26842 0.48779 0.0986 0.0
H736 H 0.31227 0.40064 0.19351 0.0
H737 H 0.17969 0.44465 0.17038 0.0
H738 H 0.36837 0.50184 0.184 0.0
H739 H 0.37231 0.47374 0.15049 0.0
H740 H 0.37702 0.44194 0.18294 0.0
H741 H 0.20717 0.55723 0.15709 0.0
H742 H 0.16601 0.51427 0.14942 0.0
H743 H 0.20912 0.52791 0.12391 0.0
C744 C 0.90906 0.78608 0.35872 0.0
C745 C 0.89744 0.83103 0.36405 0.0
C746 C 0.94876 0.76751 0.36971 0.0
C747 C 0.97731 0.79418 0.38697 0.0
C748 C 0.96564 0.83935 0.39279 0.0
C749 C 0.9261 0.85734 0.38108 0.0
C750 C 0.96024 0.71934 0.36274 0.0
C751 C 0.99502 0.86874 0.41134 0.0
C752 C 0.06025 0.73347 0.43504 0.0
C753 C 0.10049 0.73827 0.41986 0.0
C754 C 0.01995 0.75197 0.42479 0.0
C755 C 0.01983 0.775 0.39845 0.0
C756 C 0.06035 0.77935 0.38288 0.0
C757 C 0.10025 0.76131 0.39392 0.0
C758 C 0.97763 0.7473 0.44226 0.0
C759 C 0.06149 0.80277 0.35445 0.0
H760 H 0.88683 0.76503 0.34616 0.0
H761 H 0.91794 0.89222 0.38507 0.0
H762 H 0.99353 0.71776 0.35214 0.0
H763 H 0.96271 0.69945 0.38258 0.0
H764 H 0.93484 0.70332 0.34862 0.0
H765 H 0.9803 0.90257 0.41479 0.0
H766 H 1.0002 0.85259 0.43232 0.0
H767 H 0.02861 0.8728 0.40142 0.0
H768 H 0.06058 0.71608 0.45525 0.0
H769 H 0.13129 0.76456 0.38205 0.0
H770 H 0.9516 0.72893 0.42992 0.0
H771 H 0.96386 0.78101 0.44723 0.0
H772 H 0.98358 0.72916 0.46252 0.0
H773 H 0.03788 0.78604 0.33948 0.0
H774 H 0.09563 0.80276 0.34486 0.0
H775 H 0.05023 0.83805 0.35687 0.0
C776 C 0.81071 0.06431 0.26017 0.0
C777 C 0.81195 0.03218 0.28192 0.0
C778 C 0.84422 0.09727 0.25765 0.0
C779 C 0.87995 0.09864 0.27756 0.0
C780 C 0.88073 0.06729 0.30019 0.0
C781 C 0.84672 0.03437 0.3021 0.0
C782 C 0.84174 0.13017 0.2333 0.0
C783 C 0.91802 0.06791 0.32197 0.0
C784 C 0.9842 0.15909 0.25016 0.0
C785 C 0.97711 0.20279 0.26033 0.0
C786 C 0.95407 0.12413 0.25682 0.0
C787 C 0.91621 0.13304 0.27427 0.0
C788 C 0.91053 0.1765 0.28597 0.0
C789 C 0.9409 0.21081 0.27876 0.0
C790 C 0.96131 0.07833 0.24382 0.0
C791 C 0.87107 0.18742 0.30493 0.0
H792 H 0.78356 0.06337 0.24481 0.0
H793 H 0.84819 0.00948 0.31882 0.0
H794 H 0.84081 0.16505 0.24163 0.0
H795 H 0.87223 0.12715 0.21985 0.0
H796 H 0.81165 0.12466 0.2197 0.0
H797 H 0.91251 0.04292 0.33912 0.0
H798 H 0.95058 0.06055 0.31146 0.0
H799 H 0.92094 0.10178 0.3317 0.0
H800 H 0.01197 0.15275 0.23582 0.0
H801 H 0.93576 0.24435 0.2871 0.0
H802 H 0.93467 0.07159 0.22781 0.0
H803 H 0.95871 0.05189 0.26031 0.0
H804 H 0.99457 0.07555 0.23323 0.0
H805 H 0.8396 0.18666 0.29223 0.0
H806 H 0.87433 0.22111 0.31494 0.0
H807 H 0.86764 0.16191 0.32194 0.0
C808 C 0.43354 0.29979 0.51305 0.0
C809 C 0.47001 0.30692 0.5315 0.0
C810 C 0.40007 0.33243 0.50945 0.0
C811 C 0.40324 0.37354 0.52449 0.0
C812 C 0.43932 0.38048 0.54379 0.0
C813 C 0.47216 0.34693 0.54719 0.0
C814 C 0.36182 0.32326 0.48908 0.0
C815 C 0.44398 0.4239 0.56017 0.0
C816 C 0.34295 0.47553 0.49391 0.0
C817 C 0.30507 0.4784 0.51153 0.0
C818 C 0.37517 0.44156 0.49786 0.0
C819 C 0.36906 0.4094 0.51973 0.0
C820 C 0.33014 0.4114 0.53698 0.0
C821 C 0.2988 0.44592 0.53274 0.0
C822 C 0.41628 0.44068 0.47906 0.0
C823 C 0.32188 0.37741 0.56018 0.0
H824 H 0.43158 0.26868 0.50112 0.0
H825 H 0.50055 0.35277 0.5612 0.0
H826 H 0.3291 0.32761 0.50005 0.0
H827 H 0.36285 0.34775 0.47136 0.0
H828 H 0.36319 0.28882 0.47999 0.0
H829 H 0.47324 0.42362 0.57487 0.0
H830 H 0.44803 0.45226 0.54512 0.0
H831 H 0.41306 0.43036 0.5727 0.0
H832 H 0.34821 0.50085 0.47775 0.0
H833 H 0.2693 0.44775 0.5462 0.0
H834 H 0.41861 0.40786 0.46795 0.0
H835 H 0.44703 0.44443 0.49226 0.0
H836 H 0.41588 0.4678 0.46289 0.0
H837 H 0.32199 0.34296 0.55113 0.0
H838 H 0.28933 0.38293 0.57122 0.0
H839 H 0.34934 0.37914 0.57613 0.0
C840 C 0.06495 0.82288 0.72683 0.0
C841 C 0.03092 0.824 0.74746 0.0
C842 C 0.09927 0.8558 0.72646 0.0
C843 C 0.09896 0.89103 0.74686 0.0
C844 C 0.06401 0.89264 0.76728 0.0
C845 C 0.03077 0.85912 0.76741 0.0
C846 C 0.13617 0.85252 0.70457 0.0
C847 C 0.06157 0.92992 0.78909 0.0
C848 C 0.19947 0.96167 0.7702 0.0
C849 C 0.19032 1.00288 0.75696 0.0
C850 C 0.17202 0.92373 0.76538 0.0
C851 C 0.1343 0.927 0.74702 0.0
C852 C 0.12703 0.96743 0.73195 0.0
C853 C 0.15523 1.00461 0.73693 0.0
C854 C 0.18155 0.88111 0.78156 0.0
C855 C 0.08735 0.97268 0.71219 0.0
H856 H 0.06528 0.79568 0.71149 0.0
H857 H 1.00412 0.86065 0.78306 0.0
H858 H 0.13762 0.88375 0.6918 0.0
H859 H 0.16916 0.84903 0.71538 0.0
H860 H 0.13135 0.82352 0.68997 0.0
H861 H 0.03186 0.92665 0.80325 0.0
H862 H 0.09237 0.92993 0.80243 0.0
H863 H 0.05991 0.96293 0.77826 0.0
H864 H 0.22639 0.95963 0.78563 0.0
H865 H 0.14848 0.03582 0.726 0.0
H866 H 0.17866 0.85144 0.76735 0.0
H867 H 0.15634 0.87708 0.79875 0.0
H868 H 0.2156 0.88145 0.79132 0.0
H869 H 0.08466 0.94352 0.69757 0.0
H870 H 0.08962 1.00386 0.69934 0.0
H871 H 0.05591 0.9739 0.72486 0.0
C872 C 0.66315 0.53989 0.99112 0.0
C873 C 0.7041 0.54318 1.00578 0.0
C874 C 0.62889 0.57186 0.99535 0.0
C875 C 0.636 0.60829 1.01438 0.0
C876 C 0.67796 0.61254 0.02839 0.0
C877 C 0.71128 0.57989 0.02403 0.0
C878 C 0.58461 0.56598 0.98006 0.0
C879 C 0.68744 0.65119 0.04839 0.0
C880 C 0.56135 0.71122 1.00651 0.0
C881 C 0.52982 0.70517 0.02837 0.0
C882 C 0.59631 0.6804 1.002 0.0
C883 C 0.59975 0.64209 0.0196 0.0
C884 C 0.56864 0.6363 0.0422 0.0
C885 C 0.53421 0.66809 0.04643 0.0
C886 C 0.62915 0.6885 0.97806 0.0
C887 C 0.571 0.59586 0.06139 0.0
H888 H 0.65727 0.5113 0.9773 0.0
H889 H 0.74305 0.58273 0.0352 0.0
H890 H 0.5571 0.56207 0.9958 0.0
H891 H 0.57701 0.59631 0.9673 0.0
H892 H 0.58454 0.53626 0.96573 0.0
H893 H 0.72233 0.65049 0.05685 0.0
H894 H 0.68215 0.68359 0.0373 0.0
H895 H 0.66369 0.65016 0.06655 0.0
H896 H 0.55826 0.74007 0.99266 0.0
H897 H 0.50961 0.663 0.06311 0.0
H898 H 0.62688 0.66076 0.96233 0.0
H899 H 0.66407 0.68886 0.9864 0.0
H900 H 0.62279 0.72073 0.96693 0.0
H901 H 0.56683 0.56474 0.04861 0.0
H902 H 0.54473 0.59648 0.07818 0.0
H903 H 0.60449 0.59416 0.07175 0.0
loop_
_geom_bond_atom_site_label_1
_geom_bond_atom_site_label_2
_geom_bond_distance
_geom_bond_site_symmetry_2
_ccdc_geom_bond_type
C0 C1 1.351 . S
C0 N3 1.368 . S
C0 H5 0.931 . S
C1 C0 1.351 . S
C1 N2 1.373 1_455 S
C1 H29 0.930 . S
N2 C1 1.373 1_655 S
N2 C4 1.340 . S
N3 C0 1.368 . S
N3 C4 1.321 1_455 S
N3 Co6 2.135 . S
C4 N2 1.340 . S
C4 N3 1.321 1_655 S
C4 H28 0.930 . S
H5 C0 0.931 . S
Co6 N3 2.135 . S
Co6 N9 2.121 . S
Co6 O14 2.055 . S
Co6 O17 2.039 . S
Co6 N20 2.140 . S
C7 O8 1.227 . S
C7 O17 1.265 . S
O8 C7 1.227 . S
N9 Co6 2.121 . S
N9 C11 1.375 . S
N9 C12 1.313 . S
C10 C11 1.338 . S
C10 N13 1.377 . S
C10 H30 0.930 . S
C11 N9 1.375 . S
C11 C10 1.338 . S
C11 H15 0.931 . S
C12 N9 1.313 . S
C12 N13 1.344 . S
C12 H16 0.930 . S
N13 C10 1.377 . S
N13 C12 1.344 . S
O14 Co6 2.055 . S
O14 C18 1.253 . S
H15 C11 0.931 . S
H16 C12 0.930 . S
O17 Co6 2.039 . S
O17 C7 1.265 . S
C18 O14 1.253 . S
C18 O19 1.227 . S
O19 C18 1.227 . S
N20 Co6 2.140 . S
N20 C23 1.346 . S
N20 C24 1.345 . S
C21 C22 1.387 . S
C21 C25 1.391 . S
C22 C21 1.387 . S
C22 C23 1.369 . S
C22 H31 0.929 . S
C23 N20 1.346 . S
C23 C22 1.369 . S
C23 H26 0.928 . S
C24 N20 1.345 . S
C24 C25 1.371 . S
C24 H27 0.931 . S
C25 C21 1.391 . S
C25 C24 1.371 . S
C25 H32 0.930 . S
H26 C23 0.928 . S
H27 C24 0.931 . S
H28 C4 0.930 . S
H29 C1 0.930 . S
H30 C10 0.930 . S
H31 C22 0.929 . S
H32 C25 0.930 . S
C33 C34 1.351 . S
C33 N36 1.368 . S
C33 H38 0.931 . S
C34 C33 1.351 . S
C34 N35 1.373 . S
C34 H62 0.930 . S
N35 C34 1.373 . S
N35 C37 1.340 . S
N36 C33 1.368 . S
N36 C37 1.321 . S
N36 Co39 2.135 . S
C37 N35 1.340 . S
C37 N36 1.321 . S
C37 H61 0.930 . S
H38 C33 0.931 . S
Co39 N36 2.135 . S
Co39 N42 2.121 . S
Co39 O47 2.055 . S
Co39 O50 2.039 . S
Co39 N53 2.140 . S
C40 O41 1.227 . S
C40 O50 1.265 . S
O41 C40 1.227 . S
N42 Co39 2.121 . S
N42 C44 1.375 . S
N42 C45 1.313 . S
C43 C44 1.338 . S
C43 N46 1.377 . S
C43 H63 0.930 . S
C44 N42 1.375 . S
C44 C43 1.338 . S
C44 H48 0.931 . S
C45 N42 1.313 . S
C45 N46 1.344 . S
C45 H49 0.930 . S
N46 C43 1.377 . S
N46 C45 1.344 . S
O47 Co39 2.055 . S
O47 C51 1.253 . S
H48 C44 0.931 . S
H49 C45 0.930 . S
O50 Co39 2.039 . S
O50 C40 1.265 . S
C51 O47 1.253 . S
C51 O52 1.227 . S
O52 C51 1.227 . S
N53 Co39 2.140 . S
N53 C56 1.346 . S
N53 C57 1.345 . S
C54 C55 1.387 . S
C54 C58 1.391 . S
C55 C54 1.387 . S
C55 C56 1.369 . S
C55 H64 0.929 . S
C56 N53 1.346 . S
C56 C55 1.369 . S
C56 H59 0.928 . S
C57 N53 1.345 . S
C57 C58 1.371 . S
C57 H60 0.931 . S
C58 C54 1.391 . S
C58 C57 1.371 . S
C58 H65 0.930 . S
H59 C56 0.928 . S
H60 C57 0.931 . S
H61 C37 0.930 . S
H62 C34 0.930 . S
H63 C43 0.930 . S
H64 C55 0.929 . S
H65 C58 0.930 . S
C66 C67 1.351 . S
C66 N69 1.368 . S
C66 H71 0.931 . S
C67 C66 1.351 . S
C67 N68 1.373 1_655 S
C67 H95 0.930 . S
N68 C67 1.373 1_455 S
N68 C70 1.340 . S
N69 C66 1.368 . S
N69 C70 1.321 1_655 S
N69 Co72 2.135 . S
C70 N68 1.340 . S
C70 N69 1.321 1_455 S
C70 H94 0.930 . S
H71 C66 0.931 . S
Co72 N69 2.135 . S
Co72 N75 2.121 . S
Co72 O80 2.055 . S
Co72 O83 2.039 . S
Co72 N86 2.140 . S
C73 O74 1.227 . S
C73 O83 1.265 . S
O74 C73 1.227 . S
N75 Co72 2.121 . S
N75 C77 1.375 . S
N75 C78 1.313 . S
C76 C77 1.338 . S
C76 N79 1.377 . S
C76 H96 0.930 . S
C77 N75 1.375 . S
C77 C76 1.338 . S
C77 H81 0.931 . S
C78 N75 1.313 . S
C78 N79 1.344 . S
C78 H82 0.930 . S
N79 C76 1.377 . S
N79 C78 1.344 . S
O80 Co72 2.055 . S
O80 C84 1.253 . S
H81 C77 0.931 . S
H82 C78 0.930 . S
O83 Co72 2.039 . S
O83 C73 1.265 . S
C84 O80 1.253 . S
C84 O85 1.227 . S
O85 C84 1.227 . S
N86 Co72 2.140 . S
N86 C89 1.346 . S
N86 C90 1.345 . S
C87 C88 1.387 . S
C87 C91 1.391 . S
C88 C87 1.387 . S
C88 C89 1.369 . S
C88 H97 0.929 . S
C89 N86 1.346 . S
C89 C88 1.369 . S
C89 H92 0.928 . S
C90 N86 1.345 . S
C90 C91 1.371 . S
C90 H93 0.931 . S
C91 C87 1.391 . S
C91 C90 1.371 . S
C91 H98 0.930 . S
H92 C89 0.928 . S
H93 C90 0.931 . S
H94 C70 0.930 . S
H95 C67 0.930 . S
H96 C76 0.930 . S
H97 C88 0.929 . S
H98 C91 0.930 . S
C99 C100 1.351 . S
C99 N102 1.368 . S
C99 H104 0.931 . S
C100 C99 1.351 . S
C100 N101 1.373 . S
C100 H128 0.902 1_556 S
N101 C100 1.373 . S
N101 C103 1.340 . S
N102 C99 1.368 . S
N102 C103 1.321 . S
N102 Co105 2.135 . S
C103 N101 1.340 . S
C103 N102 1.321 . S
C103 H127 0.930 . S
H104 C99 0.931 . S
Co105 N102 2.135 . S
Co105 N108 2.121 . S
Co105 O113 2.055 . S
Co105 O116 2.039 . S
Co105 N119 2.140 . S
C106 O107 1.227 . S
C106 O116 1.265 . S
O107 C106 1.227 . S
N108 Co105 2.121 . S
N108 C110 1.375 . S
N108 C111 1.313 . S
C109 C110 1.338 . S
C109 N112 1.377 . S
C109 H129 0.930 . S
C110 N108 1.375 . S
C110 C109 1.338 . S
C110 H114 0.931 . S
C111 N108 1.313 . S
C111 N112 1.344 . S
C111 H115 0.930 . S
N112 C109 1.377 . S
N112 C111 1.344 . S
O113 Co105 2.055 . S
O113 C117 1.253 . S
H114 C110 0.931 . S
H115 C111 0.930 . S
O116 Co105 2.039 . S
O116 C106 1.265 . S
C117 O113 1.253 . S
C117 O118 1.227 . S
O118 C117 1.227 . S
N119 Co105 2.140 . S
N119 C122 1.346 . S
N119 C123 1.345 . S
C120 C121 1.387 . S
C120 C124 1.391 . S
C121 C120 1.387 . S
C121 C122 1.369 . S
C121 H130 0.929 . S
C122 N119 1.346 . S
C122 C121 1.369 . S
C122 H125 0.928 . S
C123 N119 1.345 . S
C123 C124 1.371 . S
C123 H126 0.931 . S
C124 C120 1.391 . S
C124 C123 1.371 . S
C124 H131 0.930 . S
H125 C122 0.928 . S
H126 C123 0.931 . S
H127 C103 0.930 . S
H128 C100 0.902 1_554 S
H129 C109 0.930 . S
H130 C121 0.929 . S
H131 C124 0.930 . S
C132 C133 1.351 . S
C132 N135 1.368 . S
C132 H137 0.931 . S
C133 C132 1.351 . S
C133 N134 1.373 . S
C133 H161 0.930 . S
N134 C133 1.373 . S
N134 C136 1.340 . S
N135 C132 1.368 . S
N135 C136 1.321 . S
N135 Co138 2.135 . S
C136 N134 1.340 . S
C136 N135 1.321 . S
C136 H160 0.930 . S
H137 C132 0.931 . S
Co138 N135 2.135 . S
Co138 N141 2.121 . S
Co138 O146 2.055 . S
Co138 O149 2.039 . S
Co138 N152 2.140 . S
C139 O140 1.227 . S
C139 O149 1.265 . S
O140 C139 1.227 . S
N141 Co138 2.121 . S
N141 C143 1.375 . S
N141 C144 1.313 . S
C142 C143 1.338 . S
C142 N145 1.377 . S
C142 H162 0.930 . S
C143 N141 1.375 . S
C143 C142 1.338 . S
C143 H147 0.931 . S
C144 N141 1.313 . S
C144 N145 1.344 . S
C144 H148 0.930 . S
N145 C142 1.377 . S
N145 C144 1.344 . S
O146 Co138 2.055 . S
O146 C150 1.253 . S
H147 C143 0.931 . S
H148 C144 0.930 . S
O149 Co138 2.039 . S
O149 C139 1.265 . S
C150 O146 1.253 . S
C150 O151 1.227 . S
O151 C150 1.227 . S
N152 Co138 2.140 . S
N152 C155 1.346 . S
N152 C156 1.345 . S
C153 C154 1.387 . S
C153 C157 1.391 . S
C154 C153 1.387 . S
C154 C155 1.369 . S
C154 H163 0.929 . S
C155 N152 1.346 . S
C155 C154 1.369 . S
C155 H158 0.928 . S
C156 N152 1.345 . S
C156 C157 1.371 . S
C156 H159 0.931 . S
C157 C153 1.391 . S
C157 C156 1.371 . S
C157 H164 0.930 . S
H158 C155 0.928 . S
H159 C156 0.931 . S
H160 C136 0.930 . S
H161 C133 0.930 . S
H162 C142 0.930 . S
H163 C154 0.929 . S
H164 C157 0.930 . S
C165 C166 1.351 . S
C165 N168 1.368 . S
C165 H170 0.931 . S
C166 C165 1.351 . S
C166 N167 1.373 1_545 S
C166 H194 0.930 . S
N167 C166 1.373 1_565 S
N167 C169 1.340 . S
N168 C165 1.368 . S
N168 C169 1.321 1_545 S
N168 Co171 2.135 . S
C169 N167 1.340 . S
C169 N168 1.321 1_565 S
C169 H193 0.930 . S
H170 C165 0.931 . S
Co171 N168 2.135 . S
Co171 N174 2.121 . S
Co171 O179 2.055 . S
Co171 O182 2.039 . S
Co171 N185 2.140 . S
C172 O173 1.227 . S
C172 O182 1.265 . S
O173 C172 1.227 . S
N174 Co171 2.121 . S
N174 C176 1.375 . S
N174 C177 1.313 . S
C175 C176 1.338 . S
C175 N178 1.377 . S
C175 H195 0.930 . S
C176 N174 1.375 . S
C176 C175 1.338 . S
C176 H180 0.931 . S
C177 N174 1.313 . S
C177 N178 1.344 . S
C177 H181 0.930 . S
N178 C175 1.377 . S
N178 C177 1.344 . S
O179 Co171 2.055 . S
O179 C183 1.253 . S
H180 C176 0.931 . S
H181 C177 0.930 . S
O182 Co171 2.039 . S
O182 C172 1.265 . S
C183 O179 1.253 . S
C183 O184 1.227 . S
O184 C183 1.227 . S
N185 Co171 2.140 . S
N185 C188 1.346 . S
N185 C189 1.345 . S
C186 C187 1.387 . S
C186 C190 1.391 . S
C187 C186 1.387 . S
C187 C188 1.369 . S
C187 H196 0.929 . S
C188 N185 1.346 . S
C188 C187 1.369 . S
C188 H191 0.928 . S
C189 N185 1.345 . S
C189 C190 1.371 . S
C189 H192 0.931 . S
C190 C186 1.391 . S
C190 C189 1.371 . S
C190 H197 0.930 . S
H191 C188 0.928 . S
H192 C189 0.931 . S
H193 C169 0.930 . S
H194 C166 0.930 . S
H195 C175 0.930 . S
H196 C187 0.929 . S
H197 C190 0.930 . S
C198 C199 1.351 . S
C198 N201 1.368 . S
C198 H203 0.931 . S
C199 C198 1.351 . S
C199 N200 1.373 . S
C199 H227 0.902 1_554 S
N200 C199 1.373 . S
N200 C202 1.340 . S
N201 C198 1.368 . S
N201 C202 1.321 . S
N201 Co204 2.135 . S
C202 N200 1.340 . S
C202 N201 1.321 . S
C202 H226 0.930 . S
H203 C198 0.931 . S
Co204 N201 2.135 . S
Co204 N207 2.121 . S
Co204 O212 2.055 . S
Co204 O215 2.039 . S
Co204 N218 2.140 . S
C205 O206 1.227 . S
C205 O215 1.265 . S
O206 C205 1.227 . S
N207 Co204 2.121 . S
N207 C209 1.375 . S
N207 C210 1.313 . S
C208 C209 1.338 . S
C208 N211 1.377 . S
C208 H228 0.930 . S
C209 N207 1.375 . S
C209 C208 1.338 . S
C209 H213 0.931 . S
C210 N207 1.313 . S
C210 N211 1.344 . S
C210 H214 0.930 . S
N211 C208 1.377 . S
N211 C210 1.344 . S
O212 Co204 2.055 . S
O212 C216 1.253 . S
H213 C209 0.931 . S
H214 C210 0.930 . S
O215 Co204 2.039 . S
O215 C205 1.265 . S
C216 O212 1.253 . S
C216 O217 1.227 . S
O217 C216 1.227 . S
N218 Co204 2.140 . S
N218 C221 1.346 . S
N218 C222 1.345 . S
C219 C220 1.387 . S
C219 C223 1.391 . S
C220 C219 1.387 . S
C220 C221 1.369 . S
C220 H229 0.929 . S
C221 N218 1.346 . S
C221 C220 1.369 . S
C221 H224 0.928 . S
C222 N218 1.345 . S
C222 C223 1.371 . S
C222 H225 0.931 . S
C223 C219 1.391 . S
C223 C222 1.371 . S
C223 H230 0.930 . S
H224 C221 0.928 . S
H225 C222 0.931 . S
H226 C202 0.930 . S
H227 C199 0.902 1_556 S
H228 C208 0.930 . S
H229 C220 0.929 . S
H230 C223 0.930 . S
C231 C232 1.351 . S
C231 N234 1.368 . S
C231 H236 0.931 . S
C232 C231 1.351 . S
C232 N233 1.373 1_565 S
C232 H260 0.930 . S
N233 C232 1.373 1_545 S
N233 C235 1.340 . S
N234 C231 1.368 . S
N234 C235 1.321 1_565 S
N234 Co237 2.135 . S
C235 N233 1.340 . S
C235 N234 1.321 1_545 S
C235 H259 0.930 . S
H236 C231 0.931 . S
Co237 N234 2.135 . S
Co237 N240 2.121 . S
Co237 O245 2.055 . S
Co237 O248 2.039 . S
Co237 N251 2.140 . S
C238 O239 1.227 . S
C238 O248 1.265 . S
O239 C238 1.227 . S
N240 Co237 2.121 . S
N240 C242 1.375 . S
N240 C243 1.313 . S
C241 C242 1.338 . S
C241 N244 1.377 . S
C241 H261 0.930 . S
C242 N240 1.375 . S
C242 C241 1.338 . S
C242 H246 0.931 . S
C243 N240 1.313 . S
C243 N244 1.344 . S
C243 H247 0.930 . S
N244 C241 1.377 . S
N244 C243 1.344 . S
O245 Co237 2.055 . S
O245 C249 1.253 . S
H246 C242 0.931 . S
H247 C243 0.930 . S
O248 Co237 2.039 . S
O248 C238 1.265 . S
C249 O245 1.253 . S
C249 O250 1.227 . S
O250 C249 1.227 . S
N251 Co237 2.140 . S
N251 C254 1.346 . S
N251 C255 1.345 . S
C252 C253 1.387 . S
C252 C256 1.391 . S
C253 C252 1.387 . S
C253 C254 1.369 . S
C253 H262 0.929 . S
C254 N251 1.346 . S
C254 C253 1.369 . S
C254 H257 0.928 . S
C255 N251 1.345 . S
C255 C256 1.371 . S
C255 H258 0.931 . S
C256 C252 1.391 . S
C256 C255 1.371 . S
C256 H263 0.930 . S
H257 C254 0.928 . S
H258 C255 0.931 . S
H259 C235 0.930 . S
H260 C232 0.930 . S
H261 C241 0.930 . S
H262 C253 0.929 . S
H263 C256 0.930 . S
C264 C265 1.391 . S
C264 C266 1.394 . S
C264 H280 0.931 . S
C265 C264 1.391 . S
C265 C269 1.376 . S
C266 C264 1.394 . S
C266 C267 1.369 . S
C266 C270 1.531 . S
C267 C266 1.369 . S
C267 C268 1.410 . S
C267 C275 1.503 . S
C268 C267 1.410 . S
C268 C269 1.392 . S
C268 C271 1.511 . S
C269 C265 1.376 . S
C269 C268 1.392 . S
C269 H281 0.929 . S
C270 C266 1.531 . S
C270 H282 0.960 . S
C270 H283 0.962 . S
C270 H284 0.960 . S
C271 C268 1.511 . S
C271 H285 0.961 . S
C271 H286 0.961 . S
C271 H287 0.961 . S
C272 C273 1.370 . S
C272 C274 1.363 . S
C272 H288 0.931 . S
C273 C272 1.370 . S
C273 C277 1.408 . S
C274 C272 1.363 . S
C274 C275 1.370 . S
C274 C278 1.524 . S
C275 C267 1.503 . S
C275 C274 1.370 . S
C275 C276 1.403 . S
C276 C275 1.403 . S
C276 C277 1.404 . S
C276 C279 1.539 . S
C277 C273 1.408 . S
C277 C276 1.404 . S
C277 H289 0.930 . S
C278 C274 1.524 . S
C278 H290 0.956 . S
C278 H291 0.961 . S
C278 H292 0.961 . S
C279 C276 1.539 . S
C279 H293 0.958 . S
C279 H294 0.961 . S
C279 H295 0.960 . S
H280 C264 0.931 . S
H281 C269 0.929 . S
H282 C270 0.960 . S
H283 C270 0.962 . S
H284 C270 0.960 . S
H285 C271 0.961 . S
H286 C271 0.961 . S
H287 C271 0.961 . S
H288 C272 0.931 . S
H289 C277 0.930 . S
H290 C278 0.956 . S
H291 C278 0.961 . S
H292 C278 0.961 . S
H293 C279 0.958 . S
H294 C279 0.961 . S
H295 C279 0.960 . S
C296 C297 1.391 . S
C296 C298 1.394 . S
C296 H312 0.931 . S
C297 C296 1.391 . S
C297 C301 1.376 1_455 S
C298 C296 1.394 . S
C298 C299 1.369 . S
C298 C302 1.531 . S
C299 C298 1.369 . S
C299 C300 1.410 . S
C299 C307 1.503 . S
C300 C299 1.410 . S
C300 C301 1.392 1_455 S
C300 C303 1.511 1_455 S
C301 C297 1.376 1_655 S
C301 C300 1.392 1_655 S
C301 H313 0.929 . S
C302 C298 1.531 . S
C302 H314 0.960 . S
C302 H315 0.962 . S
C302 H316 0.960 . S
C303 C300 1.511 1_655 S
C303 H317 0.961 . S
C303 H318 0.961 1_655 S
C303 H319 0.961 . S
C304 C305 1.370 . S
C304 C306 1.363 . S
C304 H320 0.931 . S
C305 C304 1.370 . S
C305 C309 1.408 . S
C306 C304 1.363 . S
C306 C307 1.370 . S
C306 C310 1.524 . S
C307 C299 1.503 . S
C307 C306 1.370 . S
C307 C308 1.403 . S
C308 C307 1.403 . S
C308 C309 1.404 . S
C308 C311 1.539 . S
C309 C305 1.408 . S
C309 C308 1.404 . S
C309 H321 0.930 . S
C310 C306 1.524 . S
C310 H322 0.956 . S
C310 H323 0.961 . S
C310 H324 0.961 . S
C311 C308 1.539 . S
C311 H325 0.958 . S
C311 H326 0.961 . S
C311 H327 0.960 . S
H312 C296 0.931 . S
H313 C301 0.929 . S
H314 C302 0.960 . S
H315 C302 0.962 . S
H316 C302 0.960 . S
H317 C303 0.961 . S
H318 C303 0.961 1_455 S
H319 C303 0.961 . S
H320 C304 0.931 . S
H321 C309 0.930 . S
H322 C310 0.956 . S
H323 C310 0.961 . S
H324 C310 0.961 . S
H325 C311 0.958 . S
H326 C311 0.961 . S
H327 C311 0.960 . S
C328 C329 1.391 . S
C328 C330 1.394 . S
C328 H344 0.931 . S
C329 C328 1.391 . S
C329 C333 1.376 . S
C330 C328 1.394 . S
C330 C331 1.369 . S
C330 C334 1.531 . S
C331 C330 1.369 . S
C331 C332 1.410 . S
C331 C339 1.503 . S
C332 C331 1.410 . S
C332 C333 1.392 . S
C332 C335 1.511 . S
C333 C329 1.376 . S
C333 C332 1.392 . S
C333 H345 0.929 . S
C334 C330 1.531 . S
C334 H346 0.960 . S
C334 H347 0.962 . S
C334 H348 0.960 . S
C335 C332 1.511 . S
C335 H349 0.961 . S
C335 H350 0.961 . S
C335 H351 0.961 . S
C336 C337 1.370 . S
C336 C338 1.363 . S
C336 H352 0.931 . S
C337 C336 1.370 . S
C337 C341 1.408 . S
C338 C336 1.363 . S
C338 C339 1.370 . S
C338 C342 1.524 . S
C339 C331 1.503 . S
C339 C338 1.370 . S
C339 C340 1.403 . S
C340 C339 1.403 . S
C340 C341 1.404 . S
C340 C343 1.539 . S
C341 C337 1.408 . S
C341 C340 1.404 . S
C341 H353 0.930 . S
C342 C338 1.524 . S
C342 H354 0.956 . S
C342 H355 0.961 . S
C342 H356 0.961 . S
C343 C340 1.539 . S
C343 H357 0.958 . S
C343 H358 0.961 . S
C343 H359 0.960 . S
H344 C328 0.931 . S
H345 C333 0.929 . S
H346 C334 0.960 . S
H347 C334 0.962 . S
H348 C334 0.960 . S
H349 C335 0.961 . S
H350 C335 0.961 . S
H351 C335 0.961 . S
H352 C336 0.931 . S
H353 C341 0.930 . S
H354 C342 0.956 . S
H355 C342 0.961 . S
H356 C342 0.961 . S
H357 C343 0.958 . S
H358 C343 0.961 . S
H359 C343 0.960 . S
C360 C361 1.386 1_554 S
C360 C362 1.394 . S
C360 H376 0.931 1_554 S
C361 C360 1.386 1_556 S
C361 C365 1.358 1_556 S
C362 C360 1.394 . S
C362 C363 1.369 . S
C362 C366 1.531 . S
C363 C362 1.369 . S
C363 C364 1.410 . S
C363 C371 1.503 . S
C364 C363 1.410 . S
C364 C365 1.392 . S
C364 C367 1.511 . S
C365 C361 1.358 1_554 S
C365 C364 1.392 . S
C365 H377 0.929 . S
C366 C362 1.531 . S
C366 H378 0.960 . S
C366 H379 0.962 1_655 S
C366 H380 0.960 . S
C367 C364 1.511 . S
C367 H381 0.961 . S
C367 H382 0.961 . S
C367 H383 0.961 . S
C368 C369 1.370 . S
C368 C370 1.363 . S
C368 H384 0.931 1_655 S
C369 C368 1.370 . S
C369 C373 1.408 . S
C370 C368 1.363 . S
C370 C371 1.370 . S
C370 C374 1.524 . S
C371 C363 1.503 . S
C371 C370 1.370 . S
C371 C372 1.403 . S
C372 C371 1.403 . S
C372 C373 1.404 . S
C372 C375 1.539 . S
C373 C369 1.408 . S
C373 C372 1.404 . S
C373 H385 0.930 . S
C374 C370 1.524 . S
C374 H386 0.956 . S
C374 H387 0.961 . S
C374 H388 0.961 . S
C375 C372 1.539 . S
C375 H389 0.958 . S
C375 H390 0.961 . S
C375 H391 0.960 . S
H376 C360 0.931 1_556 S
H377 C365 0.929 . S
H378 C366 0.960 . S
H379 C366 0.962 1_455 S
H380 C366 0.960 . S
H381 C367 0.961 . S
H382 C367 0.961 . S
H383 C367 0.961 . S
H384 C368 0.931 1_455 S
H385 C373 0.930 . S
H386 C374 0.956 . S
H387 C374 0.961 . S
H388 C374 0.961 . S
H389 C375 0.958 . S
H390 C375 0.961 . S
H391 C375 0.960 . S
C392 C393 1.391 . S
C392 C394 1.394 . S
C392 H408 0.931 . S
C393 C392 1.391 . S
C393 C397 1.376 . S
C394 C392 1.394 . S
C394 C395 1.369 . S
C394 C398 1.531 . S
C395 C394 1.369 . S
C395 C396 1.410 . S
C395 C403 1.503 . S
C396 C395 1.410 . S
C396 C397 1.392 . S
C396 C399 1.511 . S
C397 C393 1.376 . S
C397 C396 1.392 . S
C397 H409 0.929 . S
C398 C394 1.531 . S
C398 H410 0.960 1_545 S
C398 H411 0.962 . S
C398 H412 0.960 1_545 S
C399 C396 1.511 . S
C399 H413 0.961 . S
C399 H414 0.961 . S
C399 H415 0.961 . S
C400 C401 1.370 . S
C400 C402 1.363 . S
C400 H416 0.931 . S
C401 C400 1.370 . S
C401 C405 1.408 . S
C402 C400 1.363 . S
C402 C403 1.370 . S
C402 C406 1.524 . S
C403 C395 1.503 . S
C403 C402 1.370 . S
C403 C404 1.403 . S
C404 C403 1.403 . S
C404 C405 1.404 . S
C404 C407 1.539 . S
C405 C401 1.408 . S
C405 C404 1.404 . S
C405 H417 0.930 1_545 S
C406 C402 1.524 . S
C406 H418 0.956 . S
C406 H419 0.961 . S
C406 H420 0.961 . S
C407 C404 1.539 . S
C407 H421 0.958 1_545 S
C407 H422 0.961 . S
C407 H423 0.960 . S
H408 C392 0.931 . S
H409 C397 0.929 . S
H410 C398 0.960 1_565 S
H411 C398 0.962 . S
H412 C398 0.960 1_565 S
H413 C399 0.961 . S
H414 C399 0.961 . S
H415 C399 0.961 . S
H416 C400 0.931 . S
H417 C405 0.930 1_565 S
H418 C406 0.956 . S
H419 C406 0.961 . S
H420 C406 0.961 . S
H421 C407 0.958 1_565 S
H422 C407 0.961 . S
H423 C407 0.960 . S
C424 C425 1.391 . S
C424 C426 1.394 . S
C424 H440 0.931 . S
C425 C424 1.391 . S
C425 C429 1.376 . S
C426 C424 1.394 . S
C426 C427 1.369 . S
C426 C430 1.531 . S
C427 C426 1.369 . S
C427 C428 1.410 . S
C427 C435 1.503 . S
C428 C427 1.410 . S
C428 C429 1.392 . S
C428 C431 1.511 . S
C429 C425 1.376 . S
C429 C428 1.392 . S
C429 H441 0.929 . S
C430 C426 1.531 . S
C430 H442 0.960 . S
C430 H443 0.962 . S
C430 H444 0.960 . S
C431 C428 1.511 . S
C431 H445 0.961 . S
C431 H446 0.961 . S
C431 H447 0.961 . S
C432 C433 1.370 . S
C432 C434 1.363 . S
C432 H448 0.931 . S
C433 C432 1.370 . S
C433 C437 1.408 . S
C434 C432 1.363 . S
C434 C435 1.370 . S
C434 C438 1.524 . S
C435 C427 1.503 . S
C435 C434 1.370 . S
C435 C436 1.403 . S
C436 C435 1.403 . S
C436 C437 1.404 . S
C436 C439 1.539 . S
C437 C433 1.408 . S
C437 C436 1.404 . S
C437 H449 0.930 . S
C438 C434 1.524 . S
C438 H450 0.956 . S
C438 H451 0.961 . S
C438 H452 0.961 . S
C439 C436 1.539 . S
C439 H453 0.958 . S
C439 H454 0.961 . S
C439 H455 0.960 . S
H440 C424 0.931 . S
H441 C429 0.929 . S
H442 C430 0.960 . S
H443 C430 0.962 . S
H444 C430 0.960 . S
H445 C431 0.961 . S
H446 C431 0.961 . S
H447 C431 0.961 . S
H448 C432 0.931 . S
H449 C437 0.930 . S
H450 C438 0.956 . S
H451 C438 0.961 . S
H452 C438 0.961 . S
H453 C439 0.958 . S
H454 C439 0.961 . S
H455 C439 0.960 . S
C456 C457 1.391 . S
C456 C458 1.394 1_554 S
C456 H472 0.931 . S
C457 C456 1.391 . S
C457 C461 1.376 1_554 S
C458 C456 1.394 1_556 S
C458 C459 1.369 . S
C458 C462 1.531 . S
C459 C458 1.369 . S
C459 C460 1.410 . S
C459 C467 1.503 . S
C460 C459 1.410 . S
C460 C461 1.392 . S
C460 C463 1.511 . S
C461 C457 1.376 1_556 S
C461 C460 1.392 . S
C461 H473 0.929 . S
C462 C458 1.531 . S
C462 H474 0.960 . S
C462 H475 0.962 . S
C462 H476 0.933 1_556 S
C463 C460 1.511 . S
C463 H477 0.961 . S
C463 H478 0.961 . S
C463 H479 0.961 . S
C464 C465 1.370 . S
C464 C466 1.363 . S
C464 H480 0.931 . S
C465 C464 1.370 . S
C465 C469 1.408 1_565 S
C466 C464 1.363 . S
C466 C467 1.370 . S
C466 C470 1.524 . S
C467 C459 1.503 . S
C467 C466 1.370 . S
C467 C468 1.403 . S
C468 C467 1.403 . S
C468 C469 1.404 1_565 S
C468 C471 1.539 1_565 S
C469 C465 1.408 1_545 S
C469 C468 1.404 1_545 S
C469 H481 0.930 . S
C470 C466 1.524 . S
C470 H482 0.956 . S
C470 H483 0.961 . S
C470 H484 0.961 . S
C471 C468 1.539 1_545 S
C471 H485 0.958 . S
C471 H486 0.961 . S
C471 H487 0.960 1_545 S
H472 C456 0.931 . S
H473 C461 0.929 . S
H474 C462 0.960 . S
H475 C462 0.962 . S
H476 C462 0.933 1_554 S
H477 C463 0.961 . S
H478 C463 0.961 . S
H479 C463 0.961 . S
H480 C464 0.931 . S
H481 C469 0.930 . S
H482 C470 0.956 . S
H483 C470 0.961 . S
H484 C470 0.961 . S
H485 C471 0.958 . S
H486 C471 0.961 . S
H487 C471 0.960 1_565 S
C488 C489 1.391 . S
C488 C490 1.394 . S
C488 H504 0.931 . S
C489 C488 1.391 . S
C489 C493 1.376 . S
C490 C488 1.394 . S
C490 C491 1.369 . S
C490 C494 1.531 . S
C491 C490 1.369 . S
C491 C492 1.410 . S
C491 C499 1.503 . S
C492 C491 1.410 . S
C492 C493 1.392 . S
C492 C495 1.511 . S
C493 C489 1.376 . S
C493 C492 1.392 . S
C493 H505 0.929 . S
C494 C490 1.531 . S
C494 H506 0.960 . S
C494 H507 0.962 . S
C494 H508 0.960 . S
C495 C492 1.511 . S
C495 H509 0.961 . S
C495 H510 0.961 . S
C495 H511 0.961 . S
C496 C497 1.370 . S
C496 C498 1.363 . S
C496 H512 0.931 . S
C497 C496 1.370 . S
C497 C501 1.408 . S
C498 C496 1.363 . S
C498 C499 1.370 . S
C498 C502 1.524 . S
C499 C491 1.503 . S
C499 C498 1.370 . S
C499 C500 1.403 . S
C500 C499 1.403 . S
C500 C501 1.404 . S
C500 C503 1.539 . S
C501 C497 1.408 . S
C501 C500 1.404 . S
C501 H513 0.930 . S
C502 C498 1.524 . S
C502 H514 0.956 . S
C502 H515 0.961 . S
C502 H516 0.961 . S
C503 C500 1.539 . S
C503 H517 0.958 . S
C503 H518 0.961 . S
C503 H519 0.960 . S
H504 C488 0.931 . S
H505 C493 0.929 . S
H506 C494 0.960 . S
H507 C494 0.962 . S
H508 C494 0.960 . S
H509 C495 0.961 . S
H510 C495 0.961 . S
H511 C495 0.961 . S
H512 C496 0.931 . S
H513 C501 0.930 . S
H514 C502 0.956 . S
H515 C502 0.961 . S
H516 C502 0.961 . S
H517 C503 0.958 . S
H518 C503 0.961 . S
H519 C503 0.960 . S
C520 C521 1.391 . S
C520 C522 1.394 1_565 S
C520 H536 0.931 . S
C521 C520 1.391 . S
C521 C525 1.376 . S
C522 C520 1.394 1_545 S
C522 C523 1.369 . S
C522 C526 1.531 . S
C523 C522 1.369 . S
C523 C524 1.410 1_545 S
C523 C531 1.503 . S
C524 C523 1.410 1_565 S
C524 C525 1.392 . S
C524 C527 1.511 . S
C525 C521 1.376 . S
C525 C524 1.392 . S
C525 H537 0.929 . S
C526 C522 1.531 . S
C526 H538 0.960 . S
C526 H539 0.962 . S
C526 H540 0.960 . S
C527 C524 1.511 . S
C527 H541 0.961 . S
C527 H542 0.961 1_565 S
C527 H543 0.961 1_565 S
C528 C529 1.370 . S
C528 C530 1.363 . S
C528 H544 0.931 . S
C529 C528 1.370 . S
C529 C533 1.408 . S
C530 C528 1.363 . S
C530 C531 1.370 . S
C530 C534 1.524 . S
C531 C523 1.503 . S
C531 C530 1.370 . S
C531 C532 1.403 . S
C532 C531 1.403 . S
C532 C533 1.404 . S
C532 C535 1.539 . S
C533 C529 1.408 . S
C533 C532 1.404 . S
C533 H545 0.930 . S
C534 C530 1.524 . S
C534 H546 0.956 . S
C534 H547 0.961 . S
C534 H548 0.961 . S
C535 C532 1.539 . S
C535 H549 0.958 . S
C535 H550 0.961 . S
C535 H551 0.960 . S
H536 C520 0.931 . S
H537 C525 0.929 . S
H538 C526 0.960 . S
H539 C526 0.962 . S
H540 C526 0.960 . S
H541 C527 0.961 . S
H542 C527 0.961 1_545 S
H543 C527 0.961 1_545 S
H544 C528 0.931 . S
H545 C533 0.930 . S
H546 C534 0.956 . S
H547 C534 0.961 . S
H548 C534 0.961 . S
H549 C535 0.958 . S
H550 C535 0.961 . S
H551 C535 0.960 . S
C552 C553 1.391 . S
C552 C554 1.394 . S
C552 H568 0.931 . S
C553 C552 1.391 . S
C553 C557 1.376 . S
C554 C552 1.394 . S
C554 C555 1.369 . S
C554 C558 1.531 . S
C555 C554 1.369 . S
C555 C556 1.410 . S
C555 C563 1.503 . S
C556 C555 1.410 . S
C556 C557 1.392 . S
C556 C559 1.511 . S
C557 C553 1.376 . S
C557 C556 1.392 . S
C557 H569 0.929 . S
C558 C554 1.531 . S
C558 H570 0.960 . S
C558 H571 0.962 . S
C558 H572 0.960 . S
C559 C556 1.511 . S
C559 H573 0.961 . S
C559 H574 0.961 . S
C559 H575 0.961 . S
C560 C561 1.370 . S
C560 C562 1.363 . S
C560 H576 0.931 . S
C561 C560 1.370 . S
C561 C565 1.408 . S
C562 C560 1.363 . S
C562 C563 1.370 . S
C562 C566 1.524 . S
C563 C555 1.503 . S
C563 C562 1.370 . S
C563 C564 1.403 . S
C564 C563 1.403 . S
C564 C565 1.404 . S
C564 C567 1.539 . S
C565 C561 1.408 . S
C565 C564 1.404 . S
C565 H577 0.930 . S
C566 C562 1.524 . S
C566 H578 0.956 . S
C566 H579 0.961 . S
C566 H580 0.961 . S
C567 C564 1.539 . S
C567 H581 0.958 . S
C567 H582 0.961 . S
C567 H583 0.960 . S
H568 C552 0.931 . S
H569 C557 0.929 . S
H570 C558 0.960 . S
H571 C558 0.962 . S
H572 C558 0.960 . S
H573 C559 0.961 . S
H574 C559 0.961 . S
H575 C559 0.961 . S
H576 C560 0.931 . S
H577 C565 0.930 . S
H578 C566 0.956 . S
H579 C566 0.961 . S
H580 C566 0.961 . S
H581 C567 0.958 . S
H582 C567 0.961 . S
H583 C567 0.960 . S
C584 C585 1.391 . S
C584 C586 1.394 1_545 S
C584 H600 0.931 . S
C585 C584 1.391 . S
C585 C589 1.376 . S
C586 C584 1.394 1_565 S
C586 C587 1.369 . S
C586 C590 1.531 . S
C587 C586 1.369 . S
C587 C588 1.410 1_565 S
C587 C595 1.503 . S
C588 C587 1.410 1_545 S
C588 C589 1.392 . S
C588 C591 1.511 . S
C589 C585 1.376 . S
C589 C588 1.392 . S
C589 H601 0.929 . S
C590 C586 1.531 . S
C590 H602 0.960 . S
C590 H603 0.962 . S
C590 H604 0.960 . S
C591 C588 1.511 . S
C591 H605 0.961 . S
C591 H606 0.961 1_545 S
C591 H607 0.961 . S
C592 C593 1.370 . S
C592 C594 1.363 . S
C592 H608 0.931 . S
C593 C592 1.370 . S
C593 C597 1.408 . S
C594 C592 1.363 . S
C594 C595 1.370 . S
C594 C598 1.524 . S
C595 C587 1.503 . S
C595 C594 1.370 . S
C595 C596 1.403 . S
C596 C595 1.403 . S
C596 C597 1.404 . S
C596 C599 1.539 . S
C597 C593 1.408 . S
C597 C596 1.404 . S
C597 H609 0.930 . S
C598 C594 1.524 . S
C598 H610 0.956 . S
C598 H611 0.961 . S
C598 H612 0.961 . S
C599 C596 1.539 . S
C599 H613 0.958 . S
C599 H614 0.961 . S
C599 H615 0.960 . S
H600 C584 0.931 . S
H601 C589 0.929 . S
H602 C590 0.960 . S
H603 C590 0.962 . S
H604 C590 0.960 . S
H605 C591 0.961 . S
H606 C591 0.961 1_565 S
H607 C591 0.961 . S
H608 C592 0.931 . S
H609 C597 0.930 . S
H610 C598 0.956 . S
H611 C598 0.961 . S
H612 C598 0.961 . S
H613 C599 0.958 . S
H614 C599 0.961 . S
H615 C599 0.960 . S
C616 C617 1.391 . S
C616 C618 1.394 . S
C616 H632 0.931 . S
C617 C616 1.391 . S
C617 C621 1.376 . S
C618 C616 1.394 . S
C618 C619 1.369 . S
C618 C622 1.531 . S
C619 C618 1.369 . S
C619 C620 1.410 . S
C619 C627 1.503 . S
C620 C619 1.410 . S
C620 C621 1.392 . S
C620 C623 1.511 . S
C621 C617 1.376 . S
C621 C620 1.392 . S
C621 H633 0.929 . S
C622 C618 1.531 . S
C622 H634 0.960 . S
C622 H635 0.962 . S
C622 H636 0.960 . S
C623 C620 1.511 . S
C623 H637 0.961 . S
C623 H638 0.961 . S
C623 H639 0.961 . S
C624 C625 1.370 . S
C624 C626 1.363 . S
C624 H640 0.931 . S
C625 C624 1.370 . S
C625 C629 1.408 . S
C626 C624 1.363 . S
C626 C627 1.370 . S
C626 C630 1.524 . S
C627 C619 1.503 . S
C627 C626 1.370 . S
C627 C628 1.403 . S
C628 C627 1.403 . S
C628 C629 1.404 . S
C628 C631 1.539 . S
C629 C625 1.408 . S
C629 C628 1.404 . S
C629 H641 0.930 . S
C630 C626 1.524 . S
C630 H642 0.956 . S
C630 H643 0.961 . S
C630 H644 0.961 . S
C631 C628 1.539 . S
C631 H645 0.958 . S
C631 H646 0.961 . S
C631 H647 0.960 . S
H632 C616 0.931 . S
H633 C621 0.929 . S
H634 C622 0.960 . S
H635 C622 0.962 . S
H636 C622 0.960 . S
H637 C623 0.961 . S
H638 C623 0.961 . S
H639 C623 0.961 . S
H640 C624 0.931 . S
H641 C629 0.930 . S
H642 C630 0.956 . S
H643 C630 0.961 . S
H644 C630 0.961 . S
H645 C631 0.958 . S
H646 C631 0.961 . S
H647 C631 0.960 . S
C648 C649 1.391 . S
C648 C650 1.394 . S
C648 H664 0.931 . S
C649 C648 1.391 . S
C649 C653 1.376 . S
C650 C648 1.394 . S
C650 C651 1.369 . S
C650 C654 1.531 . S
C651 C650 1.369 . S
C651 C652 1.410 . S
C651 C659 1.503 . S
C652 C651 1.410 . S
C652 C653 1.392 . S
C652 C655 1.511 . S
C653 C649 1.376 . S
C653 C652 1.392 . S
C653 H665 0.929 . S
C654 C650 1.531 . S
C654 H666 0.960 . S
C654 H667 0.962 . S
C654 H668 0.960 . S
C655 C652 1.511 . S
C655 H669 0.961 . S
C655 H670 0.961 . S
C655 H671 0.961 . S
C656 C657 1.370 . S
C656 C658 1.363 . S
C656 H672 0.931 . S
C657 C656 1.370 . S
C657 C661 1.408 . S
C658 C656 1.363 . S
C658 C659 1.370 . S
C658 C662 1.524 . S
C659 C651 1.503 . S
C659 C658 1.370 . S
C659 C660 1.403 . S
C660 C659 1.403 . S
C660 C661 1.404 . S
C660 C663 1.539 . S
C661 C657 1.408 . S
C661 C660 1.404 . S
C661 H673 0.930 . S
C662 C658 1.524 . S
C662 H674 0.956 . S
C662 H675 0.961 . S
C662 H676 0.961 . S
C663 C660 1.539 . S
C663 H677 0.958 . S
C663 H678 0.961 . S
C663 H679 0.960 . S
H664 C648 0.931 . S
H665 C653 0.929 . S
H666 C654 0.960 . S
H667 C654 0.962 . S
H668 C654 0.960 . S
H669 C655 0.961 . S
H670 C655 0.961 . S
H671 C655 0.961 . S
H672 C656 0.931 . S
H673 C661 0.930 . S
H674 C662 0.956 . S
H675 C662 0.961 . S
H676 C662 0.961 . S
H677 C663 0.958 . S
H678 C663 0.961 . S
H679 C663 0.960 . S
C680 C681 1.391 . S
C680 C682 1.394 . S
C680 H696 0.931 . S
C681 C680 1.391 . S
C681 C685 1.376 . S
C682 C680 1.394 . S
C682 C683 1.369 . S
C682 C686 1.531 . S
C683 C682 1.369 . S
C683 C684 1.410 . S
C683 C691 1.503 . S
C684 C683 1.410 . S
C684 C685 1.392 . S
C684 C687 1.511 . S
C685 C681 1.376 . S
C685 C684 1.392 . S
C685 H697 0.929 . S
C686 C682 1.531 . S
C686 H698 0.960 . S
C686 H699 0.962 . S
C686 H700 0.960 . S
C687 C684 1.511 . S
C687 H701 0.961 . S
C687 H702 0.961 . S
C687 H703 0.961 . S
C688 C689 1.370 . S
C688 C690 1.363 . S
C688 H704 0.931 . S
C689 C688 1.370 . S
C689 C693 1.408 . S
C690 C688 1.363 . S
C690 C691 1.370 1_655 S
C690 C694 1.524 . S
C691 C683 1.503 . S
C691 C690 1.370 1_455 S
C691 C692 1.403 . S
C692 C691 1.403 . S
C692 C693 1.404 1_455 S
C692 C695 1.539 . S
C693 C689 1.408 . S
C693 C692 1.404 1_655 S
C693 H705 0.930 . S
C694 C690 1.524 . S
C694 H706 0.956 1_655 S
C694 H707 0.961 1_655 S
C694 H708 0.961 . S
C695 C692 1.539 . S
C695 H709 0.958 . S
C695 H710 0.961 . S
C695 H711 0.960 . S
H696 C680 0.931 . S
H697 C685 0.929 . S
H698 C686 0.960 . S
H699 C686 0.962 . S
H700 C686 0.960 . S
H701 C687 0.961 . S
H702 C687 0.961 . S
H703 C687 0.961 . S
H704 C688 0.931 . S
H705 C693 0.930 . S
H706 C694 0.956 1_455 S
H707 C694 0.961 1_455 S
H708 C694 0.961 . S
H709 C695 0.958 . S
H710 C695 0.961 . S
H711 C695 0.960 . S
C712 C713 1.391 . S
C712 C714 1.394 . S
C712 H728 0.931 . S
C713 C712 1.391 . S
C713 C717 1.376 . S
C714 C712 1.394 . S
C714 C715 1.369 . S
C714 C718 1.531 . S
C715 C714 1.369 . S
C715 C716 1.410 . S
C715 C723 1.503 . S
C716 C715 1.410 . S
C716 C717 1.392 . S
C716 C719 1.511 . S
C717 C713 1.376 . S
C717 C716 1.392 . S
C717 H729 0.929 . S
C718 C714 1.531 . S
C718 H730 0.960 . S
C718 H731 0.962 . S
C718 H732 0.960 . S
C719 C716 1.511 . S
C719 H733 0.961 . S
C719 H734 0.961 . S
C719 H735 0.961 . S
C720 C721 1.370 . S
C720 C722 1.363 . S
C720 H736 0.931 . S
C721 C720 1.370 . S
C721 C725 1.408 . S
C722 C720 1.363 . S
C722 C723 1.370 . S
C722 C726 1.524 . S
C723 C715 1.503 . S
C723 C722 1.370 . S
C723 C724 1.403 . S
C724 C723 1.403 . S
C724 C725 1.404 . S
C724 C727 1.539 . S
C725 C721 1.408 . S
C725 C724 1.404 . S
C725 H737 0.930 . S
C726 C722 1.524 . S
C726 H738 0.956 . S
C726 H739 0.961 . S
C726 H740 0.961 . S
C727 C724 1.539 . S
C727 H741 0.958 . S
C727 H742 0.961 . S
C727 H743 0.960 . S
H728 C712 0.931 . S
H729 C717 0.929 . S
H730 C718 0.960 . S
H731 C718 0.962 . S
H732 C718 0.960 . S
H733 C719 0.961 . S
H734 C719 0.961 . S
H735 C719 0.961 . S
H736 C720 0.931 . S
H737 C725 0.930 . S
H738 C726 0.956 . S
H739 C726 0.961 . S
H740 C726 0.961 . S
H741 C727 0.958 . S
H742 C727 0.961 . S
H743 C727 0.960 . S
C744 C745 1.391 . S
C744 C746 1.394 . S
C744 H760 0.931 . S
C745 C744 1.391 . S
C745 C749 1.376 . S
C746 C744 1.394 . S
C746 C747 1.369 . S
C746 C750 1.531 . S
C747 C746 1.369 . S
C747 C748 1.410 . S
C747 C755 1.503 . S
C748 C747 1.410 . S
C748 C749 1.392 . S
C748 C751 1.511 . S
C749 C745 1.376 . S
C749 C748 1.392 . S
C749 H761 0.929 . S
C750 C746 1.531 . S
C750 H762 0.960 . S
C750 H763 0.962 . S
C750 H764 0.960 . S
C751 C748 1.511 . S
C751 H765 0.961 . S
C751 H766 0.961 . S
C751 H767 0.961 . S
C752 C753 1.370 . S
C752 C754 1.363 1_455 S
C752 H768 0.931 . S
C753 C752 1.370 . S
C753 C757 1.408 . S
C754 C752 1.363 1_655 S
C754 C755 1.370 . S
C754 C758 1.524 . S
C755 C747 1.503 . S
C755 C754 1.370 . S
C755 C756 1.403 . S
C756 C755 1.403 . S
C756 C757 1.404 1_655 S
C756 C759 1.539 . S
C757 C753 1.408 . S
C757 C756 1.404 1_455 S
C757 H769 0.930 . S
C758 C754 1.524 . S
C758 H770 0.956 . S
C758 H771 0.961 . S
C758 H772 0.961 . S
C759 C756 1.539 . S
C759 H773 0.958 . S
C759 H774 0.961 . S
C759 H775 0.960 . S
H760 C744 0.931 . S
H761 C749 0.929 . S
H762 C750 0.960 . S
H763 C750 0.962 . S
H764 C750 0.960 . S
H765 C751 0.961 . S
H766 C751 0.961 . S
H767 C751 0.961 . S
H768 C752 0.931 . S
H769 C757 0.930 . S
H770 C758 0.956 . S
H771 C758 0.961 . S
H772 C758 0.961 . S
H773 C759 0.958 . S
H774 C759 0.961 . S
H775 C759 0.960 . S
C776 C777 1.391 . S
C776 C778 1.394 . S
C776 H792 0.931 . S
C777 C776 1.391 . S
C777 C781 1.376 . S
C778 C776 1.394 . S
C778 C779 1.369 . S
C778 C782 1.531 . S
C779 C778 1.369 . S
C779 C780 1.410 . S
C779 C787 1.503 . S
C780 C779 1.410 . S
C780 C781 1.392 . S
C780 C783 1.511 . S
C781 C777 1.376 . S
C781 C780 1.392 . S
C781 H793 0.929 . S
C782 C778 1.531 . S
C782 H794 0.960 . S
C782 H795 0.962 . S
C782 H796 0.960 . S
C783 C780 1.511 . S
C783 H797 0.961 . S
C783 H798 0.961 . S
C783 H799 0.961 . S
C784 C785 1.370 . S
C784 C786 1.363 . S
C784 H800 0.931 . S
C785 C784 1.370 . S
C785 C789 1.408 . S
C786 C784 1.363 . S
C786 C787 1.370 . S
C786 C790 1.524 . S
C787 C779 1.503 . S
C787 C786 1.370 . S
C787 C788 1.403 . S
C788 C787 1.403 . S
C788 C789 1.404 . S
C788 C791 1.539 . S
C789 C785 1.408 . S
C789 C788 1.404 . S
C789 H801 0.930 . S
C790 C786 1.524 . S
C790 H802 0.956 . S
C790 H803 0.961 . S
C790 H804 0.961 . S
C791 C788 1.539 . S
C791 H805 0.958 . S
C791 H806 0.961 . S
C791 H807 0.960 . S
H792 C776 0.931 . S
H793 C781 0.929 . S
H794 C782 0.960 . S
H795 C782 0.962 . S
H796 C782 0.960 . S
H797 C783 0.961 . S
H798 C783 0.961 . S
H799 C783 0.961 . S
H800 C784 0.931 . S
H801 C789 0.930 . S
H802 C790 0.956 . S
H803 C790 0.961 . S
H804 C790 0.961 . S
H805 C791 0.958 . S
H806 C791 0.961 . S
H807 C791 0.960 . S
C808 C809 1.391 . S
C808 C810 1.394 . S
C808 H824 0.931 . S
C809 C808 1.391 . S
C809 C813 1.376 . S
C810 C808 1.394 . S
C810 C811 1.369 . S
C810 C814 1.531 . S
C811 C810 1.369 . S
C811 C812 1.410 . S
C811 C819 1.503 . S
C812 C811 1.410 . S
C812 C813 1.392 . S
C812 C815 1.511 . S
C813 C809 1.376 . S
C813 C812 1.392 . S
C813 H825 0.929 . S
C814 C810 1.531 . S
C814 H826 0.960 . S
C814 H827 0.962 . S
C814 H828 0.960 . S
C815 C812 1.511 . S
C815 H829 0.961 . S
C815 H830 0.961 . S
C815 H831 0.961 . S
C816 C817 1.370 . S
C816 C818 1.363 . S
C816 H832 0.931 . S
C817 C816 1.370 . S
C817 C821 1.408 . S
C818 C816 1.363 . S
C818 C819 1.370 . S
C818 C822 1.524 . S
C819 C811 1.503 . S
C819 C818 1.370 . S
C819 C820 1.403 . S
C820 C819 1.403 . S
C820 C821 1.404 . S
C820 C823 1.539 . S
C821 C817 1.408 . S
C821 C820 1.404 . S
C821 H833 0.930 . S
C822 C818 1.524 . S
C822 H834 0.956 . S
C822 H835 0.961 . S
C822 H836 0.961 . S
C823 C820 1.539 . S
C823 H837 0.958 . S
C823 H838 0.961 . S
C823 H839 0.960 . S
H824 C808 0.931 . S
H825 C813 0.929 . S
H826 C814 0.960 . S
H827 C814 0.962 . S
H828 C814 0.960 . S
H829 C815 0.961 . S
H830 C815 0.961 . S
H831 C815 0.961 . S
H832 C816 0.931 . S
H833 C821 0.930 . S
H834 C822 0.956 . S
H835 C822 0.961 . S
H836 C822 0.961 . S
H837 C823 0.958 . S
H838 C823 0.961 . S
H839 C823 0.960 . S
C840 C841 1.391 . S
C840 C842 1.394 . S
C840 H856 0.931 . S
C841 C840 1.391 . S
C841 C845 1.376 . S
C842 C840 1.394 . S
C842 C843 1.369 . S
C842 C846 1.531 . S
C843 C842 1.369 . S
C843 C844 1.410 . S
C843 C851 1.503 . S
C844 C843 1.410 . S
C844 C845 1.392 . S
C844 C847 1.511 . S
C845 C841 1.376 . S
C845 C844 1.392 . S
C845 H857 0.929 . S
C846 C842 1.531 . S
C846 H858 0.960 . S
C846 H859 0.962 . S
C846 H860 0.960 . S
C847 C844 1.511 . S
C847 H861 0.961 . S
C847 H862 0.961 . S
C847 H863 0.961 . S
C848 C849 1.370 . S
C848 C850 1.363 . S
C848 H864 0.931 . S
C849 C848 1.370 . S
C849 C853 1.408 . S
C850 C848 1.363 . S
C850 C851 1.370 . S
C850 C854 1.524 . S
C851 C843 1.503 . S
C851 C850 1.370 . S
C851 C852 1.403 . S
C852 C851 1.403 . S
C852 C853 1.404 . S
C852 C855 1.539 . S
C853 C849 1.408 . S
C853 C852 1.404 . S
C853 H865 0.930 . S
C854 C850 1.524 . S
C854 H866 0.956 . S
C854 H867 0.961 . S
C854 H868 0.961 . S
C855 C852 1.539 . S
C855 H869 0.958 . S
C855 H870 0.961 . S
C855 H871 0.960 . S
H856 C840 0.931 . S
H857 C845 0.929 . S
H858 C846 0.960 . S
H859 C846 0.962 . S
H860 C846 0.960 . S
H861 C847 0.961 . S
H862 C847 0.961 . S
H863 C847 0.961 . S
H864 C848 0.931 . S
H865 C853 0.930 . S
H866 C854 0.956 . S
H867 C854 0.961 . S
H868 C854 0.961 . S
H869 C855 0.958 . S
H870 C855 0.961 . S
H871 C855 0.960 . S
C872 C873 1.391 . S
C872 C874 1.394 . S
C872 H888 0.931 . S
C873 C872 1.391 . S
C873 C877 1.376 . S
C874 C872 1.394 . S
C874 C875 1.369 . S
C874 C878 1.531 . S
C875 C874 1.369 . S
C875 C876 1.410 1_556 S
C875 C883 1.503 1_556 S
C876 C875 1.410 1_554 S
C876 C877 1.392 1_554 S
C876 C879 1.511 . S
C877 C873 1.376 . S
C877 C876 1.392 1_556 S
C877 H889 0.929 1_556 S
C878 C874 1.531 . S
C878 H890 0.960 . S
C878 H891 0.962 . S
C878 H892 0.960 . S
C879 C876 1.511 . S
C879 H893 0.961 . S
C879 H894 0.961 . S
C879 H895 0.961 . S
C880 C881 1.370 . S
C880 C882 1.363 . S
C880 H896 0.931 . S
C881 C880 1.370 . S
C881 C885 1.408 . S
C882 C880 1.363 . S
C882 C883 1.370 . S
C882 C886 1.524 1_554 S
C883 C875 1.503 1_554 S
C883 C882 1.370 . S
C883 C884 1.403 . S
C884 C883 1.403 . S
C884 C885 1.404 . S
C884 C887 1.539 . S
C885 C881 1.408 . S
C885 C884 1.404 . S
C885 H897 0.930 . S
C886 C882 1.524 1_556 S
C886 H898 0.956 . S
C886 H899 0.961 . S
C886 H900 0.961 . S
C887 C884 1.539 . S
C887 H901 0.958 . S
C887 H902 0.961 . S
C887 H903 0.960 . S
H888 C872 0.931 . S
H889 C877 0.929 1_554 S
H890 C878 0.960 . S
H891 C878 0.962 . S
H892 C878 0.960 . S
H893 C879 0.961 . S
H894 C879 0.961 . S
H895 C879 0.961 . S
H896 C880 0.931 . S
H897 C885 0.930 . S
H898 C886 0.956 . S
H899 C886 0.961 . S
H900 C886 0.961 . S
H901 C887 0.958 . S
H902 C887 0.961 . S
H903 C887 0.960 . S
C265 C18 1.174 . S
C273 C40 1.186 . S
C297 C73 1.187 1_455 S
C305 C51 1.197 . S
C329 C106 1.184 . S
C337 C84 1.186 . S
C361 C117 1.225 . S
C369 C7 1.196 1_655 S
C393 C150 1.203 . S
C401 C238 1.192 1_545 S
C425 C183 1.203 . S
C433 C139 1.194 . S
C457 C216 1.198 . S
C465 C172 1.188 1_565 S
C489 C249 1.177 . S
C497 C205 1.183 . S
C521 N211 1.619 . S
C529 C21 1.644 . S
C553 N244 1.590 . S
C561 C54 1.646 . S
C585 N145 1.622 . S
C593 C87 1.644 . S
C617 N178 1.612 . S
C625 C120 1.642 . S
C649 C153 1.634 . S
C657 N79 1.615 . S
C681 C186 1.647 . S
C689 N112 1.604 . S
C713 C219 1.649 . S
C721 N13 1.600 . S
C745 C252 1.648 . S
C753 N46 1.595 . S
C777 N233 1.248 . S
C785 N2 1.226 . S
C809 N134 1.228 . S
C817 N35 1.234 . S
C841 N68 1.263 . S
C849 N167 1.221 . S
C873 N101 1.210 . S
C881 N200 1.244 . S
