# Generated by pormake.
# Topology zfr, (5)-cn, num edge types: 1
# Building blocks:
#     Node 0, Type 0, BuildingBlock: XOMCOT_clean_sbu_0, # of connection points: 5
#     Node 1, Type 0, BuildingBlock: XOMCOT_clean_sbu_0, # of connection points: 5
#     Node 2, Type 0, BuildingBlock: XOMCOT_clean_sbu_0, # of connection points: 5
#     Node 3, Type 0, BuildingBlock: XOMCOT_clean_sbu_0, # of connection points: 5
#     Node 4, Type 0, BuildingBlock: XOMCOT_clean_sbu_0, # of connection points: 5
#     Node 5, Type 0, BuildingBlock: XOMCOT_clean_sbu_0, # of connection points: 5
#     Node 6, Type 0, BuildingBlock: XOMCOT_clean_sbu_0, # of connection points: 5
#     Node 7, Type 0, BuildingBlock: XOMCOT_clean_sbu_0, # of connection points: 5
#     Edge 8, Type (0, 0), BuildingBlock: XUDNAN_clean_linker_2, # of connection points: 2
#     Edge 9, Type (0, 0), BuildingBlock: XUDNAN_clean_linker_2, # of connection points: 2
#     Edge 10, Type (0, 0), BuildingBlock: XUDNAN_clean_linker_2, # of connection points: 2
#     Edge 11, Type (0, 0), BuildingBlock: XUDNAN_clean_linker_2, # of connection points: 2
#     Edge 12, Type (0, 0), BuildingBlock: XUDNAN_clean_linker_2, # of connection points: 2
#     Edge 13, Type (0, 0), BuildingBlock: XUDNAN_clean_linker_2, # of connection points: 2
#     Edge 14, Type (0, 0), BuildingBlock: XUDNAN_clean_linker_2, # of connection points: 2
#     Edge 15, Type (0, 0), BuildingBlock: XUDNAN_clean_linker_2, # of connection points: 2
#     Edge 16, Type (0, 0), BuildingBlock: XUDNAN_clean_linker_2, # of connection points: 2
#     Edge 17, Type (0, 0), BuildingBlock: XUDNAN_clean_linker_2, # of connection points: 2
#     Edge 18, Type (0, 0), BuildingBlock: XUDNAN_clean_linker_2, # of connection points: 2
#     Edge 19, Type (0, 0), BuildingBlock: XUDNAN_clean_linker_2, # of connection points: 2
#     Edge 20, Type (0, 0), BuildingBlock: XUDNAN_clean_linker_2, # of connection points: 2
#     Edge 21, Type (0, 0), BuildingBlock: XUDNAN_clean_linker_2, # of connection points: 2
#     Edge 22, Type (0, 0), BuildingBlock: XUDNAN_clean_linker_2, # of connection points: 2
#     Edge 23, Type (0, 0), BuildingBlock: XUDNAN_clean_linker_2, # of connection points: 2
#     Edge 24, Type (0, 0), BuildingBlock: XUDNAN_clean_linker_2, # of connection points: 2
#     Edge 25, Type (0, 0), BuildingBlock: XUDNAN_clean_linker_2, # of connection points: 2
#     Edge 26, Type (0, 0), BuildingBlock: XUDNAN_clean_linker_2, # of connection points: 2
#     Edge 27, Type (0, 0), BuildingBlock: XUDNAN_clean_linker_2, # of connection points: 2
# Relax obj value: 0.174
# Max RMSD: 0.171
# Mean RMSD: 0.171
data_MOF--net-zfr--node1-XOMCOT_clean_sbu_0--edge1-XUDNAN_clean_linker_2
_symmetry_space_group_name_H-M    P1
_symmetry_Int_Tables_number       1
_symmetry_cell_setting            triclinic
loop_
_symmetry_equiv_pos_as_xyz
'x, y, z'
_cell_length_a     51.12631
_cell_length_b     51.200287
_cell_length_c     17.381987
_cell_angle_alpha  89.925938
_cell_angle_beta   89.989875
_cell_angle_gamma 89.946511
loop_
_atom_site_label
_atom_site_type_symbol
_atom_site_fract_x
_atom_site_fract_y
_atom_site_fract_z
_atom_type_partial_charge
Co0 Co 0.12453 0.30921 0.22623 0.0
C1 C 0.11552 0.31917 0.39243 0.0
C2 C 0.09011 0.28945 0.34932 0.0
C3 C 0.08681 0.29108 0.42787 0.0
N4 N 0.10775 0.30749 0.32667 0.0
N5 N 0.10288 0.3098 0.4549 0.0
H6 H 0.13175 0.33247 0.39602 0.0
H7 H 0.08126 0.27508 0.31198 0.0
C8 C 0.06767 0.30887 0.18851 0.0
O9 O 0.06447 0.32679 0.24173 0.0
N10 N 0.14171 0.3106 0.12666 0.0
C11 C 0.16552 0.32107 0.11352 0.0
C12 C 0.16884 0.32435 0.03573 0.0
C13 C 0.13096 0.30748 0.0561 0.0
N14 N 0.14706 0.31601 0.99982 0.0
C15 C 0.13124 0.36367 0.26085 0.0
C16 C 0.09959 0.38304 0.14544 0.0
C17 C 0.11256 0.40079 0.19357 0.0
C18 C 0.12888 0.39062 0.25124 0.0
C19 C 0.10315 0.35623 0.1557 0.0
N20 N 0.11765 0.34665 0.2156 0.0
H21 H 0.14518 0.35666 0.30234 0.0
H22 H 0.09455 0.34336 0.11381 0.0
H23 H 0.17891 0.32773 0.15738 0.0
H24 H 0.11103 0.30132 0.04608 0.0
O25 O 0.15797 0.31123 0.27643 0.0
O26 O 0.1383 0.27429 0.24436 0.0
O27 O 0.09038 0.29948 0.17497 0.0
C28 C 0.15829 0.2859 0.27587 0.0
H29 H 0.07427 0.27876 0.46248 0.0
H30 H 0.18542 0.33352 0.00794 0.0
H31 H 0.08698 0.38961 0.09932 0.0
H32 H 0.1406 0.40326 0.28724 0.0
Co33 Co 0.68003 0.13438 0.48237 0.0
C34 C 0.68007 0.12496 0.6516 0.0
C35 C 0.70583 0.09922 0.58997 0.0
C36 C 0.70822 0.09416 0.66717 0.0
N37 N 0.68812 0.11836 0.58012 0.0
N38 N 0.69204 0.11028 0.70619 0.0
H39 H 0.66606 0.14031 0.66322 0.0
H40 H 0.71694 0.09015 0.54429 0.0
C41 C 0.67165 0.08992 0.37535 0.0
O42 O 0.65068 0.10242 0.35159 0.0
N43 N 0.67356 0.15024 0.38178 0.0
C44 C 0.6541 0.16561 0.35486 0.0
C45 C 0.65596 0.16698 0.27563 0.0
C46 C 0.68767 0.14391 0.31884 0.0
N47 N 0.67678 0.15277 0.25304 0.0
C48 C 0.62596 0.14668 0.51032 0.0
C49 C 0.6085 0.09574 0.51982 0.0
C50 C 0.59015 0.11607 0.52083 0.0
C51 C 0.59925 0.14187 0.51896 0.0
C52 C 0.63503 0.10151 0.51168 0.0
N53 N 0.6432 0.12663 0.50009 0.0
H54 H 0.63271 0.16662 0.51118 0.0
H55 H 0.64895 0.08564 0.51368 0.0
H56 H 0.63872 0.17435 0.38831 0.0
H57 H 0.70449 0.13109 0.32093 0.0
O58 O 0.68111 0.16828 0.52911 0.0
O59 O 0.71544 0.14797 0.4787 0.0
O60 O 0.68576 0.09956 0.42923 0.0
C61 C 0.70599 0.16832 0.51416 0.0
H62 H 0.72168 0.0803 0.69259 0.0
H63 H 0.64184 0.17595 0.23743 0.0
H64 H 0.60241 0.07556 0.5252 0.0
H65 H 0.58585 0.15823 0.52207 0.0
Co66 Co 0.88081 0.68898 0.743 0.0
C67 C 0.88621 0.67927 0.90742 0.0
C68 C 0.91904 0.70133 0.86658 0.0
C69 C 0.92146 0.69794 0.94522 0.0
N70 N 0.89691 0.68953 0.84345 0.0
N71 N 0.90071 0.68405 0.97083 0.0
H72 H 0.86755 0.66935 0.9073 0.0
H73 H 0.93215 0.71212 0.82952 0.0
C74 C 0.92989 0.70438 0.66074 0.0
O75 O 0.92306 0.72906 0.66486 0.0
N76 N 0.86416 0.68814 0.64214 0.0
C77 C 0.83832 0.6903 0.62681 0.0
C78 C 0.8343 0.68657 0.54931 0.0
C79 C 0.87541 0.6832 0.5732 0.0
N80 N 0.85765 0.68227 0.516 0.0
C81 C 0.85738 0.63759 0.73719 0.0
C82 C 0.90417 0.61107 0.75637 0.0
C83 C 0.88145 0.59684 0.74145 0.0
C84 C 0.85762 0.6102 0.73394 0.0
C85 C 0.90303 0.63814 0.76021 0.0
N86 N 0.88008 0.65114 0.74765 0.0
H87 H 0.83913 0.64793 0.72968 0.0
H88 H 0.92084 0.6487 0.77216 0.0
H89 H 0.82314 0.69367 0.66889 0.0
H90 H 0.89591 0.67926 0.56456 0.0
O91 O 0.84768 0.69746 0.79135 0.0
O92 O 0.87645 0.72629 0.74761 0.0
O93 O 0.91587 0.68679 0.69216 0.0
C94 C 0.8543 0.72181 0.78201 0.0
H95 H 0.93715 0.70544 0.98057 0.0
H96 H 0.81567 0.68687 0.51969 0.0
H97 H 0.92282 0.6013 0.76391 0.0
H98 H 0.83965 0.59968 0.7229 0.0
Co99 Co 0.31918 0.861 0.95501 0.0
C100 C 0.32273 0.8709 0.12501 0.0
C101 C 0.29167 0.89195 0.06994 0.0
C102 C 0.29079 0.89726 0.14723 0.0
N103 N 0.31219 0.87611 0.05531 0.0
N104 N 0.31026 0.88396 0.18156 0.0
H105 H 0.33857 0.85747 0.13538 0.0
H106 H 0.27785 0.89875 0.02727 0.0
C107 C 0.31736 0.9187 0.92697 0.0
O108 O 0.33166 0.92179 0.98913 0.0
N109 N 0.32503 0.84605 0.85464 0.0
C110 C 0.34283 0.82784 0.83453 0.0
C111 C 0.34477 0.82741 0.75517 0.0
C112 C 0.31613 0.85603 0.78802 0.0
N113 N 0.3282 0.84548 0.72653 0.0
C114 C 0.37189 0.85524 0.01035 0.0
C115 C 0.39497 0.88956 0.90818 0.0
C116 C 0.41073 0.87673 0.96226 0.0
C117 C 0.39892 0.85907 0.01301 0.0
C118 C 0.36805 0.8849 0.90688 0.0
N119 N 0.35652 0.86897 0.96028 0.0
H120 H 0.36353 0.8405 0.04708 0.0
H121 H 0.35671 0.89359 0.86118 0.0
H122 H 0.35495 0.81712 0.87465 0.0
H123 H 0.30214 0.87181 0.78449 0.0
O124 O 0.31992 0.82675 1.00049 0.0
O125 O 0.28417 0.84653 0.95752 0.0
O126 O 0.31089 0.89578 0.90499 0.0
C127 C 0.29469 0.82639 0.99145 0.0
H128 H 0.27639 0.90918 0.17646 0.0
H129 H 0.35873 0.8163 0.7217 0.0
H130 H 0.40348 0.90254 0.86577 0.0
H131 H 0.41046 0.84826 0.05453 0.0
Co132 Co 0.13407 0.68206 0.26385 0.0
C133 C 0.12734 0.67786 0.09798 0.0
C134 C 0.10049 0.70611 0.14342 0.0
C135 C 0.09743 0.705 0.06433 0.0
N136 N 0.11919 0.68893 0.16385 0.0
N137 N 0.1143 0.68707 0.03624 0.0
H138 H 0.14303 0.66368 0.09558 0.0
H139 H 0.09008 0.71871 0.18287 0.0
C140 C 0.08743 0.66964 0.35737 0.0
O141 O 0.10023 0.6484 0.37723 0.0
N142 N 0.15014 0.67608 0.36479 0.0
C143 C 0.17464 0.66715 0.3782 0.0
C144 C 0.17864 0.66517 0.45603 0.0
C145 C 0.14057 0.6815 0.43574 0.0
N146 N 0.1571 0.67397 0.49204 0.0
C147 C 0.14701 0.62696 0.25619 0.0
C148 C 0.09895 0.61078 0.20108 0.0
C149 C 0.11849 0.59223 0.21428 0.0
C150 C 0.14276 0.60049 0.24203 0.0
C151 C 0.1038 0.63699 0.21776 0.0
N152 N 0.12741 0.64483 0.24714 0.0
H153 H 0.16636 0.63295 0.27186 0.0
H154 H 0.08848 0.65107 0.20693 0.0
H155 H 0.18897 0.6624 0.33478 0.0
H156 H 0.12175 0.6903 0.44691 0.0
O157 O 0.16814 0.68345 0.21846 0.0
O158 O 0.14713 0.71778 0.2663 0.0
O159 O 0.09828 0.68668 0.31363 0.0
C160 C 0.16789 0.70833 0.23243 0.0
H161 H 0.08385 0.71644 0.03039 0.0
H162 H 0.19595 0.65757 0.48413 0.0
H163 H 0.08007 0.60505 0.17846 0.0
H164 H 0.15859 0.58668 0.25029 0.0
Co165 Co 0.30764 0.13594 0.57777 0.0
C166 C 0.3094 0.13256 0.40966 0.0
C167 C 0.28959 0.09927 0.45673 0.0
C168 C 0.28763 0.09843 0.37743 0.0
N169 N 0.30324 0.12076 0.47662 0.0
N170 N 0.29991 0.11954 0.34858 0.0
H171 H 0.31927 0.15119 0.40549 0.0
H172 H 0.28025 0.08606 0.49675 0.0
C173 C 0.31328 0.0894 0.68052 0.0
O174 O 0.33343 0.10108 0.71234 0.0
N175 N 0.31145 0.15233 0.6789 0.0
C176 C 0.32138 0.17637 0.69281 0.0
C177 C 0.31845 0.18231 0.76932 0.0
C178 C 0.30145 0.14467 0.74752 0.0
N179 N 0.30619 0.16225 0.80355 0.0
C180 C 0.36268 0.14826 0.57212 0.0
C181 C 0.37964 0.09786 0.54482 0.0
C182 C 0.39826 0.11787 0.54985 0.0
C183 C 0.38938 0.14342 0.56288 0.0
C184 C 0.35313 0.10363 0.5534 0.0
N185 N 0.34494 0.12838 0.5705 0.0
H186 H 0.35634 0.16817 0.57738 0.0
H187 H 0.33915 0.08807 0.54545 0.0
H188 H 0.32921 0.18954 0.65019 0.0
H189 H 0.29016 0.1271 0.75649 0.0
O190 O 0.3075 0.17014 0.53182 0.0
O191 O 0.2721 0.14913 0.57204 0.0
O192 O 0.30049 0.1006 0.62642 0.0
C193 C 0.28223 0.16971 0.53941 0.0
H194 H 0.27637 0.08459 0.34406 0.0
H195 H 0.32482 0.20001 0.79774 0.0
H196 H 0.38538 0.07783 0.53408 0.0
H197 H 0.40282 0.15975 0.56354 0.0
Co198 Co 0.86967 0.31401 0.7647 0.0
C199 C 0.8742 0.31001 0.59343 0.0
C200 C 0.90688 0.29272 0.65105 0.0
C201 C 0.90889 0.28733 0.57391 0.0
N202 N 0.88543 0.30754 0.66384 0.0
N203 N 0.88831 0.29819 0.53778 0.0
H204 H 0.85501 0.31824 0.58346 0.0
H205 H 0.91927 0.28434 0.69485 0.0
C206 C 0.92625 0.31733 0.80971 0.0
O207 O 0.92973 0.33577 0.7581 0.0
N208 N 0.85415 0.31885 0.86512 0.0
C209 C 0.83572 0.33614 0.88701 0.0
C210 C 0.83212 0.33384 0.96556 0.0
C211 C 0.86112 0.30603 0.92964 0.0
N212 N 0.84813 0.31486 0.99207 0.0
C213 C 0.86948 0.36473 0.69532 0.0
C214 C 0.89076 0.39179 0.81773 0.0
C215 C 0.88428 0.4053 0.7503 0.0
C216 C 0.87341 0.39152 0.6889 0.0
C217 C 0.887 0.36471 0.82118 0.0
N218 N 0.87713 0.35136 0.7594 0.0
H219 H 0.85959 0.35499 0.64919 0.0
H220 H 0.89202 0.35445 0.87355 0.0
H221 H 0.82616 0.3499 0.849 0.0
H222 H 0.87612 0.29113 0.93119 0.0
O223 O 0.83551 0.31503 0.71936 0.0
O224 O 0.85529 0.279 0.7608 0.0
O225 O 0.90406 0.30617 0.81722 0.0
C226 C 0.8349 0.28986 0.72883 0.0
H227 H 0.9237 0.2753 0.547 0.0
H228 H 0.81889 0.34534 1.00039 0.0
H229 H 0.89892 0.40199 0.86672 0.0
H230 H 0.86745 0.40153 0.63677 0.0
Co231 Co 0.69451 0.87133 0.04208 0.0
C232 C 0.69076 0.88072 0.8716 0.0
C233 C 0.71464 0.9087 0.93028 0.0
C234 C 0.71532 0.91422 0.85309 0.0
N235 N 0.69862 0.88819 0.94258 0.0
N236 N 0.7003 0.89664 0.81627 0.0
H237 H 0.67912 0.86368 0.85962 0.0
H238 H 0.72584 0.91851 0.97438 0.0
C239 C 0.68377 0.92811 0.0756 0.0
O240 O 0.66871 0.92955 0.01443 0.0
N241 N 0.69158 0.85515 0.14198 0.0
C242 C 0.67613 0.83516 0.16388 0.0
C243 C 0.67511 0.8347 0.24347 0.0
C244 C 0.70012 0.86607 0.2076 0.0
N245 N 0.68992 0.85448 0.27042 0.0
C246 C 0.64394 0.85686 0.97965 0.0
C247 C 0.61489 0.88742 0.07901 0.0
C248 C 0.60219 0.87507 0.01783 0.0
C249 C 0.61679 0.85869 0.96962 0.0
C250 C 0.64185 0.88468 0.08757 0.0
N251 N 0.65637 0.8714 0.03435 0.0
H252 H 0.6549 0.84369 0.94362 0.0
H253 H 0.65102 0.89358 0.13689 0.0
H254 H 0.66474 0.82323 0.12504 0.0
H255 H 0.71227 0.88334 0.20929 0.0
O256 O 0.70272 0.83777 0.99551 0.0
O257 O 0.73152 0.86575 0.04346 0.0
O258 O 0.6948 0.90659 0.09378 0.0
C259 C 0.72713 0.84384 0.00819 0.0
H260 H 0.72683 0.92936 0.82582 0.0
H261 H 0.66272 0.82227 0.2783 0.0
H262 H 0.60406 0.8992 0.11983 0.0
H263 H 0.60746 0.84798 0.92348 0.0
H264 H 0.23139 0.16731 0.48805 0.0
H265 H 0.29745 0.21966 0.51477 0.0
H266 H 0.27281 0.25465 0.44934 0.0
H267 H 0.21435 0.18877 0.29892 0.0
H268 H 0.17951 0.18603 0.31276 0.0
H269 H 0.20144 0.16529 0.36626 0.0
H270 H 0.18123 0.18139 0.49444 0.0
H271 H 0.15899 0.20195 0.44141 0.0
H272 H 0.17985 0.21594 0.51406 0.0
H273 H 0.24192 0.28355 0.38034 0.0
H274 H 0.20596 0.30545 0.31172 0.0
H275 H 0.15981 0.2344 0.32355 0.0
C276 C 0.24039 0.18631 0.48133 0.0
C277 C 0.26618 0.19097 0.50714 0.0
C278 C 0.27766 0.2158 0.49569 0.0
C279 C 0.26385 0.23576 0.45854 0.0
C280 C 0.23867 0.23047 0.43248 0.0
C281 C 0.22696 0.20643 0.44324 0.0
C282 C 0.19999 0.20578 0.40676 0.0
C283 C 0.19876 0.18525 0.34235 0.0
C284 C 0.17876 0.20099 0.46782 0.0
C285 C 0.19836 0.23328 0.37441 0.0
C286 C 0.22093 0.24711 0.3902 0.0
C287 C 0.22415 0.27296 0.36754 0.0
C288 C 0.20359 0.28521 0.32855 0.0
C289 C 0.18015 0.2716 0.31211 0.0
C290 C 0.17762 0.24518 0.33467 0.0
H291 H 0.83334 0.23806 0.68613 0.0
H292 H 0.78575 0.30796 0.70653 0.0
H293 H 0.74819 0.28451 0.65107 0.0
H294 H 0.8073 0.21796 0.50379 0.0
H295 H 0.80801 0.18353 0.52545 0.0
H296 H 0.83116 0.2052 0.57032 0.0
H297 H 0.81618 0.18952 0.70509 0.0
H298 H 0.79319 0.16759 0.66063 0.0
H299 H 0.78201 0.19116 0.73022 0.0
H300 H 0.71592 0.25414 0.595 0.0
H301 H 0.69017 0.21795 0.54052 0.0
H302 H 0.75854 0.16772 0.54903 0.0
C303 C 0.81488 0.24823 0.67981 0.0
C304 C 0.81231 0.27474 0.70105 0.0
C305 C 0.78807 0.28763 0.69068 0.0
C306 C 0.76664 0.2745 0.65919 0.0
C307 C 0.76985 0.24855 0.63761 0.0
C308 C 0.79328 0.23547 0.6473 0.0
C309 C 0.79144 0.20772 0.61714 0.0
C310 C 0.81062 0.20336 0.55019 0.0
C311 C 0.79597 0.18782 0.68216 0.0
C312 C 0.76329 0.2073 0.58955 0.0
C313 C 0.75126 0.23109 0.60232 0.0
C314 C 0.72511 0.23545 0.58428 0.0
C315 C 0.71067 0.2148 0.55335 0.0
C316 C 0.72246 0.1902 0.54004 0.0
C317 C 0.7492 0.1865 0.55745 0.0
H318 H 0.80218 0.72117 0.82274 0.0
H319 H 0.87062 0.77118 0.81173 0.0
H320 H 0.8454 0.80709 0.86999 0.0
H321 H 0.7553 0.77245 0.77398 0.0
H322 H 0.73026 0.76003 0.83716 0.0
H323 H 0.75365 0.73798 0.79479 0.0
H324 H 0.76635 0.72135 0.93059 0.0
H325 H 0.74314 0.74349 0.97339 0.0
H326 H 0.77698 0.74441 0.00236 0.0
H327 H 0.8142 0.8366 0.93472 0.0
H328 H 0.77711 0.86026 0.99144 0.0
H329 H 0.72716 0.79283 0.95484 0.0
C330 C 0.81176 0.73974 0.83246 0.0
C331 C 0.83838 0.74343 0.81301 0.0
C332 C 0.85024 0.76799 0.82592 0.0
C333 C 0.83611 0.78847 0.85928 0.0
C334 C 0.81003 0.78419 0.87841 0.0
C335 C 0.79776 0.76064 0.86457 0.0
C336 C 0.76925 0.76167 0.88907 0.0
C337 C 0.75104 0.75781 0.8196 0.0
C338 C 0.76361 0.74153 0.95264 0.0
C339 C 0.76759 0.78937 0.9197 0.0
C340 C 0.79148 0.80181 0.91344 0.0
C341 C 0.79533 0.82718 0.93945 0.0
C342 C 0.77412 0.84039 0.97199 0.0
C343 C 0.74923 0.8284 0.97758 0.0
C344 C 0.74594 0.8025 0.95107 0.0
H345 H 0.16799 0.75899 0.17786 0.0
H346 H 0.21826 0.693 0.23007 0.0
H347 H 0.25589 0.71627 0.17423 0.0
H348 H 0.19593 0.77287 0.99622 0.0
H349 H 0.19367 0.80791 0.00385 0.0
H350 H 0.17078 0.78751 0.05479 0.0
H351 H 0.18345 0.80954 0.18359 0.0
H352 H 0.20608 0.83032 0.13285 0.0
H353 H 0.21734 0.81057 0.21213 0.0
H354 H 0.28742 0.74497 0.10807 0.0
H355 H 0.31213 0.77895 0.03891 0.0
H356 H 0.2419 0.82644 0.02368 0.0
C357 C 0.18709 0.74985 0.17917 0.0
C358 C 0.19039 0.72436 0.20884 0.0
C359 C 0.21544 0.71258 0.20781 0.0
C360 C 0.23691 0.72561 0.17617 0.0
C361 C 0.23298 0.75035 0.1452 0.0
C362 C 0.20882 0.76252 0.14666 0.0
C363 C 0.20996 0.78873 0.10586 0.0
C364 C 0.19149 0.78927 0.03604 0.0
C365 C 0.20385 0.81112 0.16196 0.0
C366 C 0.23842 0.78917 0.08094 0.0
C367 C 0.25127 0.76684 0.10469 0.0
C368 C 0.27764 0.7626 0.08924 0.0
C369 C 0.29148 0.78198 0.04968 0.0
C370 C 0.2789 0.80521 0.02551 0.0
C371 C 0.25193 0.8087 0.0406 0.0
H372 H 0.09478 0.27947 0.58266 0.0
H373 H 0.12306 0.35534 0.5079 0.0
H374 H 0.13584 0.36556 0.64094 0.0
H375 H 0.06859 0.3022 0.76934 0.0
H376 H 0.07797 0.27262 0.81841 0.0
H377 H 0.06961 0.2717 0.71772 0.0
H378 H 0.11441 0.25033 0.68746 0.0
H379 H 0.12299 0.25136 0.78784 0.0
H380 H 0.14404 0.26644 0.71747 0.0
H381 H 0.14877 0.36638 0.77869 0.0
H382 H 0.15884 0.3587 0.91566 0.0
H383 H 0.12052 0.28332 0.90457 0.0
C384 C 0.10315 0.29844 0.59428 0.0
C385 C 0.10812 0.31649 0.53416 0.0
C386 C 0.11949 0.34096 0.55232 0.0
C387 C 0.12665 0.34705 0.62794 0.0
C388 C 0.12202 0.32863 0.68528 0.0
C389 C 0.11024 0.30496 0.66978 0.0
C390 C 0.10815 0.28841 0.74206 0.0
C391 C 0.07937 0.28345 0.76311 0.0
C392 C 0.12331 0.26261 0.73314 0.0
C393 C 0.12116 0.30627 0.80008 0.0
C394 C 0.12896 0.32938 0.76588 0.0
C395 C 0.14254 0.34848 0.80634 0.0
C396 C 0.14836 0.34386 0.88385 0.0
C397 C 0.14052 0.3204 0.92035 0.0
C398 C 0.12648 0.3015 0.87803 0.0
H399 H 0.66839 0.17774 0.11594 0.0
H400 H 0.69585 0.10497 0.21606 0.0
H401 H 0.70156 0.08654 0.08712 0.0
H402 H 0.63239 0.14934 0.95932 0.0
H403 H 0.64155 0.17386 0.88987 0.0
H404 H 0.6398 0.18208 0.99051 0.0
H405 H 0.68776 0.19833 0.98694 0.0
H406 H 0.68956 0.19038 0.88614 0.0
H407 H 0.71308 0.17682 0.95233 0.0
H408 H 0.7019 0.07462 0.94954 0.0
H409 H 0.70202 0.07159 0.80861 0.0
H410 H 0.67635 0.15232 0.7927 0.0
C411 C 0.67566 0.15797 0.1105 0.0
C412 C 0.68178 0.14292 0.17656 0.0
C413 C 0.69138 0.11713 0.16692 0.0
C414 C 0.69443 0.1063 0.09367 0.0
C415 C 0.68791 0.12146 0.03007 0.0
C416 C 0.67909 0.14684 0.03729 0.0
C417 C 0.67418 0.15892 0.95865 0.0
C418 C 0.64526 0.16649 0.94905 0.0
C419 C 0.69223 0.18251 0.94524 0.0
C420 C 0.68146 0.13624 0.90653 0.0
C421 C 0.68909 0.11482 0.94938 0.0
C422 C 0.69635 0.09138 0.91518 0.0
C423 C 0.69647 0.08992 0.83484 0.0
C424 C 0.68963 0.11181 0.78895 0.0
C425 C 0.68163 0.13519 0.82574 0.0
H426 H 0.92021 0.70545 0.10373 0.0
H427 H 0.86571 0.64723 0.018 0.0
H428 H 0.85037 0.63924 0.14954 0.0
H429 H 0.93647 0.66948 0.28344 0.0
H430 H 0.93901 0.69907 0.33898 0.0
H431 H 0.94704 0.69933 0.23799 0.0
H432 H 0.91363 0.73667 0.21582 0.0
H433 H 0.90538 0.73641 0.31647 0.0
H434 H 0.88011 0.73222 0.24526 0.0
H435 H 0.8372 0.64094 0.28735 0.0
H436 H 0.83025 0.6494 0.42606 0.0
H437 H 0.89541 0.70338 0.42601 0.0
C438 C 0.90546 0.69062 0.11238 0.0
C439 C 0.89393 0.67739 0.04933 0.0
C440 C 0.87448 0.65826 0.06423 0.0
C441 C 0.86574 0.65334 0.13918 0.0
C442 C 0.87696 0.66724 0.19936 0.0
C443 C 0.89675 0.68513 0.18723 0.0
C444 C 0.90503 0.69778 0.26233 0.0
C445 C 0.93358 0.691 0.28182 0.0
C446 C 0.90077 0.72753 0.25978 0.0
C447 C 0.88624 0.68474 0.31789 0.0
C448 C 0.8702 0.66722 0.28018 0.0
C449 C 0.84997 0.65421 0.31788 0.0
C450 C 0.84604 0.65921 0.39628 0.0
C451 C 0.86245 0.67678 0.43624 0.0
C452 C 0.88297 0.68948 0.3967 0.0
H453 H 0.32222 0.84142 0.26826 0.0
H454 H 0.3095 0.92503 0.27739 0.0
H455 H 0.31558 0.92424 0.41837 0.0
H456 H 0.28659 0.82671 0.43718 0.0
H457 H 0.30789 0.80083 0.4693 0.0
H458 H 0.30523 0.80812 0.36824 0.0
H459 H 0.35539 0.81463 0.36015 0.0
H460 H 0.35825 0.80724 0.46123 0.0
H461 H 0.3711 0.83749 0.42395 0.0
H462 H 0.32111 0.91451 0.55635 0.0
H463 H 0.32443 0.8962 0.68676 0.0
H464 H 0.33161 0.81824 0.59218 0.0
C465 C 0.3213 0.85955 0.30013 0.0
C466 C 0.31563 0.88337 0.26253 0.0
C467 C 0.31382 0.90668 0.30568 0.0
C468 C 0.31736 0.90641 0.38544 0.0
C469 C 0.32251 0.88259 0.42111 0.0
C470 C 0.32443 0.85954 0.38021 0.0
C471 C 0.32835 0.83644 0.4338 0.0
C472 C 0.30566 0.81687 0.42669 0.0
C473 C 0.35486 0.82317 0.41888 0.0
C474 C 0.32803 0.85013 0.51113 0.0
C475 C 0.32488 0.87677 0.50199 0.0
C476 C 0.32346 0.89367 0.56434 0.0
C477 C 0.32501 0.88306 0.63823 0.0
C478 C 0.32762 0.85579 0.64953 0.0
C479 C 0.32958 0.83914 0.585 0.0
H480 H 0.10548 0.71618 0.90651 0.0
H481 H 0.13304 0.64061 0.98648 0.0
H482 H 0.14562 0.62905 0.85457 0.0
H483 H 0.0791 0.6915 0.72022 0.0
H484 H 0.08863 0.72054 0.66875 0.0
H485 H 0.08005 0.72251 0.76917 0.0
H486 H 0.12481 0.74407 0.79809 0.0
H487 H 0.13363 0.7419 0.69803 0.0
H488 H 0.15449 0.72755 0.77023 0.0
H489 H 0.15934 0.62704 0.71897 0.0
H490 H 0.16964 0.633 0.58155 0.0
H491 H 0.13113 0.70848 0.58386 0.0
C492 C 0.11362 0.697 0.89598 0.0
C493 C 0.11867 0.67949 0.95737 0.0
C494 C 0.12959 0.65465 0.94104 0.0
C495 C 0.13662 0.64778 0.86608 0.0
C496 C 0.1322 0.66574 0.80748 0.0
C497 C 0.12053 0.68965 0.8209 0.0
C498 C 0.11862 0.70544 0.74703 0.0
C499 C 0.08989 0.71027 0.72501 0.0
C500 C 0.1338 0.73127 0.75379 0.0
C501 C 0.13174 0.6869 0.69089 0.0
C502 C 0.1394 0.66415 0.72738 0.0
C503 C 0.15316 0.6446 0.68936 0.0
C504 C 0.15915 0.64826 0.61164 0.0
C505 C 0.15124 0.67119 0.57248 0.0
C506 C 0.13718 0.69069 0.61253 0.0
H507 H 0.31403 0.09544 0.21634 0.0
H508 H 0.28112 0.1667 0.30904 0.0
H509 H 0.27762 0.18509 0.1776 0.0
H510 H 0.35323 0.12869 0.07158 0.0
H511 H 0.34951 0.10319 1.00105 0.0
H512 H 0.34859 0.09534 0.10205 0.0
H513 H 0.30345 0.07344 0.08334 0.0
H514 H 0.30462 0.08191 0.98274 0.0
H515 H 0.27706 0.09189 0.04056 0.0
H516 H 0.2787 0.19599 0.0368 0.0
H517 H 0.28481 0.19883 0.89552 0.0
H518 H 0.31697 0.12059 0.89362 0.0
C519 C 0.30593 0.11479 0.20832 0.0
C520 C 0.29772 0.12973 0.27196 0.0
C521 C 0.28757 0.15516 0.26041 0.0
C522 C 0.28546 0.16566 0.18621 0.0
C523 C 0.2939 0.15056 0.12439 0.0
C524 C 0.30413 0.12577 0.1346 0.0
C525 C 0.31304 0.11429 0.05875 0.0
C526 C 0.34286 0.11014 0.05836 0.0
C527 C 0.29859 0.08883 0.04051 0.0
C528 C 0.30515 0.13593 0.00399 0.0
C529 C 0.2945 0.15685 0.04318 0.0
C530 C 0.28681 0.17963 0.00541 0.0
C531 C 0.29028 0.18109 0.92548 0.0
C532 C 0.30089 0.15977 0.88428 0.0
C533 C 0.30821 0.13686 0.92398 0.0
H534 H 0.86508 0.33402 0.44456 0.0
H535 H 0.89606 0.2552 0.45046 0.0
H536 H 0.88625 0.25011 0.31232 0.0
H537 H 0.81237 0.32164 0.30536 0.0
H538 H 0.81657 0.35261 0.2575 0.0
H539 H 0.82419 0.34948 0.35834 0.0
H540 H 0.871 0.36676 0.33261 0.0
H541 H 0.86353 0.36995 0.23183 0.0
H542 H 0.89121 0.35068 0.26203 0.0
H543 H 0.87504 0.25406 0.17336 0.0
H544 H 0.86435 0.2672 0.04067 0.0
H545 H 0.84149 0.34399 0.12224 0.0
C546 C 0.86938 0.31559 0.41678 0.0
C547 C 0.88135 0.29499 0.45805 0.0
C548 C 0.88715 0.2713 0.4197 0.0
C549 C 0.88147 0.26817 0.34142 0.0
C550 C 0.87002 0.28894 0.30209 0.0
C551 C 0.86406 0.31223 0.33823 0.0
C552 C 0.85319 0.33195 0.28131 0.0
C553 C 0.8249 0.33935 0.30187 0.0
C554 C 0.87079 0.35627 0.27668 0.0
C555 C 0.85431 0.31619 0.20751 0.0
C556 C 0.86387 0.29137 0.22112 0.0
C557 C 0.86748 0.27343 0.16195 0.0
C558 C 0.86151 0.28114 0.08663 0.0
C559 C 0.85217 0.30666 0.0707 0.0
C560 C 0.84822 0.32424 0.13244 0.0
H561 H 0.68843 0.82759 0.40609 0.0
H562 H 0.69101 0.90562 0.30854 0.0
H563 H 0.69209 0.92446 0.4383 0.0
H564 H 0.64695 0.84427 0.57078 0.0
H565 H 0.66392 0.82284 0.63627 0.0
H566 H 0.66249 0.81505 0.53527 0.0
H567 H 0.71307 0.81253 0.5303 0.0
H568 H 0.71464 0.82024 0.63124 0.0
H569 H 0.73212 0.84003 0.56255 0.0
H570 H 0.69431 0.93516 0.5763 0.0
H571 H 0.6981 0.93717 0.71746 0.0
H572 H 0.6939 0.85263 0.7296 0.0
C573 C 0.68904 0.84861 0.41241 0.0
C574 C 0.69004 0.8651 0.34713 0.0
C575 C 0.69091 0.89255 0.35748 0.0
C576 C 0.69124 0.90348 0.43106 0.0
C577 C 0.69058 0.88676 0.49408 0.0
C578 C 0.68948 0.85993 0.48594 0.0
C579 C 0.68972 0.84656 0.56398 0.0
C580 C 0.66425 0.83128 0.57734 0.0
C581 C 0.71383 0.82879 0.5725 0.0
C582 C 0.69143 0.8701 0.61677 0.0
C583 C 0.69175 0.89305 0.57489 0.0
C584 C 0.694 0.91736 0.6099 0.0
C585 C 0.69629 0.9183 0.69 0.0
C586 C 0.69635 0.8951 0.73441 0.0
C587 C 0.69356 0.87069 0.6972 0.0
H588 H 0.03967 0.34545 0.11176 0.0
H589 H 0.04913 0.26185 0.13833 0.0
H590 H 0.01372 0.25447 0.04287 0.0
H591 H 0.97033 0.34755 0.08488 0.0
H592 H 0.97161 0.37261 0.01206 0.0
H593 H 0.99669 0.37093 0.08463 0.0
H594 H 0.03219 0.36838 0.97838 0.0
H595 H 0.00722 0.36998 0.9054 0.0
H596 H 0.03015 0.34322 0.90618 0.0
H597 H 0.97508 0.25689 0.95075 0.0
H598 H 0.93995 0.26854 0.85844 0.0
H599 H 0.95991 0.35038 0.8816 0.0
C600 C 0.03403 0.32561 0.0979 0.0
C601 C 0.04651 0.30414 0.13309 0.0
C602 C 0.0394 0.27845 0.11224 0.0
C603 C 0.0194 0.27414 0.05828 0.0
C604 C 0.00736 0.29579 0.02449 0.0
C605 C 0.01475 0.32101 0.04259 0.0
C606 C 0.99984 0.3409 0.99532 0.0
C607 C 0.98366 0.35906 0.04734 0.0
C608 C 0.01846 0.35654 0.94322 0.0
C609 C 0.98246 0.32301 0.94874 0.0
C610 C 0.98682 0.29706 0.96705 0.0
C611 C 0.97184 0.27709 0.93499 0.0
C612 C 0.95196 0.28385 0.88287 0.0
C613 C 0.94771 0.31024 0.86217 0.0
C614 C 0.96327 0.32999 0.89516 0.0
H615 H 0.65801 0.97521 0.06875 0.0
H616 H 0.71677 0.93262 0.19875 0.0
H617 H 0.72115 0.96986 0.28743 0.0
H618 H 0.68776 0.03912 0.08778 0.0
H619 H 0.65698 0.05598 0.09808 0.0
H620 H 0.65878 0.02634 0.04258 0.0
H621 H 0.62262 0.00535 0.12639 0.0
H622 H 0.62027 0.03494 0.1818 0.0
H623 H 0.62654 0.00427 0.22943 0.0
H624 H 0.71851 0.01149 0.36398 0.0
H625 H 0.7081 0.05407 0.42395 0.0
H626 H 0.65091 0.069 0.24448 0.0
C627 C 0.67197 0.97379 0.1154 0.0
C628 C 0.68702 0.95097 0.12669 0.0
C629 C 0.70493 0.94985 0.18893 0.0
C630 C 0.70765 0.97094 0.23958 0.0
C631 C 0.69239 0.99307 0.22714 0.0
C632 C 0.67491 0.99465 0.1666 0.0
C633 C 0.66027 0.02035 0.16737 0.0
C634 C 0.66632 0.0364 0.09466 0.0
C635 C 0.63068 0.01595 0.17684 0.0
C636 C 0.67202 0.0328 0.23833 0.0
C637 C 0.69066 0.01688 0.27168 0.0
C638 C 0.70398 0.02417 0.3383 0.0
C639 C 0.69795 0.04836 0.37193 0.0
C640 C 0.67862 0.06477 0.33917 0.0
C641 C 0.66567 0.05683 0.2713 0.0
H642 H 0.06323 0.71377 0.41594 0.0
H643 H 0.05167 0.63156 0.36656 0.0
H644 H 0.00915 0.63273 0.43264 0.0
H645 H 0.03806 0.71175 0.60291 0.0
H646 H 0.0218 0.74299 0.60052 0.0
H647 H 0.04991 0.73725 0.54042 0.0
H648 H 0.02305 0.74983 0.41936 0.0
H649 H 0.99494 0.75597 0.47933 0.0
H650 H 0.99258 0.73336 0.40022 0.0
H651 H 0.9717 0.64049 0.51604 0.0
H652 H 0.93772 0.65551 0.60479 0.0
H653 H 0.97102 0.73362 0.60135 0.0
C654 C 0.05124 0.69635 0.41709 0.0
C655 C 0.06048 0.67259 0.38577 0.0
C656 C 0.0448 0.64991 0.39015 0.0
C657 C 0.02064 0.65039 0.42747 0.0
C658 C 0.0124 0.67373 0.46026 0.0
C659 C 0.02692 0.69644 0.45496 0.0
C660 C 0.01396 0.71831 0.50025 0.0
C661 C 0.03201 0.72815 0.56484 0.0
C662 C 0.00563 0.7407 0.44657 0.0
C663 C 0.99031 0.70409 0.5328 0.0
C664 C 0.99001 0.6784 0.50868 0.0
C665 C 0.97138 0.66068 0.53431 0.0
C666 C 0.95222 0.66944 0.58531 0.0
C667 C 0.95151 0.69585 0.60978 0.0
C668 C 0.97087 0.71342 0.583 0.0
H669 H 0.31894 0.97009 0.96895 0.0
H670 H 0.29984 0.91932 0.77771 0.0
H671 H 0.29275 0.9579 0.69468 0.0
H672 H 0.26844 0.01656 0.91442 0.0
H673 H 0.28518 0.04572 0.94129 0.0
H674 H 0.29056 0.01606 0.99514 0.0
H675 H 0.33982 0.01376 0.97296 0.0
H676 H 0.33782 0.04556 0.92959 0.0
H677 H 0.35285 0.01899 0.87778 0.0
H678 H 0.2918 0.00257 0.62998 0.0
H679 H 0.29693 0.04884 0.5905 0.0
H680 H 0.31519 0.06981 0.82585 0.0
C681 C 0.3132 0.96706 0.90967 0.0
C682 C 0.31059 0.94168 0.8792 0.0
C683 C 0.30241 0.93858 0.80186 0.0
C684 C 0.29819 0.9604 0.75439 0.0
C685 C 0.30149 0.9852 0.78587 0.0
C686 C 0.30843 0.98857 0.86208 0.0
C687 C 0.31002 0.01717 0.88266 0.0
C688 C 0.28729 0.0243 0.93673 0.0
C689 C 0.33672 0.02427 0.91776 0.0
C690 C 0.30617 0.02936 0.80416 0.0
C691 C 0.30015 0.01071 0.74952 0.0
C692 C 0.29622 0.01735 0.67247 0.0
C693 C 0.29913 0.04362 0.65056 0.0
C694 C 0.30652 0.06269 0.70522 0.0
C695 C 0.30961 0.0555 0.78303 0.0
H696 H 0.11576 0.4399 0.30251 0.0
H697 H 0.1047 0.42753 0.0571 0.0
H698 H 0.10159 0.47498 0.0379 0.0
H699 H 0.07504 0.49693 0.32422 0.0
H700 H 0.09726 0.51275 0.38976 0.0
H701 H 0.0958 0.47762 0.38593 0.0
H702 H 0.14564 0.47569 0.35906 0.0
H703 H 0.14727 0.51078 0.36304 0.0
H704 H 0.15895 0.49376 0.27906 0.0
H705 H 0.10053 0.52411 0.04458 0.0
H706 H 0.10538 0.5711 0.0759 0.0
H707 H 0.12184 0.5511 0.31332 0.0
C708 C 0.11282 0.44697 0.24446 0.0
C709 C 0.11017 0.42959 0.18164 0.0
C710 C 0.10604 0.44009 0.10693 0.0
C711 C 0.10444 0.46714 0.09514 0.0
C712 C 0.10739 0.48356 0.15829 0.0
C713 C 0.1118 0.47388 0.23132 0.0
C714 C 0.11619 0.49568 0.28861 0.0
C715 C 0.09479 0.49574 0.35079 0.0
C716 C 0.14364 0.49387 0.32452 0.0
C717 C 0.11378 0.51916 0.23619 0.0
C718 C 0.10824 0.51179 0.16146 0.0
C719 C 0.10492 0.53011 0.10284 0.0
C720 C 0.10762 0.55666 0.12103 0.0
C721 C 0.11404 0.56444 0.19673 0.0
C722 C 0.11704 0.54548 0.25494 0.0
H723 H 0.55172 0.14016 0.60583 0.0
H724 H 0.56435 0.07963 0.43519 0.0
H725 H 0.51671 0.07216 0.42792 0.0
H726 H 0.49682 0.10849 0.70333 0.0
H727 H 0.47992 0.13889 0.71988 0.0
H728 H 0.51512 0.13831 0.71494 0.0
H729 H 0.51389 0.17333 0.60716 0.0
H730 H 0.47872 0.17389 0.6114 0.0
H731 H 0.49498 0.1673 0.52148 0.0
H732 H 0.46773 0.07372 0.43164 0.0
H733 H 0.42083 0.08259 0.45061 0.0
H734 H 0.4401 0.14098 0.62273 0.0
C735 C 0.54445 0.12524 0.56726 0.0
C736 C 0.56172 0.11042 0.52119 0.0
C737 C 0.55149 0.09095 0.4718 0.0
C738 C 0.52447 0.08667 0.46695 0.0
C739 C 0.50798 0.10187 0.51233 0.0
C740 C 0.51756 0.12059 0.56208 0.0
C741 C 0.49559 0.13464 0.60331 0.0
C742 C 0.49695 0.12978 0.69054 0.0
C743 C 0.49582 0.16403 0.58469 0.0
C744 C 0.47214 0.12123 0.56785 0.0
C745 C 0.47971 0.10238 0.5156 0.0
C746 C 0.46154 0.08813 0.47335 0.0
C747 C 0.43489 0.09322 0.48496 0.0
C748 C 0.4266 0.11233 0.53878 0.0
C749 C 0.44565 0.12637 0.58079 0.0
H750 H 0.85761 0.55739 0.82312 0.0
H751 H 0.91066 0.57254 0.63366 0.0
H752 H 0.91777 0.52514 0.61746 0.0
H753 H 0.89444 0.50448 0.90413 0.0
H754 H 0.86627 0.48554 0.93192 0.0
H755 H 0.86403 0.52061 0.92666 0.0
H756 H 0.82505 0.51693 0.83207 0.0
H757 H 0.82696 0.48185 0.83778 0.0
H758 H 0.82866 0.49788 0.74554 0.0
H759 H 0.9193 0.47674 0.62136 0.0
H760 H 0.91482 0.42931 0.64466 0.0
H761 H 0.86261 0.44481 0.83576 0.0
C762 C 0.87038 0.55057 0.77767 0.0
C763 C 0.88349 0.5684 0.72913 0.0
C764 C 0.90045 0.55901 0.67106 0.0
C765 C 0.90462 0.53221 0.66157 0.0
C766 C 0.89185 0.51507 0.71113 0.0
C767 C 0.87506 0.52376 0.76802 0.0
C768 C 0.86441 0.50106 0.8146 0.0
C769 C 0.8728 0.50305 0.89935 0.0
C770 C 0.8345 0.49933 0.80701 0.0
C771 C 0.87781 0.47834 0.77481 0.0
C772 C 0.89346 0.48695 0.7151 0.0
C773 C 0.90724 0.46973 0.66818 0.0
C774 C 0.90465 0.44291 0.68185 0.0
C775 C 0.88867 0.43364 0.74238 0.0
C776 C 0.87532 0.45156 0.79003 0.0
H777 H 0.5624 0.83927 1.0015 0.0
H778 H 0.57867 0.92237 0.0041 0.0
H779 H 0.5317 0.93177 0.98508 0.0
H780 H 0.51014 0.84088 0.85854 0.0
H781 H 0.49085 0.8164 0.90683 0.0
H782 H 0.52596 0.81611 0.91587 0.0
H783 H 0.52158 0.8175 0.06433 0.0
H784 H 0.48649 0.81786 0.05573 0.0
H785 H 0.50288 0.84331 0.10852 0.0
H786 H 0.48316 0.93226 0.96731 0.0
H787 H 0.43566 0.92383 0.95868 0.0
H788 H 0.45034 0.84048 0.97261 0.0
C789 C 0.55602 0.85939 0.99711 0.0
C790 C 0.57406 0.88014 0.00386 0.0
C791 C 0.56506 0.90625 0.99922 0.0
C792 C 0.53848 0.91176 0.98815 0.0
C793 C 0.5211 0.89093 0.98245 0.0
C794 C 0.52942 0.86527 0.98718 0.0
C795 C 0.50645 0.8466 0.98311 0.0
C796 C 0.50848 0.82896 0.91183 0.0
C797 C 0.50423 0.83037 0.05735 0.0
C798 C 0.48399 0.8658 0.97572 0.0
C799 C 0.49292 0.89125 0.97461 0.0
C800 C 0.47591 0.91241 0.96803 0.0
C801 C 0.449 0.90745 0.96287 0.0
C802 C 0.43934 0.88155 0.96515 0.0
C803 C 0.45716 0.8605 0.97146 0.0
loop_
_geom_bond_atom_site_label_1
_geom_bond_atom_site_label_2
_geom_bond_distance
_geom_bond_site_symmetry_2
_ccdc_geom_bond_type
Co0 N4 2.148 . S
Co0 N10 2.128 . S
Co0 N20 2.194 . S
Co0 O25 2.351 . S
Co0 O26 2.155 . S
Co0 O27 2.096 . S
C1 N4 1.301 . S
C1 N5 1.328 . S
C1 H6 0.930 . S
C2 C3 1.333 . S
C2 N4 1.317 . S
C2 H7 0.930 . S
C3 C2 1.333 . S
C3 N5 1.350 . S
C3 H29 0.931 . S
N4 Co0 2.148 . S
N4 C1 1.301 . S
N4 C2 1.317 . S
N5 C1 1.328 . S
N5 C3 1.350 . S
H6 C1 0.930 . S
H7 C2 0.930 . S
C8 O9 1.224 . S
C8 O27 1.247 . S
O9 C8 1.224 . S
N10 Co0 2.128 . S
N10 C11 1.355 . S
N10 C13 1.311 . S
C11 N10 1.355 . S
C11 C12 1.363 1_554 S
C11 H23 0.929 . S
C12 C11 1.363 1_556 S
C12 N14 1.375 . S
C12 H30 0.931 . S
C13 N10 1.311 . S
C13 N14 1.347 1_554 S
C13 H24 0.929 . S
N14 C12 1.375 . S
N14 C13 1.347 1_556 S
C15 C18 1.365 . S
C15 N20 1.328 . S
C15 H21 0.929 . S
C16 C17 1.362 . S
C16 C19 1.378 . S
C16 H31 0.929 . S
C17 C16 1.362 . S
C17 C18 1.366 . S
C18 C15 1.365 . S
C18 C17 1.366 . S
C18 H32 0.930 . S
C19 C16 1.378 . S
C19 N20 1.315 . S
C19 H22 0.930 . S
N20 Co0 2.194 . S
N20 C15 1.328 . S
N20 C19 1.315 . S
H21 C15 0.929 . S
H22 C19 0.930 . S
H23 C11 0.929 . S
H24 C13 0.929 . S
O25 Co0 2.351 . S
O25 C28 1.244 . S
O26 Co0 2.155 . S
O26 C28 1.240 . S
O27 Co0 2.096 . S
O27 C8 1.247 . S
C28 O25 1.244 . S
C28 O26 1.240 . S
H29 C3 0.931 . S
H30 C12 0.931 . S
H31 C16 0.929 . S
H32 C18 0.930 . S
Co33 N37 2.148 . S
Co33 N43 2.128 . S
Co33 N53 2.194 . S
Co33 O58 2.351 . S
Co33 O59 2.155 . S
Co33 O60 2.096 . S
C34 N37 1.301 . S
C34 N38 1.328 . S
C34 H39 0.930 . S
C35 C36 1.333 . S
C35 N37 1.317 . S
C35 H40 0.930 . S
C36 C35 1.333 . S
C36 N38 1.350 . S
C36 H62 0.931 . S
N37 Co33 2.148 . S
N37 C34 1.301 . S
N37 C35 1.317 . S
N38 C34 1.328 . S
N38 C36 1.350 . S
H39 C34 0.930 . S
H40 C35 0.930 . S
C41 O42 1.224 . S
C41 O60 1.247 . S
O42 C41 1.224 . S
N43 Co33 2.128 . S
N43 C44 1.355 . S
N43 C46 1.311 . S
C44 N43 1.355 . S
C44 C45 1.363 . S
C44 H56 0.929 . S
C45 C44 1.363 . S
C45 N47 1.375 . S
C45 H63 0.931 . S
C46 N43 1.311 . S
C46 N47 1.347 . S
C46 H57 0.929 . S
N47 C45 1.375 . S
N47 C46 1.347 . S
C48 C51 1.365 . S
C48 N53 1.328 . S
C48 H54 0.929 . S
C49 C50 1.362 . S
C49 C52 1.378 . S
C49 H64 0.929 . S
C50 C49 1.362 . S
C50 C51 1.366 . S
C51 C48 1.365 . S
C51 C50 1.366 . S
C51 H65 0.930 . S
C52 C49 1.378 . S
C52 N53 1.315 . S
C52 H55 0.930 . S
N53 Co33 2.194 . S
N53 C48 1.328 . S
N53 C52 1.315 . S
H54 C48 0.929 . S
H55 C52 0.930 . S
H56 C44 0.929 . S
H57 C46 0.929 . S
O58 Co33 2.351 . S
O58 C61 1.244 . S
O59 Co33 2.155 . S
O59 C61 1.240 . S
O60 Co33 2.096 . S
O60 C41 1.247 . S
C61 O58 1.244 . S
C61 O59 1.240 . S
H62 C36 0.931 . S
H63 C45 0.931 . S
H64 C49 0.929 . S
H65 C51 0.930 . S
Co66 N70 2.148 . S
Co66 N76 2.128 . S
Co66 N86 2.194 . S
Co66 O91 2.351 . S
Co66 O92 2.155 . S
Co66 O93 2.096 . S
C67 N70 1.301 . S
C67 N71 1.328 . S
C67 H72 0.930 . S
C68 C69 1.333 . S
C68 N70 1.317 . S
C68 H73 0.930 . S
C69 C68 1.333 . S
C69 N71 1.350 . S
C69 H95 0.931 . S
N70 Co66 2.148 . S
N70 C67 1.301 . S
N70 C68 1.317 . S
N71 C67 1.328 . S
N71 C69 1.350 . S
H72 C67 0.930 . S
H73 C68 0.930 . S
C74 O75 1.224 . S
C74 O93 1.247 . S
O75 C74 1.224 . S
N76 Co66 2.128 . S
N76 C77 1.355 . S
N76 C79 1.311 . S
C77 N76 1.355 . S
C77 C78 1.363 . S
C77 H89 0.929 . S
C78 C77 1.363 . S
C78 N80 1.375 . S
C78 H96 0.931 . S
C79 N76 1.311 . S
C79 N80 1.347 . S
C79 H90 0.929 . S
N80 C78 1.375 . S
N80 C79 1.347 . S
C81 C84 1.365 . S
C81 N86 1.328 . S
C81 H87 0.929 . S
C82 C83 1.362 . S
C82 C85 1.378 . S
C82 H97 0.929 . S
C83 C82 1.362 . S
C83 C84 1.366 . S
C84 C81 1.365 . S
C84 C83 1.366 . S
C84 H98 0.930 . S
C85 C82 1.378 . S
C85 N86 1.315 . S
C85 H88 0.930 . S
N86 Co66 2.194 . S
N86 C81 1.328 . S
N86 C85 1.315 . S
H87 C81 0.929 . S
H88 C85 0.930 . S
H89 C77 0.929 . S
H90 C79 0.929 . S
O91 Co66 2.351 . S
O91 C94 1.244 . S
O92 Co66 2.155 . S
O92 C94 1.240 . S
O93 Co66 2.096 . S
O93 C74 1.247 . S
C94 O91 1.244 . S
C94 O92 1.240 . S
H95 C69 0.931 . S
H96 C78 0.931 . S
H97 C82 0.929 . S
H98 C84 0.930 . S
Co99 N103 2.148 1_556 S
Co99 N109 2.128 . S
Co99 N119 2.194 . S
Co99 O124 2.351 . S
Co99 O125 2.155 . S
Co99 O126 2.096 . S
C100 N103 1.301 . S
C100 N104 1.328 . S
C100 H105 0.930 . S
C101 C102 1.333 . S
C101 N103 1.317 . S
C101 H106 0.930 . S
C102 C101 1.333 . S
C102 N104 1.350 . S
C102 H128 0.931 . S
N103 Co99 2.148 1_554 S
N103 C100 1.301 . S
N103 C101 1.317 . S
N104 C100 1.328 . S
N104 C102 1.350 . S
H105 C100 0.930 . S
H106 C101 0.930 . S
C107 O108 1.224 . S
C107 O126 1.247 . S
O108 C107 1.224 . S
N109 Co99 2.128 . S
N109 C110 1.355 . S
N109 C112 1.311 . S
C110 N109 1.355 . S
C110 C111 1.363 . S
C110 H122 0.929 . S
C111 C110 1.363 . S
C111 N113 1.375 . S
C111 H129 0.931 . S
C112 N109 1.311 . S
C112 N113 1.347 . S
C112 H123 0.929 . S
N113 C111 1.375 . S
N113 C112 1.347 . S
C114 C117 1.366 . S
C114 N119 1.328 . S
C114 H120 0.929 1_556 S
C115 C116 1.362 . S
C115 C118 1.378 . S
C115 H130 0.929 . S
C116 C115 1.362 . S
C116 C117 1.370 . S
C117 C114 1.366 . S
C117 C116 1.370 . S
C117 H131 0.926 1_556 S
C118 C115 1.378 . S
C118 N119 1.315 . S
C118 H121 0.930 . S
N119 Co99 2.194 . S
N119 C114 1.328 . S
N119 C118 1.315 . S
H120 C114 0.929 1_554 S
H121 C118 0.930 . S
H122 C110 0.929 . S
H123 C112 0.929 . S
O124 Co99 2.351 . S
O124 C127 1.244 . S
O125 Co99 2.155 . S
O125 C127 1.240 . S
O126 Co99 2.096 . S
O126 C107 1.247 . S
C127 O124 1.244 . S
C127 O125 1.240 . S
H128 C102 0.931 . S
H129 C111 0.931 . S
H130 C115 0.929 . S
H131 C117 0.926 1_554 S
Co132 N136 2.148 . S
Co132 N142 2.128 . S
Co132 N152 2.194 . S
Co132 O157 2.351 . S
Co132 O158 2.155 . S
Co132 O159 2.096 . S
C133 N136 1.301 . S
C133 N137 1.328 . S
C133 H138 0.930 . S
C134 C135 1.333 . S
C134 N136 1.317 . S
C134 H139 0.930 . S
C135 C134 1.333 . S
C135 N137 1.350 . S
C135 H161 0.931 . S
N136 Co132 2.148 . S
N136 C133 1.301 . S
N136 C134 1.317 . S
N137 C133 1.328 . S
N137 C135 1.350 . S
H138 C133 0.930 . S
H139 C134 0.930 . S
C140 O141 1.224 . S
C140 O159 1.247 . S
O141 C140 1.224 . S
N142 Co132 2.128 . S
N142 C143 1.355 . S
N142 C145 1.311 . S
C143 N142 1.355 . S
C143 C144 1.363 . S
C143 H155 0.929 . S
C144 C143 1.363 . S
C144 N146 1.375 . S
C144 H162 0.931 . S
C145 N142 1.311 . S
C145 N146 1.347 . S
C145 H156 0.929 . S
N146 C144 1.375 . S
N146 C145 1.347 . S
C147 C150 1.365 . S
C147 N152 1.328 . S
C147 H153 0.929 . S
C148 C149 1.362 . S
C148 C151 1.378 . S
C148 H163 0.929 . S
C149 C148 1.362 . S
C149 C150 1.366 . S
C150 C147 1.365 . S
C150 C149 1.366 . S
C150 H164 0.930 . S
C151 C148 1.378 . S
C151 N152 1.315 . S
C151 H154 0.930 . S
N152 Co132 2.194 . S
N152 C147 1.328 . S
N152 C151 1.315 . S
H153 C147 0.929 . S
H154 C151 0.930 . S
H155 C143 0.929 . S
H156 C145 0.929 . S
O157 Co132 2.351 . S
O157 C160 1.244 . S
O158 Co132 2.155 . S
O158 C160 1.240 . S
O159 Co132 2.096 . S
O159 C140 1.247 . S
C160 O157 1.244 . S
C160 O158 1.240 . S
H161 C135 0.931 . S
H162 C144 0.931 . S
H163 C148 0.929 . S
H164 C150 0.930 . S
Co165 N169 2.148 . S
Co165 N175 2.128 . S
Co165 N185 2.194 . S
Co165 O190 2.351 . S
Co165 O191 2.155 . S
Co165 O192 2.096 . S
C166 N169 1.301 . S
C166 N170 1.328 . S
C166 H171 0.930 . S
C167 C168 1.333 . S
C167 N169 1.317 . S
C167 H172 0.930 . S
C168 C167 1.333 . S
C168 N170 1.350 . S
C168 H194 0.931 . S
N169 Co165 2.148 . S
N169 C166 1.301 . S
N169 C167 1.317 . S
N170 C166 1.328 . S
N170 C168 1.350 . S
H171 C166 0.930 . S
H172 C167 0.930 . S
C173 O174 1.224 . S
C173 O192 1.247 . S
O174 C173 1.224 . S
N175 Co165 2.128 . S
N175 C176 1.355 . S
N175 C178 1.311 . S
C176 N175 1.355 . S
C176 C177 1.363 . S
C176 H188 0.929 . S
C177 C176 1.363 . S
C177 N179 1.375 . S
C177 H195 0.931 . S
C178 N175 1.311 . S
C178 N179 1.347 . S
C178 H189 0.929 . S
N179 C177 1.375 . S
N179 C178 1.347 . S
C180 C183 1.365 . S
C180 N185 1.328 . S
C180 H186 0.929 . S
C181 C182 1.362 . S
C181 C184 1.378 . S
C181 H196 0.929 . S
C182 C181 1.362 . S
C182 C183 1.366 . S
C183 C180 1.365 . S
C183 C182 1.366 . S
C183 H197 0.930 . S
C184 C181 1.378 . S
C184 N185 1.315 . S
C184 H187 0.930 . S
N185 Co165 2.194 . S
N185 C180 1.328 . S
N185 C184 1.315 . S
H186 C180 0.929 . S
H187 C184 0.930 . S
H188 C176 0.929 . S
H189 C178 0.929 . S
O190 Co165 2.351 . S
O190 C193 1.244 . S
O191 Co165 2.155 . S
O191 C193 1.240 . S
O192 Co165 2.096 . S
O192 C173 1.247 . S
C193 O190 1.244 . S
C193 O191 1.240 . S
H194 C168 0.931 . S
H195 C177 0.931 . S
H196 C181 0.929 . S
H197 C183 0.930 . S
Co198 N202 2.148 . S
Co198 N208 2.128 . S
Co198 N218 2.194 . S
Co198 O223 2.351 . S
Co198 O224 2.155 . S
Co198 O225 2.096 . S
C199 N202 1.301 . S
C199 N203 1.328 . S
C199 H204 0.930 . S
C200 C201 1.333 . S
C200 N202 1.317 . S
C200 H205 0.930 . S
C201 C200 1.333 . S
C201 N203 1.350 . S
C201 H227 0.931 . S
N202 Co198 2.148 . S
N202 C199 1.301 . S
N202 C200 1.317 . S
N203 C199 1.328 . S
N203 C201 1.350 . S
H204 C199 0.930 . S
H205 C200 0.930 . S
C206 O207 1.224 . S
C206 O225 1.247 . S
O207 C206 1.224 . S
N208 Co198 2.128 . S
N208 C209 1.355 . S
N208 C211 1.311 . S
C209 N208 1.355 . S
C209 C210 1.363 1_556 S
C209 H221 0.929 . S
C210 C209 1.363 1_554 S
C210 N212 1.375 . S
C210 H228 0.931 . S
C211 N208 1.311 . S
C211 N212 1.347 1_556 S
C211 H222 0.929 . S
N212 C210 1.375 . S
N212 C211 1.347 1_554 S
C213 C216 1.365 . S
C213 N218 1.328 . S
C213 H219 0.929 . S
C214 C215 1.362 . S
C214 C217 1.378 . S
C214 H229 0.929 . S
C215 C214 1.362 . S
C215 C216 1.366 . S
C216 C213 1.365 . S
C216 C215 1.366 . S
C216 H230 0.930 . S
C217 C214 1.378 . S
C217 N218 1.315 . S
C217 H220 0.930 . S
N218 Co198 2.194 . S
N218 C213 1.328 . S
N218 C217 1.315 . S
H219 C213 0.929 . S
H220 C217 0.930 . S
H221 C209 0.929 . S
H222 C211 0.929 . S
O223 Co198 2.351 . S
O223 C226 1.244 . S
O224 Co198 2.155 . S
O224 C226 1.240 . S
O225 Co198 2.096 . S
O225 C206 1.247 . S
C226 O223 1.244 . S
C226 O224 1.240 . S
H227 C201 0.931 . S
H228 C210 0.931 . S
H229 C214 0.929 . S
H230 C216 0.930 . S
Co231 N235 2.148 1_554 S
Co231 N241 2.128 . S
Co231 N251 2.194 . S
Co231 O256 2.351 . S
Co231 O257 2.155 . S
Co231 O258 2.096 . S
C232 N235 1.301 . S
C232 N236 1.328 . S
C232 H237 0.930 . S
C233 C234 1.333 . S
C233 N235 1.317 . S
C233 H238 0.930 . S
C234 C233 1.333 . S
C234 N236 1.350 . S
C234 H260 0.931 . S
N235 Co231 2.148 1_556 S
N235 C232 1.301 . S
N235 C233 1.317 . S
N236 C232 1.328 . S
N236 C234 1.350 . S
H237 C232 0.930 . S
H238 C233 0.930 . S
C239 O240 1.224 . S
C239 O258 1.247 . S
O240 C239 1.224 . S
N241 Co231 2.128 . S
N241 C242 1.355 . S
N241 C244 1.311 . S
C242 N241 1.355 . S
C242 C243 1.363 . S
C242 H254 0.929 . S
C243 C242 1.363 . S
C243 N245 1.375 . S
C243 H261 0.931 . S
C244 N241 1.311 . S
C244 N245 1.347 . S
C244 H255 0.929 . S
N245 C243 1.375 . S
N245 C244 1.347 . S
C246 C249 1.366 . S
C246 N251 1.328 . S
C246 H252 0.929 1_554 S
C247 C248 1.362 . S
C247 C250 1.378 . S
C247 H262 0.929 . S
C248 C247 1.362 . S
C248 C249 1.370 . S
C249 C246 1.366 . S
C249 C248 1.370 . S
C249 H263 0.926 1_554 S
C250 C247 1.378 . S
C250 N251 1.315 . S
C250 H253 0.930 . S
N251 Co231 2.194 . S
N251 C246 1.328 . S
N251 C250 1.315 . S
H252 C246 0.929 1_556 S
H253 C250 0.930 . S
H254 C242 0.929 . S
H255 C244 0.929 . S
O256 Co231 2.351 . S
O256 C259 1.244 . S
O257 Co231 2.155 . S
O257 C259 1.240 . S
O258 Co231 2.096 . S
O258 C239 1.247 . S
C259 O256 1.244 . S
C259 O257 1.240 . S
H260 C234 0.931 . S
H261 C243 0.931 . S
H262 C247 0.929 . S
H263 C249 0.926 1_556 S
H264 C276 0.930 . S
H265 C278 0.930 . S
H266 C279 0.930 . S
H267 C283 0.959 . S
H268 C283 0.959 . S
H269 C283 0.961 . S
H270 C284 0.960 . S
H271 C284 0.961 . S
H272 C284 0.959 . S
H273 C287 0.929 . S
H274 C288 0.931 . S
H275 C290 0.930 . S
C276 H264 0.930 . S
C276 C277 1.399 . S
C276 C281 1.399 . S
C277 C276 1.399 . S
C277 C278 1.376 . S
C278 H265 0.930 . S
C278 C277 1.376 . S
C278 C279 1.388 . S
C279 H266 0.930 . S
C279 C278 1.388 . S
C279 C280 1.390 . S
C280 C279 1.390 . S
C280 C281 1.394 . S
C280 C286 1.465 . S
C281 C276 1.399 . S
C281 C280 1.394 . S
C281 C282 1.516 . S
C282 C281 1.516 . S
C282 C283 1.502 . S
C282 C284 1.561 . S
C282 C285 1.526 . S
C283 H267 0.959 . S
C283 H268 0.959 . S
C283 H269 0.961 . S
C283 C282 1.502 . S
C284 H270 0.960 . S
C284 H271 0.961 . S
C284 H272 0.959 . S
C284 C282 1.561 . S
C285 C282 1.526 . S
C285 C286 1.396 . S
C285 C290 1.390 . S
C286 C280 1.465 . S
C286 C285 1.396 . S
C286 C287 1.399 . S
C287 H273 0.929 . S
C287 C286 1.399 . S
C287 C288 1.385 . S
C288 H274 0.931 . S
C288 C287 1.385 . S
C288 C289 1.389 . S
C289 C288 1.389 . S
C289 C290 1.387 . S
C290 H275 0.930 . S
C290 C285 1.390 . S
C290 C289 1.387 . S
H291 C303 0.930 . S
H292 C305 0.930 . S
H293 C306 0.930 . S
H294 C310 0.959 . S
H295 C310 0.959 . S
H296 C310 0.961 . S
H297 C311 0.960 . S
H298 C311 0.961 . S
H299 C311 0.959 . S
H300 C314 0.929 . S
H301 C315 0.931 . S
H302 C317 0.930 . S
C303 H291 0.930 . S
C303 C304 1.399 . S
C303 C308 1.399 . S
C304 C303 1.399 . S
C304 C305 1.376 . S
C305 H292 0.930 . S
C305 C304 1.376 . S
C305 C306 1.388 . S
C306 H293 0.930 . S
C306 C305 1.388 . S
C306 C307 1.390 . S
C307 C306 1.390 . S
C307 C308 1.394 . S
C307 C313 1.465 . S
C308 C303 1.399 . S
C308 C307 1.394 . S
C308 C309 1.516 . S
C309 C308 1.516 . S
C309 C310 1.502 . S
C309 C311 1.561 . S
C309 C312 1.526 . S
C310 H294 0.959 . S
C310 H295 0.959 . S
C310 H296 0.961 . S
C310 C309 1.502 . S
C311 H297 0.960 . S
C311 H298 0.961 . S
C311 H299 0.959 . S
C311 C309 1.561 . S
C312 C309 1.526 . S
C312 C313 1.396 . S
C312 C317 1.390 . S
C313 C307 1.465 . S
C313 C312 1.396 . S
C313 C314 1.399 . S
C314 H300 0.929 . S
C314 C313 1.399 . S
C314 C315 1.385 . S
C315 H301 0.931 . S
C315 C314 1.385 . S
C315 C316 1.389 . S
C316 C315 1.389 . S
C316 C317 1.387 . S
C317 H302 0.930 . S
C317 C312 1.390 . S
C317 C316 1.387 . S
H318 C330 0.930 . S
H319 C332 0.930 . S
H320 C333 0.930 . S
H321 C337 0.959 . S
H322 C337 0.959 . S
H323 C337 0.961 . S
H324 C338 0.960 . S
H325 C338 0.961 . S
H326 C338 0.959 . S
H327 C341 0.929 . S
H328 C342 0.931 1_554 S
H329 C344 0.930 . S
C330 H318 0.930 . S
C330 C331 1.399 . S
C330 C335 1.399 . S
C331 C330 1.399 . S
C331 C332 1.376 . S
C332 H319 0.930 . S
C332 C331 1.376 . S
C332 C333 1.388 . S
C333 H320 0.930 . S
C333 C332 1.388 . S
C333 C334 1.390 . S
C334 C333 1.390 . S
C334 C335 1.394 . S
C334 C340 1.465 . S
C335 C330 1.399 . S
C335 C334 1.394 . S
C335 C336 1.516 . S
C336 C335 1.516 . S
C336 C337 1.502 . S
C336 C338 1.561 . S
C336 C339 1.526 . S
C337 H321 0.959 . S
C337 H322 0.959 . S
C337 H323 0.961 . S
C337 C336 1.502 . S
C338 H324 0.960 . S
C338 H325 0.961 . S
C338 H326 0.959 . S
C338 C336 1.561 . S
C339 C336 1.526 . S
C339 C340 1.396 . S
C339 C344 1.390 . S
C340 C334 1.465 . S
C340 C339 1.396 . S
C340 C341 1.399 . S
C341 H327 0.929 . S
C341 C340 1.399 . S
C341 C342 1.385 . S
C342 H328 0.931 1_556 S
C342 C341 1.385 . S
C342 C343 1.389 . S
C343 C342 1.389 . S
C343 C344 1.387 . S
C344 H329 0.930 . S
C344 C339 1.390 . S
C344 C343 1.387 . S
H345 C357 0.930 . S
H346 C359 0.930 . S
H347 C360 0.930 . S
H348 C364 0.959 . S
H349 C364 0.959 . S
H350 C364 0.961 . S
H351 C365 0.960 . S
H352 C365 0.961 . S
H353 C365 0.959 . S
H354 C368 0.929 . S
H355 C369 0.931 . S
H356 C371 0.930 . S
C357 H345 0.930 . S
C357 C358 1.399 . S
C357 C362 1.399 . S
C358 C357 1.399 . S
C358 C359 1.376 . S
C359 H346 0.930 . S
C359 C358 1.376 . S
C359 C360 1.388 . S
C360 H347 0.930 . S
C360 C359 1.388 . S
C360 C361 1.390 . S
C361 C360 1.390 . S
C361 C362 1.394 . S
C361 C367 1.465 . S
C362 C357 1.399 . S
C362 C361 1.394 . S
C362 C363 1.516 . S
C363 C362 1.516 . S
C363 C364 1.502 . S
C363 C365 1.561 . S
C363 C366 1.526 . S
C364 H348 0.959 . S
C364 H349 0.959 . S
C364 H350 0.961 . S
C364 C363 1.502 . S
C365 H351 0.960 . S
C365 H352 0.961 . S
C365 H353 0.959 . S
C365 C363 1.561 . S
C366 C363 1.526 . S
C366 C367 1.396 . S
C366 C371 1.390 . S
C367 C361 1.465 . S
C367 C366 1.396 . S
C367 C368 1.399 . S
C368 H354 0.929 . S
C368 C367 1.399 . S
C368 C369 1.385 1_554 S
C369 H355 0.931 . S
C369 C368 1.385 1_556 S
C369 C370 1.389 1_556 S
C370 C369 1.389 1_554 S
C370 C371 1.387 . S
C371 H356 0.930 . S
C371 C366 1.390 . S
C371 C370 1.387 . S
H372 C384 0.930 . S
H373 C386 0.930 . S
H374 C387 0.930 . S
H375 C391 0.959 . S
H376 C391 0.959 . S
H377 C391 0.961 . S
H378 C392 0.960 . S
H379 C392 0.961 . S
H380 C392 0.959 . S
H381 C395 0.929 . S
H382 C396 0.931 . S
H383 C398 0.930 . S
C384 H372 0.930 . S
C384 C385 1.399 . S
C384 C389 1.399 . S
C385 C384 1.399 . S
C385 C386 1.376 . S
C386 H373 0.930 . S
C386 C385 1.376 . S
C386 C387 1.388 . S
C387 H374 0.930 . S
C387 C386 1.388 . S
C387 C388 1.390 . S
C388 C387 1.390 . S
C388 C389 1.394 . S
C388 C394 1.465 . S
C389 C384 1.399 . S
C389 C388 1.394 . S
C389 C390 1.516 . S
C390 C389 1.516 . S
C390 C391 1.502 . S
C390 C392 1.561 . S
C390 C393 1.526 . S
C391 H375 0.959 . S
C391 H376 0.959 . S
C391 H377 0.961 . S
C391 C390 1.502 . S
C392 H378 0.960 . S
C392 H379 0.961 . S
C392 H380 0.959 . S
C392 C390 1.561 . S
C393 C390 1.526 . S
C393 C394 1.396 . S
C393 C398 1.390 . S
C394 C388 1.465 . S
C394 C393 1.396 . S
C394 C395 1.399 . S
C395 H381 0.929 . S
C395 C394 1.399 . S
C395 C396 1.385 . S
C396 H382 0.931 . S
C396 C395 1.385 . S
C396 C397 1.389 . S
C397 C396 1.389 . S
C397 C398 1.387 . S
C398 H383 0.930 . S
C398 C393 1.390 . S
C398 C397 1.387 . S
H399 C411 0.930 . S
H400 C413 0.930 . S
H401 C414 0.930 . S
H402 C418 0.959 . S
H403 C418 0.959 . S
H404 C418 0.961 . S
H405 C419 0.960 . S
H406 C419 0.961 . S
H407 C419 0.959 . S
H408 C422 0.929 . S
H409 C423 0.931 . S
H410 C425 0.930 . S
C411 H399 0.930 . S
C411 C412 1.399 . S
C411 C416 1.399 . S
C412 C411 1.399 . S
C412 C413 1.376 . S
C413 H400 0.930 . S
C413 C412 1.376 . S
C413 C414 1.388 . S
C414 H401 0.930 . S
C414 C413 1.388 . S
C414 C415 1.390 1_554 S
C415 C414 1.390 1_556 S
C415 C416 1.394 1_556 S
C415 C421 1.465 . S
C416 C411 1.399 . S
C416 C415 1.394 1_554 S
C416 C417 1.516 1_554 S
C417 C416 1.516 1_556 S
C417 C418 1.502 . S
C417 C419 1.561 . S
C417 C420 1.526 . S
C418 H402 0.959 . S
C418 H403 0.959 . S
C418 H404 0.961 . S
C418 C417 1.502 . S
C419 H405 0.960 . S
C419 H406 0.961 . S
C419 H407 0.959 . S
C419 C417 1.561 . S
C420 C417 1.526 . S
C420 C421 1.396 . S
C420 C425 1.390 . S
C421 C415 1.465 . S
C421 C420 1.396 . S
C421 C422 1.399 . S
C422 H408 0.929 . S
C422 C421 1.399 . S
C422 C423 1.385 . S
C423 H409 0.931 . S
C423 C422 1.385 . S
C423 C424 1.389 . S
C424 C423 1.389 . S
C424 C425 1.387 . S
C425 H410 0.930 . S
C425 C420 1.390 . S
C425 C424 1.387 . S
H426 C438 0.930 . S
H427 C440 0.930 1_556 S
H428 C441 0.930 . S
H429 C445 0.959 . S
H430 C445 0.959 . S
H431 C445 0.961 . S
H432 C446 0.960 . S
H433 C446 0.961 . S
H434 C446 0.959 . S
H435 C449 0.929 . S
H436 C450 0.931 . S
H437 C452 0.930 . S
C438 H426 0.930 . S
C438 C439 1.399 . S
C438 C443 1.399 . S
C439 C438 1.399 . S
C439 C440 1.376 . S
C440 H427 0.930 1_554 S
C440 C439 1.376 . S
C440 C441 1.388 . S
C441 H428 0.930 . S
C441 C440 1.388 . S
C441 C442 1.390 . S
C442 C441 1.390 . S
C442 C443 1.394 . S
C442 C448 1.465 . S
C443 C438 1.399 . S
C443 C442 1.394 . S
C443 C444 1.516 . S
C444 C443 1.516 . S
C444 C445 1.502 . S
C444 C446 1.561 . S
C444 C447 1.526 . S
C445 H429 0.959 . S
C445 H430 0.959 . S
C445 H431 0.961 . S
C445 C444 1.502 . S
C446 H432 0.960 . S
C446 H433 0.961 . S
C446 H434 0.959 . S
C446 C444 1.561 . S
C447 C444 1.526 . S
C447 C448 1.396 . S
C447 C452 1.390 . S
C448 C442 1.465 . S
C448 C447 1.396 . S
C448 C449 1.399 . S
C449 H435 0.929 . S
C449 C448 1.399 . S
C449 C450 1.385 . S
C450 H436 0.931 . S
C450 C449 1.385 . S
C450 C451 1.389 . S
C451 C450 1.389 . S
C451 C452 1.387 . S
C452 H437 0.930 . S
C452 C447 1.390 . S
C452 C451 1.387 . S
H453 C465 0.930 . S
H454 C467 0.930 . S
H455 C468 0.930 . S
H456 C472 0.959 . S
H457 C472 0.959 . S
H458 C472 0.961 . S
H459 C473 0.960 . S
H460 C473 0.961 . S
H461 C473 0.959 . S
H462 C476 0.929 . S
H463 C477 0.931 . S
H464 C479 0.930 . S
C465 H453 0.930 . S
C465 C466 1.399 . S
C465 C470 1.399 . S
C466 C465 1.399 . S
C466 C467 1.376 . S
C467 H454 0.930 . S
C467 C466 1.376 . S
C467 C468 1.388 . S
C468 H455 0.930 . S
C468 C467 1.388 . S
C468 C469 1.390 . S
C469 C468 1.390 . S
C469 C470 1.394 . S
C469 C475 1.465 . S
C470 C465 1.399 . S
C470 C469 1.394 . S
C470 C471 1.516 . S
C471 C470 1.516 . S
C471 C472 1.502 . S
C471 C473 1.561 . S
C471 C474 1.526 . S
C472 H456 0.959 . S
C472 H457 0.959 . S
C472 H458 0.961 . S
C472 C471 1.502 . S
C473 H459 0.960 . S
C473 H460 0.961 . S
C473 H461 0.959 . S
C473 C471 1.561 . S
C474 C471 1.526 . S
C474 C475 1.396 . S
C474 C479 1.390 . S
C475 C469 1.465 . S
C475 C474 1.396 . S
C475 C476 1.399 . S
C476 H462 0.929 . S
C476 C475 1.399 . S
C476 C477 1.385 . S
C477 H463 0.931 . S
C477 C476 1.385 . S
C477 C478 1.389 . S
C478 C477 1.389 . S
C478 C479 1.387 . S
C479 H464 0.930 . S
C479 C474 1.390 . S
C479 C478 1.387 . S
H480 C492 0.930 . S
H481 C494 0.930 1_554 S
H482 C495 0.930 . S
H483 C499 0.959 . S
H484 C499 0.959 . S
H485 C499 0.961 . S
H486 C500 0.960 . S
H487 C500 0.961 . S
H488 C500 0.959 . S
H489 C503 0.929 . S
H490 C504 0.931 . S
H491 C506 0.930 . S
C492 H480 0.930 . S
C492 C493 1.399 . S
C492 C497 1.399 . S
C493 C492 1.399 . S
C493 C494 1.376 . S
C494 H481 0.930 1_556 S
C494 C493 1.376 . S
C494 C495 1.388 . S
C495 H482 0.930 . S
C495 C494 1.388 . S
C495 C496 1.390 . S
C496 C495 1.390 . S
C496 C497 1.394 . S
C496 C502 1.465 . S
C497 C492 1.399 . S
C497 C496 1.394 . S
C497 C498 1.516 . S
C498 C497 1.516 . S
C498 C499 1.502 . S
C498 C500 1.561 . S
C498 C501 1.526 . S
C499 H483 0.959 . S
C499 H484 0.959 . S
C499 H485 0.961 . S
C499 C498 1.502 . S
C500 H486 0.960 . S
C500 H487 0.961 . S
C500 H488 0.959 . S
C500 C498 1.561 . S
C501 C498 1.526 . S
C501 C502 1.396 . S
C501 C506 1.390 . S
C502 C496 1.465 . S
C502 C501 1.396 . S
C502 C503 1.399 . S
C503 H489 0.929 . S
C503 C502 1.399 . S
C503 C504 1.385 . S
C504 H490 0.931 . S
C504 C503 1.385 . S
C504 C505 1.389 . S
C505 C504 1.389 . S
C505 C506 1.387 . S
C506 H491 0.930 . S
C506 C501 1.390 . S
C506 C505 1.387 . S
H507 C519 0.930 . S
H508 C521 0.930 . S
H509 C522 0.930 . S
H510 C526 0.959 . S
H511 C526 0.959 1_556 S
H512 C526 0.961 . S
H513 C527 0.960 . S
H514 C527 0.961 1_556 S
H515 C527 0.959 . S
H516 C530 0.929 . S
H517 C531 0.931 . S
H518 C533 0.930 . S
C519 H507 0.930 . S
C519 C520 1.399 . S
C519 C524 1.399 . S
C520 C519 1.399 . S
C520 C521 1.376 . S
C521 H508 0.930 . S
C521 C520 1.376 . S
C521 C522 1.388 . S
C522 H509 0.930 . S
C522 C521 1.388 . S
C522 C523 1.390 . S
C523 C522 1.390 . S
C523 C524 1.394 . S
C523 C529 1.465 . S
C524 C519 1.399 . S
C524 C523 1.394 . S
C524 C525 1.516 . S
C525 C524 1.516 . S
C525 C526 1.502 . S
C525 C527 1.561 . S
C525 C528 1.526 1_554 S
C526 H510 0.959 . S
C526 H511 0.959 1_554 S
C526 H512 0.961 . S
C526 C525 1.502 . S
C527 H513 0.960 . S
C527 H514 0.961 1_554 S
C527 H515 0.959 . S
C527 C525 1.561 . S
C528 C525 1.526 1_556 S
C528 C529 1.396 1_556 S
C528 C533 1.390 . S
C529 C523 1.465 . S
C529 C528 1.396 1_554 S
C529 C530 1.399 1_554 S
C530 H516 0.929 . S
C530 C529 1.399 1_556 S
C530 C531 1.385 . S
C531 H517 0.931 . S
C531 C530 1.385 . S
C531 C532 1.389 . S
C532 C531 1.389 . S
C532 C533 1.387 . S
C533 H518 0.930 . S
C533 C528 1.390 . S
C533 C532 1.387 . S
H534 C546 0.930 . S
H535 C548 0.930 . S
H536 C549 0.930 . S
H537 C553 0.959 . S
H538 C553 0.959 . S
H539 C553 0.961 . S
H540 C554 0.960 . S
H541 C554 0.961 . S
H542 C554 0.959 . S
H543 C557 0.929 . S
H544 C558 0.931 . S
H545 C560 0.930 . S
C546 H534 0.930 . S
C546 C547 1.399 . S
C546 C551 1.399 . S
C547 C546 1.399 . S
C547 C548 1.376 . S
C548 H535 0.930 . S
C548 C547 1.376 . S
C548 C549 1.388 . S
C549 H536 0.930 . S
C549 C548 1.388 . S
C549 C550 1.390 . S
C550 C549 1.390 . S
C550 C551 1.394 . S
C550 C556 1.465 . S
C551 C546 1.399 . S
C551 C550 1.394 . S
C551 C552 1.516 . S
C552 C551 1.516 . S
C552 C553 1.502 . S
C552 C554 1.561 . S
C552 C555 1.526 . S
C553 H537 0.959 . S
C553 H538 0.959 . S
C553 H539 0.961 . S
C553 C552 1.502 . S
C554 H540 0.960 . S
C554 H541 0.961 . S
C554 H542 0.959 . S
C554 C552 1.561 . S
C555 C552 1.526 . S
C555 C556 1.396 . S
C555 C560 1.390 . S
C556 C550 1.465 . S
C556 C555 1.396 . S
C556 C557 1.399 . S
C557 H543 0.929 . S
C557 C556 1.399 . S
C557 C558 1.385 . S
C558 H544 0.931 . S
C558 C557 1.385 . S
C558 C559 1.389 . S
C559 C558 1.389 . S
C559 C560 1.387 . S
C560 H545 0.930 . S
C560 C555 1.390 . S
C560 C559 1.387 . S
H561 C573 0.930 . S
H562 C575 0.930 . S
H563 C576 0.930 . S
H564 C580 0.959 . S
H565 C580 0.959 . S
H566 C580 0.961 . S
H567 C581 0.960 . S
H568 C581 0.961 . S
H569 C581 0.959 . S
H570 C584 0.929 . S
H571 C585 0.931 . S
H572 C587 0.930 . S
C573 H561 0.930 . S
C573 C574 1.399 . S
C573 C578 1.399 . S
C574 C573 1.399 . S
C574 C575 1.376 . S
C575 H562 0.930 . S
C575 C574 1.376 . S
C575 C576 1.388 . S
C576 H563 0.930 . S
C576 C575 1.388 . S
C576 C577 1.390 . S
C577 C576 1.390 . S
C577 C578 1.394 . S
C577 C583 1.465 . S
C578 C573 1.399 . S
C578 C577 1.394 . S
C578 C579 1.516 . S
C579 C578 1.516 . S
C579 C580 1.502 . S
C579 C581 1.561 . S
C579 C582 1.526 . S
C580 H564 0.959 . S
C580 H565 0.959 . S
C580 H566 0.961 . S
C580 C579 1.502 . S
C581 H567 0.960 . S
C581 H568 0.961 . S
C581 H569 0.959 . S
C581 C579 1.561 . S
C582 C579 1.526 . S
C582 C583 1.396 . S
C582 C587 1.390 . S
C583 C577 1.465 . S
C583 C582 1.396 . S
C583 C584 1.399 . S
C584 H570 0.929 . S
C584 C583 1.399 . S
C584 C585 1.385 . S
C585 H571 0.931 . S
C585 C584 1.385 . S
C585 C586 1.389 . S
C586 C585 1.389 . S
C586 C587 1.387 . S
C587 H572 0.930 . S
C587 C582 1.390 . S
C587 C586 1.387 . S
H588 C600 0.930 . S
H589 C602 0.930 . S
H590 C603 0.930 . S
H591 C607 0.959 . S
H592 C607 0.959 . S
H593 C607 0.961 . S
H594 C608 0.960 . S
H595 C608 0.964 . S
H596 C608 0.959 . S
H597 C611 0.929 . S
H598 C612 0.931 . S
H599 C614 0.930 . S
C600 H588 0.930 . S
C600 C601 1.399 . S
C600 C605 1.399 . S
C601 C600 1.399 . S
C601 C602 1.376 . S
C602 H589 0.930 . S
C602 C601 1.376 . S
C602 C603 1.388 . S
C603 H590 0.930 . S
C603 C602 1.388 . S
C603 C604 1.390 . S
C604 C603 1.390 . S
C604 C605 1.394 . S
C604 C610 1.465 1_454 S
C605 C600 1.399 . S
C605 C604 1.394 . S
C605 C606 1.496 1_455 S
C606 C605 1.496 1_655 S
C606 C607 1.516 . S
C606 C608 1.548 1_654 S
C606 C609 1.545 1_554 S
C607 H591 0.959 . S
C607 H592 0.959 . S
C607 H593 0.961 . S
C607 C606 1.516 . S
C608 H594 0.960 . S
C608 H595 0.964 . S
C608 H596 0.959 . S
C608 C606 1.548 1_456 S
C609 C606 1.545 1_556 S
C609 C610 1.396 . S
C609 C614 1.390 . S
C610 C604 1.465 1_656 S
C610 C609 1.396 . S
C610 C611 1.399 . S
C611 H597 0.929 . S
C611 C610 1.399 . S
C611 C612 1.385 . S
C612 H598 0.931 . S
C612 C611 1.385 . S
C612 C613 1.389 . S
C613 C612 1.389 . S
C613 C614 1.387 . S
C614 H599 0.930 . S
C614 C609 1.390 . S
C614 C613 1.387 . S
H615 C627 0.930 . S
H616 C629 0.930 . S
H617 C630 0.930 . S
H618 C634 0.959 . S
H619 C634 0.959 . S
H620 C634 0.961 . S
H621 C635 0.960 . S
H622 C635 0.961 . S
H623 C635 0.959 . S
H624 C638 0.929 1_565 S
H625 C639 0.931 . S
H626 C641 0.930 . S
C627 H615 0.930 . S
C627 C628 1.399 . S
C627 C632 1.399 . S
C628 C627 1.399 . S
C628 C629 1.376 . S
C629 H616 0.930 . S
C629 C628 1.376 . S
C629 C630 1.388 . S
C630 H617 0.930 . S
C630 C629 1.388 . S
C630 C631 1.390 . S
C631 C630 1.390 . S
C631 C632 1.394 . S
C631 C637 1.465 1_565 S
C632 C627 1.399 . S
C632 C631 1.394 . S
C632 C633 1.516 1_565 S
C633 C632 1.516 1_545 S
C633 C634 1.502 . S
C633 C635 1.561 . S
C633 C636 1.526 . S
C634 H618 0.959 . S
C634 H619 0.959 . S
C634 H620 0.961 . S
C634 C633 1.502 . S
C635 H621 0.960 . S
C635 H622 0.961 . S
C635 H623 0.959 . S
C635 C633 1.561 . S
C636 C633 1.526 . S
C636 C637 1.396 . S
C636 C641 1.390 . S
C637 C631 1.465 1_545 S
C637 C636 1.396 . S
C637 C638 1.399 . S
C638 H624 0.929 1_545 S
C638 C637 1.399 . S
C638 C639 1.385 . S
C639 H625 0.931 . S
C639 C638 1.385 . S
C639 C640 1.389 . S
C640 C639 1.389 . S
C640 C641 1.387 . S
C641 H626 0.930 . S
C641 C636 1.390 . S
C641 C640 1.387 . S
H642 C654 0.930 . S
H643 C656 0.930 . S
H644 C657 0.930 . S
H645 C661 0.959 . S
H646 C661 0.959 . S
H647 C661 0.961 . S
H648 C662 0.960 1_455 S
H649 C662 0.961 . S
H650 C662 0.959 . S
H651 C665 0.929 . S
H652 C666 0.931 . S
H653 C668 0.930 . S
C654 H642 0.930 . S
C654 C655 1.399 . S
C654 C659 1.399 . S
C655 C654 1.399 . S
C655 C656 1.376 . S
C656 H643 0.930 . S
C656 C655 1.376 . S
C656 C657 1.388 . S
C657 H644 0.930 . S
C657 C656 1.388 . S
C657 C658 1.390 . S
C658 C657 1.390 . S
C658 C659 1.394 . S
C658 C664 1.465 1_455 S
C659 C654 1.399 . S
C659 C658 1.394 . S
C659 C660 1.516 . S
C660 C659 1.516 . S
C660 C661 1.502 . S
C660 C662 1.561 1_455 S
C660 C663 1.526 1_455 S
C661 H645 0.959 . S
C661 H646 0.959 . S
C661 H647 0.961 . S
C661 C660 1.502 . S
C662 H648 0.960 1_655 S
C662 H649 0.961 . S
C662 H650 0.959 . S
C662 C660 1.561 1_655 S
C663 C660 1.526 1_655 S
C663 C664 1.396 . S
C663 C668 1.390 . S
C664 C658 1.465 1_655 S
C664 C663 1.396 . S
C664 C665 1.399 . S
C665 H651 0.929 . S
C665 C664 1.399 . S
C665 C666 1.385 . S
C666 H652 0.931 . S
C666 C665 1.385 . S
C666 C667 1.389 . S
C667 C666 1.389 . S
C667 C668 1.387 . S
C668 H653 0.930 . S
C668 C663 1.390 . S
C668 C667 1.387 . S
H669 C681 0.930 . S
H670 C683 0.930 . S
H671 C684 0.930 . S
H672 C688 0.959 . S
H673 C688 0.959 . S
H674 C688 0.961 . S
H675 C689 0.960 . S
H676 C689 0.961 . S
H677 C689 0.959 . S
H678 C692 0.929 1_565 S
H679 C693 0.931 . S
H680 C695 0.930 . S
C681 H669 0.930 . S
C681 C682 1.399 . S
C681 C686 1.399 . S
C682 C681 1.399 . S
C682 C683 1.376 . S
C683 H670 0.930 . S
C683 C682 1.376 . S
C683 C684 1.388 . S
C684 H671 0.930 . S
C684 C683 1.388 . S
C684 C685 1.390 . S
C685 C684 1.390 . S
C685 C686 1.394 . S
C685 C691 1.465 1_565 S
C686 C681 1.399 . S
C686 C685 1.394 . S
C686 C687 1.516 1_565 S
C687 C686 1.516 1_545 S
C687 C688 1.502 . S
C687 C689 1.561 . S
C687 C690 1.526 . S
C688 H672 0.959 . S
C688 H673 0.959 . S
C688 H674 0.961 . S
C688 C687 1.502 . S
C689 H675 0.960 . S
C689 H676 0.961 . S
C689 H677 0.959 . S
C689 C687 1.561 . S
C690 C687 1.526 . S
C690 C691 1.396 . S
C690 C695 1.390 . S
C691 C685 1.465 1_545 S
C691 C690 1.396 . S
C691 C692 1.399 . S
C692 H678 0.929 1_545 S
C692 C691 1.399 . S
C692 C693 1.385 . S
C693 H679 0.931 . S
C693 C692 1.385 . S
C693 C694 1.389 . S
C694 C693 1.389 . S
C694 C695 1.387 . S
C695 H680 0.930 . S
C695 C690 1.390 . S
C695 C694 1.387 . S
H696 C708 0.930 . S
H697 C710 0.930 . S
H698 C711 0.930 . S
H699 C715 0.959 . S
H700 C715 0.959 . S
H701 C715 0.961 . S
H702 C716 0.960 . S
H703 C716 0.961 . S
H704 C716 0.959 . S
H705 C719 0.929 . S
H706 C720 0.931 . S
H707 C722 0.930 . S
C708 H696 0.930 . S
C708 C709 1.399 . S
C708 C713 1.399 . S
C709 C708 1.399 . S
C709 C710 1.376 . S
C710 H697 0.930 . S
C710 C709 1.376 . S
C710 C711 1.388 . S
C711 H698 0.930 . S
C711 C710 1.388 . S
C711 C712 1.390 . S
C712 C711 1.390 . S
C712 C713 1.394 . S
C712 C718 1.465 . S
C713 C708 1.399 . S
C713 C712 1.394 . S
C713 C714 1.516 . S
C714 C713 1.516 . S
C714 C715 1.502 . S
C714 C716 1.561 . S
C714 C717 1.526 . S
C715 H699 0.959 . S
C715 H700 0.959 . S
C715 H701 0.961 . S
C715 C714 1.502 . S
C716 H702 0.960 . S
C716 H703 0.961 . S
C716 H704 0.959 . S
C716 C714 1.561 . S
C717 C714 1.526 . S
C717 C718 1.396 . S
C717 C722 1.390 . S
C718 C712 1.465 . S
C718 C717 1.396 . S
C718 C719 1.399 . S
C719 H705 0.929 . S
C719 C718 1.399 . S
C719 C720 1.385 . S
C720 H706 0.931 . S
C720 C719 1.385 . S
C720 C721 1.389 . S
C721 C720 1.389 . S
C721 C722 1.387 . S
C722 H707 0.930 . S
C722 C717 1.390 . S
C722 C721 1.387 . S
H723 C735 0.930 . S
H724 C737 0.930 . S
H725 C738 0.930 . S
H726 C742 0.959 . S
H727 C742 0.959 . S
H728 C742 0.961 . S
H729 C743 0.960 . S
H730 C743 0.961 . S
H731 C743 0.959 . S
H732 C746 0.929 . S
H733 C747 0.931 . S
H734 C749 0.930 . S
C735 H723 0.930 . S
C735 C736 1.399 . S
C735 C740 1.399 . S
C736 C735 1.399 . S
C736 C737 1.376 . S
C737 H724 0.930 . S
C737 C736 1.376 . S
C737 C738 1.388 . S
C738 H725 0.930 . S
C738 C737 1.388 . S
C738 C739 1.390 . S
C739 C738 1.390 . S
C739 C740 1.394 . S
C739 C745 1.465 . S
C740 C735 1.399 . S
C740 C739 1.394 . S
C740 C741 1.516 . S
C741 C740 1.516 . S
C741 C742 1.502 . S
C741 C743 1.561 . S
C741 C744 1.526 . S
C742 H726 0.959 . S
C742 H727 0.959 . S
C742 H728 0.961 . S
C742 C741 1.502 . S
C743 H729 0.960 . S
C743 H730 0.961 . S
C743 H731 0.959 . S
C743 C741 1.561 . S
C744 C741 1.526 . S
C744 C745 1.396 . S
C744 C749 1.390 . S
C745 C739 1.465 . S
C745 C744 1.396 . S
C745 C746 1.399 . S
C746 H732 0.929 . S
C746 C745 1.399 . S
C746 C747 1.385 . S
C747 H733 0.931 . S
C747 C746 1.385 . S
C747 C748 1.389 . S
C748 C747 1.389 . S
C748 C749 1.387 . S
C749 H734 0.930 . S
C749 C744 1.390 . S
C749 C748 1.387 . S
H750 C762 0.930 . S
H751 C764 0.930 . S
H752 C765 0.930 . S
H753 C769 0.959 . S
H754 C769 0.959 . S
H755 C769 0.961 . S
H756 C770 0.960 . S
H757 C770 0.961 . S
H758 C770 0.959 . S
H759 C773 0.929 . S
H760 C774 0.931 . S
H761 C776 0.930 . S
C762 H750 0.930 . S
C762 C763 1.399 . S
C762 C767 1.399 . S
C763 C762 1.399 . S
C763 C764 1.376 . S
C764 H751 0.930 . S
C764 C763 1.376 . S
C764 C765 1.388 . S
C765 H752 0.930 . S
C765 C764 1.388 . S
C765 C766 1.390 . S
C766 C765 1.390 . S
C766 C767 1.394 . S
C766 C772 1.465 . S
C767 C762 1.399 . S
C767 C766 1.394 . S
C767 C768 1.516 . S
C768 C767 1.516 . S
C768 C769 1.502 . S
C768 C770 1.561 . S
C768 C771 1.526 . S
C769 H753 0.959 . S
C769 H754 0.959 . S
C769 H755 0.961 . S
C769 C768 1.502 . S
C770 H756 0.960 . S
C770 H757 0.961 . S
C770 H758 0.959 . S
C770 C768 1.561 . S
C771 C768 1.526 . S
C771 C772 1.396 . S
C771 C776 1.390 . S
C772 C766 1.465 . S
C772 C771 1.396 . S
C772 C773 1.399 . S
C773 H759 0.929 . S
C773 C772 1.399 . S
C773 C774 1.385 . S
C774 H760 0.931 . S
C774 C773 1.385 . S
C774 C775 1.389 . S
C775 C774 1.389 . S
C775 C776 1.387 . S
C776 H761 0.930 . S
C776 C771 1.390 . S
C776 C775 1.387 . S
H777 C789 0.930 1_556 S
H778 C791 0.930 . S
H779 C792 0.930 . S
H780 C796 0.959 . S
H781 C796 0.959 . S
H782 C796 0.961 . S
H783 C797 0.960 . S
H784 C797 0.961 . S
H785 C797 0.959 . S
H786 C800 0.929 . S
H787 C801 0.931 . S
H788 C803 0.930 . S
C789 H777 0.930 1_554 S
C789 C790 1.399 . S
C789 C794 1.399 . S
C790 C789 1.399 . S
C790 C791 1.376 . S
C791 H778 0.930 . S
C791 C790 1.376 . S
C791 C792 1.388 . S
C792 H779 0.930 . S
C792 C791 1.388 . S
C792 C793 1.390 . S
C793 C792 1.390 . S
C793 C794 1.394 . S
C793 C799 1.465 . S
C794 C789 1.399 . S
C794 C793 1.394 . S
C794 C795 1.516 1_554 S
C795 C794 1.516 1_556 S
C795 C796 1.502 . S
C795 C797 1.561 1_556 S
C795 C798 1.526 . S
C796 H780 0.959 . S
C796 H781 0.959 . S
C796 H782 0.961 . S
C796 C795 1.502 . S
C797 H783 0.960 . S
C797 H784 0.961 . S
C797 H785 0.959 . S
C797 C795 1.561 1_554 S
C798 C795 1.526 . S
C798 C799 1.396 1_556 S
C798 C803 1.390 . S
C799 C793 1.465 . S
C799 C798 1.396 1_554 S
C799 C800 1.399 . S
C800 H786 0.929 . S
C800 C799 1.399 . S
C800 C801 1.385 . S
C801 H787 0.931 . S
C801 C800 1.385 . S
C801 C802 1.389 1_554 S
C802 C801 1.389 1_556 S
C802 C803 1.387 . S
C803 H788 0.930 . S
C803 C798 1.390 . S
C803 C802 1.387 . S
C277 C193 1.184 . S
C289 C28 1.219 . S
C304 C226 1.190 . S
C316 C61 1.216 . S
C331 C94 1.175 . S
C343 C259 1.202 1_556 S
C358 C160 1.199 . S
C370 C127 1.209 1_554 S
C385 N5 1.174 . S
C397 N14 1.152 . S
C412 N47 1.177 . S
C424 N38 1.157 . S
C439 N71 1.174 1_554 S
C451 N80 1.152 . S
C466 N104 1.163 . S
C478 N113 1.169 . S
C493 N137 1.174 1_556 S
C505 N146 1.152 . S
C520 N170 1.169 . S
C532 N179 1.159 . S
C547 N203 1.158 . S
C559 N212 1.176 . S
C574 N245 1.177 . S
C586 N236 1.157 . S
C601 C8 1.346 . S
C613 C206 1.365 . S
C628 C239 1.301 . S
C640 C41 1.333 . S
C655 C140 1.334 . S
C667 C74 1.302 . S
C682 C107 1.303 . S
C694 C173 1.347 . S
C709 C17 1.573 . S
C721 C149 1.557 . S
C736 C50 1.573 . S
C748 C182 1.552 . S
C763 C83 1.568 . S
C775 C215 1.543 . S
C790 C248 1.550 . S
C802 C116 1.538 . S
