# Generated by pormake.
# Topology uon, (4)-cn, num edge types: 1
# Building blocks:
#     Node 0, Type 0, BuildingBlock: ESEHIV_clean_sbu_0, # of connection points: 4
#     Node 1, Type 0, BuildingBlock: ESEHIV_clean_sbu_0, # of connection points: 4
#     Node 2, Type 0, BuildingBlock: ESEHIV_clean_sbu_0, # of connection points: 4
#     Node 3, Type 0, BuildingBlock: ESEHIV_clean_sbu_0, # of connection points: 4
#     Node 4, Type 0, BuildingBlock: ESEHIV_clean_sbu_0, # of connection points: 4
#     Node 5, Type 0, BuildingBlock: ESEHIV_clean_sbu_0, # of connection points: 4
#     Edge 6, Type (0, 0), BuildingBlock: UVAHIK_clean_linker_0, # of connection points: 2
#     Edge 7, Type (0, 0), BuildingBlock: UVAHIK_clean_linker_0, # of connection points: 2
#     Edge 8, Type (0, 0), BuildingBlock: UVAHIK_clean_linker_0, # of connection points: 2
#     Edge 9, Type (0, 0), BuildingBlock: UVAHIK_clean_linker_0, # of connection points: 2
#     Edge 10, Type (0, 0), BuildingBlock: UVAHIK_clean_linker_0, # of connection points: 2
#     Edge 11, Type (0, 0), BuildingBlock: UVAHIK_clean_linker_0, # of connection points: 2
#     Edge 12, Type (0, 0), BuildingBlock: UVAHIK_clean_linker_0, # of connection points: 2
#     Edge 13, Type (0, 0), BuildingBlock: UVAHIK_clean_linker_0, # of connection points: 2
#     Edge 14, Type (0, 0), BuildingBlock: UVAHIK_clean_linker_0, # of connection points: 2
#     Edge 15, Type (0, 0), BuildingBlock: UVAHIK_clean_linker_0, # of connection points: 2
#     Edge 16, Type (0, 0), BuildingBlock: UVAHIK_clean_linker_0, # of connection points: 2
#     Edge 17, Type (0, 0), BuildingBlock: UVAHIK_clean_linker_0, # of connection points: 2
# Relax obj value: 0.074
# Max RMSD: 0.073
# Mean RMSD: 0.073
data_MOF--net-uon--node1-ESEHIV_clean_sbu_0--edge1-UVAHIK_clean_linker_0
_symmetry_space_group_name_H-M    P1
_symmetry_Int_Tables_number       1
_symmetry_cell_setting            triclinic
loop_
_symmetry_equiv_pos_as_xyz
'x, y, z'
_cell_length_a     43.997497
_cell_length_b     43.956087
_cell_length_c     34.710083
_cell_angle_alpha  89.922255
_cell_angle_beta   90.246496
_cell_angle_gamma 119.95282
loop_
_atom_site_label
_atom_site_type_symbol
_atom_site_fract_x
_atom_site_fract_y
_atom_site_fract_z
_atom_type_partial_charge
Cu0 Cu 0.22898 0.43152 1.02159 0.0
N1 N 0.27732 0.46123 0.02598 0.0
N2 N 0.33081 0.50081 1.00535 0.0
C3 C 0.29845 0.47505 0.99529 0.0
C4 C 0.3301 0.50297 0.04415 0.0
C5 C 0.29701 0.47842 0.05683 0.0
O6 O 0.22299 0.40749 0.97252 0.0
C7 C 0.2215 0.49264 0.02439 0.0
O8 O 0.25255 0.50924 1.00822 0.0
H9 H 0.28924 0.46842 0.96586 0.0
H10 H 0.28738 0.47491 0.08605 0.0
N11 N 0.21072 0.39877 0.06139 0.0
N12 N 0.16945 0.35963 0.10057 0.0
C13 C 0.17717 0.38399 0.07292 0.0
C14 C 0.22513 0.38361 0.08268 0.0
C15 C 0.19968 0.35945 0.10706 0.0
C16 C 0.2069 0.37418 0.96894 0.0
O17 O 0.18583 0.35459 0.99648 0.0
H18 H 0.15874 0.39095 0.06086 0.0
H19 H 0.25195 0.38924 0.08014 0.0
O20 O 0.2059 0.45933 0.02742 0.0
H21 H 0.3514 0.52198 0.06192 0.0
H22 H 0.20297 0.34249 0.1272 0.0
Cu23 Cu 0.80415 0.21485 0.3596 0.0
N24 N 0.82169 0.26327 0.3614 0.0
N25 N 0.83677 0.31657 0.33847 0.0
C26 C 0.82909 0.28354 0.32982 0.0
C27 C 0.83448 0.3171 0.37728 0.0
C28 C 0.82518 0.28415 0.39135 0.0
O29 O 0.82892 0.20717 0.31759 0.0
C30 C 0.7352 0.20577 0.35495 0.0
O31 O 0.75033 0.23853 0.34331 0.0
H32 H 0.82653 0.27346 0.30084 0.0
H33 H 0.81982 0.27564 0.42103 0.0
N34 N 0.81196 0.19655 0.40478 0.0
N35 N 0.80414 0.15466 0.44677 0.0
C36 C 0.79374 0.16212 0.41323 0.0
C37 C 0.83468 0.21169 0.43419 0.0
C38 C 0.83008 0.18576 0.46009 0.0
C39 C 0.86111 0.21772 0.32493 0.0
O40 O 0.87351 0.23082 0.35916 0.0
H41 H 0.7736 0.14277 0.39457 0.0
H42 H 0.85345 0.23944 0.43644 0.0
O43 O 0.75309 0.19027 0.35652 0.0
H44 H 0.83826 0.33936 0.39427 0.0
H45 H 0.84445 0.18952 0.4867 0.0
Cu46 Cu 0.61155 0.8058 0.68731 0.0
N47 N 0.59502 0.83724 0.68107 0.0
N48 N 0.56186 0.85418 0.64833 0.0
C49 C 0.56364 0.8271 0.66457 0.0
C50 C 0.5934 0.88273 0.65584 0.0
C51 C 0.61387 0.87215 0.67559 0.0
O52 O 0.62778 0.80456 0.63561 0.0
C53 C 0.56345 0.766 0.74076 0.0
O54 O 0.57801 0.79791 0.75512 0.0
H55 H 0.5439 0.79976 0.66139 0.0
H56 H 0.64167 0.88811 0.68126 0.0
N57 N 0.64845 0.81981 0.72265 0.0
N58 N 0.68634 0.81334 0.7603 0.0
C59 C 0.65822 0.7974 0.73665 0.0
C60 C 0.67093 0.85122 0.73819 0.0
C61 C 0.69442 0.84732 0.76139 0.0
C62 C 0.66046 0.81897 0.6285 0.0
O63 O 0.68133 0.8179 0.65493 0.0
H64 H 0.64548 0.77006 0.72828 0.0
H65 H 0.6706 0.87527 0.7328 0.0
O66 O 0.57342 0.76199 0.70765 0.0
H67 H 0.60244 0.90879 0.64451 0.0
H68 H 0.71572 0.86796 0.77772 0.0
Cu69 Cu 0.81932 0.60325 1.02275 0.0
N70 N 0.77094 0.58422 1.01642 0.0
N71 N 0.72146 0.55133 0.98263 0.0
C72 C 0.75168 0.55434 0.99634 0.0
C73 C 0.72151 0.58039 0.99541 0.0
C74 C 0.75219 0.60077 1.01579 0.0
O75 O 0.83621 0.62128 0.97121 0.0
C76 C 0.81379 0.55518 0.07507 0.0
O77 O 0.79499 0.56794 0.08982 0.0
H78 H 0.76143 0.53686 0.98907 0.0
H79 H 0.76171 0.62738 0.02546 0.0
N80 N 0.84059 0.63951 0.05916 0.0
N81 N 0.88376 0.67815 0.09755 0.0
C82 C 0.87381 0.65205 0.07146 0.0
C83 C 0.82868 0.65795 0.07846 0.0
C84 C 0.85529 0.6819 0.10206 0.0
C85 C 0.85342 0.65413 0.9642 0.0
O86 O 0.87238 0.67579 0.99178 0.0
H87 H 0.89055 0.64258 0.06048 0.0
H88 H 0.80259 0.65428 0.07583 0.0
O89 O 0.82745 0.56616 0.04199 0.0
H90 H 0.70256 0.58816 0.98744 0.0
H91 H 0.85356 0.70032 0.12128 0.0
Cu92 Cu 0.23606 0.80939 0.35039 0.0
N93 N 0.21017 0.76075 0.34273 0.0
N94 N 0.19198 0.71086 0.30941 0.0
C95 C 0.21546 0.74555 0.31184 0.0
C96 C 0.17115 0.70398 0.34055 0.0
C97 C 0.18235 0.73483 0.36098 0.0
O98 O 0.22659 0.8268 0.30268 0.0
C99 C 0.28957 0.80251 0.38327 0.0
O100 O 0.26209 0.77327 0.39475 0.0
H101 H 0.23615 0.76017 0.29133 0.0
H102 H 0.17054 0.73816 0.38668 0.0
N103 N 0.22274 0.82628 0.39274 0.0
N104 N 0.22855 0.86682 0.43586 0.0
C105 C 0.24443 0.85781 0.40857 0.0
C106 C 0.19182 0.81449 0.41066 0.0
C107 C 0.19534 0.83943 0.43736 0.0
C108 C 0.2096 0.84329 0.30168 0.0
O109 O 0.20799 0.85925 0.33289 0.0
H110 H 0.2709 0.8746 0.39842 0.0
H111 H 0.16806 0.79031 0.40379 0.0
O112 O 0.28496 0.82287 0.3608 0.0
H113 H 0.14874 0.67877 0.34759 0.0
H114 H 0.17476 0.8377 0.45575 0.0
Cu115 Cu 0.44565 0.22482 0.68821 0.0
N116 N 0.46917 0.19965 0.68155 0.0
N117 N 0.49895 0.17973 0.64767 0.0
C118 C 0.48735 0.20294 0.64927 0.0
C119 C 0.48773 0.16122 0.68083 0.0
C120 C 0.46922 0.17348 0.7016 0.0
O121 O 0.41794 0.21322 0.64086 0.0
C122 C 0.50802 0.28259 0.7146 0.0
O123 O 0.51517 0.2577 0.72299 0.0
H124 H 0.49135 0.22189 0.62714 0.0
H125 H 0.45598 0.16334 0.72872 0.0
N126 N 0.41621 0.21181 0.73103 0.0
N127 N 0.38178 0.21763 0.77424 0.0
C128 C 0.40621 0.23343 0.74658 0.0
C129 C 0.39763 0.18102 0.74955 0.0
C130 C 0.37634 0.18455 0.77629 0.0
C131 C 0.38464 0.19389 0.64038 0.0
O132 O 0.36689 0.19105 0.67178 0.0
H133 H 0.41539 0.25976 0.73601 0.0
H134 H 0.39833 0.15734 0.74298 0.0
O135 O 0.47971 0.2746 0.69644 0.0
H136 H 0.4915 0.13958 0.68904 0.0
H137 H 0.3578 0.16409 0.7951 0.0
C138 C 0.24934 0.37865 0.91805 0.0
C139 C 0.21889 0.35784 0.93971 0.0
C140 C 0.26497 0.36313 0.89676 0.0
C141 C 0.25179 0.27921 0.85642 0.0
H142 H 0.35189 0.32154 0.87408 0.0
C143 C 0.32972 0.21104 0.80946 0.0
C144 C 0.36345 0.23255 0.79422 0.0
C145 C 0.31129 0.22586 0.82657 0.0
C146 C 0.32405 0.30958 0.86831 0.0
H147 H 0.17966 0.30423 0.95358 0.0
H148 H 0.20677 0.27724 0.91616 0.0
H149 H 0.32032 0.34867 0.90128 0.0
H150 H 0.40456 0.28668 0.7865 0.0
H151 H 0.3723 0.31231 0.81498 0.0
H152 H 0.25558 0.24019 0.82322 0.0
C153 C 0.21865 0.30555 0.9158 0.0
C154 C 0.30592 0.32521 0.88393 0.0
C155 C 0.20312 0.32107 0.93732 0.0
C156 C 0.37848 0.2692 0.7973 0.0
C157 C 0.36006 0.28397 0.81417 0.0
C158 C 0.27 0.26367 0.84051 0.0
C159 C 0.2504 0.32645 0.89635 0.0
C160 C 0.26958 0.31026 0.87819 0.0
C161 C 0.32612 0.26256 0.82888 0.0
C162 C 0.30641 0.27865 0.84625 0.0
H163 H 0.26222 0.40704 0.91912 0.0
H164 H 0.28908 0.37994 0.88149 0.0
H165 H 0.22383 0.26714 0.8513 0.0
H166 H 0.31715 0.18276 0.80747 0.0
H167 H 0.28543 0.2085 0.83807 0.0
C168 C 0.91744 0.22124 0.30735 0.0
C169 C 0.88595 0.21924 0.29535 0.0
C170 C 0.94422 0.22887 0.28113 0.0
C171 C 0.97918 0.27635 0.19084 0.0
H172 H 0.04367 0.24073 0.20085 0.0
C173 C 0.10464 0.33082 0.09881 0.0
C174 C 0.13566 0.33808 0.11835 0.0
C175 C 0.07196 0.31148 0.1165 0.0
C176 C 0.02602 0.25107 0.19782 0.0
H177 H 0.85708 0.22193 0.24604 0.0
H178 H 0.90418 0.23532 0.19973 0.0
H179 H 0.98896 0.2133 0.23712 0.0
H180 H 0.15633 0.32991 0.17168 0.0
H181 H 0.09927 0.29619 0.20271 0.0
H182 H 1.01658 0.31467 0.15231 0.0
C183 C 0.90811 0.23115 0.22967 0.0
C184 C 0.99459 0.23528 0.21851 0.0
C185 C 0.88102 0.22316 0.25604 0.0
C186 C 0.13302 0.32462 0.15571 0.0
C187 C 0.10026 0.30522 0.17345 0.0
C188 C 1.01058 0.29211 0.17011 0.0
C189 C 0.94036 0.23493 0.24214 0.0
C190 C 0.97112 0.2482 0.21592 0.0
C191 C 0.06935 0.29877 0.15421 0.0
C192 C 0.03472 0.28012 0.17392 0.0
H193 H 0.92198 0.21823 0.33746 0.0
H194 H 0.96872 0.23191 0.29193 0.0
H195 H 0.96203 0.28735 0.18858 0.0
H196 H 0.10551 0.33999 0.06968 0.0
H197 H 0.04868 0.30645 0.10057 0.0
C198 C 0.81238 0.11159 0.48483 0.0
C199 C 0.79049 0.12033 0.46377 0.0
C200 C 0.79935 0.07762 0.4995 0.0
C201 C 0.72431 0.98594 0.48883 0.0
H202 H 0.75691 0.97261 0.5879 0.0
C203 C 0.65453 0.85721 0.57848 0.0
C204 C 0.67585 0.84729 0.5991 0.0
C205 C 0.66954 0.88865 0.55758 0.0
C206 C 0.74787 0.97584 0.55993 0.0
H207 H 0.73747 0.10071 0.44285 0.0
H208 H 0.71447 0.04194 0.46918 0.0
H209 H 0.78074 0.03164 0.56203 0.0
H210 H 0.72977 0.86148 0.61127 0.0
H211 H 0.75576 0.91608 0.57476 0.0
H212 H 0.69058 0.93001 0.48757 0.0
C213 C 0.74201 0.0608 0.47337 0.0
C214 C 0.76158 1.00975 0.54502 0.0
C215 C 0.75514 0.09459 0.4584 0.0
C216 C 0.71251 0.86834 0.59602 0.0
C217 C 0.72745 0.89982 0.57534 0.0
C218 C 0.71033 0.95203 0.50397 0.0
C219 C 0.76398 0.05167 0.49383 0.0
C220 C 0.74992 1.01535 0.50932 0.0
C221 C 0.70614 0.91089 0.55693 0.0
C222 C 0.72192 0.9466 0.53972 0.0
H223 H 0.83982 0.13075 0.48906 0.0
H224 H 0.81725 0.07156 0.51462 0.0
H225 H 0.71512 0.98903 0.46091 0.0
H226 H 0.62621 0.84178 0.58026 0.0
H227 H 0.65239 0.89648 0.54376 0.0
C228 C 0.81072 0.64685 0.91187 0.0
C229 C 0.84245 0.66832 0.93147 0.0
C230 C 0.79579 0.66172 0.88816 0.0
C231 C 0.81181 0.74347 0.83859 0.0
H232 H 0.71389 0.70913 0.86196 0.0
C233 C 0.73964 0.81757 0.79068 0.0
C234 C 0.70445 0.79728 0.7787 0.0
C235 C 0.75733 0.80161 0.80718 0.0
C236 C 0.74107 0.71878 0.85453 0.0
H237 H 0.88473 0.72196 0.93882 0.0
H238 H 0.85885 0.74777 0.8972 0.0
H239 H 0.74381 0.68078 0.8907 0.0
H240 H 0.66026 0.7441 0.77584 0.0
H241 H 0.69117 0.71646 0.8032 0.0
H242 H 0.80903 0.78156 0.80241 0.0
C243 C 0.84541 0.71949 0.90032 0.0
C244 C 0.75824 0.70242 0.87103 0.0
C245 C 0.86024 0.70466 0.92424 0.0
C246 C 0.68742 0.76068 0.78408 0.0
C247 C 0.70511 0.74476 0.80034 0.0
C248 C 0.79453 0.75974 0.82183 0.0
C249 C 0.81234 0.69834 0.88322 0.0
C250 C 0.79385 0.71461 0.86341 0.0
C251 C 0.74032 0.76495 0.81212 0.0
C252 C 0.75893 0.74768 0.8297 0.0
H253 H 0.7962 0.61876 0.91676 0.0
H254 H 0.77057 0.64463 0.87483 0.0
H255 H 0.8392 0.75339 0.83197 0.0
H256 H 0.75377 0.84575 0.78682 0.0
H257 H 0.78428 0.81811 0.81637 0.0
C258 C 0.92899 0.73136 0.13188 0.0
C259 C 0.91791 0.69806 0.11569 0.0
C260 C 0.96243 0.75087 0.14848 0.0
C261 C 0.05068 0.75964 0.14907 0.0
H262 H 0.06121 0.80486 0.24787 0.0
C263 C 0.17388 0.80696 0.24542 0.0
C264 C 0.18347 0.8355 0.27048 0.0
C265 C 0.14391 0.79443 0.22215 0.0
C266 C 0.05901 0.79304 0.2199 0.0
H267 H 0.93353 0.65904 0.10557 0.0
H268 H 0.99156 0.69308 0.13393 0.0
H269 H 1.00384 0.77457 0.21687 0.0
H270 H 0.17059 0.87497 0.2883 0.0
H271 H 0.11909 0.85389 0.24687 0.0
H272 H 0.10578 0.77793 0.1521 0.0
C273 C 0.97458 0.70436 0.13322 0.0
C274 C 0.02597 0.77552 0.20219 0.0
C275 C 0.94116 0.68479 0.11689 0.0
C276 C 0.16385 0.85278 0.26956 0.0
C277 C 0.13404 0.84042 0.24609 0.0
C278 C 0.08378 0.77736 0.16665 0.0
C279 C 0.98571 0.73768 0.14912 0.0
C280 C 1.02129 0.75818 0.16681 0.0
C281 C 0.12291 0.81029 0.22311 0.0
C282 C 0.08835 0.79394 0.20258 0.0
H283 H 0.91214 0.74273 0.1312 0.0
H284 H 0.97027 0.77657 0.16025 0.0
H285 H 0.04809 0.74704 0.1215 0.0
H286 H 0.18818 0.79281 0.24551 0.0
H287 H 0.13617 0.77106 0.20511 0.0
C288 C 0.38804 0.15923 0.58476 0.0
C289 C 0.36762 0.16686 0.60976 0.0
C290 C 0.37246 0.12872 0.56223 0.0
C291 C 0.28811 0.05659 0.52451 0.0
H292 H 0.33442 1.00154 0.53395 0.0
C293 C 0.222 0.91159 0.47314 0.0
C294 C 0.2435 0.9001 0.45608 0.0
C295 C 0.2367 0.94462 0.49089 0.0
C296 C 0.32132 0.01667 0.53038 0.0
H297 H 0.31446 0.14968 0.62832 0.0
H298 H 0.28731 0.0968 0.58856 0.0
H299 H 0.36104 0.05965 0.56278 0.0
H300 H 0.29774 0.91456 0.44579 0.0
H301 H 0.32301 0.97207 0.47504 0.0
H302 H 0.2485 1.01372 0.49177 0.0
C303 C 0.31538 0.11427 0.58661 0.0
C304 C 0.33665 0.05009 0.54698 0.0
C305 C 0.33098 0.14462 0.60944 0.0
C306 C 0.28012 0.92243 0.4579 0.0
C307 C 0.29475 0.95547 0.4753 0.0
C308 C 0.27289 0.02321 0.50751 0.0
C309 C 0.33609 0.10531 0.56382 0.0
C310 C 0.32025 0.07047 0.54433 0.0
C311 C 0.27332 0.96717 0.49197 0.0
C312 C 0.28925 1.00272 0.51026 0.0
H313 H 0.41633 0.17565 0.58426 0.0
H314 H 0.38907 0.12285 0.54447 0.0
H315 H 0.27489 0.07169 0.5218 0.0
H316 H 0.19374 0.89541 0.47228 0.0
H317 H 0.21929 0.95238 0.50393 0.0
C318 C 0.20627 0.69999 0.24348 0.0
C319 C 0.18928 0.68699 0.279 0.0
C320 C 0.20459 0.67723 0.2144 0.0
C321 C 0.18573 0.58585 0.19805 0.0
H322 H 0.18728 0.61119 0.09069 0.0
C323 C 0.1824 0.49599 0.07476 0.0
C324 C 0.2088 0.51283 0.04689 0.0
C325 C 0.17498 0.51561 0.10093 0.0
C326 C 0.1869 0.60378 0.12054 0.0
H327 H 0.15657 0.63916 0.31097 0.0
H328 H 0.1527 0.59948 0.25982 0.0
H329 H 0.18342 0.64784 0.14093 0.0
H330 H 0.24655 0.56352 0.02332 0.0
H331 H 0.23321 0.59764 0.06856 0.0
H332 H 0.18915 0.54173 0.17745 0.0
C333 C 0.16803 0.62749 0.25483 0.0
C334 C 0.18485 0.62488 0.14944 0.0
C335 C 0.16994 0.65034 0.28415 0.0
C336 C 0.22606 0.54967 0.04437 0.0
C337 C 0.21837 0.56926 0.07029 0.0
C338 C 0.18742 0.56457 0.16911 0.0
C339 C 0.18553 0.64063 0.21959 0.0
C340 C 0.18486 0.61658 0.18868 0.0
C341 C 0.19345 0.55251 0.09958 0.0
C342 C 0.18856 0.57356 0.13003 0.0
H343 H 0.22096 0.72785 0.23776 0.0
H344 H 0.21889 0.68853 0.18803 0.0
H345 H 0.18632 0.57876 0.22781 0.0
H346 H 0.16858 0.46767 0.07764 0.0
H347 H 0.1553 0.50191 0.12282 0.0
C348 C 0.5189 0.18949 0.57964 0.0
C349 C 0.51789 0.1751 0.61623 0.0
C350 C 0.5381 0.18628 0.54955 0.0
C351 C 0.61073 0.16828 0.53059 0.0
H352 H 0.58116 0.16504 0.42449 0.0
C353 C 0.69304 0.16427 0.40394 0.0
C354 C 0.70178 0.1911 0.37664 0.0
C355 C 0.66625 0.15594 0.43063 0.0
C356 C 0.58972 0.16589 0.45398 0.0
H357 H 0.53605 0.14512 0.64898 0.0
H358 H 0.56849 0.13843 0.59614 0.0
H359 H 0.5428 0.16196 0.47673 0.0
H360 H 0.68737 0.22825 0.35425 0.0
H361 H 0.64012 0.21312 0.40028 0.0
H362 H 0.65763 0.17211 0.50761 0.0
C363 C 0.55503 0.15303 0.59105 0.0
C364 C 0.56785 0.16435 0.48402 0.0
C365 C 0.53603 0.15655 0.62139 0.0
C366 C 0.68134 0.20748 0.37486 0.0
C367 C 0.65423 0.19879 0.40123 0.0
C368 C 0.63237 0.16936 0.50055 0.0
C369 C 0.5566 0.16815 0.55475 0.0
C370 C 0.57836 0.16629 0.52279 0.0
C371 C 0.64722 0.17382 0.43027 0.0
C372 C 0.62241 0.16882 0.4619 0.0
H373 H 0.5049 0.20338 0.57388 0.0
H374 H 0.53897 0.19879 0.52237 0.0
H375 H 0.6201 0.17039 0.5599 0.0
H376 H 0.70827 0.15115 0.40629 0.0
H377 H 0.66115 0.13627 0.45238 0.0
C378 C 0.52235 0.70103 0.75187 0.0
C379 C 0.53793 0.73604 0.76457 0.0
C380 C 0.49924 0.67339 0.77593 0.0
C381 C 0.44412 0.6564 0.86344 0.0
H382 H 0.44843 0.57067 0.87174 0.0
C383 C 0.37857 0.5605 0.98887 0.0
C384 C 0.35742 0.52488 0.97917 0.0
C385 C 0.40112 0.58464 0.96166 0.0
C386 C 0.44679 0.5944 0.86952 0.0
H387 H 0.54151 0.76927 0.81267 0.0
H388 H 0.50234 0.72176 0.85416 0.0
H389 H 0.48527 0.61542 0.82461 0.0
H390 H 0.34487 0.48641 0.93395 0.0
H391 H 0.38446 0.52862 0.88641 0.0
H392 H 0.40626 0.63583 0.90869 0.0
C393 C 0.50708 0.71534 0.82552 0.0
C394 C 0.46775 0.61996 0.84239 0.0
C395 C 0.52987 0.74272 0.80164 0.0
C396 C 0.36059 0.51374 0.94216 0.0
C397 C 0.38341 0.53785 0.91502 0.0
C398 C 0.4235 0.6311 0.89064 0.0
C399 C 0.49129 0.68029 0.81308 0.0
C400 C 0.46705 0.65155 0.83942 0.0
C401 C 0.4033 0.57372 0.92419 0.0
C402 C 0.4249 0.60001 0.8944 0.0
H403 H 0.52809 0.69499 0.72351 0.0
H404 H 0.48739 0.64671 0.76532 0.0
H405 H 0.44214 0.67994 0.86136 0.0
H406 H 0.37662 0.57003 1.01696 0.0
H407 H 0.41648 0.61205 0.96975 0.0
C408 C 0.83852 0.51445 0.08427 0.0
C409 C 0.82055 0.53095 0.09872 0.0
C410 C 0.84511 0.49244 0.10811 0.0
C411 C 0.85317 0.47555 0.21093 0.0
H412 H 0.82856 0.38148 0.17922 0.0
C413 C 0.83206 0.36878 0.32104 0.0
C414 C 0.84159 0.34363 0.31136 0.0
C415 C 0.8342 0.39327 0.29382 0.0
C416 C 0.83618 0.40789 0.18838 0.0
H417 H 0.79533 0.537 0.14952 0.0
H418 H 0.80694 0.49931 0.19044 0.0
H419 H 0.82425 0.4212 0.13294 0.0
H420 H 0.86222 0.32559 0.26568 0.0
H421 H 0.8662 0.36847 0.21827 0.0
H422 H 0.86481 0.46247 0.26632 0.0
C423 C 0.81618 0.50339 0.16097 0.0
C424 C 0.83368 0.43062 0.1618 0.0
C425 C 0.80929 0.52486 0.13726 0.0
C426 C 0.85415 0.34422 0.27397 0.0
C427 C 0.85638 0.36879 0.24674 0.0
C428 C 0.85586 0.453 0.23736 0.0
C429 C 0.83432 0.48706 0.14688 0.0
C430 C 0.84131 0.4644 0.1731 0.0
C431 C 0.84609 0.39344 0.25617 0.0
C432 C 0.84659 0.41855 0.22678 0.0
H433 H 0.84752 0.51859 0.05473 0.0
H434 H 0.85915 0.48015 0.09646 0.0
H435 H 0.85985 0.50167 0.22032 0.0
H436 H 0.82177 0.36884 0.34928 0.0
H437 H 0.82545 0.4114 0.30204 0.0
C438 C 0.34747 0.84763 0.41189 0.0
C439 C 0.3239 0.81269 0.4013 0.0
C440 C 0.37577 0.85538 0.43673 0.0
C441 C 0.39896 0.81092 0.51222 0.0
H442 H 0.49248 0.89201 0.50728 0.0
C443 C 0.51179 0.81984 0.60384 0.0
C444 C 0.53526 0.85192 0.62176 0.0
C445 C 0.48699 0.81773 0.57714 0.0
C446 C 0.46632 0.86946 0.50926 0.0
H447 H 0.313 0.75902 0.40567 0.0
H448 H 0.36261 0.77251 0.44749 0.0
H449 H 0.44884 0.88376 0.45799 0.0
H450 H 0.55038 0.907 0.62521 0.0
H451 H 0.50704 0.90324 0.57816 0.0
H452 H 0.41617 0.79636 0.56308 0.0
C453 C 0.35882 0.79387 0.43796 0.0
C454 C 0.44136 0.86471 0.481 0.0
C455 C 0.33056 0.78615 0.41363 0.0
C456 C 0.53305 0.8819 0.61192 0.0
C457 C 0.50823 0.87979 0.58489 0.0
C458 C 0.42378 0.8156 0.54024 0.0
C459 C 0.38096 0.82832 0.45116 0.0
C460 C 0.40754 0.83498 0.48177 0.0
C461 C 0.48481 0.84759 0.56729 0.0
C462 C 0.45795 0.84457 0.53883 0.0
H463 H 0.34272 0.86856 0.40311 0.0
H464 H 0.39234 0.88221 0.44628 0.0
H465 H 0.37289 0.78828 0.5145 0.0
H466 H 0.51285 0.79622 0.60954 0.0
H467 H 0.46984 0.79264 0.56361 0.0
C468 C 0.56538 0.32895 0.74083 0.0
C469 C 0.53017 0.31777 0.73193 0.0
C470 C 0.58521 0.35884 0.76335 0.0
C471 C 0.57513 0.40961 0.8404 0.0
H472 H 0.67401 0.47342 0.8222 0.0
C473 C 0.66414 0.52113 0.94806 0.0
C474 C 0.69822 0.52661 0.95393 0.0
C475 C 0.64241 0.49852 0.91891 0.0
C476 C 0.64649 0.45568 0.82795 0.0
H477 H 0.48836 0.32979 0.73873 0.0
H478 H 0.52313 0.38223 0.77856 0.0
H479 H 0.63875 0.4304 0.77317 0.0
H480 H 0.73578 0.51215 0.93298 0.0
H481 H 0.69792 0.47238 0.88366 0.0
H482 H 0.58313 0.43414 0.89574 0.0
C483 C 0.53534 0.36778 0.7679 0.0
C484 C 0.62624 0.43112 0.7997 0.0
C485 C 0.51557 0.33802 0.74475 0.0
C486 C 0.70971 0.50852 0.93005 0.0
C487 C 0.68806 0.48598 0.90108 0.0
C488 C 0.59547 0.43412 0.86883 0.0
C489 C 0.57022 0.37813 0.77804 0.0
C490 C 0.59048 0.40727 0.80587 0.0
C491 C 0.65423 0.48086 0.89479 0.0
C492 C 0.63163 0.45696 0.86333 0.0
H493 H 0.57731 0.31381 0.7315 0.0
H494 H 0.61184 0.36581 0.77086 0.0
H495 H 0.54773 0.39139 0.84624 0.0
H496 H 0.65422 0.53435 0.96597 0.0
H497 H 0.61656 0.49535 0.91488 0.0
loop_
_geom_bond_atom_site_label_1
_geom_bond_atom_site_label_2
_geom_bond_distance
_geom_bond_site_symmetry_2
_ccdc_geom_bond_type
Cu0 N1 1.999 . S
Cu0 O6 1.974 . S
Cu0 N11 1.985 1_556 S
Cu0 O20 1.959 1_556 S
N1 Cu0 1.999 . S
N1 C3 1.263 . S
N1 C5 1.389 . S
N2 C3 1.358 . S
N2 C4 1.400 . S
C3 N1 1.263 . S
C3 N2 1.358 . S
C3 H9 0.930 . S
C4 N2 1.400 . S
C4 C5 1.351 . S
C4 H21 0.930 . S
C5 N1 1.389 . S
C5 C4 1.351 . S
C5 H10 0.930 . S
O6 Cu0 1.974 . S
O6 C16 1.282 . S
C7 O8 1.261 . S
C7 O20 1.251 . S
O8 C7 1.261 . S
H9 C3 0.930 . S
H10 C5 0.930 . S
N11 Cu0 1.985 1_554 S
N11 C13 1.335 . S
N11 C14 1.390 . S
N12 C13 1.345 . S
N12 C15 1.336 . S
C13 N11 1.335 . S
C13 N12 1.345 . S
C13 H18 0.930 . S
C14 N11 1.390 . S
C14 C15 1.346 . S
C14 H19 0.930 . S
C15 N12 1.336 . S
C15 C14 1.346 . S
C15 H22 0.929 . S
C16 O6 1.282 . S
C16 O17 1.216 . S
O17 C16 1.216 . S
H18 C13 0.930 . S
H19 C14 0.930 . S
O20 Cu0 1.959 1_554 S
O20 C7 1.251 . S
H21 C4 0.930 . S
H22 C15 0.929 . S
Cu23 N24 1.999 . S
Cu23 O29 1.974 . S
Cu23 N34 1.985 . S
Cu23 O43 1.959 . S
N24 Cu23 1.999 . S
N24 C26 1.263 . S
N24 C28 1.389 . S
N25 C26 1.358 . S
N25 C27 1.400 . S
C26 N24 1.263 . S
C26 N25 1.358 . S
C26 H32 0.930 . S
C27 N25 1.400 . S
C27 C28 1.351 . S
C27 H44 0.930 . S
C28 N24 1.389 . S
C28 C27 1.351 . S
C28 H33 0.930 . S
O29 Cu23 1.974 . S
O29 C39 1.282 . S
C30 O31 1.261 . S
C30 O43 1.251 . S
O31 C30 1.261 . S
H32 C26 0.930 . S
H33 C28 0.930 . S
N34 Cu23 1.985 . S
N34 C36 1.335 . S
N34 C37 1.390 . S
N35 C36 1.345 . S
N35 C38 1.336 . S
C36 N34 1.335 . S
C36 N35 1.345 . S
C36 H41 0.930 . S
C37 N34 1.390 . S
C37 C38 1.346 . S
C37 H42 0.930 . S
C38 N35 1.336 . S
C38 C37 1.346 . S
C38 H45 0.929 . S
C39 O29 1.282 . S
C39 O40 1.216 . S
O40 C39 1.216 . S
H41 C36 0.930 . S
H42 C37 0.930 . S
O43 Cu23 1.959 . S
O43 C30 1.251 . S
H44 C27 0.930 . S
H45 C38 0.929 . S
Cu46 N47 1.999 . S
Cu46 O52 1.974 . S
Cu46 N57 1.985 . S
Cu46 O66 1.959 . S
N47 Cu46 1.999 . S
N47 C49 1.263 . S
N47 C51 1.389 . S
N48 C49 1.358 . S
N48 C50 1.400 . S
C49 N47 1.263 . S
C49 N48 1.358 . S
C49 H55 0.930 . S
C50 N48 1.400 . S
C50 C51 1.351 . S
C50 H67 0.930 . S
C51 N47 1.389 . S
C51 C50 1.351 . S
C51 H56 0.930 . S
O52 Cu46 1.974 . S
O52 C62 1.282 . S
C53 O54 1.261 . S
C53 O66 1.251 . S
O54 C53 1.261 . S
H55 C49 0.930 . S
H56 C51 0.930 . S
N57 Cu46 1.985 . S
N57 C59 1.335 . S
N57 C60 1.390 . S
N58 C59 1.345 . S
N58 C61 1.336 . S
C59 N57 1.335 . S
C59 N58 1.345 . S
C59 H64 0.930 . S
C60 N57 1.390 . S
C60 C61 1.346 . S
C60 H65 0.930 . S
C61 N58 1.336 . S
C61 C60 1.346 . S
C61 H68 0.929 . S
C62 O52 1.282 . S
C62 O63 1.216 . S
O63 C62 1.216 . S
H64 C59 0.930 . S
H65 C60 0.930 . S
O66 Cu46 1.959 . S
O66 C53 1.251 . S
H67 C50 0.930 . S
H68 C61 0.929 . S
Cu69 N70 1.999 . S
Cu69 O75 1.974 . S
Cu69 N80 1.985 1_556 S
Cu69 O89 1.959 1_556 S
N70 Cu69 1.999 . S
N70 C72 1.263 . S
N70 C74 1.389 . S
N71 C72 1.358 . S
N71 C73 1.400 . S
C72 N70 1.263 . S
C72 N71 1.358 . S
C72 H78 0.930 . S
C73 N71 1.400 . S
C73 C74 1.351 . S
C73 H90 0.930 . S
C74 N70 1.389 . S
C74 C73 1.351 . S
C74 H79 0.930 . S
O75 Cu69 1.974 . S
O75 C85 1.282 . S
C76 O77 1.261 . S
C76 O89 1.251 . S
O77 C76 1.261 . S
H78 C72 0.930 . S
H79 C74 0.930 . S
N80 Cu69 1.985 1_554 S
N80 C82 1.335 . S
N80 C83 1.390 . S
N81 C82 1.345 . S
N81 C84 1.336 . S
C82 N80 1.335 . S
C82 N81 1.345 . S
C82 H87 0.930 . S
C83 N80 1.390 . S
C83 C84 1.346 . S
C83 H88 0.930 . S
C84 N81 1.336 . S
C84 C83 1.346 . S
C84 H91 0.929 . S
C85 O75 1.282 . S
C85 O86 1.216 . S
O86 C85 1.216 . S
H87 C82 0.930 . S
H88 C83 0.930 . S
O89 Cu69 1.959 1_554 S
O89 C76 1.251 . S
H90 C73 0.930 . S
H91 C84 0.929 . S
Cu92 N93 1.999 . S
Cu92 O98 1.974 . S
Cu92 N103 1.985 . S
Cu92 O112 1.959 . S
N93 Cu92 1.999 . S
N93 C95 1.263 . S
N93 C97 1.389 . S
N94 C95 1.358 . S
N94 C96 1.400 . S
C95 N93 1.263 . S
C95 N94 1.358 . S
C95 H101 0.930 . S
C96 N94 1.400 . S
C96 C97 1.351 . S
C96 H113 0.930 . S
C97 N93 1.389 . S
C97 C96 1.351 . S
C97 H102 0.930 . S
O98 Cu92 1.974 . S
O98 C108 1.282 . S
C99 O100 1.261 . S
C99 O112 1.251 . S
O100 C99 1.261 . S
H101 C95 0.930 . S
H102 C97 0.930 . S
N103 Cu92 1.985 . S
N103 C105 1.335 . S
N103 C106 1.390 . S
N104 C105 1.345 . S
N104 C107 1.336 . S
C105 N103 1.335 . S
C105 N104 1.345 . S
C105 H110 0.930 . S
C106 N103 1.390 . S
C106 C107 1.346 . S
C106 H111 0.930 . S
C107 N104 1.336 . S
C107 C106 1.346 . S
C107 H114 0.929 . S
C108 O98 1.282 . S
C108 O109 1.216 . S
O109 C108 1.216 . S
H110 C105 0.930 . S
H111 C106 0.930 . S
O112 Cu92 1.959 . S
O112 C99 1.251 . S
H113 C96 0.930 . S
H114 C107 0.929 . S
Cu115 N116 1.999 . S
Cu115 O121 1.974 . S
Cu115 N126 1.985 . S
Cu115 O135 1.959 . S
N116 Cu115 1.999 . S
N116 C118 1.263 . S
N116 C120 1.389 . S
N117 C118 1.358 . S
N117 C119 1.400 . S
C118 N116 1.263 . S
C118 N117 1.358 . S
C118 H124 0.930 . S
C119 N117 1.400 . S
C119 C120 1.351 . S
C119 H136 0.930 . S
C120 N116 1.389 . S
C120 C119 1.351 . S
C120 H125 0.930 . S
O121 Cu115 1.974 . S
O121 C131 1.282 . S
C122 O123 1.261 . S
C122 O135 1.251 . S
O123 C122 1.261 . S
H124 C118 0.930 . S
H125 C120 0.930 . S
N126 Cu115 1.985 . S
N126 C128 1.335 . S
N126 C129 1.390 . S
N127 C128 1.345 . S
N127 C130 1.336 . S
C128 N126 1.335 . S
C128 N127 1.345 . S
C128 H133 0.930 . S
C129 N126 1.390 . S
C129 C130 1.346 . S
C129 H134 0.930 . S
C130 N127 1.336 . S
C130 C129 1.346 . S
C130 H137 0.929 . S
C131 O121 1.282 . S
C131 O132 1.216 . S
O132 C131 1.216 . S
H133 C128 0.930 . S
H134 C129 0.930 . S
O135 Cu115 1.959 . S
O135 C122 1.251 . S
H136 C119 0.930 . S
H137 C130 0.929 . S
C138 C139 1.349 . S
C138 C140 1.327 . S
C138 H163 0.950 . S
C139 C138 1.349 . S
C139 C155 1.349 . S
C140 C138 1.327 . S
C140 C159 1.429 . S
C140 H164 0.950 . S
C141 C158 1.574 . S
C141 C160 1.368 . S
C141 H165 0.949 . S
H142 C146 0.949 . S
C143 C144 1.349 . S
C143 C145 1.327 . S
C143 H166 0.950 . S
C144 C143 1.349 . S
C144 C156 1.349 . S
C145 C143 1.327 . S
C145 C161 1.429 . S
C145 H167 0.950 . S
C146 H142 0.949 . S
C146 C154 1.574 . S
C146 C162 1.368 . S
H147 C155 0.950 . S
H148 C153 0.950 . S
H149 C154 0.949 . S
H150 C156 0.950 . S
H151 C157 0.950 . S
H152 C158 0.949 . S
C153 H148 0.950 . S
C153 C155 1.327 . S
C153 C159 1.429 . S
C154 C146 1.574 . S
C154 H149 0.949 . S
C154 C160 1.368 . S
C155 C139 1.349 . S
C155 H147 0.950 . S
C155 C153 1.327 . S
C156 C144 1.349 . S
C156 H150 0.950 . S
C156 C157 1.327 . S
C157 H151 0.950 . S
C157 C156 1.327 . S
C157 C161 1.429 . S
C158 C141 1.574 . S
C158 H152 0.949 . S
C158 C162 1.368 . S
C159 C140 1.429 . S
C159 C153 1.429 . S
C159 C160 1.523 . S
C160 C141 1.368 . S
C160 C154 1.368 . S
C160 C159 1.523 . S
C161 C145 1.429 . S
C161 C157 1.429 . S
C161 C162 1.523 . S
C162 C146 1.368 . S
C162 C158 1.368 . S
C162 C161 1.523 . S
H163 C138 0.950 . S
H164 C140 0.950 . S
H165 C141 0.949 . S
H166 C143 0.950 . S
H167 C145 0.950 . S
C168 C169 1.349 . S
C168 C170 1.327 . S
C168 H193 0.950 . S
C169 C168 1.349 . S
C169 C185 1.349 . S
C170 C168 1.327 . S
C170 C189 1.429 . S
C170 H194 0.950 . S
C171 C188 1.574 . S
C171 C190 1.368 . S
C171 H195 0.949 . S
H172 C176 0.949 . S
C173 C174 1.349 . S
C173 C175 1.327 . S
C173 H196 0.950 . S
C174 C173 1.349 . S
C174 C186 1.349 . S
C175 C173 1.327 . S
C175 C191 1.429 . S
C175 H197 0.950 . S
C176 H172 0.949 . S
C176 C184 1.574 1_455 S
C176 C192 1.368 . S
H177 C185 0.950 . S
H178 C183 0.950 . S
H179 C184 0.949 . S
H180 C186 0.950 . S
H181 C187 0.950 . S
H182 C188 0.949 . S
C183 H178 0.950 . S
C183 C185 1.327 . S
C183 C189 1.429 . S
C184 C176 1.574 1_655 S
C184 H179 0.949 . S
C184 C190 1.368 . S
C185 C169 1.349 . S
C185 H177 0.950 . S
C185 C183 1.327 . S
C186 C174 1.349 . S
C186 H180 0.950 . S
C186 C187 1.327 . S
C187 H181 0.950 . S
C187 C186 1.327 . S
C187 C191 1.429 . S
C188 C171 1.574 . S
C188 H182 0.949 . S
C188 C192 1.368 1_655 S
C189 C170 1.429 . S
C189 C183 1.429 . S
C189 C190 1.523 . S
C190 C171 1.368 . S
C190 C184 1.368 . S
C190 C189 1.523 . S
C191 C175 1.429 . S
C191 C187 1.429 . S
C191 C192 1.523 . S
C192 C176 1.368 . S
C192 C188 1.368 1_455 S
C192 C191 1.523 . S
H193 C168 0.950 . S
H194 C170 0.950 . S
H195 C171 0.949 . S
H196 C173 0.950 . S
H197 C175 0.950 . S
C198 C199 1.349 . S
C198 C200 1.327 . S
C198 H223 0.950 . S
C199 C198 1.349 . S
C199 C215 1.349 . S
C200 C198 1.327 . S
C200 C219 1.429 . S
C200 H224 0.950 . S
C201 C218 1.574 1_545 S
C201 C220 1.368 . S
C201 H225 0.949 . S
H202 C206 0.949 . S
C203 C204 1.349 . S
C203 C205 1.327 . S
C203 H226 0.950 . S
C204 C203 1.349 . S
C204 C216 1.349 . S
C205 C203 1.327 . S
C205 C221 1.429 . S
C205 H227 0.950 . S
C206 H202 0.949 . S
C206 C214 1.592 . S
C206 C222 1.368 . S
H207 C215 0.950 . S
H208 C213 0.950 . S
H209 C214 0.952 1_545 S
H210 C216 0.950 . S
H211 C217 0.950 . S
H212 C218 0.949 . S
C213 H208 0.950 . S
C213 C215 1.327 . S
C213 C219 1.429 . S
C214 C206 1.592 . S
C214 H209 0.952 1_565 S
C214 C220 1.347 1_565 S
C215 C199 1.349 . S
C215 H207 0.950 . S
C215 C213 1.327 . S
C216 C204 1.349 . S
C216 H210 0.950 . S
C216 C217 1.327 . S
C217 H211 0.950 . S
C217 C216 1.327 . S
C217 C221 1.429 . S
C218 C201 1.574 1_565 S
C218 H212 0.949 . S
C218 C222 1.368 . S
C219 C200 1.429 . S
C219 C213 1.429 . S
C219 C220 1.523 . S
C220 C201 1.368 . S
C220 C214 1.347 1_545 S
C220 C219 1.523 . S
C221 C205 1.429 . S
C221 C217 1.429 . S
C221 C222 1.523 . S
C222 C206 1.368 . S
C222 C218 1.368 . S
C222 C221 1.523 . S
H223 C198 0.950 . S
H224 C200 0.950 . S
H225 C201 0.949 . S
H226 C203 0.950 . S
H227 C205 0.950 . S
C228 C229 1.349 . S
C228 C230 1.327 . S
C228 H253 0.950 . S
C229 C228 1.349 . S
C229 C245 1.349 . S
C230 C228 1.327 . S
C230 C249 1.429 . S
C230 H254 0.950 . S
C231 C248 1.574 . S
C231 C250 1.368 . S
C231 H255 0.949 . S
H232 C236 0.949 . S
C233 C234 1.349 . S
C233 C235 1.327 . S
C233 H256 0.950 . S
C234 C233 1.349 . S
C234 C246 1.349 . S
C235 C233 1.327 . S
C235 C251 1.429 . S
C235 H257 0.950 . S
C236 H232 0.949 . S
C236 C244 1.574 . S
C236 C252 1.368 . S
H237 C245 0.950 . S
H238 C243 0.950 . S
H239 C244 0.949 . S
H240 C246 0.950 . S
H241 C247 0.950 . S
H242 C248 0.949 . S
C243 H238 0.950 . S
C243 C245 1.327 . S
C243 C249 1.429 . S
C244 C236 1.574 . S
C244 H239 0.949 . S
C244 C250 1.368 . S
C245 C229 1.349 . S
C245 H237 0.950 . S
C245 C243 1.327 . S
C246 C234 1.349 . S
C246 H240 0.950 . S
C246 C247 1.327 . S
C247 H241 0.950 . S
C247 C246 1.327 . S
C247 C251 1.429 . S
C248 C231 1.574 . S
C248 H242 0.949 . S
C248 C252 1.368 . S
C249 C230 1.429 . S
C249 C243 1.429 . S
C249 C250 1.523 . S
C250 C231 1.368 . S
C250 C244 1.368 . S
C250 C249 1.523 . S
C251 C235 1.429 . S
C251 C247 1.429 . S
C251 C252 1.523 . S
C252 C236 1.368 . S
C252 C248 1.368 . S
C252 C251 1.523 . S
H253 C228 0.950 . S
H254 C230 0.950 . S
H255 C231 0.949 . S
H256 C233 0.950 . S
H257 C235 0.950 . S
C258 C259 1.349 . S
C258 C260 1.327 . S
C258 H283 0.950 . S
C259 C258 1.349 . S
C259 C275 1.349 . S
C260 C258 1.327 . S
C260 C279 1.429 . S
C260 H284 0.950 . S
C261 C278 1.554 1_655 S
C261 C280 1.390 . S
C261 H285 0.948 . S
H262 C266 0.949 . S
C263 C264 1.349 . S
C263 C265 1.327 . S
C263 H286 0.950 . S
C264 C263 1.349 . S
C264 C276 1.349 . S
C265 C263 1.327 . S
C265 C281 1.429 . S
C265 H287 0.950 . S
C266 H262 0.949 . S
C266 C274 1.574 1_455 S
C266 C282 1.368 . S
H267 C275 0.950 . S
H268 C273 0.950 . S
H269 C274 0.949 . S
H270 C276 0.950 . S
H271 C277 0.950 . S
H272 C278 0.949 . S
C273 H268 0.950 . S
C273 C275 1.327 . S
C273 C279 1.429 . S
C274 C266 1.574 1_655 S
C274 H269 0.949 . S
C274 C280 1.368 . S
C275 C259 1.349 . S
C275 H267 0.950 . S
C275 C273 1.327 . S
C276 C264 1.349 . S
C276 H270 0.950 . S
C276 C277 1.327 . S
C277 H271 0.950 . S
C277 C276 1.327 . S
C277 C281 1.429 . S
C278 C261 1.554 1_455 S
C278 H272 0.949 . S
C278 C282 1.368 . S
C279 C260 1.429 . S
C279 C273 1.429 . S
C279 C280 1.523 . S
C280 C261 1.390 . S
C280 C274 1.368 . S
C280 C279 1.523 . S
C281 C265 1.429 . S
C281 C277 1.429 . S
C281 C282 1.523 . S
C282 C266 1.368 . S
C282 C278 1.368 . S
C282 C281 1.523 . S
H283 C258 0.950 . S
H284 C260 0.950 . S
H285 C261 0.948 . S
H286 C263 0.950 . S
H287 C265 0.950 . S
C288 C289 1.349 . S
C288 C290 1.327 . S
C288 H313 0.950 . S
C289 C288 1.349 . S
C289 C305 1.349 . S
C290 C288 1.327 . S
C290 C309 1.429 . S
C290 H314 0.950 . S
C291 C308 1.574 1_545 S
C291 C310 1.368 . S
C291 H315 0.949 . S
H292 C296 0.949 . S
C293 C294 1.349 . S
C293 C295 1.327 . S
C293 H316 0.950 . S
C294 C293 1.349 . S
C294 C306 1.349 . S
C295 C293 1.327 . S
C295 C311 1.429 . S
C295 H317 0.950 . S
C296 H292 0.949 . S
C296 C304 1.574 . S
C296 C312 1.368 1_545 S
H297 C305 0.950 . S
H298 C303 0.950 . S
H299 C304 0.949 . S
H300 C306 0.950 . S
H301 C307 0.950 . S
H302 C308 0.949 . S
C303 H298 0.950 . S
C303 C305 1.327 . S
C303 C309 1.429 . S
C304 C296 1.574 . S
C304 H299 0.949 . S
C304 C310 1.368 . S
C305 C289 1.349 . S
C305 H297 0.950 . S
C305 C303 1.327 . S
C306 C294 1.349 . S
C306 H300 0.950 . S
C306 C307 1.327 . S
C307 H301 0.950 . S
C307 C306 1.327 . S
C307 C311 1.429 . S
C308 C291 1.574 1_565 S
C308 H302 0.949 . S
C308 C312 1.368 . S
C309 C290 1.429 . S
C309 C303 1.429 . S
C309 C310 1.523 . S
C310 C291 1.368 . S
C310 C304 1.368 . S
C310 C309 1.523 . S
C311 C295 1.429 . S
C311 C307 1.429 . S
C311 C312 1.523 . S
C312 C296 1.368 1_565 S
C312 C308 1.368 . S
C312 C311 1.523 . S
H313 C288 0.950 . S
H314 C290 0.950 . S
H315 C291 0.949 . S
H316 C293 0.950 . S
H317 C295 0.950 . S
C318 C319 1.349 . S
C318 C320 1.327 . S
C318 H343 0.950 . S
C319 C318 1.349 . S
C319 C335 1.349 . S
C320 C318 1.327 . S
C320 C339 1.429 . S
C320 H344 0.950 . S
C321 C338 1.574 . S
C321 C340 1.368 . S
C321 H345 0.949 . S
H322 C326 0.949 . S
C323 C324 1.349 . S
C323 C325 1.327 . S
C323 H346 0.950 . S
C324 C323 1.349 . S
C324 C336 1.349 . S
C325 C323 1.327 . S
C325 C341 1.429 . S
C325 H347 0.950 . S
C326 H322 0.949 . S
C326 C334 1.574 . S
C326 C342 1.368 . S
H327 C335 0.950 . S
H328 C333 0.950 . S
H329 C334 0.949 . S
H330 C336 0.950 . S
H331 C337 0.950 . S
H332 C338 0.949 . S
C333 H328 0.950 . S
C333 C335 1.327 . S
C333 C339 1.429 . S
C334 C326 1.574 . S
C334 H329 0.949 . S
C334 C340 1.368 . S
C335 C319 1.349 . S
C335 H327 0.950 . S
C335 C333 1.327 . S
C336 C324 1.349 . S
C336 H330 0.950 . S
C336 C337 1.327 . S
C337 H331 0.950 . S
C337 C336 1.327 . S
C337 C341 1.429 . S
C338 C321 1.574 . S
C338 H332 0.949 . S
C338 C342 1.368 . S
C339 C320 1.429 . S
C339 C333 1.429 . S
C339 C340 1.523 . S
C340 C321 1.368 . S
C340 C334 1.368 . S
C340 C339 1.523 . S
C341 C325 1.429 . S
C341 C337 1.429 . S
C341 C342 1.523 . S
C342 C326 1.368 . S
C342 C338 1.368 . S
C342 C341 1.523 . S
H343 C318 0.950 . S
H344 C320 0.950 . S
H345 C321 0.949 . S
H346 C323 0.950 . S
H347 C325 0.950 . S
C348 C349 1.349 . S
C348 C350 1.327 . S
C348 H373 0.950 . S
C349 C348 1.349 . S
C349 C365 1.349 . S
C350 C348 1.327 . S
C350 C369 1.429 . S
C350 H374 0.950 . S
C351 C368 1.574 . S
C351 C370 1.368 . S
C351 H375 0.949 . S
H352 C356 0.949 . S
C353 C354 1.349 . S
C353 C355 1.327 . S
C353 H376 0.950 . S
C354 C353 1.349 . S
C354 C366 1.349 . S
C355 C353 1.327 . S
C355 C371 1.429 . S
C355 H377 0.950 . S
C356 H352 0.949 . S
C356 C364 1.574 . S
C356 C372 1.368 . S
H357 C365 0.950 . S
H358 C363 0.950 . S
H359 C364 0.949 . S
H360 C366 0.950 . S
H361 C367 0.950 . S
H362 C368 0.949 . S
C363 H358 0.950 . S
C363 C365 1.327 . S
C363 C369 1.429 . S
C364 C356 1.574 . S
C364 H359 0.949 . S
C364 C370 1.368 . S
C365 C349 1.349 . S
C365 H357 0.950 . S
C365 C363 1.327 . S
C366 C354 1.349 . S
C366 H360 0.950 . S
C366 C367 1.327 . S
C367 H361 0.950 . S
C367 C366 1.327 . S
C367 C371 1.429 . S
C368 C351 1.574 . S
C368 H362 0.949 . S
C368 C372 1.368 . S
C369 C350 1.429 . S
C369 C363 1.429 . S
C369 C370 1.523 . S
C370 C351 1.368 . S
C370 C364 1.368 . S
C370 C369 1.523 . S
C371 C355 1.429 . S
C371 C367 1.429 . S
C371 C372 1.523 . S
C372 C356 1.368 . S
C372 C368 1.368 . S
C372 C371 1.523 . S
H373 C348 0.950 . S
H374 C350 0.950 . S
H375 C351 0.949 . S
H376 C353 0.950 . S
H377 C355 0.950 . S
C378 C379 1.349 . S
C378 C380 1.327 . S
C378 H403 0.950 . S
C379 C378 1.349 . S
C379 C395 1.349 . S
C380 C378 1.327 . S
C380 C399 1.429 . S
C380 H404 0.950 . S
C381 C398 1.574 . S
C381 C400 1.368 . S
C381 H405 0.949 . S
H382 C386 0.949 . S
C383 C384 1.349 . S
C383 C385 1.327 . S
C383 H406 0.950 . S
C384 C383 1.349 . S
C384 C396 1.349 . S
C385 C383 1.327 . S
C385 C401 1.429 . S
C385 H407 0.950 . S
C386 H382 0.949 . S
C386 C394 1.574 . S
C386 C402 1.368 . S
H387 C395 0.950 . S
H388 C393 0.950 . S
H389 C394 0.949 . S
H390 C396 0.950 . S
H391 C397 0.950 . S
H392 C398 0.949 . S
C393 H388 0.950 . S
C393 C395 1.327 . S
C393 C399 1.429 . S
C394 C386 1.574 . S
C394 H389 0.949 . S
C394 C400 1.368 . S
C395 C379 1.349 . S
C395 H387 0.950 . S
C395 C393 1.327 . S
C396 C384 1.349 . S
C396 H390 0.950 . S
C396 C397 1.327 . S
C397 H391 0.950 . S
C397 C396 1.327 . S
C397 C401 1.429 . S
C398 C381 1.574 . S
C398 H392 0.949 . S
C398 C402 1.368 . S
C399 C380 1.429 . S
C399 C393 1.429 . S
C399 C400 1.523 . S
C400 C381 1.368 . S
C400 C394 1.368 . S
C400 C399 1.523 . S
C401 C385 1.429 . S
C401 C397 1.429 . S
C401 C402 1.523 . S
C402 C386 1.368 . S
C402 C398 1.368 . S
C402 C401 1.523 . S
H403 C378 0.950 . S
H404 C380 0.950 . S
H405 C381 0.949 . S
H406 C383 0.950 . S
H407 C385 0.950 . S
C408 C409 1.349 . S
C408 C410 1.327 . S
C408 H433 0.950 . S
C409 C408 1.349 . S
C409 C425 1.349 . S
C410 C408 1.327 . S
C410 C429 1.429 . S
C410 H434 0.950 . S
C411 C428 1.574 . S
C411 C430 1.368 . S
C411 H435 0.949 . S
H412 C416 0.949 . S
C413 C414 1.349 . S
C413 C415 1.327 . S
C413 H436 0.950 . S
C414 C413 1.349 . S
C414 C426 1.349 . S
C415 C413 1.327 . S
C415 C431 1.429 . S
C415 H437 0.950 . S
C416 H412 0.949 . S
C416 C424 1.574 . S
C416 C432 1.368 . S
H417 C425 0.950 . S
H418 C423 0.950 . S
H419 C424 0.949 . S
H420 C426 0.950 . S
H421 C427 0.950 . S
H422 C428 0.949 . S
C423 H418 0.950 . S
C423 C425 1.327 . S
C423 C429 1.429 . S
C424 C416 1.574 . S
C424 H419 0.949 . S
C424 C430 1.368 . S
C425 C409 1.349 . S
C425 H417 0.950 . S
C425 C423 1.327 . S
C426 C414 1.349 . S
C426 H420 0.950 . S
C426 C427 1.327 . S
C427 H421 0.950 . S
C427 C426 1.327 . S
C427 C431 1.429 . S
C428 C411 1.574 . S
C428 H422 0.949 . S
C428 C432 1.368 . S
C429 C410 1.429 . S
C429 C423 1.429 . S
C429 C430 1.523 . S
C430 C411 1.368 . S
C430 C424 1.368 . S
C430 C429 1.523 . S
C431 C415 1.429 . S
C431 C427 1.429 . S
C431 C432 1.523 . S
C432 C416 1.368 . S
C432 C428 1.368 . S
C432 C431 1.523 . S
H433 C408 0.950 . S
H434 C410 0.950 . S
H435 C411 0.949 . S
H436 C413 0.950 . S
H437 C415 0.950 . S
C438 C439 1.349 . S
C438 C440 1.327 . S
C438 H463 0.950 . S
C439 C438 1.349 . S
C439 C455 1.349 . S
C440 C438 1.327 . S
C440 C459 1.429 . S
C440 H464 0.950 . S
C441 C458 1.574 . S
C441 C460 1.368 . S
C441 H465 0.949 . S
H442 C446 0.949 . S
C443 C444 1.349 . S
C443 C445 1.327 . S
C443 H466 0.950 . S
C444 C443 1.349 . S
C444 C456 1.349 . S
C445 C443 1.327 . S
C445 C461 1.429 . S
C445 H467 0.950 . S
C446 H442 0.949 . S
C446 C454 1.574 . S
C446 C462 1.368 . S
H447 C455 0.950 . S
H448 C453 0.950 . S
H449 C454 0.949 . S
H450 C456 0.950 . S
H451 C457 0.950 . S
H452 C458 0.949 . S
C453 H448 0.950 . S
C453 C455 1.327 . S
C453 C459 1.429 . S
C454 C446 1.574 . S
C454 H449 0.949 . S
C454 C460 1.368 . S
C455 C439 1.349 . S
C455 H447 0.950 . S
C455 C453 1.327 . S
C456 C444 1.349 . S
C456 H450 0.950 . S
C456 C457 1.327 . S
C457 H451 0.950 . S
C457 C456 1.327 . S
C457 C461 1.429 . S
C458 C441 1.574 . S
C458 H452 0.949 . S
C458 C462 1.368 . S
C459 C440 1.429 . S
C459 C453 1.429 . S
C459 C460 1.523 . S
C460 C441 1.368 . S
C460 C454 1.368 . S
C460 C459 1.523 . S
C461 C445 1.429 . S
C461 C457 1.429 . S
C461 C462 1.523 . S
C462 C446 1.368 . S
C462 C458 1.368 . S
C462 C461 1.523 . S
H463 C438 0.950 . S
H464 C440 0.950 . S
H465 C441 0.949 . S
H466 C443 0.950 . S
H467 C445 0.950 . S
C468 C469 1.349 . S
C468 C470 1.327 . S
C468 H493 0.950 . S
C469 C468 1.349 . S
C469 C485 1.349 . S
C470 C468 1.327 . S
C470 C489 1.429 . S
C470 H494 0.950 . S
C471 C488 1.574 . S
C471 C490 1.368 . S
C471 H495 0.949 . S
H472 C476 0.949 . S
C473 C474 1.349 . S
C473 C475 1.327 . S
C473 H496 0.950 . S
C474 C473 1.349 . S
C474 C486 1.349 . S
C475 C473 1.327 . S
C475 C491 1.429 . S
C475 H497 0.950 . S
C476 H472 0.949 . S
C476 C484 1.574 . S
C476 C492 1.368 . S
H477 C485 0.950 . S
H478 C483 0.950 . S
H479 C484 0.949 . S
H480 C486 0.950 . S
H481 C487 0.950 . S
H482 C488 0.949 . S
C483 H478 0.950 . S
C483 C485 1.327 . S
C483 C489 1.429 . S
C484 C476 1.574 . S
C484 H479 0.949 . S
C484 C490 1.368 . S
C485 C469 1.349 . S
C485 H477 0.950 . S
C485 C483 1.327 . S
C486 C474 1.349 . S
C486 H480 0.950 . S
C486 C487 1.327 . S
C487 H481 0.950 . S
C487 C486 1.327 . S
C487 C491 1.429 . S
C488 C471 1.574 . S
C488 H482 0.949 . S
C488 C492 1.368 . S
C489 C470 1.429 . S
C489 C483 1.429 . S
C489 C490 1.523 . S
C490 C471 1.368 . S
C490 C484 1.368 . S
C490 C489 1.523 . S
C491 C475 1.429 . S
C491 C487 1.429 . S
C491 C492 1.523 . S
C492 C476 1.368 . S
C492 C488 1.368 . S
C492 C491 1.523 . S
H493 C468 0.950 . S
H494 C470 0.950 . S
H495 C471 0.949 . S
H496 C473 0.950 . S
H497 C475 0.950 . S
C139 C16 1.347 . S
C144 N127 1.357 . S
C169 C39 1.347 . S
C174 N12 1.357 . S
C199 N35 1.357 . S
C204 C62 1.347 . S
C229 C85 1.347 . S
C234 N58 1.357 . S
C259 N81 1.357 . S
C264 C108 1.348 . S
C289 C131 1.347 . S
C294 N104 1.357 . S
C319 N94 1.390 . S
C324 C7 1.449 . S
C349 N117 1.390 . S
C354 C30 1.449 . S
C379 C53 1.449 . S
C384 N2 1.390 . S
C409 C76 1.450 . S
C414 N25 1.390 . S
C439 C99 1.449 . S
C444 N48 1.390 . S
C469 C122 1.449 . S
C474 N71 1.390 . S
