# Generated by pormake.
# Topology yfk, (5)-cn, num edge types: 1
# Building blocks:
#     Node 0, Type 0, BuildingBlock: XOMCOT_clean_sbu_1, # of connection points: 5
#     Node 1, Type 0, BuildingBlock: XOMCOT_clean_sbu_1, # of connection points: 5
#     Node 2, Type 0, BuildingBlock: XOMCOT_clean_sbu_1, # of connection points: 5
#     Node 3, Type 0, BuildingBlock: XOMCOT_clean_sbu_1, # of connection points: 5
#     Node 4, Type 0, BuildingBlock: XOMCOT_clean_sbu_1, # of connection points: 5
#     Node 5, Type 0, BuildingBlock: XOMCOT_clean_sbu_1, # of connection points: 5
#     Node 6, Type 0, BuildingBlock: XOMCOT_clean_sbu_1, # of connection points: 5
#     Node 7, Type 0, BuildingBlock: XOMCOT_clean_sbu_1, # of connection points: 5
#     Node 8, Type 0, BuildingBlock: XOMCOT_clean_sbu_1, # of connection points: 5
#     Node 9, Type 0, BuildingBlock: XOMCOT_clean_sbu_1, # of connection points: 5
#     Node 10, Type 0, BuildingBlock: XOMCOT_clean_sbu_1, # of connection points: 5
#     Node 11, Type 0, BuildingBlock: XOMCOT_clean_sbu_1, # of connection points: 5
#     Node 12, Type 0, BuildingBlock: XOMCOT_clean_sbu_1, # of connection points: 5
#     Node 13, Type 0, BuildingBlock: XOMCOT_clean_sbu_1, # of connection points: 5
#     Node 14, Type 0, BuildingBlock: XOMCOT_clean_sbu_1, # of connection points: 5
#     Node 15, Type 0, BuildingBlock: XOMCOT_clean_sbu_1, # of connection points: 5
#     Edge 16, Type (0, 0), BuildingBlock: AJUNOK_clean_linker_0, # of connection points: 2
#     Edge 17, Type (0, 0), BuildingBlock: AJUNOK_clean_linker_0, # of connection points: 2
#     Edge 18, Type (0, 0), BuildingBlock: AJUNOK_clean_linker_0, # of connection points: 2
#     Edge 19, Type (0, 0), BuildingBlock: AJUNOK_clean_linker_0, # of connection points: 2
#     Edge 20, Type (0, 0), BuildingBlock: AJUNOK_clean_linker_0, # of connection points: 2
#     Edge 21, Type (0, 0), BuildingBlock: AJUNOK_clean_linker_0, # of connection points: 2
#     Edge 22, Type (0, 0), BuildingBlock: AJUNOK_clean_linker_0, # of connection points: 2
#     Edge 23, Type (0, 0), BuildingBlock: AJUNOK_clean_linker_0, # of connection points: 2
#     Edge 24, Type (0, 0), BuildingBlock: AJUNOK_clean_linker_0, # of connection points: 2
#     Edge 25, Type (0, 0), BuildingBlock: AJUNOK_clean_linker_0, # of connection points: 2
#     Edge 26, Type (0, 0), BuildingBlock: AJUNOK_clean_linker_0, # of connection points: 2
#     Edge 27, Type (0, 0), BuildingBlock: AJUNOK_clean_linker_0, # of connection points: 2
#     Edge 28, Type (0, 0), BuildingBlock: AJUNOK_clean_linker_0, # of connection points: 2
#     Edge 29, Type (0, 0), BuildingBlock: AJUNOK_clean_linker_0, # of connection points: 2
#     Edge 30, Type (0, 0), BuildingBlock: AJUNOK_clean_linker_0, # of connection points: 2
#     Edge 31, Type (0, 0), BuildingBlock: AJUNOK_clean_linker_0, # of connection points: 2
#     Edge 32, Type (0, 0), BuildingBlock: AJUNOK_clean_linker_0, # of connection points: 2
#     Edge 33, Type (0, 0), BuildingBlock: AJUNOK_clean_linker_0, # of connection points: 2
#     Edge 34, Type (0, 0), BuildingBlock: AJUNOK_clean_linker_0, # of connection points: 2
#     Edge 35, Type (0, 0), BuildingBlock: AJUNOK_clean_linker_0, # of connection points: 2
#     Edge 36, Type (0, 0), BuildingBlock: AJUNOK_clean_linker_0, # of connection points: 2
#     Edge 37, Type (0, 0), BuildingBlock: AJUNOK_clean_linker_0, # of connection points: 2
#     Edge 38, Type (0, 0), BuildingBlock: AJUNOK_clean_linker_0, # of connection points: 2
#     Edge 39, Type (0, 0), BuildingBlock: AJUNOK_clean_linker_0, # of connection points: 2
#     Edge 40, Type (0, 0), BuildingBlock: AJUNOK_clean_linker_0, # of connection points: 2
#     Edge 41, Type (0, 0), BuildingBlock: AJUNOK_clean_linker_0, # of connection points: 2
#     Edge 42, Type (0, 0), BuildingBlock: AJUNOK_clean_linker_0, # of connection points: 2
#     Edge 43, Type (0, 0), BuildingBlock: AJUNOK_clean_linker_0, # of connection points: 2
#     Edge 44, Type (0, 0), BuildingBlock: AJUNOK_clean_linker_0, # of connection points: 2
#     Edge 45, Type (0, 0), BuildingBlock: AJUNOK_clean_linker_0, # of connection points: 2
#     Edge 46, Type (0, 0), BuildingBlock: AJUNOK_clean_linker_0, # of connection points: 2
#     Edge 47, Type (0, 0), BuildingBlock: AJUNOK_clean_linker_0, # of connection points: 2
#     Edge 48, Type (0, 0), BuildingBlock: AJUNOK_clean_linker_0, # of connection points: 2
#     Edge 49, Type (0, 0), BuildingBlock: AJUNOK_clean_linker_0, # of connection points: 2
#     Edge 50, Type (0, 0), BuildingBlock: AJUNOK_clean_linker_0, # of connection points: 2
#     Edge 51, Type (0, 0), BuildingBlock: AJUNOK_clean_linker_0, # of connection points: 2
#     Edge 52, Type (0, 0), BuildingBlock: AJUNOK_clean_linker_0, # of connection points: 2
#     Edge 53, Type (0, 0), BuildingBlock: AJUNOK_clean_linker_0, # of connection points: 2
#     Edge 54, Type (0, 0), BuildingBlock: AJUNOK_clean_linker_0, # of connection points: 2
#     Edge 55, Type (0, 0), BuildingBlock: AJUNOK_clean_linker_0, # of connection points: 2
# Relax obj value: 0.592
# Max RMSD: 0.275
# Mean RMSD: 0.275
data_MOF--net-yfk--node1-XOMCOT_clean_sbu_1--edge1-AJUNOK_clean_linker_0
_symmetry_space_group_name_H-M    P1
_symmetry_Int_Tables_number       1
_symmetry_cell_setting            triclinic
loop_
_symmetry_equiv_pos_as_xyz
'x, y, z'
_cell_length_a     36.571164
_cell_length_b     36.590386
_cell_length_c     22.648204
_cell_angle_alpha  90.230306
_cell_angle_beta   89.858052
_cell_angle_gamma 89.684806
loop_
_atom_site_label
_atom_site_type_symbol
_atom_site_fract_x
_atom_site_fract_y
_atom_site_fract_z
_atom_type_partial_charge
C0 C 0.14954 0.15229 0.41187 0.0
C1 C 0.14814 0.12706 0.45663 0.0
N2 N 0.14901 0.09376 0.43168 0.0
N3 N 0.15067 0.13459 0.35941 0.0
C4 C 0.15087 0.09888 0.37319 0.0
H5 H 0.15042 0.18161 0.41738 0.0
Co6 Co 0.1559 0.15582 0.28625 0.0
C7 C 0.11606 0.10501 0.20131 0.0
O8 O 0.11093 0.13196 0.16408 0.0
N9 N 0.16282 0.1789 0.21335 0.0
C10 C 0.18357 0.19496 0.12441 0.0
C11 C 0.17991 0.16654 0.16407 0.0
C12 C 0.15759 0.21486 0.20323 0.0
N13 N 0.16957 0.22521 0.14985 0.0
O14 O 0.20495 0.1374 0.2845 0.0
H15 H 0.19018 0.13898 0.15822 0.0
H16 H 0.14681 0.23404 0.23496 0.0
O17 O 0.1355 0.11073 0.24774 0.0
C18 C 0.22464 0.16103 0.31112 0.0
O19 O 0.21017 0.19328 0.32243 0.0
N20 N 0.10905 0.17631 0.29534 0.0
C21 C 0.04932 0.20181 0.35879 0.0
C22 C 0.04641 0.17021 0.32464 0.0
C23 C 0.07696 0.15728 0.2946 0.0
C24 C 0.11079 0.20919 0.32383 0.0
C25 C 0.08104 0.22269 0.35563 0.0
H26 H 0.07528 0.12979 0.27903 0.0
H27 H 0.13689 0.22251 0.32919 0.0
H28 H 0.15377 0.07705 0.34149 0.0
H29 H 0.14662 0.13258 0.50357 0.0
H30 H 0.19715 0.19395 0.08191 0.0
H31 H 1.02256 0.15285 0.32812 0.0
H32 H 0.08432 0.24673 0.38316 0.0
C33 C 0.03727 0.85643 0.62953 0.0
C34 C 1.00352 0.85837 0.60428 0.0
N35 N 0.9853 0.88692 0.62795 0.0
N36 N 0.04149 0.88429 0.66821 0.0
C37 C 1.00829 0.90083 0.66866 0.0
H38 H 0.0581 0.83716 0.61653 0.0
Co39 Co 0.0819 0.89379 0.7178 0.0
C40 C 0.05265 0.97112 0.70216 0.0
O41 O 0.05638 0.96606 0.64506 0.0
N42 N 0.12001 0.90111 0.77326 0.0
C43 C 0.1497 0.92388 0.85084 0.0
C44 C 0.11653 0.92182 0.82247 0.0
C45 C 0.15526 0.88959 0.77452 0.0
N46 N 0.17428 0.9039 0.82013 0.0
O47 O 0.10187 0.84354 0.69652 0.0
H48 H 0.09165 0.93551 0.83625 0.0
H49 H 0.16695 0.87092 0.7432 0.0
O50 O 0.06047 0.94452 0.73764 0.0
C51 C 0.12876 0.83269 0.66395 0.0
O52 O 0.15243 0.85667 0.64448 0.0
N53 N 0.11 0.91687 0.65576 0.0
C54 C 0.13588 0.96428 0.56924 0.0
C55 C 0.11829 0.932 0.55318 0.0
C56 C 0.10573 0.90857 0.59706 0.0
C57 C 0.13103 0.9464 0.67102 0.0
C58 C 0.14421 0.9703 0.62851 0.0
H59 H 0.09186 0.88444 0.58292 0.0
H60 H 0.13434 0.95466 0.71634 0.0
H61 H 1.00075 0.92278 0.69823 0.0
H62 H 0.99462 0.84208 0.56702 0.0
H63 H 0.1555 0.93996 0.88989 0.0
H64 H 0.11246 0.92596 0.5073 0.0
H65 H 0.15768 0.99515 0.64257 0.0
C66 C 0.86267 1.02974 0.22435 0.0
C67 C 0.85058 0.0591 0.25747 0.0
N68 N 0.87687 0.06793 0.29664 0.0
N69 N 0.89615 1.01976 0.2433 0.0
C70 C 0.90486 0.04497 0.28429 0.0
H71 H 0.84644 1.01414 0.19347 0.0
Co72 Co 0.91885 0.97456 0.22919 0.0
C73 C 0.99167 1.01352 0.25152 0.0
O74 O 0.98774 1.01241 0.30901 0.0
N75 N 0.94191 0.92935 0.2077 0.0
C76 C 0.98436 0.88843 0.18065 0.0
C77 C 0.97831 0.9226 0.20367 0.0
C78 C 0.92673 0.89931 0.18236 0.0
N79 N 0.95187 0.87376 0.16712 0.0
O80 O 0.8705 0.94981 0.24181 0.0
H81 H 0.99971 0.94126 0.21616 0.0
H82 H 0.89782 0.89645 0.17363 0.0
O83 O 0.96674 1.00061 0.21741 0.0
C84 C 0.86451 0.92192 0.2749 0.0
O85 O 0.89241 0.90159 0.29103 0.0
N86 N 0.92632 0.96714 0.31358 0.0
C87 C 0.92652 0.94735 0.43226 0.0
C88 C 0.89769 0.96764 0.41007 0.0
C89 C 0.89793 0.97693 0.35075 0.0
C90 C 0.95515 0.94786 0.33638 0.0
C91 C 0.9558 0.93784 0.39558 0.0
H92 H 0.87343 0.98981 0.33426 0.0
H93 H 0.97824 0.94026 0.30991 0.0
H94 H 0.92826 0.04193 0.3126 0.0
H95 H 0.82306 0.07013 0.25739 0.0
H96 H 1.01074 0.87538 0.17439 0.0
H97 H 0.87462 0.97519 0.43775 0.0
H98 H 0.97894 0.92255 0.41257 0.0
C99 C 0.90094 0.19876 0.60719 0.0
C100 C 0.91771 0.21065 0.55714 0.0
N101 N 0.94881 0.1914 0.55036 0.0
N102 N 0.92114 0.172 0.63199 0.0
C103 C 0.95022 0.16775 0.59612 0.0
H104 H 0.87575 0.20953 0.62549 0.0
Co105 Co 0.90402 0.15416 0.70187 0.0
C106 C 0.95256 0.09272 0.74761 0.0
O107 O 0.92409 0.08119 0.7774 0.0
N108 N 0.88271 0.13948 0.77298 0.0
C109 C 0.86511 0.13937 0.86717 0.0
C110 C 0.89416 0.14458 0.82907 0.0
C111 C 0.84687 0.13161 0.77828 0.0
N112 N 0.83526 0.13165 0.8347 0.0
O113 O 0.92702 0.19592 0.73913 0.0
H114 H 0.92119 0.15379 0.84118 0.0
H115 H 0.82848 0.12961 0.74132 0.0
O116 O 0.94913 0.12168 0.71528 0.0
C117 C 0.90465 0.22254 0.74618 0.0
O118 O 0.86988 0.21448 0.75252 0.0
N119 N 0.88009 0.11709 0.65854 0.0
C120 C 0.86416 0.09544 0.5442 0.0
C121 C 0.88967 0.07591 0.57754 0.0
C122 C 0.89743 0.08721 0.63488 0.0
C123 C 0.85044 0.13172 0.63035 0.0
C124 C 0.84221 0.12157 0.57238 0.0
H125 H 0.92039 0.07444 0.65569 0.0
H126 H 0.83718 0.15576 0.64852 0.0
H127 H 0.97166 0.14786 0.60329 0.0
H128 H 0.90843 0.23264 0.52896 0.0
H129 H 0.86564 0.14288 0.91461 0.0
H130 H 0.90632 0.0548 0.55717 0.0
H131 H 0.82199 0.13701 0.54789 0.0
C132 C 0.22466 0.51474 0.93459 0.0
C133 C 0.24404 0.52613 0.88599 0.0
N134 N 0.2251 0.51633 0.83791 0.0
N135 N 0.194 0.49722 0.91745 0.0
C136 C 0.19423 0.50061 0.85808 0.0
H137 H 0.23504 0.51436 -0.02073 0.0
Co138 Co 0.17975 0.46162 0.97189 0.0
C139 C 0.11367 0.50959 0.96507 0.0
O140 O 0.11881 0.50779 0.90775 0.0
N141 N 0.17032 0.42769 0.03134 0.0
C142 C 0.16224 0.40445 0.12083 0.0
C143 C 0.16532 0.43619 0.08874 0.0
C144 C 0.17026 0.39079 0.02964 0.0
N145 N 0.16526 0.3759 0.08332 0.0
O146 O 0.22225 0.43197 0.9422 0.0
H147 H 0.16484 0.46374 0.10625 0.0
H148 H 0.17447 0.37501 -0.0098 0.0
O149 O 0.13708 0.49389 -0.0005 0.0
C150 C 0.22999 0.4029 0.91243 0.0
O151 O 0.20451 0.3793 0.8986 0.0
N152 N 0.14612 0.43656 0.9208 0.0
C153 C 0.08775 0.41388 0.85197 0.0
C154 C 0.12243 0.41784 0.82675 0.0
C155 C 0.15156 0.4284 0.86247 0.0
C156 C 0.11324 0.42799 0.94641 0.0
C157 C 0.08383 0.41673 0.91291 0.0
H158 H 0.17798 0.43166 0.84214 0.0
H159 H 0.10814 0.43295 -0.00729 0.0
H160 H 0.17355 0.49008 0.82896 0.0
H161 H 0.27163 0.53671 0.88593 0.0
H162 H 0.15857 0.40252 0.16816 0.0
H163 H 0.12644 0.41508 0.77953 0.0
H164 H 0.05734 0.41415 0.93402 0.0
C165 C 0.48996 0.875 -0.00172 0.0
C166 C 0.51142 0.86344 0.04456 0.0
N167 N 0.49597 0.87555 0.09493 0.0
N168 N 0.46106 0.89406 0.01942 0.0
C169 C 0.46578 0.89397 0.07864 0.0
H170 H 0.49395 0.86812 0.95222 0.0
Co171 Co 0.42118 0.90452 0.97068 0.0
C172 C 0.44184 0.97854 0.92213 0.0
O173 O 0.40783 0.98996 0.92724 0.0
N174 N 0.3821 0.91162 0.91674 0.0
C175 C 0.35344 0.92411 0.83234 0.0
C176 C 0.38612 0.92524 0.86174 0.0
C177 C 0.34704 0.89956 0.91737 0.0
N178 N 0.32873 0.90769 0.86722 0.0
O179 O 0.39594 0.86169 0.00757 0.0
H180 H 0.41147 0.93469 0.84284 0.0
H181 H 0.33533 0.8837 0.95281 0.0
O182 O 0.44967 0.94523 0.93489 0.0
C183 C 0.38782 0.85453 0.06165 0.0
O184 O 0.38742 0.88059 0.10137 0.0
N185 N 0.40103 0.93939 0.02669 0.0
C186 C 0.37991 0.97901 0.12606 0.0
C187 C 0.41497 0.98297 0.10297 0.0
C188 C 0.42488 0.96325 0.05284 0.0
C189 C 0.365 0.94026 0.04354 0.0
C190 C 0.35404 0.95919 0.09437 0.0
H191 H 0.45316 0.9644 0.03915 0.0
H192 H 0.34533 0.92253 0.02376 0.0
H193 H 0.44674 0.90542 0.11009 0.0
H194 H 0.53584 0.84667 0.04162 0.0
H195 H 0.34844 0.93504 0.7888 0.0
H196 H 0.43554 0.99846 0.12651 0.0
H197 H 0.32657 0.95578 0.1114 0.0
C198 C 0.95715 0.65806 0.82407 0.0
C199 C 0.94117 0.64371 0.77452 0.0
N200 N 0.9218 0.61425 0.79085 0.0
N201 N 0.9484 0.63727 0.87102 0.0
C202 C 0.92809 0.60993 0.84895 0.0
H203 H 0.97064 0.68424 0.82669 0.0
Co204 Co 0.94573 0.65625 0.94641 0.0
C205 C 0.98757 0.60231 0.02118 0.0
O206 O 0.99809 0.63031 0.05324 0.0
N207 N 0.94038 0.67867 0.02041 0.0
C208 C 0.93006 0.69665 0.11326 0.0
C209 C 0.93277 0.66685 0.07556 0.0
C210 C 0.93883 0.71538 0.02509 0.0
N211 N 0.93454 0.72713 0.08104 0.0
O212 O 0.894 0.6429 0.9473 0.0
H213 H 0.92944 0.63852 0.08778 0.0
H214 H 0.93912 0.73347 -0.01241 0.0
O215 O 0.96216 0.60758 -0.01776 0.0
C216 C 0.87338 0.6638 0.91637 0.0
O217 O 0.88633 0.69592 0.90152 0.0
N218 N 0.99612 0.66987 0.93977 0.0
C219 C 0.06778 0.68407 0.90377 0.0
C220 C 0.05507 0.64837 0.90826 0.0
C221 C 1.01915 0.64224 0.92257 0.0
C222 C 1.00831 0.70516 0.93711 0.0
C223 C 0.04418 0.71292 0.91896 0.0
H224 H 1.00922 0.61521 0.91353 0.0
H225 H 0.98979 0.72774 0.94238 0.0
H226 H 0.91423 0.59018 0.87623 0.0
H227 H 0.94175 0.65552 0.73081 0.0
H228 H 0.9258 0.69593 0.16055 0.0
H229 H 0.07114 0.62527 0.8926 0.0
H230 H 0.05237 0.74101 0.91227 0.0
C231 C 0.52914 0.2082 0.00649 0.0
C232 C 0.50449 0.21392 0.05167 0.0
N233 N 0.50544 0.18428 0.0863 0.0
N234 N 0.54618 0.17569 0.01406 0.0
C235 C 0.53043 0.16161 0.06265 0.0
H236 H 0.53627 0.2277 0.97265 0.0
Co237 Co 0.58664 0.1633 0.96838 0.0
C238 C 0.54571 0.09167 0.96341 0.0
O239 O 0.54915 0.0883 0.02064 0.0
N240 N 0.6264 0.15351 0.91758 0.0
C241 C 0.6568 0.14845 0.83246 0.0
C242 C 0.62313 0.15468 0.85828 0.0
C243 C 0.66236 0.14645 0.92655 0.0
N244 N 0.68135 0.14365 0.87584 0.0
O245 O 0.61047 0.20844 -0.00075 0.0
H246 H 0.59783 0.16034 0.83533 0.0
H247 H 0.67472 0.14198 0.96903 0.0
O248 O 0.55968 0.11928 0.93652 0.0
C249 C 0.6403 0.21602 0.0261 0.0
O250 O 0.66475 0.19028 0.03408 0.0
N251 N 0.6085 0.13451 0.03002 0.0
C252 C 0.63731 0.08928 0.11751 0.0
C253 C 0.62452 0.12434 0.13173 0.0
C254 C 0.61027 0.14656 0.0873 0.0
C255 C 0.62272 0.10094 0.01563 0.0
C256 C 0.63704 0.078 0.0585 0.0
H257 H 0.59983 0.17325 0.09938 0.0
H258 H 0.62165 0.09091 0.97072 0.0
H259 H 0.53967 0.13739 0.08515 0.0
H260 H 0.48904 0.23865 0.06064 0.0
H261 H 0.66297 0.14848 0.78568 0.0
H262 H 0.62486 0.13426 0.17684 0.0
H263 H 0.64632 0.05093 0.04571 0.0
C264 C 0.69672 0.52125 0.78272 0.0
C265 C 0.707 0.50875 0.83786 0.0
N266 N 0.7137 0.5379 0.87298 0.0
N267 N 0.69691 0.55801 0.78352 0.0
C268 C 0.70798 0.56703 0.83835 0.0
H269 H 0.68878 0.50472 0.74523 0.0
Co270 Co 0.68527 0.59324 0.72726 0.0
C271 C 0.60893 0.57343 0.68768 0.0
O272 O 0.60074 0.60832 0.69269 0.0
N273 N 0.67534 0.62869 0.6692 0.0
C274 C 0.65876 0.65278 0.58325 0.0
C275 C 0.66267 0.62103 0.61466 0.0
C276 C 0.68155 0.66514 0.66792 0.0
N277 N 0.67046 0.68079 0.61692 0.0
O278 O 0.72794 0.62162 0.75482 0.0
H279 H 0.65658 0.59393 0.59838 0.0
H280 H 0.69618 0.67958 0.70182 0.0
O281 O 0.64204 0.56302 0.69863 0.0
C282 C 0.76026 0.60806 0.75698 0.0
O283 O 0.76653 0.57637 0.7313 0.0
N284 N 0.65426 0.61654 0.78546 0.0
C285 C 0.61016 0.64302 0.87748 0.0
C286 C 0.60713 0.607 0.85798 0.0
C287 C 0.62936 0.59436 0.81271 0.0
C288 C 0.65904 0.65133 0.80651 0.0
C289 C 0.63694 0.66528 0.85212 0.0
H290 H 0.62731 0.56585 0.80132 0.0
H291 H 0.68089 0.66814 0.79065 0.0
H292 H 0.71206 0.59494 0.85193 0.0
H293 H 0.70791 0.48046 0.85155 0.0
H294 H 0.64794 0.6549 0.53898 0.0
H295 H 0.58833 0.58818 0.87874 0.0
H296 H 0.64107 0.69293 0.86786 0.0
C297 C 0.67267 0.43343 0.06607 0.0
C298 C 0.65818 0.43391 0.01036 0.0
N299 N 0.62171 0.43032 0.01546 0.0
N300 N 0.64538 0.42988 0.10575 0.0
C301 C 0.61471 0.4276 0.07366 0.0
H302 H 0.7014 0.43404 0.077 0.0
Co303 Co 0.65293 0.42302 0.18492 0.0
C304 C 0.59215 0.46907 0.23916 0.0
O305 O 0.61625 0.48326 0.27547 0.0
N306 N 0.66383 0.41372 0.26403 0.0
C307 C 0.67304 0.40704 0.36056 0.0
C308 C 0.6476 0.41567 0.3176 0.0
C309 C 0.69767 0.40097 0.27559 0.0
N310 N 0.70478 0.39813 0.33355 0.0
O311 O 0.63429 0.37386 0.17586 0.0
H312 H 0.61944 0.4232 0.32564 0.0
H313 H 0.71735 0.39432 0.24157 0.0
O314 O 0.60264 0.44347 0.20357 0.0
C315 C 0.65965 0.35421 0.15284 0.0
O316 O 0.69197 0.3691 0.14596 0.0
N317 N 0.67425 0.47039 0.18804 0.0
C318 C 0.7115 0.5208 0.11954 0.0
C319 C 0.67388 0.52476 0.12942 0.0
C320 C 0.65566 0.4989 0.16282 0.0
C321 C 0.71165 0.47106 0.18898 0.0
C322 C 0.73094 0.49609 0.15462 0.0
H323 H 0.62657 0.49817 0.15656 0.0
H324 H 0.72707 0.44872 0.20677 0.0
H325 H 0.588 0.42282 0.09236 0.0
H326 H 0.67344 0.43509 0.96941 0.0
H327 H 0.66879 0.40888 0.40776 0.0
H328 H 0.65738 0.54297 0.10276 0.0
H329 H 0.76013 0.49242 0.14865 0.0
C330 C 0.38552 0.51517 0.70214 0.0
C331 C 0.36922 0.53982 0.74027 0.0
N332 N 0.37176 0.52648 0.79549 0.0
N333 N 0.39897 0.48682 0.73321 0.0
C334 C 0.38999 0.49451 0.78969 0.0
H335 H 0.38689 0.51739 0.65458 0.0
Co336 Co 0.41672 0.44384 0.6987 0.0
C337 C 0.49199 0.46471 0.65736 0.0
O338 O 0.50251 0.43104 0.66838 0.0
N339 N 0.43009 0.4007 0.65705 0.0
C340 C 0.44453 0.36607 0.57906 0.0
C341 C 0.44383 0.4009 0.60159 0.0
C342 C 0.42025 0.3653 0.66527 0.0
N343 N 0.42944 0.34362 0.61902 0.0
O344 O 0.37592 0.41739 0.74105 0.0
H345 H 0.4516 0.4251 0.57754 0.0
H346 H 0.40537 0.35567 0.70349 0.0
O347 O 0.45752 0.47266 0.66006 0.0
C348 C 0.37221 0.40786 0.79553 0.0
O349 O 0.40008 0.41024 0.83146 0.0
N350 N 0.45162 0.43553 0.76108 0.0
C351 C 0.5093 0.42906 0.84072 0.0
C352 C 0.4957 0.46334 0.82545 0.0
C353 C 0.46779 0.466 0.7847 0.0
C354 C 0.46462 0.40167 0.77667 0.0
C355 C 0.49323 0.39786 0.81678 0.0
H356 H 0.46078 0.49313 0.76998 0.0
H357 H 0.45273 0.37711 0.75988 0.0
H358 H 0.39832 0.47771 0.82621 0.0
H359 H 0.35667 0.56553 0.72819 0.0
H360 H 0.45507 0.35803 0.53622 0.0
H361 H 0.50716 0.48817 0.84372 0.0
H362 H 0.50307 0.37082 0.82815 0.0
C363 C 0.4921 0.6943 0.15767 0.0
C364 C 0.51985 0.70011 0.11773 0.0
N365 N 0.52304 0.67 0.08394 0.0
N366 N 0.47763 0.66086 0.14857 0.0
C367 C 0.49817 0.6462 0.10477 0.0
H368 H 0.48215 0.71381 0.19 0.0
Co369 Co 0.43708 0.64399 0.19081 0.0
C370 C 0.47163 0.56769 0.17459 0.0
O371 O 0.45862 0.56428 0.12094 0.0
N372 N 0.39791 0.62861 0.24008 0.0
C373 C 0.37029 0.59914 0.31354 0.0
C374 C 0.40231 0.60322 0.28275 0.0
C375 C 0.3627 0.64007 0.24707 0.0
N376 N 0.34544 0.62243 0.29127 0.0
O377 O 0.41305 0.69196 0.17639 0.0
H378 H 0.42752 0.58901 0.29254 0.0
H379 H 0.35008 0.66187 0.2226 0.0
O380 O 0.46431 0.59673 0.20473 0.0
C381 C 0.38617 0.70379 0.14529 0.0
O382 O 0.36296 0.68077 0.12155 0.0
N383 N 0.41363 0.62492 0.12101 0.0
C384 C 0.37937 0.5981 0.01866 0.0
C385 C 0.40395 0.62734 0.01603 0.0
C386 C 0.41948 0.64109 0.06741 0.0
C387 C 0.38867 0.59725 0.12467 0.0
C388 C 0.37013 0.5848 0.07482 0.0
H389 H 0.43557 0.66557 0.0636 0.0
H390 H 0.38307 0.58378 0.16589 0.0
H391 H 0.49352 0.61955 0.08567 0.0
H392 H 0.53508 0.72513 0.1118 0.0
H393 H 0.36582 0.58099 0.35048 0.0
H394 H 0.4119 0.63958 0.97462 0.0
H395 H 0.34917 0.56453 0.08112 0.0
C396 C 0.66613 0.90718 0.28002 0.0
C397 C 0.66891 0.93376 0.23767 0.0
N398 N 0.66473 0.96631 0.26438 0.0
N399 N 0.65915 0.92289 0.33311 0.0
C400 C 0.66011 0.95914 0.32202 0.0
H401 H 0.67061 0.87845 0.27208 0.0
Co402 Co 0.65824 0.90112 0.40822 0.0
C403 C 0.59972 0.95867 0.41825 0.0
O404 O 0.58866 0.94882 0.36539 0.0
N405 N 0.65892 0.87899 0.48184 0.0
C406 C 0.64547 0.85975 0.57204 0.0
C407 C 0.64345 0.88881 0.53361 0.0
C408 C 0.67055 0.84438 0.49009 0.0
N409 N 0.66266 0.83164 0.54457 0.0
O410 O 0.70395 0.92512 0.42259 0.0
H411 H 0.62935 0.91437 0.5419 0.0
H412 H 0.68292 0.82823 0.45528 0.0
O413 O 0.62806 0.94314 0.44093 0.0
C414 C 0.72734 0.90307 0.39969 0.0
O415 O 0.71618 0.87054 0.38325 0.0
N416 N 0.61634 0.8739 0.38972 0.0
C417 C 0.55975 0.84944 0.32118 0.0
C418 C 0.55221 0.86659 0.37559 0.0
C419 C 0.58153 0.87814 0.41055 0.0
C420 C 0.62322 0.84786 0.34817 0.0
C421 C 0.59526 0.83602 0.3115 0.0
H422 H 0.57617 0.89382 0.45016 0.0
H423 H 0.65108 0.83972 0.33886 0.0
H424 H 0.65825 0.98014 0.35566 0.0
H425 H 0.67336 0.92955 0.19085 0.0
H426 H 0.63267 0.85887 0.61505 0.0
H427 H 0.52459 0.87453 0.3875 0.0
H428 H 0.60238 0.82061 0.27216 0.0
C429 C 0.89553 0.43493 0.70523 0.0
C430 C 0.91821 0.43546 0.75362 0.0
N431 N 0.95274 0.43758 0.73363 0.0
N432 N 0.91602 0.43694 0.65557 0.0
C433 C 0.95064 0.43851 0.67471 0.0
H434 H 0.8665 0.42974 0.70646 0.0
Co435 Co 0.90312 0.4247 0.57935 0.0
C436 C 0.96346 0.46476 0.50494 0.0
O437 O 0.94449 0.46568 0.45579 0.0
N438 N 0.88856 0.41084 0.50435 0.0
C439 C 0.88077 0.38651 0.41512 0.0
C440 C 0.90624 0.39619 0.45744 0.0
C441 C 0.85283 0.40843 0.49068 0.0
N442 N 0.84725 0.39381 0.43706 0.0
O443 O 0.92712 0.37755 0.59169 0.0
H444 H 0.93549 0.39199 0.45474 0.0
H445 H 0.83096 0.41687 0.51982 0.0
O446 O 0.94975 0.44909 0.55064 0.0
C447 C 0.90259 0.3588 0.61813 0.0
O448 O 0.86902 0.37185 0.61803 0.0
N449 N 0.87599 0.46849 0.57383 0.0
C450 C 0.8465 0.53009 0.62552 0.0
C451 C 0.8726 0.53352 0.58053 0.0
C452 C 0.8877 0.50199 0.55579 0.0
C453 C 0.84427 0.46578 0.60535 0.0
C454 C 0.82895 0.49654 0.63231 0.0
H455 H 0.91104 0.50531 0.52802 0.0
H456 H 0.83422 0.43914 0.6176 0.0
H457 H 0.97422 0.43549 0.64646 0.0
H458 H 0.91027 0.43181 0.79928 0.0
H459 H 0.88633 0.37433 0.37237 0.0
H460 H 0.88616 0.55933 0.57271 0.0
H461 H 0.80818 0.493 0.66597 0.0
C462 C 0.3949 1.02485 0.46324 0.0
C463 C 0.38141 1.0034 0.41821 0.0
N464 N 0.38641 1.02145 0.36731 0.0
N465 N 0.40905 0.0558 0.44062 0.0
C466 C 0.4035 0.0526 0.38189 0.0
H467 H 0.39358 1.01881 0.5099 0.0
Co468 Co 0.42275 0.09461 0.48964 0.0
C469 C 0.50157 0.07054 0.51095 0.0
O470 O 0.51446 0.10373 0.50413 0.0
N471 N 0.43364 0.13284 0.54459 0.0
C472 C 0.4583 0.16722 0.61558 0.0
C473 C 0.45881 0.13354 0.58819 0.0
C474 C 0.41612 0.16544 0.55057 0.0
N475 N 0.43183 0.18768 0.59086 0.0
O476 O 0.37674 0.11994 0.46387 0.0
H477 H 0.47663 0.11119 0.60007 0.0
H478 H 0.39279 0.17331 0.52431 0.0
O479 O 0.4668 0.06571 0.51226 0.0
C480 C 0.36642 0.13148 0.41289 0.0
O481 O 0.38895 0.1317 0.36796 0.0
N482 N 0.45158 0.11769 0.42877 0.0
C483 C 0.48046 0.14714 0.326 0.0
C484 C 0.48656 0.11041 0.33963 0.0
C485 C 0.47241 0.09635 0.39179 0.0
C486 C 0.45083 0.15475 0.41998 0.0
C487 C 0.46467 0.16998 0.36843 0.0
H488 H 0.47533 0.06736 0.39932 0.0
H489 H 0.43515 0.17259 0.44758 0.0
H490 H 0.41198 0.07229 0.34957 0.0
H491 H 0.36826 0.97712 0.42258 0.0
H492 H 0.47694 0.17634 0.64957 0.0
H493 H 0.49971 0.09214 0.30827 0.0
H494 H 0.45954 0.19861 0.3594 0.0
C495 C 0.18427 0.60949 0.65235 0.0
C496 C 0.18169 0.6227 0.70852 0.0
N497 N 0.14743 0.6349 0.71689 0.0
N498 N 0.15172 0.61261 0.62468 0.0
C499 C 0.1296 0.62837 0.66544 0.0
H500 H 0.20969 0.60283 0.63066 0.0
Co501 Co 0.15227 0.61366 0.54205 0.0
C502 C 0.09346 0.55811 0.50835 0.0
O503 O 0.1185 0.54004 0.47839 0.0
N504 N 0.1581 0.61794 0.4596 0.0
C505 C 0.17234 0.60822 0.36523 0.0
C506 C 0.14647 0.60241 0.40893 0.0
C507 C 0.18885 0.6356 0.44365 0.0
N508 N 0.19992 0.62822 0.38793 0.0
O509 O 0.12982 0.66255 0.54625 0.0
H510 H 0.12235 0.58592 0.40397 0.0
H511 H 0.2044 0.65107 0.47499 0.0
O512 O 0.10219 0.58818 0.53525 0.0
C513 C 0.15306 0.68608 0.56478 0.0
O514 O 0.18707 0.67519 0.57163 0.0
N515 N 0.17715 0.56761 0.54228 0.0
C516 C 0.22429 0.52034 0.60073 0.0
C517 C 0.18631 0.51638 0.60604 0.0
C518 C 0.16345 0.54124 0.57855 0.0
C519 C 0.21331 0.56638 0.52669 0.0
C520 C 0.23766 0.54307 0.5561 0.0
H521 H 0.13607 0.54339 0.59576 0.0
H522 H 0.22484 0.58715 0.49929 0.0
H523 H 0.10234 0.63823 0.65565 0.0
H524 H 0.20437 0.62691 0.73824 0.0
H525 H 0.17218 0.59588 0.32173 0.0
H526 H 0.17438 0.49937 0.63998 0.0
H527 H 0.26681 0.54651 0.54986 0.0
C528 C 0.1826 0.32659 0.15179 0.0
C529 C 0.1668 0.33762 0.09816 0.0
C530 C 0.1845 0.28966 0.16731 0.0
C531 C 0.17098 0.26231 0.12964 0.0
H532 H 0.19374 0.34664 0.18195 0.0
H533 H 0.19641 0.28233 0.2094 0.0
S534 S 0.12558 0.2763 -0.01429 0.0
N535 N 0.13613 0.31793 0.00819 0.0
N536 N 0.14071 0.24831 0.03736 0.0
C537 C 0.15554 0.27266 0.0757 0.0
C538 C 0.15318 0.31038 0.05997 0.0
C539 C 0.22667 0.90478 0.88937 0.0
C540 C 0.21321 0.90133 0.83136 0.0
C541 C 0.26437 0.90541 0.901 0.0
C542 C 0.29027 0.90257 0.85512 0.0
H543 H 0.2079 0.90755 0.92615 0.0
H544 H 0.27326 0.90949 0.94609 0.0
S545 S 0.26984 0.89023 0.69576 0.0
N546 N 0.22936 0.89407 0.72751 0.0
N547 N 0.2998 0.89295 0.74991 0.0
C548 C 0.27728 0.89745 0.79722 0.0
C549 C 0.23892 0.89734 0.78521 0.0
C550 C 0.91862 0.81495 0.16564 0.0
C551 C 0.94586 0.83792 0.14247 0.0
C552 C 0.915 0.77861 0.14579 0.0
C553 C 0.93812 0.76436 0.10146 0.0
H554 H 0.90077 0.82484 0.20049 0.0
H555 H 0.894 0.76159 0.16496 0.0
S556 S 1.01323 0.81374 0.02593 0.0
N557 N 0.9955 0.84414 0.07196 0.0
N558 N 0.98934 0.77612 0.03569 0.0
C559 C 0.96509 0.78733 0.07763 0.0
C560 C 0.96879 0.82404 0.09785 0.0
C561 C 0.77221 0.11006 0.81998 0.0
C562 C 0.79727 0.13141 0.85215 0.0
C563 C 0.73439 0.11383 0.82835 0.0
C564 C 0.72022 0.13868 0.86988 0.0
H565 H 0.78197 0.09098 0.78675 0.0
H566 H 0.71604 0.09746 0.80187 0.0
S567 S 0.77345 0.20122 0.96549 0.0
N568 N 0.80473 0.17859 0.92716 0.0
N569 N 0.73367 0.18485 0.94386 0.0
C570 C 0.74479 0.15937 0.90378 0.0
C571 C 0.78332 0.15587 0.89482 0.0
C572 C 0.6712 0.72893 0.54069 0.0
C573 C 0.67077 0.71906 0.60066 0.0
C574 C 0.66888 0.76546 0.52309 0.0
C575 C 0.66671 0.79422 0.56456 0.0
H576 H 0.67305 0.70826 0.50654 0.0
H577 H 0.66794 0.77082 0.47624 0.0
S578 S 0.66675 0.78367 0.72771 0.0
N579 N 0.66813 0.74143 0.70205 0.0
N580 N 0.66668 0.81021 0.66899 0.0
C581 C 0.66753 0.78494 0.62491 0.0
C582 C 0.66901 0.74746 0.64293 0.0
C583 C 0.80695 0.40364 0.35199 0.0
C584 C 0.81228 0.38997 0.40897 0.0
C585 C 0.77188 0.40557 0.32752 0.0
C586 C 0.74076 0.39346 0.35883 0.0
H587 H 0.82981 0.41462 0.32744 0.0
H588 H 0.76915 0.41805 0.28455 0.0
S589 S 0.74138 0.35071 0.50696 0.0
N590 N 0.78457 0.36123 0.49444 0.0
N591 N 0.71856 0.36404 0.44791 0.0
C592 C 0.74611 0.37808 0.41489 0.0
C593 C 0.78188 0.37646 0.44001 0.0
C594 C 0.43349 0.24318 0.65408 0.0
C595 C 0.42627 0.22663 0.59902 0.0
C596 C 0.43274 0.2814 0.66117 0.0
C597 C 0.42506 0.30456 0.61333 0.0
H598 H 0.4406 0.22647 0.69172 0.0
H599 H 0.4398 0.29296 0.7037 0.0
S600 S 0.4012 0.27558 0.46114 0.0
N601 N 0.40937 0.23705 0.4964 0.0
N602 N 0.40692 0.30834 0.51049 0.0
C603 C 0.41607 0.28845 0.55886 0.0
C604 C 0.41687 0.24965 0.55152 0.0
C605 C 0.27833 0.62816 0.27798 0.0
C606 C 0.30927 0.62901 0.3146 0.0
C607 C 0.24273 0.6295 0.30206 0.0
C608 C 0.2367 0.63204 0.36364 0.0
H609 H 0.2817 0.62487 0.23074 0.0
H610 H 0.21975 0.62767 0.27221 0.0
S611 S 0.31044 0.63944 0.47714 0.0
N612 N 0.33244 0.63592 0.4138 0.0
N613 N 0.26673 0.63818 0.45984 0.0
C614 C 0.26809 0.63498 0.40014 0.0
C615 C 0.30401 0.63346 0.3754 0.0
C616 C 0.28499 0.18068 0.35069 0.0
C617 C 0.26056 0.15205 0.33803 0.0
C618 C 0.31821 0.17421 0.3797 0.0
C619 C 0.32786 0.13908 0.39893 0.0
H620 H 0.27875 0.20835 0.337 0.0
H621 H 0.33708 0.19669 0.38544 0.0
S622 S 0.27357 0.05473 0.37872 0.0
N623 N 0.24829 0.0871 0.34823 0.0
N624 N 0.31067 0.07519 0.40363 0.0
C625 C 0.30348 0.11029 0.38796 0.0
C626 C 0.26986 0.11669 0.35729 0.0
C627 C 0.16663 0.78353 0.61726 0.0
C628 C 0.13282 0.79404 0.64215 0.0
C629 C 0.17182 0.74937 0.59045 0.0
C630 C 0.14343 0.72368 0.58612 0.0
H631 H 0.18973 0.80192 0.61839 0.0
H632 H 0.19878 0.74301 0.57318 0.0
S633 S 0.04906 0.73681 0.6433 0.0
N634 N 0.07026 0.77492 0.66189 0.0
N635 N 0.07959 0.71138 0.60789 0.0
C636 C 0.10912 0.73369 0.60973 0.0
C637 C 0.10401 0.76847 0.63894 0.0
C638 C 0.8003 0.94341 0.30127 0.0
C639 C 0.82964 0.91868 0.30939 0.0
C640 C 0.76796 0.94098 0.33525 0.0
C641 C 0.76402 0.91405 0.37904 0.0
H642 H 0.80199 0.96432 0.26768 0.0
H643 H 0.74519 0.95886 0.32483 0.0
S644 S 0.83301 0.84482 0.4222 0.0
N645 N 0.85264 0.86769 0.36823 0.0
N646 N 0.79235 0.86379 0.43108 0.0
C647 C 0.79353 0.89043 0.3894 0.0
C648 C 0.82615 0.89254 0.35491 0.0
C649 C 0.88565 0.32004 0.70375 0.0
C650 C 0.91036 0.3268 0.65724 0.0
C651 C 0.88703 0.28784 0.73673 0.0
C652 C 0.91306 0.26035 0.72492 0.0
H653 H 0.86376 0.33922 0.71356 0.0
H654 H 0.86576 0.28346 0.7693 0.0
S655 S 0.9899 0.26833 0.61799 0.0
N656 N 0.96591 0.30623 0.60817 0.0
N657 N 0.96878 0.24527 0.67055 0.0
C658 C 0.94068 0.26842 0.68315 0.0
C659 C 0.93921 0.30167 0.64915 0.0
C660 C 0.33231 0.40495 0.88539 0.0
C661 C 0.33557 0.40189 0.82329 0.0
C662 C 0.29822 0.40519 0.9139 0.0
C663 C 0.26593 0.40003 0.88211 0.0
H664 H 0.35629 0.40868 0.91258 0.0
H665 H 0.29717 0.40942 0.96126 0.0
S666 S 0.2591 0.38355 0.72052 0.0
N667 N 0.3032 0.3902 0.73174 0.0
N668 N 0.23927 0.38706 0.78596 0.0
C669 C 0.26873 0.39382 0.82067 0.0
C670 C 0.30345 0.39548 0.79112 0.0
C671 C 0.37054 0.78826 0.05016 0.0
C672 C 0.38669 0.81628 0.0834 0.0
C673 C 0.36938 0.75221 0.07159 0.0
C674 C 0.38508 0.74268 0.12642 0.0
H675 H 0.35847 0.79427 0.00763 0.0
H676 H 0.35687 0.73148 0.04413 0.0
S677 S 0.43202 0.80582 0.22937 0.0
N678 N 0.41937 0.8319 0.17368 0.0
N679 N 0.41769 0.76434 0.21284 0.0
C680 C 0.40162 0.77043 0.15969 0.0
C681 C 0.40229 0.80713 0.13847 0.0
C682 C 0.82132 0.67296 0.8448 0.0
C683 C 0.84094 0.64941 0.88294 0.0
C684 C 0.79476 0.65975 0.80515 0.0
C685 C 0.78728 0.62226 0.80067 0.0
H686 H 0.82713 0.70194 0.84433 0.0
H687 H 0.78089 0.6789 0.77638 0.0
S688 S 0.82678 0.54926 0.89495 0.0
N689 N 0.84714 0.5869 0.91781 0.0
N690 N 0.79911 0.56198 0.84128 0.0
C691 C 0.80551 0.59852 0.83987 0.0
C692 C 0.83172 0.61208 0.88151 0.0
C693 C 0.61519 0.27552 0.0681 0.0
C694 C 0.645 0.25156 0.05796 0.0
C695 C 0.61926 0.30797 0.10146 0.0
C696 C 0.65329 0.31761 0.12585 0.0
H697 H 0.58848 0.26915 0.05039 0.0
H698 H 0.59593 0.32607 0.10664 0.0
S699 S 0.73959 0.26394 0.11433 0.0
N700 N 0.70961 0.24001 0.07636 0.0
N701 N 0.71686 0.29984 0.13937 0.0
C702 C 0.68298 0.29353 0.11696 0.0
C703 C 0.67897 0.26089 0.08295 0.0
C704 C 0.05457 0.07966 0.17215 0.0
C705 C 0.08816 0.07498 0.20229 0.0
C706 C 1.02391 0.05777 0.18465 0.0
C707 C 1.02556 1.03048 0.22797 0.0
H708 H 0.05095 0.10207 0.14162 0.0
H709 H 0.99815 0.06402 0.16337 0.0
S710 S 0.10864 1.00096 0.30893 0.0
N711 N 0.12248 0.03582 0.2687 0.0
N712 N 0.06474 0.99603 0.29416 0.0
C713 C 0.05964 1.0233 0.25439 0.0
C714 C 0.09095 0.0451 0.24094 0.0
C715 C 1.0098 1.00596 0.77004 0.0
C716 C 0.03387 1.00572 0.72169 0.0
C717 C 0.98566 0.03555 0.78009 0.0
C718 C 0.98428 0.06636 0.7423 0.0
H719 H 1.00788 0.98218 0.79817 0.0
H720 H 0.96654 0.03325 0.81646 0.0
S721 S 0.04615 0.08176 0.61481 0.0
N722 N 0.05834 0.04118 0.63997 0.0
N723 N 1.01279 0.09614 0.65852 0.0
C724 C 1.01038 0.06773 0.69669 0.0
C725 C 0.03511 0.03763 0.68653 0.0
C726 C 0.07761 0.54902 0.03752 0.0
C727 C 0.07869 0.52697 -0.01336 0.0
C728 C 0.04658 0.57075 0.05111 0.0
C729 C 1.01499 0.57136 0.01474 0.0
H730 H 0.10167 0.55128 0.06505 0.0
H731 H 0.04833 0.58888 0.08889 0.0
S732 S 1.00135 0.51264 0.88263 0.0
N733 N 0.04341 0.50305 0.90423 0.0
N734 N 0.98547 0.54317 0.9302 0.0
C735 C 1.0146 0.54667 0.9669 0.0
C736 C 0.04631 0.52489 0.95266 0.0
C737 C 0.5067 0.99824 0.93828 0.0
C738 C 0.47162 1.0061 0.91603 0.0
C739 C 0.53245 1.02604 0.94724 0.0
C740 C 0.52458 0.06271 0.93321 0.0
H741 H 0.5134 0.97098 0.95347 0.0
H742 H 0.55779 1.0192 0.96944 0.0
S743 S 0.4394 0.09706 0.86459 0.0
N744 N 0.43228 0.05283 0.87306 0.0
N745 N 0.48103 0.10479 0.88975 0.0
C746 C 0.49116 0.07045 0.90564 0.0
C747 C 0.46461 0.04222 0.89711 0.0
C748 C 0.55838 0.48348 0.65849 0.0
C749 C 0.521 0.49377 0.65715 0.0
C750 C 0.5865 0.50916 0.66725 0.0
C751 C 0.57881 0.5466 0.67482 0.0
H752 H 0.56616 0.45499 0.65439 0.0
H753 H 0.61448 0.49939 0.66912 0.0
S754 S 0.48564 0.58851 0.67379 0.0
N755 N 0.47817 0.54455 0.66319 0.0
N756 N 0.53043 0.59275 0.67901 0.0
C757 C 0.54156 0.55749 0.67202 0.0
C758 C 0.51293 0.53122 0.66328 0.0
C759 C 0.52263 0.54782 0.24286 0.0
C760 C 0.49854 0.53962 0.19636 0.0
C761 C 0.55132 0.52384 0.25839 0.0
C762 C 0.55739 0.49033 0.22838 0.0
H763 H 0.52037 0.57372 0.26594 0.0
H764 H 0.56981 0.53256 0.29288 0.0
S765 S 0.49853 0.45308 0.10936 0.0
N766 N 0.48037 0.49345 0.12458 0.0
N767 N 0.53363 0.44854 0.15445 0.0
C768 C 0.53195 0.48069 0.18451 0.0
C769 C 0.50283 0.50522 0.16835 0.0
C770 C 0.58909 1.016 0.47868 0.0
C771 C 0.57564 0.98386 0.45264 0.0
C772 C 0.56499 0.04308 0.50096 0.0
C773 C 0.52659 0.03871 0.49909 0.0
H774 H 0.61821 1.02125 0.4786 0.0
H775 H 0.57653 0.0683 0.51755 0.0
S776 S 0.47813 0.95726 0.44044 0.0
N777 N 0.52184 0.94805 0.42965 0.0
N778 N 0.47697 0.99767 0.47297 0.0
C779 C 0.51319 1.0054 0.47667 0.0
C780 C 0.53759 0.9784 0.45298 0.0
C781 C 0.99699 0.52316 0.47945 0.0
C782 C 0.99584 0.48986 0.51102 0.0
C783 C 1.02729 0.547 0.48277 0.0
C784 C 0.05791 0.53872 0.51786 0.0
H785 H 0.97439 0.53075 0.45114 0.0
H786 H 1.02745 0.57124 0.45548 0.0
S787 S 0.06952 0.45487 0.60821 0.0
N788 N 1.02868 0.45016 0.57826 0.0
N789 N 0.08522 0.49436 0.58424 0.0
C790 C 0.05688 0.50582 0.55025 0.0
C791 C 1.026 0.48169 0.54713 0.0
C792 C 0.17393 1.01282 0.52295 0.0
C793 C 0.14038 0.99431 0.52676 0.0
C794 C 0.1769 0.04513 0.49046 0.0
C795 C 0.14646 0.05961 0.46114 0.0
H796 H 0.19764 1.00279 0.5466 0.0
H797 H 0.2028 0.05933 0.48908 0.0
S798 S 0.05269 1.02258 0.45792 0.0
N799 N 0.07607 0.99337 0.49874 0.0
N800 N 0.08229 0.05398 0.43707 0.0
C801 C 0.11315 0.04118 0.4633 0.0
C802 C 0.10995 1.00842 0.49629 0.0
C803 C 0.93312 0.88512 0.56083 0.0
C804 C 0.95612 0.90572 0.5979 0.0
C805 C 0.91953 0.90005 0.50859 0.0
C806 C 0.92716 0.93635 0.49401 0.0
H807 H 0.93004 0.85604 0.56788 0.0
H808 H 0.90633 0.88224 0.4769 0.0
S809 S 0.97267 1.00559 0.58638 0.0
N810 N 0.97614 0.96727 0.62423 0.0
N811 N 0.94994 0.99504 0.52596 0.0
C812 C 0.94366 0.95898 0.53565 0.0
C813 C 0.95792 0.9438 0.58847 0.0
C814 C 0.83505 0.08359 0.44589 0.0
C815 C 0.86578 0.09343 0.47913 0.0
C816 C 0.83781 0.07839 0.3846 0.0
C817 C 0.87129 0.08355 0.35458 0.0
H818 H 0.80931 0.078 0.46777 0.0
H819 H 0.81422 0.06786 0.36151 0.0
S820 S 0.95819 0.1148 0.42132 0.0
N821 N 0.9296 0.1117 0.47757 0.0
N822 N 0.93427 0.10376 0.36226 0.0
C823 C 0.9012 0.09663 0.38708 0.0
C824 C 0.89864 0.10099 0.44937 0.0
C825 C 0.96249 0.2062 0.44704 0.0
C826 C 0.9748 0.1966 0.50383 0.0
C827 C 0.98703 0.21023 0.40024 0.0
C828 C 1.02462 0.20569 0.40933 0.0
H829 H 0.93354 0.20891 0.43811 0.0
H830 H 0.97654 0.21552 0.35638 0.0
S831 S 0.07104 0.18292 0.54992 0.0
N832 N 1.02715 0.18465 0.56698 0.0
N833 N 0.07342 0.19222 0.47877 0.0
C834 C 0.03745 0.19753 0.4662 0.0
C835 C 1.01247 0.19293 0.51361 0.0
C836 C 0.23728 0.47993 0.68503 0.0
C837 C 0.24612 0.512 0.65427 0.0
C838 C 0.23251 0.48088 0.74624 0.0
C839 C 0.23888 0.51305 0.77867 0.0
H840 H 0.22754 0.45622 0.66107 0.0
H841 H 0.22086 0.45733 0.76768 0.0
S842 S 0.2806 0.59775 0.72188 0.0
N843 N 0.27392 0.57224 0.66257 0.0
N844 N 0.2662 0.57328 0.7784 0.0
C845 C 0.25582 0.54227 0.75008 0.0
C846 C 0.25997 0.54159 0.68743 0.0
C847 C 0.52 0.83297 0.16966 0.0
C848 C 0.50726 0.86795 0.15433 0.0
C849 C 0.5334 0.82587 0.22641 0.0
C850 C 0.53509 0.85368 0.26953 0.0
H851 H 0.52015 0.81116 0.1372 0.0
H852 H 0.54431 0.79891 0.23562 0.0
S853 S 0.50297 0.94965 0.25138 0.0
N854 N 0.49491 0.93003 0.18703 0.0
N855 N 0.52084 0.91732 0.29309 0.0
C856 C 0.52041 0.88831 0.25539 0.0
C857 C 0.50647 0.89533 0.19784 0.0
C858 C 0.89031 0.55745 0.76546 0.0
C859 C 0.89507 0.595 0.75667 0.0
C860 C 0.86878 0.537 0.72702 0.0
C861 C 0.85193 0.55339 0.67784 0.0
H862 H 0.90538 0.54332 0.79964 0.0
H863 H 0.86882 0.50761 0.73221 0.0
S864 S 0.84631 0.65237 0.647 0.0
N865 N 0.87346 0.64927 0.70499 0.0
N866 N 0.83467 0.61005 0.63009 0.0
C867 C 0.85261 0.59149 0.67311 0.0
C868 C 0.87401 0.61251 0.71302 0.0
C869 C 0.47268 0.14955 0.16033 0.0
C870 C 0.49265 0.18071 0.14538 0.0
C871 C 0.46847 0.13935 0.21917 0.0
C872 C 0.48462 0.15979 0.26482 0.0
H873 H 0.46187 0.13206 0.12592 0.0
H874 H 0.45311 0.11484 0.22893 0.0
S875 S 0.53934 0.244 0.24793 0.0
N876 N 0.52814 0.23237 0.1798 0.0
N877 N 0.52036 0.21321 0.29134 0.0
C878 C 0.5035 0.19186 0.25056 0.0
C879 C 0.50753 0.20233 0.19046 0.0
C880 C 0.73766 0.50728 0.96182 0.0
C881 C 0.72165 0.53816 0.93551 0.0
C882 C 0.73964 0.50402 0.02327 0.0
C883 C 0.72569 0.5316 0.06078 0.0
H884 H 0.74687 0.48452 0.93489 0.0
H885 H 0.74877 0.47813 0.0411 0.0
S886 S 0.68891 0.62149 0.01558 0.0
N887 N 0.69633 0.59937 0.9531 0.0
N888 N 0.70272 0.59361 0.06807 0.0
C889 C 0.71447 0.56459 0.0353 0.0
C890 C 0.71145 0.56772 0.97279 0.0
C891 C 0.53793 0.40405 0.9315 0.0
C892 C 0.54033 0.42642 0.8815 0.0
C893 C 0.56516 0.40483 0.97455 0.0
C894 C 0.59551 0.42802 0.96883 0.0
H895 H 0.51427 0.38689 0.93841 0.0
H896 H 0.56224 0.38754 0.01293 0.0
S897 S 0.61503 0.49026 0.84419 0.0
N898 N 0.5763 0.47031 0.82623 0.0
N899 N 0.62672 0.47319 0.90882 0.0
C900 C 0.59873 0.44962 0.91808 0.0
C901 C 0.57126 0.44848 0.87397 0.0
C902 C 0.36386 0.58286 0.85465 0.0
C903 C 0.3627 0.54459 0.85038 0.0
C904 C 0.36511 0.6003 0.90977 0.0
C905 C 0.36679 0.58011 0.96277 0.0
H906 H 0.36633 0.59945 0.81543 0.0
H907 H 0.36698 0.6298 0.91029 0.0
S908 S 0.35277 0.47976 0.9747 0.0
N909 N 0.35208 0.48802 0.90323 0.0
N910 N 0.35986 0.51961 0.0064 0.0
C911 C 0.3612 0.54204 0.95881 0.0
C912 C 0.35794 0.52462 0.90269 0.0
C913 C 0.58096 0.67641 0.02907 0.0
C914 C 0.54391 0.66647 0.03049 0.0
C915 C 0.60209 0.67095 -0.02208 0.0
C916 C 0.58661 0.65555 0.92681 0.0
H917 H 0.59389 0.68717 0.06838 0.0
H918 H 0.63096 0.67728 -0.02076 0.0
S919 S 0.48911 0.63173 0.90494 0.0
N920 N 0.49156 0.64531 0.9744 0.0
N921 N 0.531 0.6353 0.87831 0.0
C922 C 0.54897 0.64806 0.92662 0.0
C923 C 0.52768 0.65336 -0.02147 0.0
C924 C 0.6793 0.04082 0.15504 0.0
C925 C 0.64801 0.06281 0.16353 0.0
C926 C 0.68573 1.01022 0.19036 0.0
C927 C 0.6614 1.00098 0.23579 0.0
H928 H 0.69798 0.04629 0.11897 0.0
H929 H 0.7091 0.99285 0.18085 0.0
S930 S 0.57667 0.05055 0.27848 0.0
N931 N 0.59324 0.07398 0.22238 0.0
N932 N 0.60602 1.01686 0.28968 0.0
C933 C 0.63133 1.02396 0.24729 0.0
C934 C 0.62449 0.05489 0.21093 0.0
C935 C 1.01628 0.45302 0.75247 0.0
C936 C 0.98592 0.43108 0.7647 0.0
C937 C 0.05015 0.44549 0.77775 0.0
C938 C 0.05466 0.41556 0.81573 0.0
H939 H 1.01354 0.47639 0.72357 0.0
H940 H 0.07247 0.46419 0.76966 0.0
S941 S 0.9846 0.34701 0.85504 0.0
N942 N 0.96294 0.37635 0.81208 0.0
N943 N 1.02695 0.36215 0.8606 0.0
C944 C 1.02482 0.3925 0.82639 0.0
C945 C 0.99027 0.40032 0.8007 0.0
C946 C 0.38486 0.9735 0.29118 0.0
C947 C 0.37769 1.00971 0.3085 0.0
C948 C 0.38298 0.96322 0.23171 0.0
C949 C 0.37365 0.98881 0.18807 0.0
H950 H 0.39421 0.95367 0.32321 0.0
H951 H 0.39085 0.93563 0.21931 0.0
S952 S 0.34738 0.0855 0.21141 0.0
N953 N 0.35667 0.07004 0.27816 0.0
N954 N 0.35417 0.05066 0.16594 0.0
C955 C 0.36424 1.0244 0.205 0.0
C956 C 0.36593 0.03487 0.26551 0.0
C957 C 0.10941 0.6843 0.75919 0.0
C958 C 0.13502 0.65601 0.76682 0.0
C959 C 0.09234 0.7009 0.8077 0.0
C960 C 0.09986 0.68889 0.86527 0.0
H961 H 0.10079 0.69193 0.71553 0.0
H962 H 0.06941 0.71905 0.79945 0.0
S963 S 0.17134 0.62272 0.90989 0.0
N964 N 0.17207 0.6218 0.83702 0.0
N965 N 0.14054 0.65396 0.92815 0.0
C966 C 0.13003 0.66558 0.87379 0.0
C967 C 0.14695 0.64814 0.82446 0.0
loop_
_geom_bond_atom_site_label_1
_geom_bond_atom_site_label_2
_geom_bond_distance
_geom_bond_site_symmetry_2
_ccdc_geom_bond_type
C0 C1 1.351 . S
C0 N3 1.368 . S
C0 H5 0.931 . S
C1 C0 1.351 . S
C1 N2 1.373 1_545 S
C1 H29 0.930 . S
N2 C1 1.373 1_565 S
N2 C4 1.340 1_565 S
N3 C0 1.368 . S
N3 C4 1.321 . S
N3 Co6 2.135 . S
C4 N2 1.340 1_545 S
C4 N3 1.321 . S
C4 H28 0.930 1_545 S
H5 C0 0.931 . S
Co6 N3 2.135 . S
Co6 N9 2.121 . S
Co6 O14 2.055 . S
Co6 O17 2.039 . S
Co6 N20 2.140 . S
C7 O8 1.227 . S
C7 O17 1.265 . S
O8 C7 1.227 . S
N9 Co6 2.121 . S
N9 C11 1.375 . S
N9 C12 1.313 . S
C10 C11 1.338 . S
C10 N13 1.377 . S
C10 H30 0.930 . S
C11 N9 1.375 . S
C11 C10 1.338 . S
C11 H15 0.931 . S
C12 N9 1.313 . S
C12 N13 1.344 . S
C12 H16 0.930 . S
N13 C10 1.377 . S
N13 C12 1.344 . S
O14 Co6 2.055 . S
O14 C18 1.253 . S
H15 C11 0.931 . S
H16 C12 0.930 . S
O17 Co6 2.039 . S
O17 C7 1.265 . S
C18 O14 1.253 . S
C18 O19 1.227 . S
O19 C18 1.227 . S
N20 Co6 2.140 . S
N20 C23 1.346 . S
N20 C24 1.345 . S
C21 C22 1.387 . S
C21 C25 1.391 . S
C22 C21 1.387 . S
C22 C23 1.369 . S
C22 H31 0.929 . S
C23 N20 1.346 . S
C23 C22 1.369 . S
C23 H26 0.928 . S
C24 N20 1.345 . S
C24 C25 1.371 . S
C24 H27 0.931 . S
C25 C21 1.391 . S
C25 C24 1.371 . S
C25 H32 0.930 . S
H26 C23 0.928 . S
H27 C24 0.931 . S
H28 C4 0.930 1_565 S
H29 C1 0.930 . S
H30 C10 0.930 . S
H31 C22 0.929 . S
H32 C25 0.930 . S
C33 C34 1.351 . S
C33 N36 1.368 . S
C33 H38 0.931 . S
C34 C33 1.351 . S
C34 N35 1.373 1_455 S
C34 H62 0.930 . S
N35 C34 1.373 1_655 S
N35 C37 1.340 1_655 S
N36 C33 1.368 . S
N36 C37 1.321 . S
N36 Co39 2.135 . S
C37 N35 1.340 1_455 S
C37 N36 1.321 . S
C37 H61 0.930 1_455 S
H38 C33 0.931 . S
Co39 N36 2.135 . S
Co39 N42 2.121 . S
Co39 O47 2.055 . S
Co39 O50 2.039 . S
Co39 N53 2.140 . S
C40 O41 1.227 . S
C40 O50 1.265 . S
O41 C40 1.227 . S
N42 Co39 2.121 . S
N42 C44 1.375 . S
N42 C45 1.313 . S
C43 C44 1.338 . S
C43 N46 1.377 . S
C43 H63 0.930 . S
C44 N42 1.375 . S
C44 C43 1.338 . S
C44 H48 0.931 . S
C45 N42 1.313 . S
C45 N46 1.344 . S
C45 H49 0.930 . S
N46 C43 1.377 . S
N46 C45 1.344 . S
O47 Co39 2.055 . S
O47 C51 1.253 . S
H48 C44 0.931 . S
H49 C45 0.930 . S
O50 Co39 2.039 . S
O50 C40 1.265 . S
C51 O47 1.253 . S
C51 O52 1.227 . S
O52 C51 1.227 . S
N53 Co39 2.140 . S
N53 C56 1.346 . S
N53 C57 1.345 . S
C54 C55 1.387 . S
C54 C58 1.391 . S
C55 C54 1.387 . S
C55 C56 1.369 . S
C55 H64 0.929 . S
C56 N53 1.346 . S
C56 C55 1.369 . S
C56 H59 0.928 . S
C57 N53 1.345 . S
C57 C58 1.371 . S
C57 H60 0.931 . S
C58 C54 1.391 . S
C58 C57 1.371 . S
C58 H65 0.930 . S
H59 C56 0.928 . S
H60 C57 0.931 . S
H61 C37 0.930 1_655 S
H62 C34 0.930 . S
H63 C43 0.930 . S
H64 C55 0.929 . S
H65 C58 0.930 . S
C66 C67 1.351 . S
C66 N69 1.368 . S
C66 H71 0.931 . S
C67 C66 1.351 . S
C67 N68 1.373 1_565 S
C67 H95 0.930 . S
N68 C67 1.373 1_545 S
N68 C70 1.340 1_545 S
N69 C66 1.368 . S
N69 C70 1.321 . S
N69 Co72 2.135 . S
C70 N68 1.340 1_565 S
C70 N69 1.321 . S
C70 H94 0.930 1_565 S
H71 C66 0.931 . S
Co72 N69 2.135 . S
Co72 N75 2.121 . S
Co72 O80 2.055 . S
Co72 O83 2.039 . S
Co72 N86 2.140 . S
C73 O74 1.227 . S
C73 O83 1.265 . S
O74 C73 1.227 . S
N75 Co72 2.121 . S
N75 C77 1.375 . S
N75 C78 1.313 . S
C76 C77 1.338 . S
C76 N79 1.377 . S
C76 H96 0.930 . S
C77 N75 1.375 . S
C77 C76 1.338 . S
C77 H81 0.931 . S
C78 N75 1.313 . S
C78 N79 1.344 . S
C78 H82 0.930 . S
N79 C76 1.377 . S
N79 C78 1.344 . S
O80 Co72 2.055 . S
O80 C84 1.253 . S
H81 C77 0.931 . S
H82 C78 0.930 . S
O83 Co72 2.039 . S
O83 C73 1.265 . S
C84 O80 1.253 . S
C84 O85 1.227 . S
O85 C84 1.227 . S
N86 Co72 2.140 . S
N86 C89 1.346 . S
N86 C90 1.345 . S
C87 C88 1.387 . S
C87 C91 1.391 . S
C88 C87 1.387 . S
C88 C89 1.369 . S
C88 H97 0.929 . S
C89 N86 1.346 . S
C89 C88 1.369 . S
C89 H92 0.928 . S
C90 N86 1.345 . S
C90 C91 1.371 . S
C90 H93 0.931 . S
C91 C87 1.391 . S
C91 C90 1.371 . S
C91 H98 0.930 . S
H92 C89 0.928 . S
H93 C90 0.931 . S
H94 C70 0.930 1_545 S
H95 C67 0.930 . S
H96 C76 0.930 . S
H97 C88 0.929 . S
H98 C91 0.930 . S
C99 C100 1.351 . S
C99 N102 1.368 . S
C99 H104 0.931 . S
C100 C99 1.351 . S
C100 N101 1.373 1_655 S
C100 H128 0.930 . S
N101 C100 1.373 1_455 S
N101 C103 1.340 1_455 S
N102 C99 1.368 . S
N102 C103 1.321 . S
N102 Co105 2.135 . S
C103 N101 1.340 1_655 S
C103 N102 1.321 . S
C103 H127 0.930 1_655 S
H104 C99 0.931 . S
Co105 N102 2.135 . S
Co105 N108 2.121 . S
Co105 O113 2.055 . S
Co105 O116 2.039 . S
Co105 N119 2.140 . S
C106 O107 1.227 . S
C106 O116 1.265 . S
O107 C106 1.227 . S
N108 Co105 2.121 . S
N108 C110 1.375 . S
N108 C111 1.313 . S
C109 C110 1.338 . S
C109 N112 1.377 . S
C109 H129 0.930 . S
C110 N108 1.375 . S
C110 C109 1.338 . S
C110 H114 0.931 . S
C111 N108 1.313 . S
C111 N112 1.344 . S
C111 H115 0.930 . S
N112 C109 1.377 . S
N112 C111 1.344 . S
O113 Co105 2.055 . S
O113 C117 1.253 . S
H114 C110 0.931 . S
H115 C111 0.930 . S
O116 Co105 2.039 . S
O116 C106 1.265 . S
C117 O113 1.253 . S
C117 O118 1.227 . S
O118 C117 1.227 . S
N119 Co105 2.140 . S
N119 C122 1.346 . S
N119 C123 1.345 . S
C120 C121 1.387 . S
C120 C124 1.391 . S
C121 C120 1.387 . S
C121 C122 1.369 . S
C121 H130 0.929 . S
C122 N119 1.346 . S
C122 C121 1.369 . S
C122 H125 0.928 . S
C123 N119 1.345 . S
C123 C124 1.371 . S
C123 H126 0.931 . S
C124 C120 1.391 . S
C124 C123 1.371 . S
C124 H131 0.930 . S
H125 C122 0.928 . S
H126 C123 0.931 . S
H127 C103 0.930 1_455 S
H128 C100 0.930 . S
H129 C109 0.930 . S
H130 C121 0.929 . S
H131 C124 0.930 . S
C132 C133 1.351 . S
C132 N135 1.368 . S
C132 H137 0.931 . S
C133 C132 1.351 . S
C133 N134 1.373 . S
C133 H161 0.930 . S
N134 C133 1.373 . S
N134 C136 1.340 . S
N135 C132 1.368 . S
N135 C136 1.321 . S
N135 Co138 2.135 . S
C136 N134 1.340 . S
C136 N135 1.321 . S
C136 H160 0.930 . S
H137 C132 0.931 . S
Co138 N135 2.135 . S
Co138 N141 2.121 1_556 S
Co138 O146 2.058 . S
Co138 O149 2.039 1_556 S
Co138 N152 2.140 . S
C139 O140 1.227 1_554 S
C139 O149 1.265 . S
O140 C139 1.227 1_556 S
N141 Co138 2.121 1_554 S
N141 C143 1.375 . S
N141 C144 1.313 . S
C142 C143 1.338 . S
C142 N145 1.377 . S
C142 H162 0.930 . S
C143 N141 1.375 . S
C143 C142 1.338 . S
C143 H147 0.931 . S
C144 N141 1.313 . S
C144 N145 1.344 . S
C144 H148 0.930 . S
N145 C142 1.377 . S
N145 C144 1.344 . S
O146 Co138 2.058 . S
O146 C150 1.260 . S
H147 C143 0.931 . S
H148 C144 0.930 . S
O149 Co138 2.039 1_554 S
O149 C139 1.265 . S
C150 O146 1.260 . S
C150 O151 1.227 . S
O151 C150 1.227 . S
N152 Co138 2.140 . S
N152 C155 1.346 . S
N152 C156 1.345 . S
C153 C154 1.387 . S
C153 C157 1.391 . S
C154 C153 1.387 . S
C154 C155 1.369 . S
C154 H163 0.929 . S
C155 N152 1.346 . S
C155 C154 1.369 . S
C155 H158 0.928 . S
C156 N152 1.345 . S
C156 C157 1.371 . S
C156 H159 0.931 . S
C157 C153 1.391 . S
C157 C156 1.371 . S
C157 H164 0.930 . S
H158 C155 0.928 . S
H159 C156 0.931 . S
H160 C136 0.930 . S
H161 C133 0.930 . S
H162 C142 0.930 . S
H163 C154 0.929 . S
H164 C157 0.930 . S
C165 C166 1.351 . S
C165 N168 1.368 . S
C165 H170 0.931 . S
C166 C165 1.351 . S
C166 N167 1.373 . S
C166 H194 0.930 . S
N167 C166 1.373 . S
N167 C169 1.340 . S
N168 C165 1.368 . S
N168 C169 1.321 . S
N168 Co171 2.135 . S
C169 N167 1.340 . S
C169 N168 1.321 . S
C169 H193 0.930 . S
H170 C165 0.931 . S
Co171 N168 2.135 . S
Co171 N174 2.121 1_554 S
Co171 O179 2.058 . S
Co171 O182 2.039 1_554 S
Co171 N185 2.140 . S
C172 O173 1.227 1_556 S
C172 O182 1.265 . S
O173 C172 1.227 1_554 S
N174 Co171 2.121 1_556 S
N174 C176 1.375 . S
N174 C177 1.313 . S
C175 C176 1.338 . S
C175 N178 1.377 . S
C175 H195 0.930 . S
C176 N174 1.375 . S
C176 C175 1.338 . S
C176 H180 0.931 . S
C177 N174 1.313 . S
C177 N178 1.344 . S
C177 H181 0.930 . S
N178 C175 1.377 . S
N178 C177 1.344 . S
O179 Co171 2.058 . S
O179 C183 1.260 . S
H180 C176 0.931 . S
H181 C177 0.930 . S
O182 Co171 2.039 1_556 S
O182 C172 1.265 . S
C183 O179 1.260 . S
C183 O184 1.227 . S
O184 C183 1.227 . S
N185 Co171 2.140 . S
N185 C188 1.346 . S
N185 C189 1.345 . S
C186 C187 1.387 . S
C186 C190 1.391 . S
C187 C186 1.387 . S
C187 C188 1.369 . S
C187 H196 0.929 . S
C188 N185 1.346 . S
C188 C187 1.369 . S
C188 H191 0.928 . S
C189 N185 1.345 . S
C189 C190 1.371 . S
C189 H192 0.931 . S
C190 C186 1.391 . S
C190 C189 1.371 . S
C190 H197 0.930 . S
H191 C188 0.928 . S
H192 C189 0.931 . S
H193 C169 0.930 . S
H194 C166 0.930 . S
H195 C175 0.930 . S
H196 C187 0.929 . S
H197 C190 0.930 . S
C198 C199 1.351 . S
C198 N201 1.368 . S
C198 H203 0.931 . S
C199 C198 1.351 . S
C199 N200 1.373 . S
C199 H227 0.930 . S
N200 C199 1.373 . S
N200 C202 1.340 . S
N201 C198 1.368 . S
N201 C202 1.321 . S
N201 Co204 2.135 . S
C202 N200 1.340 . S
C202 N201 1.321 . S
C202 H226 0.930 . S
H203 C198 0.931 . S
Co204 N201 2.135 . S
Co204 N207 2.121 1_556 S
Co204 O212 2.058 . S
Co204 O215 2.039 1_556 S
Co204 N218 2.140 . S
C205 O206 1.227 1_554 S
C205 O215 1.265 . S
O206 C205 1.227 1_556 S
N207 Co204 2.121 1_554 S
N207 C209 1.375 . S
N207 C210 1.313 . S
C208 C209 1.338 . S
C208 N211 1.377 . S
C208 H228 0.930 . S
C209 N207 1.375 . S
C209 C208 1.338 . S
C209 H213 0.931 . S
C210 N207 1.313 . S
C210 N211 1.344 . S
C210 H214 0.930 . S
N211 C208 1.377 . S
N211 C210 1.344 . S
O212 Co204 2.058 . S
O212 C216 1.260 . S
H213 C209 0.931 . S
H214 C210 0.930 . S
O215 Co204 2.039 1_554 S
O215 C205 1.265 . S
C216 O212 1.260 . S
C216 O217 1.227 . S
O217 C216 1.227 . S
N218 Co204 2.140 . S
N218 C221 1.346 . S
N218 C222 1.345 . S
C219 C220 1.387 . S
C219 C223 1.391 . S
C220 C219 1.387 . S
C220 C221 1.369 . S
C220 H229 0.929 . S
C221 N218 1.346 . S
C221 C220 1.369 . S
C221 H224 0.928 . S
C222 N218 1.345 . S
C222 C223 1.371 . S
C222 H225 0.931 . S
C223 C219 1.391 . S
C223 C222 1.371 . S
C223 H230 0.930 . S
H224 C221 0.928 . S
H225 C222 0.931 . S
H226 C202 0.930 . S
H227 C199 0.930 . S
H228 C208 0.930 . S
H229 C220 0.929 . S
H230 C223 0.930 . S
C231 C232 1.351 . S
C231 N234 1.368 . S
C231 H236 0.931 . S
C232 C231 1.351 . S
C232 N233 1.373 . S
C232 H260 0.930 . S
N233 C232 1.373 . S
N233 C235 1.340 . S
N234 C231 1.368 . S
N234 C235 1.321 . S
N234 Co237 2.135 . S
C235 N233 1.340 . S
C235 N234 1.321 . S
C235 H259 0.930 . S
H236 C231 0.931 . S
Co237 N234 2.135 . S
Co237 N240 2.121 1_554 S
Co237 O245 2.058 . S
Co237 O248 2.039 1_554 S
Co237 N251 2.140 . S
C238 O239 1.227 1_556 S
C238 O248 1.265 . S
O239 C238 1.227 1_554 S
N240 Co237 2.121 1_556 S
N240 C242 1.375 . S
N240 C243 1.313 . S
C241 C242 1.338 . S
C241 N244 1.377 . S
C241 H261 0.930 . S
C242 N240 1.375 . S
C242 C241 1.338 . S
C242 H246 0.931 . S
C243 N240 1.313 . S
C243 N244 1.344 . S
C243 H247 0.930 . S
N244 C241 1.377 . S
N244 C243 1.344 . S
O245 Co237 2.058 . S
O245 C249 1.260 . S
H246 C242 0.931 . S
H247 C243 0.930 . S
O248 Co237 2.039 1_556 S
O248 C238 1.265 . S
C249 O245 1.260 . S
C249 O250 1.227 . S
O250 C249 1.227 . S
N251 Co237 2.140 . S
N251 C254 1.346 . S
N251 C255 1.345 . S
C252 C253 1.387 . S
C252 C256 1.391 . S
C253 C252 1.387 . S
C253 C254 1.369 . S
C253 H262 0.929 . S
C254 N251 1.346 . S
C254 C253 1.369 . S
C254 H257 0.928 . S
C255 N251 1.345 . S
C255 C256 1.371 . S
C255 H258 0.931 . S
C256 C252 1.391 . S
C256 C255 1.371 . S
C256 H263 0.930 . S
H257 C254 0.928 . S
H258 C255 0.931 . S
H259 C235 0.930 . S
H260 C232 0.930 . S
H261 C241 0.930 . S
H262 C253 0.929 . S
H263 C256 0.930 . S
C264 C265 1.351 . S
C264 N267 1.368 . S
C264 H269 0.931 . S
C265 C264 1.351 . S
C265 N266 1.373 . S
C265 H293 0.930 . S
N266 C265 1.373 . S
N266 C268 1.340 . S
N267 C264 1.368 . S
N267 C268 1.321 . S
N267 Co270 2.135 . S
C268 N266 1.340 . S
C268 N267 1.321 . S
C268 H292 0.930 . S
H269 C264 0.931 . S
Co270 N267 2.135 . S
Co270 N273 2.121 . S
Co270 O278 2.055 . S
Co270 O281 2.039 . S
Co270 N284 2.140 . S
C271 O272 1.227 . S
C271 O281 1.265 . S
O272 C271 1.227 . S
N273 Co270 2.121 . S
N273 C275 1.375 . S
N273 C276 1.313 . S
C274 C275 1.338 . S
C274 N277 1.377 . S
C274 H294 0.930 . S
C275 N273 1.375 . S
C275 C274 1.338 . S
C275 H279 0.931 . S
C276 N273 1.313 . S
C276 N277 1.344 . S
C276 H280 0.930 . S
N277 C274 1.377 . S
N277 C276 1.344 . S
O278 Co270 2.055 . S
O278 C282 1.253 . S
H279 C275 0.931 . S
H280 C276 0.930 . S
O281 Co270 2.039 . S
O281 C271 1.265 . S
C282 O278 1.253 . S
C282 O283 1.227 . S
O283 C282 1.227 . S
N284 Co270 2.140 . S
N284 C287 1.346 . S
N284 C288 1.345 . S
C285 C286 1.387 . S
C285 C289 1.391 . S
C286 C285 1.387 . S
C286 C287 1.369 . S
C286 H295 0.929 . S
C287 N284 1.346 . S
C287 C286 1.369 . S
C287 H290 0.928 . S
C288 N284 1.345 . S
C288 C289 1.371 . S
C288 H291 0.931 . S
C289 C285 1.391 . S
C289 C288 1.371 . S
C289 H296 0.930 . S
H290 C287 0.928 . S
H291 C288 0.931 . S
H292 C268 0.930 . S
H293 C265 0.930 . S
H294 C274 0.930 . S
H295 C286 0.929 . S
H296 C289 0.930 . S
C297 C298 1.351 . S
C297 N300 1.368 . S
C297 H302 0.931 . S
C298 C297 1.351 . S
C298 N299 1.373 . S
C298 H326 0.930 . S
N299 C298 1.373 . S
N299 C301 1.340 . S
N300 C297 1.368 . S
N300 C301 1.321 . S
N300 Co303 2.135 . S
C301 N299 1.340 . S
C301 N300 1.321 . S
C301 H325 0.930 . S
H302 C297 0.931 . S
Co303 N300 2.135 . S
Co303 N306 2.121 . S
Co303 O311 2.055 . S
Co303 O314 2.039 . S
Co303 N317 2.140 . S
C304 O305 1.227 . S
C304 O314 1.265 . S
O305 C304 1.227 . S
N306 Co303 2.121 . S
N306 C308 1.375 . S
N306 C309 1.313 . S
C307 C308 1.338 . S
C307 N310 1.377 . S
C307 H327 0.930 . S
C308 N306 1.375 . S
C308 C307 1.338 . S
C308 H312 0.931 . S
C309 N306 1.313 . S
C309 N310 1.344 . S
C309 H313 0.930 . S
N310 C307 1.377 . S
N310 C309 1.344 . S
O311 Co303 2.055 . S
O311 C315 1.253 . S
H312 C308 0.931 . S
H313 C309 0.930 . S
O314 Co303 2.039 . S
O314 C304 1.265 . S
C315 O311 1.253 . S
C315 O316 1.227 . S
O316 C315 1.227 . S
N317 Co303 2.140 . S
N317 C320 1.346 . S
N317 C321 1.345 . S
C318 C319 1.387 . S
C318 C322 1.391 . S
C319 C318 1.387 . S
C319 C320 1.369 . S
C319 H328 0.929 . S
C320 N317 1.346 . S
C320 C319 1.369 . S
C320 H323 0.928 . S
C321 N317 1.345 . S
C321 C322 1.371 . S
C321 H324 0.931 . S
C322 C318 1.391 . S
C322 C321 1.371 . S
C322 H329 0.930 . S
H323 C320 0.928 . S
H324 C321 0.931 . S
H325 C301 0.930 . S
H326 C298 0.930 . S
H327 C307 0.930 . S
H328 C319 0.929 . S
H329 C322 0.930 . S
C330 C331 1.351 . S
C330 N333 1.368 . S
C330 H335 0.931 . S
C331 C330 1.351 . S
C331 N332 1.373 . S
C331 H359 0.930 . S
N332 C331 1.373 . S
N332 C334 1.340 . S
N333 C330 1.368 . S
N333 C334 1.321 . S
N333 Co336 2.135 . S
C334 N332 1.340 . S
C334 N333 1.321 . S
C334 H358 0.930 . S
H335 C330 0.931 . S
Co336 N333 2.135 . S
Co336 N339 2.121 . S
Co336 O344 2.055 . S
Co336 O347 2.039 . S
Co336 N350 2.140 . S
C337 O338 1.227 . S
C337 O347 1.265 . S
O338 C337 1.227 . S
N339 Co336 2.121 . S
N339 C341 1.375 . S
N339 C342 1.313 . S
C340 C341 1.338 . S
C340 N343 1.377 . S
C340 H360 0.930 . S
C341 N339 1.375 . S
C341 C340 1.338 . S
C341 H345 0.931 . S
C342 N339 1.313 . S
C342 N343 1.344 . S
C342 H346 0.930 . S
N343 C340 1.377 . S
N343 C342 1.344 . S
O344 Co336 2.055 . S
O344 C348 1.253 . S
H345 C341 0.931 . S
H346 C342 0.930 . S
O347 Co336 2.039 . S
O347 C337 1.265 . S
C348 O344 1.253 . S
C348 O349 1.227 . S
O349 C348 1.227 . S
N350 Co336 2.140 . S
N350 C353 1.346 . S
N350 C354 1.345 . S
C351 C352 1.387 . S
C351 C355 1.391 . S
C352 C351 1.387 . S
C352 C353 1.369 . S
C352 H361 0.929 . S
C353 N350 1.346 . S
C353 C352 1.369 . S
C353 H356 0.928 . S
C354 N350 1.345 . S
C354 C355 1.371 . S
C354 H357 0.931 . S
C355 C351 1.391 . S
C355 C354 1.371 . S
C355 H362 0.930 . S
H356 C353 0.928 . S
H357 C354 0.931 . S
H358 C334 0.930 . S
H359 C331 0.930 . S
H360 C340 0.930 . S
H361 C352 0.929 . S
H362 C355 0.930 . S
C363 C364 1.351 . S
C363 N366 1.368 . S
C363 H368 0.931 . S
C364 C363 1.351 . S
C364 N365 1.373 . S
C364 H392 0.930 . S
N365 C364 1.373 . S
N365 C367 1.340 . S
N366 C363 1.368 . S
N366 C367 1.321 . S
N366 Co369 2.135 . S
C367 N365 1.340 . S
C367 N366 1.321 . S
C367 H391 0.930 . S
H368 C363 0.931 . S
Co369 N366 2.135 . S
Co369 N372 2.121 . S
Co369 O377 2.055 . S
Co369 O380 2.039 . S
Co369 N383 2.140 . S
C370 O371 1.227 . S
C370 O380 1.265 . S
O371 C370 1.227 . S
N372 Co369 2.121 . S
N372 C374 1.375 . S
N372 C375 1.313 . S
C373 C374 1.338 . S
C373 N376 1.377 . S
C373 H393 0.930 . S
C374 N372 1.375 . S
C374 C373 1.338 . S
C374 H378 0.931 . S
C375 N372 1.313 . S
C375 N376 1.344 . S
C375 H379 0.930 . S
N376 C373 1.377 . S
N376 C375 1.344 . S
O377 Co369 2.055 . S
O377 C381 1.253 . S
H378 C374 0.931 . S
H379 C375 0.930 . S
O380 Co369 2.039 . S
O380 C370 1.265 . S
C381 O377 1.253 . S
C381 O382 1.227 . S
O382 C381 1.227 . S
N383 Co369 2.140 . S
N383 C386 1.346 . S
N383 C387 1.345 . S
C384 C385 1.387 . S
C384 C388 1.391 . S
C385 C384 1.387 . S
C385 C386 1.369 . S
C385 H394 0.929 . S
C386 N383 1.346 . S
C386 C385 1.369 . S
C386 H389 0.928 . S
C387 N383 1.345 . S
C387 C388 1.371 . S
C387 H390 0.931 . S
C388 C384 1.391 . S
C388 C387 1.371 . S
C388 H395 0.930 . S
H389 C386 0.928 . S
H390 C387 0.931 . S
H391 C367 0.930 . S
H392 C364 0.930 . S
H393 C373 0.930 . S
H394 C385 0.929 . S
H395 C388 0.930 . S
C396 C397 1.351 . S
C396 N399 1.368 . S
C396 H401 0.931 . S
C397 C396 1.351 . S
C397 N398 1.373 1_565 S
C397 H425 0.930 . S
N398 C397 1.373 1_545 S
N398 C400 1.340 1_545 S
N399 C396 1.368 . S
N399 C400 1.321 . S
N399 Co402 2.135 . S
C400 N398 1.340 1_565 S
C400 N399 1.321 . S
C400 H424 0.930 1_565 S
H401 C396 0.931 . S
Co402 N399 2.135 . S
Co402 N405 2.121 . S
Co402 O410 2.055 . S
Co402 O413 2.039 . S
Co402 N416 2.140 . S
C403 O404 1.227 . S
C403 O413 1.265 . S
O404 C403 1.227 . S
N405 Co402 2.121 . S
N405 C407 1.375 . S
N405 C408 1.313 . S
C406 C407 1.338 . S
C406 N409 1.377 . S
C406 H426 0.930 . S
C407 N405 1.375 . S
C407 C406 1.338 . S
C407 H411 0.931 . S
C408 N405 1.313 . S
C408 N409 1.344 . S
C408 H412 0.930 . S
N409 C406 1.377 . S
N409 C408 1.344 . S
O410 Co402 2.055 . S
O410 C414 1.253 . S
H411 C407 0.931 . S
H412 C408 0.930 . S
O413 Co402 2.039 . S
O413 C403 1.265 . S
C414 O410 1.253 . S
C414 O415 1.227 . S
O415 C414 1.227 . S
N416 Co402 2.140 . S
N416 C419 1.346 . S
N416 C420 1.345 . S
C417 C418 1.387 . S
C417 C421 1.391 . S
C418 C417 1.387 . S
C418 C419 1.369 . S
C418 H427 0.929 . S
C419 N416 1.346 . S
C419 C418 1.369 . S
C419 H422 0.928 . S
C420 N416 1.345 . S
C420 C421 1.371 . S
C420 H423 0.931 . S
C421 C417 1.391 . S
C421 C420 1.371 . S
C421 H428 0.930 . S
H422 C419 0.928 . S
H423 C420 0.931 . S
H424 C400 0.930 1_545 S
H425 C397 0.930 . S
H426 C406 0.930 . S
H427 C418 0.929 . S
H428 C421 0.930 . S
C429 C430 1.351 . S
C429 N432 1.368 . S
C429 H434 0.931 . S
C430 C429 1.351 . S
C430 N431 1.373 1_655 S
C430 H458 0.930 . S
N431 C430 1.373 1_455 S
N431 C433 1.340 1_455 S
N432 C429 1.368 . S
N432 C433 1.321 . S
N432 Co435 2.135 . S
C433 N431 1.340 1_655 S
C433 N432 1.321 . S
C433 H457 0.930 1_655 S
H434 C429 0.931 . S
Co435 N432 2.135 . S
Co435 N438 2.121 . S
Co435 O443 2.055 . S
Co435 O446 2.039 . S
Co435 N449 2.140 . S
C436 O437 1.227 . S
C436 O446 1.265 . S
O437 C436 1.227 . S
N438 Co435 2.121 . S
N438 C440 1.375 . S
N438 C441 1.313 . S
C439 C440 1.338 . S
C439 N442 1.377 . S
C439 H459 0.930 . S
C440 N438 1.375 . S
C440 C439 1.338 . S
C440 H444 0.931 . S
C441 N438 1.313 . S
C441 N442 1.344 . S
C441 H445 0.930 . S
N442 C439 1.377 . S
N442 C441 1.344 . S
O443 Co435 2.055 . S
O443 C447 1.253 . S
H444 C440 0.931 . S
H445 C441 0.930 . S
O446 Co435 2.039 . S
O446 C436 1.265 . S
C447 O443 1.253 . S
C447 O448 1.227 . S
O448 C447 1.227 . S
N449 Co435 2.140 . S
N449 C452 1.346 . S
N449 C453 1.345 . S
C450 C451 1.387 . S
C450 C454 1.391 . S
C451 C450 1.387 . S
C451 C452 1.369 . S
C451 H460 0.929 . S
C452 N449 1.346 . S
C452 C451 1.369 . S
C452 H455 0.928 . S
C453 N449 1.345 . S
C453 C454 1.371 . S
C453 H456 0.931 . S
C454 C450 1.391 . S
C454 C453 1.371 . S
C454 H461 0.930 . S
H455 C452 0.928 . S
H456 C453 0.931 . S
H457 C433 0.930 1_455 S
H458 C430 0.930 . S
H459 C439 0.930 . S
H460 C451 0.929 . S
H461 C454 0.930 . S
C462 C463 1.351 . S
C462 N465 1.368 . S
C462 H467 0.931 . S
C463 C462 1.351 . S
C463 N464 1.373 1_545 S
C463 H491 0.930 . S
N464 C463 1.373 1_565 S
N464 C466 1.340 1_565 S
N465 C462 1.368 . S
N465 C466 1.321 . S
N465 Co468 2.135 . S
C466 N464 1.340 1_545 S
C466 N465 1.321 . S
C466 H490 0.930 1_545 S
H467 C462 0.931 . S
Co468 N465 2.135 . S
Co468 N471 2.121 . S
Co468 O476 2.055 . S
Co468 O479 2.039 . S
Co468 N482 2.140 . S
C469 O470 1.227 . S
C469 O479 1.265 . S
O470 C469 1.227 . S
N471 Co468 2.121 . S
N471 C473 1.375 . S
N471 C474 1.313 . S
C472 C473 1.338 . S
C472 N475 1.377 . S
C472 H492 0.930 . S
C473 N471 1.375 . S
C473 C472 1.338 . S
C473 H477 0.931 . S
C474 N471 1.313 . S
C474 N475 1.344 . S
C474 H478 0.930 . S
N475 C472 1.377 . S
N475 C474 1.344 . S
O476 Co468 2.055 . S
O476 C480 1.253 . S
H477 C473 0.931 . S
H478 C474 0.930 . S
O479 Co468 2.039 . S
O479 C469 1.265 . S
C480 O476 1.253 . S
C480 O481 1.227 . S
O481 C480 1.227 . S
N482 Co468 2.140 . S
N482 C485 1.346 . S
N482 C486 1.345 . S
C483 C484 1.387 . S
C483 C487 1.391 . S
C484 C483 1.387 . S
C484 C485 1.369 . S
C484 H493 0.929 . S
C485 N482 1.346 . S
C485 C484 1.369 . S
C485 H488 0.928 . S
C486 N482 1.345 . S
C486 C487 1.371 . S
C486 H489 0.931 . S
C487 C483 1.391 . S
C487 C486 1.371 . S
C487 H494 0.930 . S
H488 C485 0.928 . S
H489 C486 0.931 . S
H490 C466 0.930 1_565 S
H491 C463 0.930 . S
H492 C472 0.930 . S
H493 C484 0.929 . S
H494 C487 0.930 . S
C495 C496 1.351 . S
C495 N498 1.368 . S
C495 H500 0.931 . S
C496 C495 1.351 . S
C496 N497 1.373 1_455 S
C496 H524 0.930 . S
N497 C496 1.373 1_655 S
N497 C499 1.340 1_655 S
N498 C495 1.368 . S
N498 C499 1.321 . S
N498 Co501 2.135 . S
C499 N497 1.340 1_455 S
C499 N498 1.321 . S
C499 H523 0.930 1_455 S
H500 C495 0.931 . S
Co501 N498 2.135 . S
Co501 N504 2.121 . S
Co501 O509 2.055 . S
Co501 O512 2.039 . S
Co501 N515 2.140 . S
C502 O503 1.227 . S
C502 O512 1.265 . S
O503 C502 1.227 . S
N504 Co501 2.121 . S
N504 C506 1.375 . S
N504 C507 1.313 . S
C505 C506 1.338 . S
C505 N508 1.377 . S
C505 H525 0.930 . S
C506 N504 1.375 . S
C506 C505 1.338 . S
C506 H510 0.931 . S
C507 N504 1.313 . S
C507 N508 1.344 . S
C507 H511 0.930 . S
N508 C505 1.377 . S
N508 C507 1.344 . S
O509 Co501 2.055 . S
O509 C513 1.253 . S
H510 C506 0.931 . S
H511 C507 0.930 . S
O512 Co501 2.039 . S
O512 C502 1.265 . S
C513 O509 1.253 . S
C513 O514 1.227 . S
O514 C513 1.227 . S
N515 Co501 2.140 . S
N515 C518 1.346 . S
N515 C519 1.345 . S
C516 C517 1.387 . S
C516 C520 1.391 . S
C517 C516 1.387 . S
C517 C518 1.369 . S
C517 H526 0.929 . S
C518 N515 1.346 . S
C518 C517 1.369 . S
C518 H521 0.928 . S
C519 N515 1.345 . S
C519 C520 1.371 . S
C519 H522 0.931 . S
C520 C516 1.391 . S
C520 C519 1.371 . S
C520 H527 0.930 . S
H521 C518 0.928 . S
H522 C519 0.931 . S
H523 C499 0.930 1_655 S
H524 C496 0.930 . S
H525 C505 0.930 . S
H526 C517 0.929 . S
H527 C520 0.930 . S
C528 C529 1.369 . S
C528 C530 1.419 . S
C528 H532 0.930 . S
C529 C528 1.369 . S
C529 C538 1.429 . S
C530 C528 1.419 . S
C530 C531 1.363 . S
C530 H533 0.929 . S
C531 C530 1.363 . S
C531 C537 1.428 . S
H532 C528 0.930 . S
H533 C530 0.929 . S
S534 N535 1.613 . S
S534 N536 1.610 . S
N535 S534 1.613 . S
N535 C538 1.350 . S
N536 S534 1.610 . S
N536 C537 1.351 . S
C537 C531 1.428 . S
C537 N536 1.351 . S
C537 C538 1.434 . S
C538 C529 1.429 . S
C538 N535 1.350 . S
C538 C537 1.434 . S
C539 C540 1.369 . S
C539 C541 1.419 . S
C539 H543 0.930 . S
C540 C539 1.369 . S
C540 C549 1.429 . S
C541 C539 1.419 . S
C541 C542 1.363 . S
C541 H544 0.929 . S
C542 C541 1.363 . S
C542 C548 1.428 . S
H543 C539 0.930 . S
H544 C541 0.929 . S
S545 N546 1.613 . S
S545 N547 1.610 . S
N546 S545 1.613 . S
N546 C549 1.350 . S
N547 S545 1.610 . S
N547 C548 1.351 . S
C548 C542 1.428 . S
C548 N547 1.351 . S
C548 C549 1.434 . S
C549 C540 1.429 . S
C549 N546 1.350 . S
C549 C548 1.434 . S
C550 C551 1.369 . S
C550 C552 1.419 . S
C550 H554 0.930 . S
C551 C550 1.369 . S
C551 C560 1.429 . S
C552 C550 1.419 . S
C552 C553 1.363 . S
C552 H555 0.929 . S
C553 C552 1.363 . S
C553 C559 1.428 . S
H554 C550 0.930 . S
H555 C552 0.929 . S
S556 N557 1.613 1_556 S
S556 N558 1.610 1_556 S
N557 S556 1.613 1_554 S
N557 C560 1.350 . S
N558 S556 1.610 1_554 S
N558 C559 1.351 . S
C559 C553 1.428 . S
C559 N558 1.351 . S
C559 C560 1.434 . S
C560 C551 1.429 . S
C560 N557 1.350 . S
C560 C559 1.434 . S
C561 C562 1.369 . S
C561 C563 1.419 . S
C561 H565 0.930 . S
C562 C561 1.369 . S
C562 C571 1.429 . S
C563 C561 1.419 . S
C563 C564 1.363 . S
C563 H566 0.929 . S
C564 C563 1.363 . S
C564 C570 1.428 . S
H565 C561 0.930 . S
H566 C563 0.929 . S
S567 N568 1.613 . S
S567 N569 1.610 . S
N568 S567 1.613 . S
N568 C571 1.350 . S
N569 S567 1.610 . S
N569 C570 1.351 . S
C570 C564 1.428 . S
C570 N569 1.351 . S
C570 C571 1.434 . S
C571 C562 1.429 . S
C571 N568 1.350 . S
C571 C570 1.434 . S
C572 C573 1.369 . S
C572 C574 1.419 . S
C572 H576 0.930 . S
C573 C572 1.369 . S
C573 C582 1.429 . S
C574 C572 1.419 . S
C574 C575 1.363 . S
C574 H577 0.929 . S
C575 C574 1.363 . S
C575 C581 1.428 . S
H576 C572 0.930 . S
H577 C574 0.929 . S
S578 N579 1.613 . S
S578 N580 1.610 . S
N579 S578 1.613 . S
N579 C582 1.350 . S
N580 S578 1.610 . S
N580 C581 1.351 . S
C581 C575 1.428 . S
C581 N580 1.351 . S
C581 C582 1.434 . S
C582 C573 1.429 . S
C582 N579 1.350 . S
C582 C581 1.434 . S
C583 C584 1.369 . S
C583 C585 1.419 . S
C583 H587 0.930 . S
C584 C583 1.369 . S
C584 C593 1.429 . S
C585 C583 1.419 . S
C585 C586 1.363 . S
C585 H588 0.929 . S
C586 C585 1.363 . S
C586 C592 1.428 . S
H587 C583 0.930 . S
H588 C585 0.929 . S
S589 N590 1.613 . S
S589 N591 1.610 . S
N590 S589 1.613 . S
N590 C593 1.350 . S
N591 S589 1.610 . S
N591 C592 1.351 . S
C592 C586 1.428 . S
C592 N591 1.351 . S
C592 C593 1.434 . S
C593 C584 1.429 . S
C593 N590 1.350 . S
C593 C592 1.434 . S
C594 C595 1.369 . S
C594 C596 1.419 . S
C594 H598 0.930 . S
C595 C594 1.369 . S
C595 C604 1.429 . S
C596 C594 1.419 . S
C596 C597 1.363 . S
C596 H599 0.929 . S
C597 C596 1.363 . S
C597 C603 1.428 . S
H598 C594 0.930 . S
H599 C596 0.929 . S
S600 N601 1.613 . S
S600 N602 1.610 . S
N601 S600 1.613 . S
N601 C604 1.350 . S
N602 S600 1.610 . S
N602 C603 1.351 . S
C603 C597 1.428 . S
C603 N602 1.351 . S
C603 C604 1.434 . S
C604 C595 1.429 . S
C604 N601 1.350 . S
C604 C603 1.434 . S
C605 C606 1.369 . S
C605 C607 1.419 . S
C605 H609 0.930 . S
C606 C605 1.369 . S
C606 C615 1.429 . S
C607 C605 1.419 . S
C607 C608 1.363 . S
C607 H610 0.929 . S
C608 C607 1.363 . S
C608 C614 1.428 . S
H609 C605 0.930 . S
H610 C607 0.929 . S
S611 N612 1.613 . S
S611 N613 1.610 . S
N612 S611 1.613 . S
N612 C615 1.350 . S
N613 S611 1.610 . S
N613 C614 1.351 . S
C614 C608 1.428 . S
C614 N613 1.351 . S
C614 C615 1.434 . S
C615 C606 1.429 . S
C615 N612 1.350 . S
C615 C614 1.434 . S
C616 C617 1.369 . S
C616 C618 1.419 . S
C616 H620 0.930 . S
C617 C616 1.369 . S
C617 C626 1.429 . S
C618 C616 1.419 . S
C618 C619 1.363 . S
C618 H621 0.929 . S
C619 C618 1.363 . S
C619 C625 1.428 . S
H620 C616 0.930 . S
H621 C618 0.929 . S
S622 N623 1.613 . S
S622 N624 1.610 . S
N623 S622 1.613 . S
N623 C626 1.350 . S
N624 S622 1.610 . S
N624 C625 1.351 . S
C625 C619 1.428 . S
C625 N624 1.351 . S
C625 C626 1.434 . S
C626 C617 1.429 . S
C626 N623 1.350 . S
C626 C625 1.434 . S
C627 C628 1.369 . S
C627 C629 1.419 . S
C627 H631 0.930 . S
C628 C627 1.369 . S
C628 C637 1.429 . S
C629 C627 1.419 . S
C629 C630 1.363 . S
C629 H632 0.929 . S
C630 C629 1.363 . S
C630 C636 1.428 . S
H631 C627 0.930 . S
H632 C629 0.929 . S
S633 N634 1.613 . S
S633 N635 1.610 . S
N634 S633 1.613 . S
N634 C637 1.350 . S
N635 S633 1.610 . S
N635 C636 1.351 . S
C636 C630 1.428 . S
C636 N635 1.351 . S
C636 C637 1.434 . S
C637 C628 1.429 . S
C637 N634 1.350 . S
C637 C636 1.434 . S
C638 C639 1.369 . S
C638 C640 1.419 . S
C638 H642 0.930 . S
C639 C638 1.369 . S
C639 C648 1.429 . S
C640 C638 1.419 . S
C640 C641 1.363 . S
C640 H643 0.929 . S
C641 C640 1.363 . S
C641 C647 1.428 . S
H642 C638 0.930 . S
H643 C640 0.929 . S
S644 N645 1.613 . S
S644 N646 1.610 . S
N645 S644 1.613 . S
N645 C648 1.350 . S
N646 S644 1.610 . S
N646 C647 1.351 . S
C647 C641 1.428 . S
C647 N646 1.351 . S
C647 C648 1.434 . S
C648 C639 1.429 . S
C648 N645 1.350 . S
C648 C647 1.434 . S
C649 C650 1.369 . S
C649 C651 1.419 . S
C649 H653 0.930 . S
C650 C649 1.369 . S
C650 C659 1.429 . S
C651 C649 1.419 . S
C651 C652 1.363 . S
C651 H654 0.929 . S
C652 C651 1.363 . S
C652 C658 1.428 . S
H653 C649 0.930 . S
H654 C651 0.929 . S
S655 N656 1.613 . S
S655 N657 1.610 . S
N656 S655 1.613 . S
N656 C659 1.350 . S
N657 S655 1.610 . S
N657 C658 1.351 . S
C658 C652 1.428 . S
C658 N657 1.351 . S
C658 C659 1.434 . S
C659 C650 1.429 . S
C659 N656 1.350 . S
C659 C658 1.434 . S
C660 C661 1.369 . S
C660 C662 1.419 . S
C660 H664 0.930 . S
C661 C660 1.369 . S
C661 C670 1.429 . S
C662 C660 1.419 . S
C662 C663 1.363 . S
C662 H665 0.929 . S
C663 C662 1.363 . S
C663 C669 1.428 . S
H664 C660 0.930 . S
H665 C662 0.929 . S
S666 N667 1.613 . S
S666 N668 1.610 . S
N667 S666 1.613 . S
N667 C670 1.350 . S
N668 S666 1.610 . S
N668 C669 1.351 . S
C669 C663 1.428 . S
C669 N668 1.351 . S
C669 C670 1.434 . S
C670 C661 1.429 . S
C670 N667 1.350 . S
C670 C669 1.434 . S
C671 C672 1.369 . S
C671 C673 1.419 . S
C671 H675 0.930 . S
C672 C671 1.369 . S
C672 C681 1.429 . S
C673 C671 1.419 . S
C673 C674 1.363 . S
C673 H676 0.929 . S
C674 C673 1.363 . S
C674 C680 1.428 . S
H675 C671 0.930 . S
H676 C673 0.929 . S
S677 N678 1.613 . S
S677 N679 1.610 . S
N678 S677 1.613 . S
N678 C681 1.350 . S
N679 S677 1.610 . S
N679 C680 1.351 . S
C680 C674 1.428 . S
C680 N679 1.351 . S
C680 C681 1.434 . S
C681 C672 1.429 . S
C681 N678 1.350 . S
C681 C680 1.434 . S
C682 C683 1.369 . S
C682 C684 1.419 . S
C682 H686 0.930 . S
C683 C682 1.369 . S
C683 C692 1.429 . S
C684 C682 1.419 . S
C684 C685 1.363 . S
C684 H687 0.929 . S
C685 C684 1.363 . S
C685 C691 1.428 . S
H686 C682 0.930 . S
H687 C684 0.929 . S
S688 N689 1.613 . S
S688 N690 1.610 . S
N689 S688 1.613 . S
N689 C692 1.350 . S
N690 S688 1.610 . S
N690 C691 1.351 . S
C691 C685 1.428 . S
C691 N690 1.351 . S
C691 C692 1.434 . S
C692 C683 1.429 . S
C692 N689 1.350 . S
C692 C691 1.434 . S
C693 C694 1.369 . S
C693 C695 1.419 . S
C693 H697 0.930 . S
C694 C693 1.369 . S
C694 C703 1.429 . S
C695 C693 1.419 . S
C695 C696 1.363 . S
C695 H698 0.929 . S
C696 C695 1.363 . S
C696 C702 1.428 . S
H697 C693 0.930 . S
H698 C695 0.929 . S
S699 N700 1.613 . S
S699 N701 1.610 . S
N700 S699 1.613 . S
N700 C703 1.350 . S
N701 S699 1.610 . S
N701 C702 1.351 . S
C702 C696 1.428 . S
C702 N701 1.351 . S
C702 C703 1.434 . S
C703 C694 1.429 . S
C703 N700 1.350 . S
C703 C702 1.434 . S
C704 C705 1.369 . S
C704 C706 1.419 1_455 S
C704 H708 0.930 . S
C705 C704 1.369 . S
C705 C714 1.429 1_545 S
C706 C704 1.419 1_655 S
C706 C707 1.363 1_545 S
C706 H709 0.929 . S
C707 C706 1.363 1_565 S
C707 C713 1.428 . S
H708 C704 0.930 . S
H709 C706 0.929 . S
S710 N711 1.613 . S
S710 N712 1.610 1_455 S
N711 S710 1.613 . S
N711 C714 1.350 . S
N712 S710 1.610 1_655 S
N712 C713 1.351 . S
C713 C707 1.428 . S
C713 N712 1.351 . S
C713 C714 1.434 1_655 S
C714 C705 1.429 1_565 S
C714 N711 1.350 . S
C714 C713 1.434 1_455 S
C715 C716 1.369 1_655 S
C715 C717 1.419 1_565 S
C715 H719 0.930 . S
C716 C715 1.369 1_455 S
C716 C725 1.429 . S
C717 C715 1.419 1_545 S
C717 C718 1.363 . S
C717 H720 0.929 . S
C718 C717 1.363 . S
C718 C724 1.428 1_655 S
H719 C715 0.930 . S
H720 C717 0.929 . S
S721 N722 1.613 1_545 S
S721 N723 1.610 . S
N722 S721 1.613 1_565 S
N722 C725 1.350 . S
N723 S721 1.610 . S
N723 C724 1.351 . S
C724 C718 1.428 1_455 S
C724 N723 1.351 . S
C724 C725 1.434 1_545 S
C725 C716 1.429 . S
C725 N722 1.350 . S
C725 C724 1.434 1_565 S
C726 C727 1.369 . S
C726 C728 1.419 1_455 S
C726 H730 0.930 . S
C727 C726 1.369 . S
C727 C736 1.429 . S
C728 C726 1.419 1_655 S
C728 C729 1.363 . S
C728 H731 0.929 . S
C729 C728 1.363 . S
C729 C735 1.428 . S
H730 C726 0.930 . S
H731 C728 0.929 . S
S732 N733 1.613 1_655 S
S732 N734 1.610 . S
N733 S732 1.613 1_455 S
N733 C736 1.350 . S
N734 S732 1.610 . S
N734 C735 1.351 . S
C735 C729 1.428 . S
C735 N734 1.351 . S
C735 C736 1.434 1_655 S
C736 C727 1.429 . S
C736 N733 1.350 . S
C736 C735 1.434 1_455 S
C737 C738 1.369 . S
C737 C739 1.419 1_565 S
C737 H741 0.930 1_556 S
C738 C737 1.369 . S
C738 C747 1.429 . S
C739 C737 1.419 1_545 S
C739 C740 1.363 . S
C739 H742 0.929 1_556 S
C740 C739 1.363 . S
C740 C746 1.428 . S
H741 C737 0.930 1_554 S
H742 C739 0.929 1_554 S
S743 N744 1.613 1_545 S
S743 N745 1.610 . S
N744 S743 1.613 1_565 S
N744 C747 1.350 . S
N745 S743 1.610 . S
N745 C746 1.351 . S
C746 C740 1.428 . S
C746 N745 1.351 . S
C746 C747 1.434 1_545 S
C747 C738 1.429 . S
C747 N744 1.350 . S
C747 C746 1.434 1_565 S
C748 C749 1.369 . S
C748 C750 1.419 . S
C748 H752 0.930 . S
C749 C748 1.369 . S
C749 C758 1.429 . S
C750 C748 1.419 . S
C750 C751 1.363 . S
C750 H753 0.929 . S
C751 C750 1.363 . S
C751 C757 1.428 . S
H752 C748 0.930 . S
H753 C750 0.929 . S
S754 N755 1.613 . S
S754 N756 1.610 . S
N755 S754 1.613 . S
N755 C758 1.350 . S
N756 S754 1.610 . S
N756 C757 1.351 . S
C757 C751 1.428 . S
C757 N756 1.351 . S
C757 C758 1.434 . S
C758 C749 1.429 . S
C758 N755 1.350 . S
C758 C757 1.434 . S
C759 C760 1.369 . S
C759 C761 1.419 . S
C759 H763 0.930 . S
C760 C759 1.369 . S
C760 C769 1.429 . S
C761 C759 1.419 . S
C761 C762 1.363 . S
C761 H764 0.929 . S
C762 C761 1.363 . S
C762 C768 1.428 . S
H763 C759 0.930 . S
H764 C761 0.929 . S
S765 N766 1.613 . S
S765 N767 1.610 . S
N766 S765 1.613 . S
N766 C769 1.350 . S
N767 S765 1.610 . S
N767 C768 1.351 . S
C768 C762 1.428 . S
C768 N767 1.351 . S
C768 C769 1.434 . S
C769 C760 1.429 . S
C769 N766 1.350 . S
C769 C768 1.434 . S
C770 C771 1.369 1_545 S
C770 C772 1.419 . S
C770 H774 0.930 . S
C771 C770 1.369 1_565 S
C771 C780 1.429 . S
C772 C770 1.419 . S
C772 C773 1.363 . S
C772 H775 0.929 . S
C773 C772 1.363 . S
C773 C779 1.428 1_545 S
H774 C770 0.930 . S
H775 C772 0.929 . S
S776 N777 1.613 . S
S776 N778 1.610 . S
N777 S776 1.613 . S
N777 C780 1.350 . S
N778 S776 1.610 . S
N778 C779 1.351 . S
C779 C773 1.428 1_565 S
C779 N778 1.351 . S
C779 C780 1.434 . S
C780 C771 1.429 . S
C780 N777 1.350 . S
C780 C779 1.434 . S
C781 C782 1.369 . S
C781 C783 1.419 1_655 S
C781 H785 0.930 . S
C782 C781 1.369 . S
C782 C791 1.429 . S
C783 C781 1.419 1_455 S
C783 C784 1.363 . S
C783 H786 0.929 . S
C784 C783 1.363 . S
C784 C790 1.428 . S
H785 C781 0.930 . S
H786 C783 0.929 . S
S787 N788 1.613 1_455 S
S787 N789 1.610 . S
N788 S787 1.613 1_655 S
N788 C791 1.350 . S
N789 S787 1.610 . S
N789 C790 1.351 . S
C790 C784 1.428 . S
C790 N789 1.351 . S
C790 C791 1.434 1_455 S
C791 C782 1.429 . S
C791 N788 1.350 . S
C791 C790 1.434 1_655 S
C792 C793 1.369 . S
C792 C794 1.419 . S
C792 H796 0.930 . S
C793 C792 1.369 . S
C793 C802 1.429 . S
C794 C792 1.419 . S
C794 C795 1.363 . S
C794 H797 0.929 . S
C795 C794 1.363 . S
C795 C801 1.428 . S
H796 C792 0.930 . S
H797 C794 0.929 . S
S798 N799 1.613 1_545 S
S798 N800 1.612 . S
N799 S798 1.613 1_565 S
N799 C802 1.350 . S
N800 S798 1.612 . S
N800 C801 1.342 1_545 S
C801 C795 1.428 . S
C801 N800 1.342 1_565 S
C801 C802 1.434 . S
C802 C793 1.429 . S
C802 N799 1.350 . S
C802 C801 1.434 . S
C803 C804 1.369 . S
C803 C805 1.419 . S
C803 H807 0.930 . S
C804 C803 1.369 . S
C804 C813 1.429 . S
C805 C803 1.419 . S
C805 C806 1.363 . S
C805 H808 0.929 . S
C806 C805 1.363 . S
C806 C812 1.428 . S
H807 C803 0.930 . S
H808 C805 0.929 . S
S809 N810 1.615 . S
S809 N811 1.610 1_455 S
N810 S809 1.615 . S
N810 C813 1.343 1_455 S
N811 S809 1.610 1_655 S
N811 C812 1.351 . S
C812 C806 1.428 . S
C812 N811 1.351 . S
C812 C813 1.434 . S
C813 C804 1.429 . S
C813 N810 1.343 1_655 S
C813 C812 1.434 . S
C814 C815 1.369 . S
C814 C816 1.419 . S
C814 H818 0.930 . S
C815 C814 1.369 . S
C815 C824 1.429 . S
C816 C814 1.419 . S
C816 C817 1.363 . S
C816 H819 0.929 1_545 S
C817 C816 1.363 . S
C817 C823 1.428 . S
H818 C814 0.930 . S
H819 C816 0.929 1_565 S
S820 N821 1.613 . S
S820 N822 1.610 . S
N821 S820 1.613 . S
N821 C824 1.350 . S
N822 S820 1.610 . S
N822 C823 1.351 . S
C823 C817 1.428 . S
C823 N822 1.351 . S
C823 C824 1.434 . S
C824 C815 1.429 . S
C824 N821 1.350 . S
C824 C823 1.434 . S
C825 C826 1.369 . S
C825 C827 1.419 . S
C825 H829 0.928 . S
C826 C825 1.369 . S
C826 C835 1.429 . S
C827 C825 1.419 . S
C827 C828 1.363 . S
C827 H830 0.929 . S
C828 C827 1.363 . S
C828 C834 1.428 . S
H829 C825 0.928 . S
H830 C827 0.929 . S
S831 N832 1.613 . S
S831 N833 1.610 . S
N832 S831 1.613 . S
N832 C835 1.350 . S
N833 S831 1.610 . S
N833 C834 1.351 . S
C834 C828 1.428 . S
C834 N833 1.351 . S
C834 C835 1.434 . S
C835 C826 1.429 . S
C835 N832 1.350 . S
C835 C834 1.434 . S
C836 C837 1.369 . S
C836 C838 1.419 . S
C836 H840 0.930 . S
C837 C836 1.369 . S
C837 C846 1.429 . S
C838 C836 1.419 . S
C838 C839 1.363 . S
C838 H841 0.929 . S
C839 C838 1.363 . S
C839 C845 1.428 . S
H840 C836 0.930 . S
H841 C838 0.929 . S
S842 N843 1.613 . S
S842 N844 1.610 . S
N843 S842 1.613 . S
N843 C846 1.350 . S
N844 S842 1.610 . S
N844 C845 1.351 . S
C845 C839 1.428 . S
C845 N844 1.351 . S
C845 C846 1.434 . S
C846 C837 1.429 . S
C846 N843 1.350 . S
C846 C845 1.434 . S
C847 C848 1.369 . S
C847 C849 1.419 . S
C847 H851 0.930 . S
C848 C847 1.369 . S
C848 C857 1.429 . S
C849 C847 1.419 . S
C849 C850 1.363 . S
C849 H852 0.929 . S
C850 C849 1.363 . S
C850 C856 1.428 . S
H851 C847 0.930 . S
H852 C849 0.929 . S
S853 N854 1.613 . S
S853 N855 1.610 . S
N854 S853 1.613 . S
N854 C857 1.350 . S
N855 S853 1.610 . S
N855 C856 1.351 . S
C856 C850 1.428 . S
C856 N855 1.351 . S
C856 C857 1.434 . S
C857 C848 1.429 . S
C857 N854 1.350 . S
C857 C856 1.434 . S
C858 C859 1.369 . S
C858 C860 1.419 . S
C858 H862 0.930 . S
C859 C858 1.369 . S
C859 C868 1.429 . S
C860 C858 1.419 . S
C860 C861 1.363 . S
C860 H863 0.929 . S
C861 C860 1.363 . S
C861 C867 1.428 . S
H862 C858 0.930 . S
H863 C860 0.929 . S
S864 N865 1.613 . S
S864 N866 1.610 . S
N865 S864 1.613 . S
N865 C868 1.350 . S
N866 S864 1.610 . S
N866 C867 1.351 . S
C867 C861 1.428 . S
C867 N866 1.351 . S
C867 C868 1.434 . S
C868 C859 1.429 . S
C868 N865 1.350 . S
C868 C867 1.434 . S
C869 C870 1.369 . S
C869 C871 1.419 . S
C869 H873 0.930 . S
C870 C869 1.369 . S
C870 C879 1.429 . S
C871 C869 1.419 . S
C871 C872 1.363 . S
C871 H874 0.929 . S
C872 C871 1.363 . S
C872 C878 1.428 . S
H873 C869 0.930 . S
H874 C871 0.929 . S
S875 N876 1.613 . S
S875 N877 1.610 . S
N876 S875 1.613 . S
N876 C879 1.350 . S
N877 S875 1.610 . S
N877 C878 1.351 . S
C878 C872 1.428 . S
C878 N877 1.351 . S
C878 C879 1.434 . S
C879 C870 1.429 . S
C879 N876 1.350 . S
C879 C878 1.434 . S
C880 C881 1.369 . S
C880 C882 1.419 . S
C880 H884 0.930 . S
C881 C880 1.369 . S
C881 C890 1.429 . S
C882 C880 1.419 . S
C882 C883 1.363 1_556 S
C882 H885 0.929 1_556 S
C883 C882 1.363 1_554 S
C883 C889 1.428 . S
H884 C880 0.930 . S
H885 C882 0.929 1_554 S
S886 N887 1.613 1_554 S
S886 N888 1.610 . S
N887 S886 1.613 1_556 S
N887 C890 1.350 . S
N888 S886 1.610 . S
N888 C889 1.351 . S
C889 C883 1.428 . S
C889 N888 1.351 . S
C889 C890 1.434 1_554 S
C890 C881 1.429 . S
C890 N887 1.350 . S
C890 C889 1.434 1_556 S
C891 C892 1.369 1_554 S
C891 C893 1.419 . S
C891 H895 0.930 . S
C892 C891 1.369 1_556 S
C892 C901 1.429 . S
C893 C891 1.419 . S
C893 C894 1.363 . S
C893 H896 0.929 . S
C894 C893 1.363 . S
C894 C900 1.428 . S
H895 C891 0.930 . S
H896 C893 0.929 . S
S897 N898 1.613 . S
S897 N899 1.610 1_556 S
N898 S897 1.613 . S
N898 C901 1.350 . S
N899 S897 1.610 1_554 S
N899 C900 1.351 . S
C900 C894 1.428 . S
C900 N899 1.351 . S
C900 C901 1.434 1_554 S
C901 C892 1.429 . S
C901 N898 1.350 . S
C901 C900 1.434 1_556 S
C902 C903 1.369 . S
C902 C904 1.419 . S
C902 H906 0.930 . S
C903 C902 1.369 . S
C903 C912 1.429 . S
C904 C902 1.419 . S
C904 C905 1.363 1_556 S
C904 H907 0.929 . S
C905 C904 1.363 1_554 S
C905 C911 1.428 . S
H906 C902 0.930 . S
H907 C904 0.929 . S
S908 N909 1.613 1_554 S
S908 N910 1.610 . S
N909 S908 1.613 1_556 S
N909 C912 1.350 . S
N910 S908 1.610 . S
N910 C911 1.351 . S
C911 C905 1.428 . S
C911 N910 1.351 . S
C911 C912 1.434 1_554 S
C912 C903 1.429 . S
C912 N909 1.350 . S
C912 C911 1.434 1_556 S
C913 C914 1.369 . S
C913 C915 1.419 1_554 S
C913 H917 0.930 . S
C914 C913 1.369 . S
C914 C923 1.429 . S
C915 C913 1.419 1_556 S
C915 C916 1.363 . S
C915 H918 0.929 . S
C916 C915 1.363 . S
C916 C922 1.428 . S
H917 C913 0.930 . S
H918 C915 0.929 . S
S919 N920 1.613 1_556 S
S919 N921 1.610 . S
N920 S919 1.613 1_554 S
N920 C923 1.350 . S
N921 S919 1.610 . S
N921 C922 1.351 . S
C922 C916 1.428 . S
C922 N921 1.351 . S
C922 C923 1.434 1_556 S
C923 C914 1.429 . S
C923 N920 1.350 . S
C923 C922 1.434 1_554 S
C924 C925 1.369 . S
C924 C926 1.419 . S
C924 H928 0.930 . S
C925 C924 1.369 . S
C925 C934 1.429 . S
C926 C924 1.419 . S
C926 C927 1.363 . S
C926 H929 0.929 . S
C927 C926 1.363 . S
C927 C933 1.428 . S
H928 C924 0.930 . S
H929 C926 0.929 . S
S930 N931 1.607 1_565 S
S930 N932 1.610 . S
N931 S930 1.607 1_545 S
N931 C934 1.355 . S
N932 S930 1.610 . S
N932 C933 1.351 1_565 S
C933 C927 1.428 . S
C933 N932 1.351 1_545 S
C933 C934 1.434 . S
C934 C925 1.429 . S
C934 N931 1.355 . S
C934 C933 1.434 . S
C935 C936 1.369 . S
C935 C937 1.419 . S
C935 H939 0.930 1_455 S
C936 C935 1.369 . S
C936 C945 1.429 . S
C937 C935 1.419 . S
C937 C938 1.363 . S
C937 H940 0.929 1_455 S
C938 C937 1.363 . S
C938 C944 1.428 . S
H939 C935 0.930 1_655 S
H940 C937 0.929 1_655 S
S941 N942 1.613 . S
S941 N943 1.610 . S
N942 S941 1.613 . S
N942 C945 1.350 . S
N943 S941 1.610 . S
N943 C944 1.351 . S
C944 C938 1.428 . S
C944 N943 1.351 . S
C944 C945 1.434 . S
C945 C936 1.429 . S
C945 N942 1.350 . S
C945 C944 1.434 . S
C946 C947 1.369 . S
C946 C948 1.419 . S
C946 H950 0.930 . S
C947 C946 1.369 . S
C947 C956 1.429 . S
C948 C946 1.419 . S
C948 C949 1.363 . S
C948 H951 0.929 . S
C949 C948 1.363 . S
C949 C955 1.428 . S
H950 C946 0.930 . S
H951 C948 0.929 . S
S952 N953 1.613 . S
S952 N954 1.610 1_545 S
N953 S952 1.613 . S
N953 C956 1.350 1_545 S
N954 S952 1.610 1_565 S
N954 C955 1.351 . S
C955 C949 1.428 . S
C955 N954 1.351 . S
C955 C956 1.434 . S
C956 C947 1.429 . S
C956 N953 1.350 1_565 S
C956 C955 1.434 . S
C957 C958 1.369 . S
C957 C959 1.419 . S
C957 H961 0.930 . S
C958 C957 1.369 . S
C958 C967 1.429 . S
C959 C957 1.419 . S
C959 C960 1.363 . S
C959 H962 0.929 . S
C960 C959 1.363 . S
C960 C966 1.428 . S
H961 C957 0.930 . S
H962 C959 0.929 . S
S963 N964 1.614 . S
S963 N965 1.610 1_455 S
N964 S963 1.614 . S
N964 C967 1.346 1_455 S
N965 S963 1.610 1_655 S
N965 C966 1.351 . S
C966 C960 1.428 . S
C966 N965 1.351 . S
C966 C967 1.434 . S
C967 C958 1.429 . S
C967 N964 1.346 1_655 S
C967 C966 1.434 . S
C529 N145 2.133 . S
C531 N13 2.133 . S
C540 N46 2.133 . S
C542 N178 2.136 . S
C551 N79 2.137 . S
C553 N211 2.134 . S
C562 N112 2.138 . S
C564 N244 2.136 . S
C573 N277 2.132 . S
C575 N409 2.134 . S
C584 N442 2.137 . S
C586 N310 2.138 . S
C595 N475 2.132 . S
C597 N343 2.136 . S
C606 N376 2.133 . S
C608 N508 2.133 . S
C617 C18 1.615 . S
C619 C480 1.606 . S
C628 C51 1.614 . S
C630 C513 1.607 . S
C639 C84 1.605 . S
C641 C414 1.615 . S
C650 C447 1.613 . S
C652 C117 1.608 . S
C661 C348 1.616 . S
C663 C150 1.606 . S
C672 C183 1.604 . S
C674 C381 1.615 . S
C683 C216 1.615 . S
C685 C282 1.606 . S
C694 C249 1.605 . S
C696 C315 1.615 . S
C705 C7 1.791 . S
C707 C73 1.789 . S
C716 C40 1.790 . S
C718 C106 1.794 . S
C727 C139 1.788 . S
C729 C205 1.792 . S
C738 C172 1.798 . S
C740 C238 1.797 . S
C749 C337 1.798 . S
C751 C271 1.794 . S
C760 C370 1.790 . S
C762 C304 1.794 . S
C771 C403 1.788 . S
C773 C469 1.792 . S
C782 C436 1.787 . S
C784 C502 1.789 . S
C793 C54 0.758 . S
C795 N2 0.769 . S
C804 N35 0.772 . S
C806 C87 0.762 . S
C815 C120 0.762 . S
C817 N68 0.775 . S
C826 N101 0.759 . S
C828 C21 0.776 . S
C837 C516 0.770 . S
C839 N134 0.770 . S
C848 N167 0.778 . S
C850 C417 0.759 . S
C859 N200 0.761 . S
C861 C450 0.776 . S
C870 N233 0.772 . S
C872 C483 0.761 . S
C881 N266 0.750 . S
C883 C318 0.776 . S
C892 C351 0.767 . S
C894 N299 0.762 . S
C903 N332 0.756 . S
C905 C384 0.770 . S
C914 N365 0.754 . S
C916 C285 0.773 . S
C925 C252 0.762 . S
C927 N398 0.766 . S
C936 N431 0.771 . S
C938 C153 0.768 . S
C947 N464 0.759 . S
C949 C186 0.768 . S
C958 N497 0.772 . S
C960 C219 0.761 . S
