# Generated by pormake.
# Topology ooa, (5)-cn, num edge types: 1
# Building blocks:
#     Node 0, Type 0, BuildingBlock: BEQFEK_clean_sbu_0, # of connection points: 5
#     Node 1, Type 0, BuildingBlock: BEQFEK_clean_sbu_0, # of connection points: 5
#     Node 2, Type 0, BuildingBlock: BEQFEK_clean_sbu_0, # of connection points: 5
#     Node 3, Type 0, BuildingBlock: BEQFEK_clean_sbu_0, # of connection points: 5
#     Node 4, Type 0, BuildingBlock: BEQFEK_clean_sbu_0, # of connection points: 5
#     Node 5, Type 0, BuildingBlock: BEQFEK_clean_sbu_0, # of connection points: 5
#     Node 6, Type 0, BuildingBlock: BEQFEK_clean_sbu_0, # of connection points: 5
#     Node 7, Type 0, BuildingBlock: BEQFEK_clean_sbu_0, # of connection points: 5
#     Edge 8, Type (0, 0), BuildingBlock: EZIPEK_clean_linker_0, # of connection points: 2
#     Edge 9, Type (0, 0), BuildingBlock: EZIPEK_clean_linker_0, # of connection points: 2
#     Edge 10, Type (0, 0), BuildingBlock: EZIPEK_clean_linker_0, # of connection points: 2
#     Edge 11, Type (0, 0), BuildingBlock: EZIPEK_clean_linker_0, # of connection points: 2
#     Edge 12, Type (0, 0), BuildingBlock: EZIPEK_clean_linker_0, # of connection points: 2
#     Edge 13, Type (0, 0), BuildingBlock: EZIPEK_clean_linker_0, # of connection points: 2
#     Edge 14, Type (0, 0), BuildingBlock: EZIPEK_clean_linker_0, # of connection points: 2
#     Edge 15, Type (0, 0), BuildingBlock: EZIPEK_clean_linker_0, # of connection points: 2
#     Edge 16, Type (0, 0), BuildingBlock: EZIPEK_clean_linker_0, # of connection points: 2
#     Edge 17, Type (0, 0), BuildingBlock: EZIPEK_clean_linker_0, # of connection points: 2
#     Edge 18, Type (0, 0), BuildingBlock: EZIPEK_clean_linker_0, # of connection points: 2
#     Edge 19, Type (0, 0), BuildingBlock: EZIPEK_clean_linker_0, # of connection points: 2
#     Edge 20, Type (0, 0), BuildingBlock: EZIPEK_clean_linker_0, # of connection points: 2
#     Edge 21, Type (0, 0), BuildingBlock: EZIPEK_clean_linker_0, # of connection points: 2
#     Edge 22, Type (0, 0), BuildingBlock: EZIPEK_clean_linker_0, # of connection points: 2
#     Edge 23, Type (0, 0), BuildingBlock: EZIPEK_clean_linker_0, # of connection points: 2
#     Edge 24, Type (0, 0), BuildingBlock: EZIPEK_clean_linker_0, # of connection points: 2
#     Edge 25, Type (0, 0), BuildingBlock: EZIPEK_clean_linker_0, # of connection points: 2
#     Edge 26, Type (0, 0), BuildingBlock: EZIPEK_clean_linker_0, # of connection points: 2
#     Edge 27, Type (0, 0), BuildingBlock: EZIPEK_clean_linker_0, # of connection points: 2
# Relax obj value: 0.533
# Max RMSD: 0.278
# Mean RMSD: 0.278
data_MOF--net-ooa--node1-BEQFEK_clean_sbu_0--edge1-EZIPEK_clean_linker_0
_symmetry_space_group_name_H-M    P1
_symmetry_Int_Tables_number       1
_symmetry_cell_setting            triclinic
loop_
_symmetry_equiv_pos_as_xyz
'x, y, z'
_cell_length_a     20.606945
_cell_length_b     36.741181
_cell_length_c     37.095174
_cell_angle_alpha  90.267759
_cell_angle_beta   90.031665
_cell_angle_gamma 90.062705
loop_
_atom_site_label
_atom_site_type_symbol
_atom_site_fract_x
_atom_site_fract_y
_atom_site_fract_z
_atom_type_partial_charge
Co0 Co 0.1776 0.09948 0.05308 0.0
Co1 Co 0.2113 0.15662 0.11204 0.0
C2 C 0.22671 0.0788 0.12734 0.0
O3 O 0.21288 0.07341 0.09455 0.0
O4 O 0.22498 0.11065 0.141 0.0
C5 C 0.09204 0.04566 0.04791 0.0
O6 O 0.08974 0.05741 0.0814 0.0
C7 C 0.20484 0.20033 0.17863 0.0
C8 C 0.25364 0.25139 0.16292 0.0
C9 C 0.22399 0.2341 0.19164 0.0
N10 N 0.22233 0.19764 0.14377 0.0
N11 N 0.25114 0.22838 0.1345 0.0
C12 C 0.17246 0.17061 0.19931 0.0
H13 H 0.14209 0.15371 0.18102 0.0
H14 H 0.14232 0.18201 0.22142 0.0
H15 H 0.21027 0.15296 0.21137 0.0
C16 C 0.05982 0.14217 0.04768 0.0
N17 N 0.11595 0.13479 0.06445 0.0
N18 N 0.12619 0.1586 0.09035 0.0
C19 C 0.0743 0.1813 0.09175 0.0
C20 C 0.03039 0.17119 0.06476 0.0
C21 C 0.03655 0.12321 1.01421 0.0
H22 H 0.07725 0.11018 0.99974 0.0
H23 H 0.99931 0.10286 0.02175 0.0
H24 H 0.01384 0.14229 0.99509 0.0
O25 O 0.24635 0.12332 0.02721 0.0
O26 O 0.28087 0.15866 0.07236 0.0
H27 H 0.11023 0.23169 0.11269 0.0
H28 H 0.02247 0.228 0.11246 0.0
C29 C 0.06856 0.21304 0.11685 0.0
H30 H 0.07071 0.20327 0.14507 0.0
H31 H 0.26985 0.2335 0.10889 0.0
O32 O 0.1328 0.06044 0.02687 0.0
C33 C 0.28746 0.14555 0.04039 0.0
Co34 Co 0.31358 0.91665 0.04594 0.0
Co35 Co 0.29471 0.85938 0.10809 0.0
C36 C 0.28059 0.93828 0.12306 0.0
O37 O 0.29235 0.94391 0.09004 0.0
O38 O 0.27937 0.90614 0.13576 0.0
C39 C 0.37233 0.98392 0.02551 0.0
O40 O 0.33826 0.99866 0.05166 0.0
C41 C 0.29523 0.81913 0.17699 0.0
C42 C 0.29592 0.76199 0.15814 0.0
C43 C 0.29603 0.78344 0.1889 0.0
N44 N 0.2946 0.81894 0.14071 0.0
N45 N 0.29492 0.78465 0.12966 0.0
C46 C 0.29573 0.85282 0.19973 0.0
H47 H 0.2497 0.86787 0.19556 0.0
H48 H 0.33626 0.8707 0.19114 0.0
H49 H 0.30102 0.84636 0.22879 0.0
C50 C 0.43267 0.8754 0.03654 0.0
N51 N 0.37704 0.88115 0.05439 0.0
N52 N 0.37532 0.8604 0.08311 0.0
C53 C 0.43238 0.84235 0.08551 0.0
C54 C 0.47036 0.85128 0.05577 0.0
C55 C 0.45139 0.8938 1.00211 0.0
H56 H 0.40804 0.89776 0.98485 0.0
H57 H 0.47349 0.92061 1.0084 0.0
H58 H 0.48769 0.87741 0.98705 0.0
O59 O 0.23569 0.89225 0.02725 0.0
O60 O 0.22438 0.85053 0.07042 0.0
H61 H 0.43072 0.7911 0.11213 0.0
H62 H 0.50501 0.81626 0.11829 0.0
C63 C 0.45143 0.81867 0.11638 0.0
H64 H 0.43148 0.82983 0.14192 0.0
H65 H 0.29488 0.77672 0.10261 0.0
O66 O 0.35714 0.95241 1.01383 0.0
C67 C 0.20603 0.86494 0.04069 0.0
Co68 Co 0.19869 0.41428 0.489 0.0
Co69 Co 0.21033 0.36054 0.42343 0.0
C70 C 0.23247 0.4399 0.41375 0.0
O71 O 0.22257 0.44377 0.44723 0.0
O72 O 0.22977 0.40863 0.39873 0.0
C73 C 0.14828 0.4807 0.51537 0.0
O74 O 0.18138 0.49673 0.48971 0.0
C75 C 0.20385 0.32321 0.35222 0.0
C76 C 0.21396 0.26567 0.36832 0.0
C77 C 0.20778 0.28803 0.33861 0.0
N78 N 0.20755 0.32176 0.38844 0.0
N79 N 0.21314 0.28722 0.3978 0.0
C80 C 0.19933 0.35767 0.33114 0.0
H81 H 0.24683 0.3719 0.33221 0.0
H82 H 0.16249 0.37584 0.34355 0.0
H83 H 0.18657 0.35218 0.30256 0.0
C84 C 0.07225 0.37822 0.49527 0.0
N85 N 0.12904 0.38288 0.47803 0.0
N86 N 0.12957 0.36303 0.44844 0.0
C87 C 0.07139 0.34625 0.44518 0.0
C88 C 0.0332 0.3557 0.47475 0.0
C89 C 0.0565 0.39342 0.53178 0.0
H90 H 0.03261 0.42015 0.52878 0.0
H91 H 0.02239 0.37552 0.5465 0.0
H92 H 0.10119 0.39649 0.54813 0.0
O93 O 0.27293 0.38594 0.50559 0.0
O94 O 0.27932 0.34649 0.46026 0.0
H95 H 0.0002 0.31632 0.41423 0.0
H96 H 0.06979 0.33281 0.38896 0.0
C97 C 0.05336 0.32119 0.41496 0.0
H98 H 0.07845 0.29478 0.41875 0.0
H99 H 0.21759 0.27839 0.42439 0.0
O100 O 0.16349 0.44867 0.52497 0.0
C101 C 0.29922 0.35821 0.49087 0.0
Co102 Co 0.30114 0.61357 0.48976 0.0
Co103 Co 0.28958 0.66371 0.42237 0.0
C104 C 0.26981 0.58479 0.4142 0.0
O105 O 0.27795 0.58269 0.44796 0.0
O106 O 0.27334 0.61524 0.39805 0.0
C107 C 0.38666 0.5624 0.5051 0.0
O108 O 0.39789 0.57343 0.47205 0.0
C109 C 0.29229 0.69958 0.35099 0.0
C110 C 0.30213 0.75744 0.36665 0.0
C111 C 0.29742 0.73443 0.33714 0.0
N112 N 0.29372 0.70177 0.38721 0.0
N113 N 0.29965 0.73646 0.39633 0.0
C114 C 0.28702 0.6648 0.33013 0.0
H115 H 0.32622 0.64603 0.33868 0.0
H116 H 0.29051 0.66954 0.30067 0.0
H117 H 0.23988 0.65161 0.33632 0.0
C118 C 0.42333 0.65318 0.49711 0.0
N119 N 0.36694 0.6478 0.47981 0.0
N120 N 0.36961 0.6631 0.44798 0.0
C121 C 0.43046 0.676 0.44291 0.0
C122 C 0.46667 0.66973 0.47409 0.0
C123 C 0.43755 0.64115 0.53473 0.0
H124 H 0.39213 0.63452 0.54931 0.0
H125 H 0.47033 0.6173 0.53394 0.0
H126 H 0.46368 0.66312 0.54941 0.0
O127 O 0.22445 0.63964 0.50567 0.0
O128 O 0.21765 0.67687 0.45853 0.0
H129 H 0.44168 0.72081 0.40724 0.0
H130 H 0.50801 0.6889 0.40609 0.0
C131 C 0.45448 0.6915 0.40823 0.0
H132 H 0.43051 0.67768 0.38511 0.0
H133 H 0.30227 0.74581 0.4229 0.0
O134 O 0.34001 0.57691 0.52252 0.0
C135 C 0.19684 0.66583 0.4892 0.0
Co136 Co 0.82094 0.91892 0.97687 0.0
Co137 Co 0.79156 0.86168 0.91767 0.0
C138 C 0.77695 0.94151 0.90381 0.0
O139 O 0.79054 0.94739 0.93658 0.0
O140 O 0.77697 0.90933 0.8906 0.0
C141 C 0.84888 0.98713 1.00908 0.0
O142 O 0.80396 1.00023 0.98778 0.0
C143 C 0.79391 0.82131 0.84849 0.0
C144 C 0.76584 0.76598 0.86562 0.0
C145 C 0.78171 0.78644 0.83563 0.0
N146 N 0.78553 0.82153 0.88447 0.0
N147 N 0.76913 0.78828 0.89451 0.0
C148 C 0.81077 0.8542 0.82684 0.0
H149 H 0.76701 0.87157 0.82425 0.0
H150 H 0.84868 0.87026 0.84105 0.0
H151 H 0.82787 0.84659 0.79947 0.0
C152 C 0.94799 0.88605 0.97597 0.0
N153 N 0.88783 0.88863 0.96255 0.0
N154 N 0.87608 0.86129 0.94055 0.0
C155 C 0.92872 0.83916 0.94075 0.0
C156 C 0.97583 0.85432 0.96344 0.0
C157 C 0.97772 0.91296 1.00166 0.0
H158 H 0.9538 0.91068 0.02835 0.0
H159 H 0.97049 0.94091 0.9913 0.0
H160 H 0.03059 0.90847 1.00504 0.0
O161 O 0.75302 0.89111 0.99969 0.0
O162 O 0.71953 0.85579 0.95475 0.0
H163 H 0.89323 0.78524 0.9321 0.0
H164 H 0.97999 0.79015 0.92564 0.0
C165 C 0.93205 0.80331 0.9217 0.0
H166 H 0.92307 0.80738 0.8925 0.0
H167 H 0.75933 0.78091 0.92109 0.0
O168 O 0.85589 0.953 1.01155 0.0
C169 C 0.71289 0.86836 0.98676 0.0
Co170 Co 0.6931 0.10315 0.98585 0.0
Co171 Co 0.71012 0.16077 0.92393 0.0
C172 C 0.72832 0.08192 0.9092 0.0
O173 O 0.7159 0.07593 0.94206 0.0
O174 O 0.72899 0.11414 0.89675 0.0
C175 C 0.63592 0.03527 1.00593 0.0
O176 O 0.67021 0.02095 0.97967 0.0
C177 C 0.71042 0.19965 0.85429 0.0
C178 C 0.7042 0.25709 0.87183 0.0
C179 C 0.70769 0.235 0.84157 0.0
N180 N 0.70863 0.20061 0.89056 0.0
N181 N 0.70494 0.23508 0.90082 0.0
C182 C 0.71435 0.16555 0.83225 0.0
H183 H 0.76111 0.15174 0.83784 0.0
H184 H 0.67451 0.14688 0.84016 0.0
H185 H 0.71094 0.17133 0.80297 0.0
C186 C 0.57092 0.14213 0.99392 0.0
N187 N 0.62763 0.13753 0.97679 0.0
N188 N 0.6289 0.15813 0.94794 0.0
C189 C 0.57072 0.17486 0.94473 0.0
C190 C 0.53226 0.16521 0.97404 0.0
C191 C 0.55219 0.12367 0.02831 0.0
H192 H 0.59521 0.12047 0.04597 0.0
H193 H 0.53149 0.09652 0.02201 0.0
H194 H 0.51467 0.1396 0.04292 0.0
O195 O 0.76999 0.12889 1.00468 0.0
O196 O 0.77775 0.17177 0.96266 0.0
H197 H 0.56931 0.22591 0.91777 0.0
H198 H 0.49751 0.19879 0.91076 0.0
C199 C 0.55114 0.1978 0.91342 0.0
H200 H 0.57313 0.18702 0.88825 0.0
H201 H 0.70272 0.24358 0.92768 0.0
O202 O 0.65058 0.06678 0.01789 0.0
C203 C 0.79718 0.15749 0.99221 0.0
Co204 Co 0.82394 0.59344 0.5532 0.0
Co205 Co 0.78671 0.65354 0.60987 0.0
C206 C 0.78142 0.57529 0.62902 0.0
O207 O 0.79683 0.56817 0.59675 0.0
O208 O 0.77669 0.60803 0.64012 0.0
C209 C 0.88321 0.52542 0.5368 0.0
O210 O 0.84819 0.51239 0.56331 0.0
C211 C 0.79201 0.69776 0.67603 0.0
C212 C 0.74273 0.74845 0.65978 0.0
C213 C 0.77203 0.73145 0.68879 0.0
N214 N 0.77526 0.69484 0.64108 0.0
N215 N 0.74616 0.72536 0.63147 0.0
C216 C 0.82422 0.66821 0.69701 0.0
H217 H 0.8583 0.65294 0.6794 0.0
H218 H 0.85045 0.67944 0.72072 0.0
H219 H 0.78661 0.64897 0.70672 0.0
C220 C 0.941 0.6373 0.54774 0.0
N221 N 0.88419 0.63009 0.56391 0.0
N222 N 0.87023 0.65621 0.58699 0.0
C223 C 0.91837 0.68132 0.58584 0.0
C224 C 0.96481 0.66992 0.5609 0.0
C225 C 0.97014 0.61425 0.51849 0.0
H226 H 0.93484 0.61109 0.4961 0.0
H227 H 0.98114 0.58708 0.5294 0.0
H228 H 0.0161 0.62546 0.50786 0.0
O229 O 0.74947 0.61559 0.5285 0.0
O230 O 0.71726 0.65468 0.57106 0.0
H231 H 0.87315 0.73202 0.59866 0.0
H232 H 0.96105 0.73326 0.59991 0.0
C233 C 0.91745 0.71662 0.606 0.0
H234 H 0.9154 0.71108 0.63535 0.0
H235 H 0.72778 0.73022 0.60572 0.0
O236 O 0.87061 0.5567 0.52408 0.0
C237 C 0.70969 0.63946 0.54017 0.0
Co238 Co 0.6841 0.4177 0.55385 0.0
Co239 Co 0.7113 0.35813 0.61175 0.0
C240 C 0.7303 0.43655 0.62872 0.0
O241 O 0.71544 0.44341 0.59643 0.0
O242 O 0.73034 0.40406 0.64046 0.0
C243 C 0.59822 0.47199 0.54676 0.0
O244 O 0.58983 0.45922 0.57946 0.0
C245 C 0.70617 0.31786 0.67997 0.0
C246 C 0.73351 0.26214 0.66341 0.0
C247 C 0.71661 0.28313 0.69303 0.0
N248 N 0.71663 0.31766 0.64417 0.0
N249 N 0.7327 0.28418 0.63444 0.0
C250 C 0.6866 0.35072 0.70122 0.0
H251 H 0.65145 0.36714 0.6855 0.0
H252 H 0.66492 0.34296 0.72747 0.0
H253 H 0.73018 0.36772 0.70641 0.0
C254 C 0.56364 0.3763 0.54652 0.0
N255 N 0.61942 0.38299 0.56408 0.0
N256 N 0.62713 0.35896 0.58987 0.0
C257 C 0.57463 0.33672 0.59012 0.0
C258 C 0.5325 0.34736 0.56269 0.0
C259 C 0.54257 0.39588 0.51319 0.0
H260 H 0.58534 0.40646 0.49859 0.0
H261 H 0.50978 0.41844 0.52102 0.0
H262 H 0.5155 0.37809 0.49439 0.0
O263 O 0.75607 0.39253 0.52961 0.0
O264 O 0.77668 0.3508 0.5711 0.0
H265 H 0.60405 0.28365 0.60643 0.0
H266 H 0.51821 0.29222 0.6116 0.0
C267 C 0.56737 0.30437 0.61404 0.0
H268 H 0.57658 0.31255 0.64241 0.0
H269 H 0.74319 0.27636 0.60801 0.0
O270 O 0.64221 0.45781 0.52715 0.0
C271 C 0.78754 0.36452 0.53996 0.0
C272 C 0.00955 0.03093 1.00021 0.0
C273 C 0.03645 0.02375 0.03451 0.0
C274 C 0.93261 0.99906 0.05484 0.0
C275 C 0.90445 1.00919 0.02153 0.0
N276 N 0.91211 0.04579 0.96758 0.0
N277 N 0.03139 0.98877 0.08886 0.0
C278 C 0.94153 0.02848 0.99567 0.0
C279 C 1.00002 1.00419 0.06031 0.0
N280 N 0.04887 0.03796 0.97147 0.0
N281 N 0.89382 0.98533 0.08138 0.0
H282 H 0.08181 0.99006 0.09146 0.0
H283 H 0.00919 0.97167 0.10743 0.0
H284 H 0.84371 0.98261 0.07803 0.0
H285 H 0.90975 0.97996 0.10745 0.0
H286 H 0.0314 0.04084 0.94527 0.0
H287 H 0.09912 0.03517 0.97277 0.0
H288 H 0.93726 0.0627 0.94994 0.0
H289 H 0.86201 0.04801 0.96504 0.0
C290 C 0.54766 0.01042 0.04561 0.0
C291 C 0.5685 0.02208 1.0112 0.0
C292 C 0.46107 1.00781 0.98556 0.0
C293 C 0.44003 0.99659 0.02007 0.0
N294 N 0.46736 0.97767 0.08044 0.0
N295 N 0.54176 0.03983 0.95035 0.0
C296 C 0.48426 0.9956 0.04958 0.0
C297 C 0.52452 0.02256 0.98153 0.0
N298 N 0.5885 0.01371 0.07453 0.0
N299 N 0.4205 1.00397 0.95659 0.0
H300 H 0.58526 0.05394 0.94734 0.0
H301 H 0.51083 0.0435 0.92852 0.0
H302 H 0.37257 0.99515 0.95893 0.0
H303 H 0.43511 1.00721 0.92996 0.0
H304 H 0.57399 0.01004 0.10113 0.0
H305 H 0.63648 0.02245 0.0722 0.0
H306 H 0.4988 0.97318 0.10189 0.0
H307 H 0.42359 0.96379 0.08338 0.0
C308 C 0.96735 0.49411 0.4996 0.0
C309 C 0.94988 0.51175 0.53208 0.0
C310 C 0.06131 0.50634 0.55484 0.0
C311 C 0.08024 0.49179 0.52112 0.0
N312 N 0.05287 0.47091 0.46102 0.0
N313 N 0.98078 0.54009 0.58854 0.0
C314 C 0.03371 0.48563 0.49324 0.0
C315 C 0.99682 0.519 0.55937 0.0
N316 N 0.91996 0.48453 0.47549 0.0
N317 N 0.10488 0.50777 0.58263 0.0
H318 H 0.93461 0.55091 0.59255 0.0
H319 H 0.0145 0.54983 0.60714 0.0
H320 H 0.15337 0.50012 0.57982 0.0
H321 H 0.09203 0.51395 0.6091 0.0
H322 H 0.92781 0.46894 0.45246 0.0
H323 H 0.87096 0.4903 0.47969 0.0
H324 H 0.02361 0.46944 0.43822 0.0
H325 H 0.09933 0.46084 0.45645 0.0
C326 C 0.46591 0.54192 0.5529 0.0
C327 C 0.43206 0.53519 0.52028 0.0
C328 C 0.51678 0.49295 0.50049 0.0
C329 C 0.55042 0.49895 0.53332 0.0
N330 N 0.5678 0.53706 0.58526 0.0
N331 N 0.41321 0.49513 0.47003 0.0
C332 C 0.52772 0.52562 0.5581 0.0
C333 C 0.45403 0.50785 0.49625 0.0
N334 N 0.438 0.56225 0.57961 0.0
N335 N 0.54571 0.47517 0.47237 0.0
H336 H 0.36571 0.50463 0.46732 0.0
H337 H 0.42361 0.47234 0.45425 0.0
H338 H 0.59405 0.4672 0.47252 0.0
H339 H 0.52456 0.4729 0.44694 0.0
H340 H 0.45797 0.56531 0.60523 0.0
H341 H 0.39124 0.57265 0.57784 0.0
H342 H 0.55773 0.55922 0.6019 0.0
H343 H 0.6149 0.52707 0.58827 0.0
C344 C 0.20437 0.98267 0.15178 0.0
C345 C 0.26889 0.97102 0.14577 0.0
C346 C 0.30775 0.03394 0.14931 0.0
C347 C 0.24253 0.04587 0.14857 0.0
N348 N 0.1306 0.03385 0.16102 0.0
N349 N 0.38238 0.98272 0.1531 0.0
C350 C 0.19149 0.02074 0.15463 0.0
C351 C 0.32082 0.99591 0.14988 0.0
N352 N 0.15578 0.9574 0.15241 0.0
N353 N 0.35645 0.05896 0.14635 0.0
H354 H 0.3916 0.95476 0.15343 0.0
H355 H 0.42281 0.99894 0.15824 0.0
H356 H 0.3472 0.08689 0.14703 0.0
H357 H 0.405 0.05223 0.14248 0.0
H358 H 0.10671 0.96363 0.15439 0.0
H359 H 0.16536 0.92954 0.15115 0.0
H360 H 0.09037 0.01766 0.1664 0.0
H361 H 0.12174 0.06178 0.16303 0.0
C362 C 0.18828 0.49715 0.38867 0.0
C363 C 0.24249 0.47399 0.39309 0.0
C364 C 0.3153 0.52666 0.39045 0.0
C365 C 0.26061 0.54981 0.39453 0.0
N366 N 0.14543 0.55884 0.39207 0.0
N367 N 0.35681 0.46436 0.38805 0.0
C368 C 0.19705 0.53559 0.39081 0.0
C369 C 0.30602 0.48811 0.38998 0.0
N370 N 0.12857 0.48186 0.38353 0.0
N371 N 0.37578 0.54188 0.3893 0.0
H372 H 0.34943 0.43624 0.38726 0.0
H373 H 0.40523 0.47197 0.38589 0.0
H374 H 0.38249 0.57006 0.38885 0.0
H375 H 0.41883 0.52723 0.38799 0.0
H376 H 0.08658 0.49662 0.37832 0.0
H377 H 0.12249 0.45367 0.38193 0.0
H378 H 0.09724 0.5505 0.39337 0.0
H379 H 0.15153 0.58706 0.39242 0.0
C380 C 0.81575 0.99895 0.87737 0.0
C381 C 0.76345 0.97438 0.88207 0.0
C382 C 0.68738 0.02539 0.88049 0.0
C383 C 0.7401 0.04947 0.88614 0.0
N384 N 0.85427 0.06151 0.88278 0.0
N385 N 0.64901 0.96274 0.8821 0.0
C386 C 0.80443 0.03706 0.8812 0.0
C387 C 0.69883 0.98717 0.88045 0.0
N388 N 0.87631 0.9852 0.87143 0.0
N389 N 0.62657 0.03945 0.87654 0.0
H390 H 0.65724 0.93472 0.88103 0.0
H391 H 0.60055 0.97002 0.8853 0.0
H392 H 0.61846 0.06752 0.87677 0.0
H393 H 0.58584 0.02387 0.87031 0.0
H394 H 0.9172 1.00104 0.86652 0.0
H395 H 0.88407 0.95719 0.86892 0.0
H396 H 0.9031 0.05439 0.88253 0.0
H397 H 0.84597 0.08948 0.88469 0.0
C398 C 0.69326 0.49314 0.65862 0.0
C399 C 0.74488 0.46853 0.6519 0.0
C400 C 0.82245 0.51869 0.65634 0.0
C401 C 0.77028 0.54339 0.65266 0.0
N402 N 0.65756 0.5565 0.66097 0.0
N403 N 0.85894 0.45586 0.6513 0.0
C404 C 0.70597 0.53133 0.65826 0.0
C405 C 0.8099 0.48062 0.65427 0.0
N406 N 0.63208 0.47952 0.66282 0.0
N407 N 0.88376 0.53222 0.66006 0.0
H408 H 0.84982 0.4279 0.65075 0.0
H409 H 0.90771 0.46277 0.64887 0.0
H410 H 0.8923 0.56024 0.66132 0.0
H411 H 0.92462 0.51622 0.66444 0.0
H412 H 0.59096 0.49527 0.66727 0.0
H413 H 0.62345 0.45149 0.66327 0.0
H414 H 0.60866 0.55021 0.66388 0.0
H415 H 0.66741 0.58437 0.66125 0.0
C416 C 0.37245 0.18985 0.01699 0.0
C417 C 0.34626 0.15396 0.01848 0.0
C418 C 0.42646 0.13443 0.97386 0.0
C419 C 0.46095 0.16726 0.97884 0.0
N420 N 0.46791 0.22691 1.00519 0.0
N421 N 0.35678 0.09029 1.00064 0.0
C422 C 0.43379 0.19546 1.00006 0.0
C423 C 0.37505 0.12589 0.99724 0.0
N424 N 0.33806 0.21863 0.0304 0.0
N425 N 0.44593 0.10919 0.94919 0.0
H426 H 0.32817 0.08064 0.02169 0.0
H427 H 0.37605 0.06974 0.98441 0.0
H428 H 0.48357 0.11362 0.93088 0.0
H429 H 0.48357 0.11362 0.93088 0.0
H430 H 0.35277 0.24558 0.02744 0.0
H431 H 0.29145 0.21594 0.04096 0.0
H432 H 0.4546 0.24681 0.02386 0.0
H433 H 0.51135 0.23207 0.99165 0.0
C434 C 0.09593 0.84477 0.96132 0.0
C435 C 0.03623 0.83882 0.97895 0.0
C436 C 0.08969 0.84145 0.03774 0.0
C437 C 0.14956 0.84961 0.02035 0.0
N438 N 0.21328 0.84442 0.96591 0.0
N439 N 0.98066 0.81698 0.03125 0.0
C440 C 0.1539 0.84633 0.98214 0.0
C441 C 0.03538 0.83134 1.01627 0.0
N442 N 0.09665 0.8511 0.92512 0.0
N443 N 0.08213 0.84681 0.07398 0.0
H444 H 0.94022 0.81028 1.01556 0.0
H445 H 0.97818 0.80844 0.05796 0.0
H446 H 0.11858 0.85652 0.09088 0.0
H447 H 0.03737 0.84495 0.08688 0.0
H448 H 0.13763 0.86007 0.91132 0.0
H449 H 0.05492 0.84873 0.9093 0.0
H450 H 0.21926 0.8394 0.93845 0.0
H451 H 0.25647 0.84383 0.98061 0.0
C452 C 0.46504 0.3174 0.51571 0.0
C453 C 0.46892 0.33232 0.55078 0.0
C454 C 0.35204 0.34219 0.54942 0.0
C455 C 0.35311 0.33977 0.51111 0.0
N456 N 0.41302 0.32081 0.45753 0.0
N457 N 0.41434 0.35611 0.6031 0.0
C458 C 0.4095 0.32497 0.49408 0.0
C459 C 0.41155 0.34301 0.56866 0.0
N460 N 0.51648 0.29813 0.50258 0.0
N461 N 0.29413 0.34356 0.56723 0.0
H462 H 0.45705 0.35608 0.61819 0.0
H463 H 0.37499 0.36844 0.61587 0.0
H464 H 0.24985 0.3409 0.55376 0.0
H465 H 0.2905 0.34292 0.59524 0.0
H466 H 0.5154 0.2841 0.47812 0.0
H467 H 0.55773 0.29338 0.51826 0.0
H468 H 0.45625 0.31515 0.44409 0.0
H469 H 0.37438 0.32436 0.43999 0.0
C470 C 0.02414 0.698 0.51011 0.0
C471 C 0.02386 0.68833 0.54693 0.0
C472 C 0.14206 0.68621 0.5458 0.0
C473 C 0.14018 0.68348 0.50754 0.0
N474 N 0.07698 0.68994 0.45252 0.0
N475 N 0.08302 0.67685 0.60151 0.0
C476 C 0.08105 0.6916 0.48925 0.0
C477 C 0.08315 0.68455 0.56556 0.0
N478 N 0.96847 0.71094 0.49496 0.0
N479 N 0.20027 0.69007 0.56301 0.0
H480 H 0.04045 0.67656 0.61671 0.0
H481 H 0.12452 0.66931 0.61566 0.0
H482 H 0.24379 0.69271 0.54884 0.0
H483 H 0.20438 0.69464 0.59066 0.0
H484 H 0.9661 0.72105 0.4688 0.0
H485 H 0.92643 0.71483 0.51022 0.0
H486 H 0.03308 0.69083 0.43863 0.0
H487 H 0.11639 0.68579 0.43559 0.0
C488 C 0.57738 0.88 0.055 0.0
C489 C 0.54125 0.84784 0.05006 0.0
C490 C 0.62707 0.82447 1.01049 0.0
C491 C 0.65416 0.86011 1.00875 0.0
N492 N 0.6405 0.92427 0.02318 0.0
N493 N 0.53039 0.78866 0.02306 0.0
C494 C 0.62609 0.88858 0.02976 0.0
C495 C 0.56612 0.81953 0.0281 0.0
N496 N 0.56145 0.90362 0.08205 0.0
N497 N 0.65979 0.79545 0.99638 0.0
H498 H 0.48718 0.78405 0.03702 0.0
H499 H 0.54224 0.76873 1.00411 0.0
H500 H 0.70574 0.79779 0.9849 0.0
H501 H 0.64425 0.76864 0.99943 0.0
H502 H 0.58933 0.92653 0.08821 0.0
H503 H 0.5245 0.89791 0.10044 0.0
H504 H 0.61748 0.94565 0.03648 0.0
H505 H 0.66795 0.93285 1.00121 0.0
C506 C 0.85031 0.17097 0.05194 0.0
C507 C 0.85151 0.17437 1.01367 0.0
C508 C 0.96032 0.20116 0.01969 0.0
C509 C 0.96574 0.18582 0.05432 0.0
N510 N 0.9138 0.15871 0.10555 0.0
N511 N 0.91308 0.19323 0.96074 0.0
C512 C 0.90964 0.17227 0.07146 0.0
C513 C 0.90709 0.19082 0.99734 0.0
N514 N 0.79261 0.16712 0.06959 0.0
N515 N 0.00927 0.22271 1.00728 0.0
H516 H 0.87884 0.18386 0.94239 0.0
H517 H 0.95581 0.20148 0.94818 0.0
H518 H 0.04933 0.22909 0.02342 0.0
H519 H 0.00664 0.23685 0.98303 0.0
H520 H 0.78891 0.16693 0.09761 0.0
H521 H 0.74806 0.16871 0.05629 0.0
H522 H 0.87619 0.14435 0.11777 0.0
H523 H 0.9562 0.16065 0.12083 0.0
C524 C 0.61601 0.62118 0.49997 0.0
C525 C 0.65243 0.6491 0.51744 0.0
C526 C 0.5729 0.69432 0.49672 0.0
C527 C 0.53801 0.66636 0.47896 0.0
N528 N 0.53793 0.60618 0.45332 0.0
N529 N 0.67549 0.71351 0.52262 0.0
C530 C 0.56446 0.63094 0.47662 0.0
C531 C 0.63402 0.68617 0.51279 0.0
N532 N 0.6264 0.58536 0.50794 0.0
N533 N 0.5465 0.72827 0.49931 0.0
H534 H 0.72191 0.70864 0.53269 0.0
H535 H 0.66659 0.74084 0.51719 0.0
H536 H 0.50343 0.73518 0.48617 0.0
H537 H 0.56566 0.74877 0.51565 0.0
H538 H 0.59746 0.56439 0.49792 0.0
H539 H 0.65853 0.57664 0.52778 0.0
H540 H 0.55812 0.58063 0.44845 0.0
H541 H 0.49975 0.61283 0.43609 0.0
C542 C 0.91396 0.36701 0.4666 0.0
C543 C 0.96445 0.34689 0.48304 0.0
C544 C 0.88819 0.3247 0.52875 0.0
C545 C 0.84123 0.35003 0.51615 0.0
N546 N 0.79791 0.37557 0.46139 0.0
N547 N 0.99526 0.2999 0.52526 0.0
C548 C 0.85039 0.36515 0.48129 0.0
C549 C 0.95005 0.32338 0.51217 0.0
N550 N 0.92711 0.38936 0.43821 0.0
N551 N 0.87386 0.30072 0.55556 0.0
H552 H 0.04157 0.29682 0.51425 0.0
H553 H 0.04157 0.29682 0.51425 0.0
H554 H 0.82658 0.29558 0.56397 0.0
H555 H 0.90841 0.28308 0.56635 0.0
H556 H 0.89354 0.40779 0.42794 0.0
H557 H 0.97274 0.39094 0.42619 0.0
H558 H 0.80128 0.38435 0.43479 0.0
H559 H 0.75047 0.3703 0.46972 0.0
C560 C 0.15466 0.27327 0.27911 0.0
C561 C 0.21181 0.27602 0.30033 0.0
C562 C 0.27551 0.24867 0.25134 0.0
C563 C 0.21936 0.24824 0.22919 0.0
N564 N 0.10749 0.26465 0.21963 0.0
N565 N 0.32836 0.27275 0.30479 0.0
C566 C 0.1594 0.26183 0.24242 0.0
C567 C 0.27277 0.26555 0.28589 0.0
N568 N 0.09568 0.28057 0.29437 0.0
N569 N 0.33093 0.23175 0.23988 0.0
H570 H 0.32835 0.28519 0.33013 0.0
H571 H 0.3747 0.26944 0.29411 0.0
H572 H 0.33492 0.21906 0.21477 0.0
H573 H 0.37111 0.22752 0.25635 0.0
H574 H 0.05157 0.27519 0.28173 0.0
H575 H 0.09054 0.28978 0.32086 0.0
H576 H 0.06454 0.2779 0.22639 0.0
H577 H 0.10898 0.25603 0.19281 0.0
C578 C 0.35576 0.76953 0.24626 0.0
C579 C 0.29655 0.77024 0.22668 0.0
C580 C 0.23756 0.74829 0.27985 0.0
C581 C 0.29725 0.74574 0.29877 0.0
N582 N 0.41404 0.74837 0.2991 0.0
N583 N 0.1823 0.75658 0.22266 0.0
C584 C 0.35665 0.75488 0.28173 0.0
C585 C 0.23779 0.75842 0.24284 0.0
N586 N 0.41095 0.78337 0.23109 0.0
N587 N 0.18048 0.74231 0.2977 0.0
H588 H 0.17969 0.76551 0.19606 0.0
H589 H 0.13973 0.74416 0.23137 0.0
H590 H 0.17842 0.73421 0.32458 0.0
H591 H 0.13496 0.74772 0.28683 0.0
H592 H 0.45385 0.78773 0.24529 0.0
H593 H 0.41293 0.79277 0.20463 0.0
H594 H 0.45931 0.75068 0.2869 0.0
H595 H 0.41649 0.73783 0.32513 0.0
C596 C 0.83519 0.75736 0.74116 0.0
C597 C 0.7751 0.74559 0.72639 0.0
C598 C 0.71899 0.76508 0.7815 0.0
C599 C 0.77969 0.77354 0.79758 0.0
N600 N 0.89658 0.77303 0.79491 0.0
N601 N 0.66149 0.73212 0.73464 0.0
C602 C 0.83817 0.76843 0.77799 0.0
C603 C 0.7174 0.74778 0.74715 0.0
N604 N 0.88902 0.75891 0.71969 0.0
N605 N 0.66268 0.77471 0.79852 0.0
H606 H 0.65838 0.71887 0.70977 0.0
H607 H 0.6198 0.72929 0.75024 0.0
H608 H 0.66175 0.78783 0.82351 0.0
H609 H 0.61717 0.77284 0.78643 0.0
H610 H 0.93253 0.7709 0.7277 0.0
H611 H 0.88875 0.75075 0.69272 0.0
H612 H 0.9408 0.76584 0.78335 0.0
H613 H 0.90066 0.78146 0.82171 0.0
C614 C 0.77212 0.27011 0.75181 0.0
C615 C 0.71417 0.27087 0.73111 0.0
C616 C 0.65259 0.24628 0.78221 0.0
C617 C 0.70986 0.24734 0.8035 0.0
N618 N 0.8228 0.26301 0.8105 0.0
N619 N 0.5982 0.2638 0.72679 0.0
C620 C 0.76929 0.26007 0.78882 0.0
C621 C 0.65406 0.26007 0.74638 0.0
N622 N 0.83008 0.27833 0.73578 0.0
N623 N 0.5971 0.23148 0.79613 0.0
H624 H 0.59772 0.2726 0.7001 0.0
H625 H 0.5519 0.26045 0.73744 0.0
H626 H 0.59338 0.22259 0.82271 0.0
H627 H 0.55576 0.22591 0.78096 0.0
H628 H 0.87506 0.2743 0.74784 0.0
H629 H 0.83379 0.28734 0.70924 0.0
H630 H 0.8655 0.27604 0.80296 0.0
H631 H 0.82363 0.25415 0.83716 0.0
loop_
_geom_bond_atom_site_label_1
_geom_bond_atom_site_label_2
_geom_bond_distance
_geom_bond_site_symmetry_2
_ccdc_geom_bond_type
Co0 O3 1.970 . S
Co0 N17 1.989 . S
Co0 O25 1.967 . S
Co0 O32 1.920 1_554 S
Co1 O4 1.966 . S
Co1 N10 2.022 . S
Co1 N18 1.993 . S
Co1 O26 1.941 . S
C2 O3 1.258 . S
C2 O4 1.263 . S
O3 Co0 1.970 . S
O3 C2 1.258 . S
O4 Co1 1.966 . S
O4 C2 1.263 . S
C5 O6 1.229 1_556 S
C5 O32 1.289 . S
O6 C5 1.229 1_554 S
C7 C9 1.400 . S
C7 N10 1.351 . S
C7 C12 1.501 . S
C8 C9 1.387 . S
C8 N11 1.341 . S
C9 C7 1.400 . S
C9 C8 1.387 . S
N10 Co1 2.022 . S
N10 C7 1.351 . S
N10 N11 1.365 . S
N11 C8 1.341 . S
N11 N10 1.365 . S
N11 H31 0.862 . S
C12 C7 1.501 . S
C12 H13 0.961 . S
C12 H14 0.961 . S
C12 H15 0.960 . S
H13 C12 0.961 . S
H14 C12 0.961 . S
H15 C12 0.960 . S
C16 N17 1.342 1_655 S
C16 C20 1.401 . S
C16 C21 1.499 . S
N17 Co0 1.989 . S
N17 C16 1.342 1_455 S
N17 N18 1.388 . S
N18 Co1 1.993 . S
N18 N17 1.388 . S
N18 C19 1.346 . S
C19 N18 1.346 . S
C19 C20 1.396 1_455 S
C19 C29 1.509 1_455 S
C20 C16 1.401 . S
C20 C19 1.396 1_655 S
C21 C16 1.499 . S
C21 H22 0.959 1_554 S
C21 H23 0.960 . S
C21 H24 0.961 1_554 S
H22 C21 0.959 1_556 S
H23 C21 0.960 . S
H24 C21 0.961 1_556 S
O25 Co0 1.967 . S
O25 C33 1.258 . S
O26 Co1 1.941 . S
O26 C33 1.266 . S
H27 C29 0.961 . S
H28 C29 0.970 . S
C29 C19 1.509 1_655 S
C29 H27 0.961 . S
C29 H28 0.970 . S
C29 H30 0.950 1_655 S
H30 C29 0.950 1_455 S
H31 N11 0.862 . S
O32 Co0 1.920 1_556 S
O32 C5 1.289 . S
C33 O25 1.258 . S
C33 O26 1.266 . S
Co34 O37 1.970 . S
Co34 N51 1.989 . S
Co34 O59 1.967 . S
Co34 O66 1.920 1_554 S
Co35 O38 1.966 . S
Co35 N44 2.022 . S
Co35 N52 1.993 . S
Co35 O60 1.941 . S
C36 O37 1.258 . S
C36 O38 1.263 . S
O37 Co34 1.970 . S
O37 C36 1.258 . S
O38 Co35 1.966 . S
O38 C36 1.263 . S
C39 O40 1.229 1_556 S
C39 O66 1.289 . S
O40 C39 1.229 1_554 S
C41 C43 1.400 . S
C41 N44 1.351 . S
C41 C46 1.501 . S
C42 C43 1.387 . S
C42 N45 1.341 . S
C43 C41 1.400 . S
C43 C42 1.387 . S
N44 Co35 2.022 . S
N44 C41 1.351 . S
N44 N45 1.365 . S
N45 C42 1.341 . S
N45 N44 1.365 . S
N45 H65 0.862 . S
C46 C41 1.501 . S
C46 H47 0.961 . S
C46 H48 0.961 . S
C46 H49 0.960 . S
H47 C46 0.961 . S
H48 C46 0.961 . S
H49 C46 0.960 . S
C50 N51 1.342 . S
C50 C54 1.401 . S
C50 C55 1.499 . S
N51 Co34 1.989 . S
N51 C50 1.342 . S
N51 N52 1.388 . S
N52 Co35 1.993 . S
N52 N51 1.388 . S
N52 C53 1.346 . S
C53 N52 1.346 . S
C53 C54 1.396 . S
C53 C63 1.510 . S
C54 C50 1.401 . S
C54 C53 1.396 . S
C55 C50 1.499 . S
C55 H56 0.959 1_554 S
C55 H57 0.960 . S
C55 H58 0.961 1_554 S
H56 C55 0.959 1_556 S
H57 C55 0.960 . S
H58 C55 0.961 1_556 S
O59 Co34 1.967 . S
O59 C67 1.258 . S
O60 Co35 1.941 . S
O60 C67 1.266 . S
H61 C63 0.959 . S
H62 C63 0.961 . S
C63 C53 1.510 . S
C63 H61 0.959 . S
C63 H62 0.961 . S
C63 H64 0.960 . S
H64 C63 0.960 . S
H65 N45 0.862 . S
O66 Co34 1.920 1_556 S
O66 C39 1.289 . S
C67 O59 1.258 . S
C67 O60 1.266 . S
Co68 O71 1.970 . S
Co68 N85 1.989 . S
Co68 O93 1.967 . S
Co68 O100 1.920 . S
Co69 O72 1.966 . S
Co69 N78 2.022 . S
Co69 N86 1.993 . S
Co69 O94 1.941 . S
C70 O71 1.258 . S
C70 O72 1.263 . S
O71 Co68 1.970 . S
O71 C70 1.258 . S
O72 Co69 1.966 . S
O72 C70 1.263 . S
C73 O74 1.235 . S
C73 O100 1.289 . S
O74 C73 1.235 . S
C75 C77 1.400 . S
C75 N78 1.351 . S
C75 C80 1.501 . S
C76 C77 1.387 . S
C76 N79 1.341 . S
C77 C75 1.400 . S
C77 C76 1.387 . S
N78 Co69 2.022 . S
N78 C75 1.351 . S
N78 N79 1.365 . S
N79 C76 1.341 . S
N79 N78 1.365 . S
N79 H99 0.862 . S
C80 C75 1.501 . S
C80 H81 0.961 . S
C80 H82 0.961 . S
C80 H83 0.960 . S
H81 C80 0.961 . S
H82 C80 0.961 . S
H83 C80 0.960 . S
C84 N85 1.342 1_655 S
C84 C88 1.401 . S
C84 C89 1.499 . S
N85 Co68 1.989 . S
N85 C84 1.342 1_455 S
N85 N86 1.388 . S
N86 Co69 1.993 . S
N86 N85 1.388 . S
N86 C87 1.346 . S
C87 N86 1.346 . S
C87 C88 1.396 1_455 S
C87 C97 1.509 1_455 S
C88 C84 1.401 . S
C88 C87 1.396 1_655 S
C89 C84 1.499 . S
C89 H90 0.959 . S
C89 H91 0.960 . S
C89 H92 0.961 . S
H90 C89 0.959 . S
H91 C89 0.960 . S
H92 C89 0.961 . S
O93 Co68 1.967 . S
O93 C101 1.258 . S
O94 Co69 1.941 . S
O94 C101 1.266 . S
H95 C97 0.961 . S
H96 C97 0.970 . S
C97 C87 1.509 1_655 S
C97 H95 0.961 . S
C97 H96 0.970 . S
C97 H98 0.950 1_655 S
H98 C97 0.950 1_455 S
H99 N79 0.862 . S
O100 Co68 1.920 . S
O100 C73 1.289 . S
C101 O93 1.258 . S
C101 O94 1.266 . S
Co102 O105 1.970 . S
Co102 N119 1.989 . S
Co102 O127 1.967 . S
Co102 O134 1.920 . S
Co103 O106 1.966 . S
Co103 N112 2.022 . S
Co103 N120 1.993 . S
Co103 O128 1.941 . S
C104 O105 1.258 . S
C104 O106 1.263 . S
O105 Co102 1.970 . S
O105 C104 1.258 . S
O106 Co103 1.966 . S
O106 C104 1.263 . S
C107 O108 1.235 . S
C107 O134 1.289 . S
O108 C107 1.235 . S
C109 C111 1.400 . S
C109 N112 1.351 . S
C109 C114 1.501 . S
C110 C111 1.387 . S
C110 N113 1.341 . S
C111 C109 1.400 . S
C111 C110 1.387 . S
N112 Co103 2.022 . S
N112 C109 1.351 . S
N112 N113 1.365 . S
N113 C110 1.341 . S
N113 N112 1.365 . S
N113 H133 0.862 . S
C114 C109 1.501 . S
C114 H115 0.961 . S
C114 H116 0.961 . S
C114 H117 0.960 . S
H115 C114 0.961 . S
H116 C114 0.961 . S
H117 C114 0.960 . S
C118 N119 1.342 . S
C118 C122 1.401 . S
C118 C123 1.499 . S
N119 Co102 1.989 . S
N119 C118 1.342 . S
N119 N120 1.388 . S
N120 Co103 1.993 . S
N120 N119 1.388 . S
N120 C121 1.346 . S
C121 N120 1.346 . S
C121 C122 1.396 . S
C121 C131 1.510 . S
C122 C118 1.401 . S
C122 C121 1.396 . S
C123 C118 1.499 . S
C123 H124 0.959 . S
C123 H125 0.960 . S
C123 H126 0.961 . S
H124 C123 0.959 . S
H125 C123 0.960 . S
H126 C123 0.961 . S
O127 Co102 1.967 . S
O127 C135 1.258 . S
O128 Co103 1.941 . S
O128 C135 1.266 . S
H129 C131 0.959 . S
H130 C131 0.961 . S
C131 C121 1.510 . S
C131 H129 0.959 . S
C131 H130 0.961 . S
C131 H132 0.960 . S
H132 C131 0.960 . S
H133 N113 0.862 . S
O134 Co102 1.920 . S
O134 C107 1.289 . S
C135 O127 1.258 . S
C135 O128 1.266 . S
Co136 O139 1.970 . S
Co136 N153 1.989 . S
Co136 O161 1.967 . S
Co136 O168 1.920 1_556 S
Co137 O140 1.966 . S
Co137 N146 2.022 . S
Co137 N154 1.993 . S
Co137 O162 1.941 . S
C138 O139 1.258 . S
C138 O140 1.263 . S
O139 Co136 1.970 . S
O139 C138 1.258 . S
O140 Co137 1.966 . S
O140 C138 1.263 . S
C141 O142 1.229 1_554 S
C141 O168 1.289 . S
O142 C141 1.229 1_556 S
C143 C145 1.400 . S
C143 N146 1.351 . S
C143 C148 1.501 . S
C144 C145 1.387 . S
C144 N147 1.341 . S
C145 C143 1.400 . S
C145 C144 1.387 . S
N146 Co137 2.022 . S
N146 C143 1.351 . S
N146 N147 1.365 . S
N147 C144 1.341 . S
N147 N146 1.365 . S
N147 H167 0.862 . S
C148 C143 1.501 . S
C148 H149 0.961 . S
C148 H150 0.961 . S
C148 H151 0.960 . S
H149 C148 0.961 . S
H150 C148 0.961 . S
H151 C148 0.960 . S
C152 N153 1.342 1_455 S
C152 C156 1.401 . S
C152 C157 1.499 . S
N153 Co136 1.989 . S
N153 C152 1.342 1_655 S
N153 N154 1.388 . S
N154 Co137 1.993 . S
N154 N153 1.388 . S
N154 C155 1.346 . S
C155 N154 1.346 . S
C155 C156 1.396 1_655 S
C155 C165 1.509 1_655 S
C156 C152 1.401 . S
C156 C155 1.396 1_455 S
C157 C152 1.499 . S
C157 H158 0.959 1_556 S
C157 H159 0.960 . S
C157 H160 0.961 1_556 S
H158 C157 0.959 1_554 S
H159 C157 0.960 . S
H160 C157 0.961 1_554 S
O161 Co136 1.967 . S
O161 C169 1.258 . S
O162 Co137 1.941 . S
O162 C169 1.266 . S
H163 C165 0.961 . S
H164 C165 0.970 . S
C165 C155 1.509 1_455 S
C165 H163 0.961 . S
C165 H164 0.970 . S
C165 H166 0.950 1_455 S
H166 C165 0.950 1_655 S
H167 N147 0.862 . S
O168 Co136 1.920 1_554 S
O168 C141 1.289 . S
C169 O161 1.258 . S
C169 O162 1.266 . S
Co170 O173 1.970 . S
Co170 N187 1.989 . S
Co170 O195 1.967 . S
Co170 O202 1.920 1_556 S
Co171 O174 1.966 . S
Co171 N180 2.022 . S
Co171 N188 1.993 . S
Co171 O196 1.941 . S
C172 O173 1.258 . S
C172 O174 1.263 . S
O173 Co170 1.970 . S
O173 C172 1.258 . S
O174 Co171 1.966 . S
O174 C172 1.263 . S
C175 O176 1.229 1_554 S
C175 O202 1.289 . S
O176 C175 1.229 1_556 S
C177 C179 1.400 . S
C177 N180 1.351 . S
C177 C182 1.501 . S
C178 C179 1.387 . S
C178 N181 1.341 . S
C179 C177 1.400 . S
C179 C178 1.387 . S
N180 Co171 2.022 . S
N180 C177 1.351 . S
N180 N181 1.365 . S
N181 C178 1.341 . S
N181 N180 1.365 . S
N181 H201 0.862 . S
C182 C177 1.501 . S
C182 H183 0.961 . S
C182 H184 0.961 . S
C182 H185 0.960 . S
H183 C182 0.961 . S
H184 C182 0.961 . S
H185 C182 0.960 . S
C186 N187 1.342 . S
C186 C190 1.401 . S
C186 C191 1.499 . S
N187 Co170 1.989 . S
N187 C186 1.342 . S
N187 N188 1.388 . S
N188 Co171 1.993 . S
N188 N187 1.388 . S
N188 C189 1.346 . S
C189 N188 1.346 . S
C189 C190 1.396 . S
C189 C199 1.510 . S
C190 C186 1.401 . S
C190 C189 1.396 . S
C191 C186 1.499 . S
C191 H192 0.959 1_556 S
C191 H193 0.960 . S
C191 H194 0.961 1_556 S
H192 C191 0.959 1_554 S
H193 C191 0.960 . S
H194 C191 0.961 1_554 S
O195 Co170 1.967 . S
O195 C203 1.258 . S
O196 Co171 1.941 . S
O196 C203 1.266 . S
H197 C199 0.959 . S
H198 C199 0.961 . S
C199 C189 1.510 . S
C199 H197 0.959 . S
C199 H198 0.961 . S
C199 H200 0.960 . S
H200 C199 0.960 . S
H201 N181 0.862 . S
O202 Co170 1.920 1_554 S
O202 C175 1.289 . S
C203 O195 1.258 . S
C203 O196 1.266 . S
Co204 O207 1.970 . S
Co204 N221 1.989 . S
Co204 O229 1.967 . S
Co204 O236 1.920 . S
Co205 O208 1.966 . S
Co205 N214 2.022 . S
Co205 N222 1.993 . S
Co205 O230 1.941 . S
C206 O207 1.258 . S
C206 O208 1.263 . S
O207 Co204 1.970 . S
O207 C206 1.258 . S
O208 Co205 1.966 . S
O208 C206 1.263 . S
C209 O210 1.235 . S
C209 O236 1.289 . S
O210 C209 1.235 . S
C211 C213 1.400 . S
C211 N214 1.351 . S
C211 C216 1.501 . S
C212 C213 1.387 . S
C212 N215 1.341 . S
C213 C211 1.400 . S
C213 C212 1.387 . S
N214 Co205 2.022 . S
N214 C211 1.351 . S
N214 N215 1.365 . S
N215 C212 1.341 . S
N215 N214 1.365 . S
N215 H235 0.862 . S
C216 C211 1.501 . S
C216 H217 0.961 . S
C216 H218 0.961 . S
C216 H219 0.960 . S
H217 C216 0.961 . S
H218 C216 0.961 . S
H219 C216 0.960 . S
C220 N221 1.342 1_455 S
C220 C224 1.401 . S
C220 C225 1.499 . S
N221 Co204 1.989 . S
N221 C220 1.342 1_655 S
N221 N222 1.388 . S
N222 Co205 1.993 . S
N222 N221 1.388 . S
N222 C223 1.346 . S
C223 N222 1.346 . S
C223 C224 1.396 1_655 S
C223 C233 1.509 1_655 S
C224 C220 1.401 . S
C224 C223 1.396 1_455 S
C225 C220 1.499 . S
C225 H226 0.959 . S
C225 H227 0.960 . S
C225 H228 0.961 . S
H226 C225 0.959 . S
H227 C225 0.960 . S
H228 C225 0.961 . S
O229 Co204 1.967 . S
O229 C237 1.258 . S
O230 Co205 1.941 . S
O230 C237 1.266 . S
H231 C233 0.961 . S
H232 C233 0.970 . S
C233 C223 1.509 1_455 S
C233 H231 0.961 . S
C233 H232 0.970 . S
C233 H234 0.950 1_455 S
H234 C233 0.950 1_655 S
H235 N215 0.862 . S
O236 Co204 1.920 . S
O236 C209 1.289 . S
C237 O229 1.258 . S
C237 O230 1.266 . S
Co238 O241 1.970 . S
Co238 N255 1.989 . S
Co238 O263 1.967 . S
Co238 O270 1.920 . S
Co239 O242 1.966 . S
Co239 N248 2.022 . S
Co239 N256 1.993 . S
Co239 O264 1.941 . S
C240 O241 1.258 . S
C240 O242 1.263 . S
O241 Co238 1.970 . S
O241 C240 1.258 . S
O242 Co239 1.966 . S
O242 C240 1.263 . S
C243 O244 1.235 . S
C243 O270 1.289 . S
O244 C243 1.235 . S
C245 C247 1.400 . S
C245 N248 1.351 . S
C245 C250 1.501 . S
C246 C247 1.387 . S
C246 N249 1.341 . S
C247 C245 1.400 . S
C247 C246 1.387 . S
N248 Co239 2.022 . S
N248 C245 1.351 . S
N248 N249 1.365 . S
N249 C246 1.341 . S
N249 N248 1.365 . S
N249 H269 0.862 . S
C250 C245 1.501 . S
C250 H251 0.961 . S
C250 H252 0.961 . S
C250 H253 0.960 . S
H251 C250 0.961 . S
H252 C250 0.961 . S
H253 C250 0.960 . S
C254 N255 1.342 . S
C254 C258 1.401 . S
C254 C259 1.499 . S
N255 Co238 1.989 . S
N255 C254 1.342 . S
N255 N256 1.388 . S
N256 Co239 1.993 . S
N256 N255 1.388 . S
N256 C257 1.346 . S
C257 N256 1.346 . S
C257 C258 1.396 . S
C257 C267 1.510 . S
C258 C254 1.401 . S
C258 C257 1.396 . S
C259 C254 1.499 . S
C259 H260 0.959 . S
C259 H261 0.960 . S
C259 H262 0.961 . S
H260 C259 0.959 . S
H261 C259 0.960 . S
H262 C259 0.961 . S
O263 Co238 1.967 . S
O263 C271 1.258 . S
O264 Co239 1.941 . S
O264 C271 1.266 . S
H265 C267 0.959 . S
H266 C267 0.961 . S
C267 C257 1.510 . S
C267 H265 0.959 . S
C267 H266 0.961 . S
C267 H268 0.960 . S
H268 C267 0.960 . S
H269 N249 0.862 . S
O270 Co238 1.920 . S
O270 C243 1.289 . S
C271 O263 1.258 . S
C271 O264 1.266 . S
C272 C273 1.363 1_655 S
C272 C278 1.379 1_545 S
C272 N280 1.356 1_655 S
C273 C272 1.363 1_455 S
C273 C279 1.363 1_556 S
C274 C275 1.363 1_455 S
C274 C279 1.379 1_565 S
C274 N281 1.356 1_455 S
C275 C274 1.363 1_655 S
C275 C278 1.363 1_554 S
N276 C278 1.356 . S
N276 H288 0.984 . S
N276 H289 0.985 . S
N277 C279 1.356 . S
N277 H282 0.984 . S
N277 H283 0.985 . S
C278 C272 1.379 1_565 S
C278 C275 1.363 1_556 S
C278 N276 1.356 . S
C279 C273 1.363 1_554 S
C279 C274 1.379 1_545 S
C279 N277 1.356 . S
N280 C272 1.356 1_455 S
N280 H286 0.984 1_455 S
N280 H287 0.984 . S
N281 C274 1.356 1_655 S
N281 H284 0.984 . S
N281 H285 0.985 1_655 S
H282 N277 0.984 . S
H283 N277 0.985 . S
H284 N281 0.984 . S
H285 N281 0.985 1_455 S
H286 N280 0.984 1_655 S
H287 N280 0.984 . S
H288 N276 0.984 . S
H289 N276 0.985 . S
C290 C291 1.363 1_565 S
C290 C296 1.379 . S
C290 N298 1.356 . S
C291 C290 1.363 1_545 S
C291 C297 1.363 1_554 S
C292 C293 1.363 1_545 S
C292 C297 1.379 . S
C292 N299 1.356 . S
C293 C292 1.363 1_565 S
C293 C296 1.363 1_556 S
N294 C296 1.356 . S
N294 H306 0.984 . S
N294 H307 0.985 . S
N295 C297 1.356 . S
N295 H300 0.984 . S
N295 H301 0.985 . S
C296 C290 1.379 . S
C296 C293 1.363 1_554 S
C296 N294 1.356 . S
C297 C291 1.363 1_556 S
C297 C292 1.379 . S
C297 N295 1.356 . S
N298 C290 1.356 . S
N298 H304 0.984 . S
N298 H305 0.984 1_565 S
N299 C292 1.356 . S
N299 H302 0.984 1_545 S
N299 H303 0.985 . S
H300 N295 0.984 . S
H301 N295 0.985 . S
H302 N299 0.984 1_565 S
H303 N299 0.985 . S
H304 N298 0.984 . S
H305 N298 0.984 1_545 S
H306 N294 0.984 . S
H307 N294 0.985 . S
C308 C309 1.363 . S
C308 C314 1.379 1_655 S
C308 N316 1.356 . S
C309 C308 1.363 . S
C309 C315 1.363 . S
C310 C311 1.363 . S
C310 C315 1.379 1_455 S
C310 N317 1.356 . S
C311 C310 1.363 . S
C311 C314 1.363 . S
N312 C314 1.356 . S
N312 H324 0.984 1_455 S
N312 H325 0.985 . S
N313 C315 1.356 . S
N313 H318 0.984 . S
N313 H319 0.985 1_655 S
C314 C308 1.379 1_455 S
C314 C311 1.363 . S
C314 N312 1.356 . S
C315 C309 1.363 . S
C315 C310 1.379 1_655 S
C315 N313 1.356 . S
N316 C308 1.356 . S
N316 H322 0.984 . S
N316 H323 0.984 . S
N317 C310 1.356 . S
N317 H320 0.984 . S
N317 H321 0.985 . S
H318 N313 0.984 . S
H319 N313 0.985 1_455 S
H320 N317 0.984 . S
H321 N317 0.985 . S
H322 N316 0.984 . S
H323 N316 0.984 . S
H324 N312 0.984 1_655 S
H325 N312 0.985 . S
C326 C327 1.363 . S
C326 C332 1.379 . S
C326 N334 1.356 . S
C327 C326 1.363 . S
C327 C333 1.363 . S
C328 C329 1.363 . S
C328 C333 1.379 . S
C328 N335 1.356 . S
C329 C328 1.363 . S
C329 C332 1.363 . S
N330 C332 1.356 . S
N330 H342 0.984 . S
N330 H343 0.985 . S
N331 C333 1.356 . S
N331 H336 0.984 . S
N331 H337 0.985 . S
C332 C326 1.379 . S
C332 C329 1.363 . S
C332 N330 1.356 . S
C333 C327 1.363 . S
C333 C328 1.379 . S
C333 N331 1.356 . S
N334 C326 1.356 . S
N334 H340 0.984 . S
N334 H341 0.984 . S
N335 C328 1.356 . S
N335 H338 0.984 . S
N335 H339 0.985 . S
H336 N331 0.984 . S
H337 N331 0.985 . S
H338 N335 0.984 . S
H339 N335 0.985 . S
H340 N334 0.984 . S
H341 N334 0.984 . S
H342 N330 0.984 . S
H343 N330 0.985 . S
C344 C345 1.363 . S
C344 C350 1.379 1_565 S
C344 N352 1.356 . S
C345 C344 1.363 . S
C345 C351 1.363 . S
C346 C347 1.363 . S
C346 C351 1.379 1_545 S
C346 N353 1.356 . S
C347 C346 1.363 . S
C347 C350 1.363 . S
N348 C350 1.356 . S
N348 H360 0.984 . S
N348 H361 0.985 . S
N349 C351 1.356 . S
N349 H354 0.984 . S
N349 H355 0.985 . S
C350 C344 1.379 1_545 S
C350 C347 1.363 . S
C350 N348 1.356 . S
C351 C345 1.363 . S
C351 C346 1.379 1_565 S
C351 N349 1.356 . S
N352 C344 1.356 . S
N352 H358 0.984 . S
N352 H359 0.984 . S
N353 C346 1.356 . S
N353 H356 0.984 . S
N353 H357 0.985 . S
H354 N349 0.984 . S
H355 N349 0.985 . S
H356 N353 0.984 . S
H357 N353 0.985 . S
H358 N352 0.984 . S
H359 N352 0.984 . S
H360 N348 0.984 . S
H361 N348 0.985 . S
C362 C363 1.363 . S
C362 C368 1.379 . S
C362 N370 1.356 . S
C363 C362 1.363 . S
C363 C369 1.363 . S
C364 C365 1.363 . S
C364 C369 1.379 . S
C364 N371 1.356 . S
C365 C364 1.363 . S
C365 C368 1.363 . S
N366 C368 1.356 . S
N366 H378 0.984 . S
N366 H379 0.985 . S
N367 C369 1.356 . S
N367 H372 0.984 . S
N367 H373 0.985 . S
C368 C362 1.379 . S
C368 C365 1.363 . S
C368 N366 1.356 . S
C369 C363 1.363 . S
C369 C364 1.379 . S
C369 N367 1.356 . S
N370 C362 1.356 . S
N370 H376 0.984 . S
N370 H377 0.984 . S
N371 C364 1.356 . S
N371 H374 0.984 . S
N371 H375 0.985 . S
H372 N367 0.984 . S
H373 N367 0.985 . S
H374 N371 0.984 . S
H375 N371 0.985 . S
H376 N370 0.984 . S
H377 N370 0.984 . S
H378 N366 0.984 . S
H379 N366 0.985 . S
C380 C381 1.363 . S
C380 C386 1.379 1_565 S
C380 N388 1.356 . S
C381 C380 1.363 . S
C381 C387 1.363 . S
C382 C383 1.363 . S
C382 C387 1.379 1_545 S
C382 N389 1.356 . S
C383 C382 1.363 . S
C383 C386 1.363 . S
N384 C386 1.356 . S
N384 H396 0.984 . S
N384 H397 0.985 . S
N385 C387 1.356 . S
N385 H390 0.984 . S
N385 H391 0.985 . S
C386 C380 1.379 1_545 S
C386 C383 1.363 . S
C386 N384 1.356 . S
C387 C381 1.363 . S
C387 C382 1.379 1_565 S
C387 N385 1.356 . S
N388 C380 1.356 . S
N388 H394 0.984 . S
N388 H395 0.984 . S
N389 C382 1.356 . S
N389 H392 0.984 . S
N389 H393 0.985 . S
H390 N385 0.984 . S
H391 N385 0.985 . S
H392 N389 0.984 . S
H393 N389 0.985 . S
H394 N388 0.984 . S
H395 N388 0.984 . S
H396 N384 0.984 . S
H397 N384 0.985 . S
C398 C399 1.363 . S
C398 C404 1.379 . S
C398 N406 1.356 . S
C399 C398 1.363 . S
C399 C405 1.363 . S
C400 C401 1.363 . S
C400 C405 1.379 . S
C400 N407 1.356 . S
C401 C400 1.363 . S
C401 C404 1.363 . S
N402 C404 1.356 . S
N402 H414 0.984 . S
N402 H415 0.985 . S
N403 C405 1.356 . S
N403 H408 0.984 . S
N403 H409 0.985 . S
C404 C398 1.379 . S
C404 C401 1.363 . S
C404 N402 1.356 . S
C405 C399 1.363 . S
C405 C400 1.379 . S
C405 N403 1.356 . S
N406 C398 1.356 . S
N406 H412 0.984 . S
N406 H413 0.984 . S
N407 C400 1.356 . S
N407 H410 0.984 . S
N407 H411 0.985 . S
H408 N403 0.984 . S
H409 N403 0.985 . S
H410 N407 0.984 . S
H411 N407 0.985 . S
H412 N406 0.984 . S
H413 N406 0.984 . S
H414 N402 0.984 . S
H415 N402 0.985 . S
C416 C417 1.363 1_556 S
C416 C422 1.379 . S
C416 N424 1.356 . S
C417 C416 1.363 1_554 S
C417 C423 1.363 . S
C418 C419 1.363 . S
C418 C423 1.379 1_556 S
C418 N425 1.356 . S
C419 C418 1.363 . S
C419 C422 1.363 . S
N420 C422 1.356 . S
N420 H432 0.984 . S
N420 H433 0.985 . S
N421 C423 1.356 . S
N421 H426 0.984 . S
N421 H427 0.985 . S
C422 C416 1.379 . S
C422 C419 1.363 . S
C422 N420 1.356 . S
C423 C417 1.363 . S
C423 C418 1.379 1_554 S
C423 N421 1.356 . S
N424 C416 1.356 . S
N424 H430 0.984 . S
N424 H431 0.984 1_556 S
N425 C418 1.356 . S
N425 H428 0.984 . S
N425 H429 0.985 . S
H426 N421 0.984 . S
H427 N421 0.985 . S
H428 N425 0.984 . S
H429 N425 0.985 . S
H430 N424 0.984 . S
H431 N424 0.984 1_554 S
H432 N420 0.984 . S
H433 N420 0.985 . S
C434 C435 1.363 . S
C434 C440 1.379 . S
C434 N442 1.356 . S
C435 C434 1.363 . S
C435 C441 1.363 . S
C436 C437 1.363 . S
C436 C441 1.379 1_554 S
C436 N443 1.356 . S
C437 C436 1.363 . S
C437 C440 1.363 1_554 S
N438 C440 1.356 . S
N438 H450 0.984 . S
N438 H451 0.985 . S
N439 C441 1.356 . S
N439 H444 0.984 . S
N439 H445 0.985 1_556 S
C440 C434 1.379 . S
C440 C437 1.363 1_556 S
C440 N438 1.356 . S
C441 C435 1.363 . S
C441 C436 1.379 1_556 S
C441 N439 1.356 . S
N442 C434 1.356 . S
N442 H448 0.984 . S
N442 H449 0.984 . S
N443 C436 1.356 . S
N443 H446 0.984 . S
N443 H447 0.985 . S
H444 N439 0.984 . S
H445 N439 0.985 1_554 S
H446 N443 0.984 . S
H447 N443 0.985 . S
H448 N442 0.984 . S
H449 N442 0.984 . S
H450 N438 0.984 . S
H451 N438 0.985 . S
C452 C453 1.363 . S
C452 C458 1.379 . S
C452 N460 1.356 . S
C453 C452 1.363 . S
C453 C459 1.363 . S
C454 C455 1.363 . S
C454 C459 1.379 . S
C454 N461 1.356 . S
C455 C454 1.363 . S
C455 C458 1.363 . S
N456 C458 1.356 . S
N456 H468 0.984 . S
N456 H469 0.985 . S
N457 C459 1.356 . S
N457 H462 0.984 . S
N457 H463 0.985 . S
C458 C452 1.379 . S
C458 C455 1.363 . S
C458 N456 1.356 . S
C459 C453 1.363 . S
C459 C454 1.379 . S
C459 N457 1.356 . S
N460 C452 1.356 . S
N460 H466 0.984 . S
N460 H467 0.984 . S
N461 C454 1.356 . S
N461 H464 0.984 . S
N461 H465 0.985 . S
H462 N457 0.984 . S
H463 N457 0.985 . S
H464 N461 0.984 . S
H465 N461 0.985 . S
H466 N460 0.984 . S
H467 N460 0.984 . S
H468 N456 0.984 . S
H469 N456 0.985 . S
C470 C471 1.363 . S
C470 C476 1.379 . S
C470 N478 1.356 . S
C471 C470 1.363 . S
C471 C477 1.363 . S
C472 C473 1.363 . S
C472 C477 1.379 . S
C472 N479 1.356 . S
C473 C472 1.363 . S
C473 C476 1.363 . S
N474 C476 1.356 . S
N474 H486 0.984 . S
N474 H487 0.985 . S
N475 C477 1.356 . S
N475 H480 0.984 . S
N475 H481 0.985 . S
C476 C470 1.379 . S
C476 C473 1.363 . S
C476 N474 1.356 . S
C477 C471 1.363 . S
C477 C472 1.379 . S
C477 N475 1.356 . S
N478 C470 1.356 . S
N478 H484 0.984 . S
N478 H485 0.984 . S
N479 C472 1.356 . S
N479 H482 0.984 . S
N479 H483 0.985 . S
H480 N475 0.984 . S
H481 N475 0.985 . S
H482 N479 0.984 . S
H483 N479 0.985 . S
H484 N478 0.984 . S
H485 N478 0.984 . S
H486 N474 0.984 . S
H487 N474 0.985 . S
C488 C489 1.363 . S
C488 C494 1.379 1_554 S
C488 N496 1.356 . S
C489 C488 1.363 . S
C489 C495 1.363 . S
C490 C491 1.363 1_554 S
C490 C495 1.379 . S
C490 N497 1.356 . S
C491 C490 1.363 1_556 S
C491 C494 1.363 . S
N492 C494 1.356 . S
N492 H504 0.984 . S
N492 H505 0.985 . S
N493 C495 1.356 . S
N493 H498 0.984 . S
N493 H499 0.985 . S
C494 C488 1.379 1_556 S
C494 C491 1.363 . S
C494 N492 1.356 . S
C495 C489 1.363 . S
C495 C490 1.379 . S
C495 N493 1.356 . S
N496 C488 1.356 . S
N496 H502 0.984 . S
N496 H503 0.984 . S
N497 C490 1.356 . S
N497 H500 0.984 1_554 S
N497 H501 0.985 . S
H498 N493 0.984 . S
H499 N493 0.985 . S
H500 N497 0.984 1_556 S
H501 N497 0.985 . S
H502 N496 0.984 . S
H503 N496 0.984 . S
H504 N492 0.984 . S
H505 N492 0.985 . S
C506 C507 1.363 1_554 S
C506 C512 1.379 . S
C506 N514 1.356 . S
C507 C506 1.363 1_556 S
C507 C513 1.363 . S
C508 C509 1.363 . S
C508 C513 1.379 1_554 S
C508 N515 1.356 . S
C509 C508 1.363 . S
C509 C512 1.363 . S
N510 C512 1.356 . S
N510 H522 0.984 . S
N510 H523 0.985 . S
N511 C513 1.356 . S
N511 H516 0.984 . S
N511 H517 0.985 . S
C512 C506 1.379 . S
C512 C509 1.363 . S
C512 N510 1.356 . S
C513 C507 1.363 . S
C513 C508 1.379 1_556 S
C513 N511 1.356 . S
N514 C506 1.356 . S
N514 H520 0.984 . S
N514 H521 0.984 . S
N515 C508 1.356 . S
N515 H518 0.984 . S
N515 H519 0.985 1_554 S
H516 N511 0.984 . S
H517 N511 0.985 . S
H518 N515 0.984 . S
H519 N515 0.985 1_556 S
H520 N514 0.984 . S
H521 N514 0.984 . S
H522 N510 0.984 . S
H523 N510 0.985 . S
C524 C525 1.363 . S
C524 C530 1.379 . S
C524 N532 1.356 . S
C525 C524 1.363 . S
C525 C531 1.363 . S
C526 C527 1.363 . S
C526 C531 1.379 . S
C526 N533 1.356 . S
C527 C526 1.363 . S
C527 C530 1.363 . S
N528 C530 1.356 . S
N528 H540 0.984 . S
N528 H541 0.985 . S
N529 C531 1.356 . S
N529 H534 0.984 . S
N529 H535 0.985 . S
C530 C524 1.379 . S
C530 C527 1.363 . S
C530 N528 1.356 . S
C531 C525 1.363 . S
C531 C526 1.379 . S
C531 N529 1.356 . S
N532 C524 1.356 . S
N532 H538 0.984 . S
N532 H539 0.984 . S
N533 C526 1.356 . S
N533 H536 0.984 . S
N533 H537 0.985 . S
H534 N529 0.984 . S
H535 N529 0.985 . S
H536 N533 0.984 . S
H537 N533 0.985 . S
H538 N532 0.984 . S
H539 N532 0.984 . S
H540 N528 0.984 . S
H541 N528 0.985 . S
C542 C543 1.363 . S
C542 C548 1.379 . S
C542 N550 1.356 . S
C543 C542 1.363 . S
C543 C549 1.363 . S
C544 C545 1.363 . S
C544 C549 1.379 . S
C544 N551 1.356 . S
C545 C544 1.363 . S
C545 C548 1.363 . S
N546 C548 1.356 . S
N546 H558 0.984 . S
N546 H559 0.985 . S
N547 C549 1.356 . S
N547 H552 0.984 . S
N547 H553 0.985 . S
C548 C542 1.379 . S
C548 C545 1.363 . S
C548 N546 1.356 . S
C549 C543 1.363 . S
C549 C544 1.379 . S
C549 N547 1.356 . S
N550 C542 1.356 . S
N550 H556 0.984 . S
N550 H557 0.984 . S
N551 C544 1.356 . S
N551 H554 0.984 . S
N551 H555 0.985 . S
H552 N547 0.984 . S
H553 N547 0.985 . S
H554 N551 0.984 . S
H555 N551 0.985 . S
H556 N550 0.984 . S
H557 N550 0.984 . S
H558 N546 0.984 . S
H559 N546 0.985 . S
C560 C561 1.363 . S
C560 C566 1.379 . S
C560 N568 1.356 . S
C561 C560 1.363 . S
C561 C567 1.363 . S
C562 C563 1.363 . S
C562 C567 1.379 . S
C562 N569 1.356 . S
C563 C562 1.363 . S
C563 C566 1.363 . S
N564 C566 1.356 . S
N564 H576 0.984 . S
N564 H577 0.985 . S
N565 C567 1.356 . S
N565 H570 0.984 . S
N565 H571 0.985 . S
C566 C560 1.379 . S
C566 C563 1.363 . S
C566 N564 1.356 . S
C567 C561 1.363 . S
C567 C562 1.379 . S
C567 N565 1.356 . S
N568 C560 1.356 . S
N568 H574 0.984 . S
N568 H575 0.984 . S
N569 C562 1.356 . S
N569 H572 0.984 . S
N569 H573 0.985 . S
H570 N565 0.984 . S
H571 N565 0.985 . S
H572 N569 0.984 . S
H573 N569 0.985 . S
H574 N568 0.984 . S
H575 N568 0.984 . S
H576 N564 0.984 . S
H577 N564 0.985 . S
C578 C579 1.363 . S
C578 C584 1.379 . S
C578 N586 1.356 . S
C579 C578 1.363 . S
C579 C585 1.363 . S
C580 C581 1.363 . S
C580 C585 1.379 . S
C580 N587 1.356 . S
C581 C580 1.363 . S
C581 C584 1.363 . S
N582 C584 1.356 . S
N582 H594 0.984 . S
N582 H595 0.985 . S
N583 C585 1.356 . S
N583 H588 0.984 . S
N583 H589 0.985 . S
C584 C578 1.379 . S
C584 C581 1.363 . S
C584 N582 1.356 . S
C585 C579 1.363 . S
C585 C580 1.379 . S
C585 N583 1.356 . S
N586 C578 1.356 . S
N586 H592 0.984 . S
N586 H593 0.984 . S
N587 C580 1.356 . S
N587 H590 0.984 . S
N587 H591 0.985 . S
H588 N583 0.984 . S
H589 N583 0.985 . S
H590 N587 0.984 . S
H591 N587 0.985 . S
H592 N586 0.984 . S
H593 N586 0.984 . S
H594 N582 0.984 . S
H595 N582 0.985 . S
C596 C597 1.363 . S
C596 C602 1.379 . S
C596 N604 1.356 . S
C597 C596 1.363 . S
C597 C603 1.363 . S
C598 C599 1.363 . S
C598 C603 1.379 . S
C598 N605 1.356 . S
C599 C598 1.363 . S
C599 C602 1.363 . S
N600 C602 1.356 . S
N600 H612 0.984 . S
N600 H613 0.985 . S
N601 C603 1.356 . S
N601 H606 0.984 . S
N601 H607 0.985 . S
C602 C596 1.379 . S
C602 C599 1.363 . S
C602 N600 1.356 . S
C603 C597 1.363 . S
C603 C598 1.379 . S
C603 N601 1.356 . S
N604 C596 1.356 . S
N604 H610 0.984 . S
N604 H611 0.984 . S
N605 C598 1.356 . S
N605 H608 0.984 . S
N605 H609 0.985 . S
H606 N601 0.984 . S
H607 N601 0.985 . S
H608 N605 0.984 . S
H609 N605 0.985 . S
H610 N604 0.984 . S
H611 N604 0.984 . S
H612 N600 0.984 . S
H613 N600 0.985 . S
C614 C615 1.363 . S
C614 C620 1.379 . S
C614 N622 1.356 . S
C615 C614 1.363 . S
C615 C621 1.363 . S
C616 C617 1.363 . S
C616 C621 1.379 . S
C616 N623 1.356 . S
C617 C616 1.363 . S
C617 C620 1.363 . S
N618 C620 1.356 . S
N618 H630 0.984 . S
N618 H631 0.985 . S
N619 C621 1.356 . S
N619 H624 0.984 . S
N619 H625 0.985 . S
C620 C614 1.379 . S
C620 C617 1.363 . S
C620 N618 1.356 . S
C621 C615 1.363 . S
C621 C616 1.379 . S
C621 N619 1.356 . S
N622 C614 1.356 . S
N622 H628 0.984 . S
N622 H629 0.984 . S
N623 C616 1.356 . S
N623 H626 0.984 . S
N623 H627 0.985 . S
H624 N619 0.984 . S
H625 N619 0.985 . S
H626 N623 0.984 . S
H627 N623 0.985 . S
H628 N622 0.984 . S
H629 N622 0.984 . S
H630 N618 0.984 . S
H631 N618 0.985 . S
C273 C5 0.848 . S
C275 C141 0.848 . S
C291 C175 0.848 . S
C293 C39 0.848 . S
C309 C209 0.843 . S
C311 C73 0.843 . S
C327 C107 0.843 . S
C329 C243 0.843 . S
C345 C36 2.010 . S
C347 C2 2.010 . S
C363 C70 2.010 . S
C365 C104 2.010 . S
C381 C138 2.010 . S
C383 C172 2.010 . S
C399 C240 2.010 . S
C401 C206 2.010 . S
C417 C33 1.652 . S
C419 C190 1.525 . S
C435 C156 1.525 . S
C437 C67 1.652 . S
C453 C258 1.525 . S
C455 C101 1.652 . S
C471 C224 1.525 . S
C473 C135 1.652 . S
C489 C54 1.525 . S
C491 C169 1.652 . S
C507 C203 1.652 . S
C509 C20 1.525 . S
C525 C237 1.652 . S
C527 C122 1.525 . S
C543 C88 1.525 . S
C545 C271 1.652 . S
C561 C77 1.400 . S
C563 C9 1.400 . S
C579 C43 1.400 . S
C581 C111 1.400 . S
C597 C213 1.400 . S
C599 C145 1.400 . S
C615 C247 1.400 . S
C617 C179 1.400 . S
