# Generated by pormake.
# Topology qtz-a, (4)-cn, num edge types: 1
# Building blocks:
#     Node 0, Type 0, BuildingBlock: UXUYUI_clean_sbu_0, # of connection points: 4
#     Node 1, Type 0, BuildingBlock: UXUYUI_clean_sbu_0, # of connection points: 4
#     Node 2, Type 0, BuildingBlock: UXUYUI_clean_sbu_0, # of connection points: 4
#     Node 3, Type 0, BuildingBlock: UXUYUI_clean_sbu_0, # of connection points: 4
#     Node 4, Type 0, BuildingBlock: UXUYUI_clean_sbu_0, # of connection points: 4
#     Node 5, Type 0, BuildingBlock: UXUYUI_clean_sbu_0, # of connection points: 4
#     Node 6, Type 0, BuildingBlock: UXUYUI_clean_sbu_0, # of connection points: 4
#     Node 7, Type 0, BuildingBlock: UXUYUI_clean_sbu_0, # of connection points: 4
#     Node 8, Type 0, BuildingBlock: UXUYUI_clean_sbu_0, # of connection points: 4
#     Node 9, Type 0, BuildingBlock: UXUYUI_clean_sbu_0, # of connection points: 4
#     Node 10, Type 0, BuildingBlock: UXUYUI_clean_sbu_0, # of connection points: 4
#     Node 11, Type 0, BuildingBlock: UXUYUI_clean_sbu_0, # of connection points: 4
#     Edge 12, Type (0, 0), BuildingBlock: MIFKUJ_clean_linker_0, # of connection points: 2
#     Edge 13, Type (0, 0), BuildingBlock: MIFKUJ_clean_linker_0, # of connection points: 2
#     Edge 14, Type (0, 0), BuildingBlock: MIFKUJ_clean_linker_0, # of connection points: 2
#     Edge 15, Type (0, 0), BuildingBlock: MIFKUJ_clean_linker_0, # of connection points: 2
#     Edge 16, Type (0, 0), BuildingBlock: MIFKUJ_clean_linker_0, # of connection points: 2
#     Edge 17, Type (0, 0), BuildingBlock: MIFKUJ_clean_linker_0, # of connection points: 2
#     Edge 18, Type (0, 0), BuildingBlock: MIFKUJ_clean_linker_0, # of connection points: 2
#     Edge 19, Type (0, 0), BuildingBlock: MIFKUJ_clean_linker_0, # of connection points: 2
#     Edge 20, Type (0, 0), BuildingBlock: MIFKUJ_clean_linker_0, # of connection points: 2
#     Edge 21, Type (0, 0), BuildingBlock: MIFKUJ_clean_linker_0, # of connection points: 2
#     Edge 22, Type (0, 0), BuildingBlock: MIFKUJ_clean_linker_0, # of connection points: 2
#     Edge 23, Type (0, 0), BuildingBlock: MIFKUJ_clean_linker_0, # of connection points: 2
#     Edge 24, Type (0, 0), BuildingBlock: MIFKUJ_clean_linker_0, # of connection points: 2
#     Edge 25, Type (0, 0), BuildingBlock: MIFKUJ_clean_linker_0, # of connection points: 2
#     Edge 26, Type (0, 0), BuildingBlock: MIFKUJ_clean_linker_0, # of connection points: 2
#     Edge 27, Type (0, 0), BuildingBlock: MIFKUJ_clean_linker_0, # of connection points: 2
#     Edge 28, Type (0, 0), BuildingBlock: MIFKUJ_clean_linker_0, # of connection points: 2
#     Edge 29, Type (0, 0), BuildingBlock: MIFKUJ_clean_linker_0, # of connection points: 2
#     Edge 30, Type (0, 0), BuildingBlock: MIFKUJ_clean_linker_0, # of connection points: 2
#     Edge 31, Type (0, 0), BuildingBlock: MIFKUJ_clean_linker_0, # of connection points: 2
#     Edge 32, Type (0, 0), BuildingBlock: MIFKUJ_clean_linker_0, # of connection points: 2
#     Edge 33, Type (0, 0), BuildingBlock: MIFKUJ_clean_linker_0, # of connection points: 2
#     Edge 34, Type (0, 0), BuildingBlock: MIFKUJ_clean_linker_0, # of connection points: 2
#     Edge 35, Type (0, 0), BuildingBlock: MIFKUJ_clean_linker_0, # of connection points: 2
# Relax obj value: 0.910
# Max RMSD: 0.301
# Mean RMSD: 0.301
data_MOF--net-qtz-a--node1-UXUYUI_clean_sbu_0--edge1-MIFKUJ_clean_linker_0
_symmetry_space_group_name_H-M    P1
_symmetry_Int_Tables_number       1
_symmetry_cell_setting            triclinic
loop_
_symmetry_equiv_pos_as_xyz
'x, y, z'
_cell_length_a     89.023419
_cell_length_b     89.06399
_cell_length_c     50.721017
_cell_angle_alpha  89.984466
_cell_angle_beta   90.020229
_cell_angle_gamma 119.9781
loop_
_atom_site_label
_atom_site_type_symbol
_atom_site_fract_x
_atom_site_fract_y
_atom_site_fract_z
_atom_type_partial_charge
Li0 Li 0.41727 0.0578 0.18424 0.0
Li1 Li 0.43771 0.08836 0.20172 0.0
Li2 Li 0.44889 0.07108 0.18182 0.0
Li3 Li 0.43541 0.06251 0.22342 0.0
C4 C 0.43498 0.07925 0.13854 0.0
N5 N 0.437 0.07932 0.08418 0.0
C6 C 0.43868 0.09414 0.12429 0.0
C7 C 0.43225 0.06439 0.12515 0.0
C8 C 0.43965 0.09392 0.09681 0.0
C9 C 0.43334 0.06468 0.09767 0.0
C10 C 0.4083 0.06289 0.24198 0.0
C11 C 0.40724 0.06653 0.2889 0.0
N12 N 0.39258 0.05075 0.29029 0.0
C13 C 0.39321 0.04674 0.24382 0.0
C14 C 0.41538 0.07292 0.26463 0.0
C15 C 0.38546 0.04082 0.26846 0.0
C16 C 0.38817 0.02651 0.16667 0.0
N17 N 0.39651 0.04408 0.16517 0.0
C18 C 0.37951 0.04287 0.12801 0.0
C19 C 0.39192 0.05234 0.14715 0.0
C20 C 0.37157 0.02469 0.12764 0.0
C21 C 0.37549 0.01649 0.14806 0.0
H22 H 0.39205 0.02031 0.18135 0.0
H23 H 0.39876 0.06635 0.1465 0.0
C24 C 0.45226 0.12258 0.18626 0.0
N25 N 0.44044 0.11071 0.20311 0.0
C26 C 0.45374 0.13882 0.18357 0.0
C27 C 0.43092 0.1304 0.21586 0.0
C28 C 0.42993 0.11429 0.21801 0.0
C29 C 0.4428 0.14282 0.19817 0.0
H30 H 0.46011 0.11916 0.17419 0.0
H31 H 0.42044 0.10445 0.2309 0.0
C32 C 0.43441 0.03388 0.18899 0.0
N33 N 0.44015 0.00644 0.18095 0.0
C34 C 0.44472 0.03085 0.20658 0.0
C35 C 0.42693 0.02283 0.1674 0.0
C36 C 0.44747 0.01694 0.20217 0.0
C37 C 0.43004 0.00908 0.16363 0.0
C38 C 0.47405 0.09155 0.21359 0.0
C39 C 0.48119 0.08085 0.21735 0.0
C40 C 0.48495 0.1091 0.20786 0.0
C41 C 0.49908 0.08781 0.21481 0.0
C42 C 0.50278 0.11558 0.20547 0.0
N43 N 0.50941 0.10488 0.20893 0.0
C44 C 0.47536 0.08958 0.14549 0.0
C45 C 0.47096 0.06141 0.15291 0.0
C46 C 0.48731 0.09249 0.12556 0.0
N47 N 0.46711 0.07408 0.15824 0.0
C48 C 0.48291 0.0638 0.13323 0.0
C49 C 0.49096 0.07936 0.11886 0.0
H50 H 0.47224 0.09954 0.15029 0.0
H51 H 0.46454 0.04929 0.16334 0.0
C52 C 0.42462 0.03534 0.26026 0.0
N53 N 0.43626 0.05232 0.25584 0.0
C54 C 0.42796 0.02615 0.27945 0.0
C55 C 0.45443 0.05249 0.29054 0.0
C56 C 0.4505 0.06119 0.27129 0.0
C57 C 0.44354 0.03453 0.29383 0.0
H58 H 0.41354 0.02857 0.24736 0.0
H59 H 0.45959 0.07467 0.26715 0.0
O60 O 0.43425 0.0793 0.1655 0.0
O61 O 0.41628 0.06872 0.21816 0.0
O62 O 0.43133 0.04731 0.1931 0.0
O63 O 0.45651 0.0849 0.21561 0.0
H64 H 0.44076 0.10575 0.13431 0.0
H65 H 0.42947 0.05282 0.1359 0.0
H66 H 0.44253 0.10535 0.08552 0.0
H67 H 0.43131 0.05327 0.08707 0.0
H68 H 0.41261 0.0741 0.30663 0.0
H69 H 0.38764 0.03881 0.22643 0.0
H70 H 0.42713 0.0854 0.26349 0.0
H71 H 0.37381 0.02831 0.27023 0.0
H72 H 0.37713 0.04986 0.11263 0.0
H73 H 0.36945 0.00251 0.14894 0.0
H74 H 0.46283 0.14786 0.16934 0.0
H75 H 0.42229 0.13302 0.22753 0.0
H76 H 0.45058 0.03911 0.22346 0.0
H77 H 0.41882 0.02482 0.15363 0.0
H78 H 0.45543 0.01448 0.21564 0.0
H79 H 0.42437 0.00048 0.14696 0.0
H80 H 0.47301 0.0673 0.222 0.0
H81 H 0.47973 0.11765 0.20535 0.0
H82 H 0.50474 0.07963 0.21751 0.0
H83 H 0.51134 0.12911 0.2009 0.0
H84 H 0.49344 0.10479 0.11527 0.0
H85 H 0.48529 0.05329 0.12862 0.0
H86 H 0.41914 0.01236 0.28154 0.0
H87 H 0.46667 0.05947 0.30089 0.0
Li88 Li 0.37213 0.44564 0.5537 0.0
Li89 Li 0.37182 0.46007 0.51097 0.0
Li90 Li 0.34842 0.44856 0.5424 0.0
Li91 Li 0.35342 0.42773 0.51816 0.0
C92 C 0.37048 0.48075 0.55873 0.0
N93 N 0.36605 0.50667 0.58076 0.0
C94 C 0.37443 0.49561 0.54418 0.0
C95 C 0.3646 0.47925 0.58468 0.0
C96 C 0.37203 0.50852 0.55561 0.0
C97 C 0.36235 0.49244 0.59541 0.0
C98 C 0.38518 0.4365 0.49826 0.0
C99 C 0.38587 0.42973 0.45239 0.0
N100 N 0.39636 0.42321 0.45854 0.0
C101 C 0.396 0.42976 0.50413 0.0
C102 C 0.3801 0.43653 0.47218 0.0
C103 C 0.40152 0.4231 0.48376 0.0
C104 C 0.39211 0.43409 0.58136 0.0
N105 N 0.38768 0.44663 0.58017 0.0
C106 C 0.40948 0.46381 0.61173 0.0
C107 C 0.39572 0.46108 0.59541 0.0
C108 C 0.41508 0.45159 0.61222 0.0
C109 C 0.40579 0.43627 0.59746 0.0
H110 H 0.38556 0.42279 0.56885 0.0
H111 H 0.39212 0.47096 0.59379 0.0
C112 C 0.37825 0.48548 0.47227 0.0
N113 N 0.38522 0.47704 0.4852 0.0
C114 C 0.38712 0.49655 0.4513 0.0
C115 C 0.41049 0.49054 0.45803 0.0
C116 C 0.40122 0.4797 0.47899 0.0
C117 C 0.40329 0.49886 0.44357 0.0
H118 H 0.36569 0.48343 0.47803 0.0
H119 H 0.40661 0.47305 0.48988 0.0
C120 C 0.34765 0.41922 0.57875 0.0
N121 N 0.34954 0.40388 0.62505 0.0
C122 C 0.34777 0.4036 0.57804 0.0
C123 C 0.34814 0.42686 0.60303 0.0
C124 C 0.34881 0.39609 0.60165 0.0
C125 C 0.3492 0.41897 0.62621 0.0
C126 C 0.33046 0.44037 0.49714 0.0
C127 C 0.31648 0.42581 0.50865 0.0
C128 C 0.32727 0.4508 0.4801 0.0
C129 C 0.29958 0.42216 0.50336 0.0
C130 C 0.31018 0.4467 0.47526 0.0
N131 N 0.29681 0.43261 0.48695 0.0
C132 C 0.32937 0.46573 0.5417 0.0
C133 C 0.3172 0.44075 0.56896 0.0
C134 C 0.31426 0.46666 0.5433 0.0
N135 N 0.33035 0.45261 0.55373 0.0
C136 C 0.30175 0.44114 0.571 0.0
C137 C 0.29995 0.45385 0.55721 0.0
H138 H 0.33974 0.47456 0.52889 0.0
H139 H 0.3182 0.43023 0.5778 0.0
C140 C 0.35237 0.39645 0.50268 0.0
N141 N 0.34535 0.40675 0.49835 0.0
C142 C 0.34975 0.38353 0.48455 0.0
C143 C 0.332 0.39145 0.45864 0.0
C144 C 0.33511 0.40429 0.47703 0.0
C145 C 0.33978 0.38121 0.46183 0.0
H146 H 0.36101 0.39905 0.5192 0.0
H147 H 0.33031 0.41303 0.47316 0.0
O148 O 0.37271 0.46795 0.54778 0.0
O149 O 0.37909 0.44246 0.51806 0.0
O150 O 0.34692 0.42693 0.55582 0.0
O151 O 0.34713 0.44449 0.50298 0.0
H152 H 0.37928 0.49715 0.52426 0.0
H153 H 0.36176 0.46802 0.59639 0.0
H154 H 0.37492 0.52003 0.54449 0.0
H155 H 0.35768 0.49137 0.61539 0.0
H156 H 0.38194 0.42956 0.43216 0.0
H157 H 0.40001 0.42959 0.52421 0.0
H158 H 0.37156 0.44151 0.46735 0.0
H159 H 0.40985 0.4178 0.48801 0.0
H160 H 0.41639 0.47594 0.62237 0.0
H161 H 0.40956 0.42644 0.59743 0.0
H162 H 0.38112 0.50273 0.44067 0.0
H163 H 0.42307 0.49223 0.45298 0.0
H164 H 0.34707 0.39734 0.55949 0.0
H165 H 0.34771 0.43875 0.60397 0.0
H166 H 0.34904 0.38406 0.60137 0.0
H167 H 0.34972 0.42481 0.64513 0.0
H168 H 0.31868 0.41756 0.52186 0.0
H169 H 0.33782 0.46198 0.47073 0.0
H170 H 0.28868 0.41107 0.51239 0.0
H171 H 0.30755 0.45472 0.46223 0.0
H172 H 0.31333 0.47645 0.5319 0.0
H173 H 0.29101 0.43106 0.58198 0.0
H174 H 0.35607 0.37598 0.48766 0.0
H175 H 0.32461 0.39045 0.44109 0.0
Li176 Li 0.91488 0.37895 0.84946 0.0
Li177 Li 0.92547 0.37756 0.89184 0.0
Li178 Li 0.9329 0.36593 0.85371 0.0
Li179 Li 0.90245 0.35067 0.87154 0.0
C180 C 0.94679 0.40668 0.85113 0.0
N181 N 0.96139 0.43995 0.83113 0.0
C182 C 0.95048 0.4206 0.86784 0.0
C183 C 0.95063 0.40974 0.82425 0.0
C184 C 0.95785 0.43731 0.85736 0.0
C185 C 0.95797 0.42663 0.81452 0.0
C186 C 0.89346 0.38114 0.88285 0.0
C187 C 0.86853 0.38407 0.87303 0.0
N188 N 0.87752 0.40095 0.88071 0.0
C189 C 0.90243 0.3985 0.8907 0.0
C190 C 0.87635 0.37383 0.87402 0.0
C191 C 0.89415 0.4083 0.88948 0.0
C192 C 0.89809 0.38105 0.80449 0.0
N193 N 0.90797 0.39089 0.82495 0.0
C194 C 0.90864 0.416 0.80668 0.0
C195 C 0.91277 0.40796 0.82682 0.0
C196 C 0.89945 0.40632 0.78452 0.0
C197 C 0.8938 0.38855 0.78387 0.0
H198 H 0.89379 0.36738 0.80384 0.0
H199 H 0.92019 0.41551 0.84354 0.0
C200 C 0.95172 0.39885 0.92728 0.0
N201 N 0.93423 0.38955 0.9242 0.0
C202 C 0.95894 0.41079 0.9478 0.0
C203 C 0.92998 0.40239 0.9627 0.0
C204 C 0.92332 0.39048 0.942 0.0
C205 C 0.94801 0.41321 0.96512 0.0
H206 H 0.96005 0.39788 0.91268 0.0
H207 H 0.90945 0.38281 0.93912 0.0
C208 C 0.91143 0.34895 0.81262 0.0
N209 N 0.91435 0.33296 0.76779 0.0
C210 C 0.90339 0.33088 0.81144 0.0
C211 C 0.92081 0.35887 0.79088 0.0
C212 C 0.90503 0.32305 0.7886 0.0
C213 C 0.9222 0.35055 0.76845 0.0
C214 C 0.93146 0.35395 0.9118 0.0
C215 C 0.94915 0.35952 0.91343 0.0
C216 C 0.92129 0.34874 0.93458 0.0
C217 C 0.95642 0.35989 0.938 0.0
C218 C 0.92906 0.34932 0.95879 0.0
N219 N 0.94631 0.35484 0.95998 0.0
C220 C 0.96314 0.37654 0.82454 0.0
C221 C 0.94524 0.34604 0.82747 0.0
C222 C 0.97211 0.37483 0.80336 0.0
N223 N 0.94931 0.36231 0.83496 0.0
C224 C 0.95387 0.3437 0.80623 0.0
C225 C 0.9668 0.3583 0.79299 0.0
H226 H 0.96634 0.3893 0.83129 0.0
H227 H 0.93422 0.33494 0.83627 0.0
C228 C 0.86927 0.32752 0.85725 0.0
N229 N 0.88199 0.32913 0.87375 0.0
C230 C 0.85398 0.31173 0.85484 0.0
C231 C 0.86522 0.29938 0.88632 0.0
C232 C 0.88032 0.31556 0.88832 0.0
C233 C 0.85187 0.29736 0.86927 0.0
H234 H 0.87132 0.3384 0.8452 0.0
H235 H 0.89086 0.31719 0.90085 0.0
O236 O 0.93971 0.39023 0.86107 0.0
O237 O 0.90144 0.3714 0.88359 0.0
O238 O 0.91025 0.3569 0.835 0.0
O239 O 0.92421 0.35391 0.88805 0.0
H240 H 0.94758 0.41856 0.88865 0.0
H241 H 0.94785 0.39917 0.81098 0.0
H242 H 0.96071 0.44817 0.87006 0.0
H243 H 0.9609 0.42914 0.79375 0.0
H244 H 0.85531 0.3786 0.86616 0.0
H245 H 0.91573 0.40445 0.89728 0.0
H246 H 0.86916 0.36042 0.868 0.0
H247 H 0.90099 0.42178 0.89535 0.0
H248 H 0.91318 0.42975 0.80792 0.0
H249 H 0.88634 0.38057 0.76738 0.0
H250 H 0.9729 0.419 0.94874 0.0
H251 H 0.92115 0.40379 0.97578 0.0
H252 H 0.89614 0.32299 0.82808 0.0
H253 H 0.92704 0.37285 0.7914 0.0
H254 H 0.89896 0.30909 0.78748 0.0
H255 H 0.92955 0.35808 0.75159 0.0
H256 H 0.95718 0.36365 0.89592 0.0
H257 H 0.90759 0.3445 0.9336 0.0
H258 H 0.97011 0.36424 0.93962 0.0
H259 H 0.92138 0.34543 0.97663 0.0
H260 H 0.9823 0.38638 0.794 0.0
H261 H 0.94943 0.33075 0.79882 0.0
H262 H 0.8442 0.31061 0.841 0.0
H263 H 0.86406 0.28855 0.89768 0.0
Li264 Li 0.54764 0.92536 0.17532 0.0
Li265 Li 0.55969 0.93611 0.21782 0.0
Li266 Li 0.57934 0.9402 0.18117 0.0
Li267 Li 0.55925 0.91049 0.20205 0.0
C268 C 0.56442 0.96332 0.17198 0.0
N269 N 0.56526 0.99059 0.14461 0.0
C270 C 0.55755 0.97293 0.18325 0.0
C271 C 0.57175 0.96764 0.1468 0.0
C272 C 0.55808 0.98664 0.16909 0.0
C273 C 0.57205 0.98146 0.13329 0.0
C274 C 0.52376 0.91256 0.21623 0.0
C275 C 0.49522 0.89766 0.23562 0.0
N276 N 0.49332 0.91161 0.23038 0.0
C277 C 0.5215 0.92671 0.21095 0.0
C278 C 0.51051 0.89789 0.2286 0.0
C279 C 0.50604 0.92599 0.21829 0.0
C280 C 0.52038 0.90428 0.14068 0.0
N281 N 0.52978 0.92078 0.14996 0.0
C282 C 0.51497 0.93014 0.12084 0.0
C283 C 0.52692 0.93352 0.14095 0.0
C284 C 0.50584 0.91348 0.10986 0.0
C285 C 0.50847 0.90037 0.12023 0.0
H286 H 0.52242 0.89421 0.14878 0.0
H287 H 0.53397 0.94638 0.14904 0.0
C288 C 0.56691 0.96517 0.2482 0.0
N289 N 0.55743 0.94759 0.248 0.0
C290 C 0.56288 0.97463 0.26587 0.0
C291 C 0.54047 0.94766 0.28439 0.0
C292 C 0.54507 0.93873 0.26651 0.0
C293 C 0.54886 0.96585 0.28329 0.0
H294 H 0.57682 0.97186 0.23342 0.0
H295 H 0.53794 0.92472 0.26622 0.0
C296 C 0.55943 0.90995 0.14005 0.0
N297 N 0.54984 0.89474 0.09081 0.0
C298 C 0.55249 0.89207 0.13721 0.0
C299 C 0.56171 0.92011 0.11776 0.0
C300 C 0.54768 0.88462 0.11217 0.0
C301 C 0.55671 0.91218 0.09307 0.0
C302 C 0.58593 0.93773 0.24199 0.0
C303 C 0.59934 0.95482 0.24505 0.0
C304 C 0.57854 0.92728 0.26416 0.0
C305 C 0.6051 0.96125 0.27042 0.0
C306 C 0.58465 0.93419 0.28919 0.0
N307 N 0.59768 0.95089 0.29177 0.0
C308 C 0.60958 0.97125 0.16485 0.0
C309 C 0.60453 0.94514 0.14464 0.0
C310 C 0.6226 0.98102 0.14653 0.0
N311 N 0.60047 0.95368 0.16289 0.0
C312 C 0.61732 0.95434 0.1259 0.0
C313 C 0.62612 0.97256 0.12602 0.0
H314 H 0.60598 0.97769 0.17953 0.0
H315 H 0.59707 0.93116 0.14358 0.0
C316 C 0.54159 0.87424 0.20731 0.0
N317 N 0.55737 0.88887 0.20857 0.0
C318 C 0.54042 0.85802 0.20659 0.0
C319 C 0.57168 0.87231 0.21008 0.0
C320 C 0.57224 0.88824 0.21061 0.0
C321 C 0.55566 0.85697 0.20713 0.0
H322 H 0.53003 0.87524 0.20518 0.0
H323 H 0.58459 0.90016 0.21132 0.0
O324 O 0.564 0.94983 0.18563 0.0
O325 O 0.5389 0.91301 0.20964 0.0
O326 O 0.56399 0.91742 0.1645 0.0
O327 O 0.57978 0.93135 0.21742 0.0
H328 H 0.5517 0.96976 0.20261 0.0
H329 H 0.5772 0.96048 0.13775 0.0
H330 H 0.55275 0.99413 0.17755 0.0
H331 H 0.5777 0.98492 0.1138 0.0
H332 H 0.48487 0.88641 0.24528 0.0
H333 H 0.5316 0.93815 0.20145 0.0
H334 H 0.51206 0.88683 0.23287 0.0
H335 H 0.50416 0.93689 0.2144 0.0
H336 H 0.51328 0.94061 0.1134 0.0
H337 H 0.50144 0.88728 0.11257 0.0
H338 H 0.56994 0.98864 0.26473 0.0
H339 H 0.52956 0.94034 0.29742 0.0
H340 H 0.55076 0.884 0.15413 0.0
H341 H 0.56712 0.93393 0.11949 0.0
H342 H 0.54221 0.87079 0.10973 0.0
H343 H 0.55828 0.91988 0.0757 0.0
H344 H 0.60512 0.96307 0.22803 0.0
H345 H 0.56808 0.91403 0.26203 0.0
H346 H 0.61541 0.97448 0.27313 0.0
H347 H 0.57901 0.9263 0.30656 0.0
H348 H 0.62922 0.99502 0.14766 0.0
H349 H 0.61933 0.94718 0.11039 0.0
H350 H 0.52783 0.84655 0.20399 0.0
H351 H 0.58371 0.87206 0.21095 0.0
Li352 Li 0.64022 0.57773 0.51751 0.0
Li353 Li 0.65112 0.55723 0.53362 0.0
Li354 Li 0.6232 0.5463 0.51002 0.0
Li355 Li 0.62637 0.55677 0.55329 0.0
C356 C 0.64609 0.55841 0.47125 0.0
N357 N 0.64348 0.54843 0.4191 0.0
C358 C 0.65059 0.54607 0.46376 0.0
C359 C 0.64025 0.56567 0.45222 0.0
C360 C 0.64916 0.54118 0.4373 0.0
C361 C 0.63906 0.56048 0.42595 0.0
C362 C 0.65162 0.58267 0.57722 0.0
C363 C 0.65823 0.58255 0.62327 0.0
N364 N 0.65184 0.5933 0.62841 0.0
C365 C 0.64521 0.59378 0.58288 0.0
C366 C 0.65824 0.57704 0.59749 0.0
C367 C 0.6454 0.59898 0.60892 0.0
C368 C 0.63814 0.60766 0.50344 0.0
N369 N 0.64757 0.59953 0.50158 0.0
C370 C 0.66457 0.61826 0.46667 0.0
C371 C 0.66115 0.60511 0.48467 0.0
C372 C 0.65396 0.62578 0.46624 0.0
C373 C 0.64113 0.62093 0.48579 0.0
H374 H 0.62745 0.60295 0.5172 0.0
H375 H 0.66841 0.59836 0.48369 0.0
C376 C 0.6698 0.53989 0.52862 0.0
N377 N 0.67106 0.55516 0.53577 0.0
C378 C 0.68476 0.53882 0.52491 0.0
C379 C 0.7019 0.56896 0.53759 0.0
C380 C 0.6866 0.56947 0.54086 0.0
C381 C 0.70112 0.55363 0.52868 0.0
H382 H 0.65721 0.52881 0.52438 0.0
H383 H 0.68713 0.58147 0.5463 0.0
C384 C 0.59976 0.55776 0.51238 0.0
N385 N 0.56823 0.54878 0.48927 0.0
C386 C 0.58451 0.54355 0.52175 0.0
C387 C 0.59891 0.56757 0.49149 0.0
C388 C 0.56873 0.53914 0.50968 0.0
C389 C 0.58286 0.56281 0.48005 0.0
C390 C 0.61974 0.52311 0.55745 0.0
C391 C 0.60165 0.51356 0.55624 0.0
C392 C 0.62858 0.51837 0.57536 0.0
C393 C 0.59263 0.4997 0.57358 0.0
C394 C 0.61909 0.5044 0.59233 0.0
N395 N 0.60146 0.49546 0.59114 0.0
C396 C 0.6087 0.51343 0.48609 0.0
C397 C 0.60131 0.53245 0.46451 0.0
C398 C 0.59985 0.50067 0.46702 0.0
N399 N 0.60921 0.52893 0.48459 0.0
C400 C 0.5921 0.52 0.44531 0.0
C401 C 0.59136 0.50392 0.44638 0.0
H402 H 0.61551 0.5111 0.50178 0.0
H403 H 0.60265 0.54509 0.46273 0.0
C404 C 0.60162 0.55787 0.58568 0.0
N405 N 0.61397 0.55318 0.58574 0.0
C406 C 0.58952 0.5526 0.606 0.0
C407 C 0.604 0.53909 0.62742 0.0
C408 C 0.61597 0.54483 0.60674 0.0
C409 C 0.59012 0.54236 0.62662 0.0
H410 H 0.60056 0.5649 0.56911 0.0
H411 H 0.62633 0.54186 0.60688 0.0
O412 O 0.64703 0.56307 0.49716 0.0
O413 O 0.65111 0.57707 0.55201 0.0
O414 O 0.61537 0.5623 0.52393 0.0
O415 O 0.62881 0.53683 0.54084 0.0
H416 H 0.655 0.54022 0.47824 0.0
H417 H 0.63638 0.57498 0.45771 0.0
H418 H 0.65252 0.53159 0.43124 0.0
H419 H 0.63451 0.56595 0.41104 0.0
H420 H 0.66322 0.57823 0.63921 0.0
H421 H 0.63997 0.59817 0.56735 0.0
H422 H 0.66317 0.56836 0.59336 0.0
H423 H 0.64039 0.6075 0.61366 0.0
H424 H 0.67446 0.62139 0.45186 0.0
H425 H 0.63282 0.62657 0.4864 0.0
H426 H 0.68352 0.5268 0.51772 0.0
H427 H 0.71421 0.58059 0.54114 0.0
H428 H 0.58483 0.53606 0.53827 0.0
H429 H 0.61053 0.57846 0.48368 0.0
H430 H 0.55685 0.52809 0.51661 0.0
H431 H 0.58205 0.57019 0.46372 0.0
H432 H 0.59467 0.51675 0.54198 0.0
H433 H 0.6426 0.52556 0.57636 0.0
H434 H 0.57862 0.49229 0.57301 0.0
H435 H 0.62573 0.50068 0.60648 0.0
H436 H 0.59963 0.48843 0.46837 0.0
H437 H 0.58609 0.52314 0.4293 0.0
H438 H 0.57904 0.55541 0.60441 0.0
H439 H 0.60509 0.53148 0.64317 0.0
Li440 Li 0.0652 0.63317 0.85198 0.0
Li441 Li 0.09425 0.64183 0.87004 0.0
Li442 Li 0.07874 0.61435 0.84648 0.0
Li443 Li 0.06962 0.61953 0.88942 0.0
C444 C 0.08552 0.63861 0.80642 0.0
N445 N 0.08247 0.64051 0.75249 0.0
C446 C 0.09885 0.65203 0.79204 0.0
C447 C 0.07066 0.62612 0.79338 0.0
C448 C 0.09706 0.65277 0.76478 0.0
C449 C 0.06935 0.62732 0.76611 0.0
C450 C 0.06709 0.6467 0.9069 0.0
C451 C 0.06582 0.65255 0.95301 0.0
N452 N 0.05044 0.65195 0.94881 0.0
C453 C 0.05135 0.6463 0.90297 0.0
C454 C 0.07449 0.65001 0.93204 0.0
C455 C 0.04311 0.64894 0.92444 0.0
C456 C 0.03659 0.63085 0.82349 0.0
N457 N 0.05313 0.64159 0.83165 0.0
C458 C 0.05651 0.66325 0.80066 0.0
C459 C 0.06291 0.65775 0.82138 0.0
C460 C 0.0398 0.6521 0.79096 0.0
C461 C 0.02953 0.63599 0.80321 0.0
H462 H 0.02935 0.61788 0.83137 0.0
H463 H 0.07616 0.66582 0.82792 0.0
C464 C 0.12882 0.66191 0.85597 0.0
N465 N 0.11666 0.66124 0.87285 0.0
C466 C 0.145 0.67685 0.85427 0.0
C467 C 0.13593 0.69002 0.88773 0.0
C468 C 0.11992 0.67473 0.88892 0.0
C469 C 0.14857 0.69129 0.86984 0.0
H470 H 0.12565 0.65104 0.84309 0.0
H471 H 0.10987 0.67385 0.90189 0.0
C472 C 0.04212 0.59302 0.86872 0.0
N473 N 0.01728 0.56345 0.89392 0.0
C474 C 0.04564 0.57985 0.87539 0.0
C475 C 0.02595 0.59113 0.87483 0.0
C476 C 0.03292 0.56501 0.88814 0.0
C477 C 0.01356 0.57607 0.88756 0.0
C478 C 0.10675 0.62415 0.89166 0.0
C479 C 0.11887 0.62111 0.87884 0.0
C480 C 0.11102 0.63291 0.91578 0.0
C481 C 0.13522 0.6272 0.89015 0.0
C482 C 0.1275 0.6388 0.92643 0.0
N483 N 0.13917 0.63587 0.91349 0.0
C484 C 0.09743 0.6069 0.8097 0.0
C485 C 0.06776 0.58529 0.81245 0.0
C486 C 0.09986 0.59845 0.78835 0.0
N487 N 0.08157 0.60026 0.82117 0.0
C488 C 0.0696 0.57641 0.79116 0.0
C489 C 0.08577 0.58313 0.77855 0.0
H490 H 0.10801 0.61917 0.81643 0.0
H491 H 0.05516 0.58059 0.82133 0.0
C492 C 0.04453 0.6063 0.93167 0.0
N493 N 0.05941 0.60768 0.92191 0.0
C494 C 0.03563 0.59473 0.95214 0.0
C495 C 0.0579 0.58678 0.95292 0.0
C496 C 0.0664 0.59856 0.9326 0.0
C497 C 0.042 0.58434 0.96242 0.0
H498 H 0.03889 0.61324 0.92246 0.0
H499 H 0.07797 0.5995 0.92417 0.0
O500 O 0.08696 0.63793 0.8332 0.0
O501 O 0.07542 0.64432 0.88607 0.0
O502 O 0.05463 0.60787 0.85696 0.0
O503 O 0.09078 0.61859 0.88071 0.0
H504 H 0.11041 0.66183 0.80188 0.0
H505 H 0.06018 0.61567 0.80422 0.0
H506 H 0.10726 0.66311 0.75339 0.0
H507 H 0.05789 0.61778 0.75578 0.0
H508 H 0.07134 0.65501 0.97262 0.0
H509 H 0.04549 0.64385 0.88362 0.0
H510 H 0.08677 0.6506 0.93535 0.0
H511 H 0.03087 0.64857 0.92174 0.0
H512 H 0.06481 0.67569 0.79146 0.0
H513 H 0.0167 0.62696 0.79582 0.0
H514 H 0.15427 0.6774 0.83991 0.0
H515 H 0.13824 0.70087 0.90013 0.0
H516 H 0.05818 0.58123 0.87119 0.0
H517 H 0.0231 0.60131 0.8703 0.0
H518 H 0.03551 0.55478 0.89357 0.0
H519 H 0.00104 0.57449 0.89257 0.0
H520 H 0.1157 0.61415 0.86036 0.0
H521 H 0.10172 0.63522 0.92604 0.0
H522 H 0.14476 0.62502 0.88037 0.0
H523 H 0.13102 0.64571 0.94499 0.0
H524 H 0.11245 0.60428 0.77892 0.0
H525 H 0.05841 0.56459 0.78432 0.0
H526 H 0.02345 0.5933 0.95887 0.0
H527 H 0.06313 0.57879 0.95971 0.0
Li528 Li 0.9072 0.55644 0.45954 0.0
Li529 Li 0.93359 0.57383 0.48524 0.0
Li530 Li 0.93264 0.55543 0.44843 0.0
Li531 Li 0.91798 0.54232 0.48993 0.0
C532 C 0.92485 0.58572 0.43292 0.0
N533 N 0.91348 0.60472 0.40483 0.0
C534 C 0.92807 0.6018 0.44234 0.0
C535 C 0.91599 0.57935 0.40912 0.0
C536 C 0.92218 0.6112 0.42786 0.0
C537 C 0.9103 0.58913 0.39525 0.0
C538 C 0.89934 0.55193 0.51964 0.0
C539 C 0.89542 0.5448 0.56598 0.0
N540 N 0.87795 0.53695 0.56274 0.0
C541 C 0.88133 0.54383 0.51681 0.0
C542 C 0.90645 0.55249 0.54447 0.0
C543 C 0.87074 0.53634 0.53883 0.0
C544 C 0.87326 0.54177 0.43767 0.0
N545 N 0.8866 0.55601 0.44907 0.0
C546 C 0.86889 0.56882 0.45526 0.0
C547 C 0.88478 0.56948 0.45753 0.0
C548 C 0.85462 0.55398 0.44468 0.0
C549 C 0.857 0.54047 0.43527 0.0
H550 H 0.87498 0.53105 0.43181 0.0
H551 H 0.89542 0.58029 0.46751 0.0
C552 C 0.96336 0.60648 0.49977 0.0
N553 N 0.94652 0.59469 0.50506 0.0
C554 C 0.97315 0.61965 0.5179 0.0
C555 C 0.94759 0.60921 0.54514 0.0
C556 C 0.93838 0.59634 0.52656 0.0
C557 C 0.96539 0.62074 0.54145 0.0
H558 H 0.96941 0.60519 0.48211 0.0
H559 H 0.92486 0.5872 0.52993 0.0
C560 C 0.90902 0.52384 0.43656 0.0
N561 N 0.91183 0.50185 0.40107 0.0
C562 C 0.91529 0.51302 0.44484 0.0
C563 C 0.90403 0.52338 0.41031 0.0
C564 C 0.91666 0.50202 0.42656 0.0
C565 C 0.90558 0.51218 0.39266 0.0
C566 C 0.95841 0.56683 0.49679 0.0
C567 C 0.97377 0.57599 0.48238 0.0
C568 C 0.95895 0.56768 0.52432 0.0
C569 C 0.98942 0.58585 0.49579 0.0
C570 C 0.97485 0.57775 0.53699 0.0
N571 N 0.98963 0.58654 0.52258 0.0
C572 C 0.94375 0.55497 0.39522 0.0
C573 C 0.95554 0.54561 0.42914 0.0
C574 C 0.95215 0.55055 0.37597 0.0
N575 N 0.94548 0.55226 0.42118 0.0
C576 C 0.96441 0.5414 0.41073 0.0
C577 C 0.96263 0.54372 0.3838 0.0
H578 H 0.93543 0.55999 0.38941 0.0
H579 H 0.95628 0.54312 0.44983 0.0
C580 C 0.89459 0.51302 0.52006 0.0
N581 N 0.91159 0.52376 0.51415 0.0
C582 C 0.88992 0.50088 0.54033 0.0
C583 C 0.92023 0.5099 0.54616 0.0
C584 C 0.92433 0.5221 0.52617 0.0
C585 C 0.90288 0.49945 0.55388 0.0
H586 H 0.88468 0.51427 0.50962 0.0
H587 H 0.9377 0.53049 0.52062 0.0
O588 O 0.93038 0.57628 0.44693 0.0
O589 O 0.90996 0.55921 0.49825 0.0
O590 O 0.9083 0.53522 0.45388 0.0
O591 O 0.9429 0.55729 0.48401 0.0
H592 H 0.93493 0.60692 0.46071 0.0
H593 H 0.91327 0.56685 0.40169 0.0
H594 H 0.92451 0.62364 0.43495 0.0
H595 H 0.9033 0.58431 0.37691 0.0
H596 H 0.90076 0.54504 0.58524 0.0
H597 H 0.87551 0.54313 0.49783 0.0
H598 H 0.92033 0.55865 0.54706 0.0
H599 H 0.85679 0.52998 0.53688 0.0
H600 H 0.86751 0.57932 0.46336 0.0
H601 H 0.84627 0.5288 0.4271 0.0
H602 H 0.98675 0.62847 0.51396 0.0
H603 H 0.94099 0.60938 0.56296 0.0
H604 H 0.91934 0.51332 0.46505 0.0
H605 H 0.8993 0.53179 0.40356 0.0
H606 H 0.92165 0.49369 0.43262 0.0
H607 H 0.90191 0.51178 0.37223 0.0
H608 H 0.9736 0.57573 0.46106 0.0
H609 H 0.94721 0.56077 0.5358 0.0
H610 H 0.00139 0.59305 0.48488 0.0
H611 H 0.97543 0.5786 0.55827 0.0
H612 H 0.95036 0.55229 0.3553 0.0
H613 H 0.97206 0.53575 0.41741 0.0
H614 H 0.87638 0.49284 0.54555 0.0
H615 H 0.93057 0.50911 0.55618 0.0
Li616 Li 0.37064 0.93091 0.77917 0.0
Li617 Li 0.37398 0.92289 0.82439 0.0
Li618 Li 0.34684 0.90672 0.79967 0.0
Li619 Li 0.35607 0.93595 0.81591 0.0
C620 C 0.36589 0.89316 0.78518 0.0
N621 N 0.35629 0.85925 0.77342 0.0
C622 C 0.36923 0.88326 0.80311 0.0
C623 C 0.35783 0.88587 0.76117 0.0
C624 C 0.36425 0.86612 0.79681 0.0
C625 C 0.35302 0.86869 0.75562 0.0
C626 C 0.39767 0.95598 0.81986 0.0
C627 C 0.41722 0.96969 0.85636 0.0
N628 N 0.43094 0.97466 0.83984 0.0
C629 C 0.41197 0.96119 0.80325 0.0
C630 C 0.40031 0.96029 0.84663 0.0
C631 C 0.42868 0.97066 0.81373 0.0
C632 C 0.38749 0.95668 0.73998 0.0
N633 N 0.38332 0.94041 0.74758 0.0
C634 C 0.4028 0.93975 0.71593 0.0
C635 C 0.39028 0.9317 0.7355 0.0
C636 C 0.40822 0.95697 0.70876 0.0
C637 C 0.39984 0.96518 0.72027 0.0
H638 H 0.38208 0.96348 0.75039 0.0
H639 H 0.38706 0.91895 0.74236 0.0
C640 C 0.38103 0.91317 0.87308 0.0
N641 N 0.38842 0.92024 0.84951 0.0
C642 C 0.39068 0.91108 0.89284 0.0
C643 C 0.41531 0.92284 0.8634 0.0
C644 C 0.40513 0.92475 0.84412 0.0
C645 C 0.40812 0.91613 0.88827 0.0
H646 H 0.36756 0.90905 0.87655 0.0
H647 H 0.41058 0.92994 0.82497 0.0
C648 C 0.34454 0.93255 0.75789 0.0
N649 N 0.34259 0.94694 0.71069 0.0
C650 C 0.3454 0.94865 0.7576 0.0
C651 C 0.34252 0.92368 0.73426 0.0
C652 C 0.34442 0.95572 0.7335 0.0
C653 C 0.34162 0.9312 0.71058 0.0
C654 C 0.34046 0.91498 0.8569 0.0
C655 C 0.32244 0.90438 0.85619 0.0
C656 C 0.34825 0.92615 0.87828 0.0
C657 C 0.31249 0.90519 0.87686 0.0
C658 C 0.33785 0.92662 0.89851 0.0
N659 N 0.32033 0.91621 0.89739 0.0
C660 C 0.32703 0.87258 0.81469 0.0
C661 C 0.31467 0.87986 0.77892 0.0
C662 C 0.31287 0.85586 0.81552 0.0
N663 N 0.32765 0.88414 0.79663 0.0
C664 C 0.30008 0.86325 0.77926 0.0
C665 C 0.29907 0.85108 0.79788 0.0
H666 H 0.33739 0.87656 0.82891 0.0
H667 H 0.31546 0.88944 0.76502 0.0
C668 C 0.36048 0.96497 0.84386 0.0
N669 N 0.34838 0.95021 0.83191 0.0
C670 C 0.35545 0.97315 0.86237 0.0
C671 C 0.32549 0.95177 0.85393 0.0
C672 C 0.33113 0.94402 0.83545 0.0
C673 C 0.33779 0.96606 0.86853 0.0
H674 H 0.37408 0.96965 0.84052 0.0
H675 H 0.3218 0.93224 0.82558 0.0
O676 O 0.37038 0.90985 0.79117 0.0
O677 O 0.38118 0.94674 0.80999 0.0
O678 O 0.34562 0.92549 0.78123 0.0
O679 O 0.35042 0.91457 0.83664 0.0
H680 H 0.37546 0.8887 0.82178 0.0
H681 H 0.35515 0.89337 0.7471 0.0
H682 H 0.36666 0.85827 0.81055 0.0
H683 H 0.34666 0.86284 0.7372 0.0
H684 H 0.41944 0.97301 0.87706 0.0
H685 H 0.41024 0.95795 0.78253 0.0
H686 H 0.38943 0.95623 0.85984 0.0
H687 H 0.43985 0.97485 0.80109 0.0
H688 H 0.40913 0.93301 0.70812 0.0
H689 H 0.40356 0.97841 0.7153 0.0
H690 H 0.38449 0.90542 0.91147 0.0
H691 H 0.42871 0.92686 0.85907 0.0
H692 H 0.34694 0.95566 0.77576 0.0
H693 H 0.34179 0.91118 0.73421 0.0
H694 H 0.34516 0.96821 0.73294 0.0
H695 H 0.34017 0.92454 0.6921 0.0
H696 H 0.31616 0.89575 0.83974 0.0
H697 H 0.36217 0.93453 0.8791 0.0
H698 H 0.29852 0.89711 0.87651 0.0
H699 H 0.34368 0.93532 0.91503 0.0
H700 H 0.31241 0.84698 0.83052 0.0
H701 H 0.28964 0.86001 0.7654 0.0
H702 H 0.36542 0.98402 0.87331 0.0
H703 H 0.31176 0.94599 0.85794 0.0
Li704 Li 0.45922 0.37975 0.15214 0.0
Li705 Li 0.44338 0.37492 0.11059 0.0
Li706 Li 0.42667 0.36331 0.15011 0.0
Li707 Li 0.44433 0.35186 0.12996 0.0
C708 C 0.44882 0.40444 0.13296 0.0
N709 N 0.46066 0.4369 0.11117 0.0
C710 C 0.46582 0.41399 0.12351 0.0
C711 C 0.43787 0.41144 0.13135 0.0
C712 C 0.47155 0.43036 0.11253 0.0
C713 C 0.4441 0.42787 0.12029 0.0
C714 C 0.47411 0.36723 0.10595 0.0
C715 C 0.47768 0.35036 0.07192 0.0
N716 N 0.49257 0.35308 0.08368 0.0
C717 C 0.48956 0.37006 0.11751 0.0
C718 C 0.46822 0.35748 0.08279 0.0
C719 C 0.49867 0.36273 0.10602 0.0
C720 C 0.4865 0.3864 0.18667 0.0
N721 N 0.47745 0.39351 0.17608 0.0
C722 C 0.4905 0.4172 0.20629 0.0
C723 C 0.47929 0.40866 0.18535 0.0
C724 C 0.49969 0.40995 0.21811 0.0
C725 C 0.49785 0.3945 0.2077 0.0
H726 H 0.48419 0.37395 0.17972 0.0
H727 H 0.47145 0.41371 0.17742 0.0
C728 C 0.43215 0.39153 0.07404 0.0
N729 N 0.44426 0.38678 0.07862 0.0
C730 C 0.43531 0.40436 0.0555 0.0
C731 C 0.46267 0.40616 0.04526 0.0
C732 C 0.45899 0.3933 0.06399 0.0
C733 C 0.45112 0.41243 0.04177 0.0
H734 H 0.42079 0.38655 0.08641 0.0
H735 H 0.46861 0.38965 0.06842 0.0
C736 C 0.44329 0.35779 0.19415 0.0
N737 N 0.44444 0.35969 0.24854 0.0
C738 C 0.44557 0.34582 0.20889 0.0
C739 C 0.44164 0.37076 0.20706 0.0
C740 C 0.4461 0.34699 0.23637 0.0
C741 C 0.44223 0.37149 0.23457 0.0
C742 C 0.41252 0.3497 0.09566 0.0
C743 C 0.39831 0.352 0.10016 0.0
C744 C 0.41569 0.34586 0.07027 0.0
C745 C 0.38766 0.35071 0.07902 0.0
C746 C 0.40476 0.34471 0.04964 0.0
N747 N 0.3911 0.34715 0.05441 0.0
C748 C 0.40131 0.36874 0.17548 0.0
C749 C 0.40092 0.34268 0.1864 0.0
C750 C 0.38947 0.36596 0.19556 0.0
N751 N 0.40711 0.3574 0.17182 0.0
C752 C 0.3893 0.33952 0.20697 0.0
C753 C 0.38383 0.35154 0.21234 0.0
H754 H 0.40646 0.38032 0.16362 0.0
H755 H 0.40589 0.33396 0.18315 0.0
C756 C 0.45722 0.33028 0.14283 0.0
N757 N 0.44552 0.33137 0.12697 0.0
C758 C 0.45789 0.31501 0.14399 0.0
C759 C 0.43459 0.30232 0.11207 0.0
C760 C 0.43442 0.31792 0.11147 0.0
C761 C 0.44628 0.30067 0.12881 0.0
H762 H 0.46571 0.34117 0.15517 0.0
H763 H 0.42517 0.31918 0.0992 0.0
O764 O 0.44285 0.3881 0.14287 0.0
O765 O 0.46483 0.37404 0.11714 0.0
O766 O 0.44302 0.35697 0.1672 0.0
O767 O 0.42309 0.35094 0.11611 0.0
H768 H 0.47445 0.40873 0.12434 0.0
H769 H 0.42463 0.40421 0.13821 0.0
H770 H 0.48462 0.43782 0.10496 0.0
H771 H 0.43573 0.4334 0.1188 0.0
H772 H 0.47318 0.34266 0.05414 0.0
H773 H 0.49449 0.37784 0.13512 0.0
H774 H 0.4564 0.35534 0.07346 0.0
H775 H 0.51059 0.36473 0.11485 0.0
H776 H 0.4916 0.42913 0.21363 0.0
H777 H 0.50441 0.38828 0.21655 0.0
H778 H 0.42606 0.40881 0.05338 0.0
H779 H 0.47515 0.41222 0.03548 0.0
H780 H 0.44693 0.33574 0.19918 0.0
H781 H 0.44 0.38022 0.19596 0.0
H782 H 0.44785 0.33781 0.24804 0.0
H783 H 0.44099 0.38147 0.24481 0.0
H784 H 0.3956 0.35488 0.11971 0.0
H785 H 0.42648 0.34381 0.0665 0.0
H786 H 0.37668 0.35257 0.08218 0.0
H787 H 0.40712 0.34185 0.02986 0.0
H788 H 0.38532 0.37537 0.19852 0.0
H789 H 0.38553 0.32833 0.21945 0.0
H790 H 0.4669 0.31422 0.15748 0.0
H791 H 0.42551 0.2916 0.09994 0.0
Li792 Li 0.06507 0.43776 0.43828 0.0
Li793 Li 0.07314 0.44829 0.48308 0.0
Li794 Li 0.08786 0.43612 0.46081 0.0
Li795 Li 0.05832 0.41661 0.47643 0.0
C796 C 0.08884 0.47268 0.44297 0.0
N797 N 0.09089 0.50325 0.4266 0.0
C798 C 0.07497 0.47553 0.44723 0.0
C799 C 0.10381 0.48543 0.43051 0.0
C800 C 0.07623 0.49105 0.43878 0.0
C801 C 0.1046 0.50079 0.42235 0.0
C802 C 0.0355 0.43273 0.48094 0.0
C803 C 0.01407 0.42334 0.51557 0.0
N804 N 0.00681 0.43185 0.5036 0.0
C805 C 0.02777 0.44134 0.46897 0.0
C806 C 0.02855 0.42362 0.50442 0.0
C807 C 0.01331 0.44077 0.48076 0.0
C808 C 0.03848 0.43359 0.40456 0.0
N809 N 0.056 0.44137 0.40655 0.0
C810 C 0.05964 0.45914 0.36912 0.0
C811 C 0.06661 0.45332 0.38861 0.0
C812 C 0.04162 0.45249 0.36811 0.0
C813 C 0.03095 0.43898 0.38539 0.0
H814 H 0.03038 0.42407 0.41908 0.0
H815 H 0.08051 0.45914 0.39046 0.0
C816 C 0.09268 0.48054 0.50938 0.0
N817 N 0.07675 0.466 0.50842 0.0
C818 C 0.09644 0.49317 0.52864 0.0
C819 C 0.06736 0.47573 0.5455 0.0
C820 C 0.06423 0.46343 0.52612 0.0
C821 C 0.08365 0.49081 0.54702 0.0
H822 H 0.10261 0.48215 0.49554 0.0
H823 H 0.05198 0.45165 0.52593 0.0
C824 C 0.07705 0.41074 0.42759 0.0
N825 N 0.09671 0.39897 0.40249 0.0
C826 C 0.07693 0.39588 0.43672 0.0
C827 C 0.08704 0.41956 0.40561 0.0
C828 C 0.08699 0.39015 0.42377 0.0
C829 C 0.09693 0.41341 0.39323 0.0
C830 C 0.08565 0.43777 0.52123 0.0
C831 C 0.10315 0.45018 0.52429 0.0
C832 C 0.07462 0.43248 0.54309 0.0
C833 C 0.10933 0.4572 0.54924 0.0
C834 C 0.0813 0.43983 0.56771 0.0
N835 N 0.09836 0.45194 0.57024 0.0
C836 C 0.12343 0.45002 0.44646 0.0
C837 C 0.11077 0.42493 0.47352 0.0
C838 C 0.13975 0.45149 0.44916 0.0
N839 N 0.10948 0.43702 0.45893 0.0
C840 C 0.12674 0.42585 0.47664 0.0
C841 C 0.14157 0.43947 0.46483 0.0
H842 H 0.12199 0.45955 0.43525 0.0
H843 H 0.09947 0.41496 0.48361 0.0
C844 C 0.02593 0.38668 0.48966 0.0
N845 N 0.04344 0.395 0.49262 0.0
C846 C 0.01528 0.37432 0.50823 0.0
C847 C 0.04095 0.37782 0.53021 0.0
C848 C 0.05106 0.39017 0.5114 0.0
C849 C 0.02285 0.3705 0.52967 0.0
H850 H 0.02025 0.39085 0.47452 0.0
H851 H 0.06504 0.39702 0.51319 0.0
O852 O 0.08785 0.45746 0.45064 0.0
O853 O 0.04936 0.43268 0.46923 0.0
O854 O 0.06768 0.41683 0.44039 0.0
O855 O 0.07924 0.43114 0.49683 0.0
H856 H 0.06338 0.46592 0.45701 0.0
H857 H 0.11469 0.48343 0.42704 0.0
H858 H 0.06555 0.49339 0.44191 0.0
H859 H 0.11609 0.51074 0.41261 0.0
H860 H 0.00867 0.41644 0.53382 0.0
H861 H 0.03281 0.44837 0.45073 0.0
H862 H 0.03457 0.41727 0.5144 0.0
H863 H 0.00723 0.44739 0.47169 0.0
H864 H 0.06831 0.46939 0.35593 0.0
H865 H 0.01703 0.43357 0.38553 0.0
H866 H 0.1092 0.50462 0.52919 0.0
H867 H 0.05727 0.47318 0.55969 0.0
H868 H 0.06929 0.38898 0.45379 0.0
H869 H 0.0873 0.43113 0.39843 0.0
H870 H 0.08712 0.37872 0.43068 0.0
H871 H 0.10482 0.42015 0.37629 0.0
H872 H 0.11182 0.45452 0.50752 0.0
H873 H 0.06102 0.42296 0.54102 0.0
H874 H 0.12282 0.4669 0.55189 0.0
H875 H 0.0729 0.43594 0.58478 0.0
H876 H 0.15086 0.46213 0.43965 0.0
H877 H 0.12759 0.41651 0.48929 0.0
H878 H 0.00136 0.36884 0.50701 0.0
H879 H 0.04737 0.3754 0.54644 0.0
Li880 Li 0.6481 0.08647 0.80225 0.0
Li881 Li 0.6388 0.05699 0.81734 0.0
Li882 Li 0.6231 0.0627 0.7827 0.0
Li883 Li 0.62182 0.07054 0.82896 0.0
C884 C 0.64899 0.0611 0.75833 0.0
N885 N 0.65118 0.0481 0.70996 0.0
C886 C 0.64897 0.04542 0.75686 0.0
C887 C 0.6503 0.07026 0.73527 0.0
C888 C 0.65005 0.03905 0.73219 0.0
C889 C 0.65132 0.06344 0.71098 0.0
C890 C 0.65635 0.0777 0.85789 0.0
C891 C 0.66046 0.066 0.89842 0.0
N892 N 0.67792 0.07624 0.89577 0.0
C893 C 0.67434 0.0881 0.85557 0.0
C894 C 0.64934 0.06656 0.87951 0.0
C895 C 0.68502 0.08718 0.87493 0.0
C896 C 0.66966 0.12061 0.81671 0.0
N897 N 0.66768 0.10871 0.79827 0.0
C898 C 0.69539 0.12813 0.77974 0.0
C899 C 0.68002 0.11214 0.77975 0.0
C900 C 0.69791 0.14057 0.79891 0.0
C901 C 0.68469 0.13676 0.81727 0.0
H902 H 0.65982 0.11727 0.83164 0.0
H903 H 0.67817 0.10228 0.76562 0.0
C904 C 0.63477 0.02769 0.8438 0.0
N905 N 0.64663 0.04232 0.83129 0.0
C906 C 0.64019 0.01939 0.86148 0.0
C907 C 0.66996 0.04031 0.85086 0.0
C908 C 0.66392 0.04819 0.83328 0.0
C909 C 0.65801 0.02624 0.86621 0.0
H910 H 0.62112 0.02326 0.84169 0.0
H911 H 0.67304 0.05988 0.82302 0.0
C912 C 0.62911 0.10068 0.79065 0.0
N913 N 0.63875 0.13462 0.7791 0.0
C914 C 0.62737 0.11106 0.80967 0.0
C915 C 0.63556 0.10747 0.76569 0.0
C916 C 0.63236 0.12822 0.80345 0.0
C917 C 0.64043 0.12469 0.76026 0.0
C918 C 0.59746 0.03769 0.82485 0.0
C919 C 0.5826 0.0328 0.8097 0.0
C920 C 0.5958 0.03341 0.85163 0.0
C921 C 0.56631 0.0238 0.82166 0.0
C922 C 0.57928 0.02442 0.86286 0.0
N923 N 0.565 0.01985 0.84777 0.0
C924 C 0.60644 0.03907 0.74011 0.0
C925 C 0.59984 0.06159 0.745 0.0
C926 C 0.59369 0.03119 0.72072 0.0
N927 N 0.60908 0.05386 0.75203 0.0
C928 C 0.5867 0.05395 0.72622 0.0
C929 C 0.58308 0.03823 0.71427 0.0
H930 H 0.61359 0.03289 0.74656 0.0
H931 H 0.60188 0.0731 0.75524 0.0
C932 C 0.61596 0.07924 0.87955 0.0
N933 N 0.60831 0.0732 0.85574 0.0
C934 C 0.60665 0.08093 0.90027 0.0
C935 C 0.58187 0.07085 0.87135 0.0
C936 C 0.59171 0.06935 0.85111 0.0
C937 C 0.5893 0.0765 0.89644 0.0
H938 H 0.62934 0.08282 0.88247 0.0
H939 H 0.58606 0.06493 0.83181 0.0
O940 O 0.64796 0.06755 0.78227 0.0
O941 O 0.64568 0.07833 0.83901 0.0
O942 O 0.62456 0.08395 0.79647 0.0
O943 O 0.61355 0.04667 0.81355 0.0
H944 H 0.64803 0.03821 0.77456 0.0
H945 H 0.65042 0.08246 0.73613 0.0
H946 H 0.64998 0.02689 0.73071 0.0
H947 H 0.65224 0.07033 0.69294 0.0
H948 H 0.65522 0.05736 0.91514 0.0
H949 H 0.68004 0.09668 0.83889 0.0
H950 H 0.63546 0.0583 0.88153 0.0
H951 H 0.69896 0.09512 0.87335 0.0
H952 H 0.70531 0.13063 0.76525 0.0
H953 H 0.68627 0.14584 0.8327 0.0
H954 H 0.63048 0.00872 0.87303 0.0
H955 H 0.68379 0.04589 0.85375 0.0
H956 H 0.62239 0.10598 0.82908 0.0
H957 H 0.63691 0.09956 0.75074 0.0
H958 H 0.6312 0.13645 0.81802 0.0
H959 H 0.64555 0.13016 0.74107 0.0
H960 H 0.5836 0.03596 0.78896 0.0
H961 H 0.60714 0.03721 0.86373 0.0
H962 H 0.5547 0.01998 0.81019 0.0
H963 H 0.57782 0.02114 0.88359 0.0
H964 H 0.59167 0.01927 0.71185 0.0
H965 H 0.57875 0.05978 0.72259 0.0
H966 H 0.61302 0.08577 0.91908 0.0
H967 H 0.56853 0.06729 0.86756 0.0
Li968 Li 0.57673 0.64165 0.15143 0.0
Li969 Li 0.55651 0.65052 0.1323 0.0
Li970 Li 0.54523 0.62348 0.15558 0.0
Li971 Li 0.55802 0.62666 0.11263 0.0
C972 C 0.55362 0.64633 0.19367 0.0
N973 N 0.53869 0.64338 0.24252 0.0
C974 C 0.54116 0.65132 0.19707 0.0
C975 C 0.5586 0.63996 0.21513 0.0
C976 C 0.53373 0.6497 0.22193 0.0
C977 C 0.55087 0.63854 0.23967 0.0
C978 C 0.58002 0.65885 0.09083 0.0
C979 C 0.56891 0.66405 0.05057 0.0
N980 N 0.58542 0.67404 0.04165 0.0
C981 C 0.59687 0.66917 0.08128 0.0
C982 C 0.56591 0.65626 0.07538 0.0
C983 C 0.59934 0.67674 0.05636 0.0
C984 C 0.60743 0.64162 0.16809 0.0
N985 N 0.59788 0.64964 0.16987 0.0
C986 C 0.61422 0.66602 0.2071 0.0
C987 C 0.60151 0.66217 0.18809 0.0
C988 C 0.62328 0.65685 0.20732 0.0
C989 C 0.62026 0.64501 0.18686 0.0
H990 H 0.60423 0.63169 0.15335 0.0
H991 H 0.59368 0.66832 0.18899 0.0
C992 C 0.53818 0.66858 0.12613 0.0
N993 N 0.55413 0.67018 0.12804 0.0
C994 C 0.53639 0.68327 0.12777 0.0
C995 C 0.56755 0.70087 0.13223 0.0
C996 C 0.56872 0.68587 0.13055 0.0
C997 C 0.55119 0.69964 0.1315 0.0
H998 H 0.52681 0.65585 0.12456 0.0
H999 H 0.58117 0.68662 0.13251 0.0
C1000 C 0.56277 0.60284 0.15537 0.0
N1001 N 0.56436 0.57506 0.1766 0.0
C1002 C 0.55535 0.587 0.14199 0.0
C1003 C 0.57108 0.60454 0.17951 0.0
C1004 C 0.55626 0.57311 0.15306 0.0
C1005 C 0.57172 0.59035 0.18993 0.0
C1006 C 0.5221 0.61343 0.11313 0.0
C1007 C 0.51956 0.59694 0.11851 0.0
C1008 C 0.50971 0.6151 0.09848 0.0
C1009 C 0.50475 0.58236 0.10889 0.0
C1010 C 0.49505 0.60021 0.08923 0.0
N1011 N 0.49291 0.58428 0.09455 0.0
C1012 C 0.5126 0.61038 0.18006 0.0
C1013 C 0.52902 0.59824 0.19682 0.0
C1014 C 0.49954 0.60125 0.1986 0.0
N1015 N 0.52705 0.60882 0.17961 0.0
C1016 C 0.51627 0.58879 0.2155 0.0
C1017 C 0.50135 0.59034 0.21671 0.0
H1018 H 0.51144 0.61908 0.16641 0.0
H1019 H 0.54066 0.59745 0.19673 0.0
C1020 C 0.56776 0.60753 0.08077 0.0
N1021 N 0.55703 0.61426 0.08158 0.0
C1022 C 0.56462 0.59436 0.06294 0.0
C1023 C 0.54055 0.59657 0.04538 0.0
C1024 C 0.54431 0.60986 0.06335 0.0
C1025 C 0.55019 0.58799 0.04603 0.0
H1026 H 0.57789 0.61142 0.09538 0.0
H1027 H 0.53621 0.6157 0.06399 0.0
O1028 O 0.56065 0.64734 0.16932 0.0
O1029 O 0.57745 0.65137 0.1152 0.0
O1030 O 0.56242 0.61675 0.14448 0.0
O1031 O 0.53668 0.62796 0.12181 0.0
H1032 H 0.53711 0.65621 0.18063 0.0
H1033 H 0.56817 0.63596 0.2128 0.0
H1034 H 0.52398 0.6534 0.22482 0.0
H1035 H 0.55452 0.63354 0.25642 0.0
H1036 H 0.55812 0.66215 0.0384 0.0
H1037 H 0.60792 0.6713 0.09302 0.0
H1038 H 0.55277 0.64836 0.08242 0.0
H1039 H 0.61231 0.68476 0.04871 0.0
H1040 H 0.61594 0.67508 0.22263 0.0
H1041 H 0.62707 0.63778 0.18621 0.0
H1042 H 0.52356 0.68178 0.12691 0.0
H1043 H 0.57926 0.71317 0.13552 0.0
H1044 H 0.54896 0.58539 0.12321 0.0
H1045 H 0.57665 0.61655 0.19041 0.0
H1046 H 0.55056 0.56079 0.14291 0.0
H1047 H 0.57802 0.59148 0.20866 0.0
H1048 H 0.5289 0.5954 0.12998 0.0
H1049 H 0.5115 0.62779 0.09412 0.0
H1050 H 0.50267 0.56952 0.11283 0.0
H1051 H 0.4854 0.60131 0.07776 0.0
H1052 H 0.48821 0.60277 0.19885 0.0
H1053 H 0.51835 0.58079 0.22943 0.0
H1054 H 0.57264 0.5884 0.06369 0.0
H1055 H 0.5293 0.59213 0.03277 0.0
H1056 H 0.516 0.07014 0.11576 0.0
H1057 H 0.5333 0.07185 0.07722 0.0
H1058 H 0.50907 0.09509 0.03221 0.0
H1059 H 0.49143 0.09305 0.07048 0.0
H1060 H 0.50938 0.06904 0.00541 0.0
H1061 H 0.55046 0.11947 0.05233 0.0
H1062 H 0.56769 0.13629 0.09065 0.0
H1063 H 0.59223 0.10532 0.09433 0.0
H1064 H 0.57496 0.08814 0.05625 0.0
H1065 H 0.56671 0.08902 0.89567 0.0
H1066 H 0.5504 0.09133 0.9328 0.0
H1067 H 0.57256 0.06902 0.98443 0.0
H1068 H 0.58884 0.06665 0.94751 0.0
H1069 H 0.57351 0.09676 0.00675 0.0
H1070 H 0.53102 0.04521 0.96169 0.0
H1071 H 0.51364 0.02825 0.92355 0.0
H1072 H 0.49168 0.0614 0.91654 0.0
H1073 H 0.50913 0.07872 0.95443 0.0
C1074 C 0.51438 0.07564 0.09766 0.0
C1075 C 0.50237 0.08148 0.09617 0.0
C1076 C 0.52437 0.07673 0.07573 0.0
C1077 C 0.52257 0.08373 0.05191 0.0
C1078 C 0.5107 0.08971 0.05042 0.0
C1079 C 0.50074 0.08867 0.07237 0.0
C1080 C 0.53257 0.08413 0.02829 0.0
C1081 C 0.52343 0.07536 0.00553 0.0
C1082 C 0.55086 0.09209 0.02866 0.0
C1083 C 0.56129 0.10241 0.05156 0.0
C1084 C 0.55942 0.11615 0.06144 0.0
C1085 C 0.56922 0.12577 0.0831 0.0
C1086 C 0.58102 0.12185 0.09496 0.0
C1087 C 0.58307 0.10833 0.08514 0.0
C1088 C 0.5733 0.09866 0.0635 0.0
C1089 C 0.56797 0.08446 0.91489 0.0
C1090 C 0.57908 0.07767 0.91866 0.0
C1091 C 0.55868 0.08583 0.93609 0.0
C1092 C 0.5602 0.08026 0.96136 0.0
C1093 C 0.57127 0.07348 0.96514 0.0
C1094 C 0.58058 0.07216 0.94402 0.0
C1095 C 0.55031 0.08147 0.98399 0.0
C1096 C 0.55947 0.09056 0.00657 0.0
C1097 C 0.53204 0.07379 0.98345 0.0
C1098 C 0.52152 0.06337 0.9607 0.0
C1099 C 0.5226 0.04897 0.95188 0.0
C1100 C 0.51272 0.03928 0.93033 0.0
C1101 C 0.5016 0.04377 0.91758 0.0
C1102 C 0.50032 0.05795 0.9264 0.0
C1103 C 0.51019 0.06771 0.94792 0.0
H1104 H 0.49396 0.03625 0.90091 0.0
H1105 H 0.58859 0.12932 0.11172 0.0
H1106 H 0.48814 0.55684 0.23279 0.0
H1107 H 0.46868 0.5424 0.26982 0.0
H1108 H 0.46525 0.5883 0.28463 0.0
H1109 H 0.48514 0.60301 0.24788 0.0
H1110 H 0.47195 0.57636 0.32913 0.0
H1111 H 0.43065 0.55229 0.2599 0.0
H1112 H 0.41855 0.53803 0.2173 0.0
H1113 H 0.41906 0.49248 0.24373 0.0
H1114 H 0.43141 0.50657 0.28638 0.0
H1115 H 0.40778 0.53048 0.42889 0.0
H1116 H 0.42198 0.54703 0.38893 0.0
H1117 H 0.43301 0.50709 0.36481 0.0
H1118 H 0.41867 0.49042 0.4044 0.0
H1119 H 0.41983 0.51778 0.32432 0.0
H1120 H 0.46423 0.54354 0.39144 0.0
H1121 H 0.47645 0.55799 0.43391 0.0
H1122 H 0.46971 0.60067 0.41094 0.0
H1123 H 0.45721 0.58633 0.36845 0.0
C1124 C 0.48318 0.56383 0.24385 0.0
C1125 C 0.48819 0.58106 0.23748 0.0
C1126 C 0.47193 0.55552 0.26486 0.0
C1127 C 0.46539 0.56422 0.27985 0.0
C1128 C 0.4701 0.58133 0.27324 0.0
C1129 C 0.48134 0.58966 0.25214 0.0
C1130 C 0.45452 0.55573 0.30335 0.0
C1131 C 0.46033 0.56372 0.32801 0.0
C1132 C 0.43953 0.53911 0.30193 0.0
C1133 C 0.43208 0.53055 0.2763 0.0
C1134 C 0.42831 0.53929 0.25657 0.0
C1135 C 0.42139 0.53122 0.23242 0.0
C1136 C 0.41807 0.51437 0.22779 0.0
C1137 C 0.42165 0.50554 0.24734 0.0
C1138 C 0.42859 0.51355 0.27152 0.0
C1139 C 0.41319 0.52523 0.415 0.0
C1140 C 0.41221 0.50921 0.41983 0.0
C1141 C 0.42135 0.53471 0.39228 0.0
C1142 C 0.4286 0.5283 0.37401 0.0
C1143 C 0.42749 0.51226 0.37868 0.0
C1144 C 0.41945 0.50284 0.40143 0.0
C1145 C 0.43749 0.53828 0.35003 0.0
C1146 C 0.4313 0.53055 0.32532 0.0
C1147 C 0.45209 0.55515 0.35139 0.0
C1148 C 0.45959 0.56377 0.37692 0.0
C1149 C 0.4652 0.55593 0.39555 0.0
C1150 C 0.47221 0.56411 0.4196 0.0
C1151 C 0.4738 0.58021 0.42516 0.0
C1152 C 0.46843 0.58818 0.40663 0.0
C1153 C 0.46139 0.58003 0.38256 0.0
H1154 H 0.47924 0.58653 0.44378 0.0
H1155 H 0.41271 0.50815 0.20908 0.0
H1156 H 0.91274 0.47545 0.56311 0.0
H1157 H 0.90752 0.45795 0.60301 0.0
H1158 H 0.87862 0.48026 0.63672 0.0
H1159 H 0.8836 0.49762 0.59666 0.0
H1160 H 0.90609 0.4819 0.66921 0.0
H1161 H 0.85635 0.44087 0.62042 0.0
H1162 H 0.8407 0.42317 0.58176 0.0
H1163 H 0.8702 0.39708 0.58577 0.0
H1164 H 0.88623 0.41481 0.62424 0.0
H1165 H 0.88751 0.42935 0.7839 0.0
H1166 H 0.88382 0.44382 0.74533 0.0
H1167 H 0.90207 0.41727 0.69484 0.0
H1168 H 0.90529 0.4025 0.73308 0.0
H1169 H 0.87621 0.41767 0.67204 0.0
H1170 H 0.92842 0.46031 0.71557 0.0
H1171 H 0.94587 0.47843 0.75282 0.0
H1172 H 0.914 0.50197 0.75714 0.0
H1173 H 0.89621 0.48381 0.7201 0.0
C1174 C 0.90511 0.47644 0.57894 0.0
C1175 C 0.89853 0.4878 0.57688 0.0
C1176 C 0.90209 0.46643 0.60161 0.0
C1177 C 0.89265 0.46781 0.62269 0.0
C1178 C 0.88588 0.479 0.62058 0.0
C1179 C 0.88865 0.4888 0.59771 0.0
C1180 C 0.89077 0.45829 0.64747 0.0
C1181 C 0.89926 0.46785 0.67006 0.0
C1182 C 0.88223 0.44 0.64822 0.0
C1183 C 0.8726 0.42928 0.6251 0.0
C1184 C 0.85962 0.43147 0.61292 0.0
C1185 C 0.85065 0.4214 0.59107 0.0
C1186 C 0.85448 0.40903 0.58128 0.0
C1187 C 0.86726 0.40668 0.59336 0.0
C1188 C 0.87628 0.41672 0.61521 0.0
C1189 C 0.89068 0.42661 0.76452 0.0
C1190 C 0.89667 0.41482 0.76143 0.0
C1191 C 0.88859 0.43488 0.74253 0.0
C1192 C 0.89285 0.43178 0.71718 0.0
C1193 C 0.89861 0.41981 0.71413 0.0
C1194 C 0.90046 0.41139 0.736 0.0
C1195 C 0.89185 0.44128 0.69379 0.0
C1196 C 0.88284 0.43172 0.6714 0.0
C1197 C 0.90016 0.45961 0.69308 0.0
C1198 C 0.91086 0.47056 0.71529 0.0
C1199 C 0.92505 0.46926 0.7246 0.0
C1200 C 0.93502 0.47955 0.74565 0.0
C1201 C 0.93101 0.4913 0.7574 0.0
C1202 C 0.91706 0.49283 0.74806 0.0
C1203 C 0.90704 0.48255 0.72704 0.0
H1204 H 0.93874 0.49926 0.77369 0.0
H1205 H 0.84752 0.40125 0.56436 0.0
H1206 H 0.5044 0.89675 0.06403 0.0
H1207 H 0.48697 0.89364 0.02477 0.0
H1208 H 0.46383 0.91975 0.06499 0.0
H1209 H 0.48114 0.92283 0.10427 0.0
H1210 H 0.43993 0.89068 0.03586 0.0
H1211 H 0.4965 0.94211 0.02488 0.0
H1212 H 0.52844 0.95773 0.02242 0.0
H1213 H 0.52613 0.92557 0.95768 0.0
H1214 H 0.49415 0.90958 0.96003 0.0
H1215 H 0.40897 0.9246 0.94003 0.0
H1216 H 0.42492 0.92061 0.97582 0.0
H1217 H 0.44702 0.90002 0.92086 0.0
H1218 H 0.43102 0.90404 0.88471 0.0
H1219 H 0.47109 0.92211 0.95488 0.0
H1220 H 0.4148 0.87287 0.96179 0.0
H1221 H 0.38287 0.85667 0.96382 0.0
H1222 H 0.38427 0.88312 0.03535 0.0
H1223 H 0.41623 0.89969 0.03354 0.0
C1224 C 0.49537 0.90156 0.0646 0.0
C1225 C 0.49415 0.9101 0.0871 0.0
C1226 C 0.48552 0.89986 0.04216 0.0
C1227 C 0.47424 0.9066 0.04196 0.0
C1228 C 0.47248 0.91449 0.06477 0.0
C1229 C 0.48243 0.91633 0.0871 0.0
C1230 C 0.46487 0.90627 0.01767 0.0
C1231 C 0.4467 0.89761 0.01818 0.0
C1232 C 0.47376 0.91484 0.99436 0.0
C1233 C 0.49296 0.92452 0.99284 0.0
C1234 C 0.50281 0.93827 0.01027 0.0
C1235 C 0.52092 0.94721 0.00887 0.0
C1236 C 0.52931 0.94261 0.98996 0.0
C1237 C 0.51961 0.9291 0.97236 0.0
C1238 C 0.5015 0.9201 0.97371 0.0
C1239 C 0.41713 0.91911 0.93555 0.0
C1240 C 0.41859 0.91445 0.9096 0.0
C1241 C 0.42624 0.91682 0.95603 0.0
C1242 C 0.43688 0.90968 0.9511 0.0
C1243 C 0.43879 0.90546 0.92511 0.0
C1244 C 0.4297 0.90782 0.9045 0.0
C1245 C 0.44609 0.90688 0.97324 0.0
C1246 C 0.46424 0.91493 0.97236 0.0
C1247 C 0.43717 0.89761 0.99615 0.0
C1248 C 0.41793 0.88762 0.99742 0.0
C1249 C 0.40831 0.87534 0.97785 0.0
C1250 C 0.3902 0.86607 0.97898 0.0
C1251 C 0.38154 0.86889 0.99967 0.0
C1252 C 0.39099 0.88096 0.01932 0.0
C1253 C 0.40911 0.89028 0.01827 0.0
H1254 H 0.36752 0.86169 0.00051 0.0
H1255 H 0.54333 0.94955 0.9889 0.0
H1256 H 0.55883 0.49265 0.42765 0.0
H1257 H 0.5445 0.47297 0.39066 0.0
H1258 H 0.58905 0.46649 0.38053 0.0
H1259 H 0.60346 0.48622 0.41771 0.0
H1260 H 0.5781 0.47495 0.33395 0.0
H1261 H 0.55377 0.43338 0.40274 0.0
H1262 H 0.53941 0.42125 0.44527 0.0
H1263 H 0.49403 0.42211 0.41879 0.0
H1264 H 0.50821 0.4345 0.37622 0.0
H1265 H 0.53158 0.41417 0.23071 0.0
H1266 H 0.54837 0.42682 0.27108 0.0
H1267 H 0.50822 0.43616 0.30011 0.0
H1268 H 0.49121 0.42312 0.26038 0.0
H1269 H 0.51934 0.42302 0.33815 0.0
H1270 H 0.54529 0.46854 0.27263 0.0
H1271 H 0.55967 0.48142 0.23037 0.0
H1272 H 0.602 0.47354 0.25114 0.0
H1273 H 0.58774 0.46039 0.2934 0.0
C1274 C 0.56548 0.4869 0.41766 0.0
C1275 C 0.58222 0.49092 0.42546 0.0
C1276 C 0.55727 0.4756 0.39667 0.0
C1277 C 0.56569 0.46821 0.383 0.0
C1278 C 0.58233 0.47202 0.39094 0.0
C1279 C 0.59048 0.48318 0.4122 0.0
C1280 C 0.55738 0.45738 0.35945 0.0
C1281 C 0.56542 0.46335 0.33489 0.0
C1282 C 0.54074 0.44245 0.36074 0.0
C1283 C 0.53212 0.43499 0.38633 0.0
C1284 C 0.54078 0.43112 0.40605 0.0
C1285 C 0.53266 0.42417 0.43016 0.0
C1286 C 0.51583 0.42094 0.43475 0.0
C1287 C 0.50707 0.42462 0.41521 0.0
C1288 C 0.51514 0.43159 0.39107 0.0
C1289 C 0.52631 0.41883 0.24579 0.0
C1290 C 0.51015 0.41781 0.24223 0.0
C1291 C 0.53595 0.42613 0.26876 0.0
C1292 C 0.52959 0.43255 0.2885 0.0
C1293 C 0.51337 0.4313 0.28513 0.0
C1294 C 0.50376 0.42404 0.26225 0.0
C1295 C 0.53984 0.44087 0.31258 0.0
C1296 C 0.53216 0.43442 0.33725 0.0
C1297 C 0.55678 0.4554 0.31139 0.0
C1298 C 0.56535 0.46329 0.286 0.0
C1299 C 0.55759 0.46941 0.26807 0.0
C1300 C 0.56573 0.47679 0.24415 0.0
C1301 C 0.58171 0.47824 0.23803 0.0
C1302 C 0.5896 0.47237 0.25587 0.0
C1303 C 0.5815 0.46496 0.27982 0.0
H1304 H 0.588 0.48396 0.2195 0.0
H1305 H 0.50956 0.41555 0.45342 0.0
H1306 H 0.06287 0.50325 0.56389 0.0
H1307 H 0.06733 0.5219 0.6018 0.0
H1308 H 0.11699 0.52595 0.61633 0.0
H1309 H 0.11239 0.50689 0.5786 0.0
H1310 H 0.09778 0.51793 0.66069 0.0
H1311 H 0.11517 0.5607 0.59363 0.0
H1312 H 0.11316 0.57354 0.55166 0.0
H1313 H 0.0664 0.5716 0.57804 0.0
H1314 H 0.06797 0.5585 0.62005 0.0
H1315 H 0.11282 0.57818 0.76494 0.0
H1316 H 0.11619 0.56528 0.72432 0.0
H1317 H 0.06639 0.5562 0.69722 0.0
H1318 H 0.06319 0.56954 0.73726 0.0
H1319 H 0.09034 0.56953 0.65856 0.0
H1320 H 0.07138 0.52354 0.72312 0.0
H1321 H 0.07326 0.51041 0.76491 0.0
H1322 H 0.12337 0.51862 0.74276 0.0
H1323 H 0.12187 0.53201 0.70096 0.0
C1324 C 0.07479 0.50819 0.57507 0.0
C1325 C 0.08726 0.50357 0.56834 0.0
C1326 C 0.07739 0.51897 0.59659 0.0
C1327 C 0.09256 0.52544 0.61177 0.0
C1328 C 0.10522 0.52115 0.60481 0.0
C1329 C 0.10264 0.51038 0.58316 0.0
C1330 C 0.09454 0.53574 0.63583 0.0
C1331 C 0.09654 0.52945 0.66018 0.0
C1332 C 0.09263 0.55058 0.63518 0.0
C1333 C 0.09163 0.5585 0.60995 0.0
C1334 C 0.10438 0.56288 0.59042 0.0
C1335 C 0.10333 0.57023 0.56662 0.0
C1336 C 0.08964 0.57336 0.56216 0.0
C1337 C 0.07699 0.56917 0.58152 0.0
C1338 C 0.07797 0.5618 0.60535 0.0
C1339 C 0.10263 0.57351 0.75026 0.0
C1340 C 0.08768 0.57477 0.75442 0.0
C1341 C 0.10453 0.56605 0.72715 0.0
C1342 C 0.09148 0.55967 0.70784 0.0
C1343 C 0.07661 0.56103 0.71187 0.0
C1344 C 0.07471 0.56847 0.73492 0.0
C1345 C 0.09314 0.55147 0.6834 0.0
C1346 C 0.09184 0.55818 0.659 0.0
C1347 C 0.09571 0.53703 0.68399 0.0
C1348 C 0.0966 0.52895 0.70908 0.0
C1349 C 0.08286 0.52267 0.72727 0.0
C1350 C 0.08384 0.51516 0.75093 0.0
C1351 C 0.09845 0.51373 0.75653 0.0
C1352 C 0.11208 0.51976 0.73843 0.0
C1353 C 0.11116 0.52731 0.71474 0.0
H1354 H 0.09918 0.5079 0.77486 0.0
H1355 H 0.08886 0.57905 0.54373 0.0
H1356 H 0.34906 0.03037 0.09762 0.0
H1357 H 0.33716 0.01791 0.05453 0.0
H1358 H 0.35808 0.98363 0.06196 0.0
H1359 H 0.37095 0.99673 0.10408 0.0
H1360 H 0.36772 -0.00048 0.01781 0.0
H1361 H 0.31341 0.96886 0.06225 0.0
H1362 H 0.28941 0.96506 0.09095 0.0
H1363 H 0.27941 0.99739 0.03955 0.0
H1364 H 0.30352 0.00158 0.01072 0.0
H1365 H 0.31452 0.94575 0.90614 0.0
H1366 H 0.31309 0.95427 0.95137 0.0
H1367 H 0.34891 0.00761 0.93183 0.0
H1368 H 0.35025 -0.00075 0.88637 0.0
H1369 H 0.30877 0.97974 0.98229 0.0
H1370 H 0.38306 0.0187 0.97298 0.0
H1371 H 0.40583 0.01976 0.94395 0.0
H1372 H 0.37397 0.96543 0.92751 0.0
H1373 H 0.35123 0.96397 0.95692 0.0
C1374 C 0.35103 0.02009 0.0902 0.0
C1375 C 0.36118 0.01475 0.10431 0.0
C1376 C 0.34401 0.01281 0.06565 0.0
C1377 C 0.34673 -0.00017 0.05493 0.0
C1378 C 0.35586 0.99369 0.06976 0.0
C1379 C 0.36306 0.00108 0.0941 0.0
C1380 C 0.3418 0.994 0.02723 0.0
C1381 C 0.35478 0.99513 0.01024 0.0
C1382 C 0.3249 0.98815 0.01717 0.0
C1383 C 0.31038 0.98565 0.03444 0.0
C1384 C 0.30619 0.97527 0.05718 0.0
C1385 C 0.29255 0.97302 0.07345 0.0
C1386 C 0.28292 0.98101 0.06711 0.0
C1387 C 0.28689 0.99122 0.04445 0.0
C1388 C 0.30053 0.99352 0.02811 0.0
C1389 C 0.32148 0.95941 0.91108 0.0
C1390 C 0.3328 0.97181 0.8928 0.0
C1391 C 0.32062 0.96424 0.937 0.0
C1392 C 0.33111 0.9815 0.94495 0.0
C1393 C 0.34082 0.99419 0.92603 0.0
C1394 C 0.34167 0.98938 0.90013 0.0
C1395 C 0.33476 0.98561 0.97329 0.0
C1396 C 0.32163 0.98415 0.99019 0.0
C1397 C 0.35139 0.99072 0.98358 0.0
C1398 C 0.36538 0.99129 0.96691 0.0
C1399 C 0.38099 0.00696 0.96333 0.0
C1400 C 0.39388 0.00763 0.9468 0.0
C1401 C 0.39132 0.99269 0.93382 0.0
C1402 C 0.37593 0.977 0.93752 0.0
C1403 C 0.36304 0.97625 0.95413 0.0
H1404 H 0.40128 0.99325 0.92094 0.0
H1405 H 0.27236 0.97925 0.07973 0.0
H1406 H 0.35815 0.32186 0.23604 0.0
H1407 H 0.34414 0.31959 0.27862 0.0
H1408 H 0.37278 0.37523 0.28631 0.0
H1409 H 0.38724 0.37765 0.2446 0.0
H1410 H 0.36018 0.33087 0.32772 0.0
H1411 H 0.34711 0.38829 0.31469 0.0
H1412 H 0.33849 0.40147 0.27935 0.0
H1413 H 0.31385 0.35309 0.23753 0.0
H1414 H 0.32209 0.33953 0.27279 0.0
H1415 H 0.36676 0.37849 0.44192 0.0
H1416 H 0.3675 0.3651 0.40043 0.0
H1417 H 0.31281 0.34594 0.38949 0.0
H1418 H 0.31199 0.35935 0.43119 0.0
H1419 H 0.33031 0.36387 0.34824 0.0
H1420 H 0.32819 0.3176 0.39701 0.0
H1421 H 0.33578 0.30339 0.4321 0.0
H1422 H 0.38782 0.32666 0.40242 0.0
H1423 H 0.38063 0.34122 0.36737 0.0
C1424 C 0.36147 0.33363 0.24678 0.0
C1425 C 0.37381 0.34996 0.23672 0.0
C1426 C 0.3534 0.33228 0.27105 0.0
C1427 C 0.35733 0.34724 0.28546 0.0
C1428 C 0.36934 0.36353 0.27527 0.0
C1429 C 0.37752 0.36489 0.25124 0.0
C1430 C 0.34966 0.34609 0.31181 0.0
C1431 C 0.35346 0.33789 0.33225 0.0
C1432 C 0.34053 0.3549 0.31749 0.0
C1433 C 0.33531 0.36292 0.29636 0.0
C1434 C 0.33975 0.38042 0.29804 0.0
C1435 C 0.33496 0.38797 0.278 0.0
C1436 C 0.32565 0.37813 0.25619 0.0
C1437 C 0.32109 0.36071 0.2544 0.0
C1438 C 0.32585 0.35309 0.2744 0.0
C1439 C 0.35474 0.3709 0.4312 0.0
C1440 C 0.33932 0.37004 0.43978 0.0
C1441 C 0.35519 0.36324 0.40741 0.0
C1442 C 0.3402 0.35446 0.39184 0.0
C1443 C 0.32454 0.35268 0.40116 0.0
C1444 C 0.32409 0.36036 0.42495 0.0
C1445 C 0.34152 0.34931 0.36449 0.0
C1446 C 0.33662 0.35644 0.34378 0.0
C1447 C 0.34945 0.33934 0.35859 0.0
C1448 C 0.35387 0.33056 0.37959 0.0
C1449 C 0.34128 0.31978 0.39805 0.0
C1450 C 0.34551 0.31165 0.41793 0.0
C1451 C 0.36228 0.31414 0.4195 0.0
C1452 C 0.37484 0.32474 0.40117 0.0
C1453 C 0.37068 0.33291 0.38126 0.0
H1454 H 0.36552 0.30783 0.43491 0.0
H1455 H 0.32196 0.38401 0.24068 0.0
H1456 H 0.0246 0.34649 0.56177 0.0
H1457 H 0.01351 0.33911 0.60707 0.0
H1458 H 0.98792 0.36902 0.59785 0.0
H1459 H -0.00111 0.37649 0.55298 0.0
H1460 H 0.01488 0.37981 0.63901 0.0
H1461 H 0.96338 0.32941 0.60456 0.0
H1462 H 0.94806 0.30161 0.58073 0.0
H1463 H 0.96905 0.27934 0.63406 0.0
H1464 H 0.98471 0.30712 0.65799 0.0
H1465 H 0.96811 0.37622 0.74926 0.0
H1466 H 0.97719 0.37366 0.70509 0.0
H1467 H 0.98754 0.33373 0.73193 0.0
H1468 H 0.97803 0.33605 0.77662 0.0
H1469 H 0.97184 0.32577 0.68396 0.0
H1470 H 0.02108 0.37416 0.72105 0.0
H1471 H 0.03753 0.40168 0.74532 0.0
H1472 H 0.02331 0.42759 0.68753 0.0
H1473 H 0.00655 0.40018 0.66311 0.0
C1474 C 0.01618 0.35105 0.56919 0.0
C1475 C 0.01268 0.36211 0.55382 0.0
C1476 C 0.00985 0.3468 0.59499 0.0
C1477 C 1e-05 0.35363 0.60571 0.0
C1478 C 0.99547 0.36361 0.58981 0.0
C1479 C 0.00164 0.36773 0.56405 0.0
C1480 C 0.99654 0.35264 0.63432 0.0
C1481 C 0.00539 0.36803 0.64885 0.0
C1482 C 0.98481 0.33708 0.64724 0.0
C1483 C 0.9754 0.32041 0.63285 0.0
C1484 C 0.96489 0.31865 0.61103 0.0
C1485 C 0.9561 0.30288 0.59755 0.0
C1486 C 0.95763 0.28874 0.60582 0.0
C1487 C 0.96791 0.29032 0.62764 0.0
C1488 C 0.97673 0.30607 0.64118 0.0
C1489 C 0.97255 0.36705 0.7459 0.0
C1490 C 0.97279 0.35664 0.7665 0.0
C1491 C 0.97768 0.36555 0.72061 0.0
C1492 C 0.98343 0.3538 0.71533 0.0
C1493 C 0.98328 0.34299 0.73565 0.0
C1494 C 0.97793 0.34437 0.76111 0.0
C1495 C 0.98966 0.35315 0.68846 0.0
C1496 C 0.98151 0.33751 0.67427 0.0
C1497 C 0.0023 0.36847 0.6758 0.0
C1498 C 0.01247 0.38506 0.69032 0.0
C1499 C 0.02137 0.3857 0.7136 0.0
C1500 C 0.03076 0.40129 0.72737 0.0
C1501 C 0.03144 0.41637 0.71799 0.0
C1502 C 0.02277 0.4159 0.69477 0.0
C1503 C 0.01334 0.40034 0.68093 0.0
H1504 H 0.03872 0.42842 0.72868 0.0
H1505 H 0.95081 0.27654 0.59536 0.0
H1506 H 0.64809 0.96583 0.09665 0.0
H1507 H 0.66021 0.97776 0.05344 0.0
H1508 H 0.64131 0.01376 0.06013 0.0
H1509 H 0.62824 0.00121 0.10246 0.0
H1510 H 0.63071 0.9973 0.01654 0.0
H1511 H 0.68564 0.02698 0.05925 0.0
H1512 H 0.70965 0.03041 0.08762 0.0
H1513 H 0.71742 0.996 0.03757 0.0
H1514 H 0.69328 0.99217 0.00909 0.0
H1515 H 0.6829 0.04686 0.90177 0.0
H1516 H 0.68502 0.03926 0.94724 0.0
H1517 H 0.64744 0.98586 0.93112 0.0
H1518 H 0.64538 0.99329 0.88539 0.0
H1519 H 0.68862 0.01387 0.97969 0.0
H1520 H 0.6142 0.97725 0.97296 0.0
H1521 H 0.59144 0.97642 0.94414 0.0
H1522 H 0.62466 0.03002 0.92437 0.0
H1523 H 0.64744 0.03128 0.95354 0.0
C1524 C 0.64666 0.97641 0.08907 0.0
C1525 C 0.63695 0.98236 0.10297 0.0
C1526 C 0.6538 0.98338 0.06445 0.0
C1527 C 0.65165 0.99665 0.05345 0.0
C1528 C 0.64308 0.00347 0.06815 0.0
C1529 C 0.63576 0.99638 0.09259 0.0
C1530 C 0.6564 0.00195 0.02553 0.0
C1531 C 0.64344 0.00102 0.00868 0.0
C1532 C 0.67301 0.0069 0.01509 0.0
C1533 C 0.68755 0.00918 0.03215 0.0
C1534 C 0.69237 0.02003 0.05441 0.0
C1535 C 0.70602 0.02207 0.07049 0.0
C1536 C 0.71503 0.0134 0.06444 0.0
C1537 C 0.71042 0.0027 0.04225 0.0
C1538 C 0.69677 0.00061 0.02611 0.0
C1539 C 0.67568 0.03335 0.90746 0.0
C1540 C 0.66361 0.02073 0.89013 0.0
C1541 C 0.67694 0.02904 0.93354 0.0
C1542 C 0.66613 0.01209 0.94257 0.0
C1543 C 0.65576 -0.00094 0.92449 0.0
C1544 C 0.65451 0.00335 0.89843 0.0
C1545 C 0.66284 0.00883 0.97114 0.0
C1546 C 0.67598 0.01017 0.98789 0.0
C1547 C 0.64654 0.00468 0.98178 0.0
C1548 C 0.63259 0.00428 0.96519 0.0
C1549 C 0.61659 0.98889 0.96261 0.0
C1550 C 0.60369 0.98834 0.94621 0.0
C1551 C 0.60663 0.00314 0.93236 0.0
C1552 C 0.62242 0.01856 0.93506 0.0
C1553 C 0.63532 0.0192 0.95153 0.0
H1554 H 0.59667 0.00267 0.91958 0.0
H1555 H 0.72559 0.01499 0.07691 0.0
H1556 H 0.62319 0.62999 0.23318 0.0
H1557 H 0.63464 0.63055 0.277 0.0
H1558 H 0.6576 0.68616 0.27948 0.0
H1559 H 0.64613 0.68571 0.2354 0.0
H1560 H 0.66461 0.6447 0.30345 0.0
H1561 H 0.64911 0.69656 0.3408 0.0
H1562 H 0.63093 0.7092 0.32845 0.0
H1563 H 0.59474 0.66168 0.29014 0.0
H1564 H 0.61254 0.64869 0.30264 0.0
H1565 H 0.68254 0.6506 0.43955 0.0
H1566 H 0.68274 0.66228 0.39576 0.0
H1567 H 0.62685 0.63604 0.39647 0.0
H1568 H 0.6265 0.62418 0.43981 0.0
H1569 H 0.64013 0.66675 0.37107 0.0
H1570 H 0.64674 0.61624 0.37107 0.0
H1571 H 0.66078 0.59943 0.38366 0.0
H1572 H 0.70813 0.63745 0.34691 0.0
H1573 H 0.69442 0.65464 0.3345 0.0
C1574 C 0.63118 0.64243 0.24259 0.0
C1575 C 0.63361 0.6578 0.2309 0.0
C1576 C 0.63768 0.64271 0.26774 0.0
C1577 C 0.6467 0.65835 0.28169 0.0
C1578 C 0.65042 0.67391 0.26921 0.0
C1579 C 0.64386 0.67363 0.24405 0.0
C1580 C 0.65028 0.65795 0.31017 0.0
C1581 C 0.65952 0.6498 0.31822 0.0
C1582 C 0.64327 0.66421 0.32949 0.0
C1583 C 0.63228 0.67176 0.32235 0.0
C1584 C 0.63724 0.68881 0.32982 0.0
C1585 C 0.627 0.69603 0.3228 0.0
C1586 C 0.61173 0.68628 0.30843 0.0
C1587 C 0.6066 0.66924 0.30119 0.0
C1588 C 0.61676 0.66195 0.30823 0.0
C1589 C 0.67031 0.64761 0.43059 0.0
C1590 C 0.6545 0.63628 0.44308 0.0
C1591 C 0.67046 0.65432 0.40561 0.0
C1592 C 0.6548 0.64979 0.39271 0.0
C1593 C 0.63909 0.63973 0.40608 0.0
C1594 C 0.63892 0.633 0.43099 0.0
C1595 C 0.6545 0.65357 0.36432 0.0
C1596 C 0.64575 0.66222 0.35629 0.0
C1597 C 0.66144 0.64723 0.34501 0.0
C1598 C 0.66964 0.63683 0.35215 0.0
C1599 C 0.66019 0.62107 0.36585 0.0
C1600 C 0.66808 0.61147 0.37294 0.0
C1601 C 0.68536 0.61739 0.36616 0.0
C1602 C 0.69476 0.6329 0.3522 0.0
C1603 C 0.68694 0.64258 0.34514 0.0
H1604 H 0.69145 0.60994 0.37165 0.0
H1605 H 0.60385 0.6919 0.30297 0.0
H1606 H 0.01037 0.65364 0.78169 0.0
H1607 H -0.00078 0.6562 0.73868 0.0
H1608 H 0.0446 0.66036 0.70085 0.0
H1609 H 0.05612 0.6588 0.74386 0.0
H1610 H 0.0353 0.67888 0.67449 0.0
H1611 H 0.00529 0.6207 0.70856 0.0
H1612 H 0.98815 0.59775 0.74093 0.0
H1613 H 0.94663 0.60894 0.7345 0.0
H1614 H 0.96364 0.63214 0.70235 0.0
H1615 H -0.00196 0.62874 0.55698 0.0
H1616 H 0.01248 0.64235 0.59827 0.0
H1617 H 0.9706 0.65138 0.61821 0.0
H1618 H 0.95638 0.63853 0.57633 0.0
H1619 H 0.97678 0.6297 0.65396 0.0
H1620 H 0.00732 0.68507 0.6115 0.0
H1621 H 0.02546 0.70562 0.57695 0.0
H1622 H 0.06722 0.69656 0.59633 0.0
H1623 H 0.04924 0.67575 0.63075 0.0
C1624 C 0.01807 0.65551 0.76417 0.0
C1625 C 0.03404 0.65601 0.76591 0.0
C1626 C 0.01169 0.65687 0.73963 0.0
C1627 C 0.02087 0.65806 0.71641 0.0
C1628 C 0.03726 0.65946 0.7184 0.0
C1629 C 0.04383 0.65854 0.74296 0.0
C1630 C 0.01286 0.65624 0.69002 0.0
C1631 C 0.02251 0.66811 0.67 0.0
C1632 C 0.99609 0.64227 0.6841 0.0
C1633 C 0.98581 0.62829 0.70332 0.0
C1634 C 0.99255 0.61834 0.71419 0.0
C1635 C 0.98286 0.60529 0.73248 0.0
C1636 C 0.96634 0.60193 0.73983 0.0
C1637 C 0.95945 0.61159 0.72884 0.0
C1638 C 0.96911 0.62469 0.71059 0.0
C1639 C 0.9922 0.63425 0.56954 0.0
C1640 C 0.97589 0.6323 0.56343 0.0
C1641 C 0.00047 0.64196 0.59324 0.0
C1642 C 0.99254 0.64776 0.61128 0.0
C1643 C 0.97688 0.64692 0.60452 0.0
C1644 C 0.96872 0.63945 0.58066 0.0
C1645 C -0.00073 0.6522 0.63851 0.0
C1646 C 0.98939 0.64071 0.65863 0.0
C1647 C 0.01599 0.66617 0.64422 0.0
C1648 C 0.02687 0.67874 0.6236 0.0
C1649 C 0.02032 0.68734 0.60826 0.0
C1650 C 0.03058 0.69907 0.58872 0.0
C1651 C 0.04747 0.70237 0.58441 0.0
C1652 C 0.05414 0.69399 0.59968 0.0
C1653 C 0.04392 0.68224 0.61924 0.0
H1654 H 0.0554 0.71146 0.56927 0.0
H1655 H 0.95885 0.59181 0.75398 0.0
H1656 H 0.53512 0.9608 0.33343 0.0
H1657 H 0.51809 0.97312 0.35171 0.0
H1658 H 0.5278 0.00385 0.28131 0.0
H1659 H 0.5447 0.99182 0.2632 0.0
H1660 H 0.52729 0.02167 0.32166 0.0
H1661 H 0.49147 0.96282 0.28846 0.0
H1662 H 0.48104 0.93142 0.28789 0.0
H1663 H 0.46515 0.92742 0.36875 0.0
H1664 H 0.47572 0.95887 0.36985 0.0
H1665 H 0.44108 0.00422 0.27788 0.0
H1666 H 0.45817 0.99171 0.29341 0.0
H1667 H 0.47888 0.02935 0.35621 0.0
H1668 H 0.46164 0.0421 0.34063 0.0
H1669 H 0.46521 0.978 0.33472 0.0
H1670 H 0.52262 0.04528 0.35692 0.0
H1671 H 0.53221 0.07609 0.34841 0.0
H1672 H 0.50356 0.06225 0.27577 0.0
H1673 H 0.49405 0.03143 0.2837 0.0
C1674 C 0.53386 0.97043 0.32213 0.0
C1675 C 0.54125 0.97529 0.29683 0.0
C1676 C 0.52415 0.97747 0.3326 0.0
C1677 C 0.5215 0.98927 0.31776 0.0
C1678 C 0.52975 0.99487 0.29325 0.0
C1679 C 0.53949 0.98798 0.28291 0.0
C1680 C 0.50871 0.99447 0.32579 0.0
C1681 C 0.51378 0.01214 0.32517 0.0
C1682 C 0.49102 0.98206 0.33005 0.0
C1683 C 0.48457 0.96318 0.32935 0.0
C1684 C 0.48584 0.95524 0.30615 0.0
C1685 C 0.47991 0.93745 0.30573 0.0
C1686 C 0.47249 0.92744 0.3283 0.0
C1687 C 0.47095 0.9352 0.35131 0.0
C1688 C 0.47691 0.953 0.35185 0.0
C1689 C 0.44866 0.00945 0.29569 0.0
C1690 C 0.45014 0.02433 0.30782 0.0
C1691 C 0.4585 0.00225 0.30455 0.0
C1692 C 0.47006 0.00978 0.32567 0.0
C1693 C 0.47022 0.0235 0.33961 0.0
C1694 C 0.46041 0.03079 0.33065 0.0
C1695 C 0.48374 0.00512 0.32966 0.0
C1696 C 0.47884 0.98759 0.33254 0.0
C1697 C 0.5015 0.01758 0.32633 0.0
C1698 C 0.50746 0.03609 0.32111 0.0
C1699 C 0.51843 0.04885 0.33912 0.0
C1700 C 0.52385 0.0663 0.33438 0.0
C1701 C 0.51844 0.07111 0.31162 0.0
C1702 C 0.5077 0.0585 0.29344 0.0
C1703 C 0.50231 0.04106 0.29803 0.0
H1704 H 0.52262 0.08462 0.30803 0.0
H1705 H 0.4679 0.91366 0.32794 0.0
H1706 H 0.57444 0.50841 0.64155 0.0
H1707 H 0.54434 0.49083 0.65543 0.0
H1708 H 0.54038 0.53689 0.66347 0.0
H1709 H 0.57067 0.55469 0.65015 0.0
H1710 H 0.51656 0.48951 0.69429 0.0
H1711 H 0.51338 0.53174 0.61466 0.0
H1712 H 0.5321 0.55208 0.58015 0.0
H1713 H 0.55632 0.52132 0.56792 0.0
H1714 H 0.53752 0.50067 0.60193 0.0
H1715 H 0.42829 0.46811 0.65956 0.0
H1716 H 0.45838 0.48087 0.67472 0.0
H1717 H 0.46998 0.45821 0.60826 0.0
H1718 H 0.44027 0.44583 0.5927 0.0
H1719 H 0.49005 0.49366 0.61042 0.0
H1720 H 0.47154 0.44473 0.66825 0.0
H1721 H 0.45389 0.42444 0.70341 0.0
H1722 H 0.47267 0.46651 0.75869 0.0
H1723 H 0.49026 0.4871 0.72374 0.0
C1724 C 0.56753 0.51494 0.64772 0.0
C1725 C 0.57479 0.53292 0.64406 0.0
C1726 C 0.55028 0.50482 0.65575 0.0
C1727 C 0.54012 0.51256 0.66004 0.0
C1728 C 0.54805 0.5307 0.66015 0.0
C1729 C 0.5653 0.54083 0.65224 0.0
C1730 C 0.52114 0.50203 0.65648 0.0
C1731 C 0.51065 0.49045 0.67613 0.0
C1732 C 0.51359 0.50307 0.63253 0.0
C1733 C 0.52418 0.51479 0.61093 0.0
C1734 C 0.5226 0.52926 0.60439 0.0
C1735 C 0.53322 0.54084 0.58495 0.0
C1736 C 0.5454 0.53801 0.57187 0.0
C1737 C 0.54687 0.5235 0.57802 0.0
C1738 C 0.53624 0.51186 0.59737 0.0
C1739 C 0.43719 0.46558 0.64847 0.0
C1740 C 0.4319 0.45608 0.62478 0.0
C1741 C 0.45432 0.47276 0.65727 0.0
C1742 C 0.46639 0.47053 0.64252 0.0
C1743 C 0.46084 0.46007 0.61992 0.0
C1744 C 0.44378 0.45288 0.61116 0.0
C1745 C 0.48518 0.48096 0.64823 0.0
C1746 C 0.49575 0.49268 0.62879 0.0
C1747 C 0.49264 0.47984 0.67228 0.0
C1748 C 0.48207 0.46748 0.6933 0.0
C1749 C 0.47178 0.44968 0.68783 0.0
C1750 C 0.46182 0.43812 0.70774 0.0
C1751 C 0.46212 0.44419 0.73325 0.0
C1752 C 0.47243 0.46183 0.73891 0.0
C1753 C 0.48241 0.47345 0.71907 0.0
H1754 H 0.4544 0.43522 0.74864 0.0
H1755 H 0.55372 0.54709 0.55702 0.0
H1756 H 0.05233 0.57194 0.00416 0.0
H1757 H 0.03579 0.54311 0.02398 0.0
H1758 H 0.99062 0.53387 0.97967 0.0
H1759 H 0.00704 0.5623 0.95932 0.0
H1760 H 0.98278 0.51674 0.03037 0.0
H1761 H 0.01761 0.52525 0.95058 0.0
H1762 H 0.04545 0.53954 0.92663 0.0
H1763 H 0.06809 0.52208 0.98522 0.0
H1764 H 0.04044 0.50795 0.00977 0.0
H1765 H 0.93647 0.43606 0.9706 0.0
H1766 H 0.9521 0.46493 0.98945 0.0
H1767 H 0.99218 0.4549 0.01687 0.0
H1768 H 0.97664 0.42591 0.99721 0.0
H1769 H 0.00598 0.48208 0.9888 0.0
H1770 H 0.96743 0.46552 0.0606 0.0
H1771 H 0.93956 0.45146 0.08436 0.0
H1772 H 0.92366 0.48325 0.04297 0.0
H1773 H 0.95131 0.49734 0.01863 0.0
C1774 C 0.03875 0.56393 0.99913 0.0
C1775 C 0.03111 0.56931 0.97976 0.0
C1776 C 0.02929 0.54754 0.01066 0.0
C1777 C 0.01206 0.53633 0.00302 0.0
C1778 C 0.00388 0.54238 0.98592 0.0
C1779 C 0.01333 0.5587 0.97428 0.0
C1780 C 0.00371 0.51749 0.00817 0.0
C1781 C 0.98781 0.50905 0.02154 0.0
C1782 C 0.0106 0.50761 0.99723 0.0
C1783 C 0.02706 0.51574 0.98215 0.0
C1784 C 0.02856 0.52456 0.95842 0.0
C1785 C 0.0443 0.53263 0.94474 0.0
C1786 C 0.05854 0.53176 0.95443 0.0
C1787 C 0.05706 0.52278 0.97777 0.0
C1788 C 0.04137 0.51474 0.99158 0.0
C1789 C 0.94826 0.43971 0.98153 0.0
C1790 C 0.95537 0.42875 0.98232 0.0
C1791 C 0.95721 0.45628 0.99245 0.0
C1792 C 0.97333 0.46216 0.00479 0.0
C1793 C 0.97978 0.45069 0.00743 0.0
C1794 C 0.97092 0.43415 0.99619 0.0
C1795 C 0.98456 0.48095 0.01046 0.0
C1796 C 0.00107 0.48952 0.99878 0.0
C1797 C 0.97818 0.49085 0.02308 0.0
C1798 C 0.96149 0.48248 0.03772 0.0
C1799 C 0.95796 0.46945 0.05642 0.0
C1800 C 0.9422 0.46148 0.07002 0.0
C1801 C 0.92985 0.46646 0.06517 0.0
C1802 C 0.93325 0.47943 0.04673 0.0
C1803 C 0.94899 0.48744 0.03307 0.0
H1804 H 0.91765 0.46026 0.07571 0.0
H1805 H 0.07072 0.53802 0.94382 0.0
H1806 H 0.94681 0.5199 0.3448 0.0
H1807 H 0.959 0.50421 0.32165 0.0
H1808 H 0.00883 0.53782 0.35717 0.0
H1809 H 0.99669 0.55341 0.38028 0.0
H1810 H 0.01111 0.52539 0.30598 0.0
H1811 H 0.98111 0.50458 0.39114 0.0
H1812 H 0.95514 0.49475 0.41899 0.0
H1813 H 0.92534 0.45337 0.36464 0.0
H1814 H 0.9511 0.46322 0.33618 0.0
H1815 H 0.05481 0.4872 0.362 0.0
H1816 H 0.03999 0.50178 0.34499 0.0
H1817 H 0.99635 0.45251 0.32239 0.0
H1818 H 0.01122 0.43771 0.33971 0.0
H1819 H 0.98593 0.46888 0.35241 0.0
H1820 H 0.01997 0.48497 0.27544 0.0
H1821 H 0.04613 0.49551 0.24792 0.0
H1822 H 0.06851 0.54537 0.28524 0.0
H1823 H 0.0426 0.53508 0.31329 0.0
C1824 C 0.96053 0.52436 0.3467 0.0
C1825 C 0.97083 0.53769 0.36443 0.0
C1826 C 0.96747 0.51541 0.33352 0.0
C1827 C 0.98476 0.51976 0.33795 0.0
C1828 C 0.99548 0.5343 0.35342 0.0
C1829 C 0.98853 0.54312 0.36674 0.0
C1830 C 0.99079 0.50743 0.33153 0.0
C1831 C 0.00559 0.51294 0.31583 0.0
C1832 C 0.98323 0.491 0.34388 0.0
C1833 C 0.96794 0.48473 0.36142 0.0
C1834 C 0.96899 0.49343 0.38509 0.0
C1835 C 0.95432 0.48787 0.40097 0.0
C1836 C 0.93859 0.47347 0.39356 0.0
C1837 C 0.93753 0.46455 0.37032 0.0
C1838 C 0.95215 0.47013 0.3543 0.0
C1839 C 0.04236 0.47945 0.35248 0.0
C1840 C 0.03417 0.46126 0.35232 0.0
C1841 C 0.03387 0.48785 0.34267 0.0
C1842 C 0.01706 0.47829 0.33219 0.0
C1843 C 0.00931 0.46018 0.33036 0.0
C1844 C 0.0178 0.45173 0.34032 0.0
C1845 C 0.00679 0.48702 0.32746 0.0
C1846 C 0.99117 0.48091 0.3414 0.0
C1847 C 0.01364 0.50286 0.31342 0.0
C1848 C 0.0293 0.50921 0.29655 0.0
C1849 C 0.0305 0.49815 0.27791 0.0
C1850 C 0.04529 0.50409 0.26219 0.0
C1851 C 0.05898 0.52109 0.26483 0.0
C1852 C 0.05788 0.5322 0.28319 0.0
C1853 C 0.04312 0.52633 0.29897 0.0
H1854 H 0.07042 0.52566 0.25264 0.0
H1855 H 0.92723 0.46919 0.40586 0.0
H1856 H 0.41963 0.94657 0.66572 0.0
H1857 H 0.44979 0.95984 0.65073 0.0
H1858 H 0.46381 0.00322 0.70248 0.0
H1859 H 0.43412 0.99005 0.71802 0.0
H1860 H 0.48109 0.9972 0.63499 0.0
H1861 H 0.48892 0.99719 0.74671 0.0
H1862 H 0.47136 0.98191 0.78576 0.0
H1863 H 0.44133 0.93613 0.73926 0.0
H1864 H 0.45903 0.95099 0.70017 0.0
H1865 H 0.56698 0.05062 0.68139 0.0
H1866 H 0.53713 0.03468 0.66596 0.0
H1867 H 0.53298 0.98692 0.69356 0.0
H1868 H 0.5621 0.00285 0.71127 0.0
H1869 H 0.50931 0.99006 0.71467 0.0
H1870 H 0.52814 0.99526 0.62599 0.0
H1871 H 0.54493 0.00963 0.58599 0.0
H1872 H 0.52197 0.04205 0.58335 0.0
H1873 H 0.50522 0.02806 0.62355 0.0
C1874 C 0.42904 0.95921 0.67326 0.0
C1875 C 0.42451 0.96706 0.69347 0.0
C1876 C 0.4462 0.96686 0.66442 0.0
C1877 C 0.45896 0.98239 0.67574 0.0
C1878 C 0.45408 0.99124 0.69349 0.0
C1879 C 0.43701 0.98364 0.70234 0.0
C1880 C 0.4774 0.98721 0.67449 0.0
C1881 C 0.48739 0.99559 0.65219 0.0
C1882 C 0.48534 0.98458 0.69675 0.0
C1883 C 0.47518 0.97527 0.72048 0.0
C1884 C 0.47866 0.98382 0.7449 0.0
C1885 C 0.46868 0.97523 0.76703 0.0
C1886 C 0.45519 0.95808 0.76497 0.0
C1887 C 0.45175 0.94943 0.74082 0.0
C1888 C 0.46176 0.95793 0.71868 0.0
C1889 C 0.55979 0.03671 0.68407 0.0
C1890 C 0.56694 0.0282 0.69835 0.0
C1891 C 0.54276 0.02752 0.6747 0.0
C1892 C 0.53269 0.00955 0.67871 0.0
C1893 C 0.54042 0.0008 0.69041 0.0
C1894 C 0.55727 0.01 0.70033 0.0
C1895 C 0.51355 0.00051 0.67517 0.0
C1896 C 0.50327 0.9914 0.69693 0.0
C1897 C 0.50545 0.00219 0.65215 0.0
C1898 C 0.51548 0.01066 0.62792 0.0
C1899 C 0.52676 0.00554 0.61701 0.0
C1900 C 0.53626 0.01361 0.59427 0.0
C1901 C 0.53454 0.02676 0.58216 0.0
C1902 C 0.52329 0.03186 0.59274 0.0
C1903 C 0.51376 0.02384 0.61549 0.0
H1904 H 0.5419 0.03299 0.56456 0.0
H1905 H 0.44743 0.95147 0.7821 0.0
H1906 H 0.46861 0.42357 0.99468 0.0
H1907 H 0.48436 0.45356 0.97872 0.0
H1908 H 0.46369 0.46924 0.04326 0.0
H1909 H 0.44773 0.43951 0.05872 0.0
H1910 H 0.46865 0.48956 0.00338 0.0
H1911 H 0.50191 0.46768 0.04885 0.0
H1912 H 0.51332 0.44771 0.05445 0.0
H1913 H 0.53872 0.46331 0.97926 0.0
H1914 H 0.5272 0.4832 0.97307 0.0
H1915 H 0.54944 0.55924 0.0659 0.0
H1916 H 0.5334 0.52988 0.04923 0.0
H1917 H 0.51867 0.54791 0.98032 0.0
H1918 H 0.53496 0.57772 0.99698 0.0
H1919 H 0.53186 0.51105 0.00835 0.0
H1920 H 0.47553 0.51829 0.96864 0.0
H1921 H 0.46374 0.53809 0.97249 0.0
H1922 H 0.4844 0.55194 0.05089 0.0
H1923 H 0.49605 0.53204 0.04762 0.0
C1924 C 0.46706 0.43337 0.00494 0.0
C1925 C 0.45709 0.42921 0.02812 0.0
C1926 C 0.47606 0.45048 0.99583 0.0
C1927 C 0.47552 0.46373 0.01013 0.0
C1928 C 0.46433 0.45929 0.03184 0.0
C1929 C 0.45517 0.44221 0.04071 0.0
C1930 C 0.48835 0.48229 0.00544 0.0
C1931 C 0.48248 0.49425 0.00384 0.0
C1932 C 0.50642 0.48848 0.00652 0.0
C1933 C 0.51353 0.47673 0.01035 0.0
C1934 C 0.50986 0.46678 0.03347 0.0
C1935 C 0.51634 0.45547 0.03675 0.0
C1936 C 0.5267 0.45421 0.01719 0.0
C1937 C 0.53065 0.46428 0.99436 0.0
C1938 C 0.52414 0.47555 0.99094 0.0
C1939 C 0.54337 0.55718 0.04672 0.0
C1940 C 0.54345 0.5709 0.03286 0.0
C1941 C 0.53412 0.54028 0.03722 0.0
C1942 C 0.52464 0.53664 0.01369 0.0
C1943 C 0.52571 0.55041 0.99871 0.0
C1944 C 0.53499 0.56742 0.00828 0.0
C1945 C 0.51213 0.5183 0.00712 0.0
C1946 C 0.51806 0.50638 0.00662 0.0
C1947 C 0.49409 0.51215 0.00534 0.0
C1948 C 0.48686 0.52388 0.00771 0.0
C1949 C 0.4775 0.52554 0.9867 0.0
C1950 C 0.47084 0.53677 0.98879 0.0
C1951 C 0.47338 0.54632 0.01188 0.0
C1952 C 0.48249 0.54458 0.03299 0.0
C1953 C 0.48912 0.53333 0.03103 0.0
H1954 H 0.46825 0.55503 0.01343 0.0
H1955 H 0.53171 0.44545 0.01976 0.0
H1956 H 0.47359 0.29481 0.13273 0.0
H1957 H 0.47248 0.26752 0.14342 0.0
H1958 H 0.41656 0.24115 0.14273 0.0
H1959 H 0.41757 0.26852 0.13287 0.0
H1960 H 0.42853 0.23358 0.18636 0.0
H1961 H 0.43878 0.23485 0.09348 0.0
H1962 H 0.45373 0.24747 0.05147 0.0
H1963 H 0.50069 0.25192 0.08243 0.0
H1964 H 0.48608 0.23955 0.12477 0.0
H1965 H 0.41509 0.14782 0.19265 0.0
H1966 H 0.41552 0.17461 0.18074 0.0
H1967 H 0.47147 0.20194 0.18049 0.0
H1968 H 0.47113 0.17515 0.19242 0.0
H1969 H 0.45902 0.20873 0.13677 0.0
H1970 H 0.44899 0.20799 0.22984 0.0
H1971 H 0.43414 0.19552 0.27197 0.0
H1972 H 0.38687 0.19017 0.24072 0.0
H1973 H 0.40138 0.20241 0.19827 0.0
C1974 C 0.46105 0.28318 0.13472 0.0
C1975 C 0.44567 0.28382 0.13202 0.0
C1976 C 0.46044 0.26757 0.14062 0.0
C1977 C 0.44443 0.2523 0.14374 0.0
C1978 C 0.42904 0.2528 0.14038 0.0
C1979 C 0.42965 0.26841 0.13448 0.0
C1980 C 0.44376 0.23601 0.15194 0.0
C1981 C 0.43495 0.22797 0.17529 0.0
C1982 C 0.45255 0.229 0.13786 0.0
C1983 C 0.46137 0.23642 0.11239 0.0
C1984 C 0.45233 0.23865 0.09141 0.0
C1985 C 0.46074 0.24573 0.06752 0.0
C1986 C 0.47816 0.25053 0.06431 0.0
C1987 C 0.4872 0.24822 0.08496 0.0
C1988 C 0.47885 0.24115 0.1089 0.0
C1989 C 0.42749 0.15961 0.19058 0.0
C1990 C 0.44308 0.15939 0.1935 0.0
C1991 C 0.42771 0.1749 0.18369 0.0
C1992 C 0.44354 0.19028 0.17984 0.0
C1993 C 0.45912 0.19018 0.18326 0.0
C1994 C 0.45891 0.17489 0.19007 0.0
C1995 C 0.44382 0.20632 0.17123 0.0
C1996 C 0.45256 0.21431 0.1478 0.0
C1997 C 0.43498 0.2133 0.18525 0.0
C1998 C 0.42623 0.20596 0.21078 0.0
C1999 C 0.43539 0.20403 0.23188 0.0
C2000 C 0.42704 0.19702 0.25583 0.0
C2001 C 0.40956 0.19201 0.259 0.0
C2002 C 0.40041 0.19404 0.23823 0.0
C2003 C 0.40869 0.20102 0.21423 0.0
H2004 H 0.40312 0.18659 0.27756 0.0
H2005 H 0.48464 0.25601 0.0458 0.0
H2006 H 0.15091 0.41454 0.46716 0.0
H2007 H 0.17816 0.41778 0.48382 0.0
H2008 H 0.19854 0.47273 0.49327 0.0
H2009 H 0.17127 0.46959 0.47684 0.0
H2010 H 0.22298 0.46511 0.47409 0.0
H2011 H 0.18191 0.44702 0.54518 0.0
H2012 H 0.15379 0.42831 0.56682 0.0
H2013 H 0.16175 0.38472 0.56005 0.0
H2014 H 0.18981 0.40313 0.53797 0.0
H2015 H 0.2921 0.47992 0.55825 0.0
H2016 H 0.2649 0.47807 0.54424 0.0
H2017 H 0.24197 0.42284 0.53377 0.0
H2018 H 0.26909 0.4246 0.54748 0.0
H2019 H 0.2189 0.43149 0.55456 0.0
H2020 H 0.25915 0.44892 0.48225 0.0
H2021 H 0.28715 0.46721 0.46005 0.0
H2022 H 0.28067 0.5116 0.46867 0.0
H2023 H 0.25271 0.4936 0.49127 0.0
C2024 C 0.16125 0.42733 0.47259 0.0
C2025 C 0.15889 0.44178 0.47093 0.0
C2026 C 0.17679 0.42916 0.48209 0.0
C2027 C 0.19021 0.44544 0.49022 0.0
C2028 C 0.18829 0.46005 0.48716 0.0
C2029 C 0.17274 0.45824 0.47765 0.0
C2030 C 0.20585 0.44705 0.50317 0.0
C2031 C 0.22213 0.45796 0.49189 0.0
C2032 C 0.20465 0.43748 0.52615 0.0
C2033 C 0.18788 0.42642 0.5397 0.0
C2034 C 0.17761 0.43342 0.54813 0.0
C2035 C 0.16169 0.42287 0.5605 0.0
C2036 C 0.15597 0.40533 0.56476 0.0
C2037 C 0.16619 0.39831 0.55672 0.0
C2038 C 0.1821 0.4088 0.54429 0.0
C2039 C 0.28116 0.46736 0.55335 0.0
C2040 C 0.28275 0.45242 0.55387 0.0
C2041 C 0.26566 0.46632 0.54533 0.0
C2042 C 0.25155 0.45036 0.53756 0.0
C2043 C 0.25273 0.43528 0.53968 0.0
C2044 C 0.26821 0.4363 0.54769 0.0
C2045 C 0.23602 0.4495 0.52543 0.0
C2046 C 0.21976 0.43872 0.53685 0.0
C2047 C 0.23722 0.45915 0.50254 0.0
C2048 C 0.25393 0.46995 0.4887 0.0
C2049 C 0.26375 0.46261 0.47958 0.0
C2050 C 0.27961 0.47292 0.46692 0.0
C2051 C 0.28571 0.49057 0.46303 0.0
C2052 C 0.27594 0.49793 0.47174 0.0
C2053 C 0.26008 0.48768 0.48446 0.0
H2054 H 0.298 0.49853 0.45322 0.0
H2055 H 0.14364 0.39718 0.57434 0.0
H2056 H 0.70314 0.17311 0.80733 0.0
H2057 H 0.73058 0.19936 0.81714 0.0
H2058 H 0.75794 0.17125 0.80599 0.0
H2059 H 0.73044 0.14481 0.79669 0.0
H2060 H 0.76674 0.18922 0.85202 0.0
H2061 H 0.76229 0.20108 0.76146 0.0
H2062 H 0.74819 0.20414 0.7216 0.0
H2063 H 0.74264 0.24431 0.75911 0.0
H2064 H 0.75649 0.24133 0.79936 0.0
H2065 H 0.85022 0.26625 0.8611 0.0
H2066 H 0.82473 0.23885 0.84825 0.0
H2067 H 0.79286 0.26262 0.85446 0.0
H2068 H 0.81829 0.29002 0.86714 0.0
H2069 H 0.78774 0.24616 0.8085 0.0
H2070 H 0.79045 0.23302 0.89988 0.0
H2071 H 0.80427 0.22985 0.94001 0.0
H2072 H 0.81293 0.19204 0.90104 0.0
H2073 H 0.79936 0.19516 0.86054 0.0
C2074 C 0.71503 0.17258 0.80672 0.0
C2075 C 0.71467 0.15693 0.80129 0.0
C2076 C 0.7307 0.18759 0.81216 0.0
C2077 C 0.74629 0.18724 0.81217 0.0
C2078 C 0.74604 0.17176 0.80603 0.0
C2079 C 0.73036 0.15674 0.80049 0.0
C2080 C 0.76264 0.20281 0.82019 0.0
C2081 C 0.77154 0.20162 0.84222 0.0
C2082 C 0.76863 0.21902 0.80773 0.0
C2083 C 0.76031 0.22087 0.78352 0.0
C2084 C 0.75794 0.21047 0.7613 0.0
C2085 C 0.75001 0.21221 0.73861 0.0
C2086 C 0.74449 0.22438 0.73784 0.0
C2087 C 0.74691 0.23487 0.75974 0.0
C2088 C 0.75482 0.23318 0.78249 0.0
C2089 C 0.8377 0.2655 0.86027 0.0
C2090 C 0.83621 0.28025 0.86503 0.0
C2091 C 0.82317 0.24987 0.85285 0.0
C2092 C 0.80691 0.24872 0.85038 0.0
C2093 C 0.80532 0.26327 0.85606 0.0
C2094 C 0.81982 0.27889 0.86333 0.0
C2095 C 0.79168 0.23264 0.84062 0.0
C2096 C 0.78302 0.23374 0.8182 0.0
C2097 C 0.78591 0.21637 0.85276 0.0
C2098 C 0.79406 0.21447 0.87709 0.0
C2099 C 0.79544 0.22414 0.89979 0.0
C2100 C 0.8032 0.22233 0.92262 0.0
C2101 C 0.80952 0.21079 0.92305 0.0
C2102 C 0.80805 0.201 0.90067 0.0
C2103 C 0.80032 0.20277 0.87778 0.0
H2104 H 0.81552 0.2094 0.94074 0.0
H2105 H 0.73836 0.22571 0.72025 0.0
H2106 H 0.52721 0.70171 0.16259 0.0
H2107 H 0.52658 0.72779 0.17559 0.0
H2108 H 0.57122 0.75881 0.12669 0.0
H2109 H 0.57183 0.73273 0.11333 0.0
H2110 H 0.57539 0.77151 0.17648 0.0
H2111 H 0.53159 0.75169 0.109 0.0
H2112 H 0.50461 0.7306 0.08659 0.0
H2113 H 0.47521 0.72703 0.15577 0.0
H2114 H 0.50206 0.74794 0.17873 0.0
H2115 H 0.57724 0.8514 0.17577 0.0
H2116 H 0.57536 0.82389 0.16487 0.0
H2117 H 0.53039 0.79698 0.21484 0.0
H2118 H 0.53226 0.82465 0.22608 0.0
H2119 H 0.52544 0.78129 0.16731 0.0
H2120 H 0.5688 0.80177 0.23436 0.0
H2121 H 0.59563 0.82274 0.2572 0.0
H2122 H 0.62572 0.82475 0.18975 0.0
H2123 H 0.59903 0.80397 0.16634 0.0
C2124 C 0.53664 0.71402 0.15408 0.0
C2125 C 0.54959 0.71516 0.13693 0.0
C2126 C 0.5363 0.72892 0.16163 0.0
C2127 C 0.54884 0.74522 0.15208 0.0
C2128 C 0.56148 0.74635 0.13438 0.0
C2129 C 0.56182 0.73146 0.1268 0.0
C2130 C 0.5494 0.76119 0.16164 0.0
C2131 C 0.56456 0.77377 0.17417 0.0
C2132 C 0.53502 0.7638 0.15947 0.0
C2133 C 0.51886 0.75124 0.14568 0.0
C2134 C 0.51939 0.7463 0.11951 0.0
C2135 C 0.50412 0.7344 0.10669 0.0
C2136 C 0.48821 0.72744 0.11977 0.0
C2137 C 0.48754 0.73241 0.14567 0.0
C2138 C 0.50278 0.7443 0.15859 0.0
C2139 C 0.56716 0.8397 0.18493 0.0
C2140 C 0.555 0.84024 0.20203 0.0
C2141 C 0.56605 0.82396 0.17857 0.0
C2142 C 0.55285 0.80842 0.18927 0.0
C2143 C 0.54069 0.80885 0.2064 0.0
C2144 C 0.54177 0.82464 0.21278 0.0
C2145 C 0.55154 0.79173 0.18177 0.0
C2146 C 0.53625 0.77901 0.16973 0.0
C2147 C 0.56578 0.78893 0.18447 0.0
C2148 C 0.58188 0.80141 0.19851 0.0
C2149 C 0.58112 0.80678 0.22431 0.0
C2150 C 0.59631 0.81862 0.23738 0.0
C2151 C 0.61237 0.8251 0.22491 0.0
C2152 C 0.61327 0.81973 0.19937 0.0
C2153 C 0.59811 0.80791 0.18621 0.0
H2154 H 0.62411 0.83426 0.23506 0.0
H2155 H 0.4764 0.71824 0.10981 0.0
H2156 H 0.84494 0.57784 0.43258 0.0
H2157 H 0.81763 0.57652 0.44424 0.0
H2158 H 0.79771 0.52455 0.47378 0.0
H2159 H 0.82495 0.52577 0.46208 0.0
H2160 H 0.77239 0.5285 0.44954 0.0
H2161 H 0.81629 0.55771 0.51534 0.0
H2162 H 0.8452 0.57942 0.53173 0.0
H2163 H 0.83672 0.62045 0.50556 0.0
H2164 H 0.80786 0.59897 0.4886 0.0
H2165 H 0.70883 0.52764 0.53601 0.0
H2166 H 0.7342 0.52667 0.51968 0.0
H2167 H 0.75497 0.57818 0.48781 0.0
H2168 H 0.72959 0.57916 0.50351 0.0
H2169 H 0.7796 0.5738 0.51355 0.0
H2170 H 0.7353 0.54408 0.44794 0.0
H2171 H 0.70638 0.52203 0.43205 0.0
H2172 H 0.71545 0.48154 0.45903 0.0
H2173 H 0.74434 0.50337 0.47545 0.0
C2174 C 0.83461 0.56603 0.44112 0.0
C2175 C 0.83711 0.55197 0.44665 0.0
C2176 C 0.81905 0.56529 0.44779 0.0
C2177 C 0.80582 0.55057 0.46036 0.0
C2178 C 0.80779 0.53604 0.46415 0.0
C2179 C 0.82334 0.53674 0.45737 0.0
C2180 C 0.79065 0.5509 0.47162 0.0
C2181 C 0.77393 0.53828 0.46373 0.0
C2182 C 0.79272 0.56377 0.49 0.0
C2183 C 0.80998 0.57673 0.50047 0.0
C2184 C 0.82064 0.57136 0.51291 0.0
C2185 C 0.83701 0.58362 0.52232 0.0
C2186 C 0.84281 0.6013 0.51963 0.0
C2187 C 0.83222 0.60675 0.50759 0.0
C2188 C 0.81585 0.59454 0.49809 0.0
C2189 C 0.71879 0.53876 0.5255 0.0
C2190 C 0.71716 0.55347 0.52107 0.0
C2191 C 0.73327 0.53818 0.51622 0.0
C2192 C 0.74634 0.55228 0.50231 0.0
C2193 C 0.74502 0.56717 0.49855 0.0
C2194 C 0.73054 0.56774 0.50771 0.0
C2195 C 0.76133 0.55151 0.49128 0.0
C2196 C 0.77804 0.56403 0.49932 0.0
C2197 C 0.75922 0.53849 0.47319 0.0
C2198 C 0.74191 0.52536 0.46317 0.0
C2199 C 0.73107 0.53047 0.45068 0.0
C2200 C 0.7147 0.51802 0.44154 0.0
C2201 C 0.70906 0.5004 0.44459 0.0
C2202 C 0.71982 0.49519 0.45672 0.0
C2203 C 0.7362 0.5076 0.46593 0.0
H2204 H 0.69638 0.49077 0.43751 0.0
H2205 H 0.85549 0.61078 0.52693 0.0
H2206 H 0.15194 0.72331 0.86513 0.0
H2207 H 0.17789 0.75033 0.85264 0.0
H2208 H 0.20744 0.72397 0.85112 0.0
H2209 H 0.18154 0.69689 0.86406 0.0
H2210 H 0.2253 0.75685 0.87404 0.0
H2211 H 0.19278 0.73007 0.7952 0.0
H2212 H 0.16657 0.71674 0.76735 0.0
H2213 H 0.16422 0.7637 0.77039 0.0
H2214 H 0.19027 0.77723 0.79862 0.0
H2215 H 0.29715 0.81971 0.80331 0.0
H2216 H 0.27146 0.79199 0.81416 0.0
H2217 H 0.23982 0.8161 0.81005 0.0
H2218 H 0.26546 0.8438 0.79887 0.0
H2219 H 0.22303 0.784 0.78973 0.0
H2220 H 0.25477 0.81075 0.86885 0.0
H2221 H 0.28061 0.8244 0.89746 0.0
H2222 H 0.28402 0.778 0.89497 0.0
H2223 H 0.25833 0.76416 0.86599 0.0
C2224 C 0.16404 0.72334 0.86271 0.0
C2225 C 0.16472 0.70799 0.86548 0.0
C2226 C 0.1788 0.73874 0.85533 0.0
C2227 C 0.19447 0.73903 0.85059 0.0
C2228 C 0.19541 0.72394 0.85456 0.0
C2229 C 0.18062 0.70851 0.86182 0.0
C2230 C 0.20966 0.75491 0.84043 0.0
C2231 C 0.22491 0.76268 0.85545 0.0
C2232 C 0.20895 0.76265 0.81644 0.0
C2233 C 0.19338 0.75461 0.79923 0.0
C2234 C 0.1866 0.73751 0.7901 0.0
C2235 C 0.17178 0.72993 0.77422 0.0
C2236 C 0.16371 0.73935 0.76715 0.0
C2237 C 0.17047 0.75641 0.7759 0.0
C2238 C 0.18527 0.76405 0.79183 0.0
C2239 C 0.28467 0.81901 0.80442 0.0
C2240 C 0.28328 0.83389 0.80048 0.0
C2241 C 0.27003 0.80322 0.81067 0.0
C2242 C 0.25382 0.8021 0.81346 0.0
C2243 C 0.25224 0.81671 0.80808 0.0
C2244 C 0.26687 0.8325 0.80162 0.0
C2245 C 0.23871 0.78598 0.82334 0.0
C2246 C 0.22346 0.77816 0.80829 0.0
C2247 C 0.23939 0.77825 0.8474 0.0
C2248 C 0.25473 0.78648 0.86504 0.0
C2249 C 0.2611 0.8035 0.87425 0.0
C2250 C 0.27571 0.81127 0.89055 0.0
C2251 C 0.28398 0.80209 0.89797 0.0
C2252 C 0.27762 0.7851 0.88917 0.0
C2253 C 0.26303 0.77728 0.87282 0.0
H2254 H 0.29529 0.80812 0.91059 0.0
H2255 H 0.15224 0.73346 0.75486 0.0
loop_
_geom_bond_atom_site_label_1
_geom_bond_atom_site_label_2
_geom_bond_distance
_geom_bond_site_symmetry_2
_ccdc_geom_bond_type
Li0 N17 1.990 . S
Li0 O60 1.956 . S
Li0 O61 1.970 . S
Li0 O62 1.961 . S
Li1 N25 1.990 . S
Li1 O60 1.970 . S
Li1 O61 1.956 . S
Li1 O63 1.961 . S
Li2 N47 1.990 . S
Li2 O60 1.961 . S
Li2 O62 1.956 . S
Li2 O63 1.970 . S
Li3 N53 1.990 . S
Li3 O61 1.961 . S
Li3 O62 1.970 . S
Li3 O63 1.956 . S
C4 C6 1.348 . S
C4 C7 1.356 . S
C4 O60 1.325 . S
N5 C8 1.314 . S
N5 C9 1.279 . S
C6 C4 1.348 . S
C6 C8 1.353 . S
C6 H64 0.929 . S
C7 C4 1.356 . S
C7 C9 1.358 . S
C7 H65 0.930 . S
C8 N5 1.314 . S
C8 C6 1.353 . S
C8 H66 0.930 . S
C9 N5 1.279 . S
C9 C7 1.358 . S
C9 H67 0.930 . S
C10 C13 1.348 . S
C10 C14 1.356 . S
C10 O61 1.325 . S
C11 N12 1.279 . S
C11 C14 1.358 . S
C11 H68 0.930 . S
N12 C11 1.279 . S
N12 C15 1.314 . S
C13 C10 1.348 . S
C13 C15 1.353 . S
C13 H69 0.929 . S
C14 C10 1.356 . S
C14 C11 1.358 . S
C14 H70 0.930 . S
C15 N12 1.314 . S
C15 C13 1.353 . S
C15 H71 0.930 . S
C16 N17 1.314 . S
C16 C21 1.353 . S
C16 H22 0.930 . S
N17 Li0 1.990 . S
N17 C16 1.314 . S
N17 C19 1.279 . S
C18 C19 1.358 . S
C18 C20 1.356 . S
C18 H72 0.930 . S
C19 N17 1.279 . S
C19 C18 1.358 . S
C19 H23 0.930 . S
C20 C18 1.356 . S
C20 C21 1.348 . S
C21 C16 1.353 . S
C21 C20 1.348 . S
C21 H73 0.929 . S
H22 C16 0.930 . S
H23 C19 0.930 . S
C24 N25 1.314 . S
C24 C26 1.353 . S
C24 H30 0.930 . S
N25 Li1 1.990 . S
N25 C24 1.314 . S
N25 C28 1.279 . S
C26 C24 1.353 . S
C26 C29 1.348 . S
C26 H74 0.929 . S
C27 C28 1.358 . S
C27 C29 1.356 . S
C27 H75 0.930 . S
C28 N25 1.279 . S
C28 C27 1.358 . S
C28 H31 0.930 . S
C29 C26 1.348 . S
C29 C27 1.356 . S
H30 C24 0.930 . S
H31 C28 0.930 . S
C32 C34 1.348 . S
C32 C35 1.356 . S
C32 O62 1.325 . S
N33 C36 1.314 . S
N33 C37 1.279 . S
C34 C32 1.348 . S
C34 C36 1.353 . S
C34 H76 0.929 . S
C35 C32 1.356 . S
C35 C37 1.358 . S
C35 H77 0.930 . S
C36 N33 1.314 . S
C36 C34 1.353 . S
C36 H78 0.930 . S
C37 N33 1.279 . S
C37 C35 1.358 . S
C37 H79 0.930 . S
C38 C39 1.348 . S
C38 C40 1.356 . S
C38 O63 1.325 . S
C39 C38 1.348 . S
C39 C41 1.353 . S
C39 H80 0.929 . S
C40 C38 1.356 . S
C40 C42 1.358 . S
C40 H81 0.930 . S
C41 C39 1.353 . S
C41 N43 1.314 . S
C41 H82 0.930 . S
C42 C40 1.358 . S
C42 N43 1.279 . S
C42 H83 0.930 . S
N43 C41 1.314 . S
N43 C42 1.279 . S
C44 C46 1.353 . S
C44 N47 1.314 . S
C44 H50 0.930 . S
C45 N47 1.279 . S
C45 C48 1.358 . S
C45 H51 0.930 . S
C46 C44 1.353 . S
C46 C49 1.348 . S
C46 H84 0.929 . S
N47 Li2 1.990 . S
N47 C44 1.314 . S
N47 C45 1.279 . S
C48 C45 1.358 . S
C48 C49 1.356 . S
C48 H85 0.930 . S
C49 C46 1.348 . S
C49 C48 1.356 . S
H50 C44 0.930 . S
H51 C45 0.930 . S
C52 N53 1.314 . S
C52 C54 1.353 . S
C52 H58 0.930 . S
N53 Li3 1.990 . S
N53 C52 1.314 . S
N53 C56 1.279 . S
C54 C52 1.353 . S
C54 C57 1.348 . S
C54 H86 0.929 . S
C55 C56 1.358 . S
C55 C57 1.356 . S
C55 H87 0.930 . S
C56 N53 1.279 . S
C56 C55 1.358 . S
C56 H59 0.930 . S
C57 C54 1.348 . S
C57 C55 1.356 . S
H58 C52 0.930 . S
H59 C56 0.930 . S
O60 Li0 1.956 . S
O60 Li1 1.970 . S
O60 Li2 1.961 . S
O60 C4 1.325 . S
O61 Li0 1.970 . S
O61 Li1 1.956 . S
O61 Li3 1.961 . S
O61 C10 1.325 . S
O62 Li0 1.961 . S
O62 Li2 1.956 . S
O62 Li3 1.970 . S
O62 C32 1.325 . S
O63 Li1 1.961 . S
O63 Li2 1.970 . S
O63 Li3 1.956 . S
O63 C38 1.325 . S
H64 C6 0.929 . S
H65 C7 0.930 . S
H66 C8 0.930 . S
H67 C9 0.930 . S
H68 C11 0.930 . S
H69 C13 0.929 . S
H70 C14 0.930 . S
H71 C15 0.930 . S
H72 C18 0.930 . S
H73 C21 0.929 . S
H74 C26 0.929 . S
H75 C27 0.930 . S
H76 C34 0.929 . S
H77 C35 0.930 . S
H78 C36 0.930 . S
H79 C37 0.930 . S
H80 C39 0.929 . S
H81 C40 0.930 . S
H82 C41 0.930 . S
H83 C42 0.930 . S
H84 C46 0.929 . S
H85 C48 0.930 . S
H86 C54 0.929 . S
H87 C55 0.930 . S
Li88 N105 1.990 . S
Li88 O148 1.956 . S
Li88 O149 1.970 . S
Li88 O150 1.961 . S
Li89 N113 1.990 . S
Li89 O148 1.970 . S
Li89 O149 1.956 . S
Li89 O151 1.961 . S
Li90 N135 1.990 . S
Li90 O148 1.961 . S
Li90 O150 1.956 . S
Li90 O151 1.970 . S
Li91 N141 1.990 . S
Li91 O149 1.961 . S
Li91 O150 1.970 . S
Li91 O151 1.956 . S
C92 C94 1.348 . S
C92 C95 1.356 . S
C92 O148 1.325 . S
N93 C96 1.314 . S
N93 C97 1.279 . S
C94 C92 1.348 . S
C94 C96 1.353 . S
C94 H152 0.929 . S
C95 C92 1.356 . S
C95 C97 1.358 . S
C95 H153 0.930 . S
C96 N93 1.314 . S
C96 C94 1.353 . S
C96 H154 0.930 . S
C97 N93 1.279 . S
C97 C95 1.358 . S
C97 H155 0.930 . S
C98 C101 1.348 . S
C98 C102 1.356 . S
C98 O149 1.325 . S
C99 N100 1.279 . S
C99 C102 1.358 . S
C99 H156 0.930 . S
N100 C99 1.279 . S
N100 C103 1.314 . S
C101 C98 1.348 . S
C101 C103 1.353 . S
C101 H157 0.929 . S
C102 C98 1.356 . S
C102 C99 1.358 . S
C102 H158 0.930 . S
C103 N100 1.314 . S
C103 C101 1.353 . S
C103 H159 0.930 . S
C104 N105 1.314 . S
C104 C109 1.353 . S
C104 H110 0.930 . S
N105 Li88 1.990 . S
N105 C104 1.314 . S
N105 C107 1.279 . S
C106 C107 1.358 . S
C106 C108 1.356 . S
C106 H160 0.930 . S
C107 N105 1.279 . S
C107 C106 1.358 . S
C107 H111 0.930 . S
C108 C106 1.356 . S
C108 C109 1.348 . S
C109 C104 1.353 . S
C109 C108 1.348 . S
C109 H161 0.929 . S
H110 C104 0.930 . S
H111 C107 0.930 . S
C112 N113 1.314 . S
C112 C114 1.353 . S
C112 H118 0.930 . S
N113 Li89 1.990 . S
N113 C112 1.314 . S
N113 C116 1.279 . S
C114 C112 1.353 . S
C114 C117 1.348 . S
C114 H162 0.929 . S
C115 C116 1.358 . S
C115 C117 1.356 . S
C115 H163 0.930 . S
C116 N113 1.279 . S
C116 C115 1.358 . S
C116 H119 0.930 . S
C117 C114 1.348 . S
C117 C115 1.356 . S
H118 C112 0.930 . S
H119 C116 0.930 . S
C120 C122 1.348 . S
C120 C123 1.356 . S
C120 O150 1.325 . S
N121 C124 1.314 . S
N121 C125 1.279 . S
C122 C120 1.348 . S
C122 C124 1.353 . S
C122 H164 0.929 . S
C123 C120 1.356 . S
C123 C125 1.358 . S
C123 H165 0.930 . S
C124 N121 1.314 . S
C124 C122 1.353 . S
C124 H166 0.930 . S
C125 N121 1.279 . S
C125 C123 1.358 . S
C125 H167 0.930 . S
C126 C127 1.348 . S
C126 C128 1.356 . S
C126 O151 1.325 . S
C127 C126 1.348 . S
C127 C129 1.353 . S
C127 H168 0.929 . S
C128 C126 1.356 . S
C128 C130 1.358 . S
C128 H169 0.930 . S
C129 C127 1.353 . S
C129 N131 1.314 . S
C129 H170 0.930 . S
C130 C128 1.358 . S
C130 N131 1.279 . S
C130 H171 0.930 . S
N131 C129 1.314 . S
N131 C130 1.279 . S
C132 C134 1.353 . S
C132 N135 1.314 . S
C132 H138 0.930 . S
C133 N135 1.279 . S
C133 C136 1.358 . S
C133 H139 0.930 . S
C134 C132 1.353 . S
C134 C137 1.348 . S
C134 H172 0.929 . S
N135 Li90 1.990 . S
N135 C132 1.314 . S
N135 C133 1.279 . S
C136 C133 1.358 . S
C136 C137 1.356 . S
C136 H173 0.930 . S
C137 C134 1.348 . S
C137 C136 1.356 . S
H138 C132 0.930 . S
H139 C133 0.930 . S
C140 N141 1.314 . S
C140 C142 1.353 . S
C140 H146 0.930 . S
N141 Li91 1.990 . S
N141 C140 1.314 . S
N141 C144 1.279 . S
C142 C140 1.353 . S
C142 C145 1.348 . S
C142 H174 0.929 . S
C143 C144 1.358 . S
C143 C145 1.356 . S
C143 H175 0.930 . S
C144 N141 1.279 . S
C144 C143 1.358 . S
C144 H147 0.930 . S
C145 C142 1.348 . S
C145 C143 1.356 . S
H146 C140 0.930 . S
H147 C144 0.930 . S
O148 Li88 1.956 . S
O148 Li89 1.970 . S
O148 Li90 1.961 . S
O148 C92 1.325 . S
O149 Li88 1.970 . S
O149 Li89 1.956 . S
O149 Li91 1.961 . S
O149 C98 1.325 . S
O150 Li88 1.961 . S
O150 Li90 1.956 . S
O150 Li91 1.970 . S
O150 C120 1.325 . S
O151 Li89 1.961 . S
O151 Li90 1.970 . S
O151 Li91 1.956 . S
O151 C126 1.325 . S
H152 C94 0.929 . S
H153 C95 0.930 . S
H154 C96 0.930 . S
H155 C97 0.930 . S
H156 C99 0.930 . S
H157 C101 0.929 . S
H158 C102 0.930 . S
H159 C103 0.930 . S
H160 C106 0.930 . S
H161 C109 0.929 . S
H162 C114 0.929 . S
H163 C115 0.930 . S
H164 C122 0.929 . S
H165 C123 0.930 . S
H166 C124 0.930 . S
H167 C125 0.930 . S
H168 C127 0.929 . S
H169 C128 0.930 . S
H170 C129 0.930 . S
H171 C130 0.930 . S
H172 C134 0.929 . S
H173 C136 0.930 . S
H174 C142 0.929 . S
H175 C143 0.930 . S
Li176 N193 1.990 . S
Li176 O236 1.956 . S
Li176 O237 1.970 . S
Li176 O238 1.961 . S
Li177 N201 1.990 . S
Li177 O236 1.970 . S
Li177 O237 1.956 . S
Li177 O239 1.961 . S
Li178 N223 1.990 . S
Li178 O236 1.961 . S
Li178 O238 1.956 . S
Li178 O239 1.970 . S
Li179 N229 1.990 . S
Li179 O237 1.961 . S
Li179 O238 1.970 . S
Li179 O239 1.956 . S
C180 C182 1.348 . S
C180 C183 1.356 . S
C180 O236 1.325 . S
N181 C184 1.314 . S
N181 C185 1.279 . S
C182 C180 1.348 . S
C182 C184 1.353 . S
C182 H240 0.929 . S
C183 C180 1.356 . S
C183 C185 1.358 . S
C183 H241 0.930 . S
C184 N181 1.314 . S
C184 C182 1.353 . S
C184 H242 0.930 . S
C185 N181 1.279 . S
C185 C183 1.358 . S
C185 H243 0.930 . S
C186 C189 1.348 . S
C186 C190 1.356 . S
C186 O237 1.325 . S
C187 N188 1.279 . S
C187 C190 1.358 . S
C187 H244 0.930 . S
N188 C187 1.279 . S
N188 C191 1.314 . S
C189 C186 1.348 . S
C189 C191 1.353 . S
C189 H245 0.929 . S
C190 C186 1.356 . S
C190 C187 1.358 . S
C190 H246 0.930 . S
C191 N188 1.314 . S
C191 C189 1.353 . S
C191 H247 0.930 . S
C192 N193 1.314 . S
C192 C197 1.353 . S
C192 H198 0.930 . S
N193 Li176 1.990 . S
N193 C192 1.314 . S
N193 C195 1.279 . S
C194 C195 1.358 . S
C194 C196 1.356 . S
C194 H248 0.930 . S
C195 N193 1.279 . S
C195 C194 1.358 . S
C195 H199 0.930 . S
C196 C194 1.356 . S
C196 C197 1.348 . S
C197 C192 1.353 . S
C197 C196 1.348 . S
C197 H249 0.929 . S
H198 C192 0.930 . S
H199 C195 0.930 . S
C200 N201 1.314 . S
C200 C202 1.353 . S
C200 H206 0.930 . S
N201 Li177 1.990 . S
N201 C200 1.314 . S
N201 C204 1.279 . S
C202 C200 1.353 . S
C202 C205 1.348 . S
C202 H250 0.929 . S
C203 C204 1.358 . S
C203 C205 1.356 . S
C203 H251 0.930 . S
C204 N201 1.279 . S
C204 C203 1.358 . S
C204 H207 0.930 . S
C205 C202 1.348 . S
C205 C203 1.356 . S
H206 C200 0.930 . S
H207 C204 0.930 . S
C208 C210 1.348 . S
C208 C211 1.356 . S
C208 O238 1.325 . S
N209 C212 1.314 . S
N209 C213 1.279 . S
C210 C208 1.348 . S
C210 C212 1.353 . S
C210 H252 0.929 . S
C211 C208 1.356 . S
C211 C213 1.358 . S
C211 H253 0.930 . S
C212 N209 1.314 . S
C212 C210 1.353 . S
C212 H254 0.930 . S
C213 N209 1.279 . S
C213 C211 1.358 . S
C213 H255 0.930 . S
C214 C215 1.348 . S
C214 C216 1.356 . S
C214 O239 1.325 . S
C215 C214 1.348 . S
C215 C217 1.353 . S
C215 H256 0.929 . S
C216 C214 1.356 . S
C216 C218 1.358 . S
C216 H257 0.930 . S
C217 C215 1.353 . S
C217 N219 1.314 . S
C217 H258 0.930 . S
C218 C216 1.358 . S
C218 N219 1.279 . S
C218 H259 0.930 . S
N219 C217 1.314 . S
N219 C218 1.279 . S
C220 C222 1.353 . S
C220 N223 1.314 . S
C220 H226 0.930 . S
C221 N223 1.279 . S
C221 C224 1.358 . S
C221 H227 0.930 . S
C222 C220 1.353 . S
C222 C225 1.348 . S
C222 H260 0.929 . S
N223 Li178 1.990 . S
N223 C220 1.314 . S
N223 C221 1.279 . S
C224 C221 1.358 . S
C224 C225 1.356 . S
C224 H261 0.930 . S
C225 C222 1.348 . S
C225 C224 1.356 . S
H226 C220 0.930 . S
H227 C221 0.930 . S
C228 N229 1.314 . S
C228 C230 1.353 . S
C228 H234 0.930 . S
N229 Li179 1.990 . S
N229 C228 1.314 . S
N229 C232 1.279 . S
C230 C228 1.353 . S
C230 C233 1.348 . S
C230 H262 0.929 . S
C231 C232 1.358 . S
C231 C233 1.356 . S
C231 H263 0.930 . S
C232 N229 1.279 . S
C232 C231 1.358 . S
C232 H235 0.930 . S
C233 C230 1.348 . S
C233 C231 1.356 . S
H234 C228 0.930 . S
H235 C232 0.930 . S
O236 Li176 1.956 . S
O236 Li177 1.970 . S
O236 Li178 1.961 . S
O236 C180 1.325 . S
O237 Li176 1.970 . S
O237 Li177 1.956 . S
O237 Li179 1.961 . S
O237 C186 1.325 . S
O238 Li176 1.961 . S
O238 Li178 1.956 . S
O238 Li179 1.970 . S
O238 C208 1.325 . S
O239 Li177 1.961 . S
O239 Li178 1.970 . S
O239 Li179 1.956 . S
O239 C214 1.325 . S
H240 C182 0.929 . S
H241 C183 0.930 . S
H242 C184 0.930 . S
H243 C185 0.930 . S
H244 C187 0.930 . S
H245 C189 0.929 . S
H246 C190 0.930 . S
H247 C191 0.930 . S
H248 C194 0.930 . S
H249 C197 0.929 . S
H250 C202 0.929 . S
H251 C203 0.930 . S
H252 C210 0.929 . S
H253 C211 0.930 . S
H254 C212 0.930 . S
H255 C213 0.930 . S
H256 C215 0.929 . S
H257 C216 0.930 . S
H258 C217 0.930 . S
H259 C218 0.930 . S
H260 C222 0.929 . S
H261 C224 0.930 . S
H262 C230 0.929 . S
H263 C231 0.930 . S
Li264 N281 1.990 . S
Li264 O324 1.956 . S
Li264 O325 1.970 . S
Li264 O326 1.961 . S
Li265 N289 1.990 . S
Li265 O324 1.970 . S
Li265 O325 1.956 . S
Li265 O327 1.961 . S
Li266 N311 1.990 . S
Li266 O324 1.961 . S
Li266 O326 1.956 . S
Li266 O327 1.970 . S
Li267 N317 1.990 . S
Li267 O325 1.961 . S
Li267 O326 1.970 . S
Li267 O327 1.956 . S
C268 C270 1.348 . S
C268 C271 1.356 . S
C268 O324 1.325 . S
N269 C272 1.314 . S
N269 C273 1.279 . S
C270 C268 1.348 . S
C270 C272 1.353 . S
C270 H328 0.929 . S
C271 C268 1.356 . S
C271 C273 1.358 . S
C271 H329 0.930 . S
C272 N269 1.314 . S
C272 C270 1.353 . S
C272 H330 0.930 . S
C273 N269 1.279 . S
C273 C271 1.358 . S
C273 H331 0.930 . S
C274 C277 1.348 . S
C274 C278 1.356 . S
C274 O325 1.325 . S
C275 N276 1.279 . S
C275 C278 1.358 . S
C275 H332 0.930 . S
N276 C275 1.279 . S
N276 C279 1.314 . S
C277 C274 1.348 . S
C277 C279 1.353 . S
C277 H333 0.929 . S
C278 C274 1.356 . S
C278 C275 1.358 . S
C278 H334 0.930 . S
C279 N276 1.314 . S
C279 C277 1.353 . S
C279 H335 0.930 . S
C280 N281 1.314 . S
C280 C285 1.353 . S
C280 H286 0.930 . S
N281 Li264 1.990 . S
N281 C280 1.314 . S
N281 C283 1.279 . S
C282 C283 1.358 . S
C282 C284 1.356 . S
C282 H336 0.930 . S
C283 N281 1.279 . S
C283 C282 1.358 . S
C283 H287 0.930 . S
C284 C282 1.356 . S
C284 C285 1.348 . S
C285 C280 1.353 . S
C285 C284 1.348 . S
C285 H337 0.929 . S
H286 C280 0.930 . S
H287 C283 0.930 . S
C288 N289 1.314 . S
C288 C290 1.353 . S
C288 H294 0.930 . S
N289 Li265 1.990 . S
N289 C288 1.314 . S
N289 C292 1.279 . S
C290 C288 1.353 . S
C290 C293 1.348 . S
C290 H338 0.929 . S
C291 C292 1.358 . S
C291 C293 1.356 . S
C291 H339 0.930 . S
C292 N289 1.279 . S
C292 C291 1.358 . S
C292 H295 0.930 . S
C293 C290 1.348 . S
C293 C291 1.356 . S
H294 C288 0.930 . S
H295 C292 0.930 . S
C296 C298 1.348 . S
C296 C299 1.356 . S
C296 O326 1.325 . S
N297 C300 1.314 . S
N297 C301 1.279 . S
C298 C296 1.348 . S
C298 C300 1.353 . S
C298 H340 0.929 . S
C299 C296 1.356 . S
C299 C301 1.358 . S
C299 H341 0.930 . S
C300 N297 1.314 . S
C300 C298 1.353 . S
C300 H342 0.930 . S
C301 N297 1.279 . S
C301 C299 1.358 . S
C301 H343 0.930 . S
C302 C303 1.348 . S
C302 C304 1.356 . S
C302 O327 1.325 . S
C303 C302 1.348 . S
C303 C305 1.353 . S
C303 H344 0.929 . S
C304 C302 1.356 . S
C304 C306 1.358 . S
C304 H345 0.930 . S
C305 C303 1.353 . S
C305 N307 1.314 . S
C305 H346 0.930 . S
C306 C304 1.358 . S
C306 N307 1.279 . S
C306 H347 0.930 . S
N307 C305 1.314 . S
N307 C306 1.279 . S
C308 C310 1.353 . S
C308 N311 1.314 . S
C308 H314 0.930 . S
C309 N311 1.279 . S
C309 C312 1.358 . S
C309 H315 0.930 . S
C310 C308 1.353 . S
C310 C313 1.348 . S
C310 H348 0.929 . S
N311 Li266 1.990 . S
N311 C308 1.314 . S
N311 C309 1.279 . S
C312 C309 1.358 . S
C312 C313 1.356 . S
C312 H349 0.930 . S
C313 C310 1.348 . S
C313 C312 1.356 . S
H314 C308 0.930 . S
H315 C309 0.930 . S
C316 N317 1.314 . S
C316 C318 1.353 . S
C316 H322 0.930 . S
N317 Li267 1.990 . S
N317 C316 1.314 . S
N317 C320 1.279 . S
C318 C316 1.353 . S
C318 C321 1.348 . S
C318 H350 0.929 . S
C319 C320 1.358 . S
C319 C321 1.356 . S
C319 H351 0.930 . S
C320 N317 1.279 . S
C320 C319 1.358 . S
C320 H323 0.930 . S
C321 C318 1.348 . S
C321 C319 1.356 . S
H322 C316 0.930 . S
H323 C320 0.930 . S
O324 Li264 1.956 . S
O324 Li265 1.970 . S
O324 Li266 1.961 . S
O324 C268 1.325 . S
O325 Li264 1.970 . S
O325 Li265 1.956 . S
O325 Li267 1.961 . S
O325 C274 1.325 . S
O326 Li264 1.961 . S
O326 Li266 1.956 . S
O326 Li267 1.970 . S
O326 C296 1.325 . S
O327 Li265 1.961 . S
O327 Li266 1.970 . S
O327 Li267 1.956 . S
O327 C302 1.325 . S
H328 C270 0.929 . S
H329 C271 0.930 . S
H330 C272 0.930 . S
H331 C273 0.930 . S
H332 C275 0.930 . S
H333 C277 0.929 . S
H334 C278 0.930 . S
H335 C279 0.930 . S
H336 C282 0.930 . S
H337 C285 0.929 . S
H338 C290 0.929 . S
H339 C291 0.930 . S
H340 C298 0.929 . S
H341 C299 0.930 . S
H342 C300 0.930 . S
H343 C301 0.930 . S
H344 C303 0.929 . S
H345 C304 0.930 . S
H346 C305 0.930 . S
H347 C306 0.930 . S
H348 C310 0.929 . S
H349 C312 0.930 . S
H350 C318 0.929 . S
H351 C319 0.930 . S
Li352 N369 1.990 . S
Li352 O412 1.956 . S
Li352 O413 1.970 . S
Li352 O414 1.961 . S
Li353 N377 1.990 . S
Li353 O412 1.970 . S
Li353 O413 1.956 . S
Li353 O415 1.961 . S
Li354 N399 1.990 . S
Li354 O412 1.961 . S
Li354 O414 1.956 . S
Li354 O415 1.970 . S
Li355 N405 1.990 . S
Li355 O413 1.961 . S
Li355 O414 1.970 . S
Li355 O415 1.956 . S
C356 C358 1.348 . S
C356 C359 1.356 . S
C356 O412 1.325 . S
N357 C360 1.314 . S
N357 C361 1.279 . S
C358 C356 1.348 . S
C358 C360 1.353 . S
C358 H416 0.929 . S
C359 C356 1.356 . S
C359 C361 1.358 . S
C359 H417 0.930 . S
C360 N357 1.314 . S
C360 C358 1.353 . S
C360 H418 0.930 . S
C361 N357 1.279 . S
C361 C359 1.358 . S
C361 H419 0.930 . S
C362 C365 1.348 . S
C362 C366 1.356 . S
C362 O413 1.325 . S
C363 N364 1.279 . S
C363 C366 1.358 . S
C363 H420 0.930 . S
N364 C363 1.279 . S
N364 C367 1.314 . S
C365 C362 1.348 . S
C365 C367 1.353 . S
C365 H421 0.929 . S
C366 C362 1.356 . S
C366 C363 1.358 . S
C366 H422 0.930 . S
C367 N364 1.314 . S
C367 C365 1.353 . S
C367 H423 0.930 . S
C368 N369 1.314 . S
C368 C373 1.353 . S
C368 H374 0.930 . S
N369 Li352 1.990 . S
N369 C368 1.314 . S
N369 C371 1.279 . S
C370 C371 1.358 . S
C370 C372 1.356 . S
C370 H424 0.930 . S
C371 N369 1.279 . S
C371 C370 1.358 . S
C371 H375 0.930 . S
C372 C370 1.356 . S
C372 C373 1.348 . S
C373 C368 1.353 . S
C373 C372 1.348 . S
C373 H425 0.929 . S
H374 C368 0.930 . S
H375 C371 0.930 . S
C376 N377 1.314 . S
C376 C378 1.353 . S
C376 H382 0.930 . S
N377 Li353 1.990 . S
N377 C376 1.314 . S
N377 C380 1.279 . S
C378 C376 1.353 . S
C378 C381 1.348 . S
C378 H426 0.929 . S
C379 C380 1.358 . S
C379 C381 1.356 . S
C379 H427 0.930 . S
C380 N377 1.279 . S
C380 C379 1.358 . S
C380 H383 0.930 . S
C381 C378 1.348 . S
C381 C379 1.356 . S
H382 C376 0.930 . S
H383 C380 0.930 . S
C384 C386 1.348 . S
C384 C387 1.356 . S
C384 O414 1.325 . S
N385 C388 1.314 . S
N385 C389 1.279 . S
C386 C384 1.348 . S
C386 C388 1.353 . S
C386 H428 0.929 . S
C387 C384 1.356 . S
C387 C389 1.358 . S
C387 H429 0.930 . S
C388 N385 1.314 . S
C388 C386 1.353 . S
C388 H430 0.930 . S
C389 N385 1.279 . S
C389 C387 1.358 . S
C389 H431 0.930 . S
C390 C391 1.348 . S
C390 C392 1.356 . S
C390 O415 1.325 . S
C391 C390 1.348 . S
C391 C393 1.353 . S
C391 H432 0.929 . S
C392 C390 1.356 . S
C392 C394 1.358 . S
C392 H433 0.930 . S
C393 C391 1.353 . S
C393 N395 1.314 . S
C393 H434 0.930 . S
C394 C392 1.358 . S
C394 N395 1.279 . S
C394 H435 0.930 . S
N395 C393 1.314 . S
N395 C394 1.279 . S
C396 C398 1.353 . S
C396 N399 1.314 . S
C396 H402 0.930 . S
C397 N399 1.279 . S
C397 C400 1.358 . S
C397 H403 0.930 . S
C398 C396 1.353 . S
C398 C401 1.348 . S
C398 H436 0.929 . S
N399 Li354 1.990 . S
N399 C396 1.314 . S
N399 C397 1.279 . S
C400 C397 1.358 . S
C400 C401 1.356 . S
C400 H437 0.930 . S
C401 C398 1.348 . S
C401 C400 1.356 . S
H402 C396 0.930 . S
H403 C397 0.930 . S
C404 N405 1.314 . S
C404 C406 1.353 . S
C404 H410 0.930 . S
N405 Li355 1.990 . S
N405 C404 1.314 . S
N405 C408 1.279 . S
C406 C404 1.353 . S
C406 C409 1.348 . S
C406 H438 0.929 . S
C407 C408 1.358 . S
C407 C409 1.356 . S
C407 H439 0.930 . S
C408 N405 1.279 . S
C408 C407 1.358 . S
C408 H411 0.930 . S
C409 C406 1.348 . S
C409 C407 1.356 . S
H410 C404 0.930 . S
H411 C408 0.930 . S
O412 Li352 1.956 . S
O412 Li353 1.970 . S
O412 Li354 1.961 . S
O412 C356 1.325 . S
O413 Li352 1.970 . S
O413 Li353 1.956 . S
O413 Li355 1.961 . S
O413 C362 1.325 . S
O414 Li352 1.961 . S
O414 Li354 1.956 . S
O414 Li355 1.970 . S
O414 C384 1.325 . S
O415 Li353 1.961 . S
O415 Li354 1.970 . S
O415 Li355 1.956 . S
O415 C390 1.325 . S
H416 C358 0.929 . S
H417 C359 0.930 . S
H418 C360 0.930 . S
H419 C361 0.930 . S
H420 C363 0.930 . S
H421 C365 0.929 . S
H422 C366 0.930 . S
H423 C367 0.930 . S
H424 C370 0.930 . S
H425 C373 0.929 . S
H426 C378 0.929 . S
H427 C379 0.930 . S
H428 C386 0.929 . S
H429 C387 0.930 . S
H430 C388 0.930 . S
H431 C389 0.930 . S
H432 C391 0.929 . S
H433 C392 0.930 . S
H434 C393 0.930 . S
H435 C394 0.930 . S
H436 C398 0.929 . S
H437 C400 0.930 . S
H438 C406 0.929 . S
H439 C407 0.930 . S
Li440 N457 1.990 . S
Li440 O500 1.956 . S
Li440 O501 1.970 . S
Li440 O502 1.961 . S
Li441 N465 1.990 . S
Li441 O500 1.970 . S
Li441 O501 1.956 . S
Li441 O503 1.961 . S
Li442 N487 1.990 . S
Li442 O500 1.961 . S
Li442 O502 1.956 . S
Li442 O503 1.970 . S
Li443 N493 1.990 . S
Li443 O501 1.961 . S
Li443 O502 1.970 . S
Li443 O503 1.956 . S
C444 C446 1.348 . S
C444 C447 1.356 . S
C444 O500 1.325 . S
N445 C448 1.314 . S
N445 C449 1.279 . S
C446 C444 1.348 . S
C446 C448 1.353 . S
C446 H504 0.929 . S
C447 C444 1.356 . S
C447 C449 1.358 . S
C447 H505 0.930 . S
C448 N445 1.314 . S
C448 C446 1.353 . S
C448 H506 0.930 . S
C449 N445 1.279 . S
C449 C447 1.358 . S
C449 H507 0.930 . S
C450 C453 1.348 . S
C450 C454 1.356 . S
C450 O501 1.325 . S
C451 N452 1.279 . S
C451 C454 1.358 . S
C451 H508 0.930 . S
N452 C451 1.279 . S
N452 C455 1.314 . S
C453 C450 1.348 . S
C453 C455 1.353 . S
C453 H509 0.929 . S
C454 C450 1.356 . S
C454 C451 1.358 . S
C454 H510 0.930 . S
C455 N452 1.314 . S
C455 C453 1.353 . S
C455 H511 0.930 . S
C456 N457 1.314 . S
C456 C461 1.353 . S
C456 H462 0.930 . S
N457 Li440 1.990 . S
N457 C456 1.314 . S
N457 C459 1.279 . S
C458 C459 1.358 . S
C458 C460 1.356 . S
C458 H512 0.930 . S
C459 N457 1.279 . S
C459 C458 1.358 . S
C459 H463 0.930 . S
C460 C458 1.356 . S
C460 C461 1.348 . S
C461 C456 1.353 . S
C461 C460 1.348 . S
C461 H513 0.929 . S
H462 C456 0.930 . S
H463 C459 0.930 . S
C464 N465 1.314 . S
C464 C466 1.353 . S
C464 H470 0.930 . S
N465 Li441 1.990 . S
N465 C464 1.314 . S
N465 C468 1.279 . S
C466 C464 1.353 . S
C466 C469 1.348 . S
C466 H514 0.929 . S
C467 C468 1.358 . S
C467 C469 1.356 . S
C467 H515 0.930 . S
C468 N465 1.279 . S
C468 C467 1.358 . S
C468 H471 0.930 . S
C469 C466 1.348 . S
C469 C467 1.356 . S
H470 C464 0.930 . S
H471 C468 0.930 . S
C472 C474 1.348 . S
C472 C475 1.356 . S
C472 O502 1.325 . S
N473 C476 1.314 . S
N473 C477 1.279 . S
C474 C472 1.348 . S
C474 C476 1.353 . S
C474 H516 0.929 . S
C475 C472 1.356 . S
C475 C477 1.358 . S
C475 H517 0.930 . S
C476 N473 1.314 . S
C476 C474 1.353 . S
C476 H518 0.930 . S
C477 N473 1.279 . S
C477 C475 1.358 . S
C477 H519 0.930 . S
C478 C479 1.348 . S
C478 C480 1.356 . S
C478 O503 1.325 . S
C479 C478 1.348 . S
C479 C481 1.353 . S
C479 H520 0.929 . S
C480 C478 1.356 . S
C480 C482 1.358 . S
C480 H521 0.930 . S
C481 C479 1.353 . S
C481 N483 1.314 . S
C481 H522 0.930 . S
C482 C480 1.358 . S
C482 N483 1.279 . S
C482 H523 0.930 . S
N483 C481 1.314 . S
N483 C482 1.279 . S
C484 C486 1.353 . S
C484 N487 1.314 . S
C484 H490 0.930 . S
C485 N487 1.279 . S
C485 C488 1.358 . S
C485 H491 0.930 . S
C486 C484 1.353 . S
C486 C489 1.348 . S
C486 H524 0.929 . S
N487 Li442 1.990 . S
N487 C484 1.314 . S
N487 C485 1.279 . S
C488 C485 1.358 . S
C488 C489 1.356 . S
C488 H525 0.930 . S
C489 C486 1.348 . S
C489 C488 1.356 . S
H490 C484 0.930 . S
H491 C485 0.930 . S
C492 N493 1.314 . S
C492 C494 1.353 . S
C492 H498 0.930 . S
N493 Li443 1.990 . S
N493 C492 1.314 . S
N493 C496 1.279 . S
C494 C492 1.353 . S
C494 C497 1.348 . S
C494 H526 0.929 . S
C495 C496 1.358 . S
C495 C497 1.356 . S
C495 H527 0.930 . S
C496 N493 1.279 . S
C496 C495 1.358 . S
C496 H499 0.930 . S
C497 C494 1.348 . S
C497 C495 1.356 . S
H498 C492 0.930 . S
H499 C496 0.930 . S
O500 Li440 1.956 . S
O500 Li441 1.970 . S
O500 Li442 1.961 . S
O500 C444 1.325 . S
O501 Li440 1.970 . S
O501 Li441 1.956 . S
O501 Li443 1.961 . S
O501 C450 1.325 . S
O502 Li440 1.961 . S
O502 Li442 1.956 . S
O502 Li443 1.970 . S
O502 C472 1.325 . S
O503 Li441 1.961 . S
O503 Li442 1.970 . S
O503 Li443 1.956 . S
O503 C478 1.325 . S
H504 C446 0.929 . S
H505 C447 0.930 . S
H506 C448 0.930 . S
H507 C449 0.930 . S
H508 C451 0.930 . S
H509 C453 0.929 . S
H510 C454 0.930 . S
H511 C455 0.930 . S
H512 C458 0.930 . S
H513 C461 0.929 . S
H514 C466 0.929 . S
H515 C467 0.930 . S
H516 C474 0.929 . S
H517 C475 0.930 . S
H518 C476 0.930 . S
H519 C477 0.930 . S
H520 C479 0.929 . S
H521 C480 0.930 . S
H522 C481 0.930 . S
H523 C482 0.930 . S
H524 C486 0.929 . S
H525 C488 0.930 . S
H526 C494 0.929 . S
H527 C495 0.930 . S
Li528 N545 1.990 . S
Li528 O588 1.956 . S
Li528 O589 1.970 . S
Li528 O590 1.961 . S
Li529 N553 1.990 . S
Li529 O588 1.970 . S
Li529 O589 1.956 . S
Li529 O591 1.961 . S
Li530 N575 1.990 . S
Li530 O588 1.961 . S
Li530 O590 1.956 . S
Li530 O591 1.970 . S
Li531 N581 1.990 . S
Li531 O589 1.961 . S
Li531 O590 1.970 . S
Li531 O591 1.956 . S
C532 C534 1.348 . S
C532 C535 1.356 . S
C532 O588 1.325 . S
N533 C536 1.314 . S
N533 C537 1.279 . S
C534 C532 1.348 . S
C534 C536 1.353 . S
C534 H592 0.929 . S
C535 C532 1.356 . S
C535 C537 1.358 . S
C535 H593 0.930 . S
C536 N533 1.314 . S
C536 C534 1.353 . S
C536 H594 0.930 . S
C537 N533 1.279 . S
C537 C535 1.358 . S
C537 H595 0.930 . S
C538 C541 1.348 . S
C538 C542 1.356 . S
C538 O589 1.325 . S
C539 N540 1.279 . S
C539 C542 1.358 . S
C539 H596 0.930 . S
N540 C539 1.279 . S
N540 C543 1.314 . S
C541 C538 1.348 . S
C541 C543 1.353 . S
C541 H597 0.929 . S
C542 C538 1.356 . S
C542 C539 1.358 . S
C542 H598 0.930 . S
C543 N540 1.314 . S
C543 C541 1.353 . S
C543 H599 0.930 . S
C544 N545 1.314 . S
C544 C549 1.353 . S
C544 H550 0.930 . S
N545 Li528 1.990 . S
N545 C544 1.314 . S
N545 C547 1.279 . S
C546 C547 1.358 . S
C546 C548 1.356 . S
C546 H600 0.930 . S
C547 N545 1.279 . S
C547 C546 1.358 . S
C547 H551 0.930 . S
C548 C546 1.356 . S
C548 C549 1.348 . S
C549 C544 1.353 . S
C549 C548 1.348 . S
C549 H601 0.929 . S
H550 C544 0.930 . S
H551 C547 0.930 . S
C552 N553 1.314 . S
C552 C554 1.353 . S
C552 H558 0.930 . S
N553 Li529 1.990 . S
N553 C552 1.314 . S
N553 C556 1.279 . S
C554 C552 1.353 . S
C554 C557 1.348 . S
C554 H602 0.929 . S
C555 C556 1.358 . S
C555 C557 1.356 . S
C555 H603 0.930 . S
C556 N553 1.279 . S
C556 C555 1.358 . S
C556 H559 0.930 . S
C557 C554 1.348 . S
C557 C555 1.356 . S
H558 C552 0.930 . S
H559 C556 0.930 . S
C560 C562 1.348 . S
C560 C563 1.356 . S
C560 O590 1.325 . S
N561 C564 1.314 . S
N561 C565 1.279 . S
C562 C560 1.348 . S
C562 C564 1.353 . S
C562 H604 0.929 . S
C563 C560 1.356 . S
C563 C565 1.358 . S
C563 H605 0.930 . S
C564 N561 1.314 . S
C564 C562 1.353 . S
C564 H606 0.930 . S
C565 N561 1.279 . S
C565 C563 1.358 . S
C565 H607 0.930 . S
C566 C567 1.348 . S
C566 C568 1.356 . S
C566 O591 1.325 . S
C567 C566 1.348 . S
C567 C569 1.353 . S
C567 H608 0.929 . S
C568 C566 1.356 . S
C568 C570 1.358 . S
C568 H609 0.930 . S
C569 C567 1.353 . S
C569 N571 1.314 . S
C569 H610 0.930 . S
C570 C568 1.358 . S
C570 N571 1.279 . S
C570 H611 0.930 . S
N571 C569 1.314 . S
N571 C570 1.279 . S
C572 C574 1.353 . S
C572 N575 1.314 . S
C572 H578 0.930 . S
C573 N575 1.279 . S
C573 C576 1.358 . S
C573 H579 0.930 . S
C574 C572 1.353 . S
C574 C577 1.348 . S
C574 H612 0.929 . S
N575 Li530 1.990 . S
N575 C572 1.314 . S
N575 C573 1.279 . S
C576 C573 1.358 . S
C576 C577 1.356 . S
C576 H613 0.930 . S
C577 C574 1.348 . S
C577 C576 1.356 . S
H578 C572 0.930 . S
H579 C573 0.930 . S
C580 N581 1.314 . S
C580 C582 1.353 . S
C580 H586 0.930 . S
N581 Li531 1.990 . S
N581 C580 1.314 . S
N581 C584 1.279 . S
C582 C580 1.353 . S
C582 C585 1.348 . S
C582 H614 0.929 . S
C583 C584 1.358 . S
C583 C585 1.356 . S
C583 H615 0.930 . S
C584 N581 1.279 . S
C584 C583 1.358 . S
C584 H587 0.930 . S
C585 C582 1.348 . S
C585 C583 1.356 . S
H586 C580 0.930 . S
H587 C584 0.930 . S
O588 Li528 1.956 . S
O588 Li529 1.970 . S
O588 Li530 1.961 . S
O588 C532 1.325 . S
O589 Li528 1.970 . S
O589 Li529 1.956 . S
O589 Li531 1.961 . S
O589 C538 1.325 . S
O590 Li528 1.961 . S
O590 Li530 1.956 . S
O590 Li531 1.970 . S
O590 C560 1.325 . S
O591 Li529 1.961 . S
O591 Li530 1.970 . S
O591 Li531 1.956 . S
O591 C566 1.325 . S
H592 C534 0.929 . S
H593 C535 0.930 . S
H594 C536 0.930 . S
H595 C537 0.930 . S
H596 C539 0.930 . S
H597 C541 0.929 . S
H598 C542 0.930 . S
H599 C543 0.930 . S
H600 C546 0.930 . S
H601 C549 0.929 . S
H602 C554 0.929 . S
H603 C555 0.930 . S
H604 C562 0.929 . S
H605 C563 0.930 . S
H606 C564 0.930 . S
H607 C565 0.930 . S
H608 C567 0.929 . S
H609 C568 0.930 . S
H610 C569 0.930 . S
H611 C570 0.930 . S
H612 C574 0.929 . S
H613 C576 0.930 . S
H614 C582 0.929 . S
H615 C583 0.930 . S
Li616 N633 1.990 . S
Li616 O676 1.956 . S
Li616 O677 1.970 . S
Li616 O678 1.961 . S
Li617 N641 1.990 . S
Li617 O676 1.970 . S
Li617 O677 1.956 . S
Li617 O679 1.961 . S
Li618 N663 1.990 . S
Li618 O676 1.961 . S
Li618 O678 1.956 . S
Li618 O679 1.970 . S
Li619 N669 1.990 . S
Li619 O677 1.961 . S
Li619 O678 1.970 . S
Li619 O679 1.956 . S
C620 C622 1.348 . S
C620 C623 1.356 . S
C620 O676 1.325 . S
N621 C624 1.314 . S
N621 C625 1.279 . S
C622 C620 1.348 . S
C622 C624 1.353 . S
C622 H680 0.929 . S
C623 C620 1.356 . S
C623 C625 1.358 . S
C623 H681 0.930 . S
C624 N621 1.314 . S
C624 C622 1.353 . S
C624 H682 0.930 . S
C625 N621 1.279 . S
C625 C623 1.358 . S
C625 H683 0.930 . S
C626 C629 1.348 . S
C626 C630 1.356 . S
C626 O677 1.325 . S
C627 N628 1.279 . S
C627 C630 1.358 . S
C627 H684 0.930 . S
N628 C627 1.279 . S
N628 C631 1.314 . S
C629 C626 1.348 . S
C629 C631 1.353 . S
C629 H685 0.929 . S
C630 C626 1.356 . S
C630 C627 1.358 . S
C630 H686 0.930 . S
C631 N628 1.314 . S
C631 C629 1.353 . S
C631 H687 0.930 . S
C632 N633 1.314 . S
C632 C637 1.353 . S
C632 H638 0.930 . S
N633 Li616 1.990 . S
N633 C632 1.314 . S
N633 C635 1.279 . S
C634 C635 1.358 . S
C634 C636 1.356 . S
C634 H688 0.930 . S
C635 N633 1.279 . S
C635 C634 1.358 . S
C635 H639 0.930 . S
C636 C634 1.356 . S
C636 C637 1.348 . S
C637 C632 1.353 . S
C637 C636 1.348 . S
C637 H689 0.929 . S
H638 C632 0.930 . S
H639 C635 0.930 . S
C640 N641 1.314 . S
C640 C642 1.353 . S
C640 H646 0.930 . S
N641 Li617 1.990 . S
N641 C640 1.314 . S
N641 C644 1.279 . S
C642 C640 1.353 . S
C642 C645 1.348 . S
C642 H690 0.929 . S
C643 C644 1.358 . S
C643 C645 1.356 . S
C643 H691 0.930 . S
C644 N641 1.279 . S
C644 C643 1.358 . S
C644 H647 0.930 . S
C645 C642 1.348 . S
C645 C643 1.356 . S
H646 C640 0.930 . S
H647 C644 0.930 . S
C648 C650 1.348 . S
C648 C651 1.356 . S
C648 O678 1.325 . S
N649 C652 1.314 . S
N649 C653 1.279 . S
C650 C648 1.348 . S
C650 C652 1.353 . S
C650 H692 0.929 . S
C651 C648 1.356 . S
C651 C653 1.358 . S
C651 H693 0.930 . S
C652 N649 1.314 . S
C652 C650 1.353 . S
C652 H694 0.930 . S
C653 N649 1.279 . S
C653 C651 1.358 . S
C653 H695 0.930 . S
C654 C655 1.348 . S
C654 C656 1.356 . S
C654 O679 1.325 . S
C655 C654 1.348 . S
C655 C657 1.353 . S
C655 H696 0.929 . S
C656 C654 1.356 . S
C656 C658 1.358 . S
C656 H697 0.930 . S
C657 C655 1.353 . S
C657 N659 1.314 . S
C657 H698 0.930 . S
C658 C656 1.358 . S
C658 N659 1.279 . S
C658 H699 0.930 . S
N659 C657 1.314 . S
N659 C658 1.279 . S
C660 C662 1.353 . S
C660 N663 1.314 . S
C660 H666 0.930 . S
C661 N663 1.279 . S
C661 C664 1.358 . S
C661 H667 0.930 . S
C662 C660 1.353 . S
C662 C665 1.348 . S
C662 H700 0.929 . S
N663 Li618 1.990 . S
N663 C660 1.314 . S
N663 C661 1.279 . S
C664 C661 1.358 . S
C664 C665 1.356 . S
C664 H701 0.930 . S
C665 C662 1.348 . S
C665 C664 1.356 . S
H666 C660 0.930 . S
H667 C661 0.930 . S
C668 N669 1.314 . S
C668 C670 1.353 . S
C668 H674 0.930 . S
N669 Li619 1.990 . S
N669 C668 1.314 . S
N669 C672 1.279 . S
C670 C668 1.353 . S
C670 C673 1.348 . S
C670 H702 0.929 . S
C671 C672 1.358 . S
C671 C673 1.356 . S
C671 H703 0.930 . S
C672 N669 1.279 . S
C672 C671 1.358 . S
C672 H675 0.930 . S
C673 C670 1.348 . S
C673 C671 1.356 . S
H674 C668 0.930 . S
H675 C672 0.930 . S
O676 Li616 1.956 . S
O676 Li617 1.970 . S
O676 Li618 1.961 . S
O676 C620 1.325 . S
O677 Li616 1.970 . S
O677 Li617 1.956 . S
O677 Li619 1.961 . S
O677 C626 1.325 . S
O678 Li616 1.961 . S
O678 Li618 1.956 . S
O678 Li619 1.970 . S
O678 C648 1.325 . S
O679 Li617 1.961 . S
O679 Li618 1.970 . S
O679 Li619 1.956 . S
O679 C654 1.325 . S
H680 C622 0.929 . S
H681 C623 0.930 . S
H682 C624 0.930 . S
H683 C625 0.930 . S
H684 C627 0.930 . S
H685 C629 0.929 . S
H686 C630 0.930 . S
H687 C631 0.930 . S
H688 C634 0.930 . S
H689 C637 0.929 . S
H690 C642 0.929 . S
H691 C643 0.930 . S
H692 C650 0.929 . S
H693 C651 0.930 . S
H694 C652 0.930 . S
H695 C653 0.930 . S
H696 C655 0.929 . S
H697 C656 0.930 . S
H698 C657 0.930 . S
H699 C658 0.930 . S
H700 C662 0.929 . S
H701 C664 0.930 . S
H702 C670 0.929 . S
H703 C671 0.930 . S
Li704 N721 1.990 . S
Li704 O764 1.956 . S
Li704 O765 1.970 . S
Li704 O766 1.961 . S
Li705 N729 1.990 . S
Li705 O764 1.970 . S
Li705 O765 1.956 . S
Li705 O767 1.961 . S
Li706 N751 1.990 . S
Li706 O764 1.961 . S
Li706 O766 1.956 . S
Li706 O767 1.970 . S
Li707 N757 1.990 . S
Li707 O765 1.961 . S
Li707 O766 1.970 . S
Li707 O767 1.956 . S
C708 C710 1.348 . S
C708 C711 1.356 . S
C708 O764 1.325 . S
N709 C712 1.314 . S
N709 C713 1.279 . S
C710 C708 1.348 . S
C710 C712 1.353 . S
C710 H768 0.929 . S
C711 C708 1.356 . S
C711 C713 1.358 . S
C711 H769 0.930 . S
C712 N709 1.314 . S
C712 C710 1.353 . S
C712 H770 0.930 . S
C713 N709 1.279 . S
C713 C711 1.358 . S
C713 H771 0.930 . S
C714 C717 1.348 . S
C714 C718 1.356 . S
C714 O765 1.325 . S
C715 N716 1.279 . S
C715 C718 1.358 . S
C715 H772 0.930 . S
N716 C715 1.279 . S
N716 C719 1.314 . S
C717 C714 1.348 . S
C717 C719 1.353 . S
C717 H773 0.929 . S
C718 C714 1.356 . S
C718 C715 1.358 . S
C718 H774 0.930 . S
C719 N716 1.314 . S
C719 C717 1.353 . S
C719 H775 0.930 . S
C720 N721 1.314 . S
C720 C725 1.353 . S
C720 H726 0.930 . S
N721 Li704 1.990 . S
N721 C720 1.314 . S
N721 C723 1.279 . S
C722 C723 1.358 . S
C722 C724 1.356 . S
C722 H776 0.930 . S
C723 N721 1.279 . S
C723 C722 1.358 . S
C723 H727 0.930 . S
C724 C722 1.356 . S
C724 C725 1.348 . S
C725 C720 1.353 . S
C725 C724 1.348 . S
C725 H777 0.929 . S
H726 C720 0.930 . S
H727 C723 0.930 . S
C728 N729 1.314 . S
C728 C730 1.353 . S
C728 H734 0.930 . S
N729 Li705 1.990 . S
N729 C728 1.314 . S
N729 C732 1.279 . S
C730 C728 1.353 . S
C730 C733 1.348 . S
C730 H778 0.929 . S
C731 C732 1.358 . S
C731 C733 1.356 . S
C731 H779 0.930 . S
C732 N729 1.279 . S
C732 C731 1.358 . S
C732 H735 0.930 . S
C733 C730 1.348 . S
C733 C731 1.356 . S
H734 C728 0.930 . S
H735 C732 0.930 . S
C736 C738 1.348 . S
C736 C739 1.356 . S
C736 O766 1.325 . S
N737 C740 1.314 . S
N737 C741 1.279 . S
C738 C736 1.348 . S
C738 C740 1.353 . S
C738 H780 0.929 . S
C739 C736 1.356 . S
C739 C741 1.358 . S
C739 H781 0.930 . S
C740 N737 1.314 . S
C740 C738 1.353 . S
C740 H782 0.930 . S
C741 N737 1.279 . S
C741 C739 1.358 . S
C741 H783 0.930 . S
C742 C743 1.348 . S
C742 C744 1.356 . S
C742 O767 1.325 . S
C743 C742 1.348 . S
C743 C745 1.353 . S
C743 H784 0.929 . S
C744 C742 1.356 . S
C744 C746 1.358 . S
C744 H785 0.930 . S
C745 C743 1.353 . S
C745 N747 1.314 . S
C745 H786 0.930 . S
C746 C744 1.358 . S
C746 N747 1.279 . S
C746 H787 0.930 . S
N747 C745 1.314 . S
N747 C746 1.279 . S
C748 C750 1.353 . S
C748 N751 1.314 . S
C748 H754 0.930 . S
C749 N751 1.279 . S
C749 C752 1.358 . S
C749 H755 0.930 . S
C750 C748 1.353 . S
C750 C753 1.348 . S
C750 H788 0.929 . S
N751 Li706 1.990 . S
N751 C748 1.314 . S
N751 C749 1.279 . S
C752 C749 1.358 . S
C752 C753 1.356 . S
C752 H789 0.930 . S
C753 C750 1.348 . S
C753 C752 1.356 . S
H754 C748 0.930 . S
H755 C749 0.930 . S
C756 N757 1.314 . S
C756 C758 1.353 . S
C756 H762 0.930 . S
N757 Li707 1.990 . S
N757 C756 1.314 . S
N757 C760 1.279 . S
C758 C756 1.353 . S
C758 C761 1.348 . S
C758 H790 0.929 . S
C759 C760 1.358 . S
C759 C761 1.356 . S
C759 H791 0.930 . S
C760 N757 1.279 . S
C760 C759 1.358 . S
C760 H763 0.930 . S
C761 C758 1.348 . S
C761 C759 1.356 . S
H762 C756 0.930 . S
H763 C760 0.930 . S
O764 Li704 1.956 . S
O764 Li705 1.970 . S
O764 Li706 1.961 . S
O764 C708 1.325 . S
O765 Li704 1.970 . S
O765 Li705 1.956 . S
O765 Li707 1.961 . S
O765 C714 1.325 . S
O766 Li704 1.961 . S
O766 Li706 1.956 . S
O766 Li707 1.970 . S
O766 C736 1.325 . S
O767 Li705 1.961 . S
O767 Li706 1.970 . S
O767 Li707 1.956 . S
O767 C742 1.325 . S
H768 C710 0.929 . S
H769 C711 0.930 . S
H770 C712 0.930 . S
H771 C713 0.930 . S
H772 C715 0.930 . S
H773 C717 0.929 . S
H774 C718 0.930 . S
H775 C719 0.930 . S
H776 C722 0.930 . S
H777 C725 0.929 . S
H778 C730 0.929 . S
H779 C731 0.930 . S
H780 C738 0.929 . S
H781 C739 0.930 . S
H782 C740 0.930 . S
H783 C741 0.930 . S
H784 C743 0.929 . S
H785 C744 0.930 . S
H786 C745 0.930 . S
H787 C746 0.930 . S
H788 C750 0.929 . S
H789 C752 0.930 . S
H790 C758 0.929 . S
H791 C759 0.930 . S
Li792 N809 1.990 . S
Li792 O852 1.956 . S
Li792 O853 1.970 . S
Li792 O854 1.961 . S
Li793 N817 1.990 . S
Li793 O852 1.970 . S
Li793 O853 1.956 . S
Li793 O855 1.961 . S
Li794 N839 1.990 . S
Li794 O852 1.961 . S
Li794 O854 1.956 . S
Li794 O855 1.970 . S
Li795 N845 1.990 . S
Li795 O853 1.961 . S
Li795 O854 1.970 . S
Li795 O855 1.956 . S
C796 C798 1.348 . S
C796 C799 1.356 . S
C796 O852 1.325 . S
N797 C800 1.314 . S
N797 C801 1.279 . S
C798 C796 1.348 . S
C798 C800 1.353 . S
C798 H856 0.929 . S
C799 C796 1.356 . S
C799 C801 1.358 . S
C799 H857 0.930 . S
C800 N797 1.314 . S
C800 C798 1.353 . S
C800 H858 0.930 . S
C801 N797 1.279 . S
C801 C799 1.358 . S
C801 H859 0.930 . S
C802 C805 1.348 . S
C802 C806 1.356 . S
C802 O853 1.325 . S
C803 N804 1.279 . S
C803 C806 1.358 . S
C803 H860 0.930 . S
N804 C803 1.279 . S
N804 C807 1.314 . S
C805 C802 1.348 . S
C805 C807 1.353 . S
C805 H861 0.929 . S
C806 C802 1.356 . S
C806 C803 1.358 . S
C806 H862 0.930 . S
C807 N804 1.314 . S
C807 C805 1.353 . S
C807 H863 0.930 . S
C808 N809 1.314 . S
C808 C813 1.353 . S
C808 H814 0.930 . S
N809 Li792 1.990 . S
N809 C808 1.314 . S
N809 C811 1.279 . S
C810 C811 1.358 . S
C810 C812 1.356 . S
C810 H864 0.930 . S
C811 N809 1.279 . S
C811 C810 1.358 . S
C811 H815 0.930 . S
C812 C810 1.356 . S
C812 C813 1.348 . S
C813 C808 1.353 . S
C813 C812 1.348 . S
C813 H865 0.929 . S
H814 C808 0.930 . S
H815 C811 0.930 . S
C816 N817 1.314 . S
C816 C818 1.353 . S
C816 H822 0.930 . S
N817 Li793 1.990 . S
N817 C816 1.314 . S
N817 C820 1.279 . S
C818 C816 1.353 . S
C818 C821 1.348 . S
C818 H866 0.929 . S
C819 C820 1.358 . S
C819 C821 1.356 . S
C819 H867 0.930 . S
C820 N817 1.279 . S
C820 C819 1.358 . S
C820 H823 0.930 . S
C821 C818 1.348 . S
C821 C819 1.356 . S
H822 C816 0.930 . S
H823 C820 0.930 . S
C824 C826 1.348 . S
C824 C827 1.356 . S
C824 O854 1.325 . S
N825 C828 1.314 . S
N825 C829 1.279 . S
C826 C824 1.348 . S
C826 C828 1.353 . S
C826 H868 0.929 . S
C827 C824 1.356 . S
C827 C829 1.358 . S
C827 H869 0.930 . S
C828 N825 1.314 . S
C828 C826 1.353 . S
C828 H870 0.930 . S
C829 N825 1.279 . S
C829 C827 1.358 . S
C829 H871 0.930 . S
C830 C831 1.348 . S
C830 C832 1.356 . S
C830 O855 1.325 . S
C831 C830 1.348 . S
C831 C833 1.353 . S
C831 H872 0.929 . S
C832 C830 1.356 . S
C832 C834 1.358 . S
C832 H873 0.930 . S
C833 C831 1.353 . S
C833 N835 1.314 . S
C833 H874 0.930 . S
C834 C832 1.358 . S
C834 N835 1.279 . S
C834 H875 0.930 . S
N835 C833 1.314 . S
N835 C834 1.279 . S
C836 C838 1.353 . S
C836 N839 1.314 . S
C836 H842 0.930 . S
C837 N839 1.279 . S
C837 C840 1.358 . S
C837 H843 0.930 . S
C838 C836 1.353 . S
C838 C841 1.348 . S
C838 H876 0.929 . S
N839 Li794 1.990 . S
N839 C836 1.314 . S
N839 C837 1.279 . S
C840 C837 1.358 . S
C840 C841 1.356 . S
C840 H877 0.930 . S
C841 C838 1.348 . S
C841 C840 1.356 . S
H842 C836 0.930 . S
H843 C837 0.930 . S
C844 N845 1.314 . S
C844 C846 1.353 . S
C844 H850 0.930 . S
N845 Li795 1.990 . S
N845 C844 1.314 . S
N845 C848 1.279 . S
C846 C844 1.353 . S
C846 C849 1.348 . S
C846 H878 0.929 . S
C847 C848 1.358 . S
C847 C849 1.356 . S
C847 H879 0.930 . S
C848 N845 1.279 . S
C848 C847 1.358 . S
C848 H851 0.930 . S
C849 C846 1.348 . S
C849 C847 1.356 . S
H850 C844 0.930 . S
H851 C848 0.930 . S
O852 Li792 1.956 . S
O852 Li793 1.970 . S
O852 Li794 1.961 . S
O852 C796 1.325 . S
O853 Li792 1.970 . S
O853 Li793 1.956 . S
O853 Li795 1.961 . S
O853 C802 1.325 . S
O854 Li792 1.961 . S
O854 Li794 1.956 . S
O854 Li795 1.970 . S
O854 C824 1.325 . S
O855 Li793 1.961 . S
O855 Li794 1.970 . S
O855 Li795 1.956 . S
O855 C830 1.325 . S
H856 C798 0.929 . S
H857 C799 0.930 . S
H858 C800 0.930 . S
H859 C801 0.930 . S
H860 C803 0.930 . S
H861 C805 0.929 . S
H862 C806 0.930 . S
H863 C807 0.930 . S
H864 C810 0.930 . S
H865 C813 0.929 . S
H866 C818 0.929 . S
H867 C819 0.930 . S
H868 C826 0.929 . S
H869 C827 0.930 . S
H870 C828 0.930 . S
H871 C829 0.930 . S
H872 C831 0.929 . S
H873 C832 0.930 . S
H874 C833 0.930 . S
H875 C834 0.930 . S
H876 C838 0.929 . S
H877 C840 0.930 . S
H878 C846 0.929 . S
H879 C847 0.930 . S
Li880 N897 1.990 . S
Li880 O940 1.956 . S
Li880 O941 1.970 . S
Li880 O942 1.961 . S
Li881 N905 1.990 . S
Li881 O940 1.970 . S
Li881 O941 1.956 . S
Li881 O943 1.961 . S
Li882 N927 1.990 . S
Li882 O940 1.961 . S
Li882 O942 1.956 . S
Li882 O943 1.970 . S
Li883 N933 1.990 . S
Li883 O941 1.961 . S
Li883 O942 1.970 . S
Li883 O943 1.956 . S
C884 C886 1.348 . S
C884 C887 1.356 . S
C884 O940 1.325 . S
N885 C888 1.314 . S
N885 C889 1.279 . S
C886 C884 1.348 . S
C886 C888 1.353 . S
C886 H944 0.929 . S
C887 C884 1.356 . S
C887 C889 1.358 . S
C887 H945 0.930 . S
C888 N885 1.314 . S
C888 C886 1.353 . S
C888 H946 0.930 . S
C889 N885 1.279 . S
C889 C887 1.358 . S
C889 H947 0.930 . S
C890 C893 1.348 . S
C890 C894 1.356 . S
C890 O941 1.325 . S
C891 N892 1.279 . S
C891 C894 1.358 . S
C891 H948 0.930 . S
N892 C891 1.279 . S
N892 C895 1.314 . S
C893 C890 1.348 . S
C893 C895 1.353 . S
C893 H949 0.929 . S
C894 C890 1.356 . S
C894 C891 1.358 . S
C894 H950 0.930 . S
C895 N892 1.314 . S
C895 C893 1.353 . S
C895 H951 0.930 . S
C896 N897 1.314 . S
C896 C901 1.353 . S
C896 H902 0.930 . S
N897 Li880 1.990 . S
N897 C896 1.314 . S
N897 C899 1.279 . S
C898 C899 1.358 . S
C898 C900 1.356 . S
C898 H952 0.930 . S
C899 N897 1.279 . S
C899 C898 1.358 . S
C899 H903 0.930 . S
C900 C898 1.356 . S
C900 C901 1.348 . S
C901 C896 1.353 . S
C901 C900 1.348 . S
C901 H953 0.929 . S
H902 C896 0.930 . S
H903 C899 0.930 . S
C904 N905 1.314 . S
C904 C906 1.353 . S
C904 H910 0.930 . S
N905 Li881 1.990 . S
N905 C904 1.314 . S
N905 C908 1.279 . S
C906 C904 1.353 . S
C906 C909 1.348 . S
C906 H954 0.929 . S
C907 C908 1.358 . S
C907 C909 1.356 . S
C907 H955 0.930 . S
C908 N905 1.279 . S
C908 C907 1.358 . S
C908 H911 0.930 . S
C909 C906 1.348 . S
C909 C907 1.356 . S
H910 C904 0.930 . S
H911 C908 0.930 . S
C912 C914 1.348 . S
C912 C915 1.356 . S
C912 O942 1.325 . S
N913 C916 1.314 . S
N913 C917 1.279 . S
C914 C912 1.348 . S
C914 C916 1.353 . S
C914 H956 0.929 . S
C915 C912 1.356 . S
C915 C917 1.358 . S
C915 H957 0.930 . S
C916 N913 1.314 . S
C916 C914 1.353 . S
C916 H958 0.930 . S
C917 N913 1.279 . S
C917 C915 1.358 . S
C917 H959 0.930 . S
C918 C919 1.348 . S
C918 C920 1.356 . S
C918 O943 1.325 . S
C919 C918 1.348 . S
C919 C921 1.353 . S
C919 H960 0.929 . S
C920 C918 1.356 . S
C920 C922 1.358 . S
C920 H961 0.930 . S
C921 C919 1.353 . S
C921 N923 1.314 . S
C921 H962 0.930 . S
C922 C920 1.358 . S
C922 N923 1.279 . S
C922 H963 0.930 . S
N923 C921 1.314 . S
N923 C922 1.279 . S
C924 C926 1.353 . S
C924 N927 1.314 . S
C924 H930 0.930 . S
C925 N927 1.279 . S
C925 C928 1.358 . S
C925 H931 0.930 . S
C926 C924 1.353 . S
C926 C929 1.348 . S
C926 H964 0.929 . S
N927 Li882 1.990 . S
N927 C924 1.314 . S
N927 C925 1.279 . S
C928 C925 1.358 . S
C928 C929 1.356 . S
C928 H965 0.930 . S
C929 C926 1.348 . S
C929 C928 1.356 . S
H930 C924 0.930 . S
H931 C925 0.930 . S
C932 N933 1.314 . S
C932 C934 1.353 . S
C932 H938 0.930 . S
N933 Li883 1.990 . S
N933 C932 1.314 . S
N933 C936 1.279 . S
C934 C932 1.353 . S
C934 C937 1.348 . S
C934 H966 0.929 . S
C935 C936 1.358 . S
C935 C937 1.356 . S
C935 H967 0.930 . S
C936 N933 1.279 . S
C936 C935 1.358 . S
C936 H939 0.930 . S
C937 C934 1.348 . S
C937 C935 1.356 . S
H938 C932 0.930 . S
H939 C936 0.930 . S
O940 Li880 1.956 . S
O940 Li881 1.970 . S
O940 Li882 1.961 . S
O940 C884 1.325 . S
O941 Li880 1.970 . S
O941 Li881 1.956 . S
O941 Li883 1.961 . S
O941 C890 1.325 . S
O942 Li880 1.961 . S
O942 Li882 1.956 . S
O942 Li883 1.970 . S
O942 C912 1.325 . S
O943 Li881 1.961 . S
O943 Li882 1.970 . S
O943 Li883 1.956 . S
O943 C918 1.325 . S
H944 C886 0.929 . S
H945 C887 0.930 . S
H946 C888 0.930 . S
H947 C889 0.930 . S
H948 C891 0.930 . S
H949 C893 0.929 . S
H950 C894 0.930 . S
H951 C895 0.930 . S
H952 C898 0.930 . S
H953 C901 0.929 . S
H954 C906 0.929 . S
H955 C907 0.930 . S
H956 C914 0.929 . S
H957 C915 0.930 . S
H958 C916 0.930 . S
H959 C917 0.930 . S
H960 C919 0.929 . S
H961 C920 0.930 . S
H962 C921 0.930 . S
H963 C922 0.930 . S
H964 C926 0.929 . S
H965 C928 0.930 . S
H966 C934 0.929 . S
H967 C935 0.930 . S
Li968 N985 1.990 . S
Li968 O1028 1.956 . S
Li968 O1029 1.970 . S
Li968 O1030 1.961 . S
Li969 N993 1.990 . S
Li969 O1028 1.970 . S
Li969 O1029 1.956 . S
Li969 O1031 1.961 . S
Li970 N1015 1.990 . S
Li970 O1028 1.961 . S
Li970 O1030 1.956 . S
Li970 O1031 1.970 . S
Li971 N1021 1.990 . S
Li971 O1029 1.961 . S
Li971 O1030 1.970 . S
Li971 O1031 1.956 . S
C972 C974 1.348 . S
C972 C975 1.356 . S
C972 O1028 1.325 . S
N973 C976 1.314 . S
N973 C977 1.279 . S
C974 C972 1.348 . S
C974 C976 1.353 . S
C974 H1032 0.929 . S
C975 C972 1.356 . S
C975 C977 1.358 . S
C975 H1033 0.930 . S
C976 N973 1.314 . S
C976 C974 1.353 . S
C976 H1034 0.930 . S
C977 N973 1.279 . S
C977 C975 1.358 . S
C977 H1035 0.930 . S
C978 C981 1.348 . S
C978 C982 1.356 . S
C978 O1029 1.325 . S
C979 N980 1.279 . S
C979 C982 1.358 . S
C979 H1036 0.930 . S
N980 C979 1.279 . S
N980 C983 1.314 . S
C981 C978 1.348 . S
C981 C983 1.353 . S
C981 H1037 0.929 . S
C982 C978 1.356 . S
C982 C979 1.358 . S
C982 H1038 0.930 . S
C983 N980 1.314 . S
C983 C981 1.353 . S
C983 H1039 0.930 . S
C984 N985 1.314 . S
C984 C989 1.353 . S
C984 H990 0.930 . S
N985 Li968 1.990 . S
N985 C984 1.314 . S
N985 C987 1.279 . S
C986 C987 1.358 . S
C986 C988 1.356 . S
C986 H1040 0.930 . S
C987 N985 1.279 . S
C987 C986 1.358 . S
C987 H991 0.930 . S
C988 C986 1.356 . S
C988 C989 1.348 . S
C989 C984 1.353 . S
C989 C988 1.348 . S
C989 H1041 0.929 . S
H990 C984 0.930 . S
H991 C987 0.930 . S
C992 N993 1.314 . S
C992 C994 1.353 . S
C992 H998 0.930 . S
N993 Li969 1.990 . S
N993 C992 1.314 . S
N993 C996 1.279 . S
C994 C992 1.353 . S
C994 C997 1.348 . S
C994 H1042 0.929 . S
C995 C996 1.358 . S
C995 C997 1.356 . S
C995 H1043 0.930 . S
C996 N993 1.279 . S
C996 C995 1.358 . S
C996 H999 0.930 . S
C997 C994 1.348 . S
C997 C995 1.356 . S
H998 C992 0.930 . S
H999 C996 0.930 . S
C1000 C1002 1.348 . S
C1000 C1003 1.356 . S
C1000 O1030 1.325 . S
N1001 C1004 1.314 . S
N1001 C1005 1.279 . S
C1002 C1000 1.348 . S
C1002 C1004 1.353 . S
C1002 H1044 0.929 . S
C1003 C1000 1.356 . S
C1003 C1005 1.358 . S
C1003 H1045 0.930 . S
C1004 N1001 1.314 . S
C1004 C1002 1.353 . S
C1004 H1046 0.930 . S
C1005 N1001 1.279 . S
C1005 C1003 1.358 . S
C1005 H1047 0.930 . S
C1006 C1007 1.348 . S
C1006 C1008 1.356 . S
C1006 O1031 1.325 . S
C1007 C1006 1.348 . S
C1007 C1009 1.353 . S
C1007 H1048 0.929 . S
C1008 C1006 1.356 . S
C1008 C1010 1.358 . S
C1008 H1049 0.930 . S
C1009 C1007 1.353 . S
C1009 N1011 1.314 . S
C1009 H1050 0.930 . S
C1010 C1008 1.358 . S
C1010 N1011 1.279 . S
C1010 H1051 0.930 . S
N1011 C1009 1.314 . S
N1011 C1010 1.279 . S
C1012 C1014 1.353 . S
C1012 N1015 1.314 . S
C1012 H1018 0.930 . S
C1013 N1015 1.279 . S
C1013 C1016 1.358 . S
C1013 H1019 0.930 . S
C1014 C1012 1.353 . S
C1014 C1017 1.348 . S
C1014 H1052 0.929 . S
N1015 Li970 1.990 . S
N1015 C1012 1.314 . S
N1015 C1013 1.279 . S
C1016 C1013 1.358 . S
C1016 C1017 1.356 . S
C1016 H1053 0.930 . S
C1017 C1014 1.348 . S
C1017 C1016 1.356 . S
H1018 C1012 0.930 . S
H1019 C1013 0.930 . S
C1020 N1021 1.314 . S
C1020 C1022 1.353 . S
C1020 H1026 0.930 . S
N1021 Li971 1.990 . S
N1021 C1020 1.314 . S
N1021 C1024 1.279 . S
C1022 C1020 1.353 . S
C1022 C1025 1.348 . S
C1022 H1054 0.929 . S
C1023 C1024 1.358 . S
C1023 C1025 1.356 . S
C1023 H1055 0.930 . S
C1024 N1021 1.279 . S
C1024 C1023 1.358 . S
C1024 H1027 0.930 . S
C1025 C1022 1.348 . S
C1025 C1023 1.356 . S
H1026 C1020 0.930 . S
H1027 C1024 0.930 . S
O1028 Li968 1.956 . S
O1028 Li969 1.970 . S
O1028 Li970 1.961 . S
O1028 C972 1.325 . S
O1029 Li968 1.970 . S
O1029 Li969 1.956 . S
O1029 Li971 1.961 . S
O1029 C978 1.325 . S
O1030 Li968 1.961 . S
O1030 Li970 1.956 . S
O1030 Li971 1.970 . S
O1030 C1000 1.325 . S
O1031 Li969 1.961 . S
O1031 Li970 1.970 . S
O1031 Li971 1.956 . S
O1031 C1006 1.325 . S
H1032 C974 0.929 . S
H1033 C975 0.930 . S
H1034 C976 0.930 . S
H1035 C977 0.930 . S
H1036 C979 0.930 . S
H1037 C981 0.929 . S
H1038 C982 0.930 . S
H1039 C983 0.930 . S
H1040 C986 0.930 . S
H1041 C989 0.929 . S
H1042 C994 0.929 . S
H1043 C995 0.930 . S
H1044 C1002 0.929 . S
H1045 C1003 0.930 . S
H1046 C1004 0.930 . S
H1047 C1005 0.930 . S
H1048 C1007 0.929 . S
H1049 C1008 0.930 . S
H1050 C1009 0.930 . S
H1051 C1010 0.930 . S
H1052 C1014 0.929 . S
H1053 C1016 0.930 . S
H1054 C1022 0.929 . S
H1055 C1023 0.930 . S
H1056 C1074 0.951 . S
H1057 C1076 0.951 . S
H1058 C1078 0.950 . S
H1059 C1079 0.950 . S
H1060 C1081 0.950 . S
H1061 C1084 0.950 . S
H1062 C1085 0.950 . S
H1063 C1087 0.950 . S
H1064 C1088 0.950 . S
H1065 C1089 0.951 . S
H1066 C1091 0.951 . S
H1067 C1093 0.950 . S
H1068 C1094 0.950 . S
H1069 C1096 0.950 . S
H1070 C1099 0.950 . S
H1071 C1100 0.950 . S
H1072 C1102 0.950 . S
H1073 C1103 0.950 . S
C1074 H1056 0.951 . S
C1074 C1075 1.366 . S
C1074 C1076 1.388 . S
C1075 C1074 1.366 . S
C1075 C1079 1.385 . S
C1076 H1057 0.951 . S
C1076 C1074 1.388 . S
C1076 C1077 1.366 . S
C1077 C1076 1.366 . S
C1077 C1078 1.414 . S
C1077 C1080 1.499 . S
C1078 H1058 0.950 . S
C1078 C1077 1.414 . S
C1078 C1079 1.374 . S
C1079 H1059 0.950 . S
C1079 C1075 1.385 . S
C1079 C1078 1.374 . S
C1080 C1077 1.499 . S
C1080 C1081 1.373 . S
C1080 C1082 1.389 . S
C1081 H1060 0.950 . S
C1081 C1080 1.373 . S
C1081 C1097 1.377 1_554 S
C1082 C1080 1.389 . S
C1082 C1083 1.524 . S
C1082 C1096 1.377 1_554 S
C1083 C1082 1.524 . S
C1083 C1084 1.397 . S
C1083 C1088 1.363 . S
C1084 H1061 0.950 . S
C1084 C1083 1.397 . S
C1084 C1085 1.334 . S
C1085 H1062 0.950 . S
C1085 C1084 1.334 . S
C1085 C1086 1.287 . S
C1086 C1085 1.287 . S
C1086 C1087 1.524 . S
C1086 H1105 0.913 . S
C1087 H1063 0.950 . S
C1087 C1086 1.524 . S
C1087 C1088 1.415 . S
C1088 H1064 0.950 . S
C1088 C1083 1.363 . S
C1088 C1087 1.415 . S
C1089 H1065 0.951 . S
C1089 C1090 1.366 . S
C1089 C1091 1.388 . S
C1090 C1089 1.366 . S
C1090 C1094 1.385 . S
C1091 H1066 0.951 . S
C1091 C1089 1.388 . S
C1091 C1092 1.366 . S
C1092 C1091 1.366 . S
C1092 C1093 1.414 . S
C1092 C1095 1.499 . S
C1093 H1067 0.950 . S
C1093 C1092 1.414 . S
C1093 C1094 1.374 . S
C1094 H1068 0.950 . S
C1094 C1090 1.385 . S
C1094 C1093 1.374 . S
C1095 C1092 1.499 . S
C1095 C1096 1.373 . S
C1095 C1097 1.389 . S
C1096 H1069 0.950 . S
C1096 C1082 1.377 1_556 S
C1096 C1095 1.373 . S
C1097 C1081 1.377 1_556 S
C1097 C1095 1.389 . S
C1097 C1098 1.524 . S
C1098 C1097 1.524 . S
C1098 C1099 1.397 . S
C1098 C1103 1.363 . S
C1099 H1070 0.950 . S
C1099 C1098 1.397 . S
C1099 C1100 1.334 . S
C1100 H1071 0.950 . S
C1100 C1099 1.334 . S
C1100 C1101 1.287 . S
C1101 C1100 1.287 . S
C1101 C1102 1.524 . S
C1101 H1104 0.999 . S
C1102 H1072 0.950 . S
C1102 C1101 1.524 . S
C1102 C1103 1.415 . S
C1103 H1073 0.950 . S
C1103 C1098 1.363 . S
C1103 C1102 1.415 . S
H1104 C1101 0.999 . S
H1105 C1086 0.913 . S
H1106 C1124 0.951 . S
H1107 C1126 0.951 . S
H1108 C1128 0.950 . S
H1109 C1129 0.950 . S
H1110 C1131 0.950 . S
H1111 C1134 0.950 . S
H1112 C1135 0.950 . S
H1113 C1137 0.950 . S
H1114 C1138 0.950 . S
H1115 C1139 0.951 . S
H1116 C1141 0.951 . S
H1117 C1143 0.950 . S
H1118 C1144 0.950 . S
H1119 C1146 0.950 . S
H1120 C1149 0.950 . S
H1121 C1150 0.950 . S
H1122 C1152 0.950 . S
H1123 C1153 0.950 . S
C1124 H1106 0.951 . S
C1124 C1125 1.366 . S
C1124 C1126 1.388 . S
C1125 C1124 1.366 . S
C1125 C1129 1.385 . S
C1126 H1107 0.951 . S
C1126 C1124 1.388 . S
C1126 C1127 1.366 . S
C1127 C1126 1.366 . S
C1127 C1128 1.414 . S
C1127 C1130 1.499 . S
C1128 H1108 0.950 . S
C1128 C1127 1.414 . S
C1128 C1129 1.374 . S
C1129 H1109 0.950 . S
C1129 C1125 1.385 . S
C1129 C1128 1.374 . S
C1130 C1127 1.499 . S
C1130 C1131 1.373 . S
C1130 C1132 1.389 . S
C1131 H1110 0.950 . S
C1131 C1130 1.373 . S
C1131 C1147 1.377 . S
C1132 C1130 1.389 . S
C1132 C1133 1.524 . S
C1132 C1146 1.377 . S
C1133 C1132 1.524 . S
C1133 C1134 1.397 . S
C1133 C1138 1.363 . S
C1134 H1111 0.950 . S
C1134 C1133 1.397 . S
C1134 C1135 1.334 . S
C1135 H1112 0.950 . S
C1135 C1134 1.334 . S
C1135 C1136 1.287 . S
C1136 C1135 1.287 . S
C1136 C1137 1.524 . S
C1136 H1155 0.913 . S
C1137 H1113 0.950 . S
C1137 C1136 1.524 . S
C1137 C1138 1.415 . S
C1138 H1114 0.950 . S
C1138 C1133 1.363 . S
C1138 C1137 1.415 . S
C1139 H1115 0.951 . S
C1139 C1140 1.366 . S
C1139 C1141 1.388 . S
C1140 C1139 1.366 . S
C1140 C1144 1.385 . S
C1141 H1116 0.951 . S
C1141 C1139 1.388 . S
C1141 C1142 1.366 . S
C1142 C1141 1.366 . S
C1142 C1143 1.414 . S
C1142 C1145 1.499 . S
C1143 H1117 0.950 . S
C1143 C1142 1.414 . S
C1143 C1144 1.374 . S
C1144 H1118 0.950 . S
C1144 C1140 1.385 . S
C1144 C1143 1.374 . S
C1145 C1142 1.499 . S
C1145 C1146 1.373 . S
C1145 C1147 1.389 . S
C1146 H1119 0.950 . S
C1146 C1132 1.377 . S
C1146 C1145 1.373 . S
C1147 C1131 1.377 . S
C1147 C1145 1.389 . S
C1147 C1148 1.524 . S
C1148 C1147 1.524 . S
C1148 C1149 1.397 . S
C1148 C1153 1.363 . S
C1149 H1120 0.950 . S
C1149 C1148 1.397 . S
C1149 C1150 1.334 . S
C1150 H1121 0.950 . S
C1150 C1149 1.334 . S
C1150 C1151 1.287 . S
C1151 C1150 1.287 . S
C1151 C1152 1.524 . S
C1151 H1154 0.999 . S
C1152 H1122 0.950 . S
C1152 C1151 1.524 . S
C1152 C1153 1.415 . S
C1153 H1123 0.950 . S
C1153 C1148 1.363 . S
C1153 C1152 1.415 . S
H1154 C1151 0.999 . S
H1155 C1136 0.913 . S
H1156 C1174 0.951 . S
H1157 C1176 0.951 . S
H1158 C1178 0.950 . S
H1159 C1179 0.950 . S
H1160 C1181 0.950 . S
H1161 C1184 0.950 . S
H1162 C1185 0.950 . S
H1163 C1187 0.950 . S
H1164 C1188 0.950 . S
H1165 C1189 0.951 . S
H1166 C1191 0.951 . S
H1167 C1193 0.950 . S
H1168 C1194 0.950 . S
H1169 C1196 0.950 . S
H1170 C1199 0.950 . S
H1171 C1200 0.950 . S
H1172 C1202 0.950 . S
H1173 C1203 0.950 . S
C1174 H1156 0.951 . S
C1174 C1175 1.366 . S
C1174 C1176 1.388 . S
C1175 C1174 1.366 . S
C1175 C1179 1.385 . S
C1176 H1157 0.951 . S
C1176 C1174 1.388 . S
C1176 C1177 1.366 . S
C1177 C1176 1.366 . S
C1177 C1178 1.414 . S
C1177 C1180 1.499 . S
C1178 H1158 0.950 . S
C1178 C1177 1.414 . S
C1178 C1179 1.374 . S
C1179 H1159 0.950 . S
C1179 C1175 1.385 . S
C1179 C1178 1.374 . S
C1180 C1177 1.499 . S
C1180 C1181 1.373 . S
C1180 C1182 1.389 . S
C1181 H1160 0.950 . S
C1181 C1180 1.373 . S
C1181 C1197 1.377 . S
C1182 C1180 1.389 . S
C1182 C1183 1.524 . S
C1182 C1196 1.377 . S
C1183 C1182 1.524 . S
C1183 C1184 1.397 . S
C1183 C1188 1.363 . S
C1184 H1161 0.950 . S
C1184 C1183 1.397 . S
C1184 C1185 1.334 . S
C1185 H1162 0.950 . S
C1185 C1184 1.334 . S
C1185 C1186 1.287 . S
C1186 C1185 1.287 . S
C1186 C1187 1.524 . S
C1186 H1205 0.913 . S
C1187 H1163 0.950 . S
C1187 C1186 1.524 . S
C1187 C1188 1.415 . S
C1188 H1164 0.950 . S
C1188 C1183 1.363 . S
C1188 C1187 1.415 . S
C1189 H1165 0.951 . S
C1189 C1190 1.366 . S
C1189 C1191 1.388 . S
C1190 C1189 1.366 . S
C1190 C1194 1.385 . S
C1191 H1166 0.951 . S
C1191 C1189 1.388 . S
C1191 C1192 1.366 . S
C1192 C1191 1.366 . S
C1192 C1193 1.414 . S
C1192 C1195 1.499 . S
C1193 H1167 0.950 . S
C1193 C1192 1.414 . S
C1193 C1194 1.374 . S
C1194 H1168 0.950 . S
C1194 C1190 1.385 . S
C1194 C1193 1.374 . S
C1195 C1192 1.499 . S
C1195 C1196 1.373 . S
C1195 C1197 1.389 . S
C1196 H1169 0.950 . S
C1196 C1182 1.377 . S
C1196 C1195 1.373 . S
C1197 C1181 1.377 . S
C1197 C1195 1.389 . S
C1197 C1198 1.524 . S
C1198 C1197 1.524 . S
C1198 C1199 1.397 . S
C1198 C1203 1.363 . S
C1199 H1170 0.950 . S
C1199 C1198 1.397 . S
C1199 C1200 1.334 . S
C1200 H1171 0.950 . S
C1200 C1199 1.334 . S
C1200 C1201 1.287 . S
C1201 C1200 1.287 . S
C1201 C1202 1.524 . S
C1201 H1204 0.999 . S
C1202 H1172 0.950 . S
C1202 C1201 1.524 . S
C1202 C1203 1.415 . S
C1203 H1173 0.950 . S
C1203 C1198 1.363 . S
C1203 C1202 1.415 . S
H1204 C1201 0.999 . S
H1205 C1186 0.913 . S
H1206 C1224 0.951 . S
H1207 C1226 0.951 . S
H1208 C1228 0.950 . S
H1209 C1229 0.950 . S
H1210 C1231 0.950 . S
H1211 C1234 0.950 . S
H1212 C1235 0.950 . S
H1213 C1237 0.950 . S
H1214 C1238 0.950 . S
H1215 C1239 0.951 . S
H1216 C1241 0.951 . S
H1217 C1243 0.950 . S
H1218 C1244 0.950 . S
H1219 C1246 0.950 . S
H1220 C1249 0.950 . S
H1221 C1250 0.950 . S
H1222 C1252 0.950 . S
H1223 C1253 0.950 . S
C1224 H1206 0.951 . S
C1224 C1225 1.366 . S
C1224 C1226 1.388 . S
C1225 C1224 1.366 . S
C1225 C1229 1.385 . S
C1226 H1207 0.951 . S
C1226 C1224 1.388 . S
C1226 C1227 1.366 . S
C1227 C1226 1.366 . S
C1227 C1228 1.414 . S
C1227 C1230 1.499 . S
C1228 H1208 0.950 . S
C1228 C1227 1.414 . S
C1228 C1229 1.374 . S
C1229 H1209 0.950 . S
C1229 C1225 1.385 . S
C1229 C1228 1.374 . S
C1230 C1227 1.499 . S
C1230 C1231 1.373 . S
C1230 C1232 1.390 . S
C1231 H1210 0.950 . S
C1231 C1230 1.373 . S
C1231 C1247 1.371 1_554 S
C1232 C1230 1.390 . S
C1232 C1233 1.523 1_554 S
C1232 C1246 1.376 1_554 S
C1233 C1232 1.523 1_556 S
C1233 C1234 1.367 1_556 S
C1233 C1238 1.396 . S
C1234 H1211 0.950 . S
C1234 C1233 1.367 1_554 S
C1234 C1235 1.334 . S
C1235 H1212 0.950 . S
C1235 C1234 1.334 . S
C1235 C1236 1.263 1_554 S
C1236 C1235 1.263 1_556 S
C1236 C1237 1.547 . S
C1236 H1255 0.913 . S
C1237 H1213 0.950 . S
C1237 C1236 1.547 . S
C1237 C1238 1.415 . S
C1238 H1214 0.950 . S
C1238 C1233 1.396 . S
C1238 C1237 1.415 . S
C1239 H1215 0.951 . S
C1239 C1240 1.366 . S
C1239 C1241 1.388 . S
C1240 C1239 1.366 . S
C1240 C1244 1.385 . S
C1241 H1216 0.951 . S
C1241 C1239 1.388 . S
C1241 C1242 1.366 . S
C1242 C1241 1.366 . S
C1242 C1243 1.414 . S
C1242 C1245 1.499 . S
C1243 H1217 0.950 . S
C1243 C1242 1.414 . S
C1243 C1244 1.374 . S
C1244 H1218 0.950 . S
C1244 C1240 1.385 . S
C1244 C1243 1.374 . S
C1245 C1242 1.499 . S
C1245 C1246 1.373 . S
C1245 C1247 1.395 . S
C1246 H1219 0.950 . S
C1246 C1232 1.376 1_556 S
C1246 C1245 1.373 . S
C1247 C1231 1.371 1_556 S
C1247 C1245 1.395 . S
C1247 C1248 1.523 1_556 S
C1248 C1247 1.523 1_554 S
C1248 C1249 1.371 1_554 S
C1248 C1253 1.392 . S
C1249 H1220 0.950 . S
C1249 C1248 1.371 1_556 S
C1249 C1250 1.334 . S
C1250 H1221 0.950 . S
C1250 C1249 1.334 . S
C1250 C1251 1.267 1_556 S
C1251 C1250 1.267 1_554 S
C1251 C1252 1.543 . S
C1251 H1254 1.000 . S
C1252 H1222 0.950 . S
C1252 C1251 1.543 . S
C1252 C1253 1.415 . S
C1253 H1223 0.950 . S
C1253 C1248 1.392 . S
C1253 C1252 1.415 . S
H1254 C1251 1.000 . S
H1255 C1236 0.913 . S
H1256 C1274 0.951 . S
H1257 C1276 0.951 . S
H1258 C1278 0.950 . S
H1259 C1279 0.950 . S
H1260 C1281 0.950 . S
H1261 C1284 0.950 . S
H1262 C1285 0.950 . S
H1263 C1287 0.950 . S
H1264 C1288 0.950 . S
H1265 C1289 0.951 . S
H1266 C1291 0.951 . S
H1267 C1293 0.950 . S
H1268 C1294 0.950 . S
H1269 C1296 0.950 . S
H1270 C1299 0.950 . S
H1271 C1300 0.950 . S
H1272 C1302 0.950 . S
H1273 C1303 0.950 . S
C1274 H1256 0.951 . S
C1274 C1275 1.366 . S
C1274 C1276 1.388 . S
C1275 C1274 1.366 . S
C1275 C1279 1.385 . S
C1276 H1257 0.951 . S
C1276 C1274 1.388 . S
C1276 C1277 1.366 . S
C1277 C1276 1.366 . S
C1277 C1278 1.414 . S
C1277 C1280 1.499 . S
C1278 H1258 0.950 . S
C1278 C1277 1.414 . S
C1278 C1279 1.374 . S
C1279 H1259 0.950 . S
C1279 C1275 1.385 . S
C1279 C1278 1.374 . S
C1280 C1277 1.499 . S
C1280 C1281 1.373 . S
C1280 C1282 1.389 . S
C1281 H1260 0.950 . S
C1281 C1280 1.373 . S
C1281 C1297 1.377 . S
C1282 C1280 1.389 . S
C1282 C1283 1.524 . S
C1282 C1296 1.377 . S
C1283 C1282 1.524 . S
C1283 C1284 1.397 . S
C1283 C1288 1.363 . S
C1284 H1261 0.950 . S
C1284 C1283 1.397 . S
C1284 C1285 1.334 . S
C1285 H1262 0.950 . S
C1285 C1284 1.334 . S
C1285 C1286 1.287 . S
C1286 C1285 1.287 . S
C1286 C1287 1.524 . S
C1286 H1305 0.913 . S
C1287 H1263 0.950 . S
C1287 C1286 1.524 . S
C1287 C1288 1.415 . S
C1288 H1264 0.950 . S
C1288 C1283 1.363 . S
C1288 C1287 1.415 . S
C1289 H1265 0.951 . S
C1289 C1290 1.366 . S
C1289 C1291 1.388 . S
C1290 C1289 1.366 . S
C1290 C1294 1.385 . S
C1291 H1266 0.951 . S
C1291 C1289 1.388 . S
C1291 C1292 1.366 . S
C1292 C1291 1.366 . S
C1292 C1293 1.414 . S
C1292 C1295 1.499 . S
C1293 H1267 0.950 . S
C1293 C1292 1.414 . S
C1293 C1294 1.374 . S
C1294 H1268 0.950 . S
C1294 C1290 1.385 . S
C1294 C1293 1.374 . S
C1295 C1292 1.499 . S
C1295 C1296 1.373 . S
C1295 C1297 1.389 . S
C1296 H1269 0.950 . S
C1296 C1282 1.377 . S
C1296 C1295 1.373 . S
C1297 C1281 1.377 . S
C1297 C1295 1.389 . S
C1297 C1298 1.524 . S
C1298 C1297 1.524 . S
C1298 C1299 1.397 . S
C1298 C1303 1.363 . S
C1299 H1270 0.950 . S
C1299 C1298 1.397 . S
C1299 C1300 1.334 . S
C1300 H1271 0.950 . S
C1300 C1299 1.334 . S
C1300 C1301 1.287 . S
C1301 C1300 1.287 . S
C1301 C1302 1.524 . S
C1301 H1304 0.999 . S
C1302 H1272 0.950 . S
C1302 C1301 1.524 . S
C1302 C1303 1.415 . S
C1303 H1273 0.950 . S
C1303 C1298 1.363 . S
C1303 C1302 1.415 . S
H1304 C1301 0.999 . S
H1305 C1286 0.913 . S
H1306 C1324 0.951 . S
H1307 C1326 0.951 . S
H1308 C1328 0.950 . S
H1309 C1329 0.950 . S
H1310 C1331 0.950 . S
H1311 C1334 0.950 . S
H1312 C1335 0.950 . S
H1313 C1337 0.950 . S
H1314 C1338 0.950 . S
H1315 C1339 0.951 . S
H1316 C1341 0.951 . S
H1317 C1343 0.950 . S
H1318 C1344 0.950 . S
H1319 C1346 0.950 . S
H1320 C1349 0.950 . S
H1321 C1350 0.950 . S
H1322 C1352 0.950 . S
H1323 C1353 0.950 . S
C1324 H1306 0.951 . S
C1324 C1325 1.366 . S
C1324 C1326 1.388 . S
C1325 C1324 1.366 . S
C1325 C1329 1.385 . S
C1326 H1307 0.951 . S
C1326 C1324 1.388 . S
C1326 C1327 1.366 . S
C1327 C1326 1.366 . S
C1327 C1328 1.414 . S
C1327 C1330 1.499 . S
C1328 H1308 0.950 . S
C1328 C1327 1.414 . S
C1328 C1329 1.374 . S
C1329 H1309 0.950 . S
C1329 C1325 1.385 . S
C1329 C1328 1.374 . S
C1330 C1327 1.499 . S
C1330 C1331 1.373 . S
C1330 C1332 1.389 . S
C1331 H1310 0.950 . S
C1331 C1330 1.373 . S
C1331 C1347 1.377 . S
C1332 C1330 1.389 . S
C1332 C1333 1.524 . S
C1332 C1346 1.377 . S
C1333 C1332 1.524 . S
C1333 C1334 1.397 . S
C1333 C1338 1.363 . S
C1334 H1311 0.950 . S
C1334 C1333 1.397 . S
C1334 C1335 1.334 . S
C1335 H1312 0.950 . S
C1335 C1334 1.334 . S
C1335 C1336 1.287 . S
C1336 C1335 1.287 . S
C1336 C1337 1.524 . S
C1336 H1355 0.913 . S
C1337 H1313 0.950 . S
C1337 C1336 1.524 . S
C1337 C1338 1.415 . S
C1338 H1314 0.950 . S
C1338 C1333 1.363 . S
C1338 C1337 1.415 . S
C1339 H1315 0.951 . S
C1339 C1340 1.366 . S
C1339 C1341 1.388 . S
C1340 C1339 1.366 . S
C1340 C1344 1.385 . S
C1341 H1316 0.951 . S
C1341 C1339 1.388 . S
C1341 C1342 1.366 . S
C1342 C1341 1.366 . S
C1342 C1343 1.414 . S
C1342 C1345 1.499 . S
C1343 H1317 0.950 . S
C1343 C1342 1.414 . S
C1343 C1344 1.374 . S
C1344 H1318 0.950 . S
C1344 C1340 1.385 . S
C1344 C1343 1.374 . S
C1345 C1342 1.499 . S
C1345 C1346 1.373 . S
C1345 C1347 1.389 . S
C1346 H1319 0.950 . S
C1346 C1332 1.377 . S
C1346 C1345 1.373 . S
C1347 C1331 1.377 . S
C1347 C1345 1.389 . S
C1347 C1348 1.524 . S
C1348 C1347 1.524 . S
C1348 C1349 1.397 . S
C1348 C1353 1.363 . S
C1349 H1320 0.950 . S
C1349 C1348 1.397 . S
C1349 C1350 1.334 . S
C1350 H1321 0.950 . S
C1350 C1349 1.334 . S
C1350 C1351 1.287 . S
C1351 C1350 1.287 . S
C1351 C1352 1.524 . S
C1351 H1354 0.999 . S
C1352 H1322 0.950 . S
C1352 C1351 1.524 . S
C1352 C1353 1.415 . S
C1353 H1323 0.950 . S
C1353 C1348 1.363 . S
C1353 C1352 1.415 . S
H1354 C1351 0.999 . S
H1355 C1336 0.913 . S
H1356 C1374 0.951 . S
H1357 C1376 0.951 . S
H1358 C1378 0.950 1_565 S
H1359 C1379 0.950 . S
H1360 C1381 0.950 . S
H1361 C1384 0.950 . S
H1362 C1385 0.950 . S
H1363 C1387 0.950 . S
H1364 C1388 0.973 . S
H1365 C1389 0.951 . S
H1366 C1391 0.951 . S
H1367 C1393 0.950 1_545 S
H1368 C1394 0.950 . S
H1369 C1396 0.950 . S
H1370 C1399 0.950 . S
H1371 C1400 0.950 . S
H1372 C1402 0.950 . S
H1373 C1403 0.976 . S
C1374 H1356 0.951 . S
C1374 C1375 1.366 . S
C1374 C1376 1.388 . S
C1375 C1374 1.366 . S
C1375 C1379 1.385 . S
C1376 H1357 0.951 . S
C1376 C1374 1.388 . S
C1376 C1377 1.366 . S
C1377 C1376 1.366 . S
C1377 C1378 1.414 . S
C1377 C1380 1.499 . S
C1378 H1358 0.950 1_545 S
C1378 C1377 1.414 . S
C1378 C1379 1.374 . S
C1379 H1359 0.950 . S
C1379 C1375 1.385 . S
C1379 C1378 1.374 . S
C1380 C1377 1.499 . S
C1380 C1381 1.373 . S
C1380 C1382 1.390 . S
C1381 H1360 0.950 . S
C1381 C1380 1.373 . S
C1381 C1397 1.376 1_544 S
C1382 C1380 1.390 . S
C1382 C1383 1.523 1_545 S
C1382 C1396 1.377 1_544 S
C1383 C1382 1.523 1_565 S
C1383 C1384 1.397 . S
C1383 C1388 1.363 1_565 S
C1384 H1361 0.950 . S
C1384 C1383 1.397 . S
C1384 C1385 1.334 . S
C1385 H1362 0.950 . S
C1385 C1384 1.334 . S
C1385 C1386 1.287 . S
C1386 C1385 1.287 . S
C1386 C1387 1.524 1_565 S
C1386 H1405 0.913 . S
C1387 H1363 0.950 . S
C1387 C1386 1.524 1_545 S
C1387 C1388 1.415 . S
C1388 H1364 0.973 . S
C1388 C1383 1.363 1_545 S
C1388 C1387 1.415 . S
C1389 H1365 0.951 . S
C1389 C1390 1.366 . S
C1389 C1391 1.388 . S
C1390 C1389 1.366 . S
C1390 C1394 1.385 . S
C1391 H1366 0.951 . S
C1391 C1389 1.388 . S
C1391 C1392 1.366 . S
C1392 C1391 1.366 . S
C1392 C1393 1.414 . S
C1392 C1395 1.499 . S
C1393 H1367 0.950 1_565 S
C1393 C1392 1.414 . S
C1393 C1394 1.374 . S
C1394 H1368 0.950 . S
C1394 C1390 1.385 . S
C1394 C1393 1.374 . S
C1395 C1392 1.499 . S
C1395 C1396 1.373 . S
C1395 C1397 1.389 . S
C1396 H1369 0.950 . S
C1396 C1382 1.377 1_566 S
C1396 C1395 1.373 . S
C1397 C1381 1.376 1_566 S
C1397 C1395 1.389 . S
C1397 C1398 1.525 1_565 S
C1398 C1397 1.525 1_545 S
C1398 C1399 1.397 . S
C1398 C1403 1.363 1_545 S
C1399 H1370 0.950 . S
C1399 C1398 1.397 . S
C1399 C1400 1.334 . S
C1400 H1371 0.950 . S
C1400 C1399 1.334 . S
C1400 C1401 1.287 . S
C1401 C1400 1.287 . S
C1401 C1402 1.524 1_545 S
C1401 H1404 0.999 . S
C1402 H1372 0.950 . S
C1402 C1401 1.524 1_565 S
C1402 C1403 1.415 . S
C1403 H1373 0.976 . S
C1403 C1398 1.363 1_565 S
C1403 C1402 1.415 . S
H1404 C1401 0.999 . S
H1405 C1386 0.913 . S
H1406 C1424 0.951 . S
H1407 C1426 0.951 . S
H1408 C1428 0.950 . S
H1409 C1429 0.950 . S
H1410 C1431 0.950 . S
H1411 C1434 0.950 . S
H1412 C1435 0.950 . S
H1413 C1437 0.950 . S
H1414 C1438 0.950 . S
H1415 C1439 0.951 . S
H1416 C1441 0.951 . S
H1417 C1443 0.950 . S
H1418 C1444 0.950 . S
H1419 C1446 0.950 . S
H1420 C1449 0.950 . S
H1421 C1450 0.950 . S
H1422 C1452 0.950 . S
H1423 C1453 0.950 . S
C1424 H1406 0.951 . S
C1424 C1425 1.366 . S
C1424 C1426 1.388 . S
C1425 C1424 1.366 . S
C1425 C1429 1.385 . S
C1426 H1407 0.951 . S
C1426 C1424 1.388 . S
C1426 C1427 1.366 . S
C1427 C1426 1.366 . S
C1427 C1428 1.414 . S
C1427 C1430 1.499 . S
C1428 H1408 0.950 . S
C1428 C1427 1.414 . S
C1428 C1429 1.374 . S
C1429 H1409 0.950 . S
C1429 C1425 1.385 . S
C1429 C1428 1.374 . S
C1430 C1427 1.499 . S
C1430 C1431 1.373 . S
C1430 C1432 1.389 . S
C1431 H1410 0.950 . S
C1431 C1430 1.373 . S
C1431 C1447 1.377 . S
C1432 C1430 1.389 . S
C1432 C1433 1.524 . S
C1432 C1446 1.377 . S
C1433 C1432 1.524 . S
C1433 C1434 1.397 . S
C1433 C1438 1.363 . S
C1434 H1411 0.950 . S
C1434 C1433 1.397 . S
C1434 C1435 1.334 . S
C1435 H1412 0.950 . S
C1435 C1434 1.334 . S
C1435 C1436 1.287 . S
C1436 C1435 1.287 . S
C1436 C1437 1.524 . S
C1436 H1455 0.913 . S
C1437 H1413 0.950 . S
C1437 C1436 1.524 . S
C1437 C1438 1.415 . S
C1438 H1414 0.950 . S
C1438 C1433 1.363 . S
C1438 C1437 1.415 . S
C1439 H1415 0.951 . S
C1439 C1440 1.366 . S
C1439 C1441 1.388 . S
C1440 C1439 1.366 . S
C1440 C1444 1.385 . S
C1441 H1416 0.951 . S
C1441 C1439 1.388 . S
C1441 C1442 1.366 . S
C1442 C1441 1.366 . S
C1442 C1443 1.414 . S
C1442 C1445 1.499 . S
C1443 H1417 0.950 . S
C1443 C1442 1.414 . S
C1443 C1444 1.374 . S
C1444 H1418 0.950 . S
C1444 C1440 1.385 . S
C1444 C1443 1.374 . S
C1445 C1442 1.499 . S
C1445 C1446 1.373 . S
C1445 C1447 1.389 . S
C1446 H1419 0.950 . S
C1446 C1432 1.377 . S
C1446 C1445 1.373 . S
C1447 C1431 1.377 . S
C1447 C1445 1.389 . S
C1447 C1448 1.524 . S
C1448 C1447 1.524 . S
C1448 C1449 1.397 . S
C1448 C1453 1.363 . S
C1449 H1420 0.950 . S
C1449 C1448 1.397 . S
C1449 C1450 1.334 . S
C1450 H1421 0.950 . S
C1450 C1449 1.334 . S
C1450 C1451 1.287 . S
C1451 C1450 1.287 . S
C1451 C1452 1.524 . S
C1451 H1454 0.999 . S
C1452 H1422 0.950 . S
C1452 C1451 1.524 . S
C1452 C1453 1.415 . S
C1453 H1423 0.950 . S
C1453 C1448 1.363 . S
C1453 C1452 1.415 . S
H1454 C1451 0.999 . S
H1455 C1436 0.913 . S
H1456 C1474 0.951 . S
H1457 C1476 0.951 . S
H1458 C1478 1.005 . S
H1459 C1479 0.950 . S
H1460 C1481 0.950 . S
H1461 C1484 0.950 . S
H1462 C1485 0.950 . S
H1463 C1487 0.950 . S
H1464 C1488 0.929 1_455 S
H1465 C1489 0.951 . S
H1466 C1491 0.951 . S
H1467 C1493 1.008 . S
H1468 C1494 0.950 . S
H1469 C1496 0.950 . S
H1470 C1499 0.950 . S
H1471 C1500 0.950 . S
H1472 C1502 0.950 . S
H1473 C1503 0.930 1_655 S
C1474 H1456 0.951 . S
C1474 C1475 1.366 . S
C1474 C1476 1.388 . S
C1475 C1474 1.366 . S
C1475 C1479 1.385 . S
C1476 H1457 0.951 . S
C1476 C1474 1.388 . S
C1476 C1477 1.366 . S
C1477 C1476 1.366 . S
C1477 C1478 1.414 . S
C1477 C1480 1.499 . S
C1478 H1458 1.005 . S
C1478 C1477 1.414 . S
C1478 C1479 1.374 . S
C1479 H1459 0.950 . S
C1479 C1475 1.385 . S
C1479 C1478 1.374 . S
C1480 C1477 1.499 . S
C1480 C1481 1.373 . S
C1480 C1482 1.389 1_455 S
C1481 H1460 0.950 . S
C1481 C1480 1.373 . S
C1481 C1497 1.377 . S
C1482 C1480 1.389 1_655 S
C1482 C1483 1.524 . S
C1482 C1496 1.377 . S
C1483 C1482 1.524 . S
C1483 C1484 1.397 . S
C1483 C1488 1.397 . S
C1484 H1461 0.950 . S
C1484 C1483 1.397 . S
C1484 C1485 1.334 . S
C1485 H1462 0.950 . S
C1485 C1484 1.334 . S
C1485 C1486 1.287 . S
C1486 C1485 1.287 . S
C1486 C1487 1.524 . S
C1486 H1505 0.913 . S
C1487 H1463 0.950 . S
C1487 C1486 1.524 . S
C1487 C1488 1.405 . S
C1488 H1464 0.929 1_655 S
C1488 C1483 1.397 . S
C1488 C1487 1.405 . S
C1489 H1465 0.951 . S
C1489 C1490 1.366 . S
C1489 C1491 1.388 . S
C1490 C1489 1.366 . S
C1490 C1494 1.385 . S
C1491 H1466 0.951 . S
C1491 C1489 1.388 . S
C1491 C1492 1.366 . S
C1492 C1491 1.366 . S
C1492 C1493 1.414 . S
C1492 C1495 1.499 . S
C1493 H1467 1.008 . S
C1493 C1492 1.414 . S
C1493 C1494 1.374 . S
C1494 H1468 0.950 . S
C1494 C1490 1.385 . S
C1494 C1493 1.374 . S
C1495 C1492 1.499 . S
C1495 C1496 1.373 . S
C1495 C1497 1.389 1_655 S
C1496 H1469 0.950 . S
C1496 C1482 1.377 . S
C1496 C1495 1.373 . S
C1497 C1481 1.377 . S
C1497 C1495 1.389 1_455 S
C1497 C1498 1.524 . S
C1498 C1497 1.524 . S
C1498 C1499 1.397 . S
C1498 C1503 1.395 . S
C1499 H1470 0.950 . S
C1499 C1498 1.397 . S
C1499 C1500 1.334 . S
C1500 H1471 0.950 . S
C1500 C1499 1.334 . S
C1500 C1501 1.287 . S
C1501 C1500 1.287 . S
C1501 C1502 1.524 . S
C1501 H1504 0.999 . S
C1502 H1472 0.950 . S
C1502 C1501 1.524 . S
C1502 C1503 1.405 . S
C1503 H1473 0.930 1_455 S
C1503 C1498 1.395 . S
C1503 C1502 1.405 . S
H1504 C1501 0.999 . S
H1505 C1486 0.913 . S
H1506 C1524 0.951 . S
H1507 C1526 0.951 . S
H1508 C1528 0.950 1_545 S
H1509 C1529 0.950 . S
H1510 C1531 0.950 . S
H1511 C1534 0.950 . S
H1512 C1535 0.950 . S
H1513 C1537 0.950 . S
H1514 C1538 0.950 1_556 S
H1515 C1539 0.951 . S
H1516 C1541 0.951 . S
H1517 C1543 0.950 1_565 S
H1518 C1544 0.950 . S
H1519 C1546 0.950 . S
H1520 C1549 0.950 . S
H1521 C1550 0.950 . S
H1522 C1552 0.950 . S
H1523 C1553 0.950 1_554 S
C1524 H1506 0.951 . S
C1524 C1525 1.366 . S
C1524 C1526 1.388 . S
C1525 C1524 1.366 . S
C1525 C1529 1.385 . S
C1526 H1507 0.951 . S
C1526 C1524 1.388 . S
C1526 C1527 1.366 . S
C1527 C1526 1.366 . S
C1527 C1528 1.414 . S
C1527 C1530 1.499 . S
C1528 H1508 0.950 1_565 S
C1528 C1527 1.414 . S
C1528 C1529 1.374 . S
C1529 H1509 0.950 . S
C1529 C1525 1.385 . S
C1529 C1528 1.374 . S
C1530 C1527 1.499 . S
C1530 C1531 1.373 . S
C1530 C1532 1.389 . S
C1531 H1510 0.950 . S
C1531 C1530 1.373 . S
C1531 C1547 1.377 1_564 S
C1532 C1530 1.389 . S
C1532 C1533 1.524 . S
C1532 C1546 1.377 1_564 S
C1533 C1532 1.524 . S
C1533 C1534 1.397 1_565 S
C1533 C1538 1.363 . S
C1534 H1511 0.950 . S
C1534 C1533 1.397 1_545 S
C1534 C1535 1.334 . S
C1535 H1512 0.950 . S
C1535 C1534 1.334 . S
C1535 C1536 1.287 1_545 S
C1536 C1535 1.287 1_565 S
C1536 C1537 1.524 . S
C1536 H1555 0.913 . S
C1537 H1513 0.950 . S
C1537 C1536 1.524 . S
C1537 C1538 1.415 . S
C1538 H1514 0.950 1_554 S
C1538 C1533 1.363 . S
C1538 C1537 1.415 . S
C1539 H1515 0.951 . S
C1539 C1540 1.366 . S
C1539 C1541 1.388 . S
C1540 C1539 1.366 . S
C1540 C1544 1.385 . S
C1541 H1516 0.951 . S
C1541 C1539 1.388 . S
C1541 C1542 1.366 . S
C1542 C1541 1.366 . S
C1542 C1543 1.414 . S
C1542 C1545 1.499 . S
C1543 H1517 0.950 1_545 S
C1543 C1542 1.414 . S
C1543 C1544 1.374 . S
C1544 H1518 0.950 . S
C1544 C1540 1.385 . S
C1544 C1543 1.374 . S
C1545 C1542 1.499 . S
C1545 C1546 1.373 . S
C1545 C1547 1.389 . S
C1546 H1519 0.950 . S
C1546 C1532 1.377 1_546 S
C1546 C1545 1.373 . S
C1547 C1531 1.377 1_546 S
C1547 C1545 1.389 . S
C1547 C1548 1.524 . S
C1548 C1547 1.524 . S
C1548 C1549 1.397 1_545 S
C1548 C1553 1.363 . S
C1549 H1520 0.950 . S
C1549 C1548 1.397 1_565 S
C1549 C1550 1.334 . S
C1550 H1521 0.950 . S
C1550 C1549 1.334 . S
C1550 C1551 1.287 1_565 S
C1551 C1550 1.287 1_545 S
C1551 C1552 1.524 . S
C1551 H1554 0.999 . S
C1552 H1522 0.950 . S
C1552 C1551 1.524 . S
C1552 C1553 1.415 . S
C1553 H1523 0.950 1_556 S
C1553 C1548 1.363 . S
C1553 C1552 1.415 . S
H1554 C1551 0.999 . S
H1555 C1536 0.913 . S
H1556 C1574 0.951 . S
H1557 C1576 0.951 . S
H1558 C1578 0.950 . S
H1559 C1579 0.950 . S
H1560 C1581 0.950 . S
H1561 C1584 0.950 . S
H1562 C1585 0.950 . S
H1563 C1587 0.950 . S
H1564 C1588 0.950 . S
H1565 C1589 0.951 . S
H1566 C1591 0.951 . S
H1567 C1593 0.950 . S
H1568 C1594 0.950 . S
H1569 C1596 0.950 . S
H1570 C1599 0.950 . S
H1571 C1600 0.950 . S
H1572 C1602 0.950 . S
H1573 C1603 0.950 . S
C1574 H1556 0.951 . S
C1574 C1575 1.366 . S
C1574 C1576 1.388 . S
C1575 C1574 1.366 . S
C1575 C1579 1.385 . S
C1576 H1557 0.951 . S
C1576 C1574 1.388 . S
C1576 C1577 1.366 . S
C1577 C1576 1.366 . S
C1577 C1578 1.414 . S
C1577 C1580 1.499 . S
C1578 H1558 0.950 . S
C1578 C1577 1.414 . S
C1578 C1579 1.374 . S
C1579 H1559 0.950 . S
C1579 C1575 1.385 . S
C1579 C1578 1.374 . S
C1580 C1577 1.499 . S
C1580 C1581 1.373 . S
C1580 C1582 1.389 . S
C1581 H1560 0.950 . S
C1581 C1580 1.373 . S
C1581 C1597 1.377 . S
C1582 C1580 1.389 . S
C1582 C1583 1.524 . S
C1582 C1596 1.377 . S
C1583 C1582 1.524 . S
C1583 C1584 1.397 . S
C1583 C1588 1.363 . S
C1584 H1561 0.950 . S
C1584 C1583 1.397 . S
C1584 C1585 1.334 . S
C1585 H1562 0.950 . S
C1585 C1584 1.334 . S
C1585 C1586 1.287 . S
C1586 C1585 1.287 . S
C1586 C1587 1.524 . S
C1586 H1605 0.913 . S
C1587 H1563 0.950 . S
C1587 C1586 1.524 . S
C1587 C1588 1.415 . S
C1588 H1564 0.950 . S
C1588 C1583 1.363 . S
C1588 C1587 1.415 . S
C1589 H1565 0.951 . S
C1589 C1590 1.366 . S
C1589 C1591 1.388 . S
C1590 C1589 1.366 . S
C1590 C1594 1.385 . S
C1591 H1566 0.951 . S
C1591 C1589 1.388 . S
C1591 C1592 1.366 . S
C1592 C1591 1.366 . S
C1592 C1593 1.414 . S
C1592 C1595 1.499 . S
C1593 H1567 0.950 . S
C1593 C1592 1.414 . S
C1593 C1594 1.374 . S
C1594 H1568 0.950 . S
C1594 C1590 1.385 . S
C1594 C1593 1.374 . S
C1595 C1592 1.499 . S
C1595 C1596 1.373 . S
C1595 C1597 1.389 . S
C1596 H1569 0.950 . S
C1596 C1582 1.377 . S
C1596 C1595 1.373 . S
C1597 C1581 1.377 . S
C1597 C1595 1.389 . S
C1597 C1598 1.524 . S
C1598 C1597 1.524 . S
C1598 C1599 1.397 . S
C1598 C1603 1.363 . S
C1599 H1570 0.950 . S
C1599 C1598 1.397 . S
C1599 C1600 1.334 . S
C1600 H1571 0.950 . S
C1600 C1599 1.334 . S
C1600 C1601 1.287 . S
C1601 C1600 1.287 . S
C1601 C1602 1.524 . S
C1601 H1604 0.999 . S
C1602 H1572 0.950 . S
C1602 C1601 1.524 . S
C1602 C1603 1.415 . S
C1603 H1573 0.950 . S
C1603 C1598 1.363 . S
C1603 C1602 1.415 . S
H1604 C1601 0.999 . S
H1605 C1586 0.913 . S
H1606 C1624 0.951 . S
H1607 C1626 0.951 1_655 S
H1608 C1628 0.950 . S
H1609 C1629 0.950 . S
H1610 C1631 0.950 . S
H1611 C1634 0.950 1_455 S
H1612 C1635 0.950 . S
H1613 C1637 0.950 . S
H1614 C1638 0.950 . S
H1615 C1639 0.951 . S
H1616 C1641 0.951 1_455 S
H1617 C1643 0.950 . S
H1618 C1644 0.950 . S
H1619 C1646 0.950 . S
H1620 C1649 0.950 1_655 S
H1621 C1650 0.950 . S
H1622 C1652 0.950 . S
H1623 C1653 0.950 . S
C1624 H1606 0.951 . S
C1624 C1625 1.366 . S
C1624 C1626 1.388 . S
C1625 C1624 1.366 . S
C1625 C1629 1.385 . S
C1626 H1607 0.951 1_455 S
C1626 C1624 1.388 . S
C1626 C1627 1.366 . S
C1627 C1626 1.366 . S
C1627 C1628 1.414 . S
C1627 C1630 1.499 . S
C1628 H1608 0.950 . S
C1628 C1627 1.414 . S
C1628 C1629 1.374 . S
C1629 H1609 0.950 . S
C1629 C1625 1.385 . S
C1629 C1628 1.374 . S
C1630 C1627 1.499 . S
C1630 C1631 1.373 . S
C1630 C1632 1.389 1_455 S
C1631 H1610 0.950 . S
C1631 C1630 1.373 . S
C1631 C1647 1.377 . S
C1632 C1630 1.389 1_655 S
C1632 C1633 1.524 . S
C1632 C1646 1.377 . S
C1633 C1632 1.524 . S
C1633 C1634 1.397 . S
C1633 C1638 1.363 . S
C1634 H1611 0.950 1_655 S
C1634 C1633 1.397 . S
C1634 C1635 1.334 . S
C1635 H1612 0.950 . S
C1635 C1634 1.334 . S
C1635 C1636 1.287 . S
C1636 C1635 1.287 . S
C1636 C1637 1.524 . S
C1636 H1655 0.913 . S
C1637 H1613 0.950 . S
C1637 C1636 1.524 . S
C1637 C1638 1.415 . S
C1638 H1614 0.950 . S
C1638 C1633 1.363 . S
C1638 C1637 1.415 . S
C1639 H1615 0.951 . S
C1639 C1640 1.366 . S
C1639 C1641 1.388 . S
C1640 C1639 1.366 . S
C1640 C1644 1.385 . S
C1641 H1616 0.951 1_655 S
C1641 C1639 1.388 . S
C1641 C1642 1.366 . S
C1642 C1641 1.366 . S
C1642 C1643 1.414 . S
C1642 C1645 1.499 . S
C1643 H1617 0.950 . S
C1643 C1642 1.414 . S
C1643 C1644 1.374 . S
C1644 H1618 0.950 . S
C1644 C1640 1.385 . S
C1644 C1643 1.374 . S
C1645 C1642 1.499 . S
C1645 C1646 1.373 . S
C1645 C1647 1.389 1_655 S
C1646 H1619 0.950 . S
C1646 C1632 1.377 . S
C1646 C1645 1.373 . S
C1647 C1631 1.377 . S
C1647 C1645 1.389 1_455 S
C1647 C1648 1.524 . S
C1648 C1647 1.524 . S
C1648 C1649 1.397 . S
C1648 C1653 1.363 . S
C1649 H1620 0.950 1_455 S
C1649 C1648 1.397 . S
C1649 C1650 1.334 . S
C1650 H1621 0.950 . S
C1650 C1649 1.334 . S
C1650 C1651 1.287 . S
C1651 C1650 1.287 . S
C1651 C1652 1.524 . S
C1651 H1654 0.999 . S
C1652 H1622 0.950 . S
C1652 C1651 1.524 . S
C1652 C1653 1.415 . S
C1653 H1623 0.950 . S
C1653 C1648 1.363 . S
C1653 C1652 1.415 . S
H1654 C1651 0.999 . S
H1655 C1636 0.913 . S
H1656 C1674 0.951 . S
H1657 C1676 0.951 . S
H1658 C1678 0.950 . S
H1659 C1679 0.950 . S
H1660 C1681 0.950 . S
H1661 C1684 0.950 . S
H1662 C1685 0.950 . S
H1663 C1687 0.950 . S
H1664 C1688 0.950 . S
H1665 C1689 0.951 . S
H1666 C1691 0.951 . S
H1667 C1693 0.950 . S
H1668 C1694 0.950 . S
H1669 C1696 0.950 . S
H1670 C1699 0.950 . S
H1671 C1700 0.950 . S
H1672 C1702 0.950 . S
H1673 C1703 0.950 . S
C1674 H1656 0.951 . S
C1674 C1675 1.366 . S
C1674 C1676 1.388 . S
C1675 C1674 1.366 . S
C1675 C1679 1.385 . S
C1676 H1657 0.951 . S
C1676 C1674 1.388 . S
C1676 C1677 1.366 . S
C1677 C1676 1.366 . S
C1677 C1678 1.414 . S
C1677 C1680 1.499 . S
C1678 H1658 0.950 . S
C1678 C1677 1.414 . S
C1678 C1679 1.374 . S
C1679 H1659 0.950 . S
C1679 C1675 1.385 . S
C1679 C1678 1.374 . S
C1680 C1677 1.499 . S
C1680 C1681 1.373 1_565 S
C1680 C1682 1.389 . S
C1681 H1660 0.950 . S
C1681 C1680 1.373 1_545 S
C1681 C1697 1.377 . S
C1682 C1680 1.389 . S
C1682 C1683 1.524 . S
C1682 C1696 1.377 . S
C1683 C1682 1.524 . S
C1683 C1684 1.397 . S
C1683 C1688 1.363 . S
C1684 H1661 0.950 . S
C1684 C1683 1.397 . S
C1684 C1685 1.334 . S
C1685 H1662 0.950 . S
C1685 C1684 1.334 . S
C1685 C1686 1.287 . S
C1686 C1685 1.287 . S
C1686 C1687 1.524 . S
C1686 H1705 0.913 . S
C1687 H1663 0.950 . S
C1687 C1686 1.524 . S
C1687 C1688 1.415 . S
C1688 H1664 0.950 . S
C1688 C1683 1.363 . S
C1688 C1687 1.415 . S
C1689 H1665 0.951 . S
C1689 C1690 1.366 . S
C1689 C1691 1.388 . S
C1690 C1689 1.366 . S
C1690 C1694 1.385 . S
C1691 H1666 0.951 . S
C1691 C1689 1.388 . S
C1691 C1692 1.366 . S
C1692 C1691 1.366 . S
C1692 C1693 1.414 . S
C1692 C1695 1.499 . S
C1693 H1667 0.950 . S
C1693 C1692 1.414 . S
C1693 C1694 1.374 . S
C1694 H1668 0.950 . S
C1694 C1690 1.385 . S
C1694 C1693 1.374 . S
C1695 C1692 1.499 . S
C1695 C1696 1.373 1_545 S
C1695 C1697 1.389 . S
C1696 H1669 0.950 . S
C1696 C1682 1.377 . S
C1696 C1695 1.373 1_565 S
C1697 C1681 1.377 . S
C1697 C1695 1.389 . S
C1697 C1698 1.524 . S
C1698 C1697 1.524 . S
C1698 C1699 1.397 . S
C1698 C1703 1.363 . S
C1699 H1670 0.950 . S
C1699 C1698 1.397 . S
C1699 C1700 1.334 . S
C1700 H1671 0.950 . S
C1700 C1699 1.334 . S
C1700 C1701 1.287 . S
C1701 C1700 1.287 . S
C1701 C1702 1.524 . S
C1701 H1704 0.999 . S
C1702 H1672 0.950 . S
C1702 C1701 1.524 . S
C1702 C1703 1.415 . S
C1703 H1673 0.950 . S
C1703 C1698 1.363 . S
C1703 C1702 1.415 . S
H1704 C1701 0.999 . S
H1705 C1686 0.913 . S
H1706 C1724 0.951 . S
H1707 C1726 0.951 . S
H1708 C1728 0.950 . S
H1709 C1729 0.950 . S
H1710 C1731 0.950 . S
H1711 C1734 0.950 . S
H1712 C1735 0.950 . S
H1713 C1737 0.950 . S
H1714 C1738 0.950 . S
H1715 C1739 0.951 . S
H1716 C1741 0.951 . S
H1717 C1743 0.950 . S
H1718 C1744 0.950 . S
H1719 C1746 0.950 . S
H1720 C1749 0.950 . S
H1721 C1750 0.950 . S
H1722 C1752 0.950 . S
H1723 C1753 0.950 . S
C1724 H1706 0.951 . S
C1724 C1725 1.366 . S
C1724 C1726 1.388 . S
C1725 C1724 1.366 . S
C1725 C1729 1.385 . S
C1726 H1707 0.951 . S
C1726 C1724 1.388 . S
C1726 C1727 1.366 . S
C1727 C1726 1.366 . S
C1727 C1728 1.414 . S
C1727 C1730 1.499 . S
C1728 H1708 0.950 . S
C1728 C1727 1.414 . S
C1728 C1729 1.374 . S
C1729 H1709 0.950 . S
C1729 C1725 1.385 . S
C1729 C1728 1.374 . S
C1730 C1727 1.499 . S
C1730 C1731 1.373 . S
C1730 C1732 1.389 . S
C1731 H1710 0.950 . S
C1731 C1730 1.373 . S
C1731 C1747 1.377 . S
C1732 C1730 1.389 . S
C1732 C1733 1.524 . S
C1732 C1746 1.377 . S
C1733 C1732 1.524 . S
C1733 C1734 1.397 . S
C1733 C1738 1.363 . S
C1734 H1711 0.950 . S
C1734 C1733 1.397 . S
C1734 C1735 1.334 . S
C1735 H1712 0.950 . S
C1735 C1734 1.334 . S
C1735 C1736 1.287 . S
C1736 C1735 1.287 . S
C1736 C1737 1.524 . S
C1736 H1755 0.913 . S
C1737 H1713 0.950 . S
C1737 C1736 1.524 . S
C1737 C1738 1.415 . S
C1738 H1714 0.950 . S
C1738 C1733 1.363 . S
C1738 C1737 1.415 . S
C1739 H1715 0.951 . S
C1739 C1740 1.366 . S
C1739 C1741 1.388 . S
C1740 C1739 1.366 . S
C1740 C1744 1.385 . S
C1741 H1716 0.951 . S
C1741 C1739 1.388 . S
C1741 C1742 1.366 . S
C1742 C1741 1.366 . S
C1742 C1743 1.414 . S
C1742 C1745 1.499 . S
C1743 H1717 0.950 . S
C1743 C1742 1.414 . S
C1743 C1744 1.374 . S
C1744 H1718 0.950 . S
C1744 C1740 1.385 . S
C1744 C1743 1.374 . S
C1745 C1742 1.499 . S
C1745 C1746 1.373 . S
C1745 C1747 1.389 . S
C1746 H1719 0.950 . S
C1746 C1732 1.377 . S
C1746 C1745 1.373 . S
C1747 C1731 1.377 . S
C1747 C1745 1.389 . S
C1747 C1748 1.524 . S
C1748 C1747 1.524 . S
C1748 C1749 1.397 . S
C1748 C1753 1.363 . S
C1749 H1720 0.950 . S
C1749 C1748 1.397 . S
C1749 C1750 1.334 . S
C1750 H1721 0.950 . S
C1750 C1749 1.334 . S
C1750 C1751 1.287 . S
C1751 C1750 1.287 . S
C1751 C1752 1.524 . S
C1751 H1754 0.999 . S
C1752 H1722 0.950 . S
C1752 C1751 1.524 . S
C1752 C1753 1.415 . S
C1753 H1723 0.950 . S
C1753 C1748 1.363 . S
C1753 C1752 1.415 . S
H1754 C1751 0.999 . S
H1755 C1736 0.913 . S
H1756 C1774 0.951 . S
H1757 C1776 0.951 . S
H1758 C1778 0.950 . S
H1759 C1779 0.950 . S
H1760 C1781 0.950 . S
H1761 C1784 0.950 . S
H1762 C1785 0.950 . S
H1763 C1787 0.950 . S
H1764 C1788 0.950 . S
H1765 C1789 0.951 . S
H1766 C1791 0.951 . S
H1767 C1793 0.950 . S
H1768 C1794 0.950 . S
H1769 C1796 0.950 . S
H1770 C1799 0.950 . S
H1771 C1800 0.950 1_554 S
H1772 C1802 0.950 . S
H1773 C1803 0.950 . S
C1774 H1756 0.951 . S
C1774 C1775 1.366 . S
C1774 C1776 1.388 . S
C1775 C1774 1.366 . S
C1775 C1779 1.385 . S
C1776 H1757 0.951 . S
C1776 C1774 1.388 . S
C1776 C1777 1.366 . S
C1777 C1776 1.366 . S
C1777 C1778 1.414 . S
C1777 C1780 1.499 . S
C1778 H1758 0.950 . S
C1778 C1777 1.414 . S
C1778 C1779 1.374 . S
C1779 H1759 0.950 . S
C1779 C1775 1.385 . S
C1779 C1778 1.374 . S
C1780 C1777 1.499 . S
C1780 C1781 1.373 1_455 S
C1780 C1782 1.389 . S
C1781 H1760 0.950 . S
C1781 C1780 1.373 1_655 S
C1781 C1797 1.377 . S
C1782 C1780 1.389 . S
C1782 C1783 1.524 . S
C1782 C1796 1.377 . S
C1783 C1782 1.524 . S
C1783 C1784 1.397 . S
C1783 C1788 1.363 . S
C1784 H1761 0.950 . S
C1784 C1783 1.397 . S
C1784 C1785 1.334 . S
C1785 H1762 0.950 . S
C1785 C1784 1.334 . S
C1785 C1786 1.287 . S
C1786 C1785 1.287 . S
C1786 C1787 1.524 . S
C1786 H1805 0.913 . S
C1787 H1763 0.950 . S
C1787 C1786 1.524 . S
C1787 C1788 1.415 . S
C1788 H1764 0.950 . S
C1788 C1783 1.363 . S
C1788 C1787 1.415 . S
C1789 H1765 0.951 . S
C1789 C1790 1.366 . S
C1789 C1791 1.388 . S
C1790 C1789 1.366 . S
C1790 C1794 1.385 . S
C1791 H1766 0.951 . S
C1791 C1789 1.388 . S
C1791 C1792 1.366 . S
C1792 C1791 1.366 . S
C1792 C1793 1.414 . S
C1792 C1795 1.499 . S
C1793 H1767 0.950 . S
C1793 C1792 1.414 . S
C1793 C1794 1.374 . S
C1794 H1768 0.950 . S
C1794 C1790 1.385 . S
C1794 C1793 1.374 . S
C1795 C1792 1.499 . S
C1795 C1796 1.373 1_655 S
C1795 C1797 1.389 . S
C1796 H1769 0.950 . S
C1796 C1782 1.377 . S
C1796 C1795 1.373 1_455 S
C1797 C1781 1.377 . S
C1797 C1795 1.389 . S
C1797 C1798 1.524 . S
C1798 C1797 1.524 . S
C1798 C1799 1.397 . S
C1798 C1803 1.363 . S
C1799 H1770 0.950 . S
C1799 C1798 1.397 . S
C1799 C1800 1.334 . S
C1800 H1771 0.950 1_556 S
C1800 C1799 1.334 . S
C1800 C1801 1.287 . S
C1801 C1800 1.287 . S
C1801 C1802 1.524 . S
C1801 H1804 0.999 . S
C1802 H1772 0.950 . S
C1802 C1801 1.524 . S
C1802 C1803 1.415 . S
C1803 H1773 0.950 . S
C1803 C1798 1.363 . S
C1803 C1802 1.415 . S
H1804 C1801 0.999 . S
H1805 C1786 0.913 . S
H1806 C1824 0.951 . S
H1807 C1826 0.951 . S
H1808 C1828 0.950 . S
H1809 C1829 0.950 . S
H1810 C1831 0.950 . S
H1811 C1834 0.950 . S
H1812 C1835 0.950 . S
H1813 C1837 0.950 . S
H1814 C1838 0.950 . S
H1815 C1839 0.951 . S
H1816 C1841 0.951 . S
H1817 C1843 0.950 . S
H1818 C1844 0.950 . S
H1819 C1846 0.950 . S
H1820 C1849 0.950 . S
H1821 C1850 0.950 . S
H1822 C1852 0.950 . S
H1823 C1853 0.950 . S
C1824 H1806 0.951 . S
C1824 C1825 1.366 . S
C1824 C1826 1.388 . S
C1825 C1824 1.366 . S
C1825 C1829 1.385 . S
C1826 H1807 0.951 . S
C1826 C1824 1.388 . S
C1826 C1827 1.366 . S
C1827 C1826 1.366 . S
C1827 C1828 1.414 . S
C1827 C1830 1.499 . S
C1828 H1808 0.950 . S
C1828 C1827 1.414 . S
C1828 C1829 1.374 . S
C1829 H1809 0.950 . S
C1829 C1825 1.385 . S
C1829 C1828 1.374 . S
C1830 C1827 1.499 . S
C1830 C1831 1.373 1_655 S
C1830 C1832 1.389 . S
C1831 H1810 0.950 . S
C1831 C1830 1.373 1_455 S
C1831 C1847 1.377 . S
C1832 C1830 1.389 . S
C1832 C1833 1.524 . S
C1832 C1846 1.377 . S
C1833 C1832 1.524 . S
C1833 C1834 1.397 . S
C1833 C1838 1.363 . S
C1834 H1811 0.950 . S
C1834 C1833 1.397 . S
C1834 C1835 1.334 . S
C1835 H1812 0.950 . S
C1835 C1834 1.334 . S
C1835 C1836 1.287 . S
C1836 C1835 1.287 . S
C1836 C1837 1.524 . S
C1836 H1855 0.913 . S
C1837 H1813 0.950 . S
C1837 C1836 1.524 . S
C1837 C1838 1.415 . S
C1838 H1814 0.950 . S
C1838 C1833 1.363 . S
C1838 C1837 1.415 . S
C1839 H1815 0.951 . S
C1839 C1840 1.366 . S
C1839 C1841 1.388 . S
C1840 C1839 1.366 . S
C1840 C1844 1.385 . S
C1841 H1816 0.951 . S
C1841 C1839 1.388 . S
C1841 C1842 1.366 . S
C1842 C1841 1.366 . S
C1842 C1843 1.414 . S
C1842 C1845 1.499 . S
C1843 H1817 0.950 . S
C1843 C1842 1.414 . S
C1843 C1844 1.374 . S
C1844 H1818 0.950 . S
C1844 C1840 1.385 . S
C1844 C1843 1.374 . S
C1845 C1842 1.499 . S
C1845 C1846 1.373 1_455 S
C1845 C1847 1.389 . S
C1846 H1819 0.950 . S
C1846 C1832 1.377 . S
C1846 C1845 1.373 1_655 S
C1847 C1831 1.377 . S
C1847 C1845 1.389 . S
C1847 C1848 1.524 . S
C1848 C1847 1.524 . S
C1848 C1849 1.397 . S
C1848 C1853 1.363 . S
C1849 H1820 0.950 . S
C1849 C1848 1.397 . S
C1849 C1850 1.334 . S
C1850 H1821 0.950 . S
C1850 C1849 1.334 . S
C1850 C1851 1.287 . S
C1851 C1850 1.287 . S
C1851 C1852 1.524 . S
C1851 H1854 0.999 . S
C1852 H1822 0.950 . S
C1852 C1851 1.524 . S
C1852 C1853 1.415 . S
C1853 H1823 0.950 . S
C1853 C1848 1.363 . S
C1853 C1852 1.415 . S
H1854 C1851 0.999 . S
H1855 C1836 0.913 . S
H1856 C1874 0.951 . S
H1857 C1876 0.951 . S
H1858 C1878 0.946 1_545 S
H1859 C1879 0.950 . S
H1860 C1881 0.950 . S
H1861 C1884 0.950 . S
H1862 C1885 0.950 . S
H1863 C1887 0.950 . S
H1864 C1888 0.950 . S
H1865 C1889 0.951 . S
H1866 C1891 0.951 . S
H1867 C1893 0.943 1_565 S
H1868 C1894 0.950 . S
H1869 C1896 0.950 . S
H1870 C1899 0.950 . S
H1871 C1900 0.950 . S
H1872 C1902 0.950 . S
H1873 C1903 0.950 . S
C1874 H1856 0.951 . S
C1874 C1875 1.366 . S
C1874 C1876 1.388 . S
C1875 C1874 1.366 . S
C1875 C1879 1.385 . S
C1876 H1857 0.951 . S
C1876 C1874 1.388 . S
C1876 C1877 1.366 . S
C1877 C1876 1.366 . S
C1877 C1878 1.414 . S
C1877 C1880 1.499 . S
C1878 H1858 0.946 1_565 S
C1878 C1877 1.414 . S
C1878 C1879 1.374 . S
C1879 H1859 0.950 . S
C1879 C1875 1.385 . S
C1879 C1878 1.374 . S
C1880 C1877 1.499 . S
C1880 C1881 1.373 1_565 S
C1880 C1882 1.389 . S
C1881 H1860 0.950 . S
C1881 C1880 1.373 1_545 S
C1881 C1897 1.377 . S
C1882 C1880 1.389 . S
C1882 C1883 1.524 . S
C1882 C1896 1.377 . S
C1883 C1882 1.524 . S
C1883 C1884 1.397 . S
C1883 C1888 1.363 . S
C1884 H1861 0.950 . S
C1884 C1883 1.397 . S
C1884 C1885 1.334 . S
C1885 H1862 0.950 . S
C1885 C1884 1.334 . S
C1885 C1886 1.287 . S
C1886 C1885 1.287 . S
C1886 C1887 1.524 . S
C1886 H1905 0.913 . S
C1887 H1863 0.950 . S
C1887 C1886 1.524 . S
C1887 C1888 1.415 . S
C1888 H1864 0.950 . S
C1888 C1883 1.363 . S
C1888 C1887 1.415 . S
C1889 H1865 0.951 . S
C1889 C1890 1.366 . S
C1889 C1891 1.388 . S
C1890 C1889 1.366 . S
C1890 C1894 1.385 . S
C1891 H1866 0.951 . S
C1891 C1889 1.388 . S
C1891 C1892 1.366 . S
C1892 C1891 1.366 . S
C1892 C1893 1.414 . S
C1892 C1895 1.499 . S
C1893 H1867 0.943 1_545 S
C1893 C1892 1.414 . S
C1893 C1894 1.374 . S
C1894 H1868 0.950 . S
C1894 C1890 1.385 . S
C1894 C1893 1.374 . S
C1895 C1892 1.499 . S
C1895 C1896 1.373 1_545 S
C1895 C1897 1.389 . S
C1896 H1869 0.950 . S
C1896 C1882 1.377 . S
C1896 C1895 1.373 1_565 S
C1897 C1881 1.377 . S
C1897 C1895 1.389 . S
C1897 C1898 1.524 . S
C1898 C1897 1.524 . S
C1898 C1899 1.397 . S
C1898 C1903 1.363 . S
C1899 H1870 0.950 . S
C1899 C1898 1.397 . S
C1899 C1900 1.334 . S
C1900 H1871 0.950 . S
C1900 C1899 1.334 . S
C1900 C1901 1.287 . S
C1901 C1900 1.287 . S
C1901 C1902 1.524 . S
C1901 H1904 0.999 . S
C1902 H1872 0.950 . S
C1902 C1901 1.524 . S
C1902 C1903 1.415 . S
C1903 H1873 0.950 . S
C1903 C1898 1.363 . S
C1903 C1902 1.415 . S
H1904 C1901 0.999 . S
H1905 C1886 0.913 . S
H1906 C1924 0.951 . S
H1907 C1926 0.951 . S
H1908 C1928 0.950 . S
H1909 C1929 0.950 . S
H1910 C1931 0.950 . S
H1911 C1934 0.950 . S
H1912 C1935 0.950 . S
H1913 C1937 0.950 . S
H1914 C1938 0.950 1_556 S
H1915 C1939 0.951 . S
H1916 C1941 0.951 . S
H1917 C1943 0.950 . S
H1918 C1944 0.950 . S
H1919 C1946 0.950 . S
H1920 C1949 0.950 . S
H1921 C1950 0.950 . S
H1922 C1952 0.950 . S
H1923 C1953 0.950 . S
C1924 H1906 0.951 . S
C1924 C1925 1.366 . S
C1924 C1926 1.388 . S
C1925 C1924 1.366 . S
C1925 C1929 1.385 . S
C1926 H1907 0.951 . S
C1926 C1924 1.388 . S
C1926 C1927 1.366 . S
C1927 C1926 1.366 . S
C1927 C1928 1.414 . S
C1927 C1930 1.499 . S
C1928 H1908 0.950 . S
C1928 C1927 1.414 . S
C1928 C1929 1.374 . S
C1929 H1909 0.950 . S
C1929 C1925 1.385 . S
C1929 C1928 1.374 . S
C1930 C1927 1.499 . S
C1930 C1931 1.373 . S
C1930 C1932 1.389 . S
C1931 H1910 0.950 . S
C1931 C1930 1.373 . S
C1931 C1947 1.377 . S
C1932 C1930 1.389 . S
C1932 C1933 1.524 . S
C1932 C1946 1.377 . S
C1933 C1932 1.524 . S
C1933 C1934 1.397 . S
C1933 C1938 1.363 . S
C1934 H1911 0.950 . S
C1934 C1933 1.397 . S
C1934 C1935 1.334 . S
C1935 H1912 0.950 . S
C1935 C1934 1.334 . S
C1935 C1936 1.287 . S
C1936 C1935 1.287 . S
C1936 C1937 1.524 1_554 S
C1936 H1955 0.913 1_554 S
C1937 H1913 0.950 . S
C1937 C1936 1.524 1_556 S
C1937 C1938 1.415 1_556 S
C1938 H1914 0.950 1_554 S
C1938 C1933 1.363 . S
C1938 C1937 1.415 1_554 S
C1939 H1915 0.951 . S
C1939 C1940 1.366 . S
C1939 C1941 1.388 . S
C1940 C1939 1.366 . S
C1940 C1944 1.385 . S
C1941 H1916 0.951 . S
C1941 C1939 1.388 . S
C1941 C1942 1.366 . S
C1942 C1941 1.366 . S
C1942 C1943 1.414 . S
C1942 C1945 1.499 . S
C1943 H1917 0.950 . S
C1943 C1942 1.414 . S
C1943 C1944 1.374 . S
C1944 H1918 0.950 . S
C1944 C1940 1.385 . S
C1944 C1943 1.374 . S
C1945 C1942 1.499 . S
C1945 C1946 1.373 . S
C1945 C1947 1.389 . S
C1946 H1919 0.950 . S
C1946 C1932 1.377 . S
C1946 C1945 1.373 . S
C1947 C1931 1.377 . S
C1947 C1945 1.389 . S
C1947 C1948 1.524 . S
C1948 C1947 1.524 . S
C1948 C1949 1.397 . S
C1948 C1953 1.363 . S
C1949 H1920 0.950 . S
C1949 C1948 1.397 . S
C1949 C1950 1.334 . S
C1950 H1921 0.950 . S
C1950 C1949 1.334 . S
C1950 C1951 1.287 . S
C1951 C1950 1.287 . S
C1951 C1952 1.524 . S
C1951 H1954 0.999 . S
C1952 H1922 0.950 . S
C1952 C1951 1.524 . S
C1952 C1953 1.415 . S
C1953 H1923 0.950 . S
C1953 C1948 1.363 . S
C1953 C1952 1.415 . S
H1954 C1951 0.999 . S
H1955 C1936 0.913 1_556 S
H1956 C1974 0.951 . S
H1957 C1976 0.951 . S
H1958 C1978 0.950 . S
H1959 C1979 0.950 . S
H1960 C1981 0.950 . S
H1961 C1984 0.950 . S
H1962 C1985 0.950 . S
H1963 C1987 0.950 . S
H1964 C1988 0.950 . S
H1965 C1989 0.951 . S
H1966 C1991 0.951 . S
H1967 C1993 0.950 . S
H1968 C1994 0.950 . S
H1969 C1996 0.950 . S
H1970 C1999 0.950 . S
H1971 C2000 0.950 . S
H1972 C2002 0.950 . S
H1973 C2003 0.950 . S
C1974 H1956 0.951 . S
C1974 C1975 1.366 . S
C1974 C1976 1.388 . S
C1975 C1974 1.366 . S
C1975 C1979 1.385 . S
C1976 H1957 0.951 . S
C1976 C1974 1.388 . S
C1976 C1977 1.366 . S
C1977 C1976 1.366 . S
C1977 C1978 1.414 . S
C1977 C1980 1.499 . S
C1978 H1958 0.950 . S
C1978 C1977 1.414 . S
C1978 C1979 1.374 . S
C1979 H1959 0.950 . S
C1979 C1975 1.385 . S
C1979 C1978 1.374 . S
C1980 C1977 1.499 . S
C1980 C1981 1.373 . S
C1980 C1982 1.389 . S
C1981 H1960 0.950 . S
C1981 C1980 1.373 . S
C1981 C1997 1.377 . S
C1982 C1980 1.389 . S
C1982 C1983 1.524 . S
C1982 C1996 1.377 . S
C1983 C1982 1.524 . S
C1983 C1984 1.397 . S
C1983 C1988 1.363 . S
C1984 H1961 0.950 . S
C1984 C1983 1.397 . S
C1984 C1985 1.334 . S
C1985 H1962 0.950 . S
C1985 C1984 1.334 . S
C1985 C1986 1.287 . S
C1986 C1985 1.287 . S
C1986 C1987 1.524 . S
C1986 H2005 0.913 . S
C1987 H1963 0.950 . S
C1987 C1986 1.524 . S
C1987 C1988 1.415 . S
C1988 H1964 0.950 . S
C1988 C1983 1.363 . S
C1988 C1987 1.415 . S
C1989 H1965 0.951 . S
C1989 C1990 1.366 . S
C1989 C1991 1.388 . S
C1990 C1989 1.366 . S
C1990 C1994 1.385 . S
C1991 H1966 0.951 . S
C1991 C1989 1.388 . S
C1991 C1992 1.366 . S
C1992 C1991 1.366 . S
C1992 C1993 1.414 . S
C1992 C1995 1.499 . S
C1993 H1967 0.950 . S
C1993 C1992 1.414 . S
C1993 C1994 1.374 . S
C1994 H1968 0.950 . S
C1994 C1990 1.385 . S
C1994 C1993 1.374 . S
C1995 C1992 1.499 . S
C1995 C1996 1.373 . S
C1995 C1997 1.389 . S
C1996 H1969 0.950 . S
C1996 C1982 1.377 . S
C1996 C1995 1.373 . S
C1997 C1981 1.377 . S
C1997 C1995 1.389 . S
C1997 C1998 1.524 . S
C1998 C1997 1.524 . S
C1998 C1999 1.397 . S
C1998 C2003 1.363 . S
C1999 H1970 0.950 . S
C1999 C1998 1.397 . S
C1999 C2000 1.334 . S
C2000 H1971 0.950 . S
C2000 C1999 1.334 . S
C2000 C2001 1.287 . S
C2001 C2000 1.287 . S
C2001 C2002 1.524 . S
C2001 H2004 0.999 . S
C2002 H1972 0.950 . S
C2002 C2001 1.524 . S
C2002 C2003 1.415 . S
C2003 H1973 0.950 . S
C2003 C1998 1.363 . S
C2003 C2002 1.415 . S
H2004 C2001 0.999 . S
H2005 C1986 0.913 . S
H2006 C2024 0.951 . S
H2007 C2026 0.951 . S
H2008 C2028 0.950 . S
H2009 C2029 0.950 . S
H2010 C2031 0.950 . S
H2011 C2034 0.950 . S
H2012 C2035 0.950 . S
H2013 C2037 0.950 . S
H2014 C2038 0.950 . S
H2015 C2039 0.951 . S
H2016 C2041 0.951 . S
H2017 C2043 0.950 . S
H2018 C2044 0.950 . S
H2019 C2046 0.950 . S
H2020 C2049 0.950 . S
H2021 C2050 0.950 . S
H2022 C2052 0.950 . S
H2023 C2053 0.950 . S
C2024 H2006 0.951 . S
C2024 C2025 1.366 . S
C2024 C2026 1.388 . S
C2025 C2024 1.366 . S
C2025 C2029 1.385 . S
C2026 H2007 0.951 . S
C2026 C2024 1.388 . S
C2026 C2027 1.366 . S
C2027 C2026 1.366 . S
C2027 C2028 1.414 . S
C2027 C2030 1.499 . S
C2028 H2008 0.950 . S
C2028 C2027 1.414 . S
C2028 C2029 1.374 . S
C2029 H2009 0.950 . S
C2029 C2025 1.385 . S
C2029 C2028 1.374 . S
C2030 C2027 1.499 . S
C2030 C2031 1.373 . S
C2030 C2032 1.389 . S
C2031 H2010 0.950 . S
C2031 C2030 1.373 . S
C2031 C2047 1.377 . S
C2032 C2030 1.389 . S
C2032 C2033 1.524 . S
C2032 C2046 1.377 . S
C2033 C2032 1.524 . S
C2033 C2034 1.397 . S
C2033 C2038 1.363 . S
C2034 H2011 0.950 . S
C2034 C2033 1.397 . S
C2034 C2035 1.334 . S
C2035 H2012 0.950 . S
C2035 C2034 1.334 . S
C2035 C2036 1.287 . S
C2036 C2035 1.287 . S
C2036 C2037 1.524 . S
C2036 H2055 0.913 . S
C2037 H2013 0.950 . S
C2037 C2036 1.524 . S
C2037 C2038 1.415 . S
C2038 H2014 0.950 . S
C2038 C2033 1.363 . S
C2038 C2037 1.415 . S
C2039 H2015 0.951 . S
C2039 C2040 1.366 . S
C2039 C2041 1.388 . S
C2040 C2039 1.366 . S
C2040 C2044 1.385 . S
C2041 H2016 0.951 . S
C2041 C2039 1.388 . S
C2041 C2042 1.366 . S
C2042 C2041 1.366 . S
C2042 C2043 1.414 . S
C2042 C2045 1.499 . S
C2043 H2017 0.950 . S
C2043 C2042 1.414 . S
C2043 C2044 1.374 . S
C2044 H2018 0.950 . S
C2044 C2040 1.385 . S
C2044 C2043 1.374 . S
C2045 C2042 1.499 . S
C2045 C2046 1.373 . S
C2045 C2047 1.389 . S
C2046 H2019 0.950 . S
C2046 C2032 1.377 . S
C2046 C2045 1.373 . S
C2047 C2031 1.377 . S
C2047 C2045 1.389 . S
C2047 C2048 1.524 . S
C2048 C2047 1.524 . S
C2048 C2049 1.397 . S
C2048 C2053 1.363 . S
C2049 H2020 0.950 . S
C2049 C2048 1.397 . S
C2049 C2050 1.334 . S
C2050 H2021 0.950 . S
C2050 C2049 1.334 . S
C2050 C2051 1.287 . S
C2051 C2050 1.287 . S
C2051 C2052 1.524 . S
C2051 H2054 0.999 . S
C2052 H2022 0.950 . S
C2052 C2051 1.524 . S
C2052 C2053 1.415 . S
C2053 H2023 0.950 . S
C2053 C2048 1.363 . S
C2053 C2052 1.415 . S
H2054 C2051 0.999 . S
H2055 C2036 0.913 . S
H2056 C2074 0.951 . S
H2057 C2076 0.951 . S
H2058 C2078 0.950 . S
H2059 C2079 0.950 . S
H2060 C2081 0.950 . S
H2061 C2084 0.950 . S
H2062 C2085 0.950 . S
H2063 C2087 0.950 . S
H2064 C2088 0.950 . S
H2065 C2089 0.951 . S
H2066 C2091 0.951 . S
H2067 C2093 0.950 . S
H2068 C2094 0.950 . S
H2069 C2096 0.950 . S
H2070 C2099 0.950 . S
H2071 C2100 0.950 . S
H2072 C2102 0.950 . S
H2073 C2103 0.950 . S
C2074 H2056 0.951 . S
C2074 C2075 1.366 . S
C2074 C2076 1.388 . S
C2075 C2074 1.366 . S
C2075 C2079 1.385 . S
C2076 H2057 0.951 . S
C2076 C2074 1.388 . S
C2076 C2077 1.366 . S
C2077 C2076 1.366 . S
C2077 C2078 1.414 . S
C2077 C2080 1.499 . S
C2078 H2058 0.950 . S
C2078 C2077 1.414 . S
C2078 C2079 1.374 . S
C2079 H2059 0.950 . S
C2079 C2075 1.385 . S
C2079 C2078 1.374 . S
C2080 C2077 1.499 . S
C2080 C2081 1.373 . S
C2080 C2082 1.389 . S
C2081 H2060 0.950 . S
C2081 C2080 1.373 . S
C2081 C2097 1.377 . S
C2082 C2080 1.389 . S
C2082 C2083 1.524 . S
C2082 C2096 1.377 . S
C2083 C2082 1.524 . S
C2083 C2084 1.397 . S
C2083 C2088 1.363 . S
C2084 H2061 0.950 . S
C2084 C2083 1.397 . S
C2084 C2085 1.334 . S
C2085 H2062 0.950 . S
C2085 C2084 1.334 . S
C2085 C2086 1.287 . S
C2086 C2085 1.287 . S
C2086 C2087 1.524 . S
C2086 H2105 0.913 . S
C2087 H2063 0.950 . S
C2087 C2086 1.524 . S
C2087 C2088 1.415 . S
C2088 H2064 0.950 . S
C2088 C2083 1.363 . S
C2088 C2087 1.415 . S
C2089 H2065 0.951 . S
C2089 C2090 1.366 . S
C2089 C2091 1.388 . S
C2090 C2089 1.366 . S
C2090 C2094 1.385 . S
C2091 H2066 0.951 . S
C2091 C2089 1.388 . S
C2091 C2092 1.366 . S
C2092 C2091 1.366 . S
C2092 C2093 1.414 . S
C2092 C2095 1.499 . S
C2093 H2067 0.950 . S
C2093 C2092 1.414 . S
C2093 C2094 1.374 . S
C2094 H2068 0.950 . S
C2094 C2090 1.385 . S
C2094 C2093 1.374 . S
C2095 C2092 1.499 . S
C2095 C2096 1.373 . S
C2095 C2097 1.389 . S
C2096 H2069 0.950 . S
C2096 C2082 1.377 . S
C2096 C2095 1.373 . S
C2097 C2081 1.377 . S
C2097 C2095 1.389 . S
C2097 C2098 1.524 . S
C2098 C2097 1.524 . S
C2098 C2099 1.397 . S
C2098 C2103 1.363 . S
C2099 H2070 0.950 . S
C2099 C2098 1.397 . S
C2099 C2100 1.334 . S
C2100 H2071 0.950 . S
C2100 C2099 1.334 . S
C2100 C2101 1.287 . S
C2101 C2100 1.287 . S
C2101 C2102 1.524 . S
C2101 H2104 0.999 . S
C2102 H2072 0.950 . S
C2102 C2101 1.524 . S
C2102 C2103 1.415 . S
C2103 H2073 0.950 . S
C2103 C2098 1.363 . S
C2103 C2102 1.415 . S
H2104 C2101 0.999 . S
H2105 C2086 0.913 . S
H2106 C2124 0.951 . S
H2107 C2126 0.951 . S
H2108 C2128 0.950 . S
H2109 C2129 0.950 . S
H2110 C2131 0.950 . S
H2111 C2134 0.950 . S
H2112 C2135 0.950 . S
H2113 C2137 0.950 . S
H2114 C2138 0.950 . S
H2115 C2139 0.951 . S
H2116 C2141 0.951 . S
H2117 C2143 0.950 . S
H2118 C2144 0.950 . S
H2119 C2146 0.950 . S
H2120 C2149 0.950 . S
H2121 C2150 0.950 . S
H2122 C2152 0.950 . S
H2123 C2153 0.950 . S
C2124 H2106 0.951 . S
C2124 C2125 1.366 . S
C2124 C2126 1.388 . S
C2125 C2124 1.366 . S
C2125 C2129 1.385 . S
C2126 H2107 0.951 . S
C2126 C2124 1.388 . S
C2126 C2127 1.366 . S
C2127 C2126 1.366 . S
C2127 C2128 1.414 . S
C2127 C2130 1.499 . S
C2128 H2108 0.950 . S
C2128 C2127 1.414 . S
C2128 C2129 1.374 . S
C2129 H2109 0.950 . S
C2129 C2125 1.385 . S
C2129 C2128 1.374 . S
C2130 C2127 1.499 . S
C2130 C2131 1.373 . S
C2130 C2132 1.389 . S
C2131 H2110 0.950 . S
C2131 C2130 1.373 . S
C2131 C2147 1.377 . S
C2132 C2130 1.389 . S
C2132 C2133 1.524 . S
C2132 C2146 1.377 . S
C2133 C2132 1.524 . S
C2133 C2134 1.397 . S
C2133 C2138 1.363 . S
C2134 H2111 0.950 . S
C2134 C2133 1.397 . S
C2134 C2135 1.334 . S
C2135 H2112 0.950 . S
C2135 C2134 1.334 . S
C2135 C2136 1.287 . S
C2136 C2135 1.287 . S
C2136 C2137 1.524 . S
C2136 H2155 0.913 . S
C2137 H2113 0.950 . S
C2137 C2136 1.524 . S
C2137 C2138 1.415 . S
C2138 H2114 0.950 . S
C2138 C2133 1.363 . S
C2138 C2137 1.415 . S
C2139 H2115 0.951 . S
C2139 C2140 1.366 . S
C2139 C2141 1.388 . S
C2140 C2139 1.366 . S
C2140 C2144 1.385 . S
C2141 H2116 0.951 . S
C2141 C2139 1.388 . S
C2141 C2142 1.366 . S
C2142 C2141 1.366 . S
C2142 C2143 1.414 . S
C2142 C2145 1.499 . S
C2143 H2117 0.950 . S
C2143 C2142 1.414 . S
C2143 C2144 1.374 . S
C2144 H2118 0.950 . S
C2144 C2140 1.385 . S
C2144 C2143 1.374 . S
C2145 C2142 1.499 . S
C2145 C2146 1.373 . S
C2145 C2147 1.389 . S
C2146 H2119 0.950 . S
C2146 C2132 1.377 . S
C2146 C2145 1.373 . S
C2147 C2131 1.377 . S
C2147 C2145 1.389 . S
C2147 C2148 1.524 . S
C2148 C2147 1.524 . S
C2148 C2149 1.397 . S
C2148 C2153 1.363 . S
C2149 H2120 0.950 . S
C2149 C2148 1.397 . S
C2149 C2150 1.334 . S
C2150 H2121 0.950 . S
C2150 C2149 1.334 . S
C2150 C2151 1.287 . S
C2151 C2150 1.287 . S
C2151 C2152 1.524 . S
C2151 H2154 0.999 . S
C2152 H2122 0.950 . S
C2152 C2151 1.524 . S
C2152 C2153 1.415 . S
C2153 H2123 0.950 . S
C2153 C2148 1.363 . S
C2153 C2152 1.415 . S
H2154 C2151 0.999 . S
H2155 C2136 0.913 . S
H2156 C2174 0.951 . S
H2157 C2176 0.951 . S
H2158 C2178 0.950 . S
H2159 C2179 0.950 . S
H2160 C2181 0.950 . S
H2161 C2184 0.950 . S
H2162 C2185 0.950 . S
H2163 C2187 0.950 . S
H2164 C2188 0.950 . S
H2165 C2189 0.951 . S
H2166 C2191 0.951 . S
H2167 C2193 0.950 . S
H2168 C2194 0.950 . S
H2169 C2196 0.950 . S
H2170 C2199 0.950 . S
H2171 C2200 0.950 . S
H2172 C2202 0.950 . S
H2173 C2203 0.950 . S
C2174 H2156 0.951 . S
C2174 C2175 1.366 . S
C2174 C2176 1.388 . S
C2175 C2174 1.366 . S
C2175 C2179 1.385 . S
C2176 H2157 0.951 . S
C2176 C2174 1.388 . S
C2176 C2177 1.366 . S
C2177 C2176 1.366 . S
C2177 C2178 1.414 . S
C2177 C2180 1.499 . S
C2178 H2158 0.950 . S
C2178 C2177 1.414 . S
C2178 C2179 1.374 . S
C2179 H2159 0.950 . S
C2179 C2175 1.385 . S
C2179 C2178 1.374 . S
C2180 C2177 1.499 . S
C2180 C2181 1.373 . S
C2180 C2182 1.389 . S
C2181 H2160 0.950 . S
C2181 C2180 1.373 . S
C2181 C2197 1.377 . S
C2182 C2180 1.389 . S
C2182 C2183 1.524 . S
C2182 C2196 1.377 . S
C2183 C2182 1.524 . S
C2183 C2184 1.397 . S
C2183 C2188 1.363 . S
C2184 H2161 0.950 . S
C2184 C2183 1.397 . S
C2184 C2185 1.334 . S
C2185 H2162 0.950 . S
C2185 C2184 1.334 . S
C2185 C2186 1.287 . S
C2186 C2185 1.287 . S
C2186 C2187 1.524 . S
C2186 H2205 0.913 . S
C2187 H2163 0.950 . S
C2187 C2186 1.524 . S
C2187 C2188 1.415 . S
C2188 H2164 0.950 . S
C2188 C2183 1.363 . S
C2188 C2187 1.415 . S
C2189 H2165 0.951 . S
C2189 C2190 1.366 . S
C2189 C2191 1.388 . S
C2190 C2189 1.366 . S
C2190 C2194 1.385 . S
C2191 H2166 0.951 . S
C2191 C2189 1.388 . S
C2191 C2192 1.366 . S
C2192 C2191 1.366 . S
C2192 C2193 1.414 . S
C2192 C2195 1.499 . S
C2193 H2167 0.950 . S
C2193 C2192 1.414 . S
C2193 C2194 1.374 . S
C2194 H2168 0.950 . S
C2194 C2190 1.385 . S
C2194 C2193 1.374 . S
C2195 C2192 1.499 . S
C2195 C2196 1.373 . S
C2195 C2197 1.389 . S
C2196 H2169 0.950 . S
C2196 C2182 1.377 . S
C2196 C2195 1.373 . S
C2197 C2181 1.377 . S
C2197 C2195 1.389 . S
C2197 C2198 1.524 . S
C2198 C2197 1.524 . S
C2198 C2199 1.397 . S
C2198 C2203 1.363 . S
C2199 H2170 0.950 . S
C2199 C2198 1.397 . S
C2199 C2200 1.334 . S
C2200 H2171 0.950 . S
C2200 C2199 1.334 . S
C2200 C2201 1.287 . S
C2201 C2200 1.287 . S
C2201 C2202 1.524 . S
C2201 H2204 0.999 . S
C2202 H2172 0.950 . S
C2202 C2201 1.524 . S
C2202 C2203 1.415 . S
C2203 H2173 0.950 . S
C2203 C2198 1.363 . S
C2203 C2202 1.415 . S
H2204 C2201 0.999 . S
H2205 C2186 0.913 . S
H2206 C2224 0.951 . S
H2207 C2226 0.951 . S
H2208 C2228 0.950 . S
H2209 C2229 0.950 . S
H2210 C2231 0.950 . S
H2211 C2234 0.950 . S
H2212 C2235 0.950 . S
H2213 C2237 0.950 . S
H2214 C2238 0.950 . S
H2215 C2239 0.951 . S
H2216 C2241 0.951 . S
H2217 C2243 0.950 . S
H2218 C2244 0.950 . S
H2219 C2246 0.950 . S
H2220 C2249 0.950 . S
H2221 C2250 0.950 . S
H2222 C2252 0.950 . S
H2223 C2253 0.950 . S
C2224 H2206 0.951 . S
C2224 C2225 1.366 . S
C2224 C2226 1.388 . S
C2225 C2224 1.366 . S
C2225 C2229 1.385 . S
C2226 H2207 0.951 . S
C2226 C2224 1.388 . S
C2226 C2227 1.366 . S
C2227 C2226 1.366 . S
C2227 C2228 1.414 . S
C2227 C2230 1.499 . S
C2228 H2208 0.950 . S
C2228 C2227 1.414 . S
C2228 C2229 1.374 . S
C2229 H2209 0.950 . S
C2229 C2225 1.385 . S
C2229 C2228 1.374 . S
C2230 C2227 1.499 . S
C2230 C2231 1.373 . S
C2230 C2232 1.389 . S
C2231 H2210 0.950 . S
C2231 C2230 1.373 . S
C2231 C2247 1.377 . S
C2232 C2230 1.389 . S
C2232 C2233 1.524 . S
C2232 C2246 1.377 . S
C2233 C2232 1.524 . S
C2233 C2234 1.397 . S
C2233 C2238 1.363 . S
C2234 H2211 0.950 . S
C2234 C2233 1.397 . S
C2234 C2235 1.334 . S
C2235 H2212 0.950 . S
C2235 C2234 1.334 . S
C2235 C2236 1.287 . S
C2236 C2235 1.287 . S
C2236 C2237 1.524 . S
C2236 H2255 0.913 . S
C2237 H2213 0.950 . S
C2237 C2236 1.524 . S
C2237 C2238 1.415 . S
C2238 H2214 0.950 . S
C2238 C2233 1.363 . S
C2238 C2237 1.415 . S
C2239 H2215 0.951 . S
C2239 C2240 1.366 . S
C2239 C2241 1.388 . S
C2240 C2239 1.366 . S
C2240 C2244 1.385 . S
C2241 H2216 0.951 . S
C2241 C2239 1.388 . S
C2241 C2242 1.366 . S
C2242 C2241 1.366 . S
C2242 C2243 1.414 . S
C2242 C2245 1.499 . S
C2243 H2217 0.950 . S
C2243 C2242 1.414 . S
C2243 C2244 1.374 . S
C2244 H2218 0.950 . S
C2244 C2240 1.385 . S
C2244 C2243 1.374 . S
C2245 C2242 1.499 . S
C2245 C2246 1.373 . S
C2245 C2247 1.389 . S
C2246 H2219 0.950 . S
C2246 C2232 1.377 . S
C2246 C2245 1.373 . S
C2247 C2231 1.377 . S
C2247 C2245 1.389 . S
C2247 C2248 1.524 . S
C2248 C2247 1.524 . S
C2248 C2249 1.397 . S
C2248 C2253 1.363 . S
C2249 H2220 0.950 . S
C2249 C2248 1.397 . S
C2249 C2250 1.334 . S
C2250 H2221 0.950 . S
C2250 C2249 1.334 . S
C2250 C2251 1.287 . S
C2251 C2250 1.287 . S
C2251 C2252 1.524 . S
C2251 H2254 0.999 . S
C2252 H2222 0.950 . S
C2252 C2251 1.524 . S
C2252 C2253 1.415 . S
C2253 H2223 0.950 . S
C2253 C2248 1.363 . S
C2253 C2252 1.415 . S
H2254 C2251 0.999 . S
H2255 C2236 0.913 . S
C1075 C49 0.424 . S
C1090 C937 0.427 . S
C1125 C1017 0.424 . S
C1140 C117 0.426 . S
C1175 C585 0.423 . S
C1190 C196 0.427 . S
C1225 C284 0.427 . S
C1240 C645 0.425 . S
C1275 C401 0.424 . S
C1290 C724 0.425 . S
C1325 C821 0.424 . S
C1340 C489 0.425 . S
C1375 C20 0.580 . S
C1390 C673 0.582 . S
C1425 C753 0.582 . S
C1440 C145 0.579 . S
C1475 C849 0.579 . S
C1490 C225 0.582 . S
C1525 C313 0.579 . S
C1540 C909 0.582 . S
C1575 C988 0.583 . S
C1590 C372 0.583 . S
C1625 C460 0.582 . S
C1640 C557 0.580 . S
C1675 C293 0.631 . S
C1690 C57 0.633 . S
C1725 C409 0.632 . S
C1740 C108 0.629 . S
C1775 C497 0.633 . S
C1790 C205 0.631 . S
C1825 C577 0.633 . S
C1840 C812 0.630 . S
C1875 C636 0.634 . S
C1890 C929 0.630 . S
C1925 C733 0.631 . S
C1940 C1025 0.633 . S
C1975 C761 1.513 . S
C1990 C29 1.513 . S
C2025 C841 1.512 . S
C2040 C137 1.513 . S
C2075 C900 1.513 . S
C2090 C233 1.513 . S
C2125 C997 1.513 . S
C2140 C321 1.513 . S
C2175 C548 1.512 . S
C2190 C381 1.513 . S
C2225 C469 1.514 . S
C2240 C665 1.514 . S
