# Generated by pormake.
# Topology wjv, (5)-cn, num edge types: 1
# Building blocks:
#     Node 0, Type 0, BuildingBlock: BEQFEK_clean_sbu_0, # of connection points: 5
#     Node 1, Type 0, BuildingBlock: BEQFEK_clean_sbu_0, # of connection points: 5
#     Node 2, Type 0, BuildingBlock: BEQFEK_clean_sbu_0, # of connection points: 5
#     Node 3, Type 0, BuildingBlock: BEQFEK_clean_sbu_0, # of connection points: 5
#     Node 4, Type 0, BuildingBlock: BEQFEK_clean_sbu_0, # of connection points: 5
#     Node 5, Type 0, BuildingBlock: BEQFEK_clean_sbu_0, # of connection points: 5
#     Node 6, Type 0, BuildingBlock: BEQFEK_clean_sbu_0, # of connection points: 5
#     Node 7, Type 0, BuildingBlock: BEQFEK_clean_sbu_0, # of connection points: 5
#     Node 8, Type 0, BuildingBlock: BEQFEK_clean_sbu_0, # of connection points: 5
#     Node 9, Type 0, BuildingBlock: BEQFEK_clean_sbu_0, # of connection points: 5
#     Node 10, Type 0, BuildingBlock: BEQFEK_clean_sbu_0, # of connection points: 5
#     Node 11, Type 0, BuildingBlock: BEQFEK_clean_sbu_0, # of connection points: 5
#     Edge 12, Type (0, 0), BuildingBlock: OJICUG_clean_linker_0, # of connection points: 2
#     Edge 13, Type (0, 0), BuildingBlock: OJICUG_clean_linker_0, # of connection points: 2
#     Edge 14, Type (0, 0), BuildingBlock: OJICUG_clean_linker_0, # of connection points: 2
#     Edge 15, Type (0, 0), BuildingBlock: OJICUG_clean_linker_0, # of connection points: 2
#     Edge 16, Type (0, 0), BuildingBlock: OJICUG_clean_linker_0, # of connection points: 2
#     Edge 17, Type (0, 0), BuildingBlock: OJICUG_clean_linker_0, # of connection points: 2
#     Edge 18, Type (0, 0), BuildingBlock: OJICUG_clean_linker_0, # of connection points: 2
#     Edge 19, Type (0, 0), BuildingBlock: OJICUG_clean_linker_0, # of connection points: 2
#     Edge 20, Type (0, 0), BuildingBlock: OJICUG_clean_linker_0, # of connection points: 2
#     Edge 21, Type (0, 0), BuildingBlock: OJICUG_clean_linker_0, # of connection points: 2
#     Edge 22, Type (0, 0), BuildingBlock: OJICUG_clean_linker_0, # of connection points: 2
#     Edge 23, Type (0, 0), BuildingBlock: OJICUG_clean_linker_0, # of connection points: 2
#     Edge 24, Type (0, 0), BuildingBlock: OJICUG_clean_linker_0, # of connection points: 2
#     Edge 25, Type (0, 0), BuildingBlock: OJICUG_clean_linker_0, # of connection points: 2
#     Edge 26, Type (0, 0), BuildingBlock: OJICUG_clean_linker_0, # of connection points: 2
#     Edge 27, Type (0, 0), BuildingBlock: OJICUG_clean_linker_0, # of connection points: 2
#     Edge 28, Type (0, 0), BuildingBlock: OJICUG_clean_linker_0, # of connection points: 2
#     Edge 29, Type (0, 0), BuildingBlock: OJICUG_clean_linker_0, # of connection points: 2
#     Edge 30, Type (0, 0), BuildingBlock: OJICUG_clean_linker_0, # of connection points: 2
#     Edge 31, Type (0, 0), BuildingBlock: OJICUG_clean_linker_0, # of connection points: 2
#     Edge 32, Type (0, 0), BuildingBlock: OJICUG_clean_linker_0, # of connection points: 2
#     Edge 33, Type (0, 0), BuildingBlock: OJICUG_clean_linker_0, # of connection points: 2
#     Edge 34, Type (0, 0), BuildingBlock: OJICUG_clean_linker_0, # of connection points: 2
#     Edge 35, Type (0, 0), BuildingBlock: OJICUG_clean_linker_0, # of connection points: 2
#     Edge 36, Type (0, 0), BuildingBlock: OJICUG_clean_linker_0, # of connection points: 2
#     Edge 37, Type (0, 0), BuildingBlock: OJICUG_clean_linker_0, # of connection points: 2
#     Edge 38, Type (0, 0), BuildingBlock: OJICUG_clean_linker_0, # of connection points: 2
#     Edge 39, Type (0, 0), BuildingBlock: OJICUG_clean_linker_0, # of connection points: 2
#     Edge 40, Type (0, 0), BuildingBlock: OJICUG_clean_linker_0, # of connection points: 2
#     Edge 41, Type (0, 0), BuildingBlock: OJICUG_clean_linker_0, # of connection points: 2
# Relax obj value: 0.137
# Max RMSD: 0.111
# Mean RMSD: 0.111
data_MOF--net-wjv--node1-BEQFEK_clean_sbu_0--edge1-OJICUG_clean_linker_0
_symmetry_space_group_name_H-M    P1
_symmetry_Int_Tables_number       1
_symmetry_cell_setting            triclinic
loop_
_symmetry_equiv_pos_as_xyz
'x, y, z'
_cell_length_a     26.916501
_cell_length_b     26.947403
_cell_length_c     44.202683
_cell_angle_alpha  89.985583
_cell_angle_beta   89.977911
_cell_angle_gamma 120.06066
loop_
_atom_site_label
_atom_site_type_symbol
_atom_site_fract_x
_atom_site_fract_y
_atom_site_fract_z
_atom_type_partial_charge
Co0 Co 0.20539 0.28902 0.22474 0.0
Co1 Co 0.223 0.31975 0.15528 0.0
C2 C 0.11007 0.28065 0.18527 0.0
O3 O 0.12946 0.2799 0.21156 0.0
O4 O 0.14209 0.2943 0.16213 0.0
C5 C 0.2257 0.30493 0.29174 0.0
O6 O 0.25184 0.36082 0.28831 0.0
C7 C 0.21578 0.36643 0.09558 0.0
C8 C 0.27315 0.34766 0.06844 0.0
C9 C 0.23432 0.36714 0.06591 0.0
N10 N 0.24138 0.34612 0.11409 0.0
N11 N 0.27649 0.33619 0.09772 0.0
C12 C 0.17281 0.38229 0.10629 0.0
H13 H 0.1314 0.35636 0.09429 0.0
H14 H 0.16627 0.3766 0.13099 0.0
H15 H 0.1891 0.42832 0.10162 0.0
C16 C 0.32635 0.38498 0.22236 0.0
N17 N 0.27221 0.35744 0.21145 0.0
N18 N 0.2727 0.37583 0.18383 0.0
C19 C 0.32522 0.42013 0.17769 0.0
C20 C 0.36229 0.42688 0.20153 0.0
C21 C 0.34536 0.36065 0.24736 0.0
H22 H 0.31229 0.31551 0.25196 0.0
H23 H 0.35294 0.38627 0.26823 0.0
H24 H 0.38592 0.36182 0.24122 0.0
O25 O 0.21161 0.22709 0.20734 0.0
O26 O 0.23147 0.24989 0.15885 0.0
H27 H 0.35111 0.43433 0.13117 0.0
H28 H 0.37348 0.49918 0.15281 0.0
C29 C 0.33836 0.45443 0.14915 0.0
H30 H 0.29949 0.45497 0.14126 0.0
H31 H 0.30049 0.3187 0.10631 0.0
O32 O 0.2039 0.27238 0.26895 0.0
C33 C 0.22419 0.21708 0.18131 0.0
Co34 Co 0.90688 0.21335 0.55727 0.0
Co35 Co 0.89218 0.2208 0.48665 0.0
C36 C 0.81491 0.11395 0.52123 0.0
O37 O 0.83871 0.13605 0.54659 0.0
O38 O 0.83152 0.14277 0.49685 0.0
C39 C 0.94739 0.20598 0.6163 0.0
O40 O 0.95746 0.16838 0.60291 0.0
C41 C 0.84663 0.20375 0.42432 0.0
C42 C 0.91275 0.28151 0.4011 0.0
C43 C 0.86114 0.23132 0.39644 0.0
N44 N 0.88684 0.23689 0.44467 0.0
N45 N 0.92647 0.28312 0.43053 0.0
C46 C 0.801 0.14336 0.43065 0.0
H47 H 0.82135 0.1204 0.44091 0.0
H48 H 0.76984 0.14354 0.44703 0.0
H49 H 0.77815 0.1196 0.41004 0.0
C50 C 0.93164 0.3318 0.55013 0.0
N51 N 0.90626 0.27741 0.54009 0.0
N52 N 0.88875 0.27563 0.51223 0.0
C53 C 0.89591 0.32728 0.50488 0.0
C54 C 0.92515 0.36593 0.52839 0.0
C55 C 0.97281 0.35176 0.57619 0.0
H56 H -0.01148 0.32142 0.58032 0.0
H57 H 0.95069 0.35425 0.59682 0.0
H58 H 0.01089 0.39433 0.57161 0.0
O59 O 0.97442 0.21512 0.54173 0.0
O60 O 0.96854 0.22498 0.49216 0.0
H61 H 0.9034 0.35448 0.45861 0.0
H62 H 0.85605 0.36821 0.48132 0.0
C63 C 0.87083 0.33715 0.47682 0.0
H64 H 0.83409 0.29611 0.46877 0.0
H65 H 0.9635 0.31529 0.44087 0.0
O66 O 0.92064 0.22633 0.60187 0.0
C67 C -0.00498 0.22139 0.51531 0.0
Co68 Co 0.69046 0.91352 0.89247 0.0
Co69 Co 0.66327 0.90067 0.82304 0.0
C70 C 0.69947 0.82565 0.85432 0.0
O71 O 0.69957 0.84595 0.88049 0.0
O72 O 0.68669 0.84409 0.83088 0.0
C73 C 0.66418 0.91826 0.957 0.0
O74 O 0.60956 0.88594 0.95029 0.0
C75 C 0.61887 0.84436 0.76478 0.0
C76 C 0.63222 0.91613 0.73536 0.0
C77 C 0.61493 0.85831 0.73509 0.0
N78 N 0.63825 0.8917 0.78188 0.0
N79 N 0.64532 0.93437 0.76421 0.0
C80 C 0.60418 0.7866 0.77659 0.0
H81 H 0.59126 0.78232 0.80072 0.0
H82 H 0.56896 0.75232 0.76306 0.0
H83 H 0.64219 0.7812 0.77457 0.0
C84 C 0.59671 0.94097 0.8875 0.0
N85 N 0.62358 0.91307 0.87769 0.0
N86 N 0.60567 0.8941 0.8502 0.0
C87 C 0.56187 0.90254 0.84317 0.0
C88 C 0.55509 0.93398 0.86631 0.0
C89 C 0.62212 0.98693 0.9112 0.0
H90 H 0.66737 -0.00073 0.91577 0.0
H91 H 0.59704 0.97134 0.93241 0.0
H92 H 0.62109 0.02573 0.90373 0.0
O93 O 0.7544 0.98134 0.87586 0.0
O94 O 0.73341 0.97886 0.82712 0.0
H95 H 0.54822 0.91339 0.79647 0.0
H96 H 0.48314 0.87057 0.81791 0.0
C97 C 0.5281 0.88065 0.81452 0.0
H98 H 0.52806 0.84136 0.80695 0.0
H99 H 0.66146 0.97645 0.77161 0.0
O100 O 0.70185 0.92941 0.93675 0.0
C101 C 0.7656 0.00408 0.84984 0.0
Co102 Co 0.77068 0.69403 0.22627 0.0
Co103 Co 0.75312 0.66312 0.15671 0.0
C104 C 0.86598 0.70213 0.18682 0.0
O105 O 0.84687 0.70284 0.21321 0.0
O106 O 0.83374 0.68859 0.16379 0.0
C107 C 0.74843 0.67872 0.29333 0.0
O108 O 0.72131 0.62278 0.28998 0.0
C109 C 0.76114 0.61693 0.09693 0.0
C110 C 0.70356 0.63534 0.06977 0.0
C111 C 0.7427 0.61623 0.06723 0.0
N112 N 0.73518 0.63688 0.11545 0.0
N113 N 0.69998 0.64661 0.09905 0.0
C114 C 0.80427 0.60134 0.10768 0.0
H115 H 0.84578 0.62767 0.09581 0.0
H116 H 0.81052 0.6068 0.13241 0.0
H117 H 0.78834 0.55542 0.10289 0.0
C118 C 0.64914 0.59877 0.22335 0.0
N119 N 0.70358 0.62576 0.21279 0.0
N120 N 0.70344 0.60714 0.18527 0.0
C121 C 0.65088 0.56317 0.17893 0.0
C122 C 0.61339 0.55698 0.20244 0.0
C123 C 0.62989 0.6236 0.24799 0.0
H124 H 0.66327 0.66856 0.25269 0.0
H125 H 0.62127 0.59787 0.26892 0.0
H126 H 0.58983 0.62304 0.2414 0.0
O127 O 0.76501 0.75618 0.20859 0.0
O128 O 0.7446 0.73286 0.16019 0.0
H129 H 0.62595 0.54866 0.13229 0.0
H130 H 0.60276 0.48397 0.15421 0.0
C131 C 0.63815 0.52859 0.15053 0.0
H132 H 0.67706 0.52774 0.14299 0.0
H133 H 0.6757 0.6638 0.10763 0.0
O134 O 0.77154 0.71103 0.27055 0.0
C135 C 0.75225 0.76597 0.18255 0.0
Co136 Co 0.06611 0.77063 0.55669 0.0
Co137 Co 0.07634 0.75959 0.48628 0.0
C138 C 0.15377 0.86891 0.51867 0.0
O139 O 0.13351 0.84812 0.54483 0.0
O140 O 0.1347 0.83847 0.49501 0.0
C141 C 0.02757 0.77928 0.61616 0.0
O142 O 0.01588 0.81572 0.60271 0.0
C143 C 0.1309 0.77214 0.42745 0.0
C144 C 0.05737 0.71856 0.39773 0.0
C145 C 0.11602 0.7565 0.3975 0.0
N146 N 0.08328 0.74557 0.44453 0.0
N147 N 0.0395 0.71295 0.42667 0.0
C148 C 0.18976 0.81038 0.43984 0.0
H149 H 0.19259 0.798 0.46345 0.0
H150 H 0.22256 0.80813 0.42559 0.0
H151 H 0.19883 0.85522 0.43985 0.0
C152 C 0.04024 0.65159 0.55025 0.0
N153 N 0.06664 0.70595 0.53999 0.0
N154 N 0.08218 0.70656 0.5118 0.0
C155 C 0.07209 0.654 0.5042 0.0
C156 C 0.04338 0.61619 0.52808 0.0
C157 C 0.0005 0.63293 0.57693 0.0
H158 H 0.98561 0.66386 0.58121 0.0
H159 H 0.02357 0.6307 0.59721 0.0
H160 H 0.96184 0.59046 0.57305 0.0
O161 O -0.00306 0.76705 0.54171 0.0
O162 O -0.00056 0.75307 0.49229 0.0
H163 H 0.05553 0.63007 0.45751 0.0
H164 H 0.09921 0.60588 0.47653 0.0
C165 C 0.09004 0.64156 0.47442 0.0
H166 H 0.12919 0.68025 0.46612 0.0
H167 H -0.00286 0.68854 0.43409 0.0
O168 O 0.05449 0.75933 0.60153 0.0
C169 C 0.97431 0.75808 0.51565 0.0
Co170 Co 0.28693 0.07168 0.89338 0.0
Co171 Co 0.31336 0.08396 0.82377 0.0
C172 C 0.27786 0.15939 0.8551 0.0
O173 O 0.27823 0.13948 0.88133 0.0
O174 O 0.28962 0.14021 0.83163 0.0
C175 C 0.31333 0.06622 0.95789 0.0
O176 O 0.36803 0.0981 0.9512 0.0
C177 C 0.35777 0.1364 0.76375 0.0
C178 C 0.33685 0.05957 0.73673 0.0
C179 C 0.35739 0.11807 0.7341 0.0
N180 N 0.33708 0.09063 0.78233 0.0
N181 N 0.32583 0.04513 0.76606 0.0
C182 C 0.37542 0.19564 0.77448 0.0
H183 H 0.34981 0.21185 0.76285 0.0
H184 H 0.37061 0.19675 0.79924 0.0
H185 H 0.42153 0.22459 0.76941 0.0
C186 C 0.38032 0.04371 0.88795 0.0
N187 N 0.3535 0.07176 0.87829 0.0
N188 N 0.37121 0.09073 0.85075 0.0
C189 C 0.41481 0.08209 0.84353 0.0
C190 C 0.42169 0.05057 0.8666 0.0
C191 C 0.35499 -0.00229 0.91166 0.0
H192 H 0.30985 0.98556 0.91641 0.0
H193 H 0.38031 0.01315 0.93279 0.0
H194 H 0.35576 0.95884 0.90408 0.0
O195 O 0.22249 0.00385 0.87717 0.0
O196 O 0.24337 0.00592 0.82845 0.0
H197 H 0.42759 0.07086 0.79675 0.0
H198 H 0.49309 0.11363 0.81786 0.0
C199 C 0.44812 0.1037 0.81471 0.0
H200 H 0.4482 0.14302 0.80716 0.0
H201 H 0.308 0.00371 0.7748 0.0
O202 O 0.27582 0.05583 0.93769 0.0
C203 C 0.2112 0.9809 0.85122 0.0
Co204 Co 0.68334 0.77248 0.46442 0.0
Co205 Co 0.65947 0.75771 0.53469 0.0
C206 C 0.69509 0.86927 0.50372 0.0
O207 O 0.69353 0.84978 0.47708 0.0
O208 O 0.68338 0.83748 0.52686 0.0
C209 C 0.73291 0.78172 0.40541 0.0
O210 O 0.78087 0.81701 0.41943 0.0
C211 C 0.62093 0.76959 0.59528 0.0
C212 C 0.62614 0.70191 0.62086 0.0
C213 C 0.61433 0.74617 0.62409 0.0
N214 N 0.63579 0.74035 0.57613 0.0
N215 N 0.63813 0.69954 0.59151 0.0
C216 C 0.62157 0.82359 0.58651 0.0
H217 H 0.66675 0.85879 0.58527 0.0
H218 H 0.60177 0.8183 0.56387 0.0
H219 H 0.59903 0.8364 0.60283 0.0
C220 C 0.58934 0.65309 0.46967 0.0
N221 N 0.61718 0.70728 0.48019 0.0
N222 N 0.60069 0.70748 0.50808 0.0
C223 C 0.55701 0.65506 0.51501 0.0
C224 C 0.54897 0.61745 0.49122 0.0
C225 C 0.61182 0.63474 0.44352 0.0
H226 H 0.65761 0.66636 0.4394 0.0
H227 H 0.58673 0.63136 0.42295 0.0
H228 H 0.60883 0.59283 0.44796 0.0
O229 O 0.74813 0.76804 0.47988 0.0
O230 O 0.72906 0.74971 0.5289 0.0
H231 H 0.54193 0.62878 0.56149 0.0
H232 H 0.47771 0.60933 0.53993 0.0
C233 C 0.52306 0.64309 0.54363 0.0
H234 H 0.5244 0.68275 0.5517 0.0
H235 H 0.65005 0.67146 0.58218 0.0
O236 O 0.68545 0.76253 0.41948 0.0
C237 C 0.76037 0.75671 0.50574 0.0
Co238 Co 0.9081 0.69397 0.79633 0.0
Co239 Co 0.89525 0.66445 0.86597 0.0
C240 C 0.82045 0.70186 0.83567 0.0
O241 O 0.84111 0.70301 0.80947 0.0
O242 O 0.83836 0.68789 0.85888 0.0
C243 C 0.91262 0.67751 0.72924 0.0
O244 O 0.88301 0.62162 0.73276 0.0
C245 C 0.83908 0.61981 0.92458 0.0
C246 C 0.9115 0.63432 0.95383 0.0
C247 C 0.85358 0.61711 0.95446 0.0
N248 N 0.88629 0.63882 0.90726 0.0
N249 N 0.92931 0.64662 0.92487 0.0
C250 C 0.78094 0.60335 0.91249 0.0
H251 H 0.77532 0.64132 0.91263 0.0
H252 H 0.77664 0.58789 0.88883 0.0
H253 H 0.74684 0.56956 0.92678 0.0
C254 C 0.93372 0.59856 0.79927 0.0
N255 N 0.90705 0.62606 0.81004 0.0
N256 N 0.88951 0.60819 0.83778 0.0
C257 C 0.89796 0.5642 0.84416 0.0
C258 C 0.92812 0.55714 0.82032 0.0
C259 C 0.97678 0.62258 0.77407 0.0
H260 H -0.01131 0.66757 0.76926 0.0
H261 H 0.95846 0.59654 0.75335 0.0
H262 H 0.01637 0.62176 0.78014 0.0
O263 O 0.97618 0.75649 0.81355 0.0
O264 O 0.97325 0.73499 0.86226 0.0
H265 H 0.91015 0.55092 0.89072 0.0
H266 H 0.86722 0.48562 0.86944 0.0
C267 C 0.87703 0.53043 0.87288 0.0
H268 H 0.83768 0.53 0.88081 0.0
H269 H 0.97139 0.6628 0.91734 0.0
O270 O 0.92324 0.71012 0.752 0.0
C271 C -0.0013 0.76738 0.83962 0.0
Co272 Co 0.2065 0.91261 0.12692 0.0
Co273 Co 0.22192 0.90099 0.19639 0.0
C274 C 0.11002 0.82572 0.16569 0.0
O275 O 0.12973 0.84487 0.13926 0.0
O276 O 0.14164 0.84541 0.18889 0.0
C277 C 0.23776 0.91736 0.0624 0.0
O278 O 0.26002 0.88511 0.06916 0.0
C279 C 0.2135 0.84802 0.25613 0.0
C280 C 0.26956 0.9244 0.28344 0.0
C281 C 0.23117 0.86591 0.28587 0.0
N282 N 0.23908 0.89402 0.23773 0.0
N283 N 0.27343 0.93926 0.25416 0.0
C284 C 0.17191 0.789 0.24505 0.0
H285 H 0.16717 0.78826 0.2202 0.0
H286 H 0.1884 0.75971 0.25047 0.0
H287 H 0.12954 0.77302 0.2561 0.0
C288 C 0.32794 0.94008 0.13181 0.0
N289 N 0.27309 0.91226 0.14166 0.0
N290 N 0.272 0.89325 0.16915 0.0
C291 C 0.32421 0.90156 0.17615 0.0
C292 C 0.36252 0.93298 0.15299 0.0
C293 C 0.34869 0.98605 0.1081 0.0
H294 H 0.31583 -0.00162 0.10348 0.0
H295 H 0.35824 0.9705 0.08692 0.0
H296 H 0.38861 0.02485 0.11559 0.0
O297 O 0.2107 0.98082 0.14318 0.0
O298 O 0.23092 0.97925 0.19172 0.0
H299 H 0.3485 0.91242 0.22288 0.0
H300 H 0.37079 0.86961 0.20153 0.0
C301 C 0.33592 0.87969 0.20485 0.0
H302 H 0.29652 0.84041 0.21241 0.0
H303 H 0.29732 0.98079 0.24558 0.0
O304 O 0.21093 0.9282 0.08258 0.0
C305 C 0.22334 0.00411 0.16905 0.0
Co306 Co 0.28902 0.21193 0.46312 0.0
Co307 Co 0.31086 0.22354 0.53342 0.0
C308 C 0.27844 0.11399 0.50126 0.0
O309 O 0.27899 0.13466 0.47508 0.0
O310 O 0.29016 0.14459 0.52488 0.0
C311 C 0.24102 0.20261 0.40397 0.0
O312 O 0.1931 0.166 0.41763 0.0
C313 C 0.35269 0.21134 0.59236 0.0
C314 C 0.33413 0.26621 0.62177 0.0
C315 C 0.35393 0.22763 0.62221 0.0
N316 N 0.33225 0.23816 0.57511 0.0
N317 N 0.32195 0.27157 0.59278 0.0
C318 C 0.37209 0.17202 0.58024 0.0
H319 H 0.38767 0.18396 0.55664 0.0
H320 H 0.40664 0.17356 0.59463 0.0
H321 H 0.33552 0.12752 0.58029 0.0
C322 C 0.38232 0.33132 0.46923 0.0
N323 N 0.35432 0.277 0.47958 0.0
N324 N 0.36961 0.27655 0.5077 0.0
C325 C 0.41237 0.32913 0.51513 0.0
C326 C 0.4213 0.36687 0.49125 0.0
C327 C 0.36097 0.34978 0.44263 0.0
H328 H 0.31516 0.31853 0.43832 0.0
H329 H 0.38643 0.35249 0.42232 0.0
H330 H 0.3644 0.39201 0.44663 0.0
O331 O 0.22309 0.21474 0.47816 0.0
O332 O 0.2399 0.22912 0.52753 0.0
H333 H 0.42084 0.35323 0.56184 0.0
H334 H 0.48835 0.37709 0.54238 0.0
C335 C 0.44338 0.34155 0.54473 0.0
H336 H 0.44366 0.30277 0.55293 0.0
H337 H 0.30458 0.29635 0.58522 0.0
O338 O 0.28821 0.22282 0.41834 0.0
C339 C 0.20933 0.22342 0.50425 0.0
Co340 Co 0.07021 0.29092 0.79551 0.0
Co341 Co 0.0816 0.31984 0.86505 0.0
C342 C 0.15708 0.28272 0.83511 0.0
O343 O 0.13751 0.28213 0.80868 0.0
O344 O 0.1381 0.29607 0.8581 0.0
C345 C 0.06558 0.30803 0.72855 0.0
O346 O 0.09481 0.36389 0.73221 0.0
C347 C 0.13767 0.36394 0.92357 0.0
C348 C 0.06549 0.35008 0.95289 0.0
C349 C 0.1233 0.36685 0.95344 0.0
N350 N 0.09048 0.34527 0.90631 0.0
N351 N 0.0476 0.33784 0.92395 0.0
C352 C 0.19565 0.37974 0.91146 0.0
H353 H 0.20054 0.34133 0.91133 0.0
H354 H 0.2003 0.39573 0.88789 0.0
H355 H 0.22999 0.41295 0.92586 0.0
C356 C 0.04341 0.38567 0.79863 0.0
N357 N 0.07064 0.35859 0.80925 0.0
N358 N 0.08821 0.37647 0.83696 0.0
C359 C 0.07932 0.42011 0.84345 0.0
C360 C 0.0487 0.42683 0.81977 0.0
C361 C 0.00025 0.36144 0.77353 0.0
H362 H -0.01125 0.3166 0.76863 0.0
H363 H 0.01828 0.38765 0.75281 0.0
H364 H 0.96048 0.36179 0.77973 0.0
O365 O 0.00193 0.22794 0.81252 0.0
O366 O 0.00352 0.24968 0.86109 0.0
H367 H 0.06756 0.43344 0.89009 0.0
H368 H 0.10993 0.49871 0.86866 0.0
C369 C 0.10043 0.45399 0.87212 0.0
H370 H 0.13999 0.45469 0.87988 0.0
H371 H 0.00556 0.32197 0.91646 0.0
O372 O 0.05533 0.27521 0.75119 0.0
C373 C 0.97869 0.21717 0.83842 0.0
Co374 Co 0.76884 0.06936 0.1268 0.0
Co375 Co 0.754 0.08192 0.19614 0.0
C376 C 0.86561 0.15693 0.16511 0.0
O377 O 0.84593 0.13705 0.1388 0.0
O378 O 0.83384 0.13817 0.18834 0.0
C379 C 0.73795 0.06483 0.06228 0.0
O380 O 0.71591 0.09728 0.06901 0.0
C381 C 0.76727 0.1382 0.25442 0.0
C382 C 0.71035 0.066 0.28412 0.0
C383 C 0.7509 0.12394 0.28435 0.0
N384 N 0.73871 0.09082 0.23738 0.0
N385 N 0.70408 0.04791 0.25522 0.0
C386 C 0.8084 0.19626 0.24202 0.0
H387 H 0.79656 0.20018 0.21845 0.0
H388 H 0.80876 0.23031 0.25632 0.0
H389 H 0.8522 0.2023 0.24187 0.0
C390 C 0.64743 0.04216 0.13171 0.0
N391 N 0.70228 0.06992 0.14155 0.0
N392 N 0.70331 0.08882 0.16905 0.0
C393 C 0.65109 0.08043 0.1761 0.0
C394 C 0.61281 0.04912 0.15293 0.0
C395 C 0.6267 -0.00366 0.10794 0.0
H396 H 0.6595 0.98393 0.10331 0.0
H397 H 0.61734 0.01211 0.08677 0.0
H398 H 0.58669 0.95755 0.11537 0.0
O399 O 0.76457 0.00125 0.14337 0.0
O400 O 0.74547 0.00384 0.19201 0.0
H401 H 0.62685 0.06907 0.22285 0.0
H402 H 0.60426 0.11186 0.2017 0.0
C403 C 0.63927 0.10194 0.2049 0.0
H404 H 0.67857 0.14126 0.21248 0.0
H405 H 0.67807 0.00578 0.24787 0.0
O406 O 0.76433 0.05353 0.0825 0.0
C407 C 0.75257 0.97853 0.1694 0.0
C408 C 0.19047 0.19825 0.35553 0.0
C409 C 0.23863 0.22743 0.37442 0.0
H410 H 0.14883 0.19982 0.31446 0.0
C411 C 0.28217 0.28267 0.36598 0.0
H412 H 0.15611 0.15575 0.36144 0.0
C413 C 0.27703 0.30866 0.33966 0.0
C414 C 0.22899 0.27935 0.32077 0.0
H415 H 0.31972 0.30642 0.38002 0.0
H416 H 0.31125 0.35125 0.33377 0.0
C417 C 0.18611 0.22361 0.32876 0.0
C418 C -0.007 0.20131 0.66488 0.0
C419 C 0.97509 0.23102 0.64574 0.0
H420 H 0.03539 0.2023 0.70614 0.0
C421 C -0.0119 0.28673 0.65388 0.0
H422 H 0.98387 0.15845 0.65919 0.0
C423 C 0.01924 0.31254 0.68025 0.0
C424 C 0.03678 0.28265 0.69944 0.0
H425 H 0.97528 0.31095 0.63959 0.0
H426 H 0.02853 0.35547 0.68592 0.0
C427 C 0.0228 0.22654 0.69165 0.0
C428 C 0.73671 0.97278 0.99723 0.0
C429 C 0.68186 0.95317 0.98491 0.0
H430 H 0.79739 0.02342 0.03157 0.0
C431 C 0.64655 0.97235 0.99754 0.0
H432 H 0.76502 0.95912 0.98772 0.0
C433 C 0.66603 0.01105 0.02172 0.0
C434 C 0.7205 0.02992 0.03437 0.0
H435 H 0.60439 0.95864 0.98825 0.0
H436 H 0.63779 0.025 0.03099 0.0
C437 C 0.75545 0.01 0.02205 0.0
C438 C 0.78846 0.75994 0.33049 0.0
C439 C 0.74491 0.7047 0.32221 0.0
H440 H 0.819 0.82745 0.36338 0.0
C441 C 0.69617 0.67615 0.34076 0.0
H442 H 0.82629 0.78316 0.31647 0.0
C443 C 0.69106 0.70233 0.36703 0.0
C444 C 0.73529 0.75696 0.37579 0.0
H445 H 0.66144 0.63399 0.33466 0.0
H446 H 0.65299 0.67911 0.3808 0.0
C447 C 0.78409 0.78543 0.35723 0.0
C448 C 0.98296 0.78397 0.66514 0.0
C449 C 0.00112 0.7546 0.64591 0.0
H450 H 0.94108 0.78274 0.70668 0.0
C451 C -0.01065 0.69935 0.65425 0.0
H452 H -0.00884 0.82648 0.65932 0.0
C453 C 0.95895 0.67355 0.68082 0.0
C454 C 0.94103 0.70305 0.70006 0.0
H455 H 0.00247 0.67542 0.63994 0.0
H456 H 0.95047 0.63093 0.68661 0.0
C457 C 0.95398 0.75881 0.69214 0.0
C458 C 0.24031 0.01116 0.99789 0.0
C459 C 0.29521 0.03072 0.98562 0.0
H460 H 0.17912 0.96 0.03196 0.0
C461 C 0.33009 0.01086 0.99808 0.0
H462 H 0.2123 0.02532 0.98851 0.0
C463 C 0.31015 0.97161 0.02203 0.0
C464 C 0.25563 0.9528 0.03463 0.0
H465 H 0.37227 0.02448 0.98882 0.0
H466 H 0.33808 0.95717 0.03117 0.0
C467 C 0.2211 0.97335 0.02248 0.0
C468 C 0.15305 0.40249 1.00646 0.0
C469 C 0.15712 0.37337 0.98112 0.0
H470 H 0.17672 0.4273 0.05223 0.0
C471 C 0.18949 0.34584 0.98339 0.0
H472 H 0.12851 0.4243 1.00526 0.0
C473 C 0.2159 0.34605 0.0106 0.0
C474 C 0.21049 0.37347 0.0365 0.0
H475 H 0.19216 0.32152 0.96463 0.0
H476 H 0.23872 0.32248 0.01153 0.0
C477 C 0.18014 0.4033 0.0337 0.0
C478 C 0.74562 0.15341 0.3373 0.0
C479 C 0.77867 0.15803 0.31177 0.0
H480 H 0.74584 0.17555 0.3839 0.0
C481 C 0.83882 0.19061 0.31374 0.0
H482 H 0.69918 0.12864 0.33633 0.0
C483 C 0.86544 0.21633 0.34101 0.0
C484 C 0.83246 0.20949 0.36691 0.0
H485 H 0.86556 0.1937 0.29474 0.0
H486 H 0.91189 0.23924 0.34218 0.0
C487 C 0.7723 0.17972 0.36452 0.0
C488 C 0.57177 0.81828 0.68449 0.0
C489 C 0.60966 0.82445 0.70786 0.0
H490 H 0.5401 0.78442 0.6403 0.0
C491 C 0.64592 0.80144 0.70428 0.0
H492 H 0.54305 0.83527 0.68697 0.0
C493 C 0.6459 0.77458 0.67731 0.0
C494 C 0.60957 0.7701 0.65339 0.0
H495 H 0.67618 0.80645 0.72181 0.0
H496 H 0.67595 0.7592 0.67478 0.0
C497 C 0.57084 0.79014 0.65767 0.0
C498 C 0.82477 0.58197 1.00766 0.0
C499 C 0.81975 0.61029 0.98221 0.0
H500 H 0.8021 0.55774 0.05359 0.0
C501 C 0.78651 0.63689 0.98448 0.0
H502 H 0.85002 0.56089 1.00649 0.0
C503 C 0.76019 0.63658 0.01177 0.0
C504 C 0.76657 0.61 0.03777 0.0
H505 H 0.78308 0.66064 0.96566 0.0
H506 H 0.73666 0.65944 0.01266 0.0
C507 C 0.79783 0.58107 0.03499 0.0
C508 C 0.186 0.84273 0.36827 0.0
C509 C 0.15107 0.78301 0.37016 0.0
H510 H 0.23827 0.91505 0.34057 0.0
C511 C 0.14585 0.74957 0.34478 0.0
H512 H 0.18974 0.8699 0.38717 0.0
C513 C 0.17414 0.7755 0.31775 0.0
C514 C 0.2068 0.8357 0.3152 0.0
H515 H 0.11939 0.7033 0.34577 0.0
H516 H 0.16954 0.74774 0.2992 0.0
C517 C 0.21357 0.86867 0.34124 0.0
C518 C 0.39302 0.20825 0.70188 0.0
C519 C 0.36348 0.14805 0.70471 0.0
H520 H 0.41265 0.28065 0.67355 0.0
C521 C 0.33573 0.11499 0.67892 0.0
H522 H 0.41742 0.23587 0.72025 0.0
C523 C 0.33469 0.141 0.65183 0.0
C524 C 0.36157 0.20085 0.64966 0.0
H525 H 0.31248 0.0686 0.67985 0.0
H526 H 0.3102 0.11393 0.63311 0.0
C527 C 0.39122 0.2343 0.67479 0.0
C528 C 0.51751 0.50651 0.22957 0.0
C529 C 0.54902 0.52312 0.20239 0.0
H530 H 0.4352 0.46913 0.25078 0.0
C531 C 0.51809 0.50852 0.17511 0.0
H532 H 0.53902 0.51553 0.25119 0.0
C533 C 0.45835 0.47598 0.17489 0.0
C534 C 0.42663 0.46128 0.20193 0.0
H535 H 0.53924 0.52229 0.15354 0.0
H536 H 0.43784 0.4622 0.15318 0.0
C537 C 0.45735 0.4781 0.22934 0.0
C538 C 0.96823 0.46129 0.55544 0.0
C539 C 0.95275 0.42999 0.52824 0.0
H540 H 0.0158 0.54284 0.57671 0.0
C541 C 0.9669 0.46104 0.50099 0.0
H542 H 0.95616 0.43996 0.57711 0.0
C543 C -0.00601 0.52074 0.50096 0.0
C544 C 0.01314 0.55205 0.52803 0.0
H545 H 0.95815 0.44024 0.47932 0.0
H546 H -0.00076 0.54151 0.47943 0.0
C547 C 0.00085 0.52113 0.55527 0.0
C548 C 0.47158 0.0054 0.8391 0.0
C549 C 0.45664 0.02147 0.86636 0.0
H550 H 0.51862 0.97192 0.8174 0.0
C551 C 0.47392 0.00767 0.8936 0.0
H552 H 0.45755 0.01239 0.81752 0.0
C553 C 0.50299 0.97681 0.89353 0.0
C554 C 0.52004 0.96297 0.86622 0.0
H555 H 0.46489 0.02032 0.91516 0.0
H556 H 0.51226 0.96422 0.91505 0.0
C557 C 0.50479 0.97895 0.83903 0.0
C558 C 0.46769 0.46225 0.51842 0.0
C559 C 0.45507 0.43108 0.4913 0.0
H560 H 0.51196 0.54268 0.54011 0.0
C561 C 0.4729 0.46222 0.46406 0.0
H562 H 0.45305 0.44139 0.54 0.0
C563 C 0.4992 0.52203 0.46398 0.0
C564 C 0.51474 0.5532 0.49122 0.0
H565 H 0.46605 0.44068 0.44256 0.0
H566 H 0.50778 0.54347 0.44236 0.0
C567 C 0.49942 0.52196 0.51843 0.0
C568 C 0.97474 0.50794 0.84709 0.0
C569 C 0.95802 0.52275 0.82001 0.0
H570 H 0.00869 0.46134 0.86855 0.0
C571 C 0.97209 0.50593 0.79265 0.0
H572 H 0.96796 0.5217 0.86878 0.0
C573 C 0.00376 0.47753 0.79251 0.0
C574 C 0.01828 0.46073 0.81972 0.0
H575 H 0.9591 0.51487 0.77117 0.0
H576 H 0.0165 0.46868 0.77092 0.0
C577 C 0.0017 0.47526 0.84695 0.0
C578 C 0.5177 0.0065 0.12579 0.0
C579 C 0.54869 0.02013 0.15307 0.0
H580 H 0.43585 0.96332 0.10427 0.0
C581 C 0.5175 0.00401 0.18029 0.0
H582 H 0.53955 0.01915 0.10426 0.0
C583 C 0.4578 0.97775 0.1803 0.0
C584 C 0.42664 0.96192 0.15309 0.0
H585 H 0.53841 0.01079 0.20189 0.0
H586 H 0.43687 0.97076 0.20192 0.0
C587 C 0.45766 0.97579 0.1258 0.0
C588 C 0.00936 0.23674 0.20486 0.0
C589 C 0.04779 0.25822 0.18051 0.0
H590 H 0.92236 0.18791 0.21906 0.0
C591 C 0.02548 0.25189 0.15095 0.0
H592 H 0.02484 0.24073 0.22785 0.0
C593 C 0.96616 0.22139 0.14578 0.0
C594 C 0.92785 0.197 0.17007 0.0
H595 H 0.05384 0.26813 0.13157 0.0
H596 H 0.9505 0.21509 0.12273 0.0
C597 C 0.95026 0.20654 0.19971 0.0
C598 C 0.74153 0.95516 0.53748 0.0
C599 C 0.71756 0.93129 0.50908 0.0
H600 H 0.79017 0.03112 0.56381 0.0
C601 C 0.71907 0.96781 0.4861 0.0
H602 H 0.74193 0.92851 0.55567 0.0
C603 C 0.74643 0.02708 0.49102 0.0
C604 C 0.77409 0.05129 0.51872 0.0
H605 H 0.70041 0.95081 0.46416 0.0
H606 H 0.74776 0.05399 0.47262 0.0
C607 C 0.76938 0.01431 0.54225 0.0
C608 C 0.73901 0.76513 0.8746 0.0
C609 C 0.72152 0.7854 0.84994 0.0
H610 H 0.78387 0.72309 0.88946 0.0
C611 C 0.73128 0.77206 0.82045 0.0
H612 H 0.73246 0.77466 0.89757 0.0
C613 C 0.76041 0.74196 0.8157 0.0
C614 C 0.78075 0.72451 0.84032 0.0
H615 H 0.71925 0.78752 0.8008 0.0
H616 H 0.76925 0.73476 0.79271 0.0
C617 C 0.76829 0.73511 0.86985 0.0
C618 C 0.95002 0.73371 0.15185 0.0
C619 C 0.92815 0.7243 0.18164 0.0
H620 H 0.02443 0.77306 0.12329 0.0
C621 C 0.9669 0.74199 0.20586 0.0
H622 H 0.92147 0.7203 0.13252 0.0
C623 C 0.02604 0.77166 0.20045 0.0
C624 C 0.04792 0.78502 0.17068 0.0
H625 H 0.95168 0.73511 0.22901 0.0
H626 H 0.05453 0.78665 0.2198 0.0
C627 C 0.0092 0.76402 0.14644 0.0
C628 C 0.20851 0.95485 0.48515 0.0
C629 C 0.19468 0.93122 0.51456 0.0
H630 H 0.24621 0.03069 0.45775 0.0
C631 C 0.21499 0.96853 0.53937 0.0
H632 H 0.1932 0.92769 0.46538 0.0
C633 C 0.24526 0.0279 0.53488 0.0
C634 C 0.25608 0.05156 0.50546 0.0
H635 H 0.20517 0.95207 0.56227 0.0
H636 H 0.25722 0.0551 0.55464 0.0
C637 C 0.23883 0.01421 0.48066 0.0
C638 C 0.20515 0.24626 0.86997 0.0
C639 C 0.19679 0.26028 0.84036 0.0
H640 H 0.23759 0.20403 0.898 0.0
C641 C 0.22177 0.247 0.81615 0.0
H642 H 0.18611 0.25518 0.88925 0.0
C643 C 0.25151 0.21754 0.82128 0.0
C644 C 0.25649 0.20016 0.85073 0.0
H645 H 0.21645 0.25732 0.79312 0.0
H646 H 0.26817 0.206 0.80188 0.0
C647 C 0.2346 0.21658 0.8751 0.0
C648 C 0.22864 0.14311 0.14907 0.0
C649 C 0.22905 0.1653 0.17776 0.0
H650 H 0.22653 0.07461 0.12385 0.0
C651 C 0.23139 0.13593 0.20363 0.0
H652 H 0.22708 0.16485 0.12878 0.0
C653 C 0.23116 0.0843 0.20091 0.0
C654 C 0.22827 0.06085 0.17227 0.0
H655 H 0.23244 0.15231 0.22615 0.0
H656 H 0.23173 0.06213 0.22124 0.0
C657 C 0.22807 0.09127 0.14635 0.0
C658 C 0.13437 0.22765 0.53567 0.0
C659 C 0.15593 0.22568 0.50713 0.0
H660 H 0.06673 0.22788 0.56059 0.0
C661 C 0.12511 0.22429 0.48106 0.0
H662 H 0.15711 0.22888 0.55613 0.0
C663 C 0.07318 0.22376 0.48354 0.0
C664 C 0.05099 0.22437 0.51212 0.0
H665 H 0.14077 0.22311 0.45865 0.0
H666 H 0.05013 0.22201 0.46311 0.0
C667 C 0.08241 0.2269 0.53814 0.0
C668 C 0.84732 0.09168 0.87267 0.0
C669 C 0.81776 0.06071 0.84664 0.0
H670 H 0.9212 0.16562 0.89057 0.0
C671 C 0.83976 0.08347 0.81805 0.0
H672 H 0.8311 0.07558 0.89513 0.0
C673 C 0.89147 0.13505 0.81554 0.0
C674 C 0.92202 0.16503 0.84158 0.0
H675 H 0.81788 0.06081 0.79765 0.0
H676 H 0.9079 0.15095 0.79309 0.0
C677 C 0.89886 0.14342 0.87016 0.0
C678 C 0.74594 0.89927 0.20166 0.0
C679 C 0.74787 0.92194 0.17289 0.0
H680 H 0.74554 0.83198 0.22719 0.0
C681 C 0.74736 0.8909 0.14711 0.0
H682 H 0.74595 0.92195 0.22189 0.0
C683 C 0.74697 0.83919 0.15006 0.0
C684 C 0.74746 0.81776 0.17884 0.0
H685 H 0.74816 0.90695 0.12453 0.0
H686 H 0.74791 0.81693 0.12985 0.0
C687 C 0.74589 0.84777 0.2046 0.0
C688 C 0.83536 0.75201 0.53694 0.0
C689 C 0.81306 0.75315 0.50848 0.0
H690 H 0.90389 0.7527 0.5615 0.0
C691 C 0.84283 0.7531 0.48227 0.0
H692 H 0.81339 0.7519 0.55751 0.0
C693 C 0.89466 0.75347 0.48448 0.0
C694 C 0.9179 0.7542 0.51295 0.0
H695 H 0.82649 0.75347 0.45993 0.0
H696 H 0.91699 0.75436 0.46391 0.0
C697 C 0.88736 0.75269 0.53916 0.0
C698 C 0.12879 0.8938 0.87412 0.0
C699 C 0.15908 0.92424 0.84811 0.0
H700 H 0.05447 0.82006 0.89194 0.0
C701 C 0.13802 0.90081 0.81952 0.0
H702 H 0.14428 0.91043 0.89658 0.0
C703 C 0.08654 0.84906 0.81696 0.0
C704 C 0.05524 0.81957 0.84295 0.0
H705 H 0.16049 0.92301 0.79912 0.0
H706 H 0.07088 0.83264 0.79449 0.0
C707 C 0.07743 0.84186 0.87156 0.0
loop_
_geom_bond_atom_site_label_1
_geom_bond_atom_site_label_2
_geom_bond_distance
_geom_bond_site_symmetry_2
_ccdc_geom_bond_type
Co0 O3 1.970 . S
Co0 N17 1.989 . S
Co0 O25 1.967 . S
Co0 O32 1.920 . S
Co1 O4 1.966 . S
Co1 N10 2.022 . S
Co1 N18 1.993 . S
Co1 O26 1.941 . S
C2 O3 1.258 . S
C2 O4 1.263 . S
O3 Co0 1.970 . S
O3 C2 1.258 . S
O4 Co1 1.966 . S
O4 C2 1.263 . S
C5 O6 1.235 . S
C5 O32 1.289 . S
O6 C5 1.235 . S
C7 C9 1.400 . S
C7 N10 1.351 . S
C7 C12 1.501 . S
C8 C9 1.387 . S
C8 N11 1.341 . S
C9 C7 1.400 . S
C9 C8 1.387 . S
N10 Co1 2.022 . S
N10 C7 1.351 . S
N10 N11 1.365 . S
N11 C8 1.341 . S
N11 N10 1.365 . S
N11 H31 0.862 . S
C12 C7 1.501 . S
C12 H13 0.961 . S
C12 H14 0.961 . S
C12 H15 0.960 . S
H13 C12 0.961 . S
H14 C12 0.961 . S
H15 C12 0.960 . S
C16 N17 1.342 . S
C16 C20 1.401 . S
C16 C21 1.499 . S
N17 Co0 1.989 . S
N17 C16 1.342 . S
N17 N18 1.388 . S
N18 Co1 1.993 . S
N18 N17 1.388 . S
N18 C19 1.346 . S
C19 N18 1.346 . S
C19 C20 1.396 . S
C19 C29 1.510 . S
C20 C16 1.401 . S
C20 C19 1.396 . S
C21 C16 1.499 . S
C21 H22 0.959 . S
C21 H23 0.960 . S
C21 H24 0.961 . S
H22 C21 0.959 . S
H23 C21 0.960 . S
H24 C21 0.961 . S
O25 Co0 1.967 . S
O25 C33 1.258 . S
O26 Co1 1.941 . S
O26 C33 1.266 . S
H27 C29 0.959 . S
H28 C29 0.961 . S
C29 C19 1.510 . S
C29 H27 0.959 . S
C29 H28 0.961 . S
C29 H30 0.960 . S
H30 C29 0.960 . S
H31 N11 0.862 . S
O32 Co0 1.920 . S
O32 C5 1.289 . S
C33 O25 1.258 . S
C33 O26 1.266 . S
Co34 O37 1.970 . S
Co34 N51 1.989 . S
Co34 O59 1.967 1_655 S
Co34 O66 1.920 . S
Co35 O38 1.966 . S
Co35 N44 2.022 . S
Co35 N52 1.993 . S
Co35 O60 1.941 1_655 S
C36 O37 1.258 . S
C36 O38 1.263 . S
O37 Co34 1.970 . S
O37 C36 1.258 . S
O38 Co35 1.966 . S
O38 C36 1.263 . S
C39 O40 1.235 . S
C39 O66 1.289 . S
O40 C39 1.235 . S
C41 C43 1.400 . S
C41 N44 1.351 . S
C41 C46 1.501 . S
C42 C43 1.387 . S
C42 N45 1.341 . S
C43 C41 1.400 . S
C43 C42 1.387 . S
N44 Co35 2.022 . S
N44 C41 1.351 . S
N44 N45 1.365 . S
N45 C42 1.341 . S
N45 N44 1.365 . S
N45 H65 0.862 . S
C46 C41 1.501 . S
C46 H47 0.961 . S
C46 H48 0.961 . S
C46 H49 0.960 . S
H47 C46 0.961 . S
H48 C46 0.961 . S
H49 C46 0.960 . S
C50 N51 1.342 . S
C50 C54 1.401 . S
C50 C55 1.499 . S
N51 Co34 1.989 . S
N51 C50 1.342 . S
N51 N52 1.388 . S
N52 Co35 1.993 . S
N52 N51 1.388 . S
N52 C53 1.346 . S
C53 N52 1.346 . S
C53 C54 1.396 . S
C53 C63 1.510 . S
C54 C50 1.401 . S
C54 C53 1.396 . S
C55 C50 1.499 . S
C55 H56 0.959 . S
C55 H57 0.960 . S
C55 H58 0.961 . S
H56 C55 0.959 . S
H57 C55 0.960 . S
H58 C55 0.961 . S
O59 Co34 1.967 1_455 S
O59 C67 1.258 . S
O60 Co35 1.941 1_455 S
O60 C67 1.266 . S
H61 C63 0.959 . S
H62 C63 0.961 . S
C63 C53 1.510 . S
C63 H61 0.959 . S
C63 H62 0.961 . S
C63 H64 0.960 . S
H64 C63 0.960 . S
H65 N45 0.862 . S
O66 Co34 1.920 . S
O66 C39 1.289 . S
C67 O59 1.258 . S
C67 O60 1.266 . S
Co68 O71 1.970 . S
Co68 N85 1.989 . S
Co68 O93 1.967 1_565 S
Co68 O100 1.920 . S
Co69 O72 1.966 . S
Co69 N78 2.022 . S
Co69 N86 1.993 . S
Co69 O94 1.941 1_565 S
C70 O71 1.258 . S
C70 O72 1.263 . S
O71 Co68 1.970 . S
O71 C70 1.258 . S
O72 Co69 1.966 . S
O72 C70 1.263 . S
C73 O74 1.235 . S
C73 O100 1.289 . S
O74 C73 1.235 . S
C75 C77 1.400 . S
C75 N78 1.351 . S
C75 C80 1.501 . S
C76 C77 1.387 . S
C76 N79 1.341 . S
C77 C75 1.400 . S
C77 C76 1.387 . S
N78 Co69 2.022 . S
N78 C75 1.351 . S
N78 N79 1.365 . S
N79 C76 1.341 . S
N79 N78 1.365 . S
N79 H99 0.862 . S
C80 C75 1.501 . S
C80 H81 0.961 . S
C80 H82 0.961 . S
C80 H83 0.960 . S
H81 C80 0.961 . S
H82 C80 0.961 . S
H83 C80 0.960 . S
C84 N85 1.342 . S
C84 C88 1.401 . S
C84 C89 1.499 . S
N85 Co68 1.989 . S
N85 C84 1.342 . S
N85 N86 1.388 . S
N86 Co69 1.993 . S
N86 N85 1.388 . S
N86 C87 1.346 . S
C87 N86 1.346 . S
C87 C88 1.396 . S
C87 C97 1.510 . S
C88 C84 1.401 . S
C88 C87 1.396 . S
C89 C84 1.499 . S
C89 H90 0.959 . S
C89 H91 0.960 . S
C89 H92 0.961 . S
H90 C89 0.959 . S
H91 C89 0.960 . S
H92 C89 0.961 . S
O93 Co68 1.967 1_545 S
O93 C101 1.258 . S
O94 Co69 1.941 1_545 S
O94 C101 1.266 . S
H95 C97 0.959 . S
H96 C97 0.961 . S
C97 C87 1.510 . S
C97 H95 0.959 . S
C97 H96 0.961 . S
C97 H98 0.960 . S
H98 C97 0.960 . S
H99 N79 0.862 . S
O100 Co68 1.920 . S
O100 C73 1.289 . S
C101 O93 1.258 . S
C101 O94 1.266 . S
Co102 O105 1.970 . S
Co102 N119 1.989 . S
Co102 O127 1.967 . S
Co102 O134 1.920 . S
Co103 O106 1.966 . S
Co103 N112 2.022 . S
Co103 N120 1.993 . S
Co103 O128 1.941 . S
C104 O105 1.258 . S
C104 O106 1.263 . S
O105 Co102 1.970 . S
O105 C104 1.258 . S
O106 Co103 1.966 . S
O106 C104 1.263 . S
C107 O108 1.235 . S
C107 O134 1.289 . S
O108 C107 1.235 . S
C109 C111 1.400 . S
C109 N112 1.351 . S
C109 C114 1.501 . S
C110 C111 1.387 . S
C110 N113 1.341 . S
C111 C109 1.400 . S
C111 C110 1.387 . S
N112 Co103 2.022 . S
N112 C109 1.351 . S
N112 N113 1.365 . S
N113 C110 1.341 . S
N113 N112 1.365 . S
N113 H133 0.862 . S
C114 C109 1.501 . S
C114 H115 0.961 . S
C114 H116 0.961 . S
C114 H117 0.960 . S
H115 C114 0.961 . S
H116 C114 0.961 . S
H117 C114 0.960 . S
C118 N119 1.342 . S
C118 C122 1.401 . S
C118 C123 1.499 . S
N119 Co102 1.989 . S
N119 C118 1.342 . S
N119 N120 1.388 . S
N120 Co103 1.993 . S
N120 N119 1.388 . S
N120 C121 1.346 . S
C121 N120 1.346 . S
C121 C122 1.396 . S
C121 C131 1.510 . S
C122 C118 1.401 . S
C122 C121 1.396 . S
C123 C118 1.499 . S
C123 H124 0.959 . S
C123 H125 0.960 . S
C123 H126 0.961 . S
H124 C123 0.959 . S
H125 C123 0.960 . S
H126 C123 0.961 . S
O127 Co102 1.967 . S
O127 C135 1.258 . S
O128 Co103 1.941 . S
O128 C135 1.266 . S
H129 C131 0.959 . S
H130 C131 0.961 . S
C131 C121 1.510 . S
C131 H129 0.959 . S
C131 H130 0.961 . S
C131 H132 0.960 . S
H132 C131 0.960 . S
H133 N113 0.862 . S
O134 Co102 1.920 . S
O134 C107 1.289 . S
C135 O127 1.258 . S
C135 O128 1.266 . S
Co136 O139 1.970 . S
Co136 N153 1.989 . S
Co136 O161 1.967 1_455 S
Co136 O168 1.920 . S
Co137 O140 1.966 . S
Co137 N146 2.022 . S
Co137 N154 1.993 . S
Co137 O162 1.941 1_455 S
C138 O139 1.258 . S
C138 O140 1.263 . S
O139 Co136 1.970 . S
O139 C138 1.258 . S
O140 Co137 1.966 . S
O140 C138 1.263 . S
C141 O142 1.235 . S
C141 O168 1.289 . S
O142 C141 1.235 . S
C143 C145 1.400 . S
C143 N146 1.351 . S
C143 C148 1.501 . S
C144 C145 1.387 . S
C144 N147 1.341 . S
C145 C143 1.400 . S
C145 C144 1.387 . S
N146 Co137 2.022 . S
N146 C143 1.351 . S
N146 N147 1.365 . S
N147 C144 1.341 . S
N147 N146 1.365 . S
N147 H167 0.862 . S
C148 C143 1.501 . S
C148 H149 0.961 . S
C148 H150 0.961 . S
C148 H151 0.960 . S
H149 C148 0.961 . S
H150 C148 0.961 . S
H151 C148 0.960 . S
C152 N153 1.342 . S
C152 C156 1.401 . S
C152 C157 1.499 . S
N153 Co136 1.989 . S
N153 C152 1.342 . S
N153 N154 1.388 . S
N154 Co137 1.993 . S
N154 N153 1.388 . S
N154 C155 1.346 . S
C155 N154 1.346 . S
C155 C156 1.396 . S
C155 C165 1.510 . S
C156 C152 1.401 . S
C156 C155 1.396 . S
C157 C152 1.499 . S
C157 H158 0.959 . S
C157 H159 0.960 . S
C157 H160 0.961 . S
H158 C157 0.959 . S
H159 C157 0.960 . S
H160 C157 0.961 . S
O161 Co136 1.967 1_655 S
O161 C169 1.258 . S
O162 Co137 1.941 1_655 S
O162 C169 1.266 . S
H163 C165 0.959 . S
H164 C165 0.961 . S
C165 C155 1.510 . S
C165 H163 0.959 . S
C165 H164 0.961 . S
C165 H166 0.960 . S
H166 C165 0.960 . S
H167 N147 0.862 . S
O168 Co136 1.920 . S
O168 C141 1.289 . S
C169 O161 1.258 . S
C169 O162 1.266 . S
Co170 O173 1.970 . S
Co170 N187 1.989 . S
Co170 O195 1.967 1_545 S
Co170 O202 1.920 . S
Co171 O174 1.966 . S
Co171 N180 2.022 . S
Co171 N188 1.993 . S
Co171 O196 1.941 1_545 S
C172 O173 1.258 . S
C172 O174 1.263 . S
O173 Co170 1.970 . S
O173 C172 1.258 . S
O174 Co171 1.966 . S
O174 C172 1.263 . S
C175 O176 1.235 . S
C175 O202 1.289 . S
O176 C175 1.235 . S
C177 C179 1.400 . S
C177 N180 1.351 . S
C177 C182 1.501 . S
C178 C179 1.387 . S
C178 N181 1.341 . S
C179 C177 1.400 . S
C179 C178 1.387 . S
N180 Co171 2.022 . S
N180 C177 1.351 . S
N180 N181 1.365 . S
N181 C178 1.341 . S
N181 N180 1.365 . S
N181 H201 0.862 . S
C182 C177 1.501 . S
C182 H183 0.961 . S
C182 H184 0.961 . S
C182 H185 0.960 . S
H183 C182 0.961 . S
H184 C182 0.961 . S
H185 C182 0.960 . S
C186 N187 1.342 . S
C186 C190 1.401 . S
C186 C191 1.499 . S
N187 Co170 1.989 . S
N187 C186 1.342 . S
N187 N188 1.388 . S
N188 Co171 1.993 . S
N188 N187 1.388 . S
N188 C189 1.346 . S
C189 N188 1.346 . S
C189 C190 1.396 . S
C189 C199 1.510 . S
C190 C186 1.401 . S
C190 C189 1.396 . S
C191 C186 1.499 . S
C191 H192 0.959 . S
C191 H193 0.960 . S
C191 H194 0.961 . S
H192 C191 0.959 . S
H193 C191 0.960 . S
H194 C191 0.961 . S
O195 Co170 1.967 1_565 S
O195 C203 1.258 . S
O196 Co171 1.941 1_565 S
O196 C203 1.266 . S
H197 C199 0.959 . S
H198 C199 0.961 . S
C199 C189 1.510 . S
C199 H197 0.959 . S
C199 H198 0.961 . S
C199 H200 0.960 . S
H200 C199 0.960 . S
H201 N181 0.862 . S
O202 Co170 1.920 . S
O202 C175 1.289 . S
C203 O195 1.258 . S
C203 O196 1.266 . S
Co204 O207 1.970 . S
Co204 N221 1.989 . S
Co204 O229 1.967 . S
Co204 O236 1.920 . S
Co205 O208 1.966 . S
Co205 N214 2.022 . S
Co205 N222 1.993 . S
Co205 O230 1.941 . S
C206 O207 1.258 . S
C206 O208 1.263 . S
O207 Co204 1.970 . S
O207 C206 1.258 . S
O208 Co205 1.966 . S
O208 C206 1.263 . S
C209 O210 1.235 . S
C209 O236 1.289 . S
O210 C209 1.235 . S
C211 C213 1.400 . S
C211 N214 1.351 . S
C211 C216 1.501 . S
C212 C213 1.387 . S
C212 N215 1.341 . S
C213 C211 1.400 . S
C213 C212 1.387 . S
N214 Co205 2.022 . S
N214 C211 1.351 . S
N214 N215 1.365 . S
N215 C212 1.341 . S
N215 N214 1.365 . S
N215 H235 0.862 . S
C216 C211 1.501 . S
C216 H217 0.961 . S
C216 H218 0.961 . S
C216 H219 0.960 . S
H217 C216 0.961 . S
H218 C216 0.961 . S
H219 C216 0.960 . S
C220 N221 1.342 . S
C220 C224 1.401 . S
C220 C225 1.499 . S
N221 Co204 1.989 . S
N221 C220 1.342 . S
N221 N222 1.388 . S
N222 Co205 1.993 . S
N222 N221 1.388 . S
N222 C223 1.346 . S
C223 N222 1.346 . S
C223 C224 1.396 . S
C223 C233 1.510 . S
C224 C220 1.401 . S
C224 C223 1.396 . S
C225 C220 1.499 . S
C225 H226 0.959 . S
C225 H227 0.960 . S
C225 H228 0.961 . S
H226 C225 0.959 . S
H227 C225 0.960 . S
H228 C225 0.961 . S
O229 Co204 1.967 . S
O229 C237 1.258 . S
O230 Co205 1.941 . S
O230 C237 1.266 . S
H231 C233 0.959 . S
H232 C233 0.961 . S
C233 C223 1.510 . S
C233 H231 0.959 . S
C233 H232 0.961 . S
C233 H234 0.960 . S
H234 C233 0.960 . S
H235 N215 0.862 . S
O236 Co204 1.920 . S
O236 C209 1.289 . S
C237 O229 1.258 . S
C237 O230 1.266 . S
Co238 O241 1.970 . S
Co238 N255 1.989 . S
Co238 O263 1.967 1_655 S
Co238 O270 1.920 . S
Co239 O242 1.966 . S
Co239 N248 2.022 . S
Co239 N256 1.993 . S
Co239 O264 1.941 1_655 S
C240 O241 1.258 . S
C240 O242 1.263 . S
O241 Co238 1.970 . S
O241 C240 1.258 . S
O242 Co239 1.966 . S
O242 C240 1.263 . S
C243 O244 1.235 . S
C243 O270 1.289 . S
O244 C243 1.235 . S
C245 C247 1.400 . S
C245 N248 1.351 . S
C245 C250 1.501 . S
C246 C247 1.387 . S
C246 N249 1.341 . S
C247 C245 1.400 . S
C247 C246 1.387 . S
N248 Co239 2.022 . S
N248 C245 1.351 . S
N248 N249 1.365 . S
N249 C246 1.341 . S
N249 N248 1.365 . S
N249 H269 0.862 . S
C250 C245 1.501 . S
C250 H251 0.961 . S
C250 H252 0.961 . S
C250 H253 0.960 . S
H251 C250 0.961 . S
H252 C250 0.961 . S
H253 C250 0.960 . S
C254 N255 1.342 . S
C254 C258 1.401 . S
C254 C259 1.499 . S
N255 Co238 1.989 . S
N255 C254 1.342 . S
N255 N256 1.388 . S
N256 Co239 1.993 . S
N256 N255 1.388 . S
N256 C257 1.346 . S
C257 N256 1.346 . S
C257 C258 1.396 . S
C257 C267 1.510 . S
C258 C254 1.401 . S
C258 C257 1.396 . S
C259 C254 1.499 . S
C259 H260 0.959 . S
C259 H261 0.960 . S
C259 H262 0.961 . S
H260 C259 0.959 . S
H261 C259 0.960 . S
H262 C259 0.961 . S
O263 Co238 1.967 1_455 S
O263 C271 1.258 . S
O264 Co239 1.941 1_455 S
O264 C271 1.266 . S
H265 C267 0.959 . S
H266 C267 0.961 . S
C267 C257 1.510 . S
C267 H265 0.959 . S
C267 H266 0.961 . S
C267 H268 0.960 . S
H268 C267 0.960 . S
H269 N249 0.862 . S
O270 Co238 1.920 . S
O270 C243 1.289 . S
C271 O263 1.258 . S
C271 O264 1.266 . S
Co272 O275 1.970 . S
Co272 N289 1.989 . S
Co272 O297 1.967 1_565 S
Co272 O304 1.920 . S
Co273 O276 1.966 . S
Co273 N282 2.022 . S
Co273 N290 1.993 . S
Co273 O298 1.941 1_565 S
C274 O275 1.258 . S
C274 O276 1.263 . S
O275 Co272 1.970 . S
O275 C274 1.258 . S
O276 Co273 1.966 . S
O276 C274 1.263 . S
C277 O278 1.235 . S
C277 O304 1.289 . S
O278 C277 1.235 . S
C279 C281 1.400 . S
C279 N282 1.351 . S
C279 C284 1.501 . S
C280 C281 1.387 . S
C280 N283 1.341 . S
C281 C279 1.400 . S
C281 C280 1.387 . S
N282 Co273 2.022 . S
N282 C279 1.351 . S
N282 N283 1.365 . S
N283 C280 1.341 . S
N283 N282 1.365 . S
N283 H303 0.862 . S
C284 C279 1.501 . S
C284 H285 0.961 . S
C284 H286 0.961 . S
C284 H287 0.960 . S
H285 C284 0.961 . S
H286 C284 0.961 . S
H287 C284 0.960 . S
C288 N289 1.342 . S
C288 C292 1.401 . S
C288 C293 1.499 . S
N289 Co272 1.989 . S
N289 C288 1.342 . S
N289 N290 1.388 . S
N290 Co273 1.993 . S
N290 N289 1.388 . S
N290 C291 1.346 . S
C291 N290 1.346 . S
C291 C292 1.396 . S
C291 C301 1.510 . S
C292 C288 1.401 . S
C292 C291 1.396 . S
C293 C288 1.499 . S
C293 H294 0.959 . S
C293 H295 0.960 . S
C293 H296 0.961 . S
H294 C293 0.959 . S
H295 C293 0.960 . S
H296 C293 0.961 . S
O297 Co272 1.967 1_545 S
O297 C305 1.258 . S
O298 Co273 1.941 1_545 S
O298 C305 1.266 . S
H299 C301 0.959 . S
H300 C301 0.961 . S
C301 C291 1.510 . S
C301 H299 0.959 . S
C301 H300 0.961 . S
C301 H302 0.960 . S
H302 C301 0.960 . S
H303 N283 0.862 . S
O304 Co272 1.920 . S
O304 C277 1.289 . S
C305 O297 1.258 . S
C305 O298 1.266 . S
Co306 O309 1.970 . S
Co306 N323 1.989 . S
Co306 O331 1.967 . S
Co306 O338 1.920 . S
Co307 O310 1.966 . S
Co307 N316 2.022 . S
Co307 N324 1.993 . S
Co307 O332 1.941 . S
C308 O309 1.258 . S
C308 O310 1.263 . S
O309 Co306 1.970 . S
O309 C308 1.258 . S
O310 Co307 1.966 . S
O310 C308 1.263 . S
C311 O312 1.235 . S
C311 O338 1.289 . S
O312 C311 1.235 . S
C313 C315 1.400 . S
C313 N316 1.351 . S
C313 C318 1.501 . S
C314 C315 1.387 . S
C314 N317 1.341 . S
C315 C313 1.400 . S
C315 C314 1.387 . S
N316 Co307 2.022 . S
N316 C313 1.351 . S
N316 N317 1.365 . S
N317 C314 1.341 . S
N317 N316 1.365 . S
N317 H337 0.862 . S
C318 C313 1.501 . S
C318 H319 0.961 . S
C318 H320 0.961 . S
C318 H321 0.960 . S
H319 C318 0.961 . S
H320 C318 0.961 . S
H321 C318 0.960 . S
C322 N323 1.342 . S
C322 C326 1.401 . S
C322 C327 1.499 . S
N323 Co306 1.989 . S
N323 C322 1.342 . S
N323 N324 1.388 . S
N324 Co307 1.993 . S
N324 N323 1.388 . S
N324 C325 1.346 . S
C325 N324 1.346 . S
C325 C326 1.396 . S
C325 C335 1.510 . S
C326 C322 1.401 . S
C326 C325 1.396 . S
C327 C322 1.499 . S
C327 H328 0.959 . S
C327 H329 0.960 . S
C327 H330 0.961 . S
H328 C327 0.959 . S
H329 C327 0.960 . S
H330 C327 0.961 . S
O331 Co306 1.967 . S
O331 C339 1.258 . S
O332 Co307 1.941 . S
O332 C339 1.266 . S
H333 C335 0.959 . S
H334 C335 0.961 . S
C335 C325 1.510 . S
C335 H333 0.959 . S
C335 H334 0.961 . S
C335 H336 0.960 . S
H336 C335 0.960 . S
H337 N317 0.862 . S
O338 Co306 1.920 . S
O338 C311 1.289 . S
C339 O331 1.258 . S
C339 O332 1.266 . S
Co340 O343 1.970 . S
Co340 N357 1.989 . S
Co340 O365 1.967 1_455 S
Co340 O372 1.920 . S
Co341 O344 1.966 . S
Co341 N350 2.022 . S
Co341 N358 1.993 . S
Co341 O366 1.941 1_455 S
C342 O343 1.258 . S
C342 O344 1.263 . S
O343 Co340 1.970 . S
O343 C342 1.258 . S
O344 Co341 1.966 . S
O344 C342 1.263 . S
C345 O346 1.235 . S
C345 O372 1.289 . S
O346 C345 1.235 . S
C347 C349 1.400 . S
C347 N350 1.351 . S
C347 C352 1.501 . S
C348 C349 1.387 . S
C348 N351 1.341 . S
C349 C347 1.400 . S
C349 C348 1.387 . S
N350 Co341 2.022 . S
N350 C347 1.351 . S
N350 N351 1.365 . S
N351 C348 1.341 . S
N351 N350 1.365 . S
N351 H371 0.862 . S
C352 C347 1.501 . S
C352 H353 0.961 . S
C352 H354 0.961 . S
C352 H355 0.960 . S
H353 C352 0.961 . S
H354 C352 0.961 . S
H355 C352 0.960 . S
C356 N357 1.342 . S
C356 C360 1.401 . S
C356 C361 1.499 . S
N357 Co340 1.989 . S
N357 C356 1.342 . S
N357 N358 1.388 . S
N358 Co341 1.993 . S
N358 N357 1.388 . S
N358 C359 1.346 . S
C359 N358 1.346 . S
C359 C360 1.396 . S
C359 C369 1.510 . S
C360 C356 1.401 . S
C360 C359 1.396 . S
C361 C356 1.499 . S
C361 H362 0.959 . S
C361 H363 0.960 . S
C361 H364 0.961 . S
H362 C361 0.959 . S
H363 C361 0.960 . S
H364 C361 0.961 . S
O365 Co340 1.967 1_655 S
O365 C373 1.258 . S
O366 Co341 1.941 1_655 S
O366 C373 1.266 . S
H367 C369 0.959 . S
H368 C369 0.961 . S
C369 C359 1.510 . S
C369 H367 0.959 . S
C369 H368 0.961 . S
C369 H370 0.960 . S
H370 C369 0.960 . S
H371 N351 0.862 . S
O372 Co340 1.920 . S
O372 C345 1.289 . S
C373 O365 1.258 . S
C373 O366 1.266 . S
Co374 O377 1.970 . S
Co374 N391 1.989 . S
Co374 O399 1.967 1_545 S
Co374 O406 1.920 . S
Co375 O378 1.966 . S
Co375 N384 2.022 . S
Co375 N392 1.993 . S
Co375 O400 1.941 1_545 S
C376 O377 1.258 . S
C376 O378 1.263 . S
O377 Co374 1.970 . S
O377 C376 1.258 . S
O378 Co375 1.966 . S
O378 C376 1.263 . S
C379 O380 1.235 . S
C379 O406 1.289 . S
O380 C379 1.235 . S
C381 C383 1.400 . S
C381 N384 1.351 . S
C381 C386 1.501 . S
C382 C383 1.387 . S
C382 N385 1.341 . S
C383 C381 1.400 . S
C383 C382 1.387 . S
N384 Co375 2.022 . S
N384 C381 1.351 . S
N384 N385 1.365 . S
N385 C382 1.341 . S
N385 N384 1.365 . S
N385 H405 0.862 . S
C386 C381 1.501 . S
C386 H387 0.961 . S
C386 H388 0.961 . S
C386 H389 0.960 . S
H387 C386 0.961 . S
H388 C386 0.961 . S
H389 C386 0.960 . S
C390 N391 1.342 . S
C390 C394 1.401 . S
C390 C395 1.499 . S
N391 Co374 1.989 . S
N391 C390 1.342 . S
N391 N392 1.388 . S
N392 Co375 1.993 . S
N392 N391 1.388 . S
N392 C393 1.346 . S
C393 N392 1.346 . S
C393 C394 1.396 . S
C393 C403 1.510 . S
C394 C390 1.401 . S
C394 C393 1.396 . S
C395 C390 1.499 . S
C395 H396 0.959 . S
C395 H397 0.960 . S
C395 H398 0.961 . S
H396 C395 0.959 . S
H397 C395 0.960 . S
H398 C395 0.961 . S
O399 Co374 1.967 1_565 S
O399 C407 1.258 . S
O400 Co375 1.941 1_565 S
O400 C407 1.266 . S
H401 C403 0.959 . S
H402 C403 0.961 . S
C403 C393 1.510 . S
C403 H401 0.959 . S
C403 H402 0.961 . S
C403 H404 0.960 . S
H404 C403 0.960 . S
H405 N385 0.862 . S
O406 Co374 1.920 . S
O406 C379 1.289 . S
C407 O399 1.258 . S
C407 O400 1.266 . S
C408 C409 1.387 . S
C408 H412 0.950 . S
C408 C417 1.390 . S
C409 C408 1.387 . S
C409 C411 1.387 . S
H410 C417 0.950 . S
C411 C409 1.387 . S
C411 C413 1.390 . S
C411 H415 0.950 . S
H412 C408 0.950 . S
C413 C411 1.390 . S
C413 C414 1.387 . S
C413 H416 0.950 . S
C414 C413 1.387 . S
C414 C417 1.387 . S
H415 C411 0.950 . S
H416 C413 0.950 . S
C417 C408 1.390 . S
C417 H410 0.950 . S
C417 C414 1.387 . S
C418 C419 1.387 . S
C418 H422 0.950 . S
C418 C427 1.390 . S
C419 C418 1.387 . S
C419 C421 1.387 1_655 S
H420 C427 0.950 . S
C421 C419 1.387 1_455 S
C421 C423 1.390 . S
C421 H425 0.950 . S
H422 C418 0.950 . S
C423 C421 1.390 . S
C423 C424 1.387 . S
C423 H426 0.950 . S
C424 C423 1.387 . S
C424 C427 1.387 1_455 S
H425 C421 0.950 . S
H426 C423 0.950 . S
C427 C418 1.390 . S
C427 H420 0.950 . S
C427 C424 1.387 1_655 S
C428 C429 1.387 . S
C428 H432 0.950 . S
C428 C437 1.390 1_566 S
C429 C428 1.387 . S
C429 C431 1.387 . S
H430 C437 0.950 . S
C431 C429 1.387 . S
C431 C433 1.390 1_566 S
C431 H435 0.950 . S
H432 C428 0.950 . S
C433 C431 1.390 1_544 S
C433 C434 1.387 . S
C433 H436 0.950 . S
C434 C433 1.387 . S
C434 C437 1.387 . S
H435 C431 0.950 . S
H436 C433 0.950 . S
C437 C428 1.390 1_544 S
C437 H430 0.950 . S
C437 C434 1.387 . S
C438 C439 1.387 . S
C438 H442 0.950 . S
C438 C447 1.390 . S
C439 C438 1.387 . S
C439 C441 1.387 . S
H440 C447 0.950 . S
C441 C439 1.387 . S
C441 C443 1.390 . S
C441 H445 0.950 . S
H442 C438 0.950 . S
C443 C441 1.390 . S
C443 C444 1.387 . S
C443 H446 0.950 . S
C444 C443 1.387 . S
C444 C447 1.387 . S
H445 C441 0.950 . S
H446 C443 0.950 . S
C447 C438 1.390 . S
C447 H440 0.950 . S
C447 C444 1.387 . S
C448 C449 1.387 . S
C448 H452 0.950 . S
C448 C457 1.390 . S
C449 C448 1.387 . S
C449 C451 1.387 1_455 S
H450 C457 0.950 . S
C451 C449 1.387 1_655 S
C451 C453 1.390 . S
C451 H455 0.950 . S
H452 C448 0.950 . S
C453 C451 1.390 . S
C453 C454 1.387 . S
C453 H456 0.950 . S
C454 C453 1.387 . S
C454 C457 1.387 1_655 S
H455 C451 0.950 . S
H456 C453 0.950 . S
C457 C448 1.390 . S
C457 H450 0.950 . S
C457 C454 1.387 1_455 S
C458 C459 1.387 . S
C458 H462 0.950 . S
C458 C467 1.390 1_546 S
C459 C458 1.387 . S
C459 C461 1.387 . S
H460 C467 0.950 . S
C461 C459 1.387 . S
C461 C463 1.390 1_546 S
C461 H465 0.950 . S
H462 C458 0.950 . S
C463 C461 1.390 1_564 S
C463 C464 1.387 . S
C463 H466 0.950 . S
C464 C463 1.387 . S
C464 C467 1.387 . S
H465 C461 0.950 . S
H466 C463 0.950 . S
C467 C458 1.390 1_564 S
C467 H460 0.950 . S
C467 C464 1.387 . S
C468 C469 1.387 . S
C468 H472 0.950 . S
C468 C477 1.390 1_556 S
C469 C468 1.387 . S
C469 C471 1.387 . S
H470 C477 0.950 . S
C471 C469 1.387 . S
C471 C473 1.390 1_556 S
C471 H475 0.950 . S
H472 C468 0.950 . S
C473 C471 1.390 1_554 S
C473 C474 1.387 . S
C473 H476 0.950 . S
C474 C473 1.387 . S
C474 C477 1.387 . S
H475 C471 0.950 . S
H476 C473 0.950 . S
C477 C468 1.390 1_554 S
C477 H470 0.950 . S
C477 C474 1.387 . S
C478 C479 1.387 . S
C478 H482 0.950 . S
C478 C487 1.390 . S
C479 C478 1.387 . S
C479 C481 1.387 . S
H480 C487 0.950 . S
C481 C479 1.387 . S
C481 C483 1.390 . S
C481 H485 0.950 . S
H482 C478 0.950 . S
C483 C481 1.390 . S
C483 C484 1.387 . S
C483 H486 0.950 . S
C484 C483 1.387 . S
C484 C487 1.387 . S
H485 C481 0.950 . S
H486 C483 0.950 . S
C487 C478 1.390 . S
C487 H480 0.950 . S
C487 C484 1.387 . S
C488 C489 1.387 . S
C488 H492 0.950 . S
C488 C497 1.390 . S
C489 C488 1.387 . S
C489 C491 1.387 . S
H490 C497 0.950 . S
C491 C489 1.387 . S
C491 C493 1.390 . S
C491 H495 0.950 . S
H492 C488 0.950 . S
C493 C491 1.390 . S
C493 C494 1.387 . S
C493 H496 0.950 . S
C494 C493 1.387 . S
C494 C497 1.387 . S
H495 C491 0.950 . S
H496 C493 0.950 . S
C497 C488 1.390 . S
C497 H490 0.950 . S
C497 C494 1.387 . S
C498 C499 1.387 . S
C498 H502 0.950 . S
C498 C507 1.390 1_556 S
C499 C498 1.387 . S
C499 C501 1.387 . S
H500 C507 0.950 . S
C501 C499 1.387 . S
C501 C503 1.390 1_556 S
C501 H505 0.950 . S
H502 C498 0.950 . S
C503 C501 1.390 1_554 S
C503 C504 1.387 . S
C503 H506 0.950 . S
C504 C503 1.387 . S
C504 C507 1.387 . S
H505 C501 0.950 . S
H506 C503 0.950 . S
C507 C498 1.390 1_554 S
C507 H500 0.950 . S
C507 C504 1.387 . S
C508 C509 1.387 . S
C508 H512 0.950 . S
C508 C517 1.390 . S
C509 C508 1.387 . S
C509 C511 1.387 . S
H510 C517 0.950 . S
C511 C509 1.387 . S
C511 C513 1.390 . S
C511 H515 0.950 . S
H512 C508 0.950 . S
C513 C511 1.390 . S
C513 C514 1.387 . S
C513 H516 0.950 . S
C514 C513 1.387 . S
C514 C517 1.387 . S
H515 C511 0.950 . S
H516 C513 0.950 . S
C517 C508 1.390 . S
C517 H510 0.950 . S
C517 C514 1.387 . S
C518 C519 1.387 . S
C518 H522 0.950 . S
C518 C527 1.390 . S
C519 C518 1.387 . S
C519 C521 1.387 . S
H520 C527 0.950 . S
C521 C519 1.387 . S
C521 C523 1.390 . S
C521 H525 0.950 . S
H522 C518 0.950 . S
C523 C521 1.390 . S
C523 C524 1.387 . S
C523 H526 0.950 . S
C524 C523 1.387 . S
C524 C527 1.387 . S
H525 C521 0.950 . S
H526 C523 0.950 . S
C527 C518 1.390 . S
C527 H520 0.950 . S
C527 C524 1.387 . S
C528 C529 1.387 . S
C528 H532 0.950 . S
C528 C537 1.390 . S
C529 C528 1.387 . S
C529 C531 1.387 . S
H530 C537 0.950 . S
C531 C529 1.387 . S
C531 C533 1.390 . S
C531 H535 0.950 . S
H532 C528 0.950 . S
C533 C531 1.390 . S
C533 C534 1.387 . S
C533 H536 0.950 . S
C534 C533 1.387 . S
C534 C537 1.387 . S
H535 C531 0.950 . S
H536 C533 0.950 . S
C537 C528 1.390 . S
C537 H530 0.950 . S
C537 C534 1.387 . S
C538 C539 1.387 . S
C538 H542 0.950 . S
C538 C547 1.390 1_655 S
C539 C538 1.387 . S
C539 C541 1.387 . S
H540 C547 0.950 . S
C541 C539 1.387 . S
C541 C543 1.390 1_655 S
C541 H545 0.950 . S
H542 C538 0.950 . S
C543 C541 1.390 1_455 S
C543 C544 1.387 . S
C543 H546 0.950 . S
C544 C543 1.387 . S
C544 C547 1.387 . S
H545 C541 0.950 . S
H546 C543 0.950 . S
C547 C538 1.390 1_455 S
C547 H540 0.950 . S
C547 C544 1.387 . S
C548 C549 1.387 . S
C548 H552 0.950 . S
C548 C557 1.390 1_545 S
C549 C548 1.387 . S
C549 C551 1.387 . S
H550 C557 0.950 . S
C551 C549 1.387 . S
C551 C553 1.390 1_545 S
C551 H555 0.950 . S
H552 C548 0.950 . S
C553 C551 1.390 1_565 S
C553 C554 1.387 . S
C553 H556 0.950 . S
C554 C553 1.387 . S
C554 C557 1.387 . S
H555 C551 0.950 . S
H556 C553 0.950 . S
C557 C548 1.390 1_565 S
C557 H550 0.950 . S
C557 C554 1.387 . S
C558 C559 1.387 . S
C558 H562 0.950 . S
C558 C567 1.390 . S
C559 C558 1.387 . S
C559 C561 1.387 . S
H560 C567 0.950 . S
C561 C559 1.387 . S
C561 C563 1.390 . S
C561 H565 0.950 . S
H562 C558 0.950 . S
C563 C561 1.390 . S
C563 C564 1.387 . S
C563 H566 0.950 . S
C564 C563 1.387 . S
C564 C567 1.387 . S
H565 C561 0.950 . S
H566 C563 0.950 . S
C567 C558 1.390 . S
C567 H560 0.950 . S
C567 C564 1.387 . S
C568 C569 1.387 . S
C568 H572 0.950 . S
C568 C577 1.390 1_655 S
C569 C568 1.387 . S
C569 C571 1.387 . S
H570 C577 0.950 . S
C571 C569 1.387 . S
C571 C573 1.390 1_655 S
C571 H575 0.950 . S
H572 C568 0.950 . S
C573 C571 1.390 1_455 S
C573 C574 1.387 . S
C573 H576 0.950 . S
C574 C573 1.387 . S
C574 C577 1.387 . S
H575 C571 0.950 . S
H576 C573 0.950 . S
C577 C568 1.390 1_455 S
C577 H570 0.950 . S
C577 C574 1.387 . S
C578 C579 1.387 . S
C578 H582 0.950 . S
C578 C587 1.390 1_545 S
C579 C578 1.387 . S
C579 C581 1.387 . S
H580 C587 0.950 . S
C581 C579 1.387 . S
C581 C583 1.390 1_545 S
C581 H585 0.950 . S
H582 C578 0.950 . S
C583 C581 1.390 1_565 S
C583 C584 1.387 . S
C583 H586 0.950 . S
C584 C583 1.387 . S
C584 C587 1.387 . S
H585 C581 0.950 . S
H586 C583 0.950 . S
C587 C578 1.390 1_565 S
C587 H580 0.950 . S
C587 C584 1.387 . S
C588 C589 1.387 . S
C588 H592 0.950 . S
C588 C597 1.390 1_455 S
C589 C588 1.387 . S
C589 C591 1.387 . S
H590 C597 0.950 . S
C591 C589 1.387 . S
C591 C593 1.390 1_455 S
C591 H595 0.950 . S
H592 C588 0.950 . S
C593 C591 1.390 1_655 S
C593 C594 1.387 . S
C593 H596 0.950 . S
C594 C593 1.387 . S
C594 C597 1.387 . S
H595 C591 0.950 . S
H596 C593 0.950 . S
C597 C588 1.390 1_655 S
C597 H590 0.950 . S
C597 C594 1.387 . S
C598 C599 1.387 . S
C598 H602 0.950 . S
C598 C607 1.390 1_565 S
C599 C598 1.387 . S
C599 C601 1.387 . S
H600 C607 0.950 . S
C601 C599 1.387 . S
C601 C603 1.390 1_565 S
C601 H605 0.950 . S
H602 C598 0.950 . S
C603 C601 1.390 1_545 S
C603 C604 1.387 . S
C603 H606 0.950 . S
C604 C603 1.387 . S
C604 C607 1.387 . S
H605 C601 0.950 . S
H606 C603 0.950 . S
C607 C598 1.390 1_545 S
C607 H600 0.950 . S
C607 C604 1.387 . S
C608 C609 1.387 . S
C608 H612 0.950 . S
C608 C617 1.390 . S
C609 C608 1.387 . S
C609 C611 1.387 . S
H610 C617 0.950 . S
C611 C609 1.387 . S
C611 C613 1.390 . S
C611 H615 0.950 . S
H612 C608 0.950 . S
C613 C611 1.390 . S
C613 C614 1.387 . S
C613 H616 0.950 . S
C614 C613 1.387 . S
C614 C617 1.387 . S
H615 C611 0.950 . S
H616 C613 0.950 . S
C617 C608 1.390 . S
C617 H610 0.950 . S
C617 C614 1.387 . S
C618 C619 1.387 . S
C618 H622 0.950 . S
C618 C627 1.390 1_655 S
C619 C618 1.387 . S
C619 C621 1.387 . S
H620 C627 0.950 . S
C621 C619 1.387 . S
C621 C623 1.390 1_655 S
C621 H625 0.950 . S
H622 C618 0.950 . S
C623 C621 1.390 1_455 S
C623 C624 1.387 . S
C623 H626 0.950 . S
C624 C623 1.387 . S
C624 C627 1.387 . S
H625 C621 0.950 . S
H626 C623 0.950 . S
C627 C618 1.390 1_455 S
C627 H620 0.950 . S
C627 C624 1.387 . S
C628 C629 1.387 . S
C628 H632 0.950 . S
C628 C637 1.390 1_565 S
C629 C628 1.387 . S
C629 C631 1.387 . S
H630 C637 0.950 . S
C631 C629 1.387 . S
C631 C633 1.390 1_565 S
C631 H635 0.950 . S
H632 C628 0.950 . S
C633 C631 1.390 1_545 S
C633 C634 1.387 . S
C633 H636 0.950 . S
C634 C633 1.387 . S
C634 C637 1.387 . S
H635 C631 0.950 . S
H636 C633 0.950 . S
C637 C628 1.390 1_545 S
C637 H630 0.950 . S
C637 C634 1.387 . S
C638 C639 1.387 . S
C638 H642 0.950 . S
C638 C647 1.390 . S
C639 C638 1.387 . S
C639 C641 1.387 . S
H640 C647 0.950 . S
C641 C639 1.387 . S
C641 C643 1.390 . S
C641 H645 0.950 . S
H642 C638 0.950 . S
C643 C641 1.390 . S
C643 C644 1.387 . S
C643 H646 0.950 . S
C644 C643 1.387 . S
C644 C647 1.387 . S
H645 C641 0.950 . S
H646 C643 0.950 . S
C647 C638 1.390 . S
C647 H640 0.950 . S
C647 C644 1.387 . S
C648 C649 1.387 . S
C648 H652 0.950 . S
C648 C657 1.390 . S
C649 C648 1.387 . S
C649 C651 1.387 . S
H650 C657 0.950 . S
C651 C649 1.387 . S
C651 C653 1.390 . S
C651 H655 0.950 . S
H652 C648 0.950 . S
C653 C651 1.390 . S
C653 C654 1.387 . S
C653 H656 0.950 . S
C654 C653 1.387 . S
C654 C657 1.387 . S
H655 C651 0.950 . S
H656 C653 0.950 . S
C657 C648 1.390 . S
C657 H650 0.950 . S
C657 C654 1.387 . S
C658 C659 1.387 . S
C658 H662 0.950 . S
C658 C667 1.390 . S
C659 C658 1.387 . S
C659 C661 1.387 . S
H660 C667 0.950 . S
C661 C659 1.387 . S
C661 C663 1.390 . S
C661 H665 0.950 . S
H662 C658 0.950 . S
C663 C661 1.390 . S
C663 C664 1.387 . S
C663 H666 0.950 . S
C664 C663 1.387 . S
C664 C667 1.387 . S
H665 C661 0.950 . S
H666 C663 0.950 . S
C667 C658 1.390 . S
C667 H660 0.950 . S
C667 C664 1.387 . S
C668 C669 1.387 . S
C668 H672 0.950 . S
C668 C677 1.390 . S
C669 C668 1.387 . S
C669 C671 1.387 . S
H670 C677 0.950 . S
C671 C669 1.387 . S
C671 C673 1.390 . S
C671 H675 0.950 . S
H672 C668 0.950 . S
C673 C671 1.390 . S
C673 C674 1.387 . S
C673 H676 0.950 . S
C674 C673 1.387 . S
C674 C677 1.387 . S
H675 C671 0.950 . S
H676 C673 0.950 . S
C677 C668 1.390 . S
C677 H670 0.950 . S
C677 C674 1.387 . S
C678 C679 1.387 . S
C678 H682 0.950 . S
C678 C687 1.390 . S
C679 C678 1.387 . S
C679 C681 1.387 . S
H680 C687 0.950 . S
C681 C679 1.387 . S
C681 C683 1.390 . S
C681 H685 0.950 . S
H682 C678 0.950 . S
C683 C681 1.390 . S
C683 C684 1.387 . S
C683 H686 0.950 . S
C684 C683 1.387 . S
C684 C687 1.387 . S
H685 C681 0.950 . S
H686 C683 0.950 . S
C687 C678 1.390 . S
C687 H680 0.950 . S
C687 C684 1.387 . S
C688 C689 1.387 . S
C688 H692 0.950 . S
C688 C697 1.390 . S
C689 C688 1.387 . S
C689 C691 1.387 . S
H690 C697 0.950 . S
C691 C689 1.387 . S
C691 C693 1.390 . S
C691 H695 0.950 . S
H692 C688 0.950 . S
C693 C691 1.390 . S
C693 C694 1.387 . S
C693 H696 0.950 . S
C694 C693 1.387 . S
C694 C697 1.387 . S
H695 C691 0.950 . S
H696 C693 0.950 . S
C697 C688 1.390 . S
C697 H690 0.950 . S
C697 C694 1.387 . S
C698 C699 1.387 . S
C698 H702 0.950 . S
C698 C707 1.390 . S
C699 C698 1.387 . S
C699 C701 1.387 . S
H700 C707 0.950 . S
C701 C699 1.387 . S
C701 C703 1.390 . S
C701 H705 0.950 . S
H702 C698 0.950 . S
C703 C701 1.390 . S
C703 C704 1.387 . S
C703 H706 0.950 . S
C704 C703 1.387 . S
C704 C707 1.387 . S
H705 C701 0.950 . S
H706 C703 0.950 . S
C707 C698 1.390 . S
C707 H700 0.950 . S
C707 C704 1.387 . S
C409 C311 2.025 . S
C414 C5 2.025 . S
C419 C39 2.025 . S
C424 C345 2.025 . S
C429 C73 2.025 . S
C434 C379 2.025 . S
C439 C107 2.025 . S
C444 C209 2.025 . S
C449 C141 2.025 . S
C454 C243 2.025 . S
C459 C175 2.025 . S
C464 C277 2.025 . S
C469 C349 1.211 . S
C474 C9 1.211 . S
C479 C383 1.212 . S
C484 C43 1.210 . S
C489 C77 1.212 . S
C494 C213 1.209 . S
C499 C247 1.211 . S
C504 C111 1.211 . S
C509 C145 1.208 . S
C514 C281 1.209 . S
C519 C179 1.210 . S
C524 C315 1.212 . S
C529 C122 1.660 . S
C534 C20 1.660 . S
C539 C54 1.660 . S
C544 C156 1.660 . S
C549 C190 1.657 . S
C554 C88 1.657 . S
C559 C326 1.657 . S
C564 C224 1.657 . S
C569 C258 1.657 . S
C574 C360 1.657 . S
C579 C394 1.660 . S
C584 C292 1.660 . S
C589 C2 1.425 . S
C594 C376 1.426 . S
C599 C206 1.426 . S
C604 C36 1.426 . S
C609 C70 1.427 . S
C614 C240 1.428 . S
C619 C104 1.428 . S
C624 C274 1.427 . S
C629 C138 1.428 . S
C634 C308 1.428 . S
C639 C342 1.428 . S
C644 C172 1.427 . S
C649 C33 0.745 . S
C654 C305 0.745 . S
C659 C339 0.745 . S
C664 C67 0.745 . S
C669 C101 0.745 . S
C674 C373 0.745 . S
C679 C407 0.745 . S
C684 C135 0.745 . S
C689 C237 0.745 . S
C694 C169 0.745 . S
C699 C203 0.745 . S
C704 C271 0.745 . S
