# Generated by pormake.
# Topology wjg, (4)-cn, num edge types: 1
# Building blocks:
#     Node 0, Type 0, BuildingBlock: NAHDIM_clean_sbu_0, # of connection points: 4
#     Node 1, Type 0, BuildingBlock: NAHDIM_clean_sbu_0, # of connection points: 4
#     Node 2, Type 0, BuildingBlock: NAHDIM_clean_sbu_0, # of connection points: 4
#     Node 3, Type 0, BuildingBlock: NAHDIM_clean_sbu_0, # of connection points: 4
#     Node 4, Type 0, BuildingBlock: NAHDIM_clean_sbu_0, # of connection points: 4
#     Node 5, Type 0, BuildingBlock: NAHDIM_clean_sbu_0, # of connection points: 4
#     Node 6, Type 0, BuildingBlock: NAHDIM_clean_sbu_0, # of connection points: 4
#     Node 7, Type 0, BuildingBlock: NAHDIM_clean_sbu_0, # of connection points: 4
#     Node 8, Type 0, BuildingBlock: NAHDIM_clean_sbu_0, # of connection points: 4
#     Node 9, Type 0, BuildingBlock: NAHDIM_clean_sbu_0, # of connection points: 4
#     Node 10, Type 0, BuildingBlock: NAHDIM_clean_sbu_0, # of connection points: 4
#     Node 11, Type 0, BuildingBlock: NAHDIM_clean_sbu_0, # of connection points: 4
#     Edge 12, Type (0, 0), BuildingBlock: EZIPEK_clean_linker_0, # of connection points: 2
#     Edge 13, Type (0, 0), BuildingBlock: EZIPEK_clean_linker_0, # of connection points: 2
#     Edge 14, Type (0, 0), BuildingBlock: EZIPEK_clean_linker_0, # of connection points: 2
#     Edge 15, Type (0, 0), BuildingBlock: EZIPEK_clean_linker_0, # of connection points: 2
#     Edge 16, Type (0, 0), BuildingBlock: EZIPEK_clean_linker_0, # of connection points: 2
#     Edge 17, Type (0, 0), BuildingBlock: EZIPEK_clean_linker_0, # of connection points: 2
#     Edge 18, Type (0, 0), BuildingBlock: EZIPEK_clean_linker_0, # of connection points: 2
#     Edge 19, Type (0, 0), BuildingBlock: EZIPEK_clean_linker_0, # of connection points: 2
#     Edge 20, Type (0, 0), BuildingBlock: EZIPEK_clean_linker_0, # of connection points: 2
#     Edge 21, Type (0, 0), BuildingBlock: EZIPEK_clean_linker_0, # of connection points: 2
#     Edge 22, Type (0, 0), BuildingBlock: EZIPEK_clean_linker_0, # of connection points: 2
#     Edge 23, Type (0, 0), BuildingBlock: EZIPEK_clean_linker_0, # of connection points: 2
#     Edge 24, Type (0, 0), BuildingBlock: EZIPEK_clean_linker_0, # of connection points: 2
#     Edge 25, Type (0, 0), BuildingBlock: EZIPEK_clean_linker_0, # of connection points: 2
#     Edge 26, Type (0, 0), BuildingBlock: EZIPEK_clean_linker_0, # of connection points: 2
#     Edge 27, Type (0, 0), BuildingBlock: EZIPEK_clean_linker_0, # of connection points: 2
#     Edge 28, Type (0, 0), BuildingBlock: EZIPEK_clean_linker_0, # of connection points: 2
#     Edge 29, Type (0, 0), BuildingBlock: EZIPEK_clean_linker_0, # of connection points: 2
#     Edge 30, Type (0, 0), BuildingBlock: EZIPEK_clean_linker_0, # of connection points: 2
#     Edge 31, Type (0, 0), BuildingBlock: EZIPEK_clean_linker_0, # of connection points: 2
#     Edge 32, Type (0, 0), BuildingBlock: EZIPEK_clean_linker_0, # of connection points: 2
#     Edge 33, Type (0, 0), BuildingBlock: EZIPEK_clean_linker_0, # of connection points: 2
#     Edge 34, Type (0, 0), BuildingBlock: EZIPEK_clean_linker_0, # of connection points: 2
#     Edge 35, Type (0, 0), BuildingBlock: EZIPEK_clean_linker_0, # of connection points: 2
# Relax obj value: 0.284
# Max RMSD: 0.131
# Mean RMSD: 0.129
data_MOF--net-wjg--node1-NAHDIM_clean_sbu_0--edge1-EZIPEK_clean_linker_0
_symmetry_space_group_name_H-M    P1
_symmetry_Int_Tables_number       1
_symmetry_cell_setting            triclinic
loop_
_symmetry_equiv_pos_as_xyz
'x, y, z'
_cell_length_a     25.037143
_cell_length_b     25.008553
_cell_length_c     28.47641
_cell_angle_alpha  90.1196
_cell_angle_beta   89.844793
_cell_angle_gamma 119.97109
loop_
_atom_site_label
_atom_site_type_symbol
_atom_site_fract_x
_atom_site_fract_y
_atom_site_fract_z
_atom_type_partial_charge
C0 C 0.05553 0.37817 0.24454 0.0
O1 O 0.11265 0.40122 0.22996 0.0
O2 O 0.18621 0.48341 0.31267 0.0
Zn3 Zn 0.11808 0.39841 0.32957 0.0
O4 O 0.15277 0.34154 0.32276 0.0
C5 C 0.1446 0.44433 0.42317 0.0
O6 O 0.17363 0.4977 0.40171 0.0
O7 O 0.04409 0.37235 0.28834 0.0
C8 C 0.14485 0.30275 0.35463 0.0
O9 O 0.10349 0.29006 0.38756 0.0
C10 C 0.23657 0.49195 0.29524 0.0
O11 O 0.23923 0.44316 0.2816 0.0
O12 O 0.10465 0.39863 0.39943 0.0
C13 C 0.67201 0.05699 0.57524 0.0
O14 O 0.71585 0.1097 0.55853 0.0
O15 O 0.68406 0.19299 0.64893 0.0
Zn16 Zn 0.7115 0.13035 0.65594 0.0
O17 O 0.79934 0.16445 0.63583 0.0
C18 C 0.706 0.15019 0.75434 0.0
O19 O 0.65979 0.15912 0.7446 0.0
O20 O 0.65862 0.0526 0.61876 0.0
C21 C 0.83918 0.21726 0.65108 0.0
O22 O 0.82074 0.25108 0.67351 0.0
C23 C 0.70423 0.23437 0.6175 0.0
O24 O 0.7432 0.23423 0.5866 0.0
O25 O 0.72144 0.1221 0.72487 0.0
C26 C 0.59735 0.68932 0.89661 0.0
O27 O 0.55043 0.69779 0.88883 0.0
O28 O 0.52245 0.74202 0.97813 0.0
Zn29 Zn 0.60782 0.75357 0.98437 0.0
O30 O 0.6673 0.84509 0.97902 0.0
C31 C 0.56907 0.69314 0.07381 0.0
O32 O 0.51599 0.66299 0.05191 0.0
O33 O 0.62719 0.70791 0.93488 0.0
C34 C 0.68708 0.87798 0.01596 0.0
O35 O 0.67235 0.85168 0.05742 0.0
C36 C 0.50767 0.77096 0.00744 0.0
O37 O 0.54709 0.80488 0.04006 0.0
O38 O 0.61595 0.72911 0.04955 0.0
C39 C 0.91814 0.60578 0.23838 0.0
O40 O 0.86204 0.59379 0.22836 0.0
O41 O 0.79159 0.51604 0.32579 0.0
Zn42 Zn 0.87311 0.59707 0.33226 0.0
O43 O 0.84937 0.66306 0.32734 0.0
C44 C 0.92327 0.64735 0.42457 0.0
O45 O 0.94235 0.70118 0.40457 0.0
O46 O 0.9338 0.60805 0.28112 0.0
C47 C 0.81379 0.66401 0.35892 0.0
O48 O 0.79762 0.62569 0.3945 0.0
C49 C 0.7691 0.48174 0.36179 0.0
O50 O 0.80272 0.49427 0.39963 0.0
O51 O 0.90618 0.60091 0.39771 0.0
C52 C 0.29922 0.89195 0.55482 0.0
O53 O 0.26646 0.83652 0.53667 0.0
O54 O 0.28698 0.75747 0.61397 0.0
Zn55 Zn 0.26224 0.81838 0.63535 0.0
O56 O 0.17123 0.7825 0.62803 0.0
C57 C 0.27483 0.78486 0.72925 0.0
O58 O 0.2964 0.75226 0.70905 0.0
O59 O 0.30643 0.89793 0.59909 0.0
C60 C 0.14609 0.80744 0.65133 0.0
O61 O 0.18048 0.85873 0.67464 0.0
C62 C 0.2508 0.71088 0.58955 0.0
O63 O 0.19823 0.7059 0.57646 0.0
O64 O 0.26883 0.82454 0.70547 0.0
C65 C 0.39174 0.343 0.90465 0.0
O66 O 0.4517 0.37588 0.91036 0.0
O67 O 0.48891 0.30474 0.97053 0.0
Zn68 Zn 0.39785 0.26859 0.97989 0.0
O69 O 0.35738 0.17667 0.97576 0.0
C70 C 0.42691 0.30605 0.07557 0.0
O71 O 0.48158 0.34641 0.05937 0.0
O72 O 0.35959 0.29776 0.93176 0.0
C73 C 0.30458 0.14701 0.99494 0.0
O74 O 0.27805 0.17687 0.01184 0.0
C75 C 0.51088 0.28329 0.94062 0.0
O76 O 0.47185 0.23692 0.91435 0.0
O77 O 0.38214 0.279 0.04731 0.0
C78 C 0.57443 0.86034 0.43804 0.0
O79 O 0.54332 0.80212 0.45078 0.0
O80 O 0.48007 0.73591 0.3588 0.0
Zn81 Zn 0.56912 0.80087 0.35311 0.0
O82 O 0.62485 0.76645 0.36834 0.0
C83 C 0.56306 0.76382 0.26405 0.0
O84 O 0.54778 0.71629 0.2915 0.0
O85 O 0.59026 0.87369 0.39526 0.0
C86 C 0.67974 0.79555 0.35266 0.0
O87 O 0.69929 0.84828 0.33076 0.0
C88 C 0.45978 0.68237 0.37584 0.0
O89 O 0.49588 0.67028 0.40162 0.0
O90 O 0.57801 0.81583 0.28271 0.0
C91 C 0.6878 0.58754 0.75524 0.0
O92 O 0.69287 0.53932 0.76629 0.0
O93 O 0.72409 0.49734 0.67375 0.0
Zn94 Zn 0.75888 0.59008 0.67518 0.0
O95 O 0.84772 0.63692 0.69597 0.0
C96 C 0.74969 0.58091 0.57459 0.0
O97 O 0.71303 0.52262 0.58486 0.0
O98 O 0.71022 0.61552 0.71672 0.0
C99 C 0.88692 0.64274 0.66498 0.0
O100 O 0.86793 0.61285 0.62513 0.0
C101 C 0.75579 0.47118 0.68039 0.0
O102 O 0.81312 0.50385 0.69463 0.0
O103 O 0.76518 0.61947 0.60813 0.0
C104 C 0.0943 0.67567 0.08599 0.0
O105 O 0.1468 0.67657 0.09151 0.0
O106 O 0.23473 0.75046 0.01971 0.0
Zn107 Zn 0.15778 0.757 0.00749 0.0
O108 O 0.17267 0.8436 0.01613 0.0
C109 C 0.16594 0.71825 0.91457 0.0
O110 O 0.18637 0.68605 0.93671 0.0
O111 O 0.08719 0.70301 0.05102 0.0
C112 C 0.22209 0.89095 0.02906 0.0
O113 O 0.26715 0.88424 0.04592 0.0
C114 C 0.28521 0.78612 -0.00133 0.0
O115 O 0.28887 0.83048 0.97201 0.0
O116 O 0.13944 0.74177 0.9379 0.0
C117 C 0.3867 0.10463 0.43355 0.0
O118 O 0.40357 0.1578 0.45407 0.0
O119 O 0.49414 0.24355 0.36788 0.0
Zn120 Zn 0.40482 0.18072 0.35675 0.0
O121 O 0.34494 0.20577 0.38153 0.0
C122 C 0.42701 0.22066 0.26165 0.0
O123 O 0.47355 0.26809 0.28193 0.0
O124 O 0.38464 0.10132 0.38895 0.0
C125 C 0.34343 0.25088 0.36257 0.0
O126 O 0.387 0.28653 0.33306 0.0
C127 C 0.51442 0.29405 0.39002 0.0
O128 O 0.47609 0.30632 0.41276 0.0
O129 O 0.39126 0.17326 0.28592 0.0
C130 C 0.27341 0.3761 0.74203 0.0
O131 O 0.23365 0.3951 0.74895 0.0
O132 O 0.25322 0.45756 0.63891 0.0
Zn133 Zn 0.22867 0.36834 0.65054 0.0
O134 O 0.1389 0.3184 0.66874 0.0
C135 C 0.27282 0.38076 0.559 0.0
O136 O 0.32145 0.42758 0.57814 0.0
O137 O 0.28136 0.36188 0.70072 0.0
C138 C 0.10137 0.31408 0.63706 0.0
O139 O 0.12331 0.34005 0.59624 0.0
C140 C 0.21854 0.48075 0.64368 0.0
O141 O 0.16355 0.44801 0.66235 0.0
O142 O 0.23628 0.33832 0.58671 0.0
C143 C 0.87423 0.30363 0.09712 0.0
O144 O 0.81477 0.27579 0.10584 0.0
O145 O 0.76619 0.29001 0.00076 0.0
Zn146 Zn 0.82724 0.26024 0.00697 0.0
O147 O 0.78388 0.17094 0.02394 0.0
C148 C 0.85282 0.28881 0.90888 0.0
O149 O 0.84012 0.3325 0.91927 0.0
O150 O 0.89282 0.30612 0.05518 0.0
C151 C 0.81475 0.14398 0.01659 0.0
O152 O 0.87277 0.17651 0.00369 0.0
C153 C 0.7151 0.25339 0.98115 0.0
O154 O 0.70324 0.19775 0.96928 0.0
O155 O 0.85866 0.25912 0.94255 0.0
C156 C 0.35195 0.5549 0.29377 0.0
C157 C 0.29505 0.55092 0.30496 0.0
C158 C 0.34674 0.63457 0.36222 0.0
C159 C 0.40179 0.63234 0.35577 0.0
N160 N 0.45564 0.58578 0.31796 0.0
N161 N 0.24679 0.60841 0.33072 0.0
C162 C 0.40418 0.59126 0.32225 0.0
C163 C 0.29463 0.59703 0.33377 0.0
N164 N 0.35705 0.52807 0.25346 0.0
N165 N 0.34361 0.67078 0.3969 0.0
H166 H 0.21239 0.58731 0.30538 0.0
H167 H 0.24567 0.64442 0.34823 0.0
H168 H 0.38077 0.6981 0.41886 0.0
H169 H 0.30281 0.66926 0.40685 0.0
H170 H 0.39862 0.5337 0.24082 0.0
H171 H 0.3211 0.50762 0.22923 0.0
H172 H 0.45678 0.55139 0.29804 0.0
H173 H 0.49581 0.61181 0.33713 0.0
C174 C 0.66734 0.29643 0.66414 0.0
C175 C 0.69888 0.29098 0.62449 0.0
C176 C 0.75724 0.40306 0.61655 0.0
C177 C 0.73347 0.4089 0.66042 0.0
N178 N 0.66544 0.36206 0.72642 0.0
N179 N 0.74422 0.33693 0.55027 0.0
C180 C 0.68745 0.35583 0.68401 0.0
C181 C 0.7351 0.34371 0.5967 0.0
N182 N 0.61584 0.24542 0.68055 0.0
N183 N 0.80259 0.45395 0.59442 0.0
H184 H 0.72156 0.29401 0.53363 0.0
H185 H 0.76663 0.37385 0.52713 0.0
H186 H 0.81743 0.49883 0.6056 0.0
H187 H 0.82834 0.45105 0.56681 0.0
H188 H 0.58817 0.24647 0.70746 0.0
H189 H 0.59628 0.20323 0.66289 0.0
H190 H 0.63748 0.32499 0.74815 0.0
H191 H 0.67859 0.40496 0.74147 0.0
C192 C 0.42861 0.78227 0.96143 0.0
C193 C 0.44766 0.76877 0.00444 0.0
C194 C 0.36082 0.76828 0.04486 0.0
C195 C 0.33861 0.7759 0.00102 0.0
N196 N 0.34297 0.77219 0.91616 0.0
N197 N 0.4235 0.73402 0.08486 0.0
C198 C 0.36989 0.77735 0.95885 0.0
C199 C 0.41113 0.75711 0.04552 0.0
N200 N 0.46761 0.80329 0.92366 0.0
N201 N 0.33656 0.77513 0.08597 0.0
H202 H 0.45893 0.72366 0.08634 0.0
H203 H 0.3947 0.71912 0.11419 0.0
H204 H 0.30138 0.78587 0.08739 0.0
H205 H 0.35563 0.77636 0.11871 0.0
H206 H 0.45783 0.81993 0.89327 0.0
H207 H 0.51236 0.81056 0.92425 0.0
H208 H 0.36142 0.7669 0.8848 0.0
H209 H 0.29899 0.76607 0.91247 0.0
C210 C 0.59332 0.39804 0.35948 0.0
C211 C 0.57947 0.34248 0.38286 0.0
C212 C 0.68904 0.3735 0.38212 0.0
C213 C 0.70354 0.4322 0.36417 0.0
N214 N 0.66903 0.50432 0.34465 0.0
N215 N 0.61451 0.28081 0.42286 0.0
C216 C 0.65562 0.44557 0.35502 0.0
C217 C 0.62747 0.33108 0.39592 0.0
N218 N 0.54731 0.40485 0.33985 0.0
N219 N 0.73385 0.35757 0.38462 0.0
H220 H 0.56996 0.24907 0.43398 0.0
H221 H 0.64838 0.27367 0.43777 0.0
H222 H 0.77902 0.38674 0.37337 0.0
H223 H 0.72494 0.31341 0.39326 0.0
H224 H 0.55569 0.44129 0.31761 0.0
H225 H 0.5009 0.37137 0.34192 0.0
H226 H 0.6358 0.51776 0.34356 0.0
H227 H 0.71366 0.54113 0.34135 0.0
C228 C 0.21379 0.60132 0.5654 0.0
C229 C 0.25885 0.65557 0.58797 0.0
C230 C 0.28884 0.5953 0.63743 0.0
C231 C 0.23629 0.54067 0.62132 0.0
N232 N 0.15388 0.48948 0.56499 0.0
N233 N 0.35974 0.70379 0.62289 0.0
C234 C 0.20062 0.54296 0.58331 0.0
C235 C 0.30311 0.65265 0.61704 0.0
N236 N 0.18646 0.60643 0.52551 0.0
N237 N 0.3229 0.59301 0.674 0.0
H238 H 0.37334 0.74416 0.60377 0.0
H239 H 0.39563 0.70348 0.64106 0.0
H240 H 0.31392 0.5519 0.69008 0.0
H241 H 0.35719 0.63229 0.69068 0.0
H242 H 0.15416 0.56931 0.5058 0.0
H243 H 0.20154 0.649 0.50923 0.0
H244 H 0.12171 0.48744 0.54097 0.0
H245 H 0.14653 0.44617 0.57441 0.0
C246 C 0.65086 0.30221 0.00063 0.0
C247 C 0.67193 0.27484 0.96714 0.0
C248 C 0.60207 0.27796 0.90815 0.0
C249 C 0.57685 0.29886 0.94352 0.0
N250 N 0.60418 0.36569 0.01115 0.0
N251 N 0.6821 0.25499 0.88544 0.0
C252 C 0.60974 0.32223 0.98602 0.0
C253 C 0.65204 0.26838 0.91957 0.0
N254 N 0.66704 0.3062 0.04683 0.0
N255 N 0.57858 0.26833 0.86372 0.0
H256 H 0.71985 0.24948 0.89249 0.0
H257 H 0.67318 0.25392 0.8497 0.0
H258 H 0.54886 0.28401 0.85322 0.0
H259 H 0.58861 0.24578 0.83737 0.0
H260 H 0.64724 0.31998 0.07299 0.0
H261 H 0.6956 0.29041 0.05972 0.0
H262 H 0.63015 0.38666 0.04113 0.0
H263 H 0.58122 0.38751 -0.00216 0.0
C264 C 0.25271 0.33297 0.37728 0.0
C265 C 0.19331 0.28654 0.36213 0.0
C266 C 0.23017 0.21311 0.35307 0.0
C267 C 0.28954 0.25947 0.36855 0.0
N268 N 0.35332 0.35728 0.40638 0.0
N269 N 0.12127 0.17953 0.34625 0.0
C270 C 0.29954 0.31758 0.38401 0.0
C271 C 0.1806 0.2255 0.35381 0.0
N272 N 0.26473 0.39207 0.38447 0.0
N273 N 0.22187 0.1589 0.33469 0.0
H274 H 0.08421 0.18753 0.34479 0.0
H275 H 0.10806 0.13291 0.34518 0.0
H276 H 0.25647 0.1474 0.33314 0.0
H277 H 0.18181 0.12698 0.31751 0.0
H278 H 0.30888 0.4295 0.38939 0.0
H279 H 0.23095 0.40473 0.38301 0.0
H280 H 0.36113 0.39776 0.42285 0.0
H281 H 0.38809 0.34671 0.41249 0.0
C282 C 0.93252 0.23043 0.60728 0.0
C283 C 0.90564 0.23704 0.64916 0.0
C284 C 0.00756 0.29189 0.68585 0.0
C285 C 0.03378 0.28155 0.64491 0.0
N286 N 0.01641 0.22075 0.57474 0.0
N287 N 0.91557 0.25382 0.7332 0.0
C288 C 0.99471 0.24441 0.6081 0.0
C289 C 0.94247 0.26166 0.69003 0.0
N290 N 0.90017 0.21379 0.56617 0.0
N291 N 0.04376 0.3323 0.71985 0.0
H292 H 0.86809 0.22764 0.73836 0.0
H293 H 0.94066 0.26649 0.76439 0.0
H294 H 0.09166 0.35654 0.71877 0.0
H295 H 0.02568 0.3459 0.74741 0.0
H296 H 0.92034 0.21409 0.53402 0.0
H297 H 0.85542 0.20621 0.56321 0.0
H298 H 0.98814 0.18923 0.54938 0.0
H299 H 0.06086 0.22707 0.5759 0.0
C300 C 0.80514 0.0442 0.04348 0.0
C301 C 0.78349 0.076 0.01526 0.0
C302 C 0.69748 0.97793 0.98812 0.0
C303 C 0.72204 0.94603 0.01312 0.0
N304 N 0.80633 0.94914 0.05642 0.0
N305 N 0.71955 0.07352 0.95089 0.0
C306 C 0.77802 0.97928 0.03847 0.0
C307 C 0.73273 0.04303 0.98463 0.0
N308 N 0.85001 0.07557 0.07622 0.0
N309 N 0.63931 0.94681 0.96975 0.0
H310 H 0.74614 0.121 0.94553 0.0
H311 H 0.68651 0.05088 0.92492 0.0
H312 H 0.61054 0.89926 0.9727 0.0
H313 H 0.61718 0.96905 0.95572 0.0
H314 H 0.86276 0.05375 0.10127 0.0
H315 H 0.8708 0.12316 0.0811 0.0
H316 H 0.85018 0.97186 0.07126 0.0
H317 H 0.78876 0.9018 0.05225 0.0
C318 C 0.75519 0.77238 0.39197 0.0
C319 C 0.71807 0.76592 0.35264 0.0
C320 C 0.74613 0.69473 0.31571 0.0
C321 C 0.78566 0.70349 0.35408 0.0
N322 N 0.84022 0.76274 0.42205 0.0
N323 N 0.68951 0.73313 0.27244 0.0
C324 C 0.79368 0.74576 0.39042 0.0
C325 C 0.71717 0.73094 0.31302 0.0
N326 N 0.75322 0.80331 0.43096 0.0
N327 N 0.73362 0.64984 0.28301 0.0
H328 H 0.66805 0.75928 0.26944 0.0
H329 H 0.69304 0.71415 0.24078 0.0
H330 H 0.75421 0.62251 0.28296 0.0
H331 H 0.69905 0.63626 0.25789 0.0
H332 H 0.77391 0.80343 0.46269 0.0
H333 H 0.7273 0.82545 0.43255 0.0
H334 H 0.85256 0.79799 0.44652 0.0
H335 H 0.87099 0.74631 0.42001 0.0
C336 C 0.05621 0.72947 0.69766 0.0
C337 C 0.0792 0.77225 0.65994 0.0
C338 C 0.97414 0.74194 0.6368 0.0
C339 C 0.9518 0.69176 0.66865 0.0
N340 N 0.97026 0.63591 0.72923 0.0
N341 N 0.06138 0.81969 0.59284 0.0
C342 C 0.99233 0.68541 0.6996 0.0
C343 C 0.03854 0.77907 0.62947 0.0
N344 N 0.09534 0.73169 0.73189 0.0
N345 N 0.93364 0.75507 0.61475 0.0
H346 H 0.10849 0.84938 0.58767 0.0
H347 H 0.03389 0.82146 0.5662 0.0
H348 H 0.88612 0.72931 0.62024 0.0
H349 H 0.94744 0.79508 0.59528 0.0
H350 H 0.08047 0.70595 0.76271 0.0
H351 H 0.14232 0.76379 0.73152 0.0
H352 H -0.00147 0.62466 0.74855 0.0
H353 H 0.92341 0.60383 0.73246 0.0
C354 C 0.29353 0.06242 0.04745 0.0
C355 C 0.2777 0.08086 0.0052 0.0
C356 C 0.2148 0.97313 0.98078 0.0
C357 C 0.23115 0.95426 0.02325 0.0
N358 N 0.26708 0.9798 0.10305 0.0
N359 N 0.21207 0.05536 0.93759 0.0
C360 C 0.26483 -0.0013 0.05845 0.0
C361 C 0.23471 0.03666 0.97378 0.0
N362 N 0.33683 0.10571 0.07672 0.0
N363 N 0.18294 0.93178 0.94591 0.0
H364 H 0.22705 0.10169 0.93062 0.0
H365 H 0.17488 0.02503 0.9169 0.0
H366 H 0.1602 0.88427 0.94977 0.0
H367 H 0.18027 0.94497 0.91172 0.0
H368 H 0.35544 0.09465 0.10524 0.0
H369 H 0.35755 0.15303 0.07055 0.0
H370 H 0.28638 0.01001 0.13127 0.0
H371 H 0.24313 0.93344 0.11298 0.0
C372 C 0.91847 0.27742 0.16617 0.0
C373 C 0.91854 0.32313 0.13648 0.0
C374 C 0.00457 0.40497 0.18076 0.0
C375 C 0.00562 0.35931 0.20963 0.0
N376 N 0.96048 0.25333 0.23453 0.0
N377 N 0.96488 0.42894 0.11118 0.0
C378 C 0.96138 0.29586 0.20387 0.0
C379 C 0.96241 0.38654 0.14266 0.0
N380 N 0.88035 0.21621 0.15608 0.0
N381 N 0.04176 0.46608 0.1915 0.0
H382 H 0.93245 0.41795 0.08459 0.0
H383 H 0.00105 0.47428 0.10951 0.0
H384 H 0.0726 0.48121 0.21958 0.0
H385 H 0.03873 0.50178 0.17538 0.0
H386 H 0.88212 0.18019 0.17276 0.0
H387 H 0.84908 0.20067 0.12833 0.0
H388 H 0.92531 0.20756 0.23623 0.0
H389 H 0.99361 0.26429 0.26052 0.0
C390 C 0.60458 0.00435 0.50574 0.0
C391 C 0.64129 0.00324 0.54327 0.0
C392 C 0.63678 0.9105 0.51017 0.0
C393 C 0.59686 0.90937 0.47432 0.0
N394 N 0.53347 0.94798 0.44263 0.0
N395 N 0.68524 0.95084 0.58549 0.0
C396 C 0.57821 0.95437 0.47332 0.0
C397 C 0.65467 0.95458 0.54703 0.0
N398 N 0.59562 0.05367 0.50069 0.0
N399 N 0.66077 0.87197 0.50741 0.0
H400 H 0.70242 0.98401 0.61201 0.0
H401 H 0.68972 0.91252 0.59295 0.0
H402 H 0.65018 0.84 0.48043 0.0
H403 H 0.69557 0.87536 0.52929 0.0
H404 H 0.5764 0.06117 0.47079 0.0
H405 H 0.61022 0.08898 0.52548 0.0
H406 H 0.51287 0.97527 0.4437 0.0
H407 H 0.51301 0.91185 0.41849 0.0
C408 C 0.67954 0.70027 0.84065 0.0
C409 C 0.61925 0.66359 0.8592 0.0
C410 C 0.60124 0.57974 0.80502 0.0
C411 C 0.66363 0.614 0.79026 0.0
N412 N 0.76563 0.70205 0.80041 0.0
N413 N 0.52534 0.56527 0.86411 0.0
C414 C 0.70377 0.67304 0.80973 0.0
C415 C 0.5806 0.6025 0.84263 0.0
N416 N 0.71291 0.76181 0.85115 0.0
N417 N 0.56128 0.52641 0.78219 0.0
H418 H 0.50851 0.58012 0.89174 0.0
H419 H 0.49879 0.51821 0.85727 0.0
H420 H 0.57488 0.50838 0.75457 0.0
H421 H 0.51381 0.50291 0.78785 0.0
H422 H 0.75436 0.79213 0.83466 0.0
H423 H 0.6964 0.78398 0.87291 0.0
H424 H 0.79788 0.74181 0.81784 0.0
H425 H 0.78569 0.68343 0.77856 0.0
C426 C 0.06426 0.69549 0.16523 0.0
C427 C 0.04985 0.65627 0.12548 0.0
C428 C 0.95234 0.58074 0.16234 0.0
C429 C 0.96428 0.62233 0.20018 0.0
N430 N 0.02557 0.72464 0.23277 0.0
N431 N 0.97675 0.56636 0.08239 0.0
C432 C 0.01885 0.68102 0.20056 0.0
C433 C 0.99275 0.60031 0.12285 0.0
N434 N 0.12121 0.74707 0.16911 0.0
N435 N 0.90378 0.52172 0.16499 0.0
H436 H 0.00624 0.57806 0.05352 0.0
H437 H 0.93288 0.52902 0.07627 0.0
H438 H 0.87411 0.50533 0.19382 0.0
H439 H 0.89604 0.48743 0.1407 0.0
H440 H 0.13706 0.77285 0.19989 0.0
H441 H 0.15452 0.7621 0.1427 0.0
H442 H 0.06095 0.77044 0.23147 0.0
H443 H 0.99258 0.71711 0.25825 0.0
C444 C 0.40775 0.04169 0.49118 0.0
C445 C 0.36511 0.04862 0.46269 0.0
C446 C 0.27931 0.95636 0.49828 0.0
C447 C 0.32225 0.94671 0.52402 0.0
N448 N 0.42732 0.97416 0.54033 0.0
N449 N 0.2611 0.00961 0.43479 0.0
C450 C 0.38654 0.9879 0.51941 0.0
C451 C 0.30115 0.00477 0.4647 0.0
N452 N 0.46846 0.0868 0.4915 0.0
N453 N 0.21764 0.92137 0.50789 0.0
H454 H 0.27426 0.04651 0.4118 0.0
H455 H 0.21542 0.97499 0.43046 0.0
H456 H 0.1998 0.88636 0.53299 0.0
H457 H 0.18443 0.93043 0.49427 0.0
H458 H 0.50013 0.08862 0.51598 0.0
H459 H 0.48658 0.12479 0.46903 0.0
H460 H 0.47464 -0.00128 0.53435 0.0
H461 H 0.41351 0.93505 0.56106 0.0
C462 C 0.33566 0.30474 0.82847 0.0
C463 C 0.36295 0.35238 0.86255 0.0
C464 C 0.33997 0.41875 0.81365 0.0
C465 C 0.30597 0.36847 0.78259 0.0
N466 N 0.26098 0.25951 0.76597 0.0
N467 N 0.38225 0.45097 0.89177 0.0
C468 C 0.30104 0.3103 0.79136 0.0
C469 C 0.3628 0.40848 0.85631 0.0
N470 N 0.3444 0.25501 0.83057 0.0
N471 N 0.35255 0.4768 0.80161 0.0
H472 H 0.3994 0.44505 0.9235 0.0
H473 H 0.37689 0.48968 0.89114 0.0
H474 H 0.33807 0.48652 0.77007 0.0
H475 H 0.38248 0.5161 0.82065 0.0
H476 H 0.33101 0.22231 0.80384 0.0
H477 H 0.37046 0.24959 0.85667 0.0
H478 H 0.25089 0.21489 0.77439 0.0
H479 H 0.23297 0.26075 0.73948 0.0
C480 C 0.14726 0.37043 0.48172 0.0
C481 C 0.1751 0.43136 0.46355 0.0
C482 C 0.27449 0.45177 0.49564 0.0
C483 C 0.24586 0.392 0.51559 0.0
N484 N 0.16311 0.28736 0.50786 0.0
N485 N 0.26074 0.53603 0.47088 0.0
C486 C 0.18455 0.349 0.50255 0.0
C487 C 0.23759 0.47394 0.47532 0.0
N488 N 0.08455 0.33451 0.48217 0.0
N489 N 0.33725 0.48584 0.49321 0.0
H490 H 0.23318 0.55512 0.46319 0.0
H491 H 0.30469 0.56865 0.48233 0.0
H492 H 0.36511 0.46764 0.50296 0.0
H493 H 0.36058 0.52769 0.47528 0.0
H494 H 0.06141 0.29092 0.49743 0.0
H495 H 0.05577 0.35165 0.47246 0.0
H496 H 0.1205 0.25347 0.4951 0.0
H497 H 0.19158 0.27064 0.51936 0.0
C498 C 0.82064 0.19734 0.85511 0.0
C499 C 0.83682 0.25989 0.86112 0.0
C500 C 0.77934 0.25415 0.79009 0.0
C501 C 0.75189 0.18841 0.79072 0.0
N502 N 0.74594 0.09709 0.82466 0.0
N503 N 0.85749 0.35292 0.82218 0.0
C504 C 0.77314 0.15996 0.82301 0.0
C505 C 0.82383 0.29 0.82481 0.0
N506 N 0.85325 0.17494 0.87789 0.0
N507 N 0.76287 0.28237 0.75668 0.0
H508 H 0.89394 0.37876 0.84517 0.0
H509 H 0.85448 0.37895 0.79497 0.0
H510 H 0.73714 0.25986 0.72711 0.0
H511 H 0.77383 0.32831 0.75838 0.0
H512 H 0.84644 0.13076 0.87252 0.0
H513 H 0.89308 0.20369 0.89689 0.0
H514 H 0.75549 0.07377 0.85059 0.0
H515 H 0.70988 0.0678 0.80257 0.0
C516 C 0.50994 0.70217 0.19371 0.0
C517 C 0.5632 0.75343 0.21288 0.0
C518 C 0.62481 0.7505 0.14725 0.0
C519 C 0.57062 0.70277 0.12591 0.0
N520 N 0.46941 0.61592 0.13968 0.0
N521 N 0.66871 0.83461 0.20311 0.0
C522 C 0.51505 0.67359 0.15215 0.0
C523 C 0.61976 0.78041 0.18803 0.0
N524 N 0.454 0.68206 0.21484 0.0
N525 N 0.68139 0.76281 0.13143 0.0
H526 H 0.6669 0.85786 0.2329 0.0
H527 H 0.709 0.85936 0.18355 0.0
H528 H 0.68649 0.73533 0.10623 0.0
H529 H 0.72257 0.79363 0.14792 0.0
H530 H 0.41236 0.64899 0.20019 0.0
H531 H 0.44879 0.70324 0.24477 0.0
H532 H 0.42938 0.59009 0.15924 0.0
H533 H 0.47568 0.5904 0.11343 0.0
C534 C 0.85874 0.57333 0.48715 0.0
C535 C 0.89463 0.63522 0.47265 0.0
C536 C 0.83152 0.66259 0.52216 0.0
C537 C 0.7911 0.59888 0.53217 0.0
N538 N 0.75555 0.49412 0.50582 0.0
N539 N 0.93258 0.74086 0.49399 0.0
C540 C 0.80164 0.55406 0.50977 0.0
C541 C 0.88636 0.68079 0.49559 0.0
N542 N 0.87965 0.53313 0.47921 0.0
N543 N 0.81502 0.70497 0.53512 0.0
H544 H 0.97533 0.75341 0.47896 0.0
H545 H 0.93127 0.77666 0.51162 0.0
H546 H 0.77197 0.69203 0.5497 0.0
H547 H 0.84039 0.75161 0.52662 0.0
H548 H 0.85635 0.48746 0.4906 0.0
H549 H 0.92337 0.54793 0.46503 0.0
H550 H 0.761 0.4608 0.48788 0.0
H551 H 0.70963 0.4802 0.5131 0.0
C552 C 0.22774 0.79947 0.85325 0.0
C553 C 0.18547 0.73664 0.86502 0.0
C554 C 0.1986 0.70566 0.78605 0.0
C555 C 0.24578 0.76749 0.77637 0.0
N556 N 0.30679 0.87328 0.80229 0.0
N557 N 0.1278 0.63006 0.84073 0.0
C558 C 0.26041 0.81414 0.81032 0.0
C559 C 0.17071 0.68998 0.83099 0.0
N560 N 0.23964 0.84722 0.88245 0.0
N561 N 0.17631 0.66072 0.75252 0.0
H562 H 0.10318 0.61658 0.87224 0.0
H563 H 0.11628 0.5942 0.81684 0.0
H564 H 0.18969 0.66755 0.71733 0.0
H565 H 0.18969 0.66755 0.71733 0.0
H566 H 0.21765 0.84292 0.9144 0.0
H567 H 0.21765 0.84292 0.9144 0.0
H568 H 0.3188 0.90895 0.82645 0.0
H569 H 0.33508 0.88619 0.77265 0.0
C570 C 0.37237 0.24486 0.19897 0.0
C571 C 0.41553 0.22634 0.21162 0.0
C572 C 0.45847 0.24989 0.13231 0.0
C573 C 0.42152 0.27701 0.12188 0.0
N574 N 0.33929 0.29596 0.14468 0.0
N575 N 0.49633 0.20574 0.18902 0.0
C576 C 0.37698 0.27262 0.15482 0.0
C577 C 0.4574 0.22725 0.17786 0.0
N578 N 0.32668 0.23766 0.22875 0.0
N579 N 0.49389 0.24284 0.09919 0.0
H580 H 0.49541 0.1863 0.22164 0.0
H581 H 0.52877 0.20679 0.16535 0.0
H582 H 0.49508 0.2539 0.06376 0.0
H583 H 0.49508 0.2539 0.06376 0.0
H584 H 0.31817 0.21543 0.26112 0.0
H585 H 0.31817 0.21543 0.26112 0.0
H586 H 0.30624 0.29365 0.16832 0.0
H587 H 0.34188 0.31857 0.1133 0.0
loop_
_geom_bond_atom_site_label_1
_geom_bond_atom_site_label_2
_geom_bond_distance
_geom_bond_site_symmetry_2
_ccdc_geom_bond_type
C0 O1 1.160 . S
C0 O7 1.185 . S
O1 C0 1.160 . S
O2 Zn3 1.899 . S
O2 C10 1.284 . S
Zn3 O2 1.899 . S
Zn3 O4 2.032 . S
Zn3 O7 2.086 . S
Zn3 O12 1.977 . S
O4 Zn3 2.032 . S
O4 C8 1.278 . S
C5 O6 1.203 . S
C5 O12 1.267 . S
O6 C5 1.203 . S
O7 C0 1.185 . S
O7 Zn3 2.086 . S
C8 O4 1.278 . S
C8 O9 1.211 . S
O9 C8 1.211 . S
C10 O2 1.284 . S
C10 O11 1.273 . S
O11 C10 1.273 . S
O12 Zn3 1.977 . S
O12 C5 1.267 . S
C13 O14 1.160 . S
C13 O20 1.185 . S
O14 C13 1.160 . S
O15 Zn16 1.899 . S
O15 C23 1.284 . S
Zn16 O15 1.899 . S
Zn16 O17 2.032 . S
Zn16 O20 2.086 . S
Zn16 O25 1.977 . S
O17 Zn16 2.032 . S
O17 C21 1.278 . S
C18 O19 1.203 . S
C18 O25 1.267 . S
O19 C18 1.203 . S
O20 C13 1.185 . S
O20 Zn16 2.086 . S
C21 O17 1.278 . S
C21 O22 1.211 . S
O22 C21 1.211 . S
C23 O15 1.284 . S
C23 O24 1.273 . S
O24 C23 1.273 . S
O25 Zn16 1.977 . S
O25 C18 1.267 . S
C26 O27 1.160 . S
C26 O33 1.185 . S
O27 C26 1.160 . S
O28 Zn29 1.899 . S
O28 C36 1.284 . S
Zn29 O28 1.899 . S
Zn29 O30 2.032 . S
Zn29 O33 2.086 . S
Zn29 O38 1.977 1_556 S
O30 Zn29 2.032 . S
O30 C34 1.278 . S
C31 O32 1.203 . S
C31 O38 1.267 . S
O32 C31 1.203 . S
O33 C26 1.185 . S
O33 Zn29 2.086 . S
C34 O30 1.278 . S
C34 O35 1.211 1_556 S
O35 C34 1.211 1_554 S
C36 O28 1.284 . S
C36 O37 1.273 . S
O37 C36 1.273 . S
O38 Zn29 1.977 1_554 S
O38 C31 1.267 . S
C39 O40 1.160 . S
C39 O46 1.185 . S
O40 C39 1.160 . S
O41 Zn42 1.899 . S
O41 C49 1.284 . S
Zn42 O41 1.899 . S
Zn42 O43 2.032 . S
Zn42 O46 2.086 . S
Zn42 O51 1.977 . S
O43 Zn42 2.032 . S
O43 C47 1.278 . S
C44 O45 1.203 . S
C44 O51 1.267 . S
O45 C44 1.203 . S
O46 C39 1.185 . S
O46 Zn42 2.086 . S
C47 O43 1.278 . S
C47 O48 1.211 . S
O48 C47 1.211 . S
C49 O41 1.284 . S
C49 O50 1.273 . S
O50 C49 1.273 . S
O51 Zn42 1.977 . S
O51 C44 1.267 . S
C52 O53 1.160 . S
C52 O59 1.185 . S
O53 C52 1.160 . S
O54 Zn55 1.899 . S
O54 C62 1.284 . S
Zn55 O54 1.899 . S
Zn55 O56 2.032 . S
Zn55 O59 2.086 . S
Zn55 O64 1.977 . S
O56 Zn55 2.032 . S
O56 C60 1.278 . S
C57 O58 1.203 . S
C57 O64 1.267 . S
O58 C57 1.203 . S
O59 C52 1.185 . S
O59 Zn55 2.086 . S
C60 O56 1.278 . S
C60 O61 1.211 . S
O61 C60 1.211 . S
C62 O54 1.284 . S
C62 O63 1.273 . S
O63 C62 1.273 . S
O64 Zn55 1.977 . S
O64 C57 1.267 . S
C65 O66 1.160 . S
C65 O72 1.185 . S
O66 C65 1.160 . S
O67 Zn68 1.899 . S
O67 C75 1.284 . S
Zn68 O67 1.899 . S
Zn68 O69 2.032 . S
Zn68 O72 2.086 . S
Zn68 O77 1.977 1_556 S
O69 Zn68 2.032 . S
O69 C73 1.278 . S
C70 O71 1.203 . S
C70 O77 1.267 . S
O71 C70 1.203 . S
O72 C65 1.185 . S
O72 Zn68 2.086 . S
C73 O69 1.278 . S
C73 O74 1.211 1_556 S
O74 C73 1.211 1_554 S
C75 O67 1.284 . S
C75 O76 1.273 . S
O76 C75 1.273 . S
O77 Zn68 1.977 1_554 S
O77 C70 1.267 . S
C78 O79 1.160 . S
C78 O85 1.185 . S
O79 C78 1.160 . S
O80 Zn81 1.899 . S
O80 C88 1.284 . S
Zn81 O80 1.899 . S
Zn81 O82 2.032 . S
Zn81 O85 2.086 . S
Zn81 O90 1.977 . S
O82 Zn81 2.032 . S
O82 C86 1.278 . S
C83 O84 1.203 . S
C83 O90 1.267 . S
O84 C83 1.203 . S
O85 C78 1.185 . S
O85 Zn81 2.086 . S
C86 O82 1.278 . S
C86 O87 1.211 . S
O87 C86 1.211 . S
C88 O80 1.284 . S
C88 O89 1.273 . S
O89 C88 1.273 . S
O90 Zn81 1.977 . S
O90 C83 1.267 . S
C91 O92 1.160 . S
C91 O98 1.185 . S
O92 C91 1.160 . S
O93 Zn94 1.899 . S
O93 C101 1.284 . S
Zn94 O93 1.899 . S
Zn94 O95 2.032 . S
Zn94 O98 2.086 . S
Zn94 O103 1.977 . S
O95 Zn94 2.032 . S
O95 C99 1.278 . S
C96 O97 1.203 . S
C96 O103 1.267 . S
O97 C96 1.203 . S
O98 C91 1.185 . S
O98 Zn94 2.086 . S
C99 O95 1.278 . S
C99 O100 1.211 . S
O100 C99 1.211 . S
C101 O93 1.284 . S
C101 O102 1.273 . S
O102 C101 1.273 . S
O103 Zn94 1.977 . S
O103 C96 1.267 . S
C104 O105 1.160 . S
C104 O111 1.185 . S
O105 C104 1.160 . S
O106 Zn107 1.899 . S
O106 C114 1.284 . S
Zn107 O106 1.899 . S
Zn107 O108 2.032 . S
Zn107 O111 2.086 . S
Zn107 O116 1.977 1_554 S
O108 Zn107 2.032 . S
O108 C112 1.278 . S
C109 O110 1.203 . S
C109 O116 1.267 . S
O110 C109 1.203 . S
O111 C104 1.185 . S
O111 Zn107 2.086 . S
C112 O108 1.278 . S
C112 O113 1.211 1_554 S
O113 C112 1.211 1_556 S
C114 O106 1.284 . S
C114 O115 1.273 . S
O115 C114 1.273 . S
O116 Zn107 1.977 1_556 S
O116 C109 1.267 . S
C117 O118 1.160 . S
C117 O124 1.185 . S
O118 C117 1.160 . S
O119 Zn120 1.899 . S
O119 C127 1.284 . S
Zn120 O119 1.899 . S
Zn120 O121 2.032 . S
Zn120 O124 2.086 . S
Zn120 O129 1.977 . S
O121 Zn120 2.032 . S
O121 C125 1.278 . S
C122 O123 1.203 . S
C122 O129 1.267 . S
O123 C122 1.203 . S
O124 C117 1.185 . S
O124 Zn120 2.086 . S
C125 O121 1.278 . S
C125 O126 1.211 . S
O126 C125 1.211 . S
C127 O119 1.284 . S
C127 O128 1.273 . S
O128 C127 1.273 . S
O129 Zn120 1.977 . S
O129 C122 1.267 . S
C130 O131 1.160 . S
C130 O137 1.185 . S
O131 C130 1.160 . S
O132 Zn133 1.899 . S
O132 C140 1.284 . S
Zn133 O132 1.899 . S
Zn133 O134 2.032 . S
Zn133 O137 2.086 . S
Zn133 O142 1.977 . S
O134 Zn133 2.032 . S
O134 C138 1.278 . S
C135 O136 1.203 . S
C135 O142 1.267 . S
O136 C135 1.203 . S
O137 C130 1.185 . S
O137 Zn133 2.086 . S
C138 O134 1.278 . S
C138 O139 1.211 . S
O139 C138 1.211 . S
C140 O132 1.284 . S
C140 O141 1.273 . S
O141 C140 1.273 . S
O142 Zn133 1.977 . S
O142 C135 1.267 . S
C143 O144 1.160 . S
C143 O150 1.185 . S
O144 C143 1.160 . S
O145 Zn146 1.899 . S
O145 C153 1.284 . S
Zn146 O145 1.899 . S
Zn146 O147 2.032 . S
Zn146 O150 2.086 . S
Zn146 O155 1.977 1_554 S
O147 Zn146 2.032 . S
O147 C151 1.278 . S
C148 O149 1.203 . S
C148 O155 1.267 . S
O149 C148 1.203 . S
O150 C143 1.185 . S
O150 Zn146 2.086 . S
C151 O147 1.278 . S
C151 O152 1.211 1_554 S
O152 C151 1.211 1_556 S
C153 O145 1.284 . S
C153 O154 1.273 . S
O154 C153 1.273 . S
O155 Zn146 1.977 1_556 S
O155 C148 1.267 . S
C156 C157 1.363 . S
C156 C162 1.379 . S
C156 N164 1.356 . S
C157 C156 1.363 . S
C157 C163 1.363 . S
C158 C159 1.363 . S
C158 C163 1.379 . S
C158 N165 1.356 . S
C159 C158 1.363 . S
C159 C162 1.363 . S
N160 C162 1.356 . S
N160 H172 0.984 . S
N160 H173 0.985 . S
N161 C163 1.356 . S
N161 H166 0.984 . S
N161 H167 0.985 . S
C162 C156 1.379 . S
C162 C159 1.363 . S
C162 N160 1.356 . S
C163 C157 1.363 . S
C163 C158 1.379 . S
C163 N161 1.356 . S
N164 C156 1.356 . S
N164 H170 0.984 . S
N164 H171 0.984 . S
N165 C158 1.356 . S
N165 H168 0.984 . S
N165 H169 0.985 . S
H166 N161 0.984 . S
H167 N161 0.985 . S
H168 N165 0.984 . S
H169 N165 0.985 . S
H170 N164 0.984 . S
H171 N164 0.984 . S
H172 N160 0.984 . S
H173 N160 0.985 . S
C174 C175 1.363 . S
C174 C180 1.379 . S
C174 N182 1.356 . S
C175 C174 1.363 . S
C175 C181 1.363 . S
C176 C177 1.363 . S
C176 C181 1.379 . S
C176 N183 1.356 . S
C177 C176 1.363 . S
C177 C180 1.363 . S
N178 C180 1.356 . S
N178 H190 0.984 . S
N178 H191 0.985 . S
N179 C181 1.356 . S
N179 H184 0.984 . S
N179 H185 0.985 . S
C180 C174 1.379 . S
C180 C177 1.363 . S
C180 N178 1.356 . S
C181 C175 1.363 . S
C181 C176 1.379 . S
C181 N179 1.356 . S
N182 C174 1.356 . S
N182 H188 0.984 . S
N182 H189 0.984 . S
N183 C176 1.356 . S
N183 H186 0.984 . S
N183 H187 0.985 . S
H184 N179 0.984 . S
H185 N179 0.985 . S
H186 N183 0.984 . S
H187 N183 0.985 . S
H188 N182 0.984 . S
H189 N182 0.984 . S
H190 N178 0.984 . S
H191 N178 0.985 . S
C192 C193 1.363 . S
C192 C198 1.379 . S
C192 N200 1.356 . S
C193 C192 1.363 . S
C193 C199 1.363 1_556 S
C194 C195 1.363 . S
C194 C199 1.379 . S
C194 N201 1.356 . S
C195 C194 1.363 . S
C195 C198 1.363 1_554 S
N196 C198 1.356 . S
N196 H208 0.984 . S
N196 H209 0.985 . S
N197 C199 1.356 . S
N197 H202 0.984 . S
N197 H203 0.985 . S
C198 C192 1.379 . S
C198 C195 1.363 1_556 S
C198 N196 1.356 . S
C199 C193 1.363 1_554 S
C199 C194 1.379 . S
C199 N197 1.356 . S
N200 C192 1.356 . S
N200 H206 0.984 . S
N200 H207 0.984 . S
N201 C194 1.356 . S
N201 H204 0.984 . S
N201 H205 0.985 . S
H202 N197 0.984 . S
H203 N197 0.985 . S
H204 N201 0.984 . S
H205 N201 0.985 . S
H206 N200 0.984 . S
H207 N200 0.984 . S
H208 N196 0.984 . S
H209 N196 0.985 . S
C210 C211 1.363 . S
C210 C216 1.379 . S
C210 N218 1.356 . S
C211 C210 1.363 . S
C211 C217 1.363 . S
C212 C213 1.363 . S
C212 C217 1.379 . S
C212 N219 1.356 . S
C213 C212 1.363 . S
C213 C216 1.363 . S
N214 C216 1.356 . S
N214 H226 0.984 . S
N214 H227 0.985 . S
N215 C217 1.356 . S
N215 H220 0.984 . S
N215 H221 0.985 . S
C216 C210 1.379 . S
C216 C213 1.363 . S
C216 N214 1.356 . S
C217 C211 1.363 . S
C217 C212 1.379 . S
C217 N215 1.356 . S
N218 C210 1.356 . S
N218 H224 0.984 . S
N218 H225 0.984 . S
N219 C212 1.356 . S
N219 H222 0.984 . S
N219 H223 0.985 . S
H220 N215 0.984 . S
H221 N215 0.985 . S
H222 N219 0.984 . S
H223 N219 0.985 . S
H224 N218 0.984 . S
H225 N218 0.984 . S
H226 N214 0.984 . S
H227 N214 0.985 . S
C228 C229 1.363 . S
C228 C234 1.379 . S
C228 N236 1.356 . S
C229 C228 1.363 . S
C229 C235 1.363 . S
C230 C231 1.363 . S
C230 C235 1.379 . S
C230 N237 1.356 . S
C231 C230 1.363 . S
C231 C234 1.363 . S
N232 C234 1.356 . S
N232 H244 0.984 . S
N232 H245 0.985 . S
N233 C235 1.356 . S
N233 H238 0.984 . S
N233 H239 0.985 . S
C234 C228 1.379 . S
C234 C231 1.363 . S
C234 N232 1.356 . S
C235 C229 1.363 . S
C235 C230 1.379 . S
C235 N233 1.356 . S
N236 C228 1.356 . S
N236 H242 0.984 . S
N236 H243 0.984 . S
N237 C230 1.356 . S
N237 H240 0.984 . S
N237 H241 0.985 . S
H238 N233 0.984 . S
H239 N233 0.985 . S
H240 N237 0.984 . S
H241 N237 0.985 . S
H242 N236 0.984 . S
H243 N236 0.984 . S
H244 N232 0.984 . S
H245 N232 0.985 . S
C246 C247 1.363 . S
C246 C252 1.379 . S
C246 N254 1.356 . S
C247 C246 1.363 . S
C247 C253 1.363 1_554 S
C248 C249 1.363 . S
C248 C253 1.379 . S
C248 N255 1.356 . S
C249 C248 1.363 . S
C249 C252 1.363 1_556 S
N250 C252 1.356 . S
N250 H262 0.984 . S
N250 H263 0.985 . S
N251 C253 1.356 . S
N251 H256 0.984 . S
N251 H257 0.985 . S
C252 C246 1.379 . S
C252 C249 1.363 1_554 S
C252 N250 1.356 . S
C253 C247 1.363 1_556 S
C253 C248 1.379 . S
C253 N251 1.356 . S
N254 C246 1.356 . S
N254 H260 0.984 . S
N254 H261 0.984 . S
N255 C248 1.356 . S
N255 H258 0.984 . S
N255 H259 0.985 . S
H256 N251 0.984 . S
H257 N251 0.985 . S
H258 N255 0.984 . S
H259 N255 0.985 . S
H260 N254 0.984 . S
H261 N254 0.984 . S
H262 N250 0.984 . S
H263 N250 0.985 . S
C264 C265 1.363 . S
C264 C270 1.379 . S
C264 N272 1.356 . S
C265 C264 1.363 . S
C265 C271 1.363 . S
C266 C267 1.363 . S
C266 C271 1.379 . S
C266 N273 1.356 . S
C267 C266 1.363 . S
C267 C270 1.363 . S
N268 C270 1.356 . S
N268 H280 0.984 . S
N268 H281 0.985 . S
N269 C271 1.356 . S
N269 H274 0.984 . S
N269 H275 0.985 . S
C270 C264 1.379 . S
C270 C267 1.363 . S
C270 N268 1.356 . S
C271 C265 1.363 . S
C271 C266 1.379 . S
C271 N269 1.356 . S
N272 C264 1.356 . S
N272 H278 0.984 . S
N272 H279 0.984 . S
N273 C266 1.356 . S
N273 H276 0.984 . S
N273 H277 0.985 . S
H274 N269 0.984 . S
H275 N269 0.985 . S
H276 N273 0.984 . S
H277 N273 0.985 . S
H278 N272 0.984 . S
H279 N272 0.984 . S
H280 N268 0.984 . S
H281 N268 0.985 . S
C282 C283 1.363 . S
C282 C288 1.379 1_655 S
C282 N290 1.356 . S
C283 C282 1.363 . S
C283 C289 1.363 . S
C284 C285 1.363 . S
C284 C289 1.379 1_455 S
C284 N291 1.356 . S
C285 C284 1.363 . S
C285 C288 1.363 . S
N286 C288 1.356 . S
N286 H298 0.984 . S
N286 H299 0.985 . S
N287 C289 1.356 . S
N287 H292 0.984 . S
N287 H293 0.985 . S
C288 C282 1.379 1_455 S
C288 C285 1.363 . S
C288 N286 1.356 . S
C289 C283 1.363 . S
C289 C284 1.379 1_655 S
C289 N287 1.356 . S
N290 C282 1.356 . S
N290 H296 0.984 . S
N290 H297 0.984 . S
N291 C284 1.356 . S
N291 H294 0.984 . S
N291 H295 0.985 . S
H292 N287 0.984 . S
H293 N287 0.985 . S
H294 N291 0.984 . S
H295 N291 0.985 . S
H296 N290 0.984 . S
H297 N290 0.984 . S
H298 N286 0.984 . S
H299 N286 0.985 . S
C300 C301 1.363 . S
C300 C306 1.379 1_545 S
C300 N308 1.356 . S
C301 C300 1.363 . S
C301 C307 1.363 1_554 S
C302 C303 1.363 . S
C302 C307 1.379 1_565 S
C302 N309 1.356 . S
C303 C302 1.363 . S
C303 C306 1.363 1_556 S
N304 C306 1.356 . S
N304 H316 0.984 . S
N304 H317 0.985 . S
N305 C307 1.356 . S
N305 H310 0.984 . S
N305 H311 0.985 . S
C306 C300 1.379 1_565 S
C306 C303 1.363 1_554 S
C306 N304 1.356 . S
C307 C301 1.363 1_556 S
C307 C302 1.379 1_545 S
C307 N305 1.356 . S
N308 C300 1.356 . S
N308 H314 0.984 . S
N308 H315 0.984 . S
N309 C302 1.356 . S
N309 H312 0.984 . S
N309 H313 0.985 . S
H310 N305 0.984 . S
H311 N305 0.985 . S
H312 N309 0.984 . S
H313 N309 0.985 . S
H314 N308 0.984 . S
H315 N308 0.984 . S
H316 N304 0.984 . S
H317 N304 0.985 . S
C318 C319 1.363 . S
C318 C324 1.379 . S
C318 N326 1.356 . S
C319 C318 1.363 . S
C319 C325 1.363 . S
C320 C321 1.363 . S
C320 C325 1.379 . S
C320 N327 1.356 . S
C321 C320 1.363 . S
C321 C324 1.363 . S
N322 C324 1.356 . S
N322 H334 0.984 . S
N322 H335 0.985 . S
N323 C325 1.356 . S
N323 H328 0.984 . S
N323 H329 0.985 . S
C324 C318 1.379 . S
C324 C321 1.363 . S
C324 N322 1.356 . S
C325 C319 1.363 . S
C325 C320 1.379 . S
C325 N323 1.356 . S
N326 C318 1.356 . S
N326 H332 0.984 . S
N326 H333 0.984 . S
N327 C320 1.356 . S
N327 H330 0.984 . S
N327 H331 0.985 . S
H328 N323 0.984 . S
H329 N323 0.985 . S
H330 N327 0.984 . S
H331 N327 0.985 . S
H332 N326 0.984 . S
H333 N326 0.984 . S
H334 N322 0.984 . S
H335 N322 0.985 . S
C336 C337 1.363 . S
C336 C342 1.379 1_455 S
C336 N344 1.356 . S
C337 C336 1.363 . S
C337 C343 1.363 . S
C338 C339 1.363 . S
C338 C343 1.379 1_655 S
C338 N345 1.356 . S
C339 C338 1.363 . S
C339 C342 1.363 . S
N340 C342 1.356 . S
N340 H352 0.984 . S
N340 H353 0.985 . S
N341 C343 1.356 . S
N341 H346 0.984 . S
N341 H347 0.985 . S
C342 C336 1.379 1_655 S
C342 C339 1.363 . S
C342 N340 1.356 . S
C343 C337 1.363 . S
C343 C338 1.379 1_455 S
C343 N341 1.356 . S
N344 C336 1.356 . S
N344 H350 0.984 . S
N344 H351 0.984 . S
N345 C338 1.356 . S
N345 H348 0.984 . S
N345 H349 0.985 . S
H346 N341 0.984 . S
H347 N341 0.985 . S
H348 N345 0.984 . S
H349 N345 0.985 . S
H350 N344 0.984 . S
H351 N344 0.984 . S
H352 N340 0.984 . S
H353 N340 0.985 . S
C354 C355 1.363 1_554 S
C354 C360 1.379 1_545 S
C354 N362 1.356 . S
C355 C354 1.363 1_556 S
C355 C361 1.363 . S
C356 C357 1.363 1_556 S
C356 C361 1.379 1_565 S
C356 N363 1.356 . S
C357 C356 1.363 1_554 S
C357 C360 1.363 . S
N358 C360 1.356 . S
N358 H370 0.984 . S
N358 H371 0.985 . S
N359 C361 1.356 . S
N359 H364 0.984 . S
N359 H365 0.985 . S
C360 C354 1.379 1_565 S
C360 C357 1.363 . S
C360 N358 1.356 . S
C361 C355 1.363 . S
C361 C356 1.379 1_545 S
C361 N359 1.356 . S
N362 C354 1.356 . S
N362 H368 0.984 . S
N362 H369 0.984 . S
N363 C356 1.356 . S
N363 H366 0.984 . S
N363 H367 0.985 . S
H364 N359 0.984 . S
H365 N359 0.985 . S
H366 N363 0.984 . S
H367 N363 0.985 . S
H368 N362 0.984 . S
H369 N362 0.984 . S
H370 N358 0.984 . S
H371 N358 0.985 . S
C372 C373 1.363 . S
C372 C378 1.379 . S
C372 N380 1.356 . S
C373 C372 1.363 . S
C373 C379 1.363 1_655 S
C374 C375 1.363 . S
C374 C379 1.379 . S
C374 N381 1.356 . S
C375 C374 1.363 . S
C375 C378 1.363 1_455 S
N376 C378 1.356 . S
N376 H388 0.984 . S
N376 H389 0.985 . S
N377 C379 1.356 . S
N377 H382 0.984 . S
N377 H383 0.985 . S
C378 C372 1.379 . S
C378 C375 1.363 1_655 S
C378 N376 1.356 . S
C379 C373 1.363 1_455 S
C379 C374 1.379 . S
C379 N377 1.356 . S
N380 C372 1.356 . S
N380 H386 0.984 . S
N380 H387 0.984 . S
N381 C374 1.356 . S
N381 H384 0.984 . S
N381 H385 0.985 . S
H382 N377 0.984 . S
H383 N377 0.985 . S
H384 N381 0.984 . S
H385 N381 0.985 . S
H386 N380 0.984 . S
H387 N380 0.984 . S
H388 N376 0.984 . S
H389 N376 0.985 . S
C390 C391 1.363 . S
C390 C396 1.379 . S
C390 N398 1.356 . S
C391 C390 1.363 . S
C391 C397 1.363 1_545 S
C392 C393 1.363 . S
C392 C397 1.379 . S
C392 N399 1.356 . S
C393 C392 1.363 . S
C393 C396 1.363 1_565 S
N394 C396 1.356 . S
N394 H406 0.984 . S
N394 H407 0.985 . S
N395 C397 1.356 . S
N395 H400 0.984 . S
N395 H401 0.985 . S
C396 C390 1.379 . S
C396 C393 1.363 1_545 S
C396 N394 1.356 . S
C397 C391 1.363 1_565 S
C397 C392 1.379 . S
C397 N395 1.356 . S
N398 C390 1.356 . S
N398 H404 0.984 . S
N398 H405 0.984 . S
N399 C392 1.356 . S
N399 H402 0.984 . S
N399 H403 0.985 . S
H400 N395 0.984 . S
H401 N395 0.985 . S
H402 N399 0.984 . S
H403 N399 0.985 . S
H404 N398 0.984 . S
H405 N398 0.984 . S
H406 N394 0.984 . S
H407 N394 0.985 . S
C408 C409 1.363 . S
C408 C414 1.379 . S
C408 N416 1.356 . S
C409 C408 1.363 . S
C409 C415 1.363 . S
C410 C411 1.363 . S
C410 C415 1.379 . S
C410 N417 1.356 . S
C411 C410 1.363 . S
C411 C414 1.363 . S
N412 C414 1.356 . S
N412 H424 0.984 . S
N412 H425 0.985 . S
N413 C415 1.356 . S
N413 H418 0.984 . S
N413 H419 0.985 . S
C414 C408 1.379 . S
C414 C411 1.363 . S
C414 N412 1.356 . S
C415 C409 1.363 . S
C415 C410 1.379 . S
C415 N413 1.356 . S
N416 C408 1.356 . S
N416 H422 0.984 . S
N416 H423 0.984 . S
N417 C410 1.356 . S
N417 H420 0.984 . S
N417 H421 0.985 . S
H418 N413 0.984 . S
H419 N413 0.985 . S
H420 N417 0.984 . S
H421 N417 0.985 . S
H422 N416 0.984 . S
H423 N416 0.984 . S
H424 N412 0.984 . S
H425 N412 0.985 . S
C426 C427 1.363 . S
C426 C432 1.379 . S
C426 N434 1.356 . S
C427 C426 1.363 . S
C427 C433 1.363 1_455 S
C428 C429 1.363 . S
C428 C433 1.379 . S
C428 N435 1.356 . S
C429 C428 1.363 . S
C429 C432 1.363 1_655 S
N430 C432 1.356 . S
N430 H442 0.984 . S
N430 H443 0.985 . S
N431 C433 1.356 . S
N431 H436 0.984 . S
N431 H437 0.985 . S
C432 C426 1.379 . S
C432 C429 1.363 1_455 S
C432 N430 1.356 . S
C433 C427 1.363 1_655 S
C433 C428 1.379 . S
C433 N431 1.356 . S
N434 C426 1.356 . S
N434 H440 0.984 . S
N434 H441 0.984 . S
N435 C428 1.356 . S
N435 H438 0.984 . S
N435 H439 0.985 . S
H436 N431 0.984 . S
H437 N431 0.985 . S
H438 N435 0.984 . S
H439 N435 0.985 . S
H440 N434 0.984 . S
H441 N434 0.984 . S
H442 N430 0.984 . S
H443 N430 0.985 . S
C444 C445 1.363 . S
C444 C450 1.379 . S
C444 N452 1.356 . S
C445 C444 1.363 . S
C445 C451 1.363 1_545 S
C446 C447 1.363 . S
C446 C451 1.379 . S
C446 N453 1.356 . S
C447 C446 1.363 . S
C447 C450 1.363 1_565 S
N448 C450 1.356 . S
N448 H460 0.984 . S
N448 H461 0.985 . S
N449 C451 1.356 . S
N449 H454 0.984 . S
N449 H455 0.985 . S
C450 C444 1.379 . S
C450 C447 1.363 1_545 S
C450 N448 1.356 . S
C451 C445 1.363 1_565 S
C451 C446 1.379 . S
C451 N449 1.356 . S
N452 C444 1.356 . S
N452 H458 0.984 . S
N452 H459 0.984 . S
N453 C446 1.356 . S
N453 H456 0.984 . S
N453 H457 0.985 . S
H454 N449 0.984 . S
H455 N449 0.985 . S
H456 N453 0.984 . S
H457 N453 0.985 . S
H458 N452 0.984 . S
H459 N452 0.984 . S
H460 N448 0.984 . S
H461 N448 0.985 . S
C462 C463 1.363 . S
C462 C468 1.379 . S
C462 N470 1.356 . S
C463 C462 1.363 . S
C463 C469 1.363 . S
C464 C465 1.363 . S
C464 C469 1.379 . S
C464 N471 1.356 . S
C465 C464 1.363 . S
C465 C468 1.363 . S
N466 C468 1.356 . S
N466 H478 0.984 . S
N466 H479 0.985 . S
N467 C469 1.356 . S
N467 H472 0.984 . S
N467 H473 0.985 . S
C468 C462 1.379 . S
C468 C465 1.363 . S
C468 N466 1.356 . S
C469 C463 1.363 . S
C469 C464 1.379 . S
C469 N467 1.356 . S
N470 C462 1.356 . S
N470 H476 0.984 . S
N470 H477 0.984 . S
N471 C464 1.356 . S
N471 H474 0.984 . S
N471 H475 0.985 . S
H472 N467 0.984 . S
H473 N467 0.985 . S
H474 N471 0.984 . S
H475 N471 0.985 . S
H476 N470 0.984 . S
H477 N470 0.984 . S
H478 N466 0.984 . S
H479 N466 0.985 . S
C480 C481 1.363 . S
C480 C486 1.379 . S
C480 N488 1.356 . S
C481 C480 1.363 . S
C481 C487 1.363 . S
C482 C483 1.363 . S
C482 C487 1.379 . S
C482 N489 1.356 . S
C483 C482 1.363 . S
C483 C486 1.363 . S
N484 C486 1.356 . S
N484 H496 0.984 . S
N484 H497 0.985 . S
N485 C487 1.356 . S
N485 H490 0.984 . S
N485 H491 0.985 . S
C486 C480 1.379 . S
C486 C483 1.363 . S
C486 N484 1.356 . S
C487 C481 1.363 . S
C487 C482 1.379 . S
C487 N485 1.356 . S
N488 C480 1.356 . S
N488 H494 0.984 . S
N488 H495 0.984 . S
N489 C482 1.356 . S
N489 H492 0.984 . S
N489 H493 0.985 . S
H490 N485 0.984 . S
H491 N485 0.985 . S
H492 N489 0.984 . S
H493 N489 0.985 . S
H494 N488 0.984 . S
H495 N488 0.984 . S
H496 N484 0.984 . S
H497 N484 0.985 . S
C498 C499 1.363 . S
C498 C504 1.379 . S
C498 N506 1.356 . S
C499 C498 1.363 . S
C499 C505 1.363 . S
C500 C501 1.363 . S
C500 C505 1.379 . S
C500 N507 1.356 . S
C501 C500 1.363 . S
C501 C504 1.363 . S
N502 C504 1.356 . S
N502 H514 0.984 . S
N502 H515 0.985 . S
N503 C505 1.356 . S
N503 H508 0.984 . S
N503 H509 0.985 . S
C504 C498 1.379 . S
C504 C501 1.363 . S
C504 N502 1.356 . S
C505 C499 1.363 . S
C505 C500 1.379 . S
C505 N503 1.356 . S
N506 C498 1.356 . S
N506 H512 0.984 . S
N506 H513 0.984 . S
N507 C500 1.356 . S
N507 H510 0.984 . S
N507 H511 0.985 . S
H508 N503 0.984 . S
H509 N503 0.985 . S
H510 N507 0.984 . S
H511 N507 0.985 . S
H512 N506 0.984 . S
H513 N506 0.984 . S
H514 N502 0.984 . S
H515 N502 0.985 . S
C516 C517 1.363 . S
C516 C522 1.379 . S
C516 N524 1.356 . S
C517 C516 1.363 . S
C517 C523 1.363 . S
C518 C519 1.363 . S
C518 C523 1.379 . S
C518 N525 1.356 . S
C519 C518 1.363 . S
C519 C522 1.363 . S
N520 C522 1.356 . S
N520 H532 0.984 . S
N520 H533 0.985 . S
N521 C523 1.356 . S
N521 H526 0.984 . S
N521 H527 0.985 . S
C522 C516 1.379 . S
C522 C519 1.363 . S
C522 N520 1.356 . S
C523 C517 1.363 . S
C523 C518 1.379 . S
C523 N521 1.356 . S
N524 C516 1.356 . S
N524 H530 0.984 . S
N524 H531 0.984 . S
N525 C518 1.356 . S
N525 H528 0.984 . S
N525 H529 0.985 . S
H526 N521 0.984 . S
H527 N521 0.985 . S
H528 N525 0.984 . S
H529 N525 0.985 . S
H530 N524 0.984 . S
H531 N524 0.984 . S
H532 N520 0.984 . S
H533 N520 0.985 . S
C534 C535 1.363 . S
C534 C540 1.379 . S
C534 N542 1.356 . S
C535 C534 1.363 . S
C535 C541 1.363 . S
C536 C537 1.363 . S
C536 C541 1.379 . S
C536 N543 1.356 . S
C537 C536 1.363 . S
C537 C540 1.363 . S
N538 C540 1.356 . S
N538 H550 0.984 . S
N538 H551 0.985 . S
N539 C541 1.356 . S
N539 H544 0.984 . S
N539 H545 0.985 . S
C540 C534 1.379 . S
C540 C537 1.363 . S
C540 N538 1.356 . S
C541 C535 1.363 . S
C541 C536 1.379 . S
C541 N539 1.356 . S
N542 C534 1.356 . S
N542 H548 0.984 . S
N542 H549 0.984 . S
N543 C536 1.356 . S
N543 H546 0.984 . S
N543 H547 0.985 . S
H544 N539 0.984 . S
H545 N539 0.985 . S
H546 N543 0.984 . S
H547 N543 0.985 . S
H548 N542 0.984 . S
H549 N542 0.984 . S
H550 N538 0.984 . S
H551 N538 0.985 . S
C552 C553 1.363 . S
C552 C558 1.379 . S
C552 N560 1.356 . S
C553 C552 1.363 . S
C553 C559 1.363 . S
C554 C555 1.363 . S
C554 C559 1.379 . S
C554 N561 1.356 . S
C555 C554 1.363 . S
C555 C558 1.363 . S
N556 C558 1.356 . S
N556 H568 0.984 . S
N556 H569 0.985 . S
N557 C559 1.356 . S
N557 H562 0.984 . S
N557 H563 0.985 . S
C558 C552 1.379 . S
C558 C555 1.363 . S
C558 N556 1.356 . S
C559 C553 1.363 . S
C559 C554 1.379 . S
C559 N557 1.356 . S
N560 C552 1.356 . S
N560 H566 0.984 . S
N560 H567 0.984 . S
N561 C554 1.356 . S
N561 H564 0.984 . S
N561 H565 0.985 . S
H562 N557 0.984 . S
H563 N557 0.985 . S
H564 N561 0.984 . S
H565 N561 0.985 . S
H566 N560 0.984 . S
H567 N560 0.984 . S
H568 N556 0.984 . S
H569 N556 0.985 . S
C570 C571 1.363 . S
C570 C576 1.379 . S
C570 N578 1.356 . S
C571 C570 1.363 . S
C571 C577 1.363 . S
C572 C573 1.363 . S
C572 C577 1.379 . S
C572 N579 1.356 . S
C573 C572 1.363 . S
C573 C576 1.363 . S
N574 C576 1.356 . S
N574 H586 0.984 . S
N574 H587 0.985 . S
N575 C577 1.356 . S
N575 H580 0.984 . S
N575 H581 0.985 . S
C576 C570 1.379 . S
C576 C573 1.363 . S
C576 N574 1.356 . S
C577 C571 1.363 . S
C577 C572 1.379 . S
C577 N575 1.356 . S
N578 C570 1.356 . S
N578 H584 0.984 . S
N578 H585 0.984 . S
N579 C572 1.356 . S
N579 H582 0.984 . S
N579 H583 0.985 . S
H580 N575 0.984 . S
H581 N575 0.985 . S
H582 N579 0.984 . S
H583 N579 0.985 . S
H584 N578 0.984 . S
H585 N578 0.984 . S
H586 N574 0.984 . S
H587 N574 0.985 . S
C157 C10 1.405 . S
C159 C88 1.407 . S
C175 C23 1.408 . S
C177 C101 1.405 . S
C193 C36 1.397 . S
C195 C114 1.397 . S
C211 C127 1.407 . S
C213 C49 1.405 . S
C229 C62 1.407 . S
C231 C140 1.405 . S
C247 C153 1.397 . S
C249 C75 1.398 . S
C265 C8 0.986 . S
C267 C125 0.986 . S
C283 C21 0.986 . S
C285 C138 0.986 . S
C301 C151 0.981 . S
C303 C34 0.979 . S
C319 C86 0.986 . S
C321 C47 0.986 . S
C337 C60 0.986 . S
C339 C99 0.986 . S
C355 C73 0.981 . S
C357 C112 0.979 . S
C373 C143 1.713 . S
C375 C0 1.710 . S
C391 C13 1.737 . S
C393 C78 1.737 . S
C409 C26 1.713 . S
C411 C91 1.710 . S
C427 C104 1.713 . S
C429 C39 1.710 . S
C445 C117 1.737 . S
C447 C52 1.737 . S
C463 C65 1.713 . S
C465 C130 1.710 . S
C481 C5 0.989 . S
C483 C135 0.989 . S
C499 C148 1.007 . S
C501 C18 1.010 . S
C517 C83 1.007 . S
C519 C31 1.010 . S
C535 C44 0.989 . S
C537 C96 0.989 . S
C553 C109 1.007 . S
C555 C57 1.010 . S
C571 C122 1.007 . S
C573 C70 1.010 . S
