# Generated by pormake.
# Topology umu, (4)-cn, num edge types: 1
# Building blocks:
#     Node 0, Type 0, BuildingBlock: AZAVOO_clean_sbu_0, # of connection points: 4
#     Node 1, Type 0, BuildingBlock: AZAVOO_clean_sbu_0, # of connection points: 4
#     Node 2, Type 0, BuildingBlock: AZAVOO_clean_sbu_0, # of connection points: 4
#     Node 3, Type 0, BuildingBlock: AZAVOO_clean_sbu_0, # of connection points: 4
#     Node 4, Type 0, BuildingBlock: AZAVOO_clean_sbu_0, # of connection points: 4
#     Node 5, Type 0, BuildingBlock: AZAVOO_clean_sbu_0, # of connection points: 4
#     Node 6, Type 0, BuildingBlock: AZAVOO_clean_sbu_0, # of connection points: 4
#     Node 7, Type 0, BuildingBlock: AZAVOO_clean_sbu_0, # of connection points: 4
#     Node 8, Type 0, BuildingBlock: AZAVOO_clean_sbu_0, # of connection points: 4
#     Node 9, Type 0, BuildingBlock: AZAVOO_clean_sbu_0, # of connection points: 4
#     Node 10, Type 0, BuildingBlock: AZAVOO_clean_sbu_0, # of connection points: 4
#     Node 11, Type 0, BuildingBlock: AZAVOO_clean_sbu_0, # of connection points: 4
#     Node 12, Type 0, BuildingBlock: AZAVOO_clean_sbu_0, # of connection points: 4
#     Node 13, Type 0, BuildingBlock: AZAVOO_clean_sbu_0, # of connection points: 4
#     Node 14, Type 0, BuildingBlock: AZAVOO_clean_sbu_0, # of connection points: 4
#     Node 15, Type 0, BuildingBlock: AZAVOO_clean_sbu_0, # of connection points: 4
#     Node 16, Type 0, BuildingBlock: AZAVOO_clean_sbu_0, # of connection points: 4
#     Node 17, Type 0, BuildingBlock: AZAVOO_clean_sbu_0, # of connection points: 4
#     Node 18, Type 0, BuildingBlock: AZAVOO_clean_sbu_0, # of connection points: 4
#     Node 19, Type 0, BuildingBlock: AZAVOO_clean_sbu_0, # of connection points: 4
#     Node 20, Type 0, BuildingBlock: AZAVOO_clean_sbu_0, # of connection points: 4
#     Node 21, Type 0, BuildingBlock: AZAVOO_clean_sbu_0, # of connection points: 4
#     Node 22, Type 0, BuildingBlock: AZAVOO_clean_sbu_0, # of connection points: 4
#     Node 23, Type 0, BuildingBlock: AZAVOO_clean_sbu_0, # of connection points: 4
#     Node 24, Type 0, BuildingBlock: AZAVOO_clean_sbu_0, # of connection points: 4
#     Node 25, Type 0, BuildingBlock: AZAVOO_clean_sbu_0, # of connection points: 4
#     Node 26, Type 0, BuildingBlock: AZAVOO_clean_sbu_0, # of connection points: 4
#     Node 27, Type 0, BuildingBlock: AZAVOO_clean_sbu_0, # of connection points: 4
#     Node 28, Type 0, BuildingBlock: AZAVOO_clean_sbu_0, # of connection points: 4
#     Node 29, Type 0, BuildingBlock: AZAVOO_clean_sbu_0, # of connection points: 4
#     Node 30, Type 0, BuildingBlock: AZAVOO_clean_sbu_0, # of connection points: 4
#     Node 31, Type 0, BuildingBlock: AZAVOO_clean_sbu_0, # of connection points: 4
#     Edge 32, Type (0, 0), None
#     Edge 33, Type (0, 0), None
#     Edge 34, Type (0, 0), None
#     Edge 35, Type (0, 0), None
#     Edge 36, Type (0, 0), None
#     Edge 37, Type (0, 0), None
#     Edge 38, Type (0, 0), None
#     Edge 39, Type (0, 0), None
#     Edge 40, Type (0, 0), None
#     Edge 41, Type (0, 0), None
#     Edge 42, Type (0, 0), None
#     Edge 43, Type (0, 0), None
#     Edge 44, Type (0, 0), None
#     Edge 45, Type (0, 0), None
#     Edge 46, Type (0, 0), None
#     Edge 47, Type (0, 0), None
#     Edge 48, Type (0, 0), None
#     Edge 49, Type (0, 0), None
#     Edge 50, Type (0, 0), None
#     Edge 51, Type (0, 0), None
#     Edge 52, Type (0, 0), None
#     Edge 53, Type (0, 0), None
#     Edge 54, Type (0, 0), None
#     Edge 55, Type (0, 0), None
#     Edge 56, Type (0, 0), None
#     Edge 57, Type (0, 0), None
#     Edge 58, Type (0, 0), None
#     Edge 59, Type (0, 0), None
#     Edge 60, Type (0, 0), None
#     Edge 61, Type (0, 0), None
#     Edge 62, Type (0, 0), None
#     Edge 63, Type (0, 0), None
#     Edge 64, Type (0, 0), None
#     Edge 65, Type (0, 0), None
#     Edge 66, Type (0, 0), None
#     Edge 67, Type (0, 0), None
#     Edge 68, Type (0, 0), None
#     Edge 69, Type (0, 0), None
#     Edge 70, Type (0, 0), None
#     Edge 71, Type (0, 0), None
#     Edge 72, Type (0, 0), None
#     Edge 73, Type (0, 0), None
#     Edge 74, Type (0, 0), None
#     Edge 75, Type (0, 0), None
#     Edge 76, Type (0, 0), None
#     Edge 77, Type (0, 0), None
#     Edge 78, Type (0, 0), None
#     Edge 79, Type (0, 0), None
#     Edge 80, Type (0, 0), None
#     Edge 81, Type (0, 0), None
#     Edge 82, Type (0, 0), None
#     Edge 83, Type (0, 0), None
#     Edge 84, Type (0, 0), None
#     Edge 85, Type (0, 0), None
#     Edge 86, Type (0, 0), None
#     Edge 87, Type (0, 0), None
#     Edge 88, Type (0, 0), None
#     Edge 89, Type (0, 0), None
#     Edge 90, Type (0, 0), None
#     Edge 91, Type (0, 0), None
#     Edge 92, Type (0, 0), None
#     Edge 93, Type (0, 0), None
#     Edge 94, Type (0, 0), None
#     Edge 95, Type (0, 0), None
# Relax obj value: 0.121
# Max RMSD: 0.119
# Mean RMSD: 0.119
data_MOF--net-umu--node1-AZAVOO_clean_sbu_0--edge1-none
_symmetry_space_group_name_H-M    P1
_symmetry_Int_Tables_number       1
_symmetry_cell_setting            triclinic
loop_
_symmetry_equiv_pos_as_xyz
'x, y, z'
_cell_length_a     39.85418
_cell_length_b     39.854446
_cell_length_c     10.596096
_cell_angle_alpha  90.002496
_cell_angle_beta   90.001706
_cell_angle_gamma 89.999578
loop_
_atom_site_label
_atom_site_type_symbol
_atom_site_fract_x
_atom_site_fract_y
_atom_site_fract_z
_atom_type_partial_charge
Mg0 Mg 0.20974 0.17051 0.12125 0.0
O1 O 0.24424 0.17118 0.95139 0.0
O2 O 0.28488 0.2089 0.98077 0.0
Mg3 Mg 0.27656 0.23301 0.17348 0.0
C4 C 0.27037 0.18659 0.9143 0.0
C5 C 0.16094 0.1113 0.99278 0.0
O6 O 0.15624 0.08011 0.95716 0.0
O7 O 0.24774 0.14407 0.25097 0.0
O8 O 0.2863 0.1839 0.28178 0.0
O9 O 0.1812 0.21162 0.02734 0.0
O10 O 0.22192 0.22178 0.16255 0.0
C11 C 0.27478 0.15454 0.30269 0.0
C12 C 0.1996 0.23314 0.08598 0.0
O13 O 0.18834 0.11921 0.04841 0.0
Mg14 Mg 0.09103 0.95911 0.37117 0.0
O15 O 0.0904 0.99361 0.2013 0.0
O16 O 0.05273 0.0343 0.23066 0.0
Mg17 Mg 0.0286 0.02599 0.42335 0.0
C18 C 0.07502 0.01975 0.16421 0.0
C19 C 0.15023 0.91031 0.2425 0.0
O20 O 0.18143 0.90562 0.20701 0.0
O21 O 0.11751 0.99709 0.50087 0.0
O22 O 0.07772 0.03568 0.53168 0.0
O23 O 0.0499 0.93061 0.2773 0.0
O24 O 0.03977 0.97134 0.41247 0.0
C25 C 0.10706 0.02414 0.5526 0.0
C26 C 0.02839 0.94903 0.33593 0.0
O27 O 0.14233 0.93768 0.29835 0.0
Mg28 Mg 0.30244 0.84048 0.6206 0.0
O29 O 0.26793 0.83985 0.45078 0.0
O30 O 0.22725 0.80217 0.48014 0.0
Mg31 Mg 0.23558 0.77805 0.67284 0.0
C32 C 0.24179 0.82447 0.41369 0.0
C33 C 0.35128 0.89966 0.49219 0.0
O34 O 0.35599 0.93085 0.45656 0.0
O35 O 0.26448 0.86696 0.75035 0.0
O36 O 0.22589 0.82717 0.78116 0.0
O37 O 0.33094 0.79936 0.52664 0.0
O38 O 0.29023 0.78923 0.66189 0.0
C39 C 0.23744 0.85651 0.80208 0.0
C40 C 0.31254 0.77785 0.58529 0.0
O41 O 0.32387 0.89178 0.54778 0.0
Mg42 Mg 0.42106 0.05183 0.87067 0.0
O43 O 0.42172 0.01731 0.70086 0.0
O44 O 0.45945 0.97668 0.73023 0.0
Mg45 Mg 0.48356 0.98503 0.92294 0.0
C46 C 0.43714 0.99119 0.66377 0.0
C47 C 0.36188 0.10067 0.74248 0.0
O48 O 0.33071 0.10538 0.70671 0.0
O49 O 0.39462 0.01385 0.00044 0.0
O50 O 0.43445 0.9753 0.03124 0.0
O51 O 0.46216 0.08036 0.77666 0.0
O52 O 0.47233 0.03967 0.91196 0.0
C53 C 0.40509 0.98682 0.05216 0.0
C54 C 0.48369 0.06198 0.83533 0.0
O55 O 0.36976 0.07322 0.79784 0.0
Mg56 Mg 0.17521 0.83059 0.05473 0.0
O57 O 0.20673 0.83599 0.23842 0.0
O58 O 0.25665 0.81095 0.20826 0.0
Mg59 Mg 0.26252 0.80799 -0.00163 0.0
C60 C 0.23482 0.82482 0.27908 0.0
C61 C 0.12502 0.88439 0.21623 0.0
O62 O 0.09548 0.88669 0.26893 0.0
O63 O 0.19592 0.87604 0.94134 0.0
O64 O 0.24377 0.86171 0.01437 0.0
O65 O 0.16591 0.77859 0.11534 0.0
O66 O 0.20836 0.79139 0.98907 0.0
C67 C 0.22715 0.87237 0.92122 0.0
C68 C 0.1921 0.76908 0.05292 0.0
O69 O 0.13142 0.85818 0.15173 0.0
Mg70 Mg 0.43104 0.92459 0.30489 0.0
O71 O 0.42562 0.95613 0.48852 0.0
O72 O 0.45066 1.00605 0.45835 0.0
Mg73 Mg 0.45362 0.0119 0.24845 0.0
C74 C 0.43679 0.98422 0.52918 0.0
C75 C 0.37722 0.87444 0.46637 0.0
O76 O 0.37491 0.84494 0.51936 0.0
O77 O 0.38559 0.94528 0.1914 0.0
O78 O 0.3999 0.99314 0.26446 0.0
O79 O 0.48305 0.91532 0.36554 0.0
O80 O 0.47023 0.95774 0.2392 0.0
C81 C 0.38924 0.97651 0.1713 0.0
C82 C 0.49254 0.94151 0.30308 0.0
O83 O 0.40346 0.88082 0.40201 0.0
Mg84 Mg 0.337 0.18049 0.55555 0.0
O85 O 0.30543 0.17507 0.73909 0.0
O86 O 0.25552 0.20012 0.70886 0.0
Mg87 Mg 0.2497 0.20307 0.49895 0.0
C88 C 0.27734 0.18624 0.77971 0.0
C89 C 0.3871 0.12664 0.71712 0.0
O90 O 0.41656 0.12434 0.77045 0.0
O91 O 0.31632 0.13505 0.44196 0.0
O92 O 0.26846 0.14935 0.51499 0.0
O93 O 0.34626 0.2325 0.61626 0.0
O94 O 0.30386 0.21968 0.48979 0.0
C95 C 0.28509 0.1387 0.42184 0.0
C96 C 0.32008 0.242 0.55374 0.0
O97 O 0.38075 0.15291 0.65287 0.0
Mg98 Mg 0.08115 0.08636 0.80539 0.0
O99 O 0.08656 0.05481 0.98898 0.0
O100 O 0.0615 1.0049 0.95877 0.0
Mg101 Mg 0.05854 0.99906 0.74886 0.0
C102 C 0.07538 0.02672 0.02961 0.0
C103 C 0.13499 0.13651 0.96692 0.0
O104 O 0.13728 0.16602 0.0199 0.0
O105 O 0.12659 0.06566 0.69188 0.0
O106 O 0.11227 0.01781 0.76488 0.0
O107 O 0.02914 0.09564 0.86607 0.0
O108 O 0.04194 0.05322 0.73968 0.0
C109 C 0.12292 0.03443 0.67174 0.0
C110 C 0.01964 0.06946 0.80361 0.0
O111 O 0.10874 0.13012 0.90255 0.0
Mg112 Mg 0.80241 0.84044 0.00729 0.0
O113 O 0.76793 0.83983 0.1772 0.0
O114 O 0.72722 0.80217 0.14787 0.0
Mg115 Mg 0.7355 0.77804 0.95517 0.0
C116 C 0.74178 0.82446 0.21432 0.0
C117 C 0.85125 0.89963 0.13594 0.0
O118 O 0.85595 0.93084 0.17137 0.0
O119 O 0.76444 0.86693 0.87764 0.0
O120 O 0.72582 0.82716 0.84686 0.0
O121 O 0.83091 0.7993 0.10113 0.0
O122 O 0.79016 0.78919 0.96601 0.0
C123 C 0.73738 0.85649 0.82593 0.0
C124 C 0.81248 0.7778 0.04255 0.0
O125 O 0.82388 0.89173 0.08008 0.0
Mg126 Mg 0.9211 0.05186 0.75787 0.0
O127 O 0.92173 0.01734 0.92767 0.0
O128 O 0.95941 0.97666 0.89828 0.0
Mg129 Mg 0.98353 0.98499 0.70559 0.0
C130 C 0.93711 0.99119 0.96474 0.0
C131 C 0.86193 0.1007 0.88638 0.0
O132 O 0.83074 0.10541 0.922 0.0
O133 O 0.89462 0.01391 0.62811 0.0
O134 O 0.93441 0.97531 0.59727 0.0
O135 O 0.96223 0.08035 0.85184 0.0
O136 O 0.97235 0.03964 0.71656 0.0
C137 C 0.90507 0.98686 0.57636 0.0
C138 C 0.98373 0.06195 0.79315 0.0
O139 O 0.86981 0.07329 0.83073 0.0
Mg140 Mg 0.70976 0.1705 0.50802 0.0
O141 O 0.74428 0.17116 0.67782 0.0
O142 O 0.78491 0.20889 0.64844 0.0
Mg143 Mg 0.77656 0.23299 0.45574 0.0
C144 C 0.77041 0.18657 0.7149 0.0
C145 C 0.66092 0.11132 0.63618 0.0
O146 O 0.6562 0.08014 0.67195 0.0
O147 O 0.74774 0.14406 0.37823 0.0
O148 O 0.78629 0.18388 0.34743 0.0
O149 O 0.68123 0.2116 0.60205 0.0
O150 O 0.72193 0.22176 0.46674 0.0
C151 C 0.77477 0.15453 0.3265 0.0
C152 C 0.69962 0.23312 0.54338 0.0
O153 O 0.68837 0.1192 0.58084 0.0
Mg154 Mg 0.59107 0.95918 0.25734 0.0
O155 O 0.59041 0.99369 0.4272 0.0
O156 O 0.55268 0.03432 0.39783 0.0
Mg157 Mg 0.52857 0.02599 0.20512 0.0
C158 C 0.57499 0.01981 0.46429 0.0
C159 C 0.65026 0.91037 0.38576 0.0
O160 O 0.68145 0.90567 0.42144 0.0
O161 O 0.61751 0.99718 0.12762 0.0
O162 O 0.57768 0.03573 0.09682 0.0
O163 O 0.54996 0.93065 0.35127 0.0
O164 O 0.5398 0.97136 0.21603 0.0
C165 C 0.60704 0.02421 0.0759 0.0
C166 C 0.52844 0.94904 0.29261 0.0
O167 O 0.64237 0.93778 0.33019 0.0
Mg168 Mg 0.83701 0.18046 0.07378 0.0
O169 O 0.80547 0.17505 0.89015 0.0
O170 O 0.75556 0.2001 0.92033 0.0
Mg171 Mg 0.7497 0.20306 0.13023 0.0
C172 C 0.77738 0.18623 0.8495 0.0
C173 C 0.88715 0.12663 0.91227 0.0
O174 O 0.91666 0.12432 0.8593 0.0
O175 O 0.8163 0.13502 0.18725 0.0
O176 O 0.76846 0.14934 0.1142 0.0
O177 O 0.84629 0.23247 0.01316 0.0
O178 O 0.80386 0.21966 0.13949 0.0
C179 C 0.78507 0.13868 0.20735 0.0
C180 C 0.8201 0.24197 0.07562 0.0
O181 O 0.88077 0.15287 0.97665 0.0
Mg182 Mg 0.58109 0.08644 0.82307 0.0
O183 O 0.58651 0.05487 0.63952 0.0
O184 O 0.56146 1.00496 0.66972 0.0
Mg185 Mg 0.55851 0.99913 0.87963 0.0
C186 C 0.57534 0.02678 0.59889 0.0
C187 C 0.63495 0.13653 0.66153 0.0
O188 O 0.63726 0.166 0.60821 0.0
O189 O 0.62653 0.06575 0.93664 0.0
O190 O 0.61223 0.0179 0.8636 0.0
O191 O 0.52908 0.0957 0.76237 0.0
O192 O 0.5419 0.05329 0.88882 0.0
C193 C 0.62288 0.03452 0.95675 0.0
C194 C 0.51959 0.06952 0.8249 0.0
O195 O 0.60867 0.13018 0.72576 0.0
Mg196 Mg 0.67517 0.83058 0.57312 0.0
O197 O 0.70673 0.83599 0.38955 0.0
O198 O 0.75664 0.81094 0.41976 0.0
Mg199 Mg 0.76247 0.80798 0.62967 0.0
C200 C 0.73482 0.82482 0.34892 0.0
C201 C 0.62505 0.88442 0.41151 0.0
O202 O 0.59556 0.88671 0.35839 0.0
O203 O 0.69586 0.87602 0.68665 0.0
O204 O 0.74372 0.86171 0.61366 0.0
O205 O 0.66589 0.77858 0.51241 0.0
O206 O 0.70831 0.79138 0.63885 0.0
C207 C 0.72709 0.87236 0.7068 0.0
C208 C 0.69207 0.76907 0.5749 0.0
O209 O 0.63142 0.85817 0.47587 0.0
Mg210 Mg 0.93097 0.92462 0.3237 0.0
O211 O 0.92558 0.95614 0.14 0.0
O212 O 0.95062 1.00605 0.17017 0.0
Mg213 Mg 0.95359 0.01193 0.38005 0.0
C214 C 0.93675 0.98422 0.09934 0.0
C215 C 0.87715 0.87442 0.16231 0.0
O216 O 0.87484 0.84486 0.10973 0.0
O217 O 0.88553 0.94535 0.43709 0.0
O218 O 0.89986 0.99319 0.36407 0.0
O219 O 0.98298 0.91531 0.26309 0.0
O220 O 0.97018 0.95777 0.38934 0.0
C221 C 0.8892 0.97657 0.45722 0.0
C222 C 0.99249 0.94151 0.32549 0.0
O223 O 0.90337 0.88083 0.22678 0.0
Mg224 Mg 0.70965 0.67053 0.6207 0.0
O225 O 0.74417 0.67114 0.4509 0.0
O226 O 0.78486 0.70881 0.48026 0.0
Mg227 Mg 0.77654 0.73293 0.67295 0.0
C228 C 0.77031 0.68651 0.41381 0.0
C229 C 0.66079 0.61137 0.49227 0.0
O230 O 0.65607 0.58018 0.45663 0.0
O231 O 0.74759 0.64404 0.75046 0.0
O232 O 0.7862 0.68381 0.78127 0.0
O233 O 0.68116 0.71166 0.52671 0.0
O234 O 0.72188 0.72178 0.66199 0.0
C235 C 0.77464 0.65447 0.80219 0.0
C236 C 0.69958 0.73316 0.58539 0.0
O237 O 0.68821 0.61925 0.54788 0.0
Mg238 Mg 0.59108 0.45921 0.87067 0.0
O239 O 0.59041 0.49373 0.70087 0.0
O240 O 0.55267 0.53435 0.73025 0.0
Mg241 Mg 0.52856 0.52599 0.92295 0.0
C242 C 0.57499 0.51985 0.66379 0.0
C243 C 0.65028 0.41038 0.74253 0.0
O244 O 0.68145 0.40567 0.70676 0.0
O245 O 0.61751 0.4972 0.00045 0.0
O246 O 0.57767 0.53574 0.03127 0.0
O247 O 0.54999 0.43066 0.77664 0.0
O248 O 0.53981 0.47136 0.91195 0.0
C249 C 0.60702 0.52423 0.05219 0.0
C250 C 0.52846 0.44904 0.83533 0.0
O251 O 0.64239 0.43783 0.79784 0.0
Mg252 Mg 0.80244 0.3405 0.1214 0.0
O253 O 0.76793 0.33983 0.95153 0.0
O254 O 0.72729 0.30211 0.9809 0.0
Mg255 Mg 0.73562 0.278 0.1736 0.0
C256 C 0.74181 0.32442 0.91444 0.0
C257 C 0.85124 0.3997 0.99295 0.0
O258 O 0.85593 0.43089 0.95733 0.0
O259 O 0.76444 0.36694 0.25112 0.0
O260 O 0.72588 0.32711 0.28191 0.0
O261 O 0.83098 0.29939 0.02747 0.0
O262 O 0.79026 0.28923 0.16269 0.0
C263 C 0.7374 0.35647 0.30284 0.0
C264 C 0.81258 0.27787 0.08612 0.0
O265 O 0.82384 0.3918 0.04857 0.0
Mg266 Mg 0.92112 0.55189 0.37136 0.0
O267 O 0.92176 0.5174 0.20147 0.0
O268 O 0.95944 0.47672 0.23083 0.0
Mg269 Mg 0.98356 0.48502 0.42354 0.0
C270 C 0.93714 0.49126 0.16438 0.0
C271 C 0.8619 0.60068 0.24264 0.0
O272 O 0.83069 0.60535 0.20723 0.0
O273 O 0.89465 0.51391 0.50104 0.0
O274 O 0.93444 0.47532 0.53185 0.0
O275 O 0.96225 0.5804 0.27753 0.0
O276 O 0.97238 0.53967 0.41267 0.0
C277 C 0.9051 0.48686 0.55276 0.0
C278 C 0.98376 0.56199 0.33612 0.0
O279 O 0.86982 0.57332 0.29856 0.0
Mg280 Mg 0.67517 0.33053 0.55569 0.0
O281 O 0.70674 0.33595 0.73923 0.0
O282 O 0.75665 0.31089 0.709 0.0
Mg283 Mg 0.76247 0.30793 0.49909 0.0
C284 C 0.73483 0.32477 0.77985 0.0
C285 C 0.62507 0.38439 0.71723 0.0
O286 O 0.59561 0.3867 0.77057 0.0
O287 O 0.69586 0.37596 0.4421 0.0
O288 O 0.74372 0.36165 0.51514 0.0
O289 O 0.6659 0.27852 0.61637 0.0
O290 O 0.70831 0.29133 0.48991 0.0
C291 C 0.72709 0.37231 0.422 0.0
C292 C 0.69208 0.26902 0.55384 0.0
O293 O 0.63143 0.35811 0.65302 0.0
Mg294 Mg 0.93102 0.42464 0.80555 0.0
O295 O 0.92561 0.4562 0.98914 0.0
O296 O 0.95066 0.5061 0.95894 0.0
Mg297 Mg 0.95363 0.51194 0.74904 0.0
C298 C 0.93679 0.48428 0.02978 0.0
C299 C 0.87719 0.3745 0.96709 0.0
O300 O 0.8749 0.34499 0.02009 0.0
O301 O 0.88558 0.44534 0.69203 0.0
O302 O 0.8999 0.49319 0.76505 0.0
O303 O 0.98303 0.41536 0.86623 0.0
O304 O 0.97022 0.45778 0.73983 0.0
C305 C 0.88924 0.47657 0.6719 0.0
C306 C 0.99253 0.44155 0.80375 0.0
O307 O 0.90343 0.38089 0.90272 0.0
Mg308 Mg 0.83687 0.68038 0.0548 0.0
O309 O 0.80536 0.67499 0.23852 0.0
O310 O 0.75544 0.70002 0.20839 0.0
Mg311 Mg 0.74955 0.70299 -0.00149 0.0
C312 C 0.77728 0.68615 0.2792 0.0
C313 C 0.8871 0.62659 0.21619 0.0
O314 O 0.91666 0.62429 0.26873 0.0
O315 O 0.81615 0.63493 0.94145 0.0
O316 O 0.7683 0.64926 0.01447 0.0
O317 O 0.84618 0.73239 0.11541 0.0
O318 O 0.80371 0.71958 0.98919 0.0
C319 C 0.78492 0.6386 0.92132 0.0
C320 C 0.81998 0.74189 0.05301 0.0
O321 O 0.88067 0.6528 0.1517 0.0
Mg322 Mg 0.58106 0.58645 0.30492 0.0
O323 O 0.58648 0.55491 0.48855 0.0
O324 O 0.56147 0.50499 0.45836 0.0
Mg325 Mg 0.55851 0.49913 0.24846 0.0
C326 C 0.57533 0.52682 0.52919 0.0
C327 C 0.63487 0.6366 0.46643 0.0
O328 O 0.63718 0.6661 0.51944 0.0
O329 O 0.62651 0.56577 0.19144 0.0
O330 O 0.61222 0.51791 0.26448 0.0
O331 O 0.52905 0.59571 0.36557 0.0
O332 O 0.54188 0.55328 0.23922 0.0
C333 C 0.62287 0.53454 0.17134 0.0
C334 C 0.51956 0.56952 0.30312 0.0
O335 O 0.60862 0.63023 0.40204 0.0
Mg336 Mg 0.3024 0.34052 0.50794 0.0
O337 O 0.26788 0.33986 0.67775 0.0
O338 O 0.22725 0.30213 0.64836 0.0
Mg339 Mg 0.2356 0.27802 0.45564 0.0
C340 C 0.24176 0.32444 0.71482 0.0
C341 C 0.35124 0.39969 0.63613 0.0
O342 O 0.35596 0.43086 0.67194 0.0
O343 O 0.26442 0.36696 0.37817 0.0
O344 O 0.22587 0.32714 0.34735 0.0
O345 O 0.33093 0.29942 0.60196 0.0
O346 O 0.29024 0.28925 0.46664 0.0
C347 C 0.23739 0.35649 0.32643 0.0
C348 C 0.31255 0.2779 0.54326 0.0
O349 O 0.32379 0.39181 0.5808 0.0
Mg350 Mg 0.42104 0.55181 0.25735 0.0
O351 O 0.42172 0.51731 0.42721 0.0
O352 O 0.45946 0.47669 0.39783 0.0
Mg353 Mg 0.48356 0.48502 0.20512 0.0
C354 C 0.43714 0.49119 0.46429 0.0
C355 C 0.36185 0.60063 0.38572 0.0
O356 O 0.33066 0.60533 0.42143 0.0
O357 O 0.39461 0.51381 0.12762 0.0
O358 O 0.43445 0.47527 0.09682 0.0
O359 O 0.46214 0.58036 0.35131 0.0
O360 O 0.47231 0.53965 0.21605 0.0
C361 C 0.4051 0.48677 0.07589 0.0
C362 C 0.48366 0.56197 0.29263 0.0
O363 O 0.36974 0.5732 0.33021 0.0
Mg364 Mg 0.2097 0.67054 0.00722 0.0
O365 O 0.24419 0.67118 0.17711 0.0
O366 O 0.28487 0.70886 0.14776 0.0
Mg367 Mg 0.27657 0.73298 0.95505 0.0
C368 C 0.27033 0.68657 0.21422 0.0
C369 C 0.16089 0.61135 0.13596 0.0
O370 O 0.1562 0.58015 0.17144 0.0
O371 O 0.24768 0.64406 0.87754 0.0
O372 O 0.28627 0.68386 0.84674 0.0
O373 O 0.18119 0.71167 0.10106 0.0
O374 O 0.22193 0.7218 0.9659 0.0
C375 C 0.27473 0.65451 0.82582 0.0
C376 C 0.19961 0.73318 0.04244 0.0
O377 O 0.18826 0.61925 0.08006 0.0
Mg378 Mg 0.09107 0.45915 0.75798 0.0
O379 O 0.09044 0.49367 0.9278 0.0
O380 O 0.05274 0.53433 0.89842 0.0
Mg381 Mg 0.02863 0.52601 0.70571 0.0
C382 C 0.07504 0.5198 0.96488 0.0
C383 C 0.15024 0.41031 0.8864 0.0
O384 O 0.18143 0.4056 0.92206 0.0
O385 O 0.11754 0.4971 0.62823 0.0
O386 O 0.07775 0.53569 0.59741 0.0
O387 O 0.04995 0.43065 0.85195 0.0
O388 O 0.03981 0.47136 0.71667 0.0
C389 C 0.10709 0.52415 0.57649 0.0
C390 C 0.02844 0.44905 0.79328 0.0
O391 O 0.14236 0.43773 0.83082 0.0
Mg392 Mg 0.33695 0.68043 0.573 0.0
O393 O 0.30538 0.67503 0.38944 0.0
O394 O 0.25548 0.70009 0.41966 0.0
Mg395 Mg 0.24965 0.70305 0.62957 0.0
C396 C 0.2773 0.68621 0.34881 0.0
C397 C 0.38705 0.62659 0.41136 0.0
O398 O 0.41654 0.6243 0.35816 0.0
O399 O 0.31625 0.635 0.68653 0.0
O400 O 0.2684 0.64932 0.61353 0.0
O401 O 0.34623 0.73244 0.51233 0.0
O402 O 0.30382 0.71964 0.63877 0.0
C403 C 0.28502 0.63866 0.70666 0.0
C404 C 0.32006 0.74194 0.57485 0.0
O405 O 0.38069 0.65284 0.4757 0.0
Mg406 Mg 0.08118 0.58638 0.32384 0.0
O407 O 0.08657 0.55486 0.14016 0.0
O408 O 0.06152 0.50494 0.1703 0.0
Mg409 Mg 0.05856 0.49907 0.38019 0.0
C410 C 0.0754 0.52677 0.09948 0.0
C411 C 0.13498 0.63656 0.1623 0.0
O412 O 0.13728 0.66611 0.10962 0.0
O413 O 0.12663 0.56566 0.43723 0.0
O414 O 0.11229 0.51781 0.3642 0.0
O415 O 0.02917 0.59569 0.26324 0.0
O416 O 0.04198 0.55324 0.3895 0.0
C417 C 0.12295 0.53444 0.45735 0.0
C418 C 0.01967 0.56949 0.32568 0.0
O419 O 0.10877 0.63016 0.22683 0.0
Mg420 Mg 0.17516 0.33055 0.07369 0.0
O421 O 0.2067 0.33595 0.89007 0.0
O422 O 0.25661 0.31091 0.92025 0.0
Mg423 Mg 0.26247 0.30796 0.13015 0.0
C424 C 0.23479 0.32479 0.84942 0.0
C425 C 0.12502 0.38437 0.91217 0.0
O426 O 0.09552 0.38668 0.85913 0.0
O427 O 0.19585 0.37599 0.18717 0.0
O428 O 0.24371 0.36168 0.11413 0.0
O429 O 0.16588 0.27853 0.01304 0.0
O430 O 0.20831 0.29136 0.1394 0.0
C431 C 0.22708 0.37234 0.20728 0.0
C432 C 0.19207 0.26904 0.07552 0.0
O433 O 0.13139 0.35812 0.97653 0.0
Mg434 Mg 0.43106 0.42456 0.82303 0.0
O435 O 0.42564 0.45613 0.6395 0.0
O436 O 0.45067 0.50604 0.66973 0.0
Mg437 Mg 0.45363 0.51187 0.87965 0.0
C438 C 0.4368 0.48422 0.59889 0.0
C439 C 0.37722 0.37447 0.66143 0.0
O440 O 0.37491 0.34502 0.60803 0.0
O441 O 0.38562 0.44523 0.93661 0.0
O442 O 0.39991 0.49309 0.86359 0.0
O443 O 0.48308 0.41531 0.76234 0.0
O444 O 0.47025 0.45771 0.88881 0.0
C445 C 0.38926 0.47646 0.95673 0.0
C446 C 0.49256 0.44149 0.82487 0.0
O447 O 0.40349 0.38081 0.72567 0.0
loop_
_geom_bond_atom_site_label_1
_geom_bond_atom_site_label_2
_geom_bond_distance
_geom_bond_site_symmetry_2
_ccdc_geom_bond_type
Mg0 O1 2.028 1_554 S
Mg0 O7 1.986 . S
Mg0 O9 2.114 1_554 S
Mg0 O10 2.251 . S
Mg0 O13 2.010 . S
O1 Mg0 2.028 1_556 S
O1 C4 1.250 . S
O2 Mg3 2.028 1_556 S
O2 C4 1.248 . S
Mg3 O2 2.028 1_554 S
Mg3 O8 2.032 . S
Mg3 O10 2.079 . S
C4 O1 1.250 . S
C4 O2 1.248 . S
C5 O6 1.264 . S
C5 O13 1.249 . S
O6 C5 1.264 . S
O7 Mg0 1.986 . S
O7 C11 1.246 . S
O8 Mg3 2.032 . S
O8 C11 1.259 . S
O9 Mg0 2.114 1_556 S
O9 C12 1.252 1_556 S
O10 Mg0 2.251 . S
O10 Mg3 2.079 . S
O10 C12 1.273 . S
C11 O7 1.246 . S
C11 O8 1.259 . S
C12 O9 1.252 1_554 S
C12 O10 1.273 . S
O13 Mg0 2.010 . S
O13 C5 1.249 . S
Mg14 O15 2.028 . S
Mg14 O21 1.986 . S
Mg14 O23 2.114 . S
Mg14 O24 2.251 . S
Mg14 O27 2.010 . S
O15 Mg14 2.028 . S
O15 C18 1.250 . S
O16 Mg17 2.028 . S
O16 C18 1.248 1_545 S
Mg17 O16 2.028 . S
Mg17 O22 2.032 . S
Mg17 O24 2.079 1_545 S
C18 O15 1.250 . S
C18 O16 1.248 1_565 S
C19 O20 1.264 . S
C19 O27 1.249 . S
O20 C19 1.264 . S
O21 Mg14 1.986 . S
O21 C25 1.246 . S
O22 Mg17 2.032 . S
O22 C25 1.259 1_545 S
O23 Mg14 2.114 . S
O23 C26 1.252 . S
O24 Mg14 2.251 . S
O24 Mg17 2.079 1_565 S
O24 C26 1.273 . S
C25 O21 1.246 . S
C25 O22 1.259 1_565 S
C26 O23 1.252 . S
C26 O24 1.273 . S
O27 Mg14 2.010 . S
O27 C19 1.249 . S
Mg28 O29 2.028 . S
Mg28 O35 1.986 . S
Mg28 O37 2.114 . S
Mg28 O38 2.251 . S
Mg28 O41 2.010 . S
O29 Mg28 2.028 . S
O29 C32 1.250 . S
O30 Mg31 2.028 . S
O30 C32 1.248 . S
Mg31 O30 2.028 . S
Mg31 O36 2.032 . S
Mg31 O38 2.079 . S
C32 O29 1.250 . S
C32 O30 1.248 . S
C33 O34 1.264 . S
C33 O41 1.249 . S
O34 C33 1.264 . S
O35 Mg28 1.986 . S
O35 C39 1.246 . S
O36 Mg31 2.032 . S
O36 C39 1.259 . S
O37 Mg28 2.114 . S
O37 C40 1.252 . S
O38 Mg28 2.251 . S
O38 Mg31 2.079 . S
O38 C40 1.273 . S
C39 O35 1.246 . S
C39 O36 1.259 . S
C40 O37 1.252 . S
C40 O38 1.273 . S
O41 Mg28 2.010 . S
O41 C33 1.249 . S
Mg42 O43 2.028 . S
Mg42 O49 1.986 . S
Mg42 O51 2.114 . S
Mg42 O52 2.251 . S
Mg42 O55 2.010 . S
O43 Mg42 2.028 . S
O43 C46 1.250 . S
O44 Mg45 2.028 . S
O44 C46 1.248 1_565 S
Mg45 O44 2.028 . S
Mg45 O50 2.032 . S
Mg45 O52 2.079 1_565 S
C46 O43 1.250 . S
C46 O44 1.248 1_545 S
C47 O48 1.264 . S
C47 O55 1.249 . S
O48 C47 1.264 . S
O49 Mg42 1.986 . S
O49 C53 1.246 1_556 S
O50 Mg45 2.032 . S
O50 C53 1.259 1_566 S
O51 Mg42 2.114 . S
O51 C54 1.252 . S
O52 Mg42 2.251 . S
O52 Mg45 2.079 1_545 S
O52 C54 1.273 . S
C53 O49 1.246 1_554 S
C53 O50 1.259 1_544 S
C54 O51 1.252 . S
C54 O52 1.273 . S
O55 Mg42 2.010 . S
O55 C47 1.249 . S
Mg56 O57 2.028 . S
Mg56 O63 1.986 1_554 S
Mg56 O65 2.114 . S
Mg56 O66 2.251 . S
Mg56 O69 2.010 . S
O57 Mg56 2.028 . S
O57 C60 1.250 . S
O58 Mg59 2.028 . S
O58 C60 1.248 . S
Mg59 O58 2.028 . S
Mg59 O64 2.032 1_554 S
Mg59 O66 2.079 . S
C60 O57 1.250 . S
C60 O58 1.248 . S
C61 O62 1.264 . S
C61 O69 1.249 . S
O62 C61 1.264 . S
O63 Mg56 1.986 1_556 S
O63 C67 1.246 . S
O64 Mg59 2.032 1_556 S
O64 C67 1.259 . S
O65 Mg56 2.114 . S
O65 C68 1.252 . S
O66 Mg56 2.251 . S
O66 Mg59 2.079 . S
O66 C68 1.273 . S
C67 O63 1.246 . S
C67 O64 1.259 . S
C68 O65 1.252 . S
C68 O66 1.273 . S
O69 Mg56 2.010 . S
O69 C61 1.249 . S
Mg70 O71 2.028 . S
Mg70 O77 1.986 . S
Mg70 O79 2.114 . S
Mg70 O80 2.251 . S
Mg70 O83 2.010 . S
O71 Mg70 2.028 . S
O71 C74 1.250 . S
O72 Mg73 2.028 . S
O72 C74 1.248 1_545 S
Mg73 O72 2.028 . S
Mg73 O78 2.032 . S
Mg73 O80 2.079 1_545 S
C74 O71 1.250 . S
C74 O72 1.248 1_565 S
C75 O76 1.264 . S
C75 O83 1.249 . S
O76 C75 1.264 . S
O77 Mg70 1.986 . S
O77 C81 1.246 . S
O78 Mg73 2.032 . S
O78 C81 1.259 1_545 S
O79 Mg70 2.114 . S
O79 C82 1.252 . S
O80 Mg70 2.251 . S
O80 Mg73 2.079 1_565 S
O80 C82 1.273 . S
C81 O77 1.246 . S
C81 O78 1.259 1_565 S
C82 O79 1.252 . S
C82 O80 1.273 . S
O83 Mg70 2.010 . S
O83 C75 1.249 . S
Mg84 O85 2.028 . S
Mg84 O91 1.986 . S
Mg84 O93 2.114 . S
Mg84 O94 2.251 . S
Mg84 O97 2.010 . S
O85 Mg84 2.028 . S
O85 C88 1.250 . S
O86 Mg87 2.028 . S
O86 C88 1.248 . S
Mg87 O86 2.028 . S
Mg87 O92 2.032 . S
Mg87 O94 2.079 . S
C88 O85 1.250 . S
C88 O86 1.248 . S
C89 O90 1.264 . S
C89 O97 1.249 . S
O90 C89 1.264 . S
O91 Mg84 1.986 . S
O91 C95 1.246 . S
O92 Mg87 2.032 . S
O92 C95 1.259 . S
O93 Mg84 2.114 . S
O93 C96 1.252 . S
O94 Mg84 2.251 . S
O94 Mg87 2.079 . S
O94 C96 1.273 . S
C95 O91 1.246 . S
C95 O92 1.259 . S
C96 O93 1.252 . S
C96 O94 1.273 . S
O97 Mg84 2.010 . S
O97 C89 1.249 . S
Mg98 O99 2.028 . S
Mg98 O105 1.986 . S
Mg98 O107 2.114 . S
Mg98 O108 2.251 . S
Mg98 O111 2.010 . S
O99 Mg98 2.028 . S
O99 C102 1.250 1_556 S
O100 Mg101 2.028 . S
O100 C102 1.248 1_566 S
Mg101 O100 2.028 . S
Mg101 O106 2.032 . S
Mg101 O108 2.079 1_565 S
C102 O99 1.250 1_554 S
C102 O100 1.248 1_544 S
C103 O104 1.264 . S
C103 O111 1.249 . S
O104 C103 1.264 . S
O105 Mg98 1.986 . S
O105 C109 1.246 . S
O106 Mg101 2.032 . S
O106 C109 1.259 1_565 S
O107 Mg98 2.114 . S
O107 C110 1.252 . S
O108 Mg98 2.251 . S
O108 Mg101 2.079 1_545 S
O108 C110 1.273 . S
C109 O105 1.246 . S
C109 O106 1.259 1_545 S
C110 O107 1.252 . S
C110 O108 1.273 . S
O111 Mg98 2.010 . S
O111 C103 1.249 . S
Mg112 O113 2.028 . S
Mg112 O119 1.986 1_554 S
Mg112 O121 2.114 . S
Mg112 O122 2.251 . S
Mg112 O125 2.010 . S
O113 Mg112 2.028 . S
O113 C116 1.250 . S
O114 Mg115 2.028 . S
O114 C116 1.248 . S
Mg115 O114 2.028 . S
Mg115 O120 2.032 1_554 S
Mg115 O122 2.079 . S
C116 O113 1.250 . S
C116 O114 1.248 . S
C117 O118 1.264 . S
C117 O125 1.249 . S
O118 C117 1.264 . S
O119 Mg112 1.986 1_556 S
O119 C123 1.246 . S
O120 Mg115 2.032 1_556 S
O120 C123 1.259 . S
O121 Mg112 2.114 . S
O121 C124 1.252 . S
O122 Mg112 2.251 . S
O122 Mg115 2.079 . S
O122 C124 1.273 . S
C123 O119 1.246 . S
C123 O120 1.259 . S
C124 O121 1.252 . S
C124 O122 1.273 . S
O125 Mg112 2.010 . S
O125 C117 1.249 . S
Mg126 O127 2.028 . S
Mg126 O133 1.986 . S
Mg126 O135 2.114 . S
Mg126 O136 2.251 . S
Mg126 O139 2.010 . S
O127 Mg126 2.028 . S
O127 C130 1.250 1_556 S
O128 Mg129 2.028 . S
O128 C130 1.248 1_566 S
Mg129 O128 2.028 . S
Mg129 O134 2.032 . S
Mg129 O136 2.079 1_565 S
C130 O127 1.250 1_554 S
C130 O128 1.248 1_544 S
C131 O132 1.264 . S
C131 O139 1.249 . S
O132 C131 1.264 . S
O133 Mg126 1.986 . S
O133 C137 1.246 . S
O134 Mg129 2.032 . S
O134 C137 1.259 1_565 S
O135 Mg126 2.114 . S
O135 C138 1.252 . S
O136 Mg126 2.251 . S
O136 Mg129 2.079 1_545 S
O136 C138 1.273 . S
C137 O133 1.246 . S
C137 O134 1.259 1_545 S
C138 O135 1.252 . S
C138 O136 1.273 . S
O139 Mg126 2.010 . S
O139 C131 1.249 . S
Mg140 O141 2.028 . S
Mg140 O147 1.986 . S
Mg140 O149 2.114 . S
Mg140 O150 2.251 . S
Mg140 O153 2.010 . S
O141 Mg140 2.028 . S
O141 C144 1.250 . S
O142 Mg143 2.028 . S
O142 C144 1.248 . S
Mg143 O142 2.028 . S
Mg143 O148 2.032 . S
Mg143 O150 2.079 . S
C144 O141 1.250 . S
C144 O142 1.248 . S
C145 O146 1.264 . S
C145 O153 1.249 . S
O146 C145 1.264 . S
O147 Mg140 1.986 . S
O147 C151 1.246 . S
O148 Mg143 2.032 . S
O148 C151 1.259 . S
O149 Mg140 2.114 . S
O149 C152 1.252 . S
O150 Mg140 2.251 . S
O150 Mg143 2.079 . S
O150 C152 1.273 . S
C151 O147 1.246 . S
C151 O148 1.259 . S
C152 O149 1.252 . S
C152 O150 1.273 . S
O153 Mg140 2.010 . S
O153 C145 1.249 . S
Mg154 O155 2.028 . S
Mg154 O161 1.986 . S
Mg154 O163 2.114 . S
Mg154 O164 2.251 . S
Mg154 O167 2.010 . S
O155 Mg154 2.028 . S
O155 C158 1.250 . S
O156 Mg157 2.028 . S
O156 C158 1.248 1_545 S
Mg157 O156 2.028 . S
Mg157 O162 2.032 . S
Mg157 O164 2.079 1_545 S
C158 O155 1.250 . S
C158 O156 1.248 1_565 S
C159 O160 1.264 . S
C159 O167 1.249 . S
O160 C159 1.264 . S
O161 Mg154 1.986 . S
O161 C165 1.246 . S
O162 Mg157 2.032 . S
O162 C165 1.259 1_545 S
O163 Mg154 2.114 . S
O163 C166 1.252 . S
O164 Mg154 2.251 . S
O164 Mg157 2.079 1_565 S
O164 C166 1.273 . S
C165 O161 1.246 . S
C165 O162 1.259 1_565 S
C166 O163 1.252 . S
C166 O164 1.273 . S
O167 Mg154 2.010 . S
O167 C159 1.249 . S
Mg168 O169 2.028 1_554 S
Mg168 O175 1.986 . S
Mg168 O177 2.114 1_554 S
Mg168 O178 2.251 . S
Mg168 O181 2.010 . S
O169 Mg168 2.028 1_556 S
O169 C172 1.250 . S
O170 Mg171 2.028 1_556 S
O170 C172 1.248 . S
Mg171 O170 2.028 1_554 S
Mg171 O176 2.032 . S
Mg171 O178 2.079 . S
C172 O169 1.250 . S
C172 O170 1.248 . S
C173 O174 1.264 . S
C173 O181 1.249 . S
O174 C173 1.264 . S
O175 Mg168 1.986 . S
O175 C179 1.246 . S
O176 Mg171 2.032 . S
O176 C179 1.259 . S
O177 Mg168 2.114 1_556 S
O177 C180 1.252 1_556 S
O178 Mg168 2.251 . S
O178 Mg171 2.079 . S
O178 C180 1.273 . S
C179 O175 1.246 . S
C179 O176 1.259 . S
C180 O177 1.252 1_554 S
C180 O178 1.273 . S
O181 Mg168 2.010 . S
O181 C173 1.249 . S
Mg182 O183 2.028 . S
Mg182 O189 1.986 . S
Mg182 O191 2.114 . S
Mg182 O192 2.251 . S
Mg182 O195 2.010 . S
O183 Mg182 2.028 . S
O183 C186 1.250 . S
O184 Mg185 2.028 . S
O184 C186 1.248 1_565 S
Mg185 O184 2.028 . S
Mg185 O190 2.032 . S
Mg185 O192 2.079 1_565 S
C186 O183 1.250 . S
C186 O184 1.248 1_545 S
C187 O188 1.264 . S
C187 O195 1.249 . S
O188 C187 1.264 . S
O189 Mg182 1.986 . S
O189 C193 1.246 1_556 S
O190 Mg185 2.032 . S
O190 C193 1.259 1_566 S
O191 Mg182 2.114 . S
O191 C194 1.252 . S
O192 Mg182 2.251 . S
O192 Mg185 2.079 1_545 S
O192 C194 1.273 . S
C193 O189 1.246 1_554 S
C193 O190 1.259 1_544 S
C194 O191 1.252 . S
C194 O192 1.273 . S
O195 Mg182 2.010 . S
O195 C187 1.249 . S
Mg196 O197 2.028 . S
Mg196 O203 1.986 . S
Mg196 O205 2.114 . S
Mg196 O206 2.251 . S
Mg196 O209 2.010 . S
O197 Mg196 2.028 . S
O197 C200 1.250 . S
O198 Mg199 2.028 . S
O198 C200 1.248 . S
Mg199 O198 2.028 . S
Mg199 O204 2.032 . S
Mg199 O206 2.079 . S
C200 O197 1.250 . S
C200 O198 1.248 . S
C201 O202 1.264 . S
C201 O209 1.249 . S
O202 C201 1.264 . S
O203 Mg196 1.986 . S
O203 C207 1.246 . S
O204 Mg199 2.032 . S
O204 C207 1.259 . S
O205 Mg196 2.114 . S
O205 C208 1.252 . S
O206 Mg196 2.251 . S
O206 Mg199 2.079 . S
O206 C208 1.273 . S
C207 O203 1.246 . S
C207 O204 1.259 . S
C208 O205 1.252 . S
C208 O206 1.273 . S
O209 Mg196 2.010 . S
O209 C201 1.249 . S
Mg210 O211 2.028 . S
Mg210 O217 1.986 . S
Mg210 O219 2.114 . S
Mg210 O220 2.251 . S
Mg210 O223 2.010 . S
O211 Mg210 2.028 . S
O211 C214 1.250 . S
O212 Mg213 2.028 . S
O212 C214 1.248 1_545 S
Mg213 O212 2.028 . S
Mg213 O218 2.032 . S
Mg213 O220 2.079 1_545 S
C214 O211 1.250 . S
C214 O212 1.248 1_565 S
C215 O216 1.264 . S
C215 O223 1.249 . S
O216 C215 1.264 . S
O217 Mg210 1.986 . S
O217 C221 1.246 . S
O218 Mg213 2.032 . S
O218 C221 1.259 1_545 S
O219 Mg210 2.114 . S
O219 C222 1.252 . S
O220 Mg210 2.251 . S
O220 Mg213 2.079 1_565 S
O220 C222 1.273 . S
C221 O217 1.246 . S
C221 O218 1.259 1_565 S
C222 O219 1.252 . S
C222 O220 1.273 . S
O223 Mg210 2.010 . S
O223 C215 1.249 . S
Mg224 O225 2.028 . S
Mg224 O231 1.986 . S
Mg224 O233 2.114 . S
Mg224 O234 2.251 . S
Mg224 O237 2.010 . S
O225 Mg224 2.028 . S
O225 C228 1.250 . S
O226 Mg227 2.028 . S
O226 C228 1.248 . S
Mg227 O226 2.028 . S
Mg227 O232 2.032 . S
Mg227 O234 2.079 . S
C228 O225 1.250 . S
C228 O226 1.248 . S
C229 O230 1.264 . S
C229 O237 1.249 . S
O230 C229 1.264 . S
O231 Mg224 1.986 . S
O231 C235 1.246 . S
O232 Mg227 2.032 . S
O232 C235 1.259 . S
O233 Mg224 2.114 . S
O233 C236 1.252 . S
O234 Mg224 2.251 . S
O234 Mg227 2.079 . S
O234 C236 1.273 . S
C235 O231 1.246 . S
C235 O232 1.259 . S
C236 O233 1.252 . S
C236 O234 1.273 . S
O237 Mg224 2.010 . S
O237 C229 1.249 . S
Mg238 O239 2.028 . S
Mg238 O245 1.986 . S
Mg238 O247 2.114 . S
Mg238 O248 2.251 . S
Mg238 O251 2.010 . S
O239 Mg238 2.028 . S
O239 C242 1.250 . S
O240 Mg241 2.028 . S
O240 C242 1.248 . S
Mg241 O240 2.028 . S
Mg241 O246 2.032 . S
Mg241 O248 2.079 . S
C242 O239 1.250 . S
C242 O240 1.248 . S
C243 O244 1.264 . S
C243 O251 1.249 . S
O244 C243 1.264 . S
O245 Mg238 1.986 . S
O245 C249 1.246 1_556 S
O246 Mg241 2.032 . S
O246 C249 1.259 1_556 S
O247 Mg238 2.114 . S
O247 C250 1.252 . S
O248 Mg238 2.251 . S
O248 Mg241 2.079 . S
O248 C250 1.273 . S
C249 O245 1.246 1_554 S
C249 O246 1.259 1_554 S
C250 O247 1.252 . S
C250 O248 1.273 . S
O251 Mg238 2.010 . S
O251 C243 1.249 . S
Mg252 O253 2.028 1_554 S
Mg252 O259 1.986 . S
Mg252 O261 2.114 1_554 S
Mg252 O262 2.251 . S
Mg252 O265 2.010 . S
O253 Mg252 2.028 1_556 S
O253 C256 1.250 . S
O254 Mg255 2.028 1_556 S
O254 C256 1.248 . S
Mg255 O254 2.028 1_554 S
Mg255 O260 2.032 . S
Mg255 O262 2.079 . S
C256 O253 1.250 . S
C256 O254 1.248 . S
C257 O258 1.264 . S
C257 O265 1.249 . S
O258 C257 1.264 . S
O259 Mg252 1.986 . S
O259 C263 1.246 . S
O260 Mg255 2.032 . S
O260 C263 1.259 . S
O261 Mg252 2.114 1_556 S
O261 C264 1.252 1_556 S
O262 Mg252 2.251 . S
O262 Mg255 2.079 . S
O262 C264 1.273 . S
C263 O259 1.246 . S
C263 O260 1.259 . S
C264 O261 1.252 1_554 S
C264 O262 1.273 . S
O265 Mg252 2.010 . S
O265 C257 1.249 . S
Mg266 O267 2.028 . S
Mg266 O273 1.986 . S
Mg266 O275 2.114 . S
Mg266 O276 2.251 . S
Mg266 O279 2.010 . S
O267 Mg266 2.028 . S
O267 C270 1.250 . S
O268 Mg269 2.028 . S
O268 C270 1.248 . S
Mg269 O268 2.028 . S
Mg269 O274 2.032 . S
Mg269 O276 2.079 . S
C270 O267 1.250 . S
C270 O268 1.248 . S
C271 O272 1.264 . S
C271 O279 1.249 . S
O272 C271 1.264 . S
O273 Mg266 1.986 . S
O273 C277 1.246 . S
O274 Mg269 2.032 . S
O274 C277 1.259 . S
O275 Mg266 2.114 . S
O275 C278 1.252 . S
O276 Mg266 2.251 . S
O276 Mg269 2.079 . S
O276 C278 1.273 . S
C277 O273 1.246 . S
C277 O274 1.259 . S
C278 O275 1.252 . S
C278 O276 1.273 . S
O279 Mg266 2.010 . S
O279 C271 1.249 . S
Mg280 O281 2.028 . S
Mg280 O287 1.986 . S
Mg280 O289 2.114 . S
Mg280 O290 2.251 . S
Mg280 O293 2.010 . S
O281 Mg280 2.028 . S
O281 C284 1.250 . S
O282 Mg283 2.028 . S
O282 C284 1.248 . S
Mg283 O282 2.028 . S
Mg283 O288 2.032 . S
Mg283 O290 2.079 . S
C284 O281 1.250 . S
C284 O282 1.248 . S
C285 O286 1.264 . S
C285 O293 1.249 . S
O286 C285 1.264 . S
O287 Mg280 1.986 . S
O287 C291 1.246 . S
O288 Mg283 2.032 . S
O288 C291 1.259 . S
O289 Mg280 2.114 . S
O289 C292 1.252 . S
O290 Mg280 2.251 . S
O290 Mg283 2.079 . S
O290 C292 1.273 . S
C291 O287 1.246 . S
C291 O288 1.259 . S
C292 O289 1.252 . S
C292 O290 1.273 . S
O293 Mg280 2.010 . S
O293 C285 1.249 . S
Mg294 O295 2.028 . S
Mg294 O301 1.986 . S
Mg294 O303 2.114 . S
Mg294 O304 2.251 . S
Mg294 O307 2.010 . S
O295 Mg294 2.028 . S
O295 C298 1.250 1_556 S
O296 Mg297 2.028 . S
O296 C298 1.248 1_556 S
Mg297 O296 2.028 . S
Mg297 O302 2.032 . S
Mg297 O304 2.079 . S
C298 O295 1.250 1_554 S
C298 O296 1.248 1_554 S
C299 O300 1.264 . S
C299 O307 1.249 . S
O300 C299 1.264 . S
O301 Mg294 1.986 . S
O301 C305 1.246 . S
O302 Mg297 2.032 . S
O302 C305 1.259 . S
O303 Mg294 2.114 . S
O303 C306 1.252 . S
O304 Mg294 2.251 . S
O304 Mg297 2.079 . S
O304 C306 1.273 . S
C305 O301 1.246 . S
C305 O302 1.259 . S
C306 O303 1.252 . S
C306 O304 1.273 . S
O307 Mg294 2.010 . S
O307 C299 1.249 . S
Mg308 O309 2.028 . S
Mg308 O315 1.986 1_554 S
Mg308 O317 2.114 . S
Mg308 O318 2.251 . S
Mg308 O321 2.010 . S
O309 Mg308 2.028 . S
O309 C312 1.250 . S
O310 Mg311 2.028 . S
O310 C312 1.248 . S
Mg311 O310 2.028 . S
Mg311 O316 2.032 1_554 S
Mg311 O318 2.079 . S
C312 O309 1.250 . S
C312 O310 1.248 . S
C313 O314 1.264 . S
C313 O321 1.249 . S
O314 C313 1.264 . S
O315 Mg308 1.986 1_556 S
O315 C319 1.246 . S
O316 Mg311 2.032 1_556 S
O316 C319 1.259 . S
O317 Mg308 2.114 . S
O317 C320 1.252 . S
O318 Mg308 2.251 . S
O318 Mg311 2.079 . S
O318 C320 1.273 . S
C319 O315 1.246 . S
C319 O316 1.259 . S
C320 O317 1.252 . S
C320 O318 1.273 . S
O321 Mg308 2.010 . S
O321 C313 1.249 . S
Mg322 O323 2.028 . S
Mg322 O329 1.986 . S
Mg322 O331 2.114 . S
Mg322 O332 2.251 . S
Mg322 O335 2.010 . S
O323 Mg322 2.028 . S
O323 C326 1.250 . S
O324 Mg325 2.028 . S
O324 C326 1.248 . S
Mg325 O324 2.028 . S
Mg325 O330 2.032 . S
Mg325 O332 2.079 . S
C326 O323 1.250 . S
C326 O324 1.248 . S
C327 O328 1.264 . S
C327 O335 1.249 . S
O328 C327 1.264 . S
O329 Mg322 1.986 . S
O329 C333 1.246 . S
O330 Mg325 2.032 . S
O330 C333 1.259 . S
O331 Mg322 2.114 . S
O331 C334 1.252 . S
O332 Mg322 2.251 . S
O332 Mg325 2.079 . S
O332 C334 1.273 . S
C333 O329 1.246 . S
C333 O330 1.259 . S
C334 O331 1.252 . S
C334 O332 1.273 . S
O335 Mg322 2.010 . S
O335 C327 1.249 . S
Mg336 O337 2.028 . S
Mg336 O343 1.986 . S
Mg336 O345 2.114 . S
Mg336 O346 2.251 . S
Mg336 O349 2.010 . S
O337 Mg336 2.028 . S
O337 C340 1.250 . S
O338 Mg339 2.028 . S
O338 C340 1.248 . S
Mg339 O338 2.028 . S
Mg339 O344 2.032 . S
Mg339 O346 2.079 . S
C340 O337 1.250 . S
C340 O338 1.248 . S
C341 O342 1.264 . S
C341 O349 1.249 . S
O342 C341 1.264 . S
O343 Mg336 1.986 . S
O343 C347 1.246 . S
O344 Mg339 2.032 . S
O344 C347 1.259 . S
O345 Mg336 2.114 . S
O345 C348 1.252 . S
O346 Mg336 2.251 . S
O346 Mg339 2.079 . S
O346 C348 1.273 . S
C347 O343 1.246 . S
C347 O344 1.259 . S
C348 O345 1.252 . S
C348 O346 1.273 . S
O349 Mg336 2.010 . S
O349 C341 1.249 . S
Mg350 O351 2.028 . S
Mg350 O357 1.986 . S
Mg350 O359 2.114 . S
Mg350 O360 2.251 . S
Mg350 O363 2.010 . S
O351 Mg350 2.028 . S
O351 C354 1.250 . S
O352 Mg353 2.028 . S
O352 C354 1.248 . S
Mg353 O352 2.028 . S
Mg353 O358 2.032 . S
Mg353 O360 2.079 . S
C354 O351 1.250 . S
C354 O352 1.248 . S
C355 O356 1.264 . S
C355 O363 1.249 . S
O356 C355 1.264 . S
O357 Mg350 1.986 . S
O357 C361 1.246 . S
O358 Mg353 2.032 . S
O358 C361 1.259 . S
O359 Mg350 2.114 . S
O359 C362 1.252 . S
O360 Mg350 2.251 . S
O360 Mg353 2.079 . S
O360 C362 1.273 . S
C361 O357 1.246 . S
C361 O358 1.259 . S
C362 O359 1.252 . S
C362 O360 1.273 . S
O363 Mg350 2.010 . S
O363 C355 1.249 . S
Mg364 O365 2.028 . S
Mg364 O371 1.986 1_554 S
Mg364 O373 2.114 . S
Mg364 O374 2.251 . S
Mg364 O377 2.010 . S
O365 Mg364 2.028 . S
O365 C368 1.250 . S
O366 Mg367 2.028 . S
O366 C368 1.248 . S
Mg367 O366 2.028 . S
Mg367 O372 2.032 1_554 S
Mg367 O374 2.079 . S
C368 O365 1.250 . S
C368 O366 1.248 . S
C369 O370 1.264 . S
C369 O377 1.249 . S
O370 C369 1.264 . S
O371 Mg364 1.986 1_556 S
O371 C375 1.246 . S
O372 Mg367 2.032 1_556 S
O372 C375 1.259 . S
O373 Mg364 2.114 . S
O373 C376 1.252 . S
O374 Mg364 2.251 . S
O374 Mg367 2.079 . S
O374 C376 1.273 . S
C375 O371 1.246 . S
C375 O372 1.259 . S
C376 O373 1.252 . S
C376 O374 1.273 . S
O377 Mg364 2.010 . S
O377 C369 1.249 . S
Mg378 O379 2.028 . S
Mg378 O385 1.986 . S
Mg378 O387 2.114 . S
Mg378 O388 2.251 . S
Mg378 O391 2.010 . S
O379 Mg378 2.028 . S
O379 C382 1.250 1_556 S
O380 Mg381 2.028 . S
O380 C382 1.248 1_556 S
Mg381 O380 2.028 . S
Mg381 O386 2.032 . S
Mg381 O388 2.079 . S
C382 O379 1.250 1_554 S
C382 O380 1.248 1_554 S
C383 O384 1.264 . S
C383 O391 1.249 . S
O384 C383 1.264 . S
O385 Mg378 1.986 . S
O385 C389 1.246 . S
O386 Mg381 2.032 . S
O386 C389 1.259 . S
O387 Mg378 2.114 . S
O387 C390 1.252 . S
O388 Mg378 2.251 . S
O388 Mg381 2.079 . S
O388 C390 1.273 . S
C389 O385 1.246 . S
C389 O386 1.259 . S
C390 O387 1.252 . S
C390 O388 1.273 . S
O391 Mg378 2.010 . S
O391 C383 1.249 . S
Mg392 O393 2.028 . S
Mg392 O399 1.986 . S
Mg392 O401 2.114 . S
Mg392 O402 2.251 . S
Mg392 O405 2.010 . S
O393 Mg392 2.028 . S
O393 C396 1.250 . S
O394 Mg395 2.028 . S
O394 C396 1.248 . S
Mg395 O394 2.028 . S
Mg395 O400 2.032 . S
Mg395 O402 2.079 . S
C396 O393 1.250 . S
C396 O394 1.248 . S
C397 O398 1.264 . S
C397 O405 1.249 . S
O398 C397 1.264 . S
O399 Mg392 1.986 . S
O399 C403 1.246 . S
O400 Mg395 2.032 . S
O400 C403 1.259 . S
O401 Mg392 2.114 . S
O401 C404 1.252 . S
O402 Mg392 2.251 . S
O402 Mg395 2.079 . S
O402 C404 1.273 . S
C403 O399 1.246 . S
C403 O400 1.259 . S
C404 O401 1.252 . S
C404 O402 1.273 . S
O405 Mg392 2.010 . S
O405 C397 1.249 . S
Mg406 O407 2.028 . S
Mg406 O413 1.986 . S
Mg406 O415 2.114 . S
Mg406 O416 2.251 . S
Mg406 O419 2.010 . S
O407 Mg406 2.028 . S
O407 C410 1.250 . S
O408 Mg409 2.028 . S
O408 C410 1.248 . S
Mg409 O408 2.028 . S
Mg409 O414 2.032 . S
Mg409 O416 2.079 . S
C410 O407 1.250 . S
C410 O408 1.248 . S
C411 O412 1.264 . S
C411 O419 1.249 . S
O412 C411 1.264 . S
O413 Mg406 1.986 . S
O413 C417 1.246 . S
O414 Mg409 2.032 . S
O414 C417 1.259 . S
O415 Mg406 2.114 . S
O415 C418 1.252 . S
O416 Mg406 2.251 . S
O416 Mg409 2.079 . S
O416 C418 1.273 . S
C417 O413 1.246 . S
C417 O414 1.259 . S
C418 O415 1.252 . S
C418 O416 1.273 . S
O419 Mg406 2.010 . S
O419 C411 1.249 . S
Mg420 O421 2.028 1_554 S
Mg420 O427 1.986 . S
Mg420 O429 2.114 1_554 S
Mg420 O430 2.251 . S
Mg420 O433 2.010 . S
O421 Mg420 2.028 1_556 S
O421 C424 1.250 . S
O422 Mg423 2.028 1_556 S
O422 C424 1.248 . S
Mg423 O422 2.028 1_554 S
Mg423 O428 2.032 . S
Mg423 O430 2.079 . S
C424 O421 1.250 . S
C424 O422 1.248 . S
C425 O426 1.264 . S
C425 O433 1.249 . S
O426 C425 1.264 . S
O427 Mg420 1.986 . S
O427 C431 1.246 . S
O428 Mg423 2.032 . S
O428 C431 1.259 . S
O429 Mg420 2.114 1_556 S
O429 C432 1.252 1_556 S
O430 Mg420 2.251 . S
O430 Mg423 2.079 . S
O430 C432 1.273 . S
C431 O427 1.246 . S
C431 O428 1.259 . S
C432 O429 1.252 1_554 S
C432 O430 1.273 . S
O433 Mg420 2.010 . S
O433 C425 1.249 . S
Mg434 O435 2.028 . S
Mg434 O441 1.986 . S
Mg434 O443 2.114 . S
Mg434 O444 2.251 . S
Mg434 O447 2.010 . S
O435 Mg434 2.028 . S
O435 C438 1.250 . S
O436 Mg437 2.028 . S
O436 C438 1.248 . S
Mg437 O436 2.028 . S
Mg437 O442 2.032 . S
Mg437 O444 2.079 . S
C438 O435 1.250 . S
C438 O436 1.248 . S
C439 O440 1.264 . S
C439 O447 1.249 . S
O440 C439 1.264 . S
O441 Mg434 1.986 . S
O441 C445 1.246 1_556 S
O442 Mg437 2.032 . S
O442 C445 1.259 1_556 S
O443 Mg434 2.114 . S
O443 C446 1.252 . S
O444 Mg434 2.251 . S
O444 Mg437 2.079 . S
O444 C446 1.273 . S
C445 O441 1.246 1_554 S
C445 O442 1.259 1_554 S
C446 O443 1.252 . S
C446 O444 1.273 . S
O447 Mg434 2.010 . S
O447 C439 1.249 . S
C103 C5 1.535 1_556 S
C19 C61 1.536 . S
C75 C33 1.535 . S
C47 C89 1.535 . S
C117 C215 1.536 . S
C131 C173 1.535 1_556 S
C145 C187 1.535 . S
C159 C201 1.535 . S
C229 C327 1.535 . S
C243 C285 1.535 . S
C299 C257 1.535 1_556 S
C313 C271 1.536 . S
C341 C439 1.535 . S
C397 C355 1.535 . S
C411 C369 1.536 . S
C383 C425 1.535 1_556 S
C4 C88 1.201 . S
C18 C102 1.201 1_565 S
C60 C32 1.201 . S
C46 C74 1.201 1_545 S
C116 C200 1.201 . S
C130 C214 1.201 1_545 S
C172 C144 1.201 . S
C186 C158 1.201 1_545 S
C228 C312 1.201 . S
C326 C242 1.201 . S
C284 C256 1.201 . S
C270 C298 1.201 . S
C340 C424 1.201 . S
C354 C438 1.201 . S
C396 C368 1.201 . S
C410 C382 1.201 . S
C12 C432 1.364 . S
C26 C222 1.364 1_455 S
C40 C404 1.364 . S
C54 C194 1.365 . S
C68 C376 1.365 . S
C82 C166 1.365 . S
C96 C348 1.364 . S
C138 C110 1.364 1_655 S
C320 C124 1.365 . S
C152 C292 1.364 . S
C264 C180 1.364 . S
C236 C208 1.364 . S
C250 C446 1.364 . S
C278 C418 1.364 1_655 S
C306 C390 1.364 1_655 S
C362 C334 1.365 . S
C11 C95 1.413 . S
C25 C109 1.413 1_565 S
C67 C39 1.413 . S
C53 C81 1.413 1_545 S
C123 C207 1.413 . S
C137 C221 1.413 1_545 S
C179 C151 1.413 . S
C165 C193 1.413 1_565 S
C319 C235 1.413 . S
C333 C249 1.413 . S
C291 C263 1.413 . S
C305 C277 1.413 . S
C431 C347 1.413 . S
C445 C361 1.413 . S
C375 C403 1.413 . S
C417 C389 1.413 . S
