# Generated by pormake.
# Topology whp, (6)-cn, num edge types: 1
# Building blocks:
#     Node 0, Type 0, BuildingBlock: OJICUG_clean_sbu_0, # of connection points: 6
#     Node 1, Type 0, BuildingBlock: OJICUG_clean_sbu_0, # of connection points: 6
#     Node 2, Type 0, BuildingBlock: OJICUG_clean_sbu_0, # of connection points: 6
#     Node 3, Type 0, BuildingBlock: OJICUG_clean_sbu_0, # of connection points: 6
#     Node 4, Type 0, BuildingBlock: OJICUG_clean_sbu_0, # of connection points: 6
#     Node 5, Type 0, BuildingBlock: OJICUG_clean_sbu_0, # of connection points: 6
#     Node 6, Type 0, BuildingBlock: OJICUG_clean_sbu_0, # of connection points: 6
#     Node 7, Type 0, BuildingBlock: OJICUG_clean_sbu_0, # of connection points: 6
#     Node 8, Type 0, BuildingBlock: OJICUG_clean_sbu_0, # of connection points: 6
#     Node 9, Type 0, BuildingBlock: OJICUG_clean_sbu_0, # of connection points: 6
#     Node 10, Type 0, BuildingBlock: OJICUG_clean_sbu_0, # of connection points: 6
#     Node 11, Type 0, BuildingBlock: OJICUG_clean_sbu_0, # of connection points: 6
#     Node 12, Type 0, BuildingBlock: OJICUG_clean_sbu_0, # of connection points: 6
#     Node 13, Type 0, BuildingBlock: OJICUG_clean_sbu_0, # of connection points: 6
#     Node 14, Type 0, BuildingBlock: OJICUG_clean_sbu_0, # of connection points: 6
#     Node 15, Type 0, BuildingBlock: OJICUG_clean_sbu_0, # of connection points: 6
#     Edge 16, Type (0, 0), BuildingBlock: XUDNAN_clean_linker_2, # of connection points: 2
#     Edge 17, Type (0, 0), BuildingBlock: XUDNAN_clean_linker_2, # of connection points: 2
#     Edge 18, Type (0, 0), BuildingBlock: XUDNAN_clean_linker_2, # of connection points: 2
#     Edge 19, Type (0, 0), BuildingBlock: XUDNAN_clean_linker_2, # of connection points: 2
#     Edge 20, Type (0, 0), BuildingBlock: XUDNAN_clean_linker_2, # of connection points: 2
#     Edge 21, Type (0, 0), BuildingBlock: XUDNAN_clean_linker_2, # of connection points: 2
#     Edge 22, Type (0, 0), BuildingBlock: XUDNAN_clean_linker_2, # of connection points: 2
#     Edge 23, Type (0, 0), BuildingBlock: XUDNAN_clean_linker_2, # of connection points: 2
#     Edge 24, Type (0, 0), BuildingBlock: XUDNAN_clean_linker_2, # of connection points: 2
#     Edge 25, Type (0, 0), BuildingBlock: XUDNAN_clean_linker_2, # of connection points: 2
#     Edge 26, Type (0, 0), BuildingBlock: XUDNAN_clean_linker_2, # of connection points: 2
#     Edge 27, Type (0, 0), BuildingBlock: XUDNAN_clean_linker_2, # of connection points: 2
#     Edge 28, Type (0, 0), BuildingBlock: XUDNAN_clean_linker_2, # of connection points: 2
#     Edge 29, Type (0, 0), BuildingBlock: XUDNAN_clean_linker_2, # of connection points: 2
#     Edge 30, Type (0, 0), BuildingBlock: XUDNAN_clean_linker_2, # of connection points: 2
#     Edge 31, Type (0, 0), BuildingBlock: XUDNAN_clean_linker_2, # of connection points: 2
#     Edge 32, Type (0, 0), BuildingBlock: XUDNAN_clean_linker_2, # of connection points: 2
#     Edge 33, Type (0, 0), BuildingBlock: XUDNAN_clean_linker_2, # of connection points: 2
#     Edge 34, Type (0, 0), BuildingBlock: XUDNAN_clean_linker_2, # of connection points: 2
#     Edge 35, Type (0, 0), BuildingBlock: XUDNAN_clean_linker_2, # of connection points: 2
#     Edge 36, Type (0, 0), BuildingBlock: XUDNAN_clean_linker_2, # of connection points: 2
#     Edge 37, Type (0, 0), BuildingBlock: XUDNAN_clean_linker_2, # of connection points: 2
#     Edge 38, Type (0, 0), BuildingBlock: XUDNAN_clean_linker_2, # of connection points: 2
#     Edge 39, Type (0, 0), BuildingBlock: XUDNAN_clean_linker_2, # of connection points: 2
#     Edge 40, Type (0, 0), BuildingBlock: XUDNAN_clean_linker_2, # of connection points: 2
#     Edge 41, Type (0, 0), BuildingBlock: XUDNAN_clean_linker_2, # of connection points: 2
#     Edge 42, Type (0, 0), BuildingBlock: XUDNAN_clean_linker_2, # of connection points: 2
#     Edge 43, Type (0, 0), BuildingBlock: XUDNAN_clean_linker_2, # of connection points: 2
#     Edge 44, Type (0, 0), BuildingBlock: XUDNAN_clean_linker_2, # of connection points: 2
#     Edge 45, Type (0, 0), BuildingBlock: XUDNAN_clean_linker_2, # of connection points: 2
#     Edge 46, Type (0, 0), BuildingBlock: XUDNAN_clean_linker_2, # of connection points: 2
#     Edge 47, Type (0, 0), BuildingBlock: XUDNAN_clean_linker_2, # of connection points: 2
#     Edge 48, Type (0, 0), BuildingBlock: XUDNAN_clean_linker_2, # of connection points: 2
#     Edge 49, Type (0, 0), BuildingBlock: XUDNAN_clean_linker_2, # of connection points: 2
#     Edge 50, Type (0, 0), BuildingBlock: XUDNAN_clean_linker_2, # of connection points: 2
#     Edge 51, Type (0, 0), BuildingBlock: XUDNAN_clean_linker_2, # of connection points: 2
#     Edge 52, Type (0, 0), BuildingBlock: XUDNAN_clean_linker_2, # of connection points: 2
#     Edge 53, Type (0, 0), BuildingBlock: XUDNAN_clean_linker_2, # of connection points: 2
#     Edge 54, Type (0, 0), BuildingBlock: XUDNAN_clean_linker_2, # of connection points: 2
#     Edge 55, Type (0, 0), BuildingBlock: XUDNAN_clean_linker_2, # of connection points: 2
#     Edge 56, Type (0, 0), BuildingBlock: XUDNAN_clean_linker_2, # of connection points: 2
#     Edge 57, Type (0, 0), BuildingBlock: XUDNAN_clean_linker_2, # of connection points: 2
#     Edge 58, Type (0, 0), BuildingBlock: XUDNAN_clean_linker_2, # of connection points: 2
#     Edge 59, Type (0, 0), BuildingBlock: XUDNAN_clean_linker_2, # of connection points: 2
#     Edge 60, Type (0, 0), BuildingBlock: XUDNAN_clean_linker_2, # of connection points: 2
#     Edge 61, Type (0, 0), BuildingBlock: XUDNAN_clean_linker_2, # of connection points: 2
#     Edge 62, Type (0, 0), BuildingBlock: XUDNAN_clean_linker_2, # of connection points: 2
#     Edge 63, Type (0, 0), BuildingBlock: XUDNAN_clean_linker_2, # of connection points: 2
# Relax obj value: 0.276
# Max RMSD: 0.243
# Mean RMSD: 0.243
data_MOF--net-whp--node1-OJICUG_clean_sbu_0--edge1-XUDNAN_clean_linker_2
_symmetry_space_group_name_H-M    P1
_symmetry_Int_Tables_number       1
_symmetry_cell_setting            triclinic
loop_
_symmetry_equiv_pos_as_xyz
'x, y, z'
_cell_length_a     48.22131
_cell_length_b     48.199153
_cell_length_c     30.608782
_cell_angle_alpha  89.998265
_cell_angle_beta   89.999837
_cell_angle_gamma 89.865584
loop_
_atom_site_label
_atom_site_type_symbol
_atom_site_fract_x
_atom_site_fract_y
_atom_site_fract_z
_atom_type_partial_charge
Sc0 Sc 0.30072 0.55889 0.38163 0.0
Sc1 Sc 0.34272 0.51911 0.31235 0.0
Sc2 Sc 0.27402 0.49919 0.33422 0.0
O3 O 0.30597 0.52568 0.34246 0.0
C4 C 0.267 0.51208 0.43279 0.0
C5 C 0.35972 0.53722 0.41 0.0
C6 C 0.32551 0.45748 0.33569 0.0
C7 C 0.3417 0.58408 0.30937 0.0
C8 C 0.24426 0.55892 0.33328 0.0
C9 C 0.29774 0.50513 0.23851 0.0
O10 O 0.2739 0.53726 0.42699 0.0
O11 O 0.3659 0.52879 0.3716 0.0
O12 O 0.29964 0.46234 0.33493 0.0
O13 O 0.32735 0.58565 0.34405 0.0
O14 O 0.24371 0.53249 0.33348 0.0
O15 O 0.32264 0.50902 0.25112 0.0
O16 O 0.2655 0.57288 0.34425 0.0
O17 O 0.34629 0.56135 0.28975 0.0
O18 O 0.27729 0.50289 0.26454 0.0
O19 O 0.33576 0.54641 0.42016 0.0
O20 O 0.26926 0.4938 0.40321 0.0
O21 O 0.34377 0.47612 0.33065 0.0
Sc22 Sc 0.93098 0.30601 0.86054 0.0
Sc23 Sc 0.97877 0.34066 0.79262 0.0
Sc24 Sc 0.99582 0.27566 0.83845 0.0
O25 O 0.96847 0.30747 0.83035 0.0
C26 C 0.9723 0.28224 0.93373 0.0
C27 C 0.95151 0.36841 0.87621 0.0
C28 C 0.03753 0.32626 0.83546 0.0
C29 C 0.91392 0.33642 0.77202 0.0
C30 C 0.93758 0.24361 0.83171 0.0
C31 C 0.99848 0.28816 0.73641 0.0
O32 O 0.94853 0.29072 0.92137 0.0
O33 O 0.96835 0.36945 0.84423 0.0
O34 O 0.03201 0.30135 0.84505 0.0
O35 O 0.90843 0.32103 0.80451 0.0
O36 O 0.96391 0.24443 0.83357 0.0
O37 O 0.99031 0.31338 0.7389 0.0
O38 O 0.92229 0.2647 0.83794 0.0
O39 O 0.93811 0.3454 0.76391 0.0
O40 O 0.00153 0.27258 0.76959 0.0
O41 O 0.93641 0.34749 0.88498 0.0
O42 O 0.99215 0.27727 0.90774 0.0
O43 O 0.02042 0.34228 0.81671 0.0
Sc44 Sc 0.23036 0.99884 0.32361 0.0
Sc45 Sc 0.16045 0.98067 0.30121 0.0
Sc46 Sc 0.19834 0.9443 0.38089 0.0
O47 O 0.19634 0.97471 0.33526 0.0
C48 C 0.25681 0.93839 0.33223 0.0
C49 C 0.20539 0.99216 0.22703 0.0
C50 C 0.16335 0.91487 0.30525 0.0
C51 C 0.18037 0.04258 0.32253 0.0
C52 C 0.23465 0.99062 0.42748 0.0
C53 C 0.13696 0.96655 0.39592 0.0
O54 O 0.25731 0.96286 0.31635 0.0
O55 O 0.18134 0.98507 0.23957 0.0
O56 O 0.1792 0.91437 0.33841 0.0
O57 O 0.20584 0.03686 0.32981 0.0
O58 O 0.2179 0.97035 0.42882 0.0
O59 O 0.13415 0.97676 0.35794 0.0
O60 O 0.24156 0.00247 0.39198 0.0
O61 O 0.16248 0.02454 0.31152 0.0
O62 O 0.15902 0.95483 0.40905 0.0
O63 O 0.2249 0.99801 0.25338 0.0
O64 O 0.2375 0.92987 0.357 0.0
O65 O 0.15485 0.93719 0.28757 0.0
Sc66 Sc 0.50461 0.23023 0.8226 0.0
Sc67 Sc 0.51751 0.15982 0.79902 0.0
Sc68 Sc 0.56234 0.19582 0.86956 0.0
O69 O 0.52817 0.19532 0.83051 0.0
C70 C 0.56602 0.25454 0.82194 0.0
C71 C 0.50396 0.20549 0.72624 0.0
C72 C 0.58306 0.1597 0.78772 0.0
C73 C 0.45927 0.18235 0.8327 0.0
C74 C 0.52001 0.23328 0.92437 0.0
C75 C 0.53855 0.13575 0.89003 0.0
O76 O 0.54065 0.2557 0.81071 0.0
O77 O 0.50863 0.18073 0.73839 0.0
O78 O 0.58795 0.17463 0.82125 0.0
O79 O 0.46583 0.20796 0.83377 0.0
O80 O 0.54065 0.21681 0.92203 0.0
O81 O 0.52524 0.13336 0.85452 0.0
O82 O 0.50547 0.24 0.89132 0.0
O83 O 0.47581 0.1633 0.82081 0.0
O84 O 0.55247 0.1571 0.90011 0.0
O85 O 0.502 0.2256 0.75279 0.0
O86 O 0.57638 0.2347 0.84385 0.0
O87 O 0.5587 0.15335 0.77559 0.0
Sc88 Sc 0.80477 0.43404 0.13312 0.0
Sc89 Sc 0.84006 0.48263 0.19722 0.0
Sc90 Sc 0.7758 0.49998 0.1496 0.0
O91 O 0.80685 0.47223 0.15977 0.0
C92 C 0.78023 0.47199 0.05622 0.0
C93 C 0.86692 0.45532 0.11423 0.0
C94 C 0.82549 0.54141 0.1536 0.0
C95 C 0.83641 0.41795 0.21926 0.0
C96 C 0.74255 0.44327 0.16362 0.0
C97 C 0.78878 0.50291 0.25251 0.0
O98 O 0.79183 0.45013 0.07066 0.0
O99 O 0.8679 0.47435 0.14319 0.0
O100 O 0.80338 0.53385 0.13473 0.0
O101 O 0.81757 0.41291 0.19158 0.0
O102 O 0.74435 0.46957 0.1627 0.0
O103 O 0.81244 0.49092 0.25133 0.0
O104 O 0.76263 0.42723 0.15417 0.0
O105 O 0.84791 0.44147 0.22249 0.0
O106 O 0.77529 0.50984 0.21832 0.0
O107 O 0.84673 0.43842 0.11016 0.0
O108 O 0.773 0.49209 0.08053 0.0
O109 O 0.83897 0.52573 0.17927 0.0
Sc110 Sc 0.00466 0.76917 0.67543 0.0
Sc111 Sc 0.0247 0.83833 0.69386 0.0
Sc112 Sc 0.05956 0.79873 0.6161 0.0
O113 O 0.02962 0.80194 0.66197 0.0
C114 C 0.06561 0.74244 0.66764 0.0
C115 C 0.0128 0.7944 0.77002 0.0
C116 C 0.08896 0.83735 0.68803 0.0
C117 C 0.96283 0.82061 0.67234 0.0
C118 C 0.01195 0.76152 0.57365 0.0
C119 C 0.0381 0.85846 0.596 0.0
O120 O 0.03988 0.74106 0.67718 0.0
O121 O 0.01612 0.819 0.75605 0.0
O122 O 0.08808 0.82464 0.65167 0.0
O123 O 0.96726 0.79458 0.67508 0.0
O124 O 0.03568 0.7728 0.57342 0.0
O125 O 0.03294 0.86297 0.63618 0.0
O126 O 0.99658 0.76068 0.6073 0.0
O127 O 0.98175 0.83875 0.67657 0.0
O128 O 0.04442 0.83452 0.58154 0.0
O129 O 0.01006 0.77366 0.74487 0.0
O130 O 0.07646 0.76286 0.64766 0.0
O131 O 0.06778 0.84061 0.71221 0.0
Sc132 Sc 0.73183 0.00503 0.17139 0.0
Sc133 Sc 0.66238 0.0246 0.19307 0.0
Sc134 Sc 0.70158 0.06085 0.11491 0.0
O135 O 0.69856 0.0301 0.15979 0.0
C136 C 0.76009 0.06411 0.16324 0.0
C137 C 0.70681 0.01315 0.26761 0.0
C138 C 0.66674 0.09062 0.18997 0.0
C139 C 0.68184 0.96234 0.17231 0.0
C140 C 0.73583 0.01345 0.06754 0.0
C141 C 0.64001 0.0387 0.09811 0.0
O142 O 0.75894 0.04011 0.18042 0.0
O143 O 0.68309 0.02141 0.25506 0.0
O144 O 0.68404 0.09118 0.15865 0.0
O145 O 0.70708 0.96777 0.16363 0.0
O146 O 0.71944 0.03409 0.06649 0.0
O147 O 0.63697 0.02715 0.13511 0.0
O148 O 0.74311 0.00169 0.10298 0.0
O149 O 0.66436 0.9805 0.1847 0.0
O150 O 0.66182 0.05172 0.08729 0.0
O151 O 0.72583 0.00561 0.24141 0.0
O152 O 0.7418 0.07346 0.13724 0.0
O153 O 0.65654 0.06828 0.20505 0.0
Sc154 Sc 0.43675 0.69407 0.63123 0.0
Sc155 Sc 0.48006 0.66283 0.70835 0.0
Sc156 Sc 0.49684 0.72851 0.66504 0.0
O157 O 0.47132 0.69511 0.66807 0.0
C158 C 0.47966 0.72021 0.56535 0.0
C159 C 0.45864 0.63123 0.62582 0.0
C160 C 0.54047 0.67989 0.67372 0.0
C161 C 0.41396 0.66624 0.71614 0.0
C162 C 0.43763 0.75748 0.66244 0.0
C163 C 0.49394 0.71473 0.76719 0.0
O164 O 0.45975 0.70373 0.57311 0.0
O165 O 0.47689 0.63286 0.65577 0.0
O166 O 0.53326 0.70249 0.6553 0.0
O167 O 0.41089 0.68407 0.686 0.0
O168 O 0.46281 0.75745 0.67503 0.0
O169 O 0.48336 0.69064 0.76347 0.0
O170 O 0.42677 0.73692 0.64295 0.0
O171 O 0.43721 0.65521 0.72532 0.0
O172 O 0.50235 0.72889 0.73472 0.0
O173 O 0.44204 0.65085 0.61641 0.0
O174 O 0.49349 0.73237 0.59501 0.0
O175 O 0.52388 0.66544 0.69652 0.0
Sc176 Sc 0.72919 0.49503 0.6497 0.0
Sc177 Sc 0.66447 0.47781 0.69692 0.0
Sc178 Sc 0.69212 0.43666 0.61238 0.0
O179 O 0.69516 0.46992 0.65286 0.0
C180 C 0.71972 0.48149 0.54937 0.0
C181 C 0.68018 0.53882 0.66381 0.0
C182 C 0.63019 0.45959 0.61221 0.0
C183 C 0.71873 0.49056 0.7525 0.0
C184 C 0.7557 0.43414 0.64233 0.0
C185 C 0.66656 0.41191 0.69996 0.0
O186 O 0.7302 0.49604 0.57961 0.0
O187 O 0.66467 0.52126 0.68269 0.0
O188 O 0.65027 0.44634 0.59527 0.0
O189 O 0.73334 0.49641 0.7193 0.0
O190 O 0.7337 0.42334 0.62703 0.0
O191 O 0.6611 0.43533 0.7168 0.0
O192 O 0.75749 0.45985 0.65174 0.0
O193 O 0.69346 0.48331 0.75002 0.0
O194 O 0.67762 0.40896 0.66262 0.0
O195 O 0.70391 0.53268 0.64807 0.0
O196 O 0.70521 0.46001 0.55622 0.0
O197 O 0.63172 0.4723 0.64865 0.0
Sc198 Sc 0.00431 0.72934 0.17448 0.0
Sc199 Sc 0.01655 0.659 0.19961 0.0
Sc200 Sc 0.06449 0.6954 0.13534 0.0
O201 O 0.02844 0.6946 0.16969 0.0
C202 C 0.02615 0.73442 0.07631 0.0
C203 C 0.95879 0.68291 0.16381 0.0
C204 C 0.03804 0.63741 0.10728 0.0
C205 C 0.99975 0.70359 0.27063 0.0
C206 C 0.06583 0.75257 0.18806 0.0
C207 C 0.08194 0.65585 0.21448 0.0
O208 O 0.00981 0.74078 0.10725 0.0
O209 O 0.97417 0.66458 0.18118 0.0
O210 O 0.05413 0.65795 0.10149 0.0
O211 O 0.99522 0.72259 0.24272 0.0
O212 O 0.07731 0.73292 0.16694 0.0
O213 O 0.05712 0.64907 0.2227 0.0
O214 O 0.03968 0.75433 0.19392 0.0
O215 O 0.00961 0.67994 0.26078 0.0
O216 O 0.08818 0.67279 0.18421 0.0
O217 O 0.96689 0.70745 0.15543 0.0
O218 O 0.04639 0.71779 0.08115 0.0
O219 O 0.02291 0.63448 0.14108 0.0
Sc220 Sc 0.80494 0.06305 0.63325 0.0
Sc221 Sc 0.845 0.01502 0.69208 0.0
Sc222 Sc 0.77493 0.00067 0.66993 0.0
O223 O 0.80829 0.02628 0.66506 0.0
C224 C 0.74691 0.06083 0.67973 0.0
C225 C 0.84457 0.07946 0.71341 0.0
C226 C 0.80017 0.99817 0.76526 0.0
C227 C 0.86381 0.04135 0.60079 0.0
C228 C 0.7698 0.02116 0.57253 0.0
C229 C 0.82422 0.95693 0.65749 0.0
O230 O 0.76792 0.07476 0.66799 0.0
O231 O 0.85111 0.05453 0.72181 0.0
O232 O 0.77946 0.99855 0.73954 0.0
O233 O 0.84133 0.0547 0.59529 0.0
O234 O 0.7677 0.00191 0.60079 0.0
O235 O 0.84313 0.97451 0.66479 0.0
O236 O 0.78112 0.04452 0.58045 0.0
O237 O 0.8689 0.02716 0.635 0.0
O238 O 0.79856 0.96251 0.6613 0.0
O239 O 0.82872 0.08604 0.68173 0.0
O240 O 0.74606 0.03449 0.67879 0.0
O241 O 0.82508 0.00177 0.75238 0.0
Sc242 Sc 0.43537 0.79842 0.14407 0.0
Sc243 Sc 0.48049 0.83676 0.2085 0.0
Sc244 Sc 0.50209 0.7731 0.16645 0.0
O245 O 0.47272 0.80277 0.17241 0.0
C246 C 0.44731 0.73774 0.18088 0.0
C247 C 0.41564 0.82966 0.22656 0.0
C248 C 0.50224 0.78868 0.26767 0.0
C249 C 0.45198 0.86239 0.1274 0.0
C250 C 0.47566 0.77517 0.07105 0.0
C251 C 0.54068 0.82415 0.16841 0.0
O252 O 0.43135 0.75507 0.16203 0.0
O253 O 0.43798 0.84347 0.22826 0.0
O254 O 0.51293 0.77651 0.2347 0.0
O255 O 0.43559 0.84167 0.12477 0.0
O256 O 0.49379 0.76626 0.09781 0.0
O257 O 0.52418 0.83639 0.19443 0.0
O258 O 0.45423 0.78868 0.08253 0.0
O259 O 0.47305 0.86305 0.15259 0.0
O260 O 0.534 0.80226 0.1479 0.0
O261 O 0.41305 0.80826 0.20285 0.0
O262 O 0.47308 0.74189 0.18639 0.0
O263 O 0.48731 0.81048 0.26453 0.0
Sc264 Sc 0.22962 0.50283 0.8352 0.0
Sc265 Sc 0.16122 0.52026 0.80392 0.0
Sc266 Sc 0.19588 0.56113 0.88104 0.0
O267 O 0.1956 0.52803 0.84009 0.0
C268 C 0.23185 0.51848 0.93648 0.0
C269 C 0.17912 0.46075 0.84108 0.0
C270 C 0.13467 0.53963 0.89466 0.0
C271 C 0.20811 0.50185 0.73692 0.0
C272 C 0.25507 0.56391 0.83378 0.0
C273 C 0.16382 0.58537 0.79768 0.0
O274 O 0.23902 0.50429 0.90351 0.0
O275 O 0.16202 0.478 0.82475 0.0
O276 O 0.15651 0.55107 0.90903 0.0
O277 O 0.22616 0.49703 0.76598 0.0
O278 O 0.23512 0.57418 0.85571 0.0
O279 O 0.15798 0.56204 0.78098 0.0
O280 O 0.25635 0.53834 0.82289 0.0
O281 O 0.18418 0.51132 0.74538 0.0
O282 O 0.17625 0.58825 0.834 0.0
O283 O 0.20475 0.466 0.84727 0.0
O284 O 0.21532 0.53893 0.93396 0.0
O285 O 0.13284 0.5288 0.85696 0.0
Sc286 Sc 0.93721 0.19617 0.37509 0.0
Sc287 Sc 0.97838 0.16589 0.29359 0.0
Sc288 Sc 0.99653 0.23132 0.33671 0.0
O289 O 0.97076 0.19774 0.33525 0.0
C290 C 0.93666 0.25947 0.34302 0.0
C291 C 0.91241 0.16959 0.28925 0.0
C292 C 0.99255 0.21799 0.23479 0.0
C293 C 0.95897 0.13357 0.37847 0.0
C294 C 0.98209 0.22341 0.43724 0.0
C295 C 0.03967 0.182 0.32575 0.0
O296 O 0.926 0.23838 0.36137 0.0
O297 O 0.93577 0.16132 0.27537 0.0
O298 O 0.00045 0.23272 0.26683 0.0
O299 O 0.94439 0.15378 0.39194 0.0
O300 O 0.99581 0.23466 0.4067 0.0
O301 O 0.02211 0.16691 0.30596 0.0
O302 O 0.96137 0.20775 0.43098 0.0
O303 O 0.97408 0.13458 0.34438 0.0
O304 O 0.0335 0.20544 0.34247 0.0
O305 O 0.90925 0.18349 0.32411 0.0
O306 O 0.96191 0.26013 0.3306 0.0
O307 O 0.98242 0.19384 0.2391 0.0
Sc308 Sc 0.29896 0.93917 0.86376 0.0
Sc309 Sc 0.3443 0.98274 0.80521 0.0
Sc310 Sc 0.27421 0.00246 0.8215 0.0
O311 O 0.30587 0.97485 0.83021 0.0
C312 C 0.24358 0.94451 0.80814 0.0
C313 C 0.33931 0.91746 0.78846 0.0
C314 C 0.30382 0.00178 0.72792 0.0
C315 C 0.35878 0.95781 0.89854 0.0
C316 C 0.26472 0.98304 0.92038 0.0
C317 C 0.3249 0.04313 0.8375 0.0
O318 O 0.26054 0.93038 0.83075 0.0
O319 O 0.35096 0.94078 0.7824 0.0
O320 O 0.28359 0.00694 0.7533 0.0
O321 O 0.33639 0.94403 0.90052 0.0
O322 O 0.26102 1.00007 0.88908 0.0
O323 O 0.3429 0.02535 0.82574 0.0
O324 O 0.27813 0.96048 0.91614 0.0
O325 O 0.36496 0.97333 0.86635 0.0
O326 O 0.29904 0.03817 0.83838 0.0
O327 O 0.31941 0.91397 0.81513 0.0
O328 O 0.24603 0.97039 0.80169 0.0
O329 O 0.32722 0.99283 0.74138 0.0
Sc330 Sc 0.507 0.27237 0.32232 0.0
Sc331 Sc 0.51548 0.34414 0.30374 0.0
Sc332 Sc 0.56417 0.30795 0.36768 0.0
O333 O 0.52881 0.30815 0.33138 0.0
C334 C 0.52412 0.26742 0.42222 0.0
C335 C 0.45806 0.31679 0.33056 0.0
C336 C 0.53498 0.36415 0.39851 0.0
C337 C 0.50601 0.29964 0.22736 0.0
C338 C 0.57005 0.25137 0.31535 0.0
C339 C 0.58072 0.35037 0.29173 0.0
O340 O 0.50794 0.26221 0.39052 0.0
O341 O 0.47348 0.33712 0.32108 0.0
O342 O 0.55124 0.34366 0.40397 0.0
O343 O 0.50474 0.27889 0.25292 0.0
O344 O 0.58042 0.27226 0.33454 0.0
O345 O 0.55571 0.35566 0.2823 0.0
O346 O 0.54407 0.24814 0.31019 0.0
O347 O 0.50928 0.32446 0.24075 0.0
O348 O 0.58752 0.33335 0.32171 0.0
O349 O 0.46673 0.29188 0.33287 0.0
O350 O 0.54539 0.2829 0.41863 0.0
O351 O 0.52069 0.36769 0.36389 0.0
H352 H 0.35297 0.54517 0.49752 0.0
H353 H 0.4163 0.535 0.39818 0.0
H354 H 0.45217 0.54792 0.452 0.0
H355 H 0.37618 0.60431 0.53769 0.0
H356 H 0.36799 0.59791 0.59427 0.0
H357 H 0.34889 0.58052 0.55228 0.0
H358 H 0.36176 0.53297 0.58641 0.0
H359 H 0.38105 0.55043 0.6287 0.0
H360 H 0.39768 0.52431 0.59561 0.0
H361 H 0.47915 0.57241 0.51069 0.0
H362 H 0.49358 0.60642 0.56706 0.0
H363 H 0.41287 0.60021 0.62772 0.0
C364 C 0.37449 0.54468 0.48742 0.0
C365 C 0.38179 0.53908 0.44362 0.0
C366 C 0.41017 0.53896 0.43164 0.0
C367 C 0.43073 0.54622 0.46209 0.0
C368 C 0.42264 0.55303 0.50456 0.0
C369 C 0.39513 0.55187 0.51733 0.0
C370 C 0.391 0.5641 0.56237 0.0
C371 C 0.3698 0.58813 0.56154 0.0
C372 C 0.38237 0.5416 0.59521 0.0
C373 C 0.42004 0.57429 0.57162 0.0
C374 C 0.43829 0.567 0.53864 0.0
C375 C 0.46533 0.57742 0.53741 0.0
C376 C 0.47346 0.5966 0.56959 0.0
C377 C 0.45444 0.6052 0.60197 0.0
C378 C 0.42794 0.5931 0.60392 0.0
H379 H 0.85674 0.45213 0.0292 0.0
H380 H 0.92413 0.45395 0.12206 0.0
H381 H 0.95714 0.44144 0.06268 0.0
H382 H 0.87451 0.39369 0.98034 0.0
H383 H 0.86374 0.40317 0.92592 0.0
H384 H 0.84785 0.41942 0.97215 0.0
H385 H 0.86165 0.46802 0.94192 0.0
H386 H 0.8773 0.45138 0.89523 0.0
H387 H 0.89734 0.47487 0.92838 0.0
H388 H 0.98005 0.41881 0.99686 0.0
H389 H 0.98985 0.38771 0.93409 0.0
H390 H 0.90648 0.40041 0.88615 0.0
C391 C 0.87861 0.45096 0.03651 0.0
C392 C 0.88805 0.45406 0.07967 0.0
C393 C 0.91668 0.45199 0.08882 0.0
C394 C 0.93546 0.44494 0.05528 0.0
C395 C 0.92513 0.44065 0.01305 0.0
C396 C 0.89726 0.44399 0.00368 0.0
C397 C 0.89011 0.43414 0.95824 0.0
C398 C 0.86778 0.41126 0.95929 0.0
C399 C 0.88108 0.45856 0.92922 0.0
C400 C 0.91789 0.42286 0.94421 0.0
C401 C 0.93815 0.42749 0.9755 0.0
C402 C 0.96459 0.41583 0.97168 0.0
C403 C 0.97003 0.39828 0.93598 0.0
C404 C 0.94894 0.39234 0.90535 0.0
C405 C 0.92302 0.40544 0.90875 0.0
H406 H 0.04418 0.85786 0.50699 0.0
H407 H 0.03983 0.9135 0.61824 0.0
H408 H 0.05576 0.952 0.57196 0.0
H409 H 0.10433 0.87901 0.46866 0.0
H410 H 0.09667 0.87675 0.41111 0.0
H411 H 0.07792 0.85565 0.44914 0.0
H412 H 0.03144 0.87581 0.42068 0.0
H413 H 0.05023 0.89694 0.38216 0.0
H414 H 0.02622 0.91285 0.41977 0.0
H415 H 0.08419 0.98016 0.52086 0.0
H416 H 0.11891 0.9962 0.46671 0.0
H417 H 0.10209 0.92421 0.38683 0.0
C418 C 0.04547 0.87839 0.52119 0.0
C419 C 0.04084 0.88257 0.56627 0.0
C420 C 0.0431 0.90971 0.58375 0.0
C421 C 0.05211 0.93181 0.55764 0.0
C422 C 0.05811 0.92664 0.51386 0.0
C423 C 0.05421 0.90071 0.49544 0.0
C424 C 0.06551 0.89957 0.44934 0.0
C425 C 0.08741 0.8764 0.44434 0.0
C426 C 0.04194 0.8961 0.41602 0.0
C427 C 0.07836 0.92811 0.44606 0.0
C428 C 0.07346 0.94368 0.48326 0.0
C429 C 0.08717 0.96878 0.49074 0.0
C430 C 0.1068 0.97778 0.45998 0.0
C431 C 0.11213 0.96184 0.42225 0.0
C432 C 0.0972 0.93726 0.41463 0.0
H433 H 0.58105 0.10052 0.88514 0.0
H434 H 0.50645 0.11828 0.95832 0.0
H435 H 0.52035 0.08361 0.01417 0.0
H436 H 0.58957 0.02388 0.91982 0.0
H437 H 0.62663 0.02834 0.92269 0.0
H438 H 0.6067 0.0472 0.88257 0.0
H439 H 0.62718 0.09335 0.91135 0.0
H440 H 0.64689 0.07479 0.95143 0.0
H441 H 0.62347 0.10194 0.96841 0.0
H442 H 0.5471 0.05577 0.0687 0.0
H443 H 0.58466 0.04038 0.11807 0.0
H444 H 0.64254 0.04198 0.00986 0.0
C445 C 0.56707 0.0959 0.91187 0.0
C446 C 0.54248 0.11121 0.91736 0.0
C447 C 0.52504 0.10601 0.95341 0.0
C448 C 0.53278 0.08635 0.98506 0.0
C449 C 0.55792 0.07223 0.9798 0.0
C450 C 0.5747 0.07664 0.94372 0.0
C451 C 0.60284 0.06319 0.94922 0.0
C452 C 0.60664 0.03922 0.91665 0.0
C453 C 0.62644 0.0846 0.9449 0.0
C454 C 0.60018 0.05244 0.99539 0.0
C455 C 0.57382 0.05682 0.01197 0.0
C456 C 0.56756 0.05155 0.05572 0.0
C457 C 0.589 0.04276 0.08355 0.0
C458 C 0.6164 0.04001 0.06758 0.0
C459 C 0.62166 0.0437 0.02267 0.0
H460 H 0.54246 0.35585 0.48525 0.0
H461 H 0.52955 0.42055 0.38918 0.0
H462 H 0.54233 0.45588 0.4442 0.0
H463 H 0.52175 0.39939 0.5864 0.0
H464 H 0.54836 0.38245 0.6181 0.0
H465 H 0.53037 0.36359 0.57589 0.0
H466 H 0.57734 0.35116 0.53999 0.0
H467 H 0.59535 0.36988 0.58172 0.0
H468 H 0.60088 0.37863 0.52511 0.0
H469 H 0.56876 0.48178 0.50159 0.0
H470 H 0.60443 0.49529 0.55583 0.0
H471 H 0.59856 0.41436 0.61576 0.0
C472 C 0.54115 0.37758 0.47643 0.0
C473 C 0.53498 0.38555 0.43312 0.0
C474 C 0.53384 0.41406 0.42238 0.0
C475 C 0.54109 0.43425 0.45349 0.0
C476 C 0.54873 0.42558 0.49538 0.0
C477 C 0.54814 0.39785 0.50713 0.0
C478 C 0.56107 0.3932 0.55161 0.0
C479 C 0.53906 0.38414 0.58497 0.0
C480 C 0.58508 0.37201 0.5494 0.0
C481 C 0.57134 0.42219 0.56138 0.0
C482 C 0.56337 0.44083 0.52927 0.0
C483 C 0.57416 0.46773 0.52784 0.0
C484 C 0.5943 0.47534 0.55881 0.0
C485 C 0.6033 0.4561 0.59058 0.0
C486 C 0.59092 0.42971 0.59282 0.0
H487 H 0.10266 0.58469 0.89217 0.0
H488 H 0.1124 0.50552 0.95671 0.0
H489 H 0.07693 0.51919 0.01139 0.0
H490 H 0.10453 0.6225 0.98057 0.0
H491 H 0.07981 0.64881 0.9649 0.0
H492 H 0.09805 0.62979 0.92366 0.0
H493 H 0.05154 0.61464 0.8891 0.0
H494 H 0.03299 0.63389 0.93034 0.0
H495 H 0.0258 0.59757 0.92222 0.0
H496 H 0.04937 0.54518 0.06713 0.0
H497 H 0.03513 0.58126 0.12014 0.0
H498 H 0.04495 0.64414 0.02029 0.0
C499 C 0.09608 0.5698 0.91657 0.0
C500 C 0.10938 0.54392 0.92005 0.0
C501 C 0.10167 0.52517 0.95325 0.0
C502 C 0.08155 0.53279 0.98424 0.0
C503 C 0.06953 0.55915 0.98123 0.0
C504 C 0.07639 0.5773 0.94782 0.0
C505 C 0.06498 0.60608 0.95607 0.0
C506 C 0.08823 0.62804 0.95637 0.0
C507 C 0.04248 0.61346 0.92244 0.0
C508 C 0.0526 0.60194 0.00095 0.0
C509 C 0.05437 0.57455 0.01428 0.0
C510 C 0.04718 0.56651 0.05663 0.0
C511 C 0.03908 0.5871 0.08654 0.0
C512 C 0.03896 0.61534 0.07405 0.0
C513 C 0.04465 0.62259 0.03035 0.0
H514 H 0.91281 0.10331 0.37908 0.0
H515 H 0.99499 0.1081 0.43478 0.0
H516 H 0.98123 0.07475 0.49249 0.0
H517 H 0.87908 0.10973 0.47012 0.0
H518 H 0.85054 0.08666 0.45911 0.0
H519 H 0.86882 0.10239 0.41463 0.0
H520 H 0.87953 0.05421 0.38156 0.0
H521 H 0.86071 0.03811 0.42566 0.0
H522 H 0.89602 0.02798 0.41462 0.0
H523 H 0.95535 0.05045 0.5529 0.0
H524 H 0.92055 0.03802 0.60906 0.0
H525 H 0.85486 0.05106 0.51456 0.0
C526 C 0.92831 0.09587 0.40192 0.0
C527 C 0.95512 0.10738 0.40204 0.0
C528 C 0.97467 0.09861 0.43349 0.0
C529 C 0.96691 0.07981 0.46645 0.0
C530 C 0.93962 0.07003 0.46709 0.0
C531 C 0.92074 0.07745 0.43501 0.0
C532 C 0.89162 0.06846 0.44672 0.0
C533 C 0.87137 0.09329 0.44774 0.0
C534 C 0.88138 0.04584 0.41527 0.0
C535 C 0.89662 0.05679 0.49187 0.0
C536 C 0.92448 0.05694 0.50261 0.0
C537 C 0.93358 0.04961 0.5444 0.0
C538 C 0.91369 0.04261 0.57614 0.0
C539 C 0.88506 0.04368 0.56612 0.0
C540 C 0.87664 0.05002 0.52309 0.0
H541 H 0.34643 0.94119 0.98078 0.0
H542 H 0.41544 0.96587 0.89883 0.0
H543 H 0.44814 0.95192 0.95736 0.0
H544 H 0.37901 0.95852 0.08975 0.0
H545 H 0.36335 0.92842 0.11441 0.0
H546 H 0.34571 0.94649 0.07093 0.0
H547 H 0.34244 0.90072 0.02703 0.0
H548 H 0.36003 0.88254 0.07 0.0
H549 H 0.37367 0.88148 0.01518 0.0
H550 H 0.47307 0.92713 0.0193 0.0
H551 H 0.48717 0.89333 0.07644 0.0
H552 H 0.40133 0.88452 0.11538 0.0
C553 C 0.3684 0.94441 0.97552 0.0
C554 C 0.37844 0.95449 0.93526 0.0
C555 C 0.40731 0.95836 0.9296 0.0
C556 C 0.426 0.95054 0.96272 0.0
C557 C 0.41538 0.93942 0.00141 0.0
C558 C 0.38713 0.93675 0.00802 0.0
C559 C 0.38073 0.92092 0.04938 0.0
C560 C 0.36636 0.93972 0.08311 0.0
C561 C 0.36322 0.89488 0.03977 0.0
C562 C 0.40975 0.91344 0.06368 0.0
C563 C 0.4296 0.92492 0.03652 0.0
C564 C 0.45774 0.91858 0.04131 0.0
C565 C 0.4656 0.89943 0.07377 0.0
C566 C 0.44525 0.88656 0.10005 0.0
C567 C 0.41723 0.89434 0.09575 0.0
H568 H 0.35038 0.42709 0.27335 0.0
H569 H 0.32345 0.42436 0.40801 0.0
H570 H 0.34715 0.37895 0.41751 0.0
H571 H 0.34762 0.34878 0.25326 0.0
H572 H 0.37796 0.3507 0.219 0.0
H573 H 0.35383 0.37932 0.22074 0.0
H574 H 0.39382 0.4127 0.24165 0.0
H575 H 0.41788 0.38437 0.23957 0.0
H576 H 0.41498 0.40485 0.28866 0.0
H577 H 0.38248 0.34011 0.41606 0.0
H578 H 0.42541 0.31273 0.4037 0.0
H579 H 0.42631 0.33907 0.26875 0.0
C580 C 0.34869 0.41629 0.30428 0.0
C581 C 0.3351 0.42873 0.33987 0.0
C582 C 0.33357 0.41469 0.3803 0.0
C583 C 0.34687 0.38893 0.38584 0.0
C584 C 0.3609 0.37738 0.35025 0.0
C585 C 0.3614 0.39048 0.30997 0.0
C586 C 0.38049 0.37584 0.27836 0.0
C587 C 0.36398 0.36288 0.24061 0.0
C588 C 0.40312 0.3956 0.26113 0.0
C589 C 0.39237 0.3537 0.30795 0.0
C590 C 0.38045 0.35436 0.34907 0.0
C591 C 0.39124 0.33865 0.38359 0.0
C592 C 0.41549 0.32298 0.37634 0.0
C593 C 0.42849 0.32337 0.33501 0.0
C594 C 0.41601 0.33778 0.30015 0.0
H595 H 0.04605 0.37523 0.87503 0.0
H596 H 0.08928 0.30394 0.82225 0.0
H597 H 0.13423 0.3282 0.83235 0.0
H598 H 0.08162 0.42431 0.8236 0.0
H599 H 0.0822 0.44922 0.86753 0.0
H600 H 0.05504 0.42396 0.86506 0.0
H601 H 0.06744 0.40726 0.9432 0.0
H602 H 0.09481 0.43263 0.94587 0.0
H603 H 0.10242 0.3965 0.9554 0.0
H604 H 0.17263 0.3644 0.83375 0.0
H605 H 0.19971 0.40802 0.82713 0.0
H606 H 0.13096 0.45383 0.8828 0.0
C607 C 0.06512 0.36446 0.86692 0.0
C608 C 0.06449 0.33793 0.84789 0.0
C609 C 0.08959 0.32429 0.83728 0.0
C610 C 0.11512 0.33788 0.84302 0.0
C611 C 0.11501 0.36465 0.86055 0.0
C612 C 0.09056 0.37749 0.87319 0.0
C613 C 0.09523 0.40721 0.88664 0.0
C614 C 0.0775 0.42733 0.85903 0.0
C615 C 0.08965 0.41111 0.9357 0.0
C616 C 0.12572 0.40987 0.87649 0.0
C617 C 0.13712 0.38506 0.86243 0.0
C618 C 0.16417 0.38371 0.84597 0.0
C619 C 0.17945 0.40849 0.8424 0.0
C620 C 0.16731 0.43402 0.8547 0.0
C621 C 0.14071 0.43439 0.87365 0.0
H622 H 0.14862 0.06863 0.26341 0.0
H623 H 0.18739 0.08023 0.38953 0.0
H624 H 0.16012 0.12359 0.40012 0.0
H625 H 0.14048 0.14456 0.23448 0.0
H626 H 0.10757 0.13766 0.20879 0.0
H627 H 0.13457 0.11172 0.20792 0.0
H628 H 0.10074 0.07628 0.24265 0.0
H629 H 0.07385 0.10203 0.24412 0.0
H630 H 0.08407 0.08464 0.29373 0.0
H631 H 0.12161 0.16097 0.40149 0.0
H632 H 0.07764 0.18751 0.39306 0.0
H633 H 0.06552 0.15014 0.26581 0.0
C634 C 0.15215 0.08093 0.29251 0.0
C635 C 0.17019 0.07141 0.32547 0.0
C636 C 0.174 0.08758 0.36356 0.0
C637 C 0.15851 0.11213 0.36982 0.0
C638 C 0.1398 0.12032 0.33729 0.0
C639 C 0.13707 0.1053 0.29898 0.0
C640 C 0.11363 0.11611 0.27102 0.0
C641 C 0.12473 0.12824 0.22801 0.0
C642 C 0.0918 0.09342 0.26244 0.0
C643 C 0.10245 0.13863 0.30042 0.0
C644 C 0.11797 0.14133 0.33818 0.0
C645 C 0.10973 0.15937 0.3716 0.0
C646 C 0.08479 0.17442 0.36658 0.0
C647 C 0.06825 0.17085 0.32879 0.0
C648 C 0.07779 0.15336 0.29502 0.0
H649 H 0.37021 0.05508 0.88549 0.0
H650 H 0.30334 0.09346 0.81295 0.0
H651 H 0.32701 0.13896 0.81844 0.0
H652 H 0.38733 0.11843 0.95671 0.0
H653 H 0.42371 0.10989 0.95421 0.0
H654 H 0.39814 0.08264 0.95409 0.0
H655 H 0.4191 0.06316 0.88233 0.0
H656 H 0.44451 0.0902 0.88223 0.0
H657 H 0.4222 0.08567 0.83551 0.0
H658 H 0.36348 0.17687 0.8164 0.0
H659 H 0.40788 0.20243 0.80859 0.0
H660 H 0.44923 0.13958 0.88583 0.0
C661 C 0.36008 0.07334 0.87233 0.0
C662 C 0.33505 0.07099 0.849 0.0
C663 C 0.32239 0.09505 0.83153 0.0
C664 C 0.3357 0.12093 0.83453 0.0
C665 C 0.36118 0.12238 0.85616 0.0
C666 C 0.37286 0.0992 0.87567 0.0
C667 C 0.40179 0.10497 0.89211 0.0
C668 C 0.40278 0.10393 0.94226 0.0
C669 C 0.42312 0.08483 0.87179 0.0
C670 C 0.40556 0.13427 0.87567 0.0
C671 C 0.38179 0.1444 0.85595 0.0
C672 C 0.38189 0.16954 0.83304 0.0
C673 C 0.40711 0.18402 0.82885 0.0
C674 C 0.4317 0.17298 0.84703 0.0
C675 C 0.43049 0.1486 0.87231 0.0
H676 H 0.9241 0.66109 0.22213 0.0
H677 H 0.93072 0.68317 0.08565 0.0
H678 H 0.88896 0.65493 0.0694 0.0
H679 H 0.91373 0.59495 0.20685 0.0
H680 H 0.88981 0.58887 0.25108 0.0
H681 H 0.9137 0.61721 0.25421 0.0
H682 H 0.87321 0.65193 0.26531 0.0
H683 H 0.84899 0.62351 0.26315 0.0
H684 H 0.84493 0.65266 0.2268 0.0
H685 H 0.85329 0.61602 0.06651 0.0
H686 H 0.82819 0.57158 0.0773 0.0
H687 H 0.84742 0.57443 0.21538 0.0
C688 C 0.91577 0.66111 0.18924 0.0
C689 C 0.93005 0.67452 0.15523 0.0
C690 C 0.91946 0.67354 0.11223 0.0
C691 C 0.89586 0.65745 0.1028 0.0
C692 C 0.88314 0.64292 0.13691 0.0
C693 C 0.89257 0.64511 0.17951 0.0
C694 C 0.8788 0.62429 0.20926 0.0
C695 C 0.90029 0.60522 0.23159 0.0
C696 C 0.86038 0.63898 0.24312 0.0
C697 C 0.86154 0.60866 0.17642 0.0
C698 C 0.86349 0.62008 0.13506 0.0
C699 C 0.85114 0.60735 0.09894 0.0
C700 C 0.83698 0.58214 0.10527 0.0
C701 C 0.83606 0.56976 0.14713 0.0
C702 C 0.84784 0.58361 0.18307 0.0
H703 H 0.9505 0.86278 0.61834 0.0
H704 H 0.91257 0.80248 0.70429 0.0
H705 H 0.86721 0.82644 0.69576 0.0
H706 H 0.92091 0.91887 0.66004 0.0
H707 H 0.91641 0.9376 0.60954 0.0
H708 H 0.94317 0.91192 0.61394 0.0
H709 H 0.92314 0.88612 0.54667 0.0
H710 H 0.89611 0.91188 0.54212 0.0
H711 H 0.88727 0.87566 0.54645 0.0
H712 H 0.82925 0.86298 0.69022 0.0
H713 H 0.80392 0.90782 0.68972 0.0
H714 H 0.86703 0.94284 0.60585 0.0
C715 C 0.9324 0.85413 0.63426 0.0
C716 C 0.93483 0.83095 0.662 0.0
C717 C 0.91093 0.82014 0.68256 0.0
C718 C 0.88514 0.83359 0.67776 0.0
C719 C 0.88368 0.85726 0.65142 0.0
C720 C 0.90674 0.86707 0.62942 0.0
C721 C 0.90116 0.89467 0.60778 0.0
C722 C 0.92159 0.91705 0.62383 0.0
C723 C 0.90196 0.8919 0.55778 0.0
C724 C 0.87202 0.90005 0.62372 0.0
C725 C 0.86183 0.878 0.64781 0.0
C726 C 0.83668 0.87999 0.67036 0.0
C727 C 0.82233 0.90546 0.66978 0.0
C728 C 0.83353 0.92853 0.64742 0.0
C729 C 0.85789 0.92527 0.62257 0.0
H730 H 0.5678 0.85476 0.22839 0.0
H731 H 0.57636 0.82139 0.09759 0.0
H732 H 0.62024 0.84773 0.08849 0.0
H733 H 0.58571 0.92053 0.2043 0.0
H734 H 0.60374 0.92737 0.25474 0.0
H735 H 0.57683 0.90177 0.25328 0.0
H736 H 0.61107 0.86485 0.28347 0.0
H737 H 0.63823 0.89047 0.28494 0.0
H738 H 0.64334 0.8585 0.25543 0.0
H739 H 0.65923 0.88402 0.09063 0.0
H740 H 0.68711 0.92666 0.10271 0.0
H741 H 0.65137 0.93517 0.2317 0.0
C742 C 0.57917 0.85246 0.19808 0.0
C743 C 0.56869 0.83618 0.1636 0.0
C744 C 0.58418 0.83366 0.12452 0.0
C745 C 0.60912 0.8485 0.11917 0.0
C746 C 0.61837 0.86521 0.15355 0.0
C747 C 0.60385 0.86691 0.19242 0.0
C748 C 0.6159 0.88839 0.22278 0.0
C749 C 0.59427 0.91083 0.23439 0.0
C750 C 0.62785 0.87473 0.26409 0.0
C751 C 0.63864 0.89976 0.19418 0.0
C752 C 0.64039 0.88582 0.15473 0.0
C753 C 0.65841 0.89462 0.12177 0.0
C754 C 0.67425 0.91873 0.12889 0.0
C755 C 0.67141 0.93381 0.16827 0.0
C756 C 0.65412 0.92365 0.20159 0.0
H757 H 0.56902 0.64856 0.73149 0.0
H758 H 0.57504 0.68424 0.60197 0.0
H759 H 0.61791 0.65683 0.58863 0.0
H760 H 0.64552 0.64166 0.75296 0.0
H761 H 0.64017 0.60931 0.78126 0.0
H762 H 0.61389 0.63597 0.78303 0.0
H763 H 0.57766 0.6009 0.75377 0.0
H764 H 0.60371 0.5743 0.75167 0.0
H765 H 0.58436 0.58296 0.70314 0.0
H766 H 0.65581 0.61889 0.58604 0.0
H767 H 0.68322 0.57544 0.59448 0.0
H768 H 0.6509 0.56579 0.72556 0.0
C769 C 0.57981 0.65128 0.70075 0.0
C770 C 0.5688 0.66854 0.6678 0.0
C771 C 0.58336 0.67139 0.62789 0.0
C772 C 0.60769 0.65584 0.62006 0.0
C773 C 0.61734 0.63802 0.6528 0.0
C774 C 0.60392 0.63611 0.69264 0.0
C775 C 0.61615 0.61352 0.72093 0.0
C776 C 0.62975 0.62586 0.76197 0.0
C777 C 0.59417 0.59164 0.73303 0.0
C778 C 0.63766 0.60188 0.69012 0.0
C779 C 0.63865 0.61649 0.65126 0.0
C780 C 0.65555 0.60773 0.61671 0.0
C781 C 0.67113 0.58311 0.62176 0.0
C782 C 0.6692 0.56743 0.66072 0.0
C783 C 0.6529 0.57752 0.69553 0.0
H784 H 0.21338 0.53231 0.01871 0.0
H785 H 0.28002 0.49003 0.95002 0.0
H786 H 0.30376 0.48147 0.01999 0.0
H787 H 0.25497 0.56566 0.09885 0.0
H788 H 0.23059 0.5609 0.14284 0.0
H789 H 0.21837 0.56332 0.0874 0.0
H790 H 0.19352 0.51598 0.09561 0.0
H791 H 0.20561 0.51351 0.15117 0.0
H792 H 0.21307 0.48602 0.11298 0.0
H793 H 0.32207 0.48061 0.09624 0.0
H794 H 0.33149 0.48351 0.17556 0.0
H795 H 0.25176 0.5235 0.19528 0.0
C796 C 0.23288 0.52111 0.01845 0.0
C797 C 0.24486 0.51189 0.97892 0.0
C798 C 0.27034 0.49716 0.97993 0.0
C799 C 0.28407 0.49228 0.01947 0.0
C800 C 0.27187 0.50191 0.05777 0.0
C801 C 0.24668 0.51566 0.05774 0.0
C802 C 0.238 0.52356 0.10365 0.0
C803 C 0.23534 0.55524 0.10844 0.0
C804 C 0.21095 0.50888 0.11661 0.0
C805 C 0.26247 0.51244 0.12927 0.0
C806 C 0.28188 0.50026 0.10213 0.0
C807 C 0.30689 0.48975 0.11796 0.0
C808 C 0.31211 0.49159 0.1629 0.0
C809 C 0.29222 0.50344 0.19133 0.0
C810 C 0.26709 0.5139 0.17425 0.0
H811 H 0.99289 0.31192 0.65464 0.0
H812 H 0.01399 0.23466 0.72028 0.0
H813 H 0.01629 0.21095 0.64967 0.0
H814 H 0.94909 0.28371 0.57721 0.0
H815 H 0.95967 0.30552 0.5324 0.0
H816 H 0.96289 0.3178 0.58765 0.0
H817 H 0.01529 0.32684 0.57558 0.0
H818 H 0.0122 0.31477 0.52005 0.0
H819 H 0.03723 0.2991 0.55623 0.0
H820 H 0.00911 0.19373 0.5749 0.0
H821 H 0.99733 0.18525 0.49735 0.0
H822 H 0.98436 0.27339 0.47804 0.0
C823 C 0.99861 0.29018 0.65409 0.0
C824 C 0.00312 0.27525 0.69318 0.0
C825 C 0.01035 0.2467 0.69096 0.0
C826 C 0.0118 0.23294 0.65093 0.0
C827 C 0.00645 0.24802 0.61322 0.0
C828 C 0.00047 0.27609 0.61418 0.0
C829 C 0.99417 0.28691 0.56879 0.0
C830 C 0.96471 0.2992 0.5664 0.0
C831 C 0.01603 0.30816 0.55431 0.0
C832 C 0.99647 0.26031 0.54269 0.0
C833 C 0.00362 0.23814 0.56906 0.0
C834 C 0.00426 0.21096 0.55355 0.0
C835 C 0.99743 0.2063 0.50976 0.0
C836 C 0.99053 0.22876 0.48223 0.0
C837 C 0.99034 0.25608 0.49859 0.0
H838 H 0.28542 0.96942 0.00096 0.0
H839 H 0.21628 0.01052 0.93712 0.0
H840 H 0.19408 0.0181 0.00901 0.0
H841 H 0.24769 0.93474 0.08355 0.0
H842 H 0.27302 0.94022 0.12599 0.0
H843 H 0.28385 0.93852 0.06977 0.0
H844 H 0.30705 0.98669 0.07665 0.0
H845 H 0.29658 0.98836 0.13309 0.0
H846 H 0.28697 0.0158 0.09598 0.0
H847 H 0.17757 0.01732 0.08671 0.0
H848 H 0.17006 0.01313 0.16632 0.0
H849 H 0.25169 0.9763 0.18085 0.0
C850 C 0.26566 0.98014 0.00221 0.0
C851 C 0.25241 0.98926 0.96353 0.0
C852 C 0.22677 0.00348 0.96639 0.0
C853 C 0.21399 0.00777 0.00703 0.0
C854 C 0.22743 0.99824 0.0445 0.0
C855 C 0.25294 0.98519 0.04258 0.0
C856 C 0.26316 0.97742 0.08785 0.0
C857 C 0.26715 0.94585 0.09201 0.0
C858 C 0.29003 0.99301 0.09905 0.0
C859 C 0.23907 0.98755 0.11546 0.0
C860 C 0.2186 0.99927 0.08969 0.0
C861 C 0.19362 0.0086 0.1073 0.0
C862 C 0.18949 0.00603 0.15244 0.0
C863 C 0.21039 0.99467 0.17959 0.0
C864 C 0.23557 0.98549 0.16084 0.0
H865 H 0.53743 0.28642 0.50454 0.0
H866 H 0.49669 0.21894 0.43612 0.0
H867 H 0.48605 0.19656 0.50653 0.0
H868 H 0.56774 0.24579 0.59052 0.0
H869 H 0.56155 0.27123 0.63257 0.0
H870 H 0.56636 0.28217 0.57684 0.0
H871 H 0.51932 0.30799 0.57894 0.0
H872 H 0.51447 0.29727 0.63479 0.0
H873 H 0.48842 0.28944 0.59442 0.0
H874 H 0.48203 0.1801 0.58342 0.0
H875 H 0.48245 0.17195 0.66316 0.0
H876 H 0.52262 0.25144 0.68271 0.0
C877 C 0.52637 0.26689 0.50446 0.0
C878 C 0.51799 0.25433 0.46485 0.0
C879 C 0.50323 0.22896 0.46606 0.0
C880 C 0.49712 0.21606 0.50587 0.0
C881 C 0.50555 0.22897 0.5443 0.0
C882 C 0.51962 0.25393 0.54407 0.0
C883 C 0.5258 0.26355 0.59024 0.0
C884 C 0.55724 0.2658 0.59796 0.0
C885 C 0.51111 0.2912 0.60017 0.0
C886 C 0.51332 0.23988 0.61627 0.0
C887 C 0.50194 0.22008 0.58904 0.0
C888 C 0.49053 0.1956 0.60517 0.0
C889 C 0.49089 0.19112 0.65041 0.0
C890 C 0.50218 0.21122 0.67897 0.0
C891 C 0.51329 0.23602 0.66162 0.0
H892 H 0.81103 0.4995 0.3355 0.0
H893 H 0.73377 0.51314 0.26546 0.0
H894 H 0.70825 0.51265 0.33477 0.0
H895 H 0.78563 0.45295 0.41196 0.0
H896 H 0.80529 0.4658 0.45774 0.0
H897 H 0.81835 0.47007 0.4031 0.0
H898 H 0.82186 0.52318 0.41493 0.0
H899 H 0.80902 0.51906 0.46986 0.0
H900 H 0.7917 0.54231 0.43259 0.0
H901 H 0.69015 0.50349 0.40911 0.0
H902 H 0.68137 0.49178 0.48667 0.0
H903 H 0.7699 0.48801 0.51032 0.0
C904 C 0.78884 0.50298 0.33486 0.0
C905 C 0.7745 0.50638 0.29495 0.0
C906 C 0.74537 0.51071 0.29552 0.0
C907 C 0.73059 0.51041 0.33477 0.0
C908 C 0.74521 0.5063 0.37334 0.0
C909 C 0.77372 0.50323 0.37394 0.0
C910 C 0.78414 0.49817 0.41996 0.0
C911 C 0.79923 0.47008 0.42336 0.0
C912 C 0.80278 0.52211 0.43524 0.0
C913 C 0.75693 0.49788 0.44468 0.0
C914 C 0.73472 0.50252 0.41707 0.0
C915 C 0.70734 0.50057 0.43137 0.0
C916 C 0.70253 0.49381 0.47521 0.0
C917 C 0.725 0.48959 0.50406 0.0
C918 C 0.75248 0.4919 0.48881 0.0
H919 H 0.03359 0.7501 0.81588 0.0
H920 H 0.9907 0.82872 0.83146 0.0
H921 H 0.98906 0.82144 0.91134 0.0
H922 H 0.99904 0.71194 0.90033 0.0
H923 H 0.02984 0.69428 0.91896 0.0
H924 H 0.0271 0.70514 0.86283 0.0
H925 H 0.07286 0.73323 0.86995 0.0
H926 H 0.07581 0.72152 0.92565 0.0
H927 H 0.0763 0.75811 0.91348 0.0
H928 H 0.99067 0.80517 0.98851 0.0
H929 H 0.99851 0.78268 0.05974 0.0
H930 H 0.0432 0.71584 0.99538 0.0
C931 C 0.02369 0.76564 0.8362 0.0
C932 C 0.01198 0.78985 0.81767 0.0
C933 C 0.99974 0.81005 0.84515 0.0
C934 C 0.99865 0.80605 0.89046 0.0
C935 C 0.01037 0.78199 0.90776 0.0
C936 C 0.02301 0.76228 0.88165 0.0
C937 C 0.03517 0.73895 0.90894 0.0
C938 C 0.02198 0.71092 0.89705 0.0
C939 C 0.06692 0.73789 0.90423 0.0
C940 C 0.02676 0.74833 0.95434 0.0
C941 C 0.0124 0.77316 0.95277 0.0
C942 C 0.00203 0.78581 0.99025 0.0
C943 C 0.00652 0.77281 0.03054 0.0
C944 C 0.02154 0.74755 0.03318 0.0
C945 C 0.03184 0.73525 0.99446 0.0
H946 H 0.75293 0.0306 0.3123 0.0
H947 H 0.6723 0.9924 0.32931 0.0
H948 H 0.68059 0.98904 0.40885 0.0
H949 H 0.7899 0.9925 0.39581 0.0
H950 H 0.80955 0.02196 0.41453 0.0
H951 H 0.79824 0.02022 0.35851 0.0
H952 H 0.77362 0.06763 0.36645 0.0
H953 H 0.78515 0.06976 0.4223 0.0
H954 H 0.74874 0.07271 0.40968 0.0
H955 H 0.69807 0.98815 0.48533 0.0
H956 H 0.7214 0.99461 0.55638 0.0
H957 H 0.78891 0.0376 0.49179 0.0
C958 C 0.73719 0.02135 0.3329 0.0
C959 C 0.7121 0.01144 0.31493 0.0
C960 C 0.69165 1.00002 0.34268 0.0
C961 C 0.69622 0.99795 0.38775 0.0
C962 C 0.72112 0.00791 0.40458 0.0
C963 C 0.74112 0.01981 0.37823 0.0
C964 C 0.76531 0.03038 0.40522 0.0
C965 C 0.79235 0.01536 0.39276 0.0
C966 C 0.76836 0.062 0.40065 0.0
C967 C 0.7558 0.02237 0.45076 0.0
C968 C 0.73047 0.00903 0.44941 0.0
C969 C 0.7178 0.99876 0.48692 0.0
C970 C 0.73124 0.00242 0.52704 0.0
C971 C 0.7568 0.0167 0.52946 0.0
C972 C 0.76921 0.02685 0.4908 0.0
H973 H 0.48678 0.72658 0.02801 0.0
H974 H 0.47423 0.81486 0.00896 0.0
H975 H 0.48098 0.80901 0.92945 0.0
H976 H 0.53789 0.71538 0.94144 0.0
H977 H 0.52338 0.68259 0.9249 0.0
H978 H 0.52028 0.69389 0.98082 0.0
H979 H 0.46689 0.68854 0.97643 0.0
H980 H 0.46983 0.6772 0.92057 0.0
H981 H 0.44801 0.70638 0.93402 0.0
H982 H 0.48859 0.79397 0.85327 0.0
H983 H 0.49187 0.77012 0.78251 0.0
H984 H 0.49565 0.69056 0.84901 0.0
C985 C 0.48588 0.74462 0.00694 0.0
C986 C 0.48037 0.77122 0.02416 0.0
C987 C 0.47856 0.79438 0.99599 0.0
C988 C 0.48248 0.79127 0.95099 0.0
C989 C 0.4877 0.76477 0.93481 0.0
C990 C 0.48903 0.74175 0.96168 0.0
C991 C 0.49258 0.71537 0.93523 0.0
C992 C 0.52018 0.70096 0.94626 0.0
C993 C 0.46785 0.69572 0.94197 0.0
C994 C 0.49292 0.72721 0.88935 0.0
C995 C 0.49059 0.7558 0.89012 0.0
C996 C 0.49047 0.7716 0.85215 0.0
C997 C 0.49247 0.75782 0.81212 0.0
C998 C 0.4941 0.72847 0.81028 0.0
C999 C 0.49441 0.71299 0.84948 0.0
H1000 H 0.69737 0.50107 0.83447 0.0
H1001 H 0.77225 0.47589 0.76619 0.0
H1002 H 0.79608 0.46931 0.83655 0.0
H1003 H 0.73359 0.53963 0.92092 0.0
H1004 H 0.70927 0.52956 0.9627 0.0
H1005 H 0.69796 0.53278 0.90681 0.0
H1006 H 0.67973 0.48227 0.90882 0.0
H1007 H 0.69113 0.47882 0.96459 0.0
H1008 H 0.703 0.45453 0.92386 0.0
H1009 H 0.81023 0.46073 0.91303 0.0
H1010 H 0.81617 0.45674 0.99277 0.0
H1011 H 0.73442 0.49187 0.013 0.0
C1012 C 0.71884 0.49444 0.8345 0.0
C1013 C 0.73301 0.48903 0.795 0.0
C1014 C 0.76112 0.48044 0.79611 0.0
C1015 C 0.7748 0.47649 0.83588 0.0
C1016 C 0.76025 0.48175 0.87422 0.0
C1017 C 0.73311 0.49105 0.87404 0.0
C1018 C 0.72259 0.4955 0.92021 0.0
C1019 C 0.71544 0.5262 0.92811 0.0
C1020 C 0.69763 0.47665 0.92992 0.0
C1021 C 0.7479 0.48674 0.94619 0.0
C1022 C 0.76921 0.47855 0.91886 0.0
C1023 C 0.79396 0.46766 0.93484 0.0
C1024 C 0.79715 0.46536 0.98008 0.0
C1025 C 0.77603 0.47442 0.00877 0.0
C1026 C 0.75111 0.48535 0.99163 0.0
H1027 H 0.0343 0.6953 0.33946 0.0
H1028 H 0.95308 0.72696 0.30485 0.0
H1029 H 0.94477 0.73996 0.38213 0.0
H1030 H 0.01806 0.67035 0.45062 0.0
H1031 H 0.05067 0.68231 0.47229 0.0
H1032 H 0.0483 0.67148 0.41604 0.0
H1033 H 0.06768 0.71905 0.39109 0.0
H1034 H 0.07015 0.72997 0.44712 0.0
H1035 H 0.0506 0.75046 0.4086 0.0
H1036 H 0.94644 0.75143 0.46277 0.0
H1037 H 0.96026 0.76597 0.53742 0.0
H1038 H 0.04197 0.73077 0.51651 0.0
C1039 C 0.01453 0.70435 0.34853 0.0
C1040 C 0.99408 0.70973 0.31679 0.0
C1041 C 0.96883 0.7225 0.32912 0.0
C1042 C 0.9639 0.72978 0.37284 0.0
C1043 C 0.98466 0.72451 0.40348 0.0
C1044 C 0.00963 0.71241 0.39171 0.0
C1045 C 0.02986 0.71218 0.42944 0.0
C1046 C 0.03714 0.6823 0.44289 0.0
C1047 C 0.05611 0.72892 0.41839 0.0
C1048 C 0.0126 0.72646 0.46406 0.0
C1049 C 0.98633 0.73276 0.44893 0.0
C1050 C 0.96692 0.7465 0.47502 0.0
C1051 C 0.97485 0.75458 0.51731 0.0
C1052 C 0.00211 0.74946 0.53234 0.0
C1053 C 0.02098 0.73488 0.50561 0.0
H1054 H 0.71565 0.02189 0.98503 0.0
H1055 H 0.78442 0.98467 0.0555 0.0
H1056 H 0.80769 0.97433 0.98534 0.0
H1057 H 0.71654 0.97294 0.89272 0.0
H1058 H 0.70754 0.99955 0.8538 0.0
H1059 H 0.69562 0.00212 0.90945 0.0
H1060 H 0.71804 0.05073 0.91579 0.0
H1061 H 0.73019 0.04827 0.86036 0.0
H1062 H 0.75444 0.05477 0.90397 0.0
H1063 H 0.82577 0.97311 0.90752 0.0
H1064 H 0.835 0.97702 0.82811 0.0
H1065 H 0.75319 0.01272 0.80929 0.0
C1066 C 0.73543 0.0112 0.98575 0.0
C1067 C 0.74825 0.00413 0.02576 0.0
C1068 C 0.77411 0.99011 0.02524 0.0
C1069 C 0.78754 0.98425 0.98556 0.0
C1070 C 0.7746 0.99212 0.94673 0.0
C1071 C 0.74889 0.00487 0.94654 0.0
C1072 C 0.73963 0.01179 0.90056 0.0
C1073 C 0.71327 0.99563 0.88843 0.0
C1074 C 0.73534 0.04325 0.89486 0.0
C1075 C 0.76446 0.00158 0.87492 0.0
C1076 C 0.78449 0.99038 0.90204 0.0
C1077 C 0.81002 0.98136 0.88589 0.0
C1078 C 0.81515 0.98376 0.84084 0.0
C1079 C 0.79469 0.9948 0.81252 0.0
C1080 C 0.76902 0.00362 0.82997 0.0
H1081 H 0.49582 0.81111 0.35002 0.0
H1082 H 0.51354 0.73412 0.28157 0.0
H1083 H 0.51207 0.70871 0.35105 0.0
H1084 H 0.5373 0.79374 0.4487 0.0
H1085 H 0.51296 0.8104 0.48495 0.0
H1086 H 0.51733 0.8231 0.43 0.0
H1087 H 0.46458 0.81756 0.41648 0.0
H1088 H 0.46008 0.80462 0.47117 0.0
H1089 H 0.44857 0.78425 0.42526 0.0
H1090 H 0.50245 0.69063 0.42537 0.0
H1091 H 0.491 0.68189 0.50303 0.0
H1092 H 0.4837 0.77042 0.52525 0.0
C1093 C 0.49993 0.78902 0.34985 0.0
C1094 C 0.50489 0.77467 0.31038 0.0
C1095 C 0.51003 0.74568 0.31141 0.0
C1096 C 0.50912 0.73097 0.35072 0.0
C1097 C 0.50364 0.74559 0.38888 0.0
C1098 C 0.4997 0.77402 0.38905 0.0
C1099 C 0.49367 0.78449 0.43475 0.0
C1100 C 0.51669 0.80409 0.45053 0.0
C1101 C 0.46502 0.79855 0.43702 0.0
C1102 C 0.49404 0.75739 0.45982 0.0
C1103 C 0.49963 0.7352 0.4326 0.0
C1104 C 0.49871 0.70784 0.44731 0.0
C1105 C 0.49208 0.70305 0.4912 0.0
C1106 C 0.487 0.72553 0.51971 0.0
C1107 C 0.48819 0.753 0.504 0.0
H1108 H 0.20112 0.53672 0.66797 0.0
H1109 H 0.23303 0.45577 0.70403 0.0
H1110 H 0.24789 0.44778 0.62758 0.0
H1111 H 0.17825 0.52002 0.5567 0.0
H1112 H 0.19001 0.55267 0.53485 0.0
H1113 H 0.17871 0.55049 0.59087 0.0
H1114 H 0.2258 0.57055 0.61657 0.0
H1115 H 0.23724 0.57278 0.56073 0.0
H1116 H 0.25754 0.55371 0.60006 0.0
H1117 H 0.26018 0.44923 0.54797 0.0
H1118 H 0.27379 0.46191 0.47267 0.0
H1119 H 0.23762 0.54362 0.4907 0.0
C1120 C 0.21072 0.51712 0.65937 0.0
C1121 C 0.2156 0.4966 0.69124 0.0
C1122 C 0.22901 0.47156 0.67961 0.0
C1123 C 0.23736 0.46683 0.6364 0.0
C1124 C 0.23253 0.4876 0.60564 0.0
C1125 C 0.21985 0.51239 0.61669 0.0
C1126 C 0.21971 0.53243 0.57865 0.0
C1127 C 0.18989 0.5393 0.56443 0.0
C1128 C 0.23605 0.55892 0.58967 0.0
C1129 C 0.23452 0.51513 0.54462 0.0
C1130 C 0.24121 0.48913 0.56053 0.0
C1131 C 0.25504 0.46952 0.5351 0.0
C1132 C 0.26261 0.47685 0.49243 0.0
C1133 C 0.25682 0.50373 0.47616 0.0
C1134 C 0.24241 0.52297 0.50251 0.0
H1135 H 0.9568 0.21034 0.1665 0.0
H1136 H 0.03156 0.25398 0.20488 0.0
H1137 H 0.03325 0.27668 0.13258 0.0
H1138 H 0.97479 0.19879 0.05408 0.0
H1139 H 0.94017 0.20495 0.03404 0.0
H1140 H 0.94528 0.19167 0.08844 0.0
H1141 H 0.91659 0.2326 0.11975 0.0
H1142 H 0.9116 0.24619 0.06547 0.0
H1143 H 0.92667 0.26772 0.10732 0.0
H1144 H 0.02815 0.29278 0.05587 0.0
H1145 H 0.01561 0.30273 0.97913 0.0
H1146 H 0.94207 0.25183 0.99212 0.0
C1147 C 0.97367 0.22445 0.15941 0.0
C1148 C 0.99425 0.23026 0.19088 0.0
C1149 C 0.01568 0.24926 0.181 0.0
C1150 C 0.01678 0.26225 0.14015 0.0
C1151 C 0.99601 0.25634 0.10998 0.0
C1152 C 0.97475 0.23806 0.11911 0.0
C1153 C 0.95471 0.23589 0.08115 0.0
C1154 C 0.9537 0.20606 0.06338 0.0
C1155 C 0.92567 0.24623 0.09422 0.0
C1156 C 0.96833 0.25545 0.04898 0.0
C1157 C 0.9922 0.26691 0.06631 0.0
C1158 C 0.00933 0.28428 0.04208 0.0
C1159 C 0.00208 0.28981 0.9987 0.0
C1160 C 0.97774 0.27835 0.98041 0.0
C1161 C 0.96042 0.26131 0.00596 0.0
H1162 H 0.21483 0.98512 0.51087 0.0
H1163 H 0.28605 0.01395 0.43731 0.0
H1164 H 0.31157 0.02161 0.50637 0.0
H1165 H 0.22273 0.03436 0.60207 0.0
H1166 H 0.2113 0.0093 0.64187 0.0
H1167 H 0.1984 0.00775 0.58668 0.0
H1168 H 0.21504 0.95671 0.58094 0.0
H1169 H 0.22825 0.95827 0.63585 0.0
H1170 H 0.25091 0.94851 0.59161 0.0
H1171 H 0.33114 0.02061 0.58387 0.0
H1172 H 0.34071 0.01674 0.66337 0.0
H1173 H 0.25547 0.99189 0.68526 0.0
C1174 C 0.23564 0.99348 0.5093 0.0
C1175 C 0.24845 0.99893 0.46871 0.0
C1176 C 0.27572 0.00986 0.46805 0.0
C1177 C 0.29044 0.01412 0.50711 0.0
C1178 C 0.27741 0.00786 0.54656 0.0
C1179 C 0.2504 0.99833 0.54791 0.0
C1180 C 0.24111 0.99297 0.59437 0.0
C1181 C 0.21696 0.01226 0.60698 0.0
C1182 C 0.23339 0.96229 0.60105 0.0
C1183 C 0.2673 0.00037 0.61893 0.0
C1184 C 0.28814 0.0087 0.59092 0.0
C1185 C 0.31478 0.01466 0.60617 0.0
C1186 C 0.3201 0.01229 0.65124 0.0
C1187 C 0.29874 0.00448 0.68043 0.0
C1188 C 0.27206 0.99854 0.66384 0.0
H1189 H 0.53333 0.215 0.00711 0.0
H1190 H 0.49228 0.28203 0.93759 0.0
H1191 H 0.4838 0.30611 0.00742 0.0
H1192 H 0.48657 0.21547 0.10074 0.0
H1193 H 0.51373 0.20763 0.13933 0.0
H1194 H 0.51636 0.19552 0.08381 0.0
H1195 H 0.56404 0.21975 0.0763 0.0
H1196 H 0.56145 0.23201 0.13171 0.0
H1197 H 0.5668 0.25633 0.08778 0.0
H1198 H 0.48273 0.32462 0.08431 0.0
H1199 H 0.48518 0.33388 0.16381 0.0
H1200 H 0.52401 0.25356 0.18366 0.0
C1201 C 0.52244 0.23468 0.00661 0.0
C1202 C 0.51353 0.24664 0.96682 0.0
C1203 C 0.49918 0.27235 0.96763 0.0
C1204 C 0.49435 0.28628 0.00713 0.0
C1205 C 0.50363 0.27407 0.04569 0.0
C1206 C 0.51701 0.24866 0.04586 0.0
C1207 C 0.52448 0.23992 0.09196 0.0
C1208 C 0.50937 0.21304 0.1047 0.0
C1209 C 0.55607 0.23683 0.09723 0.0
C1210 C 0.51354 0.26455 0.11752 0.0
C1211 C 0.50182 0.28415 0.09021 0.0
C1212 C 0.49153 0.30927 0.10612 0.0
C1213 C 0.49309 0.31441 0.15121 0.0
C1214 C 0.50446 0.29433 0.17984 0.0
C1215 C 0.51474 0.26909 0.16261 0.0
H1216 H 0.23476 0.60007 0.27272 0.0
H1217 H 0.19508 0.54993 0.37222 0.0
H1218 H 0.15018 0.57244 0.35617 0.0
H1219 H 0.19284 0.66333 0.28688 0.0
H1220 H 0.19078 0.67031 0.22912 0.0
H1221 H 0.22055 0.65248 0.25117 0.0
H1222 H 0.21249 0.61176 0.19742 0.0
H1223 H 0.18273 0.62944 0.17519 0.0
H1224 H 0.17925 0.59474 0.19643 0.0
H1225 H 0.10999 0.59851 0.3287 0.0
H1226 H 0.07487 0.62433 0.28747 0.0
H1227 H 0.13899 0.65656 0.20154 0.0
C1228 C 0.21661 0.59431 0.29147 0.0
C1229 C 0.21818 0.57361 0.32406 0.0
C1230 C 0.1941 0.56587 0.3473 0.0
C1231 C 0.16862 0.57861 0.33854 0.0
C1232 C 0.16756 0.59876 0.30599 0.0
C1233 C 0.19075 0.60645 0.28242 0.0
C1234 C 0.18314 0.62698 0.24668 0.0
C1235 C 0.1977 0.65494 0.25391 0.0
C1236 C 0.18979 0.61501 0.20125 0.0
C1237 C 0.15206 0.62945 0.25386 0.0
C1238 C 0.14375 0.6132 0.28865 0.0
C1239 C 0.11617 0.61135 0.30141 0.0
C1240 C 0.09635 0.62613 0.27758 0.0
C1241 C 0.10403 0.64247 0.24097 0.0
C1242 C 0.13241 0.64441 0.22941 0.0
H1243 H 0.83908 0.13669 0.7068 0.0
H1244 H 0.8804 0.07184 0.78135 0.0
H1245 H 0.90629 0.10705 0.82198 0.0
H1246 H 0.89665 0.1806 0.69594 0.0
H1247 H 0.87785 0.21266 0.70288 0.0
H1248 H 0.86049 0.18262 0.68129 0.0
H1249 H 0.82345 0.18608 0.74236 0.0
H1250 H 0.84062 0.21628 0.764 0.0
H1251 H 0.83427 0.18677 0.79873 0.0
H1252 H 0.93188 0.14793 0.84846 0.0
H1253 H 0.95263 0.1936 0.86456 0.0
H1254 H 0.89341 0.23308 0.77772 0.0
C1255 C 0.85321 0.12992 0.73216 0.0
C1256 C 0.85767 0.10136 0.74053 0.0
C1257 C 0.87652 0.09348 0.77397 0.0
C1258 C 0.8914 0.11335 0.79742 0.0
C1259 C 0.88704 0.14116 0.78768 0.0
C1260 C 0.86815 0.1496 0.75641 0.0
C1261 C 0.86818 0.18096 0.75184 0.0
C1262 C 0.87628 0.18971 0.70522 0.0
C1263 C 0.83995 0.19324 0.76503 0.0
C1264 C 0.89056 0.18858 0.78456 0.0
C1265 C 0.90117 0.16521 0.80469 0.0
C1266 C 0.92342 0.1665 0.83364 0.0
C1267 C 0.93516 0.19243 0.84239 0.0
C1268 C 0.92436 0.21671 0.82276 0.0
C1269 C 0.90161 0.2148 0.7938 0.0
H1270 H 0.30813 0.94813 0.2945 0.0
H1271 H 0.25491 0.88231 0.34303 0.0
H1272 H 0.29025 0.84773 0.32357 0.0
H1273 H 0.33583 0.91003 0.20307 0.0
H1274 H 0.37024 0.92414 0.20822 0.0
H1275 H 0.34071 0.94411 0.226 0.0
H1276 H 0.36268 0.949 0.30295 0.0
H1277 H 0.39222 0.92893 0.28541 0.0
H1278 H 0.37265 0.91825 0.33266 0.0
H1279 H 0.32999 0.81972 0.29573 0.0
H1280 H 0.37311 0.80054 0.26362 0.0
H1281 H 0.40184 0.88408 0.23705 0.0
C1282 C 0.30395 0.92647 0.30108 0.0
C1283 C 0.27872 0.91807 0.32049 0.0
C1284 C 0.27412 0.88943 0.32856 0.0
C1285 C 0.29405 0.86951 0.31752 0.0
C1286 C 0.31866 0.87844 0.29866 0.0
C1287 C 0.32382 0.9062 0.29063 0.0
C1288 C 0.35213 0.91006 0.27004 0.0
C1289 C 0.34956 0.92284 0.22412 0.0
C1290 C 0.37103 0.9276 0.29954 0.0
C1291 C 0.36193 0.88018 0.26785 0.0
C1292 C 0.34219 0.86225 0.28415 0.0
C1293 C 0.34582 0.83354 0.28338 0.0
C1294 C 0.37029 0.82282 0.26516 0.0
C1295 C 0.3909 0.84084 0.24875 0.0
C1296 C 0.3867 0.86987 0.25049 0.0
H1297 H 0.57063 0.28088 0.74298 0.0
H1298 H 0.60298 0.27972 0.87519 0.0
H1299 H 0.63419 0.31869 0.85722 0.0
H1300 H 0.63791 0.29565 0.69156 0.0
H1301 H 0.62261 0.31692 0.64948 0.0
H1302 H 0.60309 0.28887 0.67319 0.0
H1303 H 0.56377 0.3236 0.69266 0.0
H1304 H 0.58356 0.35163 0.66962 0.0
H1305 H 0.57172 0.35368 0.72539 0.0
H1306 H 0.65874 0.35984 0.82705 0.0
H1307 H 0.67794 0.39899 0.78435 0.0
H1308 H 0.63353 0.3706 0.6697 0.0
C1309 C 0.58428 0.28898 0.76801 0.0
C1310 C 0.58438 0.27768 0.81053 0.0
C1311 C 0.60273 0.28827 0.84245 0.0
C1312 C 0.62047 0.31033 0.83256 0.0
C1313 C 0.62001 0.32102 0.79033 0.0
C1314 C 0.60272 0.31051 0.75833 0.0
C1315 C 0.60688 0.32542 0.71525 0.0
C1316 C 0.61831 0.30553 0.6803 0.0
C1317 C 0.57988 0.33942 0.69986 0.0
C1318 C 0.62848 0.34657 0.72857 0.0
C1319 C 0.6357 0.34367 0.77205 0.0
C1320 C 0.65375 0.36201 0.79275 0.0
C1321 C 0.66453 0.38409 0.7684 0.0
C1322 C 0.65763 0.38717 0.72381 0.0
C1323 C 0.6397 0.36803 0.7035 0.0
H1324 H 0.73281 0.39586 0.21134 0.0
H1325 H 0.69176 0.46395 0.14448 0.0
H1326 H 0.64633 0.44582 0.1675 0.0
H1327 H 0.68013 0.34268 0.18993 0.0
H1328 H 0.68321 0.32725 0.24336 0.0
H1329 H 0.71269 0.34405 0.21877 0.0
H1330 H 0.71741 0.37579 0.28662 0.0
H1331 H 0.6879 0.35919 0.31136 0.0
H1332 H 0.68811 0.3963 0.30403 0.0
H1333 H 0.60616 0.42198 0.19825 0.0
H1334 H 0.57201 0.39456 0.23829 0.0
H1335 H 0.63791 0.34207 0.28965 0.0
C1336 C 0.71416 0.4066 0.20105 0.0
C1337 C 0.71564 0.43116 0.17584 0.0
C1338 C 0.69098 0.44511 0.16376 0.0
C1339 C 0.66512 0.43493 0.17653 0.0
C1340 C 0.66432 0.41094 0.20179 0.0
C1341 C 0.68806 0.39696 0.21424 0.0
C1342 C 0.6811 0.37263 0.24384 0.0
C1343 C 0.6898 0.34502 0.2227 0.0
C1344 C 0.69442 0.3762 0.28915 0.0
C1345 C 0.64976 0.37533 0.24614 0.0
C1346 C 0.64071 0.39745 0.22115 0.0
C1347 C 0.6129 0.40454 0.21787 0.0
C1348 C 0.59364 0.3887 0.24085 0.0
C1349 C 0.60216 0.366 0.26727 0.0
C1350 C 0.63071 0.35925 0.26985 0.0
H1351 H 0.06038 0.70836 0.7388 0.0
H1352 H 0.11253 0.72508 0.62628 0.0
H1353 H 0.14418 0.68734 0.64864 0.0
H1354 H 0.11637 0.69428 0.81345 0.0
H1355 H 0.09824 0.66712 0.84208 0.0
H1356 H 0.07903 0.69486 0.81674 0.0
H1357 H 0.05039 0.65947 0.77248 0.0
H1358 H 0.06923 0.63151 0.79791 0.0
H1359 H 0.06804 0.63411 0.73918 0.0
H1360 H 0.16889 0.64668 0.68103 0.0
H1361 H 0.18634 0.60664 0.72396 0.0
H1362 H 0.1202 0.61846 0.81799 0.0
C1363 C 0.07836 0.70389 0.71875 0.0
C1364 C 0.08398 0.71943 0.68067 0.0
C1365 C 0.10793 0.71339 0.6556 0.0
C1366 C 0.12598 0.69201 0.668 0.0
C1367 C 0.11999 0.6772 0.70586 0.0
C1368 C 0.09689 0.68295 0.73109 0.0
C1369 C 0.09557 0.66423 0.77078 0.0
C1370 C 0.09744 0.68114 0.81328 0.0
C1371 C 0.06925 0.64626 0.77 0.0
C1372 C 0.1214 0.6469 0.7636 0.0
C1373 C 0.13507 0.65462 0.7258 0.0
C1374 C 0.15864 0.64068 0.71102 0.0
C1375 C 0.16841 0.6181 0.73545 0.0
C1376 C 0.15479 0.61017 0.77429 0.0
C1377 C 0.13118 0.62476 0.78875 0.0
H1378 H 0.78524 0.06998 0.24281 0.0
H1379 H 0.78626 0.10031 0.10936 0.0
H1380 H 0.82374 0.13301 0.12843 0.0
H1381 H 0.79638 0.13769 0.29283 0.0
H1382 H 0.81735 0.12377 0.33644 0.0
H1383 H 0.79075 0.10276 0.31176 0.0
H1384 H 0.82749 0.06479 0.29504 0.0
H1385 H 0.85404 0.08598 0.31927 0.0
H1386 H 0.85794 0.07377 0.26394 0.0
H1387 H 0.8628 0.15993 0.16042 0.0
H1388 H 0.90037 0.1808 0.20465 0.0
H1389 H 0.87123 0.13636 0.31876 0.0
C1390 C 0.79359 0.08337 0.21763 0.0
C1391 C 0.78323 0.08254 0.17453 0.0
C1392 C 0.7941 0.10069 0.14252 0.0
C1393 C 0.81529 0.11931 0.15305 0.0
C1394 C 0.82489 0.11987 0.19592 0.0
C1395 C 0.8143 0.10257 0.22784 0.0
C1396 C 0.82799 0.10778 0.2716 0.0
C1397 C 0.80686 0.11866 0.30514 0.0
C1398 C 0.84275 0.08152 0.28842 0.0
C1399 C 0.84849 0.13013 0.25891 0.0
C1400 C 0.84633 0.13678 0.21508 0.0
C1401 C 0.86437 0.15537 0.19495 0.0
C1402 C 0.8855 0.16715 0.22017 0.0
C1403 C 0.88793 0.16064 0.26499 0.0
C1404 C 0.86901 0.14228 0.28478 0.0
H1405 H 0.39325 0.90235 0.77234 0.0
H1406 H 0.30804 0.87746 0.75015 0.0
H1407 H 0.32443 0.83579 0.71062 0.0
H1408 H 0.42282 0.87663 0.66986 0.0
H1409 H 0.4542 0.86416 0.69523 0.0
H1410 H 0.436 0.89342 0.71821 0.0
H1411 H 0.43309 0.86812 0.79274 0.0
H1412 H 0.45129 0.83882 0.77003 0.0
H1413 H 0.4179 0.83402 0.79535 0.0
H1414 H 0.34958 0.79693 0.67493 0.0
H1415 H 0.38156 0.76038 0.65089 0.0
H1416 H 0.45127 0.80807 0.70032 0.0
C1417 C 0.37813 0.88829 0.75848 0.0
C1418 C 0.34938 0.89319 0.76363 0.0
C1419 C 0.33012 0.87405 0.74627 0.0
C1420 C 0.33924 0.85044 0.72367 0.0
C1421 C 0.3677 0.84606 0.71936 0.0
C1422 C 0.38691 0.8642 0.7367 0.0
C1423 C 0.41625 0.8533 0.73047 0.0
C1424 C 0.43332 0.87306 0.70172 0.0
C1425 C 0.43046 0.84826 0.77478 0.0
C1426 C 0.41046 0.82617 0.70701 0.0
C1427 C 0.38232 0.82273 0.70044 0.0
C1428 C 0.37166 0.79938 0.67986 0.0
C1429 C 0.39014 0.7787 0.66622 0.0
C1430 C 0.4191 0.78119 0.6736 0.0
C1431 C 0.42933 0.80549 0.69399 0.0
H1432 H 0.9005 0.38965 0.75035 0.0
H1433 H 0.87424 0.30436 0.7341 0.0
H1434 H 0.83304 0.32033 0.69267 0.0
H1435 H 0.83324 0.41546 0.77214 0.0
H1436 H 0.83828 0.44831 0.74519 0.0
H1437 H 0.86749 0.43018 0.76826 0.0
H1438 H 0.89232 0.43128 0.69318 0.0
H1439 H 0.86317 0.44947 0.66986 0.0
H1440 H 0.87503 0.41746 0.64574 0.0
H1441 H 0.79404 0.34549 0.65615 0.0
H1442 H 0.75751 0.37773 0.63232 0.0
H1443 H 0.80715 0.44739 0.67679 0.0
C1444 C 0.88637 0.3744 0.73702 0.0
C1445 C 0.8907 0.34576 0.74433 0.0
C1446 C 0.87134 0.32634 0.72814 0.0
C1447 C 0.848 0.33524 0.70457 0.0
C1448 C 0.8441 0.36365 0.69827 0.0
C1449 C 0.86257 0.38299 0.71441 0.0
C1450 C 0.85204 0.41233 0.70701 0.0
C1451 C 0.84749 0.42745 0.75074 0.0
C1452 C 0.87182 0.42859 0.67716 0.0
C1453 C 0.82472 0.40647 0.6843 0.0
C1454 C 0.8208 0.37826 0.67907 0.0
C1455 C 0.79692 0.36762 0.65993 0.0
C1456 C 0.77625 0.38622 0.64644 0.0
C1457 C 0.77931 0.41525 0.65254 0.0
C1458 C 0.80414 0.42541 0.67131 0.0
H1459 H 0.11215 0.90282 0.27186 0.0
H1460 H 0.19263 0.86665 0.30029 0.0
H1461 H 0.17613 0.82121 0.27346 0.0
H1462 H 0.0728 0.84362 0.30778 0.0
H1463 H 0.04636 0.84742 0.26657 0.0
H1464 H 0.06477 0.87745 0.28606 0.0
H1465 H 0.07925 0.88955 0.20677 0.0
H1466 H 0.06078 0.85964 0.18698 0.0
H1467 H 0.097 0.8639 0.17419 0.0
H1468 H 0.15154 0.78044 0.24241 0.0
H1469 H 0.11969 0.74561 0.21192 0.0
H1470 H 0.05382 0.80717 0.20774 0.0
C1471 C 0.12634 0.88536 0.27187 0.0
C1472 C 0.15375 0.88816 0.28754 0.0
C1473 C 0.17159 0.86483 0.2882 0.0
C1474 C 0.16242 0.83902 0.27305 0.0
C1475 C 0.13521 0.83686 0.25811 0.0
C1476 C 0.11733 0.85929 0.25774 0.0
C1477 C 0.08878 0.851 0.24167 0.0
C1478 C 0.06689 0.85511 0.27767 0.0
C1479 C 0.08101 0.86697 0.19992 0.0
C1480 C 0.09358 0.82048 0.23232 0.0
C1481 C 0.12057 0.81288 0.24191 0.0
C1482 C 0.13033 0.78607 0.23495 0.0
C1483 C 0.11207 0.76648 0.21748 0.0
C1484 C 0.08426 0.77369 0.20749 0.0
C1485 C 0.07487 0.80102 0.21543 0.0
H1486 H 0.73503 0.09634 0.74764 0.0
H1487 H 0.7006 0.05828 0.63141 0.0
H1488 H 0.65636 0.08305 0.64355 0.0
H1489 H 0.67271 0.09013 0.81113 0.0
H1490 H 0.67725 0.12242 0.8399 0.0
H1491 H 0.70706 0.10362 0.82028 0.0
H1492 H 0.72309 0.14722 0.77766 0.0
H1493 H 0.69318 0.16609 0.79694 0.0
H1494 H 0.69981 0.16335 0.73914 0.0
H1495 H 0.61642 0.11072 0.66781 0.0
H1496 H 0.58011 0.13625 0.70701 0.0
H1497 H 0.63845 0.15507 0.81112 0.0
C1498 C 0.71815 0.09357 0.72473 0.0
C1499 C 0.72098 0.07575 0.68838 0.0
C1500 C 0.69856 0.07197 0.65932 0.0
C1501 C 0.67352 0.08603 0.66583 0.0
C1502 C 0.67121 0.10347 0.70191 0.0
C1503 C 0.69266 0.10704 0.73132 0.0
C1504 C 0.68369 0.12536 0.76917 0.0
C1505 C 0.68527 0.10943 0.81268 0.0
C1506 C 0.70098 0.15209 0.7708 0.0
C1507 C 0.65387 0.1314 0.75633 0.0
C1508 C 0.64739 0.11881 0.71709 0.0
C1509 C 0.62115 0.12069 0.69858 0.0
C1510 C 0.60065 0.13526 0.72125 0.0
C1511 C 0.60631 0.14763 0.76234 0.0
C1512 C 0.6335 0.14608 0.77966 0.0
H1513 H 0.40966 0.69863 0.15154 0.0
H1514 H 0.45628 0.72537 0.26517 0.0
H1515 H 0.43306 0.6899 0.31001 0.0
H1516 H 0.34601 0.68191 0.2055 0.0
H1517 H 0.33927 0.65091 0.17438 0.0
H1518 H 0.35905 0.67872 0.15052 0.0
H1519 H 0.39955 0.64481 0.13465 0.0
H1520 H 0.37979 0.61683 0.15806 0.0
H1521 H 0.41395 0.6245 0.17864 0.0
H1522 H 0.40264 0.65491 0.34376 0.0
H1523 H 0.37195 0.61599 0.36314 0.0
H1524 H 0.34828 0.60703 0.22712 0.0
C1525 C 0.41501 0.69674 0.18578 0.0
C1526 C 0.4347 0.71461 0.20509 0.0
C1527 C 0.44142 0.71162 0.24984 0.0
C1528 C 0.42821 0.69172 0.27561 0.0
C1529 C 0.40874 0.67454 0.2559 0.0
C1530 C 0.40258 0.67625 0.21186 0.0
C1531 C 0.3818 0.65408 0.1989 0.0
C1532 C 0.35494 0.6672 0.18129 0.0
C1533 C 0.39454 0.63385 0.16559 0.0
C1534 C 0.377 0.64006 0.24268 0.0
C1535 C 0.39243 0.65266 0.27511 0.0
C1536 C 0.3907 0.64459 0.31865 0.0
C1537 C 0.37308 0.62264 0.32937 0.0
C1538 C 0.35788 0.60864 0.29661 0.0
C1539 C 0.35985 0.6174 0.25265 0.0
H1540 H 0.40208 0.61302 0.73962 0.0
H1541 H 0.3693 0.69689 0.7416 0.0
H1542 H 0.3258 0.6796 0.77458 0.0
H1543 H 0.33888 0.58144 0.70698 0.0
H1544 H 0.34386 0.55033 0.73874 0.0
H1545 H 0.37343 0.56943 0.71928 0.0
H1546 H 0.39206 0.57356 0.79844 0.0
H1547 H 0.36262 0.55431 0.81817 0.0
H1548 H 0.37014 0.58811 0.84035 0.0
H1549 H 0.28613 0.65352 0.80537 0.0
H1550 H 0.25105 0.62017 0.82981 0.0
H1551 H 0.30811 0.55215 0.80403 0.0
C1552 C 0.38592 0.62776 0.74794 0.0
C1553 C 0.38905 0.65633 0.73896 0.0
C1554 C 0.36724 0.67497 0.74873 0.0
C1555 C 0.34256 0.66535 0.76742 0.0
C1556 C 0.33996 0.63699 0.77536 0.0
C1557 C 0.36091 0.6184 0.76571 0.0
C1558 C 0.35197 0.58879 0.77467 0.0
C1559 C 0.35204 0.57148 0.73241 0.0
C1560 C 0.37029 0.57541 0.81002 0.0
C1561 C 0.32272 0.59367 0.79113 0.0
C1562 C 0.31642 0.62167 0.79152 0.0
C1563 C 0.29081 0.63155 0.80534 0.0
C1564 C 0.27104 0.61235 0.81928 0.0
C1565 C 0.27682 0.58345 0.81905 0.0
C1566 C 0.30304 0.57405 0.80456 0.0
H1567 H 0.89026 0.40436 0.23691 0.0
H1568 H 0.80546 0.37886 0.26083 0.0
H1569 H 0.82251 0.33783 0.30144 0.0
H1570 H 0.91494 0.33721 0.2139 0.0
H1571 H 0.94861 0.34199 0.23831 0.0
H1572 H 0.93003 0.37136 0.21666 0.0
H1573 H 0.93361 0.39617 0.29153 0.0
H1574 H 0.9523 0.36687 0.31341 0.0
H1575 H 0.92117 0.37895 0.33998 0.0
H1576 H 0.84833 0.29887 0.33575 0.0
H1577 H 0.88077 0.26202 0.357 0.0
H1578 H 0.94954 0.31061 0.30654 0.0
C1579 C 0.87537 0.39047 0.25176 0.0
C1580 C 0.84656 0.39492 0.24667 0.0
C1581 C 0.82758 0.37585 0.26493 0.0
C1582 C 0.83709 0.35261 0.28809 0.0
C1583 C 0.86562 0.34854 0.29202 0.0
C1584 C 0.88453 0.36677 0.27407 0.0
C1585 C 0.91398 0.35601 0.27917 0.0
C1586 C 0.92768 0.35136 0.23435 0.0
C1587 C 0.93129 0.37568 0.30773 0.0
C1588 C 0.90863 0.32872 0.30234 0.0
C1589 C 0.88062 0.32516 0.31004 0.0
C1590 C 0.87033 0.30146 0.33008 0.0
C1591 C 0.88905 0.28059 0.34205 0.0
C1592 C 0.91788 0.28325 0.33349 0.0
C1593 C 0.92773 0.3079 0.31374 0.0
H1594 H 0.11009 0.84934 0.76975 0.0
H1595 H 0.12577 0.85913 0.6309 0.0
H1596 H 0.16683 0.88749 0.64717 0.0
H1597 H 0.13055 0.91681 0.80321 0.0
H1598 H 0.14765 0.90578 0.85263 0.0
H1599 H 0.11947 0.88566 0.83069 0.0
H1600 H 0.15089 0.842 0.8286 0.0
H1601 H 0.17911 0.86192 0.85092 0.0
H1602 H 0.18362 0.84341 0.80024 0.0
H1603 H 0.20313 0.91807 0.67736 0.0
H1604 H 0.23741 0.94433 0.72081 0.0
H1605 H 0.2019 0.91164 0.84028 0.0
C1606 C 0.12238 0.85727 0.74292 0.0
C1607 C 0.11481 0.85205 0.6991 0.0
C1608 C 0.13137 0.86265 0.66473 0.0
C1609 C 0.15463 0.87892 0.67358 0.0
C1610 C 0.16139 0.88398 0.717 0.0
C1611 C 0.1462 0.87306 0.75119 0.0
C1612 C 0.15859 0.8813 0.79484 0.0
C1613 C 0.13782 0.8984 0.82193 0.0
C1614 C 0.16866 0.85563 0.82014 0.0
C1615 C 0.18273 0.89896 0.77966 0.0
C1616 C 0.18364 0.90047 0.73459 0.0
C1617 C 0.20296 0.91677 0.71265 0.0
C1618 C 0.22217 0.93168 0.73748 0.0
C1619 C 0.22217 0.92972 0.78354 0.0
C1620 C 0.20232 0.91312 0.80498 0.0
H1621 H 0.6159 0.10285 0.22452 0.0
H1622 H 0.69665 0.13844 0.19732 0.0
H1623 H 0.68095 0.18326 0.22811 0.0
H1624 H 0.577 0.16347 0.1941 0.0
H1625 H 0.55089 0.15865 0.23551 0.0
H1626 H 0.56892 0.12907 0.21335 0.0
H1627 H 0.58387 0.11442 0.29142 0.0
H1628 H 0.56588 0.14397 0.31379 0.0
H1629 H 0.60216 0.13881 0.32547 0.0
H1630 H 0.6567 0.22374 0.26283 0.0
H1631 H 0.62469 0.25828 0.29455 0.0
H1632 H 0.55881 0.19701 0.29501 0.0
C1633 C 0.63034 0.12002 0.22548 0.0
C1634 C 0.65756 0.1172 0.20902 0.0
C1635 C 0.67572 0.14024 0.20987 0.0
C1636 C 0.66701 0.1657 0.22737 0.0
C1637 C 0.63999 0.16782 0.2432 0.0
C1638 C 0.62183 0.1457 0.24199 0.0
C1639 C 0.5935 0.15384 0.25919 0.0
C1640 C 0.57127 0.1511 0.2234 0.0
C1641 C 0.58592 0.13674 0.29989 0.0
C1642 C 0.59865 0.18392 0.27068 0.0
C1643 C 0.62566 0.1915 0.26152 0.0
C1644 C 0.63547 0.2181 0.27 0.0
C1645 C 0.61715 0.23753 0.28816 0.0
C1646 C 0.58923 0.23035 0.2972 0.0
C1647 C 0.57996 0.20317 0.28821 0.0
loop_
_geom_bond_atom_site_label_1
_geom_bond_atom_site_label_2
_geom_bond_distance
_geom_bond_site_symmetry_2
_ccdc_geom_bond_type
Sc0 O3 2.025 . S
Sc0 O10 2.105 . S
Sc0 O13 2.105 . S
Sc0 O16 2.105 . S
Sc0 O19 2.105 . S
Sc1 O3 2.025 . S
Sc1 O11 2.105 . S
Sc1 O15 2.105 . S
Sc1 O17 2.105 . S
Sc1 O21 2.105 . S
Sc2 O3 2.025 . S
Sc2 O12 2.105 . S
Sc2 O14 2.105 . S
Sc2 O18 2.105 . S
Sc2 O20 2.105 . S
O3 Sc0 2.025 . S
O3 Sc1 2.025 . S
O3 Sc2 2.025 . S
C4 O10 1.268 . S
C4 O20 1.268 . S
C5 O11 1.268 . S
C5 O19 1.268 . S
C6 O12 1.268 . S
C6 O21 1.268 . S
C7 O13 1.268 . S
C7 O17 1.268 . S
C8 O14 1.268 . S
C8 O16 1.268 . S
C9 O15 1.268 . S
C9 O18 1.268 . S
O10 Sc0 2.105 . S
O10 C4 1.268 . S
O11 Sc1 2.105 . S
O11 C5 1.268 . S
O12 Sc2 2.105 . S
O12 C6 1.268 . S
O13 Sc0 2.105 . S
O13 C7 1.268 . S
O14 Sc2 2.105 . S
O14 C8 1.268 . S
O15 Sc1 2.105 . S
O15 C9 1.268 . S
O16 Sc0 2.105 . S
O16 C8 1.268 . S
O17 Sc1 2.105 . S
O17 C7 1.268 . S
O18 Sc2 2.105 . S
O18 C9 1.268 . S
O19 Sc0 2.105 . S
O19 C5 1.268 . S
O20 Sc2 2.105 . S
O20 C4 1.268 . S
O21 Sc1 2.105 . S
O21 C6 1.268 . S
Sc22 O25 2.025 . S
Sc22 O32 2.105 . S
Sc22 O35 2.105 . S
Sc22 O38 2.105 . S
Sc22 O41 2.105 . S
Sc23 O25 2.025 . S
Sc23 O33 2.105 . S
Sc23 O37 2.105 . S
Sc23 O39 2.105 . S
Sc23 O43 2.105 1_655 S
Sc24 O25 2.025 . S
Sc24 O34 2.105 1_655 S
Sc24 O36 2.105 . S
Sc24 O40 2.105 . S
Sc24 O42 2.105 . S
O25 Sc22 2.025 . S
O25 Sc23 2.025 . S
O25 Sc24 2.025 . S
C26 O32 1.268 . S
C26 O42 1.268 . S
C27 O33 1.268 . S
C27 O41 1.268 . S
C28 O34 1.268 . S
C28 O43 1.268 . S
C29 O35 1.268 . S
C29 O39 1.268 . S
C30 O36 1.268 . S
C30 O38 1.268 . S
C31 O37 1.268 . S
C31 O40 1.268 . S
O32 Sc22 2.105 . S
O32 C26 1.268 . S
O33 Sc23 2.105 . S
O33 C27 1.268 . S
O34 Sc24 2.105 1_455 S
O34 C28 1.268 . S
O35 Sc22 2.105 . S
O35 C29 1.268 . S
O36 Sc24 2.105 . S
O36 C30 1.268 . S
O37 Sc23 2.105 . S
O37 C31 1.268 . S
O38 Sc22 2.105 . S
O38 C30 1.268 . S
O39 Sc23 2.105 . S
O39 C29 1.268 . S
O40 Sc24 2.105 . S
O40 C31 1.268 . S
O41 Sc22 2.105 . S
O41 C27 1.268 . S
O42 Sc24 2.105 . S
O42 C26 1.268 . S
O43 Sc23 2.105 1_455 S
O43 C28 1.268 . S
Sc44 O47 2.025 . S
Sc44 O54 2.105 . S
Sc44 O57 2.105 1_565 S
Sc44 O60 2.105 . S
Sc44 O63 2.105 . S
Sc45 O47 2.025 . S
Sc45 O55 2.105 . S
Sc45 O59 2.105 . S
Sc45 O61 2.105 1_565 S
Sc45 O65 2.105 . S
Sc46 O47 2.025 . S
Sc46 O56 2.105 . S
Sc46 O58 2.105 . S
Sc46 O62 2.105 . S
Sc46 O64 2.105 . S
O47 Sc44 2.025 . S
O47 Sc45 2.025 . S
O47 Sc46 2.025 . S
C48 O54 1.268 . S
C48 O64 1.268 . S
C49 O55 1.268 . S
C49 O63 1.268 . S
C50 O56 1.268 . S
C50 O65 1.268 . S
C51 O57 1.268 . S
C51 O61 1.268 . S
C52 O58 1.268 . S
C52 O60 1.268 . S
C53 O59 1.268 . S
C53 O62 1.268 . S
O54 Sc44 2.105 . S
O54 C48 1.268 . S
O55 Sc45 2.105 . S
O55 C49 1.268 . S
O56 Sc46 2.105 . S
O56 C50 1.268 . S
O57 Sc44 2.105 1_545 S
O57 C51 1.268 . S
O58 Sc46 2.105 . S
O58 C52 1.268 . S
O59 Sc45 2.105 . S
O59 C53 1.268 . S
O60 Sc44 2.105 . S
O60 C52 1.268 . S
O61 Sc45 2.105 1_545 S
O61 C51 1.268 . S
O62 Sc46 2.105 . S
O62 C53 1.268 . S
O63 Sc44 2.105 . S
O63 C49 1.268 . S
O64 Sc46 2.105 . S
O64 C48 1.268 . S
O65 Sc45 2.105 . S
O65 C50 1.268 . S
Sc66 O69 2.025 . S
Sc66 O76 2.105 . S
Sc66 O79 2.105 . S
Sc66 O82 2.105 . S
Sc66 O85 2.105 . S
Sc67 O69 2.025 . S
Sc67 O77 2.105 . S
Sc67 O81 2.105 . S
Sc67 O83 2.105 . S
Sc67 O87 2.105 . S
Sc68 O69 2.025 . S
Sc68 O78 2.105 . S
Sc68 O80 2.105 . S
Sc68 O84 2.105 . S
Sc68 O86 2.105 . S
O69 Sc66 2.025 . S
O69 Sc67 2.025 . S
O69 Sc68 2.025 . S
C70 O76 1.268 . S
C70 O86 1.268 . S
C71 O77 1.268 . S
C71 O85 1.268 . S
C72 O78 1.268 . S
C72 O87 1.268 . S
C73 O79 1.268 . S
C73 O83 1.268 . S
C74 O80 1.268 . S
C74 O82 1.268 . S
C75 O81 1.268 . S
C75 O84 1.268 . S
O76 Sc66 2.105 . S
O76 C70 1.268 . S
O77 Sc67 2.105 . S
O77 C71 1.268 . S
O78 Sc68 2.105 . S
O78 C72 1.268 . S
O79 Sc66 2.105 . S
O79 C73 1.268 . S
O80 Sc68 2.105 . S
O80 C74 1.268 . S
O81 Sc67 2.105 . S
O81 C75 1.268 . S
O82 Sc66 2.105 . S
O82 C74 1.268 . S
O83 Sc67 2.105 . S
O83 C73 1.268 . S
O84 Sc68 2.105 . S
O84 C75 1.268 . S
O85 Sc66 2.105 . S
O85 C71 1.268 . S
O86 Sc68 2.105 . S
O86 C70 1.268 . S
O87 Sc67 2.105 . S
O87 C72 1.268 . S
Sc88 O91 2.025 . S
Sc88 O98 2.105 . S
Sc88 O101 2.105 . S
Sc88 O104 2.105 . S
Sc88 O107 2.105 . S
Sc89 O91 2.025 . S
Sc89 O99 2.105 . S
Sc89 O103 2.105 . S
Sc89 O105 2.105 . S
Sc89 O109 2.105 . S
Sc90 O91 2.025 . S
Sc90 O100 2.105 . S
Sc90 O102 2.105 . S
Sc90 O106 2.105 . S
Sc90 O108 2.105 . S
O91 Sc88 2.025 . S
O91 Sc89 2.025 . S
O91 Sc90 2.025 . S
C92 O98 1.268 . S
C92 O108 1.268 . S
C93 O99 1.268 . S
C93 O107 1.268 . S
C94 O100 1.268 . S
C94 O109 1.268 . S
C95 O101 1.268 . S
C95 O105 1.268 . S
C96 O102 1.268 . S
C96 O104 1.268 . S
C97 O103 1.268 . S
C97 O106 1.268 . S
O98 Sc88 2.105 . S
O98 C92 1.268 . S
O99 Sc89 2.105 . S
O99 C93 1.268 . S
O100 Sc90 2.105 . S
O100 C94 1.268 . S
O101 Sc88 2.105 . S
O101 C95 1.268 . S
O102 Sc90 2.105 . S
O102 C96 1.268 . S
O103 Sc89 2.105 . S
O103 C97 1.268 . S
O104 Sc88 2.105 . S
O104 C96 1.268 . S
O105 Sc89 2.105 . S
O105 C95 1.268 . S
O106 Sc90 2.105 . S
O106 C97 1.268 . S
O107 Sc88 2.105 . S
O107 C93 1.268 . S
O108 Sc90 2.105 . S
O108 C92 1.268 . S
O109 Sc89 2.105 . S
O109 C94 1.268 . S
Sc110 O113 2.025 . S
Sc110 O120 2.105 . S
Sc110 O123 2.105 1_455 S
Sc110 O126 2.105 . S
Sc110 O129 2.105 . S
Sc111 O113 2.025 . S
Sc111 O121 2.105 . S
Sc111 O125 2.105 . S
Sc111 O127 2.105 1_455 S
Sc111 O131 2.105 . S
Sc112 O113 2.025 . S
Sc112 O122 2.105 . S
Sc112 O124 2.105 . S
Sc112 O128 2.105 . S
Sc112 O130 2.105 . S
O113 Sc110 2.025 . S
O113 Sc111 2.025 . S
O113 Sc112 2.025 . S
C114 O120 1.268 . S
C114 O130 1.268 . S
C115 O121 1.268 . S
C115 O129 1.268 . S
C116 O122 1.268 . S
C116 O131 1.268 . S
C117 O123 1.268 . S
C117 O127 1.268 . S
C118 O124 1.268 . S
C118 O126 1.268 . S
C119 O125 1.268 . S
C119 O128 1.268 . S
O120 Sc110 2.105 . S
O120 C114 1.268 . S
O121 Sc111 2.105 . S
O121 C115 1.268 . S
O122 Sc112 2.105 . S
O122 C116 1.268 . S
O123 Sc110 2.105 1_655 S
O123 C117 1.268 . S
O124 Sc112 2.105 . S
O124 C118 1.268 . S
O125 Sc111 2.105 . S
O125 C119 1.268 . S
O126 Sc110 2.105 . S
O126 C118 1.268 . S
O127 Sc111 2.105 1_655 S
O127 C117 1.268 . S
O128 Sc112 2.105 . S
O128 C119 1.268 . S
O129 Sc110 2.105 . S
O129 C115 1.268 . S
O130 Sc112 2.105 . S
O130 C114 1.268 . S
O131 Sc111 2.105 . S
O131 C116 1.268 . S
Sc132 O135 2.025 . S
Sc132 O142 2.105 . S
Sc132 O145 2.105 1_545 S
Sc132 O148 2.105 . S
Sc132 O151 2.105 . S
Sc133 O135 2.025 . S
Sc133 O143 2.105 . S
Sc133 O147 2.105 . S
Sc133 O149 2.105 1_545 S
Sc133 O153 2.105 . S
Sc134 O135 2.025 . S
Sc134 O144 2.105 . S
Sc134 O146 2.105 . S
Sc134 O150 2.105 . S
Sc134 O152 2.105 . S
O135 Sc132 2.025 . S
O135 Sc133 2.025 . S
O135 Sc134 2.025 . S
C136 O142 1.268 . S
C136 O152 1.268 . S
C137 O143 1.268 . S
C137 O151 1.268 . S
C138 O144 1.268 . S
C138 O153 1.268 . S
C139 O145 1.268 . S
C139 O149 1.268 . S
C140 O146 1.268 . S
C140 O148 1.268 . S
C141 O147 1.268 . S
C141 O150 1.268 . S
O142 Sc132 2.105 . S
O142 C136 1.268 . S
O143 Sc133 2.105 . S
O143 C137 1.268 . S
O144 Sc134 2.105 . S
O144 C138 1.268 . S
O145 Sc132 2.105 1_565 S
O145 C139 1.268 . S
O146 Sc134 2.105 . S
O146 C140 1.268 . S
O147 Sc133 2.105 . S
O147 C141 1.268 . S
O148 Sc132 2.105 . S
O148 C140 1.268 . S
O149 Sc133 2.105 1_565 S
O149 C139 1.268 . S
O150 Sc134 2.105 . S
O150 C141 1.268 . S
O151 Sc132 2.105 . S
O151 C137 1.268 . S
O152 Sc134 2.105 . S
O152 C136 1.268 . S
O153 Sc133 2.105 . S
O153 C138 1.268 . S
Sc154 O157 2.025 . S
Sc154 O164 2.105 . S
Sc154 O167 2.105 . S
Sc154 O170 2.105 . S
Sc154 O173 2.105 . S
Sc155 O157 2.025 . S
Sc155 O165 2.105 . S
Sc155 O169 2.105 . S
Sc155 O171 2.105 . S
Sc155 O175 2.105 . S
Sc156 O157 2.025 . S
Sc156 O166 2.105 . S
Sc156 O168 2.105 . S
Sc156 O172 2.105 . S
Sc156 O174 2.105 . S
O157 Sc154 2.025 . S
O157 Sc155 2.025 . S
O157 Sc156 2.025 . S
C158 O164 1.268 . S
C158 O174 1.268 . S
C159 O165 1.268 . S
C159 O173 1.268 . S
C160 O166 1.268 . S
C160 O175 1.268 . S
C161 O167 1.268 . S
C161 O171 1.268 . S
C162 O168 1.268 . S
C162 O170 1.268 . S
C163 O169 1.268 . S
C163 O172 1.268 . S
O164 Sc154 2.105 . S
O164 C158 1.268 . S
O165 Sc155 2.105 . S
O165 C159 1.268 . S
O166 Sc156 2.105 . S
O166 C160 1.268 . S
O167 Sc154 2.105 . S
O167 C161 1.268 . S
O168 Sc156 2.105 . S
O168 C162 1.268 . S
O169 Sc155 2.105 . S
O169 C163 1.268 . S
O170 Sc154 2.105 . S
O170 C162 1.268 . S
O171 Sc155 2.105 . S
O171 C161 1.268 . S
O172 Sc156 2.105 . S
O172 C163 1.268 . S
O173 Sc154 2.105 . S
O173 C159 1.268 . S
O174 Sc156 2.105 . S
O174 C158 1.268 . S
O175 Sc155 2.105 . S
O175 C160 1.268 . S
Sc176 O179 2.025 . S
Sc176 O186 2.105 . S
Sc176 O189 2.105 . S
Sc176 O192 2.105 . S
Sc176 O195 2.105 . S
Sc177 O179 2.025 . S
Sc177 O187 2.105 . S
Sc177 O191 2.105 . S
Sc177 O193 2.105 . S
Sc177 O197 2.105 . S
Sc178 O179 2.025 . S
Sc178 O188 2.105 . S
Sc178 O190 2.105 . S
Sc178 O194 2.105 . S
Sc178 O196 2.105 . S
O179 Sc176 2.025 . S
O179 Sc177 2.025 . S
O179 Sc178 2.025 . S
C180 O186 1.268 . S
C180 O196 1.268 . S
C181 O187 1.268 . S
C181 O195 1.268 . S
C182 O188 1.268 . S
C182 O197 1.268 . S
C183 O189 1.268 . S
C183 O193 1.268 . S
C184 O190 1.268 . S
C184 O192 1.268 . S
C185 O191 1.268 . S
C185 O194 1.268 . S
O186 Sc176 2.105 . S
O186 C180 1.268 . S
O187 Sc177 2.105 . S
O187 C181 1.268 . S
O188 Sc178 2.105 . S
O188 C182 1.268 . S
O189 Sc176 2.105 . S
O189 C183 1.268 . S
O190 Sc178 2.105 . S
O190 C184 1.268 . S
O191 Sc177 2.105 . S
O191 C185 1.268 . S
O192 Sc176 2.105 . S
O192 C184 1.268 . S
O193 Sc177 2.105 . S
O193 C183 1.268 . S
O194 Sc178 2.105 . S
O194 C185 1.268 . S
O195 Sc176 2.105 . S
O195 C181 1.268 . S
O196 Sc178 2.105 . S
O196 C180 1.268 . S
O197 Sc177 2.105 . S
O197 C182 1.268 . S
Sc198 O201 2.025 . S
Sc198 O208 2.105 . S
Sc198 O211 2.105 . S
Sc198 O214 2.105 . S
Sc198 O217 2.105 1_455 S
Sc199 O201 2.025 . S
Sc199 O209 2.105 1_455 S
Sc199 O213 2.105 . S
Sc199 O215 2.105 . S
Sc199 O219 2.105 . S
Sc200 O201 2.025 . S
Sc200 O210 2.105 . S
Sc200 O212 2.105 . S
Sc200 O216 2.105 . S
Sc200 O218 2.105 . S
O201 Sc198 2.025 . S
O201 Sc199 2.025 . S
O201 Sc200 2.025 . S
C202 O208 1.268 . S
C202 O218 1.268 . S
C203 O209 1.268 . S
C203 O217 1.268 . S
C204 O210 1.268 . S
C204 O219 1.268 . S
C205 O211 1.268 . S
C205 O215 1.268 . S
C206 O212 1.268 . S
C206 O214 1.268 . S
C207 O213 1.268 . S
C207 O216 1.268 . S
O208 Sc198 2.105 . S
O208 C202 1.268 . S
O209 Sc199 2.105 1_655 S
O209 C203 1.268 . S
O210 Sc200 2.105 . S
O210 C204 1.268 . S
O211 Sc198 2.105 . S
O211 C205 1.268 . S
O212 Sc200 2.105 . S
O212 C206 1.268 . S
O213 Sc199 2.105 . S
O213 C207 1.268 . S
O214 Sc198 2.105 . S
O214 C206 1.268 . S
O215 Sc199 2.105 . S
O215 C205 1.268 . S
O216 Sc200 2.105 . S
O216 C207 1.268 . S
O217 Sc198 2.105 1_655 S
O217 C203 1.268 . S
O218 Sc200 2.105 . S
O218 C202 1.268 . S
O219 Sc199 2.105 . S
O219 C204 1.268 . S
Sc220 O223 2.025 . S
Sc220 O230 2.105 . S
Sc220 O233 2.105 . S
Sc220 O236 2.105 . S
Sc220 O239 2.105 . S
Sc221 O223 2.025 . S
Sc221 O231 2.105 . S
Sc221 O235 2.105 1_545 S
Sc221 O237 2.105 . S
Sc221 O241 2.105 . S
Sc222 O223 2.025 . S
Sc222 O232 2.105 . S
Sc222 O234 2.105 . S
Sc222 O238 2.105 1_545 S
Sc222 O240 2.105 . S
O223 Sc220 2.025 . S
O223 Sc221 2.025 . S
O223 Sc222 2.025 . S
C224 O230 1.268 . S
C224 O240 1.268 . S
C225 O231 1.268 . S
C225 O239 1.268 . S
C226 O232 1.268 . S
C226 O241 1.268 . S
C227 O233 1.268 . S
C227 O237 1.268 . S
C228 O234 1.268 . S
C228 O236 1.268 . S
C229 O235 1.268 . S
C229 O238 1.268 . S
O230 Sc220 2.105 . S
O230 C224 1.268 . S
O231 Sc221 2.105 . S
O231 C225 1.268 . S
O232 Sc222 2.105 . S
O232 C226 1.268 . S
O233 Sc220 2.105 . S
O233 C227 1.268 . S
O234 Sc222 2.105 . S
O234 C228 1.268 . S
O235 Sc221 2.105 1_565 S
O235 C229 1.268 . S
O236 Sc220 2.105 . S
O236 C228 1.268 . S
O237 Sc221 2.105 . S
O237 C227 1.268 . S
O238 Sc222 2.105 1_565 S
O238 C229 1.268 . S
O239 Sc220 2.105 . S
O239 C225 1.268 . S
O240 Sc222 2.105 . S
O240 C224 1.268 . S
O241 Sc221 2.105 . S
O241 C226 1.268 . S
Sc242 O245 2.025 . S
Sc242 O252 2.105 . S
Sc242 O255 2.105 . S
Sc242 O258 2.105 . S
Sc242 O261 2.105 . S
Sc243 O245 2.025 . S
Sc243 O253 2.105 . S
Sc243 O257 2.105 . S
Sc243 O259 2.105 . S
Sc243 O263 2.105 . S
Sc244 O245 2.025 . S
Sc244 O254 2.105 . S
Sc244 O256 2.105 . S
Sc244 O260 2.105 . S
Sc244 O262 2.105 . S
O245 Sc242 2.025 . S
O245 Sc243 2.025 . S
O245 Sc244 2.025 . S
C246 O252 1.268 . S
C246 O262 1.268 . S
C247 O253 1.268 . S
C247 O261 1.268 . S
C248 O254 1.268 . S
C248 O263 1.268 . S
C249 O255 1.268 . S
C249 O259 1.268 . S
C250 O256 1.268 . S
C250 O258 1.268 . S
C251 O257 1.268 . S
C251 O260 1.268 . S
O252 Sc242 2.105 . S
O252 C246 1.268 . S
O253 Sc243 2.105 . S
O253 C247 1.268 . S
O254 Sc244 2.105 . S
O254 C248 1.268 . S
O255 Sc242 2.105 . S
O255 C249 1.268 . S
O256 Sc244 2.105 . S
O256 C250 1.268 . S
O257 Sc243 2.105 . S
O257 C251 1.268 . S
O258 Sc242 2.105 . S
O258 C250 1.268 . S
O259 Sc243 2.105 . S
O259 C249 1.268 . S
O260 Sc244 2.105 . S
O260 C251 1.268 . S
O261 Sc242 2.105 . S
O261 C247 1.268 . S
O262 Sc244 2.105 . S
O262 C246 1.268 . S
O263 Sc243 2.105 . S
O263 C248 1.268 . S
Sc264 O267 2.025 . S
Sc264 O274 2.105 . S
Sc264 O277 2.105 . S
Sc264 O280 2.105 . S
Sc264 O283 2.105 . S
Sc265 O267 2.025 . S
Sc265 O275 2.105 . S
Sc265 O279 2.105 . S
Sc265 O281 2.105 . S
Sc265 O285 2.105 . S
Sc266 O267 2.025 . S
Sc266 O276 2.105 . S
Sc266 O278 2.105 . S
Sc266 O282 2.105 . S
Sc266 O284 2.105 . S
O267 Sc264 2.025 . S
O267 Sc265 2.025 . S
O267 Sc266 2.025 . S
C268 O274 1.268 . S
C268 O284 1.268 . S
C269 O275 1.268 . S
C269 O283 1.268 . S
C270 O276 1.268 . S
C270 O285 1.268 . S
C271 O277 1.268 . S
C271 O281 1.268 . S
C272 O278 1.268 . S
C272 O280 1.268 . S
C273 O279 1.268 . S
C273 O282 1.268 . S
O274 Sc264 2.105 . S
O274 C268 1.268 . S
O275 Sc265 2.105 . S
O275 C269 1.268 . S
O276 Sc266 2.105 . S
O276 C270 1.268 . S
O277 Sc264 2.105 . S
O277 C271 1.268 . S
O278 Sc266 2.105 . S
O278 C272 1.268 . S
O279 Sc265 2.105 . S
O279 C273 1.268 . S
O280 Sc264 2.105 . S
O280 C272 1.268 . S
O281 Sc265 2.105 . S
O281 C271 1.268 . S
O282 Sc266 2.105 . S
O282 C273 1.268 . S
O283 Sc264 2.105 . S
O283 C269 1.268 . S
O284 Sc266 2.105 . S
O284 C268 1.268 . S
O285 Sc265 2.105 . S
O285 C270 1.268 . S
Sc286 O289 2.025 . S
Sc286 O296 2.105 . S
Sc286 O299 2.105 . S
Sc286 O302 2.105 . S
Sc286 O305 2.105 . S
Sc287 O289 2.025 . S
Sc287 O297 2.105 . S
Sc287 O301 2.105 1_655 S
Sc287 O303 2.105 . S
Sc287 O307 2.105 . S
Sc288 O289 2.025 . S
Sc288 O298 2.105 . S
Sc288 O300 2.105 . S
Sc288 O304 2.105 1_655 S
Sc288 O306 2.105 . S
O289 Sc286 2.025 . S
O289 Sc287 2.025 . S
O289 Sc288 2.025 . S
C290 O296 1.268 . S
C290 O306 1.268 . S
C291 O297 1.268 . S
C291 O305 1.268 . S
C292 O298 1.268 . S
C292 O307 1.268 . S
C293 O299 1.268 . S
C293 O303 1.268 . S
C294 O300 1.268 . S
C294 O302 1.268 . S
C295 O301 1.268 . S
C295 O304 1.268 . S
O296 Sc286 2.105 . S
O296 C290 1.268 . S
O297 Sc287 2.105 . S
O297 C291 1.268 . S
O298 Sc288 2.105 . S
O298 C292 1.268 . S
O299 Sc286 2.105 . S
O299 C293 1.268 . S
O300 Sc288 2.105 . S
O300 C294 1.268 . S
O301 Sc287 2.105 1_455 S
O301 C295 1.268 . S
O302 Sc286 2.105 . S
O302 C294 1.268 . S
O303 Sc287 2.105 . S
O303 C293 1.268 . S
O304 Sc288 2.105 1_455 S
O304 C295 1.268 . S
O305 Sc286 2.105 . S
O305 C291 1.268 . S
O306 Sc288 2.105 . S
O306 C290 1.268 . S
O307 Sc287 2.105 . S
O307 C292 1.268 . S
Sc308 O311 2.025 . S
Sc308 O318 2.105 . S
Sc308 O321 2.105 . S
Sc308 O324 2.105 . S
Sc308 O327 2.105 . S
Sc309 O311 2.025 . S
Sc309 O319 2.105 . S
Sc309 O323 2.105 1_565 S
Sc309 O325 2.105 . S
Sc309 O329 2.105 . S
Sc310 O311 2.025 . S
Sc310 O320 2.105 . S
Sc310 O322 2.105 . S
Sc310 O326 2.105 1_565 S
Sc310 O328 2.105 . S
O311 Sc308 2.025 . S
O311 Sc309 2.025 . S
O311 Sc310 2.025 . S
C312 O318 1.268 . S
C312 O328 1.268 . S
C313 O319 1.268 . S
C313 O327 1.268 . S
C314 O320 1.268 . S
C314 O329 1.268 . S
C315 O321 1.268 . S
C315 O325 1.268 . S
C316 O322 1.268 . S
C316 O324 1.268 . S
C317 O323 1.268 . S
C317 O326 1.268 . S
O318 Sc308 2.105 . S
O318 C312 1.268 . S
O319 Sc309 2.105 . S
O319 C313 1.268 . S
O320 Sc310 2.105 . S
O320 C314 1.268 . S
O321 Sc308 2.105 . S
O321 C315 1.268 . S
O322 Sc310 2.105 . S
O322 C316 1.268 . S
O323 Sc309 2.105 1_545 S
O323 C317 1.268 . S
O324 Sc308 2.105 . S
O324 C316 1.268 . S
O325 Sc309 2.105 . S
O325 C315 1.268 . S
O326 Sc310 2.105 1_545 S
O326 C317 1.268 . S
O327 Sc308 2.105 . S
O327 C313 1.268 . S
O328 Sc310 2.105 . S
O328 C312 1.268 . S
O329 Sc309 2.105 . S
O329 C314 1.268 . S
Sc330 O333 2.025 . S
Sc330 O340 2.105 . S
Sc330 O343 2.105 . S
Sc330 O346 2.105 . S
Sc330 O349 2.105 . S
Sc331 O333 2.025 . S
Sc331 O341 2.105 . S
Sc331 O345 2.105 . S
Sc331 O347 2.105 . S
Sc331 O351 2.105 . S
Sc332 O333 2.025 . S
Sc332 O342 2.105 . S
Sc332 O344 2.105 . S
Sc332 O348 2.105 . S
Sc332 O350 2.105 . S
O333 Sc330 2.025 . S
O333 Sc331 2.025 . S
O333 Sc332 2.025 . S
C334 O340 1.268 . S
C334 O350 1.268 . S
C335 O341 1.268 . S
C335 O349 1.268 . S
C336 O342 1.268 . S
C336 O351 1.268 . S
C337 O343 1.268 . S
C337 O347 1.268 . S
C338 O344 1.268 . S
C338 O346 1.268 . S
C339 O345 1.268 . S
C339 O348 1.268 . S
O340 Sc330 2.105 . S
O340 C334 1.268 . S
O341 Sc331 2.105 . S
O341 C335 1.268 . S
O342 Sc332 2.105 . S
O342 C336 1.268 . S
O343 Sc330 2.105 . S
O343 C337 1.268 . S
O344 Sc332 2.105 . S
O344 C338 1.268 . S
O345 Sc331 2.105 . S
O345 C339 1.268 . S
O346 Sc330 2.105 . S
O346 C338 1.268 . S
O347 Sc331 2.105 . S
O347 C337 1.268 . S
O348 Sc332 2.105 . S
O348 C339 1.268 . S
O349 Sc330 2.105 . S
O349 C335 1.268 . S
O350 Sc332 2.105 . S
O350 C334 1.268 . S
O351 Sc331 2.105 . S
O351 C336 1.268 . S
H352 C364 0.930 . S
H353 C366 0.930 . S
H354 C367 0.930 . S
H355 C371 0.959 . S
H356 C371 0.959 . S
H357 C371 0.961 . S
H358 C372 0.960 . S
H359 C372 0.961 . S
H360 C372 0.959 . S
H361 C375 0.929 . S
H362 C376 0.931 . S
H363 C378 0.930 . S
C364 H352 0.930 . S
C364 C365 1.399 . S
C364 C369 1.399 . S
C365 C364 1.399 . S
C365 C366 1.376 . S
C366 H353 0.930 . S
C366 C365 1.376 . S
C366 C367 1.388 . S
C367 H354 0.930 . S
C367 C366 1.388 . S
C367 C368 1.390 . S
C368 C367 1.390 . S
C368 C369 1.394 . S
C368 C374 1.465 . S
C369 C364 1.399 . S
C369 C368 1.394 . S
C369 C370 1.516 . S
C370 C369 1.516 . S
C370 C371 1.502 . S
C370 C372 1.561 . S
C370 C373 1.526 . S
C371 H355 0.959 . S
C371 H356 0.959 . S
C371 H357 0.961 . S
C371 C370 1.502 . S
C372 H358 0.960 . S
C372 H359 0.961 . S
C372 H360 0.959 . S
C372 C370 1.561 . S
C373 C370 1.526 . S
C373 C374 1.396 . S
C373 C378 1.390 . S
C374 C368 1.465 . S
C374 C373 1.396 . S
C374 C375 1.399 . S
C375 H361 0.929 . S
C375 C374 1.399 . S
C375 C376 1.385 . S
C376 H362 0.931 . S
C376 C375 1.385 . S
C376 C377 1.389 . S
C377 C376 1.389 . S
C377 C378 1.387 . S
C378 H363 0.930 . S
C378 C373 1.390 . S
C378 C377 1.387 . S
H379 C391 0.930 . S
H380 C393 0.930 . S
H381 C394 0.930 . S
H382 C398 0.959 . S
H383 C398 0.959 . S
H384 C398 0.961 . S
H385 C399 0.960 . S
H386 C399 0.961 . S
H387 C399 0.959 . S
H388 C402 0.929 . S
H389 C403 0.931 . S
H390 C405 0.930 . S
C391 H379 0.930 . S
C391 C392 1.399 . S
C391 C396 1.399 . S
C392 C391 1.399 . S
C392 C393 1.376 . S
C393 H380 0.930 . S
C393 C392 1.376 . S
C393 C394 1.388 . S
C394 H381 0.930 . S
C394 C393 1.388 . S
C394 C395 1.390 . S
C395 C394 1.390 . S
C395 C396 1.394 . S
C395 C401 1.465 1_554 S
C396 C391 1.399 . S
C396 C395 1.394 . S
C396 C397 1.516 1_554 S
C397 C396 1.516 1_556 S
C397 C398 1.502 1_556 S
C397 C399 1.561 . S
C397 C400 1.526 . S
C398 H382 0.959 . S
C398 H383 0.959 . S
C398 H384 0.961 . S
C398 C397 1.502 1_554 S
C399 H385 0.960 . S
C399 H386 0.961 . S
C399 H387 0.959 . S
C399 C397 1.561 . S
C400 C397 1.526 . S
C400 C401 1.396 . S
C400 C405 1.390 . S
C401 C395 1.465 1_556 S
C401 C400 1.396 . S
C401 C402 1.399 . S
C402 H388 0.929 . S
C402 C401 1.399 . S
C402 C403 1.385 . S
C403 H389 0.931 . S
C403 C402 1.385 . S
C403 C404 1.389 . S
C404 C403 1.389 . S
C404 C405 1.387 . S
C405 H390 0.930 . S
C405 C400 1.390 . S
C405 C404 1.387 . S
H406 C418 0.930 . S
H407 C420 0.930 . S
H408 C421 0.930 . S
H409 C425 0.959 . S
H410 C425 0.959 . S
H411 C425 0.961 . S
H412 C426 0.960 . S
H413 C426 0.961 . S
H414 C426 0.959 . S
H415 C429 0.929 . S
H416 C430 0.931 . S
H417 C432 0.930 . S
C418 H406 0.930 . S
C418 C419 1.399 . S
C418 C423 1.399 . S
C419 C418 1.399 . S
C419 C420 1.376 . S
C420 H407 0.930 . S
C420 C419 1.376 . S
C420 C421 1.388 . S
C421 H408 0.930 . S
C421 C420 1.388 . S
C421 C422 1.390 . S
C422 C421 1.390 . S
C422 C423 1.394 . S
C422 C428 1.465 . S
C423 C418 1.399 . S
C423 C422 1.394 . S
C423 C424 1.516 . S
C424 C423 1.516 . S
C424 C425 1.502 . S
C424 C426 1.561 . S
C424 C427 1.526 . S
C425 H409 0.959 . S
C425 H410 0.959 . S
C425 H411 0.961 . S
C425 C424 1.502 . S
C426 H412 0.960 . S
C426 H413 0.961 . S
C426 H414 0.959 . S
C426 C424 1.561 . S
C427 C424 1.526 . S
C427 C428 1.396 . S
C427 C432 1.390 . S
C428 C422 1.465 . S
C428 C427 1.396 . S
C428 C429 1.399 . S
C429 H415 0.929 . S
C429 C428 1.399 . S
C429 C430 1.385 . S
C430 H416 0.931 . S
C430 C429 1.385 . S
C430 C431 1.389 . S
C431 C430 1.389 . S
C431 C432 1.387 . S
C432 H417 0.930 . S
C432 C427 1.390 . S
C432 C431 1.387 . S
H433 C445 0.930 . S
H434 C447 0.930 . S
H435 C448 0.918 1_554 S
H436 C452 0.959 1_554 S
H437 C452 0.959 . S
H438 C452 0.961 . S
H439 C453 0.960 . S
H440 C453 0.961 . S
H441 C453 0.959 . S
H442 C456 0.929 . S
H443 C457 0.931 . S
H444 C459 0.930 . S
C445 H433 0.930 . S
C445 C446 1.399 . S
C445 C450 1.399 . S
C446 C445 1.399 . S
C446 C447 1.376 . S
C447 H434 0.930 . S
C447 C446 1.376 . S
C447 C448 1.388 . S
C448 H435 0.918 1_556 S
C448 C447 1.388 . S
C448 C449 1.390 . S
C449 C448 1.390 . S
C449 C450 1.394 . S
C449 C455 1.465 1_556 S
C450 C445 1.399 . S
C450 C449 1.394 . S
C450 C451 1.516 . S
C451 C450 1.516 . S
C451 C452 1.502 . S
C451 C453 1.561 . S
C451 C454 1.526 1_556 S
C452 H436 0.959 1_556 S
C452 H437 0.959 . S
C452 H438 0.961 . S
C452 C451 1.502 . S
C453 H439 0.960 . S
C453 H440 0.961 . S
C453 H441 0.959 . S
C453 C451 1.561 . S
C454 C451 1.526 1_554 S
C454 C455 1.396 . S
C454 C459 1.390 . S
C455 C449 1.465 1_554 S
C455 C454 1.396 . S
C455 C456 1.399 . S
C456 H442 0.929 . S
C456 C455 1.399 . S
C456 C457 1.385 . S
C457 H443 0.931 . S
C457 C456 1.385 . S
C457 C458 1.389 . S
C458 C457 1.389 . S
C458 C459 1.387 . S
C459 H444 0.930 . S
C459 C454 1.390 . S
C459 C458 1.387 . S
H460 C472 0.930 . S
H461 C474 0.930 . S
H462 C475 0.930 . S
H463 C479 0.959 . S
H464 C479 0.959 . S
H465 C479 0.961 . S
H466 C480 0.960 . S
H467 C480 0.961 . S
H468 C480 0.959 . S
H469 C483 0.929 . S
H470 C484 0.931 . S
H471 C486 0.930 . S
C472 H460 0.930 . S
C472 C473 1.399 . S
C472 C477 1.399 . S
C473 C472 1.399 . S
C473 C474 1.376 . S
C474 H461 0.930 . S
C474 C473 1.376 . S
C474 C475 1.388 . S
C475 H462 0.930 . S
C475 C474 1.388 . S
C475 C476 1.390 . S
C476 C475 1.390 . S
C476 C477 1.394 . S
C476 C482 1.465 . S
C477 C472 1.399 . S
C477 C476 1.394 . S
C477 C478 1.516 . S
C478 C477 1.516 . S
C478 C479 1.502 . S
C478 C480 1.561 . S
C478 C481 1.526 . S
C479 H463 0.959 . S
C479 H464 0.959 . S
C479 H465 0.961 . S
C479 C478 1.502 . S
C480 H466 0.960 . S
C480 H467 0.961 . S
C480 H468 0.959 . S
C480 C478 1.561 . S
C481 C478 1.526 . S
C481 C482 1.396 . S
C481 C486 1.390 . S
C482 C476 1.465 . S
C482 C481 1.396 . S
C482 C483 1.399 . S
C483 H469 0.929 . S
C483 C482 1.399 . S
C483 C484 1.385 . S
C484 H470 0.931 . S
C484 C483 1.385 . S
C484 C485 1.389 . S
C485 C484 1.389 . S
C485 C486 1.387 . S
C486 H471 0.930 . S
C486 C481 1.390 . S
C486 C485 1.387 . S
H487 C499 0.930 . S
H488 C501 0.930 . S
H489 C502 0.930 1_554 S
H490 C506 0.959 . S
H491 C506 0.959 . S
H492 C506 0.961 . S
H493 C507 0.960 . S
H494 C507 0.961 . S
H495 C507 0.959 . S
H496 C510 0.929 . S
H497 C511 0.931 . S
H498 C513 0.930 . S
C499 H487 0.930 . S
C499 C500 1.399 . S
C499 C504 1.399 . S
C500 C499 1.399 . S
C500 C501 1.376 . S
C501 H488 0.930 . S
C501 C500 1.376 . S
C501 C502 1.388 . S
C502 H489 0.930 1_556 S
C502 C501 1.388 . S
C502 C503 1.390 . S
C503 C502 1.390 . S
C503 C504 1.394 . S
C503 C509 1.465 1_556 S
C504 C499 1.399 . S
C504 C503 1.394 . S
C504 C505 1.516 . S
C505 C504 1.516 . S
C505 C506 1.502 . S
C505 C507 1.561 . S
C505 C508 1.526 1_556 S
C506 H490 0.959 . S
C506 H491 0.959 . S
C506 H492 0.961 . S
C506 C505 1.502 . S
C507 H493 0.960 . S
C507 H494 0.961 . S
C507 H495 0.959 . S
C507 C505 1.561 . S
C508 C505 1.526 1_554 S
C508 C509 1.396 . S
C508 C513 1.390 . S
C509 C503 1.465 1_554 S
C509 C508 1.396 . S
C509 C510 1.399 . S
C510 H496 0.929 . S
C510 C509 1.399 . S
C510 C511 1.385 . S
C511 H497 0.931 . S
C511 C510 1.385 . S
C511 C512 1.389 . S
C512 C511 1.389 . S
C512 C513 1.387 . S
C513 H498 0.930 . S
C513 C508 1.390 . S
C513 C512 1.387 . S
H514 C526 0.930 . S
H515 C528 0.930 . S
H516 C529 0.930 . S
H517 C533 0.959 . S
H518 C533 0.959 . S
H519 C533 0.961 . S
H520 C534 0.960 . S
H521 C534 0.961 . S
H522 C534 0.959 . S
H523 C537 0.929 . S
H524 C538 0.931 . S
H525 C540 0.930 . S
C526 H514 0.930 . S
C526 C527 1.399 . S
C526 C531 1.399 . S
C527 C526 1.399 . S
C527 C528 1.376 . S
C528 H515 0.930 . S
C528 C527 1.376 . S
C528 C529 1.388 . S
C529 H516 0.930 . S
C529 C528 1.388 . S
C529 C530 1.390 . S
C530 C529 1.390 . S
C530 C531 1.394 . S
C530 C536 1.465 . S
C531 C526 1.399 . S
C531 C530 1.394 . S
C531 C532 1.516 . S
C532 C531 1.516 . S
C532 C533 1.502 . S
C532 C534 1.561 . S
C532 C535 1.526 . S
C533 H517 0.959 . S
C533 H518 0.959 . S
C533 H519 0.961 . S
C533 C532 1.502 . S
C534 H520 0.960 . S
C534 H521 0.961 . S
C534 H522 0.959 . S
C534 C532 1.561 . S
C535 C532 1.526 . S
C535 C536 1.396 . S
C535 C540 1.390 . S
C536 C530 1.465 . S
C536 C535 1.396 . S
C536 C537 1.399 . S
C537 H523 0.929 . S
C537 C536 1.399 . S
C537 C538 1.385 . S
C538 H524 0.931 . S
C538 C537 1.385 . S
C538 C539 1.389 . S
C539 C538 1.389 . S
C539 C540 1.387 . S
C540 H525 0.930 . S
C540 C535 1.390 . S
C540 C539 1.387 . S
H541 C553 0.930 . S
H542 C555 0.930 . S
H543 C556 0.930 . S
H544 C560 0.959 1_556 S
H545 C560 0.959 . S
H546 C560 0.961 . S
H547 C561 0.960 . S
H548 C561 0.961 . S
H549 C561 0.959 . S
H550 C564 0.929 1_556 S
H551 C565 0.931 . S
H552 C567 0.930 . S
C553 H541 0.930 . S
C553 C554 1.399 . S
C553 C558 1.399 . S
C554 C553 1.399 . S
C554 C555 1.376 . S
C555 H542 0.930 . S
C555 C554 1.376 . S
C555 C556 1.388 . S
C556 H543 0.930 . S
C556 C555 1.388 . S
C556 C557 1.390 . S
C557 C556 1.390 . S
C557 C558 1.394 . S
C557 C563 1.465 1_556 S
C558 C553 1.399 . S
C558 C557 1.394 . S
C558 C559 1.516 1_556 S
C559 C558 1.516 1_554 S
C559 C560 1.502 . S
C559 C561 1.561 . S
C559 C562 1.526 . S
C560 H544 0.959 1_554 S
C560 H545 0.959 . S
C560 H546 0.961 . S
C560 C559 1.502 . S
C561 H547 0.960 . S
C561 H548 0.961 . S
C561 H549 0.959 . S
C561 C559 1.561 . S
C562 C559 1.526 . S
C562 C563 1.396 . S
C562 C567 1.390 . S
C563 C557 1.465 1_554 S
C563 C562 1.396 . S
C563 C564 1.399 . S
C564 H550 0.929 1_554 S
C564 C563 1.399 . S
C564 C565 1.385 . S
C565 H551 0.931 . S
C565 C564 1.385 . S
C565 C566 1.389 . S
C566 C565 1.389 . S
C566 C567 1.387 . S
C567 H552 0.930 . S
C567 C562 1.390 . S
C567 C566 1.387 . S
H568 C580 0.930 . S
H569 C582 0.930 . S
H570 C583 0.930 . S
H571 C587 0.959 . S
H572 C587 0.959 . S
H573 C587 0.961 . S
H574 C588 0.960 . S
H575 C588 0.961 . S
H576 C588 0.959 . S
H577 C591 0.929 . S
H578 C592 0.931 . S
H579 C594 0.930 . S
C580 H568 0.930 . S
C580 C581 1.399 . S
C580 C585 1.399 . S
C581 C580 1.399 . S
C581 C582 1.376 . S
C582 H569 0.930 . S
C582 C581 1.376 . S
C582 C583 1.388 . S
C583 H570 0.930 . S
C583 C582 1.388 . S
C583 C584 1.390 . S
C584 C583 1.390 . S
C584 C585 1.394 . S
C584 C590 1.465 . S
C585 C580 1.399 . S
C585 C584 1.394 . S
C585 C586 1.516 . S
C586 C585 1.516 . S
C586 C587 1.502 . S
C586 C588 1.561 . S
C586 C589 1.526 . S
C587 H571 0.959 . S
C587 H572 0.959 . S
C587 H573 0.961 . S
C587 C586 1.502 . S
C588 H574 0.960 . S
C588 H575 0.961 . S
C588 H576 0.959 . S
C588 C586 1.561 . S
C589 C586 1.526 . S
C589 C590 1.396 . S
C589 C594 1.390 . S
C590 C584 1.465 . S
C590 C589 1.396 . S
C590 C591 1.399 . S
C591 H577 0.929 . S
C591 C590 1.399 . S
C591 C592 1.385 . S
C592 H578 0.931 . S
C592 C591 1.385 . S
C592 C593 1.389 . S
C593 C592 1.389 . S
C593 C594 1.387 . S
C594 H579 0.930 . S
C594 C589 1.390 . S
C594 C593 1.387 . S
H595 C607 0.930 . S
H596 C609 0.930 . S
H597 C610 0.930 . S
H598 C614 0.959 . S
H599 C614 0.959 . S
H600 C614 0.961 . S
H601 C615 0.960 . S
H602 C615 0.961 . S
H603 C615 0.959 . S
H604 C618 0.929 . S
H605 C619 0.931 . S
H606 C621 0.930 . S
C607 H595 0.930 . S
C607 C608 1.399 . S
C607 C612 1.399 . S
C608 C607 1.399 . S
C608 C609 1.376 . S
C609 H596 0.930 . S
C609 C608 1.376 . S
C609 C610 1.388 . S
C610 H597 0.930 . S
C610 C609 1.388 . S
C610 C611 1.390 . S
C611 C610 1.390 . S
C611 C612 1.394 . S
C611 C617 1.465 . S
C612 C607 1.399 . S
C612 C611 1.394 . S
C612 C613 1.516 . S
C613 C612 1.516 . S
C613 C614 1.502 . S
C613 C615 1.561 . S
C613 C616 1.526 . S
C614 H598 0.959 . S
C614 H599 0.959 . S
C614 H600 0.961 . S
C614 C613 1.502 . S
C615 H601 0.960 . S
C615 H602 0.961 . S
C615 H603 0.959 . S
C615 C613 1.561 . S
C616 C613 1.526 . S
C616 C617 1.396 . S
C616 C621 1.390 . S
C617 C611 1.465 . S
C617 C616 1.396 . S
C617 C618 1.399 . S
C618 H604 0.929 . S
C618 C617 1.399 . S
C618 C619 1.385 . S
C619 H605 0.931 . S
C619 C618 1.385 . S
C619 C620 1.389 . S
C620 C619 1.389 . S
C620 C621 1.387 . S
C621 H606 0.930 . S
C621 C616 1.390 . S
C621 C620 1.387 . S
H622 C634 0.930 . S
H623 C636 0.930 . S
H624 C637 0.930 . S
H625 C641 0.959 . S
H626 C641 0.959 . S
H627 C641 0.961 . S
H628 C642 0.960 . S
H629 C642 0.961 . S
H630 C642 0.959 . S
H631 C645 0.929 . S
H632 C646 0.931 . S
H633 C648 0.930 . S
C634 H622 0.930 . S
C634 C635 1.399 . S
C634 C639 1.399 . S
C635 C634 1.399 . S
C635 C636 1.376 . S
C636 H623 0.930 . S
C636 C635 1.376 . S
C636 C637 1.388 . S
C637 H624 0.930 . S
C637 C636 1.388 . S
C637 C638 1.390 . S
C638 C637 1.390 . S
C638 C639 1.394 . S
C638 C644 1.465 . S
C639 C634 1.399 . S
C639 C638 1.394 . S
C639 C640 1.516 . S
C640 C639 1.516 . S
C640 C641 1.502 . S
C640 C642 1.561 . S
C640 C643 1.526 . S
C641 H625 0.959 . S
C641 H626 0.959 . S
C641 H627 0.961 . S
C641 C640 1.502 . S
C642 H628 0.960 . S
C642 H629 0.961 . S
C642 H630 0.959 . S
C642 C640 1.561 . S
C643 C640 1.526 . S
C643 C644 1.396 . S
C643 C648 1.390 . S
C644 C638 1.465 . S
C644 C643 1.396 . S
C644 C645 1.399 . S
C645 H631 0.929 . S
C645 C644 1.399 . S
C645 C646 1.385 . S
C646 H632 0.931 . S
C646 C645 1.385 . S
C646 C647 1.389 . S
C647 C646 1.389 . S
C647 C648 1.387 . S
C648 H633 0.930 . S
C648 C643 1.390 . S
C648 C647 1.387 . S
H649 C661 0.930 . S
H650 C663 0.930 . S
H651 C664 0.930 . S
H652 C668 0.959 . S
H653 C668 0.959 . S
H654 C668 0.961 . S
H655 C669 0.960 . S
H656 C669 0.961 . S
H657 C669 0.959 . S
H658 C672 0.929 . S
H659 C673 0.931 . S
H660 C675 0.930 . S
C661 H649 0.930 . S
C661 C662 1.399 . S
C661 C666 1.399 . S
C662 C661 1.399 . S
C662 C663 1.376 . S
C663 H650 0.930 . S
C663 C662 1.376 . S
C663 C664 1.388 . S
C664 H651 0.930 . S
C664 C663 1.388 . S
C664 C665 1.390 . S
C665 C664 1.390 . S
C665 C666 1.394 . S
C665 C671 1.465 . S
C666 C661 1.399 . S
C666 C665 1.394 . S
C666 C667 1.516 . S
C667 C666 1.516 . S
C667 C668 1.502 . S
C667 C669 1.561 . S
C667 C670 1.526 . S
C668 H652 0.959 . S
C668 H653 0.959 . S
C668 H654 0.961 . S
C668 C667 1.502 . S
C669 H655 0.960 . S
C669 H656 0.961 . S
C669 H657 0.959 . S
C669 C667 1.561 . S
C670 C667 1.526 . S
C670 C671 1.396 . S
C670 C675 1.390 . S
C671 C665 1.465 . S
C671 C670 1.396 . S
C671 C672 1.399 . S
C672 H658 0.929 . S
C672 C671 1.399 . S
C672 C673 1.385 . S
C673 H659 0.931 . S
C673 C672 1.385 . S
C673 C674 1.389 . S
C674 C673 1.389 . S
C674 C675 1.387 . S
C675 H660 0.930 . S
C675 C670 1.390 . S
C675 C674 1.387 . S
H676 C688 0.930 . S
H677 C690 0.930 . S
H678 C691 0.930 . S
H679 C695 0.959 . S
H680 C695 0.959 . S
H681 C695 0.961 . S
H682 C696 0.960 . S
H683 C696 0.961 . S
H684 C696 0.959 . S
H685 C699 0.929 . S
H686 C700 0.931 . S
H687 C702 0.930 . S
C688 H676 0.930 . S
C688 C689 1.399 . S
C688 C693 1.399 . S
C689 C688 1.399 . S
C689 C690 1.376 . S
C690 H677 0.930 . S
C690 C689 1.376 . S
C690 C691 1.388 . S
C691 H678 0.930 . S
C691 C690 1.388 . S
C691 C692 1.390 . S
C692 C691 1.390 . S
C692 C693 1.394 . S
C692 C698 1.465 . S
C693 C688 1.399 . S
C693 C692 1.394 . S
C693 C694 1.516 . S
C694 C693 1.516 . S
C694 C695 1.502 . S
C694 C696 1.561 . S
C694 C697 1.526 . S
C695 H679 0.959 . S
C695 H680 0.959 . S
C695 H681 0.961 . S
C695 C694 1.502 . S
C696 H682 0.960 . S
C696 H683 0.961 . S
C696 H684 0.959 . S
C696 C694 1.561 . S
C697 C694 1.526 . S
C697 C698 1.396 . S
C697 C702 1.390 . S
C698 C692 1.465 . S
C698 C697 1.396 . S
C698 C699 1.399 . S
C699 H685 0.929 . S
C699 C698 1.399 . S
C699 C700 1.385 . S
C700 H686 0.931 . S
C700 C699 1.385 . S
C700 C701 1.389 . S
C701 C700 1.389 . S
C701 C702 1.387 . S
C702 H687 0.930 . S
C702 C697 1.390 . S
C702 C701 1.387 . S
H703 C715 0.930 . S
H704 C717 0.930 . S
H705 C718 0.930 . S
H706 C722 0.959 . S
H707 C722 0.959 . S
H708 C722 0.961 . S
H709 C723 0.960 . S
H710 C723 0.961 . S
H711 C723 0.959 . S
H712 C726 0.929 . S
H713 C727 0.931 . S
H714 C729 0.930 . S
C715 H703 0.930 . S
C715 C716 1.399 . S
C715 C720 1.399 . S
C716 C715 1.399 . S
C716 C717 1.376 . S
C717 H704 0.930 . S
C717 C716 1.376 . S
C717 C718 1.388 . S
C718 H705 0.930 . S
C718 C717 1.388 . S
C718 C719 1.390 . S
C719 C718 1.390 . S
C719 C720 1.394 . S
C719 C725 1.465 . S
C720 C715 1.399 . S
C720 C719 1.394 . S
C720 C721 1.516 . S
C721 C720 1.516 . S
C721 C722 1.502 . S
C721 C723 1.561 . S
C721 C724 1.526 . S
C722 H706 0.959 . S
C722 H707 0.959 . S
C722 H708 0.961 . S
C722 C721 1.502 . S
C723 H709 0.960 . S
C723 H710 0.961 . S
C723 H711 0.959 . S
C723 C721 1.561 . S
C724 C721 1.526 . S
C724 C725 1.396 . S
C724 C729 1.390 . S
C725 C719 1.465 . S
C725 C724 1.396 . S
C725 C726 1.399 . S
C726 H712 0.929 . S
C726 C725 1.399 . S
C726 C727 1.385 . S
C727 H713 0.931 . S
C727 C726 1.385 . S
C727 C728 1.389 . S
C728 C727 1.389 . S
C728 C729 1.387 . S
C729 H714 0.930 . S
C729 C724 1.390 . S
C729 C728 1.387 . S
H730 C742 0.930 . S
H731 C744 0.930 . S
H732 C745 0.930 . S
H733 C749 0.959 . S
H734 C749 0.959 . S
H735 C749 0.961 . S
H736 C750 0.960 . S
H737 C750 0.961 . S
H738 C750 0.959 . S
H739 C753 0.929 . S
H740 C754 0.931 . S
H741 C756 0.930 . S
C742 H730 0.930 . S
C742 C743 1.399 . S
C742 C747 1.399 . S
C743 C742 1.399 . S
C743 C744 1.376 . S
C744 H731 0.930 . S
C744 C743 1.376 . S
C744 C745 1.388 . S
C745 H732 0.930 . S
C745 C744 1.388 . S
C745 C746 1.390 . S
C746 C745 1.390 . S
C746 C747 1.394 . S
C746 C752 1.465 . S
C747 C742 1.399 . S
C747 C746 1.394 . S
C747 C748 1.516 . S
C748 C747 1.516 . S
C748 C749 1.502 . S
C748 C750 1.561 . S
C748 C751 1.526 . S
C749 H733 0.959 . S
C749 H734 0.959 . S
C749 H735 0.961 . S
C749 C748 1.502 . S
C750 H736 0.960 . S
C750 H737 0.961 . S
C750 H738 0.959 . S
C750 C748 1.561 . S
C751 C748 1.526 . S
C751 C752 1.396 . S
C751 C756 1.390 . S
C752 C746 1.465 . S
C752 C751 1.396 . S
C752 C753 1.399 . S
C753 H739 0.929 . S
C753 C752 1.399 . S
C753 C754 1.385 . S
C754 H740 0.931 . S
C754 C753 1.385 . S
C754 C755 1.389 . S
C755 C754 1.389 . S
C755 C756 1.387 . S
C756 H741 0.930 . S
C756 C751 1.390 . S
C756 C755 1.387 . S
H757 C769 0.930 . S
H758 C771 0.930 . S
H759 C772 0.930 . S
H760 C776 0.959 . S
H761 C776 0.959 . S
H762 C776 0.961 . S
H763 C777 0.960 . S
H764 C777 0.961 . S
H765 C777 0.959 . S
H766 C780 0.929 . S
H767 C781 0.931 . S
H768 C783 0.930 . S
C769 H757 0.930 . S
C769 C770 1.399 . S
C769 C774 1.399 . S
C770 C769 1.399 . S
C770 C771 1.376 . S
C771 H758 0.930 . S
C771 C770 1.376 . S
C771 C772 1.388 . S
C772 H759 0.930 . S
C772 C771 1.388 . S
C772 C773 1.390 . S
C773 C772 1.390 . S
C773 C774 1.394 . S
C773 C779 1.465 . S
C774 C769 1.399 . S
C774 C773 1.394 . S
C774 C775 1.516 . S
C775 C774 1.516 . S
C775 C776 1.502 . S
C775 C777 1.561 . S
C775 C778 1.526 . S
C776 H760 0.959 . S
C776 H761 0.959 . S
C776 H762 0.961 . S
C776 C775 1.502 . S
C777 H763 0.960 . S
C777 H764 0.961 . S
C777 H765 0.959 . S
C777 C775 1.561 . S
C778 C775 1.526 . S
C778 C779 1.396 . S
C778 C783 1.390 . S
C779 C773 1.465 . S
C779 C778 1.396 . S
C779 C780 1.399 . S
C780 H766 0.929 . S
C780 C779 1.399 . S
C780 C781 1.385 . S
C781 H767 0.931 . S
C781 C780 1.385 . S
C781 C782 1.389 . S
C782 C781 1.389 . S
C782 C783 1.387 . S
C783 H768 0.930 . S
C783 C778 1.390 . S
C783 C782 1.387 . S
H784 C796 0.919 1_556 S
H785 C798 0.930 . S
H786 C799 0.930 . S
H787 C803 0.959 . S
H788 C803 0.959 . S
H789 C803 0.961 . S
H790 C804 0.960 . S
H791 C804 0.961 . S
H792 C804 0.959 . S
H793 C807 0.929 . S
H794 C808 0.931 . S
H795 C810 0.930 . S
C796 H784 0.919 1_554 S
C796 C797 1.387 1_554 S
C796 C801 1.422 . S
C797 C796 1.387 1_556 S
C797 C798 1.376 . S
C798 H785 0.930 . S
C798 C797 1.376 . S
C798 C799 1.388 1_556 S
C799 H786 0.930 . S
C799 C798 1.388 1_554 S
C799 C800 1.390 . S
C800 C799 1.390 . S
C800 C801 1.394 . S
C800 C806 1.465 . S
C801 C796 1.422 . S
C801 C800 1.394 . S
C801 C802 1.516 . S
C802 C801 1.516 . S
C802 C803 1.502 . S
C802 C804 1.561 . S
C802 C805 1.526 . S
C803 H787 0.959 . S
C803 H788 0.959 . S
C803 H789 0.961 . S
C803 C802 1.502 . S
C804 H790 0.960 . S
C804 H791 0.961 . S
C804 H792 0.959 . S
C804 C802 1.561 . S
C805 C802 1.526 . S
C805 C806 1.396 . S
C805 C810 1.390 . S
C806 C800 1.465 . S
C806 C805 1.396 . S
C806 C807 1.399 . S
C807 H793 0.929 . S
C807 C806 1.399 . S
C807 C808 1.385 . S
C808 H794 0.931 . S
C808 C807 1.385 . S
C808 C809 1.389 . S
C809 C808 1.389 . S
C809 C810 1.387 . S
C810 H795 0.930 . S
C810 C805 1.390 . S
C810 C809 1.387 . S
H811 C823 0.930 . S
H812 C825 0.930 . S
H813 C826 0.930 . S
H814 C830 0.959 . S
H815 C830 0.959 . S
H816 C830 0.961 . S
H817 C831 0.960 . S
H818 C831 0.961 . S
H819 C831 0.959 . S
H820 C834 0.929 . S
H821 C835 0.931 . S
H822 C837 0.930 . S
C823 H811 0.930 . S
C823 C824 1.399 1_455 S
C823 C828 1.399 . S
C824 C823 1.399 1_655 S
C824 C825 1.376 . S
C825 H812 0.930 . S
C825 C824 1.376 . S
C825 C826 1.388 . S
C826 H813 0.930 . S
C826 C825 1.388 . S
C826 C827 1.390 . S
C827 C826 1.390 . S
C827 C828 1.394 1_655 S
C827 C833 1.465 . S
C828 C823 1.399 . S
C828 C827 1.394 1_455 S
C828 C829 1.516 . S
C829 C828 1.516 . S
C829 C830 1.502 . S
C829 C831 1.561 . S
C829 C832 1.534 . S
C830 H814 0.959 . S
C830 H815 0.959 . S
C830 H816 0.961 . S
C830 C829 1.502 . S
C831 H817 0.960 . S
C831 H818 0.961 . S
C831 H819 0.959 . S
C831 C829 1.561 . S
C832 C829 1.534 . S
C832 C833 1.384 1_455 S
C832 C837 1.392 . S
C833 C827 1.465 . S
C833 C832 1.384 1_655 S
C833 C834 1.399 . S
C834 H820 0.929 . S
C834 C833 1.399 . S
C834 C835 1.385 . S
C835 H821 0.931 . S
C835 C834 1.385 . S
C835 C836 1.389 . S
C836 C835 1.389 . S
C836 C837 1.387 1_655 S
C837 H822 0.930 . S
C837 C832 1.392 . S
C837 C836 1.387 1_455 S
H838 C850 0.930 . S
H839 C852 0.930 . S
H840 C853 0.930 . S
H841 C857 0.959 . S
H842 C857 0.959 . S
H843 C857 0.961 . S
H844 C858 0.960 . S
H845 C858 0.961 . S
H846 C858 0.959 . S
H847 C861 0.929 . S
H848 C862 0.931 . S
H849 C864 0.930 . S
C850 H838 0.930 . S
C850 C851 1.399 1_544 S
C850 C855 1.399 . S
C851 C850 1.399 1_566 S
C851 C852 1.376 . S
C852 H839 0.930 . S
C852 C851 1.376 . S
C852 C853 1.388 1_556 S
C853 H840 0.930 . S
C853 C852 1.388 1_554 S
C853 C854 1.390 . S
C854 C853 1.390 . S
C854 C855 1.394 1_565 S
C854 C860 1.465 . S
C855 C850 1.399 . S
C855 C854 1.394 1_545 S
C855 C856 1.516 . S
C856 C855 1.516 . S
C856 C857 1.502 . S
C856 C858 1.561 . S
C856 C859 1.526 . S
C857 H841 0.959 . S
C857 H842 0.959 . S
C857 H843 0.961 . S
C857 C856 1.502 . S
C858 H844 0.960 . S
C858 H845 0.961 . S
C858 H846 0.959 . S
C858 C856 1.561 . S
C859 C856 1.526 . S
C859 C860 1.396 1_545 S
C859 C864 1.390 . S
C860 C854 1.465 . S
C860 C859 1.396 1_565 S
C860 C861 1.399 . S
C861 H847 0.929 . S
C861 C860 1.399 . S
C861 C862 1.385 . S
C862 H848 0.931 . S
C862 C861 1.385 . S
C862 C863 1.389 . S
C863 C862 1.389 . S
C863 C864 1.387 1_565 S
C864 H849 0.930 . S
C864 C859 1.390 . S
C864 C863 1.387 1_545 S
H865 C877 0.930 . S
H866 C879 0.930 . S
H867 C880 0.930 . S
H868 C884 0.959 . S
H869 C884 0.959 . S
H870 C884 0.961 . S
H871 C885 0.960 . S
H872 C885 0.961 . S
H873 C885 0.959 . S
H874 C888 0.929 . S
H875 C889 0.931 . S
H876 C891 0.930 . S
C877 H865 0.930 . S
C877 C878 1.399 . S
C877 C882 1.399 . S
C878 C877 1.399 . S
C878 C879 1.376 . S
C879 H866 0.930 . S
C879 C878 1.376 . S
C879 C880 1.388 . S
C880 H867 0.930 . S
C880 C879 1.388 . S
C880 C881 1.390 . S
C881 C880 1.390 . S
C881 C882 1.394 . S
C881 C887 1.465 . S
C882 C877 1.399 . S
C882 C881 1.394 . S
C882 C883 1.516 . S
C883 C882 1.516 . S
C883 C884 1.502 . S
C883 C885 1.561 . S
C883 C886 1.526 . S
C884 H868 0.959 . S
C884 H869 0.959 . S
C884 H870 0.961 . S
C884 C883 1.502 . S
C885 H871 0.960 . S
C885 H872 0.961 . S
C885 H873 0.959 . S
C885 C883 1.561 . S
C886 C883 1.526 . S
C886 C887 1.396 . S
C886 C891 1.390 . S
C887 C881 1.465 . S
C887 C886 1.396 . S
C887 C888 1.399 . S
C888 H874 0.929 . S
C888 C887 1.399 . S
C888 C889 1.385 . S
C889 H875 0.931 . S
C889 C888 1.385 . S
C889 C890 1.389 . S
C890 C889 1.389 . S
C890 C891 1.387 . S
C891 H876 0.930 . S
C891 C886 1.390 . S
C891 C890 1.387 . S
H892 C904 0.930 . S
H893 C906 0.930 . S
H894 C907 0.930 . S
H895 C911 0.959 . S
H896 C911 0.959 . S
H897 C911 0.961 . S
H898 C912 0.960 . S
H899 C912 0.961 . S
H900 C912 0.959 . S
H901 C915 0.929 . S
H902 C916 0.931 . S
H903 C918 0.930 . S
C904 H892 0.930 . S
C904 C905 1.399 . S
C904 C909 1.399 . S
C905 C904 1.399 . S
C905 C906 1.376 . S
C906 H893 0.930 . S
C906 C905 1.376 . S
C906 C907 1.388 . S
C907 H894 0.930 . S
C907 C906 1.388 . S
C907 C908 1.390 . S
C908 C907 1.390 . S
C908 C909 1.394 . S
C908 C914 1.465 . S
C909 C904 1.399 . S
C909 C908 1.394 . S
C909 C910 1.516 . S
C910 C909 1.516 . S
C910 C911 1.502 . S
C910 C912 1.561 . S
C910 C913 1.526 . S
C911 H895 0.959 . S
C911 H896 0.959 . S
C911 H897 0.961 . S
C911 C910 1.502 . S
C912 H898 0.960 . S
C912 H899 0.961 . S
C912 H900 0.959 . S
C912 C910 1.561 . S
C913 C910 1.526 . S
C913 C914 1.396 . S
C913 C918 1.390 . S
C914 C908 1.465 . S
C914 C913 1.396 . S
C914 C915 1.399 . S
C915 H901 0.929 . S
C915 C914 1.399 . S
C915 C916 1.385 . S
C916 H902 0.931 . S
C916 C915 1.385 . S
C916 C917 1.389 . S
C917 C916 1.389 . S
C917 C918 1.387 . S
C918 H903 0.930 . S
C918 C913 1.390 . S
C918 C917 1.387 . S
H919 C931 0.930 . S
H920 C933 0.930 . S
H921 C934 0.930 . S
H922 C938 0.959 . S
H923 C938 0.959 . S
H924 C938 0.961 . S
H925 C939 0.960 . S
H926 C939 0.961 . S
H927 C939 0.959 . S
H928 C942 0.929 . S
H929 C943 0.931 . S
H930 C945 0.930 . S
C931 H919 0.930 . S
C931 C932 1.399 . S
C931 C936 1.399 . S
C932 C931 1.399 . S
C932 C933 1.376 1_455 S
C933 H920 0.930 . S
C933 C932 1.376 1_655 S
C933 C934 1.388 . S
C934 H921 0.930 . S
C934 C933 1.388 . S
C934 C935 1.390 . S
C935 C934 1.390 . S
C935 C936 1.394 1_655 S
C935 C941 1.465 . S
C936 C931 1.399 . S
C936 C935 1.394 1_455 S
C936 C937 1.516 . S
C937 C936 1.516 . S
C937 C938 1.502 . S
C937 C939 1.561 . S
C937 C940 1.526 . S
C938 H922 0.959 . S
C938 H923 0.959 . S
C938 H924 0.961 . S
C938 C937 1.502 . S
C939 H925 0.960 . S
C939 H926 0.961 . S
C939 H927 0.959 . S
C939 C937 1.561 . S
C940 C937 1.526 . S
C940 C941 1.396 1_455 S
C940 C945 1.390 1_556 S
C941 C935 1.465 . S
C941 C940 1.396 1_655 S
C941 C942 1.399 . S
C942 H928 0.929 . S
C942 C941 1.399 . S
C942 C943 1.385 1_556 S
C943 H929 0.931 . S
C943 C942 1.385 1_554 S
C943 C944 1.389 1_655 S
C944 C943 1.389 1_455 S
C944 C945 1.387 . S
C945 H930 0.930 . S
C945 C940 1.390 1_554 S
C945 C944 1.387 . S
H946 C958 0.930 . S
H947 C960 0.930 . S
H948 C961 0.930 . S
H949 C965 0.959 . S
H950 C965 0.959 . S
H951 C965 0.961 . S
H952 C966 0.960 . S
H953 C966 0.961 . S
H954 C966 0.959 . S
H955 C969 0.929 . S
H956 C970 0.931 . S
H957 C972 0.930 . S
C958 H946 0.930 . S
C958 C959 1.399 . S
C958 C963 1.399 . S
C959 C958 1.399 . S
C959 C960 1.376 1_545 S
C960 H947 0.930 . S
C960 C959 1.376 1_565 S
C960 C961 1.388 . S
C961 H948 0.930 . S
C961 C960 1.388 . S
C961 C962 1.372 1_565 S
C962 C961 1.372 1_545 S
C962 C963 1.416 . S
C962 C968 1.465 . S
C963 C958 1.399 . S
C963 C962 1.416 . S
C963 C964 1.516 . S
C964 C963 1.516 . S
C964 C965 1.502 . S
C964 C966 1.561 . S
C964 C967 1.526 . S
C965 H949 0.959 . S
C965 H950 0.959 . S
C965 H951 0.961 . S
C965 C964 1.502 . S
C966 H952 0.960 . S
C966 H953 0.961 . S
C966 H954 0.959 . S
C966 C964 1.561 . S
C967 C964 1.526 . S
C967 C968 1.419 . S
C967 C972 1.390 . S
C968 C962 1.465 . S
C968 C967 1.419 . S
C968 C969 1.380 1_545 S
C969 H955 0.929 . S
C969 C968 1.380 1_565 S
C969 C970 1.385 . S
C970 H956 0.931 . S
C970 C969 1.385 . S
C970 C971 1.389 1_565 S
C971 C970 1.389 1_545 S
C971 C972 1.387 . S
C972 H957 0.930 . S
C972 C967 1.390 . S
C972 C971 1.387 . S
H973 C985 0.930 . S
H974 C987 0.930 1_554 S
H975 C988 0.930 . S
H976 C992 0.959 . S
H977 C992 0.959 . S
H978 C992 0.961 . S
H979 C993 0.960 . S
H980 C993 0.961 . S
H981 C993 0.959 . S
H982 C996 0.929 . S
H983 C997 0.931 . S
H984 C999 0.930 . S
C985 H973 0.930 . S
C985 C986 1.399 . S
C985 C990 1.399 1_554 S
C986 C985 1.399 . S
C986 C987 1.376 1_554 S
C987 H974 0.930 1_556 S
C987 C986 1.376 1_556 S
C987 C988 1.388 . S
C988 H975 0.930 . S
C988 C987 1.388 . S
C988 C989 1.390 . S
C989 C988 1.390 . S
C989 C990 1.394 . S
C989 C995 1.465 . S
C990 C985 1.399 1_556 S
C990 C989 1.394 . S
C990 C991 1.516 . S
C991 C990 1.516 . S
C991 C992 1.502 . S
C991 C993 1.561 . S
C991 C994 1.526 . S
C992 H976 0.959 . S
C992 H977 0.959 . S
C992 H978 0.961 . S
C992 C991 1.502 . S
C993 H979 0.960 . S
C993 H980 0.961 . S
C993 H981 0.959 . S
C993 C991 1.561 . S
C994 C991 1.526 . S
C994 C995 1.396 . S
C994 C999 1.390 . S
C995 C989 1.465 . S
C995 C994 1.396 . S
C995 C996 1.399 . S
C996 H982 0.929 . S
C996 C995 1.399 . S
C996 C997 1.385 . S
C997 H983 0.931 . S
C997 C996 1.385 . S
C997 C998 1.389 . S
C998 C997 1.389 . S
C998 C999 1.387 . S
C999 H984 0.930 . S
C999 C994 1.390 . S
C999 C998 1.387 . S
H1000 C1012 0.930 . S
H1001 C1014 0.930 . S
H1002 C1015 0.930 . S
H1003 C1019 0.959 . S
H1004 C1019 0.959 . S
H1005 C1019 0.961 . S
H1006 C1020 0.960 . S
H1007 C1020 0.961 . S
H1008 C1020 0.959 . S
H1009 C1023 0.929 . S
H1010 C1024 0.931 . S
H1011 C1026 0.935 . S
C1012 H1000 0.930 . S
C1012 C1013 1.399 . S
C1012 C1017 1.399 . S
C1013 C1012 1.399 . S
C1013 C1014 1.376 . S
C1014 H1001 0.930 . S
C1014 C1013 1.376 . S
C1014 C1015 1.388 . S
C1015 H1002 0.930 . S
C1015 C1014 1.388 . S
C1015 C1016 1.390 . S
C1016 C1015 1.390 . S
C1016 C1017 1.394 . S
C1016 C1022 1.465 . S
C1017 C1012 1.399 . S
C1017 C1016 1.394 . S
C1017 C1018 1.516 . S
C1018 C1017 1.516 . S
C1018 C1019 1.502 . S
C1018 C1020 1.561 . S
C1018 C1021 1.526 . S
C1019 H1003 0.959 . S
C1019 H1004 0.959 . S
C1019 H1005 0.961 . S
C1019 C1018 1.502 . S
C1020 H1006 0.960 . S
C1020 H1007 0.961 . S
C1020 H1008 0.959 . S
C1020 C1018 1.561 . S
C1021 C1018 1.526 . S
C1021 C1022 1.396 . S
C1021 C1026 1.379 1_556 S
C1022 C1016 1.465 . S
C1022 C1021 1.396 . S
C1022 C1023 1.399 . S
C1023 H1009 0.929 . S
C1023 C1022 1.399 . S
C1023 C1024 1.385 1_556 S
C1024 H1010 0.931 . S
C1024 C1023 1.385 1_554 S
C1024 C1025 1.389 . S
C1025 C1024 1.389 . S
C1025 C1026 1.392 . S
C1026 H1011 0.935 . S
C1026 C1021 1.379 1_554 S
C1026 C1025 1.392 . S
H1027 C1039 0.930 . S
H1028 C1041 0.930 . S
H1029 C1042 0.930 . S
H1030 C1046 0.959 . S
H1031 C1046 0.959 . S
H1032 C1046 0.961 . S
H1033 C1047 0.960 . S
H1034 C1047 0.961 . S
H1035 C1047 0.959 . S
H1036 C1050 0.929 . S
H1037 C1051 0.931 . S
H1038 C1053 0.930 . S
C1039 H1027 0.930 . S
C1039 C1040 1.399 . S
C1039 C1044 1.399 . S
C1040 C1039 1.399 . S
C1040 C1041 1.376 . S
C1041 H1028 0.930 . S
C1041 C1040 1.376 . S
C1041 C1042 1.388 . S
C1042 H1029 0.930 . S
C1042 C1041 1.388 . S
C1042 C1043 1.390 . S
C1043 C1042 1.390 . S
C1043 C1044 1.394 . S
C1043 C1049 1.465 . S
C1044 C1039 1.399 . S
C1044 C1043 1.394 . S
C1044 C1045 1.516 . S
C1045 C1044 1.516 . S
C1045 C1046 1.502 1_455 S
C1045 C1047 1.561 . S
C1045 C1048 1.526 . S
C1046 H1030 0.959 . S
C1046 H1031 0.959 . S
C1046 H1032 0.961 . S
C1046 C1045 1.502 1_655 S
C1047 H1033 0.960 . S
C1047 H1034 0.961 . S
C1047 H1035 0.959 . S
C1047 C1045 1.561 . S
C1048 C1045 1.526 . S
C1048 C1049 1.396 . S
C1048 C1053 1.390 . S
C1049 C1043 1.465 . S
C1049 C1048 1.396 . S
C1049 C1050 1.399 . S
C1050 H1036 0.929 . S
C1050 C1049 1.399 . S
C1050 C1051 1.385 . S
C1051 H1037 0.931 . S
C1051 C1050 1.385 . S
C1051 C1052 1.389 . S
C1052 C1051 1.389 . S
C1052 C1053 1.387 . S
C1053 H1038 0.930 . S
C1053 C1048 1.390 . S
C1053 C1052 1.387 . S
H1054 C1066 0.930 . S
H1055 C1068 0.930 . S
H1056 C1069 0.930 . S
H1057 C1073 0.959 . S
H1058 C1073 0.959 . S
H1059 C1073 0.961 . S
H1060 C1074 0.960 . S
H1061 C1074 0.961 . S
H1062 C1074 0.959 . S
H1063 C1077 0.929 . S
H1064 C1078 0.931 . S
H1065 C1080 0.930 . S
C1066 H1054 0.930 . S
C1066 C1067 1.399 1_556 S
C1066 C1071 1.399 . S
C1067 C1066 1.399 1_554 S
C1067 C1068 1.376 1_545 S
C1068 H1055 0.930 . S
C1068 C1067 1.376 1_565 S
C1068 C1069 1.388 1_554 S
C1069 H1056 0.930 . S
C1069 C1068 1.388 1_556 S
C1069 C1070 1.378 1_565 S
C1070 C1069 1.378 1_545 S
C1070 C1071 1.408 . S
C1070 C1076 1.465 1_545 S
C1071 C1066 1.399 . S
C1071 C1070 1.408 . S
C1071 C1072 1.516 . S
C1072 C1071 1.516 . S
C1072 C1073 1.502 . S
C1072 C1074 1.561 . S
C1072 C1075 1.526 . S
C1073 H1057 0.959 . S
C1073 H1058 0.959 . S
C1073 H1059 0.961 . S
C1073 C1072 1.502 . S
C1074 H1060 0.960 . S
C1074 H1061 0.961 . S
C1074 H1062 0.959 . S
C1074 C1072 1.561 . S
C1075 C1072 1.526 . S
C1075 C1076 1.389 1_545 S
C1075 C1080 1.390 . S
C1076 C1070 1.465 1_565 S
C1076 C1075 1.389 1_565 S
C1076 C1077 1.405 . S
C1077 H1063 0.929 . S
C1077 C1076 1.405 . S
C1077 C1078 1.385 . S
C1078 H1064 0.931 . S
C1078 C1077 1.385 . S
C1078 C1079 1.389 1_565 S
C1079 C1078 1.389 1_545 S
C1079 C1080 1.387 . S
C1080 H1065 0.930 . S
C1080 C1075 1.390 . S
C1080 C1079 1.387 . S
H1081 C1093 0.930 . S
H1082 C1095 0.930 . S
H1083 C1096 0.930 . S
H1084 C1100 0.959 . S
H1085 C1100 0.959 . S
H1086 C1100 0.961 . S
H1087 C1101 0.960 . S
H1088 C1101 0.961 . S
H1089 C1101 0.959 . S
H1090 C1104 0.929 . S
H1091 C1105 0.931 . S
H1092 C1107 0.930 . S
C1093 H1081 0.930 . S
C1093 C1094 1.399 . S
C1093 C1098 1.399 . S
C1094 C1093 1.399 . S
C1094 C1095 1.376 . S
C1095 H1082 0.930 . S
C1095 C1094 1.376 . S
C1095 C1096 1.388 . S
C1096 H1083 0.930 . S
C1096 C1095 1.388 . S
C1096 C1097 1.390 . S
C1097 C1096 1.390 . S
C1097 C1098 1.394 . S
C1097 C1103 1.465 . S
C1098 C1093 1.399 . S
C1098 C1097 1.394 . S
C1098 C1099 1.516 . S
C1099 C1098 1.516 . S
C1099 C1100 1.502 . S
C1099 C1101 1.561 . S
C1099 C1102 1.526 . S
C1100 H1084 0.959 . S
C1100 H1085 0.959 . S
C1100 H1086 0.961 . S
C1100 C1099 1.502 . S
C1101 H1087 0.960 . S
C1101 H1088 0.961 . S
C1101 H1089 0.959 . S
C1101 C1099 1.561 . S
C1102 C1099 1.526 . S
C1102 C1103 1.396 . S
C1102 C1107 1.390 . S
C1103 C1097 1.465 . S
C1103 C1102 1.396 . S
C1103 C1104 1.399 . S
C1104 H1090 0.929 . S
C1104 C1103 1.399 . S
C1104 C1105 1.385 . S
C1105 H1091 0.931 . S
C1105 C1104 1.385 . S
C1105 C1106 1.389 . S
C1106 C1105 1.389 . S
C1106 C1107 1.387 . S
C1107 H1092 0.930 . S
C1107 C1102 1.390 . S
C1107 C1106 1.387 . S
H1108 C1120 0.930 . S
H1109 C1122 0.930 . S
H1110 C1123 0.930 . S
H1111 C1127 0.959 . S
H1112 C1127 0.959 . S
H1113 C1127 0.961 . S
H1114 C1128 0.960 . S
H1115 C1128 0.961 . S
H1116 C1128 0.959 . S
H1117 C1131 0.929 . S
H1118 C1132 0.931 . S
H1119 C1134 0.930 . S
C1120 H1108 0.930 . S
C1120 C1121 1.399 . S
C1120 C1125 1.399 . S
C1121 C1120 1.399 . S
C1121 C1122 1.376 . S
C1122 H1109 0.930 . S
C1122 C1121 1.376 . S
C1122 C1123 1.388 . S
C1123 H1110 0.930 . S
C1123 C1122 1.388 . S
C1123 C1124 1.390 . S
C1124 C1123 1.390 . S
C1124 C1125 1.394 . S
C1124 C1130 1.465 . S
C1125 C1120 1.399 . S
C1125 C1124 1.394 . S
C1125 C1126 1.516 . S
C1126 C1125 1.516 . S
C1126 C1127 1.502 . S
C1126 C1128 1.561 . S
C1126 C1129 1.526 . S
C1127 H1111 0.959 . S
C1127 H1112 0.959 . S
C1127 H1113 0.961 . S
C1127 C1126 1.502 . S
C1128 H1114 0.960 . S
C1128 H1115 0.961 . S
C1128 H1116 0.959 . S
C1128 C1126 1.561 . S
C1129 C1126 1.526 . S
C1129 C1130 1.396 . S
C1129 C1134 1.390 . S
C1130 C1124 1.465 . S
C1130 C1129 1.396 . S
C1130 C1131 1.399 . S
C1131 H1117 0.929 . S
C1131 C1130 1.399 . S
C1131 C1132 1.385 . S
C1132 H1118 0.931 . S
C1132 C1131 1.385 . S
C1132 C1133 1.389 . S
C1133 C1132 1.389 . S
C1133 C1134 1.387 . S
C1134 H1119 0.930 . S
C1134 C1129 1.390 . S
C1134 C1133 1.387 . S
H1135 C1147 0.930 . S
H1136 C1149 0.930 1_455 S
H1137 C1150 0.930 1_455 S
H1138 C1154 0.959 1_455 S
H1139 C1154 0.959 . S
H1140 C1154 0.961 . S
H1141 C1155 0.960 . S
H1142 C1155 0.961 . S
H1143 C1155 0.959 . S
H1144 C1158 0.929 1_455 S
H1145 C1159 0.931 1_456 S
H1146 C1161 0.930 . S
C1147 H1135 0.930 . S
C1147 C1148 1.399 . S
C1147 C1152 1.399 . S
C1148 C1147 1.399 . S
C1148 C1149 1.376 . S
C1149 H1136 0.930 1_655 S
C1149 C1148 1.376 . S
C1149 C1150 1.388 . S
C1150 H1137 0.930 1_655 S
C1150 C1149 1.388 . S
C1150 C1151 1.390 . S
C1151 C1150 1.390 . S
C1151 C1152 1.394 . S
C1151 C1157 1.465 . S
C1152 C1147 1.399 . S
C1152 C1151 1.394 . S
C1152 C1153 1.516 . S
C1153 C1152 1.516 . S
C1153 C1154 1.502 . S
C1153 C1155 1.561 . S
C1153 C1156 1.526 . S
C1154 H1138 0.959 1_655 S
C1154 H1139 0.959 . S
C1154 H1140 0.961 . S
C1154 C1153 1.502 . S
C1155 H1141 0.960 . S
C1155 H1142 0.961 . S
C1155 H1143 0.959 . S
C1155 C1153 1.561 . S
C1156 C1153 1.526 . S
C1156 C1157 1.396 . S
C1156 C1161 1.390 1_554 S
C1157 C1151 1.465 . S
C1157 C1156 1.396 . S
C1157 C1158 1.399 . S
C1158 H1144 0.929 1_655 S
C1158 C1157 1.399 . S
C1158 C1159 1.385 . S
C1159 H1145 0.931 1_654 S
C1159 C1158 1.385 . S
C1159 C1160 1.389 1_554 S
C1160 C1159 1.389 1_556 S
C1160 C1161 1.387 . S
C1161 H1146 0.930 . S
C1161 C1156 1.390 1_556 S
C1161 C1160 1.387 . S
H1162 C1174 0.930 . S
H1163 C1176 0.930 . S
H1164 C1177 0.930 . S
H1165 C1181 0.959 . S
H1166 C1181 0.959 . S
H1167 C1181 0.961 . S
H1168 C1182 0.960 . S
H1169 C1182 0.961 . S
H1170 C1182 0.959 . S
H1171 C1185 0.929 . S
H1172 C1186 0.931 . S
H1173 C1188 0.930 . S
C1174 H1162 0.930 . S
C1174 C1175 1.399 . S
C1174 C1179 1.399 . S
C1175 C1174 1.399 . S
C1175 C1176 1.376 1_565 S
C1176 H1163 0.930 . S
C1176 C1175 1.376 1_545 S
C1176 C1177 1.388 . S
C1177 H1164 0.930 . S
C1177 C1176 1.388 . S
C1177 C1178 1.384 1_545 S
C1178 C1177 1.384 1_565 S
C1178 C1179 1.402 . S
C1178 C1184 1.465 1_565 S
C1179 C1174 1.399 . S
C1179 C1178 1.402 . S
C1179 C1180 1.516 . S
C1180 C1179 1.516 . S
C1180 C1181 1.502 . S
C1180 C1182 1.561 . S
C1180 C1183 1.526 . S
C1181 H1165 0.959 . S
C1181 H1166 0.959 . S
C1181 H1167 0.961 . S
C1181 C1180 1.502 . S
C1182 H1168 0.960 . S
C1182 H1169 0.961 . S
C1182 H1170 0.959 . S
C1182 C1180 1.561 . S
C1183 C1180 1.526 . S
C1183 C1184 1.382 1_565 S
C1183 C1188 1.390 . S
C1184 C1178 1.465 1_545 S
C1184 C1183 1.382 1_545 S
C1184 C1185 1.410 . S
C1185 H1171 0.929 . S
C1185 C1184 1.410 . S
C1185 C1186 1.385 . S
C1186 H1172 0.931 . S
C1186 C1185 1.385 . S
C1186 C1187 1.389 1_545 S
C1187 C1186 1.389 1_565 S
C1187 C1188 1.387 . S
C1188 H1173 0.930 . S
C1188 C1183 1.390 . S
C1188 C1187 1.387 . S
H1189 C1201 0.930 1_556 S
H1190 C1203 0.930 . S
H1191 C1204 0.930 . S
H1192 C1208 0.959 . S
H1193 C1208 0.959 . S
H1194 C1208 0.961 . S
H1195 C1209 0.960 . S
H1196 C1209 0.961 . S
H1197 C1209 0.959 . S
H1198 C1212 0.929 . S
H1199 C1213 0.931 . S
H1200 C1215 0.930 . S
C1201 H1189 0.930 1_554 S
C1201 C1202 1.399 1_554 S
C1201 C1206 1.399 . S
C1202 C1201 1.399 1_556 S
C1202 C1203 1.376 . S
C1203 H1190 0.930 . S
C1203 C1202 1.376 . S
C1203 C1204 1.388 1_556 S
C1204 H1191 0.930 . S
C1204 C1203 1.388 1_554 S
C1204 C1205 1.390 . S
C1205 C1204 1.390 . S
C1205 C1206 1.394 . S
C1205 C1211 1.465 . S
C1206 C1201 1.399 . S
C1206 C1205 1.394 . S
C1206 C1207 1.516 . S
C1207 C1206 1.516 . S
C1207 C1208 1.502 . S
C1207 C1209 1.561 . S
C1207 C1210 1.526 . S
C1208 H1192 0.959 . S
C1208 H1193 0.959 . S
C1208 H1194 0.961 . S
C1208 C1207 1.502 . S
C1209 H1195 0.960 . S
C1209 H1196 0.961 . S
C1209 H1197 0.959 . S
C1209 C1207 1.561 . S
C1210 C1207 1.526 . S
C1210 C1211 1.396 . S
C1210 C1215 1.390 . S
C1211 C1205 1.465 . S
C1211 C1210 1.396 . S
C1211 C1212 1.399 . S
C1212 H1198 0.929 . S
C1212 C1211 1.399 . S
C1212 C1213 1.385 . S
C1213 H1199 0.931 . S
C1213 C1212 1.385 . S
C1213 C1214 1.389 . S
C1214 C1213 1.389 . S
C1214 C1215 1.387 . S
C1215 H1200 0.930 . S
C1215 C1210 1.390 . S
C1215 C1214 1.387 . S
H1216 C1228 0.930 . S
H1217 C1230 0.930 . S
H1218 C1231 0.930 . S
H1219 C1235 0.959 . S
H1220 C1235 0.959 . S
H1221 C1235 0.961 . S
H1222 C1236 0.960 . S
H1223 C1236 0.961 . S
H1224 C1236 0.959 . S
H1225 C1239 0.929 . S
H1226 C1240 0.931 . S
H1227 C1242 0.930 . S
C1228 H1216 0.930 . S
C1228 C1229 1.399 . S
C1228 C1233 1.399 . S
C1229 C1228 1.399 . S
C1229 C1230 1.376 . S
C1230 H1217 0.930 . S
C1230 C1229 1.376 . S
C1230 C1231 1.388 . S
C1231 H1218 0.930 . S
C1231 C1230 1.388 . S
C1231 C1232 1.390 . S
C1232 C1231 1.390 . S
C1232 C1233 1.394 . S
C1232 C1238 1.465 . S
C1233 C1228 1.399 . S
C1233 C1232 1.394 . S
C1233 C1234 1.516 . S
C1234 C1233 1.516 . S
C1234 C1235 1.502 . S
C1234 C1236 1.561 . S
C1234 C1237 1.526 . S
C1235 H1219 0.959 . S
C1235 H1220 0.959 . S
C1235 H1221 0.961 . S
C1235 C1234 1.502 . S
C1236 H1222 0.960 . S
C1236 H1223 0.961 . S
C1236 H1224 0.959 . S
C1236 C1234 1.561 . S
C1237 C1234 1.526 . S
C1237 C1238 1.396 . S
C1237 C1242 1.390 . S
C1238 C1232 1.465 . S
C1238 C1237 1.396 . S
C1238 C1239 1.399 . S
C1239 H1225 0.929 . S
C1239 C1238 1.399 . S
C1239 C1240 1.385 . S
C1240 H1226 0.931 . S
C1240 C1239 1.385 . S
C1240 C1241 1.389 . S
C1241 C1240 1.389 . S
C1241 C1242 1.387 . S
C1242 H1227 0.930 . S
C1242 C1237 1.390 . S
C1242 C1241 1.387 . S
H1243 C1255 0.930 . S
H1244 C1257 0.930 . S
H1245 C1258 0.930 . S
H1246 C1262 0.959 . S
H1247 C1262 0.959 . S
H1248 C1262 0.961 . S
H1249 C1263 0.960 . S
H1250 C1263 0.961 . S
H1251 C1263 0.959 . S
H1252 C1266 0.929 . S
H1253 C1267 0.931 . S
H1254 C1269 0.930 . S
C1255 H1243 0.930 . S
C1255 C1256 1.399 . S
C1255 C1260 1.399 . S
C1256 C1255 1.399 . S
C1256 C1257 1.376 . S
C1257 H1244 0.930 . S
C1257 C1256 1.376 . S
C1257 C1258 1.388 . S
C1258 H1245 0.930 . S
C1258 C1257 1.388 . S
C1258 C1259 1.390 . S
C1259 C1258 1.390 . S
C1259 C1260 1.394 . S
C1259 C1265 1.465 . S
C1260 C1255 1.399 . S
C1260 C1259 1.394 . S
C1260 C1261 1.516 . S
C1261 C1260 1.516 . S
C1261 C1262 1.502 . S
C1261 C1263 1.561 . S
C1261 C1264 1.526 . S
C1262 H1246 0.959 . S
C1262 H1247 0.959 . S
C1262 H1248 0.961 . S
C1262 C1261 1.502 . S
C1263 H1249 0.960 . S
C1263 H1250 0.961 . S
C1263 H1251 0.959 . S
C1263 C1261 1.561 . S
C1264 C1261 1.526 . S
C1264 C1265 1.396 . S
C1264 C1269 1.390 . S
C1265 C1259 1.465 . S
C1265 C1264 1.396 . S
C1265 C1266 1.399 . S
C1266 H1252 0.929 . S
C1266 C1265 1.399 . S
C1266 C1267 1.385 . S
C1267 H1253 0.931 . S
C1267 C1266 1.385 . S
C1267 C1268 1.389 . S
C1268 C1267 1.389 . S
C1268 C1269 1.387 . S
C1269 H1254 0.930 . S
C1269 C1264 1.390 . S
C1269 C1268 1.387 . S
H1270 C1282 0.930 . S
H1271 C1284 0.930 . S
H1272 C1285 0.930 . S
H1273 C1289 0.959 . S
H1274 C1289 0.959 . S
H1275 C1289 0.961 . S
H1276 C1290 0.960 . S
H1277 C1290 0.961 . S
H1278 C1290 0.959 . S
H1279 C1293 0.929 . S
H1280 C1294 0.931 . S
H1281 C1296 0.930 . S
C1282 H1270 0.930 . S
C1282 C1283 1.399 . S
C1282 C1287 1.399 . S
C1283 C1282 1.399 . S
C1283 C1284 1.376 . S
C1284 H1271 0.930 . S
C1284 C1283 1.376 . S
C1284 C1285 1.388 . S
C1285 H1272 0.930 . S
C1285 C1284 1.388 . S
C1285 C1286 1.390 . S
C1286 C1285 1.390 . S
C1286 C1287 1.394 . S
C1286 C1292 1.465 . S
C1287 C1282 1.399 . S
C1287 C1286 1.394 . S
C1287 C1288 1.516 . S
C1288 C1287 1.516 . S
C1288 C1289 1.502 . S
C1288 C1290 1.561 . S
C1288 C1291 1.526 . S
C1289 H1273 0.959 . S
C1289 H1274 0.959 . S
C1289 H1275 0.961 . S
C1289 C1288 1.502 . S
C1290 H1276 0.960 . S
C1290 H1277 0.961 . S
C1290 H1278 0.959 . S
C1290 C1288 1.561 . S
C1291 C1288 1.526 . S
C1291 C1292 1.396 . S
C1291 C1296 1.390 . S
C1292 C1286 1.465 . S
C1292 C1291 1.396 . S
C1292 C1293 1.399 . S
C1293 H1279 0.929 . S
C1293 C1292 1.399 . S
C1293 C1294 1.385 . S
C1294 H1280 0.931 . S
C1294 C1293 1.385 . S
C1294 C1295 1.389 . S
C1295 C1294 1.389 . S
C1295 C1296 1.387 . S
C1296 H1281 0.930 . S
C1296 C1291 1.390 . S
C1296 C1295 1.387 . S
H1297 C1309 0.930 . S
H1298 C1311 0.930 . S
H1299 C1312 0.930 . S
H1300 C1316 0.959 . S
H1301 C1316 0.959 . S
H1302 C1316 0.961 . S
H1303 C1317 0.960 . S
H1304 C1317 0.961 . S
H1305 C1317 0.959 . S
H1306 C1320 0.929 . S
H1307 C1321 0.931 . S
H1308 C1323 0.930 . S
C1309 H1297 0.930 . S
C1309 C1310 1.399 . S
C1309 C1314 1.399 . S
C1310 C1309 1.399 . S
C1310 C1311 1.376 . S
C1311 H1298 0.930 . S
C1311 C1310 1.376 . S
C1311 C1312 1.388 . S
C1312 H1299 0.930 . S
C1312 C1311 1.388 . S
C1312 C1313 1.390 . S
C1313 C1312 1.390 . S
C1313 C1314 1.394 . S
C1313 C1319 1.465 . S
C1314 C1309 1.399 . S
C1314 C1313 1.394 . S
C1314 C1315 1.516 . S
C1315 C1314 1.516 . S
C1315 C1316 1.502 . S
C1315 C1317 1.561 . S
C1315 C1318 1.526 . S
C1316 H1300 0.959 . S
C1316 H1301 0.959 . S
C1316 H1302 0.961 . S
C1316 C1315 1.502 . S
C1317 H1303 0.960 . S
C1317 H1304 0.961 . S
C1317 H1305 0.959 . S
C1317 C1315 1.561 . S
C1318 C1315 1.526 . S
C1318 C1319 1.396 . S
C1318 C1323 1.390 . S
C1319 C1313 1.465 . S
C1319 C1318 1.396 . S
C1319 C1320 1.399 . S
C1320 H1306 0.929 . S
C1320 C1319 1.399 . S
C1320 C1321 1.385 . S
C1321 H1307 0.931 . S
C1321 C1320 1.385 . S
C1321 C1322 1.389 . S
C1322 C1321 1.389 . S
C1322 C1323 1.387 . S
C1323 H1308 0.930 . S
C1323 C1318 1.390 . S
C1323 C1322 1.387 . S
H1324 C1336 0.930 . S
H1325 C1338 0.930 . S
H1326 C1339 0.930 . S
H1327 C1343 0.959 . S
H1328 C1343 0.959 . S
H1329 C1343 0.961 . S
H1330 C1344 0.960 . S
H1331 C1344 0.961 . S
H1332 C1344 0.959 . S
H1333 C1347 0.929 . S
H1334 C1348 0.931 . S
H1335 C1350 0.930 . S
C1336 H1324 0.930 . S
C1336 C1337 1.399 . S
C1336 C1341 1.399 . S
C1337 C1336 1.399 . S
C1337 C1338 1.376 . S
C1338 H1325 0.930 . S
C1338 C1337 1.376 . S
C1338 C1339 1.388 . S
C1339 H1326 0.930 . S
C1339 C1338 1.388 . S
C1339 C1340 1.390 . S
C1340 C1339 1.390 . S
C1340 C1341 1.394 . S
C1340 C1346 1.465 . S
C1341 C1336 1.399 . S
C1341 C1340 1.394 . S
C1341 C1342 1.516 . S
C1342 C1341 1.516 . S
C1342 C1343 1.502 . S
C1342 C1344 1.561 . S
C1342 C1345 1.526 . S
C1343 H1327 0.959 . S
C1343 H1328 0.959 . S
C1343 H1329 0.961 . S
C1343 C1342 1.502 . S
C1344 H1330 0.960 . S
C1344 H1331 0.961 . S
C1344 H1332 0.959 . S
C1344 C1342 1.561 . S
C1345 C1342 1.526 . S
C1345 C1346 1.396 . S
C1345 C1350 1.390 . S
C1346 C1340 1.465 . S
C1346 C1345 1.396 . S
C1346 C1347 1.399 . S
C1347 H1333 0.929 . S
C1347 C1346 1.399 . S
C1347 C1348 1.385 . S
C1348 H1334 0.931 . S
C1348 C1347 1.385 . S
C1348 C1349 1.389 . S
C1349 C1348 1.389 . S
C1349 C1350 1.387 . S
C1350 H1335 0.930 . S
C1350 C1345 1.390 . S
C1350 C1349 1.387 . S
H1351 C1363 0.930 . S
H1352 C1365 0.930 . S
H1353 C1366 0.930 . S
H1354 C1370 0.959 . S
H1355 C1370 0.959 . S
H1356 C1370 0.961 . S
H1357 C1371 0.960 . S
H1358 C1371 0.961 . S
H1359 C1371 0.959 . S
H1360 C1374 0.929 . S
H1361 C1375 0.931 . S
H1362 C1377 0.930 . S
C1363 H1351 0.930 . S
C1363 C1364 1.399 . S
C1363 C1368 1.399 . S
C1364 C1363 1.399 . S
C1364 C1365 1.376 . S
C1365 H1352 0.930 . S
C1365 C1364 1.376 . S
C1365 C1366 1.388 . S
C1366 H1353 0.930 . S
C1366 C1365 1.388 . S
C1366 C1367 1.390 . S
C1367 C1366 1.390 . S
C1367 C1368 1.394 . S
C1367 C1373 1.465 . S
C1368 C1363 1.399 . S
C1368 C1367 1.394 . S
C1368 C1369 1.516 . S
C1369 C1368 1.516 . S
C1369 C1370 1.502 . S
C1369 C1371 1.561 . S
C1369 C1372 1.526 . S
C1370 H1354 0.959 . S
C1370 H1355 0.959 . S
C1370 H1356 0.961 . S
C1370 C1369 1.502 . S
C1371 H1357 0.960 . S
C1371 H1358 0.961 . S
C1371 H1359 0.959 . S
C1371 C1369 1.561 . S
C1372 C1369 1.526 . S
C1372 C1373 1.396 . S
C1372 C1377 1.390 . S
C1373 C1367 1.465 . S
C1373 C1372 1.396 . S
C1373 C1374 1.399 . S
C1374 H1360 0.929 . S
C1374 C1373 1.399 . S
C1374 C1375 1.385 . S
C1375 H1361 0.931 . S
C1375 C1374 1.385 . S
C1375 C1376 1.389 . S
C1376 C1375 1.389 . S
C1376 C1377 1.387 . S
C1377 H1362 0.930 . S
C1377 C1372 1.390 . S
C1377 C1376 1.387 . S
H1378 C1390 0.930 . S
H1379 C1392 0.930 . S
H1380 C1393 0.930 . S
H1381 C1397 0.959 . S
H1382 C1397 0.959 . S
H1383 C1397 0.961 . S
H1384 C1398 0.960 . S
H1385 C1398 0.961 . S
H1386 C1398 0.959 . S
H1387 C1401 0.929 . S
H1388 C1402 0.931 . S
H1389 C1404 0.930 . S
C1390 H1378 0.930 . S
C1390 C1391 1.399 . S
C1390 C1395 1.399 . S
C1391 C1390 1.399 . S
C1391 C1392 1.376 . S
C1392 H1379 0.930 . S
C1392 C1391 1.376 . S
C1392 C1393 1.388 . S
C1393 H1380 0.930 . S
C1393 C1392 1.388 . S
C1393 C1394 1.390 . S
C1394 C1393 1.390 . S
C1394 C1395 1.394 . S
C1394 C1400 1.465 . S
C1395 C1390 1.399 . S
C1395 C1394 1.394 . S
C1395 C1396 1.516 . S
C1396 C1395 1.516 . S
C1396 C1397 1.502 . S
C1396 C1398 1.561 . S
C1396 C1399 1.526 . S
C1397 H1381 0.959 . S
C1397 H1382 0.959 . S
C1397 H1383 0.961 . S
C1397 C1396 1.502 . S
C1398 H1384 0.960 . S
C1398 H1385 0.961 . S
C1398 H1386 0.959 . S
C1398 C1396 1.561 . S
C1399 C1396 1.526 . S
C1399 C1400 1.396 . S
C1399 C1404 1.390 . S
C1400 C1394 1.465 . S
C1400 C1399 1.396 . S
C1400 C1401 1.399 . S
C1401 H1387 0.929 . S
C1401 C1400 1.399 . S
C1401 C1402 1.385 . S
C1402 H1388 0.931 . S
C1402 C1401 1.385 . S
C1402 C1403 1.389 . S
C1403 C1402 1.389 . S
C1403 C1404 1.387 . S
C1404 H1389 0.930 . S
C1404 C1399 1.390 . S
C1404 C1403 1.387 . S
H1405 C1417 0.930 . S
H1406 C1419 0.930 . S
H1407 C1420 0.930 . S
H1408 C1424 0.959 . S
H1409 C1424 0.959 . S
H1410 C1424 0.961 . S
H1411 C1425 0.960 . S
H1412 C1425 0.961 . S
H1413 C1425 0.959 . S
H1414 C1428 0.929 . S
H1415 C1429 0.931 . S
H1416 C1431 0.930 . S
C1417 H1405 0.930 . S
C1417 C1418 1.399 . S
C1417 C1422 1.399 . S
C1418 C1417 1.399 . S
C1418 C1419 1.376 . S
C1419 H1406 0.930 . S
C1419 C1418 1.376 . S
C1419 C1420 1.388 . S
C1420 H1407 0.930 . S
C1420 C1419 1.388 . S
C1420 C1421 1.390 . S
C1421 C1420 1.390 . S
C1421 C1422 1.394 . S
C1421 C1427 1.465 . S
C1422 C1417 1.399 . S
C1422 C1421 1.394 . S
C1422 C1423 1.516 . S
C1423 C1422 1.516 . S
C1423 C1424 1.502 . S
C1423 C1425 1.561 . S
C1423 C1426 1.526 . S
C1424 H1408 0.959 . S
C1424 H1409 0.959 . S
C1424 H1410 0.961 . S
C1424 C1423 1.502 . S
C1425 H1411 0.960 . S
C1425 H1412 0.961 . S
C1425 H1413 0.959 . S
C1425 C1423 1.561 . S
C1426 C1423 1.526 . S
C1426 C1427 1.396 . S
C1426 C1431 1.390 . S
C1427 C1421 1.465 . S
C1427 C1426 1.396 . S
C1427 C1428 1.399 . S
C1428 H1414 0.929 . S
C1428 C1427 1.399 . S
C1428 C1429 1.385 . S
C1429 H1415 0.931 . S
C1429 C1428 1.385 . S
C1429 C1430 1.389 . S
C1430 C1429 1.389 . S
C1430 C1431 1.387 . S
C1431 H1416 0.930 . S
C1431 C1426 1.390 . S
C1431 C1430 1.387 . S
H1432 C1444 0.930 . S
H1433 C1446 0.930 . S
H1434 C1447 0.930 . S
H1435 C1451 0.959 . S
H1436 C1451 0.959 . S
H1437 C1451 0.961 . S
H1438 C1452 0.960 . S
H1439 C1452 0.961 . S
H1440 C1452 0.959 . S
H1441 C1455 0.929 . S
H1442 C1456 0.931 . S
H1443 C1458 0.930 . S
C1444 H1432 0.930 . S
C1444 C1445 1.399 . S
C1444 C1449 1.399 . S
C1445 C1444 1.399 . S
C1445 C1446 1.376 . S
C1446 H1433 0.930 . S
C1446 C1445 1.376 . S
C1446 C1447 1.388 . S
C1447 H1434 0.930 . S
C1447 C1446 1.388 . S
C1447 C1448 1.390 . S
C1448 C1447 1.390 . S
C1448 C1449 1.394 . S
C1448 C1454 1.465 . S
C1449 C1444 1.399 . S
C1449 C1448 1.394 . S
C1449 C1450 1.516 . S
C1450 C1449 1.516 . S
C1450 C1451 1.502 . S
C1450 C1452 1.561 . S
C1450 C1453 1.526 . S
C1451 H1435 0.959 . S
C1451 H1436 0.959 . S
C1451 H1437 0.961 . S
C1451 C1450 1.502 . S
C1452 H1438 0.960 . S
C1452 H1439 0.961 . S
C1452 H1440 0.959 . S
C1452 C1450 1.561 . S
C1453 C1450 1.526 . S
C1453 C1454 1.396 . S
C1453 C1458 1.390 . S
C1454 C1448 1.465 . S
C1454 C1453 1.396 . S
C1454 C1455 1.399 . S
C1455 H1441 0.929 . S
C1455 C1454 1.399 . S
C1455 C1456 1.385 . S
C1456 H1442 0.931 . S
C1456 C1455 1.385 . S
C1456 C1457 1.389 . S
C1457 C1456 1.389 . S
C1457 C1458 1.387 . S
C1458 H1443 0.930 . S
C1458 C1453 1.390 . S
C1458 C1457 1.387 . S
H1459 C1471 0.930 . S
H1460 C1473 0.930 . S
H1461 C1474 0.930 . S
H1462 C1478 0.959 . S
H1463 C1478 0.959 . S
H1464 C1478 0.961 . S
H1465 C1479 0.960 . S
H1466 C1479 0.961 . S
H1467 C1479 0.959 . S
H1468 C1482 0.929 . S
H1469 C1483 0.931 . S
H1470 C1485 0.930 . S
C1471 H1459 0.930 . S
C1471 C1472 1.399 . S
C1471 C1476 1.399 . S
C1472 C1471 1.399 . S
C1472 C1473 1.376 . S
C1473 H1460 0.930 . S
C1473 C1472 1.376 . S
C1473 C1474 1.388 . S
C1474 H1461 0.930 . S
C1474 C1473 1.388 . S
C1474 C1475 1.390 . S
C1475 C1474 1.390 . S
C1475 C1476 1.394 . S
C1475 C1481 1.465 . S
C1476 C1471 1.399 . S
C1476 C1475 1.394 . S
C1476 C1477 1.516 . S
C1477 C1476 1.516 . S
C1477 C1478 1.502 . S
C1477 C1479 1.561 . S
C1477 C1480 1.526 . S
C1478 H1462 0.959 . S
C1478 H1463 0.959 . S
C1478 H1464 0.961 . S
C1478 C1477 1.502 . S
C1479 H1465 0.960 . S
C1479 H1466 0.961 . S
C1479 H1467 0.959 . S
C1479 C1477 1.561 . S
C1480 C1477 1.526 . S
C1480 C1481 1.396 . S
C1480 C1485 1.390 . S
C1481 C1475 1.465 . S
C1481 C1480 1.396 . S
C1481 C1482 1.399 . S
C1482 H1468 0.929 . S
C1482 C1481 1.399 . S
C1482 C1483 1.385 . S
C1483 H1469 0.931 . S
C1483 C1482 1.385 . S
C1483 C1484 1.389 . S
C1484 C1483 1.389 . S
C1484 C1485 1.387 . S
C1485 H1470 0.930 . S
C1485 C1480 1.390 . S
C1485 C1484 1.387 . S
H1486 C1498 0.930 . S
H1487 C1500 0.930 . S
H1488 C1501 0.930 . S
H1489 C1505 0.959 . S
H1490 C1505 0.959 . S
H1491 C1505 0.961 . S
H1492 C1506 0.960 . S
H1493 C1506 0.961 . S
H1494 C1506 0.959 . S
H1495 C1509 0.929 . S
H1496 C1510 0.931 . S
H1497 C1512 0.930 . S
C1498 H1486 0.930 . S
C1498 C1499 1.399 . S
C1498 C1503 1.399 . S
C1499 C1498 1.399 . S
C1499 C1500 1.376 . S
C1500 H1487 0.930 . S
C1500 C1499 1.376 . S
C1500 C1501 1.388 . S
C1501 H1488 0.930 . S
C1501 C1500 1.388 . S
C1501 C1502 1.390 . S
C1502 C1501 1.390 . S
C1502 C1503 1.394 . S
C1502 C1508 1.465 . S
C1503 C1498 1.399 . S
C1503 C1502 1.394 . S
C1503 C1504 1.516 . S
C1504 C1503 1.516 . S
C1504 C1505 1.502 . S
C1504 C1506 1.561 . S
C1504 C1507 1.526 . S
C1505 H1489 0.959 . S
C1505 H1490 0.959 . S
C1505 H1491 0.961 . S
C1505 C1504 1.502 . S
C1506 H1492 0.960 . S
C1506 H1493 0.961 . S
C1506 H1494 0.959 . S
C1506 C1504 1.561 . S
C1507 C1504 1.526 . S
C1507 C1508 1.396 . S
C1507 C1512 1.390 . S
C1508 C1502 1.465 . S
C1508 C1507 1.396 . S
C1508 C1509 1.399 . S
C1509 H1495 0.929 . S
C1509 C1508 1.399 . S
C1509 C1510 1.385 . S
C1510 H1496 0.931 . S
C1510 C1509 1.385 . S
C1510 C1511 1.389 . S
C1511 C1510 1.389 . S
C1511 C1512 1.387 . S
C1512 H1497 0.930 . S
C1512 C1507 1.390 . S
C1512 C1511 1.387 . S
H1513 C1525 0.930 . S
H1514 C1527 0.930 . S
H1515 C1528 0.930 . S
H1516 C1532 0.959 . S
H1517 C1532 0.959 . S
H1518 C1532 0.961 . S
H1519 C1533 0.960 . S
H1520 C1533 0.961 . S
H1521 C1533 0.959 . S
H1522 C1536 0.929 . S
H1523 C1537 0.931 . S
H1524 C1539 0.930 . S
C1525 H1513 0.930 . S
C1525 C1526 1.399 . S
C1525 C1530 1.399 . S
C1526 C1525 1.399 . S
C1526 C1527 1.376 . S
C1527 H1514 0.930 . S
C1527 C1526 1.376 . S
C1527 C1528 1.388 . S
C1528 H1515 0.930 . S
C1528 C1527 1.388 . S
C1528 C1529 1.390 . S
C1529 C1528 1.390 . S
C1529 C1530 1.394 . S
C1529 C1535 1.465 . S
C1530 C1525 1.399 . S
C1530 C1529 1.394 . S
C1530 C1531 1.516 . S
C1531 C1530 1.516 . S
C1531 C1532 1.502 . S
C1531 C1533 1.561 . S
C1531 C1534 1.526 . S
C1532 H1516 0.959 . S
C1532 H1517 0.959 . S
C1532 H1518 0.961 . S
C1532 C1531 1.502 . S
C1533 H1519 0.960 . S
C1533 H1520 0.961 . S
C1533 H1521 0.959 . S
C1533 C1531 1.561 . S
C1534 C1531 1.526 . S
C1534 C1535 1.396 . S
C1534 C1539 1.390 . S
C1535 C1529 1.465 . S
C1535 C1534 1.396 . S
C1535 C1536 1.399 . S
C1536 H1522 0.929 . S
C1536 C1535 1.399 . S
C1536 C1537 1.385 . S
C1537 H1523 0.931 . S
C1537 C1536 1.385 . S
C1537 C1538 1.389 . S
C1538 C1537 1.389 . S
C1538 C1539 1.387 . S
C1539 H1524 0.930 . S
C1539 C1534 1.390 . S
C1539 C1538 1.387 . S
H1540 C1552 0.930 . S
H1541 C1554 0.930 . S
H1542 C1555 0.930 . S
H1543 C1559 0.959 . S
H1544 C1559 0.959 . S
H1545 C1559 0.961 . S
H1546 C1560 0.960 . S
H1547 C1560 0.961 . S
H1548 C1560 0.959 . S
H1549 C1563 0.929 . S
H1550 C1564 0.931 . S
H1551 C1566 0.930 . S
C1552 H1540 0.930 . S
C1552 C1553 1.399 . S
C1552 C1557 1.399 . S
C1553 C1552 1.399 . S
C1553 C1554 1.376 . S
C1554 H1541 0.930 . S
C1554 C1553 1.376 . S
C1554 C1555 1.388 . S
C1555 H1542 0.930 . S
C1555 C1554 1.388 . S
C1555 C1556 1.390 . S
C1556 C1555 1.390 . S
C1556 C1557 1.394 . S
C1556 C1562 1.465 . S
C1557 C1552 1.399 . S
C1557 C1556 1.394 . S
C1557 C1558 1.516 . S
C1558 C1557 1.516 . S
C1558 C1559 1.502 . S
C1558 C1560 1.561 . S
C1558 C1561 1.526 . S
C1559 H1543 0.959 . S
C1559 H1544 0.959 . S
C1559 H1545 0.961 . S
C1559 C1558 1.502 . S
C1560 H1546 0.960 . S
C1560 H1547 0.961 . S
C1560 H1548 0.959 . S
C1560 C1558 1.561 . S
C1561 C1558 1.526 . S
C1561 C1562 1.396 . S
C1561 C1566 1.390 . S
C1562 C1556 1.465 . S
C1562 C1561 1.396 . S
C1562 C1563 1.399 . S
C1563 H1549 0.929 . S
C1563 C1562 1.399 . S
C1563 C1564 1.385 . S
C1564 H1550 0.931 . S
C1564 C1563 1.385 . S
C1564 C1565 1.389 . S
C1565 C1564 1.389 . S
C1565 C1566 1.387 . S
C1566 H1551 0.930 . S
C1566 C1561 1.390 . S
C1566 C1565 1.387 . S
H1567 C1579 0.930 . S
H1568 C1581 0.930 . S
H1569 C1582 0.930 . S
H1570 C1586 0.959 . S
H1571 C1586 0.959 . S
H1572 C1586 0.961 . S
H1573 C1587 0.960 . S
H1574 C1587 0.961 . S
H1575 C1587 0.959 . S
H1576 C1590 0.929 . S
H1577 C1591 0.931 . S
H1578 C1593 0.930 . S
C1579 H1567 0.930 . S
C1579 C1580 1.399 . S
C1579 C1584 1.399 . S
C1580 C1579 1.399 . S
C1580 C1581 1.376 . S
C1581 H1568 0.930 . S
C1581 C1580 1.376 . S
C1581 C1582 1.388 . S
C1582 H1569 0.930 . S
C1582 C1581 1.388 . S
C1582 C1583 1.390 . S
C1583 C1582 1.390 . S
C1583 C1584 1.394 . S
C1583 C1589 1.465 . S
C1584 C1579 1.399 . S
C1584 C1583 1.394 . S
C1584 C1585 1.516 . S
C1585 C1584 1.516 . S
C1585 C1586 1.502 . S
C1585 C1587 1.561 . S
C1585 C1588 1.526 . S
C1586 H1570 0.959 . S
C1586 H1571 0.959 . S
C1586 H1572 0.961 . S
C1586 C1585 1.502 . S
C1587 H1573 0.960 . S
C1587 H1574 0.961 . S
C1587 H1575 0.959 . S
C1587 C1585 1.561 . S
C1588 C1585 1.526 . S
C1588 C1589 1.396 . S
C1588 C1593 1.390 . S
C1589 C1583 1.465 . S
C1589 C1588 1.396 . S
C1589 C1590 1.399 . S
C1590 H1576 0.929 . S
C1590 C1589 1.399 . S
C1590 C1591 1.385 . S
C1591 H1577 0.931 . S
C1591 C1590 1.385 . S
C1591 C1592 1.389 . S
C1592 C1591 1.389 . S
C1592 C1593 1.387 . S
C1593 H1578 0.930 . S
C1593 C1588 1.390 . S
C1593 C1592 1.387 . S
H1594 C1606 0.930 . S
H1595 C1608 0.930 . S
H1596 C1609 0.930 . S
H1597 C1613 0.959 . S
H1598 C1613 0.959 . S
H1599 C1613 0.961 . S
H1600 C1614 0.960 . S
H1601 C1614 0.961 . S
H1602 C1614 0.959 . S
H1603 C1617 0.929 . S
H1604 C1618 0.931 . S
H1605 C1620 0.930 . S
C1606 H1594 0.930 . S
C1606 C1607 1.399 . S
C1606 C1611 1.399 . S
C1607 C1606 1.399 . S
C1607 C1608 1.376 . S
C1608 H1595 0.930 . S
C1608 C1607 1.376 . S
C1608 C1609 1.388 . S
C1609 H1596 0.930 . S
C1609 C1608 1.388 . S
C1609 C1610 1.390 . S
C1610 C1609 1.390 . S
C1610 C1611 1.394 . S
C1610 C1616 1.465 . S
C1611 C1606 1.399 . S
C1611 C1610 1.394 . S
C1611 C1612 1.516 . S
C1612 C1611 1.516 . S
C1612 C1613 1.502 . S
C1612 C1614 1.561 . S
C1612 C1615 1.526 . S
C1613 H1597 0.959 . S
C1613 H1598 0.959 . S
C1613 H1599 0.961 . S
C1613 C1612 1.502 . S
C1614 H1600 0.960 . S
C1614 H1601 0.961 . S
C1614 H1602 0.959 . S
C1614 C1612 1.561 . S
C1615 C1612 1.526 . S
C1615 C1616 1.396 . S
C1615 C1620 1.390 . S
C1616 C1610 1.465 . S
C1616 C1615 1.396 . S
C1616 C1617 1.399 . S
C1617 H1603 0.929 . S
C1617 C1616 1.399 . S
C1617 C1618 1.385 . S
C1618 H1604 0.931 . S
C1618 C1617 1.385 . S
C1618 C1619 1.389 . S
C1619 C1618 1.389 . S
C1619 C1620 1.387 . S
C1620 H1605 0.930 . S
C1620 C1615 1.390 . S
C1620 C1619 1.387 . S
H1621 C1633 0.930 . S
H1622 C1635 0.930 . S
H1623 C1636 0.930 . S
H1624 C1640 0.959 . S
H1625 C1640 0.959 . S
H1626 C1640 0.961 . S
H1627 C1641 0.960 . S
H1628 C1641 0.961 . S
H1629 C1641 0.959 . S
H1630 C1644 0.929 . S
H1631 C1645 0.931 . S
H1632 C1647 0.930 . S
C1633 H1621 0.930 . S
C1633 C1634 1.399 . S
C1633 C1638 1.399 . S
C1634 C1633 1.399 . S
C1634 C1635 1.376 . S
C1635 H1622 0.930 . S
C1635 C1634 1.376 . S
C1635 C1636 1.388 . S
C1636 H1623 0.930 . S
C1636 C1635 1.388 . S
C1636 C1637 1.390 . S
C1637 C1636 1.390 . S
C1637 C1638 1.394 . S
C1637 C1643 1.465 . S
C1638 C1633 1.399 . S
C1638 C1637 1.394 . S
C1638 C1639 1.516 . S
C1639 C1638 1.516 . S
C1639 C1640 1.502 . S
C1639 C1641 1.561 . S
C1639 C1642 1.526 . S
C1640 H1624 0.959 . S
C1640 H1625 0.959 . S
C1640 H1626 0.961 . S
C1640 C1639 1.502 . S
C1641 H1627 0.960 . S
C1641 H1628 0.961 . S
C1641 H1629 0.959 . S
C1641 C1639 1.561 . S
C1642 C1639 1.526 . S
C1642 C1643 1.396 . S
C1642 C1647 1.390 . S
C1643 C1637 1.465 . S
C1643 C1642 1.396 . S
C1643 C1644 1.399 . S
C1644 H1630 0.929 . S
C1644 C1643 1.399 . S
C1644 C1645 1.385 . S
C1645 H1631 0.931 . S
C1645 C1644 1.385 . S
C1645 C1646 1.389 . S
C1646 C1645 1.389 . S
C1646 C1647 1.387 . S
C1647 H1632 0.930 . S
C1647 C1642 1.390 . S
C1647 C1646 1.387 . S
C365 C5 0.966 . S
C377 C159 0.951 . S
C392 C93 0.966 . S
C404 C27 0.952 . S
C419 C119 0.921 . S
C431 C53 0.958 . S
C446 C75 0.846 . S
C458 C141 0.832 . S
C473 C336 0.885 . S
C485 C182 0.960 . S
C500 C270 0.966 . S
C512 C204 0.916 . S
C527 C293 0.966 . S
C539 C227 0.911 . S
C554 C315 0.835 . S
C566 C249 0.865 . S
C581 C6 1.364 . S
C593 C335 1.375 . S
C608 C28 1.335 . S
C620 C269 1.326 . S
C635 C51 1.373 . S
C647 C295 1.383 . S
C662 C317 1.313 . S
C674 C73 1.315 . S
C689 C203 1.393 . S
C701 C94 1.394 . S
C716 C117 1.352 . S
C728 C229 1.340 . S
C743 C251 1.388 . S
C755 C139 1.380 . S
C770 C160 1.376 . S
C782 C181 1.385 . S
C797 C268 1.609 . S
C809 C9 1.605 . S
C824 C31 1.599 . S
C836 C294 1.571 . S
C851 C316 1.552 . S
C863 C49 1.617 . S
C878 C334 1.595 . S
C890 C71 1.621 . S
C905 C97 1.601 . S
C917 C180 1.566 . S
C932 C115 1.610 . S
C944 C202 1.610 . S
C959 C137 1.622 . S
C971 C228 1.592 . S
C986 C250 1.569 . S
C998 C163 1.601 . S
C1013 C183 1.613 . S
C1025 C92 1.560 . S
C1040 C205 1.600 . S
C1052 C118 1.588 . S
C1067 C140 1.585 . S
C1079 C226 1.619 . S
C1094 C248 1.603 . S
C1106 C158 1.578 . S
C1121 C271 1.602 . S
C1133 C4 1.610 . S
C1148 C292 1.597 . S
C1160 C26 1.602 . S
C1175 C52 1.586 . S
C1187 C314 1.618 . S
C1202 C74 1.564 . S
C1214 C337 1.610 . S
C1229 C8 1.479 . S
C1241 C207 1.380 . S
C1256 C225 1.431 . S
C1268 C30 1.459 . S
C1283 C48 1.468 . S
C1295 C247 1.390 . S
C1310 C70 1.471 . S
C1322 C185 1.401 . S
C1337 C96 1.490 . S
C1349 C339 1.343 . S
C1364 C114 1.468 . S
C1376 C273 1.409 . S
C1391 C136 1.460 . S
C1403 C291 1.426 . S
C1418 C313 1.426 . S
C1430 C162 1.456 . S
C1445 C29 1.442 . S
C1457 C184 1.455 . S
C1472 C50 1.443 . S
C1484 C206 1.454 . S
C1499 C224 1.453 . S
C1511 C72 1.421 . S
C1526 C246 1.489 . S
C1538 C7 1.357 . S
C1553 C161 1.385 . S
C1565 C272 1.481 . S
C1580 C95 1.413 . S
C1592 C290 1.471 . S
C1607 C116 1.366 . S
C1619 C312 1.487 . S
C1634 C138 1.405 . S
C1646 C338 1.474 . S
