# Generated by pormake.
# Topology cdl, (4)-cn, num edge types: 1
# Building blocks:
#     Node 0, Type 0, BuildingBlock: ESEHIV_clean_sbu_0, # of connection points: 4
#     Node 1, Type 0, BuildingBlock: ESEHIV_clean_sbu_0, # of connection points: 4
#     Node 2, Type 0, BuildingBlock: ESEHIV_clean_sbu_0, # of connection points: 4
#     Node 3, Type 0, BuildingBlock: ESEHIV_clean_sbu_0, # of connection points: 4
#     Edge 4, Type (0, 0), BuildingBlock: FUNLAD_clean_linker_1, # of connection points: 2
#     Edge 5, Type (0, 0), BuildingBlock: FUNLAD_clean_linker_1, # of connection points: 2
#     Edge 6, Type (0, 0), BuildingBlock: FUNLAD_clean_linker_1, # of connection points: 2
#     Edge 7, Type (0, 0), BuildingBlock: FUNLAD_clean_linker_1, # of connection points: 2
#     Edge 8, Type (0, 0), BuildingBlock: FUNLAD_clean_linker_1, # of connection points: 2
#     Edge 9, Type (0, 0), BuildingBlock: FUNLAD_clean_linker_1, # of connection points: 2
#     Edge 10, Type (0, 0), BuildingBlock: FUNLAD_clean_linker_1, # of connection points: 2
#     Edge 11, Type (0, 0), BuildingBlock: FUNLAD_clean_linker_1, # of connection points: 2
# Relax obj value: 0.000
# Max RMSD: 0.146
# Mean RMSD: 0.094
data_MOF--net-cdl--node1-ESEHIV_clean_sbu_0--edge1-FUNLAD_clean_linker_1
_symmetry_space_group_name_H-M    P1
_symmetry_Int_Tables_number       1
_symmetry_cell_setting            triclinic
loop_
_symmetry_equiv_pos_as_xyz
'x, y, z'
_cell_length_a     15.316002
_cell_length_b     17.693275
_cell_length_c     65.680053
_cell_angle_alpha  101.40271
_cell_angle_beta   101.53262
_cell_angle_gamma 89.068101
loop_
_atom_site_label
_atom_site_type_symbol
_atom_site_fract_x
_atom_site_fract_y
_atom_site_fract_z
_atom_type_partial_charge
Cu0 Cu 0.08559 0.11315 0.13455 0.0
N1 N 1.02715 1.01641 0.12744 0.0
N2 N 1.00272 0.89102 0.12595 0.0
C3 C 0.05847 0.95242 0.13434 0.0
C4 C 0.93315 0.91737 0.11332 0.0
C5 C 0.9485 0.99473 0.11427 0.0
O6 O 0.15114 0.12582 0.16363 0.0
C7 C 0.11765 0.11275 0.09498 0.0
O8 O 0.03057 0.10318 0.09092 0.0
H9 H 0.12144 0.95074 0.14521 0.0
H10 H 0.90548 1.03234 0.10585 0.0
N11 N 1.00536 0.19373 0.13327 0.0
N12 N 0.95369 0.31138 0.13111 0.0
C13 C 1.02568 0.26607 0.13183 0.0
C14 C 0.91774 0.19326 0.13352 0.0
C15 C 0.88566 0.26573 0.13207 0.0
C16 C 0.1046 0.11993 0.1773 0.0
O17 O 1.01835 0.10636 0.17092 0.0
H18 H 0.09179 0.28435 0.13106 0.0
H19 H 0.87988 0.14384 0.13471 0.0
O20 O 0.15992 0.11835 0.11401 0.0
H21 H 0.87509 0.88371 0.10415 0.0
H22 H 0.81762 0.28374 0.13183 0.0
Cu23 Cu 0.19568 0.19984 0.65819 0.0
N24 N 0.21311 0.1464 0.68052 0.0
N25 N 0.21727 0.12125 0.71271 0.0
C26 C 0.19464 0.17218 0.69987 0.0
C27 C 0.25106 0.06071 0.70099 0.0
C28 C 0.24843 0.07651 0.68112 0.0
O29 O 0.09755 0.27037 0.66135 0.0
C30 C 0.36906 0.20254 0.65264 0.0
O31 O 0.34885 0.1287 0.64642 0.0
H32 H 0.16513 0.22736 0.70448 0.0
H33 H 0.27033 0.03948 0.668 0.0
N34 N 0.16101 0.13222 0.63206 0.0
N35 N 0.13619 0.08665 0.59713 0.0
C36 C 0.1726 0.14445 0.61317 0.0
C37 C 0.11555 0.06459 0.62783 0.0
C38 C 0.0996 1.03663 0.60623 0.0
C39 C 1.02522 0.2392 0.66284 0.0
O40 O 1.02329 0.16484 0.66265 0.0
H41 H 0.20505 0.19572 0.61124 0.0
H42 H 0.09428 1.03812 0.63958 0.0
O43 O 0.30997 0.24858 0.6586 0.0
H44 H 0.27438 1.00826 0.70618 0.0
H45 H 0.06367 0.98381 0.59783 0.0
Cu46 Cu 0.0441 0.14078 0.90042 0.0
N47 N 0.96641 0.05472 0.89123 0.0
N48 N 0.91443 0.93385 0.88648 0.0
C49 C 0.98318 0.98407 0.89566 0.0
C50 C 0.85218 0.97447 0.87595 0.0
C51 C 0.88457 0.04887 0.87877 0.0
O52 O 0.09995 0.14244 0.92988 0.0
C53 C 0.09075 0.13435 0.86202 0.0
O54 O 1.00427 0.14361 0.85717 0.0
H55 H 0.0443 0.97038 0.90558 0.0
H56 H 0.85102 0.09517 0.87205 0.0
N57 N 0.98332 0.23317 0.89932 0.0
N58 N 0.95916 0.3573 0.89808 0.0
C59 C 1.01937 0.30082 0.89819 0.0
C60 C 0.89738 0.24757 0.90014 0.0
C61 C 0.88215 0.32408 0.89934 0.0
C62 C 0.04497 0.14325 0.94213 0.0
O63 O 0.95924 0.14262 0.93414 0.0
H64 H 0.0887 0.30861 0.89756 0.0
H65 H 0.84941 0.2058 0.90159 0.0
O66 O 0.12652 0.13199 0.88112 0.0
H67 H 0.78805 0.95167 0.86674 0.0
H68 H 0.81969 0.35286 0.90006 0.0
Cu69 Cu 0.21896 0.18925 0.39705 0.0
N70 N 0.18865 0.126 0.37021 0.0
N71 N 0.16744 0.08641 0.33508 0.0
C72 C 0.19202 0.14591 0.35162 0.0
C73 C 0.14759 1.02717 0.34361 0.0
C74 C 0.16142 0.05152 0.36532 0.0
O75 O 0.32512 0.24742 0.39679 0.0
C76 C 0.04299 0.21733 0.39986 0.0
O77 O 0.03769 0.14265 0.39236 0.0
H78 H 0.21121 0.20309 0.35034 0.0
H79 H 0.1521 1.01749 0.37674 0.0
N80 N 0.24775 0.12849 0.41754 0.0
N81 N 0.2593 0.08747 0.44798 0.0
C82 C 0.21722 0.13518 0.43567 0.0
C83 C 0.31101 0.07493 0.41841 0.0
C84 C 0.31854 0.0498 0.43725 0.0
C85 C 0.38561 0.27072 0.4131 0.0
O86 O 0.37216 0.2654 0.43191 0.0
H87 H 0.16865 0.17697 0.44016 0.0
H88 H 0.35109 0.05767 0.40653 0.0
O89 O 0.11801 0.25226 0.40306 0.0
H90 H 0.12489 0.97027 0.33474 0.0
H91 H 0.36557 1.00859 0.44292 0.0
H92 H 0.88093 0.41513 0.12596 0.0
C93 C 0.94698 0.39129 0.12927 0.0
H94 H 0.08552 0.41555 0.13519 0.0
H95 H 0.05614 0.70203 0.09037 0.0
H96 H 0.13556 0.61138 0.06821 0.0
H97 H 0.15838 0.47823 0.07384 0.0
H98 H 0.10009 0.43399 0.10128 0.0
C99 C 1.01886 0.43784 0.132 0.0
C100 C 1.00971 0.51996 0.12955 0.0
C101 C 0.0431 0.54443 0.11319 0.0
C102 C 0.03014 0.62139 0.10994 0.0
C103 C 0.06392 0.6442 0.09346 0.0
C104 C 0.10966 0.5928 0.08064 0.0
C105 C 0.12232 0.51773 0.08379 0.0
C106 C 0.0889 0.49326 0.0997 0.0
H107 H 0.07197 0.80572 0.1428 0.0
C108 C 1.01709 0.81433 0.13019 0.0
H109 H 0.91396 0.7589 0.10553 0.0
H110 H 0.95308 0.4972 0.165 0.0
H111 H 0.87767 0.58918 0.1877 0.0
H112 H 0.84832 0.72032 0.18086 0.0
H113 H 0.89552 0.76063 0.15144 0.0
C114 C 0.96655 0.75299 0.11883 0.0
C115 C 0.98441 0.67398 0.12312 0.0
C116 C 0.95402 0.65054 0.13998 0.0
C117 C 0.96799 0.5739 0.14343 0.0
C118 C 0.94086 0.55345 0.16106 0.0
C119 C 0.89817 0.60596 0.17435 0.0
C120 C 0.88188 0.67987 0.17054 0.0
C121 C 0.90941 0.70227 0.1536 0.0
H122 H 0.5024 0.18396 0.64576 0.0
C123 C 0.46065 0.22769 0.65284 0.0
H124 H 0.45917 0.34105 0.67062 0.0
H125 H 0.87494 0.29631 0.70602 0.0
H126 H 0.81492 0.31724 0.73827 0.0
H127 H 0.65396 0.33606 0.73686 0.0
H128 H 0.55194 0.33424 0.70327 0.0
C129 C 0.4974 0.29737 0.66238 0.0
C130 C 0.59518 0.30997 0.6641 0.0
C131 C 0.65402 0.31396 0.68391 0.0
C132 C 0.74679 0.30257 0.68472 0.0
C133 C 0.80383 0.30391 0.7046 0.0
C134 C 0.77031 0.31612 0.72318 0.0
C135 C 0.67965 0.32678 0.72238 0.0
C136 C 0.6218 0.3255 0.70301 0.0
H137 H 0.94258 0.34398 0.66233 0.0
C138 C 0.94289 0.28393 0.66383 0.0
H139 H 0.86941 0.1901 0.66795 0.0
H140 H 0.50413 0.32026 0.62467 0.0
H141 H 0.56485 0.30464 0.59258 0.0
H142 H 0.72479 0.28069 0.59372 0.0
H143 H 0.82518 0.27315 0.62688 0.0
C144 C 0.86805 0.24953 0.66585 0.0
C145 C 0.78055 0.28766 0.66578 0.0
C146 C 0.72332 0.29294 0.6463 0.0
C147 C 0.63066 0.30495 0.64553 0.0
C148 C 0.5746 0.30947 0.62591 0.0
C149 C 0.60866 0.30099 0.60747 0.0
C150 C 0.69877 0.28761 0.60812 0.0
C151 C 0.7557 0.28334 0.62725 0.0
H152 H 0.04616 0.4552 0.89923 0.0
C153 C 0.9773 0.43658 0.89752 0.0
H154 H 0.84319 0.47102 0.89321 0.0
H155 H 0.91476 0.82503 0.92928 0.0
H156 H 0.85212 0.78672 0.95695 0.0
H157 H 0.82587 0.64934 0.95671 0.0
H158 H 0.86205 0.54939 0.92884 0.0
C159 C 0.91227 0.48784 0.89468 0.0
C160 C 0.932 0.57053 0.89505 0.0
C161 C 0.91012 0.62836 0.91143 0.0
C162 C 0.92519 0.70767 0.91158 0.0
C163 C 0.90375 0.76404 0.92828 0.0
C164 C 0.86806 0.74285 0.9443 0.0
C165 C 0.85329 0.66549 0.94417 0.0
C166 C 0.8741 0.60869 0.92801 0.0
H167 H 0.84005 0.82558 0.88166 0.0
C168 C 0.90532 0.8538 0.88754 0.0
H169 H 0.04126 0.83731 0.90007 0.0
H170 H 0.97528 0.4755 0.86025 0.0
H171 H 0.04135 0.51427 0.83323 0.0
H172 H 0.07301 0.6515 0.83442 0.0
H173 H 0.03778 0.75096 0.8626 0.0
C174 C 0.97441 0.81225 0.89499 0.0
C175 C 0.96191 0.72919 0.89533 0.0
C176 C 0.98547 0.67154 0.87919 0.0
C177 C 0.96927 0.59217 0.87883 0.0
C178 C 0.98897 0.53632 0.8618 0.0
C179 C 1.02632 0.55785 0.84605 0.0
C180 C 0.044 0.63512 0.8467 0.0
C181 C 1.02355 0.69159 0.86297 0.0
H182 H 0.48694 0.27452 0.39379 0.0
C183 C 0.47609 0.28614 0.40998 0.0
H184 H 0.53635 0.31232 0.44237 0.0
H185 H 0.89093 0.14093 0.42976 0.0
H186 H 0.83427 0.07162 0.45295 0.0
H187 H 0.68744 0.10105 0.46221 0.0
H188 H 0.59704 0.20028 0.44862 0.0
C189 C 0.54657 0.30254 0.42617 0.0
C190 C 0.63949 0.2915 0.42242 0.0
C191 C 0.69156 0.23301 0.43059 0.0
C192 C 0.77519 0.21452 0.4248 0.0
C193 C 0.82602 0.15613 0.43326 0.0
C194 C 0.79451 0.11607 0.44666 0.0
C195 C 0.71197 0.13277 0.45191 0.0
C196 C 0.66077 0.19026 0.444 0.0
H197 H 0.97296 0.31634 0.41551 0.0
C198 C 0.96437 0.25801 0.40617 0.0
H199 H 0.87657 0.16283 0.39255 0.0
H200 H 0.56619 0.41716 0.40774 0.0
H201 H 0.62278 0.48607 0.38436 0.0
H202 H 0.76242 0.44777 0.37224 0.0
H203 H 0.84728 0.34147 0.38373 0.0
C204 C 0.88405 0.22186 0.40146 0.0
C205 C 0.80613 0.25326 0.41056 0.0
C206 C 0.75661 0.3146 0.40333 0.0
C207 C 0.67405 0.33472 0.40963 0.0
C208 C 0.62742 0.3978 0.40279 0.0
C209 C 0.65947 0.43809 0.38949 0.0
C210 C 0.73824 0.41665 0.38271 0.0
C211 C 0.78646 0.3556 0.38947 0.0
H212 H 1.0195 0.14802 0.97389 0.0
C213 C 0.07284 0.14569 0.96506 0.0
H214 H 0.21252 0.13967 0.96722 0.0
H215 H 0.09243 0.25956 0.06192 0.0
H216 H 0.0547 0.37891 0.04952 0.0
H217 H 0.07814 0.39479 1.01448 0.0
H218 H 0.1359 0.28986 0.99121 0.0
C219 C 0.15756 0.14483 0.97557 0.0
C220 C 0.17456 0.14564 0.99882 0.0
C221 C 0.1466 0.20894 1.01275 0.0
C222 C 0.13571 0.20065 0.03318 0.0
C223 C 0.10218 0.26307 0.04625 0.0
C224 C 0.08103 0.33203 0.03941 0.0
C225 C 0.09381 0.34081 0.01963 0.0
C226 C 0.12636 0.28018 1.0064 0.0
H227 H 0.23441 0.13618 0.08147 0.0
C228 C 0.16373 0.12116 0.07774 0.0
H229 H 0.04658 0.0993 0.05405 0.0
H230 H 0.24824 1.0198 0.97782 0.0
H231 H 0.29271 0.90263 0.99087 0.0
H232 H 0.27578 0.88893 0.02657 0.0
H233 H 0.2142 0.99237 0.04948 0.0
C234 C 0.11753 0.11329 0.0577 0.0
C235 C 0.15544 0.1299 0.03988 0.0
C236 C 0.19433 0.0703 0.02705 0.0
C237 C 0.20414 0.07825 1.00646 0.0
C238 C 0.23952 1.01656 0.99358 0.0
C239 C 0.26533 0.94918 1.00089 0.0
C240 C 0.25579 0.94146 0.021 0.0
C241 C 0.22033 1.00104 0.03397 0.0
H242 H 0.30715 0.05838 0.47895 0.0
C243 C 0.25228 0.08283 0.46924 0.0
H244 H 0.12502 0.13138 0.4679 0.0
H245 H 0.22053 0.9707 0.55456 0.0
H246 H 0.22392 0.84903 0.53023 0.0
H247 H 0.20032 0.84339 0.49168 0.0
H248 H 0.17611 0.95992 0.47736 0.0
C249 C 0.18047 0.10711 0.4774 0.0
C250 C 0.17798 0.1078 0.50007 0.0
C251 C 0.1858 1.03849 0.50805 0.0
C252 C 0.19284 0.0411 0.53014 0.0
C253 C 0.20922 0.97179 0.53785 0.0
C254 C 0.2122 0.90147 0.52405 0.0
C255 C 0.1994 0.89835 0.50237 0.0
C256 C 0.18636 0.96582 0.49438 0.0
H257 H 0.08084 0.04228 0.56367 0.0
C258 C 0.13197 0.07991 0.57473 0.0
H259 H 0.24269 0.15385 0.57809 0.0
H260 H 0.16013 0.25131 0.49004 0.0
H261 H 0.14502 0.37172 0.51392 0.0
H262 H 0.1458 0.37501 0.55167 0.0
H263 H 0.16273 0.25797 0.56582 0.0
C264 C 0.19106 0.11653 0.56718 0.0
C265 C 0.1849 0.11238 0.544 0.0
C266 C 0.17284 0.18115 0.53582 0.0
C267 C 0.17024 0.17899 0.51392 0.0
C268 C 0.16097 0.24909 0.50642 0.0
C269 C 0.15239 0.31882 0.51997 0.0
C270 C 0.15298 0.3207 0.54123 0.0
C271 C 0.16304 0.25296 0.54915 0.0
H272 H 0.12372 1.03602 0.30155 0.0
C273 C 0.15953 0.08455 0.31275 0.0
H274 H 0.23077 0.1891 0.31606 0.0
H275 H 0.1996 1.00098 0.21523 0.0
H276 H 0.29572 0.90692 0.23004 0.0
H277 H 0.34339 0.91976 0.26876 0.0
H278 H 0.29362 1.02606 0.2929 0.0
C279 C 0.19499 0.13993 0.30526 0.0
C280 C 0.1797 0.13891 0.28204 0.0
C281 C 0.21289 0.07853 0.26814 0.0
C282 C 0.18849 0.07299 0.24579 0.0
C283 C 0.21813 1.00945 0.2323 0.0
C284 C 0.2732 0.95483 0.2406 0.0
C285 C 0.29981 0.96191 0.2624 0.0
C286 C 0.27026 1.02291 0.27608 0.0
H287 H 0.21714 0.14056 0.20509 0.0
C288 C 0.14606 0.12777 0.2 0.0
H289 H 1.02533 0.10864 0.20928 0.0
H290 H 0.11175 0.26622 0.30425 0.0
H291 H 1.02392 0.36497 0.2895 0.0
H292 H 0.98662 0.35806 0.25085 0.0
H293 H 0.03666 0.25197 0.2267 0.0
C294 C 0.09685 0.11918 0.21427 0.0
C295 C 0.13386 0.12965 0.23743 0.0
C296 C 0.10597 0.19287 0.2514 0.0
C297 C 0.12866 0.19745 0.2737 0.0
C298 C 0.0975 0.26019 0.2872 0.0
C299 C 0.04685 0.31732 0.27894 0.0
C300 C 1.02574 0.31337 0.25718 0.0
C301 C 0.05464 0.25201 0.24349 0.0
H302 H 0.15802 0.17543 0.73934 0.0
C303 C 0.20231 0.13042 0.73403 0.0
H304 H 0.28527 0.04052 0.74261 0.0
H305 H 0.19222 0.25433 0.83226 0.0
H306 H 0.27776 0.35703 0.82519 0.0
H307 H 0.34053 0.33872 0.79281 0.0
H308 H 0.31673 0.21807 0.76711 0.0
C309 C 0.24095 0.08585 0.74754 0.0
C310 C 0.21787 0.0928 0.76886 0.0
C311 C 0.23598 0.16241 0.78419 0.0
C312 C 0.20255 0.17198 0.80326 0.0
C313 C 0.21752 0.24346 0.81775 0.0
C314 C 0.26652 0.30289 0.81388 0.0
C315 C 0.30167 0.29265 0.79562 0.0
C316 C 0.28695 0.22333 0.78092 0.0
H317 H 0.21571 0.11792 0.84948 0.0
C318 C 0.14421 0.1252 0.84529 0.0
H319 H 0.03294 0.1293 0.82067 0.0
H320 H 0.18007 0.94866 0.74403 0.0
H321 H 0.10318 0.84344 0.75229 0.0
H322 H 0.04967 0.85891 0.78586 0.0
H323 H 0.07255 0.98008 0.81137 0.0
C324 C 0.1048 0.12449 0.825 0.0
C325 C 0.15375 0.11101 0.80725 0.0
C326 C 0.14184 0.03944 0.79272 0.0
C327 C 0.17377 1.03028 0.77349 0.0
C328 C 0.15829 0.95874 0.75899 0.0
C329 C 0.11406 0.89779 0.76352 0.0
C330 C 0.08382 0.90652 0.78241 0.0
C331 C 0.09716 0.97642 0.79687 0.0
loop_
_geom_bond_atom_site_label_1
_geom_bond_atom_site_label_2
_geom_bond_distance
_geom_bond_site_symmetry_2
_ccdc_geom_bond_type
Cu0 N1 1.999 1_545 S
Cu0 O6 1.974 . S
Cu0 N11 1.985 . S
Cu0 O20 1.959 . S
N1 Cu0 1.999 1_565 S
N1 C3 1.263 . S
N1 C5 1.389 . S
N2 C3 1.358 . S
N2 C4 1.400 . S
C3 N1 1.263 . S
C3 N2 1.358 . S
C3 H9 0.930 . S
C4 N2 1.400 . S
C4 C5 1.351 . S
C4 H21 0.930 . S
C5 N1 1.389 . S
C5 C4 1.351 . S
C5 H10 0.930 . S
O6 Cu0 1.974 . S
O6 C16 1.282 . S
C7 O8 1.261 . S
C7 O20 1.251 . S
O8 C7 1.261 . S
H9 C3 0.930 . S
H10 C5 0.930 . S
N11 Cu0 1.985 . S
N11 C13 1.335 . S
N11 C14 1.390 . S
N12 C13 1.345 . S
N12 C15 1.336 . S
C13 N11 1.335 . S
C13 N12 1.345 . S
C13 H18 0.930 . S
C14 N11 1.390 . S
C14 C15 1.346 . S
C14 H19 0.930 . S
C15 N12 1.336 . S
C15 C14 1.346 . S
C15 H22 0.929 . S
C16 O6 1.282 . S
C16 O17 1.216 . S
O17 C16 1.216 . S
H18 C13 0.930 . S
H19 C14 0.930 . S
O20 Cu0 1.959 . S
O20 C7 1.251 . S
H21 C4 0.930 . S
H22 C15 0.929 . S
Cu23 N24 1.999 . S
Cu23 O29 1.974 1_455 S
Cu23 N34 1.985 . S
Cu23 O43 1.959 . S
N24 Cu23 1.999 . S
N24 C26 1.263 . S
N24 C28 1.389 . S
N25 C26 1.358 . S
N25 C27 1.400 . S
C26 N24 1.263 . S
C26 N25 1.358 . S
C26 H32 0.930 1_455 S
C27 N25 1.400 . S
C27 C28 1.351 . S
C27 H44 0.930 . S
C28 N24 1.389 . S
C28 C27 1.351 . S
C28 H33 0.930 . S
O29 Cu23 1.974 1_655 S
O29 C39 1.282 . S
C30 O31 1.261 . S
C30 O43 1.251 . S
O31 C30 1.261 . S
H32 C26 0.930 1_655 S
H33 C28 0.930 . S
N34 Cu23 1.985 . S
N34 C36 1.335 . S
N34 C37 1.390 1_455 S
N35 C36 1.345 . S
N35 C38 1.336 1_455 S
C36 N34 1.335 . S
C36 N35 1.345 . S
C36 H41 0.930 . S
C37 N34 1.390 1_655 S
C37 C38 1.346 . S
C37 H42 0.930 . S
C38 N35 1.336 1_655 S
C38 C37 1.346 . S
C38 H45 0.929 . S
C39 O29 1.282 . S
C39 O40 1.216 . S
O40 C39 1.216 . S
H41 C36 0.930 . S
H42 C37 0.930 . S
O43 Cu23 1.959 . S
O43 C30 1.251 . S
H44 C27 0.930 . S
H45 C38 0.929 . S
Cu46 N47 1.999 . S
Cu46 O52 1.974 . S
Cu46 N57 1.985 . S
Cu46 O66 1.959 . S
N47 Cu46 1.999 . S
N47 C49 1.263 1_545 S
N47 C51 1.389 1_545 S
N48 C49 1.358 . S
N48 C50 1.400 . S
C49 N47 1.263 1_565 S
C49 N48 1.358 . S
C49 H55 0.930 1_455 S
C50 N48 1.400 . S
C50 C51 1.351 . S
C50 H67 0.930 . S
C51 N47 1.389 1_565 S
C51 C50 1.351 . S
C51 H56 0.930 1_565 S
O52 Cu46 1.974 . S
O52 C62 1.282 1_455 S
C53 O54 1.261 . S
C53 O66 1.251 1_655 S
O54 C53 1.261 . S
H55 C49 0.930 1_655 S
H56 C51 0.930 1_545 S
N57 Cu46 1.985 . S
N57 C59 1.335 . S
N57 C60 1.390 1_455 S
N58 C59 1.345 . S
N58 C61 1.336 1_455 S
C59 N57 1.335 . S
C59 N58 1.345 . S
C59 H64 0.930 . S
C60 N57 1.390 1_655 S
C60 C61 1.346 . S
C60 H65 0.930 . S
C61 N58 1.336 1_655 S
C61 C60 1.346 . S
C61 H68 0.929 . S
C62 O52 1.282 1_655 S
C62 O63 1.216 . S
O63 C62 1.216 . S
H64 C59 0.930 . S
H65 C60 0.930 . S
O66 Cu46 1.959 . S
O66 C53 1.251 1_455 S
H67 C50 0.930 . S
H68 C61 0.929 . S
Cu69 N70 1.999 . S
Cu69 O75 1.974 . S
Cu69 N80 1.985 . S
Cu69 O89 1.959 . S
N70 Cu69 1.999 . S
N70 C72 1.263 . S
N70 C74 1.389 . S
N71 C72 1.358 . S
N71 C73 1.400 . S
C72 N70 1.263 . S
C72 N71 1.358 . S
C72 H78 0.930 . S
C73 N71 1.400 . S
C73 C74 1.351 . S
C73 H90 0.930 . S
C74 N70 1.389 . S
C74 C73 1.351 . S
C74 H79 0.930 1_455 S
O75 Cu69 1.974 . S
O75 C85 1.282 . S
C76 O77 1.261 1_545 S
C76 O89 1.251 1_655 S
O77 C76 1.261 1_565 S
H78 C72 0.930 . S
H79 C74 0.930 1_655 S
N80 Cu69 1.985 . S
N80 C82 1.335 . S
N80 C83 1.390 . S
N81 C82 1.345 . S
N81 C84 1.336 . S
C82 N80 1.335 . S
C82 N81 1.345 . S
C82 H87 0.930 . S
C83 N80 1.390 . S
C83 C84 1.346 . S
C83 H88 0.930 . S
C84 N81 1.336 . S
C84 C83 1.346 . S
C84 H91 0.929 . S
C85 O75 1.282 . S
C85 O86 1.216 1_545 S
O86 C85 1.216 1_565 S
H87 C82 0.930 . S
H88 C83 0.930 . S
O89 Cu69 1.959 . S
O89 C76 1.251 1_455 S
H90 C73 0.930 . S
H91 C84 0.929 . S
H92 C93 0.951 . S
C93 H92 0.951 . S
C93 C99 1.265 . S
H94 C99 0.950 . S
H95 C103 0.949 . S
H96 C104 0.950 . S
H97 C105 0.951 . S
H98 C106 0.951 . S
C99 C93 1.265 . S
C99 H94 0.950 . S
C99 C100 1.478 . S
C100 C99 1.478 . S
C100 C101 1.397 . S
C100 C117 1.394 . S
C101 C100 1.397 . S
C101 C102 1.438 . S
C101 C106 1.429 . S
C102 C101 1.438 . S
C102 C103 1.428 . S
C102 C115 1.394 . S
C103 H95 0.949 . S
C103 C102 1.428 . S
C103 C104 1.345 . S
C104 H96 0.950 . S
C104 C103 1.345 . S
C104 C105 1.424 . S
C105 H97 0.951 . S
C105 C104 1.424 . S
C105 C106 1.347 . S
C106 H98 0.951 . S
C106 C101 1.429 . S
C106 C105 1.347 . S
H107 C108 0.951 . S
C108 H107 0.951 . S
C108 C114 1.265 . S
H109 C114 0.950 . S
H110 C118 0.949 . S
H111 C119 0.950 . S
H112 C120 0.951 . S
H113 C121 0.951 . S
C114 C108 1.265 . S
C114 H109 0.950 . S
C114 C115 1.478 . S
C115 C102 1.394 . S
C115 C114 1.478 . S
C115 C116 1.397 . S
C116 C115 1.397 . S
C116 C117 1.438 . S
C116 C121 1.429 . S
C117 C100 1.394 . S
C117 C116 1.438 . S
C117 C118 1.428 . S
C118 H110 0.949 . S
C118 C117 1.428 . S
C118 C119 1.345 . S
C119 H111 0.950 . S
C119 C118 1.345 . S
C119 C120 1.424 . S
C120 H112 0.951 . S
C120 C119 1.424 . S
C120 C121 1.347 . S
C121 H113 0.951 . S
C121 C116 1.429 . S
C121 C120 1.347 . S
H122 C123 0.951 . S
C123 H122 0.951 . S
C123 C129 1.265 . S
H124 C129 0.950 . S
H125 C133 0.949 . S
H126 C134 0.950 . S
H127 C135 0.953 . S
H128 C136 0.951 . S
C129 C123 1.265 . S
C129 H124 0.950 . S
C129 C130 1.478 . S
C130 C129 1.478 . S
C130 C131 1.397 . S
C130 C147 1.394 . S
C131 C130 1.397 . S
C131 C132 1.438 . S
C131 C136 1.429 . S
C132 C131 1.438 . S
C132 C133 1.428 . S
C132 C145 1.394 . S
C133 H125 0.949 . S
C133 C132 1.428 . S
C133 C134 1.345 1_545 S
C134 H126 0.950 . S
C134 C133 1.345 1_565 S
C134 C135 1.424 . S
C135 H127 0.953 . S
C135 C134 1.424 . S
C135 C136 1.345 1_565 S
C136 H128 0.951 . S
C136 C131 1.429 . S
C136 C135 1.345 1_545 S
H137 C138 0.951 . S
C138 H137 0.951 . S
C138 C144 1.265 . S
H139 C144 0.950 . S
H140 C148 0.949 . S
H141 C149 0.950 . S
H142 C150 0.951 . S
H143 C151 0.951 . S
C144 C138 1.265 . S
C144 H139 0.950 . S
C144 C145 1.478 . S
C145 C132 1.394 . S
C145 C144 1.478 . S
C145 C146 1.397 . S
C146 C145 1.397 . S
C146 C147 1.438 . S
C146 C151 1.429 . S
C147 C130 1.394 . S
C147 C146 1.438 . S
C147 C148 1.428 . S
C148 H140 0.949 . S
C148 C147 1.428 . S
C148 C149 1.345 . S
C149 H141 0.950 . S
C149 C148 1.345 . S
C149 C150 1.424 . S
C150 H142 0.951 . S
C150 C149 1.424 . S
C150 C151 1.347 . S
C151 H143 0.951 . S
C151 C146 1.429 . S
C151 C150 1.347 . S
H152 C153 0.951 . S
C153 H152 0.951 . S
C153 C159 1.265 1_455 S
H154 C159 0.950 . S
H155 C163 0.949 1_455 S
H156 C164 0.950 . S
H157 C165 0.951 . S
H158 C166 0.951 . S
C159 C153 1.265 1_655 S
C159 H154 0.950 . S
C159 C160 1.478 1_655 S
C160 C159 1.478 1_455 S
C160 C161 1.397 1_455 S
C160 C177 1.394 . S
C161 C160 1.397 1_655 S
C161 C162 1.438 1_655 S
C161 C166 1.429 . S
C162 C161 1.438 1_455 S
C162 C163 1.428 1_455 S
C162 C175 1.394 . S
C163 H155 0.949 1_655 S
C163 C162 1.428 1_655 S
C163 C164 1.345 . S
C164 H156 0.950 . S
C164 C163 1.345 . S
C164 C165 1.424 . S
C165 H157 0.951 . S
C165 C164 1.424 . S
C165 C166 1.347 . S
C166 H158 0.951 . S
C166 C161 1.429 . S
C166 C165 1.347 . S
H167 C168 0.951 1_655 S
C168 H167 0.951 1_455 S
C168 C174 1.265 . S
H169 C174 0.950 . S
H170 C178 0.949 . S
H171 C179 0.950 . S
H172 C180 0.951 . S
H173 C181 0.951 . S
C174 C168 1.265 . S
C174 H169 0.950 . S
C174 C175 1.478 . S
C175 C162 1.394 . S
C175 C174 1.478 . S
C175 C176 1.397 . S
C176 C175 1.397 . S
C176 C177 1.438 . S
C176 C181 1.429 . S
C177 C160 1.394 . S
C177 C176 1.438 . S
C177 C178 1.428 . S
C178 H170 0.949 . S
C178 C177 1.428 . S
C178 C179 1.345 . S
C179 H171 0.950 . S
C179 C178 1.345 . S
C179 C180 1.424 . S
C180 H172 0.951 . S
C180 C179 1.424 . S
C180 C181 1.347 . S
C181 H173 0.951 . S
C181 C176 1.429 . S
C181 C180 1.347 . S
H182 C183 0.951 . S
C183 H182 0.951 . S
C183 C189 1.265 . S
H184 C189 0.950 . S
H185 C193 0.949 . S
H186 C194 0.950 . S
H187 C195 0.951 . S
H188 C196 0.951 . S
C189 C183 1.265 . S
C189 H184 0.950 . S
C189 C190 1.478 . S
C190 C189 1.478 . S
C190 C191 1.397 1_545 S
C190 C207 1.394 . S
C191 C190 1.397 1_565 S
C191 C192 1.438 . S
C191 C196 1.429 . S
C192 C191 1.438 . S
C192 C193 1.428 . S
C192 C205 1.394 1_565 S
C193 H185 0.949 . S
C193 C192 1.428 . S
C193 C194 1.345 . S
C194 H186 0.950 . S
C194 C193 1.345 . S
C194 C195 1.424 . S
C195 H187 0.951 . S
C195 C194 1.424 . S
C195 C196 1.347 . S
C196 H188 0.951 . S
C196 C191 1.429 . S
C196 C195 1.347 . S
H197 C198 0.951 . S
C198 H197 0.951 . S
C198 C204 1.265 . S
H199 C204 0.950 . S
H200 C208 0.949 . S
H201 C209 0.950 . S
H202 C210 0.951 . S
H203 C211 0.951 . S
C204 C198 1.265 . S
C204 H199 0.950 . S
C204 C205 1.478 . S
C205 C192 1.394 1_545 S
C205 C204 1.478 . S
C205 C206 1.397 . S
C206 C205 1.397 . S
C206 C207 1.438 . S
C206 C211 1.429 . S
C207 C190 1.394 . S
C207 C206 1.438 . S
C207 C208 1.428 . S
C208 H200 0.949 . S
C208 C207 1.428 . S
C208 C209 1.345 . S
C209 H201 0.950 . S
C209 C208 1.345 . S
C209 C210 1.424 . S
C210 H202 0.951 . S
C210 C209 1.424 . S
C210 C211 1.347 . S
C211 H203 0.951 . S
C211 C206 1.429 . S
C211 C210 1.347 . S
H212 C213 0.951 . S
C213 H212 0.951 . S
C213 C219 1.265 1_655 S
H214 C219 0.950 . S
H215 C223 0.949 . S
H216 C224 0.950 . S
H217 C225 0.951 . S
H218 C226 0.951 . S
C219 C213 1.265 1_455 S
C219 H214 0.950 . S
C219 C220 1.478 . S
C220 C219 1.478 . S
C220 C221 1.425 . S
C220 C237 1.394 . S
C221 C220 1.425 . S
C221 C222 1.400 1_556 S
C221 C226 1.439 1_455 S
C222 C221 1.400 1_554 S
C222 C223 1.428 . S
C222 C235 1.394 . S
C223 H215 0.949 . S
C223 C222 1.428 . S
C223 C224 1.345 1_455 S
C224 H216 0.950 . S
C224 C223 1.345 1_655 S
C224 C225 1.424 . S
C225 H217 0.951 . S
C225 C224 1.424 . S
C225 C226 1.347 1_554 S
C226 H218 0.951 . S
C226 C221 1.439 1_655 S
C226 C225 1.347 1_556 S
H227 C228 0.951 . S
C228 H227 0.951 . S
C228 C234 1.265 . S
H229 C234 0.950 . S
H230 C238 0.949 . S
H231 C239 0.950 . S
H232 C240 0.951 . S
H233 C241 0.951 . S
C234 C228 1.265 . S
C234 H229 0.950 . S
C234 C235 1.478 . S
C235 C222 1.394 . S
C235 C234 1.478 . S
C235 C236 1.397 . S
C236 C235 1.397 . S
C236 C237 1.438 1_554 S
C236 C241 1.429 1_545 S
C237 C220 1.394 . S
C237 C236 1.438 1_556 S
C237 C238 1.428 . S
C238 H230 0.949 . S
C238 C237 1.428 . S
C238 C239 1.345 1_545 S
C239 H231 0.950 . S
C239 C238 1.345 1_565 S
C239 C240 1.424 . S
C240 H232 0.951 . S
C240 C239 1.424 . S
C240 C241 1.347 1_556 S
C241 H233 0.951 . S
C241 C236 1.429 1_565 S
C241 C240 1.347 1_554 S
H242 C243 0.951 . S
C243 H242 0.951 . S
C243 C249 1.265 . S
H244 C249 0.950 . S
H245 C253 0.949 . S
H246 C254 0.950 . S
H247 C255 0.951 . S
H248 C256 0.951 . S
C249 C243 1.265 . S
C249 H244 0.950 . S
C249 C250 1.478 . S
C250 C249 1.478 . S
C250 C251 1.397 . S
C250 C267 1.394 . S
C251 C250 1.397 . S
C251 C252 1.438 . S
C251 C256 1.429 1_545 S
C252 C251 1.438 . S
C252 C253 1.428 . S
C252 C265 1.394 . S
C253 H245 0.949 . S
C253 C252 1.428 . S
C253 C254 1.345 1_545 S
C254 H246 0.950 . S
C254 C253 1.345 1_565 S
C254 C255 1.424 . S
C255 H247 0.951 . S
C255 C254 1.424 . S
C255 C256 1.347 . S
C256 H248 0.951 . S
C256 C251 1.429 1_565 S
C256 C255 1.347 . S
H257 C258 0.951 . S
C258 H257 0.951 . S
C258 C264 1.265 . S
H259 C264 0.950 . S
H260 C268 0.949 . S
H261 C269 0.950 . S
H262 C270 0.951 . S
H263 C271 0.951 . S
C264 C258 1.265 . S
C264 H259 0.950 . S
C264 C265 1.478 . S
C265 C252 1.394 . S
C265 C264 1.478 . S
C265 C266 1.397 . S
C266 C265 1.397 . S
C266 C267 1.438 . S
C266 C271 1.429 . S
C267 C250 1.394 . S
C267 C266 1.438 . S
C267 C268 1.428 . S
C268 H260 0.949 . S
C268 C267 1.428 . S
C268 C269 1.345 . S
C269 H261 0.950 . S
C269 C268 1.345 . S
C269 C270 1.424 . S
C270 H262 0.951 . S
C270 C269 1.424 . S
C270 C271 1.347 . S
C271 H263 0.951 . S
C271 C266 1.429 . S
C271 C270 1.347 . S
H272 C273 0.951 . S
C273 H272 0.951 . S
C273 C279 1.265 . S
H274 C279 0.950 . S
H275 C283 0.949 . S
H276 C284 0.950 . S
H277 C285 0.951 . S
H278 C286 0.951 . S
C279 C273 1.265 . S
C279 H274 0.950 . S
C279 C280 1.478 . S
C280 C279 1.478 . S
C280 C281 1.397 . S
C280 C297 1.394 . S
C281 C280 1.397 . S
C281 C282 1.438 . S
C281 C286 1.429 1_545 S
C282 C281 1.438 . S
C282 C283 1.428 1_545 S
C282 C295 1.394 . S
C283 H275 0.949 . S
C283 C282 1.428 1_565 S
C283 C284 1.345 . S
C284 H276 0.950 . S
C284 C283 1.345 . S
C284 C285 1.424 . S
C285 H277 0.951 . S
C285 C284 1.424 . S
C285 C286 1.347 . S
C286 H278 0.951 . S
C286 C281 1.429 1_565 S
C286 C285 1.347 . S
H287 C288 0.951 . S
C288 H287 0.951 . S
C288 C294 1.265 . S
H289 C294 0.950 . S
H290 C298 0.949 . S
H291 C299 0.950 . S
H292 C300 0.951 . S
H293 C301 0.951 . S
C294 C288 1.265 . S
C294 H289 0.950 . S
C294 C295 1.478 . S
C295 C282 1.394 . S
C295 C294 1.478 . S
C295 C296 1.397 . S
C296 C295 1.397 . S
C296 C297 1.438 . S
C296 C301 1.429 . S
C297 C280 1.394 . S
C297 C296 1.438 . S
C297 C298 1.428 . S
C298 H290 0.949 . S
C298 C297 1.428 . S
C298 C299 1.345 1_455 S
C299 H291 0.950 . S
C299 C298 1.345 1_655 S
C299 C300 1.424 . S
C300 H292 0.951 . S
C300 C299 1.424 . S
C300 C301 1.347 1_655 S
C301 H293 0.951 . S
C301 C296 1.429 . S
C301 C300 1.347 1_455 S
H302 C303 0.951 1_655 S
C303 H302 0.951 1_455 S
C303 C309 1.265 . S
H304 C309 0.950 . S
H305 C313 0.949 . S
H306 C314 0.950 . S
H307 C315 0.951 . S
H308 C316 0.951 . S
C309 C303 1.265 . S
C309 H304 0.950 . S
C309 C310 1.478 . S
C310 C309 1.478 . S
C310 C311 1.397 . S
C310 C327 1.395 . S
C311 C310 1.397 . S
C311 C312 1.432 1_455 S
C311 C316 1.429 . S
C312 C311 1.432 1_655 S
C312 C313 1.430 . S
C312 C325 1.398 . S
C313 H305 0.949 . S
C313 C312 1.430 . S
C313 C314 1.345 1_655 S
C314 H306 0.950 . S
C314 C313 1.345 1_455 S
C314 C315 1.424 . S
C315 H307 0.951 . S
C315 C314 1.424 . S
C315 C316 1.347 . S
C316 H308 0.951 . S
C316 C311 1.429 . S
C316 C315 1.347 . S
H317 C318 0.951 1_455 S
C318 H317 0.951 1_655 S
C318 C324 1.265 . S
H319 C324 0.950 . S
H320 C328 0.949 . S
H321 C329 0.950 . S
H322 C330 0.951 . S
H323 C331 0.951 . S
C324 C318 1.265 . S
C324 H319 0.950 . S
C324 C325 1.478 . S
C325 C312 1.398 . S
C325 C324 1.478 . S
C325 C326 1.397 . S
C326 C325 1.397 . S
C326 C327 1.436 1_655 S
C326 C331 1.429 . S
C327 C310 1.395 . S
C327 C326 1.436 1_455 S
C327 C328 1.428 . S
C328 H320 0.949 . S
C328 C327 1.428 . S
C328 C329 1.345 1_445 S
C329 H321 0.950 . S
C329 C328 1.345 1_665 S
C329 C330 1.424 . S
C330 H322 0.951 . S
C330 C329 1.424 . S
C330 C331 1.347 1_565 S
C331 H323 0.951 . S
C331 C326 1.429 . S
C331 C330 1.347 1_545 S
C93 N12 1.443 . S
C108 N2 1.423 . S
C123 C30 1.484 . S
C138 C39 1.484 . S
C153 N58 1.465 . S
C168 N48 1.478 . S
C183 C85 1.480 . S
C198 C76 1.484 . S
C213 C62 1.553 . S
C228 C7 1.555 . S
C243 N81 1.463 . S
C258 N35 1.444 . S
C273 N71 1.431 . S
C288 C16 1.493 . S
C303 N25 1.587 . S
C318 C53 1.559 . S
