# Generated by pormake.
# Topology rac, (4)-cn, num edge types: 1
# Building blocks:
#     Node 0, Type 0, BuildingBlock: UXUYUI_clean_sbu_0, # of connection points: 4
#     Node 1, Type 0, BuildingBlock: UXUYUI_clean_sbu_0, # of connection points: 4
#     Node 2, Type 0, BuildingBlock: UXUYUI_clean_sbu_0, # of connection points: 4
#     Node 3, Type 0, BuildingBlock: UXUYUI_clean_sbu_0, # of connection points: 4
#     Node 4, Type 0, BuildingBlock: UXUYUI_clean_sbu_0, # of connection points: 4
#     Node 5, Type 0, BuildingBlock: UXUYUI_clean_sbu_0, # of connection points: 4
#     Node 6, Type 0, BuildingBlock: UXUYUI_clean_sbu_0, # of connection points: 4
#     Node 7, Type 0, BuildingBlock: UXUYUI_clean_sbu_0, # of connection points: 4
#     Edge 8, Type (0, 0), None
#     Edge 9, Type (0, 0), None
#     Edge 10, Type (0, 0), None
#     Edge 11, Type (0, 0), None
#     Edge 12, Type (0, 0), None
#     Edge 13, Type (0, 0), None
#     Edge 14, Type (0, 0), None
#     Edge 15, Type (0, 0), None
#     Edge 16, Type (0, 0), None
#     Edge 17, Type (0, 0), None
#     Edge 18, Type (0, 0), None
#     Edge 19, Type (0, 0), None
#     Edge 20, Type (0, 0), None
#     Edge 21, Type (0, 0), None
#     Edge 22, Type (0, 0), None
#     Edge 23, Type (0, 0), None
# Relax obj value: 0.361
# Max RMSD: 0.174
# Mean RMSD: 0.174
data_MOF--net-rac--node1-UXUYUI_clean_sbu_0--edge1-none
_symmetry_space_group_name_H-M    P1
_symmetry_Int_Tables_number       1
_symmetry_cell_setting            triclinic
loop_
_symmetry_equiv_pos_as_xyz
'x, y, z'
_cell_length_a     35.934174
_cell_length_b     18.527321
_cell_length_c     38.871137
_cell_angle_alpha  89.999559
_cell_angle_beta   90.000161
_cell_angle_gamma 90.001375
loop_
_atom_site_label
_atom_site_type_symbol
_atom_site_fract_x
_atom_site_fract_y
_atom_site_fract_z
_atom_type_partial_charge
Li0 Li 0.41925 0.28894 0.05755 0.0
Li1 Li 0.40797 0.24291 0.11806 0.0
Li2 Li 0.37176 0.18529 0.06676 0.0
Li3 Li 0.36078 0.30653 0.08565 0.0
C4 C 0.46455 0.16646 0.07451 0.0
N5 N 0.53842 0.12662 0.07006 0.0
C6 C 0.4911 0.20016 0.09526 0.0
C7 C 0.47545 0.11222 0.05166 0.0
C8 C 0.52835 0.17934 0.09258 0.0
C9 C 0.51296 0.09292 0.04974 0.0
C10 C 0.4062 0.4096 0.1133 0.0
C11 C 0.37787 0.49265 0.15332 0.0
N12 N 0.39785 0.54759 0.13928 0.0
C13 C 0.4267 0.46684 0.09951 0.0
C14 C 0.38186 0.42253 0.14067 0.0
C15 C 0.42201 0.53618 0.11291 0.0
C16 C 0.43487 0.40199 0.01153 0.0
N17 N 0.45264 0.34994 0.03009 0.0
C18 C 0.51053 0.41354 0.02324 0.0
C19 C 0.49 0.35432 0.03564 0.0
C20 C 0.49259 0.46985 0.00525 0.0
C21 C 0.45425 0.46207 0.99881 0.0
H22 H 0.40498 0.39989 0.00872 0.0
H23 H 0.50367 0.31428 0.05134 0.0
C24 C 0.41844 0.17886 0.18459 0.0
N25 N 0.42768 0.23508 0.16379 0.0
C26 C 0.42374 0.18416 0.22019 0.0
C27 C 0.44985 0.30309 0.21197 0.0
C28 C 0.44448 0.29518 0.17661 0.0
C29 C 0.43836 0.2481 0.23436 0.0
H30 H 0.40434 0.1324 0.17389 0.0
H31 H 0.45178 0.33901 0.1596 0.0
C32 C 0.37076 0.26032 0.00385 0.0
N33 N 0.37585 0.2313 0.93434 0.0
C34 C 0.34783 0.29662 0.98054 0.0
C35 C 0.39637 0.20947 0.99186 0.0
C36 C 0.35079 0.28111 0.94549 0.0
C37 C 0.3985 0.19551 0.9566 0.0
C38 C 0.32734 0.21228 0.13691 0.0
C39 C 0.29412 0.17654 0.12893 0.0
C40 C 0.33207 0.24128 0.16984 0.0
C41 C 0.26645 0.17007 0.15398 0.0
C42 C 0.30375 0.23372 0.19418 0.0
N43 N 0.27181 0.1985 0.18583 0.0
C44 C 0.332 0.05266 0.07738 0.0
C45 C 0.31483 0.11419 0.02648 0.0
C46 C 0.29912 0.01144 0.07608 0.0
N47 N 0.33863 0.10505 0.05351 0.0
C48 C 0.28222 0.07282 0.02372 0.0
C49 C 0.27322 0.02288 0.04951 0.0
H50 H 0.35025 0.04776 0.0994 0.0
H51 H 0.31937 0.15715 0.00828 0.0
C52 C 0.33102 0.43595 0.06915 0.0
N53 N 0.32312 0.37346 0.08587 0.0
C54 C 0.30418 0.48929 0.06659 0.0
C55 C 0.26095 0.41027 0.09619 0.0
C56 C 0.28879 0.35913 0.09864 0.0
C57 C 0.26892 0.4761 0.0804 0.0
H58 H 0.35819 0.44407 0.05785 0.0
H59 H 0.2826 0.30832 0.11035 0.0
O60 O 0.42792 0.18538 0.07697 0.0
O61 O 0.41027 0.3413 0.10027 0.0
O62 O 0.36833 0.27565 0.03817 0.0
O63 O 0.35511 0.21788 0.11279 0.0
H64 H 0.4831 0.24246 0.11295 0.0
H65 H 0.45511 0.08516 0.03565 0.0
H66 H 0.54926 0.20519 0.10835 0.0
H67 H 0.52183 0.05103 0.03218 0.0
H68 H 0.35882 0.50341 0.17425 0.0
H69 H 0.44624 0.45795 0.07884 0.0
H70 H 0.36568 0.37923 0.15159 0.0
H71 H 0.43765 0.58092 0.10238 0.0
H72 H 0.54009 0.41585 0.02849 0.0
H73 H 0.43875 0.50391 0.98569 0.0
H74 H 0.41415 0.14074 0.23661 0.0
H75 H 0.46161 0.35281 0.22182 0.0
H76 H 0.32799 0.33638 0.9895 0.0
H77 H 0.41437 0.18114 0.00952 0.0
H78 H 0.33319 0.30872 0.92714 0.0
H79 H 0.41818 0.15626 0.94693 0.0
H80 H 0.28897 0.1566 0.1033 0.0
H81 H 0.35724 0.26939 0.17675 0.0
H82 H 0.24058 0.14301 0.14796 0.0
H83 H 0.30718 0.25592 0.21972 0.0
H84 H 0.29324 0.97313 0.09642 0.0
H85 H 0.26304 0.08309 1.00279 0.0
H86 H 0.31069 0.53987 0.05395 0.0
H87 H 0.23375 0.39916 0.10704 0.0
Li88 Li 0.09039 0.71922 0.0575 0.0
Li89 Li 0.10175 0.76505 0.11802 0.0
Li90 Li 0.13789 0.82286 0.06673 0.0
Li91 Li 0.14893 0.70153 0.08548 0.0
C92 C 0.04511 0.84162 0.07452 0.0
N93 N 0.97124 0.88143 0.07005 0.0
C94 C 0.01856 0.80793 0.09526 0.0
C95 C 0.03422 0.89586 0.05166 0.0
C96 C 0.9813 0.82873 0.09257 0.0
C97 C 0.9967 0.91513 0.04973 0.0
C98 C 0.10337 0.59845 0.11326 0.0
C99 C 0.13165 0.51522 0.15323 0.0
N100 N 0.11143 0.46047 0.13933 0.0
C101 C 0.08263 0.5414 0.0996 0.0
C102 C 0.12782 0.58533 0.14052 0.0
C103 C 0.08717 0.47205 0.11305 0.0
C104 C 0.07479 0.60607 0.01158 0.0
N105 N 0.057 0.65822 0.03006 0.0
C106 C 0.9991 0.59467 0.02316 0.0
C107 C 0.01963 0.65391 0.03555 0.0
C108 C 0.01706 0.53829 0.00525 0.0
C109 C 0.05541 0.54599 0.99887 0.0
H110 H 0.10469 0.60813 0.00882 0.0
H111 H 0.00594 0.69403 0.05119 0.0
C112 C 0.09132 0.82897 0.18457 0.0
N113 N 0.08206 0.7728 0.16376 0.0
C114 C 0.08599 0.82366 0.22017 0.0
C115 C 0.0598 0.70481 0.21192 0.0
C116 C 0.0652 0.71273 0.17656 0.0
C117 C 0.0713 0.75975 0.23432 0.0
H118 H 0.10545 0.87541 0.17389 0.0
H119 H 0.05787 0.66894 0.15954 0.0
C120 C 0.13884 0.74789 0.00375 0.0
N121 N 0.13373 0.77683 0.93423 0.0
C122 C 0.16175 0.71153 0.98044 0.0
C123 C 0.11325 0.79876 0.99175 0.0
C124 C 0.15878 0.727 0.94538 0.0
C125 C 0.11111 0.81268 0.95649 0.0
C126 C 0.18235 0.79554 0.13688 0.0
C127 C 0.21553 0.83156 0.12905 0.0
C128 C 0.17759 0.76626 0.16976 0.0
C129 C 0.24314 0.83792 0.15415 0.0
C130 C 0.20585 0.77374 0.19416 0.0
N131 N 0.23776 0.80917 0.18594 0.0
C132 C 0.17765 0.95548 0.07739 0.0
C133 C 0.1948 0.89398 0.02647 0.0
C134 C 0.21053 0.99669 0.07609 0.0
N135 N 0.17101 0.90311 0.0535 0.0
C136 C 0.22742 0.93535 0.02371 0.0
C137 C 0.23642 0.98526 0.04951 0.0
H138 H 0.15941 0.96035 0.0994 0.0
H139 H 0.19026 0.85104 0.00826 0.0
C140 C 0.17862 0.57171 0.06935 0.0
N141 N 0.18662 0.63473 0.08557 0.0
C142 C 0.20551 0.51843 0.0669 0.0
C143 C 0.249 0.59865 0.09543 0.0
C144 C 0.22112 0.64974 0.09777 0.0
C145 C 0.24091 0.53222 0.08027 0.0
H146 H 0.15134 0.56309 0.05837 0.0
H147 H 0.22739 0.70107 0.10892 0.0
O148 O 0.08174 0.82272 0.077 0.0
O149 O 0.09948 0.66673 0.10016 0.0
O150 O 0.14128 0.73261 0.03807 0.0
O151 O 0.15462 0.79009 0.11272 0.0
H152 H 0.02655 0.76563 0.11296 0.0
H153 H 0.05456 0.92292 0.03566 0.0
H154 H 0.96039 0.80288 0.10834 0.0
H155 H 0.98783 0.95699 0.03214 0.0
H156 H 0.15078 0.50431 0.17407 0.0
H157 H 0.06302 0.55043 0.07901 0.0
H158 H 0.14422 0.62846 0.15131 0.0
H159 H 0.07134 0.42745 0.10263 0.0
H160 H 0.96953 0.59241 0.02836 0.0
H161 H 0.07092 0.50408 0.98581 0.0
H162 H 0.09559 0.86705 0.2366 0.0
H163 H 0.048 0.65512 0.22175 0.0
H164 H 0.18158 0.67175 0.98941 0.0
H165 H 0.09526 0.82714 0.00941 0.0
H166 H 0.17636 0.69935 0.92704 0.0
H167 H 0.09144 0.85195 0.94681 0.0
H168 H 0.22069 0.85179 0.10348 0.0
H169 H 0.15242 0.73803 0.17658 0.0
H170 H 0.26899 0.86516 0.14823 0.0
H171 H 0.20239 0.75132 0.21965 0.0
H172 H 0.21642 0.03498 0.09644 0.0
H173 H 0.24659 0.92509 1.00277 0.0
H174 H 0.19891 0.46741 0.05471 0.0
H175 H 0.27632 0.61026 0.10589 0.0
Li176 Li 0.36071 0.20155 0.42105 0.0
Li177 Li 0.37177 0.32289 0.43978 0.0
Li178 Li 0.4079 0.26506 0.3885 0.0
Li179 Li 0.41925 0.21926 0.44901 0.0
C180 C 0.3273 0.29551 0.36963 0.0
N181 N 0.2719 0.30912 0.32057 0.0
C182 C 0.29412 0.33156 0.37745 0.0
C183 C 0.33206 0.2662 0.33677 0.0
C184 C 0.26651 0.3379 0.35235 0.0
C185 C 0.30381 0.27367 0.31235 0.0
C186 C 0.37082 0.24794 0.50277 0.0
C187 C 0.39855 0.31272 0.55004 0.0
N188 N 0.37593 0.27685 0.57229 0.0
C189 C 0.34792 0.21156 0.52608 0.0
C190 C 0.3964 0.29881 0.51477 0.0
C191 C 0.35089 0.22702 0.56114 0.0
C192 C 0.33103 0.07167 0.43715 0.0
N193 N 0.32302 0.13474 0.42098 0.0
C194 C 0.26062 0.09873 0.41117 0.0
C195 C 0.28851 0.14982 0.40883 0.0
C196 C 0.26873 0.03224 0.42626 0.0
C197 C 0.30414 0.0184 0.43959 0.0
H198 H 0.35832 0.06301 0.44809 0.0
H199 H 0.28223 0.2012 0.39775 0.0
C200 C 0.332 0.4555 0.42913 0.0
N201 N 0.33864 0.40313 0.45301 0.0
C202 C 0.29912 0.49671 0.43043 0.0
C203 C 0.28223 0.43536 0.4828 0.0
C204 C 0.31484 0.394 0.48005 0.0
C205 C 0.27323 0.48528 0.457 0.0
H206 H 0.35025 0.46037 0.40711 0.0
H207 H 0.31939 0.35105 0.49825 0.0
C208 C 0.40629 0.09846 0.39326 0.0
N209 N 0.39826 0.96048 0.36718 0.0
C210 C 0.42706 0.04144 0.4069 0.0
C211 C 0.38183 0.08532 0.36601 0.0
C212 C 0.42254 0.97209 0.39345 0.0
C213 C 0.37801 0.01521 0.3533 0.0
C214 C 0.46455 0.34163 0.43199 0.0
C215 C 0.49109 0.30791 0.41125 0.0
C216 C 0.47544 0.39588 0.45484 0.0
C217 C 0.52835 0.32871 0.41393 0.0
C218 C 0.51296 0.41515 0.45676 0.0
N219 N 0.53842 0.38142 0.43645 0.0
C220 C 0.41831 0.32896 0.32194 0.0
C221 C 0.44444 0.21273 0.32996 0.0
C222 C 0.42365 0.32366 0.28634 0.0
N223 N 0.42758 0.27279 0.34276 0.0
C224 C 0.44984 0.20481 0.29459 0.0
C225 C 0.43833 0.25975 0.2722 0.0
H226 H 0.40418 0.37541 0.33262 0.0
H227 H 0.45177 0.16894 0.34698 0.0
C228 C 0.43477 0.10603 0.49486 0.0
N229 N 0.45261 0.15823 0.47646 0.0
C230 C 0.45411 0.04588 0.50756 0.0
C231 C 0.51049 0.09464 0.48342 0.0
C232 C 0.48999 0.15393 0.47103 0.0
C233 C 0.49248 0.0382 0.50125 0.0
H234 H 0.40487 0.1081 0.49757 0.0
H235 H 0.50372 0.19409 0.45544 0.0
O236 O 0.35502 0.29009 0.3938 0.0
O237 O 0.36837 0.23266 0.46845 0.0
O238 O 0.41016 0.16675 0.40636 0.0
O239 O 0.42791 0.32275 0.42951 0.0
H240 H 0.28896 0.35182 0.40302 0.0
H241 H 0.35723 0.23797 0.32995 0.0
H242 H 0.24066 0.36516 0.35825 0.0
H243 H 0.30727 0.25122 0.28687 0.0
H244 H 0.41822 0.35199 0.55971 0.0
H245 H 0.32809 0.17177 0.51711 0.0
H246 H 0.41439 0.3272 0.49711 0.0
H247 H 0.33331 0.19934 0.57948 0.0
H248 H 0.23329 0.11038 0.40075 0.0
H249 H 0.31075 0.96733 0.45173 0.0
H250 H 0.29323 0.53499 0.41008 0.0
H251 H 0.26305 0.4251 0.50374 0.0
H252 H 0.44668 0.05049 0.42748 0.0
H253 H 0.3654 0.12843 0.35524 0.0
H254 H 0.43839 0.92751 0.40386 0.0
H255 H 0.35887 0.00428 0.33246 0.0
H256 H 0.48309 0.26561 0.39356 0.0
H257 H 0.45511 0.42295 0.47083 0.0
H258 H 0.54926 0.30284 0.39817 0.0
H259 H 0.52183 0.45703 0.47433 0.0
H260 H 0.41404 0.36705 0.26991 0.0
H261 H 0.46165 0.15513 0.28477 0.0
H262 H 0.43857 1.00393 0.52056 0.0
H263 H 0.54006 0.0924 0.47827 0.0
Li264 Li 0.13789 0.68529 0.43975 0.0
Li265 Li 0.14887 0.80653 0.42085 0.0
Li266 Li 0.0904 0.78895 0.44896 0.0
Li267 Li 0.10167 0.7429 0.38845 0.0
C268 C 0.1389 0.76033 0.50266 0.0
N269 N 0.13381 0.7313 0.57217 0.0
C270 C 0.16183 0.79662 0.52596 0.0
C271 C 0.11329 0.70948 0.51465 0.0
C272 C 0.15887 0.78111 0.56102 0.0
C273 C 0.11116 0.69552 0.54991 0.0
C274 C 0.1823 0.71227 0.36961 0.0
C275 C 0.2059 0.73368 0.31233 0.0
N276 N 0.23784 0.69849 0.32069 0.0
C277 C 0.21553 0.67655 0.37759 0.0
C278 C 0.17758 0.74124 0.33666 0.0
C279 C 0.2432 0.67008 0.35255 0.0
C280 C 0.17766 0.55266 0.42913 0.0
N281 N 0.17102 0.60506 0.453 0.0
C282 C 0.22743 0.57283 0.48279 0.0
C283 C 0.19482 0.6142 0.48003 0.0
C284 C 0.23643 0.5229 0.457 0.0
C285 C 0.21053 0.51145 0.43043 0.0
H286 H 0.1594 0.54777 0.40712 0.0
H287 H 0.19028 0.65715 0.49823 0.0
C288 C 0.17863 0.93591 0.43738 0.0
N289 N 0.18652 0.87347 0.42062 0.0
C290 C 0.20547 0.98926 0.43996 0.0
C291 C 0.24868 0.91035 0.41026 0.0
C292 C 0.22084 0.8592 0.40779 0.0
C293 C 0.24072 0.97612 0.42611 0.0
H294 H 0.15147 0.94398 0.44872 0.0
H295 H 0.22702 0.80845 0.39604 0.0
C296 C 0.04509 0.66646 0.43201 0.0
N297 N 0.97123 0.6266 0.43645 0.0
C298 C 0.01855 0.70015 0.41126 0.0
C299 C 0.0342 0.61221 0.45486 0.0
C300 C 0.9813 0.67933 0.41394 0.0
C301 C 0.99668 0.5929 0.45677 0.0
C302 C 0.10345 0.90959 0.39321 0.0
C303 C 0.08298 0.96685 0.40702 0.0
C304 C 0.12778 0.92251 0.36583 0.0
C305 C 0.08768 0.03619 0.39362 0.0
C306 C 0.13179 0.99263 0.35319 0.0
N307 N 0.11183 0.04758 0.36724 0.0
C308 C 0.07478 0.90199 0.49499 0.0
C309 C 0.01966 0.85433 0.47086 0.0
C310 C 0.0554 0.96206 0.50771 0.0
N311 N 0.05701 0.84994 0.47643 0.0
C312 C 0.99912 0.91356 0.48327 0.0
C313 C 0.01707 0.96986 0.50126 0.0
H314 H 0.10467 0.89988 0.49782 0.0
H315 H 0.00598 0.81431 0.45516 0.0
C316 C 0.0912 0.67885 0.32193 0.0
N317 N 0.08196 0.73506 0.34273 0.0
C318 C 0.0859 0.68415 0.28632 0.0
C319 C 0.05979 0.80308 0.29454 0.0
C320 C 0.06516 0.79516 0.32991 0.0
C321 C 0.07128 0.7481 0.27216 0.0
H322 H 0.10529 0.63238 0.33262 0.0
H323 H 0.05786 0.83899 0.34692 0.0
O324 O 0.14133 0.77566 0.46834 0.0
O325 O 0.15453 0.71787 0.39371 0.0
O326 O 0.08173 0.68537 0.42955 0.0
O327 O 0.09937 0.84129 0.40623 0.0
H328 H 0.18167 0.83639 0.517 0.0
H329 H 0.09528 0.68115 0.49699 0.0
H330 H 0.17647 0.80872 0.57937 0.0
H331 H 0.09148 0.65626 0.55958 0.0
H332 H 0.20247 0.75587 0.28679 0.0
H333 H 0.22067 0.65663 0.40322 0.0
H334 H 0.1524 0.76934 0.32975 0.0
H335 H 0.26908 0.64304 0.35857 0.0
H336 H 0.24661 0.58311 0.50372 0.0
H337 H 0.21641 0.47315 0.41009 0.0
H338 H 0.19897 0.0398 0.45264 0.0
H339 H 0.27586 0.89929 0.39937 0.0
H340 H 0.02655 0.74246 0.39357 0.0
H341 H 0.05453 0.58515 0.47086 0.0
H342 H 0.96039 0.70518 0.39816 0.0
H343 H 0.98782 0.55101 0.47434 0.0
H344 H 0.06345 0.95797 0.42769 0.0
H345 H 0.14395 0.8792 0.35491 0.0
H346 H 0.07206 0.08094 0.40415 0.0
H347 H 0.15084 1.00339 0.33225 0.0
H348 H 0.0709 1.0039 0.52083 0.0
H349 H 0.96957 0.91588 0.47801 0.0
H350 H 0.09548 0.64074 0.2699 0.0
H351 H 0.04803 0.8528 0.2847 0.0
Li352 Li 0.5909 0.71658 0.94625 0.0
Li353 Li 0.64666 0.69804 0.91525 0.0
Li354 Li 0.64049 0.8147 0.93719 0.0
Li355 Li 0.60171 0.77051 0.88615 0.0
C356 C 0.64095 0.73995 0.99852 0.0
N357 N 0.63735 0.77392 0.06767 0.0
C358 C 0.66099 0.69942 0.02255 0.0
C359 C 0.61927 0.79807 0.00967 0.0
C360 C 0.65875 0.71737 0.05739 0.0
C361 C 0.61776 0.81428 0.04474 0.0
C362 C 0.59551 0.59822 0.89395 0.0
C363 C 0.58602 0.5004 0.85395 0.0
N364 N 0.5917 0.45224 0.87982 0.0
C365 C 0.60162 0.54772 0.92007 0.0
C366 C 0.58787 0.57439 0.86056 0.0
C367 C 0.59941 0.47418 0.91245 0.0
C368 C 0.52506 0.63312 0.95269 0.0
N369 N 0.5547 0.65672 0.97143 0.0
C370 C 0.54292 0.56479 0.01381 0.0
C371 C 0.56339 0.62441 1.0019 0.0
C372 C 0.51328 0.53683 0.99416 0.0
C373 C 0.504 0.57344 0.96356 0.0
H374 H 0.51935 0.65739 0.92793 0.0
H375 H 0.58751 0.64173 0.01617 0.0
C376 C 0.70943 0.62925 0.93436 0.0
N377 N 0.68356 0.62948 0.90894 0.0
C378 C 0.73819 0.57971 0.93363 0.0
C379 C 0.71411 0.53379 0.8796 0.0
C380 C 0.6854 0.58375 0.88165 0.0
C381 C 0.74033 0.53133 0.90614 0.0
H382 H 0.70764 0.66753 0.95523 0.0
H383 H 0.66485 0.58624 0.86146 0.0
C384 C 0.57276 0.89161 0.92641 0.0
N385 N 0.55221 0.03453 0.91967 0.0
C386 C 0.58556 0.93221 0.89855 0.0
C387 C 0.54954 0.92358 0.95088 0.0
C388 C 0.57483 0.0044 0.89557 0.0
C389 C 0.53947 0.99596 0.94703 0.0
C390 C 0.68509 0.77033 0.86998 0.0
C391 C 0.72109 0.79023 0.87971 0.0
C392 C 0.6798 0.73033 0.83986 0.0
C393 C 0.75122 0.7693 0.85932 0.0
C394 C 0.71064 0.71058 0.82011 0.0
N395 N 0.74543 0.73022 0.8302 0.0
C396 C 0.70733 0.86409 0.96727 0.0
C397 C 0.67263 0.96135 0.94452 0.0
C398 C 0.7388 0.90829 0.97113 0.0
N399 N 0.67525 0.89029 0.95325 0.0
C400 C 0.70335 0.00784 0.94851 0.0
C401 C 0.73751 0.98104 0.96097 0.0
H402 H 0.70951 0.8072 0.97313 0.0
H403 H 0.64756 0.98147 0.93266 0.0
C404 C 0.55201 0.74541 0.83065 0.0
N405 N 0.58149 0.78596 0.84117 0.0
C406 C 0.54555 0.73436 0.79548 0.0
C407 C 0.59782 0.81216 0.78295 0.0
C408 C 0.60314 0.822 0.81818 0.0
C409 C 0.56971 0.7656 0.77142 0.0
H410 H 0.53576 0.71606 0.84945 0.0
H411 H 0.62689 0.85259 0.82709 0.0
O412 O 0.64325 0.72285 0.96434 0.0
O413 O 0.59686 0.67055 0.901 0.0
O414 O 0.5829 0.82088 0.92986 0.0
O415 O 0.65522 0.78927 0.88994 0.0
H416 H 0.67797 0.65433 0.01436 0.0
H417 H 0.60391 0.83066 0.99161 0.0
H418 H 0.67404 0.68632 0.07626 0.0
H419 H 0.60105 0.85906 0.0537 0.0
H420 H 0.58016 0.48128 0.82822 0.0
H421 H 0.60836 0.56509 0.94589 0.0
H422 H 0.58385 0.61244 0.83984 0.0
H423 H 0.60394 0.43454 0.93244 0.0
H424 H 0.55092 0.53994 0.0379 0.0
H425 H 0.48183 0.55413 0.94711 0.0
H426 H 0.7585 0.579 0.95423 0.0
H427 H 0.71544 0.49665 0.8581 0.0
H428 H 0.60409 0.90866 0.87979 0.0
H429 H 0.53945 0.89276 0.97263 0.0
H430 H 0.58467 0.03658 0.8742 0.0
H431 H 0.52151 0.02147 0.96576 0.0
H432 H 0.72582 0.82144 0.90272 0.0
H433 H 0.6523 0.7127 0.83231 0.0
H434 H 0.77923 0.78416 0.86666 0.0
H435 H 0.70692 0.67904 0.79694 0.0
H436 H 0.7643 0.88503 0.98101 0.0
H437 H 0.70096 0.06328 0.93996 0.0
H438 H 0.52382 0.69765 0.7873 0.0
H439 H 0.61708 0.83663 0.76494 0.0
Li440 Li 0.91875 0.29168 0.94622 0.0
Li441 Li 0.86298 0.31016 0.91527 0.0
Li442 Li 0.86913 0.19347 0.93723 0.0
Li443 Li 0.90792 0.2377 0.8862 0.0
C444 C 0.8687 0.26821 0.99854 0.0
N445 N 0.87227 0.23422 0.06769 0.0
C446 C 0.84864 0.30873 0.02256 0.0
C447 C 0.89038 0.2101 0.0097 0.0
C448 C 0.85086 0.29077 0.0574 0.0
C449 C 0.89188 0.19388 0.04476 0.0
C450 C 0.91413 0.40997 0.89394 0.0
C451 C 0.92364 0.50778 0.85395 0.0
N452 N 0.91796 0.55594 0.87982 0.0
C453 C 0.90802 0.46045 0.92007 0.0
C454 C 0.92178 0.43379 0.86056 0.0
C455 C 0.91025 0.53399 0.91244 0.0
C456 C 0.9846 0.375 0.95271 0.0
N457 N 0.95493 0.35147 0.97143 0.0
C458 C 0.9667 0.44341 0.0138 0.0
C459 C 0.94623 0.38381 1.00189 0.0
C460 C 0.99637 0.47131 0.99417 0.0
C461 C 0.00567 0.43466 0.96358 0.0
H462 H 0.99033 0.35069 0.92796 0.0
H463 H 0.92209 0.36653 0.01614 0.0
C464 C 0.8002 0.37889 0.93437 0.0
N465 N 0.82607 0.37867 0.90896 0.0
C466 C 0.77143 0.42841 0.93363 0.0
C467 C 0.79551 0.47433 0.87961 0.0
C468 C 0.82423 0.42439 0.88166 0.0
C469 C 0.76929 0.47678 0.90614 0.0
H470 H 0.802 0.34061 0.95525 0.0
H471 H 0.84479 0.42189 0.86148 0.0
C472 C 0.93652 0.11659 0.92621 0.0
N473 N 0.95511 0.97269 0.91963 0.0
C474 C 0.92249 0.07615 0.89883 0.0
C475 C 0.96012 0.08411 0.9502 0.0
C476 C 0.93212 1.00337 0.89598 0.0
C477 C 0.96924 0.01125 0.9464 0.0
C478 C 0.82456 0.23781 0.87 0.0
C479 C 0.78856 0.21788 0.87972 0.0
C480 C 0.82985 0.27779 0.83987 0.0
C481 C 0.75843 0.23878 0.85932 0.0
C482 C 0.79902 0.2975 0.82011 0.0
N483 N 0.76423 0.27785 0.8302 0.0
C484 C 0.80226 0.14407 0.96728 0.0
C485 C 0.83693 0.04669 0.94465 0.0
C486 C 0.77076 0.0999 0.97113 0.0
N487 N 0.83435 0.11781 0.9533 0.0
C488 C 0.80619 1.00028 0.94858 0.0
C489 C 0.77202 0.02714 0.96098 0.0
H490 H 0.80009 0.20096 0.97313 0.0
H491 H 0.862 0.02637 0.93291 0.0
C492 C 0.95763 0.2627 0.83067 0.0
N493 N 0.92815 0.22216 0.8412 0.0
C494 C 0.9641 0.27373 0.79549 0.0
C495 C 0.91183 0.19594 0.78297 0.0
C496 C 0.90651 0.1861 0.81821 0.0
C497 C 0.93994 0.24248 0.77143 0.0
H498 H 0.97388 0.29206 0.84946 0.0
H499 H 0.88276 0.15554 0.82712 0.0
O500 O 0.8664 0.28532 0.96435 0.0
O501 O 0.91276 0.33765 0.90099 0.0
O502 O 0.92673 0.18739 0.92995 0.0
O503 O 0.85442 0.21895 0.88998 0.0
H504 H 0.83165 0.35381 0.01436 0.0
H505 H 0.90575 0.1775 0.99164 0.0
H506 H 0.83556 0.32179 0.07626 0.0
H507 H 0.90858 0.14909 0.05373 0.0
H508 H 0.92951 0.5269 0.82822 0.0
H509 H 0.90127 0.44308 0.94588 0.0
H510 H 0.9258 0.39573 0.83984 0.0
H511 H 0.90571 0.57363 0.93244 0.0
H512 H 0.95869 0.46831 0.03788 0.0
H513 H 0.02787 0.45392 0.94715 0.0
H514 H 0.75111 0.42911 0.95424 0.0
H515 H 0.79419 0.51145 0.8581 0.0
H516 H 0.9036 0.10015 0.88049 0.0
H517 H 0.97112 0.11483 0.97161 0.0
H518 H 0.92107 0.97115 0.87514 0.0
H519 H 0.98749 0.98532 0.96476 0.0
H520 H 0.78383 0.18667 0.90273 0.0
H521 H 0.85735 0.29543 0.83233 0.0
H522 H 0.73042 0.2239 0.86666 0.0
H523 H 0.80273 0.32904 0.79694 0.0
H524 H 0.74526 0.1232 0.98098 0.0
H525 H 0.80858 0.94482 0.94006 0.0
H526 H 0.98583 0.31043 0.78732 0.0
H527 H 0.89257 0.17146 0.76497 0.0
Li528 Li 0.6017 0.73758 0.62035 0.0
Li529 Li 0.64049 0.69338 0.56931 0.0
Li530 Li 0.64665 0.81006 0.59125 0.0
Li531 Li 0.59088 0.79154 0.56026 0.0
C532 C 0.68508 0.73776 0.63652 0.0
N533 N 0.74542 0.77785 0.67631 0.0
C534 C 0.72108 0.71784 0.6268 0.0
C535 C 0.67979 0.77776 0.66664 0.0
C536 C 0.75122 0.73877 0.64719 0.0
C537 C 0.71063 0.7975 0.68639 0.0
C538 C 0.57276 0.61648 0.58009 0.0
C539 C 0.53946 0.51212 0.55949 0.0
N540 N 0.55221 0.47355 0.58684 0.0
C541 C 0.58556 0.57588 0.60795 0.0
C542 C 0.54952 0.58451 0.55563 0.0
C543 C 0.57483 0.50369 0.61094 0.0
C544 C 0.55201 0.76266 0.67585 0.0
N545 N 0.58149 0.72212 0.66534 0.0
C546 C 0.59782 0.69592 0.72355 0.0
C547 C 0.60314 0.68608 0.68832 0.0
C548 C 0.56971 0.74247 0.73508 0.0
C549 C 0.54554 0.7737 0.71103 0.0
H550 H 0.53576 0.792 0.65705 0.0
H551 H 0.62689 0.65551 0.67941 0.0
C552 C 0.70734 0.64401 0.53924 0.0
N553 N 0.67526 0.61779 0.55325 0.0
C554 C 0.73883 0.59983 0.53539 0.0
C555 C 0.70339 0.50026 0.55801 0.0
C556 C 0.67266 0.54672 0.56198 0.0
C557 C 0.73756 0.52709 0.54556 0.0
H558 H 0.70951 0.70089 0.53337 0.0
H559 H 0.64758 0.52658 0.57383 0.0
C560 C 0.59551 0.90987 0.61257 0.0
N561 N 0.59169 0.05584 0.62672 0.0
C562 C 0.60161 0.96038 0.58645 0.0
C563 C 0.58788 0.93366 0.64596 0.0
C564 C 0.5994 0.03392 0.59409 0.0
C565 C 0.58602 0.00765 0.65259 0.0
C566 C 0.64094 0.76816 0.50798 0.0
C567 C 0.661 0.80868 0.48396 0.0
C568 C 0.61926 0.71005 0.49682 0.0
C569 C 0.65878 0.79074 0.44912 0.0
C570 C 0.61776 0.69385 0.46175 0.0
N571 N 0.63737 0.7342 0.43882 0.0
C572 C 0.70944 0.87883 0.57215 0.0
C573 C 0.68541 0.92435 0.62485 0.0
C574 C 0.7382 0.92837 0.57288 0.0
N575 N 0.68357 0.87861 0.59756 0.0
C576 C 0.71413 0.97431 0.6269 0.0
C577 C 0.74035 0.97676 0.60036 0.0
H578 H 0.70764 0.84055 0.55128 0.0
H579 H 0.66486 0.92186 0.64504 0.0
C580 C 0.52497 0.87492 0.5538 0.0
N581 N 0.55466 0.85143 0.53509 0.0
C582 C 0.50386 0.93453 0.54291 0.0
C583 C 0.54286 0.94337 0.49272 0.0
C584 C 0.56336 0.88381 0.50464 0.0
C585 C 0.51316 0.97121 0.51233 0.0
H586 H 0.51924 0.85061 0.57855 0.0
H587 H 0.58753 0.8666 0.4904 0.0
O588 O 0.65522 0.71882 0.61656 0.0
O589 O 0.58289 0.68721 0.57664 0.0
O590 O 0.59685 0.83754 0.6055 0.0
O591 O 0.64324 0.78525 0.54217 0.0
H592 H 0.72581 0.68662 0.60379 0.0
H593 H 0.6523 0.7954 0.67419 0.0
H594 H 0.77923 0.72389 0.63985 0.0
H595 H 0.70692 0.82905 0.70956 0.0
H596 H 0.52149 0.48661 0.54076 0.0
H597 H 0.6041 0.59943 0.62671 0.0
H598 H 0.53943 0.61532 0.53388 0.0
H599 H 0.58468 0.47151 0.6323 0.0
H600 H 0.61708 0.67146 0.74156 0.0
H601 H 0.52381 0.8104 0.7192 0.0
H602 H 0.76433 0.62311 0.52553 0.0
H603 H 0.70101 0.44482 0.56655 0.0
H604 H 0.60835 0.94303 0.56063 0.0
H605 H 0.58386 0.8956 0.66667 0.0
H606 H 0.60393 0.07357 0.5741 0.0
H607 H 0.58016 0.02676 0.67832 0.0
H608 H 0.67799 0.85376 0.49215 0.0
H609 H 0.60389 0.67746 0.51487 0.0
H610 H 0.67407 0.82178 0.43026 0.0
H611 H 0.60105 0.64907 0.45278 0.0
H612 H 0.75852 0.92907 0.55227 0.0
H613 H 0.71545 0.01144 0.6484 0.0
H614 H 0.48164 0.95374 0.55932 0.0
H615 H 0.55088 0.9683 0.46865 0.0
Li616 Li 0.86915 0.31472 0.56931 0.0
Li617 Li 0.90794 0.27052 0.62036 0.0
Li618 Li 0.91876 0.2166 0.56025 0.0
Li619 Li 0.863 0.19805 0.59125 0.0
C620 C 0.93689 0.39163 0.58009 0.0
N621 N 0.95744 0.53455 0.58683 0.0
C622 C 0.9241 0.43223 0.60796 0.0
C623 C 0.96012 0.4236 0.55563 0.0
C624 C 0.93482 0.50442 0.61094 0.0
C625 C 0.97019 0.49599 0.55948 0.0
C626 C 0.82457 0.27032 0.63652 0.0
C627 C 0.79902 0.21058 0.68639 0.0
N628 N 0.76423 0.23021 0.6763 0.0
C629 C 0.78856 0.29021 0.62679 0.0
C630 C 0.82985 0.23033 0.66665 0.0
C631 C 0.75843 0.26928 0.64718 0.0
C632 C 0.80231 0.36409 0.53924 0.0
N633 N 0.83439 0.39031 0.55325 0.0
C634 C 0.80626 0.50784 0.55801 0.0
C635 C 0.83699 0.46138 0.56199 0.0
C636 C 0.77209 0.48101 0.54557 0.0
C637 C 0.77082 0.40827 0.53539 0.0
H638 H 0.80014 0.30721 0.53337 0.0
H639 H 0.86206 0.48152 0.57384 0.0
C640 C 0.95764 0.24541 0.67586 0.0
N641 N 0.92816 0.28596 0.66534 0.0
C642 C 0.9641 0.23436 0.71103 0.0
C643 C 0.91183 0.31217 0.72356 0.0
C644 C 0.90651 0.32201 0.68833 0.0
C645 C 0.93994 0.2656 0.73509 0.0
H646 H 0.97388 0.21606 0.65706 0.0
H647 H 0.88277 0.3526 0.67941 0.0
C648 C 0.8687 0.23997 0.50798 0.0
N649 N 0.8723 0.27391 0.43882 0.0
C650 C 0.84867 0.19941 0.48396 0.0
C651 C 0.89037 0.2981 0.49682 0.0
C652 C 0.85091 0.21734 0.44911 0.0
C653 C 0.89189 0.31429 0.46176 0.0
C654 C 0.91414 0.09822 0.61254 0.0
C655 C 0.90802 0.04775 0.58641 0.0
C656 C 0.92179 0.07438 0.64592 0.0
C657 C 0.91023 0.97419 0.59403 0.0
C658 C 0.92364 1.00038 0.65253 0.0
N659 N 0.91795 0.95223 0.62665 0.0
C660 C 0.98459 0.13313 0.55382 0.0
C661 C 0.94627 0.12443 0.5046 0.0
C662 C 0.00565 0.07344 0.54295 0.0
N663 N 0.95496 0.15674 0.53507 0.0
C664 C 0.96673 0.06481 0.49269 0.0
C665 C 0.99638 0.03684 0.51235 0.0
H666 H 0.99031 0.15739 0.57858 0.0
H667 H 0.92216 0.14176 0.49033 0.0
C668 C 0.80023 0.12924 0.57214 0.0
N669 N 0.82609 0.12948 0.59755 0.0
C670 C 0.77146 0.07969 0.57287 0.0
C671 C 0.79554 0.03378 0.6269 0.0
C672 C 0.82425 0.08375 0.62485 0.0
C673 C 0.76932 0.03131 0.60036 0.0
H674 H 0.80202 0.16751 0.55127 0.0
H675 H 0.8448 0.08624 0.64504 0.0
O676 O 0.92676 0.3209 0.57664 0.0
O677 O 0.85443 0.28927 0.61657 0.0
O678 O 0.8664 0.22286 0.54217 0.0
O679 O 0.91279 0.17056 0.6055 0.0
H680 H 0.90556 0.40868 0.62671 0.0
H681 H 0.97022 0.39278 0.53388 0.0
H682 H 0.92498 0.5366 0.63231 0.0
H683 H 0.98815 0.52149 0.54076 0.0
H684 H 0.80273 0.17904 0.70956 0.0
H685 H 0.78383 0.32142 0.60378 0.0
H686 H 0.85735 0.21271 0.67419 0.0
H687 H 0.73042 0.28414 0.63984 0.0
H688 H 0.80864 0.56328 0.56656 0.0
H689 H 0.74532 0.38499 0.52552 0.0
H690 H 0.98582 0.19765 0.71921 0.0
H691 H 0.89257 0.33665 0.74157 0.0
H692 H 0.8317 0.15431 0.49215 0.0
H693 H 0.90573 0.33071 0.51488 0.0
H694 H 0.83563 0.18628 0.43025 0.0
H695 H 0.90859 0.35908 0.45279 0.0
H696 H 0.90127 0.06513 0.5606 0.0
H697 H 0.92582 0.11241 0.66665 0.0
H698 H 0.90569 0.93457 0.57403 0.0
H699 H 0.92952 0.98124 0.67825 0.0
H700 H 0.02781 0.05413 0.55941 0.0
H701 H 0.95874 0.03996 0.4686 0.0
H702 H 0.75115 0.07897 0.55226 0.0
H703 H 0.79421 0.99665 0.6484 0.0
loop_
_geom_bond_atom_site_label_1
_geom_bond_atom_site_label_2
_geom_bond_distance
_geom_bond_site_symmetry_2
_ccdc_geom_bond_type
Li0 N17 1.990 . S
Li0 O60 1.956 . S
Li0 O61 1.970 . S
Li0 O62 1.961 . S
Li1 N25 1.990 . S
Li1 O60 1.970 . S
Li1 O61 1.956 . S
Li1 O63 1.961 . S
Li2 N47 1.990 . S
Li2 O60 1.961 . S
Li2 O62 1.956 . S
Li2 O63 1.970 . S
Li3 N53 1.990 . S
Li3 O61 1.961 . S
Li3 O62 1.970 . S
Li3 O63 1.956 . S
C4 C6 1.348 . S
C4 C7 1.356 . S
C4 O60 1.325 . S
N5 C8 1.314 . S
N5 C9 1.279 . S
C6 C4 1.348 . S
C6 C8 1.353 . S
C6 H64 0.929 . S
C7 C4 1.356 . S
C7 C9 1.358 . S
C7 H65 0.930 . S
C8 N5 1.314 . S
C8 C6 1.353 . S
C8 H66 0.930 . S
C9 N5 1.279 . S
C9 C7 1.358 . S
C9 H67 0.930 . S
C10 C13 1.348 . S
C10 C14 1.356 . S
C10 O61 1.325 . S
C11 N12 1.279 . S
C11 C14 1.358 . S
C11 H68 0.930 . S
N12 C11 1.279 . S
N12 C15 1.314 . S
C13 C10 1.348 . S
C13 C15 1.353 . S
C13 H69 0.929 . S
C14 C10 1.356 . S
C14 C11 1.358 . S
C14 H70 0.930 . S
C15 N12 1.314 . S
C15 C13 1.353 . S
C15 H71 0.930 . S
C16 N17 1.314 1_556 S
C16 C21 1.353 . S
C16 H22 0.930 . S
N17 Li0 1.990 . S
N17 C16 1.314 1_554 S
N17 C19 1.279 . S
C18 C19 1.358 . S
C18 C20 1.356 1_554 S
C18 H72 0.930 . S
C19 N17 1.279 . S
C19 C18 1.358 . S
C19 H23 0.930 . S
C20 C18 1.356 1_556 S
C20 C21 1.348 . S
C21 C16 1.353 . S
C21 C20 1.348 . S
C21 H73 0.929 . S
H22 C16 0.930 . S
H23 C19 0.930 . S
C24 N25 1.314 . S
C24 C26 1.353 . S
C24 H30 0.930 . S
N25 Li1 1.990 . S
N25 C24 1.314 . S
N25 C28 1.279 . S
C26 C24 1.353 . S
C26 C29 1.348 . S
C26 H74 0.929 . S
C27 C28 1.358 . S
C27 C29 1.356 . S
C27 H75 0.930 . S
C28 N25 1.279 . S
C28 C27 1.358 . S
C28 H31 0.930 . S
C29 C26 1.348 . S
C29 C27 1.356 . S
H30 C24 0.930 . S
H31 C28 0.930 . S
C32 C34 1.348 . S
C32 C35 1.356 . S
C32 O62 1.325 1_556 S
N33 C36 1.314 . S
N33 C37 1.279 . S
C34 C32 1.348 . S
C34 C36 1.353 . S
C34 H76 0.929 . S
C35 C32 1.356 . S
C35 C37 1.358 . S
C35 H77 0.930 . S
C36 N33 1.314 . S
C36 C34 1.353 . S
C36 H78 0.930 . S
C37 N33 1.279 . S
C37 C35 1.358 . S
C37 H79 0.930 . S
C38 C39 1.348 . S
C38 C40 1.356 . S
C38 O63 1.325 . S
C39 C38 1.348 . S
C39 C41 1.353 . S
C39 H80 0.929 . S
C40 C38 1.356 . S
C40 C42 1.358 . S
C40 H81 0.930 . S
C41 C39 1.353 . S
C41 N43 1.314 . S
C41 H82 0.930 . S
C42 C40 1.358 . S
C42 N43 1.279 . S
C42 H83 0.930 . S
N43 C41 1.314 . S
N43 C42 1.279 . S
C44 C46 1.353 1_545 S
C44 N47 1.314 . S
C44 H50 0.930 . S
C45 N47 1.279 . S
C45 C48 1.358 1_554 S
C45 H51 0.930 1_554 S
C46 C44 1.353 1_565 S
C46 C49 1.348 . S
C46 H84 0.929 . S
N47 Li2 1.990 . S
N47 C44 1.314 . S
N47 C45 1.279 . S
C48 C45 1.358 1_556 S
C48 C49 1.356 1_546 S
C48 H85 0.930 . S
C49 C46 1.348 . S
C49 C48 1.356 1_564 S
H50 C44 0.930 . S
H51 C45 0.930 1_556 S
C52 N53 1.314 . S
C52 C54 1.353 . S
C52 H58 0.930 . S
N53 Li3 1.990 . S
N53 C52 1.314 . S
N53 C56 1.279 . S
C54 C52 1.353 . S
C54 C57 1.348 . S
C54 H86 0.929 . S
C55 C56 1.358 . S
C55 C57 1.356 . S
C55 H87 0.930 . S
C56 N53 1.279 . S
C56 C55 1.358 . S
C56 H59 0.930 . S
C57 C54 1.348 . S
C57 C55 1.356 . S
H58 C52 0.930 . S
H59 C56 0.930 . S
O60 Li0 1.956 . S
O60 Li1 1.970 . S
O60 Li2 1.961 . S
O60 C4 1.325 . S
O61 Li0 1.970 . S
O61 Li1 1.956 . S
O61 Li3 1.961 . S
O61 C10 1.325 . S
O62 Li0 1.961 . S
O62 Li2 1.956 . S
O62 Li3 1.970 . S
O62 C32 1.325 1_554 S
O63 Li1 1.961 . S
O63 Li2 1.970 . S
O63 Li3 1.956 . S
O63 C38 1.325 . S
H64 C6 0.929 . S
H65 C7 0.930 . S
H66 C8 0.930 . S
H67 C9 0.930 . S
H68 C11 0.930 . S
H69 C13 0.929 . S
H70 C14 0.930 . S
H71 C15 0.930 . S
H72 C18 0.930 . S
H73 C21 0.929 . S
H74 C26 0.929 . S
H75 C27 0.930 . S
H76 C34 0.929 . S
H77 C35 0.930 . S
H78 C36 0.930 . S
H79 C37 0.930 . S
H80 C39 0.929 . S
H81 C40 0.930 . S
H82 C41 0.930 . S
H83 C42 0.930 . S
H84 C46 0.929 . S
H85 C48 0.930 . S
H86 C54 0.929 . S
H87 C55 0.930 . S
Li88 N105 1.990 . S
Li88 O148 1.956 . S
Li88 O149 1.970 . S
Li88 O150 1.961 . S
Li89 N113 1.990 . S
Li89 O148 1.970 . S
Li89 O149 1.956 . S
Li89 O151 1.961 . S
Li90 N135 1.990 . S
Li90 O148 1.961 . S
Li90 O150 1.956 . S
Li90 O151 1.970 . S
Li91 N141 1.990 . S
Li91 O149 1.961 . S
Li91 O150 1.970 . S
Li91 O151 1.956 . S
C92 C94 1.348 . S
C92 C95 1.356 . S
C92 O148 1.325 . S
N93 C96 1.314 . S
N93 C97 1.279 . S
C94 C92 1.348 . S
C94 C96 1.353 . S
C94 H152 0.929 . S
C95 C92 1.356 . S
C95 C97 1.358 . S
C95 H153 0.930 . S
C96 N93 1.314 . S
C96 C94 1.353 . S
C96 H154 0.930 . S
C97 N93 1.279 . S
C97 C95 1.358 . S
C97 H155 0.930 . S
C98 C101 1.348 . S
C98 C102 1.356 . S
C98 O149 1.325 . S
C99 N100 1.279 . S
C99 C102 1.358 . S
C99 H156 0.930 . S
N100 C99 1.279 . S
N100 C103 1.314 . S
C101 C98 1.348 . S
C101 C103 1.353 . S
C101 H157 0.929 . S
C102 C98 1.356 . S
C102 C99 1.358 . S
C102 H158 0.930 . S
C103 N100 1.314 . S
C103 C101 1.353 . S
C103 H159 0.930 . S
C104 N105 1.314 1_556 S
C104 C109 1.353 . S
C104 H110 0.930 . S
N105 Li88 1.990 . S
N105 C104 1.314 1_554 S
N105 C107 1.279 . S
C106 C107 1.358 1_655 S
C106 C108 1.356 1_554 S
C106 H160 0.930 . S
C107 N105 1.279 . S
C107 C106 1.358 1_455 S
C107 H111 0.930 . S
C108 C106 1.356 1_556 S
C108 C109 1.348 1_655 S
C109 C104 1.353 . S
C109 C108 1.348 1_455 S
C109 H161 0.929 . S
H110 C104 0.930 . S
H111 C107 0.930 . S
C112 N113 1.314 . S
C112 C114 1.353 . S
C112 H118 0.930 . S
N113 Li89 1.990 . S
N113 C112 1.314 . S
N113 C116 1.279 . S
C114 C112 1.353 . S
C114 C117 1.348 . S
C114 H162 0.929 . S
C115 C116 1.358 . S
C115 C117 1.356 . S
C115 H163 0.930 . S
C116 N113 1.279 . S
C116 C115 1.358 . S
C116 H119 0.930 . S
C117 C114 1.348 . S
C117 C115 1.356 . S
H118 C112 0.930 . S
H119 C116 0.930 . S
C120 C122 1.348 . S
C120 C123 1.356 . S
C120 O150 1.325 1_556 S
N121 C124 1.314 . S
N121 C125 1.279 . S
C122 C120 1.348 . S
C122 C124 1.353 . S
C122 H164 0.929 . S
C123 C120 1.356 . S
C123 C125 1.358 . S
C123 H165 0.930 . S
C124 N121 1.314 . S
C124 C122 1.353 . S
C124 H166 0.930 . S
C125 N121 1.279 . S
C125 C123 1.358 . S
C125 H167 0.930 . S
C126 C127 1.348 . S
C126 C128 1.356 . S
C126 O151 1.325 . S
C127 C126 1.348 . S
C127 C129 1.353 . S
C127 H168 0.929 . S
C128 C126 1.356 . S
C128 C130 1.358 . S
C128 H169 0.930 . S
C129 C127 1.353 . S
C129 N131 1.314 . S
C129 H170 0.930 . S
C130 C128 1.358 . S
C130 N131 1.279 . S
C130 H171 0.930 . S
N131 C129 1.314 . S
N131 C130 1.279 . S
C132 C134 1.353 1_565 S
C132 N135 1.314 . S
C132 H138 0.930 . S
C133 N135 1.279 . S
C133 C136 1.358 1_554 S
C133 H139 0.930 1_554 S
C134 C132 1.353 1_545 S
C134 C137 1.348 . S
C134 H172 0.929 . S
N135 Li90 1.990 . S
N135 C132 1.314 . S
N135 C133 1.279 . S
C136 C133 1.358 1_556 S
C136 C137 1.356 1_566 S
C136 H173 0.930 . S
C137 C134 1.348 . S
C137 C136 1.356 1_544 S
H138 C132 0.930 . S
H139 C133 0.930 1_556 S
C140 N141 1.314 . S
C140 C142 1.353 . S
C140 H146 0.930 . S
N141 Li91 1.990 . S
N141 C140 1.314 . S
N141 C144 1.279 . S
C142 C140 1.353 . S
C142 C145 1.348 . S
C142 H174 0.929 . S
C143 C144 1.358 . S
C143 C145 1.356 . S
C143 H175 0.930 . S
C144 N141 1.279 . S
C144 C143 1.358 . S
C144 H147 0.930 . S
C145 C142 1.348 . S
C145 C143 1.356 . S
H146 C140 0.930 . S
H147 C144 0.930 . S
O148 Li88 1.956 . S
O148 Li89 1.970 . S
O148 Li90 1.961 . S
O148 C92 1.325 . S
O149 Li88 1.970 . S
O149 Li89 1.956 . S
O149 Li91 1.961 . S
O149 C98 1.325 . S
O150 Li88 1.961 . S
O150 Li90 1.956 . S
O150 Li91 1.970 . S
O150 C120 1.325 1_554 S
O151 Li89 1.961 . S
O151 Li90 1.970 . S
O151 Li91 1.956 . S
O151 C126 1.325 . S
H152 C94 0.929 . S
H153 C95 0.930 . S
H154 C96 0.930 . S
H155 C97 0.930 . S
H156 C99 0.930 . S
H157 C101 0.929 . S
H158 C102 0.930 . S
H159 C103 0.930 . S
H160 C106 0.930 . S
H161 C109 0.929 . S
H162 C114 0.929 . S
H163 C115 0.930 . S
H164 C122 0.929 . S
H165 C123 0.930 . S
H166 C124 0.930 . S
H167 C125 0.930 . S
H168 C127 0.929 . S
H169 C128 0.930 . S
H170 C129 0.930 . S
H171 C130 0.930 . S
H172 C134 0.929 . S
H173 C136 0.930 . S
H174 C142 0.929 . S
H175 C143 0.930 . S
Li176 N193 1.990 . S
Li176 O236 1.956 . S
Li176 O237 1.970 . S
Li176 O238 1.961 . S
Li177 N201 1.990 . S
Li177 O236 1.970 . S
Li177 O237 1.956 . S
Li177 O239 1.961 . S
Li178 N223 1.990 . S
Li178 O236 1.961 . S
Li178 O238 1.956 . S
Li178 O239 1.970 . S
Li179 N229 1.990 . S
Li179 O237 1.961 . S
Li179 O238 1.970 . S
Li179 O239 1.956 . S
C180 C182 1.348 . S
C180 C183 1.356 . S
C180 O236 1.325 . S
N181 C184 1.314 . S
N181 C185 1.279 . S
C182 C180 1.348 . S
C182 C184 1.353 . S
C182 H240 0.929 . S
C183 C180 1.356 . S
C183 C185 1.358 . S
C183 H241 0.930 . S
C184 N181 1.314 . S
C184 C182 1.353 . S
C184 H242 0.930 . S
C185 N181 1.279 . S
C185 C183 1.358 . S
C185 H243 0.930 . S
C186 C189 1.348 . S
C186 C190 1.356 . S
C186 O237 1.325 . S
C187 N188 1.279 . S
C187 C190 1.358 . S
C187 H244 0.930 . S
N188 C187 1.279 . S
N188 C191 1.314 . S
C189 C186 1.348 . S
C189 C191 1.353 . S
C189 H245 0.929 . S
C190 C186 1.356 . S
C190 C187 1.358 . S
C190 H246 0.930 . S
C191 N188 1.314 . S
C191 C189 1.353 . S
C191 H247 0.930 . S
C192 N193 1.314 . S
C192 C197 1.353 1_545 S
C192 H198 0.930 . S
N193 Li176 1.990 . S
N193 C192 1.314 . S
N193 C195 1.279 . S
C194 C195 1.358 . S
C194 C196 1.356 1_545 S
C194 H248 0.930 . S
C195 N193 1.279 . S
C195 C194 1.358 . S
C195 H199 0.930 . S
C196 C194 1.356 1_565 S
C196 C197 1.348 . S
C197 C192 1.353 1_565 S
C197 C196 1.348 . S
C197 H249 0.929 . S
H198 C192 0.930 . S
H199 C195 0.930 . S
C200 N201 1.314 . S
C200 C202 1.353 . S
C200 H206 0.930 . S
N201 Li177 1.990 . S
N201 C200 1.314 . S
N201 C204 1.279 . S
C202 C200 1.353 . S
C202 C205 1.348 . S
C202 H250 0.929 . S
C203 C204 1.358 . S
C203 C205 1.356 . S
C203 H251 0.930 . S
C204 N201 1.279 . S
C204 C203 1.358 . S
C204 H207 0.930 . S
C205 C202 1.348 . S
C205 C203 1.356 . S
H206 C200 0.930 . S
H207 C204 0.930 . S
C208 C210 1.348 . S
C208 C211 1.356 . S
C208 O238 1.325 . S
N209 C212 1.317 . S
N209 C213 1.279 . S
C210 C208 1.348 . S
C210 C212 1.349 1_545 S
C210 H252 0.929 . S
C211 C208 1.356 . S
C211 C213 1.358 1_545 S
C211 H253 0.930 . S
C212 N209 1.317 . S
C212 C210 1.349 1_565 S
C212 H254 0.931 . S
C213 N209 1.279 . S
C213 C211 1.358 1_565 S
C213 H255 0.930 . S
C214 C215 1.348 . S
C214 C216 1.356 . S
C214 O239 1.325 . S
C215 C214 1.348 . S
C215 C217 1.353 . S
C215 H256 0.929 . S
C216 C214 1.356 . S
C216 C218 1.358 . S
C216 H257 0.930 . S
C217 C215 1.353 . S
C217 N219 1.314 . S
C217 H258 0.930 . S
C218 C216 1.358 . S
C218 N219 1.279 . S
C218 H259 0.930 . S
N219 C217 1.314 . S
N219 C218 1.279 . S
C220 C222 1.353 . S
C220 N223 1.314 . S
C220 H226 0.930 . S
C221 N223 1.279 . S
C221 C224 1.358 . S
C221 H227 0.930 . S
C222 C220 1.353 . S
C222 C225 1.348 . S
C222 H260 0.929 . S
N223 Li178 1.990 . S
N223 C220 1.314 . S
N223 C221 1.279 . S
C224 C221 1.358 . S
C224 C225 1.356 . S
C224 H261 0.930 . S
C225 C222 1.348 . S
C225 C224 1.356 . S
H226 C220 0.930 . S
H227 C221 0.930 . S
C228 N229 1.314 . S
C228 C230 1.353 . S
C228 H234 0.930 . S
N229 Li179 1.990 . S
N229 C228 1.314 . S
N229 C232 1.279 . S
C230 C228 1.353 . S
C230 C233 1.348 . S
C230 H262 0.929 . S
C231 C232 1.358 . S
C231 C233 1.356 . S
C231 H263 0.930 . S
C232 N229 1.279 . S
C232 C231 1.358 . S
C232 H235 0.930 . S
C233 C230 1.348 . S
C233 C231 1.356 . S
H234 C228 0.930 . S
H235 C232 0.930 . S
O236 Li176 1.956 . S
O236 Li177 1.970 . S
O236 Li178 1.961 . S
O236 C180 1.325 . S
O237 Li176 1.970 . S
O237 Li177 1.956 . S
O237 Li179 1.961 . S
O237 C186 1.325 . S
O238 Li176 1.961 . S
O238 Li178 1.956 . S
O238 Li179 1.970 . S
O238 C208 1.325 . S
O239 Li177 1.961 . S
O239 Li178 1.970 . S
O239 Li179 1.956 . S
O239 C214 1.325 . S
H240 C182 0.929 . S
H241 C183 0.930 . S
H242 C184 0.930 . S
H243 C185 0.930 . S
H244 C187 0.930 . S
H245 C189 0.929 . S
H246 C190 0.930 . S
H247 C191 0.930 . S
H248 C194 0.930 . S
H249 C197 0.929 . S
H250 C202 0.929 . S
H251 C203 0.930 . S
H252 C210 0.929 . S
H253 C211 0.930 . S
H254 C212 0.931 . S
H255 C213 0.930 . S
H256 C215 0.929 . S
H257 C216 0.930 . S
H258 C217 0.930 . S
H259 C218 0.930 . S
H260 C222 0.929 . S
H261 C224 0.930 . S
H262 C230 0.929 . S
H263 C231 0.930 . S
Li264 N281 1.990 . S
Li264 O324 1.956 . S
Li264 O325 1.970 . S
Li264 O326 1.961 . S
Li265 N289 1.990 . S
Li265 O324 1.970 . S
Li265 O325 1.956 . S
Li265 O327 1.961 . S
Li266 N311 1.990 . S
Li266 O324 1.961 . S
Li266 O326 1.956 . S
Li266 O327 1.970 . S
Li267 N317 1.990 . S
Li267 O325 1.961 . S
Li267 O326 1.970 . S
Li267 O327 1.956 . S
C268 C270 1.348 . S
C268 C271 1.356 . S
C268 O324 1.325 . S
N269 C272 1.314 . S
N269 C273 1.279 . S
C270 C268 1.348 . S
C270 C272 1.353 . S
C270 H328 0.929 . S
C271 C268 1.356 . S
C271 C273 1.358 . S
C271 H329 0.930 . S
C272 N269 1.314 . S
C272 C270 1.353 . S
C272 H330 0.930 . S
C273 N269 1.279 . S
C273 C271 1.358 . S
C273 H331 0.930 . S
C274 C277 1.348 . S
C274 C278 1.356 . S
C274 O325 1.325 . S
C275 N276 1.279 . S
C275 C278 1.358 . S
C275 H332 0.930 . S
N276 C275 1.279 . S
N276 C279 1.314 . S
C277 C274 1.348 . S
C277 C279 1.353 . S
C277 H333 0.929 . S
C278 C274 1.356 . S
C278 C275 1.358 . S
C278 H334 0.930 . S
C279 N276 1.314 . S
C279 C277 1.353 . S
C279 H335 0.930 . S
C280 N281 1.314 . S
C280 C285 1.353 . S
C280 H286 0.930 . S
N281 Li264 1.990 . S
N281 C280 1.314 . S
N281 C283 1.279 . S
C282 C283 1.358 . S
C282 C284 1.356 . S
C282 H336 0.930 . S
C283 N281 1.279 . S
C283 C282 1.358 . S
C283 H287 0.930 . S
C284 C282 1.356 . S
C284 C285 1.348 . S
C285 C280 1.353 . S
C285 C284 1.348 . S
C285 H337 0.929 . S
H286 C280 0.930 . S
H287 C283 0.930 . S
C288 N289 1.314 . S
C288 C290 1.353 1_565 S
C288 H294 0.930 . S
N289 Li265 1.990 . S
N289 C288 1.314 . S
N289 C292 1.279 . S
C290 C288 1.353 1_545 S
C290 C293 1.348 . S
C290 H338 0.929 . S
C291 C292 1.358 . S
C291 C293 1.356 1_565 S
C291 H339 0.930 . S
C292 N289 1.279 . S
C292 C291 1.358 . S
C292 H295 0.930 . S
C293 C290 1.348 . S
C293 C291 1.356 1_545 S
H294 C288 0.930 . S
H295 C292 0.930 . S
C296 C298 1.348 . S
C296 C299 1.356 . S
C296 O326 1.325 . S
N297 C300 1.314 . S
N297 C301 1.279 . S
C298 C296 1.348 . S
C298 C300 1.353 . S
C298 H340 0.929 . S
C299 C296 1.356 . S
C299 C301 1.358 . S
C299 H341 0.930 . S
C300 N297 1.314 . S
C300 C298 1.353 . S
C300 H342 0.930 . S
C301 N297 1.279 . S
C301 C299 1.358 . S
C301 H343 0.930 . S
C302 C303 1.348 . S
C302 C304 1.356 . S
C302 O327 1.325 . S
C303 C302 1.348 . S
C303 C305 1.349 1_565 S
C303 H344 0.929 . S
C304 C302 1.356 . S
C304 C306 1.358 1_565 S
C304 H345 0.930 . S
C305 C303 1.349 1_545 S
C305 N307 1.317 . S
C305 H346 0.931 . S
C306 C304 1.358 1_545 S
C306 N307 1.279 . S
C306 H347 0.930 . S
N307 C305 1.317 . S
N307 C306 1.279 . S
C308 C310 1.353 . S
C308 N311 1.314 . S
C308 H314 0.930 . S
C309 N311 1.279 . S
C309 C312 1.358 1_455 S
C309 H315 0.930 . S
C310 C308 1.353 . S
C310 C313 1.348 1_455 S
C310 H348 0.929 . S
N311 Li266 1.990 . S
N311 C308 1.314 . S
N311 C309 1.279 . S
C312 C309 1.358 1_655 S
C312 C313 1.356 . S
C312 H349 0.930 . S
C313 C310 1.348 1_655 S
C313 C312 1.356 . S
H314 C308 0.930 . S
H315 C309 0.930 . S
C316 N317 1.314 . S
C316 C318 1.353 . S
C316 H322 0.930 . S
N317 Li267 1.990 . S
N317 C316 1.314 . S
N317 C320 1.279 . S
C318 C316 1.353 . S
C318 C321 1.348 . S
C318 H350 0.929 . S
C319 C320 1.358 . S
C319 C321 1.356 . S
C319 H351 0.930 . S
C320 N317 1.279 . S
C320 C319 1.358 . S
C320 H323 0.930 . S
C321 C318 1.348 . S
C321 C319 1.356 . S
H322 C316 0.930 . S
H323 C320 0.930 . S
O324 Li264 1.956 . S
O324 Li265 1.970 . S
O324 Li266 1.961 . S
O324 C268 1.325 . S
O325 Li264 1.970 . S
O325 Li265 1.956 . S
O325 Li267 1.961 . S
O325 C274 1.325 . S
O326 Li264 1.961 . S
O326 Li266 1.956 . S
O326 Li267 1.970 . S
O326 C296 1.325 . S
O327 Li265 1.961 . S
O327 Li266 1.970 . S
O327 Li267 1.956 . S
O327 C302 1.325 . S
H328 C270 0.929 . S
H329 C271 0.930 . S
H330 C272 0.930 . S
H331 C273 0.930 . S
H332 C275 0.930 . S
H333 C277 0.929 . S
H334 C278 0.930 . S
H335 C279 0.930 . S
H336 C282 0.930 . S
H337 C285 0.929 . S
H338 C290 0.929 . S
H339 C291 0.930 . S
H340 C298 0.929 . S
H341 C299 0.930 . S
H342 C300 0.930 . S
H343 C301 0.930 . S
H344 C303 0.929 . S
H345 C304 0.930 . S
H346 C305 0.931 . S
H347 C306 0.930 . S
H348 C310 0.929 . S
H349 C312 0.930 . S
H350 C318 0.929 . S
H351 C319 0.930 . S
Li352 N369 1.990 . S
Li352 O412 1.956 . S
Li352 O413 1.970 . S
Li352 O414 1.961 . S
Li353 N377 1.990 . S
Li353 O412 1.970 . S
Li353 O413 1.956 . S
Li353 O415 1.961 . S
Li354 N399 1.990 . S
Li354 O412 1.961 . S
Li354 O414 1.956 . S
Li354 O415 1.970 . S
Li355 N405 1.990 . S
Li355 O413 1.961 . S
Li355 O414 1.970 . S
Li355 O415 1.956 . S
C356 C358 1.348 . S
C356 C359 1.356 . S
C356 O412 1.325 1_554 S
N357 C360 1.314 . S
N357 C361 1.279 . S
C358 C356 1.348 . S
C358 C360 1.353 . S
C358 H416 0.929 . S
C359 C356 1.356 . S
C359 C361 1.358 . S
C359 H417 0.930 . S
C360 N357 1.314 . S
C360 C358 1.353 . S
C360 H418 0.930 . S
C361 N357 1.279 . S
C361 C359 1.358 . S
C361 H419 0.930 . S
C362 C365 1.348 . S
C362 C366 1.356 . S
C362 O413 1.325 . S
C363 N364 1.279 . S
C363 C366 1.358 . S
C363 H420 0.930 . S
N364 C363 1.279 . S
N364 C367 1.314 . S
C365 C362 1.348 . S
C365 C367 1.353 . S
C365 H421 0.929 . S
C366 C362 1.356 . S
C366 C363 1.358 . S
C366 H422 0.930 . S
C367 N364 1.314 . S
C367 C365 1.353 . S
C367 H423 0.930 . S
C368 N369 1.314 . S
C368 C373 1.353 . S
C368 H374 0.930 . S
N369 Li352 1.990 . S
N369 C368 1.314 . S
N369 C371 1.279 1_556 S
C370 C371 1.358 . S
C370 C372 1.356 . S
C370 H424 0.930 . S
C371 N369 1.279 1_554 S
C371 C370 1.358 . S
C371 H375 0.930 . S
C372 C370 1.356 . S
C372 C373 1.348 1_554 S
C373 C368 1.353 . S
C373 C372 1.348 1_556 S
C373 H425 0.929 . S
H374 C368 0.930 . S
H375 C371 0.930 . S
C376 N377 1.314 . S
C376 C378 1.353 . S
C376 H382 0.930 . S
N377 Li353 1.990 . S
N377 C376 1.314 . S
N377 C380 1.279 . S
C378 C376 1.353 . S
C378 C381 1.348 . S
C378 H426 0.929 . S
C379 C380 1.358 . S
C379 C381 1.356 . S
C379 H427 0.930 . S
C380 N377 1.279 . S
C380 C379 1.358 . S
C380 H383 0.930 . S
C381 C378 1.348 . S
C381 C379 1.356 . S
H382 C376 0.930 . S
H383 C380 0.930 . S
C384 C386 1.348 . S
C384 C387 1.356 . S
C384 O414 1.325 . S
N385 C388 1.314 . S
N385 C389 1.279 . S
C386 C384 1.348 . S
C386 C388 1.353 . S
C386 H428 0.929 . S
C387 C384 1.356 . S
C387 C389 1.358 . S
C387 H429 0.930 . S
C388 N385 1.314 . S
C388 C386 1.353 . S
C388 H430 0.930 . S
C389 N385 1.279 . S
C389 C387 1.358 . S
C389 H431 0.930 . S
C390 C391 1.348 . S
C390 C392 1.356 . S
C390 O415 1.325 . S
C391 C390 1.348 . S
C391 C393 1.353 . S
C391 H432 0.929 . S
C392 C390 1.356 . S
C392 C394 1.358 . S
C392 H433 0.930 . S
C393 C391 1.353 . S
C393 N395 1.314 . S
C393 H434 0.930 . S
C394 C392 1.358 . S
C394 N395 1.279 . S
C394 H435 0.930 . S
N395 C393 1.314 . S
N395 C394 1.279 . S
C396 C398 1.353 . S
C396 N399 1.314 . S
C396 H402 0.930 . S
C397 N399 1.279 . S
C397 C400 1.358 1_565 S
C397 H403 0.930 . S
C398 C396 1.353 . S
C398 C401 1.348 1_565 S
C398 H436 0.929 1_556 S
N399 Li354 1.990 . S
N399 C396 1.314 . S
N399 C397 1.279 . S
C400 C397 1.358 1_545 S
C400 C401 1.356 . S
C400 H437 0.930 . S
C401 C398 1.348 1_545 S
C401 C400 1.356 . S
H402 C396 0.930 . S
H403 C397 0.930 . S
C404 N405 1.314 . S
C404 C406 1.353 . S
C404 H410 0.930 . S
N405 Li355 1.990 . S
N405 C404 1.314 . S
N405 C408 1.279 . S
C406 C404 1.353 . S
C406 C409 1.348 . S
C406 H438 0.929 . S
C407 C408 1.358 . S
C407 C409 1.356 . S
C407 H439 0.930 . S
C408 N405 1.279 . S
C408 C407 1.358 . S
C408 H411 0.930 . S
C409 C406 1.348 . S
C409 C407 1.356 . S
H410 C404 0.930 . S
H411 C408 0.930 . S
O412 Li352 1.956 . S
O412 Li353 1.970 . S
O412 Li354 1.961 . S
O412 C356 1.325 1_556 S
O413 Li352 1.970 . S
O413 Li353 1.956 . S
O413 Li355 1.961 . S
O413 C362 1.325 . S
O414 Li352 1.961 . S
O414 Li354 1.956 . S
O414 Li355 1.970 . S
O414 C384 1.325 . S
O415 Li353 1.961 . S
O415 Li354 1.970 . S
O415 Li355 1.956 . S
O415 C390 1.325 . S
H416 C358 0.929 . S
H417 C359 0.930 . S
H418 C360 0.930 . S
H419 C361 0.930 . S
H420 C363 0.930 . S
H421 C365 0.929 . S
H422 C366 0.930 . S
H423 C367 0.930 . S
H424 C370 0.930 . S
H425 C373 0.929 . S
H426 C378 0.929 . S
H427 C379 0.930 . S
H428 C386 0.929 . S
H429 C387 0.930 . S
H430 C388 0.930 . S
H431 C389 0.930 . S
H432 C391 0.929 . S
H433 C392 0.930 . S
H434 C393 0.930 . S
H435 C394 0.930 . S
H436 C398 0.929 1_554 S
H437 C400 0.930 . S
H438 C406 0.929 . S
H439 C407 0.930 . S
Li440 N457 1.990 . S
Li440 O500 1.956 . S
Li440 O501 1.970 . S
Li440 O502 1.961 . S
Li441 N465 1.990 . S
Li441 O500 1.970 . S
Li441 O501 1.956 . S
Li441 O503 1.961 . S
Li442 N487 1.990 . S
Li442 O500 1.961 . S
Li442 O502 1.956 . S
Li442 O503 1.970 . S
Li443 N493 1.990 . S
Li443 O501 1.961 . S
Li443 O502 1.970 . S
Li443 O503 1.956 . S
C444 C446 1.348 . S
C444 C447 1.356 . S
C444 O500 1.325 1_554 S
N445 C448 1.314 . S
N445 C449 1.279 . S
C446 C444 1.348 . S
C446 C448 1.353 . S
C446 H504 0.929 . S
C447 C444 1.356 . S
C447 C449 1.358 . S
C447 H505 0.930 . S
C448 N445 1.314 . S
C448 C446 1.353 . S
C448 H506 0.930 . S
C449 N445 1.279 . S
C449 C447 1.358 . S
C449 H507 0.930 . S
C450 C453 1.348 . S
C450 C454 1.356 . S
C450 O501 1.325 . S
C451 N452 1.279 . S
C451 C454 1.358 . S
C451 H508 0.930 . S
N452 C451 1.279 . S
N452 C455 1.314 . S
C453 C450 1.348 . S
C453 C455 1.353 . S
C453 H509 0.929 . S
C454 C450 1.356 . S
C454 C451 1.358 . S
C454 H510 0.930 . S
C455 N452 1.314 . S
C455 C453 1.353 . S
C455 H511 0.930 . S
C456 N457 1.314 . S
C456 C461 1.353 1_655 S
C456 H462 0.930 . S
N457 Li440 1.990 . S
N457 C456 1.314 . S
N457 C459 1.279 1_556 S
C458 C459 1.358 . S
C458 C460 1.356 1_655 S
C458 H512 0.930 . S
C459 N457 1.279 1_554 S
C459 C458 1.358 . S
C459 H463 0.930 . S
C460 C458 1.356 1_455 S
C460 C461 1.348 1_554 S
C461 C456 1.353 1_455 S
C461 C460 1.348 1_556 S
C461 H513 0.929 . S
H462 C456 0.930 . S
H463 C459 0.930 . S
C464 N465 1.314 . S
C464 C466 1.353 . S
C464 H470 0.930 . S
N465 Li441 1.990 . S
N465 C464 1.314 . S
N465 C468 1.279 . S
C466 C464 1.353 . S
C466 C469 1.348 . S
C466 H514 0.929 . S
C467 C468 1.358 . S
C467 C469 1.356 . S
C467 H515 0.930 . S
C468 N465 1.279 . S
C468 C467 1.358 . S
C468 H471 0.930 . S
C469 C466 1.348 . S
C469 C467 1.356 . S
H470 C464 0.930 . S
H471 C468 0.930 . S
C472 C474 1.348 . S
C472 C475 1.356 . S
C472 O502 1.325 . S
N473 C476 1.314 . S
N473 C477 1.279 . S
C474 C472 1.348 . S
C474 C476 1.353 . S
C474 H516 0.929 . S
C475 C472 1.356 . S
C475 C477 1.358 . S
C475 H517 0.930 . S
C476 N473 1.314 . S
C476 C474 1.353 . S
C476 H518 0.930 . S
C477 N473 1.279 . S
C477 C475 1.358 . S
C477 H519 0.930 . S
C478 C479 1.348 . S
C478 C480 1.356 . S
C478 O503 1.325 . S
C479 C478 1.348 . S
C479 C481 1.353 . S
C479 H520 0.929 . S
C480 C478 1.356 . S
C480 C482 1.358 . S
C480 H521 0.930 . S
C481 C479 1.353 . S
C481 N483 1.314 . S
C481 H522 0.930 . S
C482 C480 1.358 . S
C482 N483 1.279 . S
C482 H523 0.930 . S
N483 C481 1.314 . S
N483 C482 1.279 . S
C484 C486 1.353 . S
C484 N487 1.314 . S
C484 H490 0.930 . S
C485 N487 1.279 . S
C485 C488 1.358 1_545 S
C485 H491 0.930 . S
C486 C484 1.353 . S
C486 C489 1.348 1_545 S
C486 H524 0.929 1_556 S
N487 Li442 1.990 . S
N487 C484 1.314 . S
N487 C485 1.279 . S
C488 C485 1.358 1_565 S
C488 C489 1.356 . S
C488 H525 0.930 . S
C489 C486 1.348 1_565 S
C489 C488 1.356 . S
H490 C484 0.930 . S
H491 C485 0.930 . S
C492 N493 1.314 . S
C492 C494 1.353 . S
C492 H498 0.930 . S
N493 Li443 1.990 . S
N493 C492 1.314 . S
N493 C496 1.279 . S
C494 C492 1.353 . S
C494 C497 1.348 . S
C494 H526 0.929 . S
C495 C496 1.358 . S
C495 C497 1.356 . S
C495 H527 0.930 . S
C496 N493 1.279 . S
C496 C495 1.358 . S
C496 H499 0.930 . S
C497 C494 1.348 . S
C497 C495 1.356 . S
H498 C492 0.930 . S
H499 C496 0.930 . S
O500 Li440 1.956 . S
O500 Li441 1.970 . S
O500 Li442 1.961 . S
O500 C444 1.325 1_556 S
O501 Li440 1.970 . S
O501 Li441 1.956 . S
O501 Li443 1.961 . S
O501 C450 1.325 . S
O502 Li440 1.961 . S
O502 Li442 1.956 . S
O502 Li443 1.970 . S
O502 C472 1.325 . S
O503 Li441 1.961 . S
O503 Li442 1.970 . S
O503 Li443 1.956 . S
O503 C478 1.325 . S
H504 C446 0.929 . S
H505 C447 0.930 . S
H506 C448 0.930 . S
H507 C449 0.930 . S
H508 C451 0.930 . S
H509 C453 0.929 . S
H510 C454 0.930 . S
H511 C455 0.930 . S
H512 C458 0.930 . S
H513 C461 0.929 . S
H514 C466 0.929 . S
H515 C467 0.930 . S
H516 C474 0.929 . S
H517 C475 0.930 . S
H518 C476 0.930 . S
H519 C477 0.930 . S
H520 C479 0.929 . S
H521 C480 0.930 . S
H522 C481 0.930 . S
H523 C482 0.930 . S
H524 C486 0.929 1_554 S
H525 C488 0.930 . S
H526 C494 0.929 . S
H527 C495 0.930 . S
Li528 N545 1.990 . S
Li528 O588 1.956 . S
Li528 O589 1.970 . S
Li528 O590 1.961 . S
Li529 N553 1.990 . S
Li529 O588 1.970 . S
Li529 O589 1.956 . S
Li529 O591 1.961 . S
Li530 N575 1.990 . S
Li530 O588 1.961 . S
Li530 O590 1.956 . S
Li530 O591 1.970 . S
Li531 N581 1.990 . S
Li531 O589 1.961 . S
Li531 O590 1.970 . S
Li531 O591 1.956 . S
C532 C534 1.348 . S
C532 C535 1.356 . S
C532 O588 1.325 . S
N533 C536 1.314 . S
N533 C537 1.279 . S
C534 C532 1.348 . S
C534 C536 1.353 . S
C534 H592 0.929 . S
C535 C532 1.356 . S
C535 C537 1.358 . S
C535 H593 0.930 . S
C536 N533 1.314 . S
C536 C534 1.353 . S
C536 H594 0.930 . S
C537 N533 1.279 . S
C537 C535 1.358 . S
C537 H595 0.930 . S
C538 C541 1.348 . S
C538 C542 1.356 . S
C538 O589 1.325 . S
C539 N540 1.279 . S
C539 C542 1.358 . S
C539 H596 0.930 . S
N540 C539 1.279 . S
N540 C543 1.314 . S
C541 C538 1.348 . S
C541 C543 1.353 . S
C541 H597 0.929 . S
C542 C538 1.356 . S
C542 C539 1.358 . S
C542 H598 0.930 . S
C543 N540 1.314 . S
C543 C541 1.353 . S
C543 H599 0.930 . S
C544 N545 1.314 . S
C544 C549 1.353 . S
C544 H550 0.930 . S
N545 Li528 1.990 . S
N545 C544 1.314 . S
N545 C547 1.279 . S
C546 C547 1.358 . S
C546 C548 1.356 . S
C546 H600 0.930 . S
C547 N545 1.279 . S
C547 C546 1.358 . S
C547 H551 0.930 . S
C548 C546 1.356 . S
C548 C549 1.348 . S
C549 C544 1.353 . S
C549 C548 1.348 . S
C549 H601 0.929 . S
H550 C544 0.930 . S
H551 C547 0.930 . S
C552 N553 1.314 . S
C552 C554 1.353 . S
C552 H558 0.930 . S
N553 Li529 1.990 . S
N553 C552 1.314 . S
N553 C556 1.279 . S
C554 C552 1.353 . S
C554 C557 1.348 . S
C554 H602 0.929 . S
C555 C556 1.358 . S
C555 C557 1.356 . S
C555 H603 0.930 . S
C556 N553 1.279 . S
C556 C555 1.358 . S
C556 H559 0.930 . S
C557 C554 1.348 . S
C557 C555 1.356 . S
H558 C552 0.930 . S
H559 C556 0.930 . S
C560 C562 1.348 . S
C560 C563 1.356 . S
C560 O590 1.325 . S
N561 C564 1.314 . S
N561 C565 1.279 . S
C562 C560 1.348 . S
C562 C564 1.353 1_565 S
C562 H604 0.929 . S
C563 C560 1.356 . S
C563 C565 1.358 1_565 S
C563 H605 0.930 . S
C564 N561 1.314 . S
C564 C562 1.353 1_545 S
C564 H606 0.930 . S
C565 N561 1.279 . S
C565 C563 1.358 1_545 S
C565 H607 0.930 . S
C566 C567 1.348 . S
C566 C568 1.356 . S
C566 O591 1.325 . S
C567 C566 1.348 . S
C567 C569 1.353 . S
C567 H608 0.929 . S
C568 C566 1.356 . S
C568 C570 1.358 . S
C568 H609 0.930 . S
C569 C567 1.353 . S
C569 N571 1.314 . S
C569 H610 0.930 . S
C570 C568 1.358 . S
C570 N571 1.279 . S
C570 H611 0.930 . S
N571 C569 1.314 . S
N571 C570 1.279 . S
C572 C574 1.353 . S
C572 N575 1.314 . S
C572 H578 0.930 . S
C573 N575 1.279 . S
C573 C576 1.358 1_565 S
C573 H579 0.930 . S
C574 C572 1.353 . S
C574 C577 1.348 1_565 S
C574 H612 0.929 . S
N575 Li530 1.990 . S
N575 C572 1.314 . S
N575 C573 1.279 . S
C576 C573 1.358 1_545 S
C576 C577 1.356 . S
C576 H613 0.930 . S
C577 C574 1.348 1_545 S
C577 C576 1.356 . S
H578 C572 0.930 . S
H579 C573 0.930 . S
C580 N581 1.314 . S
C580 C582 1.353 . S
C580 H586 0.930 . S
N581 Li531 1.990 . S
N581 C580 1.314 . S
N581 C584 1.279 . S
C582 C580 1.353 . S
C582 C585 1.348 . S
C582 H614 0.929 . S
C583 C584 1.358 . S
C583 C585 1.356 . S
C583 H615 0.930 . S
C584 N581 1.279 . S
C584 C583 1.358 . S
C584 H587 0.930 . S
C585 C582 1.348 . S
C585 C583 1.356 . S
H586 C580 0.930 . S
H587 C584 0.930 . S
O588 Li528 1.956 . S
O588 Li529 1.970 . S
O588 Li530 1.961 . S
O588 C532 1.325 . S
O589 Li528 1.970 . S
O589 Li529 1.956 . S
O589 Li531 1.961 . S
O589 C538 1.325 . S
O590 Li528 1.961 . S
O590 Li530 1.956 . S
O590 Li531 1.970 . S
O590 C560 1.325 . S
O591 Li529 1.961 . S
O591 Li530 1.970 . S
O591 Li531 1.956 . S
O591 C566 1.325 . S
H592 C534 0.929 . S
H593 C535 0.930 . S
H594 C536 0.930 . S
H595 C537 0.930 . S
H596 C539 0.930 . S
H597 C541 0.929 . S
H598 C542 0.930 . S
H599 C543 0.930 . S
H600 C546 0.930 . S
H601 C549 0.929 . S
H602 C554 0.929 . S
H603 C555 0.930 . S
H604 C562 0.929 . S
H605 C563 0.930 . S
H606 C564 0.930 . S
H607 C565 0.930 . S
H608 C567 0.929 . S
H609 C568 0.930 . S
H610 C569 0.930 . S
H611 C570 0.930 . S
H612 C574 0.929 . S
H613 C576 0.930 . S
H614 C582 0.929 . S
H615 C583 0.930 . S
Li616 N633 1.990 . S
Li616 O676 1.956 . S
Li616 O677 1.970 . S
Li616 O678 1.961 . S
Li617 N641 1.990 . S
Li617 O676 1.970 . S
Li617 O677 1.956 . S
Li617 O679 1.961 . S
Li618 N663 1.990 . S
Li618 O676 1.961 . S
Li618 O678 1.956 . S
Li618 O679 1.970 . S
Li619 N669 1.990 . S
Li619 O677 1.961 . S
Li619 O678 1.970 . S
Li619 O679 1.956 . S
C620 C622 1.348 . S
C620 C623 1.356 . S
C620 O676 1.325 . S
N621 C624 1.314 . S
N621 C625 1.279 . S
C622 C620 1.348 . S
C622 C624 1.353 . S
C622 H680 0.929 . S
C623 C620 1.356 . S
C623 C625 1.358 . S
C623 H681 0.930 . S
C624 N621 1.314 . S
C624 C622 1.353 . S
C624 H682 0.930 . S
C625 N621 1.279 . S
C625 C623 1.358 . S
C625 H683 0.930 . S
C626 C629 1.348 . S
C626 C630 1.356 . S
C626 O677 1.325 . S
C627 N628 1.279 . S
C627 C630 1.358 . S
C627 H684 0.930 . S
N628 C627 1.279 . S
N628 C631 1.314 . S
C629 C626 1.348 . S
C629 C631 1.353 . S
C629 H685 0.929 . S
C630 C626 1.356 . S
C630 C627 1.358 . S
C630 H686 0.930 . S
C631 N628 1.314 . S
C631 C629 1.353 . S
C631 H687 0.930 . S
C632 N633 1.314 . S
C632 C637 1.353 . S
C632 H638 0.930 . S
N633 Li616 1.990 . S
N633 C632 1.314 . S
N633 C635 1.279 . S
C634 C635 1.358 . S
C634 C636 1.356 . S
C634 H688 0.930 . S
C635 N633 1.279 . S
C635 C634 1.358 . S
C635 H639 0.930 . S
C636 C634 1.356 . S
C636 C637 1.348 . S
C637 C632 1.353 . S
C637 C636 1.348 . S
C637 H689 0.929 . S
H638 C632 0.930 . S
H639 C635 0.930 . S
C640 N641 1.314 . S
C640 C642 1.353 . S
C640 H646 0.930 . S
N641 Li617 1.990 . S
N641 C640 1.314 . S
N641 C644 1.279 . S
C642 C640 1.353 . S
C642 C645 1.348 . S
C642 H690 0.929 . S
C643 C644 1.358 . S
C643 C645 1.356 . S
C643 H691 0.930 . S
C644 N641 1.279 . S
C644 C643 1.358 . S
C644 H647 0.930 . S
C645 C642 1.348 . S
C645 C643 1.356 . S
H646 C640 0.930 . S
H647 C644 0.930 . S
C648 C650 1.348 . S
C648 C651 1.356 . S
C648 O678 1.325 . S
N649 C652 1.314 . S
N649 C653 1.279 . S
C650 C648 1.348 . S
C650 C652 1.353 . S
C650 H692 0.929 . S
C651 C648 1.356 . S
C651 C653 1.358 . S
C651 H693 0.930 . S
C652 N649 1.314 . S
C652 C650 1.353 . S
C652 H694 0.930 . S
C653 N649 1.279 . S
C653 C651 1.358 . S
C653 H695 0.930 . S
C654 C655 1.348 . S
C654 C656 1.356 . S
C654 O679 1.325 . S
C655 C654 1.348 . S
C655 C657 1.353 1_545 S
C655 H696 0.929 . S
C656 C654 1.356 . S
C656 C658 1.358 1_545 S
C656 H697 0.930 . S
C657 C655 1.353 1_565 S
C657 N659 1.314 . S
C657 H698 0.930 . S
C658 C656 1.358 1_565 S
C658 N659 1.279 . S
C658 H699 0.930 . S
N659 C657 1.314 . S
N659 C658 1.279 . S
C660 C662 1.353 1_655 S
C660 N663 1.314 . S
C660 H666 0.930 . S
C661 N663 1.279 . S
C661 C664 1.358 . S
C661 H667 0.930 . S
C662 C660 1.353 1_455 S
C662 C665 1.348 . S
C662 H700 0.929 . S
N663 Li618 1.990 . S
N663 C660 1.314 . S
N663 C661 1.279 . S
C664 C661 1.358 . S
C664 C665 1.356 1_655 S
C664 H701 0.930 . S
C665 C662 1.348 . S
C665 C664 1.356 1_455 S
H666 C660 0.930 . S
H667 C661 0.930 . S
C668 N669 1.314 . S
C668 C670 1.353 . S
C668 H674 0.930 . S
N669 Li619 1.990 . S
N669 C668 1.314 . S
N669 C672 1.279 . S
C670 C668 1.353 . S
C670 C673 1.348 1_545 S
C670 H702 0.929 . S
C671 C672 1.358 1_565 S
C671 C673 1.356 . S
C671 H703 0.930 . S
C672 N669 1.279 . S
C672 C671 1.358 1_545 S
C672 H675 0.930 . S
C673 C670 1.348 1_565 S
C673 C671 1.356 . S
H674 C668 0.930 . S
H675 C672 0.930 . S
O676 Li616 1.956 . S
O676 Li617 1.970 . S
O676 Li618 1.961 . S
O676 C620 1.325 . S
O677 Li616 1.970 . S
O677 Li617 1.956 . S
O677 Li619 1.961 . S
O677 C626 1.325 . S
O678 Li616 1.961 . S
O678 Li618 1.956 . S
O678 Li619 1.970 . S
O678 C648 1.325 . S
O679 Li617 1.961 . S
O679 Li618 1.970 . S
O679 Li619 1.956 . S
O679 C654 1.325 . S
H680 C622 0.929 . S
H681 C623 0.930 . S
H682 C624 0.930 . S
H683 C625 0.930 . S
H684 C627 0.930 . S
H685 C629 0.929 . S
H686 C630 0.930 . S
H687 C631 0.930 . S
H688 C634 0.930 . S
H689 C637 0.929 . S
H690 C642 0.929 . S
H691 C643 0.930 . S
H692 C650 0.929 . S
H693 C651 0.930 . S
H694 C652 0.930 . S
H695 C653 0.930 . S
H696 C655 0.929 . S
H697 C656 0.930 . S
H698 C657 0.930 . S
H699 C658 0.930 . S
H700 C662 0.929 . S
H701 C664 0.930 . S
H702 C670 0.929 . S
H703 C671 0.930 . S
C49 C137 4.595 1_565 S
C284 C205 4.595 . S
C401 C489 4.621 1_545 S
C557 C636 4.621 . S
C29 C225 1.803 . S
C321 C117 1.803 . S
C409 C548 1.803 . S
C645 C497 1.803 . S
C20 C372 5.662 1_556 S
C108 C460 5.662 1_656 S
C585 C233 5.662 1_565 S
C665 C313 5.662 1_445 S
C145 C57 0.438 . S
C196 C293 0.438 1_565 S
C381 C469 0.430 . S
C577 C673 0.430 1_545 S
