# Generated by pormake.
# Topology ure, (4)-cn, num edge types: 1
# Building blocks:
#     Node 0, Type 0, BuildingBlock: ICAMEG_clean_sbu_1, # of connection points: 4
#     Node 1, Type 0, BuildingBlock: ICAMEG_clean_sbu_1, # of connection points: 4
#     Node 2, Type 0, BuildingBlock: ICAMEG_clean_sbu_1, # of connection points: 4
#     Node 3, Type 0, BuildingBlock: ICAMEG_clean_sbu_1, # of connection points: 4
#     Node 4, Type 0, BuildingBlock: ICAMEG_clean_sbu_1, # of connection points: 4
#     Node 5, Type 0, BuildingBlock: ICAMEG_clean_sbu_1, # of connection points: 4
#     Node 6, Type 0, BuildingBlock: ICAMEG_clean_sbu_1, # of connection points: 4
#     Node 7, Type 0, BuildingBlock: ICAMEG_clean_sbu_1, # of connection points: 4
#     Node 8, Type 0, BuildingBlock: ICAMEG_clean_sbu_1, # of connection points: 4
#     Node 9, Type 0, BuildingBlock: ICAMEG_clean_sbu_1, # of connection points: 4
#     Node 10, Type 0, BuildingBlock: ICAMEG_clean_sbu_1, # of connection points: 4
#     Node 11, Type 0, BuildingBlock: ICAMEG_clean_sbu_1, # of connection points: 4
#     Node 12, Type 0, BuildingBlock: ICAMEG_clean_sbu_1, # of connection points: 4
#     Node 13, Type 0, BuildingBlock: ICAMEG_clean_sbu_1, # of connection points: 4
#     Node 14, Type 0, BuildingBlock: ICAMEG_clean_sbu_1, # of connection points: 4
#     Node 15, Type 0, BuildingBlock: ICAMEG_clean_sbu_1, # of connection points: 4
#     Edge 16, Type (0, 0), BuildingBlock: XIVTED_clean_linker_0, # of connection points: 2
#     Edge 17, Type (0, 0), BuildingBlock: XIVTED_clean_linker_0, # of connection points: 2
#     Edge 18, Type (0, 0), BuildingBlock: XIVTED_clean_linker_0, # of connection points: 2
#     Edge 19, Type (0, 0), BuildingBlock: XIVTED_clean_linker_0, # of connection points: 2
#     Edge 20, Type (0, 0), BuildingBlock: XIVTED_clean_linker_0, # of connection points: 2
#     Edge 21, Type (0, 0), BuildingBlock: XIVTED_clean_linker_0, # of connection points: 2
#     Edge 22, Type (0, 0), BuildingBlock: XIVTED_clean_linker_0, # of connection points: 2
#     Edge 23, Type (0, 0), BuildingBlock: XIVTED_clean_linker_0, # of connection points: 2
#     Edge 24, Type (0, 0), BuildingBlock: XIVTED_clean_linker_0, # of connection points: 2
#     Edge 25, Type (0, 0), BuildingBlock: XIVTED_clean_linker_0, # of connection points: 2
#     Edge 26, Type (0, 0), BuildingBlock: XIVTED_clean_linker_0, # of connection points: 2
#     Edge 27, Type (0, 0), BuildingBlock: XIVTED_clean_linker_0, # of connection points: 2
#     Edge 28, Type (0, 0), BuildingBlock: XIVTED_clean_linker_0, # of connection points: 2
#     Edge 29, Type (0, 0), BuildingBlock: XIVTED_clean_linker_0, # of connection points: 2
#     Edge 30, Type (0, 0), BuildingBlock: XIVTED_clean_linker_0, # of connection points: 2
#     Edge 31, Type (0, 0), BuildingBlock: XIVTED_clean_linker_0, # of connection points: 2
#     Edge 32, Type (0, 0), BuildingBlock: XIVTED_clean_linker_0, # of connection points: 2
#     Edge 33, Type (0, 0), BuildingBlock: XIVTED_clean_linker_0, # of connection points: 2
#     Edge 34, Type (0, 0), BuildingBlock: XIVTED_clean_linker_0, # of connection points: 2
#     Edge 35, Type (0, 0), BuildingBlock: XIVTED_clean_linker_0, # of connection points: 2
#     Edge 36, Type (0, 0), BuildingBlock: XIVTED_clean_linker_0, # of connection points: 2
#     Edge 37, Type (0, 0), BuildingBlock: XIVTED_clean_linker_0, # of connection points: 2
#     Edge 38, Type (0, 0), BuildingBlock: XIVTED_clean_linker_0, # of connection points: 2
#     Edge 39, Type (0, 0), BuildingBlock: XIVTED_clean_linker_0, # of connection points: 2
#     Edge 40, Type (0, 0), BuildingBlock: XIVTED_clean_linker_0, # of connection points: 2
#     Edge 41, Type (0, 0), BuildingBlock: XIVTED_clean_linker_0, # of connection points: 2
#     Edge 42, Type (0, 0), BuildingBlock: XIVTED_clean_linker_0, # of connection points: 2
#     Edge 43, Type (0, 0), BuildingBlock: XIVTED_clean_linker_0, # of connection points: 2
#     Edge 44, Type (0, 0), BuildingBlock: XIVTED_clean_linker_0, # of connection points: 2
#     Edge 45, Type (0, 0), BuildingBlock: XIVTED_clean_linker_0, # of connection points: 2
#     Edge 46, Type (0, 0), BuildingBlock: XIVTED_clean_linker_0, # of connection points: 2
#     Edge 47, Type (0, 0), BuildingBlock: XIVTED_clean_linker_0, # of connection points: 2
# Relax obj value: 0.298
# Max RMSD: 0.316
# Mean RMSD: 0.229
data_MOF--net-ure--node1-ICAMEG_clean_sbu_1--edge1-XIVTED_clean_linker_0
_symmetry_space_group_name_H-M    P1
_symmetry_Int_Tables_number       1
_symmetry_cell_setting            triclinic
loop_
_symmetry_equiv_pos_as_xyz
'x, y, z'
_cell_length_a     32.842751
_cell_length_b     33.743123
_cell_length_c     32.73571
_cell_angle_alpha  94.112581
_cell_angle_beta   94.965564
_cell_angle_gamma 100.25935
loop_
_atom_site_label
_atom_site_type_symbol
_atom_site_fract_x
_atom_site_fract_y
_atom_site_fract_z
_atom_type_partial_charge
Co0 Co 0.30608 0.3257 0.29546 0.0
Co1 Co 0.27061 0.22353 0.29891 0.0
O2 O 0.26612 0.27608 0.27938 0.0
C3 C 0.23027 0.37687 0.30299 0.0
O4 O 0.19235 0.35909 0.2886 0.0
C5 C 0.26797 0.2087 0.20985 0.0
O6 O 0.29555 0.24217 0.21096 0.0
O7 O 0.32997 0.22904 0.28737 0.0
O8 O 0.35383 0.29631 0.29237 0.0
H9 H 0.33472 0.12499 0.37992 0.0
H10 H 0.24138 0.32448 0.22672 0.0
O11 O 0.25977 0.35703 0.30009 0.0
H12 H 0.37422 0.34916 0.16486 0.0
H13 H 0.36415 0.47395 0.29164 0.0
H14 H 0.37316 0.35084 0.36151 0.0
H15 H 0.3734 0.34335 0.23942 0.0
H16 H 0.32291 0.40814 0.26252 0.0
O17 O 0.25284 0.19727 0.24246 0.0
H18 H 0.33188 0.19106 0.35312 0.0
H19 H 0.21566 0.14258 0.28481 0.0
H20 H 0.40426 0.41515 0.39575 0.0
H21 H 0.2408 0.33085 0.15215 0.0
H22 H 0.40281 0.4789 0.36122 0.0
H23 H 0.3073 0.3429 0.1207 0.0
O24 O 0.30381 0.31601 0.35544 0.0
H25 H 0.12035 0.23404 0.26916 0.0
H26 H 0.22592 0.20301 0.37241 0.0
H27 H 0.15451 0.20246 0.39049 0.0
H28 H 0.10118 0.21821 0.33873 0.0
H29 H 0.19233 0.23471 0.25249 0.0
H30 H 0.21717 0.07596 0.31081 0.0
H31 H 0.27688 0.06695 0.35901 0.0
O32 O 0.28958 0.24839 0.35496 0.0
C33 C 0.35908 0.25971 0.28776 0.0
C34 C 0.30844 0.12858 0.35909 0.0
C35 C 0.24251 0.10105 0.32026 0.0
N36 N 0.27342 0.17081 0.31788 0.0
C37 C 0.30667 0.16593 0.34385 0.0
C38 C 0.24185 0.13882 0.30559 0.0
C39 C 0.276 0.09601 0.34731 0.0
C40 C 0.27057 0.33052 0.21339 0.0
N41 N 0.30732 0.33386 0.23747 0.0
C42 C 0.27005 0.33379 0.17111 0.0
C43 C 0.30748 0.34048 0.15346 0.0
C44 C 0.34492 0.34393 0.17819 0.0
C45 C 0.34425 0.34045 0.22039 0.0
C46 C 0.36578 0.44702 0.30731 0.0
C47 C 0.36976 0.37767 0.34644 0.0
C48 C 0.34338 0.40938 0.29041 0.0
N49 N 0.34494 0.37546 0.31072 0.0
C50 C 0.38848 0.41479 0.36594 0.0
C51 C 0.38734 0.44986 0.34626 0.0
C52 C 0.30034 0.28346 0.37368 0.0
C53 C 0.14329 0.22699 0.29193 0.0
C54 C 0.20287 0.20972 0.34961 0.0
C55 C 0.16246 0.20933 0.36004 0.0
C56 C 0.13256 0.21816 0.33099 0.0
N57 N 0.21325 0.21867 0.31131 0.0
C58 C 0.18402 0.2271 0.28258 0.0
Co59 Co 0.99344 0.0573 0.55419 0.0
Co60 Co 0.96348 0.957 0.51569 0.0
O61 O 0.99884 0.01076 0.51698 0.0
C62 C 0.97921 0.09531 0.47635 0.0
O63 O 0.94685 0.06657 0.46493 0.0
C64 C 0.05052 0.94017 0.50697 0.0
O65 O 0.06764 0.97704 0.52198 0.0
O66 O 0.97603 0.95604 0.57684 0.0
O67 O 0.98425 0.02207 0.5995 0.0
H68 H 0.8469 0.85514 0.55741 0.0
H69 H 0.06776 0.0646 0.50772 0.0
O70 O 1.00255 0.09409 0.5092 0.0
H71 H 0.12238 0.08168 0.65434 0.0
H72 H 0.03222 0.20193 0.61534 0.0
H73 H 0.93811 0.07113 0.61891 0.0
H74 H 0.04687 0.06942 0.63408 0.0
H75 H 0.038 0.14306 0.5685 0.0
O76 O 0.01121 0.92864 0.50479 0.0
H77 H 0.89624 0.92007 0.5639 0.0
H78 H 0.95454 0.88011 0.46176 0.0
H79 H 0.93204 0.1291 0.66687 0.0
H80 H 0.14365 0.07745 0.52665 0.0
H81 H 0.97905 0.19504 0.66519 0.0
H82 H 0.17138 0.08604 0.60043 0.0
O83 O 0.93227 0.04882 0.53934 0.0
H84 H 0.99757 0.98991 0.37372 0.0
H85 H 0.88619 0.9405 0.45936 0.0
H86 H 0.86814 0.95364 0.38934 0.0
H87 H 0.92366 0.97776 0.34424 0.0
H88 H 0.01436 0.97944 0.44658 0.0
H89 H 0.90742 0.81398 0.45581 0.0
H90 H 0.85272 0.80126 0.50363 0.0
O91 O 0.91335 0.98178 0.5245 0.0
C92 C 0.98032 0.98484 0.60551 0.0
C93 C 0.87105 0.86001 0.53696 0.0
C94 C 0.90485 0.83701 0.47975 0.0
N95 N 0.92834 0.90391 0.51335 0.0
C96 C 0.89888 0.89686 0.54026 0.0
C97 C 0.93174 0.87443 0.48356 0.0
C98 C 0.87418 0.8299 0.50657 0.0
C99 C 0.07964 0.06853 0.53988 0.0
N100 N 0.05292 0.06621 0.56972 0.0
C101 C 0.12261 0.07566 0.55042 0.0
C102 C 0.13815 0.08042 0.59182 0.0
C103 C 0.11069 0.07792 0.62208 0.0
C104 C 0.06793 0.07073 0.6104 0.0
C105 C 0.01148 0.17332 0.61636 0.0
C106 C 0.95897 0.09967 0.61814 0.0
C107 C 0.0145 0.13989 0.5898 0.0
N108 N 0.98858 0.10357 0.59108 0.0
C109 C 0.9552 0.13242 0.64526 0.0
C110 C 0.98165 0.16944 0.64432 0.0
C111 C 0.90484 0.01698 0.53029 0.0
C112 C 0.97298 0.97888 0.39231 0.0
C113 C 0.91085 0.95116 0.44079 0.0
C114 C 0.90039 0.9582 0.4004 0.0
C115 C 0.93154 0.97204 0.37579 0.0
N116 N 0.95129 0.95906 0.45719 0.0
C117 C 0.98233 0.97245 0.43348 0.0
Co118 Co 0.21747 0.68778 0.82267 0.0
Co119 Co 0.26081 0.78209 0.80389 0.0
O120 O 0.25255 0.7233 0.79024 0.0
C121 C 0.2859 0.63987 0.8338 0.0
O122 O 0.30924 0.66954 0.85795 0.0
C123 C 0.25484 0.81167 0.72043 0.0
O124 O 0.22527 0.8305 0.7315 0.0
O125 O 0.1993 0.77853 0.79111 0.0
O126 O 0.18083 0.72841 0.83074 0.0
H127 H 0.22562 0.90967 0.86841 0.0
H128 H 0.23219 0.65775 0.73884 0.0
O129 O 0.25196 0.64487 0.81464 0.0
H130 H 0.07968 0.63671 0.73933 0.0
H131 H 0.15438 0.55441 0.86905 0.0
H132 H 0.17889 0.7022 0.89945 0.0
H133 H 0.12583 0.6674 0.80113 0.0
H134 H 0.18353 0.59921 0.81878 0.0
O135 O 0.27009 0.78902 0.74481 0.0
H136 H 0.21624 0.83613 0.85069 0.0
H137 H 0.32163 0.85311 0.78289 0.0
H138 H 0.14869 0.65861 0.95032 0.0
H139 H 0.18719 0.62668 0.67622 0.0
H140 H 0.13869 0.58455 0.93647 0.0
H141 H 0.11028 0.61587 0.67641 0.0
O142 O 0.25341 0.71202 0.87264 0.0
H143 H 0.39788 0.74341 0.77864 0.0
H144 H 0.32515 0.82025 0.87298 0.0
H145 H 0.39914 0.81747 0.89094 0.0
H146 H 0.43599 0.77926 0.8435 0.0
H147 H 0.32372 0.74578 0.76241 0.0
H148 H 0.33226 0.92687 0.80002 0.0
H149 H 0.28414 0.95558 0.84322 0.0
O150 O 0.25356 0.77686 0.86417 0.0
C151 C 0.17201 0.75622 0.80916 0.0
C152 C 0.24683 0.89753 0.8496 0.0
C153 C 0.30667 0.90718 0.81121 0.0
N154 N 0.26841 0.84032 0.81589 0.0
C155 C 0.24164 0.85591 0.83941 0.0
C156 C 0.30048 0.86541 0.80159 0.0
C157 C 0.27966 0.92327 0.83545 0.0
C158 C 0.19877 0.65316 0.73898 0.0
N159 N 0.18161 0.66426 0.77354 0.0
C160 C 0.17345 0.63558 0.70347 0.0
C161 C 0.13034 0.62955 0.70356 0.0
C162 C 0.1131 0.64123 0.73888 0.0
C163 C 0.13937 0.65867 0.77376 0.0
C164 C 0.16013 0.58679 0.8763 0.0
C165 C 0.17323 0.66982 0.89247 0.0
C166 C 0.17645 0.61227 0.84776 0.0
N167 N 0.18432 0.65318 0.85675 0.0
C168 C 0.15656 0.64533 0.92164 0.0
C169 C 0.15106 0.60361 0.91385 0.0
C170 C 0.25834 0.74865 0.88708 0.0
C171 C 0.38218 0.76044 0.79947 0.0
C172 C 0.34091 0.80334 0.8522 0.0
C173 C 0.38283 0.80208 0.86247 0.0
C174 C 0.40354 0.78052 0.83586 0.0
N175 N 0.32006 0.78339 0.8165 0.0
C176 C 0.34021 0.76209 0.79033 0.0
Co177 Co 0.55937 0.95063 0.05017 0.0
Co178 Co 0.52035 0.9635 0.95221 0.0
O179 O 0.52567 0.97792 0.01243 0.0
C180 C 0.50071 0.92354 0.11122 0.0
O181 O 0.49542 0.88698 0.09263 0.0
C182 C 0.52327 0.05477 0.9599 0.0
O183 O 0.54452 0.05981 0.99632 0.0
O184 O 0.58257 0.97718 0.95273 0.0
O185 O 0.59999 0.94661 0.00875 0.0
H186 H 0.55867 0.89641 0.82255 0.0
H187 H 0.538 0.0285 0.0799 0.0
O188 O 0.52005 0.95368 0.09443 0.0
H189 H 0.6913 0.05226 0.09094 0.0
H190 H 0.62087 0.92087 0.18824 0.0
H191 H 0.60057 0.87963 0.0393 0.0
H192 H 0.65016 0.98482 0.06705 0.0
H193 H 0.58995 0.96255 0.13985 0.0
O194 O 0.51428 0.01994 0.94011 0.0
H195 H 0.56489 0.91629 0.89708 0.0
H196 H 0.46515 0.98007 0.88021 0.0
H197 H 0.63345 0.838 0.08633 0.0
H198 H 0.57797 0.09652 0.10396 0.0
H199 H 0.64206 0.8575 0.16155 0.0
H200 H 0.65515 0.10878 0.10915 0.0
O201 O 0.52692 0.89779 0.0266 0.0
H202 H 0.38215 0.98748 0.99293 0.0
H203 H 0.45357 0.89386 0.9162 0.0
H204 H 0.37741 0.87705 0.91785 0.0
H205 H 0.34131 0.92393 0.95622 0.0
H206 H 0.45803 0.0032 0.99073 0.0
H207 H 0.45809 0.96117 0.80548 0.0
H208 H 0.50487 0.91876 0.77619 0.0
O209 O 0.52412 0.90591 0.95952 0.0
C210 C 0.60852 0.96191 0.97536 0.0
C211 C 0.53813 0.91494 0.83494 0.0
C212 C 0.48175 0.95134 0.82534 0.0
N213 N 0.51552 0.94949 0.8931 0.0
C214 C 0.54153 0.92634 0.87714 0.0
C215 C 0.48609 0.96221 0.86769 0.0
C216 C 0.50796 0.9275 0.80894 0.0
C217 C 0.5716 0.03355 0.08264 0.0
N218 N 0.5917 0.00279 0.0721 0.0
C219 C 0.59406 0.07213 0.09608 0.0
C220 C 0.63738 0.079 0.09898 0.0
C221 C 0.65767 0.04731 0.0887 0.0
C222 C 0.6342 0.0092 0.07517 0.0
C223 C 0.61679 0.9117 0.15556 0.0
C224 C 0.60535 0.88903 0.07187 0.0
C225 C 0.59914 0.93513 0.12804 0.0
N226 N 0.59217 0.92288 0.08693 0.0
C227 C 0.62378 0.86518 0.09838 0.0
C228 C 0.62867 0.8762 0.14058 0.0
C229 C 0.52094 0.8836 0.98916 0.0
C230 C 0.39755 0.9668 0.97593 0.0
C231 C 0.43811 0.91444 0.93316 0.0
C232 C 0.395 0.90473 0.93388 0.0
C233 C 0.37468 0.93113 0.9554 0.0
N234 N 0.46033 0.94975 0.95299 0.0
C235 C 0.44056 0.97561 0.97444 0.0
Co236 Co 0.29678 0.70309 0.25169 0.0
Co237 Co 0.31242 0.76289 0.34174 0.0
O238 O 0.2825 0.7467 0.28718 0.0
C239 C 0.29878 0.76559 0.19108 0.0
O240 O 0.3285 0.79015 0.21465 0.0
C241 C 0.22402 0.76446 0.36414 0.0
O242 O 0.20928 0.72724 0.34836 0.0
O243 O 0.29456 0.70602 0.35705 0.0
O244 O 0.31009 0.673 0.30013 0.0
H245 H 0.40894 0.7463 0.46437 0.0
H246 H 0.21526 0.72836 0.23666 0.0
O247 O 0.28302 0.73135 0.20235 0.0
H248 H 0.18209 0.58249 0.25384 0.0
H249 H 0.27743 0.60494 0.12495 0.0
H250 H 0.36323 0.6538 0.25608 0.0
H251 H 0.25496 0.618 0.25868 0.0
H252 H 0.26086 0.66054 0.16982 0.0
O253 O 0.2621 0.77999 0.363 0.0
H254 H 0.37018 0.72679 0.39578 0.0
H255 H 0.31736 0.83279 0.40472 0.0
H256 H 0.38002 0.59724 0.21278 0.0
H257 H 0.14187 0.69395 0.23121 0.0
H258 H 0.33703 0.57249 0.14665 0.0
H259 H 0.12491 0.62047 0.23979 0.0
O260 O 0.35573 0.73143 0.2556 0.0
H261 H 0.28228 0.88547 0.27609 0.0
H262 H 0.39165 0.82554 0.34815 0.0
H263 H 0.40846 0.89486 0.32619 0.0
H264 H 0.35416 0.92495 0.29005 0.0
H265 H 0.26614 0.81699 0.29866 0.0
H266 H 0.35486 0.85304 0.47341 0.0
H267 H 0.40149 0.80985 0.50366 0.0
O268 O 0.36571 0.74947 0.32318 0.0
C269 C 0.29971 0.67368 0.33674 0.0
C270 C 0.38884 0.76542 0.45152 0.0
C271 C 0.35853 0.82533 0.45667 0.0
N272 N 0.34165 0.77867 0.39616 0.0
C273 C 0.36685 0.75455 0.41269 0.0
C274 C 0.33712 0.81356 0.41776 0.0
C275 C 0.38463 0.8011 0.47357 0.0
C276 C 0.2081 0.69638 0.24039 0.0
N277 N 0.23935 0.67524 0.24798 0.0
C278 C 0.1665 0.67706 0.2373 0.0
C279 C 0.15701 0.63584 0.24214 0.0
C280 C 0.18906 0.6145 0.25 0.0
C281 C 0.23028 0.63482 0.25284 0.0
C282 C 0.29634 0.6154 0.15375 0.0
C283 C 0.34413 0.64301 0.22753 0.0
C284 C 0.2873 0.64708 0.17917 0.0
N285 N 0.31084 0.66024 0.21575 0.0
C286 C 0.35384 0.611 0.2031 0.0
C287 C 0.32972 0.59715 0.16598 0.0
C288 C 0.37965 0.7443 0.28836 0.0
C289 C 0.30647 0.87264 0.29194 0.0
C290 C 0.36761 0.83851 0.33232 0.0
C291 C 0.37745 0.87763 0.32001 0.0
C292 C 0.34674 0.8947 0.2997 0.0
N293 N 0.32785 0.81723 0.32501 0.0
C294 C 0.29757 0.83382 0.30489 0.0
Co295 Co 0.52005 0.04307 0.45998 0.0
Co296 Co 0.52895 0.95582 0.50466 0.0
O297 O 0.50535 0.00518 0.50111 0.0
C298 C 0.53939 0.12176 0.51078 0.0
O299 O 0.57767 0.12478 0.50094 0.0
C300 C 0.43794 0.92919 0.51372 0.0
O301 O 0.42796 0.9535 0.48657 0.0
O302 O 0.5101 0.93817 0.44499 0.0
O303 O 0.52731 0.99834 0.42 0.0
H304 H 0.61032 0.85109 0.45767 0.0
H305 H 0.44221 0.04721 0.49886 0.0
O306 O 0.51288 0.0894 0.49962 0.0
H307 H 0.39797 0.01068 0.35108 0.0
H308 H 0.49998 0.16004 0.37783 0.0
H309 H 0.57871 0.04999 0.39509 0.0
H310 H 0.47209 0.02215 0.37709 0.0
H311 H 0.48837 0.11605 0.43402 0.0
O312 O 0.47575 0.92609 0.52214 0.0
H313 H 0.58129 0.91344 0.45358 0.0
H314 H 0.52587 0.89304 0.56457 0.0
H315 H 0.5884 0.09098 0.33601 0.0
H316 H 0.36774 0.03708 0.47386 0.0
H317 H 0.54979 0.14719 0.32777 0.0
H318 H 0.34517 0.01842 0.39952 0.0
O319 O 0.58039 0.04893 0.48079 0.0
H320 H 0.5137 0.01354 0.64725 0.0
H321 H 0.60939 0.96246 0.55732 0.0
H322 H 0.63461 0.98784 0.62921 0.0
H323 H 0.5866 0.01358 0.67474 0.0
H324 H 0.4899 0.98838 0.57504 0.0
H325 H 0.55398 0.83036 0.56966 0.0
H326 H 0.59666 0.80905 0.51601 0.0
O327 O 0.58345 0.98378 0.48883 0.0
C328 C 0.5193 0.95991 0.41549 0.0
C329 C 0.59177 0.86007 0.48124 0.0
C330 C 0.56012 0.84839 0.54406 0.0
N331 N 0.55187 0.90689 0.50877 0.0
C332 C 0.57529 0.89536 0.47911 0.0
C333 C 0.54414 0.88385 0.54092 0.0
C334 C 0.58408 0.83647 0.51397 0.0
C335 C 0.43273 0.03975 0.46637 0.0
N336 N 0.46159 0.03542 0.43954 0.0
C337 C 0.39047 0.03379 0.45243 0.0
C338 C 0.37781 0.02323 0.41072 0.0
C339 C 0.40741 0.01885 0.38354 0.0
C340 C 0.44937 0.02517 0.39854 0.0
C341 C 0.51759 0.13608 0.38148 0.0
C342 C 0.56124 0.0739 0.39136 0.0
C343 C 0.51164 0.11138 0.41373 0.0
N344 N 0.53348 0.08077 0.41854 0.0
C345 C 0.56717 0.0973 0.35805 0.0
C346 C 0.54543 0.12879 0.35335 0.0
C347 C 0.60068 0.02038 0.48658 0.0
C348 C 0.53487 0.00227 0.62776 0.0
C349 C 0.58827 0.97359 0.5769 0.0
C350 C 0.60274 0.98789 0.61762 0.0
C351 C 0.57579 0.00232 0.64315 0.0
N352 N 0.54807 0.97362 0.562 0.0
C353 C 0.52151 0.98779 0.58687 0.0
Co354 Co 0.26662 0.32374 0.74227 0.0
Co355 Co 0.27025 0.26513 0.82239 0.0
O356 O 0.28536 0.27801 0.76737 0.0
C357 C 0.27648 0.26563 0.67062 0.0
O358 O 0.28164 0.23622 0.69354 0.0
C359 C 0.35224 0.25548 0.86381 0.0
O360 O 0.34953 0.28527 0.89096 0.0
O361 O 0.29725 0.32128 0.84508 0.0
O362 O 0.26688 0.35276 0.79685 0.0
H363 H 0.21656 0.29415 0.95839 0.0
H364 H 0.34465 0.29441 0.7254 0.0
O365 O 0.26644 0.29794 0.68553 0.0
H366 H 0.38625 0.44223 0.75224 0.0
H367 H 0.26579 0.43079 0.64227 0.0
H368 H 0.20827 0.3778 0.76584 0.0
H369 H 0.3139 0.4092 0.75626 0.0
H370 H 0.2817 0.36756 0.66637 0.0
O371 O 0.32447 0.24541 0.8332 0.0
H372 H 0.23376 0.30766 0.88825 0.0
H373 H 0.27651 0.19633 0.87415 0.0
H374 H 0.1949 0.44323 0.745 0.0
H375 H 0.41732 0.32624 0.72153 0.0
H376 H 0.22396 0.4704 0.68296 0.0
H377 H 0.4387 0.40075 0.73477 0.0
O378 O 0.20811 0.29681 0.74547 0.0
H379 H 0.26219 0.13361 0.73692 0.0
H380 H 0.18826 0.21195 0.82863 0.0
H381 H 0.15382 0.14399 0.79846 0.0
H382 H 0.19083 0.10429 0.75223 0.0
H383 H 0.29536 0.20191 0.76749 0.0
H384 H 0.2598 0.18162 0.94419 0.0
H385 H 0.22964 0.23074 0.98683 0.0
O386 O 0.2148 0.2829 0.81159 0.0
C387 C 0.2869 0.35287 0.8316 0.0
C388 C 0.22968 0.27249 0.94011 0.0
C389 C 0.25396 0.20935 0.93215 0.0
N390 N 0.25613 0.25285 0.87712 0.0
C391 C 0.23947 0.27998 0.90036 0.0
C392 C 0.26338 0.21786 0.89252 0.0
C393 C 0.23704 0.23692 0.95605 0.0
C394 C 0.35328 0.32681 0.73105 0.0
N395 N 0.32437 0.34978 0.74021 0.0
C396 C 0.39471 0.3447 0.72889 0.0
C397 C 0.4067 0.38648 0.73632 0.0
C398 C 0.37729 0.40976 0.74602 0.0
C399 C 0.33618 0.39079 0.74806 0.0
C400 C 0.25329 0.41948 0.66961 0.0
C401 C 0.22148 0.38938 0.73901 0.0
C402 C 0.26149 0.38304 0.68295 0.0
N403 N 0.24683 0.36898 0.71807 0.0
C404 C 0.21376 0.42657 0.72738 0.0
C405 C 0.23003 0.44179 0.69255 0.0
C406 C 0.19242 0.28706 0.7786 0.0
C407 C 0.24574 0.15061 0.75702 0.0
C408 C 0.20453 0.195 0.80838 0.0
C409 C 0.1849 0.15645 0.79149 0.0
C410 C 0.20569 0.13418 0.76559 0.0
N411 N 0.2438 0.21097 0.79975 0.0
C412 C 0.2644 0.18927 0.77448 0.0
Co413 Co 0.99326 0.93966 0.95727 0.0
Co414 Co 0.99189 0.03721 0.99655 0.0
O415 O 0.00992 0.9851 0.99838 0.0
C416 C 0.96204 0.872 0.00662 0.0
O417 O 0.92575 0.86809 0.98496 0.0
C418 C 0.08161 0.05658 0.99304 0.0
O419 O 0.07692 0.02662 0.96428 0.0
O420 O 0.99895 0.04097 0.93645 0.0
O421 O 0.99701 0.97664 0.91324 0.0
H422 H 0.90905 0.13934 0.94622 0.0
H423 H 0.06472 0.94018 0.01963 0.0
O424 O 0.99106 0.90144 0.00187 0.0
H425 H 0.12241 0.93563 0.88554 0.0
H426 H 0.00888 0.80635 0.88817 0.0
H427 H 0.94824 0.92805 0.87395 0.0
H428 H 0.04785 0.93519 0.88907 0.0
H429 H 0.01293 0.85626 0.94741 0.0
O430 O 0.05066 0.06524 0.01031 0.0
H431 H 0.93327 0.07394 0.94287 0.0
H432 H 0.01452 0.11251 0.05201 0.0
H433 H 0.94422 0.87968 0.81396 0.0
H434 H 0.13958 0.94004 0.01739 0.0
H435 H 0.9774 0.82055 0.82022 0.0
H436 H 0.16894 0.93809 0.95 0.0
O437 O 0.93244 0.94359 0.96022 0.0
H438 H 0.03423 0.01403 0.14299 0.0
H439 H 0.92271 0.04656 0.04758 0.0
H440 H 0.91121 0.03959 0.12037 0.0
H441 H 0.9672 0.02319 0.16863 0.0
H442 H 0.04426 0.02078 0.06983 0.0
H443 H 0.99168 0.1782 0.05633 0.0
H444 H 0.93834 0.19169 0.00396 0.0
O445 O 0.93358 0.00915 0.98172 0.0
C446 C 0.99934 0.01362 0.90766 0.0
C447 C 0.93219 0.13362 0.96957 0.0
C448 C 0.97863 0.1555 0.03135 0.0
N449 N 0.97469 0.08923 0.99757 0.0
C450 C 0.94584 0.09665 0.96789 0.0
C451 C 0.9915 0.11829 0.02865 0.0
C452 C 0.94862 0.16305 0.00174 0.0
C453 C 0.07711 0.9386 0.99015 0.0
N454 N 0.05172 0.93735 0.95457 0.0
C455 C 0.11958 0.93878 0.98908 0.0
C456 C 0.13606 0.93776 0.95127 0.0
C457 C 0.10999 0.93641 0.9151 0.0
C458 C 0.06772 0.93622 0.91735 0.0
C459 C 0.99413 0.8324 0.88531 0.0
C460 C 0.95939 0.90053 0.87809 0.0
C461 C 0.99538 0.86036 0.91911 0.0
N462 N 0.9786 0.8944 0.91515 0.0
C463 C 0.95785 0.87354 0.84362 0.0
C464 C 0.97608 0.83982 0.84726 0.0
C465 C 0.91423 0.97346 0.9694 0.0
C466 C 0.00963 0.02127 0.12228 0.0
C467 C 0.94722 0.03936 0.06836 0.0
C468 C 0.94055 0.03555 0.10957 0.0
C469 C 0.972 0.02637 0.13664 0.0
N470 N 0.98419 0.03422 0.05447 0.0
C471 C 0.0152 0.02532 0.08086 0.0
Co472 Co 0.79929 0.20966 0.74434 0.0
Co473 Co 0.81196 0.25846 0.8419 0.0
O474 O 0.78681 0.25147 0.78399 0.0
C475 C 0.79453 0.28047 0.69151 0.0
O476 O 0.78581 0.30545 0.72066 0.0
C477 C 0.72416 0.27596 0.84561 0.0
O478 O 0.71504 0.26603 0.80597 0.0
O479 O 0.79076 0.19971 0.84891 0.0
O480 O 0.80245 0.17227 0.78782 0.0
H481 H 0.9 0.22356 0.96187 0.0
H482 H 0.72404 0.24521 0.72405 0.0
O483 O 0.79833 0.24453 0.69781 0.0
H484 H 0.67241 0.09897 0.72496 0.0
H485 H 0.78346 0.12387 0.60939 0.0
H486 H 0.85846 0.15302 0.74845 0.0
H487 H 0.74716 0.12712 0.73987 0.0
H488 H 0.76838 0.17794 0.65739 0.0
O489 O 0.75957 0.27282 0.86318 0.0
H490 H 0.86555 0.21403 0.89132 0.0
H491 H 0.81134 0.31773 0.91422 0.0
H492 H 0.87288 0.09749 0.70223 0.0
H493 H 0.64912 0.21828 0.70843 0.0
H494 H 0.83566 0.08308 0.63227 0.0
H495 H 0.62278 0.14461 0.70882 0.0
O496 O 0.85933 0.23183 0.75584 0.0
H497 H 0.80237 0.3963 0.79602 0.0
H498 H 0.89329 0.31406 0.86417 0.0
H499 H 0.92052 0.38534 0.85672 0.0
H500 H 0.87483 0.42743 0.82262 0.0
H501 H 0.77636 0.32469 0.80405 0.0
H502 H 0.84419 0.32754 0.98556 0.0
H503 H 0.88966 0.28048 0.0098 0.0
O504 O 0.86632 0.24588 0.82424 0.0
C505 C 0.79446 0.1694 0.82478 0.0
C506 C 0.88044 0.24421 0.95189 0.0
C507 C 0.84915 0.30258 0.96513 0.0
N508 N 0.83662 0.26536 0.89855 0.0
C509 C 0.86091 0.23904 0.91183 0.0
C510 C 0.83032 0.29665 0.92473 0.0
C511 C 0.87457 0.27622 0.97869 0.0
C512 C 0.71301 0.21316 0.72394 0.0
N513 N 0.74016 0.1879 0.73261 0.0
C514 C 0.67045 0.19806 0.71525 0.0
C515 C 0.65568 0.15673 0.71555 0.0
C516 C 0.68349 0.13113 0.72464 0.0
C517 C 0.72582 0.14733 0.73322 0.0
C518 C 0.79993 0.13004 0.63993 0.0
C519 C 0.84165 0.14654 0.71815 0.0
C520 C 0.79172 0.16074 0.66715 0.0
N521 N 0.81221 0.16836 0.70587 0.0
C522 C 0.85018 0.11525 0.69203 0.0
C523 C 0.82921 0.10711 0.65269 0.0
C524 C 0.88173 0.24134 0.78999 0.0
C525 C 0.82246 0.37849 0.81123 0.0
C526 C 0.87312 0.33188 0.84925 0.0
C527 C 0.88881 0.37243 0.84509 0.0
C528 C 0.86321 0.3959 0.82602 0.0
N529 N 0.83283 0.3151 0.83534 0.0
C530 C 0.80776 0.33784 0.81613 0.0
Co531 Co 0.02332 0.54772 0.95921 0.0
Co532 Co 0.02316 0.45511 0.00076 0.0
O533 O 0.00703 0.50922 0.00048 0.0
C534 C 0.02831 0.6037 0.03839 0.0
O535 O 0.01423 0.57461 0.06091 0.0
C536 C 0.93302 0.4396 0.02213 0.0
O537 O 0.92801 0.47639 0.01556 0.0
O538 O 0.00357 0.44182 0.94037 0.0
O539 O 0.01223 0.50261 0.91535 0.0
H540 H 0.08941 0.34227 0.94462 0.0
H541 H 0.95371 0.55669 0.01138 0.0
O542 O 0.0349 0.59596 0.00116 0.0
H543 H 0.8943 0.55808 0.86841 0.0
H544 H 0.02699 0.67757 0.89136 0.0
H545 H 0.06624 0.54312 0.88245 0.0
H546 H 0.9669 0.55021 0.88338 0.0
H547 H 0.01255 0.63235 0.94571 0.0
O548 O 0.96699 0.42811 0.01553 0.0
H549 H 0.0699 0.40963 0.94658 0.0
H550 H 0.01085 0.38733 0.05528 0.0
H551 H 0.07817 0.58658 0.82566 0.0
H552 H 0.88143 0.56537 0.99788 0.0
H553 H 0.05902 0.65457 0.83012 0.0
H554 H 0.85094 0.56595 0.92589 0.0
O555 O 0.08318 0.54181 0.96978 0.0
H556 H 0.01477 0.50967 0.14665 0.0
H557 H 0.09947 0.44641 0.05325 0.0
H558 H 0.12581 0.46388 0.12625 0.0
H559 H 0.08335 0.4957 0.17359 0.0
H560 H 0.98981 0.49213 0.07351 0.0
H561 H 0.0294 0.31966 0.05428 0.0
H562 H 0.06903 0.29674 0.9987 0.0
O563 O 0.08032 0.47844 0.98792 0.0
C564 C 0.00334 0.46432 0.91058 0.0
C565 C 0.07219 0.35193 0.96903 0.0
C566 C 0.03845 0.33922 0.03053 0.0
N567 N 0.03928 0.40245 0.00099 0.0
C568 C 0.06112 0.39007 0.97034 0.0
C569 C 0.0279 0.37754 0.03085 0.0
C570 C 0.06071 0.32639 -0.00064 0.0
C571 C 0.94147 0.55778 0.98011 0.0
N572 N 0.9654 0.55381 0.94849 0.0
C573 C 0.9001 0.56232 0.97256 0.0
C574 C 0.88297 0.56255 0.93218 0.0
C575 C 0.90726 0.55809 0.89996 0.0
C576 C 0.94848 0.5536 0.90873 0.0
C577 C 0.03589 0.6482 0.88919 0.0
C578 C 0.05713 0.57237 0.88447 0.0
C579 C 0.02842 0.62253 0.92039 0.0
N580 N 0.03895 0.58499 0.91786 0.0
C581 C 0.06427 0.59699 0.85225 0.0
C582 C 0.05372 0.6352 0.85481 0.0
C583 C 0.10042 0.51212 0.97935 0.0
C584 C 0.03344 0.49554 0.12641 0.0
C585 C 0.08061 0.46006 0.07359 0.0
C586 C 0.09576 0.46992 0.11496 0.0
C587 C 0.07194 0.48777 0.14149 0.0
N588 N 0.04268 0.46757 0.05897 0.0
C589 C 0.01929 0.48523 0.08487 0.0
Co590 Co 0.76348 0.81687 0.23124 0.0
Co591 Co 0.76696 0.76858 0.31942 0.0
O592 O 0.77957 0.77331 0.26201 0.0
C593 C 0.76825 0.75275 0.16288 0.0
O594 O 0.78821 0.73109 0.18642 0.0
C595 C 0.85491 0.75864 0.34931 0.0
O596 O 0.86565 0.79723 0.36183 0.0
O597 O 0.79806 0.8253 0.33518 0.0
O598 O 0.77229 0.85421 0.28176 0.0
H599 H 0.72371 0.81714 0.45494 0.0
H600 H 0.84053 0.7794 0.22568 0.0
O601 O 0.75357 0.78225 0.1781 0.0
H602 H 0.88759 0.92415 0.2127 0.0
H603 H 0.75536 0.90241 0.11129 0.0
H604 H 0.71368 0.88016 0.25016 0.0
H605 H 0.81551 0.89862 0.22458 0.0
H606 H 0.77406 0.8456 0.14714 0.0
O607 O 0.8188 0.74457 0.33076 0.0
H608 H 0.73685 0.82105 0.38214 0.0
H609 H 0.7733 0.70639 0.37916 0.0
H610 H 0.69775 0.9394 0.21678 0.0
H611 H 0.9127 0.8039 0.21429 0.0
H612 H 0.71827 0.95073 0.14669 0.0
H613 H 0.93707 0.87681 0.2073 0.0
O614 O 0.70492 0.79717 0.24111 0.0
H615 H 0.74395 0.62919 0.24603 0.0
H616 H 0.68418 0.72272 0.33574 0.0
H617 H 0.64391 0.65451 0.31376 0.0
H618 H 0.67378 0.6072 0.26856 0.0
H619 H 0.78306 0.69779 0.2685 0.0
H620 H 0.76085 0.70133 0.45197 0.0
H621 H 0.73583 0.75696 0.49037 0.0
O622 O 0.71325 0.78966 0.30865 0.0
C623 C 0.79182 0.85633 0.31715 0.0
C624 C 0.73461 0.79269 0.43854 0.0
C625 C 0.7555 0.72773 0.43689 0.0
N626 N 0.75582 0.76401 0.37638 0.0
C627 C 0.74204 0.79472 0.39729 0.0
C628 C 0.76263 0.73082 0.39568 0.0
C629 C 0.74143 0.75894 0.45841 0.0
C630 C 0.84955 0.81078 0.22109 0.0
N631 N 0.82178 0.83657 0.22233 0.0
C632 C 0.89116 0.82469 0.21532 0.0
C633 C 0.90487 0.86558 0.21157 0.0
C634 C 0.8771 0.89207 0.21437 0.0
C635 C 0.83579 0.87709 0.22035 0.0
C636 C 0.74629 0.89783 0.14186 0.0
C637 C 0.72346 0.88511 0.21997 0.0
C638 C 0.75607 0.86515 0.16208 0.0
N639 N 0.74542 0.85954 0.20107 0.0
C640 C 0.71413 0.91869 0.20112 0.0
C641 C 0.72566 0.92503 0.1618 0.0
C642 C 0.69021 0.79193 0.27553 0.0
C643 C 0.73062 0.6495 0.26577 0.0
C644 C 0.6974 0.70236 0.31603 0.0
C645 C 0.67446 0.66373 0.30374 0.0
C646 C 0.69124 0.63719 0.2784 0.0
N647 N 0.73602 0.71424 0.3035 0.0
C648 C 0.75266 0.68837 0.27867 0.0
Co649 Co 0.07399 0.45213 0.55014 0.0
Co650 Co 0.02574 0.47138 0.45987 0.0
O651 O 0.03802 0.48287 0.51993 0.0
C652 C 0.00685 0.44071 0.60824 0.0
O653 O 0.97838 0.42426 0.57828 0.0
C654 C 0.03072 0.55452 0.43073 0.0
O655 O 0.05924 0.5472 0.40694 0.0
O656 O 0.08717 0.48569 0.45388 0.0
O657 O 0.10721 0.44722 0.50205 0.0
H658 H 0.04854 0.4123 0.32022 0.0
H659 H 0.06258 0.53248 0.58408 0.0
O660 O 0.04348 0.45614 0.60072 0.0
H661 H 0.21376 0.54428 0.57807 0.0
H662 H 0.14399 0.40932 0.67701 0.0
H663 H 0.10958 0.37942 0.52749 0.0
H664 H 0.16629 0.47922 0.55787 0.0
H665 H 0.11229 0.45635 0.63665 0.0
O666 O 0.01782 0.52917 0.45607 0.0
H667 H 0.06343 0.4283 0.39526 0.0
H668 H 0.96213 0.49088 0.39671 0.0
H669 H 0.14714 0.33457 0.5661 0.0
H670 H 0.10884 0.59848 0.60338 0.0
H671 H 0.16404 0.34898 0.64181 0.0
H672 H 0.18501 0.60462 0.60054 0.0
O673 O 0.03524 0.40156 0.52887 0.0
H674 H 0.89493 0.49095 0.52109 0.0
H675 H 0.95657 0.40224 0.42767 0.0
H676 H 0.88244 0.38366 0.43922 0.0
H677 H 0.85131 0.42801 0.48595 0.0
H678 H 0.96873 0.5085 0.50912 0.0
H679 H 0.94616 0.47553 0.32166 0.0
H680 H 0.98943 0.43582 0.2829 0.0
O681 O 0.03078 0.41285 0.46225 0.0
C682 C 0.11412 0.46723 0.47099 0.0
C683 C 0.02949 0.42968 0.33675 0.0
C684 C 0.97205 0.46517 0.33755 0.0
N685 N 0.01383 0.46066 0.40043 0.0
C686 C 0.03783 0.43892 0.37926 0.0
C687 C 0.98133 0.47387 0.38006 0.0
C688 C 0.99632 0.44288 0.31583 0.0
C689 C 0.09574 0.53493 0.58301 0.0
N690 N 0.11173 0.50207 0.57001 0.0
C691 C 0.12178 0.57232 0.59405 0.0
C692 C 0.1645 0.57578 0.59232 0.0
C693 C 0.18065 0.54195 0.57964 0.0
C694 C 0.15362 0.50515 0.56839 0.0
C695 C 0.13851 0.40344 0.64401 0.0
C696 C 0.11858 0.38696 0.56004 0.0
C697 C 0.11963 0.4296 0.62098 0.0
N698 N 0.1086 0.4205 0.57976 0.0
C699 C 0.13945 0.36117 0.58183 0.0
C700 C 0.14898 0.36927 0.62425 0.0
C701 C 0.02617 0.38925 0.49096 0.0
C702 C 0.90817 0.47137 0.50044 0.0
C703 C 0.94324 0.42182 0.44817 0.0
C704 C 0.90129 0.41108 0.45448 0.0
C705 C 0.88374 0.43606 0.48078 0.0
N706 N 0.96699 0.45672 0.46737 0.0
C707 C 0.94995 0.48121 0.4934 0.0
Co708 Co 0.49232 0.55646 0.05412 0.0
Co709 Co 0.46909 0.45633 0.02454 0.0
O710 O 0.50261 0.50971 0.02118 0.0
C711 C 0.49191 0.59233 0.97356 0.0
O712 O 0.4598 0.56466 0.95838 0.0
C713 C 0.55471 0.44267 0.00415 0.0
O714 O 0.56922 0.48165 0.00997 0.0
O715 O 0.48807 0.46009 0.08473 0.0
O716 O 0.47544 0.52265 0.09955 0.0
H717 H 0.36826 0.3538 0.08684 0.0
H718 H 0.57444 0.56281 0.02106 0.0
O719 O 0.50921 0.59131 0.00971 0.0
H720 H 0.60566 0.58336 0.17199 0.0
H721 H 0.52417 0.70223 0.11178 0.0
H722 H 0.42615 0.57246 0.10616 0.0
H723 H 0.53327 0.57179 0.14028 0.0
H724 H 0.53632 0.64209 0.07069 0.0
O725 O 0.51714 0.42854 0.01034 0.0
H726 H 0.41198 0.42058 0.08309 0.0
H727 H 0.45515 0.37803 0.97254 0.0
H728 H 0.41297 0.63204 0.14757 0.0
H729 H 0.64743 0.57489 0.05152 0.0
H730 H 0.46222 0.69728 0.15093 0.0
H731 H 0.66341 0.58514 0.12752 0.0
O732 O 0.43363 0.54631 0.02919 0.0
H733 H 0.48619 0.49224 0.88047 0.0
H734 H 0.38688 0.43822 0.9763 0.0
H735 H 0.36125 0.46343 0.91399 0.0
H736 H 0.41082 0.48943 0.86322 0.0
H737 H 0.51119 0.47468 0.94835 0.0
H738 H 0.4112 0.31101 0.97497 0.0
H739 H 0.36724 0.29856 0.03225 0.0
O740 O 0.41865 0.48054 0.03803 0.0
C741 C 0.48237 0.48868 0.11028 0.0
C742 C 0.38712 0.35887 0.06164 0.0
C743 C 0.41137 0.33482 0.99885 0.0
N744 N 0.43605 0.4032 0.02764 0.0
C745 C 0.41209 0.39658 0.05942 0.0
C746 C 0.43622 0.37281 0.99774 0.0
C747 C 0.38665 0.32787 0.03102 0.0
C748 C 0.58115 0.56729 0.05415 0.0
N749 N 0.54956 0.56614 0.0788 0.0
C750 C 0.62254 0.5741 0.07122 0.0
C751 C 0.63148 0.57982 0.11387 0.0
C752 C 0.59911 0.57878 0.13884 0.0
C753 C 0.55812 0.57195 0.12067 0.0
C754 C 0.50251 0.67388 0.11073 0.0
C755 C 0.44779 0.6008 0.10739 0.0
C756 C 0.50914 0.63971 0.08742 0.0
N757 N 0.48212 0.60368 0.08623 0.0
C758 C 0.44012 0.63439 0.13091 0.0
C759 C 0.46776 0.67108 0.13268 0.0
C760 C 0.40742 0.51384 0.03013 0.0
C761 C 0.46421 0.48026 0.90132 0.0
C762 C 0.40893 0.44977 0.95541 0.0
C763 C 0.39403 0.46335 0.91912 0.0
C764 C 0.42181 0.47846 0.89159 0.0
N765 N 0.45062 0.45544 0.96665 0.0
C766 C 0.47822 0.46929 0.93962 0.0
Co767 Co 0.81301 0.82612 0.79 0.0
Co768 Co 0.78035 0.72427 0.79704 0.0
O769 O 0.77574 0.77491 0.77336 0.0
C770 C 0.7454 0.87082 0.80909 0.0
O771 O 0.73763 0.85099 0.84143 0.0
C772 C 0.78219 0.70543 0.70904 0.0
O773 O 0.81065 0.73829 0.71057 0.0
O774 O 0.83992 0.73075 0.78802 0.0
O775 O 0.86241 0.79832 0.7981 0.0
H776 H 0.84376 0.63344 0.88896 0.0
H777 H 0.75892 0.81775 0.71133 0.0
O778 O 0.76577 0.8568 0.78158 0.0
H779 H 0.90252 0.83891 0.67255 0.0
H780 H 0.86111 0.97296 0.77271 0.0
H781 H 0.8636 0.86645 0.86762 0.0
H782 H 0.88929 0.84166 0.74553 0.0
H783 H 0.836 0.90246 0.74778 0.0
O784 O 0.76538 0.69501 0.74122 0.0
H785 H 0.83981 0.69735 0.858 0.0
H786 H 0.72863 0.64169 0.78459 0.0
H787 H 0.88125 0.93711 0.89399 0.0
H788 H 0.77082 0.81587 0.63786 0.0
H789 H 0.87957 0.99141 0.84754 0.0
H790 H 0.84302 0.82506 0.61827 0.0
O791 O 0.8026 0.81961 0.84899 0.0
H792 H 0.6298 0.72835 0.75841 0.0
H793 H 0.73281 0.70643 0.86928 0.0
H794 H 0.65989 0.70405 0.8833 0.0
H795 H 0.60782 0.71514 0.82765 0.0
H796 H 0.70321 0.73095 0.74585 0.0
H797 H 0.73135 0.57711 0.81468 0.0
H798 H 0.7891 0.57277 0.86746 0.0
O799 O 0.79668 0.75258 0.85266 0.0
C800 C 0.86864 0.76196 0.79237 0.0
C801 C 0.81836 0.63496 0.86609 0.0
C802 C 0.75531 0.60333 0.82436 0.0
N803 N 0.78385 0.67332 0.8198 0.0
C804 C 0.81595 0.67109 0.84849 0.0
C805 C 0.75398 0.63994 0.80736 0.0
C806 C 0.78771 0.60093 0.85399 0.0
C807 C 0.79042 0.8231 0.70296 0.0
N808 N 0.82331 0.8296 0.73271 0.0
C809 C 0.79697 0.82172 0.66134 0.0
C810 C 0.8375 0.827 0.65031 0.0
C811 C 0.87091 0.83445 0.68078 0.0
C812 C 0.86319 0.83564 0.72206 0.0
C813 C 0.86163 0.94964 0.79369 0.0
C814 C 0.86171 0.88925 0.84643 0.0
C815 C 0.84865 0.90896 0.7795 0.0
N816 N 0.84783 0.87905 0.80593 0.0
C817 C 0.87189 0.92966 0.86191 0.0
C818 C 0.87189 0.96004 0.83553 0.0
C819 C 0.80178 0.78856 0.86929 0.0
C820 C 0.65217 0.72333 0.78287 0.0
C821 C 0.71033 0.71117 0.84485 0.0
C822 C 0.66907 0.70975 0.85298 0.0
C823 C 0.63987 0.71597 0.82174 0.0
N824 N 0.7222 0.7186 0.80669 0.0
C825 C 0.69373 0.72456 0.77587 0.0
Co826 Co 0.71437 0.18944 0.32737 0.0
Co827 Co 0.75198 0.28468 0.30519 0.0
O828 O 0.74771 0.22534 0.29281 0.0
C829 C 0.78598 0.14306 0.31425 0.0
O830 O 0.8079 0.16938 0.29328 0.0
C831 C 0.76436 0.27524 0.21327 0.0
O832 O 0.75772 0.23557 0.21118 0.0
O833 O 0.69042 0.27744 0.29067 0.0
O834 O 0.67415 0.22755 0.33114 0.0
H835 H 0.70738 0.40794 0.36894 0.0
H836 H 0.73208 0.15678 0.24561 0.0
O837 O 0.75158 0.14878 0.32618 0.0
H838 H 0.57947 0.12532 0.24443 0.0
H839 H 0.66181 0.05876 0.38605 0.0
H840 H 0.67414 0.2068 0.40198 0.0
H841 H 0.62322 0.16196 0.30526 0.0
H842 H 0.68702 0.09999 0.33105 0.0
O843 O 0.7616 0.29586 0.24676 0.0
H844 H 0.70266 0.33494 0.35117 0.0
H845 H 0.80808 0.35868 0.28396 0.0
H846 H 0.64664 0.16656 0.45643 0.0
H847 H 0.68961 0.11976 0.18414 0.0
H848 H 0.64245 0.09277 0.44969 0.0
H849 H 0.61265 0.10371 0.18343 0.0
O850 O 0.74986 0.217 0.37644 0.0
H851 H 0.89353 0.25265 0.28718 0.0
H852 H 0.81306 0.32777 0.37487 0.0
H853 H 0.88723 0.32861 0.39611 0.0
H854 H 0.92797 0.29141 0.3521 0.0
H855 H 0.81933 0.25102 0.26784 0.0
H856 H 0.8138 0.43198 0.30088 0.0
H857 H 0.76344 0.45703 0.34398 0.0
O858 O 0.74342 0.27948 0.36504 0.0
C859 C 0.66381 0.25407 0.30849 0.0
C860 C 0.72958 0.3974 0.35023 0.0
C861 C 0.78927 0.41089 0.31199 0.0
N862 N 0.75526 0.34248 0.31683 0.0
C863 C 0.72708 0.35607 0.34005 0.0
C864 C 0.78579 0.36934 0.30239 0.0
C865 C 0.76102 0.42492 0.33619 0.0
C866 C 0.69868 0.1498 0.24549 0.0
N867 N 0.6802 0.16124 0.27906 0.0
C868 C 0.67476 0.12893 0.21057 0.0
C869 C 0.63161 0.11997 0.21015 0.0
C870 C 0.61295 0.13206 0.2444 0.0
C871 C 0.63788 0.15284 0.27874 0.0
C872 C 0.66433 0.09125 0.38966 0.0
C873 C 0.67055 0.17429 0.39776 0.0
C874 C 0.67831 0.11472 0.35851 0.0
N875 N 0.68273 0.15587 0.36353 0.0
C876 C 0.65558 0.15176 0.42907 0.0
C877 C 0.65348 0.11017 0.42533 0.0
C878 C 0.75257 0.25375 0.38906 0.0
C879 C 0.87618 0.26948 0.30646 0.0
C880 C 0.83055 0.31145 0.35532 0.0
C881 C 0.87256 0.31222 0.36755 0.0
C882 C 0.89546 0.29116 0.34287 0.0
N883 N 0.81167 0.28987 0.3196 0.0
C884 C 0.83406 0.26903 0.2954 0.0
Co885 Co 0.49852 0.44532 0.45405 0.0
Co886 Co 0.49728 0.54005 0.50112 0.0
O887 O 0.51296 0.4861 0.50062 0.0
C888 C 0.48039 0.3966 0.52773 0.0
O889 O 0.49271 0.42788 0.55498 0.0
C890 C 0.58802 0.55563 0.4977 0.0
O891 O 0.58368 0.52204 0.47381 0.0
O892 O 0.50055 0.54465 0.44046 0.0
O893 O 0.51764 0.48677 0.41747 0.0
H894 H 0.41763 0.64554 0.45372 0.0
H895 H 0.55935 0.43597 0.52503 0.0
O896 O 0.47937 0.40077 0.48937 0.0
H897 H 0.63361 0.42347 0.40183 0.0
H898 H 0.48752 0.30719 0.37852 0.0
H899 H 0.4748 0.44851 0.36329 0.0
H900 H 0.56187 0.43537 0.39549 0.0
H901 H 0.49778 0.35587 0.43923 0.0
O902 O 0.5568 0.56706 0.51211 0.0
H903 H 0.43905 0.57902 0.44998 0.0
H904 H 0.52317 0.6153 0.55754 0.0
H905 H 0.46766 0.40134 0.30212 0.0
H906 H 0.63087 0.42372 0.53261 0.0
H907 H 0.47333 0.33024 0.30922 0.0
H908 H 0.66875 0.41741 0.47074 0.0
O909 O 0.43929 0.45669 0.44916 0.0
H910 H 0.54764 0.51473 0.64461 0.0
H911 H 0.43233 0.55093 0.55703 0.0
H912 H 0.42561 0.54426 0.63084 0.0
H913 H 0.48358 0.5261 0.67516 0.0
H914 H 0.55284 0.5212 0.57063 0.0
H915 H 0.50306 0.6824 0.56223 0.0
H916 H 0.44969 0.69776 0.51025 0.0
O917 O 0.43839 0.51389 0.48901 0.0
C918 C 0.51206 0.52219 0.41257 0.0
C919 C 0.44069 0.63911 0.47675 0.0
C920 C 0.48868 0.65982 0.5376 0.0
N921 N 0.48164 0.59295 0.504 0.0
C922 C 0.45275 0.6014 0.47492 0.0
C923 C 0.49995 0.62177 0.53478 0.0
C924 C 0.45874 0.66842 0.50843 0.0
C925 C 0.57472 0.43204 0.49777 0.0
N926 N 0.55517 0.43465 0.45973 0.0
C927 C 0.61567 0.42562 0.50232 0.0
C928 C 0.63696 0.42222 0.46764 0.0
C929 C 0.61725 0.42557 0.42899 0.0
C930 C 0.57631 0.43203 0.42563 0.0
C931 C 0.48436 0.3382 0.37517 0.0
C932 C 0.47833 0.41792 0.36745 0.0
C933 C 0.4892 0.36601 0.40975 0.0
N934 N 0.48547 0.40543 0.40593 0.0
C935 C 0.47373 0.39108 0.33225 0.0
C936 C 0.47663 0.35101 0.33628 0.0
C937 C 0.41996 0.48274 0.46592 0.0
C938 C 0.52223 0.52281 0.62566 0.0
C939 C 0.45764 0.54293 0.57612 0.0
C940 C 0.4537 0.53929 0.6179 0.0
C941 C 0.48625 0.52913 0.64276 0.0
N942 N 0.49305 0.53673 0.55959 0.0
C943 C 0.52508 0.52673 0.58377 0.0
H944 H 0.26929 0.23245 0.1317 0.0
H945 H 0.13512 0.0205 0.03718 0.0
H946 H 0.23533 0.12858 0.19974 0.0
H947 H 0.11986 0.13456 0.99264 0.0
H948 H 0.19556 0.05534 0.08344 0.0
H949 H 0.2372 0.19153 0.0681 0.0
C950 C 0.25574 0.20091 0.13309 0.0
C951 C 0.25391 0.18396 0.17088 0.0
C952 C 0.17984 0.0725 0.0625 0.0
C953 C 0.21836 0.13738 0.09896 0.0
C954 C 0.1457 0.05267 0.03608 0.0
C955 C 0.12304 0.07504 0.01157 0.0
C956 C 0.19101 0.11476 0.06399 0.0
C957 C 0.1369 0.11666 0.01148 0.0
C958 C 0.23763 0.1777 0.09696 0.0
C959 C 0.23646 0.14296 0.17122 0.0
N960 N 0.16997 0.13544 0.03781 0.0
N961 N 0.21898 0.12111 0.13578 0.0
H962 H 0.02547 0.86108 0.47499 0.0
H963 H 0.24529 0.84393 0.39374 0.0
H964 H 0.13342 0.95671 0.49427 0.0
H965 H 0.14175 0.74365 0.38074 0.0
H966 H 0.20367 0.88546 0.42897 0.0
H967 H 0.06631 0.81795 0.43967 0.0
C968 C 0.05782 0.87304 0.47205 0.0
C969 C 0.07595 0.91278 0.48787 0.0
C970 C 0.1899 0.8544 0.41854 0.0
C971 C 0.123 0.86322 0.44702 0.0
C972 C 0.21376 0.83042 0.39833 0.0
C973 C 0.19729 0.78982 0.38438 0.0
C974 C 0.14886 0.83806 0.42502 0.0
C975 C 0.1559 0.77464 0.39098 0.0
C976 C 0.08113 0.84828 0.45177 0.0
C977 C 0.11805 0.92635 0.4829 0.0
N978 N 0.13314 0.79874 0.41086 0.0
N979 N 0.14001 0.90171 0.46289 0.0
H980 H 0.35677 0.93917 0.51914 0.0
H981 H 0.3248 0.78754 0.69618 0.0
H982 H 0.44744 0.87078 0.56517 0.0
H983 H 0.23552 0.862 0.6617 0.0
H984 H 0.36583 0.8126 0.64204 0.0
H985 H 0.30808 0.90653 0.56501 0.0
C986 C 0.36633 0.91711 0.53854 0.0
C987 C 0.40638 0.90785 0.53833 0.0
C988 C 0.33707 0.82326 0.64591 0.0
C989 C 0.35101 0.87063 0.59088 0.0
C990 C 0.31339 0.80875 0.67684 0.0
C991 C 0.2766 0.82277 0.68378 0.0
C992 C 0.32407 0.85209 0.6214 0.0
C993 C 0.26374 0.85045 0.65761 0.0
C994 C 0.33857 0.89858 0.56477 0.0
C995 C 0.4171 0.87916 0.56432 0.0
N996 N 0.28758 0.86442 0.62772 0.0
N997 N 0.38972 0.86176 0.58946 0.0
H998 H 0.53124 0.13441 0.9919 0.0
H999 H 0.35178 0.17895 0.82919 0.0
H1000 H 0.47114 0.05093 0.8893 0.0
H1001 H 0.42246 0.27083 0.91896 0.0
H1002 H 0.39719 0.13257 0.85011 0.0
H1003 H 0.49382 0.18577 0.9655 0.0
C1004 C 0.51052 0.12689 0.96376 0.0
C1005 C 0.5043 0.088 0.94306 0.0
C1006 C 0.40306 0.16297 0.86514 0.0
C1007 C 0.46101 0.1465 0.91291 0.0
C1008 C 0.37717 0.18963 0.85302 0.0
C1009 C 0.38292 0.22886 0.87272 0.0
C1010 C 0.43506 0.17542 0.89734 0.0
C1011 C 0.4163 0.24067 0.90359 0.0
C1012 C 0.48912 0.15622 0.94871 0.0
C1013 C 0.477 0.08019 0.90663 0.0
N1014 N 0.44088 0.21403 0.91519 0.0
N1015 N 0.45627 0.1089 0.89303 0.0
H1016 H 0.67034 0.32271 0.81588 0.0
H1017 H 0.56293 0.36456 0.01743 0.0
H1018 H 0.71525 0.27889 0.92862 0.0
H1019 H 0.60161 0.46038 0.94099 0.0
H1020 H 0.60368 0.32188 0.97964 0.0
H1021 H 0.62887 0.36244 0.85534 0.0
C1022 C 0.67096 0.32089 0.84882 0.0
C1023 C 0.69618 0.29723 0.86892 0.0
C1024 C 0.60319 0.3523 0.97136 0.0
C1025 C 0.64828 0.34226 0.91409 0.0
C1026 C 0.57997 0.37657 0.99277 0.0
C1027 C 0.57935 0.41622 0.98266 0.0
C1028 C 0.62448 0.36731 0.93861 0.0
C1029 C 0.60175 0.43022 0.95021 0.0
C1030 C 0.64753 0.34379 0.8713 0.0
C1031 C 0.69617 0.29662 0.91187 0.0
N1032 N 0.62291 0.40568 0.92905 0.0
N1033 N 0.67231 0.31851 0.93301 0.0
H1034 H 0.93098 0.36004 0.03565 0.0
H1035 H 0.76767 0.35514 0.20148 0.0
H1036 H 0.86579 0.45829 0.05941 0.0
H1037 H 0.8021 0.24677 0.14797 0.0
H1038 H 0.80424 0.39373 0.15097 0.0
H1039 H 0.88577 0.31883 0.07808 0.0
C1040 C 0.90689 0.37291 0.04939 0.0
C1041 C 0.90234 0.41289 0.04381 0.0
C1042 C 0.80337 0.36144 0.14988 0.0
C1043 C 0.85026 0.36546 0.09272 0.0
C1044 C 0.78248 0.33929 0.17877 0.0
C1045 C 0.78174 0.2975 0.1791 0.0
C1046 C 0.82439 0.34195 0.12129 0.0
C1047 C 0.80161 0.2788 0.14884 0.0
C1048 C 0.88096 0.34919 0.07354 0.0
C1049 C 0.87041 0.42764 0.06253 0.0
N1050 N 0.82253 0.30122 0.12152 0.0
N1051 N 0.8459 0.40409 0.08642 0.0
H1052 H 0.95017 0.55689 0.44418 0.0
H1053 H 0.93999 0.77481 0.36991 0.0
H1054 H 0.05609 0.62609 0.39614 0.0
H1055 H 0.83408 0.67701 0.35443 0.0
H1056 H 0.98459 0.72665 0.39057 0.0
H1057 H 0.90873 0.60697 0.42384 0.0
C1058 C 0.96501 0.58297 0.42998 0.0
C1059 C 0.00691 0.58729 0.4221 0.0
C1060 C 0.95159 0.71587 0.3825 0.0
C1061 C 0.95926 0.64509 0.39879 0.0
C1062 C 0.9261 0.7433 0.37077 0.0
C1063 C 0.88314 0.73003 0.36024 0.0
C1064 C 0.93384 0.6751 0.38487 0.0
C1065 C 0.86696 0.68874 0.36203 0.0
C1066 C 0.94112 0.61138 0.41803 0.0
C1067 C 0.02399 0.62155 0.4029 0.0
N1068 N 0.89214 0.66298 0.3745 0.0
N1069 N 1.00022 0.64928 0.39216 0.0
H1070 H 0.653 0.5223 0.52611 0.0
H1071 H 0.77967 0.73271 0.63263 0.0
H1072 H 0.61589 0.63656 0.50768 0.0
H1073 H 0.75127 0.62491 0.69609 0.0
H1074 H 0.74468 0.69458 0.56864 0.0
H1075 H 0.7151 0.55833 0.5697 0.0
C1076 C 0.65886 0.55505 0.53003 0.0
C1077 C 0.62949 0.57678 0.51411 0.0
C1078 C 0.74723 0.67924 0.59646 0.0
C1079 C 0.69978 0.61757 0.56268 0.0
C1080 C 0.76696 0.70084 0.63282 0.0
C1081 C 0.76743 0.68192 0.66956 0.0
C1082 C 0.72899 0.63847 0.59703 0.0
C1083 C 0.75076 0.64061 0.66838 0.0
C1084 C 0.69401 0.57543 0.55483 0.0
C1085 C 0.63788 0.61902 0.52008 0.0
N1086 N 0.73186 0.62022 0.63262 0.0
N1087 N 0.67227 0.63819 0.54436 0.0
H1088 H 0.30344 0.34725 0.43284 0.0
H1089 H 0.26421 0.20323 0.60928 0.0
H1090 H 0.31538 0.22171 0.41795 0.0
H1091 H 0.32112 0.3286 0.63776 0.0
H1092 H 0.2793 0.20926 0.53739 0.0
H1093 H 0.30657 0.34284 0.50782 0.0
C1094 C 0.30728 0.31909 0.44523 0.0
C1095 C 0.30809 0.28461 0.41897 0.0
C1096 C 0.28848 0.23541 0.55958 0.0
C1097 C 0.31102 0.27916 0.5038 0.0
C1098 C 0.27991 0.23188 0.60041 0.0
C1099 C 0.28966 0.26596 0.6288 0.0
C1100 C 0.30649 0.27331 0.54747 0.0
C1101 C 0.31068 0.30234 0.61611 0.0
C1102 C 0.30901 0.31652 0.48786 0.0
C1103 C 0.31339 0.24883 0.43673 0.0
N1104 N 0.31774 0.30534 0.57619 0.0
N1105 N 0.31393 0.24686 0.47787 0.0
H1106 H 0.06349 0.00654 0.86341 0.0
H1107 H 0.91614 0.97979 0.65226 0.0
H1108 H 0.94179 0.03762 0.85449 0.0
H1109 H 0.04739 0.97907 0.65737 0.0
H1110 H 0.92288 0.9935 0.7274 0.0
H1111 H 0.05827 0.99456 0.78847 0.0
C1112 C 0.03618 0.01216 0.84537 0.0
C1113 C 1.00298 0.02309 0.8649 0.0
C1114 C 0.95008 0.98952 0.71223 0.0
C1115 C 0.99573 0.00736 0.77933 0.0
C1116 C 0.94603 0.98072 0.66954 0.0
C1117 C 0.98102 0.97689 0.64897 0.0
C1118 C 0.98955 0.99495 0.73438 0.0
C1119 C 0.01946 0.98034 0.67236 0.0
C1120 C 0.03288 0.00465 0.80267 0.0
C1121 C 0.96795 0.0292 0.84036 0.0
N1122 N 0.02277 0.98938 0.71383 0.0
N1123 N 0.96484 0.02056 0.79877 0.0
H1124 H 0.28046 0.82268 0.93296 0.0
H1125 H 0.2314 0.72714 0.14052 0.0
H1126 H 0.25092 0.69421 0.94469 0.0
H1127 H 0.33964 0.82164 0.14374 0.0
H1128 H 0.22008 0.72892 0.06631 0.0
H1129 H 0.28766 0.83463 0.00876 0.0
C1130 C 0.27546 0.79709 0.95128 0.0
C1131 C 0.26482 0.75737 0.93235 0.0
C1132 C 0.24592 0.7497 0.08341 0.0
C1133 C 0.27165 0.77101 0.01805 0.0
C1134 C 0.25244 0.74881 0.12575 0.0
C1135 C 0.28714 0.77364 0.14826 0.0
C1136 C 0.27395 0.77584 0.06328 0.0
C1137 C 0.31278 0.80169 0.12744 0.0
C1138 C 0.27953 0.80399 0.99431 0.0
C1139 C 0.25881 0.72535 0.95763 0.0
N1140 N 0.30599 0.80172 0.08575 0.0
N1141 N 0.2618 0.73293 0.99903 0.0
H1142 H 0.57805 0.98472 0.3656 0.0
H1143 H 0.46161 0.86634 0.15762 0.0
H1144 H 0.46791 0.89495 0.3695 0.0
H1145 H 0.53104 0.98857 0.16779 0.0
H1146 H 0.46851 0.86766 0.23303 0.0
H1147 H 0.57071 0.97396 0.29091 0.0
C1148 C 0.55238 0.96233 0.35057 0.0
C1149 C 0.52215 0.94217 0.37344 0.0
C1150 C 0.48187 0.89419 0.21861 0.0
C1151 C 0.51365 0.92952 0.28765 0.0
C1152 C 0.47775 0.89369 0.1756 0.0
C1153 C 0.49621 0.92729 0.1561 0.0
C1154 C 0.50526 0.92826 0.2422 0.0
C1155 C 0.51654 0.96183 0.18115 0.0
C1156 C 0.54811 0.95639 0.30789 0.0
C1157 C 0.49094 0.912 0.35262 0.0
N1158 N 0.52108 0.96114 0.22274 0.0
N1159 N 0.48696 0.90693 0.31053 0.0
H1160 H 0.41051 0.28068 0.22843 0.0
H1161 H 0.60791 0.23195 0.36294 0.0
H1162 H 0.40492 0.22462 0.34243 0.0
H1163 H 0.61751 0.28197 0.24572 0.0
H1164 H 0.53329 0.2288 0.3545 0.0
H1165 H 0.48499 0.27755 0.23069 0.0
C1166 C 0.425 0.26728 0.25363 0.0
C1167 C 0.4019 0.25296 0.28537 0.0
C1168 C 0.55148 0.24046 0.33048 0.0
C1169 C 0.48686 0.25056 0.289 0.0
C1170 C 0.59433 0.24259 0.33541 0.0
C1171 C 0.61921 0.2574 0.305 0.0
C1172 C 0.53276 0.25292 0.29467 0.0
C1173 C 0.59961 0.27076 0.27011 0.0
C1174 C 0.46739 0.26552 0.25495 0.0
C1175 C 0.42175 0.23582 0.31734 0.0
N1176 N 0.55745 0.26804 0.26579 0.0
N1177 N 0.46318 0.2356 0.31862 0.0
H1178 H 0.97385 0.33515 0.52872 0.0
H1179 H 0.0479 0.14462 0.45575 0.0
H1180 H 0.05023 0.34452 0.42783 0.0
H1181 H 0.91654 0.13691 0.4643 0.0
H1182 H 0.05456 0.2175 0.44896 0.0
H1183 H 0.9565 0.26158 0.51195 0.0
C1184 C 0.98672 0.32163 0.50293 0.0
C1185 C 0.01356 0.34557 0.47967 0.0
C1186 C 0.02412 0.19952 0.45104 0.0
C1187 C 0.99454 0.26213 0.46093 0.0
C1188 C 0.0203 0.15811 0.45469 0.0
C1189 C 0.98157 0.13495 0.46004 0.0
C1190 C 0.9893 0.21783 0.45457 0.0
C1191 C 0.94679 0.15378 0.45954 0.0
C1192 C 0.97657 0.27993 0.4932 0.0
C1193 C 0.02935 0.32687 0.44639 0.0
N1194 N 0.95165 0.19449 0.45811 0.0
N1195 N 0.02034 0.28597 0.43849 0.0
H1196 H 0.91786 0.7772 0.73036 0.0
H1197 H 0.11973 0.74542 0.86846 0.0
H1198 H 0.91587 0.73069 0.84943 0.0
H1199 H 0.12399 0.77574 0.74294 0.0
H1200 H 0.04477 0.741 0.86105 0.0
H1201 H 0.99191 0.77322 0.73132 0.0
C1202 C 0.93317 0.76613 0.75665 0.0
C1203 C 0.91153 0.75558 0.79053 0.0
C1204 C 0.06186 0.74844 0.83497 0.0
C1205 C 0.99568 0.75092 0.79197 0.0
C1206 C 0.10482 0.75163 0.83937 0.0
C1207 C 0.12816 0.76133 0.80633 0.0
C1208 C 0.04163 0.75448 0.79705 0.0
C1209 C 0.10718 0.76884 0.76934 0.0
C1210 C 0.97524 0.76352 0.75705 0.0
C1211 C 0.93194 0.73988 0.82317 0.0
N1212 N 0.06493 0.76505 0.76559 0.0
N1213 N 0.9731 0.7386 0.82338 0.0
H1214 H 0.43989 0.62755 0.92328 0.0
H1215 H 0.5328 0.8272 0.04235 0.0
H1216 H 0.56433 0.64627 0.98491 0.0
H1217 H 0.49505 0.83922 0.91465 0.0
H1218 H 0.5299 0.75532 0.02534 0.0
H1219 H 0.44803 0.7009 0.91828 0.0
C1220 C 0.46949 0.64677 0.93411 0.0
C1221 C 0.50121 0.63113 0.95541 0.0
C1222 C 0.52231 0.77388 0.00113 0.0
C1223 C 0.50989 0.71395 0.95083 0.0
C1224 C 0.52368 0.81481 0.01079 0.0
C1225 C 0.51475 0.83944 0.97978 0.0
C1226 C 0.51088 0.75717 0.96048 0.0
C1227 C 0.50252 0.82132 0.93943 0.0
C1228 C 0.47391 0.6885 0.93151 0.0
C1229 C 0.53884 0.65732 0.96903 0.0
N1230 N 0.50062 0.78094 0.93085 0.0
N1231 N 0.54167 0.69768 0.96773 0.0
H1232 H 0.62941 0.78377 0.21077 0.0
H1233 H 0.44087 0.771 0.35192 0.0
H1234 H 0.64624 0.79044 0.34355 0.0
H1235 H 0.42362 0.73744 0.22089 0.0
H1236 H 0.51598 0.78491 0.34878 0.0
H1237 H 0.55417 0.77357 0.2135 0.0
C1238 C 0.6174 0.78337 0.24056 0.0
C1239 C 0.64446 0.78792 0.27701 0.0
C1240 C 0.49579 0.77442 0.32072 0.0
C1241 C 0.55791 0.77625 0.28024 0.0
C1242 C 0.45275 0.76645 0.32243 0.0
C1243 C 0.42557 0.75275 0.28661 0.0
C1244 C 0.51211 0.76886 0.28292 0.0
C1245 C 0.44317 0.74778 0.24935 0.0
C1246 C 0.57432 0.77737 0.24204 0.0
C1247 C 0.62677 0.78698 0.31462 0.0
N1248 N 0.48524 0.75582 0.24849 0.0
N1249 N 0.58472 0.78129 0.31524 0.0
H1250 H 0.46021 0.13767 0.50252 0.0
H1251 H 0.53026 0.37069 0.58752 0.0
H1252 H 0.58573 0.19105 0.55172 0.0
H1253 H 0.42989 0.3276 0.49213 0.0
H1254 H 0.54063 0.30081 0.59252 0.0
H1255 H 0.43952 0.20325 0.51603 0.0
C1256 C 0.48323 0.16289 0.51708 0.0
C1257 C 0.52489 0.15889 0.5258 0.0
C1258 C 0.51571 0.30663 0.57122 0.0
C1259 C 0.5012 0.23392 0.54159 0.0
C1260 C 0.5094 0.3464 0.56876 0.0
C1261 C 0.47907 0.35489 0.53949 0.0
C1262 C 0.49112 0.27519 0.54465 0.0
C1263 C 0.45355 0.3223 0.5152 0.0
C1264 C 0.4714 0.20036 0.52454 0.0
C1265 C 0.55336 0.19281 0.54432 0.0
N1266 N 0.46031 0.28393 0.51812 0.0
N1267 N 0.54104 0.22892 0.55146 0.0
H1268 H 0.13156 0.27904 0.7137 0.0
H1269 H 0.94269 0.26275 0.85529 0.0
H1270 H 0.14852 0.28245 0.84627 0.0
H1271 H 0.92623 0.23475 0.72337 0.0
H1272 H 0.01815 0.27504 0.85265 0.0
H1273 H 0.0562 0.268 0.71669 0.0
C1274 C 0.11952 0.27768 0.74345 0.0
C1275 C 0.14658 0.28161 0.77976 0.0
C1276 C 0.99796 0.26609 0.82433 0.0
C1277 C 0.06012 0.26913 0.78342 0.0
C1278 C 0.9548 0.25907 0.82579 0.0
C1279 C 0.92777 0.24769 0.78952 0.0
C1280 C 0.01439 0.26187 0.78631 0.0
C1281 C 0.94559 0.24349 0.75221 0.0
C1282 C 0.07643 0.27124 0.74513 0.0
C1283 C 0.12898 0.27942 0.81742 0.0
N1284 N 0.98761 0.25065 0.7516 0.0
N1285 N 0.08698 0.27344 0.81826 0.0
H1286 H 0.90987 0.80529 0.02846 0.0
H1287 H 0.08066 0.67139 0.0221 0.0
H1288 H 0.03991 0.85773 0.02968 0.0
H1289 H 0.96866 0.63236 0.07918 0.0
H1290 H 0.06679 0.74034 0.02606 0.0
H1291 H 0.92983 0.74225 0.04881 0.0
C1292 C 0.94258 0.80387 0.03377 0.0
C1293 C 0.97319 0.83685 0.02698 0.0
C1294 C 0.04576 0.71698 0.03873 0.0
C1295 C 0.99615 0.76453 0.0493 0.0
C1296 C 0.05381 0.67766 0.03667 0.0
C1297 C 0.02602 0.64624 0.05077 0.0
C1298 C 0.00897 0.72481 0.05388 0.0
C1299 C 0.9912 0.65585 0.06857 0.0
C1300 C 0.95395 0.76787 0.04539 0.0
C1301 C 0.01514 0.83319 0.03441 0.0
N1302 N 0.98316 0.69414 0.06882 0.0
N1303 N 0.02531 0.79748 0.04429 0.0
H1304 H 0.29684 0.41918 0.35436 0.0
H1305 H 0.22337 0.63292 0.34926 0.0
H1306 H 0.18086 0.43365 0.2908 0.0
H1307 H 0.35223 0.6219 0.35411 0.0
H1308 H 0.2039 0.55896 0.34779 0.0
H1309 H 0.31524 0.49274 0.37007 0.0
C1310 C 0.27549 0.43786 0.34332 0.0
C1311 C 0.23863 0.42043 0.3189 0.0
C1312 C 0.2365 0.57284 0.35047 0.0
C1313 C 0.25681 0.50415 0.34175 0.0
C1314 C 0.24766 0.61508 0.35217 0.0
C1315 C 0.28952 0.63357 0.35263 0.0
C1316 C 0.26752 0.54903 0.34985 0.0
C1317 C 0.31968 0.60886 0.35456 0.0
C1318 C 0.28546 0.47971 0.35331 0.0
C1319 C 0.21022 0.44578 0.30882 0.0
N1320 N 0.30813 0.5679 0.35292 0.0
N1321 N 0.21987 0.48629 0.32029 0.0
H1322 H 0.8475 0.11799 0.81637 0.0
H1323 H 0.7124 0.91567 0.86737 0.0
H1324 H 0.72762 0.12529 0.85728 0.0
H1325 H 0.76993 0.92597 0.75401 0.0
H1326 H 0.72163 0.98998 0.87627 0.0
H1327 H 0.82941 0.04425 0.8117 0.0
C1328 C 0.81788 0.10399 0.82582 0.0
C1329 C 0.78908 0.12777 0.83744 0.0
C1330 C 0.73255 0.97558 0.84997 0.0
C1331 C 0.76785 0.04335 0.83118 0.0
C1332 C 0.72687 0.9333 0.84436 0.0
C1333 C 0.74183 0.91432 0.81053 0.0
C1334 C 0.75489 0.99891 0.82281 0.0
C1335 C 0.75945 0.93903 0.78142 0.0
C1336 C 0.80735 0.06199 0.82245 0.0
C1337 C 0.75092 0.10806 0.84886 0.0
N1338 N 0.76672 0.97997 0.78888 0.0
N1339 N 0.74118 0.06675 0.84521 0.0
H1340 H 0.34421 0.47778 0.07177 0.0
H1341 H 0.15541 0.51221 0.92076 0.0
H1342 H 0.36813 0.55139 0.9711 0.0
H1343 H 0.14921 0.51921 0.05164 0.0
H1344 H 0.2314 0.51601 0.93251 0.0
H1345 H 0.26972 0.47994 0.05908 0.0
C1346 C 0.33372 0.49432 0.04697 0.0
C1347 C 0.36236 0.51484 0.02278 0.0
C1348 C 0.21336 0.51709 0.9586 0.0
C1349 C 0.27723 0.51648 0.00738 0.0
C1350 C 0.17029 0.51567 0.95188 0.0
C1351 C 0.14643 0.51721 0.98526 0.0
C1352 C 0.2322 0.51782 0.99896 0.0
C1353 C 0.16663 0.51868 0.02508 0.0
C1354 C 0.29134 0.49565 0.03984 0.0
C1355 C 0.34709 0.53568 0.99085 0.0
N1356 N 0.20818 0.51855 0.03083 0.0
N1357 N 0.30551 0.53561 0.98374 0.0
H1358 H 0.83919 0.10172 0.27474 0.0
H1359 H 0.75646 0.89792 0.37451 0.0
H1360 H 0.7607 0.09536 0.37412 0.0
H1361 H 0.85667 0.90966 0.29731 0.0
H1362 H 0.76165 0.97155 0.37934 0.0
H1363 H 0.84953 0.03255 0.28497 0.0
C1364 C 0.82465 0.08608 0.299 0.0
C1365 C 0.79843 0.10411 0.323 0.0
C1366 C 0.78302 0.95814 0.36181 0.0
C1367 C 0.80959 0.02507 0.33462 0.0
C1368 C 0.78068 0.91619 0.35995 0.0
C1369 C 0.80647 0.89781 0.33575 0.0
C1370 C 0.81051 0.98158 0.33828 0.0
C1371 C 0.83581 0.9227 0.31565 0.0
C1372 C 0.83038 0.04657 0.30477 0.0
C1373 C 0.78034 0.08236 0.3541 0.0
N1374 N 0.83643 0.96313 0.3165 0.0
N1375 N 0.78583 0.04397 0.35865 0.0
H1376 H 0.86892 0.02999 0.94825 0.0
H1377 H 0.64714 0.89737 0.97469 0.0
H1378 H 0.85384 0.90582 0.97718 0.0
H1379 H 0.66661 0.02348 0.95315 0.0
H1380 H 0.72097 0.8972 0.96866 0.0
H1381 H 0.79409 0.02524 0.94286 0.0
C1382 C 0.84987 0.00167 0.95381 0.0
C1383 C 0.86802 0.96852 0.96413 0.0
C1384 C 0.70912 0.92481 0.96481 0.0
C1385 C 0.78131 0.96293 0.95811 0.0
C1386 C 0.66695 0.92487 0.96785 0.0
C1387 C 0.6507 0.96038 0.96366 0.0
C1388 C 0.73556 0.9608 0.95835 0.0
C1389 C 0.67769 0.99531 0.95566 0.0
C1390 C 0.80692 0.99898 0.95056 0.0
C1391 C 0.84133 0.93228 0.96966 0.0
N1392 N 0.7189 0.99478 0.95393 0.0
N1393 N 0.79929 0.93058 0.967 0.0
H1394 H 0.35156 0.61346 0.87509 0.0
H1395 H 0.23721 0.3906 0.87594 0.0
H1396 H 0.23766 0.57032 0.79583 0.0
H1397 H 0.358 0.40625 0.83147 0.0
H1398 H 0.23997 0.46395 0.87718 0.0
H1399 H 0.35711 0.54267 0.88427 0.0
C1400 C 0.32792 0.58934 0.85947 0.0
C1401 C 0.29375 0.59802 0.83509 0.0
C1402 C 0.26629 0.45129 0.86823 0.0
C1403 C 0.29923 0.51793 0.84691 0.0
C1404 C 0.26531 0.40979 0.86869 0.0
C1405 C 0.29787 0.39264 0.85435 0.0
C1406 C 0.3 0.47547 0.85324 0.0
C1407 C 0.33244 0.41849 0.84289 0.0
C1408 C 0.33103 0.54918 0.86499 0.0
C1409 C 0.26406 0.56537 0.8156 0.0
N1410 N 0.33205 0.45856 0.84116 0.0
N1411 N 0.26711 0.52682 0.8225 0.0
H1412 H 0.15289 0.4032 0.46081 0.0
H1413 H 0.37525 0.54335 0.46456 0.0
H1414 H 0.1703 0.53135 0.44932 0.0
H1415 H 0.35858 0.41325 0.45155 0.0
H1416 H 0.30044 0.53868 0.45747 0.0
H1417 H 0.22669 0.40509 0.45341 0.0
C1418 C 0.17214 0.43164 0.45567 0.0
C1419 C 0.15533 0.4672 0.45554 0.0
C1420 C 0.31291 0.51105 0.45579 0.0
C1421 C 0.2405 0.46981 0.44855 0.0
C1422 C 0.35595 0.51363 0.45971 0.0
C1423 C 0.37377 0.47863 0.45807 0.0
C1424 C 0.28671 0.47307 0.45053 0.0
C1425 C 0.3465 0.44107 0.45213 0.0
C1426 C 0.21437 0.43271 0.45175 0.0
C1427 C 0.18177 0.50319 0.44914 0.0
N1428 N 0.30438 0.43928 0.44885 0.0
N1429 N 0.22314 0.50368 0.44657 0.0
H1430 H 0.76398 0.83517 0.92093 0.0
H1431 H 0.8288 0.7272 0.12043 0.0
H1432 H 0.84733 0.74982 0.92003 0.0
H1433 H 0.71837 0.7796 0.10467 0.0
H1434 H 0.84339 0.74249 0.0504 0.0
H1435 H 0.75743 0.82642 0.99411 0.0
C1436 C 0.78164 0.81541 0.93641 0.0
C1437 C 0.8056 0.79262 0.91452 0.0
C1438 C 0.81574 0.75021 0.06224 0.0
C1439 C 0.79782 0.78189 0.99731 0.0
C1440 C 0.80704 0.74086 0.10189 0.0
C1441 C 0.77218 0.75189 0.11827 0.0
C1442 C 0.78952 0.77091 0.03914 0.0
C1443 C 0.74558 0.77049 0.0932 0.0
C1444 C 0.77752 0.80999 0.97791 0.0
C1445 C 0.82794 0.76737 0.93588 0.0
N1446 N 0.755 0.77975 0.05509 0.0
N1447 N 0.82322 0.76235 0.97602 0.0
H1448 H 0.45153 0.54697 0.36406 0.0
H1449 H 0.54589 0.4709 0.16076 0.0
H1450 H 0.57359 0.51688 0.36402 0.0
H1451 H 0.42438 0.50239 0.16024 0.0
H1452 H 0.55631 0.48653 0.23576 0.0
H1453 H 0.44234 0.53494 0.28877 0.0
C1454 C 0.47714 0.53976 0.34801 0.0
C1455 C 0.51348 0.53322 0.37006 0.0
C1456 C 0.52704 0.48933 0.21935 0.0
C1457 C 0.50274 0.51773 0.28445 0.0
C1458 C 0.52083 0.47954 0.17674 0.0
C1459 C 0.484 0.4847 0.15469 0.0
C1460 C 0.49619 0.50445 0.23976 0.0
C1461 C 0.45301 0.49755 0.17647 0.0
C1462 C 0.47158 0.53196 0.30513 0.0
C1463 C 0.54528 0.52263 0.34794 0.0
N1464 N 0.45987 0.50722 0.21775 0.0
N1465 N 0.53898 0.51467 0.30642 0.0
H1466 H 0.73268 0.31763 0.43531 0.0
H1467 H 0.84915 0.26018 0.64091 0.0
H1468 H 0.79762 0.21754 0.44361 0.0
H1469 H 0.74618 0.32328 0.64508 0.0
H1470 H 0.84421 0.26141 0.56643 0.0
H1471 H 0.74896 0.33427 0.51014 0.0
C1472 C 0.75066 0.29945 0.45279 0.0
C1473 C 0.76359 0.26595 0.4334 0.0
C1474 C 0.82305 0.27559 0.58356 0.0
C1475 C 0.78278 0.28524 0.51818 0.0
C1476 C 0.82605 0.27518 0.62608 0.0
C1477 C 0.79775 0.29135 0.64899 0.0
C1478 C 0.79129 0.292 0.56354 0.0
C1479 C 0.76858 0.31059 0.62839 0.0
C1480 C 0.75981 0.30892 0.49533 0.0
C1481 C 0.7867 0.24335 0.45736 0.0
N1482 N 0.76559 0.30984 0.58648 0.0
N1483 N 0.79558 0.25345 0.4984 0.0
H1484 H 0.05363 0.40828 0.66448 0.0
H1485 H 0.94428 0.48162 0.85543 0.0
H1486 H 0.9429 0.45974 0.65085 0.0
H1487 H 0.04034 0.41022 0.8668 0.0
H1488 H 0.93945 0.46919 0.78068 0.0
H1489 H 0.04644 0.40465 0.7377 0.0
C1490 C 0.02793 0.41915 0.67705 0.0
C1491 C 0.99954 0.43543 0.65177 0.0
C1492 C 0.96109 0.45554 0.79934 0.0
C1493 C 0.99051 0.43077 0.73592 0.0
C1494 C 0.96389 0.46268 0.8421 0.0
C1495 C 0.99278 0.44699 0.86737 0.0
C1496 C 0.98803 0.43313 0.78136 0.0
C1497 C 0.01721 0.42237 0.84849 0.0
C1498 C 0.0235 0.41657 0.71885 0.0
C1499 C 0.96573 0.44738 0.66936 0.0
N1500 N 0.01474 0.41671 0.80656 0.0
N1501 N 0.96248 0.44538 0.71051 0.0
H1502 H 0.8558 0.03831 0.58736 0.0
H1503 H 0.64902 0.99589 0.43074 0.0
H1504 H 0.85451 0.00434 0.4582 0.0
H1505 H 0.65536 0.05921 0.55072 0.0
H1506 H 0.72428 0.99835 0.44036 0.0
H1507 H 0.78195 0.04478 0.57583 0.0
C1508 C 0.83986 0.03282 0.55661 0.0
C1509 C 0.86087 0.02109 0.52377 0.0
C1510 C 0.70947 0.01225 0.46443 0.0
C1511 C 0.7771 0.02783 0.51004 0.0
C1512 C 0.66663 0.01106 0.45879 0.0
C1513 C 0.64644 0.02821 0.4896 0.0
C1514 C 0.73212 0.02954 0.50181 0.0
C1515 C 0.67018 0.04656 0.52589 0.0
C1516 C 0.79796 0.03632 0.54995 0.0
C1517 C 0.83915 0.01302 0.48442 0.0
N1518 N 0.71179 0.0464 0.53121 0.0
N1519 N 0.79845 0.01647 0.47864 0.0
loop_
_geom_bond_atom_site_label_1
_geom_bond_atom_site_label_2
_geom_bond_distance
_geom_bond_site_symmetry_2
_ccdc_geom_bond_type
Co0 O2 2.143 . S
Co0 O8 2.074 . S
Co0 O11 2.093 . S
Co0 O24 2.097 . S
Co0 N41 2.151 . S
Co0 N49 2.214 . S
Co1 O2 2.160 . S
Co1 O7 2.058 . S
Co1 O17 2.057 . S
Co1 O32 2.037 . S
Co1 N36 2.145 . S
Co1 N57 2.257 . S
O2 Co0 2.143 . S
O2 Co1 2.160 . S
C3 O4 1.278 . S
C3 O11 1.224 . S
O4 C3 1.278 . S
C5 O6 1.245 . S
C5 O17 1.232 . S
O6 C5 1.245 . S
O7 Co1 2.058 . S
O7 C33 1.269 . S
O8 Co0 2.074 . S
O8 C33 1.257 . S
H9 C34 0.930 . S
H10 C40 0.930 . S
O11 Co0 2.093 . S
O11 C3 1.224 . S
H12 C44 0.929 . S
H13 C46 0.930 . S
H14 C47 0.930 . S
H15 C45 0.929 . S
H16 C48 0.928 . S
O17 Co1 2.057 . S
O17 C5 1.232 . S
H18 C37 0.929 . S
H19 C38 0.929 . S
H20 C50 0.931 . S
H21 C42 0.929 . S
H22 C51 0.930 . S
H23 C43 0.931 . S
O24 Co0 2.097 . S
O24 C52 1.214 . S
H25 C53 0.929 . S
H26 C54 0.929 . S
H27 C55 0.930 . S
H28 C56 0.929 . S
H29 C58 0.930 . S
H30 C35 0.930 . S
H31 C39 0.930 . S
O32 Co1 2.037 . S
O32 C52 1.234 . S
C33 O7 1.269 . S
C33 O8 1.257 . S
C34 H9 0.930 . S
C34 C37 1.388 . S
C34 C39 1.418 . S
C35 H30 0.930 . S
C35 C38 1.404 . S
C35 C39 1.353 . S
N36 Co1 2.145 . S
N36 C37 1.397 . S
N36 C38 1.334 . S
C37 H18 0.929 . S
C37 C34 1.388 . S
C37 N36 1.397 . S
C38 H19 0.929 . S
C38 C35 1.404 . S
C38 N36 1.334 . S
C39 H31 0.930 . S
C39 C34 1.418 . S
C39 C35 1.353 . S
C40 H10 0.930 . S
C40 N41 1.330 . S
C40 C42 1.446 . S
N41 Co0 2.151 . S
N41 C40 1.330 . S
N41 C45 1.418 . S
C42 H21 0.929 . S
C42 C40 1.446 . S
C42 C43 1.332 . S
C43 H23 0.931 . S
C43 C42 1.332 . S
C43 C44 1.267 . S
C44 H12 0.929 . S
C44 C43 1.267 . S
C44 C45 1.251 . S
C45 H15 0.929 . S
C45 N41 1.418 . S
C45 C44 1.251 . S
C46 H13 0.930 . S
C46 C48 1.406 . S
C46 C51 1.261 . S
C47 H14 0.930 . S
C47 N49 1.325 . S
C47 C50 1.357 . S
C48 H16 0.928 . S
C48 C46 1.406 . S
C48 N49 1.261 . S
N49 Co0 2.214 . S
N49 C47 1.325 . S
N49 C48 1.261 . S
C50 H20 0.931 . S
C50 C47 1.357 . S
C50 C51 1.312 . S
C51 H22 0.930 . S
C51 C46 1.261 . S
C51 C50 1.312 . S
C52 O24 1.214 . S
C52 O32 1.234 . S
C53 H25 0.929 . S
C53 C56 1.391 . S
C53 C58 1.391 . S
C54 H26 0.929 . S
C54 C55 1.390 . S
C54 N57 1.391 . S
C55 H27 0.930 . S
C55 C54 1.390 . S
C55 C56 1.392 . S
C56 H28 0.929 . S
C56 C53 1.391 . S
C56 C55 1.392 . S
N57 Co1 2.257 . S
N57 C54 1.391 . S
N57 C58 1.388 . S
C58 H29 0.930 . S
C58 C53 1.391 . S
C58 N57 1.388 . S
Co59 O61 2.143 . S
Co59 O67 2.074 . S
Co59 O70 2.093 . S
Co59 O83 2.097 . S
Co59 N100 2.151 1_655 S
Co59 N108 2.214 . S
Co60 O61 2.160 1_565 S
Co60 O66 2.058 . S
Co60 O76 2.057 1_655 S
Co60 O91 2.037 . S
Co60 N95 2.145 . S
Co60 N116 2.257 . S
O61 Co59 2.143 . S
O61 Co60 2.160 1_545 S
C62 O63 1.278 . S
C62 O70 1.224 . S
O63 C62 1.278 . S
C64 O65 1.245 1_565 S
C64 O76 1.232 . S
O65 C64 1.245 1_545 S
O66 Co60 2.058 . S
O66 C92 1.269 . S
O67 Co59 2.074 . S
O67 C92 1.257 1_545 S
H68 C93 0.930 . S
H69 C99 0.930 . S
O70 Co59 2.093 . S
O70 C62 1.224 . S
H71 C103 0.929 . S
H72 C105 0.930 . S
H73 C106 0.930 . S
H74 C104 0.929 . S
H75 C107 0.928 . S
O76 Co60 2.057 1_455 S
O76 C64 1.232 . S
H77 C96 0.929 . S
H78 C97 0.929 . S
H79 C109 0.931 . S
H80 C101 0.929 . S
H81 C110 0.930 . S
H82 C102 0.931 . S
O83 Co59 2.097 . S
O83 C111 1.214 . S
H84 C112 0.929 . S
H85 C113 0.929 . S
H86 C114 0.930 . S
H87 C115 0.929 1_545 S
H88 C117 0.930 1_545 S
H89 C94 0.930 . S
H90 C98 0.930 . S
O91 Co60 2.037 . S
O91 C111 1.234 1_565 S
C92 O66 1.269 . S
C92 O67 1.257 1_565 S
C93 H68 0.930 . S
C93 C96 1.388 . S
C93 C98 1.418 . S
C94 H89 0.930 . S
C94 C97 1.404 . S
C94 C98 1.353 . S
N95 Co60 2.145 . S
N95 C96 1.397 . S
N95 C97 1.334 . S
C96 H77 0.929 . S
C96 C93 1.388 . S
C96 N95 1.397 . S
C97 H78 0.929 . S
C97 C94 1.404 . S
C97 N95 1.334 . S
C98 H90 0.930 . S
C98 C93 1.418 . S
C98 C94 1.353 . S
C99 H69 0.930 . S
C99 N100 1.330 . S
C99 C101 1.446 . S
N100 Co59 2.151 1_455 S
N100 C99 1.330 . S
N100 C104 1.418 . S
C101 H80 0.929 . S
C101 C99 1.446 . S
C101 C102 1.332 . S
C102 H82 0.931 . S
C102 C101 1.332 . S
C102 C103 1.267 . S
C103 H71 0.929 . S
C103 C102 1.267 . S
C103 C104 1.251 . S
C104 H74 0.929 . S
C104 N100 1.418 . S
C104 C103 1.251 . S
C105 H72 0.930 . S
C105 C107 1.406 . S
C105 C110 1.261 . S
C106 H73 0.930 . S
C106 N108 1.325 . S
C106 C109 1.357 . S
C107 H75 0.928 . S
C107 C105 1.406 . S
C107 N108 1.261 . S
N108 Co59 2.214 . S
N108 C106 1.325 . S
N108 C107 1.261 . S
C109 H79 0.931 . S
C109 C106 1.357 . S
C109 C110 1.312 . S
C110 H81 0.930 . S
C110 C105 1.261 . S
C110 C109 1.312 . S
C111 O83 1.214 . S
C111 O91 1.234 1_545 S
C112 H84 0.929 . S
C112 C115 1.391 1_545 S
C112 C117 1.389 1_545 S
C113 H85 0.929 . S
C113 C114 1.390 . S
C113 N116 1.391 . S
C114 H86 0.930 . S
C114 C113 1.390 . S
C114 C115 1.392 . S
C115 H87 0.929 1_565 S
C115 C112 1.391 1_565 S
C115 C114 1.392 . S
N116 Co60 2.257 . S
N116 C113 1.391 . S
N116 C117 1.391 . S
C117 H88 0.930 1_565 S
C117 C112 1.389 1_565 S
C117 N116 1.391 . S
Co118 O120 2.143 . S
Co118 O126 2.074 . S
Co118 O129 2.093 . S
Co118 O142 2.097 . S
Co118 N159 2.151 . S
Co118 N167 2.214 . S
Co119 O120 2.160 . S
Co119 O125 2.058 . S
Co119 O135 2.057 . S
Co119 O150 2.037 . S
Co119 N154 2.145 . S
Co119 N175 2.257 . S
O120 Co118 2.143 . S
O120 Co119 2.160 . S
C121 O122 1.278 . S
C121 O129 1.224 . S
O122 C121 1.278 . S
C123 O124 1.245 . S
C123 O135 1.232 . S
O124 C123 1.245 . S
O125 Co119 2.058 . S
O125 C151 1.269 . S
O126 Co118 2.074 . S
O126 C151 1.257 . S
H127 C152 0.930 . S
H128 C158 0.930 . S
O129 Co118 2.093 . S
O129 C121 1.224 . S
H130 C162 0.929 . S
H131 C164 0.930 . S
H132 C165 0.930 . S
H133 C163 0.929 . S
H134 C166 0.928 . S
O135 Co119 2.057 . S
O135 C123 1.232 . S
H136 C155 0.929 . S
H137 C156 0.929 . S
H138 C168 0.931 . S
H139 C160 0.929 . S
H140 C169 0.930 . S
H141 C161 0.931 . S
O142 Co118 2.097 . S
O142 C170 1.214 . S
H143 C171 0.929 . S
H144 C172 0.929 . S
H145 C173 0.930 . S
H146 C174 0.929 . S
H147 C176 0.930 . S
H148 C153 0.930 . S
H149 C157 0.930 . S
O150 Co119 2.037 . S
O150 C170 1.234 . S
C151 O125 1.269 . S
C151 O126 1.257 . S
C152 H127 0.930 . S
C152 C155 1.388 . S
C152 C157 1.418 . S
C153 H148 0.930 . S
C153 C156 1.404 . S
C153 C157 1.353 . S
N154 Co119 2.145 . S
N154 C155 1.397 . S
N154 C156 1.334 . S
C155 H136 0.929 . S
C155 C152 1.388 . S
C155 N154 1.397 . S
C156 H137 0.929 . S
C156 C153 1.404 . S
C156 N154 1.334 . S
C157 H149 0.930 . S
C157 C152 1.418 . S
C157 C153 1.353 . S
C158 H128 0.930 . S
C158 N159 1.330 . S
C158 C160 1.446 . S
N159 Co118 2.151 . S
N159 C158 1.330 . S
N159 C163 1.418 . S
C160 H139 0.929 . S
C160 C158 1.446 . S
C160 C161 1.332 . S
C161 H141 0.931 . S
C161 C160 1.332 . S
C161 C162 1.267 . S
C162 H130 0.929 . S
C162 C161 1.267 . S
C162 C163 1.251 . S
C163 H133 0.929 . S
C163 N159 1.418 . S
C163 C162 1.251 . S
C164 H131 0.930 . S
C164 C166 1.406 . S
C164 C169 1.261 . S
C165 H132 0.930 . S
C165 N167 1.325 . S
C165 C168 1.357 . S
C166 H134 0.928 . S
C166 C164 1.406 . S
C166 N167 1.261 . S
N167 Co118 2.214 . S
N167 C165 1.325 . S
N167 C166 1.261 . S
C168 H138 0.931 . S
C168 C165 1.357 . S
C168 C169 1.312 . S
C169 H140 0.930 . S
C169 C164 1.261 . S
C169 C168 1.312 . S
C170 O142 1.214 . S
C170 O150 1.234 . S
C171 H143 0.929 . S
C171 C174 1.391 . S
C171 C176 1.391 . S
C172 H144 0.929 . S
C172 C173 1.390 . S
C172 N175 1.391 . S
C173 H145 0.930 . S
C173 C172 1.390 . S
C173 C174 1.392 . S
C174 H146 0.929 . S
C174 C171 1.391 . S
C174 C173 1.392 . S
N175 Co119 2.257 . S
N175 C172 1.391 . S
N175 C176 1.388 . S
C176 H147 0.930 . S
C176 C171 1.391 . S
C176 N175 1.388 . S
Co177 O179 2.143 . S
Co177 O185 2.074 1_554 S
Co177 O188 2.093 . S
Co177 O201 2.097 . S
Co177 N218 2.151 . S
Co177 N226 2.214 . S
Co178 O179 2.160 1_556 S
Co178 O184 2.058 . S
Co178 O194 2.057 . S
Co178 O209 2.037 . S
Co178 N213 2.145 . S
Co178 N234 2.257 . S
O179 Co177 2.143 . S
O179 Co178 2.160 1_554 S
C180 O181 1.278 . S
C180 O188 1.224 . S
O181 C180 1.278 . S
C182 O183 1.245 . S
C182 O194 1.232 1_545 S
O183 C182 1.245 . S
O184 Co178 2.058 . S
O184 C210 1.269 . S
O185 Co177 2.074 1_556 S
O185 C210 1.257 . S
H186 C211 0.930 . S
H187 C217 0.930 . S
O188 Co177 2.093 . S
O188 C180 1.224 . S
H189 C221 0.929 . S
H190 C223 0.930 . S
H191 C224 0.930 . S
H192 C222 0.929 1_565 S
H193 C225 0.928 . S
O194 Co178 2.057 . S
O194 C182 1.232 1_565 S
H195 C214 0.929 . S
H196 C215 0.929 . S
H197 C227 0.931 . S
H198 C219 0.929 . S
H199 C228 0.930 . S
H200 C220 0.931 . S
O201 Co177 2.097 . S
O201 C229 1.214 1_554 S
H202 C230 0.929 . S
H203 C231 0.929 . S
H204 C232 0.930 . S
H205 C233 0.929 . S
H206 C235 0.930 . S
H207 C212 0.930 . S
H208 C216 0.930 . S
O209 Co178 2.037 . S
O209 C229 1.234 . S
C210 O184 1.269 . S
C210 O185 1.257 . S
C211 H186 0.930 . S
C211 C214 1.388 . S
C211 C216 1.418 . S
C212 H207 0.930 . S
C212 C215 1.404 . S
C212 C216 1.353 . S
N213 Co178 2.145 . S
N213 C214 1.397 . S
N213 C215 1.334 . S
C214 H195 0.929 . S
C214 C211 1.388 . S
C214 N213 1.397 . S
C215 H196 0.929 . S
C215 C212 1.404 . S
C215 N213 1.334 . S
C216 H208 0.930 . S
C216 C211 1.418 . S
C216 C212 1.353 . S
C217 H187 0.930 . S
C217 N218 1.330 1_545 S
C217 C219 1.446 . S
N218 Co177 2.151 . S
N218 C217 1.330 1_565 S
N218 C222 1.418 1_565 S
C219 H198 0.929 . S
C219 C217 1.446 . S
C219 C220 1.332 . S
C220 H200 0.931 . S
C220 C219 1.332 . S
C220 C221 1.267 . S
C221 H189 0.929 . S
C221 C220 1.267 . S
C221 C222 1.251 . S
C222 H192 0.929 1_545 S
C222 N218 1.418 1_545 S
C222 C221 1.251 . S
C223 H190 0.930 . S
C223 C225 1.406 . S
C223 C228 1.261 . S
C224 H191 0.930 . S
C224 N226 1.325 . S
C224 C227 1.357 . S
C225 H193 0.928 . S
C225 C223 1.406 . S
C225 N226 1.261 . S
N226 Co177 2.214 . S
N226 C224 1.325 . S
N226 C225 1.261 . S
C227 H197 0.931 . S
C227 C224 1.357 . S
C227 C228 1.312 . S
C228 H199 0.930 . S
C228 C223 1.261 . S
C228 C227 1.312 . S
C229 O201 1.214 1_556 S
C229 O209 1.234 . S
C230 H202 0.929 . S
C230 C233 1.391 . S
C230 C235 1.391 . S
C231 H203 0.929 . S
C231 C232 1.390 . S
C231 N234 1.391 . S
C232 H204 0.930 . S
C232 C231 1.390 . S
C232 C233 1.392 . S
C233 H205 0.929 . S
C233 C230 1.391 . S
C233 C232 1.392 . S
N234 Co178 2.257 . S
N234 C231 1.391 . S
N234 C235 1.388 . S
C235 H206 0.930 . S
C235 C230 1.391 . S
C235 N234 1.388 . S
Co236 O238 2.143 . S
Co236 O244 2.074 . S
Co236 O247 2.093 . S
Co236 O260 2.097 . S
Co236 N277 2.151 . S
Co236 N285 2.214 . S
Co237 O238 2.160 . S
Co237 O243 2.058 . S
Co237 O253 2.057 . S
Co237 O268 2.037 . S
Co237 N272 2.145 . S
Co237 N293 2.257 . S
O238 Co236 2.143 . S
O238 Co237 2.160 . S
C239 O240 1.278 . S
C239 O247 1.224 . S
O240 C239 1.278 . S
C241 O242 1.245 . S
C241 O253 1.232 . S
O242 C241 1.245 . S
O243 Co237 2.058 . S
O243 C269 1.269 . S
O244 Co236 2.074 . S
O244 C269 1.257 . S
H245 C270 0.930 . S
H246 C276 0.930 . S
O247 Co236 2.093 . S
O247 C239 1.224 . S
H248 C280 0.929 . S
H249 C282 0.930 . S
H250 C283 0.930 . S
H251 C281 0.929 . S
H252 C284 0.928 . S
O253 Co237 2.057 . S
O253 C241 1.232 . S
H254 C273 0.929 . S
H255 C274 0.929 . S
H256 C286 0.931 . S
H257 C278 0.929 . S
H258 C287 0.930 . S
H259 C279 0.931 . S
O260 Co236 2.097 . S
O260 C288 1.214 . S
H261 C289 0.929 . S
H262 C290 0.929 . S
H263 C291 0.930 . S
H264 C292 0.929 . S
H265 C294 0.930 . S
H266 C271 0.930 . S
H267 C275 0.930 . S
O268 Co237 2.037 . S
O268 C288 1.234 . S
C269 O243 1.269 . S
C269 O244 1.257 . S
C270 H245 0.930 . S
C270 C273 1.388 . S
C270 C275 1.418 . S
C271 H266 0.930 . S
C271 C274 1.404 . S
C271 C275 1.353 . S
N272 Co237 2.145 . S
N272 C273 1.397 . S
N272 C274 1.334 . S
C273 H254 0.929 . S
C273 C270 1.388 . S
C273 N272 1.397 . S
C274 H255 0.929 . S
C274 C271 1.404 . S
C274 N272 1.334 . S
C275 H267 0.930 . S
C275 C270 1.418 . S
C275 C271 1.353 . S
C276 H246 0.930 . S
C276 N277 1.330 . S
C276 C278 1.446 . S
N277 Co236 2.151 . S
N277 C276 1.330 . S
N277 C281 1.418 . S
C278 H257 0.929 . S
C278 C276 1.446 . S
C278 C279 1.332 . S
C279 H259 0.931 . S
C279 C278 1.332 . S
C279 C280 1.267 . S
C280 H248 0.929 . S
C280 C279 1.267 . S
C280 C281 1.251 . S
C281 H251 0.929 . S
C281 N277 1.418 . S
C281 C280 1.251 . S
C282 H249 0.930 . S
C282 C284 1.406 . S
C282 C287 1.261 . S
C283 H250 0.930 . S
C283 N285 1.325 . S
C283 C286 1.357 . S
C284 H252 0.928 . S
C284 C282 1.406 . S
C284 N285 1.261 . S
N285 Co236 2.214 . S
N285 C283 1.325 . S
N285 C284 1.261 . S
C286 H256 0.931 . S
C286 C283 1.357 . S
C286 C287 1.312 . S
C287 H258 0.930 . S
C287 C282 1.261 . S
C287 C286 1.312 . S
C288 O260 1.214 . S
C288 O268 1.234 . S
C289 H261 0.929 . S
C289 C292 1.391 . S
C289 C294 1.391 . S
C290 H262 0.929 . S
C290 C291 1.390 . S
C290 N293 1.391 . S
C291 H263 0.930 . S
C291 C290 1.390 . S
C291 C292 1.392 . S
C292 H264 0.929 . S
C292 C289 1.391 . S
C292 C291 1.392 . S
N293 Co237 2.257 . S
N293 C290 1.391 . S
N293 C294 1.388 . S
C294 H265 0.930 . S
C294 C289 1.391 . S
C294 N293 1.388 . S
Co295 O297 2.143 . S
Co295 O303 2.074 1_545 S
Co295 O306 2.093 . S
Co295 O319 2.097 . S
Co295 N336 2.151 . S
Co295 N344 2.214 . S
Co296 O297 2.160 1_565 S
Co296 O302 2.058 . S
Co296 O312 2.057 . S
Co296 O327 2.037 . S
Co296 N331 2.145 . S
Co296 N352 2.257 . S
O297 Co295 2.143 . S
O297 Co296 2.160 1_545 S
C298 O299 1.278 . S
C298 O306 1.224 . S
O299 C298 1.278 . S
C300 O301 1.245 . S
C300 O312 1.232 . S
O301 C300 1.245 . S
O302 Co296 2.058 . S
O302 C328 1.269 . S
O303 Co295 2.074 1_565 S
O303 C328 1.257 . S
H304 C329 0.930 . S
H305 C335 0.930 . S
O306 Co295 2.093 . S
O306 C298 1.224 . S
H307 C339 0.929 . S
H308 C341 0.930 . S
H309 C342 0.930 . S
H310 C340 0.929 . S
H311 C343 0.928 . S
O312 Co296 2.057 . S
O312 C300 1.232 . S
H313 C332 0.929 . S
H314 C333 0.929 . S
H315 C345 0.931 . S
H316 C337 0.929 . S
H317 C346 0.930 . S
H318 C338 0.931 . S
O319 Co295 2.097 . S
O319 C347 1.214 . S
H320 C348 0.929 . S
H321 C349 0.929 . S
H322 C350 0.930 . S
H323 C351 0.929 . S
H324 C353 0.930 . S
H325 C330 0.930 . S
H326 C334 0.930 . S
O327 Co296 2.037 . S
O327 C347 1.234 1_565 S
C328 O302 1.269 . S
C328 O303 1.257 . S
C329 H304 0.930 . S
C329 C332 1.388 . S
C329 C334 1.418 . S
C330 H325 0.930 . S
C330 C333 1.404 . S
C330 C334 1.353 . S
N331 Co296 2.145 . S
N331 C332 1.397 . S
N331 C333 1.334 . S
C332 H313 0.929 . S
C332 C329 1.388 . S
C332 N331 1.397 . S
C333 H314 0.929 . S
C333 C330 1.404 . S
C333 N331 1.334 . S
C334 H326 0.930 . S
C334 C329 1.418 . S
C334 C330 1.353 . S
C335 H305 0.930 . S
C335 N336 1.330 . S
C335 C337 1.446 . S
N336 Co295 2.151 . S
N336 C335 1.330 . S
N336 C340 1.418 . S
C337 H316 0.929 . S
C337 C335 1.446 . S
C337 C338 1.332 . S
C338 H318 0.931 . S
C338 C337 1.332 . S
C338 C339 1.267 . S
C339 H307 0.929 . S
C339 C338 1.267 . S
C339 C340 1.251 . S
C340 H310 0.929 . S
C340 N336 1.418 . S
C340 C339 1.251 . S
C341 H308 0.930 . S
C341 C343 1.406 . S
C341 C346 1.261 . S
C342 H309 0.930 . S
C342 N344 1.325 . S
C342 C345 1.357 . S
C343 H311 0.928 . S
C343 C341 1.406 . S
C343 N344 1.261 . S
N344 Co295 2.214 . S
N344 C342 1.325 . S
N344 C343 1.261 . S
C345 H315 0.931 . S
C345 C342 1.357 . S
C345 C346 1.312 . S
C346 H317 0.930 . S
C346 C341 1.261 . S
C346 C345 1.312 . S
C347 O319 1.214 . S
C347 O327 1.234 1_545 S
C348 H320 0.929 . S
C348 C351 1.391 . S
C348 C353 1.391 . S
C349 H321 0.929 . S
C349 C350 1.390 1_565 S
C349 N352 1.391 . S
C350 H322 0.930 . S
C350 C349 1.390 1_545 S
C350 C351 1.392 . S
C351 H323 0.929 . S
C351 C348 1.391 . S
C351 C350 1.392 . S
N352 Co296 2.257 . S
N352 C349 1.391 . S
N352 C353 1.388 1_565 S
C353 H324 0.930 . S
C353 C348 1.391 . S
C353 N352 1.388 1_545 S
Co354 O356 2.143 . S
Co354 O362 2.074 . S
Co354 O365 2.093 . S
Co354 O378 2.097 . S
Co354 N395 2.151 . S
Co354 N403 2.214 . S
Co355 O356 2.160 . S
Co355 O361 2.058 . S
Co355 O371 2.057 . S
Co355 O386 2.037 . S
Co355 N390 2.145 . S
Co355 N411 2.257 . S
O356 Co354 2.143 . S
O356 Co355 2.160 . S
C357 O358 1.278 . S
C357 O365 1.224 . S
O358 C357 1.278 . S
C359 O360 1.245 . S
C359 O371 1.232 . S
O360 C359 1.245 . S
O361 Co355 2.058 . S
O361 C387 1.269 . S
O362 Co354 2.074 . S
O362 C387 1.257 . S
H363 C388 0.930 . S
H364 C394 0.930 . S
O365 Co354 2.093 . S
O365 C357 1.224 . S
H366 C398 0.929 . S
H367 C400 0.930 . S
H368 C401 0.930 . S
H369 C399 0.929 . S
H370 C402 0.928 . S
O371 Co355 2.057 . S
O371 C359 1.232 . S
H372 C391 0.929 . S
H373 C392 0.929 . S
H374 C404 0.931 . S
H375 C396 0.929 . S
H376 C405 0.930 . S
H377 C397 0.931 . S
O378 Co354 2.097 . S
O378 C406 1.214 . S
H379 C407 0.929 . S
H380 C408 0.929 . S
H381 C409 0.930 . S
H382 C410 0.929 . S
H383 C412 0.930 . S
H384 C389 0.930 . S
H385 C393 0.930 . S
O386 Co355 2.037 . S
O386 C406 1.234 . S
C387 O361 1.269 . S
C387 O362 1.257 . S
C388 H363 0.930 . S
C388 C391 1.388 . S
C388 C393 1.418 . S
C389 H384 0.930 . S
C389 C392 1.404 . S
C389 C393 1.353 . S
N390 Co355 2.145 . S
N390 C391 1.397 . S
N390 C392 1.334 . S
C391 H372 0.929 . S
C391 C388 1.388 . S
C391 N390 1.397 . S
C392 H373 0.929 . S
C392 C389 1.404 . S
C392 N390 1.334 . S
C393 H385 0.930 . S
C393 C388 1.418 . S
C393 C389 1.353 . S
C394 H364 0.930 . S
C394 N395 1.330 . S
C394 C396 1.446 . S
N395 Co354 2.151 . S
N395 C394 1.330 . S
N395 C399 1.418 . S
C396 H375 0.929 . S
C396 C394 1.446 . S
C396 C397 1.332 . S
C397 H377 0.931 . S
C397 C396 1.332 . S
C397 C398 1.267 . S
C398 H366 0.929 . S
C398 C397 1.267 . S
C398 C399 1.251 . S
C399 H369 0.929 . S
C399 N395 1.418 . S
C399 C398 1.251 . S
C400 H367 0.930 . S
C400 C402 1.406 . S
C400 C405 1.261 . S
C401 H368 0.930 . S
C401 N403 1.325 . S
C401 C404 1.357 . S
C402 H370 0.928 . S
C402 C400 1.406 . S
C402 N403 1.261 . S
N403 Co354 2.214 . S
N403 C401 1.325 . S
N403 C402 1.261 . S
C404 H374 0.931 . S
C404 C401 1.357 . S
C404 C405 1.312 . S
C405 H376 0.930 . S
C405 C400 1.261 . S
C405 C404 1.312 . S
C406 O378 1.214 . S
C406 O386 1.234 . S
C407 H379 0.929 . S
C407 C410 1.391 . S
C407 C412 1.391 . S
C408 H380 0.929 . S
C408 C409 1.390 . S
C408 N411 1.391 . S
C409 H381 0.930 . S
C409 C408 1.390 . S
C409 C410 1.392 . S
C410 H382 0.929 . S
C410 C407 1.391 . S
C410 C409 1.392 . S
N411 Co355 2.257 . S
N411 C408 1.391 . S
N411 C412 1.388 . S
C412 H383 0.930 . S
C412 C407 1.391 . S
C412 N411 1.388 . S
Co413 O415 2.143 . S
Co413 O421 2.074 . S
Co413 O424 2.093 . S
Co413 O437 2.097 . S
Co413 N454 2.151 1_655 S
Co413 N462 2.214 . S
Co414 O415 2.160 1_545 S
Co414 O420 2.058 . S
Co414 O430 2.057 1_656 S
Co414 O445 2.037 1_545 S
Co414 N449 2.145 1_556 S
Co414 N470 2.257 1_546 S
O415 Co413 2.143 . S
O415 Co414 2.160 1_565 S
C416 O417 1.278 . S
C416 O424 1.224 1_554 S
O417 C416 1.278 . S
C418 O419 1.245 1_545 S
C418 O430 1.232 . S
O419 C418 1.245 1_565 S
O420 Co414 2.058 . S
O420 C446 1.269 1_545 S
O421 Co413 2.074 . S
O421 C446 1.257 . S
H422 C447 0.930 . S
H423 C453 0.930 . S
O424 Co413 2.093 . S
O424 C416 1.224 1_556 S
H425 C457 0.929 . S
H426 C459 0.930 . S
H427 C460 0.930 . S
H428 C458 0.929 . S
H429 C461 0.928 . S
O430 Co414 2.057 1_454 S
O430 C418 1.232 . S
H431 C450 0.929 . S
H432 C451 0.913 1_455 S
H433 C463 0.931 . S
H434 C455 0.929 . S
H435 C464 0.930 . S
H436 C456 0.931 . S
O437 Co413 2.097 . S
O437 C465 1.214 . S
H438 C466 0.929 . S
H439 C467 0.923 1_545 S
H440 C468 0.930 . S
H441 C469 0.929 . S
H442 C471 0.930 1_455 S
H443 C448 0.930 . S
H444 C452 0.930 . S
O445 Co414 2.037 1_565 S
O445 C465 1.234 . S
C446 O420 1.269 1_565 S
C446 O421 1.257 . S
C447 H422 0.930 . S
C447 C450 1.388 . S
C447 C452 1.418 1_556 S
C448 H443 0.930 . S
C448 C451 1.404 . S
C448 C452 1.353 . S
N449 Co414 2.145 1_554 S
N449 C450 1.397 1_554 S
N449 C451 1.334 . S
C450 H431 0.929 . S
C450 C447 1.388 . S
C450 N449 1.397 1_556 S
C451 H432 0.913 1_655 S
C451 C448 1.404 . S
C451 N449 1.334 . S
C452 H444 0.930 . S
C452 C447 1.418 1_554 S
C452 C448 1.353 . S
C453 H423 0.930 . S
C453 N454 1.330 . S
C453 C455 1.446 . S
N454 Co413 2.151 1_455 S
N454 C453 1.330 . S
N454 C458 1.418 . S
C455 H434 0.929 . S
C455 C453 1.446 . S
C455 C456 1.332 . S
C456 H436 0.931 . S
C456 C455 1.332 . S
C456 C457 1.267 . S
C457 H425 0.929 . S
C457 C456 1.267 . S
C457 C458 1.251 . S
C458 H428 0.929 . S
C458 N454 1.418 . S
C458 C457 1.251 . S
C459 H426 0.930 . S
C459 C461 1.406 . S
C459 C464 1.261 . S
C460 H427 0.930 . S
C460 N462 1.325 . S
C460 C463 1.357 . S
C461 H429 0.928 . S
C461 C459 1.406 . S
C461 N462 1.261 . S
N462 Co413 2.214 . S
N462 C460 1.325 . S
N462 C461 1.261 . S
C463 H433 0.931 . S
C463 C460 1.357 . S
C463 C464 1.312 . S
C464 H435 0.930 . S
C464 C459 1.261 . S
C464 C463 1.312 . S
C465 O437 1.214 . S
C465 O445 1.234 . S
C466 H438 0.929 . S
C466 C469 1.391 . S
C466 C471 1.391 . S
C467 H439 0.923 1_565 S
C467 C468 1.390 . S
C467 N470 1.391 . S
C468 H440 0.930 . S
C468 C467 1.390 . S
C468 C469 1.392 . S
C469 H441 0.929 . S
C469 C466 1.391 . S
C469 C468 1.392 . S
N470 Co414 2.257 1_564 S
N470 C467 1.391 . S
N470 C471 1.388 . S
C471 H442 0.930 1_655 S
C471 C466 1.391 . S
C471 N470 1.388 . S
Co472 O474 2.143 . S
Co472 O480 2.074 . S
Co472 O483 2.093 . S
Co472 O496 2.097 . S
Co472 N513 2.151 . S
Co472 N521 2.214 . S
Co473 O474 2.160 . S
Co473 O479 2.058 . S
Co473 O489 2.057 . S
Co473 O504 2.037 . S
Co473 N508 2.145 . S
Co473 N529 2.257 . S
O474 Co472 2.143 . S
O474 Co473 2.160 . S
C475 O476 1.278 . S
C475 O483 1.224 . S
O476 C475 1.278 . S
C477 O478 1.245 . S
C477 O489 1.232 . S
O478 C477 1.245 . S
O479 Co473 2.058 . S
O479 C505 1.269 . S
O480 Co472 2.074 . S
O480 C505 1.257 . S
H481 C506 0.930 . S
H482 C512 0.930 . S
O483 Co472 2.093 . S
O483 C475 1.224 . S
H484 C516 0.929 . S
H485 C518 0.930 . S
H486 C519 0.930 . S
H487 C517 0.929 . S
H488 C520 0.928 . S
O489 Co473 2.057 . S
O489 C477 1.232 . S
H490 C509 0.929 . S
H491 C510 0.929 . S
H492 C522 0.931 . S
H493 C514 0.929 . S
H494 C523 0.930 . S
H495 C515 0.931 . S
O496 Co472 2.097 . S
O496 C524 1.214 . S
H497 C525 0.929 . S
H498 C526 0.929 . S
H499 C527 0.930 . S
H500 C528 0.929 . S
H501 C530 0.930 . S
H502 C507 0.930 . S
H503 C511 0.930 . S
O504 Co473 2.037 . S
O504 C524 1.234 . S
C505 O479 1.269 . S
C505 O480 1.257 . S
C506 H481 0.930 . S
C506 C509 1.388 . S
C506 C511 1.418 . S
C507 H502 0.930 . S
C507 C510 1.404 . S
C507 C511 1.353 . S
N508 Co473 2.145 . S
N508 C509 1.397 . S
N508 C510 1.334 . S
C509 H490 0.929 . S
C509 C506 1.388 . S
C509 N508 1.397 . S
C510 H491 0.929 . S
C510 C507 1.404 . S
C510 N508 1.334 . S
C511 H503 0.930 . S
C511 C506 1.418 . S
C511 C507 1.353 . S
C512 H482 0.930 . S
C512 N513 1.330 . S
C512 C514 1.446 . S
N513 Co472 2.151 . S
N513 C512 1.330 . S
N513 C517 1.418 . S
C514 H493 0.929 . S
C514 C512 1.446 . S
C514 C515 1.332 . S
C515 H495 0.931 . S
C515 C514 1.332 . S
C515 C516 1.267 . S
C516 H484 0.929 . S
C516 C515 1.267 . S
C516 C517 1.251 . S
C517 H487 0.929 . S
C517 N513 1.418 . S
C517 C516 1.251 . S
C518 H485 0.930 . S
C518 C520 1.406 . S
C518 C523 1.261 . S
C519 H486 0.930 . S
C519 N521 1.325 . S
C519 C522 1.357 . S
C520 H488 0.928 . S
C520 C518 1.406 . S
C520 N521 1.261 . S
N521 Co472 2.214 . S
N521 C519 1.325 . S
N521 C520 1.261 . S
C522 H492 0.931 . S
C522 C519 1.357 . S
C522 C523 1.312 . S
C523 H494 0.930 . S
C523 C518 1.261 . S
C523 C522 1.312 . S
C524 O496 1.214 . S
C524 O504 1.234 . S
C525 H497 0.929 . S
C525 C528 1.391 . S
C525 C530 1.391 . S
C526 H498 0.929 . S
C526 C527 1.390 . S
C526 N529 1.391 . S
C527 H499 0.930 . S
C527 C526 1.390 . S
C527 C528 1.392 . S
C528 H500 0.929 . S
C528 C525 1.391 . S
C528 C527 1.392 . S
N529 Co473 2.257 . S
N529 C526 1.391 . S
N529 C530 1.388 . S
C530 H501 0.930 . S
C530 C525 1.391 . S
C530 N529 1.388 . S
Co531 O533 2.143 1_456 S
Co531 O539 2.074 . S
Co531 O542 2.093 . S
Co531 O555 2.097 . S
Co531 N572 2.151 1_455 S
Co531 N580 2.214 . S
Co532 O533 2.160 1_455 S
Co532 O538 2.058 1_454 S
Co532 O548 2.057 1_455 S
Co532 O563 2.033 1_554 S
Co532 N567 2.145 . S
Co532 N588 2.257 . S
O533 Co531 2.143 1_654 S
O533 Co532 2.160 1_655 S
C534 O535 1.279 . S
C534 O542 1.220 1_654 S
O535 C534 1.279 . S
C536 O537 1.245 . S
C536 O548 1.232 . S
O537 C536 1.245 . S
O538 Co532 2.058 1_656 S
O538 C564 1.269 . S
O539 Co531 2.074 . S
O539 C564 1.257 1_455 S
H540 C565 0.917 1_556 S
H541 C571 0.930 . S
O542 Co531 2.093 . S
O542 C534 1.220 1_456 S
H543 C575 0.929 . S
H544 C577 0.930 . S
H545 C578 0.930 . S
H546 C576 0.929 . S
H547 C579 0.928 . S
O548 Co532 2.057 1_655 S
O548 C536 1.232 . S
H549 C568 0.929 1_556 S
H550 C569 0.929 1_655 S
H551 C581 0.931 . S
H552 C573 0.929 . S
H553 C582 0.930 . S
H554 C574 0.931 . S
O555 Co531 2.097 . S
O555 C583 1.214 . S
H556 C584 0.929 . S
H557 C585 0.929 . S
H558 C586 0.930 . S
H559 C587 0.929 . S
H560 C589 0.930 1_655 S
H561 C566 0.930 . S
H562 C570 0.930 . S
O563 Co532 2.033 1_556 S
O563 C583 1.238 . S
C564 O538 1.269 . S
C564 O539 1.257 1_655 S
C565 H540 0.917 1_554 S
C565 C568 1.388 . S
C565 C570 1.418 . S
C566 H561 0.930 . S
C566 C569 1.404 . S
C566 C570 1.353 . S
N567 Co532 2.145 . S
N567 C568 1.397 . S
N567 C569 1.334 . S
C568 H549 0.929 1_554 S
C568 C565 1.388 . S
C568 N567 1.397 . S
C569 H550 0.929 1_455 S
C569 C566 1.404 . S
C569 N567 1.334 . S
C570 H562 0.930 . S
C570 C565 1.418 . S
C570 C566 1.353 . S
C571 H541 0.930 . S
C571 N572 1.330 . S
C571 C573 1.446 . S
N572 Co531 2.151 1_655 S
N572 C571 1.330 . S
N572 C576 1.418 . S
C573 H552 0.929 . S
C573 C571 1.446 . S
C573 C574 1.332 . S
C574 H554 0.931 . S
C574 C573 1.332 . S
C574 C575 1.267 . S
C575 H543 0.929 . S
C575 C574 1.267 . S
C575 C576 1.251 . S
C576 H546 0.929 . S
C576 N572 1.418 . S
C576 C575 1.251 . S
C577 H544 0.930 . S
C577 C579 1.406 . S
C577 C582 1.261 . S
C578 H545 0.930 . S
C578 N580 1.325 . S
C578 C581 1.357 . S
C579 H547 0.928 . S
C579 C577 1.406 . S
C579 N580 1.261 . S
N580 Co531 2.214 . S
N580 C578 1.325 . S
N580 C579 1.261 . S
C581 H551 0.931 . S
C581 C578 1.357 . S
C581 C582 1.312 . S
C582 H553 0.930 . S
C582 C577 1.261 . S
C582 C581 1.312 . S
C583 O555 1.214 . S
C583 O563 1.238 . S
C584 H556 0.929 . S
C584 C587 1.391 . S
C584 C589 1.391 . S
C585 H557 0.929 . S
C585 C586 1.390 . S
C585 N588 1.391 . S
C586 H558 0.930 . S
C586 C585 1.390 . S
C586 C587 1.392 . S
C587 H559 0.929 . S
C587 C584 1.391 . S
C587 C586 1.392 . S
N588 Co532 2.257 . S
N588 C585 1.391 . S
N588 C589 1.388 . S
C589 H560 0.930 1_455 S
C589 C584 1.391 . S
C589 N588 1.388 . S
Co590 O592 2.143 . S
Co590 O598 2.074 . S
Co590 O601 2.093 . S
Co590 O614 2.097 . S
Co590 N631 2.151 . S
Co590 N639 2.214 . S
Co591 O592 2.160 . S
Co591 O597 2.058 . S
Co591 O607 2.057 . S
Co591 O622 2.037 . S
Co591 N626 2.145 . S
Co591 N647 2.257 . S
O592 Co590 2.143 . S
O592 Co591 2.160 . S
C593 O594 1.278 . S
C593 O601 1.224 . S
O594 C593 1.278 . S
C595 O596 1.245 . S
C595 O607 1.232 . S
O596 C595 1.245 . S
O597 Co591 2.058 . S
O597 C623 1.269 . S
O598 Co590 2.074 . S
O598 C623 1.257 . S
H599 C624 0.930 . S
H600 C630 0.930 . S
O601 Co590 2.093 . S
O601 C593 1.224 . S
H602 C634 0.929 . S
H603 C636 0.930 . S
H604 C637 0.930 . S
H605 C635 0.929 . S
H606 C638 0.928 . S
O607 Co591 2.057 . S
O607 C595 1.232 . S
H608 C627 0.929 . S
H609 C628 0.929 . S
H610 C640 0.931 . S
H611 C632 0.929 . S
H612 C641 0.930 . S
H613 C633 0.931 . S
O614 Co590 2.097 . S
O614 C642 1.214 . S
H615 C643 0.929 . S
H616 C644 0.929 . S
H617 C645 0.930 . S
H618 C646 0.929 . S
H619 C648 0.930 . S
H620 C625 0.930 . S
H621 C629 0.930 . S
O622 Co591 2.037 . S
O622 C642 1.234 . S
C623 O597 1.269 . S
C623 O598 1.257 . S
C624 H599 0.930 . S
C624 C627 1.388 . S
C624 C629 1.418 . S
C625 H620 0.930 . S
C625 C628 1.404 . S
C625 C629 1.353 . S
N626 Co591 2.145 . S
N626 C627 1.397 . S
N626 C628 1.334 . S
C627 H608 0.929 . S
C627 C624 1.388 . S
C627 N626 1.397 . S
C628 H609 0.929 . S
C628 C625 1.404 . S
C628 N626 1.334 . S
C629 H621 0.930 . S
C629 C624 1.418 . S
C629 C625 1.353 . S
C630 H600 0.930 . S
C630 N631 1.330 . S
C630 C632 1.446 . S
N631 Co590 2.151 . S
N631 C630 1.330 . S
N631 C635 1.418 . S
C632 H611 0.929 . S
C632 C630 1.446 . S
C632 C633 1.332 . S
C633 H613 0.931 . S
C633 C632 1.332 . S
C633 C634 1.267 . S
C634 H602 0.929 . S
C634 C633 1.267 . S
C634 C635 1.251 . S
C635 H605 0.929 . S
C635 N631 1.418 . S
C635 C634 1.251 . S
C636 H603 0.930 . S
C636 C638 1.406 . S
C636 C641 1.261 . S
C637 H604 0.930 . S
C637 N639 1.325 . S
C637 C640 1.357 . S
C638 H606 0.928 . S
C638 C636 1.406 . S
C638 N639 1.261 . S
N639 Co590 2.214 . S
N639 C637 1.325 . S
N639 C638 1.261 . S
C640 H610 0.931 . S
C640 C637 1.357 . S
C640 C641 1.312 . S
C641 H612 0.930 . S
C641 C636 1.261 . S
C641 C640 1.312 . S
C642 O614 1.214 . S
C642 O622 1.234 . S
C643 H615 0.929 . S
C643 C646 1.391 . S
C643 C648 1.391 . S
C644 H616 0.929 . S
C644 C645 1.390 . S
C644 N647 1.391 . S
C645 H617 0.930 . S
C645 C644 1.390 . S
C645 C646 1.392 . S
C646 H618 0.929 . S
C646 C643 1.391 . S
C646 C645 1.392 . S
N647 Co591 2.257 . S
N647 C644 1.391 . S
N647 C648 1.388 . S
C648 H619 0.930 . S
C648 C643 1.391 . S
C648 N647 1.388 . S
Co649 O651 2.143 . S
Co649 O657 2.074 . S
Co649 O660 2.093 . S
Co649 O673 2.097 . S
Co649 N690 2.151 . S
Co649 N698 2.214 . S
Co650 O651 2.160 . S
Co650 O656 2.058 . S
Co650 O666 2.057 1_455 S
Co650 O681 2.037 . S
Co650 N685 2.145 1_455 S
Co650 N706 2.257 1_455 S
O651 Co649 2.143 . S
O651 Co650 2.160 . S
C652 O653 1.278 . S
C652 O660 1.224 1_655 S
O653 C652 1.278 . S
C654 O655 1.245 1_655 S
C654 O666 1.232 . S
O655 C654 1.245 1_455 S
O656 Co650 2.058 . S
O656 C682 1.269 . S
O657 Co649 2.074 . S
O657 C682 1.257 . S
H658 C683 0.930 1_455 S
H659 C689 0.930 . S
O660 Co649 2.093 . S
O660 C652 1.224 1_455 S
H661 C693 0.929 . S
H662 C695 0.930 . S
H663 C696 0.930 . S
H664 C694 0.929 . S
H665 C697 0.928 . S
O666 Co650 2.057 1_655 S
O666 C654 1.232 . S
H667 C686 0.929 . S
H668 C687 0.929 . S
H669 C699 0.931 . S
H670 C691 0.929 . S
H671 C700 0.930 . S
H672 C692 0.931 . S
O673 Co649 2.097 . S
O673 C701 1.214 . S
H674 C702 0.929 . S
H675 C703 0.929 . S
H676 C704 0.930 . S
H677 C705 0.929 . S
H678 C707 0.930 . S
H679 C684 0.930 . S
H680 C688 0.930 . S
O681 Co650 2.037 . S
O681 C701 1.234 . S
C682 O656 1.269 . S
C682 O657 1.257 . S
C683 H658 0.930 1_655 S
C683 C686 1.388 1_655 S
C683 C688 1.418 . S
C684 H679 0.930 . S
C684 C687 1.404 . S
C684 C688 1.353 . S
N685 Co650 2.145 1_655 S
N685 C686 1.397 1_655 S
N685 C687 1.334 . S
C686 H667 0.929 . S
C686 C683 1.388 1_455 S
C686 N685 1.397 1_455 S
C687 H668 0.929 . S
C687 C684 1.404 . S
C687 N685 1.334 . S
C688 H680 0.930 . S
C688 C683 1.418 . S
C688 C684 1.353 . S
C689 H659 0.930 . S
C689 N690 1.330 . S
C689 C691 1.446 . S
N690 Co649 2.151 . S
N690 C689 1.330 . S
N690 C694 1.418 . S
C691 H670 0.929 . S
C691 C689 1.446 . S
C691 C692 1.332 . S
C692 H672 0.931 . S
C692 C691 1.332 . S
C692 C693 1.267 . S
C693 H661 0.929 . S
C693 C692 1.267 . S
C693 C694 1.251 . S
C694 H664 0.929 . S
C694 N690 1.418 . S
C694 C693 1.251 . S
C695 H662 0.930 . S
C695 C697 1.406 . S
C695 C700 1.261 . S
C696 H663 0.930 . S
C696 N698 1.325 . S
C696 C699 1.357 . S
C697 H665 0.928 . S
C697 C695 1.406 . S
C697 N698 1.261 . S
N698 Co649 2.214 . S
N698 C696 1.325 . S
N698 C697 1.261 . S
C699 H669 0.931 . S
C699 C696 1.357 . S
C699 C700 1.312 . S
C700 H671 0.930 . S
C700 C695 1.261 . S
C700 C699 1.312 . S
C701 O673 1.214 . S
C701 O681 1.234 . S
C702 H674 0.929 . S
C702 C705 1.391 . S
C702 C707 1.391 . S
C703 H675 0.929 . S
C703 C704 1.390 . S
C703 N706 1.391 . S
C704 H676 0.930 . S
C704 C703 1.390 . S
C704 C705 1.392 . S
C705 H677 0.929 . S
C705 C702 1.391 . S
C705 C704 1.392 . S
N706 Co650 2.257 1_655 S
N706 C703 1.391 . S
N706 C707 1.388 . S
C707 H678 0.930 . S
C707 C702 1.391 . S
C707 N706 1.388 . S
Co708 O710 2.143 . S
Co708 O716 2.074 . S
Co708 O719 2.093 . S
Co708 O732 2.097 . S
Co708 N749 2.151 . S
Co708 N757 2.214 . S
Co709 O710 2.160 1_556 S
Co709 O715 2.058 1_556 S
Co709 O725 2.057 . S
Co709 O740 2.037 1_556 S
Co709 N744 2.145 . S
Co709 N765 2.257 . S
O710 Co708 2.143 . S
O710 Co709 2.160 1_554 S
C711 O712 1.278 . S
C711 O719 1.224 1_556 S
O712 C711 1.278 . S
C713 O714 1.245 . S
C713 O725 1.232 . S
O714 C713 1.245 . S
O715 Co709 2.058 1_554 S
O715 C741 1.269 . S
O716 Co708 2.074 . S
O716 C741 1.257 . S
H717 C742 0.930 1_554 S
H718 C748 0.930 . S
O719 Co708 2.093 . S
O719 C711 1.224 1_554 S
H720 C752 0.929 . S
H721 C754 0.930 . S
H722 C755 0.930 . S
H723 C753 0.929 . S
H724 C756 0.928 . S
O725 Co709 2.057 . S
O725 C713 1.232 . S
H726 C745 0.941 . S
H727 C746 0.929 . S
H728 C758 0.931 . S
H729 C750 0.929 . S
H730 C759 0.930 . S
H731 C751 0.931 . S
O732 Co708 2.097 . S
O732 C760 1.214 . S
H733 C761 0.929 . S
H734 C762 0.929 . S
H735 C763 0.930 . S
H736 C764 0.929 . S
H737 C766 0.930 . S
H738 C743 0.930 . S
H739 C747 0.930 . S
O740 Co709 2.037 1_554 S
O740 C760 1.234 . S
C741 O715 1.269 . S
C741 O716 1.257 . S
C742 H717 0.930 1_556 S
C742 C745 1.386 1_556 S
C742 C747 1.418 . S
C743 H738 0.930 . S
C743 C746 1.404 . S
C743 C747 1.353 . S
N744 Co709 2.145 . S
N744 C745 1.387 1_556 S
N744 C746 1.334 . S
C745 H726 0.941 . S
C745 C742 1.386 1_554 S
C745 N744 1.387 1_554 S
C746 H727 0.929 . S
C746 C743 1.404 . S
C746 N744 1.334 . S
C747 H739 0.930 . S
C747 C742 1.418 . S
C747 C743 1.353 . S
C748 H718 0.930 . S
C748 N749 1.330 . S
C748 C750 1.446 . S
N749 Co708 2.151 . S
N749 C748 1.330 . S
N749 C753 1.418 . S
C750 H729 0.929 . S
C750 C748 1.446 . S
C750 C751 1.332 . S
C751 H731 0.931 . S
C751 C750 1.332 . S
C751 C752 1.267 . S
C752 H720 0.929 . S
C752 C751 1.267 . S
C752 C753 1.251 . S
C753 H723 0.929 . S
C753 N749 1.418 . S
C753 C752 1.251 . S
C754 H721 0.930 . S
C754 C756 1.406 . S
C754 C759 1.261 . S
C755 H722 0.930 . S
C755 N757 1.325 . S
C755 C758 1.357 . S
C756 H724 0.928 . S
C756 C754 1.406 . S
C756 N757 1.261 . S
N757 Co708 2.214 . S
N757 C755 1.325 . S
N757 C756 1.261 . S
C758 H728 0.931 . S
C758 C755 1.357 . S
C758 C759 1.312 . S
C759 H730 0.930 . S
C759 C754 1.261 . S
C759 C758 1.312 . S
C760 O732 1.214 . S
C760 O740 1.234 . S
C761 H733 0.929 . S
C761 C764 1.391 . S
C761 C766 1.391 . S
C762 H734 0.929 . S
C762 C763 1.390 . S
C762 N765 1.391 . S
C763 H735 0.930 . S
C763 C762 1.390 . S
C763 C764 1.392 . S
C764 H736 0.929 . S
C764 C761 1.391 . S
C764 C763 1.392 . S
N765 Co709 2.257 . S
N765 C762 1.391 . S
N765 C766 1.388 . S
C766 H737 0.930 . S
C766 C761 1.391 . S
C766 N765 1.388 . S
Co767 O769 2.143 . S
Co767 O775 2.074 . S
Co767 O778 2.093 . S
Co767 O791 2.097 . S
Co767 N808 2.151 . S
Co767 N816 2.214 . S
Co768 O769 2.160 . S
Co768 O774 2.058 . S
Co768 O784 2.057 . S
Co768 O799 2.037 . S
Co768 N803 2.145 . S
Co768 N824 2.257 . S
O769 Co767 2.143 . S
O769 Co768 2.160 . S
C770 O771 1.278 . S
C770 O778 1.224 . S
O771 C770 1.278 . S
C772 O773 1.245 . S
C772 O784 1.232 . S
O773 C772 1.245 . S
O774 Co768 2.058 . S
O774 C800 1.269 . S
O775 Co767 2.074 . S
O775 C800 1.257 . S
H776 C801 0.930 . S
H777 C807 0.930 . S
O778 Co767 2.093 . S
O778 C770 1.224 . S
H779 C811 0.929 . S
H780 C813 0.930 . S
H781 C814 0.930 . S
H782 C812 0.929 . S
H783 C815 0.928 . S
O784 Co768 2.057 . S
O784 C772 1.232 . S
H785 C804 0.929 . S
H786 C805 0.929 . S
H787 C817 0.931 . S
H788 C809 0.929 . S
H789 C818 0.930 1_455 S
H790 C810 0.931 . S
O791 Co767 2.097 . S
O791 C819 1.214 . S
H792 C820 0.929 . S
H793 C821 0.929 . S
H794 C822 0.930 . S
H795 C823 0.929 . S
H796 C825 0.930 . S
H797 C802 0.930 . S
H798 C806 0.930 . S
O799 Co768 2.037 . S
O799 C819 1.234 . S
C800 O774 1.269 . S
C800 O775 1.257 . S
C801 H776 0.930 . S
C801 C804 1.388 . S
C801 C806 1.418 . S
C802 H797 0.930 . S
C802 C805 1.404 . S
C802 C806 1.353 . S
N803 Co768 2.145 . S
N803 C804 1.397 . S
N803 C805 1.334 . S
C804 H785 0.929 . S
C804 C801 1.388 . S
C804 N803 1.397 . S
C805 H786 0.929 . S
C805 C802 1.404 . S
C805 N803 1.334 . S
C806 H798 0.930 . S
C806 C801 1.418 . S
C806 C802 1.353 . S
C807 H777 0.930 . S
C807 N808 1.330 . S
C807 C809 1.446 . S
N808 Co767 2.151 . S
N808 C807 1.330 . S
N808 C812 1.418 . S
C809 H788 0.929 . S
C809 C807 1.446 . S
C809 C810 1.332 . S
C810 H790 0.931 . S
C810 C809 1.332 . S
C810 C811 1.267 . S
C811 H779 0.929 . S
C811 C810 1.267 . S
C811 C812 1.251 . S
C812 H782 0.929 . S
C812 N808 1.418 . S
C812 C811 1.251 . S
C813 H780 0.930 . S
C813 C815 1.406 . S
C813 C818 1.261 . S
C814 H781 0.930 . S
C814 N816 1.325 . S
C814 C817 1.357 . S
C815 H783 0.928 . S
C815 C813 1.406 . S
C815 N816 1.261 . S
N816 Co767 2.214 . S
N816 C814 1.325 . S
N816 C815 1.261 . S
C817 H787 0.931 . S
C817 C814 1.357 . S
C817 C818 1.312 . S
C818 H789 0.930 1_655 S
C818 C813 1.261 . S
C818 C817 1.312 . S
C819 O791 1.214 . S
C819 O799 1.234 . S
C820 H792 0.929 . S
C820 C823 1.391 . S
C820 C825 1.391 . S
C821 H793 0.929 . S
C821 C822 1.390 . S
C821 N824 1.391 . S
C822 H794 0.930 . S
C822 C821 1.390 . S
C822 C823 1.392 . S
C823 H795 0.929 . S
C823 C820 1.391 . S
C823 C822 1.392 . S
N824 Co768 2.257 . S
N824 C821 1.391 . S
N824 C825 1.388 . S
C825 H796 0.930 . S
C825 C820 1.391 . S
C825 N824 1.388 . S
Co826 O828 2.143 . S
Co826 O834 2.074 . S
Co826 O837 2.093 . S
Co826 O850 2.097 . S
Co826 N867 2.151 . S
Co826 N875 2.214 . S
Co827 O828 2.160 . S
Co827 O833 2.058 . S
Co827 O843 2.057 . S
Co827 O858 2.037 . S
Co827 N862 2.145 . S
Co827 N883 2.257 . S
O828 Co826 2.143 . S
O828 Co827 2.160 . S
C829 O830 1.278 . S
C829 O837 1.224 . S
O830 C829 1.278 . S
C831 O832 1.245 . S
C831 O843 1.232 . S
O832 C831 1.245 . S
O833 Co827 2.058 . S
O833 C859 1.269 . S
O834 Co826 2.074 . S
O834 C859 1.257 . S
H835 C860 0.930 . S
H836 C866 0.930 . S
O837 Co826 2.093 . S
O837 C829 1.224 . S
H838 C870 0.929 . S
H839 C872 0.930 . S
H840 C873 0.930 . S
H841 C871 0.929 . S
H842 C874 0.928 . S
O843 Co827 2.057 . S
O843 C831 1.232 . S
H844 C863 0.929 . S
H845 C864 0.929 . S
H846 C876 0.931 . S
H847 C868 0.929 . S
H848 C877 0.930 . S
H849 C869 0.931 . S
O850 Co826 2.097 . S
O850 C878 1.214 . S
H851 C879 0.929 . S
H852 C880 0.929 . S
H853 C881 0.930 . S
H854 C882 0.929 . S
H855 C884 0.930 . S
H856 C861 0.930 . S
H857 C865 0.930 . S
O858 Co827 2.037 . S
O858 C878 1.234 . S
C859 O833 1.269 . S
C859 O834 1.257 . S
C860 H835 0.930 . S
C860 C863 1.388 . S
C860 C865 1.418 . S
C861 H856 0.930 . S
C861 C864 1.404 . S
C861 C865 1.353 . S
N862 Co827 2.145 . S
N862 C863 1.397 . S
N862 C864 1.334 . S
C863 H844 0.929 . S
C863 C860 1.388 . S
C863 N862 1.397 . S
C864 H845 0.929 . S
C864 C861 1.404 . S
C864 N862 1.334 . S
C865 H857 0.930 . S
C865 C860 1.418 . S
C865 C861 1.353 . S
C866 H836 0.930 . S
C866 N867 1.330 . S
C866 C868 1.446 . S
N867 Co826 2.151 . S
N867 C866 1.330 . S
N867 C871 1.418 . S
C868 H847 0.929 . S
C868 C866 1.446 . S
C868 C869 1.332 . S
C869 H849 0.931 . S
C869 C868 1.332 . S
C869 C870 1.267 . S
C870 H838 0.929 . S
C870 C869 1.267 . S
C870 C871 1.251 . S
C871 H841 0.929 . S
C871 N867 1.418 . S
C871 C870 1.251 . S
C872 H839 0.930 . S
C872 C874 1.406 . S
C872 C877 1.261 . S
C873 H840 0.930 . S
C873 N875 1.325 . S
C873 C876 1.357 . S
C874 H842 0.928 . S
C874 C872 1.406 . S
C874 N875 1.261 . S
N875 Co826 2.214 . S
N875 C873 1.325 . S
N875 C874 1.261 . S
C876 H846 0.931 . S
C876 C873 1.357 . S
C876 C877 1.312 . S
C877 H848 0.930 . S
C877 C872 1.261 . S
C877 C876 1.312 . S
C878 O850 1.214 . S
C878 O858 1.234 . S
C879 H851 0.929 . S
C879 C882 1.391 . S
C879 C884 1.391 . S
C880 H852 0.929 . S
C880 C881 1.390 . S
C880 N883 1.391 . S
C881 H853 0.930 . S
C881 C880 1.390 . S
C881 C882 1.392 . S
C882 H854 0.929 . S
C882 C879 1.391 . S
C882 C881 1.392 . S
N883 Co827 2.257 . S
N883 C880 1.391 . S
N883 C884 1.388 . S
C884 H855 0.930 . S
C884 C879 1.391 . S
C884 N883 1.388 . S
Co885 O887 2.143 . S
Co885 O893 2.074 . S
Co885 O896 2.093 . S
Co885 O909 2.097 . S
Co885 N926 2.151 . S
Co885 N934 2.214 . S
Co886 O887 2.160 . S
Co886 O892 2.058 . S
Co886 O902 2.057 . S
Co886 O917 2.037 . S
Co886 N921 2.145 . S
Co886 N942 2.257 . S
O887 Co885 2.143 . S
O887 Co886 2.160 . S
C888 O889 1.278 . S
C888 O896 1.224 . S
O889 C888 1.278 . S
C890 O891 1.245 . S
C890 O902 1.232 . S
O891 C890 1.245 . S
O892 Co886 2.058 . S
O892 C918 1.269 . S
O893 Co885 2.074 . S
O893 C918 1.257 . S
H894 C919 0.930 . S
H895 C925 0.930 . S
O896 Co885 2.093 . S
O896 C888 1.224 . S
H897 C929 0.929 . S
H898 C931 0.930 . S
H899 C932 0.930 . S
H900 C930 0.929 . S
H901 C933 0.928 . S
O902 Co886 2.057 . S
O902 C890 1.232 . S
H903 C922 0.929 . S
H904 C923 0.929 . S
H905 C935 0.931 . S
H906 C927 0.929 . S
H907 C936 0.930 . S
H908 C928 0.931 . S
O909 Co885 2.097 . S
O909 C937 1.214 . S
H910 C938 0.929 . S
H911 C939 0.929 . S
H912 C940 0.930 . S
H913 C941 0.929 . S
H914 C943 0.930 . S
H915 C920 0.930 . S
H916 C924 0.930 . S
O917 Co886 2.037 . S
O917 C937 1.234 . S
C918 O892 1.269 . S
C918 O893 1.257 . S
C919 H894 0.930 . S
C919 C922 1.388 . S
C919 C924 1.418 . S
C920 H915 0.930 . S
C920 C923 1.404 . S
C920 C924 1.353 . S
N921 Co886 2.145 . S
N921 C922 1.397 . S
N921 C923 1.334 . S
C922 H903 0.929 . S
C922 C919 1.388 . S
C922 N921 1.397 . S
C923 H904 0.929 . S
C923 C920 1.404 . S
C923 N921 1.334 . S
C924 H916 0.930 . S
C924 C919 1.418 . S
C924 C920 1.353 . S
C925 H895 0.930 . S
C925 N926 1.330 . S
C925 C927 1.446 . S
N926 Co885 2.151 . S
N926 C925 1.330 . S
N926 C930 1.418 . S
C927 H906 0.929 . S
C927 C925 1.446 . S
C927 C928 1.332 . S
C928 H908 0.931 . S
C928 C927 1.332 . S
C928 C929 1.267 . S
C929 H897 0.929 . S
C929 C928 1.267 . S
C929 C930 1.251 . S
C930 H900 0.929 . S
C930 N926 1.418 . S
C930 C929 1.251 . S
C931 H898 0.930 . S
C931 C933 1.406 . S
C931 C936 1.261 . S
C932 H899 0.930 . S
C932 N934 1.325 . S
C932 C935 1.357 . S
C933 H901 0.928 . S
C933 C931 1.406 . S
C933 N934 1.261 . S
N934 Co885 2.214 . S
N934 C932 1.325 . S
N934 C933 1.261 . S
C935 H905 0.931 . S
C935 C932 1.357 . S
C935 C936 1.312 . S
C936 H907 0.930 . S
C936 C931 1.261 . S
C936 C935 1.312 . S
C937 O909 1.214 . S
C937 O917 1.234 . S
C938 H910 0.929 . S
C938 C941 1.391 . S
C938 C943 1.391 . S
C939 H911 0.929 . S
C939 C940 1.390 . S
C939 N942 1.391 . S
C940 H912 0.930 . S
C940 C939 1.390 . S
C940 C941 1.392 . S
C941 H913 0.929 . S
C941 C938 1.391 . S
C941 C940 1.392 . S
N942 Co886 2.257 . S
N942 C939 1.391 . S
N942 C943 1.388 . S
C943 H914 0.930 . S
C943 C938 1.391 . S
C943 N942 1.388 . S
H944 C950 0.930 . S
H945 C954 0.930 . S
H946 C959 0.929 . S
H947 C957 0.929 . S
H948 C952 0.929 . S
H949 C958 0.929 . S
C950 H944 0.930 . S
C950 C951 1.367 . S
C950 C958 1.378 . S
C951 C950 1.367 . S
C951 C959 1.433 . S
C952 H948 0.929 . S
C952 C954 1.378 . S
C952 C956 1.350 . S
C953 C956 1.463 . S
C953 C958 1.350 . S
C953 N961 1.427 . S
C954 H945 0.930 . S
C954 C952 1.378 . S
C954 C955 1.367 . S
C955 C954 1.367 . S
C955 C957 1.433 . S
C956 C952 1.350 . S
C956 C953 1.463 . S
C956 N960 1.427 . S
C957 H947 0.929 . S
C957 C955 1.433 . S
C957 N960 1.384 . S
C958 H949 0.929 . S
C958 C950 1.378 . S
C958 C953 1.350 . S
C959 H946 0.929 . S
C959 C951 1.433 . S
C959 N961 1.384 . S
N960 C956 1.427 . S
N960 C957 1.384 . S
N961 C953 1.427 . S
N961 C959 1.384 . S
H962 C968 0.930 . S
H963 C972 0.930 . S
H964 C977 0.929 . S
H965 C975 0.929 . S
H966 C970 0.929 . S
H967 C976 0.929 . S
C968 H962 0.930 . S
C968 C969 1.367 . S
C968 C976 1.378 . S
C969 C968 1.367 . S
C969 C977 1.433 . S
C970 H966 0.929 . S
C970 C972 1.378 . S
C970 C974 1.350 . S
C971 C974 1.463 . S
C971 C976 1.350 . S
C971 N979 1.427 . S
C972 H963 0.930 . S
C972 C970 1.378 . S
C972 C973 1.367 . S
C973 C972 1.367 . S
C973 C975 1.433 . S
C974 C970 1.350 . S
C974 C971 1.463 . S
C974 N978 1.427 . S
C975 H965 0.929 . S
C975 C973 1.433 . S
C975 N978 1.384 . S
C976 H967 0.929 . S
C976 C968 1.378 . S
C976 C971 1.350 . S
C977 H964 0.929 . S
C977 C969 1.433 . S
C977 N979 1.384 . S
N978 C974 1.427 . S
N978 C975 1.384 . S
N979 C971 1.427 . S
N979 C977 1.384 . S
H980 C986 0.930 . S
H981 C990 0.930 . S
H982 C995 0.929 . S
H983 C993 0.929 . S
H984 C988 0.929 . S
H985 C994 0.929 . S
C986 H980 0.930 . S
C986 C987 1.367 . S
C986 C994 1.378 . S
C987 C986 1.367 . S
C987 C995 1.433 . S
C988 H984 0.929 . S
C988 C990 1.378 . S
C988 C992 1.350 . S
C989 C992 1.463 . S
C989 C994 1.350 . S
C989 N997 1.427 . S
C990 H981 0.930 . S
C990 C988 1.378 . S
C990 C991 1.367 . S
C991 C990 1.367 . S
C991 C993 1.433 . S
C992 C988 1.350 . S
C992 C989 1.463 . S
C992 N996 1.427 . S
C993 H983 0.929 . S
C993 C991 1.433 . S
C993 N996 1.384 . S
C994 H985 0.929 . S
C994 C986 1.378 . S
C994 C989 1.350 . S
C995 H982 0.929 . S
C995 C987 1.433 . S
C995 N997 1.384 . S
N996 C992 1.427 . S
N996 C993 1.384 . S
N997 C989 1.427 . S
N997 C995 1.384 . S
H998 C1004 0.930 . S
H999 C1008 0.930 . S
H1000 C1013 0.929 . S
H1001 C1011 0.929 . S
H1002 C1006 0.929 . S
H1003 C1012 0.929 . S
C1004 H998 0.930 . S
C1004 C1005 1.367 . S
C1004 C1012 1.378 . S
C1005 C1004 1.367 . S
C1005 C1013 1.433 . S
C1006 H1002 0.929 . S
C1006 C1008 1.378 . S
C1006 C1010 1.350 . S
C1007 C1010 1.463 . S
C1007 C1012 1.350 . S
C1007 N1015 1.427 . S
C1008 H999 0.930 . S
C1008 C1006 1.378 . S
C1008 C1009 1.367 . S
C1009 C1008 1.367 . S
C1009 C1011 1.433 . S
C1010 C1006 1.350 . S
C1010 C1007 1.463 . S
C1010 N1014 1.427 . S
C1011 H1001 0.929 . S
C1011 C1009 1.433 . S
C1011 N1014 1.384 . S
C1012 H1003 0.929 . S
C1012 C1004 1.378 . S
C1012 C1007 1.350 . S
C1013 H1000 0.929 . S
C1013 C1005 1.433 . S
C1013 N1015 1.384 . S
N1014 C1010 1.427 . S
N1014 C1011 1.384 . S
N1015 C1007 1.427 . S
N1015 C1013 1.384 . S
H1016 C1022 0.930 . S
H1017 C1026 0.928 . S
H1018 C1031 0.929 . S
H1019 C1029 0.929 . S
H1020 C1024 0.929 . S
H1021 C1030 0.929 . S
C1022 H1016 0.930 . S
C1022 C1023 1.367 . S
C1022 C1030 1.378 . S
C1023 C1022 1.367 . S
C1023 C1031 1.433 . S
C1024 H1020 0.929 . S
C1024 C1026 1.378 . S
C1024 C1028 1.350 . S
C1025 C1028 1.463 . S
C1025 C1030 1.350 . S
C1025 N1033 1.427 . S
C1026 H1017 0.928 . S
C1026 C1024 1.378 . S
C1026 C1027 1.367 . S
C1027 C1026 1.367 . S
C1027 C1029 1.433 . S
C1028 C1024 1.350 . S
C1028 C1025 1.463 . S
C1028 N1032 1.427 . S
C1029 H1019 0.929 . S
C1029 C1027 1.433 . S
C1029 N1032 1.384 . S
C1030 H1021 0.929 . S
C1030 C1022 1.378 . S
C1030 C1025 1.350 . S
C1031 H1018 0.929 . S
C1031 C1023 1.433 . S
C1031 N1033 1.384 . S
N1032 C1028 1.427 . S
N1032 C1029 1.384 . S
N1033 C1025 1.427 . S
N1033 C1031 1.384 . S
H1034 C1040 0.930 . S
H1035 C1044 0.930 . S
H1036 C1049 0.929 . S
H1037 C1047 0.929 . S
H1038 C1042 0.929 . S
H1039 C1048 0.929 . S
C1040 H1034 0.930 . S
C1040 C1041 1.367 . S
C1040 C1048 1.378 . S
C1041 C1040 1.367 . S
C1041 C1049 1.433 . S
C1042 H1038 0.929 . S
C1042 C1044 1.378 . S
C1042 C1046 1.350 . S
C1043 C1046 1.463 . S
C1043 C1048 1.350 . S
C1043 N1051 1.427 . S
C1044 H1035 0.930 . S
C1044 C1042 1.378 . S
C1044 C1045 1.367 . S
C1045 C1044 1.367 . S
C1045 C1047 1.433 . S
C1046 C1042 1.350 . S
C1046 C1043 1.463 . S
C1046 N1050 1.427 . S
C1047 H1037 0.929 . S
C1047 C1045 1.433 . S
C1047 N1050 1.384 . S
C1048 H1039 0.929 . S
C1048 C1040 1.378 . S
C1048 C1043 1.350 . S
C1049 H1036 0.929 . S
C1049 C1041 1.433 . S
C1049 N1051 1.384 . S
N1050 C1046 1.427 . S
N1050 C1047 1.384 . S
N1051 C1043 1.427 . S
N1051 C1049 1.384 . S
H1052 C1058 0.930 . S
H1053 C1062 0.930 . S
H1054 C1067 0.929 . S
H1055 C1065 0.929 . S
H1056 C1060 0.929 . S
H1057 C1066 0.929 . S
C1058 H1052 0.930 . S
C1058 C1059 1.367 . S
C1058 C1066 1.378 . S
C1059 C1058 1.367 . S
C1059 C1067 1.433 1_655 S
C1060 H1056 0.929 . S
C1060 C1062 1.378 . S
C1060 C1064 1.350 . S
C1061 C1064 1.463 . S
C1061 C1066 1.350 . S
C1061 N1069 1.427 . S
C1062 H1053 0.930 . S
C1062 C1060 1.378 . S
C1062 C1063 1.367 . S
C1063 C1062 1.367 . S
C1063 C1065 1.433 . S
C1064 C1060 1.350 . S
C1064 C1061 1.463 . S
C1064 N1068 1.427 . S
C1065 H1055 0.929 . S
C1065 C1063 1.433 . S
C1065 N1068 1.384 . S
C1066 H1057 0.929 . S
C1066 C1058 1.378 . S
C1066 C1061 1.350 . S
C1067 H1054 0.929 . S
C1067 C1059 1.433 1_455 S
C1067 N1069 1.384 1_455 S
N1068 C1064 1.427 . S
N1068 C1065 1.384 . S
N1069 C1061 1.427 . S
N1069 C1067 1.384 1_655 S
H1070 C1076 0.930 . S
H1071 C1080 0.930 . S
H1072 C1085 0.929 . S
H1073 C1083 0.929 . S
H1074 C1078 0.929 . S
H1075 C1084 0.929 . S
C1076 H1070 0.930 . S
C1076 C1077 1.367 . S
C1076 C1084 1.378 . S
C1077 C1076 1.367 . S
C1077 C1085 1.433 . S
C1078 H1074 0.929 . S
C1078 C1080 1.378 . S
C1078 C1082 1.350 . S
C1079 C1082 1.463 . S
C1079 C1084 1.350 . S
C1079 N1087 1.427 . S
C1080 H1071 0.930 . S
C1080 C1078 1.378 . S
C1080 C1081 1.367 . S
C1081 C1080 1.367 . S
C1081 C1083 1.433 . S
C1082 C1078 1.350 . S
C1082 C1079 1.463 . S
C1082 N1086 1.427 . S
C1083 H1073 0.929 . S
C1083 C1081 1.433 . S
C1083 N1086 1.384 . S
C1084 H1075 0.929 . S
C1084 C1076 1.378 . S
C1084 C1079 1.350 . S
C1085 H1072 0.929 . S
C1085 C1077 1.433 . S
C1085 N1087 1.384 . S
N1086 C1082 1.427 . S
N1086 C1083 1.384 . S
N1087 C1079 1.427 . S
N1087 C1085 1.384 . S
H1088 C1094 0.930 . S
H1089 C1098 0.930 . S
H1090 C1103 0.929 . S
H1091 C1101 0.929 . S
H1092 C1096 0.929 . S
H1093 C1102 0.929 . S
C1094 H1088 0.930 . S
C1094 C1095 1.367 . S
C1094 C1102 1.378 . S
C1095 C1094 1.367 . S
C1095 C1103 1.433 . S
C1096 H1092 0.929 . S
C1096 C1098 1.378 . S
C1096 C1100 1.350 . S
C1097 C1100 1.463 . S
C1097 C1102 1.350 . S
C1097 N1105 1.427 . S
C1098 H1089 0.930 . S
C1098 C1096 1.378 . S
C1098 C1099 1.367 . S
C1099 C1098 1.367 . S
C1099 C1101 1.433 . S
C1100 C1096 1.350 . S
C1100 C1097 1.463 . S
C1100 N1104 1.427 . S
C1101 H1091 0.929 . S
C1101 C1099 1.433 . S
C1101 N1104 1.384 . S
C1102 H1093 0.929 . S
C1102 C1094 1.378 . S
C1102 C1097 1.350 . S
C1103 H1090 0.929 . S
C1103 C1095 1.433 . S
C1103 N1105 1.384 . S
N1104 C1100 1.427 . S
N1104 C1101 1.384 . S
N1105 C1097 1.427 . S
N1105 C1103 1.384 . S
H1106 C1112 0.930 . S
H1107 C1116 0.930 . S
H1108 C1121 0.929 . S
H1109 C1119 0.929 . S
H1110 C1114 0.929 . S
H1111 C1120 0.929 . S
C1112 H1106 0.930 . S
C1112 C1113 1.367 1_455 S
C1112 C1120 1.378 . S
C1113 C1112 1.367 1_655 S
C1113 C1121 1.433 1_545 S
C1114 H1110 0.929 . S
C1114 C1116 1.378 . S
C1114 C1118 1.350 . S
C1115 C1118 1.463 . S
C1115 C1120 1.350 1_665 S
C1115 N1123 1.427 . S
C1116 H1107 0.930 . S
C1116 C1114 1.378 . S
C1116 C1117 1.367 . S
C1117 C1116 1.367 . S
C1117 C1119 1.433 1_665 S
C1118 C1114 1.350 . S
C1118 C1115 1.463 . S
C1118 N1122 1.427 1_665 S
C1119 H1109 0.929 . S
C1119 C1117 1.433 1_445 S
C1119 N1122 1.384 . S
C1120 H1111 0.929 . S
C1120 C1112 1.378 . S
C1120 C1115 1.350 1_445 S
C1121 H1108 0.929 . S
C1121 C1113 1.433 1_565 S
C1121 N1123 1.384 . S
N1122 C1118 1.427 1_445 S
N1122 C1119 1.384 . S
N1123 C1115 1.427 . S
N1123 C1121 1.384 . S
H1124 C1130 0.930 . S
H1125 C1134 0.930 . S
H1126 C1139 0.929 . S
H1127 C1137 0.929 . S
H1128 C1132 0.929 . S
H1129 C1138 0.929 1_554 S
C1130 H1124 0.930 . S
C1130 C1131 1.367 . S
C1130 C1138 1.378 . S
C1131 C1130 1.367 . S
C1131 C1139 1.433 . S
C1132 H1128 0.929 . S
C1132 C1134 1.378 . S
C1132 C1136 1.350 . S
C1133 C1136 1.463 . S
C1133 C1138 1.350 1_554 S
C1133 N1141 1.427 . S
C1134 H1125 0.930 . S
C1134 C1132 1.378 . S
C1134 C1135 1.367 . S
C1135 C1134 1.367 . S
C1135 C1137 1.433 . S
C1136 C1132 1.350 . S
C1136 C1133 1.463 . S
C1136 N1140 1.427 . S
C1137 H1127 0.929 . S
C1137 C1135 1.433 . S
C1137 N1140 1.384 . S
C1138 H1129 0.929 1_556 S
C1138 C1130 1.378 . S
C1138 C1133 1.350 1_556 S
C1139 H1126 0.929 . S
C1139 C1131 1.433 . S
C1139 N1141 1.384 1_556 S
N1140 C1136 1.427 . S
N1140 C1137 1.384 . S
N1141 C1133 1.427 . S
N1141 C1139 1.384 1_554 S
H1142 C1148 0.930 . S
H1143 C1152 0.930 . S
H1144 C1157 0.929 . S
H1145 C1155 0.929 . S
H1146 C1150 0.929 . S
H1147 C1156 0.929 . S
C1148 H1142 0.930 . S
C1148 C1149 1.367 . S
C1148 C1156 1.378 . S
C1149 C1148 1.367 . S
C1149 C1157 1.433 . S
C1150 H1146 0.929 . S
C1150 C1152 1.378 . S
C1150 C1154 1.350 . S
C1151 C1154 1.463 . S
C1151 C1156 1.350 . S
C1151 N1159 1.427 . S
C1152 H1143 0.930 . S
C1152 C1150 1.378 . S
C1152 C1153 1.367 . S
C1153 C1152 1.367 . S
C1153 C1155 1.433 . S
C1154 C1150 1.350 . S
C1154 C1151 1.463 . S
C1154 N1158 1.427 . S
C1155 H1145 0.929 . S
C1155 C1153 1.433 . S
C1155 N1158 1.384 . S
C1156 H1147 0.929 . S
C1156 C1148 1.378 . S
C1156 C1151 1.350 . S
C1157 H1144 0.929 . S
C1157 C1149 1.433 . S
C1157 N1159 1.384 . S
N1158 C1154 1.427 . S
N1158 C1155 1.384 . S
N1159 C1151 1.427 . S
N1159 C1157 1.384 . S
H1160 C1166 0.930 . S
H1161 C1170 0.930 . S
H1162 C1175 0.929 . S
H1163 C1173 0.929 . S
H1164 C1168 0.929 . S
H1165 C1174 0.929 . S
C1166 H1160 0.930 . S
C1166 C1167 1.367 . S
C1166 C1174 1.378 . S
C1167 C1166 1.367 . S
C1167 C1175 1.433 . S
C1168 H1164 0.929 . S
C1168 C1170 1.378 . S
C1168 C1172 1.350 . S
C1169 C1172 1.463 . S
C1169 C1174 1.350 . S
C1169 N1177 1.427 . S
C1170 H1161 0.930 . S
C1170 C1168 1.378 . S
C1170 C1171 1.367 . S
C1171 C1170 1.367 . S
C1171 C1173 1.433 . S
C1172 C1168 1.350 . S
C1172 C1169 1.463 . S
C1172 N1176 1.427 . S
C1173 H1163 0.929 . S
C1173 C1171 1.433 . S
C1173 N1176 1.384 . S
C1174 H1165 0.929 . S
C1174 C1166 1.378 . S
C1174 C1169 1.350 . S
C1175 H1162 0.929 . S
C1175 C1167 1.433 . S
C1175 N1177 1.384 . S
N1176 C1172 1.427 . S
N1176 C1173 1.384 . S
N1177 C1169 1.427 . S
N1177 C1175 1.384 . S
H1178 C1184 0.930 . S
H1179 C1188 0.930 . S
H1180 C1193 0.929 . S
H1181 C1191 0.929 . S
H1182 C1186 0.929 . S
H1183 C1192 0.929 . S
C1184 H1178 0.930 . S
C1184 C1185 1.367 1_655 S
C1184 C1192 1.378 . S
C1185 C1184 1.367 1_455 S
C1185 C1193 1.433 . S
C1186 H1182 0.929 . S
C1186 C1188 1.378 . S
C1186 C1190 1.350 . S
C1187 C1190 1.463 . S
C1187 C1192 1.350 1_455 S
C1187 N1195 1.427 . S
C1188 H1179 0.930 . S
C1188 C1186 1.378 . S
C1188 C1189 1.367 . S
C1189 C1188 1.367 . S
C1189 C1191 1.433 1_455 S
C1190 C1186 1.350 . S
C1190 C1187 1.463 . S
C1190 N1194 1.427 1_455 S
C1191 H1181 0.929 . S
C1191 C1189 1.433 1_655 S
C1191 N1194 1.384 . S
C1192 H1183 0.929 . S
C1192 C1184 1.378 . S
C1192 C1187 1.350 1_655 S
C1193 H1180 0.929 . S
C1193 C1185 1.433 . S
C1193 N1195 1.384 . S
N1194 C1190 1.427 1_655 S
N1194 C1191 1.384 . S
N1195 C1187 1.427 . S
N1195 C1193 1.384 . S
H1196 C1202 0.930 . S
H1197 C1206 0.930 . S
H1198 C1211 0.929 . S
H1199 C1209 0.929 . S
H1200 C1204 0.929 . S
H1201 C1210 0.929 . S
C1202 H1196 0.930 . S
C1202 C1203 1.367 . S
C1202 C1210 1.378 . S
C1203 C1202 1.367 . S
C1203 C1211 1.433 . S
C1204 H1200 0.929 . S
C1204 C1206 1.378 . S
C1204 C1208 1.350 . S
C1205 C1208 1.488 . S
C1205 C1210 1.337 1_455 S
C1205 N1213 1.416 1_455 S
C1206 H1197 0.930 . S
C1206 C1204 1.378 . S
C1206 C1207 1.367 . S
C1207 C1206 1.367 . S
C1207 C1209 1.433 . S
C1208 C1204 1.350 . S
C1208 C1205 1.488 . S
C1208 N1212 1.427 . S
C1209 H1199 0.929 . S
C1209 C1207 1.433 . S
C1209 N1212 1.384 . S
C1210 H1201 0.929 . S
C1210 C1202 1.378 . S
C1210 C1205 1.337 1_655 S
C1211 H1198 0.929 . S
C1211 C1203 1.433 . S
C1211 N1213 1.384 . S
N1212 C1208 1.427 . S
N1212 C1209 1.384 . S
N1213 C1205 1.416 1_655 S
N1213 C1211 1.384 . S
H1214 C1220 0.930 . S
H1215 C1224 0.930 . S
H1216 C1229 0.929 . S
H1217 C1227 0.929 . S
H1218 C1222 0.929 . S
H1219 C1228 0.929 . S
C1220 H1214 0.930 . S
C1220 C1221 1.367 . S
C1220 C1228 1.378 . S
C1221 C1220 1.367 . S
C1221 C1229 1.433 1_556 S
C1222 H1218 0.929 . S
C1222 C1224 1.378 . S
C1222 C1226 1.350 1_554 S
C1223 C1226 1.463 . S
C1223 C1228 1.350 . S
C1223 N1231 1.427 1_556 S
C1224 H1215 0.930 . S
C1224 C1222 1.378 . S
C1224 C1225 1.367 1_554 S
C1225 C1224 1.367 1_556 S
C1225 C1227 1.433 . S
C1226 C1222 1.350 1_556 S
C1226 C1223 1.463 . S
C1226 N1230 1.427 . S
C1227 H1217 0.929 . S
C1227 C1225 1.433 . S
C1227 N1230 1.384 . S
C1228 H1219 0.929 . S
C1228 C1220 1.378 . S
C1228 C1223 1.350 . S
C1229 H1216 0.929 . S
C1229 C1221 1.433 1_554 S
C1229 N1231 1.384 . S
N1230 C1226 1.427 . S
N1230 C1227 1.384 . S
N1231 C1223 1.427 1_554 S
N1231 C1229 1.384 . S
H1232 C1238 0.930 . S
H1233 C1242 0.930 . S
H1234 C1247 0.929 . S
H1235 C1245 0.929 . S
H1236 C1240 0.929 . S
H1237 C1246 0.929 . S
C1238 H1232 0.930 . S
C1238 C1239 1.367 . S
C1238 C1246 1.378 . S
C1239 C1238 1.367 . S
C1239 C1247 1.433 . S
C1240 H1236 0.929 . S
C1240 C1242 1.378 . S
C1240 C1244 1.350 . S
C1241 C1244 1.463 . S
C1241 C1246 1.350 . S
C1241 N1249 1.427 . S
C1242 H1233 0.930 . S
C1242 C1240 1.378 . S
C1242 C1243 1.367 . S
C1243 C1242 1.367 . S
C1243 C1245 1.433 . S
C1244 C1240 1.350 . S
C1244 C1241 1.463 . S
C1244 N1248 1.427 . S
C1245 H1235 0.929 . S
C1245 C1243 1.433 . S
C1245 N1248 1.384 . S
C1246 H1237 0.929 . S
C1246 C1238 1.378 . S
C1246 C1241 1.350 . S
C1247 H1234 0.929 . S
C1247 C1239 1.433 . S
C1247 N1249 1.384 . S
N1248 C1244 1.427 . S
N1248 C1245 1.384 . S
N1249 C1241 1.427 . S
N1249 C1247 1.384 . S
H1250 C1256 0.930 . S
H1251 C1260 0.930 . S
H1252 C1265 0.929 . S
H1253 C1263 0.929 . S
H1254 C1258 0.929 . S
H1255 C1264 0.929 . S
C1256 H1250 0.930 . S
C1256 C1257 1.367 . S
C1256 C1264 1.378 . S
C1257 C1256 1.367 . S
C1257 C1265 1.433 . S
C1258 H1254 0.929 . S
C1258 C1260 1.378 . S
C1258 C1262 1.350 . S
C1259 C1262 1.463 . S
C1259 C1264 1.350 . S
C1259 N1267 1.427 . S
C1260 H1251 0.930 . S
C1260 C1258 1.378 . S
C1260 C1261 1.367 . S
C1261 C1260 1.367 . S
C1261 C1263 1.433 . S
C1262 C1258 1.350 . S
C1262 C1259 1.463 . S
C1262 N1266 1.427 . S
C1263 H1253 0.929 . S
C1263 C1261 1.433 . S
C1263 N1266 1.384 . S
C1264 H1255 0.929 . S
C1264 C1256 1.378 . S
C1264 C1259 1.350 . S
C1265 H1252 0.929 . S
C1265 C1257 1.433 . S
C1265 N1267 1.384 . S
N1266 C1262 1.427 . S
N1266 C1263 1.384 . S
N1267 C1259 1.427 . S
N1267 C1265 1.384 . S
H1268 C1274 0.930 . S
H1269 C1278 0.930 . S
H1270 C1283 0.929 . S
H1271 C1281 0.929 . S
H1272 C1276 0.929 . S
H1273 C1282 0.929 . S
C1274 H1268 0.930 . S
C1274 C1275 1.367 . S
C1274 C1282 1.378 . S
C1275 C1274 1.367 . S
C1275 C1283 1.433 . S
C1276 H1272 0.929 . S
C1276 C1278 1.378 1_455 S
C1276 C1280 1.350 . S
C1277 C1280 1.463 . S
C1277 C1282 1.350 . S
C1277 N1285 1.427 . S
C1278 H1269 0.930 . S
C1278 C1276 1.378 1_655 S
C1278 C1279 1.367 . S
C1279 C1278 1.367 . S
C1279 C1281 1.433 . S
C1280 C1276 1.350 . S
C1280 C1277 1.463 . S
C1280 N1284 1.427 . S
C1281 H1271 0.929 . S
C1281 C1279 1.433 . S
C1281 N1284 1.384 1_655 S
C1282 H1273 0.929 . S
C1282 C1274 1.378 . S
C1282 C1277 1.350 . S
C1283 H1270 0.929 . S
C1283 C1275 1.433 . S
C1283 N1285 1.384 . S
N1284 C1280 1.427 . S
N1284 C1281 1.384 1_455 S
N1285 C1277 1.427 . S
N1285 C1283 1.384 . S
H1286 C1292 0.930 . S
H1287 C1296 0.920 1_556 S
H1288 C1301 0.929 . S
H1289 C1299 0.929 . S
H1290 C1294 0.929 . S
H1291 C1300 0.929 . S
C1292 H1286 0.930 . S
C1292 C1293 1.367 . S
C1292 C1300 1.378 . S
C1293 C1292 1.367 . S
C1293 C1301 1.433 1_654 S
C1294 H1290 0.929 . S
C1294 C1296 1.375 1_556 S
C1294 C1298 1.350 1_456 S
C1295 C1298 1.463 . S
C1295 C1300 1.350 . S
C1295 N1303 1.427 1_654 S
C1296 H1287 0.920 1_554 S
C1296 C1294 1.375 1_554 S
C1296 C1297 1.380 1_455 S
C1297 C1296 1.380 1_655 S
C1297 C1299 1.433 . S
C1298 C1294 1.350 1_654 S
C1298 C1295 1.463 . S
C1298 N1302 1.427 . S
C1299 H1289 0.929 . S
C1299 C1297 1.433 . S
C1299 N1302 1.384 . S
C1300 H1291 0.929 . S
C1300 C1292 1.378 . S
C1300 C1295 1.350 . S
C1301 H1288 0.929 . S
C1301 C1293 1.433 1_456 S
C1301 N1303 1.384 . S
N1302 C1298 1.427 . S
N1302 C1299 1.384 . S
N1303 C1295 1.427 1_456 S
N1303 C1301 1.384 . S
H1304 C1310 0.930 . S
H1305 C1314 0.930 . S
H1306 C1319 0.929 . S
H1307 C1317 0.929 . S
H1308 C1312 0.929 . S
H1309 C1318 0.929 . S
C1310 H1304 0.930 . S
C1310 C1311 1.367 . S
C1310 C1318 1.378 . S
C1311 C1310 1.367 . S
C1311 C1319 1.433 . S
C1312 H1308 0.929 . S
C1312 C1314 1.378 . S
C1312 C1316 1.350 . S
C1313 C1316 1.463 . S
C1313 C1318 1.350 . S
C1313 N1321 1.427 . S
C1314 H1305 0.930 . S
C1314 C1312 1.378 . S
C1314 C1315 1.367 . S
C1315 C1314 1.367 . S
C1315 C1317 1.433 . S
C1316 C1312 1.350 . S
C1316 C1313 1.463 . S
C1316 N1320 1.427 . S
C1317 H1307 0.929 . S
C1317 C1315 1.433 . S
C1317 N1320 1.384 . S
C1318 H1309 0.929 . S
C1318 C1310 1.378 . S
C1318 C1313 1.350 . S
C1319 H1306 0.929 . S
C1319 C1311 1.433 . S
C1319 N1321 1.384 . S
N1320 C1316 1.427 . S
N1320 C1317 1.384 . S
N1321 C1313 1.427 . S
N1321 C1319 1.384 . S
H1322 C1328 0.930 . S
H1323 C1332 0.930 . S
H1324 C1337 0.929 . S
H1325 C1335 0.929 . S
H1326 C1330 0.929 1_545 S
H1327 C1336 0.929 . S
C1328 H1322 0.930 . S
C1328 C1329 1.367 . S
C1328 C1336 1.378 . S
C1329 C1328 1.367 . S
C1329 C1337 1.433 . S
C1330 H1326 0.929 1_565 S
C1330 C1332 1.378 . S
C1330 C1334 1.350 1_565 S
C1331 C1334 1.463 . S
C1331 C1336 1.350 . S
C1331 N1339 1.427 . S
C1332 H1323 0.930 . S
C1332 C1330 1.378 . S
C1332 C1333 1.367 . S
C1333 C1332 1.367 . S
C1333 C1335 1.433 . S
C1334 C1330 1.350 1_545 S
C1334 C1331 1.463 . S
C1334 N1338 1.427 1_545 S
C1335 H1325 0.929 . S
C1335 C1333 1.433 . S
C1335 N1338 1.384 . S
C1336 H1327 0.929 . S
C1336 C1328 1.378 . S
C1336 C1331 1.350 . S
C1337 H1324 0.929 . S
C1337 C1329 1.433 . S
C1337 N1339 1.384 . S
N1338 C1334 1.427 1_565 S
N1338 C1335 1.384 . S
N1339 C1331 1.427 . S
N1339 C1337 1.384 . S
H1340 C1346 0.930 . S
H1341 C1350 0.930 . S
H1342 C1355 0.929 . S
H1343 C1353 0.929 . S
H1344 C1348 0.929 . S
H1345 C1354 0.929 . S
C1346 H1340 0.930 . S
C1346 C1347 1.367 . S
C1346 C1354 1.378 . S
C1347 C1346 1.367 . S
C1347 C1355 1.433 1_554 S
C1348 H1344 0.929 . S
C1348 C1350 1.378 . S
C1348 C1352 1.350 . S
C1349 C1352 1.463 1_554 S
C1349 C1354 1.350 . S
C1349 N1357 1.427 1_554 S
C1350 H1341 0.930 . S
C1350 C1348 1.378 . S
C1350 C1351 1.367 . S
C1351 C1350 1.367 . S
C1351 C1353 1.433 1_556 S
C1352 C1348 1.350 . S
C1352 C1349 1.463 1_556 S
C1352 N1356 1.427 1_556 S
C1353 H1343 0.929 . S
C1353 C1351 1.433 1_554 S
C1353 N1356 1.384 . S
C1354 H1345 0.929 . S
C1354 C1346 1.378 . S
C1354 C1349 1.350 . S
C1355 H1342 0.929 . S
C1355 C1347 1.433 1_556 S
C1355 N1357 1.384 . S
N1356 C1352 1.427 1_554 S
N1356 C1353 1.384 . S
N1357 C1349 1.427 1_556 S
N1357 C1355 1.384 . S
H1358 C1364 0.930 . S
H1359 C1368 0.930 . S
H1360 C1373 0.929 . S
H1361 C1371 0.929 . S
H1362 C1366 0.929 . S
H1363 C1372 0.929 . S
C1364 H1358 0.930 . S
C1364 C1365 1.367 . S
C1364 C1372 1.378 . S
C1365 C1364 1.367 . S
C1365 C1373 1.433 . S
C1366 H1362 0.929 . S
C1366 C1368 1.378 . S
C1366 C1370 1.350 . S
C1367 C1370 1.463 1_545 S
C1367 C1372 1.350 . S
C1367 N1375 1.427 . S
C1368 H1359 0.930 . S
C1368 C1366 1.378 . S
C1368 C1369 1.367 . S
C1369 C1368 1.367 . S
C1369 C1371 1.433 . S
C1370 C1366 1.350 . S
C1370 C1367 1.463 1_565 S
C1370 N1374 1.427 . S
C1371 H1361 0.929 . S
C1371 C1369 1.433 . S
C1371 N1374 1.384 . S
C1372 H1363 0.929 . S
C1372 C1364 1.378 . S
C1372 C1367 1.350 . S
C1373 H1360 0.929 . S
C1373 C1365 1.433 . S
C1373 N1375 1.384 . S
N1374 C1370 1.427 . S
N1374 C1371 1.384 . S
N1375 C1367 1.427 . S
N1375 C1373 1.384 . S
H1376 C1382 0.930 . S
H1377 C1386 0.930 1_554 S
H1378 C1391 0.929 1_554 S
H1379 C1389 0.929 . S
H1380 C1384 0.929 1_554 S
H1381 C1390 0.929 . S
C1382 H1376 0.930 . S
C1382 C1383 1.367 . S
C1382 C1390 1.378 . S
C1383 C1382 1.367 . S
C1383 C1391 1.433 . S
C1384 H1380 0.929 1_556 S
C1384 C1386 1.378 . S
C1384 C1388 1.350 . S
C1385 C1388 1.463 . S
C1385 C1390 1.350 . S
C1385 N1393 1.427 . S
C1386 H1377 0.930 1_556 S
C1386 C1384 1.378 . S
C1386 C1387 1.367 . S
C1387 C1386 1.367 . S
C1387 C1389 1.433 . S
C1388 C1384 1.350 . S
C1388 C1385 1.463 . S
C1388 N1392 1.427 . S
C1389 H1379 0.929 . S
C1389 C1387 1.433 . S
C1389 N1392 1.384 . S
C1390 H1381 0.929 . S
C1390 C1382 1.378 . S
C1390 C1385 1.350 . S
C1391 H1378 0.929 1_556 S
C1391 C1383 1.433 . S
C1391 N1393 1.384 . S
N1392 C1388 1.427 . S
N1392 C1389 1.384 . S
N1393 C1385 1.427 . S
N1393 C1391 1.384 . S
H1394 C1400 0.930 . S
H1395 C1404 0.930 . S
H1396 C1409 0.929 . S
H1397 C1407 0.929 . S
H1398 C1402 0.929 . S
H1399 C1408 0.929 . S
C1400 H1394 0.930 . S
C1400 C1401 1.367 . S
C1400 C1408 1.378 . S
C1401 C1400 1.367 . S
C1401 C1409 1.433 . S
C1402 H1398 0.929 . S
C1402 C1404 1.378 . S
C1402 C1406 1.350 . S
C1403 C1406 1.463 . S
C1403 C1408 1.350 . S
C1403 N1411 1.427 . S
C1404 H1395 0.930 . S
C1404 C1402 1.378 . S
C1404 C1405 1.367 . S
C1405 C1404 1.367 . S
C1405 C1407 1.433 . S
C1406 C1402 1.350 . S
C1406 C1403 1.463 . S
C1406 N1410 1.427 . S
C1407 H1397 0.929 . S
C1407 C1405 1.433 . S
C1407 N1410 1.384 . S
C1408 H1399 0.929 . S
C1408 C1400 1.378 . S
C1408 C1403 1.350 . S
C1409 H1396 0.929 . S
C1409 C1401 1.433 . S
C1409 N1411 1.384 . S
N1410 C1406 1.427 . S
N1410 C1407 1.384 . S
N1411 C1403 1.427 . S
N1411 C1409 1.384 . S
H1412 C1418 0.930 . S
H1413 C1422 0.930 . S
H1414 C1427 0.929 . S
H1415 C1425 0.929 . S
H1416 C1420 0.929 . S
H1417 C1426 0.929 . S
C1418 H1412 0.930 . S
C1418 C1419 1.367 . S
C1418 C1426 1.378 . S
C1419 C1418 1.367 . S
C1419 C1427 1.433 . S
C1420 H1416 0.929 . S
C1420 C1422 1.378 . S
C1420 C1424 1.350 . S
C1421 C1424 1.463 . S
C1421 C1426 1.350 . S
C1421 N1429 1.427 . S
C1422 H1413 0.930 . S
C1422 C1420 1.378 . S
C1422 C1423 1.367 . S
C1423 C1422 1.367 . S
C1423 C1425 1.433 . S
C1424 C1420 1.350 . S
C1424 C1421 1.463 . S
C1424 N1428 1.427 . S
C1425 H1415 0.929 . S
C1425 C1423 1.433 . S
C1425 N1428 1.384 . S
C1426 H1417 0.929 . S
C1426 C1418 1.378 . S
C1426 C1421 1.350 . S
C1427 H1414 0.929 . S
C1427 C1419 1.433 . S
C1427 N1429 1.384 . S
N1428 C1424 1.427 . S
N1428 C1425 1.384 . S
N1429 C1421 1.427 . S
N1429 C1427 1.384 . S
H1430 C1436 0.930 . S
H1431 C1440 0.930 . S
H1432 C1445 0.929 . S
H1433 C1443 0.929 . S
H1434 C1438 0.929 . S
H1435 C1444 0.929 . S
C1436 H1430 0.930 . S
C1436 C1437 1.367 . S
C1436 C1444 1.378 1_556 S
C1437 C1436 1.367 . S
C1437 C1445 1.433 . S
C1438 H1434 0.929 . S
C1438 C1440 1.378 . S
C1438 C1442 1.350 . S
C1439 C1442 1.463 . S
C1439 C1444 1.350 . S
C1439 N1447 1.427 . S
C1440 H1431 0.930 . S
C1440 C1438 1.378 . S
C1440 C1441 1.367 . S
C1441 C1440 1.367 . S
C1441 C1443 1.433 . S
C1442 C1438 1.350 . S
C1442 C1439 1.463 . S
C1442 N1446 1.427 . S
C1443 H1433 0.929 . S
C1443 C1441 1.433 . S
C1443 N1446 1.384 . S
C1444 H1435 0.929 . S
C1444 C1436 1.378 1_554 S
C1444 C1439 1.350 . S
C1445 H1432 0.929 . S
C1445 C1437 1.433 . S
C1445 N1447 1.384 1_556 S
N1446 C1442 1.427 . S
N1446 C1443 1.384 . S
N1447 C1439 1.427 . S
N1447 C1445 1.384 1_554 S
H1448 C1454 0.930 . S
H1449 C1458 0.930 . S
H1450 C1463 0.929 . S
H1451 C1461 0.929 . S
H1452 C1456 0.929 . S
H1453 C1462 0.929 . S
C1454 H1448 0.930 . S
C1454 C1455 1.367 . S
C1454 C1462 1.378 . S
C1455 C1454 1.367 . S
C1455 C1463 1.433 . S
C1456 H1452 0.929 . S
C1456 C1458 1.378 . S
C1456 C1460 1.350 . S
C1457 C1460 1.463 . S
C1457 C1462 1.350 . S
C1457 N1465 1.427 . S
C1458 H1449 0.930 . S
C1458 C1456 1.378 . S
C1458 C1459 1.367 . S
C1459 C1458 1.367 . S
C1459 C1461 1.433 . S
C1460 C1456 1.350 . S
C1460 C1457 1.463 . S
C1460 N1464 1.427 . S
C1461 H1451 0.929 . S
C1461 C1459 1.433 . S
C1461 N1464 1.384 . S
C1462 H1453 0.929 . S
C1462 C1454 1.378 . S
C1462 C1457 1.350 . S
C1463 H1450 0.929 . S
C1463 C1455 1.433 . S
C1463 N1465 1.384 . S
N1464 C1460 1.427 . S
N1464 C1461 1.384 . S
N1465 C1457 1.427 . S
N1465 C1463 1.384 . S
H1466 C1472 0.930 . S
H1467 C1476 0.930 . S
H1468 C1481 0.929 . S
H1469 C1479 0.929 . S
H1470 C1474 0.929 . S
H1471 C1480 0.929 . S
C1472 H1466 0.930 . S
C1472 C1473 1.367 . S
C1472 C1480 1.378 . S
C1473 C1472 1.367 . S
C1473 C1481 1.433 . S
C1474 H1470 0.929 . S
C1474 C1476 1.378 . S
C1474 C1478 1.350 . S
C1475 C1478 1.463 . S
C1475 C1480 1.350 . S
C1475 N1483 1.427 . S
C1476 H1467 0.930 . S
C1476 C1474 1.378 . S
C1476 C1477 1.367 . S
C1477 C1476 1.367 . S
C1477 C1479 1.433 . S
C1478 C1474 1.350 . S
C1478 C1475 1.463 . S
C1478 N1482 1.427 . S
C1479 H1469 0.929 . S
C1479 C1477 1.433 . S
C1479 N1482 1.384 . S
C1480 H1471 0.929 . S
C1480 C1472 1.378 . S
C1480 C1475 1.350 . S
C1481 H1468 0.929 . S
C1481 C1473 1.433 . S
C1481 N1483 1.384 . S
N1482 C1478 1.427 . S
N1482 C1479 1.384 . S
N1483 C1475 1.427 . S
N1483 C1481 1.384 . S
H1484 C1490 0.930 1_455 S
H1485 C1494 0.930 . S
H1486 C1499 0.929 . S
H1487 C1497 0.938 . S
H1488 C1492 0.929 . S
H1489 C1498 0.929 1_455 S
C1490 H1484 0.930 1_655 S
C1490 C1491 1.367 . S
C1490 C1498 1.378 . S
C1491 C1490 1.367 . S
C1491 C1499 1.433 . S
C1492 H1488 0.929 . S
C1492 C1494 1.378 . S
C1492 C1496 1.350 . S
C1493 C1496 1.463 . S
C1493 C1498 1.350 . S
C1493 N1501 1.427 . S
C1494 H1485 0.930 . S
C1494 C1492 1.378 . S
C1494 C1495 1.367 . S
C1495 C1494 1.367 . S
C1495 C1497 1.423 1_655 S
C1496 C1492 1.350 . S
C1496 C1493 1.463 . S
C1496 N1500 1.428 . S
C1497 H1487 0.938 . S
C1497 C1495 1.423 1_455 S
C1497 N1500 1.385 1_455 S
C1498 H1489 0.929 1_655 S
C1498 C1490 1.378 . S
C1498 C1493 1.350 . S
C1499 H1486 0.929 . S
C1499 C1491 1.433 . S
C1499 N1501 1.384 . S
N1500 C1496 1.428 . S
N1500 C1497 1.385 1_655 S
N1501 C1493 1.427 . S
N1501 C1499 1.384 . S
H1502 C1508 0.930 . S
H1503 C1512 0.930 . S
H1504 C1517 0.929 . S
H1505 C1515 0.929 . S
H1506 C1510 0.929 . S
H1507 C1516 0.929 . S
C1508 H1502 0.930 . S
C1508 C1509 1.367 . S
C1508 C1516 1.378 . S
C1509 C1508 1.367 . S
C1509 C1517 1.433 . S
C1510 H1506 0.929 . S
C1510 C1512 1.378 . S
C1510 C1514 1.350 . S
C1511 C1514 1.463 . S
C1511 C1516 1.350 . S
C1511 N1519 1.427 . S
C1512 H1503 0.930 . S
C1512 C1510 1.378 . S
C1512 C1513 1.367 . S
C1513 C1512 1.367 . S
C1513 C1515 1.433 . S
C1514 C1510 1.350 . S
C1514 C1511 1.463 . S
C1514 N1518 1.427 . S
C1515 H1505 0.929 . S
C1515 C1513 1.433 . S
C1515 N1518 1.384 . S
C1516 H1507 0.929 . S
C1516 C1508 1.378 . S
C1516 C1511 1.350 . S
C1517 H1504 0.929 . S
C1517 C1509 1.433 . S
C1517 N1519 1.384 . S
N1518 C1514 1.427 . S
N1518 C1515 1.384 . S
N1519 C1511 1.427 . S
N1519 C1517 1.384 . S
C951 C5 1.788 . S
C955 C418 1.777 . S
C969 C64 1.884 . S
C973 C241 1.885 . S
C987 C300 1.724 . S
C991 C123 1.742 . S
C1005 C182 1.933 . S
C1009 C359 1.896 . S
C1023 C477 1.886 . S
C1027 C713 1.885 . S
C1041 C536 1.719 . S
C1045 C831 1.742 . S
C1059 C654 1.936 . S
C1063 C595 1.903 . S
C1077 C890 1.779 . S
C1081 C772 1.788 . S
C1095 C52 1.081 . S
C1099 C357 1.057 . S
C1113 C446 1.656 1_545 S
C1117 C92 1.664 . S
C1131 C170 0.993 . S
C1135 C239 0.953 . S
C1149 C328 1.825 . S
C1153 C180 1.835 . S
C1167 C33 1.269 . S
C1171 C859 1.275 . S
C1185 C701 0.624 . S
C1189 C62 0.670 1_455 S
C1203 C800 1.261 . S
C1207 C151 1.267 . S
C1221 C711 0.655 . S
C1225 C229 0.626 . S
C1239 C642 1.981 . S
C1243 C288 1.984 . S
C1257 C298 1.009 . S
C1261 C888 1.042 . S
C1275 C406 1.981 . S
C1279 C524 1.984 . S
C1293 C416 1.037 . S
C1297 C534 1.011 . S
C1311 C3 1.614 . S
C1315 C269 1.620 . S
C1329 C505 1.620 . S
C1333 C770 1.621 . S
C1347 C760 1.610 . S
C1351 C583 1.608 . S
C1365 C829 1.247 . S
C1369 C623 1.204 . S
C1383 C465 1.457 . S
C1387 C210 1.423 . S
C1401 C121 1.238 . S
C1405 C387 1.189 . S
C1419 C682 1.432 . S
C1423 C937 1.453 . S
C1437 C819 1.076 . S
C1441 C593 1.056 . S
C1455 C918 1.648 . S
C1459 C741 1.657 . S
C1473 C878 0.996 . S
C1477 C475 0.953 . S
C1491 C652 1.831 . S
C1495 C564 1.823 . S
C1509 C111 1.609 . S
C1513 C347 1.609 . S
