# Generated by pormake.
# Topology unl, (4)-cn, num edge types: 1
# Building blocks:
#     Node 0, Type 0, BuildingBlock: ICAMEG_clean_sbu_1, # of connection points: 4
#     Node 1, Type 0, BuildingBlock: ICAMEG_clean_sbu_1, # of connection points: 4
#     Node 2, Type 0, BuildingBlock: ICAMEG_clean_sbu_1, # of connection points: 4
#     Node 3, Type 0, BuildingBlock: ICAMEG_clean_sbu_1, # of connection points: 4
#     Node 4, Type 0, BuildingBlock: ICAMEG_clean_sbu_1, # of connection points: 4
#     Node 5, Type 0, BuildingBlock: ICAMEG_clean_sbu_1, # of connection points: 4
#     Node 6, Type 0, BuildingBlock: ICAMEG_clean_sbu_1, # of connection points: 4
#     Node 7, Type 0, BuildingBlock: ICAMEG_clean_sbu_1, # of connection points: 4
#     Node 8, Type 0, BuildingBlock: ICAMEG_clean_sbu_1, # of connection points: 4
#     Node 9, Type 0, BuildingBlock: ICAMEG_clean_sbu_1, # of connection points: 4
#     Node 10, Type 0, BuildingBlock: ICAMEG_clean_sbu_1, # of connection points: 4
#     Node 11, Type 0, BuildingBlock: ICAMEG_clean_sbu_1, # of connection points: 4
#     Node 12, Type 0, BuildingBlock: ICAMEG_clean_sbu_1, # of connection points: 4
#     Node 13, Type 0, BuildingBlock: ICAMEG_clean_sbu_1, # of connection points: 4
#     Node 14, Type 0, BuildingBlock: ICAMEG_clean_sbu_1, # of connection points: 4
#     Node 15, Type 0, BuildingBlock: ICAMEG_clean_sbu_1, # of connection points: 4
#     Node 16, Type 0, BuildingBlock: ICAMEG_clean_sbu_1, # of connection points: 4
#     Node 17, Type 0, BuildingBlock: ICAMEG_clean_sbu_1, # of connection points: 4
#     Node 18, Type 0, BuildingBlock: ICAMEG_clean_sbu_1, # of connection points: 4
#     Node 19, Type 0, BuildingBlock: ICAMEG_clean_sbu_1, # of connection points: 4
#     Node 20, Type 0, BuildingBlock: ICAMEG_clean_sbu_1, # of connection points: 4
#     Node 21, Type 0, BuildingBlock: ICAMEG_clean_sbu_1, # of connection points: 4
#     Node 22, Type 0, BuildingBlock: ICAMEG_clean_sbu_1, # of connection points: 4
#     Node 23, Type 0, BuildingBlock: ICAMEG_clean_sbu_1, # of connection points: 4
#     Node 24, Type 0, BuildingBlock: ICAMEG_clean_sbu_1, # of connection points: 4
#     Node 25, Type 0, BuildingBlock: ICAMEG_clean_sbu_1, # of connection points: 4
#     Node 26, Type 0, BuildingBlock: ICAMEG_clean_sbu_1, # of connection points: 4
#     Node 27, Type 0, BuildingBlock: ICAMEG_clean_sbu_1, # of connection points: 4
#     Node 28, Type 0, BuildingBlock: ICAMEG_clean_sbu_1, # of connection points: 4
#     Node 29, Type 0, BuildingBlock: ICAMEG_clean_sbu_1, # of connection points: 4
#     Node 30, Type 0, BuildingBlock: ICAMEG_clean_sbu_1, # of connection points: 4
#     Node 31, Type 0, BuildingBlock: ICAMEG_clean_sbu_1, # of connection points: 4
#     Node 32, Type 0, BuildingBlock: ICAMEG_clean_sbu_1, # of connection points: 4
#     Node 33, Type 0, BuildingBlock: ICAMEG_clean_sbu_1, # of connection points: 4
#     Node 34, Type 0, BuildingBlock: ICAMEG_clean_sbu_1, # of connection points: 4
#     Node 35, Type 0, BuildingBlock: ICAMEG_clean_sbu_1, # of connection points: 4
#     Edge 36, Type (0, 0), BuildingBlock: OJICUG_clean_linker_0, # of connection points: 2
#     Edge 37, Type (0, 0), BuildingBlock: OJICUG_clean_linker_0, # of connection points: 2
#     Edge 38, Type (0, 0), BuildingBlock: OJICUG_clean_linker_0, # of connection points: 2
#     Edge 39, Type (0, 0), BuildingBlock: OJICUG_clean_linker_0, # of connection points: 2
#     Edge 40, Type (0, 0), BuildingBlock: OJICUG_clean_linker_0, # of connection points: 2
#     Edge 41, Type (0, 0), BuildingBlock: OJICUG_clean_linker_0, # of connection points: 2
#     Edge 42, Type (0, 0), BuildingBlock: OJICUG_clean_linker_0, # of connection points: 2
#     Edge 43, Type (0, 0), BuildingBlock: OJICUG_clean_linker_0, # of connection points: 2
#     Edge 44, Type (0, 0), BuildingBlock: OJICUG_clean_linker_0, # of connection points: 2
#     Edge 45, Type (0, 0), BuildingBlock: OJICUG_clean_linker_0, # of connection points: 2
#     Edge 46, Type (0, 0), BuildingBlock: OJICUG_clean_linker_0, # of connection points: 2
#     Edge 47, Type (0, 0), BuildingBlock: OJICUG_clean_linker_0, # of connection points: 2
#     Edge 48, Type (0, 0), BuildingBlock: OJICUG_clean_linker_0, # of connection points: 2
#     Edge 49, Type (0, 0), BuildingBlock: OJICUG_clean_linker_0, # of connection points: 2
#     Edge 50, Type (0, 0), BuildingBlock: OJICUG_clean_linker_0, # of connection points: 2
#     Edge 51, Type (0, 0), BuildingBlock: OJICUG_clean_linker_0, # of connection points: 2
#     Edge 52, Type (0, 0), BuildingBlock: OJICUG_clean_linker_0, # of connection points: 2
#     Edge 53, Type (0, 0), BuildingBlock: OJICUG_clean_linker_0, # of connection points: 2
#     Edge 54, Type (0, 0), BuildingBlock: OJICUG_clean_linker_0, # of connection points: 2
#     Edge 55, Type (0, 0), BuildingBlock: OJICUG_clean_linker_0, # of connection points: 2
#     Edge 56, Type (0, 0), BuildingBlock: OJICUG_clean_linker_0, # of connection points: 2
#     Edge 57, Type (0, 0), BuildingBlock: OJICUG_clean_linker_0, # of connection points: 2
#     Edge 58, Type (0, 0), BuildingBlock: OJICUG_clean_linker_0, # of connection points: 2
#     Edge 59, Type (0, 0), BuildingBlock: OJICUG_clean_linker_0, # of connection points: 2
#     Edge 60, Type (0, 0), BuildingBlock: OJICUG_clean_linker_0, # of connection points: 2
#     Edge 61, Type (0, 0), BuildingBlock: OJICUG_clean_linker_0, # of connection points: 2
#     Edge 62, Type (0, 0), BuildingBlock: OJICUG_clean_linker_0, # of connection points: 2
#     Edge 63, Type (0, 0), BuildingBlock: OJICUG_clean_linker_0, # of connection points: 2
#     Edge 64, Type (0, 0), BuildingBlock: OJICUG_clean_linker_0, # of connection points: 2
#     Edge 65, Type (0, 0), BuildingBlock: OJICUG_clean_linker_0, # of connection points: 2
#     Edge 66, Type (0, 0), BuildingBlock: OJICUG_clean_linker_0, # of connection points: 2
#     Edge 67, Type (0, 0), BuildingBlock: OJICUG_clean_linker_0, # of connection points: 2
#     Edge 68, Type (0, 0), BuildingBlock: OJICUG_clean_linker_0, # of connection points: 2
#     Edge 69, Type (0, 0), BuildingBlock: OJICUG_clean_linker_0, # of connection points: 2
#     Edge 70, Type (0, 0), BuildingBlock: OJICUG_clean_linker_0, # of connection points: 2
#     Edge 71, Type (0, 0), BuildingBlock: OJICUG_clean_linker_0, # of connection points: 2
#     Edge 72, Type (0, 0), BuildingBlock: OJICUG_clean_linker_0, # of connection points: 2
#     Edge 73, Type (0, 0), BuildingBlock: OJICUG_clean_linker_0, # of connection points: 2
#     Edge 74, Type (0, 0), BuildingBlock: OJICUG_clean_linker_0, # of connection points: 2
#     Edge 75, Type (0, 0), BuildingBlock: OJICUG_clean_linker_0, # of connection points: 2
#     Edge 76, Type (0, 0), BuildingBlock: OJICUG_clean_linker_0, # of connection points: 2
#     Edge 77, Type (0, 0), BuildingBlock: OJICUG_clean_linker_0, # of connection points: 2
#     Edge 78, Type (0, 0), BuildingBlock: OJICUG_clean_linker_0, # of connection points: 2
#     Edge 79, Type (0, 0), BuildingBlock: OJICUG_clean_linker_0, # of connection points: 2
#     Edge 80, Type (0, 0), BuildingBlock: OJICUG_clean_linker_0, # of connection points: 2
#     Edge 81, Type (0, 0), BuildingBlock: OJICUG_clean_linker_0, # of connection points: 2
#     Edge 82, Type (0, 0), BuildingBlock: OJICUG_clean_linker_0, # of connection points: 2
#     Edge 83, Type (0, 0), BuildingBlock: OJICUG_clean_linker_0, # of connection points: 2
#     Edge 84, Type (0, 0), BuildingBlock: OJICUG_clean_linker_0, # of connection points: 2
#     Edge 85, Type (0, 0), BuildingBlock: OJICUG_clean_linker_0, # of connection points: 2
#     Edge 86, Type (0, 0), BuildingBlock: OJICUG_clean_linker_0, # of connection points: 2
#     Edge 87, Type (0, 0), BuildingBlock: OJICUG_clean_linker_0, # of connection points: 2
#     Edge 88, Type (0, 0), BuildingBlock: OJICUG_clean_linker_0, # of connection points: 2
#     Edge 89, Type (0, 0), BuildingBlock: OJICUG_clean_linker_0, # of connection points: 2
#     Edge 90, Type (0, 0), BuildingBlock: OJICUG_clean_linker_0, # of connection points: 2
#     Edge 91, Type (0, 0), BuildingBlock: OJICUG_clean_linker_0, # of connection points: 2
#     Edge 92, Type (0, 0), BuildingBlock: OJICUG_clean_linker_0, # of connection points: 2
#     Edge 93, Type (0, 0), BuildingBlock: OJICUG_clean_linker_0, # of connection points: 2
#     Edge 94, Type (0, 0), BuildingBlock: OJICUG_clean_linker_0, # of connection points: 2
#     Edge 95, Type (0, 0), BuildingBlock: OJICUG_clean_linker_0, # of connection points: 2
#     Edge 96, Type (0, 0), BuildingBlock: OJICUG_clean_linker_0, # of connection points: 2
#     Edge 97, Type (0, 0), BuildingBlock: OJICUG_clean_linker_0, # of connection points: 2
#     Edge 98, Type (0, 0), BuildingBlock: OJICUG_clean_linker_0, # of connection points: 2
#     Edge 99, Type (0, 0), BuildingBlock: OJICUG_clean_linker_0, # of connection points: 2
#     Edge 100, Type (0, 0), BuildingBlock: OJICUG_clean_linker_0, # of connection points: 2
#     Edge 101, Type (0, 0), BuildingBlock: OJICUG_clean_linker_0, # of connection points: 2
#     Edge 102, Type (0, 0), BuildingBlock: OJICUG_clean_linker_0, # of connection points: 2
#     Edge 103, Type (0, 0), BuildingBlock: OJICUG_clean_linker_0, # of connection points: 2
#     Edge 104, Type (0, 0), BuildingBlock: OJICUG_clean_linker_0, # of connection points: 2
#     Edge 105, Type (0, 0), BuildingBlock: OJICUG_clean_linker_0, # of connection points: 2
#     Edge 106, Type (0, 0), BuildingBlock: OJICUG_clean_linker_0, # of connection points: 2
#     Edge 107, Type (0, 0), BuildingBlock: OJICUG_clean_linker_0, # of connection points: 2
# Relax obj value: 0.004
# Max RMSD: 0.039
# Mean RMSD: 0.039
data_MOF--net-unl--node1-ICAMEG_clean_sbu_1--edge1-OJICUG_clean_linker_0
_symmetry_space_group_name_H-M    P1
_symmetry_Int_Tables_number       1
_symmetry_cell_setting            triclinic
loop_
_symmetry_equiv_pos_as_xyz
'x, y, z'
_cell_length_a     53.724135
_cell_length_b     53.724325
_cell_length_c     30.289652
_cell_angle_alpha  90.002805
_cell_angle_beta   89.99697
_cell_angle_gamma 120.00238
loop_
_atom_site_label
_atom_site_type_symbol
_atom_site_fract_x
_atom_site_fract_y
_atom_site_fract_z
_atom_type_partial_charge
Co0 Co 0.18769 0.11363 0.11789 0.0
Co1 Co 0.24703 0.17975 0.09933 0.0
O2 O 0.22818 0.13763 0.10208 0.0
C3 C 0.19336 0.08492 0.03742 0.0
O4 O 0.21014 0.1103 0.01995 0.0
C5 C 0.28653 0.16833 0.15314 0.0
O6 O 0.26413 0.15076 0.17698 0.0
O7 O 0.23468 0.18166 0.1609 0.0
O8 O 0.19032 0.14327 0.16037 0.0
H9 H 0.25447 0.27604 0.1205 0.0
H10 H 0.22598 0.08886 0.12236 0.0
O11 O 0.18327 0.08276 0.07611 0.0
H12 H 0.18833 0.08064 0.27339 0.0
H13 H 0.09777 0.02065 0.1545 0.0
H14 H 0.13962 0.12495 0.132 0.0
H15 H 0.17343 0.10161 0.21372 0.0
H16 H 0.14906 0.05106 0.13575 0.0
O17 O 0.28359 0.18244 0.12173 0.0
H18 H 0.23046 0.22313 0.12286 0.0
H19 H 0.30525 0.22581 0.0711 0.0
H20 H 0.08828 0.09538 0.1511 0.0
H21 H 0.24127 0.06748 0.18097 0.0
H22 H 0.06704 0.04283 0.16249 0.0
H23 H 0.22245 0.06334 0.25715 0.0
O24 O 0.17668 0.13159 0.07012 0.0
H25 H 0.28943 0.14738 0.97981 0.0
H26 H 0.24413 0.2055 0.01355 0.0
H27 H 0.25816 0.20292 0.93691 0.0
H28 H 0.28107 0.17377 0.91966 0.0
H29 H 0.27472 0.15023 0.05589 0.0
H30 H 0.33014 0.27877 0.06847 0.0
H31 H 0.30468 0.30423 0.09314 0.0
O32 O 0.21101 0.17802 0.07616 0.0
C33 C 0.20944 0.16702 0.17703 0.0
C34 C 0.26576 0.26519 0.10953 0.0
C35 C 0.30825 0.26673 0.08039 0.0
N36 N 0.26635 0.22138 0.09683 0.0
C37 C 0.25225 0.23523 0.11067 0.0
C38 C 0.29406 0.23674 0.08204 0.0
C39 C 0.29395 0.281 0.09422 0.0
C40 C 0.21751 0.08688 0.15535 0.0
N41 N 0.19877 0.09638 0.16457 0.0
C42 C 0.22633 0.07487 0.18843 0.0
C43 C 0.2158 0.07259 0.23118 0.0
C44 C 0.19668 0.08233 0.24033 0.0
C45 C 0.18839 0.09427 0.20643 0.0
C46 C 0.10679 0.04354 0.1497 0.0
C47 C 0.13057 0.10213 0.13712 0.0
C48 C 0.13581 0.06086 0.13898 0.0
N49 N 0.14738 0.0898 0.13309 0.0
C50 C 0.10147 0.08548 0.14783 0.0
C51 C 0.08956 0.05599 0.15419 0.0
C52 C 0.18658 0.15824 0.06222 0.0
C53 C 0.27955 0.16022 0.98694 0.0
C54 C 0.25393 0.19262 0.00629 0.0
C55 C 0.26192 0.19133 0.96284 0.0
C56 C 0.2748 0.175 0.95319 0.0
N57 N 0.25867 0.17809 0.03923 0.0
C58 C 0.2713 0.16203 0.03001 0.0
Co59 Co 0.90084 0.07693 0.1176 0.0
Co60 Co 0.8347 0.07016 0.09934 0.0
O61 O 0.87682 0.09343 0.10191 0.0
C62 C 0.92951 0.1114 0.03712 0.0
O63 O 0.90413 0.10291 0.01973 0.0
C64 C 0.84621 0.12113 0.15313 0.0
O65 O 0.86383 0.11635 0.17689 0.0
O66 O 0.8329 0.05595 0.16092 0.0
O67 O 0.87126 0.04994 0.16018 0.0
H68 H 0.73844 0.98133 0.12096 0.0
H69 H 0.92562 0.13999 0.12205 0.0
O70 O 0.93167 0.10336 0.07573 0.0
H71 H 0.93414 0.11063 0.27297 0.0
H72 H 0.99385 0.07994 0.15377 0.0
H73 H 0.8895 0.01753 0.13167 0.0
H74 H 0.91304 0.07473 0.21336 0.0
H75 H 0.96344 0.10085 0.13521 0.0
O76 O 0.83205 0.10405 0.12177 0.0
H77 H 0.79135 0.01023 0.12306 0.0
H78 H 0.78858 0.08229 0.07134 0.0
H79 H 0.91908 0.99575 0.15058 0.0
H80 H 0.94712 0.17669 0.1806 0.0
H81 H 0.97165 0.02703 0.16177 0.0
H82 H 0.95143 0.16206 0.25673 0.0
O83 O 0.88279 0.04795 0.06985 0.0
H84 H 0.86682 0.14483 0.97971 0.0
H85 H 0.80877 0.04143 0.01368 0.0
H86 H 0.81119 0.05797 0.93704 0.0
H87 H 0.8403 0.11002 0.91967 0.0
H88 H 0.86413 0.12734 0.05579 0.0
H89 H 0.73561 0.05423 0.06897 0.0
H90 H 0.7102 1.00333 0.09375 0.0
O91 O 0.83638 0.03585 0.07615 0.0
C92 C 0.84755 0.04535 0.17696 0.0
C93 C 0.74927 1.00346 0.10994 0.0
C94 C 0.74768 0.04438 0.08082 0.0
N95 N 0.79306 0.04785 0.09703 0.0
C96 C 0.77924 0.01991 0.11094 0.0
C97 C 0.77768 0.06019 0.08233 0.0
C98 C 0.73344 0.01582 0.09471 0.0
C99 C 0.92766 0.13352 0.15501 0.0
N100 N 0.91817 0.10528 0.16423 0.0
C101 C 0.93975 0.15437 0.18807 0.0
C102 C 0.94211 0.14613 0.23079 0.0
C103 C 0.93239 0.11728 0.23994 0.0
C104 C 0.92037 0.09703 0.20607 0.0
C105 C 0.97095 0.06609 0.14906 0.0
C106 C 0.91234 0.0313 0.1367 0.0
C107 C 0.95363 0.07779 0.13844 0.0
N108 N 0.92467 0.06044 0.13266 0.0
C109 C 0.92899 0.01884 0.14731 0.0
C110 C 0.95849 0.0364 0.15355 0.0
C111 C 0.85613 0.03119 0.06208 0.0
C112 C 0.85399 0.12211 0.98689 0.0
C113 C 0.82164 0.0641 0.00637 0.0
C114 C 0.82284 0.07335 0.96292 0.0
C115 C 0.83915 0.10256 0.9532 0.0
N116 N 0.83624 0.0834 0.03924 0.0
C117 C 0.85227 0.11208 0.02996 0.0
Co118 Co 0.9372 0.82664 0.11774 0.0
Co119 Co 0.94403 0.76733 0.09921 0.0
O120 O 0.92074 0.78615 0.10197 0.0
C121 C 0.90281 0.82093 0.03726 0.0
O122 O 0.91143 0.80417 0.0198 0.0
C123 C 0.89315 0.72781 0.15311 0.0
O124 O 0.89795 0.7502 0.17693 0.0
O125 O 0.95832 0.77972 0.16076 0.0
O126 O 0.96423 0.82405 0.16023 0.0
H127 H 0.03294 0.75998 0.1203 0.0
H128 H 0.87414 0.78831 0.12222 0.0
O129 O 0.91073 0.83103 0.07595 0.0
H130 H 0.90354 0.82602 0.27323 0.0
H131 H 0.93406 0.91653 0.15426 0.0
H132 H 0.99658 0.87476 0.13184 0.0
H133 H 0.93942 0.84093 0.21356 0.0
H134 H 0.91321 0.86524 0.13556 0.0
O135 O 0.91019 0.73076 0.12167 0.0
H136 H 1.00401 0.78395 0.12268 0.0
H137 H 0.93191 0.70912 0.07101 0.0
H138 H 0.0183 0.92609 0.15089 0.0
H139 H 0.83747 0.77301 0.18083 0.0
H140 H 0.98696 0.9473 0.16224 0.0
H141 H 0.85212 0.79187 0.25699 0.0
O142 O 0.96617 0.83766 0.06997 0.0
H143 H 0.8692 0.72483 0.97979 0.0
H144 H 0.97265 0.77022 0.0134 0.0
H145 H 0.95601 0.75616 0.93678 0.0
H146 H 0.90393 0.7332 0.9196 0.0
H147 H 0.88679 0.73958 0.05585 0.0
H148 H 0.96001 0.68426 0.06837 0.0
H149 H 0.01094 0.70977 0.09298 0.0
O150 O 0.97829 0.80336 0.07598 0.0
C151 C 0.9689 0.80496 0.17688 0.0
C152 C 0.01079 0.74867 0.10935 0.0
C153 C 0.96985 0.70616 0.08027 0.0
N154 N 0.96637 0.74804 0.0967 0.0
C155 C 0.99432 0.76216 0.11051 0.0
C156 C 0.95403 0.72033 0.08193 0.0
C157 C 0.99843 0.72049 0.09406 0.0
C158 C 0.88063 0.79679 0.15521 0.0
N159 N 0.90886 0.81555 0.16442 0.0
C160 C 0.85979 0.78797 0.18829 0.0
C161 C 0.86804 0.79852 0.23103 0.0
C162 C 0.89689 0.81766 0.24017 0.0
C163 C 0.91713 0.82595 0.20628 0.0
C164 C 0.94794 0.90753 0.14948 0.0
C165 C 0.98278 0.88379 0.13694 0.0
C166 C 0.93626 0.87851 0.13878 0.0
N167 N 0.95365 0.86695 0.13292 0.0
C168 C 0.99522 0.91289 0.14763 0.0
C169 C 0.97762 0.92478 0.15396 0.0
C170 C 0.98293 0.82778 0.06205 0.0
C171 C 0.89193 0.73473 0.98689 0.0
C172 C 0.94997 0.7604 0.00617 0.0
C173 C 0.94066 0.75239 0.96273 0.0
C174 C 0.91144 0.73948 0.95312 0.0
N175 N 0.9307 0.75565 0.03913 0.0
C176 C 0.90202 0.74301 0.02995 0.0
Co177 Co 0.11651 0.18509 0.38442 0.0
Co178 Co 0.18268 0.2444 0.40287 0.0
O179 O 0.14056 0.22558 0.40023 0.0
C180 C 0.08784 0.19082 0.46495 0.0
O181 O 0.11322 0.20764 0.48238 0.0
C182 C 0.17126 0.28391 0.3491 0.0
O183 O 0.15365 0.26151 0.32529 0.0
O184 O 0.18452 0.23202 0.34129 0.0
O185 O 0.14609 0.1877 0.34184 0.0
H186 H 0.2789 0.25174 0.38142 0.0
H187 H 0.0918 0.22344 0.38013 0.0
O188 O 0.08568 0.18068 0.42629 0.0
H189 H 0.08335 0.18579 0.22905 0.0
H190 H 0.02344 0.09522 0.34794 0.0
H191 H 0.12776 0.13698 0.37017 0.0
H192 H 0.10436 0.17085 0.2886 0.0
H193 H 0.05391 0.14651 0.36669 0.0
O194 O 0.18538 0.28096 0.38049 0.0
H195 H 0.226 0.22777 0.3792 0.0
H196 H 0.2288 0.3026 0.43103 0.0
H197 H 0.09813 0.08566 0.35106 0.0
H198 H 0.07038 0.23877 0.32164 0.0
H199 H 0.04557 0.06446 0.33981 0.0
H200 H 0.06612 0.21995 0.24543 0.0
O201 O 0.1345 0.17405 0.4321 0.0
H202 H 0.15051 0.28691 0.52251 0.0
H203 H 0.20849 0.24148 0.48858 0.0
H204 H 0.20602 0.25554 0.56523 0.0
H205 H 0.17694 0.27852 0.58258 0.0
H206 H 0.15325 0.27215 0.44642 0.0
H207 H 0.28176 0.32746 0.43351 0.0
H208 H 0.30716 0.30196 0.40874 0.0
O209 O 0.18093 0.20836 0.42601 0.0
C210 C 0.16984 0.20679 0.32515 0.0
C211 C 0.26809 0.26305 0.39244 0.0
C212 C 0.26969 0.30556 0.42161 0.0
N213 N 0.22431 0.26369 0.40527 0.0
C214 C 0.23812 0.24956 0.39137 0.0
C215 C 0.2397 0.29139 0.42004 0.0
C216 C 0.28393 0.29124 0.40772 0.0
C217 C 0.08977 0.21497 0.34713 0.0
N218 N 0.09923 0.19621 0.33783 0.0
C219 C 0.07773 0.22381 0.31411 0.0
C220 C 0.07539 0.21328 0.27135 0.0
C221 C 0.08509 0.19414 0.26212 0.0
C222 C 0.09705 0.18582 0.29595 0.0
C223 C 0.04633 0.10422 0.35268 0.0
C224 C 0.10493 0.12795 0.36511 0.0
C225 C 0.06369 0.13324 0.3634 0.0
N226 N 0.09263 0.14479 0.36921 0.0
C227 C 0.08825 0.09886 0.35439 0.0
C228 C 0.05876 0.08697 0.34811 0.0
C229 C 0.16115 0.18392 0.43995 0.0
C230 C 0.16332 0.27699 0.51534 0.0
C231 C 0.19564 0.2513 0.49588 0.0
C232 C 0.19441 0.25931 0.53934 0.0
C233 C 0.17811 0.27223 0.54905 0.0
N234 N 0.18109 0.25606 0.46299 0.0
C235 C 0.16507 0.26871 0.47226 0.0
Co236 Co 0.82992 0.93461 0.3845 0.0
Co237 Co 0.77048 0.94123 0.40293 0.0
O238 O 0.78941 0.91803 0.40025 0.0
C239 C 0.82427 0.90023 0.46499 0.0
O240 O 0.80741 0.90874 0.48241 0.0
C241 C 0.73101 0.89023 0.34921 0.0
O242 O 0.7534 0.89502 0.3254 0.0
O243 O 0.78282 0.95545 0.34134 0.0
O244 O 0.82723 0.96155 0.34195 0.0
H245 H 0.76283 0.02994 0.38148 0.0
H246 H 0.79174 0.87152 0.38006 0.0
O247 O 0.83441 0.90822 0.42633 0.0
H248 H 0.82951 0.90093 0.22909 0.0
H249 H 0.92002 0.93181 0.34814 0.0
H250 H 0.8779 0.99405 0.37034 0.0
H251 H 0.84427 0.93683 0.28871 0.0
H252 H 0.8687 0.91081 0.36679 0.0
O253 O 0.73395 0.90731 0.38058 0.0
H254 H 0.78693 1.00113 0.37924 0.0
H255 H 0.71224 0.929 0.43116 0.0
H256 H 0.92925 0.01593 0.35135 0.0
H257 H 0.77659 0.83483 0.32151 0.0
H258 H 0.95064 0.98473 0.34011 0.0
H259 H 0.79548 0.84949 0.24536 0.0
O260 O 0.84085 0.96359 0.43224 0.0
H261 H 0.7282 0.86655 0.52259 0.0
H262 H 0.77333 0.96994 0.48865 0.0
H263 H 0.75934 0.95339 0.56531 0.0
H264 H 0.73651 0.90134 0.58267 0.0
H265 H 0.74288 0.88406 0.44648 0.0
H266 H 0.68725 0.95698 0.43366 0.0
H267 H 0.71262 0.00787 0.40886 0.0
O268 O 0.80647 0.97559 0.42606 0.0
C269 C 0.80807 0.9661 0.32523 0.0
C270 C 0.75158 0.00782 0.39251 0.0
C271 C 0.70915 0.96685 0.42174 0.0
N272 N 0.75109 0.96348 0.40535 0.0
C273 C 0.76515 0.99141 0.39143 0.0
C274 C 0.72339 0.9511 0.42015 0.0
C275 C 0.7234 0.99541 0.40783 0.0
C276 C 0.80023 0.87801 0.34709 0.0
N277 N 0.81893 0.90626 0.33785 0.0
C278 C 0.7915 0.85716 0.31404 0.0
C279 C 0.80206 0.86541 0.2713 0.0
C280 C 0.82113 0.89427 0.26214 0.0
C281 C 0.82934 0.91453 0.29601 0.0
C282 C 0.91094 0.94563 0.35288 0.0
C283 C 0.887 0.98031 0.36529 0.0
C284 C 0.8819 0.93386 0.36354 0.0
N285 N 0.87025 0.95117 0.36935 0.0
C286 C 0.91611 0.99283 0.35463 0.0
C287 C 0.9281 0.97532 0.34837 0.0
C288 C 0.83091 0.98031 0.44005 0.0
C289 C 0.73805 0.88927 0.51542 0.0
C290 C 0.76358 0.94727 0.49595 0.0
C291 C 0.7556 0.93802 0.53941 0.0
C292 C 0.74277 0.90881 0.54912 0.0
N293 N 0.75886 0.92798 0.46305 0.0
C294 C 0.74629 0.89931 0.47233 0.0
Co295 Co 0.08015 0.89813 0.38393 0.0
Co296 Co 0.07332 0.83198 0.40244 0.0
O297 O 0.09662 0.8741 0.39969 0.0
C298 C 0.11458 0.92683 0.46439 0.0
O299 O 0.10597 0.90145 0.48185 0.0
C300 C 0.1242 0.84335 0.34856 0.0
O301 O 0.11941 0.86095 0.32474 0.0
O302 O 0.05903 0.83009 0.34089 0.0
O303 O 0.05311 0.8685 0.34146 0.0
H304 H 0.9844 0.73574 0.38132 0.0
H305 H 0.14321 0.92285 0.37939 0.0
O306 O 0.10664 0.92899 0.42571 0.0
H307 H 0.11376 0.93111 0.22841 0.0
H308 H 0.0833 0.99115 0.34738 0.0
H309 H 0.02077 0.88686 0.36989 0.0
H310 H 0.0779 0.91017 0.28811 0.0
H311 H 0.10415 0.96071 0.36609 0.0
O312 O 0.10715 0.82925 0.37998 0.0
H313 H 0.01334 0.78864 0.37897 0.0
H314 H 0.08543 0.78588 0.43061 0.0
H315 H 0.99905 0.91647 0.35084 0.0
H316 H 0.17987 0.94421 0.32075 0.0
H317 H 0.03039 0.96902 0.33944 0.0
H318 H 0.16518 0.94838 0.2446 0.0
O319 O 0.0512 0.88018 0.43173 0.0
H320 H 0.14815 0.8643 0.52185 0.0
H321 H 0.0447 0.80624 0.48825 0.0
H322 H 0.06134 0.8088 0.56485 0.0
H323 H 0.11342 0.83792 0.58205 0.0
H324 H 0.13056 0.86147 0.44581 0.0
H325 H 0.05732 0.73292 0.43322 0.0
H326 H 1.00639 0.7075 0.40861 0.0
O327 O 0.03907 0.83375 0.42568 0.0
C328 C 0.04844 0.84474 0.32479 0.0
C329 C 1.00654 0.74657 0.39227 0.0
C330 C 0.04748 0.74498 0.42134 0.0
N331 N 0.05098 0.79035 0.40494 0.0
C332 C 0.02302 0.77653 0.39113 0.0
C333 C 0.06331 0.77497 0.41969 0.0
C334 C 0.0189 0.73074 0.40754 0.0
C335 C 0.13672 0.92484 0.34642 0.0
N336 N 0.10847 0.91536 0.33723 0.0
C337 C 0.15754 0.93684 0.31332 0.0
C338 C 0.14928 0.93913 0.27058 0.0
C339 C 0.12043 0.92942 0.26146 0.0
C340 C 0.1002 0.91749 0.29538 0.0
C341 C 0.06942 0.96827 0.35219 0.0
C342 C 0.03457 0.90969 0.36477 0.0
C343 C 0.08109 0.95093 0.36288 0.0
N344 N 0.06371 0.92199 0.36877 0.0
C345 C 0.02214 0.92635 0.35408 0.0
C346 C 0.03973 0.95584 0.34773 0.0
C347 C 0.03444 0.85354 0.43965 0.0
C348 C 0.12541 0.85146 0.51476 0.0
C349 C 0.06738 0.8191 0.49548 0.0
C350 C 0.07668 0.82039 0.53891 0.0
C351 C 0.10591 0.8367 0.54853 0.0
N352 N 0.08664 0.83363 0.46252 0.0
C353 C 0.11533 0.84967 0.47171 0.0
Co354 Co 0.82965 0.89801 0.88438 0.0
Co355 Co 0.77033 0.83181 0.90251 0.0
O356 O 0.78912 0.87393 0.89997 0.0
C357 C 0.82372 0.92664 0.96482 0.0
O358 O 0.80685 0.90126 0.9822 0.0
C359 C 0.73082 0.8432 0.84866 0.0
O360 O 0.75322 0.86087 0.82492 0.0
O361 O 0.78281 0.83007 0.84096 0.0
O362 O 0.82716 0.86846 0.84182 0.0
H363 H 0.76315 0.73567 0.88085 0.0
H364 H 0.79128 0.92268 0.87978 0.0
O365 O 0.83394 0.92881 0.92622 0.0
H366 H 0.82933 0.93127 0.72895 0.0
H367 H 0.91958 0.99112 0.84836 0.0
H368 H 0.87781 0.8868 0.87047 0.0
H369 H 0.84413 0.91023 0.78864 0.0
H370 H 0.86825 0.96063 0.86679 0.0
O371 O 0.73377 0.82907 0.88003 0.0
H372 H 0.78707 0.78857 0.8788 0.0
H373 H 0.71211 0.78559 0.93043 0.0
H374 H 0.92918 0.91646 0.85169 0.0
H375 H 0.77608 0.94414 0.82114 0.0
H376 H 0.95039 0.96903 0.8405 0.0
H377 H 0.79511 0.94847 0.74507 0.0
O378 O 0.84058 0.88 0.93218 0.0
H379 H 0.72757 0.86374 0.02209 0.0
H380 H 0.77314 0.80589 0.98817 0.0
H381 H 0.75895 0.80824 0.06479 0.0
H382 H 0.73589 0.83725 0.08213 0.0
H383 H 0.74246 0.86112 0.94603 0.0
H384 H 0.68731 0.73263 0.93275 0.0
H385 H 0.7129 0.70732 0.90799 0.0
O386 O 0.80635 0.83357 0.92576 0.0
C387 C 0.80809 0.84475 0.82499 0.0
C388 C 0.7518 0.74645 0.89187 0.0
C389 C 0.70922 0.74474 0.92093 0.0
N390 N 0.75108 0.79017 0.90478 0.0
C391 C 0.76526 0.77641 0.89089 0.0
C392 C 0.72336 0.77473 0.91945 0.0
C393 C 0.7236 0.73055 0.90705 0.0
C394 C 0.79983 0.92474 0.84683 0.0
N395 N 0.81863 0.91531 0.83768 0.0
C396 C 0.79107 0.9368 0.81374 0.0
C397 C 0.80171 0.93918 0.77104 0.0
C398 C 0.82089 0.92951 0.76197 0.0
C399 C 0.82913 0.91752 0.79588 0.0
C400 C 0.91058 0.96823 0.85308 0.0
C401 C 0.88684 0.90963 0.86544 0.0
C402 C 0.88154 0.95086 0.86362 0.0
N403 N 0.86998 0.92191 0.8694 0.0
C404 C 0.91596 0.92633 0.8549 0.0
C405 C 0.92785 0.95582 0.84866 0.0
C406 C 0.83072 0.85334 0.9399 0.0
C407 C 0.73752 0.85095 0.01492 0.0
C408 C 0.76329 0.81871 0.99547 0.0
C409 C 0.7552 0.81987 0.03891 0.0
C410 C 0.74224 0.83613 0.04861 0.0
N411 N 0.75857 0.83329 0.96259 0.0
C412 C 0.74587 0.84928 0.97186 0.0
Co413 Co 0.11616 0.93469 0.88452 0.0
Co414 Co 0.18228 0.94143 0.90279 0.0
O415 O 0.14016 0.91816 0.90017 0.0
C416 C 0.08747 0.90016 0.96493 0.0
O417 O 0.11285 0.90867 0.98232 0.0
C418 C 0.17082 0.89045 0.84907 0.0
O419 O 0.15318 0.89519 0.82528 0.0
O420 O 0.18408 0.95562 0.84121 0.0
O421 O 0.14577 0.96171 0.84198 0.0
H422 H 0.27853 0.03026 0.88116 0.0
H423 H 0.09136 0.87163 0.87991 0.0
O424 O 0.08531 0.90822 0.92633 0.0
H425 H 0.08287 0.90116 0.72908 0.0
H426 H 0.02318 0.93177 0.84844 0.0
H427 H 0.12753 0.99412 0.87055 0.0
H428 H 0.10398 0.93699 0.78878 0.0
H429 H 0.05357 0.91082 0.8669 0.0
O430 O 0.18496 0.90755 0.88042 0.0
H431 H 0.22562 1.00136 0.87904 0.0
H432 H 0.2284 0.92933 0.9309 0.0
H433 H 0.09798 0.01594 0.85174 0.0
H434 H 0.06984 0.83499 0.82127 0.0
H435 H 0.0454 0.98469 0.84055 0.0
H436 H 0.06555 0.84971 0.7452 0.0
O437 O 0.13419 0.96363 0.93233 0.0
H438 H 0.15013 0.86679 0.02247 0.0
H439 H 0.20817 0.97019 0.98846 0.0
H440 H 0.20572 0.95367 0.06512 0.0
H441 H 0.17661 0.90161 0.08251 0.0
H442 H 0.15284 0.88427 0.94637 0.0
H443 H 0.28136 0.95741 0.93329 0.0
H444 H 0.30678 0.00829 0.90845 0.0
O445 O 0.1806 0.97575 0.92594 0.0
C446 C 0.16946 0.96626 0.82518 0.0
C447 C 0.26771 0.00814 0.89221 0.0
C448 C 0.2693 0.96724 0.9214 0.0
N449 N 0.22392 0.96375 0.90513 0.0
C450 C 0.23774 0.99168 0.89119 0.0
C451 C 0.2393 0.95143 0.91988 0.0
C452 C 0.28354 0.99579 0.90748 0.0
C453 C 0.08933 0.87814 0.84696 0.0
N454 N 0.09883 0.90639 0.83782 0.0
C455 C 0.07723 0.85733 0.81386 0.0
C456 C 0.07488 0.86561 0.77117 0.0
C457 C 0.08462 0.89447 0.7621 0.0
C458 C 0.09665 0.91469 0.79601 0.0
C459 C 0.04607 0.94561 0.85315 0.0
C460 C 0.10469 0.98036 0.86551 0.0
C461 C 0.06339 0.93388 0.86371 0.0
N462 N 0.09235 0.95122 0.8695 0.0
C463 C 0.08806 0.99285 0.85496 0.0
C464 C 0.05856 0.9753 0.84872 0.0
C465 C 0.16085 0.98039 0.94007 0.0
C466 C 0.16296 0.88952 0.01529 0.0
C467 C 0.19531 0.94752 0.99578 0.0
C468 C 0.19409 0.93828 0.03924 0.0
C469 C 0.17778 0.90907 0.04897 0.0
N470 N 0.18072 0.92821 0.96291 0.0
C471 C 0.16469 0.89953 0.97221 0.0
Co472 Co 0.07987 0.18469 0.88451 0.0
Co473 Co 0.0731 0.24405 0.90295 0.0
O474 O 0.09637 0.2252 0.90027 0.0
C475 C 0.1143 0.19046 0.96499 0.0
O476 O 0.10574 0.20728 0.9824 0.0
C477 C 0.12404 0.28356 0.84918 0.0
O478 O 0.11927 0.26118 0.82536 0.0
O479 O 0.05889 0.23169 0.84137 0.0
O480 O 0.05289 0.18732 0.84195 0.0
H481 H 0.98427 0.25148 0.88153 0.0
H482 H 0.14294 0.22299 0.88008 0.0
O483 O 0.10631 0.18029 0.92636 0.0
H484 H 0.11359 0.18519 0.72911 0.0
H485 H 0.08291 0.09472 0.84819 0.0
H486 H 0.02048 0.13663 0.87035 0.0
H487 H 0.07769 0.17036 0.78872 0.0
H488 H 0.1038 0.14603 0.86683 0.0
O489 O 0.10697 0.28061 0.88057 0.0
H490 H 0.01317 0.22748 0.87928 0.0
H491 H 0.08523 0.30226 0.93116 0.0
H492 H 0.99871 0.08528 0.85135 0.0
H493 H 0.17965 0.23821 0.82153 0.0
H494 H 0.03 0.06401 0.84014 0.0
H495 H 0.16502 0.21931 0.74538 0.0
O496 O 0.05088 0.17371 0.93225 0.0
H497 H 0.1478 0.28649 0.02256 0.0
H498 H 0.04439 0.24114 0.98868 0.0
H499 H 0.06094 0.25517 0.06533 0.0
H500 H 0.113 0.27811 0.08266 0.0
H501 H 0.13029 0.27177 0.94646 0.0
H502 H 0.05716 0.32715 0.93367 0.0
H503 H 1.00626 0.30169 0.9089 0.0
O504 O 0.03879 0.20803 0.92609 0.0
C505 C 0.04829 0.20644 0.82525 0.0
C506 C 1.0064 0.26278 0.89255 0.0
C507 C 0.04732 0.30526 0.92176 0.0
N508 N 0.05079 0.26337 0.90537 0.0
C509 C 0.02285 0.24926 0.89147 0.0
C510 C 0.06312 0.29107 0.92017 0.0
C511 C 0.01876 0.29096 0.90786 0.0
C512 C 0.13647 0.21449 0.84711 0.0
N513 N 0.10823 0.19574 0.83787 0.0
C514 C 0.15732 0.22327 0.81406 0.0
C515 C 0.14909 0.21269 0.77132 0.0
C516 C 0.12024 0.19357 0.76216 0.0
C517 C 0.09998 0.18532 0.79602 0.0
C518 C 0.06905 0.10376 0.85291 0.0
C519 C 0.03426 0.12757 0.8653 0.0
C520 C 0.08075 0.13278 0.86357 0.0
N521 N 0.06339 0.14438 0.86937 0.0
C522 C 0.0218 0.09846 0.85465 0.0
C523 C 0.03936 0.08653 0.84839 0.0
C524 C 0.03412 0.1836 0.94007 0.0
C525 C 0.12507 0.27659 0.0154 0.0
C526 C 0.06706 0.25095 0.99597 0.0
C527 C 0.07632 0.25894 0.03943 0.0
C528 C 0.10553 0.27184 0.04912 0.0
N529 N 0.08636 0.2557 0.96306 0.0
C530 C 0.11504 0.26833 0.97232 0.0
Co531 Co 0.90141 0.82705 0.61772 0.0
Co532 Co 0.8353 0.76768 0.59923 0.0
O533 O 0.87741 0.78655 0.60195 0.0
C534 C 0.93005 0.82134 0.53718 0.0
O535 O 0.90465 0.80456 0.51979 0.0
C536 C 0.84671 0.72816 0.65302 0.0
O537 O 0.86433 0.75055 0.67684 0.0
O538 O 0.83341 0.78004 0.6608 0.0
O539 O 0.87179 0.82441 0.66028 0.0
H540 H 0.739 0.7602 0.62055 0.0
H541 H 0.92621 0.78878 0.62211 0.0
O542 O 0.93226 0.83147 0.57585 0.0
H543 H 0.93462 0.82653 0.77311 0.0
H544 H 0.99441 0.91702 0.65407 0.0
H545 H 0.89007 0.8751 0.63193 0.0
H546 H 0.91354 0.84136 0.71351 0.0
H547 H 0.964 0.86572 0.6354 0.0
O548 O 0.83261 0.73112 0.62162 0.0
H549 H 0.79191 0.78422 0.62285 0.0
H550 H 0.78924 0.70946 0.57099 0.0
H551 H 0.91964 0.92645 0.65095 0.0
H552 H 0.94771 0.77357 0.68065 0.0
H553 H 0.97221 0.94773 0.66216 0.0
H554 H 0.95195 0.79244 0.75681 0.0
O555 O 0.8834 0.83804 0.56999 0.0
H556 H 0.86766 0.7253 0.47967 0.0
H557 H 0.80952 0.77057 0.51347 0.0
H558 H 0.8121 0.75657 0.43682 0.0
H559 H 0.84126 0.73367 0.41953 0.0
H560 H 0.86481 0.73999 0.55576 0.0
H561 H 0.73627 0.68455 0.56842 0.0
H562 H 0.71081 0.70999 0.59317 0.0
O563 O 0.837 0.80369 0.57608 0.0
C564 C 0.84805 0.80527 0.67694 0.0
C565 C 0.74985 0.74891 0.60954 0.0
C566 C 0.74832 0.70645 0.58035 0.0
N567 N 0.79366 0.74835 0.59676 0.0
C568 C 0.77981 0.76244 0.61065 0.0
C569 C 0.77831 0.72064 0.58196 0.0
C570 C 0.73404 0.72074 0.59422 0.0
C571 C 0.92823 0.79727 0.65509 0.0
N572 N 0.91872 0.816 0.66435 0.0
C573 C 0.94031 0.78849 0.68814 0.0
C574 C 0.94264 0.79905 0.73088 0.0
C575 C 0.93289 0.81816 0.74006 0.0
C576 C 0.92088 0.82641 0.7062 0.0
C577 C 0.97152 0.90799 0.64935 0.0
C578 C 0.9129 0.88416 0.63697 0.0
C579 C 0.95419 0.87896 0.63867 0.0
N580 N 0.92524 0.86736 0.63288 0.0
C581 C 0.92955 0.91327 0.64764 0.0
C582 C 0.95905 0.9252 0.65389 0.0
C583 C 0.85675 0.82813 0.56213 0.0
C584 C 0.85481 0.73518 0.48681 0.0
C585 C 0.8224 0.76079 0.50619 0.0
C586 C 0.8237 0.7528 0.46274 0.0
C587 C 0.84003 0.73993 0.45307 0.0
N588 N 0.83694 0.75604 0.53912 0.0
C589 C 0.853 0.74342 0.52988 0.0
Co590 Co 0.18751 0.07704 0.61737 0.0
Co591 Co 0.2469 0.07027 0.59926 0.0
O592 O 0.22805 0.09355 0.60178 0.0
C593 C 0.19342 0.11159 0.53693 0.0
O594 O 0.21035 0.10314 0.51958 0.0
C595 C 0.28634 0.12121 0.65311 0.0
O596 O 0.26392 0.11644 0.67684 0.0
O597 O 0.23443 0.05606 0.66081 0.0
O598 O 0.19005 0.05003 0.65998 0.0
H599 H 0.25425 0.98142 0.62096 0.0
H600 H 0.22581 0.1401 0.62193 0.0
O601 O 0.18316 0.1035 0.5755 0.0
H602 H 0.18773 0.11067 0.77274 0.0
H603 H 0.09747 0.08004 0.65329 0.0
H604 H 0.13942 0.01763 0.63134 0.0
H605 H 0.17299 0.0748 0.7131 0.0
H606 H 0.14881 0.10096 0.63489 0.0
O607 O 0.28342 0.10414 0.62174 0.0
H608 H 0.23026 0.01033 0.62298 0.0
H609 H 0.30515 0.08238 0.57136 0.0
H610 H 0.08804 0.99585 0.65009 0.0
H611 H 0.24094 0.17677 0.68051 0.0
H612 H 0.06674 0.02713 0.6612 0.0
H613 H 0.2219 0.1621 0.75658 0.0
O614 O 0.17662 0.04809 0.5696 0.0
H615 H 0.28959 0.14496 0.47967 0.0
H616 H 0.24414 0.04155 0.5136 0.0
H617 H 0.25834 0.0581 0.43699 0.0
H618 H 0.28133 0.11016 0.41964 0.0
H619 H 0.2747 0.12746 0.55573 0.0
H620 H 0.33003 0.05429 0.56907 0.0
H621 H 0.30451 1.00339 0.59384 0.0
O622 O 0.21091 0.03597 0.57601 0.0
C623 C 0.20916 0.04544 0.67681 0.0
C624 C 0.26557 1.00354 0.60994 0.0
C625 C 0.30812 0.04446 0.58088 0.0
N626 N 0.26621 0.04794 0.597 0.0
C627 C 0.25207 0.02 0.6109 0.0
C628 C 0.29394 0.06027 0.58234 0.0
C629 C 0.29378 0.0159 0.59477 0.0
C630 C 0.21725 0.13361 0.65487 0.0
N631 N 0.19848 0.10537 0.66404 0.0
C632 C 0.22597 0.15444 0.68794 0.0
C633 C 0.21532 0.14619 0.73063 0.0
C634 C 0.19617 0.11734 0.73973 0.0
C635 C 0.18798 0.0971 0.70585 0.0
C636 C 0.10651 0.06619 0.64861 0.0
C637 C 0.13035 0.03141 0.63634 0.0
C638 C 0.13556 0.0779 0.63808 0.0
N639 N 0.14717 0.06054 0.63234 0.0
C640 C 0.10122 0.01894 0.64686 0.0
C641 C 0.08928 0.0365 0.65305 0.0
C642 C 0.18653 0.03133 0.56186 0.0
C643 C 0.27967 0.12223 0.48684 0.0
C644 C 0.25396 0.06422 0.5063 0.0
C645 C 0.26205 0.07348 0.46286 0.0
C646 C 0.27498 0.10269 0.45316 0.0
N647 N 0.25865 0.08352 0.53917 0.0
C648 C 0.27132 0.1122 0.5299 0.0
Co649 Co 0.93749 0.11364 0.61758 0.0
Co650 Co 0.94428 0.17979 0.59933 0.0
O651 O 0.921 0.13766 0.60188 0.0
C652 C 0.903 0.08495 0.53711 0.0
O653 O 0.91146 0.11032 0.51971 0.0
C654 C 0.8933 0.1683 0.65304 0.0
O655 O 0.89806 0.15066 0.67682 0.0
O656 O 0.95845 0.18156 0.66092 0.0
O657 O 0.96447 0.14321 0.66017 0.0
H658 H 0.03312 0.27601 0.62107 0.0
H659 H 0.87442 0.08887 0.62202 0.0
O660 O 0.91105 0.08281 0.57572 0.0
H661 H 0.90376 0.08035 0.77296 0.0
H662 H 0.93444 0.02061 0.65377 0.0
H663 H 0.99688 0.12496 0.63167 0.0
H664 H 0.93967 0.10143 0.71335 0.0
H665 H 0.91355 0.05104 0.63521 0.0
O666 O 0.9104 0.18245 0.6217 0.0
H667 H 1.00421 0.2231 0.62313 0.0
H668 H 0.9322 0.22593 0.57129 0.0
H669 H 0.01865 0.09537 0.65058 0.0
H670 H 0.83772 0.06738 0.68056 0.0
H671 H 0.98735 0.04279 0.66177 0.0
H672 H 0.85234 0.06308 0.7567 0.0
O673 O 0.96647 0.13168 0.56984 0.0
H674 H 0.86969 0.14774 0.47959 0.0
H675 H 0.97307 0.20572 0.5137 0.0
H676 H 0.95659 0.20334 0.43704 0.0
H677 H 0.90454 0.17426 0.4196 0.0
H678 H 0.88713 0.15039 0.55569 0.0
H679 H 0.96029 0.2789 0.56897 0.0
H680 H 0.01117 0.30428 0.59383 0.0
O681 O 0.9786 0.17809 0.57619 0.0
C682 C 0.96906 0.16691 0.67696 0.0
C683 C 0.011 0.2652 0.61002 0.0
C684 C 0.97011 0.26682 0.58084 0.0
N685 N 0.96661 0.22142 0.59704 0.0
C686 C 0.99454 0.23523 0.61099 0.0
C687 C 0.9543 0.23682 0.58232 0.0
C688 C 0.99866 0.28105 0.59477 0.0
C689 C 0.88089 0.08683 0.65498 0.0
N690 N 0.90913 0.09631 0.66421 0.0
C691 C 0.86004 0.07475 0.68803 0.0
C692 C 0.86827 0.07239 0.73076 0.0
C693 C 0.89712 0.0821 0.73991 0.0
C694 C 0.91738 0.09411 0.70605 0.0
C695 C 0.9483 0.04351 0.64906 0.0
C696 C 0.9831 0.10212 0.6367 0.0
C697 C 0.9366 0.06084 0.63845 0.0
N698 N 0.95397 0.08979 0.63266 0.0
C699 C 0.99556 0.08546 0.64731 0.0
C700 C 0.97799 0.05596 0.65355 0.0
C701 C 0.98325 0.15834 0.56211 0.0
C702 C 0.89241 0.16055 0.4868 0.0
C703 C 0.95041 0.19287 0.50636 0.0
C704 C 0.94119 0.19169 0.4629 0.0
C705 C 0.91198 0.1754 0.45314 0.0
N706 N 0.93108 0.17827 0.53921 0.0
C707 C 0.90241 0.16225 0.52988 0.0
Co708 Co 0.85436 0.44679 0.451 0.0
Co709 Co 0.91361 0.51298 0.43249 0.0
O710 O 0.89484 0.47087 0.43518 0.0
C711 C 0.86014 0.41813 0.37049 0.0
O712 O 0.87694 0.44352 0.35306 0.0
C713 C 0.95318 0.50168 0.48629 0.0
O714 O 0.9308 0.48406 0.51011 0.0
O715 O 0.90124 0.51482 0.49408 0.0
O716 O 0.85692 0.47637 0.49357 0.0
H717 H 0.9208 0.60915 0.45388 0.0
H718 H 0.89277 0.42216 0.45533 0.0
O719 O 0.84999 0.41596 0.40914 0.0
H720 H 0.85511 0.4137 0.6064 0.0
H721 H 0.76456 0.35367 0.48751 0.0
H722 H 0.8062 0.45796 0.46524 0.0
H723 H 0.84012 0.43465 0.54682 0.0
H724 H 0.81584 0.38418 0.46876 0.0
O725 O 0.95021 0.51576 0.45487 0.0
H726 H 0.8969 0.55625 0.45614 0.0
H727 H 0.97178 0.55916 0.4043 0.0
H728 H 0.75488 0.42828 0.48435 0.0
H729 H 0.90815 0.4008 0.51385 0.0
H730 H 0.73374 0.37573 0.49563 0.0
H731 H 0.88932 0.39653 0.59004 0.0
O732 O 0.84328 0.46473 0.40329 0.0
H733 H 0.95618 0.48088 0.31287 0.0
H734 H 0.91063 0.53875 0.34677 0.0
H735 H 0.92469 0.53627 0.27012 0.0
H736 H 0.94773 0.50724 0.25278 0.0
H737 H 0.94143 0.48362 0.38897 0.0
H738 H 0.99657 0.61212 0.40177 0.0
H739 H 0.97101 0.63746 0.42653 0.0
O740 O 0.87755 0.51117 0.40936 0.0
C741 C 0.87602 0.50013 0.51024 0.0
C742 C 0.93214 0.59836 0.44287 0.0
C743 C 0.97467 0.60002 0.41368 0.0
N744 N 0.93285 0.55461 0.43006 0.0
C745 C 0.91869 0.5684 0.44396 0.0
C746 C 0.96055 0.57003 0.41528 0.0
C747 C 0.96032 0.61423 0.42756 0.0
C748 C 0.8843 0.42012 0.48833 0.0
N749 N 0.86551 0.42955 0.49761 0.0
C750 C 0.89317 0.40812 0.52136 0.0
C751 C 0.88263 0.40578 0.56412 0.0
C752 C 0.86346 0.41544 0.57333 0.0
C753 C 0.85512 0.42737 0.53948 0.0
C754 C 0.77353 0.37655 0.48276 0.0
C755 C 0.7972 0.43514 0.47031 0.0
C756 C 0.80254 0.39393 0.47204 0.0
N757 N 0.81406 0.42287 0.46621 0.0
C758 C 0.7681 0.41843 0.48103 0.0
C759 C 0.75625 0.38894 0.48732 0.0
C760 C 0.85313 0.49137 0.39542 0.0
C761 C 0.94624 0.49367 0.32003 0.0
C762 C 0.92048 0.52592 0.33948 0.0
C763 C 0.92849 0.52468 0.29602 0.0
C764 C 0.94144 0.50842 0.28632 0.0
N765 N 0.92527 0.5114 0.37238 0.0
C766 C 0.93796 0.49542 0.36311 0.0
Co767 Co 0.56738 0.41016 0.45095 0.0
Co768 Co 0.50122 0.40332 0.4326 0.0
O769 O 0.54334 0.42663 0.43526 0.0
C770 C 0.59609 0.44473 0.37056 0.0
O771 O 0.57073 0.43623 0.35313 0.0
C772 C 0.51259 0.45422 0.48643 0.0
O773 O 0.53022 0.44945 0.51023 0.0
O774 O 0.4994 0.3891 0.49417 0.0
O775 O 0.53778 0.38311 0.49346 0.0
H776 H 0.40502 0.31439 0.45405 0.0
H777 H 0.59208 0.47321 0.45555 0.0
O778 O 0.59823 0.43666 0.40917 0.0
H779 H 0.60051 0.44373 0.60643 0.0
H780 H 0.66041 0.41326 0.48724 0.0
H781 H 0.5561 0.35077 0.46492 0.0
H782 H 0.57951 0.40789 0.54672 0.0
H783 H 0.62997 0.43413 0.46869 0.0
O784 O 0.49849 0.43716 0.45503 0.0
H785 H 0.45792 0.34335 0.45624 0.0
H786 H 0.45506 0.41537 0.40452 0.0
H787 H 0.58571 0.32903 0.48382 0.0
H788 H 0.61349 0.50985 0.5142 0.0
H789 H 0.63827 0.36035 0.49512 0.0
H790 H 0.61774 0.49516 0.5903 0.0
O791 O 0.54941 0.38123 0.40314 0.0
H792 H 0.53332 0.47803 0.31304 0.0
H793 H 0.47538 0.3746 0.34689 0.0
H794 H 0.47784 0.39116 0.27026 0.0
H795 H 0.50689 0.44323 0.25295 0.0
H796 H 0.53061 0.46051 0.38911 0.0
H797 H 0.4021 0.38724 0.40206 0.0
H798 H 0.37673 0.33633 0.42679 0.0
O799 O 0.50297 0.36905 0.4094 0.0
C800 C 0.51406 0.3785 0.51022 0.0
C801 C 0.41582 0.33652 0.44305 0.0
C802 C 0.41419 0.37742 0.41393 0.0
N803 N 0.45958 0.38095 0.43022 0.0
C804 C 0.44579 0.35301 0.4441 0.0
C805 C 0.44418 0.39326 0.41549 0.0
C806 C 0.39997 0.34885 0.4278 0.0
C807 C 0.5941 0.46671 0.4885 0.0
N808 N 0.58464 0.43847 0.49766 0.0
C809 C 0.60613 0.48753 0.52161 0.0
C810 C 0.60847 0.47926 0.56432 0.0
C811 C 0.59878 0.45041 0.5734 0.0
C812 C 0.58681 0.43018 0.53948 0.0
C813 C 0.63753 0.39939 0.48248 0.0
C814 C 0.57893 0.36456 0.47 0.0
C815 C 0.62018 0.41108 0.47187 0.0
N816 N 0.59124 0.3937 0.46603 0.0
C817 C 0.5956 0.35212 0.4806 0.0
C818 C 0.62509 0.3697 0.4869 0.0
C819 C 0.52276 0.36444 0.39533 0.0
C820 C 0.52052 0.4553 0.32019 0.0
C821 C 0.48823 0.39728 0.3396 0.0
C822 C 0.48945 0.40654 0.29616 0.0
C823 C 0.50573 0.43576 0.28647 0.0
N824 N 0.50278 0.41658 0.37251 0.0
C825 C 0.51879 0.44526 0.36325 0.0
Co826 Co 0.60409 0.16022 0.4507 0.0
Co827 Co 0.61083 0.10083 0.4324 0.0
O828 O 0.58757 0.1197 0.43503 0.0
C829 C 0.56964 0.15442 0.37022 0.0
O830 O 0.57817 0.13757 0.35283 0.0
C831 C 0.55989 0.06136 0.48623 0.0
O832 O 0.56466 0.08376 0.51 0.0
O833 O 0.62506 0.11325 0.49396 0.0
O834 O 0.63108 0.15762 0.49327 0.0
H835 H 0.69965 0.09339 0.45387 0.0
H836 H 0.54102 0.12195 0.45519 0.0
O837 O 0.57765 0.16461 0.40885 0.0
H838 H 0.57042 0.15987 0.6061 0.0
H839 H 0.60111 0.25025 0.48684 0.0
H840 H 0.6635 0.20828 0.46477 0.0
H841 H 0.60631 0.17464 0.54646 0.0
H842 H 0.58019 0.19892 0.46831 0.0
O843 O 0.57695 0.06429 0.45484 0.0
H844 H 0.67076 0.11741 0.45606 0.0
H845 H 0.59868 0.0426 0.40432 0.0
H846 H 0.68529 0.25965 0.48365 0.0
H847 H 0.50433 0.10679 0.51376 0.0
H848 H 0.65402 0.28095 0.49483 0.0
H849 H 0.51899 0.12575 0.58988 0.0
O850 O 0.63306 0.17115 0.40295 0.0
H851 H 0.5361 0.05832 0.31284 0.0
H852 H 0.63952 0.10366 0.34668 0.0
H853 H 0.62294 0.08956 0.27005 0.0
H854 H 0.57088 0.06663 0.25274 0.0
H855 H 0.55363 0.0731 0.38891 0.0
H856 H 0.62673 0.01769 0.40186 0.0
H857 H 0.67763 0.04315 0.42661 0.0
O858 O 0.64514 0.13683 0.4092 0.0
C859 C 0.63567 0.13851 0.51002 0.0
C860 C 0.67752 0.08209 0.44287 0.0
C861 C 0.63658 0.03959 0.41374 0.0
N862 N 0.63313 0.0815 0.43003 0.0
C863 C 0.66107 0.09561 0.44392 0.0
C864 C 0.62078 0.05379 0.41529 0.0
C865 C 0.66514 0.0539 0.42761 0.0
C866 C 0.5475 0.13048 0.48815 0.0
N867 N 0.57575 0.14922 0.49736 0.0
C868 C 0.52666 0.12173 0.52122 0.0
C869 C 0.53491 0.13234 0.56393 0.0
C870 C 0.56377 0.15146 0.57306 0.0
C871 C 0.58401 0.15968 0.53919 0.0
C872 C 0.61496 0.2412 0.48214 0.0
C873 C 0.64973 0.21735 0.4698 0.0
C874 C 0.60324 0.21216 0.47154 0.0
N875 N 0.62059 0.20055 0.46577 0.0
C876 C 0.6622 0.24647 0.48039 0.0
C877 C 0.64465 0.25842 0.48662 0.0
C878 C 0.64981 0.16125 0.39516 0.0
C879 C 0.55883 0.06821 0.31999 0.0
C880 C 0.61684 0.09385 0.3394 0.0
C881 C 0.60757 0.08582 0.29596 0.0
C882 C 0.57836 0.07293 0.28627 0.0
N883 N 0.59756 0.08914 0.37231 0.0
C884 C 0.56888 0.07651 0.36306 0.0
Co885 Co 0.78309 0.51815 0.71777 0.0
Co886 Co 0.84925 0.57748 0.73609 0.0
O887 O 0.80713 0.55867 0.73346 0.0
C888 C 0.7544 0.52399 0.7982 0.0
O889 O 0.77978 0.54084 0.81562 0.0
C890 C 0.83788 0.61701 0.68227 0.0
O891 O 0.82024 0.59463 0.65848 0.0
O892 O 0.85105 0.56507 0.67451 0.0
O893 O 0.81268 0.5207 0.67523 0.0
H894 H 0.94545 0.58476 0.71457 0.0
H895 H 0.75838 0.55649 0.71322 0.0
O896 O 0.75225 0.5138 0.75958 0.0
H897 H 0.74993 0.5186 0.56231 0.0
H898 H 0.69003 0.42822 0.68152 0.0
H899 H 0.79435 0.47003 0.70377 0.0
H900 H 0.77095 0.50376 0.62199 0.0
H901 H 0.72049 0.47953 0.70007 0.0
O902 O 0.85199 0.61405 0.71367 0.0
H903 H 0.89254 0.56081 0.7124 0.0
H904 H 0.89542 0.63568 0.76418 0.0
H905 H 0.76472 0.41867 0.68487 0.0
H906 H 0.73695 0.57173 0.6546 0.0
H907 H 0.71216 0.39744 0.67361 0.0
H908 H 0.73269 0.55278 0.57848 0.0
O909 O 0.80108 0.50719 0.76555 0.0
H910 H 0.81716 0.62008 0.85569 0.0
H911 H 0.8751 0.57459 0.82178 0.0
H912 H 0.87266 0.5887 0.89842 0.0
H913 H 0.84361 0.61171 0.91576 0.0
H914 H 0.81987 0.60527 0.77961 0.0
H915 H 0.94838 0.66051 0.76662 0.0
H916 H 0.97374 0.63498 0.74185 0.0
O917 O 0.8475 0.54145 0.75927 0.0
C918 C 0.8364 0.53981 0.65847 0.0
C919 C 0.93465 0.59608 0.72559 0.0
C920 C 0.93629 0.63861 0.75474 0.0
N921 N 0.89089 0.59675 0.73845 0.0
C922 C 0.90468 0.5826 0.72455 0.0
C923 C 0.9063 0.62446 0.75319 0.0
C924 C 0.95051 0.62427 0.74085 0.0
C925 C 0.75635 0.54797 0.68026 0.0
N926 N 0.76581 0.5292 0.67108 0.0
C927 C 0.74431 0.55676 0.64717 0.0
C928 C 0.74197 0.54616 0.60445 0.0
C929 C 0.75167 0.527 0.59535 0.0
C930 C 0.76364 0.51875 0.62925 0.0
C931 C 0.71292 0.43723 0.68626 0.0
C932 C 0.77152 0.46099 0.6987 0.0
C933 C 0.73027 0.46627 0.69687 0.0
N934 N 0.75922 0.47783 0.70269 0.0
C935 C 0.75484 0.43188 0.6881 0.0
C936 C 0.72535 0.41998 0.68182 0.0
C937 C 0.82773 0.51705 0.77333 0.0
C938 C 0.82997 0.61015 0.84853 0.0
C939 C 0.86226 0.58443 0.82908 0.0
C940 C 0.86105 0.59247 0.87253 0.0
C941 C 0.84477 0.6054 0.88223 0.0
N942 N 0.8477 0.58917 0.79619 0.0
C943 C 0.8317 0.60185 0.80546 0.0
Co944 Co 0.49629 0.26782 0.71799 0.0
Co945 Co 0.43689 0.27455 0.7363 0.0
O946 O 0.45577 0.2513 0.73371 0.0
C947 C 0.4905 0.23332 0.79843 0.0
O948 O 0.47357 0.24174 0.81583 0.0
C949 C 0.39742 0.22359 0.68253 0.0
O950 O 0.41983 0.22837 0.65875 0.0
O951 O 0.44928 0.28874 0.67472 0.0
O952 O 0.49366 0.29479 0.67539 0.0
H953 H 0.42941 0.36334 0.71467 0.0
H954 H 0.45802 0.20475 0.71356 0.0
O955 O 0.50072 0.24141 0.75984 0.0
H956 H 0.49588 0.23409 0.56262 0.0
H957 H 0.58632 0.26488 0.68178 0.0
H958 H 0.54432 0.32724 0.70386 0.0
H959 H 0.51067 0.27001 0.62222 0.0
H960 H 0.535 0.24394 0.70035 0.0
O961 O 0.40035 0.24066 0.71391 0.0
H962 H 0.45345 0.33447 0.71255 0.0
H963 H 0.37866 0.2624 0.76439 0.0
H964 H 0.59569 0.34905 0.68493 0.0
H965 H 0.44284 0.16804 0.65503 0.0
H966 H 0.61701 0.31779 0.67376 0.0
H967 H 0.46177 0.18267 0.5789 0.0
O968 O 0.50723 0.29681 0.76572 0.0
H969 H 0.39439 0.1999 0.85597 0.0
H970 H 0.43974 0.3033 0.82197 0.0
H971 H 0.42565 0.28677 0.89862 0.0
H972 H 0.4027 0.23472 0.91601 0.0
H973 H 0.40918 0.21739 0.77988 0.0
H974 H 0.35373 0.29044 0.76677 0.0
H975 H 0.37918 0.34133 0.74194 0.0
O976 O 0.4729 0.30888 0.75945 0.0
C977 C 0.47453 0.29935 0.65863 0.0
C978 C 0.41812 0.34122 0.72571 0.0
C979 C 0.37564 0.30029 0.75489 0.0
N980 N 0.41755 0.29685 0.73863 0.0
C981 C 0.43165 0.32478 0.7247 0.0
C982 C 0.38984 0.2845 0.75338 0.0
C983 C 0.38993 0.32884 0.74097 0.0
C984 C 0.46653 0.21122 0.6806 0.0
N985 N 0.48527 0.23946 0.67136 0.0
C986 C 0.45778 0.19037 0.64756 0.0
C987 C 0.46837 0.1986 0.60483 0.0
C988 C 0.48748 0.22745 0.59566 0.0
C989 C 0.49571 0.24771 0.62952 0.0
C990 C 0.57727 0.27872 0.68649 0.0
C991 C 0.5534 0.31347 0.69883 0.0
C992 C 0.54823 0.267 0.69711 0.0
N993 N 0.53661 0.28434 0.70288 0.0
C994 C 0.58252 0.32596 0.68821 0.0
C995 C 0.59447 0.30841 0.68198 0.0
C996 C 0.49732 0.31357 0.77348 0.0
C997 C 0.40429 0.22263 0.84879 0.0
C998 C 0.42994 0.28063 0.82929 0.0
C999 C 0.42191 0.27139 0.87274 0.0
C1000 C 0.40901 0.24218 0.88247 0.0
N1001 N 0.42522 0.26132 0.79642 0.0
C1002 C 0.41258 0.23265 0.80571 0.0
Co1003 Co 0.74659 0.23147 0.71755 0.0
Co1004 Co 0.73982 0.16533 0.73582 0.0
O1005 O 0.7631 0.20745 0.73323 0.0
C1006 C 0.78111 0.26014 0.798 0.0
O1007 O 0.77261 0.23477 0.81538 0.0
C1008 C 0.79079 0.17681 0.68205 0.0
O1009 O 0.78602 0.19444 0.65828 0.0
O1010 O 0.72562 0.16353 0.67425 0.0
O1011 O 0.71959 0.20188 0.67499 0.0
H1012 H 0.65098 0.06909 0.71419 0.0
H1013 H 0.80966 0.25625 0.71303 0.0
O1014 O 0.77305 0.26231 0.7594 0.0
H1015 H 0.78023 0.26473 0.56214 0.0
H1016 H 0.7496 0.32448 0.68139 0.0
H1017 H 0.68719 0.22013 0.70353 0.0
H1018 H 0.74435 0.24365 0.62179 0.0
H1019 H 0.77051 0.29407 0.69992 0.0
O1020 O 0.7737 0.16266 0.71341 0.0
H1021 H 0.67989 0.122 0.7121 0.0
H1022 H 0.75193 0.11921 0.76386 0.0
H1023 H 0.66541 0.24971 0.68464 0.0
H1024 H 0.84633 0.27774 0.65443 0.0
H1025 H 0.69669 0.30229 0.67344 0.0
H1026 H 0.83166 0.28202 0.57833 0.0
O1027 O 0.71763 0.21343 0.76532 0.0
H1028 H 0.81449 0.19744 0.85546 0.0
H1029 H 0.71108 0.13942 0.82149 0.0
H1030 H 0.72762 0.14185 0.89813 0.0
H1031 H 0.77967 0.17094 0.9155 0.0
H1032 H 0.797 0.19476 0.77938 0.0
H1033 H 0.72386 0.06624 0.76622 0.0
H1034 H 0.67296 0.04084 0.74142 0.0
O1035 O 0.70552 0.16702 0.759 0.0
C1036 C 0.715 0.17817 0.65821 0.0
C1037 C 0.67311 0.07991 0.72523 0.0
C1038 C 0.71402 0.07831 0.75436 0.0
N1039 N 0.7175 0.12369 0.73814 0.0
C1040 C 0.68956 0.10988 0.72423 0.0
C1041 C 0.72983 0.10831 0.75286 0.0
C1042 C 0.68546 0.06407 0.74046 0.0
C1043 C 0.80317 0.25828 0.68007 0.0
N1044 N 0.77492 0.24879 0.67088 0.0
C1045 C 0.824 0.27036 0.647 0.0
C1046 C 0.81575 0.27271 0.60428 0.0
C1047 C 0.78689 0.26299 0.59517 0.0
C1048 C 0.76665 0.25098 0.62906 0.0
C1049 C 0.73575 0.30159 0.68611 0.0
C1050 C 0.70096 0.24297 0.69849 0.0
C1051 C 0.74746 0.28426 0.69671 0.0
N1052 N 0.7301 0.2553 0.7025 0.0
C1053 C 0.6885 0.25962 0.68789 0.0
C1054 C 0.70606 0.28912 0.68164 0.0
C1055 C 0.70086 0.18677 0.77308 0.0
C1056 C 0.79176 0.18462 0.84828 0.0
C1057 C 0.73375 0.15228 0.8288 0.0
C1058 C 0.743 0.15349 0.87225 0.0
C1059 C 0.77221 0.16979 0.88197 0.0
N1060 N 0.75306 0.16687 0.79592 0.0
C1061 C 0.78174 0.1829 0.80521 0.0
Co1062 Co 0.49628 0.23135 0.21742 0.0
Co1063 Co 0.43695 0.16519 0.23586 0.0
O1064 O 0.45578 0.20731 0.23319 0.0
C1065 C 0.49051 0.25998 0.29793 0.0
O1066 O 0.47372 0.23459 0.31534 0.0
C1067 C 0.39747 0.17663 0.18206 0.0
O1068 O 0.41987 0.19422 0.15825 0.0
O1069 O 0.44934 0.16334 0.17429 0.0
O1070 O 0.49369 0.20175 0.17488 0.0
H1071 H 0.4296 0.06895 0.21451 0.0
H1072 H 0.45795 0.25607 0.21301 0.0
O1073 O 0.50066 0.26218 0.25927 0.0
H1074 H 0.49567 0.26446 0.062 0.0
H1075 H 0.58617 0.3244 0.181 0.0
H1076 H 0.54439 0.22009 0.20327 0.0
H1077 H 0.51058 0.24346 0.12162 0.0
H1078 H 0.53488 0.29394 0.1997 0.0
O1079 O 0.4004 0.16249 0.21345 0.0
H1080 H 0.45358 0.12186 0.21226 0.0
H1081 H 0.37874 0.11908 0.26399 0.0
H1082 H 0.59572 0.24971 0.18423 0.0
H1083 H 0.44265 0.27748 0.15444 0.0
H1084 H 0.61694 0.30227 0.17295 0.0
H1085 H 0.46151 0.28171 0.07828 0.0
O1086 O 0.50729 0.21336 0.26516 0.0
H1087 H 0.39444 0.19741 0.35542 0.0
H1088 H 0.43984 0.13939 0.32159 0.0
H1089 H 0.42577 0.14189 0.39823 0.0
H1090 H 0.4028 0.17099 0.41553 0.0
H1091 H 0.4092 0.19464 0.27934 0.0
H1092 H 0.35387 0.06612 0.26651 0.0
H1093 H 0.37937 0.04071 0.24181 0.0
O1094 O 0.47298 0.16694 0.25904 0.0
C1095 C 0.47459 0.178 0.15819 0.0
C1096 C 0.41829 0.07978 0.2255 0.0
C1097 C 0.37577 0.07819 0.25463 0.0
N1098 N 0.41766 0.12356 0.23828 0.0
C1099 C 0.43178 0.10974 0.22442 0.0
C1100 C 0.38995 0.10818 0.25303 0.0
C1101 C 0.3901 0.06394 0.24077 0.0
C1102 C 0.46643 0.25809 0.18002 0.0
N1103 N 0.48519 0.24862 0.17078 0.0
C1104 C 0.45761 0.27012 0.14697 0.0
C1105 C 0.46816 0.27244 0.10422 0.0
C1106 C 0.48731 0.26274 0.09505 0.0
C1107 C 0.4956 0.25078 0.12893 0.0
C1108 C 0.57717 0.30151 0.18575 0.0
C1109 C 0.55342 0.24292 0.19821 0.0
C1110 C 0.54814 0.28416 0.19644 0.0
N1111 N 0.53659 0.25521 0.20227 0.0
C1112 C 0.58252 0.25959 0.18752 0.0
C1113 C 0.59441 0.28908 0.18123 0.0
C1114 C 0.4974 0.18671 0.27301 0.0
C1115 C 0.40435 0.18459 0.34828 0.0
C1116 C 0.43002 0.15224 0.32887 0.0
C1117 C 0.42201 0.15349 0.37232 0.0
C1118 C 0.40909 0.1698 0.382 0.0
N1119 N 0.42528 0.16679 0.29596 0.0
C1120 C 0.41263 0.18282 0.30521 0.0
Co1121 Co 0.78314 0.26788 0.21763 0.0
Co1122 Co 0.84928 0.27466 0.23599 0.0
O1123 O 0.80715 0.25138 0.23336 0.0
C1124 C 0.75443 0.2334 0.29808 0.0
O1125 O 0.7798 0.24189 0.3155 0.0
C1126 C 0.83781 0.22371 0.1822 0.0
O1127 O 0.8202 0.2285 0.15841 0.0
O1128 O 0.8511 0.28887 0.17441 0.0
O1129 O 0.81274 0.29487 0.17508 0.0
H1130 H 0.94553 0.36351 0.21449 0.0
H1131 H 0.75838 0.20482 0.21316 0.0
O1132 O 0.75229 0.24143 0.25946 0.0
H1133 H 0.74995 0.2342 0.06221 0.0
H1134 H 0.69014 0.26484 0.1813 0.0
H1135 H 0.79447 0.32728 0.20355 0.0
H1136 H 0.77099 0.27009 0.12184 0.0
H1137 H 0.72055 0.24394 0.19992 0.0
O1138 O 0.85195 0.24078 0.21357 0.0
H1139 H 0.89262 0.3346 0.21233 0.0
H1140 H 0.89539 0.26254 0.26407 0.0
H1141 H 0.76489 0.34905 0.18458 0.0
H1142 H 0.73692 0.16813 0.15458 0.0
H1143 H 0.71232 0.31775 0.17332 0.0
H1144 H 0.73267 0.18277 0.07844 0.0
O1145 O 0.80115 0.29685 0.26539 0.0
H1146 H 0.81711 0.19997 0.3556 0.0
H1147 H 0.87515 0.30338 0.32168 0.0
H1148 H 0.87269 0.28683 0.39832 0.0
H1149 H 0.84358 0.23477 0.41567 0.0
H1150 H 0.81983 0.21747 0.27952 0.0
H1151 H 0.94835 0.29061 0.2665 0.0
H1152 H 0.97377 0.34152 0.24174 0.0
O1153 O 0.84757 0.30896 0.25917 0.0
C1154 C 0.83646 0.29948 0.15834 0.0
C1155 C 0.9347 0.34138 0.2255 0.0
C1156 C 0.93629 0.30045 0.25463 0.0
N1157 N 0.89091 0.29698 0.23835 0.0
C1158 C 0.90474 0.32492 0.22446 0.0
C1159 C 0.90629 0.28464 0.25309 0.0
C1160 C 0.95053 0.32901 0.24075 0.0
C1161 C 0.75635 0.21129 0.18019 0.0
N1162 N 0.76584 0.23953 0.17097 0.0
C1163 C 0.74429 0.19045 0.14712 0.0
C1164 C 0.74196 0.19869 0.10439 0.0
C1165 C 0.75168 0.22754 0.09525 0.0
C1166 C 0.76367 0.24779 0.12913 0.0
C1167 C 0.71303 0.2787 0.18605 0.0
C1168 C 0.77163 0.3135 0.19849 0.0
C1169 C 0.73035 0.267 0.19669 0.0
N1170 N 0.75931 0.28436 0.20252 0.0
C1171 C 0.75498 0.32596 0.18784 0.0
C1172 C 0.72549 0.30839 0.18156 0.0
C1173 C 0.82781 0.31361 0.27321 0.0
C1174 C 0.82993 0.2227 0.34844 0.0
C1175 C 0.86228 0.28071 0.32898 0.0
C1176 C 0.86106 0.27145 0.37243 0.0
C1177 C 0.84475 0.24224 0.38213 0.0
N1178 N 0.8477 0.26141 0.29609 0.0
C1179 C 0.83167 0.23273 0.30536 0.0
Co1180 Co 0.74638 0.51786 0.21784 0.0
Co1181 Co 0.73974 0.5773 0.23624 0.0
O1182 O 0.76295 0.55838 0.23354 0.0
C1183 C 0.7808 0.52359 0.29829 0.0
O1184 O 0.77227 0.54043 0.31571 0.0
C1185 C 0.7907 0.61675 0.18242 0.0
O1186 O 0.78589 0.59435 0.15861 0.0
O1187 O 0.72549 0.56493 0.17468 0.0
O1188 O 0.7194 0.52052 0.17531 0.0
H1189 H 0.65099 0.5849 0.2149 0.0
H1190 H 0.80945 0.55607 0.2133 0.0
O1191 O 0.77281 0.51342 0.25965 0.0
H1192 H 0.77996 0.51821 0.0624 0.0
H1193 H 0.74919 0.42777 0.18158 0.0
H1194 H 0.68693 0.46987 0.20378 0.0
H1195 H 0.7441 0.50346 0.12206 0.0
H1196 H 0.77019 0.4791 0.20015 0.0
O1197 O 0.77364 0.61382 0.21382 0.0
H1198 H 0.67982 0.56081 0.21263 0.0
H1199 H 0.75197 0.63555 0.2644 0.0
H1200 H 0.66507 0.4185 0.18486 0.0
H1201 H 0.84611 0.5712 0.15469 0.0
H1202 H 0.69628 0.39713 0.17362 0.0
H1203 H 0.83141 0.55227 0.07858 0.0
O1204 O 0.71743 0.50695 0.26562 0.0
H1205 H 0.8145 0.61967 0.35577 0.0
H1206 H 0.71108 0.57449 0.32199 0.0
H1207 H 0.72768 0.58852 0.39862 0.0
H1208 H 0.77975 0.61138 0.4159 0.0
H1209 H 0.79694 0.60494 0.2797 0.0
H1210 H 0.72398 0.66052 0.26694 0.0
H1211 H 0.67307 0.63512 0.24222 0.0
O1212 O 0.7054 0.54132 0.25943 0.0
C1213 C 0.71484 0.53967 0.15858 0.0
C1214 C 0.67313 0.59616 0.22589 0.0
C1215 C 0.7141 0.63862 0.25504 0.0
N1216 N 0.71748 0.59668 0.23867 0.0
C1217 C 0.68954 0.58261 0.2248 0.0
C1218 C 0.72986 0.62439 0.25344 0.0
C1219 C 0.68553 0.62435 0.24118 0.0
C1220 C 0.80295 0.54756 0.18034 0.0
N1221 N 0.77469 0.52884 0.17116 0.0
C1222 C 0.82377 0.55628 0.14726 0.0
C1223 C 0.8155 0.54569 0.10454 0.0
C1224 C 0.78664 0.5266 0.09543 0.0
C1225 C 0.7664 0.5184 0.12933 0.0
C1226 C 0.73537 0.43685 0.18631 0.0
C1227 C 0.70068 0.46077 0.19873 0.0
C1228 C 0.74713 0.46589 0.19693 0.0
N1229 N 0.72982 0.47753 0.20274 0.0
C1230 C 0.68816 0.43165 0.18811 0.0
C1231 C 0.70568 0.41967 0.18184 0.0
C1232 C 0.7007 0.51689 0.27345 0.0
C1233 C 0.79177 0.60981 0.34864 0.0
C1234 C 0.73376 0.58425 0.32926 0.0
C1235 C 0.74304 0.59225 0.37271 0.0
C1236 C 0.77225 0.6051 0.38237 0.0
N1237 N 0.75303 0.58895 0.29634 0.0
C1238 C 0.78171 0.60155 0.30557 0.0
Co1239 Co 0.56763 0.16003 0.95085 0.0
Co1240 Co 0.50151 0.10064 0.93249 0.0
O1241 O 0.54363 0.11952 0.93512 0.0
C1242 C 0.5963 0.15429 0.87034 0.0
O1243 O 0.57093 0.13744 0.85293 0.0
C1244 C 0.51301 0.06118 0.98627 0.0
O1245 O 0.53062 0.08359 0.01006 0.0
O1246 O 0.49967 0.11303 0.99407 0.0
O1247 O 0.53803 0.1574 0.99342 0.0
H1248 H 0.40522 0.09315 0.95399 0.0
H1249 H 0.59244 0.12177 0.95526 0.0
O1250 O 0.59847 0.16445 0.90898 0.0
H1251 H 0.60086 0.15954 0.10624 0.0
H1252 H 0.66062 0.25002 0.98714 0.0
H1253 H 0.55628 0.20808 0.96498 0.0
H1254 H 0.57978 0.17437 0.04663 0.0
H1255 H 0.63022 0.19871 0.96852 0.0
O1256 O 0.49886 0.0641 0.9549 0.0
H1257 H 0.45813 0.11719 0.95616 0.0
H1258 H 0.45543 0.0424 0.9044 0.0
H1259 H 0.58585 0.25943 0.98395 0.0
H1260 H 0.61393 0.10656 0.0138 0.0
H1261 H 0.63842 0.28073 0.99518 0.0
H1262 H 0.61818 0.12544 0.08995 0.0
O1263 O 0.54959 0.17098 0.90312 0.0
H1264 H 0.53374 0.05817 0.81289 0.0
H1265 H 0.47563 0.10347 0.84679 0.0
H1266 H 0.47811 0.08938 0.77015 0.0
H1267 H 0.50725 0.06647 0.75281 0.0
H1268 H 0.531 0.07294 0.88897 0.0
H1269 H 0.40247 0.01747 0.90195 0.0
H1270 H 0.37701 0.04291 0.92672 0.0
O1271 O 0.50319 0.13664 0.90932 0.0
C1272 C 0.51431 0.13828 0.01014 0.0
C1273 C 0.41606 0.08186 0.94297 0.0
C1274 C 0.41452 0.03937 0.91383 0.0
N1275 N 0.45987 0.0813 0.93012 0.0
C1276 C 0.44603 0.09539 0.94402 0.0
C1277 C 0.44451 0.05358 0.91538 0.0
C1278 C 0.40025 0.05367 0.92771 0.0
C1279 C 0.59446 0.13026 0.98823 0.0
N1280 N 0.58496 0.149 0.99748 0.0
C1281 C 0.60654 0.12149 0.02128 0.0
C1282 C 0.60887 0.13205 0.06402 0.0
C1283 C 0.59913 0.15117 0.07319 0.0
C1284 C 0.58712 0.15941 0.03933 0.0
C1285 C 0.63773 0.24098 0.98241 0.0
C1286 C 0.57912 0.21715 0.97002 0.0
C1287 C 0.62041 0.21195 0.97177 0.0
N1288 N 0.59145 0.20035 0.96597 0.0
C1289 C 0.59576 0.24626 0.98067 0.0
C1290 C 0.62526 0.25819 0.98693 0.0
C1291 C 0.52293 0.16107 0.89532 0.0
C1292 C 0.5209 0.06805 0.82005 0.0
C1293 C 0.48851 0.09368 0.83949 0.0
C1294 C 0.48975 0.08565 0.79604 0.0
C1295 C 0.50607 0.07276 0.78634 0.0
N1296 N 0.50309 0.08896 0.87239 0.0
C1297 C 0.51915 0.07634 0.86312 0.0
Co1298 Co 0.85434 0.41038 0.95088 0.0
Co1299 Co 0.91373 0.40366 0.93247 0.0
O1300 O 0.89485 0.42691 0.93518 0.0
C1301 C 0.86009 0.44484 0.87045 0.0
O1302 O 0.87692 0.4363 0.85301 0.0
C1303 C 0.9532 0.45457 0.98635 0.0
O1304 O 0.93079 0.44977 0.01015 0.0
O1305 O 0.90133 0.38939 0.99402 0.0
O1306 O 0.85695 0.38336 0.99338 0.0
H1307 H 0.9212 0.31484 0.95373 0.0
H1308 H 0.8926 0.47344 0.95545 0.0
O1309 O 0.84993 0.43684 0.90909 0.0
H1310 H 0.85474 0.44393 0.10636 0.0
H1311 H 0.76431 0.41331 0.9872 0.0
H1312 H 0.80628 0.35095 0.96488 0.0
H1313 H 0.83994 0.40809 0.04666 0.0
H1314 H 0.81563 0.43425 0.96862 0.0
O1315 O 0.95026 0.43753 0.95493 0.0
H1316 H 0.89717 0.34371 0.95601 0.0
H1317 H 0.97197 0.41584 0.90434 0.0
H1318 H 0.75492 0.32914 0.98381 0.0
H1319 H 0.90778 0.51009 0.01409 0.0
H1320 H 0.73361 0.36039 0.99511 0.0
H1321 H 0.88885 0.49537 0.09021 0.0
O1322 O 0.8434 0.38143 0.90308 0.0
H1323 H 0.9562 0.47846 0.81301 0.0
H1324 H 0.91091 0.37503 0.8467 0.0
H1325 H 0.92499 0.39166 0.77008 0.0
H1326 H 0.9479 0.44373 0.75285 0.0
H1327 H 0.94143 0.46088 0.88907 0.0
H1328 H 0.99689 0.3878 0.90179 0.0
H1329 H 0.97143 0.33688 0.92645 0.0
O1330 O 0.87773 0.36936 0.90924 0.0
C1331 C 0.87607 0.37876 0.0101 0.0
C1332 C 0.93249 0.33698 0.94276 0.0
C1333 C 0.97498 0.37794 0.91367 0.0
N1334 N 0.93307 0.38137 0.93002 0.0
C1335 C 0.91896 0.35341 0.94386 0.0
C1336 C 0.96078 0.39373 0.91528 0.0
C1337 C 0.96068 0.34937 0.92749 0.0
C1338 C 0.88408 0.46693 0.98841 0.0
N1339 N 0.86534 0.43868 0.99758 0.0
C1340 C 0.89284 0.48775 0.02151 0.0
C1341 C 0.88225 0.47947 0.06423 0.0
C1342 C 0.86313 0.45061 0.07332 0.0
C1343 C 0.8549 0.43039 0.03941 0.0
C1344 C 0.77336 0.39947 0.98244 0.0
C1345 C 0.79721 0.36471 0.96996 0.0
C1346 C 0.8024 0.4112 0.97181 0.0
N1347 N 0.81401 0.39386 0.96597 0.0
C1348 C 0.7681 0.35223 0.98058 0.0
C1349 C 0.75615 0.36978 0.98688 0.0
C1350 C 0.85331 0.36469 0.89522 0.0
C1351 C 0.94632 0.45573 0.82013 0.0
C1352 C 0.9207 0.3977 0.83945 0.0
C1353 C 0.92872 0.407 0.79601 0.0
C1354 C 0.94161 0.43622 0.78638 0.0
N1355 N 0.92541 0.41697 0.87239 0.0
C1356 C 0.93803 0.44565 0.86318 0.0
Co1357 Co 0.60404 0.44696 0.95085 0.0
Co1358 Co 0.6109 0.51314 0.93258 0.0
O1359 O 0.58759 0.47101 0.93513 0.0
C1360 C 0.56951 0.41826 0.8704 0.0
O1361 O 0.57795 0.44362 0.85299 0.0
C1362 C 0.55995 0.50169 0.98635 0.0
O1363 O 0.56472 0.48406 0.01012 0.0
O1364 O 0.62507 0.51491 0.99417 0.0
O1365 O 0.63104 0.47652 0.99344 0.0
H1366 H 0.6998 0.60932 0.95427 0.0
H1367 H 0.54099 0.42226 0.95527 0.0
O1368 O 0.57759 0.41613 0.90899 0.0
H1369 H 0.57027 0.41372 0.10623 0.0
H1370 H 0.60089 0.3539 0.98711 0.0
H1371 H 0.66341 0.45822 0.96495 0.0
H1372 H 0.60619 0.43475 0.04663 0.0
H1373 H 0.58004 0.38435 0.96851 0.0
O1374 O 0.57703 0.51583 0.95498 0.0
H1375 H 0.67084 0.55642 0.95634 0.0
H1376 H 0.59886 0.55931 0.90457 0.0
H1377 H 0.68513 0.42859 0.9839 0.0
H1378 H 0.50427 0.40082 0.01381 0.0
H1379 H 0.65379 0.37603 0.99512 0.0
H1380 H 0.51887 0.39651 0.08996 0.0
O1381 O 0.63303 0.46498 0.90311 0.0
H1382 H 0.53628 0.48115 0.81288 0.0
H1383 H 0.63968 0.53905 0.84695 0.0
H1384 H 0.62318 0.53669 0.7703 0.0
H1385 H 0.57113 0.50766 0.75288 0.0
H1386 H 0.55374 0.48378 0.88898 0.0
H1387 H 0.62698 0.61228 0.90224 0.0
H1388 H 0.67787 0.63763 0.92706 0.0
O1389 O 0.64519 0.5114 0.90942 0.0
C1390 C 0.63565 0.50023 0.01023 0.0
C1391 C 0.67767 0.59853 0.94323 0.0
C1392 C 0.63679 0.60018 0.91409 0.0
N1393 N 0.63326 0.55477 0.93029 0.0
C1394 C 0.66119 0.56856 0.94422 0.0
C1395 C 0.62096 0.57019 0.91558 0.0
C1396 C 0.66535 0.61439 0.92801 0.0
C1397 C 0.54744 0.42021 0.98824 0.0
N1398 N 0.57567 0.42966 0.99748 0.0
C1399 C 0.52659 0.40816 0.02129 0.0
C1400 C 0.5348 0.40579 0.06402 0.0
C1401 C 0.56364 0.41547 0.07318 0.0
C1402 C 0.58391 0.42746 0.03932 0.0
C1403 C 0.61477 0.37678 0.98238 0.0
C1404 C 0.64962 0.43539 0.96999 0.0
C1405 C 0.6031 0.39414 0.97175 0.0
N1406 N 0.62048 0.42309 0.96595 0.0
C1407 C 0.66205 0.41871 0.98062 0.0
C1408 C 0.64445 0.38922 0.98688 0.0
C1409 C 0.64982 0.49164 0.89535 0.0
C1410 C 0.55901 0.49395 0.82008 0.0
C1411 C 0.61701 0.52622 0.83961 0.0
C1412 C 0.60779 0.52505 0.79616 0.0
C1413 C 0.57857 0.50878 0.78642 0.0
N1414 N 0.59769 0.51163 0.87247 0.0
C1415 C 0.56901 0.49563 0.86316 0.0
Co1416 Co 0.52079 0.77984 0.78421 0.0
Co1417 Co 0.5802 0.84593 0.76574 0.0
O1418 O 0.56129 0.80381 0.76841 0.0
C1419 C 0.52642 0.75116 0.70364 0.0
O1420 O 0.54326 0.77654 0.68624 0.0
C1421 C 0.6197 0.83444 0.81945 0.0
O1422 O 0.59731 0.81682 0.84326 0.0
O1423 O 0.56787 0.84781 0.82734 0.0
O1424 O 0.52349 0.80945 0.82682 0.0
H1425 H 0.5878 0.94227 0.78723 0.0
H1426 H 0.559 0.75497 0.78848 0.0
O1427 O 0.5163 0.74899 0.74231 0.0
H1428 H 0.52133 0.74654 0.93954 0.0
H1429 H 0.43076 0.6869 0.8206 0.0
H1430 H 0.47279 0.79126 0.79853 0.0
H1431 H 0.50651 0.76768 0.88002 0.0
H1432 H 0.48206 0.71725 0.80187 0.0
O1433 O 0.61674 0.84857 0.78808 0.0
H1434 H 0.56372 0.88936 0.78947 0.0
H1435 H 0.63843 0.89196 0.7375 0.0
H1436 H 0.42145 0.76173 0.81761 0.0
H1437 H 0.57421 0.73342 0.84694 0.0
H1438 H 0.40011 0.70915 0.82878 0.0
H1439 H 0.55537 0.72916 0.92313 0.0
O1440 O 0.50981 0.79789 0.73654 0.0
H1441 H 0.62248 0.81356 0.64605 0.0
H1442 H 0.57731 0.87177 0.68004 0.0
H1443 H 0.59129 0.86921 0.60336 0.0
H1444 H 0.61414 0.84002 0.58598 0.0
H1445 H 0.60782 0.81638 0.72217 0.0
H1446 H 0.66339 0.94493 0.73499 0.0
H1447 H 0.638 0.97043 0.75983 0.0
O1448 O 0.5442 0.84428 0.74265 0.0
C1449 C 0.54264 0.83318 0.8435 0.0
C1450 C 0.59906 0.9314 0.77619 0.0
C1451 C 0.6415 0.9329 0.74693 0.0
N1452 N 0.59957 0.88757 0.76333 0.0
C1453 C 0.58551 0.90144 0.77726 0.0
C1454 C 0.62727 0.9029 0.74851 0.0
C1455 C 0.62724 0.94719 0.76085 0.0
C1456 C 0.55053 0.75295 0.82148 0.0
N1457 N 0.53183 0.76249 0.83078 0.0
C1458 C 0.5593 0.74084 0.85447 0.0
C1459 C 0.54876 0.7385 0.89723 0.0
C1460 C 0.52968 0.74827 0.90647 0.0
C1461 C 0.52144 0.76032 0.87266 0.0
C1462 C 0.43982 0.70979 0.81589 0.0
C1463 C 0.46371 0.76841 0.80355 0.0
C1464 C 0.46885 0.72709 0.80518 0.0
N1465 N 0.48047 0.75605 0.79941 0.0
C1466 C 0.4346 0.7518 0.81426 0.0
C1467 C 0.42264 0.72229 0.82049 0.0
C1468 C 0.51975 0.82455 0.7287 0.0
C1469 C 0.61263 0.82643 0.65323 0.0
C1470 C 0.58708 0.85887 0.67272 0.0
C1471 C 0.59504 0.85759 0.62925 0.0
C1472 C 0.60789 0.84123 0.61953 0.0
N1473 N 0.59181 0.8443 0.70561 0.0
C1474 C 0.6044 0.82822 0.69632 0.0
Co1475 Co 0.23433 0.74394 0.78455 0.0
Co1476 Co 0.16819 0.73715 0.76622 0.0
O1477 O 0.21031 0.76045 0.7689 0.0
C1478 C 0.26303 0.77844 0.70414 0.0
O1479 O 0.23765 0.76988 0.6867 0.0
C1480 C 0.17958 0.78807 0.82004 0.0
O1481 O 0.19722 0.78333 0.84383 0.0
O1482 O 0.16635 0.7229 0.82777 0.0
O1483 O 0.20471 0.71688 0.82702 0.0
H1484 H 0.07195 0.64826 0.78757 0.0
H1485 H 0.2591 0.807 0.78923 0.0
O1486 O 0.26519 0.77045 0.74278 0.0
H1487 H 0.26743 0.7774 0.94007 0.0
H1488 H 0.32733 0.74696 0.82081 0.0
H1489 H 0.22301 0.68453 0.79843 0.0
H1490 H 0.24641 0.7416 0.88032 0.0
H1491 H 0.29691 0.76787 0.80229 0.0
O1492 O 0.16547 0.77099 0.78866 0.0
H1493 H 0.12485 0.67719 0.78981 0.0
H1494 H 0.12207 0.74925 0.7381 0.0
H1495 H 0.25259 0.66275 0.81729 0.0
H1496 H 0.28053 0.84361 0.84792 0.0
H1497 H 0.30515 0.69404 0.82862 0.0
H1498 H 0.28474 0.82885 0.92401 0.0
O1499 O 0.21634 0.71503 0.73671 0.0
H1500 H 0.20042 0.81193 0.64673 0.0
H1501 H 0.14237 0.70849 0.68046 0.0
H1502 H 0.14488 0.72509 0.60385 0.0
H1503 H 0.17399 0.77717 0.58659 0.0
H1504 H 0.19764 0.79437 0.72279 0.0
H1505 H 0.06911 0.72115 0.7356 0.0
H1506 H 0.0437 0.67024 0.7603 0.0
O1507 O 0.16992 0.70288 0.74299 0.0
C1508 C 0.18098 0.71226 0.84378 0.0
C1509 C 0.08277 0.6704 0.77659 0.0
C1510 C 0.08118 0.71132 0.74748 0.0
N1511 N 0.12655 0.71481 0.7638 0.0
C1512 C 0.11274 0.68687 0.77766 0.0
C1513 C 0.11117 0.72714 0.74906 0.0
C1514 C 0.06693 0.68275 0.76133 0.0
C1515 C 0.2611 0.80047 0.82217 0.0
N1516 N 0.2516 0.77222 0.83129 0.0
C1517 C 0.27315 0.82127 0.85531 0.0
C1518 C 0.27546 0.81297 0.898 0.0
C1519 C 0.26572 0.7841 0.90705 0.0
C1520 C 0.25375 0.7639 0.87311 0.0
C1521 C 0.30444 0.7331 0.81603 0.0
C1522 C 0.24584 0.69831 0.80352 0.0
C1523 C 0.28711 0.74481 0.80545 0.0
N1524 N 0.25816 0.72745 0.79959 0.0
C1525 C 0.26249 0.68584 0.8141 0.0
C1526 C 0.29199 0.70341 0.82042 0.0
C1527 C 0.18969 0.69825 0.72891 0.0
C1528 C 0.18759 0.78919 0.65385 0.0
C1529 C 0.15523 0.73117 0.6732 0.0
C1530 C 0.15648 0.74045 0.62977 0.0
C1531 C 0.1728 0.76967 0.62012 0.0
N1532 N 0.16978 0.75044 0.70613 0.0
C1533 C 0.18582 0.77913 0.69691 0.0
Co1534 Co 0.2705 0.49352 0.78465 0.0
Co1535 Co 0.27733 0.4342 0.76616 0.0
O1536 O 0.25404 0.45303 0.76888 0.0
C1537 C 0.23609 0.4878 0.70417 0.0
O1538 O 0.24467 0.47101 0.68671 0.0
C1539 C 0.22643 0.39467 0.82 0.0
O1540 O 0.23121 0.41706 0.84382 0.0
O1541 O 0.29158 0.44659 0.82773 0.0
O1542 O 0.29752 0.49093 0.82716 0.0
H1543 H 0.36623 0.42687 0.78743 0.0
H1544 H 0.20745 0.45519 0.7891 0.0
O1545 O 0.24405 0.49792 0.74284 0.0
H1546 H 0.2368 0.49291 0.9401 0.0
H1547 H 0.26737 0.58342 0.82116 0.0
H1548 H 0.32989 0.54163 0.79877 0.0
H1549 H 0.2727 0.50782 0.88046 0.0
H1550 H 0.24652 0.53213 0.80244 0.0
O1551 O 0.24349 0.39763 0.78858 0.0
H1552 H 0.33729 0.45084 0.78973 0.0
H1553 H 0.26524 0.376 0.73797 0.0
H1554 H 0.35161 0.59296 0.81784 0.0
H1555 H 0.17075 0.4399 0.84768 0.0
H1556 H 0.32027 0.61418 0.82917 0.0
H1557 H 0.18539 0.45876 0.92384 0.0
O1558 O 0.29949 0.50454 0.73688 0.0
H1559 H 0.20257 0.39171 0.64664 0.0
H1560 H 0.30601 0.4371 0.6804 0.0
H1561 H 0.28941 0.42305 0.60377 0.0
H1562 H 0.23734 0.40009 0.5865 0.0
H1563 H 0.22012 0.40645 0.72272 0.0
H1564 H 0.29335 0.35115 0.7354 0.0
H1565 H 0.34426 0.37666 0.76009 0.0
O1566 O 0.3116 0.47023 0.74298 0.0
C1567 C 0.30216 0.47183 0.84384 0.0
C1568 C 0.3441 0.41556 0.77644 0.0
C1569 C 0.30318 0.37305 0.74731 0.0
N1570 N 0.29967 0.41492 0.7637 0.0
C1571 C 0.32762 0.42905 0.77756 0.0
C1572 C 0.28735 0.38721 0.74893 0.0
C1573 C 0.33175 0.38738 0.76115 0.0
C1574 C 0.21392 0.46367 0.82208 0.0
N1575 N 0.24216 0.48244 0.83131 0.0
C1576 C 0.19307 0.45486 0.85515 0.0
C1577 C 0.20131 0.46541 0.89789 0.0
C1578 C 0.23016 0.48455 0.90705 0.0
C1579 C 0.25041 0.49284 0.87316 0.0
C1580 C 0.28125 0.57441 0.81638 0.0
C1581 C 0.31609 0.55066 0.80386 0.0
C1582 C 0.26957 0.54539 0.80568 0.0
N1583 N 0.28696 0.53383 0.79982 0.0
C1584 C 0.32852 0.57976 0.81456 0.0
C1585 C 0.31093 0.59166 0.82088 0.0
C1586 C 0.31624 0.49464 0.729 0.0
C1587 C 0.22531 0.40162 0.65377 0.0
C1588 C 0.28333 0.42729 0.67314 0.0
C1589 C 0.27405 0.41928 0.62969 0.0
C1590 C 0.24483 0.40637 0.62003 0.0
N1591 N 0.26404 0.42254 0.70607 0.0
C1592 C 0.23536 0.40989 0.69684 0.0
Co1593 Co 0.4499 0.85138 0.0511 0.0
Co1594 Co 0.51606 0.91075 0.06927 0.0
O1595 O 0.47393 0.8919 0.06671 0.0
C1596 C 0.42125 0.85724 0.13154 0.0
O1597 O 0.44663 0.87411 0.14893 0.0
C1598 C 0.50457 0.95019 0.01543 0.0
O1599 O 0.48694 0.92778 0.99168 0.0
O1600 O 0.51783 0.89829 0.00772 0.0
O1601 O 0.47947 0.85391 0.00855 0.0
H1602 H 0.61227 0.91809 0.04772 0.0
H1603 H 0.42514 0.88967 0.0465 0.0
O1604 O 0.41908 0.84703 0.09293 0.0
H1605 H 0.41663 0.85167 0.89566 0.0
H1606 H 0.35687 0.76137 0.01502 0.0
H1607 H 0.4612 0.80327 0.03717 0.0
H1608 H 0.43771 0.8369 0.95535 0.0
H1609 H 0.3873 0.8127 0.03349 0.0
O1610 O 0.51873 0.94728 0.04679 0.0
H1611 H 0.55937 0.8941 0.04561 0.0
H1612 H 0.5622 0.969 0.09722 0.0
H1613 H 0.4316 0.7519 0.01836 0.0
H1614 H 0.40366 0.90483 0.98787 0.0
H1615 H 0.37903 0.73062 0.00714 0.0
H1616 H 0.39937 0.88583 0.91179 0.0
O1617 O 0.46794 0.84047 0.09889 0.0
H1618 H 0.48397 0.95338 0.18883 0.0
H1619 H 0.54198 0.90797 0.15496 0.0
H1620 H 0.53957 0.92214 0.23157 0.0
H1621 H 0.51048 0.94511 0.24889 0.0
H1622 H 0.48665 0.93853 0.11277 0.0
H1623 H 0.61517 0.99387 0.09959 0.0
H1624 H 0.64055 0.96834 0.07488 0.0
O1625 O 0.51435 0.87475 0.09253 0.0
C1626 C 0.50318 0.87301 0.99173 0.0
C1627 C 0.60146 0.92941 0.05871 0.0
C1628 C 0.60308 0.97195 0.08776 0.0
N1629 N 0.55769 0.93005 0.07158 0.0
C1630 C 0.5715 0.91591 0.05771 0.0
C1631 C 0.57309 0.95778 0.08625 0.0
C1632 C 0.61731 0.95762 0.07391 0.0
C1633 C 0.4231 0.88113 0.01356 0.0
N1634 N 0.43258 0.86236 0.0044 0.0
C1635 C 0.41103 0.88987 0.98046 0.0
C1636 C 0.40867 0.87924 0.93776 0.0
C1637 C 0.41838 0.86009 0.92868 0.0
C1638 C 0.43039 0.85188 0.96259 0.0
C1639 C 0.37976 0.7704 0.01975 0.0
C1640 C 0.43837 0.79421 0.03213 0.0
C1641 C 0.3971 0.79944 0.03031 0.0
N1642 N 0.42605 0.81104 0.0361 0.0
C1643 C 0.4217 0.76509 0.02157 0.0
C1644 C 0.39221 0.75316 0.01532 0.0
C1645 C 0.4946 0.85037 0.10665 0.0
C1646 C 0.49679 0.94347 0.18167 0.0
C1647 C 0.52912 0.91779 0.16225 0.0
C1648 C 0.52793 0.92586 0.20568 0.0
C1649 C 0.51163 0.93878 0.21537 0.0
N1650 N 0.51453 0.92249 0.12936 0.0
C1651 C 0.4985 0.93514 0.13861 0.0
Co1652 Co 0.16309 0.60116 0.05095 0.0
Co1653 Co 0.10375 0.60795 0.0695 0.0
O1654 O 0.12261 0.58469 0.06679 0.0
C1655 C 0.15746 0.5669 0.13156 0.0
O1656 O 0.1407 0.57553 0.14898 0.0
C1657 C 0.06425 0.55703 0.01568 0.0
O1658 O 0.08664 0.56183 0.99187 0.0
O1659 O 0.1161 0.6222 0.00793 0.0
O1660 O 0.16044 0.6281 0.00836 0.0
H1661 H 0.0963 0.69678 0.04824 0.0
H1662 H 0.1248 0.53809 0.04672 0.0
O1663 O 0.16754 0.57477 0.09285 0.0
H1664 H 0.16238 0.56725 0.89561 0.0
H1665 H 0.253 0.59805 0.01443 0.0
H1666 H 0.21116 0.66054 0.03661 0.0
H1667 H 0.1773 0.60323 0.95512 0.0
H1668 H 0.20172 0.57719 0.03324 0.0
O1669 O 0.06719 0.57408 0.0471 0.0
H1670 H 0.12031 0.6679 0.04592 0.0
H1671 H 0.04554 0.5958 0.09773 0.0
H1672 H 0.26248 0.68226 0.01745 0.0
H1673 H 0.10948 0.50132 0.98827 0.0
H1674 H 0.28372 0.65094 0.00622 0.0
H1675 H 0.12827 0.51585 0.91205 0.0
O1676 O 0.17414 0.63021 0.09862 0.0
H1677 H 0.06137 0.53321 0.18906 0.0
H1678 H 0.10665 0.63663 0.15526 0.0
H1679 H 0.09264 0.62005 0.23191 0.0
H1680 H 0.06974 0.56798 0.2492 0.0
H1681 H 0.07606 0.55075 0.11297 0.0
H1682 H 0.02063 0.62386 0.10031 0.0
H1683 H 0.04609 0.67477 0.0756 0.0
O1684 O 0.13977 0.64225 0.09266 0.0
C1685 C 0.14133 0.63276 0.99174 0.0
C1686 C 0.08501 0.67465 0.05923 0.0
C1687 C 0.04253 0.63371 0.08839 0.0
N1688 N 0.08443 0.63026 0.07197 0.0
C1689 C 0.09852 0.6582 0.05811 0.0
C1690 C 0.05672 0.61791 0.08676 0.0
C1691 C 0.05683 0.66227 0.07454 0.0
C1692 C 0.13325 0.54452 0.01372 0.0
N1693 N 0.15198 0.57275 0.00439 0.0
C1694 C 0.12442 0.52363 0.98072 0.0
C1695 C 0.13493 0.53181 0.93794 0.0
C1696 C 0.15404 0.56065 0.92869 0.0
C1697 C 0.16235 0.58095 0.9625 0.0
C1698 C 0.24398 0.61192 0.01916 0.0
C1699 C 0.2202 0.64674 0.03156 0.0
C1700 C 0.21497 0.60024 0.02991 0.0
N1701 N 0.20339 0.61761 0.03571 0.0
C1702 C 0.2493 0.65918 0.02081 0.0
C1703 C 0.2612 0.64159 0.01455 0.0
C1704 C 0.16423 0.64694 0.10653 0.0
C1705 C 0.07125 0.55594 0.18192 0.0
C1706 C 0.09686 0.61396 0.16254 0.0
C1707 C 0.08888 0.60468 0.20599 0.0
C1708 C 0.076 0.57547 0.21566 0.0
N1709 N 0.09211 0.59467 0.12961 0.0
C1710 C 0.07949 0.56599 0.13885 0.0
Co1711 Co 0.41331 0.56492 0.05104 0.0
Co1712 Co 0.40655 0.4988 0.06941 0.0
O1713 O 0.42982 0.54092 0.0667 0.0
C1714 C 0.44779 0.59359 0.13146 0.0
O1715 O 0.4392 0.56821 0.14888 0.0
C1716 C 0.45746 0.51023 0.01552 0.0
O1717 O 0.45267 0.52785 0.99174 0.0
O1718 O 0.39227 0.49694 0.00787 0.0
O1719 O 0.38626 0.5353 0.00856 0.0
H1720 H 0.31769 0.40253 0.04816 0.0
H1721 H 0.47637 0.58971 0.04638 0.0
O1722 O 0.43981 0.59578 0.09282 0.0
H1723 H 0.44679 0.59806 0.89553 0.0
H1724 H 0.41631 0.65792 0.01481 0.0
H1725 H 0.35389 0.55359 0.03713 0.0
H1726 H 0.41097 0.57702 0.95527 0.0
H1727 H 0.43722 0.62751 0.03333 0.0
O1728 O 0.4404 0.49611 0.04692 0.0
H1729 H 0.34659 0.45544 0.04589 0.0
H1730 H 0.4187 0.45271 0.0975 0.0
H1731 H 0.33211 0.58317 0.01826 0.0
H1732 H 0.51299 0.61116 0.9877 0.0
H1733 H 0.36339 0.63573 0.00696 0.0
H1734 H 0.49824 0.61538 0.91161 0.0
O1735 O 0.38439 0.54693 0.09888 0.0
H1736 H 0.48138 0.53109 0.18883 0.0
H1737 H 0.37793 0.47299 0.15519 0.0
H1738 H 0.39457 0.47553 0.23179 0.0
H1739 H 0.44665 0.50467 0.249 0.0
H1740 H 0.46379 0.52829 0.11278 0.0
H1741 H 0.39063 0.39975 0.10003 0.0
H1742 H 0.3397 0.37431 0.0754 0.0
O1743 O 0.37227 0.50052 0.09267 0.0
C1744 C 0.38164 0.51157 0.99183 0.0
C1745 C 0.33983 0.41337 0.05912 0.0
C1746 C 0.38078 0.41181 0.08817 0.0
N1747 N 0.38424 0.45717 0.07185 0.0
C1748 C 0.35628 0.44333 0.05802 0.0
C1749 C 0.39658 0.4418 0.08657 0.0
C1750 C 0.3522 0.39755 0.07436 0.0
C1751 C 0.46985 0.59171 0.01343 0.0
N1752 N 0.44159 0.58221 0.0043 0.0
C1753 C 0.49065 0.60377 0.98031 0.0
C1754 C 0.48235 0.60609 0.93761 0.0
C1755 C 0.45349 0.59635 0.92855 0.0
C1756 C 0.43328 0.58436 0.96249 0.0
C1757 C 0.40245 0.63503 0.01957 0.0
C1758 C 0.36767 0.57643 0.03205 0.0
C1759 C 0.41417 0.6177 0.03016 0.0
N1760 N 0.39681 0.58875 0.036 0.0
C1761 C 0.3552 0.59308 0.02146 0.0
C1762 C 0.37276 0.62257 0.01516 0.0
C1763 C 0.36764 0.52028 0.10672 0.0
C1764 C 0.45864 0.51825 0.18172 0.0
C1765 C 0.40061 0.48587 0.16243 0.0
C1766 C 0.40991 0.48714 0.20585 0.0
C1767 C 0.43914 0.50346 0.21548 0.0
N1768 N 0.41987 0.50042 0.12948 0.0
C1769 C 0.44856 0.51647 0.13867 0.0
Co1770 Co 0.16316 0.56505 0.55123 0.0
Co1771 Co 0.10374 0.49895 0.56947 0.0
O1772 O 0.12262 0.54108 0.56683 0.0
C1773 C 0.15734 0.59373 0.63165 0.0
O1774 O 0.14049 0.56835 0.64905 0.0
C1775 C 0.06429 0.51043 0.51559 0.0
O1776 O 0.0867 0.52806 0.49183 0.0
O1777 O 0.11618 0.49712 0.50793 0.0
O1778 O 0.16058 0.53544 0.50873 0.0
H1779 H 0.09625 0.40266 0.54807 0.0
H1780 H 0.12494 0.58989 0.54654 0.0
O1781 O 0.16753 0.59591 0.59302 0.0
H1782 H 0.16298 0.59831 0.39575 0.0
H1783 H 0.25325 0.65801 0.51517 0.0
H1784 H 0.21121 0.55367 0.53738 0.0
H1785 H 0.17767 0.57719 0.45549 0.0
H1786 H 0.20191 0.62764 0.5336 0.0
O1787 O 0.06722 0.4963 0.54698 0.0
H1788 H 0.1203 0.45557 0.54587 0.0
H1789 H 0.04548 0.45288 0.59751 0.0
H1790 H 0.2626 0.58321 0.5186 0.0
H1791 H 0.10986 0.61142 0.48785 0.0
H1792 H 0.28394 0.63578 0.50736 0.0
H1793 H 0.12888 0.61566 0.4118 0.0
O1794 O 0.17403 0.54701 0.59907 0.0
H1795 H 0.0612 0.53122 0.68892 0.0
H1796 H 0.10649 0.47308 0.65522 0.0
H1797 H 0.09236 0.47558 0.73182 0.0
H1798 H 0.06945 0.50474 0.74906 0.0
H1799 H 0.07602 0.52845 0.61288 0.0
H1800 H 0.02055 0.39991 0.59996 0.0
H1801 H 0.046 0.37446 0.57528 0.0
O1802 O 0.13971 0.50062 0.59273 0.0
C1803 C 0.14146 0.51174 0.49194 0.0
C1804 C 0.08496 0.4135 0.55905 0.0
C1805 C 0.04246 0.41196 0.58811 0.0
N1806 N 0.08439 0.45731 0.57185 0.0
C1807 C 0.09849 0.44347 0.55799 0.0
C1808 C 0.05667 0.44196 0.58655 0.0
C1809 C 0.05676 0.39769 0.57427 0.0
C1810 C 0.13349 0.59191 0.5136 0.0
N1811 N 0.15222 0.58239 0.50449 0.0
C1812 C 0.12479 0.60401 0.48048 0.0
C1813 C 0.13544 0.60634 0.43779 0.0
C1814 C 0.15455 0.59658 0.42876 0.0
C1815 C 0.16272 0.58455 0.46269 0.0
C1816 C 0.24419 0.63512 0.51991 0.0
C1817 C 0.2203 0.5765 0.53232 0.0
C1818 C 0.21514 0.61781 0.53044 0.0
N1819 N 0.20351 0.58886 0.53625 0.0
C1820 C 0.24943 0.59313 0.52179 0.0
C1821 C 0.2614 0.62263 0.51552 0.0
C1822 C 0.16411 0.52035 0.60684 0.0
C1823 C 0.07109 0.51837 0.68181 0.0
C1824 C 0.0967 0.48596 0.66247 0.0
C1825 C 0.08865 0.48721 0.7059 0.0
C1826 C 0.07577 0.50355 0.71554 0.0
N1827 N 0.09202 0.50054 0.62954 0.0
C1828 C 0.0794 0.5166 0.63876 0.0
Co1829 Co 0.44929 0.60086 0.55076 0.0
Co1830 Co 0.51539 0.6076 0.56936 0.0
O1831 O 0.47328 0.58436 0.56662 0.0
C1832 C 0.42065 0.56664 0.63138 0.0
O1833 O 0.44605 0.57529 0.6488 0.0
C1834 C 0.50396 0.55666 0.51559 0.0
O1835 O 0.48636 0.56145 0.49175 0.0
O1836 O 0.51732 0.62185 0.50778 0.0
O1837 O 0.47891 0.62779 0.50818 0.0
H1838 H 0.61172 0.69639 0.54813 0.0
H1839 H 0.42447 0.53778 0.54654 0.0
O1840 O 0.41844 0.57448 0.59266 0.0
H1841 H 0.41612 0.56696 0.39541 0.0
H1842 H 0.3563 0.59779 0.51419 0.0
H1843 H 0.46064 0.66024 0.53639 0.0
H1844 H 0.43719 0.60294 0.45493 0.0
H1845 H 0.3867 0.57692 0.53303 0.0
O1846 O 0.51806 0.57372 0.54699 0.0
H1847 H 0.55882 0.66753 0.54578 0.0
H1848 H 0.56142 0.59542 0.59765 0.0
H1849 H 0.43107 0.68199 0.5172 0.0
H1850 H 0.40299 0.50101 0.48808 0.0
H1851 H 0.3785 0.65069 0.50595 0.0
H1852 H 0.39878 0.51555 0.41185 0.0
O1853 O 0.4673 0.62991 0.59843 0.0
H1854 H 0.48294 0.53286 0.68893 0.0
H1855 H 0.54115 0.63627 0.65513 0.0
H1856 H 0.53853 0.61968 0.73179 0.0
H1857 H 0.50933 0.56762 0.74907 0.0
H1858 H 0.48583 0.5504 0.61283 0.0
H1859 H 0.61438 0.62345 0.60027 0.0
H1860 H 0.63988 0.67435 0.57554 0.0
O1861 O 0.5137 0.64191 0.59249 0.0
C1862 C 0.50268 0.63243 0.49158 0.0
C1863 C 0.60086 0.67426 0.55913 0.0
C1864 C 0.60235 0.63331 0.58833 0.0
N1865 N 0.55703 0.62989 0.57186 0.0
C1866 C 0.5709 0.65783 0.55799 0.0
C1867 C 0.57236 0.61752 0.58668 0.0
C1868 C 0.61665 0.66187 0.57447 0.0
C1869 C 0.42246 0.54422 0.51353 0.0
N1870 N 0.43198 0.57245 0.5042 0.0
C1871 C 0.41039 0.52333 0.48053 0.0
C1872 C 0.40808 0.53151 0.43775 0.0
C1873 C 0.41783 0.56035 0.42849 0.0
C1874 C 0.42983 0.58065 0.4623 0.0
C1875 C 0.37919 0.61166 0.51892 0.0
C1876 C 0.4378 0.64646 0.53134 0.0
C1877 C 0.39651 0.59996 0.5297 0.0
N1878 N 0.42546 0.61733 0.5355 0.0
C1879 C 0.42116 0.65891 0.52057 0.0
C1880 C 0.39166 0.64133 0.5143 0.0
C1881 C 0.49394 0.64662 0.60635 0.0
C1882 C 0.49581 0.55559 0.68179 0.0
C1883 C 0.52826 0.6136 0.66241 0.0
C1884 C 0.52694 0.60432 0.70586 0.0
C1885 C 0.51058 0.57511 0.71553 0.0
N1886 N 0.51372 0.59432 0.62947 0.0
C1887 C 0.49764 0.56564 0.63871 0.0
Co1888 Co 0.41323 0.85138 0.55116 0.0
Co1889 Co 0.40655 0.91081 0.56944 0.0
O1890 O 0.42979 0.89191 0.56681 0.0
C1891 C 0.44771 0.85715 0.6316 0.0
O1892 O 0.43924 0.87404 0.64902 0.0
C1893 C 0.4575 0.95026 0.51559 0.0
O1894 O 0.45272 0.92786 0.49182 0.0
O1895 O 0.39231 0.89839 0.50788 0.0
O1896 O 0.38624 0.85399 0.50863 0.0
H1897 H 0.31776 0.9183 0.54798 0.0
H1898 H 0.4763 0.88961 0.54658 0.0
O1899 O 0.43968 0.84697 0.59298 0.0
H1900 H 0.44679 0.85167 0.39572 0.0
H1901 H 0.4161 0.76131 0.51499 0.0
H1902 H 0.3538 0.80335 0.53721 0.0
H1903 H 0.41094 0.83693 0.45541 0.0
H1904 H 0.43708 0.81264 0.5335 0.0
O1905 O 0.44044 0.94733 0.54698 0.0
H1906 H 0.34662 0.89426 0.54579 0.0
H1907 H 0.41874 0.96906 0.59749 0.0
H1908 H 0.33195 0.75197 0.51835 0.0
H1909 H 0.51295 0.90474 0.48795 0.0
H1910 H 0.36318 0.73063 0.5071 0.0
H1911 H 0.49823 0.88577 0.41186 0.0
O1912 O 0.3843 0.8405 0.59897 0.0
H1913 H 0.4813 0.9533 0.68896 0.0
H1914 H 0.37789 0.90803 0.65516 0.0
H1915 H 0.39448 0.92214 0.73178 0.0
H1916 H 0.44654 0.94504 0.74907 0.0
H1917 H 0.46375 0.93851 0.6129 0.0
H1918 H 0.3907 0.99399 0.59994 0.0
H1919 H 0.33979 0.96854 0.57522 0.0
O1920 O 0.37224 0.87483 0.59267 0.0
C1921 C 0.38166 0.87312 0.49185 0.0
C1922 C 0.33989 0.92959 0.55898 0.0
C1923 C 0.38084 0.97208 0.58808 0.0
N1924 N 0.38427 0.93016 0.5718 0.0
C1925 C 0.35632 0.91606 0.55793 0.0
C1926 C 0.39663 0.95787 0.58653 0.0
C1927 C 0.35228 0.95779 0.57422 0.0
C1928 C 0.46979 0.88108 0.51363 0.0
N1929 N 0.44154 0.86235 0.50447 0.0
C1930 C 0.49061 0.88981 0.48054 0.0
C1931 C 0.48233 0.87919 0.43783 0.0
C1932 C 0.45347 0.86008 0.42874 0.0
C1933 C 0.43324 0.85188 0.46265 0.0
C1934 C 0.40227 0.77037 0.51973 0.0
C1935 C 0.36755 0.79426 0.53215 0.0
C1936 C 0.41402 0.79941 0.53032 0.0
N1937 N 0.39669 0.81104 0.53613 0.0
C1938 C 0.35505 0.76514 0.52157 0.0
C1939 C 0.37258 0.75317 0.5153 0.0
C1940 C 0.36756 0.85042 0.60676 0.0
C1941 C 0.45857 0.94342 0.68183 0.0
C1942 C 0.40056 0.91782 0.66244 0.0
C1943 C 0.40984 0.92586 0.70587 0.0
C1944 C 0.43905 0.93873 0.71554 0.0
N1945 N 0.41984 0.92251 0.62952 0.0
C1946 C 0.44852 0.93512 0.63876 0.0
Co1947 Co 0.23454 0.49375 0.28463 0.0
Co1948 Co 0.16838 0.43443 0.26619 0.0
O1949 O 0.21049 0.45326 0.26885 0.0
C1950 C 0.26317 0.48799 0.20411 0.0
O1951 O 0.23778 0.47118 0.1867 0.0
C1952 C 0.17979 0.39493 0.32 0.0
O1953 O 0.19739 0.41733 0.3438 0.0
O1954 O 0.16653 0.44682 0.32776 0.0
O1955 O 0.20495 0.49116 0.32721 0.0
H1956 H 0.07215 0.4271 0.28758 0.0
H1957 H 0.25925 0.45541 0.28898 0.0
O1958 O 0.26536 0.49814 0.24276 0.0
H1959 H 0.26771 0.49312 0.44001 0.0
H1960 H 0.3276 0.58363 0.32107 0.0
H1961 H 0.22328 0.54186 0.29886 0.0
H1962 H 0.24669 0.50803 0.38044 0.0
H1963 H 0.29714 0.53234 0.30233 0.0
O1964 O 0.16567 0.39787 0.2886 0.0
H1965 H 0.12505 0.45107 0.28982 0.0
H1966 H 0.12225 0.37622 0.23805 0.0
H1967 H 0.25291 0.59319 0.31795 0.0
H1968 H 0.28068 0.4401 0.34749 0.0
H1969 H 0.30547 0.61439 0.32919 0.0
H1970 H 0.28495 0.45896 0.42367 0.0
O1971 O 0.21654 0.50477 0.23692 0.0
H1972 H 0.20057 0.39193 0.14659 0.0
H1973 H 0.14257 0.43734 0.18047 0.0
H1974 H 0.14507 0.42328 0.10382 0.0
H1975 H 0.17416 0.40031 0.0865 0.0
H1976 H 0.19781 0.40667 0.22268 0.0
H1977 H 0.06929 0.35137 0.23554 0.0
H1978 H 0.04389 0.37688 0.26027 0.0
O1979 O 0.17012 0.47046 0.24302 0.0
C1980 C 0.1812 0.47205 0.34389 0.0
C1981 C 0.08297 0.41578 0.27658 0.0
C1982 C 0.08136 0.37327 0.24743 0.0
N1983 N 0.12674 0.41514 0.26378 0.0
C1984 C 0.11293 0.42927 0.27766 0.0
C1985 C 0.11135 0.38743 0.24902 0.0
C1986 C 0.06713 0.3876 0.2613 0.0
C1987 C 0.26128 0.46389 0.32197 0.0
N1988 N 0.25182 0.48265 0.33124 0.0
C1989 C 0.27332 0.45506 0.355 0.0
C1990 C 0.27566 0.46561 0.39775 0.0
C1991 C 0.26597 0.48476 0.40695 0.0
C1992 C 0.254 0.49306 0.37311 0.0
C1993 C 0.30471 0.57463 0.31633 0.0
C1994 C 0.24611 0.55089 0.30391 0.0
C1995 C 0.28736 0.54561 0.30561 0.0
N1996 N 0.25841 0.53406 0.29981 0.0
C1997 C 0.26279 0.57999 0.31462 0.0
C1998 C 0.29229 0.59188 0.32089 0.0
C1999 C 0.18989 0.49488 0.22906 0.0
C2000 C 0.18775 0.40184 0.15375 0.0
C2001 C 0.15542 0.42752 0.17318 0.0
C2002 C 0.15667 0.41951 0.12973 0.0
C2003 C 0.17297 0.40659 0.12003 0.0
N2004 N 0.16996 0.42276 0.20609 0.0
C2005 C 0.18599 0.41011 0.19683 0.0
Co2006 Co 0.52112 0.74375 0.28447 0.0
Co2007 Co 0.58043 0.73689 0.26619 0.0
O2008 O 0.56164 0.76022 0.26886 0.0
C2009 C 0.52699 0.77828 0.20406 0.0
O2010 O 0.54379 0.76969 0.18664 0.0
C2011 C 0.61994 0.78776 0.3201 0.0
O2012 O 0.59754 0.783 0.34387 0.0
O2013 O 0.56796 0.72261 0.32772 0.0
O2014 O 0.52361 0.71666 0.32693 0.0
H2015 H 0.58763 0.64792 0.28749 0.0
H2016 H 0.55947 0.8068 0.28918 0.0
O2017 O 0.51682 0.77029 0.2427 0.0
H2018 H 0.52147 0.7772 0.44 0.0
H2019 H 0.43119 0.7469 0.32068 0.0
H2020 H 0.47295 0.68436 0.29829 0.0
H2021 H 0.50666 0.7414 0.38023 0.0
H2022 H 0.48251 0.76775 0.30219 0.0
O2023 O 0.61699 0.7707 0.2887 0.0
H2024 H 0.56371 0.6769 0.28972 0.0
H2025 H 0.63864 0.74894 0.23816 0.0
H2026 H 0.42159 0.66264 0.31712 0.0
H2027 H 0.57467 0.8434 0.3479 0.0
H2028 H 0.40038 0.69398 0.32845 0.0
H2029 H 0.55567 0.82864 0.42397 0.0
O2030 O 0.51017 0.71485 0.23661 0.0
H2031 H 0.62311 0.8117 0.14677 0.0
H2032 H 0.5776 0.70825 0.18043 0.0
H2033 H 0.59176 0.72487 0.10383 0.0
H2034 H 0.61478 0.77695 0.08662 0.0
H2035 H 0.60827 0.79412 0.22281 0.0
H2036 H 0.66345 0.72079 0.23567 0.0
H2037 H 0.63788 0.66986 0.26029 0.0
O2038 O 0.54441 0.70265 0.24291 0.0
C2039 C 0.54268 0.712 0.34371 0.0
C2040 C 0.59898 0.67006 0.27653 0.0
C2041 C 0.64154 0.71097 0.24751 0.0
N2042 N 0.59968 0.71451 0.26379 0.0
C2043 C 0.58552 0.68656 0.27761 0.0
C2044 C 0.6274 0.72682 0.24909 0.0
C2045 C 0.62718 0.6824 0.26132 0.0
C2046 C 0.55092 0.80027 0.32213 0.0
N2047 N 0.53213 0.77203 0.33123 0.0
C2048 C 0.55969 0.82106 0.35527 0.0
C2049 C 0.54906 0.81276 0.39796 0.0
C2050 C 0.52989 0.7839 0.40699 0.0
C2051 C 0.52165 0.7637 0.37303 0.0
C2052 C 0.44019 0.73301 0.3159 0.0
C2053 C 0.46393 0.69816 0.30338 0.0
C2054 C 0.46923 0.74469 0.30533 0.0
N2055 N 0.48078 0.7273 0.29947 0.0
C2056 C 0.43481 0.68573 0.31395 0.0
C2057 C 0.42292 0.70333 0.32027 0.0
C2058 C 0.52003 0.69806 0.22881 0.0
C2059 C 0.61318 0.78896 0.15388 0.0
C2060 C 0.58744 0.73093 0.17318 0.0
C2061 C 0.59551 0.74022 0.12976 0.0
C2062 C 0.60845 0.76945 0.12013 0.0
N2063 N 0.59217 0.7502 0.20612 0.0
C2064 C 0.60485 0.77889 0.19693 0.0
Co2065 Co 0.27089 0.78016 0.2842 0.0
Co2066 Co 0.27769 0.84631 0.26581 0.0
O2067 O 0.25442 0.80419 0.26842 0.0
C2068 C 0.23647 0.75151 0.20368 0.0
O2069 O 0.24499 0.77688 0.18629 0.0
C2070 C 0.22672 0.83484 0.31952 0.0
O2071 O 0.2315 0.81723 0.34332 0.0
O2072 O 0.29187 0.84813 0.32741 0.0
O2073 O 0.29784 0.80975 0.32681 0.0
H2074 H 0.36653 0.94256 0.28741 0.0
H2075 H 0.20782 0.75541 0.28851 0.0
O2076 O 0.24448 0.74933 0.24231 0.0
H2077 H 0.23704 0.74689 0.43954 0.0
H2078 H 0.2678 0.68714 0.32052 0.0
H2079 H 0.33027 0.79148 0.29844 0.0
H2080 H 0.273 0.76797 0.37999 0.0
H2081 H 0.24693 0.71756 0.30184 0.0
O2082 O 0.24381 0.84898 0.28816 0.0
H2083 H 0.33762 0.88965 0.28956 0.0
H2084 H 0.2656 0.89243 0.23767 0.0
H2085 H 0.35201 0.76188 0.31747 0.0
H2086 H 0.17107 0.73392 0.347 0.0
H2087 H 0.3207 0.70931 0.32865 0.0
H2088 H 0.18564 0.72962 0.42317 0.0
O2089 O 0.29991 0.79819 0.23651 0.0
H2090 H 0.20308 0.81416 0.14608 0.0
H2091 H 0.30647 0.87218 0.18015 0.0
H2092 H 0.28997 0.86972 0.10348 0.0
H2093 H 0.23793 0.84063 0.08605 0.0
H2094 H 0.22054 0.81688 0.22219 0.0
H2095 H 0.29368 0.94539 0.23525 0.0
H2096 H 0.34456 0.9708 0.26008 0.0
O2097 O 0.31201 0.8446 0.24269 0.0
C2098 C 0.30245 0.83347 0.34353 0.0
C2099 C 0.34441 0.93173 0.27636 0.0
C2100 C 0.30351 0.93332 0.24715 0.0
N2101 N 0.30002 0.88795 0.26346 0.0
C2102 C 0.32795 0.90177 0.27739 0.0
C2103 C 0.2877 0.90333 0.24869 0.0
C2104 C 0.33206 0.94757 0.26107 0.0
C2105 C 0.21427 0.75336 0.3215 0.0
N2106 N 0.24249 0.76284 0.33079 0.0
C2107 C 0.19339 0.74129 0.35451 0.0
C2108 C 0.20158 0.73893 0.39726 0.0
C2109 C 0.23042 0.74864 0.40648 0.0
C2110 C 0.25071 0.76065 0.37265 0.0
C2111 C 0.28166 0.71003 0.31581 0.0
C2112 C 0.31648 0.76864 0.30347 0.0
C2113 C 0.26998 0.72736 0.30513 0.0
N2114 N 0.28735 0.75632 0.29936 0.0
C2115 C 0.32892 0.75198 0.31415 0.0
C2116 C 0.31134 0.72248 0.32038 0.0
C2117 C 0.31668 0.82485 0.2287 0.0
C2118 C 0.22581 0.82698 0.15327 0.0
C2119 C 0.28381 0.85932 0.17281 0.0
C2120 C 0.27458 0.8581 0.12935 0.0
C2121 C 0.24537 0.84179 0.1196 0.0
N2122 N 0.26448 0.84475 0.20568 0.0
C2123 C 0.23581 0.82872 0.19637 0.0
C2124 C 0.15897 0.03326 0.02077 0.0
C2125 C 0.18527 0.05837 0.01216 0.0
H2126 H 0.13044 0.98909 0.00423 0.0
C2127 C 0.20362 0.05762 0.97983 0.0
H2128 H 0.14433 0.03323 0.04542 0.0
C2129 C 0.19595 0.03209 0.957 0.0
C2130 C 0.16944 0.00709 0.96524 0.0
H2131 H 0.22406 0.07662 0.97268 0.0
H2132 H 0.21053 0.03206 0.93234 0.0
C2133 C 0.15096 0.00801 0.99715 0.0
C2134 C 0.98114 0.1286 0.02038 0.0
C2135 C 0.95607 0.12989 0.01191 0.0
H2136 H 0.0253 0.14423 0.00383 0.0
C2137 C 0.95688 0.14912 0.97978 0.0
H2138 H 0.98113 0.11389 0.04487 0.0
C2139 C 0.98243 0.16703 0.95704 0.0
C2140 C 1.0074 0.16544 0.96516 0.0
H2141 H 0.93791 0.15063 0.97274 0.0
H2142 H 0.98251 0.18176 0.93255 0.0
C2143 C 1.00641 0.1459 0.99685 0.0
C2144 C 0.84738 0.81829 0.95683 0.0
C2145 C 0.84885 0.84478 0.96507 0.0
H2146 H 0.86384 0.79021 0.97251 0.0
C2147 C 0.86823 0.86327 0.99698 0.0
H2148 H 0.83277 0.80369 0.93218 0.0
C2149 C 0.8855 0.85529 0.02061 0.0
C2150 C 0.88433 0.829 0.012 0.0
H2151 H 0.86981 0.88378 0.00407 0.0
H2152 H 0.90009 0.86993 0.04526 0.0
C2153 C 0.86525 0.81064 0.97967 0.0
C2154 C 0.03496 0.19344 0.5452 0.0
C2155 C 0.00997 0.16692 0.537 0.0
H2156 H 0.07949 0.22156 0.52955 0.0
C2157 C 0.01092 0.14841 0.50518 0.0
H2158 H 0.0349 0.20806 0.56979 0.0
C2159 C 0.03619 0.1564 0.48162 0.0
C2160 C 0.06128 0.18273 0.49018 0.0
H2161 H 0.99202 0.12788 0.49813 0.0
H2162 H 0.03618 0.14174 0.45704 0.0
C2163 C 0.0605 0.20111 0.52243 0.0
C2164 C 0.85872 0.88305 0.4817 0.0
C2165 C 0.83237 0.88177 0.49022 0.0
H2166 H 0.88727 0.86744 0.49826 0.0
C2167 C 0.81397 0.86257 0.5224 0.0
H2168 H 0.8734 0.89773 0.45717 0.0
C2169 C 0.82163 0.84469 0.54517 0.0
C2170 C 0.84818 0.84627 0.53702 0.0
H2171 H 0.79349 0.86107 0.52948 0.0
H2172 H 0.807 0.82999 0.56971 0.0
C2173 C 0.86671 0.86577 0.50527 0.0
C2174 C 0.13183 0.97848 0.48107 0.0
C2175 C 0.13303 0.95337 0.48966 0.0
H2176 H 0.14745 0.02264 0.49766 0.0
C2177 C 0.15211 0.95412 0.522 0.0
H2178 H 0.11723 0.97852 0.45641 0.0
C2179 C 0.16995 0.97964 0.54487 0.0
C2180 C 0.16844 1.00463 0.53665 0.0
H2181 H 0.15356 0.93512 0.52914 0.0
H2182 H 0.18457 0.97967 0.56953 0.0
C2183 C 0.14906 1.00372 0.50473 0.0
C2184 C 0.821 0.9795 0.04503 0.0
C2185 C 0.84755 1.00448 0.03692 0.0
H2186 H 0.79288 0.93498 0.02929 0.0
C2187 C 0.86609 1.00353 0.00517 0.0
H2188 H 0.80636 0.97956 0.06957 0.0
C2189 C 0.85812 0.97827 0.98158 0.0
C2190 C 0.83177 0.95319 0.99006 0.0
H2191 H 0.88665 0.02243 0.99818 0.0
H2192 H 0.87281 0.97829 0.95706 0.0
C2193 C 0.81336 0.95397 0.02223 0.0
C2194 C 0.03463 0.84443 0.04498 0.0
C2195 C 0.00963 0.84597 0.03691 0.0
H2196 H 0.07916 0.86091 0.02924 0.0
C2197 C 0.01056 0.8655 0.00524 0.0
H2198 H 0.03459 0.82971 0.06945 0.0
C2199 C 0.03581 0.88284 0.98169 0.0
C2200 C 0.06092 0.88161 0.99013 0.0
H2201 H 0.99164 0.86713 0.9983 0.0
H2202 H 0.03579 0.89755 0.95723 0.0
C2203 C 0.06016 0.86238 0.02222 0.0
C2204 C 0.152 0.20088 0.02239 0.0
C2205 C 0.13282 0.18244 0.99023 0.0
H2206 H 0.18462 0.20794 0.0697 0.0
C2207 C 0.13161 0.15611 0.98174 0.0
H2208 H 0.15346 0.22134 0.02944 0.0
C2209 C 0.14893 0.14819 0.00533 0.0
C2210 C 0.16841 0.16676 0.03706 0.0
H2211 H 0.11694 0.14141 0.95722 0.0
H2212 H 0.14731 0.12765 0.99835 0.0
C2213 C 0.16993 0.19328 0.04518 0.0
C2214 C 0.95726 0.81093 0.47964 0.0
C2215 C 0.95656 0.82935 0.51188 0.0
H2216 H 0.98274 0.80388 0.43218 0.0
C2217 C 0.9817 0.85566 0.52036 0.0
H2218 H 0.93824 0.79049 0.47259 0.0
C2219 C 1.00692 0.86359 0.49669 0.0
C2220 C 1.00778 0.84503 0.46487 0.0
H2221 H 0.98178 0.87036 0.54494 0.0
H2222 H 0.02586 0.88411 0.50367 0.0
C2223 C 0.98275 0.81853 0.45677 0.0
C2224 C 0.15108 0.14615 0.49664 0.0
C2225 C 0.16968 0.16573 0.46502 0.0
H2226 H 0.14428 0.11408 0.54458 0.0
C2227 C 0.19624 0.16733 0.45696 0.0
H2228 H 0.13051 0.14447 0.50358 0.0
C2229 C 0.20385 0.14939 0.47969 0.0
C2230 C 0.18538 0.13011 0.51173 0.0
H2231 H 0.21093 0.18209 0.43253 0.0
H2232 H 0.22435 0.15091 0.47268 0.0
C2233 C 0.15901 0.12882 0.52016 0.0
C2234 C 0.88586 0.03333 0.52038 0.0
C2235 C 0.88453 0.05838 0.5119 0.0
H2236 H 0.87029 0.98918 0.50382 0.0
C2237 C 0.86528 0.05754 0.47978 0.0
H2238 H 0.90058 0.03337 0.54486 0.0
C2239 C 0.8474 0.03198 0.45703 0.0
C2240 C 0.84904 0.00704 0.46515 0.0
H2241 H 0.86374 0.0765 0.47273 0.0
H2242 H 0.83266 0.03188 0.43254 0.0
C2243 C 0.86859 0.00805 0.49684 0.0
C2244 C 0.86288 0.36531 0.29021 0.0
C2245 C 0.83636 0.34031 0.29837 0.0
H2246 H 0.89095 0.40984 0.30593 0.0
C2247 C 0.81783 0.34122 0.33018 0.0
H2248 H 0.87751 0.36528 0.26564 0.0
C2249 C 0.82578 0.36647 0.35378 0.0
C2250 C 0.8521 0.39159 0.34525 0.0
H2251 H 0.7973 0.3223 0.3372 0.0
H2252 H 0.8111 0.36643 0.37835 0.0
C2253 C 0.8705 0.39084 0.31302 0.0
C2254 C 0.64774 0.46195 0.35387 0.0
C2255 C 0.62266 0.46323 0.34537 0.0
H2256 H 0.6919 0.47757 0.3373 0.0
C2257 C 0.62347 0.48246 0.31323 0.0
H2258 H 0.64773 0.44725 0.37837 0.0
C2259 C 0.64902 0.50035 0.29047 0.0
C2260 C 0.67399 0.49876 0.29859 0.0
H2261 H 0.6045 0.48396 0.30617 0.0
H2262 H 0.6491 0.51507 0.26596 0.0
C2263 C 0.67301 0.47925 0.33032 0.0
C2264 C 0.55238 0.1888 0.35346 0.0
C2265 C 0.55114 0.16246 0.34498 0.0
H2266 H 0.5367 0.21729 0.33686 0.0
C2267 C 0.53194 0.14403 0.31282 0.0
H2268 H 0.56705 0.20351 0.37797 0.0
C2269 C 0.51403 0.15165 0.29004 0.0
C2270 C 0.51557 0.17818 0.29815 0.0
H2271 H 0.53047 0.12357 0.30577 0.0
H2272 H 0.49933 0.13699 0.26552 0.0
C2273 C 0.53507 0.19675 0.32988 0.0
C2274 C 0.67748 0.48165 0.83845 0.0
C2275 C 0.67654 0.50019 0.87023 0.0
H2276 H 0.70272 0.47493 0.79034 0.0
C2277 C 0.70153 0.52672 0.87838 0.0
H2278 H 0.65857 0.46111 0.83143 0.0
C2279 C 0.72707 0.53435 0.85561 0.0
C2280 C 0.72784 0.51594 0.82341 0.0
H2281 H 0.70148 0.54135 0.90294 0.0
H2282 H 0.74606 0.55481 0.8627 0.0
C2283 C 0.70274 0.48961 0.81488 0.0
C2284 C 0.48014 0.19554 0.85568 0.0
C2285 C 0.49857 0.21481 0.8236 0.0
H2286 H 0.47313 0.16286 0.90284 0.0
C2287 C 0.52495 0.21612 0.81511 0.0
H2288 H 0.45965 0.194 0.86273 0.0
C2289 C 0.53292 0.19881 0.8386 0.0
C2290 C 0.51435 0.17923 0.87025 0.0
H2291 H 0.53965 0.23086 0.79066 0.0
H2292 H 0.55349 0.2005 0.83162 0.0
C2293 C 0.48779 0.17762 0.87837 0.0
C2294 C 0.81566 0.33704 0.83835 0.0
C2295 C 0.83517 0.33799 0.87006 0.0
H2296 H 0.78366 0.3118 0.79027 0.0
C2297 C 0.83674 0.31301 0.87814 0.0
H2298 H 0.814 0.35594 0.83139 0.0
C2299 C 0.81883 0.28748 0.85535 0.0
C2300 C 0.79962 0.2867 0.82322 0.0
H2301 H 0.85145 0.31307 0.90264 0.0
H2302 H 0.82033 0.2685 0.86238 0.0
C2303 C 0.79835 0.31179 0.81476 0.0
C2304 C 0.48773 0.31273 0.37829 0.0
C2305 C 0.51423 0.33776 0.37014 0.0
H2306 H 0.45969 0.2682 0.36255 0.0
C2307 C 0.53276 0.33688 0.3383 0.0
H2308 H 0.47309 0.31274 0.4029 0.0
C2309 C 0.52483 0.31165 0.31466 0.0
C2310 C 0.49853 0.28651 0.32319 0.0
H2311 H 0.55328 0.35582 0.33128 0.0
H2312 H 0.53951 0.31171 0.29007 0.0
C2313 C 0.48012 0.28722 0.35546 0.0
C2314 C 0.72705 0.19569 0.35544 0.0
C2315 C 0.72787 0.21491 0.32328 0.0
H2316 H 0.70142 0.16309 0.40272 0.0
C2317 C 0.70279 0.21619 0.31477 0.0
H2318 H 0.74602 0.19419 0.36252 0.0
C2319 C 0.67752 0.1989 0.33831 0.0
C2320 C 0.67653 0.17938 0.37005 0.0
H2321 H 0.7028 0.23088 0.29025 0.0
H2322 H 0.65863 0.20057 0.33131 0.0
C2323 C 0.7015 0.1778 0.37819 0.0
C2324 C 0.81543 0.48131 0.33859 0.0
C2325 C 0.83492 0.49988 0.37032 0.0
H2326 H 0.78344 0.47453 0.2905 0.0
C2327 C 0.83644 0.52639 0.37845 0.0
H2328 H 0.81382 0.46077 0.33159 0.0
C2329 C 0.81851 0.53399 0.35568 0.0
C2330 C 0.79932 0.51556 0.32352 0.0
H2331 H 0.85113 0.54106 0.40297 0.0
H2332 H 0.81996 0.55445 0.36275 0.0
C2333 C 0.79811 0.48923 0.31502 0.0
C2334 C 0.62363 0.144 0.81285 0.0
C2335 C 0.62285 0.16238 0.84509 0.0
H2336 H 0.64923 0.13704 0.76548 0.0
C2337 C 0.64795 0.18872 0.85362 0.0
H2338 H 0.60465 0.12353 0.80576 0.0
C2339 C 0.6732 0.19671 0.83003 0.0
C2340 C 0.67415 0.17819 0.79822 0.0
H2341 H 0.64796 0.20338 0.87819 0.0
H2342 H 0.69211 0.21725 0.83706 0.0
C2343 C 0.64917 0.15166 0.79005 0.0
C2344 C 0.87043 0.48251 0.81303 0.0
C2345 C 0.85203 0.46334 0.84525 0.0
H2346 H 0.87743 0.51509 0.7657 0.0
C2347 C 0.82571 0.46212 0.8538 0.0
H2348 H 0.89088 0.48397 0.80592 0.0
C2349 C 0.81775 0.47942 0.83024 0.0
C2350 C 0.83628 0.49889 0.79845 0.0
H2351 H 0.81103 0.44747 0.87836 0.0
H2352 H 0.79722 0.47781 0.83727 0.0
C2353 C 0.8628 0.50042 0.79026 0.0
C2354 C 0.55233 0.36663 0.85373 0.0
C2355 C 0.55102 0.39168 0.84522 0.0
H2356 H 0.53673 0.32246 0.83723 0.0
C2357 C 0.53175 0.39083 0.81312 0.0
H2358 H 0.56706 0.36666 0.8782 0.0
C2359 C 0.51385 0.36526 0.79041 0.0
C2360 C 0.51547 0.34031 0.79855 0.0
H2361 H 0.53022 0.40979 0.80605 0.0
H2362 H 0.4991 0.36516 0.76593 0.0
C2363 C 0.53503 0.34133 0.83023 0.0
C2364 C 0.52906 0.6983 0.62337 0.0
C2365 C 0.50251 0.67333 0.63148 0.0
H2366 H 0.55721 0.74281 0.63913 0.0
C2367 C 0.48397 0.67429 0.66323 0.0
H2368 H 0.5437 0.69824 0.59884 0.0
C2369 C 0.49196 0.69955 0.68684 0.0
C2370 C 0.51832 0.72462 0.67836 0.0
H2371 H 0.46341 0.65539 0.67021 0.0
H2372 H 0.47728 0.69954 0.71137 0.0
C2373 C 0.53672 0.72384 0.64618 0.0
C2374 C 0.33992 0.81289 0.66379 0.0
C2375 C 0.34086 0.83233 0.63195 0.0
H2376 H 0.31468 0.78101 0.71201 0.0
C2377 C 0.31589 0.83389 0.62379 0.0
H2378 H 0.35882 0.81124 0.67081 0.0
C2379 C 0.29036 0.81604 0.64663 0.0
C2380 C 0.28958 0.7969 0.67889 0.0
H2381 H 0.31594 0.84855 0.59918 0.0
H2382 H 0.27138 0.81752 0.63953 0.0
C2383 C 0.31467 0.79565 0.68742 0.0
C2384 C 0.20163 0.53023 0.66389 0.0
C2385 C 0.1822 0.51175 0.63202 0.0
H2386 H 0.2335 0.53687 0.71212 0.0
C2387 C 0.18066 0.48523 0.62381 0.0
H2388 H 0.20325 0.55077 0.67095 0.0
C2389 C 0.19851 0.47755 0.64663 0.0
C2390 C 0.21764 0.4959 0.67892 0.0
H2391 H 0.16602 0.47063 0.59918 0.0
H2392 H 0.19705 0.45709 0.6395 0.0
C2393 C 0.21887 0.52223 0.6875 0.0
C2394 C 0.36961 0.82282 0.14829 0.0
C2395 C 0.3947 0.84918 0.15677 0.0
H2396 H 0.32545 0.7943 0.16487 0.0
C2397 C 0.39391 0.8676 0.18893 0.0
H2398 H 0.36961 0.80813 0.12378 0.0
C2399 C 0.36837 0.85995 0.21171 0.0
C2400 C 0.34339 0.83341 0.20359 0.0
H2401 H 0.41289 0.88807 0.19599 0.0
H2402 H 0.36831 0.8746 0.23623 0.0
C2403 C 0.34435 0.81486 0.17186 0.0
C2404 C 0.19188 0.54968 0.14836 0.0
C2405 C 0.16555 0.54847 0.15688 0.0
H2406 H 0.22039 0.53404 0.16501 0.0
C2407 C 0.14718 0.52937 0.18918 0.0
H2408 H 0.20653 0.56429 0.12374 0.0
C2409 C 0.15483 0.51151 0.21205 0.0
C2410 C 0.18135 0.51303 0.20389 0.0
H2411 H 0.12673 0.52791 0.19627 0.0
H2412 H 0.14021 0.49687 0.23667 0.0
C2413 C 0.19986 0.53244 0.17203 0.0
C2414 C 0.48246 0.6705 0.17179 0.0
C2415 C 0.50187 0.67138 0.20361 0.0
H2416 H 0.45052 0.64532 0.12359 0.0
C2417 C 0.50335 0.64635 0.21177 0.0
H2418 H 0.48088 0.68944 0.16478 0.0
C2419 C 0.48544 0.62084 0.18894 0.0
C2420 C 0.46631 0.62013 0.1567 0.0
H2421 H 0.51799 0.64636 0.23636 0.0
H2422 H 0.48685 0.60182 0.19603 0.0
C2423 C 0.46515 0.64526 0.14817 0.0
C2424 C 0.14698 0.62103 0.68909 0.0
C2425 C 0.16539 0.62028 0.65688 0.0
H2426 H 0.13997 0.6466 0.73646 0.0
C2427 C 0.19172 0.64538 0.64837 0.0
H2428 H 0.12652 0.60204 0.69617 0.0
C2429 C 0.19968 0.67063 0.67196 0.0
C2430 C 0.18114 0.67156 0.70375 0.0
H2431 H 0.2064 0.64541 0.62382 0.0
H2432 H 0.22022 0.68955 0.66496 0.0
C2433 C 0.15461 0.64656 0.71189 0.0
C2434 C 0.36793 0.51129 0.71196 0.0
C2435 C 0.34292 0.51278 0.70379 0.0
H2436 H 0.41244 0.5277 0.69615 0.0
C2437 C 0.34379 0.53216 0.6719 0.0
H2438 H 0.36792 0.49667 0.7366 0.0
C2439 C 0.36902 0.5494 0.6482 0.0
C2440 C 0.39413 0.5482 0.65672 0.0
H2441 H 0.32486 0.53375 0.66487 0.0
H2442 H 0.36895 0.56398 0.62355 0.0
C2443 C 0.39343 0.52913 0.68906 0.0
C2444 C 0.50325 0.85973 0.71174 0.0
C2445 C 0.50162 0.83316 0.70361 0.0
H2446 H 0.48693 0.88792 0.69605 0.0
C2447 C 0.48209 0.81463 0.67189 0.0
H2448 H 0.51798 0.87436 0.73626 0.0
C2449 C 0.46483 0.82265 0.64833 0.0
C2450 C 0.46616 0.84903 0.65682 0.0
H2451 H 0.48039 0.79406 0.66489 0.0
H2452 H 0.45013 0.80798 0.62382 0.0
C2453 C 0.48539 0.86742 0.68898 0.0
C2454 C 0.29043 0.47761 0.1466 0.0
C2455 C 0.2897 0.49602 0.17884 0.0
H2456 H 0.31596 0.47059 0.09918 0.0
C2457 C 0.31483 0.52233 0.18736 0.0
H2458 H 0.27142 0.45717 0.13952 0.0
C2459 C 0.34006 0.53028 0.16373 0.0
C2460 C 0.34096 0.51174 0.13192 0.0
H2461 H 0.31488 0.53702 0.21194 0.0
H2462 H 0.35899 0.55081 0.17074 0.0
C2463 C 0.31594 0.48523 0.12377 0.0
C2464 C 0.49263 0.79557 0.18735 0.0
C2465 C 0.51894 0.79677 0.17881 0.0
H2466 H 0.46413 0.81123 0.17074 0.0
C2467 C 0.53733 0.81589 0.14654 0.0
H2468 H 0.47796 0.78095 0.21195 0.0
C2469 C 0.52968 0.83376 0.12369 0.0
C2470 C 0.50317 0.83225 0.13186 0.0
H2471 H 0.55777 0.81733 0.13943 0.0
H2472 H 0.5443 0.8484 0.09907 0.0
C2473 C 0.48466 0.81284 0.16371 0.0
C2474 C 0.19874 0.72417 0.14633 0.0
C2475 C 0.21797 0.72496 0.17844 0.0
H2476 H 0.1661 0.69857 0.09908 0.0
C2477 C 0.21924 0.69987 0.18689 0.0
H2478 H 0.19725 0.74315 0.1393 0.0
C2479 C 0.20193 0.67461 0.16333 0.0
C2480 C 0.1824 0.67366 0.13165 0.0
H2481 H 0.23394 0.69986 0.21137 0.0
H2482 H 0.20359 0.65571 0.17029 0.0
C2483 C 0.18083 0.69863 0.12356 0.0
C2484 C 0.16338 0.17045 0.26842 0.0
C2485 C 0.18075 0.19794 0.28658 0.0
H2486 H 0.1587 0.13936 0.221 0.0
C2487 C 0.20838 0.2155 0.26871 0.0
H2488 H 0.14203 0.1561 0.28108 0.0
C2489 C 0.21824 0.2056 0.23346 0.0
C2490 C 0.20061 0.17799 0.21557 0.0
H2491 H 0.22242 0.23672 0.2821 0.0
H2492 H 0.23948 0.21959 0.22011 0.0
C2493 C 0.1731 0.16069 0.23368 0.0
C2494 C 0.79922 0.99583 0.26877 0.0
C2495 C 0.81686 0.98585 0.28664 0.0
H2496 H 0.79501 0.02274 0.22013 0.0
C2497 C 0.84435 0.99603 0.26845 0.0
H2498 H 0.778 0.9886 0.28218 0.0
C2499 C 0.85404 0.01547 0.23367 0.0
C2500 C 0.83666 0.02559 0.21555 0.0
H2501 H 0.85876 0.98911 0.28112 0.0
H2502 H 0.87536 0.02244 0.22095 0.0
C2503 C 0.80905 0.01555 0.23349 0.0
C2504 C 0.99878 0.79625 0.23323 0.0
C2505 C 0.98872 0.81382 0.21539 0.0
H2506 H 0.02582 0.79215 0.28176 0.0
C2507 C 0.9989 0.84133 0.23352 0.0
H2508 H 0.99156 0.77502 0.21987 0.0
C2509 C 0.01842 0.8511 0.26819 0.0
C2510 C 0.02862 0.83378 0.28629 0.0
H2511 H 0.99191 0.85569 0.22087 0.0
H2512 H 0.02538 0.87243 0.28086 0.0
C2513 C 0.01858 0.80615 0.26842 0.0
C2514 C 0.80941 0.79645 0.73325 0.0
C2515 C 0.83706 0.81407 0.71549 0.0
H2516 H 0.77821 0.79225 0.78174 0.0
C2517 C 0.85436 0.84155 0.73373 0.0
H2518 H 0.79542 0.77524 0.7198 0.0
C2519 C 0.84456 0.85124 0.76845 0.0
C2520 C 0.81702 0.83387 0.78646 0.0
H2521 H 0.87572 0.85594 0.72114 0.0
H2522 H 0.85891 0.87255 0.78121 0.0
C2523 C 0.79946 0.80628 0.76847 0.0
C2524 C 0.21787 0.01568 0.73336 0.0
C2525 C 0.20029 0.02571 0.71542 0.0
H2526 H 0.22199 0.98875 0.78206 0.0
C2527 C 0.1728 0.0156 0.73358 0.0
H2528 H 0.23909 0.02286 0.71998 0.0
C2529 C 0.16307 0.99618 0.7684 0.0
C2530 C 0.18039 0.98601 0.78658 0.0
H2531 H 0.15844 0.02256 0.72085 0.0
H2532 H 0.14175 0.98927 0.78111 0.0
C2533 C 0.20799 0.99598 0.76866 0.0
C2534 C 0.99881 0.2054 0.73352 0.0
C2535 C 0.9888 0.1778 0.71556 0.0
H2536 H 0.02573 0.23646 0.78222 0.0
C2537 C 0.99895 0.16045 0.73367 0.0
H2538 H 0.9916 0.21943 0.72017 0.0
C2539 C 0.01839 0.17015 0.76846 0.0
C2540 C 0.02854 0.19763 0.78666 0.0
H2541 H 0.99201 0.13913 0.72094 0.0
H2542 H 0.02534 0.15576 0.78112 0.0
C2543 C 0.01853 0.21524 0.7688 0.0
C2544 C 0.8749 0.54857 0.60192 0.0
C2545 C 0.84731 0.53094 0.6199 0.0
H2546 H 0.90596 0.55273 0.5532 0.0
C2547 C 0.82999 0.50342 0.60183 0.0
H2548 H 0.8889 0.56982 0.61523 0.0
C2549 C 0.83971 0.49368 0.56706 0.0
C2550 C 0.86718 0.51105 0.54882 0.0
H2551 H 0.80869 0.48902 0.61459 0.0
H2552 H 0.82535 0.47233 0.55443 0.0
C2553 C 0.88476 0.53869 0.56665 0.0
C2554 C 0.46572 0.32907 0.6021 0.0
C2555 C 0.48334 0.31907 0.62 0.0
H2556 H 0.46153 0.35596 0.55341 0.0
C2557 C 0.51081 0.3292 0.60179 0.0
H2558 H 0.44451 0.32187 0.61551 0.0
C2559 C 0.52051 0.34861 0.56697 0.0
C2560 C 0.50316 0.35875 0.54882 0.0
H2561 H 0.5252 0.32226 0.61449 0.0
H2562 H 0.54183 0.35554 0.55423 0.0
C2563 C 0.47556 0.34876 0.56678 0.0
C2564 C 0.66559 0.17485 0.56675 0.0
C2565 C 0.65545 0.14735 0.5486 0.0
H2566 H 0.692 0.20591 0.61422 0.0
C2567 C 0.66548 0.12976 0.56647 0.0
H2568 H 0.65863 0.18922 0.55407 0.0
C2569 C 0.68522 0.13964 0.60173 0.0
C2570 C 0.69523 0.16725 0.61964 0.0
H2571 H 0.65827 0.10854 0.55309 0.0
H2572 H 0.69244 0.12563 0.61509 0.0
C2573 C 0.68506 0.18458 0.60151 0.0
C2574 C 0.52069 0.17465 0.06679 0.0
C2575 C 0.50337 0.14713 0.04869 0.0
H2576 H 0.52531 0.20574 0.11416 0.0
C2577 C 0.47575 0.12954 0.06658 0.0
H2578 H 0.54202 0.18903 0.05411 0.0
C2579 C 0.46586 0.13942 0.1018 0.0
C2580 C 0.48344 0.16706 0.11965 0.0
H2581 H 0.46174 0.1083 0.05323 0.0
H2582 H 0.44463 0.12541 0.11518 0.0
C2583 C 0.51094 0.1844 0.10151 0.0
C2584 C 0.88485 0.34899 0.06657 0.0
C2585 C 0.86724 0.35899 0.04867 0.0
H2586 H 0.88902 0.32207 0.11524 0.0
C2587 C 0.83973 0.34881 0.06681 0.0
H2588 H 0.90608 0.35622 0.0532 0.0
C2589 C 0.83002 0.32936 0.10158 0.0
C2590 C 0.84738 0.31923 0.11975 0.0
H2591 H 0.82534 0.35574 0.05411 0.0
H2592 H 0.80868 0.3224 0.11427 0.0
C2593 C 0.87499 0.32926 0.10185 0.0
C2594 C 0.66547 0.49371 0.06701 0.0
C2595 C 0.65538 0.5111 0.04885 0.0
H2596 H 0.69179 0.48896 0.11451 0.0
C2597 C 0.66544 0.53872 0.06678 0.0
H2598 H 0.65849 0.47238 0.05429 0.0
C2599 C 0.68514 0.54853 0.10209 0.0
C2600 C 0.69509 0.53088 0.11999 0.0
H2601 H 0.65828 0.55277 0.05339 0.0
H2602 H 0.69238 0.56976 0.11548 0.0
C2603 C 0.68489 0.50338 0.10182 0.0
C2604 C 0.54165 0.8817 0.93516 0.0
C2605 C 0.51407 0.86411 0.95317 0.0
H2606 H 0.57267 0.8858 0.88642 0.0
C2607 C 0.49671 0.83658 0.93514 0.0
H2608 H 0.55567 0.90295 0.94845 0.0
C2609 C 0.5064 0.82681 0.90038 0.0
C2610 C 0.53386 0.84414 0.8821 0.0
H2611 H 0.47541 0.82221 0.94792 0.0
H2612 H 0.49201 0.80546 0.88777 0.0
C2613 C 0.55147 0.87179 0.89989 0.0
C2614 C 0.18734 0.68216 0.90024 0.0
C2615 C 0.17004 0.69242 0.88228 0.0
H2616 H 0.19195 0.65562 0.94748 0.0
C2617 C 0.14246 0.68245 0.90027 0.0
H2618 H 0.20865 0.68908 0.88747 0.0
C2619 C 0.13259 0.66266 0.93547 0.0
C2620 C 0.15015 0.65255 0.9532 0.0
H2621 H 0.12848 0.68974 0.88703 0.0
H2622 H 0.11139 0.65549 0.94894 0.0
C2623 C 0.17761 0.66265 0.93493 0.0
C2624 C 0.35182 0.47301 0.9354 0.0
C2625 C 0.36182 0.50062 0.95332 0.0
H2626 H 0.32485 0.4419 0.88679 0.0
C2627 C 0.35159 0.51792 0.93527 0.0
H2628 H 0.35909 0.45902 0.94871 0.0
C2629 C 0.33209 0.50816 0.90056 0.0
C2630 C 0.32196 0.48068 0.88238 0.0
H2631 H 0.35852 0.53924 0.94798 0.0
H2632 H 0.32509 0.52252 0.88794 0.0
C2633 C 0.33204 0.46312 0.90019 0.0
C2634 C 0.13271 0.47321 0.43544 0.0
C2635 C 0.15034 0.5008 0.45342 0.0
H2636 H 0.12856 0.44214 0.38676 0.0
C2637 C 0.17789 0.51809 0.43542 0.0
H2638 H 0.11144 0.45924 0.44871 0.0
C2639 C 0.18764 0.50835 0.40069 0.0
C2640 C 0.17026 0.48089 0.38245 0.0
H2641 H 0.19229 0.5394 0.44818 0.0
H2642 H 0.20901 0.5227 0.3881 0.0
C2643 C 0.1426 0.46333 0.40022 0.0
C2644 C 0.54136 0.66232 0.43535 0.0
C2645 C 0.51368 0.65222 0.45305 0.0
H2646 H 0.57259 0.6894 0.38696 0.0
C2647 C 0.49635 0.66236 0.43477 0.0
H2648 H 0.55536 0.65512 0.44883 0.0
C2649 C 0.50617 0.68189 0.40011 0.0
C2650 C 0.53374 0.69214 0.38218 0.0
H2651 H 0.47497 0.65535 0.4473 0.0
H2652 H 0.49181 0.68883 0.38733 0.0
C2653 C 0.55131 0.68212 0.40018 0.0
C2654 C 0.35194 0.88189 0.43528 0.0
C2655 C 0.3619 0.86427 0.45327 0.0
H2656 H 0.32507 0.88606 0.38654 0.0
C2657 C 0.3517 0.83675 0.43519 0.0
H2658 H 0.35919 0.90314 0.4486 0.0
C2659 C 0.33227 0.82702 0.40039 0.0
C2660 C 0.32218 0.84439 0.38215 0.0
H2661 H 0.3586 0.82234 0.44795 0.0
H2662 H 0.32529 0.80567 0.38775 0.0
C2663 C 0.33223 0.87203 0.39999 0.0
C2664 C 0.3184 0.1541 0.19373 0.0
C2665 C 0.31499 0.17071 0.16098 0.0
H2666 H 0.34687 0.1428 0.22594 0.0
C2667 C 0.33894 0.18909 0.13491 0.0
H2668 H 0.30044 0.13962 0.21429 0.0
C2669 C 0.36559 0.19085 0.14146 0.0
C2670 C 0.369 0.17424 0.17422 0.0
H2671 H 0.33712 0.20215 0.10926 0.0
H2672 H 0.38355 0.20534 0.1209 0.0
C2673 C 0.34506 0.15586 0.20029 0.0
C2674 C 0.82359 0.17761 0.1416 0.0
C2675 C 0.84021 0.19764 0.17433 0.0
H2676 H 0.8123 0.13784 0.10938 0.0
C2677 C 0.85865 0.19211 0.20033 0.0
H2678 H 0.80907 0.18105 0.12109 0.0
C2679 C 0.86043 0.16723 0.19373 0.0
C2680 C 0.84381 0.1472 0.161 0.0
H2681 H 0.87172 0.207 0.22595 0.0
H2682 H 0.87495 0.16379 0.21424 0.0
C2683 C 0.82537 0.15273 0.135 0.0
C2684 C 0.82228 0.66919 0.20053 0.0
C2685 C 0.81674 0.64524 0.1745 0.0
H2686 H 0.85059 0.71384 0.21441 0.0
C2687 C 0.83673 0.64867 0.14167 0.0
H2688 H 0.80744 0.66737 0.22623 0.0
C2689 C 0.86158 0.67536 0.13501 0.0
C2690 C 0.86712 0.69931 0.16105 0.0
H2691 H 0.83327 0.63071 0.12113 0.0
H2692 H 0.87643 0.67719 0.10932 0.0
C2693 C 0.84713 0.69588 0.19387 0.0
C2694 C 0.19394 0.36302 0.36065 0.0
C2695 C 0.17735 0.36645 0.32788 0.0
H2696 H 0.20517 0.33451 0.39291 0.0
C2697 C 0.15892 0.3425 0.30185 0.0
H2698 H 0.20845 0.38098 0.38118 0.0
C2699 C 0.15711 0.31582 0.30846 0.0
C2700 C 0.1737 0.31239 0.34122 0.0
H2701 H 0.14588 0.34432 0.2762 0.0
H2702 H 0.14259 0.29786 0.28793 0.0
C2703 C 0.19212 0.33634 0.36725 0.0
C2704 C 0.67239 0.8193 0.30198 0.0
C2705 C 0.64844 0.81379 0.328 0.0
H2706 H 0.71703 0.84758 0.28806 0.0
C2707 C 0.65189 0.83382 0.36078 0.0
H2708 H 0.67055 0.80442 0.27633 0.0
C2709 C 0.67857 0.85867 0.36738 0.0
C2710 C 0.70252 0.86418 0.34135 0.0
H2711 H 0.63393 0.83038 0.3813 0.0
H2712 H 0.68041 0.87355 0.39304 0.0
C2713 C 0.69908 0.84415 0.30859 0.0
C2714 C 0.18063 0.82067 0.36012 0.0
C2715 C 0.20066 0.83726 0.32737 0.0
H2716 H 0.14089 0.80943 0.39236 0.0
C2717 C 0.19514 0.85568 0.30132 0.0
H2718 H 0.18408 0.80616 0.38066 0.0
C2719 C 0.17027 0.85749 0.30791 0.0
C2720 C 0.15025 0.84091 0.34068 0.0
H2721 H 0.21002 0.86873 0.27568 0.0
H2722 H 0.16683 0.87201 0.28738 0.0
C2723 C 0.15577 0.82248 0.36671 0.0
C2724 C 0.69885 0.85726 0.80797 0.0
C2725 C 0.70231 0.84069 0.84074 0.0
H2726 H 0.6703 0.86842 0.77569 0.0
C2727 C 0.67836 0.82221 0.86672 0.0
H2728 H 0.71681 0.87181 0.78747 0.0
C2729 C 0.65165 0.82034 0.86009 0.0
C2730 C 0.6482 0.83691 0.82733 0.0
H2731 H 0.6802 0.80918 0.89237 0.0
H2732 H 0.6337 0.80579 0.88059 0.0
C2733 C 0.67215 0.85538 0.80133 0.0
C2734 C 0.15861 0.81955 0.80189 0.0
C2735 C 0.17708 0.81409 0.82791 0.0
H2736 H 0.14219 0.84778 0.78795 0.0
C2737 C 0.19365 0.83414 0.86066 0.0
H2738 H 0.14557 0.80465 0.77626 0.0
C2739 C 0.19178 0.85897 0.86724 0.0
C2740 C 0.17331 0.86443 0.84122 0.0
H2741 H 0.2082 0.83074 0.88118 0.0
H2742 H 0.20482 0.87387 0.89288 0.0
C2743 C 0.15673 0.84438 0.80848 0.0
C2744 C 0.19492 0.34223 0.80186 0.0
C2745 C 0.20041 0.36616 0.8279 0.0
H2746 H 0.16665 0.29758 0.78795 0.0
C2747 C 0.1804 0.3627 0.8607 0.0
H2748 H 0.20979 0.34408 0.77619 0.0
C2749 C 0.15557 0.336 0.86733 0.0
C2750 C 0.15007 0.31207 0.84129 0.0
H2751 H 0.18383 0.38065 0.88124 0.0
H2752 H 0.1407 0.33415 0.893 0.0
C2753 C 0.17008 0.31553 0.80849 0.0
C2754 C 0.86075 0.69618 0.69373 0.0
C2755 C 0.84421 0.69965 0.66093 0.0
H2756 H 0.87187 0.66761 0.72605 0.0
C2757 C 0.82575 0.67571 0.63491 0.0
H2758 H 0.87529 0.71413 0.71425 0.0
C2759 C 0.82386 0.649 0.64155 0.0
C2760 C 0.8404 0.64553 0.67436 0.0
H2761 H 0.81274 0.67757 0.60923 0.0
H2762 H 0.80932 0.63105 0.62103 0.0
C2763 C 0.85886 0.66947 0.70037 0.0
C2764 C 0.33881 0.15272 0.63513 0.0
C2765 C 0.31484 0.14722 0.66108 0.0
H2766 H 0.38348 0.18097 0.62134 0.0
C2767 C 0.31826 0.16724 0.69385 0.0
H2768 H 0.33699 0.13785 0.60948 0.0
C2769 C 0.34496 0.19207 0.70054 0.0
C2770 C 0.36893 0.19756 0.67458 0.0
H2771 H 0.30029 0.16381 0.71432 0.0
H2772 H 0.34678 0.20694 0.72619 0.0
C2773 C 0.3655 0.17755 0.64182 0.0
C2774 C 0.8472 0.15411 0.69361 0.0
C2775 C 0.86725 0.17073 0.6609 0.0
H2776 H 0.80743 0.14285 0.7258 0.0
C2777 C 0.86175 0.18919 0.6349 0.0
H2778 H 0.85062 0.13957 0.71411 0.0
C2779 C 0.83689 0.191 0.64148 0.0
C2780 C 0.81684 0.17438 0.67419 0.0
H2781 H 0.87665 0.20226 0.60929 0.0
H2782 H 0.83347 0.20554 0.62097 0.0
C2783 C 0.82233 0.15592 0.70019 0.0
C2784 C 0.01184 0.48949 0.53366 0.0
C2785 C 0.03579 0.50795 0.50765 0.0
H2786 H 0.96719 0.47309 0.54753 0.0
C2787 C 0.03234 0.5245 0.47486 0.0
H2788 H 0.01368 0.47647 0.55934 0.0
C2789 C 1.00564 0.52263 0.4682 0.0
C2790 C 0.98169 0.50418 0.49421 0.0
H2791 H 0.0503 0.53904 0.45434 0.0
H2792 H 1.00379 0.53565 0.44253 0.0
C2793 C 0.98514 0.48762 0.52701 0.0
C2794 C 0.48985 0.5106 0.47492 0.0
C2795 C 0.50641 0.53062 0.50771 0.0
H2796 H 0.47866 0.47089 0.44263 0.0
C2797 C 0.52484 0.5251 0.53375 0.0
H2798 H 0.47533 0.51404 0.45438 0.0
C2799 C 0.52668 0.50026 0.52713 0.0
C2800 C 0.51012 0.48025 0.49433 0.0
H2801 H 0.53787 0.53997 0.55942 0.0
H2802 H 0.5412 0.49682 0.54767 0.0
C2803 C 0.49169 0.48576 0.4683 0.0
C2804 C 0.51385 0.02942 0.52696 0.0
C2805 C 0.53386 0.03286 0.49417 0.0
H2806 H 0.47416 1.00089 0.5593 0.0
C2807 C 0.52836 0.0089 0.46818 0.0
H2808 H 0.51728 0.04739 0.54746 0.0
C2809 C 0.50353 0.9822 0.47485 0.0
C2810 C 0.48352 0.97876 0.50765 0.0
H2811 H 0.54322 0.01073 0.44251 0.0
H2812 H 0.5001 0.96423 0.45435 0.0
C2813 C 0.48902 1.00272 0.53363 0.0
C2814 C 0.52722 0.02931 0.0269 0.0
C2815 C 0.5106 0.03271 0.99416 0.0
H2816 H 0.5385 1.00083 0.05914 0.0
C2817 C 0.49217 0.00874 0.96816 0.0
H2818 H 0.54175 0.04728 0.0474 0.0
C2819 C 0.49037 0.98207 0.97478 0.0
C2820 C 0.50699 0.97867 0.00752 0.0
H2821 H 0.4791 0.01055 0.94254 0.0
H2822 H 0.47585 0.9641 0.95428 0.0
C2823 C 0.52543 1.00264 0.03351 0.0
C2824 C 0.98512 0.5006 0.02712 0.0
C2825 C 0.98169 0.48061 0.99429 0.0
H2826 H 0.01363 0.5403 0.05948 0.0
C2827 C 1.00564 0.48615 0.96827 0.0
H2828 H 0.96715 0.49714 0.04765 0.0
C2829 C 0.03233 0.511 0.97494 0.0
C2830 C 0.03576 0.53099 0.00776 0.0
H2831 H 1.00382 0.4713 0.94258 0.0
H2832 H 0.05029 0.51445 0.95441 0.0
C2833 C 0.0118 0.52545 0.03378 0.0
C2834 C 0.51388 0.48753 0.02699 0.0
C2835 C 0.5339 0.50413 0.99424 0.0
H2836 H 0.47414 0.4763 0.05925 0.0
C2837 C 0.52839 0.52257 0.96823 0.0
H2838 H 0.51731 0.473 0.0475 0.0
C2839 C 0.50353 0.52439 0.97486 0.0
C2840 C 0.4835 0.50779 0.00761 0.0
H2841 H 0.54327 0.53563 0.94259 0.0
H2842 H 0.50009 0.53892 0.95435 0.0
C2843 C 0.48902 0.48935 0.03361 0.0
loop_
_geom_bond_atom_site_label_1
_geom_bond_atom_site_label_2
_geom_bond_distance
_geom_bond_site_symmetry_2
_ccdc_geom_bond_type
Co0 O2 2.143 . S
Co0 O8 2.074 . S
Co0 O11 2.093 . S
Co0 O24 2.097 . S
Co0 N41 2.151 . S
Co0 N49 2.214 . S
Co1 O2 2.160 . S
Co1 O7 2.058 . S
Co1 O17 2.057 . S
Co1 O32 2.037 . S
Co1 N36 2.145 . S
Co1 N57 2.257 . S
O2 Co0 2.143 . S
O2 Co1 2.160 . S
C3 O4 1.278 . S
C3 O11 1.224 . S
O4 C3 1.278 . S
C5 O6 1.245 . S
C5 O17 1.232 . S
O6 C5 1.245 . S
O7 Co1 2.058 . S
O7 C33 1.269 . S
O8 Co0 2.074 . S
O8 C33 1.257 . S
H9 C34 0.930 . S
H10 C40 0.930 . S
O11 Co0 2.093 . S
O11 C3 1.224 . S
H12 C44 0.929 . S
H13 C46 0.930 . S
H14 C47 0.930 . S
H15 C45 0.929 . S
H16 C48 0.928 . S
O17 Co1 2.057 . S
O17 C5 1.232 . S
H18 C37 0.929 . S
H19 C38 0.929 . S
H20 C50 0.931 . S
H21 C42 0.929 . S
H22 C51 0.930 . S
H23 C43 0.931 . S
O24 Co0 2.097 . S
O24 C52 1.214 . S
H25 C53 0.929 . S
H26 C54 0.928 1_554 S
H27 C55 0.930 . S
H28 C56 0.929 . S
H29 C58 0.930 . S
H30 C35 0.930 . S
H31 C39 0.930 . S
O32 Co1 2.037 . S
O32 C52 1.234 . S
C33 O7 1.269 . S
C33 O8 1.257 . S
C34 H9 0.930 . S
C34 C37 1.388 . S
C34 C39 1.418 . S
C35 H30 0.930 . S
C35 C38 1.404 . S
C35 C39 1.353 . S
N36 Co1 2.145 . S
N36 C37 1.397 . S
N36 C38 1.334 . S
C37 H18 0.929 . S
C37 C34 1.388 . S
C37 N36 1.397 . S
C38 H19 0.929 . S
C38 C35 1.404 . S
C38 N36 1.334 . S
C39 H31 0.930 . S
C39 C34 1.418 . S
C39 C35 1.353 . S
C40 H10 0.930 . S
C40 N41 1.330 . S
C40 C42 1.446 . S
N41 Co0 2.151 . S
N41 C40 1.330 . S
N41 C45 1.418 . S
C42 H21 0.929 . S
C42 C40 1.446 . S
C42 C43 1.332 . S
C43 H23 0.931 . S
C43 C42 1.332 . S
C43 C44 1.267 . S
C44 H12 0.929 . S
C44 C43 1.267 . S
C44 C45 1.251 . S
C45 H15 0.929 . S
C45 N41 1.418 . S
C45 C44 1.251 . S
C46 H13 0.930 . S
C46 C48 1.406 . S
C46 C51 1.261 . S
C47 H14 0.930 . S
C47 N49 1.325 . S
C47 C50 1.357 . S
C48 H16 0.928 . S
C48 C46 1.406 . S
C48 N49 1.261 . S
N49 Co0 2.214 . S
N49 C47 1.325 . S
N49 C48 1.261 . S
C50 H20 0.931 . S
C50 C47 1.357 . S
C50 C51 1.312 . S
C51 H22 0.930 . S
C51 C46 1.261 . S
C51 C50 1.312 . S
C52 O24 1.214 . S
C52 O32 1.234 . S
C53 H25 0.929 . S
C53 C56 1.391 . S
C53 C58 1.391 1_556 S
C54 H26 0.928 1_556 S
C54 C55 1.393 . S
C54 N57 1.389 1_556 S
C55 H27 0.930 . S
C55 C54 1.393 . S
C55 C56 1.392 . S
C56 H28 0.929 . S
C56 C53 1.391 . S
C56 C55 1.392 . S
N57 Co1 2.257 . S
N57 C54 1.389 1_554 S
N57 C58 1.388 . S
C58 H29 0.930 . S
C58 C53 1.391 1_554 S
C58 N57 1.388 . S
Co59 O61 2.143 . S
Co59 O67 2.074 . S
Co59 O70 2.093 . S
Co59 O83 2.097 . S
Co59 N100 2.151 . S
Co59 N108 2.214 . S
Co60 O61 2.160 . S
Co60 O66 2.058 . S
Co60 O76 2.057 . S
Co60 O91 2.037 . S
Co60 N95 2.145 . S
Co60 N116 2.257 . S
O61 Co59 2.143 . S
O61 Co60 2.160 . S
C62 O63 1.278 . S
C62 O70 1.224 . S
O63 C62 1.278 . S
C64 O65 1.245 . S
C64 O76 1.232 . S
O65 C64 1.245 . S
O66 Co60 2.058 . S
O66 C92 1.269 . S
O67 Co59 2.074 . S
O67 C92 1.257 . S
H68 C93 0.930 . S
H69 C99 0.930 . S
O70 Co59 2.093 . S
O70 C62 1.224 . S
H71 C103 0.929 . S
H72 C105 0.930 . S
H73 C106 0.930 . S
H74 C104 0.929 . S
H75 C107 0.928 . S
O76 Co60 2.057 . S
O76 C64 1.232 . S
H77 C96 0.929 . S
H78 C97 0.929 . S
H79 C109 0.931 . S
H80 C101 0.929 . S
H81 C110 0.930 1_565 S
H82 C102 0.931 . S
O83 Co59 2.097 . S
O83 C111 1.214 . S
H84 C112 0.929 . S
H85 C113 0.928 1_554 S
H86 C114 0.930 . S
H87 C115 0.929 . S
H88 C117 0.930 . S
H89 C94 0.930 . S
H90 C98 0.930 . S
O91 Co60 2.037 . S
O91 C111 1.234 . S
C92 O66 1.269 . S
C92 O67 1.257 . S
C93 H68 0.930 . S
C93 C96 1.388 1_565 S
C93 C98 1.418 1_565 S
C94 H89 0.930 . S
C94 C97 1.404 . S
C94 C98 1.353 . S
N95 Co60 2.145 . S
N95 C96 1.397 . S
N95 C97 1.334 . S
C96 H77 0.929 . S
C96 C93 1.388 1_545 S
C96 N95 1.397 . S
C97 H78 0.929 . S
C97 C94 1.404 . S
C97 N95 1.334 . S
C98 H90 0.930 . S
C98 C93 1.418 1_545 S
C98 C94 1.353 . S
C99 H69 0.930 . S
C99 N100 1.330 . S
C99 C101 1.446 . S
N100 Co59 2.151 . S
N100 C99 1.330 . S
N100 C104 1.418 . S
C101 H80 0.929 . S
C101 C99 1.446 . S
C101 C102 1.332 . S
C102 H82 0.931 . S
C102 C101 1.332 . S
C102 C103 1.267 . S
C103 H71 0.929 . S
C103 C102 1.267 . S
C103 C104 1.251 . S
C104 H74 0.929 . S
C104 N100 1.418 . S
C104 C103 1.251 . S
C105 H72 0.930 . S
C105 C107 1.406 . S
C105 C110 1.261 . S
C106 H73 0.930 . S
C106 N108 1.325 . S
C106 C109 1.357 1_545 S
C107 H75 0.928 . S
C107 C105 1.406 . S
C107 N108 1.261 . S
N108 Co59 2.214 . S
N108 C106 1.325 . S
N108 C107 1.261 . S
C109 H79 0.931 . S
C109 C106 1.357 1_565 S
C109 C110 1.312 1_565 S
C110 H81 0.930 1_545 S
C110 C105 1.261 . S
C110 C109 1.312 1_545 S
C111 O83 1.214 . S
C111 O91 1.234 . S
C112 H84 0.929 . S
C112 C115 1.391 . S
C112 C117 1.391 1_556 S
C113 H85 0.928 1_556 S
C113 C114 1.393 . S
C113 N116 1.389 1_556 S
C114 H86 0.930 . S
C114 C113 1.393 . S
C114 C115 1.392 . S
C115 H87 0.929 . S
C115 C112 1.391 . S
C115 C114 1.392 . S
N116 Co60 2.257 . S
N116 C113 1.389 1_554 S
N116 C117 1.388 . S
C117 H88 0.930 . S
C117 C112 1.391 1_554 S
C117 N116 1.388 . S
Co118 O120 2.143 . S
Co118 O126 2.074 . S
Co118 O129 2.093 . S
Co118 O142 2.097 . S
Co118 N159 2.151 . S
Co118 N167 2.214 . S
Co119 O120 2.160 . S
Co119 O125 2.058 . S
Co119 O135 2.057 . S
Co119 O150 2.037 . S
Co119 N154 2.145 . S
Co119 N175 2.257 . S
O120 Co118 2.143 . S
O120 Co119 2.160 . S
C121 O122 1.278 . S
C121 O129 1.224 . S
O122 C121 1.278 . S
C123 O124 1.245 . S
C123 O135 1.232 . S
O124 C123 1.245 . S
O125 Co119 2.058 . S
O125 C151 1.269 . S
O126 Co118 2.074 . S
O126 C151 1.257 . S
H127 C152 0.930 . S
H128 C158 0.930 . S
O129 Co118 2.093 . S
O129 C121 1.224 . S
H130 C162 0.929 . S
H131 C164 0.930 . S
H132 C165 0.930 . S
H133 C163 0.929 . S
H134 C166 0.928 . S
O135 Co119 2.057 . S
O135 C123 1.232 . S
H136 C155 0.929 . S
H137 C156 0.929 . S
H138 C168 0.931 . S
H139 C160 0.929 . S
H140 C169 0.930 1_455 S
H141 C161 0.931 . S
O142 Co118 2.097 . S
O142 C170 1.214 . S
H143 C171 0.929 . S
H144 C172 0.928 1_554 S
H145 C173 0.930 . S
H146 C174 0.929 . S
H147 C176 0.930 . S
H148 C153 0.930 . S
H149 C157 0.930 . S
O150 Co119 2.037 . S
O150 C170 1.234 . S
C151 O125 1.269 . S
C151 O126 1.257 . S
C152 H127 0.930 . S
C152 C155 1.388 1_455 S
C152 C157 1.418 1_455 S
C153 H148 0.930 . S
C153 C156 1.404 . S
C153 C157 1.353 . S
N154 Co119 2.145 . S
N154 C155 1.397 . S
N154 C156 1.334 . S
C155 H136 0.929 . S
C155 C152 1.388 1_655 S
C155 N154 1.397 . S
C156 H137 0.929 . S
C156 C153 1.404 . S
C156 N154 1.334 . S
C157 H149 0.930 . S
C157 C152 1.418 1_655 S
C157 C153 1.353 . S
C158 H128 0.930 . S
C158 N159 1.330 . S
C158 C160 1.446 . S
N159 Co118 2.151 . S
N159 C158 1.330 . S
N159 C163 1.418 . S
C160 H139 0.929 . S
C160 C158 1.446 . S
C160 C161 1.332 . S
C161 H141 0.931 . S
C161 C160 1.332 . S
C161 C162 1.267 . S
C162 H130 0.929 . S
C162 C161 1.267 . S
C162 C163 1.251 . S
C163 H133 0.929 . S
C163 N159 1.418 . S
C163 C162 1.251 . S
C164 H131 0.930 . S
C164 C166 1.406 . S
C164 C169 1.261 . S
C165 H132 0.930 . S
C165 N167 1.325 . S
C165 C168 1.357 1_655 S
C166 H134 0.928 . S
C166 C164 1.406 . S
C166 N167 1.261 . S
N167 Co118 2.214 . S
N167 C165 1.325 . S
N167 C166 1.261 . S
C168 H138 0.931 . S
C168 C165 1.357 1_455 S
C168 C169 1.312 1_455 S
C169 H140 0.930 1_655 S
C169 C164 1.261 . S
C169 C168 1.312 1_655 S
C170 O142 1.214 . S
C170 O150 1.234 . S
C171 H143 0.929 . S
C171 C174 1.391 . S
C171 C176 1.391 1_556 S
C172 H144 0.928 1_556 S
C172 C173 1.393 . S
C172 N175 1.389 1_556 S
C173 H145 0.930 . S
C173 C172 1.393 . S
C173 C174 1.392 . S
C174 H146 0.929 . S
C174 C171 1.391 . S
C174 C173 1.392 . S
N175 Co119 2.257 . S
N175 C172 1.389 1_554 S
N175 C176 1.388 . S
C176 H147 0.930 . S
C176 C171 1.391 1_554 S
C176 N175 1.388 . S
Co177 O179 2.143 . S
Co177 O185 2.074 . S
Co177 O188 2.093 . S
Co177 O201 2.097 . S
Co177 N218 2.151 . S
Co177 N226 2.214 . S
Co178 O179 2.160 . S
Co178 O184 2.058 . S
Co178 O194 2.057 . S
Co178 O209 2.037 . S
Co178 N213 2.145 . S
Co178 N234 2.257 . S
O179 Co177 2.143 . S
O179 Co178 2.160 . S
C180 O181 1.278 . S
C180 O188 1.224 . S
O181 C180 1.278 . S
C182 O183 1.245 . S
C182 O194 1.232 . S
O183 C182 1.245 . S
O184 Co178 2.058 . S
O184 C210 1.269 . S
O185 Co177 2.074 . S
O185 C210 1.257 . S
H186 C211 0.930 . S
H187 C217 0.930 . S
O188 Co177 2.093 . S
O188 C180 1.224 . S
H189 C221 0.929 . S
H190 C223 0.930 . S
H191 C224 0.930 . S
H192 C222 0.929 . S
H193 C225 0.928 . S
O194 Co178 2.057 . S
O194 C182 1.232 . S
H195 C214 0.929 . S
H196 C215 0.929 . S
H197 C227 0.931 . S
H198 C219 0.929 . S
H199 C228 0.930 . S
H200 C220 0.931 . S
O201 Co177 2.097 . S
O201 C229 1.214 . S
H202 C230 0.929 . S
H203 C231 0.929 . S
H204 C232 0.930 . S
H205 C233 0.929 . S
H206 C235 0.930 . S
H207 C212 0.930 . S
H208 C216 0.930 . S
O209 Co178 2.037 . S
O209 C229 1.234 . S
C210 O184 1.269 . S
C210 O185 1.257 . S
C211 H186 0.930 . S
C211 C214 1.388 . S
C211 C216 1.418 . S
C212 H207 0.930 . S
C212 C215 1.404 . S
C212 C216 1.353 . S
N213 Co178 2.145 . S
N213 C214 1.397 . S
N213 C215 1.334 . S
C214 H195 0.929 . S
C214 C211 1.388 . S
C214 N213 1.397 . S
C215 H196 0.929 . S
C215 C212 1.404 . S
C215 N213 1.334 . S
C216 H208 0.930 . S
C216 C211 1.418 . S
C216 C212 1.353 . S
C217 H187 0.930 . S
C217 N218 1.330 . S
C217 C219 1.446 . S
N218 Co177 2.151 . S
N218 C217 1.330 . S
N218 C222 1.418 . S
C219 H198 0.929 . S
C219 C217 1.446 . S
C219 C220 1.332 . S
C220 H200 0.931 . S
C220 C219 1.332 . S
C220 C221 1.267 . S
C221 H189 0.929 . S
C221 C220 1.267 . S
C221 C222 1.251 . S
C222 H192 0.929 . S
C222 N218 1.418 . S
C222 C221 1.251 . S
C223 H190 0.930 . S
C223 C225 1.406 . S
C223 C228 1.261 . S
C224 H191 0.930 . S
C224 N226 1.325 . S
C224 C227 1.357 . S
C225 H193 0.928 . S
C225 C223 1.406 . S
C225 N226 1.261 . S
N226 Co177 2.214 . S
N226 C224 1.325 . S
N226 C225 1.261 . S
C227 H197 0.931 . S
C227 C224 1.357 . S
C227 C228 1.312 . S
C228 H199 0.930 . S
C228 C223 1.261 . S
C228 C227 1.312 . S
C229 O201 1.214 . S
C229 O209 1.234 . S
C230 H202 0.929 . S
C230 C233 1.391 . S
C230 C235 1.391 . S
C231 H203 0.929 . S
C231 C232 1.390 . S
C231 N234 1.391 . S
C232 H204 0.930 . S
C232 C231 1.390 . S
C232 C233 1.392 . S
C233 H205 0.929 . S
C233 C230 1.391 . S
C233 C232 1.392 . S
N234 Co178 2.257 . S
N234 C231 1.391 . S
N234 C235 1.388 . S
C235 H206 0.930 . S
C235 C230 1.391 . S
C235 N234 1.388 . S
Co236 O238 2.143 . S
Co236 O244 2.074 . S
Co236 O247 2.093 . S
Co236 O260 2.097 . S
Co236 N277 2.151 . S
Co236 N285 2.214 . S
Co237 O238 2.160 . S
Co237 O243 2.058 . S
Co237 O253 2.057 . S
Co237 O268 2.037 . S
Co237 N272 2.145 . S
Co237 N293 2.257 . S
O238 Co236 2.143 . S
O238 Co237 2.160 . S
C239 O240 1.278 . S
C239 O247 1.224 . S
O240 C239 1.278 . S
C241 O242 1.245 . S
C241 O253 1.232 . S
O242 C241 1.245 . S
O243 Co237 2.058 . S
O243 C269 1.269 . S
O244 Co236 2.074 . S
O244 C269 1.257 . S
H245 C270 0.930 . S
H246 C276 0.930 . S
O247 Co236 2.093 . S
O247 C239 1.224 . S
H248 C280 0.929 . S
H249 C282 0.930 . S
H250 C283 0.930 . S
H251 C281 0.929 . S
H252 C284 0.928 . S
O253 Co237 2.057 . S
O253 C241 1.232 . S
H254 C273 0.929 . S
H255 C274 0.929 . S
H256 C286 0.931 . S
H257 C278 0.929 . S
H258 C287 0.930 1_545 S
H259 C279 0.931 . S
O260 Co236 2.097 . S
O260 C288 1.214 . S
H261 C289 0.929 . S
H262 C290 0.929 . S
H263 C291 0.930 . S
H264 C292 0.929 . S
H265 C294 0.930 . S
H266 C271 0.930 . S
H267 C275 0.930 . S
O268 Co237 2.037 . S
O268 C288 1.234 . S
C269 O243 1.269 . S
C269 O244 1.257 . S
C270 H245 0.930 . S
C270 C273 1.388 1_545 S
C270 C275 1.418 1_545 S
C271 H266 0.930 . S
C271 C274 1.404 . S
C271 C275 1.353 . S
N272 Co237 2.145 . S
N272 C273 1.397 . S
N272 C274 1.334 . S
C273 H254 0.929 . S
C273 C270 1.388 1_565 S
C273 N272 1.397 . S
C274 H255 0.929 . S
C274 C271 1.404 . S
C274 N272 1.334 . S
C275 H267 0.930 . S
C275 C270 1.418 1_565 S
C275 C271 1.353 . S
C276 H246 0.930 . S
C276 N277 1.330 . S
C276 C278 1.446 . S
N277 Co236 2.151 . S
N277 C276 1.330 . S
N277 C281 1.418 . S
C278 H257 0.929 . S
C278 C276 1.446 . S
C278 C279 1.332 . S
C279 H259 0.931 . S
C279 C278 1.332 . S
C279 C280 1.267 . S
C280 H248 0.929 . S
C280 C279 1.267 . S
C280 C281 1.251 . S
C281 H251 0.929 . S
C281 N277 1.418 . S
C281 C280 1.251 . S
C282 H249 0.930 . S
C282 C284 1.406 . S
C282 C287 1.261 . S
C283 H250 0.930 . S
C283 N285 1.325 . S
C283 C286 1.357 1_565 S
C284 H252 0.928 . S
C284 C282 1.406 . S
C284 N285 1.261 . S
N285 Co236 2.214 . S
N285 C283 1.325 . S
N285 C284 1.261 . S
C286 H256 0.931 . S
C286 C283 1.357 1_545 S
C286 C287 1.312 1_545 S
C287 H258 0.930 1_565 S
C287 C282 1.261 . S
C287 C286 1.312 1_565 S
C288 O260 1.214 . S
C288 O268 1.234 . S
C289 H261 0.929 . S
C289 C292 1.391 . S
C289 C294 1.391 . S
C290 H262 0.929 . S
C290 C291 1.390 . S
C290 N293 1.391 . S
C291 H263 0.930 . S
C291 C290 1.390 . S
C291 C292 1.392 . S
C292 H264 0.929 . S
C292 C289 1.391 . S
C292 C291 1.392 . S
N293 Co237 2.257 . S
N293 C290 1.391 . S
N293 C294 1.388 . S
C294 H265 0.930 . S
C294 C289 1.391 . S
C294 N293 1.388 . S
Co295 O297 2.143 . S
Co295 O303 2.074 . S
Co295 O306 2.093 . S
Co295 O319 2.097 . S
Co295 N336 2.151 . S
Co295 N344 2.214 . S
Co296 O297 2.160 . S
Co296 O302 2.058 . S
Co296 O312 2.057 . S
Co296 O327 2.037 . S
Co296 N331 2.145 . S
Co296 N352 2.257 . S
O297 Co295 2.143 . S
O297 Co296 2.160 . S
C298 O299 1.278 . S
C298 O306 1.224 . S
O299 C298 1.278 . S
C300 O301 1.245 . S
C300 O312 1.232 . S
O301 C300 1.245 . S
O302 Co296 2.058 . S
O302 C328 1.269 . S
O303 Co295 2.074 . S
O303 C328 1.257 . S
H304 C329 0.930 . S
H305 C335 0.930 . S
O306 Co295 2.093 . S
O306 C298 1.224 . S
H307 C339 0.929 . S
H308 C341 0.930 . S
H309 C342 0.930 . S
H310 C340 0.929 . S
H311 C343 0.928 . S
O312 Co296 2.057 . S
O312 C300 1.232 . S
H313 C332 0.929 . S
H314 C333 0.929 . S
H315 C345 0.931 . S
H316 C337 0.929 . S
H317 C346 0.930 1_655 S
H318 C338 0.931 . S
O319 Co295 2.097 . S
O319 C347 1.214 . S
H320 C348 0.929 . S
H321 C349 0.929 . S
H322 C350 0.930 . S
H323 C351 0.929 . S
H324 C353 0.930 . S
H325 C330 0.930 . S
H326 C334 0.930 . S
O327 Co296 2.037 . S
O327 C347 1.234 . S
C328 O302 1.269 . S
C328 O303 1.257 . S
C329 H304 0.930 . S
C329 C332 1.388 1_655 S
C329 C334 1.418 1_655 S
C330 H325 0.930 . S
C330 C333 1.404 . S
C330 C334 1.353 . S
N331 Co296 2.145 . S
N331 C332 1.397 . S
N331 C333 1.334 . S
C332 H313 0.929 . S
C332 C329 1.388 1_455 S
C332 N331 1.397 . S
C333 H314 0.929 . S
C333 C330 1.404 . S
C333 N331 1.334 . S
C334 H326 0.930 . S
C334 C329 1.418 1_455 S
C334 C330 1.353 . S
C335 H305 0.930 . S
C335 N336 1.330 . S
C335 C337 1.446 . S
N336 Co295 2.151 . S
N336 C335 1.330 . S
N336 C340 1.418 . S
C337 H316 0.929 . S
C337 C335 1.446 . S
C337 C338 1.332 . S
C338 H318 0.931 . S
C338 C337 1.332 . S
C338 C339 1.267 . S
C339 H307 0.929 . S
C339 C338 1.267 . S
C339 C340 1.251 . S
C340 H310 0.929 . S
C340 N336 1.418 . S
C340 C339 1.251 . S
C341 H308 0.930 . S
C341 C343 1.406 . S
C341 C346 1.261 . S
C342 H309 0.930 . S
C342 N344 1.325 . S
C342 C345 1.357 1_455 S
C343 H311 0.928 . S
C343 C341 1.406 . S
C343 N344 1.261 . S
N344 Co295 2.214 . S
N344 C342 1.325 . S
N344 C343 1.261 . S
C345 H315 0.931 . S
C345 C342 1.357 1_655 S
C345 C346 1.312 1_655 S
C346 H317 0.930 1_455 S
C346 C341 1.261 . S
C346 C345 1.312 1_455 S
C347 O319 1.214 . S
C347 O327 1.234 . S
C348 H320 0.929 . S
C348 C351 1.391 . S
C348 C353 1.391 . S
C349 H321 0.929 . S
C349 C350 1.390 . S
C349 N352 1.391 . S
C350 H322 0.930 . S
C350 C349 1.390 . S
C350 C351 1.392 . S
C351 H323 0.929 . S
C351 C348 1.391 . S
C351 C350 1.392 . S
N352 Co296 2.257 . S
N352 C349 1.391 . S
N352 C353 1.388 . S
C353 H324 0.930 . S
C353 C348 1.391 . S
C353 N352 1.388 . S
Co354 O356 2.143 . S
Co354 O362 2.074 . S
Co354 O365 2.093 . S
Co354 O378 2.097 . S
Co354 N395 2.151 . S
Co354 N403 2.214 . S
Co355 O356 2.160 . S
Co355 O361 2.058 . S
Co355 O371 2.057 . S
Co355 O386 2.037 . S
Co355 N390 2.145 . S
Co355 N411 2.257 . S
O356 Co354 2.143 . S
O356 Co355 2.160 . S
C357 O358 1.278 . S
C357 O365 1.224 . S
O358 C357 1.278 . S
C359 O360 1.245 . S
C359 O371 1.232 . S
O360 C359 1.245 . S
O361 Co355 2.058 . S
O361 C387 1.269 . S
O362 Co354 2.074 . S
O362 C387 1.257 . S
H363 C388 0.930 . S
H364 C394 0.930 . S
O365 Co354 2.093 . S
O365 C357 1.224 . S
H366 C398 0.929 . S
H367 C400 0.930 . S
H368 C401 0.930 . S
H369 C399 0.929 . S
H370 C402 0.928 . S
O371 Co355 2.057 . S
O371 C359 1.232 . S
H372 C391 0.929 . S
H373 C392 0.929 . S
H374 C404 0.931 . S
H375 C396 0.929 . S
H376 C405 0.930 . S
H377 C397 0.931 . S
O378 Co354 2.097 . S
O378 C406 1.214 . S
H379 C407 0.929 . S
H380 C408 0.928 1_556 S
H381 C409 0.930 . S
H382 C410 0.929 . S
H383 C412 0.930 . S
H384 C389 0.930 . S
H385 C393 0.930 . S
O386 Co355 2.037 . S
O386 C406 1.234 . S
C387 O361 1.269 . S
C387 O362 1.257 . S
C388 H363 0.930 . S
C388 C391 1.388 . S
C388 C393 1.418 . S
C389 H384 0.930 . S
C389 C392 1.404 . S
C389 C393 1.353 . S
N390 Co355 2.145 . S
N390 C391 1.397 . S
N390 C392 1.334 . S
C391 H372 0.929 . S
C391 C388 1.388 . S
C391 N390 1.397 . S
C392 H373 0.929 . S
C392 C389 1.404 . S
C392 N390 1.334 . S
C393 H385 0.930 . S
C393 C388 1.418 . S
C393 C389 1.353 . S
C394 H364 0.930 . S
C394 N395 1.330 . S
C394 C396 1.446 . S
N395 Co354 2.151 . S
N395 C394 1.330 . S
N395 C399 1.418 . S
C396 H375 0.929 . S
C396 C394 1.446 . S
C396 C397 1.332 . S
C397 H377 0.931 . S
C397 C396 1.332 . S
C397 C398 1.267 . S
C398 H366 0.929 . S
C398 C397 1.267 . S
C398 C399 1.251 . S
C399 H369 0.929 . S
C399 N395 1.418 . S
C399 C398 1.251 . S
C400 H367 0.930 . S
C400 C402 1.406 . S
C400 C405 1.261 . S
C401 H368 0.930 . S
C401 N403 1.325 . S
C401 C404 1.357 . S
C402 H370 0.928 . S
C402 C400 1.406 . S
C402 N403 1.261 . S
N403 Co354 2.214 . S
N403 C401 1.325 . S
N403 C402 1.261 . S
C404 H374 0.931 . S
C404 C401 1.357 . S
C404 C405 1.312 . S
C405 H376 0.930 . S
C405 C400 1.261 . S
C405 C404 1.312 . S
C406 O378 1.214 . S
C406 O386 1.234 . S
C407 H379 0.929 . S
C407 C410 1.391 . S
C407 C412 1.391 1_554 S
C408 H380 0.928 1_554 S
C408 C409 1.393 . S
C408 N411 1.389 1_554 S
C409 H381 0.930 . S
C409 C408 1.393 . S
C409 C410 1.392 . S
C410 H382 0.929 . S
C410 C407 1.391 . S
C410 C409 1.392 . S
N411 Co355 2.257 . S
N411 C408 1.389 1_556 S
N411 C412 1.388 . S
C412 H383 0.930 . S
C412 C407 1.391 1_556 S
C412 N411 1.388 . S
Co413 O415 2.143 . S
Co413 O421 2.074 . S
Co413 O424 2.093 . S
Co413 O437 2.097 . S
Co413 N454 2.151 . S
Co413 N462 2.214 . S
Co414 O415 2.160 . S
Co414 O420 2.058 . S
Co414 O430 2.057 . S
Co414 O445 2.037 . S
Co414 N449 2.145 . S
Co414 N470 2.257 . S
O415 Co413 2.143 . S
O415 Co414 2.160 . S
C416 O417 1.278 . S
C416 O424 1.224 . S
O417 C416 1.278 . S
C418 O419 1.245 . S
C418 O430 1.232 . S
O419 C418 1.245 . S
O420 Co414 2.058 . S
O420 C446 1.269 . S
O421 Co413 2.074 . S
O421 C446 1.257 . S
H422 C447 0.930 . S
H423 C453 0.930 . S
O424 Co413 2.093 . S
O424 C416 1.224 . S
H425 C457 0.929 . S
H426 C459 0.930 . S
H427 C460 0.930 . S
H428 C458 0.929 . S
H429 C461 0.928 . S
O430 Co414 2.057 . S
O430 C418 1.232 . S
H431 C450 0.929 . S
H432 C451 0.929 . S
H433 C463 0.931 . S
H434 C455 0.929 . S
H435 C464 0.930 1_545 S
H436 C456 0.931 . S
O437 Co413 2.097 . S
O437 C465 1.214 . S
H438 C466 0.929 . S
H439 C467 0.928 1_556 S
H440 C468 0.930 . S
H441 C469 0.929 . S
H442 C471 0.930 . S
H443 C448 0.930 . S
H444 C452 0.930 . S
O445 Co414 2.037 . S
O445 C465 1.234 . S
C446 O420 1.269 . S
C446 O421 1.257 . S
C447 H422 0.930 . S
C447 C450 1.388 1_545 S
C447 C452 1.418 1_545 S
C448 H443 0.930 . S
C448 C451 1.404 . S
C448 C452 1.353 . S
N449 Co414 2.145 . S
N449 C450 1.397 . S
N449 C451 1.334 . S
C450 H431 0.929 . S
C450 C447 1.388 1_565 S
C450 N449 1.397 . S
C451 H432 0.929 . S
C451 C448 1.404 . S
C451 N449 1.334 . S
C452 H444 0.930 . S
C452 C447 1.418 1_565 S
C452 C448 1.353 . S
C453 H423 0.930 . S
C453 N454 1.330 . S
C453 C455 1.446 . S
N454 Co413 2.151 . S
N454 C453 1.330 . S
N454 C458 1.418 . S
C455 H434 0.929 . S
C455 C453 1.446 . S
C455 C456 1.332 . S
C456 H436 0.931 . S
C456 C455 1.332 . S
C456 C457 1.267 . S
C457 H425 0.929 . S
C457 C456 1.267 . S
C457 C458 1.251 . S
C458 H428 0.929 . S
C458 N454 1.418 . S
C458 C457 1.251 . S
C459 H426 0.930 . S
C459 C461 1.406 . S
C459 C464 1.261 . S
C460 H427 0.930 . S
C460 N462 1.325 . S
C460 C463 1.357 1_565 S
C461 H429 0.928 . S
C461 C459 1.406 . S
C461 N462 1.261 . S
N462 Co413 2.214 . S
N462 C460 1.325 . S
N462 C461 1.261 . S
C463 H433 0.931 . S
C463 C460 1.357 1_545 S
C463 C464 1.312 1_545 S
C464 H435 0.930 1_565 S
C464 C459 1.261 . S
C464 C463 1.312 1_565 S
C465 O437 1.214 . S
C465 O445 1.234 . S
C466 H438 0.929 . S
C466 C469 1.391 . S
C466 C471 1.391 1_554 S
C467 H439 0.928 1_554 S
C467 C468 1.393 . S
C467 N470 1.389 1_554 S
C468 H440 0.930 . S
C468 C467 1.393 . S
C468 C469 1.392 . S
C469 H441 0.929 . S
C469 C466 1.391 . S
C469 C468 1.392 . S
N470 Co414 2.257 . S
N470 C467 1.389 1_556 S
N470 C471 1.388 . S
C471 H442 0.930 . S
C471 C466 1.391 1_556 S
C471 N470 1.388 . S
Co472 O474 2.143 . S
Co472 O480 2.074 . S
Co472 O483 2.093 . S
Co472 O496 2.097 . S
Co472 N513 2.151 . S
Co472 N521 2.214 . S
Co473 O474 2.160 . S
Co473 O479 2.058 . S
Co473 O489 2.057 . S
Co473 O504 2.037 . S
Co473 N508 2.145 . S
Co473 N529 2.257 . S
O474 Co472 2.143 . S
O474 Co473 2.160 . S
C475 O476 1.278 . S
C475 O483 1.224 . S
O476 C475 1.278 . S
C477 O478 1.245 . S
C477 O489 1.232 . S
O478 C477 1.245 . S
O479 Co473 2.058 . S
O479 C505 1.269 . S
O480 Co472 2.074 . S
O480 C505 1.257 . S
H481 C506 0.930 . S
H482 C512 0.930 . S
O483 Co472 2.093 . S
O483 C475 1.224 . S
H484 C516 0.929 . S
H485 C518 0.930 . S
H486 C519 0.930 . S
H487 C517 0.929 . S
H488 C520 0.928 . S
O489 Co473 2.057 . S
O489 C477 1.232 . S
H490 C509 0.929 . S
H491 C510 0.929 . S
H492 C522 0.931 . S
H493 C514 0.929 . S
H494 C523 0.930 1_655 S
H495 C515 0.931 . S
O496 Co472 2.097 . S
O496 C524 1.214 . S
H497 C525 0.929 . S
H498 C526 0.928 1_556 S
H499 C527 0.930 . S
H500 C528 0.929 . S
H501 C530 0.930 . S
H502 C507 0.930 . S
H503 C511 0.930 . S
O504 Co473 2.037 . S
O504 C524 1.234 . S
C505 O479 1.269 . S
C505 O480 1.257 . S
C506 H481 0.930 . S
C506 C509 1.388 1_655 S
C506 C511 1.418 1_655 S
C507 H502 0.930 . S
C507 C510 1.404 . S
C507 C511 1.353 . S
N508 Co473 2.145 . S
N508 C509 1.397 . S
N508 C510 1.334 . S
C509 H490 0.929 . S
C509 C506 1.388 1_455 S
C509 N508 1.397 . S
C510 H491 0.929 . S
C510 C507 1.404 . S
C510 N508 1.334 . S
C511 H503 0.930 . S
C511 C506 1.418 1_455 S
C511 C507 1.353 . S
C512 H482 0.930 . S
C512 N513 1.330 . S
C512 C514 1.446 . S
N513 Co472 2.151 . S
N513 C512 1.330 . S
N513 C517 1.418 . S
C514 H493 0.929 . S
C514 C512 1.446 . S
C514 C515 1.332 . S
C515 H495 0.931 . S
C515 C514 1.332 . S
C515 C516 1.267 . S
C516 H484 0.929 . S
C516 C515 1.267 . S
C516 C517 1.251 . S
C517 H487 0.929 . S
C517 N513 1.418 . S
C517 C516 1.251 . S
C518 H485 0.930 . S
C518 C520 1.406 . S
C518 C523 1.261 . S
C519 H486 0.930 . S
C519 N521 1.325 . S
C519 C522 1.357 1_455 S
C520 H488 0.928 . S
C520 C518 1.406 . S
C520 N521 1.261 . S
N521 Co472 2.214 . S
N521 C519 1.325 . S
N521 C520 1.261 . S
C522 H492 0.931 . S
C522 C519 1.357 1_655 S
C522 C523 1.312 1_655 S
C523 H494 0.930 1_455 S
C523 C518 1.261 . S
C523 C522 1.312 1_455 S
C524 O496 1.214 . S
C524 O504 1.234 . S
C525 H497 0.929 . S
C525 C528 1.391 . S
C525 C530 1.391 1_554 S
C526 H498 0.928 1_554 S
C526 C527 1.393 . S
C526 N529 1.389 1_554 S
C527 H499 0.930 . S
C527 C526 1.393 . S
C527 C528 1.392 . S
C528 H500 0.929 . S
C528 C525 1.391 . S
C528 C527 1.392 . S
N529 Co473 2.257 . S
N529 C526 1.389 1_556 S
N529 C530 1.388 . S
C530 H501 0.930 . S
C530 C525 1.391 1_556 S
C530 N529 1.388 . S
Co531 O533 2.143 . S
Co531 O539 2.074 . S
Co531 O542 2.093 . S
Co531 O555 2.097 . S
Co531 N572 2.151 . S
Co531 N580 2.214 . S
Co532 O533 2.160 . S
Co532 O538 2.058 . S
Co532 O548 2.057 . S
Co532 O563 2.037 . S
Co532 N567 2.145 . S
Co532 N588 2.257 . S
O533 Co531 2.143 . S
O533 Co532 2.160 . S
C534 O535 1.278 . S
C534 O542 1.224 . S
O535 C534 1.278 . S
C536 O537 1.245 . S
C536 O548 1.232 . S
O537 C536 1.245 . S
O538 Co532 2.058 . S
O538 C564 1.269 . S
O539 Co531 2.074 . S
O539 C564 1.257 . S
H540 C565 0.930 . S
H541 C571 0.930 . S
O542 Co531 2.093 . S
O542 C534 1.224 . S
H543 C575 0.929 . S
H544 C577 0.930 . S
H545 C578 0.930 . S
H546 C576 0.929 . S
H547 C579 0.928 . S
O548 Co532 2.057 . S
O548 C536 1.232 . S
H549 C568 0.929 . S
H550 C569 0.929 . S
H551 C581 0.931 . S
H552 C573 0.929 . S
H553 C582 0.930 . S
H554 C574 0.931 . S
O555 Co531 2.097 . S
O555 C583 1.214 . S
H556 C584 0.929 . S
H557 C585 0.929 . S
H558 C586 0.930 . S
H559 C587 0.929 . S
H560 C589 0.930 . S
H561 C566 0.930 . S
H562 C570 0.930 . S
O563 Co532 2.037 . S
O563 C583 1.234 . S
C564 O538 1.269 . S
C564 O539 1.257 . S
C565 H540 0.930 . S
C565 C568 1.388 . S
C565 C570 1.418 . S
C566 H561 0.930 . S
C566 C569 1.404 . S
C566 C570 1.353 . S
N567 Co532 2.145 . S
N567 C568 1.397 . S
N567 C569 1.334 . S
C568 H549 0.929 . S
C568 C565 1.388 . S
C568 N567 1.397 . S
C569 H550 0.929 . S
C569 C566 1.404 . S
C569 N567 1.334 . S
C570 H562 0.930 . S
C570 C565 1.418 . S
C570 C566 1.353 . S
C571 H541 0.930 . S
C571 N572 1.330 . S
C571 C573 1.446 . S
N572 Co531 2.151 . S
N572 C571 1.330 . S
N572 C576 1.418 . S
C573 H552 0.929 . S
C573 C571 1.446 . S
C573 C574 1.332 . S
C574 H554 0.931 . S
C574 C573 1.332 . S
C574 C575 1.267 . S
C575 H543 0.929 . S
C575 C574 1.267 . S
C575 C576 1.251 . S
C576 H546 0.929 . S
C576 N572 1.418 . S
C576 C575 1.251 . S
C577 H544 0.930 . S
C577 C579 1.406 . S
C577 C582 1.261 . S
C578 H545 0.930 . S
C578 N580 1.325 . S
C578 C581 1.357 . S
C579 H547 0.928 . S
C579 C577 1.406 . S
C579 N580 1.261 . S
N580 Co531 2.214 . S
N580 C578 1.325 . S
N580 C579 1.261 . S
C581 H551 0.931 . S
C581 C578 1.357 . S
C581 C582 1.312 . S
C582 H553 0.930 . S
C582 C577 1.261 . S
C582 C581 1.312 . S
C583 O555 1.214 . S
C583 O563 1.234 . S
C584 H556 0.929 . S
C584 C587 1.391 . S
C584 C589 1.391 . S
C585 H557 0.929 . S
C585 C586 1.390 . S
C585 N588 1.391 . S
C586 H558 0.930 . S
C586 C585 1.390 . S
C586 C587 1.392 . S
C587 H559 0.929 . S
C587 C584 1.391 . S
C587 C586 1.392 . S
N588 Co532 2.257 . S
N588 C585 1.391 . S
N588 C589 1.388 . S
C589 H560 0.930 . S
C589 C584 1.391 . S
C589 N588 1.388 . S
Co590 O592 2.143 . S
Co590 O598 2.074 . S
Co590 O601 2.093 . S
Co590 O614 2.097 . S
Co590 N631 2.151 . S
Co590 N639 2.214 . S
Co591 O592 2.160 . S
Co591 O597 2.058 . S
Co591 O607 2.057 . S
Co591 O622 2.037 . S
Co591 N626 2.145 . S
Co591 N647 2.257 . S
O592 Co590 2.143 . S
O592 Co591 2.160 . S
C593 O594 1.278 . S
C593 O601 1.224 . S
O594 C593 1.278 . S
C595 O596 1.245 . S
C595 O607 1.232 . S
O596 C595 1.245 . S
O597 Co591 2.058 . S
O597 C623 1.269 . S
O598 Co590 2.074 . S
O598 C623 1.257 . S
H599 C624 0.930 . S
H600 C630 0.930 . S
O601 Co590 2.093 . S
O601 C593 1.224 . S
H602 C634 0.929 . S
H603 C636 0.930 . S
H604 C637 0.930 . S
H605 C635 0.929 . S
H606 C638 0.928 . S
O607 Co591 2.057 . S
O607 C595 1.232 . S
H608 C627 0.929 . S
H609 C628 0.929 . S
H610 C640 0.931 . S
H611 C632 0.929 . S
H612 C641 0.930 1_565 S
H613 C633 0.931 . S
O614 Co590 2.097 . S
O614 C642 1.214 . S
H615 C643 0.929 . S
H616 C644 0.929 . S
H617 C645 0.930 . S
H618 C646 0.929 . S
H619 C648 0.930 . S
H620 C625 0.930 . S
H621 C629 0.930 . S
O622 Co591 2.037 . S
O622 C642 1.234 . S
C623 O597 1.269 . S
C623 O598 1.257 . S
C624 H599 0.930 . S
C624 C627 1.388 1_565 S
C624 C629 1.418 1_565 S
C625 H620 0.930 . S
C625 C628 1.404 . S
C625 C629 1.353 . S
N626 Co591 2.145 . S
N626 C627 1.397 . S
N626 C628 1.334 . S
C627 H608 0.929 . S
C627 C624 1.388 1_545 S
C627 N626 1.397 . S
C628 H609 0.929 . S
C628 C625 1.404 . S
C628 N626 1.334 . S
C629 H621 0.930 . S
C629 C624 1.418 1_545 S
C629 C625 1.353 . S
C630 H600 0.930 . S
C630 N631 1.330 . S
C630 C632 1.446 . S
N631 Co590 2.151 . S
N631 C630 1.330 . S
N631 C635 1.418 . S
C632 H611 0.929 . S
C632 C630 1.446 . S
C632 C633 1.332 . S
C633 H613 0.931 . S
C633 C632 1.332 . S
C633 C634 1.267 . S
C634 H602 0.929 . S
C634 C633 1.267 . S
C634 C635 1.251 . S
C635 H605 0.929 . S
C635 N631 1.418 . S
C635 C634 1.251 . S
C636 H603 0.930 . S
C636 C638 1.406 . S
C636 C641 1.261 . S
C637 H604 0.930 . S
C637 N639 1.325 . S
C637 C640 1.357 1_545 S
C638 H606 0.928 . S
C638 C636 1.406 . S
C638 N639 1.261 . S
N639 Co590 2.214 . S
N639 C637 1.325 . S
N639 C638 1.261 . S
C640 H610 0.931 . S
C640 C637 1.357 1_565 S
C640 C641 1.312 1_565 S
C641 H612 0.930 1_545 S
C641 C636 1.261 . S
C641 C640 1.312 1_545 S
C642 O614 1.214 . S
C642 O622 1.234 . S
C643 H615 0.929 . S
C643 C646 1.391 . S
C643 C648 1.391 . S
C644 H616 0.929 . S
C644 C645 1.390 . S
C644 N647 1.391 . S
C645 H617 0.930 . S
C645 C644 1.390 . S
C645 C646 1.392 . S
C646 H618 0.929 . S
C646 C643 1.391 . S
C646 C645 1.392 . S
N647 Co591 2.257 . S
N647 C644 1.391 . S
N647 C648 1.388 . S
C648 H619 0.930 . S
C648 C643 1.391 . S
C648 N647 1.388 . S
Co649 O651 2.143 . S
Co649 O657 2.074 . S
Co649 O660 2.093 . S
Co649 O673 2.097 . S
Co649 N690 2.151 . S
Co649 N698 2.214 . S
Co650 O651 2.160 . S
Co650 O656 2.058 . S
Co650 O666 2.057 . S
Co650 O681 2.037 . S
Co650 N685 2.145 . S
Co650 N706 2.257 . S
O651 Co649 2.143 . S
O651 Co650 2.160 . S
C652 O653 1.278 . S
C652 O660 1.224 . S
O653 C652 1.278 . S
C654 O655 1.245 . S
C654 O666 1.232 . S
O655 C654 1.245 . S
O656 Co650 2.058 . S
O656 C682 1.269 . S
O657 Co649 2.074 . S
O657 C682 1.257 . S
H658 C683 0.930 . S
H659 C689 0.930 . S
O660 Co649 2.093 . S
O660 C652 1.224 . S
H661 C693 0.929 . S
H662 C695 0.930 . S
H663 C696 0.930 . S
H664 C694 0.929 . S
H665 C697 0.928 . S
O666 Co650 2.057 . S
O666 C654 1.232 . S
H667 C686 0.929 . S
H668 C687 0.929 . S
H669 C699 0.931 . S
H670 C691 0.929 . S
H671 C700 0.930 1_455 S
H672 C692 0.931 . S
O673 Co649 2.097 . S
O673 C701 1.214 . S
H674 C702 0.929 . S
H675 C703 0.929 . S
H676 C704 0.930 . S
H677 C705 0.929 . S
H678 C707 0.930 . S
H679 C684 0.930 . S
H680 C688 0.930 . S
O681 Co650 2.037 . S
O681 C701 1.234 . S
C682 O656 1.269 . S
C682 O657 1.257 . S
C683 H658 0.930 . S
C683 C686 1.388 1_455 S
C683 C688 1.418 1_455 S
C684 H679 0.930 . S
C684 C687 1.404 . S
C684 C688 1.353 . S
N685 Co650 2.145 . S
N685 C686 1.397 . S
N685 C687 1.334 . S
C686 H667 0.929 . S
C686 C683 1.388 1_655 S
C686 N685 1.397 . S
C687 H668 0.929 . S
C687 C684 1.404 . S
C687 N685 1.334 . S
C688 H680 0.930 . S
C688 C683 1.418 1_655 S
C688 C684 1.353 . S
C689 H659 0.930 . S
C689 N690 1.330 . S
C689 C691 1.446 . S
N690 Co649 2.151 . S
N690 C689 1.330 . S
N690 C694 1.418 . S
C691 H670 0.929 . S
C691 C689 1.446 . S
C691 C692 1.332 . S
C692 H672 0.931 . S
C692 C691 1.332 . S
C692 C693 1.267 . S
C693 H661 0.929 . S
C693 C692 1.267 . S
C693 C694 1.251 . S
C694 H664 0.929 . S
C694 N690 1.418 . S
C694 C693 1.251 . S
C695 H662 0.930 . S
C695 C697 1.406 . S
C695 C700 1.261 . S
C696 H663 0.930 . S
C696 N698 1.325 . S
C696 C699 1.357 1_655 S
C697 H665 0.928 . S
C697 C695 1.406 . S
C697 N698 1.261 . S
N698 Co649 2.214 . S
N698 C696 1.325 . S
N698 C697 1.261 . S
C699 H669 0.931 . S
C699 C696 1.357 1_455 S
C699 C700 1.312 1_455 S
C700 H671 0.930 1_655 S
C700 C695 1.261 . S
C700 C699 1.312 1_655 S
C701 O673 1.214 . S
C701 O681 1.234 . S
C702 H674 0.929 . S
C702 C705 1.391 . S
C702 C707 1.391 . S
C703 H675 0.929 . S
C703 C704 1.390 . S
C703 N706 1.391 . S
C704 H676 0.930 . S
C704 C703 1.390 . S
C704 C705 1.392 . S
C705 H677 0.929 . S
C705 C702 1.391 . S
C705 C704 1.392 . S
N706 Co650 2.257 . S
N706 C703 1.391 . S
N706 C707 1.388 . S
C707 H678 0.930 . S
C707 C702 1.391 . S
C707 N706 1.388 . S
Co708 O710 2.143 . S
Co708 O716 2.074 . S
Co708 O719 2.093 . S
Co708 O732 2.097 . S
Co708 N749 2.151 . S
Co708 N757 2.214 . S
Co709 O710 2.160 . S
Co709 O715 2.058 . S
Co709 O725 2.057 . S
Co709 O740 2.037 . S
Co709 N744 2.145 . S
Co709 N765 2.257 . S
O710 Co708 2.143 . S
O710 Co709 2.160 . S
C711 O712 1.278 . S
C711 O719 1.224 . S
O712 C711 1.278 . S
C713 O714 1.245 . S
C713 O725 1.232 . S
O714 C713 1.245 . S
O715 Co709 2.058 . S
O715 C741 1.269 . S
O716 Co708 2.074 . S
O716 C741 1.257 . S
H717 C742 0.930 . S
H718 C748 0.930 . S
O719 Co708 2.093 . S
O719 C711 1.224 . S
H720 C752 0.929 . S
H721 C754 0.930 . S
H722 C755 0.930 . S
H723 C753 0.929 . S
H724 C756 0.928 . S
O725 Co709 2.057 . S
O725 C713 1.232 . S
H726 C745 0.929 . S
H727 C746 0.929 . S
H728 C758 0.931 . S
H729 C750 0.929 . S
H730 C759 0.930 . S
H731 C751 0.931 . S
O732 Co708 2.097 . S
O732 C760 1.214 . S
H733 C761 0.929 . S
H734 C762 0.929 . S
H735 C763 0.930 . S
H736 C764 0.929 . S
H737 C766 0.930 . S
H738 C743 0.930 . S
H739 C747 0.930 . S
O740 Co709 2.037 . S
O740 C760 1.234 . S
C741 O715 1.269 . S
C741 O716 1.257 . S
C742 H717 0.930 . S
C742 C745 1.388 . S
C742 C747 1.418 . S
C743 H738 0.930 . S
C743 C746 1.404 . S
C743 C747 1.353 . S
N744 Co709 2.145 . S
N744 C745 1.397 . S
N744 C746 1.334 . S
C745 H726 0.929 . S
C745 C742 1.388 . S
C745 N744 1.397 . S
C746 H727 0.929 . S
C746 C743 1.404 . S
C746 N744 1.334 . S
C747 H739 0.930 . S
C747 C742 1.418 . S
C747 C743 1.353 . S
C748 H718 0.930 . S
C748 N749 1.330 . S
C748 C750 1.446 . S
N749 Co708 2.151 . S
N749 C748 1.330 . S
N749 C753 1.418 . S
C750 H729 0.929 . S
C750 C748 1.446 . S
C750 C751 1.332 . S
C751 H731 0.931 . S
C751 C750 1.332 . S
C751 C752 1.267 . S
C752 H720 0.929 . S
C752 C751 1.267 . S
C752 C753 1.251 . S
C753 H723 0.929 . S
C753 N749 1.418 . S
C753 C752 1.251 . S
C754 H721 0.930 . S
C754 C756 1.406 . S
C754 C759 1.261 . S
C755 H722 0.930 . S
C755 N757 1.325 . S
C755 C758 1.357 . S
C756 H724 0.928 . S
C756 C754 1.406 . S
C756 N757 1.261 . S
N757 Co708 2.214 . S
N757 C755 1.325 . S
N757 C756 1.261 . S
C758 H728 0.931 . S
C758 C755 1.357 . S
C758 C759 1.312 . S
C759 H730 0.930 . S
C759 C754 1.261 . S
C759 C758 1.312 . S
C760 O732 1.214 . S
C760 O740 1.234 . S
C761 H733 0.929 . S
C761 C764 1.391 . S
C761 C766 1.391 . S
C762 H734 0.929 . S
C762 C763 1.390 . S
C762 N765 1.391 . S
C763 H735 0.930 . S
C763 C762 1.390 . S
C763 C764 1.392 . S
C764 H736 0.929 . S
C764 C761 1.391 . S
C764 C763 1.392 . S
N765 Co709 2.257 . S
N765 C762 1.391 . S
N765 C766 1.388 . S
C766 H737 0.930 . S
C766 C761 1.391 . S
C766 N765 1.388 . S
Co767 O769 2.143 . S
Co767 O775 2.074 . S
Co767 O778 2.093 . S
Co767 O791 2.097 . S
Co767 N808 2.151 . S
Co767 N816 2.214 . S
Co768 O769 2.160 . S
Co768 O774 2.058 . S
Co768 O784 2.057 . S
Co768 O799 2.037 . S
Co768 N803 2.145 . S
Co768 N824 2.257 . S
O769 Co767 2.143 . S
O769 Co768 2.160 . S
C770 O771 1.278 . S
C770 O778 1.224 . S
O771 C770 1.278 . S
C772 O773 1.245 . S
C772 O784 1.232 . S
O773 C772 1.245 . S
O774 Co768 2.058 . S
O774 C800 1.269 . S
O775 Co767 2.074 . S
O775 C800 1.257 . S
H776 C801 0.930 . S
H777 C807 0.930 . S
O778 Co767 2.093 . S
O778 C770 1.224 . S
H779 C811 0.929 . S
H780 C813 0.930 . S
H781 C814 0.930 . S
H782 C812 0.929 . S
H783 C815 0.928 . S
O784 Co768 2.057 . S
O784 C772 1.232 . S
H785 C804 0.929 . S
H786 C805 0.929 . S
H787 C817 0.931 . S
H788 C809 0.929 . S
H789 C818 0.930 . S
H790 C810 0.931 . S
O791 Co767 2.097 . S
O791 C819 1.214 . S
H792 C820 0.929 . S
H793 C821 0.929 . S
H794 C822 0.930 . S
H795 C823 0.929 . S
H796 C825 0.930 . S
H797 C802 0.930 . S
H798 C806 0.930 . S
O799 Co768 2.037 . S
O799 C819 1.234 . S
C800 O774 1.269 . S
C800 O775 1.257 . S
C801 H776 0.930 . S
C801 C804 1.388 . S
C801 C806 1.418 . S
C802 H797 0.930 . S
C802 C805 1.404 . S
C802 C806 1.353 . S
N803 Co768 2.145 . S
N803 C804 1.397 . S
N803 C805 1.334 . S
C804 H785 0.929 . S
C804 C801 1.388 . S
C804 N803 1.397 . S
C805 H786 0.929 . S
C805 C802 1.404 . S
C805 N803 1.334 . S
C806 H798 0.930 . S
C806 C801 1.418 . S
C806 C802 1.353 . S
C807 H777 0.930 . S
C807 N808 1.330 . S
C807 C809 1.446 . S
N808 Co767 2.151 . S
N808 C807 1.330 . S
N808 C812 1.418 . S
C809 H788 0.929 . S
C809 C807 1.446 . S
C809 C810 1.332 . S
C810 H790 0.931 . S
C810 C809 1.332 . S
C810 C811 1.267 . S
C811 H779 0.929 . S
C811 C810 1.267 . S
C811 C812 1.251 . S
C812 H782 0.929 . S
C812 N808 1.418 . S
C812 C811 1.251 . S
C813 H780 0.930 . S
C813 C815 1.406 . S
C813 C818 1.261 . S
C814 H781 0.930 . S
C814 N816 1.325 . S
C814 C817 1.357 . S
C815 H783 0.928 . S
C815 C813 1.406 . S
C815 N816 1.261 . S
N816 Co767 2.214 . S
N816 C814 1.325 . S
N816 C815 1.261 . S
C817 H787 0.931 . S
C817 C814 1.357 . S
C817 C818 1.312 . S
C818 H789 0.930 . S
C818 C813 1.261 . S
C818 C817 1.312 . S
C819 O791 1.214 . S
C819 O799 1.234 . S
C820 H792 0.929 . S
C820 C823 1.391 . S
C820 C825 1.391 . S
C821 H793 0.929 . S
C821 C822 1.390 . S
C821 N824 1.391 . S
C822 H794 0.930 . S
C822 C821 1.390 . S
C822 C823 1.392 . S
C823 H795 0.929 . S
C823 C820 1.391 . S
C823 C822 1.392 . S
N824 Co768 2.257 . S
N824 C821 1.391 . S
N824 C825 1.388 . S
C825 H796 0.930 . S
C825 C820 1.391 . S
C825 N824 1.388 . S
Co826 O828 2.143 . S
Co826 O834 2.074 . S
Co826 O837 2.093 . S
Co826 O850 2.097 . S
Co826 N867 2.151 . S
Co826 N875 2.214 . S
Co827 O828 2.160 . S
Co827 O833 2.058 . S
Co827 O843 2.057 . S
Co827 O858 2.037 . S
Co827 N862 2.145 . S
Co827 N883 2.257 . S
O828 Co826 2.143 . S
O828 Co827 2.160 . S
C829 O830 1.278 . S
C829 O837 1.224 . S
O830 C829 1.278 . S
C831 O832 1.245 . S
C831 O843 1.232 . S
O832 C831 1.245 . S
O833 Co827 2.058 . S
O833 C859 1.269 . S
O834 Co826 2.074 . S
O834 C859 1.257 . S
H835 C860 0.930 . S
H836 C866 0.930 . S
O837 Co826 2.093 . S
O837 C829 1.224 . S
H838 C870 0.929 . S
H839 C872 0.930 . S
H840 C873 0.930 . S
H841 C871 0.929 . S
H842 C874 0.928 . S
O843 Co827 2.057 . S
O843 C831 1.232 . S
H844 C863 0.929 . S
H845 C864 0.929 . S
H846 C876 0.931 . S
H847 C868 0.929 . S
H848 C877 0.930 . S
H849 C869 0.931 . S
O850 Co826 2.097 . S
O850 C878 1.214 . S
H851 C879 0.929 . S
H852 C880 0.929 . S
H853 C881 0.930 . S
H854 C882 0.929 . S
H855 C884 0.930 . S
H856 C861 0.930 . S
H857 C865 0.930 . S
O858 Co827 2.037 . S
O858 C878 1.234 . S
C859 O833 1.269 . S
C859 O834 1.257 . S
C860 H835 0.930 . S
C860 C863 1.388 . S
C860 C865 1.418 . S
C861 H856 0.930 . S
C861 C864 1.404 . S
C861 C865 1.353 . S
N862 Co827 2.145 . S
N862 C863 1.397 . S
N862 C864 1.334 . S
C863 H844 0.929 . S
C863 C860 1.388 . S
C863 N862 1.397 . S
C864 H845 0.929 . S
C864 C861 1.404 . S
C864 N862 1.334 . S
C865 H857 0.930 . S
C865 C860 1.418 . S
C865 C861 1.353 . S
C866 H836 0.930 . S
C866 N867 1.330 . S
C866 C868 1.446 . S
N867 Co826 2.151 . S
N867 C866 1.330 . S
N867 C871 1.418 . S
C868 H847 0.929 . S
C868 C866 1.446 . S
C868 C869 1.332 . S
C869 H849 0.931 . S
C869 C868 1.332 . S
C869 C870 1.267 . S
C870 H838 0.929 . S
C870 C869 1.267 . S
C870 C871 1.251 . S
C871 H841 0.929 . S
C871 N867 1.418 . S
C871 C870 1.251 . S
C872 H839 0.930 . S
C872 C874 1.406 . S
C872 C877 1.261 . S
C873 H840 0.930 . S
C873 N875 1.325 . S
C873 C876 1.357 . S
C874 H842 0.928 . S
C874 C872 1.406 . S
C874 N875 1.261 . S
N875 Co826 2.214 . S
N875 C873 1.325 . S
N875 C874 1.261 . S
C876 H846 0.931 . S
C876 C873 1.357 . S
C876 C877 1.312 . S
C877 H848 0.930 . S
C877 C872 1.261 . S
C877 C876 1.312 . S
C878 O850 1.214 . S
C878 O858 1.234 . S
C879 H851 0.929 . S
C879 C882 1.391 . S
C879 C884 1.391 . S
C880 H852 0.929 . S
C880 C881 1.390 . S
C880 N883 1.391 . S
C881 H853 0.930 . S
C881 C880 1.390 . S
C881 C882 1.392 . S
C882 H854 0.929 . S
C882 C879 1.391 . S
C882 C881 1.392 . S
N883 Co827 2.257 . S
N883 C880 1.391 . S
N883 C884 1.388 . S
C884 H855 0.930 . S
C884 C879 1.391 . S
C884 N883 1.388 . S
Co885 O887 2.143 . S
Co885 O893 2.074 . S
Co885 O896 2.093 . S
Co885 O909 2.097 . S
Co885 N926 2.151 . S
Co885 N934 2.214 . S
Co886 O887 2.160 . S
Co886 O892 2.058 . S
Co886 O902 2.057 . S
Co886 O917 2.037 . S
Co886 N921 2.145 . S
Co886 N942 2.257 . S
O887 Co885 2.143 . S
O887 Co886 2.160 . S
C888 O889 1.278 . S
C888 O896 1.224 . S
O889 C888 1.278 . S
C890 O891 1.245 . S
C890 O902 1.232 . S
O891 C890 1.245 . S
O892 Co886 2.058 . S
O892 C918 1.269 . S
O893 Co885 2.074 . S
O893 C918 1.257 . S
H894 C919 0.930 . S
H895 C925 0.930 . S
O896 Co885 2.093 . S
O896 C888 1.224 . S
H897 C929 0.929 . S
H898 C931 0.930 . S
H899 C932 0.930 . S
H900 C930 0.929 . S
H901 C933 0.928 . S
O902 Co886 2.057 . S
O902 C890 1.232 . S
H903 C922 0.929 . S
H904 C923 0.929 . S
H905 C935 0.931 . S
H906 C927 0.929 . S
H907 C936 0.930 . S
H908 C928 0.931 . S
O909 Co885 2.097 . S
O909 C937 1.214 . S
H910 C938 0.929 . S
H911 C939 0.929 . S
H912 C940 0.930 . S
H913 C941 0.929 . S
H914 C943 0.930 . S
H915 C920 0.930 . S
H916 C924 0.930 . S
O917 Co886 2.037 . S
O917 C937 1.234 . S
C918 O892 1.269 . S
C918 O893 1.257 . S
C919 H894 0.930 . S
C919 C922 1.388 . S
C919 C924 1.418 . S
C920 H915 0.930 . S
C920 C923 1.404 . S
C920 C924 1.353 . S
N921 Co886 2.145 . S
N921 C922 1.397 . S
N921 C923 1.334 . S
C922 H903 0.929 . S
C922 C919 1.388 . S
C922 N921 1.397 . S
C923 H904 0.929 . S
C923 C920 1.404 . S
C923 N921 1.334 . S
C924 H916 0.930 . S
C924 C919 1.418 . S
C924 C920 1.353 . S
C925 H895 0.930 . S
C925 N926 1.330 . S
C925 C927 1.446 . S
N926 Co885 2.151 . S
N926 C925 1.330 . S
N926 C930 1.418 . S
C927 H906 0.929 . S
C927 C925 1.446 . S
C927 C928 1.332 . S
C928 H908 0.931 . S
C928 C927 1.332 . S
C928 C929 1.267 . S
C929 H897 0.929 . S
C929 C928 1.267 . S
C929 C930 1.251 . S
C930 H900 0.929 . S
C930 N926 1.418 . S
C930 C929 1.251 . S
C931 H898 0.930 . S
C931 C933 1.406 . S
C931 C936 1.261 . S
C932 H899 0.930 . S
C932 N934 1.325 . S
C932 C935 1.357 . S
C933 H901 0.928 . S
C933 C931 1.406 . S
C933 N934 1.261 . S
N934 Co885 2.214 . S
N934 C932 1.325 . S
N934 C933 1.261 . S
C935 H905 0.931 . S
C935 C932 1.357 . S
C935 C936 1.312 . S
C936 H907 0.930 . S
C936 C931 1.261 . S
C936 C935 1.312 . S
C937 O909 1.214 . S
C937 O917 1.234 . S
C938 H910 0.929 . S
C938 C941 1.391 . S
C938 C943 1.391 . S
C939 H911 0.929 . S
C939 C940 1.390 . S
C939 N942 1.391 . S
C940 H912 0.930 . S
C940 C939 1.390 . S
C940 C941 1.392 . S
C941 H913 0.929 . S
C941 C938 1.391 . S
C941 C940 1.392 . S
N942 Co886 2.257 . S
N942 C939 1.391 . S
N942 C943 1.388 . S
C943 H914 0.930 . S
C943 C938 1.391 . S
C943 N942 1.388 . S
Co944 O946 2.143 . S
Co944 O952 2.074 . S
Co944 O955 2.093 . S
Co944 O968 2.097 . S
Co944 N985 2.151 . S
Co944 N993 2.214 . S
Co945 O946 2.160 . S
Co945 O951 2.058 . S
Co945 O961 2.057 . S
Co945 O976 2.037 . S
Co945 N980 2.145 . S
Co945 N1001 2.257 . S
O946 Co944 2.143 . S
O946 Co945 2.160 . S
C947 O948 1.278 . S
C947 O955 1.224 . S
O948 C947 1.278 . S
C949 O950 1.245 . S
C949 O961 1.232 . S
O950 C949 1.245 . S
O951 Co945 2.058 . S
O951 C977 1.269 . S
O952 Co944 2.074 . S
O952 C977 1.257 . S
H953 C978 0.930 . S
H954 C984 0.930 . S
O955 Co944 2.093 . S
O955 C947 1.224 . S
H956 C988 0.929 . S
H957 C990 0.930 . S
H958 C991 0.930 . S
H959 C989 0.929 . S
H960 C992 0.928 . S
O961 Co945 2.057 . S
O961 C949 1.232 . S
H962 C981 0.929 . S
H963 C982 0.929 . S
H964 C994 0.931 . S
H965 C986 0.929 . S
H966 C995 0.930 . S
H967 C987 0.931 . S
O968 Co944 2.097 . S
O968 C996 1.214 . S
H969 C997 0.929 . S
H970 C998 0.929 . S
H971 C999 0.930 . S
H972 C1000 0.929 . S
H973 C1002 0.930 . S
H974 C979 0.930 . S
H975 C983 0.930 . S
O976 Co945 2.037 . S
O976 C996 1.234 . S
C977 O951 1.269 . S
C977 O952 1.257 . S
C978 H953 0.930 . S
C978 C981 1.388 . S
C978 C983 1.418 . S
C979 H974 0.930 . S
C979 C982 1.404 . S
C979 C983 1.353 . S
N980 Co945 2.145 . S
N980 C981 1.397 . S
N980 C982 1.334 . S
C981 H962 0.929 . S
C981 C978 1.388 . S
C981 N980 1.397 . S
C982 H963 0.929 . S
C982 C979 1.404 . S
C982 N980 1.334 . S
C983 H975 0.930 . S
C983 C978 1.418 . S
C983 C979 1.353 . S
C984 H954 0.930 . S
C984 N985 1.330 . S
C984 C986 1.446 . S
N985 Co944 2.151 . S
N985 C984 1.330 . S
N985 C989 1.418 . S
C986 H965 0.929 . S
C986 C984 1.446 . S
C986 C987 1.332 . S
C987 H967 0.931 . S
C987 C986 1.332 . S
C987 C988 1.267 . S
C988 H956 0.929 . S
C988 C987 1.267 . S
C988 C989 1.251 . S
C989 H959 0.929 . S
C989 N985 1.418 . S
C989 C988 1.251 . S
C990 H957 0.930 . S
C990 C992 1.406 . S
C990 C995 1.261 . S
C991 H958 0.930 . S
C991 N993 1.325 . S
C991 C994 1.357 . S
C992 H960 0.928 . S
C992 C990 1.406 . S
C992 N993 1.261 . S
N993 Co944 2.214 . S
N993 C991 1.325 . S
N993 C992 1.261 . S
C994 H964 0.931 . S
C994 C991 1.357 . S
C994 C995 1.312 . S
C995 H966 0.930 . S
C995 C990 1.261 . S
C995 C994 1.312 . S
C996 O968 1.214 . S
C996 O976 1.234 . S
C997 H969 0.929 . S
C997 C1000 1.391 . S
C997 C1002 1.391 . S
C998 H970 0.929 . S
C998 C999 1.390 . S
C998 N1001 1.391 . S
C999 H971 0.930 . S
C999 C998 1.390 . S
C999 C1000 1.392 . S
C1000 H972 0.929 . S
C1000 C997 1.391 . S
C1000 C999 1.392 . S
N1001 Co945 2.257 . S
N1001 C998 1.391 . S
N1001 C1002 1.388 . S
C1002 H973 0.930 . S
C1002 C997 1.391 . S
C1002 N1001 1.388 . S
Co1003 O1005 2.143 . S
Co1003 O1011 2.074 . S
Co1003 O1014 2.093 . S
Co1003 O1027 2.097 . S
Co1003 N1044 2.151 . S
Co1003 N1052 2.214 . S
Co1004 O1005 2.160 . S
Co1004 O1010 2.058 . S
Co1004 O1020 2.057 . S
Co1004 O1035 2.037 . S
Co1004 N1039 2.145 . S
Co1004 N1060 2.257 . S
O1005 Co1003 2.143 . S
O1005 Co1004 2.160 . S
C1006 O1007 1.278 . S
C1006 O1014 1.224 . S
O1007 C1006 1.278 . S
C1008 O1009 1.245 . S
C1008 O1020 1.232 . S
O1009 C1008 1.245 . S
O1010 Co1004 2.058 . S
O1010 C1036 1.269 . S
O1011 Co1003 2.074 . S
O1011 C1036 1.257 . S
H1012 C1037 0.930 . S
H1013 C1043 0.930 . S
O1014 Co1003 2.093 . S
O1014 C1006 1.224 . S
H1015 C1047 0.929 . S
H1016 C1049 0.930 . S
H1017 C1050 0.930 . S
H1018 C1048 0.929 . S
H1019 C1051 0.928 . S
O1020 Co1004 2.057 . S
O1020 C1008 1.232 . S
H1021 C1040 0.929 . S
H1022 C1041 0.929 . S
H1023 C1053 0.931 . S
H1024 C1045 0.929 . S
H1025 C1054 0.930 . S
H1026 C1046 0.931 . S
O1027 Co1003 2.097 . S
O1027 C1055 1.214 . S
H1028 C1056 0.929 . S
H1029 C1057 0.929 . S
H1030 C1058 0.930 . S
H1031 C1059 0.929 . S
H1032 C1061 0.930 . S
H1033 C1038 0.930 . S
H1034 C1042 0.930 . S
O1035 Co1004 2.037 . S
O1035 C1055 1.234 . S
C1036 O1010 1.269 . S
C1036 O1011 1.257 . S
C1037 H1012 0.930 . S
C1037 C1040 1.388 . S
C1037 C1042 1.418 . S
C1038 H1033 0.930 . S
C1038 C1041 1.404 . S
C1038 C1042 1.353 . S
N1039 Co1004 2.145 . S
N1039 C1040 1.397 . S
N1039 C1041 1.334 . S
C1040 H1021 0.929 . S
C1040 C1037 1.388 . S
C1040 N1039 1.397 . S
C1041 H1022 0.929 . S
C1041 C1038 1.404 . S
C1041 N1039 1.334 . S
C1042 H1034 0.930 . S
C1042 C1037 1.418 . S
C1042 C1038 1.353 . S
C1043 H1013 0.930 . S
C1043 N1044 1.330 . S
C1043 C1045 1.446 . S
N1044 Co1003 2.151 . S
N1044 C1043 1.330 . S
N1044 C1048 1.418 . S
C1045 H1024 0.929 . S
C1045 C1043 1.446 . S
C1045 C1046 1.332 . S
C1046 H1026 0.931 . S
C1046 C1045 1.332 . S
C1046 C1047 1.267 . S
C1047 H1015 0.929 . S
C1047 C1046 1.267 . S
C1047 C1048 1.251 . S
C1048 H1018 0.929 . S
C1048 N1044 1.418 . S
C1048 C1047 1.251 . S
C1049 H1016 0.930 . S
C1049 C1051 1.406 . S
C1049 C1054 1.261 . S
C1050 H1017 0.930 . S
C1050 N1052 1.325 . S
C1050 C1053 1.357 . S
C1051 H1019 0.928 . S
C1051 C1049 1.406 . S
C1051 N1052 1.261 . S
N1052 Co1003 2.214 . S
N1052 C1050 1.325 . S
N1052 C1051 1.261 . S
C1053 H1023 0.931 . S
C1053 C1050 1.357 . S
C1053 C1054 1.312 . S
C1054 H1025 0.930 . S
C1054 C1049 1.261 . S
C1054 C1053 1.312 . S
C1055 O1027 1.214 . S
C1055 O1035 1.234 . S
C1056 H1028 0.929 . S
C1056 C1059 1.391 . S
C1056 C1061 1.391 . S
C1057 H1029 0.929 . S
C1057 C1058 1.390 . S
C1057 N1060 1.391 . S
C1058 H1030 0.930 . S
C1058 C1057 1.390 . S
C1058 C1059 1.392 . S
C1059 H1031 0.929 . S
C1059 C1056 1.391 . S
C1059 C1058 1.392 . S
N1060 Co1004 2.257 . S
N1060 C1057 1.391 . S
N1060 C1061 1.388 . S
C1061 H1032 0.930 . S
C1061 C1056 1.391 . S
C1061 N1060 1.388 . S
Co1062 O1064 2.143 . S
Co1062 O1070 2.074 . S
Co1062 O1073 2.093 . S
Co1062 O1086 2.097 . S
Co1062 N1103 2.151 . S
Co1062 N1111 2.214 . S
Co1063 O1064 2.160 . S
Co1063 O1069 2.058 . S
Co1063 O1079 2.057 . S
Co1063 O1094 2.037 . S
Co1063 N1098 2.145 . S
Co1063 N1119 2.257 . S
O1064 Co1062 2.143 . S
O1064 Co1063 2.160 . S
C1065 O1066 1.278 . S
C1065 O1073 1.224 . S
O1066 C1065 1.278 . S
C1067 O1068 1.245 . S
C1067 O1079 1.232 . S
O1068 C1067 1.245 . S
O1069 Co1063 2.058 . S
O1069 C1095 1.269 . S
O1070 Co1062 2.074 . S
O1070 C1095 1.257 . S
H1071 C1096 0.930 . S
H1072 C1102 0.930 . S
O1073 Co1062 2.093 . S
O1073 C1065 1.224 . S
H1074 C1106 0.929 . S
H1075 C1108 0.930 . S
H1076 C1109 0.930 . S
H1077 C1107 0.929 . S
H1078 C1110 0.928 . S
O1079 Co1063 2.057 . S
O1079 C1067 1.232 . S
H1080 C1099 0.929 . S
H1081 C1100 0.929 . S
H1082 C1112 0.931 . S
H1083 C1104 0.929 . S
H1084 C1113 0.930 . S
H1085 C1105 0.931 . S
O1086 Co1062 2.097 . S
O1086 C1114 1.214 . S
H1087 C1115 0.929 . S
H1088 C1116 0.929 . S
H1089 C1117 0.930 . S
H1090 C1118 0.929 . S
H1091 C1120 0.930 . S
H1092 C1097 0.930 . S
H1093 C1101 0.930 . S
O1094 Co1063 2.037 . S
O1094 C1114 1.234 . S
C1095 O1069 1.269 . S
C1095 O1070 1.257 . S
C1096 H1071 0.930 . S
C1096 C1099 1.388 . S
C1096 C1101 1.418 . S
C1097 H1092 0.930 . S
C1097 C1100 1.404 . S
C1097 C1101 1.353 . S
N1098 Co1063 2.145 . S
N1098 C1099 1.397 . S
N1098 C1100 1.334 . S
C1099 H1080 0.929 . S
C1099 C1096 1.388 . S
C1099 N1098 1.397 . S
C1100 H1081 0.929 . S
C1100 C1097 1.404 . S
C1100 N1098 1.334 . S
C1101 H1093 0.930 . S
C1101 C1096 1.418 . S
C1101 C1097 1.353 . S
C1102 H1072 0.930 . S
C1102 N1103 1.330 . S
C1102 C1104 1.446 . S
N1103 Co1062 2.151 . S
N1103 C1102 1.330 . S
N1103 C1107 1.418 . S
C1104 H1083 0.929 . S
C1104 C1102 1.446 . S
C1104 C1105 1.332 . S
C1105 H1085 0.931 . S
C1105 C1104 1.332 . S
C1105 C1106 1.267 . S
C1106 H1074 0.929 . S
C1106 C1105 1.267 . S
C1106 C1107 1.251 . S
C1107 H1077 0.929 . S
C1107 N1103 1.418 . S
C1107 C1106 1.251 . S
C1108 H1075 0.930 . S
C1108 C1110 1.406 . S
C1108 C1113 1.261 . S
C1109 H1076 0.930 . S
C1109 N1111 1.325 . S
C1109 C1112 1.357 . S
C1110 H1078 0.928 . S
C1110 C1108 1.406 . S
C1110 N1111 1.261 . S
N1111 Co1062 2.214 . S
N1111 C1109 1.325 . S
N1111 C1110 1.261 . S
C1112 H1082 0.931 . S
C1112 C1109 1.357 . S
C1112 C1113 1.312 . S
C1113 H1084 0.930 . S
C1113 C1108 1.261 . S
C1113 C1112 1.312 . S
C1114 O1086 1.214 . S
C1114 O1094 1.234 . S
C1115 H1087 0.929 . S
C1115 C1118 1.391 . S
C1115 C1120 1.391 . S
C1116 H1088 0.929 . S
C1116 C1117 1.390 . S
C1116 N1119 1.391 . S
C1117 H1089 0.930 . S
C1117 C1116 1.390 . S
C1117 C1118 1.392 . S
C1118 H1090 0.929 . S
C1118 C1115 1.391 . S
C1118 C1117 1.392 . S
N1119 Co1063 2.257 . S
N1119 C1116 1.391 . S
N1119 C1120 1.388 . S
C1120 H1091 0.930 . S
C1120 C1115 1.391 . S
C1120 N1119 1.388 . S
Co1121 O1123 2.143 . S
Co1121 O1129 2.074 . S
Co1121 O1132 2.093 . S
Co1121 O1145 2.097 . S
Co1121 N1162 2.151 . S
Co1121 N1170 2.214 . S
Co1122 O1123 2.160 . S
Co1122 O1128 2.058 . S
Co1122 O1138 2.057 . S
Co1122 O1153 2.037 . S
Co1122 N1157 2.145 . S
Co1122 N1178 2.257 . S
O1123 Co1121 2.143 . S
O1123 Co1122 2.160 . S
C1124 O1125 1.278 . S
C1124 O1132 1.224 . S
O1125 C1124 1.278 . S
C1126 O1127 1.245 . S
C1126 O1138 1.232 . S
O1127 C1126 1.245 . S
O1128 Co1122 2.058 . S
O1128 C1154 1.269 . S
O1129 Co1121 2.074 . S
O1129 C1154 1.257 . S
H1130 C1155 0.930 . S
H1131 C1161 0.930 . S
O1132 Co1121 2.093 . S
O1132 C1124 1.224 . S
H1133 C1165 0.929 . S
H1134 C1167 0.930 . S
H1135 C1168 0.930 . S
H1136 C1166 0.929 . S
H1137 C1169 0.928 . S
O1138 Co1122 2.057 . S
O1138 C1126 1.232 . S
H1139 C1158 0.929 . S
H1140 C1159 0.929 . S
H1141 C1171 0.931 . S
H1142 C1163 0.929 . S
H1143 C1172 0.930 . S
H1144 C1164 0.931 . S
O1145 Co1121 2.097 . S
O1145 C1173 1.214 . S
H1146 C1174 0.929 . S
H1147 C1175 0.929 . S
H1148 C1176 0.930 . S
H1149 C1177 0.929 . S
H1150 C1179 0.930 . S
H1151 C1156 0.930 . S
H1152 C1160 0.930 . S
O1153 Co1122 2.037 . S
O1153 C1173 1.234 . S
C1154 O1128 1.269 . S
C1154 O1129 1.257 . S
C1155 H1130 0.930 . S
C1155 C1158 1.388 . S
C1155 C1160 1.418 . S
C1156 H1151 0.930 . S
C1156 C1159 1.404 . S
C1156 C1160 1.353 . S
N1157 Co1122 2.145 . S
N1157 C1158 1.397 . S
N1157 C1159 1.334 . S
C1158 H1139 0.929 . S
C1158 C1155 1.388 . S
C1158 N1157 1.397 . S
C1159 H1140 0.929 . S
C1159 C1156 1.404 . S
C1159 N1157 1.334 . S
C1160 H1152 0.930 . S
C1160 C1155 1.418 . S
C1160 C1156 1.353 . S
C1161 H1131 0.930 . S
C1161 N1162 1.330 . S
C1161 C1163 1.446 . S
N1162 Co1121 2.151 . S
N1162 C1161 1.330 . S
N1162 C1166 1.418 . S
C1163 H1142 0.929 . S
C1163 C1161 1.446 . S
C1163 C1164 1.332 . S
C1164 H1144 0.931 . S
C1164 C1163 1.332 . S
C1164 C1165 1.267 . S
C1165 H1133 0.929 . S
C1165 C1164 1.267 . S
C1165 C1166 1.251 . S
C1166 H1136 0.929 . S
C1166 N1162 1.418 . S
C1166 C1165 1.251 . S
C1167 H1134 0.930 . S
C1167 C1169 1.406 . S
C1167 C1172 1.261 . S
C1168 H1135 0.930 . S
C1168 N1170 1.325 . S
C1168 C1171 1.357 . S
C1169 H1137 0.928 . S
C1169 C1167 1.406 . S
C1169 N1170 1.261 . S
N1170 Co1121 2.214 . S
N1170 C1168 1.325 . S
N1170 C1169 1.261 . S
C1171 H1141 0.931 . S
C1171 C1168 1.357 . S
C1171 C1172 1.312 . S
C1172 H1143 0.930 . S
C1172 C1167 1.261 . S
C1172 C1171 1.312 . S
C1173 O1145 1.214 . S
C1173 O1153 1.234 . S
C1174 H1146 0.929 . S
C1174 C1177 1.391 . S
C1174 C1179 1.391 . S
C1175 H1147 0.929 . S
C1175 C1176 1.390 . S
C1175 N1178 1.391 . S
C1176 H1148 0.930 . S
C1176 C1175 1.390 . S
C1176 C1177 1.392 . S
C1177 H1149 0.929 . S
C1177 C1174 1.391 . S
C1177 C1176 1.392 . S
N1178 Co1122 2.257 . S
N1178 C1175 1.391 . S
N1178 C1179 1.388 . S
C1179 H1150 0.930 . S
C1179 C1174 1.391 . S
C1179 N1178 1.388 . S
Co1180 O1182 2.143 . S
Co1180 O1188 2.074 . S
Co1180 O1191 2.093 . S
Co1180 O1204 2.097 . S
Co1180 N1221 2.151 . S
Co1180 N1229 2.214 . S
Co1181 O1182 2.160 . S
Co1181 O1187 2.058 . S
Co1181 O1197 2.057 . S
Co1181 O1212 2.037 . S
Co1181 N1216 2.145 . S
Co1181 N1237 2.257 . S
O1182 Co1180 2.143 . S
O1182 Co1181 2.160 . S
C1183 O1184 1.278 . S
C1183 O1191 1.224 . S
O1184 C1183 1.278 . S
C1185 O1186 1.245 . S
C1185 O1197 1.232 . S
O1186 C1185 1.245 . S
O1187 Co1181 2.058 . S
O1187 C1213 1.269 . S
O1188 Co1180 2.074 . S
O1188 C1213 1.257 . S
H1189 C1214 0.930 . S
H1190 C1220 0.930 . S
O1191 Co1180 2.093 . S
O1191 C1183 1.224 . S
H1192 C1224 0.929 . S
H1193 C1226 0.930 . S
H1194 C1227 0.930 . S
H1195 C1225 0.929 . S
H1196 C1228 0.928 . S
O1197 Co1181 2.057 . S
O1197 C1185 1.232 . S
H1198 C1217 0.929 . S
H1199 C1218 0.929 . S
H1200 C1230 0.931 . S
H1201 C1222 0.929 . S
H1202 C1231 0.930 . S
H1203 C1223 0.931 . S
O1204 Co1180 2.097 . S
O1204 C1232 1.214 . S
H1205 C1233 0.929 . S
H1206 C1234 0.929 . S
H1207 C1235 0.930 . S
H1208 C1236 0.929 . S
H1209 C1238 0.930 . S
H1210 C1215 0.930 . S
H1211 C1219 0.930 . S
O1212 Co1181 2.037 . S
O1212 C1232 1.234 . S
C1213 O1187 1.269 . S
C1213 O1188 1.257 . S
C1214 H1189 0.930 . S
C1214 C1217 1.388 . S
C1214 C1219 1.418 . S
C1215 H1210 0.930 . S
C1215 C1218 1.404 . S
C1215 C1219 1.353 . S
N1216 Co1181 2.145 . S
N1216 C1217 1.397 . S
N1216 C1218 1.334 . S
C1217 H1198 0.929 . S
C1217 C1214 1.388 . S
C1217 N1216 1.397 . S
C1218 H1199 0.929 . S
C1218 C1215 1.404 . S
C1218 N1216 1.334 . S
C1219 H1211 0.930 . S
C1219 C1214 1.418 . S
C1219 C1215 1.353 . S
C1220 H1190 0.930 . S
C1220 N1221 1.330 . S
C1220 C1222 1.446 . S
N1221 Co1180 2.151 . S
N1221 C1220 1.330 . S
N1221 C1225 1.418 . S
C1222 H1201 0.929 . S
C1222 C1220 1.446 . S
C1222 C1223 1.332 . S
C1223 H1203 0.931 . S
C1223 C1222 1.332 . S
C1223 C1224 1.267 . S
C1224 H1192 0.929 . S
C1224 C1223 1.267 . S
C1224 C1225 1.251 . S
C1225 H1195 0.929 . S
C1225 N1221 1.418 . S
C1225 C1224 1.251 . S
C1226 H1193 0.930 . S
C1226 C1228 1.406 . S
C1226 C1231 1.261 . S
C1227 H1194 0.930 . S
C1227 N1229 1.325 . S
C1227 C1230 1.357 . S
C1228 H1196 0.928 . S
C1228 C1226 1.406 . S
C1228 N1229 1.261 . S
N1229 Co1180 2.214 . S
N1229 C1227 1.325 . S
N1229 C1228 1.261 . S
C1230 H1200 0.931 . S
C1230 C1227 1.357 . S
C1230 C1231 1.312 . S
C1231 H1202 0.930 . S
C1231 C1226 1.261 . S
C1231 C1230 1.312 . S
C1232 O1204 1.214 . S
C1232 O1212 1.234 . S
C1233 H1205 0.929 . S
C1233 C1236 1.391 . S
C1233 C1238 1.391 . S
C1234 H1206 0.929 . S
C1234 C1235 1.390 . S
C1234 N1237 1.391 . S
C1235 H1207 0.930 . S
C1235 C1234 1.390 . S
C1235 C1236 1.392 . S
C1236 H1208 0.929 . S
C1236 C1233 1.391 . S
C1236 C1235 1.392 . S
N1237 Co1181 2.257 . S
N1237 C1234 1.391 . S
N1237 C1238 1.388 . S
C1238 H1209 0.930 . S
C1238 C1233 1.391 . S
C1238 N1237 1.388 . S
Co1239 O1241 2.143 . S
Co1239 O1247 2.074 . S
Co1239 O1250 2.093 . S
Co1239 O1263 2.097 . S
Co1239 N1280 2.151 . S
Co1239 N1288 2.214 . S
Co1240 O1241 2.160 . S
Co1240 O1246 2.058 . S
Co1240 O1256 2.057 . S
Co1240 O1271 2.037 . S
Co1240 N1275 2.145 . S
Co1240 N1296 2.257 . S
O1241 Co1239 2.143 . S
O1241 Co1240 2.160 . S
C1242 O1243 1.278 . S
C1242 O1250 1.224 . S
O1243 C1242 1.278 . S
C1244 O1245 1.245 . S
C1244 O1256 1.232 . S
O1245 C1244 1.245 . S
O1246 Co1240 2.058 . S
O1246 C1272 1.269 1_556 S
O1247 Co1239 2.074 . S
O1247 C1272 1.257 1_556 S
H1248 C1273 0.930 . S
H1249 C1279 0.930 . S
O1250 Co1239 2.093 . S
O1250 C1242 1.224 . S
H1251 C1283 0.929 . S
H1252 C1285 0.930 . S
H1253 C1286 0.930 . S
H1254 C1284 0.929 . S
H1255 C1287 0.928 . S
O1256 Co1240 2.057 . S
O1256 C1244 1.232 . S
H1257 C1276 0.929 . S
H1258 C1277 0.929 . S
H1259 C1289 0.931 . S
H1260 C1281 0.929 . S
H1261 C1290 0.930 . S
H1262 C1282 0.931 . S
O1263 Co1239 2.097 . S
O1263 C1291 1.214 . S
H1264 C1292 0.929 . S
H1265 C1293 0.929 . S
H1266 C1294 0.930 . S
H1267 C1295 0.929 . S
H1268 C1297 0.930 . S
H1269 C1274 0.930 . S
H1270 C1278 0.930 . S
O1271 Co1240 2.037 . S
O1271 C1291 1.234 . S
C1272 O1246 1.269 1_554 S
C1272 O1247 1.257 1_554 S
C1273 H1248 0.930 . S
C1273 C1276 1.388 . S
C1273 C1278 1.418 . S
C1274 H1269 0.930 . S
C1274 C1277 1.404 . S
C1274 C1278 1.353 . S
N1275 Co1240 2.145 . S
N1275 C1276 1.397 . S
N1275 C1277 1.334 . S
C1276 H1257 0.929 . S
C1276 C1273 1.388 . S
C1276 N1275 1.397 . S
C1277 H1258 0.929 . S
C1277 C1274 1.404 . S
C1277 N1275 1.334 . S
C1278 H1270 0.930 . S
C1278 C1273 1.418 . S
C1278 C1274 1.353 . S
C1279 H1249 0.930 . S
C1279 N1280 1.330 . S
C1279 C1281 1.446 1_556 S
N1280 Co1239 2.151 . S
N1280 C1279 1.330 . S
N1280 C1284 1.418 1_556 S
C1281 H1260 0.929 . S
C1281 C1279 1.446 1_554 S
C1281 C1282 1.332 . S
C1282 H1262 0.931 . S
C1282 C1281 1.332 . S
C1282 C1283 1.267 . S
C1283 H1251 0.929 . S
C1283 C1282 1.267 . S
C1283 C1284 1.251 . S
C1284 H1254 0.929 . S
C1284 N1280 1.418 1_554 S
C1284 C1283 1.251 . S
C1285 H1252 0.930 . S
C1285 C1287 1.406 . S
C1285 C1290 1.261 . S
C1286 H1253 0.930 . S
C1286 N1288 1.325 . S
C1286 C1289 1.357 . S
C1287 H1255 0.928 . S
C1287 C1285 1.406 . S
C1287 N1288 1.261 . S
N1288 Co1239 2.214 . S
N1288 C1286 1.325 . S
N1288 C1287 1.261 . S
C1289 H1259 0.931 . S
C1289 C1286 1.357 . S
C1289 C1290 1.312 . S
C1290 H1261 0.930 . S
C1290 C1285 1.261 . S
C1290 C1289 1.312 . S
C1291 O1263 1.214 . S
C1291 O1271 1.234 . S
C1292 H1264 0.929 . S
C1292 C1295 1.391 . S
C1292 C1297 1.391 . S
C1293 H1265 0.929 . S
C1293 C1294 1.390 . S
C1293 N1296 1.391 . S
C1294 H1266 0.930 . S
C1294 C1293 1.390 . S
C1294 C1295 1.392 . S
C1295 H1267 0.929 . S
C1295 C1292 1.391 . S
C1295 C1294 1.392 . S
N1296 Co1240 2.257 . S
N1296 C1293 1.391 . S
N1296 C1297 1.388 . S
C1297 H1268 0.930 . S
C1297 C1292 1.391 . S
C1297 N1296 1.388 . S
Co1298 O1300 2.143 . S
Co1298 O1306 2.074 . S
Co1298 O1309 2.093 . S
Co1298 O1322 2.097 . S
Co1298 N1339 2.151 . S
Co1298 N1347 2.214 . S
Co1299 O1300 2.160 . S
Co1299 O1305 2.058 . S
Co1299 O1315 2.057 . S
Co1299 O1330 2.037 . S
Co1299 N1334 2.145 . S
Co1299 N1355 2.257 . S
O1300 Co1298 2.143 . S
O1300 Co1299 2.160 . S
C1301 O1302 1.278 . S
C1301 O1309 1.224 . S
O1302 C1301 1.278 . S
C1303 O1304 1.245 . S
C1303 O1315 1.232 . S
O1304 C1303 1.245 . S
O1305 Co1299 2.058 . S
O1305 C1331 1.269 1_556 S
O1306 Co1298 2.074 . S
O1306 C1331 1.257 1_556 S
H1307 C1332 0.930 . S
H1308 C1338 0.930 . S
O1309 Co1298 2.093 . S
O1309 C1301 1.224 . S
H1310 C1342 0.929 . S
H1311 C1344 0.930 . S
H1312 C1345 0.930 . S
H1313 C1343 0.929 . S
H1314 C1346 0.928 . S
O1315 Co1299 2.057 . S
O1315 C1303 1.232 . S
H1316 C1335 0.929 . S
H1317 C1336 0.929 . S
H1318 C1348 0.931 . S
H1319 C1340 0.929 . S
H1320 C1349 0.930 . S
H1321 C1341 0.931 . S
O1322 Co1298 2.097 . S
O1322 C1350 1.214 . S
H1323 C1351 0.929 . S
H1324 C1352 0.929 . S
H1325 C1353 0.930 . S
H1326 C1354 0.929 . S
H1327 C1356 0.930 . S
H1328 C1333 0.930 . S
H1329 C1337 0.930 . S
O1330 Co1299 2.037 . S
O1330 C1350 1.234 . S
C1331 O1305 1.269 1_554 S
C1331 O1306 1.257 1_554 S
C1332 H1307 0.930 . S
C1332 C1335 1.388 . S
C1332 C1337 1.418 . S
C1333 H1328 0.930 . S
C1333 C1336 1.404 . S
C1333 C1337 1.353 . S
N1334 Co1299 2.145 . S
N1334 C1335 1.397 . S
N1334 C1336 1.334 . S
C1335 H1316 0.929 . S
C1335 C1332 1.388 . S
C1335 N1334 1.397 . S
C1336 H1317 0.929 . S
C1336 C1333 1.404 . S
C1336 N1334 1.334 . S
C1337 H1329 0.930 . S
C1337 C1332 1.418 . S
C1337 C1333 1.353 . S
C1338 H1308 0.930 . S
C1338 N1339 1.330 . S
C1338 C1340 1.446 1_556 S
N1339 Co1298 2.151 . S
N1339 C1338 1.330 . S
N1339 C1343 1.418 1_556 S
C1340 H1319 0.929 . S
C1340 C1338 1.446 1_554 S
C1340 C1341 1.332 . S
C1341 H1321 0.931 . S
C1341 C1340 1.332 . S
C1341 C1342 1.267 . S
C1342 H1310 0.929 . S
C1342 C1341 1.267 . S
C1342 C1343 1.251 . S
C1343 H1313 0.929 . S
C1343 N1339 1.418 1_554 S
C1343 C1342 1.251 . S
C1344 H1311 0.930 . S
C1344 C1346 1.406 . S
C1344 C1349 1.261 . S
C1345 H1312 0.930 . S
C1345 N1347 1.325 . S
C1345 C1348 1.357 . S
C1346 H1314 0.928 . S
C1346 C1344 1.406 . S
C1346 N1347 1.261 . S
N1347 Co1298 2.214 . S
N1347 C1345 1.325 . S
N1347 C1346 1.261 . S
C1348 H1318 0.931 . S
C1348 C1345 1.357 . S
C1348 C1349 1.312 . S
C1349 H1320 0.930 . S
C1349 C1344 1.261 . S
C1349 C1348 1.312 . S
C1350 O1322 1.214 . S
C1350 O1330 1.234 . S
C1351 H1323 0.929 . S
C1351 C1354 1.391 . S
C1351 C1356 1.391 . S
C1352 H1324 0.929 . S
C1352 C1353 1.390 . S
C1352 N1355 1.391 . S
C1353 H1325 0.930 . S
C1353 C1352 1.390 . S
C1353 C1354 1.392 . S
C1354 H1326 0.929 . S
C1354 C1351 1.391 . S
C1354 C1353 1.392 . S
N1355 Co1299 2.257 . S
N1355 C1352 1.391 . S
N1355 C1356 1.388 . S
C1356 H1327 0.930 . S
C1356 C1351 1.391 . S
C1356 N1355 1.388 . S
Co1357 O1359 2.143 . S
Co1357 O1365 2.074 . S
Co1357 O1368 2.093 . S
Co1357 O1381 2.097 . S
Co1357 N1398 2.151 . S
Co1357 N1406 2.214 . S
Co1358 O1359 2.160 . S
Co1358 O1364 2.058 . S
Co1358 O1374 2.057 . S
Co1358 O1389 2.037 . S
Co1358 N1393 2.145 . S
Co1358 N1414 2.257 . S
O1359 Co1357 2.143 . S
O1359 Co1358 2.160 . S
C1360 O1361 1.278 . S
C1360 O1368 1.224 . S
O1361 C1360 1.278 . S
C1362 O1363 1.245 . S
C1362 O1374 1.232 . S
O1363 C1362 1.245 . S
O1364 Co1358 2.058 . S
O1364 C1390 1.269 1_556 S
O1365 Co1357 2.074 . S
O1365 C1390 1.257 1_556 S
H1366 C1391 0.930 . S
H1367 C1397 0.930 . S
O1368 Co1357 2.093 . S
O1368 C1360 1.224 . S
H1369 C1401 0.929 . S
H1370 C1403 0.930 . S
H1371 C1404 0.930 . S
H1372 C1402 0.929 . S
H1373 C1405 0.928 . S
O1374 Co1358 2.057 . S
O1374 C1362 1.232 . S
H1375 C1394 0.929 . S
H1376 C1395 0.929 . S
H1377 C1407 0.931 . S
H1378 C1399 0.929 . S
H1379 C1408 0.930 . S
H1380 C1400 0.931 . S
O1381 Co1357 2.097 . S
O1381 C1409 1.214 . S
H1382 C1410 0.929 . S
H1383 C1411 0.929 . S
H1384 C1412 0.930 . S
H1385 C1413 0.929 . S
H1386 C1415 0.930 . S
H1387 C1392 0.930 . S
H1388 C1396 0.930 . S
O1389 Co1358 2.037 . S
O1389 C1409 1.234 . S
C1390 O1364 1.269 1_554 S
C1390 O1365 1.257 1_554 S
C1391 H1366 0.930 . S
C1391 C1394 1.388 . S
C1391 C1396 1.418 . S
C1392 H1387 0.930 . S
C1392 C1395 1.404 . S
C1392 C1396 1.353 . S
N1393 Co1358 2.145 . S
N1393 C1394 1.397 . S
N1393 C1395 1.334 . S
C1394 H1375 0.929 . S
C1394 C1391 1.388 . S
C1394 N1393 1.397 . S
C1395 H1376 0.929 . S
C1395 C1392 1.404 . S
C1395 N1393 1.334 . S
C1396 H1388 0.930 . S
C1396 C1391 1.418 . S
C1396 C1392 1.353 . S
C1397 H1367 0.930 . S
C1397 N1398 1.330 . S
C1397 C1399 1.446 1_556 S
N1398 Co1357 2.151 . S
N1398 C1397 1.330 . S
N1398 C1402 1.418 1_556 S
C1399 H1378 0.929 . S
C1399 C1397 1.446 1_554 S
C1399 C1400 1.332 . S
C1400 H1380 0.931 . S
C1400 C1399 1.332 . S
C1400 C1401 1.267 . S
C1401 H1369 0.929 . S
C1401 C1400 1.267 . S
C1401 C1402 1.251 . S
C1402 H1372 0.929 . S
C1402 N1398 1.418 1_554 S
C1402 C1401 1.251 . S
C1403 H1370 0.930 . S
C1403 C1405 1.406 . S
C1403 C1408 1.261 . S
C1404 H1371 0.930 . S
C1404 N1406 1.325 . S
C1404 C1407 1.357 . S
C1405 H1373 0.928 . S
C1405 C1403 1.406 . S
C1405 N1406 1.261 . S
N1406 Co1357 2.214 . S
N1406 C1404 1.325 . S
N1406 C1405 1.261 . S
C1407 H1377 0.931 . S
C1407 C1404 1.357 . S
C1407 C1408 1.312 . S
C1408 H1379 0.930 . S
C1408 C1403 1.261 . S
C1408 C1407 1.312 . S
C1409 O1381 1.214 . S
C1409 O1389 1.234 . S
C1410 H1382 0.929 . S
C1410 C1413 1.391 . S
C1410 C1415 1.391 . S
C1411 H1383 0.929 . S
C1411 C1412 1.390 . S
C1411 N1414 1.391 . S
C1412 H1384 0.930 . S
C1412 C1411 1.390 . S
C1412 C1413 1.392 . S
C1413 H1385 0.929 . S
C1413 C1410 1.391 . S
C1413 C1412 1.392 . S
N1414 Co1358 2.257 . S
N1414 C1411 1.391 . S
N1414 C1415 1.388 . S
C1415 H1386 0.930 . S
C1415 C1410 1.391 . S
C1415 N1414 1.388 . S
Co1416 O1418 2.143 . S
Co1416 O1424 2.074 . S
Co1416 O1427 2.093 . S
Co1416 O1440 2.097 . S
Co1416 N1457 2.151 . S
Co1416 N1465 2.214 . S
Co1417 O1418 2.160 . S
Co1417 O1423 2.058 . S
Co1417 O1433 2.057 . S
Co1417 O1448 2.037 . S
Co1417 N1452 2.145 . S
Co1417 N1473 2.257 . S
O1418 Co1416 2.143 . S
O1418 Co1417 2.160 . S
C1419 O1420 1.278 . S
C1419 O1427 1.224 . S
O1420 C1419 1.278 . S
C1421 O1422 1.245 . S
C1421 O1433 1.232 . S
O1422 C1421 1.245 . S
O1423 Co1417 2.058 . S
O1423 C1449 1.269 . S
O1424 Co1416 2.074 . S
O1424 C1449 1.257 . S
H1425 C1450 0.930 . S
H1426 C1456 0.930 . S
O1427 Co1416 2.093 . S
O1427 C1419 1.224 . S
H1428 C1460 0.929 . S
H1429 C1462 0.930 . S
H1430 C1463 0.930 . S
H1431 C1461 0.929 . S
H1432 C1464 0.928 . S
O1433 Co1417 2.057 . S
O1433 C1421 1.232 . S
H1434 C1453 0.929 . S
H1435 C1454 0.929 . S
H1436 C1466 0.931 . S
H1437 C1458 0.929 . S
H1438 C1467 0.930 . S
H1439 C1459 0.931 . S
O1440 Co1416 2.097 . S
O1440 C1468 1.214 . S
H1441 C1469 0.929 . S
H1442 C1470 0.929 . S
H1443 C1471 0.930 . S
H1444 C1472 0.929 . S
H1445 C1474 0.930 . S
H1446 C1451 0.930 . S
H1447 C1455 0.930 . S
O1448 Co1417 2.037 . S
O1448 C1468 1.234 . S
C1449 O1423 1.269 . S
C1449 O1424 1.257 . S
C1450 H1425 0.930 . S
C1450 C1453 1.388 . S
C1450 C1455 1.418 . S
C1451 H1446 0.930 . S
C1451 C1454 1.404 . S
C1451 C1455 1.353 . S
N1452 Co1417 2.145 . S
N1452 C1453 1.397 . S
N1452 C1454 1.334 . S
C1453 H1434 0.929 . S
C1453 C1450 1.388 . S
C1453 N1452 1.397 . S
C1454 H1435 0.929 . S
C1454 C1451 1.404 . S
C1454 N1452 1.334 . S
C1455 H1447 0.930 . S
C1455 C1450 1.418 . S
C1455 C1451 1.353 . S
C1456 H1426 0.930 . S
C1456 N1457 1.330 . S
C1456 C1458 1.446 . S
N1457 Co1416 2.151 . S
N1457 C1456 1.330 . S
N1457 C1461 1.418 . S
C1458 H1437 0.929 . S
C1458 C1456 1.446 . S
C1458 C1459 1.332 . S
C1459 H1439 0.931 . S
C1459 C1458 1.332 . S
C1459 C1460 1.267 . S
C1460 H1428 0.929 . S
C1460 C1459 1.267 . S
C1460 C1461 1.251 . S
C1461 H1431 0.929 . S
C1461 N1457 1.418 . S
C1461 C1460 1.251 . S
C1462 H1429 0.930 . S
C1462 C1464 1.406 . S
C1462 C1467 1.261 . S
C1463 H1430 0.930 . S
C1463 N1465 1.325 . S
C1463 C1466 1.357 . S
C1464 H1432 0.928 . S
C1464 C1462 1.406 . S
C1464 N1465 1.261 . S
N1465 Co1416 2.214 . S
N1465 C1463 1.325 . S
N1465 C1464 1.261 . S
C1466 H1436 0.931 . S
C1466 C1463 1.357 . S
C1466 C1467 1.312 . S
C1467 H1438 0.930 . S
C1467 C1462 1.261 . S
C1467 C1466 1.312 . S
C1468 O1440 1.214 . S
C1468 O1448 1.234 . S
C1469 H1441 0.929 . S
C1469 C1472 1.391 . S
C1469 C1474 1.391 . S
C1470 H1442 0.929 . S
C1470 C1471 1.390 . S
C1470 N1473 1.391 . S
C1471 H1443 0.930 . S
C1471 C1470 1.390 . S
C1471 C1472 1.392 . S
C1472 H1444 0.929 . S
C1472 C1469 1.391 . S
C1472 C1471 1.392 . S
N1473 Co1417 2.257 . S
N1473 C1470 1.391 . S
N1473 C1474 1.388 . S
C1474 H1445 0.930 . S
C1474 C1469 1.391 . S
C1474 N1473 1.388 . S
Co1475 O1477 2.143 . S
Co1475 O1483 2.074 . S
Co1475 O1486 2.093 . S
Co1475 O1499 2.097 . S
Co1475 N1516 2.151 . S
Co1475 N1524 2.214 . S
Co1476 O1477 2.160 . S
Co1476 O1482 2.058 . S
Co1476 O1492 2.057 . S
Co1476 O1507 2.037 . S
Co1476 N1511 2.145 . S
Co1476 N1532 2.257 . S
O1477 Co1475 2.143 . S
O1477 Co1476 2.160 . S
C1478 O1479 1.278 . S
C1478 O1486 1.224 . S
O1479 C1478 1.278 . S
C1480 O1481 1.245 . S
C1480 O1492 1.232 . S
O1481 C1480 1.245 . S
O1482 Co1476 2.058 . S
O1482 C1508 1.269 . S
O1483 Co1475 2.074 . S
O1483 C1508 1.257 . S
H1484 C1509 0.930 . S
H1485 C1515 0.930 . S
O1486 Co1475 2.093 . S
O1486 C1478 1.224 . S
H1487 C1519 0.929 . S
H1488 C1521 0.930 . S
H1489 C1522 0.930 . S
H1490 C1520 0.929 . S
H1491 C1523 0.928 . S
O1492 Co1476 2.057 . S
O1492 C1480 1.232 . S
H1493 C1512 0.929 . S
H1494 C1513 0.929 . S
H1495 C1525 0.931 . S
H1496 C1517 0.929 . S
H1497 C1526 0.930 . S
H1498 C1518 0.931 . S
O1499 Co1475 2.097 . S
O1499 C1527 1.214 . S
H1500 C1528 0.929 . S
H1501 C1529 0.929 . S
H1502 C1530 0.930 . S
H1503 C1531 0.929 . S
H1504 C1533 0.930 . S
H1505 C1510 0.930 . S
H1506 C1514 0.930 . S
O1507 Co1476 2.037 . S
O1507 C1527 1.234 . S
C1508 O1482 1.269 . S
C1508 O1483 1.257 . S
C1509 H1484 0.930 . S
C1509 C1512 1.388 . S
C1509 C1514 1.418 . S
C1510 H1505 0.930 . S
C1510 C1513 1.404 . S
C1510 C1514 1.353 . S
N1511 Co1476 2.145 . S
N1511 C1512 1.397 . S
N1511 C1513 1.334 . S
C1512 H1493 0.929 . S
C1512 C1509 1.388 . S
C1512 N1511 1.397 . S
C1513 H1494 0.929 . S
C1513 C1510 1.404 . S
C1513 N1511 1.334 . S
C1514 H1506 0.930 . S
C1514 C1509 1.418 . S
C1514 C1510 1.353 . S
C1515 H1485 0.930 . S
C1515 N1516 1.330 . S
C1515 C1517 1.446 . S
N1516 Co1475 2.151 . S
N1516 C1515 1.330 . S
N1516 C1520 1.418 . S
C1517 H1496 0.929 . S
C1517 C1515 1.446 . S
C1517 C1518 1.332 . S
C1518 H1498 0.931 . S
C1518 C1517 1.332 . S
C1518 C1519 1.267 . S
C1519 H1487 0.929 . S
C1519 C1518 1.267 . S
C1519 C1520 1.251 . S
C1520 H1490 0.929 . S
C1520 N1516 1.418 . S
C1520 C1519 1.251 . S
C1521 H1488 0.930 . S
C1521 C1523 1.406 . S
C1521 C1526 1.261 . S
C1522 H1489 0.930 . S
C1522 N1524 1.325 . S
C1522 C1525 1.357 . S
C1523 H1491 0.928 . S
C1523 C1521 1.406 . S
C1523 N1524 1.261 . S
N1524 Co1475 2.214 . S
N1524 C1522 1.325 . S
N1524 C1523 1.261 . S
C1525 H1495 0.931 . S
C1525 C1522 1.357 . S
C1525 C1526 1.312 . S
C1526 H1497 0.930 . S
C1526 C1521 1.261 . S
C1526 C1525 1.312 . S
C1527 O1499 1.214 . S
C1527 O1507 1.234 . S
C1528 H1500 0.929 . S
C1528 C1531 1.391 . S
C1528 C1533 1.391 . S
C1529 H1501 0.929 . S
C1529 C1530 1.390 . S
C1529 N1532 1.391 . S
C1530 H1502 0.930 . S
C1530 C1529 1.390 . S
C1530 C1531 1.392 . S
C1531 H1503 0.929 . S
C1531 C1528 1.391 . S
C1531 C1530 1.392 . S
N1532 Co1476 2.257 . S
N1532 C1529 1.391 . S
N1532 C1533 1.388 . S
C1533 H1504 0.930 . S
C1533 C1528 1.391 . S
C1533 N1532 1.388 . S
Co1534 O1536 2.143 . S
Co1534 O1542 2.074 . S
Co1534 O1545 2.093 . S
Co1534 O1558 2.097 . S
Co1534 N1575 2.151 . S
Co1534 N1583 2.214 . S
Co1535 O1536 2.160 . S
Co1535 O1541 2.058 . S
Co1535 O1551 2.057 . S
Co1535 O1566 2.037 . S
Co1535 N1570 2.145 . S
Co1535 N1591 2.257 . S
O1536 Co1534 2.143 . S
O1536 Co1535 2.160 . S
C1537 O1538 1.278 . S
C1537 O1545 1.224 . S
O1538 C1537 1.278 . S
C1539 O1540 1.245 . S
C1539 O1551 1.232 . S
O1540 C1539 1.245 . S
O1541 Co1535 2.058 . S
O1541 C1567 1.269 . S
O1542 Co1534 2.074 . S
O1542 C1567 1.257 . S
H1543 C1568 0.930 . S
H1544 C1574 0.930 . S
O1545 Co1534 2.093 . S
O1545 C1537 1.224 . S
H1546 C1578 0.929 . S
H1547 C1580 0.930 . S
H1548 C1581 0.930 . S
H1549 C1579 0.929 . S
H1550 C1582 0.928 . S
O1551 Co1535 2.057 . S
O1551 C1539 1.232 . S
H1552 C1571 0.929 . S
H1553 C1572 0.929 . S
H1554 C1584 0.931 . S
H1555 C1576 0.929 . S
H1556 C1585 0.930 . S
H1557 C1577 0.931 . S
O1558 Co1534 2.097 . S
O1558 C1586 1.214 . S
H1559 C1587 0.929 . S
H1560 C1588 0.929 . S
H1561 C1589 0.930 . S
H1562 C1590 0.929 . S
H1563 C1592 0.930 . S
H1564 C1569 0.930 . S
H1565 C1573 0.930 . S
O1566 Co1535 2.037 . S
O1566 C1586 1.234 . S
C1567 O1541 1.269 . S
C1567 O1542 1.257 . S
C1568 H1543 0.930 . S
C1568 C1571 1.388 . S
C1568 C1573 1.418 . S
C1569 H1564 0.930 . S
C1569 C1572 1.404 . S
C1569 C1573 1.353 . S
N1570 Co1535 2.145 . S
N1570 C1571 1.397 . S
N1570 C1572 1.334 . S
C1571 H1552 0.929 . S
C1571 C1568 1.388 . S
C1571 N1570 1.397 . S
C1572 H1553 0.929 . S
C1572 C1569 1.404 . S
C1572 N1570 1.334 . S
C1573 H1565 0.930 . S
C1573 C1568 1.418 . S
C1573 C1569 1.353 . S
C1574 H1544 0.930 . S
C1574 N1575 1.330 . S
C1574 C1576 1.446 . S
N1575 Co1534 2.151 . S
N1575 C1574 1.330 . S
N1575 C1579 1.418 . S
C1576 H1555 0.929 . S
C1576 C1574 1.446 . S
C1576 C1577 1.332 . S
C1577 H1557 0.931 . S
C1577 C1576 1.332 . S
C1577 C1578 1.267 . S
C1578 H1546 0.929 . S
C1578 C1577 1.267 . S
C1578 C1579 1.251 . S
C1579 H1549 0.929 . S
C1579 N1575 1.418 . S
C1579 C1578 1.251 . S
C1580 H1547 0.930 . S
C1580 C1582 1.406 . S
C1580 C1585 1.261 . S
C1581 H1548 0.930 . S
C1581 N1583 1.325 . S
C1581 C1584 1.357 . S
C1582 H1550 0.928 . S
C1582 C1580 1.406 . S
C1582 N1583 1.261 . S
N1583 Co1534 2.214 . S
N1583 C1581 1.325 . S
N1583 C1582 1.261 . S
C1584 H1554 0.931 . S
C1584 C1581 1.357 . S
C1584 C1585 1.312 . S
C1585 H1556 0.930 . S
C1585 C1580 1.261 . S
C1585 C1584 1.312 . S
C1586 O1558 1.214 . S
C1586 O1566 1.234 . S
C1587 H1559 0.929 . S
C1587 C1590 1.391 . S
C1587 C1592 1.391 . S
C1588 H1560 0.929 . S
C1588 C1589 1.390 . S
C1588 N1591 1.391 . S
C1589 H1561 0.930 . S
C1589 C1588 1.390 . S
C1589 C1590 1.392 . S
C1590 H1562 0.929 . S
C1590 C1587 1.391 . S
C1590 C1589 1.392 . S
N1591 Co1535 2.257 . S
N1591 C1588 1.391 . S
N1591 C1592 1.388 . S
C1592 H1563 0.930 . S
C1592 C1587 1.391 . S
C1592 N1591 1.388 . S
Co1593 O1595 2.143 . S
Co1593 O1601 2.074 . S
Co1593 O1604 2.093 . S
Co1593 O1617 2.097 . S
Co1593 N1634 2.151 . S
Co1593 N1642 2.214 . S
Co1594 O1595 2.160 . S
Co1594 O1600 2.058 . S
Co1594 O1610 2.057 . S
Co1594 O1625 2.037 . S
Co1594 N1629 2.145 . S
Co1594 N1650 2.257 . S
O1595 Co1593 2.143 . S
O1595 Co1594 2.160 . S
C1596 O1597 1.278 . S
C1596 O1604 1.224 . S
O1597 C1596 1.278 . S
C1598 O1599 1.245 . S
C1598 O1610 1.232 . S
O1599 C1598 1.245 . S
O1600 Co1594 2.058 . S
O1600 C1626 1.269 1_554 S
O1601 Co1593 2.074 . S
O1601 C1626 1.257 1_554 S
H1602 C1627 0.930 . S
H1603 C1633 0.930 . S
O1604 Co1593 2.093 . S
O1604 C1596 1.224 . S
H1605 C1637 0.929 . S
H1606 C1639 0.930 . S
H1607 C1640 0.930 . S
H1608 C1638 0.929 . S
H1609 C1641 0.928 . S
O1610 Co1594 2.057 . S
O1610 C1598 1.232 . S
H1611 C1630 0.929 . S
H1612 C1631 0.929 . S
H1613 C1643 0.931 . S
H1614 C1635 0.929 . S
H1615 C1644 0.930 . S
H1616 C1636 0.931 . S
O1617 Co1593 2.097 . S
O1617 C1645 1.214 . S
H1618 C1646 0.929 . S
H1619 C1647 0.929 . S
H1620 C1648 0.930 . S
H1621 C1649 0.929 . S
H1622 C1651 0.930 . S
H1623 C1628 0.930 . S
H1624 C1632 0.930 . S
O1625 Co1594 2.037 . S
O1625 C1645 1.234 . S
C1626 O1600 1.269 1_556 S
C1626 O1601 1.257 1_556 S
C1627 H1602 0.930 . S
C1627 C1630 1.388 . S
C1627 C1632 1.418 . S
C1628 H1623 0.930 . S
C1628 C1631 1.404 . S
C1628 C1632 1.353 . S
N1629 Co1594 2.145 . S
N1629 C1630 1.397 . S
N1629 C1631 1.334 . S
C1630 H1611 0.929 . S
C1630 C1627 1.388 . S
C1630 N1629 1.397 . S
C1631 H1612 0.929 . S
C1631 C1628 1.404 . S
C1631 N1629 1.334 . S
C1632 H1624 0.930 . S
C1632 C1627 1.418 . S
C1632 C1628 1.353 . S
C1633 H1603 0.930 . S
C1633 N1634 1.330 . S
C1633 C1635 1.446 1_554 S
N1634 Co1593 2.151 . S
N1634 C1633 1.330 . S
N1634 C1638 1.418 1_554 S
C1635 H1614 0.929 . S
C1635 C1633 1.446 1_556 S
C1635 C1636 1.332 . S
C1636 H1616 0.931 . S
C1636 C1635 1.332 . S
C1636 C1637 1.267 . S
C1637 H1605 0.929 . S
C1637 C1636 1.267 . S
C1637 C1638 1.251 . S
C1638 H1608 0.929 . S
C1638 N1634 1.418 1_556 S
C1638 C1637 1.251 . S
C1639 H1606 0.930 . S
C1639 C1641 1.406 . S
C1639 C1644 1.261 . S
C1640 H1607 0.930 . S
C1640 N1642 1.325 . S
C1640 C1643 1.357 . S
C1641 H1609 0.928 . S
C1641 C1639 1.406 . S
C1641 N1642 1.261 . S
N1642 Co1593 2.214 . S
N1642 C1640 1.325 . S
N1642 C1641 1.261 . S
C1643 H1613 0.931 . S
C1643 C1640 1.357 . S
C1643 C1644 1.312 . S
C1644 H1615 0.930 . S
C1644 C1639 1.261 . S
C1644 C1643 1.312 . S
C1645 O1617 1.214 . S
C1645 O1625 1.234 . S
C1646 H1618 0.929 . S
C1646 C1649 1.391 . S
C1646 C1651 1.391 . S
C1647 H1619 0.929 . S
C1647 C1648 1.390 . S
C1647 N1650 1.391 . S
C1648 H1620 0.930 . S
C1648 C1647 1.390 . S
C1648 C1649 1.392 . S
C1649 H1621 0.929 . S
C1649 C1646 1.391 . S
C1649 C1648 1.392 . S
N1650 Co1594 2.257 . S
N1650 C1647 1.391 . S
N1650 C1651 1.388 . S
C1651 H1622 0.930 . S
C1651 C1646 1.391 . S
C1651 N1650 1.388 . S
Co1652 O1654 2.143 . S
Co1652 O1660 2.074 . S
Co1652 O1663 2.093 . S
Co1652 O1676 2.097 . S
Co1652 N1693 2.151 . S
Co1652 N1701 2.214 . S
Co1653 O1654 2.160 . S
Co1653 O1659 2.058 . S
Co1653 O1669 2.057 . S
Co1653 O1684 2.037 . S
Co1653 N1688 2.145 . S
Co1653 N1709 2.257 . S
O1654 Co1652 2.143 . S
O1654 Co1653 2.160 . S
C1655 O1656 1.278 . S
C1655 O1663 1.224 . S
O1656 C1655 1.278 . S
C1657 O1658 1.245 . S
C1657 O1669 1.232 . S
O1658 C1657 1.245 . S
O1659 Co1653 2.058 . S
O1659 C1685 1.269 1_554 S
O1660 Co1652 2.074 . S
O1660 C1685 1.257 1_554 S
H1661 C1686 0.930 . S
H1662 C1692 0.930 . S
O1663 Co1652 2.093 . S
O1663 C1655 1.224 . S
H1664 C1696 0.929 . S
H1665 C1698 0.930 . S
H1666 C1699 0.930 . S
H1667 C1697 0.929 . S
H1668 C1700 0.928 . S
O1669 Co1653 2.057 . S
O1669 C1657 1.232 . S
H1670 C1689 0.929 . S
H1671 C1690 0.929 . S
H1672 C1702 0.931 . S
H1673 C1694 0.929 . S
H1674 C1703 0.930 . S
H1675 C1695 0.931 . S
O1676 Co1652 2.097 . S
O1676 C1704 1.214 . S
H1677 C1705 0.929 . S
H1678 C1706 0.929 . S
H1679 C1707 0.930 . S
H1680 C1708 0.929 . S
H1681 C1710 0.930 . S
H1682 C1687 0.930 . S
H1683 C1691 0.930 . S
O1684 Co1653 2.037 . S
O1684 C1704 1.234 . S
C1685 O1659 1.269 1_556 S
C1685 O1660 1.257 1_556 S
C1686 H1661 0.930 . S
C1686 C1689 1.388 . S
C1686 C1691 1.418 . S
C1687 H1682 0.930 . S
C1687 C1690 1.404 . S
C1687 C1691 1.353 . S
N1688 Co1653 2.145 . S
N1688 C1689 1.397 . S
N1688 C1690 1.334 . S
C1689 H1670 0.929 . S
C1689 C1686 1.388 . S
C1689 N1688 1.397 . S
C1690 H1671 0.929 . S
C1690 C1687 1.404 . S
C1690 N1688 1.334 . S
C1691 H1683 0.930 . S
C1691 C1686 1.418 . S
C1691 C1687 1.353 . S
C1692 H1662 0.930 . S
C1692 N1693 1.330 . S
C1692 C1694 1.446 1_554 S
N1693 Co1652 2.151 . S
N1693 C1692 1.330 . S
N1693 C1697 1.418 1_554 S
C1694 H1673 0.929 . S
C1694 C1692 1.446 1_556 S
C1694 C1695 1.332 . S
C1695 H1675 0.931 . S
C1695 C1694 1.332 . S
C1695 C1696 1.267 . S
C1696 H1664 0.929 . S
C1696 C1695 1.267 . S
C1696 C1697 1.251 . S
C1697 H1667 0.929 . S
C1697 N1693 1.418 1_556 S
C1697 C1696 1.251 . S
C1698 H1665 0.930 . S
C1698 C1700 1.406 . S
C1698 C1703 1.261 . S
C1699 H1666 0.930 . S
C1699 N1701 1.325 . S
C1699 C1702 1.357 . S
C1700 H1668 0.928 . S
C1700 C1698 1.406 . S
C1700 N1701 1.261 . S
N1701 Co1652 2.214 . S
N1701 C1699 1.325 . S
N1701 C1700 1.261 . S
C1702 H1672 0.931 . S
C1702 C1699 1.357 . S
C1702 C1703 1.312 . S
C1703 H1674 0.930 . S
C1703 C1698 1.261 . S
C1703 C1702 1.312 . S
C1704 O1676 1.214 . S
C1704 O1684 1.234 . S
C1705 H1677 0.929 . S
C1705 C1708 1.391 . S
C1705 C1710 1.391 . S
C1706 H1678 0.929 . S
C1706 C1707 1.390 . S
C1706 N1709 1.391 . S
C1707 H1679 0.930 . S
C1707 C1706 1.390 . S
C1707 C1708 1.392 . S
C1708 H1680 0.929 . S
C1708 C1705 1.391 . S
C1708 C1707 1.392 . S
N1709 Co1653 2.257 . S
N1709 C1706 1.391 . S
N1709 C1710 1.388 . S
C1710 H1681 0.930 . S
C1710 C1705 1.391 . S
C1710 N1709 1.388 . S
Co1711 O1713 2.143 . S
Co1711 O1719 2.074 . S
Co1711 O1722 2.093 . S
Co1711 O1735 2.097 . S
Co1711 N1752 2.151 . S
Co1711 N1760 2.214 . S
Co1712 O1713 2.160 . S
Co1712 O1718 2.058 . S
Co1712 O1728 2.057 . S
Co1712 O1743 2.037 . S
Co1712 N1747 2.145 . S
Co1712 N1768 2.257 . S
O1713 Co1711 2.143 . S
O1713 Co1712 2.160 . S
C1714 O1715 1.278 . S
C1714 O1722 1.224 . S
O1715 C1714 1.278 . S
C1716 O1717 1.245 . S
C1716 O1728 1.232 . S
O1717 C1716 1.245 . S
O1718 Co1712 2.058 . S
O1718 C1744 1.269 1_554 S
O1719 Co1711 2.074 . S
O1719 C1744 1.257 1_554 S
H1720 C1745 0.930 . S
H1721 C1751 0.930 . S
O1722 Co1711 2.093 . S
O1722 C1714 1.224 . S
H1723 C1755 0.929 . S
H1724 C1757 0.930 . S
H1725 C1758 0.930 . S
H1726 C1756 0.929 . S
H1727 C1759 0.928 . S
O1728 Co1712 2.057 . S
O1728 C1716 1.232 . S
H1729 C1748 0.929 . S
H1730 C1749 0.929 . S
H1731 C1761 0.931 . S
H1732 C1753 0.929 . S
H1733 C1762 0.930 . S
H1734 C1754 0.931 . S
O1735 Co1711 2.097 . S
O1735 C1763 1.214 . S
H1736 C1764 0.929 . S
H1737 C1765 0.929 . S
H1738 C1766 0.930 . S
H1739 C1767 0.929 . S
H1740 C1769 0.930 . S
H1741 C1746 0.930 . S
H1742 C1750 0.930 . S
O1743 Co1712 2.037 . S
O1743 C1763 1.234 . S
C1744 O1718 1.269 1_556 S
C1744 O1719 1.257 1_556 S
C1745 H1720 0.930 . S
C1745 C1748 1.388 . S
C1745 C1750 1.418 . S
C1746 H1741 0.930 . S
C1746 C1749 1.404 . S
C1746 C1750 1.353 . S
N1747 Co1712 2.145 . S
N1747 C1748 1.397 . S
N1747 C1749 1.334 . S
C1748 H1729 0.929 . S
C1748 C1745 1.388 . S
C1748 N1747 1.397 . S
C1749 H1730 0.929 . S
C1749 C1746 1.404 . S
C1749 N1747 1.334 . S
C1750 H1742 0.930 . S
C1750 C1745 1.418 . S
C1750 C1746 1.353 . S
C1751 H1721 0.930 . S
C1751 N1752 1.330 . S
C1751 C1753 1.446 1_554 S
N1752 Co1711 2.151 . S
N1752 C1751 1.330 . S
N1752 C1756 1.418 1_554 S
C1753 H1732 0.929 . S
C1753 C1751 1.446 1_556 S
C1753 C1754 1.332 . S
C1754 H1734 0.931 . S
C1754 C1753 1.332 . S
C1754 C1755 1.267 . S
C1755 H1723 0.929 . S
C1755 C1754 1.267 . S
C1755 C1756 1.251 . S
C1756 H1726 0.929 . S
C1756 N1752 1.418 1_556 S
C1756 C1755 1.251 . S
C1757 H1724 0.930 . S
C1757 C1759 1.406 . S
C1757 C1762 1.261 . S
C1758 H1725 0.930 . S
C1758 N1760 1.325 . S
C1758 C1761 1.357 . S
C1759 H1727 0.928 . S
C1759 C1757 1.406 . S
C1759 N1760 1.261 . S
N1760 Co1711 2.214 . S
N1760 C1758 1.325 . S
N1760 C1759 1.261 . S
C1761 H1731 0.931 . S
C1761 C1758 1.357 . S
C1761 C1762 1.312 . S
C1762 H1733 0.930 . S
C1762 C1757 1.261 . S
C1762 C1761 1.312 . S
C1763 O1735 1.214 . S
C1763 O1743 1.234 . S
C1764 H1736 0.929 . S
C1764 C1767 1.391 . S
C1764 C1769 1.391 . S
C1765 H1737 0.929 . S
C1765 C1766 1.390 . S
C1765 N1768 1.391 . S
C1766 H1738 0.930 . S
C1766 C1765 1.390 . S
C1766 C1767 1.392 . S
C1767 H1739 0.929 . S
C1767 C1764 1.391 . S
C1767 C1766 1.392 . S
N1768 Co1712 2.257 . S
N1768 C1765 1.391 . S
N1768 C1769 1.388 . S
C1769 H1740 0.930 . S
C1769 C1764 1.391 . S
C1769 N1768 1.388 . S
Co1770 O1772 2.143 . S
Co1770 O1778 2.074 . S
Co1770 O1781 2.093 . S
Co1770 O1794 2.097 . S
Co1770 N1811 2.151 . S
Co1770 N1819 2.214 . S
Co1771 O1772 2.160 . S
Co1771 O1777 2.058 . S
Co1771 O1787 2.057 . S
Co1771 O1802 2.037 . S
Co1771 N1806 2.145 . S
Co1771 N1827 2.257 . S
O1772 Co1770 2.143 . S
O1772 Co1771 2.160 . S
C1773 O1774 1.278 . S
C1773 O1781 1.224 . S
O1774 C1773 1.278 . S
C1775 O1776 1.245 . S
C1775 O1787 1.232 . S
O1776 C1775 1.245 . S
O1777 Co1771 2.058 . S
O1777 C1803 1.269 . S
O1778 Co1770 2.074 . S
O1778 C1803 1.257 . S
H1779 C1804 0.930 . S
H1780 C1810 0.930 . S
O1781 Co1770 2.093 . S
O1781 C1773 1.224 . S
H1782 C1814 0.929 . S
H1783 C1816 0.930 . S
H1784 C1817 0.930 . S
H1785 C1815 0.929 . S
H1786 C1818 0.928 . S
O1787 Co1771 2.057 . S
O1787 C1775 1.232 . S
H1788 C1807 0.929 . S
H1789 C1808 0.929 . S
H1790 C1820 0.931 . S
H1791 C1812 0.929 . S
H1792 C1821 0.930 . S
H1793 C1813 0.931 . S
O1794 Co1770 2.097 . S
O1794 C1822 1.214 . S
H1795 C1823 0.929 . S
H1796 C1824 0.929 . S
H1797 C1825 0.930 . S
H1798 C1826 0.929 . S
H1799 C1828 0.930 . S
H1800 C1805 0.930 . S
H1801 C1809 0.930 . S
O1802 Co1771 2.037 . S
O1802 C1822 1.234 . S
C1803 O1777 1.269 . S
C1803 O1778 1.257 . S
C1804 H1779 0.930 . S
C1804 C1807 1.388 . S
C1804 C1809 1.418 . S
C1805 H1800 0.930 . S
C1805 C1808 1.404 . S
C1805 C1809 1.353 . S
N1806 Co1771 2.145 . S
N1806 C1807 1.397 . S
N1806 C1808 1.334 . S
C1807 H1788 0.929 . S
C1807 C1804 1.388 . S
C1807 N1806 1.397 . S
C1808 H1789 0.929 . S
C1808 C1805 1.404 . S
C1808 N1806 1.334 . S
C1809 H1801 0.930 . S
C1809 C1804 1.418 . S
C1809 C1805 1.353 . S
C1810 H1780 0.930 . S
C1810 N1811 1.330 . S
C1810 C1812 1.446 . S
N1811 Co1770 2.151 . S
N1811 C1810 1.330 . S
N1811 C1815 1.418 . S
C1812 H1791 0.929 . S
C1812 C1810 1.446 . S
C1812 C1813 1.332 . S
C1813 H1793 0.931 . S
C1813 C1812 1.332 . S
C1813 C1814 1.267 . S
C1814 H1782 0.929 . S
C1814 C1813 1.267 . S
C1814 C1815 1.251 . S
C1815 H1785 0.929 . S
C1815 N1811 1.418 . S
C1815 C1814 1.251 . S
C1816 H1783 0.930 . S
C1816 C1818 1.406 . S
C1816 C1821 1.261 . S
C1817 H1784 0.930 . S
C1817 N1819 1.325 . S
C1817 C1820 1.357 . S
C1818 H1786 0.928 . S
C1818 C1816 1.406 . S
C1818 N1819 1.261 . S
N1819 Co1770 2.214 . S
N1819 C1817 1.325 . S
N1819 C1818 1.261 . S
C1820 H1790 0.931 . S
C1820 C1817 1.357 . S
C1820 C1821 1.312 . S
C1821 H1792 0.930 . S
C1821 C1816 1.261 . S
C1821 C1820 1.312 . S
C1822 O1794 1.214 . S
C1822 O1802 1.234 . S
C1823 H1795 0.929 . S
C1823 C1826 1.391 . S
C1823 C1828 1.391 . S
C1824 H1796 0.929 . S
C1824 C1825 1.390 . S
C1824 N1827 1.391 . S
C1825 H1797 0.930 . S
C1825 C1824 1.390 . S
C1825 C1826 1.392 . S
C1826 H1798 0.929 . S
C1826 C1823 1.391 . S
C1826 C1825 1.392 . S
N1827 Co1771 2.257 . S
N1827 C1824 1.391 . S
N1827 C1828 1.388 . S
C1828 H1799 0.930 . S
C1828 C1823 1.391 . S
C1828 N1827 1.388 . S
Co1829 O1831 2.143 . S
Co1829 O1837 2.074 . S
Co1829 O1840 2.093 . S
Co1829 O1853 2.097 . S
Co1829 N1870 2.151 . S
Co1829 N1878 2.214 . S
Co1830 O1831 2.160 . S
Co1830 O1836 2.058 . S
Co1830 O1846 2.057 . S
Co1830 O1861 2.037 . S
Co1830 N1865 2.145 . S
Co1830 N1886 2.257 . S
O1831 Co1829 2.143 . S
O1831 Co1830 2.160 . S
C1832 O1833 1.278 . S
C1832 O1840 1.224 . S
O1833 C1832 1.278 . S
C1834 O1835 1.245 . S
C1834 O1846 1.232 . S
O1835 C1834 1.245 . S
O1836 Co1830 2.058 . S
O1836 C1862 1.269 . S
O1837 Co1829 2.074 . S
O1837 C1862 1.257 . S
H1838 C1863 0.930 . S
H1839 C1869 0.930 . S
O1840 Co1829 2.093 . S
O1840 C1832 1.224 . S
H1841 C1873 0.929 . S
H1842 C1875 0.930 . S
H1843 C1876 0.930 . S
H1844 C1874 0.929 . S
H1845 C1877 0.928 . S
O1846 Co1830 2.057 . S
O1846 C1834 1.232 . S
H1847 C1866 0.929 . S
H1848 C1867 0.929 . S
H1849 C1879 0.931 . S
H1850 C1871 0.929 . S
H1851 C1880 0.930 . S
H1852 C1872 0.931 . S
O1853 Co1829 2.097 . S
O1853 C1881 1.214 . S
H1854 C1882 0.929 . S
H1855 C1883 0.929 . S
H1856 C1884 0.930 . S
H1857 C1885 0.929 . S
H1858 C1887 0.930 . S
H1859 C1864 0.930 . S
H1860 C1868 0.930 . S
O1861 Co1830 2.037 . S
O1861 C1881 1.234 . S
C1862 O1836 1.269 . S
C1862 O1837 1.257 . S
C1863 H1838 0.930 . S
C1863 C1866 1.388 . S
C1863 C1868 1.418 . S
C1864 H1859 0.930 . S
C1864 C1867 1.404 . S
C1864 C1868 1.353 . S
N1865 Co1830 2.145 . S
N1865 C1866 1.397 . S
N1865 C1867 1.334 . S
C1866 H1847 0.929 . S
C1866 C1863 1.388 . S
C1866 N1865 1.397 . S
C1867 H1848 0.929 . S
C1867 C1864 1.404 . S
C1867 N1865 1.334 . S
C1868 H1860 0.930 . S
C1868 C1863 1.418 . S
C1868 C1864 1.353 . S
C1869 H1839 0.930 . S
C1869 N1870 1.330 . S
C1869 C1871 1.446 . S
N1870 Co1829 2.151 . S
N1870 C1869 1.330 . S
N1870 C1874 1.418 . S
C1871 H1850 0.929 . S
C1871 C1869 1.446 . S
C1871 C1872 1.332 . S
C1872 H1852 0.931 . S
C1872 C1871 1.332 . S
C1872 C1873 1.267 . S
C1873 H1841 0.929 . S
C1873 C1872 1.267 . S
C1873 C1874 1.251 . S
C1874 H1844 0.929 . S
C1874 N1870 1.418 . S
C1874 C1873 1.251 . S
C1875 H1842 0.930 . S
C1875 C1877 1.406 . S
C1875 C1880 1.261 . S
C1876 H1843 0.930 . S
C1876 N1878 1.325 . S
C1876 C1879 1.357 . S
C1877 H1845 0.928 . S
C1877 C1875 1.406 . S
C1877 N1878 1.261 . S
N1878 Co1829 2.214 . S
N1878 C1876 1.325 . S
N1878 C1877 1.261 . S
C1879 H1849 0.931 . S
C1879 C1876 1.357 . S
C1879 C1880 1.312 . S
C1880 H1851 0.930 . S
C1880 C1875 1.261 . S
C1880 C1879 1.312 . S
C1881 O1853 1.214 . S
C1881 O1861 1.234 . S
C1882 H1854 0.929 . S
C1882 C1885 1.391 . S
C1882 C1887 1.391 . S
C1883 H1855 0.929 . S
C1883 C1884 1.390 . S
C1883 N1886 1.391 . S
C1884 H1856 0.930 . S
C1884 C1883 1.390 . S
C1884 C1885 1.392 . S
C1885 H1857 0.929 . S
C1885 C1882 1.391 . S
C1885 C1884 1.392 . S
N1886 Co1830 2.257 . S
N1886 C1883 1.391 . S
N1886 C1887 1.388 . S
C1887 H1858 0.930 . S
C1887 C1882 1.391 . S
C1887 N1886 1.388 . S
Co1888 O1890 2.143 . S
Co1888 O1896 2.074 . S
Co1888 O1899 2.093 . S
Co1888 O1912 2.097 . S
Co1888 N1929 2.151 . S
Co1888 N1937 2.214 . S
Co1889 O1890 2.160 . S
Co1889 O1895 2.058 . S
Co1889 O1905 2.057 . S
Co1889 O1920 2.037 . S
Co1889 N1924 2.145 . S
Co1889 N1945 2.257 . S
O1890 Co1888 2.143 . S
O1890 Co1889 2.160 . S
C1891 O1892 1.278 . S
C1891 O1899 1.224 . S
O1892 C1891 1.278 . S
C1893 O1894 1.245 . S
C1893 O1905 1.232 . S
O1894 C1893 1.245 . S
O1895 Co1889 2.058 . S
O1895 C1921 1.269 . S
O1896 Co1888 2.074 . S
O1896 C1921 1.257 . S
H1897 C1922 0.930 . S
H1898 C1928 0.930 . S
O1899 Co1888 2.093 . S
O1899 C1891 1.224 . S
H1900 C1932 0.929 . S
H1901 C1934 0.930 . S
H1902 C1935 0.930 . S
H1903 C1933 0.929 . S
H1904 C1936 0.928 . S
O1905 Co1889 2.057 . S
O1905 C1893 1.232 . S
H1906 C1925 0.929 . S
H1907 C1926 0.929 . S
H1908 C1938 0.931 . S
H1909 C1930 0.929 . S
H1910 C1939 0.930 . S
H1911 C1931 0.931 . S
O1912 Co1888 2.097 . S
O1912 C1940 1.214 . S
H1913 C1941 0.929 . S
H1914 C1942 0.929 . S
H1915 C1943 0.930 . S
H1916 C1944 0.929 . S
H1917 C1946 0.930 . S
H1918 C1923 0.930 . S
H1919 C1927 0.930 . S
O1920 Co1889 2.037 . S
O1920 C1940 1.234 . S
C1921 O1895 1.269 . S
C1921 O1896 1.257 . S
C1922 H1897 0.930 . S
C1922 C1925 1.388 . S
C1922 C1927 1.418 . S
C1923 H1918 0.930 . S
C1923 C1926 1.404 . S
C1923 C1927 1.353 . S
N1924 Co1889 2.145 . S
N1924 C1925 1.397 . S
N1924 C1926 1.334 . S
C1925 H1906 0.929 . S
C1925 C1922 1.388 . S
C1925 N1924 1.397 . S
C1926 H1907 0.929 . S
C1926 C1923 1.404 . S
C1926 N1924 1.334 . S
C1927 H1919 0.930 . S
C1927 C1922 1.418 . S
C1927 C1923 1.353 . S
C1928 H1898 0.930 . S
C1928 N1929 1.330 . S
C1928 C1930 1.446 . S
N1929 Co1888 2.151 . S
N1929 C1928 1.330 . S
N1929 C1933 1.418 . S
C1930 H1909 0.929 . S
C1930 C1928 1.446 . S
C1930 C1931 1.332 . S
C1931 H1911 0.931 . S
C1931 C1930 1.332 . S
C1931 C1932 1.267 . S
C1932 H1900 0.929 . S
C1932 C1931 1.267 . S
C1932 C1933 1.251 . S
C1933 H1903 0.929 . S
C1933 N1929 1.418 . S
C1933 C1932 1.251 . S
C1934 H1901 0.930 . S
C1934 C1936 1.406 . S
C1934 C1939 1.261 . S
C1935 H1902 0.930 . S
C1935 N1937 1.325 . S
C1935 C1938 1.357 . S
C1936 H1904 0.928 . S
C1936 C1934 1.406 . S
C1936 N1937 1.261 . S
N1937 Co1888 2.214 . S
N1937 C1935 1.325 . S
N1937 C1936 1.261 . S
C1938 H1908 0.931 . S
C1938 C1935 1.357 . S
C1938 C1939 1.312 . S
C1939 H1910 0.930 . S
C1939 C1934 1.261 . S
C1939 C1938 1.312 . S
C1940 O1912 1.214 . S
C1940 O1920 1.234 . S
C1941 H1913 0.929 . S
C1941 C1944 1.391 . S
C1941 C1946 1.391 . S
C1942 H1914 0.929 . S
C1942 C1943 1.390 . S
C1942 N1945 1.391 . S
C1943 H1915 0.930 . S
C1943 C1942 1.390 . S
C1943 C1944 1.392 . S
C1944 H1916 0.929 . S
C1944 C1941 1.391 . S
C1944 C1943 1.392 . S
N1945 Co1889 2.257 . S
N1945 C1942 1.391 . S
N1945 C1946 1.388 . S
C1946 H1917 0.930 . S
C1946 C1941 1.391 . S
C1946 N1945 1.388 . S
Co1947 O1949 2.143 . S
Co1947 O1955 2.074 . S
Co1947 O1958 2.093 . S
Co1947 O1971 2.097 . S
Co1947 N1988 2.151 . S
Co1947 N1996 2.214 . S
Co1948 O1949 2.160 . S
Co1948 O1954 2.058 . S
Co1948 O1964 2.057 . S
Co1948 O1979 2.037 . S
Co1948 N1983 2.145 . S
Co1948 N2004 2.257 . S
O1949 Co1947 2.143 . S
O1949 Co1948 2.160 . S
C1950 O1951 1.278 . S
C1950 O1958 1.224 . S
O1951 C1950 1.278 . S
C1952 O1953 1.245 . S
C1952 O1964 1.232 . S
O1953 C1952 1.245 . S
O1954 Co1948 2.058 . S
O1954 C1980 1.269 . S
O1955 Co1947 2.074 . S
O1955 C1980 1.257 . S
H1956 C1981 0.930 . S
H1957 C1987 0.930 . S
O1958 Co1947 2.093 . S
O1958 C1950 1.224 . S
H1959 C1991 0.929 . S
H1960 C1993 0.930 . S
H1961 C1994 0.930 . S
H1962 C1992 0.929 . S
H1963 C1995 0.928 . S
O1964 Co1948 2.057 . S
O1964 C1952 1.232 . S
H1965 C1984 0.929 . S
H1966 C1985 0.929 . S
H1967 C1997 0.931 . S
H1968 C1989 0.929 . S
H1969 C1998 0.930 . S
H1970 C1990 0.931 . S
O1971 Co1947 2.097 . S
O1971 C1999 1.214 . S
H1972 C2000 0.929 . S
H1973 C2001 0.929 . S
H1974 C2002 0.930 . S
H1975 C2003 0.929 . S
H1976 C2005 0.930 . S
H1977 C1982 0.930 . S
H1978 C1986 0.930 . S
O1979 Co1948 2.037 . S
O1979 C1999 1.234 . S
C1980 O1954 1.269 . S
C1980 O1955 1.257 . S
C1981 H1956 0.930 . S
C1981 C1984 1.388 . S
C1981 C1986 1.418 . S
C1982 H1977 0.930 . S
C1982 C1985 1.404 . S
C1982 C1986 1.353 . S
N1983 Co1948 2.145 . S
N1983 C1984 1.397 . S
N1983 C1985 1.334 . S
C1984 H1965 0.929 . S
C1984 C1981 1.388 . S
C1984 N1983 1.397 . S
C1985 H1966 0.929 . S
C1985 C1982 1.404 . S
C1985 N1983 1.334 . S
C1986 H1978 0.930 . S
C1986 C1981 1.418 . S
C1986 C1982 1.353 . S
C1987 H1957 0.930 . S
C1987 N1988 1.330 . S
C1987 C1989 1.446 . S
N1988 Co1947 2.151 . S
N1988 C1987 1.330 . S
N1988 C1992 1.418 . S
C1989 H1968 0.929 . S
C1989 C1987 1.446 . S
C1989 C1990 1.332 . S
C1990 H1970 0.931 . S
C1990 C1989 1.332 . S
C1990 C1991 1.267 . S
C1991 H1959 0.929 . S
C1991 C1990 1.267 . S
C1991 C1992 1.251 . S
C1992 H1962 0.929 . S
C1992 N1988 1.418 . S
C1992 C1991 1.251 . S
C1993 H1960 0.930 . S
C1993 C1995 1.406 . S
C1993 C1998 1.261 . S
C1994 H1961 0.930 . S
C1994 N1996 1.325 . S
C1994 C1997 1.357 . S
C1995 H1963 0.928 . S
C1995 C1993 1.406 . S
C1995 N1996 1.261 . S
N1996 Co1947 2.214 . S
N1996 C1994 1.325 . S
N1996 C1995 1.261 . S
C1997 H1967 0.931 . S
C1997 C1994 1.357 . S
C1997 C1998 1.312 . S
C1998 H1969 0.930 . S
C1998 C1993 1.261 . S
C1998 C1997 1.312 . S
C1999 O1971 1.214 . S
C1999 O1979 1.234 . S
C2000 H1972 0.929 . S
C2000 C2003 1.391 . S
C2000 C2005 1.391 . S
C2001 H1973 0.929 . S
C2001 C2002 1.390 . S
C2001 N2004 1.391 . S
C2002 H1974 0.930 . S
C2002 C2001 1.390 . S
C2002 C2003 1.392 . S
C2003 H1975 0.929 . S
C2003 C2000 1.391 . S
C2003 C2002 1.392 . S
N2004 Co1948 2.257 . S
N2004 C2001 1.391 . S
N2004 C2005 1.388 . S
C2005 H1976 0.930 . S
C2005 C2000 1.391 . S
C2005 N2004 1.388 . S
Co2006 O2008 2.143 . S
Co2006 O2014 2.074 . S
Co2006 O2017 2.093 . S
Co2006 O2030 2.097 . S
Co2006 N2047 2.151 . S
Co2006 N2055 2.214 . S
Co2007 O2008 2.160 . S
Co2007 O2013 2.058 . S
Co2007 O2023 2.057 . S
Co2007 O2038 2.037 . S
Co2007 N2042 2.145 . S
Co2007 N2063 2.257 . S
O2008 Co2006 2.143 . S
O2008 Co2007 2.160 . S
C2009 O2010 1.278 . S
C2009 O2017 1.224 . S
O2010 C2009 1.278 . S
C2011 O2012 1.245 . S
C2011 O2023 1.232 . S
O2012 C2011 1.245 . S
O2013 Co2007 2.058 . S
O2013 C2039 1.269 . S
O2014 Co2006 2.074 . S
O2014 C2039 1.257 . S
H2015 C2040 0.930 . S
H2016 C2046 0.930 . S
O2017 Co2006 2.093 . S
O2017 C2009 1.224 . S
H2018 C2050 0.929 . S
H2019 C2052 0.930 . S
H2020 C2053 0.930 . S
H2021 C2051 0.929 . S
H2022 C2054 0.928 . S
O2023 Co2007 2.057 . S
O2023 C2011 1.232 . S
H2024 C2043 0.929 . S
H2025 C2044 0.929 . S
H2026 C2056 0.931 . S
H2027 C2048 0.929 . S
H2028 C2057 0.930 . S
H2029 C2049 0.931 . S
O2030 Co2006 2.097 . S
O2030 C2058 1.214 . S
H2031 C2059 0.929 . S
H2032 C2060 0.929 . S
H2033 C2061 0.930 . S
H2034 C2062 0.929 . S
H2035 C2064 0.930 . S
H2036 C2041 0.930 . S
H2037 C2045 0.930 . S
O2038 Co2007 2.037 . S
O2038 C2058 1.234 . S
C2039 O2013 1.269 . S
C2039 O2014 1.257 . S
C2040 H2015 0.930 . S
C2040 C2043 1.388 . S
C2040 C2045 1.418 . S
C2041 H2036 0.930 . S
C2041 C2044 1.404 . S
C2041 C2045 1.353 . S
N2042 Co2007 2.145 . S
N2042 C2043 1.397 . S
N2042 C2044 1.334 . S
C2043 H2024 0.929 . S
C2043 C2040 1.388 . S
C2043 N2042 1.397 . S
C2044 H2025 0.929 . S
C2044 C2041 1.404 . S
C2044 N2042 1.334 . S
C2045 H2037 0.930 . S
C2045 C2040 1.418 . S
C2045 C2041 1.353 . S
C2046 H2016 0.930 . S
C2046 N2047 1.330 . S
C2046 C2048 1.446 . S
N2047 Co2006 2.151 . S
N2047 C2046 1.330 . S
N2047 C2051 1.418 . S
C2048 H2027 0.929 . S
C2048 C2046 1.446 . S
C2048 C2049 1.332 . S
C2049 H2029 0.931 . S
C2049 C2048 1.332 . S
C2049 C2050 1.267 . S
C2050 H2018 0.929 . S
C2050 C2049 1.267 . S
C2050 C2051 1.251 . S
C2051 H2021 0.929 . S
C2051 N2047 1.418 . S
C2051 C2050 1.251 . S
C2052 H2019 0.930 . S
C2052 C2054 1.406 . S
C2052 C2057 1.261 . S
C2053 H2020 0.930 . S
C2053 N2055 1.325 . S
C2053 C2056 1.357 . S
C2054 H2022 0.928 . S
C2054 C2052 1.406 . S
C2054 N2055 1.261 . S
N2055 Co2006 2.214 . S
N2055 C2053 1.325 . S
N2055 C2054 1.261 . S
C2056 H2026 0.931 . S
C2056 C2053 1.357 . S
C2056 C2057 1.312 . S
C2057 H2028 0.930 . S
C2057 C2052 1.261 . S
C2057 C2056 1.312 . S
C2058 O2030 1.214 . S
C2058 O2038 1.234 . S
C2059 H2031 0.929 . S
C2059 C2062 1.391 . S
C2059 C2064 1.391 . S
C2060 H2032 0.929 . S
C2060 C2061 1.390 . S
C2060 N2063 1.391 . S
C2061 H2033 0.930 . S
C2061 C2060 1.390 . S
C2061 C2062 1.392 . S
C2062 H2034 0.929 . S
C2062 C2059 1.391 . S
C2062 C2061 1.392 . S
N2063 Co2007 2.257 . S
N2063 C2060 1.391 . S
N2063 C2064 1.388 . S
C2064 H2035 0.930 . S
C2064 C2059 1.391 . S
C2064 N2063 1.388 . S
Co2065 O2067 2.143 . S
Co2065 O2073 2.074 . S
Co2065 O2076 2.093 . S
Co2065 O2089 2.097 . S
Co2065 N2106 2.151 . S
Co2065 N2114 2.214 . S
Co2066 O2067 2.160 . S
Co2066 O2072 2.058 . S
Co2066 O2082 2.057 . S
Co2066 O2097 2.037 . S
Co2066 N2101 2.145 . S
Co2066 N2122 2.257 . S
O2067 Co2065 2.143 . S
O2067 Co2066 2.160 . S
C2068 O2069 1.278 . S
C2068 O2076 1.224 . S
O2069 C2068 1.278 . S
C2070 O2071 1.245 . S
C2070 O2082 1.232 . S
O2071 C2070 1.245 . S
O2072 Co2066 2.058 . S
O2072 C2098 1.269 . S
O2073 Co2065 2.074 . S
O2073 C2098 1.257 . S
H2074 C2099 0.930 . S
H2075 C2105 0.930 . S
O2076 Co2065 2.093 . S
O2076 C2068 1.224 . S
H2077 C2109 0.929 . S
H2078 C2111 0.930 . S
H2079 C2112 0.930 . S
H2080 C2110 0.929 . S
H2081 C2113 0.928 . S
O2082 Co2066 2.057 . S
O2082 C2070 1.232 . S
H2083 C2102 0.929 . S
H2084 C2103 0.929 . S
H2085 C2115 0.931 . S
H2086 C2107 0.929 . S
H2087 C2116 0.930 . S
H2088 C2108 0.931 . S
O2089 Co2065 2.097 . S
O2089 C2117 1.214 . S
H2090 C2118 0.929 . S
H2091 C2119 0.929 . S
H2092 C2120 0.930 . S
H2093 C2121 0.929 . S
H2094 C2123 0.930 . S
H2095 C2100 0.930 . S
H2096 C2104 0.930 . S
O2097 Co2066 2.037 . S
O2097 C2117 1.234 . S
C2098 O2072 1.269 . S
C2098 O2073 1.257 . S
C2099 H2074 0.930 . S
C2099 C2102 1.388 . S
C2099 C2104 1.418 . S
C2100 H2095 0.930 . S
C2100 C2103 1.404 . S
C2100 C2104 1.353 . S
N2101 Co2066 2.145 . S
N2101 C2102 1.397 . S
N2101 C2103 1.334 . S
C2102 H2083 0.929 . S
C2102 C2099 1.388 . S
C2102 N2101 1.397 . S
C2103 H2084 0.929 . S
C2103 C2100 1.404 . S
C2103 N2101 1.334 . S
C2104 H2096 0.930 . S
C2104 C2099 1.418 . S
C2104 C2100 1.353 . S
C2105 H2075 0.930 . S
C2105 N2106 1.330 . S
C2105 C2107 1.446 . S
N2106 Co2065 2.151 . S
N2106 C2105 1.330 . S
N2106 C2110 1.418 . S
C2107 H2086 0.929 . S
C2107 C2105 1.446 . S
C2107 C2108 1.332 . S
C2108 H2088 0.931 . S
C2108 C2107 1.332 . S
C2108 C2109 1.267 . S
C2109 H2077 0.929 . S
C2109 C2108 1.267 . S
C2109 C2110 1.251 . S
C2110 H2080 0.929 . S
C2110 N2106 1.418 . S
C2110 C2109 1.251 . S
C2111 H2078 0.930 . S
C2111 C2113 1.406 . S
C2111 C2116 1.261 . S
C2112 H2079 0.930 . S
C2112 N2114 1.325 . S
C2112 C2115 1.357 . S
C2113 H2081 0.928 . S
C2113 C2111 1.406 . S
C2113 N2114 1.261 . S
N2114 Co2065 2.214 . S
N2114 C2112 1.325 . S
N2114 C2113 1.261 . S
C2115 H2085 0.931 . S
C2115 C2112 1.357 . S
C2115 C2116 1.312 . S
C2116 H2087 0.930 . S
C2116 C2111 1.261 . S
C2116 C2115 1.312 . S
C2117 O2089 1.214 . S
C2117 O2097 1.234 . S
C2118 H2090 0.929 . S
C2118 C2121 1.391 . S
C2118 C2123 1.391 . S
C2119 H2091 0.929 . S
C2119 C2120 1.390 . S
C2119 N2122 1.391 . S
C2120 H2092 0.930 . S
C2120 C2119 1.390 . S
C2120 C2121 1.392 . S
C2121 H2093 0.929 . S
C2121 C2118 1.391 . S
C2121 C2120 1.392 . S
N2122 Co2066 2.257 . S
N2122 C2119 1.391 . S
N2122 C2123 1.388 . S
C2123 H2094 0.930 . S
C2123 C2118 1.391 . S
C2123 N2122 1.388 . S
C2124 C2125 1.387 . S
C2124 H2128 0.950 . S
C2124 C2133 1.417 . S
C2125 C2124 1.387 . S
C2125 C2127 1.387 1_554 S
H2126 C2133 0.921 1_565 S
C2127 C2125 1.387 1_556 S
C2127 C2129 1.390 . S
C2127 H2131 0.950 . S
H2128 C2124 0.950 . S
C2129 C2127 1.390 . S
C2129 C2130 1.380 1_545 S
C2129 H2132 0.950 . S
C2130 C2129 1.380 1_565 S
C2130 C2133 1.391 1_566 S
H2131 C2127 0.950 . S
H2132 C2129 0.950 . S
C2133 C2124 1.417 . S
C2133 H2126 0.921 1_545 S
C2133 C2130 1.391 1_544 S
C2134 C2135 1.387 1_556 S
C2134 H2138 0.950 . S
C2134 C2143 1.390 . S
C2135 C2134 1.387 1_554 S
C2135 C2137 1.387 . S
H2136 C2143 0.950 . S
C2137 C2135 1.387 . S
C2137 C2139 1.390 . S
C2137 H2141 0.950 . S
H2138 C2134 0.950 . S
C2139 C2137 1.390 . S
C2139 C2140 1.386 1_654 S
C2139 H2142 0.950 1_655 S
C2140 C2139 1.386 1_456 S
C2140 C2143 1.387 1_455 S
H2141 C2137 0.950 . S
H2142 C2139 0.950 1_455 S
C2143 C2134 1.390 . S
C2143 H2136 0.950 . S
C2143 C2140 1.387 1_655 S
C2144 C2145 1.387 . S
C2144 H2148 0.950 . S
C2144 C2153 1.390 . S
C2145 C2144 1.387 . S
C2145 C2147 1.387 1_556 S
H2146 C2153 0.950 . S
C2147 C2145 1.387 1_554 S
C2147 C2149 1.390 . S
C2147 H2151 0.950 . S
H2148 C2144 0.950 . S
C2149 C2147 1.390 . S
C2149 C2150 1.387 . S
C2149 H2152 0.950 . S
C2150 C2149 1.387 . S
C2150 C2153 1.387 1_554 S
H2151 C2147 0.950 . S
H2152 C2149 0.950 . S
C2153 C2144 1.390 . S
C2153 H2146 0.950 . S
C2153 C2150 1.387 1_556 S
C2154 C2155 1.384 1_455 S
C2154 H2158 0.950 . S
C2154 C2163 1.390 . S
C2155 C2154 1.384 1_655 S
C2155 C2157 1.383 1_655 S
H2156 C2163 0.950 . S
C2157 C2155 1.383 1_455 S
C2157 C2159 1.390 . S
C2157 H2161 0.950 1_455 S
H2158 C2154 0.950 . S
C2159 C2157 1.390 . S
C2159 C2160 1.387 . S
C2159 H2162 0.950 . S
C2160 C2159 1.387 . S
C2160 C2163 1.387 . S
H2161 C2157 0.950 1_655 S
H2162 C2159 0.950 . S
C2163 C2154 1.390 . S
C2163 H2156 0.950 . S
C2163 C2160 1.387 . S
C2164 C2165 1.387 . S
C2164 H2168 0.950 . S
C2164 C2173 1.390 . S
C2165 C2164 1.387 . S
C2165 C2167 1.387 . S
H2166 C2173 0.950 . S
C2167 C2165 1.387 . S
C2167 C2169 1.390 . S
C2167 H2171 0.950 . S
H2168 C2164 0.950 . S
C2169 C2167 1.390 . S
C2169 C2170 1.387 . S
C2169 H2172 0.950 . S
C2170 C2169 1.387 . S
C2170 C2173 1.387 . S
H2171 C2167 0.950 . S
H2172 C2169 0.950 . S
C2173 C2164 1.390 . S
C2173 H2166 0.950 . S
C2173 C2170 1.387 . S
C2174 C2175 1.387 . S
C2174 H2178 0.950 . S
C2174 C2183 1.390 . S
C2175 C2174 1.387 . S
C2175 C2177 1.387 . S
H2176 C2183 0.950 1_545 S
C2177 C2175 1.387 . S
C2177 C2179 1.390 . S
C2177 H2181 0.950 . S
H2178 C2174 0.950 . S
C2179 C2177 1.390 . S
C2179 C2180 1.384 1_565 S
C2179 H2182 0.950 . S
C2180 C2179 1.384 1_545 S
C2180 C2183 1.385 1_545 S
H2181 C2177 0.950 . S
H2182 C2179 0.950 . S
C2183 C2174 1.390 . S
C2183 H2176 0.950 1_565 S
C2183 C2180 1.385 1_565 S
C2184 C2185 1.387 1_565 S
C2184 H2188 0.950 . S
C2184 C2193 1.390 . S
C2185 C2184 1.387 1_545 S
C2185 C2187 1.386 1_545 S
H2186 C2193 0.950 . S
C2187 C2185 1.386 1_565 S
C2187 C2189 1.390 1_554 S
C2187 H2191 0.950 1_565 S
H2188 C2184 0.950 . S
C2189 C2187 1.390 1_556 S
C2189 C2190 1.387 . S
C2189 H2192 0.950 . S
C2190 C2189 1.387 . S
C2190 C2193 1.387 1_556 S
H2191 C2187 0.950 1_545 S
H2192 C2189 0.950 . S
C2193 C2184 1.390 . S
C2193 H2186 0.950 . S
C2193 C2190 1.387 1_554 S
C2194 C2195 1.385 1_455 S
C2194 H2198 0.950 . S
C2194 C2203 1.390 1_554 S
C2195 C2194 1.385 1_655 S
C2195 C2197 1.388 1_655 S
H2196 C2203 0.950 . S
C2197 C2195 1.388 1_455 S
C2197 C2199 1.390 . S
C2197 H2201 0.950 . S
H2198 C2194 0.950 . S
C2199 C2197 1.390 . S
C2199 C2200 1.387 1_554 S
C2199 H2202 0.950 . S
C2200 C2199 1.387 1_556 S
C2200 C2203 1.387 . S
H2201 C2197 0.950 . S
H2202 C2199 0.950 . S
C2203 C2194 1.390 1_556 S
C2203 H2196 0.950 . S
C2203 C2200 1.387 . S
C2204 C2205 1.387 1_554 S
C2204 H2208 0.950 . S
C2204 C2213 1.390 . S
C2205 C2204 1.387 1_556 S
C2205 C2207 1.387 . S
H2206 C2213 0.950 . S
C2207 C2205 1.387 . S
C2207 C2209 1.390 . S
C2207 H2211 0.950 . S
H2208 C2204 0.950 . S
C2209 C2207 1.390 . S
C2209 C2210 1.387 1_556 S
C2209 H2212 0.950 . S
C2210 C2209 1.387 1_554 S
C2210 C2213 1.387 . S
H2211 C2207 0.950 . S
H2212 C2209 0.950 . S
C2213 C2204 1.390 . S
C2213 H2206 0.950 . S
C2213 C2210 1.387 . S
C2214 C2215 1.387 . S
C2214 H2218 0.950 . S
C2214 C2223 1.390 . S
C2215 C2214 1.387 . S
C2215 C2217 1.387 . S
H2216 C2223 0.950 . S
C2217 C2215 1.387 . S
C2217 C2219 1.390 . S
C2217 H2221 0.950 . S
H2218 C2214 0.950 . S
C2219 C2217 1.390 . S
C2219 C2220 1.386 1_655 S
C2219 H2222 0.950 1_655 S
C2220 C2219 1.386 1_455 S
C2220 C2223 1.386 1_455 S
H2221 C2217 0.950 . S
H2222 C2219 0.950 1_455 S
C2223 C2214 1.390 . S
C2223 H2216 0.950 . S
C2223 C2220 1.386 1_655 S
C2224 C2225 1.387 . S
C2224 H2228 0.950 . S
C2224 C2233 1.390 . S
C2225 C2224 1.387 . S
C2225 C2227 1.387 . S
H2226 C2233 0.950 . S
C2227 C2225 1.387 . S
C2227 C2229 1.390 . S
C2227 H2231 0.950 . S
H2228 C2224 0.950 . S
C2229 C2227 1.390 . S
C2229 C2230 1.387 . S
C2229 H2232 0.950 . S
C2230 C2229 1.387 . S
C2230 C2233 1.387 . S
H2231 C2227 0.950 . S
H2232 C2229 0.950 . S
C2233 C2224 1.390 . S
C2233 H2226 0.950 . S
C2233 C2230 1.387 . S
C2234 C2235 1.387 . S
C2234 H2238 0.950 . S
C2234 C2243 1.390 . S
C2235 C2234 1.387 . S
C2235 C2237 1.387 . S
H2236 C2243 0.950 . S
C2237 C2235 1.387 . S
C2237 C2239 1.390 . S
C2237 H2241 0.950 . S
H2238 C2234 0.950 . S
C2239 C2237 1.390 . S
C2239 C2240 1.383 1_545 S
C2239 H2242 0.950 1_545 S
C2240 C2239 1.383 1_565 S
C2240 C2243 1.385 1_565 S
H2241 C2237 0.950 . S
H2242 C2239 0.950 1_565 S
C2243 C2234 1.390 . S
C2243 H2236 0.950 . S
C2243 C2240 1.385 1_545 S
C2244 C2245 1.387 . S
C2244 H2248 0.950 . S
C2244 C2253 1.390 . S
C2245 C2244 1.387 . S
C2245 C2247 1.387 . S
H2246 C2253 0.950 . S
C2247 C2245 1.387 . S
C2247 C2249 1.390 . S
C2247 H2251 0.950 . S
H2248 C2244 0.950 . S
C2249 C2247 1.390 . S
C2249 C2250 1.387 . S
C2249 H2252 0.950 . S
C2250 C2249 1.387 . S
C2250 C2253 1.387 . S
H2251 C2247 0.950 . S
H2252 C2249 0.950 . S
C2253 C2244 1.390 . S
C2253 H2246 0.950 . S
C2253 C2250 1.387 . S
C2254 C2255 1.387 . S
C2254 H2258 0.950 . S
C2254 C2263 1.390 . S
C2255 C2254 1.387 . S
C2255 C2257 1.387 . S
H2256 C2263 0.950 . S
C2257 C2255 1.387 . S
C2257 C2259 1.390 . S
C2257 H2261 0.950 . S
H2258 C2254 0.950 . S
C2259 C2257 1.390 . S
C2259 C2260 1.387 . S
C2259 H2262 0.950 . S
C2260 C2259 1.387 . S
C2260 C2263 1.387 . S
H2261 C2257 0.950 . S
H2262 C2259 0.950 . S
C2263 C2254 1.390 . S
C2263 H2256 0.950 . S
C2263 C2260 1.387 . S
C2264 C2265 1.387 . S
C2264 H2268 0.950 . S
C2264 C2273 1.390 . S
C2265 C2264 1.387 . S
C2265 C2267 1.387 . S
H2266 C2273 0.950 . S
C2267 C2265 1.387 . S
C2267 C2269 1.390 . S
C2267 H2271 0.950 . S
H2268 C2264 0.950 . S
C2269 C2267 1.390 . S
C2269 C2270 1.387 . S
C2269 H2272 0.950 . S
C2270 C2269 1.387 . S
C2270 C2273 1.387 . S
H2271 C2267 0.950 . S
H2272 C2269 0.950 . S
C2273 C2264 1.390 . S
C2273 H2266 0.950 . S
C2273 C2270 1.387 . S
C2274 C2275 1.387 . S
C2274 H2278 0.950 . S
C2274 C2283 1.390 . S
C2275 C2274 1.387 . S
C2275 C2277 1.387 . S
H2276 C2283 0.950 . S
C2277 C2275 1.387 . S
C2277 C2279 1.390 . S
C2277 H2281 0.950 . S
H2278 C2274 0.950 . S
C2279 C2277 1.390 . S
C2279 C2280 1.387 . S
C2279 H2282 0.950 . S
C2280 C2279 1.387 . S
C2280 C2283 1.387 . S
H2281 C2277 0.950 . S
H2282 C2279 0.950 . S
C2283 C2274 1.390 . S
C2283 H2276 0.950 . S
C2283 C2280 1.387 . S
C2284 C2285 1.387 . S
C2284 H2288 0.950 . S
C2284 C2293 1.390 . S
C2285 C2284 1.387 . S
C2285 C2287 1.387 . S
H2286 C2293 0.950 . S
C2287 C2285 1.387 . S
C2287 C2289 1.390 . S
C2287 H2291 0.950 . S
H2288 C2284 0.950 . S
C2289 C2287 1.390 . S
C2289 C2290 1.387 . S
C2289 H2292 0.950 . S
C2290 C2289 1.387 . S
C2290 C2293 1.387 . S
H2291 C2287 0.950 . S
H2292 C2289 0.950 . S
C2293 C2284 1.390 . S
C2293 H2286 0.950 . S
C2293 C2290 1.387 . S
C2294 C2295 1.387 . S
C2294 H2298 0.950 . S
C2294 C2303 1.390 . S
C2295 C2294 1.387 . S
C2295 C2297 1.387 . S
H2296 C2303 0.950 . S
C2297 C2295 1.387 . S
C2297 C2299 1.390 . S
C2297 H2301 0.950 . S
H2298 C2294 0.950 . S
C2299 C2297 1.390 . S
C2299 C2300 1.387 . S
C2299 H2302 0.950 . S
C2300 C2299 1.387 . S
C2300 C2303 1.387 . S
H2301 C2297 0.950 . S
H2302 C2299 0.950 . S
C2303 C2294 1.390 . S
C2303 H2296 0.950 . S
C2303 C2300 1.387 . S
C2304 C2305 1.387 . S
C2304 H2308 0.950 . S
C2304 C2313 1.390 . S
C2305 C2304 1.387 . S
C2305 C2307 1.387 . S
H2306 C2313 0.950 . S
C2307 C2305 1.387 . S
C2307 C2309 1.390 . S
C2307 H2311 0.950 . S
H2308 C2304 0.950 . S
C2309 C2307 1.390 . S
C2309 C2310 1.387 . S
C2309 H2312 0.950 . S
C2310 C2309 1.387 . S
C2310 C2313 1.387 . S
H2311 C2307 0.950 . S
H2312 C2309 0.950 . S
C2313 C2304 1.390 . S
C2313 H2306 0.950 . S
C2313 C2310 1.387 . S
C2314 C2315 1.387 . S
C2314 H2318 0.950 . S
C2314 C2323 1.390 . S
C2315 C2314 1.387 . S
C2315 C2317 1.387 . S
H2316 C2323 0.950 . S
C2317 C2315 1.387 . S
C2317 C2319 1.390 . S
C2317 H2321 0.950 . S
H2318 C2314 0.950 . S
C2319 C2317 1.390 . S
C2319 C2320 1.387 . S
C2319 H2322 0.950 . S
C2320 C2319 1.387 . S
C2320 C2323 1.387 . S
H2321 C2317 0.950 . S
H2322 C2319 0.950 . S
C2323 C2314 1.390 . S
C2323 H2316 0.950 . S
C2323 C2320 1.387 . S
C2324 C2325 1.387 . S
C2324 H2328 0.950 . S
C2324 C2333 1.390 . S
C2325 C2324 1.387 . S
C2325 C2327 1.387 . S
H2326 C2333 0.950 . S
C2327 C2325 1.387 . S
C2327 C2329 1.390 . S
C2327 H2331 0.950 . S
H2328 C2324 0.950 . S
C2329 C2327 1.390 . S
C2329 C2330 1.387 . S
C2329 H2332 0.950 . S
C2330 C2329 1.387 . S
C2330 C2333 1.387 . S
H2331 C2327 0.950 . S
H2332 C2329 0.950 . S
C2333 C2324 1.390 . S
C2333 H2326 0.950 . S
C2333 C2330 1.387 . S
C2334 C2335 1.387 . S
C2334 H2338 0.950 . S
C2334 C2343 1.390 . S
C2335 C2334 1.387 . S
C2335 C2337 1.387 . S
H2336 C2343 0.950 . S
C2337 C2335 1.387 . S
C2337 C2339 1.390 . S
C2337 H2341 0.950 . S
H2338 C2334 0.950 . S
C2339 C2337 1.390 . S
C2339 C2340 1.387 . S
C2339 H2342 0.950 . S
C2340 C2339 1.387 . S
C2340 C2343 1.387 . S
H2341 C2337 0.950 . S
H2342 C2339 0.950 . S
C2343 C2334 1.390 . S
C2343 H2336 0.950 . S
C2343 C2340 1.387 . S
C2344 C2345 1.387 . S
C2344 H2348 0.950 . S
C2344 C2353 1.390 . S
C2345 C2344 1.387 . S
C2345 C2347 1.387 . S
H2346 C2353 0.950 . S
C2347 C2345 1.387 . S
C2347 C2349 1.390 . S
C2347 H2351 0.950 . S
H2348 C2344 0.950 . S
C2349 C2347 1.390 . S
C2349 C2350 1.387 . S
C2349 H2352 0.950 . S
C2350 C2349 1.387 . S
C2350 C2353 1.387 . S
H2351 C2347 0.950 . S
H2352 C2349 0.950 . S
C2353 C2344 1.390 . S
C2353 H2346 0.950 . S
C2353 C2350 1.387 . S
C2354 C2355 1.387 . S
C2354 H2358 0.950 . S
C2354 C2363 1.390 . S
C2355 C2354 1.387 . S
C2355 C2357 1.387 . S
H2356 C2363 0.950 . S
C2357 C2355 1.387 . S
C2357 C2359 1.390 . S
C2357 H2361 0.950 . S
H2358 C2354 0.950 . S
C2359 C2357 1.390 . S
C2359 C2360 1.387 . S
C2359 H2362 0.950 . S
C2360 C2359 1.387 . S
C2360 C2363 1.387 . S
H2361 C2357 0.950 . S
H2362 C2359 0.950 . S
C2363 C2354 1.390 . S
C2363 H2356 0.950 . S
C2363 C2360 1.387 . S
C2364 C2365 1.387 . S
C2364 H2368 0.950 . S
C2364 C2373 1.390 . S
C2365 C2364 1.387 . S
C2365 C2367 1.387 . S
H2366 C2373 0.950 . S
C2367 C2365 1.387 . S
C2367 C2369 1.390 . S
C2367 H2371 0.950 . S
H2368 C2364 0.950 . S
C2369 C2367 1.390 . S
C2369 C2370 1.387 . S
C2369 H2372 0.950 . S
C2370 C2369 1.387 . S
C2370 C2373 1.387 . S
H2371 C2367 0.950 . S
H2372 C2369 0.950 . S
C2373 C2364 1.390 . S
C2373 H2366 0.950 . S
C2373 C2370 1.387 . S
C2374 C2375 1.387 . S
C2374 H2378 0.950 . S
C2374 C2383 1.390 . S
C2375 C2374 1.387 . S
C2375 C2377 1.387 . S
H2376 C2383 0.950 . S
C2377 C2375 1.387 . S
C2377 C2379 1.390 . S
C2377 H2381 0.950 . S
H2378 C2374 0.950 . S
C2379 C2377 1.390 . S
C2379 C2380 1.387 . S
C2379 H2382 0.950 . S
C2380 C2379 1.387 . S
C2380 C2383 1.387 . S
H2381 C2377 0.950 . S
H2382 C2379 0.950 . S
C2383 C2374 1.390 . S
C2383 H2376 0.950 . S
C2383 C2380 1.387 . S
C2384 C2385 1.387 . S
C2384 H2388 0.950 . S
C2384 C2393 1.390 . S
C2385 C2384 1.387 . S
C2385 C2387 1.387 . S
H2386 C2393 0.950 . S
C2387 C2385 1.387 . S
C2387 C2389 1.390 . S
C2387 H2391 0.950 . S
H2388 C2384 0.950 . S
C2389 C2387 1.390 . S
C2389 C2390 1.387 . S
C2389 H2392 0.950 . S
C2390 C2389 1.387 . S
C2390 C2393 1.387 . S
H2391 C2387 0.950 . S
H2392 C2389 0.950 . S
C2393 C2384 1.390 . S
C2393 H2386 0.950 . S
C2393 C2390 1.387 . S
C2394 C2395 1.387 . S
C2394 H2398 0.950 . S
C2394 C2403 1.390 . S
C2395 C2394 1.387 . S
C2395 C2397 1.387 . S
H2396 C2403 0.950 . S
C2397 C2395 1.387 . S
C2397 C2399 1.390 . S
C2397 H2401 0.950 . S
H2398 C2394 0.950 . S
C2399 C2397 1.390 . S
C2399 C2400 1.387 . S
C2399 H2402 0.950 . S
C2400 C2399 1.387 . S
C2400 C2403 1.387 . S
H2401 C2397 0.950 . S
H2402 C2399 0.950 . S
C2403 C2394 1.390 . S
C2403 H2396 0.950 . S
C2403 C2400 1.387 . S
C2404 C2405 1.387 . S
C2404 H2408 0.950 . S
C2404 C2413 1.390 . S
C2405 C2404 1.387 . S
C2405 C2407 1.387 . S
H2406 C2413 0.950 . S
C2407 C2405 1.387 . S
C2407 C2409 1.390 . S
C2407 H2411 0.950 . S
H2408 C2404 0.950 . S
C2409 C2407 1.390 . S
C2409 C2410 1.387 . S
C2409 H2412 0.950 . S
C2410 C2409 1.387 . S
C2410 C2413 1.387 . S
H2411 C2407 0.950 . S
H2412 C2409 0.950 . S
C2413 C2404 1.390 . S
C2413 H2406 0.950 . S
C2413 C2410 1.387 . S
C2414 C2415 1.387 . S
C2414 H2418 0.950 . S
C2414 C2423 1.390 . S
C2415 C2414 1.387 . S
C2415 C2417 1.387 . S
H2416 C2423 0.950 . S
C2417 C2415 1.387 . S
C2417 C2419 1.390 . S
C2417 H2421 0.950 . S
H2418 C2414 0.950 . S
C2419 C2417 1.390 . S
C2419 C2420 1.387 . S
C2419 H2422 0.950 . S
C2420 C2419 1.387 . S
C2420 C2423 1.387 . S
H2421 C2417 0.950 . S
H2422 C2419 0.950 . S
C2423 C2414 1.390 . S
C2423 H2416 0.950 . S
C2423 C2420 1.387 . S
C2424 C2425 1.387 . S
C2424 H2428 0.950 . S
C2424 C2433 1.390 . S
C2425 C2424 1.387 . S
C2425 C2427 1.387 . S
H2426 C2433 0.950 . S
C2427 C2425 1.387 . S
C2427 C2429 1.390 . S
C2427 H2431 0.950 . S
H2428 C2424 0.950 . S
C2429 C2427 1.390 . S
C2429 C2430 1.387 . S
C2429 H2432 0.950 . S
C2430 C2429 1.387 . S
C2430 C2433 1.387 . S
H2431 C2427 0.950 . S
H2432 C2429 0.950 . S
C2433 C2424 1.390 . S
C2433 H2426 0.950 . S
C2433 C2430 1.387 . S
C2434 C2435 1.387 . S
C2434 H2438 0.950 . S
C2434 C2443 1.390 . S
C2435 C2434 1.387 . S
C2435 C2437 1.387 . S
H2436 C2443 0.950 . S
C2437 C2435 1.387 . S
C2437 C2439 1.390 . S
C2437 H2441 0.950 . S
H2438 C2434 0.950 . S
C2439 C2437 1.390 . S
C2439 C2440 1.387 . S
C2439 H2442 0.950 . S
C2440 C2439 1.387 . S
C2440 C2443 1.387 . S
H2441 C2437 0.950 . S
H2442 C2439 0.950 . S
C2443 C2434 1.390 . S
C2443 H2436 0.950 . S
C2443 C2440 1.387 . S
C2444 C2445 1.387 . S
C2444 H2448 0.950 . S
C2444 C2453 1.390 . S
C2445 C2444 1.387 . S
C2445 C2447 1.387 . S
H2446 C2453 0.950 . S
C2447 C2445 1.387 . S
C2447 C2449 1.390 . S
C2447 H2451 0.950 . S
H2448 C2444 0.950 . S
C2449 C2447 1.390 . S
C2449 C2450 1.387 . S
C2449 H2452 0.950 . S
C2450 C2449 1.387 . S
C2450 C2453 1.387 . S
H2451 C2447 0.950 . S
H2452 C2449 0.950 . S
C2453 C2444 1.390 . S
C2453 H2446 0.950 . S
C2453 C2450 1.387 . S
C2454 C2455 1.387 . S
C2454 H2458 0.950 . S
C2454 C2463 1.390 . S
C2455 C2454 1.387 . S
C2455 C2457 1.387 . S
H2456 C2463 0.950 . S
C2457 C2455 1.387 . S
C2457 C2459 1.390 . S
C2457 H2461 0.950 . S
H2458 C2454 0.950 . S
C2459 C2457 1.390 . S
C2459 C2460 1.387 . S
C2459 H2462 0.950 . S
C2460 C2459 1.387 . S
C2460 C2463 1.387 . S
H2461 C2457 0.950 . S
H2462 C2459 0.950 . S
C2463 C2454 1.390 . S
C2463 H2456 0.950 . S
C2463 C2460 1.387 . S
C2464 C2465 1.387 . S
C2464 H2468 0.950 . S
C2464 C2473 1.390 . S
C2465 C2464 1.387 . S
C2465 C2467 1.387 . S
H2466 C2473 0.950 . S
C2467 C2465 1.387 . S
C2467 C2469 1.390 . S
C2467 H2471 0.950 . S
H2468 C2464 0.950 . S
C2469 C2467 1.390 . S
C2469 C2470 1.387 . S
C2469 H2472 0.950 . S
C2470 C2469 1.387 . S
C2470 C2473 1.387 . S
H2471 C2467 0.950 . S
H2472 C2469 0.950 . S
C2473 C2464 1.390 . S
C2473 H2466 0.950 . S
C2473 C2470 1.387 . S
C2474 C2475 1.387 . S
C2474 H2478 0.950 . S
C2474 C2483 1.390 . S
C2475 C2474 1.387 . S
C2475 C2477 1.387 . S
H2476 C2483 0.950 . S
C2477 C2475 1.387 . S
C2477 C2479 1.390 . S
C2477 H2481 0.950 . S
H2478 C2474 0.950 . S
C2479 C2477 1.390 . S
C2479 C2480 1.387 . S
C2479 H2482 0.950 . S
C2480 C2479 1.387 . S
C2480 C2483 1.387 . S
H2481 C2477 0.950 . S
H2482 C2479 0.950 . S
C2483 C2474 1.390 . S
C2483 H2476 0.950 . S
C2483 C2480 1.387 . S
C2484 C2485 1.387 . S
C2484 H2488 0.950 . S
C2484 C2493 1.390 . S
C2485 C2484 1.387 . S
C2485 C2487 1.387 . S
H2486 C2493 0.950 . S
C2487 C2485 1.387 . S
C2487 C2489 1.390 . S
C2487 H2491 0.950 . S
H2488 C2484 0.950 . S
C2489 C2487 1.390 . S
C2489 C2490 1.387 . S
C2489 H2492 0.950 . S
C2490 C2489 1.387 . S
C2490 C2493 1.387 . S
H2491 C2487 0.950 . S
H2492 C2489 0.950 . S
C2493 C2484 1.390 . S
C2493 H2486 0.950 . S
C2493 C2490 1.387 . S
C2494 C2495 1.387 . S
C2494 H2498 0.950 . S
C2494 C2503 1.390 1_565 S
C2495 C2494 1.387 . S
C2495 C2497 1.387 . S
H2496 C2503 0.950 . S
C2497 C2495 1.387 . S
C2497 C2499 1.390 1_565 S
C2497 H2501 0.950 . S
H2498 C2494 0.950 . S
C2499 C2497 1.390 1_545 S
C2499 C2500 1.387 . S
C2499 H2502 0.950 . S
C2500 C2499 1.387 . S
C2500 C2503 1.387 . S
H2501 C2497 0.950 . S
H2502 C2499 0.950 . S
C2503 C2494 1.390 1_545 S
C2503 H2496 0.950 . S
C2503 C2500 1.387 . S
C2504 C2505 1.387 . S
C2504 H2508 0.950 . S
C2504 C2513 1.390 . S
C2505 C2504 1.387 . S
C2505 C2507 1.387 1_655 S
H2506 C2513 0.950 . S
C2507 C2505 1.387 1_455 S
C2507 C2509 1.390 . S
C2507 H2511 0.950 . S
H2508 C2504 0.950 . S
C2509 C2507 1.390 . S
C2509 C2510 1.387 . S
C2509 H2512 0.950 . S
C2510 C2509 1.387 . S
C2510 C2513 1.387 1_455 S
H2511 C2507 0.950 . S
H2512 C2509 0.950 . S
C2513 C2504 1.390 . S
C2513 H2506 0.950 . S
C2513 C2510 1.387 1_655 S
C2514 C2515 1.387 . S
C2514 H2518 0.950 . S
C2514 C2523 1.390 . S
C2515 C2514 1.387 . S
C2515 C2517 1.387 . S
H2516 C2523 0.950 . S
C2517 C2515 1.387 . S
C2517 C2519 1.390 . S
C2517 H2521 0.950 . S
H2518 C2514 0.950 . S
C2519 C2517 1.390 . S
C2519 C2520 1.387 . S
C2519 H2522 0.950 . S
C2520 C2519 1.387 . S
C2520 C2523 1.387 . S
H2521 C2517 0.950 . S
H2522 C2519 0.950 . S
C2523 C2514 1.390 . S
C2523 H2516 0.950 . S
C2523 C2520 1.387 . S
C2524 C2525 1.387 . S
C2524 H2528 0.950 . S
C2524 C2533 1.390 1_545 S
C2525 C2524 1.387 . S
C2525 C2527 1.387 . S
H2526 C2533 0.950 . S
C2527 C2525 1.387 . S
C2527 C2529 1.390 1_545 S
C2527 H2531 0.950 . S
H2528 C2524 0.950 . S
C2529 C2527 1.390 1_565 S
C2529 C2530 1.387 . S
C2529 H2532 0.950 . S
C2530 C2529 1.387 . S
C2530 C2533 1.387 . S
H2531 C2527 0.950 . S
H2532 C2529 0.950 . S
C2533 C2524 1.390 1_565 S
C2533 H2526 0.950 . S
C2533 C2530 1.387 . S
C2534 C2535 1.387 . S
C2534 H2538 0.950 . S
C2534 C2543 1.390 1_655 S
C2535 C2534 1.387 . S
C2535 C2537 1.387 . S
H2536 C2543 0.950 . S
C2537 C2535 1.387 . S
C2537 C2539 1.390 1_655 S
C2537 H2541 0.950 . S
H2538 C2534 0.950 . S
C2539 C2537 1.390 1_455 S
C2539 C2540 1.387 . S
C2539 H2542 0.950 . S
C2540 C2539 1.387 . S
C2540 C2543 1.387 . S
H2541 C2537 0.950 . S
H2542 C2539 0.950 . S
C2543 C2534 1.390 1_455 S
C2543 H2536 0.950 . S
C2543 C2540 1.387 . S
C2544 C2545 1.387 . S
C2544 H2548 0.950 . S
C2544 C2553 1.390 . S
C2545 C2544 1.387 . S
C2545 C2547 1.387 . S
H2546 C2553 0.950 . S
C2547 C2545 1.387 . S
C2547 C2549 1.390 . S
C2547 H2551 0.950 . S
H2548 C2544 0.950 . S
C2549 C2547 1.390 . S
C2549 C2550 1.387 . S
C2549 H2552 0.950 . S
C2550 C2549 1.387 . S
C2550 C2553 1.387 . S
H2551 C2547 0.950 . S
H2552 C2549 0.950 . S
C2553 C2544 1.390 . S
C2553 H2546 0.950 . S
C2553 C2550 1.387 . S
C2554 C2555 1.387 . S
C2554 H2558 0.950 . S
C2554 C2563 1.390 . S
C2555 C2554 1.387 . S
C2555 C2557 1.387 . S
H2556 C2563 0.950 . S
C2557 C2555 1.387 . S
C2557 C2559 1.390 . S
C2557 H2561 0.950 . S
H2558 C2554 0.950 . S
C2559 C2557 1.390 . S
C2559 C2560 1.387 . S
C2559 H2562 0.950 . S
C2560 C2559 1.387 . S
C2560 C2563 1.387 . S
H2561 C2557 0.950 . S
H2562 C2559 0.950 . S
C2563 C2554 1.390 . S
C2563 H2556 0.950 . S
C2563 C2560 1.387 . S
C2564 C2565 1.387 . S
C2564 H2568 0.950 . S
C2564 C2573 1.390 . S
C2565 C2564 1.387 . S
C2565 C2567 1.387 . S
H2566 C2573 0.950 . S
C2567 C2565 1.387 . S
C2567 C2569 1.390 . S
C2567 H2571 0.950 . S
H2568 C2564 0.950 . S
C2569 C2567 1.390 . S
C2569 C2570 1.387 . S
C2569 H2572 0.950 . S
C2570 C2569 1.387 . S
C2570 C2573 1.387 . S
H2571 C2567 0.950 . S
H2572 C2569 0.950 . S
C2573 C2564 1.390 . S
C2573 H2566 0.950 . S
C2573 C2570 1.387 . S
C2574 C2575 1.387 . S
C2574 H2578 0.950 . S
C2574 C2583 1.390 . S
C2575 C2574 1.387 . S
C2575 C2577 1.387 . S
H2576 C2583 0.950 . S
C2577 C2575 1.387 . S
C2577 C2579 1.390 . S
C2577 H2581 0.950 . S
H2578 C2574 0.950 . S
C2579 C2577 1.390 . S
C2579 C2580 1.387 . S
C2579 H2582 0.950 . S
C2580 C2579 1.387 . S
C2580 C2583 1.387 . S
H2581 C2577 0.950 . S
H2582 C2579 0.950 . S
C2583 C2574 1.390 . S
C2583 H2576 0.950 . S
C2583 C2580 1.387 . S
C2584 C2585 1.387 . S
C2584 H2588 0.950 . S
C2584 C2593 1.390 . S
C2585 C2584 1.387 . S
C2585 C2587 1.387 . S
H2586 C2593 0.950 . S
C2587 C2585 1.387 . S
C2587 C2589 1.390 . S
C2587 H2591 0.950 . S
H2588 C2584 0.950 . S
C2589 C2587 1.390 . S
C2589 C2590 1.387 . S
C2589 H2592 0.950 . S
C2590 C2589 1.387 . S
C2590 C2593 1.387 . S
H2591 C2587 0.950 . S
H2592 C2589 0.950 . S
C2593 C2584 1.390 . S
C2593 H2586 0.950 . S
C2593 C2590 1.387 . S
C2594 C2595 1.387 . S
C2594 H2598 0.950 . S
C2594 C2603 1.390 . S
C2595 C2594 1.387 . S
C2595 C2597 1.387 . S
H2596 C2603 0.950 . S
C2597 C2595 1.387 . S
C2597 C2599 1.390 . S
C2597 H2601 0.950 . S
H2598 C2594 0.950 . S
C2599 C2597 1.390 . S
C2599 C2600 1.387 . S
C2599 H2602 0.950 . S
C2600 C2599 1.387 . S
C2600 C2603 1.387 . S
H2601 C2597 0.950 . S
H2602 C2599 0.950 . S
C2603 C2594 1.390 . S
C2603 H2596 0.950 . S
C2603 C2600 1.387 . S
C2604 C2605 1.387 . S
C2604 H2608 0.950 . S
C2604 C2613 1.390 . S
C2605 C2604 1.387 . S
C2605 C2607 1.387 . S
H2606 C2613 0.950 . S
C2607 C2605 1.387 . S
C2607 C2609 1.390 . S
C2607 H2611 0.950 . S
H2608 C2604 0.950 . S
C2609 C2607 1.390 . S
C2609 C2610 1.387 . S
C2609 H2612 0.950 . S
C2610 C2609 1.387 . S
C2610 C2613 1.387 . S
H2611 C2607 0.950 . S
H2612 C2609 0.950 . S
C2613 C2604 1.390 . S
C2613 H2606 0.950 . S
C2613 C2610 1.387 . S
C2614 C2615 1.387 . S
C2614 H2618 0.950 . S
C2614 C2623 1.390 . S
C2615 C2614 1.387 . S
C2615 C2617 1.387 . S
H2616 C2623 0.950 . S
C2617 C2615 1.387 . S
C2617 C2619 1.390 . S
C2617 H2621 0.950 . S
H2618 C2614 0.950 . S
C2619 C2617 1.390 . S
C2619 C2620 1.387 . S
C2619 H2622 0.950 . S
C2620 C2619 1.387 . S
C2620 C2623 1.387 . S
H2621 C2617 0.950 . S
H2622 C2619 0.950 . S
C2623 C2614 1.390 . S
C2623 H2616 0.950 . S
C2623 C2620 1.387 . S
C2624 C2625 1.387 . S
C2624 H2628 0.950 . S
C2624 C2633 1.390 . S
C2625 C2624 1.387 . S
C2625 C2627 1.387 . S
H2626 C2633 0.950 . S
C2627 C2625 1.387 . S
C2627 C2629 1.390 . S
C2627 H2631 0.950 . S
H2628 C2624 0.950 . S
C2629 C2627 1.390 . S
C2629 C2630 1.387 . S
C2629 H2632 0.950 . S
C2630 C2629 1.387 . S
C2630 C2633 1.387 . S
H2631 C2627 0.950 . S
H2632 C2629 0.950 . S
C2633 C2624 1.390 . S
C2633 H2626 0.950 . S
C2633 C2630 1.387 . S
C2634 C2635 1.387 . S
C2634 H2638 0.950 . S
C2634 C2643 1.390 . S
C2635 C2634 1.387 . S
C2635 C2637 1.387 . S
H2636 C2643 0.950 . S
C2637 C2635 1.387 . S
C2637 C2639 1.390 . S
C2637 H2641 0.950 . S
H2638 C2634 0.950 . S
C2639 C2637 1.390 . S
C2639 C2640 1.387 . S
C2639 H2642 0.950 . S
C2640 C2639 1.387 . S
C2640 C2643 1.387 . S
H2641 C2637 0.950 . S
H2642 C2639 0.950 . S
C2643 C2634 1.390 . S
C2643 H2636 0.950 . S
C2643 C2640 1.387 . S
C2644 C2645 1.387 . S
C2644 H2648 0.950 . S
C2644 C2653 1.390 . S
C2645 C2644 1.387 . S
C2645 C2647 1.387 . S
H2646 C2653 0.950 . S
C2647 C2645 1.387 . S
C2647 C2649 1.390 . S
C2647 H2651 0.950 . S
H2648 C2644 0.950 . S
C2649 C2647 1.390 . S
C2649 C2650 1.387 . S
C2649 H2652 0.950 . S
C2650 C2649 1.387 . S
C2650 C2653 1.387 . S
H2651 C2647 0.950 . S
H2652 C2649 0.950 . S
C2653 C2644 1.390 . S
C2653 H2646 0.950 . S
C2653 C2650 1.387 . S
C2654 C2655 1.387 . S
C2654 H2658 0.950 . S
C2654 C2663 1.390 . S
C2655 C2654 1.387 . S
C2655 C2657 1.387 . S
H2656 C2663 0.950 . S
C2657 C2655 1.387 . S
C2657 C2659 1.390 . S
C2657 H2661 0.950 . S
H2658 C2654 0.950 . S
C2659 C2657 1.390 . S
C2659 C2660 1.387 . S
C2659 H2662 0.950 . S
C2660 C2659 1.387 . S
C2660 C2663 1.387 . S
H2661 C2657 0.950 . S
H2662 C2659 0.950 . S
C2663 C2654 1.390 . S
C2663 H2656 0.950 . S
C2663 C2660 1.387 . S
C2664 C2665 1.387 . S
C2664 H2668 0.950 . S
C2664 C2673 1.390 . S
C2665 C2664 1.387 . S
C2665 C2667 1.387 . S
H2666 C2673 0.950 . S
C2667 C2665 1.387 . S
C2667 C2669 1.390 . S
C2667 H2671 0.950 . S
H2668 C2664 0.950 . S
C2669 C2667 1.390 . S
C2669 C2670 1.387 . S
C2669 H2672 0.950 . S
C2670 C2669 1.387 . S
C2670 C2673 1.387 . S
H2671 C2667 0.950 . S
H2672 C2669 0.950 . S
C2673 C2664 1.390 . S
C2673 H2666 0.950 . S
C2673 C2670 1.387 . S
C2674 C2675 1.387 . S
C2674 H2678 0.950 . S
C2674 C2683 1.390 . S
C2675 C2674 1.387 . S
C2675 C2677 1.387 . S
H2676 C2683 0.950 . S
C2677 C2675 1.387 . S
C2677 C2679 1.390 . S
C2677 H2681 0.950 . S
H2678 C2674 0.950 . S
C2679 C2677 1.390 . S
C2679 C2680 1.387 . S
C2679 H2682 0.950 . S
C2680 C2679 1.387 . S
C2680 C2683 1.387 . S
H2681 C2677 0.950 . S
H2682 C2679 0.950 . S
C2683 C2674 1.390 . S
C2683 H2676 0.950 . S
C2683 C2680 1.387 . S
C2684 C2685 1.387 . S
C2684 H2688 0.950 . S
C2684 C2693 1.390 . S
C2685 C2684 1.387 . S
C2685 C2687 1.387 . S
H2686 C2693 0.950 . S
C2687 C2685 1.387 . S
C2687 C2689 1.390 . S
C2687 H2691 0.950 . S
H2688 C2684 0.950 . S
C2689 C2687 1.390 . S
C2689 C2690 1.387 . S
C2689 H2692 0.950 . S
C2690 C2689 1.387 . S
C2690 C2693 1.387 . S
H2691 C2687 0.950 . S
H2692 C2689 0.950 . S
C2693 C2684 1.390 . S
C2693 H2686 0.950 . S
C2693 C2690 1.387 . S
C2694 C2695 1.387 . S
C2694 H2698 0.950 . S
C2694 C2703 1.390 . S
C2695 C2694 1.387 . S
C2695 C2697 1.387 . S
H2696 C2703 0.950 . S
C2697 C2695 1.387 . S
C2697 C2699 1.390 . S
C2697 H2701 0.950 . S
H2698 C2694 0.950 . S
C2699 C2697 1.390 . S
C2699 C2700 1.387 . S
C2699 H2702 0.950 . S
C2700 C2699 1.387 . S
C2700 C2703 1.387 . S
H2701 C2697 0.950 . S
H2702 C2699 0.950 . S
C2703 C2694 1.390 . S
C2703 H2696 0.950 . S
C2703 C2700 1.387 . S
C2704 C2705 1.387 . S
C2704 H2708 0.950 . S
C2704 C2713 1.390 . S
C2705 C2704 1.387 . S
C2705 C2707 1.387 . S
H2706 C2713 0.950 . S
C2707 C2705 1.387 . S
C2707 C2709 1.390 . S
C2707 H2711 0.950 . S
H2708 C2704 0.950 . S
C2709 C2707 1.390 . S
C2709 C2710 1.387 . S
C2709 H2712 0.950 . S
C2710 C2709 1.387 . S
C2710 C2713 1.387 . S
H2711 C2707 0.950 . S
H2712 C2709 0.950 . S
C2713 C2704 1.390 . S
C2713 H2706 0.950 . S
C2713 C2710 1.387 . S
C2714 C2715 1.387 . S
C2714 H2718 0.950 . S
C2714 C2723 1.390 . S
C2715 C2714 1.387 . S
C2715 C2717 1.387 . S
H2716 C2723 0.950 . S
C2717 C2715 1.387 . S
C2717 C2719 1.390 . S
C2717 H2721 0.950 . S
H2718 C2714 0.950 . S
C2719 C2717 1.390 . S
C2719 C2720 1.387 . S
C2719 H2722 0.950 . S
C2720 C2719 1.387 . S
C2720 C2723 1.387 . S
H2721 C2717 0.950 . S
H2722 C2719 0.950 . S
C2723 C2714 1.390 . S
C2723 H2716 0.950 . S
C2723 C2720 1.387 . S
C2724 C2725 1.387 . S
C2724 H2728 0.950 . S
C2724 C2733 1.390 . S
C2725 C2724 1.387 . S
C2725 C2727 1.387 . S
H2726 C2733 0.950 . S
C2727 C2725 1.387 . S
C2727 C2729 1.390 . S
C2727 H2731 0.950 . S
H2728 C2724 0.950 . S
C2729 C2727 1.390 . S
C2729 C2730 1.387 . S
C2729 H2732 0.950 . S
C2730 C2729 1.387 . S
C2730 C2733 1.387 . S
H2731 C2727 0.950 . S
H2732 C2729 0.950 . S
C2733 C2724 1.390 . S
C2733 H2726 0.950 . S
C2733 C2730 1.387 . S
C2734 C2735 1.387 . S
C2734 H2738 0.950 . S
C2734 C2743 1.390 . S
C2735 C2734 1.387 . S
C2735 C2737 1.387 . S
H2736 C2743 0.950 . S
C2737 C2735 1.387 . S
C2737 C2739 1.390 . S
C2737 H2741 0.950 . S
H2738 C2734 0.950 . S
C2739 C2737 1.390 . S
C2739 C2740 1.387 . S
C2739 H2742 0.950 . S
C2740 C2739 1.387 . S
C2740 C2743 1.387 . S
H2741 C2737 0.950 . S
H2742 C2739 0.950 . S
C2743 C2734 1.390 . S
C2743 H2736 0.950 . S
C2743 C2740 1.387 . S
C2744 C2745 1.387 . S
C2744 H2748 0.950 . S
C2744 C2753 1.390 . S
C2745 C2744 1.387 . S
C2745 C2747 1.387 . S
H2746 C2753 0.950 . S
C2747 C2745 1.387 . S
C2747 C2749 1.390 . S
C2747 H2751 0.950 . S
H2748 C2744 0.950 . S
C2749 C2747 1.390 . S
C2749 C2750 1.387 . S
C2749 H2752 0.950 . S
C2750 C2749 1.387 . S
C2750 C2753 1.387 . S
H2751 C2747 0.950 . S
H2752 C2749 0.950 . S
C2753 C2744 1.390 . S
C2753 H2746 0.950 . S
C2753 C2750 1.387 . S
C2754 C2755 1.387 . S
C2754 H2758 0.950 . S
C2754 C2763 1.390 . S
C2755 C2754 1.387 . S
C2755 C2757 1.387 . S
H2756 C2763 0.950 . S
C2757 C2755 1.387 . S
C2757 C2759 1.390 . S
C2757 H2761 0.950 . S
H2758 C2754 0.950 . S
C2759 C2757 1.390 . S
C2759 C2760 1.387 . S
C2759 H2762 0.950 . S
C2760 C2759 1.387 . S
C2760 C2763 1.387 . S
H2761 C2757 0.950 . S
H2762 C2759 0.950 . S
C2763 C2754 1.390 . S
C2763 H2756 0.950 . S
C2763 C2760 1.387 . S
C2764 C2765 1.387 . S
C2764 H2768 0.950 . S
C2764 C2773 1.390 . S
C2765 C2764 1.387 . S
C2765 C2767 1.387 . S
H2766 C2773 0.950 . S
C2767 C2765 1.387 . S
C2767 C2769 1.390 . S
C2767 H2771 0.950 . S
H2768 C2764 0.950 . S
C2769 C2767 1.390 . S
C2769 C2770 1.387 . S
C2769 H2772 0.950 . S
C2770 C2769 1.387 . S
C2770 C2773 1.387 . S
H2771 C2767 0.950 . S
H2772 C2769 0.950 . S
C2773 C2764 1.390 . S
C2773 H2766 0.950 . S
C2773 C2770 1.387 . S
C2774 C2775 1.387 . S
C2774 H2778 0.950 . S
C2774 C2783 1.390 . S
C2775 C2774 1.387 . S
C2775 C2777 1.387 . S
H2776 C2783 0.950 . S
C2777 C2775 1.387 . S
C2777 C2779 1.390 . S
C2777 H2781 0.950 . S
H2778 C2774 0.950 . S
C2779 C2777 1.390 . S
C2779 C2780 1.387 . S
C2779 H2782 0.950 . S
C2780 C2779 1.387 . S
C2780 C2783 1.387 . S
H2781 C2777 0.950 . S
H2782 C2779 0.950 . S
C2783 C2774 1.390 . S
C2783 H2776 0.950 . S
C2783 C2780 1.387 . S
C2784 C2785 1.387 . S
C2784 H2788 0.950 . S
C2784 C2793 1.390 1_455 S
C2785 C2784 1.387 . S
C2785 C2787 1.387 . S
H2786 C2793 0.950 . S
C2787 C2785 1.387 . S
C2787 C2789 1.390 1_455 S
C2787 H2791 0.950 . S
H2788 C2784 0.950 . S
C2789 C2787 1.390 1_655 S
C2789 C2790 1.387 . S
C2789 H2792 0.950 . S
C2790 C2789 1.387 . S
C2790 C2793 1.387 . S
H2791 C2787 0.950 . S
H2792 C2789 0.950 . S
C2793 C2784 1.390 1_655 S
C2793 H2786 0.950 . S
C2793 C2790 1.387 . S
C2794 C2795 1.387 . S
C2794 H2798 0.950 . S
C2794 C2803 1.390 . S
C2795 C2794 1.387 . S
C2795 C2797 1.387 . S
H2796 C2803 0.950 . S
C2797 C2795 1.387 . S
C2797 C2799 1.390 . S
C2797 H2801 0.950 . S
H2798 C2794 0.950 . S
C2799 C2797 1.390 . S
C2799 C2800 1.387 . S
C2799 H2802 0.950 . S
C2800 C2799 1.387 . S
C2800 C2803 1.387 . S
H2801 C2797 0.950 . S
H2802 C2799 0.950 . S
C2803 C2794 1.390 . S
C2803 H2796 0.950 . S
C2803 C2800 1.387 . S
C2804 C2805 1.387 . S
C2804 H2808 0.950 . S
C2804 C2813 1.390 1_545 S
C2805 C2804 1.387 . S
C2805 C2807 1.387 . S
H2806 C2813 0.950 . S
C2807 C2805 1.387 . S
C2807 C2809 1.390 1_545 S
C2807 H2811 0.950 . S
H2808 C2804 0.950 . S
C2809 C2807 1.390 1_565 S
C2809 C2810 1.387 . S
C2809 H2812 0.950 . S
C2810 C2809 1.387 . S
C2810 C2813 1.387 . S
H2811 C2807 0.950 . S
H2812 C2809 0.950 . S
C2813 C2804 1.390 1_565 S
C2813 H2806 0.950 . S
C2813 C2810 1.387 . S
C2814 C2815 1.387 1_554 S
C2814 H2818 0.950 . S
C2814 C2823 1.358 1_545 S
C2815 C2814 1.387 1_556 S
C2815 C2817 1.408 . S
H2816 C2823 0.962 . S
C2817 C2815 1.408 . S
C2817 C2819 1.358 1_545 S
C2817 H2821 0.962 . S
H2818 C2814 0.950 . S
C2819 C2817 1.358 1_565 S
C2819 C2820 1.387 1_556 S
C2819 H2822 0.950 . S
C2820 C2819 1.387 1_554 S
C2820 C2823 1.408 . S
H2821 C2817 0.962 . S
H2822 C2819 0.950 . S
C2823 C2814 1.358 1_565 S
C2823 H2816 0.962 . S
C2823 C2820 1.408 . S
C2824 C2825 1.387 1_554 S
C2824 H2828 0.950 . S
C2824 C2833 1.373 1_655 S
C2825 C2824 1.387 1_556 S
C2825 C2827 1.415 . S
H2826 C2833 0.940 . S
C2827 C2825 1.415 . S
C2827 C2829 1.373 1_655 S
C2827 H2831 0.940 . S
H2828 C2824 0.950 . S
C2829 C2827 1.373 1_455 S
C2829 C2830 1.387 1_556 S
C2829 H2832 0.950 . S
C2830 C2829 1.387 1_554 S
C2830 C2833 1.415 . S
H2831 C2827 0.940 . S
H2832 C2829 0.950 . S
C2833 C2824 1.373 1_455 S
C2833 H2826 0.940 . S
C2833 C2830 1.415 . S
C2834 C2835 1.387 . S
C2834 H2838 0.950 . S
C2834 C2843 1.390 1_556 S
C2835 C2834 1.387 . S
C2835 C2837 1.387 . S
H2836 C2843 0.950 . S
C2837 C2835 1.387 . S
C2837 C2839 1.390 1_556 S
C2837 H2841 0.950 . S
H2838 C2834 0.950 . S
C2839 C2837 1.390 1_554 S
C2839 C2840 1.387 . S
C2839 H2842 0.950 . S
C2840 C2839 1.387 . S
C2840 C2843 1.387 . S
H2841 C2837 0.950 . S
H2842 C2839 0.950 . S
C2843 C2834 1.390 1_554 S
C2843 H2836 0.950 . S
C2843 C2840 1.387 . S
C2125 C3 1.434 . S
C2130 C465 1.448 . S
C2135 C62 1.434 . S
C2140 C524 1.444 . S
C2145 C406 1.442 . S
C2150 C121 1.433 . S
C2155 C701 1.449 . S
C2160 C180 1.433 . S
C2165 C239 1.435 . S
C2170 C583 1.442 . S
C2175 C298 1.434 . S
C2180 C642 1.448 . S
C2185 C111 1.444 . S
C2190 C357 1.435 . S
C2195 C170 1.444 . S
C2200 C416 1.434 . S
C2205 C475 1.435 . S
C2210 C52 1.442 . S
C2215 C534 1.435 . S
C2220 C347 1.445 . S
C2225 C229 1.442 . S
C2230 C593 1.434 . S
C2235 C652 1.434 . S
C2240 C288 1.448 . S
C2245 C1173 1.442 . S
C2250 C711 1.434 . S
C2255 C770 1.434 . S
C2260 C1232 1.442 . S
C2265 C829 1.435 . S
C2270 C1114 1.442 . S
C2275 C1409 1.442 . S
C2280 C888 1.435 . S
C2285 C947 1.434 . S
C2290 C1291 1.441 . S
C2295 C1350 1.442 . S
C2300 C1006 1.434 . S
C2305 C819 1.441 . S
C2310 C1065 1.435 . S
C2315 C1124 1.434 . S
C2320 C878 1.442 . S
C2325 C760 1.442 . S
C2330 C1183 1.433 . S
C2335 C1242 1.435 . S
C2340 C1055 1.441 . S
C2345 C1301 1.435 . S
C2350 C937 1.441 . S
C2355 C1360 1.434 . S
C2360 C996 1.442 . S
C2365 C1881 1.442 . S
C2370 C1419 1.433 . S
C2375 C1940 1.441 . S
C2380 C1478 1.435 . S
C2385 C1822 1.442 . S
C2390 C1537 1.435 . S
C2395 C1596 1.435 . S
C2400 C2117 1.441 . S
C2405 C1655 1.434 . S
C2410 C1999 1.441 . S
C2415 C2058 1.442 . S
C2420 C1714 1.435 . S
C2425 C1773 1.435 . S
C2430 C1527 1.441 . S
C2435 C1586 1.441 . S
C2440 C1832 1.434 . S
C2445 C1468 1.442 . S
C2450 C1891 1.435 . S
C2455 C1950 1.435 . S
C2460 C1763 1.442 . S
C2465 C2009 1.433 . S
C2470 C1645 1.442 . S
C2475 C2068 1.434 . S
C2480 C1704 1.442 . S
C2485 C210 1.591 . S
C2490 C33 1.591 . S
C2495 C269 1.591 . S
C2500 C92 1.591 . S
C2505 C151 1.591 . S
C2510 C328 1.591 . S
C2515 C564 1.591 . S
C2520 C387 1.591 . S
C2525 C623 1.591 . S
C2530 C446 1.591 . S
C2535 C682 1.591 . S
C2540 C505 1.591 . S
C2545 C918 1.591 . S
C2550 C741 1.591 . S
C2555 C977 1.591 . S
C2560 C800 1.591 . S
C2565 C859 1.590 . S
C2570 C1036 1.591 . S
C2575 C1272 1.591 . S
C2580 C1095 1.591 . S
C2585 C1331 1.591 . S
C2590 C1154 1.591 . S
C2595 C1390 1.591 . S
C2600 C1213 1.591 . S
C2605 C1626 1.591 . S
C2610 C1449 1.591 . S
C2615 C1508 1.591 . S
C2620 C1685 1.591 . S
C2625 C1744 1.591 . S
C2630 C1567 1.591 . S
C2635 C1803 1.590 . S
C2640 C1980 1.591 . S
C2645 C1862 1.591 . S
C2650 C2039 1.591 . S
C2655 C1921 1.591 . S
C2660 C2098 1.591 . S
C2665 C5 1.459 . S
C2670 C1067 1.459 . S
C2675 C1126 1.459 . S
C2680 C64 1.459 . S
C2685 C1185 1.460 . S
C2690 C123 1.460 . S
C2695 C1952 1.459 . S
C2700 C182 1.459 . S
C2705 C2011 1.459 . S
C2710 C241 1.459 . S
C2715 C2070 1.460 . S
C2720 C300 1.460 . S
C2725 C359 1.459 . S
C2730 C1421 1.459 . S
C2735 C1480 1.460 . S
C2740 C418 1.460 . S
C2745 C1539 1.460 . S
C2750 C477 1.460 . S
C2755 C536 1.460 . S
C2760 C890 1.460 . S
C2765 C595 1.460 . S
C2770 C949 1.460 . S
C2775 C654 1.460 . S
C2780 C1008 1.460 . S
C2785 C1775 1.459 . S
C2790 C713 1.459 . S
C2795 C1834 1.459 . S
C2800 C772 1.459 . S
C2805 C831 1.460 . S
C2810 C1893 1.460 . S
C2815 C1244 1.459 . S
C2820 C1598 1.459 . S
C2825 C1303 1.460 . S
C2830 C1657 1.460 . S
C2835 C1362 1.460 . S
C2840 C1716 1.460 . S
