# Generated by pormake.
# Topology wme, (6)-cn, num edge types: 1
# Building blocks:
#     Node 0, Type 0, BuildingBlock: INOVEN_clean_sbu_0, # of connection points: 6
#     Node 1, Type 0, BuildingBlock: INOVEN_clean_sbu_0, # of connection points: 6
#     Node 2, Type 0, BuildingBlock: INOVEN_clean_sbu_0, # of connection points: 6
#     Node 3, Type 0, BuildingBlock: INOVEN_clean_sbu_0, # of connection points: 6
#     Node 4, Type 0, BuildingBlock: INOVEN_clean_sbu_0, # of connection points: 6
#     Node 5, Type 0, BuildingBlock: INOVEN_clean_sbu_0, # of connection points: 6
#     Node 6, Type 0, BuildingBlock: INOVEN_clean_sbu_0, # of connection points: 6
#     Node 7, Type 0, BuildingBlock: INOVEN_clean_sbu_0, # of connection points: 6
#     Node 8, Type 0, BuildingBlock: INOVEN_clean_sbu_0, # of connection points: 6
#     Node 9, Type 0, BuildingBlock: INOVEN_clean_sbu_0, # of connection points: 6
#     Node 10, Type 0, BuildingBlock: INOVEN_clean_sbu_0, # of connection points: 6
#     Node 11, Type 0, BuildingBlock: INOVEN_clean_sbu_0, # of connection points: 6
#     Edge 12, Type (0, 0), BuildingBlock: AJUNOK_clean_linker_0, # of connection points: 2
#     Edge 13, Type (0, 0), BuildingBlock: AJUNOK_clean_linker_0, # of connection points: 2
#     Edge 14, Type (0, 0), BuildingBlock: AJUNOK_clean_linker_0, # of connection points: 2
#     Edge 15, Type (0, 0), BuildingBlock: AJUNOK_clean_linker_0, # of connection points: 2
#     Edge 16, Type (0, 0), BuildingBlock: AJUNOK_clean_linker_0, # of connection points: 2
#     Edge 17, Type (0, 0), BuildingBlock: AJUNOK_clean_linker_0, # of connection points: 2
#     Edge 18, Type (0, 0), BuildingBlock: AJUNOK_clean_linker_0, # of connection points: 2
#     Edge 19, Type (0, 0), BuildingBlock: AJUNOK_clean_linker_0, # of connection points: 2
#     Edge 20, Type (0, 0), BuildingBlock: AJUNOK_clean_linker_0, # of connection points: 2
#     Edge 21, Type (0, 0), BuildingBlock: AJUNOK_clean_linker_0, # of connection points: 2
#     Edge 22, Type (0, 0), BuildingBlock: AJUNOK_clean_linker_0, # of connection points: 2
#     Edge 23, Type (0, 0), BuildingBlock: AJUNOK_clean_linker_0, # of connection points: 2
#     Edge 24, Type (0, 0), BuildingBlock: AJUNOK_clean_linker_0, # of connection points: 2
#     Edge 25, Type (0, 0), BuildingBlock: AJUNOK_clean_linker_0, # of connection points: 2
#     Edge 26, Type (0, 0), BuildingBlock: AJUNOK_clean_linker_0, # of connection points: 2
#     Edge 27, Type (0, 0), BuildingBlock: AJUNOK_clean_linker_0, # of connection points: 2
#     Edge 28, Type (0, 0), BuildingBlock: AJUNOK_clean_linker_0, # of connection points: 2
#     Edge 29, Type (0, 0), BuildingBlock: AJUNOK_clean_linker_0, # of connection points: 2
#     Edge 30, Type (0, 0), BuildingBlock: AJUNOK_clean_linker_0, # of connection points: 2
#     Edge 31, Type (0, 0), BuildingBlock: AJUNOK_clean_linker_0, # of connection points: 2
#     Edge 32, Type (0, 0), BuildingBlock: AJUNOK_clean_linker_0, # of connection points: 2
#     Edge 33, Type (0, 0), BuildingBlock: AJUNOK_clean_linker_0, # of connection points: 2
#     Edge 34, Type (0, 0), BuildingBlock: AJUNOK_clean_linker_0, # of connection points: 2
#     Edge 35, Type (0, 0), BuildingBlock: AJUNOK_clean_linker_0, # of connection points: 2
#     Edge 36, Type (0, 0), BuildingBlock: AJUNOK_clean_linker_0, # of connection points: 2
#     Edge 37, Type (0, 0), BuildingBlock: AJUNOK_clean_linker_0, # of connection points: 2
#     Edge 38, Type (0, 0), BuildingBlock: AJUNOK_clean_linker_0, # of connection points: 2
#     Edge 39, Type (0, 0), BuildingBlock: AJUNOK_clean_linker_0, # of connection points: 2
#     Edge 40, Type (0, 0), BuildingBlock: AJUNOK_clean_linker_0, # of connection points: 2
#     Edge 41, Type (0, 0), BuildingBlock: AJUNOK_clean_linker_0, # of connection points: 2
#     Edge 42, Type (0, 0), BuildingBlock: AJUNOK_clean_linker_0, # of connection points: 2
#     Edge 43, Type (0, 0), BuildingBlock: AJUNOK_clean_linker_0, # of connection points: 2
#     Edge 44, Type (0, 0), BuildingBlock: AJUNOK_clean_linker_0, # of connection points: 2
#     Edge 45, Type (0, 0), BuildingBlock: AJUNOK_clean_linker_0, # of connection points: 2
#     Edge 46, Type (0, 0), BuildingBlock: AJUNOK_clean_linker_0, # of connection points: 2
#     Edge 47, Type (0, 0), BuildingBlock: AJUNOK_clean_linker_0, # of connection points: 2
# Relax obj value: 0.105
# Max RMSD: 0.227
# Mean RMSD: 0.227
data_MOF--net-wme--node1-INOVEN_clean_sbu_0--edge1-AJUNOK_clean_linker_0
_symmetry_space_group_name_H-M    P1
_symmetry_Int_Tables_number       1
_symmetry_cell_setting            triclinic
loop_
_symmetry_equiv_pos_as_xyz
'x, y, z'
_cell_length_a     32.095227
_cell_length_b     32.203398
_cell_length_c     36.950848
_cell_angle_alpha  90.091908
_cell_angle_beta   90.187431
_cell_angle_gamma 119.83444
loop_
_atom_site_label
_atom_site_type_symbol
_atom_site_fract_x
_atom_site_fract_y
_atom_site_fract_z
_atom_type_partial_charge
Gd0 Gd 0.23686 0.38844 0.10116 0.0
Gd1 Gd 0.28097 0.33497 0.1345 0.0
C2 C 0.34485 0.44759 0.12888 0.0
C3 C 0.21074 0.44836 0.07771 0.0
C4 C 0.21088 0.49375 0.08469 0.0
C5 C 0.18426 0.50594 0.0614 0.0
C6 C 0.23408 0.52343 0.1146 0.0
C7 C 0.20019 0.575 0.0991 0.0
C8 C 0.22956 0.56413 0.12134 0.0
C9 C 0.17851 0.5454 0.06862 0.0
C10 C 0.26987 0.34423 0.05452 0.0
C11 C 0.16372 0.28445 0.12471 0.0
C12 C 0.30127 0.26709 0.13267 0.0
C13 C 0.27196 0.21435 0.13665 0.0
C14 C 0.28182 0.19088 0.1645 0.0
C15 C 0.23639 0.18658 0.11076 0.0
C16 C 0.22761 0.11359 0.13693 0.0
C17 C 0.21457 0.13676 0.1109 0.0
C18 C 0.25964 0.14081 0.16474 0.0
C19 C 0.25083 0.3627 0.19159 0.0
O20 O 0.30336 0.44654 0.12718 0.0
O21 O 0.34741 0.4077 0.12858 0.0
O22 O 0.25092 0.4503 0.0684 0.0
O23 O 0.18461 0.41242 0.09905 0.0
O24 O 0.22799 0.34079 0.05141 0.0
O25 O 0.28978 0.3688 0.08209 0.0
O26 O 0.20164 0.27903 0.1289 0.0
O27 O 0.16809 0.32588 0.11644 0.0
O28 O 0.30967 0.29408 0.16148 0.0
O29 O 0.29187 0.28452 0.10395 0.0
O30 O 0.27701 0.34255 0.1933 0.0
O31 O 0.24458 0.37269 0.15913 0.0
H32 H 0.16627 0.48374 0.03802 0.0
H33 H 0.25531 0.51498 0.13283 0.0
H34 H 0.24939 0.5868 0.14392 0.0
H35 H 0.15534 0.55133 0.05064 0.0
H36 H 0.30841 0.21129 0.18504 0.0
H37 H 0.22689 0.20323 0.08928 0.0
H38 H 0.18921 0.11644 0.08959 0.0
H39 H 0.2699 0.12361 0.18529 0.0
Gd40 Gd 0.87787 0.21861 0.60317 0.0
Gd41 Gd 0.96836 0.25612 0.63551 0.0
C42 C 0.92388 0.32414 0.62901 0.0
C43 C 0.79145 0.19118 0.57995 0.0
C44 C 0.74736 0.19337 0.58621 0.0
C45 C 0.71222 0.17676 0.55891 0.0
C46 C 0.73789 0.20759 0.61967 0.0
C47 C 0.65705 0.18495 0.59914 0.0
C48 C 0.69304 0.20361 0.62601 0.0
C49 C 0.66732 0.17238 0.56533 0.0
C50 C 0.95444 0.25752 0.55514 0.0
C51 C 0.90426 0.14014 0.62099 0.0
C52 C 0.05308 0.26688 0.63311 0.0
C53 C 0.07948 0.241 0.63927 0.0
C54 C 0.10576 0.24695 0.67115 0.0
C55 C 0.08311 0.21428 0.6104 0.0
C56 C 0.14293 0.20523 0.64326 0.0
C57 C 0.11444 0.1965 0.61247 0.0
C58 C 0.1375 0.22905 0.67312 0.0
C59 C 0.9095 0.23878 0.69016 0.0
O60 O 0.88362 0.28323 0.63013 0.0
O61 O 0.96513 0.32438 0.62494 0.0
O62 O 0.82933 0.22981 0.56853 0.0
O63 O 0.80176 0.16759 0.60366 0.0
O64 O 0.91608 0.2163 0.55048 0.0
O65 O 0.9498 0.27426 0.58426 0.0
O66 O 0.94128 0.17583 0.63739 0.0
O67 O 0.87336 0.14782 0.60357 0.0
O68 O 1.03976 0.28412 0.66029 0.0
O69 O 1.02065 0.24767 0.60765 0.0
O70 O 0.9531 0.27493 0.68822 0.0
O71 O 0.89764 0.2113 0.6618 0.0
H72 H 0.71899 0.16569 0.53291 0.0
H73 H 0.76456 0.22038 0.64111 0.0
H74 H 0.68584 0.2135 0.65233 0.0
H75 H 0.64036 0.15853 0.54409 0.0
H76 H 0.10375 0.26749 0.69363 0.0
H77 H 0.06391 0.20937 0.58515 0.0
H78 H 0.11892 0.17883 0.58902 0.0
H79 H 0.15999 0.23647 0.69689 0.0
Gd80 Gd 0.68699 0.86229 0.10504 0.0
Gd81 Gd 0.74058 0.95442 0.13776 0.0
C82 C 0.62774 0.9095 0.13216 0.0
C83 C 0.62739 0.77587 0.08265 0.0
C84 C 0.58044 0.73199 0.08703 0.0
C85 C 0.56672 0.69563 0.06115 0.0
C86 C 0.55145 0.72374 0.11755 0.0
C87 C 0.49773 0.6412 0.09758 0.0
C88 C 0.51022 0.67882 0.12263 0.0
C89 C 0.5263 0.65069 0.06649 0.0
C90 C 0.7221 0.9392 0.05778 0.0
C91 C 0.79236 0.89012 0.123 0.0
C92 C 0.8151 0.03837 0.13317 0.0
C93 C 0.86791 0.06552 0.13742 0.0
C94 C 0.8904 0.08929 0.16971 0.0
C95 C 0.89636 0.07206 0.10665 0.0
C96 C 0.96778 0.12864 0.13921 0.0
C97 C 0.94563 0.1032 0.10758 0.0
C98 C 0.94024 0.1206 0.17063 0.0
C99 C 0.70079 0.89424 0.19215 0.0
O100 O 0.62896 0.86935 0.13256 0.0
O101 O 0.6684 0.95093 0.12865 0.0
O102 O 0.62831 0.81393 0.06955 0.0
O103 O 0.65959 0.78583 0.10794 0.0
O104 O 0.72522 0.9011 0.05197 0.0
O105 O 0.70173 0.93385 0.08738 0.0
O106 O 0.79242 0.92586 0.14031 0.0
O107 O 0.75499 0.85979 0.10413 0.0
O108 O 0.78619 1.02585 0.16131 0.0
O109 O 0.8001 1.00574 0.10774 0.0
O110 O 0.70823 0.93796 0.19111 0.0
O111 O 0.71607 0.88325 0.16317 0.0
H112 H 0.58872 0.70123 0.03747 0.0
H113 H 0.56138 0.75145 0.13785 0.0
H114 H 0.48883 0.67322 0.14664 0.0
H115 H 0.51925 0.62281 0.04702 0.0
H116 H 0.86939 0.08522 0.19368 0.0
H117 H 0.88032 0.05482 0.08111 0.0
H118 H 0.96625 0.10908 0.08304 0.0
H119 H 0.95684 0.14041 0.19522 0.0
Gd120 Gd 0.85455 0.67103 0.60485 0.0
Gd121 Gd 0.81186 0.72274 0.63918 0.0
C122 C 0.74696 0.61045 0.62934 0.0
C123 C 0.88131 0.61159 0.5811 0.0
C124 C 0.8783 0.56464 0.58701 0.0
C125 C 0.90492 0.5519 0.56431 0.0
C126 C 0.85262 0.53405 0.61566 0.0
C127 C 0.88497 0.48092 0.60084 0.0
C128 C 0.85503 0.49211 0.622 0.0
C129 C 0.90877 0.51129 0.5713 0.0
C130 C 0.82102 0.71643 0.55887 0.0
C131 C 0.92804 0.77642 0.62419 0.0
C132 C 0.79137 0.78995 0.64934 0.0
C133 C 0.81975 0.84293 0.64708 0.0
C134 C 0.81931 0.87098 0.67602 0.0
C135 C 0.84497 0.86599 0.61538 0.0
C136 C 0.86245 0.94323 0.63989 0.0
C137 C 0.86592 0.91565 0.61181 0.0
C138 C 0.84065 0.92074 0.67252 0.0
C139 C 0.83573 0.67849 0.6902 0.0
O140 O 0.7885 0.61178 0.63017 0.0
O141 O 0.74518 0.65073 0.62809 0.0
O142 O 0.8433 0.61223 0.56917 0.0
O143 O 0.90528 0.64506 0.60503 0.0
O144 O 0.86225 0.7185 0.55499 0.0
O145 O 0.80148 0.69129 0.58601 0.0
O146 O 0.88951 0.78084 0.62813 0.0
O147 O 0.92437 0.73477 0.61774 0.0
O148 O 0.8009 0.76939 0.6761 0.0
O149 O 0.78386 0.76675 0.61887 0.0
O150 O 0.79702 0.68192 0.69041 0.0
O151 O 0.86078 0.69903 0.66209 0.0
H152 H 0.92467 0.57468 0.54181 0.0
H153 H 0.83117 0.54278 0.63332 0.0
H154 H 0.83323 0.46893 0.64351 0.0
H155 H 0.93242 0.50533 0.55404 0.0
H156 H 0.8007 0.85416 0.70082 0.0
H157 H 0.84692 0.8456 0.59275 0.0
H158 H 0.88312 0.93231 0.58655 0.0
H159 H 0.83762 0.94129 0.69456 0.0
Gd160 Gd 0.21267 0.83843 0.10081 0.0
Gd161 Gd 0.11877 0.80148 0.13801 0.0
C162 C 0.16225 0.73261 0.12466 0.0
C163 C 0.30116 0.87353 0.07977 0.0
C164 C 0.3443 0.86953 0.08874 0.0
C165 C 0.37344 0.86885 0.06072 0.0
C166 C 0.3588 0.86978 0.12474 0.0
C167 C 0.43332 0.87401 0.10437 0.0
C168 C 0.40283 0.87221 0.13245 0.0
C169 C 0.41734 0.87099 0.0684 0.0
C170 C 0.1327 0.8021 0.05633 0.0
C171 C 0.18331 0.916 0.12322 0.0
C172 C 1.03041 0.77697 0.15157 0.0
C173 C 1.00091 0.80024 0.15034 0.0
C174 C 0.9567 0.7788 0.16824 0.0
C175 C 1.01704 0.84447 0.13313 0.0
C176 C 0.94158 0.84151 0.14702 0.0
C177 C 0.98705 0.86446 0.13072 0.0
C178 C 0.92736 0.79941 0.16679 0.0
C179 C 0.17985 0.81671 0.1924 0.0
O180 O 0.20365 0.77225 0.12607 0.0
O181 O 0.12159 0.73394 0.12283 0.0
O182 O 0.26499 0.83661 0.06429 0.0
O183 O 0.2874 0.89424 0.10368 0.0
O184 O 0.16805 0.79392 0.05213 0.0
O185 O 0.14192 0.82912 0.08342 0.0
O186 O 0.14462 0.88091 0.13841 0.0
O187 O 0.21461 0.90839 0.10585 0.0
O188 O 0.06457 0.79448 0.17575 0.0
O189 O 1.044 0.76736 0.12073 0.0
O190 O 0.13384 0.79432 0.19495 0.0
O191 O 0.19385 0.82585 0.15952 0.0
H192 H 0.36295 0.86821 0.03273 0.0
H193 H 0.33696 0.86989 0.14699 0.0
H194 H 0.41395 0.87507 0.16046 0.0
H195 H 0.43937 0.87146 0.04608 0.0
H196 H 0.94452 0.74565 0.18289 0.0
H197 H 0.05227 0.86295 0.12093 0.0
H198 H 0.99901 0.8974 0.11581 0.0
H199 H 0.89264 0.78137 0.17989 0.0
Gd200 Gd 0.40365 0.19473 0.60162 0.0
Gd201 Gd 0.35339 0.10663 0.63891 0.0
C202 C 0.46482 0.15207 0.62928 0.0
C203 C 0.46469 0.27951 0.57732 0.0
C204 C 0.50983 0.32426 0.58645 0.0
C205 C 0.54348 0.34873 0.55911 0.0
C206 C 0.51798 0.34519 0.62102 0.0
C207 C 0.59048 0.4164 0.59977 0.0
C208 C 0.5577 0.39068 0.62755 0.0
C209 C 0.58357 0.39397 0.56574 0.0
C210 C 0.3618 0.11413 0.55699 0.0
C211 C 0.30209 0.17157 0.6244 0.0
C212 C 0.27731 1.02382 0.63874 0.0
C213 C 0.22511 0.99173 0.64267 0.0
C214 C 0.201 0.97783 0.67585 0.0
C215 C 0.19858 0.97475 0.61037 0.0
C216 C 0.12473 0.92906 0.6437 0.0
C217 C 0.14932 0.94401 0.61083 0.0
C218 C 0.15093 0.94671 0.67634 0.0
C219 C 0.39826 0.17144 0.68987 0.0
O220 O 0.46103 0.19052 0.63128 0.0
O221 O 0.42481 0.1098 0.62655 0.0
O222 O 0.46728 0.2412 0.56976 0.0
O223 O 0.42652 0.26997 0.59609 0.0
O224 O 0.36198 0.15364 0.55001 0.0
O225 O 0.38495 0.12057 0.58567 0.0
O226 O 0.30296 0.1369 0.6426 0.0
O227 O 0.33788 0.1996 0.60373 0.0
O228 O 0.30939 0.03571 0.66493 0.0
O229 O 0.28767 0.05785 0.61526 0.0
O230 O 0.39214 0.12818 0.69011 0.0
O231 O 0.37996 0.1794 0.66117 0.0
H232 H 0.53818 0.33328 0.53226 0.0
H233 H 0.49283 0.3271 0.64275 0.0
H234 H 0.56173 0.40642 0.65415 0.0
H235 H 0.60886 0.41137 0.54401 0.0
H236 H 0.22056 0.99087 0.70109 0.0
H237 H 0.21617 0.98492 0.5843 0.0
H238 H 0.13071 0.93083 0.58524 0.0
H239 H 0.13279 0.93647 0.70217 0.0
Gd240 Gd 0.68766 0.83711 0.42264 0.0
Gd241 Gd 0.74007 0.79534 0.3907 0.0
C242 C 0.62746 0.73016 0.39884 0.0
C243 C 0.62734 0.86283 0.44643 0.0
C244 C 0.58125 0.86148 0.43922 0.0
C245 C 0.56585 0.884 0.46392 0.0
C246 C 0.55428 0.84153 0.40751 0.0
C247 C 0.50006 0.87184 0.42365 0.0
C248 C 0.51366 0.84606 0.40005 0.0
C249 C 0.52608 0.88935 0.45624 0.0
C250 C 0.73523 0.8088 0.47089 0.0
C251 C 0.79204 0.91116 0.40368 0.0
C252 C 0.80695 0.77413 0.3796 0.0
C253 C 0.86017 0.8014 0.37887 0.0
C254 C 0.88479 0.78827 0.35428 0.0
C255 C 0.88688 0.83829 0.40393 0.0
C256 C 0.96101 0.84279 0.38355 0.0
C257 C 0.93674 0.85813 0.40674 0.0
C258 C 0.93482 0.809 0.35642 0.0
C259 C 0.69623 0.81587 0.33715 0.0
O260 O 0.6292 0.77159 0.39646 0.0
O261 O 0.66796 0.72869 0.40173 0.0
O262 O 0.62611 0.82324 0.45599 0.0
O263 O 0.66293 0.88869 0.42474 0.0
O264 O 0.73606 0.84938 0.47287 0.0
O265 O 0.70973 0.78625 0.44431 0.0
O266 O 0.79761 0.87329 0.40117 0.0
O267 O 0.74968 0.90663 0.40837 0.0
O268 O 0.78429 0.78167 0.35331 0.0
O269 O 0.78687 0.77031 0.41103 0.0
O270 O 0.69934 0.77724 0.33908 0.0
O271 O 0.71527 0.84229 0.36524 0.0
H272 H 0.58584 0.89926 0.48873 0.0
H273 H 0.5651 0.8233 0.38827 0.0
H274 H 0.49336 0.82966 0.37564 0.0
H275 H 0.51711 0.90914 0.47537 0.0
H276 H 0.86512 0.76063 0.33427 0.0
H277 H 0.86922 0.85099 0.42193 0.0
H278 H 0.95624 0.88476 0.42747 0.0
H279 H 0.95271 0.79671 0.33808 0.0
Gd280 Gd 0.87657 0.6697 0.92133 0.0
Gd281 Gd 0.97194 0.72119 0.88916 0.0
C282 C 0.92317 0.60887 0.89647 0.0
C283 C 0.78964 0.61026 0.94271 0.0
C284 C 0.74602 0.56329 0.93633 0.0
C285 C 0.71208 0.54353 0.96416 0.0
C286 C 0.73505 0.54056 0.90231 0.0
C287 C 0.65459 0.48243 0.92314 0.0
C288 C 0.68975 0.50014 0.89587 0.0
C289 C 0.6668 0.50363 0.95764 0.0
C290 C 0.95323 0.71139 0.96925 0.0
C291 C 0.91072 0.77655 0.90715 0.0
C292 C 0.06042 0.78814 0.88327 0.0
C293 C 0.08526 0.84131 0.88457 0.0
C294 C 0.1134 0.86818 0.85526 0.0
C295 C 0.08345 0.86576 0.91572 0.0
C296 C 0.14106 0.94234 0.88934 0.0
C297 C 0.11131 0.91569 0.91812 0.0
C298 C 0.14094 0.91818 0.85757 0.0
C299 C 0.9059 0.67989 0.83644 0.0
O300 O 0.88349 0.61106 0.89472 0.0
O301 O 0.96539 0.64865 0.8993 0.0
O302 O 0.82769 0.6111 0.95632 0.0
O303 O 0.80012 0.64334 0.91833 0.0
O304 O 0.91445 0.71414 0.97262 0.0
O305 O 0.94874 0.68744 0.94142 0.0
O306 O 0.95161 0.7792 0.89751 0.0
O307 O 0.8733 0.73611 0.91653 0.0
O308 O 1.03333 0.76662 0.85505 0.0
O309 O 1.04141 0.76603 0.91354 0.0
O310 O 0.94775 0.68257 0.83679 0.0
O311 O 0.90044 0.69976 0.86482 0.0
H312 H 0.71986 0.56025 0.99066 0.0
H313 H 0.76075 0.55503 0.88044 0.0
H314 H 0.68142 0.48404 0.86915 0.0
H315 H 0.64082 0.49001 0.97937 0.0
H316 H 0.11535 0.85036 0.83096 0.0
H317 H 0.06168 0.84635 0.93875 0.0
H318 H 0.11051 0.93342 0.94284 0.0
H319 H 0.16395 0.93774 0.83511 0.0
Gd320 Gd 0.23518 0.8584 0.4219 0.0
Gd321 Gd 0.2705 0.95183 0.38734 0.0
C322 C 0.34185 0.90751 0.39341 0.0
C323 C 0.21037 0.77361 0.4462 0.0
C324 C 0.2135 0.73017 0.4391 0.0
C325 C 0.2054 0.69858 0.46774 0.0
C326 C 0.21927 0.7172 0.40394 0.0
C327 C 0.20262 0.63893 0.42573 0.0
C328 C 0.21403 0.67194 0.39734 0.0
C329 C 0.20015 0.65344 0.46118 0.0
C330 C 0.2726 0.9377 0.46748 0.0
C331 C 0.15837 0.88775 0.40623 0.0
C332 C 0.29366 0.04024 0.3817 0.0
C333 C 0.26642 0.066 0.3773 0.0
C334 C 0.28102 0.10305 0.35209 0.0
C335 C 0.23032 0.05877 0.40251 0.0
C336 C 0.23057 0.12991 0.38133 0.0
C337 C 0.21306 0.09071 0.40471 0.0
C338 C 0.26284 0.13459 0.35387 0.0
C339 C 0.22593 0.88174 0.33723 0.0
O340 O 0.30287 0.86646 0.39985 0.0
O341 O 0.3403 0.94792 0.38866 0.0
O342 O 0.24924 0.81219 0.4568 0.0
O343 O 0.18438 0.78256 0.42362 0.0
O344 O 0.23283 0.89831 0.47389 0.0
O345 O 0.28802 0.93225 0.43825 0.0
O346 O 0.19569 0.93126 0.40681 0.0
O347 O 0.16446 0.8506 0.40684 0.0
O348 O 0.29902 1.01712 0.35423 0.0
O349 O 0.28387 1.01656 0.41192 0.0
O350 O 0.22227 0.91976 0.34007 0.0
O351 O 0.25177 0.88073 0.36305 0.0
H352 H 0.20101 0.708 0.49507 0.0
H353 H 0.22607 0.74129 0.38148 0.0
H354 H 0.21776 0.66232 0.36993 0.0
H355 H 0.19189 0.62904 0.48365 0.0
H356 H 0.30841 0.10926 0.33239 0.0
H357 H 0.21734 0.03016 0.42219 0.0
H358 H 0.18754 0.08597 0.4257 0.0
H359 H 0.27636 0.16446 0.33531 0.0
Gd360 Gd 0.4008 0.21545 0.92446 0.0
Gd361 Gd 0.34599 0.25688 0.88757 0.0
C362 C 0.45986 0.32211 0.9006 0.0
C363 C 0.45208 0.17735 0.94415 0.0
C364 C 0.50066 0.18379 0.93792 0.0
C365 C 0.52272 0.17189 0.96569 0.0
C366 C 0.52397 0.19839 0.90428 0.0
C367 C 0.58677 0.18206 0.92497 0.0
C368 C 0.56683 0.19772 0.89793 0.0
C369 C 0.5653 0.17107 0.95934 0.0
C370 C 0.35914 0.25332 0.96908 0.0
C371 C 0.29218 0.14139 0.90281 0.0
C372 C 0.28337 0.28294 0.87482 0.0
C373 C 0.23053 0.25697 0.87634 0.0
C374 C 0.20382 0.26257 0.84886 0.0
C375 C 0.20623 0.22424 0.90384 0.0
C376 C 0.12884 0.21183 0.88162 0.0
C377 C 0.1565 0.20328 0.90734 0.0
C378 C 0.1537 0.23909 0.85081 0.0
C379 C 0.38792 0.23621 0.83323 0.0
O380 O 0.45907 0.28106 0.89995 0.0
O381 O 0.41882 0.32305 0.90144 0.0
O382 O 0.44946 0.21032 0.96305 0.0
O383 O 0.42183 0.16163 0.91692 0.0
O384 O 0.40246 0.26065 0.97327 0.0
O385 O 0.34098 0.22715 0.94164 0.0
O386 O 0.28962 0.1779 0.8888 0.0
O387 O 0.33121 0.14707 0.91917 0.0
O388 O 0.30107 0.26788 0.84969 0.0
O389 O 0.30703 0.2922 0.9056 0.0
O390 O 0.36404 0.2583 0.82968 0.0
O391 O 0.3926 0.22866 0.8665 0.0
H392 H 0.50593 0.16132 0.99201 0.0
H393 H 0.50817 0.20854 0.88252 0.0
H394 H 0.58294 0.20698 0.87133 0.0
H395 H 0.58056 0.16013 0.98098 0.0
H396 H 0.22174 0.28525 0.82586 0.0
H397 H 0.22614 0.21603 0.92319 0.0
H398 H 0.14176 0.18246 0.93131 0.0
H399 H 0.13526 0.24371 0.82806 0.0
Gd400 Gd 0.2132 0.38692 0.4244 0.0
Gd401 Gd 0.12628 0.33592 0.3856 0.0
C402 C 0.16537 0.44552 0.39833 0.0
C403 C 0.29854 0.44743 0.44853 0.0
C404 C 0.34188 0.49385 0.4408 0.0
C405 C 0.37404 0.51831 0.46916 0.0
C406 C 0.35422 0.51163 0.40539 0.0
C407 C 0.43295 0.57421 0.4265 0.0
C408 C 0.39935 0.55165 0.39834 0.0
C409 C 0.419 0.55817 0.46215 0.0
C410 C 0.13186 0.34422 0.4675 0.0
C411 C 0.19148 0.28597 0.4027 0.0
C412 C 0.05024 0.25472 0.38074 0.0
C413 C 1.00714 0.20736 0.38202 0.0
C414 C 0.98974 0.18052 0.35017 0.0
C415 C 0.99067 0.18478 0.41562 0.0
C416 C 0.93993 0.10884 0.3856 0.0
C417 C 0.95679 0.13628 0.41737 0.0
C418 C 0.95704 0.13146 0.35194 0.0
C419 C 0.19211 0.38166 0.33577 0.0
O420 O 0.20602 0.44521 0.39853 0.0
O421 O 0.12404 0.40427 0.39789 0.0
O422 O 0.25978 0.44766 0.45894 0.0
O423 O 0.2894 0.41208 0.42651 0.0
O424 O 0.17189 0.34569 0.4757 0.0
O425 O 0.1384 0.36691 0.43888 0.0
O426 O 0.16152 0.28999 0.38058 0.0
O427 O 0.21578 0.31959 0.42634 0.0
O428 O 0.05686 0.28962 0.35855 0.0
O429 O 0.08218 0.26618 0.40659 0.0
O430 O 0.14885 0.37585 0.33516 0.0
O431 O 0.19978 0.36374 0.36469 0.0
H432 H 0.3651 0.50543 0.49669 0.0
H433 H 0.32982 0.4935 0.38307 0.0
H434 H 0.40881 0.56354 0.37065 0.0
H435 H 0.44339 0.57571 0.48458 0.0
H436 H 1.00382 0.19673 0.3241 0.0
H437 H 1.00505 0.2043 0.44069 0.0
H438 H 0.94428 0.12017 0.4437 0.0
H439 H 0.94642 0.11109 0.32697 0.0
Gd440 Gd 0.85217 0.19422 0.92302 0.0
Gd441 Gd 0.8152 0.10428 0.88835 0.0
C442 C 0.74737 0.14943 0.89521 0.0
C443 C 0.87654 0.27972 0.94632 0.0
C444 C 0.87382 0.32333 0.9383 0.0
C445 C 0.87065 0.35006 0.9671 0.0
C446 C 0.87885 0.34113 0.90296 0.0
C447 C 0.88313 0.41446 0.92591 0.0
C448 C 0.88356 0.38622 0.89687 0.0
C449 C 0.87464 0.39483 0.96098 0.0
C450 C 0.81186 0.11564 0.96923 0.0
C451 C 0.93086 0.16884 0.9047 0.0
C452 C 0.80822 1.02122 0.88977 0.0
C453 C 0.83428 0.99487 0.88302 0.0
C454 C 0.81338 0.95351 0.86144 0.0
C455 C 0.87509 1.0051 0.90416 0.0
C456 C 0.86861 0.92974 0.88654 0.0
C457 C 0.89173 0.97265 0.90612 0.0
C458 C 0.83074 0.92131 0.86292 0.0
C459 C 0.83545 0.16564 0.83515 0.0
O460 O 0.78901 0.18894 0.89393 0.0
O461 O 0.74655 0.1078 0.89833 0.0
O462 O 0.83732 0.24136 0.95633 0.0
O463 O 0.90316 0.27015 0.92507 0.0
O464 O 0.85208 0.1546 0.97562 0.0
O465 O 0.7961 0.12116 0.93984 0.0
O466 O 0.8956 0.13258 0.88753 0.0
O467 O 0.92368 0.1997 0.92245 0.0
O468 O 0.78872 0.03324 0.86325 0.0
O469 O 0.82766 0.05385 0.91504 0.0
O470 O 0.79917 0.122 0.83538 0.0
O471 O 0.8614 0.17607 0.86435 0.0
H472 H 0.8664 0.33687 0.99457 0.0
H473 H 0.88101 0.32106 0.88019 0.0
H474 H 0.88961 0.39976 0.86946 0.0
H475 H 0.87174 0.41419 0.98388 0.0
H476 H 0.78188 0.94462 0.84516 0.0
H477 H 0.89249 0.03666 0.9212 0.0
H478 H 0.92151 0.98021 0.92404 0.0
H479 H 0.8127 0.88844 0.84735 0.0
C480 C 0.18008 0.98171 0.15715 0.0
C481 C 0.19185 0.96549 0.12549 0.0
C482 C 0.19104 0.02957 0.1607 0.0
C483 C 0.21296 0.06236 0.13233 0.0
H484 H 0.16369 0.95766 0.17975 0.0
H485 H 0.18259 0.04109 0.18582 0.0
S486 S 0.24867 0.03717 0.04317 0.0
N487 N 0.22534 0.98567 0.06489 0.0
N488 N 0.24498 0.07507 0.0713 0.0
C489 C 0.2236 0.04617 0.10019 0.0
C490 C 0.21332 0.99787 0.09684 0.0
C491 C 0.22187 0.1495 0.65035 0.0
C492 C 0.26204 0.18114 0.6296 0.0
C493 C 0.18347 0.15786 0.65572 0.0
C494 C 0.18438 0.19812 0.64061 0.0
H495 H 0.21976 0.1178 0.66227 0.0
H496 H 0.15266 0.13243 0.67118 0.0
S497 S 0.28006 0.29203 0.58453 0.0
N498 N 0.29976 0.25474 0.59414 0.0
N499 N 0.22733 0.26981 0.60443 0.0
C500 C 0.224 0.23007 0.62008 0.0
C501 C 0.26297 0.22175 0.61451 0.0
C502 C 1.02916 0.20646 0.11405 0.0
C503 C 1.01801 0.16789 0.13727 0.0
C504 C 0.07644 0.24366 0.11013 0.0
C505 C 0.11456 0.24332 0.12881 0.0
H506 H 1.00097 0.20789 0.09883 0.0
H507 H 0.08314 0.27275 0.09202 0.0
S508 S 0.10385 0.14995 0.19284 0.0
N509 N 0.04811 0.13121 0.17939 0.0
N510 N 0.13774 0.20092 0.17153 0.0
C511 C 0.10387 0.20466 0.15196 0.0
C512 C 0.05536 0.16705 0.15641 0.0
C513 C 0.90829 0.03084 0.65637 0.0
C514 C 0.87567 0.99385 0.63351 0.0
C515 C 0.91843 0.07833 0.65154 0.0
C516 C 0.89551 0.09031 0.62419 0.0
H517 H 0.92587 1.02295 0.67819 0.0
H518 H 0.94353 0.10558 0.66995 0.0
S519 S 0.80654 1.00564 0.55762 0.0
N520 N 0.82058 0.97202 0.58272 0.0
N521 N 0.83877 0.06053 0.57379 0.0
C522 C 0.86293 0.05336 0.60112 0.0
C523 C 0.85325 1.00538 0.60575 0.0
C524 C 0.88996 0.85855 0.10598 0.0
C525 C 0.90709 0.85876 0.14114 0.0
C526 C 0.85268 0.86873 0.10009 0.0
C527 C 0.83237 0.88071 0.12909 0.0
H528 H 0.90431 0.84879 0.08306 0.0
H529 H 0.83967 0.8672 0.07276 0.0
S530 S 0.86492 0.88681 0.22608 0.0
N531 N 0.90105 0.87189 0.20518 0.0
N532 N 0.832 0.8923 0.19404 0.0
C533 C 0.84998 0.88212 0.1642 0.0
C534 C 0.88713 0.87083 0.17026 0.0
C535 C 0.99442 0.85975 0.61183 0.0
C536 C 0.97613 0.81732 0.63181 0.0
C537 C 1.04194 0.89682 0.61708 0.0
C538 C 0.07253 0.89291 0.6428 0.0
H539 H 0.97252 0.86357 0.59119 0.0
H540 H 0.05521 0.92839 0.60026 0.0
S541 S 1.0391 0.79004 0.70411 0.0
N542 N 0.99026 0.7743 0.67972 0.0
N543 N 0.07937 0.8437 0.68968 0.0
C544 C 0.05352 0.85131 0.664 0.0
C545 C 1.00542 0.81352 0.65838 0.0
C546 C 0.07522 0.86009 0.42878 0.0
C547 C 0.10952 0.88048 0.4012 0.0
C548 C 1.02768 0.84993 0.42326 0.0
C549 C 1.01258 0.85855 0.38964 0.0
H550 H 0.0851 0.85159 0.45463 0.0
H551 H 1.00211 0.83366 0.44505 0.0
S552 S 0.08879 0.91084 0.30866 0.0
N553 N 0.12551 0.90918 0.33931 0.0
N554 N 1.03598 0.88886 0.32856 0.0
C555 C 0.0467 0.87901 0.36193 0.0
C556 C 0.09523 0.89025 0.36781 0.0
C557 C 0.20747 1.01017 0.92363 0.0
C558 C 0.17581 0.99435 0.89384 0.0
C559 C 0.24421 0.058 0.92668 0.0
C560 C 0.25019 0.09222 0.90046 0.0
H561 H 0.20502 0.98497 0.94407 0.0
H562 H 0.2685 0.06808 0.94961 0.0
S563 S 0.17344 0.07017 0.81935 0.0
N564 N 0.15085 1.01722 0.83882 0.0
N565 N 0.21891 0.10755 0.84517 0.0
C566 C 0.21721 0.07742 0.87154 0.0
C567 C 0.18038 0.0284 0.86802 0.0
C568 C 0.18807 0.21925 0.36572 0.0
C569 C 0.20043 0.24537 0.39842 0.0
C570 C 0.19753 0.18162 0.36038 0.0
C571 C 0.21878 0.16821 0.3878 0.0
H572 H 0.17178 0.22848 0.34374 0.0
H573 H 0.1882 0.16288 0.33466 0.0
S574 S 0.25607 0.22329 0.47895 0.0
N575 N 0.23401 0.25408 0.45897 0.0
N576 N 0.251 0.18284 0.44905 0.0
C577 C 0.23029 0.19314 0.42091 0.0
C578 C 0.22136 0.2319 0.42618 0.0
C579 C 0.0558 0.22004 0.86762 0.0
C580 C 0.07629 0.19684 0.88752 0.0
C581 C 1.00877 0.21038 0.8732 0.0
C582 C 0.98003 0.17819 0.8997 0.0
H583 H 0.07596 0.2475 0.84802 0.0
H584 H 0.995 0.22892 0.85692 0.0
S585 S 1.01167 0.10749 0.96087 0.0
N586 N 0.05947 0.13727 0.93519 0.0
N587 N 0.97298 0.12371 0.94709 0.0
C588 C 0.9986 0.15488 0.92034 0.0
C589 C 0.04618 0.16317 0.91404 0.0
C590 C 0.9083 0.02822 0.41497 0.0
C591 C 0.90419 0.05696 0.38792 0.0
C592 C 0.87288 0.98001 0.41923 0.0
C593 C 0.83229 0.95931 0.39667 0.0
H594 H 0.93882 0.04318 0.43326 0.0
H595 H 0.87643 0.9594 0.44095 0.0
S596 S 0.80554 1.01728 0.32061 0.0
N597 N 0.85661 0.05988 0.33764 0.0
N598 N 0.79092 0.96935 0.34534 0.0
C599 C 0.82844 0.98692 0.36896 0.0
C600 C 0.86425 0.03572 0.36458 0.0
C601 C 0.90825 0.83867 0.86906 0.0
C602 C 0.90464 0.81859 0.90341 0.0
C603 C 0.89642 0.87464 0.86367 0.0
C604 C 0.88188 0.89249 0.89274 0.0
H605 H 0.91879 0.82542 0.84602 0.0
H606 H 0.89864 0.88858 0.83664 0.0
S607 S 0.86809 0.85258 0.98829 0.0
N608 N 0.88562 0.81885 0.96687 0.0
N609 N 0.86527 0.88803 0.95728 0.0
C610 C 0.87922 0.87342 0.92745 0.0
C611 C 0.89009 0.83598 0.93267 0.0
C612 C 0.16742 0.67353 0.08454 0.0
C613 C 0.16444 0.68824 0.1197 0.0
C614 C 0.18053 0.63848 0.07837 0.0
C615 C 0.19045 0.61559 0.10713 0.0
H616 H 0.16161 0.6908 0.06146 0.0
H617 H 0.1838 0.6302 0.05051 0.0
S618 S 0.19238 0.64639 0.20468 0.0
N619 N 0.17727 0.68206 0.18348 0.0
N620 N 0.19823 0.6136 0.17286 0.0
C621 C 0.18846 0.63122 0.14265 0.0
C622 C 0.17628 0.66796 0.14865 0.0
C623 C 0.56769 0.1311 0.60297 0.0
C624 C 0.60831 0.177 0.60687 0.0
C625 C 0.52136 0.12251 0.61151 0.0
C626 C 0.51409 0.15963 0.62408 0.0
H627 H 0.57185 0.10153 0.5935 0.0
H628 H 0.49108 0.08684 0.6076 0.0
S629 S 0.60912 0.28764 0.6355 0.0
N630 N 0.63832 0.26046 0.6217 0.0
N631 N 0.55234 0.24525 0.63816 0.0
C632 C 0.55484 0.20608 0.62746 0.0
C633 C 0.60165 0.21454 0.61874 0.0
C634 C 0.45084 0.57274 0.14071 0.0
C635 C 0.45788 0.59136 0.10521 0.0
C636 C 0.41574 0.52518 0.14837 0.0
C637 C 0.38712 0.49422 0.1207 0.0
H638 H 0.4729 0.59488 0.16286 0.0
H639 H 0.41042 0.51285 0.17612 0.0
S640 S 0.38681 0.52477 0.02411 0.0
N641 N 0.42916 0.57477 0.04275 0.0
N642 N 0.3655 0.48517 0.0571 0.0
C643 C 0.3931 0.51206 0.08533 0.0
C644 C 0.42792 0.56058 0.07756 0.0
C645 C 0.90706 0.4185 0.5814 0.0
C646 C 0.89366 0.43968 0.60938 0.0
C647 C 0.92032 0.38375 0.58845 0.0
C648 C 0.9195 0.36723 0.62366 0.0
H649 H 0.90672 0.42801 0.55339 0.0
H650 H 0.92938 0.3682 0.56589 0.0
S651 S 0.88111 0.40337 0.70638 0.0
N652 N 0.87836 0.43766 0.67437 0.0
N653 N 0.89914 0.36937 0.6862 0.0
C654 C 0.90375 0.38531 0.65162 0.0
C655 C 0.89172 0.42201 0.64487 0.0
C656 C 0.56991 0.92796 0.10009 0.0
C657 C 0.57967 0.90506 0.12851 0.0
C658 C 0.52254 0.91702 0.09213 0.0
C659 C 0.48303 0.88295 0.11241 0.0
H660 H 0.59882 0.95318 0.08302 0.0
H661 H 0.51693 0.93574 0.07002 0.0
S662 S 0.48992 0.81108 0.18837 0.0
N663 N 0.54631 0.84568 0.17607 0.0
N664 N 0.4576 0.8249 0.1613 0.0
C665 C 0.49261 0.85957 0.14073 0.0
C666 C 0.54074 0.87063 0.14866 0.0
C667 C 0.69199 0.52576 0.64769 0.0
C668 C 0.70402 0.56309 0.62298 0.0
C669 C 0.65571 0.47868 0.63984 0.0
C670 C 0.63064 0.46665 0.60653 0.0
H671 H 0.71121 0.53295 0.67317 0.0
H672 H 0.64786 0.45128 0.65988 0.0
S673 S 0.65427 0.55116 0.53051 0.0
N674 N 0.69201 0.58466 0.56262 0.0
N675 N 0.62363 0.49675 0.54759 0.0
C676 C 0.64388 0.50377 0.58101 0.0
C677 C 0.68052 0.55176 0.58931 0.0
C678 C 0.39519 0.89562 0.43526 0.0
C679 C 0.38704 0.90699 0.40013 0.0
C680 C 0.43083 0.88353 0.44234 0.0
C681 C 0.4603 0.88226 0.41458 0.0
H682 H 0.37246 0.89434 0.45738 0.0
H683 H 0.43444 0.87406 0.46982 0.0
S684 S 0.45071 0.90618 0.31727 0.0
N685 N 0.40861 0.91333 0.33701 0.0
N686 N 0.47736 0.89292 0.34992 0.0
C687 C 0.45201 0.89327 0.37913 0.0
C688 C 0.41515 0.90517 0.37203 0.0
C689 C 0.59642 0.39866 0.90274 0.0
C690 C 0.6047 0.44318 0.91546 0.0
C691 C 0.54954 0.36079 0.89683 0.0
C692 C 0.50864 0.3657 0.90305 0.0
H693 H 0.62636 0.39267 0.89817 0.0
H694 H 0.54554 0.32695 0.88785 0.0
S695 S 0.51176 0.47672 0.93407 0.0
N696 N 0.56886 0.49127 0.93241 0.0
N697 N 0.48061 0.42008 0.92125 0.0
C698 C 0.51669 0.41064 0.91473 0.0
C699 C 0.56464 0.44923 0.92103 0.0
C700 C 0.21224 0.56804 0.43997 0.0
C701 C 0.19124 0.58881 0.41855 0.0
C702 C 0.20166 0.52084 0.43394 0.0
C703 C 0.16916 0.49216 0.40663 0.0
H704 H 0.23776 0.58871 0.46108 0.0
H705 H 0.21972 0.50684 0.45055 0.0
S706 S 0.10328 0.52863 0.34411 0.0
N707 N 0.13532 0.57645 0.3696 0.0
N708 N 0.11562 0.48739 0.35856 0.0
C709 C 0.14708 0.51185 0.38565 0.0
C710 C 0.15824 0.56029 0.39146 0.0
C711 C 0.70797 0.20012 0.8936 0.0
C712 C 0.70414 0.15496 0.89985 0.0
C713 C 0.67013 0.20881 0.90152 0.0
C714 C 0.62704 0.17294 0.91657 0.0
H715 H 0.74083 0.22947 0.88291 0.0
H716 H 0.67497 0.24407 0.89646 0.0
S717 S 0.59802 0.04895 0.9381 0.0
N718 N 0.65315 0.07421 0.92193 0.0
N719 N 0.58223 0.0905 0.93676 0.0
C720 C 0.62259 0.12779 0.9228 0.0
C721 C 0.66094 0.11877 0.91442 0.0
C722 C 0.49159 0.6514 0.39617 0.0
C723 C 0.48309 0.61268 0.41851 0.0
C724 C 0.53855 0.68807 0.38876 0.0
C725 C 0.57908 0.6872 0.40282 0.0
H726 H 0.46171 0.65399 0.38502 0.0
H727 H 0.5431 0.71787 0.37232 0.0
S728 S 0.57635 0.59367 0.46267 0.0
N729 N 0.51923 0.57543 0.45431 0.0
N730 N 0.60728 0.64444 0.44045 0.0
C731 C 0.5711 0.64838 0.42473 0.0
C732 C 0.52323 0.61124 0.43261 0.0
C733 C 0.88632 0.52247 0.88026 0.0
C734 C 0.91763 0.56105 0.90244 0.0
C735 C 0.87491 0.47536 0.88832 0.0
C736 C 0.89356 0.46471 0.91934 0.0
H737 H 0.8701 0.52873 0.85666 0.0
H738 H 0.85065 0.44696 0.87029 0.0
S739 S 0.97173 0.55314 0.98898 0.0
N740 N 0.96313 0.58554 0.95847 0.0
N741 N 0.94258 0.49751 0.97376 0.0
C742 C 0.92362 0.50317 0.94248 0.0
C743 C 0.93551 0.55116 0.93396 0.0
C744 C 0.25049 0.41433 0.28376 0.0
C745 C 0.20927 0.37671 0.29965 0.0
C746 C 0.26207 0.41155 0.24728 0.0
C747 C 0.23197 0.37189 0.22526 0.0
H748 H 0.27377 0.44597 0.29952 0.0
H749 H 0.29543 0.44002 0.23648 0.0
S750 S 0.11989 0.26423 0.25405 0.0
N751 N 0.13853 0.29849 0.29055 0.0
N752 N 0.15981 0.29414 0.22233 0.0
C753 C 0.19052 0.33452 0.24084 0.0
C754 C 0.17925 0.33679 0.27788 0.0
C755 C 0.84621 0.17908 0.73223 0.0
C756 C 0.88838 0.22293 0.72711 0.0
C757 C 0.82893 0.16222 0.7672 0.0
C758 C 0.85341 0.18791 0.79885 0.0
H759 H 0.8268 0.15714 0.70911 0.0
H760 H 0.79648 0.12778 0.76926 0.0
S761 S 0.96425 0.30621 0.80066 0.0
N762 N 0.95292 0.29349 0.7572 0.0
N763 N 0.92102 0.26039 0.82243 0.0
C764 C 0.89497 0.23228 0.79418 0.0
C765 C 0.91222 0.25006 0.75854 0.0
C766 C 0.69952 0.83067 0.23377 0.0
C767 C 0.6956 0.87186 0.22883 0.0
C768 C 0.69835 0.81236 0.26873 0.0
C769 C 0.69396 0.83472 0.30046 0.0
H770 H 0.70427 0.81284 0.21059 0.0
H771 H 0.70213 0.78086 0.27083 0.0
S772 S 0.67928 0.94165 0.30266 0.0
N773 N 0.68427 0.9329 0.25926 0.0
N774 N 0.68351 0.89901 0.32416 0.0
C775 C 0.6892 0.87531 0.29587 0.0
C776 C 0.68961 0.89362 0.26038 0.0
C777 C 0.84573 0.63654 0.74412 0.0
C778 C 0.85745 0.67939 0.72604 0.0
C779 C 0.86005 0.63675 0.78037 0.0
C780 C 0.88494 0.67965 0.80034 0.0
H781 H 0.82511 0.60259 0.73021 0.0
H782 H 0.85162 0.60308 0.79289 0.0
S783 S 0.92501 0.80158 0.76517 0.0
N784 N 0.89615 0.76591 0.73069 0.0
N785 N 0.92246 0.76623 0.79851 0.0
C786 C 0.89693 0.72268 0.78242 0.0
C787 C 0.88318 0.72254 0.74545 0.0
C788 C 0.19508 0.80036 0.25512 0.0
C789 C 0.20909 0.8329 0.22598 0.0
C790 C 0.20433 0.81608 0.2914 0.0
C791 C 0.22743 0.86502 0.29983 0.0
H792 H 0.17289 0.76233 0.24992 0.0
H793 H 0.18982 0.78981 0.31285 0.0
S794 S 0.27788 0.965 0.23358 0.0
N795 N 0.25209 0.91626 0.20815 0.0
N796 N 0.27025 0.94617 0.27587 0.0
C797 C 0.24579 0.89793 0.27084 0.0
C798 C 0.23655 0.88182 0.234 0.0
C799 C 0.43504 0.24416 0.77753 0.0
C800 C 0.39694 0.2149 0.80089 0.0
C801 C 0.43517 0.23138 0.74091 0.0
C802 C 0.3962 0.18988 0.72619 0.0
H803 H 0.46404 0.27803 0.78731 0.0
H804 H 0.46567 0.2541 0.72408 0.0
S805 S 0.2874 0.1018 0.77541 0.0
N806 N 0.31958 0.14254 0.80629 0.0
N807 N 0.31889 0.1195 0.73775 0.0
C808 C 0.3581 0.16048 0.74931 0.0
C809 C 0.35865 0.17273 0.78651 0.0
C810 C 0.36322 0.3197 1.0089 0.0
C811 C 0.33551 0.2752 0.99141 0.0
C812 C 0.34162 0.34171 0.02868 0.0
C813 C 0.29121 0.32069 0.03159 0.0
H814 H 0.40202 0.338 1.00705 0.0
H815 H 0.36475 0.37579 0.04174 0.0
S816 S 0.20295 0.19949 0.99852 0.0
N817 N 0.2551 0.20728 0.98415 0.0
N818 N 0.21477 0.24969 0.01922 0.0
C819 C 0.26319 0.27548 0.01537 0.0
C820 C 0.28522 0.25255 0.99591 0.0
C821 C 0.08779 0.32619 0.52728 0.0
C822 C 0.08628 0.32365 0.48935 0.0
C823 C 0.04524 0.30887 0.54771 0.0
C824 C 0.99908 0.28096 0.53203 0.0
H825 H 0.12212 0.34438 0.54117 0.0
H826 H 0.04902 0.31851 0.57593 0.0
S827 S 0.97486 0.28033 0.43423 0.0
N828 N 1.03408 0.30834 0.43717 0.0
N829 N 0.95488 0.2632 0.47574 0.0
C830 C 0.99703 0.28066 0.49414 0.0
C831 C 1.04034 0.30447 0.47303 0.0
C832 C 0.74743 0.98267 0.99775 0.0
C833 C 0.74183 0.98415 0.03524 0.0
C834 C 0.76527 1.02457 0.97664 0.0
C835 C 0.78697 0.07094 0.99222 0.0
H836 H 0.7349 0.94856 0.98428 0.0
H837 H 0.75962 1.01964 0.94804 0.0
S838 S 0.76395 0.09332 0.08612 0.0
N839 N 0.74028 0.03461 0.08392 0.0
N840 N 0.78915 0.1141 0.04642 0.0
C841 C 0.77871 0.07268 0.02929 0.0
C842 C 0.75307 0.02928 0.05001 0.0
C843 C 0.82692 0.77754 0.51176 0.0
C844 C 0.79973 0.74138 0.53711 0.0
C845 C 0.80677 0.80129 0.49212 0.0
C846 C 0.7584 0.78947 0.49622 0.0
H847 H 0.86409 0.78775 0.5071 0.0
H848 H 0.82903 0.82876 0.47316 0.0
S849 S 0.67233 0.70035 0.56073 0.0
N850 N 0.72169 0.69709 0.56621 0.0
N851 N 0.68485 0.7412 0.52924 0.0
C852 C 0.73125 0.75433 0.52194 0.0
C853 C 0.75156 0.73043 0.54218 0.0
C854 C 1.03149 0.7184 0.99108 0.0
C855 C 0.99803 0.7348 0.9924 0.0
C856 C 0.07462 0.74034 1.01152 0.0
C857 C 0.08678 0.78006 0.03424 0.0
H858 H 1.02429 0.68815 0.97402 0.0
H859 H 0.09856 0.7258 1.0096 0.0
S860 S 1.01522 0.84144 0.04311 0.0
N861 N 0.98228 0.7957 0.01612 0.0
N862 N 0.0633 0.83759 0.05363 0.0
C863 C 0.0543 0.79768 0.03491 0.0
C864 C 1.0101 0.77495 0.01435 0.0
C865 C 0.28732 0.98159 0.52711 0.0
C866 C 0.29846 0.98229 0.49051 0.0
C867 C 0.31154 1.02314 0.54865 0.0
C868 C 0.3412 0.06919 0.53391 0.0
H869 H 0.26214 0.9481 0.53983 0.0
H870 H 0.30842 1.01759 0.57699 0.0
S871 S 0.39726 0.08785 0.44389 0.0
N872 N 0.35901 0.02971 0.44533 0.0
N873 N 0.38992 0.11023 0.48201 0.0
C874 C 0.35502 0.06991 0.49786 0.0
C875 C 0.33682 1.02609 0.47733 0.0
loop_
_geom_bond_atom_site_label_1
_geom_bond_atom_site_label_2
_geom_bond_distance
_geom_bond_site_symmetry_2
_ccdc_geom_bond_type
Gd0 C3 2.818 . S
Gd0 O20 2.377 . S
Gd0 O22 2.448 . S
Gd0 O23 2.506 . S
Gd0 O24 2.435 . S
Gd0 O25 2.717 . S
Gd0 O27 2.395 . S
Gd0 O31 2.327 . S
Gd1 C12 2.818 . S
Gd1 O21 2.395 . S
Gd1 O25 2.327 . S
Gd1 O26 2.377 . S
Gd1 O28 2.448 . S
Gd1 O29 2.506 . S
Gd1 O30 2.435 . S
Gd1 O31 2.717 . S
C2 O20 1.240 . S
C2 O21 1.240 . S
C3 Gd0 2.818 . S
C3 C4 1.510 . S
C3 O22 1.249 . S
C3 O23 1.252 . S
C4 C3 1.510 . S
C4 C5 1.404 . S
C4 C6 1.352 . S
C5 C4 1.404 . S
C5 C9 1.389 . S
C5 H32 0.930 . S
C6 C4 1.352 . S
C6 C8 1.374 . S
C6 H33 0.931 . S
C7 C8 1.359 . S
C7 C9 1.364 . S
C8 C6 1.374 . S
C8 C7 1.359 . S
C8 H34 0.931 . S
C9 C5 1.389 . S
C9 C7 1.364 . S
C9 H35 0.931 . S
C10 O24 1.256 . S
C10 O25 1.257 . S
C11 O26 1.240 . S
C11 O27 1.240 . S
C12 Gd1 2.818 . S
C12 C13 1.510 . S
C12 O28 1.249 . S
C12 O29 1.252 . S
C13 C12 1.510 . S
C13 C14 1.404 . S
C13 C15 1.352 . S
C14 C13 1.404 . S
C14 C18 1.389 . S
C14 H36 0.930 . S
C15 C13 1.352 . S
C15 C17 1.374 . S
C15 H37 0.931 . S
C16 C17 1.359 . S
C16 C18 1.364 . S
C17 C15 1.374 . S
C17 C16 1.359 . S
C17 H38 0.931 . S
C18 C14 1.389 . S
C18 C16 1.364 . S
C18 H39 0.931 . S
C19 O30 1.256 . S
C19 O31 1.257 . S
O20 Gd0 2.377 . S
O20 C2 1.240 . S
O21 Gd1 2.395 . S
O21 C2 1.240 . S
O22 Gd0 2.448 . S
O22 C3 1.249 . S
O23 Gd0 2.506 . S
O23 C3 1.252 . S
O24 Gd0 2.435 . S
O24 C10 1.256 . S
O25 Gd0 2.717 . S
O25 Gd1 2.327 . S
O25 C10 1.257 . S
O26 Gd1 2.377 . S
O26 C11 1.240 . S
O27 Gd0 2.395 . S
O27 C11 1.240 . S
O28 Gd1 2.448 . S
O28 C12 1.249 . S
O29 Gd1 2.506 . S
O29 C12 1.252 . S
O30 Gd1 2.435 . S
O30 C19 1.256 . S
O31 Gd0 2.327 . S
O31 Gd1 2.717 . S
O31 C19 1.257 . S
H32 C5 0.930 . S
H33 C6 0.931 . S
H34 C8 0.931 . S
H35 C9 0.931 . S
H36 C14 0.930 . S
H37 C15 0.931 . S
H38 C17 0.931 . S
H39 C18 0.931 . S
Gd40 C43 2.818 . S
Gd40 O60 2.377 . S
Gd40 O62 2.448 . S
Gd40 O63 2.506 . S
Gd40 O64 2.435 . S
Gd40 O65 2.717 . S
Gd40 O67 2.395 . S
Gd40 O71 2.327 . S
Gd41 C52 2.818 . S
Gd41 O61 2.395 . S
Gd41 O65 2.327 . S
Gd41 O66 2.377 . S
Gd41 O68 2.448 . S
Gd41 O69 2.506 . S
Gd41 O70 2.435 . S
Gd41 O71 2.717 . S
C42 O60 1.240 . S
C42 O61 1.240 . S
C43 Gd40 2.818 . S
C43 C44 1.510 . S
C43 O62 1.249 . S
C43 O63 1.252 . S
C44 C43 1.510 . S
C44 C45 1.404 . S
C44 C46 1.352 . S
C45 C44 1.404 . S
C45 C49 1.389 . S
C45 H72 0.930 . S
C46 C44 1.352 . S
C46 C48 1.374 . S
C46 H73 0.931 . S
C47 C48 1.359 . S
C47 C49 1.364 . S
C48 C46 1.374 . S
C48 C47 1.359 . S
C48 H74 0.931 . S
C49 C45 1.389 . S
C49 C47 1.364 . S
C49 H75 0.931 . S
C50 O64 1.256 . S
C50 O65 1.257 . S
C51 O66 1.240 . S
C51 O67 1.240 . S
C52 Gd41 2.818 . S
C52 C53 1.510 1_655 S
C52 O68 1.249 . S
C52 O69 1.252 . S
C53 C52 1.510 1_455 S
C53 C54 1.404 . S
C53 C55 1.352 . S
C54 C53 1.404 . S
C54 C58 1.389 . S
C54 H76 0.930 . S
C55 C53 1.352 . S
C55 C57 1.374 . S
C55 H77 0.931 . S
C56 C57 1.359 . S
C56 C58 1.364 . S
C57 C55 1.374 . S
C57 C56 1.359 . S
C57 H78 0.931 . S
C58 C54 1.389 . S
C58 C56 1.364 . S
C58 H79 0.931 . S
C59 O70 1.256 . S
C59 O71 1.257 . S
O60 Gd40 2.377 . S
O60 C42 1.240 . S
O61 Gd41 2.395 . S
O61 C42 1.240 . S
O62 Gd40 2.448 . S
O62 C43 1.249 . S
O63 Gd40 2.506 . S
O63 C43 1.252 . S
O64 Gd40 2.435 . S
O64 C50 1.256 . S
O65 Gd40 2.717 . S
O65 Gd41 2.327 . S
O65 C50 1.257 . S
O66 Gd41 2.377 . S
O66 C51 1.240 . S
O67 Gd40 2.395 . S
O67 C51 1.240 . S
O68 Gd41 2.448 . S
O68 C52 1.249 . S
O69 Gd41 2.506 . S
O69 C52 1.252 . S
O70 Gd41 2.435 . S
O70 C59 1.256 . S
O71 Gd40 2.327 . S
O71 Gd41 2.717 . S
O71 C59 1.257 . S
H72 C45 0.930 . S
H73 C46 0.931 . S
H74 C48 0.931 . S
H75 C49 0.931 . S
H76 C54 0.930 . S
H77 C55 0.931 . S
H78 C57 0.931 . S
H79 C58 0.931 . S
Gd80 C83 2.818 . S
Gd80 O100 2.377 . S
Gd80 O102 2.448 . S
Gd80 O103 2.506 . S
Gd80 O104 2.435 . S
Gd80 O105 2.717 . S
Gd80 O107 2.395 . S
Gd80 O111 2.327 . S
Gd81 C92 2.818 . S
Gd81 O101 2.395 . S
Gd81 O105 2.327 . S
Gd81 O106 2.377 . S
Gd81 O108 2.448 . S
Gd81 O109 2.506 . S
Gd81 O110 2.435 . S
Gd81 O111 2.717 . S
C82 O100 1.240 . S
C82 O101 1.240 . S
C83 Gd80 2.818 . S
C83 C84 1.510 . S
C83 O102 1.249 . S
C83 O103 1.252 . S
C84 C83 1.510 . S
C84 C85 1.404 . S
C84 C86 1.352 . S
C85 C84 1.404 . S
C85 C89 1.389 . S
C85 H112 0.930 . S
C86 C84 1.352 . S
C86 C88 1.374 . S
C86 H113 0.931 . S
C87 C88 1.359 . S
C87 C89 1.364 . S
C88 C86 1.374 . S
C88 C87 1.359 . S
C88 H114 0.931 . S
C89 C85 1.389 . S
C89 C87 1.364 . S
C89 H115 0.931 . S
C90 O104 1.256 . S
C90 O105 1.257 . S
C91 O106 1.240 . S
C91 O107 1.240 . S
C92 Gd81 2.818 . S
C92 C93 1.510 1_565 S
C92 O108 1.249 . S
C92 O109 1.252 . S
C93 C92 1.510 1_545 S
C93 C94 1.404 . S
C93 C95 1.352 . S
C94 C93 1.404 . S
C94 C98 1.389 . S
C94 H116 0.930 . S
C95 C93 1.352 . S
C95 C97 1.374 . S
C95 H117 0.931 . S
C96 C97 1.359 . S
C96 C98 1.364 . S
C97 C95 1.374 . S
C97 C96 1.359 . S
C97 H118 0.931 . S
C98 C94 1.389 . S
C98 C96 1.364 . S
C98 H119 0.931 . S
C99 O110 1.256 . S
C99 O111 1.257 . S
O100 Gd80 2.377 . S
O100 C82 1.240 . S
O101 Gd81 2.395 . S
O101 C82 1.240 . S
O102 Gd80 2.448 . S
O102 C83 1.249 . S
O103 Gd80 2.506 . S
O103 C83 1.252 . S
O104 Gd80 2.435 . S
O104 C90 1.256 . S
O105 Gd80 2.717 . S
O105 Gd81 2.327 . S
O105 C90 1.257 . S
O106 Gd81 2.377 . S
O106 C91 1.240 . S
O107 Gd80 2.395 . S
O107 C91 1.240 . S
O108 Gd81 2.448 . S
O108 C92 1.249 . S
O109 Gd81 2.506 . S
O109 C92 1.252 . S
O110 Gd81 2.435 . S
O110 C99 1.256 . S
O111 Gd80 2.327 . S
O111 Gd81 2.717 . S
O111 C99 1.257 . S
H112 C85 0.930 . S
H113 C86 0.931 . S
H114 C88 0.931 . S
H115 C89 0.931 . S
H116 C94 0.930 . S
H117 C95 0.931 . S
H118 C97 0.931 . S
H119 C98 0.931 . S
Gd120 C123 2.818 . S
Gd120 O140 2.377 . S
Gd120 O142 2.448 . S
Gd120 O143 2.506 . S
Gd120 O144 2.435 . S
Gd120 O145 2.717 . S
Gd120 O147 2.395 . S
Gd120 O151 2.327 . S
Gd121 C132 2.818 . S
Gd121 O141 2.395 . S
Gd121 O145 2.327 . S
Gd121 O146 2.377 . S
Gd121 O148 2.448 . S
Gd121 O149 2.506 . S
Gd121 O150 2.435 . S
Gd121 O151 2.717 . S
C122 O140 1.240 . S
C122 O141 1.240 . S
C123 Gd120 2.818 . S
C123 C124 1.510 . S
C123 O142 1.249 . S
C123 O143 1.252 . S
C124 C123 1.510 . S
C124 C125 1.404 . S
C124 C126 1.352 . S
C125 C124 1.404 . S
C125 C129 1.389 . S
C125 H152 0.930 . S
C126 C124 1.352 . S
C126 C128 1.374 . S
C126 H153 0.931 . S
C127 C128 1.359 . S
C127 C129 1.364 . S
C128 C126 1.374 . S
C128 C127 1.359 . S
C128 H154 0.931 . S
C129 C125 1.389 . S
C129 C127 1.364 . S
C129 H155 0.931 . S
C130 O144 1.256 . S
C130 O145 1.257 . S
C131 O146 1.240 . S
C131 O147 1.240 . S
C132 Gd121 2.818 . S
C132 C133 1.510 . S
C132 O148 1.249 . S
C132 O149 1.252 . S
C133 C132 1.510 . S
C133 C134 1.404 . S
C133 C135 1.352 . S
C134 C133 1.404 . S
C134 C138 1.389 . S
C134 H156 0.930 . S
C135 C133 1.352 . S
C135 C137 1.374 . S
C135 H157 0.931 . S
C136 C137 1.359 . S
C136 C138 1.364 . S
C137 C135 1.374 . S
C137 C136 1.359 . S
C137 H158 0.931 . S
C138 C134 1.389 . S
C138 C136 1.364 . S
C138 H159 0.931 . S
C139 O150 1.256 . S
C139 O151 1.257 . S
O140 Gd120 2.377 . S
O140 C122 1.240 . S
O141 Gd121 2.395 . S
O141 C122 1.240 . S
O142 Gd120 2.448 . S
O142 C123 1.249 . S
O143 Gd120 2.506 . S
O143 C123 1.252 . S
O144 Gd120 2.435 . S
O144 C130 1.256 . S
O145 Gd120 2.717 . S
O145 Gd121 2.327 . S
O145 C130 1.257 . S
O146 Gd121 2.377 . S
O146 C131 1.240 . S
O147 Gd120 2.395 . S
O147 C131 1.240 . S
O148 Gd121 2.448 . S
O148 C132 1.249 . S
O149 Gd121 2.506 . S
O149 C132 1.252 . S
O150 Gd121 2.435 . S
O150 C139 1.256 . S
O151 Gd120 2.327 . S
O151 Gd121 2.717 . S
O151 C139 1.257 . S
H152 C125 0.930 . S
H153 C126 0.931 . S
H154 C128 0.931 . S
H155 C129 0.931 . S
H156 C134 0.930 . S
H157 C135 0.931 . S
H158 C137 0.931 . S
H159 C138 0.931 . S
Gd160 C163 2.818 . S
Gd160 O180 2.377 . S
Gd160 O182 2.448 . S
Gd160 O183 2.506 . S
Gd160 O184 2.435 . S
Gd160 O185 2.717 . S
Gd160 O187 2.395 . S
Gd160 O191 2.327 . S
Gd161 C172 2.818 . S
Gd161 O181 2.395 . S
Gd161 O185 2.327 . S
Gd161 O186 2.377 . S
Gd161 O188 2.448 . S
Gd161 O189 2.506 . S
Gd161 O190 2.435 . S
Gd161 O191 2.717 . S
C162 O180 1.240 . S
C162 O181 1.240 . S
C163 Gd160 2.818 . S
C163 C164 1.510 . S
C163 O182 1.249 . S
C163 O183 1.252 . S
C164 C163 1.510 . S
C164 C165 1.404 . S
C164 C166 1.352 . S
C165 C164 1.404 . S
C165 C169 1.389 . S
C165 H192 0.930 . S
C166 C164 1.352 . S
C166 C168 1.374 . S
C166 H193 0.931 . S
C167 C168 1.359 . S
C167 C169 1.364 . S
C168 C166 1.374 . S
C168 C167 1.359 . S
C168 H194 0.931 . S
C169 C165 1.389 . S
C169 C167 1.364 . S
C169 H195 0.931 . S
C170 O184 1.256 . S
C170 O185 1.257 . S
C171 O186 1.240 . S
C171 O187 1.240 . S
C172 Gd161 2.818 . S
C172 C173 1.510 1_455 S
C172 O188 1.249 . S
C172 O189 1.252 . S
C173 C172 1.510 1_655 S
C173 C174 1.404 . S
C173 C175 1.352 . S
C174 C173 1.404 . S
C174 C178 1.389 . S
C174 H196 0.930 . S
C175 C173 1.352 . S
C175 C177 1.374 . S
C175 H197 0.931 . S
C176 C177 1.359 . S
C176 C178 1.364 . S
C177 C175 1.374 . S
C177 C176 1.359 . S
C177 H198 0.931 . S
C178 C174 1.389 . S
C178 C176 1.364 . S
C178 H199 0.931 . S
C179 O190 1.256 . S
C179 O191 1.257 . S
O180 Gd160 2.377 . S
O180 C162 1.240 . S
O181 Gd161 2.395 . S
O181 C162 1.240 . S
O182 Gd160 2.448 . S
O182 C163 1.249 . S
O183 Gd160 2.506 . S
O183 C163 1.252 . S
O184 Gd160 2.435 . S
O184 C170 1.256 . S
O185 Gd160 2.717 . S
O185 Gd161 2.327 . S
O185 C170 1.257 . S
O186 Gd161 2.377 . S
O186 C171 1.240 . S
O187 Gd160 2.395 . S
O187 C171 1.240 . S
O188 Gd161 2.448 . S
O188 C172 1.249 . S
O189 Gd161 2.506 . S
O189 C172 1.252 . S
O190 Gd161 2.435 . S
O190 C179 1.256 . S
O191 Gd160 2.327 . S
O191 Gd161 2.717 . S
O191 C179 1.257 . S
H192 C165 0.930 . S
H193 C166 0.931 . S
H194 C168 0.931 . S
H195 C169 0.931 . S
H196 C174 0.930 . S
H197 C175 0.931 . S
H198 C177 0.931 . S
H199 C178 0.931 . S
Gd200 C203 2.818 . S
Gd200 O220 2.377 . S
Gd200 O222 2.448 . S
Gd200 O223 2.506 . S
Gd200 O224 2.435 . S
Gd200 O225 2.717 . S
Gd200 O227 2.395 . S
Gd200 O231 2.327 . S
Gd201 C212 2.818 . S
Gd201 O221 2.395 . S
Gd201 O225 2.327 . S
Gd201 O226 2.377 . S
Gd201 O228 2.448 . S
Gd201 O229 2.506 . S
Gd201 O230 2.435 . S
Gd201 O231 2.717 . S
C202 O220 1.240 . S
C202 O221 1.240 . S
C203 Gd200 2.818 . S
C203 C204 1.510 . S
C203 O222 1.249 . S
C203 O223 1.252 . S
C204 C203 1.510 . S
C204 C205 1.404 . S
C204 C206 1.352 . S
C205 C204 1.404 . S
C205 C209 1.389 . S
C205 H232 0.930 . S
C206 C204 1.352 . S
C206 C208 1.374 . S
C206 H233 0.931 . S
C207 C208 1.359 . S
C207 C209 1.364 . S
C208 C206 1.374 . S
C208 C207 1.359 . S
C208 H234 0.931 . S
C209 C205 1.389 . S
C209 C207 1.364 . S
C209 H235 0.931 . S
C210 O224 1.256 . S
C210 O225 1.257 . S
C211 O226 1.240 . S
C211 O227 1.240 . S
C212 Gd201 2.818 . S
C212 C213 1.510 1_545 S
C212 O228 1.249 . S
C212 O229 1.252 . S
C213 C212 1.510 1_565 S
C213 C214 1.404 . S
C213 C215 1.352 . S
C214 C213 1.404 . S
C214 C218 1.389 . S
C214 H236 0.930 . S
C215 C213 1.352 . S
C215 C217 1.374 . S
C215 H237 0.931 . S
C216 C217 1.359 . S
C216 C218 1.364 . S
C217 C215 1.374 . S
C217 C216 1.359 . S
C217 H238 0.931 . S
C218 C214 1.389 . S
C218 C216 1.364 . S
C218 H239 0.931 . S
C219 O230 1.256 . S
C219 O231 1.257 . S
O220 Gd200 2.377 . S
O220 C202 1.240 . S
O221 Gd201 2.395 . S
O221 C202 1.240 . S
O222 Gd200 2.448 . S
O222 C203 1.249 . S
O223 Gd200 2.506 . S
O223 C203 1.252 . S
O224 Gd200 2.435 . S
O224 C210 1.256 . S
O225 Gd200 2.717 . S
O225 Gd201 2.327 . S
O225 C210 1.257 . S
O226 Gd201 2.377 . S
O226 C211 1.240 . S
O227 Gd200 2.395 . S
O227 C211 1.240 . S
O228 Gd201 2.448 . S
O228 C212 1.249 . S
O229 Gd201 2.506 . S
O229 C212 1.252 . S
O230 Gd201 2.435 . S
O230 C219 1.256 . S
O231 Gd200 2.327 . S
O231 Gd201 2.717 . S
O231 C219 1.257 . S
H232 C205 0.930 . S
H233 C206 0.931 . S
H234 C208 0.931 . S
H235 C209 0.931 . S
H236 C214 0.930 . S
H237 C215 0.931 . S
H238 C217 0.931 . S
H239 C218 0.931 . S
Gd240 C243 2.818 . S
Gd240 O260 2.377 . S
Gd240 O262 2.448 . S
Gd240 O263 2.506 . S
Gd240 O264 2.435 . S
Gd240 O265 2.717 . S
Gd240 O267 2.395 . S
Gd240 O271 2.327 . S
Gd241 C252 2.818 . S
Gd241 O261 2.395 . S
Gd241 O265 2.327 . S
Gd241 O266 2.377 . S
Gd241 O268 2.448 . S
Gd241 O269 2.506 . S
Gd241 O270 2.435 . S
Gd241 O271 2.717 . S
C242 O260 1.240 . S
C242 O261 1.240 . S
C243 Gd240 2.818 . S
C243 C244 1.510 . S
C243 O262 1.249 . S
C243 O263 1.252 . S
C244 C243 1.510 . S
C244 C245 1.404 . S
C244 C246 1.352 . S
C245 C244 1.404 . S
C245 C249 1.389 . S
C245 H272 0.930 . S
C246 C244 1.352 . S
C246 C248 1.374 . S
C246 H273 0.931 . S
C247 C248 1.359 . S
C247 C249 1.364 . S
C248 C246 1.374 . S
C248 C247 1.359 . S
C248 H274 0.931 . S
C249 C245 1.389 . S
C249 C247 1.364 . S
C249 H275 0.931 . S
C250 O264 1.256 . S
C250 O265 1.257 . S
C251 O266 1.240 . S
C251 O267 1.240 . S
C252 Gd241 2.818 . S
C252 C253 1.510 . S
C252 O268 1.249 . S
C252 O269 1.252 . S
C253 C252 1.510 . S
C253 C254 1.404 . S
C253 C255 1.352 . S
C254 C253 1.404 . S
C254 C258 1.389 . S
C254 H276 0.930 . S
C255 C253 1.352 . S
C255 C257 1.374 . S
C255 H277 0.931 . S
C256 C257 1.359 . S
C256 C258 1.364 . S
C257 C255 1.374 . S
C257 C256 1.359 . S
C257 H278 0.931 . S
C258 C254 1.389 . S
C258 C256 1.364 . S
C258 H279 0.931 . S
C259 O270 1.256 . S
C259 O271 1.257 . S
O260 Gd240 2.377 . S
O260 C242 1.240 . S
O261 Gd241 2.395 . S
O261 C242 1.240 . S
O262 Gd240 2.448 . S
O262 C243 1.249 . S
O263 Gd240 2.506 . S
O263 C243 1.252 . S
O264 Gd240 2.435 . S
O264 C250 1.256 . S
O265 Gd240 2.717 . S
O265 Gd241 2.327 . S
O265 C250 1.257 . S
O266 Gd241 2.377 . S
O266 C251 1.240 . S
O267 Gd240 2.395 . S
O267 C251 1.240 . S
O268 Gd241 2.448 . S
O268 C252 1.249 . S
O269 Gd241 2.506 . S
O269 C252 1.252 . S
O270 Gd241 2.435 . S
O270 C259 1.256 . S
O271 Gd240 2.327 . S
O271 Gd241 2.717 . S
O271 C259 1.257 . S
H272 C245 0.930 . S
H273 C246 0.931 . S
H274 C248 0.931 . S
H275 C249 0.931 . S
H276 C254 0.930 . S
H277 C255 0.931 . S
H278 C257 0.931 . S
H279 C258 0.931 . S
Gd280 C283 2.818 . S
Gd280 O300 2.377 . S
Gd280 O302 2.448 . S
Gd280 O303 2.506 . S
Gd280 O304 2.435 . S
Gd280 O305 2.717 . S
Gd280 O307 2.395 . S
Gd280 O311 2.327 . S
Gd281 C292 2.818 . S
Gd281 O301 2.395 . S
Gd281 O305 2.327 . S
Gd281 O306 2.377 . S
Gd281 O308 2.448 . S
Gd281 O309 2.506 . S
Gd281 O310 2.435 . S
Gd281 O311 2.717 . S
C282 O300 1.240 . S
C282 O301 1.240 . S
C283 Gd280 2.818 . S
C283 C284 1.510 . S
C283 O302 1.249 . S
C283 O303 1.252 . S
C284 C283 1.510 . S
C284 C285 1.404 . S
C284 C286 1.352 . S
C285 C284 1.404 . S
C285 C289 1.389 . S
C285 H312 0.930 . S
C286 C284 1.352 . S
C286 C288 1.374 . S
C286 H313 0.931 . S
C287 C288 1.359 . S
C287 C289 1.364 . S
C288 C286 1.374 . S
C288 C287 1.359 . S
C288 H314 0.931 . S
C289 C285 1.389 . S
C289 C287 1.364 . S
C289 H315 0.931 . S
C290 O304 1.256 . S
C290 O305 1.257 . S
C291 O306 1.240 . S
C291 O307 1.240 . S
C292 Gd281 2.818 . S
C292 C293 1.510 1_655 S
C292 O308 1.249 . S
C292 O309 1.252 . S
C293 C292 1.510 1_455 S
C293 C294 1.404 . S
C293 C295 1.352 . S
C294 C293 1.404 . S
C294 C298 1.389 . S
C294 H316 0.930 . S
C295 C293 1.352 . S
C295 C297 1.374 . S
C295 H317 0.931 . S
C296 C297 1.359 . S
C296 C298 1.364 . S
C297 C295 1.374 . S
C297 C296 1.359 . S
C297 H318 0.931 . S
C298 C294 1.389 . S
C298 C296 1.364 . S
C298 H319 0.931 . S
C299 O310 1.256 . S
C299 O311 1.257 . S
O300 Gd280 2.377 . S
O300 C282 1.240 . S
O301 Gd281 2.395 . S
O301 C282 1.240 . S
O302 Gd280 2.448 . S
O302 C283 1.249 . S
O303 Gd280 2.506 . S
O303 C283 1.252 . S
O304 Gd280 2.435 . S
O304 C290 1.256 . S
O305 Gd280 2.717 . S
O305 Gd281 2.327 . S
O305 C290 1.257 . S
O306 Gd281 2.377 . S
O306 C291 1.240 . S
O307 Gd280 2.395 . S
O307 C291 1.240 . S
O308 Gd281 2.448 . S
O308 C292 1.249 . S
O309 Gd281 2.506 . S
O309 C292 1.252 . S
O310 Gd281 2.435 . S
O310 C299 1.256 . S
O311 Gd280 2.327 . S
O311 Gd281 2.717 . S
O311 C299 1.257 . S
H312 C285 0.930 . S
H313 C286 0.931 . S
H314 C288 0.931 . S
H315 C289 0.931 . S
H316 C294 0.930 . S
H317 C295 0.931 . S
H318 C297 0.931 . S
H319 C298 0.931 . S
Gd320 C323 2.818 . S
Gd320 O340 2.377 . S
Gd320 O342 2.448 . S
Gd320 O343 2.506 . S
Gd320 O344 2.435 . S
Gd320 O345 2.717 . S
Gd320 O347 2.395 . S
Gd320 O351 2.327 . S
Gd321 C332 2.818 . S
Gd321 O341 2.395 . S
Gd321 O345 2.327 . S
Gd321 O346 2.377 . S
Gd321 O348 2.448 . S
Gd321 O349 2.506 . S
Gd321 O350 2.435 . S
Gd321 O351 2.717 . S
C322 O340 1.240 . S
C322 O341 1.240 . S
C323 Gd320 2.818 . S
C323 C324 1.510 . S
C323 O342 1.249 . S
C323 O343 1.252 . S
C324 C323 1.510 . S
C324 C325 1.404 . S
C324 C326 1.352 . S
C325 C324 1.404 . S
C325 C329 1.389 . S
C325 H352 0.930 . S
C326 C324 1.352 . S
C326 C328 1.374 . S
C326 H353 0.931 . S
C327 C328 1.359 . S
C327 C329 1.364 . S
C328 C326 1.374 . S
C328 C327 1.359 . S
C328 H354 0.931 . S
C329 C325 1.389 . S
C329 C327 1.364 . S
C329 H355 0.931 . S
C330 O344 1.256 . S
C330 O345 1.257 . S
C331 O346 1.240 . S
C331 O347 1.240 . S
C332 Gd321 2.818 . S
C332 C333 1.510 1_565 S
C332 O348 1.249 . S
C332 O349 1.252 . S
C333 C332 1.510 1_545 S
C333 C334 1.404 . S
C333 C335 1.352 . S
C334 C333 1.404 . S
C334 C338 1.389 . S
C334 H356 0.930 . S
C335 C333 1.352 . S
C335 C337 1.374 . S
C335 H357 0.931 . S
C336 C337 1.359 . S
C336 C338 1.364 . S
C337 C335 1.374 . S
C337 C336 1.359 . S
C337 H358 0.931 . S
C338 C334 1.389 . S
C338 C336 1.364 . S
C338 H359 0.931 . S
C339 O350 1.256 . S
C339 O351 1.257 . S
O340 Gd320 2.377 . S
O340 C322 1.240 . S
O341 Gd321 2.395 . S
O341 C322 1.240 . S
O342 Gd320 2.448 . S
O342 C323 1.249 . S
O343 Gd320 2.506 . S
O343 C323 1.252 . S
O344 Gd320 2.435 . S
O344 C330 1.256 . S
O345 Gd320 2.717 . S
O345 Gd321 2.327 . S
O345 C330 1.257 . S
O346 Gd321 2.377 . S
O346 C331 1.240 . S
O347 Gd320 2.395 . S
O347 C331 1.240 . S
O348 Gd321 2.448 . S
O348 C332 1.249 . S
O349 Gd321 2.506 . S
O349 C332 1.252 . S
O350 Gd321 2.435 . S
O350 C339 1.256 . S
O351 Gd320 2.327 . S
O351 Gd321 2.717 . S
O351 C339 1.257 . S
H352 C325 0.930 . S
H353 C326 0.931 . S
H354 C328 0.931 . S
H355 C329 0.931 . S
H356 C334 0.930 . S
H357 C335 0.931 . S
H358 C337 0.931 . S
H359 C338 0.931 . S
Gd360 C363 2.818 . S
Gd360 O380 2.377 . S
Gd360 O382 2.448 . S
Gd360 O383 2.506 . S
Gd360 O384 2.435 . S
Gd360 O385 2.717 . S
Gd360 O387 2.395 . S
Gd360 O391 2.327 . S
Gd361 C372 2.818 . S
Gd361 O381 2.395 . S
Gd361 O385 2.327 . S
Gd361 O386 2.377 . S
Gd361 O388 2.448 . S
Gd361 O389 2.506 . S
Gd361 O390 2.435 . S
Gd361 O391 2.717 . S
C362 O380 1.240 . S
C362 O381 1.240 . S
C363 Gd360 2.818 . S
C363 C364 1.510 . S
C363 O382 1.249 . S
C363 O383 1.252 . S
C364 C363 1.510 . S
C364 C365 1.404 . S
C364 C366 1.352 . S
C365 C364 1.404 . S
C365 C369 1.389 . S
C365 H392 0.930 . S
C366 C364 1.352 . S
C366 C368 1.374 . S
C366 H393 0.931 . S
C367 C368 1.359 . S
C367 C369 1.364 . S
C368 C366 1.374 . S
C368 C367 1.359 . S
C368 H394 0.931 . S
C369 C365 1.389 . S
C369 C367 1.364 . S
C369 H395 0.931 . S
C370 O384 1.256 . S
C370 O385 1.257 . S
C371 O386 1.240 . S
C371 O387 1.240 . S
C372 Gd361 2.818 . S
C372 C373 1.510 . S
C372 O388 1.249 . S
C372 O389 1.252 . S
C373 C372 1.510 . S
C373 C374 1.404 . S
C373 C375 1.352 . S
C374 C373 1.404 . S
C374 C378 1.389 . S
C374 H396 0.930 . S
C375 C373 1.352 . S
C375 C377 1.374 . S
C375 H397 0.931 . S
C376 C377 1.359 . S
C376 C378 1.364 . S
C377 C375 1.374 . S
C377 C376 1.359 . S
C377 H398 0.931 . S
C378 C374 1.389 . S
C378 C376 1.364 . S
C378 H399 0.931 . S
C379 O390 1.256 . S
C379 O391 1.257 . S
O380 Gd360 2.377 . S
O380 C362 1.240 . S
O381 Gd361 2.395 . S
O381 C362 1.240 . S
O382 Gd360 2.448 . S
O382 C363 1.249 . S
O383 Gd360 2.506 . S
O383 C363 1.252 . S
O384 Gd360 2.435 . S
O384 C370 1.256 . S
O385 Gd360 2.717 . S
O385 Gd361 2.327 . S
O385 C370 1.257 . S
O386 Gd361 2.377 . S
O386 C371 1.240 . S
O387 Gd360 2.395 . S
O387 C371 1.240 . S
O388 Gd361 2.448 . S
O388 C372 1.249 . S
O389 Gd361 2.506 . S
O389 C372 1.252 . S
O390 Gd361 2.435 . S
O390 C379 1.256 . S
O391 Gd360 2.327 . S
O391 Gd361 2.717 . S
O391 C379 1.257 . S
H392 C365 0.930 . S
H393 C366 0.931 . S
H394 C368 0.931 . S
H395 C369 0.931 . S
H396 C374 0.930 . S
H397 C375 0.931 . S
H398 C377 0.931 . S
H399 C378 0.931 . S
Gd400 C403 2.818 . S
Gd400 O420 2.377 . S
Gd400 O422 2.448 . S
Gd400 O423 2.506 . S
Gd400 O424 2.435 . S
Gd400 O425 2.717 . S
Gd400 O427 2.395 . S
Gd400 O431 2.327 . S
Gd401 C412 2.818 . S
Gd401 O421 2.395 . S
Gd401 O425 2.327 . S
Gd401 O426 2.377 . S
Gd401 O428 2.448 . S
Gd401 O429 2.506 . S
Gd401 O430 2.435 . S
Gd401 O431 2.717 . S
C402 O420 1.240 . S
C402 O421 1.240 . S
C403 Gd400 2.818 . S
C403 C404 1.510 . S
C403 O422 1.249 . S
C403 O423 1.252 . S
C404 C403 1.510 . S
C404 C405 1.404 . S
C404 C406 1.352 . S
C405 C404 1.404 . S
C405 C409 1.389 . S
C405 H432 0.930 . S
C406 C404 1.352 . S
C406 C408 1.374 . S
C406 H433 0.931 . S
C407 C408 1.359 . S
C407 C409 1.364 . S
C408 C406 1.374 . S
C408 C407 1.359 . S
C408 H434 0.931 . S
C409 C405 1.389 . S
C409 C407 1.364 . S
C409 H435 0.931 . S
C410 O424 1.256 . S
C410 O425 1.257 . S
C411 O426 1.240 . S
C411 O427 1.240 . S
C412 Gd401 2.818 . S
C412 C413 1.510 1_455 S
C412 O428 1.249 . S
C412 O429 1.252 . S
C413 C412 1.510 1_655 S
C413 C414 1.404 . S
C413 C415 1.352 . S
C414 C413 1.404 . S
C414 C418 1.389 . S
C414 H436 0.930 . S
C415 C413 1.352 . S
C415 C417 1.374 . S
C415 H437 0.931 . S
C416 C417 1.359 . S
C416 C418 1.364 . S
C417 C415 1.374 . S
C417 C416 1.359 . S
C417 H438 0.931 . S
C418 C414 1.389 . S
C418 C416 1.364 . S
C418 H439 0.931 . S
C419 O430 1.256 . S
C419 O431 1.257 . S
O420 Gd400 2.377 . S
O420 C402 1.240 . S
O421 Gd401 2.395 . S
O421 C402 1.240 . S
O422 Gd400 2.448 . S
O422 C403 1.249 . S
O423 Gd400 2.506 . S
O423 C403 1.252 . S
O424 Gd400 2.435 . S
O424 C410 1.256 . S
O425 Gd400 2.717 . S
O425 Gd401 2.327 . S
O425 C410 1.257 . S
O426 Gd401 2.377 . S
O426 C411 1.240 . S
O427 Gd400 2.395 . S
O427 C411 1.240 . S
O428 Gd401 2.448 . S
O428 C412 1.249 . S
O429 Gd401 2.506 . S
O429 C412 1.252 . S
O430 Gd401 2.435 . S
O430 C419 1.256 . S
O431 Gd400 2.327 . S
O431 Gd401 2.717 . S
O431 C419 1.257 . S
H432 C405 0.930 . S
H433 C406 0.931 . S
H434 C408 0.931 . S
H435 C409 0.931 . S
H436 C414 0.930 . S
H437 C415 0.931 . S
H438 C417 0.931 . S
H439 C418 0.931 . S
Gd440 C443 2.818 . S
Gd440 O460 2.377 . S
Gd440 O462 2.448 . S
Gd440 O463 2.506 . S
Gd440 O464 2.435 . S
Gd440 O465 2.717 . S
Gd440 O467 2.395 . S
Gd440 O471 2.327 . S
Gd441 C452 2.818 . S
Gd441 O461 2.395 . S
Gd441 O465 2.327 . S
Gd441 O466 2.377 . S
Gd441 O468 2.448 . S
Gd441 O469 2.506 . S
Gd441 O470 2.435 . S
Gd441 O471 2.717 . S
C442 O460 1.240 . S
C442 O461 1.240 . S
C443 Gd440 2.818 . S
C443 C444 1.510 . S
C443 O462 1.249 . S
C443 O463 1.252 . S
C444 C443 1.510 . S
C444 C445 1.404 . S
C444 C446 1.352 . S
C445 C444 1.404 . S
C445 C449 1.389 . S
C445 H472 0.930 . S
C446 C444 1.352 . S
C446 C448 1.374 . S
C446 H473 0.931 . S
C447 C448 1.359 . S
C447 C449 1.364 . S
C448 C446 1.374 . S
C448 C447 1.359 . S
C448 H474 0.931 . S
C449 C445 1.389 . S
C449 C447 1.364 . S
C449 H475 0.931 . S
C450 O464 1.256 . S
C450 O465 1.257 . S
C451 O466 1.240 . S
C451 O467 1.240 . S
C452 Gd441 2.818 . S
C452 C453 1.510 1_545 S
C452 O468 1.249 . S
C452 O469 1.252 . S
C453 C452 1.510 1_565 S
C453 C454 1.404 . S
C453 C455 1.352 . S
C454 C453 1.404 . S
C454 C458 1.389 . S
C454 H476 0.930 . S
C455 C453 1.352 . S
C455 C457 1.374 . S
C455 H477 0.931 . S
C456 C457 1.359 . S
C456 C458 1.364 . S
C457 C455 1.374 . S
C457 C456 1.359 . S
C457 H478 0.931 . S
C458 C454 1.389 . S
C458 C456 1.364 . S
C458 H479 0.931 . S
C459 O470 1.256 . S
C459 O471 1.257 . S
O460 Gd440 2.377 . S
O460 C442 1.240 . S
O461 Gd441 2.395 . S
O461 C442 1.240 . S
O462 Gd440 2.448 . S
O462 C443 1.249 . S
O463 Gd440 2.506 . S
O463 C443 1.252 . S
O464 Gd440 2.435 . S
O464 C450 1.256 . S
O465 Gd440 2.717 . S
O465 Gd441 2.327 . S
O465 C450 1.257 . S
O466 Gd441 2.377 . S
O466 C451 1.240 . S
O467 Gd440 2.395 . S
O467 C451 1.240 . S
O468 Gd441 2.448 . S
O468 C452 1.249 . S
O469 Gd441 2.506 . S
O469 C452 1.252 . S
O470 Gd441 2.435 . S
O470 C459 1.256 . S
O471 Gd440 2.327 . S
O471 Gd441 2.717 . S
O471 C459 1.257 . S
H472 C445 0.930 . S
H473 C446 0.931 . S
H474 C448 0.931 . S
H475 C449 0.931 . S
H476 C454 0.930 . S
H477 C455 0.931 . S
H478 C457 0.931 . S
H479 C458 0.931 . S
C480 C481 1.369 . S
C480 C482 1.419 . S
C480 H484 0.930 . S
C481 C480 1.369 . S
C481 C490 1.429 . S
C482 C480 1.419 . S
C482 C483 1.363 1_565 S
C482 H485 0.929 . S
C483 C482 1.363 1_545 S
C483 C489 1.428 . S
H484 C480 0.930 . S
H485 C482 0.929 . S
S486 N487 1.613 1_545 S
S486 N488 1.610 . S
N487 S486 1.613 1_565 S
N487 C490 1.350 . S
N488 S486 1.610 . S
N488 C489 1.351 . S
C489 C483 1.428 . S
C489 N488 1.351 . S
C489 C490 1.434 1_545 S
C490 C481 1.429 . S
C490 N487 1.350 . S
C490 C489 1.434 1_565 S
C491 C492 1.369 . S
C491 C493 1.419 . S
C491 H495 0.930 . S
C492 C491 1.369 . S
C492 C501 1.429 . S
C493 C491 1.419 . S
C493 C494 1.363 . S
C493 H496 0.929 . S
C494 C493 1.363 . S
C494 C500 1.428 . S
H495 C491 0.930 . S
H496 C493 0.929 . S
S497 N498 1.613 . S
S497 N499 1.610 . S
N498 S497 1.613 . S
N498 C501 1.350 . S
N499 S497 1.610 . S
N499 C500 1.351 . S
C500 C494 1.428 . S
C500 N499 1.351 . S
C500 C501 1.434 . S
C501 C492 1.429 . S
C501 N498 1.350 . S
C501 C500 1.434 . S
C502 C503 1.369 . S
C502 C504 1.419 1_655 S
C502 H506 0.930 . S
C503 C502 1.369 . S
C503 C512 1.429 1_655 S
C504 C502 1.419 1_455 S
C504 C505 1.363 . S
C504 H507 0.929 . S
C505 C504 1.363 . S
C505 C511 1.428 . S
H506 C502 0.930 . S
H507 C504 0.929 . S
S508 N509 1.613 . S
S508 N510 1.610 . S
N509 S508 1.613 . S
N509 C512 1.350 . S
N510 S508 1.610 . S
N510 C511 1.351 . S
C511 C505 1.428 . S
C511 N510 1.351 . S
C511 C512 1.434 . S
C512 C503 1.429 1_455 S
C512 N509 1.350 . S
C512 C511 1.434 . S
C513 C514 1.369 1_545 S
C513 C515 1.419 . S
C513 H517 0.930 . S
C514 C513 1.369 1_565 S
C514 C523 1.429 . S
C515 C513 1.419 . S
C515 C516 1.363 . S
C515 H518 0.929 . S
C516 C515 1.363 . S
C516 C522 1.428 . S
H517 C513 0.930 . S
H518 C515 0.929 . S
S519 N520 1.613 . S
S519 N521 1.610 1_565 S
N520 S519 1.613 . S
N520 C523 1.350 . S
N521 S519 1.610 1_545 S
N521 C522 1.351 . S
C522 C516 1.428 . S
C522 N521 1.351 . S
C522 C523 1.434 1_545 S
C523 C514 1.429 . S
C523 N520 1.350 . S
C523 C522 1.434 1_565 S
C524 C525 1.369 . S
C524 C526 1.419 . S
C524 H528 0.930 . S
C525 C524 1.369 . S
C525 C534 1.429 . S
C526 C524 1.419 . S
C526 C527 1.363 . S
C526 H529 0.929 . S
C527 C526 1.363 . S
C527 C533 1.428 . S
H528 C524 0.930 . S
H529 C526 0.929 . S
S530 N531 1.613 . S
S530 N532 1.610 . S
N531 S530 1.613 . S
N531 C534 1.350 . S
N532 S530 1.610 . S
N532 C533 1.351 . S
C533 C527 1.428 . S
C533 N532 1.351 . S
C533 C534 1.434 . S
C534 C525 1.429 . S
C534 N531 1.350 . S
C534 C533 1.434 . S
C535 C536 1.369 . S
C535 C537 1.419 1_655 S
C535 H539 0.930 . S
C536 C535 1.369 . S
C536 C545 1.429 . S
C537 C535 1.419 1_455 S
C537 C538 1.363 . S
C537 H540 0.929 . S
C538 C537 1.363 . S
C538 C544 1.428 1_455 S
H539 C535 0.930 . S
H540 C537 0.929 . S
S541 N542 1.613 . S
S541 N543 1.610 1_655 S
N542 S541 1.613 . S
N542 C545 1.350 . S
N543 S541 1.610 1_455 S
N543 C544 1.351 1_455 S
C544 C538 1.428 1_655 S
C544 N543 1.351 1_655 S
C544 C545 1.434 . S
C545 C536 1.429 . S
C545 N542 1.350 . S
C545 C544 1.434 . S
C546 C547 1.369 . S
C546 C548 1.419 1_455 S
C546 H550 0.930 . S
C547 C546 1.369 . S
C547 C556 1.429 . S
C548 C546 1.419 1_655 S
C548 C549 1.363 . S
C548 H551 0.929 . S
C549 C548 1.363 . S
C549 C555 1.428 1_655 S
H550 C546 0.930 . S
H551 C548 0.929 . S
S552 N553 1.613 . S
S552 N554 1.610 . S
N553 S552 1.613 . S
N553 C556 1.350 . S
N554 S552 1.610 . S
N554 C555 1.351 . S
C555 C549 1.428 1_455 S
C555 N554 1.351 . S
C555 C556 1.434 . S
C556 C547 1.429 . S
C556 N553 1.350 . S
C556 C555 1.434 . S
C557 C558 1.369 . S
C557 C559 1.419 1_565 S
C557 H561 0.930 . S
C558 C557 1.369 . S
C558 C567 1.429 1_565 S
C559 C557 1.419 1_545 S
C559 C560 1.363 . S
C559 H562 0.929 . S
C560 C559 1.363 . S
C560 C566 1.428 . S
H561 C557 0.930 . S
H562 C559 0.929 . S
S563 N564 1.613 . S
S563 N565 1.610 . S
N564 S563 1.613 . S
N564 C567 1.350 . S
N565 S563 1.610 . S
N565 C566 1.351 . S
C566 C560 1.428 . S
C566 N565 1.351 . S
C566 C567 1.434 . S
C567 C558 1.429 1_545 S
C567 N564 1.350 . S
C567 C566 1.434 . S
C568 C569 1.369 . S
C568 C570 1.419 . S
C568 H572 0.930 . S
C569 C568 1.369 . S
C569 C578 1.429 . S
C570 C568 1.419 . S
C570 C571 1.363 . S
C570 H573 0.929 . S
C571 C570 1.363 . S
C571 C577 1.428 . S
H572 C568 0.930 . S
H573 C570 0.929 . S
S574 N575 1.613 . S
S574 N576 1.610 . S
N575 S574 1.613 . S
N575 C578 1.350 . S
N576 S574 1.610 . S
N576 C577 1.351 . S
C577 C571 1.428 . S
C577 N576 1.351 . S
C577 C578 1.434 . S
C578 C569 1.429 . S
C578 N575 1.350 . S
C578 C577 1.434 . S
C579 C580 1.369 1_655 S
C579 C581 1.419 . S
C579 H583 0.930 . S
C580 C579 1.369 1_455 S
C580 C589 1.429 . S
C581 C579 1.419 . S
C581 C582 1.363 . S
C581 H584 0.929 . S
C582 C581 1.363 . S
C582 C588 1.428 . S
H583 C579 0.930 . S
H584 C581 0.929 . S
S585 N586 1.606 1_655 S
S585 N587 1.627 . S
N586 S585 1.606 1_455 S
N586 C589 1.350 . S
N587 S585 1.627 . S
N587 C588 1.351 . S
C588 C582 1.428 . S
C588 N587 1.351 . S
C588 C589 1.434 1_655 S
C589 C580 1.429 . S
C589 N586 1.350 . S
C589 C588 1.434 1_455 S
C590 C591 1.369 . S
C590 C592 1.419 1_545 S
C590 H594 0.930 . S
C591 C590 1.369 . S
C591 C600 1.429 1_545 S
C592 C590 1.419 1_565 S
C592 C593 1.363 . S
C592 H595 0.929 . S
C593 C592 1.363 . S
C593 C599 1.428 . S
H594 C590 0.930 . S
H595 C592 0.929 . S
S596 N597 1.613 1_565 S
S596 N598 1.610 . S
N597 S596 1.613 1_545 S
N597 C600 1.350 1_545 S
N598 S596 1.610 . S
N598 C599 1.351 . S
C599 C593 1.428 . S
C599 N598 1.351 . S
C599 C600 1.434 . S
C600 C591 1.429 1_565 S
C600 N597 1.350 1_565 S
C600 C599 1.434 . S
C601 C602 1.369 . S
C601 C603 1.419 . S
C601 H605 0.930 . S
C602 C601 1.369 . S
C602 C611 1.429 . S
C603 C601 1.419 . S
C603 C604 1.363 . S
C603 H606 0.929 . S
C604 C603 1.363 . S
C604 C610 1.428 . S
H605 C601 0.930 . S
H606 C603 0.929 . S
S607 N608 1.613 . S
S607 N609 1.610 . S
N608 S607 1.613 . S
N608 C611 1.350 . S
N609 S607 1.610 . S
N609 C610 1.351 . S
C610 C604 1.428 . S
C610 N609 1.351 . S
C610 C611 1.434 . S
C611 C602 1.429 . S
C611 N608 1.350 . S
C611 C610 1.434 . S
C612 C613 1.369 . S
C612 C614 1.419 . S
C612 H616 0.930 . S
C613 C612 1.369 . S
C613 C622 1.429 . S
C614 C612 1.419 . S
C614 C615 1.363 . S
C614 H617 0.929 . S
C615 C614 1.363 . S
C615 C621 1.428 . S
H616 C612 0.930 . S
H617 C614 0.929 . S
S618 N619 1.613 . S
S618 N620 1.610 . S
N619 S618 1.613 . S
N619 C622 1.350 . S
N620 S618 1.610 . S
N620 C621 1.351 . S
C621 C615 1.428 . S
C621 N620 1.351 . S
C621 C622 1.434 . S
C622 C613 1.429 . S
C622 N619 1.350 . S
C622 C621 1.434 . S
C623 C624 1.369 . S
C623 C625 1.419 . S
C623 H627 0.930 . S
C624 C623 1.369 . S
C624 C633 1.429 . S
C625 C623 1.419 . S
C625 C626 1.363 . S
C625 H628 0.929 . S
C626 C625 1.363 . S
C626 C632 1.428 . S
H627 C623 0.930 . S
H628 C625 0.929 . S
S629 N630 1.613 . S
S629 N631 1.610 . S
N630 S629 1.613 . S
N630 C633 1.350 . S
N631 S629 1.610 . S
N631 C632 1.351 . S
C632 C626 1.428 . S
C632 N631 1.351 . S
C632 C633 1.434 . S
C633 C624 1.429 . S
C633 N630 1.350 . S
C633 C632 1.434 . S
C634 C635 1.369 . S
C634 C636 1.419 . S
C634 H638 0.930 . S
C635 C634 1.369 . S
C635 C644 1.429 . S
C636 C634 1.419 . S
C636 C637 1.363 . S
C636 H639 0.929 . S
C637 C636 1.363 . S
C637 C643 1.428 . S
H638 C634 0.930 . S
H639 C636 0.929 . S
S640 N641 1.613 . S
S640 N642 1.610 . S
N641 S640 1.613 . S
N641 C644 1.350 . S
N642 S640 1.610 . S
N642 C643 1.351 . S
C643 C637 1.428 . S
C643 N642 1.351 . S
C643 C644 1.434 . S
C644 C635 1.429 . S
C644 N641 1.350 . S
C644 C643 1.434 . S
C645 C646 1.369 . S
C645 C647 1.419 . S
C645 H649 0.930 . S
C646 C645 1.369 . S
C646 C655 1.429 . S
C647 C645 1.419 . S
C647 C648 1.363 . S
C647 H650 0.929 . S
C648 C647 1.363 . S
C648 C654 1.428 . S
H649 C645 0.930 . S
H650 C647 0.929 . S
S651 N652 1.613 . S
S651 N653 1.610 . S
N652 S651 1.613 . S
N652 C655 1.350 . S
N653 S651 1.610 . S
N653 C654 1.351 . S
C654 C648 1.428 . S
C654 N653 1.351 . S
C654 C655 1.434 . S
C655 C646 1.429 . S
C655 N652 1.350 . S
C655 C654 1.434 . S
C656 C657 1.369 . S
C656 C658 1.419 . S
C656 H660 0.930 . S
C657 C656 1.369 . S
C657 C666 1.429 . S
C658 C656 1.419 . S
C658 C659 1.363 . S
C658 H661 0.929 . S
C659 C658 1.363 . S
C659 C665 1.428 . S
H660 C656 0.930 . S
H661 C658 0.929 . S
S662 N663 1.613 . S
S662 N664 1.610 . S
N663 S662 1.613 . S
N663 C666 1.350 . S
N664 S662 1.610 . S
N664 C665 1.351 . S
C665 C659 1.428 . S
C665 N664 1.351 . S
C665 C666 1.434 . S
C666 C657 1.429 . S
C666 N663 1.350 . S
C666 C665 1.434 . S
C667 C668 1.369 . S
C667 C669 1.419 . S
C667 H671 0.930 . S
C668 C667 1.369 . S
C668 C677 1.429 . S
C669 C667 1.419 . S
C669 C670 1.363 . S
C669 H672 0.929 . S
C670 C669 1.363 . S
C670 C676 1.428 . S
H671 C667 0.930 . S
H672 C669 0.929 . S
S673 N674 1.613 . S
S673 N675 1.610 . S
N674 S673 1.613 . S
N674 C677 1.350 . S
N675 S673 1.610 . S
N675 C676 1.351 . S
C676 C670 1.428 . S
C676 N675 1.351 . S
C676 C677 1.434 . S
C677 C668 1.429 . S
C677 N674 1.350 . S
C677 C676 1.434 . S
C678 C679 1.369 . S
C678 C680 1.419 . S
C678 H682 0.930 . S
C679 C678 1.369 . S
C679 C688 1.429 . S
C680 C678 1.419 . S
C680 C681 1.363 . S
C680 H683 0.929 . S
C681 C680 1.363 . S
C681 C687 1.428 . S
H682 C678 0.930 . S
H683 C680 0.929 . S
S684 N685 1.613 . S
S684 N686 1.610 . S
N685 S684 1.613 . S
N685 C688 1.350 . S
N686 S684 1.610 . S
N686 C687 1.351 . S
C687 C681 1.428 . S
C687 N686 1.351 . S
C687 C688 1.434 . S
C688 C679 1.429 . S
C688 N685 1.350 . S
C688 C687 1.434 . S
C689 C690 1.369 . S
C689 C691 1.419 . S
C689 H693 0.930 . S
C690 C689 1.369 . S
C690 C699 1.429 . S
C691 C689 1.419 . S
C691 C692 1.363 . S
C691 H694 0.929 . S
C692 C691 1.363 . S
C692 C698 1.428 . S
H693 C689 0.930 . S
H694 C691 0.929 . S
S695 N696 1.613 . S
S695 N697 1.610 . S
N696 S695 1.613 . S
N696 C699 1.350 . S
N697 S695 1.610 . S
N697 C698 1.351 . S
C698 C692 1.428 . S
C698 N697 1.351 . S
C698 C699 1.434 . S
C699 C690 1.429 . S
C699 N696 1.350 . S
C699 C698 1.434 . S
C700 C701 1.369 . S
C700 C702 1.419 . S
C700 H704 0.930 . S
C701 C700 1.369 . S
C701 C710 1.429 . S
C702 C700 1.419 . S
C702 C703 1.363 . S
C702 H705 0.929 . S
C703 C702 1.363 . S
C703 C709 1.428 . S
H704 C700 0.930 . S
H705 C702 0.929 . S
S706 N707 1.613 . S
S706 N708 1.610 . S
N707 S706 1.613 . S
N707 C710 1.350 . S
N708 S706 1.610 . S
N708 C709 1.351 . S
C709 C703 1.428 . S
C709 N708 1.351 . S
C709 C710 1.434 . S
C710 C701 1.429 . S
C710 N707 1.350 . S
C710 C709 1.434 . S
C711 C712 1.369 . S
C711 C713 1.419 . S
C711 H715 0.930 . S
C712 C711 1.369 . S
C712 C721 1.429 . S
C713 C711 1.419 . S
C713 C714 1.363 . S
C713 H716 0.929 . S
C714 C713 1.363 . S
C714 C720 1.428 . S
H715 C711 0.930 . S
H716 C713 0.929 . S
S717 N718 1.613 . S
S717 N719 1.610 . S
N718 S717 1.613 . S
N718 C721 1.350 . S
N719 S717 1.610 . S
N719 C720 1.351 . S
C720 C714 1.428 . S
C720 N719 1.351 . S
C720 C721 1.434 . S
C721 C712 1.429 . S
C721 N718 1.350 . S
C721 C720 1.434 . S
C722 C723 1.369 . S
C722 C724 1.419 . S
C722 H726 0.930 . S
C723 C722 1.369 . S
C723 C732 1.429 . S
C724 C722 1.419 . S
C724 C725 1.363 . S
C724 H727 0.929 . S
C725 C724 1.363 . S
C725 C731 1.428 . S
H726 C722 0.930 . S
H727 C724 0.929 . S
S728 N729 1.613 . S
S728 N730 1.610 . S
N729 S728 1.613 . S
N729 C732 1.350 . S
N730 S728 1.610 . S
N730 C731 1.351 . S
C731 C725 1.428 . S
C731 N730 1.351 . S
C731 C732 1.434 . S
C732 C723 1.429 . S
C732 N729 1.350 . S
C732 C731 1.434 . S
C733 C734 1.369 . S
C733 C735 1.419 . S
C733 H737 0.930 . S
C734 C733 1.369 . S
C734 C743 1.429 . S
C735 C733 1.419 . S
C735 C736 1.363 . S
C735 H738 0.929 . S
C736 C735 1.363 . S
C736 C742 1.428 . S
H737 C733 0.930 . S
H738 C735 0.929 . S
S739 N740 1.613 . S
S739 N741 1.610 . S
N740 S739 1.613 . S
N740 C743 1.350 . S
N741 S739 1.610 . S
N741 C742 1.351 . S
C742 C736 1.428 . S
C742 N741 1.351 . S
C742 C743 1.434 . S
C743 C734 1.429 . S
C743 N740 1.350 . S
C743 C742 1.434 . S
C744 C745 1.369 . S
C744 C746 1.419 . S
C744 H748 0.930 . S
C745 C744 1.369 . S
C745 C754 1.429 . S
C746 C744 1.419 . S
C746 C747 1.363 . S
C746 H749 0.929 . S
C747 C746 1.363 . S
C747 C753 1.428 . S
H748 C744 0.930 . S
H749 C746 0.929 . S
S750 N751 1.613 . S
S750 N752 1.610 . S
N751 S750 1.613 . S
N751 C754 1.350 . S
N752 S750 1.610 . S
N752 C753 1.351 . S
C753 C747 1.428 . S
C753 N752 1.351 . S
C753 C754 1.434 . S
C754 C745 1.429 . S
C754 N751 1.350 . S
C754 C753 1.434 . S
C755 C756 1.369 . S
C755 C757 1.419 . S
C755 H759 0.930 . S
C756 C755 1.369 . S
C756 C765 1.429 . S
C757 C755 1.419 . S
C757 C758 1.363 . S
C757 H760 0.929 . S
C758 C757 1.363 . S
C758 C764 1.428 . S
H759 C755 0.930 . S
H760 C757 0.929 . S
S761 N762 1.613 . S
S761 N763 1.610 . S
N762 S761 1.613 . S
N762 C765 1.350 . S
N763 S761 1.610 . S
N763 C764 1.351 . S
C764 C758 1.428 . S
C764 N763 1.351 . S
C764 C765 1.434 . S
C765 C756 1.429 . S
C765 N762 1.350 . S
C765 C764 1.434 . S
C766 C767 1.369 . S
C766 C768 1.419 . S
C766 H770 0.930 . S
C767 C766 1.369 . S
C767 C776 1.429 . S
C768 C766 1.419 . S
C768 C769 1.363 . S
C768 H771 0.929 . S
C769 C768 1.363 . S
C769 C775 1.428 . S
H770 C766 0.930 . S
H771 C768 0.929 . S
S772 N773 1.613 . S
S772 N774 1.610 . S
N773 S772 1.613 . S
N773 C776 1.350 . S
N774 S772 1.610 . S
N774 C775 1.351 . S
C775 C769 1.428 . S
C775 N774 1.351 . S
C775 C776 1.434 . S
C776 C767 1.429 . S
C776 N773 1.350 . S
C776 C775 1.434 . S
C777 C778 1.369 . S
C777 C779 1.419 . S
C777 H781 0.930 . S
C778 C777 1.369 . S
C778 C787 1.429 . S
C779 C777 1.419 . S
C779 C780 1.363 . S
C779 H782 0.929 . S
C780 C779 1.363 . S
C780 C786 1.428 . S
H781 C777 0.930 . S
H782 C779 0.929 . S
S783 N784 1.613 . S
S783 N785 1.610 . S
N784 S783 1.613 . S
N784 C787 1.350 . S
N785 S783 1.610 . S
N785 C786 1.351 . S
C786 C780 1.428 . S
C786 N785 1.351 . S
C786 C787 1.434 . S
C787 C778 1.429 . S
C787 N784 1.350 . S
C787 C786 1.434 . S
C788 C789 1.369 . S
C788 C790 1.419 . S
C788 H792 0.930 . S
C789 C788 1.369 . S
C789 C798 1.429 . S
C790 C788 1.419 . S
C790 C791 1.363 . S
C790 H793 0.929 . S
C791 C790 1.363 . S
C791 C797 1.428 . S
H792 C788 0.930 . S
H793 C790 0.929 . S
S794 N795 1.613 . S
S794 N796 1.610 . S
N795 S794 1.613 . S
N795 C798 1.350 . S
N796 S794 1.610 . S
N796 C797 1.351 . S
C797 C791 1.428 . S
C797 N796 1.351 . S
C797 C798 1.434 . S
C798 C789 1.429 . S
C798 N795 1.350 . S
C798 C797 1.434 . S
C799 C800 1.369 . S
C799 C801 1.419 . S
C799 H803 0.930 . S
C800 C799 1.369 . S
C800 C809 1.429 . S
C801 C799 1.419 . S
C801 C802 1.363 . S
C801 H804 0.929 . S
C802 C801 1.363 . S
C802 C808 1.428 . S
H803 C799 0.930 . S
H804 C801 0.929 . S
S805 N806 1.613 . S
S805 N807 1.610 . S
N806 S805 1.613 . S
N806 C809 1.350 . S
N807 S805 1.610 . S
N807 C808 1.351 . S
C808 C802 1.428 . S
C808 N807 1.351 . S
C808 C809 1.434 . S
C809 C800 1.429 . S
C809 N806 1.350 . S
C809 C808 1.434 . S
C810 C811 1.369 1_554 S
C810 C812 1.419 . S
C810 H814 0.930 . S
C811 C810 1.369 1_556 S
C811 C820 1.429 . S
C812 C810 1.419 . S
C812 C813 1.363 . S
C812 H815 0.929 . S
C813 C812 1.363 . S
C813 C819 1.428 1_554 S
H814 C810 0.930 . S
H815 C812 0.929 . S
S816 N817 1.613 . S
S816 N818 1.610 . S
N817 S816 1.613 . S
N817 C820 1.350 . S
N818 S816 1.610 . S
N818 C819 1.351 . S
C819 C813 1.428 1_556 S
C819 N818 1.351 . S
C819 C820 1.434 . S
C820 C811 1.429 . S
C820 N817 1.350 . S
C820 C819 1.434 . S
C821 C822 1.369 . S
C821 C823 1.419 1_455 S
C821 H825 0.930 . S
C822 C821 1.369 . S
C822 C831 1.429 . S
C823 C821 1.419 1_655 S
C823 C824 1.363 . S
C823 H826 0.929 . S
C824 C823 1.363 . S
C824 C830 1.428 . S
H825 C821 0.930 . S
H826 C823 0.929 . S
S827 N828 1.613 1_655 S
S827 N829 1.610 . S
N828 S827 1.613 1_455 S
N828 C831 1.350 . S
N829 S827 1.610 . S
N829 C830 1.351 . S
C830 C824 1.428 . S
C830 N829 1.351 . S
C830 C831 1.434 1_655 S
C831 C822 1.429 . S
C831 N828 1.350 . S
C831 C830 1.434 1_455 S
C832 C833 1.369 1_556 S
C832 C834 1.419 1_565 S
C832 H836 0.930 . S
C833 C832 1.369 1_554 S
C833 C842 1.429 . S
C834 C832 1.419 1_545 S
C834 C835 1.363 . S
C834 H837 0.929 . S
C835 C834 1.363 . S
C835 C841 1.428 1_556 S
H836 C832 0.930 . S
H837 C834 0.929 . S
S838 N839 1.613 1_545 S
S838 N840 1.610 . S
N839 S838 1.613 1_565 S
N839 C842 1.350 . S
N840 S838 1.610 . S
N840 C841 1.351 . S
C841 C835 1.428 1_554 S
C841 N840 1.351 . S
C841 C842 1.434 1_545 S
C842 C833 1.429 . S
C842 N839 1.350 . S
C842 C841 1.434 1_565 S
C843 C844 1.369 . S
C843 C845 1.419 . S
C843 H847 0.930 . S
C844 C843 1.369 . S
C844 C853 1.429 . S
C845 C843 1.419 . S
C845 C846 1.363 . S
C845 H848 0.929 . S
C846 C845 1.363 . S
C846 C852 1.428 . S
H847 C843 0.930 . S
H848 C845 0.929 . S
S849 N850 1.613 . S
S849 N851 1.610 . S
N850 S849 1.613 . S
N850 C853 1.350 . S
N851 S849 1.610 . S
N851 C852 1.351 . S
C852 C846 1.428 . S
C852 N851 1.351 . S
C852 C853 1.434 . S
C853 C844 1.429 . S
C853 N850 1.350 . S
C853 C852 1.434 . S
C854 C855 1.369 . S
C854 C856 1.419 1_655 S
C854 H858 0.930 . S
C855 C854 1.369 . S
C855 C864 1.429 1_556 S
C856 C854 1.419 1_455 S
C856 C857 1.363 1_556 S
C856 H859 0.929 . S
C857 C856 1.363 1_554 S
C857 C863 1.428 . S
H858 C854 0.930 . S
H859 C856 0.929 . S
S860 N861 1.613 . S
S860 N862 1.610 1_655 S
N861 S860 1.613 . S
N861 C864 1.350 . S
N862 S860 1.610 1_455 S
N862 C863 1.351 . S
C863 C857 1.428 . S
C863 N862 1.351 . S
C863 C864 1.434 1_455 S
C864 C855 1.429 1_554 S
C864 N861 1.350 . S
C864 C863 1.434 1_655 S
C865 C866 1.369 . S
C865 C867 1.419 1_565 S
C865 H869 0.930 . S
C866 C865 1.369 . S
C866 C875 1.429 . S
C867 C865 1.419 1_545 S
C867 C868 1.363 . S
C867 H870 0.929 . S
C868 C867 1.363 . S
C868 C874 1.428 . S
H869 C865 0.930 . S
H870 C867 0.929 . S
S871 N872 1.613 1_545 S
S871 N873 1.610 . S
N872 S871 1.613 1_565 S
N872 C875 1.350 . S
N873 S871 1.610 . S
N873 C874 1.351 . S
C874 C868 1.428 . S
C874 N873 1.351 . S
C874 C875 1.434 1_545 S
C875 C866 1.429 . S
C875 N872 1.350 . S
C875 C874 1.434 1_565 S
C481 C171 1.421 . S
C483 C16 1.456 . S
C492 C211 1.417 . S
C494 C56 1.459 . S
C503 C96 1.463 . S
C505 C11 1.418 . S
C514 C136 1.455 . S
C516 C51 1.422 . S
C525 C176 1.463 . S
C527 C91 1.415 . S
C536 C131 1.414 . S
C538 C216 1.462 . S
C547 C331 1.418 . S
C549 C256 1.462 . S
C558 C296 1.463 . S
C560 C371 1.415 . S
C569 C411 1.421 . S
C571 C336 1.457 . S
C580 C376 1.455 . S
C582 C451 1.424 . S
C591 C416 1.462 . S
C593 C251 1.415 . S
C602 C291 1.423 . S
C604 C456 1.456 . S
C613 C162 1.858 . S
C615 C7 1.811 . S
C624 C47 1.814 . S
C626 C202 1.855 . S
C635 C87 1.816 . S
C637 C2 1.852 . S
C646 C127 1.808 . S
C648 C42 1.857 . S
C657 C82 1.857 . S
C659 C167 1.812 . S
C668 C122 1.853 . S
C670 C207 1.812 . S
C679 C322 1.858 . S
C681 C247 1.810 . S
C690 C287 1.810 . S
C692 C362 1.855 . S
C701 C327 1.808 . S
C703 C402 1.857 . S
C712 C442 1.857 . S
C714 C367 1.809 . S
C723 C407 1.812 . S
C725 C242 1.854 . S
C734 C282 1.854 . S
C736 C447 1.812 . S
C745 C419 1.613 . S
C747 C19 1.616 . S
C756 C59 1.611 . S
C758 C459 1.621 . S
C767 C99 1.611 . S
C769 C259 1.620 . S
C778 C139 1.615 . S
C780 C299 1.614 . S
C789 C179 1.622 . S
C791 C339 1.613 . S
C800 C379 1.619 . S
C802 C219 1.613 . S
C811 C370 2.421 . S
C813 C10 2.425 . S
C822 C410 2.420 . S
C824 C50 2.425 . S
C833 C90 2.421 . S
C835 C450 2.424 . S
C844 C130 2.421 . S
C846 C250 2.424 . S
C855 C290 2.424 . S
C857 C170 2.422 . S
C866 C330 2.421 . S
C868 C210 2.424 . S
