# Generated by pormake.
# Topology lcs, (4)-cn, num edge types: 1
# Building blocks:
#     Node 0, Type 0, BuildingBlock: QUQFOY_clean_sbu_3, # of connection points: 4
#     Node 1, Type 0, BuildingBlock: QUQFOY_clean_sbu_3, # of connection points: 4
#     Node 2, Type 0, BuildingBlock: QUQFOY_clean_sbu_3, # of connection points: 4
#     Node 3, Type 0, BuildingBlock: QUQFOY_clean_sbu_3, # of connection points: 4
#     Node 4, Type 0, BuildingBlock: QUQFOY_clean_sbu_3, # of connection points: 4
#     Node 5, Type 0, BuildingBlock: QUQFOY_clean_sbu_3, # of connection points: 4
#     Node 6, Type 0, BuildingBlock: QUQFOY_clean_sbu_3, # of connection points: 4
#     Node 7, Type 0, BuildingBlock: QUQFOY_clean_sbu_3, # of connection points: 4
#     Node 8, Type 0, BuildingBlock: QUQFOY_clean_sbu_3, # of connection points: 4
#     Node 9, Type 0, BuildingBlock: QUQFOY_clean_sbu_3, # of connection points: 4
#     Node 10, Type 0, BuildingBlock: QUQFOY_clean_sbu_3, # of connection points: 4
#     Node 11, Type 0, BuildingBlock: QUQFOY_clean_sbu_3, # of connection points: 4
#     Node 12, Type 0, BuildingBlock: QUQFOY_clean_sbu_3, # of connection points: 4
#     Node 13, Type 0, BuildingBlock: QUQFOY_clean_sbu_3, # of connection points: 4
#     Node 14, Type 0, BuildingBlock: QUQFOY_clean_sbu_3, # of connection points: 4
#     Node 15, Type 0, BuildingBlock: QUQFOY_clean_sbu_3, # of connection points: 4
#     Node 16, Type 0, BuildingBlock: QUQFOY_clean_sbu_3, # of connection points: 4
#     Node 17, Type 0, BuildingBlock: QUQFOY_clean_sbu_3, # of connection points: 4
#     Node 18, Type 0, BuildingBlock: QUQFOY_clean_sbu_3, # of connection points: 4
#     Node 19, Type 0, BuildingBlock: QUQFOY_clean_sbu_3, # of connection points: 4
#     Node 20, Type 0, BuildingBlock: QUQFOY_clean_sbu_3, # of connection points: 4
#     Node 21, Type 0, BuildingBlock: QUQFOY_clean_sbu_3, # of connection points: 4
#     Node 22, Type 0, BuildingBlock: QUQFOY_clean_sbu_3, # of connection points: 4
#     Node 23, Type 0, BuildingBlock: QUQFOY_clean_sbu_3, # of connection points: 4
#     Edge 24, Type (0, 0), BuildingBlock: UVAHIK_clean_linker_0, # of connection points: 2
#     Edge 25, Type (0, 0), BuildingBlock: UVAHIK_clean_linker_0, # of connection points: 2
#     Edge 26, Type (0, 0), BuildingBlock: UVAHIK_clean_linker_0, # of connection points: 2
#     Edge 27, Type (0, 0), BuildingBlock: UVAHIK_clean_linker_0, # of connection points: 2
#     Edge 28, Type (0, 0), BuildingBlock: UVAHIK_clean_linker_0, # of connection points: 2
#     Edge 29, Type (0, 0), BuildingBlock: UVAHIK_clean_linker_0, # of connection points: 2
#     Edge 30, Type (0, 0), BuildingBlock: UVAHIK_clean_linker_0, # of connection points: 2
#     Edge 31, Type (0, 0), BuildingBlock: UVAHIK_clean_linker_0, # of connection points: 2
#     Edge 32, Type (0, 0), BuildingBlock: UVAHIK_clean_linker_0, # of connection points: 2
#     Edge 33, Type (0, 0), BuildingBlock: UVAHIK_clean_linker_0, # of connection points: 2
#     Edge 34, Type (0, 0), BuildingBlock: UVAHIK_clean_linker_0, # of connection points: 2
#     Edge 35, Type (0, 0), BuildingBlock: UVAHIK_clean_linker_0, # of connection points: 2
#     Edge 36, Type (0, 0), BuildingBlock: UVAHIK_clean_linker_0, # of connection points: 2
#     Edge 37, Type (0, 0), BuildingBlock: UVAHIK_clean_linker_0, # of connection points: 2
#     Edge 38, Type (0, 0), BuildingBlock: UVAHIK_clean_linker_0, # of connection points: 2
#     Edge 39, Type (0, 0), BuildingBlock: UVAHIK_clean_linker_0, # of connection points: 2
#     Edge 40, Type (0, 0), BuildingBlock: UVAHIK_clean_linker_0, # of connection points: 2
#     Edge 41, Type (0, 0), BuildingBlock: UVAHIK_clean_linker_0, # of connection points: 2
#     Edge 42, Type (0, 0), BuildingBlock: UVAHIK_clean_linker_0, # of connection points: 2
#     Edge 43, Type (0, 0), BuildingBlock: UVAHIK_clean_linker_0, # of connection points: 2
#     Edge 44, Type (0, 0), BuildingBlock: UVAHIK_clean_linker_0, # of connection points: 2
#     Edge 45, Type (0, 0), BuildingBlock: UVAHIK_clean_linker_0, # of connection points: 2
#     Edge 46, Type (0, 0), BuildingBlock: UVAHIK_clean_linker_0, # of connection points: 2
#     Edge 47, Type (0, 0), BuildingBlock: UVAHIK_clean_linker_0, # of connection points: 2
#     Edge 48, Type (0, 0), BuildingBlock: UVAHIK_clean_linker_0, # of connection points: 2
#     Edge 49, Type (0, 0), BuildingBlock: UVAHIK_clean_linker_0, # of connection points: 2
#     Edge 50, Type (0, 0), BuildingBlock: UVAHIK_clean_linker_0, # of connection points: 2
#     Edge 51, Type (0, 0), BuildingBlock: UVAHIK_clean_linker_0, # of connection points: 2
#     Edge 52, Type (0, 0), BuildingBlock: UVAHIK_clean_linker_0, # of connection points: 2
#     Edge 53, Type (0, 0), BuildingBlock: UVAHIK_clean_linker_0, # of connection points: 2
#     Edge 54, Type (0, 0), BuildingBlock: UVAHIK_clean_linker_0, # of connection points: 2
#     Edge 55, Type (0, 0), BuildingBlock: UVAHIK_clean_linker_0, # of connection points: 2
#     Edge 56, Type (0, 0), BuildingBlock: UVAHIK_clean_linker_0, # of connection points: 2
#     Edge 57, Type (0, 0), BuildingBlock: UVAHIK_clean_linker_0, # of connection points: 2
#     Edge 58, Type (0, 0), BuildingBlock: UVAHIK_clean_linker_0, # of connection points: 2
#     Edge 59, Type (0, 0), BuildingBlock: UVAHIK_clean_linker_0, # of connection points: 2
#     Edge 60, Type (0, 0), BuildingBlock: UVAHIK_clean_linker_0, # of connection points: 2
#     Edge 61, Type (0, 0), BuildingBlock: UVAHIK_clean_linker_0, # of connection points: 2
#     Edge 62, Type (0, 0), BuildingBlock: UVAHIK_clean_linker_0, # of connection points: 2
#     Edge 63, Type (0, 0), BuildingBlock: UVAHIK_clean_linker_0, # of connection points: 2
#     Edge 64, Type (0, 0), BuildingBlock: UVAHIK_clean_linker_0, # of connection points: 2
#     Edge 65, Type (0, 0), BuildingBlock: UVAHIK_clean_linker_0, # of connection points: 2
#     Edge 66, Type (0, 0), BuildingBlock: UVAHIK_clean_linker_0, # of connection points: 2
#     Edge 67, Type (0, 0), BuildingBlock: UVAHIK_clean_linker_0, # of connection points: 2
#     Edge 68, Type (0, 0), BuildingBlock: UVAHIK_clean_linker_0, # of connection points: 2
#     Edge 69, Type (0, 0), BuildingBlock: UVAHIK_clean_linker_0, # of connection points: 2
#     Edge 70, Type (0, 0), BuildingBlock: UVAHIK_clean_linker_0, # of connection points: 2
#     Edge 71, Type (0, 0), BuildingBlock: UVAHIK_clean_linker_0, # of connection points: 2
# Relax obj value: 0.004
# Max RMSD: 0.036
# Mean RMSD: 0.028
data_MOF--net-lcs--node1-QUQFOY_clean_sbu_3--edge1-UVAHIK_clean_linker_0
_symmetry_space_group_name_H-M    P1
_symmetry_Int_Tables_number       1
_symmetry_cell_setting            triclinic
loop_
_symmetry_equiv_pos_as_xyz
'x, y, z'
_cell_length_a     64.617606
_cell_length_b     65.565017
_cell_length_c     65.693785
_cell_angle_alpha  91.387313
_cell_angle_beta   90.093586
_cell_angle_gamma 91.032257
loop_
_atom_site_label
_atom_site_type_symbol
_atom_site_fract_x
_atom_site_fract_y
_atom_site_fract_z
_atom_type_partial_charge
C0 C 0.96269 0.24928 0.41388 0.0
O1 O 0.97111 0.23586 0.42464 0.0
Cd2 Cd 0.00455 0.22166 0.41766 0.0
O3 O 0.9718 0.25609 0.3982 0.0
Cd4 Cd 0.00414 0.2515 0.37911 0.0
C5 C -0.00553 0.20094 0.37032 0.0
O6 O 0.02619 0.25012 0.40902 0.0
O7 O 0.04113 0.24483 0.38011 0.0
O8 O 0.00156 0.28749 0.37134 0.0
C9 C 0.04271 0.24661 0.39929 0.0
O10 O -0.00062 0.19793 0.38877 0.0
C11 C 0.00559 0.28504 0.35254 0.0
O12 O -0.00639 0.21893 0.36353 0.0
O13 O 0.00853 0.26691 0.34608 0.0
C14 C 0.9683 0.75806 0.57822 0.0
O15 O 0.98546 0.76066 0.56917 0.0
Cd16 Cd 0.01804 0.74961 0.58227 0.0
O17 O 0.96751 0.74928 0.59529 0.0
Cd18 Cd 0.99095 0.73371 0.61988 0.0
C19 C 0.01914 0.77713 0.62739 0.0
O20 O 0.01253 0.71618 0.59507 0.0
O21 O 0.02345 0.71658 0.62614 0.0
O22 O 0.96509 0.70729 0.62562 0.0
C23 C 0.02578 0.71043 0.60787 0.0
O24 O 0.0272 0.77338 0.61005 0.0
C25 C 0.96468 0.70967 0.64485 0.0
O26 O 0.00436 0.76606 0.63406 0.0
O27 O 0.97609 0.72383 0.65254 0.0
C28 C 0.46474 0.75371 0.91165 0.0
O29 O 0.47374 0.74059 0.9223 0.0
Cd30 Cd 0.50612 0.72517 0.91376 0.0
O31 O 0.47269 0.75966 0.89504 0.0
Cd32 Cd 0.5036 0.75264 0.87429 0.0
C33 C 0.49155 0.70234 0.86865 0.0
O34 O 0.5284 0.75204 0.90217 0.0
O35 O 0.5395 0.7418 0.87283 0.0
O36 O 0.50414 0.7881 0.86392 0.0
C37 C 0.5434 0.74594 0.89139 0.0
O38 O 0.4982 0.69996 0.88669 0.0
C39 C 0.50578 0.78384 0.84503 0.0
O40 O 0.49038 0.72004 0.86126 0.0
O41 O 0.50587 0.76507 0.83982 0.0
C42 C 0.46542 0.25939 0.08508 0.0
O43 O 0.48243 0.26172 0.07565 0.0
Cd44 Cd 0.51501 0.24828 0.08637 0.0
O45 O 0.46469 0.24989 0.10177 0.0
Cd46 Cd 0.48816 0.23269 0.12518 0.0
C47 C 0.52022 0.27402 0.13202 0.0
O48 O 0.50668 0.21502 0.09823 0.0
O49 O 0.51775 0.21005 0.12858 0.0
O50 O 0.45843 0.21118 0.13373 0.0
C51 C 0.51945 0.20639 0.10966 0.0
O52 O 0.52736 0.27045 0.11426 0.0
C53 C 0.46158 0.21227 0.15282 0.0
O54 O 0.50505 0.26363 0.13889 0.0
O55 O 0.47679 0.22329 0.15901 0.0
C56 C 0.96901 0.73453 0.08652 0.0
O57 O 0.97567 0.74991 0.07697 0.0
Cd58 Cd 0.00385 0.77126 0.08806 0.0
O59 O 0.97745 0.72943 0.10316 0.0
Cd60 Cd 0.00653 0.74092 0.12563 0.0
C61 C 0.98505 0.7868 0.13474 0.0
O62 O 0.02978 0.74803 0.09815 0.0
O63 O 0.04043 0.75915 0.12744 0.0
O64 O 0.01311 0.70525 0.13158 0.0
C65 C 0.044 0.75666 0.10859 0.0
O66 O 0.99016 0.79133 0.11666 0.0
C67 C 0.01323 0.707 0.15087 0.0
O68 O 0.98826 0.7691 0.14146 0.0
O69 O 0.01027 0.72468 0.1585 0.0
C70 C 0.46381 0.72996 0.40425 0.0
O71 O 0.48023 0.72636 0.41409 0.0
Cd72 Cd 0.51414 0.73492 0.40218 0.0
O73 O 0.46466 0.73887 0.38724 0.0
Cd74 Cd 0.49059 0.75377 0.36396 0.0
C75 C 0.51214 0.70775 0.3566 0.0
O76 O 0.51193 0.76906 0.39079 0.0
O77 O 0.52496 0.76968 0.36062 0.0
O78 O 0.46456 0.77935 0.35917 0.0
C79 C 0.52642 0.77493 0.37926 0.0
O80 O 0.51986 0.71046 0.37433 0.0
C81 C 0.4672 0.78079 0.34012 0.0
O82 O 0.4998 0.72063 0.34928 0.0
O83 O 0.48035 0.76905 0.33186 0.0
C84 C 0.46864 0.23329 0.59035 0.0
O85 O 0.47538 0.2485 0.58058 0.0
Cd86 Cd 0.50429 0.26912 0.59113 0.0
O87 O 0.47731 0.22816 0.60686 0.0
Cd88 Cd 0.50695 0.23912 0.62891 0.0
C89 C 0.48664 0.28546 0.63804 0.0
O90 O 0.52961 0.24486 0.60046 0.0
O91 O 0.54178 0.25544 0.62934 0.0
O92 O 0.50818 0.2029 0.63561 0.0
C93 C 0.54456 0.25284 0.61038 0.0
O94 O 0.49161 0.28974 0.61986 0.0
C95 C 0.51248 0.20518 0.65439 0.0
O96 O 0.4895 0.26773 0.64484 0.0
O97 O 0.51439 0.22333 0.66138 0.0
C98 C 0.96051 0.2328 0.90439 0.0
O99 O 0.97695 0.22925 0.91421 0.0
Cd100 Cd 0.01092 0.23805 0.90228 0.0
O101 O 0.96135 0.2417 0.88738 0.0
Cd102 Cd 0.98717 0.2566 0.86411 0.0
C103 C 0.00979 0.2111 0.85664 0.0
O104 O 0.00913 0.27215 0.89052 0.0
O105 O 0.02125 0.27255 0.85996 0.0
O106 O 0.96127 0.28225 0.85911 0.0
C107 C 0.02335 0.27781 0.87854 0.0
O108 O 0.01749 0.21388 0.87437 0.0
C109 C 0.96341 0.28298 0.83994 0.0
O110 O -0.003 0.22364 0.84948 0.0
O111 O 0.97631 0.27091 0.83177 0.0
C112 C 0.39604 0.96553 0.25403 0.0
O113 O 0.40756 0.97532 0.24189 0.0
Cd114 Cd 0.39622 0.00579 0.22601 0.0
O115 O 0.37828 0.97217 0.25888 0.0
Cd116 Cd 0.35559 0.00122 0.2526 0.0
C117 C 0.35193 0.98637 0.20325 0.0
O118 O 0.38189 0.02826 0.25162 0.0
O119 O 0.35157 0.03566 0.24038 0.0
O120 O 0.3479 0.00198 0.28864 0.0
C121 C 0.36977 0.04162 0.24505 0.0
O122 O 0.37033 -0.00666 0.20134 0.0
C123 C 0.32836 0.00135 0.28664 0.0
O124 O 0.34306 0.98644 0.22055 0.0
O125 O 0.32129 0.00034 0.26857 0.0
C126 C 0.21812 0.16028 0.4965 0.0
O127 O 0.22854 0.16942 0.51048 0.0
Cd128 Cd 0.25712 0.15429 0.52712 0.0
O129 O 0.22288 0.14238 0.49033 0.0
Cd130 Cd 0.24926 0.11632 0.4966 0.0
C131 C 0.23305 0.11124 0.54503 0.0
O132 O 0.27747 0.14048 0.4999 0.0
O133 O 0.28477 0.11029 0.5094 0.0
O134 O 0.24937 0.10933 0.46016 0.0
C135 C 0.29099 0.12834 0.50599 0.0
O136 O 0.24226 0.12819 0.54912 0.0
C137 C 0.24735 0.09011 0.46137 0.0
O138 O 0.23215 0.10411 0.52686 0.0
O139 O 0.24598 0.08296 0.47913 0.0
C140 C 0.07298 0.02731 0.75312 0.0
O141 O 0.06294 0.01875 0.73852 0.0
Cd142 Cd 0.07506 0.98922 0.71999 0.0
O143 O 0.0902 0.02024 0.75889 0.0
Cd144 Cd 0.11384 0.99228 0.7505 0.0
C145 C 0.1208 0.00952 0.70279 0.0
O146 O 0.0875 0.96586 0.74453 0.0
O147 O 0.11855 0.95831 0.73547 0.0
O148 O 0.12151 0.98905 0.78653 0.0
C149 C 0.09984 0.95262 0.73754 0.0
O150 O 0.10299 0.00202 0.69835 0.0
C151 C 0.14102 0.9906 0.78455 0.0
O152 O 0.12772 0.00922 0.72092 0.0
O153 O 0.14789 -0.00682 0.76668 0.0
C154 C 0.27142 0.83438 0.98155 0.0
O155 O 0.26125 0.82474 -0.00511 0.0
Cd156 Cd 0.23211 0.83788 0.01273 0.0
O157 O 0.26592 0.85205 0.97621 0.0
Cd158 Cd 0.23809 0.8767 0.9838 0.0
C159 C 0.25481 0.88211 0.03238 0.0
O160 O 0.2103 0.8521 0.98765 0.0
O161 O 0.20369 0.88241 -0.00129 0.0
O162 O 0.2353 0.88365 0.94781 0.0
C163 C 0.19734 0.86423 -0.00457 0.0
O164 O 0.24692 0.86448 0.03536 0.0
C165 C 0.23709 0.9029 0.9499 0.0
O166 O 0.2547 0.88978 0.01476 0.0
O167 O 0.23978 0.91004 0.96788 0.0
C168 C 0.27376 0.3355 0.00879 0.0
O169 O 0.25726 0.3251 0.01148 0.0
Cd170 Cd 0.22342 0.33534 0.00114 0.0
O171 O 0.2732 0.35276 0.00033 0.0
Cd172 Cd 0.24701 0.37534 0.98598 0.0
C173 C 0.22015 0.37939 0.02983 0.0
O174 O 0.22709 0.3487 0.96781 0.0
O175 O 0.21378 0.37861 0.96883 0.0
O176 O 0.27312 0.38506 0.96134 0.0
C177 C 0.2128 0.36031 0.96223 0.0
O178 O 0.21282 0.36163 0.0256 0.0
C179 C 0.26996 0.40409 0.96296 0.0
O180 O 0.23423 0.38738 0.01891 0.0
O181 O 0.25654 0.40984 0.97587 0.0
C182 C 0.76633 0.15588 0.97953 0.0
O183 O 0.7491 0.16402 0.97569 0.0
Cd184 Cd 0.71636 0.15097 0.98768 0.0
O185 O 0.76709 0.13979 0.98998 0.0
Cd186 Cd 0.74405 0.11568 0.00756 0.0
C187 C 0.71651 0.10344 0.9648 0.0
O188 O 0.72249 0.14213 0.02225 0.0
O189 O 0.71334 0.11124 0.0289 0.0
O190 O 0.77371 0.11194 0.02993 0.0
C191 C 0.71002 0.13014 0.03106 0.0
O192 O 0.70826 0.12089 0.96643 0.0
C193 C 0.77169 0.09271 0.03117 0.0
O194 O 0.73079 0.09833 0.97692 0.0
O195 O 0.75698 0.08416 0.02114 0.0
C196 C 0.15512 0.49458 0.28166 0.0
O197 O 0.1646 0.47956 0.27375 0.0
Cd198 Cd 0.15361 0.46309 0.24227 0.0
O199 O 0.13936 0.50178 0.27289 0.0
Cd200 Cd 0.11816 0.49625 0.24217 0.0
C201 C 0.10437 0.44863 0.25574 0.0
O202 O 0.14628 0.48932 0.21859 0.0
O203 O 0.11542 0.4827 0.2074 0.0
O204 O 0.11494 0.53295 0.23949 0.0
C205 C 0.13468 0.48371 0.20385 0.0
O206 O 0.12238 0.44316 0.25023 0.0
C207 C 0.09528 0.5327 0.23917 0.0
O208 O 0.09938 0.46731 0.25578 0.0
O209 O 0.08625 0.51541 0.2404 0.0
C210 C 0.77543 0.83847 0.51144 0.0
O211 O 0.75902 0.82886 0.51632 0.0
Cd212 Cd 0.72486 0.84008 0.50916 0.0
O213 O 0.77451 0.85526 0.50211 0.0
Cd214 Cd 0.74758 0.87783 0.48868 0.0
C215 C 0.72626 0.88609 0.53502 0.0
O216 O 0.72586 0.85036 0.47442 0.0
O217 O 0.71316 0.88051 0.47361 0.0
O218 O 0.77174 0.88509 0.46135 0.0
C219 C 0.7115 0.86177 0.46863 0.0
O220 O 0.71881 0.86801 0.53351 0.0
C221 C 0.76916 0.90424 0.46195 0.0
O222 O 0.73814 0.89309 0.52133 0.0
O223 O 0.75693 0.91119 0.47543 0.0
C224 C 0.83917 -0.00057 0.28148 0.0
O225 O 0.83052 0.01432 0.27313 0.0
Cd226 Cd 0.84416 0.02837 0.24222 0.0
O227 O 0.85484 0.99118 0.27325 0.0
Cd228 Cd 0.87688 -0.006 0.24311 0.0
C229 C 0.89323 0.04058 0.25882 0.0
O230 O 0.85082 0.00154 0.21761 0.0
O231 O 0.88273 0.00749 0.20946 0.0
O232 O 0.87573 0.95714 0.23972 0.0
C233 C 0.8639 0.0063 0.20405 0.0
O234 O 0.8759 0.04677 0.25234 0.0
C235 C 0.8952 0.95503 0.23904 0.0
O236 O 0.89723 0.02164 0.25876 0.0
O237 O 0.90631 0.97117 0.24078 0.0
C238 C 0.27019 0.65291 0.48024 0.0
O239 O 0.25313 0.66171 0.4773 0.0
Cd240 Cd 0.22058 0.64871 0.48932 0.0
O241 O 0.27075 0.63628 0.48985 0.0
Cd242 Cd 0.24729 0.61205 0.50694 0.0
C243 C 0.21996 0.6024 0.46375 0.0
O244 O 0.22727 0.6386 0.52345 0.0
O245 O 0.21566 0.60789 0.52696 0.0
O246 O 0.277 0.60691 0.52885 0.0
C247 C 0.21404 0.62671 0.53131 0.0
O248 O 0.21194 0.61986 0.46645 0.0
C249 C 0.27419 0.58777 0.53008 0.0
O250 O 0.23413 0.59638 0.47553 0.0
O251 O 0.25905 0.57984 0.52021 0.0
C252 C 0.33821 0.49808 0.78308 0.0
O253 O 0.32921 0.51241 0.77413 0.0
Cd254 Cd 0.34261 0.52563 0.74275 0.0
O255 O 0.354 0.48979 0.77513 0.0
Cd256 Cd 0.37583 0.49177 0.74477 0.0
C257 C 0.39139 0.53892 0.75941 0.0
O258 O 0.34983 0.4983 0.71887 0.0
O259 O 0.38173 0.50449 0.71087 0.0
O260 O 0.37541 0.45485 0.74226 0.0
C261 C 0.36297 0.5029 0.70531 0.0
O262 O 0.37402 0.5447 0.75265 0.0
C263 C 0.39493 0.45312 0.74168 0.0
O264 O 0.39568 0.52006 0.7598 0.0
O265 O 0.40571 0.4695 0.74314 0.0
C266 C 0.65309 0.99168 0.78591 0.0
O267 O 0.66365 0.97766 0.77749 0.0
Cd268 Cd 0.6572 0.96414 0.74361 0.0
O269 O 0.63793 -0.00058 0.77659 0.0
Cd270 Cd 0.6197 -0.0042 0.74381 0.0
C271 C 0.60801 0.94577 0.75037 0.0
O272 O 0.65094 -0.00663 0.72348 0.0
O273 O 0.62233 0.98879 0.70706 0.0
O274 O 0.61236 0.03216 0.74664 0.0
C275 C 0.64191 0.99015 0.70658 0.0
O276 O 0.62668 0.94174 0.74584 0.0
C277 C 0.59327 0.02996 0.74228 0.0
O278 O 0.60206 0.96411 0.75217 0.0
O279 O 0.58653 0.01186 0.73908 0.0
C280 C 0.71506 0.65923 -0.00547 0.0
O281 O 0.72373 0.66862 0.00947 0.0
Cd282 Cd 0.75271 0.6556 0.0274 0.0
O283 O 0.72113 0.64167 0.98864 0.0
Cd284 Cd 0.74729 0.61642 -0.00201 0.0
C285 C 0.72958 0.6128 0.04619 0.0
O286 O 0.77449 0.64195 0.00108 0.0
O287 O 0.78273 0.61215 0.01108 0.0
O288 O 0.74626 0.60658 0.96202 0.0
C289 C 0.78835 0.63031 0.00744 0.0
O290 O 0.73848 0.62993 0.05014 0.0
C291 C 0.74698 0.58753 0.96491 0.0
O292 O 0.72921 0.60532 0.02815 0.0
O293 O 0.74761 0.58189 0.98324 0.0
C294 C 0.89168 0.46577 0.75112 0.0
O295 O 0.90302 0.47496 0.73835 0.0
Cd296 Cd 0.89398 0.50728 0.72449 0.0
O297 O 0.87491 0.47361 0.75741 0.0
Cd298 Cd 0.85368 0.50403 0.75322 0.0
C299 C 0.84759 0.49231 0.70305 0.0
O300 O 0.88263 0.52816 0.75262 0.0
O301 O 0.85278 0.54049 0.746 0.0
O302 O 0.84554 0.49911 0.78888 0.0
C303 C 0.87203 0.54361 0.74851 0.0
O304 O 0.86608 0.49878 0.70047 0.0
C305 C 0.82642 0.50285 0.78712 0.0
O306 O 0.83978 0.49144 0.72079 0.0
O307 O 0.81988 0.50693 0.76946 0.0
C308 C 0.77192 0.33473 0.48418 0.0
O309 O 0.76236 0.32566 0.49832 0.0
Cd310 Cd 0.73245 0.33815 0.51546 0.0
O311 O 0.76581 0.3519 0.478 0.0
Cd312 Cd 0.73761 0.37593 0.48617 0.0
C313 C 0.75343 0.38275 0.53487 0.0
O314 O 0.71047 0.3503 0.48932 0.0
O315 O 0.70274 0.38016 0.50068 0.0
O316 O 0.73661 0.38503 0.45036 0.0
C317 C 0.69694 0.36191 0.49688 0.0
O318 O 0.74483 0.3656 0.53854 0.0
C319 C 0.73602 0.40414 0.45396 0.0
O320 O 0.7545 0.38921 0.51679 0.0
O321 O 0.73665 0.41004 0.47249 0.0
C322 C 0.57266 0.5227 0.25451 0.0
O323 O 0.56302 0.51377 0.23988 0.0
Cd324 Cd 0.57666 0.48481 0.22159 0.0
O325 O 0.59025 0.51646 0.26021 0.0
Cd326 Cd 0.61542 0.48982 0.25169 0.0
C327 C 0.62116 0.50742 0.20412 0.0
O328 O 0.58992 0.46235 0.24664 0.0
O329 O 0.62116 0.45566 0.2376 0.0
O330 O 0.62351 0.49113 0.28794 0.0
C331 C 0.6027 0.44937 0.23999 0.0
O332 O 0.6038 0.49888 0.19978 0.0
C333 C 0.64294 0.48983 0.28553 0.0
O334 O 0.62819 0.5076 0.22223 0.0
O335 O 0.64958 0.48878 0.26737 0.0
C336 C 0.07174 0.43896 0.27385 0.0
C337 C 0.08921 0.43313 0.26253 0.0
C338 C 0.05802 0.42422 0.28125 0.0
C339 C 0.04039 0.37096 0.27492 0.0
H340 H 0.03257 0.37313 0.33342 0.0
C341 C 0.01891 0.30028 0.32061 0.0
C342 C 0.0084 0.30261 0.33917 0.0
C343 C 0.02418 0.31731 0.30925 0.0
C344 C 0.03406 0.37247 0.31701 0.0
H345 H 0.10552 0.40737 0.24937 0.0
H346 H 0.08139 0.38165 0.26215 0.0
H347 H 0.05026 0.40121 0.31689 0.0
H348 H -0.00626 0.32431 0.35969 0.0
H349 H 0.00225 0.35401 0.33949 0.0
H350 H 0.02431 0.34217 0.27498 0.0
C351 C 0.07839 0.39762 0.26531 0.0
C352 C 0.04431 0.38856 0.30757 0.0
C353 C 0.09228 0.41232 0.25816 0.0
C354 C 0.00209 0.32212 0.34554 0.0
C355 C 0.00709 0.33913 0.33402 0.0
C356 C 0.02985 0.35497 0.28432 0.0
C357 C 0.06134 0.40342 0.27718 0.0
C358 C 0.04804 0.38769 0.28654 0.0
C359 C 0.01879 0.33701 0.31607 0.0
C360 C 0.02708 0.35525 0.30557 0.0
H361 H 0.06895 0.45488 0.27746 0.0
H362 H 0.04494 0.42904 0.29034 0.0
H363 H 0.0429 0.37009 0.25862 0.0
H364 H 0.024 0.28542 0.31533 0.0
H365 H 0.03343 0.31504 0.29568 0.0
C366 C 0.9297 0.75938 0.57683 0.0
C367 C 0.94903 0.7655 0.56908 0.0
C368 C 0.91146 0.76671 0.56857 0.0
C369 C 0.89091 0.80987 0.5418 0.0
H370 H 0.84416 0.77337 0.53057 0.0
C371 C 0.81411 0.83836 0.5085 0.0
C372 C 0.79578 0.83 0.51656 0.0
C373 C 0.83328 0.83016 0.51327 0.0
C374 C 0.857 0.7838 0.53382 0.0
H375 H 0.96439 0.78405 0.5465 0.0
H376 H 0.93239 0.79705 0.53222 0.0
H377 H 0.87687 0.75948 0.54186 0.0
H378 H 0.78322 0.80663 0.53612 0.0
H379 H 0.81659 0.79272 0.54483 0.0
H380 H 0.87093 0.83427 0.5344 0.0
C381 C 0.93145 0.78654 0.54468 0.0
C382 C 0.87573 0.77582 0.5402 0.0
C383 C 0.94973 0.77903 0.55279 0.0
C384 C 0.79703 0.81335 0.52954 0.0
C385 C 0.81618 0.80527 0.53442 0.0
C386 C 0.87211 0.81789 0.53558 0.0
C387 C 0.91217 0.78046 0.55253 0.0
C388 C 0.89278 0.7888 0.54446 0.0
C389 C 0.83453 0.81353 0.52631 0.0
C390 C 0.85486 0.80496 0.53176 0.0
H391 H 0.92862 0.74894 0.58933 0.0
H392 H 0.89679 0.76194 0.57504 0.0
H393 H 0.90378 0.82022 0.54518 0.0
H394 H 0.81365 0.85112 0.49836 0.0
H395 H 0.84709 0.83673 0.50657 0.0
C396 C 0.40379 0.57506 0.76387 0.0
C397 C 0.40624 0.55428 0.76784 0.0
C398 C 0.4168 0.58977 0.77308 0.0
C399 C 0.44629 0.59894 0.81926 0.0
H400 H 0.46896 0.64541 0.79086 0.0
C401 C 0.4896 0.66454 0.86215 0.0
C402 C 0.48499 0.68437 0.85611 0.0
C403 C 0.48309 0.6476 0.85035 0.0
C404 C 0.46261 0.6326 0.79903 0.0
H405 H 0.42463 0.53256 0.78411 0.0
H406 H 0.44718 0.55843 0.80049 0.0
H407 H 0.45206 0.61753 0.77153 0.0
H408 H 0.47001 0.70199 0.83293 0.0
H409 H 0.45813 0.67253 0.81276 0.0
H410 H 0.45586 0.6143 0.84682 0.0
C411 C 0.4352 0.56323 0.79019 0.0
C412 C 0.45305 0.61663 0.78795 0.0
C413 C 0.42235 0.54846 0.78076 0.0
C414 C 0.4739 0.68692 0.83797 0.0
C415 C 0.46723 0.67 0.82629 0.0
C416 C 0.45565 0.61501 0.83037 0.0
C417 C 0.43236 0.58401 0.78661 0.0
C418 C 0.44451 0.59982 0.798 0.0
C419 C 0.47168 0.65014 0.83237 0.0
C420 C 0.46358 0.63221 0.82042 0.0
H421 H 0.39158 0.58 0.75391 0.0
H422 H 0.41417 0.60572 0.77022 0.0
H423 H 0.4396 0.58624 0.82738 0.0
H424 H 0.49828 0.66208 0.87596 0.0
H425 H 0.48702 0.63253 0.85532 0.0
C426 C 0.54428 0.19937 0.0815 0.0
C427 C 0.53742 0.19557 0.10132 0.0
C428 C 0.56248 0.19072 0.07425 0.0
C429 C 0.61068 0.16716 0.09274 0.0
H430 H 0.61825 0.15514 0.03516 0.0
C431 C 0.68047 0.12539 0.05497 0.0
C432 C 0.69104 0.13751 0.04088 0.0
C433 C 0.66173 0.1318 0.06327 0.0
C434 C 0.61625 0.15846 0.05127 0.0
H435 H 0.54351 0.17906 0.12879 0.0
H436 H 0.57475 0.16305 0.1158 0.0
H437 H 0.5845 0.16592 0.04751 0.0
H438 H 0.69051 0.1658 0.02444 0.0
H439 H 0.65731 0.17667 0.03854 0.0
H440 H 0.64246 0.15892 0.09635 0.0
C441 C 0.5666 0.17334 0.10608 0.0
C442 C 0.59701 0.16477 0.05837 0.0
C443 C 0.5486 0.18234 0.11349 0.0
C444 C 0.68271 0.15623 0.03537 0.0
C445 C 0.66375 0.1624 0.04331 0.0
C446 C 0.6298 0.16042 0.08567 0.0
C447 C 0.57401 0.17773 0.0865 0.0
C448 C 0.59405 0.16953 0.07916 0.0
C449 C 0.65312 0.15017 0.0572 0.0
C450 C 0.63275 0.15634 0.06487 0.0
H451 H 0.53603 0.20968 0.07187 0.0
H452 H 0.56783 0.19482 0.05926 0.0
H453 H 0.60918 0.17103 0.10878 0.0
H454 H 0.68662 0.11091 0.05947 0.0
H455 H 0.65367 0.12219 0.07398 0.0
C456 C 0.0618 0.55094 0.23586 0.0
C457 C 0.08354 0.55153 0.23642 0.0
C458 C 0.0508 0.56841 0.23132 0.0
C459 C 0.03432 0.60171 0.20495 0.0
H460 H 0.05362 0.65643 0.21976 0.0
C461 C 0.02043 0.67004 0.15466 0.0
C462 C 0.01706 0.68931 0.16372 0.0
C463 C 0.02501 0.65344 0.16661 0.0
C464 C 0.04776 0.64128 0.21574 0.0
H465 H 0.11078 0.57107 0.23359 0.0
H466 H 0.09169 0.60136 0.22527 0.0
H467 H 0.06811 0.62729 0.23678 0.0
H468 H 0.01526 0.70619 0.19246 0.0
H469 H 0.02322 0.67703 0.21341 0.0
H470 H 0.01413 0.61566 0.18378 0.0
C471 C 0.08306 0.58754 0.22863 0.0
C472 C 0.05623 0.62458 0.22533 0.0
C473 C 0.09403 0.57012 0.23323 0.0
C474 C 0.01789 0.69153 0.18504 0.0
C475 C 0.0225 0.67487 0.19703 0.0
C476 C 0.02581 0.6184 0.19542 0.0
C477 C 0.06134 0.58679 0.22719 0.0
C478 C 0.05006 0.60459 0.21958 0.0
C479 C 0.0263 0.65569 0.18791 0.0
C480 C 0.03291 0.63832 0.20024 0.0
H481 H 0.05328 0.53686 0.23844 0.0
H482 H 0.03407 0.56742 0.23061 0.0
H483 H 0.02929 0.58653 0.20006 0.0
H484 H 0.0199 0.66784 0.13827 0.0
H485 H 0.02821 0.63896 0.15907 0.0
C486 C 0.56129 0.79137 0.37468 0.0
C487 C 0.54511 0.78533 0.38759 0.0
C488 C 0.57934 0.8004 0.38276 0.0
C489 C 0.61078 0.82911 0.404 0.0
H490 H 0.6346 0.80435 0.45147 0.0
C491 C 0.67738 0.86633 0.45151 0.0
C492 C 0.69304 0.85337 0.45797 0.0
C493 C 0.65962 0.85826 0.44197 0.0
C494 C 0.62821 0.81133 0.43813 0.0
H495 H 0.53489 0.78444 0.41901 0.0
H496 H 0.56634 0.80025 0.43308 0.0
H497 H 0.60281 0.79 0.43659 0.0
H498 H 0.70262 0.82187 0.45918 0.0
H499 H 0.67161 0.80781 0.4425 0.0
H500 H 0.63634 0.85037 0.4055 0.0
C501 C 0.56518 0.79778 0.41675 0.0
C502 C 0.60991 0.80327 0.42976 0.0
C503 C 0.54714 0.78884 0.40868 0.0
C504 C 0.69076 0.83223 0.45445 0.0
C505 C 0.67299 0.82417 0.44499 0.0
C506 C 0.62906 0.83726 0.41246 0.0
C507 C 0.58153 0.80347 0.4039 0.0
C508 C 0.60099 0.8121 0.41264 0.0
C509 C 0.65718 0.83709 0.4388 0.0
C510 C 0.63794 0.82843 0.4296 0.0
H511 H 0.56014 0.78888 0.35835 0.0
H512 H 0.59177 0.80452 0.37253 0.0
H513 H 0.60416 0.83628 0.39087 0.0
H514 H 0.67873 0.88269 0.45399 0.0
H515 H 0.64759 0.86855 0.43751 0.0
C516 C 0.47545 0.29843 0.67242 0.0
C517 C 0.47725 0.30124 0.65133 0.0
C518 C 0.46641 0.31335 0.6849 0.0
C519 C 0.42985 0.35502 0.68338 0.0
H520 H 0.45721 0.37586 0.73243 0.0
C521 C 0.39194 0.41576 0.73385 0.0
C522 C 0.40449 0.43318 0.73753 0.0
C523 C 0.40061 0.39762 0.72674 0.0
C524 C 0.44938 0.37008 0.71883 0.0
H525 H 0.47101 0.32189 0.62681 0.0
H526 H 0.45504 0.34776 0.64859 0.0
H527 H 0.4729 0.34818 0.71237 0.0
H528 H 0.43611 0.44488 0.7381 0.0
H529 H 0.45126 0.41311 0.72564 0.0
H530 H 0.40659 0.37707 0.68945 0.0
C531 C 0.46062 0.33402 0.65542 0.0
C532 C 0.45827 0.35422 0.70745 0.0
C533 C 0.46986 0.31926 0.64299 0.0
C534 C 0.42604 0.43172 0.7353 0.0
C535 C 0.43473 0.41352 0.72826 0.0
C536 C 0.42087 0.37066 0.69484 0.0
C537 C 0.45877 0.33118 0.67646 0.0
C538 C 0.44874 0.34683 0.68943 0.0
C539 C 0.422 0.39652 0.72328 0.0
C540 C 0.43069 0.37855 0.71251 0.0
H541 H 0.48107 0.28474 0.6793 0.0
H542 H 0.46508 0.31079 0.70108 0.0
H543 H 0.42211 0.34944 0.66964 0.0
H544 H 0.37529 0.41635 0.73559 0.0
H545 H 0.3905 0.38463 0.72329 0.0
C546 C 0.93901 0.2136 0.92944 0.0
C547 C 0.9402 0.22641 0.91263 0.0
C548 C 0.91982 0.20721 0.93692 0.0
C549 C 0.86481 0.20119 0.922 0.0
H550 H 0.8567 0.19547 0.98008 0.0
C551 C 0.78549 0.18075 0.95771 0.0
C552 C 0.7858 0.16516 0.97202 0.0
C553 C 0.80399 0.18931 0.95059 0.0
C554 C 0.8588 0.19692 0.96382 0.0
H555 H 0.92215 0.24288 0.89072 0.0
H556 H 0.88869 0.23209 0.90406 0.0
H557 H 0.88966 0.20873 0.96752 0.0
H558 H 0.80576 0.14647 0.99022 0.0
H559 H 0.83795 0.16149 0.97785 0.0
H560 H 0.83383 0.18946 0.9184 0.0
C561 C 0.90258 0.22661 0.91119 0.0
C562 C 0.87768 0.20444 0.95661 0.0
C563 C 0.92178 0.23288 0.90361 0.0
C564 C 0.80497 0.15843 0.97917 0.0
C565 C 0.82341 0.16712 0.9722 0.0
C566 C 0.84586 0.19382 0.92924 0.0
C567 C 0.90137 0.21361 0.92787 0.0
C568 C 0.88099 0.20646 0.9356 0.0
C569 C 0.82311 0.18259 0.95781 0.0
C570 C 0.84277 0.19142 0.9502 0.0
H571 H 0.95291 0.20825 0.93667 0.0
H572 H 0.91946 0.19692 0.94957 0.0
H573 H 0.86692 0.20226 0.90571 0.0
H574 H 0.77098 0.18626 0.95191 0.0
H575 H 0.80335 0.20131 0.93957 0.0
C576 C 0.251 0.0852 0.42378 0.0
C577 C 0.24781 0.07672 0.44297 0.0
C578 C 0.25366 0.07264 0.40659 0.0
C579 C 0.27227 0.02176 0.39289 0.0
H580 H 0.25851 0.03915 0.33861 0.0
C581 C 0.2931 0.00427 0.30225 0.0
C582 C 0.31467 0.00306 0.30455 0.0
C583 C 0.28053 0.00824 0.31916 0.0
C584 C 0.26214 0.03372 0.35362 0.0
H585 H 0.24369 0.04843 0.45903 0.0
H586 H 0.24808 0.02641 0.42887 0.0
H587 H 0.2427 0.05582 0.36802 0.0
H588 H 0.33985 0.00397 0.32645 0.0
H589 H 0.31815 0.01126 0.35569 0.0
H590 H 0.29188 -0.00019 0.3785 0.0
C591 C 0.24889 0.04279 0.4272 0.0
C592 C 0.25327 0.04349 0.37051 0.0
C593 C 0.2463 0.0554 0.44446 0.0
C594 C 0.32329 0.00487 0.32415 0.0
C595 C 0.31078 0.00887 0.34099 0.0
C596 C 0.28101 0.01189 0.376 0.0
C597 C 0.25308 0.05128 0.40814 0.0
C598 C 0.25893 0.03821 0.39035 0.0
C599 C 0.28931 0.01106 0.33866 0.0
C600 C 0.27674 0.01835 0.35621 0.0
H601 H 0.25221 0.10157 0.42212 0.0
H602 H 0.25718 0.07974 0.39227 0.0
H603 H 0.27703 0.01729 0.40793 0.0
H604 H 0.28599 0.00279 0.28734 0.0
H605 H 0.26401 0.00959 0.3169 0.0
C606 C 0.15085 0.03125 0.69198 0.0
C607 C 0.1335 0.01896 0.68675 0.0
C608 C 0.16255 0.04062 0.67689 0.0
C609 C 0.17593 0.03711 0.62291 0.0
H610 H 0.188 0.09511 0.62873 0.0
C611 C 0.20876 0.0839 0.5569 0.0
C612 C 0.22292 0.09986 0.56153 0.0
C613 C 0.1987 0.07353 0.57244 0.0
C614 C 0.18509 0.07885 0.627 0.0
H615 H 0.11507 0.00654 0.66157 0.0
H616 H 0.13572 0.02278 0.63519 0.0
H617 H 0.16911 0.0777 0.65548 0.0
H618 H 0.23805 0.11711 0.58609 0.0
H619 H 0.22096 0.09863 0.61322 0.0
H620 H 0.19213 0.03809 0.5946 0.0
C621 C 0.14017 0.02515 0.65099 0.0
C622 C 0.1742 0.06892 0.6423 0.0
C623 C 0.12831 0.01597 0.6661 0.0
C624 C 0.22708 0.105 0.58203 0.0
C625 C 0.21719 0.09447 0.59758 0.0
C626 C 0.18703 0.04698 0.6077 0.0
C627 C 0.1573 0.03768 0.65627 0.0
C628 C 0.1694 0.048 0.64032 0.0
C629 C 0.20274 0.07872 0.59298 0.0
C630 C 0.19161 0.06801 0.60949 0.0
H631 H 0.15526 0.03387 0.70776 0.0
H632 H 0.17579 0.0501 0.68132 0.0
H633 H 0.17261 0.0209 0.62116 0.0
H634 H 0.20512 0.07965 0.54125 0.0
H635 H 0.18742 0.06173 0.56831 0.0
C636 C 0.14698 0.98436 0.82142 0.0
C637 C 0.15507 0.98838 0.80208 0.0
C638 C 0.16016 0.98026 0.8376 0.0
C639 C 0.19123 0.97841 0.8718 0.0
H640 H 0.23348 0.93892 0.85884 0.0
C641 C 0.23446 0.93766 0.93516 0.0
C642 C 0.23465 0.91634 0.93237 0.0
C643 C 0.22959 0.95014 0.91893 0.0
C644 C 0.22182 0.95003 0.8627 0.0
H645 H 0.18335 0.99231 0.78474 0.0
H646 H 0.20642 0.9853 0.81312 0.0
H647 H 0.2148 0.95488 0.83142 0.0
H648 H 0.23103 0.89146 0.91021 0.0
H649 H 0.22227 0.91309 0.88211 0.0
H650 H 0.19727 0.97253 0.90308 0.0
C651 C 0.18986 0.98503 0.81568 0.0
C652 C 0.21127 0.95936 0.84698 0.0
C653 C 0.17665 0.98911 0.79946 0.0
C654 C 0.23095 0.90783 0.91286 0.0
C655 C 0.22609 0.92028 0.89668 0.0
C656 C 0.20173 0.96902 0.88752 0.0
C657 C 0.18173 0.98015 0.83483 0.0
C658 C 0.19536 0.97313 0.85137 0.0
C659 C 0.22486 0.94153 0.89963 0.0
C660 C 0.21664 0.9542 0.88314 0.0
H661 H 0.13043 0.98372 0.82394 0.0
H662 H 0.15334 0.97628 0.85205 0.0
H663 H 0.1793 0.98922 0.87567 0.0
H664 H 0.23738 0.94466 0.95001 0.0
H665 H 0.22902 0.96648 0.92162 0.0
C666 C 0.26849 0.88413 0.068 0.0
C667 C 0.26413 0.89381 0.04968 0.0
C668 C 0.27727 0.89513 0.08438 0.0
C669 C 0.30625 0.94297 0.09717 0.0
H670 H 0.29 0.92979 0.15216 0.0
C671 C 0.3196 0.97337 0.18591 0.0
C672 C 0.34098 0.97757 0.18525 0.0
C673 C 0.30943 0.96445 0.16907 0.0
C674 C 0.29453 0.93388 0.13691 0.0
H675 H 0.26534 0.92268 0.03423 0.0
H676 H 0.28016 0.94201 0.06301 0.0
H677 H 0.27328 0.91214 0.12348 0.0
H678 H 0.36845 0.97578 0.16638 0.0
H679 H 0.35088 0.9597 0.1373 0.0
H680 H 0.32705 0.96517 0.1106 0.0
C681 C 0.27725 0.92581 0.06458 0.0
C682 C 0.28516 0.92352 0.12044 0.0
C683 C 0.26866 0.91475 0.0481 0.0
C684 C 0.35194 0.97286 0.16734 0.0
C685 C 0.34182 0.96374 0.1506 0.0
C686 C 0.31549 0.95348 0.11364 0.0
C687 C 0.28169 0.91612 0.08291 0.0
C688 C 0.29106 0.92777 0.10038 0.0
C689 C 0.32046 0.95933 0.15129 0.0
C690 C 0.3099 0.94891 0.13372 0.0
H691 H 0.26533 0.86797 0.06965 0.0
H692 H 0.28086 0.88708 0.09811 0.0
H693 H 0.31134 0.9465 0.08194 0.0
H694 H 0.31069 0.97699 0.19944 0.0
H695 H 0.2929 0.96161 0.17 0.0
C696 C 0.29442 0.31087 0.0286 0.0
C697 C 0.2938 0.32756 0.01563 0.0
C698 C 0.31333 0.30352 0.03529 0.0
C699 C 0.36865 0.31833 0.0412 0.0
H700 H 0.37517 0.26019 0.04791 0.0
C701 C 0.44684 0.28137 0.06054 0.0
C702 C 0.44615 0.26747 0.0765 0.0
C703 C 0.42855 0.28884 0.05243 0.0
C704 C 0.37351 0.27647 0.04619 0.0
H705 H 0.31257 0.34947 -0.00076 0.0
H706 H 0.34558 0.3363 0.01045 0.0
H707 H 0.34273 0.27283 0.03457 0.0
H708 H 0.42575 0.25044 0.09638 0.0
H709 H 0.39388 0.26335 0.08204 0.0
H710 H 0.39964 0.32181 0.0526 0.0
C711 C 0.33144 0.32917 0.01587 0.0
C712 C 0.35492 0.28374 0.03863 0.0
C713 C 0.31251 0.33666 0.00935 0.0
C714 C 0.42682 0.26116 0.08412 0.0
C715 C 0.40856 0.26843 0.07585 0.0
C716 C 0.38733 0.31102 0.04856 0.0
C717 C 0.33208 0.31256 0.02898 0.0
C718 C 0.35217 0.30478 0.03625 0.0
C719 C 0.40926 0.28234 0.05994 0.0
C720 C 0.38984 0.29005 0.05131 0.0
H721 H 0.28027 0.30361 0.03384 0.0
H722 H 0.31321 0.29094 0.04567 0.0
H723 H 0.36699 0.33465 0.03985 0.0
H724 H 0.46149 0.28654 0.05436 0.0
H725 H 0.42946 0.29949 0.04009 0.0
C726 C 0.96768 0.82027 0.1398 0.0
C727 C 0.97526 0.8023 0.14806 0.0
C728 C 0.95833 0.83491 0.15229 0.0
C729 C 0.95642 0.85495 0.20437 0.0
H730 H 0.90502 0.87853 0.18659 0.0
C731 C 0.9258 0.93303 0.23227 0.0
C732 C 0.90431 0.93493 0.23462 0.0
C733 C 0.93407 0.91465 0.22517 0.0
C734 C 0.91922 0.87191 0.19192 0.0
H735 H 0.97918 0.78569 0.17595 0.0
H736 H 0.963 0.81152 0.19784 0.0
H737 H 0.92001 0.85061 0.16677 0.0
H738 H 0.87476 0.9187 0.23275 0.0
H739 H 0.88923 0.88668 0.22033 0.0
H740 H 0.95583 0.87667 0.2293 0.0
C741 C 0.96428 0.81414 0.18167 0.0
C742 C 0.92789 0.85609 0.18046 0.0
C743 C 0.97343 0.79935 0.16912 0.0
C744 C 0.89138 0.91778 0.23092 0.0
C745 C 0.89963 0.89946 0.22375 0.0
C746 C 0.94783 0.87097 0.21576 0.0
C747 C 0.95655 0.83198 0.17333 0.0
C748 C 0.9467 0.84767 0.18641 0.0
C749 C 0.92098 0.89791 0.22023 0.0
C750 C 0.92926 0.87973 0.2095 0.0
H751 H 0.96884 0.82301 0.12364 0.0
H752 H 0.9527 0.84866 0.14553 0.0
H753 H 0.971 0.84874 0.20921 0.0
H754 H 0.93616 0.94597 0.23508 0.0
H755 H 0.95058 0.91392 0.22249 0.0
C756 C 0.18045 0.62132 0.54942 0.0
C757 C 0.19598 0.63467 0.54242 0.0
C758 C 0.16252 0.629 0.55836 0.0
C759 C 0.13007 0.64989 0.58495 0.0
H760 H 0.10498 0.69448 0.55669 0.0
C761 C 0.05964 0.69445 0.61564 0.0
C762 C 0.04452 0.69958 0.60134 0.0
C763 C 0.07804 0.68549 0.60926 0.0
C764 C 0.11173 0.68194 0.56466 0.0
H765 H 0.20539 0.66647 0.54011 0.0
H766 H 0.17414 0.67984 0.55582 0.0
H767 H 0.13783 0.68114 0.54477 0.0
H768 H 0.03644 0.69873 0.56926 0.0
H769 H 0.06852 0.68299 0.55816 0.0
H770 H 0.10369 0.65055 0.60466 0.0
C771 C 0.17569 0.66347 0.55411 0.0
C772 C 0.13066 0.67448 0.558 0.0
C773 C 0.19361 0.6558 0.54522 0.0
C774 C 0.04786 0.69506 0.58062 0.0
C775 C 0.06626 0.68615 0.57425 0.0
C776 C 0.11112 0.65743 0.59168 0.0
C777 C 0.1598 0.65016 0.56041 0.0
C778 C 0.14001 0.65836 0.56804 0.0
C779 C 0.08166 0.68156 0.58847 0.0
C780 C 0.10173 0.67346 0.58151 0.0
H781 H 0.18189 0.60495 0.54752 0.0
H782 H 0.15047 0.61839 0.56296 0.0
H783 H 0.137 0.63752 0.59304 0.0
H784 H 0.05746 0.69773 0.63173 0.0
H785 H 0.0897 0.68223 0.62054 0.0
C786 C 0.95247 0.69807 0.67897 0.0
C787 C 0.95275 0.69549 0.65766 0.0
C788 C 0.9431 0.68329 0.69109 0.0
C789 C 0.93192 0.62875 0.69023 0.0
H790 H 0.89382 0.63981 0.73455 0.0
C791 C 0.90358 0.56492 0.74167 0.0
C792 C 0.88195 0.56323 0.74326 0.0
C793 C 0.91284 0.5826 0.73416 0.0
C794 C 0.90451 0.63657 0.72225 0.0
H795 H 0.94265 0.67591 0.63231 0.0
H796 H 0.92647 0.65016 0.65345 0.0
H797 H 0.90788 0.66815 0.71476 0.0
H798 H 0.85314 0.57917 0.73948 0.0
H799 H 0.86933 0.61008 0.72635 0.0
H800 H 0.92847 0.59727 0.69739 0.0
C801 C 0.93362 0.6635 0.66077 0.0
C802 C 0.91259 0.65273 0.71103 0.0
C803 C 0.94279 0.6783 0.64868 0.0
C804 C 0.86983 0.58 0.73831 0.0
C805 C 0.8791 0.59774 0.73092 0.0
C806 C 0.92407 0.61268 0.70154 0.0
C807 C 0.93407 0.66564 0.68208 0.0
C808 C 0.92611 0.64889 0.69472 0.0
C809 C 0.90064 0.59897 0.72824 0.0
C810 C 0.91012 0.61638 0.71752 0.0
H811 H 0.95999 0.7112 0.68631 0.0
H812 H 0.94365 0.68526 0.7075 0.0
H813 H 0.94252 0.62542 0.67788 0.0
H814 H 0.91335 0.55229 0.74549 0.0
H815 H 0.92951 0.58326 0.73247 0.0
C816 C 0.19733 0.19151 0.49088 0.0
C817 C 0.20058 0.17064 0.487 0.0
C818 C 0.18107 0.2014 0.48146 0.0
C819 C 0.14528 0.19614 0.43756 0.0
H820 H 0.11352 0.23638 0.46766 0.0
C821 C 0.08056 0.23971 0.39878 0.0
C822 C 0.0621 0.24179 0.40982 0.0
C823 C 0.09851 0.23331 0.40837 0.0
C824 C 0.12218 0.2251 0.45907 0.0
H825 H 0.18909 0.14368 0.47049 0.0
H826 H 0.16045 0.16078 0.45448 0.0
H827 H 0.14223 0.2198 0.48425 0.0
H828 H 0.04806 0.23948 0.43966 0.0
H829 H 0.07923 0.22779 0.45629 0.0
H830 H 0.12472 0.2007 0.4127 0.0
C831 C 0.17075 0.16965 0.4644 0.0
C832 C 0.13879 0.21578 0.46851 0.0
C833 C 0.1871 0.15981 0.47369 0.0
C834 C 0.06209 0.23805 0.43077 0.0
C835 C 0.08 0.23145 0.44033 0.0
C836 C 0.1286 0.20534 0.42819 0.0
C837 C 0.16763 0.19059 0.46807 0.0
C838 C 0.15041 0.20106 0.45791 0.0
C839 C 0.09832 0.22867 0.42916 0.0
C840 C 0.11676 0.21984 0.43886 0.0
H841 H 0.20752 0.20031 0.50098 0.0
H842 H 0.17925 0.21759 0.48441 0.0
H843 H 0.15411 0.18511 0.42884 0.0
H844 H 0.08105 0.2427 0.38265 0.0
H845 H 0.11248 0.23174 0.39942 0.0
C846 C 0.57543 0.42206 0.23556 0.0
C847 C 0.59578 0.4291 0.23218 0.0
C848 C 0.56838 0.40367 0.22662 0.0
C849 C 0.57676 0.37189 0.18169 0.0
H850 H 0.54516 0.33044 0.20985 0.0
C851 C 0.54957 0.29815 0.14021 0.0
C852 C 0.52974 0.29047 0.14481 0.0
C853 C 0.55852 0.31389 0.15208 0.0
C854 C 0.55375 0.34198 0.20171 0.0
H855 H 0.62493 0.42207 0.21746 0.0
H856 H 0.61247 0.3901 0.20164 0.0
H857 H 0.55919 0.36004 0.22893 0.0
H858 H 0.50376 0.29317 0.1655 0.0
H859 H 0.51906 0.32116 0.18579 0.0
H860 H 0.5708 0.35451 0.15438 0.0
C861 C 0.60202 0.39885 0.21116 0.0
C862 C 0.56185 0.35884 0.21267 0.0
C863 C 0.60914 0.41709 0.22028 0.0
C864 C 0.51911 0.29873 0.16163 0.0
C865 C 0.52795 0.31469 0.17334 0.0
C866 C 0.56847 0.35522 0.1707 0.0
C867 C 0.58149 0.39215 0.21399 0.0
C868 C 0.57343 0.37392 0.20273 0.0
C869 C 0.54773 0.32253 0.16864 0.0
C870 C 0.55686 0.34004 0.18055 0.0
H871 H 0.56482 0.43097 0.24473 0.0
H872 H 0.55245 0.39886 0.22893 0.0
H873 H 0.58535 0.3835 0.17362 0.0
H874 H 0.55826 0.29192 0.1275 0.0
H875 H 0.57396 0.31922 0.14827 0.0
C876 C 0.298 0.80714 0.98062 0.0
C877 C 0.2903 0.82529 0.97281 0.0
C878 C 0.31648 0.79914 0.9733 0.0
C879 C 0.35231 0.79944 0.93012 0.0
H880 H 0.39259 0.78323 0.97019 0.0
C881 C 0.43584 0.77836 0.90836 0.0
C882 C 0.4447 0.76197 0.91844 0.0
C883 C 0.41684 0.78606 0.91468 0.0
C884 C 0.38142 0.78742 0.95879 0.0
H885 H 0.29566 0.84894 0.95077 0.0
H886 H 0.32797 0.83483 0.93794 0.0
H887 H 0.35936 0.79631 0.98141 0.0
H888 H 0.44045 0.74069 0.94294 0.0
H889 H 0.40715 0.75385 0.9537 0.0
H890 H 0.37426 0.79033 0.90747 0.0
C891 C 0.31964 0.82685 0.94972 0.0
C892 C 0.36241 0.79494 0.96523 0.0
C893 C 0.3012 0.83496 0.95714 0.0
C894 C 0.43413 0.75342 0.93494 0.0
C895 C 0.41507 0.76104 0.94117 0.0
C896 C 0.37129 0.79177 0.92366 0.0
C897 C 0.32758 0.80902 0.95794 0.0
C898 C 0.34767 0.80101 0.95097 0.0
C899 C 0.40623 0.77747 0.93115 0.0
C900 C 0.38606 0.78566 0.93793 0.0
H901 H 0.28997 0.79926 -0.00734 0.0
H902 H 0.32212 0.78522 0.97971 0.0
H903 H 0.34112 0.80383 0.91881 0.0
H904 H 0.44363 0.78535 0.89564 0.0
H905 H 0.4106 0.79892 0.90682 0.0
C906 C 0.88687 0.43693 0.77494 0.0
C907 C 0.89783 0.44574 0.7588 0.0
C908 C 0.89265 0.41814 0.78243 0.0
C909 C 0.92039 0.37128 0.76969 0.0
H910 H 0.92579 0.3674 0.82824 0.0
C911 C 0.95994 0.30401 0.8089 0.0
C912 C 0.9526 0.2984 0.82812 0.0
C913 C 0.95159 0.32068 0.79911 0.0
C914 C 0.92399 0.36804 0.81188 0.0
H915 H 0.92323 0.44153 0.73762 0.0
H916 H 0.93329 0.40857 0.75077 0.0
H917 H 0.91473 0.39916 0.81377 0.0
H918 H 0.92982 0.30478 0.8515 0.0
H919 H 0.91476 0.33335 0.83414 0.0
H920 H 0.92956 0.34006 0.76782 0.0
C921 C 0.9202 0.41627 0.75753 0.0
C922 C 0.91775 0.3863 0.8036 0.0
C923 C 0.91453 0.43519 0.75012 0.0
C924 C 0.93596 0.30894 0.8368 0.0
C925 C 0.92744 0.32541 0.82691 0.0
C926 C 0.92649 0.35289 0.778 0.0
C927 C 0.90941 0.40767 0.77386 0.0
C928 C 0.91591 0.38813 0.78244 0.0
C929 C 0.93559 0.3319 0.80827 0.0
C930 C 0.92838 0.35107 0.79921 0.0
H931 H 0.8739 0.44461 0.78195 0.0
H932 H 0.88394 0.41175 0.7949 0.0
H933 H 0.91892 0.37226 0.75331 0.0
H934 H 0.97281 0.29617 0.80189 0.0
H935 H 0.95834 0.32533 0.78483 0.0
C936 C 0.31845 0.1553 0.50602 0.0
C937 C 0.31147 0.13619 0.51261 0.0
C938 C 0.33642 0.16428 0.51412 0.0
C939 C 0.38365 0.15505 0.54408 0.0
H940 H 0.37905 0.21284 0.55703 0.0
C941 C 0.44505 0.20248 0.5906 0.0
C942 C 0.45077 0.22129 0.58222 0.0
C943 C 0.42836 0.19106 0.58252 0.0
C944 C 0.38061 0.19674 0.55339 0.0
H945 H 0.31832 0.11095 0.53211 0.0
H946 H 0.34972 0.12689 0.54665 0.0
H947 H 0.34988 0.19435 0.54156 0.0
H948 H 0.44342 0.24289 0.55884 0.0
H949 H 0.41432 0.22306 0.54492 0.0
H950 H 0.41446 0.1576 0.5562 0.0
C951 C 0.34135 0.13483 0.53504 0.0
C952 C 0.36395 0.18615 0.54445 0.0
C953 C 0.32338 0.12572 0.52675 0.0
C954 C 0.43942 0.22848 0.56568 0.0
C955 C 0.42269 0.21718 0.55775 0.0
C956 C 0.40035 0.16567 0.55317 0.0
C957 C 0.34772 0.15445 0.52919 0.0
C958 C 0.36537 0.16527 0.53939 0.0
C959 C 0.41698 0.19838 0.56608 0.0
C960 C 0.39904 0.18668 0.55763 0.0
H961 H 0.30971 0.16359 0.49492 0.0
H962 H 0.34123 0.17916 0.50887 0.0
H963 H 0.38523 0.13898 0.5403 0.0
H964 H 0.45354 0.19649 0.6033 0.0
H965 H 0.42417 0.17667 0.58929 0.0
C966 C 0.50658 0.68374 0.32661 0.0
C967 C 0.51706 0.68893 0.34484 0.0
C968 C 0.51062 0.66535 0.31625 0.0
C969 C 0.53234 0.61448 0.32475 0.0
H970 H 0.53835 0.6119 0.26603 0.0
C971 C 0.57272 0.5487 0.28292 0.0
C972 C 0.56374 0.54077 0.26484 0.0
C973 C 0.56485 0.56613 0.29243 0.0
C974 C 0.53641 0.61235 0.28241 0.0
H975 H 0.54044 0.67918 0.36612 0.0
H976 H 0.54767 0.64747 0.34792 0.0
H977 H 0.52894 0.64405 0.28289 0.0
H978 H 0.53935 0.54487 0.24262 0.0
H979 H 0.52568 0.57554 0.2593 0.0
H980 H 0.54031 0.58296 0.32433 0.0
C981 C 0.53599 0.65731 0.34187 0.0
C982 C 0.53103 0.63073 0.29206 0.0
C983 C 0.53194 0.67559 0.35223 0.0
C984 C 0.54659 0.55059 0.25656 0.0
C985 C 0.53883 0.56818 0.26601 0.0
C986 C 0.5378 0.59618 0.31513 0.0
C987 C 0.52522 0.65185 0.32391 0.0
C988 C 0.52932 0.63207 0.31338 0.0
C989 C 0.54792 0.57611 0.28403 0.0
C990 C 0.54025 0.59503 0.29391 0.0
H991 H 0.495 0.69368 0.32054 0.0
H992 H 0.502 0.66151 0.30249 0.0
H993 H 0.53066 0.61489 0.34116 0.0
H994 H 0.58593 0.54151 0.28971 0.0
H995 H 0.57233 0.57205 0.30617 0.0
C996 C 0.06666 0.76138 0.07852 0.0
C997 C 0.06115 0.76735 0.0984 0.0
C998 C 0.08098 0.77289 0.06764 0.0
C999 C 0.1211 0.81389 0.0728 0.0
H1000 H 0.11014 0.81916 0.01508 0.0
C1001 C 0.16953 0.86675 0.02169 0.0
C1002 C 0.17839 0.85627 0.00505 0.0
C1003 C 0.15361 0.85762 0.03279 0.0
C1004 C 0.11332 0.81783 0.03119 0.0
H1005 H 0.06665 0.78964 0.12279 0.0
H1006 H 0.09131 0.81017 0.10357 0.0
H1007 H 0.0863 0.79935 0.03583 0.0
H1008 H 0.17684 0.8287 0.9862 0.0
H1009 H 0.14863 0.81297 0.0053 0.0
H1010 H 0.14804 0.83269 0.06801 0.0
C1011 C 0.08489 0.79638 0.09649 0.0
C1012 C 0.09982 0.80635 0.04306 0.0
C1013 C 0.07075 0.78464 0.10751 0.0
C1014 C 0.17029 0.83707 -0.00101 0.0
C1015 C 0.15414 0.82811 0.00986 0.0
C1016 C 0.13446 0.82562 0.06095 0.0
C1017 C 0.08984 0.79084 0.07626 0.0
C1018 C 0.10375 0.80391 0.06394 0.0
C1019 C 0.14606 0.83808 0.02716 0.0
C1020 C 0.13083 0.82741 0.04 0.0
H1021 H 0.0596 0.74798 0.07123 0.0
H1022 H 0.08489 0.76782 0.05233 0.0
H1023 H 0.12473 0.81218 0.08876 0.0
H1024 H 0.17555 0.88156 0.02673 0.0
H1025 H 0.14748 0.86562 0.04602 0.0
C1026 C 0.7248 0.92032 0.55273 0.0
C1027 C 0.7208 0.89916 0.55276 0.0
C1028 C 0.71892 0.93271 0.56926 0.0
C1029 C 0.70604 0.93141 0.62356 0.0
H1030 H 0.67315 0.97901 0.61321 0.0
C1031 C 0.67501 0.9817 0.68898 0.0
C1032 C 0.65356 0.98475 0.68801 0.0
C1033 C 0.68564 0.97431 0.67194 0.0
C1034 C 0.68242 0.96583 0.61629 0.0
H1035 H 0.70792 0.87436 0.57032 0.0
H1036 H 0.69785 0.89598 0.59918 0.0
H1037 H 0.68755 0.95937 0.58459 0.0
H1038 H 0.62665 0.98357 0.66823 0.0
H1039 H 0.64525 0.97066 0.63847 0.0
H1040 H 0.70044 0.93744 0.65519 0.0
C1041 C 0.70553 0.90295 0.58638 0.0
C1042 C 0.69077 0.9547 0.59997 0.0
C1043 C 0.71117 0.89061 0.5698 0.0
C1044 C 0.64315 0.98127 0.66944 0.0
C1045 C 0.65382 0.97401 0.65237 0.0
C1046 C 0.69788 0.94263 0.63987 0.0
C1047 C 0.70922 0.92412 0.58621 0.0
C1048 C 0.70227 0.93715 0.60346 0.0
C1049 C 0.67506 0.97 0.65361 0.0
C1050 C 0.68565 0.9597 0.63638 0.0
H1051 H 0.73217 0.92736 0.53981 0.0
H1052 H 0.72201 0.94898 0.56882 0.0
H1053 H 0.71501 0.91803 0.62665 0.0
H1054 H 0.68346 0.98434 0.70308 0.0
H1055 H 0.70207 0.97153 0.67323 0.0
C1056 C 0.81681 0.00261 0.31261 0.0
C1057 C 0.8317 0.99192 0.30124 0.0
C1058 C 0.81072 -0.00415 0.33177 0.0
C1059 C 0.82796 0.96278 0.37329 0.0
H1060 H 0.76995 0.96147 0.38824 0.0
C1061 C 0.79406 0.90992 0.43358 0.0
C1062 C 0.77883 0.91758 0.44677 0.0
C1063 C 0.80176 0.92179 0.41787 0.0
C1064 C 0.78624 0.96206 0.38442 0.0
H1065 H 0.8515 0.9655 0.30085 0.0
H1066 H 0.8406 0.95356 0.33387 0.0
H1067 H 0.78048 0.97683 0.35632 0.0
H1068 H 0.76018 0.94388 0.45431 0.0
H1069 H 0.77357 0.9646 0.42664 0.0
H1070 H 0.83359 0.94733 0.40104 0.0
C1071 C 0.83399 0.96743 0.3283 0.0
C1072 C 0.79228 0.97086 0.36615 0.0
C1073 C 0.8401 0.9742 0.30926 0.0
C1074 C 0.77192 0.93758 0.44437 0.0
C1075 C 0.77948 0.9494 0.4285 0.0
C1076 C 0.82191 0.95389 0.39146 0.0
C1077 C 0.8194 0.97827 0.33988 0.0
C1078 C 0.81315 0.97089 0.36018 0.0
C1079 C 0.79426 0.94149 0.41494 0.0
C1080 C 0.80096 0.95308 0.39699 0.0
H1081 H 0.8101 0.01636 0.30688 0.0
H1082 H 0.79951 0.00458 0.34038 0.0
H1083 H 0.84423 0.963 0.36935 0.0
H1084 H 0.79969 0.89456 0.43508 0.0
H1085 H 0.81301 0.91524 0.40752 0.0
C1086 C 0.80413 0.08917 0.05134 0.0
C1087 C 0.78498 0.08105 0.0447 0.0
C1088 C 0.81579 0.07901 0.06571 0.0
C1089 C 0.81879 0.0301 0.09385 0.0
H1090 H 0.84494 0.06532 0.13502 0.0
C1091 C 0.83741 0.00722 0.17636 0.0
C1092 C 0.85736 0.01228 0.18358 0.0
C1093 C 0.83096 0.01369 0.15731 0.0
C1094 C 0.83792 0.05531 0.12349 0.0
H1095 H 0.76323 0.05571 0.04733 0.0
H1096 H 0.78296 0.03848 0.07308 0.0
H1097 H 0.82948 0.08029 0.10527 0.0
H1098 H 0.88635 0.02773 0.17648 0.0
H1099 H 0.87478 0.03954 0.1434 0.0
H1100 H 0.82628 0.00524 0.11304 0.0
C1101 C 0.78944 0.05232 0.06683 0.0
C1102 C 0.82916 0.06384 0.10633 0.0
C1103 C 0.77801 0.06227 0.05214 0.0
C1104 C 0.87087 0.02362 0.17129 0.0
C1105 C 0.86429 0.03039 0.15242 0.0
C1106 C 0.82723 0.02161 0.11125 0.0
C1107 C 0.80831 0.06076 0.0741 0.0
C1108 C 0.81926 0.05138 0.09138 0.0
C1109 C 0.84425 0.0256 0.14537 0.0
C1110 C 0.83668 0.03419 0.12626 0.0
H1111 H 0.80997 0.10353 0.04563 0.0
H1112 H 0.83049 0.08571 0.07051 0.0
H1113 H 0.81169 0.01998 0.08249 0.0
H1114 H 0.82673 -0.00159 0.1855 0.0
H1115 H 0.81537 0.00997 0.15221 0.0
C1116 C 0.64754 0.01565 0.81546 0.0
C1117 C 0.65868 -0.00043 0.8065 0.0
C1118 C 0.65329 0.02385 0.83445 0.0
C1119 C 0.69822 0.02979 0.86836 0.0
H1120 H 0.65707 0.04906 0.90684 0.0
C1121 C 0.72002 0.07076 0.94456 0.0
C1122 C 0.70942 0.08898 0.94852 0.0
C1123 C 0.71353 0.0574 0.92883 0.0
C1124 C 0.66872 0.04377 0.89621 0.0
H1125 H 0.68428 0.9791 0.81075 0.0
H1126 H 0.69422 -0.00663 0.84409 0.0
H1127 H 0.64608 0.02952 0.87652 0.0
H1128 H 0.68349 0.10726 0.9393 0.0
H1129 H 0.67226 0.08398 0.91191 0.0
H1130 H 0.72082 0.04434 0.88794 0.0
C1131 C 0.68119 -0.00022 0.83623 0.0
C1132 C 0.66245 0.03262 0.87886 0.0
C1133 C 0.67544 0.99156 0.81718 0.0
C1134 C 0.69203 0.09339 0.93664 0.0
C1135 C 0.68548 0.07998 0.92105 0.0
C1136 C 0.7045 0.04087 0.88578 0.0
C1137 C 0.67028 0.01614 0.84498 0.0
C1138 C 0.67709 0.0259 0.86451 0.0
C1139 C 0.69623 0.06192 0.9169 0.0
C1140 C 0.68977 0.04834 0.89963 0.0
H1141 H 0.63456 0.02221 0.80766 0.0
H1142 H 0.64477 0.03666 0.8406 0.0
H1143 H 0.70987 0.02503 0.85749 0.0
H1144 H 0.73346 0.06691 0.95345 0.0
H1145 H 0.72201 0.04352 0.92603 0.0
C1146 C 0.57712 0.72801 0.88973 0.0
C1147 C 0.56313 0.74014 0.90074 0.0
C1148 C 0.5947 0.72062 0.89921 0.0
C1149 C 0.62993 0.72804 0.94241 0.0
H1150 H 0.6365 0.66942 0.93783 0.0
C1151 C 0.68772 0.68563 -0.0076 0.0
C1152 C 0.69804 0.66895 0.98358 0.0
C1153 C 0.67176 0.69493 0.98193 0.0
C1154 C 0.63515 0.68584 0.93901 0.0
H1155 H 0.55704 0.75492 0.92996 0.0
H1156 H 0.58805 0.7422 0.94646 0.0
H1157 H 0.60855 0.6854 0.91956 0.0
H1158 H 0.70001 0.64915 0.95675 0.0
H1159 H 0.67267 0.66573 0.93822 0.0
H1160 H 0.65671 0.72861 0.96158 0.0
C1161 C 0.58528 0.73834 0.93055 0.0
C1162 C 0.61909 0.69496 0.92859 0.0
C1163 C 0.56754 0.74553 0.92113 0.0
C1164 C 0.6922 0.66184 0.96404 0.0
C1165 C 0.67644 0.67131 0.95345 0.0
C1166 C 0.64619 0.71895 0.95265 0.0
C1167 C 0.59874 0.72546 0.91977 0.0
C1168 C 0.61629 0.7161 0.93027 0.0
C1169 C 0.66597 0.68791 0.96229 0.0
C1170 C 0.64893 0.69772 0.95115 0.0
H1171 H 0.57416 0.72364 0.87397 0.0
H1172 H 0.60499 0.71086 0.89055 0.0
H1173 H 0.62812 0.74441 0.94382 0.0
H1174 H 0.69181 0.69138 0.0075 0.0
H1175 H 0.66379 0.70743 0.98936 0.0
C1176 C 0.07536 0.05461 0.78025 0.0
C1177 C 0.06513 0.04607 0.7631 0.0
C1178 C 0.06872 0.07285 0.78915 0.0
C1179 C 0.02422 0.10714 0.79299 0.0
H1180 H 0.06628 0.14625 0.81165 0.0
C1181 C 0.00541 0.18754 0.82616 0.0
C1182 C 0.01581 0.19296 0.84438 0.0
C1183 C 0.01104 0.17015 0.81489 0.0
C1184 C 0.05437 0.13544 0.80659 0.0
H1185 H 0.03967 0.04987 0.74201 0.0
H1186 H 0.02821 0.08195 0.75748 0.0
H1187 H 0.0766 0.11469 0.79456 0.0
H1188 H 0.04038 0.18445 0.86494 0.0
H1189 H 0.05017 0.15427 0.84527 0.0
H1190 H 0.00201 0.12803 0.80514 0.0
C1191 C 0.04125 0.07437 0.76414 0.0
C1192 C 0.06027 0.11734 0.79686 0.0
C1193 C 0.04786 0.05603 0.75525 0.0
C1194 C 0.03203 0.18073 0.85098 0.0
C1195 C 0.03775 0.1635 0.83966 0.0
C1196 C 0.01831 0.12534 0.80267 0.0
C1197 C 0.05176 0.08308 0.78106 0.0
C1198 C 0.04528 0.10282 0.79026 0.0
C1199 C 0.02731 0.15802 0.82153 0.0
C1200 C 0.03336 0.13949 0.80985 0.0
H1201 H 0.08861 0.04727 0.78679 0.0
H1202 H 0.07688 0.07893 0.80244 0.0
H1203 H 0.01232 0.0962 0.78822 0.0
H1204 H -0.00718 0.19663 0.82068 0.0
H1205 H 0.00283 0.1663 0.80089 0.0
C1206 C 0.93377 0.27356 0.409 0.0
C1207 C 0.94224 0.25732 0.41965 0.0
C1208 C 0.91468 0.2815 0.41466 0.0
C1209 C 0.86672 0.26939 0.44216 0.0
H1210 H 0.86188 0.32816 0.44734 0.0
C1211 C 0.79838 0.30737 0.48313 0.0
C1212 C 0.79051 0.32536 0.47514 0.0
C1213 C 0.81624 0.29875 0.47506 0.0
C1214 C 0.86286 0.31174 0.44565 0.0
H1215 H 0.93714 0.23652 0.44444 0.0
H1216 H 0.90378 0.25047 0.45432 0.0
H1217 H 0.89432 0.31358 0.43564 0.0
H1218 H 0.79504 0.34818 0.4521 0.0
H1219 H 0.82611 0.33292 0.4378 0.0
H1220 H 0.83529 0.26751 0.45218 0.0
C1221 C 0.91191 0.25693 0.44152 0.0
C1222 C 0.88145 0.30339 0.439 0.0
C1223 C 0.93106 0.24904 0.43593 0.0
C1224 C 0.80076 0.33438 0.45868 0.0
C1225 C 0.81861 0.32569 0.45055 0.0
C1226 C 0.84809 0.27773 0.44871 0.0
C1227 C 0.9036 0.27332 0.43101 0.0
C1228 C 0.88362 0.28214 0.43736 0.0
C1229 C 0.82661 0.30784 0.45874 0.0
C1230 C 0.84602 0.29899 0.45072 0.0
H1231 H 0.94194 0.28027 0.39636 0.0
H1232 H 0.90853 0.294 0.40617 0.0
H1233 H 0.86788 0.25295 0.44073 0.0
H1234 H 0.79092 0.30005 0.49585 0.0
H1235 H 0.82217 0.28518 0.48193 0.0
C1236 C 0.57612 0.93227 0.7671 0.0
C1237 C 0.59329 0.92893 0.75447 0.0
C1238 C 0.56315 0.91602 0.77246 0.0
C1239 C 0.56408 0.85986 0.77616 0.0
H1240 H 0.50665 0.86691 0.79146 0.0
C1241 C 0.51668 0.79474 0.81047 0.0
C1242 C 0.50936 0.79989 0.83003 0.0
C1243 C 0.52323 0.80996 0.79734 0.0
C1244 C 0.52263 0.86474 0.78708 0.0
H1245 H 0.60963 0.9063 0.73644 0.0
H1246 H 0.5865 0.87806 0.74501 0.0
H1247 H 0.52535 0.89452 0.77468 0.0
H1248 H 0.50167 0.82498 0.85061 0.0
H1249 H 0.51291 0.85161 0.82749 0.0
H1250 H 0.5613 0.83011 0.78858 0.0
C1251 C 0.58346 0.89305 0.75148 0.0
C1252 C 0.53341 0.88056 0.77762 0.0
C1253 C 0.59667 0.90924 0.74647 0.0
C1254 C 0.50736 0.82057 0.83567 0.0
C1255 C 0.51366 0.8358 0.82241 0.0
C1256 C 0.5532 0.84397 0.78525 0.0
C1257 C 0.56684 0.89612 0.76498 0.0
C1258 C 0.55446 0.87851 0.77253 0.0
C1259 C 0.52228 0.83059 0.80343 0.0
C1260 C 0.53255 0.84644 0.79122 0.0
H1261 H 0.57318 0.9473 0.77355 0.0
H1262 H 0.55077 0.91901 0.78314 0.0
H1263 H 0.58033 0.85777 0.77288 0.0
H1264 H 0.51833 0.77893 0.80567 0.0
H1265 H 0.52973 0.80561 0.78271 0.0
C1266 C 0.97859 0.1863 0.33833 0.0
C1267 C 0.98902 0.18334 0.35677 0.0
C1268 C 0.97222 0.16963 0.32614 0.0
C1269 C 0.95979 0.11472 0.3297 0.0
H1270 H 0.95573 0.1179 0.27095 0.0
C1271 C 0.92462 0.0493 0.27989 0.0
C1272 C 0.90845 0.05557 0.26729 0.0
C1273 C 0.93792 0.06371 0.28925 0.0
C1274 C 0.95687 0.11681 0.28734 0.0
H1275 H 0.00183 0.16062 0.37643 0.0
H1276 H 0.99121 0.13152 0.35488 0.0
H1277 H 0.97334 0.1453 0.2904 0.0
H1278 H 0.89414 0.08174 0.25382 0.0
H1279 H 0.91751 0.10685 0.27002 0.0
H1280 H 0.94318 0.08628 0.32658 0.0
C1281 C 0.98744 0.14671 0.3501 0.0
C1282 C 0.96684 0.13251 0.2985 0.0
C1283 C -0.0064 0.16339 0.36242 0.0
C1284 C 0.90637 0.07645 0.26356 0.0
C1285 C 0.91984 0.09081 0.27269 0.0
C1286 C 0.95005 0.09893 0.31852 0.0
C1287 C 0.97635 0.14961 0.33199 0.0
C1288 C 0.96797 0.13189 0.31987 0.0
C1289 C 0.93548 0.0846 0.28591 0.0
C1290 C 0.9481 0.10006 0.2973 0.0
H1291 H 0.97476 0.20149 0.33359 0.0
H1292 H 0.96341 0.17246 0.31249 0.0
H1293 H 0.96007 0.11384 0.34614 0.0
H1294 H 0.92661 0.03331 0.28305 0.0
H1295 H 0.94994 0.05857 0.29933 0.0
C1296 C 0.56034 0.04496 0.73026 0.0
C1297 C 0.57991 0.04768 0.73938 0.0
C1298 C 0.54893 0.06182 0.7247 0.0
C1299 C 0.5431 0.11721 0.7309 0.0
H1300 H 0.53127 0.115 0.673 0.0
C1301 C 0.528 0.18923 0.68484 0.0
C1302 C 0.51565 0.18745 0.66729 0.0
C1303 C 0.53245 0.17199 0.69603 0.0
C1304 C 0.53391 0.11582 0.68928 0.0
H1305 H 0.60222 0.07009 0.75121 0.0
H1306 H 0.58211 0.09959 0.74162 0.0
H1307 H 0.54438 0.0851 0.68933 0.0
H1308 H 0.49707 0.16669 0.64837 0.0
H1309 H 0.50393 0.13679 0.66838 0.0
H1310 H 0.53257 0.14796 0.7309 0.0
C1311 C 0.57569 0.08442 0.73873 0.0
C1312 C 0.54153 0.09864 0.69861 0.0
C1313 C 0.58724 0.06755 0.74408 0.0
C1314 C 0.50694 0.16839 0.66168 0.0
C1315 C 0.51099 0.15125 0.6731 0.0
C1316 C 0.53511 0.13436 0.72162 0.0
C1317 C 0.55677 0.08167 0.7284 0.0
C1318 C 0.54652 0.09927 0.7194 0.0
C1319 C 0.52428 0.1527 0.69009 0.0
C1320 C 0.53078 0.134 0.70059 0.0
H1321 H 0.55424 0.02983 0.72654 0.0
H1322 H 0.53429 0.05935 0.71688 0.0
H1323 H 0.54677 0.11799 0.747 0.0
H1324 H 0.53493 0.20379 0.68945 0.0
H1325 H 0.54296 0.17372 0.70883 0.0
C1326 C 0.19215 0.33131 0.94673 0.0
C1327 C 0.19449 0.35232 0.95102 0.0
C1328 C 0.1741 0.32359 0.93748 0.0
C1329 C 0.12862 0.33781 0.90746 0.0
H1330 H 0.10306 0.29038 0.93192 0.0
C1331 C 0.04575 0.29081 0.9072 0.0
C1332 C 0.04252 0.28787 0.88618 0.0
C1333 C 0.06438 0.29927 0.9145 0.0
C1334 C 0.10996 0.3037 0.92501 0.0
H1335 H 0.18012 0.3818 0.94837 0.0
H1336 H 0.14857 0.36826 0.93225 0.0
H1337 H 0.13594 0.30381 0.94521 0.0
H1338 H 0.05597 0.29196 0.85629 0.0
H1339 H 0.08854 0.30676 0.86908 0.0
H1340 H 0.10243 0.33782 0.88743 0.0
C1341 C 0.16072 0.3578 0.93597 0.0
C1342 C 0.12889 0.31123 0.93245 0.0
C1343 C 0.17873 0.36552 0.94529 0.0
C1344 C 0.05805 0.29401 0.87258 0.0
C1345 C 0.07664 0.30257 0.87988 0.0
C1346 C 0.10972 0.3302 0.89993 0.0
C1347 C 0.1581 0.33673 0.93226 0.0
C1348 C 0.13837 0.3284 0.9238 0.0
C1349 C 0.08007 0.30505 0.90091 0.0
C1350 C 0.10016 0.31313 0.90872 0.0
H1351 H 0.20407 0.32077 0.95089 0.0
H1352 H 0.17259 0.3073 0.93455 0.0
H1353 H 0.13566 0.351 0.90044 0.0
H1354 H 0.03404 0.28629 0.91805 0.0
H1355 H 0.06651 0.30127 0.93079 0.0
C1356 C 0.44244 0.71045 0.4291 0.0
C1357 C 0.44353 0.72355 0.41252 0.0
C1358 C 0.4233 0.70401 0.43664 0.0
C1359 C 0.36813 0.69856 0.42225 0.0
H1360 H 0.36078 0.69162 0.48027 0.0
C1361 C 0.28928 0.67811 0.45881 0.0
C1362 C 0.28965 0.66207 0.47262 0.0
C1363 C 0.30774 0.68661 0.45157 0.0
C1364 C 0.36267 0.69342 0.46403 0.0
H1365 H 0.4254 0.74049 0.39107 0.0
H1366 H 0.39199 0.72965 0.40455 0.0
H1367 H 0.39359 0.70509 0.46757 0.0
H1368 H 0.30965 0.6425 0.4898 0.0
H1369 H 0.34182 0.65748 0.47725 0.0
H1370 H 0.33707 0.68702 0.41883 0.0
C1371 C 0.40593 0.72397 0.41144 0.0
C1372 C 0.38146 0.70105 0.45673 0.0
C1373 C 0.42508 0.73027 0.40378 0.0
C1374 C 0.30883 0.65481 0.47914 0.0
C1375 C 0.32725 0.66346 0.47207 0.0
C1376 C 0.34927 0.6911 0.42958 0.0
C1377 C 0.40482 0.71068 0.4279 0.0
C1378 C 0.3845 0.7035 0.43573 0.0
C1379 C 0.32688 0.67939 0.45819 0.0
C1380 C 0.34646 0.68825 0.45051 0.0
H1381 H 0.45637 0.70488 0.43609 0.0
H1382 H 0.42303 0.69349 0.4491 0.0
H1383 H 0.37004 0.69996 0.40596 0.0
H1384 H 0.27474 0.68401 0.45349 0.0
H1385 H 0.30706 0.69897 0.44096 0.0
C1386 C 0.81829 0.49402 0.82299 0.0
C1387 C 0.81282 0.50384 0.80508 0.0
C1388 C 0.80683 0.49702 0.84078 0.0
C1389 C 0.75914 0.52187 0.86165 0.0
H1390 H 0.79406 0.53027 0.90928 0.0
C1391 C 0.74407 0.57882 0.92779 0.0
C1392 C 0.7484 0.57277 0.94769 0.0
C1393 C 0.74773 0.56565 0.91123 0.0
C1394 C 0.784 0.52761 0.89624 0.0
H1395 H 0.7906 0.5237 0.79134 0.0
H1396 H 0.77124 0.52983 0.82249 0.0
H1397 H 0.80861 0.51555 0.87842 0.0
H1398 H 0.75899 0.5479 0.96599 0.0
H1399 H 0.76591 0.52505 0.9369 0.0
H1400 H 0.73497 0.53555 0.87938 0.0
C1401 C 0.78392 0.51929 0.82285 0.0
C1402 C 0.79231 0.51906 0.87849 0.0
C1403 C 0.79513 0.51592 0.80496 0.0
C1404 C 0.75555 0.55297 0.95081 0.0
C1405 C 0.75953 0.53992 0.93421 0.0
C1406 C 0.75094 0.53078 0.87935 0.0
C1407 C 0.78996 0.51031 0.84114 0.0
C1408 C 0.78014 0.51652 0.86078 0.0
C1409 C 0.75607 0.54633 0.91427 0.0
C1410 C 0.76345 0.5341 0.89663 0.0
H1411 H 0.83172 0.48437 0.82338 0.0
H1412 H 0.81161 0.48937 0.85438 0.0
H1413 H 0.74916 0.51974 0.84849 0.0
H1414 H 0.73843 0.59395 0.92496 0.0
H1415 H 0.74513 0.57101 0.89598 0.0
C1416 C 0.64983 0.5308 0.19317 0.0
C1417 C 0.6332 0.51753 0.18802 0.0
C1418 C 0.66092 0.54075 0.17802 0.0
C1419 C 0.67443 0.53758 0.12412 0.0
H1420 H 0.6836 0.59608 0.12957 0.0
C1421 C 0.70573 0.58511 0.05805 0.0
C1422 C 0.71936 0.60152 0.06269 0.0
C1423 C 0.6958 0.57461 0.07356 0.0
C1424 C 0.68148 0.5797 0.12795 0.0
H1425 H 0.61539 0.50403 0.16293 0.0
H1426 H 0.63498 0.5213 0.13645 0.0
H1427 H 0.66544 0.57798 0.15637 0.0
H1428 H 0.73354 0.61955 0.08725 0.0
H1429 H 0.71664 0.60086 0.11437 0.0
H1430 H 0.69072 0.53913 0.09591 0.0
C1431 C 0.63935 0.52398 0.15223 0.0
C1432 C 0.67101 0.56937 0.14327 0.0
C1433 C 0.62808 0.5142 0.16739 0.0
C1434 C 0.723 0.60707 0.08318 0.0
C1435 C 0.71323 0.59642 0.09872 0.0
C1436 C 0.6851 0.54786 0.1089 0.0
C1437 C 0.65576 0.53744 0.15743 0.0
C1438 C 0.66729 0.54825 0.14142 0.0
C1439 C 0.69943 0.58012 0.09409 0.0
C1440 C 0.68863 0.56907 0.11056 0.0
H1441 H 0.65415 0.5337 0.20893 0.0
H1442 H 0.67362 0.55095 0.18239 0.0
H1443 H 0.67195 0.52123 0.12248 0.0
H1444 H 0.70248 0.58054 0.04239 0.0
H1445 H 0.68499 0.56239 0.06942 0.0
C1446 C 0.73592 0.4126 0.41706 0.0
C1447 C 0.733 0.41868 0.43749 0.0
C1448 C 0.7305 0.42551 0.40138 0.0
C1449 C 0.69148 0.46119 0.39052 0.0
H1450 H 0.72326 0.47358 0.34224 0.0
C1451 C 0.6513 0.49593 0.32229 0.0
C1452 C 0.65698 0.48818 0.30306 0.0
C1453 C 0.6636 0.49245 0.33931 0.0
C1454 C 0.71409 0.47011 0.35553 0.0
H1455 H 0.72308 0.44336 0.45759 0.0
H1456 H 0.71302 0.46564 0.4301 0.0
H1457 H 0.74011 0.4576 0.37097 0.0
H1458 H 0.68021 0.47136 0.28629 0.0
H1459 H 0.70102 0.46421 0.316 0.0
H1460 H 0.66512 0.47199 0.37491 0.0
C1461 C 0.71972 0.451 0.42631 0.0
C1462 C 0.72383 0.46113 0.372 0.0
C1463 C 0.72549 0.43826 0.44198 0.0
C1464 C 0.67554 0.47757 0.30097 0.0
C1465 C 0.68756 0.47362 0.31806 0.0
C1466 C 0.68164 0.46972 0.37395 0.0
C1467 C 0.72177 0.44454 0.40591 0.0
C1468 C 0.71249 0.45634 0.38949 0.0
C1469 C 0.68152 0.48062 0.33756 0.0
C1470 C 0.6927 0.47397 0.35605 0.0
H1471 H 0.74177 0.39763 0.41318 0.0
H1472 H 0.73205 0.42016 0.38574 0.0
H1473 H 0.68236 0.45735 0.40377 0.0
H1474 H 0.63718 0.50442 0.32422 0.0
H1475 H 0.65872 0.49864 0.35392 0.0
C1476 C 0.81818 0.47167 0.68803 0.0
C1477 C 0.83559 0.48444 0.6853 0.0
C1478 C 0.8081 0.46254 0.67126 0.0
C1479 C 0.81785 0.44794 0.61752 0.0
H1480 H 0.75874 0.43651 0.61681 0.0
C1481 C 0.77531 0.41216 0.54778 0.0
C1482 C 0.76214 0.39544 0.55179 0.0
C1483 C 0.78359 0.42415 0.56374 0.0
C1484 C 0.77528 0.43955 0.61688 0.0
H1485 H 0.8554 0.49858 0.66283 0.0
H1486 H 0.83741 0.48319 0.63355 0.0
H1487 H 0.77398 0.45651 0.64506 0.0
H1488 H 0.74709 0.37837 0.57568 0.0
H1489 H 0.76147 0.39952 0.60357 0.0
H1490 H 0.81904 0.43112 0.58922 0.0
C1491 C 0.83192 0.47968 0.64866 0.0
C1492 C 0.78402 0.45095 0.63306 0.0
C1493 C 0.84216 0.48861 0.66544 0.0
C1494 C 0.75725 0.3911 0.5721 0.0
C1495 C 0.76534 0.40326 0.58804 0.0
C1496 C 0.80906 0.43676 0.60126 0.0
C1497 C 0.81506 0.46617 0.65138 0.0
C1498 C 0.80545 0.45512 0.63366 0.0
C1499 C 0.77866 0.41983 0.584 0.0
C1500 C 0.78774 0.43231 0.60089 0.0
H1501 H 0.81279 0.46809 0.70316 0.0
H1502 H 0.79533 0.45203 0.67397 0.0
H1503 H 0.83445 0.45047 0.61766 0.0
H1504 H 0.77937 0.4159 0.5323 0.0
H1505 H 0.79372 0.43693 0.56023 0.0
C1506 C 0.36619 0.07447 0.2271 0.0
C1507 C 0.3772 0.06243 0.24061 0.0
C1508 C 0.37399 0.09353 0.2216 0.0
C1509 C 0.42361 0.12242 0.21955 0.0
H1510 H 0.38798 0.16589 0.20256 0.0
C1511 C 0.45658 0.19656 0.18674 0.0
C1512 C 0.44919 0.19997 0.167 0.0
C1513 C 0.44641 0.18265 0.1992 0.0
C1514 C 0.39808 0.1539 0.20739 0.0
H1515 H 0.40438 0.06126 0.25986 0.0
H1516 H 0.41765 0.09491 0.25094 0.0
H1517 H 0.37289 0.13605 0.21892 0.0
H1518 H 0.42469 0.19258 0.14531 0.0
H1519 H 0.40673 0.1685 0.16728 0.0
H1520 H 0.44876 0.14036 0.20801 0.0
C1521 C 0.40335 0.08939 0.24399 0.0
C1522 C 0.38947 0.13674 0.21662 0.0
C1523 C 0.39571 0.07015 0.24921 0.0
C1524 C 0.43078 0.19017 0.16042 0.0
C1525 C 0.42044 0.1765 0.17302 0.0
C1526 C 0.43222 0.1397 0.21066 0.0
C1527 C 0.39283 0.10115 0.22976 0.0
C1528 C 0.40208 0.12054 0.22234 0.0
C1529 C 0.42851 0.1722 0.19227 0.0
C1530 C 0.41949 0.15536 0.20408 0.0
H1531 H 0.35189 0.06887 0.22018 0.0
H1532 H 0.3656 0.1019 0.21034 0.0
H1533 H 0.43383 0.11017 0.22336 0.0
H1534 H 0.47073 0.20391 0.19223 0.0
H1535 H 0.45285 0.17963 0.21404 0.0
C1536 C 0.01596 0.80239 0.65644 0.0
C1537 C 0.02734 0.79443 0.63996 0.0
C1538 C 0.02377 0.81895 0.66805 0.0
C1539 C 0.06275 0.86109 0.66584 0.0
H1540 H 0.05393 0.86486 0.7242 0.0
C1541 C 0.10502 0.9209 0.71654 0.0
C1542 C 0.09218 0.93287 0.72904 0.0
C1543 C 0.09723 0.90319 0.70688 0.0
C1544 C 0.05641 0.86398 0.7079 0.0
H1545 H 0.05605 0.79717 0.62308 0.0
H1546 H 0.06991 0.82549 0.64363 0.0
H1547 H 0.04001 0.83543 0.70474 0.0
H1548 H 0.06144 0.93525 0.74201 0.0
H1549 H 0.04791 0.90403 0.72527 0.0
H1550 H 0.07949 0.88942 0.66911 0.0
C1551 C 0.05468 0.81946 0.64726 0.0
C1552 C 0.04837 0.84722 0.69673 0.0
C1553 C 0.04678 0.80312 0.63552 0.0
C1554 C 0.07166 0.92635 0.73239 0.0
C1555 C 0.06394 0.90848 0.72291 0.0
C1556 C 0.07099 0.87765 0.67703 0.0
C1557 C 0.04321 0.82772 0.66355 0.0
C1558 C 0.05149 0.84557 0.67555 0.0
C1559 C 0.07655 0.897 0.70975 0.0
C1560 C 0.06792 0.87923 0.69814 0.0
H1561 H 0.00089 0.79604 0.66018 0.0
H1562 H 0.0144 0.82509 0.68031 0.0
H1563 H 0.06505 0.8606 0.64952 0.0
H1564 H 0.12092 0.9255 0.71372 0.0
H1565 H 0.1073 0.89446 0.69695 0.0
C1566 C 0.46464 0.80302 0.30986 0.0
C1567 C 0.45676 0.7967 0.32864 0.0
C1568 C 0.45668 0.82017 0.30055 0.0
C1569 C 0.42892 0.86724 0.31434 0.0
H1570 H 0.4254 0.87348 0.2559 0.0
C1571 C 0.39186 0.93678 0.27808 0.0
C1572 C 0.40294 0.94599 0.26225 0.0
C1573 C 0.39797 0.9181 0.28559 0.0
C1574 C 0.42646 0.87195 0.27225 0.0
H1575 H 0.43346 0.80237 0.35169 0.0
H1576 H 0.41908 0.83176 0.33514 0.0
H1577 H 0.43566 0.84079 0.26954 0.0
H1578 H 0.42909 0.94273 0.24181 0.0
H1579 H 0.4397 0.90994 0.25494 0.0
H1580 H 0.41954 0.8983 0.31704 0.0
C1581 C 0.43187 0.824 0.32792 0.0
C1582 C 0.43233 0.85326 0.28006 0.0
C1583 C 0.43999 0.80705 0.33733 0.0
C1584 C 0.42027 0.93607 0.25406 0.0
C1585 C 0.42626 0.91724 0.26145 0.0
C1586 C 0.42288 0.8858 0.30654 0.0
C1587 C 0.44055 0.83116 0.30976 0.0
C1588 C 0.43365 0.8507 0.30122 0.0
C1589 C 0.41518 0.90812 0.27731 0.0
C1590 C 0.42162 0.88836 0.28543 0.0
H1591 H 0.47762 0.79536 0.30285 0.0
H1592 H 0.46383 0.82532 0.28665 0.0
H1593 H 0.43026 0.86601 0.3307 0.0
H1594 H 0.37843 0.94401 0.28472 0.0
H1595 H 0.38906 0.91132 0.29772 0.0
C1596 C 0.81523 0.65787 0.00672 0.0
C1597 C 0.80884 0.63862 0.01346 0.0
C1598 C 0.83358 0.66691 0.01391 0.0
C1599 C 0.88251 0.65723 0.04116 0.0
H1600 H 0.8793 0.71509 0.0543 0.0
C1601 C 0.94549 0.70367 0.08648 0.0
C1602 C 0.95127 0.7225 0.07816 0.0
C1603 C 0.92865 0.69244 0.07848 0.0
C1604 C 0.88046 0.69897 0.05056 0.0
H1605 H 0.81697 0.61331 0.03236 0.0
H1606 H 0.84893 0.62936 0.04537 0.0
H1607 H 0.84921 0.69703 0.04012 0.0
H1608 H 0.94401 0.74422 0.05488 0.0
H1609 H 0.9146 0.7247 0.0411 0.0
H1610 H 0.91382 0.65931 0.05203 0.0
C1611 C 0.83988 0.63734 0.0343 0.0
C1612 C 0.86327 0.68862 0.04236 0.0
C1613 C 0.82156 0.62818 0.02692 0.0
C1614 C 0.93995 0.7298 0.06167 0.0
C1615 C 0.92305 0.71868 0.05382 0.0
C1616 C 0.89972 0.6676 0.04954 0.0
C1617 C 0.84583 0.65701 0.0282 0.0
C1618 C 0.86415 0.66769 0.03732 0.0
C1619 C 0.91719 0.69995 0.06219 0.0
C1620 C 0.89888 0.68861 0.0541 0.0
H1621 H 0.80586 0.66614 -0.00387 0.0
H1622 H 0.838 0.68183 0.00848 0.0
H1623 H 0.88371 0.64114 0.03732 0.0
H1624 H 0.95396 0.6976 0.09915 0.0
H1625 H 0.92434 0.67808 0.08526 0.0
C1626 C 0.57228 0.27978 0.60862 0.0
C1627 C 0.56174 0.26294 0.59966 0.0
C1628 C 0.58651 0.29108 0.5973 0.0
C1629 C 0.60065 0.30093 0.54357 0.0
H1630 H 0.64922 0.32688 0.56825 0.0
C1631 C 0.67064 0.33389 0.49962 0.0
C1632 C 0.67811 0.35322 0.50611 0.0
C1633 C 0.65476 0.32419 0.51026 0.0
C1634 C 0.63557 0.31988 0.56126 0.0
H1635 H 0.55859 0.24392 0.57237 0.0
H1636 H 0.58415 0.26294 0.55292 0.0
H1637 H 0.62629 0.306 0.58895 0.0
H1638 H 0.67434 0.37795 0.52826 0.0
H1639 H 0.6468 0.36072 0.54713 0.0
H1640 H 0.6106 0.31423 0.51566 0.0
C1641 C 0.58088 0.26802 0.56837 0.0
C1642 C 0.6224 0.30794 0.57309 0.0
C1643 C 0.5664 0.25697 0.57957 0.0
C1644 C 0.66883 0.36308 0.52289 0.0
C1645 C 0.6532 0.35321 0.53375 0.0
C1646 C 0.61402 0.31259 0.53168 0.0
C1647 C 0.59071 0.28553 0.57691 0.0
C1648 C 0.6048 0.29826 0.56438 0.0
C1649 C 0.64635 0.33354 0.52774 0.0
C1650 C 0.63157 0.32213 0.54044 0.0
H1651 H 0.56884 0.28481 0.62406 0.0
H1652 H 0.5936 0.30458 0.60434 0.0
H1653 H 0.58699 0.29414 0.53643 0.0
H1654 H 0.67753 0.326 0.48671 0.0
H1655 H 0.64974 0.30898 0.5054 0.0
C1656 C 0.19255 0.38553 0.05565 0.0
C1657 C 0.21187 0.39096 0.04747 0.0
C1658 C 0.18449 0.39651 0.07216 0.0
C1659 C 0.19021 0.44562 0.10124 0.0
H1660 H 0.15816 0.41631 0.14135 0.0
C1661 C 0.16436 0.47875 0.17997 0.0
C1662 C 0.14336 0.4755 0.18467 0.0
C1663 C 0.17289 0.46965 0.16254 0.0
C1664 C 0.16698 0.42467 0.13017 0.0
H1665 H 0.23803 0.41204 0.05023 0.0
H1666 H 0.22433 0.43078 0.0796 0.0
H1667 H 0.1734 0.39761 0.11283 0.0
H1668 H 0.11472 0.46064 0.17463 0.0
H1669 H 0.1298 0.44444 0.1444 0.0
H1670 H 0.18419 0.47261 0.11923 0.0
C1671 C 0.21511 0.41838 0.07292 0.0
C1672 C 0.17564 0.41402 0.11377 0.0
C1673 C 0.22303 0.40757 0.05617 0.0
C1674 C 0.13095 0.46341 0.1714 0.0
C1675 C 0.13956 0.45407 0.15418 0.0
C1676 C 0.1818 0.45624 0.11788 0.0
C1677 C 0.19572 0.41298 0.08112 0.0
C1678 C 0.18717 0.42436 0.09896 0.0
C1679 C 0.16064 0.45693 0.14975 0.0
C1680 C 0.16994 0.44585 0.13233 0.0
H1681 H 0.18347 0.37296 0.04911 0.0
H1682 H 0.16931 0.39219 0.07772 0.0
H1683 H 0.19876 0.45414 0.09 0.0
H1684 H 0.17425 0.48806 0.18992 0.0
H1685 H 0.18921 0.472 0.15942 0.0
C1686 C 0.3158 0.50214 0.8141 0.0
C1687 C 0.33111 0.49145 0.8033 0.0
C1688 C 0.31009 0.49632 0.83369 0.0
C1689 C 0.32873 0.46645 0.87708 0.0
H1690 H 0.27064 0.46229 0.89134 0.0
C1691 C 0.29649 0.41214 0.93669 0.0
C1692 C 0.28009 0.41856 0.94914 0.0
C1693 C 0.30426 0.42478 0.92163 0.0
C1694 C 0.28694 0.46376 0.88774 0.0
H1695 H 0.35211 0.46601 0.80445 0.0
H1696 H 0.3419 0.45569 0.83822 0.0
H1697 H 0.28067 0.47717 0.85906 0.0
H1698 H 0.25961 0.44359 0.95628 0.0
H1699 H 0.27314 0.46565 0.92971 0.0
H1700 H 0.3349 0.45222 0.90539 0.0
C1701 C 0.33464 0.46887 0.83184 0.0
C1702 C 0.29269 0.47226 0.86925 0.0
C1703 C 0.34036 0.47468 0.81236 0.0
C1704 C 0.27226 0.43824 0.94688 0.0
C1705 C 0.2799 0.45082 0.93164 0.0
C1706 C 0.32297 0.45785 0.89549 0.0
C1707 C 0.31959 0.47971 0.84281 0.0
C1708 C 0.31361 0.47317 0.86348 0.0
C1709 C 0.29568 0.44401 0.9186 0.0
C1710 C 0.302 0.45595 0.90075 0.0
H1711 H 0.30844 0.51519 0.80756 0.0
H1712 H 0.29849 0.50501 0.8418 0.0
H1713 H 0.34501 0.46739 0.87327 0.0
H1714 H 0.30286 0.39708 0.93811 0.0
H1715 H 0.31631 0.41906 0.91168 0.0
C1716 C 0.27918 0.55737 0.55149 0.0
C1717 C 0.28704 0.57561 0.54358 0.0
C1718 C 0.29015 0.54724 0.5664 0.0
C1719 C 0.33025 0.55821 0.60563 0.0
H1720 H 0.32475 0.50006 0.61433 0.0
C1721 C 0.37034 0.51893 0.67197 0.0
C1722 C 0.35656 0.50832 0.68462 0.0
C1723 C 0.36394 0.52522 0.65286 0.0
C1724 C 0.32642 0.51631 0.61199 0.0
H1725 H 0.31313 0.59683 0.54381 0.0
H1726 H 0.33282 0.57866 0.56905 0.0
H1727 H 0.31081 0.51438 0.58326 0.0
H1728 H 0.32563 0.49522 0.68692 0.0
H1729 H 0.31455 0.50599 0.65325 0.0
H1730 H 0.34606 0.56 0.63428 0.0
C1731 C 0.3178 0.57256 0.56447 0.0
C1732 C 0.31837 0.52455 0.59429 0.0
C1733 C 0.30661 0.58291 0.54989 0.0
C1734 C 0.33651 0.50347 0.67751 0.0
C1735 C 0.33023 0.50949 0.65824 0.0
C1736 C 0.33861 0.5499 0.62309 0.0
C1737 C 0.30941 0.55496 0.57342 0.0
C1738 C 0.31984 0.54569 0.59107 0.0
C1739 C 0.34379 0.52071 0.64594 0.0
C1740 C 0.33645 0.52897 0.62657 0.0
H1741 H 0.26406 0.55146 0.54693 0.0
H1742 H 0.28302 0.53392 0.57306 0.0
H1743 H 0.33132 0.57458 0.60401 0.0
H1744 H 0.3859 0.52285 0.67703 0.0
H1745 H 0.37466 0.53382 0.64357 0.0
C1746 C 0.15196 0.52083 0.30961 0.0
C1747 C 0.16214 0.50379 0.30131 0.0
C1748 C 0.15824 0.52952 0.32822 0.0
C1749 C 0.20254 0.53405 0.3632 0.0
H1750 H 0.16093 0.55355 0.40109 0.0
C1751 C 0.22315 0.57087 0.44171 0.0
C1752 C 0.21295 0.58913 0.44648 0.0
C1753 C 0.21686 0.55868 0.42502 0.0
C1754 C 0.17271 0.54825 0.39061 0.0
H1755 H 0.18693 0.48252 0.30608 0.0
H1756 H 0.19782 0.49771 0.33879 0.0
H1757 H 0.15023 0.53525 0.36997 0.0
H1758 H 0.18793 0.60874 0.43763 0.0
H1759 H 0.17702 0.5875 0.40853 0.0
H1760 H 0.22501 0.54728 0.38382 0.0
C1761 C 0.18509 0.5044 0.33073 0.0
C1762 C 0.1666 0.53781 0.3728 0.0
C1763 C 0.1788 0.49567 0.31204 0.0
C1764 C 0.19614 0.59478 0.43438 0.0
C1765 C 0.18979 0.58255 0.41779 0.0
C1766 C 0.20866 0.54446 0.38108 0.0
C1767 C 0.17481 0.52138 0.33903 0.0
C1768 C 0.18143 0.53092 0.35872 0.0
C1769 C 0.20015 0.56444 0.41287 0.0
C1770 C 0.19378 0.55196 0.39478 0.0
H1771 H 0.13913 0.52755 0.30172 0.0
H1772 H 0.15026 0.54284 0.33401 0.0
H1773 H 0.21432 0.52911 0.35255 0.0
H1774 H 0.23615 0.56606 0.45074 0.0
H1775 H 0.22501 0.5447 0.42166 0.0
loop_
_geom_bond_atom_site_label_1
_geom_bond_atom_site_label_2
_geom_bond_distance
_geom_bond_site_symmetry_2
_ccdc_geom_bond_type
C0 O1 1.306 . S
C0 O3 1.160 . S
O1 C0 1.306 . S
O1 Cd2 2.228 . S
Cd2 O1 2.228 . S
Cd2 O6 2.273 1_655 S
Cd2 O10 2.277 . S
O3 C0 1.160 . S
O3 Cd4 2.203 1_655 S
Cd4 O3 2.203 1_455 S
Cd4 O6 2.411 . S
Cd4 O7 2.333 . S
Cd4 O8 2.352 . S
Cd4 O12 2.277 1_455 S
Cd4 O13 2.356 . S
C5 O10 1.209 . S
C5 O12 1.226 . S
O6 Cd2 2.273 1_455 S
O6 Cd4 2.411 . S
O6 C9 1.320 . S
O7 Cd4 2.333 . S
O7 C9 1.214 . S
O8 Cd4 2.352 . S
O8 C11 1.258 . S
C9 O6 1.320 . S
C9 O7 1.214 . S
O10 Cd2 2.277 . S
O10 C5 1.209 . S
C11 O8 1.258 . S
C11 O13 1.282 . S
O12 Cd4 2.277 1_655 S
O12 C5 1.226 . S
O13 Cd4 2.356 . S
O13 C11 1.282 . S
C14 O15 1.306 . S
C14 O17 1.160 . S
O15 C14 1.306 . S
O15 Cd16 2.228 1_655 S
Cd16 O15 2.228 1_455 S
Cd16 O20 2.273 . S
Cd16 O24 2.277 . S
O17 C14 1.160 . S
O17 Cd18 2.184 1_655 S
Cd18 O17 2.184 1_455 S
Cd18 O20 2.422 . S
Cd18 O21 2.353 . S
Cd18 O22 2.341 1_455 S
Cd18 O26 2.283 . S
Cd18 O27 2.352 1_455 S
C19 O24 1.209 . S
C19 O26 1.226 . S
O20 Cd16 2.273 . S
O20 Cd18 2.422 . S
O20 C23 1.320 . S
O21 Cd18 2.353 . S
O21 C23 1.214 . S
O22 Cd18 2.341 1_655 S
O22 C25 1.258 . S
C23 O20 1.320 . S
C23 O21 1.214 . S
O24 Cd16 2.277 . S
O24 C19 1.209 . S
C25 O22 1.258 . S
C25 O27 1.282 . S
O26 Cd18 2.283 . S
O26 C19 1.226 . S
O27 Cd18 2.352 1_655 S
O27 C25 1.282 . S
C28 O29 1.306 . S
C28 O31 1.160 . S
O29 C28 1.306 . S
O29 Cd30 2.228 . S
Cd30 O29 2.228 . S
Cd30 O34 2.273 . S
Cd30 O38 2.277 . S
O31 C28 1.160 . S
O31 Cd32 2.203 . S
Cd32 O31 2.203 . S
Cd32 O34 2.411 . S
Cd32 O35 2.333 . S
Cd32 O36 2.352 . S
Cd32 O40 2.277 . S
Cd32 O41 2.356 . S
C33 O38 1.209 . S
C33 O40 1.226 . S
O34 Cd30 2.273 . S
O34 Cd32 2.411 . S
O34 C37 1.320 . S
O35 Cd32 2.333 . S
O35 C37 1.214 . S
O36 Cd32 2.352 . S
O36 C39 1.258 . S
C37 O34 1.320 . S
C37 O35 1.214 . S
O38 Cd30 2.277 . S
O38 C33 1.209 . S
C39 O36 1.258 . S
C39 O41 1.282 . S
O40 Cd32 2.277 . S
O40 C33 1.226 . S
O41 Cd32 2.356 . S
O41 C39 1.282 . S
C42 O43 1.306 . S
C42 O45 1.160 . S
O43 C42 1.306 . S
O43 Cd44 2.228 . S
Cd44 O43 2.228 . S
Cd44 O48 2.273 . S
Cd44 O52 2.277 . S
O45 C42 1.160 . S
O45 Cd46 2.203 . S
Cd46 O45 2.203 . S
Cd46 O48 2.411 . S
Cd46 O49 2.333 . S
Cd46 O50 2.352 . S
Cd46 O54 2.277 . S
Cd46 O55 2.356 . S
C47 O52 1.209 . S
C47 O54 1.226 . S
O48 Cd44 2.273 . S
O48 Cd46 2.411 . S
O48 C51 1.320 . S
O49 Cd46 2.333 . S
O49 C51 1.214 . S
O50 Cd46 2.352 . S
O50 C53 1.258 . S
C51 O48 1.320 . S
C51 O49 1.214 . S
O52 Cd44 2.277 . S
O52 C47 1.209 . S
C53 O50 1.258 . S
C53 O55 1.282 . S
O54 Cd46 2.277 . S
O54 C47 1.226 . S
O55 Cd46 2.356 . S
O55 C53 1.282 . S
C56 O57 1.306 . S
C56 O59 1.160 . S
O57 C56 1.306 . S
O57 Cd58 2.228 . S
Cd58 O57 2.228 . S
Cd58 O62 2.273 1_655 S
Cd58 O66 2.277 . S
O59 C56 1.160 . S
O59 Cd60 2.203 1_655 S
Cd60 O59 2.203 1_455 S
Cd60 O62 2.411 . S
Cd60 O63 2.333 . S
Cd60 O64 2.352 . S
Cd60 O68 2.277 1_455 S
Cd60 O69 2.356 . S
C61 O66 1.209 . S
C61 O68 1.226 . S
O62 Cd58 2.273 1_455 S
O62 Cd60 2.411 . S
O62 C65 1.320 . S
O63 Cd60 2.333 . S
O63 C65 1.214 . S
O64 Cd60 2.352 . S
O64 C67 1.258 . S
C65 O62 1.320 . S
C65 O63 1.214 . S
O66 Cd58 2.277 . S
O66 C61 1.209 . S
C67 O64 1.258 . S
C67 O69 1.282 . S
O68 Cd60 2.277 1_655 S
O68 C61 1.226 . S
O69 Cd60 2.356 . S
O69 C67 1.282 . S
C70 O71 1.306 . S
C70 O73 1.160 . S
O71 C70 1.306 . S
O71 Cd72 2.228 . S
Cd72 O71 2.228 . S
Cd72 O76 2.273 . S
Cd72 O80 2.277 . S
O73 C70 1.160 . S
O73 Cd74 2.203 . S
Cd74 O73 2.203 . S
Cd74 O76 2.411 . S
Cd74 O77 2.333 . S
Cd74 O78 2.352 . S
Cd74 O82 2.277 . S
Cd74 O83 2.356 . S
C75 O80 1.209 . S
C75 O82 1.226 . S
O76 Cd72 2.273 . S
O76 Cd74 2.411 . S
O76 C79 1.320 . S
O77 Cd74 2.333 . S
O77 C79 1.214 . S
O78 Cd74 2.352 . S
O78 C81 1.258 . S
C79 O76 1.320 . S
C79 O77 1.214 . S
O80 Cd72 2.277 . S
O80 C75 1.209 . S
C81 O78 1.258 . S
C81 O83 1.282 . S
O82 Cd74 2.277 . S
O82 C75 1.226 . S
O83 Cd74 2.356 . S
O83 C81 1.282 . S
C84 O85 1.306 . S
C84 O87 1.160 . S
O85 C84 1.306 . S
O85 Cd86 2.228 . S
Cd86 O85 2.228 . S
Cd86 O90 2.273 . S
Cd86 O94 2.277 . S
O87 C84 1.160 . S
O87 Cd88 2.203 . S
Cd88 O87 2.203 . S
Cd88 O90 2.411 . S
Cd88 O91 2.333 . S
Cd88 O92 2.352 . S
Cd88 O96 2.277 . S
Cd88 O97 2.356 . S
C89 O94 1.209 . S
C89 O96 1.226 . S
O90 Cd86 2.273 . S
O90 Cd88 2.411 . S
O90 C93 1.320 . S
O91 Cd88 2.333 . S
O91 C93 1.214 . S
O92 Cd88 2.352 . S
O92 C95 1.258 . S
C93 O90 1.320 . S
C93 O91 1.214 . S
O94 Cd86 2.277 . S
O94 C89 1.209 . S
C95 O92 1.258 . S
C95 O97 1.282 . S
O96 Cd88 2.277 . S
O96 C89 1.226 . S
O97 Cd88 2.356 . S
O97 C95 1.282 . S
C98 O99 1.306 . S
C98 O101 1.160 . S
O99 C98 1.306 . S
O99 Cd100 2.228 1_655 S
Cd100 O99 2.228 1_455 S
Cd100 O104 2.273 . S
Cd100 O108 2.277 . S
O101 C98 1.160 . S
O101 Cd102 2.178 1_655 S
Cd102 O101 2.178 1_455 S
Cd102 O104 2.426 . S
Cd102 O105 2.360 . S
Cd102 O106 2.337 1_455 S
Cd102 O110 2.286 . S
Cd102 O111 2.350 1_455 S
C103 O108 1.209 . S
C103 O110 1.226 . S
O104 Cd100 2.273 . S
O104 Cd102 2.426 . S
O104 C107 1.320 . S
O105 Cd102 2.360 . S
O105 C107 1.214 . S
O106 Cd102 2.337 1_655 S
O106 C109 1.258 . S
C107 O104 1.320 . S
C107 O105 1.214 . S
O108 Cd100 2.277 . S
O108 C103 1.209 . S
C109 O106 1.258 . S
C109 O111 1.282 . S
O110 Cd102 2.286 . S
O110 C103 1.226 . S
O111 Cd102 2.350 1_655 S
O111 C109 1.282 . S
C112 O113 1.306 . S
C112 O115 1.160 . S
O113 C112 1.306 . S
O113 Cd114 2.228 . S
Cd114 O113 2.228 . S
Cd114 O118 2.273 1_565 S
Cd114 O122 2.277 . S
O115 C112 1.160 . S
O115 Cd116 2.203 1_565 S
Cd116 O115 2.203 1_545 S
Cd116 O118 2.411 . S
Cd116 O119 2.333 . S
Cd116 O120 2.352 . S
Cd116 O124 2.277 1_545 S
Cd116 O125 2.356 . S
C117 O122 1.209 . S
C117 O124 1.226 . S
O118 Cd114 2.273 1_545 S
O118 Cd116 2.411 . S
O118 C121 1.320 . S
O119 Cd116 2.333 . S
O119 C121 1.214 . S
O120 Cd116 2.352 . S
O120 C123 1.258 . S
C121 O118 1.320 . S
C121 O119 1.214 . S
O122 Cd114 2.277 . S
O122 C117 1.209 . S
C123 O120 1.258 . S
C123 O125 1.282 . S
O124 Cd116 2.277 1_565 S
O124 C117 1.226 . S
O125 Cd116 2.356 . S
O125 C123 1.282 . S
C126 O127 1.306 . S
C126 O129 1.160 . S
O127 C126 1.306 . S
O127 Cd128 2.228 . S
Cd128 O127 2.228 . S
Cd128 O132 2.273 . S
Cd128 O136 2.277 . S
O129 C126 1.160 . S
O129 Cd130 2.203 . S
Cd130 O129 2.203 . S
Cd130 O132 2.411 . S
Cd130 O133 2.333 . S
Cd130 O134 2.352 . S
Cd130 O138 2.277 . S
Cd130 O139 2.356 . S
C131 O136 1.209 . S
C131 O138 1.226 . S
O132 Cd128 2.273 . S
O132 Cd130 2.411 . S
O132 C135 1.320 . S
O133 Cd130 2.333 . S
O133 C135 1.214 . S
O134 Cd130 2.352 . S
O134 C137 1.258 . S
C135 O132 1.320 . S
C135 O133 1.214 . S
O136 Cd128 2.277 . S
O136 C131 1.209 . S
C137 O134 1.258 . S
C137 O139 1.282 . S
O138 Cd130 2.277 . S
O138 C131 1.226 . S
O139 Cd130 2.356 . S
O139 C137 1.282 . S
C140 O141 1.306 . S
C140 O143 1.160 . S
O141 C140 1.306 . S
O141 Cd142 2.228 . S
Cd142 O141 2.228 . S
Cd142 O146 2.273 1_545 S
Cd142 O150 2.277 . S
O143 C140 1.160 . S
O143 Cd144 2.203 . S
Cd144 O143 2.203 . S
Cd144 O146 2.411 1_545 S
Cd144 O147 2.333 1_545 S
Cd144 O148 2.352 1_545 S
Cd144 O152 2.277 . S
Cd144 O153 2.356 1_545 S
C145 O150 1.209 . S
C145 O152 1.226 . S
O146 Cd142 2.273 1_565 S
O146 Cd144 2.411 1_565 S
O146 C149 1.320 . S
O147 Cd144 2.333 1_565 S
O147 C149 1.214 . S
O148 Cd144 2.352 1_565 S
O148 C151 1.258 . S
C149 O146 1.320 . S
C149 O147 1.214 . S
O150 Cd142 2.277 . S
O150 C145 1.209 . S
C151 O148 1.258 . S
C151 O153 1.282 . S
O152 Cd144 2.277 . S
O152 C145 1.226 . S
O153 Cd144 2.356 1_565 S
O153 C151 1.282 . S
C154 O155 1.306 1_556 S
C154 O157 1.160 . S
O155 C154 1.306 1_554 S
O155 Cd156 2.228 . S
Cd156 O155 2.228 . S
Cd156 O160 2.273 . S
Cd156 O164 2.277 . S
O157 C154 1.160 . S
O157 Cd158 2.203 1_556 S
Cd158 O157 2.203 1_554 S
Cd158 O160 2.411 . S
Cd158 O161 2.333 . S
Cd158 O162 2.352 1_554 S
Cd158 O166 2.277 . S
Cd158 O167 2.356 1_554 S
C159 O164 1.209 . S
C159 O166 1.226 . S
O160 Cd156 2.273 . S
O160 Cd158 2.411 . S
O160 C163 1.320 . S
O161 Cd158 2.333 . S
O161 C163 1.214 . S
O162 Cd158 2.352 1_556 S
O162 C165 1.258 . S
C163 O160 1.320 . S
C163 O161 1.214 . S
O164 Cd156 2.277 . S
O164 C159 1.209 . S
C165 O162 1.258 . S
C165 O167 1.282 . S
O166 Cd158 2.277 . S
O166 C159 1.226 . S
O167 Cd158 2.356 1_556 S
O167 C165 1.282 . S
C168 O169 1.306 . S
C168 O171 1.160 . S
O169 C168 1.306 . S
O169 Cd170 2.228 . S
Cd170 O169 2.228 . S
Cd170 O174 2.273 1_554 S
Cd170 O178 2.277 . S
O171 C168 1.160 . S
O171 Cd172 2.203 . S
Cd172 O171 2.203 . S
Cd172 O174 2.411 1_554 S
Cd172 O175 2.333 1_554 S
Cd172 O176 2.352 1_554 S
Cd172 O180 2.277 . S
Cd172 O181 2.356 1_554 S
C173 O178 1.209 . S
C173 O180 1.226 . S
O174 Cd170 2.273 1_556 S
O174 Cd172 2.411 1_556 S
O174 C177 1.320 . S
O175 Cd172 2.333 1_556 S
O175 C177 1.214 . S
O176 Cd172 2.352 1_556 S
O176 C179 1.258 . S
C177 O174 1.320 . S
C177 O175 1.214 . S
O178 Cd170 2.277 . S
O178 C173 1.209 . S
C179 O176 1.258 . S
C179 O181 1.282 . S
O180 Cd172 2.277 . S
O180 C173 1.226 . S
O181 Cd172 2.356 1_556 S
O181 C179 1.282 . S
C182 O183 1.306 . S
C182 O185 1.160 . S
O183 C182 1.306 . S
O183 Cd184 2.228 . S
Cd184 O183 2.228 . S
Cd184 O188 2.273 1_556 S
Cd184 O192 2.277 . S
O185 C182 1.160 . S
O185 Cd186 2.203 1_556 S
Cd186 O185 2.203 1_554 S
Cd186 O188 2.411 . S
Cd186 O189 2.333 . S
Cd186 O190 2.352 . S
Cd186 O194 2.277 1_554 S
Cd186 O195 2.356 . S
C187 O192 1.209 . S
C187 O194 1.226 . S
O188 Cd184 2.273 1_554 S
O188 Cd186 2.411 . S
O188 C191 1.320 . S
O189 Cd186 2.333 . S
O189 C191 1.214 . S
O190 Cd186 2.352 . S
O190 C193 1.258 . S
C191 O188 1.320 . S
C191 O189 1.214 . S
O192 Cd184 2.277 . S
O192 C187 1.209 . S
C193 O190 1.258 . S
C193 O195 1.282 . S
O194 Cd186 2.277 1_556 S
O194 C187 1.226 . S
O195 Cd186 2.356 . S
O195 C193 1.282 . S
C196 O197 1.306 . S
C196 O199 1.160 . S
O197 C196 1.306 . S
O197 Cd198 2.228 . S
Cd198 O197 2.228 . S
Cd198 O202 2.273 . S
Cd198 O206 2.277 . S
O199 C196 1.160 . S
O199 Cd200 2.203 . S
Cd200 O199 2.203 . S
Cd200 O202 2.411 . S
Cd200 O203 2.333 . S
Cd200 O204 2.352 . S
Cd200 O208 2.277 . S
Cd200 O209 2.356 . S
C201 O206 1.209 . S
C201 O208 1.226 . S
O202 Cd198 2.273 . S
O202 Cd200 2.411 . S
O202 C205 1.320 . S
O203 Cd200 2.333 . S
O203 C205 1.214 . S
O204 Cd200 2.352 . S
O204 C207 1.258 . S
C205 O202 1.320 . S
C205 O203 1.214 . S
O206 Cd198 2.277 . S
O206 C201 1.209 . S
C207 O204 1.258 . S
C207 O209 1.282 . S
O208 Cd200 2.277 . S
O208 C201 1.226 . S
O209 Cd200 2.356 . S
O209 C207 1.282 . S
C210 O211 1.306 . S
C210 O213 1.160 . S
O211 C210 1.306 . S
O211 Cd212 2.228 . S
Cd212 O211 2.228 . S
Cd212 O216 2.273 . S
Cd212 O220 2.277 . S
O213 C210 1.160 . S
O213 Cd214 2.203 . S
Cd214 O213 2.203 . S
Cd214 O216 2.411 . S
Cd214 O217 2.333 . S
Cd214 O218 2.352 . S
Cd214 O222 2.277 . S
Cd214 O223 2.356 . S
C215 O220 1.209 . S
C215 O222 1.226 . S
O216 Cd212 2.273 . S
O216 Cd214 2.411 . S
O216 C219 1.320 . S
O217 Cd214 2.333 . S
O217 C219 1.214 . S
O218 Cd214 2.352 . S
O218 C221 1.258 . S
C219 O216 1.320 . S
C219 O217 1.214 . S
O220 Cd212 2.277 . S
O220 C215 1.209 . S
C221 O218 1.258 . S
C221 O223 1.282 . S
O222 Cd214 2.277 . S
O222 C215 1.226 . S
O223 Cd214 2.356 . S
O223 C221 1.282 . S
C224 O225 1.306 1_565 S
C224 O227 1.160 . S
O225 C224 1.306 1_545 S
O225 Cd226 2.228 . S
Cd226 O225 2.228 . S
Cd226 O230 2.273 . S
Cd226 O234 2.277 . S
O227 C224 1.160 . S
O227 Cd228 2.204 . S
Cd228 O227 2.204 . S
Cd228 O230 2.411 1_565 S
Cd228 O231 2.332 1_565 S
Cd228 O232 2.353 . S
Cd228 O236 2.276 1_565 S
Cd228 O237 2.357 . S
C229 O234 1.209 . S
C229 O236 1.226 . S
O230 Cd226 2.273 . S
O230 Cd228 2.411 1_545 S
O230 C233 1.320 . S
O231 Cd228 2.332 1_545 S
O231 C233 1.214 . S
O232 Cd228 2.353 . S
O232 C235 1.258 . S
C233 O230 1.320 . S
C233 O231 1.214 . S
O234 Cd226 2.277 . S
O234 C229 1.209 . S
C235 O232 1.258 . S
C235 O237 1.282 . S
O236 Cd228 2.276 1_545 S
O236 C229 1.226 . S
O237 Cd228 2.357 . S
O237 C235 1.282 . S
C238 O239 1.306 . S
C238 O241 1.160 . S
O239 C238 1.306 . S
O239 Cd240 2.228 . S
Cd240 O239 2.228 . S
Cd240 O244 2.273 . S
Cd240 O248 2.277 . S
O241 C238 1.160 . S
O241 Cd242 2.203 . S
Cd242 O241 2.203 . S
Cd242 O244 2.411 . S
Cd242 O245 2.333 . S
Cd242 O246 2.352 . S
Cd242 O250 2.277 . S
Cd242 O251 2.356 . S
C243 O248 1.209 . S
C243 O250 1.226 . S
O244 Cd240 2.273 . S
O244 Cd242 2.411 . S
O244 C247 1.320 . S
O245 Cd242 2.333 . S
O245 C247 1.214 . S
O246 Cd242 2.352 . S
O246 C249 1.258 . S
C247 O244 1.320 . S
C247 O245 1.214 . S
O248 Cd240 2.277 . S
O248 C243 1.209 . S
C249 O246 1.258 . S
C249 O251 1.282 . S
O250 Cd242 2.277 . S
O250 C243 1.226 . S
O251 Cd242 2.356 . S
O251 C249 1.282 . S
C252 O253 1.306 . S
C252 O255 1.160 . S
O253 C252 1.306 . S
O253 Cd254 2.228 . S
Cd254 O253 2.228 . S
Cd254 O258 2.273 . S
Cd254 O262 2.277 . S
O255 C252 1.160 . S
O255 Cd256 2.203 . S
Cd256 O255 2.203 . S
Cd256 O258 2.411 . S
Cd256 O259 2.333 . S
Cd256 O260 2.352 . S
Cd256 O264 2.277 . S
Cd256 O265 2.356 . S
C257 O262 1.209 . S
C257 O264 1.226 . S
O258 Cd254 2.273 . S
O258 Cd256 2.411 . S
O258 C261 1.320 . S
O259 Cd256 2.333 . S
O259 C261 1.214 . S
O260 Cd256 2.352 . S
O260 C263 1.258 . S
C261 O258 1.320 . S
C261 O259 1.214 . S
O262 Cd254 2.277 . S
O262 C257 1.209 . S
C263 O260 1.258 . S
C263 O265 1.282 . S
O264 Cd256 2.277 . S
O264 C257 1.226 . S
O265 Cd256 2.356 . S
O265 C263 1.282 . S
C266 O267 1.306 . S
C266 O269 1.160 . S
O267 C266 1.306 . S
O267 Cd268 2.228 1_545 S
Cd268 O267 2.228 1_565 S
Cd268 O272 2.273 . S
Cd268 O276 2.277 . S
O269 C266 1.160 . S
O269 Cd270 2.203 . S
Cd270 O269 2.203 . S
Cd270 O272 2.411 1_545 S
Cd270 O273 2.333 1_545 S
Cd270 O274 2.352 . S
Cd270 O278 2.277 1_545 S
Cd270 O279 2.356 . S
C271 O276 1.209 . S
C271 O278 1.226 . S
O272 Cd268 2.273 . S
O272 Cd270 2.411 1_565 S
O272 C275 1.320 . S
O273 Cd270 2.333 1_565 S
O273 C275 1.214 . S
O274 Cd270 2.352 . S
O274 C277 1.258 . S
C275 O272 1.320 . S
C275 O273 1.214 . S
O276 Cd268 2.277 . S
O276 C271 1.209 . S
C277 O274 1.258 . S
C277 O279 1.282 . S
O278 Cd270 2.277 1_565 S
O278 C271 1.226 . S
O279 Cd270 2.356 . S
O279 C277 1.282 . S
C280 O281 1.306 1_556 S
C280 O283 1.160 . S
O281 C280 1.306 1_554 S
O281 Cd282 2.228 . S
Cd282 O281 2.228 . S
Cd282 O286 2.273 . S
Cd282 O290 2.277 . S
O283 C280 1.160 . S
O283 Cd284 2.203 1_556 S
Cd284 O283 2.203 1_554 S
Cd284 O286 2.411 . S
Cd284 O287 2.333 . S
Cd284 O288 2.352 1_554 S
Cd284 O292 2.277 . S
Cd284 O293 2.356 1_554 S
C285 O290 1.209 . S
C285 O292 1.226 . S
O286 Cd282 2.273 . S
O286 Cd284 2.411 . S
O286 C289 1.320 . S
O287 Cd284 2.333 . S
O287 C289 1.214 . S
O288 Cd284 2.352 1_556 S
O288 C291 1.258 . S
C289 O286 1.320 . S
C289 O287 1.214 . S
O290 Cd282 2.277 . S
O290 C285 1.209 . S
C291 O288 1.258 . S
C291 O293 1.282 . S
O292 Cd284 2.277 . S
O292 C285 1.226 . S
O293 Cd284 2.356 1_556 S
O293 C291 1.282 . S
C294 O295 1.306 . S
C294 O297 1.160 . S
O295 C294 1.306 . S
O295 Cd296 2.228 . S
Cd296 O295 2.228 . S
Cd296 O300 2.273 . S
Cd296 O304 2.277 . S
O297 C294 1.160 . S
O297 Cd298 2.203 . S
Cd298 O297 2.203 . S
Cd298 O300 2.411 . S
Cd298 O301 2.333 . S
Cd298 O302 2.352 . S
Cd298 O306 2.277 . S
Cd298 O307 2.356 . S
C299 O304 1.209 . S
C299 O306 1.226 . S
O300 Cd296 2.273 . S
O300 Cd298 2.411 . S
O300 C303 1.320 . S
O301 Cd298 2.333 . S
O301 C303 1.214 . S
O302 Cd298 2.352 . S
O302 C305 1.258 . S
C303 O300 1.320 . S
C303 O301 1.214 . S
O304 Cd296 2.277 . S
O304 C299 1.209 . S
C305 O302 1.258 . S
C305 O307 1.282 . S
O306 Cd298 2.277 . S
O306 C299 1.226 . S
O307 Cd298 2.356 . S
O307 C305 1.282 . S
C308 O309 1.306 . S
C308 O311 1.160 . S
O309 C308 1.306 . S
O309 Cd310 2.228 . S
Cd310 O309 2.228 . S
Cd310 O314 2.273 . S
Cd310 O318 2.277 . S
O311 C308 1.160 . S
O311 Cd312 2.203 . S
Cd312 O311 2.203 . S
Cd312 O314 2.411 . S
Cd312 O315 2.333 . S
Cd312 O316 2.352 . S
Cd312 O320 2.277 . S
Cd312 O321 2.356 . S
C313 O318 1.209 . S
C313 O320 1.226 . S
O314 Cd310 2.273 . S
O314 Cd312 2.411 . S
O314 C317 1.320 . S
O315 Cd312 2.333 . S
O315 C317 1.214 . S
O316 Cd312 2.352 . S
O316 C319 1.258 . S
C317 O314 1.320 . S
C317 O315 1.214 . S
O318 Cd310 2.277 . S
O318 C313 1.209 . S
C319 O316 1.258 . S
C319 O321 1.282 . S
O320 Cd312 2.277 . S
O320 C313 1.226 . S
O321 Cd312 2.356 . S
O321 C319 1.282 . S
C322 O323 1.306 . S
C322 O325 1.160 . S
O323 C322 1.306 . S
O323 Cd324 2.228 . S
Cd324 O323 2.228 . S
Cd324 O328 2.273 . S
Cd324 O332 2.277 . S
O325 C322 1.160 . S
O325 Cd326 2.203 . S
Cd326 O325 2.203 . S
Cd326 O328 2.411 . S
Cd326 O329 2.333 . S
Cd326 O330 2.352 . S
Cd326 O334 2.277 . S
Cd326 O335 2.356 . S
C327 O332 1.209 . S
C327 O334 1.226 . S
O328 Cd324 2.273 . S
O328 Cd326 2.411 . S
O328 C331 1.320 . S
O329 Cd326 2.333 . S
O329 C331 1.214 . S
O330 Cd326 2.352 . S
O330 C333 1.258 . S
C331 O328 1.320 . S
C331 O329 1.214 . S
O332 Cd324 2.277 . S
O332 C327 1.209 . S
C333 O330 1.258 . S
C333 O335 1.282 . S
O334 Cd326 2.277 . S
O334 C327 1.226 . S
O335 Cd326 2.356 . S
O335 C333 1.282 . S
C336 C337 1.349 . S
C336 C338 1.327 . S
C336 H361 0.950 . S
C337 C336 1.349 . S
C337 C353 1.349 . S
C338 C336 1.327 . S
C338 C357 1.429 . S
C338 H362 0.950 . S
C339 C356 1.574 . S
C339 C358 1.368 . S
C339 H363 0.949 . S
H340 C344 0.949 . S
C341 C342 1.349 . S
C341 C343 1.327 . S
C341 H364 0.950 . S
C342 C341 1.349 . S
C342 C354 1.349 . S
C343 C341 1.327 . S
C343 C359 1.429 . S
C343 H365 0.950 . S
C344 H340 0.949 . S
C344 C352 1.574 . S
C344 C360 1.368 . S
H345 C353 0.950 . S
H346 C351 0.950 . S
H347 C352 0.949 . S
H348 C354 0.950 . S
H349 C355 0.950 . S
H350 C356 0.949 . S
C351 H346 0.950 . S
C351 C353 1.327 . S
C351 C357 1.429 . S
C352 C344 1.574 . S
C352 H347 0.949 . S
C352 C358 1.368 . S
C353 C337 1.349 . S
C353 H345 0.950 . S
C353 C351 1.327 . S
C354 C342 1.349 . S
C354 H348 0.950 . S
C354 C355 1.327 . S
C355 H349 0.950 . S
C355 C354 1.327 . S
C355 C359 1.429 . S
C356 C339 1.574 . S
C356 H350 0.949 . S
C356 C360 1.368 . S
C357 C338 1.429 . S
C357 C351 1.429 . S
C357 C358 1.523 . S
C358 C339 1.368 . S
C358 C352 1.368 . S
C358 C357 1.523 . S
C359 C343 1.429 . S
C359 C355 1.429 . S
C359 C360 1.523 . S
C360 C344 1.368 . S
C360 C356 1.368 . S
C360 C359 1.523 . S
H361 C336 0.950 . S
H362 C338 0.950 . S
H363 C339 0.949 . S
H364 C341 0.950 . S
H365 C343 0.950 . S
C366 C367 1.349 . S
C366 C368 1.327 . S
C366 H391 0.950 . S
C367 C366 1.349 . S
C367 C383 1.349 . S
C368 C366 1.327 . S
C368 C387 1.429 . S
C368 H392 0.950 . S
C369 C386 1.574 . S
C369 C388 1.368 . S
C369 H393 0.949 . S
H370 C374 0.949 . S
C371 C372 1.349 . S
C371 C373 1.327 . S
C371 H394 0.950 . S
C372 C371 1.349 . S
C372 C384 1.349 . S
C373 C371 1.327 . S
C373 C389 1.429 . S
C373 H395 0.950 . S
C374 H370 0.949 . S
C374 C382 1.574 . S
C374 C390 1.368 . S
H375 C383 0.950 . S
H376 C381 0.950 . S
H377 C382 0.949 . S
H378 C384 0.950 . S
H379 C385 0.950 . S
H380 C386 0.949 . S
C381 H376 0.950 . S
C381 C383 1.327 . S
C381 C387 1.429 . S
C382 C374 1.574 . S
C382 H377 0.949 . S
C382 C388 1.368 . S
C383 C367 1.349 . S
C383 H375 0.950 . S
C383 C381 1.327 . S
C384 C372 1.349 . S
C384 H378 0.950 . S
C384 C385 1.327 . S
C385 H379 0.950 . S
C385 C384 1.327 . S
C385 C389 1.429 . S
C386 C369 1.574 . S
C386 H380 0.949 . S
C386 C390 1.368 . S
C387 C368 1.429 . S
C387 C381 1.429 . S
C387 C388 1.523 . S
C388 C369 1.368 . S
C388 C382 1.368 . S
C388 C387 1.523 . S
C389 C373 1.429 . S
C389 C385 1.429 . S
C389 C390 1.523 . S
C390 C374 1.368 . S
C390 C386 1.368 . S
C390 C389 1.523 . S
H391 C366 0.950 . S
H392 C368 0.950 . S
H393 C369 0.949 . S
H394 C371 0.950 . S
H395 C373 0.950 . S
C396 C397 1.349 . S
C396 C398 1.327 . S
C396 H421 0.950 . S
C397 C396 1.349 . S
C397 C413 1.349 . S
C398 C396 1.327 . S
C398 C417 1.429 . S
C398 H422 0.950 . S
C399 C416 1.574 . S
C399 C418 1.368 . S
C399 H423 0.949 . S
H400 C404 0.949 . S
C401 C402 1.349 . S
C401 C403 1.327 . S
C401 H424 0.950 . S
C402 C401 1.349 . S
C402 C414 1.349 . S
C403 C401 1.327 . S
C403 C419 1.429 . S
C403 H425 0.950 . S
C404 H400 0.949 . S
C404 C412 1.574 . S
C404 C420 1.368 . S
H405 C413 0.950 . S
H406 C411 0.950 . S
H407 C412 0.949 . S
H408 C414 0.950 . S
H409 C415 0.950 . S
H410 C416 0.949 . S
C411 H406 0.950 . S
C411 C413 1.327 . S
C411 C417 1.429 . S
C412 C404 1.574 . S
C412 H407 0.949 . S
C412 C418 1.368 . S
C413 C397 1.349 . S
C413 H405 0.950 . S
C413 C411 1.327 . S
C414 C402 1.349 . S
C414 H408 0.950 . S
C414 C415 1.327 . S
C415 H409 0.950 . S
C415 C414 1.327 . S
C415 C419 1.429 . S
C416 C399 1.574 . S
C416 H410 0.949 . S
C416 C420 1.368 . S
C417 C398 1.429 . S
C417 C411 1.429 . S
C417 C418 1.523 . S
C418 C399 1.368 . S
C418 C412 1.368 . S
C418 C417 1.523 . S
C419 C403 1.429 . S
C419 C415 1.429 . S
C419 C420 1.523 . S
C420 C404 1.368 . S
C420 C416 1.368 . S
C420 C419 1.523 . S
H421 C396 0.950 . S
H422 C398 0.950 . S
H423 C399 0.949 . S
H424 C401 0.950 . S
H425 C403 0.950 . S
C426 C427 1.349 . S
C426 C428 1.327 . S
C426 H451 0.950 . S
C427 C426 1.349 . S
C427 C443 1.349 . S
C428 C426 1.327 . S
C428 C447 1.429 . S
C428 H452 0.950 . S
C429 C446 1.574 . S
C429 C448 1.368 . S
C429 H453 0.949 . S
H430 C434 0.949 . S
C431 C432 1.349 . S
C431 C433 1.327 . S
C431 H454 0.950 . S
C432 C431 1.349 . S
C432 C444 1.349 . S
C433 C431 1.327 . S
C433 C449 1.429 . S
C433 H455 0.950 . S
C434 H430 0.949 . S
C434 C442 1.574 . S
C434 C450 1.368 . S
H435 C443 0.950 . S
H436 C441 0.950 . S
H437 C442 0.949 . S
H438 C444 0.950 . S
H439 C445 0.950 . S
H440 C446 0.949 . S
C441 H436 0.950 . S
C441 C443 1.327 . S
C441 C447 1.429 . S
C442 C434 1.574 . S
C442 H437 0.949 . S
C442 C448 1.368 . S
C443 C427 1.349 . S
C443 H435 0.950 . S
C443 C441 1.327 . S
C444 C432 1.349 . S
C444 H438 0.950 . S
C444 C445 1.327 . S
C445 H439 0.950 . S
C445 C444 1.327 . S
C445 C449 1.429 . S
C446 C429 1.574 . S
C446 H440 0.949 . S
C446 C450 1.368 . S
C447 C428 1.429 . S
C447 C441 1.429 . S
C447 C448 1.523 . S
C448 C429 1.368 . S
C448 C442 1.368 . S
C448 C447 1.523 . S
C449 C433 1.429 . S
C449 C445 1.429 . S
C449 C450 1.523 . S
C450 C434 1.368 . S
C450 C446 1.368 . S
C450 C449 1.523 . S
H451 C426 0.950 . S
H452 C428 0.950 . S
H453 C429 0.949 . S
H454 C431 0.950 . S
H455 C433 0.950 . S
C456 C457 1.349 . S
C456 C458 1.327 . S
C456 H481 0.950 . S
C457 C456 1.349 . S
C457 C473 1.349 . S
C458 C456 1.327 . S
C458 C477 1.429 . S
C458 H482 0.950 . S
C459 C476 1.574 . S
C459 C478 1.368 . S
C459 H483 0.949 . S
H460 C464 0.949 . S
C461 C462 1.349 . S
C461 C463 1.327 . S
C461 H484 0.950 . S
C462 C461 1.349 . S
C462 C474 1.349 . S
C463 C461 1.327 . S
C463 C479 1.429 . S
C463 H485 0.950 . S
C464 H460 0.949 . S
C464 C472 1.574 . S
C464 C480 1.368 . S
H465 C473 0.950 . S
H466 C471 0.950 . S
H467 C472 0.949 . S
H468 C474 0.950 . S
H469 C475 0.950 . S
H470 C476 0.949 . S
C471 H466 0.950 . S
C471 C473 1.327 . S
C471 C477 1.429 . S
C472 C464 1.574 . S
C472 H467 0.949 . S
C472 C478 1.368 . S
C473 C457 1.349 . S
C473 H465 0.950 . S
C473 C471 1.327 . S
C474 C462 1.349 . S
C474 H468 0.950 . S
C474 C475 1.327 . S
C475 H469 0.950 . S
C475 C474 1.327 . S
C475 C479 1.429 . S
C476 C459 1.574 . S
C476 H470 0.949 . S
C476 C480 1.368 . S
C477 C458 1.429 . S
C477 C471 1.429 . S
C477 C478 1.523 . S
C478 C459 1.368 . S
C478 C472 1.368 . S
C478 C477 1.523 . S
C479 C463 1.429 . S
C479 C475 1.429 . S
C479 C480 1.523 . S
C480 C464 1.368 . S
C480 C476 1.368 . S
C480 C479 1.523 . S
H481 C456 0.950 . S
H482 C458 0.950 . S
H483 C459 0.949 . S
H484 C461 0.950 . S
H485 C463 0.950 . S
C486 C487 1.349 . S
C486 C488 1.327 . S
C486 H511 0.950 . S
C487 C486 1.349 . S
C487 C503 1.349 . S
C488 C486 1.327 . S
C488 C507 1.429 . S
C488 H512 0.950 . S
C489 C506 1.574 . S
C489 C508 1.368 . S
C489 H513 0.949 . S
H490 C494 0.949 . S
C491 C492 1.349 . S
C491 C493 1.327 . S
C491 H514 0.950 . S
C492 C491 1.349 . S
C492 C504 1.349 . S
C493 C491 1.327 . S
C493 C509 1.429 . S
C493 H515 0.950 . S
C494 H490 0.949 . S
C494 C502 1.574 . S
C494 C510 1.368 . S
H495 C503 0.950 . S
H496 C501 0.950 . S
H497 C502 0.949 . S
H498 C504 0.950 . S
H499 C505 0.950 . S
H500 C506 0.949 . S
C501 H496 0.950 . S
C501 C503 1.327 . S
C501 C507 1.429 . S
C502 C494 1.574 . S
C502 H497 0.949 . S
C502 C508 1.368 . S
C503 C487 1.349 . S
C503 H495 0.950 . S
C503 C501 1.327 . S
C504 C492 1.349 . S
C504 H498 0.950 . S
C504 C505 1.327 . S
C505 H499 0.950 . S
C505 C504 1.327 . S
C505 C509 1.429 . S
C506 C489 1.574 . S
C506 H500 0.949 . S
C506 C510 1.368 . S
C507 C488 1.429 . S
C507 C501 1.429 . S
C507 C508 1.523 . S
C508 C489 1.368 . S
C508 C502 1.368 . S
C508 C507 1.523 . S
C509 C493 1.429 . S
C509 C505 1.429 . S
C509 C510 1.523 . S
C510 C494 1.368 . S
C510 C506 1.368 . S
C510 C509 1.523 . S
H511 C486 0.950 . S
H512 C488 0.950 . S
H513 C489 0.949 . S
H514 C491 0.950 . S
H515 C493 0.950 . S
C516 C517 1.349 . S
C516 C518 1.327 . S
C516 H541 0.950 . S
C517 C516 1.349 . S
C517 C533 1.349 . S
C518 C516 1.327 . S
C518 C537 1.429 . S
C518 H542 0.950 . S
C519 C536 1.574 . S
C519 C538 1.368 . S
C519 H543 0.949 . S
H520 C524 0.949 . S
C521 C522 1.349 . S
C521 C523 1.327 . S
C521 H544 0.950 . S
C522 C521 1.349 . S
C522 C534 1.349 . S
C523 C521 1.327 . S
C523 C539 1.429 . S
C523 H545 0.950 . S
C524 H520 0.949 . S
C524 C532 1.574 . S
C524 C540 1.368 . S
H525 C533 0.950 . S
H526 C531 0.950 . S
H527 C532 0.949 . S
H528 C534 0.950 . S
H529 C535 0.950 . S
H530 C536 0.949 . S
C531 H526 0.950 . S
C531 C533 1.327 . S
C531 C537 1.429 . S
C532 C524 1.574 . S
C532 H527 0.949 . S
C532 C538 1.368 . S
C533 C517 1.349 . S
C533 H525 0.950 . S
C533 C531 1.327 . S
C534 C522 1.349 . S
C534 H528 0.950 . S
C534 C535 1.327 . S
C535 H529 0.950 . S
C535 C534 1.327 . S
C535 C539 1.429 . S
C536 C519 1.574 . S
C536 H530 0.949 . S
C536 C540 1.368 . S
C537 C518 1.429 . S
C537 C531 1.429 . S
C537 C538 1.523 . S
C538 C519 1.368 . S
C538 C532 1.368 . S
C538 C537 1.523 . S
C539 C523 1.429 . S
C539 C535 1.429 . S
C539 C540 1.523 . S
C540 C524 1.368 . S
C540 C536 1.368 . S
C540 C539 1.523 . S
H541 C516 0.950 . S
H542 C518 0.950 . S
H543 C519 0.949 . S
H544 C521 0.950 . S
H545 C523 0.950 . S
C546 C547 1.349 . S
C546 C548 1.327 . S
C546 H571 0.950 . S
C547 C546 1.349 . S
C547 C563 1.349 . S
C548 C546 1.327 . S
C548 C567 1.429 . S
C548 H572 0.950 . S
C549 C566 1.574 . S
C549 C568 1.368 . S
C549 H573 0.949 . S
H550 C554 0.949 . S
C551 C552 1.349 . S
C551 C553 1.327 . S
C551 H574 0.950 . S
C552 C551 1.349 . S
C552 C564 1.349 . S
C553 C551 1.327 . S
C553 C569 1.429 . S
C553 H575 0.950 . S
C554 H550 0.949 . S
C554 C562 1.574 . S
C554 C570 1.368 . S
H555 C563 0.950 . S
H556 C561 0.950 . S
H557 C562 0.949 . S
H558 C564 0.950 . S
H559 C565 0.950 . S
H560 C566 0.949 . S
C561 H556 0.950 . S
C561 C563 1.327 . S
C561 C567 1.429 . S
C562 C554 1.574 . S
C562 H557 0.949 . S
C562 C568 1.368 . S
C563 C547 1.349 . S
C563 H555 0.950 . S
C563 C561 1.327 . S
C564 C552 1.349 . S
C564 H558 0.950 . S
C564 C565 1.327 . S
C565 H559 0.950 . S
C565 C564 1.327 . S
C565 C569 1.429 . S
C566 C549 1.574 . S
C566 H560 0.949 . S
C566 C570 1.368 . S
C567 C548 1.429 . S
C567 C561 1.429 . S
C567 C568 1.523 . S
C568 C549 1.368 . S
C568 C562 1.368 . S
C568 C567 1.523 . S
C569 C553 1.429 . S
C569 C565 1.429 . S
C569 C570 1.523 . S
C570 C554 1.368 . S
C570 C566 1.368 . S
C570 C569 1.523 . S
H571 C546 0.950 . S
H572 C548 0.950 . S
H573 C549 0.949 . S
H574 C551 0.950 . S
H575 C553 0.950 . S
C576 C577 1.349 . S
C576 C578 1.327 . S
C576 H601 0.950 . S
C577 C576 1.349 . S
C577 C593 1.349 . S
C578 C576 1.327 . S
C578 C597 1.429 . S
C578 H602 0.950 . S
C579 C596 1.574 . S
C579 C598 1.368 . S
C579 H603 0.949 . S
H580 C584 0.949 . S
C581 C582 1.349 . S
C581 C583 1.327 . S
C581 H604 0.950 . S
C582 C581 1.349 . S
C582 C594 1.349 . S
C583 C581 1.327 . S
C583 C599 1.429 . S
C583 H605 0.950 . S
C584 H580 0.949 . S
C584 C592 1.574 . S
C584 C600 1.368 . S
H585 C593 0.950 . S
H586 C591 0.950 . S
H587 C592 0.949 . S
H588 C594 0.950 . S
H589 C595 0.950 . S
H590 C596 0.949 . S
C591 H586 0.950 . S
C591 C593 1.327 . S
C591 C597 1.429 . S
C592 C584 1.574 . S
C592 H587 0.949 . S
C592 C598 1.368 . S
C593 C577 1.349 . S
C593 H585 0.950 . S
C593 C591 1.327 . S
C594 C582 1.349 . S
C594 H588 0.950 . S
C594 C595 1.327 . S
C595 H589 0.950 . S
C595 C594 1.327 . S
C595 C599 1.429 . S
C596 C579 1.574 . S
C596 H590 0.949 . S
C596 C600 1.368 . S
C597 C578 1.429 . S
C597 C591 1.429 . S
C597 C598 1.523 . S
C598 C579 1.368 . S
C598 C592 1.368 . S
C598 C597 1.523 . S
C599 C583 1.429 . S
C599 C595 1.429 . S
C599 C600 1.523 . S
C600 C584 1.368 . S
C600 C596 1.368 . S
C600 C599 1.523 . S
H601 C576 0.950 . S
H602 C578 0.950 . S
H603 C579 0.949 . S
H604 C581 0.950 . S
H605 C583 0.950 . S
C606 C607 1.349 . S
C606 C608 1.327 . S
C606 H631 0.950 . S
C607 C606 1.349 . S
C607 C623 1.349 . S
C608 C606 1.327 . S
C608 C627 1.429 . S
C608 H632 0.950 . S
C609 C626 1.574 . S
C609 C628 1.368 . S
C609 H633 0.949 . S
H610 C614 0.949 . S
C611 C612 1.349 . S
C611 C613 1.327 . S
C611 H634 0.950 . S
C612 C611 1.349 . S
C612 C624 1.349 . S
C613 C611 1.327 . S
C613 C629 1.429 . S
C613 H635 0.950 . S
C614 H610 0.949 . S
C614 C622 1.574 . S
C614 C630 1.368 . S
H615 C623 0.950 . S
H616 C621 0.950 . S
H617 C622 0.949 . S
H618 C624 0.950 . S
H619 C625 0.950 . S
H620 C626 0.949 . S
C621 H616 0.950 . S
C621 C623 1.327 . S
C621 C627 1.429 . S
C622 C614 1.574 . S
C622 H617 0.949 . S
C622 C628 1.368 . S
C623 C607 1.349 . S
C623 H615 0.950 . S
C623 C621 1.327 . S
C624 C612 1.349 . S
C624 H618 0.950 . S
C624 C625 1.327 . S
C625 H619 0.950 . S
C625 C624 1.327 . S
C625 C629 1.429 . S
C626 C609 1.574 . S
C626 H620 0.949 . S
C626 C630 1.368 . S
C627 C608 1.429 . S
C627 C621 1.429 . S
C627 C628 1.523 . S
C628 C609 1.368 . S
C628 C622 1.368 . S
C628 C627 1.523 . S
C629 C613 1.429 . S
C629 C625 1.429 . S
C629 C630 1.523 . S
C630 C614 1.368 . S
C630 C626 1.368 . S
C630 C629 1.523 . S
H631 C606 0.950 . S
H632 C608 0.950 . S
H633 C609 0.949 . S
H634 C611 0.950 . S
H635 C613 0.950 . S
C636 C637 1.349 . S
C636 C638 1.327 . S
C636 H661 0.950 . S
C637 C636 1.349 . S
C637 C653 1.349 . S
C638 C636 1.327 . S
C638 C657 1.429 . S
C638 H662 0.950 . S
C639 C656 1.574 . S
C639 C658 1.368 . S
C639 H663 0.949 . S
H640 C644 0.949 . S
C641 C642 1.349 . S
C641 C643 1.327 . S
C641 H664 0.950 . S
C642 C641 1.349 . S
C642 C654 1.349 . S
C643 C641 1.327 . S
C643 C659 1.429 . S
C643 H665 0.950 . S
C644 H640 0.949 . S
C644 C652 1.574 . S
C644 C660 1.368 . S
H645 C653 0.964 . S
H646 C651 0.950 . S
H647 C652 0.949 . S
H648 C654 0.950 . S
H649 C655 0.950 . S
H650 C656 0.949 . S
C651 H646 0.950 . S
C651 C653 1.327 . S
C651 C657 1.429 . S
C652 C644 1.574 . S
C652 H647 0.949 . S
C652 C658 1.368 . S
C653 C637 1.349 . S
C653 H645 0.964 . S
C653 C651 1.327 . S
C654 C642 1.349 . S
C654 H648 0.950 . S
C654 C655 1.327 . S
C655 H649 0.950 . S
C655 C654 1.327 . S
C655 C659 1.429 . S
C656 C639 1.574 . S
C656 H650 0.949 . S
C656 C660 1.368 . S
C657 C638 1.429 . S
C657 C651 1.429 . S
C657 C658 1.523 . S
C658 C639 1.368 . S
C658 C652 1.368 . S
C658 C657 1.523 . S
C659 C643 1.429 . S
C659 C655 1.429 . S
C659 C660 1.523 . S
C660 C644 1.368 . S
C660 C656 1.368 . S
C660 C659 1.523 . S
H661 C636 0.950 . S
H662 C638 0.950 . S
H663 C639 0.949 . S
H664 C641 0.950 . S
H665 C643 0.950 . S
C666 C667 1.349 . S
C666 C668 1.327 . S
C666 H691 0.950 . S
C667 C666 1.349 . S
C667 C683 1.349 . S
C668 C666 1.327 . S
C668 C687 1.429 . S
C668 H692 0.950 . S
C669 C686 1.574 . S
C669 C688 1.368 . S
C669 H693 0.949 . S
H670 C674 0.949 . S
C671 C672 1.349 . S
C671 C673 1.327 . S
C671 H694 0.950 . S
C672 C671 1.349 . S
C672 C684 1.349 . S
C673 C671 1.327 . S
C673 C689 1.429 . S
C673 H695 0.950 . S
C674 H670 0.949 . S
C674 C682 1.574 . S
C674 C690 1.368 . S
H675 C683 0.950 . S
H676 C681 0.950 . S
H677 C682 0.949 . S
H678 C684 0.950 . S
H679 C685 0.950 . S
H680 C686 0.949 . S
C681 H676 0.950 . S
C681 C683 1.327 . S
C681 C687 1.429 . S
C682 C674 1.574 . S
C682 H677 0.949 . S
C682 C688 1.368 . S
C683 C667 1.349 . S
C683 H675 0.950 . S
C683 C681 1.327 . S
C684 C672 1.349 . S
C684 H678 0.950 . S
C684 C685 1.327 . S
C685 H679 0.950 . S
C685 C684 1.327 . S
C685 C689 1.429 . S
C686 C669 1.574 . S
C686 H680 0.949 . S
C686 C690 1.368 . S
C687 C668 1.429 . S
C687 C681 1.429 . S
C687 C688 1.523 . S
C688 C669 1.368 . S
C688 C682 1.368 . S
C688 C687 1.523 . S
C689 C673 1.429 . S
C689 C685 1.429 . S
C689 C690 1.523 . S
C690 C674 1.368 . S
C690 C686 1.368 . S
C690 C689 1.523 . S
H691 C666 0.950 . S
H692 C668 0.950 . S
H693 C669 0.949 . S
H694 C671 0.950 . S
H695 C673 0.950 . S
C696 C697 1.349 . S
C696 C698 1.327 . S
C696 H721 0.950 . S
C697 C696 1.349 . S
C697 C713 1.349 . S
C698 C696 1.327 . S
C698 C717 1.429 . S
C698 H722 0.950 . S
C699 C716 1.574 . S
C699 C718 1.368 . S
C699 H723 0.949 . S
H700 C704 0.949 . S
C701 C702 1.349 . S
C701 C703 1.327 . S
C701 H724 0.950 . S
C702 C701 1.349 . S
C702 C714 1.349 . S
C703 C701 1.327 . S
C703 C719 1.429 . S
C703 H725 0.950 . S
C704 H700 0.949 . S
C704 C712 1.574 . S
C704 C720 1.368 . S
H705 C713 0.950 . S
H706 C711 0.950 . S
H707 C712 0.949 . S
H708 C714 0.950 . S
H709 C715 0.950 . S
H710 C716 0.949 . S
C711 H706 0.950 . S
C711 C713 1.327 . S
C711 C717 1.429 . S
C712 C704 1.574 . S
C712 H707 0.949 . S
C712 C718 1.368 . S
C713 C697 1.349 . S
C713 H705 0.950 . S
C713 C711 1.327 . S
C714 C702 1.349 . S
C714 H708 0.950 . S
C714 C715 1.327 . S
C715 H709 0.950 . S
C715 C714 1.327 . S
C715 C719 1.429 . S
C716 C699 1.574 . S
C716 H710 0.949 . S
C716 C720 1.368 . S
C717 C698 1.429 . S
C717 C711 1.429 . S
C717 C718 1.523 . S
C718 C699 1.368 . S
C718 C712 1.368 . S
C718 C717 1.523 . S
C719 C703 1.429 . S
C719 C715 1.429 . S
C719 C720 1.523 . S
C720 C704 1.368 . S
C720 C716 1.368 . S
C720 C719 1.523 . S
H721 C696 0.950 . S
H722 C698 0.950 . S
H723 C699 0.949 . S
H724 C701 0.950 . S
H725 C703 0.950 . S
C726 C727 1.349 . S
C726 C728 1.327 . S
C726 H751 0.950 . S
C727 C726 1.349 . S
C727 C743 1.349 . S
C728 C726 1.327 . S
C728 C747 1.429 . S
C728 H752 0.950 . S
C729 C746 1.574 . S
C729 C748 1.368 . S
C729 H753 0.949 . S
H730 C734 0.949 . S
C731 C732 1.349 . S
C731 C733 1.327 . S
C731 H754 0.950 . S
C732 C731 1.349 . S
C732 C744 1.349 . S
C733 C731 1.327 . S
C733 C749 1.429 . S
C733 H755 0.950 . S
C734 H730 0.949 . S
C734 C742 1.574 . S
C734 C750 1.368 . S
H735 C743 0.950 1_455 S
H736 C741 0.950 . S
H737 C742 0.949 . S
H738 C744 0.950 . S
H739 C745 0.950 . S
H740 C746 0.949 . S
C741 H736 0.950 . S
C741 C743 1.327 . S
C741 C747 1.429 . S
C742 C734 1.574 . S
C742 H737 0.949 . S
C742 C748 1.368 . S
C743 C727 1.349 . S
C743 H735 0.950 1_655 S
C743 C741 1.327 . S
C744 C732 1.349 . S
C744 H738 0.950 . S
C744 C745 1.327 . S
C745 H739 0.950 . S
C745 C744 1.327 . S
C745 C749 1.429 . S
C746 C729 1.574 . S
C746 H740 0.949 . S
C746 C750 1.368 . S
C747 C728 1.429 . S
C747 C741 1.429 . S
C747 C748 1.523 . S
C748 C729 1.368 . S
C748 C742 1.368 . S
C748 C747 1.523 . S
C749 C733 1.429 . S
C749 C745 1.429 . S
C749 C750 1.523 . S
C750 C734 1.368 . S
C750 C746 1.368 . S
C750 C749 1.523 . S
H751 C726 0.950 . S
H752 C728 0.950 . S
H753 C729 0.949 . S
H754 C731 0.950 . S
H755 C733 0.950 . S
C756 C757 1.349 . S
C756 C758 1.327 . S
C756 H781 0.950 . S
C757 C756 1.349 . S
C757 C773 1.349 . S
C758 C756 1.327 . S
C758 C777 1.429 . S
C758 H782 0.950 . S
C759 C776 1.574 . S
C759 C778 1.368 . S
C759 H783 0.949 . S
H760 C764 0.949 . S
C761 C762 1.349 . S
C761 C763 1.327 . S
C761 H784 0.950 . S
C762 C761 1.349 . S
C762 C774 1.349 . S
C763 C761 1.327 . S
C763 C779 1.429 . S
C763 H785 0.950 . S
C764 H760 0.949 . S
C764 C772 1.574 . S
C764 C780 1.368 . S
H765 C773 0.950 . S
H766 C771 0.950 . S
H767 C772 0.949 . S
H768 C774 0.950 . S
H769 C775 0.950 . S
H770 C776 0.949 . S
C771 H766 0.950 . S
C771 C773 1.327 . S
C771 C777 1.429 . S
C772 C764 1.574 . S
C772 H767 0.949 . S
C772 C778 1.368 . S
C773 C757 1.349 . S
C773 H765 0.950 . S
C773 C771 1.327 . S
C774 C762 1.349 . S
C774 H768 0.950 . S
C774 C775 1.327 . S
C775 H769 0.950 . S
C775 C774 1.327 . S
C775 C779 1.429 . S
C776 C759 1.574 . S
C776 H770 0.949 . S
C776 C780 1.368 . S
C777 C758 1.429 . S
C777 C771 1.429 . S
C777 C778 1.523 . S
C778 C759 1.368 . S
C778 C772 1.368 . S
C778 C777 1.523 . S
C779 C763 1.429 . S
C779 C775 1.429 . S
C779 C780 1.523 . S
C780 C764 1.368 . S
C780 C776 1.368 . S
C780 C779 1.523 . S
H781 C756 0.950 . S
H782 C758 0.950 . S
H783 C759 0.949 . S
H784 C761 0.950 . S
H785 C763 0.950 . S
C786 C787 1.349 . S
C786 C788 1.327 . S
C786 H811 0.950 . S
C787 C786 1.349 . S
C787 C803 1.349 . S
C788 C786 1.327 . S
C788 C807 1.429 . S
C788 H812 0.950 . S
C789 C806 1.574 . S
C789 C808 1.368 . S
C789 H813 0.949 . S
H790 C794 0.949 . S
C791 C792 1.349 . S
C791 C793 1.327 . S
C791 H814 0.950 . S
C792 C791 1.349 . S
C792 C804 1.349 . S
C793 C791 1.327 . S
C793 C809 1.429 . S
C793 H815 0.950 . S
C794 H790 0.949 . S
C794 C802 1.574 . S
C794 C810 1.368 . S
H795 C803 0.950 . S
H796 C801 0.950 . S
H797 C802 0.949 . S
H798 C804 0.950 . S
H799 C805 0.950 . S
H800 C806 0.949 . S
C801 H796 0.950 . S
C801 C803 1.327 . S
C801 C807 1.429 . S
C802 C794 1.574 . S
C802 H797 0.949 . S
C802 C808 1.368 . S
C803 C787 1.349 . S
C803 H795 0.950 . S
C803 C801 1.327 . S
C804 C792 1.349 . S
C804 H798 0.950 . S
C804 C805 1.327 . S
C805 H799 0.950 . S
C805 C804 1.327 . S
C805 C809 1.429 . S
C806 C789 1.574 . S
C806 H800 0.949 . S
C806 C810 1.368 . S
C807 C788 1.429 . S
C807 C801 1.429 . S
C807 C808 1.523 . S
C808 C789 1.368 . S
C808 C802 1.368 . S
C808 C807 1.523 . S
C809 C793 1.429 . S
C809 C805 1.429 . S
C809 C810 1.523 . S
C810 C794 1.368 . S
C810 C806 1.368 . S
C810 C809 1.523 . S
H811 C786 0.950 . S
H812 C788 0.950 . S
H813 C789 0.949 . S
H814 C791 0.950 . S
H815 C793 0.950 . S
C816 C817 1.349 . S
C816 C818 1.327 . S
C816 H841 0.950 . S
C817 C816 1.349 . S
C817 C833 1.349 . S
C818 C816 1.327 . S
C818 C837 1.429 . S
C818 H842 0.950 . S
C819 C836 1.574 . S
C819 C838 1.368 . S
C819 H843 0.949 . S
H820 C824 0.949 . S
C821 C822 1.349 . S
C821 C823 1.327 . S
C821 H844 0.950 . S
C822 C821 1.349 . S
C822 C834 1.349 . S
C823 C821 1.327 . S
C823 C839 1.429 . S
C823 H845 0.950 . S
C824 H820 0.949 . S
C824 C832 1.574 . S
C824 C840 1.368 . S
H825 C833 0.950 . S
H826 C831 0.950 . S
H827 C832 0.949 . S
H828 C834 0.950 . S
H829 C835 0.950 . S
H830 C836 0.949 . S
C831 H826 0.950 . S
C831 C833 1.327 . S
C831 C837 1.429 . S
C832 C824 1.574 . S
C832 H827 0.949 . S
C832 C838 1.368 . S
C833 C817 1.349 . S
C833 H825 0.950 . S
C833 C831 1.327 . S
C834 C822 1.349 . S
C834 H828 0.950 . S
C834 C835 1.327 . S
C835 H829 0.950 . S
C835 C834 1.327 . S
C835 C839 1.429 . S
C836 C819 1.574 . S
C836 H830 0.949 . S
C836 C840 1.368 . S
C837 C818 1.429 . S
C837 C831 1.429 . S
C837 C838 1.523 . S
C838 C819 1.368 . S
C838 C832 1.368 . S
C838 C837 1.523 . S
C839 C823 1.429 . S
C839 C835 1.429 . S
C839 C840 1.523 . S
C840 C824 1.368 . S
C840 C836 1.368 . S
C840 C839 1.523 . S
H841 C816 0.950 . S
H842 C818 0.950 . S
H843 C819 0.949 . S
H844 C821 0.950 . S
H845 C823 0.950 . S
C846 C847 1.349 . S
C846 C848 1.327 . S
C846 H871 0.950 . S
C847 C846 1.349 . S
C847 C863 1.349 . S
C848 C846 1.327 . S
C848 C867 1.429 . S
C848 H872 0.950 . S
C849 C866 1.574 . S
C849 C868 1.368 . S
C849 H873 0.949 . S
H850 C854 0.949 . S
C851 C852 1.349 . S
C851 C853 1.327 . S
C851 H874 0.950 . S
C852 C851 1.349 . S
C852 C864 1.349 . S
C853 C851 1.327 . S
C853 C869 1.429 . S
C853 H875 0.950 . S
C854 H850 0.949 . S
C854 C862 1.574 . S
C854 C870 1.368 . S
H855 C863 0.950 . S
H856 C861 0.950 . S
H857 C862 0.949 . S
H858 C864 0.950 . S
H859 C865 0.950 . S
H860 C866 0.949 . S
C861 H856 0.950 . S
C861 C863 1.327 . S
C861 C867 1.429 . S
C862 C854 1.574 . S
C862 H857 0.949 . S
C862 C868 1.368 . S
C863 C847 1.349 . S
C863 H855 0.950 . S
C863 C861 1.327 . S
C864 C852 1.349 . S
C864 H858 0.950 . S
C864 C865 1.327 . S
C865 H859 0.950 . S
C865 C864 1.327 . S
C865 C869 1.429 . S
C866 C849 1.574 . S
C866 H860 0.949 . S
C866 C870 1.368 . S
C867 C848 1.429 . S
C867 C861 1.429 . S
C867 C868 1.523 . S
C868 C849 1.368 . S
C868 C862 1.368 . S
C868 C867 1.523 . S
C869 C853 1.429 . S
C869 C865 1.429 . S
C869 C870 1.523 . S
C870 C854 1.368 . S
C870 C866 1.368 . S
C870 C869 1.523 . S
H871 C846 0.950 . S
H872 C848 0.950 . S
H873 C849 0.949 . S
H874 C851 0.950 . S
H875 C853 0.950 . S
C876 C877 1.349 . S
C876 C878 1.327 . S
C876 H901 0.950 . S
C877 C876 1.349 . S
C877 C893 1.349 . S
C878 C876 1.327 . S
C878 C897 1.429 . S
C878 H902 0.950 . S
C879 C896 1.574 . S
C879 C898 1.368 . S
C879 H903 0.949 . S
H880 C884 0.949 . S
C881 C882 1.349 . S
C881 C883 1.327 . S
C881 H904 0.950 . S
C882 C881 1.349 . S
C882 C894 1.349 . S
C883 C881 1.327 . S
C883 C899 1.429 . S
C883 H905 0.950 . S
C884 H880 0.949 . S
C884 C892 1.574 . S
C884 C900 1.368 . S
H885 C893 0.950 . S
H886 C891 0.950 . S
H887 C892 0.949 . S
H888 C894 0.950 . S
H889 C895 0.950 . S
H890 C896 0.949 . S
C891 H886 0.950 . S
C891 C893 1.327 . S
C891 C897 1.429 . S
C892 C884 1.574 . S
C892 H887 0.949 . S
C892 C898 1.368 . S
C893 C877 1.349 . S
C893 H885 0.950 . S
C893 C891 1.327 . S
C894 C882 1.349 . S
C894 H888 0.950 . S
C894 C895 1.327 . S
C895 H889 0.950 . S
C895 C894 1.327 . S
C895 C899 1.429 . S
C896 C879 1.574 . S
C896 H890 0.949 . S
C896 C900 1.368 . S
C897 C878 1.429 . S
C897 C891 1.429 . S
C897 C898 1.523 . S
C898 C879 1.368 . S
C898 C892 1.368 . S
C898 C897 1.523 . S
C899 C883 1.429 . S
C899 C895 1.429 . S
C899 C900 1.523 . S
C900 C884 1.368 . S
C900 C896 1.368 . S
C900 C899 1.523 . S
H901 C876 0.950 . S
H902 C878 0.950 . S
H903 C879 0.949 . S
H904 C881 0.950 . S
H905 C883 0.950 . S
C906 C907 1.349 . S
C906 C908 1.327 . S
C906 H931 0.950 . S
C907 C906 1.349 . S
C907 C923 1.349 . S
C908 C906 1.327 . S
C908 C927 1.429 . S
C908 H932 0.950 . S
C909 C926 1.574 . S
C909 C928 1.368 . S
C909 H933 0.949 . S
H910 C914 0.949 . S
C911 C912 1.349 . S
C911 C913 1.327 . S
C911 H934 0.950 1_655 S
C912 C911 1.349 . S
C912 C924 1.349 . S
C913 C911 1.327 . S
C913 C929 1.429 . S
C913 H935 0.950 . S
C914 H910 0.949 . S
C914 C922 1.574 . S
C914 C930 1.368 . S
H915 C923 0.950 . S
H916 C921 0.950 . S
H917 C922 0.949 . S
H918 C924 0.950 . S
H919 C925 0.950 . S
H920 C926 0.949 . S
C921 H916 0.950 . S
C921 C923 1.327 . S
C921 C927 1.429 . S
C922 C914 1.574 . S
C922 H917 0.949 . S
C922 C928 1.368 . S
C923 C907 1.349 . S
C923 H915 0.950 . S
C923 C921 1.327 . S
C924 C912 1.349 . S
C924 H918 0.950 . S
C924 C925 1.327 . S
C925 H919 0.950 . S
C925 C924 1.327 . S
C925 C929 1.429 . S
C926 C909 1.574 . S
C926 H920 0.949 . S
C926 C930 1.368 . S
C927 C908 1.429 . S
C927 C921 1.429 . S
C927 C928 1.523 . S
C928 C909 1.368 . S
C928 C922 1.368 . S
C928 C927 1.523 . S
C929 C913 1.429 . S
C929 C925 1.429 . S
C929 C930 1.523 . S
C930 C914 1.368 . S
C930 C926 1.368 . S
C930 C929 1.523 . S
H931 C906 0.950 . S
H932 C908 0.950 . S
H933 C909 0.949 . S
H934 C911 0.950 1_455 S
H935 C913 0.950 . S
C936 C937 1.349 . S
C936 C938 1.327 . S
C936 H961 0.950 . S
C937 C936 1.349 . S
C937 C953 1.349 . S
C938 C936 1.327 . S
C938 C957 1.429 . S
C938 H962 0.950 . S
C939 C956 1.574 . S
C939 C958 1.368 . S
C939 H963 0.949 . S
H940 C944 0.949 . S
C941 C942 1.349 . S
C941 C943 1.327 . S
C941 H964 0.950 . S
C942 C941 1.349 . S
C942 C954 1.349 . S
C943 C941 1.327 . S
C943 C959 1.429 . S
C943 H965 0.950 . S
C944 H940 0.949 . S
C944 C952 1.574 . S
C944 C960 1.368 . S
H945 C953 0.950 . S
H946 C951 0.950 . S
H947 C952 0.949 . S
H948 C954 0.950 . S
H949 C955 0.950 . S
H950 C956 0.949 . S
C951 H946 0.950 . S
C951 C953 1.327 . S
C951 C957 1.429 . S
C952 C944 1.574 . S
C952 H947 0.949 . S
C952 C958 1.368 . S
C953 C937 1.349 . S
C953 H945 0.950 . S
C953 C951 1.327 . S
C954 C942 1.349 . S
C954 H948 0.950 . S
C954 C955 1.327 . S
C955 H949 0.950 . S
C955 C954 1.327 . S
C955 C959 1.429 . S
C956 C939 1.574 . S
C956 H950 0.949 . S
C956 C960 1.368 . S
C957 C938 1.429 . S
C957 C951 1.429 . S
C957 C958 1.523 . S
C958 C939 1.368 . S
C958 C952 1.368 . S
C958 C957 1.523 . S
C959 C943 1.429 . S
C959 C955 1.429 . S
C959 C960 1.523 . S
C960 C944 1.368 . S
C960 C956 1.368 . S
C960 C959 1.523 . S
H961 C936 0.950 . S
H962 C938 0.950 . S
H963 C939 0.949 . S
H964 C941 0.950 . S
H965 C943 0.950 . S
C966 C967 1.349 . S
C966 C968 1.327 . S
C966 H991 0.950 . S
C967 C966 1.349 . S
C967 C983 1.349 . S
C968 C966 1.327 . S
C968 C987 1.429 . S
C968 H992 0.950 . S
C969 C986 1.574 . S
C969 C988 1.368 . S
C969 H993 0.949 . S
H970 C974 0.949 . S
C971 C972 1.349 . S
C971 C973 1.327 . S
C971 H994 0.950 . S
C972 C971 1.349 . S
C972 C984 1.349 . S
C973 C971 1.327 . S
C973 C989 1.429 . S
C973 H995 0.950 . S
C974 H970 0.949 . S
C974 C982 1.574 . S
C974 C990 1.368 . S
H975 C983 0.950 . S
H976 C981 0.950 . S
H977 C982 0.949 . S
H978 C984 0.950 . S
H979 C985 0.950 . S
H980 C986 0.949 . S
C981 H976 0.950 . S
C981 C983 1.327 . S
C981 C987 1.429 . S
C982 C974 1.574 . S
C982 H977 0.949 . S
C982 C988 1.368 . S
C983 C967 1.349 . S
C983 H975 0.950 . S
C983 C981 1.327 . S
C984 C972 1.349 . S
C984 H978 0.950 . S
C984 C985 1.327 . S
C985 H979 0.950 . S
C985 C984 1.327 . S
C985 C989 1.429 . S
C986 C969 1.574 . S
C986 H980 0.949 . S
C986 C990 1.368 . S
C987 C968 1.429 . S
C987 C981 1.429 . S
C987 C988 1.523 . S
C988 C969 1.368 . S
C988 C982 1.368 . S
C988 C987 1.523 . S
C989 C973 1.429 . S
C989 C985 1.429 . S
C989 C990 1.523 . S
C990 C974 1.368 . S
C990 C986 1.368 . S
C990 C989 1.523 . S
H991 C966 0.950 . S
H992 C968 0.950 . S
H993 C969 0.949 . S
H994 C971 0.950 . S
H995 C973 0.950 . S
C996 C997 1.349 . S
C996 C998 1.327 . S
C996 H1021 0.950 . S
C997 C996 1.349 . S
C997 C1013 1.349 . S
C998 C996 1.327 . S
C998 C1017 1.429 . S
C998 H1022 0.950 . S
C999 C1016 1.574 . S
C999 C1018 1.368 . S
C999 H1023 0.949 . S
H1000 C1004 0.949 . S
C1001 C1002 1.349 . S
C1001 C1003 1.327 . S
C1001 H1024 0.950 . S
C1002 C1001 1.349 . S
C1002 C1014 1.349 . S
C1003 C1001 1.327 . S
C1003 C1019 1.429 . S
C1003 H1025 0.950 . S
C1004 H1000 0.949 . S
C1004 C1012 1.574 . S
C1004 C1020 1.368 . S
H1005 C1013 0.950 . S
H1006 C1011 0.950 . S
H1007 C1012 0.949 . S
H1008 C1014 0.950 . S
H1009 C1015 0.950 . S
H1010 C1016 0.949 . S
C1011 H1006 0.950 . S
C1011 C1013 1.327 . S
C1011 C1017 1.429 . S
C1012 C1004 1.574 . S
C1012 H1007 0.949 . S
C1012 C1018 1.368 . S
C1013 C997 1.349 . S
C1013 H1005 0.950 . S
C1013 C1011 1.327 . S
C1014 C1002 1.349 . S
C1014 H1008 0.950 . S
C1014 C1015 1.327 . S
C1015 H1009 0.950 . S
C1015 C1014 1.327 . S
C1015 C1019 1.429 . S
C1016 C999 1.574 . S
C1016 H1010 0.949 . S
C1016 C1020 1.368 . S
C1017 C998 1.429 . S
C1017 C1011 1.429 . S
C1017 C1018 1.523 . S
C1018 C999 1.368 . S
C1018 C1012 1.368 . S
C1018 C1017 1.523 . S
C1019 C1003 1.429 . S
C1019 C1015 1.429 . S
C1019 C1020 1.523 . S
C1020 C1004 1.368 . S
C1020 C1016 1.368 . S
C1020 C1019 1.523 . S
H1021 C996 0.950 . S
H1022 C998 0.950 . S
H1023 C999 0.949 . S
H1024 C1001 0.950 . S
H1025 C1003 0.950 . S
C1026 C1027 1.349 . S
C1026 C1028 1.327 . S
C1026 H1051 0.950 . S
C1027 C1026 1.349 . S
C1027 C1043 1.349 . S
C1028 C1026 1.327 . S
C1028 C1047 1.429 . S
C1028 H1052 0.950 . S
C1029 C1046 1.574 . S
C1029 C1048 1.368 . S
C1029 H1053 0.949 . S
H1030 C1034 0.949 . S
C1031 C1032 1.349 . S
C1031 C1033 1.327 . S
C1031 H1054 0.950 . S
C1032 C1031 1.349 . S
C1032 C1044 1.349 . S
C1033 C1031 1.327 . S
C1033 C1049 1.429 . S
C1033 H1055 0.950 . S
C1034 H1030 0.949 . S
C1034 C1042 1.574 . S
C1034 C1050 1.368 . S
H1035 C1043 0.950 . S
H1036 C1041 0.950 . S
H1037 C1042 0.949 . S
H1038 C1044 0.950 . S
H1039 C1045 0.950 . S
H1040 C1046 0.949 . S
C1041 H1036 0.950 . S
C1041 C1043 1.327 . S
C1041 C1047 1.429 . S
C1042 C1034 1.574 . S
C1042 H1037 0.949 . S
C1042 C1048 1.368 . S
C1043 C1027 1.349 . S
C1043 H1035 0.950 . S
C1043 C1041 1.327 . S
C1044 C1032 1.349 . S
C1044 H1038 0.950 . S
C1044 C1045 1.327 . S
C1045 H1039 0.950 . S
C1045 C1044 1.327 . S
C1045 C1049 1.429 . S
C1046 C1029 1.574 . S
C1046 H1040 0.949 . S
C1046 C1050 1.368 . S
C1047 C1028 1.429 . S
C1047 C1041 1.429 . S
C1047 C1048 1.523 . S
C1048 C1029 1.368 . S
C1048 C1042 1.368 . S
C1048 C1047 1.523 . S
C1049 C1033 1.429 . S
C1049 C1045 1.429 . S
C1049 C1050 1.523 . S
C1050 C1034 1.368 . S
C1050 C1046 1.368 . S
C1050 C1049 1.523 . S
H1051 C1026 0.950 . S
H1052 C1028 0.950 . S
H1053 C1029 0.949 . S
H1054 C1031 0.950 . S
H1055 C1033 0.950 . S
C1056 C1057 1.349 . S
C1056 C1058 1.327 . S
C1056 H1081 0.950 1_565 S
C1057 C1056 1.349 . S
C1057 C1073 1.349 . S
C1058 C1056 1.327 . S
C1058 C1077 1.429 . S
C1058 H1082 0.950 . S
C1059 C1076 1.574 . S
C1059 C1078 1.368 . S
C1059 H1083 0.949 . S
H1060 C1064 0.949 . S
C1061 C1062 1.349 . S
C1061 C1063 1.327 . S
C1061 H1084 0.950 . S
C1062 C1061 1.349 . S
C1062 C1074 1.349 . S
C1063 C1061 1.327 . S
C1063 C1079 1.429 . S
C1063 H1085 0.950 . S
C1064 H1060 0.949 . S
C1064 C1072 1.574 . S
C1064 C1080 1.368 . S
H1065 C1073 0.950 . S
H1066 C1071 0.950 . S
H1067 C1072 0.949 . S
H1068 C1074 0.950 . S
H1069 C1075 0.950 . S
H1070 C1076 0.949 . S
C1071 H1066 0.950 . S
C1071 C1073 1.327 . S
C1071 C1077 1.429 . S
C1072 C1064 1.574 . S
C1072 H1067 0.949 . S
C1072 C1078 1.368 . S
C1073 C1057 1.349 . S
C1073 H1065 0.950 . S
C1073 C1071 1.327 . S
C1074 C1062 1.349 . S
C1074 H1068 0.950 . S
C1074 C1075 1.327 . S
C1075 H1069 0.950 . S
C1075 C1074 1.327 . S
C1075 C1079 1.429 . S
C1076 C1059 1.574 . S
C1076 H1070 0.949 . S
C1076 C1080 1.368 . S
C1077 C1058 1.429 . S
C1077 C1071 1.429 . S
C1077 C1078 1.523 . S
C1078 C1059 1.368 . S
C1078 C1072 1.368 . S
C1078 C1077 1.523 . S
C1079 C1063 1.429 . S
C1079 C1075 1.429 . S
C1079 C1080 1.523 . S
C1080 C1064 1.368 . S
C1080 C1076 1.368 . S
C1080 C1079 1.523 . S
H1081 C1056 0.950 1_545 S
H1082 C1058 0.950 . S
H1083 C1059 0.949 . S
H1084 C1061 0.950 . S
H1085 C1063 0.950 . S
C1086 C1087 1.349 . S
C1086 C1088 1.327 . S
C1086 H1111 0.950 . S
C1087 C1086 1.349 . S
C1087 C1103 1.349 . S
C1088 C1086 1.327 . S
C1088 C1107 1.429 . S
C1088 H1112 0.950 . S
C1089 C1106 1.574 . S
C1089 C1108 1.368 . S
C1089 H1113 0.949 . S
H1090 C1094 0.949 . S
C1091 C1092 1.349 . S
C1091 C1093 1.327 . S
C1091 H1114 0.950 . S
C1092 C1091 1.349 . S
C1092 C1104 1.349 . S
C1093 C1091 1.327 . S
C1093 C1109 1.429 . S
C1093 H1115 0.950 . S
C1094 H1090 0.949 . S
C1094 C1102 1.574 . S
C1094 C1110 1.368 . S
H1095 C1103 0.950 . S
H1096 C1101 0.950 . S
H1097 C1102 0.949 . S
H1098 C1104 0.950 . S
H1099 C1105 0.950 . S
H1100 C1106 0.949 . S
C1101 H1096 0.950 . S
C1101 C1103 1.327 . S
C1101 C1107 1.429 . S
C1102 C1094 1.574 . S
C1102 H1097 0.949 . S
C1102 C1108 1.368 . S
C1103 C1087 1.349 . S
C1103 H1095 0.950 . S
C1103 C1101 1.327 . S
C1104 C1092 1.349 . S
C1104 H1098 0.950 . S
C1104 C1105 1.327 . S
C1105 H1099 0.950 . S
C1105 C1104 1.327 . S
C1105 C1109 1.429 . S
C1106 C1089 1.574 . S
C1106 H1100 0.949 . S
C1106 C1110 1.368 . S
C1107 C1088 1.429 . S
C1107 C1101 1.429 . S
C1107 C1108 1.523 . S
C1108 C1089 1.368 . S
C1108 C1102 1.368 . S
C1108 C1107 1.523 . S
C1109 C1093 1.429 . S
C1109 C1105 1.429 . S
C1109 C1110 1.523 . S
C1110 C1094 1.368 . S
C1110 C1106 1.368 . S
C1110 C1109 1.523 . S
H1111 C1086 0.950 . S
H1112 C1088 0.950 . S
H1113 C1089 0.949 . S
H1114 C1091 0.950 . S
H1115 C1093 0.950 . S
C1116 C1117 1.349 . S
C1116 C1118 1.327 . S
C1116 H1141 0.950 . S
C1117 C1116 1.349 . S
C1117 C1133 1.349 . S
C1118 C1116 1.327 . S
C1118 C1137 1.429 . S
C1118 H1142 0.950 . S
C1119 C1136 1.574 . S
C1119 C1138 1.368 . S
C1119 H1143 0.949 . S
H1120 C1124 0.949 . S
C1121 C1122 1.349 . S
C1121 C1123 1.327 . S
C1121 H1144 0.950 . S
C1122 C1121 1.349 . S
C1122 C1134 1.349 . S
C1123 C1121 1.327 . S
C1123 C1139 1.429 . S
C1123 H1145 0.950 . S
C1124 H1120 0.949 . S
C1124 C1132 1.574 . S
C1124 C1140 1.368 . S
H1125 C1133 0.950 . S
H1126 C1131 0.950 . S
H1127 C1132 0.949 . S
H1128 C1134 0.950 . S
H1129 C1135 0.950 . S
H1130 C1136 0.949 . S
C1131 H1126 0.950 . S
C1131 C1133 1.327 . S
C1131 C1137 1.429 . S
C1132 C1124 1.574 . S
C1132 H1127 0.949 . S
C1132 C1138 1.368 . S
C1133 C1117 1.349 . S
C1133 H1125 0.950 . S
C1133 C1131 1.327 . S
C1134 C1122 1.349 . S
C1134 H1128 0.950 . S
C1134 C1135 1.327 . S
C1135 H1129 0.950 . S
C1135 C1134 1.327 . S
C1135 C1139 1.429 . S
C1136 C1119 1.574 . S
C1136 H1130 0.949 . S
C1136 C1140 1.368 . S
C1137 C1118 1.429 . S
C1137 C1131 1.429 . S
C1137 C1138 1.523 . S
C1138 C1119 1.368 . S
C1138 C1132 1.368 . S
C1138 C1137 1.523 . S
C1139 C1123 1.429 . S
C1139 C1135 1.429 . S
C1139 C1140 1.523 . S
C1140 C1124 1.368 . S
C1140 C1136 1.368 . S
C1140 C1139 1.523 . S
H1141 C1116 0.950 . S
H1142 C1118 0.950 . S
H1143 C1119 0.949 . S
H1144 C1121 0.950 . S
H1145 C1123 0.950 . S
C1146 C1147 1.349 . S
C1146 C1148 1.327 . S
C1146 H1171 0.950 . S
C1147 C1146 1.349 . S
C1147 C1163 1.349 . S
C1148 C1146 1.327 . S
C1148 C1167 1.429 . S
C1148 H1172 0.950 . S
C1149 C1166 1.574 . S
C1149 C1168 1.368 . S
C1149 H1173 0.949 . S
H1150 C1154 0.949 . S
C1151 C1152 1.349 . S
C1151 C1153 1.327 . S
C1151 H1174 0.950 1_556 S
C1152 C1151 1.349 . S
C1152 C1164 1.349 . S
C1153 C1151 1.327 . S
C1153 C1169 1.429 . S
C1153 H1175 0.950 . S
C1154 H1150 0.949 . S
C1154 C1162 1.574 . S
C1154 C1170 1.368 . S
H1155 C1163 0.950 . S
H1156 C1161 0.950 . S
H1157 C1162 0.949 . S
H1158 C1164 0.950 . S
H1159 C1165 0.950 . S
H1160 C1166 0.949 . S
C1161 H1156 0.950 . S
C1161 C1163 1.327 . S
C1161 C1167 1.429 . S
C1162 C1154 1.574 . S
C1162 H1157 0.949 . S
C1162 C1168 1.368 . S
C1163 C1147 1.349 . S
C1163 H1155 0.950 . S
C1163 C1161 1.327 . S
C1164 C1152 1.349 . S
C1164 H1158 0.950 . S
C1164 C1165 1.327 . S
C1165 H1159 0.950 . S
C1165 C1164 1.327 . S
C1165 C1169 1.429 . S
C1166 C1149 1.574 . S
C1166 H1160 0.949 . S
C1166 C1170 1.368 . S
C1167 C1148 1.429 . S
C1167 C1161 1.429 . S
C1167 C1168 1.523 . S
C1168 C1149 1.368 . S
C1168 C1162 1.368 . S
C1168 C1167 1.523 . S
C1169 C1153 1.429 . S
C1169 C1165 1.429 . S
C1169 C1170 1.523 . S
C1170 C1154 1.368 . S
C1170 C1166 1.368 . S
C1170 C1169 1.523 . S
H1171 C1146 0.950 . S
H1172 C1148 0.950 . S
H1173 C1149 0.949 . S
H1174 C1151 0.950 1_554 S
H1175 C1153 0.950 . S
C1176 C1177 1.349 . S
C1176 C1178 1.327 . S
C1176 H1201 0.950 . S
C1177 C1176 1.349 . S
C1177 C1193 1.349 . S
C1178 C1176 1.327 . S
C1178 C1197 1.429 . S
C1178 H1202 0.950 . S
C1179 C1196 1.574 . S
C1179 C1198 1.368 . S
C1179 H1203 0.949 . S
H1180 C1184 0.949 . S
C1181 C1182 1.349 . S
C1181 C1183 1.327 . S
C1181 H1204 0.950 . S
C1182 C1181 1.349 . S
C1182 C1194 1.349 . S
C1183 C1181 1.327 . S
C1183 C1199 1.429 . S
C1183 H1205 0.950 . S
C1184 H1180 0.949 . S
C1184 C1192 1.574 . S
C1184 C1200 1.368 . S
H1185 C1193 0.950 . S
H1186 C1191 0.950 . S
H1187 C1192 0.949 . S
H1188 C1194 0.950 . S
H1189 C1195 0.950 . S
H1190 C1196 0.949 . S
C1191 H1186 0.950 . S
C1191 C1193 1.327 . S
C1191 C1197 1.429 . S
C1192 C1184 1.574 . S
C1192 H1187 0.949 . S
C1192 C1198 1.368 . S
C1193 C1177 1.349 . S
C1193 H1185 0.950 . S
C1193 C1191 1.327 . S
C1194 C1182 1.349 . S
C1194 H1188 0.950 . S
C1194 C1195 1.327 . S
C1195 H1189 0.950 . S
C1195 C1194 1.327 . S
C1195 C1199 1.429 . S
C1196 C1179 1.574 . S
C1196 H1190 0.949 . S
C1196 C1200 1.368 . S
C1197 C1178 1.429 . S
C1197 C1191 1.429 . S
C1197 C1198 1.523 . S
C1198 C1179 1.368 . S
C1198 C1192 1.368 . S
C1198 C1197 1.523 . S
C1199 C1183 1.429 . S
C1199 C1195 1.429 . S
C1199 C1200 1.523 . S
C1200 C1184 1.368 . S
C1200 C1196 1.368 . S
C1200 C1199 1.523 . S
H1201 C1176 0.950 . S
H1202 C1178 0.950 . S
H1203 C1179 0.949 . S
H1204 C1181 0.950 . S
H1205 C1183 0.950 . S
C1206 C1207 1.349 . S
C1206 C1208 1.327 . S
C1206 H1231 0.950 . S
C1207 C1206 1.349 . S
C1207 C1223 1.349 . S
C1208 C1206 1.327 . S
C1208 C1227 1.429 . S
C1208 H1232 0.950 . S
C1209 C1226 1.574 . S
C1209 C1228 1.368 . S
C1209 H1233 0.949 . S
H1210 C1214 0.949 . S
C1211 C1212 1.349 . S
C1211 C1213 1.327 . S
C1211 H1234 0.950 . S
C1212 C1211 1.349 . S
C1212 C1224 1.349 . S
C1213 C1211 1.327 . S
C1213 C1229 1.429 . S
C1213 H1235 0.950 . S
C1214 H1210 0.949 . S
C1214 C1222 1.574 . S
C1214 C1230 1.368 . S
H1215 C1223 0.950 . S
H1216 C1221 0.950 . S
H1217 C1222 0.949 . S
H1218 C1224 0.950 . S
H1219 C1225 0.950 . S
H1220 C1226 0.949 . S
C1221 H1216 0.950 . S
C1221 C1223 1.327 . S
C1221 C1227 1.429 . S
C1222 C1214 1.574 . S
C1222 H1217 0.949 . S
C1222 C1228 1.368 . S
C1223 C1207 1.349 . S
C1223 H1215 0.950 . S
C1223 C1221 1.327 . S
C1224 C1212 1.349 . S
C1224 H1218 0.950 . S
C1224 C1225 1.327 . S
C1225 H1219 0.950 . S
C1225 C1224 1.327 . S
C1225 C1229 1.429 . S
C1226 C1209 1.574 . S
C1226 H1220 0.949 . S
C1226 C1230 1.368 . S
C1227 C1208 1.429 . S
C1227 C1221 1.429 . S
C1227 C1228 1.523 . S
C1228 C1209 1.368 . S
C1228 C1222 1.368 . S
C1228 C1227 1.523 . S
C1229 C1213 1.429 . S
C1229 C1225 1.429 . S
C1229 C1230 1.523 . S
C1230 C1214 1.368 . S
C1230 C1226 1.368 . S
C1230 C1229 1.523 . S
H1231 C1206 0.950 . S
H1232 C1208 0.950 . S
H1233 C1209 0.949 . S
H1234 C1211 0.950 . S
H1235 C1213 0.950 . S
C1236 C1237 1.349 . S
C1236 C1238 1.327 . S
C1236 H1261 0.950 . S
C1237 C1236 1.349 . S
C1237 C1253 1.349 . S
C1238 C1236 1.327 . S
C1238 C1257 1.429 . S
C1238 H1262 0.950 . S
C1239 C1256 1.574 . S
C1239 C1258 1.368 . S
C1239 H1263 0.949 . S
H1240 C1244 0.949 . S
C1241 C1242 1.349 . S
C1241 C1243 1.327 . S
C1241 H1264 0.950 . S
C1242 C1241 1.349 . S
C1242 C1254 1.349 . S
C1243 C1241 1.327 . S
C1243 C1259 1.429 . S
C1243 H1265 0.950 . S
C1244 H1240 0.949 . S
C1244 C1252 1.574 . S
C1244 C1260 1.368 . S
H1245 C1253 0.950 . S
H1246 C1251 0.950 . S
H1247 C1252 0.949 . S
H1248 C1254 0.950 . S
H1249 C1255 0.950 . S
H1250 C1256 0.949 . S
C1251 H1246 0.950 . S
C1251 C1253 1.327 . S
C1251 C1257 1.429 . S
C1252 C1244 1.574 . S
C1252 H1247 0.949 . S
C1252 C1258 1.368 . S
C1253 C1237 1.349 . S
C1253 H1245 0.950 . S
C1253 C1251 1.327 . S
C1254 C1242 1.349 . S
C1254 H1248 0.950 . S
C1254 C1255 1.327 . S
C1255 H1249 0.950 . S
C1255 C1254 1.327 . S
C1255 C1259 1.429 . S
C1256 C1239 1.574 . S
C1256 H1250 0.949 . S
C1256 C1260 1.368 . S
C1257 C1238 1.429 . S
C1257 C1251 1.429 . S
C1257 C1258 1.523 . S
C1258 C1239 1.368 . S
C1258 C1252 1.368 . S
C1258 C1257 1.523 . S
C1259 C1243 1.429 . S
C1259 C1255 1.429 . S
C1259 C1260 1.523 . S
C1260 C1244 1.368 . S
C1260 C1256 1.368 . S
C1260 C1259 1.523 . S
H1261 C1236 0.950 . S
H1262 C1238 0.950 . S
H1263 C1239 0.949 . S
H1264 C1241 0.950 . S
H1265 C1243 0.950 . S
C1266 C1267 1.349 . S
C1266 C1268 1.327 . S
C1266 H1291 0.950 . S
C1267 C1266 1.349 . S
C1267 C1283 1.349 . S
C1268 C1266 1.327 . S
C1268 C1287 1.429 . S
C1268 H1292 0.950 . S
C1269 C1286 1.574 . S
C1269 C1288 1.368 . S
C1269 H1293 0.949 . S
H1270 C1274 0.949 . S
C1271 C1272 1.349 . S
C1271 C1273 1.327 . S
C1271 H1294 0.950 . S
C1272 C1271 1.349 . S
C1272 C1284 1.349 . S
C1273 C1271 1.327 . S
C1273 C1289 1.429 . S
C1273 H1295 0.950 . S
C1274 H1270 0.949 . S
C1274 C1282 1.574 . S
C1274 C1290 1.368 . S
H1275 C1283 0.950 . S
H1276 C1281 0.950 . S
H1277 C1282 0.949 . S
H1278 C1284 0.950 . S
H1279 C1285 0.950 . S
H1280 C1286 0.949 . S
C1281 H1276 0.950 . S
C1281 C1283 1.327 . S
C1281 C1287 1.429 . S
C1282 C1274 1.574 . S
C1282 H1277 0.949 . S
C1282 C1288 1.368 . S
C1283 C1267 1.349 . S
C1283 H1275 0.950 . S
C1283 C1281 1.327 . S
C1284 C1272 1.349 . S
C1284 H1278 0.950 . S
C1284 C1285 1.327 . S
C1285 H1279 0.950 . S
C1285 C1284 1.327 . S
C1285 C1289 1.429 . S
C1286 C1269 1.574 . S
C1286 H1280 0.949 . S
C1286 C1290 1.368 . S
C1287 C1268 1.429 . S
C1287 C1281 1.429 . S
C1287 C1288 1.523 . S
C1288 C1269 1.368 . S
C1288 C1282 1.368 . S
C1288 C1287 1.523 . S
C1289 C1273 1.429 . S
C1289 C1285 1.429 . S
C1289 C1290 1.523 . S
C1290 C1274 1.368 . S
C1290 C1286 1.368 . S
C1290 C1289 1.523 . S
H1291 C1266 0.950 . S
H1292 C1268 0.950 . S
H1293 C1269 0.949 . S
H1294 C1271 0.950 . S
H1295 C1273 0.950 . S
C1296 C1297 1.349 . S
C1296 C1298 1.327 . S
C1296 H1321 0.950 . S
C1297 C1296 1.349 . S
C1297 C1313 1.349 . S
C1298 C1296 1.327 . S
C1298 C1317 1.429 . S
C1298 H1322 0.950 . S
C1299 C1316 1.574 . S
C1299 C1318 1.368 . S
C1299 H1323 0.949 . S
H1300 C1304 0.949 . S
C1301 C1302 1.349 . S
C1301 C1303 1.327 . S
C1301 H1324 0.950 . S
C1302 C1301 1.349 . S
C1302 C1314 1.349 . S
C1303 C1301 1.327 . S
C1303 C1319 1.429 . S
C1303 H1325 0.950 . S
C1304 H1300 0.949 . S
C1304 C1312 1.574 . S
C1304 C1320 1.368 . S
H1305 C1313 0.950 . S
H1306 C1311 0.950 . S
H1307 C1312 0.949 . S
H1308 C1314 0.950 . S
H1309 C1315 0.950 . S
H1310 C1316 0.949 . S
C1311 H1306 0.950 . S
C1311 C1313 1.327 . S
C1311 C1317 1.429 . S
C1312 C1304 1.574 . S
C1312 H1307 0.949 . S
C1312 C1318 1.368 . S
C1313 C1297 1.349 . S
C1313 H1305 0.950 . S
C1313 C1311 1.327 . S
C1314 C1302 1.349 . S
C1314 H1308 0.950 . S
C1314 C1315 1.327 . S
C1315 H1309 0.950 . S
C1315 C1314 1.327 . S
C1315 C1319 1.429 . S
C1316 C1299 1.574 . S
C1316 H1310 0.949 . S
C1316 C1320 1.368 . S
C1317 C1298 1.429 . S
C1317 C1311 1.429 . S
C1317 C1318 1.523 . S
C1318 C1299 1.368 . S
C1318 C1312 1.368 . S
C1318 C1317 1.523 . S
C1319 C1303 1.429 . S
C1319 C1315 1.429 . S
C1319 C1320 1.523 . S
C1320 C1304 1.368 . S
C1320 C1316 1.368 . S
C1320 C1319 1.523 . S
H1321 C1296 0.950 . S
H1322 C1298 0.950 . S
H1323 C1299 0.949 . S
H1324 C1301 0.950 . S
H1325 C1303 0.950 . S
C1326 C1327 1.349 . S
C1326 C1328 1.327 . S
C1326 H1351 0.950 . S
C1327 C1326 1.349 . S
C1327 C1343 1.349 . S
C1328 C1326 1.327 . S
C1328 C1347 1.429 . S
C1328 H1352 0.950 . S
C1329 C1346 1.574 . S
C1329 C1348 1.368 . S
C1329 H1353 0.949 . S
H1330 C1334 0.949 . S
C1331 C1332 1.349 . S
C1331 C1333 1.327 . S
C1331 H1354 0.950 . S
C1332 C1331 1.349 . S
C1332 C1344 1.349 . S
C1333 C1331 1.327 . S
C1333 C1349 1.429 . S
C1333 H1355 0.950 . S
C1334 H1330 0.949 . S
C1334 C1342 1.574 . S
C1334 C1350 1.368 . S
H1335 C1343 0.950 . S
H1336 C1341 0.950 . S
H1337 C1342 0.949 . S
H1338 C1344 0.950 . S
H1339 C1345 0.950 . S
H1340 C1346 0.949 . S
C1341 H1336 0.950 . S
C1341 C1343 1.327 . S
C1341 C1347 1.429 . S
C1342 C1334 1.574 . S
C1342 H1337 0.949 . S
C1342 C1348 1.368 . S
C1343 C1327 1.349 . S
C1343 H1335 0.950 . S
C1343 C1341 1.327 . S
C1344 C1332 1.349 . S
C1344 H1338 0.950 . S
C1344 C1345 1.327 . S
C1345 H1339 0.950 . S
C1345 C1344 1.327 . S
C1345 C1349 1.429 . S
C1346 C1329 1.574 . S
C1346 H1340 0.949 . S
C1346 C1350 1.368 . S
C1347 C1328 1.429 . S
C1347 C1341 1.429 . S
C1347 C1348 1.523 . S
C1348 C1329 1.368 . S
C1348 C1342 1.368 . S
C1348 C1347 1.523 . S
C1349 C1333 1.429 . S
C1349 C1345 1.429 . S
C1349 C1350 1.523 . S
C1350 C1334 1.368 . S
C1350 C1346 1.368 . S
C1350 C1349 1.523 . S
H1351 C1326 0.950 . S
H1352 C1328 0.950 . S
H1353 C1329 0.949 . S
H1354 C1331 0.950 . S
H1355 C1333 0.950 . S
C1356 C1357 1.349 . S
C1356 C1358 1.327 . S
C1356 H1381 0.950 . S
C1357 C1356 1.349 . S
C1357 C1373 1.349 . S
C1358 C1356 1.327 . S
C1358 C1377 1.429 . S
C1358 H1382 0.950 . S
C1359 C1376 1.574 . S
C1359 C1378 1.368 . S
C1359 H1383 0.949 . S
H1360 C1364 0.949 . S
C1361 C1362 1.349 . S
C1361 C1363 1.327 . S
C1361 H1384 0.950 . S
C1362 C1361 1.349 . S
C1362 C1374 1.349 . S
C1363 C1361 1.327 . S
C1363 C1379 1.429 . S
C1363 H1385 0.950 . S
C1364 H1360 0.949 . S
C1364 C1372 1.574 . S
C1364 C1380 1.368 . S
H1365 C1373 0.950 . S
H1366 C1371 0.950 . S
H1367 C1372 0.949 . S
H1368 C1374 0.950 . S
H1369 C1375 0.950 . S
H1370 C1376 0.949 . S
C1371 H1366 0.950 . S
C1371 C1373 1.327 . S
C1371 C1377 1.429 . S
C1372 C1364 1.574 . S
C1372 H1367 0.949 . S
C1372 C1378 1.368 . S
C1373 C1357 1.349 . S
C1373 H1365 0.950 . S
C1373 C1371 1.327 . S
C1374 C1362 1.349 . S
C1374 H1368 0.950 . S
C1374 C1375 1.327 . S
C1375 H1369 0.950 . S
C1375 C1374 1.327 . S
C1375 C1379 1.429 . S
C1376 C1359 1.574 . S
C1376 H1370 0.949 . S
C1376 C1380 1.368 . S
C1377 C1358 1.429 . S
C1377 C1371 1.429 . S
C1377 C1378 1.523 . S
C1378 C1359 1.368 . S
C1378 C1372 1.368 . S
C1378 C1377 1.523 . S
C1379 C1363 1.429 . S
C1379 C1375 1.429 . S
C1379 C1380 1.523 . S
C1380 C1364 1.368 . S
C1380 C1376 1.368 . S
C1380 C1379 1.523 . S
H1381 C1356 0.950 . S
H1382 C1358 0.950 . S
H1383 C1359 0.949 . S
H1384 C1361 0.950 . S
H1385 C1363 0.950 . S
C1386 C1387 1.349 . S
C1386 C1388 1.327 . S
C1386 H1411 0.950 . S
C1387 C1386 1.349 . S
C1387 C1403 1.349 . S
C1388 C1386 1.327 . S
C1388 C1407 1.429 . S
C1388 H1412 0.950 . S
C1389 C1406 1.574 . S
C1389 C1408 1.368 . S
C1389 H1413 0.949 . S
H1390 C1394 0.949 . S
C1391 C1392 1.349 . S
C1391 C1393 1.327 . S
C1391 H1414 0.950 . S
C1392 C1391 1.349 . S
C1392 C1404 1.349 . S
C1393 C1391 1.327 . S
C1393 C1409 1.429 . S
C1393 H1415 0.950 . S
C1394 H1390 0.949 . S
C1394 C1402 1.574 . S
C1394 C1410 1.368 . S
H1395 C1403 0.950 . S
H1396 C1401 0.950 . S
H1397 C1402 0.949 . S
H1398 C1404 0.950 . S
H1399 C1405 0.950 . S
H1400 C1406 0.949 . S
C1401 H1396 0.950 . S
C1401 C1403 1.327 . S
C1401 C1407 1.429 . S
C1402 C1394 1.574 . S
C1402 H1397 0.949 . S
C1402 C1408 1.368 . S
C1403 C1387 1.349 . S
C1403 H1395 0.950 . S
C1403 C1401 1.327 . S
C1404 C1392 1.349 . S
C1404 H1398 0.950 . S
C1404 C1405 1.327 . S
C1405 H1399 0.950 . S
C1405 C1404 1.327 . S
C1405 C1409 1.429 . S
C1406 C1389 1.574 . S
C1406 H1400 0.949 . S
C1406 C1410 1.368 . S
C1407 C1388 1.429 . S
C1407 C1401 1.429 . S
C1407 C1408 1.523 . S
C1408 C1389 1.368 . S
C1408 C1402 1.368 . S
C1408 C1407 1.523 . S
C1409 C1393 1.429 . S
C1409 C1405 1.429 . S
C1409 C1410 1.523 . S
C1410 C1394 1.368 . S
C1410 C1406 1.368 . S
C1410 C1409 1.523 . S
H1411 C1386 0.950 . S
H1412 C1388 0.950 . S
H1413 C1389 0.949 . S
H1414 C1391 0.950 . S
H1415 C1393 0.950 . S
C1416 C1417 1.349 . S
C1416 C1418 1.327 . S
C1416 H1441 0.950 . S
C1417 C1416 1.349 . S
C1417 C1433 1.349 . S
C1418 C1416 1.327 . S
C1418 C1437 1.429 . S
C1418 H1442 0.950 . S
C1419 C1436 1.574 . S
C1419 C1438 1.368 . S
C1419 H1443 0.949 . S
H1420 C1424 0.949 . S
C1421 C1422 1.349 . S
C1421 C1423 1.327 . S
C1421 H1444 0.950 . S
C1422 C1421 1.349 . S
C1422 C1434 1.349 . S
C1423 C1421 1.327 . S
C1423 C1439 1.429 . S
C1423 H1445 0.950 . S
C1424 H1420 0.949 . S
C1424 C1432 1.574 . S
C1424 C1440 1.368 . S
H1425 C1433 0.950 . S
H1426 C1431 0.950 . S
H1427 C1432 0.949 . S
H1428 C1434 0.950 . S
H1429 C1435 0.950 . S
H1430 C1436 0.949 . S
C1431 H1426 0.950 . S
C1431 C1433 1.327 . S
C1431 C1437 1.429 . S
C1432 C1424 1.574 . S
C1432 H1427 0.949 . S
C1432 C1438 1.368 . S
C1433 C1417 1.349 . S
C1433 H1425 0.950 . S
C1433 C1431 1.327 . S
C1434 C1422 1.349 . S
C1434 H1428 0.950 . S
C1434 C1435 1.327 . S
C1435 H1429 0.950 . S
C1435 C1434 1.327 . S
C1435 C1439 1.429 . S
C1436 C1419 1.574 . S
C1436 H1430 0.949 . S
C1436 C1440 1.368 . S
C1437 C1418 1.429 . S
C1437 C1431 1.429 . S
C1437 C1438 1.523 . S
C1438 C1419 1.368 . S
C1438 C1432 1.368 . S
C1438 C1437 1.523 . S
C1439 C1423 1.429 . S
C1439 C1435 1.429 . S
C1439 C1440 1.523 . S
C1440 C1424 1.368 . S
C1440 C1436 1.368 . S
C1440 C1439 1.523 . S
H1441 C1416 0.950 . S
H1442 C1418 0.950 . S
H1443 C1419 0.949 . S
H1444 C1421 0.950 . S
H1445 C1423 0.950 . S
C1446 C1447 1.349 . S
C1446 C1448 1.327 . S
C1446 H1471 0.950 . S
C1447 C1446 1.349 . S
C1447 C1463 1.349 . S
C1448 C1446 1.327 . S
C1448 C1467 1.429 . S
C1448 H1472 0.950 . S
C1449 C1466 1.574 . S
C1449 C1468 1.368 . S
C1449 H1473 0.949 . S
H1450 C1454 0.949 . S
C1451 C1452 1.349 . S
C1451 C1453 1.327 . S
C1451 H1474 0.950 . S
C1452 C1451 1.349 . S
C1452 C1464 1.349 . S
C1453 C1451 1.327 . S
C1453 C1469 1.429 . S
C1453 H1475 0.950 . S
C1454 H1450 0.949 . S
C1454 C1462 1.574 . S
C1454 C1470 1.368 . S
H1455 C1463 0.950 . S
H1456 C1461 0.950 . S
H1457 C1462 0.949 . S
H1458 C1464 0.950 . S
H1459 C1465 0.950 . S
H1460 C1466 0.949 . S
C1461 H1456 0.950 . S
C1461 C1463 1.327 . S
C1461 C1467 1.429 . S
C1462 C1454 1.574 . S
C1462 H1457 0.949 . S
C1462 C1468 1.368 . S
C1463 C1447 1.349 . S
C1463 H1455 0.950 . S
C1463 C1461 1.327 . S
C1464 C1452 1.349 . S
C1464 H1458 0.950 . S
C1464 C1465 1.327 . S
C1465 H1459 0.950 . S
C1465 C1464 1.327 . S
C1465 C1469 1.429 . S
C1466 C1449 1.574 . S
C1466 H1460 0.949 . S
C1466 C1470 1.368 . S
C1467 C1448 1.429 . S
C1467 C1461 1.429 . S
C1467 C1468 1.523 . S
C1468 C1449 1.368 . S
C1468 C1462 1.368 . S
C1468 C1467 1.523 . S
C1469 C1453 1.429 . S
C1469 C1465 1.429 . S
C1469 C1470 1.523 . S
C1470 C1454 1.368 . S
C1470 C1466 1.368 . S
C1470 C1469 1.523 . S
H1471 C1446 0.950 . S
H1472 C1448 0.950 . S
H1473 C1449 0.949 . S
H1474 C1451 0.950 . S
H1475 C1453 0.950 . S
C1476 C1477 1.349 . S
C1476 C1478 1.327 . S
C1476 H1501 0.950 . S
C1477 C1476 1.349 . S
C1477 C1493 1.349 . S
C1478 C1476 1.327 . S
C1478 C1497 1.429 . S
C1478 H1502 0.950 . S
C1479 C1496 1.574 . S
C1479 C1498 1.368 . S
C1479 H1503 0.949 . S
H1480 C1484 0.949 . S
C1481 C1482 1.349 . S
C1481 C1483 1.327 . S
C1481 H1504 0.950 . S
C1482 C1481 1.349 . S
C1482 C1494 1.349 . S
C1483 C1481 1.327 . S
C1483 C1499 1.429 . S
C1483 H1505 0.950 . S
C1484 H1480 0.949 . S
C1484 C1492 1.574 . S
C1484 C1500 1.368 . S
H1485 C1493 0.950 . S
H1486 C1491 0.950 . S
H1487 C1492 0.949 . S
H1488 C1494 0.950 . S
H1489 C1495 0.950 . S
H1490 C1496 0.949 . S
C1491 H1486 0.950 . S
C1491 C1493 1.327 . S
C1491 C1497 1.429 . S
C1492 C1484 1.574 . S
C1492 H1487 0.949 . S
C1492 C1498 1.368 . S
C1493 C1477 1.349 . S
C1493 H1485 0.950 . S
C1493 C1491 1.327 . S
C1494 C1482 1.349 . S
C1494 H1488 0.950 . S
C1494 C1495 1.327 . S
C1495 H1489 0.950 . S
C1495 C1494 1.327 . S
C1495 C1499 1.429 . S
C1496 C1479 1.574 . S
C1496 H1490 0.949 . S
C1496 C1500 1.368 . S
C1497 C1478 1.429 . S
C1497 C1491 1.429 . S
C1497 C1498 1.523 . S
C1498 C1479 1.368 . S
C1498 C1492 1.368 . S
C1498 C1497 1.523 . S
C1499 C1483 1.429 . S
C1499 C1495 1.429 . S
C1499 C1500 1.523 . S
C1500 C1484 1.368 . S
C1500 C1496 1.368 . S
C1500 C1499 1.523 . S
H1501 C1476 0.950 . S
H1502 C1478 0.950 . S
H1503 C1479 0.949 . S
H1504 C1481 0.950 . S
H1505 C1483 0.950 . S
C1506 C1507 1.349 . S
C1506 C1508 1.327 . S
C1506 H1531 0.950 . S
C1507 C1506 1.349 . S
C1507 C1523 1.349 . S
C1508 C1506 1.327 . S
C1508 C1527 1.429 . S
C1508 H1532 0.950 . S
C1509 C1526 1.574 . S
C1509 C1528 1.368 . S
C1509 H1533 0.949 . S
H1510 C1514 0.949 . S
C1511 C1512 1.349 . S
C1511 C1513 1.327 . S
C1511 H1534 0.950 . S
C1512 C1511 1.349 . S
C1512 C1524 1.349 . S
C1513 C1511 1.327 . S
C1513 C1529 1.429 . S
C1513 H1535 0.950 . S
C1514 H1510 0.949 . S
C1514 C1522 1.574 . S
C1514 C1530 1.368 . S
H1515 C1523 0.950 . S
H1516 C1521 0.950 . S
H1517 C1522 0.949 . S
H1518 C1524 0.950 . S
H1519 C1525 0.950 . S
H1520 C1526 0.949 . S
C1521 H1516 0.950 . S
C1521 C1523 1.327 . S
C1521 C1527 1.429 . S
C1522 C1514 1.574 . S
C1522 H1517 0.949 . S
C1522 C1528 1.368 . S
C1523 C1507 1.349 . S
C1523 H1515 0.950 . S
C1523 C1521 1.327 . S
C1524 C1512 1.349 . S
C1524 H1518 0.950 . S
C1524 C1525 1.327 . S
C1525 H1519 0.950 . S
C1525 C1524 1.327 . S
C1525 C1529 1.429 . S
C1526 C1509 1.574 . S
C1526 H1520 0.949 . S
C1526 C1530 1.368 . S
C1527 C1508 1.429 . S
C1527 C1521 1.429 . S
C1527 C1528 1.523 . S
C1528 C1509 1.368 . S
C1528 C1522 1.368 . S
C1528 C1527 1.523 . S
C1529 C1513 1.429 . S
C1529 C1525 1.429 . S
C1529 C1530 1.523 . S
C1530 C1514 1.368 . S
C1530 C1526 1.368 . S
C1530 C1529 1.523 . S
H1531 C1506 0.950 . S
H1532 C1508 0.950 . S
H1533 C1509 0.949 . S
H1534 C1511 0.950 . S
H1535 C1513 0.950 . S
C1536 C1537 1.349 . S
C1536 C1538 1.327 . S
C1536 H1561 0.950 . S
C1537 C1536 1.349 . S
C1537 C1553 1.349 . S
C1538 C1536 1.327 . S
C1538 C1557 1.429 . S
C1538 H1562 0.950 . S
C1539 C1556 1.574 . S
C1539 C1558 1.368 . S
C1539 H1563 0.949 . S
H1540 C1544 0.949 . S
C1541 C1542 1.349 . S
C1541 C1543 1.327 . S
C1541 H1564 0.950 . S
C1542 C1541 1.349 . S
C1542 C1554 1.349 . S
C1543 C1541 1.327 . S
C1543 C1559 1.429 . S
C1543 H1565 0.950 . S
C1544 H1540 0.949 . S
C1544 C1552 1.574 . S
C1544 C1560 1.368 . S
H1545 C1553 0.950 . S
H1546 C1551 0.950 . S
H1547 C1552 0.949 . S
H1548 C1554 0.950 . S
H1549 C1555 0.950 . S
H1550 C1556 0.949 . S
C1551 H1546 0.950 . S
C1551 C1553 1.327 . S
C1551 C1557 1.429 . S
C1552 C1544 1.574 . S
C1552 H1547 0.949 . S
C1552 C1558 1.368 . S
C1553 C1537 1.349 . S
C1553 H1545 0.950 . S
C1553 C1551 1.327 . S
C1554 C1542 1.349 . S
C1554 H1548 0.950 . S
C1554 C1555 1.327 . S
C1555 H1549 0.950 . S
C1555 C1554 1.327 . S
C1555 C1559 1.429 . S
C1556 C1539 1.574 . S
C1556 H1550 0.949 . S
C1556 C1560 1.368 . S
C1557 C1538 1.429 . S
C1557 C1551 1.429 . S
C1557 C1558 1.523 . S
C1558 C1539 1.368 . S
C1558 C1552 1.368 . S
C1558 C1557 1.523 . S
C1559 C1543 1.429 . S
C1559 C1555 1.429 . S
C1559 C1560 1.523 . S
C1560 C1544 1.368 . S
C1560 C1556 1.368 . S
C1560 C1559 1.523 . S
H1561 C1536 0.950 . S
H1562 C1538 0.950 . S
H1563 C1539 0.949 . S
H1564 C1541 0.950 . S
H1565 C1543 0.950 . S
C1566 C1567 1.349 . S
C1566 C1568 1.327 . S
C1566 H1591 0.950 . S
C1567 C1566 1.349 . S
C1567 C1583 1.349 . S
C1568 C1566 1.327 . S
C1568 C1587 1.429 . S
C1568 H1592 0.950 . S
C1569 C1586 1.574 . S
C1569 C1588 1.368 . S
C1569 H1593 0.949 . S
H1570 C1574 0.949 . S
C1571 C1572 1.349 . S
C1571 C1573 1.327 . S
C1571 H1594 0.950 . S
C1572 C1571 1.349 . S
C1572 C1584 1.349 . S
C1573 C1571 1.327 . S
C1573 C1589 1.429 . S
C1573 H1595 0.950 . S
C1574 H1570 0.949 . S
C1574 C1582 1.574 . S
C1574 C1590 1.368 . S
H1575 C1583 0.950 . S
H1576 C1581 0.950 . S
H1577 C1582 0.949 . S
H1578 C1584 0.950 . S
H1579 C1585 0.950 . S
H1580 C1586 0.949 . S
C1581 H1576 0.950 . S
C1581 C1583 1.327 . S
C1581 C1587 1.429 . S
C1582 C1574 1.574 . S
C1582 H1577 0.949 . S
C1582 C1588 1.368 . S
C1583 C1567 1.349 . S
C1583 H1575 0.950 . S
C1583 C1581 1.327 . S
C1584 C1572 1.349 . S
C1584 H1578 0.950 . S
C1584 C1585 1.327 . S
C1585 H1579 0.950 . S
C1585 C1584 1.327 . S
C1585 C1589 1.429 . S
C1586 C1569 1.574 . S
C1586 H1580 0.949 . S
C1586 C1590 1.368 . S
C1587 C1568 1.429 . S
C1587 C1581 1.429 . S
C1587 C1588 1.523 . S
C1588 C1569 1.368 . S
C1588 C1582 1.368 . S
C1588 C1587 1.523 . S
C1589 C1573 1.429 . S
C1589 C1585 1.429 . S
C1589 C1590 1.523 . S
C1590 C1574 1.368 . S
C1590 C1586 1.368 . S
C1590 C1589 1.523 . S
H1591 C1566 0.950 . S
H1592 C1568 0.950 . S
H1593 C1569 0.949 . S
H1594 C1571 0.950 . S
H1595 C1573 0.950 . S
C1596 C1597 1.349 . S
C1596 C1598 1.327 . S
C1596 H1621 0.950 . S
C1597 C1596 1.349 . S
C1597 C1613 1.349 . S
C1598 C1596 1.327 . S
C1598 C1617 1.429 . S
C1598 H1622 0.950 . S
C1599 C1616 1.574 . S
C1599 C1618 1.368 . S
C1599 H1623 0.949 . S
H1600 C1604 0.949 . S
C1601 C1602 1.349 . S
C1601 C1603 1.327 . S
C1601 H1624 0.950 . S
C1602 C1601 1.349 . S
C1602 C1614 1.349 . S
C1603 C1601 1.327 . S
C1603 C1619 1.429 . S
C1603 H1625 0.950 . S
C1604 H1600 0.949 . S
C1604 C1612 1.574 . S
C1604 C1620 1.368 . S
H1605 C1613 0.950 . S
H1606 C1611 0.950 . S
H1607 C1612 0.949 . S
H1608 C1614 0.950 . S
H1609 C1615 0.950 . S
H1610 C1616 0.949 . S
C1611 H1606 0.950 . S
C1611 C1613 1.327 . S
C1611 C1617 1.429 . S
C1612 C1604 1.574 . S
C1612 H1607 0.949 . S
C1612 C1618 1.368 . S
C1613 C1597 1.349 . S
C1613 H1605 0.950 . S
C1613 C1611 1.327 . S
C1614 C1602 1.349 . S
C1614 H1608 0.950 . S
C1614 C1615 1.327 . S
C1615 H1609 0.950 . S
C1615 C1614 1.327 . S
C1615 C1619 1.429 . S
C1616 C1599 1.574 . S
C1616 H1610 0.949 . S
C1616 C1620 1.368 . S
C1617 C1598 1.429 . S
C1617 C1611 1.429 . S
C1617 C1618 1.523 . S
C1618 C1599 1.368 . S
C1618 C1612 1.368 . S
C1618 C1617 1.523 . S
C1619 C1603 1.429 . S
C1619 C1615 1.429 . S
C1619 C1620 1.523 . S
C1620 C1604 1.368 . S
C1620 C1616 1.368 . S
C1620 C1619 1.523 . S
H1621 C1596 0.950 . S
H1622 C1598 0.950 . S
H1623 C1599 0.949 . S
H1624 C1601 0.950 . S
H1625 C1603 0.950 . S
C1626 C1627 1.349 . S
C1626 C1628 1.327 . S
C1626 H1651 0.950 . S
C1627 C1626 1.349 . S
C1627 C1643 1.349 . S
C1628 C1626 1.327 . S
C1628 C1647 1.429 . S
C1628 H1652 0.950 . S
C1629 C1646 1.574 . S
C1629 C1648 1.368 . S
C1629 H1653 0.949 . S
H1630 C1634 0.949 . S
C1631 C1632 1.349 . S
C1631 C1633 1.327 . S
C1631 H1654 0.950 . S
C1632 C1631 1.349 . S
C1632 C1644 1.349 . S
C1633 C1631 1.327 . S
C1633 C1649 1.429 . S
C1633 H1655 0.950 . S
C1634 H1630 0.949 . S
C1634 C1642 1.574 . S
C1634 C1650 1.368 . S
H1635 C1643 0.950 . S
H1636 C1641 0.950 . S
H1637 C1642 0.949 . S
H1638 C1644 0.950 . S
H1639 C1645 0.950 . S
H1640 C1646 0.949 . S
C1641 H1636 0.950 . S
C1641 C1643 1.327 . S
C1641 C1647 1.429 . S
C1642 C1634 1.574 . S
C1642 H1637 0.949 . S
C1642 C1648 1.368 . S
C1643 C1627 1.349 . S
C1643 H1635 0.950 . S
C1643 C1641 1.327 . S
C1644 C1632 1.349 . S
C1644 H1638 0.950 . S
C1644 C1645 1.327 . S
C1645 H1639 0.950 . S
C1645 C1644 1.327 . S
C1645 C1649 1.429 . S
C1646 C1629 1.574 . S
C1646 H1640 0.949 . S
C1646 C1650 1.368 . S
C1647 C1628 1.429 . S
C1647 C1641 1.429 . S
C1647 C1648 1.523 . S
C1648 C1629 1.368 . S
C1648 C1642 1.368 . S
C1648 C1647 1.523 . S
C1649 C1633 1.429 . S
C1649 C1645 1.429 . S
C1649 C1650 1.523 . S
C1650 C1634 1.368 . S
C1650 C1646 1.368 . S
C1650 C1649 1.523 . S
H1651 C1626 0.950 . S
H1652 C1628 0.950 . S
H1653 C1629 0.949 . S
H1654 C1631 0.950 . S
H1655 C1633 0.950 . S
C1656 C1657 1.349 . S
C1656 C1658 1.327 . S
C1656 H1681 0.950 . S
C1657 C1656 1.349 . S
C1657 C1673 1.349 . S
C1658 C1656 1.327 . S
C1658 C1677 1.429 . S
C1658 H1682 0.950 . S
C1659 C1676 1.574 . S
C1659 C1678 1.368 . S
C1659 H1683 0.949 . S
H1660 C1664 0.949 . S
C1661 C1662 1.349 . S
C1661 C1663 1.327 . S
C1661 H1684 0.950 . S
C1662 C1661 1.349 . S
C1662 C1674 1.349 . S
C1663 C1661 1.327 . S
C1663 C1679 1.429 . S
C1663 H1685 0.950 . S
C1664 H1660 0.949 . S
C1664 C1672 1.574 . S
C1664 C1680 1.368 . S
H1665 C1673 0.950 . S
H1666 C1671 0.950 . S
H1667 C1672 0.949 . S
H1668 C1674 0.950 . S
H1669 C1675 0.950 . S
H1670 C1676 0.949 . S
C1671 H1666 0.950 . S
C1671 C1673 1.327 . S
C1671 C1677 1.429 . S
C1672 C1664 1.574 . S
C1672 H1667 0.949 . S
C1672 C1678 1.368 . S
C1673 C1657 1.349 . S
C1673 H1665 0.950 . S
C1673 C1671 1.327 . S
C1674 C1662 1.349 . S
C1674 H1668 0.950 . S
C1674 C1675 1.327 . S
C1675 H1669 0.950 . S
C1675 C1674 1.327 . S
C1675 C1679 1.429 . S
C1676 C1659 1.574 . S
C1676 H1670 0.949 . S
C1676 C1680 1.368 . S
C1677 C1658 1.429 . S
C1677 C1671 1.429 . S
C1677 C1678 1.523 . S
C1678 C1659 1.368 . S
C1678 C1672 1.368 . S
C1678 C1677 1.523 . S
C1679 C1663 1.429 . S
C1679 C1675 1.429 . S
C1679 C1680 1.523 . S
C1680 C1664 1.368 . S
C1680 C1676 1.368 . S
C1680 C1679 1.523 . S
H1681 C1656 0.950 . S
H1682 C1658 0.950 . S
H1683 C1659 0.949 . S
H1684 C1661 0.950 . S
H1685 C1663 0.950 . S
C1686 C1687 1.349 . S
C1686 C1688 1.327 . S
C1686 H1711 0.950 . S
C1687 C1686 1.349 . S
C1687 C1703 1.349 . S
C1688 C1686 1.327 . S
C1688 C1707 1.429 . S
C1688 H1712 0.950 . S
C1689 C1706 1.574 . S
C1689 C1708 1.368 . S
C1689 H1713 0.949 . S
H1690 C1694 0.949 . S
C1691 C1692 1.349 . S
C1691 C1693 1.327 . S
C1691 H1714 0.950 . S
C1692 C1691 1.349 . S
C1692 C1704 1.349 . S
C1693 C1691 1.327 . S
C1693 C1709 1.429 . S
C1693 H1715 0.950 . S
C1694 H1690 0.949 . S
C1694 C1702 1.574 . S
C1694 C1710 1.368 . S
H1695 C1703 0.950 . S
H1696 C1701 0.950 . S
H1697 C1702 0.949 . S
H1698 C1704 0.950 . S
H1699 C1705 0.950 . S
H1700 C1706 0.949 . S
C1701 H1696 0.950 . S
C1701 C1703 1.327 . S
C1701 C1707 1.429 . S
C1702 C1694 1.574 . S
C1702 H1697 0.949 . S
C1702 C1708 1.368 . S
C1703 C1687 1.349 . S
C1703 H1695 0.950 . S
C1703 C1701 1.327 . S
C1704 C1692 1.349 . S
C1704 H1698 0.950 . S
C1704 C1705 1.327 . S
C1705 H1699 0.950 . S
C1705 C1704 1.327 . S
C1705 C1709 1.429 . S
C1706 C1689 1.574 . S
C1706 H1700 0.949 . S
C1706 C1710 1.368 . S
C1707 C1688 1.429 . S
C1707 C1701 1.429 . S
C1707 C1708 1.523 . S
C1708 C1689 1.368 . S
C1708 C1702 1.368 . S
C1708 C1707 1.523 . S
C1709 C1693 1.429 . S
C1709 C1705 1.429 . S
C1709 C1710 1.523 . S
C1710 C1694 1.368 . S
C1710 C1706 1.368 . S
C1710 C1709 1.523 . S
H1711 C1686 0.950 . S
H1712 C1688 0.950 . S
H1713 C1689 0.949 . S
H1714 C1691 0.950 . S
H1715 C1693 0.950 . S
C1716 C1717 1.349 . S
C1716 C1718 1.327 . S
C1716 H1741 0.950 . S
C1717 C1716 1.349 . S
C1717 C1733 1.349 . S
C1718 C1716 1.327 . S
C1718 C1737 1.429 . S
C1718 H1742 0.950 . S
C1719 C1736 1.574 . S
C1719 C1738 1.368 . S
C1719 H1743 0.949 . S
H1720 C1724 0.949 . S
C1721 C1722 1.349 . S
C1721 C1723 1.327 . S
C1721 H1744 0.950 . S
C1722 C1721 1.349 . S
C1722 C1734 1.349 . S
C1723 C1721 1.327 . S
C1723 C1739 1.429 . S
C1723 H1745 0.950 . S
C1724 H1720 0.949 . S
C1724 C1732 1.574 . S
C1724 C1740 1.368 . S
H1725 C1733 0.950 . S
H1726 C1731 0.950 . S
H1727 C1732 0.949 . S
H1728 C1734 0.950 . S
H1729 C1735 0.950 . S
H1730 C1736 0.949 . S
C1731 H1726 0.950 . S
C1731 C1733 1.327 . S
C1731 C1737 1.429 . S
C1732 C1724 1.574 . S
C1732 H1727 0.949 . S
C1732 C1738 1.368 . S
C1733 C1717 1.349 . S
C1733 H1725 0.950 . S
C1733 C1731 1.327 . S
C1734 C1722 1.349 . S
C1734 H1728 0.950 . S
C1734 C1735 1.327 . S
C1735 H1729 0.950 . S
C1735 C1734 1.327 . S
C1735 C1739 1.429 . S
C1736 C1719 1.574 . S
C1736 H1730 0.949 . S
C1736 C1740 1.368 . S
C1737 C1718 1.429 . S
C1737 C1731 1.429 . S
C1737 C1738 1.523 . S
C1738 C1719 1.368 . S
C1738 C1732 1.368 . S
C1738 C1737 1.523 . S
C1739 C1723 1.429 . S
C1739 C1735 1.429 . S
C1739 C1740 1.523 . S
C1740 C1724 1.368 . S
C1740 C1736 1.368 . S
C1740 C1739 1.523 . S
H1741 C1716 0.950 . S
H1742 C1718 0.950 . S
H1743 C1719 0.949 . S
H1744 C1721 0.950 . S
H1745 C1723 0.950 . S
C1746 C1747 1.349 . S
C1746 C1748 1.327 . S
C1746 H1771 0.950 . S
C1747 C1746 1.349 . S
C1747 C1763 1.349 . S
C1748 C1746 1.327 . S
C1748 C1767 1.429 . S
C1748 H1772 0.950 . S
C1749 C1766 1.574 . S
C1749 C1768 1.368 . S
C1749 H1773 0.949 . S
H1750 C1754 0.949 . S
C1751 C1752 1.349 . S
C1751 C1753 1.327 . S
C1751 H1774 0.950 . S
C1752 C1751 1.349 . S
C1752 C1764 1.349 . S
C1753 C1751 1.327 . S
C1753 C1769 1.429 . S
C1753 H1775 0.950 . S
C1754 H1750 0.949 . S
C1754 C1762 1.574 . S
C1754 C1770 1.368 . S
H1755 C1763 0.950 . S
H1756 C1761 0.950 . S
H1757 C1762 0.949 . S
H1758 C1764 0.950 . S
H1759 C1765 0.950 . S
H1760 C1766 0.949 . S
C1761 H1756 0.950 . S
C1761 C1763 1.327 . S
C1761 C1767 1.429 . S
C1762 C1754 1.574 . S
C1762 H1757 0.949 . S
C1762 C1768 1.368 . S
C1763 C1747 1.349 . S
C1763 H1755 0.950 . S
C1763 C1761 1.327 . S
C1764 C1752 1.349 . S
C1764 H1758 0.950 . S
C1764 C1765 1.327 . S
C1765 H1759 0.950 . S
C1765 C1764 1.327 . S
C1765 C1769 1.429 . S
C1766 C1749 1.574 . S
C1766 H1760 0.949 . S
C1766 C1770 1.368 . S
C1767 C1748 1.429 . S
C1767 C1761 1.429 . S
C1767 C1768 1.523 . S
C1768 C1749 1.368 . S
C1768 C1762 1.368 . S
C1768 C1767 1.523 . S
C1769 C1753 1.429 . S
C1769 C1765 1.429 . S
C1769 C1770 1.523 . S
C1770 C1754 1.368 . S
C1770 C1766 1.368 . S
C1770 C1769 1.523 . S
H1771 C1746 0.950 . S
H1772 C1748 0.950 . S
H1773 C1749 0.949 . S
H1774 C1751 0.950 . S
H1775 C1753 0.950 . S
C337 C201 1.503 . S
C342 C11 1.501 . S
C367 C14 1.531 . S
C372 C210 1.532 . S
C397 C257 1.507 . S
C402 C33 1.507 . S
C427 C51 1.610 . S
C432 C191 1.613 . S
C457 C207 1.440 . S
C462 C67 1.439 . S
C487 C79 1.590 . S
C492 C219 1.587 . S
C517 C89 1.445 . S
C522 C263 1.444 . S
C547 C98 1.507 . S
C552 C182 1.506 . S
C577 C137 1.382 . S
C582 C123 1.382 . S
C607 C145 1.564 . S
C612 C131 1.564 . S
C637 C151 1.462 . S
C642 C165 1.461 . S
C667 C159 1.481 . S
C672 C117 1.481 . S
C697 C168 1.532 . S
C702 C42 1.531 . S
C727 C61 1.445 . S
C732 C235 1.444 . S
C757 C247 1.613 . S
C762 C23 1.610 . S
C787 C25 1.462 . S
C792 C303 1.457 . S
C817 C126 1.410 . S
C822 C9 1.406 . S
C847 C331 1.516 . S
C852 C47 1.525 . S
C877 C154 1.403 . S
C882 C28 1.404 . S
C907 C294 1.421 . S
C912 C109 1.422 . S
C937 C135 1.434 . S
C942 C84 1.438 . S
C967 C75 1.483 . S
C972 C322 1.479 . S
C997 C65 1.440 . S
C1002 C163 1.440 . S
C1027 C215 1.530 . S
C1032 C275 1.521 . S
C1057 C224 1.415 . S
C1062 C221 1.416 . S
C1087 C193 1.473 . S
C1092 C233 1.468 . S
C1117 C266 1.468 . S
C1122 C187 1.471 . S
C1147 C37 1.406 . S
C1152 C280 1.410 . S
C1177 C140 1.479 . S
C1182 C103 1.483 . S
C1207 C0 1.404 . S
C1212 C308 1.403 . S
C1237 C271 1.503 . S
C1242 C39 1.501 . S
C1267 C5 1.507 . S
C1272 C229 1.507 . S
C1297 C277 1.440 . S
C1302 C95 1.439 . S
C1327 C177 1.587 . S
C1332 C107 1.590 . S
C1357 C70 1.507 . S
C1362 C238 1.506 . S
C1387 C305 1.382 . S
C1392 C291 1.382 . S
C1417 C327 1.564 . S
C1422 C285 1.564 . S
C1447 C319 1.461 . S
C1452 C333 1.462 . S
C1477 C299 1.481 . S
C1482 C313 1.481 . S
C1507 C121 1.457 . S
C1512 C53 1.462 . S
C1537 C19 1.525 . S
C1542 C149 1.516 . S
C1567 C81 1.422 . S
C1572 C112 1.421 . S
C1597 C289 1.434 . S
C1602 C56 1.438 . S
C1627 C93 1.440 . S
C1632 C317 1.440 . S
C1657 C173 1.530 . S
C1662 C205 1.521 . S
C1687 C252 1.415 . S
C1692 C179 1.416 . S
C1717 C249 1.473 . S
C1722 C261 1.468 . S
C1747 C196 1.468 . S
C1752 C243 1.471 . S
