# Generated by pormake.
# Topology uku, (4)-cn, num edge types: 1
# Building blocks:
#     Node 0, Type 0, BuildingBlock: KUFVIS_clean_sbu_0, # of connection points: 4
#     Node 1, Type 0, BuildingBlock: KUFVIS_clean_sbu_0, # of connection points: 4
#     Node 2, Type 0, BuildingBlock: KUFVIS_clean_sbu_0, # of connection points: 4
#     Node 3, Type 0, BuildingBlock: KUFVIS_clean_sbu_0, # of connection points: 4
#     Node 4, Type 0, BuildingBlock: KUFVIS_clean_sbu_0, # of connection points: 4
#     Node 5, Type 0, BuildingBlock: KUFVIS_clean_sbu_0, # of connection points: 4
#     Node 6, Type 0, BuildingBlock: KUFVIS_clean_sbu_0, # of connection points: 4
#     Node 7, Type 0, BuildingBlock: KUFVIS_clean_sbu_0, # of connection points: 4
#     Node 8, Type 0, BuildingBlock: KUFVIS_clean_sbu_0, # of connection points: 4
#     Node 9, Type 0, BuildingBlock: KUFVIS_clean_sbu_0, # of connection points: 4
#     Node 10, Type 0, BuildingBlock: KUFVIS_clean_sbu_0, # of connection points: 4
#     Node 11, Type 0, BuildingBlock: KUFVIS_clean_sbu_0, # of connection points: 4
#     Edge 12, Type (0, 0), BuildingBlock: XUDNAN_clean_linker_2, # of connection points: 2
#     Edge 13, Type (0, 0), BuildingBlock: XUDNAN_clean_linker_2, # of connection points: 2
#     Edge 14, Type (0, 0), BuildingBlock: XUDNAN_clean_linker_2, # of connection points: 2
#     Edge 15, Type (0, 0), BuildingBlock: XUDNAN_clean_linker_2, # of connection points: 2
#     Edge 16, Type (0, 0), BuildingBlock: XUDNAN_clean_linker_2, # of connection points: 2
#     Edge 17, Type (0, 0), BuildingBlock: XUDNAN_clean_linker_2, # of connection points: 2
#     Edge 18, Type (0, 0), BuildingBlock: XUDNAN_clean_linker_2, # of connection points: 2
#     Edge 19, Type (0, 0), BuildingBlock: XUDNAN_clean_linker_2, # of connection points: 2
#     Edge 20, Type (0, 0), BuildingBlock: XUDNAN_clean_linker_2, # of connection points: 2
#     Edge 21, Type (0, 0), BuildingBlock: XUDNAN_clean_linker_2, # of connection points: 2
#     Edge 22, Type (0, 0), BuildingBlock: XUDNAN_clean_linker_2, # of connection points: 2
#     Edge 23, Type (0, 0), BuildingBlock: XUDNAN_clean_linker_2, # of connection points: 2
#     Edge 24, Type (0, 0), BuildingBlock: XUDNAN_clean_linker_2, # of connection points: 2
#     Edge 25, Type (0, 0), BuildingBlock: XUDNAN_clean_linker_2, # of connection points: 2
#     Edge 26, Type (0, 0), BuildingBlock: XUDNAN_clean_linker_2, # of connection points: 2
#     Edge 27, Type (0, 0), BuildingBlock: XUDNAN_clean_linker_2, # of connection points: 2
#     Edge 28, Type (0, 0), BuildingBlock: XUDNAN_clean_linker_2, # of connection points: 2
#     Edge 29, Type (0, 0), BuildingBlock: XUDNAN_clean_linker_2, # of connection points: 2
#     Edge 30, Type (0, 0), BuildingBlock: XUDNAN_clean_linker_2, # of connection points: 2
#     Edge 31, Type (0, 0), BuildingBlock: XUDNAN_clean_linker_2, # of connection points: 2
#     Edge 32, Type (0, 0), BuildingBlock: XUDNAN_clean_linker_2, # of connection points: 2
#     Edge 33, Type (0, 0), BuildingBlock: XUDNAN_clean_linker_2, # of connection points: 2
#     Edge 34, Type (0, 0), BuildingBlock: XUDNAN_clean_linker_2, # of connection points: 2
#     Edge 35, Type (0, 0), BuildingBlock: XUDNAN_clean_linker_2, # of connection points: 2
# Relax obj value: 0.400
# Max RMSD: 0.284
# Mean RMSD: 0.284
data_MOF--net-uku--node1-KUFVIS_clean_sbu_0--edge1-XUDNAN_clean_linker_2
_symmetry_space_group_name_H-M    P1
_symmetry_Int_Tables_number       1
_symmetry_cell_setting            triclinic
loop_
_symmetry_equiv_pos_as_xyz
'x, y, z'
_cell_length_a     40.911603
_cell_length_b     41.082355
_cell_length_c     40.850708
_cell_angle_alpha  89.833428
_cell_angle_beta   90.016171
_cell_angle_gamma 89.836733
loop_
_atom_site_label
_atom_site_type_symbol
_atom_site_fract_x
_atom_site_fract_y
_atom_site_fract_z
_atom_type_partial_charge
Mn0 Mn 0.06251 0.16612 0.65642 0.0
Mn1 Mn 0.98194 0.17304 0.67107 0.0
C2 C 0.04483 0.2076 0.68972 0.0
C3 C 0.11101 0.13908 0.6685 0.0
C4 C 0.0143 0.1923 0.60695 0.0
O5 O 0.04332 0.12366 0.64127 0.0
O6 O 0.99188 0.12647 0.66041 0.0
C7 C 0.97431 0.13335 0.73112 0.0
N8 N 0.97101 0.16237 0.71526 0.0
C9 C 0.94649 0.18708 0.76264 0.0
C10 C 0.94945 0.1574 0.77943 0.0
C11 C 0.96345 0.13043 0.7636 0.0
C12 C 0.95727 0.1884 0.73012 0.0
H13 H 0.98518 0.1126 0.71908 0.0
C14 C 0.01577 0.1108 0.64745 0.0
O15 O 0.10617 0.15212 0.63988 0.0
O16 O 0.08816 0.14273 0.69019 0.0
N17 N 0.96954 0.21659 0.6822 0.0
C18 C 0.9717 0.24422 0.6638 0.0
C19 C 0.96069 0.27388 0.67681 0.0
C20 C 0.94751 0.27483 0.70853 0.0
C21 C 0.94554 0.24609 0.72702 0.0
C22 C 0.95671 0.2172 0.71269 0.0
H23 H 0.98196 0.24369 0.63947 0.0
O24 O 0.07363 0.20856 0.67634 0.0
O25 O 0.02758 0.18152 0.68395 0.0
O26 O 0.04384 0.18908 0.61628 0.0
O27 O 0.98975 0.18506 0.62482 0.0
C28 C 0.93384 0.24516 0.75944 0.0
C29 C 0.93425 0.21567 0.77722 0.0
H30 H 0.94146 0.15515 0.80461 0.0
H31 H 0.96598 0.10749 0.77645 0.0
H32 H 0.96247 0.29599 0.66246 0.0
H33 H 0.93933 0.29782 0.71859 0.0
H34 H 0.92502 0.26712 0.77115 0.0
H35 H 0.92575 0.2154 0.80233 0.0
Mn36 Mn 0.91299 0.8306 0.65292 0.0
Mn37 Mn 0.99054 0.80692 0.6678 0.0
C38 C 0.92297 0.7822 0.6793 0.0
C39 C 0.86725 0.86042 0.66838 0.0
C40 C 0.95801 0.80036 0.60168 0.0
O41 O 0.9388 0.87185 0.64571 0.0
O42 O 0.98964 0.85461 0.65835 0.0
C43 C 0.0011 0.84239 0.72987 0.0
N44 N 4e-05 0.81383 0.71305 0.0
C45 C 0.01518 0.78329 0.76108 0.0
C46 C 0.01665 0.81239 0.77887 0.0
C47 C 0.00945 0.84205 0.76321 0.0
C48 C 0.00661 0.78513 0.72795 0.0
H49 H -0.00438 0.86524 0.71792 0.0
C50 C 0.96921 0.87683 0.64985 0.0
O51 O 0.87199 0.85239 0.638 0.0
O52 O 0.88913 0.85129 0.68949 0.0
N53 N -0.00526 0.76152 0.67765 0.0
C54 C 0.99125 0.73555 0.65727 0.0
C55 C -0.00355 0.70396 0.66946 0.0
C56 C 0.00548 0.69942 0.70233 0.0
C57 C 0.00938 0.72654 0.7227 0.0
C58 C 0.00385 0.75744 0.7092 0.0
H59 H 0.98431 0.7389 0.63198 0.0
O60 O 0.89502 0.78745 0.6652 0.0
O61 O 0.9439 0.80597 0.67837 0.0
O62 O 0.93019 0.81168 0.6101 0.0
O63 O 0.9825 0.79821 0.62098 0.0
C64 C 0.01841 0.72413 0.7559 0.0
C65 C 0.0215 0.7525 0.77502 0.0
H66 H 0.02303 0.81222 0.80461 0.0
H67 H 0.01037 0.8646 0.77681 0.0
H68 H -0.00655 0.68315 0.65356 0.0
H69 H 0.00937 0.67501 0.71167 0.0
H70 H 0.02288 0.70057 0.76703 0.0
H71 H 0.02825 0.75032 0.80058 0.0
Mn72 Mn 0.06625 0.81417 0.32798 0.0
Mn73 Mn 0.98647 0.81543 0.30838 0.0
C74 C 0.0465 0.77683 0.29102 0.0
C75 C 0.11748 0.83597 0.31719 0.0
C76 C 0.01296 0.78965 0.37308 0.0
O77 O 0.05098 0.85804 0.34345 0.0
O78 O -0.00067 0.8597 0.32441 0.0
C79 C 0.98594 0.8614 0.25246 0.0
N80 N 0.97977 0.83121 0.26484 0.0
C81 C 0.959 0.81281 0.21299 0.0
C82 C 0.965 0.84374 0.19973 0.0
C83 C 0.97853 0.86813 0.21956 0.0
C84 C 0.96639 0.80767 0.24609 0.0
H85 H -0.00348 0.88017 0.26754 0.0
C86 C 0.02423 0.87298 0.3381 0.0
O87 O 0.11115 0.82305 0.34562 0.0
O88 O 0.0945 0.83526 0.29547 0.0
N89 N 0.97194 0.77434 0.29194 0.0
C90 C 0.97055 0.74506 0.30761 0.0
C91 C 0.95923 0.71762 0.29068 0.0
C92 C 0.94952 0.72055 0.25782 0.0
C93 C 0.95128 0.75091 0.24216 0.0
C94 C 0.96252 0.77746 0.26036 0.0
H95 H 0.97832 0.74257 0.33275 0.0
O96 O 0.0736 0.77131 0.3067 0.0
O97 O 0.03174 0.80404 0.29804 0.0
O98 O 0.04338 0.79268 0.36691 0.0
O99 O 0.99037 0.79827 0.35326 0.0
C100 C 0.9431 0.75568 0.20898 0.0
C101 C 0.9469 0.78662 0.19442 0.0
H102 H 0.9597 0.84891 0.17426 0.0
H103 H 0.98338 0.89201 0.20945 0.0
H104 H 0.95816 0.69422 0.30286 0.0
H105 H 0.94109 0.69926 0.24475 0.0
H106 H 0.93434 0.7356 0.1943 0.0
H107 H 0.94101 0.78986 0.16876 0.0
Mn108 Mn 0.92789 0.14971 0.32954 0.0
Mn109 Mn 0.00457 0.17457 0.31312 0.0
C110 C 0.93617 0.19192 0.29328 0.0
C111 C 0.88678 0.11265 0.31747 0.0
C112 C 0.96873 0.18957 0.37657 0.0
O113 O 0.95612 0.11296 0.346 0.0
O114 O 0.00607 0.12825 0.32836 0.0
C115 C 0.02145 0.1325 0.25688 0.0
N116 N 0.01745 0.16279 0.26978 0.0
C117 C 0.0333 0.18809 0.21902 0.0
C118 C 0.03778 0.15717 0.20526 0.0
C119 C 0.03181 0.12927 0.22428 0.0
C120 C 0.02345 0.18982 0.25181 0.0
H121 H 0.01667 0.11098 0.27133 0.0
C122 C 0.98638 0.10751 0.34118 0.0
O123 O 0.88752 0.1272 0.34571 0.0
O124 O 0.90915 0.12032 0.29646 0.0
N125 N 0.00573 0.21857 0.29753 0.0
C126 C -0.00309 0.24641 0.31334 0.0
C127 C -0.00063 0.27642 0.297 0.0
C128 C 0.01086 0.27752 0.26463 0.0
C129 C 0.01976 0.24857 0.24885 0.0
C130 C 0.01702 0.21938 0.26643 0.0
H131 H 0.98769 0.2457 0.33807 0.0
O132 O 0.90787 0.18815 0.30716 0.0
O133 O 0.95851 0.17074 0.30112 0.0
O134 O 0.94108 0.17736 0.36902 0.0
O135 O -0.00627 0.18857 0.35788 0.0
C136 C 0.0303 0.24743 0.21604 0.0
C137 C 0.03716 0.21723 0.20117 0.0
H138 H 0.04536 0.15456 0.18 0.0
H139 H 0.03501 0.10532 0.21377 0.0
H140 H 0.9922 0.29864 0.30926 0.0
H141 H 0.01234 0.30069 0.25199 0.0
H142 H 0.03263 0.26961 0.20183 0.0
H143 H 0.04468 0.21665 0.17575 0.0
Mn144 Mn 0.65769 0.06332 0.17781 0.0
Mn145 Mn 0.66405 0.9833 0.19168 0.0
C146 C 0.69228 0.04569 0.2187 0.0
C147 C 0.67429 0.10545 0.14399 0.0
C148 C 0.60443 0.02458 0.20922 0.0
O149 O 0.6371 0.04202 0.13854 0.0
O150 O 0.65325 0.98992 0.14424 0.0
C151 C 0.72132 0.96425 0.15182 0.0
N152 N 0.70643 0.9665 0.18155 0.0
C153 C 0.75254 0.94168 0.20848 0.0
C154 C 0.76833 0.93901 0.17813 0.0
C155 C 0.75263 0.95033 0.14969 0.0
C156 C 0.72112 0.9553 0.20903 0.0
H157 H 0.70944 0.97311 0.12991 0.0
C158 C 0.64093 0.01339 0.12737 0.0
O159 O 0.64653 0.10724 0.15943 0.0
O160 O 0.69261 0.08032 0.14967 0.0
N161 N 0.67519 0.97473 0.23643 0.0
C162 C 0.65784 0.98165 0.26402 0.0
C163 C 0.67092 0.9735 0.29476 0.0
C164 C 0.70166 0.95834 0.29683 0.0
C165 C 0.71909 0.95148 0.2681 0.0
C166 C 0.70472 0.95996 0.23814 0.0
H167 H 0.63431 -0.00651 0.26264 0.0
O168 O 0.68233 0.07575 0.21786 0.0
O169 O 0.68189 0.02727 0.19501 0.0
O170 O 0.61724 0.05247 0.20468 0.0
O171 O 0.61938 -0.00215 0.2033 0.0
C172 C 0.75046 0.93724 0.26809 0.0
C173 C 0.76714 0.93227 0.23829 0.0
H174 H 0.79265 0.92866 0.17643 0.0
H175 H 0.76472 0.94849 0.1262 0.0
H176 H 0.65739 0.97901 0.31683 0.0
H177 H 0.71179 0.95234 0.3206 0.0
H178 H 0.76218 0.93043 0.29089 0.0
H179 H 0.79145 0.92174 0.23864 0.0
Mn180 Mn 0.33185 0.92717 0.15901 0.0
Mn181 Mn 0.30113 -0.00115 0.18451 0.0
C182 C 0.30376 0.93001 0.20773 0.0
C183 C 0.32561 0.88049 0.12767 0.0
C184 C 0.37274 0.98075 0.19035 0.0
O185 O 0.33315 0.95493 0.11813 0.0
O186 O 0.30986 0.00122 0.13642 0.0
C187 C 0.23791 -0.00155 0.14923 0.0
N188 N 0.25489 -0.00057 0.17789 0.0
C189 C 0.2053 0.00506 0.20902 0.0
C190 C 0.1873 0.00439 0.17981 0.0
C191 C 0.20367 0.00087 0.14981 0.0
C192 C 0.23935 0.00243 0.20692 0.0
H193 H 0.25041 -0.00403 0.12608 0.0
C194 C 0.32222 0.98365 0.11361 0.0
O195 O 0.35451 0.89059 0.13605 0.0
O196 O 0.30075 0.89739 0.13758 0.0
N197 N 0.29115 -0.00058 0.23028 0.0
C198 C 0.31202 -0.00142 0.25628 0.0
C199 C 0.29939 0.00023 0.28819 0.0
C200 C 0.26551 0.00308 0.29303 0.0
C201 C 0.24455 0.00425 0.26589 0.0
C202 C 0.25853 0.0023 0.23467 0.0
H203 H 0.33808 -0.00356 0.2527 0.0
O204 O 0.32362 0.90599 0.20207 0.0
O205 O 0.30054 0.95128 0.1843 0.0
O206 O 0.37035 0.9522 0.17835 0.0
O207 O 0.34856 0.00029 0.19307 0.0
C208 C 0.21034 0.00719 0.26858 0.0
C209 C 0.19076 0.0079 0.24015 0.0
H210 H 0.16088 0.00624 0.18017 0.0
H211 H 0.18994 0.00016 0.12718 0.0
H212 H 0.31573 -0.00067 0.30901 0.0
H213 H 0.25586 0.00435 0.31768 0.0
H214 H 0.19883 0.00884 0.29239 0.0
H215 H 0.16448 0.01005 0.24253 0.0
Mn216 Mn 0.65616 0.9087 0.84793 0.0
Mn217 Mn 0.66847 0.98596 0.82301 0.0
C218 C 0.68297 0.91846 0.79953 0.0
C219 C 0.67193 0.86484 0.88022 0.0
C220 C 0.6035 0.95143 0.81678 0.0
O221 O 0.6472 0.93507 0.8885 0.0
O222 O 0.65929 0.9857 0.87102 0.0
C223 C 0.73038 -0.00148 0.85821 0.0
N224 N 0.7134 -0.00329 0.8296 0.0
C225 C 0.76076 0.01225 0.79842 0.0
C226 C 0.77871 0.0145 0.82757 0.0
C227 C 0.76348 0.00747 0.85758 0.0
C228 C 0.72791 0.00305 0.80057 0.0
H229 H 0.71876 -0.00686 0.88133 0.0
C230 C 0.65074 0.96542 0.89333 0.0
O231 O 0.64179 0.86849 0.87085 0.0
O232 O 0.69288 0.88644 0.87042 0.0
N233 N 0.67781 0.98978 0.77725 0.0
C234 C 0.65719 0.98603 0.75134 0.0
C235 C 0.66886 -0.00861 0.71945 0.0
C236 C 0.70147 0.00086 0.71457 0.0
C237 C 0.72205 0.00515 0.74166 0.0
C238 C 0.70904 -0.00048 0.77286 0.0
H239 H 0.6321 0.9788 0.75495 0.0
O240 O 0.67006 0.89017 0.80523 0.0
O241 O 0.68071 0.93979 0.8229 0.0
O242 O 0.61318 0.924 0.82782 0.0
O243 O 0.62181 0.97651 0.81468 0.0
C244 C 0.75495 0.0148 0.73894 0.0
C245 C 0.77424 0.01851 0.76731 0.0
H246 H 0.80425 0.02139 0.82717 0.0
H247 H 0.77721 0.009 0.88016 0.0
H248 H 0.65279 0.98816 0.69868 0.0
H249 H 0.71042 0.00484 0.68993 0.0
H250 H 0.76571 0.01932 0.71513 0.0
H251 H 0.79955 0.02579 0.7649 0.0
Mn252 Mn 0.32853 0.0668 0.81555 0.0
Mn253 Mn 0.30151 0.98983 0.81472 0.0
C254 C 0.30071 0.04772 0.77061 0.0
C255 C 0.31742 0.12026 0.83026 0.0
C256 C 0.37259 0.00817 0.80397 0.0
O257 O 0.33034 0.05368 0.86305 0.0
O258 O 0.3095 0.00298 0.86132 0.0
C259 C 0.23776 -0.00158 0.84789 0.0
N260 N 0.25519 0.9897 0.82088 0.0
C261 C 0.20608 0.97614 0.7916 0.0
C262 C 0.18763 0.98456 0.81925 0.0
C263 C 0.20354 -0.00412 0.84746 0.0
C264 C 0.24013 0.9788 0.7936 0.0
H265 H 0.24985 0.0072 0.86962 0.0
C266 C 0.32071 0.02765 0.87695 0.0
O267 O 0.3475 0.11064 0.82616 0.0
O268 O 0.29469 0.09902 0.82556 0.0
N269 N 0.29232 0.97514 0.77124 0.0
C270 C 0.31357 0.96916 0.74628 0.0
C271 C 0.30144 0.95896 0.71584 0.0
C272 C 0.26764 0.95499 0.71139 0.0
C273 C 0.24625 0.96124 0.73745 0.0
C274 C 0.25976 0.97123 0.76727 0.0
H275 H 0.33955 0.97243 0.74948 0.0
O276 O 0.32004 0.0726 0.76794 0.0
O277 O 0.29896 0.03473 0.7996 0.0
O278 O 0.36894 0.03899 0.80596 0.0
O279 O 0.34914 0.98792 0.80732 0.0
C280 C 0.21204 0.95838 0.73489 0.0
C281 C 0.19198 0.96567 0.76198 0.0
H282 H 0.16122 0.98286 0.81893 0.0
H283 H 0.18945 0.0027 0.8688 0.0
H284 H 0.3181 0.9543 0.69581 0.0
H285 H 0.25837 0.94731 0.68781 0.0
H286 H 0.20088 0.95073 0.71213 0.0
H287 H 0.1657 0.96352 0.75967 0.0
Mn288 Mn 0.17102 0.66094 0.06391 0.0
Mn289 Mn 0.20067 0.67207 0.98814 0.0
C290 C 0.22014 0.68719 0.05717 0.0
C291 C 0.13438 0.67943 0.10296 0.0
C292 C 0.20098 0.60695 0.0237 0.0
O293 O 0.1329 0.65164 0.03422 0.0
O294 O 0.15214 0.66733 0.98496 0.0
C295 C 0.1722 0.73644 0.97209 0.0
N296 N 0.19895 0.71716 0.97664 0.0
C297 C 0.23524 0.76144 0.96409 0.0
C298 C 0.20807 0.78168 0.95886 0.0
C299 C 0.17642 0.76917 0.96304 0.0
C300 C 0.22951 0.72901 0.9729 0.0
H301 H 0.14784 0.72691 0.97533 0.0
C302 C 0.12905 0.65776 0.00392 0.0
O303 O 0.14386 0.64917 0.10289 0.0
O304 O 0.14735 0.69878 0.08155 0.0
N305 N 0.24716 0.67729 0.98832 0.0
C306 C 0.27074 0.65485 -0.00463 0.0
C307 C 0.30379 0.66381 0.9935 0.0
C308 C 0.31224 0.69566 0.9843 0.0
C309 C 0.28755 0.71827 0.97694 0.0
C310 C 0.25505 0.7079 0.97906 0.0
H311 H 0.26439 0.63036 0.00253 0.0
O312 O 0.21229 0.67515 0.08553 0.0
O313 O 0.19841 0.68413 0.03421 0.0
O314 O 0.19146 0.61734 0.05154 0.0
O315 O 0.20387 0.62509 -0.00165 0.0
C316 C 0.2939 0.75076 0.9679 0.0
C317 C 0.26777 0.77228 0.96132 0.0
H318 H 0.21124 0.80698 0.95204 0.0
H319 H 0.15534 0.78471 0.95932 0.0
H320 H 0.3227 0.64623 -0.00075 0.0
H321 H 0.33776 0.70253 0.98309 0.0
H322 H 0.31879 0.75949 0.96608 0.0
H323 H 0.27296 0.79724 0.95451 0.0
Mn324 Mn 0.15118 0.34079 0.90414 0.0
Mn325 Mn 0.1812 0.30652 0.97239 0.0
C326 C 0.20092 0.31413 0.90215 0.0
C327 C 0.11396 0.33315 0.86203 0.0
C328 C 0.18111 0.37957 0.95911 0.0
O329 O 0.11318 0.34064 0.93563 0.0
O330 O 0.13256 0.30855 0.97589 0.0
C331 C 0.1546 0.23982 0.96717 0.0
N332 N 0.18078 0.26014 0.96896 0.0
C333 C 0.21829 0.21495 0.96904 0.0
C334 C 0.1917 0.19352 0.96771 0.0
C335 C 0.15973 0.20603 0.96652 0.0
C336 C 0.21165 0.24837 0.96974 0.0
H337 H 0.12997 0.24932 0.96642 0.0
C338 C 0.10921 0.32381 0.96148 0.0
O339 O 0.12262 0.36247 0.87028 0.0
O340 O 0.1281 0.3091 0.87681 0.0
N341 N 0.22786 0.30261 0.9714 0.0
C342 C 0.25083 0.32652 0.97277 0.0
C343 C 0.28411 0.31807 0.97316 0.0
C344 C 0.29343 0.28515 0.97237 0.0
C345 C 0.26936 0.26095 0.97132 0.0
C346 C 0.23658 0.27084 0.97102 0.0
H347 H 0.24386 0.35186 0.97354 0.0
O348 O 0.19251 0.33386 0.8787 0.0
O349 O 0.17936 0.31015 0.92503 0.0
O350 O 0.17147 0.3787 0.92931 0.0
O351 O 0.18336 0.35431 0.97743 0.0
C352 C 0.27663 0.22743 0.97047 0.0
C353 C 0.25111 0.20444 0.9695 0.0
H354 H 0.19556 0.16743 0.96716 0.0
H355 H 0.13911 0.18965 0.96519 0.0
H356 H 0.30254 0.33689 0.97405 0.0
H357 H 0.31913 0.27873 0.97256 0.0
H358 H 0.30176 0.21905 0.97056 0.0
H359 H 0.257 0.17872 0.96888 0.0
Mn360 Mn 0.83463 0.64882 0.91878 0.0
Mn361 Mn 0.83217 0.66461 -0.00063 0.0
C362 C 0.79217 0.6789 0.9394 0.0
C363 C 0.85654 0.66229 0.86829 0.0
C364 C 0.81354 0.59956 0.96981 0.0
O365 O 0.87972 0.63702 0.93471 0.0
O366 O 0.87843 0.65507 0.98661 0.0
C367 C 0.86998 0.72594 0.00041 0.0
N368 N 0.8417 0.70957 0.00649 0.0
C369 C 0.81554 0.75824 0.02621 0.0
C370 C 0.84446 0.77555 0.02039 0.0
C371 C 0.87177 0.75933 0.00738 0.0
C372 C 0.81525 0.72496 0.01893 0.0
H373 H 0.89099 0.71364 0.99023 0.0
C374 C 0.89367 0.64362 0.96169 0.0
O375 O 0.84608 0.63297 0.87413 0.0
O376 O 0.85336 0.68361 0.8914 0.0
N377 N 0.78901 0.67498 0.0143 0.0
C378 C 0.76258 0.65507 0.01731 0.0
C379 C 0.73298 0.66779 0.02917 0.0
C380 C 0.73087 0.70078 0.03789 0.0
C381 C 0.75847 0.72072 0.03488 0.0
C382 C 0.78739 0.70663 0.02317 0.0
H383 H 0.76396 0.62974 0.01052 0.0
O384 O 0.78976 0.66552 0.91075 0.0
O385 O 0.82004 0.67533 0.95433 0.0
O386 O 0.81599 0.60819 0.93992 0.0
O387 O 0.821 0.61789 -0.00604 0.0
C388 C 0.7583 0.7541 0.04266 0.0
C389 C 0.78684 0.77282 0.03844 0.0
H390 H 0.84587 0.80136 0.02554 0.0
H391 H 0.89411 0.77257 0.00264 0.0
H392 H 0.71178 0.65225 0.03141 0.0
H393 H 0.70792 0.71056 0.04676 0.0
H394 H 0.73627 0.76568 0.0517 0.0
H395 H 0.78634 0.79852 0.04426 0.0
Mn396 Mn 0.8273 0.31876 0.06093 0.0
Mn397 Mn 0.80402 0.30397 0.98361 0.0
C398 C 0.78078 0.28839 0.05188 0.0
C399 C 0.8615 0.30243 0.10314 0.0
C400 C 0.79794 0.36993 0.01721 0.0
O401 O 0.86702 0.32922 0.03373 0.0
O402 O 0.85275 0.30869 0.98459 0.0
C403 C 0.83481 0.24033 0.96905 0.0
N404 N 0.80742 0.25905 0.97202 0.0
C405 C 0.77301 0.21434 0.95622 0.0
C406 C 0.80085 0.19463 0.95297 0.0
C407 C 0.83187 0.2077 0.9594 0.0
C408 C 0.77747 0.24686 0.96539 0.0
H409 H 0.85872 0.25016 0.97418 0.0
C410 C 0.87387 0.31989 0.00486 0.0
O411 O 0.85081 0.33226 0.10177 0.0
O412 O 0.85133 0.2824 0.08102 0.0
N413 N 0.75768 0.29771 0.98093 0.0
C414 C 0.73313 0.31885 0.98854 0.0
C415 C 0.70048 0.30893 0.98529 0.0
C416 C 0.69338 0.27733 0.97444 0.0
C417 C 0.71903 0.25587 0.96706 0.0
C418 C 0.75111 0.26721 0.9705 0.0
H419 H 0.73833 0.34297 -0.0026 0.0
O420 O 0.78544 0.30253 0.07991 0.0
O421 O 0.80357 0.29293 0.03017 0.0
O422 O 0.80571 0.3611 0.04612 0.0
O423 O 0.79867 0.35091 0.99252 0.0
C424 C 0.71399 0.22342 0.95728 0.0
C425 C 0.74096 0.20269 0.95177 0.0
H426 H 0.79865 0.16932 0.94595 0.0
H427 H 0.85345 0.19259 0.95709 0.0
H428 H 0.68083 0.32553 0.99136 0.0
H429 H 0.66816 0.26967 0.97228 0.0
H430 H 0.68946 0.214 0.95442 0.0
H431 H 0.73676 0.17764 0.94477 0.0
H432 H 0.93401 0.17632 0.43241 0.0
H433 H 0.01571 0.23258 0.39535 0.0
H434 H 0.03136 0.24667 0.45167 0.0
H435 H 0.91721 0.22916 0.5072 0.0
H436 H 0.90783 0.19378 0.5316 0.0
H437 H 0.89863 0.19412 0.48843 0.0
H438 H 0.93246 0.14122 0.48123 0.0
H439 H 0.94212 0.14091 0.52411 0.0
H440 H 0.97457 0.14039 0.49428 0.0
H441 H 0.04499 0.24509 0.51062 0.0
H442 H 0.05312 0.23109 0.56892 0.0
H443 H 0.96201 0.17733 0.56852 0.0
C444 C 0.95433 0.19273 0.43613 0.0
C445 C 0.97356 0.20341 0.40953 0.0
C446 C 0.0006 0.22409 0.41538 0.0
C447 C 0.00963 0.23237 0.4473 0.0
C448 C 0.99118 0.22009 0.47312 0.0
C449 C 0.96375 0.20116 0.46794 0.0
C450 C 0.95054 0.1879 0.49992 0.0
C451 C 0.91653 0.2021 0.50722 0.0
C452 C 0.94992 0.1504 0.49986 0.0
C453 C 0.97585 0.20083 0.52354 0.0
C454 C -0.00115 0.21971 0.50765 0.0
C455 C 0.02666 0.23116 0.52358 0.0
C456 C 0.03122 0.22289 0.55658 0.0
C457 C 0.00802 0.20348 0.57322 0.0
C458 C 0.97971 0.19292 0.55659 0.0
H459 H 0.04747 0.79239 0.43051 0.0
H460 H 0.95426 0.76304 0.38948 0.0
H461 H 0.93239 0.75499 0.44498 0.0
H462 H 0.04385 0.73775 0.50601 0.0
H463 H 0.06243 0.76879 0.53088 0.0
H464 H 0.07311 0.76535 0.4882 0.0
H465 H 0.05734 0.82587 0.47948 0.0
H466 H 0.04614 0.82941 0.52184 0.0
H467 H 0.01685 0.83946 0.4904 0.0
H468 H 0.91718 0.76097 0.50306 0.0
H469 H 0.91104 0.7763 0.5611 0.0
H470 H 0.01413 0.80044 0.56544 0.0
C471 C 0.02293 0.78293 0.43324 0.0
C472 C 0.0026 0.77825 0.40573 0.0
C473 C 0.97028 0.76679 0.41024 0.0
C474 C 0.95765 0.76201 0.44167 0.0
C475 C 0.97774 0.76846 0.46834 0.0
C476 C 0.00989 0.77813 0.46454 0.0
C477 C 0.02502 0.78703 0.49716 0.0
C478 C 0.05274 0.7633 0.50609 0.0
C479 C 0.03701 0.82254 0.49719 0.0
C480 C -0.00416 0.78255 0.51949 0.0
C481 C 0.96895 0.77144 0.50242 0.0
C482 C 0.93825 0.76882 0.51694 0.0
C483 C 0.93493 0.77786 0.54978 0.0
C484 C 0.96217 0.78928 0.5677 0.0
C485 C -0.00693 0.7911 0.55246 0.0
H486 H 0.43013 0.9461 0.19189 0.0
H487 H 0.38903 0.04127 0.21349 0.0
H488 H 0.44383 0.06108 0.22845 0.0
H489 H 0.49334 0.94656 0.25705 0.0
H490 H 0.52267 0.92622 0.23125 0.0
H491 H 0.47963 0.91839 0.22623 0.0
H492 H 0.48361 0.93439 0.16489 0.0
H493 H 0.52655 0.94207 0.1697 0.0
H494 H 0.50012 0.97356 0.15385 0.0
H495 H 0.50384 0.07243 0.23419 0.0
H496 H 0.56403 0.07421 0.22972 0.0
H497 H 0.56514 0.97116 0.20631 0.0
C498 C 0.43246 0.97097 0.20028 0.0
C499 C 0.40521 -0.00791 0.20142 0.0
C500 C 0.4095 0.02454 0.21238 0.0
C501 C 0.44052 0.03602 0.22111 0.0
C502 C 0.46694 0.01466 0.21919 0.0
C503 C 0.46316 0.98275 0.20925 0.0
C504 C 0.4957 0.96543 0.20682 0.0
C505 C 0.49796 0.9375 0.23184 0.0
C506 C 0.50184 0.95317 0.17174 0.0
C507 C 0.51848 -0.00705 0.21567 0.0
C508 C 0.50148 0.02106 0.22312 0.0
C509 C 0.51744 0.05041 0.22904 0.0
C510 C 0.55163 0.05119 0.22641 0.0
C511 C 0.56938 0.0228 0.21787 0.0
C512 C 0.55247 -0.00681 0.21347 0.0
H513 H 0.56669 0.00715 0.81367 0.0
H514 H 0.56189 0.90261 0.79923 0.0
H515 H 0.50275 0.90703 0.7883 0.0
H516 H 0.49461 0.01353 0.85762 0.0
H517 H 0.4821 0.0522 0.84077 0.0
H518 H 0.52478 0.04177 0.8426 0.0
H519 H 0.53008 0.05145 0.7801 0.0
H520 H 0.48735 0.0621 0.77809 0.0
H521 H 0.50333 0.03018 0.75243 0.0
H522 H 0.44398 0.92166 0.7845 0.0
H523 H 0.38886 0.94531 0.78902 0.0
H524 H 0.43137 0.04043 0.80698 0.0
C525 C 0.55335 0.98531 0.80738 0.0
C526 C 0.56888 0.95455 0.80711 0.0
C527 C 0.55045 0.92642 0.79957 0.0
C528 C 0.51691 0.9287 0.79315 0.0
C529 C 0.5022 0.95928 0.79437 0.0
C530 C 0.51978 0.98711 0.80123 0.0
C531 C 0.49753 0.0165 0.80405 0.0
C532 C 0.4999 0.03188 0.83829 0.0
C533 C 0.50502 0.04153 0.77705 0.0
C534 C 0.46462 0.00064 0.79868 0.0
C535 C 0.46795 0.96771 0.79266 0.0
C536 C 0.44103 0.94749 0.78879 0.0
C537 C 0.40979 0.96117 0.79157 0.0
C538 C 0.40571 -0.00523 0.79838 0.0
C539 C 0.4336 0.01476 0.80142 0.0
H540 H 0.18262 0.43981 0.92932 0.0
H541 H 0.1994 0.39114 0.02248 0.0
H542 H 0.21162 0.44383 0.048 0.0
H543 H 0.24651 0.50204 0.93927 0.0
H544 H 0.22214 0.53326 0.91995 0.0
H545 H 0.21727 0.49132 0.90812 0.0
H546 H 0.15529 0.49482 0.92098 0.0
H547 H 0.15996 0.53672 0.93272 0.0
H548 H 0.14222 0.50799 0.96097 0.0
H549 H 0.21655 0.50195 0.06488 0.0
H550 H 0.21474 0.56174 0.07131 0.0
H551 H 0.19698 0.5723 0.96703 0.0
C552 C 0.18924 0.44013 0.95498 0.0
C553 C 0.18994 0.41124 0.9738 0.0
C554 C 0.19863 0.41286 0.00741 0.0
C555 C 0.20575 0.44269 0.0222 0.0
C556 C 0.20446 0.47069 0.00304 0.0
C557 C 0.19664 0.46969 0.97013 0.0
C558 C 0.19542 0.50353 0.95547 0.0
C559 C 0.22192 0.50777 0.92915 0.0
C560 C 0.16119 0.5112 0.94174 0.0
C561 C 0.20285 0.52368 0.9855 0.0
C562 C 0.20818 0.50429 0.01266 0.0
C563 C 0.213 0.51744 0.0437 0.0
C564 C 0.21186 0.55137 0.04714 0.0
C565 C 0.2061 0.57164 0.01964 0.0
C566 C 0.20218 0.5575 0.9884 0.0
H567 H 0.82775 0.55999 0.02218 0.0
H568 H 0.7719 0.56468 0.93194 0.0
H569 H 0.75455 0.50788 0.93988 0.0
H570 H 0.85933 0.48362 0.00932 0.0
H571 H 0.85793 0.47007 0.0513 0.0
H572 H 0.86108 0.51277 0.04218 0.0
H573 H 0.80902 0.52411 0.07649 0.0
H574 H 0.80572 0.4813 0.08576 0.0
H575 H 0.7718 0.5026 0.0673 0.0
H576 H 0.74975 0.44979 0.9525 0.0
H577 H 0.75882 0.39274 0.9684 0.0
H578 H 0.81766 0.42417 0.05086 0.0
C579 C 0.81113 0.54926 0.00465 0.0
C580 C 0.80106 0.56664 0.97652 0.0
C581 C 0.77998 0.55168 0.9536 0.0
C582 C 0.76975 0.51955 0.95805 0.0
C583 C 0.78075 0.50274 0.98556 0.0
C584 C 0.80093 0.51698 0.00856 0.0
C585 C 0.81233 0.49226 0.03374 0.0
C586 C 0.84988 0.48952 0.03413 0.0
C587 C 0.7989 0.50057 0.06785 0.0
C588 C 0.79663 0.46169 0.02037 0.0
C589 C 0.778 0.46853 0.99294 0.0
C590 C 0.76365 0.44413 0.97433 0.0
C591 C 0.76907 0.41178 0.9835 0.0
C592 C 0.78869 0.40409 0.01104 0.0
C593 C 0.80192 0.42942 0.03018 0.0
H594 H 0.12799 0.1129 0.72739 0.0
H595 H 0.16066 0.12147 0.62672 0.0
H596 H 0.2098 0.08872 0.64019 0.0
H597 H 0.20462 0.12355 0.76286 0.0
H598 H 0.19728 0.09576 0.79625 0.0
H599 H 0.16356 0.11645 0.77714 0.0
H600 H 0.13589 0.06064 0.76483 0.0
H601 H 0.1697 0.04078 0.78478 0.0
H602 H 0.15879 0.02972 0.74349 0.0
H603 H 0.25835 0.0611 0.6665 0.0
H604 H 0.30317 0.04477 0.70398 0.0
H605 H 0.23716 0.05232 0.78634 0.0
C606 C 0.14522 0.10754 0.708 0.0
C607 C 0.1405 0.11962 0.67599 0.0
C608 C 0.16384 0.11243 0.65145 0.0
C609 C 0.19165 0.09362 0.65881 0.0
C610 C 0.19553 0.08203 0.69072 0.0
C611 C 0.17296 0.08891 0.71491 0.0
C612 C 0.18407 0.0765 0.74793 0.0
C613 C 0.18761 0.10474 0.77246 0.0
C614 C 0.16072 0.05031 0.76099 0.0
C615 C 0.2169 0.06215 0.73883 0.0
C616 C 0.22301 0.06522 0.70564 0.0
C617 C 0.25352 0.05768 0.69233 0.0
C618 C 0.27876 0.04826 0.71367 0.0
C619 C 0.27312 0.04617 0.74772 0.0
C620 C 0.24156 0.05208 0.76019 0.0
H621 H 0.74797 0.92734 0.80406 0.0
H622 H 0.66965 0.9122 0.73472 0.0
H623 H 0.71011 0.9059 0.6901 0.0
H624 H 0.81203 0.96435 0.74651 0.0
H625 H 0.84331 0.94102 0.76683 0.0
H626 H 0.80825 0.95494 0.78958 0.0
H627 H 0.79836 0.89476 0.80731 0.0
H628 H 0.83233 0.88129 0.78299 0.0
H629 H 0.79235 0.86428 0.77622 0.0
H630 H 0.75866 0.89305 0.65516 0.0
H631 H 0.81055 0.87039 0.6339 0.0
H632 H 0.85669 0.88859 0.72767 0.0
C633 C 0.73952 0.9244 0.77911 0.0
C634 C 0.70592 0.92172 0.77222 0.0
C635 C 0.6954 0.91546 0.73995 0.0
C636 C 0.71818 0.91194 0.71456 0.0
C637 C 0.75136 0.91381 0.7222 0.0
C638 C 0.76203 0.91975 0.7538 0.0
C639 C 0.79844 0.9139 0.75706 0.0
C640 C 0.81654 0.94547 0.76552 0.0
C641 C 0.80577 0.88696 0.78237 0.0
C642 C 0.80641 0.90294 0.72269 0.0
C643 C 0.77919 0.90386 0.70268 0.0
C644 C 0.78026 0.89275 0.67045 0.0
C645 C 0.80979 0.8799 0.65859 0.0
C646 C 0.83755 0.87775 0.67917 0.0
C647 C 0.83589 0.89006 0.71133 0.0
H648 H 0.23895 0.92732 0.1984 0.0
H649 H 0.31366 0.91897 0.27289 0.0
H650 H 0.27236 0.89852 0.31234 0.0
H651 H 0.16608 0.94518 0.25168 0.0
H652 H 0.14098 0.91915 0.2269 0.0
H653 H 0.17448 0.94069 0.20845 0.0
H654 H 0.19687 0.88569 0.18687 0.0
H655 H 0.16411 0.86411 0.20653 0.0
H656 H 0.20592 0.8535 0.21559 0.0
H657 H 0.22351 0.87237 0.34122 0.0
H658 H 0.17229 0.84354 0.35625 0.0
H659 H 0.13271 0.86567 0.26013 0.0
C660 C 0.24615 0.92278 0.22353 0.0
C661 C 0.27896 0.92584 0.23325 0.0
C662 C 0.28826 0.91765 0.26557 0.0
C663 C 0.26501 0.90599 0.28799 0.0
C664 C 0.23288 0.90204 0.27729 0.0
C665 C 0.2235 0.91035 0.24575 0.0
C666 C 0.18923 0.89899 0.23834 0.0
C667 C 0.16638 0.92778 0.23091 0.0
C668 C 0.18906 0.8741 0.21019 0.0
C669 C 0.1807 0.88314 0.27052 0.0
C670 C 0.20586 0.88524 0.29292 0.0
C671 C 0.20351 0.87097 0.32394 0.0
C672 C 0.17448 0.85453 0.33223 0.0
C673 C 0.14856 0.85237 0.30938 0.0
C674 C 0.15198 0.8669 0.27827 0.0
H675 H 0.70578 0.06476 0.28082 0.0
H676 H 0.747 0.01612 0.19677 0.0
H677 H 0.80055 0.01425 0.22349 0.0
H678 H 0.76417 0.11915 0.28424 0.0
H679 H 0.76682 0.12411 0.328 0.0
H680 H 0.72953 0.11 0.30994 0.0
H681 H 0.73095 0.05846 0.34653 0.0
H682 H 0.76826 0.07262 0.36517 0.0
H683 H 0.76678 0.03284 0.34674 0.0
H684 H 0.85061 0.02936 0.25087 0.0
H685 H 0.89389 0.06334 0.27448 0.0
H686 H 0.82332 0.10849 0.3393 0.0
C687 C 0.72582 0.052 0.26916 0.0
C688 C 0.72172 0.03802 0.23792 0.0
C689 C 0.7489 0.0241 0.2219 0.0
C690 C 0.77963 0.02345 0.2368 0.0
C691 C 0.7832 0.03818 0.26726 0.0
C692 C 0.75704 0.05243 0.2833 0.0
C693 C 0.76867 0.07328 0.31163 0.0
C694 C 0.7566 0.10871 0.3082 0.0
C695 C 0.75804 0.0584 0.34447 0.0
C696 C 0.8054 0.07074 0.30722 0.0
C697 C 0.81312 0.04925 0.28235 0.0
C698 C 0.84496 0.04563 0.27089 0.0
C699 C 0.86935 0.06525 0.28426 0.0
C700 C 0.86181 0.08845 0.30866 0.0
C701 C 0.82971 0.09039 0.32116 0.0
H702 H 0.659 0.17093 0.13984 0.0
H703 H 0.71321 0.09337 0.09239 0.0
H704 H 0.73715 0.13271 0.0542 0.0
H705 H 0.64866 0.22401 0.06192 0.0
H706 H 0.65427 0.26077 0.08519 0.0
H707 H 0.63461 0.22603 0.1037 0.0
H708 H 0.67685 0.22705 0.15098 0.0
H709 H 0.69652 0.26158 0.13264 0.0
H710 H 0.71986 0.22531 0.14145 0.0
H711 H 0.76658 0.17863 0.0337 0.0
H712 H 0.79657 0.22957 0.02798 0.0
H713 H 0.72098 0.28089 0.08085 0.0
C714 C 0.675 0.16231 0.12059 0.0
C715 C 0.68443 0.12926 0.11906 0.0
C716 C 0.70594 0.11869 0.09415 0.0
C717 C 0.7194 0.1408 0.07207 0.0
C718 C 0.71091 0.17344 0.07496 0.0
C719 C 0.68887 0.18433 0.0982 0.0
C720 C 0.68766 0.22128 0.09867 0.0
C721 C 0.65431 0.23375 0.08665 0.0
C722 C 0.69573 0.23456 0.13296 0.0
C723 C 0.71437 0.22918 0.07412 0.0
C724 C 0.72689 0.20107 0.06034 0.0
C725 C 0.7557 0.20106 0.04231 0.0
C726 C 0.77236 0.23034 0.03852 0.0
C727 C 0.75944 0.2597 0.05093 0.0
C728 C 0.73 0.25911 0.06896 0.0
H729 H 0.211 0.75093 0.04658 0.0
H730 H 0.28531 0.67928 0.06912 0.0
H731 H 0.32524 0.72341 0.07923 0.0
H732 H 0.26485 0.81913 0.0141 0.0
H733 H 0.24073 0.8489 0.03558 0.0
H734 H 0.22164 0.81257 0.02024 0.0
H735 H 0.19983 0.79991 0.0783 0.0
H736 H 0.21921 0.8358 0.09389 0.0
H737 H 0.22827 0.7967 0.1119 0.0
H738 H 0.35393 0.77504 0.09573 0.0
H739 H 0.36715 0.82824 0.12093 0.0
H740 H 0.27183 0.86494 0.09246 0.0
C741 C 0.23621 0.7447 0.05193 0.0
C742 C 0.24576 0.71199 0.05575 0.0
C743 C 0.27813 0.70436 0.06502 0.0
C744 C 0.30086 0.72925 0.07073 0.0
C745 C 0.29043 0.76152 0.06785 0.0
C746 C 0.25872 0.76925 0.05872 0.0
C747 C 0.25137 0.80495 0.06405 0.0
C748 C 0.24424 0.82238 0.03151 0.0
C749 C 0.22303 0.80958 0.08849 0.0
C750 C 0.28349 0.81597 0.07839 0.0
C751 C 0.30607 0.79091 0.07965 0.0
C752 C 0.33663 0.79497 0.09431 0.0
C753 C 0.34394 0.8252 0.10856 0.0
C754 C 0.32046 0.85054 0.10861 0.0
C755 C 0.29028 0.84598 0.09266 0.0
H756 H 0.80403 0.7428 0.94551 0.0
H757 H 0.72697 0.67111 0.94792 0.0
H758 H 0.68555 0.71494 0.94537 0.0
H759 H 0.75651 0.81415 0.98595 0.0
H760 H 0.77492 0.84236 0.95765 0.0
H761 H 0.79772 0.80742 0.97168 0.0
H762 H 0.80779 0.79047 0.91168 0.0
H763 H 0.78468 0.82477 0.89728 0.0
H764 H 0.77332 0.78427 0.88489 0.0
H765 H 0.65398 0.7637 0.92901 0.0
H766 H 0.63476 0.81321 0.90044 0.0
H767 H 0.7327 0.85312 0.90506 0.0
C768 C 0.77837 0.73671 0.94762 0.0
C769 C 0.76836 0.70398 0.94823 0.0
C770 C 0.73479 0.69628 0.9486 0.0
C771 C 0.7112 0.72101 0.94719 0.0
C772 C 0.72175 0.75319 0.94481 0.0
C773 C 0.75465 0.76116 0.94536 0.0
C774 C 0.75997 0.79632 0.93553 0.0
C775 C 0.77305 0.81622 0.96446 0.0
C776 C 0.78275 0.79907 0.90557 0.0
C777 C 0.72533 0.80618 0.92716 0.0
C778 C 0.7035 0.78137 0.93366 0.0
C779 C 0.67069 0.78361 0.92464 0.0
C780 C 0.66003 0.81173 0.90822 0.0
C781 C 0.68227 0.83693 0.90055 0.0
C782 C 0.71509 0.83434 0.91087 0.0
H783 H 0.25606 0.14258 0.83896 0.0
H784 H 0.35752 0.17236 0.84603 0.0
H785 H 0.33937 0.22648 0.86654 0.0
H786 H 0.22342 0.22077 0.81324 0.0
H787 H 0.18621 0.21447 0.83599 0.0
H788 H 0.20816 0.18014 0.81962 0.0
H789 H 0.20892 0.15516 0.87688 0.0
H790 H 0.18992 0.19 0.89555 0.0
H791 H 0.22928 0.17568 0.90978 0.0
H792 H 0.30802 0.27881 0.88347 0.0
H793 H 0.26763 0.32144 0.89926 0.0
H794 H 0.1891 0.25222 0.88709 0.0
C795 C 0.2747 0.16038 0.84458 0.0
C796 C 0.30823 0.15331 0.8409 0.0
C797 C 0.33165 0.17741 0.8486 0.0
C798 C 0.32156 0.20811 0.86025 0.0
C799 C 0.28809 0.21397 0.86402 0.0
C800 C 0.26517 0.1906 0.85629 0.0
C801 C 0.23077 0.20187 0.86306 0.0
C802 C 0.211 0.20448 0.83108 0.0
C803 C 0.21371 0.1794 0.88785 0.0
C804 C 0.23771 0.23501 0.87709 0.0
C805 C 0.27074 0.24222 0.87648 0.0
C806 C 0.28225 0.27309 0.8848 0.0
C807 C 0.25933 0.29705 0.8938 0.0
C808 C 0.22575 0.28933 0.89566 0.0
C809 C 0.21493 0.25805 0.88722 0.0
H810 H 0.05918 0.71347 0.27633 0.0
H811 H 0.03146 0.80584 0.23369 0.0
H812 H 0.03613 0.78295 0.17883 0.0
H813 H 0.1233 0.70567 0.22893 0.0
H814 H 0.12322 0.66216 0.22336 0.0
H815 H 0.10436 0.67951 0.25891 0.0
H816 H 0.04967 0.6513 0.24487 0.0
H817 H 0.06853 0.63321 0.20935 0.0
H818 H 0.0317 0.65704 0.20497 0.0
H819 H 0.05706 0.75707 0.13052 0.0
H820 H 0.09495 0.73109 0.092 0.0
H821 H 0.11685 0.65617 0.16383 0.0
C822 C 0.05217 0.72801 0.2553 0.0
C823 C 0.04198 0.76061 0.25929 0.0
C824 C 0.03588 0.78001 0.23136 0.0
C825 C 0.03917 0.76725 0.19993 0.0
C826 C 0.05024 0.73536 0.19666 0.0
C827 C 0.05689 0.7159 0.22358 0.0
C828 C 0.07597 0.68574 0.21364 0.0
C829 C 0.10864 0.68317 0.2323 0.0
C830 C 0.05522 0.65499 0.21849 0.0
C831 C 0.0813 0.69272 0.17756 0.0
C832 C 0.06509 0.72084 0.16817 0.0
C833 C 0.06923 0.73462 0.13731 0.0
C834 C 0.09111 0.71988 0.11572 0.0
C835 C 0.10882 0.69174 0.12509 0.0
C836 C 0.10312 0.67738 0.156 0.0
H837 H 0.06184 0.27124 0.69182 0.0
H838 H 0.01918 0.19411 0.74936 0.0
H839 H 0.01505 0.23053 0.79664 0.0
H840 H 0.11696 0.28592 0.74885 0.0
H841 H 0.1212 0.32918 0.74261 0.0
H842 H 0.10725 0.304 0.70973 0.0
H843 H 0.05511 0.33952 0.70415 0.0
H844 H 0.06898 0.36491 0.73731 0.0
H845 H 0.02931 0.34602 0.7393 0.0
H846 H 0.0256 0.2692 0.83986 0.0
H847 H 0.06086 0.29909 0.878 0.0
H848 H 0.10767 0.348 0.79668 0.0
C849 C 0.04988 0.2629 0.71395 0.0
C850 C 0.03745 0.23093 0.71603 0.0
C851 C 0.02514 0.21953 0.74617 0.0
C852 C 0.02332 0.24006 0.77336 0.0
C853 C 0.03595 0.27146 0.77071 0.0
C854 C 0.04991 0.28256 0.74193 0.0
C855 C 0.07043 0.31272 0.74793 0.0
C856 C 0.10604 0.30761 0.73664 0.0
C857 C 0.05503 0.34257 0.73118 0.0
C858 C 0.06792 0.31533 0.78488 0.0
C859 C 0.04621 0.29249 0.79711 0.0
C860 C 0.04216 0.28753 0.83058 0.0
C861 C 0.06228 0.30462 0.85207 0.0
C862 C 0.08656 0.32594 0.84006 0.0
C863 C 0.08847 0.3326 0.80625 0.0
H864 H 0.88755 0.71897 0.85468 0.0
H865 H 0.86086 0.62632 0.81171 0.0
H866 H 0.88511 0.64391 0.75899 0.0
H867 H 0.86678 0.76673 0.78836 0.0
H868 H 0.89964 0.79535 0.79378 0.0
H869 H 0.88406 0.77331 0.82839 0.0
H870 H 0.94231 0.75219 0.84097 0.0
H871 H 0.95812 0.77363 0.80591 0.0
H872 H 0.96469 0.73029 0.8101 0.0
H873 H 0.90322 0.67539 0.70944 0.0
H874 H 0.91392 0.71778 0.6676 0.0
H875 H 0.93258 0.7879 0.74406 0.0
C876 C 0.88722 0.7021 0.83436 0.0
C877 C 0.8723 0.67133 0.83716 0.0
C878 C 0.87226 0.65003 0.81001 0.0
C879 C 0.88613 0.65974 0.78009 0.0
C880 C 0.90033 0.69054 0.77808 0.0
C881 C 0.90107 0.71129 0.80461 0.0
C882 C 0.91498 0.74413 0.79566 0.0
C883 C 0.88986 0.77146 0.8019 0.0
C884 C 0.94697 0.75042 0.81423 0.0
C885 C 0.92095 0.73918 0.75951 0.0
C886 C 0.91254 0.70802 0.74979 0.0
C887 C 0.91101 0.69942 0.71683 0.0
C888 C 0.91712 0.72352 0.69326 0.0
C889 C 0.92532 0.75546 0.7029 0.0
C890 C 0.92808 0.76311 0.73631 0.0
H891 H 0.91229 0.25323 0.28222 0.0
H892 H 0.95932 0.17122 0.23545 0.0
H893 H 0.95734 0.19955 0.18254 0.0
H894 H 0.85455 0.26165 0.22424 0.0
H895 H 0.85119 0.30541 0.22464 0.0
H896 H 0.86541 0.28422 0.26043 0.0
H897 H 0.91833 0.3187 0.26038 0.0
H898 H 0.90423 0.3402 0.22444 0.0
H899 H 0.94346 0.32008 0.22419 0.0
H900 H 0.94191 0.23002 0.13468 0.0
H901 H 0.90849 0.25774 0.09328 0.0
H902 H 0.86673 0.31996 0.16804 0.0
C903 C 0.92344 0.24215 0.26094 0.0
C904 C 0.93826 0.21118 0.26311 0.0
C905 C 0.95025 0.19599 0.23459 0.0
C906 C 0.94899 0.21185 0.2044 0.0
C907 C 0.93453 0.24251 0.2029 0.0
C908 C 0.92154 0.25746 0.23029 0.0
C909 C 0.90149 0.28716 0.22076 0.0
C910 C 0.86608 0.28441 0.23325 0.0
C911 C 0.91786 0.3184 0.23317 0.0
C912 C 0.90324 0.28502 0.18372 0.0
C913 C 0.92358 0.25978 0.17419 0.0
C914 C 0.92651 0.25029 0.1417 0.0
C915 C 0.90727 0.26607 0.11838 0.0
C916 C 0.88527 0.29101 0.12759 0.0
C917 C 0.88401 0.30146 0.16044 0.0
H918 H 0.96229 0.07086 0.65776 0.0
H919 H 0.06318 0.07001 0.62422 0.0
H920 H 0.06129 0.01061 0.61935 0.0
H921 H 0.96702 -0.00014 0.706 0.0
H922 H 0.92697 0.98494 0.69557 0.0
H923 H 0.93506 0.02798 0.69454 0.0
H924 H 0.91596 0.03066 0.63409 0.0
H925 H 0.9076 0.98762 0.63503 0.0
H926 H 0.93456 0.00411 0.60432 0.0
H927 H 0.05091 0.95124 0.6231 0.0
H928 H 0.03038 0.89522 0.63068 0.0
H929 H 0.93565 0.93381 0.65897 0.0
C930 C 0.9838 0.05826 0.64888 0.0
C931 C 0.01284 0.07533 0.64144 0.0
C932 C 0.04053 0.05773 0.63009 0.0
C933 C 0.0398 0.02386 0.62723 0.0
C934 C 0.01111 0.00777 0.6354 0.0
C935 C 0.98344 0.0243 0.64555 0.0
C936 C 0.95603 0.00081 0.65343 0.0
C937 C 0.94568 0.00357 0.68953 0.0
C938 C 0.92681 0.00612 0.63033 0.0
C939 C 0.97294 0.96863 0.64673 0.0
C940 C 0.00474 0.97324 0.63648 0.0
C941 C 0.02587 0.94724 0.63061 0.0
C942 C 0.01409 0.91556 0.63514 0.0
C943 C 0.9814 0.91025 0.64506 0.0
C944 C 0.9606 0.93718 0.65079 0.0
H945 H 0.95029 0.05219 0.33935 0.0
H946 H 0.04891 0.08736 0.35554 0.0
H947 H 0.06815 0.03045 0.362 0.0
H948 H 0.95316 0.98148 0.39446 0.0
H949 H 0.92992 0.95653 0.36673 0.0
H950 H 0.92335 -8e-05 0.36763 0.0
H951 H 0.93494 0.00318 0.30538 0.0
H952 H 0.94165 0.9599 0.30422 0.0
H953 H 0.97287 0.98719 0.28961 0.0
H954 H 0.07674 0.97016 0.36386 0.0
H955 H 0.07578 0.91087 0.35672 0.0
H956 H 0.97162 0.91517 0.33596 0.0
C957 C 0.97582 0.04802 0.34511 0.0
C958 C -0.0019 0.07415 0.34761 0.0
C959 C 0.03147 0.06765 0.35391 0.0
C960 C 0.04252 0.03548 0.35772 0.0
C961 C 0.0199 0.01029 0.35477 0.0
C962 C 0.98729 0.0162 0.34837 0.0
C963 C 0.96854 0.98492 0.34313 0.0
C964 C 0.94219 0.98045 0.36957 0.0
C965 C 0.95364 0.98374 0.30853 0.0
C966 C -0.00417 0.96033 0.34709 0.0
C967 C 0.02509 0.97548 0.35438 0.0
C968 C 0.05396 0.95802 0.35836 0.0
C969 C 0.05305 0.92425 0.35427 0.0
C970 C 0.02353 0.90819 0.34579 0.0
C971 C -0.0055 0.92659 0.34257 0.0
H972 H 0.66151 0.93329 0.95092 0.0
H973 H 0.62673 0.02497 0.91077 0.0
H974 H 0.6153 0.04469 0.96677 0.0
H975 H 0.60499 0.92746 0.01939 0.0
H976 H 0.63535 0.91145 0.04713 0.0
H977 H 0.63851 0.90345 0.00389 0.0
H978 H 0.69685 0.9278 0.00319 0.0
H979 H 0.694 0.93562 0.04642 0.0
H980 H 0.70329 0.96839 0.01853 0.0
H981 H 0.60811 0.05443 0.02629 0.0
H982 H 0.61201 0.05719 0.08608 0.0
H983 H 0.65456 0.96009 0.08837 0.0
C984 C 0.65117 0.9574 0.95396 0.0
C985 C 0.64464 0.97758 0.92664 0.0
C986 C 0.63186 0.00922 0.93146 0.0
C987 C 0.62507 0.02047 0.96309 0.0
C988 C 0.6316 -0.00012 0.98951 0.0
C989 C 0.64483 0.96922 0.98536 0.0
C990 C 0.65196 0.95303 0.018 0.0
C991 C 0.63147 0.92201 0.02235 0.0
C992 C 0.6887 0.9458 0.02175 0.0
C993 C 0.6409 0.97955 0.04121 0.0
C994 C 0.62871 0.00606 0.02415 0.0
C995 C 0.61761 0.03386 0.03993 0.0
C996 C 0.61994 0.0351 0.07403 0.0
C997 C 0.63376 0.00887 0.09212 0.0
C998 C 0.64367 0.98043 0.0754 0.0
H999 H 0.32367 0.94916 0.05636 0.0
H1000 H 0.32119 0.04765 0.09462 0.0
H1001 H 0.32117 0.06931 0.03811 0.0
H1002 H 0.37576 0.96467 0.98701 0.0
H1003 H 0.35384 0.93761 0.96022 0.0
H1004 H 0.35468 0.92987 0.00364 0.0
H1005 H 0.29137 0.92957 0.00488 0.0
H1006 H 0.29031 0.93736 0.96149 0.0
H1007 H 0.26913 0.9642 0.98919 0.0
H1008 H 0.3224 0.08016 0.97795 0.0
H1009 H 0.32182 0.07998 0.91774 0.0
H1010 H 0.32079 0.97423 0.91818 0.0
C1011 C 0.32343 0.97531 0.05288 0.0
C1012 C 0.32276 -0.00321 0.07989 0.0
C1013 C 0.32178 0.03079 0.07429 0.0
C1014 C 0.32182 0.0433 0.04231 0.0
C1015 C 0.32244 0.02144 0.01627 0.0
C1016 C 0.32296 0.98818 0.02116 0.0
C1017 C 0.32243 0.97 0.98892 0.0
C1018 C 0.35353 0.94932 0.98471 0.0
C1019 C 0.29146 0.94905 0.98596 0.0
C1020 C 0.32174 -0.00171 0.96507 0.0
C1021 C 0.322 0.02771 0.98144 0.0
C1022 C 0.3221 0.0573 0.96485 0.0
C1023 C 0.32189 0.05688 0.93061 0.0
C1024 C 0.3213 0.02706 0.91318 0.0
C1025 C 0.32107 -0.00261 0.93077 0.0
H1026 H 0.93483 0.65346 0.01421 0.0
H1027 H 0.93445 0.62776 0.91104 0.0
H1028 H -0.00551 0.62836 0.91058 0.0
H1029 H 0.00136 0.70802 0.01076 0.0
H1030 H 0.01852 0.696 0.04962 0.0
H1031 H 0.97526 0.69214 0.04254 0.0
H1032 H 0.97822 0.63077 0.05729 0.0
H1033 H 0.02144 0.63458 0.06473 0.0
H1034 H 0.00671 0.60483 0.03597 0.0
H1035 H 0.05464 0.63582 0.91999 0.0
H1036 H 0.11092 0.64434 0.94065 0.0
H1037 H 0.07194 0.6631 0.03764 0.0
C1038 C 0.94732 0.6475 0.99163 0.0
C1039 C 0.92975 0.64057 0.96273 0.0
C1040 C 0.9472 0.63305 0.93364 0.0
C1041 C 0.98139 0.63343 0.93302 0.0
C1042 C -0.0021 0.64105 0.96171 0.0
C1043 C 0.98151 0.64749 0.9906 0.0
C1044 C 0.00516 0.65518 0.01796 0.0
C1045 C -0.00025 0.6899 0.03097 0.0
C1046 C 0.00274 0.62982 0.04561 0.0
C1047 C 0.03727 0.65237 -0.00021 0.0
C1048 C 0.03261 0.64443 0.96732 0.0
C1049 C 0.05868 0.64169 0.94547 0.0
C1050 C 0.09048 0.64674 0.95732 0.0
C1051 C 0.09574 0.65404 0.99072 0.0
C1052 C 0.0687 0.65704 0.01205 0.0
H1053 H 0.05394 0.35496 0.93943 0.0
H1054 H 0.08753 0.2828 0.00996 0.0
H1055 H 0.03037 0.27248 0.02605 0.0
H1056 H 0.98855 0.38749 0.98881 0.0
H1057 H 0.96159 0.3936 0.95442 0.0
H1058 H 0.00519 0.39543 0.94873 0.0
H1059 H 0.00122 0.35107 0.90392 0.0
H1060 H 0.95763 0.34878 0.90975 0.0
H1061 H 0.9824 0.3126 0.91354 0.0
H1062 H 0.97035 0.26926 0.03387 0.0
H1063 H 0.91052 0.27634 0.03634 0.0
H1064 H 0.91523 0.35065 0.96102 0.0
C1065 C 0.04941 0.33713 0.95846 0.0
C1066 C 0.07534 0.31969 0.97347 0.0
C1067 C 0.06819 0.29659 -0.00178 0.0
C1068 C 0.03578 0.29041 0.00738 0.0
C1069 C 0.01089 0.30758 0.9916 0.0
C1070 C 0.01727 0.3307 0.96793 0.0
C1071 C 0.98601 0.34607 0.95513 0.0
C1072 C 0.9853 0.38282 0.96221 0.0
C1073 C 0.98156 0.33921 0.91841 0.0
C1074 C 0.96094 0.32802 0.97547 0.0
C1075 C 0.97597 0.30577 -0.00386 0.0
C1076 C 0.95832 0.28654 0.01783 0.0
C1077 C 0.92447 0.29069 0.01904 0.0
C1078 C 0.90864 0.31387 -0.00119 0.0
C1079 C 0.92691 0.33247 0.97634 0.0
loop_
_geom_bond_atom_site_label_1
_geom_bond_atom_site_label_2
_geom_bond_distance
_geom_bond_site_symmetry_2
_ccdc_geom_bond_type
Mn0 O5 2.095 . S
Mn0 O15 2.162 . S
Mn0 O16 2.297 . S
Mn0 O24 2.385 . S
Mn0 O25 2.209 . S
Mn0 O26 2.094 . S
Mn1 O6 2.121 . S
Mn1 N8 2.257 1_455 S
Mn1 N17 2.282 . S
Mn1 O25 2.215 . S
Mn1 O27 2.117 . S
C2 O24 1.234 . S
C2 O25 1.283 . S
C3 O15 1.281 . S
C3 O16 1.236 . S
C4 O26 1.240 . S
C4 O27 1.264 . S
O5 Mn0 2.095 . S
O5 C14 1.250 . S
O6 Mn1 2.121 . S
O6 C14 1.258 . S
C7 N8 1.326 . S
C7 C11 1.460 . S
C7 H13 0.929 . S
N8 Mn1 2.257 1_655 S
N8 C7 1.326 . S
N8 C12 1.362 . S
C9 C10 1.258 . S
C9 C12 1.431 . S
C9 C29 1.449 . S
C10 C9 1.258 . S
C10 C11 1.477 . S
C10 H30 0.931 . S
C11 C7 1.460 . S
C11 C10 1.477 . S
C11 H31 0.930 . S
C12 N8 1.362 . S
C12 C9 1.431 . S
C12 C22 1.476 . S
H13 C7 0.929 . S
C14 O5 1.250 . S
C14 O6 1.258 . S
O15 Mn0 2.162 . S
O15 C3 1.281 . S
O16 Mn0 2.297 . S
O16 C3 1.236 . S
N17 Mn1 2.282 . S
N17 C18 1.328 . S
N17 C22 1.318 1_455 S
C18 N17 1.328 . S
C18 C19 1.457 . S
C18 H23 0.929 . S
C19 C18 1.457 . S
C19 C20 1.291 1_455 S
C19 H32 0.931 . S
C20 C19 1.291 1_655 S
C20 C21 1.373 . S
C20 H33 0.929 . S
C21 C20 1.373 . S
C21 C22 1.396 . S
C21 C28 1.403 . S
C22 C12 1.476 . S
C22 N17 1.318 1_655 S
C22 C21 1.396 . S
H23 C18 0.929 . S
O24 Mn0 2.385 . S
O24 C2 1.234 . S
O25 Mn0 2.209 . S
O25 Mn1 2.215 . S
O25 C2 1.283 . S
O26 Mn0 2.094 . S
O26 C4 1.240 . S
O27 Mn1 2.117 . S
O27 C4 1.264 . S
C28 C21 1.403 . S
C28 C29 1.399 . S
C28 H34 0.929 . S
C29 C9 1.449 . S
C29 C28 1.399 . S
C29 H35 0.930 . S
H30 C10 0.931 . S
H31 C11 0.930 . S
H32 C19 0.931 . S
H33 C20 0.929 . S
H34 C28 0.929 . S
H35 C29 0.930 . S
Mn36 O41 2.095 . S
Mn36 O51 2.162 . S
Mn36 O52 2.297 . S
Mn36 O60 2.385 . S
Mn36 O61 2.209 . S
Mn36 O62 2.094 . S
Mn37 O42 2.121 . S
Mn37 N44 2.257 1_655 S
Mn37 N53 2.282 . S
Mn37 O61 2.215 . S
Mn37 O63 2.117 . S
C38 O60 1.234 . S
C38 O61 1.283 . S
C39 O51 1.281 . S
C39 O52 1.236 . S
C40 O62 1.240 . S
C40 O63 1.264 . S
O41 Mn36 2.095 . S
O41 C50 1.250 . S
O42 Mn37 2.121 . S
O42 C50 1.258 . S
C43 N44 1.326 . S
C43 C47 1.460 . S
C43 H49 0.929 . S
N44 Mn37 2.257 1_455 S
N44 C43 1.326 . S
N44 C48 1.362 . S
C45 C46 1.258 . S
C45 C48 1.431 . S
C45 C65 1.449 . S
C46 C45 1.258 . S
C46 C47 1.477 . S
C46 H66 0.931 . S
C47 C43 1.460 . S
C47 C46 1.477 . S
C47 H67 0.930 . S
C48 N44 1.362 . S
C48 C45 1.431 . S
C48 C58 1.476 . S
H49 C43 0.929 . S
C50 O41 1.250 . S
C50 O42 1.258 . S
O51 Mn36 2.162 . S
O51 C39 1.281 . S
O52 Mn36 2.297 . S
O52 C39 1.236 . S
N53 Mn37 2.282 . S
N53 C54 1.328 . S
N53 C58 1.318 1_655 S
C54 N53 1.328 . S
C54 C55 1.457 . S
C54 H59 0.929 . S
C55 C54 1.457 . S
C55 C56 1.291 1_655 S
C55 H68 0.931 . S
C56 C55 1.291 1_455 S
C56 C57 1.373 . S
C56 H69 0.929 . S
C57 C56 1.373 . S
C57 C58 1.396 . S
C57 C64 1.403 . S
C58 C48 1.476 . S
C58 N53 1.318 1_455 S
C58 C57 1.396 . S
H59 C54 0.929 . S
O60 Mn36 2.385 . S
O60 C38 1.234 . S
O61 Mn36 2.209 . S
O61 Mn37 2.215 . S
O61 C38 1.283 . S
O62 Mn36 2.094 . S
O62 C40 1.240 . S
O63 Mn37 2.117 . S
O63 C40 1.264 . S
C64 C57 1.403 . S
C64 C65 1.399 . S
C64 H70 0.929 . S
C65 C45 1.449 . S
C65 C64 1.399 . S
C65 H71 0.930 . S
H66 C46 0.931 . S
H67 C47 0.930 . S
H68 C55 0.931 . S
H69 C56 0.929 . S
H70 C64 0.929 . S
H71 C65 0.930 . S
Mn72 O77 2.095 . S
Mn72 O87 2.162 . S
Mn72 O88 2.297 . S
Mn72 O96 2.385 . S
Mn72 O97 2.209 . S
Mn72 O98 2.094 . S
Mn73 O78 2.121 . S
Mn73 N80 2.257 1_455 S
Mn73 N89 2.282 . S
Mn73 O97 2.215 . S
Mn73 O99 2.117 . S
C74 O96 1.234 . S
C74 O97 1.283 . S
C75 O87 1.281 . S
C75 O88 1.236 . S
C76 O98 1.240 . S
C76 O99 1.264 . S
O77 Mn72 2.095 . S
O77 C86 1.250 . S
O78 Mn73 2.121 . S
O78 C86 1.258 . S
C79 N80 1.326 . S
C79 C83 1.460 . S
C79 H85 0.929 . S
N80 Mn73 2.257 1_655 S
N80 C79 1.326 . S
N80 C84 1.362 . S
C81 C82 1.258 . S
C81 C84 1.431 . S
C81 C101 1.449 . S
C82 C81 1.258 . S
C82 C83 1.477 . S
C82 H102 0.931 . S
C83 C79 1.460 . S
C83 C82 1.477 . S
C83 H103 0.930 . S
C84 N80 1.362 . S
C84 C81 1.431 . S
C84 C94 1.476 . S
H85 C79 0.929 . S
C86 O77 1.250 . S
C86 O78 1.258 . S
O87 Mn72 2.162 . S
O87 C75 1.281 . S
O88 Mn72 2.297 . S
O88 C75 1.236 . S
N89 Mn73 2.282 . S
N89 C90 1.328 . S
N89 C94 1.318 1_455 S
C90 N89 1.328 . S
C90 C91 1.457 . S
C90 H95 0.929 . S
C91 C90 1.457 . S
C91 C92 1.291 1_455 S
C91 H104 0.931 . S
C92 C91 1.291 1_655 S
C92 C93 1.373 . S
C92 H105 0.929 . S
C93 C92 1.373 . S
C93 C94 1.396 . S
C93 C100 1.403 . S
C94 C84 1.476 . S
C94 N89 1.318 1_655 S
C94 C93 1.396 . S
H95 C90 0.929 . S
O96 Mn72 2.385 . S
O96 C74 1.234 . S
O97 Mn72 2.209 . S
O97 Mn73 2.215 . S
O97 C74 1.283 . S
O98 Mn72 2.094 . S
O98 C76 1.240 . S
O99 Mn73 2.117 . S
O99 C76 1.264 . S
C100 C93 1.403 . S
C100 C101 1.399 . S
C100 H106 0.929 . S
C101 C81 1.449 . S
C101 C100 1.399 . S
C101 H107 0.930 . S
H102 C82 0.931 . S
H103 C83 0.930 . S
H104 C91 0.931 . S
H105 C92 0.929 . S
H106 C100 0.929 . S
H107 C101 0.930 . S
Mn108 O113 2.095 . S
Mn108 O123 2.162 . S
Mn108 O124 2.297 . S
Mn108 O132 2.385 . S
Mn108 O133 2.209 . S
Mn108 O134 2.094 . S
Mn109 O114 2.121 . S
Mn109 N116 2.257 1_655 S
Mn109 N125 2.282 . S
Mn109 O133 2.215 . S
Mn109 O135 2.117 . S
C110 O132 1.234 . S
C110 O133 1.283 . S
C111 O123 1.281 . S
C111 O124 1.236 . S
C112 O134 1.240 . S
C112 O135 1.264 . S
O113 Mn108 2.095 . S
O113 C122 1.250 . S
O114 Mn109 2.121 . S
O114 C122 1.258 . S
C115 N116 1.326 . S
C115 C119 1.460 . S
C115 H121 0.929 . S
N116 Mn109 2.257 1_455 S
N116 C115 1.326 . S
N116 C120 1.362 . S
C117 C118 1.258 . S
C117 C120 1.431 . S
C117 C137 1.449 . S
C118 C117 1.258 . S
C118 C119 1.477 . S
C118 H138 0.931 . S
C119 C115 1.460 . S
C119 C118 1.477 . S
C119 H139 0.930 . S
C120 N116 1.362 . S
C120 C117 1.431 . S
C120 C130 1.476 . S
H121 C115 0.929 . S
C122 O113 1.250 . S
C122 O114 1.258 . S
O123 Mn108 2.162 . S
O123 C111 1.281 . S
O124 Mn108 2.297 . S
O124 C111 1.236 . S
N125 Mn109 2.282 . S
N125 C126 1.328 . S
N125 C130 1.318 1_655 S
C126 N125 1.328 . S
C126 C127 1.457 . S
C126 H131 0.929 . S
C127 C126 1.457 . S
C127 C128 1.291 1_655 S
C127 H140 0.931 . S
C128 C127 1.291 1_455 S
C128 C129 1.373 . S
C128 H141 0.929 . S
C129 C128 1.373 . S
C129 C130 1.396 . S
C129 C136 1.403 . S
C130 C120 1.476 . S
C130 N125 1.318 1_455 S
C130 C129 1.396 . S
H131 C126 0.929 . S
O132 Mn108 2.385 . S
O132 C110 1.234 . S
O133 Mn108 2.209 . S
O133 Mn109 2.215 . S
O133 C110 1.283 . S
O134 Mn108 2.094 . S
O134 C112 1.240 . S
O135 Mn109 2.117 . S
O135 C112 1.264 . S
C136 C129 1.403 . S
C136 C137 1.399 . S
C136 H142 0.929 . S
C137 C117 1.449 . S
C137 C136 1.399 . S
C137 H143 0.930 . S
H138 C118 0.931 . S
H139 C119 0.930 . S
H140 C127 0.931 . S
H141 C128 0.929 . S
H142 C136 0.929 . S
H143 C137 0.930 . S
Mn144 O149 2.095 . S
Mn144 O159 2.162 . S
Mn144 O160 2.297 . S
Mn144 O168 2.385 . S
Mn144 O169 2.209 . S
Mn144 O170 2.094 . S
Mn145 O150 2.121 . S
Mn145 N152 2.257 1_545 S
Mn145 N161 2.282 . S
Mn145 O169 2.215 . S
Mn145 O171 2.117 . S
C146 O168 1.234 . S
C146 O169 1.283 . S
C147 O159 1.281 . S
C147 O160 1.236 . S
C148 O170 1.240 . S
C148 O171 1.264 . S
O149 Mn144 2.095 . S
O149 C158 1.250 . S
O150 Mn145 2.121 . S
O150 C158 1.258 . S
C151 N152 1.326 . S
C151 C155 1.460 . S
C151 H157 0.929 . S
N152 Mn145 2.257 1_565 S
N152 C151 1.326 . S
N152 C156 1.362 . S
C153 C154 1.258 . S
C153 C156 1.431 . S
C153 C173 1.449 . S
C154 C153 1.258 . S
C154 C155 1.477 . S
C154 H174 0.931 . S
C155 C151 1.460 . S
C155 C154 1.477 . S
C155 H175 0.930 . S
C156 N152 1.362 . S
C156 C153 1.431 . S
C156 C166 1.476 . S
H157 C151 0.929 . S
C158 O149 1.250 . S
C158 O150 1.258 . S
O159 Mn144 2.162 . S
O159 C147 1.281 . S
O160 Mn144 2.297 . S
O160 C147 1.236 . S
N161 Mn145 2.282 . S
N161 C162 1.328 . S
N161 C166 1.318 1_545 S
C162 N161 1.328 . S
C162 C163 1.457 . S
C162 H167 0.929 . S
C163 C162 1.457 . S
C163 C164 1.291 1_545 S
C163 H176 0.931 . S
C164 C163 1.291 1_565 S
C164 C165 1.373 . S
C164 H177 0.929 . S
C165 C164 1.373 . S
C165 C166 1.396 . S
C165 C172 1.403 . S
C166 C156 1.476 . S
C166 N161 1.318 1_565 S
C166 C165 1.396 . S
H167 C162 0.929 . S
O168 Mn144 2.385 . S
O168 C146 1.234 . S
O169 Mn144 2.209 . S
O169 Mn145 2.215 . S
O169 C146 1.283 . S
O170 Mn144 2.094 . S
O170 C148 1.240 . S
O171 Mn145 2.117 . S
O171 C148 1.264 . S
C172 C165 1.403 . S
C172 C173 1.399 . S
C172 H178 0.929 . S
C173 C153 1.449 . S
C173 C172 1.399 . S
C173 H179 0.930 . S
H174 C154 0.931 . S
H175 C155 0.930 . S
H176 C163 0.931 . S
H177 C164 0.929 . S
H178 C172 0.929 . S
H179 C173 0.930 . S
Mn180 O185 2.095 . S
Mn180 O195 2.162 . S
Mn180 O196 2.297 . S
Mn180 O204 2.385 . S
Mn180 O205 2.209 . S
Mn180 O206 2.094 . S
Mn181 O186 2.121 . S
Mn181 N188 2.257 1_565 S
Mn181 N197 2.282 . S
Mn181 O205 2.215 . S
Mn181 O207 2.117 . S
C182 O204 1.234 . S
C182 O205 1.283 . S
C183 O195 1.281 . S
C183 O196 1.236 . S
C184 O206 1.240 . S
C184 O207 1.264 . S
O185 Mn180 2.095 . S
O185 C194 1.250 . S
O186 Mn181 2.121 . S
O186 C194 1.258 . S
C187 N188 1.326 . S
C187 C191 1.460 . S
C187 H193 0.929 . S
N188 Mn181 2.257 1_545 S
N188 C187 1.326 . S
N188 C192 1.362 . S
C189 C190 1.258 . S
C189 C192 1.431 . S
C189 C209 1.449 . S
C190 C189 1.258 . S
C190 C191 1.477 . S
C190 H210 0.931 . S
C191 C187 1.460 . S
C191 C190 1.477 . S
C191 H211 0.930 . S
C192 N188 1.362 . S
C192 C189 1.431 . S
C192 C202 1.476 . S
H193 C187 0.929 . S
C194 O185 1.250 . S
C194 O186 1.258 . S
O195 Mn180 2.162 . S
O195 C183 1.281 . S
O196 Mn180 2.297 . S
O196 C183 1.236 . S
N197 Mn181 2.282 . S
N197 C198 1.328 . S
N197 C202 1.318 1_565 S
C198 N197 1.328 . S
C198 C199 1.457 . S
C198 H203 0.929 . S
C199 C198 1.457 . S
C199 C200 1.291 1_565 S
C199 H212 0.931 . S
C200 C199 1.291 1_545 S
C200 C201 1.373 . S
C200 H213 0.929 . S
C201 C200 1.373 . S
C201 C202 1.396 . S
C201 C208 1.403 . S
C202 C192 1.476 . S
C202 N197 1.318 1_545 S
C202 C201 1.396 . S
H203 C198 0.929 . S
O204 Mn180 2.385 . S
O204 C182 1.234 . S
O205 Mn180 2.209 . S
O205 Mn181 2.215 . S
O205 C182 1.283 . S
O206 Mn180 2.094 . S
O206 C184 1.240 . S
O207 Mn181 2.117 . S
O207 C184 1.264 . S
C208 C201 1.403 . S
C208 C209 1.399 . S
C208 H214 0.929 . S
C209 C189 1.449 . S
C209 C208 1.399 . S
C209 H215 0.930 . S
H210 C190 0.931 . S
H211 C191 0.930 . S
H212 C199 0.931 . S
H213 C200 0.929 . S
H214 C208 0.929 . S
H215 C209 0.930 . S
Mn216 O221 2.095 . S
Mn216 O231 2.162 . S
Mn216 O232 2.297 . S
Mn216 O240 2.385 . S
Mn216 O241 2.209 . S
Mn216 O242 2.094 . S
Mn217 O222 2.121 . S
Mn217 N224 2.257 1_565 S
Mn217 N233 2.282 . S
Mn217 O241 2.215 . S
Mn217 O243 2.117 . S
C218 O240 1.234 . S
C218 O241 1.283 . S
C219 O231 1.281 . S
C219 O232 1.236 . S
C220 O242 1.240 . S
C220 O243 1.264 . S
O221 Mn216 2.095 . S
O221 C230 1.250 . S
O222 Mn217 2.121 . S
O222 C230 1.258 . S
C223 N224 1.326 . S
C223 C227 1.460 . S
C223 H229 0.929 . S
N224 Mn217 2.257 1_545 S
N224 C223 1.326 . S
N224 C228 1.362 . S
C225 C226 1.258 . S
C225 C228 1.431 . S
C225 C245 1.449 . S
C226 C225 1.258 . S
C226 C227 1.477 . S
C226 H246 0.931 . S
C227 C223 1.460 . S
C227 C226 1.477 . S
C227 H247 0.930 . S
C228 N224 1.362 . S
C228 C225 1.431 . S
C228 C238 1.476 . S
H229 C223 0.929 . S
C230 O221 1.250 . S
C230 O222 1.258 . S
O231 Mn216 2.162 . S
O231 C219 1.281 . S
O232 Mn216 2.297 . S
O232 C219 1.236 . S
N233 Mn217 2.282 . S
N233 C234 1.328 . S
N233 C238 1.318 1_565 S
C234 N233 1.328 . S
C234 C235 1.457 . S
C234 H239 0.929 . S
C235 C234 1.457 . S
C235 C236 1.291 1_565 S
C235 H248 0.931 . S
C236 C235 1.291 1_545 S
C236 C237 1.373 . S
C236 H249 0.929 . S
C237 C236 1.373 . S
C237 C238 1.396 . S
C237 C244 1.403 . S
C238 C228 1.476 . S
C238 N233 1.318 1_545 S
C238 C237 1.396 . S
H239 C234 0.929 . S
O240 Mn216 2.385 . S
O240 C218 1.234 . S
O241 Mn216 2.209 . S
O241 Mn217 2.215 . S
O241 C218 1.283 . S
O242 Mn216 2.094 . S
O242 C220 1.240 . S
O243 Mn217 2.117 . S
O243 C220 1.264 . S
C244 C237 1.403 . S
C244 C245 1.399 . S
C244 H250 0.929 . S
C245 C225 1.449 . S
C245 C244 1.399 . S
C245 H251 0.930 . S
H246 C226 0.931 . S
H247 C227 0.930 . S
H248 C235 0.931 . S
H249 C236 0.929 . S
H250 C244 0.929 . S
H251 C245 0.930 . S
Mn252 O257 2.095 . S
Mn252 O267 2.162 . S
Mn252 O268 2.297 . S
Mn252 O276 2.385 . S
Mn252 O277 2.209 . S
Mn252 O278 2.094 . S
Mn253 O258 2.121 . S
Mn253 N260 2.257 1_545 S
Mn253 N269 2.282 . S
Mn253 O277 2.215 . S
Mn253 O279 2.117 . S
C254 O276 1.234 . S
C254 O277 1.283 . S
C255 O267 1.281 . S
C255 O268 1.236 . S
C256 O278 1.240 . S
C256 O279 1.264 . S
O257 Mn252 2.095 . S
O257 C266 1.250 . S
O258 Mn253 2.121 . S
O258 C266 1.258 . S
C259 N260 1.326 . S
C259 C263 1.460 . S
C259 H265 0.929 . S
N260 Mn253 2.257 1_565 S
N260 C259 1.326 . S
N260 C264 1.362 . S
C261 C262 1.258 . S
C261 C264 1.431 . S
C261 C281 1.449 . S
C262 C261 1.258 . S
C262 C263 1.477 . S
C262 H282 0.931 . S
C263 C259 1.460 . S
C263 C262 1.477 . S
C263 H283 0.930 . S
C264 N260 1.362 . S
C264 C261 1.431 . S
C264 C274 1.476 . S
H265 C259 0.929 . S
C266 O257 1.250 . S
C266 O258 1.258 . S
O267 Mn252 2.162 . S
O267 C255 1.281 . S
O268 Mn252 2.297 . S
O268 C255 1.236 . S
N269 Mn253 2.282 . S
N269 C270 1.328 . S
N269 C274 1.318 1_545 S
C270 N269 1.328 . S
C270 C271 1.457 . S
C270 H275 0.929 . S
C271 C270 1.457 . S
C271 C272 1.291 1_545 S
C271 H284 0.931 . S
C272 C271 1.291 1_565 S
C272 C273 1.373 . S
C272 H285 0.929 . S
C273 C272 1.373 . S
C273 C274 1.396 . S
C273 C280 1.403 . S
C274 C264 1.476 . S
C274 N269 1.318 1_565 S
C274 C273 1.396 . S
H275 C270 0.929 . S
O276 Mn252 2.385 . S
O276 C254 1.234 . S
O277 Mn252 2.209 . S
O277 Mn253 2.215 . S
O277 C254 1.283 . S
O278 Mn252 2.094 . S
O278 C256 1.240 . S
O279 Mn253 2.117 . S
O279 C256 1.264 . S
C280 C273 1.403 . S
C280 C281 1.399 . S
C280 H286 0.929 . S
C281 C261 1.449 . S
C281 C280 1.399 . S
C281 H287 0.930 . S
H282 C262 0.931 . S
H283 C263 0.930 . S
H284 C271 0.931 . S
H285 C272 0.929 . S
H286 C280 0.929 . S
H287 C281 0.930 . S
Mn288 O293 2.095 . S
Mn288 O303 2.162 . S
Mn288 O304 2.297 . S
Mn288 O312 2.385 . S
Mn288 O313 2.209 . S
Mn288 O314 2.094 . S
Mn289 O294 2.121 . S
Mn289 N296 2.257 1_554 S
Mn289 N305 2.282 . S
Mn289 O313 2.215 . S
Mn289 O315 2.117 . S
C290 O312 1.234 . S
C290 O313 1.283 . S
C291 O303 1.281 . S
C291 O304 1.236 . S
C292 O314 1.240 . S
C292 O315 1.264 . S
O293 Mn288 2.095 . S
O293 C302 1.250 . S
O294 Mn289 2.121 . S
O294 C302 1.258 . S
C295 N296 1.326 . S
C295 C299 1.460 . S
C295 H301 0.929 . S
N296 Mn289 2.257 1_556 S
N296 C295 1.326 . S
N296 C300 1.362 . S
C297 C298 1.258 . S
C297 C300 1.431 . S
C297 C317 1.449 . S
C298 C297 1.258 . S
C298 C299 1.477 . S
C298 H318 0.931 . S
C299 C295 1.460 . S
C299 C298 1.477 . S
C299 H319 0.930 . S
C300 N296 1.362 . S
C300 C297 1.431 . S
C300 C310 1.476 . S
H301 C295 0.929 . S
C302 O293 1.250 . S
C302 O294 1.258 . S
O303 Mn288 2.162 . S
O303 C291 1.281 . S
O304 Mn288 2.297 . S
O304 C291 1.236 . S
N305 Mn289 2.282 . S
N305 C306 1.328 . S
N305 C310 1.318 1_554 S
C306 N305 1.328 . S
C306 C307 1.457 . S
C306 H311 0.929 . S
C307 C306 1.457 . S
C307 C308 1.291 1_554 S
C307 H320 0.931 . S
C308 C307 1.291 1_556 S
C308 C309 1.373 . S
C308 H321 0.929 . S
C309 C308 1.373 . S
C309 C310 1.396 . S
C309 C316 1.403 . S
C310 C300 1.476 . S
C310 N305 1.318 1_556 S
C310 C309 1.396 . S
H311 C306 0.929 . S
O312 Mn288 2.385 . S
O312 C290 1.234 . S
O313 Mn288 2.209 . S
O313 Mn289 2.215 . S
O313 C290 1.283 . S
O314 Mn288 2.094 . S
O314 C292 1.240 . S
O315 Mn289 2.117 . S
O315 C292 1.264 . S
C316 C309 1.403 . S
C316 C317 1.399 . S
C316 H322 0.929 . S
C317 C297 1.449 . S
C317 C316 1.399 . S
C317 H323 0.930 . S
H318 C298 0.931 . S
H319 C299 0.930 . S
H320 C307 0.931 . S
H321 C308 0.929 . S
H322 C316 0.929 . S
H323 C317 0.930 . S
Mn324 O329 2.095 . S
Mn324 O339 2.162 . S
Mn324 O340 2.297 . S
Mn324 O348 2.385 . S
Mn324 O349 2.209 . S
Mn324 O350 2.094 . S
Mn325 O330 2.121 . S
Mn325 N332 2.257 1_556 S
Mn325 N341 2.282 . S
Mn325 O349 2.215 . S
Mn325 O351 2.117 . S
C326 O348 1.234 . S
C326 O349 1.283 . S
C327 O339 1.281 . S
C327 O340 1.236 . S
C328 O350 1.240 . S
C328 O351 1.264 . S
O329 Mn324 2.095 . S
O329 C338 1.250 . S
O330 Mn325 2.121 . S
O330 C338 1.258 . S
C331 N332 1.326 . S
C331 C335 1.460 . S
C331 H337 0.929 . S
N332 Mn325 2.257 1_554 S
N332 C331 1.326 . S
N332 C336 1.362 . S
C333 C334 1.258 . S
C333 C336 1.431 . S
C333 C353 1.449 . S
C334 C333 1.258 . S
C334 C335 1.477 . S
C334 H354 0.931 . S
C335 C331 1.460 . S
C335 C334 1.477 . S
C335 H355 0.930 . S
C336 N332 1.362 . S
C336 C333 1.431 . S
C336 C346 1.476 . S
H337 C331 0.929 . S
C338 O329 1.250 . S
C338 O330 1.258 . S
O339 Mn324 2.162 . S
O339 C327 1.281 . S
O340 Mn324 2.297 . S
O340 C327 1.236 . S
N341 Mn325 2.282 . S
N341 C342 1.328 . S
N341 C346 1.318 1_556 S
C342 N341 1.328 . S
C342 C343 1.457 . S
C342 H347 0.929 . S
C343 C342 1.457 . S
C343 C344 1.291 1_556 S
C343 H356 0.931 . S
C344 C343 1.291 1_554 S
C344 C345 1.373 . S
C344 H357 0.929 . S
C345 C344 1.373 . S
C345 C346 1.396 . S
C345 C352 1.403 . S
C346 C336 1.476 . S
C346 N341 1.318 1_554 S
C346 C345 1.396 . S
H347 C342 0.929 . S
O348 Mn324 2.385 . S
O348 C326 1.234 . S
O349 Mn324 2.209 . S
O349 Mn325 2.215 . S
O349 C326 1.283 . S
O350 Mn324 2.094 . S
O350 C328 1.240 . S
O351 Mn325 2.117 . S
O351 C328 1.264 . S
C352 C345 1.403 . S
C352 C353 1.399 . S
C352 H358 0.929 . S
C353 C333 1.449 . S
C353 C352 1.399 . S
C353 H359 0.930 . S
H354 C334 0.931 . S
H355 C335 0.930 . S
H356 C343 0.931 . S
H357 C344 0.929 . S
H358 C352 0.929 . S
H359 C353 0.930 . S
Mn360 O365 2.095 . S
Mn360 O375 2.162 . S
Mn360 O376 2.297 . S
Mn360 O384 2.385 . S
Mn360 O385 2.209 . S
Mn360 O386 2.094 . S
Mn361 O366 2.121 . S
Mn361 N368 2.257 1_556 S
Mn361 N377 2.282 . S
Mn361 O385 2.215 . S
Mn361 O387 2.117 . S
C362 O384 1.234 . S
C362 O385 1.283 . S
C363 O375 1.281 . S
C363 O376 1.236 . S
C364 O386 1.240 . S
C364 O387 1.264 . S
O365 Mn360 2.095 . S
O365 C374 1.250 . S
O366 Mn361 2.121 . S
O366 C374 1.258 . S
C367 N368 1.326 . S
C367 C371 1.460 . S
C367 H373 0.929 . S
N368 Mn361 2.257 1_554 S
N368 C367 1.326 . S
N368 C372 1.362 . S
C369 C370 1.258 . S
C369 C372 1.431 . S
C369 C389 1.449 . S
C370 C369 1.258 . S
C370 C371 1.477 . S
C370 H390 0.931 . S
C371 C367 1.460 . S
C371 C370 1.477 . S
C371 H391 0.930 . S
C372 N368 1.362 . S
C372 C369 1.431 . S
C372 C382 1.476 . S
H373 C367 0.929 . S
C374 O365 1.250 . S
C374 O366 1.258 . S
O375 Mn360 2.162 . S
O375 C363 1.281 . S
O376 Mn360 2.297 . S
O376 C363 1.236 . S
N377 Mn361 2.282 . S
N377 C378 1.328 . S
N377 C382 1.318 1_556 S
C378 N377 1.328 . S
C378 C379 1.457 . S
C378 H383 0.929 . S
C379 C378 1.457 . S
C379 C380 1.291 1_556 S
C379 H392 0.931 . S
C380 C379 1.291 1_554 S
C380 C381 1.373 . S
C380 H393 0.929 . S
C381 C380 1.373 . S
C381 C382 1.396 . S
C381 C388 1.403 . S
C382 C372 1.476 . S
C382 N377 1.318 1_554 S
C382 C381 1.396 . S
H383 C378 0.929 . S
O384 Mn360 2.385 . S
O384 C362 1.234 . S
O385 Mn360 2.209 . S
O385 Mn361 2.215 . S
O385 C362 1.283 . S
O386 Mn360 2.094 . S
O386 C364 1.240 . S
O387 Mn361 2.117 . S
O387 C364 1.264 . S
C388 C381 1.403 . S
C388 C389 1.399 . S
C388 H394 0.929 . S
C389 C369 1.449 . S
C389 C388 1.399 . S
C389 H395 0.930 . S
H390 C370 0.931 . S
H391 C371 0.930 . S
H392 C379 0.931 . S
H393 C380 0.929 . S
H394 C388 0.929 . S
H395 C389 0.930 . S
Mn396 O401 2.095 . S
Mn396 O411 2.162 . S
Mn396 O412 2.297 . S
Mn396 O420 2.385 . S
Mn396 O421 2.209 . S
Mn396 O422 2.094 . S
Mn397 O402 2.121 . S
Mn397 N404 2.257 1_554 S
Mn397 N413 2.282 . S
Mn397 O421 2.215 . S
Mn397 O423 2.117 . S
C398 O420 1.234 . S
C398 O421 1.283 . S
C399 O411 1.281 . S
C399 O412 1.236 . S
C400 O422 1.240 . S
C400 O423 1.264 . S
O401 Mn396 2.095 . S
O401 C410 1.250 . S
O402 Mn397 2.121 . S
O402 C410 1.258 . S
C403 N404 1.326 . S
C403 C407 1.460 . S
C403 H409 0.929 . S
N404 Mn397 2.257 1_556 S
N404 C403 1.326 . S
N404 C408 1.362 . S
C405 C406 1.258 . S
C405 C408 1.431 . S
C405 C425 1.449 . S
C406 C405 1.258 . S
C406 C407 1.477 . S
C406 H426 0.931 . S
C407 C403 1.460 . S
C407 C406 1.477 . S
C407 H427 0.930 . S
C408 N404 1.362 . S
C408 C405 1.431 . S
C408 C418 1.476 . S
H409 C403 0.929 . S
C410 O401 1.250 . S
C410 O402 1.258 . S
O411 Mn396 2.162 . S
O411 C399 1.281 . S
O412 Mn396 2.297 . S
O412 C399 1.236 . S
N413 Mn397 2.282 . S
N413 C414 1.328 . S
N413 C418 1.318 1_554 S
C414 N413 1.328 . S
C414 C415 1.457 . S
C414 H419 0.929 . S
C415 C414 1.457 . S
C415 C416 1.291 1_554 S
C415 H428 0.931 . S
C416 C415 1.291 1_556 S
C416 C417 1.373 . S
C416 H429 0.929 . S
C417 C416 1.373 . S
C417 C418 1.396 . S
C417 C424 1.403 . S
C418 C408 1.476 . S
C418 N413 1.318 1_556 S
C418 C417 1.396 . S
H419 C414 0.929 . S
O420 Mn396 2.385 . S
O420 C398 1.234 . S
O421 Mn396 2.209 . S
O421 Mn397 2.215 . S
O421 C398 1.283 . S
O422 Mn396 2.094 . S
O422 C400 1.240 . S
O423 Mn397 2.117 . S
O423 C400 1.264 . S
C424 C417 1.403 . S
C424 C425 1.399 . S
C424 H430 0.929 . S
C425 C405 1.449 . S
C425 C424 1.399 . S
C425 H431 0.930 . S
H426 C406 0.931 . S
H427 C407 0.930 . S
H428 C415 0.931 . S
H429 C416 0.929 . S
H430 C424 0.929 . S
H431 C425 0.930 . S
H432 C444 0.930 . S
H433 C446 0.930 . S
H434 C447 0.930 . S
H435 C451 0.959 . S
H436 C451 0.959 . S
H437 C451 0.961 . S
H438 C452 0.960 . S
H439 C452 0.961 . S
H440 C452 0.959 . S
H441 C455 0.929 . S
H442 C456 0.931 . S
H443 C458 0.930 . S
C444 H432 0.930 . S
C444 C445 1.399 . S
C444 C449 1.399 . S
C445 C444 1.399 . S
C445 C446 1.376 . S
C446 H433 0.930 . S
C446 C445 1.376 . S
C446 C447 1.388 1_655 S
C447 H434 0.930 . S
C447 C446 1.388 1_455 S
C447 C448 1.390 . S
C448 C447 1.390 . S
C448 C449 1.394 1_455 S
C448 C454 1.465 . S
C449 C444 1.399 . S
C449 C448 1.394 1_655 S
C449 C450 1.516 . S
C450 C449 1.516 . S
C450 C451 1.502 . S
C450 C452 1.561 . S
C450 C453 1.526 1_655 S
C451 H435 0.959 . S
C451 H436 0.959 . S
C451 H437 0.961 . S
C451 C450 1.502 . S
C452 H438 0.960 . S
C452 H439 0.961 . S
C452 H440 0.959 . S
C452 C450 1.561 . S
C453 C450 1.526 1_455 S
C453 C454 1.396 . S
C453 C458 1.390 . S
C454 C448 1.465 . S
C454 C453 1.396 . S
C454 C455 1.399 . S
C455 H441 0.929 . S
C455 C454 1.399 . S
C455 C456 1.385 . S
C456 H442 0.931 . S
C456 C455 1.385 . S
C456 C457 1.389 . S
C457 C456 1.389 . S
C457 C458 1.387 . S
C458 H443 0.930 . S
C458 C453 1.390 . S
C458 C457 1.387 . S
H459 C471 0.930 . S
H460 C473 0.930 . S
H461 C474 0.930 . S
H462 C478 0.959 . S
H463 C478 0.959 . S
H464 C478 0.961 . S
H465 C479 0.960 . S
H466 C479 0.961 . S
H467 C479 0.959 . S
H468 C482 0.929 . S
H469 C483 0.931 . S
H470 C485 0.930 . S
C471 H459 0.930 . S
C471 C472 1.399 . S
C471 C476 1.399 . S
C472 C471 1.399 . S
C472 C473 1.376 . S
C473 H460 0.930 . S
C473 C472 1.376 . S
C473 C474 1.388 . S
C474 H461 0.930 . S
C474 C473 1.388 . S
C474 C475 1.390 . S
C475 C474 1.390 . S
C475 C476 1.394 . S
C475 C481 1.465 1_455 S
C476 C471 1.399 . S
C476 C475 1.394 . S
C476 C477 1.516 . S
C477 C476 1.516 . S
C477 C478 1.502 . S
C477 C479 1.561 1_455 S
C477 C480 1.526 1_455 S
C478 H462 0.959 . S
C478 H463 0.959 . S
C478 H464 0.961 . S
C478 C477 1.502 . S
C479 H465 0.960 . S
C479 H466 0.961 . S
C479 H467 0.959 . S
C479 C477 1.561 1_655 S
C480 C477 1.526 1_655 S
C480 C481 1.396 . S
C480 C485 1.390 . S
C481 C475 1.465 1_655 S
C481 C480 1.396 . S
C481 C482 1.399 . S
C482 H468 0.929 . S
C482 C481 1.399 . S
C482 C483 1.385 . S
C483 H469 0.931 . S
C483 C482 1.385 . S
C483 C484 1.389 . S
C484 C483 1.389 . S
C484 C485 1.387 . S
C485 H470 0.930 . S
C485 C480 1.390 . S
C485 C484 1.387 . S
H486 C498 0.930 . S
H487 C500 0.930 . S
H488 C501 0.930 . S
H489 C505 0.959 . S
H490 C505 0.959 . S
H491 C505 0.961 . S
H492 C506 0.960 . S
H493 C506 0.961 . S
H494 C506 0.959 . S
H495 C509 0.929 . S
H496 C510 0.931 . S
H497 C512 0.930 . S
C498 H486 0.930 . S
C498 C499 1.399 . S
C498 C503 1.399 . S
C499 C498 1.399 . S
C499 C500 1.376 . S
C500 H487 0.930 . S
C500 C499 1.376 . S
C500 C501 1.388 . S
C501 H488 0.930 . S
C501 C500 1.388 . S
C501 C502 1.390 . S
C502 C501 1.390 . S
C502 C503 1.394 . S
C502 C508 1.465 1_565 S
C503 C498 1.399 . S
C503 C502 1.394 . S
C503 C504 1.516 . S
C504 C503 1.516 . S
C504 C505 1.502 . S
C504 C506 1.561 1_565 S
C504 C507 1.526 1_565 S
C505 H489 0.959 . S
C505 H490 0.959 . S
C505 H491 0.961 . S
C505 C504 1.502 . S
C506 H492 0.960 . S
C506 H493 0.961 . S
C506 H494 0.959 . S
C506 C504 1.561 1_545 S
C507 C504 1.526 1_545 S
C507 C508 1.396 . S
C507 C512 1.390 . S
C508 C502 1.465 1_545 S
C508 C507 1.396 . S
C508 C509 1.399 . S
C509 H495 0.929 . S
C509 C508 1.399 . S
C509 C510 1.385 . S
C510 H496 0.931 . S
C510 C509 1.385 . S
C510 C511 1.389 . S
C511 C510 1.389 . S
C511 C512 1.387 . S
C512 H497 0.930 . S
C512 C507 1.390 . S
C512 C511 1.387 . S
H513 C525 0.930 . S
H514 C527 0.930 . S
H515 C528 0.930 . S
H516 C532 0.959 . S
H517 C532 0.959 . S
H518 C532 0.961 . S
H519 C533 0.960 . S
H520 C533 0.961 1_545 S
H521 C533 0.959 . S
H522 C536 0.939 . S
H523 C537 0.931 . S
H524 C539 0.930 . S
C525 H513 0.930 . S
C525 C526 1.399 . S
C525 C530 1.399 . S
C526 C525 1.399 . S
C526 C527 1.376 . S
C527 H514 0.930 . S
C527 C526 1.376 . S
C527 C528 1.388 . S
C528 H515 0.930 . S
C528 C527 1.388 . S
C528 C529 1.390 . S
C529 C528 1.390 . S
C529 C530 1.394 . S
C529 C535 1.465 1_565 S
C530 C525 1.399 . S
C530 C529 1.394 . S
C530 C531 1.516 1_565 S
C531 C530 1.516 1_545 S
C531 C532 1.502 . S
C531 C533 1.561 1_545 S
C531 C534 1.526 . S
C532 H516 0.959 . S
C532 H517 0.959 . S
C532 H518 0.961 . S
C532 C531 1.502 . S
C533 H519 0.960 . S
C533 H520 0.961 1_565 S
C533 H521 0.959 . S
C533 C531 1.561 1_565 S
C534 C531 1.526 . S
C534 C535 1.396 . S
C534 C539 1.390 . S
C535 C529 1.465 1_545 S
C535 C534 1.396 . S
C535 C536 1.399 . S
C536 H522 0.939 . S
C536 C535 1.399 . S
C536 C537 1.385 . S
C537 H523 0.931 . S
C537 C536 1.385 . S
C537 C538 1.389 . S
C538 C537 1.389 . S
C538 C539 1.387 . S
C539 H524 0.930 . S
C539 C534 1.390 . S
C539 C538 1.387 . S
H540 C552 0.930 . S
H541 C554 0.930 . S
H542 C555 0.930 . S
H543 C559 0.959 . S
H544 C559 0.959 . S
H545 C559 0.961 . S
H546 C560 0.960 . S
H547 C560 0.961 . S
H548 C560 0.959 . S
H549 C563 0.929 . S
H550 C564 0.931 . S
H551 C566 0.930 . S
C552 H540 0.930 . S
C552 C553 1.399 . S
C552 C557 1.399 . S
C553 C552 1.399 . S
C553 C554 1.376 . S
C554 H541 0.930 . S
C554 C553 1.376 . S
C554 C555 1.388 1_556 S
C555 H542 0.930 . S
C555 C554 1.388 1_554 S
C555 C556 1.392 . S
C556 C555 1.392 . S
C556 C557 1.384 1_554 S
C556 C562 1.472 . S
C557 C552 1.399 . S
C557 C556 1.384 1_556 S
C557 C558 1.516 . S
C558 C557 1.516 . S
C558 C559 1.502 . S
C558 C560 1.561 . S
C558 C561 1.526 1_556 S
C559 H543 0.959 . S
C559 H544 0.959 . S
C559 H545 0.961 . S
C559 C558 1.502 . S
C560 H546 0.960 . S
C560 H547 0.961 . S
C560 H548 0.959 . S
C560 C558 1.561 . S
C561 C558 1.526 1_554 S
C561 C562 1.396 . S
C561 C566 1.390 . S
C562 C556 1.472 . S
C562 C561 1.396 . S
C562 C563 1.399 . S
C563 H549 0.929 . S
C563 C562 1.399 . S
C563 C564 1.385 . S
C564 H550 0.931 . S
C564 C563 1.385 . S
C564 C565 1.389 . S
C565 C564 1.389 . S
C565 C566 1.387 . S
C566 H551 0.930 . S
C566 C561 1.390 . S
C566 C565 1.387 . S
H567 C579 0.930 . S
H568 C581 0.930 . S
H569 C582 0.930 . S
H570 C586 0.959 . S
H571 C586 0.959 . S
H572 C586 0.961 . S
H573 C587 0.960 . S
H574 C587 0.961 . S
H575 C587 0.959 . S
H576 C590 0.910 1_556 S
H577 C591 0.931 . S
H578 C593 0.930 . S
C579 H567 0.930 . S
C579 C580 1.399 . S
C579 C584 1.399 . S
C580 C579 1.399 . S
C580 C581 1.376 . S
C581 H568 0.930 . S
C581 C580 1.376 . S
C581 C582 1.388 . S
C582 H569 0.930 . S
C582 C581 1.388 . S
C582 C583 1.390 . S
C583 C582 1.390 . S
C583 C584 1.394 . S
C583 C589 1.465 1_556 S
C584 C579 1.399 . S
C584 C583 1.394 . S
C584 C585 1.516 1_556 S
C585 C584 1.516 1_554 S
C585 C586 1.502 . S
C585 C587 1.561 . S
C585 C588 1.526 . S
C586 H570 0.959 . S
C586 H571 0.959 . S
C586 H572 0.961 . S
C586 C585 1.502 . S
C587 H573 0.960 . S
C587 H574 0.961 . S
C587 H575 0.959 . S
C587 C585 1.561 . S
C588 C585 1.526 . S
C588 C589 1.396 . S
C588 C593 1.390 . S
C589 C583 1.465 1_554 S
C589 C588 1.396 . S
C589 C590 1.400 . S
C590 H576 0.910 1_554 S
C590 C589 1.400 . S
C590 C591 1.404 . S
C591 H577 0.931 . S
C591 C590 1.404 . S
C591 C592 1.389 . S
C592 C591 1.389 . S
C592 C593 1.387 . S
C593 H578 0.930 . S
C593 C588 1.390 . S
C593 C592 1.387 . S
H594 C606 0.930 . S
H595 C608 0.930 . S
H596 C609 0.930 . S
H597 C613 0.959 . S
H598 C613 0.959 . S
H599 C613 0.961 . S
H600 C614 0.960 . S
H601 C614 0.961 . S
H602 C614 0.959 . S
H603 C617 0.929 . S
H604 C618 0.931 . S
H605 C620 0.930 . S
C606 H594 0.930 . S
C606 C607 1.399 . S
C606 C611 1.399 . S
C607 C606 1.399 . S
C607 C608 1.376 . S
C608 H595 0.930 . S
C608 C607 1.376 . S
C608 C609 1.388 . S
C609 H596 0.930 . S
C609 C608 1.388 . S
C609 C610 1.390 . S
C610 C609 1.390 . S
C610 C611 1.394 . S
C610 C616 1.465 . S
C611 C606 1.399 . S
C611 C610 1.394 . S
C611 C612 1.516 . S
C612 C611 1.516 . S
C612 C613 1.502 . S
C612 C614 1.561 . S
C612 C615 1.526 . S
C613 H597 0.959 . S
C613 H598 0.959 . S
C613 H599 0.961 . S
C613 C612 1.502 . S
C614 H600 0.960 . S
C614 H601 0.961 . S
C614 H602 0.959 . S
C614 C612 1.561 . S
C615 C612 1.526 . S
C615 C616 1.396 . S
C615 C620 1.390 . S
C616 C610 1.465 . S
C616 C615 1.396 . S
C616 C617 1.399 . S
C617 H603 0.929 . S
C617 C616 1.399 . S
C617 C618 1.385 . S
C618 H604 0.931 . S
C618 C617 1.385 . S
C618 C619 1.389 . S
C619 C618 1.389 . S
C619 C620 1.387 . S
C620 H605 0.930 . S
C620 C615 1.390 . S
C620 C619 1.387 . S
H621 C633 0.930 . S
H622 C635 0.930 . S
H623 C636 0.930 . S
H624 C640 0.959 . S
H625 C640 0.959 . S
H626 C640 0.961 . S
H627 C641 0.960 . S
H628 C641 0.961 . S
H629 C641 0.959 . S
H630 C644 0.929 . S
H631 C645 0.931 . S
H632 C647 0.930 . S
C633 H621 0.930 . S
C633 C634 1.399 . S
C633 C638 1.399 . S
C634 C633 1.399 . S
C634 C635 1.376 . S
C635 H622 0.930 . S
C635 C634 1.376 . S
C635 C636 1.388 . S
C636 H623 0.930 . S
C636 C635 1.388 . S
C636 C637 1.390 . S
C637 C636 1.390 . S
C637 C638 1.394 . S
C637 C643 1.465 . S
C638 C633 1.399 . S
C638 C637 1.394 . S
C638 C639 1.516 . S
C639 C638 1.516 . S
C639 C640 1.502 . S
C639 C641 1.561 . S
C639 C642 1.526 . S
C640 H624 0.959 . S
C640 H625 0.959 . S
C640 H626 0.961 . S
C640 C639 1.502 . S
C641 H627 0.960 . S
C641 H628 0.961 . S
C641 H629 0.959 . S
C641 C639 1.561 . S
C642 C639 1.526 . S
C642 C643 1.396 . S
C642 C647 1.390 . S
C643 C637 1.465 . S
C643 C642 1.396 . S
C643 C644 1.399 . S
C644 H630 0.929 . S
C644 C643 1.399 . S
C644 C645 1.385 . S
C645 H631 0.931 . S
C645 C644 1.385 . S
C645 C646 1.389 . S
C646 C645 1.389 . S
C646 C647 1.387 . S
C647 H632 0.930 . S
C647 C642 1.390 . S
C647 C646 1.387 . S
H648 C660 0.930 . S
H649 C662 0.930 . S
H650 C663 0.930 . S
H651 C667 0.959 . S
H652 C667 0.959 . S
H653 C667 0.961 . S
H654 C668 0.960 . S
H655 C668 0.961 . S
H656 C668 0.959 . S
H657 C671 0.929 . S
H658 C672 0.931 . S
H659 C674 0.930 . S
C660 H648 0.930 . S
C660 C661 1.399 . S
C660 C665 1.399 . S
C661 C660 1.399 . S
C661 C662 1.376 . S
C662 H649 0.930 . S
C662 C661 1.376 . S
C662 C663 1.388 . S
C663 H650 0.930 . S
C663 C662 1.388 . S
C663 C664 1.390 . S
C664 C663 1.390 . S
C664 C665 1.394 . S
C664 C670 1.465 . S
C665 C660 1.399 . S
C665 C664 1.394 . S
C665 C666 1.516 . S
C666 C665 1.516 . S
C666 C667 1.502 . S
C666 C668 1.561 . S
C666 C669 1.526 . S
C667 H651 0.959 . S
C667 H652 0.959 . S
C667 H653 0.961 . S
C667 C666 1.502 . S
C668 H654 0.960 . S
C668 H655 0.961 . S
C668 H656 0.959 . S
C668 C666 1.561 . S
C669 C666 1.526 . S
C669 C670 1.396 . S
C669 C674 1.390 . S
C670 C664 1.465 . S
C670 C669 1.396 . S
C670 C671 1.399 . S
C671 H657 0.929 . S
C671 C670 1.399 . S
C671 C672 1.385 . S
C672 H658 0.931 . S
C672 C671 1.385 . S
C672 C673 1.389 . S
C673 C672 1.389 . S
C673 C674 1.387 . S
C674 H659 0.930 . S
C674 C669 1.390 . S
C674 C673 1.387 . S
H675 C687 0.930 . S
H676 C689 0.930 . S
H677 C690 0.930 . S
H678 C694 0.959 . S
H679 C694 0.959 . S
H680 C694 0.961 . S
H681 C695 0.960 . S
H682 C695 0.961 . S
H683 C695 0.959 . S
H684 C698 0.929 . S
H685 C699 0.931 . S
H686 C701 0.930 . S
C687 H675 0.930 . S
C687 C688 1.399 . S
C687 C692 1.399 . S
C688 C687 1.399 . S
C688 C689 1.376 . S
C689 H676 0.930 . S
C689 C688 1.376 . S
C689 C690 1.388 . S
C690 H677 0.930 . S
C690 C689 1.388 . S
C690 C691 1.390 . S
C691 C690 1.390 . S
C691 C692 1.394 . S
C691 C697 1.465 . S
C692 C687 1.399 . S
C692 C691 1.394 . S
C692 C693 1.516 . S
C693 C692 1.516 . S
C693 C694 1.502 . S
C693 C695 1.561 . S
C693 C696 1.526 . S
C694 H678 0.959 . S
C694 H679 0.959 . S
C694 H680 0.961 . S
C694 C693 1.502 . S
C695 H681 0.960 . S
C695 H682 0.961 . S
C695 H683 0.959 . S
C695 C693 1.561 . S
C696 C693 1.526 . S
C696 C697 1.396 . S
C696 C701 1.390 . S
C697 C691 1.465 . S
C697 C696 1.396 . S
C697 C698 1.399 . S
C698 H684 0.929 . S
C698 C697 1.399 . S
C698 C699 1.385 . S
C699 H685 0.931 . S
C699 C698 1.385 . S
C699 C700 1.389 . S
C700 C699 1.389 . S
C700 C701 1.387 . S
C701 H686 0.930 . S
C701 C696 1.390 . S
C701 C700 1.387 . S
H702 C714 0.930 . S
H703 C716 0.930 . S
H704 C717 0.930 . S
H705 C721 0.959 . S
H706 C721 0.959 . S
H707 C721 0.961 . S
H708 C722 0.960 . S
H709 C722 0.961 . S
H710 C722 0.959 . S
H711 C725 0.929 . S
H712 C726 0.931 . S
H713 C728 0.930 . S
C714 H702 0.930 . S
C714 C715 1.399 . S
C714 C719 1.399 . S
C715 C714 1.399 . S
C715 C716 1.376 . S
C716 H703 0.930 . S
C716 C715 1.376 . S
C716 C717 1.388 . S
C717 H704 0.930 . S
C717 C716 1.388 . S
C717 C718 1.390 . S
C718 C717 1.390 . S
C718 C719 1.394 . S
C718 C724 1.465 . S
C719 C714 1.399 . S
C719 C718 1.394 . S
C719 C720 1.516 . S
C720 C719 1.516 . S
C720 C721 1.502 . S
C720 C722 1.561 . S
C720 C723 1.526 . S
C721 H705 0.959 . S
C721 H706 0.959 . S
C721 H707 0.961 . S
C721 C720 1.502 . S
C722 H708 0.960 . S
C722 H709 0.961 . S
C722 H710 0.959 . S
C722 C720 1.561 . S
C723 C720 1.526 . S
C723 C724 1.396 . S
C723 C728 1.390 . S
C724 C718 1.465 . S
C724 C723 1.396 . S
C724 C725 1.399 . S
C725 H711 0.929 . S
C725 C724 1.399 . S
C725 C726 1.385 . S
C726 H712 0.931 . S
C726 C725 1.385 . S
C726 C727 1.389 . S
C727 C726 1.389 . S
C727 C728 1.387 . S
C728 H713 0.930 . S
C728 C723 1.390 . S
C728 C727 1.387 . S
H729 C741 0.930 . S
H730 C743 0.930 . S
H731 C744 0.930 . S
H732 C748 0.959 . S
H733 C748 0.959 . S
H734 C748 0.961 . S
H735 C749 0.960 . S
H736 C749 0.961 . S
H737 C749 0.959 . S
H738 C752 0.929 . S
H739 C753 0.931 . S
H740 C755 0.930 . S
C741 H729 0.930 . S
C741 C742 1.399 . S
C741 C746 1.399 . S
C742 C741 1.399 . S
C742 C743 1.376 . S
C743 H730 0.930 . S
C743 C742 1.376 . S
C743 C744 1.388 . S
C744 H731 0.930 . S
C744 C743 1.388 . S
C744 C745 1.390 . S
C745 C744 1.390 . S
C745 C746 1.394 . S
C745 C751 1.465 . S
C746 C741 1.399 . S
C746 C745 1.394 . S
C746 C747 1.516 . S
C747 C746 1.516 . S
C747 C748 1.502 . S
C747 C749 1.561 . S
C747 C750 1.526 . S
C748 H732 0.959 . S
C748 H733 0.959 . S
C748 H734 0.961 . S
C748 C747 1.502 . S
C749 H735 0.960 . S
C749 H736 0.961 . S
C749 H737 0.959 . S
C749 C747 1.561 . S
C750 C747 1.526 . S
C750 C751 1.396 . S
C750 C755 1.390 . S
C751 C745 1.465 . S
C751 C750 1.396 . S
C751 C752 1.399 . S
C752 H738 0.929 . S
C752 C751 1.399 . S
C752 C753 1.385 . S
C753 H739 0.931 . S
C753 C752 1.385 . S
C753 C754 1.389 . S
C754 C753 1.389 . S
C754 C755 1.387 . S
C755 H740 0.930 . S
C755 C750 1.390 . S
C755 C754 1.387 . S
H756 C768 0.930 . S
H757 C770 0.930 . S
H758 C771 0.930 . S
H759 C775 0.959 . S
H760 C775 0.959 . S
H761 C775 0.961 . S
H762 C776 0.960 . S
H763 C776 0.961 . S
H764 C776 0.959 . S
H765 C779 0.929 . S
H766 C780 0.931 . S
H767 C782 0.930 . S
C768 H756 0.930 . S
C768 C769 1.399 . S
C768 C773 1.399 . S
C769 C768 1.399 . S
C769 C770 1.376 . S
C770 H757 0.930 . S
C770 C769 1.376 . S
C770 C771 1.388 . S
C771 H758 0.930 . S
C771 C770 1.388 . S
C771 C772 1.390 . S
C772 C771 1.390 . S
C772 C773 1.394 . S
C772 C778 1.465 . S
C773 C768 1.399 . S
C773 C772 1.394 . S
C773 C774 1.516 . S
C774 C773 1.516 . S
C774 C775 1.502 . S
C774 C776 1.561 . S
C774 C777 1.526 . S
C775 H759 0.959 . S
C775 H760 0.959 . S
C775 H761 0.961 . S
C775 C774 1.502 . S
C776 H762 0.960 . S
C776 H763 0.961 . S
C776 H764 0.959 . S
C776 C774 1.561 . S
C777 C774 1.526 . S
C777 C778 1.396 . S
C777 C782 1.390 . S
C778 C772 1.465 . S
C778 C777 1.396 . S
C778 C779 1.399 . S
C779 H765 0.929 . S
C779 C778 1.399 . S
C779 C780 1.385 . S
C780 H766 0.931 . S
C780 C779 1.385 . S
C780 C781 1.389 . S
C781 C780 1.389 . S
C781 C782 1.387 . S
C782 H767 0.930 . S
C782 C777 1.390 . S
C782 C781 1.387 . S
H783 C795 0.930 . S
H784 C797 0.930 . S
H785 C798 0.930 . S
H786 C802 0.959 . S
H787 C802 0.959 . S
H788 C802 0.961 . S
H789 C803 0.960 . S
H790 C803 0.961 . S
H791 C803 0.959 . S
H792 C806 0.929 . S
H793 C807 0.931 . S
H794 C809 0.930 . S
C795 H783 0.930 . S
C795 C796 1.399 . S
C795 C800 1.399 . S
C796 C795 1.399 . S
C796 C797 1.376 . S
C797 H784 0.930 . S
C797 C796 1.376 . S
C797 C798 1.388 . S
C798 H785 0.930 . S
C798 C797 1.388 . S
C798 C799 1.390 . S
C799 C798 1.390 . S
C799 C800 1.394 . S
C799 C805 1.465 . S
C800 C795 1.399 . S
C800 C799 1.394 . S
C800 C801 1.516 . S
C801 C800 1.516 . S
C801 C802 1.502 . S
C801 C803 1.561 . S
C801 C804 1.526 . S
C802 H786 0.959 . S
C802 H787 0.959 . S
C802 H788 0.961 . S
C802 C801 1.502 . S
C803 H789 0.960 . S
C803 H790 0.961 . S
C803 H791 0.959 . S
C803 C801 1.561 . S
C804 C801 1.526 . S
C804 C805 1.396 . S
C804 C809 1.390 . S
C805 C799 1.465 . S
C805 C804 1.396 . S
C805 C806 1.399 . S
C806 H792 0.929 . S
C806 C805 1.399 . S
C806 C807 1.385 . S
C807 H793 0.931 . S
C807 C806 1.385 . S
C807 C808 1.389 . S
C808 C807 1.389 . S
C808 C809 1.387 . S
C809 H794 0.930 . S
C809 C804 1.390 . S
C809 C808 1.387 . S
H810 C822 0.930 . S
H811 C824 0.930 . S
H812 C825 0.930 . S
H813 C829 0.959 . S
H814 C829 0.959 . S
H815 C829 0.961 . S
H816 C830 0.960 . S
H817 C830 0.961 . S
H818 C830 0.959 . S
H819 C833 0.929 . S
H820 C834 0.931 . S
H821 C836 0.930 . S
C822 H810 0.930 . S
C822 C823 1.399 . S
C822 C827 1.399 . S
C823 C822 1.399 . S
C823 C824 1.376 . S
C824 H811 0.930 . S
C824 C823 1.376 . S
C824 C825 1.388 . S
C825 H812 0.930 . S
C825 C824 1.388 . S
C825 C826 1.390 . S
C826 C825 1.390 . S
C826 C827 1.394 . S
C826 C832 1.465 . S
C827 C822 1.399 . S
C827 C826 1.394 . S
C827 C828 1.516 . S
C828 C827 1.516 . S
C828 C829 1.502 . S
C828 C830 1.561 . S
C828 C831 1.526 . S
C829 H813 0.959 . S
C829 H814 0.959 . S
C829 H815 0.961 . S
C829 C828 1.502 . S
C830 H816 0.960 . S
C830 H817 0.961 . S
C830 H818 0.959 . S
C830 C828 1.561 . S
C831 C828 1.526 . S
C831 C832 1.396 . S
C831 C836 1.390 . S
C832 C826 1.465 . S
C832 C831 1.396 . S
C832 C833 1.399 . S
C833 H819 0.929 . S
C833 C832 1.399 . S
C833 C834 1.385 . S
C834 H820 0.931 . S
C834 C833 1.385 . S
C834 C835 1.389 . S
C835 C834 1.389 . S
C835 C836 1.387 . S
C836 H821 0.930 . S
C836 C831 1.390 . S
C836 C835 1.387 . S
H837 C849 0.930 . S
H838 C851 0.930 . S
H839 C852 0.930 . S
H840 C856 0.959 . S
H841 C856 0.959 . S
H842 C856 0.961 . S
H843 C857 0.960 . S
H844 C857 0.961 . S
H845 C857 0.959 . S
H846 C860 0.929 . S
H847 C861 0.931 . S
H848 C863 0.930 . S
C849 H837 0.930 . S
C849 C850 1.399 . S
C849 C854 1.399 . S
C850 C849 1.399 . S
C850 C851 1.376 . S
C851 H838 0.930 . S
C851 C850 1.376 . S
C851 C852 1.388 . S
C852 H839 0.930 . S
C852 C851 1.388 . S
C852 C853 1.390 . S
C853 C852 1.390 . S
C853 C854 1.394 . S
C853 C859 1.465 . S
C854 C849 1.399 . S
C854 C853 1.394 . S
C854 C855 1.516 . S
C855 C854 1.516 . S
C855 C856 1.502 . S
C855 C857 1.561 . S
C855 C858 1.526 . S
C856 H840 0.959 . S
C856 H841 0.959 . S
C856 H842 0.961 . S
C856 C855 1.502 . S
C857 H843 0.960 . S
C857 H844 0.961 . S
C857 H845 0.959 . S
C857 C855 1.561 . S
C858 C855 1.526 . S
C858 C859 1.396 . S
C858 C863 1.390 . S
C859 C853 1.465 . S
C859 C858 1.396 . S
C859 C860 1.399 . S
C860 H846 0.929 . S
C860 C859 1.399 . S
C860 C861 1.385 . S
C861 H847 0.931 . S
C861 C860 1.385 . S
C861 C862 1.389 . S
C862 C861 1.389 . S
C862 C863 1.387 . S
C863 H848 0.930 . S
C863 C858 1.390 . S
C863 C862 1.387 . S
H864 C876 0.930 . S
H865 C878 0.930 . S
H866 C879 0.930 . S
H867 C883 0.959 . S
H868 C883 0.959 . S
H869 C883 0.961 . S
H870 C884 0.960 . S
H871 C884 0.961 . S
H872 C884 0.959 . S
H873 C887 0.929 . S
H874 C888 0.931 . S
H875 C890 0.930 . S
C876 H864 0.930 . S
C876 C877 1.399 . S
C876 C881 1.399 . S
C877 C876 1.399 . S
C877 C878 1.376 . S
C878 H865 0.930 . S
C878 C877 1.376 . S
C878 C879 1.388 . S
C879 H866 0.930 . S
C879 C878 1.388 . S
C879 C880 1.390 . S
C880 C879 1.390 . S
C880 C881 1.394 . S
C880 C886 1.465 . S
C881 C876 1.399 . S
C881 C880 1.394 . S
C881 C882 1.516 . S
C882 C881 1.516 . S
C882 C883 1.502 . S
C882 C884 1.561 . S
C882 C885 1.526 . S
C883 H867 0.959 . S
C883 H868 0.959 . S
C883 H869 0.961 . S
C883 C882 1.502 . S
C884 H870 0.960 . S
C884 H871 0.961 . S
C884 H872 0.959 . S
C884 C882 1.561 . S
C885 C882 1.526 . S
C885 C886 1.396 . S
C885 C890 1.390 . S
C886 C880 1.465 . S
C886 C885 1.396 . S
C886 C887 1.399 . S
C887 H873 0.929 . S
C887 C886 1.399 . S
C887 C888 1.385 . S
C888 H874 0.931 . S
C888 C887 1.385 . S
C888 C889 1.389 . S
C889 C888 1.389 . S
C889 C890 1.387 . S
C890 H875 0.930 . S
C890 C885 1.390 . S
C890 C889 1.387 . S
H891 C903 0.930 . S
H892 C905 0.930 . S
H893 C906 0.930 . S
H894 C910 0.959 . S
H895 C910 0.959 . S
H896 C910 0.961 . S
H897 C911 0.960 . S
H898 C911 0.961 . S
H899 C911 0.959 . S
H900 C914 0.929 . S
H901 C915 0.931 . S
H902 C917 0.930 . S
C903 H891 0.930 . S
C903 C904 1.399 . S
C903 C908 1.399 . S
C904 C903 1.399 . S
C904 C905 1.376 . S
C905 H892 0.930 . S
C905 C904 1.376 . S
C905 C906 1.388 . S
C906 H893 0.930 . S
C906 C905 1.388 . S
C906 C907 1.390 . S
C907 C906 1.390 . S
C907 C908 1.394 . S
C907 C913 1.465 . S
C908 C903 1.399 . S
C908 C907 1.394 . S
C908 C909 1.516 . S
C909 C908 1.516 . S
C909 C910 1.502 . S
C909 C911 1.561 . S
C909 C912 1.526 . S
C910 H894 0.959 . S
C910 H895 0.959 . S
C910 H896 0.961 . S
C910 C909 1.502 . S
C911 H897 0.960 . S
C911 H898 0.961 . S
C911 H899 0.959 . S
C911 C909 1.561 . S
C912 C909 1.526 . S
C912 C913 1.396 . S
C912 C917 1.390 . S
C913 C907 1.465 . S
C913 C912 1.396 . S
C913 C914 1.399 . S
C914 H900 0.929 . S
C914 C913 1.399 . S
C914 C915 1.385 . S
C915 H901 0.931 . S
C915 C914 1.385 . S
C915 C916 1.389 . S
C916 C915 1.389 . S
C916 C917 1.387 . S
C917 H902 0.930 . S
C917 C912 1.390 . S
C917 C916 1.387 . S
H918 C930 0.930 . S
H919 C932 0.930 . S
H920 C933 0.930 . S
H921 C937 0.959 . S
H922 C937 0.959 . S
H923 C937 0.961 . S
H924 C938 0.960 1_545 S
H925 C938 0.961 . S
H926 C938 0.959 . S
H927 C941 0.929 1_455 S
H928 C942 0.931 . S
H929 C944 0.930 . S
C930 H918 0.930 . S
C930 C931 1.399 . S
C930 C935 1.399 . S
C931 C930 1.399 . S
C931 C932 1.376 . S
C932 H919 0.930 . S
C932 C931 1.376 . S
C932 C933 1.388 . S
C933 H920 0.930 . S
C933 C932 1.388 . S
C933 C934 1.390 . S
C934 C933 1.390 . S
C934 C935 1.394 . S
C934 C940 1.468 1_545 S
C935 C930 1.399 . S
C935 C934 1.394 . S
C935 C936 1.516 1_455 S
C936 C935 1.516 1_655 S
C936 C937 1.502 . S
C936 C938 1.561 1_645 S
C936 C939 1.526 1_545 S
C937 H921 0.959 . S
C937 H922 0.959 . S
C937 H923 0.961 . S
C937 C936 1.502 . S
C938 H924 0.960 1_565 S
C938 H925 0.961 . S
C938 H926 0.959 . S
C938 C936 1.561 1_465 S
C939 C936 1.526 1_565 S
C939 C940 1.393 1_655 S
C939 C944 1.390 . S
C940 C934 1.468 1_565 S
C940 C939 1.393 1_455 S
C940 C941 1.398 1_455 S
C941 H927 0.929 1_655 S
C941 C940 1.398 1_655 S
C941 C942 1.385 . S
C942 H928 0.931 . S
C942 C941 1.385 . S
C942 C943 1.389 . S
C943 C942 1.389 . S
C943 C944 1.387 . S
C944 H929 0.930 . S
C944 C939 1.390 . S
C944 C943 1.387 . S
H945 C957 0.930 . S
H946 C959 0.930 . S
H947 C960 0.930 . S
H948 C964 0.959 . S
H949 C964 0.959 . S
H950 C964 0.961 . S
H951 C965 0.960 1_545 S
H952 C965 0.952 1_455 S
H953 C965 0.959 . S
H954 C968 0.933 . S
H955 C969 0.931 . S
H956 C971 0.930 . S
C957 H945 0.930 . S
C957 C958 1.399 . S
C957 C962 1.399 . S
C958 C957 1.399 . S
C958 C959 1.376 . S
C959 H946 0.930 . S
C959 C958 1.376 . S
C959 C960 1.388 . S
C960 H947 0.930 . S
C960 C959 1.388 . S
C960 C961 1.390 . S
C961 C960 1.390 . S
C961 C962 1.394 . S
C961 C967 1.479 1_545 S
C962 C957 1.399 . S
C962 C961 1.394 . S
C962 C963 1.516 1_655 S
C963 C962 1.516 1_455 S
C963 C964 1.502 . S
C963 C965 1.561 1_445 S
C963 C966 1.526 1_545 S
C964 H948 0.959 . S
C964 H949 0.959 . S
C964 H950 0.961 . S
C964 C963 1.502 . S
C965 H951 0.960 1_565 S
C965 H952 0.952 1_655 S
C965 H953 0.959 . S
C965 C963 1.561 1_665 S
C966 C963 1.526 1_565 S
C966 C967 1.381 1_455 S
C966 C971 1.390 . S
C967 C961 1.479 1_565 S
C967 C966 1.381 1_655 S
C967 C968 1.399 . S
C968 H954 0.933 . S
C968 C967 1.399 . S
C968 C969 1.381 1_655 S
C969 H955 0.931 . S
C969 C968 1.381 1_455 S
C969 C970 1.389 . S
C970 C969 1.389 . S
C970 C971 1.387 . S
C971 H956 0.930 . S
C971 C966 1.390 . S
C971 C970 1.387 . S
H972 C984 0.930 . S
H973 C986 0.930 1_545 S
H974 C987 0.930 . S
H975 C991 0.959 . S
H976 C991 0.959 . S
H977 C991 0.961 . S
H978 C992 0.960 . S
H979 C992 0.961 . S
H980 C992 0.959 . S
H981 C995 0.929 . S
H982 C996 0.931 . S
H983 C998 0.930 1_565 S
C984 H972 0.930 . S
C984 C985 1.399 . S
C984 C989 1.399 . S
C985 C984 1.399 . S
C985 C986 1.376 . S
C986 H973 0.930 1_565 S
C986 C985 1.376 . S
C986 C987 1.388 1_565 S
C987 H974 0.930 . S
C987 C986 1.388 1_545 S
C987 C988 1.390 . S
C988 C987 1.390 . S
C988 C989 1.394 1_545 S
C988 C994 1.465 1_556 S
C989 C984 1.399 . S
C989 C988 1.394 1_565 S
C989 C990 1.516 1_556 S
C990 C989 1.516 1_554 S
C990 C991 1.502 . S
C990 C992 1.561 . S
C990 C993 1.526 . S
C991 H975 0.959 . S
C991 H976 0.959 . S
C991 H977 0.961 . S
C991 C990 1.502 . S
C992 H978 0.960 . S
C992 H979 0.961 . S
C992 H980 0.959 . S
C992 C990 1.561 . S
C993 C990 1.526 . S
C993 C994 1.396 1_565 S
C993 C998 1.390 1_565 S
C994 C988 1.465 1_554 S
C994 C993 1.396 1_545 S
C994 C995 1.399 . S
C995 H981 0.929 . S
C995 C994 1.399 . S
C995 C996 1.385 . S
C996 H982 0.931 . S
C996 C995 1.385 . S
C996 C997 1.389 . S
C997 C996 1.389 . S
C997 C998 1.387 . S
C998 H983 0.930 1_545 S
C998 C993 1.390 1_545 S
C998 C997 1.387 . S
H999 C1011 0.930 . S
H1000 C1013 0.930 1_545 S
H1001 C1014 0.930 . S
H1002 C1018 0.959 . S
H1003 C1018 0.959 . S
H1004 C1018 0.961 . S
H1005 C1019 0.960 1_554 S
H1006 C1019 0.961 . S
H1007 C1019 0.959 . S
H1008 C1022 0.929 . S
H1009 C1023 0.931 . S
H1010 C1025 0.930 1_565 S
C1011 H999 0.930 . S
C1011 C1012 1.399 . S
C1011 C1016 1.399 . S
C1012 C1011 1.399 . S
C1012 C1013 1.376 . S
C1013 H1000 0.930 1_565 S
C1013 C1012 1.376 . S
C1013 C1014 1.388 1_565 S
C1014 H1001 0.930 . S
C1014 C1013 1.388 1_545 S
C1014 C1015 1.390 . S
C1015 C1014 1.390 . S
C1015 C1016 1.394 1_545 S
C1015 C1021 1.465 1_554 S
C1016 C1011 1.399 . S
C1016 C1015 1.394 1_565 S
C1016 C1017 1.516 1_554 S
C1017 C1016 1.516 1_556 S
C1017 C1018 1.502 . S
C1017 C1019 1.561 . S
C1017 C1020 1.526 1_565 S
C1018 H1002 0.959 . S
C1018 H1003 0.959 . S
C1018 H1004 0.961 . S
C1018 C1017 1.502 . S
C1019 H1005 0.960 1_556 S
C1019 H1006 0.961 . S
C1019 H1007 0.959 . S
C1019 C1017 1.561 . S
C1020 C1017 1.526 1_545 S
C1020 C1021 1.396 . S
C1020 C1025 1.390 . S
C1021 C1015 1.465 1_556 S
C1021 C1020 1.396 . S
C1021 C1022 1.399 . S
C1022 H1008 0.929 . S
C1022 C1021 1.399 . S
C1022 C1023 1.385 . S
C1023 H1009 0.931 . S
C1023 C1022 1.385 . S
C1023 C1024 1.389 . S
C1024 C1023 1.389 . S
C1024 C1025 1.387 . S
C1025 H1010 0.930 1_545 S
C1025 C1020 1.390 . S
C1025 C1024 1.387 . S
H1026 C1038 0.930 . S
H1027 C1040 0.930 . S
H1028 C1041 0.930 . S
H1029 C1045 0.959 . S
H1030 C1045 0.959 . S
H1031 C1045 0.961 1_655 S
H1032 C1046 0.960 . S
H1033 C1046 0.961 1_455 S
H1034 C1046 0.959 . S
H1035 C1049 0.929 . S
H1036 C1050 0.931 . S
H1037 C1052 0.930 . S
C1038 H1026 0.930 . S
C1038 C1039 1.399 . S
C1038 C1043 1.399 . S
C1039 C1038 1.399 . S
C1039 C1040 1.376 . S
C1040 H1027 0.930 . S
C1040 C1039 1.376 . S
C1040 C1041 1.388 . S
C1041 H1028 0.930 . S
C1041 C1040 1.388 . S
C1041 C1042 1.390 . S
C1042 C1041 1.390 . S
C1042 C1043 1.394 . S
C1042 C1048 1.465 1_656 S
C1043 C1038 1.399 . S
C1043 C1042 1.394 . S
C1043 C1044 1.513 1_655 S
C1044 C1043 1.513 1_455 S
C1044 C1045 1.529 . S
C1044 C1046 1.534 1_456 S
C1044 C1047 1.527 1_556 S
C1045 H1029 0.959 . S
C1045 H1030 0.959 . S
C1045 H1031 0.961 1_455 S
C1045 C1044 1.529 . S
C1046 H1032 0.960 . S
C1046 H1033 0.961 1_655 S
C1046 H1034 0.959 . S
C1046 C1044 1.534 1_654 S
C1047 C1044 1.527 1_554 S
C1047 C1048 1.396 . S
C1047 C1052 1.390 . S
C1048 C1042 1.465 1_454 S
C1048 C1047 1.396 . S
C1048 C1049 1.399 . S
C1049 H1035 0.929 . S
C1049 C1048 1.399 . S
C1049 C1050 1.385 . S
C1050 H1036 0.931 . S
C1050 C1049 1.385 . S
C1050 C1051 1.389 . S
C1051 C1050 1.389 . S
C1051 C1052 1.387 . S
C1052 H1037 0.930 . S
C1052 C1047 1.390 . S
C1052 C1051 1.387 . S
H1053 C1065 0.930 . S
H1054 C1067 0.930 . S
H1055 C1068 0.930 . S
H1056 C1072 0.959 . S
H1057 C1072 0.959 . S
H1058 C1072 0.961 . S
H1059 C1073 0.960 1_455 S
H1060 C1073 0.961 1_554 S
H1061 C1073 0.959 . S
H1062 C1076 0.929 . S
H1063 C1077 0.931 . S
H1064 C1079 0.930 . S
C1065 H1053 0.930 . S
C1065 C1066 1.399 . S
C1065 C1070 1.399 . S
C1066 C1065 1.399 . S
C1066 C1067 1.376 . S
C1067 H1054 0.930 . S
C1067 C1066 1.376 . S
C1067 C1068 1.388 . S
C1068 H1055 0.930 . S
C1068 C1067 1.388 . S
C1068 C1069 1.390 . S
C1069 C1068 1.390 . S
C1069 C1070 1.394 . S
C1069 C1075 1.465 1_455 S
C1070 C1065 1.399 . S
C1070 C1069 1.394 . S
C1070 C1071 1.516 1_556 S
C1071 C1070 1.516 1_554 S
C1071 C1072 1.502 . S
C1071 C1073 1.561 1_454 S
C1071 C1074 1.526 1_455 S
C1072 H1056 0.959 . S
C1072 H1057 0.959 . S
C1072 H1058 0.961 . S
C1072 C1071 1.502 . S
C1073 H1059 0.960 1_655 S
C1073 H1060 0.961 1_556 S
C1073 H1061 0.959 . S
C1073 C1071 1.561 1_656 S
C1074 C1071 1.526 1_655 S
C1074 C1075 1.396 1_554 S
C1074 C1079 1.390 . S
C1075 C1069 1.465 1_655 S
C1075 C1074 1.396 1_556 S
C1075 C1076 1.399 . S
C1076 H1062 0.929 . S
C1076 C1075 1.399 . S
C1076 C1077 1.385 1_556 S
C1077 H1063 0.931 . S
C1077 C1076 1.385 1_554 S
C1077 C1078 1.389 . S
C1078 C1077 1.389 . S
C1078 C1079 1.387 . S
C1079 H1064 0.930 . S
C1079 C1074 1.390 . S
C1079 C1078 1.387 . S
C445 C112 0.899 . S
C457 C4 1.014 . S
C472 C76 0.946 . S
C484 C40 1.008 . S
C499 C184 0.955 . S
C511 C148 1.002 . S
C526 C220 0.979 . S
C538 C256 0.911 . S
C553 C328 0.900 . S
C565 C292 0.996 . S
C580 C364 1.009 . S
C592 C400 0.947 . S
C607 C3 0.926 . S
C619 C254 0.815 . S
C634 C218 0.911 . S
C646 C39 0.930 . S
C661 C182 0.866 . S
C673 C75 0.939 . S
C688 C146 0.875 . S
C700 C111 0.876 . S
C715 C147 0.883 . S
C727 C398 0.854 . S
C742 C290 0.946 . S
C754 C183 0.911 . S
C769 C362 0.923 . S
C781 C219 0.925 . S
C796 C255 0.884 . S
C808 C326 0.954 . S
C823 C74 0.930 . S
C835 C291 0.871 . S
C850 C2 0.944 . S
C862 C327 0.875 . S
C877 C363 0.918 . S
C889 C38 0.814 . S
C904 C110 0.957 . S
C916 C399 0.888 . S
C931 C14 1.170 . S
C943 C50 1.133 . S
C958 C122 1.170 . S
C970 C86 1.131 . S
C985 C230 1.123 . S
C997 C158 1.170 . S
C1012 C194 1.093 . S
C1024 C266 1.154 . S
C1039 C374 1.095 . S
C1051 C302 1.121 . S
C1066 C338 1.171 . S
C1078 C410 1.127 . S
