# Generated by pormake.
# Topology kfi, (4)-cn, num edge types: 1
# Building blocks:
#     Node 0, Type 0, BuildingBlock: CEKHIL_clean_sbu_0, # of connection points: 4
#     Node 1, Type 0, BuildingBlock: CEKHIL_clean_sbu_0, # of connection points: 4
#     Node 2, Type 0, BuildingBlock: CEKHIL_clean_sbu_0, # of connection points: 4
#     Node 3, Type 0, BuildingBlock: CEKHIL_clean_sbu_0, # of connection points: 4
#     Node 4, Type 0, BuildingBlock: CEKHIL_clean_sbu_0, # of connection points: 4
#     Node 5, Type 0, BuildingBlock: CEKHIL_clean_sbu_0, # of connection points: 4
#     Node 6, Type 0, BuildingBlock: CEKHIL_clean_sbu_0, # of connection points: 4
#     Node 7, Type 0, BuildingBlock: CEKHIL_clean_sbu_0, # of connection points: 4
#     Node 8, Type 0, BuildingBlock: CEKHIL_clean_sbu_0, # of connection points: 4
#     Node 9, Type 0, BuildingBlock: CEKHIL_clean_sbu_0, # of connection points: 4
#     Node 10, Type 0, BuildingBlock: CEKHIL_clean_sbu_0, # of connection points: 4
#     Node 11, Type 0, BuildingBlock: CEKHIL_clean_sbu_0, # of connection points: 4
#     Node 12, Type 0, BuildingBlock: CEKHIL_clean_sbu_0, # of connection points: 4
#     Node 13, Type 0, BuildingBlock: CEKHIL_clean_sbu_0, # of connection points: 4
#     Node 14, Type 0, BuildingBlock: CEKHIL_clean_sbu_0, # of connection points: 4
#     Node 15, Type 0, BuildingBlock: CEKHIL_clean_sbu_0, # of connection points: 4
#     Node 16, Type 0, BuildingBlock: CEKHIL_clean_sbu_0, # of connection points: 4
#     Node 17, Type 0, BuildingBlock: CEKHIL_clean_sbu_0, # of connection points: 4
#     Node 18, Type 0, BuildingBlock: CEKHIL_clean_sbu_0, # of connection points: 4
#     Node 19, Type 0, BuildingBlock: CEKHIL_clean_sbu_0, # of connection points: 4
#     Node 20, Type 0, BuildingBlock: CEKHIL_clean_sbu_0, # of connection points: 4
#     Node 21, Type 0, BuildingBlock: CEKHIL_clean_sbu_0, # of connection points: 4
#     Node 22, Type 0, BuildingBlock: CEKHIL_clean_sbu_0, # of connection points: 4
#     Node 23, Type 0, BuildingBlock: CEKHIL_clean_sbu_0, # of connection points: 4
#     Node 24, Type 0, BuildingBlock: CEKHIL_clean_sbu_0, # of connection points: 4
#     Node 25, Type 0, BuildingBlock: CEKHIL_clean_sbu_0, # of connection points: 4
#     Node 26, Type 0, BuildingBlock: CEKHIL_clean_sbu_0, # of connection points: 4
#     Node 27, Type 0, BuildingBlock: CEKHIL_clean_sbu_0, # of connection points: 4
#     Node 28, Type 0, BuildingBlock: CEKHIL_clean_sbu_0, # of connection points: 4
#     Node 29, Type 0, BuildingBlock: CEKHIL_clean_sbu_0, # of connection points: 4
#     Node 30, Type 0, BuildingBlock: CEKHIL_clean_sbu_0, # of connection points: 4
#     Node 31, Type 0, BuildingBlock: CEKHIL_clean_sbu_0, # of connection points: 4
#     Node 32, Type 0, BuildingBlock: CEKHIL_clean_sbu_0, # of connection points: 4
#     Node 33, Type 0, BuildingBlock: CEKHIL_clean_sbu_0, # of connection points: 4
#     Node 34, Type 0, BuildingBlock: CEKHIL_clean_sbu_0, # of connection points: 4
#     Node 35, Type 0, BuildingBlock: CEKHIL_clean_sbu_0, # of connection points: 4
#     Node 36, Type 0, BuildingBlock: CEKHIL_clean_sbu_0, # of connection points: 4
#     Node 37, Type 0, BuildingBlock: CEKHIL_clean_sbu_0, # of connection points: 4
#     Node 38, Type 0, BuildingBlock: CEKHIL_clean_sbu_0, # of connection points: 4
#     Node 39, Type 0, BuildingBlock: CEKHIL_clean_sbu_0, # of connection points: 4
#     Node 40, Type 0, BuildingBlock: CEKHIL_clean_sbu_0, # of connection points: 4
#     Node 41, Type 0, BuildingBlock: CEKHIL_clean_sbu_0, # of connection points: 4
#     Node 42, Type 0, BuildingBlock: CEKHIL_clean_sbu_0, # of connection points: 4
#     Node 43, Type 0, BuildingBlock: CEKHIL_clean_sbu_0, # of connection points: 4
#     Node 44, Type 0, BuildingBlock: CEKHIL_clean_sbu_0, # of connection points: 4
#     Node 45, Type 0, BuildingBlock: CEKHIL_clean_sbu_0, # of connection points: 4
#     Node 46, Type 0, BuildingBlock: CEKHIL_clean_sbu_0, # of connection points: 4
#     Node 47, Type 0, BuildingBlock: CEKHIL_clean_sbu_0, # of connection points: 4
#     Node 48, Type 0, BuildingBlock: CEKHIL_clean_sbu_0, # of connection points: 4
#     Node 49, Type 0, BuildingBlock: CEKHIL_clean_sbu_0, # of connection points: 4
#     Node 50, Type 0, BuildingBlock: CEKHIL_clean_sbu_0, # of connection points: 4
#     Node 51, Type 0, BuildingBlock: CEKHIL_clean_sbu_0, # of connection points: 4
#     Node 52, Type 0, BuildingBlock: CEKHIL_clean_sbu_0, # of connection points: 4
#     Node 53, Type 0, BuildingBlock: CEKHIL_clean_sbu_0, # of connection points: 4
#     Node 54, Type 0, BuildingBlock: CEKHIL_clean_sbu_0, # of connection points: 4
#     Node 55, Type 0, BuildingBlock: CEKHIL_clean_sbu_0, # of connection points: 4
#     Node 56, Type 0, BuildingBlock: CEKHIL_clean_sbu_0, # of connection points: 4
#     Node 57, Type 0, BuildingBlock: CEKHIL_clean_sbu_0, # of connection points: 4
#     Node 58, Type 0, BuildingBlock: CEKHIL_clean_sbu_0, # of connection points: 4
#     Node 59, Type 0, BuildingBlock: CEKHIL_clean_sbu_0, # of connection points: 4
#     Node 60, Type 0, BuildingBlock: CEKHIL_clean_sbu_0, # of connection points: 4
#     Node 61, Type 0, BuildingBlock: CEKHIL_clean_sbu_0, # of connection points: 4
#     Node 62, Type 0, BuildingBlock: CEKHIL_clean_sbu_0, # of connection points: 4
#     Node 63, Type 0, BuildingBlock: CEKHIL_clean_sbu_0, # of connection points: 4
#     Node 64, Type 0, BuildingBlock: CEKHIL_clean_sbu_0, # of connection points: 4
#     Node 65, Type 0, BuildingBlock: CEKHIL_clean_sbu_0, # of connection points: 4
#     Node 66, Type 0, BuildingBlock: CEKHIL_clean_sbu_0, # of connection points: 4
#     Node 67, Type 0, BuildingBlock: CEKHIL_clean_sbu_0, # of connection points: 4
#     Node 68, Type 0, BuildingBlock: CEKHIL_clean_sbu_0, # of connection points: 4
#     Node 69, Type 0, BuildingBlock: CEKHIL_clean_sbu_0, # of connection points: 4
#     Node 70, Type 0, BuildingBlock: CEKHIL_clean_sbu_0, # of connection points: 4
#     Node 71, Type 0, BuildingBlock: CEKHIL_clean_sbu_0, # of connection points: 4
#     Node 72, Type 0, BuildingBlock: CEKHIL_clean_sbu_0, # of connection points: 4
#     Node 73, Type 0, BuildingBlock: CEKHIL_clean_sbu_0, # of connection points: 4
#     Node 74, Type 0, BuildingBlock: CEKHIL_clean_sbu_0, # of connection points: 4
#     Node 75, Type 0, BuildingBlock: CEKHIL_clean_sbu_0, # of connection points: 4
#     Node 76, Type 0, BuildingBlock: CEKHIL_clean_sbu_0, # of connection points: 4
#     Node 77, Type 0, BuildingBlock: CEKHIL_clean_sbu_0, # of connection points: 4
#     Node 78, Type 0, BuildingBlock: CEKHIL_clean_sbu_0, # of connection points: 4
#     Node 79, Type 0, BuildingBlock: CEKHIL_clean_sbu_0, # of connection points: 4
#     Node 80, Type 0, BuildingBlock: CEKHIL_clean_sbu_0, # of connection points: 4
#     Node 81, Type 0, BuildingBlock: CEKHIL_clean_sbu_0, # of connection points: 4
#     Node 82, Type 0, BuildingBlock: CEKHIL_clean_sbu_0, # of connection points: 4
#     Node 83, Type 0, BuildingBlock: CEKHIL_clean_sbu_0, # of connection points: 4
#     Node 84, Type 0, BuildingBlock: CEKHIL_clean_sbu_0, # of connection points: 4
#     Node 85, Type 0, BuildingBlock: CEKHIL_clean_sbu_0, # of connection points: 4
#     Node 86, Type 0, BuildingBlock: CEKHIL_clean_sbu_0, # of connection points: 4
#     Node 87, Type 0, BuildingBlock: CEKHIL_clean_sbu_0, # of connection points: 4
#     Node 88, Type 0, BuildingBlock: CEKHIL_clean_sbu_0, # of connection points: 4
#     Node 89, Type 0, BuildingBlock: CEKHIL_clean_sbu_0, # of connection points: 4
#     Node 90, Type 0, BuildingBlock: CEKHIL_clean_sbu_0, # of connection points: 4
#     Node 91, Type 0, BuildingBlock: CEKHIL_clean_sbu_0, # of connection points: 4
#     Node 92, Type 0, BuildingBlock: CEKHIL_clean_sbu_0, # of connection points: 4
#     Node 93, Type 0, BuildingBlock: CEKHIL_clean_sbu_0, # of connection points: 4
#     Node 94, Type 0, BuildingBlock: CEKHIL_clean_sbu_0, # of connection points: 4
#     Node 95, Type 0, BuildingBlock: CEKHIL_clean_sbu_0, # of connection points: 4
#     Edge 96, Type (0, 0), BuildingBlock: AJUNOK_clean_linker_0, # of connection points: 2
#     Edge 97, Type (0, 0), BuildingBlock: AJUNOK_clean_linker_0, # of connection points: 2
#     Edge 98, Type (0, 0), BuildingBlock: AJUNOK_clean_linker_0, # of connection points: 2
#     Edge 99, Type (0, 0), BuildingBlock: AJUNOK_clean_linker_0, # of connection points: 2
#     Edge 100, Type (0, 0), BuildingBlock: AJUNOK_clean_linker_0, # of connection points: 2
#     Edge 101, Type (0, 0), BuildingBlock: AJUNOK_clean_linker_0, # of connection points: 2
#     Edge 102, Type (0, 0), BuildingBlock: AJUNOK_clean_linker_0, # of connection points: 2
#     Edge 103, Type (0, 0), BuildingBlock: AJUNOK_clean_linker_0, # of connection points: 2
#     Edge 104, Type (0, 0), BuildingBlock: AJUNOK_clean_linker_0, # of connection points: 2
#     Edge 105, Type (0, 0), BuildingBlock: AJUNOK_clean_linker_0, # of connection points: 2
#     Edge 106, Type (0, 0), BuildingBlock: AJUNOK_clean_linker_0, # of connection points: 2
#     Edge 107, Type (0, 0), BuildingBlock: AJUNOK_clean_linker_0, # of connection points: 2
#     Edge 108, Type (0, 0), BuildingBlock: AJUNOK_clean_linker_0, # of connection points: 2
#     Edge 109, Type (0, 0), BuildingBlock: AJUNOK_clean_linker_0, # of connection points: 2
#     Edge 110, Type (0, 0), BuildingBlock: AJUNOK_clean_linker_0, # of connection points: 2
#     Edge 111, Type (0, 0), BuildingBlock: AJUNOK_clean_linker_0, # of connection points: 2
#     Edge 112, Type (0, 0), BuildingBlock: AJUNOK_clean_linker_0, # of connection points: 2
#     Edge 113, Type (0, 0), BuildingBlock: AJUNOK_clean_linker_0, # of connection points: 2
#     Edge 114, Type (0, 0), BuildingBlock: AJUNOK_clean_linker_0, # of connection points: 2
#     Edge 115, Type (0, 0), BuildingBlock: AJUNOK_clean_linker_0, # of connection points: 2
#     Edge 116, Type (0, 0), BuildingBlock: AJUNOK_clean_linker_0, # of connection points: 2
#     Edge 117, Type (0, 0), BuildingBlock: AJUNOK_clean_linker_0, # of connection points: 2
#     Edge 118, Type (0, 0), BuildingBlock: AJUNOK_clean_linker_0, # of connection points: 2
#     Edge 119, Type (0, 0), BuildingBlock: AJUNOK_clean_linker_0, # of connection points: 2
#     Edge 120, Type (0, 0), BuildingBlock: AJUNOK_clean_linker_0, # of connection points: 2
#     Edge 121, Type (0, 0), BuildingBlock: AJUNOK_clean_linker_0, # of connection points: 2
#     Edge 122, Type (0, 0), BuildingBlock: AJUNOK_clean_linker_0, # of connection points: 2
#     Edge 123, Type (0, 0), BuildingBlock: AJUNOK_clean_linker_0, # of connection points: 2
#     Edge 124, Type (0, 0), BuildingBlock: AJUNOK_clean_linker_0, # of connection points: 2
#     Edge 125, Type (0, 0), BuildingBlock: AJUNOK_clean_linker_0, # of connection points: 2
#     Edge 126, Type (0, 0), BuildingBlock: AJUNOK_clean_linker_0, # of connection points: 2
#     Edge 127, Type (0, 0), BuildingBlock: AJUNOK_clean_linker_0, # of connection points: 2
#     Edge 128, Type (0, 0), BuildingBlock: AJUNOK_clean_linker_0, # of connection points: 2
#     Edge 129, Type (0, 0), BuildingBlock: AJUNOK_clean_linker_0, # of connection points: 2
#     Edge 130, Type (0, 0), BuildingBlock: AJUNOK_clean_linker_0, # of connection points: 2
#     Edge 131, Type (0, 0), BuildingBlock: AJUNOK_clean_linker_0, # of connection points: 2
#     Edge 132, Type (0, 0), BuildingBlock: AJUNOK_clean_linker_0, # of connection points: 2
#     Edge 133, Type (0, 0), BuildingBlock: AJUNOK_clean_linker_0, # of connection points: 2
#     Edge 134, Type (0, 0), BuildingBlock: AJUNOK_clean_linker_0, # of connection points: 2
#     Edge 135, Type (0, 0), BuildingBlock: AJUNOK_clean_linker_0, # of connection points: 2
#     Edge 136, Type (0, 0), BuildingBlock: AJUNOK_clean_linker_0, # of connection points: 2
#     Edge 137, Type (0, 0), BuildingBlock: AJUNOK_clean_linker_0, # of connection points: 2
#     Edge 138, Type (0, 0), BuildingBlock: AJUNOK_clean_linker_0, # of connection points: 2
#     Edge 139, Type (0, 0), BuildingBlock: AJUNOK_clean_linker_0, # of connection points: 2
#     Edge 140, Type (0, 0), BuildingBlock: AJUNOK_clean_linker_0, # of connection points: 2
#     Edge 141, Type (0, 0), BuildingBlock: AJUNOK_clean_linker_0, # of connection points: 2
#     Edge 142, Type (0, 0), BuildingBlock: AJUNOK_clean_linker_0, # of connection points: 2
#     Edge 143, Type (0, 0), BuildingBlock: AJUNOK_clean_linker_0, # of connection points: 2
#     Edge 144, Type (0, 0), BuildingBlock: AJUNOK_clean_linker_0, # of connection points: 2
#     Edge 145, Type (0, 0), BuildingBlock: AJUNOK_clean_linker_0, # of connection points: 2
#     Edge 146, Type (0, 0), BuildingBlock: AJUNOK_clean_linker_0, # of connection points: 2
#     Edge 147, Type (0, 0), BuildingBlock: AJUNOK_clean_linker_0, # of connection points: 2
#     Edge 148, Type (0, 0), BuildingBlock: AJUNOK_clean_linker_0, # of connection points: 2
#     Edge 149, Type (0, 0), BuildingBlock: AJUNOK_clean_linker_0, # of connection points: 2
#     Edge 150, Type (0, 0), BuildingBlock: AJUNOK_clean_linker_0, # of connection points: 2
#     Edge 151, Type (0, 0), BuildingBlock: AJUNOK_clean_linker_0, # of connection points: 2
#     Edge 152, Type (0, 0), BuildingBlock: AJUNOK_clean_linker_0, # of connection points: 2
#     Edge 153, Type (0, 0), BuildingBlock: AJUNOK_clean_linker_0, # of connection points: 2
#     Edge 154, Type (0, 0), BuildingBlock: AJUNOK_clean_linker_0, # of connection points: 2
#     Edge 155, Type (0, 0), BuildingBlock: AJUNOK_clean_linker_0, # of connection points: 2
#     Edge 156, Type (0, 0), BuildingBlock: AJUNOK_clean_linker_0, # of connection points: 2
#     Edge 157, Type (0, 0), BuildingBlock: AJUNOK_clean_linker_0, # of connection points: 2
#     Edge 158, Type (0, 0), BuildingBlock: AJUNOK_clean_linker_0, # of connection points: 2
#     Edge 159, Type (0, 0), BuildingBlock: AJUNOK_clean_linker_0, # of connection points: 2
#     Edge 160, Type (0, 0), BuildingBlock: AJUNOK_clean_linker_0, # of connection points: 2
#     Edge 161, Type (0, 0), BuildingBlock: AJUNOK_clean_linker_0, # of connection points: 2
#     Edge 162, Type (0, 0), BuildingBlock: AJUNOK_clean_linker_0, # of connection points: 2
#     Edge 163, Type (0, 0), BuildingBlock: AJUNOK_clean_linker_0, # of connection points: 2
#     Edge 164, Type (0, 0), BuildingBlock: AJUNOK_clean_linker_0, # of connection points: 2
#     Edge 165, Type (0, 0), BuildingBlock: AJUNOK_clean_linker_0, # of connection points: 2
#     Edge 166, Type (0, 0), BuildingBlock: AJUNOK_clean_linker_0, # of connection points: 2
#     Edge 167, Type (0, 0), BuildingBlock: AJUNOK_clean_linker_0, # of connection points: 2
#     Edge 168, Type (0, 0), BuildingBlock: AJUNOK_clean_linker_0, # of connection points: 2
#     Edge 169, Type (0, 0), BuildingBlock: AJUNOK_clean_linker_0, # of connection points: 2
#     Edge 170, Type (0, 0), BuildingBlock: AJUNOK_clean_linker_0, # of connection points: 2
#     Edge 171, Type (0, 0), BuildingBlock: AJUNOK_clean_linker_0, # of connection points: 2
#     Edge 172, Type (0, 0), BuildingBlock: AJUNOK_clean_linker_0, # of connection points: 2
#     Edge 173, Type (0, 0), BuildingBlock: AJUNOK_clean_linker_0, # of connection points: 2
#     Edge 174, Type (0, 0), BuildingBlock: AJUNOK_clean_linker_0, # of connection points: 2
#     Edge 175, Type (0, 0), BuildingBlock: AJUNOK_clean_linker_0, # of connection points: 2
#     Edge 176, Type (0, 0), BuildingBlock: AJUNOK_clean_linker_0, # of connection points: 2
#     Edge 177, Type (0, 0), BuildingBlock: AJUNOK_clean_linker_0, # of connection points: 2
#     Edge 178, Type (0, 0), BuildingBlock: AJUNOK_clean_linker_0, # of connection points: 2
#     Edge 179, Type (0, 0), BuildingBlock: AJUNOK_clean_linker_0, # of connection points: 2
#     Edge 180, Type (0, 0), BuildingBlock: AJUNOK_clean_linker_0, # of connection points: 2
#     Edge 181, Type (0, 0), BuildingBlock: AJUNOK_clean_linker_0, # of connection points: 2
#     Edge 182, Type (0, 0), BuildingBlock: AJUNOK_clean_linker_0, # of connection points: 2
#     Edge 183, Type (0, 0), BuildingBlock: AJUNOK_clean_linker_0, # of connection points: 2
#     Edge 184, Type (0, 0), BuildingBlock: AJUNOK_clean_linker_0, # of connection points: 2
#     Edge 185, Type (0, 0), BuildingBlock: AJUNOK_clean_linker_0, # of connection points: 2
#     Edge 186, Type (0, 0), BuildingBlock: AJUNOK_clean_linker_0, # of connection points: 2
#     Edge 187, Type (0, 0), BuildingBlock: AJUNOK_clean_linker_0, # of connection points: 2
#     Edge 188, Type (0, 0), BuildingBlock: AJUNOK_clean_linker_0, # of connection points: 2
#     Edge 189, Type (0, 0), BuildingBlock: AJUNOK_clean_linker_0, # of connection points: 2
#     Edge 190, Type (0, 0), BuildingBlock: AJUNOK_clean_linker_0, # of connection points: 2
#     Edge 191, Type (0, 0), BuildingBlock: AJUNOK_clean_linker_0, # of connection points: 2
#     Edge 192, Type (0, 0), BuildingBlock: AJUNOK_clean_linker_0, # of connection points: 2
#     Edge 193, Type (0, 0), BuildingBlock: AJUNOK_clean_linker_0, # of connection points: 2
#     Edge 194, Type (0, 0), BuildingBlock: AJUNOK_clean_linker_0, # of connection points: 2
#     Edge 195, Type (0, 0), BuildingBlock: AJUNOK_clean_linker_0, # of connection points: 2
#     Edge 196, Type (0, 0), BuildingBlock: AJUNOK_clean_linker_0, # of connection points: 2
#     Edge 197, Type (0, 0), BuildingBlock: AJUNOK_clean_linker_0, # of connection points: 2
#     Edge 198, Type (0, 0), BuildingBlock: AJUNOK_clean_linker_0, # of connection points: 2
#     Edge 199, Type (0, 0), BuildingBlock: AJUNOK_clean_linker_0, # of connection points: 2
#     Edge 200, Type (0, 0), BuildingBlock: AJUNOK_clean_linker_0, # of connection points: 2
#     Edge 201, Type (0, 0), BuildingBlock: AJUNOK_clean_linker_0, # of connection points: 2
#     Edge 202, Type (0, 0), BuildingBlock: AJUNOK_clean_linker_0, # of connection points: 2
#     Edge 203, Type (0, 0), BuildingBlock: AJUNOK_clean_linker_0, # of connection points: 2
#     Edge 204, Type (0, 0), BuildingBlock: AJUNOK_clean_linker_0, # of connection points: 2
#     Edge 205, Type (0, 0), BuildingBlock: AJUNOK_clean_linker_0, # of connection points: 2
#     Edge 206, Type (0, 0), BuildingBlock: AJUNOK_clean_linker_0, # of connection points: 2
#     Edge 207, Type (0, 0), BuildingBlock: AJUNOK_clean_linker_0, # of connection points: 2
#     Edge 208, Type (0, 0), BuildingBlock: AJUNOK_clean_linker_0, # of connection points: 2
#     Edge 209, Type (0, 0), BuildingBlock: AJUNOK_clean_linker_0, # of connection points: 2
#     Edge 210, Type (0, 0), BuildingBlock: AJUNOK_clean_linker_0, # of connection points: 2
#     Edge 211, Type (0, 0), BuildingBlock: AJUNOK_clean_linker_0, # of connection points: 2
#     Edge 212, Type (0, 0), BuildingBlock: AJUNOK_clean_linker_0, # of connection points: 2
#     Edge 213, Type (0, 0), BuildingBlock: AJUNOK_clean_linker_0, # of connection points: 2
#     Edge 214, Type (0, 0), BuildingBlock: AJUNOK_clean_linker_0, # of connection points: 2
#     Edge 215, Type (0, 0), BuildingBlock: AJUNOK_clean_linker_0, # of connection points: 2
#     Edge 216, Type (0, 0), BuildingBlock: AJUNOK_clean_linker_0, # of connection points: 2
#     Edge 217, Type (0, 0), BuildingBlock: AJUNOK_clean_linker_0, # of connection points: 2
#     Edge 218, Type (0, 0), BuildingBlock: AJUNOK_clean_linker_0, # of connection points: 2
#     Edge 219, Type (0, 0), BuildingBlock: AJUNOK_clean_linker_0, # of connection points: 2
#     Edge 220, Type (0, 0), BuildingBlock: AJUNOK_clean_linker_0, # of connection points: 2
#     Edge 221, Type (0, 0), BuildingBlock: AJUNOK_clean_linker_0, # of connection points: 2
#     Edge 222, Type (0, 0), BuildingBlock: AJUNOK_clean_linker_0, # of connection points: 2
#     Edge 223, Type (0, 0), BuildingBlock: AJUNOK_clean_linker_0, # of connection points: 2
#     Edge 224, Type (0, 0), BuildingBlock: AJUNOK_clean_linker_0, # of connection points: 2
#     Edge 225, Type (0, 0), BuildingBlock: AJUNOK_clean_linker_0, # of connection points: 2
#     Edge 226, Type (0, 0), BuildingBlock: AJUNOK_clean_linker_0, # of connection points: 2
#     Edge 227, Type (0, 0), BuildingBlock: AJUNOK_clean_linker_0, # of connection points: 2
#     Edge 228, Type (0, 0), BuildingBlock: AJUNOK_clean_linker_0, # of connection points: 2
#     Edge 229, Type (0, 0), BuildingBlock: AJUNOK_clean_linker_0, # of connection points: 2
#     Edge 230, Type (0, 0), BuildingBlock: AJUNOK_clean_linker_0, # of connection points: 2
#     Edge 231, Type (0, 0), BuildingBlock: AJUNOK_clean_linker_0, # of connection points: 2
#     Edge 232, Type (0, 0), BuildingBlock: AJUNOK_clean_linker_0, # of connection points: 2
#     Edge 233, Type (0, 0), BuildingBlock: AJUNOK_clean_linker_0, # of connection points: 2
#     Edge 234, Type (0, 0), BuildingBlock: AJUNOK_clean_linker_0, # of connection points: 2
#     Edge 235, Type (0, 0), BuildingBlock: AJUNOK_clean_linker_0, # of connection points: 2
#     Edge 236, Type (0, 0), BuildingBlock: AJUNOK_clean_linker_0, # of connection points: 2
#     Edge 237, Type (0, 0), BuildingBlock: AJUNOK_clean_linker_0, # of connection points: 2
#     Edge 238, Type (0, 0), BuildingBlock: AJUNOK_clean_linker_0, # of connection points: 2
#     Edge 239, Type (0, 0), BuildingBlock: AJUNOK_clean_linker_0, # of connection points: 2
#     Edge 240, Type (0, 0), BuildingBlock: AJUNOK_clean_linker_0, # of connection points: 2
#     Edge 241, Type (0, 0), BuildingBlock: AJUNOK_clean_linker_0, # of connection points: 2
#     Edge 242, Type (0, 0), BuildingBlock: AJUNOK_clean_linker_0, # of connection points: 2
#     Edge 243, Type (0, 0), BuildingBlock: AJUNOK_clean_linker_0, # of connection points: 2
#     Edge 244, Type (0, 0), BuildingBlock: AJUNOK_clean_linker_0, # of connection points: 2
#     Edge 245, Type (0, 0), BuildingBlock: AJUNOK_clean_linker_0, # of connection points: 2
#     Edge 246, Type (0, 0), BuildingBlock: AJUNOK_clean_linker_0, # of connection points: 2
#     Edge 247, Type (0, 0), BuildingBlock: AJUNOK_clean_linker_0, # of connection points: 2
#     Edge 248, Type (0, 0), BuildingBlock: AJUNOK_clean_linker_0, # of connection points: 2
#     Edge 249, Type (0, 0), BuildingBlock: AJUNOK_clean_linker_0, # of connection points: 2
#     Edge 250, Type (0, 0), BuildingBlock: AJUNOK_clean_linker_0, # of connection points: 2
#     Edge 251, Type (0, 0), BuildingBlock: AJUNOK_clean_linker_0, # of connection points: 2
#     Edge 252, Type (0, 0), BuildingBlock: AJUNOK_clean_linker_0, # of connection points: 2
#     Edge 253, Type (0, 0), BuildingBlock: AJUNOK_clean_linker_0, # of connection points: 2
#     Edge 254, Type (0, 0), BuildingBlock: AJUNOK_clean_linker_0, # of connection points: 2
#     Edge 255, Type (0, 0), BuildingBlock: AJUNOK_clean_linker_0, # of connection points: 2
#     Edge 256, Type (0, 0), BuildingBlock: AJUNOK_clean_linker_0, # of connection points: 2
#     Edge 257, Type (0, 0), BuildingBlock: AJUNOK_clean_linker_0, # of connection points: 2
#     Edge 258, Type (0, 0), BuildingBlock: AJUNOK_clean_linker_0, # of connection points: 2
#     Edge 259, Type (0, 0), BuildingBlock: AJUNOK_clean_linker_0, # of connection points: 2
#     Edge 260, Type (0, 0), BuildingBlock: AJUNOK_clean_linker_0, # of connection points: 2
#     Edge 261, Type (0, 0), BuildingBlock: AJUNOK_clean_linker_0, # of connection points: 2
#     Edge 262, Type (0, 0), BuildingBlock: AJUNOK_clean_linker_0, # of connection points: 2
#     Edge 263, Type (0, 0), BuildingBlock: AJUNOK_clean_linker_0, # of connection points: 2
#     Edge 264, Type (0, 0), BuildingBlock: AJUNOK_clean_linker_0, # of connection points: 2
#     Edge 265, Type (0, 0), BuildingBlock: AJUNOK_clean_linker_0, # of connection points: 2
#     Edge 266, Type (0, 0), BuildingBlock: AJUNOK_clean_linker_0, # of connection points: 2
#     Edge 267, Type (0, 0), BuildingBlock: AJUNOK_clean_linker_0, # of connection points: 2
#     Edge 268, Type (0, 0), BuildingBlock: AJUNOK_clean_linker_0, # of connection points: 2
#     Edge 269, Type (0, 0), BuildingBlock: AJUNOK_clean_linker_0, # of connection points: 2
#     Edge 270, Type (0, 0), BuildingBlock: AJUNOK_clean_linker_0, # of connection points: 2
#     Edge 271, Type (0, 0), BuildingBlock: AJUNOK_clean_linker_0, # of connection points: 2
#     Edge 272, Type (0, 0), BuildingBlock: AJUNOK_clean_linker_0, # of connection points: 2
#     Edge 273, Type (0, 0), BuildingBlock: AJUNOK_clean_linker_0, # of connection points: 2
#     Edge 274, Type (0, 0), BuildingBlock: AJUNOK_clean_linker_0, # of connection points: 2
#     Edge 275, Type (0, 0), BuildingBlock: AJUNOK_clean_linker_0, # of connection points: 2
#     Edge 276, Type (0, 0), BuildingBlock: AJUNOK_clean_linker_0, # of connection points: 2
#     Edge 277, Type (0, 0), BuildingBlock: AJUNOK_clean_linker_0, # of connection points: 2
#     Edge 278, Type (0, 0), BuildingBlock: AJUNOK_clean_linker_0, # of connection points: 2
#     Edge 279, Type (0, 0), BuildingBlock: AJUNOK_clean_linker_0, # of connection points: 2
#     Edge 280, Type (0, 0), BuildingBlock: AJUNOK_clean_linker_0, # of connection points: 2
#     Edge 281, Type (0, 0), BuildingBlock: AJUNOK_clean_linker_0, # of connection points: 2
#     Edge 282, Type (0, 0), BuildingBlock: AJUNOK_clean_linker_0, # of connection points: 2
#     Edge 283, Type (0, 0), BuildingBlock: AJUNOK_clean_linker_0, # of connection points: 2
#     Edge 284, Type (0, 0), BuildingBlock: AJUNOK_clean_linker_0, # of connection points: 2
#     Edge 285, Type (0, 0), BuildingBlock: AJUNOK_clean_linker_0, # of connection points: 2
#     Edge 286, Type (0, 0), BuildingBlock: AJUNOK_clean_linker_0, # of connection points: 2
#     Edge 287, Type (0, 0), BuildingBlock: AJUNOK_clean_linker_0, # of connection points: 2
# Relax obj value: 0.163
# Max RMSD: 0.098
# Mean RMSD: 0.098
data_MOF--net-kfi--node1-CEKHIL_clean_sbu_0--edge1-AJUNOK_clean_linker_0
_symmetry_space_group_name_H-M    P1
_symmetry_Int_Tables_number       1
_symmetry_cell_setting            triclinic
loop_
_symmetry_equiv_pos_as_xyz
'x, y, z'
_cell_length_a     64.022313
_cell_length_b     64.034965
_cell_length_c     64.036067
_cell_angle_alpha  89.967463
_cell_angle_beta   89.972854
_cell_angle_gamma 90.030866
loop_
_atom_site_label
_atom_site_type_symbol
_atom_site_fract_x
_atom_site_fract_y
_atom_site_fract_z
_atom_type_partial_charge
Co0 Co 0.09012 0.20389 0.3299 0.0
O1 O 0.0644 0.18986 0.32265 0.0
O2 O 0.06682 0.21519 0.34584 0.0
C3 C 0.11021 0.17442 0.33223 0.0
O4 O 0.11382 0.22175 0.34195 0.0
Co5 Co 0.12903 0.20066 0.30072 0.0
O6 O 0.14323 0.2158 0.32371 0.0
C7 C 0.09284 0.22622 0.28819 0.0
C8 C 0.05497 0.20209 0.33578 0.0
C9 C 0.13357 0.22441 0.33886 0.0
O10 O 0.08518 0.22516 0.30681 0.0
O11 O 0.10868 0.21556 0.28226 0.0
O12 O 0.09875 0.18017 0.34802 0.0
O13 O 0.1078 0.18561 0.31575 0.0
Co14 Co 0.81389 0.08999 0.3295 0.0
O15 O 0.82907 0.06516 0.32166 0.0
O16 O 0.80357 0.06573 0.34479 0.0
C17 C 0.84261 0.11122 0.33234 0.0
O18 O 0.79487 0.11258 0.34189 0.0
Co19 Co 0.81575 0.12954 0.30098 0.0
O20 O 0.79849 0.14224 0.32334 0.0
C21 C 0.7915 0.09269 0.28782 0.0
C22 C 0.81726 0.05479 0.33447 0.0
C23 C 0.79047 0.13195 0.33842 0.0
O24 O 0.79288 0.08469 0.30627 0.0
O25 O 0.80164 0.10896 0.28214 0.0
O26 O 0.83723 0.09922 0.34787 0.0
O27 O 0.83151 0.10875 0.31583 0.0
Co28 Co 0.92845 0.81287 0.32882 0.0
O29 O 0.95346 0.82797 0.32133 0.0
O30 O 0.95238 0.80261 0.3446 0.0
C31 C 0.90719 0.84158 0.33114 0.0
O32 O 0.90556 0.79399 0.34093 0.0
Co33 Co 0.88957 0.81447 0.29948 0.0
O34 O 0.87631 0.79746 0.32174 0.0
C35 C 0.92678 0.79038 0.28718 0.0
C36 C 0.96354 0.81621 0.33438 0.0
C37 C 0.88625 0.7896 0.33712 0.0
O38 O 0.93419 0.79172 0.30585 0.0
O39 O 0.9106 0.80041 0.28108 0.0
O40 O 0.91895 0.8363 0.34687 0.0
O41 O 0.90997 0.83043 0.31471 0.0
Co42 Co 0.20421 0.92747 0.33066 0.0
O43 O 0.18916 0.95235 0.32282 0.0
O44 O 0.21427 0.95153 0.34636 0.0
C45 C 0.17554 0.90612 0.33283 0.0
O46 O 0.22294 0.90472 0.34316 0.0
Co47 Co 0.20292 0.88828 0.30167 0.0
O48 O 0.21875 0.87508 0.3248 0.0
C49 C 0.22718 0.92542 0.2893 0.0
C50 C 0.20076 0.96257 0.33591 0.0
C51 C 0.22679 0.8852 0.33997 0.0
O52 O 0.22561 0.93306 0.30786 0.0
O53 O 0.21728 0.90913 0.28328 0.0
O54 O 0.18056 0.91799 0.34855 0.0
O55 O 0.18688 0.90885 0.31652 0.0
Co56 Co 0.08991 0.81291 0.68806 0.0
O57 O 0.06494 0.82799 0.69561 0.0
O58 O 0.06592 0.80262 0.67237 0.0
C59 C 0.11113 0.84166 0.68559 0.0
O60 O 0.11274 0.79408 0.67588 0.0
Co61 Co 0.12906 0.81467 0.71707 0.0
O62 O 0.1423 0.79826 0.69438 0.0
C63 C 0.09207 0.79023 0.72962 0.0
C64 C 0.05481 0.81627 0.68256 0.0
C65 C 0.1322 0.7901 0.67926 0.0
O66 O 0.08432 0.79174 0.71109 0.0
O67 O 0.10835 0.80021 0.73555 0.0
O68 O 0.09934 0.83635 0.66991 0.0
O69 O 0.10844 0.8305 0.70205 0.0
Co70 Co 0.2049 0.08934 0.68751 0.0
O71 O 0.18989 0.06409 0.69478 0.0
O72 O 0.2157 0.0656 0.67202 0.0
C73 C 0.17608 0.1104 0.68459 0.0
O74 O 0.22399 0.11208 0.67553 0.0
Co75 Co 0.20271 0.12871 0.71614 0.0
O76 O 0.22162 0.14126 0.69503 0.0
C77 C 0.22635 0.09162 0.72964 0.0
C78 C 0.20213 0.05421 0.68197 0.0
C79 C 0.22925 0.13105 0.67973 0.0
O80 O 0.2256 0.08394 0.71102 0.0
O81 O 0.21605 0.10782 0.7352 0.0
O82 O 0.18172 0.09864 0.66898 0.0
O83 O 0.18702 0.10786 0.70119 0.0
Co84 Co 0.92816 0.20407 0.68703 0.0
O85 O 0.95361 0.18953 0.69431 0.0
O86 O 0.9517 0.21503 0.67124 0.0
C87 C 0.9075 0.17493 0.68454 0.0
O88 O 0.90497 0.22255 0.67498 0.0
Co89 Co 0.88897 0.20149 0.71591 0.0
O90 O 0.87547 0.21814 0.69354 0.0
C91 C 0.92555 0.22638 0.72875 0.0
C92 C 0.96329 0.20169 0.68128 0.0
C93 C 0.8855 0.22641 0.67843 0.0
O94 O 0.93339 0.22515 0.71022 0.0
O95 O 0.90948 0.21598 0.73454 0.0
O96 O 0.91912 0.18056 0.66881 0.0
O97 O 0.91001 0.18604 0.70103 0.0
Co98 Co 0.81339 0.92773 0.68766 0.0
O99 O 0.82812 0.95317 0.69462 0.0
O100 O 0.80254 0.95115 0.67166 0.0
C101 C 0.84234 0.90682 0.68532 0.0
O102 O 0.7947 0.90454 0.67596 0.0
Co103 Co 0.81563 0.88888 0.71699 0.0
O104 O 0.79885 0.87521 0.69482 0.0
C105 C 0.79138 0.92594 0.72952 0.0
C106 C 0.81595 0.96278 0.68156 0.0
C107 C 0.79065 0.88513 0.67961 0.0
O108 O 0.79241 0.93338 0.71083 0.0
O109 O 0.8016 0.90983 0.73548 0.0
O110 O 0.83679 0.91833 0.66949 0.0
O111 O 0.83128 0.9096 0.70182 0.0
Co112 Co 0.3309 0.08929 0.20427 0.0
O113 O 0.3234 0.06437 0.18907 0.0
O114 O 0.34598 0.06513 0.21503 0.0
C115 C 0.3346 0.11059 0.17576 0.0
O116 O 0.34298 0.11198 0.22334 0.0
Co117 Co 0.30241 0.12875 0.20182 0.0
O118 O 0.32508 0.1418 0.21844 0.0
C119 C 0.28878 0.09199 0.22596 0.0
C120 C 0.33599 0.05411 0.20117 0.0
C121 C 0.33986 0.13155 0.22702 0.0
O122 O 0.30726 0.08404 0.22486 0.0
O123 O 0.28329 0.10835 0.21587 0.0
O124 O 0.34983 0.09836 0.18138 0.0
O125 O 0.31768 0.10807 0.18628 0.0
Co126 Co 0.92765 0.33062 0.20428 0.0
O127 O 0.95252 0.32301 0.18906 0.0
O128 O 0.95173 0.3463 0.2144 0.0
C129 C 0.90623 0.33302 0.17569 0.0
O130 O 0.90489 0.34285 0.22322 0.0
Co131 Co 0.88862 0.30142 0.20284 0.0
O132 O 0.87536 0.32429 0.21898 0.0
C133 C 0.92586 0.28899 0.22682 0.0
C134 C 0.96275 0.33602 0.20074 0.0
C135 C 0.8854 0.33946 0.22713 0.0
O136 O 0.93338 0.30762 0.22543 0.0
O137 O 0.90958 0.28297 0.21691 0.0
O138 O 0.91809 0.34871 0.18085 0.0
O139 O 0.90903 0.31659 0.18685 0.0
Co140 Co 0.68656 0.92828 0.20429 0.0
O141 O 0.6946 0.95319 0.18935 0.0
O142 O 0.67143 0.95253 0.21482 0.0
C143 C 0.68327 0.90716 0.17564 0.0
O144 O 0.67388 0.90543 0.22288 0.0
Co145 Co 0.71505 0.88877 0.20207 0.0
O146 O 0.69145 0.87554 0.21719 0.0
C147 C 0.72828 0.9253 0.22666 0.0
C148 C 0.6818 0.96351 0.20118 0.0
C149 C 0.6765 0.88562 0.22567 0.0
O150 O 0.70981 0.93324 0.22537 0.0
O151 O 0.73394 0.90902 0.21655 0.0
O152 O 0.66804 0.91951 0.18098 0.0
O153 O 0.70001 0.90955 0.18646 0.0
Co154 Co 0.08988 0.68519 0.2037 0.0
O155 O 0.06434 0.69241 0.1893 0.0
O156 O 0.06635 0.6697 0.21511 0.0
C157 C 0.11045 0.68187 0.17465 0.0
O158 O 0.1133 0.67329 0.22201 0.0
Co159 Co 0.12894 0.71415 0.20031 0.0
O160 O 0.14285 0.6913 0.21597 0.0
C161 C 0.09283 0.72715 0.22569 0.0
C162 C 0.05469 0.6796 0.20172 0.0
C163 C 0.13304 0.67634 0.22476 0.0
O164 O 0.08495 0.70864 0.22455 0.0
O165 O 0.10882 0.73291 0.21516 0.0
O166 O 0.09851 0.66648 0.18052 0.0
O167 O 0.10799 0.69875 0.18523 0.0
Co168 Co 0.33018 0.92807 0.81417 0.0
O169 O 0.32284 0.95296 0.82948 0.0
O170 O 0.34535 0.95219 0.80343 0.0
C171 C 0.33385 0.90663 0.84257 0.0
O172 O 0.34206 0.90538 0.79496 0.0
Co173 Co 0.30134 0.88883 0.81652 0.0
O174 O 0.3234 0.87585 0.79905 0.0
C175 C 0.28802 0.92574 0.79254 0.0
C176 C 0.33543 0.96321 0.81735 0.0
C177 C 0.33843 0.88601 0.79076 0.0
O178 O 0.30657 0.93351 0.79364 0.0
O179 O 0.28235 0.90944 0.80264 0.0
O180 O 0.34911 0.91884 0.83695 0.0
O181 O 0.3169 0.90926 0.83214 0.0
Co182 Co 0.09058 0.32971 0.8129 0.0
O183 O 0.06554 0.32232 0.82797 0.0
O184 O 0.06668 0.34538 0.80242 0.0
C185 C 0.11168 0.33225 0.84171 0.0
O186 O 0.11348 0.34172 0.79397 0.0
Co187 Co 0.12969 0.30069 0.81488 0.0
O188 O 0.14297 0.32308 0.79805 0.0
C189 C 0.0927 0.28801 0.79056 0.0
C190 C 0.05549 0.33529 0.81609 0.0
C191 C 0.1329 0.33819 0.78984 0.0
O192 O 0.08498 0.30656 0.79192 0.0
O193 O 0.10889 0.28212 0.8007 0.0
O194 O 0.09999 0.34796 0.83624 0.0
O195 O 0.10902 0.31576 0.83062 0.0
Co196 Co 0.68744 0.0899 0.81274 0.0
O197 O 0.69467 0.06478 0.82772 0.0
O198 O 0.67167 0.0661 0.80214 0.0
C199 C 0.68494 0.11091 0.84161 0.0
O200 O 0.67554 0.11292 0.79394 0.0
Co201 Co 0.71663 0.12889 0.81487 0.0
O202 O 0.69418 0.14238 0.79832 0.0
C203 C 0.7293 0.09184 0.79066 0.0
C204 C 0.68167 0.05483 0.8158 0.0
C205 C 0.67904 0.13239 0.79005 0.0
O206 O 0.71065 0.0843 0.79178 0.0
O207 O 0.7352 0.10803 0.80079 0.0
O208 O 0.66918 0.09928 0.83609 0.0
O209 O 0.70144 0.10822 0.83054 0.0
Co210 Co 0.92773 0.68611 0.81246 0.0
O211 O 0.95298 0.69309 0.82748 0.0
O212 O 0.95129 0.67022 0.8018 0.0
C213 C 0.90657 0.68366 0.84126 0.0
O214 O 0.90483 0.67444 0.79341 0.0
Co215 Co 0.88892 0.71553 0.81449 0.0
O216 O 0.87605 0.69458 0.79565 0.0
C217 C 0.92631 0.72815 0.79081 0.0
C218 C 0.96276 0.68013 0.81533 0.0
C219 C 0.88596 0.67904 0.7881 0.0
O220 O 0.93357 0.70939 0.79163 0.0
O221 O 0.91023 0.73411 0.80108 0.0
O222 O 0.91809 0.66784 0.83574 0.0
O223 O 0.90941 0.70017 0.83022 0.0
Co224 Co 0.20435 0.32969 0.0897 0.0
O225 O 0.19016 0.32234 0.0641 0.0
O226 O 0.21597 0.34505 0.06616 0.0
C227 C 0.17515 0.33317 0.11 0.0
O228 O 0.2224 0.34174 0.11326 0.0
Co229 Co 0.20057 0.30086 0.12881 0.0
O230 O 0.21572 0.32397 0.14283 0.0
C231 C 0.22603 0.28759 0.09286 0.0
C232 C 0.20264 0.33511 0.05448 0.0
C233 C 0.22467 0.33889 0.13309 0.0
O234 O 0.22521 0.30615 0.08506 0.0
O235 O 0.21539 0.28194 0.10883 0.0
O236 O 0.18113 0.34847 0.09801 0.0
O237 O 0.18571 0.31625 0.1077 0.0
Co238 Co 0.20394 0.68686 0.92753 0.0
O239 O 0.1898 0.69376 0.95326 0.0
O240 O 0.2155 0.67099 0.95078 0.0
C241 C 0.17443 0.68421 0.9075 0.0
O242 O 0.22199 0.67531 0.90368 0.0
Co243 Co 0.19998 0.71655 0.88907 0.0
O244 O 0.21558 0.694 0.87468 0.0
C245 C 0.22572 0.72895 0.92515 0.0
C246 C 0.20224 0.68081 0.96265 0.0
C247 C 0.22464 0.67891 0.88401 0.0
O248 O 0.22489 0.71024 0.9326 0.0
O249 O 0.21486 0.73496 0.90947 0.0
O250 O 0.18047 0.66842 0.9188 0.0
O251 O 0.18535 0.70083 0.91004 0.0
Co252 Co 0.33135 0.20426 0.92824 0.0
O253 O 0.32412 0.18948 0.9536 0.0
O254 O 0.34676 0.21539 0.9519 0.0
C255 C 0.33472 0.17556 0.90719 0.0
O256 O 0.34327 0.22303 0.9052 0.0
Co257 Co 0.30259 0.20157 0.88902 0.0
O258 O 0.32509 0.21816 0.87557 0.0
C259 C 0.2893 0.22598 0.92568 0.0
C260 C 0.33684 0.20188 0.9634 0.0
C261 C 0.34001 0.22669 0.88566 0.0
O262 O 0.30785 0.22497 0.93345 0.0
O263 O 0.28365 0.21574 0.90947 0.0
O264 O 0.35009 0.18122 0.91924 0.0
O265 O 0.31784 0.18611 0.90979 0.0
Co266 Co 0.8144 0.33134 0.92734 0.0
O267 O 0.82912 0.323 0.95229 0.0
O268 O 0.8038 0.34631 0.95163 0.0
C269 C 0.8432 0.33468 0.90641 0.0
O270 O 0.79601 0.3444 0.90459 0.0
Co271 Co 0.81655 0.30359 0.88733 0.0
O272 O 0.80195 0.32762 0.8743 0.0
C273 C 0.79147 0.28994 0.92349 0.0
C274 C 0.8173 0.3358 0.96262 0.0
C275 C 0.79345 0.34232 0.88471 0.0
O276 O 0.79312 0.30816 0.93193 0.0
O277 O 0.80157 0.28453 0.90711 0.0
O278 O 0.83787 0.34981 0.91889 0.0
O279 O 0.83224 0.31798 0.90851 0.0
Co280 Co 0.6876 0.81458 0.92797 0.0
O281 O 0.69643 0.8294 0.95267 0.0
O282 O 0.67295 0.80419 0.95249 0.0
C283 C 0.6841 0.84323 0.90695 0.0
O284 O 0.67406 0.79611 0.90561 0.0
Co285 Co 0.71461 0.81625 0.88743 0.0
O286 O 0.69012 0.80198 0.87489 0.0
C287 C 0.72883 0.79159 0.92366 0.0
C288 C 0.68372 0.81766 0.96325 0.0
C289 C 0.67562 0.79357 0.88568 0.0
O290 O 0.71073 0.79328 0.93234 0.0
O291 O 0.73399 0.8015 0.90706 0.0
O292 O 0.66912 0.83805 0.9197 0.0
O293 O 0.70078 0.8322 0.90881 0.0
Co294 Co 0.81325 0.68748 0.09 0.0
O295 O 0.82873 0.69521 0.06525 0.0
O296 O 0.8028 0.67258 0.0656 0.0
C297 C 0.84178 0.68404 0.11141 0.0
O298 O 0.79373 0.67523 0.11224 0.0
Co299 Co 0.81524 0.71549 0.12993 0.0
O300 O 0.79594 0.69432 0.14175 0.0
C301 C 0.7919 0.72962 0.09287 0.0
C302 C 0.81672 0.6827 0.05477 0.0
C303 C 0.78827 0.67926 0.13121 0.0
O304 O 0.79273 0.71117 0.0848 0.0
O305 O 0.80207 0.73488 0.10925 0.0
O306 O 0.83625 0.66866 0.0993 0.0
O307 O 0.8309 0.70069 0.10902 0.0
Co308 Co 0.32926 0.8124 0.0906 0.0
O309 O 0.32181 0.82757 0.06566 0.0
O310 O 0.34478 0.80196 0.06654 0.0
C311 C 0.33203 0.84113 0.11173 0.0
O312 O 0.34128 0.79343 0.11347 0.0
Co313 Co 0.30023 0.8145 0.12975 0.0
O314 O 0.32264 0.7977 0.14298 0.0
C315 C 0.28731 0.79049 0.09267 0.0
C316 C 0.3347 0.81573 0.05548 0.0
C317 C 0.33774 0.78944 0.13293 0.0
O318 O 0.30595 0.79154 0.08507 0.0
O319 O 0.28151 0.80062 0.1089 0.0
O320 O 0.34767 0.83565 0.09994 0.0
O321 O 0.31547 0.83013 0.1091 0.0
Co322 Co 0.68634 0.20464 0.08876 0.0
O323 O 0.69384 0.1902 0.06334 0.0
O324 O 0.67055 0.21548 0.06518 0.0
C325 C 0.68407 0.17551 0.10944 0.0
O326 O 0.67413 0.223 0.11197 0.0
Co327 Co 0.71533 0.20234 0.12785 0.0
O328 O 0.69264 0.21847 0.14145 0.0
C329 C 0.7279 0.22724 0.09121 0.0
C330 C 0.68082 0.2023 0.0536 0.0
C331 C 0.67747 0.22671 0.13148 0.0
O332 O 0.70932 0.22594 0.08353 0.0
O333 O 0.73385 0.21689 0.10724 0.0
O334 O 0.66831 0.18096 0.0978 0.0
O335 O 0.70048 0.18677 0.10689 0.0
Co336 Co 0.92825 0.81313 0.68775 0.0
O337 O 0.95322 0.82822 0.6953 0.0
O338 O 0.95225 0.80286 0.67206 0.0
C339 C 0.90704 0.84185 0.68532 0.0
O340 O 0.90542 0.79427 0.67556 0.0
Co341 Co 0.88916 0.81478 0.71685 0.0
O342 O 0.8759 0.79829 0.69422 0.0
C343 C 0.92626 0.79059 0.72938 0.0
C344 C 0.96336 0.81649 0.68228 0.0
C345 C 0.88597 0.79021 0.67903 0.0
O346 O 0.93386 0.79198 0.71078 0.0
O347 O 0.91 0.80058 0.73535 0.0
O348 O 0.91883 0.83656 0.66962 0.0
O349 O 0.90972 0.83069 0.70177 0.0
Co350 Co 0.20486 0.92762 0.68808 0.0
O351 O 0.18985 0.95289 0.69516 0.0
O352 O 0.21557 0.95124 0.6723 0.0
C353 C 0.17611 0.90642 0.68551 0.0
O354 O 0.22392 0.9048 0.67624 0.0
Co355 Co 0.20287 0.88853 0.71717 0.0
O356 O 0.22159 0.87578 0.69603 0.0
C357 C 0.22641 0.92586 0.73015 0.0
C358 C 0.20204 0.96269 0.68222 0.0
C359 C 0.22915 0.88585 0.68059 0.0
O360 O 0.22565 0.93329 0.71143 0.0
O361 O 0.21614 0.90971 0.73594 0.0
O362 O 0.18161 0.91808 0.66976 0.0
O363 O 0.18711 0.90918 0.70203 0.0
Co364 Co 0.08994 0.20373 0.68669 0.0
O365 O 0.06449 0.18909 0.69388 0.0
O366 O 0.06643 0.21465 0.67086 0.0
C367 C 0.11075 0.17471 0.68424 0.0
O368 O 0.11309 0.22236 0.67478 0.0
Co369 Co 0.129 0.20134 0.71573 0.0
O370 O 0.14246 0.21843 0.69364 0.0
C371 C 0.09221 0.22591 0.72844 0.0
C372 C 0.05482 0.20131 0.6809 0.0
C373 C 0.13246 0.22655 0.67843 0.0
O374 O 0.08454 0.22475 0.70985 0.0
O375 O 0.10825 0.21554 0.73432 0.0
O376 O 0.09917 0.18028 0.66848 0.0
O377 O 0.1081 0.1858 0.70073 0.0
Co378 Co 0.81354 0.08937 0.68701 0.0
O379 O 0.82819 0.06396 0.69416 0.0
O380 O 0.80263 0.06585 0.67117 0.0
C381 C 0.84259 0.11015 0.68451 0.0
O382 O 0.79495 0.11256 0.67515 0.0
Co383 Co 0.81599 0.12832 0.71615 0.0
O384 O 0.79909 0.14189 0.69401 0.0
C385 C 0.79147 0.09144 0.72885 0.0
C386 C 0.816 0.05427 0.68117 0.0
C387 C 0.7909 0.13195 0.67881 0.0
O388 O 0.79252 0.08392 0.7102 0.0
O389 O 0.80178 0.10753 0.73474 0.0
O390 O 0.83698 0.09859 0.66876 0.0
O391 O 0.83153 0.10751 0.70104 0.0
Co392 Co 0.92837 0.20507 0.33066 0.0
O393 O 0.95373 0.1904 0.32341 0.0
O394 O 0.95193 0.21583 0.34655 0.0
C395 C 0.90749 0.17606 0.33295 0.0
O396 O 0.90522 0.22365 0.34263 0.0
Co397 Co 0.88943 0.20286 0.30144 0.0
O398 O 0.87591 0.21965 0.32369 0.0
C399 C 0.92644 0.22722 0.28888 0.0
C400 C 0.96347 0.2025 0.33644 0.0
C401 C 0.88584 0.22773 0.33896 0.0
O402 O 0.93388 0.22619 0.30757 0.0
O403 O 0.91037 0.21694 0.28292 0.0
O404 O 0.91906 0.18153 0.34876 0.0
O405 O 0.91019 0.18724 0.31652 0.0
Co406 Co 0.81407 0.92804 0.32933 0.0
O407 O 0.82873 0.95304 0.32095 0.0
O408 O 0.80405 0.95218 0.34495 0.0
C409 C 0.84299 0.90705 0.33127 0.0
O410 O 0.79585 0.90522 0.34255 0.0
Co411 Co 0.81521 0.88833 0.30107 0.0
O412 O 0.80087 0.87511 0.32516 0.0
C413 C 0.79057 0.92511 0.28836 0.0
C414 C 0.8173 0.96326 0.3342 0.0
C415 C 0.79289 0.88541 0.34023 0.0
O416 O 0.79229 0.9331 0.30677 0.0
O417 O 0.80043 0.90873 0.28255 0.0
O418 O 0.83809 0.91909 0.34691 0.0
O419 O 0.83135 0.9094 0.31512 0.0
Co420 Co 0.09016 0.81172 0.32962 0.0
O421 O 0.06548 0.82719 0.32182 0.0
O422 O 0.06583 0.80165 0.34491 0.0
C423 C 0.1117 0.84022 0.33246 0.0
O424 O 0.11242 0.79237 0.34202 0.0
Co425 Co 0.1298 0.81308 0.30116 0.0
O426 O 0.14174 0.79414 0.32256 0.0
C427 C 0.09264 0.7894 0.28791 0.0
C428 C 0.05502 0.81548 0.33465 0.0
C429 C 0.13133 0.78679 0.33788 0.0
O430 O 0.08466 0.7908 0.30637 0.0
O431 O 0.10898 0.79945 0.28224 0.0
O432 O 0.09964 0.83497 0.34798 0.0
O433 O 0.10916 0.82912 0.31597 0.0
Co434 Co 0.20419 0.08914 0.32959 0.0
O435 O 0.18927 0.0641 0.32196 0.0
O436 O 0.2147 0.06515 0.34513 0.0
C437 C 0.17524 0.10997 0.33223 0.0
O438 O 0.22286 0.11206 0.3419 0.0
Co439 Co 0.20201 0.12855 0.30095 0.0
O440 O 0.21821 0.1418 0.32378 0.0
C441 C 0.22645 0.09176 0.28785 0.0
C442 C 0.20107 0.054 0.33496 0.0
C443 C 0.22654 0.13163 0.33876 0.0
O444 O 0.22526 0.08391 0.30637 0.0
O445 O 0.2163 0.10803 0.28217 0.0
O446 O 0.18073 0.09819 0.34786 0.0
O447 O 0.1864 0.10756 0.31574 0.0
Co448 Co 0.68702 0.92827 0.81285 0.0
O449 O 0.69415 0.9534 0.82776 0.0
O450 O 0.67166 0.95217 0.80175 0.0
C451 C 0.6835 0.90741 0.84166 0.0
O452 O 0.67544 0.90488 0.79417 0.0
Co453 Co 0.71668 0.88972 0.8164 0.0
O454 O 0.69407 0.87579 0.80046 0.0
C455 C 0.72941 0.92626 0.79157 0.0
C456 C 0.68145 0.96341 0.8156 0.0
C457 C 0.67903 0.8852 0.79142 0.0
O458 O 0.71066 0.93359 0.79227 0.0
O459 O 0.73535 0.91036 0.80213 0.0
O460 O 0.6681 0.9193 0.83578 0.0
O461 O 0.70044 0.9101 0.83123 0.0
Co462 Co 0.08939 0.68593 0.81343 0.0
O463 O 0.06384 0.69352 0.82763 0.0
O464 O 0.0659 0.67008 0.80249 0.0
C465 C 0.10968 0.68373 0.84276 0.0
O466 O 0.11275 0.67348 0.79543 0.0
Co467 Co 0.12873 0.71457 0.81588 0.0
O468 O 0.14258 0.69112 0.80111 0.0
C469 C 0.09223 0.72744 0.79087 0.0
C470 C 0.05423 0.68034 0.81559 0.0
C471 C 0.13254 0.67612 0.79269 0.0
O472 O 0.08443 0.70889 0.79202 0.0
O473 O 0.10838 0.7332 0.80115 0.0
O474 O 0.09807 0.66798 0.83724 0.0
O475 O 0.1074 0.70011 0.8314 0.0
Co476 Co 0.33037 0.08985 0.81352 0.0
O477 O 0.32298 0.06506 0.82904 0.0
O478 O 0.34536 0.0656 0.80287 0.0
C479 C 0.33431 0.11138 0.84181 0.0
O480 O 0.34227 0.11239 0.79411 0.0
Co481 Co 0.30173 0.12919 0.81581 0.0
O482 O 0.32365 0.14196 0.79798 0.0
C483 C 0.28811 0.09225 0.79205 0.0
C484 C 0.33548 0.0547 0.81692 0.0
C485 C 0.33862 0.13172 0.78972 0.0
O486 O 0.30662 0.08441 0.79314 0.0
O487 O 0.28256 0.10863 0.80207 0.0
O488 O 0.34947 0.09909 0.83615 0.0
O489 O 0.31728 0.1088 0.83148 0.0
Co490 Co 0.92881 0.3309 0.81267 0.0
O491 O 0.95366 0.32321 0.82787 0.0
O492 O 0.95308 0.34584 0.80192 0.0
C493 C 0.90759 0.33467 0.84122 0.0
O494 O 0.90615 0.34312 0.79362 0.0
Co495 Co 0.88918 0.30254 0.81526 0.0
O496 O 0.87635 0.32499 0.79819 0.0
C497 C 0.92569 0.28889 0.79079 0.0
C498 C 0.96402 0.33578 0.8158 0.0
C499 C 0.88664 0.33984 0.78974 0.0
O500 O 0.93385 0.30727 0.79204 0.0
O501 O 0.90941 0.28341 0.80103 0.0
O502 O 0.91991 0.34984 0.83559 0.0
O503 O 0.90996 0.31776 0.83069 0.0
Co504 Co 0.68728 0.0902 0.20365 0.0
O505 O 0.69495 0.06517 0.18875 0.0
O506 O 0.67187 0.06616 0.21428 0.0
C507 C 0.6845 0.11108 0.17468 0.0
O508 O 0.67498 0.11308 0.22238 0.0
Co509 Co 0.71586 0.12964 0.20133 0.0
O510 O 0.69307 0.14283 0.21765 0.0
C511 C 0.72901 0.09297 0.2259 0.0
C512 C 0.68209 0.05502 0.20068 0.0
C513 C 0.67813 0.13265 0.22608 0.0
O514 O 0.71054 0.08502 0.22464 0.0
O515 O 0.73468 0.10919 0.21565 0.0
O516 O 0.66891 0.09924 0.18023 0.0
O517 O 0.70102 0.10868 0.18578 0.0
Co518 Co 0.92815 0.68557 0.20472 0.0
O519 O 0.95345 0.69233 0.18962 0.0
O520 O 0.95165 0.66964 0.21547 0.0
C521 C 0.90685 0.68307 0.17602 0.0
O522 O 0.90519 0.67414 0.22388 0.0
Co523 Co 0.88951 0.71525 0.20257 0.0
O524 O 0.87654 0.69444 0.22155 0.0
C525 C 0.927 0.72777 0.22606 0.0
C526 C 0.96317 0.67943 0.20188 0.0
C527 C 0.88635 0.67888 0.22918 0.0
O528 O 0.93413 0.70895 0.22538 0.0
O529 O 0.91097 0.73378 0.21575 0.0
O530 O 0.91833 0.66722 0.18158 0.0
O531 O 0.90986 0.69961 0.18692 0.0
Co532 Co 0.33078 0.92748 0.20483 0.0
O533 O 0.32272 0.95245 0.19005 0.0
O534 O 0.34653 0.95155 0.21488 0.0
C535 C 0.33274 0.90647 0.17597 0.0
O536 O 0.34361 0.90453 0.22316 0.0
Co537 Co 0.30194 0.88815 0.20348 0.0
O538 O 0.32577 0.87469 0.21797 0.0
C539 C 0.28951 0.92514 0.22789 0.0
C540 C 0.33595 0.96263 0.20151 0.0
C541 C 0.34095 0.88474 0.22605 0.0
O542 O 0.30809 0.9328 0.22642 0.0
O543 O 0.28353 0.90887 0.21794 0.0
O544 O 0.34848 0.91834 0.18096 0.0
O545 O 0.31652 0.90899 0.18748 0.0
Co546 Co 0.08938 0.33017 0.20354 0.0
O547 O 0.06435 0.32267 0.18851 0.0
O548 O 0.06533 0.34538 0.21436 0.0
C549 C 0.11047 0.33366 0.17486 0.0
O550 O 0.11221 0.34226 0.22243 0.0
Co551 Co 0.12888 0.30172 0.20095 0.0
O552 O 0.14202 0.32435 0.21751 0.0
C553 C 0.09241 0.28834 0.22574 0.0
C554 C 0.05421 0.3354 0.20057 0.0
C555 C 0.13178 0.33914 0.22609 0.0
O556 O 0.08425 0.30669 0.22431 0.0
O557 O 0.10869 0.28278 0.21554 0.0
O558 O 0.09833 0.34896 0.1805 0.0
O559 O 0.10801 0.31681 0.1855 0.0
Co560 Co 0.81373 0.68795 0.92792 0.0
O561 O 0.82878 0.69574 0.95286 0.0
O562 O 0.80312 0.67281 0.95216 0.0
C563 C 0.84256 0.68482 0.90691 0.0
O564 O 0.79481 0.67561 0.9052 0.0
Co565 Co 0.81623 0.71629 0.88823 0.0
O566 O 0.79921 0.69381 0.87542 0.0
C567 C 0.79163 0.72977 0.92475 0.0
C568 C 0.81682 0.68303 0.96317 0.0
C569 C 0.79083 0.67892 0.88572 0.0
O570 O 0.79286 0.71139 0.93293 0.0
O571 O 0.80197 0.73527 0.90853 0.0
O572 O 0.83701 0.66936 0.91891 0.0
O573 O 0.83159 0.70141 0.90927 0.0
Co574 Co 0.81283 0.3307 0.08922 0.0
O575 O 0.82843 0.32296 0.06459 0.0
O576 O 0.80304 0.34619 0.06493 0.0
C577 C 0.84111 0.33321 0.11107 0.0
O578 O 0.79335 0.34304 0.11141 0.0
Co579 Co 0.8136 0.30184 0.12859 0.0
O580 O 0.79454 0.32316 0.14048 0.0
C581 C 0.79021 0.28912 0.09112 0.0
C582 C 0.81682 0.33586 0.05414 0.0
C583 C 0.78746 0.33867 0.13018 0.0
O584 O 0.79177 0.30766 0.08339 0.0
O585 O 0.80011 0.28319 0.10744 0.0
O586 O 0.83612 0.34884 0.09904 0.0
O587 O 0.82993 0.31681 0.10827 0.0
Co588 Co 0.6877 0.81365 0.08996 0.0
O589 O 0.69642 0.82899 0.06547 0.0
O590 O 0.67328 0.80345 0.0653 0.0
C591 C 0.68384 0.84198 0.11135 0.0
O592 O 0.67431 0.79446 0.11175 0.0
Co593 Co 0.71361 0.81458 0.13117 0.0
O594 O 0.68873 0.80045 0.14325 0.0
C595 C 0.72892 0.79092 0.09456 0.0
C596 C 0.68389 0.81721 0.05473 0.0
C597 C 0.67507 0.79176 0.13168 0.0
O598 O 0.7111 0.79275 0.08539 0.0
O599 O 0.73348 0.80017 0.11168 0.0
O600 O 0.66896 0.83679 0.09851 0.0
O601 O 0.70058 0.83102 0.10959 0.0
Co602 Co 0.20431 0.68583 0.08929 0.0
O603 O 0.18968 0.69282 0.06383 0.0
O604 O 0.21586 0.67054 0.06573 0.0
C605 C 0.17541 0.68211 0.11002 0.0
O606 O 0.22298 0.67421 0.11252 0.0
Co607 Co 0.20086 0.71458 0.12846 0.0
O608 O 0.2179 0.69254 0.14204 0.0
C609 C 0.22544 0.72818 0.09199 0.0
C610 C 0.2023 0.68026 0.05413 0.0
C611 C 0.22659 0.67765 0.13204 0.0
O612 O 0.22477 0.70961 0.08424 0.0
O613 O 0.21494 0.7337 0.10808 0.0
O614 O 0.18142 0.66679 0.09808 0.0
O615 O 0.1858 0.69912 0.10754 0.0
Co616 Co 0.3307 0.20422 0.0901 0.0
O617 O 0.32368 0.18949 0.06467 0.0
O618 O 0.34602 0.21564 0.06649 0.0
C619 C 0.3344 0.17541 0.11096 0.0
O620 O 0.34237 0.22299 0.11323 0.0
Co621 Co 0.30193 0.20091 0.12931 0.0
O622 O 0.324 0.21802 0.14277 0.0
C623 C 0.2884 0.22553 0.09286 0.0
C624 C 0.33631 0.20203 0.05493 0.0
C625 C 0.3389 0.22667 0.13273 0.0
O626 O 0.30694 0.2247 0.08501 0.0
O627 O 0.28286 0.21512 0.109 0.0
O628 O 0.34971 0.18136 0.09896 0.0
O629 O 0.3174 0.18578 0.10845 0.0
Co630 Co 0.20499 0.32964 0.92783 0.0
O631 O 0.19045 0.32234 0.95329 0.0
O632 O 0.21592 0.34545 0.95134 0.0
C633 C 0.17594 0.33206 0.90709 0.0
O634 O 0.22345 0.3417 0.90463 0.0
Co635 Co 0.20261 0.30064 0.88876 0.0
O636 O 0.21911 0.3231 0.87517 0.0
C637 C 0.22713 0.28787 0.92558 0.0
C638 C 0.20264 0.33535 0.96296 0.0
C639 C 0.2273 0.33828 0.88516 0.0
O640 O 0.2261 0.30651 0.93315 0.0
O641 O 0.21683 0.28202 0.90948 0.0
O642 O 0.18147 0.3478 0.91872 0.0
O643 O 0.18706 0.31558 0.90969 0.0
Co644 Co 0.68771 0.20485 0.92695 0.0
O645 O 0.69506 0.19053 0.95252 0.0
O646 O 0.67191 0.21593 0.95041 0.0
C647 C 0.68522 0.17556 0.90655 0.0
O648 O 0.67554 0.22308 0.90365 0.0
Co649 Co 0.71636 0.20209 0.88762 0.0
O650 O 0.69364 0.21814 0.87398 0.0
C651 C 0.72931 0.22739 0.92389 0.0
C652 C 0.68197 0.2027 0.9621 0.0
C653 C 0.67866 0.22658 0.88406 0.0
O654 O 0.71086 0.22606 0.93192 0.0
O655 O 0.73502 0.21696 0.90782 0.0
O656 O 0.66952 0.18122 0.91816 0.0
O657 O 0.70171 0.18673 0.90892 0.0
Co658 Co 0.32989 0.81347 0.92879 0.0
O659 O 0.32232 0.82847 0.95381 0.0
O660 O 0.34494 0.80255 0.95289 0.0
C661 C 0.3336 0.84213 0.90768 0.0
O662 O 0.34202 0.79461 0.90596 0.0
Co663 Co 0.30145 0.81625 0.88928 0.0
O664 O 0.32423 0.79986 0.87614 0.0
C665 C 0.28795 0.79139 0.92562 0.0
C666 C 0.33493 0.81632 0.964 0.0
C667 C 0.33897 0.79116 0.88634 0.0
O668 O 0.30631 0.79275 0.93379 0.0
O669 O 0.28243 0.80166 0.90937 0.0
O670 O 0.3488 0.83647 0.91992 0.0
O671 O 0.31668 0.83159 0.91011 0.0
Co672 Co 0.58853 0.70485 0.83143 0.0
O673 O 0.56408 0.68905 0.82344 0.0
O674 O 0.56397 0.7148 0.84628 0.0
C675 C 0.6106 0.67694 0.83507 0.0
O676 O 0.61033 0.72455 0.84404 0.0
Co677 Co 0.62853 0.70405 0.8035 0.0
O678 O 0.63994 0.72325 0.82497 0.0
C679 C 0.59116 0.72686 0.78952 0.0
C680 C 0.55339 0.70083 0.836 0.0
C681 C 0.62924 0.73034 0.84019 0.0
O682 O 0.58308 0.72555 0.80793 0.0
O683 O 0.60777 0.71715 0.78414 0.0
O684 O 0.59798 0.68199 0.85019 0.0
O685 O 0.60808 0.68763 0.81826 0.0
Co686 Co 0.31154 0.58984 0.83015 0.0
O687 O 0.32711 0.56502 0.82319 0.0
O688 O 0.3006 0.56564 0.84513 0.0
C689 C 0.33988 0.61129 0.83429 0.0
O690 O 0.29198 0.61261 0.84141 0.0
Co691 Co 0.31486 0.62884 0.80093 0.0
O692 O 0.29716 0.64197 0.8227 0.0
C693 C 0.29053 0.59213 0.78759 0.0
C694 C 0.3148 0.5547 0.83553 0.0
C695 C 0.28807 0.63198 0.83737 0.0
O696 O 0.29152 0.58431 0.80613 0.0
O697 O 0.30086 0.60831 0.78196 0.0
O698 O 0.33394 0.5992 0.84952 0.0
O699 O 0.3298 0.60853 0.81718 0.0
Co700 Co 0.42813 0.31406 0.83027 0.0
O701 O 0.45298 0.32935 0.82258 0.0
O702 O 0.45242 0.30338 0.84519 0.0
C703 C 0.40676 0.3425 0.83403 0.0
O704 O 0.40556 0.29488 0.84246 0.0
Co705 Co 0.3885 0.31642 0.80194 0.0
O706 O 0.37578 0.29905 0.82425 0.0
C707 C 0.4251 0.29209 0.78831 0.0
C708 C 0.46336 0.31725 0.8351 0.0
C709 C 0.38612 0.29072 0.83911 0.0
O710 O 0.43326 0.29344 0.80667 0.0
O711 O 0.40878 0.30225 0.78282 0.0
O712 O 0.4191 0.33695 0.8492 0.0
O713 O 0.40922 0.33198 0.81713 0.0
Co714 Co 0.70441 0.42882 0.83017 0.0
O715 O 0.68872 0.45337 0.82225 0.0
O716 O 0.71468 0.45336 0.84486 0.0
C717 C 0.67636 0.40691 0.83407 0.0
O718 O 0.72409 0.40692 0.84266 0.0
Co719 Co 0.70302 0.38873 0.80239 0.0
O720 O 0.7224 0.3773 0.82369 0.0
C721 C 0.72622 0.42581 0.78817 0.0
C722 C 0.7007 0.46402 0.83467 0.0
C723 C 0.72977 0.388 0.83878 0.0
O724 O 0.72496 0.43406 0.8065 0.0
O725 O 0.71624 0.40931 0.7829 0.0
O726 O 0.68161 0.41951 0.84914 0.0
O727 O 0.68695 0.40936 0.8172 0.0
Co728 Co 0.58893 0.3134 0.18726 0.0
O729 O 0.56412 0.32871 0.19495 0.0
O730 O 0.56458 0.30264 0.17248 0.0
C731 C 0.61021 0.34189 0.18323 0.0
O732 O 0.61149 0.29421 0.17506 0.0
Co733 Co 0.62862 0.31592 0.21543 0.0
O734 O 0.64132 0.29852 0.19316 0.0
C735 C 0.59192 0.29195 0.22947 0.0
C736 C 0.5537 0.31658 0.18251 0.0
C737 C 0.63096 0.29013 0.17835 0.0
O738 O 0.58387 0.29292 0.21104 0.0
O739 O 0.6083 0.30209 0.23481 0.0
O740 O 0.59783 0.3362 0.16815 0.0
O741 O 0.60787 0.33143 0.20022 0.0
Co742 Co 0.70316 0.59009 0.18611 0.0
O743 O 0.68887 0.56456 0.19371 0.0
O744 O 0.71438 0.56649 0.17064 0.0
C745 C 0.67406 0.61063 0.18308 0.0
O746 O 0.72131 0.61341 0.17374 0.0
Co747 Co 0.70024 0.6294 0.21472 0.0
O748 O 0.7154 0.64316 0.19143 0.0
C749 C 0.72542 0.5932 0.22784 0.0
C750 C 0.70114 0.55487 0.1808 0.0
C751 C 0.724 0.6332 0.17647 0.0
O752 O 0.7243 0.58531 0.20935 0.0
O753 O 0.71504 0.6093 0.23353 0.0
O754 O 0.67968 0.5986 0.16768 0.0
O755 O 0.68491 0.60829 0.1998 0.0
Co756 Co 0.42665 0.70366 0.18909 0.0
O757 O 0.45197 0.68892 0.19652 0.0
O758 O 0.45041 0.71497 0.17401 0.0
C759 C 0.40582 0.67488 0.18524 0.0
O760 O 0.40372 0.72242 0.17699 0.0
Co761 Co 0.38711 0.7007 0.2173 0.0
O762 O 0.37388 0.71746 0.19484 0.0
C763 C 0.42356 0.72509 0.23126 0.0
C764 C 0.46184 0.70142 0.18394 0.0
C765 C 0.38414 0.72606 0.18005 0.0
O766 O 0.43154 0.72422 0.21279 0.0
O767 O 0.40727 0.7148 0.23663 0.0
O768 O 0.41803 0.68076 0.17007 0.0
O769 O 0.40811 0.68531 0.20225 0.0
Co770 Co 0.31146 0.42719 0.18775 0.0
O771 O 0.32645 0.45245 0.19481 0.0
O772 O 0.30079 0.45077 0.1719 0.0
C773 C 0.34026 0.40609 0.18527 0.0
O774 O 0.29248 0.40428 0.17597 0.0
Co775 Co 0.31347 0.38826 0.21704 0.0
O776 O 0.29489 0.37534 0.19588 0.0
C777 C 0.28974 0.42555 0.22977 0.0
C778 C 0.31431 0.46223 0.18183 0.0
C779 C 0.2873 0.38532 0.1804 0.0
O780 O 0.29059 0.4329 0.21102 0.0
O781 O 0.30001 0.40945 0.23568 0.0
O782 O 0.33476 0.41768 0.16948 0.0
O783 O 0.32922 0.40885 0.20178 0.0
Co784 Co 0.82933 0.59052 0.70335 0.0
O785 O 0.82141 0.56549 0.68856 0.0
O786 O 0.84421 0.56632 0.71433 0.0
C787 C 0.83314 0.61132 0.67452 0.0
O788 O 0.8419 0.61344 0.72189 0.0
Co789 Co 0.80131 0.63029 0.70042 0.0
O790 O 0.82479 0.64349 0.71573 0.0
C791 C 0.78733 0.59407 0.72519 0.0
C792 C 0.83404 0.55525 0.70064 0.0
C793 C 0.83948 0.63329 0.72449 0.0
O794 O 0.80572 0.5859 0.72415 0.0
O795 O 0.78202 0.61037 0.71491 0.0
O796 O 0.84824 0.59897 0.68023 0.0
O797 O 0.81624 0.60917 0.68515 0.0
Co798 Co 0.42784 0.83035 0.70539 0.0
O799 O 0.45333 0.82321 0.69082 0.0
O800 O 0.4514 0.84576 0.71676 0.0
C801 C 0.40712 0.83378 0.67648 0.0
O802 O 0.40466 0.84227 0.72396 0.0
Co803 Co 0.38841 0.80188 0.70232 0.0
O804 O 0.37487 0.82446 0.71867 0.0
C805 C 0.4249 0.78818 0.72682 0.0
C806 C 0.46301 0.83596 0.70327 0.0
C807 C 0.38503 0.83925 0.72735 0.0
O808 O 0.4328 0.8067 0.72605 0.0
O809 O 0.4087 0.78275 0.71644 0.0
O810 O 0.41909 0.84915 0.6823 0.0
O811 O 0.40954 0.8169 0.68706 0.0
Co812 Co 0.18751 0.42724 0.70328 0.0
O813 O 0.19463 0.45277 0.68875 0.0
O814 O 0.17176 0.45065 0.71443 0.0
C815 C 0.18481 0.40672 0.67413 0.0
O816 O 0.17565 0.40399 0.72182 0.0
Co817 Co 0.21638 0.38813 0.70044 0.0
O818 O 0.19424 0.37454 0.71737 0.0
C819 C 0.22938 0.42465 0.72532 0.0
C820 C 0.18166 0.46234 0.70106 0.0
C821 C 0.17917 0.38454 0.72573 0.0
O822 O 0.21084 0.43246 0.7242 0.0
O823 O 0.23511 0.4086 0.71487 0.0
O824 O 0.16911 0.41825 0.67993 0.0
O825 O 0.20141 0.4092 0.68511 0.0
Co826 Co 0.58981 0.1876 0.70417 0.0
O827 O 0.56441 0.19468 0.68945 0.0
O828 O 0.56616 0.17244 0.7157 0.0
C829 C 0.61063 0.18369 0.67537 0.0
O830 O 0.61287 0.17585 0.72297 0.0
Co831 Co 0.62921 0.21605 0.70082 0.0
O832 O 0.64257 0.19395 0.71796 0.0
C833 C 0.59273 0.23002 0.72515 0.0
C834 C 0.55463 0.18216 0.70208 0.0
C835 C 0.63241 0.17914 0.72663 0.0
O836 O 0.58484 0.21149 0.72453 0.0
O837 O 0.60893 0.23537 0.71472 0.0
O838 O 0.59856 0.16846 0.68138 0.0
O839 O 0.60821 0.20074 0.68569 0.0
Co840 Co 0.82895 0.42828 0.31301 0.0
O841 O 0.82097 0.45321 0.32792 0.0
O842 O 0.84424 0.4525 0.30256 0.0
C843 C 0.8317 0.4073 0.34191 0.0
O844 O 0.84152 0.40555 0.29428 0.0
Co845 Co 0.80052 0.38866 0.31512 0.0
O846 O 0.82321 0.37581 0.2984 0.0
C847 C 0.7874 0.42521 0.29037 0.0
C848 C 0.83383 0.46351 0.31613 0.0
C849 C 0.83824 0.38608 0.29025 0.0
O850 O 0.8058 0.43332 0.29183 0.0
O851 O 0.78173 0.409 0.30061 0.0
O852 O 0.84723 0.4193 0.33652 0.0
O853 O 0.81524 0.40965 0.33072 0.0
Co854 Co 0.58995 0.83065 0.31457 0.0
O855 O 0.56538 0.82252 0.33015 0.0
O856 O 0.5653 0.84501 0.30408 0.0
C857 C 0.61159 0.83503 0.34275 0.0
O858 O 0.61193 0.84323 0.29497 0.0
Co859 Co 0.63023 0.80316 0.3166 0.0
O860 O 0.64181 0.82479 0.29766 0.0
C861 C 0.59378 0.78872 0.29254 0.0
C862 C 0.55467 0.83477 0.31807 0.0
C863 C 0.63105 0.83959 0.28979 0.0
O864 O 0.58514 0.80685 0.29407 0.0
O865 O 0.6103 0.78358 0.30255 0.0
O866 O 0.59884 0.84989 0.33727 0.0
O867 O 0.60939 0.81803 0.33233 0.0
Co868 Co 0.18623 0.58914 0.31336 0.0
O869 O 0.19322 0.56379 0.32825 0.0
O870 O 0.17039 0.56561 0.30254 0.0
C871 C 0.1837 0.61009 0.34226 0.0
O872 O 0.17456 0.61209 0.29436 0.0
Co873 Co 0.21547 0.62811 0.31565 0.0
O874 O 0.19459 0.64094 0.2967 0.0
C875 C 0.22818 0.5911 0.29145 0.0
C876 C 0.18026 0.55408 0.31604 0.0
C877 C 0.17914 0.63097 0.28905 0.0
O878 O 0.20953 0.58353 0.29251 0.0
O879 O 0.23409 0.60711 0.30186 0.0
O880 O 0.1679 0.59857 0.33664 0.0
O881 O 0.20023 0.60739 0.33124 0.0
Co882 Co 0.42807 0.18675 0.31425 0.0
O883 O 0.45292 0.19433 0.32955 0.0
O884 O 0.45232 0.17183 0.30351 0.0
C885 C 0.40664 0.18291 0.34264 0.0
O886 O 0.40551 0.17465 0.29504 0.0
Co887 Co 0.38847 0.21512 0.31666 0.0
O888 O 0.37571 0.19278 0.29939 0.0
C889 C 0.42519 0.22886 0.29255 0.0
C890 C 0.46327 0.18185 0.31741 0.0
C891 C 0.38604 0.17796 0.29099 0.0
O892 O 0.43326 0.21045 0.29372 0.0
O893 O 0.40888 0.23431 0.30274 0.0
O894 O 0.41897 0.16773 0.33707 0.0
O895 O 0.40916 0.19985 0.33217 0.0
Co896 Co 0.70402 0.83084 0.59059 0.0
O897 O 0.68941 0.82391 0.56507 0.0
O898 O 0.71508 0.84678 0.56722 0.0
C899 C 0.67496 0.83336 0.61134 0.0
O900 O 0.72264 0.84251 0.61384 0.0
Co901 Co 0.70139 0.80162 0.62949 0.0
O902 O 0.71842 0.82362 0.64315 0.0
C903 C 0.72615 0.78901 0.59277 0.0
C904 C 0.7017 0.83693 0.55552 0.0
C905 C 0.72668 0.83881 0.63322 0.0
O906 O 0.72496 0.8076 0.5851 0.0
O907 O 0.71577 0.7831 0.60881 0.0
O908 O 0.68067 0.84914 0.59984 0.0
O909 O 0.68593 0.81679 0.60865 0.0
Co910 Co 0.70454 0.1866 0.42809 0.0
O911 O 0.68999 0.1939 0.45354 0.0
O912 O 0.71541 0.17075 0.45162 0.0
C913 C 0.67544 0.18429 0.40739 0.0
O914 O 0.72301 0.17458 0.40488 0.0
Co915 Co 0.70215 0.21565 0.38902 0.0
O916 O 0.71839 0.19306 0.37539 0.0
C917 C 0.72687 0.22828 0.42574 0.0
C918 C 0.70214 0.18087 0.46322 0.0
C919 C 0.72672 0.17795 0.38536 0.0
O920 O 0.72569 0.20969 0.43342 0.0
O921 O 0.71651 0.23418 0.4097 0.0
O922 O 0.68095 0.1685 0.41897 0.0
O923 O 0.68664 0.20072 0.40999 0.0
Co924 Co 0.82992 0.70526 0.42734 0.0
O925 O 0.8225 0.69092 0.45287 0.0
O926 O 0.84601 0.71602 0.45074 0.0
C927 C 0.8318 0.67606 0.40677 0.0
O928 O 0.84216 0.72344 0.404 0.0
Co929 Co 0.80075 0.70317 0.38841 0.0
O930 O 0.82358 0.71896 0.37457 0.0
C931 C 0.78857 0.72822 0.42506 0.0
C932 C 0.83576 0.70292 0.46244 0.0
C933 C 0.83885 0.72709 0.38446 0.0
O934 O 0.80716 0.72674 0.43268 0.0
O935 O 0.78247 0.71793 0.40905 0.0
O936 O 0.84767 0.68142 0.41829 0.0
O937 O 0.81549 0.68745 0.40935 0.0
Co938 Co 0.31312 0.82994 0.42908 0.0
O939 O 0.32829 0.82225 0.45396 0.0
O940 O 0.30231 0.84481 0.45334 0.0
C941 C 0.34163 0.83382 0.40779 0.0
O942 O 0.29405 0.84212 0.40645 0.0
Co943 Co 0.31576 0.80159 0.38946 0.0
O944 O 0.29849 0.82392 0.3767 0.0
C945 C 0.29118 0.78793 0.42589 0.0
C946 C 0.31616 0.83474 0.46431 0.0
C947 C 0.29006 0.83876 0.38698 0.0
O948 O 0.29247 0.80628 0.43408 0.0
O949 O 0.30146 0.78246 0.40964 0.0
O950 O 0.33604 0.84895 0.42016 0.0
O951 O 0.33114 0.81688 0.41022 0.0
Co952 Co 0.18669 0.312 0.42723 0.0
O953 O 0.19342 0.32715 0.45248 0.0
O954 O 0.17148 0.30063 0.45093 0.0
C955 C 0.18266 0.34052 0.40599 0.0
O956 O 0.17539 0.29268 0.40437 0.0
Co957 Co 0.21566 0.31518 0.38815 0.0
O958 O 0.19495 0.29604 0.37529 0.0
C959 C 0.22935 0.29138 0.42503 0.0
C960 C 0.18099 0.31449 0.46234 0.0
C961 C 0.17982 0.28782 0.38534 0.0
O962 O 0.21071 0.29193 0.43266 0.0
O963 O 0.23487 0.30179 0.40888 0.0
O964 O 0.16739 0.33448 0.41801 0.0
O965 O 0.19979 0.3304 0.40867 0.0
Co966 Co 0.31353 0.1867 0.58991 0.0
O967 O 0.32806 0.19462 0.56473 0.0
O968 O 0.30296 0.17107 0.56598 0.0
C969 C 0.34271 0.18446 0.61045 0.0
O970 O 0.29536 0.17412 0.61316 0.0
Co971 Co 0.31585 0.21562 0.62909 0.0
O972 O 0.30096 0.19214 0.6428 0.0
C973 C 0.29071 0.22811 0.5926 0.0
C974 C 0.31631 0.18152 0.55472 0.0
C975 C 0.29259 0.17699 0.63294 0.0
O976 O 0.29209 0.20957 0.58486 0.0
O977 O 0.30105 0.23407 0.60864 0.0
O978 O 0.33732 0.16875 0.59872 0.0
O979 O 0.33134 0.2008 0.60809 0.0
Co980 Co 0.83022 0.31328 0.58978 0.0
O981 O 0.82267 0.32854 0.5649 0.0
O982 O 0.84517 0.3025 0.56554 0.0
C983 C 0.83408 0.3418 0.611 0.0
O984 O 0.84229 0.29412 0.61244 0.0
Co985 Co 0.80192 0.31587 0.62941 0.0
O986 O 0.82438 0.29888 0.6423 0.0
C987 C 0.78812 0.29151 0.59289 0.0
C988 C 0.83521 0.31643 0.55458 0.0
C989 C 0.83911 0.29028 0.63198 0.0
O990 O 0.80649 0.29275 0.58469 0.0
O991 O 0.78272 0.3017 0.60921 0.0
O992 O 0.84925 0.33612 0.59872 0.0
O993 O 0.81713 0.33132 0.6086 0.0
Co994 Co 0.18695 0.70399 0.59001 0.0
O995 O 0.19416 0.68931 0.56462 0.0
O996 O 0.17187 0.71551 0.56632 0.0
C997 C 0.18297 0.67513 0.61077 0.0
O998 O 0.17512 0.72272 0.61307 0.0
Co999 Co 0.2153 0.7005 0.62949 0.0
O1000 O 0.19317 0.71765 0.64278 0.0
C1001 C 0.22928 0.72523 0.59325 0.0
C1002 C 0.18163 0.7019 0.55481 0.0
C1003 C 0.17841 0.72636 0.63261 0.0
O1004 O 0.21083 0.72444 0.5852 0.0
O1005 O 0.23461 0.71475 0.60942 0.0
O1006 O 0.16778 0.68113 0.59866 0.0
O1007 O 0.20002 0.68548 0.60842 0.0
Co1008 Co 0.42707 0.31338 0.18863 0.0
O1009 O 0.45204 0.32854 0.19612 0.0
O1010 O 0.4511 0.30295 0.17312 0.0
C1011 C 0.40585 0.34206 0.18587 0.0
O1012 O 0.40432 0.29441 0.17649 0.0
Co1013 Co 0.3877 0.31528 0.21735 0.0
O1014 O 0.3746 0.29864 0.19475 0.0
C1015 C 0.42468 0.29117 0.23042 0.0
C1016 C 0.46219 0.31666 0.18323 0.0
C1017 C 0.38483 0.2904 0.17976 0.0
O1018 O 0.43255 0.29248 0.21191 0.0
O1019 O 0.4084 0.30127 0.23613 0.0
O1020 O 0.41771 0.33666 0.17025 0.0
O1021 O 0.40847 0.33104 0.20241 0.0
Co1022 Co 0.70327 0.42809 0.1859 0.0
O1023 O 0.68894 0.45355 0.19359 0.0
O1024 O 0.71447 0.45178 0.17052 0.0
C1025 C 0.67423 0.40746 0.18276 0.0
O1026 O 0.72144 0.40488 0.17342 0.0
Co1027 Co 0.70041 0.38855 0.21427 0.0
O1028 O 0.7153 0.37493 0.19075 0.0
C1029 C 0.72563 0.4247 0.22759 0.0
C1030 C 0.70122 0.46332 0.18072 0.0
C1031 C 0.72395 0.38504 0.17591 0.0
O1032 O 0.72438 0.43279 0.20917 0.0
O1033 O 0.71523 0.40855 0.23318 0.0
O1034 O 0.67983 0.4196 0.16743 0.0
O1035 O 0.68506 0.40976 0.19951 0.0
Co1036 Co 0.58864 0.70442 0.18796 0.0
O1037 O 0.56356 0.68961 0.19631 0.0
O1038 O 0.5645 0.71531 0.17337 0.0
C1039 C 0.60962 0.67575 0.18404 0.0
O1040 O 0.61069 0.72332 0.17474 0.0
Co1041 Co 0.62977 0.70275 0.21396 0.0
O1042 O 0.64165 0.72007 0.19111 0.0
C1043 C 0.59365 0.72698 0.2293 0.0
C1044 C 0.55336 0.70185 0.18371 0.0
C1045 C 0.63019 0.72772 0.17676 0.0
O1046 O 0.58443 0.72534 0.21147 0.0
O1047 O 0.61042 0.71712 0.23392 0.0
O1048 O 0.59691 0.68122 0.16914 0.0
O1049 O 0.60795 0.68662 0.20084 0.0
Co1050 Co 0.31259 0.5888 0.18745 0.0
O1051 O 0.32725 0.56338 0.1946 0.0
O1052 O 0.30145 0.56528 0.17187 0.0
C1053 C 0.34139 0.60975 0.1843 0.0
O1054 O 0.29395 0.61192 0.17559 0.0
Co1055 Co 0.31524 0.62792 0.21633 0.0
O1056 O 0.29844 0.64143 0.19406 0.0
C1057 C 0.29046 0.59136 0.22932 0.0
C1058 C 0.31489 0.5537 0.18176 0.0
C1059 C 0.29008 0.63138 0.17902 0.0
O1060 O 0.29173 0.58353 0.21081 0.0
O1061 O 0.30078 0.60748 0.2351 0.0
O1062 O 0.33574 0.59781 0.16885 0.0
O1063 O 0.33074 0.60713 0.20113 0.0
Co1064 Co 0.42673 0.70385 0.83063 0.0
O1065 O 0.45147 0.68839 0.823 0.0
O1066 O 0.45101 0.71432 0.84564 0.0
C1067 C 0.40509 0.67564 0.83438 0.0
O1068 O 0.40431 0.72316 0.84281 0.0
Co1069 Co 0.3872 0.70192 0.80217 0.0
O1070 O 0.37454 0.71927 0.8245 0.0
C1071 C 0.42421 0.72565 0.78856 0.0
C1072 C 0.46188 0.7004 0.83557 0.0
C1073 C 0.3849 0.72743 0.83944 0.0
O1074 O 0.43213 0.72445 0.80703 0.0
O1075 O 0.40778 0.7157 0.78303 0.0
O1076 O 0.41748 0.68105 0.84956 0.0
O1077 O 0.40768 0.68612 0.81745 0.0
Co1078 Co 0.31303 0.42803 0.83001 0.0
O1079 O 0.32802 0.45316 0.82271 0.0
O1080 O 0.30184 0.45199 0.84506 0.0
C1081 C 0.34174 0.40703 0.83387 0.0
O1082 O 0.2941 0.40508 0.84186 0.0
Co1083 Co 0.31616 0.38861 0.8015 0.0
O1084 O 0.29924 0.37537 0.82385 0.0
C1085 C 0.2915 0.42497 0.78782 0.0
C1086 C 0.31568 0.46322 0.83525 0.0
C1087 C 0.2905 0.38551 0.83861 0.0
O1088 O 0.29257 0.43305 0.80624 0.0
O1089 O 0.30188 0.40879 0.78236 0.0
O1090 O 0.33587 0.41917 0.84909 0.0
O1091 O 0.33134 0.40948 0.81688 0.0
Co1092 Co 0.59008 0.31377 0.82934 0.0
O1093 O 0.56524 0.32921 0.82201 0.0
O1094 O 0.56584 0.30293 0.84424 0.0
C1095 C 0.61157 0.34208 0.83347 0.0
O1096 O 0.61265 0.2944 0.84117 0.0
Co1097 Co 0.62958 0.3164 0.80084 0.0
O1098 O 0.64237 0.29873 0.82285 0.0
C1099 C 0.59277 0.29256 0.78696 0.0
C1100 C 0.5549 0.31698 0.83445 0.0
C1101 C 0.63208 0.29026 0.83768 0.0
O1102 O 0.5848 0.2935 0.80544 0.0
O1103 O 0.60914 0.30269 0.78156 0.0
O1104 O 0.59923 0.33634 0.84858 0.0
O1105 O 0.60902 0.33184 0.81639 0.0
Co1106 Co 0.70376 0.59084 0.82982 0.0
O1107 O 0.68843 0.56606 0.822 0.0
O1108 O 0.71449 0.56643 0.84447 0.0
C1109 C 0.67536 0.61217 0.834 0.0
O1110 O 0.72299 0.61331 0.84216 0.0
Co1111 Co 0.70129 0.63076 0.80194 0.0
O1112 O 0.71801 0.64341 0.82474 0.0
C1113 C 0.72528 0.5942 0.78764 0.0
C1114 C 0.70056 0.55558 0.83439 0.0
C1115 C 0.72667 0.63293 0.83932 0.0
O1116 O 0.72423 0.58595 0.80599 0.0
O1117 O 0.71522 0.61067 0.78245 0.0
O1118 O 0.68099 0.59964 0.849 0.0
O1119 O 0.68577 0.60989 0.81699 0.0
Co1120 Co 0.18573 0.42753 0.31355 0.0
O1121 O 0.19266 0.4528 0.32857 0.0
O1122 O 0.17022 0.45115 0.30251 0.0
C1123 C 0.18229 0.40617 0.34203 0.0
O1124 O 0.17414 0.40462 0.2945 0.0
Co1125 Co 0.21484 0.38856 0.31603 0.0
O1126 O 0.193 0.37526 0.29851 0.0
C1127 C 0.22793 0.42553 0.29197 0.0
C1128 C 0.17995 0.46261 0.31617 0.0
C1129 C 0.17789 0.38529 0.29027 0.0
O1130 O 0.20931 0.43312 0.29298 0.0
O1131 O 0.2337 0.40932 0.30214 0.0
O1132 O 0.16689 0.41818 0.33637 0.0
O1133 O 0.19924 0.409 0.33163 0.0
Co1134 Co 0.58991 0.18784 0.31343 0.0
O1135 O 0.56503 0.19537 0.32871 0.0
O1136 O 0.56577 0.17248 0.30302 0.0
C1137 C 0.61112 0.18487 0.34211 0.0
O1138 O 0.61256 0.1757 0.2943 0.0
Co1139 Co 0.62934 0.21647 0.31539 0.0
O1140 O 0.64219 0.19425 0.29806 0.0
C1141 C 0.59225 0.22984 0.29163 0.0
C1142 C 0.55477 0.18256 0.31684 0.0
C1143 C 0.63193 0.17921 0.28996 0.0
O1144 O 0.58446 0.21128 0.29266 0.0
O1145 O 0.60858 0.23544 0.3017 0.0
O1146 O 0.59923 0.16931 0.3366 0.0
O1147 O 0.6086 0.20146 0.33113 0.0
Co1148 Co 0.8286 0.59028 0.31318 0.0
O1149 O 0.8204 0.56519 0.32774 0.0
O1150 O 0.84408 0.56619 0.30277 0.0
C1151 C 0.83097 0.61098 0.34225 0.0
O1152 O 0.84155 0.6133 0.295 0.0
Co1153 Co 0.80019 0.62984 0.31512 0.0
O1154 O 0.82399 0.64323 0.30045 0.0
C1155 C 0.78732 0.59337 0.29015 0.0
C1156 C 0.8335 0.55504 0.31611 0.0
C1157 C 0.83904 0.63311 0.2922 0.0
O1158 O 0.80576 0.5854 0.29163 0.0
O1159 O 0.78155 0.60961 0.30025 0.0
O1160 O 0.84654 0.599 0.337 0.0
O1161 O 0.81463 0.60873 0.33085 0.0
Co1162 Co 0.42782 0.8297 0.31449 0.0
O1163 O 0.45243 0.82185 0.33013 0.0
O1164 O 0.45237 0.84428 0.30401 0.0
C1165 C 0.4061 0.83386 0.34264 0.0
O1166 O 0.40583 0.8421 0.29482 0.0
Co1167 Co 0.38764 0.80205 0.31634 0.0
O1168 O 0.37607 0.82338 0.29707 0.0
C1169 C 0.42464 0.78745 0.29325 0.0
C1170 C 0.46306 0.83419 0.31803 0.0
C1171 C 0.3868 0.83832 0.28941 0.0
O1172 O 0.43289 0.80582 0.29414 0.0
O1173 O 0.4081 0.78236 0.30327 0.0
O1174 O 0.41871 0.84886 0.33717 0.0
O1175 O 0.40842 0.81691 0.33218 0.0
Co1176 Co 0.18592 0.58896 0.70404 0.0
O1177 O 0.19316 0.56385 0.68886 0.0
O1178 O 0.17077 0.56508 0.71501 0.0
C1179 C 0.18221 0.61037 0.67561 0.0
O1180 O 0.17404 0.61148 0.72337 0.0
Co1181 Co 0.21442 0.62847 0.70169 0.0
O1182 O 0.19364 0.64066 0.72118 0.0
C1183 C 0.22816 0.59159 0.72543 0.0
C1184 C 0.18062 0.55382 0.70128 0.0
C1185 C 0.17837 0.63036 0.72881 0.0
O1186 O 0.20965 0.58367 0.72447 0.0
O1187 O 0.23366 0.6078 0.71509 0.0
O1188 O 0.16694 0.59817 0.68126 0.0
O1189 O 0.19915 0.60779 0.68606 0.0
Co1190 Co 0.42795 0.18768 0.70433 0.0
O1191 O 0.45344 0.19517 0.68995 0.0
O1192 O 0.4515 0.17209 0.71546 0.0
C1193 C 0.40757 0.18501 0.67508 0.0
O1194 O 0.40471 0.17542 0.72264 0.0
Co1195 Co 0.3885 0.2161 0.70152 0.0
O1196 O 0.37493 0.19329 0.71756 0.0
C1197 C 0.42489 0.22941 0.72646 0.0
C1198 C 0.46312 0.18223 0.7022 0.0
C1199 C 0.38507 0.17839 0.72607 0.0
O1200 O 0.43285 0.21093 0.72539 0.0
O1201 O 0.40879 0.23499 0.71599 0.0
O1202 O 0.41924 0.16937 0.68079 0.0
O1203 O 0.40985 0.20153 0.68621 0.0
Co1204 Co 0.83026 0.42847 0.70362 0.0
O1205 O 0.82237 0.45328 0.68844 0.0
O1206 O 0.84512 0.45281 0.71427 0.0
C1207 C 0.834 0.40716 0.67516 0.0
O1208 O 0.84267 0.40589 0.72265 0.0
Co1209 Co 0.80205 0.38874 0.70136 0.0
O1210 O 0.82498 0.37593 0.7178 0.0
C1211 C 0.78834 0.42527 0.72571 0.0
C1212 C 0.83489 0.46371 0.70048 0.0
C1213 C 0.83974 0.38628 0.72631 0.0
O1214 O 0.80671 0.43345 0.72436 0.0
O1215 O 0.78287 0.40892 0.71559 0.0
O1216 O 0.84914 0.41959 0.68062 0.0
O1217 O 0.81712 0.40954 0.68576 0.0
Co1218 Co 0.58964 0.83069 0.70554 0.0
O1219 O 0.56422 0.82379 0.69079 0.0
O1220 O 0.56613 0.84645 0.71663 0.0
C1221 C 0.61041 0.83341 0.67648 0.0
O1222 O 0.61292 0.84217 0.72433 0.0
Co1223 Co 0.6283 0.80113 0.70248 0.0
O1224 O 0.64198 0.82292 0.71972 0.0
C1225 C 0.59145 0.78852 0.72709 0.0
C1226 C 0.55454 0.8366 0.70315 0.0
C1227 C 0.63223 0.838 0.72834 0.0
O1228 O 0.58408 0.80725 0.72627 0.0
O1229 O 0.60743 0.78259 0.71664 0.0
O1230 O 0.59897 0.84918 0.6823 0.0
O1231 O 0.60765 0.8168 0.68736 0.0
Co1232 Co 0.31272 0.1869 0.42806 0.0
O1233 O 0.328 0.1943 0.45295 0.0
O1234 O 0.30182 0.17195 0.45226 0.0
C1235 C 0.34124 0.18294 0.40682 0.0
O1236 O 0.29355 0.17496 0.40537 0.0
Co1237 Co 0.31553 0.21533 0.38854 0.0
O1238 O 0.29841 0.19299 0.37558 0.0
C1239 C 0.29151 0.22924 0.42524 0.0
C1240 C 0.31581 0.1818 0.46324 0.0
C1241 C 0.28977 0.17823 0.38584 0.0
O1242 O 0.29236 0.21075 0.4332 0.0
O1243 O 0.30173 0.23462 0.40892 0.0
O1244 O 0.33546 0.16777 0.41907 0.0
O1245 O 0.33086 0.19994 0.40927 0.0
Co1246 Co 0.31333 0.8296 0.59112 0.0
O1247 O 0.32814 0.82176 0.56607 0.0
O1248 O 0.3024 0.84457 0.56694 0.0
C1249 C 0.34216 0.83329 0.61192 0.0
O1250 O 0.2948 0.84206 0.61413 0.0
Co1251 Co 0.31621 0.80124 0.63066 0.0
O1252 O 0.30101 0.82469 0.64404 0.0
C1253 C 0.29146 0.78759 0.59437 0.0
C1254 C 0.31608 0.83441 0.55584 0.0
C1255 C 0.29227 0.8395 0.63398 0.0
O1256 O 0.2925 0.80605 0.58637 0.0
O1257 O 0.30172 0.78211 0.61062 0.0
O1258 O 0.33647 0.84844 0.59962 0.0
O1259 O 0.33152 0.8164 0.6097 0.0
Co1260 Co 0.18699 0.31271 0.58897 0.0
O1261 O 0.19422 0.32711 0.56341 0.0
O1262 O 0.17118 0.30158 0.56555 0.0
C1263 C 0.18451 0.34197 0.60938 0.0
O1264 O 0.17506 0.29434 0.61231 0.0
Co1265 Co 0.21593 0.3156 0.62806 0.0
O1266 O 0.19362 0.29898 0.64175 0.0
C1267 C 0.22867 0.29041 0.59166 0.0
C1268 C 0.18121 0.31485 0.55384 0.0
C1269 C 0.17853 0.29057 0.6318 0.0
O1270 O 0.21015 0.29162 0.58383 0.0
O1271 O 0.23451 0.30091 0.60764 0.0
O1272 O 0.16875 0.33624 0.59788 0.0
O1273 O 0.20102 0.33086 0.60692 0.0
Co1274 Co 0.70442 0.18679 0.58988 0.0
O1275 O 0.68973 0.19386 0.56445 0.0
O1276 O 0.71582 0.17147 0.56628 0.0
C1277 C 0.67555 0.18318 0.61069 0.0
O1278 O 0.72319 0.17502 0.61297 0.0
Co1279 Co 0.70125 0.21527 0.62925 0.0
O1280 O 0.71827 0.19311 0.64265 0.0
C1281 C 0.72593 0.22897 0.59284 0.0
C1282 C 0.70225 0.18121 0.55472 0.0
C1283 C 0.72692 0.1783 0.63249 0.0
O1284 O 0.72497 0.21051 0.58482 0.0
O1285 O 0.71548 0.23441 0.60899 0.0
O1286 O 0.68146 0.16784 0.59873 0.0
O1287 O 0.68604 0.20012 0.60822 0.0
Co1288 Co 0.83057 0.70509 0.58909 0.0
O1289 O 0.82327 0.69055 0.56367 0.0
O1290 O 0.84597 0.71641 0.56547 0.0
C1291 C 0.83392 0.67614 0.6098 0.0
O1292 O 0.84255 0.72362 0.61227 0.0
Co1293 Co 0.80191 0.70195 0.6284 0.0
O1294 O 0.82432 0.71858 0.64188 0.0
C1295 C 0.78859 0.72695 0.59212 0.0
C1296 C 0.83603 0.70296 0.55392 0.0
C1297 C 0.83925 0.72716 0.63183 0.0
O1298 O 0.80707 0.72589 0.58415 0.0
O1299 O 0.78298 0.71645 0.60819 0.0
O1300 O 0.8493 0.68194 0.59781 0.0
O1301 O 0.81707 0.68677 0.60737 0.0
Co1302 Co 0.70493 0.8327 0.42886 0.0
O1303 O 0.68977 0.82544 0.45401 0.0
O1304 O 0.71581 0.84796 0.45272 0.0
C1305 C 0.67648 0.83622 0.40743 0.0
O1306 O 0.7242 0.84457 0.40623 0.0
Co1307 Co 0.7026 0.80393 0.38954 0.0
O1308 O 0.72192 0.8248 0.37719 0.0
C1309 C 0.72665 0.79061 0.42636 0.0
C1310 C 0.70211 0.83805 0.46401 0.0
C1311 C 0.72957 0.84013 0.38734 0.0
O1312 O 0.72553 0.80912 0.43421 0.0
O1313 O 0.71631 0.78494 0.41023 0.0
O1314 O 0.68204 0.85154 0.4196 0.0
O1315 O 0.68699 0.81934 0.4101 0.0
Co1316 Co 0.18695 0.70338 0.42809 0.0
O1317 O 0.19456 0.68929 0.45369 0.0
O1318 O 0.17127 0.71456 0.45159 0.0
C1319 C 0.18445 0.674 0.40788 0.0
O1320 O 0.17454 0.72127 0.40462 0.0
Co1321 Co 0.21567 0.70043 0.38882 0.0
O1322 O 0.19222 0.71514 0.37489 0.0
C1323 C 0.22857 0.72586 0.42497 0.0
C1324 C 0.18153 0.70149 0.4633 0.0
C1325 C 0.17722 0.72372 0.38479 0.0
O1326 O 0.21005 0.72469 0.43284 0.0
O1327 O 0.23433 0.71534 0.40898 0.0
O1328 O 0.16879 0.67964 0.41958 0.0
O1329 O 0.20093 0.6852 0.41015 0.0
Co1330 Co 0.82998 0.31371 0.42797 0.0
O1331 O 0.82231 0.32865 0.45299 0.0
O1332 O 0.84566 0.30338 0.45195 0.0
C1333 C 0.83229 0.34257 0.40687 0.0
O1334 O 0.84229 0.29499 0.40509 0.0
Co1335 Co 0.80102 0.31548 0.38879 0.0
O1336 O 0.82378 0.29917 0.37554 0.0
C1337 C 0.78852 0.29088 0.42568 0.0
C1338 C 0.83534 0.31691 0.4631 0.0
C1339 C 0.83892 0.29103 0.38562 0.0
O1340 O 0.80704 0.29244 0.43345 0.0
O1341 O 0.78256 0.301 0.4095 0.0
O1342 O 0.84802 0.3373 0.41864 0.0
O1343 O 0.81591 0.33129 0.40951 0.0
C1344 C 0.13516 0.25361 0.36545 0.0
C1345 C 0.14556 0.23917 0.35241 0.0
C1346 C 0.14625 0.26905 0.37658 0.0
C1347 C 0.16809 0.27078 0.37486 0.0
H1348 H 0.11829 0.2534 0.36663 0.0
H1349 H 0.13761 0.28011 0.38602 0.0
S1350 S 0.20313 0.23518 0.3455 0.0
N1351 N 0.17941 0.22642 0.34053 0.0
N1352 N 0.19989 0.25551 0.36097 0.0
C1353 C 0.17872 0.25593 0.36269 0.0
C1354 C 0.16757 0.24013 0.35161 0.0
C1355 C 0.74849 0.17094 0.35365 0.0
C1356 C 0.74241 0.16492 0.37393 0.0
C1357 C 0.76399 0.16023 0.34264 0.0
C1358 C 0.77422 0.14274 0.35118 0.0
H1359 H 0.74143 0.18434 0.34611 0.0
H1360 H 0.76785 0.16575 0.32712 0.0
S1361 S 0.76412 0.11994 0.40353 0.0
N1362 N 0.74787 0.13992 0.40209 0.0
N1363 N 0.77694 0.11957 0.38114 0.0
C1364 C 0.76817 0.13619 0.3713 0.0
C1365 C 0.75237 0.14731 0.38271 0.0
C1366 C 0.8465 0.74829 0.35249 0.0
C1367 C 0.85221 0.74245 0.37293 0.0
C1368 C 0.85756 0.7635 0.34137 0.0
C1369 C 0.87509 0.77363 0.34995 0.0
H1370 H 0.83311 0.74128 0.34491 0.0
H1371 H 0.85227 0.7672 0.32574 0.0
S1372 S 0.89714 0.76401 0.4027 0.0
N1373 N 0.87696 0.74799 0.40127 0.0
N1374 N 0.89795 0.7765 0.38013 0.0
C1375 C 0.88132 0.7678 0.37023 0.0
C1376 C 0.86986 0.7523 0.38175 0.0
C1377 C 0.24871 0.85373 0.34728 0.0
C1378 C 0.24232 0.87391 0.35327 0.0
C1379 C 0.26409 0.84283 0.35826 0.0
C1380 C 0.27385 0.85137 0.37599 0.0
H1381 H 0.24203 0.84619 0.3337 0.0
H1382 H 0.26822 0.82739 0.35274 0.0
S1383 S 0.26271 0.90344 0.39887 0.0
N1384 N 0.24692 0.90196 0.37853 0.0
N1385 N 0.27577 0.8812 0.3994 0.0
C1386 C 0.26746 0.87138 0.38254 0.0
C1387 C 0.25179 0.88269 0.37114 0.0
C1388 C 0.17368 0.75117 0.66231 0.0
C1389 C 0.16576 0.74244 0.64376 0.0
C1390 C 0.16286 0.76668 0.6732 0.0
C1391 C 0.14339 0.77425 0.66628 0.0
H1392 H 0.18859 0.74616 0.66853 0.0
H1393 H 0.16989 0.77258 0.68741 0.0
S1394 S 0.11551 0.75668 0.61853 0.0
N1395 N 0.13714 0.74263 0.61877 0.0
N1396 N 0.11658 0.77173 0.63945 0.0
C1397 C 0.13516 0.76571 0.64772 0.0
C1398 C 0.14638 0.7499 0.63643 0.0
C1399 C 0.26252 0.15132 0.63448 0.0
C1400 C 0.27795 0.16321 0.64482 0.0
C1401 C 0.24704 0.14035 0.64573 0.0
C1402 C 0.24632 0.14113 0.66768 0.0
H1403 H 0.26194 0.15103 0.61758 0.0
H1404 H 0.23516 0.13186 0.6372 0.0
S1405 S 0.28482 0.16701 0.70238 0.0
N1406 N 0.29278 0.17274 0.67855 0.0
N1407 N 0.2636 0.15268 0.69937 0.0
C1408 C 0.2622 0.15204 0.67818 0.0
C1409 C 0.27802 0.16292 0.66685 0.0
C1410 C 0.84494 0.26669 0.66257 0.0
C1411 C 0.8519 0.27419 0.64308 0.0
C1412 C 0.85576 0.25117 0.67345 0.0
C1413 C 0.8743 0.24235 0.66558 0.0
H1414 H 0.83076 0.27269 0.66959 0.0
H1415 H 0.84952 0.24627 0.68839 0.0
S1416 S 0.89953 0.25627 0.61521 0.0
N1417 N 0.87868 0.27141 0.61623 0.0
N1418 N 0.89925 0.2423 0.6369 0.0
C1419 C 0.88163 0.24967 0.64613 0.0
C1420 C 0.87039 0.2655 0.63485 0.0
C1421 C 0.76707 0.85449 0.67381 0.0
C1422 C 0.77471 0.87389 0.66676 0.0
C1423 C 0.75148 0.84366 0.663 0.0
C1424 C 0.74274 0.85152 0.64441 0.0
H1425 H 0.77298 0.84752 0.68804 0.0
H1426 H 0.74643 0.82879 0.66931 0.0
S1427 S 0.75715 0.90161 0.61889 0.0
N1428 N 0.77223 0.90058 0.63978 0.0
N1429 N 0.743 0.88004 0.61928 0.0
C1430 C 0.75025 0.87085 0.63698 0.0
C1431 C 0.76614 0.88206 0.64817 0.0
C1432 C 0.34617 0.16255 0.2499 0.0
C1433 C 0.35278 0.14275 0.24293 0.0
C1434 C 0.35697 0.17343 0.26542 0.0
C1435 C 0.37512 0.16527 0.27476 0.0
H1436 H 0.33228 0.16978 0.24354 0.0
H1437 H 0.35099 0.18859 0.26997 0.0
S1438 S 0.3995 0.11421 0.26215 0.0
N1439 N 0.37894 0.11542 0.24661 0.0
N1440 N 0.39945 0.13613 0.27574 0.0
C1441 C 0.38218 0.1456 0.26787 0.0
C1442 C 0.37098 0.13431 0.25204 0.0
C1443 C 0.85398 0.3462 0.24934 0.0
C1444 C 0.87402 0.35255 0.24278 0.0
C1445 C 0.84292 0.35708 0.26467 0.0
C1446 C 0.85114 0.37507 0.27425 0.0
H1447 H 0.84666 0.33243 0.24278 0.0
H1448 H 0.82759 0.35128 0.26888 0.0
S1449 S 0.90279 0.39883 0.26275 0.0
N1450 N 0.90163 0.37835 0.24711 0.0
N1451 N 0.88058 0.39903 0.27589 0.0
C1452 C 0.87104 0.38192 0.26776 0.0
C1453 C 0.88251 0.37063 0.25212 0.0
C1454 C 0.65071 0.88446 0.25568 0.0
C1455 C 0.66268 0.87393 0.24043 0.0
C1456 C 0.63979 0.8734 0.27133 0.0
C1457 C 0.64069 0.85148 0.27239 0.0
H1458 H 0.65035 0.90137 0.256 0.0
H1459 H 0.6313 0.88207 0.28311 0.0
S1460 S 0.66697 0.81628 0.23465 0.0
N1461 N 0.67247 0.84 0.22622 0.0
N1462 N 0.6525 0.81958 0.2557 0.0
C1463 C 0.65164 0.84078 0.25668 0.0
C1464 C 0.66247 0.8519 0.2407 0.0
C1465 C 0.13436 0.65093 0.25504 0.0
C1466 C 0.14486 0.66298 0.23982 0.0
C1467 C 0.14541 0.64011 0.27073 0.0
C1468 C 0.16733 0.64119 0.27191 0.0
H1469 H 0.11745 0.65033 0.25524 0.0
H1470 H 0.13673 0.63143 0.28238 0.0
S1471 S 0.20251 0.6677 0.23421 0.0
N1472 N 0.17878 0.67311 0.22577 0.0
N1473 N 0.19923 0.65328 0.25531 0.0
C1474 C 0.17802 0.65233 0.25629 0.0
C1475 C 0.16689 0.66308 0.24025 0.0
C1476 C 0.34256 0.85723 0.76478 0.0
C1477 C 0.35106 0.87498 0.77456 0.0
C1478 C 0.3535 0.84629 0.74938 0.0
C1479 C 0.37368 0.85236 0.743 0.0
H1480 H 0.32711 0.85166 0.7689 0.0
H1481 H 0.34602 0.8327 0.74264 0.0
S1482 S 0.40313 0.89801 0.76346 0.0
N1483 N 0.38088 0.89844 0.77652 0.0
N1484 N 0.40168 0.8777 0.74764 0.0
C1485 C 0.38242 0.87022 0.75252 0.0
C1486 C 0.37108 0.88156 0.7682 0.0
C1487 C 0.17423 0.35475 0.75049 0.0
C1488 C 0.16641 0.37336 0.74178 0.0
C1489 C 0.16342 0.34395 0.7661 0.0
C1490 C 0.14405 0.35103 0.7738 0.0
H1491 H 0.18907 0.34842 0.74541 0.0
H1492 H 0.17038 0.3297 0.77199 0.0
S1493 S 0.1164 0.39893 0.75628 0.0
N1494 N 0.13795 0.39852 0.74209 0.0
N1495 N 0.11741 0.37802 0.77137 0.0
C1496 C 0.1359 0.36962 0.76524 0.0
C1497 C 0.14711 0.38081 0.74933 0.0
C1498 C 0.66235 0.17402 0.75113 0.0
C1499 C 0.64358 0.16636 0.74263 0.0
C1500 C 0.67326 0.16307 0.76655 0.0
C1501 C 0.66612 0.14371 0.77423 0.0
H1502 H 0.66874 0.18884 0.74601 0.0
H1503 H 0.68764 0.16989 0.77228 0.0
S1504 S 0.61776 0.11649 0.75726 0.0
N1505 N 0.61818 0.13809 0.74315 0.0
N1506 N 0.63887 0.11728 0.77207 0.0
C1507 C 0.64735 0.13573 0.76591 0.0
C1508 C 0.63605 0.14709 0.75019 0.0
C1509 C 0.87598 0.64526 0.77033 0.0
C1510 C 0.87569 0.66722 0.77102 0.0
C1511 C 0.86486 0.63427 0.7548 0.0
C1512 C 0.8533 0.64488 0.7393 0.0
H1513 H 0.88422 0.63654 0.78225 0.0
H1514 H 0.8648 0.61736 0.75538 0.0
S1515 S 0.85083 0.70252 0.73239 0.0
N1516 N 0.86495 0.69917 0.75367 0.0
N1517 N 0.8446 0.67882 0.72442 0.0
C1518 C 0.85407 0.6669 0.73923 0.0
C1519 C 0.86511 0.67797 0.7551 0.0
C1520 C 0.25444 0.36488 0.13499 0.0
C1521 C 0.23928 0.3525 0.1452 0.0
C1522 C 0.2697 0.376 0.14635 0.0
C1523 C 0.27049 0.37492 0.16828 0.0
H1524 H 0.25494 0.36552 0.1181 0.0
H1525 H 0.28135 0.38491 0.13789 0.0
S1526 S 0.23271 0.34759 0.20273 0.0
N1527 N 0.22482 0.34205 0.17885 0.0
N1528 N 0.25357 0.36244 0.19985 0.0
C1529 C 0.25491 0.36345 0.17867 0.0
C1530 C 0.2393 0.3524 0.16724 0.0
C1531 C 0.251 0.64943 0.88104 0.0
C1532 C 0.2398 0.66599 0.87169 0.0
C1533 C 0.26633 0.63815 0.8699 0.0
C1534 C 0.2713 0.64319 0.84907 0.0
H1535 H 0.24812 0.64529 0.89718 0.0
H1536 H 0.27467 0.62576 0.87782 0.0
S1537 S 0.24569 0.68399 0.81666 0.0
N1538 N 0.23423 0.68583 0.83964 0.0
N1539 N 0.26283 0.66496 0.81912 0.0
C1540 C 0.25986 0.65929 0.83939 0.0
C1541 C 0.24421 0.67058 0.85056 0.0
C1542 C 0.35723 0.26487 0.84354 0.0
C1543 C 0.37524 0.27443 0.85179 0.0
C1544 C 0.34647 0.24932 0.85445 0.0
C1545 C 0.35296 0.24254 0.87435 0.0
H1546 H 0.35135 0.26928 0.82831 0.0
H1547 H 0.33268 0.24278 0.84716 0.0
S1548 S 0.39931 0.26234 0.90312 0.0
N1549 N 0.39934 0.27579 0.8811 0.0
N1550 N 0.37889 0.24661 0.90186 0.0
C1551 C 0.37103 0.25185 0.88287 0.0
C1552 C 0.38221 0.26771 0.87155 0.0
C1553 C 0.74691 0.3778 0.87277 0.0
C1554 C 0.74712 0.37858 0.85082 0.0
C1555 C 0.76248 0.36682 0.88385 0.0
C1556 C 0.77885 0.35646 0.87331 0.0
H1557 H 0.7342 0.38493 0.88136 0.0
H1558 H 0.76119 0.36575 0.90068 0.0
S1559 S 0.78823 0.35734 0.81601 0.0
N1560 N 0.76621 0.37035 0.81914 0.0
N1561 N 0.79554 0.35024 0.83968 0.0
C1562 C 0.77984 0.35845 0.8514 0.0
C1563 C 0.76397 0.36936 0.84024 0.0
C1564 C 0.64077 0.74651 0.87419 0.0
C1565 C 0.63856 0.74761 0.85237 0.0
C1566 C 0.65194 0.762 0.88518 0.0
C1567 C 0.6611 0.7791 0.87468 0.0
H1568 H 0.63466 0.73319 0.88265 0.0
H1569 H 0.65419 0.76005 0.90183 0.0
S1570 S 0.65617 0.7908 0.81807 0.0
N1571 N 0.64409 0.76823 0.82106 0.0
N1572 N 0.66461 0.79738 0.84152 0.0
C1573 C 0.65764 0.78094 0.85304 0.0
C1574 C 0.64651 0.76518 0.84194 0.0
C1575 C 0.77003 0.64545 0.14029 0.0
C1576 C 0.77088 0.66739 0.14092 0.0
C1577 C 0.75435 0.63439 0.15114 0.0
C1578 C 0.73885 0.64492 0.16278 0.0
H1579 H 0.78199 0.63678 0.13204 0.0
H1580 H 0.75483 0.61748 0.15098 0.0
S1581 S 0.73231 0.70253 0.16607 0.0
N1582 N 0.75366 0.69927 0.15201 0.0
N1583 N 0.72412 0.6788 0.17189 0.0
C1584 C 0.73891 0.66694 0.16232 0.0
C1585 C 0.75493 0.67807 0.15153 0.0
C1586 C 0.34246 0.76459 0.16266 0.0
C1587 C 0.35049 0.77346 0.14419 0.0
C1588 C 0.35333 0.74921 0.17369 0.0
C1589 C 0.37297 0.7419 0.16701 0.0
H1590 H 0.32741 0.76939 0.16872 0.0
H1591 H 0.3462 0.7432 0.18782 0.0
S1592 S 0.40124 0.7599 0.1196 0.0
N1593 N 0.37943 0.77367 0.11956 0.0
N1594 N 0.4001 0.74482 0.1405 0.0
C1595 C 0.38133 0.75059 0.14855 0.0
C1596 C 0.37006 0.76627 0.13711 0.0
C1597 C 0.67057 0.24877 0.163 0.0
C1598 C 0.66434 0.24232 0.1429 0.0
C1599 C 0.65971 0.26417 0.17399 0.0
C1600 C 0.64186 0.27391 0.16564 0.0
H1601 H 0.68424 0.24209 0.17039 0.0
H1602 H 0.66541 0.26834 0.18936 0.0
S1603 S 0.61847 0.26274 0.1138 0.0
N1604 N 0.6388 0.24693 0.11511 0.0
N1605 N 0.61818 0.27582 0.13603 0.0
C1606 C 0.63513 0.26751 0.1457 0.0
C1607 C 0.6464 0.25181 0.1343 0.0
C1608 C 0.85555 0.76639 0.67324 0.0
C1609 C 0.87474 0.77441 0.66602 0.0
C1610 C 0.84462 0.75107 0.6622 0.0
C1611 C 0.85212 0.74297 0.64318 0.0
H1612 H 0.84883 0.77181 0.68779 0.0
H1613 H 0.82992 0.74573 0.66868 0.0
S1614 S 0.90161 0.75848 0.61712 0.0
N1615 N 0.90091 0.77292 0.63848 0.0
N1616 N 0.88014 0.74417 0.61752 0.0
C1617 C 0.87127 0.75082 0.6356 0.0
C1618 C 0.88261 0.76644 0.64704 0.0
C1619 C 0.24667 0.87611 0.64659 0.0
C1620 C 0.24613 0.87565 0.66855 0.0
C1621 C 0.26207 0.86501 0.63538 0.0
C1622 C 0.27759 0.85329 0.64578 0.0
H1623 H 0.23472 0.88447 0.63802 0.0
H1624 H 0.26137 0.86509 0.61848 0.0
S1625 S 0.28489 0.85031 0.70335 0.0
N1626 N 0.26365 0.86456 0.70027 0.0
N1627 N 0.29267 0.84426 0.67954 0.0
C1628 C 0.27782 0.85389 0.66781 0.0
C1629 C 0.26208 0.8649 0.67909 0.0
C1630 C 0.16179 0.2519 0.67369 0.0
C1631 C 0.14352 0.24266 0.66567 0.0
C1632 C 0.17251 0.26751 0.6628 0.0
C1633 C 0.16569 0.27467 0.64314 0.0
H1634 H 0.16791 0.24722 0.68875 0.0
H1635 H 0.18651 0.2738 0.66991 0.0
S1636 S 0.11865 0.25572 0.61492 0.0
N1637 N 0.1189 0.24195 0.63675 0.0
N1638 N 0.13925 0.27122 0.61605 0.0
C1639 C 0.1474 0.26562 0.63481 0.0
C1640 C 0.13629 0.24971 0.6461 0.0
C1641 C 0.76599 0.16163 0.67399 0.0
C1642 C 0.77489 0.14316 0.66605 0.0
C1643 C 0.75042 0.17244 0.66316 0.0
C1644 C 0.74295 0.16552 0.64366 0.0
H1645 H 0.77089 0.16784 0.68894 0.0
H1646 H 0.74436 0.18658 0.6702 0.0
S1647 S 0.76101 0.11802 0.61566 0.0
N1648 N 0.775 0.1183 0.63733 0.0
N1649 N 0.7458 0.13881 0.61677 0.0
C1650 C 0.7517 0.14707 0.63539 0.0
C1651 C 0.76757 0.13586 0.64661 0.0
C1652 C 0.85646 0.25297 0.34357 0.0
C1653 C 0.87462 0.24368 0.35176 0.0
C1654 C 0.84553 0.26837 0.35449 0.0
C1655 C 0.852 0.27528 0.37435 0.0
H1656 H 0.85059 0.24849 0.32835 0.0
H1657 H 0.83165 0.27472 0.34721 0.0
S1658 S 0.89862 0.25605 0.40307 0.0
N1659 N 0.89876 0.24262 0.38106 0.0
N1660 N 0.878 0.27152 0.40183 0.0
C1661 C 0.87018 0.26618 0.38285 0.0
C1662 C 0.88152 0.25047 0.37153 0.0
C1663 C 0.7627 0.88477 0.36572 0.0
C1664 C 0.7784 0.87405 0.35455 0.0
C1665 C 0.74721 0.87386 0.37701 0.0
C1666 C 0.7468 0.8519 0.37729 0.0
H1667 H 0.76187 0.90165 0.36512 0.0
H1668 H 0.73505 0.88263 0.38484 0.0
S1669 S 0.78618 0.81651 0.35382 0.0
N1670 N 0.79388 0.84014 0.34696 0.0
N1671 N 0.76471 0.81992 0.36767 0.0
C1672 C 0.76301 0.84109 0.36721 0.0
C1673 C 0.77882 0.85208 0.35599 0.0
C1674 C 0.15191 0.75403 0.38326 0.0
C1675 C 0.16336 0.73826 0.37293 0.0
C1676 C 0.14089 0.76942 0.37199 0.0
C1677 C 0.14114 0.76967 0.35002 0.0
H1678 H 0.15206 0.75497 0.40015 0.0
H1679 H 0.13282 0.78162 0.38048 0.0
S1680 S 0.16561 0.73015 0.31548 0.0
N1681 N 0.17186 0.72261 0.33931 0.0
N1682 N 0.15163 0.75159 0.31841 0.0
C1683 C 0.15153 0.75343 0.33958 0.0
C1684 C 0.1625 0.73772 0.35094 0.0
C1685 C 0.25008 0.16221 0.34476 0.0
C1686 C 0.24225 0.1429 0.35186 0.0
C1687 C 0.26541 0.17313 0.35579 0.0
C1688 C 0.27371 0.16549 0.37468 0.0
H1689 H 0.24454 0.169 0.3303 0.0
H1690 H 0.27065 0.18789 0.34938 0.0
S1691 S 0.25847 0.11584 0.40055 0.0
N1692 N 0.24393 0.1166 0.37926 0.0
N1693 N 0.27272 0.13735 0.40021 0.0
C1694 C 0.26595 0.14629 0.3822 0.0
C1695 C 0.25031 0.13497 0.37076 0.0
C1696 C 0.65031 0.8824 0.76419 0.0
C1697 C 0.66611 0.87286 0.77627 0.0
C1698 C 0.6391 0.87112 0.74891 0.0
C1699 C 0.64346 0.84994 0.74488 0.0
H1700 H 0.64674 0.89879 0.76631 0.0
H1701 H 0.62728 0.87917 0.73987 0.0
S1702 S 0.68186 0.81692 0.77319 0.0
N1703 N 0.6843 0.84023 0.78383 0.0
N1704 N 0.66362 0.8195 0.75523 0.0
C1705 C 0.65876 0.84009 0.7572 0.0
C1706 C 0.66995 0.85139 0.77283 0.0
C1707 C 0.14455 0.64029 0.74644 0.0
C1708 C 0.16651 0.64022 0.74607 0.0
C1709 C 0.13353 0.65123 0.76206 0.0
C1710 C 0.14412 0.66227 0.77795 0.0
H1711 H 0.13586 0.63253 0.73418 0.0
H1712 H 0.11664 0.65165 0.76122 0.0
S1713 S 0.20162 0.66343 0.78582 0.0
N1714 N 0.19838 0.64988 0.76415 0.0
N1715 N 0.17793 0.66997 0.79358 0.0
C1716 C 0.1661 0.66107 0.77836 0.0
C1717 C 0.17721 0.65018 0.76241 0.0
C1718 C 0.34232 0.15982 0.76293 0.0
C1719 C 0.35116 0.14259 0.77334 0.0
C1720 C 0.35323 0.17072 0.74746 0.0
C1721 C 0.37371 0.16514 0.74163 0.0
H1722 H 0.32665 0.16501 0.76666 0.0
H1723 H 0.34548 0.18391 0.74026 0.0
S1724 S 0.40404 0.12087 0.76378 0.0
N1725 N 0.38155 0.12006 0.77641 0.0
N1726 N 0.40233 0.14075 0.74742 0.0
C1727 C 0.38276 0.14774 0.75172 0.0
C1728 C 0.37145 0.13643 0.76747 0.0
C1729 C 0.85773 0.34407 0.76397 0.0
C1730 C 0.87558 0.35253 0.77361 0.0
C1731 C 0.84676 0.35498 0.74859 0.0
C1732 C 0.85287 0.3751 0.74207 0.0
H1733 H 0.85214 0.32866 0.76817 0.0
H1734 H 0.83312 0.34749 0.74198 0.0
S1735 S 0.89864 0.40453 0.76229 0.0
N1736 N 0.89911 0.3823 0.7754 0.0
N1737 N 0.87825 0.40308 0.74655 0.0
C1738 C 0.87078 0.38385 0.7515 0.0
C1739 C 0.88218 0.37252 0.76717 0.0
C1740 C 0.67095 0.16426 0.24788 0.0
C1741 C 0.66506 0.14393 0.24184 0.0
C1742 C 0.66019 0.17519 0.26341 0.0
C1743 C 0.64277 0.16653 0.27368 0.0
H1744 H 0.68427 0.17192 0.24078 0.0
H1745 H 0.6656 0.19075 0.26724 0.0
S1746 S 0.62036 0.114 0.26372 0.0
N1747 N 0.6403 0.11558 0.24741 0.0
N1748 N 0.61984 0.13639 0.27651 0.0
C1749 C 0.63636 0.14636 0.26768 0.0
C1750 C 0.64754 0.13502 0.25186 0.0
C1751 C 0.87631 0.64513 0.24699 0.0
C1752 C 0.87594 0.66708 0.24621 0.0
C1753 C 0.86499 0.63412 0.26238 0.0
C1754 C 0.85314 0.64472 0.27766 0.0
H1755 H 0.88475 0.63641 0.23521 0.0
H1756 H 0.86499 0.61722 0.26185 0.0
S1757 S 0.85034 0.70235 0.28437 0.0
N1758 N 0.86481 0.69902 0.26331 0.0
N1759 N 0.84408 0.67865 0.29232 0.0
C1760 C 0.85383 0.66674 0.27769 0.0
C1761 C 0.86507 0.67782 0.26195 0.0
C1762 C 0.36645 0.88351 0.25624 0.0
C1763 C 0.35502 0.87307 0.24054 0.0
C1764 C 0.37746 0.87233 0.27172 0.0
C1765 C 0.3772 0.85036 0.27212 0.0
H1766 H 0.36625 0.9004 0.25708 0.0
H1767 H 0.38547 0.8809 0.28391 0.0
S1768 S 0.35283 0.81555 0.23278 0.0
N1769 N 0.34661 0.83934 0.22506 0.0
N1770 N 0.36676 0.81864 0.25423 0.0
C1771 C 0.36687 0.83981 0.25591 0.0
C1772 C 0.35593 0.85107 0.24011 0.0
C1773 C 0.17389 0.35664 0.26413 0.0
C1774 C 0.16533 0.3743 0.27401 0.0
C1775 C 0.16307 0.34589 0.24851 0.0
C1776 C 0.14297 0.35207 0.242 0.0
H1777 H 0.18929 0.35103 0.26833 0.0
H1778 H 0.17061 0.33238 0.2417 0.0
S1779 S 0.11337 0.39746 0.26275 0.0
N1780 N 0.13551 0.39773 0.27599 0.0
N1781 N 0.11495 0.37733 0.24671 0.0
C1782 C 0.13415 0.3698 0.25165 0.0
C1783 C 0.14536 0.38095 0.26757 0.0
C1784 C 0.76503 0.67471 0.85683 0.0
C1785 C 0.7746 0.66628 0.87474 0.0
C1786 C 0.74947 0.66392 0.84599 0.0
C1787 C 0.74266 0.64396 0.8523 0.0
H1788 H 0.76942 0.69001 0.85109 0.0
H1789 H 0.74293 0.67139 0.8323 0.0
S1790 S 0.76253 0.61467 0.8983 0.0
N1791 N 0.77598 0.6367 0.89853 0.0
N1792 N 0.74678 0.61615 0.87792 0.0
C1793 C 0.75201 0.63523 0.87025 0.0
C1794 C 0.76788 0.64643 0.88151 0.0
C1795 C 0.77022 0.3727 0.14014 0.0
C1796 C 0.77025 0.35074 0.13989 0.0
C1797 C 0.75471 0.38385 0.15112 0.0
C1798 C 0.73862 0.3734 0.16202 0.0
H1799 H 0.78268 0.38126 0.13252 0.0
H1800 H 0.75581 0.40072 0.15169 0.0
S1801 S 0.72986 0.316 0.16272 0.0
N1802 N 0.75162 0.31906 0.14925 0.0
N1803 N 0.72244 0.33975 0.1694 0.0
C1804 C 0.73787 0.35144 0.16063 0.0
C1805 C 0.75368 0.34019 0.1497 0.0
C1806 C 0.65915 0.75607 0.13345 0.0
C1807 C 0.66089 0.77643 0.1416 0.0
C1808 C 0.64855 0.74029 0.14453 0.0
C1809 C 0.63914 0.74456 0.16388 0.0
H1810 H 0.66691 0.75205 0.11896 0.0
H1811 H 0.64827 0.72458 0.13828 0.0
S1812 S 0.63693 0.79579 0.19059 0.0
N1813 N 0.65089 0.80027 0.16934 0.0
N1814 N 0.63063 0.77078 0.18985 0.0
C1815 C 0.63983 0.76504 0.17161 0.0
C1816 C 0.65081 0.78096 0.16054 0.0
C1817 C 0.26626 0.6618 0.17324 0.0
C1818 C 0.27421 0.64258 0.16609 0.0
C1819 C 0.25081 0.67263 0.16225 0.0
C1820 C 0.24254 0.66496 0.14337 0.0
H1821 H 0.27182 0.6686 0.18769 0.0
H1822 H 0.24549 0.68735 0.16865 0.0
S1823 S 0.25785 0.61534 0.11755 0.0
N1824 N 0.2725 0.61623 0.13876 0.0
N1825 N 0.24352 0.63678 0.11792 0.0
C1826 C 0.25034 0.64579 0.13587 0.0
C1827 C 0.26608 0.63458 0.14725 0.0
C1828 C 0.34349 0.25139 0.16256 0.0
C1829 C 0.35151 0.24273 0.14401 0.0
C1830 C 0.35425 0.26688 0.17355 0.0
C1831 C 0.37375 0.27449 0.16674 0.0
H1832 H 0.32855 0.24635 0.16869 0.0
H1833 H 0.34715 0.27273 0.18774 0.0
S1834 S 0.40191 0.25707 0.11908 0.0
N1835 N 0.38028 0.243 0.11917 0.0
N1836 N 0.40072 0.27206 0.14003 0.0
C1837 C 0.38209 0.266 0.14819 0.0
C1838 C 0.37094 0.25021 0.1368 0.0
C1839 C 0.26714 0.35472 0.84434 0.0
C1840 C 0.27456 0.3742 0.8514 0.0
C1841 C 0.25177 0.34365 0.85521 0.0
C1842 C 0.24306 0.3513 0.87389 0.0
H1843 H 0.27308 0.34788 0.83005 0.0
H1844 H 0.24691 0.32873 0.84891 0.0
S1845 S 0.25684 0.40155 0.89939 0.0
N1846 N 0.27183 0.40079 0.8784 0.0
N1847 N 0.243 0.37977 0.89905 0.0
C1848 C 0.2503 0.37074 0.8813 0.0
C1849 C 0.26595 0.38221 0.87002 0.0
C1850 C 0.67166 0.24871 0.85261 0.0
C1851 C 0.66551 0.2422 0.87272 0.0
C1852 C 0.66078 0.2642 0.84173 0.0
C1853 C 0.64299 0.27394 0.85023 0.0
H1854 H 0.6853 0.24205 0.84515 0.0
H1855 H 0.66642 0.26844 0.82635 0.0
S1856 S 0.61975 0.2625 0.90211 0.0
N1857 N 0.64006 0.24667 0.90064 0.0
N1858 N 0.61941 0.2757 0.87995 0.0
C1859 C 0.63632 0.26743 0.87017 0.0
C1860 C 0.6476 0.25166 0.88145 0.0
C1861 C 0.34594 0.76939 0.85468 0.0
C1862 C 0.35193 0.77539 0.87498 0.0
C1863 C 0.35666 0.75392 0.84365 0.0
C1864 C 0.37412 0.74367 0.85219 0.0
H1865 H 0.33257 0.77648 0.84712 0.0
H1866 H 0.35118 0.75011 0.82811 0.0
S1867 S 0.39679 0.75353 0.90462 0.0
N1868 N 0.37683 0.76981 0.90318 0.0
N1869 N 0.39721 0.74079 0.88219 0.0
C1870 C 0.38063 0.74962 0.87234 0.0
C1871 C 0.36949 0.76539 0.88378 0.0
C1872 C 0.08519 0.23642 0.25166 0.0
C1873 C 0.08494 0.24173 0.27296 0.0
C1874 C 0.08506 0.25181 0.23615 0.0
C1875 C 0.08464 0.27313 0.24133 0.0
H1876 H 0.08726 0.22029 0.24695 0.0
H1877 H 0.08709 0.24702 0.22005 0.0
S1878 S 0.08037 0.29518 0.29467 0.0
N1879 N 0.08142 0.26966 0.2984 0.0
N1880 N 0.08115 0.29873 0.26911 0.0
C1881 C 0.08199 0.27861 0.26244 0.0
C1882 C 0.08214 0.26284 0.27833 0.0
C1883 C 0.78113 0.0853 0.2513 0.0
C1884 C 0.77596 0.08477 0.27264 0.0
C1885 C 0.76561 0.0854 0.23593 0.0
C1886 C 0.74431 0.08498 0.24129 0.0
H1887 H 0.79722 0.08745 0.24649 0.0
H1888 H 0.77028 0.08762 0.21981 0.0
S1889 S 0.72266 0.08005 0.29475 0.0
N1890 N 0.74821 0.08098 0.29826 0.0
N1891 N 0.71891 0.08117 0.26924 0.0
C1892 C 0.73898 0.08204 0.2624 0.0
C1893 C 0.75488 0.08194 0.27814 0.0
C1894 C 0.93623 0.73787 0.26261 0.0
C1895 C 0.93539 0.743 0.24125 0.0
C1896 C 0.93613 0.75362 0.27798 0.0
C1897 C 0.93517 0.77484 0.27231 0.0
H1898 H 0.93472 0.72174 0.26751 0.0
H1899 H 0.93457 0.74911 0.29422 0.0
S1900 S 0.93765 0.79621 0.2186 0.0
N1901 N 0.93735 0.77063 0.21535 0.0
N1902 N 0.93711 0.80008 0.24409 0.0
C1903 C 0.93692 0.78003 0.25108 0.0
C1904 C 0.93705 0.76412 0.23556 0.0
C1905 C 0.26401 0.93442 0.27999 0.0
C1906 C 0.24275 0.93375 0.27443 0.0
C1907 C 0.27971 0.93433 0.26455 0.0
C1908 C 0.27446 0.93358 0.24321 0.0
H1909 H 0.26856 0.93278 0.2962 0.0
H1910 H 0.29584 0.93263 0.26935 0.0
S1911 S 0.22119 0.93646 0.22082 0.0
N1912 N 0.21742 0.936 0.24633 0.0
N1913 N 0.24676 0.93584 0.21745 0.0
C1914 C 0.25335 0.93548 0.23762 0.0
C1915 C 0.2375 0.93557 0.25323 0.0
C1916 C 0.08304 0.73762 0.75427 0.0
C1917 C 0.08406 0.74274 0.77562 0.0
C1918 C 0.08295 0.75339 0.7389 0.0
C1919 C 0.08388 0.77463 0.74456 0.0
H1920 H 0.08447 0.72149 0.74937 0.0
H1921 H 0.08433 0.74891 0.72265 0.0
S1922 S 0.08196 0.79592 0.7983 0.0
N1923 N 0.08236 0.77033 0.80154 0.0
N1924 N 0.08221 0.79981 0.77281 0.0
C1925 C 0.08238 0.77978 0.76581 0.0
C1926 C 0.08247 0.76384 0.78133 0.0
C1927 C 0.2783 0.08229 0.75556 0.0
C1928 C 0.27281 0.08409 0.77679 0.0
C1929 C 0.26282 0.08206 0.7399 0.0
C1930 C 0.24151 0.08361 0.74512 0.0
H1931 H 0.29454 0.08321 0.75091 0.0
H1932 H 0.26766 0.08286 0.72371 0.0
S1933 S 0.21917 0.0837 0.79852 0.0
N1934 N 0.2447 0.08373 0.80222 0.0
N1935 N 0.21576 0.08324 0.77296 0.0
C1936 C 0.23593 0.08285 0.76632 0.0
C1937 C 0.25157 0.08312 0.78214 0.0
C1938 C 0.93287 0.25222 0.7807 0.0
C1939 C 0.93351 0.27352 0.77538 0.0
C1940 C 0.93287 0.23673 0.76531 0.0
C1941 C 0.93345 0.2419 0.74397 0.0
H1942 H 0.93061 0.24755 0.79681 0.0
H1943 H 0.9306 0.22065 0.77011 0.0
S1944 S 0.93869 0.29519 0.72194 0.0
N1945 N 0.93757 0.29891 0.74745 0.0
N1946 N 0.93752 0.26965 0.71839 0.0
C1947 C 0.93647 0.26297 0.73849 0.0
C1948 C 0.9365 0.27884 0.75427 0.0
C1949 C 0.7392 0.93542 0.75487 0.0
C1950 C 0.7446 0.93436 0.77615 0.0
C1951 C 0.75475 0.93537 0.73928 0.0
C1952 C 0.77605 0.93425 0.74465 0.0
H1953 H 0.723 0.9341 0.75018 0.0
H1954 H 0.75003 0.93399 0.7231 0.0
S1955 S 0.79811 0.9362 0.7981 0.0
N1956 N 0.77257 0.93597 0.80169 0.0
N1957 N 0.80165 0.93586 0.77255 0.0
C1958 C 0.78151 0.93578 0.76583 0.0
C1959 C 0.7658 0.93583 0.78157 0.0
C1960 C 0.26306 0.08223 0.278 0.0
C1961 C 0.2418 0.08371 0.27257 0.0
C1962 C 0.27868 0.08231 0.26247 0.0
C1963 C 0.27339 0.08389 0.24118 0.0
H1964 H 0.26773 0.08318 0.29423 0.0
H1965 H 0.29488 0.0833 0.26725 0.0
S1966 S 0.21996 0.08326 0.219 0.0
N1967 N 0.21631 0.08307 0.24453 0.0
N1968 N 0.24552 0.08326 0.21551 0.0
C1969 C 0.2522 0.08285 0.23566 0.0
C1970 C 0.23642 0.08274 0.25134 0.0
C1971 C 0.93533 0.27946 0.26348 0.0
C1972 C 0.93434 0.27401 0.2422 0.0
C1973 C 0.9355 0.26393 0.27909 0.0
C1974 C 0.93467 0.24262 0.27375 0.0
H1975 H 0.93376 0.29565 0.26813 0.0
H1976 H 0.93404 0.26865 0.29527 0.0
S1977 S 0.93684 0.22052 0.22034 0.0
N1978 N 0.93626 0.24605 0.21671 0.0
N1979 N 0.93659 0.21701 0.24589 0.0
C1980 C 0.93628 0.23715 0.25258 0.0
C1981 C 0.9361 0.25284 0.23682 0.0
C1982 C 0.75383 0.93438 0.27882 0.0
C1983 C 0.77511 0.93333 0.27333 0.0
C1984 C 0.7382 0.93442 0.26332 0.0
C1985 C 0.74351 0.93339 0.242 0.0
H1986 H 0.74921 0.93301 0.29504 0.0
H1987 H 0.72202 0.93308 0.26809 0.0
S1988 S 0.79691 0.93515 0.21975 0.0
N1989 N 0.80057 0.93487 0.24528 0.0
N1990 N 0.77134 0.93492 0.21631 0.0
C1991 C 0.76468 0.93484 0.23647 0.0
C1992 C 0.78046 0.93482 0.25212 0.0
C1993 C 0.08515 0.76366 0.23599 0.0
C1994 C 0.08501 0.74235 0.24126 0.0
C1995 C 0.08499 0.77912 0.25142 0.0
C1996 C 0.08471 0.77387 0.27274 0.0
H1997 H 0.08713 0.76842 0.21986 0.0
H1998 H 0.08692 0.79525 0.24666 0.0
S1999 S 0.08109 0.72043 0.29471 0.0
N2000 N 0.08192 0.7168 0.26917 0.0
N2001 N 0.08168 0.74598 0.2983 0.0
C2002 C 0.08226 0.75273 0.2782 0.0
C2003 C 0.0824 0.7369 0.26239 0.0
C2004 C 0.2629 0.93548 0.74027 0.0
C2005 C 0.24157 0.9341 0.7455 0.0
C2006 C 0.27835 0.93539 0.75595 0.0
C2007 C 0.27282 0.9339 0.77719 0.0
H2008 H 0.26774 0.93442 0.7241 0.0
H2009 H 0.29459 0.93431 0.75133 0.0
S2010 S 0.21917 0.93485 0.79886 0.0
N2011 N 0.21579 0.93499 0.77329 0.0
N2012 N 0.24469 0.93475 0.80259 0.0
C2013 C 0.25158 0.93507 0.78251 0.0
C2014 C 0.23597 0.9352 0.76667 0.0
C2015 C 0.08443 0.23616 0.76492 0.0
C2016 C 0.08423 0.24143 0.7436 0.0
C2017 C 0.08458 0.25159 0.78036 0.0
C2018 C 0.08452 0.27291 0.7751 0.0
H2019 H 0.08633 0.22002 0.76967 0.0
H2020 H 0.08659 0.24682 0.79648 0.0
S2021 S 0.08042 0.29488 0.7217 0.0
N2022 N 0.08106 0.26934 0.71807 0.0
N2023 N 0.08132 0.29849 0.74724 0.0
C2024 C 0.08185 0.27838 0.75399 0.0
C2025 C 0.08171 0.26257 0.73816 0.0
C2026 C 0.73913 0.08237 0.75407 0.0
C2027 C 0.74446 0.08351 0.77537 0.0
C2028 C 0.75475 0.08227 0.73854 0.0
C2029 C 0.77603 0.0833 0.74398 0.0
H2030 H 0.72295 0.08376 0.74932 0.0
H2031 H 0.75009 0.08358 0.72233 0.0
S2032 S 0.79787 0.08157 0.79752 0.0
N2033 N 0.77231 0.08194 0.80101 0.0
N2034 N 0.80151 0.08173 0.77199 0.0
C2035 C 0.7814 0.08186 0.76519 0.0
C2036 C 0.76563 0.08197 0.78087 0.0
C2037 C 0.9356 0.73816 0.75421 0.0
C2038 C 0.93466 0.74336 0.77556 0.0
C2039 C 0.93556 0.75385 0.73878 0.0
C2040 C 0.93457 0.7751 0.74434 0.0
H2041 H 0.93413 0.72201 0.74939 0.0
H2042 H 0.93408 0.74929 0.72255 0.0
S2043 S 0.93676 0.79666 0.79797 0.0
N2044 N 0.93646 0.77108 0.80133 0.0
N2045 N 0.93635 0.80043 0.77246 0.0
C2046 C 0.9362 0.78036 0.76555 0.0
C2047 C 0.93626 0.7645 0.78115 0.0
C2048 C 0.2627 0.27765 0.08351 0.0
C2049 C 0.24143 0.27224 0.08506 0.0
C2050 C 0.2783 0.26212 0.08347 0.0
C2051 C 0.27299 0.24083 0.08497 0.0
H2052 H 0.26739 0.29388 0.08444 0.0
H2053 H 0.29451 0.26689 0.08439 0.0
S2054 S 0.21951 0.21866 0.08444 0.0
N2055 N 0.2159 0.2442 0.0844 0.0
N2056 N 0.24507 0.21518 0.08434 0.0
C2057 C 0.25178 0.23532 0.08402 0.0
C2058 C 0.23602 0.25101 0.08406 0.0
C2059 C 0.23596 0.76551 0.93273 0.0
C2060 C 0.24125 0.7442 0.93301 0.0
C2061 C 0.25138 0.781 0.93285 0.0
C2062 C 0.2727 0.77581 0.93333 0.0
H2063 H 0.21985 0.77024 0.93062 0.0
H2064 H 0.24661 0.79711 0.93081 0.0
S2065 S 0.29469 0.72245 0.93775 0.0
N2066 N 0.26916 0.71875 0.93664 0.0
N2067 N 0.29826 0.748 0.93693 0.0
C2068 C 0.27815 0.7547 0.93603 0.0
C2069 C 0.26236 0.73882 0.93587 0.0
C2070 C 0.26377 0.27811 0.93501 0.0
C2071 C 0.24249 0.27268 0.93373 0.0
C2072 C 0.27936 0.26257 0.93502 0.0
C2073 C 0.27401 0.24128 0.93375 0.0
H2074 H 0.26846 0.29433 0.93383 0.0
H2075 H 0.29556 0.26732 0.93386 0.0
S2076 S 0.22055 0.21914 0.93503 0.0
N2077 N 0.21695 0.24468 0.93492 0.0
N2078 N 0.2461 0.21564 0.9349 0.0
C2079 C 0.25282 0.23578 0.93501 0.0
C2080 C 0.23707 0.25147 0.93502 0.0
C2081 C 0.7659 0.23783 0.93097 0.0
C2082 C 0.74456 0.243 0.93159 0.0
C2083 C 0.7813 0.25333 0.9308 0.0
C2084 C 0.77599 0.27462 0.9313 0.0
H2085 H 0.77068 0.22174 0.92882 0.0
H2086 H 0.79741 0.24865 0.92854 0.0
S2087 S 0.72258 0.29632 0.9364 0.0
N2088 N 0.719 0.27077 0.93545 0.0
N2089 N 0.7481 0.30004 0.9352 0.0
C2090 C 0.75489 0.27997 0.93428 0.0
C2091 C 0.7391 0.26409 0.93442 0.0
C2092 C 0.76558 0.78176 0.9307 0.0
C2093 C 0.74431 0.77635 0.93153 0.0
C2094 C 0.78114 0.76645 0.93113 0.0
C2095 C 0.77607 0.74511 0.93233 0.0
H2096 H 0.77017 0.79783 0.928 0.0
H2097 H 0.7972 0.77127 0.92872 0.0
S2098 S 0.72288 0.72299 0.93824 0.0
N2099 N 0.71904 0.74845 0.93641 0.0
N2100 N 0.74843 0.71952 0.93712 0.0
C2101 C 0.75503 0.73962 0.9355 0.0
C2102 C 0.73908 0.75531 0.93511 0.0
C2103 C 0.75542 0.7396 0.08308 0.0
C2104 C 0.7766 0.74515 0.08523 0.0
C2105 C 0.73965 0.75494 0.08368 0.0
C2106 C 0.74471 0.77616 0.08647 0.0
H2107 H 0.75088 0.7233 0.08309 0.0
H2108 H 0.72347 0.74998 0.08404 0.0
S2109 S 0.7979 0.7989 0.08807 0.0
N2110 N 0.80181 0.77346 0.08654 0.0
N2111 N 0.7723 0.80211 0.08781 0.0
C2112 C 0.76585 0.78195 0.08619 0.0
C2113 C 0.78178 0.76647 0.0855 0.0
C2114 C 0.262 0.73836 0.08263 0.0
C2115 C 0.2407 0.74364 0.08411 0.0
C2116 C 0.27752 0.75398 0.08278 0.0
C2117 C 0.27208 0.77522 0.0844 0.0
H2118 H 0.26678 0.72216 0.08352 0.0
H2119 H 0.29375 0.74931 0.08379 0.0
S2120 S 0.2185 0.79706 0.08368 0.0
N2121 N 0.21502 0.77151 0.08345 0.0
N2122 N 0.24404 0.80071 0.08372 0.0
C2123 C 0.25085 0.78061 0.08331 0.0
C2124 C 0.23518 0.76483 0.08317 0.0
C2125 C 0.76425 0.23748 0.08276 0.0
C2126 C 0.74295 0.24283 0.08316 0.0
C2127 C 0.77977 0.25287 0.08266 0.0
C2128 C 0.77458 0.2742 0.08296 0.0
H2129 H 0.76896 0.2213 0.08437 0.0
H2130 H 0.79591 0.24804 0.08424 0.0
S2131 S 0.72118 0.29638 0.08085 0.0
N2132 N 0.71746 0.27084 0.08117 0.0
N2133 N 0.74675 0.2999 0.08101 0.0
C2134 C 0.75343 0.27976 0.08099 0.0
C2135 C 0.73754 0.26401 0.08109 0.0
C2136 C 0.58182 0.77883 0.76373 0.0
C2137 C 0.58327 0.77333 0.74248 0.0
C2138 C 0.5817 0.76335 0.77939 0.0
C2139 C 0.583 0.74203 0.77416 0.0
H2140 H 0.58297 0.79506 0.76835 0.0
H2141 H 0.58278 0.76816 0.79557 0.0
S2142 S 0.58222 0.71969 0.72081 0.0
N2143 N 0.58232 0.74521 0.71708 0.0
N2144 N 0.58213 0.71629 0.74638 0.0
C2145 C 0.58193 0.73646 0.75299 0.0
C2146 C 0.58204 0.75209 0.73716 0.0
C2147 C 0.26485 0.58455 0.73555 0.0
C2148 C 0.24354 0.58384 0.74084 0.0
C2149 C 0.28033 0.58473 0.75098 0.0
C2150 C 0.2751 0.5842 0.7723 0.0
H2151 H 0.26955 0.58676 0.71944 0.0
H2152 H 0.29641 0.58706 0.74621 0.0
S2153 S 0.22177 0.57903 0.79427 0.0
N2154 N 0.21811 0.57994 0.76875 0.0
N2155 N 0.2473 0.58025 0.79785 0.0
C2156 C 0.25403 0.58114 0.77775 0.0
C2157 C 0.23819 0.58097 0.76196 0.0
C2158 C 0.43202 0.26612 0.73638 0.0
C2159 C 0.43273 0.24484 0.74179 0.0
C2160 C 0.43208 0.28167 0.75171 0.0
C2161 C 0.43289 0.27657 0.77305 0.0
H2162 H 0.42963 0.27073 0.72027 0.0
H2163 H 0.42972 0.29772 0.74688 0.0
S2164 S 0.43846 0.22339 0.79525 0.0
N2165 N 0.43711 0.21957 0.76976 0.0
N2166 N 0.43726 0.24894 0.7987 0.0
C2167 C 0.43601 0.25554 0.77858 0.0
C2168 C 0.43592 0.2396 0.76288 0.0
C2169 C 0.73628 0.43271 0.75144 0.0
C2170 C 0.74158 0.43358 0.77273 0.0
C2171 C 0.7517 0.43249 0.73595 0.0
C2172 C 0.77303 0.43314 0.74114 0.0
H2173 H 0.72017 0.4304 0.74679 0.0
H2174 H 0.74694 0.43004 0.7199 0.0
S2175 S 0.79502 0.43866 0.79439 0.0
N2176 N 0.76949 0.43769 0.7981 0.0
N2177 N 0.79859 0.43732 0.76886 0.0
C2178 C 0.77848 0.43633 0.76218 0.0
C2179 C 0.76269 0.43654 0.77804 0.0
C2180 C 0.58224 0.23989 0.2552 0.0
C2181 C 0.58408 0.24523 0.27645 0.0
C2182 C 0.58218 0.25546 0.23963 0.0
C2183 C 0.58398 0.27673 0.24496 0.0
H2184 H 0.583 0.22367 0.25047 0.0
H2185 H 0.58289 0.25073 0.22341 0.0
S2186 S 0.58427 0.29875 0.29845 0.0
N2187 N 0.58398 0.27321 0.30202 0.0
N2188 N 0.58392 0.30231 0.27291 0.0
C2189 C 0.58329 0.28219 0.26617 0.0
C2190 C 0.58333 0.26646 0.28191 0.0
C2191 C 0.77767 0.58424 0.25339 0.0
C2192 C 0.7722 0.5853 0.27467 0.0
C2193 C 0.76215 0.58421 0.23778 0.0
C2194 C 0.74083 0.58526 0.2431 0.0
H2195 H 0.79389 0.58557 0.24874 0.0
H2196 H 0.7669 0.58551 0.22159 0.0
S2197 S 0.71864 0.58352 0.29652 0.0
N2198 N 0.74417 0.5838 0.30015 0.0
N2199 N 0.71516 0.58376 0.27097 0.0
C2200 C 0.73532 0.58384 0.26428 0.0
C2201 C 0.75099 0.58386 0.28005 0.0
C2202 C 0.43395 0.76143 0.24135 0.0
C2203 C 0.43157 0.74023 0.24676 0.0
C2204 C 0.43434 0.77703 0.25687 0.0
C2205 C 0.43239 0.7718 0.27814 0.0
H2206 H 0.43341 0.76613 0.22511 0.0
H2207 H 0.43402 0.79326 0.25207 0.0
S2208 S 0.43071 0.71837 0.30035 0.0
N2209 N 0.43095 0.71473 0.27482 0.0
N2210 N 0.4317 0.7439 0.30382 0.0
C2211 C 0.43252 0.75057 0.28368 0.0
C2212 C 0.4321 0.73481 0.268 0.0
C2213 C 0.25318 0.43504 0.23971 0.0
C2214 C 0.27449 0.43383 0.245 0.0
C2215 C 0.23767 0.435 0.25533 0.0
C2216 C 0.24312 0.43373 0.2766 0.0
H2217 H 0.24841 0.43381 0.22352 0.0
H2218 H 0.22144 0.43377 0.25068 0.0
S2219 S 0.29668 0.43519 0.29842 0.0
N2220 N 0.30016 0.4351 0.27286 0.0
N2221 N 0.27115 0.43498 0.30207 0.0
C2222 C 0.26433 0.43508 0.28197 0.0
C2223 C 0.28 0.43515 0.26619 0.0
C2224 C 0.76167 0.58427 0.77731 0.0
C2225 C 0.74041 0.58632 0.77205 0.0
C2226 C 0.7772 0.58426 0.76169 0.0
C2227 C 0.77182 0.58628 0.74046 0.0
H2228 H 0.76646 0.58479 0.79352 0.0
H2229 H 0.79345 0.58476 0.76637 0.0
S2230 S 0.71823 0.58724 0.71862 0.0
N2231 N 0.71474 0.58675 0.74417 0.0
N2232 N 0.74376 0.58669 0.71498 0.0
C2233 C 0.75056 0.58584 0.73507 0.0
C2234 C 0.73488 0.58587 0.75084 0.0
C2235 C 0.43444 0.77782 0.76329 0.0
C2236 C 0.43277 0.77263 0.74199 0.0
C2237 C 0.43426 0.76214 0.77876 0.0
C2238 C 0.43239 0.74092 0.77326 0.0
H2239 H 0.43374 0.79401 0.76813 0.0
H2240 H 0.43343 0.76676 0.79501 0.0
S2241 S 0.43249 0.71927 0.71962 0.0
N2242 N 0.43296 0.74483 0.71623 0.0
N2243 N 0.43257 0.71553 0.74514 0.0
C2244 C 0.43325 0.7356 0.75202 0.0
C2245 C 0.43345 0.75144 0.7364 0.0
C2246 C 0.2814 0.43191 0.7511 0.0
C2247 C 0.27609 0.4327 0.77239 0.0
C2248 C 0.266 0.43183 0.73561 0.0
C2249 C 0.24466 0.43252 0.74079 0.0
H2250 H 0.29751 0.42957 0.74643 0.0
H2251 H 0.27079 0.42945 0.71955 0.0
S2252 S 0.22268 0.43824 0.79404 0.0
N2253 N 0.24819 0.43705 0.79776 0.0
N2254 N 0.21911 0.43689 0.76852 0.0
C2255 C 0.23921 0.43571 0.76183 0.0
C2256 C 0.255 0.4358 0.7777 0.0
C2257 C 0.58279 0.2561 0.77698 0.0
C2258 C 0.58481 0.27732 0.77153 0.0
C2259 C 0.5828 0.24044 0.76152 0.0
C2260 C 0.58484 0.24564 0.74024 0.0
H2261 H 0.58332 0.25145 0.79324 0.0
H2262 H 0.58334 0.22424 0.76637 0.0
S2263 S 0.58562 0.29903 0.71788 0.0
N2264 N 0.58514 0.30274 0.7434 0.0
N2265 N 0.58515 0.27347 0.71448 0.0
C2266 C 0.58433 0.26684 0.73464 0.0
C2267 C 0.58432 0.28266 0.75026 0.0
C2268 C 0.75089 0.43235 0.2798 0.0
C2269 C 0.77225 0.43296 0.27472 0.0
C2270 C 0.73558 0.43214 0.26422 0.0
C2271 C 0.74101 0.43257 0.24295 0.0
H2272 H 0.74602 0.43022 0.29587 0.0
H2273 H 0.71944 0.4299 0.26884 0.0
S2274 S 0.79455 0.43768 0.2215 0.0
N2275 N 0.79797 0.43679 0.24707 0.0
N2276 N 0.76906 0.43644 0.21766 0.0
C2277 C 0.76214 0.43556 0.2377 0.0
C2278 C 0.77783 0.43576 0.25366 0.0
C2279 C 0.58749 0.75201 0.28189 0.0
C2280 C 0.5863 0.77337 0.27693 0.0
C2281 C 0.5875 0.73676 0.26625 0.0
C2282 C 0.5863 0.74224 0.24502 0.0
H2283 H 0.59009 0.74713 0.29789 0.0
H2284 H 0.59011 0.72064 0.27073 0.0
S2285 S 0.58039 0.79579 0.22388 0.0
N2286 N 0.58172 0.79913 0.24943 0.0
N2287 N 0.58172 0.77033 0.21993 0.0
C2288 C 0.58303 0.76335 0.23993 0.0
C2289 C 0.58303 0.77898 0.25594 0.0
C2290 C 0.28012 0.5834 0.26576 0.0
C2291 C 0.27488 0.5834 0.24444 0.0
C2292 C 0.26465 0.58326 0.2812 0.0
C2293 C 0.24333 0.58315 0.27592 0.0
H2294 H 0.29625 0.58531 0.27054 0.0
H2295 H 0.26939 0.58508 0.29734 0.0
S2296 S 0.22147 0.5798 0.22244 0.0
N2297 N 0.24703 0.58053 0.21885 0.0
N2298 N 0.21782 0.58032 0.24799 0.0
C2299 C 0.23791 0.58078 0.25477 0.0
C2300 C 0.25376 0.5809 0.23896 0.0
C2301 C 0.43226 0.26555 0.28244 0.0
C2302 C 0.43304 0.24425 0.27716 0.0
C2303 C 0.43215 0.28102 0.26701 0.0
C2304 C 0.43278 0.2758 0.24569 0.0
H2305 H 0.42993 0.27023 0.29853 0.0
H2306 H 0.42972 0.29708 0.27175 0.0
S2307 S 0.4385 0.22254 0.22379 0.0
N2308 N 0.43737 0.21886 0.24932 0.0
N2309 N 0.43713 0.24806 0.22018 0.0
C2310 C 0.436 0.25477 0.24027 0.0
C2311 C 0.43613 0.23892 0.25608 0.0
C2312 C 0.75196 0.73712 0.58493 0.0
C2313 C 0.77326 0.74245 0.5844 0.0
C2314 C 0.73647 0.75252 0.58508 0.0
C2315 C 0.74166 0.77386 0.58472 0.0
H2316 H 0.74727 0.72099 0.58702 0.0
H2317 H 0.72038 0.74771 0.58728 0.0
S2318 S 0.79497 0.79592 0.57976 0.0
N2319 N 0.79868 0.7704 0.58064 0.0
N2320 N 0.76943 0.79947 0.58094 0.0
C2321 C 0.76274 0.77935 0.58178 0.0
C2322 C 0.77861 0.76358 0.58162 0.0
C2323 C 0.75221 0.28032 0.43382 0.0
C2324 C 0.77357 0.27523 0.43379 0.0
C2325 C 0.73688 0.26475 0.43383 0.0
C2326 C 0.74231 0.24347 0.43381 0.0
H2327 H 0.74732 0.29642 0.43197 0.0
H2328 H 0.72071 0.26938 0.43201 0.0
S2329 S 0.79593 0.22197 0.43729 0.0
N2330 N 0.79935 0.24755 0.43665 0.0
N2331 N 0.77041 0.21814 0.43666 0.0
C2332 C 0.76349 0.23818 0.43623 0.0
C2333 C 0.77919 0.25414 0.43623 0.0
C2334 C 0.75231 0.73864 0.43366 0.0
C2335 C 0.77365 0.74384 0.43325 0.0
C2336 C 0.73691 0.75413 0.43407 0.0
C2337 C 0.74225 0.77543 0.43409 0.0
H2338 H 0.74745 0.72252 0.43186 0.0
H2339 H 0.72072 0.74943 0.43253 0.0
S2340 S 0.79585 0.79721 0.4363 0.0
N2341 N 0.79937 0.77165 0.43556 0.0
N2342 N 0.77031 0.8009 0.4363 0.0
C2343 C 0.76347 0.78082 0.43602 0.0
C2344 C 0.77923 0.76495 0.43561 0.0
C2345 C 0.26518 0.73594 0.43246 0.0
C2346 C 0.24388 0.74129 0.43289 0.0
C2347 C 0.28072 0.75131 0.43276 0.0
C2348 C 0.27558 0.77264 0.43351 0.0
H2349 H 0.26986 0.71984 0.43014 0.0
H2350 H 0.29681 0.74652 0.43061 0.0
S2351 S 0.22228 0.79469 0.43836 0.0
N2352 N 0.21851 0.76919 0.43694 0.0
N2353 N 0.24784 0.79821 0.43751 0.0
C2354 C 0.25448 0.77811 0.43634 0.0
C2355 C 0.23857 0.76236 0.43602 0.0
C2356 C 0.25508 0.23942 0.4351 0.0
C2357 C 0.27634 0.24474 0.43317 0.0
C2358 C 0.23951 0.25498 0.43504 0.0
C2359 C 0.24485 0.27623 0.43305 0.0
H2360 H 0.25033 0.22319 0.43451 0.0
H2361 H 0.22328 0.25023 0.43441 0.0
S2362 S 0.29839 0.29826 0.43252 0.0
N2363 N 0.30194 0.27272 0.43299 0.0
N2364 N 0.27284 0.30182 0.43289 0.0
C2365 C 0.26609 0.2817 0.43366 0.0
C2366 C 0.28181 0.26598 0.43372 0.0
C2367 C 0.26512 0.27997 0.58408 0.0
C2368 C 0.24379 0.27476 0.58391 0.0
C2369 C 0.28052 0.26449 0.58437 0.0
C2370 C 0.2752 0.24319 0.58449 0.0
H2371 H 0.26992 0.29611 0.58582 0.0
H2372 H 0.29666 0.26924 0.5863 0.0
S2373 S 0.22173 0.22133 0.58062 0.0
N2374 N 0.21817 0.24689 0.58102 0.0
N2375 N 0.24727 0.21766 0.58155 0.0
C2376 C 0.25407 0.23775 0.5819 0.0
C2377 C 0.23829 0.25361 0.58161 0.0
C2378 C 0.75139 0.28126 0.58618 0.0
C2379 C 0.77271 0.27611 0.58511 0.0
C2380 C 0.73598 0.26576 0.58616 0.0
C2381 C 0.74127 0.24448 0.58509 0.0
H2382 H 0.74665 0.2973 0.58879 0.0
H2383 H 0.71991 0.27041 0.58875 0.0
S2384 S 0.7946 0.22294 0.57854 0.0
N2385 N 0.79819 0.24845 0.58009 0.0
N2386 N 0.76911 0.21918 0.58008 0.0
C2387 C 0.76232 0.23922 0.58163 0.0
C2388 C 0.77811 0.2551 0.58163 0.0
C2389 C 0.255 0.77746 0.58437 0.0
C2390 C 0.27625 0.77214 0.58635 0.0
C2391 C 0.23946 0.76186 0.58402 0.0
C2392 C 0.24481 0.74058 0.58564 0.0
H2393 H 0.25024 0.79367 0.58516 0.0
H2394 H 0.22321 0.76655 0.58459 0.0
S2395 S 0.29836 0.71867 0.58626 0.0
N2396 N 0.30188 0.74422 0.58627 0.0
N2397 N 0.27283 0.71506 0.58561 0.0
C2398 C 0.26605 0.73517 0.58514 0.0
C2399 C 0.28176 0.75093 0.5855 0.0
C2400 C 0.02004 0.18707 0.32639 0.0
C2401 C 0.03172 0.20171 0.33793 0.0
C2402 C 0.99812 0.18715 0.32657 0.0
C2403 C 0.98674 0.20187 0.3383 0.0
H2404 H 0.02786 0.1756 0.31674 0.0
H2405 H 0.99005 0.17574 0.31704 0.0
S2406 S 0.00966 0.24299 0.37217 0.0
N2407 N 0.03013 0.23091 0.36216 0.0
N2408 N 0.98895 0.23105 0.36251 0.0
C2409 C 0.99817 0.21625 0.35043 0.0
C2410 C 0.0206 0.21617 0.35024 0.0
C2411 C 0.8031 0.99795 0.34656 0.0
C2412 C 0.81857 0.98652 0.33585 0.0
C2413 C 0.80309 0.01998 0.34663 0.0
C2414 C 0.81857 0.03151 0.33601 0.0
H2415 H 0.79053 0.98985 0.35449 0.0
H2416 H 0.79051 0.028 0.35461 0.0
S2417 S 0.86376 0.00915 0.30724 0.0
N2418 N 0.85063 0.98858 0.31555 0.0
N2419 N 0.85064 0.02964 0.31569 0.0
C2420 C 0.83456 0.02024 0.32593 0.0
C2421 C 0.83456 0.99789 0.32585 0.0
C2422 C 0.9981 0.80158 0.34657 0.0
C2423 C 0.9868 0.81738 0.33621 0.0
C2424 C 0.02013 0.8014 0.34661 0.0
C2425 C 0.03178 0.817 0.33629 0.0
H2426 H 0.98991 0.7889 0.3542 0.0
H2427 H 0.02806 0.78858 0.35428 0.0
S2428 S 0.00977 0.86304 0.30864 0.0
N2429 N 0.9891 0.8499 0.31667 0.0
N2430 N 0.03016 0.84954 0.31674 0.0
C2431 C 0.02064 0.83333 0.32662 0.0
C2432 C 0.99828 0.83352 0.32658 0.0
C2433 C 0.2155 0.01937 0.34724 0.0
C2434 C 0.19972 0.03078 0.33696 0.0
C2435 C 0.2154 0.99734 0.34751 0.0
C2436 C 0.19951 0.98582 0.33751 0.0
H2437 H 0.22838 0.02747 0.35462 0.0
H2438 H 0.22822 0.98931 0.35506 0.0
S2439 S 0.15337 1.00816 0.31033 0.0
N2440 N 0.1669 0.02873 0.31793 0.0
N2441 N 0.16672 0.98768 0.31844 0.0
C2442 C 0.1832 0.99708 0.32796 0.0
C2443 C 0.1833 0.01943 0.32768 0.0
C2444 C 0.0201 0.80175 0.67059 0.0
C2445 C 0.03158 0.81763 0.68064 0.0
C2446 C 0.99807 0.80181 0.67051 0.0
C2447 C 0.98661 0.81775 0.68047 0.0
H2448 H 0.02816 0.78882 0.66327 0.0
H2449 H 0.98999 0.78891 0.66314 0.0
S2450 S 0.00913 0.86417 0.70705 0.0
N2451 N 0.02965 0.85061 0.69939 0.0
N2452 N 0.98859 0.85072 0.69923 0.0
C2453 C 0.99793 0.83416 0.68978 0.0
C2454 C 0.02029 0.8341 0.68986 0.0
C2455 C 0.18713 0.01945 0.6923 0.0
C2456 C 0.20143 0.03094 0.68013 0.0
C2457 C 0.1871 0.99751 0.69235 0.0
C2458 C 0.20137 0.98595 0.68023 0.0
H2459 H 0.17606 0.02744 0.70229 0.0
H2460 H 0.17602 0.98957 0.70239 0.0
S2461 S 0.24132 1.00835 0.64456 0.0
N2462 N 0.2297 0.02896 0.65481 0.0
N2463 N 0.22965 0.9878 0.65491 0.0
C2464 C 0.21536 0.9972 0.66747 0.0
C2465 C 0.21539 0.01962 0.66741 0.0
C2466 C 0.99806 0.18638 0.6909 0.0
C2467 C 0.98655 0.20106 0.67924 0.0
C2468 C 0.01999 0.18627 0.69079 0.0
C2469 C 0.03155 0.20084 0.67901 0.0
H2470 H 0.99009 0.17503 0.70061 0.0
H2471 H 0.02792 0.17485 0.70043 0.0
S2472 S 0.00912 0.24197 0.6448 0.0
N2473 N 0.98851 0.23011 0.65482 0.0
N2474 N 0.02968 0.2299 0.65461 0.0
C2475 C 0.02029 0.21525 0.66676 0.0
C2476 C 0.99786 0.21536 0.66687 0.0
C2477 C 0.8312 0.01952 0.691 0.0
C2478 C 0.81658 0.03101 0.67924 0.0
C2479 C 0.83119 0.9976 0.69109 0.0
C2480 C 0.81656 0.98603 0.67943 0.0
H2481 H 0.84258 0.02751 0.70064 0.0
H2482 H 0.84256 0.98968 0.7008 0.0
S2483 S 0.77559 1.0084 0.64499 0.0
N2484 N 0.78755 0.02902 0.65482 0.0
N2485 N 0.78753 0.98785 0.655 0.0
C2486 C 0.80223 0.99726 0.66706 0.0
C2487 C 0.80224 0.01969 0.66697 0.0
C2488 C 0.34793 0.9974 0.21586 0.0
C2489 C 0.33769 0.98588 0.20015 0.0
C2490 C 0.34791 0.01943 0.21579 0.0
C2491 C 0.33767 0.03085 0.19999 0.0
H2492 H 0.35551 0.98937 0.22868 0.0
H2493 H 0.3555 0.02753 0.22855 0.0
S2494 S 0.31035 1.0082 0.15407 0.0
N2495 N 0.31834 0.98772 0.16751 0.0
N2496 N 0.31832 0.02877 0.16737 0.0
C2497 C 0.32811 0.01948 0.18375 0.0
C2498 C 0.32812 0.99713 0.18384 0.0
C2499 C 0.99756 0.34755 0.21533 0.0
C2500 C 0.986 0.33771 0.1994 0.0
C2501 C 0.01959 0.34735 0.21532 0.0
C2502 C 0.03097 0.3373 0.19936 0.0
H2503 H 0.98957 0.35493 0.22828 0.0
H2504 H 0.02773 0.35461 0.22824 0.0
S2505 S 1.00822 0.31113 0.15283 0.0
N2506 N 0.98776 0.31902 0.16638 0.0
N2507 N 0.02883 0.31865 0.16634 0.0
C2508 C 0.01957 0.32818 0.1829 0.0
C2509 C 0.99722 0.32838 0.18292 0.0
C2510 C 0.66999 0.99835 0.21551 0.0
C2511 C 0.68024 0.98678 0.19984 0.0
C2512 C 0.67005 0.02039 0.21538 0.0
C2513 C 0.68036 0.03176 0.19958 0.0
H2514 H 0.66234 0.99037 0.22832 0.0
H2515 H 0.66244 0.02854 0.2281 0.0
S2516 S 0.70783 0.00897 0.1538 0.0
N2517 N 0.69974 0.98853 0.16726 0.0
N2518 N 0.69985 0.02958 0.16702 0.0
C2519 C 0.68997 0.02034 0.1834 0.0
C2520 C 0.68991 0.99799 0.18353 0.0
C2521 C 0.01987 0.68921 0.18655 0.0
C2522 C 0.03143 0.67761 0.20124 0.0
C2523 C 0.99793 0.68913 0.18655 0.0
C2524 C 0.98643 0.67745 0.20124 0.0
H2525 H 0.02779 0.69884 0.17511 0.0
H2526 H 0.98995 0.69872 0.17513 0.0
S2527 S 0.00903 0.6434 0.24242 0.0
N2528 N 0.02959 0.65333 0.23041 0.0
N2529 N 0.98841 0.65318 0.23042 0.0
C2530 C 0.99775 0.66525 0.21566 0.0
C2531 C 0.02018 0.66533 0.21566 0.0
C2532 C 0.3471 0.99788 0.80251 0.0
C2533 C 0.33715 0.98647 0.81851 0.0
C2534 C 0.34711 0.01991 0.8024 0.0
C2535 C 0.33716 0.03145 0.81829 0.0
H2536 H 0.35446 0.98977 0.78962 0.0
H2537 H 0.35447 0.02791 0.78944 0.0
S2538 S 0.31062 0.00915 0.86488 0.0
N2539 N 0.31836 0.98856 0.85148 0.0
N2540 N 0.31837 0.02962 0.85128 0.0
C2541 C 0.32787 0.0202 0.8348 0.0
C2542 C 0.32787 0.99785 0.83491 0.0
C2543 C 0.0209 0.3471 0.80122 0.0
C2544 C 0.03225 0.33721 0.81728 0.0
C2545 C 0.99886 0.34719 0.80113 0.0
C2546 C 0.98728 0.3374 0.81711 0.0
H2547 H 0.02905 0.3543 0.78826 0.0
H2548 H 0.99089 0.35448 0.78812 0.0
S2549 S 0.00945 0.31121 0.86392 0.0
N2550 N 0.03007 0.31874 0.85041 0.0
N2551 N 0.98901 0.31892 0.85027 0.0
C2552 C 0.99847 0.32822 0.83368 0.0
C2553 C 0.02083 0.32812 0.83376 0.0
C2554 C 0.67027 0.02021 0.8006 0.0
C2555 C 0.67961 0.03161 0.81696 0.0
C2556 C 0.67022 0.99817 0.80053 0.0
C2557 C 0.6795 0.98665 0.81683 0.0
H2558 H 0.66353 0.02834 0.78739 0.0
H2559 H 0.66344 0.99014 0.78728 0.0
S2560 S 0.7039 0.00896 0.86454 0.0
N2561 N 0.69684 0.02953 0.85073 0.0
N2562 N 0.69673 0.98849 0.85065 0.0
C2563 C 0.68804 0.9979 0.83371 0.0
C2564 C 0.6881 0.02024 0.83377 0.0
C2565 C 0.99746 0.69029 0.8304 0.0
C2566 C 0.98601 0.67819 0.81604 0.0
C2567 C 0.01939 0.69037 0.83043 0.0
C2568 C 0.03098 0.67834 0.81611 0.0
H2569 H 0.98945 0.7002 0.84151 0.0
H2570 H 0.02728 0.70033 0.84158 0.0
S2571 S 1.00869 0.64291 0.77598 0.0
N2572 N 0.98805 0.65306 0.78763 0.0
N2573 N 0.02922 0.6532 0.78771 0.0
C2574 C 0.01978 0.66564 0.80206 0.0
C2575 C 0.99735 0.66557 0.80202 0.0
C2576 C 0.18756 0.32538 0.01966 0.0
C2577 C 0.20222 0.33704 0.03121 0.0
C2578 C 0.18753 0.32546 0.99774 0.0
C2579 C 0.20215 0.33722 0.98623 0.0
H2580 H 0.17615 0.31571 0.02759 0.0
H2581 H 0.17612 0.31585 0.98978 0.0
S2582 S 0.24328 0.37138 0.00876 0.0
N2583 N 0.23132 0.3614 0.02934 0.0
N2584 N 0.23127 0.36156 0.98816 0.0
C2585 C 0.21656 0.34945 0.99752 0.0
C2586 C 0.2166 0.34935 0.01995 0.0
C2587 C 0.18682 0.68976 0.9975 0.0
C2588 C 0.20186 0.67867 0.98589 0.0
C2589 C 0.18682 0.68963 0.01942 0.0
C2590 C 0.20187 0.67841 0.03087 0.0
H2591 H 0.17506 0.69903 0.98963 0.0
H2592 H 0.17508 0.69881 0.02742 0.0
S2593 S 0.24416 0.64584 1.00816 0.0
N2594 N 0.23182 0.6554 0.98763 0.0
N2595 N 0.23184 0.65515 0.02881 0.0
C2596 C 0.21668 0.66672 0.01951 0.0
C2597 C 0.21667 0.66685 0.99708 0.0
C2598 C 0.32668 0.18682 0.02012 0.0
C2599 C 0.33831 0.20149 0.03167 0.0
C2600 C 0.32682 0.18677 0.99818 0.0
C2601 C 0.3386 0.20139 0.98668 0.0
H2602 H 0.31699 0.17543 0.02805 0.0
H2603 H 0.31723 0.17535 0.9902 0.0
S2604 S 0.37273 0.24252 0.00926 0.0
N2605 N 0.36268 0.23059 0.02982 0.0
N2606 N 0.36295 0.23049 0.98866 0.0
C2607 C 0.3508 0.2158 0.998 0.0
C2608 C 0.35065 0.21586 0.02042 0.0
C2609 C 0.80297 0.34804 0.99729 0.0
C2610 C 0.81845 0.3373 0.9859 0.0
C2611 C 0.80289 0.34809 0.01931 0.0
C2612 C 0.81828 0.33742 0.03088 0.0
H2613 H 0.79048 0.35603 0.98917 0.0
H2614 H 0.79031 0.3561 0.0273 0.0
S2615 S 0.86342 0.30849 0.00863 0.0
N2616 N 0.85041 0.31686 0.98803 0.0
N2617 N 0.85025 0.31697 0.02909 0.0
C2618 C 0.83428 0.32728 0.01966 0.0
C2619 C 0.83436 0.32722 0.9973 0.0
C2620 C 0.67125 0.80375 0.01995 0.0
C2621 C 0.68272 0.81859 0.03147 0.0
C2622 C 0.67119 0.80386 0.99796 0.0
C2623 C 0.68261 0.81881 0.98652 0.0
H2624 H 0.66256 0.79163 0.02796 0.0
H2625 H 0.66248 0.79182 0.98989 0.0
S2626 S 0.71406 0.86206 0.00911 0.0
N2627 N 0.70495 0.84937 0.02961 0.0
N2628 N 0.70485 0.84958 0.98855 0.0
C2629 C 0.69364 0.83412 0.99786 0.0
C2630 C 0.69369 0.83401 0.02022 0.0
C2631 C 0.80241 0.67084 0.01994 0.0
C2632 C 0.81801 0.68126 0.03147 0.0
C2633 C 0.80242 0.67091 0.99791 0.0
C2634 C 0.81804 0.68142 0.98646 0.0
H2635 H 0.78974 0.66298 0.02796 0.0
H2636 H 0.78977 0.66312 0.98982 0.0
S2637 S 0.8635 0.70958 0.00908 0.0
N2638 N 0.85027 0.70126 0.02957 0.0
N2639 N 0.8503 0.70141 0.98852 0.0
C2640 C 0.83413 0.69126 0.99782 0.0
C2641 C 0.83411 0.69118 0.02019 0.0
C2642 C 0.34637 0.80115 0.02069 0.0
C2643 C 0.33655 0.81711 0.03224 0.0
C2644 C 0.3464 0.80129 0.99866 0.0
C2645 C 0.33662 0.81739 0.98726 0.0
H2646 H 0.35356 0.7881 0.02869 0.0
H2647 H 0.35363 0.78834 0.99053 0.0
S2648 S 0.31062 0.86403 0.00998 0.0
N2649 N 0.31817 0.85031 0.03044 0.0
N2650 N 0.31823 0.85056 0.98939 0.0
C2651 C 0.32751 0.83387 0.99866 0.0
C2652 C 0.32748 0.83372 0.02101 0.0
C2653 C 0.69138 0.18747 0.99695 0.0
C2654 C 0.67979 0.20212 0.98534 0.0
C2655 C 0.69107 0.18735 0.01888 0.0
C2656 C 0.67915 0.20187 0.03032 0.0
H2657 H 0.70117 0.17615 0.98908 0.0
H2658 H 0.70064 0.17594 0.0269 0.0
S2659 S 0.64511 0.24296 1.00757 0.0
N2660 N 0.65533 0.23113 0.98706 0.0
N2661 N 0.65475 0.2309 0.02823 0.0
C2662 C 0.66699 0.21627 0.01895 0.0
C2663 C 0.66731 0.2164 0.99652 0.0
C2664 C 0.49651 0.71446 0.8481 0.0
C2665 C 0.48514 0.69914 0.83713 0.0
C2666 C 0.51852 0.71456 0.8482 0.0
C2667 C 0.53012 0.69933 0.83734 0.0
H2668 H 0.48837 0.72684 0.85626 0.0
H2669 H 0.52647 0.727 0.85644 0.0
S2670 S 0.50797 0.6547 0.80759 0.0
N2671 N 0.48734 0.66753 0.81616 0.0
N2672 N 0.52841 0.66772 0.81634 0.0
C2673 C 0.51894 0.6835 0.82692 0.0
C2674 C 0.49657 0.68339 0.82683 0.0
C2675 C 0.30002 0.51978 0.84661 0.0
C2676 C 0.31621 0.53145 0.83729 0.0
C2677 C 0.30023 0.49775 0.84653 0.0
C2678 C 0.31664 0.48648 0.8371 0.0
H2679 H 0.28676 0.52768 0.85351 0.0
H2680 H 0.28713 0.48952 0.85337 0.0
S2681 S 0.36388 0.50953 0.81243 0.0
N2682 N 0.3499 0.52989 0.81975 0.0
N2683 N 0.35027 0.48884 0.81957 0.0
C2684 C 0.3333 0.49799 0.82848 0.0
C2685 C 0.3331 0.52034 0.82858 0.0
C2686 C 0.52016 0.30241 0.84631 0.0
C2687 C 0.53164 0.31828 0.8362 0.0
C2688 C 0.49814 0.30249 0.84648 0.0
C2689 C 0.48664 0.31843 0.83656 0.0
H2690 H 0.52823 0.2895 0.85368 0.0
H2691 H 0.49008 0.28963 0.85397 0.0
S2692 S 0.50912 0.36469 0.80959 0.0
N2693 N 0.52966 0.35116 0.81725 0.0
N2694 N 0.48859 0.35129 0.81757 0.0
C2695 C 0.49795 0.33479 0.82709 0.0
C2696 C 0.52031 0.33471 0.82692 0.0
C2697 C 0.71475 0.49885 0.84669 0.0
C2698 C 0.69936 0.4873 0.83598 0.0
C2699 C 0.71473 0.52086 0.84661 0.0
C2700 C 0.69932 0.53229 0.83583 0.0
H2701 H 0.72725 0.49085 0.8548 0.0
H2702 H 0.72721 0.52895 0.85467 0.0
S2703 S 0.65451 0.50963 0.8067 0.0
N2704 N 0.66755 0.48915 0.8153 0.0
N2705 N 0.66751 0.53021 0.81515 0.0
C2706 C 0.68345 0.52092 0.82565 0.0
C2707 C 0.68347 0.49855 0.82572 0.0
C2708 C 0.49682 0.30203 0.17122 0.0
C2709 C 0.48544 0.31791 0.18136 0.0
C2710 C 0.51885 0.302 0.17106 0.0
C2711 C 0.53042 0.31785 0.18103 0.0
H2712 H 0.48869 0.28917 0.16383 0.0
H2713 H 0.52684 0.28913 0.16355 0.0
S2714 S 0.50819 0.36415 0.20805 0.0
N2715 N 0.48758 0.35073 0.20036 0.0
N2716 N 0.52865 0.35068 0.20006 0.0
C2717 C 0.5192 0.33424 0.19051 0.0
C2718 C 0.49684 0.33426 0.19068 0.0
C2719 C 0.68631 0.4981 0.19093 0.0
C2720 C 0.70075 0.4866 0.17896 0.0
C2721 C 0.68629 0.52003 0.19094 0.0
C2722 C 0.70071 0.53159 0.17899 0.0
H2723 H 0.67506 0.49011 0.20074 0.0
H2724 H 0.67503 0.52795 0.20077 0.0
S2725 S 0.74126 0.5092 0.14406 0.0
N2726 N 0.72946 0.48859 0.15414 0.0
N2727 N 0.72942 0.52976 0.15417 0.0
C2728 C 0.71492 0.52035 0.16649 0.0
C2729 C 0.71494 0.49792 0.16647 0.0
C2730 C 0.51865 0.68698 0.19451 0.0
C2731 C 0.53008 0.70119 0.18219 0.0
C2732 C 0.4967 0.68687 0.19453 0.0
C2733 C 0.48511 0.70097 0.18223 0.0
H2734 H 0.5267 0.67602 0.20457 0.0
H2735 H 0.48878 0.67583 0.20462 0.0
S2736 S 0.50736 0.74074 0.1463 0.0
N2737 N 0.528 0.72928 0.15667 0.0
N2738 N 0.48686 0.72907 0.15673 0.0
C2739 C 0.49631 0.71493 0.16941 0.0
C2740 C 0.51871 0.71504 0.16939 0.0
C2741 C 0.32972 0.49692 0.19161 0.0
C2742 C 0.31508 0.48548 0.17982 0.0
C2743 C 0.32986 0.51885 0.1916 0.0
C2744 C 0.31535 0.53045 0.17981 0.0
H2745 H 0.34099 0.4889 0.20134 0.0
H2746 H 0.34122 0.52674 0.20132 0.0
S2747 S 0.27442 0.5082 0.14525 0.0
N2748 N 0.2862 0.48755 0.15524 0.0
N2749 N 0.28644 0.52871 0.15523 0.0
C2750 C 0.30101 0.51925 0.16742 0.0
C2751 C 0.30087 0.49684 0.16743 0.0
C2752 C 0.84611 0.52057 0.71515 0.0
C2753 C 0.83573 0.53198 0.69944 0.0
C2754 C 0.84635 0.49854 0.71509 0.0
C2755 C 0.83622 0.487 0.69932 0.0
H2756 H 0.85368 0.52868 0.72792 0.0
H2757 H 0.85407 0.49053 0.72783 0.0
S2758 S 0.80842 0.50933 0.65352 0.0
N2759 N 0.81624 0.5299 0.6669 0.0
N2760 N 0.81669 0.48885 0.66679 0.0
C2761 C 0.82645 0.49826 0.68313 0.0
C2762 C 0.8262 0.52061 0.68319 0.0
C2763 C 0.51979 0.82674 0.68796 0.0
C2764 C 0.53126 0.83844 0.70264 0.0
C2765 C 0.49786 0.82654 0.68801 0.0
C2766 C 0.48627 0.83803 0.70275 0.0
H2767 H 0.52779 0.81724 0.67648 0.0
H2768 H 0.48996 0.81691 0.67657 0.0
S2769 S 0.50857 0.87223 0.74396 0.0
N2770 N 0.52922 0.86258 0.73188 0.0
N2771 N 0.48804 0.86223 0.73197 0.0
C2772 C 0.49748 0.85032 0.71717 0.0
C2773 C 0.51991 0.85052 0.71712 0.0
C2774 C 0.19094 0.5192 0.68605 0.0
C2775 C 0.17898 0.53054 0.70062 0.0
C2776 C 0.1912 0.49727 0.68602 0.0
C2777 C 0.17951 0.48557 0.70055 0.0
H2778 H 0.20059 0.52731 0.67475 0.0
H2779 H 0.20103 0.48946 0.67469 0.0
S2780 S 0.14462 0.50752 0.74136 0.0
N2781 N 0.15438 0.52825 0.72951 0.0
N2782 N 0.15488 0.4871 0.72944 0.0
C2783 C 0.16698 0.49666 0.71485 0.0
C2784 C 0.16672 0.51907 0.71489 0.0
C2785 C 0.49791 0.19199 0.687 0.0
C2786 C 0.48638 0.18034 0.7017 0.0
C2787 C 0.51984 0.19197 0.68696 0.0
C2788 C 0.53136 0.18031 0.70163 0.0
H2789 H 0.48996 0.20159 0.67556 0.0
H2790 H 0.5278 0.20156 0.67551 0.0
S2791 S 0.50886 0.14624 0.74289 0.0
N2792 N 0.48827 0.1561 0.7309 0.0
N2793 N 0.52945 0.15607 0.73084 0.0
C2794 C 0.52008 0.16811 0.71609 0.0
C2795 C 0.49765 0.16812 0.71612 0.0
C2796 C 0.84576 0.49831 0.30171 0.0
C2797 C 0.83538 0.48678 0.31736 0.0
C2798 C 0.84568 0.52035 0.3017 0.0
C2799 C 0.83519 0.53177 0.31733 0.0
H2800 H 0.85356 0.49028 0.28903 0.0
H2801 H 0.85341 0.52845 0.28902 0.0
S2802 S 0.8073 0.50915 0.36297 0.0
N2803 N 0.81555 0.48866 0.34973 0.0
N2804 N 0.81539 0.52971 0.3497 0.0
C2805 C 0.82544 0.52041 0.33347 0.0
C2806 C 0.82553 0.49806 0.33349 0.0
C2807 C 0.51981 0.84686 0.30417 0.0
C2808 C 0.53136 0.83588 0.31936 0.0
C2809 C 0.4978 0.84671 0.30416 0.0
C2810 C 0.48635 0.83558 0.31934 0.0
H2811 H 0.52781 0.85527 0.29186 0.0
H2812 H 0.48972 0.85503 0.29185 0.0
S2813 S 0.50899 0.80548 0.36351 0.0
N2814 N 0.52949 0.81445 0.3507 0.0
N2815 N 0.48841 0.81418 0.35068 0.0
C2816 C 0.49771 0.82508 0.335 0.0
C2817 C 0.52009 0.82523 0.33501 0.0
C2818 C 0.18983 0.49736 0.33136 0.0
C2819 C 0.17804 0.48586 0.31677 0.0
C2820 C 0.18991 0.51929 0.33132 0.0
C2821 C 0.17819 0.53084 0.31671 0.0
H2822 H 0.19951 0.48939 0.3427 0.0
H2823 H 0.19964 0.52723 0.34265 0.0
S2824 S 0.14363 0.50841 0.27588 0.0
N2825 N 0.15353 0.48782 0.28783 0.0
N2826 N 0.15367 0.52897 0.28777 0.0
C2827 C 0.16579 0.51958 0.30242 0.0
C2828 C 0.16572 0.49716 0.30245 0.0
C2829 C 0.52004 0.17052 0.30248 0.0
C2830 C 0.53153 0.18071 0.31825 0.0
C2831 C 0.49801 0.17035 0.30263 0.0
C2832 C 0.48655 0.18036 0.31854 0.0
H2833 H 0.52808 0.16309 0.28959 0.0
H2834 H 0.48993 0.1628 0.28983 0.0
S2835 S 0.50912 0.20753 0.36458 0.0
N2836 N 0.52963 0.19981 0.35102 0.0
N2837 N 0.48856 0.19949 0.35129 0.0
C2838 C 0.49789 0.18989 0.33481 0.0
C2839 C 0.52025 0.19007 0.33466 0.0
C2840 C 0.68677 0.82778 0.49862 0.0
C2841 C 0.7014 0.8397 0.4873 0.0
C2842 C 0.68668 0.8275 0.52056 0.0
C2843 C 0.70122 0.83914 0.53228 0.0
H2844 H 0.67547 0.81816 0.49051 0.0
H2845 H 0.67531 0.81769 0.52836 0.0
S2846 S 0.74218 0.87394 0.51035 0.0
N2847 N 0.73035 0.86422 0.48961 0.0
N2848 N 0.73017 0.86371 0.53077 0.0
C2849 C 0.71557 0.85165 0.5212 0.0
C2850 C 0.71566 0.85193 0.49878 0.0
C2851 C 0.68695 0.19066 0.49799 0.0
C2852 C 0.70163 0.179 0.48649 0.0
C2853 C 0.68699 0.19077 0.51992 0.0
C2854 C 0.70172 0.17922 0.53147 0.0
H2855 H 0.67548 0.2002 0.49001 0.0
H2856 H 0.67554 0.20037 0.52785 0.0
S2857 S 0.74296 0.14513 0.50906 0.0
N2858 N 0.73088 0.15485 0.48845 0.0
N2859 N 0.73096 0.15505 0.52961 0.0
C2860 C 0.71615 0.16698 0.52022 0.0
C2861 C 0.71611 0.16687 0.49779 0.0
C2862 C 0.82616 0.68779 0.51919 0.0
C2863 C 0.83789 0.70245 0.53065 0.0
C2864 C 0.82611 0.68777 0.49726 0.0
C2865 C 0.83779 0.7024 0.48568 0.0
H2866 H 0.81655 0.67639 0.52718 0.0
H2867 H 0.81645 0.67636 0.48936 0.0
S2868 S 0.87206 0.74354 0.50801 0.0
N2869 N 0.86222 0.73157 0.52864 0.0
N2870 N 0.86213 0.73153 0.48747 0.0
C2871 C 0.85009 0.71681 0.4969 0.0
C2872 C 0.85014 0.71683 0.51932 0.0
C2873 C 0.30143 0.84625 0.49909 0.0
C2874 C 0.31732 0.83625 0.48759 0.0
C2875 C 0.3014 0.84617 0.52112 0.0
C2876 C 0.31726 0.83606 0.53257 0.0
H2877 H 0.28859 0.85375 0.49104 0.0
H2878 H 0.28854 0.85361 0.5292 0.0
S2879 S 0.36354 0.80924 0.51002 0.0
N2880 N 0.35012 0.81718 0.48951 0.0
N2881 N 0.35007 0.81701 0.53056 0.0
C2882 C 0.33363 0.82668 0.52124 0.0
C2883 C 0.33366 0.82677 0.49888 0.0
C2884 C 0.19067 0.32993 0.49703 0.0
C2885 C 0.1791 0.31512 0.48561 0.0
C2886 C 0.19072 0.33 0.51896 0.0
C2887 C 0.1792 0.31528 0.53059 0.0
H2888 H 0.20018 0.34139 0.489 0.0
H2889 H 0.20027 0.34153 0.52684 0.0
S2890 S 0.14529 0.27378 0.50838 0.0
N2891 N 0.15503 0.28578 0.48772 0.0
N2892 N 0.15512 0.28593 0.52888 0.0
C2893 C 0.16703 0.30074 0.51941 0.0
C2894 C 0.16699 0.30065 0.49699 0.0
C2895 C 0.30131 0.17 0.52006 0.0
C2896 C 0.31739 0.17979 0.53146 0.0
C2897 C 0.30117 0.17011 0.49803 0.0
C2898 C 0.31713 0.18001 0.48649 0.0
H2899 H 0.28838 0.16271 0.52819 0.0
H2900 H 0.28815 0.16288 0.49002 0.0
S2901 S 0.36399 0.20603 0.50878 0.0
N2902 N 0.35053 0.1983 0.52936 0.0
N2903 N 0.35028 0.1985 0.48831 0.0
C2904 C 0.33372 0.1891 0.49773 0.0
C2905 C 0.33385 0.189 0.52008 0.0
C2906 C 0.847 0.30205 0.49776 0.0
C2907 C 0.83709 0.31805 0.48635 0.0
C2908 C 0.84693 0.30191 0.51979 0.0
C2909 C 0.83694 0.31778 0.53133 0.0
H2910 H 0.85436 0.28917 0.48964 0.0
H2911 H 0.85426 0.28894 0.5278 0.0
S2912 S 0.81055 0.36441 0.50901 0.0
N2913 N 0.81834 0.35102 0.48844 0.0
N2914 N 0.8182 0.35078 0.52949 0.0
C2915 C 0.82771 0.3343 0.52008 0.0
C2916 C 0.82778 0.33443 0.49773 0.0
C2917 C 0.19148 0.68669 0.52008 0.0
C2918 C 0.17979 0.70137 0.53155 0.0
C2919 C 0.19144 0.68659 0.49815 0.0
C2920 C 0.1797 0.70115 0.48657 0.0
H2921 H 0.20113 0.67532 0.52807 0.0
H2922 H 0.20106 0.67515 0.49024 0.0
S2923 S 0.1455 0.74232 0.50891 0.0
N2924 N 0.15543 0.73045 0.52954 0.0
N2925 N 0.15536 0.73025 0.48837 0.0
C2926 C 0.16746 0.71559 0.49779 0.0
C2927 C 0.1675 0.7157 0.52022 0.0
C2928 C 0.14914 0.13296 0.35146 0.0
C2929 C 0.15775 0.12543 0.33264 0.0
C2930 C 0.13341 0.14851 0.35146 0.0
C2931 C 0.12576 0.15702 0.33264 0.0
H2932 H 0.15489 0.12717 0.36628 0.0
H2933 H 0.12757 0.1542 0.36628 0.0
S2934 S 0.1415 0.14096 0.2791 0.0
N2935 N 0.15616 0.12668 0.2947 0.0
N2936 N 0.12701 0.15542 0.29469 0.0
C2937 C 0.13379 0.14901 0.31378 0.0
C2938 C 0.14965 0.13337 0.31378 0.0
C2939 C 0.88444 0.1497 0.3519 0.0
C2940 C 0.89177 0.15875 0.33318 0.0
C2941 C 0.86878 0.13406 0.35175 0.0
C2942 C 0.8599 0.12694 0.33288 0.0
H2943 H 0.89054 0.15498 0.36676 0.0
H2944 H 0.86334 0.1278 0.3665 0.0
S2945 S 0.87514 0.1441 0.2795 0.0
N2946 N 0.88982 0.15821 0.29523 0.0
N2947 N 0.86083 0.12929 0.29497 0.0
C2948 C 0.86762 0.13548 0.31412 0.0
C2949 C 0.88342 0.15123 0.31426 0.0
C2950 C 0.88495 0.86846 0.35018 0.0
C2951 C 0.89144 0.85884 0.33145 0.0
C2952 C 0.86952 0.8843 0.35022 0.0
C2953 C 0.86003 0.89107 0.33153 0.0
H2954 H 0.8916 0.86354 0.36493 0.0
H2955 H 0.86477 0.89101 0.36499 0.0
S2956 S 0.87278 0.87221 0.27809 0.0
N2957 N 0.8879 0.85833 0.29362 0.0
N2958 N 0.85934 0.88765 0.29369 0.0
C2959 C 0.86684 0.8819 0.31272 0.0
C2960 C 0.8824 0.86593 0.31268 0.0
C2961 C 0.13391 0.86705 0.35169 0.0
C2962 C 0.12734 0.8576 0.3329 0.0
C2963 C 0.14927 0.88297 0.35177 0.0
C2964 C 0.15859 0.89002 0.33307 0.0
H2965 H 0.12739 0.8619 0.36643 0.0
H2966 H 0.1541 0.88955 0.36658 0.0
S2967 S 0.14546 0.87175 0.27953 0.0
N2968 N 0.13056 0.85758 0.29503 0.0
N2969 N 0.15895 0.88708 0.29519 0.0
C2970 C 0.15166 0.88104 0.31422 0.0
C2971 C 0.13619 0.86497 0.31413 0.0
C2972 C 0.14978 0.88352 0.66639 0.0
C2973 C 0.15884 0.89066 0.68516 0.0
C2974 C 0.1341 0.8679 0.66642 0.0
C2975 C 0.12694 0.85887 0.68522 0.0
H2976 H 0.15506 0.88977 0.65158 0.0
H2977 H 0.12783 0.86263 0.65163 0.0
S2978 S 0.14415 0.87349 0.73871 0.0
N2979 N 0.1583 0.8883 0.7231 0.0
N2980 N 0.1293 0.85939 0.72313 0.0
C2981 C 0.13551 0.86637 0.70404 0.0
C2982 C 0.15131 0.88211 0.70402 0.0
C2983 C 0.1499 0.13328 0.66521 0.0
C2984 C 0.15862 0.12592 0.68407 0.0
C2985 C 0.13412 0.14878 0.66513 0.0
C2986 C 0.12649 0.15744 0.6839 0.0
H2987 H 0.15559 0.12734 0.65043 0.0
H2988 H 0.12817 0.15429 0.65029 0.0
S2989 S 0.14254 0.14195 0.73753 0.0
N2990 N 0.15717 0.12756 0.72201 0.0
N2991 N 0.12794 0.15621 0.72185 0.0
C2992 C 0.13465 0.14964 0.70279 0.0
C2993 C 0.15057 0.13404 0.70288 0.0
C2994 C 0.8844 0.14886 0.66532 0.0
C2995 C 0.89187 0.15756 0.68413 0.0
C2996 C 0.86873 0.13323 0.66532 0.0
C2997 C 0.85998 0.12577 0.68413 0.0
H2998 H 0.89038 0.15444 0.65051 0.0
H2999 H 0.86316 0.12729 0.6505 0.0
S3000 S 0.87565 0.14187 0.73767 0.0
N3001 N 0.89022 0.15628 0.72208 0.0
N3002 N 0.86121 0.12737 0.72207 0.0
C3003 C 0.86787 0.13393 0.70298 0.0
C3004 C 0.88366 0.14967 0.70298 0.0
C3005 C 0.88417 0.86818 0.6662 0.0
C3006 C 0.89128 0.8591 0.68498 0.0
C3007 C 0.86858 0.88385 0.6662 0.0
C3008 C 0.85955 0.89102 0.68498 0.0
H3009 H 0.89042 0.8629 0.6514 0.0
H3010 H 0.86332 0.89012 0.65139 0.0
S3011 S 0.87413 0.87376 0.7385 0.0
N3012 N 0.88891 0.8596 0.72291 0.0
N3013 N 0.86006 0.88865 0.72291 0.0
C3014 C 0.86703 0.88244 0.70382 0.0
C3015 C 0.88274 0.86662 0.70382 0.0
C3016 C 0.31781 0.15398 0.13897 0.0
C3017 C 0.33582 0.15872 0.12724 0.0
C3018 C 0.31787 0.13854 0.15443 0.0
C3019 C 0.33592 0.1269 0.15909 0.0
H3020 H 0.30332 0.16224 0.1362 0.0
H3021 H 0.30341 0.13572 0.16276 0.0
S3022 S 0.38744 0.133 0.13315 0.0
N3023 N 0.37243 0.15044 0.12145 0.0
N3024 N 0.37252 0.12124 0.15065 0.0
C3025 C 0.35416 0.13137 0.14757 0.0
C3026 C 0.35411 0.14728 0.13165 0.0
C3027 C 0.88359 0.35212 0.14915 0.0
C3028 C 0.8902 0.33338 0.15868 0.0
C3029 C 0.86788 0.35217 0.13358 0.0
C3030 C 0.85821 0.33349 0.12701 0.0
H3031 H 0.89038 0.36685 0.15392 0.0
H3032 H 0.86311 0.36694 0.12687 0.0
S3033 S 0.87111 0.28004 0.1458 0.0
N3034 N 0.88654 0.29555 0.15935 0.0
N3035 N 0.85745 0.29565 0.13057 0.0
C3036 C 0.86511 0.31467 0.13613 0.0
C3037 C 0.88096 0.31462 0.15181 0.0
C3038 C 0.69982 0.87838 0.15532 0.0
C3039 C 0.68202 0.8907 0.15915 0.0
C3040 C 0.69994 0.86281 0.14001 0.0
C3041 C 0.68229 0.85866 0.12759 0.0
H3042 H 0.71403 0.88077 0.16418 0.0
H3043 H 0.71424 0.85403 0.13788 0.0
S3044 S 0.63139 0.88616 0.13129 0.0
N3045 N 0.64599 0.89753 0.14928 0.0
N3046 N 0.64624 0.86813 0.12031 0.0
C3047 C 0.66424 0.87074 0.13121 0.0
C3048 C 0.6641 0.88675 0.14699 0.0
C3049 C 0.15356 0.69883 0.13757 0.0
C3050 C 0.1586 0.68072 0.12618 0.0
C3051 C 0.13806 0.69878 0.15297 0.0
C3052 C 0.12667 0.68062 0.15789 0.0
H3053 H 0.16164 0.71339 0.13461 0.0
H3054 H 0.13501 0.7133 0.16107 0.0
S3055 S 0.13358 0.62882 0.13281 0.0
N3056 N 0.15084 0.64392 0.12092 0.0
N3057 N 0.12155 0.64382 0.15003 0.0
C3058 C 0.13142 0.66229 0.14666 0.0
C3059 C 0.14738 0.66234 0.13081 0.0
C3060 C 0.31721 0.87844 0.86371 0.0
C3061 C 0.33516 0.89032 0.85924 0.0
C3062 C 0.31714 0.86308 0.87926 0.0
C3063 C 0.33503 0.85869 0.89126 0.0
H3064 H 0.30284 0.88102 0.85518 0.0
H3065 H 0.30272 0.85463 0.8819 0.0
S3066 S 0.38638 0.88512 0.8859 0.0
N3067 N 0.37157 0.89655 0.86813 0.0
N3068 N 0.37145 0.86753 0.8975 0.0
C3069 C 0.35323 0.87035 0.88702 0.0
C3070 C 0.3533 0.88616 0.87102 0.0
C3071 C 0.14994 0.3513 0.88394 0.0
C3072 C 0.15875 0.33248 0.89128 0.0
C3073 C 0.13446 0.35134 0.86814 0.0
C3074 C 0.12727 0.33257 0.85911 0.0
H3075 H 0.1553 0.36609 0.89014 0.0
H3076 H 0.12839 0.36616 0.86271 0.0
S3077 S 0.1438 0.27899 0.87427 0.0
N3078 N 0.15789 0.29455 0.88916 0.0
N3079 N 0.12927 0.29463 0.85989 0.0
C3080 C 0.13556 0.3137 0.86683 0.0
C3081 C 0.15114 0.31366 0.88277 0.0
C3082 C 0.6659 0.14954 0.88349 0.0
C3083 C 0.68475 0.15818 0.89095 0.0
C3084 C 0.66583 0.13396 0.86779 0.0
C3085 C 0.68462 0.1265 0.859 0.0
H3086 H 0.65111 0.15513 0.88949 0.0
H3087 H 0.65099 0.12805 0.86223 0.0
S3088 S 0.73824 0.14244 0.87465 0.0
N3089 N 0.7227 0.15683 0.88927 0.0
N3090 N 0.72257 0.12802 0.8602 0.0
C3091 C 0.70351 0.13459 0.86688 0.0
C3092 C 0.70357 0.15028 0.88272 0.0
C3093 C 0.88358 0.66485 0.86778 0.0
C3094 C 0.89109 0.68353 0.85878 0.0
C3095 C 0.86816 0.66513 0.88366 0.0
C3096 C 0.85975 0.68409 0.89108 0.0
H3097 H 0.88933 0.64994 0.86226 0.0
H3098 H 0.86252 0.65042 0.88983 0.0
S3099 S 0.87573 0.73736 0.87426 0.0
N3100 N 0.88987 0.7215 0.85974 0.0
N3101 N 0.86138 0.722 0.88914 0.0
C3102 C 0.8677 0.70279 0.88263 0.0
C3103 C 0.88322 0.70252 0.86662 0.0
C3104 C 0.15356 0.31661 0.13787 0.0
C3105 C 0.15839 0.3346 0.12619 0.0
C3106 C 0.13816 0.31674 0.15337 0.0
C3107 C 0.12667 0.33487 0.15809 0.0
H3108 H 0.16172 0.30207 0.13505 0.0
H3109 H 0.13526 0.30229 0.16168 0.0
S3110 S 0.13305 0.38638 0.13223 0.0
N3111 N 0.15035 0.37127 0.12046 0.0
N3112 N 0.12123 0.37152 0.14973 0.0
C3113 C 0.13121 0.35309 0.14658 0.0
C3114 C 0.14708 0.35295 0.13063 0.0
C3115 C 0.14854 0.66478 0.88442 0.0
C3116 C 0.15695 0.68368 0.89203 0.0
C3117 C 0.13289 0.66467 0.86879 0.0
C3118 C 0.12514 0.68344 0.86024 0.0
H3119 H 0.15439 0.65001 0.89021 0.0
H3120 H 0.12721 0.64981 0.86305 0.0
S3121 S 0.14033 0.73709 0.87643 0.0
N3122 N 0.15501 0.72161 0.89082 0.0
N3123 N 0.12607 0.72138 0.86185 0.0
C3124 C 0.13296 0.70235 0.86831 0.0
C3125 C 0.14872 0.70247 0.88407 0.0
C3126 C 0.31798 0.15474 0.87884 0.0
C3127 C 0.33598 0.15906 0.89071 0.0
C3128 C 0.31788 0.13948 0.86321 0.0
C3129 C 0.33578 0.12762 0.85853 0.0
H3130 H 0.30359 0.16318 0.88164 0.0
H3131 H 0.30344 0.13696 0.85478 0.0
S3132 S 0.38725 0.13266 0.88476 0.0
N3133 N 0.37243 0.15019 0.89657 0.0
N3134 N 0.37226 0.12134 0.86707 0.0
C3135 C 0.35403 0.13171 0.87017 0.0
C3136 C 0.35412 0.14742 0.88624 0.0
C3137 C 0.87928 0.3182 0.86232 0.0
C3138 C 0.89135 0.33606 0.85795 0.0
C3139 C 0.86395 0.31819 0.87789 0.0
C3140 C 0.85978 0.33604 0.89003 0.0
H3141 H 0.88168 0.30387 0.85369 0.0
H3142 H 0.85534 0.30385 0.88043 0.0
S3143 S 0.88676 0.38713 0.88497 0.0
N3144 N 0.898 0.37232 0.86707 0.0
N3145 N 0.86903 0.3723 0.8965 0.0
C3146 C 0.87164 0.35414 0.8859 0.0
C3147 C 0.88742 0.35415 0.86986 0.0
C3148 C 0.70026 0.87935 0.86279 0.0
C3149 C 0.68229 0.89123 0.85844 0.0
C3150 C 0.70041 0.86406 0.87839 0.0
C3151 C 0.68261 0.85977 0.89057 0.0
H3152 H 0.71457 0.88186 0.85412 0.0
H3153 H 0.71482 0.85557 0.88091 0.0
S3154 S 0.63129 0.88626 0.88559 0.0
N3155 N 0.64599 0.89758 0.86763 0.0
N3156 N 0.64628 0.8687 0.89713 0.0
C3157 C 0.66441 0.87146 0.88647 0.0
C3158 C 0.66425 0.88718 0.87039 0.0
C3159 C 0.86774 0.66439 0.13434 0.0
C3160 C 0.85914 0.68332 0.12704 0.0
C3161 C 0.88343 0.66416 0.14995 0.0
C3162 C 0.89108 0.68286 0.15877 0.0
H3163 H 0.86204 0.64966 0.12828 0.0
H3164 H 0.88931 0.64927 0.15539 0.0
S3165 S 0.87531 0.73664 0.14348 0.0
N3166 N 0.86072 0.72124 0.12891 0.0
N3167 N 0.88975 0.72083 0.15775 0.0
C3168 C 0.88302 0.70182 0.15103 0.0
C3169 C 0.8672 0.70205 0.13533 0.0
C3170 C 0.3514 0.86765 0.13413 0.0
C3171 C 0.33254 0.85844 0.1274 0.0
C3172 C 0.35157 0.88345 0.1496 0.0
C3173 C 0.33289 0.89057 0.15887 0.0
H3174 H 0.36612 0.86241 0.12768 0.0
H3175 H 0.36642 0.88983 0.15457 0.0
S3176 S 0.27922 0.87295 0.14534 0.0
N3177 N 0.29464 0.85877 0.1304 0.0
N3178 N 0.29497 0.88801 0.15903 0.0
C3179 C 0.31397 0.88185 0.15178 0.0
C3180 C 0.3138 0.86592 0.13619 0.0
C3181 C 0.66503 0.14935 0.13264 0.0
C3182 C 0.68379 0.1582 0.12515 0.0
C3183 C 0.66514 0.13382 0.1484 0.0
C3184 C 0.684 0.12662 0.15722 0.0
H3185 H 0.65018 0.15474 0.1266 0.0
H3186 H 0.65036 0.12774 0.15398 0.0
S3187 S 0.73744 0.14317 0.14153 0.0
N3188 N 0.72174 0.15733 0.12685 0.0
N3189 N 0.72194 0.1286 0.15604 0.0
C3190 C 0.7028 0.13492 0.14932 0.0
C3191 C 0.70269 0.15056 0.13342 0.0
C3192 C 0.63949 0.65677 0.8185 0.0
C3193 C 0.6271 0.66047 0.83629 0.0
C3194 C 0.65491 0.6413 0.81823 0.0
C3195 C 0.65888 0.62861 0.83574 0.0
H3196 H 0.63724 0.66583 0.80439 0.0
H3197 H 0.66371 0.63927 0.80393 0.0
S3198 S 0.63113 0.63184 0.88656 0.0
N3199 N 0.62 0.65014 0.87215 0.0
N3200 N 0.64916 0.62093 0.87165 0.0
C3201 C 0.64677 0.63212 0.8538 0.0
C3202 C 0.63088 0.64804 0.85407 0.0
C3203 C 0.36097 0.63962 0.81788 0.0
C3204 C 0.35649 0.62764 0.83576 0.0
C3205 C 0.37653 0.65496 0.81789 0.0
C3206 C 0.38855 0.65922 0.83579 0.0
H3207 H 0.35246 0.63713 0.80348 0.0
H3208 H 0.37918 0.66347 0.80351 0.0
S3209 S 0.38313 0.63255 0.88701 0.0
N3210 N 0.36533 0.62122 0.87213 0.0
N3211 N 0.39476 0.6502 0.87216 0.0
C3212 C 0.38427 0.64749 0.85394 0.0
C3213 C 0.36824 0.63171 0.85393 0.0
C3214 C 0.37852 0.36353 0.81743 0.0
C3215 C 0.39038 0.35908 0.8354 0.0
C3216 C 0.36303 0.37892 0.81739 0.0
C3217 C 0.35844 0.39078 0.83532 0.0
H3218 H 0.38123 0.3551 0.80303 0.0
H3219 H 0.35462 0.38153 0.80295 0.0
S3220 S 0.38472 0.38544 0.88672 0.0
N3221 N 0.39638 0.36785 0.87185 0.0
N3222 N 0.36708 0.39693 0.87178 0.0
C3223 C 0.37008 0.38657 0.85353 0.0
C3224 C 0.38604 0.37073 0.85357 0.0
C3225 C 0.64043 0.36275 0.81742 0.0
C3226 C 0.62803 0.35858 0.83509 0.0
C3227 C 0.65589 0.3782 0.81758 0.0
C3228 C 0.65986 0.39042 0.83542 0.0
H3229 H 0.63818 0.35409 0.80308 0.0
H3230 H 0.66471 0.3806 0.80335 0.0
S3231 S 0.63207 0.38582 0.8861 0.0
N3232 N 0.62092 0.36792 0.87121 0.0
N3233 N 0.65012 0.39714 0.8715 0.0
C3234 C 0.64772 0.38644 0.85336 0.0
C3235 C 0.63182 0.37052 0.8532 0.0
C3236 C 0.65335 0.37917 0.19955 0.0
C3237 C 0.65767 0.39104 0.18154 0.0
C3238 C 0.63815 0.36348 0.19964 0.0
C3239 C 0.62632 0.35873 0.18174 0.0
H3240 H 0.66178 0.382 0.21394 0.0
H3241 H 0.63564 0.35506 0.2141 0.0
S3242 S 0.63135 0.38495 0.13025 0.0
N3243 N 0.64882 0.39685 0.14507 0.0
N3244 N 0.62004 0.36723 0.14525 0.0
C3245 C 0.63038 0.37039 0.16349 0.0
C3246 C 0.64605 0.38653 0.16339 0.0
C3247 C 0.63774 0.65425 0.20024 0.0
C3248 C 0.62571 0.65891 0.18244 0.0
C3249 C 0.65308 0.63871 0.20002 0.0
C3250 C 0.65734 0.6269 0.18198 0.0
H3251 H 0.63532 0.66266 0.21471 0.0
H3252 H 0.66166 0.63596 0.21433 0.0
S3253 S 0.63046 0.63271 0.13095 0.0
N3254 N 0.61915 0.65034 0.14603 0.0
N3255 N 0.64817 0.62098 0.14561 0.0
C3256 C 0.64549 0.63127 0.16394 0.0
C3257 C 0.62968 0.64727 0.16418 0.0
C3258 C 0.37792 0.65316 0.20159 0.0
C3259 C 0.38968 0.65808 0.18368 0.0
C3260 C 0.36257 0.63761 0.20137 0.0
C3261 C 0.35805 0.62608 0.18321 0.0
H3262 H 0.38058 0.66135 0.21615 0.0
H3263 H 0.35419 0.63463 0.21577 0.0
S3264 S 0.38418 0.63269 0.13186 0.0
N3265 N 0.3957 0.65009 0.14704 0.0
N3266 N 0.36668 0.62072 0.14662 0.0
C3267 C 0.36963 0.63074 0.16506 0.0
C3268 C 0.38544 0.64674 0.1653 0.0
C3269 C 0.38263 0.36787 0.16645 0.0
C3270 C 0.38995 0.35916 0.18533 0.0
C3271 C 0.36678 0.3833 0.16631 0.0
C3272 C 0.3577 0.39054 0.18503 0.0
H3273 H 0.3889 0.36248 0.1517 0.0
H3274 H 0.36138 0.3893 0.15145 0.0
S3275 S 0.37279 0.37428 0.23872 0.0
N3276 N 0.38775 0.36016 0.22325 0.0
N3277 N 0.35841 0.3887 0.22299 0.0
C3278 C 0.3654 0.38235 0.20395 0.0
C3279 C 0.38138 0.36681 0.2041 0.0
C3280 C 0.81694 0.65474 0.63755 0.0
C3281 C 0.83508 0.65936 0.62599 0.0
C3282 C 0.81676 0.63928 0.65299 0.0
C3283 C 0.83469 0.62752 0.65778 0.0
H3284 H 0.80253 0.6631 0.63468 0.0
H3285 H 0.80221 0.63656 0.6612 0.0
S3286 S 0.88646 0.63327 0.63227 0.0
N3287 N 0.87167 0.65082 0.62046 0.0
N3288 N 0.87132 0.6216 0.64964 0.0
C3289 C 0.85305 0.63185 0.6464 0.0
C3290 C 0.85324 0.64778 0.63051 0.0
C3291 C 0.36374 0.81679 0.6398 0.0
C3292 C 0.35894 0.83475 0.62808 0.0
C3293 C 0.37924 0.81691 0.65517 0.0
C3294 C 0.39086 0.83501 0.65977 0.0
H3295 H 0.35547 0.80227 0.63709 0.0
H3296 H 0.38211 0.80247 0.66351 0.0
S3297 S 0.38459 0.88645 0.63377 0.0
N3298 N 0.36714 0.87137 0.62216 0.0
N3299 N 0.39643 0.8716 0.65125 0.0
C3300 C 0.38633 0.8532 0.64823 0.0
C3301 C 0.37037 0.85308 0.63238 0.0
C3302 C 0.16534 0.36786 0.63269 0.0
C3303 C 0.18414 0.35946 0.62484 0.0
C3304 C 0.16541 0.38349 0.64833 0.0
C3305 C 0.18429 0.39124 0.65666 0.0
H3306 H 0.15049 0.36201 0.62707 0.0
H3307 H 0.15063 0.38918 0.65426 0.0
S3308 S 0.23775 0.37609 0.63975 0.0
N3309 N 0.22208 0.3614 0.62557 0.0
N3310 N 0.22223 0.39033 0.65454 0.0
C3311 C 0.20311 0.38343 0.64834 0.0
C3312 C 0.20303 0.36768 0.63257 0.0
C3313 C 0.65381 0.20012 0.63816 0.0
C3314 C 0.65873 0.18193 0.62686 0.0
C3315 C 0.63833 0.20025 0.65358 0.0
C3316 C 0.62684 0.18219 0.65863 0.0
H3317 H 0.66196 0.21464 0.63511 0.0
H3318 H 0.63539 0.21485 0.66159 0.0
S3319 S 0.63341 0.13022 0.6338 0.0
N3320 N 0.65075 0.14515 0.62181 0.0
N3321 N 0.62149 0.14538 0.65096 0.0
C3322 C 0.63147 0.16377 0.64749 0.0
C3323 C 0.64741 0.16364 0.63161 0.0
C3324 C 0.85123 0.36898 0.38389 0.0
C3325 C 0.83251 0.35984 0.39113 0.0
C3326 C 0.85109 0.38461 0.36822 0.0
C3327 C 0.83223 0.39163 0.35924 0.0
H3328 H 0.86608 0.36378 0.39008 0.0
H3329 H 0.86584 0.39092 0.36285 0.0
S3330 S 0.77884 0.37424 0.37422 0.0
N3331 N 0.79457 0.3602 0.38899 0.0
N3332 N 0.79431 0.38911 0.35999 0.0
C3333 C 0.81346 0.38301 0.36688 0.0
C3334 C 0.8136 0.36726 0.38267 0.0
C3335 C 0.656 0.81951 0.37885 0.0
C3336 C 0.6599 0.83739 0.39101 0.0
C3337 C 0.64054 0.81922 0.36343 0.0
C3338 C 0.62803 0.83681 0.35924 0.0
H3339 H 0.6649 0.80533 0.38126 0.0
H3340 H 0.63836 0.80485 0.35479 0.0
S3341 S 0.63178 0.88787 0.38641 0.0
N3342 N 0.64995 0.87342 0.3977 0.0
N3343 N 0.62071 0.87288 0.36856 0.0
C3344 C 0.63171 0.85495 0.37116 0.0
C3345 C 0.64765 0.85525 0.38703 0.0
C3346 C 0.16493 0.64835 0.38459 0.0
C3347 C 0.18385 0.65675 0.39215 0.0
C3348 C 0.16475 0.63296 0.36871 0.0
C3349 C 0.18348 0.62548 0.35983 0.0
H3350 H 0.15018 0.65399 0.39065 0.0
H3351 H 0.14986 0.62723 0.36307 0.0
S3352 S 0.23721 0.64083 0.3757 0.0
N3353 N 0.22177 0.65515 0.39049 0.0
N3354 N 0.22145 0.6267 0.36106 0.0
C3355 C 0.20243 0.63333 0.36782 0.0
C3356 C 0.2026 0.64882 0.38384 0.0
C3357 C 0.36254 0.19941 0.37868 0.0
C3358 C 0.35798 0.1815 0.3906 0.0
C3359 C 0.37815 0.1994 0.3634 0.0
C3360 C 0.39013 0.18149 0.3591 0.0
H3361 H 0.35404 0.21381 0.38119 0.0
H3362 H 0.38084 0.2138 0.35494 0.0
S3363 S 0.38456 0.13022 0.38563 0.0
N3364 N 0.36676 0.1451 0.39696 0.0
N3365 N 0.39626 0.14509 0.36805 0.0
C3366 C 0.38581 0.16332 0.37079 0.0
C3367 C 0.36973 0.16333 0.38654 0.0
C3368 C 0.64915 0.85262 0.6347 0.0
C3369 C 0.65764 0.83379 0.62704 0.0
C3370 C 0.63358 0.85264 0.65043 0.0
C3371 C 0.62597 0.83382 0.65903 0.0
H3372 H 0.65485 0.86743 0.62883 0.0
H3373 H 0.6278 0.86746 0.65615 0.0
S3374 S 0.64149 0.78026 0.64282 0.0
N3375 N 0.656 0.79585 0.62834 0.0
N3376 N 0.62718 0.79587 0.65744 0.0
C3377 C 0.63391 0.81496 0.65094 0.0
C3378 C 0.6496 0.81495 0.63509 0.0
C3379 C 0.6339 0.16543 0.3683 0.0
C3380 C 0.62668 0.18432 0.35953 0.0
C3381 C 0.64939 0.16529 0.38409 0.0
C3382 C 0.65818 0.18403 0.39166 0.0
H3383 H 0.62785 0.15068 0.36267 0.0
H3384 H 0.65479 0.15043 0.39009 0.0
S3385 S 0.64309 0.23772 0.37541 0.0
N3386 N 0.6286 0.22225 0.36083 0.0
N3387 N 0.65723 0.22198 0.39007 0.0
C3388 C 0.65053 0.20295 0.38342 0.0
C3389 C 0.63493 0.20309 0.3675 0.0
C3390 C 0.85036 0.63362 0.36854 0.0
C3391 C 0.83149 0.62673 0.35948 0.0
C3392 C 0.85056 0.64933 0.3841 0.0
C3393 C 0.83189 0.65869 0.39115 0.0
H3394 H 0.86508 0.62714 0.36332 0.0
H3395 H 0.86543 0.65442 0.39035 0.0
S3396 S 0.7782 0.64476 0.37389 0.0
N3397 N 0.7936 0.62964 0.35989 0.0
N3398 N 0.79396 0.65871 0.3887 0.0
C3399 C 0.81296 0.65141 0.3826 0.0
C3400 C 0.81276 0.63558 0.3669 0.0
C3401 C 0.3775 0.81757 0.36345 0.0
C3402 C 0.38975 0.83535 0.35926 0.0
C3403 C 0.36216 0.81754 0.379 0.0
C3404 C 0.35813 0.8353 0.3913 0.0
H3405 H 0.37979 0.80328 0.35471 0.0
H3406 H 0.35346 0.80324 0.38141 0.0
S3407 S 0.38556 0.8862 0.38676 0.0
N3408 N 0.39669 0.87147 0.36873 0.0
N3409 N 0.36767 0.87143 0.39812 0.0
C3410 C 0.37012 0.85335 0.38733 0.0
C3411 C 0.38594 0.85337 0.37132 0.0
C3412 C 0.19909 0.37793 0.36294 0.0
C3413 C 0.18102 0.38961 0.35846 0.0
C3414 C 0.19917 0.36225 0.37816 0.0
C3415 C 0.18118 0.35732 0.38982 0.0
H3416 H 0.21354 0.38091 0.35466 0.0
H3417 H 0.21368 0.35398 0.38082 0.0
S3418 S 0.1295 0.38301 0.38429 0.0
N3419 N 0.1444 0.39505 0.36696 0.0
N3420 N 0.14455 0.36544 0.39574 0.0
C3421 C 0.16286 0.36877 0.38557 0.0
C3422 C 0.16278 0.38491 0.3699 0.0
C3423 C 0.38462 0.16557 0.64908 0.0
C3424 C 0.39204 0.18446 0.65766 0.0
C3425 C 0.36894 0.16544 0.63348 0.0
C3426 C 0.36017 0.1842 0.62594 0.0
H3427 H 0.3906 0.15081 0.65477 0.0
H3428 H 0.36337 0.15058 0.62765 0.0
S3429 S 0.37581 0.23787 0.64162 0.0
N3430 N 0.3904 0.2224 0.65611 0.0
N3431 N 0.36137 0.22214 0.62725 0.0
C3432 C 0.36805 0.20311 0.63394 0.0
C3433 C 0.38385 0.20325 0.64965 0.0
C3434 C 0.81756 0.37857 0.65448 0.0
C3435 C 0.83543 0.39069 0.65868 0.0
C3436 C 0.81759 0.36297 0.6392 0.0
C3437 C 0.83548 0.35855 0.62721 0.0
H3438 H 0.80318 0.38115 0.66301 0.0
H3439 H 0.80323 0.35437 0.63677 0.0
S3440 S 0.88661 0.38551 0.63192 0.0
N3441 N 0.87175 0.39709 0.64956 0.0
N3442 N 0.8718 0.3676 0.62068 0.0
C3443 C 0.85359 0.37043 0.63118 0.0
C3444 C 0.85357 0.3865 0.64692 0.0
C3445 C 0.19908 0.6383 0.65436 0.0
C3446 C 0.18098 0.62667 0.65893 0.0
C3447 C 0.19928 0.65371 0.63888 0.0
C3448 C 0.18137 0.65844 0.62704 0.0
H3449 H 0.21348 0.63549 0.66277 0.0
H3450 H 0.21381 0.66195 0.6362 0.0
S3451 S 0.12968 0.63274 0.63262 0.0
N3452 N 0.14444 0.621 0.65025 0.0
N3453 N 0.14479 0.65016 0.621 0.0
C3454 C 0.16303 0.64702 0.63134 0.0
C3455 C 0.16284 0.63113 0.64728 0.0
loop_
_geom_bond_atom_site_label_1
_geom_bond_atom_site_label_2
_geom_bond_distance
_geom_bond_site_symmetry_2
_ccdc_geom_bond_type
Co0 O1 2.216 . S
Co0 O2 2.091 . S
Co0 O4 2.004 . S
Co0 O10 2.021 . S
Co0 O12 2.137 . S
Co0 O13 2.244 . S
O1 Co0 2.216 . S
O1 C8 1.247 . S
O2 Co0 2.091 . S
O2 C8 1.261 . S
C3 O12 1.247 . S
C3 O13 1.272 . S
O4 Co0 2.004 . S
O4 C9 1.259 . S
Co5 O6 2.061 . S
Co5 O11 2.052 . S
Co5 O13 2.135 . S
O6 Co5 2.061 . S
O6 C9 1.235 . S
C7 O10 1.238 . S
C7 O11 1.241 . S
C8 O1 1.247 . S
C8 O2 1.261 . S
C9 O4 1.259 . S
C9 O6 1.235 . S
O10 Co0 2.021 . S
O10 C7 1.238 . S
O11 Co5 2.052 . S
O11 C7 1.241 . S
O12 Co0 2.137 . S
O12 C3 1.247 . S
O13 Co0 2.244 . S
O13 C3 1.272 . S
O13 Co5 2.135 . S
Co14 O15 2.216 . S
Co14 O16 2.091 . S
Co14 O18 2.004 . S
Co14 O24 2.021 . S
Co14 O26 2.137 . S
Co14 O27 2.244 . S
O15 Co14 2.216 . S
O15 C22 1.247 . S
O16 Co14 2.091 . S
O16 C22 1.261 . S
C17 O26 1.247 . S
C17 O27 1.272 . S
O18 Co14 2.004 . S
O18 C23 1.259 . S
Co19 O20 2.061 . S
Co19 O25 2.052 . S
Co19 O27 2.135 . S
O20 Co19 2.061 . S
O20 C23 1.235 . S
C21 O24 1.238 . S
C21 O25 1.241 . S
C22 O15 1.247 . S
C22 O16 1.261 . S
C23 O18 1.259 . S
C23 O20 1.235 . S
O24 Co14 2.021 . S
O24 C21 1.238 . S
O25 Co19 2.052 . S
O25 C21 1.241 . S
O26 Co14 2.137 . S
O26 C17 1.247 . S
O27 Co14 2.244 . S
O27 C17 1.272 . S
O27 Co19 2.135 . S
Co28 O29 2.216 . S
Co28 O30 2.091 . S
Co28 O32 2.004 . S
Co28 O38 2.021 . S
Co28 O40 2.137 . S
Co28 O41 2.244 . S
O29 Co28 2.216 . S
O29 C36 1.247 . S
O30 Co28 2.091 . S
O30 C36 1.261 . S
C31 O40 1.247 . S
C31 O41 1.272 . S
O32 Co28 2.004 . S
O32 C37 1.259 . S
Co33 O34 2.061 . S
Co33 O39 2.052 . S
Co33 O41 2.135 . S
O34 Co33 2.061 . S
O34 C37 1.235 . S
C35 O38 1.238 . S
C35 O39 1.241 . S
C36 O29 1.247 . S
C36 O30 1.261 . S
C37 O32 1.259 . S
C37 O34 1.235 . S
O38 Co28 2.021 . S
O38 C35 1.238 . S
O39 Co33 2.052 . S
O39 C35 1.241 . S
O40 Co28 2.137 . S
O40 C31 1.247 . S
O41 Co28 2.244 . S
O41 C31 1.272 . S
O41 Co33 2.135 . S
Co42 O43 2.216 . S
Co42 O44 2.091 . S
Co42 O46 2.004 . S
Co42 O52 2.021 . S
Co42 O54 2.137 . S
Co42 O55 2.244 . S
O43 Co42 2.216 . S
O43 C50 1.247 . S
O44 Co42 2.091 . S
O44 C50 1.261 . S
C45 O54 1.247 . S
C45 O55 1.272 . S
O46 Co42 2.004 . S
O46 C51 1.259 . S
Co47 O48 2.061 . S
Co47 O53 2.052 . S
Co47 O55 2.135 . S
O48 Co47 2.061 . S
O48 C51 1.235 . S
C49 O52 1.238 . S
C49 O53 1.241 . S
C50 O43 1.247 . S
C50 O44 1.261 . S
C51 O46 1.259 . S
C51 O48 1.235 . S
O52 Co42 2.021 . S
O52 C49 1.238 . S
O53 Co47 2.052 . S
O53 C49 1.241 . S
O54 Co42 2.137 . S
O54 C45 1.247 . S
O55 Co42 2.244 . S
O55 C45 1.272 . S
O55 Co47 2.135 . S
Co56 O57 2.216 . S
Co56 O58 2.091 . S
Co56 O60 2.004 . S
Co56 O66 2.021 . S
Co56 O68 2.137 . S
Co56 O69 2.244 . S
O57 Co56 2.216 . S
O57 C64 1.247 . S
O58 Co56 2.091 . S
O58 C64 1.261 . S
C59 O68 1.247 . S
C59 O69 1.272 . S
O60 Co56 2.004 . S
O60 C65 1.259 . S
Co61 O62 2.061 . S
Co61 O67 2.052 . S
Co61 O69 2.135 . S
O62 Co61 2.061 . S
O62 C65 1.235 . S
C63 O66 1.238 . S
C63 O67 1.241 . S
C64 O57 1.247 . S
C64 O58 1.261 . S
C65 O60 1.259 . S
C65 O62 1.235 . S
O66 Co56 2.021 . S
O66 C63 1.238 . S
O67 Co61 2.052 . S
O67 C63 1.241 . S
O68 Co56 2.137 . S
O68 C59 1.247 . S
O69 Co56 2.244 . S
O69 C59 1.272 . S
O69 Co61 2.135 . S
Co70 O71 2.216 . S
Co70 O72 2.091 . S
Co70 O74 2.004 . S
Co70 O80 2.021 . S
Co70 O82 2.137 . S
Co70 O83 2.244 . S
O71 Co70 2.216 . S
O71 C78 1.247 . S
O72 Co70 2.091 . S
O72 C78 1.261 . S
C73 O82 1.247 . S
C73 O83 1.272 . S
O74 Co70 2.004 . S
O74 C79 1.259 . S
Co75 O76 2.061 . S
Co75 O81 2.052 . S
Co75 O83 2.135 . S
O76 Co75 2.061 . S
O76 C79 1.235 . S
C77 O80 1.238 . S
C77 O81 1.241 . S
C78 O71 1.247 . S
C78 O72 1.261 . S
C79 O74 1.259 . S
C79 O76 1.235 . S
O80 Co70 2.021 . S
O80 C77 1.238 . S
O81 Co75 2.052 . S
O81 C77 1.241 . S
O82 Co70 2.137 . S
O82 C73 1.247 . S
O83 Co70 2.244 . S
O83 C73 1.272 . S
O83 Co75 2.135 . S
Co84 O85 2.216 . S
Co84 O86 2.091 . S
Co84 O88 2.004 . S
Co84 O94 2.021 . S
Co84 O96 2.137 . S
Co84 O97 2.244 . S
O85 Co84 2.216 . S
O85 C92 1.247 . S
O86 Co84 2.091 . S
O86 C92 1.261 . S
C87 O96 1.247 . S
C87 O97 1.272 . S
O88 Co84 2.004 . S
O88 C93 1.259 . S
Co89 O90 2.061 . S
Co89 O95 2.052 . S
Co89 O97 2.135 . S
O90 Co89 2.061 . S
O90 C93 1.235 . S
C91 O94 1.238 . S
C91 O95 1.241 . S
C92 O85 1.247 . S
C92 O86 1.261 . S
C93 O88 1.259 . S
C93 O90 1.235 . S
O94 Co84 2.021 . S
O94 C91 1.238 . S
O95 Co89 2.052 . S
O95 C91 1.241 . S
O96 Co84 2.137 . S
O96 C87 1.247 . S
O97 Co84 2.244 . S
O97 C87 1.272 . S
O97 Co89 2.135 . S
Co98 O99 2.216 . S
Co98 O100 2.091 . S
Co98 O102 2.004 . S
Co98 O108 2.021 . S
Co98 O110 2.137 . S
Co98 O111 2.244 . S
O99 Co98 2.216 . S
O99 C106 1.247 . S
O100 Co98 2.091 . S
O100 C106 1.261 . S
C101 O110 1.247 . S
C101 O111 1.272 . S
O102 Co98 2.004 . S
O102 C107 1.259 . S
Co103 O104 2.061 . S
Co103 O109 2.052 . S
Co103 O111 2.135 . S
O104 Co103 2.061 . S
O104 C107 1.235 . S
C105 O108 1.238 . S
C105 O109 1.241 . S
C106 O99 1.247 . S
C106 O100 1.261 . S
C107 O102 1.259 . S
C107 O104 1.235 . S
O108 Co98 2.021 . S
O108 C105 1.238 . S
O109 Co103 2.052 . S
O109 C105 1.241 . S
O110 Co98 2.137 . S
O110 C101 1.247 . S
O111 Co98 2.244 . S
O111 C101 1.272 . S
O111 Co103 2.135 . S
Co112 O113 2.216 . S
Co112 O114 2.091 . S
Co112 O116 2.004 . S
Co112 O122 2.021 . S
Co112 O124 2.137 . S
Co112 O125 2.244 . S
O113 Co112 2.216 . S
O113 C120 1.247 . S
O114 Co112 2.091 . S
O114 C120 1.261 . S
C115 O124 1.247 . S
C115 O125 1.272 . S
O116 Co112 2.004 . S
O116 C121 1.259 . S
Co117 O118 2.061 . S
Co117 O123 2.052 . S
Co117 O125 2.135 . S
O118 Co117 2.061 . S
O118 C121 1.235 . S
C119 O122 1.238 . S
C119 O123 1.241 . S
C120 O113 1.247 . S
C120 O114 1.261 . S
C121 O116 1.259 . S
C121 O118 1.235 . S
O122 Co112 2.021 . S
O122 C119 1.238 . S
O123 Co117 2.052 . S
O123 C119 1.241 . S
O124 Co112 2.137 . S
O124 C115 1.247 . S
O125 Co112 2.244 . S
O125 C115 1.272 . S
O125 Co117 2.135 . S
Co126 O127 2.216 . S
Co126 O128 2.091 . S
Co126 O130 2.004 . S
Co126 O136 2.021 . S
Co126 O138 2.137 . S
Co126 O139 2.244 . S
O127 Co126 2.216 . S
O127 C134 1.247 . S
O128 Co126 2.091 . S
O128 C134 1.261 . S
C129 O138 1.247 . S
C129 O139 1.272 . S
O130 Co126 2.004 . S
O130 C135 1.259 . S
Co131 O132 2.061 . S
Co131 O137 2.052 . S
Co131 O139 2.135 . S
O132 Co131 2.061 . S
O132 C135 1.235 . S
C133 O136 1.238 . S
C133 O137 1.241 . S
C134 O127 1.247 . S
C134 O128 1.261 . S
C135 O130 1.259 . S
C135 O132 1.235 . S
O136 Co126 2.021 . S
O136 C133 1.238 . S
O137 Co131 2.052 . S
O137 C133 1.241 . S
O138 Co126 2.137 . S
O138 C129 1.247 . S
O139 Co126 2.244 . S
O139 C129 1.272 . S
O139 Co131 2.135 . S
Co140 O141 2.216 . S
Co140 O142 2.091 . S
Co140 O144 2.004 . S
Co140 O150 2.021 . S
Co140 O152 2.137 . S
Co140 O153 2.244 . S
O141 Co140 2.216 . S
O141 C148 1.247 . S
O142 Co140 2.091 . S
O142 C148 1.261 . S
C143 O152 1.247 . S
C143 O153 1.272 . S
O144 Co140 2.004 . S
O144 C149 1.259 . S
Co145 O146 2.061 . S
Co145 O151 2.052 . S
Co145 O153 2.135 . S
O146 Co145 2.061 . S
O146 C149 1.235 . S
C147 O150 1.238 . S
C147 O151 1.241 . S
C148 O141 1.247 . S
C148 O142 1.261 . S
C149 O144 1.259 . S
C149 O146 1.235 . S
O150 Co140 2.021 . S
O150 C147 1.238 . S
O151 Co145 2.052 . S
O151 C147 1.241 . S
O152 Co140 2.137 . S
O152 C143 1.247 . S
O153 Co140 2.244 . S
O153 C143 1.272 . S
O153 Co145 2.135 . S
Co154 O155 2.216 . S
Co154 O156 2.091 . S
Co154 O158 2.004 . S
Co154 O164 2.021 . S
Co154 O166 2.137 . S
Co154 O167 2.244 . S
O155 Co154 2.216 . S
O155 C162 1.247 . S
O156 Co154 2.091 . S
O156 C162 1.261 . S
C157 O166 1.247 . S
C157 O167 1.272 . S
O158 Co154 2.004 . S
O158 C163 1.259 . S
Co159 O160 2.061 . S
Co159 O165 2.052 . S
Co159 O167 2.135 . S
O160 Co159 2.061 . S
O160 C163 1.235 . S
C161 O164 1.238 . S
C161 O165 1.241 . S
C162 O155 1.247 . S
C162 O156 1.261 . S
C163 O158 1.259 . S
C163 O160 1.235 . S
O164 Co154 2.021 . S
O164 C161 1.238 . S
O165 Co159 2.052 . S
O165 C161 1.241 . S
O166 Co154 2.137 . S
O166 C157 1.247 . S
O167 Co154 2.244 . S
O167 C157 1.272 . S
O167 Co159 2.135 . S
Co168 O169 2.216 . S
Co168 O170 2.091 . S
Co168 O172 2.004 . S
Co168 O178 2.021 . S
Co168 O180 2.137 . S
Co168 O181 2.244 . S
O169 Co168 2.216 . S
O169 C176 1.247 . S
O170 Co168 2.091 . S
O170 C176 1.261 . S
C171 O180 1.247 . S
C171 O181 1.272 . S
O172 Co168 2.004 . S
O172 C177 1.259 . S
Co173 O174 2.061 . S
Co173 O179 2.052 . S
Co173 O181 2.135 . S
O174 Co173 2.061 . S
O174 C177 1.235 . S
C175 O178 1.238 . S
C175 O179 1.241 . S
C176 O169 1.247 . S
C176 O170 1.261 . S
C177 O172 1.259 . S
C177 O174 1.235 . S
O178 Co168 2.021 . S
O178 C175 1.238 . S
O179 Co173 2.052 . S
O179 C175 1.241 . S
O180 Co168 2.137 . S
O180 C171 1.247 . S
O181 Co168 2.244 . S
O181 C171 1.272 . S
O181 Co173 2.135 . S
Co182 O183 2.216 . S
Co182 O184 2.091 . S
Co182 O186 2.004 . S
Co182 O192 2.021 . S
Co182 O194 2.137 . S
Co182 O195 2.244 . S
O183 Co182 2.216 . S
O183 C190 1.247 . S
O184 Co182 2.091 . S
O184 C190 1.261 . S
C185 O194 1.247 . S
C185 O195 1.272 . S
O186 Co182 2.004 . S
O186 C191 1.259 . S
Co187 O188 2.061 . S
Co187 O193 2.052 . S
Co187 O195 2.135 . S
O188 Co187 2.061 . S
O188 C191 1.235 . S
C189 O192 1.238 . S
C189 O193 1.241 . S
C190 O183 1.247 . S
C190 O184 1.261 . S
C191 O186 1.259 . S
C191 O188 1.235 . S
O192 Co182 2.021 . S
O192 C189 1.238 . S
O193 Co187 2.052 . S
O193 C189 1.241 . S
O194 Co182 2.137 . S
O194 C185 1.247 . S
O195 Co182 2.244 . S
O195 C185 1.272 . S
O195 Co187 2.135 . S
Co196 O197 2.216 . S
Co196 O198 2.091 . S
Co196 O200 2.004 . S
Co196 O206 2.021 . S
Co196 O208 2.137 . S
Co196 O209 2.244 . S
O197 Co196 2.216 . S
O197 C204 1.247 . S
O198 Co196 2.091 . S
O198 C204 1.261 . S
C199 O208 1.247 . S
C199 O209 1.272 . S
O200 Co196 2.004 . S
O200 C205 1.259 . S
Co201 O202 2.061 . S
Co201 O207 2.052 . S
Co201 O209 2.135 . S
O202 Co201 2.061 . S
O202 C205 1.235 . S
C203 O206 1.238 . S
C203 O207 1.241 . S
C204 O197 1.247 . S
C204 O198 1.261 . S
C205 O200 1.259 . S
C205 O202 1.235 . S
O206 Co196 2.021 . S
O206 C203 1.238 . S
O207 Co201 2.052 . S
O207 C203 1.241 . S
O208 Co196 2.137 . S
O208 C199 1.247 . S
O209 Co196 2.244 . S
O209 C199 1.272 . S
O209 Co201 2.135 . S
Co210 O211 2.216 . S
Co210 O212 2.091 . S
Co210 O214 2.004 . S
Co210 O220 2.021 . S
Co210 O222 2.137 . S
Co210 O223 2.244 . S
O211 Co210 2.216 . S
O211 C218 1.247 . S
O212 Co210 2.091 . S
O212 C218 1.261 . S
C213 O222 1.247 . S
C213 O223 1.272 . S
O214 Co210 2.004 . S
O214 C219 1.259 . S
Co215 O216 2.061 . S
Co215 O221 2.052 . S
Co215 O223 2.135 . S
O216 Co215 2.061 . S
O216 C219 1.235 . S
C217 O220 1.238 . S
C217 O221 1.241 . S
C218 O211 1.247 . S
C218 O212 1.261 . S
C219 O214 1.259 . S
C219 O216 1.235 . S
O220 Co210 2.021 . S
O220 C217 1.238 . S
O221 Co215 2.052 . S
O221 C217 1.241 . S
O222 Co210 2.137 . S
O222 C213 1.247 . S
O223 Co210 2.244 . S
O223 C213 1.272 . S
O223 Co215 2.135 . S
Co224 O225 2.216 . S
Co224 O226 2.091 . S
Co224 O228 2.004 . S
Co224 O234 2.021 . S
Co224 O236 2.137 . S
Co224 O237 2.244 . S
O225 Co224 2.216 . S
O225 C232 1.247 . S
O226 Co224 2.091 . S
O226 C232 1.261 . S
C227 O236 1.247 . S
C227 O237 1.272 . S
O228 Co224 2.004 . S
O228 C233 1.259 . S
Co229 O230 2.061 . S
Co229 O235 2.052 . S
Co229 O237 2.135 . S
O230 Co229 2.061 . S
O230 C233 1.235 . S
C231 O234 1.238 . S
C231 O235 1.241 . S
C232 O225 1.247 . S
C232 O226 1.261 . S
C233 O228 1.259 . S
C233 O230 1.235 . S
O234 Co224 2.021 . S
O234 C231 1.238 . S
O235 Co229 2.052 . S
O235 C231 1.241 . S
O236 Co224 2.137 . S
O236 C227 1.247 . S
O237 Co224 2.244 . S
O237 C227 1.272 . S
O237 Co229 2.135 . S
Co238 O239 2.216 . S
Co238 O240 2.091 . S
Co238 O242 2.004 . S
Co238 O248 2.021 . S
Co238 O250 2.137 . S
Co238 O251 2.244 . S
O239 Co238 2.216 . S
O239 C246 1.247 . S
O240 Co238 2.091 . S
O240 C246 1.261 . S
C241 O250 1.247 . S
C241 O251 1.272 . S
O242 Co238 2.004 . S
O242 C247 1.259 . S
Co243 O244 2.061 . S
Co243 O249 2.052 . S
Co243 O251 2.135 . S
O244 Co243 2.061 . S
O244 C247 1.235 . S
C245 O248 1.238 . S
C245 O249 1.241 . S
C246 O239 1.247 . S
C246 O240 1.261 . S
C247 O242 1.259 . S
C247 O244 1.235 . S
O248 Co238 2.021 . S
O248 C245 1.238 . S
O249 Co243 2.052 . S
O249 C245 1.241 . S
O250 Co238 2.137 . S
O250 C241 1.247 . S
O251 Co238 2.244 . S
O251 C241 1.272 . S
O251 Co243 2.135 . S
Co252 O253 2.216 . S
Co252 O254 2.091 . S
Co252 O256 2.004 . S
Co252 O262 2.021 . S
Co252 O264 2.137 . S
Co252 O265 2.244 . S
O253 Co252 2.216 . S
O253 C260 1.247 . S
O254 Co252 2.091 . S
O254 C260 1.261 . S
C255 O264 1.247 . S
C255 O265 1.272 . S
O256 Co252 2.004 . S
O256 C261 1.259 . S
Co257 O258 2.061 . S
Co257 O263 2.052 . S
Co257 O265 2.135 . S
O258 Co257 2.061 . S
O258 C261 1.235 . S
C259 O262 1.238 . S
C259 O263 1.241 . S
C260 O253 1.247 . S
C260 O254 1.261 . S
C261 O256 1.259 . S
C261 O258 1.235 . S
O262 Co252 2.021 . S
O262 C259 1.238 . S
O263 Co257 2.052 . S
O263 C259 1.241 . S
O264 Co252 2.137 . S
O264 C255 1.247 . S
O265 Co252 2.244 . S
O265 C255 1.272 . S
O265 Co257 2.135 . S
Co266 O267 2.216 . S
Co266 O268 2.091 . S
Co266 O270 2.004 . S
Co266 O276 2.021 . S
Co266 O278 2.137 . S
Co266 O279 2.244 . S
O267 Co266 2.216 . S
O267 C274 1.247 . S
O268 Co266 2.091 . S
O268 C274 1.261 . S
C269 O278 1.247 . S
C269 O279 1.272 . S
O270 Co266 2.004 . S
O270 C275 1.259 . S
Co271 O272 2.061 . S
Co271 O277 2.052 . S
Co271 O279 2.135 . S
O272 Co271 2.061 . S
O272 C275 1.235 . S
C273 O276 1.238 . S
C273 O277 1.241 . S
C274 O267 1.247 . S
C274 O268 1.261 . S
C275 O270 1.259 . S
C275 O272 1.235 . S
O276 Co266 2.021 . S
O276 C273 1.238 . S
O277 Co271 2.052 . S
O277 C273 1.241 . S
O278 Co266 2.137 . S
O278 C269 1.247 . S
O279 Co266 2.244 . S
O279 C269 1.272 . S
O279 Co271 2.135 . S
Co280 O281 2.216 . S
Co280 O282 2.091 . S
Co280 O284 2.004 . S
Co280 O290 2.021 . S
Co280 O292 2.137 . S
Co280 O293 2.244 . S
O281 Co280 2.216 . S
O281 C288 1.247 . S
O282 Co280 2.091 . S
O282 C288 1.261 . S
C283 O292 1.247 . S
C283 O293 1.272 . S
O284 Co280 2.004 . S
O284 C289 1.259 . S
Co285 O286 2.061 . S
Co285 O291 2.052 . S
Co285 O293 2.135 . S
O286 Co285 2.061 . S
O286 C289 1.235 . S
C287 O290 1.238 . S
C287 O291 1.241 . S
C288 O281 1.247 . S
C288 O282 1.261 . S
C289 O284 1.259 . S
C289 O286 1.235 . S
O290 Co280 2.021 . S
O290 C287 1.238 . S
O291 Co285 2.052 . S
O291 C287 1.241 . S
O292 Co280 2.137 . S
O292 C283 1.247 . S
O293 Co280 2.244 . S
O293 C283 1.272 . S
O293 Co285 2.135 . S
Co294 O295 2.216 . S
Co294 O296 2.091 . S
Co294 O298 2.004 . S
Co294 O304 2.021 . S
Co294 O306 2.137 . S
Co294 O307 2.244 . S
O295 Co294 2.216 . S
O295 C302 1.247 . S
O296 Co294 2.091 . S
O296 C302 1.261 . S
C297 O306 1.247 . S
C297 O307 1.272 . S
O298 Co294 2.004 . S
O298 C303 1.259 . S
Co299 O300 2.061 . S
Co299 O305 2.052 . S
Co299 O307 2.135 . S
O300 Co299 2.061 . S
O300 C303 1.235 . S
C301 O304 1.238 . S
C301 O305 1.241 . S
C302 O295 1.247 . S
C302 O296 1.261 . S
C303 O298 1.259 . S
C303 O300 1.235 . S
O304 Co294 2.021 . S
O304 C301 1.238 . S
O305 Co299 2.052 . S
O305 C301 1.241 . S
O306 Co294 2.137 . S
O306 C297 1.247 . S
O307 Co294 2.244 . S
O307 C297 1.272 . S
O307 Co299 2.135 . S
Co308 O309 2.216 . S
Co308 O310 2.091 . S
Co308 O312 2.004 . S
Co308 O318 2.021 . S
Co308 O320 2.137 . S
Co308 O321 2.244 . S
O309 Co308 2.216 . S
O309 C316 1.247 . S
O310 Co308 2.091 . S
O310 C316 1.261 . S
C311 O320 1.247 . S
C311 O321 1.272 . S
O312 Co308 2.004 . S
O312 C317 1.259 . S
Co313 O314 2.061 . S
Co313 O319 2.052 . S
Co313 O321 2.135 . S
O314 Co313 2.061 . S
O314 C317 1.235 . S
C315 O318 1.238 . S
C315 O319 1.241 . S
C316 O309 1.247 . S
C316 O310 1.261 . S
C317 O312 1.259 . S
C317 O314 1.235 . S
O318 Co308 2.021 . S
O318 C315 1.238 . S
O319 Co313 2.052 . S
O319 C315 1.241 . S
O320 Co308 2.137 . S
O320 C311 1.247 . S
O321 Co308 2.244 . S
O321 C311 1.272 . S
O321 Co313 2.135 . S
Co322 O323 2.216 . S
Co322 O324 2.091 . S
Co322 O326 2.004 . S
Co322 O332 2.021 . S
Co322 O334 2.137 . S
Co322 O335 2.244 . S
O323 Co322 2.216 . S
O323 C330 1.247 . S
O324 Co322 2.091 . S
O324 C330 1.261 . S
C325 O334 1.247 . S
C325 O335 1.272 . S
O326 Co322 2.004 . S
O326 C331 1.259 . S
Co327 O328 2.061 . S
Co327 O333 2.052 . S
Co327 O335 2.135 . S
O328 Co327 2.061 . S
O328 C331 1.235 . S
C329 O332 1.238 . S
C329 O333 1.241 . S
C330 O323 1.247 . S
C330 O324 1.261 . S
C331 O326 1.259 . S
C331 O328 1.235 . S
O332 Co322 2.021 . S
O332 C329 1.238 . S
O333 Co327 2.052 . S
O333 C329 1.241 . S
O334 Co322 2.137 . S
O334 C325 1.247 . S
O335 Co322 2.244 . S
O335 C325 1.272 . S
O335 Co327 2.135 . S
Co336 O337 2.216 . S
Co336 O338 2.091 . S
Co336 O340 2.004 . S
Co336 O346 2.021 . S
Co336 O348 2.137 . S
Co336 O349 2.244 . S
O337 Co336 2.216 . S
O337 C344 1.247 . S
O338 Co336 2.091 . S
O338 C344 1.261 . S
C339 O348 1.247 . S
C339 O349 1.272 . S
O340 Co336 2.004 . S
O340 C345 1.259 . S
Co341 O342 2.061 . S
Co341 O347 2.052 . S
Co341 O349 2.135 . S
O342 Co341 2.061 . S
O342 C345 1.235 . S
C343 O346 1.238 . S
C343 O347 1.241 . S
C344 O337 1.247 . S
C344 O338 1.261 . S
C345 O340 1.259 . S
C345 O342 1.235 . S
O346 Co336 2.021 . S
O346 C343 1.238 . S
O347 Co341 2.052 . S
O347 C343 1.241 . S
O348 Co336 2.137 . S
O348 C339 1.247 . S
O349 Co336 2.244 . S
O349 C339 1.272 . S
O349 Co341 2.135 . S
Co350 O351 2.216 . S
Co350 O352 2.091 . S
Co350 O354 2.004 . S
Co350 O360 2.021 . S
Co350 O362 2.137 . S
Co350 O363 2.244 . S
O351 Co350 2.216 . S
O351 C358 1.247 . S
O352 Co350 2.091 . S
O352 C358 1.261 . S
C353 O362 1.247 . S
C353 O363 1.272 . S
O354 Co350 2.004 . S
O354 C359 1.259 . S
Co355 O356 2.061 . S
Co355 O361 2.052 . S
Co355 O363 2.135 . S
O356 Co355 2.061 . S
O356 C359 1.235 . S
C357 O360 1.238 . S
C357 O361 1.241 . S
C358 O351 1.247 . S
C358 O352 1.261 . S
C359 O354 1.259 . S
C359 O356 1.235 . S
O360 Co350 2.021 . S
O360 C357 1.238 . S
O361 Co355 2.052 . S
O361 C357 1.241 . S
O362 Co350 2.137 . S
O362 C353 1.247 . S
O363 Co350 2.244 . S
O363 C353 1.272 . S
O363 Co355 2.135 . S
Co364 O365 2.216 . S
Co364 O366 2.091 . S
Co364 O368 2.004 . S
Co364 O374 2.021 . S
Co364 O376 2.137 . S
Co364 O377 2.244 . S
O365 Co364 2.216 . S
O365 C372 1.247 . S
O366 Co364 2.091 . S
O366 C372 1.261 . S
C367 O376 1.247 . S
C367 O377 1.272 . S
O368 Co364 2.004 . S
O368 C373 1.259 . S
Co369 O370 2.061 . S
Co369 O375 2.052 . S
Co369 O377 2.135 . S
O370 Co369 2.061 . S
O370 C373 1.235 . S
C371 O374 1.238 . S
C371 O375 1.241 . S
C372 O365 1.247 . S
C372 O366 1.261 . S
C373 O368 1.259 . S
C373 O370 1.235 . S
O374 Co364 2.021 . S
O374 C371 1.238 . S
O375 Co369 2.052 . S
O375 C371 1.241 . S
O376 Co364 2.137 . S
O376 C367 1.247 . S
O377 Co364 2.244 . S
O377 C367 1.272 . S
O377 Co369 2.135 . S
Co378 O379 2.216 . S
Co378 O380 2.091 . S
Co378 O382 2.004 . S
Co378 O388 2.021 . S
Co378 O390 2.137 . S
Co378 O391 2.244 . S
O379 Co378 2.216 . S
O379 C386 1.247 . S
O380 Co378 2.091 . S
O380 C386 1.261 . S
C381 O390 1.247 . S
C381 O391 1.272 . S
O382 Co378 2.004 . S
O382 C387 1.259 . S
Co383 O384 2.061 . S
Co383 O389 2.052 . S
Co383 O391 2.135 . S
O384 Co383 2.061 . S
O384 C387 1.235 . S
C385 O388 1.238 . S
C385 O389 1.241 . S
C386 O379 1.247 . S
C386 O380 1.261 . S
C387 O382 1.259 . S
C387 O384 1.235 . S
O388 Co378 2.021 . S
O388 C385 1.238 . S
O389 Co383 2.052 . S
O389 C385 1.241 . S
O390 Co378 2.137 . S
O390 C381 1.247 . S
O391 Co378 2.244 . S
O391 C381 1.272 . S
O391 Co383 2.135 . S
Co392 O393 2.216 . S
Co392 O394 2.091 . S
Co392 O396 2.004 . S
Co392 O402 2.021 . S
Co392 O404 2.137 . S
Co392 O405 2.244 . S
O393 Co392 2.216 . S
O393 C400 1.247 . S
O394 Co392 2.091 . S
O394 C400 1.261 . S
C395 O404 1.247 . S
C395 O405 1.272 . S
O396 Co392 2.004 . S
O396 C401 1.259 . S
Co397 O398 2.061 . S
Co397 O403 2.052 . S
Co397 O405 2.135 . S
O398 Co397 2.061 . S
O398 C401 1.235 . S
C399 O402 1.238 . S
C399 O403 1.241 . S
C400 O393 1.247 . S
C400 O394 1.261 . S
C401 O396 1.259 . S
C401 O398 1.235 . S
O402 Co392 2.021 . S
O402 C399 1.238 . S
O403 Co397 2.052 . S
O403 C399 1.241 . S
O404 Co392 2.137 . S
O404 C395 1.247 . S
O405 Co392 2.244 . S
O405 C395 1.272 . S
O405 Co397 2.135 . S
Co406 O407 2.216 . S
Co406 O408 2.091 . S
Co406 O410 2.004 . S
Co406 O416 2.021 . S
Co406 O418 2.137 . S
Co406 O419 2.244 . S
O407 Co406 2.216 . S
O407 C414 1.247 . S
O408 Co406 2.091 . S
O408 C414 1.261 . S
C409 O418 1.247 . S
C409 O419 1.272 . S
O410 Co406 2.004 . S
O410 C415 1.259 . S
Co411 O412 2.061 . S
Co411 O417 2.052 . S
Co411 O419 2.135 . S
O412 Co411 2.061 . S
O412 C415 1.235 . S
C413 O416 1.238 . S
C413 O417 1.241 . S
C414 O407 1.247 . S
C414 O408 1.261 . S
C415 O410 1.259 . S
C415 O412 1.235 . S
O416 Co406 2.021 . S
O416 C413 1.238 . S
O417 Co411 2.052 . S
O417 C413 1.241 . S
O418 Co406 2.137 . S
O418 C409 1.247 . S
O419 Co406 2.244 . S
O419 C409 1.272 . S
O419 Co411 2.135 . S
Co420 O421 2.216 . S
Co420 O422 2.091 . S
Co420 O424 2.004 . S
Co420 O430 2.021 . S
Co420 O432 2.137 . S
Co420 O433 2.244 . S
O421 Co420 2.216 . S
O421 C428 1.247 . S
O422 Co420 2.091 . S
O422 C428 1.261 . S
C423 O432 1.247 . S
C423 O433 1.272 . S
O424 Co420 2.004 . S
O424 C429 1.259 . S
Co425 O426 2.061 . S
Co425 O431 2.052 . S
Co425 O433 2.135 . S
O426 Co425 2.061 . S
O426 C429 1.235 . S
C427 O430 1.238 . S
C427 O431 1.241 . S
C428 O421 1.247 . S
C428 O422 1.261 . S
C429 O424 1.259 . S
C429 O426 1.235 . S
O430 Co420 2.021 . S
O430 C427 1.238 . S
O431 Co425 2.052 . S
O431 C427 1.241 . S
O432 Co420 2.137 . S
O432 C423 1.247 . S
O433 Co420 2.244 . S
O433 C423 1.272 . S
O433 Co425 2.135 . S
Co434 O435 2.216 . S
Co434 O436 2.091 . S
Co434 O438 2.004 . S
Co434 O444 2.021 . S
Co434 O446 2.137 . S
Co434 O447 2.244 . S
O435 Co434 2.216 . S
O435 C442 1.247 . S
O436 Co434 2.091 . S
O436 C442 1.261 . S
C437 O446 1.247 . S
C437 O447 1.272 . S
O438 Co434 2.004 . S
O438 C443 1.259 . S
Co439 O440 2.061 . S
Co439 O445 2.052 . S
Co439 O447 2.135 . S
O440 Co439 2.061 . S
O440 C443 1.235 . S
C441 O444 1.238 . S
C441 O445 1.241 . S
C442 O435 1.247 . S
C442 O436 1.261 . S
C443 O438 1.259 . S
C443 O440 1.235 . S
O444 Co434 2.021 . S
O444 C441 1.238 . S
O445 Co439 2.052 . S
O445 C441 1.241 . S
O446 Co434 2.137 . S
O446 C437 1.247 . S
O447 Co434 2.244 . S
O447 C437 1.272 . S
O447 Co439 2.135 . S
Co448 O449 2.216 . S
Co448 O450 2.091 . S
Co448 O452 2.004 . S
Co448 O458 2.021 . S
Co448 O460 2.137 . S
Co448 O461 2.244 . S
O449 Co448 2.216 . S
O449 C456 1.247 . S
O450 Co448 2.091 . S
O450 C456 1.261 . S
C451 O460 1.247 . S
C451 O461 1.272 . S
O452 Co448 2.004 . S
O452 C457 1.259 . S
Co453 O454 2.061 . S
Co453 O459 2.052 . S
Co453 O461 2.135 . S
O454 Co453 2.061 . S
O454 C457 1.235 . S
C455 O458 1.238 . S
C455 O459 1.241 . S
C456 O449 1.247 . S
C456 O450 1.261 . S
C457 O452 1.259 . S
C457 O454 1.235 . S
O458 Co448 2.021 . S
O458 C455 1.238 . S
O459 Co453 2.052 . S
O459 C455 1.241 . S
O460 Co448 2.137 . S
O460 C451 1.247 . S
O461 Co448 2.244 . S
O461 C451 1.272 . S
O461 Co453 2.135 . S
Co462 O463 2.216 . S
Co462 O464 2.091 . S
Co462 O466 2.004 . S
Co462 O472 2.021 . S
Co462 O474 2.137 . S
Co462 O475 2.244 . S
O463 Co462 2.216 . S
O463 C470 1.247 . S
O464 Co462 2.091 . S
O464 C470 1.261 . S
C465 O474 1.247 . S
C465 O475 1.272 . S
O466 Co462 2.004 . S
O466 C471 1.259 . S
Co467 O468 2.061 . S
Co467 O473 2.052 . S
Co467 O475 2.135 . S
O468 Co467 2.061 . S
O468 C471 1.235 . S
C469 O472 1.238 . S
C469 O473 1.241 . S
C470 O463 1.247 . S
C470 O464 1.261 . S
C471 O466 1.259 . S
C471 O468 1.235 . S
O472 Co462 2.021 . S
O472 C469 1.238 . S
O473 Co467 2.052 . S
O473 C469 1.241 . S
O474 Co462 2.137 . S
O474 C465 1.247 . S
O475 Co462 2.244 . S
O475 C465 1.272 . S
O475 Co467 2.135 . S
Co476 O477 2.216 . S
Co476 O478 2.091 . S
Co476 O480 2.004 . S
Co476 O486 2.021 . S
Co476 O488 2.137 . S
Co476 O489 2.244 . S
O477 Co476 2.216 . S
O477 C484 1.247 . S
O478 Co476 2.091 . S
O478 C484 1.261 . S
C479 O488 1.247 . S
C479 O489 1.272 . S
O480 Co476 2.004 . S
O480 C485 1.259 . S
Co481 O482 2.061 . S
Co481 O487 2.052 . S
Co481 O489 2.135 . S
O482 Co481 2.061 . S
O482 C485 1.235 . S
C483 O486 1.238 . S
C483 O487 1.241 . S
C484 O477 1.247 . S
C484 O478 1.261 . S
C485 O480 1.259 . S
C485 O482 1.235 . S
O486 Co476 2.021 . S
O486 C483 1.238 . S
O487 Co481 2.052 . S
O487 C483 1.241 . S
O488 Co476 2.137 . S
O488 C479 1.247 . S
O489 Co476 2.244 . S
O489 C479 1.272 . S
O489 Co481 2.135 . S
Co490 O491 2.216 . S
Co490 O492 2.091 . S
Co490 O494 2.004 . S
Co490 O500 2.021 . S
Co490 O502 2.137 . S
Co490 O503 2.244 . S
O491 Co490 2.216 . S
O491 C498 1.247 . S
O492 Co490 2.091 . S
O492 C498 1.261 . S
C493 O502 1.247 . S
C493 O503 1.272 . S
O494 Co490 2.004 . S
O494 C499 1.259 . S
Co495 O496 2.061 . S
Co495 O501 2.052 . S
Co495 O503 2.135 . S
O496 Co495 2.061 . S
O496 C499 1.235 . S
C497 O500 1.238 . S
C497 O501 1.241 . S
C498 O491 1.247 . S
C498 O492 1.261 . S
C499 O494 1.259 . S
C499 O496 1.235 . S
O500 Co490 2.021 . S
O500 C497 1.238 . S
O501 Co495 2.052 . S
O501 C497 1.241 . S
O502 Co490 2.137 . S
O502 C493 1.247 . S
O503 Co490 2.244 . S
O503 C493 1.272 . S
O503 Co495 2.135 . S
Co504 O505 2.216 . S
Co504 O506 2.091 . S
Co504 O508 2.004 . S
Co504 O514 2.021 . S
Co504 O516 2.137 . S
Co504 O517 2.244 . S
O505 Co504 2.216 . S
O505 C512 1.247 . S
O506 Co504 2.091 . S
O506 C512 1.261 . S
C507 O516 1.247 . S
C507 O517 1.272 . S
O508 Co504 2.004 . S
O508 C513 1.259 . S
Co509 O510 2.061 . S
Co509 O515 2.052 . S
Co509 O517 2.135 . S
O510 Co509 2.061 . S
O510 C513 1.235 . S
C511 O514 1.238 . S
C511 O515 1.241 . S
C512 O505 1.247 . S
C512 O506 1.261 . S
C513 O508 1.259 . S
C513 O510 1.235 . S
O514 Co504 2.021 . S
O514 C511 1.238 . S
O515 Co509 2.052 . S
O515 C511 1.241 . S
O516 Co504 2.137 . S
O516 C507 1.247 . S
O517 Co504 2.244 . S
O517 C507 1.272 . S
O517 Co509 2.135 . S
Co518 O519 2.216 . S
Co518 O520 2.091 . S
Co518 O522 2.004 . S
Co518 O528 2.021 . S
Co518 O530 2.137 . S
Co518 O531 2.244 . S
O519 Co518 2.216 . S
O519 C526 1.247 . S
O520 Co518 2.091 . S
O520 C526 1.261 . S
C521 O530 1.247 . S
C521 O531 1.272 . S
O522 Co518 2.004 . S
O522 C527 1.259 . S
Co523 O524 2.061 . S
Co523 O529 2.052 . S
Co523 O531 2.135 . S
O524 Co523 2.061 . S
O524 C527 1.235 . S
C525 O528 1.238 . S
C525 O529 1.241 . S
C526 O519 1.247 . S
C526 O520 1.261 . S
C527 O522 1.259 . S
C527 O524 1.235 . S
O528 Co518 2.021 . S
O528 C525 1.238 . S
O529 Co523 2.052 . S
O529 C525 1.241 . S
O530 Co518 2.137 . S
O530 C521 1.247 . S
O531 Co518 2.244 . S
O531 C521 1.272 . S
O531 Co523 2.135 . S
Co532 O533 2.216 . S
Co532 O534 2.091 . S
Co532 O536 2.004 . S
Co532 O542 2.021 . S
Co532 O544 2.137 . S
Co532 O545 2.244 . S
O533 Co532 2.216 . S
O533 C540 1.247 . S
O534 Co532 2.091 . S
O534 C540 1.261 . S
C535 O544 1.247 . S
C535 O545 1.272 . S
O536 Co532 2.004 . S
O536 C541 1.259 . S
Co537 O538 2.061 . S
Co537 O543 2.052 . S
Co537 O545 2.135 . S
O538 Co537 2.061 . S
O538 C541 1.235 . S
C539 O542 1.238 . S
C539 O543 1.241 . S
C540 O533 1.247 . S
C540 O534 1.261 . S
C541 O536 1.259 . S
C541 O538 1.235 . S
O542 Co532 2.021 . S
O542 C539 1.238 . S
O543 Co537 2.052 . S
O543 C539 1.241 . S
O544 Co532 2.137 . S
O544 C535 1.247 . S
O545 Co532 2.244 . S
O545 C535 1.272 . S
O545 Co537 2.135 . S
Co546 O547 2.216 . S
Co546 O548 2.091 . S
Co546 O550 2.004 . S
Co546 O556 2.021 . S
Co546 O558 2.137 . S
Co546 O559 2.244 . S
O547 Co546 2.216 . S
O547 C554 1.247 . S
O548 Co546 2.091 . S
O548 C554 1.261 . S
C549 O558 1.247 . S
C549 O559 1.272 . S
O550 Co546 2.004 . S
O550 C555 1.259 . S
Co551 O552 2.061 . S
Co551 O557 2.052 . S
Co551 O559 2.135 . S
O552 Co551 2.061 . S
O552 C555 1.235 . S
C553 O556 1.238 . S
C553 O557 1.241 . S
C554 O547 1.247 . S
C554 O548 1.261 . S
C555 O550 1.259 . S
C555 O552 1.235 . S
O556 Co546 2.021 . S
O556 C553 1.238 . S
O557 Co551 2.052 . S
O557 C553 1.241 . S
O558 Co546 2.137 . S
O558 C549 1.247 . S
O559 Co546 2.244 . S
O559 C549 1.272 . S
O559 Co551 2.135 . S
Co560 O561 2.216 . S
Co560 O562 2.091 . S
Co560 O564 2.004 . S
Co560 O570 2.021 . S
Co560 O572 2.137 . S
Co560 O573 2.244 . S
O561 Co560 2.216 . S
O561 C568 1.247 . S
O562 Co560 2.091 . S
O562 C568 1.261 . S
C563 O572 1.247 . S
C563 O573 1.272 . S
O564 Co560 2.004 . S
O564 C569 1.259 . S
Co565 O566 2.061 . S
Co565 O571 2.052 . S
Co565 O573 2.135 . S
O566 Co565 2.061 . S
O566 C569 1.235 . S
C567 O570 1.238 . S
C567 O571 1.241 . S
C568 O561 1.247 . S
C568 O562 1.261 . S
C569 O564 1.259 . S
C569 O566 1.235 . S
O570 Co560 2.021 . S
O570 C567 1.238 . S
O571 Co565 2.052 . S
O571 C567 1.241 . S
O572 Co560 2.137 . S
O572 C563 1.247 . S
O573 Co560 2.244 . S
O573 C563 1.272 . S
O573 Co565 2.135 . S
Co574 O575 2.216 . S
Co574 O576 2.091 . S
Co574 O578 2.004 . S
Co574 O584 2.021 . S
Co574 O586 2.137 . S
Co574 O587 2.244 . S
O575 Co574 2.216 . S
O575 C582 1.247 . S
O576 Co574 2.091 . S
O576 C582 1.261 . S
C577 O586 1.247 . S
C577 O587 1.272 . S
O578 Co574 2.004 . S
O578 C583 1.259 . S
Co579 O580 2.061 . S
Co579 O585 2.052 . S
Co579 O587 2.135 . S
O580 Co579 2.061 . S
O580 C583 1.235 . S
C581 O584 1.238 . S
C581 O585 1.241 . S
C582 O575 1.247 . S
C582 O576 1.261 . S
C583 O578 1.259 . S
C583 O580 1.235 . S
O584 Co574 2.021 . S
O584 C581 1.238 . S
O585 Co579 2.052 . S
O585 C581 1.241 . S
O586 Co574 2.137 . S
O586 C577 1.247 . S
O587 Co574 2.244 . S
O587 C577 1.272 . S
O587 Co579 2.135 . S
Co588 O589 2.216 . S
Co588 O590 2.091 . S
Co588 O592 2.004 . S
Co588 O598 2.021 . S
Co588 O600 2.137 . S
Co588 O601 2.244 . S
O589 Co588 2.216 . S
O589 C596 1.247 . S
O590 Co588 2.091 . S
O590 C596 1.261 . S
C591 O600 1.247 . S
C591 O601 1.272 . S
O592 Co588 2.004 . S
O592 C597 1.259 . S
Co593 O594 2.061 . S
Co593 O599 2.052 . S
Co593 O601 2.135 . S
O594 Co593 2.061 . S
O594 C597 1.235 . S
C595 O598 1.238 . S
C595 O599 1.241 . S
C596 O589 1.247 . S
C596 O590 1.261 . S
C597 O592 1.259 . S
C597 O594 1.235 . S
O598 Co588 2.021 . S
O598 C595 1.238 . S
O599 Co593 2.052 . S
O599 C595 1.241 . S
O600 Co588 2.137 . S
O600 C591 1.247 . S
O601 Co588 2.244 . S
O601 C591 1.272 . S
O601 Co593 2.135 . S
Co602 O603 2.216 . S
Co602 O604 2.091 . S
Co602 O606 2.004 . S
Co602 O612 2.021 . S
Co602 O614 2.137 . S
Co602 O615 2.244 . S
O603 Co602 2.216 . S
O603 C610 1.247 . S
O604 Co602 2.091 . S
O604 C610 1.261 . S
C605 O614 1.247 . S
C605 O615 1.272 . S
O606 Co602 2.004 . S
O606 C611 1.259 . S
Co607 O608 2.061 . S
Co607 O613 2.052 . S
Co607 O615 2.135 . S
O608 Co607 2.061 . S
O608 C611 1.235 . S
C609 O612 1.238 . S
C609 O613 1.241 . S
C610 O603 1.247 . S
C610 O604 1.261 . S
C611 O606 1.259 . S
C611 O608 1.235 . S
O612 Co602 2.021 . S
O612 C609 1.238 . S
O613 Co607 2.052 . S
O613 C609 1.241 . S
O614 Co602 2.137 . S
O614 C605 1.247 . S
O615 Co602 2.244 . S
O615 C605 1.272 . S
O615 Co607 2.135 . S
Co616 O617 2.216 . S
Co616 O618 2.091 . S
Co616 O620 2.004 . S
Co616 O626 2.021 . S
Co616 O628 2.137 . S
Co616 O629 2.244 . S
O617 Co616 2.216 . S
O617 C624 1.247 . S
O618 Co616 2.091 . S
O618 C624 1.261 . S
C619 O628 1.247 . S
C619 O629 1.272 . S
O620 Co616 2.004 . S
O620 C625 1.259 . S
Co621 O622 2.061 . S
Co621 O627 2.052 . S
Co621 O629 2.135 . S
O622 Co621 2.061 . S
O622 C625 1.235 . S
C623 O626 1.238 . S
C623 O627 1.241 . S
C624 O617 1.247 . S
C624 O618 1.261 . S
C625 O620 1.259 . S
C625 O622 1.235 . S
O626 Co616 2.021 . S
O626 C623 1.238 . S
O627 Co621 2.052 . S
O627 C623 1.241 . S
O628 Co616 2.137 . S
O628 C619 1.247 . S
O629 Co616 2.244 . S
O629 C619 1.272 . S
O629 Co621 2.135 . S
Co630 O631 2.216 . S
Co630 O632 2.091 . S
Co630 O634 2.004 . S
Co630 O640 2.021 . S
Co630 O642 2.137 . S
Co630 O643 2.244 . S
O631 Co630 2.216 . S
O631 C638 1.247 . S
O632 Co630 2.091 . S
O632 C638 1.261 . S
C633 O642 1.247 . S
C633 O643 1.272 . S
O634 Co630 2.004 . S
O634 C639 1.259 . S
Co635 O636 2.061 . S
Co635 O641 2.052 . S
Co635 O643 2.135 . S
O636 Co635 2.061 . S
O636 C639 1.235 . S
C637 O640 1.238 . S
C637 O641 1.241 . S
C638 O631 1.247 . S
C638 O632 1.261 . S
C639 O634 1.259 . S
C639 O636 1.235 . S
O640 Co630 2.021 . S
O640 C637 1.238 . S
O641 Co635 2.052 . S
O641 C637 1.241 . S
O642 Co630 2.137 . S
O642 C633 1.247 . S
O643 Co630 2.244 . S
O643 C633 1.272 . S
O643 Co635 2.135 . S
Co644 O645 2.216 . S
Co644 O646 2.091 . S
Co644 O648 2.004 . S
Co644 O654 2.021 . S
Co644 O656 2.137 . S
Co644 O657 2.244 . S
O645 Co644 2.216 . S
O645 C652 1.247 . S
O646 Co644 2.091 . S
O646 C652 1.261 . S
C647 O656 1.247 . S
C647 O657 1.272 . S
O648 Co644 2.004 . S
O648 C653 1.259 . S
Co649 O650 2.061 . S
Co649 O655 2.052 . S
Co649 O657 2.135 . S
O650 Co649 2.061 . S
O650 C653 1.235 . S
C651 O654 1.238 . S
C651 O655 1.241 . S
C652 O645 1.247 . S
C652 O646 1.261 . S
C653 O648 1.259 . S
C653 O650 1.235 . S
O654 Co644 2.021 . S
O654 C651 1.238 . S
O655 Co649 2.052 . S
O655 C651 1.241 . S
O656 Co644 2.137 . S
O656 C647 1.247 . S
O657 Co644 2.244 . S
O657 C647 1.272 . S
O657 Co649 2.135 . S
Co658 O659 2.216 . S
Co658 O660 2.091 . S
Co658 O662 2.004 . S
Co658 O668 2.021 . S
Co658 O670 2.137 . S
Co658 O671 2.244 . S
O659 Co658 2.216 . S
O659 C666 1.247 . S
O660 Co658 2.091 . S
O660 C666 1.261 . S
C661 O670 1.247 . S
C661 O671 1.272 . S
O662 Co658 2.004 . S
O662 C667 1.259 . S
Co663 O664 2.061 . S
Co663 O669 2.052 . S
Co663 O671 2.135 . S
O664 Co663 2.061 . S
O664 C667 1.235 . S
C665 O668 1.238 . S
C665 O669 1.241 . S
C666 O659 1.247 . S
C666 O660 1.261 . S
C667 O662 1.259 . S
C667 O664 1.235 . S
O668 Co658 2.021 . S
O668 C665 1.238 . S
O669 Co663 2.052 . S
O669 C665 1.241 . S
O670 Co658 2.137 . S
O670 C661 1.247 . S
O671 Co658 2.244 . S
O671 C661 1.272 . S
O671 Co663 2.135 . S
Co672 O673 2.216 . S
Co672 O674 2.091 . S
Co672 O676 2.004 . S
Co672 O682 2.021 . S
Co672 O684 2.137 . S
Co672 O685 2.244 . S
O673 Co672 2.216 . S
O673 C680 1.247 . S
O674 Co672 2.091 . S
O674 C680 1.261 . S
C675 O684 1.247 . S
C675 O685 1.272 . S
O676 Co672 2.004 . S
O676 C681 1.259 . S
Co677 O678 2.061 . S
Co677 O683 2.052 . S
Co677 O685 2.135 . S
O678 Co677 2.061 . S
O678 C681 1.235 . S
C679 O682 1.238 . S
C679 O683 1.241 . S
C680 O673 1.247 . S
C680 O674 1.261 . S
C681 O676 1.259 . S
C681 O678 1.235 . S
O682 Co672 2.021 . S
O682 C679 1.238 . S
O683 Co677 2.052 . S
O683 C679 1.241 . S
O684 Co672 2.137 . S
O684 C675 1.247 . S
O685 Co672 2.244 . S
O685 C675 1.272 . S
O685 Co677 2.135 . S
Co686 O687 2.216 . S
Co686 O688 2.091 . S
Co686 O690 2.004 . S
Co686 O696 2.021 . S
Co686 O698 2.137 . S
Co686 O699 2.244 . S
O687 Co686 2.216 . S
O687 C694 1.247 . S
O688 Co686 2.091 . S
O688 C694 1.261 . S
C689 O698 1.247 . S
C689 O699 1.272 . S
O690 Co686 2.004 . S
O690 C695 1.259 . S
Co691 O692 2.061 . S
Co691 O697 2.052 . S
Co691 O699 2.135 . S
O692 Co691 2.061 . S
O692 C695 1.235 . S
C693 O696 1.238 . S
C693 O697 1.241 . S
C694 O687 1.247 . S
C694 O688 1.261 . S
C695 O690 1.259 . S
C695 O692 1.235 . S
O696 Co686 2.021 . S
O696 C693 1.238 . S
O697 Co691 2.052 . S
O697 C693 1.241 . S
O698 Co686 2.137 . S
O698 C689 1.247 . S
O699 Co686 2.244 . S
O699 C689 1.272 . S
O699 Co691 2.135 . S
Co700 O701 2.216 . S
Co700 O702 2.091 . S
Co700 O704 2.004 . S
Co700 O710 2.021 . S
Co700 O712 2.137 . S
Co700 O713 2.244 . S
O701 Co700 2.216 . S
O701 C708 1.247 . S
O702 Co700 2.091 . S
O702 C708 1.261 . S
C703 O712 1.247 . S
C703 O713 1.272 . S
O704 Co700 2.004 . S
O704 C709 1.259 . S
Co705 O706 2.061 . S
Co705 O711 2.052 . S
Co705 O713 2.135 . S
O706 Co705 2.061 . S
O706 C709 1.235 . S
C707 O710 1.238 . S
C707 O711 1.241 . S
C708 O701 1.247 . S
C708 O702 1.261 . S
C709 O704 1.259 . S
C709 O706 1.235 . S
O710 Co700 2.021 . S
O710 C707 1.238 . S
O711 Co705 2.052 . S
O711 C707 1.241 . S
O712 Co700 2.137 . S
O712 C703 1.247 . S
O713 Co700 2.244 . S
O713 C703 1.272 . S
O713 Co705 2.135 . S
Co714 O715 2.216 . S
Co714 O716 2.091 . S
Co714 O718 2.004 . S
Co714 O724 2.021 . S
Co714 O726 2.137 . S
Co714 O727 2.244 . S
O715 Co714 2.216 . S
O715 C722 1.247 . S
O716 Co714 2.091 . S
O716 C722 1.261 . S
C717 O726 1.247 . S
C717 O727 1.272 . S
O718 Co714 2.004 . S
O718 C723 1.259 . S
Co719 O720 2.061 . S
Co719 O725 2.052 . S
Co719 O727 2.135 . S
O720 Co719 2.061 . S
O720 C723 1.235 . S
C721 O724 1.238 . S
C721 O725 1.241 . S
C722 O715 1.247 . S
C722 O716 1.261 . S
C723 O718 1.259 . S
C723 O720 1.235 . S
O724 Co714 2.021 . S
O724 C721 1.238 . S
O725 Co719 2.052 . S
O725 C721 1.241 . S
O726 Co714 2.137 . S
O726 C717 1.247 . S
O727 Co714 2.244 . S
O727 C717 1.272 . S
O727 Co719 2.135 . S
Co728 O729 2.216 . S
Co728 O730 2.091 . S
Co728 O732 2.004 . S
Co728 O738 2.021 . S
Co728 O740 2.137 . S
Co728 O741 2.244 . S
O729 Co728 2.216 . S
O729 C736 1.247 . S
O730 Co728 2.091 . S
O730 C736 1.261 . S
C731 O740 1.247 . S
C731 O741 1.272 . S
O732 Co728 2.004 . S
O732 C737 1.259 . S
Co733 O734 2.061 . S
Co733 O739 2.052 . S
Co733 O741 2.135 . S
O734 Co733 2.061 . S
O734 C737 1.235 . S
C735 O738 1.238 . S
C735 O739 1.241 . S
C736 O729 1.247 . S
C736 O730 1.261 . S
C737 O732 1.259 . S
C737 O734 1.235 . S
O738 Co728 2.021 . S
O738 C735 1.238 . S
O739 Co733 2.052 . S
O739 C735 1.241 . S
O740 Co728 2.137 . S
O740 C731 1.247 . S
O741 Co728 2.244 . S
O741 C731 1.272 . S
O741 Co733 2.135 . S
Co742 O743 2.216 . S
Co742 O744 2.091 . S
Co742 O746 2.004 . S
Co742 O752 2.021 . S
Co742 O754 2.137 . S
Co742 O755 2.244 . S
O743 Co742 2.216 . S
O743 C750 1.247 . S
O744 Co742 2.091 . S
O744 C750 1.261 . S
C745 O754 1.247 . S
C745 O755 1.272 . S
O746 Co742 2.004 . S
O746 C751 1.259 . S
Co747 O748 2.061 . S
Co747 O753 2.052 . S
Co747 O755 2.135 . S
O748 Co747 2.061 . S
O748 C751 1.235 . S
C749 O752 1.238 . S
C749 O753 1.241 . S
C750 O743 1.247 . S
C750 O744 1.261 . S
C751 O746 1.259 . S
C751 O748 1.235 . S
O752 Co742 2.021 . S
O752 C749 1.238 . S
O753 Co747 2.052 . S
O753 C749 1.241 . S
O754 Co742 2.137 . S
O754 C745 1.247 . S
O755 Co742 2.244 . S
O755 C745 1.272 . S
O755 Co747 2.135 . S
Co756 O757 2.216 . S
Co756 O758 2.091 . S
Co756 O760 2.004 . S
Co756 O766 2.021 . S
Co756 O768 2.137 . S
Co756 O769 2.244 . S
O757 Co756 2.216 . S
O757 C764 1.247 . S
O758 Co756 2.091 . S
O758 C764 1.261 . S
C759 O768 1.247 . S
C759 O769 1.272 . S
O760 Co756 2.004 . S
O760 C765 1.259 . S
Co761 O762 2.061 . S
Co761 O767 2.052 . S
Co761 O769 2.135 . S
O762 Co761 2.061 . S
O762 C765 1.235 . S
C763 O766 1.238 . S
C763 O767 1.241 . S
C764 O757 1.247 . S
C764 O758 1.261 . S
C765 O760 1.259 . S
C765 O762 1.235 . S
O766 Co756 2.021 . S
O766 C763 1.238 . S
O767 Co761 2.052 . S
O767 C763 1.241 . S
O768 Co756 2.137 . S
O768 C759 1.247 . S
O769 Co756 2.244 . S
O769 C759 1.272 . S
O769 Co761 2.135 . S
Co770 O771 2.216 . S
Co770 O772 2.091 . S
Co770 O774 2.004 . S
Co770 O780 2.021 . S
Co770 O782 2.137 . S
Co770 O783 2.244 . S
O771 Co770 2.216 . S
O771 C778 1.247 . S
O772 Co770 2.091 . S
O772 C778 1.261 . S
C773 O782 1.247 . S
C773 O783 1.272 . S
O774 Co770 2.004 . S
O774 C779 1.259 . S
Co775 O776 2.061 . S
Co775 O781 2.052 . S
Co775 O783 2.135 . S
O776 Co775 2.061 . S
O776 C779 1.235 . S
C777 O780 1.238 . S
C777 O781 1.241 . S
C778 O771 1.247 . S
C778 O772 1.261 . S
C779 O774 1.259 . S
C779 O776 1.235 . S
O780 Co770 2.021 . S
O780 C777 1.238 . S
O781 Co775 2.052 . S
O781 C777 1.241 . S
O782 Co770 2.137 . S
O782 C773 1.247 . S
O783 Co770 2.244 . S
O783 C773 1.272 . S
O783 Co775 2.135 . S
Co784 O785 2.216 . S
Co784 O786 2.091 . S
Co784 O788 2.004 . S
Co784 O794 2.021 . S
Co784 O796 2.137 . S
Co784 O797 2.244 . S
O785 Co784 2.216 . S
O785 C792 1.247 . S
O786 Co784 2.091 . S
O786 C792 1.261 . S
C787 O796 1.247 . S
C787 O797 1.272 . S
O788 Co784 2.004 . S
O788 C793 1.259 . S
Co789 O790 2.061 . S
Co789 O795 2.052 . S
Co789 O797 2.135 . S
O790 Co789 2.061 . S
O790 C793 1.235 . S
C791 O794 1.238 . S
C791 O795 1.241 . S
C792 O785 1.247 . S
C792 O786 1.261 . S
C793 O788 1.259 . S
C793 O790 1.235 . S
O794 Co784 2.021 . S
O794 C791 1.238 . S
O795 Co789 2.052 . S
O795 C791 1.241 . S
O796 Co784 2.137 . S
O796 C787 1.247 . S
O797 Co784 2.244 . S
O797 C787 1.272 . S
O797 Co789 2.135 . S
Co798 O799 2.216 . S
Co798 O800 2.091 . S
Co798 O802 2.004 . S
Co798 O808 2.021 . S
Co798 O810 2.137 . S
Co798 O811 2.244 . S
O799 Co798 2.216 . S
O799 C806 1.247 . S
O800 Co798 2.091 . S
O800 C806 1.261 . S
C801 O810 1.247 . S
C801 O811 1.272 . S
O802 Co798 2.004 . S
O802 C807 1.259 . S
Co803 O804 2.061 . S
Co803 O809 2.052 . S
Co803 O811 2.135 . S
O804 Co803 2.061 . S
O804 C807 1.235 . S
C805 O808 1.238 . S
C805 O809 1.241 . S
C806 O799 1.247 . S
C806 O800 1.261 . S
C807 O802 1.259 . S
C807 O804 1.235 . S
O808 Co798 2.021 . S
O808 C805 1.238 . S
O809 Co803 2.052 . S
O809 C805 1.241 . S
O810 Co798 2.137 . S
O810 C801 1.247 . S
O811 Co798 2.244 . S
O811 C801 1.272 . S
O811 Co803 2.135 . S
Co812 O813 2.216 . S
Co812 O814 2.091 . S
Co812 O816 2.004 . S
Co812 O822 2.021 . S
Co812 O824 2.137 . S
Co812 O825 2.244 . S
O813 Co812 2.216 . S
O813 C820 1.247 . S
O814 Co812 2.091 . S
O814 C820 1.261 . S
C815 O824 1.247 . S
C815 O825 1.272 . S
O816 Co812 2.004 . S
O816 C821 1.259 . S
Co817 O818 2.061 . S
Co817 O823 2.052 . S
Co817 O825 2.135 . S
O818 Co817 2.061 . S
O818 C821 1.235 . S
C819 O822 1.238 . S
C819 O823 1.241 . S
C820 O813 1.247 . S
C820 O814 1.261 . S
C821 O816 1.259 . S
C821 O818 1.235 . S
O822 Co812 2.021 . S
O822 C819 1.238 . S
O823 Co817 2.052 . S
O823 C819 1.241 . S
O824 Co812 2.137 . S
O824 C815 1.247 . S
O825 Co812 2.244 . S
O825 C815 1.272 . S
O825 Co817 2.135 . S
Co826 O827 2.216 . S
Co826 O828 2.091 . S
Co826 O830 2.004 . S
Co826 O836 2.021 . S
Co826 O838 2.137 . S
Co826 O839 2.244 . S
O827 Co826 2.216 . S
O827 C834 1.247 . S
O828 Co826 2.091 . S
O828 C834 1.261 . S
C829 O838 1.247 . S
C829 O839 1.272 . S
O830 Co826 2.004 . S
O830 C835 1.259 . S
Co831 O832 2.061 . S
Co831 O837 2.052 . S
Co831 O839 2.135 . S
O832 Co831 2.061 . S
O832 C835 1.235 . S
C833 O836 1.238 . S
C833 O837 1.241 . S
C834 O827 1.247 . S
C834 O828 1.261 . S
C835 O830 1.259 . S
C835 O832 1.235 . S
O836 Co826 2.021 . S
O836 C833 1.238 . S
O837 Co831 2.052 . S
O837 C833 1.241 . S
O838 Co826 2.137 . S
O838 C829 1.247 . S
O839 Co826 2.244 . S
O839 C829 1.272 . S
O839 Co831 2.135 . S
Co840 O841 2.216 . S
Co840 O842 2.091 . S
Co840 O844 2.004 . S
Co840 O850 2.021 . S
Co840 O852 2.137 . S
Co840 O853 2.244 . S
O841 Co840 2.216 . S
O841 C848 1.247 . S
O842 Co840 2.091 . S
O842 C848 1.261 . S
C843 O852 1.247 . S
C843 O853 1.272 . S
O844 Co840 2.004 . S
O844 C849 1.259 . S
Co845 O846 2.061 . S
Co845 O851 2.052 . S
Co845 O853 2.135 . S
O846 Co845 2.061 . S
O846 C849 1.235 . S
C847 O850 1.238 . S
C847 O851 1.241 . S
C848 O841 1.247 . S
C848 O842 1.261 . S
C849 O844 1.259 . S
C849 O846 1.235 . S
O850 Co840 2.021 . S
O850 C847 1.238 . S
O851 Co845 2.052 . S
O851 C847 1.241 . S
O852 Co840 2.137 . S
O852 C843 1.247 . S
O853 Co840 2.244 . S
O853 C843 1.272 . S
O853 Co845 2.135 . S
Co854 O855 2.216 . S
Co854 O856 2.091 . S
Co854 O858 2.004 . S
Co854 O864 2.021 . S
Co854 O866 2.137 . S
Co854 O867 2.244 . S
O855 Co854 2.216 . S
O855 C862 1.247 . S
O856 Co854 2.091 . S
O856 C862 1.261 . S
C857 O866 1.247 . S
C857 O867 1.272 . S
O858 Co854 2.004 . S
O858 C863 1.259 . S
Co859 O860 2.061 . S
Co859 O865 2.052 . S
Co859 O867 2.135 . S
O860 Co859 2.061 . S
O860 C863 1.235 . S
C861 O864 1.238 . S
C861 O865 1.241 . S
C862 O855 1.247 . S
C862 O856 1.261 . S
C863 O858 1.259 . S
C863 O860 1.235 . S
O864 Co854 2.021 . S
O864 C861 1.238 . S
O865 Co859 2.052 . S
O865 C861 1.241 . S
O866 Co854 2.137 . S
O866 C857 1.247 . S
O867 Co854 2.244 . S
O867 C857 1.272 . S
O867 Co859 2.135 . S
Co868 O869 2.216 . S
Co868 O870 2.091 . S
Co868 O872 2.004 . S
Co868 O878 2.021 . S
Co868 O880 2.137 . S
Co868 O881 2.244 . S
O869 Co868 2.216 . S
O869 C876 1.247 . S
O870 Co868 2.091 . S
O870 C876 1.261 . S
C871 O880 1.247 . S
C871 O881 1.272 . S
O872 Co868 2.004 . S
O872 C877 1.259 . S
Co873 O874 2.061 . S
Co873 O879 2.052 . S
Co873 O881 2.135 . S
O874 Co873 2.061 . S
O874 C877 1.235 . S
C875 O878 1.238 . S
C875 O879 1.241 . S
C876 O869 1.247 . S
C876 O870 1.261 . S
C877 O872 1.259 . S
C877 O874 1.235 . S
O878 Co868 2.021 . S
O878 C875 1.238 . S
O879 Co873 2.052 . S
O879 C875 1.241 . S
O880 Co868 2.137 . S
O880 C871 1.247 . S
O881 Co868 2.244 . S
O881 C871 1.272 . S
O881 Co873 2.135 . S
Co882 O883 2.216 . S
Co882 O884 2.091 . S
Co882 O886 2.004 . S
Co882 O892 2.021 . S
Co882 O894 2.137 . S
Co882 O895 2.244 . S
O883 Co882 2.216 . S
O883 C890 1.247 . S
O884 Co882 2.091 . S
O884 C890 1.261 . S
C885 O894 1.247 . S
C885 O895 1.272 . S
O886 Co882 2.004 . S
O886 C891 1.259 . S
Co887 O888 2.061 . S
Co887 O893 2.052 . S
Co887 O895 2.135 . S
O888 Co887 2.061 . S
O888 C891 1.235 . S
C889 O892 1.238 . S
C889 O893 1.241 . S
C890 O883 1.247 . S
C890 O884 1.261 . S
C891 O886 1.259 . S
C891 O888 1.235 . S
O892 Co882 2.021 . S
O892 C889 1.238 . S
O893 Co887 2.052 . S
O893 C889 1.241 . S
O894 Co882 2.137 . S
O894 C885 1.247 . S
O895 Co882 2.244 . S
O895 C885 1.272 . S
O895 Co887 2.135 . S
Co896 O897 2.216 . S
Co896 O898 2.091 . S
Co896 O900 2.004 . S
Co896 O906 2.021 . S
Co896 O908 2.137 . S
Co896 O909 2.244 . S
O897 Co896 2.216 . S
O897 C904 1.247 . S
O898 Co896 2.091 . S
O898 C904 1.261 . S
C899 O908 1.247 . S
C899 O909 1.272 . S
O900 Co896 2.004 . S
O900 C905 1.259 . S
Co901 O902 2.061 . S
Co901 O907 2.052 . S
Co901 O909 2.135 . S
O902 Co901 2.061 . S
O902 C905 1.235 . S
C903 O906 1.238 . S
C903 O907 1.241 . S
C904 O897 1.247 . S
C904 O898 1.261 . S
C905 O900 1.259 . S
C905 O902 1.235 . S
O906 Co896 2.021 . S
O906 C903 1.238 . S
O907 Co901 2.052 . S
O907 C903 1.241 . S
O908 Co896 2.137 . S
O908 C899 1.247 . S
O909 Co896 2.244 . S
O909 C899 1.272 . S
O909 Co901 2.135 . S
Co910 O911 2.216 . S
Co910 O912 2.091 . S
Co910 O914 2.004 . S
Co910 O920 2.021 . S
Co910 O922 2.137 . S
Co910 O923 2.244 . S
O911 Co910 2.216 . S
O911 C918 1.247 . S
O912 Co910 2.091 . S
O912 C918 1.261 . S
C913 O922 1.247 . S
C913 O923 1.272 . S
O914 Co910 2.004 . S
O914 C919 1.259 . S
Co915 O916 2.061 . S
Co915 O921 2.052 . S
Co915 O923 2.135 . S
O916 Co915 2.061 . S
O916 C919 1.235 . S
C917 O920 1.238 . S
C917 O921 1.241 . S
C918 O911 1.247 . S
C918 O912 1.261 . S
C919 O914 1.259 . S
C919 O916 1.235 . S
O920 Co910 2.021 . S
O920 C917 1.238 . S
O921 Co915 2.052 . S
O921 C917 1.241 . S
O922 Co910 2.137 . S
O922 C913 1.247 . S
O923 Co910 2.244 . S
O923 C913 1.272 . S
O923 Co915 2.135 . S
Co924 O925 2.216 . S
Co924 O926 2.091 . S
Co924 O928 2.004 . S
Co924 O934 2.021 . S
Co924 O936 2.137 . S
Co924 O937 2.244 . S
O925 Co924 2.216 . S
O925 C932 1.247 . S
O926 Co924 2.091 . S
O926 C932 1.261 . S
C927 O936 1.247 . S
C927 O937 1.272 . S
O928 Co924 2.004 . S
O928 C933 1.259 . S
Co929 O930 2.061 . S
Co929 O935 2.052 . S
Co929 O937 2.135 . S
O930 Co929 2.061 . S
O930 C933 1.235 . S
C931 O934 1.238 . S
C931 O935 1.241 . S
C932 O925 1.247 . S
C932 O926 1.261 . S
C933 O928 1.259 . S
C933 O930 1.235 . S
O934 Co924 2.021 . S
O934 C931 1.238 . S
O935 Co929 2.052 . S
O935 C931 1.241 . S
O936 Co924 2.137 . S
O936 C927 1.247 . S
O937 Co924 2.244 . S
O937 C927 1.272 . S
O937 Co929 2.135 . S
Co938 O939 2.216 . S
Co938 O940 2.091 . S
Co938 O942 2.004 . S
Co938 O948 2.021 . S
Co938 O950 2.137 . S
Co938 O951 2.244 . S
O939 Co938 2.216 . S
O939 C946 1.247 . S
O940 Co938 2.091 . S
O940 C946 1.261 . S
C941 O950 1.247 . S
C941 O951 1.272 . S
O942 Co938 2.004 . S
O942 C947 1.259 . S
Co943 O944 2.061 . S
Co943 O949 2.052 . S
Co943 O951 2.135 . S
O944 Co943 2.061 . S
O944 C947 1.235 . S
C945 O948 1.238 . S
C945 O949 1.241 . S
C946 O939 1.247 . S
C946 O940 1.261 . S
C947 O942 1.259 . S
C947 O944 1.235 . S
O948 Co938 2.021 . S
O948 C945 1.238 . S
O949 Co943 2.052 . S
O949 C945 1.241 . S
O950 Co938 2.137 . S
O950 C941 1.247 . S
O951 Co938 2.244 . S
O951 C941 1.272 . S
O951 Co943 2.135 . S
Co952 O953 2.216 . S
Co952 O954 2.091 . S
Co952 O956 2.004 . S
Co952 O962 2.021 . S
Co952 O964 2.137 . S
Co952 O965 2.244 . S
O953 Co952 2.216 . S
O953 C960 1.247 . S
O954 Co952 2.091 . S
O954 C960 1.261 . S
C955 O964 1.247 . S
C955 O965 1.272 . S
O956 Co952 2.004 . S
O956 C961 1.259 . S
Co957 O958 2.061 . S
Co957 O963 2.052 . S
Co957 O965 2.135 . S
O958 Co957 2.061 . S
O958 C961 1.235 . S
C959 O962 1.238 . S
C959 O963 1.241 . S
C960 O953 1.247 . S
C960 O954 1.261 . S
C961 O956 1.259 . S
C961 O958 1.235 . S
O962 Co952 2.021 . S
O962 C959 1.238 . S
O963 Co957 2.052 . S
O963 C959 1.241 . S
O964 Co952 2.137 . S
O964 C955 1.247 . S
O965 Co952 2.244 . S
O965 C955 1.272 . S
O965 Co957 2.135 . S
Co966 O967 2.216 . S
Co966 O968 2.091 . S
Co966 O970 2.004 . S
Co966 O976 2.021 . S
Co966 O978 2.137 . S
Co966 O979 2.244 . S
O967 Co966 2.216 . S
O967 C974 1.247 . S
O968 Co966 2.091 . S
O968 C974 1.261 . S
C969 O978 1.247 . S
C969 O979 1.272 . S
O970 Co966 2.004 . S
O970 C975 1.259 . S
Co971 O972 2.061 . S
Co971 O977 2.052 . S
Co971 O979 2.135 . S
O972 Co971 2.061 . S
O972 C975 1.235 . S
C973 O976 1.238 . S
C973 O977 1.241 . S
C974 O967 1.247 . S
C974 O968 1.261 . S
C975 O970 1.259 . S
C975 O972 1.235 . S
O976 Co966 2.021 . S
O976 C973 1.238 . S
O977 Co971 2.052 . S
O977 C973 1.241 . S
O978 Co966 2.137 . S
O978 C969 1.247 . S
O979 Co966 2.244 . S
O979 C969 1.272 . S
O979 Co971 2.135 . S
Co980 O981 2.216 . S
Co980 O982 2.091 . S
Co980 O984 2.004 . S
Co980 O990 2.021 . S
Co980 O992 2.137 . S
Co980 O993 2.244 . S
O981 Co980 2.216 . S
O981 C988 1.247 . S
O982 Co980 2.091 . S
O982 C988 1.261 . S
C983 O992 1.247 . S
C983 O993 1.272 . S
O984 Co980 2.004 . S
O984 C989 1.259 . S
Co985 O986 2.061 . S
Co985 O991 2.052 . S
Co985 O993 2.135 . S
O986 Co985 2.061 . S
O986 C989 1.235 . S
C987 O990 1.238 . S
C987 O991 1.241 . S
C988 O981 1.247 . S
C988 O982 1.261 . S
C989 O984 1.259 . S
C989 O986 1.235 . S
O990 Co980 2.021 . S
O990 C987 1.238 . S
O991 Co985 2.052 . S
O991 C987 1.241 . S
O992 Co980 2.137 . S
O992 C983 1.247 . S
O993 Co980 2.244 . S
O993 C983 1.272 . S
O993 Co985 2.135 . S
Co994 O995 2.216 . S
Co994 O996 2.091 . S
Co994 O998 2.004 . S
Co994 O1004 2.021 . S
Co994 O1006 2.137 . S
Co994 O1007 2.244 . S
O995 Co994 2.216 . S
O995 C1002 1.247 . S
O996 Co994 2.091 . S
O996 C1002 1.261 . S
C997 O1006 1.247 . S
C997 O1007 1.272 . S
O998 Co994 2.004 . S
O998 C1003 1.259 . S
Co999 O1000 2.061 . S
Co999 O1005 2.052 . S
Co999 O1007 2.135 . S
O1000 Co999 2.061 . S
O1000 C1003 1.235 . S
C1001 O1004 1.238 . S
C1001 O1005 1.241 . S
C1002 O995 1.247 . S
C1002 O996 1.261 . S
C1003 O998 1.259 . S
C1003 O1000 1.235 . S
O1004 Co994 2.021 . S
O1004 C1001 1.238 . S
O1005 Co999 2.052 . S
O1005 C1001 1.241 . S
O1006 Co994 2.137 . S
O1006 C997 1.247 . S
O1007 Co994 2.244 . S
O1007 C997 1.272 . S
O1007 Co999 2.135 . S
Co1008 O1009 2.216 . S
Co1008 O1010 2.091 . S
Co1008 O1012 2.004 . S
Co1008 O1018 2.021 . S
Co1008 O1020 2.137 . S
Co1008 O1021 2.244 . S
O1009 Co1008 2.216 . S
O1009 C1016 1.247 . S
O1010 Co1008 2.091 . S
O1010 C1016 1.261 . S
C1011 O1020 1.247 . S
C1011 O1021 1.272 . S
O1012 Co1008 2.004 . S
O1012 C1017 1.259 . S
Co1013 O1014 2.061 . S
Co1013 O1019 2.052 . S
Co1013 O1021 2.135 . S
O1014 Co1013 2.061 . S
O1014 C1017 1.235 . S
C1015 O1018 1.238 . S
C1015 O1019 1.241 . S
C1016 O1009 1.247 . S
C1016 O1010 1.261 . S
C1017 O1012 1.259 . S
C1017 O1014 1.235 . S
O1018 Co1008 2.021 . S
O1018 C1015 1.238 . S
O1019 Co1013 2.052 . S
O1019 C1015 1.241 . S
O1020 Co1008 2.137 . S
O1020 C1011 1.247 . S
O1021 Co1008 2.244 . S
O1021 C1011 1.272 . S
O1021 Co1013 2.135 . S
Co1022 O1023 2.216 . S
Co1022 O1024 2.091 . S
Co1022 O1026 2.004 . S
Co1022 O1032 2.021 . S
Co1022 O1034 2.137 . S
Co1022 O1035 2.244 . S
O1023 Co1022 2.216 . S
O1023 C1030 1.247 . S
O1024 Co1022 2.091 . S
O1024 C1030 1.261 . S
C1025 O1034 1.247 . S
C1025 O1035 1.272 . S
O1026 Co1022 2.004 . S
O1026 C1031 1.259 . S
Co1027 O1028 2.061 . S
Co1027 O1033 2.052 . S
Co1027 O1035 2.135 . S
O1028 Co1027 2.061 . S
O1028 C1031 1.235 . S
C1029 O1032 1.238 . S
C1029 O1033 1.241 . S
C1030 O1023 1.247 . S
C1030 O1024 1.261 . S
C1031 O1026 1.259 . S
C1031 O1028 1.235 . S
O1032 Co1022 2.021 . S
O1032 C1029 1.238 . S
O1033 Co1027 2.052 . S
O1033 C1029 1.241 . S
O1034 Co1022 2.137 . S
O1034 C1025 1.247 . S
O1035 Co1022 2.244 . S
O1035 C1025 1.272 . S
O1035 Co1027 2.135 . S
Co1036 O1037 2.216 . S
Co1036 O1038 2.091 . S
Co1036 O1040 2.004 . S
Co1036 O1046 2.021 . S
Co1036 O1048 2.137 . S
Co1036 O1049 2.244 . S
O1037 Co1036 2.216 . S
O1037 C1044 1.247 . S
O1038 Co1036 2.091 . S
O1038 C1044 1.261 . S
C1039 O1048 1.247 . S
C1039 O1049 1.272 . S
O1040 Co1036 2.004 . S
O1040 C1045 1.259 . S
Co1041 O1042 2.061 . S
Co1041 O1047 2.052 . S
Co1041 O1049 2.135 . S
O1042 Co1041 2.061 . S
O1042 C1045 1.235 . S
C1043 O1046 1.238 . S
C1043 O1047 1.241 . S
C1044 O1037 1.247 . S
C1044 O1038 1.261 . S
C1045 O1040 1.259 . S
C1045 O1042 1.235 . S
O1046 Co1036 2.021 . S
O1046 C1043 1.238 . S
O1047 Co1041 2.052 . S
O1047 C1043 1.241 . S
O1048 Co1036 2.137 . S
O1048 C1039 1.247 . S
O1049 Co1036 2.244 . S
O1049 C1039 1.272 . S
O1049 Co1041 2.135 . S
Co1050 O1051 2.216 . S
Co1050 O1052 2.091 . S
Co1050 O1054 2.004 . S
Co1050 O1060 2.021 . S
Co1050 O1062 2.137 . S
Co1050 O1063 2.244 . S
O1051 Co1050 2.216 . S
O1051 C1058 1.247 . S
O1052 Co1050 2.091 . S
O1052 C1058 1.261 . S
C1053 O1062 1.247 . S
C1053 O1063 1.272 . S
O1054 Co1050 2.004 . S
O1054 C1059 1.259 . S
Co1055 O1056 2.061 . S
Co1055 O1061 2.052 . S
Co1055 O1063 2.135 . S
O1056 Co1055 2.061 . S
O1056 C1059 1.235 . S
C1057 O1060 1.238 . S
C1057 O1061 1.241 . S
C1058 O1051 1.247 . S
C1058 O1052 1.261 . S
C1059 O1054 1.259 . S
C1059 O1056 1.235 . S
O1060 Co1050 2.021 . S
O1060 C1057 1.238 . S
O1061 Co1055 2.052 . S
O1061 C1057 1.241 . S
O1062 Co1050 2.137 . S
O1062 C1053 1.247 . S
O1063 Co1050 2.244 . S
O1063 C1053 1.272 . S
O1063 Co1055 2.135 . S
Co1064 O1065 2.216 . S
Co1064 O1066 2.091 . S
Co1064 O1068 2.004 . S
Co1064 O1074 2.021 . S
Co1064 O1076 2.137 . S
Co1064 O1077 2.244 . S
O1065 Co1064 2.216 . S
O1065 C1072 1.247 . S
O1066 Co1064 2.091 . S
O1066 C1072 1.261 . S
C1067 O1076 1.247 . S
C1067 O1077 1.272 . S
O1068 Co1064 2.004 . S
O1068 C1073 1.259 . S
Co1069 O1070 2.061 . S
Co1069 O1075 2.052 . S
Co1069 O1077 2.135 . S
O1070 Co1069 2.061 . S
O1070 C1073 1.235 . S
C1071 O1074 1.238 . S
C1071 O1075 1.241 . S
C1072 O1065 1.247 . S
C1072 O1066 1.261 . S
C1073 O1068 1.259 . S
C1073 O1070 1.235 . S
O1074 Co1064 2.021 . S
O1074 C1071 1.238 . S
O1075 Co1069 2.052 . S
O1075 C1071 1.241 . S
O1076 Co1064 2.137 . S
O1076 C1067 1.247 . S
O1077 Co1064 2.244 . S
O1077 C1067 1.272 . S
O1077 Co1069 2.135 . S
Co1078 O1079 2.216 . S
Co1078 O1080 2.091 . S
Co1078 O1082 2.004 . S
Co1078 O1088 2.021 . S
Co1078 O1090 2.137 . S
Co1078 O1091 2.244 . S
O1079 Co1078 2.216 . S
O1079 C1086 1.247 . S
O1080 Co1078 2.091 . S
O1080 C1086 1.261 . S
C1081 O1090 1.247 . S
C1081 O1091 1.272 . S
O1082 Co1078 2.004 . S
O1082 C1087 1.259 . S
Co1083 O1084 2.061 . S
Co1083 O1089 2.052 . S
Co1083 O1091 2.135 . S
O1084 Co1083 2.061 . S
O1084 C1087 1.235 . S
C1085 O1088 1.238 . S
C1085 O1089 1.241 . S
C1086 O1079 1.247 . S
C1086 O1080 1.261 . S
C1087 O1082 1.259 . S
C1087 O1084 1.235 . S
O1088 Co1078 2.021 . S
O1088 C1085 1.238 . S
O1089 Co1083 2.052 . S
O1089 C1085 1.241 . S
O1090 Co1078 2.137 . S
O1090 C1081 1.247 . S
O1091 Co1078 2.244 . S
O1091 C1081 1.272 . S
O1091 Co1083 2.135 . S
Co1092 O1093 2.216 . S
Co1092 O1094 2.091 . S
Co1092 O1096 2.004 . S
Co1092 O1102 2.021 . S
Co1092 O1104 2.137 . S
Co1092 O1105 2.244 . S
O1093 Co1092 2.216 . S
O1093 C1100 1.247 . S
O1094 Co1092 2.091 . S
O1094 C1100 1.261 . S
C1095 O1104 1.247 . S
C1095 O1105 1.272 . S
O1096 Co1092 2.004 . S
O1096 C1101 1.259 . S
Co1097 O1098 2.061 . S
Co1097 O1103 2.052 . S
Co1097 O1105 2.135 . S
O1098 Co1097 2.061 . S
O1098 C1101 1.235 . S
C1099 O1102 1.238 . S
C1099 O1103 1.241 . S
C1100 O1093 1.247 . S
C1100 O1094 1.261 . S
C1101 O1096 1.259 . S
C1101 O1098 1.235 . S
O1102 Co1092 2.021 . S
O1102 C1099 1.238 . S
O1103 Co1097 2.052 . S
O1103 C1099 1.241 . S
O1104 Co1092 2.137 . S
O1104 C1095 1.247 . S
O1105 Co1092 2.244 . S
O1105 C1095 1.272 . S
O1105 Co1097 2.135 . S
Co1106 O1107 2.216 . S
Co1106 O1108 2.091 . S
Co1106 O1110 2.004 . S
Co1106 O1116 2.021 . S
Co1106 O1118 2.137 . S
Co1106 O1119 2.244 . S
O1107 Co1106 2.216 . S
O1107 C1114 1.247 . S
O1108 Co1106 2.091 . S
O1108 C1114 1.261 . S
C1109 O1118 1.247 . S
C1109 O1119 1.272 . S
O1110 Co1106 2.004 . S
O1110 C1115 1.259 . S
Co1111 O1112 2.061 . S
Co1111 O1117 2.052 . S
Co1111 O1119 2.135 . S
O1112 Co1111 2.061 . S
O1112 C1115 1.235 . S
C1113 O1116 1.238 . S
C1113 O1117 1.241 . S
C1114 O1107 1.247 . S
C1114 O1108 1.261 . S
C1115 O1110 1.259 . S
C1115 O1112 1.235 . S
O1116 Co1106 2.021 . S
O1116 C1113 1.238 . S
O1117 Co1111 2.052 . S
O1117 C1113 1.241 . S
O1118 Co1106 2.137 . S
O1118 C1109 1.247 . S
O1119 Co1106 2.244 . S
O1119 C1109 1.272 . S
O1119 Co1111 2.135 . S
Co1120 O1121 2.216 . S
Co1120 O1122 2.091 . S
Co1120 O1124 2.004 . S
Co1120 O1130 2.021 . S
Co1120 O1132 2.137 . S
Co1120 O1133 2.244 . S
O1121 Co1120 2.216 . S
O1121 C1128 1.247 . S
O1122 Co1120 2.091 . S
O1122 C1128 1.261 . S
C1123 O1132 1.247 . S
C1123 O1133 1.272 . S
O1124 Co1120 2.004 . S
O1124 C1129 1.259 . S
Co1125 O1126 2.061 . S
Co1125 O1131 2.052 . S
Co1125 O1133 2.135 . S
O1126 Co1125 2.061 . S
O1126 C1129 1.235 . S
C1127 O1130 1.238 . S
C1127 O1131 1.241 . S
C1128 O1121 1.247 . S
C1128 O1122 1.261 . S
C1129 O1124 1.259 . S
C1129 O1126 1.235 . S
O1130 Co1120 2.021 . S
O1130 C1127 1.238 . S
O1131 Co1125 2.052 . S
O1131 C1127 1.241 . S
O1132 Co1120 2.137 . S
O1132 C1123 1.247 . S
O1133 Co1120 2.244 . S
O1133 C1123 1.272 . S
O1133 Co1125 2.135 . S
Co1134 O1135 2.216 . S
Co1134 O1136 2.091 . S
Co1134 O1138 2.004 . S
Co1134 O1144 2.021 . S
Co1134 O1146 2.137 . S
Co1134 O1147 2.244 . S
O1135 Co1134 2.216 . S
O1135 C1142 1.247 . S
O1136 Co1134 2.091 . S
O1136 C1142 1.261 . S
C1137 O1146 1.247 . S
C1137 O1147 1.272 . S
O1138 Co1134 2.004 . S
O1138 C1143 1.259 . S
Co1139 O1140 2.061 . S
Co1139 O1145 2.052 . S
Co1139 O1147 2.135 . S
O1140 Co1139 2.061 . S
O1140 C1143 1.235 . S
C1141 O1144 1.238 . S
C1141 O1145 1.241 . S
C1142 O1135 1.247 . S
C1142 O1136 1.261 . S
C1143 O1138 1.259 . S
C1143 O1140 1.235 . S
O1144 Co1134 2.021 . S
O1144 C1141 1.238 . S
O1145 Co1139 2.052 . S
O1145 C1141 1.241 . S
O1146 Co1134 2.137 . S
O1146 C1137 1.247 . S
O1147 Co1134 2.244 . S
O1147 C1137 1.272 . S
O1147 Co1139 2.135 . S
Co1148 O1149 2.216 . S
Co1148 O1150 2.091 . S
Co1148 O1152 2.004 . S
Co1148 O1158 2.021 . S
Co1148 O1160 2.137 . S
Co1148 O1161 2.244 . S
O1149 Co1148 2.216 . S
O1149 C1156 1.247 . S
O1150 Co1148 2.091 . S
O1150 C1156 1.261 . S
C1151 O1160 1.247 . S
C1151 O1161 1.272 . S
O1152 Co1148 2.004 . S
O1152 C1157 1.259 . S
Co1153 O1154 2.061 . S
Co1153 O1159 2.052 . S
Co1153 O1161 2.135 . S
O1154 Co1153 2.061 . S
O1154 C1157 1.235 . S
C1155 O1158 1.238 . S
C1155 O1159 1.241 . S
C1156 O1149 1.247 . S
C1156 O1150 1.261 . S
C1157 O1152 1.259 . S
C1157 O1154 1.235 . S
O1158 Co1148 2.021 . S
O1158 C1155 1.238 . S
O1159 Co1153 2.052 . S
O1159 C1155 1.241 . S
O1160 Co1148 2.137 . S
O1160 C1151 1.247 . S
O1161 Co1148 2.244 . S
O1161 C1151 1.272 . S
O1161 Co1153 2.135 . S
Co1162 O1163 2.216 . S
Co1162 O1164 2.091 . S
Co1162 O1166 2.004 . S
Co1162 O1172 2.021 . S
Co1162 O1174 2.137 . S
Co1162 O1175 2.244 . S
O1163 Co1162 2.216 . S
O1163 C1170 1.247 . S
O1164 Co1162 2.091 . S
O1164 C1170 1.261 . S
C1165 O1174 1.247 . S
C1165 O1175 1.272 . S
O1166 Co1162 2.004 . S
O1166 C1171 1.259 . S
Co1167 O1168 2.061 . S
Co1167 O1173 2.052 . S
Co1167 O1175 2.135 . S
O1168 Co1167 2.061 . S
O1168 C1171 1.235 . S
C1169 O1172 1.238 . S
C1169 O1173 1.241 . S
C1170 O1163 1.247 . S
C1170 O1164 1.261 . S
C1171 O1166 1.259 . S
C1171 O1168 1.235 . S
O1172 Co1162 2.021 . S
O1172 C1169 1.238 . S
O1173 Co1167 2.052 . S
O1173 C1169 1.241 . S
O1174 Co1162 2.137 . S
O1174 C1165 1.247 . S
O1175 Co1162 2.244 . S
O1175 C1165 1.272 . S
O1175 Co1167 2.135 . S
Co1176 O1177 2.216 . S
Co1176 O1178 2.091 . S
Co1176 O1180 2.004 . S
Co1176 O1186 2.021 . S
Co1176 O1188 2.137 . S
Co1176 O1189 2.244 . S
O1177 Co1176 2.216 . S
O1177 C1184 1.247 . S
O1178 Co1176 2.091 . S
O1178 C1184 1.261 . S
C1179 O1188 1.247 . S
C1179 O1189 1.272 . S
O1180 Co1176 2.004 . S
O1180 C1185 1.259 . S
Co1181 O1182 2.061 . S
Co1181 O1187 2.052 . S
Co1181 O1189 2.135 . S
O1182 Co1181 2.061 . S
O1182 C1185 1.235 . S
C1183 O1186 1.238 . S
C1183 O1187 1.241 . S
C1184 O1177 1.247 . S
C1184 O1178 1.261 . S
C1185 O1180 1.259 . S
C1185 O1182 1.235 . S
O1186 Co1176 2.021 . S
O1186 C1183 1.238 . S
O1187 Co1181 2.052 . S
O1187 C1183 1.241 . S
O1188 Co1176 2.137 . S
O1188 C1179 1.247 . S
O1189 Co1176 2.244 . S
O1189 C1179 1.272 . S
O1189 Co1181 2.135 . S
Co1190 O1191 2.216 . S
Co1190 O1192 2.091 . S
Co1190 O1194 2.004 . S
Co1190 O1200 2.021 . S
Co1190 O1202 2.137 . S
Co1190 O1203 2.244 . S
O1191 Co1190 2.216 . S
O1191 C1198 1.247 . S
O1192 Co1190 2.091 . S
O1192 C1198 1.261 . S
C1193 O1202 1.247 . S
C1193 O1203 1.272 . S
O1194 Co1190 2.004 . S
O1194 C1199 1.259 . S
Co1195 O1196 2.061 . S
Co1195 O1201 2.052 . S
Co1195 O1203 2.135 . S
O1196 Co1195 2.061 . S
O1196 C1199 1.235 . S
C1197 O1200 1.238 . S
C1197 O1201 1.241 . S
C1198 O1191 1.247 . S
C1198 O1192 1.261 . S
C1199 O1194 1.259 . S
C1199 O1196 1.235 . S
O1200 Co1190 2.021 . S
O1200 C1197 1.238 . S
O1201 Co1195 2.052 . S
O1201 C1197 1.241 . S
O1202 Co1190 2.137 . S
O1202 C1193 1.247 . S
O1203 Co1190 2.244 . S
O1203 C1193 1.272 . S
O1203 Co1195 2.135 . S
Co1204 O1205 2.216 . S
Co1204 O1206 2.091 . S
Co1204 O1208 2.004 . S
Co1204 O1214 2.021 . S
Co1204 O1216 2.137 . S
Co1204 O1217 2.244 . S
O1205 Co1204 2.216 . S
O1205 C1212 1.247 . S
O1206 Co1204 2.091 . S
O1206 C1212 1.261 . S
C1207 O1216 1.247 . S
C1207 O1217 1.272 . S
O1208 Co1204 2.004 . S
O1208 C1213 1.259 . S
Co1209 O1210 2.061 . S
Co1209 O1215 2.052 . S
Co1209 O1217 2.135 . S
O1210 Co1209 2.061 . S
O1210 C1213 1.235 . S
C1211 O1214 1.238 . S
C1211 O1215 1.241 . S
C1212 O1205 1.247 . S
C1212 O1206 1.261 . S
C1213 O1208 1.259 . S
C1213 O1210 1.235 . S
O1214 Co1204 2.021 . S
O1214 C1211 1.238 . S
O1215 Co1209 2.052 . S
O1215 C1211 1.241 . S
O1216 Co1204 2.137 . S
O1216 C1207 1.247 . S
O1217 Co1204 2.244 . S
O1217 C1207 1.272 . S
O1217 Co1209 2.135 . S
Co1218 O1219 2.216 . S
Co1218 O1220 2.091 . S
Co1218 O1222 2.004 . S
Co1218 O1228 2.021 . S
Co1218 O1230 2.137 . S
Co1218 O1231 2.244 . S
O1219 Co1218 2.216 . S
O1219 C1226 1.247 . S
O1220 Co1218 2.091 . S
O1220 C1226 1.261 . S
C1221 O1230 1.247 . S
C1221 O1231 1.272 . S
O1222 Co1218 2.004 . S
O1222 C1227 1.259 . S
Co1223 O1224 2.061 . S
Co1223 O1229 2.052 . S
Co1223 O1231 2.135 . S
O1224 Co1223 2.061 . S
O1224 C1227 1.235 . S
C1225 O1228 1.238 . S
C1225 O1229 1.241 . S
C1226 O1219 1.247 . S
C1226 O1220 1.261 . S
C1227 O1222 1.259 . S
C1227 O1224 1.235 . S
O1228 Co1218 2.021 . S
O1228 C1225 1.238 . S
O1229 Co1223 2.052 . S
O1229 C1225 1.241 . S
O1230 Co1218 2.137 . S
O1230 C1221 1.247 . S
O1231 Co1218 2.244 . S
O1231 C1221 1.272 . S
O1231 Co1223 2.135 . S
Co1232 O1233 2.216 . S
Co1232 O1234 2.091 . S
Co1232 O1236 2.004 . S
Co1232 O1242 2.021 . S
Co1232 O1244 2.137 . S
Co1232 O1245 2.244 . S
O1233 Co1232 2.216 . S
O1233 C1240 1.247 . S
O1234 Co1232 2.091 . S
O1234 C1240 1.261 . S
C1235 O1244 1.247 . S
C1235 O1245 1.272 . S
O1236 Co1232 2.004 . S
O1236 C1241 1.259 . S
Co1237 O1238 2.061 . S
Co1237 O1243 2.052 . S
Co1237 O1245 2.135 . S
O1238 Co1237 2.061 . S
O1238 C1241 1.235 . S
C1239 O1242 1.238 . S
C1239 O1243 1.241 . S
C1240 O1233 1.247 . S
C1240 O1234 1.261 . S
C1241 O1236 1.259 . S
C1241 O1238 1.235 . S
O1242 Co1232 2.021 . S
O1242 C1239 1.238 . S
O1243 Co1237 2.052 . S
O1243 C1239 1.241 . S
O1244 Co1232 2.137 . S
O1244 C1235 1.247 . S
O1245 Co1232 2.244 . S
O1245 C1235 1.272 . S
O1245 Co1237 2.135 . S
Co1246 O1247 2.216 . S
Co1246 O1248 2.091 . S
Co1246 O1250 2.004 . S
Co1246 O1256 2.021 . S
Co1246 O1258 2.137 . S
Co1246 O1259 2.244 . S
O1247 Co1246 2.216 . S
O1247 C1254 1.247 . S
O1248 Co1246 2.091 . S
O1248 C1254 1.261 . S
C1249 O1258 1.247 . S
C1249 O1259 1.272 . S
O1250 Co1246 2.004 . S
O1250 C1255 1.259 . S
Co1251 O1252 2.061 . S
Co1251 O1257 2.052 . S
Co1251 O1259 2.135 . S
O1252 Co1251 2.061 . S
O1252 C1255 1.235 . S
C1253 O1256 1.238 . S
C1253 O1257 1.241 . S
C1254 O1247 1.247 . S
C1254 O1248 1.261 . S
C1255 O1250 1.259 . S
C1255 O1252 1.235 . S
O1256 Co1246 2.021 . S
O1256 C1253 1.238 . S
O1257 Co1251 2.052 . S
O1257 C1253 1.241 . S
O1258 Co1246 2.137 . S
O1258 C1249 1.247 . S
O1259 Co1246 2.244 . S
O1259 C1249 1.272 . S
O1259 Co1251 2.135 . S
Co1260 O1261 2.216 . S
Co1260 O1262 2.091 . S
Co1260 O1264 2.004 . S
Co1260 O1270 2.021 . S
Co1260 O1272 2.137 . S
Co1260 O1273 2.244 . S
O1261 Co1260 2.216 . S
O1261 C1268 1.247 . S
O1262 Co1260 2.091 . S
O1262 C1268 1.261 . S
C1263 O1272 1.247 . S
C1263 O1273 1.272 . S
O1264 Co1260 2.004 . S
O1264 C1269 1.259 . S
Co1265 O1266 2.061 . S
Co1265 O1271 2.052 . S
Co1265 O1273 2.135 . S
O1266 Co1265 2.061 . S
O1266 C1269 1.235 . S
C1267 O1270 1.238 . S
C1267 O1271 1.241 . S
C1268 O1261 1.247 . S
C1268 O1262 1.261 . S
C1269 O1264 1.259 . S
C1269 O1266 1.235 . S
O1270 Co1260 2.021 . S
O1270 C1267 1.238 . S
O1271 Co1265 2.052 . S
O1271 C1267 1.241 . S
O1272 Co1260 2.137 . S
O1272 C1263 1.247 . S
O1273 Co1260 2.244 . S
O1273 C1263 1.272 . S
O1273 Co1265 2.135 . S
Co1274 O1275 2.216 . S
Co1274 O1276 2.091 . S
Co1274 O1278 2.004 . S
Co1274 O1284 2.021 . S
Co1274 O1286 2.137 . S
Co1274 O1287 2.244 . S
O1275 Co1274 2.216 . S
O1275 C1282 1.247 . S
O1276 Co1274 2.091 . S
O1276 C1282 1.261 . S
C1277 O1286 1.247 . S
C1277 O1287 1.272 . S
O1278 Co1274 2.004 . S
O1278 C1283 1.259 . S
Co1279 O1280 2.061 . S
Co1279 O1285 2.052 . S
Co1279 O1287 2.135 . S
O1280 Co1279 2.061 . S
O1280 C1283 1.235 . S
C1281 O1284 1.238 . S
C1281 O1285 1.241 . S
C1282 O1275 1.247 . S
C1282 O1276 1.261 . S
C1283 O1278 1.259 . S
C1283 O1280 1.235 . S
O1284 Co1274 2.021 . S
O1284 C1281 1.238 . S
O1285 Co1279 2.052 . S
O1285 C1281 1.241 . S
O1286 Co1274 2.137 . S
O1286 C1277 1.247 . S
O1287 Co1274 2.244 . S
O1287 C1277 1.272 . S
O1287 Co1279 2.135 . S
Co1288 O1289 2.216 . S
Co1288 O1290 2.091 . S
Co1288 O1292 2.004 . S
Co1288 O1298 2.021 . S
Co1288 O1300 2.137 . S
Co1288 O1301 2.244 . S
O1289 Co1288 2.216 . S
O1289 C1296 1.247 . S
O1290 Co1288 2.091 . S
O1290 C1296 1.261 . S
C1291 O1300 1.247 . S
C1291 O1301 1.272 . S
O1292 Co1288 2.004 . S
O1292 C1297 1.259 . S
Co1293 O1294 2.061 . S
Co1293 O1299 2.052 . S
Co1293 O1301 2.135 . S
O1294 Co1293 2.061 . S
O1294 C1297 1.235 . S
C1295 O1298 1.238 . S
C1295 O1299 1.241 . S
C1296 O1289 1.247 . S
C1296 O1290 1.261 . S
C1297 O1292 1.259 . S
C1297 O1294 1.235 . S
O1298 Co1288 2.021 . S
O1298 C1295 1.238 . S
O1299 Co1293 2.052 . S
O1299 C1295 1.241 . S
O1300 Co1288 2.137 . S
O1300 C1291 1.247 . S
O1301 Co1288 2.244 . S
O1301 C1291 1.272 . S
O1301 Co1293 2.135 . S
Co1302 O1303 2.216 . S
Co1302 O1304 2.091 . S
Co1302 O1306 2.004 . S
Co1302 O1312 2.021 . S
Co1302 O1314 2.137 . S
Co1302 O1315 2.244 . S
O1303 Co1302 2.216 . S
O1303 C1310 1.247 . S
O1304 Co1302 2.091 . S
O1304 C1310 1.261 . S
C1305 O1314 1.247 . S
C1305 O1315 1.272 . S
O1306 Co1302 2.004 . S
O1306 C1311 1.259 . S
Co1307 O1308 2.061 . S
Co1307 O1313 2.052 . S
Co1307 O1315 2.135 . S
O1308 Co1307 2.061 . S
O1308 C1311 1.235 . S
C1309 O1312 1.238 . S
C1309 O1313 1.241 . S
C1310 O1303 1.247 . S
C1310 O1304 1.261 . S
C1311 O1306 1.259 . S
C1311 O1308 1.235 . S
O1312 Co1302 2.021 . S
O1312 C1309 1.238 . S
O1313 Co1307 2.052 . S
O1313 C1309 1.241 . S
O1314 Co1302 2.137 . S
O1314 C1305 1.247 . S
O1315 Co1302 2.244 . S
O1315 C1305 1.272 . S
O1315 Co1307 2.135 . S
Co1316 O1317 2.216 . S
Co1316 O1318 2.091 . S
Co1316 O1320 2.004 . S
Co1316 O1326 2.021 . S
Co1316 O1328 2.137 . S
Co1316 O1329 2.244 . S
O1317 Co1316 2.216 . S
O1317 C1324 1.247 . S
O1318 Co1316 2.091 . S
O1318 C1324 1.261 . S
C1319 O1328 1.247 . S
C1319 O1329 1.272 . S
O1320 Co1316 2.004 . S
O1320 C1325 1.259 . S
Co1321 O1322 2.061 . S
Co1321 O1327 2.052 . S
Co1321 O1329 2.135 . S
O1322 Co1321 2.061 . S
O1322 C1325 1.235 . S
C1323 O1326 1.238 . S
C1323 O1327 1.241 . S
C1324 O1317 1.247 . S
C1324 O1318 1.261 . S
C1325 O1320 1.259 . S
C1325 O1322 1.235 . S
O1326 Co1316 2.021 . S
O1326 C1323 1.238 . S
O1327 Co1321 2.052 . S
O1327 C1323 1.241 . S
O1328 Co1316 2.137 . S
O1328 C1319 1.247 . S
O1329 Co1316 2.244 . S
O1329 C1319 1.272 . S
O1329 Co1321 2.135 . S
Co1330 O1331 2.216 . S
Co1330 O1332 2.091 . S
Co1330 O1334 2.004 . S
Co1330 O1340 2.021 . S
Co1330 O1342 2.137 . S
Co1330 O1343 2.244 . S
O1331 Co1330 2.216 . S
O1331 C1338 1.247 . S
O1332 Co1330 2.091 . S
O1332 C1338 1.261 . S
C1333 O1342 1.247 . S
C1333 O1343 1.272 . S
O1334 Co1330 2.004 . S
O1334 C1339 1.259 . S
Co1335 O1336 2.061 . S
Co1335 O1341 2.052 . S
Co1335 O1343 2.135 . S
O1336 Co1335 2.061 . S
O1336 C1339 1.235 . S
C1337 O1340 1.238 . S
C1337 O1341 1.241 . S
C1338 O1331 1.247 . S
C1338 O1332 1.261 . S
C1339 O1334 1.259 . S
C1339 O1336 1.235 . S
O1340 Co1330 2.021 . S
O1340 C1337 1.238 . S
O1341 Co1335 2.052 . S
O1341 C1337 1.241 . S
O1342 Co1330 2.137 . S
O1342 C1333 1.247 . S
O1343 Co1330 2.244 . S
O1343 C1333 1.272 . S
O1343 Co1335 2.135 . S
C1344 C1345 1.369 . S
C1344 C1346 1.419 . S
C1344 H1348 0.930 . S
C1345 C1344 1.369 . S
C1345 C1354 1.429 . S
C1346 C1344 1.419 . S
C1346 C1347 1.363 . S
C1346 H1349 0.929 . S
C1347 C1346 1.363 . S
C1347 C1353 1.428 . S
H1348 C1344 0.930 . S
H1349 C1346 0.929 . S
S1350 N1351 1.613 . S
S1350 N1352 1.610 . S
N1351 S1350 1.613 . S
N1351 C1354 1.350 . S
N1352 S1350 1.610 . S
N1352 C1353 1.351 . S
C1353 C1347 1.428 . S
C1353 N1352 1.351 . S
C1353 C1354 1.434 . S
C1354 C1345 1.429 . S
C1354 N1351 1.350 . S
C1354 C1353 1.434 . S
C1355 C1356 1.369 . S
C1355 C1357 1.419 . S
C1355 H1359 0.930 . S
C1356 C1355 1.369 . S
C1356 C1365 1.429 . S
C1357 C1355 1.419 . S
C1357 C1358 1.363 . S
C1357 H1360 0.929 . S
C1358 C1357 1.363 . S
C1358 C1364 1.428 . S
H1359 C1355 0.930 . S
H1360 C1357 0.929 . S
S1361 N1362 1.613 . S
S1361 N1363 1.610 . S
N1362 S1361 1.613 . S
N1362 C1365 1.350 . S
N1363 S1361 1.610 . S
N1363 C1364 1.351 . S
C1364 C1358 1.428 . S
C1364 N1363 1.351 . S
C1364 C1365 1.434 . S
C1365 C1356 1.429 . S
C1365 N1362 1.350 . S
C1365 C1364 1.434 . S
C1366 C1367 1.369 . S
C1366 C1368 1.419 . S
C1366 H1370 0.930 . S
C1367 C1366 1.369 . S
C1367 C1376 1.429 . S
C1368 C1366 1.419 . S
C1368 C1369 1.363 . S
C1368 H1371 0.929 . S
C1369 C1368 1.363 . S
C1369 C1375 1.428 . S
H1370 C1366 0.930 . S
H1371 C1368 0.929 . S
S1372 N1373 1.613 . S
S1372 N1374 1.610 . S
N1373 S1372 1.613 . S
N1373 C1376 1.350 . S
N1374 S1372 1.610 . S
N1374 C1375 1.351 . S
C1375 C1369 1.428 . S
C1375 N1374 1.351 . S
C1375 C1376 1.434 . S
C1376 C1367 1.429 . S
C1376 N1373 1.350 . S
C1376 C1375 1.434 . S
C1377 C1378 1.369 . S
C1377 C1379 1.419 . S
C1377 H1381 0.930 . S
C1378 C1377 1.369 . S
C1378 C1387 1.429 . S
C1379 C1377 1.419 . S
C1379 C1380 1.363 . S
C1379 H1382 0.929 . S
C1380 C1379 1.363 . S
C1380 C1386 1.428 . S
H1381 C1377 0.930 . S
H1382 C1379 0.929 . S
S1383 N1384 1.613 . S
S1383 N1385 1.610 . S
N1384 S1383 1.613 . S
N1384 C1387 1.350 . S
N1385 S1383 1.610 . S
N1385 C1386 1.351 . S
C1386 C1380 1.428 . S
C1386 N1385 1.351 . S
C1386 C1387 1.434 . S
C1387 C1378 1.429 . S
C1387 N1384 1.350 . S
C1387 C1386 1.434 . S
C1388 C1389 1.369 . S
C1388 C1390 1.419 . S
C1388 H1392 0.930 . S
C1389 C1388 1.369 . S
C1389 C1398 1.429 . S
C1390 C1388 1.419 . S
C1390 C1391 1.363 . S
C1390 H1393 0.929 . S
C1391 C1390 1.363 . S
C1391 C1397 1.428 . S
H1392 C1388 0.930 . S
H1393 C1390 0.929 . S
S1394 N1395 1.613 . S
S1394 N1396 1.610 . S
N1395 S1394 1.613 . S
N1395 C1398 1.350 . S
N1396 S1394 1.610 . S
N1396 C1397 1.351 . S
C1397 C1391 1.428 . S
C1397 N1396 1.351 . S
C1397 C1398 1.434 . S
C1398 C1389 1.429 . S
C1398 N1395 1.350 . S
C1398 C1397 1.434 . S
C1399 C1400 1.369 . S
C1399 C1401 1.419 . S
C1399 H1403 0.930 . S
C1400 C1399 1.369 . S
C1400 C1409 1.429 . S
C1401 C1399 1.419 . S
C1401 C1402 1.363 . S
C1401 H1404 0.929 . S
C1402 C1401 1.363 . S
C1402 C1408 1.428 . S
H1403 C1399 0.930 . S
H1404 C1401 0.929 . S
S1405 N1406 1.613 . S
S1405 N1407 1.610 . S
N1406 S1405 1.613 . S
N1406 C1409 1.350 . S
N1407 S1405 1.610 . S
N1407 C1408 1.351 . S
C1408 C1402 1.428 . S
C1408 N1407 1.351 . S
C1408 C1409 1.434 . S
C1409 C1400 1.429 . S
C1409 N1406 1.350 . S
C1409 C1408 1.434 . S
C1410 C1411 1.369 . S
C1410 C1412 1.419 . S
C1410 H1414 0.930 . S
C1411 C1410 1.369 . S
C1411 C1420 1.429 . S
C1412 C1410 1.419 . S
C1412 C1413 1.363 . S
C1412 H1415 0.929 . S
C1413 C1412 1.363 . S
C1413 C1419 1.428 . S
H1414 C1410 0.930 . S
H1415 C1412 0.929 . S
S1416 N1417 1.613 . S
S1416 N1418 1.610 . S
N1417 S1416 1.613 . S
N1417 C1420 1.350 . S
N1418 S1416 1.610 . S
N1418 C1419 1.351 . S
C1419 C1413 1.428 . S
C1419 N1418 1.351 . S
C1419 C1420 1.434 . S
C1420 C1411 1.429 . S
C1420 N1417 1.350 . S
C1420 C1419 1.434 . S
C1421 C1422 1.369 . S
C1421 C1423 1.419 . S
C1421 H1425 0.930 . S
C1422 C1421 1.369 . S
C1422 C1431 1.429 . S
C1423 C1421 1.419 . S
C1423 C1424 1.363 . S
C1423 H1426 0.929 . S
C1424 C1423 1.363 . S
C1424 C1430 1.428 . S
H1425 C1421 0.930 . S
H1426 C1423 0.929 . S
S1427 N1428 1.613 . S
S1427 N1429 1.610 . S
N1428 S1427 1.613 . S
N1428 C1431 1.350 . S
N1429 S1427 1.610 . S
N1429 C1430 1.351 . S
C1430 C1424 1.428 . S
C1430 N1429 1.351 . S
C1430 C1431 1.434 . S
C1431 C1422 1.429 . S
C1431 N1428 1.350 . S
C1431 C1430 1.434 . S
C1432 C1433 1.369 . S
C1432 C1434 1.419 . S
C1432 H1436 0.930 . S
C1433 C1432 1.369 . S
C1433 C1442 1.429 . S
C1434 C1432 1.419 . S
C1434 C1435 1.363 . S
C1434 H1437 0.929 . S
C1435 C1434 1.363 . S
C1435 C1441 1.428 . S
H1436 C1432 0.930 . S
H1437 C1434 0.929 . S
S1438 N1439 1.613 . S
S1438 N1440 1.610 . S
N1439 S1438 1.613 . S
N1439 C1442 1.350 . S
N1440 S1438 1.610 . S
N1440 C1441 1.351 . S
C1441 C1435 1.428 . S
C1441 N1440 1.351 . S
C1441 C1442 1.434 . S
C1442 C1433 1.429 . S
C1442 N1439 1.350 . S
C1442 C1441 1.434 . S
C1443 C1444 1.369 . S
C1443 C1445 1.419 . S
C1443 H1447 0.930 . S
C1444 C1443 1.369 . S
C1444 C1453 1.429 . S
C1445 C1443 1.419 . S
C1445 C1446 1.363 . S
C1445 H1448 0.929 . S
C1446 C1445 1.363 . S
C1446 C1452 1.428 . S
H1447 C1443 0.930 . S
H1448 C1445 0.929 . S
S1449 N1450 1.613 . S
S1449 N1451 1.610 . S
N1450 S1449 1.613 . S
N1450 C1453 1.350 . S
N1451 S1449 1.610 . S
N1451 C1452 1.351 . S
C1452 C1446 1.428 . S
C1452 N1451 1.351 . S
C1452 C1453 1.434 . S
C1453 C1444 1.429 . S
C1453 N1450 1.350 . S
C1453 C1452 1.434 . S
C1454 C1455 1.369 . S
C1454 C1456 1.419 . S
C1454 H1458 0.930 . S
C1455 C1454 1.369 . S
C1455 C1464 1.429 . S
C1456 C1454 1.419 . S
C1456 C1457 1.363 . S
C1456 H1459 0.929 . S
C1457 C1456 1.363 . S
C1457 C1463 1.428 . S
H1458 C1454 0.930 . S
H1459 C1456 0.929 . S
S1460 N1461 1.613 . S
S1460 N1462 1.610 . S
N1461 S1460 1.613 . S
N1461 C1464 1.350 . S
N1462 S1460 1.610 . S
N1462 C1463 1.351 . S
C1463 C1457 1.428 . S
C1463 N1462 1.351 . S
C1463 C1464 1.434 . S
C1464 C1455 1.429 . S
C1464 N1461 1.350 . S
C1464 C1463 1.434 . S
C1465 C1466 1.369 . S
C1465 C1467 1.419 . S
C1465 H1469 0.930 . S
C1466 C1465 1.369 . S
C1466 C1475 1.429 . S
C1467 C1465 1.419 . S
C1467 C1468 1.363 . S
C1467 H1470 0.929 . S
C1468 C1467 1.363 . S
C1468 C1474 1.428 . S
H1469 C1465 0.930 . S
H1470 C1467 0.929 . S
S1471 N1472 1.613 . S
S1471 N1473 1.610 . S
N1472 S1471 1.613 . S
N1472 C1475 1.350 . S
N1473 S1471 1.610 . S
N1473 C1474 1.351 . S
C1474 C1468 1.428 . S
C1474 N1473 1.351 . S
C1474 C1475 1.434 . S
C1475 C1466 1.429 . S
C1475 N1472 1.350 . S
C1475 C1474 1.434 . S
C1476 C1477 1.369 . S
C1476 C1478 1.419 . S
C1476 H1480 0.930 . S
C1477 C1476 1.369 . S
C1477 C1486 1.429 . S
C1478 C1476 1.419 . S
C1478 C1479 1.363 . S
C1478 H1481 0.929 . S
C1479 C1478 1.363 . S
C1479 C1485 1.428 . S
H1480 C1476 0.930 . S
H1481 C1478 0.929 . S
S1482 N1483 1.613 . S
S1482 N1484 1.610 . S
N1483 S1482 1.613 . S
N1483 C1486 1.350 . S
N1484 S1482 1.610 . S
N1484 C1485 1.351 . S
C1485 C1479 1.428 . S
C1485 N1484 1.351 . S
C1485 C1486 1.434 . S
C1486 C1477 1.429 . S
C1486 N1483 1.350 . S
C1486 C1485 1.434 . S
C1487 C1488 1.369 . S
C1487 C1489 1.419 . S
C1487 H1491 0.930 . S
C1488 C1487 1.369 . S
C1488 C1497 1.429 . S
C1489 C1487 1.419 . S
C1489 C1490 1.363 . S
C1489 H1492 0.929 . S
C1490 C1489 1.363 . S
C1490 C1496 1.428 . S
H1491 C1487 0.930 . S
H1492 C1489 0.929 . S
S1493 N1494 1.613 . S
S1493 N1495 1.610 . S
N1494 S1493 1.613 . S
N1494 C1497 1.350 . S
N1495 S1493 1.610 . S
N1495 C1496 1.351 . S
C1496 C1490 1.428 . S
C1496 N1495 1.351 . S
C1496 C1497 1.434 . S
C1497 C1488 1.429 . S
C1497 N1494 1.350 . S
C1497 C1496 1.434 . S
C1498 C1499 1.369 . S
C1498 C1500 1.419 . S
C1498 H1502 0.930 . S
C1499 C1498 1.369 . S
C1499 C1508 1.429 . S
C1500 C1498 1.419 . S
C1500 C1501 1.363 . S
C1500 H1503 0.929 . S
C1501 C1500 1.363 . S
C1501 C1507 1.428 . S
H1502 C1498 0.930 . S
H1503 C1500 0.929 . S
S1504 N1505 1.613 . S
S1504 N1506 1.610 . S
N1505 S1504 1.613 . S
N1505 C1508 1.350 . S
N1506 S1504 1.610 . S
N1506 C1507 1.351 . S
C1507 C1501 1.428 . S
C1507 N1506 1.351 . S
C1507 C1508 1.434 . S
C1508 C1499 1.429 . S
C1508 N1505 1.350 . S
C1508 C1507 1.434 . S
C1509 C1510 1.369 . S
C1509 C1511 1.419 . S
C1509 H1513 0.930 . S
C1510 C1509 1.369 . S
C1510 C1519 1.429 . S
C1511 C1509 1.419 . S
C1511 C1512 1.363 . S
C1511 H1514 0.929 . S
C1512 C1511 1.363 . S
C1512 C1518 1.428 . S
H1513 C1509 0.930 . S
H1514 C1511 0.929 . S
S1515 N1516 1.613 . S
S1515 N1517 1.610 . S
N1516 S1515 1.613 . S
N1516 C1519 1.350 . S
N1517 S1515 1.610 . S
N1517 C1518 1.351 . S
C1518 C1512 1.428 . S
C1518 N1517 1.351 . S
C1518 C1519 1.434 . S
C1519 C1510 1.429 . S
C1519 N1516 1.350 . S
C1519 C1518 1.434 . S
C1520 C1521 1.369 . S
C1520 C1522 1.419 . S
C1520 H1524 0.930 . S
C1521 C1520 1.369 . S
C1521 C1530 1.429 . S
C1522 C1520 1.419 . S
C1522 C1523 1.363 . S
C1522 H1525 0.929 . S
C1523 C1522 1.363 . S
C1523 C1529 1.428 . S
H1524 C1520 0.930 . S
H1525 C1522 0.929 . S
S1526 N1527 1.613 . S
S1526 N1528 1.610 . S
N1527 S1526 1.613 . S
N1527 C1530 1.350 . S
N1528 S1526 1.610 . S
N1528 C1529 1.351 . S
C1529 C1523 1.428 . S
C1529 N1528 1.351 . S
C1529 C1530 1.434 . S
C1530 C1521 1.429 . S
C1530 N1527 1.350 . S
C1530 C1529 1.434 . S
C1531 C1532 1.369 . S
C1531 C1533 1.419 . S
C1531 H1535 0.930 . S
C1532 C1531 1.369 . S
C1532 C1541 1.429 . S
C1533 C1531 1.419 . S
C1533 C1534 1.363 . S
C1533 H1536 0.929 . S
C1534 C1533 1.363 . S
C1534 C1540 1.428 . S
H1535 C1531 0.930 . S
H1536 C1533 0.929 . S
S1537 N1538 1.613 . S
S1537 N1539 1.610 . S
N1538 S1537 1.613 . S
N1538 C1541 1.350 . S
N1539 S1537 1.610 . S
N1539 C1540 1.351 . S
C1540 C1534 1.428 . S
C1540 N1539 1.351 . S
C1540 C1541 1.434 . S
C1541 C1532 1.429 . S
C1541 N1538 1.350 . S
C1541 C1540 1.434 . S
C1542 C1543 1.369 . S
C1542 C1544 1.419 . S
C1542 H1546 0.930 . S
C1543 C1542 1.369 . S
C1543 C1552 1.429 . S
C1544 C1542 1.419 . S
C1544 C1545 1.363 . S
C1544 H1547 0.929 . S
C1545 C1544 1.363 . S
C1545 C1551 1.428 . S
H1546 C1542 0.930 . S
H1547 C1544 0.929 . S
S1548 N1549 1.613 . S
S1548 N1550 1.610 . S
N1549 S1548 1.613 . S
N1549 C1552 1.350 . S
N1550 S1548 1.610 . S
N1550 C1551 1.351 . S
C1551 C1545 1.428 . S
C1551 N1550 1.351 . S
C1551 C1552 1.434 . S
C1552 C1543 1.429 . S
C1552 N1549 1.350 . S
C1552 C1551 1.434 . S
C1553 C1554 1.369 . S
C1553 C1555 1.419 . S
C1553 H1557 0.930 . S
C1554 C1553 1.369 . S
C1554 C1563 1.429 . S
C1555 C1553 1.419 . S
C1555 C1556 1.363 . S
C1555 H1558 0.929 . S
C1556 C1555 1.363 . S
C1556 C1562 1.428 . S
H1557 C1553 0.930 . S
H1558 C1555 0.929 . S
S1559 N1560 1.613 . S
S1559 N1561 1.610 . S
N1560 S1559 1.613 . S
N1560 C1563 1.350 . S
N1561 S1559 1.610 . S
N1561 C1562 1.351 . S
C1562 C1556 1.428 . S
C1562 N1561 1.351 . S
C1562 C1563 1.434 . S
C1563 C1554 1.429 . S
C1563 N1560 1.350 . S
C1563 C1562 1.434 . S
C1564 C1565 1.369 . S
C1564 C1566 1.419 . S
C1564 H1568 0.930 . S
C1565 C1564 1.369 . S
C1565 C1574 1.429 . S
C1566 C1564 1.419 . S
C1566 C1567 1.363 . S
C1566 H1569 0.929 . S
C1567 C1566 1.363 . S
C1567 C1573 1.428 . S
H1568 C1564 0.930 . S
H1569 C1566 0.929 . S
S1570 N1571 1.613 . S
S1570 N1572 1.610 . S
N1571 S1570 1.613 . S
N1571 C1574 1.350 . S
N1572 S1570 1.610 . S
N1572 C1573 1.351 . S
C1573 C1567 1.428 . S
C1573 N1572 1.351 . S
C1573 C1574 1.434 . S
C1574 C1565 1.429 . S
C1574 N1571 1.350 . S
C1574 C1573 1.434 . S
C1575 C1576 1.369 . S
C1575 C1577 1.419 . S
C1575 H1579 0.930 . S
C1576 C1575 1.369 . S
C1576 C1585 1.429 . S
C1577 C1575 1.419 . S
C1577 C1578 1.363 . S
C1577 H1580 0.929 . S
C1578 C1577 1.363 . S
C1578 C1584 1.428 . S
H1579 C1575 0.930 . S
H1580 C1577 0.929 . S
S1581 N1582 1.613 . S
S1581 N1583 1.610 . S
N1582 S1581 1.613 . S
N1582 C1585 1.350 . S
N1583 S1581 1.610 . S
N1583 C1584 1.351 . S
C1584 C1578 1.428 . S
C1584 N1583 1.351 . S
C1584 C1585 1.434 . S
C1585 C1576 1.429 . S
C1585 N1582 1.350 . S
C1585 C1584 1.434 . S
C1586 C1587 1.369 . S
C1586 C1588 1.419 . S
C1586 H1590 0.930 . S
C1587 C1586 1.369 . S
C1587 C1596 1.429 . S
C1588 C1586 1.419 . S
C1588 C1589 1.363 . S
C1588 H1591 0.929 . S
C1589 C1588 1.363 . S
C1589 C1595 1.428 . S
H1590 C1586 0.930 . S
H1591 C1588 0.929 . S
S1592 N1593 1.613 . S
S1592 N1594 1.610 . S
N1593 S1592 1.613 . S
N1593 C1596 1.350 . S
N1594 S1592 1.610 . S
N1594 C1595 1.351 . S
C1595 C1589 1.428 . S
C1595 N1594 1.351 . S
C1595 C1596 1.434 . S
C1596 C1587 1.429 . S
C1596 N1593 1.350 . S
C1596 C1595 1.434 . S
C1597 C1598 1.369 . S
C1597 C1599 1.419 . S
C1597 H1601 0.930 . S
C1598 C1597 1.369 . S
C1598 C1607 1.429 . S
C1599 C1597 1.419 . S
C1599 C1600 1.363 . S
C1599 H1602 0.929 . S
C1600 C1599 1.363 . S
C1600 C1606 1.428 . S
H1601 C1597 0.930 . S
H1602 C1599 0.929 . S
S1603 N1604 1.613 . S
S1603 N1605 1.610 . S
N1604 S1603 1.613 . S
N1604 C1607 1.350 . S
N1605 S1603 1.610 . S
N1605 C1606 1.351 . S
C1606 C1600 1.428 . S
C1606 N1605 1.351 . S
C1606 C1607 1.434 . S
C1607 C1598 1.429 . S
C1607 N1604 1.350 . S
C1607 C1606 1.434 . S
C1608 C1609 1.369 . S
C1608 C1610 1.419 . S
C1608 H1612 0.930 . S
C1609 C1608 1.369 . S
C1609 C1618 1.429 . S
C1610 C1608 1.419 . S
C1610 C1611 1.363 . S
C1610 H1613 0.929 . S
C1611 C1610 1.363 . S
C1611 C1617 1.428 . S
H1612 C1608 0.930 . S
H1613 C1610 0.929 . S
S1614 N1615 1.613 . S
S1614 N1616 1.610 . S
N1615 S1614 1.613 . S
N1615 C1618 1.350 . S
N1616 S1614 1.610 . S
N1616 C1617 1.351 . S
C1617 C1611 1.428 . S
C1617 N1616 1.351 . S
C1617 C1618 1.434 . S
C1618 C1609 1.429 . S
C1618 N1615 1.350 . S
C1618 C1617 1.434 . S
C1619 C1620 1.369 . S
C1619 C1621 1.419 . S
C1619 H1623 0.930 . S
C1620 C1619 1.369 . S
C1620 C1629 1.429 . S
C1621 C1619 1.419 . S
C1621 C1622 1.363 . S
C1621 H1624 0.929 . S
C1622 C1621 1.363 . S
C1622 C1628 1.428 . S
H1623 C1619 0.930 . S
H1624 C1621 0.929 . S
S1625 N1626 1.613 . S
S1625 N1627 1.610 . S
N1626 S1625 1.613 . S
N1626 C1629 1.350 . S
N1627 S1625 1.610 . S
N1627 C1628 1.351 . S
C1628 C1622 1.428 . S
C1628 N1627 1.351 . S
C1628 C1629 1.434 . S
C1629 C1620 1.429 . S
C1629 N1626 1.350 . S
C1629 C1628 1.434 . S
C1630 C1631 1.369 . S
C1630 C1632 1.419 . S
C1630 H1634 0.930 . S
C1631 C1630 1.369 . S
C1631 C1640 1.429 . S
C1632 C1630 1.419 . S
C1632 C1633 1.363 . S
C1632 H1635 0.929 . S
C1633 C1632 1.363 . S
C1633 C1639 1.428 . S
H1634 C1630 0.930 . S
H1635 C1632 0.929 . S
S1636 N1637 1.613 . S
S1636 N1638 1.610 . S
N1637 S1636 1.613 . S
N1637 C1640 1.350 . S
N1638 S1636 1.610 . S
N1638 C1639 1.351 . S
C1639 C1633 1.428 . S
C1639 N1638 1.351 . S
C1639 C1640 1.434 . S
C1640 C1631 1.429 . S
C1640 N1637 1.350 . S
C1640 C1639 1.434 . S
C1641 C1642 1.369 . S
C1641 C1643 1.419 . S
C1641 H1645 0.930 . S
C1642 C1641 1.369 . S
C1642 C1651 1.429 . S
C1643 C1641 1.419 . S
C1643 C1644 1.363 . S
C1643 H1646 0.929 . S
C1644 C1643 1.363 . S
C1644 C1650 1.428 . S
H1645 C1641 0.930 . S
H1646 C1643 0.929 . S
S1647 N1648 1.613 . S
S1647 N1649 1.610 . S
N1648 S1647 1.613 . S
N1648 C1651 1.350 . S
N1649 S1647 1.610 . S
N1649 C1650 1.351 . S
C1650 C1644 1.428 . S
C1650 N1649 1.351 . S
C1650 C1651 1.434 . S
C1651 C1642 1.429 . S
C1651 N1648 1.350 . S
C1651 C1650 1.434 . S
C1652 C1653 1.369 . S
C1652 C1654 1.419 . S
C1652 H1656 0.930 . S
C1653 C1652 1.369 . S
C1653 C1662 1.429 . S
C1654 C1652 1.419 . S
C1654 C1655 1.363 . S
C1654 H1657 0.929 . S
C1655 C1654 1.363 . S
C1655 C1661 1.428 . S
H1656 C1652 0.930 . S
H1657 C1654 0.929 . S
S1658 N1659 1.613 . S
S1658 N1660 1.610 . S
N1659 S1658 1.613 . S
N1659 C1662 1.350 . S
N1660 S1658 1.610 . S
N1660 C1661 1.351 . S
C1661 C1655 1.428 . S
C1661 N1660 1.351 . S
C1661 C1662 1.434 . S
C1662 C1653 1.429 . S
C1662 N1659 1.350 . S
C1662 C1661 1.434 . S
C1663 C1664 1.369 . S
C1663 C1665 1.419 . S
C1663 H1667 0.930 . S
C1664 C1663 1.369 . S
C1664 C1673 1.429 . S
C1665 C1663 1.419 . S
C1665 C1666 1.363 . S
C1665 H1668 0.929 . S
C1666 C1665 1.363 . S
C1666 C1672 1.428 . S
H1667 C1663 0.930 . S
H1668 C1665 0.929 . S
S1669 N1670 1.613 . S
S1669 N1671 1.610 . S
N1670 S1669 1.613 . S
N1670 C1673 1.350 . S
N1671 S1669 1.610 . S
N1671 C1672 1.351 . S
C1672 C1666 1.428 . S
C1672 N1671 1.351 . S
C1672 C1673 1.434 . S
C1673 C1664 1.429 . S
C1673 N1670 1.350 . S
C1673 C1672 1.434 . S
C1674 C1675 1.369 . S
C1674 C1676 1.419 . S
C1674 H1678 0.930 . S
C1675 C1674 1.369 . S
C1675 C1684 1.429 . S
C1676 C1674 1.419 . S
C1676 C1677 1.363 . S
C1676 H1679 0.929 . S
C1677 C1676 1.363 . S
C1677 C1683 1.428 . S
H1678 C1674 0.930 . S
H1679 C1676 0.929 . S
S1680 N1681 1.613 . S
S1680 N1682 1.610 . S
N1681 S1680 1.613 . S
N1681 C1684 1.350 . S
N1682 S1680 1.610 . S
N1682 C1683 1.351 . S
C1683 C1677 1.428 . S
C1683 N1682 1.351 . S
C1683 C1684 1.434 . S
C1684 C1675 1.429 . S
C1684 N1681 1.350 . S
C1684 C1683 1.434 . S
C1685 C1686 1.369 . S
C1685 C1687 1.419 . S
C1685 H1689 0.930 . S
C1686 C1685 1.369 . S
C1686 C1695 1.429 . S
C1687 C1685 1.419 . S
C1687 C1688 1.363 . S
C1687 H1690 0.929 . S
C1688 C1687 1.363 . S
C1688 C1694 1.428 . S
H1689 C1685 0.930 . S
H1690 C1687 0.929 . S
S1691 N1692 1.613 . S
S1691 N1693 1.610 . S
N1692 S1691 1.613 . S
N1692 C1695 1.350 . S
N1693 S1691 1.610 . S
N1693 C1694 1.351 . S
C1694 C1688 1.428 . S
C1694 N1693 1.351 . S
C1694 C1695 1.434 . S
C1695 C1686 1.429 . S
C1695 N1692 1.350 . S
C1695 C1694 1.434 . S
C1696 C1697 1.369 . S
C1696 C1698 1.419 . S
C1696 H1700 0.930 . S
C1697 C1696 1.369 . S
C1697 C1706 1.429 . S
C1698 C1696 1.419 . S
C1698 C1699 1.363 . S
C1698 H1701 0.929 . S
C1699 C1698 1.363 . S
C1699 C1705 1.428 . S
H1700 C1696 0.930 . S
H1701 C1698 0.929 . S
S1702 N1703 1.613 . S
S1702 N1704 1.610 . S
N1703 S1702 1.613 . S
N1703 C1706 1.350 . S
N1704 S1702 1.610 . S
N1704 C1705 1.351 . S
C1705 C1699 1.428 . S
C1705 N1704 1.351 . S
C1705 C1706 1.434 . S
C1706 C1697 1.429 . S
C1706 N1703 1.350 . S
C1706 C1705 1.434 . S
C1707 C1708 1.369 . S
C1707 C1709 1.419 . S
C1707 H1711 0.930 . S
C1708 C1707 1.369 . S
C1708 C1717 1.429 . S
C1709 C1707 1.419 . S
C1709 C1710 1.363 . S
C1709 H1712 0.929 . S
C1710 C1709 1.363 . S
C1710 C1716 1.428 . S
H1711 C1707 0.930 . S
H1712 C1709 0.929 . S
S1713 N1714 1.613 . S
S1713 N1715 1.610 . S
N1714 S1713 1.613 . S
N1714 C1717 1.350 . S
N1715 S1713 1.610 . S
N1715 C1716 1.351 . S
C1716 C1710 1.428 . S
C1716 N1715 1.351 . S
C1716 C1717 1.434 . S
C1717 C1708 1.429 . S
C1717 N1714 1.350 . S
C1717 C1716 1.434 . S
C1718 C1719 1.369 . S
C1718 C1720 1.419 . S
C1718 H1722 0.930 . S
C1719 C1718 1.369 . S
C1719 C1728 1.429 . S
C1720 C1718 1.419 . S
C1720 C1721 1.363 . S
C1720 H1723 0.929 . S
C1721 C1720 1.363 . S
C1721 C1727 1.428 . S
H1722 C1718 0.930 . S
H1723 C1720 0.929 . S
S1724 N1725 1.613 . S
S1724 N1726 1.610 . S
N1725 S1724 1.613 . S
N1725 C1728 1.350 . S
N1726 S1724 1.610 . S
N1726 C1727 1.351 . S
C1727 C1721 1.428 . S
C1727 N1726 1.351 . S
C1727 C1728 1.434 . S
C1728 C1719 1.429 . S
C1728 N1725 1.350 . S
C1728 C1727 1.434 . S
C1729 C1730 1.369 . S
C1729 C1731 1.419 . S
C1729 H1733 0.930 . S
C1730 C1729 1.369 . S
C1730 C1739 1.429 . S
C1731 C1729 1.419 . S
C1731 C1732 1.363 . S
C1731 H1734 0.929 . S
C1732 C1731 1.363 . S
C1732 C1738 1.428 . S
H1733 C1729 0.930 . S
H1734 C1731 0.929 . S
S1735 N1736 1.613 . S
S1735 N1737 1.610 . S
N1736 S1735 1.613 . S
N1736 C1739 1.350 . S
N1737 S1735 1.610 . S
N1737 C1738 1.351 . S
C1738 C1732 1.428 . S
C1738 N1737 1.351 . S
C1738 C1739 1.434 . S
C1739 C1730 1.429 . S
C1739 N1736 1.350 . S
C1739 C1738 1.434 . S
C1740 C1741 1.369 . S
C1740 C1742 1.419 . S
C1740 H1744 0.930 . S
C1741 C1740 1.369 . S
C1741 C1750 1.429 . S
C1742 C1740 1.419 . S
C1742 C1743 1.363 . S
C1742 H1745 0.929 . S
C1743 C1742 1.363 . S
C1743 C1749 1.428 . S
H1744 C1740 0.930 . S
H1745 C1742 0.929 . S
S1746 N1747 1.613 . S
S1746 N1748 1.610 . S
N1747 S1746 1.613 . S
N1747 C1750 1.350 . S
N1748 S1746 1.610 . S
N1748 C1749 1.351 . S
C1749 C1743 1.428 . S
C1749 N1748 1.351 . S
C1749 C1750 1.434 . S
C1750 C1741 1.429 . S
C1750 N1747 1.350 . S
C1750 C1749 1.434 . S
C1751 C1752 1.369 . S
C1751 C1753 1.419 . S
C1751 H1755 0.930 . S
C1752 C1751 1.369 . S
C1752 C1761 1.429 . S
C1753 C1751 1.419 . S
C1753 C1754 1.363 . S
C1753 H1756 0.929 . S
C1754 C1753 1.363 . S
C1754 C1760 1.428 . S
H1755 C1751 0.930 . S
H1756 C1753 0.929 . S
S1757 N1758 1.613 . S
S1757 N1759 1.610 . S
N1758 S1757 1.613 . S
N1758 C1761 1.350 . S
N1759 S1757 1.610 . S
N1759 C1760 1.351 . S
C1760 C1754 1.428 . S
C1760 N1759 1.351 . S
C1760 C1761 1.434 . S
C1761 C1752 1.429 . S
C1761 N1758 1.350 . S
C1761 C1760 1.434 . S
C1762 C1763 1.369 . S
C1762 C1764 1.419 . S
C1762 H1766 0.930 . S
C1763 C1762 1.369 . S
C1763 C1772 1.429 . S
C1764 C1762 1.419 . S
C1764 C1765 1.363 . S
C1764 H1767 0.929 . S
C1765 C1764 1.363 . S
C1765 C1771 1.428 . S
H1766 C1762 0.930 . S
H1767 C1764 0.929 . S
S1768 N1769 1.613 . S
S1768 N1770 1.610 . S
N1769 S1768 1.613 . S
N1769 C1772 1.350 . S
N1770 S1768 1.610 . S
N1770 C1771 1.351 . S
C1771 C1765 1.428 . S
C1771 N1770 1.351 . S
C1771 C1772 1.434 . S
C1772 C1763 1.429 . S
C1772 N1769 1.350 . S
C1772 C1771 1.434 . S
C1773 C1774 1.369 . S
C1773 C1775 1.419 . S
C1773 H1777 0.930 . S
C1774 C1773 1.369 . S
C1774 C1783 1.429 . S
C1775 C1773 1.419 . S
C1775 C1776 1.363 . S
C1775 H1778 0.929 . S
C1776 C1775 1.363 . S
C1776 C1782 1.428 . S
H1777 C1773 0.930 . S
H1778 C1775 0.929 . S
S1779 N1780 1.613 . S
S1779 N1781 1.610 . S
N1780 S1779 1.613 . S
N1780 C1783 1.350 . S
N1781 S1779 1.610 . S
N1781 C1782 1.351 . S
C1782 C1776 1.428 . S
C1782 N1781 1.351 . S
C1782 C1783 1.434 . S
C1783 C1774 1.429 . S
C1783 N1780 1.350 . S
C1783 C1782 1.434 . S
C1784 C1785 1.369 . S
C1784 C1786 1.419 . S
C1784 H1788 0.930 . S
C1785 C1784 1.369 . S
C1785 C1794 1.429 . S
C1786 C1784 1.419 . S
C1786 C1787 1.363 . S
C1786 H1789 0.929 . S
C1787 C1786 1.363 . S
C1787 C1793 1.428 . S
H1788 C1784 0.930 . S
H1789 C1786 0.929 . S
S1790 N1791 1.613 . S
S1790 N1792 1.610 . S
N1791 S1790 1.613 . S
N1791 C1794 1.350 . S
N1792 S1790 1.610 . S
N1792 C1793 1.351 . S
C1793 C1787 1.428 . S
C1793 N1792 1.351 . S
C1793 C1794 1.434 . S
C1794 C1785 1.429 . S
C1794 N1791 1.350 . S
C1794 C1793 1.434 . S
C1795 C1796 1.369 . S
C1795 C1797 1.419 . S
C1795 H1799 0.930 . S
C1796 C1795 1.369 . S
C1796 C1805 1.429 . S
C1797 C1795 1.419 . S
C1797 C1798 1.363 . S
C1797 H1800 0.929 . S
C1798 C1797 1.363 . S
C1798 C1804 1.428 . S
H1799 C1795 0.930 . S
H1800 C1797 0.929 . S
S1801 N1802 1.613 . S
S1801 N1803 1.610 . S
N1802 S1801 1.613 . S
N1802 C1805 1.350 . S
N1803 S1801 1.610 . S
N1803 C1804 1.351 . S
C1804 C1798 1.428 . S
C1804 N1803 1.351 . S
C1804 C1805 1.434 . S
C1805 C1796 1.429 . S
C1805 N1802 1.350 . S
C1805 C1804 1.434 . S
C1806 C1807 1.369 . S
C1806 C1808 1.419 . S
C1806 H1810 0.930 . S
C1807 C1806 1.369 . S
C1807 C1816 1.429 . S
C1808 C1806 1.419 . S
C1808 C1809 1.363 . S
C1808 H1811 0.929 . S
C1809 C1808 1.363 . S
C1809 C1815 1.428 . S
H1810 C1806 0.930 . S
H1811 C1808 0.929 . S
S1812 N1813 1.613 . S
S1812 N1814 1.610 . S
N1813 S1812 1.613 . S
N1813 C1816 1.350 . S
N1814 S1812 1.610 . S
N1814 C1815 1.351 . S
C1815 C1809 1.428 . S
C1815 N1814 1.351 . S
C1815 C1816 1.434 . S
C1816 C1807 1.429 . S
C1816 N1813 1.350 . S
C1816 C1815 1.434 . S
C1817 C1818 1.369 . S
C1817 C1819 1.419 . S
C1817 H1821 0.930 . S
C1818 C1817 1.369 . S
C1818 C1827 1.429 . S
C1819 C1817 1.419 . S
C1819 C1820 1.363 . S
C1819 H1822 0.929 . S
C1820 C1819 1.363 . S
C1820 C1826 1.428 . S
H1821 C1817 0.930 . S
H1822 C1819 0.929 . S
S1823 N1824 1.613 . S
S1823 N1825 1.610 . S
N1824 S1823 1.613 . S
N1824 C1827 1.350 . S
N1825 S1823 1.610 . S
N1825 C1826 1.351 . S
C1826 C1820 1.428 . S
C1826 N1825 1.351 . S
C1826 C1827 1.434 . S
C1827 C1818 1.429 . S
C1827 N1824 1.350 . S
C1827 C1826 1.434 . S
C1828 C1829 1.369 . S
C1828 C1830 1.419 . S
C1828 H1832 0.930 . S
C1829 C1828 1.369 . S
C1829 C1838 1.429 . S
C1830 C1828 1.419 . S
C1830 C1831 1.363 . S
C1830 H1833 0.929 . S
C1831 C1830 1.363 . S
C1831 C1837 1.428 . S
H1832 C1828 0.930 . S
H1833 C1830 0.929 . S
S1834 N1835 1.613 . S
S1834 N1836 1.610 . S
N1835 S1834 1.613 . S
N1835 C1838 1.350 . S
N1836 S1834 1.610 . S
N1836 C1837 1.351 . S
C1837 C1831 1.428 . S
C1837 N1836 1.351 . S
C1837 C1838 1.434 . S
C1838 C1829 1.429 . S
C1838 N1835 1.350 . S
C1838 C1837 1.434 . S
C1839 C1840 1.369 . S
C1839 C1841 1.419 . S
C1839 H1843 0.930 . S
C1840 C1839 1.369 . S
C1840 C1849 1.429 . S
C1841 C1839 1.419 . S
C1841 C1842 1.363 . S
C1841 H1844 0.929 . S
C1842 C1841 1.363 . S
C1842 C1848 1.428 . S
H1843 C1839 0.930 . S
H1844 C1841 0.929 . S
S1845 N1846 1.613 . S
S1845 N1847 1.610 . S
N1846 S1845 1.613 . S
N1846 C1849 1.350 . S
N1847 S1845 1.610 . S
N1847 C1848 1.351 . S
C1848 C1842 1.428 . S
C1848 N1847 1.351 . S
C1848 C1849 1.434 . S
C1849 C1840 1.429 . S
C1849 N1846 1.350 . S
C1849 C1848 1.434 . S
C1850 C1851 1.369 . S
C1850 C1852 1.419 . S
C1850 H1854 0.930 . S
C1851 C1850 1.369 . S
C1851 C1860 1.429 . S
C1852 C1850 1.419 . S
C1852 C1853 1.363 . S
C1852 H1855 0.929 . S
C1853 C1852 1.363 . S
C1853 C1859 1.428 . S
H1854 C1850 0.930 . S
H1855 C1852 0.929 . S
S1856 N1857 1.613 . S
S1856 N1858 1.610 . S
N1857 S1856 1.613 . S
N1857 C1860 1.350 . S
N1858 S1856 1.610 . S
N1858 C1859 1.351 . S
C1859 C1853 1.428 . S
C1859 N1858 1.351 . S
C1859 C1860 1.434 . S
C1860 C1851 1.429 . S
C1860 N1857 1.350 . S
C1860 C1859 1.434 . S
C1861 C1862 1.369 . S
C1861 C1863 1.419 . S
C1861 H1865 0.930 . S
C1862 C1861 1.369 . S
C1862 C1871 1.429 . S
C1863 C1861 1.419 . S
C1863 C1864 1.363 . S
C1863 H1866 0.929 . S
C1864 C1863 1.363 . S
C1864 C1870 1.428 . S
H1865 C1861 0.930 . S
H1866 C1863 0.929 . S
S1867 N1868 1.613 . S
S1867 N1869 1.610 . S
N1868 S1867 1.613 . S
N1868 C1871 1.350 . S
N1869 S1867 1.610 . S
N1869 C1870 1.351 . S
C1870 C1864 1.428 . S
C1870 N1869 1.351 . S
C1870 C1871 1.434 . S
C1871 C1862 1.429 . S
C1871 N1868 1.350 . S
C1871 C1870 1.434 . S
C1872 C1873 1.369 . S
C1872 C1874 1.419 . S
C1872 H1876 0.930 . S
C1873 C1872 1.369 . S
C1873 C1882 1.429 . S
C1874 C1872 1.419 . S
C1874 C1875 1.363 . S
C1874 H1877 0.929 . S
C1875 C1874 1.363 . S
C1875 C1881 1.428 . S
H1876 C1872 0.930 . S
H1877 C1874 0.929 . S
S1878 N1879 1.613 . S
S1878 N1880 1.610 . S
N1879 S1878 1.613 . S
N1879 C1882 1.350 . S
N1880 S1878 1.610 . S
N1880 C1881 1.351 . S
C1881 C1875 1.428 . S
C1881 N1880 1.351 . S
C1881 C1882 1.434 . S
C1882 C1873 1.429 . S
C1882 N1879 1.350 . S
C1882 C1881 1.434 . S
C1883 C1884 1.369 . S
C1883 C1885 1.419 . S
C1883 H1887 0.930 . S
C1884 C1883 1.369 . S
C1884 C1893 1.429 . S
C1885 C1883 1.419 . S
C1885 C1886 1.363 . S
C1885 H1888 0.929 . S
C1886 C1885 1.363 . S
C1886 C1892 1.428 . S
H1887 C1883 0.930 . S
H1888 C1885 0.929 . S
S1889 N1890 1.613 . S
S1889 N1891 1.610 . S
N1890 S1889 1.613 . S
N1890 C1893 1.350 . S
N1891 S1889 1.610 . S
N1891 C1892 1.351 . S
C1892 C1886 1.428 . S
C1892 N1891 1.351 . S
C1892 C1893 1.434 . S
C1893 C1884 1.429 . S
C1893 N1890 1.350 . S
C1893 C1892 1.434 . S
C1894 C1895 1.369 . S
C1894 C1896 1.419 . S
C1894 H1898 0.930 . S
C1895 C1894 1.369 . S
C1895 C1904 1.429 . S
C1896 C1894 1.419 . S
C1896 C1897 1.363 . S
C1896 H1899 0.929 . S
C1897 C1896 1.363 . S
C1897 C1903 1.428 . S
H1898 C1894 0.930 . S
H1899 C1896 0.929 . S
S1900 N1901 1.613 . S
S1900 N1902 1.610 . S
N1901 S1900 1.613 . S
N1901 C1904 1.350 . S
N1902 S1900 1.610 . S
N1902 C1903 1.351 . S
C1903 C1897 1.428 . S
C1903 N1902 1.351 . S
C1903 C1904 1.434 . S
C1904 C1895 1.429 . S
C1904 N1901 1.350 . S
C1904 C1903 1.434 . S
C1905 C1906 1.369 . S
C1905 C1907 1.419 . S
C1905 H1909 0.930 . S
C1906 C1905 1.369 . S
C1906 C1915 1.429 . S
C1907 C1905 1.419 . S
C1907 C1908 1.363 . S
C1907 H1910 0.929 . S
C1908 C1907 1.363 . S
C1908 C1914 1.428 . S
H1909 C1905 0.930 . S
H1910 C1907 0.929 . S
S1911 N1912 1.613 . S
S1911 N1913 1.610 . S
N1912 S1911 1.613 . S
N1912 C1915 1.350 . S
N1913 S1911 1.610 . S
N1913 C1914 1.351 . S
C1914 C1908 1.428 . S
C1914 N1913 1.351 . S
C1914 C1915 1.434 . S
C1915 C1906 1.429 . S
C1915 N1912 1.350 . S
C1915 C1914 1.434 . S
C1916 C1917 1.369 . S
C1916 C1918 1.419 . S
C1916 H1920 0.930 . S
C1917 C1916 1.369 . S
C1917 C1926 1.429 . S
C1918 C1916 1.419 . S
C1918 C1919 1.363 . S
C1918 H1921 0.929 . S
C1919 C1918 1.363 . S
C1919 C1925 1.428 . S
H1920 C1916 0.930 . S
H1921 C1918 0.929 . S
S1922 N1923 1.613 . S
S1922 N1924 1.610 . S
N1923 S1922 1.613 . S
N1923 C1926 1.350 . S
N1924 S1922 1.610 . S
N1924 C1925 1.351 . S
C1925 C1919 1.428 . S
C1925 N1924 1.351 . S
C1925 C1926 1.434 . S
C1926 C1917 1.429 . S
C1926 N1923 1.350 . S
C1926 C1925 1.434 . S
C1927 C1928 1.369 . S
C1927 C1929 1.419 . S
C1927 H1931 0.930 . S
C1928 C1927 1.369 . S
C1928 C1937 1.429 . S
C1929 C1927 1.419 . S
C1929 C1930 1.363 . S
C1929 H1932 0.929 . S
C1930 C1929 1.363 . S
C1930 C1936 1.428 . S
H1931 C1927 0.930 . S
H1932 C1929 0.929 . S
S1933 N1934 1.613 . S
S1933 N1935 1.610 . S
N1934 S1933 1.613 . S
N1934 C1937 1.350 . S
N1935 S1933 1.610 . S
N1935 C1936 1.351 . S
C1936 C1930 1.428 . S
C1936 N1935 1.351 . S
C1936 C1937 1.434 . S
C1937 C1928 1.429 . S
C1937 N1934 1.350 . S
C1937 C1936 1.434 . S
C1938 C1939 1.369 . S
C1938 C1940 1.419 . S
C1938 H1942 0.930 . S
C1939 C1938 1.369 . S
C1939 C1948 1.429 . S
C1940 C1938 1.419 . S
C1940 C1941 1.363 . S
C1940 H1943 0.929 . S
C1941 C1940 1.363 . S
C1941 C1947 1.428 . S
H1942 C1938 0.930 . S
H1943 C1940 0.929 . S
S1944 N1945 1.613 . S
S1944 N1946 1.610 . S
N1945 S1944 1.613 . S
N1945 C1948 1.350 . S
N1946 S1944 1.610 . S
N1946 C1947 1.351 . S
C1947 C1941 1.428 . S
C1947 N1946 1.351 . S
C1947 C1948 1.434 . S
C1948 C1939 1.429 . S
C1948 N1945 1.350 . S
C1948 C1947 1.434 . S
C1949 C1950 1.369 . S
C1949 C1951 1.419 . S
C1949 H1953 0.930 . S
C1950 C1949 1.369 . S
C1950 C1959 1.429 . S
C1951 C1949 1.419 . S
C1951 C1952 1.363 . S
C1951 H1954 0.929 . S
C1952 C1951 1.363 . S
C1952 C1958 1.428 . S
H1953 C1949 0.930 . S
H1954 C1951 0.929 . S
S1955 N1956 1.613 . S
S1955 N1957 1.610 . S
N1956 S1955 1.613 . S
N1956 C1959 1.350 . S
N1957 S1955 1.610 . S
N1957 C1958 1.351 . S
C1958 C1952 1.428 . S
C1958 N1957 1.351 . S
C1958 C1959 1.434 . S
C1959 C1950 1.429 . S
C1959 N1956 1.350 . S
C1959 C1958 1.434 . S
C1960 C1961 1.369 . S
C1960 C1962 1.419 . S
C1960 H1964 0.930 . S
C1961 C1960 1.369 . S
C1961 C1970 1.429 . S
C1962 C1960 1.419 . S
C1962 C1963 1.363 . S
C1962 H1965 0.929 . S
C1963 C1962 1.363 . S
C1963 C1969 1.428 . S
H1964 C1960 0.930 . S
H1965 C1962 0.929 . S
S1966 N1967 1.613 . S
S1966 N1968 1.610 . S
N1967 S1966 1.613 . S
N1967 C1970 1.350 . S
N1968 S1966 1.610 . S
N1968 C1969 1.351 . S
C1969 C1963 1.428 . S
C1969 N1968 1.351 . S
C1969 C1970 1.434 . S
C1970 C1961 1.429 . S
C1970 N1967 1.350 . S
C1970 C1969 1.434 . S
C1971 C1972 1.369 . S
C1971 C1973 1.419 . S
C1971 H1975 0.930 . S
C1972 C1971 1.369 . S
C1972 C1981 1.429 . S
C1973 C1971 1.419 . S
C1973 C1974 1.363 . S
C1973 H1976 0.929 . S
C1974 C1973 1.363 . S
C1974 C1980 1.428 . S
H1975 C1971 0.930 . S
H1976 C1973 0.929 . S
S1977 N1978 1.613 . S
S1977 N1979 1.610 . S
N1978 S1977 1.613 . S
N1978 C1981 1.350 . S
N1979 S1977 1.610 . S
N1979 C1980 1.351 . S
C1980 C1974 1.428 . S
C1980 N1979 1.351 . S
C1980 C1981 1.434 . S
C1981 C1972 1.429 . S
C1981 N1978 1.350 . S
C1981 C1980 1.434 . S
C1982 C1983 1.369 . S
C1982 C1984 1.419 . S
C1982 H1986 0.930 . S
C1983 C1982 1.369 . S
C1983 C1992 1.429 . S
C1984 C1982 1.419 . S
C1984 C1985 1.363 . S
C1984 H1987 0.929 . S
C1985 C1984 1.363 . S
C1985 C1991 1.428 . S
H1986 C1982 0.930 . S
H1987 C1984 0.929 . S
S1988 N1989 1.613 . S
S1988 N1990 1.610 . S
N1989 S1988 1.613 . S
N1989 C1992 1.350 . S
N1990 S1988 1.610 . S
N1990 C1991 1.351 . S
C1991 C1985 1.428 . S
C1991 N1990 1.351 . S
C1991 C1992 1.434 . S
C1992 C1983 1.429 . S
C1992 N1989 1.350 . S
C1992 C1991 1.434 . S
C1993 C1994 1.369 . S
C1993 C1995 1.419 . S
C1993 H1997 0.930 . S
C1994 C1993 1.369 . S
C1994 C2003 1.429 . S
C1995 C1993 1.419 . S
C1995 C1996 1.363 . S
C1995 H1998 0.929 . S
C1996 C1995 1.363 . S
C1996 C2002 1.428 . S
H1997 C1993 0.930 . S
H1998 C1995 0.929 . S
S1999 N2000 1.613 . S
S1999 N2001 1.610 . S
N2000 S1999 1.613 . S
N2000 C2003 1.350 . S
N2001 S1999 1.610 . S
N2001 C2002 1.351 . S
C2002 C1996 1.428 . S
C2002 N2001 1.351 . S
C2002 C2003 1.434 . S
C2003 C1994 1.429 . S
C2003 N2000 1.350 . S
C2003 C2002 1.434 . S
C2004 C2005 1.369 . S
C2004 C2006 1.419 . S
C2004 H2008 0.930 . S
C2005 C2004 1.369 . S
C2005 C2014 1.429 . S
C2006 C2004 1.419 . S
C2006 C2007 1.363 . S
C2006 H2009 0.929 . S
C2007 C2006 1.363 . S
C2007 C2013 1.428 . S
H2008 C2004 0.930 . S
H2009 C2006 0.929 . S
S2010 N2011 1.613 . S
S2010 N2012 1.610 . S
N2011 S2010 1.613 . S
N2011 C2014 1.350 . S
N2012 S2010 1.610 . S
N2012 C2013 1.351 . S
C2013 C2007 1.428 . S
C2013 N2012 1.351 . S
C2013 C2014 1.434 . S
C2014 C2005 1.429 . S
C2014 N2011 1.350 . S
C2014 C2013 1.434 . S
C2015 C2016 1.369 . S
C2015 C2017 1.419 . S
C2015 H2019 0.930 . S
C2016 C2015 1.369 . S
C2016 C2025 1.429 . S
C2017 C2015 1.419 . S
C2017 C2018 1.363 . S
C2017 H2020 0.929 . S
C2018 C2017 1.363 . S
C2018 C2024 1.428 . S
H2019 C2015 0.930 . S
H2020 C2017 0.929 . S
S2021 N2022 1.613 . S
S2021 N2023 1.610 . S
N2022 S2021 1.613 . S
N2022 C2025 1.350 . S
N2023 S2021 1.610 . S
N2023 C2024 1.351 . S
C2024 C2018 1.428 . S
C2024 N2023 1.351 . S
C2024 C2025 1.434 . S
C2025 C2016 1.429 . S
C2025 N2022 1.350 . S
C2025 C2024 1.434 . S
C2026 C2027 1.369 . S
C2026 C2028 1.419 . S
C2026 H2030 0.930 . S
C2027 C2026 1.369 . S
C2027 C2036 1.429 . S
C2028 C2026 1.419 . S
C2028 C2029 1.363 . S
C2028 H2031 0.929 . S
C2029 C2028 1.363 . S
C2029 C2035 1.428 . S
H2030 C2026 0.930 . S
H2031 C2028 0.929 . S
S2032 N2033 1.613 . S
S2032 N2034 1.610 . S
N2033 S2032 1.613 . S
N2033 C2036 1.350 . S
N2034 S2032 1.610 . S
N2034 C2035 1.351 . S
C2035 C2029 1.428 . S
C2035 N2034 1.351 . S
C2035 C2036 1.434 . S
C2036 C2027 1.429 . S
C2036 N2033 1.350 . S
C2036 C2035 1.434 . S
C2037 C2038 1.369 . S
C2037 C2039 1.419 . S
C2037 H2041 0.930 . S
C2038 C2037 1.369 . S
C2038 C2047 1.429 . S
C2039 C2037 1.419 . S
C2039 C2040 1.363 . S
C2039 H2042 0.929 . S
C2040 C2039 1.363 . S
C2040 C2046 1.428 . S
H2041 C2037 0.930 . S
H2042 C2039 0.929 . S
S2043 N2044 1.613 . S
S2043 N2045 1.610 . S
N2044 S2043 1.613 . S
N2044 C2047 1.350 . S
N2045 S2043 1.610 . S
N2045 C2046 1.351 . S
C2046 C2040 1.428 . S
C2046 N2045 1.351 . S
C2046 C2047 1.434 . S
C2047 C2038 1.429 . S
C2047 N2044 1.350 . S
C2047 C2046 1.434 . S
C2048 C2049 1.369 . S
C2048 C2050 1.419 . S
C2048 H2052 0.930 . S
C2049 C2048 1.369 . S
C2049 C2058 1.429 . S
C2050 C2048 1.419 . S
C2050 C2051 1.363 . S
C2050 H2053 0.929 . S
C2051 C2050 1.363 . S
C2051 C2057 1.428 . S
H2052 C2048 0.930 . S
H2053 C2050 0.929 . S
S2054 N2055 1.613 . S
S2054 N2056 1.610 . S
N2055 S2054 1.613 . S
N2055 C2058 1.350 . S
N2056 S2054 1.610 . S
N2056 C2057 1.351 . S
C2057 C2051 1.428 . S
C2057 N2056 1.351 . S
C2057 C2058 1.434 . S
C2058 C2049 1.429 . S
C2058 N2055 1.350 . S
C2058 C2057 1.434 . S
C2059 C2060 1.369 . S
C2059 C2061 1.419 . S
C2059 H2063 0.930 . S
C2060 C2059 1.369 . S
C2060 C2069 1.429 . S
C2061 C2059 1.419 . S
C2061 C2062 1.363 . S
C2061 H2064 0.929 . S
C2062 C2061 1.363 . S
C2062 C2068 1.428 . S
H2063 C2059 0.930 . S
H2064 C2061 0.929 . S
S2065 N2066 1.613 . S
S2065 N2067 1.610 . S
N2066 S2065 1.613 . S
N2066 C2069 1.350 . S
N2067 S2065 1.610 . S
N2067 C2068 1.351 . S
C2068 C2062 1.428 . S
C2068 N2067 1.351 . S
C2068 C2069 1.434 . S
C2069 C2060 1.429 . S
C2069 N2066 1.350 . S
C2069 C2068 1.434 . S
C2070 C2071 1.369 . S
C2070 C2072 1.419 . S
C2070 H2074 0.930 . S
C2071 C2070 1.369 . S
C2071 C2080 1.429 . S
C2072 C2070 1.419 . S
C2072 C2073 1.363 . S
C2072 H2075 0.929 . S
C2073 C2072 1.363 . S
C2073 C2079 1.428 . S
H2074 C2070 0.930 . S
H2075 C2072 0.929 . S
S2076 N2077 1.613 . S
S2076 N2078 1.610 . S
N2077 S2076 1.613 . S
N2077 C2080 1.350 . S
N2078 S2076 1.610 . S
N2078 C2079 1.351 . S
C2079 C2073 1.428 . S
C2079 N2078 1.351 . S
C2079 C2080 1.434 . S
C2080 C2071 1.429 . S
C2080 N2077 1.350 . S
C2080 C2079 1.434 . S
C2081 C2082 1.369 . S
C2081 C2083 1.419 . S
C2081 H2085 0.930 . S
C2082 C2081 1.369 . S
C2082 C2091 1.429 . S
C2083 C2081 1.419 . S
C2083 C2084 1.363 . S
C2083 H2086 0.929 . S
C2084 C2083 1.363 . S
C2084 C2090 1.428 . S
H2085 C2081 0.930 . S
H2086 C2083 0.929 . S
S2087 N2088 1.613 . S
S2087 N2089 1.610 . S
N2088 S2087 1.613 . S
N2088 C2091 1.350 . S
N2089 S2087 1.610 . S
N2089 C2090 1.351 . S
C2090 C2084 1.428 . S
C2090 N2089 1.351 . S
C2090 C2091 1.434 . S
C2091 C2082 1.429 . S
C2091 N2088 1.350 . S
C2091 C2090 1.434 . S
C2092 C2093 1.369 . S
C2092 C2094 1.419 . S
C2092 H2096 0.930 . S
C2093 C2092 1.369 . S
C2093 C2102 1.429 . S
C2094 C2092 1.419 . S
C2094 C2095 1.363 . S
C2094 H2097 0.929 . S
C2095 C2094 1.363 . S
C2095 C2101 1.428 . S
H2096 C2092 0.930 . S
H2097 C2094 0.929 . S
S2098 N2099 1.613 . S
S2098 N2100 1.610 . S
N2099 S2098 1.613 . S
N2099 C2102 1.350 . S
N2100 S2098 1.610 . S
N2100 C2101 1.351 . S
C2101 C2095 1.428 . S
C2101 N2100 1.351 . S
C2101 C2102 1.434 . S
C2102 C2093 1.429 . S
C2102 N2099 1.350 . S
C2102 C2101 1.434 . S
C2103 C2104 1.369 . S
C2103 C2105 1.419 . S
C2103 H2107 0.930 . S
C2104 C2103 1.369 . S
C2104 C2113 1.429 . S
C2105 C2103 1.419 . S
C2105 C2106 1.363 . S
C2105 H2108 0.929 . S
C2106 C2105 1.363 . S
C2106 C2112 1.428 . S
H2107 C2103 0.930 . S
H2108 C2105 0.929 . S
S2109 N2110 1.613 . S
S2109 N2111 1.610 . S
N2110 S2109 1.613 . S
N2110 C2113 1.350 . S
N2111 S2109 1.610 . S
N2111 C2112 1.351 . S
C2112 C2106 1.428 . S
C2112 N2111 1.351 . S
C2112 C2113 1.434 . S
C2113 C2104 1.429 . S
C2113 N2110 1.350 . S
C2113 C2112 1.434 . S
C2114 C2115 1.369 . S
C2114 C2116 1.419 . S
C2114 H2118 0.930 . S
C2115 C2114 1.369 . S
C2115 C2124 1.429 . S
C2116 C2114 1.419 . S
C2116 C2117 1.363 . S
C2116 H2119 0.929 . S
C2117 C2116 1.363 . S
C2117 C2123 1.428 . S
H2118 C2114 0.930 . S
H2119 C2116 0.929 . S
S2120 N2121 1.613 . S
S2120 N2122 1.610 . S
N2121 S2120 1.613 . S
N2121 C2124 1.350 . S
N2122 S2120 1.610 . S
N2122 C2123 1.351 . S
C2123 C2117 1.428 . S
C2123 N2122 1.351 . S
C2123 C2124 1.434 . S
C2124 C2115 1.429 . S
C2124 N2121 1.350 . S
C2124 C2123 1.434 . S
C2125 C2126 1.369 . S
C2125 C2127 1.419 . S
C2125 H2129 0.930 . S
C2126 C2125 1.369 . S
C2126 C2135 1.429 . S
C2127 C2125 1.419 . S
C2127 C2128 1.363 . S
C2127 H2130 0.929 . S
C2128 C2127 1.363 . S
C2128 C2134 1.428 . S
H2129 C2125 0.930 . S
H2130 C2127 0.929 . S
S2131 N2132 1.613 . S
S2131 N2133 1.610 . S
N2132 S2131 1.613 . S
N2132 C2135 1.350 . S
N2133 S2131 1.610 . S
N2133 C2134 1.351 . S
C2134 C2128 1.428 . S
C2134 N2133 1.351 . S
C2134 C2135 1.434 . S
C2135 C2126 1.429 . S
C2135 N2132 1.350 . S
C2135 C2134 1.434 . S
C2136 C2137 1.369 . S
C2136 C2138 1.419 . S
C2136 H2140 0.930 . S
C2137 C2136 1.369 . S
C2137 C2146 1.429 . S
C2138 C2136 1.419 . S
C2138 C2139 1.363 . S
C2138 H2141 0.929 . S
C2139 C2138 1.363 . S
C2139 C2145 1.428 . S
H2140 C2136 0.930 . S
H2141 C2138 0.929 . S
S2142 N2143 1.613 . S
S2142 N2144 1.610 . S
N2143 S2142 1.613 . S
N2143 C2146 1.350 . S
N2144 S2142 1.610 . S
N2144 C2145 1.351 . S
C2145 C2139 1.428 . S
C2145 N2144 1.351 . S
C2145 C2146 1.434 . S
C2146 C2137 1.429 . S
C2146 N2143 1.350 . S
C2146 C2145 1.434 . S
C2147 C2148 1.369 . S
C2147 C2149 1.419 . S
C2147 H2151 0.930 . S
C2148 C2147 1.369 . S
C2148 C2157 1.429 . S
C2149 C2147 1.419 . S
C2149 C2150 1.363 . S
C2149 H2152 0.929 . S
C2150 C2149 1.363 . S
C2150 C2156 1.428 . S
H2151 C2147 0.930 . S
H2152 C2149 0.929 . S
S2153 N2154 1.613 . S
S2153 N2155 1.610 . S
N2154 S2153 1.613 . S
N2154 C2157 1.350 . S
N2155 S2153 1.610 . S
N2155 C2156 1.351 . S
C2156 C2150 1.428 . S
C2156 N2155 1.351 . S
C2156 C2157 1.434 . S
C2157 C2148 1.429 . S
C2157 N2154 1.350 . S
C2157 C2156 1.434 . S
C2158 C2159 1.369 . S
C2158 C2160 1.419 . S
C2158 H2162 0.930 . S
C2159 C2158 1.369 . S
C2159 C2168 1.429 . S
C2160 C2158 1.419 . S
C2160 C2161 1.363 . S
C2160 H2163 0.929 . S
C2161 C2160 1.363 . S
C2161 C2167 1.428 . S
H2162 C2158 0.930 . S
H2163 C2160 0.929 . S
S2164 N2165 1.613 . S
S2164 N2166 1.610 . S
N2165 S2164 1.613 . S
N2165 C2168 1.350 . S
N2166 S2164 1.610 . S
N2166 C2167 1.351 . S
C2167 C2161 1.428 . S
C2167 N2166 1.351 . S
C2167 C2168 1.434 . S
C2168 C2159 1.429 . S
C2168 N2165 1.350 . S
C2168 C2167 1.434 . S
C2169 C2170 1.369 . S
C2169 C2171 1.419 . S
C2169 H2173 0.930 . S
C2170 C2169 1.369 . S
C2170 C2179 1.429 . S
C2171 C2169 1.419 . S
C2171 C2172 1.363 . S
C2171 H2174 0.929 . S
C2172 C2171 1.363 . S
C2172 C2178 1.428 . S
H2173 C2169 0.930 . S
H2174 C2171 0.929 . S
S2175 N2176 1.613 . S
S2175 N2177 1.610 . S
N2176 S2175 1.613 . S
N2176 C2179 1.350 . S
N2177 S2175 1.610 . S
N2177 C2178 1.351 . S
C2178 C2172 1.428 . S
C2178 N2177 1.351 . S
C2178 C2179 1.434 . S
C2179 C2170 1.429 . S
C2179 N2176 1.350 . S
C2179 C2178 1.434 . S
C2180 C2181 1.369 . S
C2180 C2182 1.419 . S
C2180 H2184 0.930 . S
C2181 C2180 1.369 . S
C2181 C2190 1.429 . S
C2182 C2180 1.419 . S
C2182 C2183 1.363 . S
C2182 H2185 0.929 . S
C2183 C2182 1.363 . S
C2183 C2189 1.428 . S
H2184 C2180 0.930 . S
H2185 C2182 0.929 . S
S2186 N2187 1.613 . S
S2186 N2188 1.610 . S
N2187 S2186 1.613 . S
N2187 C2190 1.350 . S
N2188 S2186 1.610 . S
N2188 C2189 1.351 . S
C2189 C2183 1.428 . S
C2189 N2188 1.351 . S
C2189 C2190 1.434 . S
C2190 C2181 1.429 . S
C2190 N2187 1.350 . S
C2190 C2189 1.434 . S
C2191 C2192 1.369 . S
C2191 C2193 1.419 . S
C2191 H2195 0.930 . S
C2192 C2191 1.369 . S
C2192 C2201 1.429 . S
C2193 C2191 1.419 . S
C2193 C2194 1.363 . S
C2193 H2196 0.929 . S
C2194 C2193 1.363 . S
C2194 C2200 1.428 . S
H2195 C2191 0.930 . S
H2196 C2193 0.929 . S
S2197 N2198 1.613 . S
S2197 N2199 1.610 . S
N2198 S2197 1.613 . S
N2198 C2201 1.350 . S
N2199 S2197 1.610 . S
N2199 C2200 1.351 . S
C2200 C2194 1.428 . S
C2200 N2199 1.351 . S
C2200 C2201 1.434 . S
C2201 C2192 1.429 . S
C2201 N2198 1.350 . S
C2201 C2200 1.434 . S
C2202 C2203 1.369 . S
C2202 C2204 1.419 . S
C2202 H2206 0.930 . S
C2203 C2202 1.369 . S
C2203 C2212 1.429 . S
C2204 C2202 1.419 . S
C2204 C2205 1.363 . S
C2204 H2207 0.929 . S
C2205 C2204 1.363 . S
C2205 C2211 1.428 . S
H2206 C2202 0.930 . S
H2207 C2204 0.929 . S
S2208 N2209 1.613 . S
S2208 N2210 1.610 . S
N2209 S2208 1.613 . S
N2209 C2212 1.350 . S
N2210 S2208 1.610 . S
N2210 C2211 1.351 . S
C2211 C2205 1.428 . S
C2211 N2210 1.351 . S
C2211 C2212 1.434 . S
C2212 C2203 1.429 . S
C2212 N2209 1.350 . S
C2212 C2211 1.434 . S
C2213 C2214 1.369 . S
C2213 C2215 1.419 . S
C2213 H2217 0.930 . S
C2214 C2213 1.369 . S
C2214 C2223 1.429 . S
C2215 C2213 1.419 . S
C2215 C2216 1.363 . S
C2215 H2218 0.929 . S
C2216 C2215 1.363 . S
C2216 C2222 1.428 . S
H2217 C2213 0.930 . S
H2218 C2215 0.929 . S
S2219 N2220 1.613 . S
S2219 N2221 1.610 . S
N2220 S2219 1.613 . S
N2220 C2223 1.350 . S
N2221 S2219 1.610 . S
N2221 C2222 1.351 . S
C2222 C2216 1.428 . S
C2222 N2221 1.351 . S
C2222 C2223 1.434 . S
C2223 C2214 1.429 . S
C2223 N2220 1.350 . S
C2223 C2222 1.434 . S
C2224 C2225 1.369 . S
C2224 C2226 1.419 . S
C2224 H2228 0.930 . S
C2225 C2224 1.369 . S
C2225 C2234 1.429 . S
C2226 C2224 1.419 . S
C2226 C2227 1.363 . S
C2226 H2229 0.929 . S
C2227 C2226 1.363 . S
C2227 C2233 1.428 . S
H2228 C2224 0.930 . S
H2229 C2226 0.929 . S
S2230 N2231 1.613 . S
S2230 N2232 1.610 . S
N2231 S2230 1.613 . S
N2231 C2234 1.350 . S
N2232 S2230 1.610 . S
N2232 C2233 1.351 . S
C2233 C2227 1.428 . S
C2233 N2232 1.351 . S
C2233 C2234 1.434 . S
C2234 C2225 1.429 . S
C2234 N2231 1.350 . S
C2234 C2233 1.434 . S
C2235 C2236 1.369 . S
C2235 C2237 1.419 . S
C2235 H2239 0.930 . S
C2236 C2235 1.369 . S
C2236 C2245 1.429 . S
C2237 C2235 1.419 . S
C2237 C2238 1.363 . S
C2237 H2240 0.929 . S
C2238 C2237 1.363 . S
C2238 C2244 1.428 . S
H2239 C2235 0.930 . S
H2240 C2237 0.929 . S
S2241 N2242 1.613 . S
S2241 N2243 1.610 . S
N2242 S2241 1.613 . S
N2242 C2245 1.350 . S
N2243 S2241 1.610 . S
N2243 C2244 1.351 . S
C2244 C2238 1.428 . S
C2244 N2243 1.351 . S
C2244 C2245 1.434 . S
C2245 C2236 1.429 . S
C2245 N2242 1.350 . S
C2245 C2244 1.434 . S
C2246 C2247 1.369 . S
C2246 C2248 1.419 . S
C2246 H2250 0.930 . S
C2247 C2246 1.369 . S
C2247 C2256 1.429 . S
C2248 C2246 1.419 . S
C2248 C2249 1.363 . S
C2248 H2251 0.929 . S
C2249 C2248 1.363 . S
C2249 C2255 1.428 . S
H2250 C2246 0.930 . S
H2251 C2248 0.929 . S
S2252 N2253 1.613 . S
S2252 N2254 1.610 . S
N2253 S2252 1.613 . S
N2253 C2256 1.350 . S
N2254 S2252 1.610 . S
N2254 C2255 1.351 . S
C2255 C2249 1.428 . S
C2255 N2254 1.351 . S
C2255 C2256 1.434 . S
C2256 C2247 1.429 . S
C2256 N2253 1.350 . S
C2256 C2255 1.434 . S
C2257 C2258 1.369 . S
C2257 C2259 1.419 . S
C2257 H2261 0.930 . S
C2258 C2257 1.369 . S
C2258 C2267 1.429 . S
C2259 C2257 1.419 . S
C2259 C2260 1.363 . S
C2259 H2262 0.929 . S
C2260 C2259 1.363 . S
C2260 C2266 1.428 . S
H2261 C2257 0.930 . S
H2262 C2259 0.929 . S
S2263 N2264 1.613 . S
S2263 N2265 1.610 . S
N2264 S2263 1.613 . S
N2264 C2267 1.350 . S
N2265 S2263 1.610 . S
N2265 C2266 1.351 . S
C2266 C2260 1.428 . S
C2266 N2265 1.351 . S
C2266 C2267 1.434 . S
C2267 C2258 1.429 . S
C2267 N2264 1.350 . S
C2267 C2266 1.434 . S
C2268 C2269 1.369 . S
C2268 C2270 1.419 . S
C2268 H2272 0.930 . S
C2269 C2268 1.369 . S
C2269 C2278 1.429 . S
C2270 C2268 1.419 . S
C2270 C2271 1.363 . S
C2270 H2273 0.929 . S
C2271 C2270 1.363 . S
C2271 C2277 1.428 . S
H2272 C2268 0.930 . S
H2273 C2270 0.929 . S
S2274 N2275 1.613 . S
S2274 N2276 1.610 . S
N2275 S2274 1.613 . S
N2275 C2278 1.350 . S
N2276 S2274 1.610 . S
N2276 C2277 1.351 . S
C2277 C2271 1.428 . S
C2277 N2276 1.351 . S
C2277 C2278 1.434 . S
C2278 C2269 1.429 . S
C2278 N2275 1.350 . S
C2278 C2277 1.434 . S
C2279 C2280 1.369 . S
C2279 C2281 1.419 . S
C2279 H2283 0.930 . S
C2280 C2279 1.369 . S
C2280 C2289 1.429 . S
C2281 C2279 1.419 . S
C2281 C2282 1.363 . S
C2281 H2284 0.929 . S
C2282 C2281 1.363 . S
C2282 C2288 1.428 . S
H2283 C2279 0.930 . S
H2284 C2281 0.929 . S
S2285 N2286 1.613 . S
S2285 N2287 1.610 . S
N2286 S2285 1.613 . S
N2286 C2289 1.350 . S
N2287 S2285 1.610 . S
N2287 C2288 1.351 . S
C2288 C2282 1.428 . S
C2288 N2287 1.351 . S
C2288 C2289 1.434 . S
C2289 C2280 1.429 . S
C2289 N2286 1.350 . S
C2289 C2288 1.434 . S
C2290 C2291 1.369 . S
C2290 C2292 1.419 . S
C2290 H2294 0.930 . S
C2291 C2290 1.369 . S
C2291 C2300 1.429 . S
C2292 C2290 1.419 . S
C2292 C2293 1.363 . S
C2292 H2295 0.929 . S
C2293 C2292 1.363 . S
C2293 C2299 1.428 . S
H2294 C2290 0.930 . S
H2295 C2292 0.929 . S
S2296 N2297 1.613 . S
S2296 N2298 1.610 . S
N2297 S2296 1.613 . S
N2297 C2300 1.350 . S
N2298 S2296 1.610 . S
N2298 C2299 1.351 . S
C2299 C2293 1.428 . S
C2299 N2298 1.351 . S
C2299 C2300 1.434 . S
C2300 C2291 1.429 . S
C2300 N2297 1.350 . S
C2300 C2299 1.434 . S
C2301 C2302 1.369 . S
C2301 C2303 1.419 . S
C2301 H2305 0.930 . S
C2302 C2301 1.369 . S
C2302 C2311 1.429 . S
C2303 C2301 1.419 . S
C2303 C2304 1.363 . S
C2303 H2306 0.929 . S
C2304 C2303 1.363 . S
C2304 C2310 1.428 . S
H2305 C2301 0.930 . S
H2306 C2303 0.929 . S
S2307 N2308 1.613 . S
S2307 N2309 1.610 . S
N2308 S2307 1.613 . S
N2308 C2311 1.350 . S
N2309 S2307 1.610 . S
N2309 C2310 1.351 . S
C2310 C2304 1.428 . S
C2310 N2309 1.351 . S
C2310 C2311 1.434 . S
C2311 C2302 1.429 . S
C2311 N2308 1.350 . S
C2311 C2310 1.434 . S
C2312 C2313 1.369 . S
C2312 C2314 1.419 . S
C2312 H2316 0.930 . S
C2313 C2312 1.369 . S
C2313 C2322 1.429 . S
C2314 C2312 1.419 . S
C2314 C2315 1.363 . S
C2314 H2317 0.929 . S
C2315 C2314 1.363 . S
C2315 C2321 1.428 . S
H2316 C2312 0.930 . S
H2317 C2314 0.929 . S
S2318 N2319 1.613 . S
S2318 N2320 1.610 . S
N2319 S2318 1.613 . S
N2319 C2322 1.350 . S
N2320 S2318 1.610 . S
N2320 C2321 1.351 . S
C2321 C2315 1.428 . S
C2321 N2320 1.351 . S
C2321 C2322 1.434 . S
C2322 C2313 1.429 . S
C2322 N2319 1.350 . S
C2322 C2321 1.434 . S
C2323 C2324 1.369 . S
C2323 C2325 1.419 . S
C2323 H2327 0.930 . S
C2324 C2323 1.369 . S
C2324 C2333 1.429 . S
C2325 C2323 1.419 . S
C2325 C2326 1.363 . S
C2325 H2328 0.929 . S
C2326 C2325 1.363 . S
C2326 C2332 1.428 . S
H2327 C2323 0.930 . S
H2328 C2325 0.929 . S
S2329 N2330 1.613 . S
S2329 N2331 1.610 . S
N2330 S2329 1.613 . S
N2330 C2333 1.350 . S
N2331 S2329 1.610 . S
N2331 C2332 1.351 . S
C2332 C2326 1.428 . S
C2332 N2331 1.351 . S
C2332 C2333 1.434 . S
C2333 C2324 1.429 . S
C2333 N2330 1.350 . S
C2333 C2332 1.434 . S
C2334 C2335 1.369 . S
C2334 C2336 1.419 . S
C2334 H2338 0.930 . S
C2335 C2334 1.369 . S
C2335 C2344 1.429 . S
C2336 C2334 1.419 . S
C2336 C2337 1.363 . S
C2336 H2339 0.929 . S
C2337 C2336 1.363 . S
C2337 C2343 1.428 . S
H2338 C2334 0.930 . S
H2339 C2336 0.929 . S
S2340 N2341 1.613 . S
S2340 N2342 1.610 . S
N2341 S2340 1.613 . S
N2341 C2344 1.350 . S
N2342 S2340 1.610 . S
N2342 C2343 1.351 . S
C2343 C2337 1.428 . S
C2343 N2342 1.351 . S
C2343 C2344 1.434 . S
C2344 C2335 1.429 . S
C2344 N2341 1.350 . S
C2344 C2343 1.434 . S
C2345 C2346 1.369 . S
C2345 C2347 1.419 . S
C2345 H2349 0.930 . S
C2346 C2345 1.369 . S
C2346 C2355 1.429 . S
C2347 C2345 1.419 . S
C2347 C2348 1.363 . S
C2347 H2350 0.929 . S
C2348 C2347 1.363 . S
C2348 C2354 1.428 . S
H2349 C2345 0.930 . S
H2350 C2347 0.929 . S
S2351 N2352 1.613 . S
S2351 N2353 1.610 . S
N2352 S2351 1.613 . S
N2352 C2355 1.350 . S
N2353 S2351 1.610 . S
N2353 C2354 1.351 . S
C2354 C2348 1.428 . S
C2354 N2353 1.351 . S
C2354 C2355 1.434 . S
C2355 C2346 1.429 . S
C2355 N2352 1.350 . S
C2355 C2354 1.434 . S
C2356 C2357 1.369 . S
C2356 C2358 1.419 . S
C2356 H2360 0.930 . S
C2357 C2356 1.369 . S
C2357 C2366 1.429 . S
C2358 C2356 1.419 . S
C2358 C2359 1.363 . S
C2358 H2361 0.929 . S
C2359 C2358 1.363 . S
C2359 C2365 1.428 . S
H2360 C2356 0.930 . S
H2361 C2358 0.929 . S
S2362 N2363 1.613 . S
S2362 N2364 1.610 . S
N2363 S2362 1.613 . S
N2363 C2366 1.350 . S
N2364 S2362 1.610 . S
N2364 C2365 1.351 . S
C2365 C2359 1.428 . S
C2365 N2364 1.351 . S
C2365 C2366 1.434 . S
C2366 C2357 1.429 . S
C2366 N2363 1.350 . S
C2366 C2365 1.434 . S
C2367 C2368 1.369 . S
C2367 C2369 1.419 . S
C2367 H2371 0.930 . S
C2368 C2367 1.369 . S
C2368 C2377 1.429 . S
C2369 C2367 1.419 . S
C2369 C2370 1.363 . S
C2369 H2372 0.929 . S
C2370 C2369 1.363 . S
C2370 C2376 1.428 . S
H2371 C2367 0.930 . S
H2372 C2369 0.929 . S
S2373 N2374 1.613 . S
S2373 N2375 1.610 . S
N2374 S2373 1.613 . S
N2374 C2377 1.350 . S
N2375 S2373 1.610 . S
N2375 C2376 1.351 . S
C2376 C2370 1.428 . S
C2376 N2375 1.351 . S
C2376 C2377 1.434 . S
C2377 C2368 1.429 . S
C2377 N2374 1.350 . S
C2377 C2376 1.434 . S
C2378 C2379 1.369 . S
C2378 C2380 1.419 . S
C2378 H2382 0.930 . S
C2379 C2378 1.369 . S
C2379 C2388 1.429 . S
C2380 C2378 1.419 . S
C2380 C2381 1.363 . S
C2380 H2383 0.929 . S
C2381 C2380 1.363 . S
C2381 C2387 1.428 . S
H2382 C2378 0.930 . S
H2383 C2380 0.929 . S
S2384 N2385 1.613 . S
S2384 N2386 1.610 . S
N2385 S2384 1.613 . S
N2385 C2388 1.350 . S
N2386 S2384 1.610 . S
N2386 C2387 1.351 . S
C2387 C2381 1.428 . S
C2387 N2386 1.351 . S
C2387 C2388 1.434 . S
C2388 C2379 1.429 . S
C2388 N2385 1.350 . S
C2388 C2387 1.434 . S
C2389 C2390 1.369 . S
C2389 C2391 1.419 . S
C2389 H2393 0.930 . S
C2390 C2389 1.369 . S
C2390 C2399 1.429 . S
C2391 C2389 1.419 . S
C2391 C2392 1.363 . S
C2391 H2394 0.929 . S
C2392 C2391 1.363 . S
C2392 C2398 1.428 . S
H2393 C2389 0.930 . S
H2394 C2391 0.929 . S
S2395 N2396 1.613 . S
S2395 N2397 1.610 . S
N2396 S2395 1.613 . S
N2396 C2399 1.350 . S
N2397 S2395 1.610 . S
N2397 C2398 1.351 . S
C2398 C2392 1.428 . S
C2398 N2397 1.351 . S
C2398 C2399 1.434 . S
C2399 C2390 1.429 . S
C2399 N2396 1.350 . S
C2399 C2398 1.434 . S
C2400 C2401 1.369 . S
C2400 C2402 1.419 1_455 S
C2400 H2404 0.930 . S
C2401 C2400 1.369 . S
C2401 C2410 1.429 . S
C2402 C2400 1.419 1_655 S
C2402 C2403 1.363 . S
C2402 H2405 0.929 . S
C2403 C2402 1.363 . S
C2403 C2409 1.428 . S
H2404 C2400 0.930 . S
H2405 C2402 0.929 . S
S2406 N2407 1.617 1_655 S
S2406 N2408 1.606 . S
N2407 S2406 1.617 1_455 S
N2407 C2410 1.350 . S
N2408 S2406 1.606 . S
N2408 C2409 1.351 . S
C2409 C2403 1.428 . S
C2409 N2408 1.351 . S
C2409 C2410 1.434 1_655 S
C2410 C2401 1.429 . S
C2410 N2407 1.350 . S
C2410 C2409 1.434 1_455 S
C2411 C2412 1.369 . S
C2411 C2413 1.419 1_565 S
C2411 H2415 0.930 . S
C2412 C2411 1.369 . S
C2412 C2421 1.429 . S
C2413 C2411 1.419 1_545 S
C2413 C2414 1.363 . S
C2413 H2416 0.929 . S
C2414 C2413 1.363 . S
C2414 C2420 1.428 . S
H2415 C2411 0.930 . S
H2416 C2413 0.929 . S
S2417 N2418 1.617 1_545 S
S2417 N2419 1.606 . S
N2418 S2417 1.617 1_565 S
N2418 C2421 1.350 . S
N2419 S2417 1.606 . S
N2419 C2420 1.351 . S
C2420 C2414 1.428 . S
C2420 N2419 1.351 . S
C2420 C2421 1.434 1_545 S
C2421 C2412 1.429 . S
C2421 N2418 1.350 . S
C2421 C2420 1.434 1_565 S
C2422 C2423 1.369 . S
C2422 C2424 1.419 1_655 S
C2422 H2426 0.930 . S
C2423 C2422 1.369 . S
C2423 C2432 1.429 . S
C2424 C2422 1.419 1_455 S
C2424 C2425 1.363 . S
C2424 H2427 0.929 . S
C2425 C2424 1.363 . S
C2425 C2431 1.428 . S
H2426 C2422 0.930 . S
H2427 C2424 0.929 . S
S2428 N2429 1.617 1_455 S
S2428 N2430 1.606 . S
N2429 S2428 1.617 1_655 S
N2429 C2432 1.350 . S
N2430 S2428 1.606 . S
N2430 C2431 1.351 . S
C2431 C2425 1.428 . S
C2431 N2430 1.351 . S
C2431 C2432 1.434 1_455 S
C2432 C2423 1.429 . S
C2432 N2429 1.350 . S
C2432 C2431 1.434 1_655 S
C2433 C2434 1.369 . S
C2433 C2435 1.419 1_545 S
C2433 H2437 0.930 . S
C2434 C2433 1.369 . S
C2434 C2443 1.429 . S
C2435 C2433 1.419 1_565 S
C2435 C2436 1.363 . S
C2435 H2438 0.929 . S
C2436 C2435 1.363 . S
C2436 C2442 1.428 . S
H2437 C2433 0.930 . S
H2438 C2435 0.929 . S
S2439 N2440 1.617 1_565 S
S2439 N2441 1.606 . S
N2440 S2439 1.617 1_545 S
N2440 C2443 1.350 . S
N2441 S2439 1.606 . S
N2441 C2442 1.351 . S
C2442 C2436 1.428 . S
C2442 N2441 1.351 . S
C2442 C2443 1.434 1_565 S
C2443 C2434 1.429 . S
C2443 N2440 1.350 . S
C2443 C2442 1.434 1_545 S
C2444 C2445 1.369 . S
C2444 C2446 1.419 1_455 S
C2444 H2448 0.930 . S
C2445 C2444 1.369 . S
C2445 C2454 1.429 . S
C2446 C2444 1.419 1_655 S
C2446 C2447 1.363 . S
C2446 H2449 0.929 . S
C2447 C2446 1.363 . S
C2447 C2453 1.428 . S
H2448 C2444 0.930 . S
H2449 C2446 0.929 . S
S2450 N2451 1.617 1_655 S
S2450 N2452 1.606 . S
N2451 S2450 1.617 1_455 S
N2451 C2454 1.350 . S
N2452 S2450 1.606 . S
N2452 C2453 1.351 . S
C2453 C2447 1.428 . S
C2453 N2452 1.351 . S
C2453 C2454 1.434 1_655 S
C2454 C2445 1.429 . S
C2454 N2451 1.350 . S
C2454 C2453 1.434 1_455 S
C2455 C2456 1.369 . S
C2455 C2457 1.419 1_545 S
C2455 H2459 0.930 . S
C2456 C2455 1.369 . S
C2456 C2465 1.429 . S
C2457 C2455 1.419 1_565 S
C2457 C2458 1.363 . S
C2457 H2460 0.929 . S
C2458 C2457 1.363 . S
C2458 C2464 1.428 . S
H2459 C2455 0.930 . S
H2460 C2457 0.929 . S
S2461 N2462 1.617 1_565 S
S2461 N2463 1.606 . S
N2462 S2461 1.617 1_545 S
N2462 C2465 1.350 . S
N2463 S2461 1.606 . S
N2463 C2464 1.351 . S
C2464 C2458 1.428 . S
C2464 N2463 1.351 . S
C2464 C2465 1.434 1_565 S
C2465 C2456 1.429 . S
C2465 N2462 1.350 . S
C2465 C2464 1.434 1_545 S
C2466 C2467 1.369 . S
C2466 C2468 1.419 1_655 S
C2466 H2470 0.930 . S
C2467 C2466 1.369 . S
C2467 C2476 1.429 . S
C2468 C2466 1.419 1_455 S
C2468 C2469 1.363 . S
C2468 H2471 0.929 . S
C2469 C2468 1.363 . S
C2469 C2475 1.428 . S
H2470 C2466 0.930 . S
H2471 C2468 0.929 . S
S2472 N2473 1.617 1_455 S
S2472 N2474 1.606 . S
N2473 S2472 1.617 1_655 S
N2473 C2476 1.350 . S
N2474 S2472 1.606 . S
N2474 C2475 1.351 . S
C2475 C2469 1.428 . S
C2475 N2474 1.351 . S
C2475 C2476 1.434 1_455 S
C2476 C2467 1.429 . S
C2476 N2473 1.350 . S
C2476 C2475 1.434 1_655 S
C2477 C2478 1.369 . S
C2477 C2479 1.419 1_545 S
C2477 H2481 0.930 . S
C2478 C2477 1.369 . S
C2478 C2487 1.429 . S
C2479 C2477 1.419 1_565 S
C2479 C2480 1.363 . S
C2479 H2482 0.929 . S
C2480 C2479 1.363 . S
C2480 C2486 1.428 . S
H2481 C2477 0.930 . S
H2482 C2479 0.929 . S
S2483 N2484 1.617 1_565 S
S2483 N2485 1.606 . S
N2484 S2483 1.617 1_545 S
N2484 C2487 1.350 . S
N2485 S2483 1.606 . S
N2485 C2486 1.351 . S
C2486 C2480 1.428 . S
C2486 N2485 1.351 . S
C2486 C2487 1.434 1_565 S
C2487 C2478 1.429 . S
C2487 N2484 1.350 . S
C2487 C2486 1.434 1_545 S
C2488 C2489 1.369 . S
C2488 C2490 1.419 1_565 S
C2488 H2492 0.930 . S
C2489 C2488 1.369 . S
C2489 C2498 1.429 . S
C2490 C2488 1.419 1_545 S
C2490 C2491 1.363 . S
C2490 H2493 0.929 . S
C2491 C2490 1.363 . S
C2491 C2497 1.428 . S
H2492 C2488 0.930 . S
H2493 C2490 0.929 . S
S2494 N2495 1.617 1_545 S
S2494 N2496 1.606 . S
N2495 S2494 1.617 1_565 S
N2495 C2498 1.350 . S
N2496 S2494 1.606 . S
N2496 C2497 1.351 . S
C2497 C2491 1.428 . S
C2497 N2496 1.351 . S
C2497 C2498 1.434 1_545 S
C2498 C2489 1.429 . S
C2498 N2495 1.350 . S
C2498 C2497 1.434 1_565 S
C2499 C2500 1.369 . S
C2499 C2501 1.419 1_655 S
C2499 H2503 0.930 . S
C2500 C2499 1.369 . S
C2500 C2509 1.429 . S
C2501 C2499 1.419 1_455 S
C2501 C2502 1.363 . S
C2501 H2504 0.929 . S
C2502 C2501 1.363 . S
C2502 C2508 1.428 . S
H2503 C2499 0.930 . S
H2504 C2501 0.929 . S
S2505 N2506 1.617 1_455 S
S2505 N2507 1.606 . S
N2506 S2505 1.617 1_655 S
N2506 C2509 1.350 . S
N2507 S2505 1.606 . S
N2507 C2508 1.351 . S
C2508 C2502 1.428 . S
C2508 N2507 1.351 . S
C2508 C2509 1.434 1_455 S
C2509 C2500 1.429 . S
C2509 N2506 1.350 . S
C2509 C2508 1.434 1_655 S
C2510 C2511 1.369 . S
C2510 C2512 1.419 1_565 S
C2510 H2514 0.930 . S
C2511 C2510 1.369 . S
C2511 C2520 1.429 . S
C2512 C2510 1.419 1_545 S
C2512 C2513 1.363 . S
C2512 H2515 0.929 . S
C2513 C2512 1.363 . S
C2513 C2519 1.428 . S
H2514 C2510 0.930 . S
H2515 C2512 0.929 . S
S2516 N2517 1.617 1_545 S
S2516 N2518 1.606 . S
N2517 S2516 1.617 1_565 S
N2517 C2520 1.350 . S
N2518 S2516 1.606 . S
N2518 C2519 1.351 . S
C2519 C2513 1.428 . S
C2519 N2518 1.351 . S
C2519 C2520 1.434 1_545 S
C2520 C2511 1.429 . S
C2520 N2517 1.350 . S
C2520 C2519 1.434 1_565 S
C2521 C2522 1.369 . S
C2521 C2523 1.419 1_455 S
C2521 H2525 0.930 . S
C2522 C2521 1.369 . S
C2522 C2531 1.429 . S
C2523 C2521 1.419 1_655 S
C2523 C2524 1.363 . S
C2523 H2526 0.929 . S
C2524 C2523 1.363 . S
C2524 C2530 1.428 . S
H2525 C2521 0.930 . S
H2526 C2523 0.929 . S
S2527 N2528 1.617 1_655 S
S2527 N2529 1.606 . S
N2528 S2527 1.617 1_455 S
N2528 C2531 1.350 . S
N2529 S2527 1.606 . S
N2529 C2530 1.351 . S
C2530 C2524 1.428 . S
C2530 N2529 1.351 . S
C2530 C2531 1.434 1_655 S
C2531 C2522 1.429 . S
C2531 N2528 1.350 . S
C2531 C2530 1.434 1_455 S
C2532 C2533 1.369 . S
C2532 C2534 1.419 1_565 S
C2532 H2536 0.930 . S
C2533 C2532 1.369 . S
C2533 C2542 1.429 . S
C2534 C2532 1.419 1_545 S
C2534 C2535 1.363 . S
C2534 H2537 0.929 . S
C2535 C2534 1.363 . S
C2535 C2541 1.428 . S
H2536 C2532 0.930 . S
H2537 C2534 0.929 . S
S2538 N2539 1.617 1_545 S
S2538 N2540 1.606 . S
N2539 S2538 1.617 1_565 S
N2539 C2542 1.350 . S
N2540 S2538 1.606 . S
N2540 C2541 1.351 . S
C2541 C2535 1.428 . S
C2541 N2540 1.351 . S
C2541 C2542 1.434 1_545 S
C2542 C2533 1.429 . S
C2542 N2539 1.350 . S
C2542 C2541 1.434 1_565 S
C2543 C2544 1.369 . S
C2543 C2545 1.419 1_455 S
C2543 H2547 0.930 . S
C2544 C2543 1.369 . S
C2544 C2553 1.429 . S
C2545 C2543 1.419 1_655 S
C2545 C2546 1.363 . S
C2545 H2548 0.929 . S
C2546 C2545 1.363 . S
C2546 C2552 1.428 . S
H2547 C2543 0.930 . S
H2548 C2545 0.929 . S
S2549 N2550 1.617 1_655 S
S2549 N2551 1.606 . S
N2550 S2549 1.617 1_455 S
N2550 C2553 1.350 . S
N2551 S2549 1.606 . S
N2551 C2552 1.351 . S
C2552 C2546 1.428 . S
C2552 N2551 1.351 . S
C2552 C2553 1.434 1_655 S
C2553 C2544 1.429 . S
C2553 N2550 1.350 . S
C2553 C2552 1.434 1_455 S
C2554 C2555 1.369 . S
C2554 C2556 1.419 1_545 S
C2554 H2558 0.930 . S
C2555 C2554 1.369 . S
C2555 C2564 1.429 . S
C2556 C2554 1.419 1_565 S
C2556 C2557 1.363 . S
C2556 H2559 0.929 . S
C2557 C2556 1.363 . S
C2557 C2563 1.428 . S
H2558 C2554 0.930 . S
H2559 C2556 0.929 . S
S2560 N2561 1.617 1_565 S
S2560 N2562 1.606 . S
N2561 S2560 1.617 1_545 S
N2561 C2564 1.350 . S
N2562 S2560 1.606 . S
N2562 C2563 1.351 . S
C2563 C2557 1.428 . S
C2563 N2562 1.351 . S
C2563 C2564 1.434 1_565 S
C2564 C2555 1.429 . S
C2564 N2561 1.350 . S
C2564 C2563 1.434 1_545 S
C2565 C2566 1.369 . S
C2565 C2567 1.419 1_655 S
C2565 H2569 0.930 . S
C2566 C2565 1.369 . S
C2566 C2575 1.429 . S
C2567 C2565 1.419 1_455 S
C2567 C2568 1.363 . S
C2567 H2570 0.929 . S
C2568 C2567 1.363 . S
C2568 C2574 1.428 . S
H2569 C2565 0.930 . S
H2570 C2567 0.929 . S
S2571 N2572 1.617 1_455 S
S2571 N2573 1.606 . S
N2572 S2571 1.617 1_655 S
N2572 C2575 1.350 . S
N2573 S2571 1.606 . S
N2573 C2574 1.351 . S
C2574 C2568 1.428 . S
C2574 N2573 1.351 . S
C2574 C2575 1.434 1_455 S
C2575 C2566 1.429 . S
C2575 N2572 1.350 . S
C2575 C2574 1.434 1_655 S
C2576 C2577 1.369 . S
C2576 C2578 1.419 1_554 S
C2576 H2580 0.930 . S
C2577 C2576 1.369 . S
C2577 C2586 1.429 . S
C2578 C2576 1.419 1_556 S
C2578 C2579 1.363 . S
C2578 H2581 0.929 . S
C2579 C2578 1.363 . S
C2579 C2585 1.428 . S
H2580 C2576 0.930 . S
H2581 C2578 0.929 . S
S2582 N2583 1.617 1_556 S
S2582 N2584 1.606 . S
N2583 S2582 1.617 1_554 S
N2583 C2586 1.350 . S
N2584 S2582 1.606 . S
N2584 C2585 1.351 . S
C2585 C2579 1.428 . S
C2585 N2584 1.351 . S
C2585 C2586 1.434 1_556 S
C2586 C2577 1.429 . S
C2586 N2583 1.350 . S
C2586 C2585 1.434 1_554 S
C2587 C2588 1.369 . S
C2587 C2589 1.419 1_556 S
C2587 H2591 0.930 . S
C2588 C2587 1.369 . S
C2588 C2597 1.429 . S
C2589 C2587 1.419 1_554 S
C2589 C2590 1.363 . S
C2589 H2592 0.929 . S
C2590 C2589 1.363 . S
C2590 C2596 1.428 . S
H2591 C2587 0.930 . S
H2592 C2589 0.929 . S
S2593 N2594 1.617 1_554 S
S2593 N2595 1.606 . S
N2594 S2593 1.617 1_556 S
N2594 C2597 1.350 . S
N2595 S2593 1.606 . S
N2595 C2596 1.351 . S
C2596 C2590 1.428 . S
C2596 N2595 1.351 . S
C2596 C2597 1.434 1_554 S
C2597 C2588 1.429 . S
C2597 N2594 1.350 . S
C2597 C2596 1.434 1_556 S
C2598 C2599 1.369 . S
C2598 C2600 1.419 1_554 S
C2598 H2602 0.930 . S
C2599 C2598 1.369 . S
C2599 C2608 1.429 . S
C2600 C2598 1.419 1_556 S
C2600 C2601 1.363 . S
C2600 H2603 0.929 . S
C2601 C2600 1.363 . S
C2601 C2607 1.428 . S
H2602 C2598 0.930 . S
H2603 C2600 0.929 . S
S2604 N2605 1.617 1_556 S
S2604 N2606 1.606 . S
N2605 S2604 1.617 1_554 S
N2605 C2608 1.350 . S
N2606 S2604 1.606 . S
N2606 C2607 1.351 . S
C2607 C2601 1.428 . S
C2607 N2606 1.351 . S
C2607 C2608 1.434 1_556 S
C2608 C2599 1.429 . S
C2608 N2605 1.350 . S
C2608 C2607 1.434 1_554 S
C2609 C2610 1.369 . S
C2609 C2611 1.419 1_556 S
C2609 H2613 0.930 . S
C2610 C2609 1.369 . S
C2610 C2619 1.429 . S
C2611 C2609 1.419 1_554 S
C2611 C2612 1.363 . S
C2611 H2614 0.929 . S
C2612 C2611 1.363 . S
C2612 C2618 1.428 . S
H2613 C2609 0.930 . S
H2614 C2611 0.929 . S
S2615 N2616 1.617 1_554 S
S2615 N2617 1.606 . S
N2616 S2615 1.617 1_556 S
N2616 C2619 1.350 . S
N2617 S2615 1.606 . S
N2617 C2618 1.351 . S
C2618 C2612 1.428 . S
C2618 N2617 1.351 . S
C2618 C2619 1.434 1_554 S
C2619 C2610 1.429 . S
C2619 N2616 1.350 . S
C2619 C2618 1.434 1_556 S
C2620 C2621 1.369 . S
C2620 C2622 1.419 1_554 S
C2620 H2624 0.930 . S
C2621 C2620 1.369 . S
C2621 C2630 1.429 . S
C2622 C2620 1.419 1_556 S
C2622 C2623 1.363 . S
C2622 H2625 0.929 . S
C2623 C2622 1.363 . S
C2623 C2629 1.428 . S
H2624 C2620 0.930 . S
H2625 C2622 0.929 . S
S2626 N2627 1.617 1_556 S
S2626 N2628 1.606 . S
N2627 S2626 1.617 1_554 S
N2627 C2630 1.350 . S
N2628 S2626 1.606 . S
N2628 C2629 1.351 . S
C2629 C2623 1.428 . S
C2629 N2628 1.351 . S
C2629 C2630 1.434 1_556 S
C2630 C2621 1.429 . S
C2630 N2627 1.350 . S
C2630 C2629 1.434 1_554 S
C2631 C2632 1.369 . S
C2631 C2633 1.419 1_554 S
C2631 H2635 0.930 . S
C2632 C2631 1.369 . S
C2632 C2641 1.429 . S
C2633 C2631 1.419 1_556 S
C2633 C2634 1.363 . S
C2633 H2636 0.929 . S
C2634 C2633 1.363 . S
C2634 C2640 1.428 . S
H2635 C2631 0.930 . S
H2636 C2633 0.929 . S
S2637 N2638 1.617 1_556 S
S2637 N2639 1.606 . S
N2638 S2637 1.617 1_554 S
N2638 C2641 1.350 . S
N2639 S2637 1.606 . S
N2639 C2640 1.351 . S
C2640 C2634 1.428 . S
C2640 N2639 1.351 . S
C2640 C2641 1.434 1_556 S
C2641 C2632 1.429 . S
C2641 N2638 1.350 . S
C2641 C2640 1.434 1_554 S
C2642 C2643 1.369 . S
C2642 C2644 1.419 1_554 S
C2642 H2646 0.930 . S
C2643 C2642 1.369 . S
C2643 C2652 1.429 . S
C2644 C2642 1.419 1_556 S
C2644 C2645 1.363 . S
C2644 H2647 0.929 . S
C2645 C2644 1.363 . S
C2645 C2651 1.428 . S
H2646 C2642 0.930 . S
H2647 C2644 0.929 . S
S2648 N2649 1.617 1_556 S
S2648 N2650 1.606 . S
N2649 S2648 1.617 1_554 S
N2649 C2652 1.350 . S
N2650 S2648 1.606 . S
N2650 C2651 1.351 . S
C2651 C2645 1.428 . S
C2651 N2650 1.351 . S
C2651 C2652 1.434 1_556 S
C2652 C2643 1.429 . S
C2652 N2649 1.350 . S
C2652 C2651 1.434 1_554 S
C2653 C2654 1.369 . S
C2653 C2655 1.419 1_556 S
C2653 H2657 0.930 . S
C2654 C2653 1.369 . S
C2654 C2663 1.429 . S
C2655 C2653 1.419 1_554 S
C2655 C2656 1.363 . S
C2655 H2658 0.929 . S
C2656 C2655 1.363 . S
C2656 C2662 1.428 . S
H2657 C2653 0.930 . S
H2658 C2655 0.929 . S
S2659 N2660 1.617 1_554 S
S2659 N2661 1.606 . S
N2660 S2659 1.617 1_556 S
N2660 C2663 1.350 . S
N2661 S2659 1.606 . S
N2661 C2662 1.351 . S
C2662 C2656 1.428 . S
C2662 N2661 1.351 . S
C2662 C2663 1.434 1_554 S
C2663 C2654 1.429 . S
C2663 N2660 1.350 . S
C2663 C2662 1.434 1_556 S
C2664 C2665 1.369 . S
C2664 C2666 1.419 . S
C2664 H2668 0.930 . S
C2665 C2664 1.369 . S
C2665 C2674 1.429 . S
C2666 C2664 1.419 . S
C2666 C2667 1.363 . S
C2666 H2669 0.929 . S
C2667 C2666 1.363 . S
C2667 C2673 1.428 . S
H2668 C2664 0.930 . S
H2669 C2666 0.929 . S
S2670 N2671 1.613 . S
S2670 N2672 1.610 . S
N2671 S2670 1.613 . S
N2671 C2674 1.350 . S
N2672 S2670 1.610 . S
N2672 C2673 1.351 . S
C2673 C2667 1.428 . S
C2673 N2672 1.351 . S
C2673 C2674 1.434 . S
C2674 C2665 1.429 . S
C2674 N2671 1.350 . S
C2674 C2673 1.434 . S
C2675 C2676 1.369 . S
C2675 C2677 1.419 . S
C2675 H2679 0.930 . S
C2676 C2675 1.369 . S
C2676 C2685 1.429 . S
C2677 C2675 1.419 . S
C2677 C2678 1.363 . S
C2677 H2680 0.929 . S
C2678 C2677 1.363 . S
C2678 C2684 1.428 . S
H2679 C2675 0.930 . S
H2680 C2677 0.929 . S
S2681 N2682 1.613 . S
S2681 N2683 1.610 . S
N2682 S2681 1.613 . S
N2682 C2685 1.350 . S
N2683 S2681 1.610 . S
N2683 C2684 1.351 . S
C2684 C2678 1.428 . S
C2684 N2683 1.351 . S
C2684 C2685 1.434 . S
C2685 C2676 1.429 . S
C2685 N2682 1.350 . S
C2685 C2684 1.434 . S
C2686 C2687 1.369 . S
C2686 C2688 1.419 . S
C2686 H2690 0.930 . S
C2687 C2686 1.369 . S
C2687 C2696 1.429 . S
C2688 C2686 1.419 . S
C2688 C2689 1.363 . S
C2688 H2691 0.929 . S
C2689 C2688 1.363 . S
C2689 C2695 1.428 . S
H2690 C2686 0.930 . S
H2691 C2688 0.929 . S
S2692 N2693 1.613 . S
S2692 N2694 1.610 . S
N2693 S2692 1.613 . S
N2693 C2696 1.350 . S
N2694 S2692 1.610 . S
N2694 C2695 1.351 . S
C2695 C2689 1.428 . S
C2695 N2694 1.351 . S
C2695 C2696 1.434 . S
C2696 C2687 1.429 . S
C2696 N2693 1.350 . S
C2696 C2695 1.434 . S
C2697 C2698 1.369 . S
C2697 C2699 1.419 . S
C2697 H2701 0.930 . S
C2698 C2697 1.369 . S
C2698 C2707 1.429 . S
C2699 C2697 1.419 . S
C2699 C2700 1.363 . S
C2699 H2702 0.929 . S
C2700 C2699 1.363 . S
C2700 C2706 1.428 . S
H2701 C2697 0.930 . S
H2702 C2699 0.929 . S
S2703 N2704 1.613 . S
S2703 N2705 1.610 . S
N2704 S2703 1.613 . S
N2704 C2707 1.350 . S
N2705 S2703 1.610 . S
N2705 C2706 1.351 . S
C2706 C2700 1.428 . S
C2706 N2705 1.351 . S
C2706 C2707 1.434 . S
C2707 C2698 1.429 . S
C2707 N2704 1.350 . S
C2707 C2706 1.434 . S
C2708 C2709 1.369 . S
C2708 C2710 1.419 . S
C2708 H2712 0.930 . S
C2709 C2708 1.369 . S
C2709 C2718 1.429 . S
C2710 C2708 1.419 . S
C2710 C2711 1.363 . S
C2710 H2713 0.929 . S
C2711 C2710 1.363 . S
C2711 C2717 1.428 . S
H2712 C2708 0.930 . S
H2713 C2710 0.929 . S
S2714 N2715 1.613 . S
S2714 N2716 1.610 . S
N2715 S2714 1.613 . S
N2715 C2718 1.350 . S
N2716 S2714 1.610 . S
N2716 C2717 1.351 . S
C2717 C2711 1.428 . S
C2717 N2716 1.351 . S
C2717 C2718 1.434 . S
C2718 C2709 1.429 . S
C2718 N2715 1.350 . S
C2718 C2717 1.434 . S
C2719 C2720 1.369 . S
C2719 C2721 1.419 . S
C2719 H2723 0.930 . S
C2720 C2719 1.369 . S
C2720 C2729 1.429 . S
C2721 C2719 1.419 . S
C2721 C2722 1.363 . S
C2721 H2724 0.929 . S
C2722 C2721 1.363 . S
C2722 C2728 1.428 . S
H2723 C2719 0.930 . S
H2724 C2721 0.929 . S
S2725 N2726 1.613 . S
S2725 N2727 1.610 . S
N2726 S2725 1.613 . S
N2726 C2729 1.350 . S
N2727 S2725 1.610 . S
N2727 C2728 1.351 . S
C2728 C2722 1.428 . S
C2728 N2727 1.351 . S
C2728 C2729 1.434 . S
C2729 C2720 1.429 . S
C2729 N2726 1.350 . S
C2729 C2728 1.434 . S
C2730 C2731 1.369 . S
C2730 C2732 1.419 . S
C2730 H2734 0.930 . S
C2731 C2730 1.369 . S
C2731 C2740 1.429 . S
C2732 C2730 1.419 . S
C2732 C2733 1.363 . S
C2732 H2735 0.929 . S
C2733 C2732 1.363 . S
C2733 C2739 1.428 . S
H2734 C2730 0.930 . S
H2735 C2732 0.929 . S
S2736 N2737 1.613 . S
S2736 N2738 1.610 . S
N2737 S2736 1.613 . S
N2737 C2740 1.350 . S
N2738 S2736 1.610 . S
N2738 C2739 1.351 . S
C2739 C2733 1.428 . S
C2739 N2738 1.351 . S
C2739 C2740 1.434 . S
C2740 C2731 1.429 . S
C2740 N2737 1.350 . S
C2740 C2739 1.434 . S
C2741 C2742 1.369 . S
C2741 C2743 1.419 . S
C2741 H2745 0.930 . S
C2742 C2741 1.369 . S
C2742 C2751 1.429 . S
C2743 C2741 1.419 . S
C2743 C2744 1.363 . S
C2743 H2746 0.929 . S
C2744 C2743 1.363 . S
C2744 C2750 1.428 . S
H2745 C2741 0.930 . S
H2746 C2743 0.929 . S
S2747 N2748 1.613 . S
S2747 N2749 1.610 . S
N2748 S2747 1.613 . S
N2748 C2751 1.350 . S
N2749 S2747 1.610 . S
N2749 C2750 1.351 . S
C2750 C2744 1.428 . S
C2750 N2749 1.351 . S
C2750 C2751 1.434 . S
C2751 C2742 1.429 . S
C2751 N2748 1.350 . S
C2751 C2750 1.434 . S
C2752 C2753 1.369 . S
C2752 C2754 1.419 . S
C2752 H2756 0.930 . S
C2753 C2752 1.369 . S
C2753 C2762 1.429 . S
C2754 C2752 1.419 . S
C2754 C2755 1.363 . S
C2754 H2757 0.929 . S
C2755 C2754 1.363 . S
C2755 C2761 1.428 . S
H2756 C2752 0.930 . S
H2757 C2754 0.929 . S
S2758 N2759 1.613 . S
S2758 N2760 1.610 . S
N2759 S2758 1.613 . S
N2759 C2762 1.350 . S
N2760 S2758 1.610 . S
N2760 C2761 1.351 . S
C2761 C2755 1.428 . S
C2761 N2760 1.351 . S
C2761 C2762 1.434 . S
C2762 C2753 1.429 . S
C2762 N2759 1.350 . S
C2762 C2761 1.434 . S
C2763 C2764 1.369 . S
C2763 C2765 1.419 . S
C2763 H2767 0.930 . S
C2764 C2763 1.369 . S
C2764 C2773 1.429 . S
C2765 C2763 1.419 . S
C2765 C2766 1.363 . S
C2765 H2768 0.929 . S
C2766 C2765 1.363 . S
C2766 C2772 1.428 . S
H2767 C2763 0.930 . S
H2768 C2765 0.929 . S
S2769 N2770 1.613 . S
S2769 N2771 1.610 . S
N2770 S2769 1.613 . S
N2770 C2773 1.350 . S
N2771 S2769 1.610 . S
N2771 C2772 1.351 . S
C2772 C2766 1.428 . S
C2772 N2771 1.351 . S
C2772 C2773 1.434 . S
C2773 C2764 1.429 . S
C2773 N2770 1.350 . S
C2773 C2772 1.434 . S
C2774 C2775 1.369 . S
C2774 C2776 1.419 . S
C2774 H2778 0.930 . S
C2775 C2774 1.369 . S
C2775 C2784 1.429 . S
C2776 C2774 1.419 . S
C2776 C2777 1.363 . S
C2776 H2779 0.929 . S
C2777 C2776 1.363 . S
C2777 C2783 1.428 . S
H2778 C2774 0.930 . S
H2779 C2776 0.929 . S
S2780 N2781 1.613 . S
S2780 N2782 1.610 . S
N2781 S2780 1.613 . S
N2781 C2784 1.350 . S
N2782 S2780 1.610 . S
N2782 C2783 1.351 . S
C2783 C2777 1.428 . S
C2783 N2782 1.351 . S
C2783 C2784 1.434 . S
C2784 C2775 1.429 . S
C2784 N2781 1.350 . S
C2784 C2783 1.434 . S
C2785 C2786 1.369 . S
C2785 C2787 1.419 . S
C2785 H2789 0.930 . S
C2786 C2785 1.369 . S
C2786 C2795 1.429 . S
C2787 C2785 1.419 . S
C2787 C2788 1.363 . S
C2787 H2790 0.929 . S
C2788 C2787 1.363 . S
C2788 C2794 1.428 . S
H2789 C2785 0.930 . S
H2790 C2787 0.929 . S
S2791 N2792 1.613 . S
S2791 N2793 1.610 . S
N2792 S2791 1.613 . S
N2792 C2795 1.350 . S
N2793 S2791 1.610 . S
N2793 C2794 1.351 . S
C2794 C2788 1.428 . S
C2794 N2793 1.351 . S
C2794 C2795 1.434 . S
C2795 C2786 1.429 . S
C2795 N2792 1.350 . S
C2795 C2794 1.434 . S
C2796 C2797 1.369 . S
C2796 C2798 1.419 . S
C2796 H2800 0.930 . S
C2797 C2796 1.369 . S
C2797 C2806 1.429 . S
C2798 C2796 1.419 . S
C2798 C2799 1.363 . S
C2798 H2801 0.929 . S
C2799 C2798 1.363 . S
C2799 C2805 1.428 . S
H2800 C2796 0.930 . S
H2801 C2798 0.929 . S
S2802 N2803 1.613 . S
S2802 N2804 1.610 . S
N2803 S2802 1.613 . S
N2803 C2806 1.350 . S
N2804 S2802 1.610 . S
N2804 C2805 1.351 . S
C2805 C2799 1.428 . S
C2805 N2804 1.351 . S
C2805 C2806 1.434 . S
C2806 C2797 1.429 . S
C2806 N2803 1.350 . S
C2806 C2805 1.434 . S
C2807 C2808 1.369 . S
C2807 C2809 1.419 . S
C2807 H2811 0.930 . S
C2808 C2807 1.369 . S
C2808 C2817 1.429 . S
C2809 C2807 1.419 . S
C2809 C2810 1.363 . S
C2809 H2812 0.929 . S
C2810 C2809 1.363 . S
C2810 C2816 1.428 . S
H2811 C2807 0.930 . S
H2812 C2809 0.929 . S
S2813 N2814 1.613 . S
S2813 N2815 1.610 . S
N2814 S2813 1.613 . S
N2814 C2817 1.350 . S
N2815 S2813 1.610 . S
N2815 C2816 1.351 . S
C2816 C2810 1.428 . S
C2816 N2815 1.351 . S
C2816 C2817 1.434 . S
C2817 C2808 1.429 . S
C2817 N2814 1.350 . S
C2817 C2816 1.434 . S
C2818 C2819 1.369 . S
C2818 C2820 1.419 . S
C2818 H2822 0.930 . S
C2819 C2818 1.369 . S
C2819 C2828 1.429 . S
C2820 C2818 1.419 . S
C2820 C2821 1.363 . S
C2820 H2823 0.929 . S
C2821 C2820 1.363 . S
C2821 C2827 1.428 . S
H2822 C2818 0.930 . S
H2823 C2820 0.929 . S
S2824 N2825 1.613 . S
S2824 N2826 1.610 . S
N2825 S2824 1.613 . S
N2825 C2828 1.350 . S
N2826 S2824 1.610 . S
N2826 C2827 1.351 . S
C2827 C2821 1.428 . S
C2827 N2826 1.351 . S
C2827 C2828 1.434 . S
C2828 C2819 1.429 . S
C2828 N2825 1.350 . S
C2828 C2827 1.434 . S
C2829 C2830 1.369 . S
C2829 C2831 1.419 . S
C2829 H2833 0.930 . S
C2830 C2829 1.369 . S
C2830 C2839 1.429 . S
C2831 C2829 1.419 . S
C2831 C2832 1.363 . S
C2831 H2834 0.929 . S
C2832 C2831 1.363 . S
C2832 C2838 1.428 . S
H2833 C2829 0.930 . S
H2834 C2831 0.929 . S
S2835 N2836 1.613 . S
S2835 N2837 1.610 . S
N2836 S2835 1.613 . S
N2836 C2839 1.350 . S
N2837 S2835 1.610 . S
N2837 C2838 1.351 . S
C2838 C2832 1.428 . S
C2838 N2837 1.351 . S
C2838 C2839 1.434 . S
C2839 C2830 1.429 . S
C2839 N2836 1.350 . S
C2839 C2838 1.434 . S
C2840 C2841 1.369 . S
C2840 C2842 1.419 . S
C2840 H2844 0.930 . S
C2841 C2840 1.369 . S
C2841 C2850 1.429 . S
C2842 C2840 1.419 . S
C2842 C2843 1.363 . S
C2842 H2845 0.929 . S
C2843 C2842 1.363 . S
C2843 C2849 1.428 . S
H2844 C2840 0.930 . S
H2845 C2842 0.929 . S
S2846 N2847 1.613 . S
S2846 N2848 1.610 . S
N2847 S2846 1.613 . S
N2847 C2850 1.350 . S
N2848 S2846 1.610 . S
N2848 C2849 1.351 . S
C2849 C2843 1.428 . S
C2849 N2848 1.351 . S
C2849 C2850 1.434 . S
C2850 C2841 1.429 . S
C2850 N2847 1.350 . S
C2850 C2849 1.434 . S
C2851 C2852 1.369 . S
C2851 C2853 1.419 . S
C2851 H2855 0.930 . S
C2852 C2851 1.369 . S
C2852 C2861 1.429 . S
C2853 C2851 1.419 . S
C2853 C2854 1.363 . S
C2853 H2856 0.929 . S
C2854 C2853 1.363 . S
C2854 C2860 1.428 . S
H2855 C2851 0.930 . S
H2856 C2853 0.929 . S
S2857 N2858 1.613 . S
S2857 N2859 1.610 . S
N2858 S2857 1.613 . S
N2858 C2861 1.350 . S
N2859 S2857 1.610 . S
N2859 C2860 1.351 . S
C2860 C2854 1.428 . S
C2860 N2859 1.351 . S
C2860 C2861 1.434 . S
C2861 C2852 1.429 . S
C2861 N2858 1.350 . S
C2861 C2860 1.434 . S
C2862 C2863 1.369 . S
C2862 C2864 1.419 . S
C2862 H2866 0.930 . S
C2863 C2862 1.369 . S
C2863 C2872 1.429 . S
C2864 C2862 1.419 . S
C2864 C2865 1.363 . S
C2864 H2867 0.929 . S
C2865 C2864 1.363 . S
C2865 C2871 1.428 . S
H2866 C2862 0.930 . S
H2867 C2864 0.929 . S
S2868 N2869 1.613 . S
S2868 N2870 1.610 . S
N2869 S2868 1.613 . S
N2869 C2872 1.350 . S
N2870 S2868 1.610 . S
N2870 C2871 1.351 . S
C2871 C2865 1.428 . S
C2871 N2870 1.351 . S
C2871 C2872 1.434 . S
C2872 C2863 1.429 . S
C2872 N2869 1.350 . S
C2872 C2871 1.434 . S
C2873 C2874 1.369 . S
C2873 C2875 1.419 . S
C2873 H2877 0.930 . S
C2874 C2873 1.369 . S
C2874 C2883 1.429 . S
C2875 C2873 1.419 . S
C2875 C2876 1.363 . S
C2875 H2878 0.929 . S
C2876 C2875 1.363 . S
C2876 C2882 1.428 . S
H2877 C2873 0.930 . S
H2878 C2875 0.929 . S
S2879 N2880 1.613 . S
S2879 N2881 1.610 . S
N2880 S2879 1.613 . S
N2880 C2883 1.350 . S
N2881 S2879 1.610 . S
N2881 C2882 1.351 . S
C2882 C2876 1.428 . S
C2882 N2881 1.351 . S
C2882 C2883 1.434 . S
C2883 C2874 1.429 . S
C2883 N2880 1.350 . S
C2883 C2882 1.434 . S
C2884 C2885 1.369 . S
C2884 C2886 1.419 . S
C2884 H2888 0.930 . S
C2885 C2884 1.369 . S
C2885 C2894 1.429 . S
C2886 C2884 1.419 . S
C2886 C2887 1.363 . S
C2886 H2889 0.929 . S
C2887 C2886 1.363 . S
C2887 C2893 1.428 . S
H2888 C2884 0.930 . S
H2889 C2886 0.929 . S
S2890 N2891 1.613 . S
S2890 N2892 1.610 . S
N2891 S2890 1.613 . S
N2891 C2894 1.350 . S
N2892 S2890 1.610 . S
N2892 C2893 1.351 . S
C2893 C2887 1.428 . S
C2893 N2892 1.351 . S
C2893 C2894 1.434 . S
C2894 C2885 1.429 . S
C2894 N2891 1.350 . S
C2894 C2893 1.434 . S
C2895 C2896 1.369 . S
C2895 C2897 1.419 . S
C2895 H2899 0.930 . S
C2896 C2895 1.369 . S
C2896 C2905 1.429 . S
C2897 C2895 1.419 . S
C2897 C2898 1.363 . S
C2897 H2900 0.929 . S
C2898 C2897 1.363 . S
C2898 C2904 1.428 . S
H2899 C2895 0.930 . S
H2900 C2897 0.929 . S
S2901 N2902 1.613 . S
S2901 N2903 1.610 . S
N2902 S2901 1.613 . S
N2902 C2905 1.350 . S
N2903 S2901 1.610 . S
N2903 C2904 1.351 . S
C2904 C2898 1.428 . S
C2904 N2903 1.351 . S
C2904 C2905 1.434 . S
C2905 C2896 1.429 . S
C2905 N2902 1.350 . S
C2905 C2904 1.434 . S
C2906 C2907 1.369 . S
C2906 C2908 1.419 . S
C2906 H2910 0.930 . S
C2907 C2906 1.369 . S
C2907 C2916 1.429 . S
C2908 C2906 1.419 . S
C2908 C2909 1.363 . S
C2908 H2911 0.929 . S
C2909 C2908 1.363 . S
C2909 C2915 1.428 . S
H2910 C2906 0.930 . S
H2911 C2908 0.929 . S
S2912 N2913 1.613 . S
S2912 N2914 1.610 . S
N2913 S2912 1.613 . S
N2913 C2916 1.350 . S
N2914 S2912 1.610 . S
N2914 C2915 1.351 . S
C2915 C2909 1.428 . S
C2915 N2914 1.351 . S
C2915 C2916 1.434 . S
C2916 C2907 1.429 . S
C2916 N2913 1.350 . S
C2916 C2915 1.434 . S
C2917 C2918 1.369 . S
C2917 C2919 1.419 . S
C2917 H2921 0.930 . S
C2918 C2917 1.369 . S
C2918 C2927 1.429 . S
C2919 C2917 1.419 . S
C2919 C2920 1.363 . S
C2919 H2922 0.929 . S
C2920 C2919 1.363 . S
C2920 C2926 1.428 . S
H2921 C2917 0.930 . S
H2922 C2919 0.929 . S
S2923 N2924 1.613 . S
S2923 N2925 1.610 . S
N2924 S2923 1.613 . S
N2924 C2927 1.350 . S
N2925 S2923 1.610 . S
N2925 C2926 1.351 . S
C2926 C2920 1.428 . S
C2926 N2925 1.351 . S
C2926 C2927 1.434 . S
C2927 C2918 1.429 . S
C2927 N2924 1.350 . S
C2927 C2926 1.434 . S
C2928 C2929 1.369 . S
C2928 C2930 1.419 . S
C2928 H2932 0.930 . S
C2929 C2928 1.369 . S
C2929 C2938 1.429 . S
C2930 C2928 1.419 . S
C2930 C2931 1.363 . S
C2930 H2933 0.929 . S
C2931 C2930 1.363 . S
C2931 C2937 1.428 . S
H2932 C2928 0.930 . S
H2933 C2930 0.929 . S
S2934 N2935 1.613 . S
S2934 N2936 1.610 . S
N2935 S2934 1.613 . S
N2935 C2938 1.350 . S
N2936 S2934 1.610 . S
N2936 C2937 1.351 . S
C2937 C2931 1.428 . S
C2937 N2936 1.351 . S
C2937 C2938 1.434 . S
C2938 C2929 1.429 . S
C2938 N2935 1.350 . S
C2938 C2937 1.434 . S
C2939 C2940 1.369 . S
C2939 C2941 1.419 . S
C2939 H2943 0.930 . S
C2940 C2939 1.369 . S
C2940 C2949 1.429 . S
C2941 C2939 1.419 . S
C2941 C2942 1.363 . S
C2941 H2944 0.929 . S
C2942 C2941 1.363 . S
C2942 C2948 1.428 . S
H2943 C2939 0.930 . S
H2944 C2941 0.929 . S
S2945 N2946 1.613 . S
S2945 N2947 1.610 . S
N2946 S2945 1.613 . S
N2946 C2949 1.350 . S
N2947 S2945 1.610 . S
N2947 C2948 1.351 . S
C2948 C2942 1.428 . S
C2948 N2947 1.351 . S
C2948 C2949 1.434 . S
C2949 C2940 1.429 . S
C2949 N2946 1.350 . S
C2949 C2948 1.434 . S
C2950 C2951 1.369 . S
C2950 C2952 1.419 . S
C2950 H2954 0.930 . S
C2951 C2950 1.369 . S
C2951 C2960 1.429 . S
C2952 C2950 1.419 . S
C2952 C2953 1.363 . S
C2952 H2955 0.929 . S
C2953 C2952 1.363 . S
C2953 C2959 1.428 . S
H2954 C2950 0.930 . S
H2955 C2952 0.929 . S
S2956 N2957 1.613 . S
S2956 N2958 1.610 . S
N2957 S2956 1.613 . S
N2957 C2960 1.350 . S
N2958 S2956 1.610 . S
N2958 C2959 1.351 . S
C2959 C2953 1.428 . S
C2959 N2958 1.351 . S
C2959 C2960 1.434 . S
C2960 C2951 1.429 . S
C2960 N2957 1.350 . S
C2960 C2959 1.434 . S
C2961 C2962 1.369 . S
C2961 C2963 1.419 . S
C2961 H2965 0.930 . S
C2962 C2961 1.369 . S
C2962 C2971 1.429 . S
C2963 C2961 1.419 . S
C2963 C2964 1.363 . S
C2963 H2966 0.929 . S
C2964 C2963 1.363 . S
C2964 C2970 1.428 . S
H2965 C2961 0.930 . S
H2966 C2963 0.929 . S
S2967 N2968 1.613 . S
S2967 N2969 1.610 . S
N2968 S2967 1.613 . S
N2968 C2971 1.350 . S
N2969 S2967 1.610 . S
N2969 C2970 1.351 . S
C2970 C2964 1.428 . S
C2970 N2969 1.351 . S
C2970 C2971 1.434 . S
C2971 C2962 1.429 . S
C2971 N2968 1.350 . S
C2971 C2970 1.434 . S
C2972 C2973 1.369 . S
C2972 C2974 1.419 . S
C2972 H2976 0.930 . S
C2973 C2972 1.369 . S
C2973 C2982 1.429 . S
C2974 C2972 1.419 . S
C2974 C2975 1.363 . S
C2974 H2977 0.929 . S
C2975 C2974 1.363 . S
C2975 C2981 1.428 . S
H2976 C2972 0.930 . S
H2977 C2974 0.929 . S
S2978 N2979 1.613 . S
S2978 N2980 1.610 . S
N2979 S2978 1.613 . S
N2979 C2982 1.350 . S
N2980 S2978 1.610 . S
N2980 C2981 1.351 . S
C2981 C2975 1.428 . S
C2981 N2980 1.351 . S
C2981 C2982 1.434 . S
C2982 C2973 1.429 . S
C2982 N2979 1.350 . S
C2982 C2981 1.434 . S
C2983 C2984 1.369 . S
C2983 C2985 1.419 . S
C2983 H2987 0.930 . S
C2984 C2983 1.369 . S
C2984 C2993 1.429 . S
C2985 C2983 1.419 . S
C2985 C2986 1.363 . S
C2985 H2988 0.929 . S
C2986 C2985 1.363 . S
C2986 C2992 1.428 . S
H2987 C2983 0.930 . S
H2988 C2985 0.929 . S
S2989 N2990 1.613 . S
S2989 N2991 1.610 . S
N2990 S2989 1.613 . S
N2990 C2993 1.350 . S
N2991 S2989 1.610 . S
N2991 C2992 1.351 . S
C2992 C2986 1.428 . S
C2992 N2991 1.351 . S
C2992 C2993 1.434 . S
C2993 C2984 1.429 . S
C2993 N2990 1.350 . S
C2993 C2992 1.434 . S
C2994 C2995 1.369 . S
C2994 C2996 1.419 . S
C2994 H2998 0.930 . S
C2995 C2994 1.369 . S
C2995 C3004 1.429 . S
C2996 C2994 1.419 . S
C2996 C2997 1.363 . S
C2996 H2999 0.929 . S
C2997 C2996 1.363 . S
C2997 C3003 1.428 . S
H2998 C2994 0.930 . S
H2999 C2996 0.929 . S
S3000 N3001 1.613 . S
S3000 N3002 1.610 . S
N3001 S3000 1.613 . S
N3001 C3004 1.350 . S
N3002 S3000 1.610 . S
N3002 C3003 1.351 . S
C3003 C2997 1.428 . S
C3003 N3002 1.351 . S
C3003 C3004 1.434 . S
C3004 C2995 1.429 . S
C3004 N3001 1.350 . S
C3004 C3003 1.434 . S
C3005 C3006 1.369 . S
C3005 C3007 1.419 . S
C3005 H3009 0.930 . S
C3006 C3005 1.369 . S
C3006 C3015 1.429 . S
C3007 C3005 1.419 . S
C3007 C3008 1.363 . S
C3007 H3010 0.929 . S
C3008 C3007 1.363 . S
C3008 C3014 1.428 . S
H3009 C3005 0.930 . S
H3010 C3007 0.929 . S
S3011 N3012 1.613 . S
S3011 N3013 1.610 . S
N3012 S3011 1.613 . S
N3012 C3015 1.350 . S
N3013 S3011 1.610 . S
N3013 C3014 1.351 . S
C3014 C3008 1.428 . S
C3014 N3013 1.351 . S
C3014 C3015 1.434 . S
C3015 C3006 1.429 . S
C3015 N3012 1.350 . S
C3015 C3014 1.434 . S
C3016 C3017 1.369 . S
C3016 C3018 1.419 . S
C3016 H3020 0.930 . S
C3017 C3016 1.369 . S
C3017 C3026 1.429 . S
C3018 C3016 1.419 . S
C3018 C3019 1.363 . S
C3018 H3021 0.929 . S
C3019 C3018 1.363 . S
C3019 C3025 1.428 . S
H3020 C3016 0.930 . S
H3021 C3018 0.929 . S
S3022 N3023 1.613 . S
S3022 N3024 1.610 . S
N3023 S3022 1.613 . S
N3023 C3026 1.350 . S
N3024 S3022 1.610 . S
N3024 C3025 1.351 . S
C3025 C3019 1.428 . S
C3025 N3024 1.351 . S
C3025 C3026 1.434 . S
C3026 C3017 1.429 . S
C3026 N3023 1.350 . S
C3026 C3025 1.434 . S
C3027 C3028 1.369 . S
C3027 C3029 1.419 . S
C3027 H3031 0.930 . S
C3028 C3027 1.369 . S
C3028 C3037 1.429 . S
C3029 C3027 1.419 . S
C3029 C3030 1.363 . S
C3029 H3032 0.929 . S
C3030 C3029 1.363 . S
C3030 C3036 1.428 . S
H3031 C3027 0.930 . S
H3032 C3029 0.929 . S
S3033 N3034 1.613 . S
S3033 N3035 1.610 . S
N3034 S3033 1.613 . S
N3034 C3037 1.350 . S
N3035 S3033 1.610 . S
N3035 C3036 1.351 . S
C3036 C3030 1.428 . S
C3036 N3035 1.351 . S
C3036 C3037 1.434 . S
C3037 C3028 1.429 . S
C3037 N3034 1.350 . S
C3037 C3036 1.434 . S
C3038 C3039 1.369 . S
C3038 C3040 1.419 . S
C3038 H3042 0.930 . S
C3039 C3038 1.369 . S
C3039 C3048 1.429 . S
C3040 C3038 1.419 . S
C3040 C3041 1.363 . S
C3040 H3043 0.929 . S
C3041 C3040 1.363 . S
C3041 C3047 1.428 . S
H3042 C3038 0.930 . S
H3043 C3040 0.929 . S
S3044 N3045 1.613 . S
S3044 N3046 1.610 . S
N3045 S3044 1.613 . S
N3045 C3048 1.350 . S
N3046 S3044 1.610 . S
N3046 C3047 1.351 . S
C3047 C3041 1.428 . S
C3047 N3046 1.351 . S
C3047 C3048 1.434 . S
C3048 C3039 1.429 . S
C3048 N3045 1.350 . S
C3048 C3047 1.434 . S
C3049 C3050 1.369 . S
C3049 C3051 1.419 . S
C3049 H3053 0.930 . S
C3050 C3049 1.369 . S
C3050 C3059 1.429 . S
C3051 C3049 1.419 . S
C3051 C3052 1.363 . S
C3051 H3054 0.929 . S
C3052 C3051 1.363 . S
C3052 C3058 1.428 . S
H3053 C3049 0.930 . S
H3054 C3051 0.929 . S
S3055 N3056 1.613 . S
S3055 N3057 1.610 . S
N3056 S3055 1.613 . S
N3056 C3059 1.350 . S
N3057 S3055 1.610 . S
N3057 C3058 1.351 . S
C3058 C3052 1.428 . S
C3058 N3057 1.351 . S
C3058 C3059 1.434 . S
C3059 C3050 1.429 . S
C3059 N3056 1.350 . S
C3059 C3058 1.434 . S
C3060 C3061 1.369 . S
C3060 C3062 1.419 . S
C3060 H3064 0.930 . S
C3061 C3060 1.369 . S
C3061 C3070 1.429 . S
C3062 C3060 1.419 . S
C3062 C3063 1.363 . S
C3062 H3065 0.929 . S
C3063 C3062 1.363 . S
C3063 C3069 1.428 . S
H3064 C3060 0.930 . S
H3065 C3062 0.929 . S
S3066 N3067 1.613 . S
S3066 N3068 1.610 . S
N3067 S3066 1.613 . S
N3067 C3070 1.350 . S
N3068 S3066 1.610 . S
N3068 C3069 1.351 . S
C3069 C3063 1.428 . S
C3069 N3068 1.351 . S
C3069 C3070 1.434 . S
C3070 C3061 1.429 . S
C3070 N3067 1.350 . S
C3070 C3069 1.434 . S
C3071 C3072 1.369 . S
C3071 C3073 1.419 . S
C3071 H3075 0.930 . S
C3072 C3071 1.369 . S
C3072 C3081 1.429 . S
C3073 C3071 1.419 . S
C3073 C3074 1.363 . S
C3073 H3076 0.929 . S
C3074 C3073 1.363 . S
C3074 C3080 1.428 . S
H3075 C3071 0.930 . S
H3076 C3073 0.929 . S
S3077 N3078 1.613 . S
S3077 N3079 1.610 . S
N3078 S3077 1.613 . S
N3078 C3081 1.350 . S
N3079 S3077 1.610 . S
N3079 C3080 1.351 . S
C3080 C3074 1.428 . S
C3080 N3079 1.351 . S
C3080 C3081 1.434 . S
C3081 C3072 1.429 . S
C3081 N3078 1.350 . S
C3081 C3080 1.434 . S
C3082 C3083 1.369 . S
C3082 C3084 1.419 . S
C3082 H3086 0.930 . S
C3083 C3082 1.369 . S
C3083 C3092 1.429 . S
C3084 C3082 1.419 . S
C3084 C3085 1.363 . S
C3084 H3087 0.929 . S
C3085 C3084 1.363 . S
C3085 C3091 1.428 . S
H3086 C3082 0.930 . S
H3087 C3084 0.929 . S
S3088 N3089 1.613 . S
S3088 N3090 1.610 . S
N3089 S3088 1.613 . S
N3089 C3092 1.350 . S
N3090 S3088 1.610 . S
N3090 C3091 1.351 . S
C3091 C3085 1.428 . S
C3091 N3090 1.351 . S
C3091 C3092 1.434 . S
C3092 C3083 1.429 . S
C3092 N3089 1.350 . S
C3092 C3091 1.434 . S
C3093 C3094 1.369 . S
C3093 C3095 1.419 . S
C3093 H3097 0.930 . S
C3094 C3093 1.369 . S
C3094 C3103 1.429 . S
C3095 C3093 1.419 . S
C3095 C3096 1.363 . S
C3095 H3098 0.929 . S
C3096 C3095 1.363 . S
C3096 C3102 1.428 . S
H3097 C3093 0.930 . S
H3098 C3095 0.929 . S
S3099 N3100 1.613 . S
S3099 N3101 1.610 . S
N3100 S3099 1.613 . S
N3100 C3103 1.350 . S
N3101 S3099 1.610 . S
N3101 C3102 1.351 . S
C3102 C3096 1.428 . S
C3102 N3101 1.351 . S
C3102 C3103 1.434 . S
C3103 C3094 1.429 . S
C3103 N3100 1.350 . S
C3103 C3102 1.434 . S
C3104 C3105 1.369 . S
C3104 C3106 1.419 . S
C3104 H3108 0.930 . S
C3105 C3104 1.369 . S
C3105 C3114 1.429 . S
C3106 C3104 1.419 . S
C3106 C3107 1.363 . S
C3106 H3109 0.929 . S
C3107 C3106 1.363 . S
C3107 C3113 1.428 . S
H3108 C3104 0.930 . S
H3109 C3106 0.929 . S
S3110 N3111 1.613 . S
S3110 N3112 1.610 . S
N3111 S3110 1.613 . S
N3111 C3114 1.350 . S
N3112 S3110 1.610 . S
N3112 C3113 1.351 . S
C3113 C3107 1.428 . S
C3113 N3112 1.351 . S
C3113 C3114 1.434 . S
C3114 C3105 1.429 . S
C3114 N3111 1.350 . S
C3114 C3113 1.434 . S
C3115 C3116 1.369 . S
C3115 C3117 1.419 . S
C3115 H3119 0.930 . S
C3116 C3115 1.369 . S
C3116 C3125 1.429 . S
C3117 C3115 1.419 . S
C3117 C3118 1.363 . S
C3117 H3120 0.929 . S
C3118 C3117 1.363 . S
C3118 C3124 1.428 . S
H3119 C3115 0.930 . S
H3120 C3117 0.929 . S
S3121 N3122 1.613 . S
S3121 N3123 1.610 . S
N3122 S3121 1.613 . S
N3122 C3125 1.350 . S
N3123 S3121 1.610 . S
N3123 C3124 1.351 . S
C3124 C3118 1.428 . S
C3124 N3123 1.351 . S
C3124 C3125 1.434 . S
C3125 C3116 1.429 . S
C3125 N3122 1.350 . S
C3125 C3124 1.434 . S
C3126 C3127 1.369 . S
C3126 C3128 1.419 . S
C3126 H3130 0.930 . S
C3127 C3126 1.369 . S
C3127 C3136 1.429 . S
C3128 C3126 1.419 . S
C3128 C3129 1.363 . S
C3128 H3131 0.929 . S
C3129 C3128 1.363 . S
C3129 C3135 1.428 . S
H3130 C3126 0.930 . S
H3131 C3128 0.929 . S
S3132 N3133 1.613 . S
S3132 N3134 1.610 . S
N3133 S3132 1.613 . S
N3133 C3136 1.350 . S
N3134 S3132 1.610 . S
N3134 C3135 1.351 . S
C3135 C3129 1.428 . S
C3135 N3134 1.351 . S
C3135 C3136 1.434 . S
C3136 C3127 1.429 . S
C3136 N3133 1.350 . S
C3136 C3135 1.434 . S
C3137 C3138 1.369 . S
C3137 C3139 1.419 . S
C3137 H3141 0.930 . S
C3138 C3137 1.369 . S
C3138 C3147 1.429 . S
C3139 C3137 1.419 . S
C3139 C3140 1.363 . S
C3139 H3142 0.929 . S
C3140 C3139 1.363 . S
C3140 C3146 1.428 . S
H3141 C3137 0.930 . S
H3142 C3139 0.929 . S
S3143 N3144 1.613 . S
S3143 N3145 1.610 . S
N3144 S3143 1.613 . S
N3144 C3147 1.350 . S
N3145 S3143 1.610 . S
N3145 C3146 1.351 . S
C3146 C3140 1.428 . S
C3146 N3145 1.351 . S
C3146 C3147 1.434 . S
C3147 C3138 1.429 . S
C3147 N3144 1.350 . S
C3147 C3146 1.434 . S
C3148 C3149 1.369 . S
C3148 C3150 1.419 . S
C3148 H3152 0.930 . S
C3149 C3148 1.369 . S
C3149 C3158 1.429 . S
C3150 C3148 1.419 . S
C3150 C3151 1.363 . S
C3150 H3153 0.929 . S
C3151 C3150 1.363 . S
C3151 C3157 1.428 . S
H3152 C3148 0.930 . S
H3153 C3150 0.929 . S
S3154 N3155 1.613 . S
S3154 N3156 1.610 . S
N3155 S3154 1.613 . S
N3155 C3158 1.350 . S
N3156 S3154 1.610 . S
N3156 C3157 1.351 . S
C3157 C3151 1.428 . S
C3157 N3156 1.351 . S
C3157 C3158 1.434 . S
C3158 C3149 1.429 . S
C3158 N3155 1.350 . S
C3158 C3157 1.434 . S
C3159 C3160 1.369 . S
C3159 C3161 1.419 . S
C3159 H3163 0.930 . S
C3160 C3159 1.369 . S
C3160 C3169 1.429 . S
C3161 C3159 1.419 . S
C3161 C3162 1.363 . S
C3161 H3164 0.929 . S
C3162 C3161 1.363 . S
C3162 C3168 1.428 . S
H3163 C3159 0.930 . S
H3164 C3161 0.929 . S
S3165 N3166 1.613 . S
S3165 N3167 1.610 . S
N3166 S3165 1.613 . S
N3166 C3169 1.350 . S
N3167 S3165 1.610 . S
N3167 C3168 1.351 . S
C3168 C3162 1.428 . S
C3168 N3167 1.351 . S
C3168 C3169 1.434 . S
C3169 C3160 1.429 . S
C3169 N3166 1.350 . S
C3169 C3168 1.434 . S
C3170 C3171 1.369 . S
C3170 C3172 1.419 . S
C3170 H3174 0.930 . S
C3171 C3170 1.369 . S
C3171 C3180 1.429 . S
C3172 C3170 1.419 . S
C3172 C3173 1.363 . S
C3172 H3175 0.929 . S
C3173 C3172 1.363 . S
C3173 C3179 1.428 . S
H3174 C3170 0.930 . S
H3175 C3172 0.929 . S
S3176 N3177 1.613 . S
S3176 N3178 1.610 . S
N3177 S3176 1.613 . S
N3177 C3180 1.350 . S
N3178 S3176 1.610 . S
N3178 C3179 1.351 . S
C3179 C3173 1.428 . S
C3179 N3178 1.351 . S
C3179 C3180 1.434 . S
C3180 C3171 1.429 . S
C3180 N3177 1.350 . S
C3180 C3179 1.434 . S
C3181 C3182 1.369 . S
C3181 C3183 1.419 . S
C3181 H3185 0.930 . S
C3182 C3181 1.369 . S
C3182 C3191 1.429 . S
C3183 C3181 1.419 . S
C3183 C3184 1.363 . S
C3183 H3186 0.929 . S
C3184 C3183 1.363 . S
C3184 C3190 1.428 . S
H3185 C3181 0.930 . S
H3186 C3183 0.929 . S
S3187 N3188 1.613 . S
S3187 N3189 1.610 . S
N3188 S3187 1.613 . S
N3188 C3191 1.350 . S
N3189 S3187 1.610 . S
N3189 C3190 1.351 . S
C3190 C3184 1.428 . S
C3190 N3189 1.351 . S
C3190 C3191 1.434 . S
C3191 C3182 1.429 . S
C3191 N3188 1.350 . S
C3191 C3190 1.434 . S
C3192 C3193 1.369 . S
C3192 C3194 1.419 . S
C3192 H3196 0.930 . S
C3193 C3192 1.369 . S
C3193 C3202 1.429 . S
C3194 C3192 1.419 . S
C3194 C3195 1.363 . S
C3194 H3197 0.929 . S
C3195 C3194 1.363 . S
C3195 C3201 1.428 . S
H3196 C3192 0.930 . S
H3197 C3194 0.929 . S
S3198 N3199 1.613 . S
S3198 N3200 1.610 . S
N3199 S3198 1.613 . S
N3199 C3202 1.350 . S
N3200 S3198 1.610 . S
N3200 C3201 1.351 . S
C3201 C3195 1.428 . S
C3201 N3200 1.351 . S
C3201 C3202 1.434 . S
C3202 C3193 1.429 . S
C3202 N3199 1.350 . S
C3202 C3201 1.434 . S
C3203 C3204 1.369 . S
C3203 C3205 1.419 . S
C3203 H3207 0.930 . S
C3204 C3203 1.369 . S
C3204 C3213 1.429 . S
C3205 C3203 1.419 . S
C3205 C3206 1.363 . S
C3205 H3208 0.929 . S
C3206 C3205 1.363 . S
C3206 C3212 1.428 . S
H3207 C3203 0.930 . S
H3208 C3205 0.929 . S
S3209 N3210 1.613 . S
S3209 N3211 1.610 . S
N3210 S3209 1.613 . S
N3210 C3213 1.350 . S
N3211 S3209 1.610 . S
N3211 C3212 1.351 . S
C3212 C3206 1.428 . S
C3212 N3211 1.351 . S
C3212 C3213 1.434 . S
C3213 C3204 1.429 . S
C3213 N3210 1.350 . S
C3213 C3212 1.434 . S
C3214 C3215 1.369 . S
C3214 C3216 1.419 . S
C3214 H3218 0.930 . S
C3215 C3214 1.369 . S
C3215 C3224 1.429 . S
C3216 C3214 1.419 . S
C3216 C3217 1.363 . S
C3216 H3219 0.929 . S
C3217 C3216 1.363 . S
C3217 C3223 1.428 . S
H3218 C3214 0.930 . S
H3219 C3216 0.929 . S
S3220 N3221 1.613 . S
S3220 N3222 1.610 . S
N3221 S3220 1.613 . S
N3221 C3224 1.350 . S
N3222 S3220 1.610 . S
N3222 C3223 1.351 . S
C3223 C3217 1.428 . S
C3223 N3222 1.351 . S
C3223 C3224 1.434 . S
C3224 C3215 1.429 . S
C3224 N3221 1.350 . S
C3224 C3223 1.434 . S
C3225 C3226 1.369 . S
C3225 C3227 1.419 . S
C3225 H3229 0.930 . S
C3226 C3225 1.369 . S
C3226 C3235 1.429 . S
C3227 C3225 1.419 . S
C3227 C3228 1.363 . S
C3227 H3230 0.929 . S
C3228 C3227 1.363 . S
C3228 C3234 1.428 . S
H3229 C3225 0.930 . S
H3230 C3227 0.929 . S
S3231 N3232 1.613 . S
S3231 N3233 1.610 . S
N3232 S3231 1.613 . S
N3232 C3235 1.350 . S
N3233 S3231 1.610 . S
N3233 C3234 1.351 . S
C3234 C3228 1.428 . S
C3234 N3233 1.351 . S
C3234 C3235 1.434 . S
C3235 C3226 1.429 . S
C3235 N3232 1.350 . S
C3235 C3234 1.434 . S
C3236 C3237 1.369 . S
C3236 C3238 1.419 . S
C3236 H3240 0.930 . S
C3237 C3236 1.369 . S
C3237 C3246 1.429 . S
C3238 C3236 1.419 . S
C3238 C3239 1.363 . S
C3238 H3241 0.929 . S
C3239 C3238 1.363 . S
C3239 C3245 1.428 . S
H3240 C3236 0.930 . S
H3241 C3238 0.929 . S
S3242 N3243 1.613 . S
S3242 N3244 1.610 . S
N3243 S3242 1.613 . S
N3243 C3246 1.350 . S
N3244 S3242 1.610 . S
N3244 C3245 1.351 . S
C3245 C3239 1.428 . S
C3245 N3244 1.351 . S
C3245 C3246 1.434 . S
C3246 C3237 1.429 . S
C3246 N3243 1.350 . S
C3246 C3245 1.434 . S
C3247 C3248 1.369 . S
C3247 C3249 1.419 . S
C3247 H3251 0.930 . S
C3248 C3247 1.369 . S
C3248 C3257 1.429 . S
C3249 C3247 1.419 . S
C3249 C3250 1.363 . S
C3249 H3252 0.929 . S
C3250 C3249 1.363 . S
C3250 C3256 1.428 . S
H3251 C3247 0.930 . S
H3252 C3249 0.929 . S
S3253 N3254 1.613 . S
S3253 N3255 1.610 . S
N3254 S3253 1.613 . S
N3254 C3257 1.350 . S
N3255 S3253 1.610 . S
N3255 C3256 1.351 . S
C3256 C3250 1.428 . S
C3256 N3255 1.351 . S
C3256 C3257 1.434 . S
C3257 C3248 1.429 . S
C3257 N3254 1.350 . S
C3257 C3256 1.434 . S
C3258 C3259 1.369 . S
C3258 C3260 1.419 . S
C3258 H3262 0.930 . S
C3259 C3258 1.369 . S
C3259 C3268 1.429 . S
C3260 C3258 1.419 . S
C3260 C3261 1.363 . S
C3260 H3263 0.929 . S
C3261 C3260 1.363 . S
C3261 C3267 1.428 . S
H3262 C3258 0.930 . S
H3263 C3260 0.929 . S
S3264 N3265 1.613 . S
S3264 N3266 1.610 . S
N3265 S3264 1.613 . S
N3265 C3268 1.350 . S
N3266 S3264 1.610 . S
N3266 C3267 1.351 . S
C3267 C3261 1.428 . S
C3267 N3266 1.351 . S
C3267 C3268 1.434 . S
C3268 C3259 1.429 . S
C3268 N3265 1.350 . S
C3268 C3267 1.434 . S
C3269 C3270 1.369 . S
C3269 C3271 1.419 . S
C3269 H3273 0.930 . S
C3270 C3269 1.369 . S
C3270 C3279 1.429 . S
C3271 C3269 1.419 . S
C3271 C3272 1.363 . S
C3271 H3274 0.929 . S
C3272 C3271 1.363 . S
C3272 C3278 1.428 . S
H3273 C3269 0.930 . S
H3274 C3271 0.929 . S
S3275 N3276 1.613 . S
S3275 N3277 1.610 . S
N3276 S3275 1.613 . S
N3276 C3279 1.350 . S
N3277 S3275 1.610 . S
N3277 C3278 1.351 . S
C3278 C3272 1.428 . S
C3278 N3277 1.351 . S
C3278 C3279 1.434 . S
C3279 C3270 1.429 . S
C3279 N3276 1.350 . S
C3279 C3278 1.434 . S
C3280 C3281 1.369 . S
C3280 C3282 1.419 . S
C3280 H3284 0.930 . S
C3281 C3280 1.369 . S
C3281 C3290 1.429 . S
C3282 C3280 1.419 . S
C3282 C3283 1.363 . S
C3282 H3285 0.929 . S
C3283 C3282 1.363 . S
C3283 C3289 1.428 . S
H3284 C3280 0.930 . S
H3285 C3282 0.929 . S
S3286 N3287 1.613 . S
S3286 N3288 1.610 . S
N3287 S3286 1.613 . S
N3287 C3290 1.350 . S
N3288 S3286 1.610 . S
N3288 C3289 1.351 . S
C3289 C3283 1.428 . S
C3289 N3288 1.351 . S
C3289 C3290 1.434 . S
C3290 C3281 1.429 . S
C3290 N3287 1.350 . S
C3290 C3289 1.434 . S
C3291 C3292 1.369 . S
C3291 C3293 1.419 . S
C3291 H3295 0.930 . S
C3292 C3291 1.369 . S
C3292 C3301 1.429 . S
C3293 C3291 1.419 . S
C3293 C3294 1.363 . S
C3293 H3296 0.929 . S
C3294 C3293 1.363 . S
C3294 C3300 1.428 . S
H3295 C3291 0.930 . S
H3296 C3293 0.929 . S
S3297 N3298 1.613 . S
S3297 N3299 1.610 . S
N3298 S3297 1.613 . S
N3298 C3301 1.350 . S
N3299 S3297 1.610 . S
N3299 C3300 1.351 . S
C3300 C3294 1.428 . S
C3300 N3299 1.351 . S
C3300 C3301 1.434 . S
C3301 C3292 1.429 . S
C3301 N3298 1.350 . S
C3301 C3300 1.434 . S
C3302 C3303 1.369 . S
C3302 C3304 1.419 . S
C3302 H3306 0.930 . S
C3303 C3302 1.369 . S
C3303 C3312 1.429 . S
C3304 C3302 1.419 . S
C3304 C3305 1.363 . S
C3304 H3307 0.929 . S
C3305 C3304 1.363 . S
C3305 C3311 1.428 . S
H3306 C3302 0.930 . S
H3307 C3304 0.929 . S
S3308 N3309 1.613 . S
S3308 N3310 1.610 . S
N3309 S3308 1.613 . S
N3309 C3312 1.350 . S
N3310 S3308 1.610 . S
N3310 C3311 1.351 . S
C3311 C3305 1.428 . S
C3311 N3310 1.351 . S
C3311 C3312 1.434 . S
C3312 C3303 1.429 . S
C3312 N3309 1.350 . S
C3312 C3311 1.434 . S
C3313 C3314 1.369 . S
C3313 C3315 1.419 . S
C3313 H3317 0.930 . S
C3314 C3313 1.369 . S
C3314 C3323 1.429 . S
C3315 C3313 1.419 . S
C3315 C3316 1.363 . S
C3315 H3318 0.929 . S
C3316 C3315 1.363 . S
C3316 C3322 1.428 . S
H3317 C3313 0.930 . S
H3318 C3315 0.929 . S
S3319 N3320 1.613 . S
S3319 N3321 1.610 . S
N3320 S3319 1.613 . S
N3320 C3323 1.350 . S
N3321 S3319 1.610 . S
N3321 C3322 1.351 . S
C3322 C3316 1.428 . S
C3322 N3321 1.351 . S
C3322 C3323 1.434 . S
C3323 C3314 1.429 . S
C3323 N3320 1.350 . S
C3323 C3322 1.434 . S
C3324 C3325 1.369 . S
C3324 C3326 1.419 . S
C3324 H3328 0.930 . S
C3325 C3324 1.369 . S
C3325 C3334 1.429 . S
C3326 C3324 1.419 . S
C3326 C3327 1.363 . S
C3326 H3329 0.929 . S
C3327 C3326 1.363 . S
C3327 C3333 1.428 . S
H3328 C3324 0.930 . S
H3329 C3326 0.929 . S
S3330 N3331 1.613 . S
S3330 N3332 1.610 . S
N3331 S3330 1.613 . S
N3331 C3334 1.350 . S
N3332 S3330 1.610 . S
N3332 C3333 1.351 . S
C3333 C3327 1.428 . S
C3333 N3332 1.351 . S
C3333 C3334 1.434 . S
C3334 C3325 1.429 . S
C3334 N3331 1.350 . S
C3334 C3333 1.434 . S
C3335 C3336 1.369 . S
C3335 C3337 1.419 . S
C3335 H3339 0.930 . S
C3336 C3335 1.369 . S
C3336 C3345 1.429 . S
C3337 C3335 1.419 . S
C3337 C3338 1.363 . S
C3337 H3340 0.929 . S
C3338 C3337 1.363 . S
C3338 C3344 1.428 . S
H3339 C3335 0.930 . S
H3340 C3337 0.929 . S
S3341 N3342 1.613 . S
S3341 N3343 1.610 . S
N3342 S3341 1.613 . S
N3342 C3345 1.350 . S
N3343 S3341 1.610 . S
N3343 C3344 1.351 . S
C3344 C3338 1.428 . S
C3344 N3343 1.351 . S
C3344 C3345 1.434 . S
C3345 C3336 1.429 . S
C3345 N3342 1.350 . S
C3345 C3344 1.434 . S
C3346 C3347 1.369 . S
C3346 C3348 1.419 . S
C3346 H3350 0.930 . S
C3347 C3346 1.369 . S
C3347 C3356 1.429 . S
C3348 C3346 1.419 . S
C3348 C3349 1.363 . S
C3348 H3351 0.929 . S
C3349 C3348 1.363 . S
C3349 C3355 1.428 . S
H3350 C3346 0.930 . S
H3351 C3348 0.929 . S
S3352 N3353 1.613 . S
S3352 N3354 1.610 . S
N3353 S3352 1.613 . S
N3353 C3356 1.350 . S
N3354 S3352 1.610 . S
N3354 C3355 1.351 . S
C3355 C3349 1.428 . S
C3355 N3354 1.351 . S
C3355 C3356 1.434 . S
C3356 C3347 1.429 . S
C3356 N3353 1.350 . S
C3356 C3355 1.434 . S
C3357 C3358 1.369 . S
C3357 C3359 1.419 . S
C3357 H3361 0.930 . S
C3358 C3357 1.369 . S
C3358 C3367 1.429 . S
C3359 C3357 1.419 . S
C3359 C3360 1.363 . S
C3359 H3362 0.929 . S
C3360 C3359 1.363 . S
C3360 C3366 1.428 . S
H3361 C3357 0.930 . S
H3362 C3359 0.929 . S
S3363 N3364 1.613 . S
S3363 N3365 1.610 . S
N3364 S3363 1.613 . S
N3364 C3367 1.350 . S
N3365 S3363 1.610 . S
N3365 C3366 1.351 . S
C3366 C3360 1.428 . S
C3366 N3365 1.351 . S
C3366 C3367 1.434 . S
C3367 C3358 1.429 . S
C3367 N3364 1.350 . S
C3367 C3366 1.434 . S
C3368 C3369 1.369 . S
C3368 C3370 1.419 . S
C3368 H3372 0.930 . S
C3369 C3368 1.369 . S
C3369 C3378 1.429 . S
C3370 C3368 1.419 . S
C3370 C3371 1.363 . S
C3370 H3373 0.929 . S
C3371 C3370 1.363 . S
C3371 C3377 1.428 . S
H3372 C3368 0.930 . S
H3373 C3370 0.929 . S
S3374 N3375 1.613 . S
S3374 N3376 1.610 . S
N3375 S3374 1.613 . S
N3375 C3378 1.350 . S
N3376 S3374 1.610 . S
N3376 C3377 1.351 . S
C3377 C3371 1.428 . S
C3377 N3376 1.351 . S
C3377 C3378 1.434 . S
C3378 C3369 1.429 . S
C3378 N3375 1.350 . S
C3378 C3377 1.434 . S
C3379 C3380 1.369 . S
C3379 C3381 1.419 . S
C3379 H3383 0.930 . S
C3380 C3379 1.369 . S
C3380 C3389 1.429 . S
C3381 C3379 1.419 . S
C3381 C3382 1.363 . S
C3381 H3384 0.929 . S
C3382 C3381 1.363 . S
C3382 C3388 1.428 . S
H3383 C3379 0.930 . S
H3384 C3381 0.929 . S
S3385 N3386 1.613 . S
S3385 N3387 1.610 . S
N3386 S3385 1.613 . S
N3386 C3389 1.350 . S
N3387 S3385 1.610 . S
N3387 C3388 1.351 . S
C3388 C3382 1.428 . S
C3388 N3387 1.351 . S
C3388 C3389 1.434 . S
C3389 C3380 1.429 . S
C3389 N3386 1.350 . S
C3389 C3388 1.434 . S
C3390 C3391 1.369 . S
C3390 C3392 1.419 . S
C3390 H3394 0.930 . S
C3391 C3390 1.369 . S
C3391 C3400 1.429 . S
C3392 C3390 1.419 . S
C3392 C3393 1.363 . S
C3392 H3395 0.929 . S
C3393 C3392 1.363 . S
C3393 C3399 1.428 . S
H3394 C3390 0.930 . S
H3395 C3392 0.929 . S
S3396 N3397 1.613 . S
S3396 N3398 1.610 . S
N3397 S3396 1.613 . S
N3397 C3400 1.350 . S
N3398 S3396 1.610 . S
N3398 C3399 1.351 . S
C3399 C3393 1.428 . S
C3399 N3398 1.351 . S
C3399 C3400 1.434 . S
C3400 C3391 1.429 . S
C3400 N3397 1.350 . S
C3400 C3399 1.434 . S
C3401 C3402 1.369 . S
C3401 C3403 1.419 . S
C3401 H3405 0.930 . S
C3402 C3401 1.369 . S
C3402 C3411 1.429 . S
C3403 C3401 1.419 . S
C3403 C3404 1.363 . S
C3403 H3406 0.929 . S
C3404 C3403 1.363 . S
C3404 C3410 1.428 . S
H3405 C3401 0.930 . S
H3406 C3403 0.929 . S
S3407 N3408 1.613 . S
S3407 N3409 1.610 . S
N3408 S3407 1.613 . S
N3408 C3411 1.350 . S
N3409 S3407 1.610 . S
N3409 C3410 1.351 . S
C3410 C3404 1.428 . S
C3410 N3409 1.351 . S
C3410 C3411 1.434 . S
C3411 C3402 1.429 . S
C3411 N3408 1.350 . S
C3411 C3410 1.434 . S
C3412 C3413 1.369 . S
C3412 C3414 1.419 . S
C3412 H3416 0.930 . S
C3413 C3412 1.369 . S
C3413 C3422 1.429 . S
C3414 C3412 1.419 . S
C3414 C3415 1.363 . S
C3414 H3417 0.929 . S
C3415 C3414 1.363 . S
C3415 C3421 1.428 . S
H3416 C3412 0.930 . S
H3417 C3414 0.929 . S
S3418 N3419 1.613 . S
S3418 N3420 1.610 . S
N3419 S3418 1.613 . S
N3419 C3422 1.350 . S
N3420 S3418 1.610 . S
N3420 C3421 1.351 . S
C3421 C3415 1.428 . S
C3421 N3420 1.351 . S
C3421 C3422 1.434 . S
C3422 C3413 1.429 . S
C3422 N3419 1.350 . S
C3422 C3421 1.434 . S
C3423 C3424 1.369 . S
C3423 C3425 1.419 . S
C3423 H3427 0.930 . S
C3424 C3423 1.369 . S
C3424 C3433 1.429 . S
C3425 C3423 1.419 . S
C3425 C3426 1.363 . S
C3425 H3428 0.929 . S
C3426 C3425 1.363 . S
C3426 C3432 1.428 . S
H3427 C3423 0.930 . S
H3428 C3425 0.929 . S
S3429 N3430 1.613 . S
S3429 N3431 1.610 . S
N3430 S3429 1.613 . S
N3430 C3433 1.350 . S
N3431 S3429 1.610 . S
N3431 C3432 1.351 . S
C3432 C3426 1.428 . S
C3432 N3431 1.351 . S
C3432 C3433 1.434 . S
C3433 C3424 1.429 . S
C3433 N3430 1.350 . S
C3433 C3432 1.434 . S
C3434 C3435 1.369 . S
C3434 C3436 1.419 . S
C3434 H3438 0.930 . S
C3435 C3434 1.369 . S
C3435 C3444 1.429 . S
C3436 C3434 1.419 . S
C3436 C3437 1.363 . S
C3436 H3439 0.929 . S
C3437 C3436 1.363 . S
C3437 C3443 1.428 . S
H3438 C3434 0.930 . S
H3439 C3436 0.929 . S
S3440 N3441 1.613 . S
S3440 N3442 1.610 . S
N3441 S3440 1.613 . S
N3441 C3444 1.350 . S
N3442 S3440 1.610 . S
N3442 C3443 1.351 . S
C3443 C3437 1.428 . S
C3443 N3442 1.351 . S
C3443 C3444 1.434 . S
C3444 C3435 1.429 . S
C3444 N3441 1.350 . S
C3444 C3443 1.434 . S
C3445 C3446 1.369 . S
C3445 C3447 1.419 . S
C3445 H3449 0.930 . S
C3446 C3445 1.369 . S
C3446 C3455 1.429 . S
C3447 C3445 1.419 . S
C3447 C3448 1.363 . S
C3447 H3450 0.929 . S
C3448 C3447 1.363 . S
C3448 C3454 1.428 . S
H3449 C3445 0.930 . S
H3450 C3447 0.929 . S
S3451 N3452 1.613 . S
S3451 N3453 1.610 . S
N3452 S3451 1.613 . S
N3452 C3455 1.350 . S
N3453 S3451 1.610 . S
N3453 C3454 1.351 . S
C3454 C3448 1.428 . S
C3454 N3453 1.351 . S
C3454 C3455 1.434 . S
C3455 C3446 1.429 . S
C3455 N3452 1.350 . S
C3455 C3454 1.434 . S
C1345 C9 1.626 . S
C1347 C961 1.625 . S
C1356 C919 1.626 . S
C1358 C23 1.628 . S
C1367 C933 1.628 . S
C1369 C37 1.630 . S
C1378 C51 1.629 . S
C1380 C947 1.630 . S
C1389 C1003 1.630 . S
C1391 C65 1.628 . S
C1400 C975 1.629 . S
C1402 C79 1.626 . S
C1411 C989 1.627 . S
C1413 C93 1.629 . S
C1422 C107 1.626 . S
C1424 C905 1.628 . S
C1433 C121 1.627 . S
C1435 C891 1.629 . S
C1444 C135 1.626 . S
C1446 C849 1.629 . S
C1455 C149 1.628 . S
C1457 C863 1.626 . S
C1466 C163 1.626 . S
C1468 C877 1.625 . S
C1477 C177 1.630 . S
C1479 C807 1.629 . S
C1488 C821 1.630 . S
C1490 C191 1.629 . S
C1499 C835 1.630 . S
C1501 C205 1.629 . S
C1510 C219 1.625 . S
C1512 C793 1.626 . S
C1521 C233 1.628 . S
C1523 C779 1.626 . S
C1532 C247 1.626 . S
C1534 C695 1.625 . S
C1543 C709 1.630 . S
C1545 C261 1.627 . S
C1554 C723 1.625 . S
C1556 C275 1.627 . S
C1565 C681 1.625 . S
C1567 C289 1.626 . S
C1576 C303 1.625 . S
C1578 C751 1.626 . S
C1587 C317 1.630 . S
C1589 C765 1.629 . S
C1598 C331 1.625 . S
C1600 C737 1.626 . S
C1609 C345 1.628 . S
C1611 C1297 1.629 . S
C1620 C359 1.625 . S
C1622 C1255 1.627 . S
C1631 C373 1.630 . S
C1633 C1269 1.628 . S
C1642 C387 1.629 . S
C1644 C1283 1.627 . S
C1653 C401 1.629 . S
C1655 C1339 1.627 . S
C1664 C415 1.627 . S
C1666 C1311 1.626 . S
C1675 C1325 1.625 . S
C1677 C429 1.625 . S
C1686 C443 1.630 . S
C1688 C1241 1.629 . S
C1697 C457 1.625 . S
C1699 C1227 1.625 . S
C1708 C1185 1.625 . S
C1710 C471 1.628 . S
C1719 C485 1.629 . S
C1721 C1199 1.627 . S
C1730 C499 1.629 . S
C1732 C1213 1.627 . S
C1741 C513 1.627 . S
C1743 C1143 1.629 . S
C1752 C527 1.626 . S
C1754 C1157 1.628 . S
C1763 C541 1.627 . S
C1765 C1171 1.626 . S
C1774 C1129 1.629 . S
C1776 C555 1.627 . S
C1785 C569 1.630 . S
C1787 C1115 1.628 . S
C1796 C583 1.625 . S
C1798 C1031 1.627 . S
C1807 C597 1.626 . S
C1809 C1045 1.625 . S
C1818 C1059 1.628 . S
C1820 C611 1.629 . S
C1829 C625 1.630 . S
C1831 C1017 1.628 . S
C1840 C1087 1.629 . S
C1842 C639 1.630 . S
C1851 C653 1.630 . S
C1853 C1101 1.629 . S
C1862 C667 1.627 . S
C1864 C1073 1.629 . S
C1873 C7 1.463 . S
C1875 C553 1.463 . S
C1884 C21 1.459 . S
C1886 C511 1.460 . S
C1895 C525 1.464 . S
C1897 C35 1.463 . S
C1906 C49 1.462 . S
C1908 C539 1.462 . S
C1917 C469 1.465 . S
C1919 C63 1.464 . S
C1928 C483 1.465 . S
C1930 C77 1.464 . S
C1939 C497 1.460 . S
C1941 C91 1.461 . S
C1950 C455 1.466 . S
C1952 C105 1.466 . S
C1961 C441 1.467 . S
C1963 C119 1.466 . S
C1972 C133 1.467 . S
C1974 C399 1.466 . S
C1983 C413 1.467 . S
C1985 C147 1.466 . S
C1994 C161 1.465 . S
C1996 C427 1.464 . S
C2005 C357 1.461 . S
C2007 C175 1.461 . S
C2016 C371 1.460 . S
C2018 C189 1.461 . S
C2027 C203 1.463 . S
C2029 C385 1.463 . S
C2038 C217 1.462 . S
C2040 C343 1.463 . S
C2049 C231 1.463 . S
C2051 C623 1.463 . S
C2060 C245 1.466 . S
C2062 C665 1.465 . S
C2071 C637 1.463 . S
C2073 C259 1.463 . S
C2082 C651 1.460 . S
C2084 C273 1.461 . S
C2093 C287 1.460 . S
C2095 C567 1.461 . S
C2104 C301 1.463 . S
C2106 C595 1.463 . S
C2115 C609 1.463 . S
C2117 C315 1.463 . S
C2126 C329 1.461 . S
C2128 C581 1.461 . S
C2137 C1225 1.467 . S
C2139 C679 1.466 . S
C2148 C1183 1.465 . S
C2150 C693 1.465 . S
C2159 C1197 1.465 . S
C2161 C707 1.465 . S
C2170 C721 1.464 . S
C2172 C1211 1.463 . S
C2181 C1141 1.463 . S
C2183 C735 1.463 . S
C2192 C1155 1.466 . S
C2194 C749 1.465 . S
C2203 C763 1.464 . S
C2205 C1169 1.464 . S
C2214 C777 1.467 . S
C2216 C1127 1.466 . S
C2225 C1113 1.467 . S
C2227 C791 1.466 . S
C2236 C805 1.461 . S
C2238 C1071 1.461 . S
C2247 C1085 1.465 . S
C2249 C819 1.464 . S
C2258 C1099 1.465 . S
C2260 C833 1.465 . S
C2269 C847 1.466 . S
C2271 C1029 1.465 . S
C2280 C861 1.467 . S
C2282 C1043 1.466 . S
C2291 C1057 1.461 . S
C2293 C875 1.461 . S
C2302 C889 1.461 . S
C2304 C1015 1.462 . S
C2313 C1295 1.465 . S
C2315 C903 1.465 . S
C2324 C1337 1.465 . S
C2326 C917 1.465 . S
C2335 C931 1.465 . S
C2337 C1309 1.464 . S
C2346 C1323 1.464 . S
C2348 C945 1.464 . S
C2357 C1239 1.462 . S
C2359 C959 1.462 . S
C2368 C1267 1.459 . S
C2370 C973 1.460 . S
C2379 C987 1.460 . S
C2381 C1281 1.460 . S
C2390 C1253 1.461 . S
C2392 C1001 1.461 . S
C2401 C8 1.351 . S
C2403 C400 1.352 . S
C2412 C414 1.355 . S
C2414 C22 1.355 . S
C2423 C36 1.356 . S
C2425 C428 1.356 . S
C2434 C442 1.353 . S
C2436 C50 1.353 . S
C2445 C64 1.356 . S
C2447 C344 1.355 . S
C2456 C78 1.353 . S
C2458 C358 1.353 . S
C2467 C92 1.351 . S
C2469 C372 1.352 . S
C2478 C386 1.352 . S
C2480 C106 1.353 . S
C2489 C540 1.355 . S
C2491 C120 1.355 . S
C2500 C134 1.356 . S
C2502 C554 1.356 . S
C2511 C148 1.352 . S
C2513 C512 1.352 . S
C2522 C162 1.355 . S
C2524 C526 1.355 . S
C2533 C176 1.356 . S
C2535 C484 1.356 . S
C2544 C190 1.355 . S
C2546 C498 1.355 . S
C2555 C204 1.356 . S
C2557 C456 1.356 . S
C2566 C218 1.355 . S
C2568 C470 1.355 . S
C2577 C232 1.353 . S
C2579 C638 1.353 . S
C2588 C246 1.353 . S
C2590 C610 1.353 . S
C2599 C624 1.351 . S
C2601 C260 1.352 . S
C2610 C274 1.355 . S
C2612 C582 1.355 . S
C2621 C596 1.356 . S
C2623 C288 1.356 . S
C2632 C302 1.354 . S
C2634 C568 1.354 . S
C2643 C316 1.356 . S
C2645 C666 1.356 . S
C2654 C652 1.351 . S
C2656 C330 1.352 . S
C2665 C1072 1.353 . S
C2667 C680 1.353 . S
C2676 C694 1.355 . S
C2678 C1086 1.355 . S
C2687 C1100 1.354 . S
C2689 C708 1.354 . S
C2698 C722 1.354 . S
C2700 C1114 1.354 . S
C2709 C1016 1.355 . S
C2711 C736 1.355 . S
C2720 C1030 1.353 . S
C2722 C750 1.353 . S
C2731 C1044 1.353 . S
C2733 C764 1.353 . S
C2742 C778 1.354 . S
C2744 C1058 1.354 . S
C2753 C792 1.356 . S
C2755 C1212 1.356 . S
C2764 C1226 1.351 . S
C2766 C806 1.352 . S
C2775 C1184 1.351 . S
C2777 C820 1.352 . S
C2786 C1198 1.351 . S
C2788 C834 1.352 . S
C2797 C848 1.356 . S
C2799 C1156 1.356 . S
C2808 C862 1.354 . S
C2810 C1170 1.354 . S
C2819 C1128 1.352 . S
C2821 C876 1.352 . S
C2830 C1142 1.356 . S
C2832 C890 1.356 . S
C2841 C1310 1.352 . S
C2843 C904 1.353 . S
C2852 C918 1.353 . S
C2854 C1282 1.353 . S
C2863 C1296 1.351 . S
C2865 C932 1.352 . S
C2874 C946 1.355 . S
C2876 C1254 1.355 . S
C2885 C960 1.355 . S
C2887 C1268 1.355 . S
C2896 C974 1.355 . S
C2898 C1240 1.355 . S
C2907 C1338 1.356 . S
C2909 C988 1.356 . S
C2918 C1002 1.351 . S
C2920 C1324 1.352 . S
C2929 C437 1.374 . S
C2931 C3 1.374 . S
C2940 C395 1.374 . S
C2942 C17 1.375 . S
C2951 C31 1.376 . S
C2953 C409 1.376 . S
C2962 C423 1.372 . S
C2964 C45 1.373 . S
C2973 C353 1.374 . S
C2975 C59 1.375 . S
C2984 C73 1.375 . S
C2986 C367 1.374 . S
C2995 C87 1.372 . S
C2997 C381 1.373 . S
C3006 C339 1.375 . S
C3008 C101 1.375 . S
C3017 C619 1.376 . S
C3019 C115 1.376 . S
C3028 C129 1.376 . S
C3030 C577 1.376 . S
C3039 C143 1.373 . S
C3041 C591 1.373 . S
C3050 C605 1.373 . S
C3052 C157 1.373 . S
C3061 C171 1.375 . S
C3063 C661 1.375 . S
C3072 C633 1.372 . S
C3074 C185 1.373 . S
C3083 C647 1.373 . S
C3085 C199 1.374 . S
C3094 C213 1.374 . S
C3096 C563 1.374 . S
C3105 C227 1.376 . S
C3107 C549 1.375 . S
C3116 C241 1.372 . S
C3118 C465 1.373 . S
C3127 C255 1.373 . S
C3129 C479 1.373 . S
C3138 C493 1.375 . S
C3140 C269 1.375 . S
C3149 C451 1.376 . S
C3151 C283 1.376 . S
C3160 C297 1.374 . S
C3162 C521 1.374 . S
C3171 C311 1.375 . S
C3173 C535 1.375 . S
C3182 C325 1.375 . S
C3184 C507 1.375 . S
C3193 C675 1.376 . S
C3195 C1109 1.376 . S
C3204 C689 1.372 . S
C3206 C1067 1.373 . S
C3215 C703 1.374 . S
C3217 C1081 1.374 . S
C3226 C1095 1.374 . S
C3228 C717 1.374 . S
C3237 C1025 1.376 . S
C3239 C731 1.375 . S
C3248 C1039 1.376 . S
C3250 C745 1.375 . S
C3259 C759 1.372 . S
C3261 C1053 1.373 . S
C3270 C1011 1.375 . S
C3272 C773 1.375 . S
C3281 C1291 1.372 . S
C3283 C787 1.373 . S
C3292 C1249 1.375 . S
C3294 C801 1.375 . S
C3303 C1263 1.372 . S
C3305 C815 1.373 . S
C3314 C1277 1.374 . S
C3316 C829 1.374 . S
C3325 C1333 1.375 . S
C3327 C843 1.375 . S
C3336 C1305 1.376 . S
C3338 C857 1.376 . S
C3347 C1319 1.372 . S
C3349 C871 1.373 . S
C3358 C1235 1.374 . S
C3360 C885 1.374 . S
C3369 C899 1.376 . S
C3371 C1221 1.376 . S
C3380 C1137 1.374 . S
C3382 C913 1.375 . S
C3391 C1151 1.374 . S
C3393 C927 1.374 . S
C3402 C1165 1.374 . S
C3404 C941 1.374 . S
C3413 C1123 1.375 . S
C3415 C955 1.375 . S
C3424 C1193 1.374 . S
C3426 C969 1.374 . S
C3435 C1207 1.376 . S
C3437 C983 1.376 . S
C3446 C1179 1.373 . S
C3448 C997 1.373 . S
