# Generated by pormake.
# Topology fnz, (5)-cn, num edge types: 1
# Building blocks:
#     Node 0, Type 0, BuildingBlock: XOMCOT_clean_sbu_1, # of connection points: 5
#     Node 1, Type 0, BuildingBlock: XOMCOT_clean_sbu_1, # of connection points: 5
#     Node 2, Type 0, BuildingBlock: XOMCOT_clean_sbu_1, # of connection points: 5
#     Node 3, Type 0, BuildingBlock: XOMCOT_clean_sbu_1, # of connection points: 5
#     Node 4, Type 0, BuildingBlock: XOMCOT_clean_sbu_1, # of connection points: 5
#     Node 5, Type 0, BuildingBlock: XOMCOT_clean_sbu_1, # of connection points: 5
#     Node 6, Type 0, BuildingBlock: XOMCOT_clean_sbu_1, # of connection points: 5
#     Node 7, Type 0, BuildingBlock: XOMCOT_clean_sbu_1, # of connection points: 5
#     Node 8, Type 0, BuildingBlock: XOMCOT_clean_sbu_1, # of connection points: 5
#     Node 9, Type 0, BuildingBlock: XOMCOT_clean_sbu_1, # of connection points: 5
#     Node 10, Type 0, BuildingBlock: XOMCOT_clean_sbu_1, # of connection points: 5
#     Node 11, Type 0, BuildingBlock: XOMCOT_clean_sbu_1, # of connection points: 5
#     Edge 12, Type (0, 0), BuildingBlock: OJICUG_clean_linker_0, # of connection points: 2
#     Edge 13, Type (0, 0), BuildingBlock: OJICUG_clean_linker_0, # of connection points: 2
#     Edge 14, Type (0, 0), BuildingBlock: OJICUG_clean_linker_0, # of connection points: 2
#     Edge 15, Type (0, 0), BuildingBlock: OJICUG_clean_linker_0, # of connection points: 2
#     Edge 16, Type (0, 0), BuildingBlock: OJICUG_clean_linker_0, # of connection points: 2
#     Edge 17, Type (0, 0), BuildingBlock: OJICUG_clean_linker_0, # of connection points: 2
#     Edge 18, Type (0, 0), BuildingBlock: OJICUG_clean_linker_0, # of connection points: 2
#     Edge 19, Type (0, 0), BuildingBlock: OJICUG_clean_linker_0, # of connection points: 2
#     Edge 20, Type (0, 0), BuildingBlock: OJICUG_clean_linker_0, # of connection points: 2
#     Edge 21, Type (0, 0), BuildingBlock: OJICUG_clean_linker_0, # of connection points: 2
#     Edge 22, Type (0, 0), BuildingBlock: OJICUG_clean_linker_0, # of connection points: 2
#     Edge 23, Type (0, 0), BuildingBlock: OJICUG_clean_linker_0, # of connection points: 2
#     Edge 24, Type (0, 0), BuildingBlock: OJICUG_clean_linker_0, # of connection points: 2
#     Edge 25, Type (0, 0), BuildingBlock: OJICUG_clean_linker_0, # of connection points: 2
#     Edge 26, Type (0, 0), BuildingBlock: OJICUG_clean_linker_0, # of connection points: 2
#     Edge 27, Type (0, 0), BuildingBlock: OJICUG_clean_linker_0, # of connection points: 2
#     Edge 28, Type (0, 0), BuildingBlock: OJICUG_clean_linker_0, # of connection points: 2
#     Edge 29, Type (0, 0), BuildingBlock: OJICUG_clean_linker_0, # of connection points: 2
#     Edge 30, Type (0, 0), BuildingBlock: OJICUG_clean_linker_0, # of connection points: 2
#     Edge 31, Type (0, 0), BuildingBlock: OJICUG_clean_linker_0, # of connection points: 2
#     Edge 32, Type (0, 0), BuildingBlock: OJICUG_clean_linker_0, # of connection points: 2
#     Edge 33, Type (0, 0), BuildingBlock: OJICUG_clean_linker_0, # of connection points: 2
#     Edge 34, Type (0, 0), BuildingBlock: OJICUG_clean_linker_0, # of connection points: 2
#     Edge 35, Type (0, 0), BuildingBlock: OJICUG_clean_linker_0, # of connection points: 2
#     Edge 36, Type (0, 0), BuildingBlock: OJICUG_clean_linker_0, # of connection points: 2
#     Edge 37, Type (0, 0), BuildingBlock: OJICUG_clean_linker_0, # of connection points: 2
#     Edge 38, Type (0, 0), BuildingBlock: OJICUG_clean_linker_0, # of connection points: 2
#     Edge 39, Type (0, 0), BuildingBlock: OJICUG_clean_linker_0, # of connection points: 2
#     Edge 40, Type (0, 0), BuildingBlock: OJICUG_clean_linker_0, # of connection points: 2
#     Edge 41, Type (0, 0), BuildingBlock: OJICUG_clean_linker_0, # of connection points: 2
# Relax obj value: 0.396
# Max RMSD: 0.284
# Mean RMSD: 0.284
data_MOF--net-fnz--node1-XOMCOT_clean_sbu_1--edge1-OJICUG_clean_linker_0
_symmetry_space_group_name_H-M    P1
_symmetry_Int_Tables_number       1
_symmetry_cell_setting            triclinic
loop_
_symmetry_equiv_pos_as_xyz
'x, y, z'
_cell_length_a     35.13306
_cell_length_b     35.050792
_cell_length_c     18.340001
_cell_angle_alpha  90.507376
_cell_angle_beta   89.229707
_cell_angle_gamma 119.77873
loop_
_atom_site_label
_atom_site_type_symbol
_atom_site_fract_x
_atom_site_fract_y
_atom_site_fract_z
_atom_type_partial_charge
C0 C 0.5523 0.17017 1.06964 0.0
C1 C 0.56674 0.14008 0.07343 0.0
N2 N 0.53408 0.10074 1.05097 0.0
N3 N 0.51052 0.14967 1.04606 0.0
C4 C 0.50106 0.10793 1.03336 0.0
H5 H 0.57075 0.20456 0.08449 0.0
Co6 Co 0.47257 0.17209 1.03081 0.0
C7 C 0.49795 0.19697 0.19052 0.0
O8 O 0.50559 0.16469 0.2045 0.0
N9 N 0.43488 0.19398 1.0157 0.0
C10 C 0.38968 0.21323 0.96551 0.0
C11 C 0.41762 0.19681 0.95208 0.0
C12 C 0.41711 0.20868 1.06669 0.0
N13 N 0.38991 0.2208 1.03764 0.0
O14 O 0.51872 0.22335 0.98512 0.0
H15 H 0.42471 0.1873 0.89959 0.0
H16 H 0.42276 0.20952 0.12459 0.0
O17 O 0.48634 0.20104 0.12663 0.0
C18 C 0.52551 0.2145 0.92012 0.0
O19 O 0.50851 0.17293 0.90153 0.0
N20 N 0.42491 0.12017 1.06504 0.0
C21 C 0.35394 0.0358 0.08217 0.0
C22 C 0.37348 0.06279 0.14322 0.0
C23 C 0.40909 0.10527 0.13349 0.0
C24 C 0.40429 0.09534 1.00539 0.0
C25 C 0.36924 0.05287 1.01261 0.0
H26 H 0.42338 0.12547 0.18079 0.0
H27 H 0.41663 0.1082 0.95149 0.0
H28 H 0.47065 0.08319 1.01023 0.0
H29 H 0.5984 0.14659 0.09269 0.0
H30 H 0.37122 0.21973 0.92555 0.0
H31 H 0.36193 0.05085 0.1979 0.0
H32 H 0.35434 0.03351 0.96414 0.0
C33 C 0.36058 0.50156 0.15651 0.0
C34 C 0.40453 0.51505 0.15015 0.0
N35 N 0.40867 0.48067 0.12682 0.0
N36 N 0.33704 0.45872 0.13815 0.0
C37 C 0.36724 0.44732 0.11854 0.0
H38 H 0.34666 0.52128 0.1759 0.0
Co39 Co 0.27599 0.42244 0.14392 0.0
C40 C 0.29483 0.45968 0.30052 0.0
O41 O 0.33514 0.46746 0.30881 0.0
N42 N 0.2152 0.38662 0.15319 0.0
C43 C 0.15108 0.34273 0.20656 0.0
C44 C 0.1956 0.36189 0.21272 0.0
C45 C 0.18179 0.38176 0.11119 0.0
N46 N 0.14219 0.35523 0.14273 0.0
O47 O 0.26785 0.46783 0.10245 0.0
H48 H 0.21274 0.35917 0.25919 0.0
H49 H 0.18654 0.39801 1.05931 0.0
O50 O 0.27444 0.44335 0.24127 0.0
C51 C 0.27858 0.47169 1.03495 0.0
O52 O 0.29637 0.44895 1.00927 0.0
N53 N 0.28304 0.37555 0.17283 0.0
C54 C 0.30582 0.31016 0.15973 0.0
C55 C 0.31726 0.3371 0.22244 0.0
C56 C 0.30532 0.36987 0.22816 0.0
C57 C 0.26946 0.3479 0.11442 0.0
C58 C 0.28014 0.31506 0.10697 0.0
H59 H 0.3168 0.39227 0.27365 0.0
H60 H 0.25329 0.35389 1.06981 0.0
H61 H 0.35895 0.41486 0.09953 0.0
H62 H 0.4312 0.54718 0.16468 0.0
H63 H 0.12733 0.32276 0.24777 0.0
H64 H 0.33702 0.33438 0.26465 0.0
H65 H 0.27142 0.29633 1.0567 0.0
C66 C 0.84131 0.38624 0.98262 0.0
C67 C 0.87023 0.43059 0.99191 0.0
N68 N 0.91128 0.43679 0.99389 0.0
N69 N 0.86388 0.36434 0.97953 0.0
C70 C 0.90629 0.39622 0.98609 0.0
H71 H 0.80608 0.371 0.97804 0.0
Co72 Co 0.8429 0.30381 0.96207 0.0
C73 C 0.80154 0.30288 0.10939 0.0
O74 O 0.83054 0.34364 0.12591 0.0
N75 N 0.82308 0.24471 0.94391 0.0
C76 C 0.81155 0.18337 0.88865 0.0
C77 C 0.827 0.22768 0.87999 0.0
C78 C 0.80517 0.21034 0.99058 0.0
N79 N 0.79783 0.17263 0.95828 0.0
O80 O 0.79649 0.29986 0.90338 0.0
H81 H 0.84079 0.24647 0.83063 0.0
H82 H 0.79875 0.2129 1.04775 0.0
O83 O 0.80469 0.28642 1.04876 0.0
C84 C 0.80869 0.3151 0.83905 0.0
O85 O 0.85097 0.33872 0.8252 0.0
N86 N 0.89032 0.30672 1.01102 0.0
C87 C 0.97104 0.3188 1.05461 0.0
C88 C 0.93811 0.31089 0.10646 0.0
C89 C 0.89761 0.30481 0.08344 0.0
C90 C 0.92106 0.31174 0.96009 0.0
C91 C 0.96182 0.31838 0.98063 0.0
H92 H 0.87289 0.29904 0.12386 0.0
H93 H 0.91431 0.31243 0.90289 0.0
H94 H 0.93337 0.39001 0.98568 0.0
H95 H 0.86159 0.45619 0.99566 0.0
H96 H 0.81008 0.16071 0.84682 0.0
H97 H 0.944 0.31048 0.16419 0.0
H98 H 0.98601 0.32341 0.93895 0.0
C99 C 0.50501 0.86325 1.0456 0.0
C100 C 0.49265 0.89457 1.05433 0.0
N101 N 0.52741 0.93423 1.03838 0.0
N102 N 0.54764 0.88298 1.02551 0.0
C103 C 0.56001 0.92603 1.01996 0.0
H104 H 0.48448 0.82835 1.05501 0.0
Co105 Co 0.58115 0.85572 1.00701 0.0
C106 C 0.55292 0.83206 0.16613 0.0
O107 O 0.54613 0.86507 0.17965 0.0
N108 N 0.61404 0.82811 0.9882 0.0
C109 C 0.64725 0.79721 0.92877 0.0
C110 C 0.62518 0.82019 0.92151 0.0
C111 C 0.62961 0.80967 1.03516 0.0
N112 N 0.64981 0.79045 1.00036 0.0
O113 O 0.53153 0.80633 0.96392 0.0
H114 H 0.61684 0.82964 0.87079 0.0
H115 H 0.62599 0.80987 0.09379 0.0
O116 O 0.56618 0.82761 0.10305 0.0
C117 C 0.52474 0.81614 0.90024 0.0
O118 O 0.54669 0.85756 0.88013 0.0
N119 N 0.6318 0.90606 1.03821 0.0
C120 C 0.70041 0.99283 1.04053 0.0
C121 C 0.67721 0.97246 0.10499 0.0
C122 C 0.64304 0.92844 0.10291 0.0
C123 C 0.65541 0.92497 0.97644 0.0
C124 C 0.68992 0.96782 0.97649 0.0
H125 H 0.62436 0.91389 0.15183 0.0
H126 H 0.64506 0.90774 0.92502 0.0
H127 H 0.59224 0.95086 1.00186 0.0
H128 H 0.46068 0.88841 0.0725 0.0
H129 H 0.65883 0.78476 0.88463 0.0
H130 H 0.68431 0.99079 0.15559 0.0
H131 H 0.70594 0.98225 0.92506 0.0
C132 C 0.61977 0.45671 0.12442 0.0
C133 C 0.57584 0.4429 0.13439 0.0
N134 N 0.56819 0.47448 0.1092 0.0
N135 N 0.6398 0.49702 0.09391 0.0
C136 C 0.60732 0.50637 0.08405 0.0
H137 H 0.63624 0.43889 0.13975 0.0
Co138 Co 0.69912 0.53247 1.06885 0.0
C139 C 0.70296 0.51925 0.23265 0.0
O140 O 0.66513 0.51666 0.2483 0.0
N141 N 0.75773 0.56738 1.04368 0.0
C142 C 0.81941 0.60743 0.98071 0.0
C143 C 0.77445 0.58171 0.97631 0.0
C144 C 0.79283 0.58438 0.08786 0.0
N145 N 0.83041 0.60861 1.05096 0.0
O146 O 0.70229 0.48275 1.0327 0.0
H147 H 0.75516 0.57384 0.92728 0.0
H148 H 0.79142 0.57995 0.14625 0.0
O149 O 0.71686 0.52499 0.16665 0.0
C150 C 0.68585 0.47174 0.96902 0.0
O151 O 0.65663 0.48274 0.95012 0.0
N152 N 0.69693 0.58332 0.09231 0.0
C153 C 0.69236 0.66035 0.08358 0.0
C154 C 0.69759 0.64515 0.15146 0.0
C155 C 0.7006 0.60655 0.15461 0.0
C156 C 0.69198 0.59802 1.02663 0.0
C157 C 0.68959 0.63612 1.02098 0.0
H158 H 0.70621 0.59606 0.20639 0.0
H159 H 0.68909 0.57919 0.97791 0.0
H160 H 0.61209 0.53593 1.05813 0.0
H161 H 0.55181 0.4125 0.15985 0.0
H162 H 0.84226 0.62332 0.93603 0.0
H163 H 0.70006 0.66324 0.20101 0.0
H164 H 0.68476 0.6461 0.96773 0.0
C165 C 0.1423 0.63782 0.0838 0.0
C166 C 0.1119 0.59498 1.06671 0.0
N167 N 0.07443 0.5937 1.04713 0.0
N168 N 0.12407 0.66343 0.07513 0.0
C169 C 0.08294 0.63564 1.05175 0.0
H170 H 0.17536 0.64945 0.10245 0.0
Co171 Co 0.14928 0.72407 0.09307 0.0
C172 C 0.17505 0.7007 0.24232 0.0
O173 O 0.1471 0.65885 0.25325 0.0
N174 N 0.17434 0.78421 0.1145 0.0
C175 C 0.1924 0.84318 0.18318 0.0
C176 C 0.16733 0.79854 0.17922 0.0
C177 C 0.20431 0.82117 0.07996 0.0
N178 N 0.21579 0.85768 0.12088 0.0
O179 O 0.20186 0.73472 1.04226 0.0
H180 H 0.14647 0.77757 0.22259 0.0
H181 H 0.21811 0.82117 1.02687 0.0
O182 O 0.17269 0.71977 0.18521 0.0
C183 C 0.19347 0.72898 0.97415 0.0
O184 O 0.15333 0.7166 0.9532 0.0
N185 N 0.09642 0.71453 0.13259 0.0
C186 C 0.00816 0.68998 0.14059 0.0
C187 C 0.02651 0.67433 0.19216 0.0
C188 C 0.07116 0.68707 0.18713 0.0
C189 C 0.07979 0.7322 0.08566 0.0
C190 C 0.03603 0.72067 0.08888 0.0
H191 H 0.08422 0.67219 0.22272 0.0
H192 H 0.09998 0.75262 1.04121 0.0
H193 H 0.05947 0.64593 1.03867 0.0
H194 H 0.11661 0.5668 1.0706 0.0
H195 H 0.19479 0.86311 0.23018 0.0
H196 H 0.00617 0.65066 0.23316 0.0
H197 H 0.02367 0.73289 1.04664 0.0
C198 C 0.84994 0.47691 0.59067 0.0
C199 C 0.88058 0.46327 0.59163 0.0
N200 N 0.91985 0.49802 0.60879 0.0
N201 N 0.86977 0.5202 0.60634 0.0
C202 C 0.91212 0.53188 0.61771 0.0
H203 H 0.81522 0.45634 0.58091 0.0
Co204 Co 0.84402 0.55538 0.6226 0.0
C205 C 0.81761 0.52525 0.46449 0.0
O206 O 0.84873 0.51573 0.4506 0.0
N207 N 0.81865 0.59026 0.63996 0.0
C208 C 0.79401 0.62995 0.69692 0.0
C209 C 0.81243 0.60365 0.70594 0.0
C210 C 0.80367 0.60855 0.59171 0.0
N211 N 0.78847 0.63279 0.62504 0.0
O212 O 0.79412 0.50713 0.66893 0.0
H213 H 0.82087 0.59489 0.75724 0.0
H214 H 0.80439 0.60486 0.53317 0.0
O215 O 0.81493 0.53987 0.52735 0.0
C216 C 0.80345 0.50138 0.73363 0.0
O217 O 0.84473 0.5232 0.75346 0.0
N218 N 0.89465 0.60477 0.58797 0.0
C219 C 0.97905 0.67713 0.57693 0.0
C220 C 0.95769 0.65218 0.51469 0.0
C221 C 0.91493 0.616 0.52126 0.0
C222 C 0.9148 0.62926 0.64803 0.0
C223 C 0.95653 0.66548 0.64376 0.0
H224 H 0.89935 0.59648 0.47372 0.0
H225 H 0.89914 0.61898 0.70092 0.0
H226 H 0.93674 0.56462 0.63351 0.0
H227 H 0.87389 0.42997 0.58271 0.0
H228 H 0.78448 0.645 0.73989 0.0
H229 H 0.97415 0.66002 0.46208 0.0
H230 H 0.97193 0.68271 0.69365 0.0
C231 C 0.37416 0.85097 0.58678 0.0
C232 C 0.41782 0.88081 0.57437 0.0
N233 N 0.42342 0.92177 0.57801 0.0
N234 N 0.35194 0.87275 0.59784 0.0
C235 C 0.38297 0.91569 0.59291 0.0
H236 H 0.35954 0.81558 0.58736 0.0
Co237 Co 0.29164 0.84893 0.61981 0.0
C238 C 0.29099 0.81685 0.4653 0.0
O239 O 0.33054 0.84868 0.44843 0.0
N240 N 0.2323 0.82558 0.64232 0.0
C241 C 0.171 0.80645 0.7051 0.0
C242 C 0.21592 0.82602 0.709 0.0
C243 C 0.19681 0.80535 0.59881 0.0
N244 N 0.15913 0.79343 0.63574 0.0
O245 O 0.29005 0.80065 0.67006 0.0
H246 H 0.23546 0.83955 0.7574 0.0
H247 H 0.19829 0.79972 0.54103 0.0
O248 O 0.27483 0.81551 0.52862 0.0
C249 C 0.30617 0.81141 0.73395 0.0
O250 O 0.33216 0.85336 0.74799 0.0
N251 N 0.29237 0.89813 0.58102 0.0
C252 C 0.30377 0.98196 0.56347 0.0
C253 C 0.30122 0.95636 0.50218 0.0
C254 C 0.29479 0.91377 0.51215 0.0
C255 C 0.29387 0.92238 0.64034 0.0
C256 C 0.29923 0.96398 0.63293 0.0
H257 H 0.29321 0.89451 0.46504 0.0
H258 H 0.29306 0.90993 0.6944 0.0
H259 H 0.37594 0.94215 0.59961 0.0
H260 H 0.44327 0.87259 0.56395 0.0
H261 H 0.14868 0.80116 0.75012 0.0
H262 H 0.30479 0.96936 0.44761 0.0
H263 H 0.30217 0.98283 0.68178 0.0
C264 C 0.53006 0.37529 0.53628 0.0
C265 C 0.54313 0.41883 0.52395 0.0
N266 N 0.51005 0.42578 0.54421 0.0
N267 N 0.48875 0.35482 0.56345 0.0
C268 C 0.47795 0.38669 0.56889 0.0
H269 H 0.54909 0.35934 0.52469 0.0
Co270 Co 0.45407 0.29557 0.589 0.0
C271 C 0.47075 0.29279 0.42689 0.0
O272 O 0.47221 0.33028 0.41362 0.0
N273 N 0.41993 0.23698 0.61493 0.0
C274 C 0.38145 0.1773 0.6822 0.0
C275 C 0.4083 0.22218 0.68375 0.0
C276 C 0.40026 0.20067 0.57243 0.0
N277 N 0.37657 0.16399 0.61213 0.0
O278 O 0.50434 0.29427 0.62476 0.0
H279 H 0.41862 0.2428 0.73188 0.0
H280 H 0.40255 0.20092 0.51354 0.0
O281 O 0.46303 0.27726 0.49165 0.0
C282 C 0.5155 0.3128 0.68722 0.0
O283 O 0.49907 0.33755 0.70879 0.0
N284 N 0.40288 0.29662 0.56593 0.0
C285 C 0.32788 0.30472 0.57623 0.0
C286 C 0.34374 0.3001 0.50767 0.0
C287 C 0.38128 0.29526 0.50367 0.0
C288 C 0.38742 0.30084 0.63222 0.0
C289 C 0.35016 0.30467 0.63867 0.0
H290 H 0.39273 0.29087 0.45119 0.0
H291 H 0.40528 0.30261 0.68086 0.0
H292 H 0.44724 0.38158 0.59137 0.0
H293 H 0.57418 0.44307 0.50046 0.0
H294 H 0.36737 0.15595 0.72896 0.0
H295 H 0.32723 0.29999 0.45817 0.0
H296 H 0.33967 0.30901 0.69243 0.0
C297 C 0.15179 0.51932 0.6627 0.0
C298 C 0.12289 0.53473 0.65346 0.0
N299 N 0.08221 0.49987 0.64795 0.0
N300 N 0.12945 0.47489 0.66284 0.0
C301 C 0.0871 0.4643 0.65459 0.0
H302 H 0.18695 0.53931 0.6683 0.0
Co303 Co 0.15167 0.43619 0.67628 0.0
C304 C 0.1927 0.47955 0.5315 0.0
O305 O 0.16445 0.49273 0.51775 0.0
N306 N 0.17338 0.39789 0.68975 0.0
C307 C 0.19379 0.35395 0.74132 0.0
C308 C 0.17404 0.37903 0.753 0.0
C309 C 0.19247 0.38356 0.64032 0.0
N310 N 0.20553 0.35699 0.67033 0.0
O311 O 0.1975 0.47849 0.73591 0.0
H312 H 0.16168 0.38392 0.80451 0.0
H313 H 0.19677 0.39232 0.58323 0.0
O314 O 0.18904 0.45844 0.58988 0.0
C315 C 0.18442 0.48162 0.7998 0.0
O316 O 0.14198 0.46201 0.81281 0.0
N317 N 0.10473 0.3921 0.62606 0.0
C318 C 0.02176 0.32933 0.58085 0.0
C319 C 0.05444 0.35482 0.52942 0.0
C320 C 0.0961 0.3863 0.55326 0.0
C321 C 0.07443 0.36511 0.676 0.0
C322 C 0.03251 0.33376 0.65469 0.0
H323 H 0.12027 0.40654 0.51332 0.0
H324 H 0.08215 0.37012 0.73342 0.0
H325 H 0.05984 0.43112 0.65484 0.0
H326 H 0.13125 0.56883 0.65003 0.0
H327 H 0.20042 0.33617 0.78254 0.0
H328 H 0.04727 0.35186 0.47172 0.0
H329 H 0.00836 0.31408 0.69577 0.0
C330 C 0.62542 0.15418 0.4879 0.0
C331 C 0.58207 0.12372 0.50167 0.0
N332 N 0.5799 0.08597 0.52291 0.0
N333 N 0.65044 0.13569 0.50037 0.0
C334 C 0.62175 0.09433 0.52244 0.0
H335 H 0.63786 0.1875 0.4691 0.0
Co336 Co 0.7115 0.1611 0.48917 0.0
C337 C 0.69102 0.18162 0.33418 0.0
O338 O 0.65092 0.14945 0.32289 0.0
N339 N 0.77197 0.18615 0.47474 0.0
C340 C 0.83439 0.20453 0.41625 0.0
C341 C 0.7898 0.18335 0.41065 0.0
C342 C 0.80655 0.20909 0.51891 0.0
N343 N 0.84513 0.22064 0.4844 0.0
O344 O 0.72053 0.21438 0.53522 0.0
H345 H 0.77145 0.16682 0.3624 0.0
H346 H 0.80338 0.21671 0.57519 0.0
O347 O 0.71036 0.18382 0.39366 0.0
C348 C 0.71255 0.20739 0.60352 0.0
O349 O 0.69606 0.16693 0.62746 0.0
N350 N 0.70437 0.10781 0.45585 0.0
C351 C 0.69011 0.02225 0.4572 0.0
C352 C 0.67541 0.03718 0.39849 0.0
C353 C 0.68306 0.08063 0.39871 0.0
C354 C 0.71968 0.094 0.51156 0.0
C355 C 0.71326 0.05186 0.51315 0.0
H356 H 0.66994 0.09132 0.35572 0.0
H357 H 0.73486 0.11541 0.55781 0.0
H358 H 0.63133 0.07065 0.53813 0.0
H359 H 0.55426 0.12864 0.49471 0.0
H360 H 0.8571 0.2084 0.37268 0.0
H361 H 0.65704 0.0152 0.35444 0.0
H362 H 0.7239 0.04189 0.5609 0.0
C363 C 0.48225 0.63443 0.51832 0.0
C364 C 0.46944 0.59052 0.51168 0.0
N365 N 0.50286 0.58488 0.5332 0.0
N366 N 0.52374 0.65641 0.54306 0.0
C367 C 0.53493 0.62518 0.55293 0.0
H368 H 0.46288 0.64953 0.50471 0.0
Co369 Co 0.55816 0.71663 0.56132 0.0
C370 C 0.53779 0.71434 0.39911 0.0
O371 O 0.53157 0.67483 0.38511 0.0
N372 N 0.59218 0.7767 0.57877 0.0
C373 C 0.62736 0.84211 0.63272 0.0
C374 C 0.60391 0.79729 0.64394 0.0
C375 C 0.60884 0.8094 0.52905 0.0
N376 N 0.62997 0.84922 0.5604 0.0
O377 O 0.50862 0.71903 0.60042 0.0
H378 H 0.59512 0.78078 0.69612 0.0
H379 H 0.60568 0.80466 0.47069 0.0
O380 O 0.5473 0.73023 0.46348 0.0
C381 C 0.49878 0.70248 0.66443 0.0
O382 O 0.51263 0.67542 0.68351 0.0
N383 N 0.60875 0.71505 0.53484 0.0
C384 C 0.68107 0.70255 0.53885 0.0
C385 C 0.6614 0.70165 0.47197 0.0
C386 C 0.6252 0.70855 0.47096 0.0
C387 C 0.62831 0.71706 0.59937 0.0
C388 C 0.66439 0.71119 0.60264 0.0
H389 H 0.60999 0.70714 0.41973 0.0
H390 H 0.6141 0.72093 0.6496 0.0
H391 H 0.56591 0.63176 0.5752 0.0
H392 H 0.43827 0.56505 0.49126 0.0
H393 H 0.64001 0.86747 0.67423 0.0
H394 H 0.67334 0.69493 0.42148 0.0
H395 H 0.67751 0.711 0.65567 0.0
C396 C 0.57176 0.05665 1.04736 0.0
C397 C 0.53294 0.05896 1.04846 0.0
H398 H 0.60067 0.01553 1.04443 0.0
C399 C 0.4925 0.01946 1.047 0.0
H400 H 0.60348 0.08624 1.04834 0.0
C401 C 0.49083 0.97896 1.04305 0.0
C402 C 0.5295 0.97646 1.04158 0.0
H403 H 0.46173 0.01946 1.04957 0.0
H404 H 0.45897 0.94964 1.04069 0.0
C405 C 0.57007 0.0159 1.04418 0.0
C406 C 0.48705 0.43677 0.11921 0.0
C407 C 0.52764 0.47561 0.11164 0.0
H408 H 0.41762 0.40777 0.13077 0.0
C409 C 0.52809 0.51593 0.10749 0.0
H410 H 0.48528 0.40511 0.12207 0.0
C411 C 0.48916 0.51742 0.11093 0.0
C412 C 0.44864 0.47872 0.11939 0.0
H413 H 0.55854 0.54672 0.10291 0.0
H414 H 0.49099 0.54907 0.10715 0.0
C415 C 0.44805 0.4383 0.1232 0.0
C416 C 0.99308 0.55311 1.04793 0.0
C417 C 0.03315 0.55521 1.02991 0.0
H418 H 0.92306 0.51384 1.05181 0.0
C419 C 0.03228 0.51856 0.9968 0.0
H420 H 0.99265 0.58069 0.07413 0.0
C421 C 0.99245 0.4804 0.98326 0.0
C422 C 0.95223 0.47753 1.0034 0.0
H423 H 0.06252 0.51943 0.98108 0.0
H424 H 0.99347 0.45321 0.95691 0.0
C425 C 0.95311 0.5147 1.03506 0.0
C426 C 0.00681 0.46508 0.59991 0.0
C427 C 0.04164 0.4999 0.63713 0.0
H428 H 0.9415 0.4375 0.56039 0.0
C429 C 0.03592 0.53428 0.6644 0.0
H430 H 0.0104 0.43841 0.57721 0.0
C431 C 0.99612 0.53362 0.65543 0.0
C432 C 0.96107 0.49873 0.61821 0.0
H433 H 0.06192 0.56126 0.6941 0.0
H434 H 0.99291 0.56028 0.67889 0.0
C435 C 0.96715 0.46456 0.59034 0.0
C436 C 0.50354 0.04366 0.56879 0.0
C437 C 0.54099 0.04465 0.53891 0.0
H438 H 0.43779 0.00476 0.6067 0.0
C439 C 0.5396 0.0046 0.52369 0.0
H440 H 0.5038 0.07395 0.58204 0.0
C441 C 0.50139 0.9645 0.53692 0.0
C442 C 0.46354 0.96328 0.56639 0.0
H443 H 0.56774 0.00422 0.49975 0.0
H444 H 0.50158 0.93462 0.52265 0.0
C445 C 0.46548 0.00362 0.5828 0.0
C446 C 0.46778 0.46488 0.53825 0.0
C447 C 0.50837 0.46597 0.53962 0.0
H448 H 0.43414 0.50151 0.53636 0.0
C449 C 0.54709 0.50689 0.53694 0.0
H450 H 0.4372 0.43402 0.53861 0.0
C451 C 0.54527 0.54574 0.53406 0.0
C452 C 0.50466 0.54467 0.53429 0.0
H453 H 0.57888 0.50906 0.53806 0.0
H454 H 0.57584 0.57655 0.53128 0.0
C455 C 0.46596 0.50371 0.53591 0.0
C456 C 0.28201 0.98043 0.13631 0.0
C457 C 0.31775 0.99001 0.09029 0.0
H458 H 0.22063 0.93117 0.17945 0.0
C459 C 0.31847 0.95567 1.0511 0.0
H460 H 0.28025 0.0064 0.16596 0.0
C461 C 0.28449 0.9123 1.05932 0.0
C462 C 0.24903 0.90253 0.1066 0.0
H463 H 0.34587 0.96227 1.01537 0.0
H464 H 0.28671 0.88643 1.03038 0.0
C465 C 0.24788 0.93727 0.14391 0.0
C466 C 0.32262 0.22321 1.06574 0.0
C467 C 0.36744 0.23963 0.07624 0.0
H468 H 0.26686 0.23041 0.08924 0.0
C469 C 0.39041 0.2752 0.12398 0.0
H470 H 0.30425 0.19511 1.03051 0.0
C471 C 0.36956 0.29641 0.15609 0.0
C472 C 0.3251 0.2817 0.14212 0.0
H473 H 0.42507 0.28802 0.13309 0.0
H474 H 0.38902 0.32588 0.18786 0.0
C475 C 0.30142 0.24346 0.09954 0.0
C476 C 0.05287 0.36333 1.04607 0.0
C477 C 0.01508 0.32794 0.07685 0.0
H478 H 0.12287 0.40021 1.04329 0.0
C479 C 0.01968 0.30096 0.12771 0.0
H480 H 0.05016 0.38484 1.00698 0.0
C481 C 0.0613 0.30925 0.14764 0.0
C482 C 0.09934 0.34517 0.11805 0.0
H483 H 0.99105 0.27305 0.1513 0.0
H484 H 0.06347 0.28726 0.18617 0.0
C485 C 0.09456 0.37198 1.06662 0.0
C486 C 0.74298 0.11532 1.04009 0.0
C487 C 0.77821 0.12952 0.99031 0.0
H488 H 0.69046 0.06036 0.0957 0.0
C489 C 0.79208 0.09994 0.96818 0.0
H490 H 0.7317 0.13756 1.05809 0.0
C491 C 0.76927 0.05622 0.99093 0.0
C492 C 0.73152 0.04085 1.03526 0.0
H493 H 0.81975 0.11033 0.93121 0.0
H494 H 0.77962 0.03373 0.9702 0.0
C495 C 0.71963 0.07124 1.06214 0.0
C496 C 0.64495 0.73646 0.09192 0.0
C497 C 0.66603 0.76367 1.03139 0.0
H498 H 0.63711 0.68212 0.15672 0.0
C499 C 0.70075 0.76131 0.9972 0.0
H500 H 0.61801 0.73752 0.11932 0.0
C501 C 0.71193 0.73016 1.01907 0.0
C502 C 0.68837 0.70031 0.07525 0.0
H503 H 0.71814 0.78246 0.95151 0.0
H504 H 0.73743 0.7277 0.98914 0.0
C505 C 0.65599 0.7049 0.11361 0.0
C506 C 0.89977 0.67522 0.07754 0.0
C507 C 0.87339 0.62957 0.08102 0.0
H508 H 0.9624 0.73085 0.0995 0.0
C509 C 0.8892 0.6044 0.11423 0.0
H510 H 0.88739 0.69501 1.05359 0.0
C511 C 0.93238 0.62442 0.13874 0.0
C512 C 0.96001 0.67013 0.13172 0.0
H513 H 0.86872 0.56903 0.11784 0.0
H514 H 0.94469 0.60373 0.15899 0.0
C515 C 0.94247 0.69547 0.10395 0.0
C516 C 0.08277 0.77799 0.63624 0.0
C517 C 0.11502 0.76911 0.60887 0.0
H518 H 0.01443 0.75703 0.64419 0.0
C519 C 0.10275 0.73386 0.55994 0.0
H520 H 0.09154 0.8055 0.67277 0.0
C521 C 0.05838 0.70562 0.54406 0.0
C522 C 0.02578 0.71256 0.57636 0.0
H523 H 0.1271 0.72641 0.53802 0.0
H524 H 0.04948 0.6767 0.51096 0.0
C525 C 0.03872 0.75032 0.61958 0.0
C526 C 0.37207 0.10414 0.53406 0.0
C527 C 0.3532 0.11937 0.58654 0.0
H528 H 0.37069 0.04765 0.48484 0.0
C529 C 0.31318 0.08946 0.61935 0.0
H530 H 0.40296 0.12677 0.50802 0.0
C531 C 0.29422 0.04462 0.60484 0.0
C532 C 0.31547 0.02873 0.55849 0.0
H533 H 0.29769 0.10066 0.65888 0.0
H534 H 0.26459 0.02203 0.6342 0.0
C535 C 0.35344 0.05898 0.52037 0.0
C536 C 0.22845 0.30089 0.66348 0.0
C537 C 0.23074 0.33927 0.63613 0.0
H538 H 0.25658 0.25897 0.66367 0.0
C539 C 0.2606 0.36179 0.57887 0.0
H540 H 0.20521 0.28226 0.70628 0.0
C541 C 0.28996 0.3482 0.55396 0.0
C542 C 0.28982 0.31183 0.58576 0.0
H543 H 0.26329 0.39152 0.5566 0.0
H544 H 0.3148 0.36799 0.51386 0.0
C545 C 0.25756 0.2873 0.63852 0.0
C546 C 0.94132 0.3016 0.59407 0.0
C547 C 0.97607 0.29984 0.55831 0.0
H548 H 0.87231 0.27816 0.59806 0.0
C549 C 0.96697 0.2704 0.50037 0.0
H550 H 0.94766 0.32444 0.63862 0.0
C551 C 0.9239 0.2435 0.47787 0.0
C552 C 0.88902 0.246 0.51201 0.0
H553 H 0.99317 0.26804 0.47269 0.0
H554 H 0.91809 0.22082 0.43346 0.0
C555 C 0.89818 0.27502 0.57101 0.0
C556 C 0.70611 0.96459 0.50312 0.0
C557 C 0.67737 0.97533 0.46739 0.0
H558 H 0.71265 0.91597 0.56349 0.0
C559 C 0.63408 0.94182 0.45462 0.0
H560 H 0.73999 0.9893 0.51222 0.0
C561 C 0.61909 0.89956 0.48223 0.0
C562 C 0.64686 0.89056 0.52412 0.0
H563 H 0.61097 0.94889 0.42792 0.0
H564 H 0.58512 0.8746 0.47483 0.0
C565 C 0.69071 0.92286 0.53259 0.0
C566 C 0.71087 0.65175 0.51356 0.0
C567 C 0.71583 0.69048 0.54581 0.0
H568 H 0.73069 0.6028 0.51404 0.0
C569 C 0.74976 0.71311 0.59616 0.0
H570 H 0.68482 0.63339 0.4751 0.0
C571 C 0.77502 0.69509 0.61961 0.0
C572 C 0.76765 0.65462 0.59196 0.0
H573 H 0.75488 0.74344 0.62101 0.0
H574 H 0.79921 0.71189 0.66153 0.0
C575 C 0.73684 0.63407 0.53622 0.0
C576 C 0.48295 0.28319 0.29404 0.0
C577 C 0.47896 0.26893 0.36667 0.0
H578 H 0.49263 0.2722 0.1819 0.0
C579 C 0.48337 0.23195 0.38108 0.0
H580 H 0.47988 0.3116 0.28079 0.0
C581 C 0.49108 0.20954 0.32425 0.0
C582 C 0.49415 0.22327 0.25147 0.0
H583 H 0.48071 0.22013 0.43633 0.0
H584 H 0.49355 0.18078 0.33731 0.0
C585 C 0.49034 0.2606 0.23721 0.0
C586 C 0.23676 0.47612 0.34378 0.0
C587 C 0.27186 0.46918 0.36007 0.0
H588 H 0.18503 0.48599 0.38499 0.0
C589 C 0.28305 0.46934 0.43335 0.0
H590 H 0.22751 0.47643 0.28776 0.0
C591 C 0.25823 0.47425 0.48929 0.0
C592 C 0.22236 0.47999 0.47291 0.0
H593 H 0.30985 0.46395 0.44754 0.0
H594 H 0.26654 0.47261 0.54542 0.0
C595 C 0.21259 0.48192 0.39951 0.0
C596 C 0.73385 0.23273 0.14747 0.0
C597 C 0.77031 0.2735 0.16617 0.0
H598 H 0.6795 0.17203 0.18576 0.0
C599 C 0.77847 0.28466 0.24035 0.0
H600 H 0.72667 0.22311 0.09081 0.0
C601 C 0.75204 0.25514 0.2945 0.0
C602 C 0.71614 0.21405 0.27599 0.0
H603 H 0.80634 0.31559 0.25683 0.0
H604 H 0.76015 0.2643 0.35113 0.0
C605 C 0.70674 0.20352 0.20182 0.0
C606 C 0.54711 0.76148 0.20971 0.0
C607 C 0.54692 0.80079 0.22523 0.0
H608 H 0.54389 0.70314 0.25213 0.0
C609 C 0.54165 0.81028 0.29808 0.0
H610 H 0.55076 0.75297 0.15415 0.0
C611 C 0.53775 0.78174 0.35421 0.0
C612 C 0.53872 0.74283 0.33888 0.0
H613 H 0.54132 0.8402 0.31209 0.0
H614 H 0.53431 0.7904 0.40979 0.0
C615 C 0.54287 0.73274 0.26586 0.0
C616 C 0.74994 0.52569 0.42143 0.0
C617 C 0.78727 0.52195 0.40551 0.0
H618 H 0.69401 0.52737 0.37998 0.0
C619 C 0.79587 0.5161 0.33232 0.0
H620 H 0.74213 0.53007 0.47712 0.0
C621 C 0.76838 0.51484 0.27645 0.0
C622 C 0.73125 0.51894 0.2923 0.0
H623 H 0.82432 0.5132 0.31786 0.0
H624 H 0.77634 0.51075 0.22072 0.0
C625 C 0.72219 0.52398 0.36563 0.0
C626 C 0.19803 0.71657 0.3736 0.0
C627 C 0.2066 0.72796 0.29951 0.0
H628 H 0.21764 0.73607 0.48432 0.0
C629 C 0.24426 0.76771 0.28047 0.0
H630 H 0.16907 0.68639 0.39005 0.0
C631 C 0.27241 0.79574 0.33418 0.0
C632 C 0.26308 0.78521 0.40842 0.0
H633 H 0.25174 0.77748 0.22384 0.0
H634 H 0.30072 0.82639 0.31751 0.0
C635 C 0.22572 0.74514 0.42756 0.0
C636 C 0.48508 0.71023 0.79622 0.0
C637 C 0.48898 0.72531 0.72397 0.0
H638 H 0.49327 0.72726 0.90968 0.0
C639 C 0.49379 0.76701 0.7124 0.0
H640 H 0.48059 0.67792 0.80714 0.0
C641 C 0.50067 0.79514 0.77146 0.0
C642 C 0.50305 0.78218 0.84302 0.0
H643 H 0.49654 0.77957 0.65767 0.0
H644 H 0.50795 0.8284 0.7602 0.0
C645 C 0.4923 0.7385 0.85526 0.0
C646 C 0.72555 0.46891 0.77825 0.0
C647 C 0.76921 0.48034 0.79123 0.0
H648 H 0.66407 0.45547 0.82506 0.0
C649 C 0.78167 0.47849 0.86331 0.0
H650 H 0.71472 0.46954 0.72348 0.0
C651 C 0.75278 0.47078 0.92182 0.0
C652 C 0.71072 0.46457 0.9094 0.0
H653 H 0.81491 0.48637 0.87528 0.0
H654 H 0.76477 0.4735 0.97681 0.0
C655 C 0.69652 0.46087 0.83676 0.0
C656 C 0.24324 0.74349 0.78691 0.0
C657 C 0.28395 0.78168 0.79651 0.0
H658 H 0.18274 0.69648 0.83684 0.0
C659 C 0.29838 0.79621 0.86814 0.0
H660 H 0.23113 0.73121 0.73279 0.0
C661 C 0.27048 0.77622 0.92812 0.0
C662 C 0.22776 0.74147 0.9172 0.0
H663 H 0.32981 0.82535 0.87751 0.0
H664 H 0.2809 0.7905 0.98184 0.0
C665 C 0.21537 0.72374 0.84667 0.0
C666 C 0.53972 0.23445 0.78824 0.0
C667 C 0.5385 0.24732 0.86089 0.0
H668 H 0.5338 0.24541 0.67529 0.0
C669 C 0.54072 0.2879 0.87373 0.0
H670 H 0.53883 0.20369 0.77632 0.0
C671 C 0.5384 0.31213 0.81545 0.0
C672 C 0.5334 0.29602 0.74344 0.0
H673 H 0.5403 0.29905 0.92885 0.0
H674 H 0.53658 0.34148 0.82766 0.0
C675 C 0.53699 0.25846 0.73003 0.0
C676 C 0.22173 0.48937 0.99333 0.0
C677 C 0.26203 0.49103 0.98156 0.0
H678 H 0.16529 0.48577 0.94377 0.0
C679 C 0.2811 0.50098 0.9114 0.0
H680 H 0.20634 0.48192 1.04685 0.0
C681 C 0.25763 0.50301 0.8522 0.0
C682 C 0.21463 0.49499 0.86233 0.0
H683 H 0.31253 0.50307 0.90106 0.0
H684 H 0.2716 0.50665 0.79796 0.0
C685 C 0.19811 0.49128 0.93398 0.0
C686 C 0.73578 0.26039 0.78805 0.0
C687 C 0.7781 0.29619 0.77698 0.0
H688 H 0.68114 0.20451 0.74021 0.0
C689 C 0.79374 0.3083 0.70486 0.0
H690 H 0.72251 0.25037 0.84262 0.0
C691 C 0.76985 0.28197 0.64586 0.0
C692 C 0.73002 0.24315 0.65824 0.0
H693 H 0.82606 0.33606 0.69429 0.0
H694 H 0.78457 0.28971 0.59185 0.0
C695 C 0.71205 0.23409 0.72923 0.0
loop_
_geom_bond_atom_site_label_1
_geom_bond_atom_site_label_2
_geom_bond_distance
_geom_bond_site_symmetry_2
_ccdc_geom_bond_type
C0 C1 1.351 . S
C0 N3 1.368 . S
C0 H5 0.931 . S
C1 C0 1.351 . S
C1 N2 1.373 1_556 S
C1 H29 0.930 . S
N2 C1 1.373 1_554 S
N2 C4 1.340 . S
N3 C0 1.368 . S
N3 C4 1.321 1_556 S
N3 Co6 2.135 . S
C4 N2 1.340 . S
C4 N3 1.321 1_554 S
C4 H28 0.930 . S
H5 C0 0.931 . S
Co6 N3 2.135 . S
Co6 N9 2.121 1_556 S
Co6 O14 2.055 . S
Co6 O17 2.039 1_556 S
Co6 N20 2.140 1_556 S
C7 O8 1.227 . S
C7 O17 1.265 . S
O8 C7 1.227 . S
N9 Co6 2.121 1_554 S
N9 C11 1.375 . S
N9 C12 1.313 1_554 S
C10 C11 1.338 . S
C10 N13 1.377 1_554 S
C10 H30 0.930 . S
C11 N9 1.375 . S
C11 C10 1.338 . S
C11 H15 0.931 . S
C12 N9 1.313 1_556 S
C12 N13 1.344 . S
C12 H16 0.930 . S
N13 C10 1.377 1_556 S
N13 C12 1.344 . S
O14 Co6 2.055 . S
O14 C18 1.253 . S
H15 C11 0.931 . S
H16 C12 0.930 . S
O17 Co6 2.039 1_554 S
O17 C7 1.265 . S
C18 O14 1.253 . S
C18 O19 1.227 . S
O19 C18 1.227 . S
N20 Co6 2.140 1_554 S
N20 C23 1.346 . S
N20 C24 1.345 1_554 S
C21 C22 1.387 . S
C21 C25 1.391 1_554 S
C22 C21 1.387 . S
C22 C23 1.369 . S
C22 H31 0.929 1_545 S
C23 N20 1.346 . S
C23 C22 1.369 . S
C23 H26 0.928 . S
C24 N20 1.345 1_556 S
C24 C25 1.371 . S
C24 H27 0.931 . S
C25 C21 1.391 1_556 S
C25 C24 1.371 . S
C25 H32 0.930 . S
H26 C23 0.928 . S
H27 C24 0.931 . S
H28 C4 0.930 . S
H29 C1 0.930 . S
H30 C10 0.930 . S
H31 C22 0.929 1_565 S
H32 C25 0.930 . S
C33 C34 1.351 . S
C33 N36 1.368 . S
C33 H38 0.931 . S
C34 C33 1.351 . S
C34 N35 1.373 1_556 S
C34 H62 0.930 . S
N35 C34 1.373 1_554 S
N35 C37 1.340 . S
N36 C33 1.368 . S
N36 C37 1.321 1_556 S
N36 Co39 2.135 . S
C37 N35 1.340 . S
C37 N36 1.321 1_554 S
C37 H61 0.930 . S
H38 C33 0.931 . S
Co39 N36 2.135 . S
Co39 N42 2.121 1_556 S
Co39 O47 2.055 . S
Co39 O50 2.039 1_556 S
Co39 N53 2.140 1_556 S
C40 O41 1.227 . S
C40 O50 1.265 . S
O41 C40 1.227 . S
N42 Co39 2.121 1_554 S
N42 C44 1.375 . S
N42 C45 1.313 1_554 S
C43 C44 1.338 . S
C43 N46 1.377 1_554 S
C43 H63 0.930 . S
C44 N42 1.375 . S
C44 C43 1.338 . S
C44 H48 0.931 . S
C45 N42 1.313 1_556 S
C45 N46 1.344 . S
C45 H49 0.930 . S
N46 C43 1.377 1_556 S
N46 C45 1.344 . S
O47 Co39 2.055 . S
O47 C51 1.253 . S
H48 C44 0.931 . S
H49 C45 0.930 . S
O50 Co39 2.039 1_554 S
O50 C40 1.265 . S
C51 O47 1.253 . S
C51 O52 1.227 . S
O52 C51 1.227 . S
N53 Co39 2.140 1_554 S
N53 C56 1.346 . S
N53 C57 1.345 1_554 S
C54 C55 1.387 . S
C54 C58 1.391 1_554 S
C55 C54 1.387 . S
C55 C56 1.369 . S
C55 H64 0.929 . S
C56 N53 1.346 . S
C56 C55 1.369 . S
C56 H59 0.928 . S
C57 N53 1.345 1_556 S
C57 C58 1.371 . S
C57 H60 0.931 . S
C58 C54 1.391 1_556 S
C58 C57 1.371 . S
C58 H65 0.930 . S
H59 C56 0.928 . S
H60 C57 0.931 . S
H61 C37 0.930 . S
H62 C34 0.930 . S
H63 C43 0.930 . S
H64 C55 0.929 . S
H65 C58 0.930 . S
C66 C67 1.351 . S
C66 N69 1.368 . S
C66 H71 0.931 . S
C67 C66 1.351 . S
C67 N68 1.373 1_556 S
C67 H95 0.930 . S
N68 C67 1.373 1_554 S
N68 C70 1.340 . S
N69 C66 1.368 . S
N69 C70 1.321 1_556 S
N69 Co72 2.135 . S
C70 N68 1.340 . S
C70 N69 1.321 1_554 S
C70 H94 0.930 . S
H71 C66 0.931 . S
Co72 N69 2.135 . S
Co72 N75 2.121 1_556 S
Co72 O80 2.055 . S
Co72 O83 2.039 1_556 S
Co72 N86 2.140 1_556 S
C73 O74 1.227 . S
C73 O83 1.265 . S
O74 C73 1.227 . S
N75 Co72 2.121 1_554 S
N75 C77 1.375 . S
N75 C78 1.313 1_554 S
C76 C77 1.338 . S
C76 N79 1.377 1_554 S
C76 H96 0.930 . S
C77 N75 1.375 . S
C77 C76 1.338 . S
C77 H81 0.931 . S
C78 N75 1.313 1_556 S
C78 N79 1.344 . S
C78 H82 0.930 . S
N79 C76 1.377 1_556 S
N79 C78 1.344 . S
O80 Co72 2.055 . S
O80 C84 1.253 . S
H81 C77 0.931 . S
H82 C78 0.930 . S
O83 Co72 2.039 1_554 S
O83 C73 1.265 . S
C84 O80 1.253 . S
C84 O85 1.227 . S
O85 C84 1.227 . S
N86 Co72 2.140 1_554 S
N86 C89 1.346 . S
N86 C90 1.345 1_554 S
C87 C88 1.387 . S
C87 C91 1.391 1_554 S
C88 C87 1.387 . S
C88 C89 1.369 . S
C88 H97 0.929 1_655 S
C89 N86 1.346 . S
C89 C88 1.369 . S
C89 H92 0.928 . S
C90 N86 1.345 1_556 S
C90 C91 1.371 . S
C90 H93 0.931 . S
C91 C87 1.391 1_556 S
C91 C90 1.371 . S
C91 H98 0.930 . S
H92 C89 0.928 . S
H93 C90 0.931 . S
H94 C70 0.930 . S
H95 C67 0.930 . S
H96 C76 0.930 . S
H97 C88 0.929 1_455 S
H98 C91 0.930 . S
C99 C100 1.351 . S
C99 N102 1.368 . S
C99 H104 0.931 . S
C100 C99 1.351 . S
C100 N101 1.373 1_556 S
C100 H128 0.930 . S
N101 C100 1.373 1_554 S
N101 C103 1.340 . S
N102 C99 1.368 . S
N102 C103 1.321 1_556 S
N102 Co105 2.135 . S
C103 N101 1.340 . S
C103 N102 1.321 1_554 S
C103 H127 0.930 . S
H104 C99 0.931 . S
Co105 N102 2.135 . S
Co105 N108 2.121 1_556 S
Co105 O113 2.055 . S
Co105 O116 2.039 1_556 S
Co105 N119 2.140 1_556 S
C106 O107 1.227 . S
C106 O116 1.265 . S
O107 C106 1.227 . S
N108 Co105 2.121 1_554 S
N108 C110 1.375 . S
N108 C111 1.313 1_554 S
C109 C110 1.338 . S
C109 N112 1.377 1_554 S
C109 H129 0.930 . S
C110 N108 1.375 . S
C110 C109 1.338 . S
C110 H114 0.931 . S
C111 N108 1.313 1_556 S
C111 N112 1.344 . S
C111 H115 0.930 . S
N112 C109 1.377 1_556 S
N112 C111 1.344 . S
O113 Co105 2.055 . S
O113 C117 1.253 . S
H114 C110 0.931 . S
H115 C111 0.930 . S
O116 Co105 2.039 1_554 S
O116 C106 1.265 . S
C117 O113 1.253 . S
C117 O118 1.227 . S
O118 C117 1.227 . S
N119 Co105 2.140 1_554 S
N119 C122 1.346 . S
N119 C123 1.345 1_554 S
C120 C121 1.387 . S
C120 C124 1.391 1_554 S
C121 C120 1.387 . S
C121 C122 1.369 . S
C121 H130 0.929 1_565 S
C122 N119 1.346 . S
C122 C121 1.369 . S
C122 H125 0.928 . S
C123 N119 1.345 1_556 S
C123 C124 1.371 . S
C123 H126 0.931 . S
C124 C120 1.391 1_556 S
C124 C123 1.371 . S
C124 H131 0.930 . S
H125 C122 0.928 . S
H126 C123 0.931 . S
H127 C103 0.930 . S
H128 C100 0.930 . S
H129 C109 0.930 . S
H130 C121 0.929 1_545 S
H131 C124 0.930 . S
C132 C133 1.351 . S
C132 N135 1.368 . S
C132 H137 0.931 . S
C133 C132 1.351 . S
C133 N134 1.373 1_556 S
C133 H161 0.930 . S
N134 C133 1.373 1_554 S
N134 C136 1.340 . S
N135 C132 1.368 . S
N135 C136 1.321 1_556 S
N135 Co138 2.135 . S
C136 N134 1.340 . S
C136 N135 1.321 1_554 S
C136 H160 0.930 . S
H137 C132 0.931 . S
Co138 N135 2.135 . S
Co138 N141 2.121 1_556 S
Co138 O146 2.055 . S
Co138 O149 2.039 1_556 S
Co138 N152 2.140 1_556 S
C139 O140 1.227 . S
C139 O149 1.265 . S
O140 C139 1.227 . S
N141 Co138 2.121 1_554 S
N141 C143 1.375 . S
N141 C144 1.313 1_554 S
C142 C143 1.338 . S
C142 N145 1.377 1_554 S
C142 H162 0.930 . S
C143 N141 1.375 . S
C143 C142 1.338 . S
C143 H147 0.931 . S
C144 N141 1.313 1_556 S
C144 N145 1.344 . S
C144 H148 0.930 . S
N145 C142 1.377 1_556 S
N145 C144 1.344 . S
O146 Co138 2.055 . S
O146 C150 1.253 . S
H147 C143 0.931 . S
H148 C144 0.930 . S
O149 Co138 2.039 1_554 S
O149 C139 1.265 . S
C150 O146 1.253 . S
C150 O151 1.227 . S
O151 C150 1.227 . S
N152 Co138 2.140 1_554 S
N152 C155 1.346 . S
N152 C156 1.345 1_554 S
C153 C154 1.387 . S
C153 C157 1.391 1_554 S
C154 C153 1.387 . S
C154 C155 1.369 . S
C154 H163 0.929 . S
C155 N152 1.346 . S
C155 C154 1.369 . S
C155 H158 0.928 . S
C156 N152 1.345 1_556 S
C156 C157 1.371 . S
C156 H159 0.931 . S
C157 C153 1.391 1_556 S
C157 C156 1.371 . S
C157 H164 0.930 . S
H158 C155 0.928 . S
H159 C156 0.931 . S
H160 C136 0.930 . S
H161 C133 0.930 . S
H162 C142 0.930 . S
H163 C154 0.929 . S
H164 C157 0.930 . S
C165 C166 1.351 . S
C165 N168 1.368 . S
C165 H170 0.931 . S
C166 C165 1.351 . S
C166 N167 1.373 1_556 S
C166 H194 0.930 . S
N167 C166 1.373 1_554 S
N167 C169 1.340 . S
N168 C165 1.368 . S
N168 C169 1.321 1_556 S
N168 Co171 2.135 . S
C169 N167 1.340 . S
C169 N168 1.321 1_554 S
C169 H193 0.930 . S
H170 C165 0.931 . S
Co171 N168 2.135 . S
Co171 N174 2.121 1_556 S
Co171 O179 2.055 . S
Co171 O182 2.039 1_556 S
Co171 N185 2.140 1_556 S
C172 O173 1.227 . S
C172 O182 1.265 . S
O173 C172 1.227 . S
N174 Co171 2.121 1_554 S
N174 C176 1.375 . S
N174 C177 1.313 1_554 S
C175 C176 1.338 . S
C175 N178 1.377 1_554 S
C175 H195 0.930 . S
C176 N174 1.375 . S
C176 C175 1.338 . S
C176 H180 0.931 . S
C177 N174 1.313 1_556 S
C177 N178 1.344 . S
C177 H181 0.930 . S
N178 C175 1.377 1_556 S
N178 C177 1.344 . S
O179 Co171 2.055 . S
O179 C183 1.253 . S
H180 C176 0.931 . S
H181 C177 0.930 . S
O182 Co171 2.039 1_554 S
O182 C172 1.265 . S
C183 O179 1.253 . S
C183 O184 1.227 . S
O184 C183 1.227 . S
N185 Co171 2.140 1_554 S
N185 C188 1.346 . S
N185 C189 1.345 1_554 S
C186 C187 1.387 . S
C186 C190 1.391 1_554 S
C187 C186 1.387 . S
C187 C188 1.369 . S
C187 H196 0.929 1_455 S
C188 N185 1.346 . S
C188 C187 1.369 . S
C188 H191 0.928 . S
C189 N185 1.345 1_556 S
C189 C190 1.371 . S
C189 H192 0.931 . S
C190 C186 1.391 1_556 S
C190 C189 1.371 . S
C190 H197 0.930 . S
H191 C188 0.928 . S
H192 C189 0.931 . S
H193 C169 0.930 . S
H194 C166 0.930 . S
H195 C175 0.930 . S
H196 C187 0.929 1_655 S
H197 C190 0.930 . S
C198 C199 1.351 . S
C198 N201 1.368 . S
C198 H203 0.931 . S
C199 C198 1.351 . S
C199 N200 1.373 . S
C199 H227 0.930 . S
N200 C199 1.373 . S
N200 C202 1.340 . S
N201 C198 1.368 . S
N201 C202 1.321 . S
N201 Co204 2.135 . S
C202 N200 1.340 . S
C202 N201 1.321 . S
C202 H226 0.930 . S
H203 C198 0.931 . S
Co204 N201 2.135 . S
Co204 N207 2.121 . S
Co204 O212 2.055 . S
Co204 O215 2.039 . S
Co204 N218 2.140 . S
C205 O206 1.227 . S
C205 O215 1.265 . S
O206 C205 1.227 . S
N207 Co204 2.121 . S
N207 C209 1.375 . S
N207 C210 1.313 . S
C208 C209 1.338 . S
C208 N211 1.377 . S
C208 H228 0.930 . S
C209 N207 1.375 . S
C209 C208 1.338 . S
C209 H213 0.931 . S
C210 N207 1.313 . S
C210 N211 1.344 . S
C210 H214 0.930 . S
N211 C208 1.377 . S
N211 C210 1.344 . S
O212 Co204 2.055 . S
O212 C216 1.253 . S
H213 C209 0.931 . S
H214 C210 0.930 . S
O215 Co204 2.039 . S
O215 C205 1.265 . S
C216 O212 1.253 . S
C216 O217 1.227 . S
O217 C216 1.227 . S
N218 Co204 2.140 . S
N218 C221 1.346 . S
N218 C222 1.345 . S
C219 C220 1.387 . S
C219 C223 1.391 . S
C220 C219 1.387 . S
C220 C221 1.369 . S
C220 H229 0.929 1_655 S
C221 N218 1.346 . S
C221 C220 1.369 . S
C221 H224 0.928 . S
C222 N218 1.345 . S
C222 C223 1.371 . S
C222 H225 0.931 . S
C223 C219 1.391 . S
C223 C222 1.371 . S
C223 H230 0.930 . S
H224 C221 0.928 . S
H225 C222 0.931 . S
H226 C202 0.930 . S
H227 C199 0.930 . S
H228 C208 0.930 . S
H229 C220 0.929 1_455 S
H230 C223 0.930 . S
C231 C232 1.351 . S
C231 N234 1.368 . S
C231 H236 0.931 . S
C232 C231 1.351 . S
C232 N233 1.373 . S
C232 H260 0.930 . S
N233 C232 1.373 . S
N233 C235 1.340 . S
N234 C231 1.368 . S
N234 C235 1.321 . S
N234 Co237 2.135 . S
C235 N233 1.340 . S
C235 N234 1.321 . S
C235 H259 0.930 . S
H236 C231 0.931 . S
Co237 N234 2.135 . S
Co237 N240 2.121 . S
Co237 O245 2.055 . S
Co237 O248 2.039 . S
Co237 N251 2.140 . S
C238 O239 1.227 . S
C238 O248 1.265 . S
O239 C238 1.227 . S
N240 Co237 2.121 . S
N240 C242 1.375 . S
N240 C243 1.313 . S
C241 C242 1.338 . S
C241 N244 1.377 . S
C241 H261 0.930 . S
C242 N240 1.375 . S
C242 C241 1.338 . S
C242 H246 0.931 . S
C243 N240 1.313 . S
C243 N244 1.344 . S
C243 H247 0.930 . S
N244 C241 1.377 . S
N244 C243 1.344 . S
O245 Co237 2.055 . S
O245 C249 1.253 . S
H246 C242 0.931 . S
H247 C243 0.930 . S
O248 Co237 2.039 . S
O248 C238 1.265 . S
C249 O245 1.253 . S
C249 O250 1.227 . S
O250 C249 1.227 . S
N251 Co237 2.140 . S
N251 C254 1.346 . S
N251 C255 1.345 . S
C252 C253 1.387 . S
C252 C256 1.391 . S
C253 C252 1.387 . S
C253 C254 1.369 . S
C253 H262 0.929 1_565 S
C254 N251 1.346 . S
C254 C253 1.369 . S
C254 H257 0.928 . S
C255 N251 1.345 . S
C255 C256 1.371 . S
C255 H258 0.931 . S
C256 C252 1.391 . S
C256 C255 1.371 . S
C256 H263 0.930 . S
H257 C254 0.928 . S
H258 C255 0.931 . S
H259 C235 0.930 . S
H260 C232 0.930 . S
H261 C241 0.930 . S
H262 C253 0.929 1_545 S
H263 C256 0.930 . S
C264 C265 1.351 . S
C264 N267 1.368 . S
C264 H269 0.931 . S
C265 C264 1.351 . S
C265 N266 1.373 . S
C265 H293 0.930 . S
N266 C265 1.373 . S
N266 C268 1.340 . S
N267 C264 1.368 . S
N267 C268 1.321 . S
N267 Co270 2.135 . S
C268 N266 1.340 . S
C268 N267 1.321 . S
C268 H292 0.930 . S
H269 C264 0.931 . S
Co270 N267 2.135 . S
Co270 N273 2.121 . S
Co270 O278 2.055 . S
Co270 O281 2.039 . S
Co270 N284 2.140 . S
C271 O272 1.227 . S
C271 O281 1.265 . S
O272 C271 1.227 . S
N273 Co270 2.121 . S
N273 C275 1.375 . S
N273 C276 1.313 . S
C274 C275 1.338 . S
C274 N277 1.377 . S
C274 H294 0.930 . S
C275 N273 1.375 . S
C275 C274 1.338 . S
C275 H279 0.931 . S
C276 N273 1.313 . S
C276 N277 1.344 . S
C276 H280 0.930 . S
N277 C274 1.377 . S
N277 C276 1.344 . S
O278 Co270 2.055 . S
O278 C282 1.253 . S
H279 C275 0.931 . S
H280 C276 0.930 . S
O281 Co270 2.039 . S
O281 C271 1.265 . S
C282 O278 1.253 . S
C282 O283 1.227 . S
O283 C282 1.227 . S
N284 Co270 2.140 . S
N284 C287 1.346 . S
N284 C288 1.345 . S
C285 C286 1.387 . S
C285 C289 1.391 . S
C286 C285 1.387 . S
C286 C287 1.369 . S
C286 H295 0.929 . S
C287 N284 1.346 . S
C287 C286 1.369 . S
C287 H290 0.928 . S
C288 N284 1.345 . S
C288 C289 1.371 . S
C288 H291 0.931 . S
C289 C285 1.391 . S
C289 C288 1.371 . S
C289 H296 0.930 . S
H290 C287 0.928 . S
H291 C288 0.931 . S
H292 C268 0.930 . S
H293 C265 0.930 . S
H294 C274 0.930 . S
H295 C286 0.929 . S
H296 C289 0.930 . S
C297 C298 1.351 . S
C297 N300 1.368 . S
C297 H302 0.931 . S
C298 C297 1.351 . S
C298 N299 1.373 . S
C298 H326 0.930 . S
N299 C298 1.373 . S
N299 C301 1.340 . S
N300 C297 1.368 . S
N300 C301 1.321 . S
N300 Co303 2.135 . S
C301 N299 1.340 . S
C301 N300 1.321 . S
C301 H325 0.930 . S
H302 C297 0.931 . S
Co303 N300 2.135 . S
Co303 N306 2.121 . S
Co303 O311 2.055 . S
Co303 O314 2.039 . S
Co303 N317 2.140 . S
C304 O305 1.227 . S
C304 O314 1.265 . S
O305 C304 1.227 . S
N306 Co303 2.121 . S
N306 C308 1.375 . S
N306 C309 1.313 . S
C307 C308 1.338 . S
C307 N310 1.377 . S
C307 H327 0.930 . S
C308 N306 1.375 . S
C308 C307 1.338 . S
C308 H312 0.931 . S
C309 N306 1.313 . S
C309 N310 1.344 . S
C309 H313 0.930 . S
N310 C307 1.377 . S
N310 C309 1.344 . S
O311 Co303 2.055 . S
O311 C315 1.253 . S
H312 C308 0.931 . S
H313 C309 0.930 . S
O314 Co303 2.039 . S
O314 C304 1.265 . S
C315 O311 1.253 . S
C315 O316 1.227 . S
O316 C315 1.227 . S
N317 Co303 2.140 . S
N317 C320 1.346 . S
N317 C321 1.345 . S
C318 C319 1.387 . S
C318 C322 1.391 . S
C319 C318 1.387 . S
C319 C320 1.369 . S
C319 H328 0.929 1_455 S
C320 N317 1.346 . S
C320 C319 1.369 . S
C320 H323 0.928 . S
C321 N317 1.345 . S
C321 C322 1.371 . S
C321 H324 0.931 . S
C322 C318 1.391 . S
C322 C321 1.371 . S
C322 H329 0.930 . S
H323 C320 0.928 . S
H324 C321 0.931 . S
H325 C301 0.930 . S
H326 C298 0.930 . S
H327 C307 0.930 . S
H328 C319 0.929 1_655 S
H329 C322 0.930 . S
C330 C331 1.351 . S
C330 N333 1.368 . S
C330 H335 0.931 . S
C331 C330 1.351 . S
C331 N332 1.373 . S
C331 H359 0.930 . S
N332 C331 1.373 . S
N332 C334 1.340 . S
N333 C330 1.368 . S
N333 C334 1.321 . S
N333 Co336 2.135 . S
C334 N332 1.340 . S
C334 N333 1.321 . S
C334 H358 0.930 . S
H335 C330 0.931 . S
Co336 N333 2.135 . S
Co336 N339 2.121 . S
Co336 O344 2.055 . S
Co336 O347 2.039 . S
Co336 N350 2.140 . S
C337 O338 1.227 . S
C337 O347 1.265 . S
O338 C337 1.227 . S
N339 Co336 2.121 . S
N339 C341 1.375 . S
N339 C342 1.313 . S
C340 C341 1.338 . S
C340 N343 1.377 . S
C340 H360 0.930 . S
C341 N339 1.375 . S
C341 C340 1.338 . S
C341 H345 0.931 . S
C342 N339 1.313 . S
C342 N343 1.344 . S
C342 H346 0.930 . S
N343 C340 1.377 . S
N343 C342 1.344 . S
O344 Co336 2.055 . S
O344 C348 1.253 . S
H345 C341 0.931 . S
H346 C342 0.930 . S
O347 Co336 2.039 . S
O347 C337 1.265 . S
C348 O344 1.253 . S
C348 O349 1.227 . S
O349 C348 1.227 . S
N350 Co336 2.140 . S
N350 C353 1.346 . S
N350 C354 1.345 . S
C351 C352 1.387 . S
C351 C355 1.391 . S
C352 C351 1.387 . S
C352 C353 1.369 . S
C352 H361 0.929 1_545 S
C353 N350 1.346 . S
C353 C352 1.369 . S
C353 H356 0.928 . S
C354 N350 1.345 . S
C354 C355 1.371 . S
C354 H357 0.931 . S
C355 C351 1.391 . S
C355 C354 1.371 . S
C355 H362 0.930 . S
H356 C353 0.928 . S
H357 C354 0.931 . S
H358 C334 0.930 . S
H359 C331 0.930 . S
H360 C340 0.930 . S
H361 C352 0.929 1_565 S
H362 C355 0.930 . S
C363 C364 1.351 . S
C363 N366 1.368 . S
C363 H368 0.931 . S
C364 C363 1.351 . S
C364 N365 1.373 . S
C364 H392 0.930 . S
N365 C364 1.373 . S
N365 C367 1.340 . S
N366 C363 1.368 . S
N366 C367 1.321 . S
N366 Co369 2.135 . S
C367 N365 1.340 . S
C367 N366 1.321 . S
C367 H391 0.930 . S
H368 C363 0.931 . S
Co369 N366 2.135 . S
Co369 N372 2.121 . S
Co369 O377 2.055 . S
Co369 O380 2.039 . S
Co369 N383 2.140 . S
C370 O371 1.227 . S
C370 O380 1.265 . S
O371 C370 1.227 . S
N372 Co369 2.121 . S
N372 C374 1.375 . S
N372 C375 1.313 . S
C373 C374 1.338 . S
C373 N376 1.377 . S
C373 H393 0.930 . S
C374 N372 1.375 . S
C374 C373 1.338 . S
C374 H378 0.931 . S
C375 N372 1.313 . S
C375 N376 1.344 . S
C375 H379 0.930 . S
N376 C373 1.377 . S
N376 C375 1.344 . S
O377 Co369 2.055 . S
O377 C381 1.253 . S
H378 C374 0.931 . S
H379 C375 0.930 . S
O380 Co369 2.039 . S
O380 C370 1.265 . S
C381 O377 1.253 . S
C381 O382 1.227 . S
O382 C381 1.227 . S
N383 Co369 2.140 . S
N383 C386 1.346 . S
N383 C387 1.345 . S
C384 C385 1.387 . S
C384 C388 1.391 . S
C385 C384 1.387 . S
C385 C386 1.369 . S
C385 H394 0.929 . S
C386 N383 1.346 . S
C386 C385 1.369 . S
C386 H389 0.928 . S
C387 N383 1.345 . S
C387 C388 1.371 . S
C387 H390 0.931 . S
C388 C384 1.391 . S
C388 C387 1.371 . S
C388 H395 0.930 . S
H389 C386 0.928 . S
H390 C387 0.931 . S
H391 C367 0.930 . S
H392 C364 0.930 . S
H393 C373 0.930 . S
H394 C385 0.929 . S
H395 C388 0.930 . S
C396 C397 1.387 . S
C396 H400 0.950 . S
C396 C405 1.390 1_545 S
C397 C396 1.387 . S
C397 C399 1.387 1_554 S
H398 C405 0.950 . S
C399 C397 1.387 1_556 S
C399 C401 1.390 1_545 S
C399 H403 0.950 . S
H400 C396 0.950 . S
C401 C399 1.390 1_565 S
C401 C402 1.387 1_556 S
C401 H404 0.950 . S
C402 C401 1.387 1_554 S
C402 C405 1.387 . S
H403 C399 0.950 . S
H404 C401 0.950 . S
C405 C396 1.390 1_565 S
C405 H398 0.950 . S
C405 C402 1.387 . S
C406 C407 1.387 . S
C406 H410 0.950 . S
C406 C415 1.390 . S
C407 C406 1.387 . S
C407 C409 1.387 1_554 S
H408 C415 0.950 . S
C409 C407 1.387 1_556 S
C409 C411 1.390 . S
C409 H413 0.950 . S
H410 C406 0.950 . S
C411 C409 1.390 . S
C411 C412 1.387 1_556 S
C411 H414 0.950 . S
C412 C411 1.387 1_554 S
C412 C415 1.387 . S
H413 C409 0.950 . S
H414 C411 0.950 . S
C415 C406 1.390 . S
C415 H408 0.950 . S
C415 C412 1.387 . S
C416 C417 1.387 . S
C416 H420 0.950 . S
C416 C425 1.390 1_455 S
C417 C416 1.387 . S
C417 C419 1.387 1_554 S
H418 C425 0.950 . S
C419 C417 1.387 1_556 S
C419 C421 1.390 1_455 S
C419 H423 0.950 . S
H420 C416 0.950 . S
C421 C419 1.390 1_655 S
C421 C422 1.387 1_556 S
C421 H424 0.950 . S
C422 C421 1.387 1_554 S
C422 C425 1.387 . S
H423 C419 0.950 . S
H424 C421 0.950 . S
C425 C416 1.390 1_655 S
C425 H418 0.950 . S
C425 C422 1.387 . S
C426 C427 1.387 . S
C426 H430 0.950 . S
C426 C435 1.390 1_455 S
C427 C426 1.387 . S
C427 C429 1.387 . S
H428 C435 0.950 . S
C429 C427 1.387 . S
C429 C431 1.390 1_455 S
C429 H433 0.950 . S
H430 C426 0.950 . S
C431 C429 1.390 1_655 S
C431 C432 1.387 . S
C431 H434 0.950 . S
C432 C431 1.387 . S
C432 C435 1.387 . S
H433 C429 0.950 . S
H434 C431 0.950 . S
C435 C426 1.390 1_655 S
C435 H428 0.950 . S
C435 C432 1.387 . S
C436 C437 1.387 . S
C436 H440 0.950 . S
C436 C445 1.390 1_545 S
C437 C436 1.387 . S
C437 C439 1.387 . S
H438 C445 0.950 . S
C439 C437 1.387 . S
C439 C441 1.390 1_545 S
C439 H443 0.950 . S
H440 C436 0.950 . S
C441 C439 1.390 1_565 S
C441 C442 1.387 . S
C441 H444 0.950 . S
C442 C441 1.387 . S
C442 C445 1.387 . S
H443 C439 0.950 . S
H444 C441 0.950 . S
C445 C436 1.390 1_565 S
C445 H438 0.950 . S
C445 C442 1.387 . S
C446 C447 1.387 . S
C446 H450 0.950 . S
C446 C455 1.390 . S
C447 C446 1.387 . S
C447 C449 1.387 . S
H448 C455 0.950 . S
C449 C447 1.387 . S
C449 C451 1.390 . S
C449 H453 0.950 . S
H450 C446 0.950 . S
C451 C449 1.390 . S
C451 C452 1.387 . S
C451 H454 0.950 . S
C452 C451 1.387 . S
C452 C455 1.387 . S
H453 C449 0.950 . S
H454 C451 0.950 . S
C455 C446 1.390 . S
C455 H448 0.950 . S
C455 C452 1.387 . S
C456 C457 1.387 . S
C456 H460 0.950 . S
C456 C465 1.390 . S
C457 C456 1.387 . S
C457 C459 1.387 1_554 S
H458 C465 0.950 . S
C459 C457 1.387 1_556 S
C459 C461 1.390 . S
C459 H463 0.950 . S
H460 C456 0.950 . S
C461 C459 1.390 . S
C461 C462 1.387 . S
C461 H464 0.950 . S
C462 C461 1.387 . S
C462 C465 1.387 1_556 S
H463 C459 0.950 . S
H464 C461 0.950 . S
C465 C456 1.390 . S
C465 H458 0.950 . S
C465 C462 1.387 1_554 S
C466 C467 1.387 1_554 S
C466 H470 0.950 . S
C466 C475 1.390 . S
C467 C466 1.387 1_556 S
C467 C469 1.387 . S
H468 C475 0.950 . S
C469 C467 1.387 . S
C469 C471 1.390 . S
C469 H473 0.950 . S
H470 C466 0.950 . S
C471 C469 1.390 . S
C471 C472 1.387 1_556 S
C471 H474 0.950 . S
C472 C471 1.387 1_554 S
C472 C475 1.387 . S
H473 C469 0.950 . S
H474 C471 0.950 . S
C475 C466 1.390 . S
C475 H468 0.950 . S
C475 C472 1.387 . S
C476 C477 1.387 1_556 S
C476 H480 0.950 . S
C476 C485 1.390 . S
C477 C476 1.387 1_554 S
C477 C479 1.387 . S
H478 C485 0.950 . S
C479 C477 1.387 . S
C479 C481 1.390 . S
C479 H483 0.950 . S
H480 C476 0.950 . S
C481 C479 1.390 . S
C481 C482 1.387 1_554 S
C481 H484 0.950 . S
C482 C481 1.387 1_556 S
C482 C485 1.387 . S
H483 C479 0.950 . S
H484 C481 0.950 . S
C485 C476 1.390 . S
C485 H478 0.950 . S
C485 C482 1.387 . S
C486 C487 1.387 . S
C486 H490 0.950 . S
C486 C495 1.390 . S
C487 C486 1.387 . S
C487 C489 1.387 1_556 S
H488 C495 0.950 . S
C489 C487 1.387 1_554 S
C489 C491 1.390 . S
C489 H493 0.950 . S
H490 C486 0.950 . S
C491 C489 1.390 . S
C491 C492 1.387 . S
C491 H494 0.950 . S
C492 C491 1.387 . S
C492 C495 1.387 1_554 S
H493 C489 0.950 . S
H494 C491 0.950 . S
C495 C486 1.390 . S
C495 H488 0.950 . S
C495 C492 1.387 1_556 S
C496 C497 1.387 . S
C496 H500 0.950 . S
C496 C505 1.390 . S
C497 C496 1.387 . S
C497 C499 1.387 1_556 S
H498 C505 0.950 . S
C499 C497 1.387 1_554 S
C499 C501 1.390 . S
C499 H503 0.950 . S
H500 C496 0.950 . S
C501 C499 1.390 . S
C501 C502 1.387 . S
C501 H504 0.950 . S
C502 C501 1.387 . S
C502 C505 1.387 1_554 S
H503 C499 0.950 . S
H504 C501 0.950 . S
C505 C496 1.390 . S
C505 H498 0.950 . S
C505 C502 1.387 1_556 S
C506 C507 1.387 . S
C506 H510 0.950 . S
C506 C515 1.390 . S
C507 C506 1.387 . S
C507 C509 1.387 1_556 S
H508 C515 0.950 . S
C509 C507 1.387 1_554 S
C509 C511 1.390 . S
C509 H513 0.950 . S
H510 C506 0.950 . S
C511 C509 1.390 . S
C511 C512 1.387 . S
C511 H514 0.950 . S
C512 C511 1.387 . S
C512 C515 1.387 1_554 S
H513 C509 0.950 . S
H514 C511 0.950 . S
C515 C506 1.390 . S
C515 H508 0.950 . S
C515 C512 1.387 1_556 S
C516 C517 1.387 . S
C516 H520 0.950 . S
C516 C525 1.390 . S
C517 C516 1.387 . S
C517 C519 1.387 . S
H518 C525 0.950 . S
C519 C517 1.387 . S
C519 C521 1.390 . S
C519 H523 0.950 . S
H520 C516 0.950 . S
C521 C519 1.390 . S
C521 C522 1.387 . S
C521 H524 0.950 . S
C522 C521 1.387 . S
C522 C525 1.387 . S
H523 C519 0.950 . S
H524 C521 0.950 . S
C525 C516 1.390 . S
C525 H518 0.950 . S
C525 C522 1.387 . S
C526 C527 1.387 . S
C526 H530 0.950 . S
C526 C535 1.390 . S
C527 C526 1.387 . S
C527 C529 1.387 . S
H528 C535 0.950 . S
C529 C527 1.387 . S
C529 C531 1.390 . S
C529 H533 0.950 . S
H530 C526 0.950 . S
C531 C529 1.390 . S
C531 C532 1.387 . S
C531 H534 0.950 . S
C532 C531 1.387 . S
C532 C535 1.387 . S
H533 C529 0.950 . S
H534 C531 0.950 . S
C535 C526 1.390 . S
C535 H528 0.950 . S
C535 C532 1.387 . S
C536 C537 1.387 . S
C536 H540 0.950 . S
C536 C545 1.390 . S
C537 C536 1.387 . S
C537 C539 1.387 . S
H538 C545 0.950 . S
C539 C537 1.387 . S
C539 C541 1.390 . S
C539 H543 0.950 . S
H540 C536 0.950 . S
C541 C539 1.390 . S
C541 C542 1.387 . S
C541 H544 0.950 . S
C542 C541 1.387 . S
C542 C545 1.387 . S
H543 C539 0.950 . S
H544 C541 0.950 . S
C545 C536 1.390 . S
C545 H538 0.950 . S
C545 C542 1.387 . S
C546 C547 1.387 . S
C546 H550 0.950 . S
C546 C555 1.390 . S
C547 C546 1.387 . S
C547 C549 1.387 . S
H548 C555 0.950 . S
C549 C547 1.387 . S
C549 C551 1.390 . S
C549 H553 0.950 . S
H550 C546 0.950 . S
C551 C549 1.390 . S
C551 C552 1.387 . S
C551 H554 0.950 . S
C552 C551 1.387 . S
C552 C555 1.387 . S
H553 C549 0.950 . S
H554 C551 0.950 . S
C555 C546 1.390 . S
C555 H548 0.950 . S
C555 C552 1.387 . S
C556 C557 1.387 . S
C556 H560 0.950 . S
C556 C565 1.390 . S
C557 C556 1.387 . S
C557 C559 1.387 . S
H558 C565 0.950 . S
C559 C557 1.387 . S
C559 C561 1.390 . S
C559 H563 0.950 . S
H560 C556 0.950 . S
C561 C559 1.390 . S
C561 C562 1.387 . S
C561 H564 0.950 . S
C562 C561 1.387 . S
C562 C565 1.387 . S
H563 C559 0.950 . S
H564 C561 0.950 . S
C565 C556 1.390 . S
C565 H558 0.950 . S
C565 C562 1.387 . S
C566 C567 1.387 . S
C566 H570 0.950 . S
C566 C575 1.390 . S
C567 C566 1.387 . S
C567 C569 1.387 . S
H568 C575 0.950 . S
C569 C567 1.387 . S
C569 C571 1.390 . S
C569 H573 0.950 . S
H570 C566 0.950 . S
C571 C569 1.390 . S
C571 C572 1.387 . S
C571 H574 0.950 . S
C572 C571 1.387 . S
C572 C575 1.387 . S
H573 C569 0.950 . S
H574 C571 0.950 . S
C575 C566 1.390 . S
C575 H568 0.950 . S
C575 C572 1.387 . S
C576 C577 1.387 . S
C576 H580 0.950 . S
C576 C585 1.390 . S
C577 C576 1.387 . S
C577 C579 1.387 . S
H578 C585 0.950 . S
C579 C577 1.387 . S
C579 C581 1.390 . S
C579 H583 0.950 . S
H580 C576 0.950 . S
C581 C579 1.390 . S
C581 C582 1.387 . S
C581 H584 0.950 . S
C582 C581 1.387 . S
C582 C585 1.387 . S
H583 C579 0.950 . S
H584 C581 0.950 . S
C585 C576 1.390 . S
C585 H578 0.950 . S
C585 C582 1.387 . S
C586 C587 1.387 . S
C586 H590 0.950 . S
C586 C595 1.390 . S
C587 C586 1.387 . S
C587 C589 1.387 . S
H588 C595 0.950 . S
C589 C587 1.387 . S
C589 C591 1.390 . S
C589 H593 0.950 . S
H590 C586 0.950 . S
C591 C589 1.390 . S
C591 C592 1.387 . S
C591 H594 0.950 . S
C592 C591 1.387 . S
C592 C595 1.387 . S
H593 C589 0.950 . S
H594 C591 0.950 . S
C595 C586 1.390 . S
C595 H588 0.950 . S
C595 C592 1.387 . S
C596 C597 1.387 . S
C596 H600 0.950 . S
C596 C605 1.390 . S
C597 C596 1.387 . S
C597 C599 1.387 . S
H598 C605 0.950 . S
C599 C597 1.387 . S
C599 C601 1.390 . S
C599 H603 0.950 . S
H600 C596 0.950 . S
C601 C599 1.390 . S
C601 C602 1.387 . S
C601 H604 0.950 . S
C602 C601 1.387 . S
C602 C605 1.387 . S
H603 C599 0.950 . S
H604 C601 0.950 . S
C605 C596 1.390 . S
C605 H598 0.950 . S
C605 C602 1.387 . S
C606 C607 1.387 . S
C606 H610 0.950 . S
C606 C615 1.390 . S
C607 C606 1.387 . S
C607 C609 1.387 . S
H608 C615 0.950 . S
C609 C607 1.387 . S
C609 C611 1.390 . S
C609 H613 0.950 . S
H610 C606 0.950 . S
C611 C609 1.390 . S
C611 C612 1.387 . S
C611 H614 0.950 . S
C612 C611 1.387 . S
C612 C615 1.387 . S
H613 C609 0.950 . S
H614 C611 0.950 . S
C615 C606 1.390 . S
C615 H608 0.950 . S
C615 C612 1.387 . S
C616 C617 1.387 . S
C616 H620 0.950 . S
C616 C625 1.390 . S
C617 C616 1.387 . S
C617 C619 1.387 . S
H618 C625 0.950 . S
C619 C617 1.387 . S
C619 C621 1.390 . S
C619 H623 0.950 . S
H620 C616 0.950 . S
C621 C619 1.390 . S
C621 C622 1.387 . S
C621 H624 0.950 . S
C622 C621 1.387 . S
C622 C625 1.387 . S
H623 C619 0.950 . S
H624 C621 0.950 . S
C625 C616 1.390 . S
C625 H618 0.950 . S
C625 C622 1.387 . S
C626 C627 1.387 . S
C626 H630 0.950 . S
C626 C635 1.390 . S
C627 C626 1.387 . S
C627 C629 1.387 . S
H628 C635 0.950 . S
C629 C627 1.387 . S
C629 C631 1.390 . S
C629 H633 0.950 . S
H630 C626 0.950 . S
C631 C629 1.390 . S
C631 C632 1.387 . S
C631 H634 0.950 . S
C632 C631 1.387 . S
C632 C635 1.387 . S
H633 C629 0.950 . S
H634 C631 0.950 . S
C635 C626 1.390 . S
C635 H628 0.950 . S
C635 C632 1.387 . S
C636 C637 1.387 . S
C636 H640 0.950 . S
C636 C645 1.390 . S
C637 C636 1.387 . S
C637 C639 1.387 . S
H638 C645 0.950 . S
C639 C637 1.387 . S
C639 C641 1.390 . S
C639 H643 0.950 . S
H640 C636 0.950 . S
C641 C639 1.390 . S
C641 C642 1.387 . S
C641 H644 0.950 . S
C642 C641 1.387 . S
C642 C645 1.387 . S
H643 C639 0.950 . S
H644 C641 0.950 . S
C645 C636 1.390 . S
C645 H638 0.950 . S
C645 C642 1.387 . S
C646 C647 1.387 . S
C646 H650 0.950 . S
C646 C655 1.390 . S
C647 C646 1.387 . S
C647 C649 1.387 . S
H648 C655 0.950 . S
C649 C647 1.387 . S
C649 C651 1.390 . S
C649 H653 0.950 . S
H650 C646 0.950 . S
C651 C649 1.390 . S
C651 C652 1.387 . S
C651 H654 0.950 . S
C652 C651 1.387 . S
C652 C655 1.387 . S
H653 C649 0.950 . S
H654 C651 0.950 . S
C655 C646 1.390 . S
C655 H648 0.950 . S
C655 C652 1.387 . S
C656 C657 1.387 . S
C656 H660 0.950 . S
C656 C665 1.390 . S
C657 C656 1.387 . S
C657 C659 1.387 . S
H658 C665 0.950 . S
C659 C657 1.387 . S
C659 C661 1.390 . S
C659 H663 0.950 . S
H660 C656 0.950 . S
C661 C659 1.390 . S
C661 C662 1.387 . S
C661 H664 0.950 . S
C662 C661 1.387 . S
C662 C665 1.387 . S
H663 C659 0.950 . S
H664 C661 0.950 . S
C665 C656 1.390 . S
C665 H658 0.950 . S
C665 C662 1.387 . S
C666 C667 1.387 . S
C666 H670 0.950 . S
C666 C675 1.390 . S
C667 C666 1.387 . S
C667 C669 1.387 . S
H668 C675 0.950 . S
C669 C667 1.387 . S
C669 C671 1.390 . S
C669 H673 0.950 . S
H670 C666 0.950 . S
C671 C669 1.390 . S
C671 C672 1.387 . S
C671 H674 0.950 . S
C672 C671 1.387 . S
C672 C675 1.387 . S
H673 C669 0.950 . S
H674 C671 0.950 . S
C675 C666 1.390 . S
C675 H668 0.950 . S
C675 C672 1.387 . S
C676 C677 1.387 . S
C676 H680 0.950 . S
C676 C685 1.390 . S
C677 C676 1.387 . S
C677 C679 1.387 . S
H678 C685 0.950 . S
C679 C677 1.387 . S
C679 C681 1.390 . S
C679 H683 0.950 . S
H680 C676 0.950 . S
C681 C679 1.390 . S
C681 C682 1.387 . S
C681 H684 0.950 . S
C682 C681 1.387 . S
C682 C685 1.387 . S
H683 C679 0.950 . S
H684 C681 0.950 . S
C685 C676 1.390 . S
C685 H678 0.950 . S
C685 C682 1.387 . S
C686 C687 1.387 . S
C686 H690 0.950 . S
C686 C695 1.390 . S
C687 C686 1.387 . S
C687 C689 1.387 . S
H688 C695 0.950 . S
C689 C687 1.387 . S
C689 C691 1.390 . S
C689 H693 0.950 . S
H690 C686 0.950 . S
C691 C689 1.390 . S
C691 C692 1.387 . S
C691 H694 0.950 . S
C692 C691 1.387 . S
C692 C695 1.387 . S
H693 C689 0.950 . S
H694 C691 0.950 . S
C695 C686 1.390 . S
C695 H688 0.950 . S
C695 C692 1.387 . S
C397 N2 2.081 . S
C402 N101 2.081 . S
C407 N134 2.081 . S
C412 N35 2.081 . S
C417 N167 2.081 . S
C422 N68 2.081 . S
C427 N299 2.081 . S
C432 N200 2.081 . S
C437 N332 2.079 . S
C442 N233 2.079 . S
C447 N266 2.081 . S
C452 N365 2.081 . S
C457 C21 0.669 1_565 S
C462 N178 0.694 . S
C467 N13 0.694 . S
C472 C54 0.669 . S
C477 C87 0.669 1_455 S
C482 N46 0.687 . S
C487 N79 0.691 . S
C492 C120 0.671 1_545 S
C497 N112 0.686 . S
C502 C153 0.668 . S
C507 N145 0.694 . S
C512 C186 0.672 1_655 S
C517 N244 0.692 . S
C522 C219 0.668 1_455 S
C527 N277 0.688 . S
C532 C252 0.670 1_545 S
C537 N310 0.690 . S
C542 C285 0.668 . S
C547 C318 0.670 1_655 S
C552 N343 0.688 . S
C557 C351 0.668 1_565 S
C562 N376 0.692 . S
C567 C384 0.669 . S
C572 N211 0.687 . S
C577 C271 1.774 . S
C582 C7 1.776 . S
C587 C40 1.776 . S
C592 C304 1.776 . S
C597 C73 1.776 . S
C602 C337 1.774 . S
C607 C106 1.777 . S
C612 C370 1.775 . S
C617 C205 1.776 . S
C622 C139 1.776 . S
C627 C172 1.775 . S
C632 C238 1.775 . S
C637 C381 1.576 . S
C642 C117 1.574 . S
C647 C216 1.575 . S
C652 C150 1.575 . S
C657 C249 1.574 . S
C662 C183 1.576 . S
C667 C18 1.576 . S
C672 C282 1.574 . S
C677 C51 1.575 . S
C682 C315 1.575 . S
C687 C84 1.575 . S
C692 C348 1.575 . S
