# Generated by pormake.
# Topology smd, (6)-cn, num edge types: 1
# Building blocks:
#     Node 0, Type 0, BuildingBlock: MIFKUJ_clean_sbu_0, # of connection points: 6
#     Node 1, Type 0, BuildingBlock: MIFKUJ_clean_sbu_0, # of connection points: 6
#     Node 2, Type 0, BuildingBlock: MIFKUJ_clean_sbu_0, # of connection points: 6
#     Node 3, Type 0, BuildingBlock: MIFKUJ_clean_sbu_0, # of connection points: 6
#     Node 4, Type 0, BuildingBlock: MIFKUJ_clean_sbu_0, # of connection points: 6
#     Node 5, Type 0, BuildingBlock: MIFKUJ_clean_sbu_0, # of connection points: 6
#     Node 6, Type 0, BuildingBlock: MIFKUJ_clean_sbu_0, # of connection points: 6
#     Node 7, Type 0, BuildingBlock: MIFKUJ_clean_sbu_0, # of connection points: 6
#     Node 8, Type 0, BuildingBlock: MIFKUJ_clean_sbu_0, # of connection points: 6
#     Node 9, Type 0, BuildingBlock: MIFKUJ_clean_sbu_0, # of connection points: 6
#     Node 10, Type 0, BuildingBlock: MIFKUJ_clean_sbu_0, # of connection points: 6
#     Node 11, Type 0, BuildingBlock: MIFKUJ_clean_sbu_0, # of connection points: 6
#     Node 12, Type 0, BuildingBlock: MIFKUJ_clean_sbu_0, # of connection points: 6
#     Node 13, Type 0, BuildingBlock: MIFKUJ_clean_sbu_0, # of connection points: 6
#     Node 14, Type 0, BuildingBlock: MIFKUJ_clean_sbu_0, # of connection points: 6
#     Node 15, Type 0, BuildingBlock: MIFKUJ_clean_sbu_0, # of connection points: 6
#     Node 16, Type 0, BuildingBlock: MIFKUJ_clean_sbu_0, # of connection points: 6
#     Node 17, Type 0, BuildingBlock: MIFKUJ_clean_sbu_0, # of connection points: 6
#     Edge 18, Type (0, 0), BuildingBlock: ZUJKAS_clean_linker_0, # of connection points: 2
#     Edge 19, Type (0, 0), BuildingBlock: ZUJKAS_clean_linker_0, # of connection points: 2
#     Edge 20, Type (0, 0), BuildingBlock: ZUJKAS_clean_linker_0, # of connection points: 2
#     Edge 21, Type (0, 0), BuildingBlock: ZUJKAS_clean_linker_0, # of connection points: 2
#     Edge 22, Type (0, 0), BuildingBlock: ZUJKAS_clean_linker_0, # of connection points: 2
#     Edge 23, Type (0, 0), BuildingBlock: ZUJKAS_clean_linker_0, # of connection points: 2
#     Edge 24, Type (0, 0), BuildingBlock: ZUJKAS_clean_linker_0, # of connection points: 2
#     Edge 25, Type (0, 0), BuildingBlock: ZUJKAS_clean_linker_0, # of connection points: 2
#     Edge 26, Type (0, 0), BuildingBlock: ZUJKAS_clean_linker_0, # of connection points: 2
#     Edge 27, Type (0, 0), BuildingBlock: ZUJKAS_clean_linker_0, # of connection points: 2
#     Edge 28, Type (0, 0), BuildingBlock: ZUJKAS_clean_linker_0, # of connection points: 2
#     Edge 29, Type (0, 0), BuildingBlock: ZUJKAS_clean_linker_0, # of connection points: 2
#     Edge 30, Type (0, 0), BuildingBlock: ZUJKAS_clean_linker_0, # of connection points: 2
#     Edge 31, Type (0, 0), BuildingBlock: ZUJKAS_clean_linker_0, # of connection points: 2
#     Edge 32, Type (0, 0), BuildingBlock: ZUJKAS_clean_linker_0, # of connection points: 2
#     Edge 33, Type (0, 0), BuildingBlock: ZUJKAS_clean_linker_0, # of connection points: 2
#     Edge 34, Type (0, 0), BuildingBlock: ZUJKAS_clean_linker_0, # of connection points: 2
#     Edge 35, Type (0, 0), BuildingBlock: ZUJKAS_clean_linker_0, # of connection points: 2
#     Edge 36, Type (0, 0), BuildingBlock: ZUJKAS_clean_linker_0, # of connection points: 2
#     Edge 37, Type (0, 0), BuildingBlock: ZUJKAS_clean_linker_0, # of connection points: 2
#     Edge 38, Type (0, 0), BuildingBlock: ZUJKAS_clean_linker_0, # of connection points: 2
#     Edge 39, Type (0, 0), BuildingBlock: ZUJKAS_clean_linker_0, # of connection points: 2
#     Edge 40, Type (0, 0), BuildingBlock: ZUJKAS_clean_linker_0, # of connection points: 2
#     Edge 41, Type (0, 0), BuildingBlock: ZUJKAS_clean_linker_0, # of connection points: 2
#     Edge 42, Type (0, 0), BuildingBlock: ZUJKAS_clean_linker_0, # of connection points: 2
#     Edge 43, Type (0, 0), BuildingBlock: ZUJKAS_clean_linker_0, # of connection points: 2
#     Edge 44, Type (0, 0), BuildingBlock: ZUJKAS_clean_linker_0, # of connection points: 2
#     Edge 45, Type (0, 0), BuildingBlock: ZUJKAS_clean_linker_0, # of connection points: 2
#     Edge 46, Type (0, 0), BuildingBlock: ZUJKAS_clean_linker_0, # of connection points: 2
#     Edge 47, Type (0, 0), BuildingBlock: ZUJKAS_clean_linker_0, # of connection points: 2
#     Edge 48, Type (0, 0), BuildingBlock: ZUJKAS_clean_linker_0, # of connection points: 2
#     Edge 49, Type (0, 0), BuildingBlock: ZUJKAS_clean_linker_0, # of connection points: 2
#     Edge 50, Type (0, 0), BuildingBlock: ZUJKAS_clean_linker_0, # of connection points: 2
#     Edge 51, Type (0, 0), BuildingBlock: ZUJKAS_clean_linker_0, # of connection points: 2
#     Edge 52, Type (0, 0), BuildingBlock: ZUJKAS_clean_linker_0, # of connection points: 2
#     Edge 53, Type (0, 0), BuildingBlock: ZUJKAS_clean_linker_0, # of connection points: 2
#     Edge 54, Type (0, 0), BuildingBlock: ZUJKAS_clean_linker_0, # of connection points: 2
#     Edge 55, Type (0, 0), BuildingBlock: ZUJKAS_clean_linker_0, # of connection points: 2
#     Edge 56, Type (0, 0), BuildingBlock: ZUJKAS_clean_linker_0, # of connection points: 2
#     Edge 57, Type (0, 0), BuildingBlock: ZUJKAS_clean_linker_0, # of connection points: 2
#     Edge 58, Type (0, 0), BuildingBlock: ZUJKAS_clean_linker_0, # of connection points: 2
#     Edge 59, Type (0, 0), BuildingBlock: ZUJKAS_clean_linker_0, # of connection points: 2
#     Edge 60, Type (0, 0), BuildingBlock: ZUJKAS_clean_linker_0, # of connection points: 2
#     Edge 61, Type (0, 0), BuildingBlock: ZUJKAS_clean_linker_0, # of connection points: 2
#     Edge 62, Type (0, 0), BuildingBlock: ZUJKAS_clean_linker_0, # of connection points: 2
#     Edge 63, Type (0, 0), BuildingBlock: ZUJKAS_clean_linker_0, # of connection points: 2
#     Edge 64, Type (0, 0), BuildingBlock: ZUJKAS_clean_linker_0, # of connection points: 2
#     Edge 65, Type (0, 0), BuildingBlock: ZUJKAS_clean_linker_0, # of connection points: 2
#     Edge 66, Type (0, 0), BuildingBlock: ZUJKAS_clean_linker_0, # of connection points: 2
#     Edge 67, Type (0, 0), BuildingBlock: ZUJKAS_clean_linker_0, # of connection points: 2
#     Edge 68, Type (0, 0), BuildingBlock: ZUJKAS_clean_linker_0, # of connection points: 2
#     Edge 69, Type (0, 0), BuildingBlock: ZUJKAS_clean_linker_0, # of connection points: 2
#     Edge 70, Type (0, 0), BuildingBlock: ZUJKAS_clean_linker_0, # of connection points: 2
#     Edge 71, Type (0, 0), BuildingBlock: ZUJKAS_clean_linker_0, # of connection points: 2
# Relax obj value: 0.201
# Max RMSD: 0.241
# Mean RMSD: 0.241
data_MOF--net-smd--node1-MIFKUJ_clean_sbu_0--edge1-ZUJKAS_clean_linker_0
_symmetry_space_group_name_H-M    P1
_symmetry_Int_Tables_number       1
_symmetry_cell_setting            triclinic
loop_
_symmetry_equiv_pos_as_xyz
'x, y, z'
_cell_length_a     91.955882
_cell_length_b     91.992292
_cell_length_c     22.803968
_cell_angle_alpha  90.007689
_cell_angle_beta   90.003696
_cell_angle_gamma 120.00381
loop_
_atom_site_label
_atom_site_type_symbol
_atom_site_fract_x
_atom_site_fract_y
_atom_site_fract_z
_atom_type_partial_charge
Zn0 Zn 0.00535 0.2246 0.52173 0.0
Zn1 Zn 0.01249 0.21564 0.37684 0.0
C2 C 0.9991 0.24962 0.57042 0.0
O3 O 0.01557 0.25782 0.5739 0.0
C4 C 0.03547 0.20503 0.40725 0.0
O5 O 0.02574 0.19317 0.37023 0.0
O6 O 0.01453 0.22103 0.5973 0.0
O7 O 0.98813 0.2018 0.4887 0.0
O8 O 0.99105 0.19534 0.39775 0.0
C9 C 0.00342 0.21066 0.63235 0.0
O10 O 0.98771 0.20245 0.61482 0.0
O11 O 0.99168 0.23495 0.54843 0.0
C12 C 0.00588 0.21444 0.25492 0.0
O13 O 0.99337 0.21596 0.27559 0.0
O14 O 0.01614 0.21383 0.29076 0.0
O15 O 0.01222 0.23714 0.3855 0.0
O16 O 0.02409 0.24292 0.47262 0.0
O17 O 0.03197 0.2164 0.41985 0.0
C18 C 0.98301 0.19163 0.44566 0.0
C19 C 0.02122 0.24779 0.42405 0.0
Zn20 Zn 0.79291 0.77596 0.54233 0.0
Zn21 Zn 0.80445 0.80271 0.3926 0.0
C22 C 0.77141 0.74644 0.60435 0.0
O23 O 0.76307 0.75457 0.60746 0.0
C24 C 0.8185 0.83839 0.40072 0.0
O25 O 0.82849 0.83827 0.35976 0.0
O26 O 0.7951 0.79013 0.61355 0.0
O27 O 0.81552 0.78332 0.50586 0.0
O28 O 0.82232 0.79813 0.42324 0.0
C29 C 0.80635 0.79162 0.64954 0.0
O30 O 0.81624 0.78577 0.63426 0.0
O31 O 0.78539 0.75321 0.57745 0.0
C32 C 0.79793 0.80788 0.27247 0.0
O33 O 0.78612 0.80975 0.29767 0.0
O34 O 0.80755 0.80498 0.30439 0.0
O35 O 0.7803 0.78518 0.40404 0.0
O36 O 0.77363 0.77141 0.48874 0.0
O37 O 0.8076 0.82456 0.42342 0.0
C38 C 0.8258 0.79106 0.46446 0.0
C39 C 0.7695 0.77451 0.43908 0.0
Zn40 Zn 0.23714 0.01728 0.51363 0.0
Zn41 Zn 0.22162 0.01291 0.36547 0.0
C42 C 0.26792 0.02301 0.56427 0.0
O43 O 0.25893 0.00667 0.57118 0.0
C44 C 0.1873 0.98959 0.38762 0.0
O45 O 0.18569 0.99964 0.3506 0.0
O46 O 0.22463 0.00726 0.58936 0.0
O47 O 0.23144 0.03482 0.48517 0.0
O48 O 0.22346 0.03424 0.39324 0.0
C49 C 0.22629 0.01796 0.62804 0.0
O50 O 0.23468 0.03398 0.61438 0.0
O51 O 0.26129 0.03065 0.53941 0.0
C52 C 0.21447 0.99863 0.24944 0.0
O53 O 0.21415 0.98597 0.27733 0.0
O54 O 0.21723 0.01159 0.27835 0.0
O55 O 0.24243 0.01138 0.37405 0.0
O56 O 0.23658 0.99907 0.46083 0.0
O57 O 0.20195 0.99299 0.40301 0.0
C58 C 0.22701 0.04099 0.44359 0.0
C59 C 0.24301 0.00114 0.40992 0.0
Zn60 Zn 0.01443 0.80433 0.57492 0.0
Zn61 Zn 0.01994 0.79461 0.42764 0.0
C62 C 0.99131 0.81481 0.53748 0.0
O63 O 0.00309 0.82926 0.55836 0.0
C64 C 0.02704 0.76986 0.38291 0.0
O65 O 0.01067 0.76181 0.37573 0.0
O66 O 0.01282 0.80704 0.66194 0.0
O67 O 0.01469 0.78293 0.56482 0.0
O68 O 0.00162 0.7768 0.47965 0.0
C69 C 9e-05 0.79645 0.69098 0.0
O70 O 0.98771 0.78378 0.66325 0.0
O71 O 0.99367 0.80233 0.53791 0.0
C72 C 0.02058 0.80559 0.31209 0.0
O73 O 0.03658 0.81397 0.32617 0.0
O74 O 0.01002 0.79632 0.35069 0.0
O75 O 0.03665 0.81825 0.45554 0.0
O76 O 0.03501 0.82468 0.54789 0.0
O77 O 0.03416 0.78447 0.40531 0.0
C78 C 0.00425 0.77218 0.52922 0.0
C79 C 0.04205 0.82859 0.49806 0.0
Zn80 Zn 0.2198 0.21785 0.6138 0.0
Zn81 Zn 0.2299 0.23225 0.4665 0.0
C82 C 0.21055 0.18391 0.59009 0.0
O83 O 0.19886 0.18143 0.62845 0.0
C84 C 0.25339 0.26245 0.40871 0.0
O85 O 0.25912 0.25259 0.39171 0.0
O86 O 0.21731 0.21363 0.70112 0.0
O87 O 0.24126 0.23949 0.60319 0.0
O88 O 0.2475 0.2318 0.51986 0.0
C89 C 0.22784 0.21133 0.7299 0.0
O90 O 0.24032 0.21133 0.70181 0.0
O91 O 0.22112 0.19885 0.57513 0.0
C92 C 0.21835 0.22111 0.35191 0.0
O93 O 0.21013 0.22889 0.36576 0.0
O94 O 0.22774 0.21995 0.39041 0.0
O95 O 0.2064 0.226 0.49445 0.0
O96 O 0.19963 0.21848 0.5871 0.0
O97 O 0.24065 0.25655 0.4423 0.0
C98 C 0.25213 0.24021 0.56728 0.0
C99 C 0.19597 0.22151 0.53666 0.0
Zn100 Zn 0.80154 0.00886 0.57337 0.0
Zn101 Zn 0.78547 0.00335 0.42785 0.0
C102 C 0.83469 0.0312 0.53196 0.0
O103 O 0.83654 0.01838 0.54631 0.0
C104 C 0.75288 0.99575 0.39013 0.0
O105 O 0.76087 0.01217 0.38463 0.0
O106 O 0.80541 0.01015 0.66027 0.0
O107 O 0.7795 0.00771 0.56266 0.0
O108 O 0.78655 0.02189 0.48006 0.0
C109 C 0.80748 0.02281 0.68951 0.0
O110 O 0.80748 0.03534 0.6619 0.0
O111 O 0.82037 0.02993 0.53792 0.0
C112 C 0.79508 0.00228 0.31227 0.0
O113 O 0.78824 0.98649 0.32836 0.0
O114 O 0.79609 0.01302 0.34958 0.0
O115 O 0.7936 0.98734 0.45369 0.0
O116 O 0.80211 0.98884 0.54538 0.0
O117 O 0.76085 0.98872 0.40906 0.0
C118 C 0.77961 0.01894 0.53024 0.0
C119 C 0.7991 0.98211 0.49505 0.0
Zn120 Zn 0.673 0.55449 0.91492 0.0
Zn121 Zn 0.67786 0.54475 0.76866 0.0
C122 C 0.66599 0.58002 0.95273 0.0
O123 O 0.68244 0.58851 0.95719 0.0
C124 C 0.70118 0.53432 0.80461 0.0
O125 O 0.68932 0.51985 0.78419 0.0
O126 O 0.68269 0.55316 0.99277 0.0
O127 O 0.65628 0.53066 0.88873 0.0
O128 O 0.65748 0.52427 0.79598 0.0
C129 C 0.67199 0.54409 0.03136 0.0
O130 O 0.65603 0.53579 0.01688 0.0
O131 O 0.65887 0.56494 0.9346 0.0
C132 C 0.69204 0.55278 0.65266 0.0
O133 O 0.7045 0.56532 0.6806 0.0
O134 O 0.67928 0.5422 0.68155 0.0
O135 O 0.67735 0.56601 0.7799 0.0
O136 O 0.69157 0.57172 0.86229 0.0
O137 O 0.69883 0.54681 0.80448 0.0
C138 C 0.65073 0.52031 0.84625 0.0
C139 C 0.68807 0.57665 0.81504 0.0
Zn140 Zn 0.46265 0.12173 0.86559 0.0
Zn141 Zn 0.47074 0.13443 0.71745 0.0
C142 C 0.44113 0.09087 0.92364 0.0
O143 O 0.43267 0.09868 0.93315 0.0
C144 C 0.4799 0.16795 0.74256 0.0
O145 O 0.49242 0.17028 0.70854 0.0
O146 O 0.46402 0.13411 0.94043 0.0
O147 O 0.48636 0.12966 0.83622 0.0
O148 O 0.49201 0.13587 0.7423 0.0
C149 C 0.47458 0.13465 0.97769 0.0
O150 O 0.48442 0.12874 0.96259 0.0
O151 O 0.45458 0.09819 0.89376 0.0
C152 C 0.46137 0.13931 0.60097 0.0
O153 O 0.44835 0.13831 0.62853 0.0
O154 O 0.47251 0.13814 0.63021 0.0
O155 O 0.45017 0.11214 0.73078 0.0
O156 O 0.4436 0.11971 0.81373 0.0
O157 O 0.46856 0.15304 0.75459 0.0
C158 C 0.49652 0.13425 0.79322 0.0
C159 C 0.43917 0.11145 0.76598 0.0
Zn160 Zn 0.90145 0.34435 0.88126 0.0
Zn161 Zn 0.88535 0.33826 0.73558 0.0
C162 C 0.93369 0.35209 0.92428 0.0
O163 O 0.92603 0.33564 0.92775 0.0
C164 C 0.85317 0.31658 0.7872 0.0
O165 O 0.85117 0.32947 0.77576 0.0
O166 O 0.88986 0.33417 0.95812 0.0
O167 O 0.89402 0.36068 0.85329 0.0
O168 O 0.88504 0.35861 0.76201 0.0
C169 C 0.88931 0.34433 0.99471 0.0
O170 O 0.89501 0.35997 0.97862 0.0
O171 O 0.92568 0.35899 0.90448 0.0
C172 C 0.88085 0.32479 0.61836 0.0
O173 O 0.88387 0.31383 0.64439 0.0
O174 O 0.88051 0.33618 0.64891 0.0
O175 O 0.90764 0.33961 0.74387 0.0
O176 O 0.90145 0.32639 0.82858 0.0
O177 O 0.86712 0.31755 0.77506 0.0
C178 C 0.8885 0.36578 0.81161 0.0
C179 C 0.90892 0.32969 0.7793 0.0
Zn180 Zn 0.67519 0.13473 0.9624 0.0
Zn181 Zn 0.68653 0.12376 0.80938 0.0
C182 C 0.65695 0.15039 0.9142 0.0
O183 O 0.67072 0.16463 0.92549 0.0
C184 C 0.70847 0.11001 0.79803 0.0
O185 O 0.70671 0.10871 0.8553 0.0
O186 O 0.67451 0.13845 0.05 0.0
O187 O 0.66951 0.11073 0.95453 0.0
O188 O 0.67269 0.10413 0.86335 0.0
C189 C 0.66202 0.12811 0.08067 0.0
O190 O 0.64937 0.11532 0.0544 0.0
O191 O 0.65648 0.13663 0.92506 0.0
C192 C 0.68341 0.13729 0.70359 0.0
O193 O 0.69934 0.14695 0.71703 0.0
O194 O 0.67387 0.12624 0.7406 0.0
O195 O 0.70279 0.14605 0.84569 0.0
O196 O 0.69777 0.15283 0.93385 0.0
O197 O 0.70131 0.11649 0.76924 0.0
C198 C 0.66774 0.09998 0.91599 0.0
C199 C 0.70699 0.15618 0.88863 0.0
Zn200 Zn 0.88856 0.54687 0.95067 0.0
Zn201 Zn 0.89961 0.57282 0.80018 0.0
C202 C 0.87329 0.51166 0.91815 0.0
O203 O 0.85946 0.51064 0.93868 0.0
C204 C 0.91864 0.60097 0.72685 0.0
O205 O 0.92516 0.59159 0.71271 0.0
O206 O 0.88511 0.54367 0.03882 0.0
O207 O 0.91249 0.56519 0.94083 0.0
O208 O 0.91902 0.57817 0.8545 0.0
C209 C 0.89515 0.54122 0.07012 0.0
O210 O 0.90742 0.54027 0.04423 0.0
O211 O 0.88673 0.52581 0.91742 0.0
C212 C 0.88647 0.55685 0.69261 0.0
O213 O 0.87668 0.56295 0.70637 0.0
O214 O 0.8975 0.5583 0.72966 0.0
O215 O 0.87694 0.5653 0.8366 0.0
O216 O 0.87027 0.55088 0.92011 0.0
O217 O 0.90685 0.5955 0.76443 0.0
C218 C 0.92318 0.57575 0.90521 0.0
C219 C 0.86668 0.55767 0.87818 0.0
Zn220 Zn 0.46657 0.33841 0.95529 0.0
Zn221 Zn 0.45529 0.33647 0.80705 0.0
C222 C 0.50121 0.36103 0.93968 0.0
O223 O 0.50172 0.35005 0.97523 0.0
C224 C 0.4239 0.33076 0.76167 0.0
O225 O 0.43246 0.3472 0.75731 0.0
O226 O 0.46941 0.33939 0.043 0.0
O227 O 0.44584 0.33966 0.94014 0.0
O228 O 0.45636 0.35478 0.86042 0.0
C229 C 0.47277 0.35268 0.07087 0.0
O230 O 0.47435 0.3657 0.04164 0.0
O231 O 0.48702 0.35853 0.92222 0.0
C232 C 0.46575 0.33573 0.69237 0.0
O233 O 0.45766 0.31974 0.70649 0.0
O234 O 0.46735 0.34645 0.73082 0.0
O235 O 0.46112 0.31884 0.83366 0.0
O236 O 0.46555 0.31749 0.92836 0.0
O237 O 0.43103 0.32315 0.78299 0.0
C238 C 0.44684 0.35082 0.9051 0.0
C239 C 0.46417 0.31192 0.8766 0.0
Zn240 Zn 0.345 0.89601 0.21151 0.0
Zn241 Zn 0.34301 0.88961 0.07411 0.0
C242 C 0.33431 0.91801 0.25005 0.0
O243 O 0.34999 0.92547 0.26795 0.0
C244 C 0.36337 0.87406 0.09792 0.0
O245 O 0.35064 0.86066 0.07473 0.0
O246 O 0.35338 0.89652 0.29381 0.0
O247 O 0.33173 0.87099 0.19001 0.0
O248 O 0.3213 0.8712 0.10324 0.0
C249 C 0.34206 0.88702 0.32997 0.0
O250 O 0.32667 0.87744 0.31062 0.0
O251 O 0.32851 0.90427 0.22192 0.0
C252 C 0.35582 0.8977 0.957 0.0
O253 O 0.36924 0.90897 0.98503 0.0
O254 O 0.34282 0.88778 0.98626 0.0
O255 O 0.34714 0.91245 0.09215 0.0
O256 O 0.36412 0.91452 0.16337 0.0
O257 O 0.36255 0.88738 0.10321 0.0
C258 C 0.32056 0.86369 0.15064 0.0
C259 C 0.3602 0.92135 0.12243 0.0
Zn260 Zn 0.12833 0.45309 0.20831 0.0
Zn261 Zn 0.13855 0.46869 0.062 0.0
C262 C 0.1028 0.42142 0.25177 0.0
O263 O 0.09478 0.42985 0.25619 0.0
C264 C 0.14973 0.50179 0.10697 0.0
O265 O 0.1645 0.50378 0.09338 0.0
O266 O 0.13037 0.46494 0.28503 0.0
O267 O 0.15181 0.45939 0.18041 0.0
O268 O 0.15883 0.46828 0.08913 0.0
C269 C 0.1407 0.46476 0.32168 0.0
O270 O 0.14988 0.45816 0.30568 0.0
O271 O 0.11765 0.42876 0.23138 0.0
C272 C 0.13045 0.47416 0.94492 0.0
O273 O 0.11706 0.47269 0.9712 0.0
O274 O 0.14151 0.47315 0.97527 0.0
O275 O 0.11706 0.44693 0.07097 0.0
O276 O 0.11094 0.4541 0.15555 0.0
O277 O 0.13671 0.48754 0.09917 0.0
C278 C 0.16236 0.46453 0.13853 0.0
C279 C 0.10623 0.44607 0.1074 0.0
Zn280 Zn 0.56695 0.67982 0.19572 0.0
Zn281 Zn 0.5528 0.6745 0.05094 0.0
C282 C 0.59681 0.68591 0.25466 0.0
O283 O 0.58647 0.67073 0.27431 0.0
C284 C 0.5187 0.65229 0.07978 0.0
O285 O 0.51693 0.66193 0.04132 0.0
O286 O 0.55454 0.67115 0.27215 0.0
O287 O 0.56176 0.6975 0.1645 0.0
O288 O 0.55471 0.69634 0.07126 0.0
C289 C 0.55659 0.68253 0.30837 0.0
O290 O 0.56531 0.6983 0.29181 0.0
O291 O 0.59132 0.6927 0.21915 0.0
C292 C 0.55918 0.67939 0.92826 0.0
O293 O 0.5741 0.69049 0.94804 0.0
O294 O 0.54756 0.67083 0.96478 0.0
O295 O 0.57384 0.67345 0.06202 0.0
O296 O 0.56537 0.66056 0.14681 0.0
O297 O 0.53343 0.65555 0.09354 0.0
C298 C 0.55784 0.70348 0.12091 0.0
C299 C 0.5739 0.66342 0.10002 0.0
Zn300 Zn 0.34577 0.46855 0.28352 0.0
Zn301 Zn 0.35094 0.45887 0.13595 0.0
C302 C 0.32388 0.48004 0.2409 0.0
O303 O 0.33656 0.49468 0.25633 0.0
C304 C 0.35777 0.43477 0.08421 0.0
O305 O 0.34149 0.42727 0.07535 0.0
O306 O 0.34422 0.47139 0.37026 0.0
O307 O 0.34563 0.44687 0.27416 0.0
O308 O 0.33297 0.44086 0.18819 0.0
C309 C 0.33183 0.46061 0.40015 0.0
O310 O 0.31963 0.44755 0.37341 0.0
O311 O 0.3252 0.46701 0.24653 0.0
C312 C 0.35131 0.47092 0.02296 0.0
O313 O 0.36721 0.47958 0.03809 0.0
O314 O 0.34074 0.46096 0.06024 0.0
O315 O 0.36784 0.48232 0.16454 0.0
O316 O 0.36663 0.4888 0.25708 0.0
O317 O 0.36499 0.44882 0.1106 0.0
C318 C 0.33606 0.43613 0.23673 0.0
C319 C 0.37352 0.49265 0.20702 0.0
Zn320 Zn 0.54577 0.87834 0.27494 0.0
Zn321 Zn 0.55657 0.89498 0.12981 0.0
C322 C 0.53698 0.8445 0.25042 0.0
O323 O 0.52501 0.84169 0.28793 0.0
C324 C 0.58273 0.92625 0.08797 0.0
O325 O 0.58953 0.91683 0.07883 0.0
O326 O 0.54261 0.87374 0.36166 0.0
O327 O 0.56748 0.9 0.26712 0.0
O328 O 0.5732 0.89264 0.18236 0.0
C329 C 0.55314 0.8718 0.39184 0.0
O330 O 0.56607 0.87228 0.3654 0.0
O331 O 0.54747 0.85954 0.23632 0.0
C332 C 0.54468 0.88465 0.0149 0.0
O333 O 0.53577 0.8915 0.03142 0.0
O334 O 0.55467 0.88385 0.0516 0.0
O335 O 0.53298 0.88867 0.15668 0.0
O336 O 0.52562 0.87897 0.24705 0.0
O337 O 0.56817 0.91963 0.11064 0.0
C338 C 0.57816 0.90105 0.22966 0.0
C339 C 0.52228 0.88317 0.19812 0.0
Zn340 Zn 0.14316 0.6784 0.28423 0.0
Zn341 Zn 0.12644 0.67209 0.13901 0.0
C342 C 0.17745 0.70134 0.26338 0.0
O343 O 0.17854 0.69133 0.302 0.0
C344 C 0.09585 0.66725 0.08923 0.0
O345 O 0.10618 0.68245 0.06975 0.0
O346 O 0.14788 0.68066 0.37124 0.0
O347 O 0.12201 0.67933 0.273 0.0
O348 O 0.13024 0.69208 0.18807 0.0
C349 C 0.14232 0.68786 0.40463 0.0
O350 O 0.13336 0.69399 0.38215 0.0
O351 O 0.16299 0.69805 0.2458 0.0
C352 C 0.1324 0.66805 0.02216 0.0
O353 O 0.12108 0.65274 0.03776 0.0
O354 O 0.13777 0.67966 0.06038 0.0
O355 O 0.13153 0.65433 0.16923 0.0
O356 O 0.14136 0.65684 0.25952 0.0
O357 O 0.10161 0.65999 0.1214 0.0
C358 C 0.12147 0.68895 0.23432 0.0
C359 C 0.13663 0.64894 0.21132 0.0
H360 H 0.11722 0.40181 0.26431 0.0
H361 H 0.10375 0.37261 0.29712 0.0
H362 H 0.05661 0.37172 0.31492 0.0
H363 H 0.07006 0.40102 0.28354 0.0
H364 H 0.06292 0.35729 0.40847 0.0
H365 H 0.07251 0.33181 0.20074 0.0
H366 H 0.09161 0.3482 0.23209 0.0
H367 H 0.07586 0.35282 0.20648 0.0
C368 C 0.10397 0.39538 0.27501 0.0
C369 C 0.09468 0.4037 0.27099 0.0
C370 C 0.09627 0.37867 0.29353 0.0
C371 C 0.07911 0.3699 0.30752 0.0
C372 C 0.06986 0.37823 0.30415 0.0
H373 H 0.01553 0.26235 0.32923 0.0
H374 H 0.02939 0.29211 0.30448 0.0
C375 C 0.07757 0.39497 0.28608 0.0
C376 C 0.07076 0.35206 0.32596 0.0
H377 H 0.06205 0.31309 0.28143 0.0
C378 C 0.06269 0.3476 0.38071 0.0
C379 C 0.07031 0.33942 0.28933 0.0
C380 C 0.07789 0.34323 0.22866 0.0
C381 C 0.05425 0.33085 0.39996 0.0
C382 C 0.0542 0.31829 0.36397 0.0
C383 C 0.06222 0.32276 0.30918 0.0
C384 C 0.04542 0.30033 0.38112 0.0
C385 C 0.0451 0.32673 0.4579 0.0
C386 C 0.04982 0.29504 0.43252 0.0
C387 C 0.04179 0.27799 0.44714 0.0
C388 C 0.0294 0.26592 0.41009 0.0
C389 C 0.02505 0.27129 0.35868 0.0
C390 C 0.03297 0.28831 0.3444 0.0
H391 H 0.04251 0.33677 0.47207 0.0
H392 H 0.03302 0.3147 0.45543 0.0
H393 H 0.05301 0.32547 0.49203 0.0
H394 H 0.05965 0.30405 0.46086 0.0
H395 H 0.0455 0.27426 0.48689 0.0
H396 H 0.74319 0.74767 0.49365 0.0
H397 H 0.71383 0.73227 0.4622 0.0
H398 H 0.72585 0.7654 0.31379 0.0
H399 H 0.75524 0.78062 0.34393 0.0
H400 H 0.69117 0.7429 0.44735 0.0
H401 H 0.70169 0.71983 0.23592 0.0
H402 H 0.71767 0.72903 0.29182 0.0
H403 H 0.71392 0.74222 0.24324 0.0
C404 C 0.73961 0.75167 0.45421 0.0
C405 C 0.75162 0.76532 0.42108 0.0
C406 C 0.72282 0.74284 0.43632 0.0
C407 C 0.71772 0.74749 0.38504 0.0
C408 C 0.72959 0.76132 0.35262 0.0
H409 H 0.62237 0.7158 0.21376 0.0
H410 H 0.65164 0.73072 0.2469 0.0
C411 C 0.74638 0.77007 0.37019 0.0
C412 C 0.69992 0.73809 0.36602 0.0
H413 H 0.67451 0.71642 0.25084 0.0
C414 C 0.68751 0.73701 0.40456 0.0
C415 C 0.69518 0.73037 0.31018 0.0
C416 C 0.70779 0.73025 0.26812 0.0
C417 C 0.67052 0.72874 0.38825 0.0
C418 C 0.66585 0.72129 0.33214 0.0
C419 C 0.6782 0.72227 0.2937 0.0
C420 C 0.64815 0.71231 0.31264 0.0
C421 C 0.65767 0.72825 0.43059 0.0
C422 C 0.63661 0.69696 0.33833 0.0
C423 C 0.61993 0.68836 0.31932 0.0
C424 C 0.61451 0.695 0.27435 0.0
C425 C 0.62614 0.71038 0.24861 0.0
C426 C 0.64285 0.71891 0.2674 0.0
H427 H 0.66361 0.73716 0.46758 0.0
H428 H 0.64885 0.73127 0.4077 0.0
H429 H 0.65024 0.7154 0.44895 0.0
H430 H 0.64055 0.69158 0.37285 0.0
H431 H 0.6113 0.67653 0.34004 0.0
H432 H 0.25188 0.99743 0.29899 0.0
H433 H 0.26527 0.98151 0.2682 0.0
H434 H 0.26586 0.96694 0.4476 0.0
H435 H 0.25202 0.98247 0.47864 0.0
H436 H 0.29539 0.98638 0.29756 0.0
H437 H 0.24699 0.92233 0.36512 0.0
H438 H 0.24294 0.9396 0.36221 0.0
H439 H 0.2536 0.93714 0.42431 0.0
C440 C 0.25475 0.99075 0.33194 0.0
C441 C 0.25087 0.99122 0.39134 0.0
C442 C 0.26239 0.98163 0.31421 0.0
C443 C 0.26635 0.97281 0.3554 0.0
C444 C 0.26253 0.97328 0.41478 0.0
H445 H 0.34246 0.94515 0.31918 0.0
H446 H 0.32539 0.95784 0.34211 0.0
C447 C 0.25473 0.98228 0.43254 0.0
C448 C 0.27533 0.96395 0.33649 0.0
H449 H 0.27401 0.92618 0.34065 0.0
C450 C 0.29063 0.97318 0.3066 0.0
C451 C 0.26901 0.94667 0.34744 0.0
C452 C 0.25215 0.93581 0.37598 0.0
C453 C 0.3 0.96573 0.28874 0.0
C454 C 0.29412 0.94868 0.30243 0.0
C455 C 0.27858 0.9393 0.33078 0.0
C456 C 0.30419 0.94056 0.28922 0.0
C457 C 0.31605 0.9762 0.25496 0.0
C458 C 0.29773 0.92623 0.2534 0.0
C459 C 0.30743 0.91878 0.24059 0.0
C460 C 0.32375 0.92555 0.26356 0.0
C461 C 0.33003 0.93972 0.30018 0.0
C462 C 0.32031 0.94706 0.31316 0.0
H463 H 0.31607 0.98696 0.23271 0.0
H464 H 0.32683 0.98138 0.2858 0.0
H465 H 0.318 0.96858 0.22147 0.0
H466 H 0.28525 0.92094 0.23482 0.0
H467 H 0.30222 0.90784 0.21244 0.0
H468 H 0.28842 0.05707 0.57227 0.0
H469 H 0.3172 0.07238 0.60963 0.0
H470 H 0.31581 0.02551 0.64229 0.0
H471 H 0.28691 0.01011 0.6064 0.0
H472 H 0.32947 0.04715 0.73364 0.0
H473 H 0.35888 0.07944 0.52485 0.0
H474 H 0.34256 0.08323 0.54983 0.0
H475 H 0.3375 0.06236 0.5288 0.0
C476 C 0.29426 0.05002 0.58719 0.0
C477 C 0.28542 0.03237 0.58604 0.0
C478 C 0.31074 0.05879 0.6083 0.0
C479 C 0.31876 0.0501 0.62783 0.0
C480 C 0.30989 0.03248 0.62725 0.0
H481 H 0.42535 0.09057 0.67203 0.0
H482 H 0.39596 0.07552 0.64194 0.0
C483 C 0.29338 0.0237 0.60659 0.0
C484 C 0.33634 0.0593 0.64933 0.0
H485 H 0.37637 0.08799 0.60897 0.0
C486 C 0.33974 0.05607 0.7064 0.0
C487 C 0.34974 0.07077 0.61345 0.0
C488 C 0.34706 0.07406 0.55064 0.0
C489 C 0.35619 0.06405 0.72866 0.0
C490 C 0.36953 0.07585 0.69329 0.0
C491 C 0.36611 0.07904 0.63621 0.0
C492 C 0.38724 0.08462 0.71358 0.0
C493 C 0.35915 0.0594 0.78917 0.0
C494 C 0.39215 0.09478 0.76392 0.0
C495 C 0.40897 0.1033 0.78166 0.0
C496 C 0.42123 0.10201 0.74881 0.0
C497 C 0.41625 0.09186 0.69835 0.0
C498 C 0.39945 0.08326 0.68099 0.0
H499 H 0.34857 0.0471 0.80362 0.0
H500 H 0.37091 0.05881 0.7907 0.0
H501 H 0.3603 0.06905 0.82095 0.0
H502 H 0.38302 0.09633 0.78901 0.0
H503 H 0.4124 0.1111 0.82051 0.0
H504 H 0.92724 0.33487 0.67934 0.0
H505 H 0.94176 0.32017 0.64743 0.0
H506 H 0.92556 0.28985 0.80405 0.0
H507 H 0.91129 0.30482 0.83723 0.0
H508 H 0.95838 0.30101 0.77969 0.0
H509 H 0.9201 0.27332 0.57996 0.0
H510 H 0.9295 0.29573 0.58207 0.0
H511 H 0.91419 0.28309 0.63653 0.0
C512 C 0.92672 0.32506 0.70709 0.0
C513 C 0.91797 0.32093 0.76068 0.0
C514 C 0.93494 0.31659 0.68852 0.0
C515 C 0.93442 0.30366 0.72268 0.0
C516 C 0.926 0.2997 0.77676 0.0
H517 H 0.96511 0.23443 0.58642 0.0
H518 H 0.94917 0.24688 0.62679 0.0
C519 C 0.91784 0.30826 0.79562 0.0
C520 C 0.94295 0.2945 0.70229 0.0
H521 H 0.94553 0.27233 0.58666 0.0
C522 C 0.95549 0.29462 0.7377 0.0
C523 C 0.93895 0.28592 0.64796 0.0
C524 C 0.92483 0.28433 0.60972 0.0
C525 C 0.96451 0.28682 0.71944 0.0
C526 C 0.96115 0.27904 0.66365 0.0
C527 C 0.94826 0.27849 0.62907 0.0
C528 C 0.97091 0.27148 0.64007 0.0
C529 C 0.9774 0.28683 0.76042 0.0
C530 C 0.98839 0.28124 0.63331 0.0
C531 C 0.99754 0.27414 0.61062 0.0
C532 C 0.98935 0.25719 0.59344 0.0
C533 C 0.9718 0.24752 0.59922 0.0
C534 C 0.96267 0.25461 0.62235 0.0
H535 H 0.97484 0.28856 0.80676 0.0
H536 H 0.97773 0.27496 0.75696 0.0
H537 H 0.99 0.2974 0.74881 0.0
H538 H 0.99496 0.29441 0.64513 0.0
H539 H 0.01102 0.28197 0.6062 0.0
H540 H 0.78663 0.72751 0.61771 0.0
H541 H 0.7744 0.69927 0.65946 0.0
H542 H 0.72793 0.69885 0.69079 0.0
H543 H 0.74015 0.72715 0.65065 0.0
H544 H 0.73684 0.68644 0.78365 0.0
H545 H 0.74057 0.65665 0.57659 0.0
H546 H 0.76036 0.67351 0.60171 0.0
H547 H 0.74412 0.67778 0.57915 0.0
C548 C 0.77381 0.7214 0.63354 0.0
C549 C 0.76432 0.72952 0.63049 0.0
C550 C 0.76682 0.70524 0.65714 0.0
C551 C 0.75016 0.69685 0.67731 0.0
C552 C 0.74079 0.70507 0.67534 0.0
H553 H 0.68237 0.59137 0.72076 0.0
H554 H 0.69807 0.62077 0.69131 0.0
C555 C 0.7478 0.72125 0.65223 0.0
C556 C 0.74228 0.67942 0.69988 0.0
H557 H 0.73078 0.6393 0.66036 0.0
C558 C 0.73556 0.67612 0.75682 0.0
C559 C 0.74045 0.66597 0.66449 0.0
C560 C 0.74661 0.66857 0.60191 0.0
C561 C 0.72689 0.6597 0.77916 0.0
C562 C 0.72525 0.64629 0.744 0.0
C563 C 0.73215 0.64962 0.68735 0.0
C564 C 0.71564 0.62857 0.76362 0.0
C565 C 0.71907 0.65682 0.8393 0.0
C566 C 0.72031 0.62316 0.8141 0.0
C567 C 0.71124 0.60632 0.83144 0.0
C568 C 0.69748 0.59458 0.79808 0.0
C569 C 0.6929 0.60006 0.74745 0.0
C570 C 0.70188 0.61687 0.73046 0.0
H571 H 0.71784 0.66766 0.85409 0.0
H572 H 0.70645 0.64538 0.83992 0.0
H573 H 0.72714 0.65506 0.87133 0.0
H574 H 0.7311 0.63189 0.83968 0.0
H575 H 0.71515 0.60249 0.87047 0.0
H576 H 0.98361 0.74492 0.46146 0.0
H577 H 0.96778 0.71549 0.49191 0.0
H578 H 0.98646 0.72979 0.66833 0.0
H579 H 0.00259 0.75911 0.63814 0.0
H580 H 0.98926 0.70349 0.62949 0.0
H581 H 0.92485 0.6919 0.58792 0.0
H582 H 0.93849 0.6997 0.52536 0.0
H583 H 0.943 0.71273 0.58925 0.0
C584 C 0.98429 0.74181 0.50679 0.0
C585 C 0.99438 0.75437 0.54734 0.0
C586 C 0.97514 0.72499 0.52421 0.0
C587 C 0.97574 0.72048 0.5826 0.0
C588 C 0.98578 0.733 0.62309 0.0
H589 H 0.91213 0.62584 0.75952 0.0
H590 H 0.92564 0.65469 0.72251 0.0
C591 C 0.99501 0.74977 0.6057 0.0
C592 C 0.96651 0.70266 0.60134 0.0
H593 H 0.92738 0.66811 0.61193 0.0
C594 C 0.97572 0.69576 0.62573 0.0
C595 C 0.94883 0.69267 0.59703 0.0
C596 C 0.93817 0.69964 0.574 0.0
C597 C 0.96779 0.67912 0.64564 0.0
C598 C 0.95017 0.66896 0.63971 0.0
C599 C 0.9409 0.67588 0.61582 0.0
C600 C 0.94116 0.65121 0.65914 0.0
C601 C 0.97833 0.6727 0.67406 0.0
C602 C 0.94508 0.6396 0.63467 0.0
C603 C 0.9375 0.62318 0.65598 0.0
C604 C 0.92568 0.61801 0.70171 0.0
C605 C 0.92123 0.62946 0.72442 0.0
C606 C 0.92892 0.64593 0.7033 0.0
H607 H 0.9906 0.68315 0.68945 0.0
H608 H 0.97169 0.66445 0.71197 0.0
H609 H 0.9809 0.66529 0.64156 0.0
H610 H 0.95419 0.6433 0.59958 0.0
H611 H 0.94105 0.61462 0.63701 0.0
H612 H 0.26607 0.2607 0.66197 0.0
H613 H 0.29556 0.27611 0.69044 0.0
H614 H 0.30847 0.25662 0.53947 0.0
H615 H 0.27893 0.24142 0.50964 0.0
H616 H 0.31576 0.26374 0.71917 0.0
H617 H 0.34202 0.30643 0.52782 0.0
H618 H 0.31976 0.29429 0.54211 0.0
H619 H 0.33049 0.28457 0.50887 0.0
C620 C 0.27517 0.25975 0.63446 0.0
C621 C 0.27013 0.24982 0.58345 0.0
C622 C 0.29203 0.26857 0.65089 0.0
C623 C 0.30425 0.26767 0.61678 0.0
C624 C 0.2993 0.25778 0.5658 0.0
H625 H 0.40423 0.29675 0.74905 0.0
H626 H 0.37538 0.28115 0.71265 0.0
C627 C 0.2824 0.24901 0.54903 0.0
C628 C 0.32202 0.27665 0.6362 0.0
H629 H 0.36161 0.30664 0.59602 0.0
C630 C 0.32579 0.27313 0.69225 0.0
C631 C 0.33505 0.28902 0.60125 0.0
C632 C 0.33166 0.29395 0.54189 0.0
C633 C 0.34222 0.28164 0.71442 0.0
C634 C 0.35532 0.29372 0.67896 0.0
C635 C 0.35156 0.29726 0.62291 0.0
C636 C 0.37293 0.30314 0.69989 0.0
C637 C 0.34529 0.27792 0.77622 0.0
C638 C 0.3813 0.32073 0.7033 0.0
C639 C 0.39785 0.3297 0.72351 0.0
C640 C 0.40634 0.32124 0.7407 0.0
C641 C 0.39798 0.30363 0.73675 0.0
C642 C 0.38146 0.29468 0.71616 0.0
H643 H 0.33354 0.2719 0.80246 0.0
H644 H 0.35028 0.26916 0.77478 0.0
H645 H 0.35462 0.28956 0.79899 0.0
H646 H 0.37496 0.32751 0.69082 0.0
H647 H 0.40394 0.34325 0.72594 0.0
H648 H 0.72101 0.09115 0.8444 0.0
H649 H 0.73386 0.07727 0.79167 0.0
H650 H 0.72892 0.0982 0.62882 0.0
H651 H 0.716 0.11215 0.68107 0.0
H652 H 0.71659 0.05377 0.69165 0.0
H653 H 0.77926 0.10826 0.63608 0.0
H654 H 0.76683 0.10881 0.69654 0.0
H655 H 0.76098 0.11016 0.62263 0.0
C656 C 0.72283 0.09299 0.79748 0.0
C657 C 0.71746 0.10273 0.76691 0.0
C658 C 0.73014 0.08502 0.76747 0.0
C659 C 0.7324 0.08682 0.70656 0.0
C660 C 0.72743 0.09683 0.67597 0.0
H661 H 0.77493 0.04228 0.47109 0.0
H662 H 0.76282 0.05881 0.50962 0.0
C663 C 0.72001 0.10473 0.70589 0.0
C664 C 0.73901 0.07735 0.67483 0.0
H665 H 0.77349 0.08162 0.60297 0.0
C666 C 0.72901 0.05983 0.67207 0.0
C667 C 0.7551 0.08538 0.64876 0.0
C668 C 0.76629 0.10419 0.65114 0.0
C669 C 0.73477 0.05005 0.6445 0.0
C670 C 0.75114 0.05799 0.62043 0.0
C671 C 0.76097 0.07557 0.62169 0.0
C672 C 0.75857 0.04816 0.59679 0.0
C673 C 0.72323 0.03129 0.64121 0.0
C674 C 0.76043 0.03695 0.63334 0.0
C675 C 0.76724 0.02747 0.61154 0.0
C676 C 0.77251 0.02916 0.5528 0.0
C677 C 0.77094 0.04066 0.51647 0.0
C678 C 0.76404 0.05011 0.53837 0.0
H679 H 0.70984 0.02786 0.64478 0.0
H680 H 0.725 0.02611 0.59954 0.0
H681 H 0.72604 0.02524 0.67819 0.0
H682 H 0.75667 0.03556 0.67894 0.0
H683 H 0.76844 0.01889 0.64097 0.0
H684 H 0.59287 0.92133 0.32451 0.0
H685 H 0.62271 0.93739 0.3485 0.0
H686 H 0.63441 0.91896 0.19193 0.0
H687 H 0.60456 0.90313 0.16677 0.0
H688 H 0.64434 0.92621 0.37056 0.0
H689 H 0.66636 0.96903 0.17871 0.0
H690 H 0.64441 0.95622 0.19692 0.0
H691 H 0.65521 0.94719 0.15937 0.0
C692 C 0.60177 0.92075 0.29489 0.0
C693 C 0.59631 0.91096 0.2436 0.0
C694 C 0.61884 0.92993 0.30875 0.0
C695 C 0.63082 0.92955 0.27168 0.0
C696 C 0.62543 0.91974 0.22055 0.0
H697 H 0.73366 0.96155 0.38073 0.0
H698 H 0.70418 0.94513 0.35119 0.0
C699 C 0.60834 0.91061 0.20642 0.0
C700 C 0.64887 0.93904 0.2878 0.0
H701 H 0.68741 0.96966 0.24078 0.0
C702 C 0.65376 0.93573 0.34222 0.0
C703 C 0.66112 0.95159 0.25106 0.0
C704 C 0.65653 0.95637 0.19351 0.0
C705 C 0.67055 0.94458 0.36091 0.0
C706 C 0.68287 0.95681 0.32351 0.0
C707 C 0.67798 0.96017 0.26916 0.0
C708 C 0.70082 0.96667 0.34074 0.0
C709 C 0.67483 0.94105 0.42121 0.0
C710 C 0.70888 0.98425 0.34316 0.0
C711 C 0.72576 0.99366 0.35934 0.0
C712 C 0.73495 0.98568 0.37348 0.0
C713 C 0.72689 0.96807 0.37068 0.0
C714 C 0.71002 0.95866 0.35406 0.0
H715 H 0.66356 0.93487 0.44989 0.0
H716 H 0.68002 0.9325 0.41724 0.0
H717 H 0.68439 0.95279 0.44285 0.0
H718 H 0.70204 0.9907 0.33291 0.0
H719 H 0.73158 0.00721 0.36099 0.0
H720 H 0.01534 0.73748 0.34806 0.0
H721 H 0.03177 0.72436 0.31987 0.0
H722 H 0.07757 0.77138 0.34679 0.0
H723 H 0.06125 0.78451 0.37649 0.0
H724 H 0.05408 0.73129 0.23104 0.0
H725 H 0.08554 0.73957 0.44608 0.0
H726 H 0.06798 0.74293 0.43622 0.0
H727 H 0.08875 0.75884 0.41466 0.0
C728 C 0.02892 0.74503 0.34815 0.0
C729 C 0.037 0.76201 0.36501 0.0
C730 C 0.03828 0.73752 0.33189 0.0
C731 C 0.05589 0.74681 0.3321 0.0
C732 C 0.064 0.76386 0.34764 0.0
H733 H 0.12068 0.71368 0.16956 0.0
H734 H 0.1048 0.72793 0.19077 0.0
C735 C 0.05465 0.77136 0.36437 0.0
C736 C 0.06571 0.73861 0.31609 0.0
H737 H 0.09505 0.72948 0.36798 0.0
C738 C 0.06304 0.73087 0.26095 0.0
C739 C 0.07723 0.73789 0.3555 0.0
C740 C 0.07996 0.7451 0.41663 0.0
C741 C 0.0716 0.72247 0.24406 0.0
C742 C 0.08343 0.72214 0.28292 0.0
C743 C 0.08608 0.72987 0.33805 0.0
C744 C 0.09277 0.71331 0.26852 0.0
C745 C 0.06756 0.71365 0.18549 0.0
C746 C 0.09153 0.7006 0.30571 0.0
C747 C 0.10074 0.69262 0.29421 0.0
C748 C 0.11141 0.69719 0.24518 0.0
C749 C 0.11253 0.70983 0.20757 0.0
C750 C 0.10337 0.71791 0.2194 0.0
H751 H 0.05525 0.71128 0.16833 0.0
H752 H 0.07736 0.72167 0.15328 0.0
H753 H 0.06732 0.70149 0.18862 0.0
H754 H 0.08343 0.69686 0.34389 0.0
H755 H 0.09951 0.68289 0.32397 0.0
H756 H 0.3357 0.42198 0.34254 0.0
H757 H 0.32164 0.39221 0.36736 0.0
H758 H 0.30336 0.37945 0.18992 0.0
H759 H 0.31711 0.40929 0.16488 0.0
H760 H 0.27893 0.36159 0.27069 0.0
H761 H 0.33625 0.35875 0.32338 0.0
H762 H 0.33474 0.37457 0.36448 0.0
H763 H 0.33697 0.37638 0.28599 0.0
C764 C 0.32877 0.41287 0.30861 0.0
C765 C 0.32762 0.41804 0.25157 0.0
C766 C 0.32081 0.39583 0.32284 0.0
C767 C 0.31172 0.3836 0.28022 0.0
C768 C 0.3104 0.38869 0.22339 0.0
H769 H 0.27823 0.27756 0.32695 0.0
H770 H 0.29174 0.30661 0.2929 0.0
C771 C 0.31828 0.40575 0.20915 0.0
C772 C 0.30323 0.36551 0.29551 0.0
H773 H 0.31017 0.33525 0.35296 0.0
C774 C 0.28576 0.35579 0.28831 0.0
C775 C 0.3122 0.3579 0.31762 0.0
C776 C 0.33109 0.36739 0.32278 0.0
C777 C 0.27695 0.33875 0.30403 0.0
C778 C 0.28583 0.33135 0.32885 0.0
C779 C 0.30335 0.34098 0.33464 0.0
C780 C 0.27723 0.31363 0.3488 0.0
C781 C 0.25828 0.32879 0.29309 0.0
C782 C 0.26468 0.30794 0.39199 0.0
C783 C 0.25684 0.29128 0.4113 0.0
C784 C 0.26158 0.28007 0.38833 0.0
C785 C 0.27428 0.28586 0.34558 0.0
C786 C 0.28203 0.30247 0.32603 0.0
H787 H 0.25437 0.33473 0.25881 0.0
H788 H 0.25431 0.31575 0.27932 0.0
H789 H 0.25154 0.32824 0.33413 0.0
H790 H 0.26108 0.31643 0.41129 0.0
H791 H 0.24719 0.28725 0.44462 0.0
H792 H 0.95524 0.34127 0.95732 0.0
H793 H 0.98412 0.35821 0.99192 0.0
H794 H 0.98073 0.40308 0.97315 0.0
H795 H 0.95191 0.38625 0.93715 0.0
H796 H 0.00971 0.40713 0.92872 0.0
H797 H -0.00013 0.3797 0.15123 0.0
H798 H 0.99312 0.3641 0.09466 0.0
H799 H 0.98267 0.37609 0.10379 0.0
C800 C 0.9606 0.35474 0.96071 0.0
C801 C 0.95124 0.3624 0.94471 0.0
C802 C 0.97708 0.36439 0.98093 0.0
C803 C 0.98446 0.38187 0.98634 0.0
C804 C 0.97523 0.38959 0.96975 0.0
H805 H 0.07964 0.44413 0.1686 0.0
H806 H 0.05002 0.42944 0.13978 0.0
C807 C 0.95877 0.37995 0.94914 0.0
C808 C 0.00202 0.39214 0.00731 0.0
H809 H 0.0284 0.3963 0.11965 0.0
C810 C 0.01377 0.40486 0.97068 0.0
C811 C 0.00725 0.38937 0.06252 0.0
C812 C 0.99503 0.37669 0.10559 0.0
C813 C 0.03071 0.41452 0.98691 0.0
C814 C 0.03612 0.41109 0.04062 0.0
C815 C 0.02428 0.39876 0.07813 0.0
C816 C 0.05406 0.41997 0.05817 0.0
C817 C 0.04262 0.42839 0.94652 0.0
C818 C 0.0661 0.41926 0.0224 0.0
C819 C 0.08301 0.4277 0.03851 0.0
C820 C 0.08822 0.43688 0.09117 0.0
C821 C 0.07607 0.43725 0.12764 0.0
C822 C 0.05914 0.42885 0.11128 0.0
H823 H 0.03582 0.43271 0.91751 0.0
H824 H 0.05224 0.43932 0.97168 0.0
H825 H 0.04913 0.42363 0.91814 0.0
H826 H 0.0624 0.4121 0.98202 0.0
H827 H 0.09199 0.427 0.00963 0.0
H828 H 0.67741 0.61282 0.98137 0.0
H829 H 0.66085 0.62572 0.01008 0.0
H830 H 0.61534 0.57793 0.99245 0.0
H831 H 0.6318 0.56497 0.96241 0.0
H832 H 0.61254 0.60294 0.94161 0.0
H833 H 0.63819 0.622 0.16592 0.0
H834 H 0.65427 0.62995 0.1108 0.0
H835 H 0.64169 0.60766 0.1223 0.0
C836 C 0.66388 0.60502 0.98381 0.0
C837 C 0.65593 0.58784 0.96984 0.0
C838 C 0.65444 0.6124 0.00065 0.0
C839 C 0.63688 0.60272 0.00461 0.0
C840 C 0.62889 0.58561 0.99011 0.0
H841 H 0.5746 0.63889 0.16625 0.0
H842 H 0.58904 0.62329 0.14363 0.0
C843 C 0.63832 0.57823 0.9729 0.0
C844 C 0.62682 0.61059 0.02178 0.0
H845 H 0.62235 0.63412 0.1285 0.0
C846 C 0.61459 0.60965 0.98268 0.0
C847 C 0.6293 0.6191 0.07583 0.0
C848 C 0.64145 0.61961 0.1214 0.0
C849 C 0.60513 0.6174 0.99531 0.0
C850 C 0.60826 0.62668 0.04789 0.0
C851 C 0.62012 0.62719 0.08786 0.0
C852 C 0.59956 0.63617 0.06173 0.0
C853 C 0.59176 0.61543 0.95241 0.0
C854 C 0.60094 0.6488 0.02376 0.0
C855 C 0.59263 0.65765 0.03631 0.0
C856 C 0.58292 0.65419 0.08753 0.0
C857 C 0.58188 0.6418 0.12627 0.0
C858 C 0.59014 0.63288 0.11346 0.0
H859 H 0.5875 0.6041 0.92457 0.0
H860 H 0.5807 0.61453 0.97545 0.0
H861 H 0.597 0.62652 0.923 0.0
H862 H 0.6085 0.65187 0.9844 0.0
H863 H 0.59386 0.66722 0.00581 0.0
H864 H 0.41174 0.07093 0.9815 0.0
H865 H 0.40199 0.04307 0.02264 0.0
H866 H 0.44756 0.04487 0.96527 0.0
H867 H 0.45729 0.07267 0.92276 0.0
H868 H 0.42034 0.01562 0.93704 0.0
H869 H 0.41613 0.0293 0.17044 0.0
H870 H 0.40462 0.03581 0.12441 0.0
H871 H 0.42708 0.04566 0.11679 0.0
C872 C 0.41975 0.06546 0.97787 0.0
C873 C 0.4353 0.07403 0.94888 0.0
C874 C 0.41422 0.04959 0.00195 0.0
C875 C 0.42421 0.04204 0.99822 0.0
C876 C 0.43972 0.05053 0.96915 0.0
H877 H 0.38989 0.94465 0.17408 0.0
H878 H 0.40778 0.97422 0.14585 0.0
C879 C 0.44524 0.06639 0.94475 0.0
C880 C 0.41788 0.02482 0.02121 0.0
H881 H 0.40017 0.00015 0.14177 0.0
C882 C 0.41618 0.0123 0.98206 0.0
C883 C 0.41276 0.02052 0.08025 0.0
C884 C 0.41541 0.03358 0.12552 0.0
C885 C 0.4086 0.99544 0.99944 0.0
C886 C 0.40225 0.99096 0.05713 0.0
C887 C 0.40484 0.00359 0.09731 0.0
C888 C 0.39168 0.97318 0.07482 0.0
C889 C 0.40722 0.98254 0.9555 0.0
C890 C 0.3766 0.96298 0.04505 0.0
C891 C 0.36644 0.94623 0.06088 0.0
C892 C 0.37106 0.93929 0.10729 0.0
C893 C 0.38604 0.94961 0.13797 0.0
C894 C 0.39625 0.96647 0.12194 0.0
H895 H 0.41716 0.98829 0.92146 0.0
H896 H 0.40815 0.97223 0.9772 0.0
H897 H 0.39488 0.97706 0.93303 0.0
H898 H 0.37262 0.96802 0.00954 0.0
H899 H 0.35494 0.93872 0.03652 0.0
H900 H 0.65514 0.08617 0.02359 0.0
H901 H 0.6414 0.05661 0.05132 0.0
H902 H 0.64814 0.04349 0.87591 0.0
H903 H 0.66182 0.07306 0.84734 0.0
H904 H 0.61546 0.02334 0.92073 0.0
H905 H 0.6639 0.0281 0.07721 0.0
H906 H 0.65666 0.04266 0.09106 0.0
H907 H 0.66789 0.04434 0.02455 0.0
C908 C 0.65379 0.07704 0.99079 0.0
C909 C 0.65964 0.08204 0.93314 0.0
C910 C 0.646 0.06015 0.00693 0.0
C911 C 0.64397 0.04791 0.9659 0.0
C912 C 0.64968 0.05278 0.90829 0.0
H913 H 0.61429 0.94416 0.04182 0.0
H914 H 0.62898 0.97353 0.01079 0.0
C915 C 0.6575 0.0697 0.89204 0.0
C916 C 0.63546 0.02997 0.98283 0.0
H917 H 0.6379 0.00238 0.07681 0.0
C918 C 0.62039 0.01872 0.95467 0.0
C919 C 0.64203 0.02397 0.02662 0.0
C920 C 0.65859 0.03534 0.05631 0.0
C921 C 0.61151 0.00166 0.97003 0.0
C922 C 0.61778 0.99578 0.0153 0.0
C923 C 0.63304 0.00697 0.04257 0.0
C924 C 0.60879 0.97802 0.03454 0.0
C925 C 0.59562 0.99003 0.93719 0.0
C926 C 0.59266 0.97089 0.05903 0.0
C927 C 0.5842 0.95409 0.07682 0.0
C928 C 0.59178 0.94415 0.07063 0.0
C929 C 0.60805 0.95144 0.04694 0.0
C930 C 0.61649 0.96823 0.02924 0.0
H931 H 0.59484 0.9955 0.89466 0.0
H932 H 0.59478 0.97775 0.92868 0.0
H933 H 0.58461 0.98775 0.96404 0.0
H934 H 0.58663 0.97834 0.06459 0.0
H935 H 0.57172 0.9489 0.09517 0.0
H936 H 0.07047 0.63711 0.12934 0.0
H937 H 0.04108 0.62228 0.0974 0.0
H938 H 0.05141 0.66247 0.97717 0.0
H939 H 0.08077 0.67746 0.00893 0.0
H940 H 0.01753 0.637 0.09503 0.0
H941 H 0.02949 0.61654 0.87927 0.0
H942 H 0.04375 0.62184 0.94047 0.0
H943 H 0.04288 0.63813 0.90023 0.0
C944 C 0.06649 0.64282 0.09619 0.0
C945 C 0.07797 0.65845 0.07154 0.0
C946 C 0.04971 0.63434 0.07808 0.0
C947 C 0.04419 0.64125 0.03465 0.0
C948 C 0.05552 0.6569 0.01041 0.0
H949 H 0.94914 0.60266 0.84951 0.0
H950 H 0.97837 0.6191 0.88173 0.0
C951 C 0.07226 0.66545 0.02878 0.0
C952 C 0.02654 0.63208 0.01465 0.0
H953 H 0.00166 0.60972 0.89956 0.0
C954 C 0.014 0.631 0.05236 0.0
C955 C 0.0221 0.62445 0.95879 0.0
C956 C 0.03519 0.62515 0.91719 0.0
C957 C 0.99705 0.62254 0.03544 0.0
C958 C 0.99252 0.61456 0.97996 0.0
C959 C 0.00514 0.6158 0.94209 0.0
C960 C 0.97476 0.60464 0.96074 0.0
C961 C 0.98422 0.62255 0.07669 0.0
C962 C 0.96308 0.59089 0.99395 0.0
C963 C 0.94636 0.58155 0.97594 0.0
C964 C 0.941 0.5856 0.92378 0.0
C965 C 0.95281 0.59919 0.88992 0.0
C966 C 0.96953 0.60861 0.90827 0.0
H967 H 0.99008 0.63324 0.10796 0.0
H968 H 0.97415 0.62326 0.05228 0.0
H969 H 0.97839 0.61078 0.10268 0.0
H970 H 0.96692 0.58729 0.0337 0.0
H971 H 0.93766 0.57107 0.00281 0.0
H972 H 0.34566 0.40332 0.03901 0.0
H973 H 0.3617 0.39028 0.00545 0.0
H974 H 0.40792 0.43563 0.04642 0.0
H975 H 0.39195 0.44865 0.08141 0.0
H976 H 0.38499 0.39919 0.91798 0.0
H977 H 0.41347 0.40033 0.13384 0.0
H978 H 0.3964 0.40455 0.126 0.0
H979 H 0.41755 0.42056 0.10915 0.0
C980 C 0.35924 0.41052 0.04105 0.0
C981 C 0.36753 0.42698 0.06334 0.0
C982 C 0.36839 0.40306 0.02171 0.0
C983 C 0.38599 0.41189 0.02421 0.0
C984 C 0.39433 0.42845 0.04531 0.0
H985 H 0.44916 0.37838 0.84956 0.0
H986 H 0.43479 0.39382 0.87588 0.0
C987 C 0.38518 0.43589 0.06508 0.0
C988 C 0.39555 0.40369 0.00488 0.0
H989 H 0.42296 0.39143 0.05245 0.0
C990 C 0.39331 0.39749 0.9473 0.0
C991 C 0.40625 0.40133 0.04345 0.0
C992 C 0.40847 0.40689 0.10672 0.0
C993 C 0.40145 0.38896 0.92729 0.0
C994 C 0.41238 0.38688 0.96559 0.0
C995 C 0.41467 0.39315 0.02303 0.0
C996 C 0.42094 0.3775 0.94825 0.0
C997 C 0.39787 0.3818 0.86601 0.0
C998 C 0.41818 0.36342 0.98083 0.0
C999 C 0.42651 0.35473 0.96644 0.0
C1000 C 0.4378 0.35993 0.91905 0.0
C1001 C 0.44049 0.374 0.88614 0.0
C1002 C 0.43221 0.38278 0.90089 0.0
H1003 H 0.38616 0.38076 0.84796 0.0
H1004 H 0.40839 0.3902 0.83675 0.0
H1005 H 0.39669 0.36919 0.8651 0.0
H1006 H 0.40956 0.35913 0.01758 0.0
H1007 H 0.4241 0.34393 0.99266 0.0
H1008 H 0.05841 0.22772 0.48472 0.0
H1009 H 0.08532 0.23048 0.51386 0.0
H1010 H 0.07496 0.18768 0.40693 0.0
H1011 H 0.04796 0.1846 0.37864 0.0
H1012 H 0.08844 0.1871 0.51322 0.0
H1013 H 0.12611 0.2493 0.40643 0.0
H1014 H 0.11144 0.24844 0.4602 0.0
H1015 H 0.10384 0.23616 0.39431 0.0
C1016 C 0.06182 0.21883 0.46775 0.0
C1017 C 0.05111 0.20602 0.42895 0.0
C1018 C 0.07724 0.22049 0.48414 0.0
C1019 C 0.08228 0.20949 0.46158 0.0
C1020 C 0.07135 0.19636 0.42458 0.0
H1021 H 0.18222 0.22372 0.43277 0.0
H1022 H 0.15452 0.2206 0.41696 0.0
C1023 C 0.05592 0.19463 0.40842 0.0
C1024 C 0.09906 0.21177 0.47532 0.0
H1025 H 0.1411 0.23905 0.46016 0.0
C1026 C 0.09997 0.19847 0.5018 0.0
C1027 C 0.11406 0.22652 0.45949 0.0
C1028 C 0.11389 0.24087 0.42804 0.0
C1029 C 0.11548 0.19951 0.5129 0.0
C1030 C 0.13049 0.21441 0.49823 0.0
C1031 C 0.12958 0.2277 0.47177 0.0
C1032 C 0.14728 0.21629 0.50839 0.0
C1033 C 0.11562 0.18447 0.53863 0.0
C1034 C 0.15248 0.2151 0.56513 0.0
C1035 C 0.16827 0.21676 0.5743 0.0
C1036 C 0.17926 0.21986 0.52692 0.0
C1037 C 0.1741 0.22132 0.47024 0.0
C1038 C 0.15826 0.21956 0.46111 0.0
H1039 H 0.10335 0.17277 0.53271 0.0
H1040 H 0.12559 0.18268 0.51828 0.0
H1041 H 0.11817 0.18645 0.58638 0.0
H1042 H 0.14437 0.21297 0.60243 0.0
H1043 H 0.17188 0.2157 0.61861 0.0
H1044 H 0.8094 0.96682 0.57437 0.0
H1045 H 0.81409 0.94329 0.55763 0.0
H1046 H 0.80044 0.94169 0.37584 0.0
H1047 H 0.79542 0.96508 0.39228 0.0
H1048 H 0.78487 0.91059 0.428 0.0
H1049 H 0.85328 0.94362 0.47313 0.0
H1050 H 0.84119 0.9455 0.53137 0.0
H1051 H 0.84189 0.95462 0.46093 0.0
C1052 C 0.80745 0.96154 0.5307 0.0
C1053 C 0.80206 0.9679 0.48461 0.0
C1054 C 0.81026 0.94815 0.52116 0.0
C1055 C 0.80791 0.94095 0.46528 0.0
C1056 C 0.80244 0.94716 0.41923 0.0
H1057 H 0.8375 0.86934 0.35083 0.0
H1058 H 0.83525 0.89442 0.36719 0.0
C1059 C 0.79958 0.96054 0.42873 0.0
C1060 C 0.81049 0.92648 0.45554 0.0
H1061 H 0.83948 0.91376 0.46692 0.0
C1062 C 0.79683 0.91129 0.43621 0.0
C1063 C 0.82616 0.92751 0.46563 0.0
C1064 C 0.84152 0.94373 0.48335 0.0
C1065 C 0.79831 0.89699 0.42783 0.0
C1066 C 0.81379 0.89783 0.44022 0.0
C1067 C 0.82757 0.91311 0.45828 0.0
C1068 C 0.81596 0.88301 0.4336 0.0
C1069 C 0.78336 0.88117 0.40498 0.0
C1070 C 0.80623 0.86848 0.46687 0.0
C1071 C 0.80744 0.85411 0.45756 0.0
C1072 C 0.81852 0.85408 0.41508 0.0
C1073 C 0.8288 0.86892 0.38373 0.0
C1074 C 0.82754 0.88327 0.39298 0.0
H1075 H 0.77408 0.88381 0.38345 0.0
H1076 H 0.7873 0.87469 0.37304 0.0
H1077 H 0.77698 0.8725 0.44214 0.0
H1078 H 0.79749 0.86816 0.4994 0.0
H1079 H 0.79944 0.84294 0.4828 0.0
H1080 H 0.05914 0.84266 0.39609 0.0
H1081 H 0.08405 0.8703 0.38326 0.0
H1082 H 0.08409 0.88013 0.56818 0.0
H1083 H 0.05899 0.85269 0.58135 0.0
H1084 H 0.08901 0.90675 0.50153 0.0
H1085 H 0.13184 0.88411 0.42988 0.0
H1086 H 0.1132 0.87608 0.38594 0.0
H1087 H 0.11156 0.87039 0.46214 0.0
C1088 C 0.06445 0.85067 0.43411 0.0
C1089 C 0.05709 0.84539 0.48982 0.0
C1090 C 0.07876 0.86643 0.42673 0.0
C1091 C 0.08611 0.87714 0.47496 0.0
C1092 C 0.07868 0.87202 0.53043 0.0
H1093 H 0.18604 0.96603 0.46418 0.0
H1094 H 0.16143 0.9392 0.49082 0.0
C1095 C 0.06432 0.85631 0.53784 0.0
C1096 C 0.10133 0.89385 0.46743 0.0
H1097 H 0.14174 0.91333 0.41763 0.0
C1098 C 0.10058 0.90819 0.48353 0.0
C1099 C 0.1165 0.8957 0.44492 0.0
C1100 C 0.11843 0.88075 0.43027 0.0
C1101 C 0.11445 0.92436 0.47622 0.0
C1102 C 0.12935 0.92623 0.45104 0.0
C1103 C 0.13025 0.91188 0.43645 0.0
C1104 C 0.14402 0.94295 0.43797 0.0
C1105 C 0.11305 0.93927 0.49605 0.0
C1106 C 0.1424 0.95395 0.39949 0.0
C1107 C 0.15639 0.9693 0.38445 0.0
C1108 C 0.17234 0.97387 0.40707 0.0
C1109 C 0.17392 0.9629 0.44607 0.0
C1110 C 0.15989 0.94756 0.46127 0.0
H1111 H 0.10313 0.93565 0.52986 0.0
H1112 H 0.12514 0.9493 0.51424 0.0
H1113 H 0.10965 0.94447 0.45798 0.0
H1114 H 0.13036 0.95049 0.37991 0.0
H1115 H 0.15474 0.97739 0.35399 0.0
H1116 H 0.23297 0.18447 0.50963 0.0
H1117 H 0.23587 0.16076 0.47602 0.0
H1118 H 0.19459 0.12738 0.58712 0.0
H1119 H 0.1914 0.15087 0.62009 0.0
H1120 H 0.24309 0.14031 0.54184 0.0
H1121 H 0.18165 0.10261 0.43161 0.0
H1122 H 0.18979 0.1243 0.45185 0.0
H1123 H 0.17963 0.10794 0.50569 0.0
C1124 C 0.22439 0.17205 0.52643 0.0
C1125 C 0.21191 0.16955 0.5674 0.0
C1126 C 0.22608 0.15853 0.50723 0.0
C1127 C 0.21529 0.14227 0.5284 0.0
C1128 C 0.2028 0.13975 0.56913 0.0
H1129 H 0.2314 0.05774 0.54731 0.0
H1130 H 0.2292 0.08275 0.56478 0.0
C1131 C 0.20107 0.15323 0.58821 0.0
C1132 C 0.21759 0.12805 0.51037 0.0
H1133 H 0.19694 0.08849 0.4529 0.0
C1134 C 0.23306 0.12903 0.52188 0.0
C1135 C 0.20457 0.11345 0.48361 0.0
C1136 C 0.18804 0.11204 0.46689 0.0
C1137 C 0.23567 0.11559 0.50907 0.0
C1138 C 0.22235 0.10064 0.48519 0.0
C1139 C 0.20707 0.09988 0.47189 0.0
C1140 C 0.22391 0.08558 0.47434 0.0
C1141 C 0.25272 0.11757 0.52091 0.0
C1142 C 0.22122 0.07858 0.41797 0.0
C1143 C 0.22229 0.06414 0.4079 0.0
C1144 C 0.22602 0.0564 0.45411 0.0
C1145 C 0.22863 0.06343 0.51061 0.0
C1146 C 0.22749 0.07781 0.52064 0.0
H1147 H 0.26267 0.13101 0.52224 0.0
H1148 H 0.25253 0.11197 0.56419 0.0
H1149 H 0.25609 0.1111 0.48699 0.0
H1150 H 0.21834 0.08431 0.38168 0.0
H1151 H 0.22017 0.05907 0.36386 0.0
H1152 H 0.83633 0.06146 0.51564 0.0
H1153 H 0.86132 0.08855 0.49533 0.0
H1154 H 0.89134 0.06457 0.48805 0.0
H1155 H 0.8665 0.0375 0.50954 0.0
H1156 H 0.90512 0.09199 0.55856 0.0
H1157 H 0.88763 0.10774 0.34497 0.0
H1158 H 0.87227 0.10299 0.40135 0.0
H1159 H 0.87647 0.08692 0.37612 0.0
C1160 C 0.8482 0.06191 0.50895 0.0
C1161 C 0.84943 0.04733 0.51428 0.0
C1162 C 0.86247 0.0774 0.49703 0.0
C1163 C 0.87816 0.07855 0.48949 0.0
C1164 C 0.87934 0.06395 0.49358 0.0
H1165 H 0.96986 0.16559 0.36731 0.0
H1166 H 0.94455 0.13817 0.37836 0.0
C1167 C 0.86512 0.04849 0.50579 0.0
C1168 C 0.89354 0.09508 0.48108 0.0
H1169 H 0.91154 0.12975 0.39308 0.0
C1170 C 0.90656 0.10022 0.5222 0.0
C1171 C 0.89546 0.10571 0.43332 0.0
C1172 C 0.88229 0.10052 0.38608 0.0
C1173 C 0.92137 0.11579 0.51736 0.0
C1174 C 0.92304 0.12668 0.4708 0.0
C1175 C 0.91014 0.12145 0.42912 0.0
C1176 C 0.93822 0.14345 0.4641 0.0
C1177 C 0.9352 0.12029 0.5616 0.0
C1178 C 0.94292 0.1556 0.50831 0.0
C1179 C 0.95744 0.17127 0.50233 0.0
C1180 C 0.96745 0.17514 0.4517 0.0
C1181 C 0.96249 0.16303 0.40696 0.0
C1182 C 0.94801 0.14735 0.41312 0.0
H1183 H 0.93388 0.10898 0.58413 0.0
H1184 H 0.94774 0.12702 0.54045 0.0
H1185 H 0.93461 0.12865 0.59546 0.0
H1186 H 0.93533 0.15298 0.54744 0.0
H1187 H 0.96077 0.18034 0.53737 0.0
H1188 H 0.98211 0.8388 0.53092 0.0
H1189 H 0.95411 0.83458 0.5112 0.0
H1190 H 0.93516 0.78164 0.48589 0.0
H1191 H 0.96316 0.78576 0.50451 0.0
H1192 H 0.92268 0.79522 0.40427 0.0
H1193 H 0.91623 0.81275 0.63178 0.0
H1194 H 0.93442 0.8285 0.59381 0.0
H1195 H 0.93268 0.80857 0.61033 0.0
C1196 C 0.97202 0.82628 0.52066 0.0
C1197 C 0.97483 0.81259 0.5199 0.0
C1198 C 0.95602 0.82388 0.50971 0.0
C1199 C 0.9425 0.80775 0.49833 0.0
C1200 C 0.9454 0.79418 0.49498 0.0
H1201 H 0.83725 0.77617 0.54132 0.0
H1202 H 0.86527 0.77948 0.54607 0.0
C1203 C 0.96142 0.79657 0.50569 0.0
C1204 C 0.92523 0.8049 0.49193 0.0
H1205 H 0.89474 0.80843 0.56487 0.0
C1206 C 0.91654 0.79808 0.43932 0.0
C1207 C 0.91717 0.80838 0.53818 0.0
C1208 C 0.92551 0.8148 0.59694 0.0
C1209 C 0.90004 0.79489 0.4314 0.0
C1210 C 0.89218 0.79887 0.47699 0.0
C1211 C 0.90083 0.80549 0.52981 0.0
C1212 C 0.87493 0.79616 0.47138 0.0
C1213 C 0.89107 0.78696 0.3748 0.0
C1214 C 0.87105 0.80444 0.42776 0.0
C1215 C 0.855 0.80251 0.42469 0.0
C1216 C 0.84256 0.7924 0.46563 0.0
C1217 C 0.84649 0.78405 0.50906 0.0
C1218 C 0.86251 0.78593 0.51189 0.0
H1219 H 0.89692 0.78053 0.35169 0.0
H1220 H 0.87762 0.77771 0.38279 0.0
H1221 H 0.89174 0.79687 0.34533 0.0
H1222 H 0.88055 0.81269 0.39685 0.0
H1223 H 0.85246 0.80923 0.39091 0.0
H1224 H 0.85512 0.57218 0.80014 0.0
H1225 H 0.82709 0.56882 0.79492 0.0
H1226 H 0.81187 0.53607 0.9454 0.0
H1227 H 0.83998 0.53958 0.95178 0.0
H1228 H 0.79754 0.53992 0.77697 0.0
H1229 H 0.79568 0.56847 0.9891 0.0
H1230 H 0.81492 0.57111 0.95808 0.0
H1231 H 0.80075 0.55207 0.99606 0.0
C1232 C 0.84589 0.56438 0.83255 0.0
C1233 C 0.84986 0.55619 0.87651 0.0
C1234 C 0.82985 0.56247 0.82944 0.0
C1235 C 0.81745 0.55237 0.87021 0.0
C1236 C 0.82135 0.54422 0.91428 0.0
H1237 H 0.71027 0.51025 0.8112 0.0
H1238 H 0.73823 0.51433 0.83056 0.0
C1239 C 0.83742 0.54618 0.91761 0.0
C1240 C 0.80021 0.54971 0.86453 0.0
H1241 H 0.76991 0.55386 0.93666 0.0
C1242 C 0.79151 0.543 0.81184 0.0
C1243 C 0.79244 0.55391 0.90985 0.0
C1244 C 0.80147 0.56194 0.96627 0.0
C1245 C 0.77521 0.54024 0.80335 0.0
C1246 C 0.76724 0.54394 0.84932 0.0
C1247 C 0.77598 0.55083 0.9018 0.0
C1248 C 0.75 0.5412 0.84282 0.0
C1249 C 0.76683 0.53372 0.74471 0.0
C1250 C 0.7472 0.55484 0.84589 0.0
C1251 C 0.7312 0.55253 0.83539 0.0
C1252 C 0.7177 0.53651 0.82166 0.0
C1253 C 0.72042 0.52277 0.82108 0.0
C1254 C 0.73641 0.52509 0.83182 0.0
H1255 H 0.77608 0.53563 0.70991 0.0
H1256 H 0.75786 0.52004 0.74819 0.0
H1257 H 0.75973 0.53999 0.73101 0.0
H1258 H 0.7575 0.56736 0.85469 0.0
H1259 H 0.72953 0.56338 0.83641 0.0
H1260 H 0.46416 0.29755 0.77135 0.0
H1261 H 0.46646 0.27255 0.7547 0.0
H1262 H 0.46972 0.26696 0.9412 0.0
H1263 H 0.46773 0.29213 0.95838 0.0
H1264 H 0.49327 0.26324 0.87974 0.0
H1265 H 0.43013 0.22403 0.78204 0.0
H1266 H 0.44237 0.24379 0.74547 0.0
H1267 H 0.43606 0.24337 0.8204 0.0
C1268 C 0.46531 0.291 0.8089 0.0
C1269 C 0.46566 0.29682 0.86623 0.0
C1270 C 0.46652 0.27664 0.79929 0.0
C1271 C 0.46794 0.26773 0.84678 0.0
C1272 C 0.46852 0.27361 0.90397 0.0
H1273 H 0.45568 0.16765 0.81333 0.0
H1274 H 0.45301 0.19172 0.844 0.0
C1275 C 0.46738 0.288 0.91365 0.0
C1276 C 0.46923 0.2525 0.83671 0.0
H1277 H 0.44925 0.21375 0.77288 0.0
C1278 C 0.4836 0.25237 0.85673 0.0
C1279 C 0.45647 0.23823 0.80756 0.0
C1280 C 0.44031 0.23724 0.78813 0.0
C1281 C 0.48578 0.23852 0.84684 0.0
C1282 C 0.47339 0.22459 0.81518 0.0
C1283 C 0.4588 0.22452 0.79669 0.0
C1284 C 0.4755 0.21014 0.79931 0.0
C1285 C 0.50126 0.2389 0.87073 0.0
C1286 C 0.489 0.21253 0.76391 0.0
C1287 C 0.49059 0.19884 0.74649 0.0
C1288 C 0.47861 0.18246 0.76367 0.0
C1289 C 0.46513 0.1801 0.79942 0.0
C1290 C 0.46358 0.19383 0.81693 0.0
H1291 H 0.50679 0.24787 0.90781 0.0
H1292 H 0.49841 0.22627 0.8859 0.0
H1293 H 0.51087 0.24301 0.83559 0.0
H1294 H 0.49813 0.22496 0.74872 0.0
H1295 H 0.50106 0.20109 0.71868 0.0
H1296 H 0.71952 0.18216 0.96769 0.0
H1297 H 0.74478 0.20975 0.95766 0.0
H1298 H 0.75558 0.19484 0.79151 0.0
H1299 H 0.73034 0.16734 0.80061 0.0
H1300 H 0.77898 0.21905 0.94259 0.0
H1301 H 0.75431 0.23786 0.75275 0.0
H1302 H 0.74106 0.2201 0.79866 0.0
H1303 H 0.75387 0.21827 0.74289 0.0
C1304 C 0.72729 0.18471 0.92907 0.0
C1305 C 0.72279 0.17256 0.8847 0.0
C1306 C 0.74173 0.20048 0.9235 0.0
C1307 C 0.75187 0.2044 0.87343 0.0
C1308 C 0.74773 0.19216 0.82998 0.0
H1309 H 0.85205 0.28659 0.80514 0.0
H1310 H 0.82759 0.25973 0.83186 0.0
C1311 C 0.73331 0.17641 0.83542 0.0
C1312 C 0.76663 0.2214 0.86595 0.0
H1313 H 0.78313 0.25557 0.77583 0.0
C1314 C 0.77989 0.2271 0.90635 0.0
C1315 C 0.76764 0.23194 0.81911 0.0
C1316 C 0.7534 0.22684 0.77614 0.0
C1317 C 0.79436 0.24295 0.90023 0.0
C1318 C 0.79562 0.25321 0.85206 0.0
C1319 C 0.78218 0.24764 0.81252 0.0
C1320 C 0.81081 0.26971 0.84108 0.0
C1321 C 0.80806 0.24863 0.94566 0.0
C1322 C 0.80948 0.28422 0.83703 0.0
C1323 C 0.82339 0.29956 0.82128 0.0
C1324 C 0.83889 0.30067 0.80898 0.0
C1325 C 0.8403 0.28619 0.81452 0.0
C1326 C 0.82636 0.27083 0.83016 0.0
H1327 H 0.80328 0.24161 0.98744 0.0
H1328 H 0.81807 0.24633 0.92901 0.0
H1329 H 0.81375 0.26226 0.95479 0.0
H1330 H 0.79757 0.28361 0.84508 0.0
H1331 H 0.82187 0.31046 0.81752 0.0
H1332 H 0.84683 0.47951 0.90838 0.0
H1333 H 0.84804 0.45409 0.88611 0.0
H1334 H 0.90189 0.48372 0.86894 0.0
H1335 H 0.90077 0.50916 0.88949 0.0
H1336 H 0.88825 0.46049 0.78336 0.0
H1337 H 0.86355 0.43088 1.00007 0.0
H1338 H 0.84979 0.43594 0.9605 0.0
H1339 H 0.86988 0.45251 0.98509 0.0
C1340 C 0.85892 0.48062 0.89955 0.0
C1341 C 0.87371 0.49635 0.90111 0.0
C1342 C 0.8596 0.46606 0.88726 0.0
C1343 C 0.8751 0.46697 0.87711 0.0
C1344 C 0.8898 0.48271 0.87696 0.0
H1345 H 0.89961 0.38789 0.90361 0.0
H1346 H 0.89604 0.41227 0.91765 0.0
C1347 C 0.88913 0.49725 0.88875 0.0
C1348 C 0.87615 0.45159 0.86699 0.0
H1349 H 0.86794 0.41454 0.92972 0.0
C1350 C 0.88379 0.45042 0.8153 0.0
C1351 C 0.87056 0.4386 0.90918 0.0
C1352 C 0.86313 0.43956 0.96709 0.0
C1353 C 0.88601 0.43663 0.80459 0.0
C1354 C 0.88003 0.42344 0.84608 0.0
C1355 C 0.87239 0.4246 0.89777 0.0
C1356 C 0.88199 0.40852 0.83746 0.0
C1357 C 0.89521 0.4366 0.74978 0.0
C1358 C 0.87508 0.39818 0.78815 0.0
C1359 C 0.87723 0.38433 0.77971 0.0
C1360 C 0.88613 0.38039 0.82093 0.0
C1361 C 0.89271 0.39056 0.87099 0.0
C1362 C 0.89067 0.4045 0.87911 0.0
H1363 H 0.90295 0.44945 0.73156 0.0
H1364 H 0.9035 0.4313 0.7585 0.0
H1365 H 0.88592 0.42877 0.71585 0.0
H1366 H 0.86796 0.40078 0.75622 0.0
H1367 H 0.87182 0.37664 0.74104 0.0
H1368 H 0.5329 0.37138 0.97941 0.0
H1369 H 0.55833 0.39818 0.96095 0.0
H1370 H 0.53051 0.41293 0.84705 0.0
H1371 H 0.50486 0.38623 0.86624 0.0
H1372 H 0.57541 0.41292 0.85983 0.0
H1373 H 0.55166 0.45164 0.96346 0.0
H1374 H 0.54114 0.42912 0.97127 0.0
H1375 H 0.53859 0.43835 0.90537 0.0
C1376 C 0.53217 0.38028 0.95024 0.0
C1377 C 0.51682 0.37673 0.92469 0.0
C1378 C 0.54673 0.3956 0.93973 0.0
C1379 C 0.54624 0.40767 0.90352 0.0
C1380 C 0.53108 0.40394 0.87624 0.0
H1381 H 0.63339 0.49626 0.76326 0.0
H1382 H 0.60832 0.46887 0.77712 0.0
C1383 C 0.51646 0.38864 0.88696 0.0
C1384 C 0.56162 0.42418 0.89496 0.0
H1385 H 0.57789 0.46631 0.91473 0.0
C1386 C 0.57597 0.4246 0.87183 0.0
C1387 C 0.56239 0.43938 0.91162 0.0
C1388 C 0.54769 0.43966 0.93984 0.0
C1389 C 0.59104 0.43983 0.86428 0.0
C1390 C 0.59165 0.45506 0.87919 0.0
C1391 C 0.57735 0.45462 0.9029 0.0
C1392 C 0.60702 0.4716 0.87092 0.0
C1393 C 0.60625 0.43942 0.84161 0.0
C1394 C 0.61441 0.48242 0.91886 0.0
C1395 C 0.62867 0.49819 0.91104 0.0
C1396 C 0.6358 0.50346 0.85502 0.0
C1397 C 0.62833 0.49257 0.80709 0.0
C1398 C 0.61403 0.47685 0.81494 0.0
H1399 H 0.60507 0.4269 0.84809 0.0
H1400 H 0.60756 0.44213 0.79389 0.0
H1401 H 0.61788 0.44902 0.86372 0.0
H1402 H 0.60914 0.47863 0.96242 0.0
H1403 H 0.63407 0.50624 0.9489 0.0
H1404 H 0.65312 0.17723 0.88492 0.0
H1405 H 0.62708 0.17664 0.85731 0.0
H1406 H 0.60002 0.12264 0.87121 0.0
H1407 H 0.62592 0.12306 0.89734 0.0
H1408 H 0.59095 0.13353 0.77429 0.0
H1409 H 0.58985 0.16811 0.97258 0.0
H1410 H 0.60846 0.17903 0.92857 0.0
H1411 H 0.60396 0.15993 0.96524 0.0
C1412 C 0.64164 0.16523 0.88175 0.0
C1413 C 0.64158 0.1502 0.89377 0.0
C1414 C 0.62676 0.16493 0.86634 0.0
C1415 C 0.61157 0.14962 0.86333 0.0
C1416 C 0.61159 0.1346 0.87355 0.0
H1417 H 0.50925 0.12718 0.89064 0.0
H1418 H 0.5376 0.13181 0.90465 0.0
C1419 C 0.62643 0.13487 0.88857 0.0
C1420 C 0.5955 0.14905 0.85048 0.0
H1421 H 0.56811 0.1607 0.90364 0.0
C1422 C 0.58598 0.13954 0.80235 0.0
C1423 C 0.58897 0.15673 0.88769 0.0
C1424 C 0.59823 0.16641 0.94174 0.0
C1425 C 0.57 0.13731 0.79075 0.0
C1426 C 0.56355 0.14514 0.82756 0.0
C1427 C 0.57315 0.15482 0.8753 0.0
C1428 C 0.54654 0.1428 0.81898 0.0
C1429 C 0.55994 0.12608 0.74052 0.0
C1430 C 0.54224 0.14767 0.76648 0.0
C1431 C 0.52599 0.14492 0.75813 0.0
C1432 C 0.51381 0.13744 0.80248 0.0
C1433 C 0.51831 0.13296 0.85558 0.0
C1434 C 0.53451 0.13561 0.8637 0.0
H1435 H 0.56482 0.11776 0.72635 0.0
H1436 H 0.54652 0.11814 0.75274 0.0
H1437 H 0.56071 0.13396 0.70249 0.0
H1438 H 0.55144 0.1536 0.73194 0.0
H1439 H 0.52301 0.1487 0.71695 0.0
H1440 H 0.49459 0.86723 0.26865 0.0
H1441 H 0.46696 0.86434 0.25342 0.0
H1442 H 0.48455 0.893 0.09352 0.0
H1443 H 0.5121 0.89558 0.10754 0.0
H1444 H 0.45768 0.88758 0.24764 0.0
H1445 H 0.44194 0.85259 0.03788 0.0
H1446 H 0.45943 0.85573 0.08278 0.0
H1447 H 0.4614 0.8721 0.03446 0.0
C1448 C 0.49258 0.87287 0.23006 0.0
C1449 C 0.50556 0.88156 0.18912 0.0
C1450 C 0.47676 0.8712 0.22144 0.0
C1451 C 0.47357 0.87819 0.17181 0.0
C1452 C 0.48657 0.8871 0.13133 0.0
H1453 H 0.39345 0.90089 0.13062 0.0
H1454 H 0.41968 0.90127 0.15113 0.0
C1455 C 0.50236 0.88866 0.13962 0.0
C1456 C 0.45679 0.87655 0.16342 0.0
H1457 H 0.42443 0.8637 0.06605 0.0
C1458 C 0.45036 0.88226 0.20808 0.0
C1459 C 0.4471 0.86934 0.11226 0.0
C1460 C 0.45273 0.86193 0.06439 0.0
C1461 C 0.4347 0.88131 0.20243 0.0
C1462 C 0.42539 0.87487 0.15003 0.0
C1463 C 0.43164 0.8688 0.10596 0.0
C1464 C 0.40927 0.87451 0.13955 0.0
C1465 C 0.4282 0.887 0.25308 0.0
C1466 C 0.39473 0.8594 0.12487 0.0
C1467 C 0.37972 0.85918 0.11227 0.0
C1468 C 0.37898 0.87407 0.11411 0.0
C1469 C 0.39353 0.88916 0.12932 0.0
C1470 C 0.40854 0.88939 0.14143 0.0
H1471 H 0.43397 0.88646 0.29524 0.0
H1472 H 0.43147 0.90022 0.24583 0.0
H1473 H 0.41434 0.87919 0.25706 0.0
H1474 H 0.39501 0.84778 0.12288 0.0
H1475 H 0.36875 0.84736 0.10066 0.0
H1476 H 0.12507 0.62718 0.11834 0.0
H1477 H 0.12635 0.60147 0.10543 0.0
H1478 H 0.15111 0.6096 0.27276 0.0
H1479 H 0.1496 0.63514 0.28671 0.0
H1480 H 0.15386 0.59788 0.09937 0.0
H1481 H 0.11385 0.5611 0.28647 0.0
H1482 H 0.11471 0.58004 0.26042 0.0
H1483 H 0.13098 0.58123 0.30744 0.0
C1484 C 0.13069 0.62346 0.15265 0.0
C1485 C 0.13716 0.63321 0.20371 0.0
C1486 C 0.13141 0.60876 0.14516 0.0
C1487 C 0.13858 0.60348 0.18853 0.0
C1488 C 0.14515 0.61321 0.23936 0.0
H1489 H 0.17495 0.53372 0.13035 0.0
H1490 H 0.17225 0.55826 0.15273 0.0
C1491 C 0.14436 0.62788 0.24707 0.0
C1492 C 0.13983 0.58817 0.17934 0.0
H1493 H 0.12926 0.55004 0.23861 0.0
C1494 C 0.14843 0.58739 0.1297 0.0
C1495 C 0.13256 0.57442 0.2186 0.0
C1496 C 0.12236 0.57412 0.27092 0.0
C1497 C 0.15017 0.57334 0.1186 0.0
C1498 C 0.14344 0.55985 0.15898 0.0
C1499 C 0.1346 0.5605 0.20816 0.0
C1500 C 0.14509 0.54478 0.14997 0.0
C1501 C 0.1589 0.57293 0.06309 0.0
C1502 C 0.1307 0.52893 0.14361 0.0
C1503 C 0.13219 0.51483 0.13144 0.0
C1504 C 0.14812 0.51635 0.12543 0.0
C1505 C 0.1625 0.53215 0.13411 0.0
C1506 C 0.16099 0.54621 0.14656 0.0
H1507 H 0.15928 0.58197 0.02994 0.0
H1508 H 0.17204 0.57642 0.07351 0.0
H1509 H 0.15256 0.56018 0.04343 0.0
H1510 H 0.1183 0.52753 0.14649 0.0
H1511 H 0.12085 0.50285 0.12522 0.0
H1512 H 0.51773 0.62974 0.16053 0.0
H1513 H 0.49325 0.60316 0.19008 0.0
H1514 H 0.46169 0.61332 0.07749 0.0
H1515 H 0.48595 0.64001 0.04871 0.0
H1516 H 0.4469 0.60027 0.1838 0.0
H1517 H 0.47181 0.56204 0.08397 0.0
H1518 H 0.48535 0.57688 0.13785 0.0
H1519 H 0.48107 0.58425 0.07061 0.0
C1520 C 0.50555 0.62637 0.14241 0.0
C1521 C 0.50381 0.63692 0.10182 0.0
C1522 C 0.4916 0.61113 0.15908 0.0
C1523 C 0.47572 0.60611 0.13502 0.0
C1524 C 0.47385 0.61691 0.09631 0.0
H1525 H 0.39015 0.50642 0.10424 0.0
H1526 H 0.41477 0.53411 0.08952 0.0
C1527 C 0.48775 0.63217 0.07987 0.0
C1528 C 0.46108 0.58943 0.14872 0.0
H1529 H 0.44623 0.54734 0.13593 0.0
C1530 C 0.44675 0.58868 0.17353 0.0
C1531 C 0.46084 0.57435 0.1344 0.0
C1532 C 0.47552 0.57434 0.10474 0.0
C1533 C 0.43217 0.57324 0.18442 0.0
C1534 C 0.43206 0.55816 0.17118 0.0
C1535 C 0.4464 0.55892 0.14645 0.0
C1536 C 0.41702 0.54144 0.18072 0.0
C1537 C 0.41686 0.57325 0.20831 0.0
C1538 C 0.41019 0.53629 0.23701 0.0
C1539 C 0.39603 0.52048 0.24555 0.0
C1540 C 0.38853 0.50943 0.19802 0.0
C1541 C 0.39556 0.51458 0.14182 0.0
C1542 C 0.40966 0.53041 0.1333 0.0
H1543 H 0.41757 0.58555 0.20159 0.0
H1544 H 0.40522 0.56332 0.18726 0.0
H1545 H 0.41595 0.57074 0.25615 0.0
H1546 H 0.41589 0.54444 0.27444 0.0
H1547 H 0.39103 0.51689 0.28951 0.0
H1548 H 0.55172 0.72103 0.03674 0.0
H1549 H 0.54941 0.74618 0.05003 0.0
H1550 H 0.55868 0.74577 0.23522 0.0
H1551 H 0.56133 0.72087 0.22233 0.0
H1552 H 0.52703 0.75018 0.11652 0.0
H1553 H 0.59181 0.79402 0.19169 0.0
H1554 H 0.58595 0.77405 0.15822 0.0
H1555 H 0.58169 0.77517 0.23461 0.0
C1556 C 0.55341 0.72636 0.08027 0.0
C1557 C 0.55679 0.71895 0.12845 0.0
C1558 C 0.55207 0.74073 0.08774 0.0
C1559 C 0.55415 0.74802 0.14342 0.0
C1560 C 0.55744 0.74062 0.19161 0.0
H1561 H 0.51809 0.8113 0.27866 0.0
H1562 H 0.52224 0.78829 0.24689 0.0
C1563 C 0.55885 0.72629 0.18418 0.0
C1564 C 0.55213 0.76291 0.15172 0.0
H1565 H 0.57151 0.80264 0.20783 0.0
C1566 C 0.53681 0.76171 0.13595 0.0
C1567 C 0.565 0.77805 0.17618 0.0
C1568 C 0.5821 0.7805 0.1906 0.0
C1569 C 0.53379 0.77503 0.14598 0.0
C1570 C 0.5463 0.7898 0.17354 0.0
C1571 C 0.56185 0.79123 0.18729 0.0
C1572 C 0.54335 0.80368 0.19038 0.0
C1573 C 0.51722 0.77315 0.12681 0.0
C1574 C 0.55403 0.82006 0.17002 0.0
C1575 C 0.55178 0.8333 0.18854 0.0
C1576 C 0.53885 0.83041 0.22805 0.0
C1577 C 0.5281 0.81396 0.24793 0.0
C1578 C 0.53038 0.80075 0.22951 0.0
H1579 H 0.5114 0.76372 0.09117 0.0
H1580 H 0.50843 0.76879 0.16454 0.0
H1581 H 0.51877 0.78528 0.11128 0.0
H1582 H 0.56418 0.82261 0.14006 0.0
H1583 H 0.56031 0.84583 0.17249 0.0
H1584 H 0.29248 0.84619 0.08325 0.0
H1585 H 0.26871 0.81815 0.10087 0.0
H1586 H 0.29312 0.81366 0.25572 0.0
H1587 H 0.31678 0.84196 0.23945 0.0
H1588 H 0.2664 0.78784 0.10638 0.0
H1589 H 0.24792 0.80245 0.3203 0.0
H1590 H 0.26301 0.81855 0.27252 0.0
H1591 H 0.26923 0.80678 0.31897 0.0
C1592 C 0.29282 0.83927 0.12115 0.0
C1593 C 0.3065 0.84639 0.16022 0.0
C1594 C 0.27921 0.82322 0.13109 0.0
C1595 C 0.27898 0.81391 0.18018 0.0
C1596 C 0.29281 0.82078 0.2184 0.0
H1597 H 0.20924 0.714 0.30592 0.0
H1598 H 0.23403 0.74092 0.28239 0.0
C1599 C 0.30639 0.83692 0.20881 0.0
C1600 C 0.26424 0.79703 0.19099 0.0
H1601 H 0.23395 0.77376 0.29186 0.0
C1602 C 0.25927 0.78479 0.14684 0.0
C1603 C 0.25487 0.79309 0.24369 0.0
C1604 C 0.2589 0.80595 0.29135 0.0
C1605 C 0.24534 0.76865 0.15438 0.0
C1606 C 0.23618 0.7647 0.2073 0.0
C1607 C 0.24111 0.77688 0.25143 0.0
C1608 C 0.22141 0.74795 0.218 0.0
C1609 C 0.24058 0.75582 0.1062 0.0
C1610 C 0.20615 0.74301 0.18922 0.0
C1611 C 0.19189 0.72765 0.2028 0.0
C1612 C 0.19271 0.717 0.24529 0.0
C1613 C 0.20816 0.72187 0.27291 0.0
C1614 C 0.22235 0.73726 0.25963 0.0
H1615 H 0.25034 0.76006 0.07149 0.0
H1616 H 0.23849 0.74374 0.12449 0.0
H1617 H 0.22864 0.75346 0.08576 0.0
H1618 H 0.20519 0.75121 0.1573 0.0
H1619 H 0.18017 0.72427 0.1808 0.0
H1620 H 0.31707 0.50534 0.22055 0.0
H1621 H 0.28978 0.50269 0.19924 0.0
H1622 H 0.26672 0.44875 0.20122 0.0
H1623 H 0.294 0.45126 0.22126 0.0
H1624 H 0.2551 0.45989 0.1112 0.0
H1625 H 0.253 0.48921 0.3213 0.0
H1626 H 0.27124 0.50222 0.27781 0.0
H1627 H 0.26823 0.48274 0.30702 0.0
C1628 C 0.30622 0.49291 0.21608 0.0
C1629 C 0.30768 0.47851 0.22314 0.0
C1630 C 0.29061 0.49142 0.20429 0.0
C1631 C 0.27616 0.47553 0.2 0.0
C1632 C 0.27769 0.46114 0.20481 0.0
H1633 H 0.17313 0.45382 0.2324 0.0
H1634 H 0.20056 0.45606 0.24586 0.0
C1635 C 0.2933 0.46261 0.21626 0.0
C1636 C 0.25941 0.47385 0.19133 0.0
H1637 H 0.23158 0.48381 0.25221 0.0
C1638 C 0.24993 0.46509 0.14203 0.0
C1639 C 0.25258 0.48039 0.2322 0.0
C1640 C 0.2617 0.48902 0.28787 0.0
C1641 C 0.23389 0.46291 0.132 0.0
C1642 C 0.22732 0.46999 0.17176 0.0
C1643 C 0.23671 0.47854 0.22148 0.0
C1644 C 0.21066 0.46853 0.16301 0.0
C1645 C 0.22401 0.45275 0.0796 0.0
C1646 C 0.20731 0.475 0.11232 0.0
C1647 C 0.19162 0.47366 0.10433 0.0
C1648 C 0.17902 0.46601 0.14727 0.0
C1649 C 0.18253 0.45979 0.19846 0.0
C1650 C 0.1982 0.46105 0.20623 0.0
H1651 H 0.22863 0.44438 0.06359 0.0
H1652 H 0.21045 0.44497 0.09022 0.0
H1653 H 0.22538 0.46139 0.04335 0.0
H1654 H 0.21688 0.48121 0.07908 0.0
H1655 H 0.18942 0.47874 0.06464 0.0
H1656 H 0.98633 0.21587 0.16777 0.0
H1657 H 0.99002 0.21505 0.06206 0.0
H1658 H 0.0342 0.21099 0.0908 0.0
H1659 H 0.03052 0.21162 0.19705 0.0
H1660 H 0.01807 0.23741 0.99441 0.0
H1661 H 0.00524 0.17165 0.97858 0.0
H1662 H 0.99968 0.17946 0.04236 0.0
H1663 H 0.02114 0.18505 0.0301 0.0
C1664 C 0.9968 0.21473 0.15177 0.0
C1665 C 0.0081 0.21375 0.19088 0.0
C1666 C 0.9989 0.2143 0.09131 0.0
C1667 C 0.01228 0.21281 0.06868 0.0
C1668 C 0.02364 0.21189 0.10744 0.0
H1669 H 0.03331 0.22988 0.69011 0.0
H1670 H 0.03829 0.23037 0.79596 0.0
C1671 C 0.02155 0.21232 0.16809 0.0
C1672 C 0.01432 0.21251 0.00435 0.0
H1673 H 0.01139 0.18703 0.89059 0.0
C1674 C 0.01681 0.22648 0.97163 0.0
C1675 C 0.01257 0.19817 0.97499 0.0
C1676 C 0.00939 0.18265 0.00804 0.0
C1677 C 0.0171 0.22635 0.91014 0.0
C1678 C 0.01512 0.21193 0.88066 0.0
C1679 C 0.01308 0.19812 0.91342 0.0
C1680 C 0.01321 0.21029 0.81609 0.0
C1681 C 0.01867 0.24131 0.87722 0.0
C1682 C 0.99774 0.19834 0.79222 0.0
C1683 C 0.99489 0.19796 0.73202 0.0
C1684 C 0.00748 0.20953 0.6944 0.0
C1685 C 0.02332 0.22087 0.71796 0.0
C1686 C 0.02617 0.22123 0.77842 0.0
H1687 H 0.01703 0.25006 0.90639 0.0
H1688 H 0.03133 0.24832 0.85707 0.0
H1689 H 0.00923 0.23721 0.84149 0.0
H1690 H 0.98759 0.18974 0.82052 0.0
H1691 H 0.98258 0.18897 0.7153 0.0
H1692 H 0.82121 0.80498 0.20623 0.0
H1693 H 0.82317 0.80495 0.09925 0.0
H1694 H 0.78019 0.81176 0.08487 0.0
H1695 H 0.77828 0.81206 0.19176 0.0
H1696 H 0.79911 0.78258 0.02322 0.0
H1697 H 0.8134 0.84745 0.97278 0.0
H1698 H 0.81533 0.84094 0.04569 0.0
H1699 H 0.79503 0.83564 0.01722 0.0
C1700 C 0.81226 0.80664 0.18037 0.0
C1701 C 0.7996 0.80855 0.20765 0.0
C1702 C 0.8134 0.80662 0.11919 0.0
C1703 C 0.80197 0.80859 0.08399 0.0
C1704 C 0.78938 0.8106 0.11106 0.0
H1705 H 0.78367 0.79812 0.7055 0.0
H1706 H 0.78263 0.80325 0.81074 0.0
C1707 C 0.78824 0.81065 0.17226 0.0
C1708 C 0.80266 0.80753 0.01909 0.0
H1709 H 0.80732 0.82905 0.89163 0.0
C1710 C 0.80097 0.79277 0.99452 0.0
C1711 C 0.80497 0.8208 0.98161 0.0
C1712 C 0.80743 0.83717 0.00554 0.0
C1713 C 0.80145 0.79088 0.93362 0.0
C1714 C 0.80394 0.80419 0.89617 0.0
C1715 C 0.80542 0.81888 0.9205 0.0
C1716 C 0.80549 0.80309 0.83177 0.0
C1717 C 0.79911 0.77454 0.90972 0.0
C1718 C 0.819 0.80195 0.80858 0.0
C1719 C 0.81964 0.79905 0.74879 0.0
C1720 C 0.80681 0.7973 0.71077 0.0
C1721 C 0.79375 0.7994 0.73356 0.0
C1722 C 0.79312 0.8023 0.79365 0.0
H1723 H 0.79334 0.76427 0.94262 0.0
H1724 H 0.79108 0.77065 0.86989 0.0
H1725 H 0.81153 0.77621 0.89739 0.0
H1726 H 0.82882 0.80281 0.83712 0.0
H1727 H 0.82996 0.79765 0.73273 0.0
H1728 H 0.21573 0.02313 0.17796 0.0
H1729 H 0.21371 0.02276 0.07113 0.0
H1730 H 0.20636 0.97265 0.06761 0.0
H1731 H 0.20864 0.97299 0.17459 0.0
H1732 H 0.23037 0.9937 0.99005 0.0
H1733 H 0.17319 0.99873 0.96424 0.0
H1734 H 0.18863 0.01487 0.01038 0.0
H1735 H 0.17892 0.99327 0.03311 0.0
C1736 C 0.21352 0.01195 0.1546 0.0
C1737 C 0.21233 0.99808 0.18489 0.0
C1738 C 0.21224 0.01172 0.09348 0.0
C1739 C 0.20959 0.99756 0.06141 0.0
C1740 C 0.20828 0.98365 0.09152 0.0
H1741 H 0.21416 0.98687 0.67851 0.0
H1742 H 0.20804 0.97973 0.7827 0.0
C1743 C 0.20958 0.98388 0.15268 0.0
C1744 C 0.20932 0.99778 0.99632 0.0
H1745 H 0.19069 0.00504 0.87909 0.0
C1746 C 0.22153 0.99591 0.96568 0.0
C1747 C 0.19775 0.00063 0.96461 0.0
C1748 C 0.18377 0.00182 0.99473 0.0
C1749 C 0.223 0.99762 0.90443 0.0
C1750 C 0.2118 0.00106 0.87296 0.0
C1751 C 0.19926 0.00241 0.90337 0.0
C1752 C 0.21381 0.00464 0.80916 0.0
C1753 C 0.23701 0.99652 0.87416 0.0
C1754 C 0.21847 0.02082 0.78935 0.0
C1755 C 0.22192 0.02491 0.7301 0.0
C1756 C 0.22069 0.01288 0.68931 0.0
C1757 C 0.21527 0.99644 0.70882 0.0
C1758 C 0.21186 0.99236 0.76834 0.0
H1759 H 0.24634 0.99681 0.90579 0.0
H1760 H 0.23167 0.98459 0.84919 0.0
H1761 H 0.24362 0.00703 0.84262 0.0
H1762 H 0.21997 0.03046 0.8201 0.0
H1763 H 0.22596 0.03766 0.71656 0.0
H1764 H 0.9749 0.776 0.76633 0.0
H1765 H 0.97466 0.77799 0.87335 0.0
H1766 H 0.02397 0.82199 0.86872 0.0
H1767 H 0.02421 0.82028 0.76193 0.0
H1768 H 0.99641 0.77613 0.95051 0.0
H1769 H 0.99896 0.83719 0.97596 0.0
H1770 H 0.99376 0.82595 0.90722 0.0
H1771 H 0.01534 0.83856 0.9295 0.0
C1772 C 0.98562 0.78621 0.78802 0.0
C1773 C 0.99956 0.79801 0.75552 0.0
C1774 C 0.98546 0.78733 0.84919 0.0
C1775 C 0.99917 0.80029 0.87898 0.0
C1776 C 0.01306 0.81212 0.84662 0.0
H1777 H 0.03993 0.82563 0.22286 0.0
H1778 H 0.0325 0.82393 0.11933 0.0
C1779 C 0.01323 0.81105 0.78552 0.0
C1780 C 0.99951 0.80087 0.94404 0.0
H1781 H 0.0062 0.82672 0.06092 0.0
C1782 C 0.99827 0.78707 0.97478 0.0
C1783 C 0.00192 0.81516 0.9756 0.0
C1784 C 0.0024 0.82998 0.94542 0.0
C1785 C 0.00019 0.78749 0.03595 0.0
C1786 C 0.0032 0.80201 0.06723 0.0
C1787 C 0.00392 0.81561 0.03676 0.0
C1788 C 0.00692 0.80379 0.1309 0.0
C1789 C -0.00024 0.7727 0.06635 0.0
C1790 C 0.99484 0.79332 0.17199 0.0
C1791 C 0.99903 0.79426 0.23146 0.0
C1792 C 0.0154 0.8057 0.25066 0.0
C1793 C 0.02724 0.81661 0.20956 0.0
C1794 C 0.02302 0.81569 0.15034 0.0
H1795 H 0.00028 0.76378 0.03476 0.0
H1796 H 0.01042 0.777 0.09746 0.0
H1797 H 0.98794 0.76585 0.09184 0.0
H1798 H 0.98226 0.78421 0.15791 0.0
H1799 H 0.98962 0.78572 0.26202 0.0
H1800 H 0.19724 0.21902 0.26442 0.0
H1801 H 0.19866 0.21334 0.16077 0.0
H1802 H 0.24033 0.20554 0.19573 0.0
H1803 H 0.23908 0.21134 0.30011 0.0
H1804 H 0.24612 0.2286 0.10506 0.0
H1805 H 0.18561 0.16985 0.07153 0.0
H1806 H 0.18339 0.18591 0.10809 0.0
H1807 H 0.19472 0.17708 0.14329 0.0
C1808 C 0.20656 0.21584 0.25038 0.0
C1809 C 0.21806 0.21564 0.29058 0.0
C1810 C 0.20727 0.21249 0.19106 0.0
C1811 C 0.21946 0.20881 0.17061 0.0
C1812 C 0.23074 0.20822 0.21074 0.0
H1813 H 0.2478 0.2056 0.80443 0.0
H1814 H 0.24615 0.20361 0.91149 0.0
C1815 C 0.22998 0.21149 0.27034 0.0
C1816 C 0.22123 0.20707 0.1067 0.0
H1817 H 0.1994 0.18553 0.9851 0.0
C1818 C 0.23603 0.21902 0.07884 0.0
C1819 C 0.208 0.19461 0.07266 0.0
C1820 C 0.19209 0.18103 0.10044 0.0
C1821 C 0.23768 0.21934 0.01754 0.0
C1822 C 0.22426 0.20715 0.98331 0.0
C1823 C 0.20965 0.19489 0.01137 0.0
C1824 C 0.22483 0.20743 0.91824 0.0
C1825 C 0.25344 0.2332 0.98983 0.0
C1826 C 0.21304 0.20968 0.88633 0.0
C1827 C 0.21386 0.21069 0.82514 0.0
C1828 C 0.22647 0.20943 0.79457 0.0
C1829 C 0.23801 0.20676 0.82659 0.0
C1830 C 0.23715 0.2057 0.88783 0.0
H1831 H 0.26075 0.24367 0.02093 0.0
H1832 H 0.26156 0.2281 0.97574 0.0
H1833 H 0.2504 0.23831 0.95054 0.0
H1834 H 0.20339 0.21098 0.9089 0.0
H1835 H 0.20474 0.2127 0.8019 0.0
H1836 H 0.80332 0.03201 0.25744 0.0
H1837 H 0.8076 0.03795 0.15195 0.0
H1838 H 0.80178 0.98905 0.12188 0.0
H1839 H 0.7973 0.98292 0.22652 0.0
H1840 H 0.83083 0.03736 0.06863 0.0
H1841 H 0.76475 0.98932 0.02087 0.0
H1842 H 0.77202 0.99713 0.09392 0.0
H1843 H 0.7759 0.98144 0.0626 0.0
C1844 C 0.80315 0.02261 0.2284 0.0
C1845 C 0.79975 0.00691 0.25019 0.0
C1846 C 0.80559 0.02602 0.16823 0.0
C1847 C 0.80466 0.0138 0.12916 0.0
C1848 C 0.80219 0.9985 0.15124 0.0
H1849 H 0.8067 0.99835 0.75955 0.0
H1850 H 0.80721 0.99773 0.86657 0.0
C1851 C 0.79968 0.99505 0.21111 0.0
C1852 C 0.80549 0.01658 0.06503 0.0
H1853 H 0.78311 0.00036 0.93903 0.0
C1854 C 0.82038 0.0294 0.0402 0.0
C1855 C 0.79176 0.00622 0.02826 0.0
C1856 C 0.77514 0.99286 0.05271 0.0
C1857 C 0.8221 0.03169 0.97911 0.0
C1858 C 0.80853 0.02098 0.94239 0.0
C1859 C 0.79354 0.00845 0.96739 0.0
C1860 C 0.80962 0.02219 0.87769 0.0
C1861 C 0.83855 0.04516 0.95411 0.0
C1862 C 0.81086 0.0362 0.84858 0.0
C1863 C 0.81052 0.03659 0.78728 0.0
C1864 C 0.80889 0.02294 0.75418 0.0
C1865 C 0.80796 0.00907 0.78364 0.0
C1866 C 0.80826 0.00869 0.8448 0.0
H1867 H 0.84874 0.05022 0.9874 0.0
H1868 H 0.84243 0.04022 0.91646 0.0
H1869 H 0.83699 0.05567 0.93784 0.0
H1870 H 0.81164 0.04663 0.87328 0.0
H1871 H 0.81122 0.04744 0.76594 0.0
H1872 H 0.65235 0.52439 0.12065 0.0
H1873 H 0.65965 0.52604 0.22429 0.0
H1874 H 0.71017 0.56521 0.186 0.0
H1875 H 0.70295 0.56373 0.08176 0.0
H1876 H 0.68579 0.5228 0.2826 0.0
H1877 H 0.69245 0.58604 0.3091 0.0
H1878 H 0.68215 0.57285 0.24647 0.0
H1879 H 0.70463 0.58377 0.25187 0.0
C1880 C 0.66506 0.53328 0.13404 0.0
C1881 C 0.67703 0.54404 0.09299 0.0
C1882 C 0.66921 0.53418 0.19332 0.0
C1883 C 0.68536 0.54589 0.21283 0.0
C1884 C 0.69756 0.55624 0.17182 0.0
H1885 H 0.71736 0.57315 0.57761 0.0
H1886 H 0.71762 0.57128 0.47056 0.0
C1887 C 0.69343 0.55531 0.1123 0.0
C1888 C 0.68906 0.54761 0.27648 0.0
H1889 H 0.69605 0.57349 0.39333 0.0
C1890 C 0.68818 0.53393 0.30684 0.0
C1891 C 0.6922 0.56216 0.30782 0.0
C1892 C 0.69282 0.57704 0.27748 0.0
C1893 C 0.69015 0.53432 0.36798 0.0
C1894 C 0.69268 0.54864 0.39962 0.0
C1895 C 0.69408 0.56252 0.36899 0.0
C1896 C 0.69298 0.54917 0.46465 0.0
C1897 C 0.68949 0.5194 0.39809 0.0
C1898 C 0.679 0.53742 0.49682 0.0
C1899 C 0.67882 0.53842 0.55792 0.0
C1900 C 0.69256 0.55132 0.58809 0.0
C1901 C 0.70658 0.56305 0.55577 0.0
C1902 C 0.70676 0.562 0.49459 0.0
H1903 H 0.69283 0.51212 0.36751 0.0
H1904 H 0.69811 0.52334 0.43632 0.0
H1905 H 0.67652 0.51092 0.41393 0.0
H1906 H 0.66805 0.52766 0.47458 0.0
H1907 H 0.66777 0.52924 0.58138 0.0
H1908 H 0.4395 0.14136 0.52421 0.0
H1909 H 0.44126 0.14268 0.41686 0.0
H1910 H 0.4881 0.14266 0.42445 0.0
H1911 H 0.48644 0.14124 0.53133 0.0
H1912 H 0.46764 0.16668 0.33982 0.0
H1913 H 0.45719 0.10201 0.31897 0.0
H1914 H 0.45249 0.1096 0.38527 0.0
H1915 H 0.47377 0.11519 0.3686 0.0
C1916 C 0.45021 0.1417 0.50304 0.0
C1917 C 0.46276 0.14104 0.53633 0.0
C1918 C 0.4512 0.14249 0.44176 0.0
C1919 C 0.46469 0.14253 0.41285 0.0
C1920 C 0.47746 0.14237 0.44598 0.0
H1921 H 0.4968 0.13894 0.06403 0.0
H1922 H 0.49417 0.14251 0.16874 0.0
C1923 C 0.4765 0.14161 0.50709 0.0
C1924 C 0.4653 0.14228 0.348 0.0
H1925 H 0.46611 0.11891 0.23325 0.0
C1926 C 0.46717 0.1562 0.3163 0.0
C1927 C 0.46457 0.12853 0.31764 0.0
C1928 C 0.46173 0.1129 0.3492 0.0
C1929 C 0.46901 0.157 0.25495 0.0
C1930 C 0.46875 0.14343 0.22486 0.0
C1931 C 0.46645 0.12935 0.25655 0.0
C1932 C 0.47128 0.14357 0.16064 0.0
C1933 C 0.47175 0.17252 0.22298 0.0
C1934 C 0.45945 0.14334 0.12116 0.0
C1935 C 0.46094 0.14133 0.06095 0.0
C1936 C 0.47421 0.13938 0.0395 0.0
C1937 C 0.48639 0.14033 0.07906 0.0
C1938 C 0.48491 0.14237 0.13897 0.0
H1939 H 0.47503 0.18314 0.25346 0.0
H1940 H 0.48192 0.17647 0.18996 0.0
H1941 H 0.46007 0.16971 0.19946 0.0
H1942 H 0.4487 0.144 0.13708 0.0
H1943 H 0.4513 0.14055 0.03165 0.0
H1944 H 0.884 0.31567 0.05095 0.0
H1945 H 0.8798 0.30979 0.15631 0.0
H1946 H 0.87952 0.35605 0.1835 0.0
H1947 H 0.88398 0.36214 0.07883 0.0
H1948 H 0.90208 0.35305 0.25403 0.0
H1949 H 0.8396 0.2951 0.26559 0.0
H1950 H 0.85428 0.29399 0.21643 0.0
H1951 H 0.84677 0.30826 0.20114 0.0
C1952 C 0.88272 0.32442 0.07923 0.0
C1953 C 0.88441 0.33942 0.05656 0.0
C1954 C 0.88024 0.32101 0.13942 0.0
C1955 C 0.87923 0.33243 0.17773 0.0
C1956 C 0.88026 0.34706 0.15475 0.0
H1957 H 0.87594 0.34653 0.55084 0.0
H1958 H 0.8749 0.34745 0.44389 0.0
C1959 C 0.88281 0.35052 0.09484 0.0
C1960 C 0.87863 0.33003 0.24221 0.0
H1961 H 0.8553 0.30412 0.3541 0.0
C1962 C 0.89181 0.34238 0.27588 0.0
C1963 C 0.8653 0.31602 0.27057 0.0
C1964 C 0.8506 0.30263 0.23675 0.0
C1965 C 0.89203 0.34113 0.3371 0.0
C1966 C 0.8786 0.32727 0.36556 0.0
C1967 C 0.86554 0.31475 0.33201 0.0
C1968 C 0.87791 0.32583 0.4303 0.0
C1969 C 0.90674 0.35458 0.37086 0.0
C1970 C 0.87945 0.31306 0.45804 0.0
C1971 C 0.88005 0.31248 0.51928 0.0
C1972 C 0.87901 0.32462 0.55375 0.0
C1973 C 0.87688 0.33704 0.52568 0.0
C1974 C 0.87632 0.33762 0.46455 0.0
H1975 H 0.91773 0.36213 0.34202 0.0
H1976 H 0.90303 0.36319 0.39125 0.0
H1977 H 0.91061 0.34898 0.40645 0.0
H1978 H 0.88064 0.30381 0.43227 0.0
H1979 H 0.88164 0.30271 0.53949 0.0
H1980 H 0.63786 0.10739 0.15853 0.0
H1981 H 0.63837 0.10958 0.26547 0.0
H1982 H 0.68673 0.15472 0.25687 0.0
H1983 H 0.68626 0.15274 0.14979 0.0
H1984 H 0.66182 0.10915 0.34057 0.0
H1985 H 0.66052 0.16839 0.36692 0.0
H1986 H 0.65515 0.15683 0.2988 0.0
H1987 H 0.6768 0.1702 0.31879 0.0
C1988 C 0.64854 0.1179 0.17925 0.0
C1989 C 0.66201 0.12992 0.14543 0.0
C1990 C 0.64881 0.11911 0.24046 0.0
C1991 C 0.66247 0.13243 0.26924 0.0
C1992 C 0.67588 0.14452 0.23564 0.0
H1993 H 0.70083 0.16003 0.61777 0.0
H1994 H 0.69371 0.15841 0.5141 0.0
C1995 C 0.67564 0.14331 0.17437 0.0
C1996 C 0.66314 0.13312 0.33443 0.0
H1997 H 0.66759 0.15807 0.452 0.0
C1998 C 0.66287 0.11975 0.36504 0.0
C1999 C 0.66452 0.14696 0.36629 0.0
C2000 C 0.66411 0.16135 0.33614 0.0
C2001 C 0.66462 0.12012 0.42635 0.0
C2002 C 0.66632 0.13412 0.45818 0.0
C2003 C 0.66622 0.14733 0.42766 0.0
C2004 C 0.66953 0.13582 0.52248 0.0
C2005 C 0.66537 0.10586 0.45619 0.0
C2006 C 0.65803 0.12399 0.56233 0.0
C2007 C 0.66209 0.12485 0.62202 0.0
C2008 C 0.67771 0.13762 0.64288 0.0
C2009 C 0.68874 0.14996 0.60329 0.0
C2010 C 0.68469 0.14907 0.54386 0.0
H2011 H 0.66755 0.09799 0.42445 0.0
H2012 H 0.6755 0.11069 0.48963 0.0
H2013 H 0.65326 0.09771 0.4787 0.0
H2014 H 0.6461 0.11385 0.54703 0.0
H2015 H 0.65328 0.11519 0.65131 0.0
H2016 H 0.87153 0.54302 0.13856 0.0
H2017 H 0.87003 0.54282 0.24585 0.0
H2018 H 0.91364 0.53698 0.25608 0.0
H2019 H 0.91535 0.53731 0.14905 0.0
H2020 H 0.86716 0.51818 0.32845 0.0
H2021 H 0.92657 0.57879 0.35724 0.0
H2022 H 0.91597 0.57216 0.28748 0.0
H2023 H 0.92828 0.56334 0.31422 0.0
C2024 C 0.88079 0.54166 0.16358 0.0
C2025 C 0.89364 0.5403 0.13508 0.0
C2026 C 0.8799 0.54152 0.22493 0.0
C2027 C 0.89187 0.54014 0.25901 0.0
C2028 C 0.90445 0.53837 0.23072 0.0
H2029 H 0.90911 0.54981 0.63926 0.0
H2030 H 0.91008 0.54352 0.53518 0.0
C2031 C 0.90535 0.53848 0.16944 0.0
C2032 C 0.89128 0.54073 0.32409 0.0
H2033 H 0.91289 0.5641 0.44327 0.0
C2034 C 0.87717 0.52819 0.3536 0.0
C2035 C 0.90439 0.55375 0.35691 0.0
C2036 C 0.91962 0.56787 0.3275 0.0
C2037 C 0.87579 0.52834 0.41501 0.0
C2038 C 0.88874 0.54156 0.44774 0.0
C2039 C 0.903 0.55392 0.41827 0.0
C2040 C 0.88727 0.54354 0.51191 0.0
C2041 C 0.86054 0.51424 0.44425 0.0
C2042 C 0.87408 0.5455 0.53361 0.0
C2043 C 0.87347 0.54903 0.59286 0.0
C2044 C 0.88612 0.55083 0.63189 0.0
C2045 C 0.8991 0.54839 0.61053 0.0
C2046 C 0.89971 0.54487 0.551 0.0
H2047 H 0.8548 0.50271 0.41681 0.0
H2048 H 0.86372 0.51118 0.4878 0.0
H2049 H 0.85097 0.51809 0.4506 0.0
H2050 H 0.86454 0.54492 0.50427 0.0
H2051 H 0.86332 0.55089 0.60765 0.0
H2052 H 0.46959 0.32777 0.14441 0.0
H2053 H 0.47195 0.32872 0.25126 0.0
H2054 H 0.48288 0.38009 0.25055 0.0
H2055 H 0.48031 0.37921 0.14361 0.0
H2056 H 0.49919 0.35022 0.32363 0.0
H2057 H 0.44318 0.35695 0.36449 0.0
H2058 H 0.44727 0.35072 0.29418 0.0
H2059 H 0.45877 0.37233 0.31648 0.0
C2060 C 0.47248 0.33928 0.1669 0.0
C2061 C 0.47464 0.35338 0.13548 0.0
C2062 C 0.47387 0.33981 0.22797 0.0
C2063 C 0.47737 0.3544 0.25884 0.0
C2064 C 0.47987 0.36861 0.22762 0.0
H2065 H 0.47645 0.3664 0.64069 0.0
H2066 H 0.48202 0.37327 0.53614 0.0
C2067 C 0.47846 0.3681 0.16648 0.0
C2068 C 0.47825 0.35457 0.32375 0.0
H2069 H 0.45834 0.35664 0.44717 0.0
C2070 C 0.49033 0.35173 0.3507 0.0
C2071 C 0.46673 0.35664 0.35891 0.0
C2072 C 0.45315 0.3592 0.33226 0.0
C2073 C 0.49103 0.35062 0.41193 0.0
C2074 C 0.47917 0.35214 0.44697 0.0
C2075 C 0.46745 0.35554 0.42015 0.0
C2076 C 0.47767 0.34874 0.51086 0.0
C2077 C 0.50439 0.34773 0.43855 0.0
C2078 C 0.47349 0.33273 0.53121 0.0
C2079 C 0.47028 0.32877 0.5906 0.0
C2080 C 0.47111 0.34073 0.63093 0.0
C2081 C 0.47579 0.35694 0.61078 0.0
C2082 C 0.47893 0.36087 0.5511 0.0
H2083 H 0.51536 0.35205 0.40883 0.0
H2084 H 0.50877 0.35432 0.48125 0.0
H2085 H 0.4991 0.33409 0.44619 0.0
H2086 H 0.47211 0.32307 0.5008 0.0
H2087 H 0.46669 0.31616 0.60461 0.0
H2088 H 0.37123 0.90833 0.38834 0.0
H2089 H 0.37573 0.91075 0.49475 0.0
H2090 H 0.32535 0.86972 0.52136 0.0
H2091 H 0.32068 0.8673 0.41568 0.0
H2092 H 0.33334 0.89869 0.58674 0.0
H2093 H 0.38197 0.88004 0.61185 0.0
H2094 H 0.3864 0.89615 0.55862 0.0
H2095 H 0.36918 0.87529 0.54677 0.0
C2096 C 0.3612 0.89968 0.41685 0.0
C2097 C 0.34558 0.88765 0.39355 0.0
C2098 C 0.36382 0.90104 0.47759 0.0
C2099 C 0.35091 0.89033 0.51584 0.0
C2100 C 0.33547 0.87809 0.49256 0.0
H2101 H 0.33017 0.87589 0.88602 0.0
H2102 H 0.32979 0.8748 0.77895 0.0
C2103 C 0.33284 0.87673 0.43209 0.0
C2104 C 0.35294 0.89244 0.58026 0.0
H2105 H 0.37433 0.88921 0.69729 0.0
C2106 C 0.3423 0.89663 0.61093 0.0
C2107 C 0.36474 0.88987 0.61154 0.0
C2108 C 0.37617 0.88496 0.58077 0.0
C2109 C 0.34307 0.89821 0.67216 0.0
C2110 C 0.35457 0.89523 0.70363 0.0
C2111 C 0.36548 0.89141 0.67295 0.0
C2112 C 0.3551 0.8956 0.76855 0.0
C2113 C 0.33163 0.90319 0.7026 0.0
C2114 C 0.36964 0.90737 0.79818 0.0
C2115 C 0.36993 0.908 0.85949 0.0
C2116 C 0.35571 0.89679 0.89216 0.0
C2117 C 0.3413 0.88479 0.86223 0.0
C2118 C 0.34103 0.88418 0.80102 0.0
H2119 H 0.32698 0.90934 0.67196 0.0
H2120 H 0.32059 0.89178 0.72038 0.0
H2121 H 0.33817 0.91186 0.73968 0.0
H2122 H 0.38066 0.91623 0.77384 0.0
H2123 H 0.38125 0.91735 0.88118 0.0
H2124 H 0.10874 0.47574 0.8663 0.0
H2125 H 0.11082 0.47665 0.75907 0.0
H2126 H 0.15805 0.47753 0.77035 0.0
H2127 H 0.15609 0.47654 0.87727 0.0
H2128 H 0.13745 0.5005 0.68109 0.0
H2129 H 0.12726 0.43575 0.6681 0.0
H2130 H 0.12234 0.44376 0.73283 0.0
H2131 H 0.14371 0.44951 0.71721 0.0
C2132 C 0.11963 0.47623 0.846 0.0
C2133 C 0.13218 0.47591 0.88035 0.0
C2134 C 0.1208 0.47679 0.78476 0.0
C2135 C 0.13447 0.47693 0.75694 0.0
C2136 C 0.14728 0.47718 0.79108 0.0
H2137 H 0.16324 0.46845 0.40605 0.0
H2138 H 0.16192 0.47319 0.51068 0.0
C2139 C 0.14615 0.47665 0.85219 0.0
C2140 C 0.13512 0.47619 0.69221 0.0
H2141 H 0.13522 0.45162 0.58038 0.0
C2142 C 0.13688 0.48981 0.65886 0.0
C2143 C 0.13428 0.46216 0.66357 0.0
C2144 C 0.13164 0.44688 0.69709 0.0
C2145 C 0.13838 0.48998 0.59745 0.0
C2146 C 0.13783 0.47605 0.56894 0.0
C2147 C 0.13576 0.46234 0.60239 0.0
C2148 C 0.13961 0.47536 0.50452 0.0
C2149 C 0.14102 0.50522 0.56378 0.0
C2150 C 0.12765 0.47532 0.46607 0.0
C2151 C 0.12841 0.47268 0.40592 0.0
C2152 C 0.14104 0.46986 0.38347 0.0
C2153 C 0.15331 0.47051 0.42191 0.0
C2154 C 0.15258 0.47322 0.48177 0.0
H2155 H 0.14516 0.5163 0.59281 0.0
H2156 H 0.15051 0.50845 0.5286 0.0
H2157 H 0.12902 0.50248 0.54287 0.0
H2158 H 0.11736 0.47665 0.48282 0.0
H2159 H 0.11872 0.47215 0.3775 0.0
H2160 H 0.52973 0.6578 0.87246 0.0
H2161 H 0.52485 0.65356 0.7666 0.0
H2162 H 0.57648 0.69098 0.73422 0.0
H2163 H 0.58154 0.69519 0.83955 0.0
H2164 H 0.52867 0.67693 0.68101 0.0
H2165 H 0.5704 0.65093 0.6367 0.0
H2166 H 0.56355 0.65227 0.70972 0.0
H2167 H 0.58081 0.6704 0.67618 0.0
C2168 C 0.54007 0.66508 0.84279 0.0
C2169 C 0.55605 0.67679 0.86443 0.0
C2170 C 0.53724 0.66263 0.78238 0.0
C2171 C 0.55038 0.67174 0.74269 0.0
C2172 C 0.56628 0.68354 0.76417 0.0
H2173 H 0.55789 0.70398 0.3931 0.0
H2174 H 0.55293 0.6985 0.49776 0.0
C2175 C 0.56911 0.68601 0.82442 0.0
C2176 C 0.54745 0.66947 0.67865 0.0
H2177 H 0.56272 0.66167 0.55352 0.0
C2178 C 0.53591 0.67333 0.65312 0.0
C2179 C 0.55665 0.66445 0.64247 0.0
C2180 C 0.56842 0.6591 0.66769 0.0
C2181 C 0.53409 0.67331 0.59199 0.0
C2182 C 0.54425 0.66956 0.55566 0.0
C2183 C 0.55503 0.6647 0.58138 0.0
C2184 C 0.54514 0.67212 0.49132 0.0
C2185 C 0.5215 0.67758 0.5669 0.0
C2186 C 0.54246 0.65911 0.45274 0.0
C2187 C 0.5454 0.66223 0.39259 0.0
C2188 C 0.55126 0.67848 0.37024 0.0
C2189 C 0.55338 0.69132 0.40882 0.0
C2190 C 0.55041 0.68818 0.46873 0.0
H2191 H 0.5111 0.67446 0.59826 0.0
H2192 H 0.52783 0.69127 0.55814 0.0
H2193 H 0.51611 0.6708 0.52511 0.0
H2194 H 0.53852 0.64665 0.4694 0.0
H2195 H 0.54371 0.65209 0.36403 0.0
H2196 H 0.37028 0.49307 0.938 0.0
H2197 H 0.36408 0.49163 0.83348 0.0
H2198 H 0.31554 0.44789 0.86293 0.0
H2199 H 0.32157 0.44938 0.96818 0.0
H2200 H 0.35807 0.46421 0.76525 0.0
H2201 H 0.30466 0.47628 0.75141 0.0
H2202 H 0.31798 0.48164 0.81532 0.0
H2203 H 0.30203 0.46024 0.80241 0.0
C2204 C 0.35815 0.4833 0.92252 0.0
C2205 C 0.34645 0.47129 0.96136 0.0
C2206 C 0.35463 0.48251 0.86273 0.0
C2207 C 0.33933 0.46971 0.84046 0.0
C2208 C 0.32732 0.45805 0.87932 0.0
H2209 H 0.30793 0.43935 0.47803 0.0
H2210 H 0.30889 0.4413 0.58531 0.0
C2211 C 0.33081 0.45888 0.93942 0.0
C2212 C 0.3368 0.46777 0.77612 0.0
H2213 H 0.31254 0.46825 0.66345 0.0
C2214 C 0.34813 0.46513 0.74301 0.0
C2215 C 0.32372 0.46881 0.74734 0.0
C2216 C 0.31145 0.47202 0.78073 0.0
C2217 C 0.34683 0.46359 0.68184 0.0
C2218 C 0.33399 0.46498 0.65289 0.0
C2219 C 0.32241 0.46727 0.68593 0.0
C2220 C 0.33274 0.46443 0.58813 0.0
C2221 C 0.35914 0.46035 0.64868 0.0
C2222 C 0.34566 0.47701 0.55439 0.0
C2223 C 0.34517 0.47594 0.49328 0.0
C2224 C 0.33172 0.46228 0.46472 0.0
C2225 C 0.3185 0.44999 0.49866 0.0
C2226 C 0.319 0.45109 0.55991 0.0
H2227 H 0.36547 0.45555 0.67789 0.0
H2228 H 0.35276 0.45115 0.61279 0.0
H2229 H 0.36894 0.47226 0.6288 0.0
H2230 H 0.35625 0.48753 0.57544 0.0
H2231 H 0.3555 0.48569 0.46852 0.0
H2232 H 0.56599 0.87637 0.9589 0.0
H2233 H 0.56723 0.87186 0.85338 0.0
H2234 H 0.52384 0.87735 0.82549 0.0
H2235 H 0.52264 0.88208 0.93022 0.0
H2236 H 0.54345 0.84847 0.77149 0.0
H2237 H 0.56025 0.9141 0.72195 0.0
H2238 H 0.56112 0.90711 0.79515 0.0
H2239 H 0.54136 0.90281 0.76425 0.0
C2240 C 0.55661 0.87642 0.93035 0.0
C2241 C 0.54434 0.8798 0.95281 0.0
C2242 C 0.55734 0.87385 0.87013 0.0
C2243 C 0.54584 0.87463 0.8316 0.0
C2244 C 0.53306 0.87707 0.85437 0.0
H2245 H 0.52888 0.87214 0.46005 0.0
H2246 H 0.52718 0.87151 0.56702 0.0
C2247 C 0.53236 0.87971 0.91431 0.0
C2248 C 0.54753 0.87363 0.76732 0.0
H2249 H 0.55321 0.89562 0.64068 0.0
C2250 C 0.5457 0.8588 0.74281 0.0
C2251 C 0.5506 0.88718 0.73015 0.0
C2252 C 0.55361 0.90377 0.75414 0.0
C2253 C 0.54626 0.85697 0.68175 0.0
C2254 C 0.5489 0.87039 0.64465 0.0
C2255 C 0.55104 0.88531 0.6693 0.0
C2256 C 0.54929 0.86929 0.57994 0.0
C2257 C 0.54359 0.84059 0.65723 0.0
C2258 C 0.56227 0.86818 0.5518 0.0
C2259 C 0.56332 0.86858 0.49054 0.0
C2260 C 0.55142 0.87016 0.45645 0.0
C2261 C 0.53825 0.87091 0.48491 0.0
C2262 C 0.53725 0.87056 0.54605 0.0
H2263 H 0.53835 0.83041 0.69054 0.0
H2264 H 0.53497 0.83662 0.61896 0.0
H2265 H 0.5558 0.84226 0.64206 0.0
H2266 H 0.57185 0.86747 0.57722 0.0
H2267 H 0.57364 0.86801 0.47002 0.0
H2268 H 0.12446 0.69241 0.49056 0.0
H2269 H 0.12825 0.6922 0.59628 0.0
H2270 H 0.17107 0.68564 0.56895 0.0
H2271 H 0.16678 0.685 0.46278 0.0
H2272 H 0.15236 0.66513 0.64821 0.0
H2273 H 0.16001 0.72667 0.70644 0.0
H2274 H 0.14076 0.71471 0.66698 0.0
H2275 H 0.16051 0.72076 0.63135 0.0
C2276 C 0.13479 0.69111 0.50705 0.0
C2277 C 0.14533 0.68874 0.46847 0.0
C2278 C 0.13707 0.69116 0.56758 0.0
C2279 C 0.15022 0.68933 0.59078 0.0
C2280 C 0.16091 0.68719 0.55216 0.0
H2281 H 0.1589 0.69655 0.97577 0.0
H2282 H 0.16654 0.70256 0.87188 0.0
C2283 C 0.15844 0.68681 0.49155 0.0
C2284 C 0.15186 0.68826 0.65523 0.0
H2285 H 0.1501 0.70593 0.78471 0.0
C2286 C 0.15219 0.67425 0.67799 0.0
C2287 C 0.15211 0.70033 0.69444 0.0
C2288 C 0.15353 0.71654 0.6734 0.0
C2289 C 0.15169 0.67143 0.73857 0.0
C2290 C 0.15014 0.68258 0.77744 0.0
C2291 C 0.15093 0.69717 0.75497 0.0
C2292 C 0.14638 0.6787 0.84069 0.0
C2293 C 0.15269 0.65644 0.76004 0.0
C2294 C 0.13247 0.66338 0.85768 0.0
C2295 C 0.12827 0.65984 0.91672 0.0
C2296 C 0.13763 0.67172 0.96013 0.0
C2297 C 0.15149 0.68714 0.94326 0.0
C2298 C 0.15585 0.69058 0.88398 0.0
H2299 H 0.1602 0.65338 0.72953 0.0
H2300 H 0.15839 0.65862 0.8044 0.0
H2301 H 0.13986 0.64534 0.76181 0.0
H2302 H 0.12459 0.65425 0.82514 0.0
H2303 H 0.11737 0.64794 0.92812 0.0
loop_
_geom_bond_atom_site_label_1
_geom_bond_atom_site_label_2
_geom_bond_distance
_geom_bond_site_symmetry_2
_ccdc_geom_bond_type
Zn0 O6 1.969 . S
Zn0 O7 1.965 . S
Zn0 O11 2.024 1_455 S
Zn0 O16 1.969 . S
Zn1 O8 1.969 . S
Zn1 O14 1.969 . S
Zn1 O15 1.965 . S
Zn1 O17 2.024 . S
C2 O3 1.229 . S
C2 O11 1.058 . S
O3 C2 1.229 . S
C4 O5 1.229 . S
C4 O17 1.058 . S
O5 C4 1.229 . S
O6 Zn0 1.969 . S
O6 C9 1.267 . S
O7 Zn0 1.965 . S
O7 C18 1.260 1_455 S
O8 Zn1 1.969 . S
O8 C18 1.258 1_455 S
C9 O6 1.267 . S
C9 O10 1.228 1_455 S
O10 C9 1.228 1_655 S
O11 Zn0 2.024 1_655 S
O11 C2 1.058 . S
C12 O13 1.228 . S
C12 O14 1.267 . S
O13 C12 1.228 . S
O14 Zn1 1.969 . S
O14 C12 1.267 . S
O15 Zn1 1.965 . S
O15 C19 1.260 . S
O16 Zn0 1.969 . S
O16 C19 1.258 . S
O17 Zn1 2.024 . S
O17 C4 1.058 . S
C18 O7 1.260 1_655 S
C18 O8 1.258 1_655 S
C19 O15 1.260 . S
C19 O16 1.258 . S
Zn20 O26 1.969 . S
Zn20 O27 1.965 . S
Zn20 O31 2.024 . S
Zn20 O36 1.969 . S
Zn21 O28 1.969 . S
Zn21 O34 1.969 . S
Zn21 O35 1.965 . S
Zn21 O37 2.024 . S
C22 O23 1.229 . S
C22 O31 1.058 . S
O23 C22 1.229 . S
C24 O25 1.229 . S
C24 O37 1.058 . S
O25 C24 1.229 . S
O26 Zn20 1.969 . S
O26 C29 1.267 . S
O27 Zn20 1.965 . S
O27 C38 1.260 . S
O28 Zn21 1.969 . S
O28 C38 1.258 . S
C29 O26 1.267 . S
C29 O30 1.228 . S
O30 C29 1.228 . S
O31 Zn20 2.024 . S
O31 C22 1.058 . S
C32 O33 1.228 . S
C32 O34 1.267 . S
O33 C32 1.228 . S
O34 Zn21 1.969 . S
O34 C32 1.267 . S
O35 Zn21 1.965 . S
O35 C39 1.260 . S
O36 Zn20 1.969 . S
O36 C39 1.258 . S
O37 Zn21 2.024 . S
O37 C24 1.058 . S
C38 O27 1.260 . S
C38 O28 1.258 . S
C39 O35 1.260 . S
C39 O36 1.258 . S
Zn40 O46 1.969 . S
Zn40 O47 1.965 . S
Zn40 O51 2.024 . S
Zn40 O56 1.969 1_545 S
Zn41 O48 1.969 1_565 S
Zn41 O54 1.969 1_565 S
Zn41 O55 1.936 . S
Zn41 O57 2.024 . S
C42 O43 1.229 . S
C42 O51 1.058 . S
O43 C42 1.229 . S
C44 O45 1.229 . S
C44 O57 1.058 . S
O45 C44 1.229 . S
O46 Zn40 1.969 . S
O46 C49 1.267 . S
O47 Zn40 1.965 . S
O47 C58 1.260 . S
O48 Zn41 1.969 1_545 S
O48 C58 1.258 . S
C49 O46 1.267 . S
C49 O50 1.228 . S
O50 C49 1.228 . S
O51 Zn40 2.024 . S
O51 C42 1.058 . S
C52 O53 1.260 . S
C52 O54 1.242 1_565 S
O53 C52 1.260 . S
O54 Zn41 1.969 1_545 S
O54 C52 1.242 1_545 S
O55 Zn41 1.936 . S
O55 C59 1.305 . S
O56 Zn40 1.969 1_565 S
O56 C59 1.258 . S
O57 Zn41 2.024 . S
O57 C44 1.058 . S
C58 O47 1.260 . S
C58 O48 1.258 . S
C59 O55 1.305 . S
C59 O56 1.258 . S
Zn60 O66 1.969 . S
Zn60 O67 1.965 . S
Zn60 O71 2.024 1_455 S
Zn60 O76 1.969 . S
Zn61 O68 1.969 . S
Zn61 O74 1.969 . S
Zn61 O75 1.965 . S
Zn61 O77 2.024 . S
C62 O63 1.229 . S
C62 O71 1.058 . S
O63 C62 1.229 . S
C64 O65 1.229 . S
C64 O77 1.058 . S
O65 C64 1.229 . S
O66 Zn60 1.969 . S
O66 C69 1.267 . S
O67 Zn60 1.965 . S
O67 C78 1.260 1_455 S
O68 Zn61 1.969 . S
O68 C78 1.258 1_455 S
C69 O66 1.267 . S
C69 O70 1.228 1_455 S
O70 C69 1.228 1_655 S
O71 Zn60 2.024 1_655 S
O71 C62 1.058 . S
C72 O73 1.228 . S
C72 O74 1.267 . S
O73 C72 1.228 . S
O74 Zn61 1.969 . S
O74 C72 1.267 . S
O75 Zn61 1.965 . S
O75 C79 1.260 . S
O76 Zn60 1.969 . S
O76 C79 1.258 . S
O77 Zn61 2.024 . S
O77 C64 1.058 . S
C78 O67 1.260 1_655 S
C78 O68 1.258 1_655 S
C79 O75 1.260 . S
C79 O76 1.258 . S
Zn80 O86 1.969 . S
Zn80 O87 1.965 . S
Zn80 O91 2.024 . S
Zn80 O96 1.969 . S
Zn81 O88 1.969 . S
Zn81 O94 1.969 . S
Zn81 O95 1.965 . S
Zn81 O97 2.024 . S
C82 O83 1.229 . S
C82 O91 1.058 . S
O83 C82 1.229 . S
C84 O85 1.229 . S
C84 O97 1.058 . S
O85 C84 1.229 . S
O86 Zn80 1.969 . S
O86 C89 1.267 . S
O87 Zn80 1.965 . S
O87 C98 1.260 . S
O88 Zn81 1.969 . S
O88 C98 1.258 . S
C89 O86 1.267 . S
C89 O90 1.228 . S
O90 C89 1.228 . S
O91 Zn80 2.024 . S
O91 C82 1.058 . S
C92 O93 1.228 . S
C92 O94 1.267 . S
O93 C92 1.228 . S
O94 Zn81 1.969 . S
O94 C92 1.267 . S
O95 Zn81 1.965 . S
O95 C99 1.260 . S
O96 Zn80 1.969 . S
O96 C99 1.258 . S
O97 Zn81 2.024 . S
O97 C84 1.058 . S
C98 O87 1.260 . S
C98 O88 1.258 . S
C99 O95 1.260 . S
C99 O96 1.258 . S
Zn100 O106 1.969 . S
Zn100 O107 1.965 . S
Zn100 O111 2.024 . S
Zn100 O116 1.969 . S
Zn101 O108 1.969 . S
Zn101 O114 1.969 . S
Zn101 O115 1.965 . S
Zn101 O117 2.024 1_545 S
C102 O103 1.229 . S
C102 O111 1.058 . S
O103 C102 1.229 . S
C104 O105 1.229 . S
C104 O117 1.058 . S
O105 C104 1.229 . S
O106 Zn100 1.969 . S
O106 C109 1.267 . S
O107 Zn100 1.965 . S
O107 C118 1.260 . S
O108 Zn101 1.969 . S
O108 C118 1.258 . S
C109 O106 1.267 . S
C109 O110 1.228 . S
O110 C109 1.228 . S
O111 Zn100 2.024 . S
O111 C102 1.058 . S
C112 O113 1.228 1_545 S
C112 O114 1.267 . S
O113 C112 1.228 1_565 S
O114 Zn101 1.969 . S
O114 C112 1.267 . S
O115 Zn101 1.965 . S
O115 C119 1.260 1_545 S
O116 Zn100 1.969 . S
O116 C119 1.258 1_545 S
O117 Zn101 2.024 1_565 S
O117 C104 1.058 . S
C118 O107 1.260 . S
C118 O108 1.258 . S
C119 O115 1.260 1_565 S
C119 O116 1.258 1_565 S
Zn120 O126 1.969 1_556 S
Zn120 O127 1.965 . S
Zn120 O131 2.024 . S
Zn120 O136 1.969 . S
Zn121 O128 1.969 . S
Zn121 O134 1.969 . S
Zn121 O135 1.965 . S
Zn121 O137 2.024 . S
C122 O123 1.229 1_556 S
C122 O131 1.058 . S
O123 C122 1.229 1_554 S
C124 O125 1.229 . S
C124 O137 1.058 . S
O125 C124 1.229 . S
O126 Zn120 1.969 1_554 S
O126 C129 1.267 . S
O127 Zn120 1.965 . S
O127 C138 1.260 . S
O128 Zn121 1.969 . S
O128 C138 1.258 . S
C129 O126 1.267 . S
C129 O130 1.228 . S
O130 C129 1.228 . S
O131 Zn120 2.024 . S
O131 C122 1.058 . S
C132 O133 1.228 . S
C132 O134 1.267 . S
O133 C132 1.228 . S
O134 Zn121 1.969 . S
O134 C132 1.267 . S
O135 Zn121 1.965 . S
O135 C139 1.260 . S
O136 Zn120 1.969 . S
O136 C139 1.258 . S
O137 Zn121 2.024 . S
O137 C124 1.058 . S
C138 O127 1.260 . S
C138 O128 1.258 . S
C139 O135 1.260 . S
C139 O136 1.258 . S
Zn140 O146 1.969 1_556 S
Zn140 O147 1.965 . S
Zn140 O151 2.024 . S
Zn140 O156 1.969 . S
Zn141 O148 1.969 . S
Zn141 O154 1.969 . S
Zn141 O155 1.965 . S
Zn141 O157 2.024 . S
C142 O143 1.229 1_556 S
C142 O151 1.058 . S
O143 C142 1.229 1_554 S
C144 O145 1.229 . S
C144 O157 1.058 . S
O145 C144 1.229 . S
O146 Zn140 1.969 1_554 S
O146 C149 1.267 . S
O147 Zn140 1.965 . S
O147 C158 1.260 . S
O148 Zn141 1.969 . S
O148 C158 1.258 . S
C149 O146 1.267 . S
C149 O150 1.228 . S
O150 C149 1.228 . S
O151 Zn140 2.024 . S
O151 C142 1.058 . S
C152 O153 1.228 . S
C152 O154 1.267 . S
O153 C152 1.228 . S
O154 Zn141 1.969 . S
O154 C152 1.267 . S
O155 Zn141 1.965 . S
O155 C159 1.260 . S
O156 Zn140 1.969 . S
O156 C159 1.258 . S
O157 Zn141 2.024 . S
O157 C144 1.058 . S
C158 O147 1.260 . S
C158 O148 1.258 . S
C159 O155 1.260 . S
C159 O156 1.258 . S
Zn160 O166 1.969 1_556 S
Zn160 O167 1.965 . S
Zn160 O171 2.024 . S
Zn160 O176 1.969 . S
Zn161 O168 1.969 . S
Zn161 O174 1.969 . S
Zn161 O175 1.965 . S
Zn161 O177 2.024 . S
C162 O163 1.229 1_556 S
C162 O171 1.058 . S
O163 C162 1.229 1_554 S
C164 O165 1.229 . S
C164 O177 1.058 . S
O165 C164 1.229 . S
O166 Zn160 1.969 1_554 S
O166 C169 1.267 . S
O167 Zn160 1.965 . S
O167 C178 1.260 . S
O168 Zn161 1.969 . S
O168 C178 1.258 . S
C169 O166 1.267 . S
C169 O170 1.228 . S
O170 C169 1.228 . S
O171 Zn160 2.024 . S
O171 C162 1.058 . S
C172 O173 1.228 . S
C172 O174 1.267 . S
O173 C172 1.228 . S
O174 Zn161 1.969 . S
O174 C172 1.267 . S
O175 Zn161 1.965 . S
O175 C179 1.260 . S
O176 Zn160 1.969 . S
O176 C179 1.258 . S
O177 Zn161 2.024 . S
O177 C164 1.058 . S
C178 O167 1.260 . S
C178 O168 1.258 . S
C179 O175 1.260 . S
C179 O176 1.258 . S
Zn180 O186 1.969 . S
Zn180 O187 1.965 . S
Zn180 O191 2.024 . S
Zn180 O196 1.969 . S
Zn181 O188 1.969 . S
Zn181 O194 1.969 . S
Zn181 O195 1.965 . S
Zn181 O197 2.024 . S
C182 O183 1.229 . S
C182 O191 1.058 . S
O183 C182 1.229 . S
C184 O185 1.229 . S
C184 O197 1.058 . S
O185 C184 1.229 . S
O186 Zn180 1.969 . S
O186 C189 1.267 . S
O187 Zn180 1.965 . S
O187 C198 1.260 . S
O188 Zn181 1.969 . S
O188 C198 1.258 . S
C189 O186 1.267 . S
C189 O190 1.228 . S
O190 C189 1.228 . S
O191 Zn180 2.024 . S
O191 C182 1.058 . S
C192 O193 1.228 . S
C192 O194 1.267 . S
O193 C192 1.228 . S
O194 Zn181 1.969 . S
O194 C192 1.267 . S
O195 Zn181 1.965 . S
O195 C199 1.260 . S
O196 Zn180 1.969 . S
O196 C199 1.258 . S
O197 Zn181 2.024 . S
O197 C184 1.058 . S
C198 O187 1.260 . S
C198 O188 1.258 . S
C199 O195 1.260 . S
C199 O196 1.258 . S
Zn200 O206 1.969 . S
Zn200 O207 1.965 . S
Zn200 O211 2.024 . S
Zn200 O216 1.969 . S
Zn201 O208 1.969 . S
Zn201 O214 1.969 . S
Zn201 O215 1.965 . S
Zn201 O217 2.024 . S
C202 O203 1.229 . S
C202 O211 1.058 . S
O203 C202 1.229 . S
C204 O205 1.229 . S
C204 O217 1.058 . S
O205 C204 1.229 . S
O206 Zn200 1.969 . S
O206 C209 1.267 . S
O207 Zn200 1.965 . S
O207 C218 1.260 . S
O208 Zn201 1.969 . S
O208 C218 1.258 . S
C209 O206 1.267 . S
C209 O210 1.228 . S
O210 C209 1.228 . S
O211 Zn200 2.024 . S
O211 C202 1.058 . S
C212 O213 1.228 . S
C212 O214 1.267 . S
O213 C212 1.228 . S
O214 Zn201 1.969 . S
O214 C212 1.267 . S
O215 Zn201 1.965 . S
O215 C219 1.260 . S
O216 Zn200 1.969 . S
O216 C219 1.258 . S
O217 Zn201 2.024 . S
O217 C204 1.058 . S
C218 O207 1.260 . S
C218 O208 1.258 . S
C219 O215 1.260 . S
C219 O216 1.258 . S
Zn220 O226 1.969 . S
Zn220 O227 1.965 . S
Zn220 O231 2.024 . S
Zn220 O236 1.969 . S
Zn221 O228 1.969 . S
Zn221 O234 1.969 . S
Zn221 O235 1.965 . S
Zn221 O237 2.024 . S
C222 O223 1.229 . S
C222 O231 1.058 . S
O223 C222 1.229 . S
C224 O225 1.229 . S
C224 O237 1.058 . S
O225 C224 1.229 . S
O226 Zn220 1.969 . S
O226 C229 1.267 . S
O227 Zn220 1.965 . S
O227 C238 1.260 . S
O228 Zn221 1.969 . S
O228 C238 1.258 . S
C229 O226 1.267 . S
C229 O230 1.228 . S
O230 C229 1.228 . S
O231 Zn220 2.024 . S
O231 C222 1.058 . S
C232 O233 1.228 . S
C232 O234 1.267 . S
O233 C232 1.228 . S
O234 Zn221 1.969 . S
O234 C232 1.267 . S
O235 Zn221 1.965 . S
O235 C239 1.260 . S
O236 Zn220 1.969 . S
O236 C239 1.258 . S
O237 Zn221 2.024 . S
O237 C224 1.058 . S
C238 O227 1.260 . S
C238 O228 1.258 . S
C239 O235 1.260 . S
C239 O236 1.258 . S
Zn240 O246 1.969 . S
Zn240 O247 1.965 . S
Zn240 O251 2.024 . S
Zn240 O256 1.969 . S
Zn241 O248 1.969 . S
Zn241 O254 1.969 . S
Zn241 O255 1.965 . S
Zn241 O257 2.024 . S
C242 O243 1.229 . S
C242 O251 1.058 . S
O243 C242 1.229 . S
C244 O245 1.229 . S
C244 O257 1.058 . S
O245 C244 1.229 . S
O246 Zn240 1.969 . S
O246 C249 1.267 . S
O247 Zn240 1.965 . S
O247 C258 1.260 . S
O248 Zn241 1.969 . S
O248 C258 1.258 . S
C249 O246 1.267 . S
C249 O250 1.228 . S
O250 C249 1.228 . S
O251 Zn240 2.024 . S
O251 C242 1.058 . S
C252 O253 1.228 . S
C252 O254 1.267 . S
O253 C252 1.228 . S
O254 Zn241 1.969 . S
O254 C252 1.267 . S
O255 Zn241 1.965 . S
O255 C259 1.260 . S
O256 Zn240 1.969 . S
O256 C259 1.258 . S
O257 Zn241 2.024 . S
O257 C244 1.058 . S
C258 O247 1.260 . S
C258 O248 1.258 . S
C259 O255 1.260 . S
C259 O256 1.258 . S
Zn260 O266 1.969 . S
Zn260 O267 1.965 . S
Zn260 O271 2.024 . S
Zn260 O276 1.969 . S
Zn261 O268 1.969 . S
Zn261 O274 1.969 . S
Zn261 O275 1.965 . S
Zn261 O277 2.024 . S
C262 O263 1.229 . S
C262 O271 1.058 . S
O263 C262 1.229 . S
C264 O265 1.229 . S
C264 O277 1.058 . S
O265 C264 1.229 . S
O266 Zn260 1.969 . S
O266 C269 1.267 . S
O267 Zn260 1.965 . S
O267 C278 1.260 . S
O268 Zn261 1.969 . S
O268 C278 1.258 . S
C269 O266 1.267 . S
C269 O270 1.228 . S
O270 C269 1.228 . S
O271 Zn260 2.024 . S
O271 C262 1.058 . S
C272 O273 1.228 . S
C272 O274 1.267 . S
O273 C272 1.228 . S
O274 Zn261 1.969 . S
O274 C272 1.267 . S
O275 Zn261 1.965 . S
O275 C279 1.260 . S
O276 Zn260 1.969 . S
O276 C279 1.258 . S
O277 Zn261 2.024 . S
O277 C264 1.058 . S
C278 O267 1.260 . S
C278 O268 1.258 . S
C279 O275 1.260 . S
C279 O276 1.258 . S
Zn280 O286 1.969 . S
Zn280 O287 1.965 . S
Zn280 O291 2.024 . S
Zn280 O296 1.969 . S
Zn281 O288 1.969 . S
Zn281 O294 1.969 . S
Zn281 O295 1.965 . S
Zn281 O297 2.024 . S
C282 O283 1.229 . S
C282 O291 1.058 . S
O283 C282 1.229 . S
C284 O285 1.229 . S
C284 O297 1.058 . S
O285 C284 1.229 . S
O286 Zn280 1.969 . S
O286 C289 1.267 . S
O287 Zn280 1.965 . S
O287 C298 1.260 . S
O288 Zn281 1.969 . S
O288 C298 1.258 . S
C289 O286 1.267 . S
C289 O290 1.228 . S
O290 C289 1.228 . S
O291 Zn280 2.024 . S
O291 C282 1.058 . S
C292 O293 1.228 . S
C292 O294 1.267 . S
O293 C292 1.228 . S
O294 Zn281 1.969 . S
O294 C292 1.267 . S
O295 Zn281 1.965 . S
O295 C299 1.260 . S
O296 Zn280 1.969 . S
O296 C299 1.258 . S
O297 Zn281 2.024 . S
O297 C284 1.058 . S
C298 O287 1.260 . S
C298 O288 1.258 . S
C299 O295 1.260 . S
C299 O296 1.258 . S
Zn300 O306 1.969 . S
Zn300 O307 1.965 . S
Zn300 O311 2.024 . S
Zn300 O316 1.969 . S
Zn301 O308 1.969 . S
Zn301 O314 1.969 1_554 S
Zn301 O315 1.965 . S
Zn301 O317 2.024 . S
C302 O303 1.229 . S
C302 O311 1.058 . S
O303 C302 1.229 . S
C304 O305 1.229 1_554 S
C304 O317 1.058 . S
O305 C304 1.229 1_556 S
O306 Zn300 1.969 . S
O306 C309 1.267 . S
O307 Zn300 1.965 . S
O307 C318 1.260 . S
O308 Zn301 1.969 . S
O308 C318 1.258 . S
C309 O306 1.267 . S
C309 O310 1.228 . S
O310 C309 1.228 . S
O311 Zn300 2.024 . S
O311 C302 1.058 . S
C312 O313 1.228 . S
C312 O314 1.267 . S
O313 C312 1.228 . S
O314 Zn301 1.969 1_556 S
O314 C312 1.267 . S
O315 Zn301 1.965 . S
O315 C319 1.260 . S
O316 Zn300 1.969 . S
O316 C319 1.258 . S
O317 Zn301 2.024 . S
O317 C304 1.058 . S
C318 O307 1.260 . S
C318 O308 1.258 . S
C319 O315 1.260 . S
C319 O316 1.258 . S
Zn320 O326 1.969 . S
Zn320 O327 1.965 . S
Zn320 O331 2.024 . S
Zn320 O336 1.969 . S
Zn321 O328 1.969 . S
Zn321 O334 1.969 1_554 S
Zn321 O335 1.965 . S
Zn321 O337 2.024 . S
C322 O323 1.229 . S
C322 O331 1.058 . S
O323 C322 1.229 . S
C324 O325 1.229 1_554 S
C324 O337 1.058 . S
O325 C324 1.229 1_556 S
O326 Zn320 1.969 . S
O326 C329 1.267 . S
O327 Zn320 1.965 . S
O327 C338 1.260 . S
O328 Zn321 1.969 . S
O328 C338 1.258 . S
C329 O326 1.267 . S
C329 O330 1.228 . S
O330 C329 1.228 . S
O331 Zn320 2.024 . S
O331 C322 1.058 . S
C332 O333 1.228 . S
C332 O334 1.267 . S
O333 C332 1.228 . S
O334 Zn321 1.969 1_556 S
O334 C332 1.267 . S
O335 Zn321 1.965 . S
O335 C339 1.260 . S
O336 Zn320 1.969 . S
O336 C339 1.258 . S
O337 Zn321 2.024 . S
O337 C324 1.058 . S
C338 O327 1.260 . S
C338 O328 1.258 . S
C339 O335 1.260 . S
C339 O336 1.258 . S
Zn340 O346 1.969 . S
Zn340 O347 1.965 . S
Zn340 O351 2.024 . S
Zn340 O356 1.969 . S
Zn341 O348 1.969 . S
Zn341 O354 1.969 1_554 S
Zn341 O355 1.965 . S
Zn341 O357 2.024 . S
C342 O343 1.229 . S
C342 O351 1.058 . S
O343 C342 1.229 . S
C344 O345 1.229 1_554 S
C344 O357 1.058 . S
O345 C344 1.229 1_556 S
O346 Zn340 1.969 . S
O346 C349 1.267 . S
O347 Zn340 1.965 . S
O347 C358 1.260 . S
O348 Zn341 1.969 . S
O348 C358 1.258 . S
C349 O346 1.267 . S
C349 O350 1.228 . S
O350 C349 1.228 . S
O351 Zn340 2.024 . S
O351 C342 1.058 . S
C352 O353 1.228 . S
C352 O354 1.267 . S
O353 C352 1.228 . S
O354 Zn341 1.969 1_556 S
O354 C352 1.267 . S
O355 Zn341 1.965 . S
O355 C359 1.260 . S
O356 Zn340 1.969 . S
O356 C359 1.258 . S
O357 Zn341 2.024 . S
O357 C344 1.058 . S
C358 O347 1.260 . S
C358 O348 1.258 . S
C359 O355 1.260 . S
C359 O356 1.258 . S
H360 C368 0.929 . S
H361 C370 0.930 . S
H362 C372 0.930 . S
H363 C375 0.929 . S
H364 C378 0.930 . S
H365 C380 0.960 . S
H366 C380 0.960 . S
H367 C380 0.960 . S
C368 H360 0.929 . S
C368 C369 1.377 . S
C368 C370 1.384 . S
C369 C368 1.377 . S
C369 C375 1.390 . S
C370 H361 0.930 . S
C370 C368 1.384 . S
C370 C371 1.372 . S
C371 C370 1.372 . S
C371 C372 1.400 . S
C371 C376 1.490 . S
C372 H362 0.930 . S
C372 C371 1.400 . S
C372 C375 1.386 . S
H373 C389 0.930 . S
H374 C390 0.931 . S
C375 H363 0.929 . S
C375 C369 1.390 . S
C375 C372 1.386 . S
C376 C371 1.490 . S
C376 C378 1.395 . S
C376 C379 1.403 . S
H377 C383 0.930 . S
C378 H364 0.930 . S
C378 C376 1.395 . S
C378 C381 1.403 . S
C379 C376 1.403 . S
C379 C380 1.524 . S
C379 C383 1.400 . S
C380 H365 0.960 . S
C380 H366 0.960 . S
C380 H367 0.960 . S
C380 C379 1.524 . S
C381 C378 1.403 . S
C381 C382 1.392 . S
C381 C385 1.495 . S
C382 C381 1.392 . S
C382 C383 1.385 . S
C382 C384 1.478 . S
C383 H377 0.930 . S
C383 C379 1.400 . S
C383 C382 1.385 . S
C384 C382 1.478 . S
C384 C386 1.381 . S
C384 C390 1.383 . S
C385 C381 1.495 . S
C385 H391 0.959 . S
C385 H392 0.961 . S
C385 H393 0.960 . S
C386 C384 1.381 . S
C386 C387 1.394 . S
C386 H394 0.930 . S
C387 C386 1.394 . S
C387 C388 1.383 . S
C387 H395 0.929 . S
C388 C387 1.383 . S
C388 C389 1.377 . S
C389 H373 0.930 . S
C389 C388 1.377 . S
C389 C390 1.379 . S
C390 H374 0.931 . S
C390 C384 1.383 . S
C390 C389 1.379 . S
H391 C385 0.959 . S
H392 C385 0.961 . S
H393 C385 0.960 . S
H394 C386 0.930 . S
H395 C387 0.929 . S
H396 C404 0.929 . S
H397 C406 0.930 . S
H398 C408 0.930 . S
H399 C411 0.929 . S
H400 C414 0.930 . S
H401 C416 0.960 . S
H402 C416 0.960 . S
H403 C416 0.960 . S
C404 H396 0.929 . S
C404 C405 1.377 . S
C404 C406 1.384 . S
C405 C404 1.377 . S
C405 C411 1.390 . S
C406 H397 0.930 . S
C406 C404 1.384 . S
C406 C407 1.372 . S
C407 C406 1.372 . S
C407 C408 1.400 . S
C407 C412 1.490 . S
C408 H398 0.930 . S
C408 C407 1.400 . S
C408 C411 1.386 . S
H409 C425 0.930 . S
H410 C426 0.931 . S
C411 H399 0.929 . S
C411 C405 1.390 . S
C411 C408 1.386 . S
C412 C407 1.490 . S
C412 C414 1.395 . S
C412 C415 1.403 . S
H413 C419 0.930 . S
C414 H400 0.930 . S
C414 C412 1.395 . S
C414 C417 1.403 . S
C415 C412 1.403 . S
C415 C416 1.524 . S
C415 C419 1.400 . S
C416 H401 0.960 . S
C416 H402 0.960 . S
C416 H403 0.960 . S
C416 C415 1.524 . S
C417 C414 1.403 . S
C417 C418 1.392 . S
C417 C421 1.495 . S
C418 C417 1.392 . S
C418 C419 1.385 . S
C418 C420 1.478 . S
C419 H413 0.930 . S
C419 C415 1.400 . S
C419 C418 1.385 . S
C420 C418 1.478 . S
C420 C422 1.381 . S
C420 C426 1.383 . S
C421 C417 1.495 . S
C421 H427 0.959 . S
C421 H428 0.961 . S
C421 H429 0.960 . S
C422 C420 1.381 . S
C422 C423 1.394 . S
C422 H430 0.930 . S
C423 C422 1.394 . S
C423 C424 1.383 . S
C423 H431 0.929 . S
C424 C423 1.383 . S
C424 C425 1.377 . S
C425 H409 0.930 . S
C425 C424 1.377 . S
C425 C426 1.379 . S
C426 H410 0.931 . S
C426 C420 1.383 . S
C426 C425 1.379 . S
H427 C421 0.959 . S
H428 C421 0.961 . S
H429 C421 0.960 . S
H430 C422 0.930 . S
H431 C423 0.929 . S
H432 C440 0.929 . S
H433 C442 0.930 . S
H434 C444 0.930 . S
H435 C447 0.929 . S
H436 C450 0.930 . S
H437 C452 0.960 . S
H438 C452 0.960 . S
H439 C452 0.960 . S
C440 H432 0.929 . S
C440 C441 1.377 . S
C440 C442 1.384 . S
C441 C440 1.377 . S
C441 C447 1.390 . S
C442 H433 0.930 . S
C442 C440 1.384 . S
C442 C443 1.372 . S
C443 C442 1.372 . S
C443 C444 1.400 . S
C443 C448 1.490 . S
C444 H434 0.930 . S
C444 C443 1.400 . S
C444 C447 1.386 . S
H445 C461 0.930 . S
H446 C462 0.931 . S
C447 H435 0.929 . S
C447 C441 1.390 . S
C447 C444 1.386 . S
C448 C443 1.490 . S
C448 C450 1.395 . S
C448 C451 1.403 . S
H449 C455 0.930 . S
C450 H436 0.930 . S
C450 C448 1.395 . S
C450 C453 1.403 . S
C451 C448 1.403 . S
C451 C452 1.524 . S
C451 C455 1.400 . S
C452 H437 0.960 . S
C452 H438 0.960 . S
C452 H439 0.960 . S
C452 C451 1.524 . S
C453 C450 1.403 . S
C453 C454 1.392 . S
C453 C457 1.495 . S
C454 C453 1.392 . S
C454 C455 1.385 . S
C454 C456 1.478 . S
C455 H449 0.930 . S
C455 C451 1.400 . S
C455 C454 1.385 . S
C456 C454 1.478 . S
C456 C458 1.381 . S
C456 C462 1.383 . S
C457 C453 1.495 . S
C457 H463 0.959 . S
C457 H464 0.961 . S
C457 H465 0.960 . S
C458 C456 1.381 . S
C458 C459 1.394 . S
C458 H466 0.930 . S
C459 C458 1.394 . S
C459 C460 1.383 . S
C459 H467 0.929 . S
C460 C459 1.383 . S
C460 C461 1.377 . S
C461 H445 0.930 . S
C461 C460 1.377 . S
C461 C462 1.379 . S
C462 H446 0.931 . S
C462 C456 1.383 . S
C462 C461 1.379 . S
H463 C457 0.959 . S
H464 C457 0.961 . S
H465 C457 0.960 . S
H466 C458 0.930 . S
H467 C459 0.929 . S
H468 C476 0.929 . S
H469 C478 0.930 . S
H470 C480 0.930 . S
H471 C483 0.929 . S
H472 C486 0.930 . S
H473 C488 0.960 . S
H474 C488 0.960 . S
H475 C488 0.960 . S
C476 H468 0.929 . S
C476 C477 1.377 . S
C476 C478 1.384 . S
C477 C476 1.377 . S
C477 C483 1.390 . S
C478 H469 0.930 . S
C478 C476 1.384 . S
C478 C479 1.372 . S
C479 C478 1.372 . S
C479 C480 1.400 . S
C479 C484 1.490 . S
C480 H470 0.930 . S
C480 C479 1.400 . S
C480 C483 1.386 . S
H481 C497 0.930 . S
H482 C498 0.931 . S
C483 H471 0.929 . S
C483 C477 1.390 . S
C483 C480 1.386 . S
C484 C479 1.490 . S
C484 C486 1.395 . S
C484 C487 1.403 . S
H485 C491 0.930 . S
C486 H472 0.930 . S
C486 C484 1.395 . S
C486 C489 1.403 . S
C487 C484 1.403 . S
C487 C488 1.524 . S
C487 C491 1.400 . S
C488 H473 0.960 . S
C488 H474 0.960 . S
C488 H475 0.960 . S
C488 C487 1.524 . S
C489 C486 1.403 . S
C489 C490 1.392 . S
C489 C493 1.495 . S
C490 C489 1.392 . S
C490 C491 1.385 . S
C490 C492 1.478 . S
C491 H485 0.930 . S
C491 C487 1.400 . S
C491 C490 1.385 . S
C492 C490 1.478 . S
C492 C494 1.381 . S
C492 C498 1.383 . S
C493 C489 1.495 . S
C493 H499 0.959 . S
C493 H500 0.961 . S
C493 H501 0.960 . S
C494 C492 1.381 . S
C494 C495 1.394 . S
C494 H502 0.930 . S
C495 C494 1.394 . S
C495 C496 1.383 . S
C495 H503 0.929 . S
C496 C495 1.383 . S
C496 C497 1.377 . S
C497 H481 0.930 . S
C497 C496 1.377 . S
C497 C498 1.379 . S
C498 H482 0.931 . S
C498 C492 1.383 . S
C498 C497 1.379 . S
H499 C493 0.959 . S
H500 C493 0.961 . S
H501 C493 0.960 . S
H502 C494 0.930 . S
H503 C495 0.929 . S
H504 C512 0.929 . S
H505 C514 0.930 . S
H506 C516 0.930 . S
H507 C519 0.929 . S
H508 C522 0.930 . S
H509 C524 0.960 . S
H510 C524 0.960 . S
H511 C524 0.960 . S
C512 H504 0.929 . S
C512 C513 1.377 . S
C512 C514 1.384 . S
C513 C512 1.377 . S
C513 C519 1.390 . S
C514 H505 0.930 . S
C514 C512 1.384 . S
C514 C515 1.372 . S
C515 C514 1.372 . S
C515 C516 1.400 . S
C515 C520 1.490 . S
C516 H506 0.930 . S
C516 C515 1.400 . S
C516 C519 1.386 . S
H517 C533 0.930 . S
H518 C534 0.931 . S
C519 H507 0.929 . S
C519 C513 1.390 . S
C519 C516 1.386 . S
C520 C515 1.490 . S
C520 C522 1.395 . S
C520 C523 1.403 . S
H521 C527 0.930 . S
C522 H508 0.930 . S
C522 C520 1.395 . S
C522 C525 1.403 . S
C523 C520 1.403 . S
C523 C524 1.524 . S
C523 C527 1.400 . S
C524 H509 0.960 . S
C524 H510 0.960 . S
C524 H511 0.960 . S
C524 C523 1.524 . S
C525 C522 1.403 . S
C525 C526 1.392 . S
C525 C529 1.495 . S
C526 C525 1.392 . S
C526 C527 1.385 . S
C526 C528 1.478 . S
C527 H521 0.930 . S
C527 C523 1.400 . S
C527 C526 1.385 . S
C528 C526 1.478 . S
C528 C530 1.381 . S
C528 C534 1.383 . S
C529 C525 1.495 . S
C529 H535 0.959 . S
C529 H536 0.961 . S
C529 H537 0.960 . S
C530 C528 1.381 . S
C530 C531 1.394 . S
C530 H538 0.930 . S
C531 C530 1.394 . S
C531 C532 1.383 . S
C531 H539 0.929 . S
C532 C531 1.383 . S
C532 C533 1.377 . S
C533 H517 0.930 . S
C533 C532 1.377 . S
C533 C534 1.379 . S
C534 H518 0.931 . S
C534 C528 1.383 . S
C534 C533 1.379 . S
H535 C529 0.959 . S
H536 C529 0.961 . S
H537 C529 0.960 . S
H538 C530 0.930 . S
H539 C531 0.929 . S
H540 C548 0.929 . S
H541 C550 0.930 . S
H542 C552 0.930 . S
H543 C555 0.929 . S
H544 C558 0.930 . S
H545 C560 0.960 . S
H546 C560 0.960 . S
H547 C560 0.960 . S
C548 H540 0.929 . S
C548 C549 1.377 . S
C548 C550 1.384 . S
C549 C548 1.377 . S
C549 C555 1.390 . S
C550 H541 0.930 . S
C550 C548 1.384 . S
C550 C551 1.372 . S
C551 C550 1.372 . S
C551 C552 1.400 . S
C551 C556 1.490 . S
C552 H542 0.930 . S
C552 C551 1.400 . S
C552 C555 1.386 . S
H553 C569 0.930 . S
H554 C570 0.931 . S
C555 H543 0.929 . S
C555 C549 1.390 . S
C555 C552 1.386 . S
C556 C551 1.490 . S
C556 C558 1.395 . S
C556 C559 1.403 . S
H557 C563 0.930 . S
C558 H544 0.930 . S
C558 C556 1.395 . S
C558 C561 1.403 . S
C559 C556 1.403 . S
C559 C560 1.524 . S
C559 C563 1.400 . S
C560 H545 0.960 . S
C560 H546 0.960 . S
C560 H547 0.960 . S
C560 C559 1.524 . S
C561 C558 1.403 . S
C561 C562 1.392 . S
C561 C565 1.495 . S
C562 C561 1.392 . S
C562 C563 1.385 . S
C562 C564 1.478 . S
C563 H557 0.930 . S
C563 C559 1.400 . S
C563 C562 1.385 . S
C564 C562 1.478 . S
C564 C566 1.381 . S
C564 C570 1.383 . S
C565 C561 1.495 . S
C565 H571 0.959 . S
C565 H572 0.961 . S
C565 H573 0.960 . S
C566 C564 1.381 . S
C566 C567 1.394 . S
C566 H574 0.930 . S
C567 C566 1.394 . S
C567 C568 1.383 . S
C567 H575 0.929 . S
C568 C567 1.383 . S
C568 C569 1.377 . S
C569 H553 0.930 . S
C569 C568 1.377 . S
C569 C570 1.379 . S
C570 H554 0.931 . S
C570 C564 1.383 . S
C570 C569 1.379 . S
H571 C565 0.959 . S
H572 C565 0.961 . S
H573 C565 0.960 . S
H574 C566 0.930 . S
H575 C567 0.929 . S
H576 C584 0.929 . S
H577 C586 0.930 . S
H578 C588 0.930 . S
H579 C591 0.929 . S
H580 C594 0.930 . S
H581 C596 0.960 . S
H582 C596 0.960 . S
H583 C596 0.960 . S
C584 H576 0.929 . S
C584 C585 1.377 . S
C584 C586 1.384 . S
C585 C584 1.377 . S
C585 C591 1.390 . S
C586 H577 0.930 . S
C586 C584 1.384 . S
C586 C587 1.372 . S
C587 C586 1.372 . S
C587 C588 1.400 . S
C587 C592 1.490 . S
C588 H578 0.930 . S
C588 C587 1.400 . S
C588 C591 1.386 . S
H589 C605 0.930 . S
H590 C606 0.931 . S
C591 H579 0.929 . S
C591 C585 1.390 . S
C591 C588 1.386 . S
C592 C587 1.490 . S
C592 C594 1.395 . S
C592 C595 1.403 . S
H593 C599 0.930 . S
C594 H580 0.930 . S
C594 C592 1.395 . S
C594 C597 1.403 . S
C595 C592 1.403 . S
C595 C596 1.524 . S
C595 C599 1.400 . S
C596 H581 0.960 . S
C596 H582 0.960 . S
C596 H583 0.960 . S
C596 C595 1.524 . S
C597 C594 1.403 . S
C597 C598 1.392 . S
C597 C601 1.495 . S
C598 C597 1.392 . S
C598 C599 1.385 . S
C598 C600 1.478 . S
C599 H593 0.930 . S
C599 C595 1.400 . S
C599 C598 1.385 . S
C600 C598 1.478 . S
C600 C602 1.381 . S
C600 C606 1.383 . S
C601 C597 1.495 . S
C601 H607 0.959 . S
C601 H608 0.961 . S
C601 H609 0.960 . S
C602 C600 1.381 . S
C602 C603 1.394 . S
C602 H610 0.930 . S
C603 C602 1.394 . S
C603 C604 1.383 . S
C603 H611 0.929 . S
C604 C603 1.383 . S
C604 C605 1.377 . S
C605 H589 0.930 . S
C605 C604 1.377 . S
C605 C606 1.379 . S
C606 H590 0.931 . S
C606 C600 1.383 . S
C606 C605 1.379 . S
H607 C601 0.959 . S
H608 C601 0.961 . S
H609 C601 0.960 . S
H610 C602 0.930 . S
H611 C603 0.929 . S
H612 C620 0.929 . S
H613 C622 0.930 . S
H614 C624 0.930 . S
H615 C627 0.929 . S
H616 C630 0.930 . S
H617 C632 0.960 . S
H618 C632 0.960 . S
H619 C632 0.960 . S
C620 H612 0.929 . S
C620 C621 1.377 . S
C620 C622 1.384 . S
C621 C620 1.377 . S
C621 C627 1.390 . S
C622 H613 0.930 . S
C622 C620 1.384 . S
C622 C623 1.372 . S
C623 C622 1.372 . S
C623 C624 1.400 . S
C623 C628 1.490 . S
C624 H614 0.930 . S
C624 C623 1.400 . S
C624 C627 1.386 . S
H625 C641 0.930 . S
H626 C642 0.931 . S
C627 H615 0.929 . S
C627 C621 1.390 . S
C627 C624 1.386 . S
C628 C623 1.490 . S
C628 C630 1.395 . S
C628 C631 1.403 . S
H629 C635 0.930 . S
C630 H616 0.930 . S
C630 C628 1.395 . S
C630 C633 1.403 . S
C631 C628 1.403 . S
C631 C632 1.524 . S
C631 C635 1.400 . S
C632 H617 0.960 . S
C632 H618 0.960 . S
C632 H619 0.960 . S
C632 C631 1.524 . S
C633 C630 1.403 . S
C633 C634 1.392 . S
C633 C637 1.495 . S
C634 C633 1.392 . S
C634 C635 1.385 . S
C634 C636 1.478 . S
C635 H629 0.930 . S
C635 C631 1.400 . S
C635 C634 1.385 . S
C636 C634 1.478 . S
C636 C638 1.381 . S
C636 C642 1.383 . S
C637 C633 1.495 . S
C637 H643 0.959 . S
C637 H644 0.961 . S
C637 H645 0.960 . S
C638 C636 1.381 . S
C638 C639 1.394 . S
C638 H646 0.930 . S
C639 C638 1.394 . S
C639 C640 1.383 . S
C639 H647 0.929 . S
C640 C639 1.383 . S
C640 C641 1.377 . S
C641 H625 0.930 . S
C641 C640 1.377 . S
C641 C642 1.379 . S
C642 H626 0.931 . S
C642 C636 1.383 . S
C642 C641 1.379 . S
H643 C637 0.959 . S
H644 C637 0.961 . S
H645 C637 0.960 . S
H646 C638 0.930 . S
H647 C639 0.929 . S
H648 C656 0.929 . S
H649 C658 0.930 . S
H650 C660 0.930 . S
H651 C663 0.929 . S
H652 C666 0.930 . S
H653 C668 0.960 . S
H654 C668 0.960 . S
H655 C668 0.960 . S
C656 H648 0.929 . S
C656 C657 1.377 . S
C656 C658 1.384 . S
C657 C656 1.377 . S
C657 C663 1.390 . S
C658 H649 0.930 . S
C658 C656 1.384 . S
C658 C659 1.372 . S
C659 C658 1.372 . S
C659 C660 1.400 . S
C659 C664 1.490 . S
C660 H650 0.930 . S
C660 C659 1.400 . S
C660 C663 1.386 . S
H661 C677 0.930 . S
H662 C678 0.931 . S
C663 H651 0.929 . S
C663 C657 1.390 . S
C663 C660 1.386 . S
C664 C659 1.490 . S
C664 C666 1.395 . S
C664 C667 1.403 . S
H665 C671 0.930 . S
C666 H652 0.930 . S
C666 C664 1.395 . S
C666 C669 1.403 . S
C667 C664 1.403 . S
C667 C668 1.524 . S
C667 C671 1.400 . S
C668 H653 0.960 . S
C668 H654 0.960 . S
C668 H655 0.960 . S
C668 C667 1.524 . S
C669 C666 1.403 . S
C669 C670 1.392 . S
C669 C673 1.495 . S
C670 C669 1.392 . S
C670 C671 1.385 . S
C670 C672 1.478 . S
C671 H665 0.930 . S
C671 C667 1.400 . S
C671 C670 1.385 . S
C672 C670 1.478 . S
C672 C674 1.381 . S
C672 C678 1.383 . S
C673 C669 1.495 . S
C673 H679 0.959 . S
C673 H680 0.961 . S
C673 H681 0.960 . S
C674 C672 1.381 . S
C674 C675 1.394 . S
C674 H682 0.930 . S
C675 C674 1.394 . S
C675 C676 1.383 . S
C675 H683 0.929 . S
C676 C675 1.383 . S
C676 C677 1.377 . S
C677 H661 0.930 . S
C677 C676 1.377 . S
C677 C678 1.379 . S
C678 H662 0.931 . S
C678 C672 1.383 . S
C678 C677 1.379 . S
H679 C673 0.959 . S
H680 C673 0.961 . S
H681 C673 0.960 . S
H682 C674 0.930 . S
H683 C675 0.929 . S
H684 C692 0.929 . S
H685 C694 0.930 . S
H686 C696 0.930 . S
H687 C699 0.929 . S
H688 C702 0.930 . S
H689 C704 0.960 . S
H690 C704 0.960 . S
H691 C704 0.960 . S
C692 H684 0.929 . S
C692 C693 1.377 . S
C692 C694 1.384 . S
C693 C692 1.377 . S
C693 C699 1.390 . S
C694 H685 0.930 . S
C694 C692 1.384 . S
C694 C695 1.372 . S
C695 C694 1.372 . S
C695 C696 1.400 . S
C695 C700 1.490 . S
C696 H686 0.930 . S
C696 C695 1.400 . S
C696 C699 1.386 . S
H697 C713 0.930 . S
H698 C714 0.931 . S
C699 H687 0.929 . S
C699 C693 1.390 . S
C699 C696 1.386 . S
C700 C695 1.490 . S
C700 C702 1.395 . S
C700 C703 1.403 . S
H701 C707 0.930 . S
C702 H688 0.930 . S
C702 C700 1.395 . S
C702 C705 1.403 . S
C703 C700 1.403 . S
C703 C704 1.524 . S
C703 C707 1.400 . S
C704 H689 0.960 . S
C704 H690 0.960 . S
C704 H691 0.960 . S
C704 C703 1.524 . S
C705 C702 1.403 . S
C705 C706 1.392 . S
C705 C709 1.495 . S
C706 C705 1.392 . S
C706 C707 1.385 . S
C706 C708 1.478 . S
C707 H701 0.930 . S
C707 C703 1.400 . S
C707 C706 1.385 . S
C708 C706 1.478 . S
C708 C710 1.381 . S
C708 C714 1.383 . S
C709 C705 1.495 . S
C709 H715 0.959 . S
C709 H716 0.961 . S
C709 H717 0.960 . S
C710 C708 1.381 . S
C710 C711 1.394 . S
C710 H718 0.930 . S
C711 C710 1.394 . S
C711 C712 1.383 . S
C711 H719 0.929 . S
C712 C711 1.383 . S
C712 C713 1.377 . S
C713 H697 0.930 . S
C713 C712 1.377 . S
C713 C714 1.379 . S
C714 H698 0.931 . S
C714 C708 1.383 . S
C714 C713 1.379 . S
H715 C709 0.959 . S
H716 C709 0.961 . S
H717 C709 0.960 . S
H718 C710 0.930 . S
H719 C711 0.929 . S
H720 C728 0.929 . S
H721 C730 0.930 . S
H722 C732 0.930 . S
H723 C735 0.929 . S
H724 C738 0.930 . S
H725 C740 0.960 . S
H726 C740 0.960 . S
H727 C740 0.960 . S
C728 H720 0.929 . S
C728 C729 1.377 . S
C728 C730 1.384 . S
C729 C728 1.377 . S
C729 C735 1.390 . S
C730 H721 0.930 . S
C730 C728 1.384 . S
C730 C731 1.372 . S
C731 C730 1.372 . S
C731 C732 1.400 . S
C731 C736 1.490 . S
C732 H722 0.930 . S
C732 C731 1.400 . S
C732 C735 1.386 . S
H733 C749 0.930 . S
H734 C750 0.931 . S
C735 H723 0.929 . S
C735 C729 1.390 . S
C735 C732 1.386 . S
C736 C731 1.490 . S
C736 C738 1.395 . S
C736 C739 1.403 . S
H737 C743 0.930 . S
C738 H724 0.930 . S
C738 C736 1.395 . S
C738 C741 1.403 . S
C739 C736 1.403 . S
C739 C740 1.524 . S
C739 C743 1.400 . S
C740 H725 0.960 . S
C740 H726 0.960 . S
C740 H727 0.960 . S
C740 C739 1.524 . S
C741 C738 1.403 . S
C741 C742 1.392 . S
C741 C745 1.495 . S
C742 C741 1.392 . S
C742 C743 1.385 . S
C742 C744 1.478 . S
C743 H737 0.930 . S
C743 C739 1.400 . S
C743 C742 1.385 . S
C744 C742 1.478 . S
C744 C746 1.381 . S
C744 C750 1.383 . S
C745 C741 1.495 . S
C745 H751 0.959 . S
C745 H752 0.961 . S
C745 H753 0.960 . S
C746 C744 1.381 . S
C746 C747 1.394 . S
C746 H754 0.930 . S
C747 C746 1.394 . S
C747 C748 1.383 . S
C747 H755 0.929 . S
C748 C747 1.383 . S
C748 C749 1.377 . S
C749 H733 0.930 . S
C749 C748 1.377 . S
C749 C750 1.379 . S
C750 H734 0.931 . S
C750 C744 1.383 . S
C750 C749 1.379 . S
H751 C745 0.959 . S
H752 C745 0.961 . S
H753 C745 0.960 . S
H754 C746 0.930 . S
H755 C747 0.929 . S
H756 C764 0.929 . S
H757 C766 0.930 . S
H758 C768 0.930 . S
H759 C771 0.929 . S
H760 C774 0.930 . S
H761 C776 0.960 . S
H762 C776 0.960 . S
H763 C776 0.960 . S
C764 H756 0.929 . S
C764 C765 1.377 . S
C764 C766 1.384 . S
C765 C764 1.377 . S
C765 C771 1.390 . S
C766 H757 0.930 . S
C766 C764 1.384 . S
C766 C767 1.372 . S
C767 C766 1.372 . S
C767 C768 1.400 . S
C767 C772 1.490 . S
C768 H758 0.930 . S
C768 C767 1.400 . S
C768 C771 1.386 . S
H769 C785 0.930 . S
H770 C786 0.931 . S
C771 H759 0.929 . S
C771 C765 1.390 . S
C771 C768 1.386 . S
C772 C767 1.490 . S
C772 C774 1.395 . S
C772 C775 1.403 . S
H773 C779 0.930 . S
C774 H760 0.930 . S
C774 C772 1.395 . S
C774 C777 1.403 . S
C775 C772 1.403 . S
C775 C776 1.524 . S
C775 C779 1.400 . S
C776 H761 0.960 . S
C776 H762 0.960 . S
C776 H763 0.960 . S
C776 C775 1.524 . S
C777 C774 1.403 . S
C777 C778 1.392 . S
C777 C781 1.495 . S
C778 C777 1.392 . S
C778 C779 1.385 . S
C778 C780 1.478 . S
C779 H773 0.930 . S
C779 C775 1.400 . S
C779 C778 1.385 . S
C780 C778 1.478 . S
C780 C782 1.381 . S
C780 C786 1.383 . S
C781 C777 1.495 . S
C781 H787 0.959 . S
C781 H788 0.961 . S
C781 H789 0.960 . S
C782 C780 1.381 . S
C782 C783 1.394 . S
C782 H790 0.930 . S
C783 C782 1.394 . S
C783 C784 1.383 . S
C783 H791 0.929 . S
C784 C783 1.383 . S
C784 C785 1.377 . S
C785 H769 0.930 . S
C785 C784 1.377 . S
C785 C786 1.379 . S
C786 H770 0.931 . S
C786 C780 1.383 . S
C786 C785 1.379 . S
H787 C781 0.959 . S
H788 C781 0.961 . S
H789 C781 0.960 . S
H790 C782 0.930 . S
H791 C783 0.929 . S
H792 C800 0.929 . S
H793 C802 0.930 . S
H794 C804 0.930 . S
H795 C807 0.929 . S
H796 C810 0.930 1_556 S
H797 C812 0.960 . S
H798 C812 0.960 . S
H799 C812 0.960 . S
C800 H792 0.929 . S
C800 C801 1.377 . S
C800 C802 1.384 . S
C801 C800 1.377 . S
C801 C807 1.390 1_556 S
C802 H793 0.930 . S
C802 C800 1.384 . S
C802 C803 1.372 1_556 S
C803 C802 1.372 1_554 S
C803 C804 1.400 . S
C803 C808 1.490 1_655 S
C804 H794 0.930 . S
C804 C803 1.400 . S
C804 C807 1.386 . S
H805 C821 0.930 . S
H806 C822 0.931 . S
C807 H795 0.929 . S
C807 C801 1.390 1_554 S
C807 C804 1.386 . S
C808 C803 1.490 1_455 S
C808 C810 1.395 . S
C808 C811 1.403 . S
H809 C815 0.930 . S
C810 H796 0.930 1_554 S
C810 C808 1.395 . S
C810 C813 1.403 . S
C811 C808 1.403 . S
C811 C812 1.524 1_455 S
C811 C815 1.400 . S
C812 H797 0.960 . S
C812 H798 0.960 . S
C812 H799 0.960 . S
C812 C811 1.524 1_655 S
C813 C810 1.403 . S
C813 C814 1.392 . S
C813 C817 1.495 1_554 S
C814 C813 1.392 . S
C814 C815 1.385 . S
C814 C816 1.478 . S
C815 H809 0.930 . S
C815 C811 1.400 . S
C815 C814 1.385 . S
C816 C814 1.478 . S
C816 C818 1.381 . S
C816 C822 1.383 . S
C817 C813 1.495 1_556 S
C817 H823 0.959 . S
C817 H824 0.961 1_556 S
C817 H825 0.960 1_556 S
C818 C816 1.381 . S
C818 C819 1.394 . S
C818 H826 0.930 . S
C819 C818 1.394 . S
C819 C820 1.383 . S
C819 H827 0.929 . S
C820 C819 1.383 . S
C820 C821 1.377 . S
C821 H805 0.930 . S
C821 C820 1.377 . S
C821 C822 1.379 . S
C822 H806 0.931 . S
C822 C816 1.383 . S
C822 C821 1.379 . S
H823 C817 0.959 . S
H824 C817 0.961 1_554 S
H825 C817 0.960 1_554 S
H826 C818 0.930 . S
H827 C819 0.929 . S
H828 C836 0.931 . S
H829 C838 0.930 . S
H830 C840 0.930 . S
H831 C843 0.929 . S
H832 C846 0.930 1_556 S
H833 C848 0.960 . S
H834 C848 0.960 . S
H835 C848 0.960 . S
C836 H828 0.931 . S
C836 C837 1.380 . S
C836 C838 1.380 1_556 S
C837 C836 1.380 . S
C837 C843 1.390 . S
C838 H829 0.930 . S
C838 C836 1.380 1_554 S
C838 C839 1.372 . S
C839 C838 1.372 . S
C839 C840 1.400 . S
C839 C844 1.490 . S
C840 H830 0.930 . S
C840 C839 1.400 . S
C840 C843 1.386 1_554 S
H841 C857 0.930 . S
H842 C858 0.931 . S
C843 H831 0.929 . S
C843 C837 1.390 . S
C843 C840 1.386 1_556 S
C844 C839 1.490 . S
C844 C846 1.395 . S
C844 C847 1.403 . S
H845 C851 0.930 . S
C846 H832 0.930 1_554 S
C846 C844 1.395 . S
C846 C849 1.403 . S
C847 C844 1.403 . S
C847 C848 1.524 . S
C847 C851 1.400 . S
C848 H833 0.960 . S
C848 H834 0.960 . S
C848 H835 0.960 . S
C848 C847 1.524 . S
C849 C846 1.403 . S
C849 C850 1.392 . S
C849 C853 1.495 . S
C850 C849 1.392 . S
C850 C851 1.385 . S
C850 C852 1.478 . S
C851 H845 0.930 . S
C851 C847 1.400 . S
C851 C850 1.385 . S
C852 C850 1.478 . S
C852 C854 1.381 . S
C852 C858 1.383 . S
C853 C849 1.495 . S
C853 H859 0.959 1_554 S
C853 H860 0.961 . S
C853 H861 0.960 . S
C854 C852 1.381 . S
C854 C855 1.394 . S
C854 H862 0.930 . S
C855 C854 1.394 . S
C855 C856 1.383 . S
C855 H863 0.929 . S
C856 C855 1.383 . S
C856 C857 1.377 . S
C857 H841 0.930 . S
C857 C856 1.377 . S
C857 C858 1.379 . S
C858 H842 0.931 . S
C858 C852 1.383 . S
C858 C857 1.379 . S
H859 C853 0.959 1_556 S
H860 C853 0.961 . S
H861 C853 0.960 . S
H862 C854 0.930 . S
H863 C855 0.929 . S
H864 C872 0.929 . S
H865 C874 0.932 . S
H866 C876 0.930 . S
H867 C879 0.929 . S
H868 C882 0.930 1_556 S
H869 C884 0.960 . S
H870 C884 0.960 . S
H871 C884 0.960 . S
C872 H864 0.929 . S
C872 C873 1.377 . S
C872 C874 1.384 1_556 S
C873 C872 1.377 . S
C873 C879 1.390 1_556 S
C874 H865 0.932 . S
C874 C872 1.384 1_554 S
C874 C875 1.372 . S
C875 C874 1.372 . S
C875 C876 1.400 . S
C875 C880 1.490 . S
C876 H866 0.930 . S
C876 C875 1.400 . S
C876 C879 1.386 . S
H877 C893 0.930 . S
H878 C894 0.931 . S
C879 H867 0.929 . S
C879 C873 1.390 1_554 S
C879 C876 1.386 . S
C880 C875 1.490 . S
C880 C882 1.395 . S
C880 C883 1.403 . S
H881 C887 0.930 . S
C882 H868 0.930 1_554 S
C882 C880 1.395 . S
C882 C885 1.403 1_545 S
C883 C880 1.403 . S
C883 C884 1.524 . S
C883 C887 1.400 1_545 S
C884 H869 0.960 . S
C884 H870 0.960 . S
C884 H871 0.960 . S
C884 C883 1.524 . S
C885 C882 1.403 1_565 S
C885 C886 1.392 . S
C885 C889 1.501 . S
C886 C885 1.392 . S
C886 C887 1.385 . S
C886 C888 1.478 . S
C887 H881 0.930 . S
C887 C883 1.400 1_565 S
C887 C886 1.385 . S
C888 C886 1.478 . S
C888 C890 1.381 . S
C888 C894 1.383 . S
C889 C885 1.501 . S
C889 H895 0.951 1_554 S
C889 H896 0.961 . S
C889 H897 0.962 . S
C890 C888 1.381 . S
C890 C891 1.394 . S
C890 H898 0.930 . S
C891 C890 1.394 . S
C891 C892 1.383 . S
C891 H899 0.929 . S
C892 C891 1.383 . S
C892 C893 1.377 . S
C893 H877 0.930 . S
C893 C892 1.377 . S
C893 C894 1.379 . S
C894 H878 0.931 . S
C894 C888 1.383 . S
C894 C893 1.379 . S
H895 C889 0.951 1_556 S
H896 C889 0.961 . S
H897 C889 0.962 . S
H898 C890 0.930 . S
H899 C891 0.929 . S
H900 C908 0.929 . S
H901 C910 0.930 . S
H902 C912 0.930 . S
H903 C915 0.929 . S
H904 C918 0.930 . S
H905 C920 0.960 . S
H906 C920 0.960 . S
H907 C920 0.960 . S
C908 H900 0.929 . S
C908 C909 1.377 . S
C908 C910 1.384 . S
C909 C908 1.377 . S
C909 C915 1.390 . S
C910 H901 0.930 . S
C910 C908 1.384 . S
C910 C911 1.372 . S
C911 C910 1.372 . S
C911 C912 1.400 . S
C911 C916 1.490 . S
C912 H902 0.930 . S
C912 C911 1.400 . S
C912 C915 1.386 . S
H913 C929 0.930 . S
H914 C930 0.931 . S
C915 H903 0.929 . S
C915 C909 1.390 . S
C915 C912 1.386 . S
C916 C911 1.490 . S
C916 C918 1.395 . S
C916 C919 1.403 . S
H917 C923 0.930 . S
C918 H904 0.930 . S
C918 C916 1.395 . S
C918 C921 1.403 . S
C919 C916 1.403 . S
C919 C920 1.524 . S
C919 C923 1.400 . S
C920 H905 0.960 . S
C920 H906 0.960 . S
C920 H907 0.960 . S
C920 C919 1.524 . S
C921 C918 1.403 . S
C921 C922 1.392 . S
C921 C925 1.495 1_545 S
C922 C921 1.392 . S
C922 C923 1.385 . S
C922 C924 1.478 1_545 S
C923 H917 0.930 . S
C923 C919 1.400 . S
C923 C922 1.385 . S
C924 C922 1.478 1_565 S
C924 C926 1.381 1_556 S
C924 C930 1.383 . S
C925 C921 1.495 1_565 S
C925 H931 0.959 1_565 S
C925 H932 0.961 . S
C925 H933 0.960 . S
C926 C924 1.381 1_554 S
C926 C927 1.394 . S
C926 H934 0.930 . S
C927 C926 1.394 . S
C927 C928 1.383 . S
C927 H935 0.929 . S
C928 C927 1.383 . S
C928 C929 1.377 1_554 S
C929 H913 0.930 . S
C929 C928 1.377 1_556 S
C929 C930 1.379 . S
C930 H914 0.931 . S
C930 C924 1.383 . S
C930 C929 1.379 . S
H931 C925 0.959 1_545 S
H932 C925 0.961 . S
H933 C925 0.960 . S
H934 C926 0.930 . S
H935 C927 0.929 . S
H936 C944 0.929 . S
H937 C946 0.930 . S
H938 C948 0.930 . S
H939 C951 0.929 . S
H940 C954 0.930 1_554 S
H941 C956 0.960 . S
H942 C956 0.960 . S
H943 C956 0.960 . S
C944 H936 0.929 . S
C944 C945 1.377 . S
C944 C946 1.384 . S
C945 C944 1.377 . S
C945 C951 1.390 1_554 S
C946 H937 0.930 . S
C946 C944 1.384 . S
C946 C947 1.372 1_554 S
C947 C946 1.372 1_556 S
C947 C948 1.400 . S
C947 C952 1.490 . S
C948 H938 0.930 . S
C948 C947 1.400 . S
C948 C951 1.386 . S
H949 C965 0.930 . S
H950 C966 0.931 . S
C951 H939 0.929 . S
C951 C945 1.390 1_556 S
C951 C948 1.386 . S
C952 C947 1.490 . S
C952 C954 1.395 . S
C952 C955 1.403 . S
H953 C959 0.932 . S
C954 H940 0.930 1_556 S
C954 C952 1.395 . S
C954 C957 1.403 1_455 S
C955 C952 1.403 . S
C955 C956 1.524 . S
C955 C959 1.389 1_455 S
C956 H941 0.960 . S
C956 H942 0.960 . S
C956 H943 0.960 . S
C956 C955 1.524 . S
C957 C954 1.403 1_655 S
C957 C958 1.392 . S
C957 C961 1.495 1_556 S
C958 C957 1.392 . S
C958 C959 1.394 . S
C958 C960 1.478 . S
C959 H953 0.932 . S
C959 C955 1.389 1_655 S
C959 C958 1.394 . S
C960 C958 1.478 . S
C960 C962 1.381 . S
C960 C966 1.383 . S
C961 C957 1.495 1_554 S
C961 H967 0.959 . S
C961 H968 0.961 1_554 S
C961 H969 0.960 1_554 S
C962 C960 1.381 . S
C962 C963 1.394 . S
C962 H970 0.930 . S
C963 C962 1.394 . S
C963 C964 1.383 . S
C963 H971 0.929 . S
C964 C963 1.383 . S
C964 C965 1.377 . S
C965 H949 0.930 . S
C965 C964 1.377 . S
C965 C966 1.379 . S
C966 H950 0.931 . S
C966 C960 1.383 . S
C966 C965 1.379 . S
H967 C961 0.959 . S
H968 C961 0.961 1_556 S
H969 C961 0.960 1_556 S
H970 C962 0.930 . S
H971 C963 0.929 . S
H972 C980 0.929 . S
H973 C982 0.930 . S
H974 C984 0.930 . S
H975 C987 0.929 . S
H976 C990 0.930 . S
H977 C992 0.960 . S
H978 C992 0.960 . S
H979 C992 0.960 . S
C980 H972 0.929 . S
C980 C981 1.377 . S
C980 C982 1.384 1_554 S
C981 C980 1.377 . S
C981 C987 1.390 1_554 S
C982 H973 0.930 . S
C982 C980 1.384 1_556 S
C982 C983 1.372 . S
C983 C982 1.372 . S
C983 C984 1.400 . S
C983 C988 1.490 . S
C984 H974 0.930 . S
C984 C983 1.400 . S
C984 C987 1.386 . S
H985 C1001 0.930 . S
H986 C1002 0.931 . S
C987 H975 0.929 . S
C987 C981 1.390 1_556 S
C987 C984 1.386 . S
C988 C983 1.490 . S
C988 C990 1.395 . S
C988 C991 1.403 . S
H989 C995 0.930 . S
C990 H976 0.930 . S
C990 C988 1.395 . S
C990 C993 1.403 . S
C991 C988 1.403 . S
C991 C992 1.524 1_556 S
C991 C995 1.400 . S
C992 H977 0.960 . S
C992 H978 0.960 . S
C992 H979 0.960 . S
C992 C991 1.524 1_554 S
C993 C990 1.403 . S
C993 C994 1.392 . S
C993 C997 1.495 . S
C994 C993 1.392 . S
C994 C995 1.385 . S
C994 C996 1.478 . S
C995 H989 0.930 . S
C995 C991 1.400 . S
C995 C994 1.385 . S
C996 C994 1.478 . S
C996 C998 1.381 . S
C996 C1002 1.383 . S
C997 C993 1.495 . S
C997 H1003 0.959 . S
C997 H1004 0.961 . S
C997 H1005 0.960 . S
C998 C996 1.381 . S
C998 C999 1.394 . S
C998 H1006 0.930 . S
C999 C998 1.394 . S
C999 C1000 1.383 . S
C999 H1007 0.929 . S
C1000 C999 1.383 . S
C1000 C1001 1.377 . S
C1001 H985 0.930 . S
C1001 C1000 1.377 . S
C1001 C1002 1.379 . S
C1002 H986 0.931 . S
C1002 C996 1.383 . S
C1002 C1001 1.379 . S
H1003 C997 0.959 . S
H1004 C997 0.961 . S
H1005 C997 0.960 . S
H1006 C998 0.930 . S
H1007 C999 0.929 . S
H1008 C1016 0.929 . S
H1009 C1018 0.930 . S
H1010 C1020 0.930 . S
H1011 C1023 0.929 . S
H1012 C1026 0.930 . S
H1013 C1028 0.960 . S
H1014 C1028 0.960 . S
H1015 C1028 0.960 . S
C1016 H1008 0.929 . S
C1016 C1017 1.377 . S
C1016 C1018 1.384 . S
C1017 C1016 1.377 . S
C1017 C1023 1.390 . S
C1018 H1009 0.930 . S
C1018 C1016 1.384 . S
C1018 C1019 1.372 . S
C1019 C1018 1.372 . S
C1019 C1020 1.400 . S
C1019 C1024 1.490 . S
C1020 H1010 0.930 . S
C1020 C1019 1.400 . S
C1020 C1023 1.386 . S
H1021 C1037 0.930 . S
H1022 C1038 0.931 . S
C1023 H1011 0.929 . S
C1023 C1017 1.390 . S
C1023 C1020 1.386 . S
C1024 C1019 1.490 . S
C1024 C1026 1.395 . S
C1024 C1027 1.403 . S
H1025 C1031 0.930 . S
C1026 H1012 0.930 . S
C1026 C1024 1.395 . S
C1026 C1029 1.403 . S
C1027 C1024 1.403 . S
C1027 C1028 1.524 . S
C1027 C1031 1.400 . S
C1028 H1013 0.960 . S
C1028 H1014 0.960 . S
C1028 H1015 0.960 . S
C1028 C1027 1.524 . S
C1029 C1026 1.403 . S
C1029 C1030 1.392 . S
C1029 C1033 1.495 . S
C1030 C1029 1.392 . S
C1030 C1031 1.385 . S
C1030 C1032 1.478 . S
C1031 H1025 0.930 . S
C1031 C1027 1.400 . S
C1031 C1030 1.385 . S
C1032 C1030 1.478 . S
C1032 C1034 1.381 . S
C1032 C1038 1.383 . S
C1033 C1029 1.495 . S
C1033 H1039 0.959 . S
C1033 H1040 0.961 . S
C1033 H1041 0.960 . S
C1034 C1032 1.381 . S
C1034 C1035 1.394 . S
C1034 H1042 0.930 . S
C1035 C1034 1.394 . S
C1035 C1036 1.383 . S
C1035 H1043 0.929 . S
C1036 C1035 1.383 . S
C1036 C1037 1.377 . S
C1037 H1021 0.930 . S
C1037 C1036 1.377 . S
C1037 C1038 1.379 . S
C1038 H1022 0.931 . S
C1038 C1032 1.383 . S
C1038 C1037 1.379 . S
H1039 C1033 0.959 . S
H1040 C1033 0.961 . S
H1041 C1033 0.960 . S
H1042 C1034 0.930 . S
H1043 C1035 0.929 . S
H1044 C1052 0.929 . S
H1045 C1054 0.930 . S
H1046 C1056 0.930 . S
H1047 C1059 0.929 . S
H1048 C1062 0.930 . S
H1049 C1064 0.960 . S
H1050 C1064 0.960 . S
H1051 C1064 0.960 . S
C1052 H1044 0.929 . S
C1052 C1053 1.377 . S
C1052 C1054 1.384 . S
C1053 C1052 1.377 . S
C1053 C1059 1.390 . S
C1054 H1045 0.930 . S
C1054 C1052 1.384 . S
C1054 C1055 1.372 . S
C1055 C1054 1.372 . S
C1055 C1056 1.400 . S
C1055 C1060 1.490 . S
C1056 H1046 0.930 . S
C1056 C1055 1.400 . S
C1056 C1059 1.386 . S
H1057 C1073 0.930 . S
H1058 C1074 0.931 . S
C1059 H1047 0.929 . S
C1059 C1053 1.390 . S
C1059 C1056 1.386 . S
C1060 C1055 1.490 . S
C1060 C1062 1.395 . S
C1060 C1063 1.403 . S
H1061 C1067 0.930 . S
C1062 H1048 0.930 . S
C1062 C1060 1.395 . S
C1062 C1065 1.403 . S
C1063 C1060 1.403 . S
C1063 C1064 1.524 . S
C1063 C1067 1.400 . S
C1064 H1049 0.960 . S
C1064 H1050 0.960 . S
C1064 H1051 0.960 . S
C1064 C1063 1.524 . S
C1065 C1062 1.403 . S
C1065 C1066 1.392 . S
C1065 C1069 1.495 . S
C1066 C1065 1.392 . S
C1066 C1067 1.385 . S
C1066 C1068 1.478 . S
C1067 H1061 0.930 . S
C1067 C1063 1.400 . S
C1067 C1066 1.385 . S
C1068 C1066 1.478 . S
C1068 C1070 1.381 . S
C1068 C1074 1.383 . S
C1069 C1065 1.495 . S
C1069 H1075 0.959 . S
C1069 H1076 0.961 . S
C1069 H1077 0.960 . S
C1070 C1068 1.381 . S
C1070 C1071 1.394 . S
C1070 H1078 0.930 . S
C1071 C1070 1.394 . S
C1071 C1072 1.383 . S
C1071 H1079 0.929 . S
C1072 C1071 1.383 . S
C1072 C1073 1.377 . S
C1073 H1057 0.930 . S
C1073 C1072 1.377 . S
C1073 C1074 1.379 . S
C1074 H1058 0.931 . S
C1074 C1068 1.383 . S
C1074 C1073 1.379 . S
H1075 C1069 0.959 . S
H1076 C1069 0.961 . S
H1077 C1069 0.960 . S
H1078 C1070 0.930 . S
H1079 C1071 0.929 . S
H1080 C1088 0.929 . S
H1081 C1090 0.930 . S
H1082 C1092 0.930 . S
H1083 C1095 0.929 . S
H1084 C1098 0.930 . S
H1085 C1100 0.960 . S
H1086 C1100 0.960 . S
H1087 C1100 0.960 . S
C1088 H1080 0.929 . S
C1088 C1089 1.377 . S
C1088 C1090 1.384 . S
C1089 C1088 1.377 . S
C1089 C1095 1.390 . S
C1090 H1081 0.930 . S
C1090 C1088 1.384 . S
C1090 C1091 1.372 . S
C1091 C1090 1.372 . S
C1091 C1092 1.400 . S
C1091 C1096 1.490 . S
C1092 H1082 0.930 . S
C1092 C1091 1.400 . S
C1092 C1095 1.386 . S
H1093 C1109 0.930 . S
H1094 C1110 0.931 . S
C1095 H1083 0.929 . S
C1095 C1089 1.390 . S
C1095 C1092 1.386 . S
C1096 C1091 1.490 . S
C1096 C1098 1.395 . S
C1096 C1099 1.403 . S
H1097 C1103 0.930 . S
C1098 H1084 0.930 . S
C1098 C1096 1.395 . S
C1098 C1101 1.403 . S
C1099 C1096 1.403 . S
C1099 C1100 1.524 . S
C1099 C1103 1.400 . S
C1100 H1085 0.960 . S
C1100 H1086 0.960 . S
C1100 H1087 0.960 . S
C1100 C1099 1.524 . S
C1101 C1098 1.403 . S
C1101 C1102 1.392 . S
C1101 C1105 1.495 . S
C1102 C1101 1.392 . S
C1102 C1103 1.385 . S
C1102 C1104 1.478 . S
C1103 H1097 0.930 . S
C1103 C1099 1.400 . S
C1103 C1102 1.385 . S
C1104 C1102 1.478 . S
C1104 C1106 1.381 . S
C1104 C1110 1.383 . S
C1105 C1101 1.495 . S
C1105 H1111 0.959 . S
C1105 H1112 0.961 . S
C1105 H1113 0.960 . S
C1106 C1104 1.381 . S
C1106 C1107 1.394 . S
C1106 H1114 0.930 . S
C1107 C1106 1.394 . S
C1107 C1108 1.383 . S
C1107 H1115 0.929 . S
C1108 C1107 1.383 . S
C1108 C1109 1.377 . S
C1109 H1093 0.930 . S
C1109 C1108 1.377 . S
C1109 C1110 1.379 . S
C1110 H1094 0.931 . S
C1110 C1104 1.383 . S
C1110 C1109 1.379 . S
H1111 C1105 0.959 . S
H1112 C1105 0.961 . S
H1113 C1105 0.960 . S
H1114 C1106 0.930 . S
H1115 C1107 0.929 . S
H1116 C1124 0.929 . S
H1117 C1126 0.930 . S
H1118 C1128 0.930 . S
H1119 C1131 0.929 . S
H1120 C1134 0.930 . S
H1121 C1136 0.960 . S
H1122 C1136 0.960 . S
H1123 C1136 0.960 . S
C1124 H1116 0.929 . S
C1124 C1125 1.377 . S
C1124 C1126 1.384 . S
C1125 C1124 1.377 . S
C1125 C1131 1.390 . S
C1126 H1117 0.930 . S
C1126 C1124 1.384 . S
C1126 C1127 1.372 . S
C1127 C1126 1.372 . S
C1127 C1128 1.400 . S
C1127 C1132 1.490 . S
C1128 H1118 0.930 . S
C1128 C1127 1.400 . S
C1128 C1131 1.386 . S
H1129 C1145 0.930 . S
H1130 C1146 0.931 . S
C1131 H1119 0.929 . S
C1131 C1125 1.390 . S
C1131 C1128 1.386 . S
C1132 C1127 1.490 . S
C1132 C1134 1.395 . S
C1132 C1135 1.403 . S
H1133 C1139 0.930 . S
C1134 H1120 0.930 . S
C1134 C1132 1.395 . S
C1134 C1137 1.403 . S
C1135 C1132 1.403 . S
C1135 C1136 1.524 . S
C1135 C1139 1.400 . S
C1136 H1121 0.960 . S
C1136 H1122 0.960 . S
C1136 H1123 0.960 . S
C1136 C1135 1.524 . S
C1137 C1134 1.403 . S
C1137 C1138 1.392 . S
C1137 C1141 1.495 . S
C1138 C1137 1.392 . S
C1138 C1139 1.385 . S
C1138 C1140 1.478 . S
C1139 H1133 0.930 . S
C1139 C1135 1.400 . S
C1139 C1138 1.385 . S
C1140 C1138 1.478 . S
C1140 C1142 1.381 . S
C1140 C1146 1.383 . S
C1141 C1137 1.495 . S
C1141 H1147 0.959 . S
C1141 H1148 0.961 . S
C1141 H1149 0.960 . S
C1142 C1140 1.381 . S
C1142 C1143 1.394 . S
C1142 H1150 0.930 . S
C1143 C1142 1.394 . S
C1143 C1144 1.383 . S
C1143 H1151 0.929 . S
C1144 C1143 1.383 . S
C1144 C1145 1.377 . S
C1145 H1129 0.930 . S
C1145 C1144 1.377 . S
C1145 C1146 1.379 . S
C1146 H1130 0.931 . S
C1146 C1140 1.383 . S
C1146 C1145 1.379 . S
H1147 C1141 0.959 . S
H1148 C1141 0.961 . S
H1149 C1141 0.960 . S
H1150 C1142 0.930 . S
H1151 C1143 0.929 . S
H1152 C1160 0.929 . S
H1153 C1162 0.930 . S
H1154 C1164 0.930 . S
H1155 C1167 0.929 . S
H1156 C1170 0.930 . S
H1157 C1172 0.960 . S
H1158 C1172 0.960 . S
H1159 C1172 0.960 . S
C1160 H1152 0.929 . S
C1160 C1161 1.377 . S
C1160 C1162 1.384 . S
C1161 C1160 1.377 . S
C1161 C1167 1.390 . S
C1162 H1153 0.930 . S
C1162 C1160 1.384 . S
C1162 C1163 1.372 . S
C1163 C1162 1.372 . S
C1163 C1164 1.400 . S
C1163 C1168 1.490 . S
C1164 H1154 0.930 . S
C1164 C1163 1.400 . S
C1164 C1167 1.386 . S
H1165 C1181 0.930 . S
H1166 C1182 0.931 . S
C1167 H1155 0.929 . S
C1167 C1161 1.390 . S
C1167 C1164 1.386 . S
C1168 C1163 1.490 . S
C1168 C1170 1.395 . S
C1168 C1171 1.403 . S
H1169 C1175 0.930 . S
C1170 H1156 0.930 . S
C1170 C1168 1.395 . S
C1170 C1173 1.403 . S
C1171 C1168 1.403 . S
C1171 C1172 1.524 . S
C1171 C1175 1.400 . S
C1172 H1157 0.960 . S
C1172 H1158 0.960 . S
C1172 H1159 0.960 . S
C1172 C1171 1.524 . S
C1173 C1170 1.403 . S
C1173 C1174 1.392 . S
C1173 C1177 1.495 . S
C1174 C1173 1.392 . S
C1174 C1175 1.385 . S
C1174 C1176 1.478 . S
C1175 H1169 0.930 . S
C1175 C1171 1.400 . S
C1175 C1174 1.385 . S
C1176 C1174 1.478 . S
C1176 C1178 1.381 . S
C1176 C1182 1.383 . S
C1177 C1173 1.495 . S
C1177 H1183 0.959 . S
C1177 H1184 0.961 . S
C1177 H1185 0.960 . S
C1178 C1176 1.381 . S
C1178 C1179 1.394 . S
C1178 H1186 0.930 . S
C1179 C1178 1.394 . S
C1179 C1180 1.383 . S
C1179 H1187 0.929 . S
C1180 C1179 1.383 . S
C1180 C1181 1.377 . S
C1181 H1165 0.930 . S
C1181 C1180 1.377 . S
C1181 C1182 1.379 . S
C1182 H1166 0.931 . S
C1182 C1176 1.383 . S
C1182 C1181 1.379 . S
H1183 C1177 0.959 . S
H1184 C1177 0.961 . S
H1185 C1177 0.960 . S
H1186 C1178 0.930 . S
H1187 C1179 0.929 . S
H1188 C1196 0.929 . S
H1189 C1198 0.930 . S
H1190 C1200 0.930 . S
H1191 C1203 0.929 . S
H1192 C1206 0.930 . S
H1193 C1208 0.960 . S
H1194 C1208 0.960 . S
H1195 C1208 0.960 . S
C1196 H1188 0.929 . S
C1196 C1197 1.377 . S
C1196 C1198 1.384 . S
C1197 C1196 1.377 . S
C1197 C1203 1.390 . S
C1198 H1189 0.930 . S
C1198 C1196 1.384 . S
C1198 C1199 1.372 . S
C1199 C1198 1.372 . S
C1199 C1200 1.400 . S
C1199 C1204 1.490 . S
C1200 H1190 0.930 . S
C1200 C1199 1.400 . S
C1200 C1203 1.386 . S
H1201 C1217 0.930 . S
H1202 C1218 0.931 . S
C1203 H1191 0.929 . S
C1203 C1197 1.390 . S
C1203 C1200 1.386 . S
C1204 C1199 1.490 . S
C1204 C1206 1.395 . S
C1204 C1207 1.403 . S
H1205 C1211 0.930 . S
C1206 H1192 0.930 . S
C1206 C1204 1.395 . S
C1206 C1209 1.403 . S
C1207 C1204 1.403 . S
C1207 C1208 1.524 . S
C1207 C1211 1.400 . S
C1208 H1193 0.960 . S
C1208 H1194 0.960 . S
C1208 H1195 0.960 . S
C1208 C1207 1.524 . S
C1209 C1206 1.403 . S
C1209 C1210 1.392 . S
C1209 C1213 1.495 . S
C1210 C1209 1.392 . S
C1210 C1211 1.385 . S
C1210 C1212 1.478 . S
C1211 H1205 0.930 . S
C1211 C1207 1.400 . S
C1211 C1210 1.385 . S
C1212 C1210 1.478 . S
C1212 C1214 1.381 . S
C1212 C1218 1.383 . S
C1213 C1209 1.495 . S
C1213 H1219 0.959 . S
C1213 H1220 0.961 . S
C1213 H1221 0.960 . S
C1214 C1212 1.381 . S
C1214 C1215 1.394 . S
C1214 H1222 0.930 . S
C1215 C1214 1.394 . S
C1215 C1216 1.383 . S
C1215 H1223 0.929 . S
C1216 C1215 1.383 . S
C1216 C1217 1.377 . S
C1217 H1201 0.930 . S
C1217 C1216 1.377 . S
C1217 C1218 1.379 . S
C1218 H1202 0.931 . S
C1218 C1212 1.383 . S
C1218 C1217 1.379 . S
H1219 C1213 0.959 . S
H1220 C1213 0.961 . S
H1221 C1213 0.960 . S
H1222 C1214 0.930 . S
H1223 C1215 0.929 . S
H1224 C1232 0.929 . S
H1225 C1234 0.930 . S
H1226 C1236 0.930 . S
H1227 C1239 0.929 . S
H1228 C1242 0.930 . S
H1229 C1244 0.960 . S
H1230 C1244 0.960 . S
H1231 C1244 0.960 . S
C1232 H1224 0.929 . S
C1232 C1233 1.377 . S
C1232 C1234 1.384 . S
C1233 C1232 1.377 . S
C1233 C1239 1.390 . S
C1234 H1225 0.930 . S
C1234 C1232 1.384 . S
C1234 C1235 1.372 . S
C1235 C1234 1.372 . S
C1235 C1236 1.400 . S
C1235 C1240 1.490 . S
C1236 H1226 0.930 . S
C1236 C1235 1.400 . S
C1236 C1239 1.386 . S
H1237 C1253 0.930 . S
H1238 C1254 0.931 . S
C1239 H1227 0.929 . S
C1239 C1233 1.390 . S
C1239 C1236 1.386 . S
C1240 C1235 1.490 . S
C1240 C1242 1.395 . S
C1240 C1243 1.403 . S
H1241 C1247 0.930 . S
C1242 H1228 0.930 . S
C1242 C1240 1.395 . S
C1242 C1245 1.403 . S
C1243 C1240 1.403 . S
C1243 C1244 1.524 . S
C1243 C1247 1.400 . S
C1244 H1229 0.960 . S
C1244 H1230 0.960 . S
C1244 H1231 0.960 . S
C1244 C1243 1.524 . S
C1245 C1242 1.403 . S
C1245 C1246 1.392 . S
C1245 C1249 1.495 . S
C1246 C1245 1.392 . S
C1246 C1247 1.385 . S
C1246 C1248 1.478 . S
C1247 H1241 0.930 . S
C1247 C1243 1.400 . S
C1247 C1246 1.385 . S
C1248 C1246 1.478 . S
C1248 C1250 1.381 . S
C1248 C1254 1.383 . S
C1249 C1245 1.495 . S
C1249 H1255 0.959 . S
C1249 H1256 0.961 . S
C1249 H1257 0.960 . S
C1250 C1248 1.381 . S
C1250 C1251 1.394 . S
C1250 H1258 0.930 . S
C1251 C1250 1.394 . S
C1251 C1252 1.383 . S
C1251 H1259 0.929 . S
C1252 C1251 1.383 . S
C1252 C1253 1.377 . S
C1253 H1237 0.930 . S
C1253 C1252 1.377 . S
C1253 C1254 1.379 . S
C1254 H1238 0.931 . S
C1254 C1248 1.383 . S
C1254 C1253 1.379 . S
H1255 C1249 0.959 . S
H1256 C1249 0.961 . S
H1257 C1249 0.960 . S
H1258 C1250 0.930 . S
H1259 C1251 0.929 . S
H1260 C1268 0.929 . S
H1261 C1270 0.930 . S
H1262 C1272 0.930 . S
H1263 C1275 0.929 . S
H1264 C1278 0.930 . S
H1265 C1280 0.960 . S
H1266 C1280 0.960 . S
H1267 C1280 0.960 . S
C1268 H1260 0.929 . S
C1268 C1269 1.377 . S
C1268 C1270 1.384 . S
C1269 C1268 1.377 . S
C1269 C1275 1.390 . S
C1270 H1261 0.930 . S
C1270 C1268 1.384 . S
C1270 C1271 1.372 . S
C1271 C1270 1.372 . S
C1271 C1272 1.400 . S
C1271 C1276 1.490 . S
C1272 H1262 0.930 . S
C1272 C1271 1.400 . S
C1272 C1275 1.386 . S
H1273 C1289 0.930 . S
H1274 C1290 0.931 . S
C1275 H1263 0.929 . S
C1275 C1269 1.390 . S
C1275 C1272 1.386 . S
C1276 C1271 1.490 . S
C1276 C1278 1.395 . S
C1276 C1279 1.403 . S
H1277 C1283 0.930 . S
C1278 H1264 0.930 . S
C1278 C1276 1.395 . S
C1278 C1281 1.403 . S
C1279 C1276 1.403 . S
C1279 C1280 1.524 . S
C1279 C1283 1.400 . S
C1280 H1265 0.960 . S
C1280 H1266 0.960 . S
C1280 H1267 0.960 . S
C1280 C1279 1.524 . S
C1281 C1278 1.403 . S
C1281 C1282 1.392 . S
C1281 C1285 1.495 . S
C1282 C1281 1.392 . S
C1282 C1283 1.385 . S
C1282 C1284 1.478 . S
C1283 H1277 0.930 . S
C1283 C1279 1.400 . S
C1283 C1282 1.385 . S
C1284 C1282 1.478 . S
C1284 C1286 1.381 . S
C1284 C1290 1.383 . S
C1285 C1281 1.495 . S
C1285 H1291 0.959 . S
C1285 H1292 0.961 . S
C1285 H1293 0.960 . S
C1286 C1284 1.381 . S
C1286 C1287 1.394 . S
C1286 H1294 0.930 . S
C1287 C1286 1.394 . S
C1287 C1288 1.383 . S
C1287 H1295 0.929 . S
C1288 C1287 1.383 . S
C1288 C1289 1.377 . S
C1289 H1273 0.930 . S
C1289 C1288 1.377 . S
C1289 C1290 1.379 . S
C1290 H1274 0.931 . S
C1290 C1284 1.383 . S
C1290 C1289 1.379 . S
H1291 C1285 0.959 . S
H1292 C1285 0.961 . S
H1293 C1285 0.960 . S
H1294 C1286 0.930 . S
H1295 C1287 0.929 . S
H1296 C1304 0.929 . S
H1297 C1306 0.930 . S
H1298 C1308 0.930 . S
H1299 C1311 0.929 . S
H1300 C1314 0.930 . S
H1301 C1316 0.960 . S
H1302 C1316 0.960 . S
H1303 C1316 0.960 . S
C1304 H1296 0.929 . S
C1304 C1305 1.377 . S
C1304 C1306 1.384 . S
C1305 C1304 1.377 . S
C1305 C1311 1.390 . S
C1306 H1297 0.930 . S
C1306 C1304 1.384 . S
C1306 C1307 1.372 . S
C1307 C1306 1.372 . S
C1307 C1308 1.400 . S
C1307 C1312 1.490 . S
C1308 H1298 0.930 . S
C1308 C1307 1.400 . S
C1308 C1311 1.386 . S
H1309 C1325 0.930 . S
H1310 C1326 0.931 . S
C1311 H1299 0.929 . S
C1311 C1305 1.390 . S
C1311 C1308 1.386 . S
C1312 C1307 1.490 . S
C1312 C1314 1.395 . S
C1312 C1315 1.403 . S
H1313 C1319 0.930 . S
C1314 H1300 0.930 . S
C1314 C1312 1.395 . S
C1314 C1317 1.403 . S
C1315 C1312 1.403 . S
C1315 C1316 1.524 . S
C1315 C1319 1.400 . S
C1316 H1301 0.960 . S
C1316 H1302 0.960 . S
C1316 H1303 0.960 . S
C1316 C1315 1.524 . S
C1317 C1314 1.403 . S
C1317 C1318 1.392 . S
C1317 C1321 1.495 . S
C1318 C1317 1.392 . S
C1318 C1319 1.385 . S
C1318 C1320 1.478 . S
C1319 H1313 0.930 . S
C1319 C1315 1.400 . S
C1319 C1318 1.385 . S
C1320 C1318 1.478 . S
C1320 C1322 1.381 . S
C1320 C1326 1.383 . S
C1321 C1317 1.495 . S
C1321 H1327 0.959 . S
C1321 H1328 0.961 . S
C1321 H1329 0.960 . S
C1322 C1320 1.381 . S
C1322 C1323 1.394 . S
C1322 H1330 0.930 . S
C1323 C1322 1.394 . S
C1323 C1324 1.383 . S
C1323 H1331 0.929 . S
C1324 C1323 1.383 . S
C1324 C1325 1.377 . S
C1325 H1309 0.930 . S
C1325 C1324 1.377 . S
C1325 C1326 1.379 . S
C1326 H1310 0.931 . S
C1326 C1320 1.383 . S
C1326 C1325 1.379 . S
H1327 C1321 0.959 . S
H1328 C1321 0.961 . S
H1329 C1321 0.960 . S
H1330 C1322 0.930 . S
H1331 C1323 0.929 . S
H1332 C1340 0.929 . S
H1333 C1342 0.930 . S
H1334 C1344 0.930 . S
H1335 C1347 0.929 . S
H1336 C1350 0.930 . S
H1337 C1352 0.960 1_554 S
H1338 C1352 0.960 . S
H1339 C1352 0.960 . S
C1340 H1332 0.929 . S
C1340 C1341 1.377 . S
C1340 C1342 1.384 . S
C1341 C1340 1.377 . S
C1341 C1347 1.390 . S
C1342 H1333 0.930 . S
C1342 C1340 1.384 . S
C1342 C1343 1.372 . S
C1343 C1342 1.372 . S
C1343 C1344 1.400 . S
C1343 C1348 1.490 . S
C1344 H1334 0.930 . S
C1344 C1343 1.400 . S
C1344 C1347 1.386 . S
H1345 C1361 0.930 . S
H1346 C1362 0.931 . S
C1347 H1335 0.929 . S
C1347 C1341 1.390 . S
C1347 C1344 1.386 . S
C1348 C1343 1.490 . S
C1348 C1350 1.395 . S
C1348 C1351 1.403 . S
H1349 C1355 0.930 . S
C1350 H1336 0.930 . S
C1350 C1348 1.395 . S
C1350 C1353 1.403 . S
C1351 C1348 1.403 . S
C1351 C1352 1.524 . S
C1351 C1355 1.400 . S
C1352 H1337 0.960 1_556 S
C1352 H1338 0.960 . S
C1352 H1339 0.960 . S
C1352 C1351 1.524 . S
C1353 C1350 1.403 . S
C1353 C1354 1.392 . S
C1353 C1357 1.495 . S
C1354 C1353 1.392 . S
C1354 C1355 1.385 . S
C1354 C1356 1.478 . S
C1355 H1349 0.930 . S
C1355 C1351 1.400 . S
C1355 C1354 1.385 . S
C1356 C1354 1.478 . S
C1356 C1358 1.381 . S
C1356 C1362 1.383 . S
C1357 C1353 1.495 . S
C1357 H1363 0.959 . S
C1357 H1364 0.961 . S
C1357 H1365 0.960 . S
C1358 C1356 1.381 . S
C1358 C1359 1.394 . S
C1358 H1366 0.930 . S
C1359 C1358 1.394 . S
C1359 C1360 1.383 . S
C1359 H1367 0.929 . S
C1360 C1359 1.383 . S
C1360 C1361 1.377 . S
C1361 H1345 0.930 . S
C1361 C1360 1.377 . S
C1361 C1362 1.379 . S
C1362 H1346 0.931 . S
C1362 C1356 1.383 . S
C1362 C1361 1.379 . S
H1363 C1357 0.959 . S
H1364 C1357 0.961 . S
H1365 C1357 0.960 . S
H1366 C1358 0.930 . S
H1367 C1359 0.929 . S
H1368 C1376 0.929 . S
H1369 C1378 0.930 . S
H1370 C1380 0.930 . S
H1371 C1383 0.929 . S
H1372 C1386 0.930 . S
H1373 C1388 0.960 . S
H1374 C1388 0.960 . S
H1375 C1388 0.960 . S
C1376 H1368 0.929 . S
C1376 C1377 1.377 . S
C1376 C1378 1.384 . S
C1377 C1376 1.377 . S
C1377 C1383 1.390 . S
C1378 H1369 0.930 . S
C1378 C1376 1.384 . S
C1378 C1379 1.372 . S
C1379 C1378 1.372 . S
C1379 C1380 1.400 . S
C1379 C1384 1.490 . S
C1380 H1370 0.930 . S
C1380 C1379 1.400 . S
C1380 C1383 1.386 . S
H1381 C1397 0.930 . S
H1382 C1398 0.931 . S
C1383 H1371 0.929 . S
C1383 C1377 1.390 . S
C1383 C1380 1.386 . S
C1384 C1379 1.490 . S
C1384 C1386 1.395 . S
C1384 C1387 1.403 . S
H1385 C1391 0.930 . S
C1386 H1372 0.930 . S
C1386 C1384 1.395 . S
C1386 C1389 1.403 . S
C1387 C1384 1.403 . S
C1387 C1388 1.524 . S
C1387 C1391 1.400 . S
C1388 H1373 0.960 . S
C1388 H1374 0.960 . S
C1388 H1375 0.960 . S
C1388 C1387 1.524 . S
C1389 C1386 1.403 . S
C1389 C1390 1.392 . S
C1389 C1393 1.495 . S
C1390 C1389 1.392 . S
C1390 C1391 1.385 . S
C1390 C1392 1.478 . S
C1391 H1385 0.930 . S
C1391 C1387 1.400 . S
C1391 C1390 1.385 . S
C1392 C1390 1.478 . S
C1392 C1394 1.381 . S
C1392 C1398 1.383 . S
C1393 C1389 1.495 . S
C1393 H1399 0.959 . S
C1393 H1400 0.961 . S
C1393 H1401 0.960 . S
C1394 C1392 1.381 . S
C1394 C1395 1.394 . S
C1394 H1402 0.930 . S
C1395 C1394 1.394 . S
C1395 C1396 1.383 . S
C1395 H1403 0.929 . S
C1396 C1395 1.383 . S
C1396 C1397 1.377 . S
C1397 H1381 0.930 . S
C1397 C1396 1.377 . S
C1397 C1398 1.379 . S
C1398 H1382 0.931 . S
C1398 C1392 1.383 . S
C1398 C1397 1.379 . S
H1399 C1393 0.959 . S
H1400 C1393 0.961 . S
H1401 C1393 0.960 . S
H1402 C1394 0.930 . S
H1403 C1395 0.929 . S
H1404 C1412 0.929 . S
H1405 C1414 0.930 . S
H1406 C1416 0.930 . S
H1407 C1419 0.929 . S
H1408 C1422 0.930 . S
H1409 C1424 0.960 1_554 S
H1410 C1424 0.960 . S
H1411 C1424 0.960 . S
C1412 H1404 0.929 . S
C1412 C1413 1.377 . S
C1412 C1414 1.384 . S
C1413 C1412 1.377 . S
C1413 C1419 1.390 . S
C1414 H1405 0.930 . S
C1414 C1412 1.384 . S
C1414 C1415 1.372 . S
C1415 C1414 1.372 . S
C1415 C1416 1.400 . S
C1415 C1420 1.490 . S
C1416 H1406 0.930 . S
C1416 C1415 1.400 . S
C1416 C1419 1.386 . S
H1417 C1433 0.930 . S
H1418 C1434 0.931 . S
C1419 H1407 0.929 . S
C1419 C1413 1.390 . S
C1419 C1416 1.386 . S
C1420 C1415 1.490 . S
C1420 C1422 1.395 . S
C1420 C1423 1.403 . S
H1421 C1427 0.930 . S
C1422 H1408 0.930 . S
C1422 C1420 1.395 . S
C1422 C1425 1.403 . S
C1423 C1420 1.403 . S
C1423 C1424 1.524 . S
C1423 C1427 1.400 . S
C1424 H1409 0.960 1_556 S
C1424 H1410 0.960 . S
C1424 H1411 0.960 . S
C1424 C1423 1.524 . S
C1425 C1422 1.403 . S
C1425 C1426 1.392 . S
C1425 C1429 1.495 . S
C1426 C1425 1.392 . S
C1426 C1427 1.385 . S
C1426 C1428 1.478 . S
C1427 H1421 0.930 . S
C1427 C1423 1.400 . S
C1427 C1426 1.385 . S
C1428 C1426 1.478 . S
C1428 C1430 1.381 . S
C1428 C1434 1.383 . S
C1429 C1425 1.495 . S
C1429 H1435 0.959 . S
C1429 H1436 0.961 . S
C1429 H1437 0.960 . S
C1430 C1428 1.381 . S
C1430 C1431 1.394 . S
C1430 H1438 0.930 . S
C1431 C1430 1.394 . S
C1431 C1432 1.383 . S
C1431 H1439 0.929 . S
C1432 C1431 1.383 . S
C1432 C1433 1.377 . S
C1433 H1417 0.930 . S
C1433 C1432 1.377 . S
C1433 C1434 1.379 . S
C1434 H1418 0.931 . S
C1434 C1428 1.383 . S
C1434 C1433 1.379 . S
H1435 C1429 0.959 . S
H1436 C1429 0.961 . S
H1437 C1429 0.960 . S
H1438 C1430 0.930 . S
H1439 C1431 0.929 . S
H1440 C1448 0.929 . S
H1441 C1450 0.930 . S
H1442 C1452 0.930 . S
H1443 C1455 0.929 . S
H1444 C1458 0.930 . S
H1445 C1460 0.960 1_556 S
H1446 C1460 0.960 . S
H1447 C1460 0.960 1_556 S
C1448 H1440 0.929 . S
C1448 C1449 1.377 . S
C1448 C1450 1.384 . S
C1449 C1448 1.377 . S
C1449 C1455 1.390 . S
C1450 H1441 0.930 . S
C1450 C1448 1.384 . S
C1450 C1451 1.372 . S
C1451 C1450 1.372 . S
C1451 C1452 1.400 . S
C1451 C1456 1.490 . S
C1452 H1442 0.930 . S
C1452 C1451 1.400 . S
C1452 C1455 1.386 . S
H1453 C1469 0.930 . S
H1454 C1470 0.931 . S
C1455 H1443 0.929 . S
C1455 C1449 1.390 . S
C1455 C1452 1.386 . S
C1456 C1451 1.490 . S
C1456 C1458 1.395 . S
C1456 C1459 1.403 . S
H1457 C1463 0.930 . S
C1458 H1444 0.930 . S
C1458 C1456 1.395 . S
C1458 C1461 1.403 . S
C1459 C1456 1.403 . S
C1459 C1460 1.524 . S
C1459 C1463 1.400 . S
C1460 H1445 0.960 1_554 S
C1460 H1446 0.960 . S
C1460 H1447 0.960 1_554 S
C1460 C1459 1.524 . S
C1461 C1458 1.403 . S
C1461 C1462 1.392 . S
C1461 C1465 1.495 . S
C1462 C1461 1.392 . S
C1462 C1463 1.385 . S
C1462 C1464 1.478 . S
C1463 H1457 0.930 . S
C1463 C1459 1.400 . S
C1463 C1462 1.385 . S
C1464 C1462 1.478 . S
C1464 C1466 1.381 . S
C1464 C1470 1.383 . S
C1465 C1461 1.495 . S
C1465 H1471 0.959 . S
C1465 H1472 0.961 . S
C1465 H1473 0.960 . S
C1466 C1464 1.381 . S
C1466 C1467 1.394 . S
C1466 H1474 0.930 . S
C1467 C1466 1.394 . S
C1467 C1468 1.383 . S
C1467 H1475 0.929 . S
C1468 C1467 1.383 . S
C1468 C1469 1.377 . S
C1469 H1453 0.930 . S
C1469 C1468 1.377 . S
C1469 C1470 1.379 . S
C1470 H1454 0.931 . S
C1470 C1464 1.383 . S
C1470 C1469 1.379 . S
H1471 C1465 0.959 . S
H1472 C1465 0.961 . S
H1473 C1465 0.960 . S
H1474 C1466 0.930 . S
H1475 C1467 0.929 . S
H1476 C1484 0.929 . S
H1477 C1486 0.930 . S
H1478 C1488 0.930 . S
H1479 C1491 0.929 . S
H1480 C1494 0.930 . S
H1481 C1496 0.960 . S
H1482 C1496 0.960 . S
H1483 C1496 0.960 . S
C1484 H1476 0.929 . S
C1484 C1485 1.377 . S
C1484 C1486 1.384 . S
C1485 C1484 1.377 . S
C1485 C1491 1.390 . S
C1486 H1477 0.930 . S
C1486 C1484 1.384 . S
C1486 C1487 1.372 . S
C1487 C1486 1.372 . S
C1487 C1488 1.400 . S
C1487 C1492 1.490 . S
C1488 H1478 0.930 . S
C1488 C1487 1.400 . S
C1488 C1491 1.386 . S
H1489 C1505 0.930 . S
H1490 C1506 0.931 . S
C1491 H1479 0.929 . S
C1491 C1485 1.390 . S
C1491 C1488 1.386 . S
C1492 C1487 1.490 . S
C1492 C1494 1.395 . S
C1492 C1495 1.403 . S
H1493 C1499 0.930 . S
C1494 H1480 0.930 . S
C1494 C1492 1.395 . S
C1494 C1497 1.403 . S
C1495 C1492 1.403 . S
C1495 C1496 1.524 . S
C1495 C1499 1.400 . S
C1496 H1481 0.960 . S
C1496 H1482 0.960 . S
C1496 H1483 0.960 . S
C1496 C1495 1.524 . S
C1497 C1494 1.403 . S
C1497 C1498 1.392 . S
C1497 C1501 1.495 . S
C1498 C1497 1.392 . S
C1498 C1499 1.385 . S
C1498 C1500 1.478 . S
C1499 H1493 0.930 . S
C1499 C1495 1.400 . S
C1499 C1498 1.385 . S
C1500 C1498 1.478 . S
C1500 C1502 1.381 . S
C1500 C1506 1.383 . S
C1501 C1497 1.495 . S
C1501 H1507 0.959 . S
C1501 H1508 0.961 . S
C1501 H1509 0.960 . S
C1502 C1500 1.381 . S
C1502 C1503 1.394 . S
C1502 H1510 0.930 . S
C1503 C1502 1.394 . S
C1503 C1504 1.383 . S
C1503 H1511 0.929 . S
C1504 C1503 1.383 . S
C1504 C1505 1.377 . S
C1505 H1489 0.930 . S
C1505 C1504 1.377 . S
C1505 C1506 1.379 . S
C1506 H1490 0.931 . S
C1506 C1500 1.383 . S
C1506 C1505 1.379 . S
H1507 C1501 0.959 . S
H1508 C1501 0.961 . S
H1509 C1501 0.960 . S
H1510 C1502 0.930 . S
H1511 C1503 0.929 . S
H1512 C1520 0.929 . S
H1513 C1522 0.930 . S
H1514 C1524 0.930 . S
H1515 C1527 0.929 . S
H1516 C1530 0.930 . S
H1517 C1532 0.960 . S
H1518 C1532 0.960 . S
H1519 C1532 0.960 . S
C1520 H1512 0.929 . S
C1520 C1521 1.377 . S
C1520 C1522 1.384 . S
C1521 C1520 1.377 . S
C1521 C1527 1.390 . S
C1522 H1513 0.930 . S
C1522 C1520 1.384 . S
C1522 C1523 1.372 . S
C1523 C1522 1.372 . S
C1523 C1524 1.400 . S
C1523 C1528 1.490 . S
C1524 H1514 0.930 . S
C1524 C1523 1.400 . S
C1524 C1527 1.386 . S
H1525 C1541 0.930 . S
H1526 C1542 0.931 . S
C1527 H1515 0.929 . S
C1527 C1521 1.390 . S
C1527 C1524 1.386 . S
C1528 C1523 1.490 . S
C1528 C1530 1.395 . S
C1528 C1531 1.403 . S
H1529 C1535 0.930 . S
C1530 H1516 0.930 . S
C1530 C1528 1.395 . S
C1530 C1533 1.403 . S
C1531 C1528 1.403 . S
C1531 C1532 1.524 . S
C1531 C1535 1.400 . S
C1532 H1517 0.960 . S
C1532 H1518 0.960 . S
C1532 H1519 0.960 . S
C1532 C1531 1.524 . S
C1533 C1530 1.403 . S
C1533 C1534 1.392 . S
C1533 C1537 1.495 . S
C1534 C1533 1.392 . S
C1534 C1535 1.385 . S
C1534 C1536 1.478 . S
C1535 H1529 0.930 . S
C1535 C1531 1.400 . S
C1535 C1534 1.385 . S
C1536 C1534 1.478 . S
C1536 C1538 1.381 . S
C1536 C1542 1.383 . S
C1537 C1533 1.495 . S
C1537 H1543 0.959 . S
C1537 H1544 0.961 . S
C1537 H1545 0.960 . S
C1538 C1536 1.381 . S
C1538 C1539 1.394 . S
C1538 H1546 0.930 . S
C1539 C1538 1.394 . S
C1539 C1540 1.383 . S
C1539 H1547 0.929 . S
C1540 C1539 1.383 . S
C1540 C1541 1.377 . S
C1541 H1525 0.930 . S
C1541 C1540 1.377 . S
C1541 C1542 1.379 . S
C1542 H1526 0.931 . S
C1542 C1536 1.383 . S
C1542 C1541 1.379 . S
H1543 C1537 0.959 . S
H1544 C1537 0.961 . S
H1545 C1537 0.960 . S
H1546 C1538 0.930 . S
H1547 C1539 0.929 . S
H1548 C1556 0.929 . S
H1549 C1558 0.930 . S
H1550 C1560 0.930 . S
H1551 C1563 0.929 . S
H1552 C1566 0.930 . S
H1553 C1568 0.960 . S
H1554 C1568 0.960 . S
H1555 C1568 0.960 . S
C1556 H1548 0.929 . S
C1556 C1557 1.377 . S
C1556 C1558 1.384 . S
C1557 C1556 1.377 . S
C1557 C1563 1.390 . S
C1558 H1549 0.930 . S
C1558 C1556 1.384 . S
C1558 C1559 1.372 . S
C1559 C1558 1.372 . S
C1559 C1560 1.400 . S
C1559 C1564 1.490 . S
C1560 H1550 0.930 . S
C1560 C1559 1.400 . S
C1560 C1563 1.386 . S
H1561 C1577 0.930 . S
H1562 C1578 0.931 . S
C1563 H1551 0.929 . S
C1563 C1557 1.390 . S
C1563 C1560 1.386 . S
C1564 C1559 1.490 . S
C1564 C1566 1.395 . S
C1564 C1567 1.403 . S
H1565 C1571 0.930 . S
C1566 H1552 0.930 . S
C1566 C1564 1.395 . S
C1566 C1569 1.403 . S
C1567 C1564 1.403 . S
C1567 C1568 1.524 . S
C1567 C1571 1.400 . S
C1568 H1553 0.960 . S
C1568 H1554 0.960 . S
C1568 H1555 0.960 . S
C1568 C1567 1.524 . S
C1569 C1566 1.403 . S
C1569 C1570 1.392 . S
C1569 C1573 1.495 . S
C1570 C1569 1.392 . S
C1570 C1571 1.385 . S
C1570 C1572 1.478 . S
C1571 H1565 0.930 . S
C1571 C1567 1.400 . S
C1571 C1570 1.385 . S
C1572 C1570 1.478 . S
C1572 C1574 1.381 . S
C1572 C1578 1.383 . S
C1573 C1569 1.495 . S
C1573 H1579 0.959 . S
C1573 H1580 0.961 . S
C1573 H1581 0.960 . S
C1574 C1572 1.381 . S
C1574 C1575 1.394 . S
C1574 H1582 0.930 . S
C1575 C1574 1.394 . S
C1575 C1576 1.383 . S
C1575 H1583 0.929 . S
C1576 C1575 1.383 . S
C1576 C1577 1.377 . S
C1577 H1561 0.930 . S
C1577 C1576 1.377 . S
C1577 C1578 1.379 . S
C1578 H1562 0.931 . S
C1578 C1572 1.383 . S
C1578 C1577 1.379 . S
H1579 C1573 0.959 . S
H1580 C1573 0.961 . S
H1581 C1573 0.960 . S
H1582 C1574 0.930 . S
H1583 C1575 0.929 . S
H1584 C1592 0.929 . S
H1585 C1594 0.930 . S
H1586 C1596 0.930 . S
H1587 C1599 0.929 . S
H1588 C1602 0.930 . S
H1589 C1604 0.960 . S
H1590 C1604 0.960 . S
H1591 C1604 0.960 . S
C1592 H1584 0.929 . S
C1592 C1593 1.377 . S
C1592 C1594 1.384 . S
C1593 C1592 1.377 . S
C1593 C1599 1.390 . S
C1594 H1585 0.930 . S
C1594 C1592 1.384 . S
C1594 C1595 1.372 . S
C1595 C1594 1.372 . S
C1595 C1596 1.400 . S
C1595 C1600 1.490 . S
C1596 H1586 0.930 . S
C1596 C1595 1.400 . S
C1596 C1599 1.386 . S
H1597 C1613 0.930 . S
H1598 C1614 0.931 . S
C1599 H1587 0.929 . S
C1599 C1593 1.390 . S
C1599 C1596 1.386 . S
C1600 C1595 1.490 . S
C1600 C1602 1.395 . S
C1600 C1603 1.403 . S
H1601 C1607 0.930 . S
C1602 H1588 0.930 . S
C1602 C1600 1.395 . S
C1602 C1605 1.403 . S
C1603 C1600 1.403 . S
C1603 C1604 1.524 . S
C1603 C1607 1.400 . S
C1604 H1589 0.960 . S
C1604 H1590 0.960 . S
C1604 H1591 0.960 . S
C1604 C1603 1.524 . S
C1605 C1602 1.403 . S
C1605 C1606 1.392 . S
C1605 C1609 1.495 . S
C1606 C1605 1.392 . S
C1606 C1607 1.385 . S
C1606 C1608 1.478 . S
C1607 H1601 0.930 . S
C1607 C1603 1.400 . S
C1607 C1606 1.385 . S
C1608 C1606 1.478 . S
C1608 C1610 1.381 . S
C1608 C1614 1.383 . S
C1609 C1605 1.495 . S
C1609 H1615 0.959 . S
C1609 H1616 0.961 . S
C1609 H1617 0.960 . S
C1610 C1608 1.381 . S
C1610 C1611 1.394 . S
C1610 H1618 0.930 . S
C1611 C1610 1.394 . S
C1611 C1612 1.383 . S
C1611 H1619 0.929 . S
C1612 C1611 1.383 . S
C1612 C1613 1.377 . S
C1613 H1597 0.930 . S
C1613 C1612 1.377 . S
C1613 C1614 1.379 . S
C1614 H1598 0.931 . S
C1614 C1608 1.383 . S
C1614 C1613 1.379 . S
H1615 C1609 0.959 . S
H1616 C1609 0.961 . S
H1617 C1609 0.960 . S
H1618 C1610 0.930 . S
H1619 C1611 0.929 . S
H1620 C1628 0.929 . S
H1621 C1630 0.930 . S
H1622 C1632 0.930 . S
H1623 C1635 0.929 . S
H1624 C1638 0.930 . S
H1625 C1640 0.960 . S
H1626 C1640 0.960 . S
H1627 C1640 0.960 . S
C1628 H1620 0.929 . S
C1628 C1629 1.377 . S
C1628 C1630 1.384 . S
C1629 C1628 1.377 . S
C1629 C1635 1.390 . S
C1630 H1621 0.930 . S
C1630 C1628 1.384 . S
C1630 C1631 1.372 . S
C1631 C1630 1.372 . S
C1631 C1632 1.400 . S
C1631 C1636 1.490 . S
C1632 H1622 0.930 . S
C1632 C1631 1.400 . S
C1632 C1635 1.386 . S
H1633 C1649 0.930 . S
H1634 C1650 0.931 . S
C1635 H1623 0.929 . S
C1635 C1629 1.390 . S
C1635 C1632 1.386 . S
C1636 C1631 1.490 . S
C1636 C1638 1.395 . S
C1636 C1639 1.403 . S
H1637 C1643 0.930 . S
C1638 H1624 0.930 . S
C1638 C1636 1.395 . S
C1638 C1641 1.403 . S
C1639 C1636 1.403 . S
C1639 C1640 1.524 . S
C1639 C1643 1.400 . S
C1640 H1625 0.960 . S
C1640 H1626 0.960 . S
C1640 H1627 0.960 . S
C1640 C1639 1.524 . S
C1641 C1638 1.403 . S
C1641 C1642 1.392 . S
C1641 C1645 1.495 . S
C1642 C1641 1.392 . S
C1642 C1643 1.385 . S
C1642 C1644 1.478 . S
C1643 H1637 0.930 . S
C1643 C1639 1.400 . S
C1643 C1642 1.385 . S
C1644 C1642 1.478 . S
C1644 C1646 1.381 . S
C1644 C1650 1.383 . S
C1645 C1641 1.495 . S
C1645 H1651 0.959 . S
C1645 H1652 0.961 . S
C1645 H1653 0.960 . S
C1646 C1644 1.381 . S
C1646 C1647 1.394 . S
C1646 H1654 0.930 . S
C1647 C1646 1.394 . S
C1647 C1648 1.383 . S
C1647 H1655 0.929 . S
C1648 C1647 1.383 . S
C1648 C1649 1.377 . S
C1649 H1633 0.930 . S
C1649 C1648 1.377 . S
C1649 C1650 1.379 . S
C1650 H1634 0.931 . S
C1650 C1644 1.383 . S
C1650 C1649 1.379 . S
H1651 C1645 0.959 . S
H1652 C1645 0.961 . S
H1653 C1645 0.960 . S
H1654 C1646 0.930 . S
H1655 C1647 0.929 . S
H1656 C1664 0.929 . S
H1657 C1666 0.930 . S
H1658 C1668 0.930 . S
H1659 C1671 0.929 . S
H1660 C1674 0.930 . S
H1661 C1676 0.960 . S
H1662 C1676 0.960 . S
H1663 C1676 0.991 . S
C1664 H1656 0.929 . S
C1664 C1665 1.377 . S
C1664 C1666 1.384 . S
C1665 C1664 1.377 . S
C1665 C1671 1.390 . S
C1666 H1657 0.930 . S
C1666 C1664 1.384 . S
C1666 C1667 1.372 . S
C1667 C1666 1.372 . S
C1667 C1668 1.400 . S
C1667 C1672 1.490 . S
C1668 H1658 0.930 . S
C1668 C1667 1.400 . S
C1668 C1671 1.386 . S
H1669 C1685 0.930 . S
H1670 C1686 0.931 . S
C1671 H1659 0.929 . S
C1671 C1665 1.390 . S
C1671 C1668 1.386 . S
C1672 C1667 1.490 . S
C1672 C1674 1.395 . S
C1672 C1675 1.403 . S
H1673 C1679 0.930 1_655 S
C1674 H1660 0.930 . S
C1674 C1672 1.395 . S
C1674 C1677 1.403 . S
C1675 C1672 1.403 . S
C1675 C1676 1.524 1_455 S
C1675 C1679 1.400 . S
C1676 H1661 0.960 . S
C1676 H1662 0.960 . S
C1676 H1663 0.991 . S
C1676 C1675 1.524 1_655 S
C1677 C1674 1.403 . S
C1677 C1678 1.387 1_554 S
C1677 C1681 1.495 . S
C1678 C1677 1.387 1_556 S
C1678 C1679 1.380 1_556 S
C1678 C1680 1.488 . S
C1679 H1673 0.930 1_455 S
C1679 C1675 1.400 . S
C1679 C1678 1.380 1_554 S
C1680 C1678 1.488 . S
C1680 C1682 1.381 . S
C1680 C1686 1.383 . S
C1681 C1677 1.495 . S
C1681 H1687 0.959 . S
C1681 H1688 0.961 1_554 S
C1681 H1689 0.960 1_554 S
C1682 C1680 1.381 . S
C1682 C1683 1.394 . S
C1682 H1690 0.930 . S
C1683 C1682 1.394 . S
C1683 C1684 1.383 . S
C1683 H1691 0.925 . S
C1684 C1683 1.383 . S
C1684 C1685 1.377 . S
C1685 H1669 0.930 . S
C1685 C1684 1.377 . S
C1685 C1686 1.379 . S
C1686 H1670 0.931 . S
C1686 C1680 1.383 . S
C1686 C1685 1.379 . S
H1687 C1681 0.959 . S
H1688 C1681 0.961 1_556 S
H1689 C1681 0.960 1_556 S
H1690 C1682 0.930 . S
H1691 C1683 0.925 . S
H1692 C1700 0.929 . S
H1693 C1702 0.930 . S
H1694 C1704 0.930 . S
H1695 C1707 0.929 . S
H1696 C1710 0.930 . S
H1697 C1712 0.960 . S
H1698 C1712 0.960 . S
H1699 C1712 0.960 . S
C1700 H1692 0.929 . S
C1700 C1701 1.377 . S
C1700 C1702 1.384 . S
C1701 C1700 1.377 . S
C1701 C1707 1.390 . S
C1702 H1693 0.930 . S
C1702 C1700 1.384 . S
C1702 C1703 1.372 . S
C1703 C1702 1.372 . S
C1703 C1704 1.400 . S
C1703 C1708 1.490 . S
C1704 H1694 0.930 . S
C1704 C1703 1.400 . S
C1704 C1707 1.386 . S
H1705 C1721 0.930 . S
H1706 C1722 0.931 . S
C1707 H1695 0.929 . S
C1707 C1701 1.390 . S
C1707 C1704 1.386 . S
C1708 C1703 1.490 . S
C1708 C1710 1.395 . S
C1708 C1711 1.403 . S
H1709 C1715 0.924 1_556 S
C1710 H1696 0.930 . S
C1710 C1708 1.395 . S
C1710 C1713 1.403 . S
C1711 C1708 1.403 . S
C1711 C1712 1.524 . S
C1711 C1715 1.400 . S
C1712 H1697 0.960 . S
C1712 H1698 0.960 . S
C1712 H1699 0.960 . S
C1712 C1711 1.524 . S
C1713 C1710 1.403 . S
C1713 C1714 1.395 . S
C1713 C1717 1.495 . S
C1714 C1713 1.395 . S
C1714 C1715 1.387 . S
C1714 C1716 1.473 1_554 S
C1715 H1709 0.924 1_554 S
C1715 C1711 1.400 . S
C1715 C1714 1.387 . S
C1716 C1714 1.473 1_556 S
C1716 C1718 1.381 . S
C1716 C1722 1.383 . S
C1717 C1713 1.495 . S
C1717 H1723 0.959 . S
C1717 H1724 0.961 1_554 S
C1717 H1725 0.960 1_554 S
C1718 C1716 1.381 . S
C1718 C1719 1.394 . S
C1718 H1726 0.930 . S
C1719 C1718 1.394 . S
C1719 C1720 1.383 . S
C1719 H1727 0.929 . S
C1720 C1719 1.383 . S
C1720 C1721 1.377 . S
C1721 H1705 0.930 . S
C1721 C1720 1.377 . S
C1721 C1722 1.379 . S
C1722 H1706 0.931 . S
C1722 C1716 1.383 . S
C1722 C1721 1.379 . S
H1723 C1717 0.959 . S
H1724 C1717 0.961 1_556 S
H1725 C1717 0.960 1_556 S
H1726 C1718 0.930 . S
H1727 C1719 0.929 . S
H1728 C1736 0.929 . S
H1729 C1738 0.930 . S
H1730 C1740 0.930 . S
H1731 C1743 0.929 . S
H1732 C1746 0.930 . S
H1733 C1748 0.960 . S
H1734 C1748 0.960 . S
H1735 C1748 0.960 . S
C1736 H1728 0.929 . S
C1736 C1737 1.377 . S
C1736 C1738 1.384 . S
C1737 C1736 1.377 . S
C1737 C1743 1.390 1_545 S
C1738 H1729 0.930 . S
C1738 C1736 1.384 . S
C1738 C1739 1.372 . S
C1739 C1738 1.372 . S
C1739 C1740 1.400 1_545 S
C1739 C1744 1.490 . S
C1740 H1730 0.930 . S
C1740 C1739 1.400 1_565 S
C1740 C1743 1.386 . S
H1741 C1757 0.930 . S
H1742 C1758 0.931 . S
C1743 H1731 0.929 . S
C1743 C1737 1.390 1_565 S
C1743 C1740 1.386 . S
C1744 C1739 1.490 . S
C1744 C1746 1.395 . S
C1744 C1747 1.403 . S
H1745 C1751 0.930 . S
C1746 H1732 0.930 . S
C1746 C1744 1.395 . S
C1746 C1749 1.403 . S
C1747 C1744 1.403 . S
C1747 C1748 1.524 . S
C1747 C1751 1.400 . S
C1748 H1733 0.960 . S
C1748 H1734 0.960 . S
C1748 H1735 0.960 . S
C1748 C1747 1.524 . S
C1749 C1746 1.403 . S
C1749 C1750 1.391 1_554 S
C1749 C1753 1.495 . S
C1750 C1749 1.391 1_556 S
C1750 C1751 1.384 1_556 S
C1750 C1752 1.479 . S
C1751 H1745 0.930 . S
C1751 C1747 1.400 . S
C1751 C1750 1.384 1_554 S
C1752 C1750 1.479 . S
C1752 C1754 1.381 . S
C1752 C1758 1.383 1_545 S
C1753 C1749 1.495 . S
C1753 H1759 0.963 . S
C1753 H1760 0.961 1_544 S
C1753 H1761 0.960 1_554 S
C1754 C1752 1.381 . S
C1754 C1755 1.394 . S
C1754 H1762 0.930 . S
C1755 C1754 1.394 . S
C1755 C1756 1.383 . S
C1755 H1763 0.929 . S
C1756 C1755 1.383 . S
C1756 C1757 1.377 1_545 S
C1757 H1741 0.930 . S
C1757 C1756 1.377 1_565 S
C1757 C1758 1.379 . S
C1758 H1742 0.931 . S
C1758 C1752 1.383 1_565 S
C1758 C1757 1.379 . S
H1759 C1753 0.963 . S
H1760 C1753 0.961 1_566 S
H1761 C1753 0.960 1_556 S
H1762 C1754 0.930 . S
H1763 C1755 0.929 . S
H1764 C1772 0.929 . S
H1765 C1774 0.930 . S
H1766 C1776 0.930 . S
H1767 C1779 0.929 . S
H1768 C1782 0.930 . S
H1769 C1784 0.960 . S
H1770 C1784 0.960 1_655 S
H1771 C1784 0.960 . S
C1772 H1764 0.929 . S
C1772 C1773 1.377 1_655 S
C1772 C1774 1.384 . S
C1773 C1772 1.377 1_455 S
C1773 C1779 1.390 . S
C1774 H1765 0.930 . S
C1774 C1772 1.384 . S
C1774 C1775 1.372 1_655 S
C1775 C1774 1.372 1_455 S
C1775 C1776 1.400 . S
C1775 C1780 1.490 . S
C1776 H1766 0.930 . S
C1776 C1775 1.400 . S
C1776 C1779 1.386 . S
H1777 C1793 0.930 . S
H1778 C1794 0.931 . S
C1779 H1767 0.929 . S
C1779 C1773 1.390 . S
C1779 C1776 1.386 . S
C1780 C1775 1.490 . S
C1780 C1782 1.395 . S
C1780 C1783 1.403 . S
H1781 C1787 0.939 . S
C1782 H1768 0.930 . S
C1782 C1780 1.395 . S
C1782 C1785 1.403 . S
C1783 C1780 1.403 . S
C1783 C1784 1.524 . S
C1783 C1787 1.400 . S
C1784 H1769 0.960 . S
C1784 H1770 0.960 1_455 S
C1784 H1771 0.960 . S
C1784 C1783 1.524 . S
C1785 C1782 1.403 . S
C1785 C1786 1.392 1_556 S
C1785 C1789 1.495 . S
C1786 C1785 1.392 1_554 S
C1786 C1787 1.385 1_554 S
C1786 C1788 1.478 . S
C1787 H1781 0.939 . S
C1787 C1783 1.400 . S
C1787 C1786 1.385 1_556 S
C1788 C1786 1.478 . S
C1788 C1790 1.381 . S
C1788 C1794 1.383 . S
C1789 C1785 1.495 . S
C1789 H1795 0.959 . S
C1789 H1796 0.961 1_556 S
C1789 H1797 0.960 1_556 S
C1790 C1788 1.381 . S
C1790 C1791 1.394 . S
C1790 H1798 0.930 1_455 S
C1791 C1790 1.394 . S
C1791 C1792 1.383 . S
C1791 H1799 0.929 1_455 S
C1792 C1791 1.383 . S
C1792 C1793 1.377 . S
C1793 H1777 0.930 . S
C1793 C1792 1.377 . S
C1793 C1794 1.379 . S
C1794 H1778 0.931 . S
C1794 C1788 1.383 . S
C1794 C1793 1.379 . S
H1795 C1789 0.959 . S
H1796 C1789 0.961 1_554 S
H1797 C1789 0.960 1_554 S
H1798 C1790 0.930 1_655 S
H1799 C1791 0.929 1_655 S
H1800 C1808 0.929 . S
H1801 C1810 0.930 . S
H1802 C1812 0.930 . S
H1803 C1815 0.929 . S
H1804 C1818 0.930 . S
H1805 C1820 0.960 . S
H1806 C1820 0.960 1_554 S
H1807 C1820 0.960 1_554 S
C1808 H1800 0.929 . S
C1808 C1809 1.377 . S
C1808 C1810 1.384 . S
C1809 C1808 1.377 . S
C1809 C1815 1.390 . S
C1810 H1801 0.930 . S
C1810 C1808 1.384 . S
C1810 C1811 1.372 . S
C1811 C1810 1.372 . S
C1811 C1812 1.400 . S
C1811 C1816 1.490 1_554 S
C1812 H1802 0.930 . S
C1812 C1811 1.400 . S
C1812 C1815 1.386 . S
H1813 C1829 0.930 . S
H1814 C1830 0.931 . S
C1815 H1803 0.929 . S
C1815 C1809 1.390 . S
C1815 C1812 1.386 . S
C1816 C1811 1.490 1_556 S
C1816 C1818 1.395 . S
C1816 C1819 1.403 . S
H1817 C1823 0.930 . S
C1818 H1804 0.930 . S
C1818 C1816 1.395 . S
C1818 C1821 1.403 . S
C1819 C1816 1.403 . S
C1819 C1820 1.524 . S
C1819 C1823 1.400 . S
C1820 H1805 0.960 . S
C1820 H1806 0.960 1_556 S
C1820 H1807 0.960 1_556 S
C1820 C1819 1.524 . S
C1821 C1818 1.403 . S
C1821 C1822 1.392 . S
C1821 C1825 1.495 . S
C1822 C1821 1.392 . S
C1822 C1823 1.385 . S
C1822 C1824 1.478 . S
C1823 H1817 0.930 . S
C1823 C1819 1.400 . S
C1823 C1822 1.385 . S
C1824 C1822 1.478 . S
C1824 C1826 1.381 . S
C1824 C1830 1.383 . S
C1825 C1821 1.495 . S
C1825 H1831 0.959 . S
C1825 H1832 0.961 . S
C1825 H1833 0.960 . S
C1826 C1824 1.381 . S
C1826 C1827 1.394 . S
C1826 H1834 0.930 . S
C1827 C1826 1.394 . S
C1827 C1828 1.383 . S
C1827 H1835 0.929 . S
C1828 C1827 1.383 . S
C1828 C1829 1.377 . S
C1829 H1813 0.930 . S
C1829 C1828 1.377 . S
C1829 C1830 1.379 . S
C1830 H1814 0.931 . S
C1830 C1824 1.383 . S
C1830 C1829 1.379 . S
H1831 C1825 0.959 . S
H1832 C1825 0.961 . S
H1833 C1825 0.960 . S
H1834 C1826 0.930 . S
H1835 C1827 0.929 . S
H1836 C1844 0.929 . S
H1837 C1846 0.930 . S
H1838 C1848 0.930 . S
H1839 C1851 0.929 . S
H1840 C1854 0.930 . S
H1841 C1856 0.960 . S
H1842 C1856 0.960 1_554 S
H1843 C1856 0.960 1_554 S
C1844 H1836 0.929 . S
C1844 C1845 1.377 . S
C1844 C1846 1.384 . S
C1845 C1844 1.377 . S
C1845 C1851 1.390 . S
C1846 H1837 0.930 . S
C1846 C1844 1.384 . S
C1846 C1847 1.372 . S
C1847 C1846 1.372 . S
C1847 C1848 1.400 . S
C1847 C1852 1.471 1_554 S
C1848 H1838 0.930 . S
C1848 C1847 1.400 . S
C1848 C1851 1.386 . S
H1849 C1865 0.930 . S
H1850 C1866 0.931 . S
C1851 H1839 0.929 . S
C1851 C1845 1.390 . S
C1851 C1848 1.386 . S
C1852 C1847 1.471 1_556 S
C1852 C1854 1.403 . S
C1852 C1855 1.414 1_545 S
H1853 C1859 0.928 1_565 S
C1854 H1840 0.930 . S
C1854 C1852 1.403 . S
C1854 C1857 1.403 . S
C1855 C1852 1.414 1_565 S
C1855 C1856 1.524 . S
C1855 C1859 1.400 1_565 S
C1856 H1841 0.960 . S
C1856 H1842 0.960 1_556 S
C1856 H1843 0.960 1_556 S
C1856 C1855 1.524 . S
C1857 C1854 1.403 . S
C1857 C1858 1.392 . S
C1857 C1861 1.495 . S
C1858 C1857 1.392 . S
C1858 C1859 1.388 . S
C1858 C1860 1.478 . S
C1859 H1853 0.928 1_545 S
C1859 C1855 1.400 1_545 S
C1859 C1858 1.388 . S
C1860 C1858 1.478 . S
C1860 C1862 1.381 . S
C1860 C1866 1.383 . S
C1861 C1857 1.495 . S
C1861 H1867 0.959 . S
C1861 H1868 0.961 . S
C1861 H1869 0.960 . S
C1862 C1860 1.381 . S
C1862 C1863 1.394 . S
C1862 H1870 0.930 . S
C1863 C1862 1.394 . S
C1863 C1864 1.383 . S
C1863 H1871 0.929 . S
C1864 C1863 1.383 . S
C1864 C1865 1.377 . S
C1865 H1849 0.930 . S
C1865 C1864 1.377 . S
C1865 C1866 1.379 . S
C1866 H1850 0.931 . S
C1866 C1860 1.383 . S
C1866 C1865 1.379 . S
H1867 C1861 0.959 . S
H1868 C1861 0.961 . S
H1869 C1861 0.960 . S
H1870 C1862 0.930 . S
H1871 C1863 0.929 . S
H1872 C1880 0.929 . S
H1873 C1882 0.930 . S
H1874 C1884 0.930 . S
H1875 C1887 0.929 . S
H1876 C1890 0.930 . S
H1877 C1892 0.960 . S
H1878 C1892 0.960 . S
H1879 C1892 0.960 . S
C1880 H1872 0.929 . S
C1880 C1881 1.377 . S
C1880 C1882 1.384 . S
C1881 C1880 1.377 . S
C1881 C1887 1.390 . S
C1882 H1873 0.930 . S
C1882 C1880 1.384 . S
C1882 C1883 1.372 . S
C1883 C1882 1.372 . S
C1883 C1884 1.400 . S
C1883 C1888 1.490 . S
C1884 H1874 0.930 . S
C1884 C1883 1.400 . S
C1884 C1887 1.386 . S
H1885 C1901 0.930 . S
H1886 C1902 0.931 . S
C1887 H1875 0.929 . S
C1887 C1881 1.390 . S
C1887 C1884 1.386 . S
C1888 C1883 1.490 . S
C1888 C1890 1.395 . S
C1888 C1891 1.403 . S
H1889 C1895 0.930 . S
C1890 H1876 0.930 . S
C1890 C1888 1.395 . S
C1890 C1893 1.403 . S
C1891 C1888 1.403 . S
C1891 C1892 1.524 . S
C1891 C1895 1.400 . S
C1892 H1877 0.960 . S
C1892 H1878 0.960 . S
C1892 H1879 0.960 . S
C1892 C1891 1.524 . S
C1893 C1890 1.403 . S
C1893 C1894 1.392 . S
C1893 C1897 1.495 . S
C1894 C1893 1.392 . S
C1894 C1895 1.385 . S
C1894 C1896 1.478 . S
C1895 H1889 0.930 . S
C1895 C1891 1.400 . S
C1895 C1894 1.385 . S
C1896 C1894 1.478 . S
C1896 C1898 1.381 . S
C1896 C1902 1.383 . S
C1897 C1893 1.495 . S
C1897 H1903 0.959 . S
C1897 H1904 0.961 . S
C1897 H1905 0.960 . S
C1898 C1896 1.381 . S
C1898 C1899 1.394 . S
C1898 H1906 0.930 . S
C1899 C1898 1.394 . S
C1899 C1900 1.383 . S
C1899 H1907 0.929 . S
C1900 C1899 1.383 . S
C1900 C1901 1.377 . S
C1901 H1885 0.930 . S
C1901 C1900 1.377 . S
C1901 C1902 1.379 . S
C1902 H1886 0.931 . S
C1902 C1896 1.383 . S
C1902 C1901 1.379 . S
H1903 C1897 0.959 . S
H1904 C1897 0.961 . S
H1905 C1897 0.960 . S
H1906 C1898 0.930 . S
H1907 C1899 0.929 . S
H1908 C1916 0.929 . S
H1909 C1918 0.930 . S
H1910 C1920 0.930 . S
H1911 C1923 0.929 . S
H1912 C1926 0.930 . S
H1913 C1928 0.960 . S
H1914 C1928 0.960 . S
H1915 C1928 0.960 . S
C1916 H1908 0.929 . S
C1916 C1917 1.377 . S
C1916 C1918 1.384 . S
C1917 C1916 1.377 . S
C1917 C1923 1.390 . S
C1918 H1909 0.930 . S
C1918 C1916 1.384 . S
C1918 C1919 1.372 . S
C1919 C1918 1.372 . S
C1919 C1920 1.400 . S
C1919 C1924 1.490 . S
C1920 H1910 0.930 . S
C1920 C1919 1.400 . S
C1920 C1923 1.386 . S
H1921 C1937 0.930 . S
H1922 C1938 0.931 . S
C1923 H1911 0.929 . S
C1923 C1917 1.390 . S
C1923 C1920 1.386 . S
C1924 C1919 1.490 . S
C1924 C1926 1.395 . S
C1924 C1927 1.403 . S
H1925 C1931 0.930 . S
C1926 H1912 0.930 . S
C1926 C1924 1.395 . S
C1926 C1929 1.403 . S
C1927 C1924 1.403 . S
C1927 C1928 1.524 . S
C1927 C1931 1.400 . S
C1928 H1913 0.960 . S
C1928 H1914 0.960 . S
C1928 H1915 0.960 . S
C1928 C1927 1.524 . S
C1929 C1926 1.403 . S
C1929 C1930 1.392 . S
C1929 C1933 1.495 . S
C1930 C1929 1.392 . S
C1930 C1931 1.385 . S
C1930 C1932 1.478 . S
C1931 H1925 0.930 . S
C1931 C1927 1.400 . S
C1931 C1930 1.385 . S
C1932 C1930 1.478 . S
C1932 C1934 1.381 . S
C1932 C1938 1.383 . S
C1933 C1929 1.495 . S
C1933 H1939 0.959 . S
C1933 H1940 0.961 . S
C1933 H1941 0.960 . S
C1934 C1932 1.381 . S
C1934 C1935 1.394 . S
C1934 H1942 0.930 . S
C1935 C1934 1.394 . S
C1935 C1936 1.383 . S
C1935 H1943 0.929 . S
C1936 C1935 1.383 . S
C1936 C1937 1.377 . S
C1937 H1921 0.930 . S
C1937 C1936 1.377 . S
C1937 C1938 1.379 . S
C1938 H1922 0.931 . S
C1938 C1932 1.383 . S
C1938 C1937 1.379 . S
H1939 C1933 0.959 . S
H1940 C1933 0.961 . S
H1941 C1933 0.960 . S
H1942 C1934 0.930 . S
H1943 C1935 0.929 . S
H1944 C1952 0.929 . S
H1945 C1954 0.930 . S
H1946 C1956 0.930 . S
H1947 C1959 0.929 . S
H1948 C1962 0.930 . S
H1949 C1964 0.960 . S
H1950 C1964 0.960 . S
H1951 C1964 0.960 . S
C1952 H1944 0.929 . S
C1952 C1953 1.377 . S
C1952 C1954 1.384 . S
C1953 C1952 1.377 . S
C1953 C1959 1.390 . S
C1954 H1945 0.930 . S
C1954 C1952 1.384 . S
C1954 C1955 1.372 . S
C1955 C1954 1.372 . S
C1955 C1956 1.400 . S
C1955 C1960 1.490 . S
C1956 H1946 0.930 . S
C1956 C1955 1.400 . S
C1956 C1959 1.386 . S
H1957 C1973 0.930 . S
H1958 C1974 0.931 . S
C1959 H1947 0.929 . S
C1959 C1953 1.390 . S
C1959 C1956 1.386 . S
C1960 C1955 1.490 . S
C1960 C1962 1.395 . S
C1960 C1963 1.403 . S
H1961 C1967 0.930 . S
C1962 H1948 0.930 . S
C1962 C1960 1.395 . S
C1962 C1965 1.403 . S
C1963 C1960 1.403 . S
C1963 C1964 1.524 . S
C1963 C1967 1.400 . S
C1964 H1949 0.960 . S
C1964 H1950 0.960 . S
C1964 H1951 0.960 . S
C1964 C1963 1.524 . S
C1965 C1962 1.403 . S
C1965 C1966 1.392 . S
C1965 C1969 1.495 . S
C1966 C1965 1.392 . S
C1966 C1967 1.385 . S
C1966 C1968 1.478 . S
C1967 H1961 0.930 . S
C1967 C1963 1.400 . S
C1967 C1966 1.385 . S
C1968 C1966 1.478 . S
C1968 C1970 1.381 . S
C1968 C1974 1.383 . S
C1969 C1965 1.495 . S
C1969 H1975 0.959 . S
C1969 H1976 0.961 . S
C1969 H1977 0.960 . S
C1970 C1968 1.381 . S
C1970 C1971 1.394 . S
C1970 H1978 0.930 . S
C1971 C1970 1.394 . S
C1971 C1972 1.383 . S
C1971 H1979 0.929 . S
C1972 C1971 1.383 . S
C1972 C1973 1.377 . S
C1973 H1957 0.930 . S
C1973 C1972 1.377 . S
C1973 C1974 1.379 . S
C1974 H1958 0.931 . S
C1974 C1968 1.383 . S
C1974 C1973 1.379 . S
H1975 C1969 0.959 . S
H1976 C1969 0.961 . S
H1977 C1969 0.960 . S
H1978 C1970 0.930 . S
H1979 C1971 0.929 . S
H1980 C1988 0.929 . S
H1981 C1990 0.930 . S
H1982 C1992 0.930 . S
H1983 C1995 0.929 . S
H1984 C1998 0.930 . S
H1985 C2000 0.960 . S
H1986 C2000 0.960 . S
H1987 C2000 0.960 . S
C1988 H1980 0.929 . S
C1988 C1989 1.377 . S
C1988 C1990 1.384 . S
C1989 C1988 1.377 . S
C1989 C1995 1.390 . S
C1990 H1981 0.930 . S
C1990 C1988 1.384 . S
C1990 C1991 1.372 . S
C1991 C1990 1.372 . S
C1991 C1992 1.400 . S
C1991 C1996 1.490 . S
C1992 H1982 0.930 . S
C1992 C1991 1.400 . S
C1992 C1995 1.386 . S
H1993 C2009 0.930 . S
H1994 C2010 0.931 . S
C1995 H1983 0.929 . S
C1995 C1989 1.390 . S
C1995 C1992 1.386 . S
C1996 C1991 1.490 . S
C1996 C1998 1.395 . S
C1996 C1999 1.403 . S
H1997 C2003 0.930 . S
C1998 H1984 0.930 . S
C1998 C1996 1.395 . S
C1998 C2001 1.403 . S
C1999 C1996 1.403 . S
C1999 C2000 1.524 . S
C1999 C2003 1.400 . S
C2000 H1985 0.960 . S
C2000 H1986 0.960 . S
C2000 H1987 0.960 . S
C2000 C1999 1.524 . S
C2001 C1998 1.403 . S
C2001 C2002 1.392 . S
C2001 C2005 1.495 . S
C2002 C2001 1.392 . S
C2002 C2003 1.385 . S
C2002 C2004 1.478 . S
C2003 H1997 0.930 . S
C2003 C1999 1.400 . S
C2003 C2002 1.385 . S
C2004 C2002 1.478 . S
C2004 C2006 1.381 . S
C2004 C2010 1.383 . S
C2005 C2001 1.495 . S
C2005 H2011 0.959 . S
C2005 H2012 0.961 . S
C2005 H2013 0.960 . S
C2006 C2004 1.381 . S
C2006 C2007 1.394 . S
C2006 H2014 0.930 . S
C2007 C2006 1.394 . S
C2007 C2008 1.383 . S
C2007 H2015 0.929 . S
C2008 C2007 1.383 . S
C2008 C2009 1.377 . S
C2009 H1993 0.930 . S
C2009 C2008 1.377 . S
C2009 C2010 1.379 . S
C2010 H1994 0.931 . S
C2010 C2004 1.383 . S
C2010 C2009 1.379 . S
H2011 C2005 0.959 . S
H2012 C2005 0.961 . S
H2013 C2005 0.960 . S
H2014 C2006 0.930 . S
H2015 C2007 0.929 . S
H2016 C2024 0.929 . S
H2017 C2026 0.930 . S
H2018 C2028 0.930 . S
H2019 C2031 0.929 . S
H2020 C2034 0.930 . S
H2021 C2036 0.960 . S
H2022 C2036 0.960 . S
H2023 C2036 0.960 . S
C2024 H2016 0.929 . S
C2024 C2025 1.377 . S
C2024 C2026 1.384 . S
C2025 C2024 1.377 . S
C2025 C2031 1.390 . S
C2026 H2017 0.930 . S
C2026 C2024 1.384 . S
C2026 C2027 1.372 . S
C2027 C2026 1.372 . S
C2027 C2028 1.400 . S
C2027 C2032 1.490 . S
C2028 H2018 0.930 . S
C2028 C2027 1.400 . S
C2028 C2031 1.386 . S
H2029 C2045 0.930 . S
H2030 C2046 0.931 . S
C2031 H2019 0.929 . S
C2031 C2025 1.390 . S
C2031 C2028 1.386 . S
C2032 C2027 1.490 . S
C2032 C2034 1.395 . S
C2032 C2035 1.403 . S
H2033 C2039 0.930 . S
C2034 H2020 0.930 . S
C2034 C2032 1.395 . S
C2034 C2037 1.403 . S
C2035 C2032 1.403 . S
C2035 C2036 1.524 . S
C2035 C2039 1.400 . S
C2036 H2021 0.960 . S
C2036 H2022 0.960 . S
C2036 H2023 0.960 . S
C2036 C2035 1.524 . S
C2037 C2034 1.403 . S
C2037 C2038 1.392 . S
C2037 C2041 1.495 . S
C2038 C2037 1.392 . S
C2038 C2039 1.385 . S
C2038 C2040 1.478 . S
C2039 H2033 0.930 . S
C2039 C2035 1.400 . S
C2039 C2038 1.385 . S
C2040 C2038 1.478 . S
C2040 C2042 1.381 . S
C2040 C2046 1.383 . S
C2041 C2037 1.495 . S
C2041 H2047 0.959 . S
C2041 H2048 0.961 . S
C2041 H2049 0.960 . S
C2042 C2040 1.381 . S
C2042 C2043 1.394 . S
C2042 H2050 0.930 . S
C2043 C2042 1.394 . S
C2043 C2044 1.383 . S
C2043 H2051 0.929 . S
C2044 C2043 1.383 . S
C2044 C2045 1.377 . S
C2045 H2029 0.930 . S
C2045 C2044 1.377 . S
C2045 C2046 1.379 . S
C2046 H2030 0.931 . S
C2046 C2040 1.383 . S
C2046 C2045 1.379 . S
H2047 C2041 0.959 . S
H2048 C2041 0.961 . S
H2049 C2041 0.960 . S
H2050 C2042 0.930 . S
H2051 C2043 0.929 . S
H2052 C2060 0.929 . S
H2053 C2062 0.930 . S
H2054 C2064 0.930 . S
H2055 C2067 0.929 . S
H2056 C2070 0.930 . S
H2057 C2072 0.960 . S
H2058 C2072 0.960 . S
H2059 C2072 0.960 . S
C2060 H2052 0.929 . S
C2060 C2061 1.377 . S
C2060 C2062 1.384 . S
C2061 C2060 1.377 . S
C2061 C2067 1.390 . S
C2062 H2053 0.930 . S
C2062 C2060 1.384 . S
C2062 C2063 1.372 . S
C2063 C2062 1.372 . S
C2063 C2064 1.400 . S
C2063 C2068 1.490 . S
C2064 H2054 0.930 . S
C2064 C2063 1.400 . S
C2064 C2067 1.386 . S
H2065 C2081 0.930 . S
H2066 C2082 0.931 . S
C2067 H2055 0.929 . S
C2067 C2061 1.390 . S
C2067 C2064 1.386 . S
C2068 C2063 1.490 . S
C2068 C2070 1.395 . S
C2068 C2071 1.403 . S
H2069 C2075 0.930 . S
C2070 H2056 0.930 . S
C2070 C2068 1.395 . S
C2070 C2073 1.403 . S
C2071 C2068 1.403 . S
C2071 C2072 1.524 . S
C2071 C2075 1.400 . S
C2072 H2057 0.960 . S
C2072 H2058 0.960 . S
C2072 H2059 0.960 . S
C2072 C2071 1.524 . S
C2073 C2070 1.403 . S
C2073 C2074 1.392 . S
C2073 C2077 1.495 . S
C2074 C2073 1.392 . S
C2074 C2075 1.385 . S
C2074 C2076 1.478 . S
C2075 H2069 0.930 . S
C2075 C2071 1.400 . S
C2075 C2074 1.385 . S
C2076 C2074 1.478 . S
C2076 C2078 1.381 . S
C2076 C2082 1.383 . S
C2077 C2073 1.495 . S
C2077 H2083 0.959 . S
C2077 H2084 0.961 . S
C2077 H2085 0.960 . S
C2078 C2076 1.381 . S
C2078 C2079 1.394 . S
C2078 H2086 0.930 . S
C2079 C2078 1.394 . S
C2079 C2080 1.383 . S
C2079 H2087 0.929 . S
C2080 C2079 1.383 . S
C2080 C2081 1.377 . S
C2081 H2065 0.930 . S
C2081 C2080 1.377 . S
C2081 C2082 1.379 . S
C2082 H2066 0.931 . S
C2082 C2076 1.383 . S
C2082 C2081 1.379 . S
H2083 C2077 0.959 . S
H2084 C2077 0.961 . S
H2085 C2077 0.960 . S
H2086 C2078 0.930 . S
H2087 C2079 0.929 . S
H2088 C2096 0.929 . S
H2089 C2098 0.930 . S
H2090 C2100 0.930 . S
H2091 C2103 0.929 . S
H2092 C2106 0.930 . S
H2093 C2108 0.960 . S
H2094 C2108 0.960 . S
H2095 C2108 0.960 . S
C2096 H2088 0.929 . S
C2096 C2097 1.377 . S
C2096 C2098 1.384 . S
C2097 C2096 1.377 . S
C2097 C2103 1.390 . S
C2098 H2089 0.930 . S
C2098 C2096 1.384 . S
C2098 C2099 1.372 . S
C2099 C2098 1.372 . S
C2099 C2100 1.400 . S
C2099 C2104 1.490 . S
C2100 H2090 0.930 . S
C2100 C2099 1.400 . S
C2100 C2103 1.386 . S
H2101 C2117 0.930 . S
H2102 C2118 0.931 . S
C2103 H2091 0.929 . S
C2103 C2097 1.390 . S
C2103 C2100 1.386 . S
C2104 C2099 1.490 . S
C2104 C2106 1.395 . S
C2104 C2107 1.403 . S
H2105 C2111 0.930 . S
C2106 H2092 0.930 . S
C2106 C2104 1.395 . S
C2106 C2109 1.403 . S
C2107 C2104 1.403 . S
C2107 C2108 1.524 . S
C2107 C2111 1.400 . S
C2108 H2093 0.960 . S
C2108 H2094 0.960 . S
C2108 H2095 0.960 . S
C2108 C2107 1.524 . S
C2109 C2106 1.403 . S
C2109 C2110 1.392 . S
C2109 C2113 1.495 . S
C2110 C2109 1.392 . S
C2110 C2111 1.385 . S
C2110 C2112 1.478 . S
C2111 H2105 0.930 . S
C2111 C2107 1.400 . S
C2111 C2110 1.385 . S
C2112 C2110 1.478 . S
C2112 C2114 1.381 . S
C2112 C2118 1.383 . S
C2113 C2109 1.495 . S
C2113 H2119 0.959 . S
C2113 H2120 0.961 . S
C2113 H2121 0.960 . S
C2114 C2112 1.381 . S
C2114 C2115 1.394 . S
C2114 H2122 0.930 . S
C2115 C2114 1.394 . S
C2115 C2116 1.383 . S
C2115 H2123 0.929 . S
C2116 C2115 1.383 . S
C2116 C2117 1.377 . S
C2117 H2101 0.930 . S
C2117 C2116 1.377 . S
C2117 C2118 1.379 . S
C2118 H2102 0.931 . S
C2118 C2112 1.383 . S
C2118 C2117 1.379 . S
H2119 C2113 0.959 . S
H2120 C2113 0.961 . S
H2121 C2113 0.960 . S
H2122 C2114 0.930 . S
H2123 C2115 0.929 . S
H2124 C2132 0.929 . S
H2125 C2134 0.930 . S
H2126 C2136 0.930 . S
H2127 C2139 0.929 . S
H2128 C2142 0.930 . S
H2129 C2144 0.960 . S
H2130 C2144 0.960 . S
H2131 C2144 0.960 . S
C2132 H2124 0.929 . S
C2132 C2133 1.377 . S
C2132 C2134 1.384 . S
C2133 C2132 1.377 . S
C2133 C2139 1.390 . S
C2134 H2125 0.930 . S
C2134 C2132 1.384 . S
C2134 C2135 1.372 . S
C2135 C2134 1.372 . S
C2135 C2136 1.400 . S
C2135 C2140 1.490 . S
C2136 H2126 0.930 . S
C2136 C2135 1.400 . S
C2136 C2139 1.386 . S
H2137 C2153 0.930 . S
H2138 C2154 0.931 . S
C2139 H2127 0.929 . S
C2139 C2133 1.390 . S
C2139 C2136 1.386 . S
C2140 C2135 1.490 . S
C2140 C2142 1.395 . S
C2140 C2143 1.403 . S
H2141 C2147 0.930 . S
C2142 H2128 0.930 . S
C2142 C2140 1.395 . S
C2142 C2145 1.403 . S
C2143 C2140 1.403 . S
C2143 C2144 1.524 . S
C2143 C2147 1.400 . S
C2144 H2129 0.960 . S
C2144 H2130 0.960 . S
C2144 H2131 0.960 . S
C2144 C2143 1.524 . S
C2145 C2142 1.403 . S
C2145 C2146 1.392 . S
C2145 C2149 1.495 . S
C2146 C2145 1.392 . S
C2146 C2147 1.385 . S
C2146 C2148 1.478 . S
C2147 H2141 0.930 . S
C2147 C2143 1.400 . S
C2147 C2146 1.385 . S
C2148 C2146 1.478 . S
C2148 C2150 1.381 . S
C2148 C2154 1.383 . S
C2149 C2145 1.495 . S
C2149 H2155 0.959 . S
C2149 H2156 0.961 . S
C2149 H2157 0.960 . S
C2150 C2148 1.381 . S
C2150 C2151 1.394 . S
C2150 H2158 0.930 . S
C2151 C2150 1.394 . S
C2151 C2152 1.383 . S
C2151 H2159 0.929 . S
C2152 C2151 1.383 . S
C2152 C2153 1.377 . S
C2153 H2137 0.930 . S
C2153 C2152 1.377 . S
C2153 C2154 1.379 . S
C2154 H2138 0.931 . S
C2154 C2148 1.383 . S
C2154 C2153 1.379 . S
H2155 C2149 0.959 . S
H2156 C2149 0.961 . S
H2157 C2149 0.960 . S
H2158 C2150 0.930 . S
H2159 C2151 0.929 . S
H2160 C2168 0.929 . S
H2161 C2170 0.930 . S
H2162 C2172 0.930 . S
H2163 C2175 0.929 . S
H2164 C2178 0.930 . S
H2165 C2180 0.960 . S
H2166 C2180 0.960 . S
H2167 C2180 0.960 . S
C2168 H2160 0.929 . S
C2168 C2169 1.377 . S
C2168 C2170 1.384 . S
C2169 C2168 1.377 . S
C2169 C2175 1.390 . S
C2170 H2161 0.930 . S
C2170 C2168 1.384 . S
C2170 C2171 1.372 . S
C2171 C2170 1.372 . S
C2171 C2172 1.400 . S
C2171 C2176 1.490 . S
C2172 H2162 0.930 . S
C2172 C2171 1.400 . S
C2172 C2175 1.386 . S
H2173 C2189 0.930 . S
H2174 C2190 0.931 . S
C2175 H2163 0.929 . S
C2175 C2169 1.390 . S
C2175 C2172 1.386 . S
C2176 C2171 1.490 . S
C2176 C2178 1.395 . S
C2176 C2179 1.403 . S
H2177 C2183 0.930 . S
C2178 H2164 0.930 . S
C2178 C2176 1.395 . S
C2178 C2181 1.403 . S
C2179 C2176 1.403 . S
C2179 C2180 1.524 . S
C2179 C2183 1.400 . S
C2180 H2165 0.960 . S
C2180 H2166 0.960 . S
C2180 H2167 0.960 . S
C2180 C2179 1.524 . S
C2181 C2178 1.403 . S
C2181 C2182 1.392 . S
C2181 C2185 1.495 . S
C2182 C2181 1.392 . S
C2182 C2183 1.385 . S
C2182 C2184 1.478 . S
C2183 H2177 0.930 . S
C2183 C2179 1.400 . S
C2183 C2182 1.385 . S
C2184 C2182 1.478 . S
C2184 C2186 1.381 . S
C2184 C2190 1.383 . S
C2185 C2181 1.495 . S
C2185 H2191 0.959 . S
C2185 H2192 0.961 . S
C2185 H2193 0.960 . S
C2186 C2184 1.381 . S
C2186 C2187 1.394 . S
C2186 H2194 0.930 . S
C2187 C2186 1.394 . S
C2187 C2188 1.383 . S
C2187 H2195 0.929 . S
C2188 C2187 1.383 . S
C2188 C2189 1.377 . S
C2189 H2173 0.930 . S
C2189 C2188 1.377 . S
C2189 C2190 1.379 . S
C2190 H2174 0.931 . S
C2190 C2184 1.383 . S
C2190 C2189 1.379 . S
H2191 C2185 0.959 . S
H2192 C2185 0.961 . S
H2193 C2185 0.960 . S
H2194 C2186 0.930 . S
H2195 C2187 0.929 . S
H2196 C2204 0.929 . S
H2197 C2206 0.930 . S
H2198 C2208 0.930 . S
H2199 C2211 0.929 . S
H2200 C2214 0.930 . S
H2201 C2216 0.960 . S
H2202 C2216 0.960 . S
H2203 C2216 0.960 . S
C2204 H2196 0.929 . S
C2204 C2205 1.377 . S
C2204 C2206 1.384 . S
C2205 C2204 1.377 . S
C2205 C2211 1.390 . S
C2206 H2197 0.930 . S
C2206 C2204 1.384 . S
C2206 C2207 1.372 . S
C2207 C2206 1.372 . S
C2207 C2208 1.400 . S
C2207 C2212 1.490 . S
C2208 H2198 0.930 . S
C2208 C2207 1.400 . S
C2208 C2211 1.386 . S
H2209 C2225 0.930 . S
H2210 C2226 0.931 . S
C2211 H2199 0.929 . S
C2211 C2205 1.390 . S
C2211 C2208 1.386 . S
C2212 C2207 1.490 . S
C2212 C2214 1.395 . S
C2212 C2215 1.403 . S
H2213 C2219 0.930 . S
C2214 H2200 0.930 . S
C2214 C2212 1.395 . S
C2214 C2217 1.403 . S
C2215 C2212 1.403 . S
C2215 C2216 1.524 . S
C2215 C2219 1.400 . S
C2216 H2201 0.960 . S
C2216 H2202 0.960 . S
C2216 H2203 0.960 . S
C2216 C2215 1.524 . S
C2217 C2214 1.403 . S
C2217 C2218 1.392 . S
C2217 C2221 1.495 . S
C2218 C2217 1.392 . S
C2218 C2219 1.385 . S
C2218 C2220 1.478 . S
C2219 H2213 0.930 . S
C2219 C2215 1.400 . S
C2219 C2218 1.385 . S
C2220 C2218 1.478 . S
C2220 C2222 1.381 . S
C2220 C2226 1.383 . S
C2221 C2217 1.495 . S
C2221 H2227 0.959 . S
C2221 H2228 0.961 . S
C2221 H2229 0.960 . S
C2222 C2220 1.381 . S
C2222 C2223 1.394 . S
C2222 H2230 0.930 . S
C2223 C2222 1.394 . S
C2223 C2224 1.383 . S
C2223 H2231 0.929 . S
C2224 C2223 1.383 . S
C2224 C2225 1.377 . S
C2225 H2209 0.930 . S
C2225 C2224 1.377 . S
C2225 C2226 1.379 . S
C2226 H2210 0.931 . S
C2226 C2220 1.383 . S
C2226 C2225 1.379 . S
H2227 C2221 0.959 . S
H2228 C2221 0.961 . S
H2229 C2221 0.960 . S
H2230 C2222 0.930 . S
H2231 C2223 0.929 . S
H2232 C2240 0.929 . S
H2233 C2242 0.930 . S
H2234 C2244 0.930 . S
H2235 C2247 0.929 . S
H2236 C2250 0.930 . S
H2237 C2252 0.960 . S
H2238 C2252 0.960 . S
H2239 C2252 0.960 . S
C2240 H2232 0.929 . S
C2240 C2241 1.377 . S
C2240 C2242 1.384 . S
C2241 C2240 1.377 . S
C2241 C2247 1.390 . S
C2242 H2233 0.930 . S
C2242 C2240 1.384 . S
C2242 C2243 1.372 . S
C2243 C2242 1.372 . S
C2243 C2244 1.400 . S
C2243 C2248 1.490 . S
C2244 H2234 0.930 . S
C2244 C2243 1.400 . S
C2244 C2247 1.386 . S
H2245 C2261 0.930 . S
H2246 C2262 0.931 . S
C2247 H2235 0.929 . S
C2247 C2241 1.390 . S
C2247 C2244 1.386 . S
C2248 C2243 1.490 . S
C2248 C2250 1.395 . S
C2248 C2251 1.403 . S
H2249 C2255 0.930 . S
C2250 H2236 0.930 . S
C2250 C2248 1.395 . S
C2250 C2253 1.403 . S
C2251 C2248 1.403 . S
C2251 C2252 1.524 . S
C2251 C2255 1.400 . S
C2252 H2237 0.960 . S
C2252 H2238 0.960 . S
C2252 H2239 0.960 . S
C2252 C2251 1.524 . S
C2253 C2250 1.403 . S
C2253 C2254 1.392 . S
C2253 C2257 1.495 . S
C2254 C2253 1.392 . S
C2254 C2255 1.385 . S
C2254 C2256 1.478 . S
C2255 H2249 0.930 . S
C2255 C2251 1.400 . S
C2255 C2254 1.385 . S
C2256 C2254 1.478 . S
C2256 C2258 1.381 . S
C2256 C2262 1.383 . S
C2257 C2253 1.495 . S
C2257 H2263 0.959 . S
C2257 H2264 0.961 . S
C2257 H2265 0.960 . S
C2258 C2256 1.381 . S
C2258 C2259 1.394 . S
C2258 H2266 0.930 . S
C2259 C2258 1.394 . S
C2259 C2260 1.383 . S
C2259 H2267 0.929 . S
C2260 C2259 1.383 . S
C2260 C2261 1.377 . S
C2261 H2245 0.930 . S
C2261 C2260 1.377 . S
C2261 C2262 1.379 . S
C2262 H2246 0.931 . S
C2262 C2256 1.383 . S
C2262 C2261 1.379 . S
H2263 C2257 0.959 . S
H2264 C2257 0.961 . S
H2265 C2257 0.960 . S
H2266 C2258 0.930 . S
H2267 C2259 0.929 . S
H2268 C2276 0.929 . S
H2269 C2278 0.930 . S
H2270 C2280 0.930 . S
H2271 C2283 0.929 . S
H2272 C2286 0.930 . S
H2273 C2288 0.960 . S
H2274 C2288 0.960 . S
H2275 C2288 0.960 . S
C2276 H2268 0.929 . S
C2276 C2277 1.377 . S
C2276 C2278 1.384 . S
C2277 C2276 1.377 . S
C2277 C2283 1.390 . S
C2278 H2269 0.930 . S
C2278 C2276 1.384 . S
C2278 C2279 1.372 . S
C2279 C2278 1.372 . S
C2279 C2280 1.400 . S
C2279 C2284 1.490 . S
C2280 H2270 0.930 . S
C2280 C2279 1.400 . S
C2280 C2283 1.386 . S
H2281 C2297 0.930 . S
H2282 C2298 0.931 . S
C2283 H2271 0.929 . S
C2283 C2277 1.390 . S
C2283 C2280 1.386 . S
C2284 C2279 1.490 . S
C2284 C2286 1.395 . S
C2284 C2287 1.403 . S
H2285 C2291 0.930 . S
C2286 H2272 0.930 . S
C2286 C2284 1.395 . S
C2286 C2289 1.403 . S
C2287 C2284 1.403 . S
C2287 C2288 1.524 . S
C2287 C2291 1.400 . S
C2288 H2273 0.960 . S
C2288 H2274 0.960 . S
C2288 H2275 0.960 . S
C2288 C2287 1.524 . S
C2289 C2286 1.403 . S
C2289 C2290 1.392 . S
C2289 C2293 1.495 . S
C2290 C2289 1.392 . S
C2290 C2291 1.385 . S
C2290 C2292 1.478 . S
C2291 H2285 0.930 . S
C2291 C2287 1.400 . S
C2291 C2290 1.385 . S
C2292 C2290 1.478 . S
C2292 C2294 1.381 . S
C2292 C2298 1.383 . S
C2293 C2289 1.495 . S
C2293 H2299 0.959 . S
C2293 H2300 0.961 . S
C2293 H2301 0.960 . S
C2294 C2292 1.381 . S
C2294 C2295 1.394 . S
C2294 H2302 0.930 . S
C2295 C2294 1.394 . S
C2295 C2296 1.383 . S
C2295 H2303 0.929 . S
C2296 C2295 1.383 . S
C2296 C2297 1.377 . S
C2297 H2281 0.930 . S
C2297 C2296 1.377 . S
C2297 C2298 1.379 . S
C2298 H2282 0.931 . S
C2298 C2292 1.383 . S
C2298 C2297 1.379 . S
H2299 C2293 0.959 . S
H2300 C2293 0.961 . S
H2301 C2293 0.960 . S
H2302 C2294 0.930 . S
H2303 C2295 0.929 . S
C369 C262 1.590 . S
C388 C19 1.681 . S
C405 C39 1.664 . S
C424 C282 1.557 . S
C441 C59 1.673 . S
C460 C242 1.600 . S
C477 C42 1.586 . S
C496 C159 1.658 . S
C513 C179 1.666 . S
C532 C2 1.545 . S
C549 C22 1.589 . S
C568 C139 1.677 . S
C585 C78 1.673 . S
C604 C204 1.550 . S
C621 C98 1.664 . S
C640 C224 1.614 . S
C657 C184 1.589 . S
C676 C118 1.643 . S
C693 C338 1.664 . S
C712 C104 1.614 . S
C729 C64 1.586 . S
C748 C358 1.656 . S
C765 C318 1.664 . S
C784 C84 1.612 . S
C801 C162 1.576 . S
C820 C279 1.662 . S
C837 C122 1.575 . S
C856 C299 1.650 . S
C873 C142 1.576 . S
C892 C259 1.658 . S
C909 C198 1.667 . S
C928 C324 1.584 . S
C945 C344 1.584 . S
C964 C218 1.657 . S
C981 C304 1.587 . S
C1000 C238 1.655 . S
C1017 C4 1.582 . S
C1036 C99 1.575 . S
C1053 C119 1.589 . S
C1072 C24 1.564 . S
C1089 C79 1.596 . S
C1108 C44 1.580 . S
C1125 C82 1.586 . S
C1144 C58 1.587 . S
C1161 C102 1.584 . S
C1180 C18 1.607 . S
C1197 C62 1.581 . S
C1216 C38 1.572 . S
C1233 C219 1.591 . S
C1252 C124 1.559 . S
C1269 C239 1.596 . S
C1288 C144 1.588 . S
C1305 C199 1.595 . S
C1324 C164 1.599 . S
C1341 C202 1.583 . S
C1360 C178 1.574 . S
C1377 C222 1.578 . S
C1396 C138 1.590 . S
C1413 C182 1.582 . S
C1432 C158 1.573 . S
C1449 C339 1.593 . S
C1468 C244 1.596 . S
C1485 C359 1.594 . S
C1504 C264 1.568 . S
C1521 C284 1.585 . S
C1540 C319 1.587 . S
C1557 C298 1.590 . S
C1576 C322 1.588 . S
C1593 C258 1.595 . S
C1612 C342 1.599 . S
C1629 C302 1.579 . S
C1648 C278 1.573 . S
C1665 C12 1.382 . S
C1684 C9 1.384 . S
C1701 C32 1.377 . S
C1720 C29 1.358 . S
C1737 C52 1.377 1_545 S
C1756 C49 1.375 . S
C1773 C69 1.375 . S
C1792 C72 1.365 . S
C1809 C92 1.375 . S
C1828 C89 1.374 . S
C1845 C112 1.375 . S
C1864 C109 1.362 . S
C1881 C129 1.377 . S
C1900 C132 1.385 . S
C1917 C152 1.380 . S
C1936 C149 1.393 . S
C1953 C169 1.380 . S
C1972 C172 1.393 . S
C1989 C189 1.379 1_554 S
C2008 C192 1.391 . S
C2025 C209 1.382 1_554 S
C2044 C212 1.388 . S
C2061 C229 1.382 1_554 S
C2080 C232 1.388 . S
C2097 C249 1.380 . S
C2116 C252 1.393 1_556 S
C2133 C272 1.378 1_556 S
C2152 C269 1.390 . S
C2169 C292 1.375 1_556 S
C2188 C289 1.366 . S
C2205 C312 1.380 . S
C2224 C309 1.393 . S
C2241 C332 1.377 . S
C2260 C329 1.358 . S
C2277 C349 1.378 . S
C2296 C352 1.359 . S
