# Generated by pormake.
# Topology atn, (4)-cn, num edge types: 1
# Building blocks:
#     Node 0, Type 0, BuildingBlock: NAHDIM_clean_sbu_0, # of connection points: 4
#     Node 1, Type 0, BuildingBlock: NAHDIM_clean_sbu_0, # of connection points: 4
#     Node 2, Type 0, BuildingBlock: NAHDIM_clean_sbu_0, # of connection points: 4
#     Node 3, Type 0, BuildingBlock: NAHDIM_clean_sbu_0, # of connection points: 4
#     Node 4, Type 0, BuildingBlock: NAHDIM_clean_sbu_0, # of connection points: 4
#     Node 5, Type 0, BuildingBlock: NAHDIM_clean_sbu_0, # of connection points: 4
#     Node 6, Type 0, BuildingBlock: NAHDIM_clean_sbu_0, # of connection points: 4
#     Node 7, Type 0, BuildingBlock: NAHDIM_clean_sbu_0, # of connection points: 4
#     Node 8, Type 0, BuildingBlock: NAHDIM_clean_sbu_0, # of connection points: 4
#     Node 9, Type 0, BuildingBlock: NAHDIM_clean_sbu_0, # of connection points: 4
#     Node 10, Type 0, BuildingBlock: NAHDIM_clean_sbu_0, # of connection points: 4
#     Node 11, Type 0, BuildingBlock: NAHDIM_clean_sbu_0, # of connection points: 4
#     Node 12, Type 0, BuildingBlock: NAHDIM_clean_sbu_0, # of connection points: 4
#     Node 13, Type 0, BuildingBlock: NAHDIM_clean_sbu_0, # of connection points: 4
#     Node 14, Type 0, BuildingBlock: NAHDIM_clean_sbu_0, # of connection points: 4
#     Node 15, Type 0, BuildingBlock: NAHDIM_clean_sbu_0, # of connection points: 4
#     Edge 16, Type (0, 0), BuildingBlock: KIFKEQ_clean_linker_1, # of connection points: 2
#     Edge 17, Type (0, 0), BuildingBlock: KIFKEQ_clean_linker_1, # of connection points: 2
#     Edge 18, Type (0, 0), BuildingBlock: KIFKEQ_clean_linker_1, # of connection points: 2
#     Edge 19, Type (0, 0), BuildingBlock: KIFKEQ_clean_linker_1, # of connection points: 2
#     Edge 20, Type (0, 0), BuildingBlock: KIFKEQ_clean_linker_1, # of connection points: 2
#     Edge 21, Type (0, 0), BuildingBlock: KIFKEQ_clean_linker_1, # of connection points: 2
#     Edge 22, Type (0, 0), BuildingBlock: KIFKEQ_clean_linker_1, # of connection points: 2
#     Edge 23, Type (0, 0), BuildingBlock: KIFKEQ_clean_linker_1, # of connection points: 2
#     Edge 24, Type (0, 0), BuildingBlock: KIFKEQ_clean_linker_1, # of connection points: 2
#     Edge 25, Type (0, 0), BuildingBlock: KIFKEQ_clean_linker_1, # of connection points: 2
#     Edge 26, Type (0, 0), BuildingBlock: KIFKEQ_clean_linker_1, # of connection points: 2
#     Edge 27, Type (0, 0), BuildingBlock: KIFKEQ_clean_linker_1, # of connection points: 2
#     Edge 28, Type (0, 0), BuildingBlock: KIFKEQ_clean_linker_1, # of connection points: 2
#     Edge 29, Type (0, 0), BuildingBlock: KIFKEQ_clean_linker_1, # of connection points: 2
#     Edge 30, Type (0, 0), BuildingBlock: KIFKEQ_clean_linker_1, # of connection points: 2
#     Edge 31, Type (0, 0), BuildingBlock: KIFKEQ_clean_linker_1, # of connection points: 2
#     Edge 32, Type (0, 0), BuildingBlock: KIFKEQ_clean_linker_1, # of connection points: 2
#     Edge 33, Type (0, 0), BuildingBlock: KIFKEQ_clean_linker_1, # of connection points: 2
#     Edge 34, Type (0, 0), BuildingBlock: KIFKEQ_clean_linker_1, # of connection points: 2
#     Edge 35, Type (0, 0), BuildingBlock: KIFKEQ_clean_linker_1, # of connection points: 2
#     Edge 36, Type (0, 0), BuildingBlock: KIFKEQ_clean_linker_1, # of connection points: 2
#     Edge 37, Type (0, 0), BuildingBlock: KIFKEQ_clean_linker_1, # of connection points: 2
#     Edge 38, Type (0, 0), BuildingBlock: KIFKEQ_clean_linker_1, # of connection points: 2
#     Edge 39, Type (0, 0), BuildingBlock: KIFKEQ_clean_linker_1, # of connection points: 2
#     Edge 40, Type (0, 0), BuildingBlock: KIFKEQ_clean_linker_1, # of connection points: 2
#     Edge 41, Type (0, 0), BuildingBlock: KIFKEQ_clean_linker_1, # of connection points: 2
#     Edge 42, Type (0, 0), BuildingBlock: KIFKEQ_clean_linker_1, # of connection points: 2
#     Edge 43, Type (0, 0), BuildingBlock: KIFKEQ_clean_linker_1, # of connection points: 2
#     Edge 44, Type (0, 0), BuildingBlock: KIFKEQ_clean_linker_1, # of connection points: 2
#     Edge 45, Type (0, 0), BuildingBlock: KIFKEQ_clean_linker_1, # of connection points: 2
#     Edge 46, Type (0, 0), BuildingBlock: KIFKEQ_clean_linker_1, # of connection points: 2
#     Edge 47, Type (0, 0), BuildingBlock: KIFKEQ_clean_linker_1, # of connection points: 2
# Relax obj value: 0.100
# Max RMSD: 0.110
# Mean RMSD: 0.110
data_MOF--net-atn--node1-NAHDIM_clean_sbu_0--edge1-KIFKEQ_clean_linker_1
_symmetry_space_group_name_H-M    P1
_symmetry_Int_Tables_number       1
_symmetry_cell_setting            triclinic
loop_
_symmetry_equiv_pos_as_xyz
'x, y, z'
_cell_length_a     64.717026
_cell_length_b     64.72259
_cell_length_c     25.249959
_cell_angle_alpha  90.032498
_cell_angle_beta   90.018428
_cell_angle_gamma 89.986041
loop_
_atom_site_label
_atom_site_type_symbol
_atom_site_fract_x
_atom_site_fract_y
_atom_site_fract_z
_atom_type_partial_charge
C0 C 0.19763 0.41713 0.01831 0.0
O1 O 0.1792 0.40896 0.02439 0.0
O2 O 0.19498 0.36726 0.088 0.0
Zn3 Zn 0.20943 0.37469 0.01963 0.0
O4 O 0.19383 0.36549 0.95484 0.0
C5 C 0.24155 0.34541 0.04519 0.0
O6 O 0.22762 0.33843 0.0785 0.0
O7 O 0.21326 0.40531 0.01571 0.0
C8 C 0.19055 0.34647 0.94558 0.0
O9 O 0.19634 0.33265 0.98067 0.0
C10 C 0.1766 0.36048 0.09156 0.0
O11 O 0.16544 0.35836 0.04845 0.0
O12 O 0.23732 0.36105 0.0168 0.0
C13 C 0.57334 0.2075 0.04105 0.0
O14 O 0.58263 0.20573 0.08709 0.0
O15 O 0.62532 0.19444 0.06787 0.0
Zn16 Zn 0.61509 0.20731 -0.00011 0.0
O17 O 0.62443 0.19173 0.93538 0.0
C18 C 0.6284 0.24802 0.03299 0.0
O19 O 0.62124 0.24221 0.07934 0.0
O20 O 0.58413 0.20864 0.99915 0.0
C21 C 0.64336 0.18753 0.92754 0.0
O22 O 0.65703 0.19237 0.96397 0.0
C23 C 0.63056 0.17564 0.07348 0.0
O24 O 0.62946 0.16304 0.03277 0.0
O25 O 0.62692 0.2358 0.99381 0.0
C26 C 0.76774 0.57065 0.00261 0.0
O27 O 0.7737 0.57915 0.04734 0.0
O28 O 0.78394 0.62131 0.03093 0.0
Zn29 Zn 0.76964 0.61267 0.96334 0.0
O30 O 0.78586 0.6202 0.89833 0.0
C31 C 0.7297 0.62788 0.99663 0.0
O32 O 0.73389 0.61763 0.04024 0.0
O33 O 0.76482 0.58202 0.96231 0.0
C34 C 0.79328 0.63814 0.89101 0.0
O35 O 0.79129 0.65217 0.9283 0.0
C36 C 0.80335 0.62335 0.03654 0.0
O37 O 0.81559 0.61985 0.99604 0.0
O38 O 0.74258 0.62756 0.95871 0.0
C39 C 0.41696 0.7892 0.99413 0.0
O40 O 0.40627 0.80613 0.98555 0.0
O41 O 0.36668 0.78803 0.0659 0.0
Zn42 Zn 0.37645 0.77345 -0.00028 0.0
O43 O 0.36762 0.78807 0.9331 0.0
C44 C 0.35639 0.73631 0.03753 0.0
O45 O 0.35699 0.74597 0.08326 0.0
O46 O 0.40737 0.77231 0.0014 0.0
C47 C 0.34875 0.79193 0.9234 0.0
O48 O 0.33467 0.7871 0.95879 0.0
C49 C 0.36067 0.80668 0.06912 0.0
O50 O 0.36034 0.81823 0.02636 0.0
O51 O 0.36437 0.74481 0.99707 0.0
C52 C 0.2146 0.57156 0.99019 0.0
O53 O 0.22455 0.58001 0.95036 0.0
O54 O 0.19429 0.62301 0.95172 0.0
Zn55 Zn 0.20754 0.61391 0.02005 0.0
O56 O 0.1927 0.62566 0.08311 0.0
C57 C 0.24618 0.63107 0.98247 0.0
O58 O 0.23667 0.63085 0.9365 0.0
O59 O 0.20636 0.58312 0.02491 0.0
C60 C 0.19616 0.64411 0.09784 0.0
O61 O 0.20881 0.65564 0.06987 0.0
C62 C 0.17625 0.63063 0.94823 0.0
O63 O 0.16509 0.63285 0.9913 0.0
O64 O 0.23701 0.62388 0.02295 0.0
C65 C 0.41832 0.19805 0.01087 0.0
O66 O 0.40863 0.18261 0.03369 0.0
O67 O 0.36746 0.19976 0.91043 0.0
Zn68 Zn 0.37695 0.20954 0.98196 0.0
O69 O 0.36628 0.19059 0.03858 0.0
C70 C 0.35764 0.24913 0.96078 0.0
O71 O 0.36055 0.24404 0.91096 0.0
O72 O 0.40793 0.21148 0.98559 0.0
C73 C 0.34687 0.18867 0.04414 0.0
O74 O 0.33453 0.19813 0.01067 0.0
C75 C 0.37363 0.18311 0.889 0.0
O76 O 0.38708 0.17147 0.9141 0.0
O77 O 0.36417 0.23717 0.99698 0.0
C78 C 0.76964 0.41579 0.96777 0.0
O79 O 0.77417 0.407 0.92233 0.0
O80 O 0.78883 0.36451 0.94546 0.0
Zn81 Zn 0.7751 0.37453 0.01236 0.0
O82 O 0.79282 0.3694 0.07622 0.0
C83 C 0.73339 0.3601 0.99236 0.0
O84 O 0.73429 0.37259 0.95144 0.0
O85 O 0.76897 0.40489 0.00954 0.0
C86 C 0.80342 0.35306 0.08226 0.0
O87 O 0.80376 0.33922 0.04418 0.0
C88 C 0.807 0.36977 0.93199 0.0
O89 O 0.81755 0.38231 0.96273 0.0
O90 O 0.74885 0.35872 0.02315 0.0
C91 C 0.57239 0.79602 0.0179 0.0
O92 O 0.58128 0.81235 0.0388 0.0
O93 O 0.62625 0.79636 0.94244 0.0
Zn94 Zn 0.61443 0.78313 0.00789 0.0
O95 O 0.62197 0.79895 0.07358 0.0
C96 C 0.62533 0.74138 0.97876 0.0
O97 O 0.61504 0.74581 0.93535 0.0
O98 O 0.58359 0.78122 0.0015 0.0
C99 C 0.64056 0.80428 0.08209 0.0
O100 O 0.65466 0.80015 0.04618 0.0
C101 C 0.62553 0.81566 0.93347 0.0
O102 O 0.61687 0.82793 0.96851 0.0
O103 O 0.62666 0.75486 0.01517 0.0
C104 C 0.70391 0.91829 0.49203 0.0
O105 O 0.68863 0.90889 0.46767 0.0
O106 O 0.70202 0.86538 0.57578 0.0
Zn107 Zn 0.71593 0.87649 0.51019 0.0
O108 O 0.7004 0.8686 0.44424 0.0
C109 C 0.75276 0.85322 0.53842 0.0
O110 O 0.74368 0.85149 0.58472 0.0
O111 O 0.7179 0.90751 0.51406 0.0
C112 C 0.68836 0.85319 0.44027 0.0
O113 O 0.68493 0.84156 0.482 0.0
C114 C 0.68498 0.87234 0.59329 0.0
O115 O 0.67557 0.88722 0.5674 0.0
O116 O 0.74414 0.86383 0.50231 0.0
C117 C 0.0701 0.69452 0.50111 0.0
O118 O 0.08135 0.67803 0.49153 0.0
O119 O 0.11873 0.69842 0.5879 0.0
Zn120 Zn 0.10995 0.71133 0.5189 0.0
O121 O 0.12153 0.69582 0.45663 0.0
C122 C 0.13061 0.74902 0.55138 0.0
O123 O 0.1322 0.73944 0.59704 0.0
O124 O 0.07906 0.71123 0.51415 0.0
C125 C 0.14045 0.69803 0.44453 0.0
O126 O 0.15227 0.70958 0.47477 0.0
C127 C 0.12544 0.68005 0.59224 0.0
O128 O 0.12676 0.66836 0.54983 0.0
O129 O 0.12093 0.74035 0.51364 0.0
C130 C 0.28363 0.06904 0.52445 0.0
O131 O 0.28527 0.07932 0.56914 0.0
O132 O 0.30084 0.11975 0.54177 0.0
Zn133 Zn 0.28356 0.10991 0.48029 0.0
O134 O 0.29624 0.11917 0.4113 0.0
C135 C 0.24734 0.13002 0.52604 0.0
O136 O 0.25841 0.13039 0.56966 0.0
O137 O 0.2824 0.07895 0.48114 0.0
C138 C 0.2896 0.13537 0.38848 0.0
O139 O 0.27484 0.14616 0.41109 0.0
C140 C 0.30698 0.13831 0.54653 0.0
O141 O 0.30222 0.1518 0.50965 0.0
O142 O 0.25472 0.12151 0.48482 0.0
C143 C 0.91981 0.29541 0.5049 0.0
O144 O 0.91131 0.31225 0.48572 0.0
O145 O 0.86551 0.29618 0.57875 0.0
Zn146 Zn 0.87746 0.28373 0.51223 0.0
O147 O 0.87105 0.30098 0.44819 0.0
C148 C 0.86554 0.24074 0.52993 0.0
O149 O 0.8766 0.24221 0.57342 0.0
O150 O 0.90824 0.28061 0.51949 0.0
C151 C 0.85317 0.30855 0.44091 0.0
O152 O 0.83898 0.30602 0.47755 0.0
C153 C 0.86773 0.31512 0.59082 0.0
O154 O 0.87804 0.32729 0.55868 0.0
O155 O 0.86421 0.25621 0.49922 0.0
C156 C 0.70501 0.074 0.50452 0.0
O157 O 0.6876 0.08397 0.51254 0.0
O158 O 0.70553 0.12492 0.43156 0.0
Zn159 Zn 0.71898 0.11516 0.4993 0.0
O160 O 0.70273 0.12305 0.56407 0.0
C161 C 0.75934 0.13116 0.46913 0.0
O162 O 0.75441 0.12454 0.42158 0.0
O163 O 0.72148 0.0843 0.49734 0.0
C164 C 0.69696 0.1415 0.57278 0.0
O165 O 0.70073 0.1558 0.53717 0.0
C166 C 0.68631 0.12852 0.42663 0.0
O167 O 0.67409 0.12619 0.46771 0.0
O168 O 0.74683 0.12834 0.50718 0.0
C169 C 0.91473 0.68896 0.47362 0.0
O170 O 0.90469 0.67191 0.48515 0.0
O171 O 0.86363 0.69099 0.39389 0.0
Zn172 Zn 0.87364 0.70392 0.46206 0.0
O173 O 0.86446 0.68812 0.52641 0.0
C174 C 0.85115 0.74152 0.43566 0.0
O175 O 0.84768 0.73217 0.39034 0.0
O176 O 0.90455 0.70509 0.46167 0.0
C177 C 0.84545 0.68481 0.53551 0.0
O178 O 0.83163 0.69073 0.50051 0.0
C179 C 0.85792 0.67229 0.38923 0.0
O180 O 0.85836 0.66012 0.43083 0.0
O181 O 0.86216 0.73261 0.47048 0.0
C182 C 0.29139 0.91354 0.51874 0.0
O183 O 0.3074 0.90408 0.53963 0.0
O184 O 0.29189 0.86235 0.42968 0.0
Zn185 Zn 0.27871 0.87192 0.49781 0.0
O186 O 0.29427 0.86242 0.56242 0.0
C187 C 0.24081 0.85107 0.46643 0.0
O188 O 0.24981 0.84978 0.41992 0.0
O189 O 0.27705 0.90286 0.49798 0.0
C190 C 0.30079 0.84405 0.56828 0.0
O191 O 0.29835 0.83068 0.5296 0.0
C192 C 0.31115 0.85967 0.42285 0.0
O193 O 0.32392 0.86306 0.46238 0.0
O194 O 0.25009 0.86017 0.50416 0.0
C195 C 0.07514 0.28742 0.52895 0.0
O196 O 0.08558 0.30396 0.54286 0.0
O197 O 0.12544 0.28745 0.45019 0.0
Zn198 Zn 0.11597 0.2729 0.51665 0.0
O199 O 0.12475 0.2878 0.58288 0.0
C200 C 0.13646 0.23583 0.47942 0.0
O201 O 0.13514 0.24503 0.43319 0.0
O202 O 0.08499 0.27124 0.51568 0.0
C203 C 0.1427 0.29531 0.58953 0.0
O204 O 0.15625 0.29414 0.55091 0.0
C205 C 0.12767 0.30685 0.4449 0.0
O206 O 0.12406 0.31907 0.4854 0.0
O207 O 0.12867 0.24453 0.51989 0.0
H208 H 0.23142 0.54207 0.92548 0.0
H209 H 0.19287 0.54974 0.06394 0.0
H210 H 0.22723 0.50465 0.93163 0.0
H211 H 0.18892 0.51242 0.07028 0.0
H212 H 0.16789 0.44685 0.02813 0.0
H213 H 0.17214 0.48417 0.0204 0.0
H214 H 0.23737 0.47589 0.99114 0.0
H215 H 0.23315 0.43856 0.99827 0.0
C216 C 0.22212 0.53579 0.95729 0.0
C217 C 0.21247 0.54887 0.99418 0.0
C218 C 0.2198 0.51437 0.96093 0.0
C219 C 0.2077 0.50563 0.00137 0.0
C220 C 0.19811 0.51872 0.03828 0.0
C221 C 0.20049 0.5401 0.03481 0.0
C222 C 0.18314 0.45298 0.02003 0.0
C223 C 0.20019 0.43975 0.01389 0.0
C224 C 0.18558 0.47435 0.01585 0.0
C225 C 0.20509 0.48293 0.00521 0.0
C226 C 0.22211 0.4697 0.9988 0.0
C227 C 0.2197 0.44834 0.00323 0.0
H228 H 0.44454 0.17361 0.06788 0.0
H229 H 0.44342 0.22687 0.96466 0.0
H230 H 0.48192 0.17676 0.07592 0.0
H231 H 0.48083 0.23012 0.97329 0.0
H232 H 0.54954 0.21267 0.95271 0.0
H233 H 0.51203 0.21089 0.94608 0.0
H234 H 0.50796 0.20032 0.11465 0.0
H235 H 0.54555 0.20185 0.12134 0.0
C236 C 0.45225 0.18601 0.04698 0.0
C237 C 0.44101 0.19997 0.01554 0.0
C238 C 0.47366 0.1879 0.05191 0.0
C239 C 0.48429 0.20372 0.02534 0.0
C240 C 0.47307 0.21766 0.99385 0.0
C241 C 0.45164 0.21584 0.98909 0.0
C242 C 0.54066 0.21004 0.98843 0.0
C243 C 0.55053 0.20733 0.03755 0.0
C244 C 0.51916 0.20914 0.98464 0.0
C245 C 0.50707 0.20542 0.02982 0.0
C246 C 0.51691 0.20296 0.07905 0.0
C247 C 0.53842 0.20395 0.0829 0.0
H248 H 0.7767 0.44474 0.89104 0.0
H249 H 0.75597 0.43795 0.05279 0.0
H250 H 0.77454 0.48218 0.89971 0.0
H251 H 0.75323 0.47531 0.06096 0.0
H252 H 0.77764 0.54157 0.07669 0.0
H253 H 0.77632 0.50418 0.06728 0.0
H254 H 0.75132 0.511 0.9095 0.0
H255 H 0.75319 0.54845 0.91836 0.0
C256 C 0.77141 0.45123 0.92818 0.0
C257 C 0.76667 0.43839 0.97134 0.0
C258 C 0.77006 0.4727 0.9331 0.0
C259 C 0.76383 0.48176 0.98117 0.0
C260 C 0.75846 0.46885 0.02372 0.0
C261 C 0.75992 0.44742 0.01892 0.0
C262 C 0.77174 0.53511 0.04011 0.0
C263 C 0.76563 0.54798 0.99819 0.0
C264 C 0.77087 0.51365 0.03481 0.0
C265 C 0.76374 0.50458 0.98757 0.0
C266 C 0.75718 0.51748 0.94609 0.0
C267 C 0.75815 0.53895 0.9513 0.0
H268 H 0.54414 0.82419 0.05304 0.0
H269 H 0.54917 0.76526 0.9734 0.0
H270 H 0.50664 0.82224 0.04692 0.0
H271 H 0.51164 0.76355 0.96624 0.0
H272 H 0.44366 0.75756 0.01616 0.0
H273 H 0.48124 0.75915 0.02174 0.0
H274 H 0.4794 0.82398 0.9812 0.0
H275 H 0.44185 0.82253 0.97679 0.0
C276 C 0.53725 0.81086 0.03399 0.0
C277 C 0.54963 0.79488 0.01373 0.0
C278 C 0.51576 0.80981 0.03021 0.0
C279 C 0.50616 0.79276 0.00599 0.0
C280 C 0.51855 0.77677 0.98571 0.0
C281 C 0.54006 0.77781 0.98956 0.0
C282 C 0.45128 0.77215 0.00838 0.0
C283 C 0.43977 0.78993 0.99619 0.0
C284 C 0.47283 0.77303 0.01129 0.0
C285 C 0.4833 0.7917 0.00202 0.0
C286 C 0.47178 0.80943 0.98936 0.0
C287 C 0.45025 0.80856 0.98653 0.0
H288 H 0.73818 0.04848 0.4884 0.0
H289 H 0.67245 0.04788 0.51882 0.0
H290 H 0.73828 0.01078 0.4855 0.0
H291 H 0.67266 0.01029 0.51684 0.0
H292 H 0.67639 0.94529 0.44867 0.0
H293 H 0.67718 0.98284 0.45182 0.0
H294 H 0.7335 0.9806 0.54355 0.0
H295 H 0.73294 0.9429 0.53965 0.0
C296 C 0.72379 0.04032 0.49469 0.0
C297 C 0.70529 0.05117 0.50364 0.0
C298 C 0.72387 0.01872 0.49332 0.0
C299 C 0.70547 0.00757 0.50077 0.0
C300 C 0.68703 0.01845 0.51016 0.0
C301 C 0.68695 0.04 0.51157 0.0
C302 C 0.68897 0.95277 0.4695 0.0
C303 C 0.70459 0.9411 0.49399 0.0
C304 C 0.68935 0.9743 0.47154 0.0
C305 C 0.70535 0.98468 0.49814 0.0
C306 C 0.72107 0.97304 0.52233 0.0
C307 C 0.72069 0.95145 0.52033 0.0
H308 H 0.94017 0.72094 0.4465 0.0
H309 H 0.94086 0.65837 0.50626 0.0
H310 H 0.97773 0.72211 0.45181 0.0
H311 H 0.97838 0.65974 0.51286 0.0
H312 H 0.04652 0.66217 0.46687 0.0
H313 H 0.00905 0.66081 0.45846 0.0
H314 H 0.00475 0.72332 0.51772 0.0
H315 H 0.04225 0.72488 0.52483 0.0
C316 C 0.94833 0.70745 0.46091 0.0
C317 C 0.93754 0.68956 0.47599 0.0
C318 C 0.96985 0.70817 0.46426 0.0
C319 C 0.98105 0.69104 0.48293 0.0
C320 C 0.97025 0.67311 0.49767 0.0
C321 C 0.94872 0.67236 0.49415 0.0
C322 C 0.03759 0.67563 0.47808 0.0
C323 C 0.04736 0.69364 0.49648 0.0
C324 C 0.0161 0.67481 0.47351 0.0
C325 C 0.00391 0.69195 0.48743 0.0
C326 C 0.01371 0.70995 0.50591 0.0
C327 C 0.0352 0.7108 0.5103 0.0
H328 H 0.29044 0.04321 0.60823 0.0
H329 H 0.27767 0.04324 0.44016 0.0
H330 H 0.29192 0.00554 0.60727 0.0
H331 H 0.27933 0.00561 0.43928 0.0
H332 H 0.26218 0.93793 0.47186 0.0
H333 H 0.25974 0.97553 0.47417 0.0
H334 H 0.31493 0.97827 0.57012 0.0
H335 H 0.31733 0.94067 0.56826 0.0
C336 C 0.2879 0.03519 0.57113 0.0
C337 C 0.28396 0.04621 0.52426 0.0
C338 C 0.28888 0.01363 0.57055 0.0
C339 C 0.28578 0.00266 0.52319 0.0
C340 C 0.28158 0.01366 0.47647 0.0
C341 C 0.28074 0.03521 0.47696 0.0
C342 C 0.27379 0.94654 0.49348 0.0
C343 C 0.28996 0.93632 0.51986 0.0
C344 C 0.27243 0.96807 0.49458 0.0
C345 C 0.28713 0.97981 0.52234 0.0
C346 C 0.30325 0.9696 0.54889 0.0
C347 C 0.30469 0.94807 0.54753 0.0
H348 H 0.04865 0.25658 0.49862 0.0
H349 H 0.04998 0.31948 0.5562 0.0
H350 H 0.01101 0.25816 0.49347 0.0
H351 H 0.01245 0.32089 0.55196 0.0
H352 H 0.94847 0.3243 0.47713 0.0
H353 H 0.98588 0.32178 0.48377 0.0
H354 H 0.98011 0.26049 0.54982 0.0
H355 H 0.94256 0.26283 0.54231 0.0
C356 C 0.04092 0.27068 0.5105 0.0
C357 C 0.05231 0.28794 0.52756 0.0
C358 C 0.01936 0.27155 0.50781 0.0
C359 C 0.00877 0.28969 0.52207 0.0
C360 C 0.02017 0.30681 0.53988 0.0
C361 C 0.04169 0.30595 0.54257 0.0
C362 C 0.95514 0.31027 0.49308 0.0
C363 C 0.94253 0.29378 0.50925 0.0
C364 C 0.97659 0.30888 0.49717 0.0
C365 C 0.98595 0.29097 0.51754 0.0
C366 C 0.97336 0.27441 0.5335 0.0
C367 C 0.95185 0.27581 0.52946 0.0
H368 H 0.27275 0.35439 0.97574 0.0
H369 H 0.2547 0.3108 0.09684 0.0
H370 H 0.30372 0.33402 0.95798 0.0
H371 H 0.28536 0.29031 0.07839 0.0
H372 H 0.34842 0.26351 0.05974 0.0
H373 H 0.32285 0.28955 0.08336 0.0
H374 H 0.31069 0.30049 0.91746 0.0
H375 H 0.33656 0.27476 0.89375 0.0
C376 C 0.27546 0.34056 0.99885 0.0
C377 C 0.26119 0.33413 0.03747 0.0
C378 C 0.29315 0.32885 0.98849 0.0
C379 C 0.29696 0.31051 0.01661 0.0
C380 C 0.28304 0.3045 0.05646 0.0
C381 C 0.26536 0.31618 0.0668 0.0
C382 C 0.34053 0.27169 0.02826 0.0
C383 C 0.34435 0.2669 0.97484 0.0
C384 C 0.3258 0.28654 0.04184 0.0
C385 C 0.31456 0.29689 0.00233 0.0
C386 C 0.31918 0.2929 0.94888 0.0
C387 C 0.33395 0.27806 0.93527 0.0
H388 H 0.69913 0.35599 0.92944 0.0
H389 H 0.72651 0.33383 0.0749 0.0
H390 H 0.67055 0.33173 0.94071 0.0
H391 H 0.69825 0.30948 0.08557 0.0
H392 H 0.63864 0.27577 0.11056 0.0
H393 H 0.66123 0.30581 0.10235 0.0
H394 H 0.66744 0.29409 0.93465 0.0
H395 H 0.64467 0.26438 0.94256 0.0
C396 C 0.69897 0.34609 0.964 0.0
C397 C 0.71518 0.34671 0.00101 0.0
C398 C 0.68265 0.33215 0.97034 0.0
C399 C 0.68218 0.31864 0.01393 0.0
C400 C 0.698 0.31984 0.0519 0.0
C401 C 0.71432 0.3337 0.04551 0.0
C402 C 0.64458 0.27979 0.07182 0.0
C403 C 0.64005 0.26755 0.02733 0.0
C404 C 0.65759 0.29694 0.06718 0.0
C405 C 0.66625 0.30222 0.01794 0.0
C406 C 0.66088 0.29056 0.97305 0.0
C407 C 0.64793 0.27342 0.9777 0.0
H408 H 0.71672 0.65048 0.91175 0.0
H409 H 0.70081 0.63548 0.07348 0.0
H410 H 0.68854 0.67526 0.90853 0.0
H411 H 0.67226 0.66012 0.06984 0.0
H412 H 0.64808 0.72793 0.06299 0.0
H413 H 0.67043 0.69779 0.06714 0.0
H414 H 0.65116 0.68007 0.90968 0.0
H415 H 0.629 0.71055 0.90504 0.0
C416 C 0.70701 0.65224 0.9464 0.0
C417 C 0.71116 0.64117 0.99309 0.0
C418 C 0.69073 0.66635 0.94439 0.0
C419 C 0.67821 0.66973 0.98901 0.0
C420 C 0.68181 0.65804 0.03503 0.0
C421 C 0.69811 0.64387 0.03703 0.0
C422 C 0.6484 0.7175 0.02943 0.0
C423 C 0.63694 0.72178 0.98341 0.0
C424 C 0.66111 0.70011 0.032 0.0
C425 C 0.66266 0.68659 0.98862 0.0
C426 C 0.6505 0.69037 0.94348 0.0
C427 C 0.63774 0.70778 0.94092 0.0
H428 H 0.26575 0.65523 0.90953 0.0
H429 H 0.27132 0.63224 0.06953 0.0
H430 H 0.29536 0.67758 0.92381 0.0
H431 H 0.30152 0.65409 0.0833 0.0
H432 H 0.33057 0.71863 0.10991 0.0
H433 H 0.3069 0.69004 0.09588 0.0
H434 H 0.33139 0.68142 0.93811 0.0
H435 H 0.35458 0.71063 0.95157 0.0
C436 C 0.27359 0.65459 0.94741 0.0
C437 C 0.26601 0.64216 0.98862 0.0
C438 C 0.2907 0.66735 0.95554 0.0
C439 C 0.30076 0.66782 0.00493 0.0
C440 C 0.29389 0.65445 0.04514 0.0
C441 C 0.27665 0.64183 0.03715 0.0
C442 C 0.33112 0.71046 0.07248 0.0
C443 C 0.34426 0.71708 0.03161 0.0
C444 C 0.31761 0.69393 0.06451 0.0
C445 C 0.31708 0.68348 0.01564 0.0
C446 C 0.33108 0.68938 0.97583 0.0
C447 C 0.34446 0.70605 0.98365 0.0
H448 H 0.85472 0.76462 0.52596 0.0
H449 H 0.82334 0.76267 0.3749 0.0
H450 H 0.83434 0.79472 0.55124 0.0
H451 H 0.80267 0.79242 0.40065 0.0
H452 H 0.77517 0.85306 0.44659 0.0
H453 H 0.80232 0.82892 0.42121 0.0
H454 H 0.79858 0.80016 0.57532 0.0
H455 H 0.77182 0.82457 0.60113 0.0
C456 C 0.8436 0.77071 0.49794 0.0
C457 C 0.84051 0.76112 0.44858 0.0
C458 C 0.83186 0.78791 0.51257 0.0
C459 C 0.81676 0.79588 0.47819 0.0
C460 C 0.81432 0.78683 0.4279 0.0
C461 C 0.82609 0.76966 0.41323 0.0
C462 C 0.78037 0.8418 0.47536 0.0
C463 C 0.77116 0.84059 0.5257 0.0
C464 C 0.79586 0.82789 0.46068 0.0
C465 C 0.80245 0.81245 0.49598 0.0
C466 C 0.79401 0.81196 0.54728 0.0
C467 C 0.77856 0.82591 0.56202 0.0
H468 H 0.2169 0.85278 0.55552 0.0
H469 H 0.2204 0.82444 0.40077 0.0
H470 H 0.18677 0.83173 0.57636 0.0
H471 H 0.19071 0.80298 0.42215 0.0
H472 H 0.13089 0.7727 0.46164 0.0
H473 H 0.15437 0.80096 0.44053 0.0
H474 H 0.18162 0.79593 0.5963 0.0
H475 H 0.15781 0.76817 0.61788 0.0
C476 C 0.21114 0.84217 0.52579 0.0
C477 C 0.22117 0.84011 0.47669 0.0
C478 C 0.19393 0.83004 0.53784 0.0
C479 C 0.18643 0.81551 0.50118 0.0
C480 C 0.1959 0.81417 0.45114 0.0
C481 C 0.21304 0.82639 0.43897 0.0
C482 C 0.14165 0.77788 0.4917 0.0
C483 C 0.14264 0.76804 0.54126 0.0
C484 C 0.15519 0.794 0.47946 0.0
C485 C 0.17005 0.80056 0.51645 0.0
C486 C 0.17025 0.79143 0.567 0.0
C487 C 0.15665 0.7754 0.57931 0.0
H488 H 0.21953 0.13026 0.44458 0.0
H489 H 0.231 0.15648 0.59924 0.0
H490 H 0.18958 0.15269 0.43414 0.0
H491 H 0.2015 0.17937 0.58813 0.0
H492 H 0.14108 0.21198 0.56812 0.0
H493 H 0.16484 0.18318 0.58089 0.0
H494 H 0.18468 0.18869 0.41806 0.0
H495 H 0.16052 0.21697 0.40491 0.0
C496 C 0.21556 0.14069 0.47655 0.0
C497 C 0.22776 0.14173 0.52255 0.0
C498 C 0.19845 0.15364 0.47042 0.0
C499 C 0.19324 0.16802 0.50999 0.0
C500 C 0.2049 0.16835 0.55704 0.0
C501 C 0.22192 0.15529 0.56333 0.0
C502 C 0.1503 0.20683 0.53485 0.0
C503 C 0.14904 0.21689 0.48561 0.0
C504 C 0.16401 0.1904 0.54227 0.0
C505 C 0.17683 0.18371 0.50069 0.0
C506 C 0.17489 0.19323 0.45084 0.0
C507 C 0.1611 0.20957 0.44335 0.0
H508 H 0.86173 0.20583 0.59064 0.0
H509 H 0.84175 0.23307 0.44296 0.0
H510 H 0.83914 0.17625 0.5745 0.0
H511 H 0.819 0.20385 0.42751 0.0
H512 H 0.78792 0.14339 0.3955 0.0
H513 H 0.81681 0.1671 0.40867 0.0
H514 H 0.80188 0.17123 0.57511 0.0
H515 H 0.77339 0.14731 0.56229 0.0
C516 C 0.85268 0.20544 0.55457 0.0
C517 C 0.8534 0.2219 0.51836 0.0
C518 C 0.83968 0.18854 0.54544 0.0
C519 C 0.8272 0.18774 0.49985 0.0
C520 C 0.82858 0.20383 0.4627 0.0
C521 C 0.84152 0.22069 0.47182 0.0
C522 C 0.791 0.14913 0.43502 0.0
C523 C 0.77821 0.14364 0.47771 0.0
C524 C 0.80749 0.16278 0.44252 0.0
C525 C 0.81155 0.17118 0.49286 0.0
C526 C 0.79934 0.1649 0.53594 0.0
C527 C 0.78287 0.15128 0.52846 0.0
H528 H 0.13036 0.28671 0.35011 0.0
H529 H 0.13962 0.3465 0.42267 0.0
H530 H 0.14122 0.30072 0.26497 0.0
H531 H 0.15052 0.36049 0.33718 0.0
H532 H 0.19326 0.36767 0.18932 0.0
H533 H 0.18062 0.3555 0.27484 0.0
H534 H 0.12872 0.32644 0.19735 0.0
H535 H 0.14132 0.3386 0.11166 0.0
C536 C 0.13468 0.30285 0.34791 0.0
C537 C 0.13415 0.31549 0.39322 0.0
C538 C 0.14077 0.3109 0.29903 0.0
C539 C 0.14667 0.3317 0.29443 0.0
C540 C 0.14618 0.34435 0.33967 0.0
C541 C 0.13987 0.33636 0.38853 0.0
C542 C 0.17909 0.35879 0.19051 0.0
C543 C 0.16833 0.35404 0.14366 0.0
C544 C 0.1718 0.35192 0.23953 0.0
C545 C 0.15373 0.33998 0.24272 0.0
C546 C 0.14281 0.33546 0.19599 0.0
C547 C 0.14997 0.34252 0.14699 0.0
H548 H 0.64784 0.14401 0.40587 0.0
H549 H 0.70556 0.12791 0.33032 0.0
H550 H 0.63392 0.15494 0.32039 0.0
H551 H 0.69156 0.13879 0.24498 0.0
H552 H 0.65026 0.13924 0.09548 0.0
H553 H 0.66343 0.12749 0.1811 0.0
H554 H 0.64114 0.18351 0.25433 0.0
H555 H 0.62802 0.19532 0.16894 0.0
C556 C 0.65754 0.14277 0.37107 0.0
C557 C 0.67781 0.13512 0.3749 0.0
C558 C 0.64959 0.14911 0.32221 0.0
C559 C 0.66166 0.14769 0.27608 0.0
C560 C 0.68185 0.13987 0.27981 0.0
C561 C 0.6899 0.13377 0.32874 0.0
C562 C 0.64812 0.14901 0.12987 0.0
C563 C 0.63813 0.16822 0.12541 0.0
C564 C 0.65575 0.14233 0.17878 0.0
C565 C 0.65331 0.1546 0.22431 0.0
C566 C 0.64309 0.17366 0.21998 0.0
C567 C 0.63568 0.18046 0.17101 0.0
H568 H 0.83766 0.63608 0.36874 0.0
H569 H 0.86166 0.69081 0.29252 0.0
H570 H 0.825 0.62358 0.2833 0.0
H571 H 0.84908 0.67823 0.20724 0.0
H572 H 0.84237 0.63727 0.05807 0.0
H573 H 0.85617 0.64851 0.14355 0.0
H574 H 0.79755 0.63507 0.21743 0.0
H575 H 0.78369 0.62391 0.13217 0.0
C576 C 0.84031 0.64539 0.33378 0.0
C577 C 0.85063 0.66445 0.33742 0.0
C578 C 0.83298 0.63828 0.28495 0.0
C579 C 0.83607 0.64994 0.23869 0.0
C580 C 0.84665 0.66884 0.2422 0.0
C581 C 0.85374 0.67608 0.29108 0.0
C582 C 0.83245 0.63665 0.09258 0.0
C583 C 0.81193 0.62975 0.08834 0.0
C584 C 0.84032 0.64318 0.14141 0.0
C585 C 0.82792 0.64265 0.18707 0.0
C586 C 0.8075 0.63547 0.18297 0.0
C587 C 0.79955 0.62921 0.13408 0.0
H588 H 0.29008 0.85794 0.32926 0.0
H589 H 0.34989 0.84558 0.39858 0.0
H590 H 0.30269 0.84588 0.2436 0.0
H591 H 0.36244 0.83345 0.31268 0.0
H592 H 0.36607 0.78952 0.1669 0.0
H593 H 0.3547 0.80311 0.25219 0.0
H594 H 0.32889 0.85651 0.174 0.0
H595 H 0.34031 0.84299 0.08842 0.0
C596 C 0.30593 0.85268 0.32622 0.0
C597 C 0.31898 0.85268 0.37076 0.0
C598 C 0.31317 0.8459 0.27707 0.0
C599 C 0.33353 0.83874 0.2715 0.0
C600 C 0.34662 0.83876 0.31596 0.0
C601 C 0.33945 0.84578 0.36504 0.0
C602 C 0.35801 0.80419 0.16783 0.0
C603 C 0.35406 0.81517 0.12085 0.0
C604 C 0.35162 0.81202 0.21674 0.0
C605 C 0.34093 0.83086 0.2197 0.0
C606 C 0.33698 0.84187 0.1728 0.0
C607 C 0.3436 0.83417 0.12388 0.0
H608 H 0.14281 0.64254 0.61515 0.0
H609 H 0.12309 0.69973 0.68781 0.0
H610 H 0.15429 0.62991 0.70135 0.0
H611 H 0.13478 0.68718 0.77367 0.0
H612 H 0.1394 0.64962 0.92675 0.0
H613 H 0.12636 0.66081 0.84068 0.0
H614 H 0.18179 0.6378 0.76583 0.0
H615 H 0.19474 0.6264 0.85156 0.0
C616 C 0.1409 0.65241 0.64946 0.0
C617 C 0.13205 0.67214 0.64457 0.0
C618 C 0.14757 0.64521 0.69879 0.0
C619 C 0.14546 0.65756 0.7443 0.0
C620 C 0.1364 0.6772 0.73947 0.0
C621 C 0.12982 0.68443 0.69017 0.0
C622 C 0.14877 0.64689 0.89192 0.0
C623 C 0.16811 0.63714 0.89605 0.0
C624 C 0.14135 0.65339 0.84266 0.0
C625 C 0.15306 0.65019 0.79647 0.0
C626 C 0.1723 0.64026 0.80058 0.0
C627 C 0.17976 0.63385 0.8498 0.0
H628 H 0.31819 0.11445 0.63109 0.0
H629 H 0.32159 0.17683 0.57071 0.0
H630 H 0.3354 0.12544 0.71211 0.0
H631 H 0.33918 0.18773 0.65145 0.0
H632 H 0.34532 0.20355 0.82831 0.0
H633 H 0.33051 0.19269 0.74424 0.0
H634 H 0.36834 0.13768 0.7469 0.0
H635 H 0.38292 0.14836 0.83179 0.0
C636 C 0.32277 0.13048 0.63487 0.0
C637 C 0.31842 0.14479 0.59451 0.0
C638 C 0.33276 0.13674 0.68123 0.0
C639 C 0.33863 0.15747 0.68831 0.0
C640 C 0.33461 0.17171 0.64752 0.0
C641 C 0.32462 0.16544 0.60113 0.0
C642 C 0.35055 0.18916 0.81096 0.0
C643 C 0.36526 0.17678 0.8369 0.0
C644 C 0.34215 0.18301 0.76252 0.0
C645 C 0.34825 0.16433 0.73881 0.0
C646 C 0.36314 0.15205 0.76444 0.0
C647 C 0.37156 0.15821 0.81296 0.0
H648 H 0.84509 0.3783 0.89011 0.0
H649 H 0.78926 0.34353 0.86039 0.0
H650 H 0.85987 0.36515 0.80781 0.0
H651 H 0.8039 0.3307 0.77787 0.0
H652 H 0.84534 0.29414 0.66517 0.0
H653 H 0.83101 0.30743 0.7476 0.0
H654 H 0.85544 0.36793 0.71171 0.0
H655 H 0.87011 0.35456 0.62954 0.0
C656 C 0.83594 0.36791 0.86599 0.0
C657 C 0.81601 0.36194 0.88192 0.0
C658 C 0.84437 0.36047 0.81866 0.0
C659 C 0.83307 0.34686 0.7863 0.0
C660 C 0.81313 0.34094 0.80223 0.0
C661 C 0.80469 0.34839 0.84944 0.0
C662 C 0.84767 0.31028 0.67479 0.0
C663 C 0.85887 0.32328 0.64071 0.0
C664 C 0.83935 0.31793 0.72195 0.0
C665 C 0.84205 0.33875 0.73621 0.0
C666 C 0.85329 0.35175 0.70218 0.0
C667 C 0.86159 0.34411 0.65493 0.0
H668 H 0.64399 0.79435 0.85291 0.0
H669 H 0.6267 0.85605 0.9013 0.0
H670 H 0.65796 0.80805 0.77063 0.0
H671 H 0.64108 0.8698 0.81925 0.0
H672 H 0.64895 0.88369 0.64203 0.0
H673 H 0.63448 0.87003 0.72404 0.0
H674 H 0.68667 0.82883 0.73939 0.0
H675 H 0.70094 0.84217 0.657 0.0
C676 C 0.64324 0.81086 0.84613 0.0
C677 C 0.63422 0.82411 0.88373 0.0
C678 C 0.65137 0.81873 0.79903 0.0
C679 C 0.65067 0.84003 0.78837 0.0
C680 C 0.64163 0.85328 0.82596 0.0
C681 C 0.6335 0.84541 0.87313 0.0
C682 C 0.65732 0.87169 0.66284 0.0
C683 C 0.67608 0.864 0.64289 0.0
C684 C 0.64909 0.86395 0.71004 0.0
C685 C 0.65942 0.84834 0.73829 0.0
C686 C 0.67818 0.84066 0.71825 0.0
C687 C 0.68641 0.84838 0.67112 0.0
H688 H 0.80758 0.66918 0.56146 0.0
H689 H 0.86847 0.68058 0.62551 0.0
H690 H 0.79619 0.65658 0.64791 0.0
H691 H 0.85694 0.66817 0.71197 0.0
H692 H 0.81675 0.67197 0.86704 0.0
H693 H 0.83047 0.68179 0.78039 0.0
H694 H 0.80439 0.62653 0.71179 0.0
H695 H 0.79083 0.61656 0.79831 0.0
C696 C 0.81855 0.66888 0.59386 0.0
C697 C 0.8389 0.6759 0.58671 0.0
C698 C 0.81206 0.6616 0.64322 0.0
C699 C 0.82569 0.66149 0.68653 0.0
C700 C 0.8461 0.66825 0.67927 0.0
C701 C 0.8527 0.67523 0.62972 0.0
C702 C 0.81409 0.66185 0.83356 0.0
C703 C 0.80268 0.64353 0.83948 0.0
C704 C 0.82201 0.66742 0.78409 0.0
C705 C 0.81841 0.65493 0.73949 0.0
C706 C 0.80724 0.63649 0.7455 0.0
C707 C 0.79959 0.63076 0.79508 0.0
H708 H 0.32203 0.80854 0.59039 0.0
H709 H 0.29907 0.86458 0.66263 0.0
H710 H 0.33458 0.79686 0.67674 0.0
H711 H 0.31145 0.85276 0.74877 0.0
H712 H 0.31168 0.80921 0.89662 0.0
H713 H 0.30123 0.8227 0.81027 0.0
H714 H 0.36142 0.80798 0.74702 0.0
H715 H 0.37201 0.79465 0.83342 0.0
C716 C 0.31976 0.8184 0.62458 0.0
C717 C 0.30952 0.83745 0.61971 0.0
C718 C 0.32701 0.81175 0.6739 0.0
C719 C 0.32388 0.82389 0.71936 0.0
C720 C 0.31389 0.84304 0.71439 0.0
C721 C 0.30692 0.84983 0.66502 0.0
C722 C 0.32271 0.80894 0.86438 0.0
C723 C 0.34265 0.80086 0.87181 0.0
C724 C 0.31676 0.81675 0.81508 0.0
C725 C 0.33052 0.81634 0.77206 0.0
C726 C 0.35048 0.80834 0.77948 0.0
C727 C 0.35655 0.80083 0.82899 0.0
H728 H 0.12199 0.29184 0.68325 0.0
H729 H 0.17663 0.31875 0.61314 0.0
H730 H 0.13243 0.305 0.76984 0.0
H731 H 0.18693 0.33205 0.69991 0.0
H732 H 0.18609 0.36956 0.85575 0.0
H733 H 0.17361 0.35806 0.76929 0.0
H734 H 0.16263 0.29713 0.83277 0.0
H735 H 0.17526 0.30851 0.91921 0.0
C736 C 0.13614 0.30069 0.68622 0.0
C737 C 0.14853 0.30421 0.64137 0.0
C738 C 0.14214 0.30812 0.73584 0.0
C739 C 0.16048 0.31949 0.74149 0.0
C740 C 0.17263 0.32344 0.69652 0.0
C741 C 0.16679 0.31575 0.64697 0.0
C742 C 0.18087 0.35375 0.8514 0.0
C743 C 0.1817 0.33991 0.89428 0.0
C744 C 0.17385 0.34716 0.80184 0.0
C745 C 0.16722 0.32671 0.79441 0.0
C746 C 0.16753 0.31302 0.83756 0.0
C747 C 0.17484 0.31952 0.88694 0.0
H748 H 0.62147 0.18601 0.8352 0.0
H749 H 0.68046 0.16967 0.9037 0.0
H750 H 0.63339 0.1739 0.7488 0.0
H751 H 0.69223 0.15734 0.81723 0.0
H752 H 0.69647 0.11863 0.66354 0.0
H753 H 0.6826 0.12857 0.74984 0.0
H754 H 0.66197 0.18661 0.68437 0.0
H755 H 0.67605 0.17684 0.59802 0.0
C756 C 0.63689 0.17964 0.83195 0.0
C757 C 0.65006 0.17883 0.87622 0.0
C758 C 0.64372 0.17282 0.78246 0.0
C759 C 0.66372 0.16475 0.77646 0.0
C760 C 0.67669 0.16339 0.82095 0.0
C761 C 0.66999 0.17052 0.8703 0.0
C762 C 0.68886 0.13345 0.66742 0.0
C763 C 0.6874 0.14699 0.62403 0.0
C764 C 0.68103 0.13916 0.71686 0.0
C765 C 0.67128 0.15835 0.72365 0.0
C766 C 0.66932 0.17167 0.68002 0.0
C767 C 0.67745 0.16611 0.63074 0.0
H768 H 0.81713 0.32777 0.41346 0.0
H769 H 0.87705 0.31067 0.35176 0.0
H770 H 0.80711 0.34042 0.3262 0.0
H771 H 0.867 0.32344 0.26456 0.0
H772 H 0.82803 0.32026 0.10864 0.0
H773 H 0.84176 0.3117 0.19594 0.0
H774 H 0.81525 0.36766 0.2597 0.0
H775 H 0.8014 0.37622 0.17264 0.0
C776 C 0.82825 0.32693 0.38147 0.0
C777 C 0.84783 0.3181 0.38948 0.0
C778 C 0.82254 0.33427 0.33154 0.0
C779 C 0.83625 0.33282 0.28852 0.0
C780 C 0.85605 0.32454 0.29687 0.0
C781 C 0.86182 0.31734 0.34689 0.0
C782 C 0.82531 0.33085 0.14113 0.0
C783 C 0.81349 0.34883 0.13375 0.0
C784 C 0.83327 0.326 0.19107 0.0
C785 C 0.82947 0.33897 0.23468 0.0
C786 C 0.8182 0.35726 0.22694 0.0
C787 C 0.81037 0.36219 0.17698 0.0
H788 H 0.67843 0.81893 0.11167 0.0
H789 H 0.61609 0.81034 0.16904 0.0
H790 H 0.68874 0.83197 0.19835 0.0
H791 H 0.62643 0.82354 0.25564 0.0
H792 H 0.66146 0.82182 0.41691 0.0
H793 H 0.64893 0.81146 0.32961 0.0
H794 H 0.68282 0.86174 0.25834 0.0
H795 H 0.69547 0.87204 0.3453 0.0
C796 C 0.66688 0.81999 0.1426 0.0
C797 C 0.64647 0.81353 0.1335 0.0
C798 C 0.67277 0.82755 0.19219 0.0
C799 C 0.6584 0.82872 0.23381 0.0
C800 C 0.63789 0.8226 0.22447 0.0
C801 C 0.63197 0.81516 0.17477 0.0
C802 C 0.66612 0.83075 0.38267 0.0
C803 C 0.67956 0.84767 0.38805 0.0
C804 C 0.65886 0.82488 0.33271 0.0
C805 C 0.66499 0.83574 0.28713 0.0
C806 C 0.67805 0.85292 0.29268 0.0
C807 C 0.68521 0.85886 0.34257 0.0
H808 H 0.17961 0.70131 0.40509 0.0
H809 H 0.11983 0.67452 0.37159 0.0
H810 H 0.19267 0.68803 0.32122 0.0
H811 H 0.13283 0.66158 0.28725 0.0
H812 H 0.17029 0.62394 0.16606 0.0
H813 H 0.15697 0.63634 0.25059 0.0
H814 H 0.18808 0.69465 0.22671 0.0
H815 H 0.20172 0.68215 0.14265 0.0
C816 C 0.16926 0.69255 0.37991 0.0
C817 C 0.14867 0.68901 0.39499 0.0
C818 C 0.17671 0.68508 0.33164 0.0
C819 C 0.16375 0.67388 0.2974 0.0
C820 C 0.14326 0.67001 0.31293 0.0
C821 C 0.13579 0.6775 0.3612 0.0
C822 C 0.17423 0.63944 0.17873 0.0
C823 C 0.18712 0.65204 0.14768 0.0
C824 C 0.16652 0.64657 0.22709 0.0
C825 C 0.17155 0.66644 0.24549 0.0
C826 C 0.18419 0.67914 0.21405 0.0
C827 C 0.19188 0.67202 0.16567 0.0
H828 H 0.27804 0.16866 0.32937 0.0
H829 H 0.32014 0.1168 0.33024 0.0
H830 H 0.29171 0.17956 0.24417 0.0
H831 H 0.33361 0.12758 0.24422 0.0
H832 H 0.36817 0.16996 0.12451 0.0
H833 H 0.35415 0.15578 0.20637 0.0
H834 H 0.29226 0.16884 0.15158 0.0
H835 H 0.30626 0.18337 0.07015 0.0
C836 C 0.29016 0.15952 0.31129 0.0
C837 C 0.29802 0.14187 0.33666 0.0
C838 C 0.29788 0.16568 0.2622 0.0
C839 C 0.31365 0.15436 0.23727 0.0
C840 C 0.32156 0.13671 0.26262 0.0
C841 C 0.31379 0.13051 0.31179 0.0
C842 C 0.35156 0.16961 0.12968 0.0
C843 C 0.33834 0.17797 0.09102 0.0
C844 C 0.34353 0.1614 0.17651 0.0
C845 C 0.32211 0.16137 0.18567 0.0
C846 C 0.30886 0.16899 0.14609 0.0
C847 C 0.31688 0.17719 0.09928 0.0
loop_
_geom_bond_atom_site_label_1
_geom_bond_atom_site_label_2
_geom_bond_distance
_geom_bond_site_symmetry_2
_ccdc_geom_bond_type
C0 O1 1.160 . S
C0 O7 1.185 1_554 S
O1 C0 1.160 . S
O2 Zn3 1.899 . S
O2 C10 1.284 . S
Zn3 O2 1.899 . S
Zn3 O4 2.032 1_554 S
Zn3 O7 2.086 1_554 S
Zn3 O12 1.977 1_554 S
O4 Zn3 2.032 1_556 S
O4 C8 1.278 . S
C5 O6 1.203 . S
C5 O12 1.267 1_554 S
O6 C5 1.203 . S
O7 C0 1.185 1_556 S
O7 Zn3 2.086 1_556 S
C8 O4 1.278 . S
C8 O9 1.211 . S
O9 C8 1.211 . S
C10 O2 1.284 . S
C10 O11 1.273 . S
O11 C10 1.273 . S
O12 Zn3 1.977 1_556 S
O12 C5 1.267 1_556 S
C13 O14 1.160 . S
C13 O20 1.185 1_554 S
O14 C13 1.160 . S
O15 Zn16 1.899 . S
O15 C23 1.284 . S
Zn16 O15 1.899 . S
Zn16 O17 2.032 1_554 S
Zn16 O20 2.086 1_554 S
Zn16 O25 1.977 1_554 S
O17 Zn16 2.032 1_556 S
O17 C21 1.278 . S
C18 O19 1.203 . S
C18 O25 1.267 1_554 S
O19 C18 1.203 . S
O20 C13 1.185 1_556 S
O20 Zn16 2.086 1_556 S
C21 O17 1.278 . S
C21 O22 1.211 . S
O22 C21 1.211 . S
C23 O15 1.284 . S
C23 O24 1.273 . S
O24 C23 1.273 . S
O25 Zn16 1.977 1_556 S
O25 C18 1.267 1_556 S
C26 O27 1.160 . S
C26 O33 1.185 1_554 S
O27 C26 1.160 . S
O28 Zn29 1.899 . S
O28 C36 1.284 . S
Zn29 O28 1.899 . S
Zn29 O30 2.032 1_554 S
Zn29 O33 2.086 1_554 S
Zn29 O38 1.977 1_554 S
O30 Zn29 2.032 1_556 S
O30 C34 1.278 . S
C31 O32 1.203 . S
C31 O38 1.267 1_554 S
O32 C31 1.203 . S
O33 C26 1.185 1_556 S
O33 Zn29 2.086 1_556 S
C34 O30 1.278 . S
C34 O35 1.211 . S
O35 C34 1.211 . S
C36 O28 1.284 . S
C36 O37 1.273 . S
O37 C36 1.273 . S
O38 Zn29 1.977 1_556 S
O38 C31 1.267 1_556 S
C39 O40 1.160 . S
C39 O46 1.185 1_554 S
O40 C39 1.160 . S
O41 Zn42 1.899 . S
O41 C49 1.284 . S
Zn42 O41 1.899 . S
Zn42 O43 2.032 1_554 S
Zn42 O46 2.086 1_554 S
Zn42 O51 1.977 1_554 S
O43 Zn42 2.032 1_556 S
O43 C47 1.278 . S
C44 O45 1.203 . S
C44 O51 1.267 1_554 S
O45 C44 1.203 . S
O46 C39 1.185 1_556 S
O46 Zn42 2.086 1_556 S
C47 O43 1.278 . S
C47 O48 1.211 . S
O48 C47 1.211 . S
C49 O41 1.284 . S
C49 O50 1.273 . S
O50 C49 1.273 . S
O51 Zn42 1.977 1_556 S
O51 C44 1.267 1_556 S
C52 O53 1.160 . S
C52 O59 1.185 1_556 S
O53 C52 1.160 . S
O54 Zn55 1.899 . S
O54 C62 1.284 . S
Zn55 O54 1.899 . S
Zn55 O56 2.032 1_556 S
Zn55 O59 2.086 1_556 S
Zn55 O64 1.977 1_556 S
O56 Zn55 2.032 1_554 S
O56 C60 1.278 . S
C57 O58 1.203 . S
C57 O64 1.267 1_556 S
O58 C57 1.203 . S
O59 C52 1.185 1_554 S
O59 Zn55 2.086 1_554 S
C60 O56 1.278 . S
C60 O61 1.211 . S
O61 C60 1.211 . S
C62 O54 1.284 . S
C62 O63 1.273 . S
O63 C62 1.273 . S
O64 Zn55 1.977 1_554 S
O64 C57 1.267 1_554 S
C65 O66 1.160 . S
C65 O72 1.185 1_556 S
O66 C65 1.160 . S
O67 Zn68 1.899 . S
O67 C75 1.284 . S
Zn68 O67 1.899 . S
Zn68 O69 2.032 1_556 S
Zn68 O72 2.086 1_556 S
Zn68 O77 1.977 1_556 S
O69 Zn68 2.032 1_554 S
O69 C73 1.278 . S
C70 O71 1.203 . S
C70 O77 1.267 1_556 S
O71 C70 1.203 . S
O72 C65 1.185 1_554 S
O72 Zn68 2.086 1_554 S
C73 O69 1.278 . S
C73 O74 1.211 . S
O74 C73 1.211 . S
C75 O67 1.284 . S
C75 O76 1.273 . S
O76 C75 1.273 . S
O77 Zn68 1.977 1_554 S
O77 C70 1.267 1_554 S
C78 O79 1.160 . S
C78 O85 1.185 1_556 S
O79 C78 1.160 . S
O80 Zn81 1.899 . S
O80 C88 1.284 . S
Zn81 O80 1.899 . S
Zn81 O82 2.032 1_556 S
Zn81 O85 2.086 1_556 S
Zn81 O90 1.977 1_556 S
O82 Zn81 2.032 1_554 S
O82 C86 1.278 . S
C83 O84 1.203 . S
C83 O90 1.267 1_556 S
O84 C83 1.203 . S
O85 C78 1.185 1_554 S
O85 Zn81 2.086 1_554 S
C86 O82 1.278 . S
C86 O87 1.211 . S
O87 C86 1.211 . S
C88 O80 1.284 . S
C88 O89 1.273 . S
O89 C88 1.273 . S
O90 Zn81 1.977 1_554 S
O90 C83 1.267 1_554 S
C91 O92 1.160 . S
C91 O98 1.185 1_556 S
O92 C91 1.160 . S
O93 Zn94 1.899 . S
O93 C101 1.284 . S
Zn94 O93 1.899 . S
Zn94 O95 2.032 1_556 S
Zn94 O98 2.086 1_556 S
Zn94 O103 1.977 1_556 S
O95 Zn94 2.032 1_554 S
O95 C99 1.278 . S
C96 O97 1.203 . S
C96 O103 1.267 1_556 S
O97 C96 1.203 . S
O98 C91 1.185 1_554 S
O98 Zn94 2.086 1_554 S
C99 O95 1.278 . S
C99 O100 1.211 . S
O100 C99 1.211 . S
C101 O93 1.284 . S
C101 O102 1.273 . S
O102 C101 1.273 . S
O103 Zn94 1.977 1_554 S
O103 C96 1.267 1_554 S
C104 O105 1.160 . S
C104 O111 1.185 . S
O105 C104 1.160 . S
O106 Zn107 1.899 . S
O106 C114 1.284 . S
Zn107 O106 1.899 . S
Zn107 O108 2.032 . S
Zn107 O111 2.086 . S
Zn107 O116 1.977 . S
O108 Zn107 2.032 . S
O108 C112 1.278 . S
C109 O110 1.203 . S
C109 O116 1.267 . S
O110 C109 1.203 . S
O111 C104 1.185 . S
O111 Zn107 2.086 . S
C112 O108 1.278 . S
C112 O113 1.211 . S
O113 C112 1.211 . S
C114 O106 1.284 . S
C114 O115 1.273 . S
O115 C114 1.273 . S
O116 Zn107 1.977 . S
O116 C109 1.267 . S
C117 O118 1.160 . S
C117 O124 1.185 . S
O118 C117 1.160 . S
O119 Zn120 1.899 . S
O119 C127 1.284 . S
Zn120 O119 1.899 . S
Zn120 O121 2.032 . S
Zn120 O124 2.086 . S
Zn120 O129 1.977 . S
O121 Zn120 2.032 . S
O121 C125 1.278 . S
C122 O123 1.203 . S
C122 O129 1.267 . S
O123 C122 1.203 . S
O124 C117 1.185 . S
O124 Zn120 2.086 . S
C125 O121 1.278 . S
C125 O126 1.211 . S
O126 C125 1.211 . S
C127 O119 1.284 . S
C127 O128 1.273 . S
O128 C127 1.273 . S
O129 Zn120 1.977 . S
O129 C122 1.267 . S
C130 O131 1.160 . S
C130 O137 1.185 . S
O131 C130 1.160 . S
O132 Zn133 1.899 . S
O132 C140 1.284 . S
Zn133 O132 1.899 . S
Zn133 O134 2.032 . S
Zn133 O137 2.086 . S
Zn133 O142 1.977 . S
O134 Zn133 2.032 . S
O134 C138 1.278 . S
C135 O136 1.203 . S
C135 O142 1.267 . S
O136 C135 1.203 . S
O137 C130 1.185 . S
O137 Zn133 2.086 . S
C138 O134 1.278 . S
C138 O139 1.211 . S
O139 C138 1.211 . S
C140 O132 1.284 . S
C140 O141 1.273 . S
O141 C140 1.273 . S
O142 Zn133 1.977 . S
O142 C135 1.267 . S
C143 O144 1.160 . S
C143 O150 1.185 . S
O144 C143 1.160 . S
O145 Zn146 1.899 . S
O145 C153 1.284 . S
Zn146 O145 1.899 . S
Zn146 O147 2.032 . S
Zn146 O150 2.086 . S
Zn146 O155 1.977 . S
O147 Zn146 2.032 . S
O147 C151 1.278 . S
C148 O149 1.203 . S
C148 O155 1.267 . S
O149 C148 1.203 . S
O150 C143 1.185 . S
O150 Zn146 2.086 . S
C151 O147 1.278 . S
C151 O152 1.211 . S
O152 C151 1.211 . S
C153 O145 1.284 . S
C153 O154 1.273 . S
O154 C153 1.273 . S
O155 Zn146 1.977 . S
O155 C148 1.267 . S
C156 O157 1.160 . S
C156 O163 1.185 . S
O157 C156 1.160 . S
O158 Zn159 1.899 . S
O158 C166 1.284 . S
Zn159 O158 1.899 . S
Zn159 O160 2.032 . S
Zn159 O163 2.086 . S
Zn159 O168 1.977 . S
O160 Zn159 2.032 . S
O160 C164 1.278 . S
C161 O162 1.203 . S
C161 O168 1.267 . S
O162 C161 1.203 . S
O163 C156 1.185 . S
O163 Zn159 2.086 . S
C164 O160 1.278 . S
C164 O165 1.211 . S
O165 C164 1.211 . S
C166 O158 1.284 . S
C166 O167 1.273 . S
O167 C166 1.273 . S
O168 Zn159 1.977 . S
O168 C161 1.267 . S
C169 O170 1.160 . S
C169 O176 1.185 . S
O170 C169 1.160 . S
O171 Zn172 1.899 . S
O171 C179 1.284 . S
Zn172 O171 1.899 . S
Zn172 O173 2.032 . S
Zn172 O176 2.086 . S
Zn172 O181 1.977 . S
O173 Zn172 2.032 . S
O173 C177 1.278 . S
C174 O175 1.203 . S
C174 O181 1.267 . S
O175 C174 1.203 . S
O176 C169 1.185 . S
O176 Zn172 2.086 . S
C177 O173 1.278 . S
C177 O178 1.211 . S
O178 C177 1.211 . S
C179 O171 1.284 . S
C179 O180 1.273 . S
O180 C179 1.273 . S
O181 Zn172 1.977 . S
O181 C174 1.267 . S
C182 O183 1.160 . S
C182 O189 1.185 . S
O183 C182 1.160 . S
O184 Zn185 1.899 . S
O184 C192 1.284 . S
Zn185 O184 1.899 . S
Zn185 O186 2.032 . S
Zn185 O189 2.086 . S
Zn185 O194 1.977 . S
O186 Zn185 2.032 . S
O186 C190 1.278 . S
C187 O188 1.203 . S
C187 O194 1.267 . S
O188 C187 1.203 . S
O189 C182 1.185 . S
O189 Zn185 2.086 . S
C190 O186 1.278 . S
C190 O191 1.211 . S
O191 C190 1.211 . S
C192 O184 1.284 . S
C192 O193 1.273 . S
O193 C192 1.273 . S
O194 Zn185 1.977 . S
O194 C187 1.267 . S
C195 O196 1.160 . S
C195 O202 1.185 . S
O196 C195 1.160 . S
O197 Zn198 1.899 . S
O197 C205 1.284 . S
Zn198 O197 1.899 . S
Zn198 O199 2.032 . S
Zn198 O202 2.086 . S
Zn198 O207 1.977 . S
O199 Zn198 2.032 . S
O199 C203 1.278 . S
C200 O201 1.203 . S
C200 O207 1.267 . S
O201 C200 1.203 . S
O202 C195 1.185 . S
O202 Zn198 2.086 . S
C203 O199 1.278 . S
C203 O204 1.211 . S
O204 C203 1.211 . S
C205 O197 1.284 . S
C205 O206 1.273 . S
O206 C205 1.273 . S
O207 Zn198 1.977 . S
O207 C200 1.267 . S
H208 C216 0.950 . S
H209 C221 0.950 . S
H210 C218 0.950 . S
H211 C220 0.950 . S
H212 C222 0.950 . S
H213 C224 0.950 . S
H214 C226 0.950 . S
H215 C227 0.950 . S
C216 H208 0.950 . S
C216 C217 1.386 1_556 S
C216 C218 1.391 . S
C217 C216 1.386 1_554 S
C217 C221 1.393 . S
C218 H210 0.950 . S
C218 C216 1.391 . S
C218 C219 1.400 1_556 S
C219 C218 1.400 1_554 S
C219 C220 1.398 . S
C219 C225 1.491 . S
C220 H211 0.950 . S
C220 C219 1.398 . S
C220 C221 1.391 . S
C221 H209 0.950 . S
C221 C217 1.393 . S
C221 C220 1.391 . S
C222 H212 0.950 . S
C222 C223 1.386 1_554 S
C222 C224 1.391 . S
C223 C222 1.386 1_556 S
C223 C227 1.393 . S
C224 H213 0.950 . S
C224 C222 1.391 . S
C224 C225 1.415 . S
C225 C219 1.491 . S
C225 C224 1.415 . S
C225 C226 1.383 1_554 S
C226 H214 0.950 . S
C226 C225 1.383 1_556 S
C226 C227 1.391 . S
C227 H215 0.950 . S
C227 C223 1.393 . S
C227 C226 1.391 . S
H228 C236 0.950 . S
H229 C241 0.950 . S
H230 C238 0.950 . S
H231 C240 0.950 . S
H232 C242 0.950 . S
H233 C244 0.950 . S
H234 C246 0.950 . S
H235 C247 0.950 . S
C236 H228 0.950 . S
C236 C237 1.386 . S
C236 C238 1.391 . S
C237 C236 1.386 . S
C237 C241 1.393 1_554 S
C238 H230 0.950 . S
C238 C236 1.391 . S
C238 C239 1.400 . S
C239 C238 1.400 . S
C239 C240 1.398 1_554 S
C239 C245 1.491 . S
C240 H231 0.950 . S
C240 C239 1.398 1_556 S
C240 C241 1.391 . S
C241 H229 0.950 . S
C241 C237 1.393 1_556 S
C241 C240 1.391 . S
C242 H232 0.950 . S
C242 C243 1.386 . S
C242 C244 1.391 . S
C243 C242 1.386 . S
C243 C247 1.393 1_556 S
C244 H233 0.950 . S
C244 C242 1.391 . S
C244 C245 1.400 1_556 S
C245 C239 1.491 . S
C245 C244 1.400 1_554 S
C245 C246 1.398 . S
C246 H234 0.950 . S
C246 C245 1.398 . S
C246 C247 1.391 . S
C247 H235 0.950 . S
C247 C243 1.393 1_554 S
C247 C246 1.391 . S
H248 C256 0.950 . S
H249 C261 0.950 . S
H250 C258 0.950 . S
H251 C260 0.950 . S
H252 C262 0.950 . S
H253 C264 0.950 . S
H254 C266 0.950 . S
H255 C267 0.950 . S
C256 H248 0.950 . S
C256 C257 1.386 1_556 S
C256 C258 1.391 . S
C257 C256 1.386 1_554 S
C257 C261 1.393 . S
C258 H250 0.950 . S
C258 C256 1.391 . S
C258 C259 1.400 1_556 S
C259 C258 1.400 1_554 S
C259 C260 1.398 . S
C259 C265 1.491 . S
C260 H251 0.950 . S
C260 C259 1.398 . S
C260 C261 1.391 . S
C261 H249 0.950 . S
C261 C257 1.393 . S
C261 C260 1.391 . S
C262 H252 0.950 . S
C262 C263 1.386 1_554 S
C262 C264 1.391 . S
C263 C262 1.386 1_556 S
C263 C267 1.393 . S
C264 H253 0.950 . S
C264 C262 1.391 . S
C264 C265 1.416 . S
C265 C259 1.491 . S
C265 C264 1.416 . S
C265 C266 1.381 1_554 S
C266 H254 0.950 . S
C266 C265 1.381 1_556 S
C266 C267 1.391 . S
C267 H255 0.950 . S
C267 C263 1.393 . S
C267 C266 1.391 . S
H268 C276 0.950 . S
H269 C281 0.950 . S
H270 C278 0.950 . S
H271 C280 0.950 . S
H272 C282 0.950 . S
H273 C284 0.950 . S
H274 C286 0.950 . S
H275 C287 0.950 . S
C276 H268 0.950 . S
C276 C277 1.386 . S
C276 C278 1.391 . S
C277 C276 1.386 . S
C277 C281 1.393 1_554 S
C278 H270 0.950 . S
C278 C276 1.391 . S
C278 C279 1.400 . S
C279 C278 1.400 . S
C279 C280 1.398 1_554 S
C279 C285 1.491 . S
C280 H271 0.950 . S
C280 C279 1.398 1_556 S
C280 C281 1.391 . S
C281 H269 0.950 . S
C281 C277 1.393 1_556 S
C281 C280 1.391 . S
C282 H272 0.950 . S
C282 C283 1.390 . S
C282 C284 1.391 . S
C283 C282 1.390 . S
C283 C287 1.388 1_556 S
C284 H273 0.950 . S
C284 C282 1.391 . S
C284 C285 1.400 1_556 S
C285 C279 1.491 . S
C285 C284 1.400 1_554 S
C285 C286 1.398 . S
C286 H274 0.950 . S
C286 C285 1.398 . S
C286 C287 1.391 . S
C287 H275 0.950 . S
C287 C283 1.388 1_554 S
C287 C286 1.391 . S
H288 C296 0.950 . S
H289 C301 0.950 . S
H290 C298 0.950 . S
H291 C300 0.950 . S
H292 C302 0.950 . S
H293 C304 0.950 . S
H294 C306 0.950 . S
H295 C307 0.950 . S
C296 H288 0.950 . S
C296 C297 1.386 . S
C296 C298 1.391 . S
C297 C296 1.386 . S
C297 C301 1.393 . S
C298 H290 0.950 . S
C298 C296 1.391 . S
C298 C299 1.400 . S
C299 C298 1.400 . S
C299 C300 1.398 . S
C299 C305 1.491 1_545 S
C300 H291 0.950 . S
C300 C299 1.398 . S
C300 C301 1.391 . S
C301 H289 0.950 . S
C301 C297 1.393 . S
C301 C300 1.391 . S
C302 H292 0.950 . S
C302 C303 1.386 . S
C302 C304 1.391 . S
C303 C302 1.386 . S
C303 C307 1.393 . S
C304 H293 0.950 . S
C304 C302 1.391 . S
C304 C305 1.400 . S
C305 C299 1.491 1_565 S
C305 C304 1.400 . S
C305 C306 1.398 . S
C306 H294 0.950 . S
C306 C305 1.398 . S
C306 C307 1.391 . S
C307 H295 0.950 . S
C307 C303 1.393 . S
C307 C306 1.391 . S
H308 C316 0.950 . S
H309 C321 0.950 . S
H310 C318 0.950 . S
H311 C320 0.950 . S
H312 C322 0.950 . S
H313 C324 0.950 . S
H314 C326 0.950 . S
H315 C327 0.950 . S
C316 H308 0.950 . S
C316 C317 1.386 . S
C316 C318 1.391 . S
C317 C316 1.386 . S
C317 C321 1.393 . S
C318 H310 0.950 . S
C318 C316 1.391 . S
C318 C319 1.400 . S
C319 C318 1.400 . S
C319 C320 1.398 . S
C319 C325 1.491 1_655 S
C320 H311 0.950 . S
C320 C319 1.398 . S
C320 C321 1.391 . S
C321 H309 0.950 . S
C321 C317 1.393 . S
C321 C320 1.391 . S
C322 H312 0.950 . S
C322 C323 1.386 . S
C322 C324 1.391 . S
C323 C322 1.386 . S
C323 C327 1.393 . S
C324 H313 0.950 . S
C324 C322 1.391 . S
C324 C325 1.400 . S
C325 C319 1.491 1_455 S
C325 C324 1.400 . S
C325 C326 1.398 . S
C326 H314 0.950 . S
C326 C325 1.398 . S
C326 C327 1.391 . S
C327 H315 0.950 . S
C327 C323 1.393 . S
C327 C326 1.391 . S
H328 C336 0.950 . S
H329 C341 0.950 . S
H330 C338 0.950 . S
H331 C340 0.950 . S
H332 C342 0.950 . S
H333 C344 0.950 . S
H334 C346 0.950 . S
H335 C347 0.950 . S
C336 H328 0.950 . S
C336 C337 1.386 . S
C336 C338 1.391 . S
C337 C336 1.386 . S
C337 C341 1.393 . S
C338 H330 0.950 . S
C338 C336 1.391 . S
C338 C339 1.400 . S
C339 C338 1.400 . S
C339 C340 1.398 . S
C339 C345 1.491 1_545 S
C340 H331 0.950 . S
C340 C339 1.398 . S
C340 C341 1.391 . S
C341 H329 0.950 . S
C341 C337 1.393 . S
C341 C340 1.391 . S
C342 H332 0.950 . S
C342 C343 1.386 . S
C342 C344 1.391 . S
C343 C342 1.386 . S
C343 C347 1.393 . S
C344 H333 0.950 . S
C344 C342 1.391 . S
C344 C345 1.400 . S
C345 C339 1.491 1_565 S
C345 C344 1.400 . S
C345 C346 1.398 . S
C346 H334 0.950 . S
C346 C345 1.398 . S
C346 C347 1.391 . S
C347 H335 0.950 . S
C347 C343 1.393 . S
C347 C346 1.391 . S
H348 C356 0.950 . S
H349 C361 0.950 . S
H350 C358 0.950 . S
H351 C360 0.950 . S
H352 C362 0.950 . S
H353 C364 0.950 . S
H354 C366 0.950 . S
H355 C367 0.950 . S
C356 H348 0.950 . S
C356 C357 1.386 . S
C356 C358 1.391 . S
C357 C356 1.386 . S
C357 C361 1.393 . S
C358 H350 0.950 . S
C358 C356 1.391 . S
C358 C359 1.400 . S
C359 C358 1.400 . S
C359 C360 1.398 . S
C359 C365 1.491 1_455 S
C360 H351 0.950 . S
C360 C359 1.398 . S
C360 C361 1.391 . S
C361 H349 0.950 . S
C361 C357 1.393 . S
C361 C360 1.391 . S
C362 H352 0.950 . S
C362 C363 1.386 . S
C362 C364 1.391 . S
C363 C362 1.386 . S
C363 C367 1.393 . S
C364 H353 0.950 . S
C364 C362 1.391 . S
C364 C365 1.400 . S
C365 C359 1.491 1_655 S
C365 C364 1.400 . S
C365 C366 1.398 . S
C366 H354 0.950 . S
C366 C365 1.398 . S
C366 C367 1.391 . S
C367 H355 0.950 . S
C367 C363 1.393 . S
C367 C366 1.391 . S
H368 C376 0.950 . S
H369 C381 0.950 . S
H370 C378 0.950 . S
H371 C380 0.950 . S
H372 C382 0.949 . S
H373 C384 0.950 . S
H374 C386 0.950 . S
H375 C387 0.950 . S
C376 H368 0.950 . S
C376 C377 1.386 . S
C376 C378 1.391 . S
C377 C376 1.386 . S
C377 C381 1.393 . S
C378 H370 0.950 . S
C378 C376 1.391 . S
C378 C379 1.400 . S
C379 C378 1.400 . S
C379 C380 1.398 . S
C379 C385 1.491 . S
C380 H371 0.950 . S
C380 C379 1.398 . S
C380 C381 1.391 . S
C381 H369 0.950 . S
C381 C377 1.393 . S
C381 C380 1.391 . S
C382 H372 0.949 . S
C382 C383 1.386 . S
C382 C384 1.391 1_556 S
C383 C382 1.386 . S
C383 C387 1.393 . S
C384 H373 0.950 . S
C384 C382 1.391 1_554 S
C384 C385 1.400 . S
C385 C379 1.491 . S
C385 C384 1.400 . S
C385 C386 1.398 1_554 S
C386 H374 0.950 . S
C386 C385 1.398 1_556 S
C386 C387 1.391 . S
C387 H375 0.950 . S
C387 C383 1.393 . S
C387 C386 1.391 . S
H388 C396 0.950 . S
H389 C401 0.950 . S
H390 C398 0.950 . S
H391 C400 0.950 . S
H392 C402 0.950 . S
H393 C404 0.950 . S
H394 C406 0.950 . S
H395 C407 0.950 . S
C396 H388 0.950 . S
C396 C397 1.386 . S
C396 C398 1.391 . S
C397 C396 1.386 . S
C397 C401 1.393 1_556 S
C398 H390 0.950 . S
C398 C396 1.391 . S
C398 C399 1.398 1_556 S
C399 C398 1.398 1_554 S
C399 C400 1.401 . S
C399 C405 1.491 . S
C400 H391 0.950 . S
C400 C399 1.401 . S
C400 C401 1.391 . S
C401 H389 0.950 . S
C401 C397 1.393 1_554 S
C401 C400 1.391 . S
C402 H392 0.950 . S
C402 C403 1.386 . S
C402 C404 1.391 . S
C403 C402 1.386 . S
C403 C407 1.393 1_554 S
C404 H393 0.950 . S
C404 C402 1.391 . S
C404 C405 1.400 . S
C405 C399 1.491 . S
C405 C404 1.400 . S
C405 C406 1.398 1_554 S
C406 H394 0.950 . S
C406 C405 1.398 1_556 S
C406 C407 1.391 . S
C407 H395 0.950 . S
C407 C403 1.393 1_556 S
C407 C406 1.391 . S
H408 C416 0.950 . S
H409 C421 0.950 . S
H410 C418 0.950 . S
H411 C420 0.950 . S
H412 C422 0.950 . S
H413 C424 0.950 . S
H414 C426 0.950 . S
H415 C427 0.950 . S
C416 H408 0.950 . S
C416 C417 1.386 1_556 S
C416 C418 1.391 . S
C417 C416 1.386 1_554 S
C417 C421 1.393 . S
C418 H410 0.950 . S
C418 C416 1.391 . S
C418 C419 1.400 1_556 S
C419 C418 1.400 1_554 S
C419 C420 1.398 . S
C419 C425 1.491 . S
C420 H411 0.950 . S
C420 C419 1.398 . S
C420 C421 1.391 . S
C421 H409 0.950 . S
C421 C417 1.393 . S
C421 C420 1.391 . S
C422 H412 0.950 . S
C422 C423 1.386 1_554 S
C422 C424 1.391 . S
C423 C422 1.386 1_556 S
C423 C427 1.393 . S
C424 H413 0.950 . S
C424 C422 1.391 . S
C424 C425 1.406 . S
C425 C419 1.491 . S
C425 C424 1.406 . S
C425 C426 1.392 1_554 S
C426 H414 0.950 . S
C426 C425 1.392 1_556 S
C426 C427 1.391 . S
C427 H415 0.950 . S
C427 C423 1.393 . S
C427 C426 1.391 . S
H428 C436 0.950 . S
H429 C441 0.950 . S
H430 C438 0.950 . S
H431 C440 0.950 . S
H432 C442 0.950 . S
H433 C444 0.950 . S
H434 C446 0.950 . S
H435 C447 0.950 . S
C436 H428 0.950 . S
C436 C437 1.384 1_556 S
C436 C438 1.391 . S
C437 C436 1.384 1_554 S
C437 C441 1.395 . S
C438 H430 0.950 . S
C438 C436 1.391 . S
C438 C439 1.400 1_556 S
C439 C438 1.400 1_554 S
C439 C440 1.398 . S
C439 C445 1.491 . S
C440 H431 0.950 . S
C440 C439 1.398 . S
C440 C441 1.391 . S
C441 H429 0.950 . S
C441 C437 1.395 . S
C441 C440 1.391 . S
C442 H432 0.950 . S
C442 C443 1.386 . S
C442 C444 1.391 . S
C443 C442 1.386 . S
C443 C447 1.393 1_554 S
C444 H433 0.950 . S
C444 C442 1.391 . S
C444 C445 1.400 . S
C445 C439 1.491 . S
C445 C444 1.400 . S
C445 C446 1.398 1_554 S
C446 H434 0.950 . S
C446 C445 1.398 1_556 S
C446 C447 1.391 . S
C447 H435 0.950 . S
C447 C443 1.393 1_556 S
C447 C446 1.391 . S
H448 C456 0.950 . S
H449 C461 0.950 . S
H450 C458 0.950 . S
H451 C460 0.950 . S
H452 C462 0.950 . S
H453 C464 0.950 . S
H454 C466 0.950 . S
H455 C467 0.950 . S
C456 H448 0.950 . S
C456 C457 1.386 . S
C456 C458 1.391 . S
C457 C456 1.386 . S
C457 C461 1.393 . S
C458 H450 0.950 . S
C458 C456 1.391 . S
C458 C459 1.400 . S
C459 C458 1.400 . S
C459 C460 1.398 . S
C459 C465 1.491 . S
C460 H451 0.950 . S
C460 C459 1.398 . S
C460 C461 1.391 . S
C461 H449 0.950 . S
C461 C457 1.393 . S
C461 C460 1.391 . S
C462 H452 0.950 . S
C462 C463 1.386 . S
C462 C464 1.391 . S
C463 C462 1.386 . S
C463 C467 1.393 . S
C464 H453 0.950 . S
C464 C462 1.391 . S
C464 C465 1.400 . S
C465 C459 1.491 . S
C465 C464 1.400 . S
C465 C466 1.398 . S
C466 H454 0.950 . S
C466 C465 1.398 . S
C466 C467 1.391 . S
C467 H455 0.950 . S
C467 C463 1.393 . S
C467 C466 1.391 . S
H468 C476 0.950 . S
H469 C481 0.950 . S
H470 C478 0.950 . S
H471 C480 0.950 . S
H472 C482 0.950 . S
H473 C484 0.950 . S
H474 C486 0.950 . S
H475 C487 0.950 . S
C476 H468 0.950 . S
C476 C477 1.386 . S
C476 C478 1.391 . S
C477 C476 1.386 . S
C477 C481 1.393 . S
C478 H470 0.950 . S
C478 C476 1.391 . S
C478 C479 1.400 . S
C479 C478 1.400 . S
C479 C480 1.398 . S
C479 C485 1.491 . S
C480 H471 0.950 . S
C480 C479 1.398 . S
C480 C481 1.391 . S
C481 H469 0.950 . S
C481 C477 1.393 . S
C481 C480 1.391 . S
C482 H472 0.950 . S
C482 C483 1.386 . S
C482 C484 1.391 . S
C483 C482 1.386 . S
C483 C487 1.393 . S
C484 H473 0.950 . S
C484 C482 1.391 . S
C484 C485 1.400 . S
C485 C479 1.491 . S
C485 C484 1.400 . S
C485 C486 1.398 . S
C486 H474 0.950 . S
C486 C485 1.398 . S
C486 C487 1.391 . S
C487 H475 0.950 . S
C487 C483 1.393 . S
C487 C486 1.391 . S
H488 C496 0.950 . S
H489 C501 0.950 . S
H490 C498 0.950 . S
H491 C500 0.950 . S
H492 C502 0.950 . S
H493 C504 0.950 . S
H494 C506 0.950 . S
H495 C507 0.950 . S
C496 H488 0.950 . S
C496 C497 1.386 . S
C496 C498 1.391 . S
C497 C496 1.386 . S
C497 C501 1.393 . S
C498 H490 0.950 . S
C498 C496 1.391 . S
C498 C499 1.400 . S
C499 C498 1.400 . S
C499 C500 1.398 . S
C499 C505 1.491 . S
C500 H491 0.950 . S
C500 C499 1.398 . S
C500 C501 1.391 . S
C501 H489 0.950 . S
C501 C497 1.393 . S
C501 C500 1.391 . S
C502 H492 0.950 . S
C502 C503 1.386 . S
C502 C504 1.391 . S
C503 C502 1.386 . S
C503 C507 1.393 . S
C504 H493 0.950 . S
C504 C502 1.391 . S
C504 C505 1.400 . S
C505 C499 1.491 . S
C505 C504 1.400 . S
C505 C506 1.398 . S
C506 H494 0.950 . S
C506 C505 1.398 . S
C506 C507 1.391 . S
C507 H495 0.950 . S
C507 C503 1.393 . S
C507 C506 1.391 . S
H508 C516 0.950 . S
H509 C521 0.950 . S
H510 C518 0.950 . S
H511 C520 0.950 . S
H512 C522 0.950 . S
H513 C524 0.950 . S
H514 C526 0.950 . S
H515 C527 0.950 . S
C516 H508 0.950 . S
C516 C517 1.386 . S
C516 C518 1.391 . S
C517 C516 1.386 . S
C517 C521 1.393 . S
C518 H510 0.950 . S
C518 C516 1.391 . S
C518 C519 1.400 . S
C519 C518 1.400 . S
C519 C520 1.398 . S
C519 C525 1.491 . S
C520 H511 0.950 . S
C520 C519 1.398 . S
C520 C521 1.391 . S
C521 H509 0.950 . S
C521 C517 1.393 . S
C521 C520 1.391 . S
C522 H512 0.950 . S
C522 C523 1.386 . S
C522 C524 1.391 . S
C523 C522 1.386 . S
C523 C527 1.393 . S
C524 H513 0.950 . S
C524 C522 1.391 . S
C524 C525 1.400 . S
C525 C519 1.491 . S
C525 C524 1.400 . S
C525 C526 1.398 . S
C526 H514 0.950 . S
C526 C525 1.398 . S
C526 C527 1.391 . S
C527 H515 0.950 . S
C527 C523 1.393 . S
C527 C526 1.391 . S
H528 C536 0.950 . S
H529 C541 0.950 . S
H530 C538 0.950 . S
H531 C540 0.950 . S
H532 C542 0.950 . S
H533 C544 0.950 . S
H534 C546 0.950 . S
H535 C547 0.950 . S
C536 H528 0.950 . S
C536 C537 1.386 . S
C536 C538 1.391 . S
C537 C536 1.386 . S
C537 C541 1.393 . S
C538 H530 0.950 . S
C538 C536 1.391 . S
C538 C539 1.400 . S
C539 C538 1.400 . S
C539 C540 1.398 . S
C539 C545 1.491 . S
C540 H531 0.950 . S
C540 C539 1.398 . S
C540 C541 1.391 . S
C541 H529 0.950 . S
C541 C537 1.393 . S
C541 C540 1.391 . S
C542 H532 0.950 . S
C542 C543 1.386 . S
C542 C544 1.391 . S
C543 C542 1.386 . S
C543 C547 1.393 . S
C544 H533 0.950 . S
C544 C542 1.391 . S
C544 C545 1.400 . S
C545 C539 1.491 . S
C545 C544 1.400 . S
C545 C546 1.398 . S
C546 H534 0.950 . S
C546 C545 1.398 . S
C546 C547 1.391 . S
C547 H535 0.950 . S
C547 C543 1.393 . S
C547 C546 1.391 . S
H548 C556 0.950 . S
H549 C561 0.950 . S
H550 C558 0.950 . S
H551 C560 0.950 . S
H552 C562 0.950 . S
H553 C564 0.950 . S
H554 C566 0.950 . S
H555 C567 0.950 . S
C556 H548 0.950 . S
C556 C557 1.386 . S
C556 C558 1.391 . S
C557 C556 1.386 . S
C557 C561 1.393 . S
C558 H550 0.950 . S
C558 C556 1.391 . S
C558 C559 1.400 . S
C559 C558 1.400 . S
C559 C560 1.398 . S
C559 C565 1.491 . S
C560 H551 0.950 . S
C560 C559 1.398 . S
C560 C561 1.391 . S
C561 H549 0.950 . S
C561 C557 1.393 . S
C561 C560 1.391 . S
C562 H552 0.950 . S
C562 C563 1.386 . S
C562 C564 1.391 . S
C563 C562 1.386 . S
C563 C567 1.393 . S
C564 H553 0.950 . S
C564 C562 1.391 . S
C564 C565 1.400 . S
C565 C559 1.491 . S
C565 C564 1.400 . S
C565 C566 1.398 . S
C566 H554 0.950 . S
C566 C565 1.398 . S
C566 C567 1.391 . S
C567 H555 0.950 . S
C567 C563 1.393 . S
C567 C566 1.391 . S
H568 C576 0.950 . S
H569 C581 0.950 . S
H570 C578 0.950 . S
H571 C580 0.950 . S
H572 C582 0.950 . S
H573 C584 0.950 . S
H574 C586 0.950 . S
H575 C587 0.950 . S
C576 H568 0.950 . S
C576 C577 1.386 . S
C576 C578 1.391 . S
C577 C576 1.386 . S
C577 C581 1.393 . S
C578 H570 0.950 . S
C578 C576 1.391 . S
C578 C579 1.400 . S
C579 C578 1.400 . S
C579 C580 1.398 . S
C579 C585 1.491 . S
C580 H571 0.950 . S
C580 C579 1.398 . S
C580 C581 1.391 . S
C581 H569 0.950 . S
C581 C577 1.393 . S
C581 C580 1.391 . S
C582 H572 0.950 . S
C582 C583 1.386 . S
C582 C584 1.391 . S
C583 C582 1.386 . S
C583 C587 1.393 . S
C584 H573 0.950 . S
C584 C582 1.391 . S
C584 C585 1.400 . S
C585 C579 1.491 . S
C585 C584 1.400 . S
C585 C586 1.398 . S
C586 H574 0.950 . S
C586 C585 1.398 . S
C586 C587 1.391 . S
C587 H575 0.950 . S
C587 C583 1.393 . S
C587 C586 1.391 . S
H588 C596 0.950 . S
H589 C601 0.950 . S
H590 C598 0.950 . S
H591 C600 0.950 . S
H592 C602 0.950 . S
H593 C604 0.950 . S
H594 C606 0.950 . S
H595 C607 0.950 . S
C596 H588 0.950 . S
C596 C597 1.386 . S
C596 C598 1.391 . S
C597 C596 1.386 . S
C597 C601 1.393 . S
C598 H590 0.950 . S
C598 C596 1.391 . S
C598 C599 1.400 . S
C599 C598 1.400 . S
C599 C600 1.398 . S
C599 C605 1.491 . S
C600 H591 0.950 . S
C600 C599 1.398 . S
C600 C601 1.391 . S
C601 H589 0.950 . S
C601 C597 1.393 . S
C601 C600 1.391 . S
C602 H592 0.950 . S
C602 C603 1.386 . S
C602 C604 1.391 . S
C603 C602 1.386 . S
C603 C607 1.393 . S
C604 H593 0.950 . S
C604 C602 1.391 . S
C604 C605 1.400 . S
C605 C599 1.491 . S
C605 C604 1.400 . S
C605 C606 1.398 . S
C606 H594 0.950 . S
C606 C605 1.398 . S
C606 C607 1.391 . S
C607 H595 0.950 . S
C607 C603 1.393 . S
C607 C606 1.391 . S
H608 C616 0.950 . S
H609 C621 0.950 . S
H610 C618 0.950 . S
H611 C620 0.950 . S
H612 C622 0.950 . S
H613 C624 0.950 . S
H614 C626 0.950 . S
H615 C627 0.950 . S
C616 H608 0.950 . S
C616 C617 1.386 . S
C616 C618 1.391 . S
C617 C616 1.386 . S
C617 C621 1.393 . S
C618 H610 0.950 . S
C618 C616 1.391 . S
C618 C619 1.400 . S
C619 C618 1.400 . S
C619 C620 1.398 . S
C619 C625 1.491 . S
C620 H611 0.950 . S
C620 C619 1.398 . S
C620 C621 1.391 . S
C621 H609 0.950 . S
C621 C617 1.393 . S
C621 C620 1.391 . S
C622 H612 0.950 . S
C622 C623 1.386 . S
C622 C624 1.391 . S
C623 C622 1.386 . S
C623 C627 1.393 . S
C624 H613 0.950 . S
C624 C622 1.391 . S
C624 C625 1.400 . S
C625 C619 1.491 . S
C625 C624 1.400 . S
C625 C626 1.398 . S
C626 H614 0.950 . S
C626 C625 1.398 . S
C626 C627 1.391 . S
C627 H615 0.950 . S
C627 C623 1.393 . S
C627 C626 1.391 . S
H628 C636 0.950 . S
H629 C641 0.950 . S
H630 C638 0.950 . S
H631 C640 0.950 . S
H632 C642 0.950 . S
H633 C644 0.950 . S
H634 C646 0.950 . S
H635 C647 0.950 . S
C636 H628 0.950 . S
C636 C637 1.386 . S
C636 C638 1.391 . S
C637 C636 1.386 . S
C637 C641 1.393 . S
C638 H630 0.950 . S
C638 C636 1.391 . S
C638 C639 1.400 . S
C639 C638 1.400 . S
C639 C640 1.398 . S
C639 C645 1.491 . S
C640 H631 0.950 . S
C640 C639 1.398 . S
C640 C641 1.391 . S
C641 H629 0.950 . S
C641 C637 1.393 . S
C641 C640 1.391 . S
C642 H632 0.950 . S
C642 C643 1.386 . S
C642 C644 1.391 . S
C643 C642 1.386 . S
C643 C647 1.393 . S
C644 H633 0.950 . S
C644 C642 1.391 . S
C644 C645 1.400 . S
C645 C639 1.491 . S
C645 C644 1.400 . S
C645 C646 1.398 . S
C646 H634 0.950 . S
C646 C645 1.398 . S
C646 C647 1.391 . S
C647 H635 0.950 . S
C647 C643 1.393 . S
C647 C646 1.391 . S
H648 C656 0.950 . S
H649 C661 0.950 . S
H650 C658 0.950 . S
H651 C660 0.950 . S
H652 C662 0.950 . S
H653 C664 0.950 . S
H654 C666 0.950 . S
H655 C667 0.950 . S
C656 H648 0.950 . S
C656 C657 1.386 . S
C656 C658 1.391 . S
C657 C656 1.386 . S
C657 C661 1.393 . S
C658 H650 0.950 . S
C658 C656 1.391 . S
C658 C659 1.400 . S
C659 C658 1.400 . S
C659 C660 1.398 . S
C659 C665 1.491 . S
C660 H651 0.950 . S
C660 C659 1.398 . S
C660 C661 1.391 . S
C661 H649 0.950 . S
C661 C657 1.393 . S
C661 C660 1.391 . S
C662 H652 0.950 . S
C662 C663 1.386 . S
C662 C664 1.391 . S
C663 C662 1.386 . S
C663 C667 1.393 . S
C664 H653 0.950 . S
C664 C662 1.391 . S
C664 C665 1.400 . S
C665 C659 1.491 . S
C665 C664 1.400 . S
C665 C666 1.398 . S
C666 H654 0.950 . S
C666 C665 1.398 . S
C666 C667 1.391 . S
C667 H655 0.950 . S
C667 C663 1.393 . S
C667 C666 1.391 . S
H668 C676 0.950 . S
H669 C681 0.950 . S
H670 C678 0.950 . S
H671 C680 0.950 . S
H672 C682 0.950 . S
H673 C684 0.950 . S
H674 C686 0.950 . S
H675 C687 0.950 . S
C676 H668 0.950 . S
C676 C677 1.386 . S
C676 C678 1.391 . S
C677 C676 1.386 . S
C677 C681 1.393 . S
C678 H670 0.950 . S
C678 C676 1.391 . S
C678 C679 1.400 . S
C679 C678 1.400 . S
C679 C680 1.398 . S
C679 C685 1.491 . S
C680 H671 0.950 . S
C680 C679 1.398 . S
C680 C681 1.391 . S
C681 H669 0.950 . S
C681 C677 1.393 . S
C681 C680 1.391 . S
C682 H672 0.950 . S
C682 C683 1.386 . S
C682 C684 1.391 . S
C683 C682 1.386 . S
C683 C687 1.393 . S
C684 H673 0.950 . S
C684 C682 1.391 . S
C684 C685 1.400 . S
C685 C679 1.491 . S
C685 C684 1.400 . S
C685 C686 1.398 . S
C686 H674 0.950 . S
C686 C685 1.398 . S
C686 C687 1.391 . S
C687 H675 0.950 . S
C687 C683 1.393 . S
C687 C686 1.391 . S
H688 C696 0.950 . S
H689 C701 0.950 . S
H690 C698 0.950 . S
H691 C700 0.950 . S
H692 C702 0.950 . S
H693 C704 0.950 . S
H694 C706 0.950 . S
H695 C707 0.950 . S
C696 H688 0.950 . S
C696 C697 1.386 . S
C696 C698 1.391 . S
C697 C696 1.386 . S
C697 C701 1.393 . S
C698 H690 0.950 . S
C698 C696 1.391 . S
C698 C699 1.400 . S
C699 C698 1.400 . S
C699 C700 1.398 . S
C699 C705 1.491 . S
C700 H691 0.950 . S
C700 C699 1.398 . S
C700 C701 1.391 . S
C701 H689 0.950 . S
C701 C697 1.393 . S
C701 C700 1.391 . S
C702 H692 0.950 . S
C702 C703 1.386 . S
C702 C704 1.391 . S
C703 C702 1.386 . S
C703 C707 1.393 . S
C704 H693 0.950 . S
C704 C702 1.391 . S
C704 C705 1.400 . S
C705 C699 1.491 . S
C705 C704 1.400 . S
C705 C706 1.398 . S
C706 H694 0.950 . S
C706 C705 1.398 . S
C706 C707 1.391 . S
C707 H695 0.950 . S
C707 C703 1.393 . S
C707 C706 1.391 . S
H708 C716 0.950 . S
H709 C721 0.950 . S
H710 C718 0.950 . S
H711 C720 0.950 . S
H712 C722 0.950 . S
H713 C724 0.950 . S
H714 C726 0.950 . S
H715 C727 0.950 . S
C716 H708 0.950 . S
C716 C717 1.386 . S
C716 C718 1.391 . S
C717 C716 1.386 . S
C717 C721 1.393 . S
C718 H710 0.950 . S
C718 C716 1.391 . S
C718 C719 1.400 . S
C719 C718 1.400 . S
C719 C720 1.398 . S
C719 C725 1.491 . S
C720 H711 0.950 . S
C720 C719 1.398 . S
C720 C721 1.391 . S
C721 H709 0.950 . S
C721 C717 1.393 . S
C721 C720 1.391 . S
C722 H712 0.950 . S
C722 C723 1.386 . S
C722 C724 1.391 . S
C723 C722 1.386 . S
C723 C727 1.393 . S
C724 H713 0.950 . S
C724 C722 1.391 . S
C724 C725 1.400 . S
C725 C719 1.491 . S
C725 C724 1.400 . S
C725 C726 1.398 . S
C726 H714 0.950 . S
C726 C725 1.398 . S
C726 C727 1.391 . S
C727 H715 0.950 . S
C727 C723 1.393 . S
C727 C726 1.391 . S
H728 C736 0.950 . S
H729 C741 0.950 . S
H730 C738 0.950 . S
H731 C740 0.950 . S
H732 C742 0.950 . S
H733 C744 0.950 . S
H734 C746 0.950 . S
H735 C747 0.950 . S
C736 H728 0.950 . S
C736 C737 1.386 . S
C736 C738 1.391 . S
C737 C736 1.386 . S
C737 C741 1.393 . S
C738 H730 0.950 . S
C738 C736 1.391 . S
C738 C739 1.400 . S
C739 C738 1.400 . S
C739 C740 1.398 . S
C739 C745 1.491 . S
C740 H731 0.950 . S
C740 C739 1.398 . S
C740 C741 1.391 . S
C741 H729 0.950 . S
C741 C737 1.393 . S
C741 C740 1.391 . S
C742 H732 0.950 . S
C742 C743 1.386 . S
C742 C744 1.391 . S
C743 C742 1.386 . S
C743 C747 1.393 . S
C744 H733 0.950 . S
C744 C742 1.391 . S
C744 C745 1.400 . S
C745 C739 1.491 . S
C745 C744 1.400 . S
C745 C746 1.398 . S
C746 H734 0.950 . S
C746 C745 1.398 . S
C746 C747 1.391 . S
C747 H735 0.950 . S
C747 C743 1.393 . S
C747 C746 1.391 . S
H748 C756 0.950 . S
H749 C761 0.950 . S
H750 C758 0.950 . S
H751 C760 0.950 . S
H752 C762 0.950 . S
H753 C764 0.950 . S
H754 C766 0.950 . S
H755 C767 0.950 . S
C756 H748 0.950 . S
C756 C757 1.386 . S
C756 C758 1.391 . S
C757 C756 1.386 . S
C757 C761 1.393 . S
C758 H750 0.950 . S
C758 C756 1.391 . S
C758 C759 1.400 . S
C759 C758 1.400 . S
C759 C760 1.398 . S
C759 C765 1.491 . S
C760 H751 0.950 . S
C760 C759 1.398 . S
C760 C761 1.391 . S
C761 H749 0.950 . S
C761 C757 1.393 . S
C761 C760 1.391 . S
C762 H752 0.950 . S
C762 C763 1.386 . S
C762 C764 1.391 . S
C763 C762 1.386 . S
C763 C767 1.393 . S
C764 H753 0.950 . S
C764 C762 1.391 . S
C764 C765 1.400 . S
C765 C759 1.491 . S
C765 C764 1.400 . S
C765 C766 1.398 . S
C766 H754 0.950 . S
C766 C765 1.398 . S
C766 C767 1.391 . S
C767 H755 0.950 . S
C767 C763 1.393 . S
C767 C766 1.391 . S
H768 C776 0.950 . S
H769 C781 0.950 . S
H770 C778 0.950 . S
H771 C780 0.950 . S
H772 C782 0.950 . S
H773 C784 0.950 . S
H774 C786 0.950 . S
H775 C787 0.950 . S
C776 H768 0.950 . S
C776 C777 1.386 . S
C776 C778 1.391 . S
C777 C776 1.386 . S
C777 C781 1.393 . S
C778 H770 0.950 . S
C778 C776 1.391 . S
C778 C779 1.400 . S
C779 C778 1.400 . S
C779 C780 1.398 . S
C779 C785 1.491 . S
C780 H771 0.950 . S
C780 C779 1.398 . S
C780 C781 1.391 . S
C781 H769 0.950 . S
C781 C777 1.393 . S
C781 C780 1.391 . S
C782 H772 0.950 . S
C782 C783 1.386 . S
C782 C784 1.391 . S
C783 C782 1.386 . S
C783 C787 1.393 . S
C784 H773 0.950 . S
C784 C782 1.391 . S
C784 C785 1.400 . S
C785 C779 1.491 . S
C785 C784 1.400 . S
C785 C786 1.398 . S
C786 H774 0.950 . S
C786 C785 1.398 . S
C786 C787 1.391 . S
C787 H775 0.950 . S
C787 C783 1.393 . S
C787 C786 1.391 . S
H788 C796 0.950 . S
H789 C801 0.950 . S
H790 C798 0.950 . S
H791 C800 0.950 . S
H792 C802 0.950 . S
H793 C804 0.950 . S
H794 C806 0.950 . S
H795 C807 0.950 . S
C796 H788 0.950 . S
C796 C797 1.386 . S
C796 C798 1.391 . S
C797 C796 1.386 . S
C797 C801 1.393 . S
C798 H790 0.950 . S
C798 C796 1.391 . S
C798 C799 1.400 . S
C799 C798 1.400 . S
C799 C800 1.398 . S
C799 C805 1.491 . S
C800 H791 0.950 . S
C800 C799 1.398 . S
C800 C801 1.391 . S
C801 H789 0.950 . S
C801 C797 1.393 . S
C801 C800 1.391 . S
C802 H792 0.950 . S
C802 C803 1.386 . S
C802 C804 1.391 . S
C803 C802 1.386 . S
C803 C807 1.393 . S
C804 H793 0.950 . S
C804 C802 1.391 . S
C804 C805 1.400 . S
C805 C799 1.491 . S
C805 C804 1.400 . S
C805 C806 1.398 . S
C806 H794 0.950 . S
C806 C805 1.398 . S
C806 C807 1.391 . S
C807 H795 0.950 . S
C807 C803 1.393 . S
C807 C806 1.391 . S
H808 C816 0.950 . S
H809 C821 0.950 . S
H810 C818 0.950 . S
H811 C820 0.950 . S
H812 C822 0.950 . S
H813 C824 0.950 . S
H814 C826 0.950 . S
H815 C827 0.950 . S
C816 H808 0.950 . S
C816 C817 1.386 . S
C816 C818 1.391 . S
C817 C816 1.386 . S
C817 C821 1.393 . S
C818 H810 0.950 . S
C818 C816 1.391 . S
C818 C819 1.400 . S
C819 C818 1.400 . S
C819 C820 1.398 . S
C819 C825 1.491 . S
C820 H811 0.950 . S
C820 C819 1.398 . S
C820 C821 1.391 . S
C821 H809 0.950 . S
C821 C817 1.393 . S
C821 C820 1.391 . S
C822 H812 0.950 . S
C822 C823 1.386 . S
C822 C824 1.391 . S
C823 C822 1.386 . S
C823 C827 1.393 . S
C824 H813 0.950 . S
C824 C822 1.391 . S
C824 C825 1.400 . S
C825 C819 1.491 . S
C825 C824 1.400 . S
C825 C826 1.398 . S
C826 H814 0.950 . S
C826 C825 1.398 . S
C826 C827 1.391 . S
C827 H815 0.950 . S
C827 C823 1.393 . S
C827 C826 1.391 . S
H828 C836 0.950 . S
H829 C841 0.950 . S
H830 C838 0.950 . S
H831 C840 0.950 . S
H832 C842 0.950 . S
H833 C844 0.950 . S
H834 C846 0.950 . S
H835 C847 0.950 . S
C836 H828 0.950 . S
C836 C837 1.386 . S
C836 C838 1.391 . S
C837 C836 1.386 . S
C837 C841 1.393 . S
C838 H830 0.950 . S
C838 C836 1.391 . S
C838 C839 1.400 . S
C839 C838 1.400 . S
C839 C840 1.398 . S
C839 C845 1.491 . S
C840 H831 0.950 . S
C840 C839 1.398 . S
C840 C841 1.391 . S
C841 H829 0.950 . S
C841 C837 1.393 . S
C841 C840 1.391 . S
C842 H832 0.950 . S
C842 C843 1.386 . S
C842 C844 1.391 . S
C843 C842 1.386 . S
C843 C847 1.393 . S
C844 H833 0.950 . S
C844 C842 1.391 . S
C844 C845 1.400 . S
C845 C839 1.491 . S
C845 C844 1.400 . S
C845 C846 1.398 . S
C846 H834 0.950 . S
C846 C845 1.398 . S
C846 C847 1.391 . S
C847 H835 0.950 . S
C847 C843 1.393 . S
C847 C846 1.391 . S
C217 C52 1.167 1_554 S
C223 C0 1.152 1_556 S
C237 C65 1.143 1_554 S
C243 C13 1.154 1_556 S
C257 C78 1.166 1_554 S
C263 C26 1.151 1_556 S
C277 C91 1.143 1_554 S
C283 C39 1.146 1_556 S
C297 C156 1.162 . S
C303 C104 1.171 . S
C317 C169 1.168 . S
C323 C117 1.170 . S
C337 C130 1.162 . S
C343 C182 1.147 . S
C357 C195 1.171 . S
C363 C143 1.163 . S
C377 C5 1.270 . S
C383 C70 1.273 . S
C397 C83 1.265 . S
C403 C18 1.278 . S
C417 C31 1.280 . S
C423 C96 1.264 . S
C437 C57 1.263 1_554 S
C443 C44 1.290 . S
C457 C174 1.288 . S
C463 C109 1.268 . S
C477 C187 1.290 . S
C483 C122 1.261 . S
C497 C135 1.282 . S
C503 C200 1.277 . S
C517 C148 1.261 . S
C523 C161 1.284 . S
C537 C205 1.416 . S
C543 C10 1.412 . S
C557 C166 1.411 . S
C563 C23 1.415 . S
C577 C179 1.409 . S
C583 C36 1.412 . S
C597 C192 1.413 . S
C603 C49 1.409 . S
C617 C127 1.412 . S
C623 C62 1.416 . S
C637 C140 1.408 . S
C643 C75 1.408 . S
C657 C88 1.407 . S
C663 C153 1.408 . S
C677 C101 1.420 . S
C683 C114 1.419 . S
C697 C177 1.456 . S
C703 C34 1.433 . S
C717 C190 1.453 . S
C723 C47 1.436 . S
C737 C203 1.431 . S
C743 C8 1.457 . S
C757 C21 1.432 . S
C763 C164 1.457 . S
C777 C151 1.458 . S
C783 C86 1.431 . S
C797 C99 1.457 . S
C803 C112 1.431 . S
C817 C125 1.456 . S
C823 C60 1.432 . S
C837 C138 1.450 . S
C843 C73 1.439 . S
