# Generated by pormake.
# Topology skb, (5)-cn, num edge types: 1
# Building blocks:
#     Node 0, Type 0, BuildingBlock: XOMCOT_clean_sbu_1, # of connection points: 5
#     Node 1, Type 0, BuildingBlock: XOMCOT_clean_sbu_1, # of connection points: 5
#     Node 2, Type 0, BuildingBlock: XOMCOT_clean_sbu_1, # of connection points: 5
#     Node 3, Type 0, BuildingBlock: XOMCOT_clean_sbu_1, # of connection points: 5
#     Node 4, Type 0, BuildingBlock: XOMCOT_clean_sbu_1, # of connection points: 5
#     Node 5, Type 0, BuildingBlock: XOMCOT_clean_sbu_1, # of connection points: 5
#     Node 6, Type 0, BuildingBlock: XOMCOT_clean_sbu_1, # of connection points: 5
#     Node 7, Type 0, BuildingBlock: XOMCOT_clean_sbu_1, # of connection points: 5
#     Node 8, Type 0, BuildingBlock: XOMCOT_clean_sbu_1, # of connection points: 5
#     Node 9, Type 0, BuildingBlock: XOMCOT_clean_sbu_1, # of connection points: 5
#     Node 10, Type 0, BuildingBlock: XOMCOT_clean_sbu_1, # of connection points: 5
#     Node 11, Type 0, BuildingBlock: XOMCOT_clean_sbu_1, # of connection points: 5
#     Node 12, Type 0, BuildingBlock: XOMCOT_clean_sbu_1, # of connection points: 5
#     Node 13, Type 0, BuildingBlock: XOMCOT_clean_sbu_1, # of connection points: 5
#     Node 14, Type 0, BuildingBlock: XOMCOT_clean_sbu_1, # of connection points: 5
#     Node 15, Type 0, BuildingBlock: XOMCOT_clean_sbu_1, # of connection points: 5
#     Edge 16, Type (0, 0), BuildingBlock: AJUNOK_clean_linker_0, # of connection points: 2
#     Edge 17, Type (0, 0), BuildingBlock: AJUNOK_clean_linker_0, # of connection points: 2
#     Edge 18, Type (0, 0), BuildingBlock: AJUNOK_clean_linker_0, # of connection points: 2
#     Edge 19, Type (0, 0), BuildingBlock: AJUNOK_clean_linker_0, # of connection points: 2
#     Edge 20, Type (0, 0), BuildingBlock: AJUNOK_clean_linker_0, # of connection points: 2
#     Edge 21, Type (0, 0), BuildingBlock: AJUNOK_clean_linker_0, # of connection points: 2
#     Edge 22, Type (0, 0), BuildingBlock: AJUNOK_clean_linker_0, # of connection points: 2
#     Edge 23, Type (0, 0), BuildingBlock: AJUNOK_clean_linker_0, # of connection points: 2
#     Edge 24, Type (0, 0), BuildingBlock: AJUNOK_clean_linker_0, # of connection points: 2
#     Edge 25, Type (0, 0), BuildingBlock: AJUNOK_clean_linker_0, # of connection points: 2
#     Edge 26, Type (0, 0), BuildingBlock: AJUNOK_clean_linker_0, # of connection points: 2
#     Edge 27, Type (0, 0), BuildingBlock: AJUNOK_clean_linker_0, # of connection points: 2
#     Edge 28, Type (0, 0), BuildingBlock: AJUNOK_clean_linker_0, # of connection points: 2
#     Edge 29, Type (0, 0), BuildingBlock: AJUNOK_clean_linker_0, # of connection points: 2
#     Edge 30, Type (0, 0), BuildingBlock: AJUNOK_clean_linker_0, # of connection points: 2
#     Edge 31, Type (0, 0), BuildingBlock: AJUNOK_clean_linker_0, # of connection points: 2
#     Edge 32, Type (0, 0), BuildingBlock: AJUNOK_clean_linker_0, # of connection points: 2
#     Edge 33, Type (0, 0), BuildingBlock: AJUNOK_clean_linker_0, # of connection points: 2
#     Edge 34, Type (0, 0), BuildingBlock: AJUNOK_clean_linker_0, # of connection points: 2
#     Edge 35, Type (0, 0), BuildingBlock: AJUNOK_clean_linker_0, # of connection points: 2
#     Edge 36, Type (0, 0), BuildingBlock: AJUNOK_clean_linker_0, # of connection points: 2
#     Edge 37, Type (0, 0), BuildingBlock: AJUNOK_clean_linker_0, # of connection points: 2
#     Edge 38, Type (0, 0), BuildingBlock: AJUNOK_clean_linker_0, # of connection points: 2
#     Edge 39, Type (0, 0), BuildingBlock: AJUNOK_clean_linker_0, # of connection points: 2
#     Edge 40, Type (0, 0), BuildingBlock: AJUNOK_clean_linker_0, # of connection points: 2
#     Edge 41, Type (0, 0), BuildingBlock: AJUNOK_clean_linker_0, # of connection points: 2
#     Edge 42, Type (0, 0), BuildingBlock: AJUNOK_clean_linker_0, # of connection points: 2
#     Edge 43, Type (0, 0), BuildingBlock: AJUNOK_clean_linker_0, # of connection points: 2
#     Edge 44, Type (0, 0), BuildingBlock: AJUNOK_clean_linker_0, # of connection points: 2
#     Edge 45, Type (0, 0), BuildingBlock: AJUNOK_clean_linker_0, # of connection points: 2
#     Edge 46, Type (0, 0), BuildingBlock: AJUNOK_clean_linker_0, # of connection points: 2
#     Edge 47, Type (0, 0), BuildingBlock: AJUNOK_clean_linker_0, # of connection points: 2
#     Edge 48, Type (0, 0), BuildingBlock: AJUNOK_clean_linker_0, # of connection points: 2
#     Edge 49, Type (0, 0), BuildingBlock: AJUNOK_clean_linker_0, # of connection points: 2
#     Edge 50, Type (0, 0), BuildingBlock: AJUNOK_clean_linker_0, # of connection points: 2
#     Edge 51, Type (0, 0), BuildingBlock: AJUNOK_clean_linker_0, # of connection points: 2
#     Edge 52, Type (0, 0), BuildingBlock: AJUNOK_clean_linker_0, # of connection points: 2
#     Edge 53, Type (0, 0), BuildingBlock: AJUNOK_clean_linker_0, # of connection points: 2
#     Edge 54, Type (0, 0), BuildingBlock: AJUNOK_clean_linker_0, # of connection points: 2
#     Edge 55, Type (0, 0), BuildingBlock: AJUNOK_clean_linker_0, # of connection points: 2
# Relax obj value: 0.058
# Max RMSD: 0.104
# Mean RMSD: 0.104
data_MOF--net-skb--node1-XOMCOT_clean_sbu_1--edge1-AJUNOK_clean_linker_0
_symmetry_space_group_name_H-M    P1
_symmetry_Int_Tables_number       1
_symmetry_cell_setting            triclinic
loop_
_symmetry_equiv_pos_as_xyz
'x, y, z'
_cell_length_a     39.24686
_cell_length_b     19.56395
_cell_length_c     52.355978
_cell_angle_alpha  89.920864
_cell_angle_beta   89.898355
_cell_angle_gamma 89.950067
loop_
_atom_site_label
_atom_site_type_symbol
_atom_site_fract_x
_atom_site_fract_y
_atom_site_fract_z
_atom_type_partial_charge
C0 C 0.16444 0.17174 0.12337 0.0
C1 C 0.1662 0.17223 0.0971 0.0
N2 N 0.17397 0.10875 0.08925 0.0
N3 N 0.17132 0.10826 0.13211 0.0
C4 C 0.17714 0.071 0.11074 0.0
H5 H 0.15737 0.21461 0.13525 0.0
Co6 Co 0.16961 0.08181 0.16666 0.0
C7 C 0.18866 0.93392 0.16423 0.0
O8 O 0.15936 0.91912 0.17498 0.0
N9 N 0.16853 0.05501 0.20225 0.0
C10 C 0.15505 1.00744 0.23983 0.0
C11 C 0.1452 1.01653 0.21489 0.0
C12 C 0.19239 0.0683 0.22039 0.0
N13 N 0.18457 1.04058 0.2433 0.0
O14 O 0.20996 0.13508 0.17236 0.0
H15 H 0.12264 0.99416 0.2066 0.0
H16 H 0.21582 0.09574 0.21687 0.0
O17 O 0.1958 0.99662 0.15916 0.0
C18 C 0.19778 0.19241 0.18008 0.0
O19 O 0.16506 0.19525 0.18515 0.0
N20 N 0.12668 0.04401 0.16061 0.0
C21 C 0.05864 0.04558 0.14559 0.0
C22 C 0.08181 1.00029 0.13401 0.0
C23 C 0.11614 1.00075 0.14169 0.0
C24 C 0.10399 0.08653 0.17225 0.0
C25 C 0.07 0.08716 0.16546 0.0
H26 H 0.1343 0.96983 0.13137 0.0
H27 H 0.11262 0.12286 0.18629 0.0
H28 H 0.18252 1.01676 0.11076 0.0
H29 H 0.1604 0.21492 0.08466 0.0
H30 H 0.14174 0.97808 0.25427 0.0
H31 H 0.07391 0.96765 0.11842 0.0
H32 H 0.05288 0.12194 0.17522 0.0
C33 C 0.82719 0.9723 0.12382 0.0
C34 C 0.82608 0.96873 0.09764 0.0
N35 N 0.80561 1.01893 0.08896 0.0
N36 N 0.80741 1.02438 0.13185 0.0
C37 C 0.79431 0.05158 0.11017 0.0
H38 H 0.84256 0.94058 0.1362 0.0
Co39 Co 0.80459 0.05123 0.16621 0.0
C40 C 0.78536 0.19851 0.16121 0.0
O41 O 0.81466 0.21428 0.17164 0.0
N42 N 0.80108 0.07795 0.20167 0.0
C43 C 0.80837 0.1272 0.23981 0.0
C44 C 0.82081 0.12131 0.21535 0.0
C45 C 0.77659 0.05889 0.21862 0.0
N46 N 0.78038 0.08814 0.24184 0.0
O47 O 0.76483 0.99533 0.16943 0.0
H48 H 0.84284 0.14832 0.2082 0.0
H49 H 0.75627 1.02375 0.21421 0.0
O50 O 0.77795 0.13533 0.15726 0.0
C51 C 0.77816 0.93776 0.17574 0.0
O52 O 0.8108 0.93665 0.1812 0.0
N53 N 0.84735 0.09202 0.16255 0.0
C54 C 0.91531 0.0838 0.14765 0.0
C55 C 0.89246 0.12513 0.13396 0.0
C56 C 0.8582 0.1281 0.14164 0.0
C57 C 0.86999 0.05521 0.17671 0.0
C58 C 0.90407 0.05181 0.16998 0.0
H59 H 0.83997 0.15337 0.12937 0.0
H60 H 0.8611 1.02294 0.19209 0.0
H61 H 0.77739 0.09521 0.10997 0.0
H62 H 0.84058 0.93386 0.08581 0.0
H63 H 0.81865 0.15926 0.25477 0.0
H64 H 0.90044 0.15085 0.11663 0.0
H65 H 0.92114 1.02084 0.18142 0.0
C66 C 0.15046 0.97435 0.94798 0.0
C67 C 0.15134 0.9685 0.97412 0.0
N68 N 0.16301 1.02767 0.98398 0.0
N69 N 0.16216 1.03637 0.94103 0.0
C70 C 0.16993 0.06749 0.96339 0.0
H71 H 0.14159 0.93565 0.93488 0.0
Co72 Co 0.16454 0.06679 0.90689 0.0
C73 C 0.18181 0.21418 0.91389 0.0
O74 O 0.15237 0.22983 0.90362 0.0
N75 N 0.16788 0.09746 0.87177 0.0
C76 C 0.16003 0.15258 0.83476 0.0
C77 C 0.14745 0.14157 0.85891 0.0
C78 C 0.19283 0.08271 0.85452 0.0
N79 N 0.18845 0.11517 0.83195 0.0
O80 O 0.20505 1.0135 0.90314 0.0
H81 H 0.12493 0.16594 0.86651 0.0
H82 H 0.21465 0.05074 0.85854 0.0
O83 O 0.18987 0.15099 0.91703 0.0
C84 C 0.19264 0.95667 0.8952 0.0
O85 O 0.16085 0.95614 0.88744 0.0
N86 N 0.12109 0.10449 0.91085 0.0
C87 C 0.05328 0.08881 0.92518 0.0
C88 C 0.07484 0.13166 0.93929 0.0
C89 C 0.10905 0.1386 0.93183 0.0
C90 C 0.09955 0.0664 0.89627 0.0
C91 C 0.0656 0.05894 0.9028 0.0
H92 H 0.12634 0.16572 0.94424 0.0
H93 H 0.10936 1.03617 0.88066 0.0
H94 H 0.17936 0.11931 0.96461 0.0
H95 H 0.14427 0.92341 0.98482 0.0
H96 H 0.14928 0.18606 0.82039 0.0
H97 H 0.06603 0.15545 0.95677 0.0
H98 H 0.04957 1.02627 0.89122 0.0
C99 C 0.82765 0.12508 0.94639 0.0
C100 C 0.82643 0.13244 0.97246 0.0
N101 N 0.80559 0.08414 0.98209 0.0
N102 N 0.80786 0.07206 0.93941 0.0
C103 C 0.79473 0.04795 0.96161 0.0
H104 H 0.8431 0.15486 0.93338 0.0
Co105 Co 0.80449 1.04224 0.90542 0.0
C106 C 0.7847 0.89617 0.91182 0.0
O107 O 0.81394 0.87913 0.90145 0.0
N108 N 0.80034 1.0128 0.8703 0.0
C109 C 0.80806 0.96248 0.83238 0.0
C110 C 0.82032 0.96928 0.8568 0.0
C111 C 0.77563 1.03049 0.85332 0.0
N112 N 0.78005 1.00148 0.83011 0.0
O113 O 0.76506 0.09824 0.90212 0.0
H114 H 0.84242 0.94278 0.86407 0.0
H115 H 0.75456 0.06411 0.85768 0.0
O116 O 0.7778 0.95967 0.91558 0.0
C117 C 0.77825 0.1551 0.89489 0.0
O118 O 0.81055 0.15517 0.88829 0.0
N119 N 0.84709 1.00106 0.90911 0.0
C120 C 0.91433 1.0148 0.92459 0.0
C121 C 0.892 0.97306 0.93853 0.0
C122 C 0.85801 0.96717 0.9305 0.0
C123 C 0.86952 1.03752 0.89461 0.0
C124 C 0.90328 0.04392 0.90172 0.0
H125 H 0.83985 0.9423 0.94297 0.0
H126 H 0.8605 0.0682 0.87884 0.0
H127 H 0.7783 1.00368 0.96286 0.0
H128 H 0.84131 0.16826 0.98353 0.0
H129 H 0.81844 0.92962 0.81768 0.0
H130 H 0.89997 0.94988 0.95634 0.0
H131 H 0.92005 0.07584 0.89037 0.0
C132 C 0.15137 0.67973 0.62195 0.0
C133 C 0.15171 0.68009 0.59574 0.0
N134 N 0.16836 0.6239 0.58761 0.0
N135 N 0.16757 0.62347 0.6305 0.0
C136 C 0.17752 0.5901 0.60911 0.0
H137 H 0.13881 0.7168 0.63403 0.0
Co138 Co 0.16996 0.60062 0.66508 0.0
C139 C 0.18784 0.4525 0.66408 0.0
O140 O 0.16073 0.44041 0.67804 0.0
N141 N 0.17246 0.57771 0.70088 0.0
C142 C 0.16148 0.538 0.74008 0.0
C143 C 0.14945 0.54416 0.71562 0.0
C144 C 0.19842 0.59086 0.71727 0.0
N145 N 0.19236 0.56731 0.74118 0.0
O146 O 0.2111 0.65295 0.66748 0.0
H147 H 0.12553 0.52317 0.70919 0.0
H148 H 0.2213 0.61794 0.71192 0.0
O149 O 0.19464 0.51408 0.65719 0.0
C150 C 0.19971 0.71196 0.67392 0.0
O151 O 0.16728 0.71735 0.67962 0.0
N152 N 0.12678 0.56349 0.66223 0.0
C153 C 0.05671 0.55202 0.65748 0.0
C154 C 0.07824 0.50686 0.6442 0.0
C155 C 0.11375 0.51463 0.64637 0.0
C156 C 0.10584 0.60953 0.67378 0.0
C157 C 0.07102 0.60494 0.67163 0.0
H158 H 0.13049 0.48311 0.63495 0.0
H159 H 0.11629 0.65075 0.68487 0.0
H160 H 0.19042 0.54121 0.6092 0.0
H161 H 0.139 0.71703 0.58365 0.0
H162 H 0.14878 0.51224 0.75574 0.0
H163 H 0.06781 0.46688 0.63227 0.0
H164 H 0.05531 0.64282 0.68112 0.0
C165 C 0.81637 0.44718 0.62227 0.0
C166 C 0.8157 0.44649 0.59607 0.0
N167 N 0.79699 0.50004 0.58799 0.0
N168 N 0.79825 0.50101 0.63088 0.0
C169 C 0.78687 0.53262 0.6095 0.0
H170 H 0.8305 0.41226 0.63426 0.0
Co171 Co 0.79536 0.52424 0.66549 0.0
C172 C 0.77936 0.67442 0.66182 0.0
O173 O 0.80832 0.68907 0.67297 0.0
N174 N 0.79236 0.54803 0.70115 0.0
C175 C 0.80275 0.59453 0.73929 0.0
C176 C 0.81331 0.58998 0.71442 0.0
C177 C 0.76901 0.5281 0.71886 0.0
N178 N 0.77507 0.55497 0.74224 0.0
O179 O 0.75351 0.47441 0.66763 0.0
H180 H 0.83513 0.61663 0.70677 0.0
H181 H 0.74786 0.49444 0.71488 0.0
O182 O 0.77184 0.61174 0.65719 0.0
C183 C 0.76479 0.41418 0.67245 0.0
O184 O 0.79741 0.40666 0.67711 0.0
N185 N 0.8392 0.55844 0.66317 0.0
C186 C 0.90964 0.56128 0.65865 0.0
C187 C 0.88944 0.60539 0.64376 0.0
C188 C 0.85377 0.60189 0.64585 0.0
C189 C 0.85876 0.51382 0.6767 0.0
C190 C 0.8937 0.51398 0.67461 0.0
H191 H 0.83803 0.63179 0.6331 0.0
H192 H 0.84702 0.47605 0.68887 0.0
H193 H 0.77227 0.57956 0.60959 0.0
H194 H 0.8296 0.41146 0.58392 0.0
H195 H 0.81408 0.62637 0.75386 0.0
H196 H 0.90103 0.64097 0.63048 0.0
H197 H 0.90814 0.47634 0.68528 0.0
C198 C 0.13847 0.48623 0.44972 0.0
C199 C 0.13955 0.48686 0.47598 0.0
N200 N 0.16241 0.53418 0.48342 0.0
N201 N 0.16051 0.53301 0.44054 0.0
C202 C 0.17518 0.56051 0.46148 0.0
H203 H 0.12151 0.45596 0.43805 0.0
Co204 Co 0.1646 0.55748 0.40608 0.0
C205 C 0.18417 0.70391 0.40975 0.0
O206 O 0.15636 0.71963 0.39716 0.0
N207 N 0.16957 0.58223 0.37057 0.0
C208 C 0.16319 0.62811 0.33173 0.0
C209 C 0.14935 0.62199 0.35572 0.0
C210 C 0.19585 0.56572 0.35479 0.0
N211 N 0.19256 0.59293 0.33115 0.0
O212 O 0.2043 0.50216 0.40439 0.0
H213 H 0.12619 0.64698 0.3618 0.0
H214 H 0.21711 0.53402 0.36037 0.0
O215 O 0.1905 0.64108 0.41506 0.0
C216 C 0.19175 0.44367 0.39869 0.0
O217 O 0.15922 0.44055 0.39288 0.0
N218 N 0.1221 0.59899 0.40847 0.0
C219 C 0.05437 0.59135 0.42323 0.0
C220 C 0.07669 0.63516 0.43616 0.0
C221 C 0.11095 0.63783 0.42855 0.0
C222 C 0.09985 0.55992 0.39492 0.0
C223 C 0.06583 0.55659 0.4016 0.0
H224 H 0.12898 0.66459 0.4405 0.0
H225 H 0.10913 0.52568 0.38029 0.0
H226 H 0.19435 0.60005 0.46064 0.0
H227 H 0.1234 0.45733 0.48862 0.0
H228 H 0.15289 0.65786 0.31609 0.0
H229 H 0.06839 0.66269 0.45299 0.0
H230 H 0.04906 0.52312 0.39097 0.0
C231 C 0.82717 0.63604 0.45016 0.0
C232 C 0.82517 0.63632 0.47639 0.0
N233 N 0.80235 0.58869 0.48372 0.0
N234 N 0.80572 0.58841 0.44088 0.0
C235 C 0.79049 0.56131 0.46174 0.0
H236 H 0.84444 0.66617 0.43863 0.0
Co237 Co 0.80288 0.56243 0.40646 0.0
C238 C 0.78421 0.41486 0.4127 0.0
O239 O 0.81398 0.39751 0.40332 0.0
N240 N 0.79905 0.53585 0.37115 0.0
C241 C 0.80426 0.47964 0.33417 0.0
C242 C 0.81724 0.48793 0.35829 0.0
C243 C 0.77521 0.55612 0.3539 0.0
N244 N 0.77796 0.52279 0.33142 0.0
O245 O 0.76305 0.61754 0.40369 0.0
H246 H 0.83841 0.45915 0.36587 0.0
H247 H 0.75514 0.59244 0.35789 0.0
O248 O 0.7768 0.47842 0.41553 0.0
C249 C 0.77672 0.67576 0.39893 0.0
O250 O 0.80954 0.67776 0.39398 0.0
N251 N 0.84569 0.5219 0.40964 0.0
C252 C 0.91378 0.5317 0.42344 0.0
C253 C 0.89138 0.49152 0.43798 0.0
C254 C 0.85706 0.48748 0.43077 0.0
C255 C 0.86791 0.55756 0.3947 0.0
C256 C 0.90205 0.56186 0.40093 0.0
H257 H 0.83915 0.46332 0.44363 0.0
H258 H 0.85861 0.58883 0.37917 0.0
H259 H 0.77169 0.52106 0.46084 0.0
H260 H 0.84076 0.66652 0.48913 0.0
H261 H 0.81313 0.44393 0.31984 0.0
H262 H 0.89967 0.46797 0.45565 0.0
H263 H 0.91873 0.59267 0.38908 0.0
C264 C 0.63732 0.12179 0.62549 0.0
C265 C 0.6383 0.12471 0.59925 0.0
N266 N 0.66048 0.07723 0.59075 0.0
N267 N 0.65879 0.07268 0.63369 0.0
C268 C 0.6729 0.04703 0.61211 0.0
H269 H 0.62096 0.15171 0.6378 0.0
Co270 Co 0.6632 0.04553 0.668 0.0
C271 C 0.68197 0.89889 0.66188 0.0
O272 O 0.65319 0.88253 0.67308 0.0
N273 N 0.66864 1.01792 0.70328 0.0
C274 C 0.6631 0.96706 0.74136 0.0
C275 C 0.64936 0.97451 0.71741 0.0
C276 C 0.69436 1.0351 0.71942 0.0
N277 N 0.69156 1.00493 0.74262 0.0
O278 O 0.70282 0.10138 0.67003 0.0
H279 H 0.62682 0.94826 0.71088 0.0
H280 H 0.71491 0.06927 0.71441 0.0
O281 O 0.68926 0.96215 0.65812 0.0
C282 C 0.68944 0.15864 0.67662 0.0
O283 O 0.657 0.15905 0.68278 0.0
N284 N 0.62033 1.00473 0.66563 0.0
C285 C 0.55229 1.01795 0.65218 0.0
C286 C 0.57388 0.97585 0.63776 0.0
C287 C 0.60829 0.97016 0.64478 0.0
C288 C 0.59866 1.04174 0.68058 0.0
C289 C 0.56454 0.04784 0.6745 0.0
H290 H 0.62578 0.94495 0.63188 0.0
H291 H 0.60848 0.07301 0.69587 0.0
H292 H 0.69154 1.00634 0.6121 0.0
H293 H 0.62266 0.15718 0.58729 0.0
H294 H 0.65341 0.93463 0.75648 0.0
H295 H 0.56498 0.95229 0.6203 0.0
H296 H 0.54838 0.08035 0.68612 0.0
C297 C 0.32708 1.00018 0.62668 0.0
C298 C 0.32596 0.99636 0.60047 0.0
N299 N 0.30474 0.0453 0.59179 0.0
N300 N 0.3066 0.05124 0.63467 0.0
C301 C 0.29298 0.07727 0.61299 0.0
H302 H 0.34285 0.96937 0.6391 0.0
Co303 Co 0.30255 0.07931 0.66893 0.0
C304 C 0.28472 0.22708 0.66092 0.0
O305 O 0.31491 0.2447 0.66932 0.0
N306 N 0.29739 0.10778 0.70404 0.0
C307 C 0.30141 0.16636 0.74056 0.0
C308 C 0.31469 0.15749 0.71651 0.0
C309 C 0.27363 0.08728 0.72141 0.0
N310 N 0.27567 0.12202 0.74368 0.0
O311 O 0.26238 1.02527 0.67126 0.0
H312 H 0.33559 0.18674 0.70875 0.0
H313 H 0.25415 0.04963 0.71763 0.0
O314 O 0.27706 0.16342 0.65892 0.0
C315 C 0.27555 0.96725 0.67712 0.0
O316 O 0.30786 0.96556 0.68359 0.0
N317 N 0.3459 0.11851 0.66637 0.0
C318 C 0.41403 0.1005 0.6534 0.0
C319 C 0.39289 0.14113 0.63803 0.0
C320 C 0.35854 0.14946 0.64486 0.0
C321 C 0.36713 0.0834 0.68227 0.0
C322 C 0.40126 0.07488 0.67639 0.0
H323 H 0.34147 0.17351 0.63138 0.0
H324 H 0.35691 0.05483 0.69821 0.0
H325 H 0.27526 0.11959 0.61275 0.0
H326 H 0.3409 0.96227 0.58863 0.0
H327 H 0.30977 0.20322 0.75462 0.0
H328 H 0.402 0.16138 0.62001 0.0
H329 H 0.41698 0.04382 0.68885 0.0
C330 C 0.65027 0.95807 0.44846 0.0
C331 C 0.64989 0.9533 0.47463 0.0
N332 N 0.66712 1.00687 0.48429 0.0
N333 N 0.66752 1.01455 0.44141 0.0
C334 C 0.67737 0.0436 0.4637 0.0
H335 H 0.63764 0.92377 0.43538 0.0
Co336 Co 0.67153 1.04201 0.40721 0.0
C337 C 0.68711 0.19069 0.41256 0.0
O338 O 0.65887 0.20478 0.4003 0.0
N339 N 0.67586 0.06993 0.37185 0.0
C340 C 0.66638 0.11786 0.33372 0.0
C341 C 0.65448 0.11027 0.35817 0.0
C342 C 0.70096 0.05456 0.35483 0.0
N343 N 0.69545 0.08218 0.33146 0.0
O344 O 0.71315 0.99127 0.40509 0.0
H345 H 0.63154 0.13411 0.36528 0.0
H346 H 0.72294 1.02343 0.35925 0.0
O347 O 0.69501 0.12811 0.41715 0.0
C348 C 0.70213 0.93283 0.39767 0.0
O349 O 0.67009 0.92832 0.39076 0.0
N350 N 0.62769 0.07709 0.40944 0.0
C351 C 0.55714 0.07972 0.41439 0.0
C352 C 0.57756 0.12242 0.42964 0.0
C353 C 0.61322 0.11883 0.42736 0.0
C354 C 0.60797 1.03469 0.39516 0.0
C355 C 0.57301 1.03519 0.39727 0.0
H356 H 0.62902 0.14718 0.4405 0.0
H357 H 0.61956 0.99829 0.38238 0.0
H358 H 0.6911 0.09142 0.4649 0.0
H359 H 0.6364 0.9151 0.48567 0.0
H360 H 0.65487 0.14891 0.31894 0.0
H361 H 0.56625 0.15696 0.44339 0.0
H362 H 0.55856 0.9993 0.38588 0.0
C363 C 0.32123 0.15684 0.44914 0.0
C364 C 0.32159 0.16214 0.47529 0.0
N365 N 0.30154 0.11274 0.48508 0.0
N366 N 0.30116 0.10416 0.44225 0.0
C367 C 0.2896 0.07791 0.46461 0.0
H368 H 0.33572 0.18801 0.43597 0.0
Co369 Co 0.29533 0.07714 0.40809 0.0
C370 C 0.28095 0.92769 0.41586 0.0
O371 O 0.31058 0.91216 0.40586 0.0
N372 N 0.28891 0.04935 0.37305 0.0
C373 C 0.29326 0.99241 0.33618 0.0
C374 C 0.3069 1.00149 0.36002 0.0
C375 C 0.26446 0.0689 0.35616 0.0
N376 N 0.2667 1.03499 0.33372 0.0
O377 O 0.25362 0.12747 0.40744 0.0
H378 H 0.32877 0.97403 0.36715 0.0
H379 H 0.24461 0.10562 0.36031 0.0
O380 O 0.27239 0.99071 0.41856 0.0
C381 C 0.26544 0.18651 0.40147 0.0
O382 O 0.29743 0.19114 0.39432 0.0
N383 N 0.33944 0.04253 0.40866 0.0
C384 C 0.41005 0.04879 0.41333 0.0
C385 C 0.39076 1.0073 0.42989 0.0
C386 C 0.35512 1.00655 0.42773 0.0
C387 C 0.35808 0.08214 0.39245 0.0
C388 C 0.39305 0.08612 0.39445 0.0
H389 H 0.34015 0.98056 0.44212 0.0
H390 H 0.34552 0.11498 0.37881 0.0
H391 H 0.2733 1.03347 0.46595 0.0
H392 H 0.33682 0.19761 0.48625 0.0
H393 H 0.3021 0.95704 0.32172 0.0
H394 H 0.40283 0.97752 0.44478 0.0
H395 H 0.40647 0.12089 0.38185 0.0
C396 C 0.66112 0.66224 0.12476 0.0
C397 C 0.66229 0.66234 0.09846 0.0
N398 N 0.67207 0.59986 0.09076 0.0
N399 N 0.67038 0.60003 0.13357 0.0
C400 C 0.67698 0.56317 0.11228 0.0
H401 H 0.6529 0.70431 0.13662 0.0
Co402 Co 0.67076 0.57346 0.16802 0.0
C403 C 0.68816 0.42447 0.16423 0.0
O404 O 0.65905 0.40979 0.17529 0.0
N405 N 0.67191 0.54649 0.20345 0.0
C406 C 0.66149 0.49651 0.24111 0.0
C407 C 0.6498 0.50659 0.21668 0.0
C408 C 0.69688 0.55979 0.2207 0.0
N409 N 0.69095 0.53047 0.24364 0.0
O410 O 0.71192 0.62456 0.17207 0.0
H411 H 0.62687 0.48392 0.2091 0.0
H412 H 0.71982 0.58817 0.21648 0.0
O413 O 0.6956 0.48727 0.15958 0.0
C414 C 0.70089 0.68342 0.17905 0.0
O415 O 0.66846 0.68928 0.1849 0.0
N416 N 0.62716 0.53743 0.16359 0.0
C417 C 0.55892 0.54582 0.14958 0.0
C418 C 0.5808 0.49966 0.13716 0.0
C419 C 0.6153 0.49683 0.14429 0.0
C420 C 0.60553 0.57983 0.17639 0.0
C421 C 0.57138 0.58372 0.1701 0.0
H422 H 0.63266 0.46615 0.13312 0.0
H423 H 0.61528 0.6144 0.19067 0.0
H424 H 0.68404 0.50971 0.11237 0.0
H425 H 0.65481 0.7038 0.08595 0.0
H426 H 0.64951 0.46584 0.25582 0.0
H427 H 0.57182 0.46927 0.12127 0.0
H428 H 0.5551 0.61862 0.18058 0.0
C429 C 0.32549 0.48439 0.12379 0.0
C430 C 0.3234 0.48401 0.0976 0.0
N431 N 0.30187 0.53397 0.09028 0.0
N432 N 0.3053 0.53424 0.13313 0.0
C433 C 0.29089 0.5631 0.11227 0.0
H434 H 0.34197 0.45244 0.13526 0.0
Co435 Co 0.30345 0.55891 0.16773 0.0
C436 C 0.2861 0.70787 0.16319 0.0
O437 O 0.3158 0.72291 0.17313 0.0
N438 N 0.3009 0.5839 0.2033 0.0
C439 C 0.30939 0.63302 0.24129 0.0
C440 C 0.32104 0.62725 0.21665 0.0
C441 C 0.27691 0.56477 0.22064 0.0
N442 N 0.2817 0.5933 0.24387 0.0
O443 O 0.2628 0.50601 0.17096 0.0
H444 H 0.34268 0.6547 0.20909 0.0
H445 H 0.25587 0.53107 0.21646 0.0
O446 O 0.27806 0.64492 0.15956 0.0
C447 C 0.27496 0.44633 0.17554 0.0
O448 O 0.308 0.44007 0.1788 0.0
N449 N 0.34684 0.59693 0.16411 0.0
C450 C 0.41548 0.59023 0.15068 0.0
C451 C 0.39294 0.63168 0.1367 0.0
C452 C 0.35838 0.63395 0.14365 0.0
C453 C 0.3689 0.55842 0.17815 0.0
C454 C 0.40323 0.55569 0.17218 0.0
H455 H 0.34055 0.65995 0.13126 0.0
H456 H 0.35937 0.52497 0.19297 0.0
H457 H 0.27333 0.60561 0.11317 0.0
H458 H 0.33806 0.45183 0.08485 0.0
H459 H 0.31976 0.66624 0.25584 0.0
H460 H 0.4014 0.65827 0.11969 0.0
H461 H 0.4198 0.52359 0.18361 0.0
C462 C 0.66309 0.43544 0.95369 0.0
C463 C 0.66239 0.43706 0.97988 0.0
N464 N 0.66815 0.50173 0.98753 0.0
N465 N 0.67003 0.49842 0.94461 0.0
C466 C 0.67309 0.53781 0.96574 0.0
H467 H 0.65836 0.39089 0.94209 0.0
Co468 Co 0.67174 0.52048 0.9098 0.0
C469 C 0.68854 0.66967 0.91022 0.0
O470 O 0.66142 0.68113 0.89625 0.0
N471 N 0.67362 0.54254 0.87389 0.0
C472 C 0.66207 0.5811 0.83465 0.0
C473 C 0.65033 0.5755 0.85927 0.0
C474 C 0.69933 0.52888 0.85726 0.0
N475 N 0.69299 0.55176 0.83332 0.0
O476 O 0.71372 0.47016 0.90719 0.0
H477 H 0.62638 0.59614 0.8659 0.0
H478 H 0.72217 0.50159 0.86246 0.0
O479 O 0.69556 0.6083 0.91727 0.0
C480 C 0.70334 0.41067 0.90049 0.0
O481 O 0.67117 0.403 0.89448 0.0
N482 N 0.62797 0.5555 0.91272 0.0
C483 C 0.55757 0.56329 0.91654 0.0
C484 C 0.57809 0.61176 0.92901 0.0
C485 C 0.61377 0.606 0.92731 0.0
C486 C 0.60801 0.50672 0.90189 0.0
C487 C 0.57309 0.5093 0.90368 0.0
H488 H 0.62967 0.64069 0.93802 0.0
H489 H 0.61929 0.46494 0.89158 0.0
H490 H 0.67782 0.59226 0.96518 0.0
H491 H 0.65827 0.39348 0.99223 0.0
H492 H 0.64906 0.60632 0.81904 0.0
H493 H 0.56673 0.65293 0.9399 0.0
H494 H 0.55825 0.46908 0.89484 0.0
C495 C 0.31947 0.66544 0.95056 0.0
C496 C 0.3187 0.66803 0.97675 0.0
N497 N 0.29863 0.61709 0.98534 0.0
N498 N 0.3001 0.61293 0.94246 0.0
C499 C 0.28781 0.58411 0.96413 0.0
H500 H 0.33441 0.69812 0.93821 0.0
Co501 Co 0.29643 0.58824 0.90802 0.0
C502 C 0.27952 0.43859 0.91326 0.0
O503 O 0.30879 0.4225 0.90277 0.0
N504 N 0.29249 0.56301 0.87255 0.0
C505 C 0.30131 0.5139 0.83461 0.0
C506 C 0.31209 0.51802 0.85942 0.0
C507 C 0.26971 0.58507 0.85485 0.0
N508 N 0.27485 0.55667 0.8316 0.0
O509 O 0.25516 0.64017 0.90608 0.0
H510 H 0.33327 0.48942 0.86708 0.0
H511 H 0.24962 0.62146 0.85872 0.0
O512 O 0.27213 0.50181 0.91708 0.0
C513 C 0.26712 0.6995 0.90059 0.0
O514 O 0.29978 0.70459 0.8955 0.0
N515 N 0.34004 0.5522 0.90997 0.0
C516 C 0.41054 0.54836 0.91422 0.0
C517 C 0.39018 0.5072 0.93014 0.0
C518 C 0.35452 0.5111 0.9281 0.0
C519 C 0.35979 0.59386 0.89528 0.0
C520 C 0.39476 0.59295 0.89713 0.0
H521 H 0.3387 0.48382 0.94163 0.0
H522 H 0.3482 0.63045 0.88254 0.0
H523 H 0.27196 0.53889 0.96445 0.0
H524 H 0.33339 0.70245 0.98856 0.0
H525 H 0.31167 0.48037 0.82012 0.0
H526 H 0.40163 0.47387 0.94426 0.0
H527 H 0.40933 0.62848 0.88558 0.0
C528 C 0.21072 0.9795 0.27951 0.0
C529 C 0.20472 1.04091 0.26628 0.0
C530 C 0.23059 0.97826 0.30175 0.0
C531 C 0.24441 1.03861 0.31195 0.0
H532 H 0.20056 0.9319 0.27226 0.0
H533 H 0.23529 0.92974 0.31109 0.0
S534 S 0.23513 0.21287 0.28512 0.0
N535 N 0.21369 0.16369 0.26516 0.0
N536 N 0.25035 0.16147 0.30746 0.0
C537 C 0.23798 0.10055 0.29928 0.0
C538 C 0.21837 0.10165 0.27627 0.0
C539 C 0.77292 0.08337 0.28884 0.0
C540 C 0.75873 0.08161 0.26412 0.0
C541 C 0.75227 0.08105 0.3108 0.0
C542 C 0.71658 0.07763 0.30889 0.0
H543 H 0.80025 0.08701 0.29122 0.0
H544 H 0.76423 0.08422 0.32938 0.0
S545 S 0.66665 0.06859 0.24883 0.0
N546 N 0.7066 0.07472 0.23923 0.0
N547 N 0.66803 0.06847 0.28034 0.0
C548 C 0.70212 0.07388 0.28433 0.0
C549 C 0.7231 0.07625 0.26201 0.0
C550 C 0.24055 0.17898 0.77648 0.0
C551 C 0.25322 0.11844 0.7655 0.0
C552 C 0.21939 0.17735 0.7981 0.0
C553 C 0.21069 0.11521 0.80997 0.0
H554 H 0.24684 0.228 0.76809 0.0
H555 H 0.21006 0.22515 0.80582 0.0
S556 S 0.23742 0.94243 0.78892 0.0
N557 N 0.25545 0.99459 0.76805 0.0
N558 N 0.2162 0.99159 0.80911 0.0
C559 C 0.22336 0.05429 0.79934 0.0
C560 C 0.2444 0.05588 0.77696 0.0
C561 C 0.70112 1.00881 0.78931 0.0
C562 C 0.71432 1.00932 0.76426 0.0
C563 C 0.72267 1.00833 0.81072 0.0
C564 C 0.75832 1.0074 0.80795 0.0
H565 H 0.67384 1.00831 0.79238 0.0
H566 H 0.71134 1.00651 0.82958 0.0
S567 S 0.80593 1.01118 0.74664 0.0
N568 N 0.76548 1.01052 0.73804 0.0
N569 N 0.80588 1.01058 0.77818 0.0
C570 C 0.77188 1.00952 0.78304 0.0
C571 C 0.74994 1.01039 0.76124 0.0
C572 C 0.19934 0.57574 0.78801 0.0
C573 C 0.21398 0.57064 0.76347 0.0
C574 C 0.21942 0.5736 0.81015 0.0
C575 C 0.25497 0.56594 0.80866 0.0
H576 H 0.17201 0.58065 0.79015 0.0
H577 H 0.20689 0.57558 0.82857 0.0
S578 S 0.30632 0.55535 0.74916 0.0
N579 N 0.26654 0.56008 0.73913 0.0
N580 N 0.30431 0.55857 0.78063 0.0
C581 C 0.27011 0.56346 0.78426 0.0
C582 C 0.24965 0.56534 0.76171 0.0
C583 C 0.71937 0.54415 0.76403 0.0
C584 C 0.75509 0.54749 0.76527 0.0
C585 C 0.69942 0.54406 0.78632 0.0
C586 C 0.71434 0.54716 0.81079 0.0
H587 H 0.70667 0.5439 0.74569 0.0
H588 H 0.672 0.54215 0.78432 0.0
S589 S 0.8072 0.55074 0.82438 0.0
N590 N 0.80477 0.54811 0.79294 0.0
N591 N 0.76745 0.55111 0.83469 0.0
C592 C 0.75016 0.54821 0.81227 0.0
C593 C 0.77045 0.54772 0.78956 0.0
C594 C 0.22433 0.58464 0.26327 0.0
C595 C 0.25993 0.58791 0.26609 0.0
C596 C 0.20262 0.58499 0.28461 0.0
C597 C 0.2156 0.58793 0.30965 0.0
H598 H 0.21309 0.58397 0.2444 0.0
H599 H 0.17537 0.58345 0.28148 0.0
S600 S 0.30702 0.59318 0.32749 0.0
N601 N 0.30726 0.59035 0.29597 0.0
N602 N 0.26649 0.59255 0.33598 0.0
C603 C 0.25118 0.58928 0.31277 0.0
C604 C 0.2733 0.58905 0.29103 0.0
C605 C 0.72043 0.46796 0.27801 0.0
C606 C 0.71286 0.53 0.26567 0.0
C607 C 0.74173 0.4661 0.29948 0.0
C608 C 0.7555 0.52639 0.30976 0.0
H609 H 0.71019 0.42046 0.27073 0.0
H610 H 0.7473 0.41725 0.30829 0.0
S611 S 0.74285 0.7019 0.28491 0.0
N612 N 0.72064 0.65311 0.26529 0.0
N613 N 0.75999 0.64973 0.30619 0.0
C614 C 0.74775 0.58883 0.29787 0.0
C615 C 0.72666 0.59059 0.27563 0.0
C616 C 0.25127 0.25876 0.17121 0.0
C617 C 0.21763 0.25718 0.18027 0.0
C618 C 0.2692 0.32059 0.16948 0.0
C619 C 0.25412 0.38344 0.17643 0.0
H620 H 0.26377 0.21213 0.16514 0.0
H621 H 0.29514 0.31912 0.16238 0.0
S622 S 0.16737 0.40776 0.20254 0.0
N623 N 0.17035 0.32474 0.1974 0.0
N624 N 0.20422 0.4403 0.19344 0.0
C625 C 0.22068 0.38287 0.1856 0.0
C626 C 0.20246 0.31991 0.18777 0.0
C627 C 0.70501 0.8107 0.17731 0.0
C628 C 0.72168 0.74662 0.17813 0.0
C629 C 0.72324 0.87225 0.17628 0.0
C630 C 0.75893 0.87237 0.17633 0.0
H631 H 0.67745 0.81365 0.17722 0.0
H632 H 0.70923 0.91997 0.1757 0.0
S633 S 0.81491 0.71835 0.17802 0.0
N634 N 0.77586 0.68718 0.17865 0.0
N635 N 0.8105 0.80222 0.17689 0.0
C636 C 0.776 0.8085 0.17706 0.0
C637 C 0.75731 0.74583 0.17789 0.0
C638 C 0.24651 0.88903 0.89964 0.0
C639 C 0.21103 0.89055 0.89713 0.0
C640 C 0.26402 0.82674 0.90106 0.0
C641 C 0.24677 0.7633 0.9003 0.0
H642 H 0.26094 0.93619 0.90016 0.0
H643 H 0.29151 0.82862 0.90275 0.0
S644 S 0.15355 0.73895 0.89555 0.0
N645 N 0.15883 0.82265 0.8951 0.0
N646 N 0.19216 0.70607 0.89787 0.0
C647 C 0.21125 0.76396 0.89847 0.0
C648 C 0.1933 0.82742 0.89681 0.0
C649 C 0.70897 0.286 0.90756 0.0
C650 C 0.72456 0.34853 0.90093 0.0
C651 C 0.72629 0.22373 0.90541 0.0
C652 C 0.75987 0.22137 0.8963 0.0
H653 H 0.68285 0.28502 0.9143 0.0
H654 H 0.71317 0.17722 0.91084 0.0
S655 S 0.81199 0.37148 0.8761 0.0
N656 N 0.7752 0.40485 0.885 0.0
N657 N 0.80826 0.28823 0.88056 0.0
C658 C 0.77592 0.28401 0.88977 0.0
C659 C 0.7582 0.34752 0.89226 0.0
C660 C 0.77041 0.77201 0.91772 0.0
C661 C 0.75923 0.84061 0.91626 0.0
C662 C 0.74737 0.71692 0.91747 0.0
C663 C 0.71211 0.72796 0.91536 0.0
H664 H 0.7974 0.76046 0.91816 0.0
H665 H 0.75743 0.66534 0.9175 0.0
S666 S 0.66912 0.89739 0.91403 0.0
N667 N 0.71011 0.91609 0.91507 0.0
N668 N 0.66685 0.81309 0.91434 0.0
C669 C 0.70042 0.7963 0.9154 0.0
C670 C 0.72392 0.85242 0.91596 0.0
C671 C 0.26518 0.31345 0.91632 0.0
C672 C 0.2544 0.38233 0.9179 0.0
C673 C 0.24185 0.25886 0.91674 0.0
C674 C 0.20661 0.27069 0.91854 0.0
H675 H 0.29192 0.30138 0.91383 0.0
H676 H 0.25142 0.20734 0.91426 0.0
S677 S 0.16511 0.44032 0.92655 0.0
N678 N 0.20606 0.45828 0.92392 0.0
N679 N 0.16227 0.35628 0.92462 0.0
C680 C 0.1956 0.33895 0.92172 0.0
C681 C 0.21941 0.39452 0.92147 0.0
C682 C 0.70205 0.2987 0.16214 0.0
C683 C 0.7128 0.36734 0.1593 0.0
C684 C 0.72519 0.24366 0.16097 0.0
C685 C 0.76019 0.25482 0.15716 0.0
H686 H 0.67558 0.28721 0.16613 0.0
H687 H 0.7158 0.19243 0.16447 0.0
S688 S 0.80126 0.42317 0.14545 0.0
N689 N 0.7607 0.44201 0.15003 0.0
N690 N 0.80406 0.33923 0.14805 0.0
C691 C 0.77103 0.32269 0.15285 0.0
C692 C 0.74743 0.37867 0.15382 0.0
C693 C 0.20283 0.80836 0.16251 0.0
C694 C 0.21364 0.87702 0.16001 0.0
C695 C 0.22604 0.75344 0.16192 0.0
C696 C 0.2612 0.76469 0.15909 0.0
H697 H 0.17618 0.79675 0.16571 0.0
H698 H 0.21649 0.70214 0.165 0.0
S699 S 0.30265 0.93332 0.14872 0.0
N700 N 0.26188 0.95197 0.15222 0.0
N701 N 0.30542 0.84937 0.15131 0.0
C702 C 0.2722 0.83265 0.15519 0.0
C703 C 0.24851 0.88854 0.15556 0.0
C704 C 0.20333 0.839 0.67622 0.0
C705 C 0.2203 0.77542 0.67403 0.0
C706 C 0.22116 0.90091 0.67678 0.0
C707 C 0.25674 0.90184 0.67544 0.0
H708 H 0.17581 0.84143 0.67752 0.0
H709 H 0.20697 0.94816 0.67872 0.0
S710 S 0.31344 0.75025 0.66813 0.0
N711 N 0.27468 0.71775 0.66951 0.0
N712 N 0.30857 0.83382 0.67059 0.0
C713 C 0.27414 0.83877 0.67279 0.0
C714 C 0.25585 0.77567 0.67205 0.0
C715 C 0.75961 0.28895 0.66598 0.0
C716 C 0.74376 0.35167 0.67207 0.0
C717 C 0.74208 0.2268 0.6676 0.0
C718 C 0.70799 0.22475 0.67556 0.0
H719 H 0.78604 0.28767 0.65997 0.0
H720 H 0.75542 0.18016 0.66265 0.0
S721 S 0.65488 0.37529 0.6938 0.0
N722 N 0.69223 0.40833 0.6862 0.0
N723 N 0.6588 0.29203 0.68957 0.0
C724 C 0.69168 0.28753 0.68153 0.0
C725 C 0.70963 0.35088 0.67963 0.0
C726 C 0.19495 0.31673 0.39355 0.0
C727 C 0.21121 0.37879 0.40018 0.0
C728 C 0.21187 0.25371 0.39517 0.0
C729 C 0.24576 0.25054 0.40328 0.0
H730 H 0.16888 0.31655 0.3868 0.0
H731 H 0.19878 0.20772 0.38918 0.0
S732 S 0.29915 0.39624 0.42491 0.0
N733 N 0.2626 0.43171 0.41666 0.0
N734 N 0.29455 0.31361 0.41962 0.0
C735 C 0.26207 0.31169 0.41064 0.0
C736 C 0.24481 0.37575 0.40908 0.0
C737 C 0.72334 0.74371 0.39329 0.0
C738 C 0.75782 0.74109 0.39985 0.0
C739 C 0.70604 0.80628 0.39237 0.0
C740 C 0.7224 0.86878 0.39829 0.0
H741 H 0.70981 0.69738 0.38828 0.0
H742 H 0.67942 0.8052 0.38698 0.0
S743 S 0.81223 0.88853 0.41842 0.0
N744 N 0.80767 0.80568 0.41353 0.0
N745 N 0.77483 0.92309 0.41196 0.0
C746 C 0.75675 0.8666 0.40541 0.0
C747 C 0.77451 0.80284 0.40616 0.0
C748 C 0.76983 0.29051 0.41762 0.0
C749 C 0.75886 0.35935 0.4174 0.0
C750 C 0.74657 0.23592 0.41787 0.0
C751 C 0.71127 0.24778 0.41768 0.0
H752 H 0.79673 0.27837 0.41664 0.0
H753 H 0.75636 0.18422 0.41675 0.0
S754 S 0.66904 0.41777 0.42081 0.0
N755 N 0.71012 0.43572 0.41982 0.0
N756 N 0.66641 0.33355 0.42018 0.0
C757 C 0.69993 0.31619 0.41919 0.0
C758 C 0.72366 0.37181 0.41912 0.0
C759 C 0.19782 0.82867 0.41412 0.0
C760 C 0.20859 0.7599 0.41593 0.0
C761 C 0.22095 0.88323 0.41606 0.0
C762 C 0.25593 0.87133 0.41963 0.0
H763 H 0.17138 0.84068 0.41026 0.0
H764 H 0.21159 0.93479 0.41322 0.0
S765 S 0.29683 0.70169 0.42898 0.0
N766 N 0.25625 0.68371 0.42416 0.0
N767 N 0.29974 0.78582 0.42761 0.0
C768 C 0.26673 0.8031 0.42312 0.0
C769 C 0.2431 0.74755 0.42136 0.0
C770 C 0.76535 0.7999 0.66014 0.0
C771 C 0.75461 0.73135 0.65726 0.0
C772 C 0.74208 0.85466 0.65979 0.0
C773 C 0.70699 0.84318 0.65681 0.0
H774 H 0.79192 0.81148 0.66362 0.0
H775 H 0.75146 0.90582 0.66337 0.0
S776 S 0.66586 0.67517 0.645 0.0
N777 N 0.70661 0.65653 0.64859 0.0
N778 N 0.66297 0.75895 0.64815 0.0
C779 C 0.69612 0.77553 0.6523 0.0
C780 C 0.71986 0.71982 0.65243 0.0
C781 C 0.24669 0.40603 0.65602 0.0
C782 C 0.21153 0.39457 0.65863 0.0
C783 C 0.26991 0.35121 0.65538 0.0
C784 C 0.25899 0.28249 0.65704 0.0
H785 H 0.25657 0.45772 0.65584 0.0
H786 H 0.29683 0.3631 0.6545 0.0
S787 S 0.16909 0.22476 0.66036 0.0
N788 N 0.16656 0.30902 0.66015 0.0
N789 N 0.21012 0.2065 0.65881 0.0
C790 C 0.22371 0.2703 0.65783 0.0
C791 C 0.20006 0.32614 0.65871 0.0
C792 C 0.97283 0.12747 0.13562 0.0
C793 C 0.9508 0.0719 0.13912 0.0
C794 C 0.00816 0.11751 0.13485 0.0
C795 C 0.02251 0.05177 0.13776 0.0
H796 H 0.96297 0.17922 0.13563 0.0
H797 H 0.02447 0.16212 0.13402 0.0
S798 S 0.97505 0.8886 0.1414 0.0
N799 N 0.94518 0.94806 0.14046 0.0
N800 N 0.01175 0.92973 0.14001 0.0
C801 C 0.00059 0.99533 0.13825 0.0
C802 C 0.96462 1.00538 0.13876 0.0
C803 C 0.00866 1.00155 0.93406 0.0
C804 C 0.01842 0.07096 0.93356 0.0
C805 C 0.97425 0.98262 0.93407 0.0
C806 C 0.94871 1.03263 0.93371 0.0
H807 H 0.02775 0.96175 0.93236 0.0
H808 H 0.96772 0.92911 0.93202 0.0
S809 S 0.96077 0.22028 0.93767 0.0
N810 N -0.00013 0.18905 0.93658 0.0
N811 N 0.93504 0.15351 0.93713 0.0
C812 C 0.95812 0.10171 0.93628 0.0
C813 C -0.00689 0.12096 0.93613 0.0
C814 C 0.96515 0.55721 0.63473 0.0
C815 C 0.94726 0.56189 0.65799 0.0
C816 C 0.00078 0.54995 0.63443 0.0
C817 C 0.01926 0.54651 0.65738 0.0
H818 H 0.95152 0.55834 0.61676 0.0
H819 H 0.014 0.54891 0.61625 0.0
S820 S 0.98432 0.55585 0.72316 0.0
N821 N 0.9509 0.56481 0.70439 0.0
N822 N 0.01711 0.54562 0.70379 0.0
C823 C 0.00147 0.54952 0.68065 0.0
C824 C 0.9657 0.55904 0.68096 0.0
C825 C 0.96039 0.61516 0.43125 0.0
C826 C 0.94892 0.54683 0.43167 0.0
C827 C -0.00481 0.63055 0.43138 0.0
C828 C 0.01939 0.57797 0.43212 0.0
H829 H 0.94238 0.65666 0.42876 0.0
H830 H 0.00313 0.68306 0.42859 0.0
S831 S 0.00251 0.39243 0.43913 0.0
N832 N 0.9643 0.42742 0.4369 0.0
N833 N 0.02991 0.4564 0.43786 0.0
C834 C 0.0082 0.51029 0.43575 0.0
C835 C 0.97281 0.49461 0.4354 0.0
C836 C 0.45734 1.0093 0.64634 0.0
C837 C 0.44857 0.07924 0.64536 0.0
C838 C 0.49143 0.98819 0.64566 0.0
C839 C 0.51764 1.03646 0.64387 0.0
H840 H 0.43781 0.97107 0.64948 0.0
H841 H 0.49736 0.93472 0.64875 0.0
S842 S 0.508 0.22389 0.63613 0.0
N843 N 0.46857 0.19541 0.63909 0.0
N844 N 0.5328 0.15569 0.63741 0.0
C845 C 0.50907 0.10563 0.64012 0.0
C846 C 0.4744 0.12712 0.64092 0.0
C847 C 0.46653 0.06018 0.39234 0.0
C848 C 0.44763 0.05573 0.41512 0.0
C849 C 0.50132 0.07309 0.39258 0.0
C850 C 0.51942 0.07861 0.41562 0.0
H851 H 0.45436 0.05373 0.37395 0.0
H852 H 0.51435 0.07691 0.37437 0.0
S853 S 0.48234 0.07156 0.48078 0.0
N854 N 0.44936 0.06154 0.46157 0.0
N855 N 0.51601 0.07917 0.46201 0.0
C856 C 0.50112 0.07432 0.43868 0.0
C857 C 0.46506 0.06356 0.43844 0.0
C858 C 0.50025 0.50098 0.14276 0.0
C859 C 0.52301 0.55607 0.14192 0.0
C860 C 0.46502 0.51244 0.14324 0.0
C861 C 0.45148 0.57932 0.14305 0.0
H862 H 0.50966 0.44929 0.14515 0.0
H863 H 0.44829 0.4688 0.1455 0.0
S864 S 0.50062 0.73962 0.1356 0.0
N865 N 0.52981 0.6788 0.13644 0.0
N866 N 0.46353 0.70037 0.13817 0.0
C867 C 0.47392 0.6342 0.13946 0.0
C868 C 0.50976 0.6225 0.13874 0.0
C869 C 0.46547 0.55789 0.93848 0.0
C870 C 0.44815 0.54831 0.91524 0.0
C871 C 0.50103 0.56653 0.93893 0.0
C872 C 0.52002 0.56648 0.91613 0.0
H873 H 0.45144 0.55973 0.9563 0.0
H874 H 0.51379 0.57159 0.95716 0.0
S875 S 0.48661 0.54375 0.85044 0.0
N876 N 0.45287 0.537 0.86908 0.0
N877 N 0.51887 0.55866 0.86979 0.0
C878 C 0.50278 0.55833 0.89284 0.0
C879 C 0.4671 0.54747 0.89244 0.0
C880 C 0.19038 0.09466 1.01862 0.0
C881 C 0.16619 0.04572 1.01076 0.0
C882 C 0.19326 0.11427 0.04437 0.0
C883 C 0.17258 0.08471 0.06331 0.0
H884 H 0.20725 0.11811 1.0048 0.0
H885 H 0.21175 0.15283 0.04959 0.0
S886 S 0.10339 0.95938 0.05331 0.0
N887 N 0.11933 0.97231 1.02449 0.0
N888 N 0.12623 1.00724 0.07274 0.0
C889 C 0.14842 1.036 0.05594 0.0
C890 C 0.14488 1.01691 1.02973 0.0
C891 C 0.80025 1.00067 1.01744 0.0
C892 C 0.80063 0.06883 1.00888 0.0
C893 C 0.8004 0.98496 0.04363 0.0
C894 C 0.8007 1.03666 0.06236 0.0
H895 H 0.80148 0.95915 1.00382 0.0
H896 H 0.80115 0.93173 0.04928 0.0
S897 S 0.79839 0.22344 0.04988 0.0
N898 N 0.79827 0.18848 1.02119 0.0
N899 N 0.79948 0.15909 0.07029 0.0
C900 C 0.79939 0.10504 0.05404 0.0
C901 C 0.7992 0.12103 1.02736 0.0
C902 C 0.16697 0.5317 0.55531 0.0
C903 C 0.17129 0.60111 0.56146 0.0
C904 C 0.16533 0.51001 0.52977 0.0
C905 C 0.16811 0.55675 0.50936 0.0
H906 H 0.16338 0.49425 0.57031 0.0
H907 H 0.16115 0.4563 0.52596 0.0
S908 S 0.1826 0.74368 0.51539 0.0
N909 N 0.18116 0.71571 0.54513 0.0
N910 N 0.17683 0.67568 0.4973 0.0
C911 C 0.17384 0.62599 0.51531 0.0
C912 C 0.17567 0.64794 0.54129 0.0
C913 C 0.79786 0.61347 0.52993 0.0
C914 C 0.79631 0.56623 0.50966 0.0
C915 C 0.7963 0.59202 0.55552 0.0
C916 C 0.79337 0.52238 0.56184 0.0
H917 H 0.80113 0.66738 0.52595 0.0
H918 H 0.79902 0.62987 0.57044 0.0
S919 S 0.78548 0.3784 0.51619 0.0
N920 N 0.79003 0.44657 0.4979 0.0
N921 N 0.78602 0.40685 0.54586 0.0
C922 C 0.79011 0.47498 0.54181 0.0
C923 C 0.79179 0.4967 0.51578 0.0
C924 C 0.66444 0.10975 0.54507 0.0
C925 C 0.6663 0.05921 0.56426 0.0
C926 C 0.66628 0.09284 0.51901 0.0
C927 C 0.66984 1.02456 0.51104 0.0
H928 H 0.66086 0.16283 0.55024 0.0
H929 H 0.66346 0.13318 0.505 0.0
S930 S 0.67857 0.87324 0.5534 0.0
N931 N 0.67339 0.93798 0.57321 0.0
N932 N 0.67794 0.9067 0.52445 0.0
C933 C 0.67325 0.97387 0.53 0.0
C934 C 0.67128 0.99102 0.55652 0.0
C935 C 0.29856 1.02803 0.5202 0.0
C936 C 0.29767 0.09638 0.51187 0.0
C937 C 0.2996 1.01177 0.54635 0.0
C938 C 0.29948 0.06311 0.56523 0.0
H939 H 0.30001 0.98695 0.5064 0.0
H940 H 0.30125 0.95851 0.55185 0.0
S941 S 0.29433 0.24996 0.55333 0.0
N942 N 0.29401 0.21556 0.52455 0.0
N943 N 0.29679 0.18529 0.57353 0.0
C944 C 0.29706 0.13156 0.55712 0.0
C945 C 0.29602 0.14807 0.53051 0.0
C946 C 0.69109 0.60516 0.04584 0.0
C947 C 0.67124 0.57453 0.06504 0.0
C948 C 0.68991 0.58137 1.02052 0.0
C949 C 0.66843 0.52682 1.01352 0.0
H950 H 0.70789 0.64714 0.05057 0.0
H951 H 0.70624 0.60524 1.00642 0.0
S952 S 0.60781 0.43673 0.0566 0.0
N953 N 0.62779 0.49123 0.07536 0.0
N954 N 0.62425 0.44799 1.02784 0.0
C955 C 0.64753 0.49768 1.03259 0.0
C956 C 0.64926 0.52122 0.05834 0.0
C957 C 0.29513 0.52741 1.01859 0.0
C958 C 0.29434 0.59688 1.0117 0.0
C959 C 0.29609 0.50729 0.04433 0.0
C960 C 0.29609 0.55575 0.06423 0.0
H961 H 0.29666 0.4884 1.00398 0.0
H962 H 0.29775 0.4533 0.04872 0.0
S963 S 0.29083 0.74409 0.05626 0.0
N964 N 0.2905 0.71401 1.02682 0.0
N965 N 0.29334 0.67652 0.07508 0.0
C966 C 0.2936 0.62532 0.05759 0.0
C967 C 0.29255 0.64575 1.03137 0.0
loop_
_geom_bond_atom_site_label_1
_geom_bond_atom_site_label_2
_geom_bond_distance
_geom_bond_site_symmetry_2
_ccdc_geom_bond_type
C0 C1 1.351 . S
C0 N3 1.368 . S
C0 H5 0.931 . S
C1 C0 1.351 . S
C1 N2 1.373 . S
C1 H29 0.930 . S
N2 C1 1.373 . S
N2 C4 1.340 . S
N3 C0 1.368 . S
N3 C4 1.321 . S
N3 Co6 2.135 . S
C4 N2 1.340 . S
C4 N3 1.321 . S
C4 H28 0.930 1_545 S
H5 C0 0.931 . S
Co6 N3 2.135 . S
Co6 N9 2.121 . S
Co6 O14 2.055 . S
Co6 O17 2.039 1_545 S
Co6 N20 2.140 . S
C7 O8 1.227 . S
C7 O17 1.265 . S
O8 C7 1.227 . S
N9 Co6 2.121 . S
N9 C11 1.375 1_545 S
N9 C12 1.313 . S
C10 C11 1.338 . S
C10 N13 1.377 1_565 S
C10 H30 0.930 . S
C11 N9 1.375 1_565 S
C11 C10 1.338 . S
C11 H15 0.931 . S
C12 N9 1.313 . S
C12 N13 1.344 . S
C12 H16 0.930 . S
N13 C10 1.377 1_545 S
N13 C12 1.344 . S
O14 Co6 2.055 . S
O14 C18 1.253 . S
H15 C11 0.931 . S
H16 C12 0.930 . S
O17 Co6 2.039 1_565 S
O17 C7 1.265 . S
C18 O14 1.253 . S
C18 O19 1.227 . S
O19 C18 1.227 . S
N20 Co6 2.140 . S
N20 C23 1.346 1_545 S
N20 C24 1.345 . S
C21 C22 1.387 1_545 S
C21 C25 1.391 . S
C22 C21 1.387 1_565 S
C22 C23 1.369 . S
C22 H31 0.929 . S
C23 N20 1.346 1_565 S
C23 C22 1.369 . S
C23 H26 0.928 . S
C24 N20 1.345 . S
C24 C25 1.371 . S
C24 H27 0.931 . S
C25 C21 1.391 . S
C25 C24 1.371 . S
C25 H32 0.930 . S
H26 C23 0.928 . S
H27 C24 0.931 . S
H28 C4 0.930 1_565 S
H29 C1 0.930 . S
H30 C10 0.930 . S
H31 C22 0.929 . S
H32 C25 0.930 . S
C33 C34 1.351 . S
C33 N36 1.368 . S
C33 H38 0.931 . S
C34 C33 1.351 . S
C34 N35 1.373 1_565 S
C34 H62 0.930 . S
N35 C34 1.373 1_545 S
N35 C37 1.340 . S
N36 C33 1.368 . S
N36 C37 1.321 1_565 S
N36 Co39 2.135 1_565 S
C37 N35 1.340 . S
C37 N36 1.321 1_545 S
C37 H61 0.930 . S
H38 C33 0.931 . S
Co39 N36 2.135 1_545 S
Co39 N42 2.121 . S
Co39 O47 2.055 1_545 S
Co39 O50 2.039 . S
Co39 N53 2.140 . S
C40 O41 1.227 . S
C40 O50 1.265 . S
O41 C40 1.227 . S
N42 Co39 2.121 . S
N42 C44 1.375 . S
N42 C45 1.313 1_545 S
C43 C44 1.338 . S
C43 N46 1.377 . S
C43 H63 0.930 . S
C44 N42 1.375 . S
C44 C43 1.338 . S
C44 H48 0.931 . S
C45 N42 1.313 1_565 S
C45 N46 1.344 1_565 S
C45 H49 0.930 . S
N46 C43 1.377 . S
N46 C45 1.344 1_545 S
O47 Co39 2.055 1_565 S
O47 C51 1.253 . S
H48 C44 0.931 . S
H49 C45 0.930 . S
O50 Co39 2.039 . S
O50 C40 1.265 . S
C51 O47 1.253 . S
C51 O52 1.227 . S
O52 C51 1.227 . S
N53 Co39 2.140 . S
N53 C56 1.346 . S
N53 C57 1.345 1_545 S
C54 C55 1.387 . S
C54 C58 1.391 1_545 S
C55 C54 1.387 . S
C55 C56 1.369 . S
C55 H64 0.929 . S
C56 N53 1.346 . S
C56 C55 1.369 . S
C56 H59 0.928 . S
C57 N53 1.345 1_565 S
C57 C58 1.371 . S
C57 H60 0.931 . S
C58 C54 1.391 1_565 S
C58 C57 1.371 . S
C58 H65 0.930 . S
H59 C56 0.928 . S
H60 C57 0.931 . S
H61 C37 0.930 . S
H62 C34 0.930 . S
H63 C43 0.930 . S
H64 C55 0.929 . S
H65 C58 0.930 . S
C66 C67 1.351 . S
C66 N69 1.368 . S
C66 H71 0.931 . S
C67 C66 1.351 . S
C67 N68 1.373 1_565 S
C67 H95 0.930 . S
N68 C67 1.373 1_545 S
N68 C70 1.340 . S
N69 C66 1.368 . S
N69 C70 1.321 1_565 S
N69 Co72 2.135 1_565 S
C70 N68 1.340 . S
C70 N69 1.321 1_545 S
C70 H94 0.930 . S
H71 C66 0.931 . S
Co72 N69 2.135 1_545 S
Co72 N75 2.121 . S
Co72 O80 2.055 1_545 S
Co72 O83 2.039 . S
Co72 N86 2.140 . S
C73 O74 1.227 . S
C73 O83 1.265 . S
O74 C73 1.227 . S
N75 Co72 2.121 . S
N75 C77 1.375 . S
N75 C78 1.313 1_545 S
C76 C77 1.338 . S
C76 N79 1.377 . S
C76 H96 0.930 . S
C77 N75 1.375 . S
C77 C76 1.338 . S
C77 H81 0.931 . S
C78 N75 1.313 1_565 S
C78 N79 1.344 1_565 S
C78 H82 0.930 . S
N79 C76 1.377 . S
N79 C78 1.344 1_545 S
O80 Co72 2.055 1_565 S
O80 C84 1.253 . S
H81 C77 0.931 . S
H82 C78 0.930 . S
O83 Co72 2.039 . S
O83 C73 1.265 . S
C84 O80 1.253 . S
C84 O85 1.227 . S
O85 C84 1.227 . S
N86 Co72 2.140 . S
N86 C89 1.346 . S
N86 C90 1.345 1_545 S
C87 C88 1.387 . S
C87 C91 1.391 1_545 S
C88 C87 1.387 . S
C88 C89 1.369 . S
C88 H97 0.929 . S
C89 N86 1.346 . S
C89 C88 1.369 . S
C89 H92 0.928 . S
C90 N86 1.345 1_565 S
C90 C91 1.371 . S
C90 H93 0.931 . S
C91 C87 1.391 1_565 S
C91 C90 1.371 . S
C91 H98 0.930 . S
H92 C89 0.928 . S
H93 C90 0.931 . S
H94 C70 0.930 . S
H95 C67 0.930 . S
H96 C76 0.930 . S
H97 C88 0.929 . S
H98 C91 0.930 . S
C99 C100 1.351 . S
C99 N102 1.368 . S
C99 H104 0.931 . S
C100 C99 1.351 . S
C100 N101 1.373 . S
C100 H128 0.930 . S
N101 C100 1.373 . S
N101 C103 1.340 . S
N102 C99 1.368 . S
N102 C103 1.321 . S
N102 Co105 2.135 . S
C103 N101 1.340 . S
C103 N102 1.321 . S
C103 H127 0.930 1_545 S
H104 C99 0.931 . S
Co105 N102 2.135 . S
Co105 N108 2.121 . S
Co105 O113 2.055 . S
Co105 O116 2.039 1_545 S
Co105 N119 2.140 . S
C106 O107 1.227 . S
C106 O116 1.265 . S
O107 C106 1.227 . S
N108 Co105 2.121 . S
N108 C110 1.375 1_545 S
N108 C111 1.313 . S
C109 C110 1.338 . S
C109 N112 1.377 1_565 S
C109 H129 0.930 . S
C110 N108 1.375 1_565 S
C110 C109 1.338 . S
C110 H114 0.931 . S
C111 N108 1.313 . S
C111 N112 1.344 . S
C111 H115 0.930 . S
N112 C109 1.377 1_545 S
N112 C111 1.344 . S
O113 Co105 2.055 . S
O113 C117 1.253 . S
H114 C110 0.931 . S
H115 C111 0.930 . S
O116 Co105 2.039 1_565 S
O116 C106 1.265 . S
C117 O113 1.253 . S
C117 O118 1.227 . S
O118 C117 1.227 . S
N119 Co105 2.140 . S
N119 C122 1.346 1_545 S
N119 C123 1.345 . S
C120 C121 1.387 1_545 S
C120 C124 1.391 . S
C121 C120 1.387 1_565 S
C121 C122 1.369 . S
C121 H130 0.929 . S
C122 N119 1.346 1_565 S
C122 C121 1.369 . S
C122 H125 0.928 . S
C123 N119 1.345 . S
C123 C124 1.371 . S
C123 H126 0.931 . S
C124 C120 1.391 . S
C124 C123 1.371 . S
C124 H131 0.930 . S
H125 C122 0.928 . S
H126 C123 0.931 . S
H127 C103 0.930 1_565 S
H128 C100 0.930 . S
H129 C109 0.930 . S
H130 C121 0.929 . S
H131 C124 0.930 . S
C132 C133 1.351 . S
C132 N135 1.368 . S
C132 H137 0.931 . S
C133 C132 1.351 . S
C133 N134 1.373 . S
C133 H161 0.930 . S
N134 C133 1.373 . S
N134 C136 1.340 . S
N135 C132 1.368 . S
N135 C136 1.321 . S
N135 Co138 2.135 . S
C136 N134 1.340 . S
C136 N135 1.321 . S
C136 H160 0.930 . S
H137 C132 0.931 . S
Co138 N135 2.135 . S
Co138 N141 2.121 . S
Co138 O146 2.055 . S
Co138 O149 2.039 . S
Co138 N152 2.140 . S
C139 O140 1.227 . S
C139 O149 1.265 . S
O140 C139 1.227 . S
N141 Co138 2.121 . S
N141 C143 1.375 . S
N141 C144 1.313 . S
C142 C143 1.338 . S
C142 N145 1.377 . S
C142 H162 0.930 . S
C143 N141 1.375 . S
C143 C142 1.338 . S
C143 H147 0.931 . S
C144 N141 1.313 . S
C144 N145 1.344 . S
C144 H148 0.930 . S
N145 C142 1.377 . S
N145 C144 1.344 . S
O146 Co138 2.055 . S
O146 C150 1.253 . S
H147 C143 0.931 . S
H148 C144 0.930 . S
O149 Co138 2.039 . S
O149 C139 1.265 . S
C150 O146 1.253 . S
C150 O151 1.227 . S
O151 C150 1.227 . S
N152 Co138 2.140 . S
N152 C155 1.346 . S
N152 C156 1.345 . S
C153 C154 1.387 . S
C153 C157 1.391 . S
C154 C153 1.387 . S
C154 C155 1.369 . S
C154 H163 0.929 . S
C155 N152 1.346 . S
C155 C154 1.369 . S
C155 H158 0.928 . S
C156 N152 1.345 . S
C156 C157 1.371 . S
C156 H159 0.931 . S
C157 C153 1.391 . S
C157 C156 1.371 . S
C157 H164 0.930 . S
H158 C155 0.928 . S
H159 C156 0.931 . S
H160 C136 0.930 . S
H161 C133 0.930 . S
H162 C142 0.930 . S
H163 C154 0.929 . S
H164 C157 0.930 . S
C165 C166 1.351 . S
C165 N168 1.368 . S
C165 H170 0.931 . S
C166 C165 1.351 . S
C166 N167 1.373 . S
C166 H194 0.930 . S
N167 C166 1.373 . S
N167 C169 1.340 . S
N168 C165 1.368 . S
N168 C169 1.321 . S
N168 Co171 2.135 . S
C169 N167 1.340 . S
C169 N168 1.321 . S
C169 H193 0.930 . S
H170 C165 0.931 . S
Co171 N168 2.135 . S
Co171 N174 2.121 . S
Co171 O179 2.055 . S
Co171 O182 2.039 . S
Co171 N185 2.140 . S
C172 O173 1.227 . S
C172 O182 1.265 . S
O173 C172 1.227 . S
N174 Co171 2.121 . S
N174 C176 1.375 . S
N174 C177 1.313 . S
C175 C176 1.338 . S
C175 N178 1.377 . S
C175 H195 0.930 . S
C176 N174 1.375 . S
C176 C175 1.338 . S
C176 H180 0.931 . S
C177 N174 1.313 . S
C177 N178 1.344 . S
C177 H181 0.930 . S
N178 C175 1.377 . S
N178 C177 1.344 . S
O179 Co171 2.055 . S
O179 C183 1.253 . S
H180 C176 0.931 . S
H181 C177 0.930 . S
O182 Co171 2.039 . S
O182 C172 1.265 . S
C183 O179 1.253 . S
C183 O184 1.227 . S
O184 C183 1.227 . S
N185 Co171 2.140 . S
N185 C188 1.346 . S
N185 C189 1.345 . S
C186 C187 1.387 . S
C186 C190 1.391 . S
C187 C186 1.387 . S
C187 C188 1.369 . S
C187 H196 0.929 . S
C188 N185 1.346 . S
C188 C187 1.369 . S
C188 H191 0.928 . S
C189 N185 1.345 . S
C189 C190 1.371 . S
C189 H192 0.931 . S
C190 C186 1.391 . S
C190 C189 1.371 . S
C190 H197 0.930 . S
H191 C188 0.928 . S
H192 C189 0.931 . S
H193 C169 0.930 . S
H194 C166 0.930 . S
H195 C175 0.930 . S
H196 C187 0.929 . S
H197 C190 0.930 . S
C198 C199 1.351 . S
C198 N201 1.368 . S
C198 H203 0.931 . S
C199 C198 1.351 . S
C199 N200 1.373 . S
C199 H227 0.930 . S
N200 C199 1.373 . S
N200 C202 1.340 . S
N201 C198 1.368 . S
N201 C202 1.321 . S
N201 Co204 2.135 . S
C202 N200 1.340 . S
C202 N201 1.321 . S
C202 H226 0.930 . S
H203 C198 0.931 . S
Co204 N201 2.135 . S
Co204 N207 2.121 . S
Co204 O212 2.055 . S
Co204 O215 2.039 . S
Co204 N218 2.140 . S
C205 O206 1.227 . S
C205 O215 1.265 . S
O206 C205 1.227 . S
N207 Co204 2.121 . S
N207 C209 1.375 . S
N207 C210 1.313 . S
C208 C209 1.338 . S
C208 N211 1.377 . S
C208 H228 0.930 . S
C209 N207 1.375 . S
C209 C208 1.338 . S
C209 H213 0.931 . S
C210 N207 1.313 . S
C210 N211 1.344 . S
C210 H214 0.930 . S
N211 C208 1.377 . S
N211 C210 1.344 . S
O212 Co204 2.055 . S
O212 C216 1.253 . S
H213 C209 0.931 . S
H214 C210 0.930 . S
O215 Co204 2.039 . S
O215 C205 1.265 . S
C216 O212 1.253 . S
C216 O217 1.227 . S
O217 C216 1.227 . S
N218 Co204 2.140 . S
N218 C221 1.346 . S
N218 C222 1.345 . S
C219 C220 1.387 . S
C219 C223 1.391 . S
C220 C219 1.387 . S
C220 C221 1.369 . S
C220 H229 0.929 . S
C221 N218 1.346 . S
C221 C220 1.369 . S
C221 H224 0.928 . S
C222 N218 1.345 . S
C222 C223 1.371 . S
C222 H225 0.931 . S
C223 C219 1.391 . S
C223 C222 1.371 . S
C223 H230 0.930 . S
H224 C221 0.928 . S
H225 C222 0.931 . S
H226 C202 0.930 . S
H227 C199 0.930 . S
H228 C208 0.930 . S
H229 C220 0.929 . S
H230 C223 0.930 . S
C231 C232 1.351 . S
C231 N234 1.368 . S
C231 H236 0.931 . S
C232 C231 1.351 . S
C232 N233 1.373 . S
C232 H260 0.930 . S
N233 C232 1.373 . S
N233 C235 1.340 . S
N234 C231 1.368 . S
N234 C235 1.321 . S
N234 Co237 2.135 . S
C235 N233 1.340 . S
C235 N234 1.321 . S
C235 H259 0.930 . S
H236 C231 0.931 . S
Co237 N234 2.135 . S
Co237 N240 2.121 . S
Co237 O245 2.055 . S
Co237 O248 2.039 . S
Co237 N251 2.140 . S
C238 O239 1.227 . S
C238 O248 1.265 . S
O239 C238 1.227 . S
N240 Co237 2.121 . S
N240 C242 1.375 . S
N240 C243 1.313 . S
C241 C242 1.338 . S
C241 N244 1.377 . S
C241 H261 0.930 . S
C242 N240 1.375 . S
C242 C241 1.338 . S
C242 H246 0.931 . S
C243 N240 1.313 . S
C243 N244 1.344 . S
C243 H247 0.930 . S
N244 C241 1.377 . S
N244 C243 1.344 . S
O245 Co237 2.055 . S
O245 C249 1.253 . S
H246 C242 0.931 . S
H247 C243 0.930 . S
O248 Co237 2.039 . S
O248 C238 1.265 . S
C249 O245 1.253 . S
C249 O250 1.227 . S
O250 C249 1.227 . S
N251 Co237 2.140 . S
N251 C254 1.346 . S
N251 C255 1.345 . S
C252 C253 1.387 . S
C252 C256 1.391 . S
C253 C252 1.387 . S
C253 C254 1.369 . S
C253 H262 0.929 . S
C254 N251 1.346 . S
C254 C253 1.369 . S
C254 H257 0.928 . S
C255 N251 1.345 . S
C255 C256 1.371 . S
C255 H258 0.931 . S
C256 C252 1.391 . S
C256 C255 1.371 . S
C256 H263 0.930 . S
H257 C254 0.928 . S
H258 C255 0.931 . S
H259 C235 0.930 . S
H260 C232 0.930 . S
H261 C241 0.930 . S
H262 C253 0.929 . S
H263 C256 0.930 . S
C264 C265 1.351 . S
C264 N267 1.368 . S
C264 H269 0.931 . S
C265 C264 1.351 . S
C265 N266 1.373 . S
C265 H293 0.930 . S
N266 C265 1.373 . S
N266 C268 1.340 . S
N267 C264 1.368 . S
N267 C268 1.321 . S
N267 Co270 2.135 . S
C268 N266 1.340 . S
C268 N267 1.321 . S
C268 H292 0.930 1_545 S
H269 C264 0.931 . S
Co270 N267 2.135 . S
Co270 N273 2.121 . S
Co270 O278 2.055 . S
Co270 O281 2.039 1_545 S
Co270 N284 2.140 . S
C271 O272 1.227 . S
C271 O281 1.265 . S
O272 C271 1.227 . S
N273 Co270 2.121 . S
N273 C275 1.375 1_545 S
N273 C276 1.313 . S
C274 C275 1.338 . S
C274 N277 1.377 1_565 S
C274 H294 0.930 . S
C275 N273 1.375 1_565 S
C275 C274 1.338 . S
C275 H279 0.931 . S
C276 N273 1.313 . S
C276 N277 1.344 . S
C276 H280 0.930 . S
N277 C274 1.377 1_545 S
N277 C276 1.344 . S
O278 Co270 2.055 . S
O278 C282 1.253 . S
H279 C275 0.931 . S
H280 C276 0.930 . S
O281 Co270 2.039 1_565 S
O281 C271 1.265 . S
C282 O278 1.253 . S
C282 O283 1.227 . S
O283 C282 1.227 . S
N284 Co270 2.140 . S
N284 C287 1.346 1_545 S
N284 C288 1.345 . S
C285 C286 1.387 1_545 S
C285 C289 1.391 . S
C286 C285 1.387 1_565 S
C286 C287 1.369 . S
C286 H295 0.929 . S
C287 N284 1.346 1_565 S
C287 C286 1.369 . S
C287 H290 0.928 . S
C288 N284 1.345 . S
C288 C289 1.371 . S
C288 H291 0.931 . S
C289 C285 1.391 . S
C289 C288 1.371 . S
C289 H296 0.930 . S
H290 C287 0.928 . S
H291 C288 0.931 . S
H292 C268 0.930 1_565 S
H293 C265 0.930 . S
H294 C274 0.930 . S
H295 C286 0.929 . S
H296 C289 0.930 . S
C297 C298 1.351 . S
C297 N300 1.368 . S
C297 H302 0.931 . S
C298 C297 1.351 . S
C298 N299 1.373 1_565 S
C298 H326 0.930 . S
N299 C298 1.373 1_545 S
N299 C301 1.340 . S
N300 C297 1.368 . S
N300 C301 1.321 1_565 S
N300 Co303 2.135 1_565 S
C301 N299 1.340 . S
C301 N300 1.321 1_545 S
C301 H325 0.930 . S
H302 C297 0.931 . S
Co303 N300 2.135 1_545 S
Co303 N306 2.121 . S
Co303 O311 2.055 1_545 S
Co303 O314 2.039 . S
Co303 N317 2.140 . S
C304 O305 1.227 . S
C304 O314 1.265 . S
O305 C304 1.227 . S
N306 Co303 2.121 . S
N306 C308 1.375 . S
N306 C309 1.313 1_545 S
C307 C308 1.338 . S
C307 N310 1.377 . S
C307 H327 0.930 . S
C308 N306 1.375 . S
C308 C307 1.338 . S
C308 H312 0.931 . S
C309 N306 1.313 1_565 S
C309 N310 1.344 1_565 S
C309 H313 0.930 . S
N310 C307 1.377 . S
N310 C309 1.344 1_545 S
O311 Co303 2.055 1_565 S
O311 C315 1.253 . S
H312 C308 0.931 . S
H313 C309 0.930 . S
O314 Co303 2.039 . S
O314 C304 1.265 . S
C315 O311 1.253 . S
C315 O316 1.227 . S
O316 C315 1.227 . S
N317 Co303 2.140 . S
N317 C320 1.346 . S
N317 C321 1.345 1_545 S
C318 C319 1.387 . S
C318 C322 1.391 1_545 S
C319 C318 1.387 . S
C319 C320 1.369 . S
C319 H328 0.929 . S
C320 N317 1.346 . S
C320 C319 1.369 . S
C320 H323 0.928 . S
C321 N317 1.345 1_565 S
C321 C322 1.371 . S
C321 H324 0.931 . S
C322 C318 1.391 1_565 S
C322 C321 1.371 . S
C322 H329 0.930 . S
H323 C320 0.928 . S
H324 C321 0.931 . S
H325 C301 0.930 . S
H326 C298 0.930 . S
H327 C307 0.930 . S
H328 C319 0.929 . S
H329 C322 0.930 . S
C330 C331 1.351 . S
C330 N333 1.368 . S
C330 H335 0.931 . S
C331 C330 1.351 . S
C331 N332 1.373 1_565 S
C331 H359 0.930 . S
N332 C331 1.373 1_545 S
N332 C334 1.340 . S
N333 C330 1.368 . S
N333 C334 1.321 1_565 S
N333 Co336 2.135 1_565 S
C334 N332 1.340 . S
C334 N333 1.321 1_545 S
C334 H358 0.930 . S
H335 C330 0.931 . S
Co336 N333 2.135 1_545 S
Co336 N339 2.121 . S
Co336 O344 2.055 1_545 S
Co336 O347 2.039 . S
Co336 N350 2.140 . S
C337 O338 1.227 . S
C337 O347 1.265 . S
O338 C337 1.227 . S
N339 Co336 2.121 . S
N339 C341 1.375 . S
N339 C342 1.313 1_545 S
C340 C341 1.338 . S
C340 N343 1.377 . S
C340 H360 0.930 . S
C341 N339 1.375 . S
C341 C340 1.338 . S
C341 H345 0.931 . S
C342 N339 1.313 1_565 S
C342 N343 1.344 1_565 S
C342 H346 0.930 . S
N343 C340 1.377 . S
N343 C342 1.344 1_545 S
O344 Co336 2.055 1_565 S
O344 C348 1.253 . S
H345 C341 0.931 . S
H346 C342 0.930 . S
O347 Co336 2.039 . S
O347 C337 1.265 . S
C348 O344 1.253 . S
C348 O349 1.227 . S
O349 C348 1.227 . S
N350 Co336 2.140 . S
N350 C353 1.346 . S
N350 C354 1.345 1_545 S
C351 C352 1.387 . S
C351 C355 1.391 1_545 S
C352 C351 1.387 . S
C352 C353 1.369 . S
C352 H361 0.929 . S
C353 N350 1.346 . S
C353 C352 1.369 . S
C353 H356 0.928 . S
C354 N350 1.345 1_565 S
C354 C355 1.371 . S
C354 H357 0.931 . S
C355 C351 1.391 1_565 S
C355 C354 1.371 . S
C355 H362 0.930 . S
H356 C353 0.928 . S
H357 C354 0.931 . S
H358 C334 0.930 . S
H359 C331 0.930 . S
H360 C340 0.930 . S
H361 C352 0.929 . S
H362 C355 0.930 . S
C363 C364 1.351 . S
C363 N366 1.368 . S
C363 H368 0.931 . S
C364 C363 1.351 . S
C364 N365 1.373 . S
C364 H392 0.930 . S
N365 C364 1.373 . S
N365 C367 1.340 . S
N366 C363 1.368 . S
N366 C367 1.321 . S
N366 Co369 2.135 . S
C367 N365 1.340 . S
C367 N366 1.321 . S
C367 H391 0.930 1_545 S
H368 C363 0.931 . S
Co369 N366 2.135 . S
Co369 N372 2.121 . S
Co369 O377 2.055 . S
Co369 O380 2.039 1_545 S
Co369 N383 2.140 . S
C370 O371 1.227 . S
C370 O380 1.265 . S
O371 C370 1.227 . S
N372 Co369 2.121 . S
N372 C374 1.375 1_545 S
N372 C375 1.313 . S
C373 C374 1.338 . S
C373 N376 1.377 1_565 S
C373 H393 0.930 . S
C374 N372 1.375 1_565 S
C374 C373 1.338 . S
C374 H378 0.931 . S
C375 N372 1.313 . S
C375 N376 1.344 . S
C375 H379 0.930 . S
N376 C373 1.377 1_545 S
N376 C375 1.344 . S
O377 Co369 2.055 . S
O377 C381 1.253 . S
H378 C374 0.931 . S
H379 C375 0.930 . S
O380 Co369 2.039 1_565 S
O380 C370 1.265 . S
C381 O377 1.253 . S
C381 O382 1.227 . S
O382 C381 1.227 . S
N383 Co369 2.140 . S
N383 C386 1.346 1_545 S
N383 C387 1.345 . S
C384 C385 1.387 1_545 S
C384 C388 1.391 . S
C385 C384 1.387 1_565 S
C385 C386 1.369 . S
C385 H394 0.929 . S
C386 N383 1.346 1_565 S
C386 C385 1.369 . S
C386 H389 0.928 . S
C387 N383 1.345 . S
C387 C388 1.371 . S
C387 H390 0.931 . S
C388 C384 1.391 . S
C388 C387 1.371 . S
C388 H395 0.930 . S
H389 C386 0.928 . S
H390 C387 0.931 . S
H391 C367 0.930 1_565 S
H392 C364 0.930 . S
H393 C373 0.930 . S
H394 C385 0.929 . S
H395 C388 0.930 . S
C396 C397 1.351 . S
C396 N399 1.368 . S
C396 H401 0.931 . S
C397 C396 1.351 . S
C397 N398 1.373 . S
C397 H425 0.930 . S
N398 C397 1.373 . S
N398 C400 1.340 . S
N399 C396 1.368 . S
N399 C400 1.321 . S
N399 Co402 2.135 . S
C400 N398 1.340 . S
C400 N399 1.321 . S
C400 H424 0.930 . S
H401 C396 0.931 . S
Co402 N399 2.135 . S
Co402 N405 2.121 . S
Co402 O410 2.055 . S
Co402 O413 2.039 . S
Co402 N416 2.140 . S
C403 O404 1.227 . S
C403 O413 1.265 . S
O404 C403 1.227 . S
N405 Co402 2.121 . S
N405 C407 1.375 . S
N405 C408 1.313 . S
C406 C407 1.338 . S
C406 N409 1.377 . S
C406 H426 0.930 . S
C407 N405 1.375 . S
C407 C406 1.338 . S
C407 H411 0.931 . S
C408 N405 1.313 . S
C408 N409 1.344 . S
C408 H412 0.930 . S
N409 C406 1.377 . S
N409 C408 1.344 . S
O410 Co402 2.055 . S
O410 C414 1.253 . S
H411 C407 0.931 . S
H412 C408 0.930 . S
O413 Co402 2.039 . S
O413 C403 1.265 . S
C414 O410 1.253 . S
C414 O415 1.227 . S
O415 C414 1.227 . S
N416 Co402 2.140 . S
N416 C419 1.346 . S
N416 C420 1.345 . S
C417 C418 1.387 . S
C417 C421 1.391 . S
C418 C417 1.387 . S
C418 C419 1.369 . S
C418 H427 0.929 . S
C419 N416 1.346 . S
C419 C418 1.369 . S
C419 H422 0.928 . S
C420 N416 1.345 . S
C420 C421 1.371 . S
C420 H423 0.931 . S
C421 C417 1.391 . S
C421 C420 1.371 . S
C421 H428 0.930 . S
H422 C419 0.928 . S
H423 C420 0.931 . S
H424 C400 0.930 . S
H425 C397 0.930 . S
H426 C406 0.930 . S
H427 C418 0.929 . S
H428 C421 0.930 . S
C429 C430 1.351 . S
C429 N432 1.368 . S
C429 H434 0.931 . S
C430 C429 1.351 . S
C430 N431 1.373 . S
C430 H458 0.930 . S
N431 C430 1.373 . S
N431 C433 1.340 . S
N432 C429 1.368 . S
N432 C433 1.321 . S
N432 Co435 2.135 . S
C433 N431 1.340 . S
C433 N432 1.321 . S
C433 H457 0.930 . S
H434 C429 0.931 . S
Co435 N432 2.135 . S
Co435 N438 2.121 . S
Co435 O443 2.055 . S
Co435 O446 2.039 . S
Co435 N449 2.140 . S
C436 O437 1.227 . S
C436 O446 1.265 . S
O437 C436 1.227 . S
N438 Co435 2.121 . S
N438 C440 1.375 . S
N438 C441 1.313 . S
C439 C440 1.338 . S
C439 N442 1.377 . S
C439 H459 0.930 . S
C440 N438 1.375 . S
C440 C439 1.338 . S
C440 H444 0.931 . S
C441 N438 1.313 . S
C441 N442 1.344 . S
C441 H445 0.930 . S
N442 C439 1.377 . S
N442 C441 1.344 . S
O443 Co435 2.055 . S
O443 C447 1.253 . S
H444 C440 0.931 . S
H445 C441 0.930 . S
O446 Co435 2.039 . S
O446 C436 1.265 . S
C447 O443 1.253 . S
C447 O448 1.227 . S
O448 C447 1.227 . S
N449 Co435 2.140 . S
N449 C452 1.346 . S
N449 C453 1.345 . S
C450 C451 1.387 . S
C450 C454 1.391 . S
C451 C450 1.387 . S
C451 C452 1.369 . S
C451 H460 0.929 . S
C452 N449 1.346 . S
C452 C451 1.369 . S
C452 H455 0.928 . S
C453 N449 1.345 . S
C453 C454 1.371 . S
C453 H456 0.931 . S
C454 C450 1.391 . S
C454 C453 1.371 . S
C454 H461 0.930 . S
H455 C452 0.928 . S
H456 C453 0.931 . S
H457 C433 0.930 . S
H458 C430 0.930 . S
H459 C439 0.930 . S
H460 C451 0.929 . S
H461 C454 0.930 . S
C462 C463 1.351 . S
C462 N465 1.368 . S
C462 H467 0.931 . S
C463 C462 1.351 . S
C463 N464 1.373 . S
C463 H491 0.930 . S
N464 C463 1.373 . S
N464 C466 1.340 . S
N465 C462 1.368 . S
N465 C466 1.321 . S
N465 Co468 2.135 . S
C466 N464 1.340 . S
C466 N465 1.321 . S
C466 H490 0.930 . S
H467 C462 0.931 . S
Co468 N465 2.135 . S
Co468 N471 2.121 . S
Co468 O476 2.055 . S
Co468 O479 2.039 . S
Co468 N482 2.140 . S
C469 O470 1.227 . S
C469 O479 1.265 . S
O470 C469 1.227 . S
N471 Co468 2.121 . S
N471 C473 1.375 . S
N471 C474 1.313 . S
C472 C473 1.338 . S
C472 N475 1.377 . S
C472 H492 0.930 . S
C473 N471 1.375 . S
C473 C472 1.338 . S
C473 H477 0.931 . S
C474 N471 1.313 . S
C474 N475 1.344 . S
C474 H478 0.930 . S
N475 C472 1.377 . S
N475 C474 1.344 . S
O476 Co468 2.055 . S
O476 C480 1.253 . S
H477 C473 0.931 . S
H478 C474 0.930 . S
O479 Co468 2.039 . S
O479 C469 1.265 . S
C480 O476 1.253 . S
C480 O481 1.227 . S
O481 C480 1.227 . S
N482 Co468 2.140 . S
N482 C485 1.346 . S
N482 C486 1.345 . S
C483 C484 1.387 . S
C483 C487 1.391 . S
C484 C483 1.387 . S
C484 C485 1.369 . S
C484 H493 0.929 . S
C485 N482 1.346 . S
C485 C484 1.369 . S
C485 H488 0.928 . S
C486 N482 1.345 . S
C486 C487 1.371 . S
C486 H489 0.931 . S
C487 C483 1.391 . S
C487 C486 1.371 . S
C487 H494 0.930 . S
H488 C485 0.928 . S
H489 C486 0.931 . S
H490 C466 0.930 . S
H491 C463 0.930 . S
H492 C472 0.930 . S
H493 C484 0.929 . S
H494 C487 0.930 . S
C495 C496 1.351 . S
C495 N498 1.368 . S
C495 H500 0.931 . S
C496 C495 1.351 . S
C496 N497 1.373 . S
C496 H524 0.930 . S
N497 C496 1.373 . S
N497 C499 1.340 . S
N498 C495 1.368 . S
N498 C499 1.321 . S
N498 Co501 2.135 . S
C499 N497 1.340 . S
C499 N498 1.321 . S
C499 H523 0.930 . S
H500 C495 0.931 . S
Co501 N498 2.135 . S
Co501 N504 2.121 . S
Co501 O509 2.055 . S
Co501 O512 2.039 . S
Co501 N515 2.140 . S
C502 O503 1.227 . S
C502 O512 1.265 . S
O503 C502 1.227 . S
N504 Co501 2.121 . S
N504 C506 1.375 . S
N504 C507 1.313 . S
C505 C506 1.338 . S
C505 N508 1.377 . S
C505 H525 0.930 . S
C506 N504 1.375 . S
C506 C505 1.338 . S
C506 H510 0.931 . S
C507 N504 1.313 . S
C507 N508 1.344 . S
C507 H511 0.930 . S
N508 C505 1.377 . S
N508 C507 1.344 . S
O509 Co501 2.055 . S
O509 C513 1.253 . S
H510 C506 0.931 . S
H511 C507 0.930 . S
O512 Co501 2.039 . S
O512 C502 1.265 . S
C513 O509 1.253 . S
C513 O514 1.227 . S
O514 C513 1.227 . S
N515 Co501 2.140 . S
N515 C518 1.346 . S
N515 C519 1.345 . S
C516 C517 1.387 . S
C516 C520 1.391 . S
C517 C516 1.387 . S
C517 C518 1.369 . S
C517 H526 0.929 . S
C518 N515 1.346 . S
C518 C517 1.369 . S
C518 H521 0.928 . S
C519 N515 1.345 . S
C519 C520 1.371 . S
C519 H522 0.931 . S
C520 C516 1.391 . S
C520 C519 1.371 . S
C520 H527 0.930 . S
H521 C518 0.928 . S
H522 C519 0.931 . S
H523 C499 0.930 . S
H524 C496 0.930 . S
H525 C505 0.930 . S
H526 C517 0.929 . S
H527 C520 0.930 . S
C528 C529 1.361 1_565 S
C528 C530 1.419 . S
C528 H532 0.938 . S
C529 C528 1.361 1_545 S
C529 C538 1.429 . S
C530 C528 1.419 . S
C530 C531 1.357 1_565 S
C530 H533 0.936 . S
C531 C530 1.357 1_545 S
C531 C537 1.428 . S
H532 C528 0.938 . S
H533 C530 0.936 . S
S534 N535 1.613 . S
S534 N536 1.610 . S
N535 S534 1.613 . S
N535 C538 1.350 . S
N536 S534 1.610 . S
N536 C537 1.351 . S
C537 C531 1.428 . S
C537 N536 1.351 . S
C537 C538 1.434 . S
C538 C529 1.429 . S
C538 N535 1.350 . S
C538 C537 1.434 . S
C539 C540 1.369 1_545 S
C539 C541 1.419 . S
C539 H543 0.930 . S
C540 C539 1.369 1_565 S
C540 C549 1.429 . S
C541 C539 1.419 . S
C541 C542 1.363 1_545 S
C541 H544 0.929 . S
C542 C541 1.363 1_565 S
C542 C548 1.428 . S
H543 C539 0.930 . S
H544 C541 0.929 . S
S545 N546 1.613 . S
S545 N547 1.610 . S
N546 S545 1.613 . S
N546 C549 1.350 . S
N547 S545 1.610 . S
N547 C548 1.351 . S
C548 C542 1.428 . S
C548 N547 1.351 . S
C548 C549 1.434 . S
C549 C540 1.429 . S
C549 N546 1.350 . S
C549 C548 1.434 . S
C550 C551 1.369 1_545 S
C550 C552 1.419 . S
C550 H554 0.930 . S
C551 C550 1.369 1_565 S
C551 C560 1.429 . S
C552 C550 1.419 . S
C552 C553 1.363 1_545 S
C552 H555 0.929 . S
C553 C552 1.363 1_565 S
C553 C559 1.428 . S
H554 C550 0.930 . S
H555 C552 0.929 . S
S556 N557 1.613 . S
S556 N558 1.610 . S
N557 S556 1.613 . S
N557 C560 1.350 . S
N558 S556 1.610 . S
N558 C559 1.351 . S
C559 C553 1.428 . S
C559 N558 1.351 . S
C559 C560 1.434 . S
C560 C551 1.429 . S
C560 N557 1.350 . S
C560 C559 1.434 . S
C561 C562 1.369 . S
C561 C563 1.419 . S
C561 H565 0.930 . S
C562 C561 1.369 . S
C562 C571 1.429 . S
C563 C561 1.419 . S
C563 C564 1.363 . S
C563 H566 0.929 . S
C564 C563 1.363 . S
C564 C570 1.428 . S
H565 C561 0.930 . S
H566 C563 0.929 . S
S567 N568 1.613 . S
S567 N569 1.610 . S
N568 S567 1.613 . S
N568 C571 1.350 . S
N569 S567 1.610 . S
N569 C570 1.351 . S
C570 C564 1.428 . S
C570 N569 1.351 . S
C570 C571 1.434 . S
C571 C562 1.429 . S
C571 N568 1.350 . S
C571 C570 1.434 . S
C572 C573 1.369 . S
C572 C574 1.419 . S
C572 H576 0.930 . S
C573 C572 1.369 . S
C573 C582 1.429 . S
C574 C572 1.419 . S
C574 C575 1.363 . S
C574 H577 0.929 . S
C575 C574 1.363 . S
C575 C581 1.428 . S
H576 C572 0.930 . S
H577 C574 0.929 . S
S578 N579 1.613 . S
S578 N580 1.610 . S
N579 S578 1.613 . S
N579 C582 1.350 . S
N580 S578 1.610 . S
N580 C581 1.351 . S
C581 C575 1.428 . S
C581 N580 1.351 . S
C581 C582 1.434 . S
C582 C573 1.429 . S
C582 N579 1.350 . S
C582 C581 1.434 . S
C583 C584 1.369 . S
C583 C585 1.419 . S
C583 H587 0.930 . S
C584 C583 1.369 . S
C584 C593 1.429 . S
C585 C583 1.419 . S
C585 C586 1.363 . S
C585 H588 0.929 . S
C586 C585 1.363 . S
C586 C592 1.428 . S
H587 C583 0.930 . S
H588 C585 0.929 . S
S589 N590 1.613 . S
S589 N591 1.610 . S
N590 S589 1.613 . S
N590 C593 1.350 . S
N591 S589 1.610 . S
N591 C592 1.351 . S
C592 C586 1.428 . S
C592 N591 1.351 . S
C592 C593 1.434 . S
C593 C584 1.429 . S
C593 N590 1.350 . S
C593 C592 1.434 . S
C594 C595 1.369 . S
C594 C596 1.419 . S
C594 H598 0.930 . S
C595 C594 1.369 . S
C595 C604 1.429 . S
C596 C594 1.419 . S
C596 C597 1.363 . S
C596 H599 0.929 . S
C597 C596 1.363 . S
C597 C603 1.428 . S
H598 C594 0.930 . S
H599 C596 0.929 . S
S600 N601 1.613 . S
S600 N602 1.610 . S
N601 S600 1.613 . S
N601 C604 1.350 . S
N602 S600 1.610 . S
N602 C603 1.351 . S
C603 C597 1.428 . S
C603 N602 1.351 . S
C603 C604 1.434 . S
C604 C595 1.429 . S
C604 N601 1.350 . S
C604 C603 1.434 . S
C605 C606 1.369 . S
C605 C607 1.419 . S
C605 H609 0.930 . S
C606 C605 1.369 . S
C606 C615 1.429 . S
C607 C605 1.419 . S
C607 C608 1.363 . S
C607 H610 0.929 . S
C608 C607 1.363 . S
C608 C614 1.428 . S
H609 C605 0.930 . S
H610 C607 0.929 . S
S611 N612 1.613 . S
S611 N613 1.610 . S
N612 S611 1.613 . S
N612 C615 1.350 . S
N613 S611 1.610 . S
N613 C614 1.351 . S
C614 C608 1.428 . S
C614 N613 1.351 . S
C614 C615 1.434 . S
C615 C606 1.429 . S
C615 N612 1.350 . S
C615 C614 1.434 . S
C616 C617 1.369 . S
C616 C618 1.419 . S
C616 H620 0.930 . S
C617 C616 1.369 . S
C617 C626 1.429 . S
C618 C616 1.419 . S
C618 C619 1.363 . S
C618 H621 0.929 . S
C619 C618 1.363 . S
C619 C625 1.428 . S
H620 C616 0.930 . S
H621 C618 0.929 . S
S622 N623 1.613 . S
S622 N624 1.610 . S
N623 S622 1.613 . S
N623 C626 1.350 . S
N624 S622 1.610 . S
N624 C625 1.351 . S
C625 C619 1.428 . S
C625 N624 1.351 . S
C625 C626 1.434 . S
C626 C617 1.429 . S
C626 N623 1.350 . S
C626 C625 1.434 . S
C627 C628 1.369 . S
C627 C629 1.419 . S
C627 H631 0.930 . S
C628 C627 1.369 . S
C628 C637 1.429 . S
C629 C627 1.419 . S
C629 C630 1.363 . S
C629 H632 0.929 . S
C630 C629 1.363 . S
C630 C636 1.428 . S
H631 C627 0.930 . S
H632 C629 0.929 . S
S633 N634 1.613 . S
S633 N635 1.610 . S
N634 S633 1.613 . S
N634 C637 1.350 . S
N635 S633 1.610 . S
N635 C636 1.351 . S
C636 C630 1.428 . S
C636 N635 1.351 . S
C636 C637 1.434 . S
C637 C628 1.429 . S
C637 N634 1.350 . S
C637 C636 1.434 . S
C638 C639 1.369 . S
C638 C640 1.419 . S
C638 H642 0.930 . S
C639 C638 1.369 . S
C639 C648 1.429 . S
C640 C638 1.419 . S
C640 C641 1.363 . S
C640 H643 0.929 . S
C641 C640 1.363 . S
C641 C647 1.428 . S
H642 C638 0.930 . S
H643 C640 0.929 . S
S644 N645 1.613 . S
S644 N646 1.610 . S
N645 S644 1.613 . S
N645 C648 1.350 . S
N646 S644 1.610 . S
N646 C647 1.351 . S
C647 C641 1.428 . S
C647 N646 1.351 . S
C647 C648 1.434 . S
C648 C639 1.429 . S
C648 N645 1.350 . S
C648 C647 1.434 . S
C649 C650 1.369 . S
C649 C651 1.419 . S
C649 H653 0.930 . S
C650 C649 1.369 . S
C650 C659 1.429 . S
C651 C649 1.419 . S
C651 C652 1.363 . S
C651 H654 0.929 . S
C652 C651 1.363 . S
C652 C658 1.428 . S
H653 C649 0.930 . S
H654 C651 0.929 . S
S655 N656 1.613 . S
S655 N657 1.610 . S
N656 S655 1.613 . S
N656 C659 1.350 . S
N657 S655 1.610 . S
N657 C658 1.351 . S
C658 C652 1.428 . S
C658 N657 1.351 . S
C658 C659 1.434 . S
C659 C650 1.429 . S
C659 N656 1.350 . S
C659 C658 1.434 . S
C660 C661 1.369 . S
C660 C662 1.419 . S
C660 H664 0.930 . S
C661 C660 1.369 . S
C661 C670 1.429 . S
C662 C660 1.419 . S
C662 C663 1.363 . S
C662 H665 0.929 . S
C663 C662 1.363 . S
C663 C669 1.428 . S
H664 C660 0.930 . S
H665 C662 0.929 . S
S666 N667 1.613 . S
S666 N668 1.610 . S
N667 S666 1.613 . S
N667 C670 1.350 . S
N668 S666 1.610 . S
N668 C669 1.351 . S
C669 C663 1.428 . S
C669 N668 1.351 . S
C669 C670 1.434 . S
C670 C661 1.429 . S
C670 N667 1.350 . S
C670 C669 1.434 . S
C671 C672 1.369 . S
C671 C673 1.419 . S
C671 H675 0.930 . S
C672 C671 1.369 . S
C672 C681 1.429 . S
C673 C671 1.419 . S
C673 C674 1.363 . S
C673 H676 0.929 . S
C674 C673 1.363 . S
C674 C680 1.428 . S
H675 C671 0.930 . S
H676 C673 0.929 . S
S677 N678 1.613 . S
S677 N679 1.610 . S
N678 S677 1.613 . S
N678 C681 1.350 . S
N679 S677 1.610 . S
N679 C680 1.351 . S
C680 C674 1.428 . S
C680 N679 1.351 . S
C680 C681 1.434 . S
C681 C672 1.429 . S
C681 N678 1.350 . S
C681 C680 1.434 . S
C682 C683 1.369 . S
C682 C684 1.419 . S
C682 H686 0.930 . S
C683 C682 1.369 . S
C683 C692 1.429 . S
C684 C682 1.419 . S
C684 C685 1.363 . S
C684 H687 0.929 . S
C685 C684 1.363 . S
C685 C691 1.428 . S
H686 C682 0.930 . S
H687 C684 0.929 . S
S688 N689 1.613 . S
S688 N690 1.610 . S
N689 S688 1.613 . S
N689 C692 1.350 . S
N690 S688 1.610 . S
N690 C691 1.351 . S
C691 C685 1.428 . S
C691 N690 1.351 . S
C691 C692 1.434 . S
C692 C683 1.429 . S
C692 N689 1.350 . S
C692 C691 1.434 . S
C693 C694 1.369 . S
C693 C695 1.419 . S
C693 H697 0.930 . S
C694 C693 1.369 . S
C694 C703 1.429 . S
C695 C693 1.419 . S
C695 C696 1.363 . S
C695 H698 0.929 . S
C696 C695 1.363 . S
C696 C702 1.428 . S
H697 C693 0.930 . S
H698 C695 0.929 . S
S699 N700 1.613 . S
S699 N701 1.610 . S
N700 S699 1.613 . S
N700 C703 1.350 . S
N701 S699 1.610 . S
N701 C702 1.351 . S
C702 C696 1.428 . S
C702 N701 1.351 . S
C702 C703 1.434 . S
C703 C694 1.429 . S
C703 N700 1.350 . S
C703 C702 1.434 . S
C704 C705 1.369 . S
C704 C706 1.419 . S
C704 H708 0.930 . S
C705 C704 1.369 . S
C705 C714 1.429 . S
C706 C704 1.419 . S
C706 C707 1.363 . S
C706 H709 0.929 . S
C707 C706 1.363 . S
C707 C713 1.428 . S
H708 C704 0.930 . S
H709 C706 0.929 . S
S710 N711 1.613 . S
S710 N712 1.610 . S
N711 S710 1.613 . S
N711 C714 1.350 . S
N712 S710 1.610 . S
N712 C713 1.351 . S
C713 C707 1.428 . S
C713 N712 1.351 . S
C713 C714 1.434 . S
C714 C705 1.429 . S
C714 N711 1.350 . S
C714 C713 1.434 . S
C715 C716 1.369 . S
C715 C717 1.419 . S
C715 H719 0.930 . S
C716 C715 1.369 . S
C716 C725 1.429 . S
C717 C715 1.419 . S
C717 C718 1.363 . S
C717 H720 0.929 . S
C718 C717 1.363 . S
C718 C724 1.428 . S
H719 C715 0.930 . S
H720 C717 0.929 . S
S721 N722 1.613 . S
S721 N723 1.610 . S
N722 S721 1.613 . S
N722 C725 1.350 . S
N723 S721 1.610 . S
N723 C724 1.351 . S
C724 C718 1.428 . S
C724 N723 1.351 . S
C724 C725 1.434 . S
C725 C716 1.429 . S
C725 N722 1.350 . S
C725 C724 1.434 . S
C726 C727 1.369 . S
C726 C728 1.419 . S
C726 H730 0.930 . S
C727 C726 1.369 . S
C727 C736 1.429 . S
C728 C726 1.419 . S
C728 C729 1.363 . S
C728 H731 0.929 . S
C729 C728 1.363 . S
C729 C735 1.428 . S
H730 C726 0.930 . S
H731 C728 0.929 . S
S732 N733 1.613 . S
S732 N734 1.610 . S
N733 S732 1.613 . S
N733 C736 1.350 . S
N734 S732 1.610 . S
N734 C735 1.351 . S
C735 C729 1.428 . S
C735 N734 1.351 . S
C735 C736 1.434 . S
C736 C727 1.429 . S
C736 N733 1.350 . S
C736 C735 1.434 . S
C737 C738 1.369 . S
C737 C739 1.419 . S
C737 H741 0.930 . S
C738 C737 1.369 . S
C738 C747 1.429 . S
C739 C737 1.419 . S
C739 C740 1.363 . S
C739 H742 0.929 . S
C740 C739 1.363 . S
C740 C746 1.428 . S
H741 C737 0.930 . S
H742 C739 0.929 . S
S743 N744 1.613 . S
S743 N745 1.610 . S
N744 S743 1.613 . S
N744 C747 1.350 . S
N745 S743 1.610 . S
N745 C746 1.351 . S
C746 C740 1.428 . S
C746 N745 1.351 . S
C746 C747 1.434 . S
C747 C738 1.429 . S
C747 N744 1.350 . S
C747 C746 1.434 . S
C748 C749 1.369 . S
C748 C750 1.419 . S
C748 H752 0.930 . S
C749 C748 1.369 . S
C749 C758 1.429 . S
C750 C748 1.419 . S
C750 C751 1.363 . S
C750 H753 0.929 . S
C751 C750 1.363 . S
C751 C757 1.428 . S
H752 C748 0.930 . S
H753 C750 0.929 . S
S754 N755 1.613 . S
S754 N756 1.610 . S
N755 S754 1.613 . S
N755 C758 1.350 . S
N756 S754 1.610 . S
N756 C757 1.351 . S
C757 C751 1.428 . S
C757 N756 1.351 . S
C757 C758 1.434 . S
C758 C749 1.429 . S
C758 N755 1.350 . S
C758 C757 1.434 . S
C759 C760 1.369 . S
C759 C761 1.419 . S
C759 H763 0.930 . S
C760 C759 1.369 . S
C760 C769 1.429 . S
C761 C759 1.419 . S
C761 C762 1.363 . S
C761 H764 0.929 . S
C762 C761 1.363 . S
C762 C768 1.428 . S
H763 C759 0.930 . S
H764 C761 0.929 . S
S765 N766 1.613 . S
S765 N767 1.610 . S
N766 S765 1.613 . S
N766 C769 1.350 . S
N767 S765 1.610 . S
N767 C768 1.351 . S
C768 C762 1.428 . S
C768 N767 1.351 . S
C768 C769 1.434 . S
C769 C760 1.429 . S
C769 N766 1.350 . S
C769 C768 1.434 . S
C770 C771 1.369 . S
C770 C772 1.419 . S
C770 H774 0.930 . S
C771 C770 1.369 . S
C771 C780 1.429 . S
C772 C770 1.419 . S
C772 C773 1.363 . S
C772 H775 0.929 . S
C773 C772 1.363 . S
C773 C779 1.428 . S
H774 C770 0.930 . S
H775 C772 0.929 . S
S776 N777 1.613 . S
S776 N778 1.610 . S
N777 S776 1.613 . S
N777 C780 1.350 . S
N778 S776 1.610 . S
N778 C779 1.351 . S
C779 C773 1.428 . S
C779 N778 1.351 . S
C779 C780 1.434 . S
C780 C771 1.429 . S
C780 N777 1.350 . S
C780 C779 1.434 . S
C781 C782 1.369 . S
C781 C783 1.419 . S
C781 H785 0.930 . S
C782 C781 1.369 . S
C782 C791 1.429 . S
C783 C781 1.419 . S
C783 C784 1.363 . S
C783 H786 0.929 . S
C784 C783 1.363 . S
C784 C790 1.428 . S
H785 C781 0.930 . S
H786 C783 0.929 . S
S787 N788 1.613 . S
S787 N789 1.610 . S
N788 S787 1.613 . S
N788 C791 1.350 . S
N789 S787 1.610 . S
N789 C790 1.351 . S
C790 C784 1.428 . S
C790 N789 1.351 . S
C790 C791 1.434 . S
C791 C782 1.429 . S
C791 N788 1.350 . S
C791 C790 1.434 . S
C792 C793 1.369 . S
C792 C794 1.419 1_655 S
C792 H796 0.930 . S
C793 C792 1.369 . S
C793 C802 1.429 1_545 S
C794 C792 1.419 1_455 S
C794 C795 1.363 . S
C794 H797 0.929 . S
C795 C794 1.363 . S
C795 C801 1.428 1_545 S
H796 C792 0.930 . S
H797 C794 0.929 . S
S798 N799 1.613 1_455 S
S798 N800 1.610 . S
N799 S798 1.613 1_655 S
N799 C802 1.350 . S
N800 S798 1.610 . S
N800 C801 1.351 . S
C801 C795 1.428 1_565 S
C801 N800 1.351 . S
C801 C802 1.434 1_455 S
C802 C793 1.429 1_565 S
C802 N799 1.350 . S
C802 C801 1.434 1_655 S
C803 C804 1.369 1_565 S
C803 C805 1.419 1_455 S
C803 H807 0.930 . S
C804 C803 1.369 1_545 S
C804 C813 1.429 . S
C805 C803 1.419 1_655 S
C805 C806 1.363 1_565 S
C805 H808 0.929 . S
C806 C805 1.363 1_545 S
C806 C812 1.428 . S
H807 C803 0.930 . S
H808 C805 0.929 . S
S809 N810 1.613 . S
S809 N811 1.610 1_455 S
N810 S809 1.613 . S
N810 C813 1.350 . S
N811 S809 1.610 1_655 S
N811 C812 1.351 . S
C812 C806 1.428 . S
C812 N811 1.351 . S
C812 C813 1.434 1_655 S
C813 C804 1.429 . S
C813 N810 1.350 . S
C813 C812 1.434 1_455 S
C814 C815 1.369 . S
C814 C816 1.419 1_655 S
C814 H818 0.930 . S
C815 C814 1.369 . S
C815 C824 1.429 . S
C816 C814 1.419 1_455 S
C816 C817 1.363 . S
C816 H819 0.929 . S
C817 C816 1.363 . S
C817 C823 1.428 . S
H818 C814 0.930 . S
H819 C816 0.929 . S
S820 N821 1.636 . S
S820 N822 1.587 1_655 S
N821 S820 1.636 . S
N821 C824 1.350 . S
N822 S820 1.587 1_455 S
N822 C823 1.351 . S
C823 C817 1.428 . S
C823 N822 1.351 . S
C823 C824 1.434 1_455 S
C824 C815 1.429 . S
C824 N821 1.350 . S
C824 C823 1.434 1_655 S
C825 C826 1.369 . S
C825 C827 1.419 1_655 S
C825 H829 0.930 . S
C826 C825 1.369 . S
C826 C835 1.429 . S
C827 C825 1.419 1_455 S
C827 C828 1.363 . S
C827 H830 0.929 . S
C828 C827 1.363 . S
C828 C834 1.428 . S
H829 C825 0.930 . S
H830 C827 0.929 . S
S831 N832 1.613 . S
S831 N833 1.610 1_655 S
N832 S831 1.613 . S
N832 C835 1.350 . S
N833 S831 1.610 1_455 S
N833 C834 1.351 . S
C834 C828 1.428 . S
C834 N833 1.351 . S
C834 C835 1.434 1_455 S
C835 C826 1.429 . S
C835 N832 1.350 . S
C835 C834 1.434 1_655 S
C836 C837 1.369 1_565 S
C836 C838 1.419 . S
C836 H840 0.930 . S
C837 C836 1.369 1_545 S
C837 C846 1.429 . S
C838 C836 1.419 . S
C838 C839 1.363 1_565 S
C838 H841 0.929 . S
C839 C838 1.363 1_545 S
C839 C845 1.428 . S
H840 C836 0.930 . S
H841 C838 0.929 . S
S842 N843 1.613 . S
S842 N844 1.610 . S
N843 S842 1.613 . S
N843 C846 1.350 . S
N844 S842 1.610 . S
N844 C845 1.351 . S
C845 C839 1.428 . S
C845 N844 1.351 . S
C845 C846 1.434 . S
C846 C837 1.429 . S
C846 N843 1.350 . S
C846 C845 1.434 . S
C847 C848 1.369 . S
C847 C849 1.419 . S
C847 H851 0.930 . S
C848 C847 1.369 . S
C848 C857 1.429 . S
C849 C847 1.419 . S
C849 C850 1.363 . S
C849 H852 0.929 . S
C850 C849 1.363 . S
C850 C856 1.432 . S
H851 C847 0.930 . S
H852 C849 0.929 . S
S853 N854 1.613 . S
S853 N855 1.610 . S
N854 S853 1.613 . S
N854 C857 1.350 1_565 S
N855 S853 1.610 . S
N855 C856 1.347 1_565 S
C856 C850 1.432 . S
C856 N855 1.347 1_545 S
C856 C857 1.435 . S
C857 C848 1.429 . S
C857 N854 1.350 1_545 S
C857 C856 1.435 . S
C858 C859 1.369 . S
C858 C860 1.419 . S
C858 H862 0.930 . S
C859 C858 1.369 . S
C859 C868 1.429 . S
C860 C858 1.419 . S
C860 C861 1.363 . S
C860 H863 0.929 . S
C861 C860 1.363 . S
C861 C867 1.428 . S
H862 C858 0.930 . S
H863 C860 0.929 . S
S864 N865 1.613 . S
S864 N866 1.610 . S
N865 S864 1.613 . S
N865 C868 1.350 . S
N866 S864 1.610 . S
N866 C867 1.351 . S
C867 C861 1.428 . S
C867 N866 1.351 . S
C867 C868 1.434 . S
C868 C859 1.429 . S
C868 N865 1.350 . S
C868 C867 1.434 . S
C869 C870 1.369 . S
C869 C871 1.419 . S
C869 H873 0.930 . S
C870 C869 1.369 . S
C870 C879 1.429 . S
C871 C869 1.419 . S
C871 C872 1.363 . S
C871 H874 0.929 . S
C872 C871 1.363 . S
C872 C878 1.428 . S
H873 C869 0.930 . S
H874 C871 0.929 . S
S875 N876 1.613 . S
S875 N877 1.610 . S
N876 S875 1.613 . S
N876 C879 1.350 . S
N877 S875 1.610 . S
N877 C878 1.351 . S
C878 C872 1.428 . S
C878 N877 1.351 . S
C878 C879 1.434 . S
C879 C870 1.429 . S
C879 N876 1.350 . S
C879 C878 1.434 . S
C880 C881 1.369 . S
C880 C882 1.419 1_556 S
C880 H884 0.930 . S
C881 C880 1.369 . S
C881 C890 1.429 1_545 S
C882 C880 1.419 1_554 S
C882 C883 1.363 . S
C882 H885 0.929 . S
C883 C882 1.363 . S
C883 C889 1.428 1_545 S
H884 C880 0.930 . S
H885 C882 0.929 . S
S886 N887 1.613 . S
S886 N888 1.610 1_556 S
N887 S886 1.613 . S
N887 C890 1.350 . S
N888 S886 1.610 1_554 S
N888 C889 1.351 . S
C889 C883 1.428 1_565 S
C889 N888 1.351 . S
C889 C890 1.434 1_554 S
C890 C881 1.429 1_565 S
C890 N887 1.350 . S
C890 C889 1.434 1_556 S
C891 C892 1.369 1_565 S
C891 C893 1.419 1_556 S
C891 H895 0.930 . S
C892 C891 1.369 1_545 S
C892 C901 1.429 . S
C893 C891 1.419 1_554 S
C893 C894 1.363 1_565 S
C893 H896 0.929 . S
C894 C893 1.363 1_545 S
C894 C900 1.428 . S
H895 C891 0.930 . S
H896 C893 0.929 . S
S897 N898 1.613 . S
S897 N899 1.610 1_556 S
N898 S897 1.613 . S
N898 C901 1.350 . S
N899 S897 1.610 1_554 S
N899 C900 1.351 . S
C900 C894 1.428 . S
C900 N899 1.351 . S
C900 C901 1.434 1_554 S
C901 C892 1.429 . S
C901 N898 1.350 . S
C901 C900 1.434 1_556 S
C902 C903 1.369 . S
C902 C904 1.419 . S
C902 H906 0.930 . S
C903 C902 1.369 . S
C903 C912 1.429 . S
C904 C902 1.419 . S
C904 C905 1.363 . S
C904 H907 0.929 . S
C905 C904 1.363 . S
C905 C911 1.428 . S
H906 C902 0.930 . S
H907 C904 0.929 . S
S908 N909 1.613 . S
S908 N910 1.610 . S
N909 S908 1.613 . S
N909 C912 1.350 . S
N910 S908 1.610 . S
N910 C911 1.351 . S
C911 C905 1.428 . S
C911 N910 1.351 . S
C911 C912 1.434 . S
C912 C903 1.429 . S
C912 N909 1.350 . S
C912 C911 1.434 . S
C913 C914 1.369 . S
C913 C915 1.419 . S
C913 H917 0.930 . S
C914 C913 1.369 . S
C914 C923 1.429 . S
C915 C913 1.419 . S
C915 C916 1.363 . S
C915 H918 0.929 . S
C916 C915 1.363 . S
C916 C922 1.428 . S
H917 C913 0.930 . S
H918 C915 0.929 . S
S919 N920 1.613 . S
S919 N921 1.610 . S
N920 S919 1.613 . S
N920 C923 1.350 . S
N921 S919 1.610 . S
N921 C922 1.351 . S
C922 C916 1.428 . S
C922 N921 1.351 . S
C922 C923 1.434 . S
C923 C914 1.429 . S
C923 N920 1.350 . S
C923 C922 1.434 . S
C924 C925 1.369 . S
C924 C926 1.419 . S
C924 H928 0.930 . S
C925 C924 1.369 . S
C925 C934 1.429 1_545 S
C926 C924 1.419 . S
C926 C927 1.363 . S
C926 H929 0.929 . S
C927 C926 1.363 . S
C927 C933 1.428 1_545 S
H928 C924 0.930 . S
H929 C926 0.929 . S
S930 N931 1.613 . S
S930 N932 1.610 . S
N931 S930 1.613 . S
N931 C934 1.350 . S
N932 S930 1.610 . S
N932 C933 1.351 . S
C933 C927 1.428 1_565 S
C933 N932 1.351 . S
C933 C934 1.434 . S
C934 C925 1.429 1_565 S
C934 N931 1.350 . S
C934 C933 1.434 . S
C935 C936 1.369 1_565 S
C935 C937 1.419 . S
C935 H939 0.930 . S
C936 C935 1.369 1_545 S
C936 C945 1.429 . S
C937 C935 1.419 . S
C937 C938 1.363 1_565 S
C937 H940 0.929 . S
C938 C937 1.363 1_545 S
C938 C944 1.428 . S
H939 C935 0.930 . S
H940 C937 0.929 . S
S941 N942 1.613 . S
S941 N943 1.610 . S
N942 S941 1.613 . S
N942 C945 1.350 . S
N943 S941 1.610 . S
N943 C944 1.351 . S
C944 C938 1.428 . S
C944 N943 1.351 . S
C944 C945 1.434 . S
C945 C936 1.429 . S
C945 N942 1.350 . S
C945 C944 1.434 . S
C946 C947 1.369 . S
C946 C948 1.419 1_554 S
C946 H950 0.930 . S
C947 C946 1.369 . S
C947 C956 1.429 . S
C948 C946 1.419 1_556 S
C948 C949 1.363 . S
C948 H951 0.929 . S
C949 C948 1.363 . S
C949 C955 1.428 . S
H950 C946 0.930 . S
H951 C948 0.929 . S
S952 N953 1.613 1_556 S
S952 N954 1.610 . S
N953 S952 1.613 1_554 S
N953 C956 1.350 . S
N954 S952 1.610 . S
N954 C955 1.351 . S
C955 C949 1.428 . S
C955 N954 1.351 . S
C955 C956 1.434 1_556 S
C956 C947 1.429 . S
C956 N953 1.350 . S
C956 C955 1.434 1_554 S
C957 C958 1.369 . S
C957 C959 1.419 1_556 S
C957 H961 0.930 . S
C958 C957 1.369 . S
C958 C967 1.429 . S
C959 C957 1.419 1_554 S
C959 C960 1.363 . S
C959 H962 0.929 . S
C960 C959 1.363 . S
C960 C966 1.428 . S
H961 C957 0.930 . S
H962 C959 0.929 . S
S963 N964 1.613 . S
S963 N965 1.610 1_556 S
N964 S963 1.613 . S
N964 C967 1.350 . S
N965 S963 1.610 1_554 S
N965 C966 1.351 . S
C966 C960 1.428 . S
C966 N965 1.351 . S
C966 C967 1.434 1_554 S
C967 C958 1.429 . S
C967 N964 1.350 . S
C967 C966 1.434 1_556 S
C529 N13 1.548 . S
C531 N376 1.549 . S
C540 N46 1.544 1_565 S
C542 N343 1.548 1_565 S
C551 N310 1.547 1_565 S
C553 N79 1.549 1_565 S
C562 N277 1.543 . S
C564 N112 1.547 . S
C573 N145 1.541 . S
C575 N508 1.546 . S
C584 N178 1.550 . S
C586 N475 1.546 . S
C595 N442 1.543 . S
C597 N211 1.541 . S
C606 N409 1.549 . S
C608 N244 1.549 . S
C617 C18 1.154 . S
C619 C447 1.160 . S
C628 C414 1.158 . S
C630 C51 1.156 . S
C639 C84 1.156 . S
C641 C513 1.158 . S
C650 C480 1.159 . S
C652 C117 1.156 . S
C661 C106 1.628 . S
C663 C469 1.626 . S
C672 C502 1.628 . S
C674 C73 1.626 . S
C683 C403 1.625 . S
C685 C40 1.626 . S
C694 C7 1.626 . S
C696 C436 1.626 . S
C705 C150 1.160 . S
C707 C315 1.155 . S
C716 C183 1.156 . S
C718 C282 1.157 . S
C727 C216 1.160 . S
C729 C381 1.155 . S
C738 C249 1.156 . S
C740 C348 1.159 . S
C749 C238 1.628 . S
C751 C337 1.625 . S
C760 C205 1.628 . S
C762 C370 1.626 . S
C771 C172 1.625 . S
C773 C271 1.627 . S
C782 C139 1.627 . S
C784 C304 1.626 . S
C793 C54 1.499 . S
C795 C21 1.499 . S
C804 C87 1.499 . S
C806 C120 1.499 . S
C815 C186 1.499 . S
C817 C153 1.499 . S
C826 C252 1.498 . S
C828 C219 1.499 . S
C837 C318 1.499 . S
C839 C285 1.499 . S
C848 C384 1.498 . S
C850 C351 1.498 . S
C859 C417 1.498 . S
C861 C450 1.498 . S
C870 C516 1.499 . S
C872 C483 1.499 . S
C881 N68 1.468 . S
C883 N2 1.472 . S
C892 N101 1.465 . S
C894 N35 1.473 . S
C903 N134 1.465 . S
C905 N200 1.473 . S
C914 N233 1.472 . S
C916 N167 1.465 . S
C925 N266 1.472 . S
C927 N332 1.465 . S
C936 N365 1.465 . S
C938 N299 1.473 . S
C947 N398 1.474 . S
C949 N464 1.466 . S
C958 N497 1.464 . S
C960 N431 1.473 . S
