# Generated by pormake.
# Topology sxe, (6)-cn, num edge types: 1
# Building blocks:
#     Node 0, Type 0, BuildingBlock: OJICUG_clean_sbu_0, # of connection points: 6
#     Node 1, Type 0, BuildingBlock: OJICUG_clean_sbu_0, # of connection points: 6
#     Node 2, Type 0, BuildingBlock: OJICUG_clean_sbu_0, # of connection points: 6
#     Node 3, Type 0, BuildingBlock: OJICUG_clean_sbu_0, # of connection points: 6
#     Node 4, Type 0, BuildingBlock: OJICUG_clean_sbu_0, # of connection points: 6
#     Node 5, Type 0, BuildingBlock: OJICUG_clean_sbu_0, # of connection points: 6
#     Node 6, Type 0, BuildingBlock: OJICUG_clean_sbu_0, # of connection points: 6
#     Node 7, Type 0, BuildingBlock: OJICUG_clean_sbu_0, # of connection points: 6
#     Node 8, Type 0, BuildingBlock: OJICUG_clean_sbu_0, # of connection points: 6
#     Node 9, Type 0, BuildingBlock: OJICUG_clean_sbu_0, # of connection points: 6
#     Node 10, Type 0, BuildingBlock: OJICUG_clean_sbu_0, # of connection points: 6
#     Node 11, Type 0, BuildingBlock: OJICUG_clean_sbu_0, # of connection points: 6
#     Node 12, Type 0, BuildingBlock: OJICUG_clean_sbu_0, # of connection points: 6
#     Node 13, Type 0, BuildingBlock: OJICUG_clean_sbu_0, # of connection points: 6
#     Node 14, Type 0, BuildingBlock: OJICUG_clean_sbu_0, # of connection points: 6
#     Node 15, Type 0, BuildingBlock: OJICUG_clean_sbu_0, # of connection points: 6
#     Node 16, Type 0, BuildingBlock: OJICUG_clean_sbu_0, # of connection points: 6
#     Node 17, Type 0, BuildingBlock: OJICUG_clean_sbu_0, # of connection points: 6
#     Node 18, Type 0, BuildingBlock: OJICUG_clean_sbu_0, # of connection points: 6
#     Node 19, Type 0, BuildingBlock: OJICUG_clean_sbu_0, # of connection points: 6
#     Node 20, Type 0, BuildingBlock: OJICUG_clean_sbu_0, # of connection points: 6
#     Node 21, Type 0, BuildingBlock: OJICUG_clean_sbu_0, # of connection points: 6
#     Node 22, Type 0, BuildingBlock: OJICUG_clean_sbu_0, # of connection points: 6
#     Node 23, Type 0, BuildingBlock: OJICUG_clean_sbu_0, # of connection points: 6
#     Edge 24, Type (0, 0), BuildingBlock: CIFDUS_clean_linker_0, # of connection points: 2
#     Edge 25, Type (0, 0), BuildingBlock: CIFDUS_clean_linker_0, # of connection points: 2
#     Edge 26, Type (0, 0), BuildingBlock: CIFDUS_clean_linker_0, # of connection points: 2
#     Edge 27, Type (0, 0), BuildingBlock: CIFDUS_clean_linker_0, # of connection points: 2
#     Edge 28, Type (0, 0), BuildingBlock: CIFDUS_clean_linker_0, # of connection points: 2
#     Edge 29, Type (0, 0), BuildingBlock: CIFDUS_clean_linker_0, # of connection points: 2
#     Edge 30, Type (0, 0), BuildingBlock: CIFDUS_clean_linker_0, # of connection points: 2
#     Edge 31, Type (0, 0), BuildingBlock: CIFDUS_clean_linker_0, # of connection points: 2
#     Edge 32, Type (0, 0), BuildingBlock: CIFDUS_clean_linker_0, # of connection points: 2
#     Edge 33, Type (0, 0), BuildingBlock: CIFDUS_clean_linker_0, # of connection points: 2
#     Edge 34, Type (0, 0), BuildingBlock: CIFDUS_clean_linker_0, # of connection points: 2
#     Edge 35, Type (0, 0), BuildingBlock: CIFDUS_clean_linker_0, # of connection points: 2
#     Edge 36, Type (0, 0), BuildingBlock: CIFDUS_clean_linker_0, # of connection points: 2
#     Edge 37, Type (0, 0), BuildingBlock: CIFDUS_clean_linker_0, # of connection points: 2
#     Edge 38, Type (0, 0), BuildingBlock: CIFDUS_clean_linker_0, # of connection points: 2
#     Edge 39, Type (0, 0), BuildingBlock: CIFDUS_clean_linker_0, # of connection points: 2
#     Edge 40, Type (0, 0), BuildingBlock: CIFDUS_clean_linker_0, # of connection points: 2
#     Edge 41, Type (0, 0), BuildingBlock: CIFDUS_clean_linker_0, # of connection points: 2
#     Edge 42, Type (0, 0), BuildingBlock: CIFDUS_clean_linker_0, # of connection points: 2
#     Edge 43, Type (0, 0), BuildingBlock: CIFDUS_clean_linker_0, # of connection points: 2
#     Edge 44, Type (0, 0), BuildingBlock: CIFDUS_clean_linker_0, # of connection points: 2
#     Edge 45, Type (0, 0), BuildingBlock: CIFDUS_clean_linker_0, # of connection points: 2
#     Edge 46, Type (0, 0), BuildingBlock: CIFDUS_clean_linker_0, # of connection points: 2
#     Edge 47, Type (0, 0), BuildingBlock: CIFDUS_clean_linker_0, # of connection points: 2
#     Edge 48, Type (0, 0), BuildingBlock: CIFDUS_clean_linker_0, # of connection points: 2
#     Edge 49, Type (0, 0), BuildingBlock: CIFDUS_clean_linker_0, # of connection points: 2
#     Edge 50, Type (0, 0), BuildingBlock: CIFDUS_clean_linker_0, # of connection points: 2
#     Edge 51, Type (0, 0), BuildingBlock: CIFDUS_clean_linker_0, # of connection points: 2
#     Edge 52, Type (0, 0), BuildingBlock: CIFDUS_clean_linker_0, # of connection points: 2
#     Edge 53, Type (0, 0), BuildingBlock: CIFDUS_clean_linker_0, # of connection points: 2
#     Edge 54, Type (0, 0), BuildingBlock: CIFDUS_clean_linker_0, # of connection points: 2
#     Edge 55, Type (0, 0), BuildingBlock: CIFDUS_clean_linker_0, # of connection points: 2
#     Edge 56, Type (0, 0), BuildingBlock: CIFDUS_clean_linker_0, # of connection points: 2
#     Edge 57, Type (0, 0), BuildingBlock: CIFDUS_clean_linker_0, # of connection points: 2
#     Edge 58, Type (0, 0), BuildingBlock: CIFDUS_clean_linker_0, # of connection points: 2
#     Edge 59, Type (0, 0), BuildingBlock: CIFDUS_clean_linker_0, # of connection points: 2
#     Edge 60, Type (0, 0), BuildingBlock: CIFDUS_clean_linker_0, # of connection points: 2
#     Edge 61, Type (0, 0), BuildingBlock: CIFDUS_clean_linker_0, # of connection points: 2
#     Edge 62, Type (0, 0), BuildingBlock: CIFDUS_clean_linker_0, # of connection points: 2
#     Edge 63, Type (0, 0), BuildingBlock: CIFDUS_clean_linker_0, # of connection points: 2
#     Edge 64, Type (0, 0), BuildingBlock: CIFDUS_clean_linker_0, # of connection points: 2
#     Edge 65, Type (0, 0), BuildingBlock: CIFDUS_clean_linker_0, # of connection points: 2
#     Edge 66, Type (0, 0), BuildingBlock: CIFDUS_clean_linker_0, # of connection points: 2
#     Edge 67, Type (0, 0), BuildingBlock: CIFDUS_clean_linker_0, # of connection points: 2
#     Edge 68, Type (0, 0), BuildingBlock: CIFDUS_clean_linker_0, # of connection points: 2
#     Edge 69, Type (0, 0), BuildingBlock: CIFDUS_clean_linker_0, # of connection points: 2
#     Edge 70, Type (0, 0), BuildingBlock: CIFDUS_clean_linker_0, # of connection points: 2
#     Edge 71, Type (0, 0), BuildingBlock: CIFDUS_clean_linker_0, # of connection points: 2
#     Edge 72, Type (0, 0), BuildingBlock: CIFDUS_clean_linker_0, # of connection points: 2
#     Edge 73, Type (0, 0), BuildingBlock: CIFDUS_clean_linker_0, # of connection points: 2
#     Edge 74, Type (0, 0), BuildingBlock: CIFDUS_clean_linker_0, # of connection points: 2
#     Edge 75, Type (0, 0), BuildingBlock: CIFDUS_clean_linker_0, # of connection points: 2
#     Edge 76, Type (0, 0), BuildingBlock: CIFDUS_clean_linker_0, # of connection points: 2
#     Edge 77, Type (0, 0), BuildingBlock: CIFDUS_clean_linker_0, # of connection points: 2
#     Edge 78, Type (0, 0), BuildingBlock: CIFDUS_clean_linker_0, # of connection points: 2
#     Edge 79, Type (0, 0), BuildingBlock: CIFDUS_clean_linker_0, # of connection points: 2
#     Edge 80, Type (0, 0), BuildingBlock: CIFDUS_clean_linker_0, # of connection points: 2
#     Edge 81, Type (0, 0), BuildingBlock: CIFDUS_clean_linker_0, # of connection points: 2
#     Edge 82, Type (0, 0), BuildingBlock: CIFDUS_clean_linker_0, # of connection points: 2
#     Edge 83, Type (0, 0), BuildingBlock: CIFDUS_clean_linker_0, # of connection points: 2
#     Edge 84, Type (0, 0), BuildingBlock: CIFDUS_clean_linker_0, # of connection points: 2
#     Edge 85, Type (0, 0), BuildingBlock: CIFDUS_clean_linker_0, # of connection points: 2
#     Edge 86, Type (0, 0), BuildingBlock: CIFDUS_clean_linker_0, # of connection points: 2
#     Edge 87, Type (0, 0), BuildingBlock: CIFDUS_clean_linker_0, # of connection points: 2
#     Edge 88, Type (0, 0), BuildingBlock: CIFDUS_clean_linker_0, # of connection points: 2
#     Edge 89, Type (0, 0), BuildingBlock: CIFDUS_clean_linker_0, # of connection points: 2
#     Edge 90, Type (0, 0), BuildingBlock: CIFDUS_clean_linker_0, # of connection points: 2
#     Edge 91, Type (0, 0), BuildingBlock: CIFDUS_clean_linker_0, # of connection points: 2
#     Edge 92, Type (0, 0), BuildingBlock: CIFDUS_clean_linker_0, # of connection points: 2
#     Edge 93, Type (0, 0), BuildingBlock: CIFDUS_clean_linker_0, # of connection points: 2
#     Edge 94, Type (0, 0), BuildingBlock: CIFDUS_clean_linker_0, # of connection points: 2
#     Edge 95, Type (0, 0), BuildingBlock: CIFDUS_clean_linker_0, # of connection points: 2
# Relax obj value: 0.419
# Max RMSD: 0.272
# Mean RMSD: 0.272
data_MOF--net-sxe--node1-OJICUG_clean_sbu_0--edge1-CIFDUS_clean_linker_0
_symmetry_space_group_name_H-M    P1
_symmetry_Int_Tables_number       1
_symmetry_cell_setting            triclinic
loop_
_symmetry_equiv_pos_as_xyz
'x, y, z'
_cell_length_a     42.745219
_cell_length_b     42.634831
_cell_length_c     42.741826
_cell_angle_alpha  90.033991
_cell_angle_beta   90.162305
_cell_angle_gamma 89.772503
loop_
_atom_site_label
_atom_site_type_symbol
_atom_site_fract_x
_atom_site_fract_y
_atom_site_fract_z
_atom_type_partial_charge
Sc0 Sc 0.15866 0.39019 0.18147 0.0
Sc1 Sc 0.1973 0.46129 0.18707 0.0
Sc2 Sc 0.14016 0.44081 0.24232 0.0
O3 O 0.16545 0.43085 0.20393 0.0
C4 C 0.08938 0.40243 0.2067 0.0
C5 C 0.16512 0.4338 0.12518 0.0
C6 C 0.13928 0.5048 0.20351 0.0
C7 C 0.23257 0.3996 0.17304 0.0
C8 C 0.16209 0.36949 0.25167 0.0
C9 C 0.20567 0.46985 0.26073 0.0
O10 O 0.10996 0.38644 0.19251 0.0
O11 O 0.18591 0.44986 0.13924 0.0
O12 O 0.13007 0.48751 0.22594 0.0
O13 O 0.20671 0.38628 0.16698 0.0
O14 O 0.14862 0.39454 0.26108 0.0
O15 O 0.2136 0.47542 0.23266 0.0
O16 O 0.16994 0.36482 0.22329 0.0
O17 O 0.23394 0.42633 0.18617 0.0
O18 O 0.18047 0.45598 0.26769 0.0
O19 O 0.14711 0.41505 0.13953 0.0
O20 O 0.09629 0.42667 0.22237 0.0
O21 O 0.16261 0.49795 0.18629 0.0
Sc22 Sc 0.3249 0.60547 0.71613 0.0
Sc23 Sc 0.29113 0.53343 0.69715 0.0
Sc24 Sc 0.33916 0.5402 0.7642 0.0
O25 O 0.31846 0.55966 0.72589 0.0
C26 C 0.39221 0.58724 0.74285 0.0
C27 C 0.32475 0.57885 0.648 0.0
C28 C 0.35125 0.49085 0.70895 0.0
C29 C 0.25188 0.59546 0.70141 0.0
C30 C 0.31361 0.60537 0.78989 0.0
C31 C 0.27418 0.50441 0.76321 0.0
O32 O 0.37406 0.60445 0.72665 0.0
O33 O 0.30754 0.55594 0.65566 0.0
O34 O 0.35728 0.50171 0.73614 0.0
O35 O 0.27619 0.61216 0.70528 0.0
O36 O 0.32307 0.57747 0.79507 0.0
O37 O 0.26947 0.50751 0.73413 0.0
O38 O 0.31351 0.61789 0.76297 0.0
O39 O 0.2526 0.56573 0.69958 0.0
O40 O 0.29806 0.51527 0.77695 0.0
O41 O 0.33614 0.59766 0.66794 0.0
O42 O 0.38286 0.56319 0.75739 0.0
O43 O 0.32818 0.50003 0.69242 0.0
Sc44 Sc 0.64763 0.10285 0.77721 0.0
Sc45 Sc 0.69565 0.03618 0.77282 0.0
Sc46 Sc 0.63691 0.04935 0.71664 0.0
O47 O 0.66029 0.06282 0.7556 0.0
C48 C 0.5816 0.08237 0.75526 0.0
C49 C 0.66377 0.05972 0.83571 0.0
C50 C 0.64058 0.98808 0.75713 0.0
C51 C 0.72199 0.10504 0.78157 0.0
C52 C 0.64684 0.12047 0.7043 0.0
C53 C 0.70574 0.02413 0.70099 0.0
O54 O 0.59898 0.09163 0.77739 0.0
O55 O 0.68027 0.04025 0.82044 0.0
O56 O 0.62511 0.00584 0.73872 0.0
O57 O 0.69523 0.11813 0.78028 0.0
O58 O 0.64826 0.09256 0.69388 0.0
O59 O 0.71692 0.0284 0.72811 0.0
O60 O 0.64353 0.12712 0.73317 0.0
O61 O 0.72602 0.07558 0.77914 0.0
O62 O 0.67707 0.02854 0.69461 0.0
O63 O 0.65053 0.08322 0.82314 0.0
O64 O 0.59261 0.06888 0.73116 0.0
O65 O 0.66725 -0.00485 0.76845 0.0
Sc66 Sc 0.84075 0.92797 0.2465 0.0
Sc67 Sc 0.78138 0.95593 0.29459 0.0
Sc68 Sc 0.8233 0.89008 0.31551 0.0
O69 O 0.81487 0.92441 0.28503 0.0
C70 C 0.82442 0.85483 0.25166 0.0
C71 C 0.77641 0.9492 0.22021 0.0
C72 C 0.74917 0.89555 0.31515 0.0
C73 C 0.83765 -0.00264 0.27316 0.0
C74 C 0.89215 0.90309 0.29091 0.0
C75 C 0.81057 0.94187 0.36195 0.0
O76 O 0.83792 0.8779 0.23832 0.0
O77 O 0.7691 0.9627 0.24579 0.0
O78 O 0.77468 0.88732 0.32829 0.0
O79 O 0.84518 0.97822 0.25151 0.0
O80 O 0.8725 0.88705 0.30619 0.0
O81 O 0.78848 0.95227 0.34474 0.0
O82 O 0.88369 0.92439 0.27206 0.0
O83 O 0.81596 0.99212 0.29283 0.0
O84 O 0.83198 0.92435 0.35098 0.0
O85 O 0.80041 0.93197 0.2176 0.0
O86 O 0.81493 0.85562 0.27988 0.0
O87 O 0.74709 0.91936 0.29731 0.0
Sc88 Sc 0.29024 0.1631 0.4307 0.0
Sc89 Sc 0.22651 0.2148 0.43233 0.0
Sc90 Sc 0.23251 0.15704 0.37463 0.0
O91 O 0.24964 0.17876 0.41246 0.0
C92 C 0.30513 0.16445 0.36068 0.0
C93 C 0.29501 0.23639 0.44491 0.0
C94 C 0.22012 0.22839 0.35907 0.0
C95 C 0.24603 0.16953 0.48839 0.0
C96 C 0.26088 0.09918 0.40558 0.0
C97 C 0.16975 0.1725 0.41131 0.0
O98 O 0.31352 0.173 0.38789 0.0
O99 O 0.26744 0.24351 0.43663 0.0
O100 O 0.22735 0.20079 0.35024 0.0
O101 O 0.26632 0.15367 0.47328 0.0
O102 O 0.2357 0.11222 0.39677 0.0
O103 O 0.18211 0.19161 0.4304 0.0
O104 O 0.28379 0.11512 0.41574 0.0
O105 O 0.23323 0.19456 0.47804 0.0
O106 O 0.18494 0.15933 0.38951 0.0
O107 O 0.30439 0.20823 0.44717 0.0
O108 O 0.27848 0.15258 0.35471 0.0
O109 O 0.21772 0.23638 0.38771 0.0
Sc110 Sc 0.25795 0.83121 0.86268 0.0
Sc111 Sc 0.28211 0.80107 0.93489 0.0
Sc112 Sc 0.22787 0.86382 0.93162 0.0
O113 O 0.2561 0.83216 0.90982 0.0
C114 C 0.24825 0.90506 0.87486 0.0
C115 C 0.32887 0.82572 0.88211 0.0
C116 C 0.28764 0.86292 0.97651 0.0
C117 C 0.26502 0.75797 0.87747 0.0
C118 C 0.18575 0.83852 0.87534 0.0
C119 C 0.21762 0.80093 0.97073 0.0
O120 O 0.25353 0.8811 0.85801 0.0
O121 O 0.32248 0.8118 0.90762 0.0
O122 O 0.2631 0.87619 0.96589 0.0
O123 O 0.26104 0.78113 0.85932 0.0
O124 O 0.18926 0.85504 0.8999 0.0
O125 O 0.24356 0.78804 0.96398 0.0
O126 O 0.20828 0.82635 0.8602 0.0
O127 O 0.27155 0.7611 0.90619 0.0
O128 O 0.20953 0.82793 0.96106 0.0
O129 O 0.30809 0.83555 0.86303 0.0
O130 O 0.24217 0.90311 0.90382 0.0
O131 O 0.2968 0.83617 0.96728 0.0
Sc132 Sc 0.76954 0.34719 0.54537 0.0
Sc133 Sc 0.71477 0.28805 0.52753 0.0
Sc134 Sc 0.71068 0.32773 0.59805 0.0
O135 O 0.73204 0.32089 0.557 0.0
C136 C 0.78224 0.32852 0.61684 0.0
C137 C 0.78821 0.28165 0.51638 0.0
C138 C 0.70588 0.25303 0.58965 0.0
C139 C 0.72659 0.34701 0.48409 0.0
C140 C 0.73101 0.39775 0.58245 0.0
C141 C 0.6524 0.31717 0.55726 0.0
O142 O 0.7913 0.33963 0.59068 0.0
O143 O 0.76017 0.27304 0.51181 0.0
O144 O 0.70055 0.27882 0.60361 0.0
O145 O 0.7501 0.35684 0.49963 0.0
O146 O 0.71717 0.37707 0.59842 0.0
O147 O 0.66669 0.29713 0.54042 0.0
O148 O 0.74937 0.39082 0.56028 0.0
O149 O 0.71093 0.32286 0.49168 0.0
O150 O 0.66666 0.33548 0.57574 0.0
O151 O 0.79514 0.30737 0.5294 0.0
O152 O 0.75396 0.32121 0.62254 0.0
O153 O 0.71681 0.25164 0.5621 0.0
Sc154 Sc 0.72315 0.63407 0.06659 0.0
Sc155 Sc 0.7675 0.70239 0.05532 0.0
Sc156 Sc 0.78501 0.65142 0.11759 0.0
O157 O 0.75843 0.66272 0.07995 0.0
C158 C 0.71514 0.63947 0.1401 0.0
C159 C 0.69346 0.70076 0.04992 0.0
C160 C 0.77972 0.72643 0.12389 0.0
C161 C 0.75771 0.64982 0.00315 0.0
C162 C 0.77128 0.58294 0.0922 0.0
C163 C 0.83588 0.67576 0.07054 0.0
O164 O 0.70361 0.63557 0.11287 0.0
O165 O 0.71905 0.71574 0.05024 0.0
O166 O 0.78689 0.69928 0.13396 0.0
O167 O 0.7416 0.63135 0.02 0.0
O168 O 0.78766 0.60218 0.1077 0.0
O169 O 0.81727 0.69474 0.05702 0.0
O170 O 0.74757 0.59144 0.07655 0.0
O171 O 0.76696 0.6766 0.01236 0.0
O172 O 0.82737 0.65698 0.0919 0.0
O173 O 0.6922 0.67149 0.0545 0.0
O174 O 0.74398 0.64467 0.14545 0.0
O175 O 0.7699 0.73132 0.09624 0.0
Sc176 Sc 0.38626 0.20696 0.12482 0.0
Sc177 Sc 0.4532 0.21145 0.17183 0.0
Sc178 Sc 0.43857 0.26899 0.11424 0.0
O179 O 0.42602 0.22915 0.13711 0.0
C180 C 0.41109 0.22699 0.05873 0.0
C181 C 0.42785 0.14768 0.14255 0.0
C182 C 0.50063 0.22809 0.11714 0.0
C183 C 0.38507 0.20539 0.19931 0.0
C184 C 0.36612 0.27957 0.12205 0.0
C185 C 0.46225 0.28477 0.18288 0.0
O186 O 0.39803 0.20708 0.07638 0.0
O187 O 0.44689 0.16305 0.15932 0.0
O188 O 0.48419 0.24992 0.10509 0.0
O189 O 0.37177 0.20438 0.17266 0.0
O190 O 0.39367 0.29064 0.12192 0.0
O191 O 0.46339 0.25643 0.19164 0.0
O192 O 0.36046 0.25033 0.12085 0.0
O193 O 0.41442 0.20851 0.20303 0.0
O194 O 0.45416 0.29266 0.15548 0.0
O195 O 0.40576 0.16068 0.1275 0.0
O196 O 0.4244 0.25138 0.0693 0.0
O197 O 0.49284 0.21281 0.14147 0.0
Sc198 Sc 0.92033 0.22559 0.8564 0.0
Sc199 Sc 0.9422 0.28304 0.80271 0.0
Sc200 Sc 0.87703 0.29468 0.8491 0.0
O201 O 0.91304 0.26742 0.836 0.0
C202 C 0.84681 0.22787 0.84304 0.0
C203 C 0.94271 0.20928 0.78882 0.0
C204 C 0.87855 0.30254 0.77458 0.0
C205 C 0.98701 0.25809 0.85564 0.0
C206 C 0.89486 0.26296 0.91433 0.0
C207 C 0.925 0.34636 0.83914 0.0
O208 O 0.87169 0.21361 0.85152 0.0
O209 O 0.95205 0.23707 0.78371 0.0
O210 O 0.86924 0.31071 0.80171 0.0
O211 O 0.96948 0.23499 0.86242 0.0
O212 O 0.87885 0.28171 0.89765 0.0
O213 O 0.93626 0.33161 0.81585 0.0
O214 O 0.91387 0.24343 0.90258 0.0
O215 O 0.97993 0.279 0.83549 0.0
O216 O 0.90771 0.33295 0.85909 0.0
O217 O 0.92754 0.20199 0.81307 0.0
O218 O 0.84497 0.25747 0.83972 0.0
O219 O 0.90418 0.28791 0.77005 0.0
Sc220 Sc 0.55357 0.75307 0.36621 0.0
Sc221 Sc 0.53476 0.69938 0.3067 0.0
Sc222 Sc 0.60376 0.69076 0.34851 0.0
O223 O 0.56413 0.71481 0.34045 0.0
C224 C 0.62569 0.76159 0.34968 0.0
C225 C 0.52464 0.77337 0.30118 0.0
C226 C 0.59728 0.68888 0.27345 0.0
C227 C 0.49102 0.71258 0.36463 0.0
C228 C 0.58787 0.7124 0.41797 0.0
C229 C 0.56292 0.63469 0.33303 0.0
O230 O 0.59952 0.77236 0.35913 0.0
O231 O 0.51915 0.74542 0.29264 0.0
O232 O 0.61007 0.68159 0.2994 0.0
O233 O 0.50711 0.73563 0.37469 0.0
O234 O 0.60308 0.69644 0.39814 0.0
O235 O 0.54713 0.65063 0.31339 0.0
O236 O 0.56749 0.73258 0.41 0.0
O237 O 0.49864 0.69607 0.34095 0.0
O238 O 0.57899 0.64772 0.35429 0.0
O239 O 0.53881 0.77972 0.32643 0.0
O240 O 0.6307 0.73272 0.34376 0.0
O241 O 0.57036 0.70155 0.27165 0.0
Sc242 Sc 0.09643 0.79132 0.67743 0.0
Sc243 Sc 0.01832 0.7849 0.69756 0.0
Sc244 Sc 0.05165 0.73135 0.64448 0.0
O245 O 0.05551 0.76872 0.67329 0.0
C246 C 0.10042 0.77091 0.60593 0.0
C247 C 0.05012 0.84727 0.67326 0.0
C248 C -0.00776 0.77398 0.62893 0.0
C249 C 0.06954 0.79412 0.74729 0.0
C250 C 0.11573 0.7201 0.68251 0.0
C251 C 0.00675 0.71115 0.69945 0.0
O252 O 0.11114 0.78492 0.62977 0.0
O253 O 0.03042 0.83346 0.69064 0.0
O254 O 0.00995 0.75073 0.62237 0.0
O255 O 0.08912 0.80172 0.72633 0.0
O256 O 0.09382 0.71059 0.66442 0.0
O257 O 0.00085 0.73908 0.70779 0.0
O258 O 0.11896 0.74863 0.69075 0.0
O259 O 0.04286 0.78281 0.74123 0.0
O260 O 0.02545 0.70455 0.67747 0.0
O261 O 0.07476 0.83398 0.66331 0.0
O262 O 0.07728 0.75256 0.6074 0.0
O263 O -0.00735 0.78817 0.65507 0.0
Sc264 Sc 0.8351 0.55357 0.72901 0.0
Sc265 Sc 0.78508 0.52413 0.78674 0.0
Sc266 Sc 0.79924 0.60378 0.78125 0.0
O267 O 0.80633 0.56035 0.76548 0.0
C268 C 0.87108 0.60691 0.76212 0.0
C269 C 0.853 0.49785 0.77509 0.0
C270 C 0.8043 0.56878 0.84376 0.0
C271 C 0.77998 0.50765 0.71431 0.0
C272 C 0.79547 0.61438 0.70962 0.0
C273 C 0.7322 0.57216 0.79224 0.0
O274 O 0.87204 0.57974 0.75013 0.0
O275 O 0.82929 0.50127 0.79263 0.0
O276 O 0.81545 0.59014 0.82637 0.0
O277 O 0.79998 0.52756 0.70534 0.0
O278 O 0.78277 0.61838 0.73621 0.0
O279 O 0.73938 0.54479 0.78321 0.0
O280 O 0.81743 0.59462 0.70493 0.0
O281 O 0.77548 0.5009 0.74294 0.0
O282 O 0.75204 0.59408 0.79511 0.0
O283 O 0.85611 0.51212 0.74916 0.0
O284 O 0.84566 0.61979 0.77064 0.0
O285 O 0.79054 0.54469 0.83278 0.0
Sc286 Sc 0.64983 0.37276 0.25833 0.0
Sc287 Sc 0.69496 0.44039 0.26816 0.0
Sc288 Sc 0.64572 0.4321 0.20248 0.0
O289 O 0.66368 0.41517 0.24305 0.0
C290 C 0.65384 0.36188 0.18433 0.0
C291 C 0.72345 0.37114 0.26796 0.0
C292 C 0.71559 0.45756 0.19897 0.0
C293 C 0.66029 0.40678 0.32385 0.0
C294 C 0.58633 0.39937 0.2344 0.0
C295 C 0.64149 0.48958 0.24983 0.0
O296 O 0.64753 0.35327 0.21202 0.0
O297 O 0.72597 0.40066 0.27199 0.0
O298 O 0.68917 0.45155 0.18686 0.0
O299 O 0.6501 0.38465 0.30696 0.0
O300 O 0.59962 0.41411 0.21225 0.0
O301 O 0.66472 0.48083 0.26648 0.0
O302 O 0.60158 0.38599 0.2562 0.0
O303 O 0.67514 0.42983 0.31275 0.0
O304 O 0.63208 0.47483 0.22567 0.0
O305 O 0.69767 0.35758 0.26158 0.0
O306 O 0.65813 0.39033 0.1768 0.0
O307 O 0.72098 0.45457 0.22794 0.0
Sc308 Sc 0.33195 0.8811 0.20619 0.0
Sc309 Sc 0.30617 0.95916 0.20828 0.0
Sc310 Sc 0.36371 0.93268 0.26179 0.0
O311 O 0.33412 0.92441 0.2253 0.0
C312 C 0.33288 0.8677 0.27989 0.0
C313 C 0.26006 0.90191 0.21039 0.0
C314 C 0.30601 0.97584 0.28084 0.0
C315 C 0.32377 0.92298 0.14537 0.0
C316 C 0.40397 0.88316 0.22191 0.0
C317 C 0.37371 0.9907 0.21598 0.0
O318 O 0.32914 0.85979 0.25145 0.0
O319 O 0.26438 0.93134 0.21122 0.0
O320 O 0.33158 0.96201 0.2869 0.0
O321 O 0.3334 0.89819 0.15887 0.0
O322 O 0.40031 0.90344 0.24337 0.0
O323 O 0.34632 0.98902 0.20423 0.0
O324 O 0.38169 0.87427 0.20441 0.0
O325 O 0.31269 0.94623 0.16023 0.0
O326 O 0.38375 0.97241 0.23746 0.0
O327 O 0.28196 0.88199 0.20721 0.0
O328 O 0.34489 0.89373 0.28817 0.0
O329 O 0.29432 0.9767 0.25362 0.0
Sc330 Sc 0.14301 0.12596 0.70246 0.0
Sc331 Sc 0.17382 0.05274 0.68299 0.0
Sc332 Sc 0.11408 0.05867 0.73931 0.0
O333 O 0.14363 0.07911 0.70833 0.0
C334 C 0.13705 0.11884 0.7758 0.0
C335 C 0.21625 0.11082 0.69507 0.0
C336 C 0.17642 0.01881 0.74917 0.0
C337 C 0.1531 0.10518 0.63362 0.0
C338 C 0.07033 0.11182 0.71174 0.0
C339 C 0.11165 0.01316 0.68022 0.0
O340 O 0.14791 0.13276 0.75192 0.0
O341 O 0.21397 0.08112 0.69425 0.0
O342 O 0.15154 0.03125 0.75986 0.0
O343 O 0.1387 0.12306 0.65253 0.0
O344 O 0.07365 0.08434 0.72282 0.0
O345 O 0.13688 0.02256 0.66786 0.0
O346 O 0.09332 0.12932 0.70531 0.0
O347 O 0.16671 0.08011 0.64211 0.0
O348 O 0.10215 0.02254 0.70676 0.0
O349 O 0.19263 0.1288 0.6974 0.0
O350 O 0.12232 0.09312 0.77482 0.0
O351 O 0.18565 0.02283 0.72132 0.0
Sc352 Sc 0.7237 0.84324 0.57577 0.0
Sc353 Sc 0.76828 0.791 0.5313 0.0
Sc354 Sc 0.79582 0.81546 0.60318 0.0
O355 O 0.7621 0.81652 0.57039 0.0
C356 C 0.77383 0.88649 0.60943 0.0
C357 C 0.74954 0.85851 0.50769 0.0
C358 C 0.83833 0.81051 0.54682 0.0
C359 C 0.69402 0.78821 0.53775 0.0
C360 C 0.73327 0.80813 0.64148 0.0
C361 C 0.78877 0.74408 0.58112 0.0
O362 O 0.74922 0.88226 0.59347 0.0
O363 O 0.76655 0.83393 0.50544 0.0
O364 O 0.83 0.8283 0.56908 0.0
O365 O 0.69196 0.80846 0.55921 0.0
O366 O 0.76242 0.80286 0.6382 0.0
O367 O 0.77003 0.74911 0.55855 0.0
O368 O 0.71674 0.82369 0.6219 0.0
O369 O 0.7194 0.78226 0.52365 0.0
O370 O 0.80371 0.76573 0.59526 0.0
O371 O 0.72981 0.8634 0.52959 0.0
O372 O 0.79241 0.86428 0.61638 0.0
O373 O 0.81884 0.79291 0.53296 0.0
Sc374 Sc 0.76916 0.10842 0.06085 0.0
Sc375 Sc 0.7227 0.17133 0.03342 0.0
Sc376 Sc 0.71443 0.14483 0.10926 0.0
O377 O 0.73563 0.14151 0.0677 0.0
C378 C 0.72416 0.07097 0.10453 0.0
C379 C 0.72934 0.106 -0.00195 0.0
C380 C 0.65779 0.15242 0.06488 0.0
C381 C 0.79681 0.16742 0.02588 0.0
C382 C 0.78516 0.1379 0.12765 0.0
C383 C 0.7153 0.21716 0.08876 0.0
O384 O 0.74144 0.07131 0.08046 0.0
O385 O 0.71657 0.13266 0.00211 0.0
O386 O 0.66986 0.13791 0.08792 0.0
O387 O 0.80063 0.14203 0.04092 0.0
O388 O 0.75894 0.15176 0.13121 0.0
O389 O 0.72691 0.21283 0.06185 0.0
O390 O 0.79074 0.11866 0.10549 0.0
O391 O 0.7701 0.17894 0.01952 0.0
O392 O 0.70781 0.1947 0.10665 0.0
O393 O 0.75074 0.09512 0.01575 0.0
O394 O 0.71606 0.09578 0.11865 0.0
O395 O 0.67381 0.16789 0.04517 0.0
Sc396 Sc 0.25466 0.65459 0.37274 0.0
Sc397 Sc 0.26251 0.69503 0.44365 0.0
Sc398 Sc 0.20538 0.63636 0.43441 0.0
O399 O 0.24073 0.66234 0.4169 0.0
C400 C 0.18004 0.64966 0.3678 0.0
C401 C 0.25851 0.72862 0.37684 0.0
C402 C 0.19295 0.70338 0.46582 0.0
C403 C 0.31962 0.66629 0.40713 0.0
C404 C 0.24081 0.5857 0.39201 0.0
C405 C 0.25531 0.63573 0.48869 0.0
O406 O 0.20743 0.6491 0.35627 0.0
O407 O 0.26402 0.7291 0.40615 0.0
O408 O 0.18635 0.67486 0.46059 0.0
O409 O 0.3032 0.65823 0.38377 0.0
O410 O 0.21858 0.59399 0.40992 0.0
O411 O 0.26469 0.66348 0.48301 0.0
O412 O 0.25937 0.60532 0.37994 0.0
O413 O 0.30824 0.67871 0.43153 0.0
O414 O 0.23467 0.62186 0.47236 0.0
O415 O 0.25205 0.70365 0.36187 0.0
O416 O 0.17454 0.64933 0.39695 0.0
O417 O 0.2192 0.71535 0.45908 0.0
Sc418 Sc 0.2634 0.33302 0.91778 0.0
Sc419 Sc 0.21093 0.28064 0.9515 0.0
Sc420 Sc 0.19674 0.3098 0.87793 0.0
O421 O 0.22425 0.30757 0.91554 0.0
C422 C 0.22115 0.37995 0.88101 0.0
C423 C 0.2303 0.34396 0.98304 0.0
C424 C 0.14628 0.30883 0.92732 0.0
C425 C 0.28453 0.27133 0.95101 0.0
C426 C 0.26318 0.30365 0.84872 0.0
C427 C 0.19311 0.23772 0.89811 0.0
O428 O 0.24017 0.37507 0.90328 0.0
O429 O 0.21134 0.32122 0.98038 0.0
O430 O 0.15912 0.32554 0.90656 0.0
O431 O 0.29016 0.29327 0.93195 0.0
O432 O 0.23466 0.29511 0.8488 0.0
O433 O 0.2099 0.24008 0.92245 0.0
O434 O 0.27551 0.32021 0.87035 0.0
O435 O 0.258 0.2676 0.96377 0.0
O436 O 0.18276 0.2613 0.88295 0.0
O437 O 0.25386 0.34786 0.96526 0.0
O438 O 0.20663 0.35792 0.86742 0.0
O439 O 0.16151 0.28832 0.94278 0.0
Sc440 Sc 0.61956 0.7543 0.84593 0.0
Sc441 Sc 0.55223 0.76873 0.80215 0.0
Sc442 Sc 0.54927 0.71891 0.86682 0.0
O443 O 0.57374 0.74716 0.83815 0.0
C444 C 0.61108 0.68119 0.8607 0.0
C445 C 0.61879 0.75059 0.77296 0.0
C446 C 0.52106 0.70303 0.79907 0.0
C447 C 0.59613 0.82214 0.82482 0.0
C448 C 0.59484 0.75476 0.91447 0.0
C449 C 0.50207 0.77419 0.85675 0.0
O450 O 0.62744 0.70602 0.85913 0.0
O451 O 0.59135 0.76209 0.77153 0.0
O452 O 0.52199 0.69953 0.82867 0.0
O453 O 0.61726 0.80311 0.83377 0.0
O454 O 0.57408 0.7342 0.90855 0.0
O455 O 0.51074 0.77838 0.82866 0.0
O456 O 0.61094 0.76759 0.89319 0.0
O457 O 0.56921 0.81348 0.81595 0.0
O458 O 0.51557 0.75514 0.87526 0.0
O459 O 0.63185 0.74269 0.79856 0.0
O460 O 0.58145 0.68108 0.85985 0.0
O461 O 0.53372 0.72585 0.78512 0.0
Sc462 Sc 0.04307 0.7903 0.14529 0.0
Sc463 Sc 0.02493 0.72264 0.18691 0.0
Sc464 Sc 0.10179 0.73971 0.16989 0.0
O465 O 0.05665 0.75087 0.16731 0.0
C466 C 0.09446 0.76627 0.1004 0.0
C467 C -0.00767 0.74046 0.12431 0.0
C468 C 0.07504 0.67347 0.16026 0.0
C469 C 0.00122 0.79058 0.20459 0.0
C470 C 0.1054 0.81192 0.17976 0.0
C471 C 0.07608 0.71948 0.23727 0.0
O472 O 0.0668 0.77678 0.10345 0.0
O473 O 0.00155 0.71912 0.14292 0.0
O474 O 0.09398 0.69412 0.1506 0.0
O475 O 0.01982 0.80529 0.18682 0.0
O476 O 0.11247 0.78462 0.18946 0.0
O477 O 0.04735 0.72449 0.2317 0.0
O478 O 0.08323 0.81694 0.16049 0.0
O479 O -0.00393 0.76133 0.20187 0.0
O480 O 0.0973 0.72114 0.21652 0.0
O481 O 0.00136 0.76879 0.12647 0.0
O482 O 0.11072 0.75615 0.12328 0.0
O483 O 0.05067 0.68035 0.17591 0.0
Sc484 Sc 0.42889 0.21841 0.62099 0.0
Sc485 Sc 0.45449 0.26389 0.68492 0.0
Sc486 Sc 0.38684 0.28468 0.64457 0.0
O487 O 0.42326 0.2553 0.65024 0.0
C488 C 0.40251 0.27033 0.57379 0.0
C489 C 0.49533 0.25219 0.62435 0.0
C490 C 0.43456 0.33394 0.66722 0.0
C491 C 0.45715 0.1888 0.68218 0.0
C492 C 0.35621 0.21718 0.63621 0.0
C493 C 0.39131 0.27354 0.71894 0.0
O494 O 0.4168 0.24496 0.58004 0.0
O495 O 0.49022 0.26709 0.64978 0.0
O496 O 0.41569 0.32534 0.64607 0.0
O497 O 0.44184 0.18623 0.65698 0.0
O498 O 0.35486 0.24639 0.64206 0.0
O499 O 0.41862 0.26151 0.71985 0.0
O500 O 0.38124 0.2031 0.62808 0.0
O501 O 0.4651 0.21516 0.69338 0.0
O502 O 0.37912 0.28519 0.69429 0.0
O503 O 0.47681 0.23176 0.61286 0.0
O504 O 0.39006 0.28727 0.59471 0.0
O505 O 0.44857 0.31434 0.6847 0.0
Sc506 Sc 0.89406 0.20921 0.33201 0.0
Sc507 Sc 0.96372 0.20564 0.29143 0.0
Sc508 Sc 0.94808 0.2696 0.34117 0.0
O509 O 0.9352 0.22857 0.32143 0.0
C510 C 0.87684 0.28102 0.3226 0.0
C511 C 0.90005 0.1998 0.258 0.0
C512 C 0.97933 0.27679 0.27504 0.0
C513 C 0.93013 0.14807 0.32499 0.0
C514 C 0.9128 0.23807 0.39799 0.0
C515 C 0.00707 0.22367 0.34825 0.0
O516 O 0.87037 0.25197 0.32153 0.0
O517 O 0.92874 0.20716 0.25536 0.0
O518 O 0.9642 0.2884 0.29771 0.0
O519 O 0.91518 0.16538 0.34375 0.0
O520 O 0.9332 0.25677 0.38743 0.0
O521 O -0.00157 0.20366 0.32776 0.0
O522 O 0.89664 0.22053 0.3804 0.0
O523 O 0.9469 0.15947 0.30339 0.0
O524 O -0.00681 0.24985 0.35277 0.0
O525 O 0.8863 0.19591 0.28406 0.0
O526 O 0.9035 0.2915 0.33086 0.0
O527 O 0.98397 0.24752 0.27218 0.0
H528 H 0.1919 0.46956 0.32274 0.0
H529 H 0.26164 0.50067 0.25678 0.0
H530 H 0.28484 0.53408 0.29681 0.0
H531 H 0.2775 0.56285 0.34548 0.0
H532 H 0.20372 0.53619 0.4089 0.0
H533 H 0.19078 0.49178 0.37539 0.0
C534 C 0.21259 0.48311 0.31721 0.0
C535 C 0.22433 0.48349 0.28647 0.0
C536 C 0.22497 0.50326 0.33989 0.0
C537 C 0.25162 0.50056 0.28003 0.0
C538 C 0.2649 0.51971 0.30291 0.0
C539 C 0.25912 0.54688 0.35252 0.0
C540 C 0.24078 0.55356 0.37902 0.0
C541 C 0.25057 0.52261 0.33224 0.0
C542 C 0.21771 0.53206 0.3882 0.0
C543 C 0.21012 0.50678 0.3689 0.0
H544 H 0.20024 0.39516 0.82312 0.0
H545 H 0.24173 0.43501 0.90633 0.0
H546 H 0.25666 0.48156 0.87693 0.0
H547 H 0.2681 0.50453 0.82602 0.0
H548 H 0.23093 0.46221 0.74205 0.0
H549 H 0.20365 0.42318 0.77346 0.0
C550 C 0.21173 0.4144 0.83508 0.0
C551 C 0.22082 0.41127 0.86657 0.0
C552 C 0.22158 0.44031 0.81775 0.0
C553 C 0.23517 0.43661 0.88188 0.0
C554 C 0.24386 0.46314 0.86506 0.0
C555 C 0.25364 0.48705 0.8146 0.0
C556 C 0.25237 0.48549 0.7818 0.0
C557 C 0.23894 0.4642 0.83266 0.0
C558 C 0.23273 0.46347 0.7673 0.0
C559 C 0.21721 0.44111 0.78523 0.0
H560 H 0.74907 0.94158 0.59026 0.0
H561 H 0.80517 0.90042 0.66369 0.0
H562 H 0.79399 0.94529 0.6975 0.0
H563 H 0.75793 0.98859 0.71003 0.0
H564 H 0.69772 0.02609 0.63781 0.0
H565 H 0.72102 0.99055 0.59965 0.0
C566 C 0.75958 0.94285 0.61336 0.0
C567 C 0.77709 0.91733 0.62483 0.0
C568 C 0.7517 0.96779 0.63315 0.0
C569 C 0.79129 0.91961 0.65444 0.0
C570 C 0.78458 0.94511 0.67393 0.0
C571 C 0.7506 0.98965 0.68574 0.0
C572 C 0.72558 0.00932 0.67688 0.0
C573 C 0.76318 0.96822 0.66419 0.0
C574 C 0.71647 0.01064 0.6453 0.0
C575 C 0.72975 0.9903 0.62348 0.0
H576 H 0.72143 0.98098 0.21486 0.0
H577 H 0.79422 0.93724 0.15996 0.0
H578 H 0.7776 0.9666 0.11409 0.0
H579 H 0.75269 0.01467 0.09482 0.0
H580 H 0.68156 0.05996 0.15055 0.0
H581 H 0.68649 0.01935 0.19022 0.0
C582 C 0.73308 0.97721 0.19265 0.0
C583 C 0.75992 0.95824 0.19121 0.0
C584 C 0.72398 -0.00522 0.1665 0.0
C585 C 0.77404 0.95256 0.162 0.0
C586 C 0.76464 0.96942 0.13568 0.0
C587 C 0.73743 0.01503 0.11505 0.0
C588 C 0.71799 0.04103 0.12056 0.0
C589 C 0.74119 0.99225 0.13836 0.0
C590 C 0.69763 0.0407 0.14638 0.0
C591 C 0.7005 0.01756 0.16919 0.0
H592 H 0.35535 0.30672 0.5513 0.0
H593 H 0.43248 0.24817 0.5219 0.0
H594 H 0.40785 0.24085 0.47097 0.0
H595 H 0.35787 0.237 0.44346 0.0
H596 H 0.27817 0.28971 0.4762 0.0
H597 H 0.31049 0.31441 0.51636 0.0
C598 C 0.36738 0.29338 0.53334 0.0
C599 C 0.39493 0.27679 0.54074 0.0
C600 C 0.35219 0.28775 0.50483 0.0
C601 C 0.41068 0.26028 0.51702 0.0
C602 C 0.39654 0.25598 0.48794 0.0
C603 C 0.34796 0.25485 0.45865 0.0
C604 C 0.31562 0.26066 0.45792 0.0
C605 C 0.36616 0.26734 0.48279 0.0
C606 C 0.30298 0.28446 0.47681 0.0
C607 C 0.32139 0.29829 0.50004 0.0
H608 H 0.14904 0.73922 0.0832 0.0
H609 H 0.07429 0.79855 0.04881 0.0
H610 H 0.10498 0.8108 0.00244 0.0
H611 H 0.15567 0.8111 0.97639 0.0
H612 H 0.23148 0.75423 0.01232 0.0
H613 H 0.19739 0.73419 0.05342 0.0
C614 C 0.13926 0.75455 0.06539 0.0
C615 C 0.10985 0.76868 0.0698 0.0
C616 C 0.15729 0.76214 0.03934 0.0
C617 C 0.0971 0.78774 0.04616 0.0
C618 C 0.11467 0.79487 0.01972 0.0
C619 C 0.16466 0.79408 -0.00695 0.0
C620 C 0.19617 0.78475 -0.00803 0.0
C621 C 0.14525 0.78327 0.01685 0.0
C622 C 0.20734 0.76201 0.013 0.0
C623 C 0.18793 0.75066 0.03652 0.0
H624 H 0.8709 0.20178 0.42831 0.0
H625 H 0.9318 0.28129 0.4417 0.0
H626 H 0.90063 0.29815 0.48638 0.0
H627 H 0.84926 0.29794 0.51127 0.0
H628 H 0.78494 0.22225 0.49241 0.0
H629 H 0.82427 0.19628 0.46022 0.0
C630 C 0.87787 0.2224 0.44145 0.0
C631 C 0.90272 0.24108 0.43084 0.0
C632 C 0.85866 0.23313 0.46558 0.0
C633 C 0.91224 0.26694 0.44886 0.0
C634 C 0.89422 0.27678 0.47423 0.0
C635 C 0.844 0.27543 0.50068 0.0
C636 C 0.81384 0.2626 0.50322 0.0
C637 C 0.86616 0.26135 0.48115 0.0
C638 C 0.8077 0.23307 0.49002 0.0
C639 C 0.83019 0.21818 0.47167 0.0
H640 H 0.57911 0.72066 0.96589 0.0
H641 H 0.63498 0.79944 0.93655 0.0
H642 H 0.66746 0.79425 0.98309 0.0
H643 H 0.6882 0.75841 0.02288 0.0
H644 H 0.6338 0.67797 0.05047 0.0
H645 H 0.59224 0.69336 0.01457 0.0
C646 C 0.59767 0.73741 0.97019 0.0
C647 C 0.60553 0.75941 0.94708 0.0
C648 C 0.61702 0.73362 -0.00354 0.0
C649 C 0.62909 0.78153 0.95348 0.0
C650 C 0.64782 0.77852 0.98007 0.0
C651 C 0.66682 0.74483 0.02188 0.0
C652 C 0.66476 0.71631 0.03818 0.0
C653 C 0.64341 0.75318 0.00036 0.0
C654 C 0.63648 0.6995 0.0373 0.0
C655 C 0.61267 0.7082 0.01668 0.0
H656 H 0.46996 0.34672 0.1703 0.0
H657 H 0.48261 0.27771 0.24328 0.0
H658 H 0.51679 0.31344 0.2716 0.0
H659 H 0.55288 0.3574 0.26822 0.0
H660 H 0.54439 0.42356 0.19215 0.0
H661 H 0.49796 0.39647 0.17324 0.0
C662 C 0.47955 0.33972 0.19277 0.0
C663 C 0.47486 0.3091 0.20398 0.0
C664 C 0.50023 0.35983 0.20828 0.0
C665 C 0.48665 0.30081 0.23361 0.0
C666 C 0.50625 0.32123 0.24984 0.0
C667 C 0.54037 0.36655 0.24806 0.0
C668 C 0.55288 0.39157 0.23078 0.0
C669 C 0.51483 0.34983 0.23628 0.0
C670 C 0.53578 0.40371 0.20534 0.0
C671 C 0.50933 0.38809 0.19436 0.0
H672 H 0.97152 0.21417 0.7324 0.0
H673 H 0.93985 0.1462 0.80004 0.0
H674 H 0.97228 0.106 0.77586 0.0
H675 H 0.01877 0.09436 0.74441 0.0
H676 H 0.05195 0.16312 0.67839 0.0
H677 H 0.00921 0.19828 0.69238 0.0
C678 C 0.97108 0.19037 0.74136 0.0
C679 C 0.95432 0.18356 0.76871 0.0
C680 C 0.99037 0.16748 0.72784 0.0
C681 C 0.95318 0.15236 0.77944 0.0
C682 C 0.97183 0.12929 0.7657 0.0
C683 C 0.01598 0.11652 0.73224 0.0
C684 C 0.0391 0.12664 0.71131 0.0
C685 C -0.00801 0.13715 0.74119 0.0
C686 C 0.03487 0.15518 0.6953 0.0
C687 C 0.01054 0.17541 0.70338 0.0
H688 H 0.49135 0.77022 0.24667 0.0
H689 H 0.52935 0.8361 0.31347 0.0
H690 H 0.50025 0.87855 0.28881 0.0
H691 H 0.45688 0.89471 0.25525 0.0
H692 H 0.41645 0.82842 0.19043 0.0
H693 H 0.45462 0.78894 0.20645 0.0
C694 C 0.49371 0.79394 0.25554 0.0
C695 C 0.51174 0.7997 0.28253 0.0
C696 C 0.47644 0.81828 0.2416 0.0
C697 C 0.51508 0.83075 0.29319 0.0
C698 C 0.49847 0.85514 0.27907 0.0
C699 C 0.45689 0.87191 0.24396 0.0
C700 C 0.43312 0.86426 0.22248 0.0
C701 C 0.47796 0.84887 0.25426 0.0
C702 C 0.4341 0.83488 0.20747 0.0
C703 C 0.45574 0.81209 0.21687 0.0
H704 H 0.92517 0.59447 0.73146 0.0
H705 H 0.88089 0.66279 0.79168 0.0
H706 H 0.92261 0.70002 0.78091 0.0
H707 H 0.96616 0.71582 0.74785 0.0
H708 H 0.00841 0.64861 0.68494 0.0
H709 H 0.97308 0.60811 0.70375 0.0
C710 C 0.92497 0.61723 0.74281 0.0
C711 C 0.89961 0.62615 0.76172 0.0
C712 C 0.94837 0.63888 0.73568 0.0
C713 C 0.89989 0.65559 0.77653 0.0
C714 C 0.92366 0.67693 0.77033 0.0
C715 C 0.96796 0.69224 0.73849 0.0
C716 C 0.98929 0.68549 0.71443 0.0
C717 C 0.94714 0.6693 0.74879 0.0
C718 C 0.99179 0.65461 0.70311 0.0
C719 C 0.97159 0.63141 0.71381 0.0
H720 H 0.69829 0.41945 0.63197 0.0
H721 H 0.76594 0.44805 0.56285 0.0
H722 H 0.78413 0.48953 0.59766 0.0
H723 H 0.78974 0.50774 0.65166 0.0
H724 H 0.72709 0.47313 0.72283 0.0
H725 H 0.6987 0.4431 0.68351 0.0
C726 C 0.71652 0.43522 0.62412 0.0
C727 C 0.73182 0.42972 0.59555 0.0
C728 C 0.72868 0.45701 0.64518 0.0
C729 C 0.75435 0.45122 0.58514 0.0
C730 C 0.7651 0.47465 0.60523 0.0
C731 C 0.76966 0.49391 0.65856 0.0
C732 C 0.76114 0.4918 0.69025 0.0
C733 C 0.75404 0.47603 0.63606 0.0
C734 C 0.7347 0.47433 0.69871 0.0
C735 C 0.71827 0.45741 0.67622 0.0
H736 H 0.71689 0.46048 0.13549 0.0
H737 H 0.7693 0.48669 0.21793 0.0
H738 H 0.80066 0.52263 0.18699 0.0
H739 H 0.8023 0.55629 0.14091 0.0
H740 H 0.74624 0.53346 0.05996 0.0
H741 H 0.7286 0.48555 0.08533 0.0
C742 C 0.73565 0.47351 0.14656 0.0
C743 C 0.73981 0.47202 0.17915 0.0
C744 C 0.75296 0.49488 0.12884 0.0
C745 C 0.76499 0.48809 0.19298 0.0
C746 C 0.78296 0.5087 0.1753 0.0
C747 C 0.78725 0.54022 0.12824 0.0
C748 C 0.77427 0.54917 0.09932 0.0
C749 C 0.77561 0.51384 0.14375 0.0
C750 C 0.75571 0.52758 0.08277 0.0
C751 C 0.74529 0.50035 0.09742 0.0
H752 H 0.2263 0.06511 0.3648 0.0
H753 H 0.3102 0.06097 0.42118 0.0
H754 H 0.33002 0.01792 0.38908 0.0
H755 H 0.32821 0.98989 0.33893 0.0
H756 H 0.24627 -0.00151 0.28009 0.0
H757 H 0.2212 0.03164 0.31911 0.0
C758 C 0.24852 0.05424 0.37075 0.0
C759 C 0.26714 0.06684 0.3948 0.0
C760 C 0.2606 0.03096 0.35109 0.0
C761 C 0.29563 0.05205 0.40243 0.0
C762 C 0.30714 0.02767 0.38386 0.0
C763 C 0.30469 -0.00138 0.33484 0.0
C764 C 0.2895 0.99243 0.30627 0.0
C765 C 0.29066 0.01834 0.35704 0.0
C766 C 0.25883 0.00355 0.30154 0.0
C767 C 0.24437 0.02237 0.32392 0.0
H768 H 0.26297 0.9196 0.81511 0.0
H769 H 0.2177 0.95717 0.89724 0.0
H770 H 0.19225 -0.00263 0.86535 0.0
H771 H 0.17672 0.01655 0.81305 0.0
H772 H 0.22085 0.97679 0.73122 0.0
H773 H 0.25228 0.94242 0.76409 0.0
C774 C 0.2481 0.937 0.82622 0.0
C775 C 0.24177 0.9349 0.85839 0.0
C776 C 0.23252 0.95912 0.80764 0.0
C777 C 0.22291 0.95805 0.87247 0.0
C778 C 0.20795 0.98081 0.85417 0.0
C779 C 0.19324 0.00038 0.80247 0.0
C780 C 0.19594 -0.00115 0.76971 0.0
C781 C 0.21142 0.98057 0.82154 0.0
C782 C 0.21801 0.97829 0.75635 0.0
C783 C 0.23613 0.95865 0.77512 0.0
H784 H 0.68877 0.7287 0.51727 0.0
H785 H 0.63536 0.813 0.53407 0.0
H786 H 0.59148 0.79167 0.50418 0.0
H787 H 0.57448 0.75492 0.46359 0.0
H788 H 0.62924 0.67159 0.44525 0.0
H789 H 0.66561 0.68589 0.48672 0.0
C790 C 0.6672 0.74201 0.51494 0.0
C791 C 0.66545 0.77264 0.52681 0.0
C792 C 0.64235 0.72979 0.49748 0.0
C793 C 0.63725 0.78949 0.52462 0.0
C794 C 0.61223 0.77734 0.50748 0.0
C795 C 0.59368 0.73924 0.46938 0.0
C796 C 0.60001 0.71304 0.45037 0.0
C797 C 0.6153 0.74831 0.49232 0.0
C798 C 0.62441 0.69248 0.45889 0.0
C799 C 0.64544 0.70078 0.48242 0.0
H800 H 0.91209 0.21499 0.95252 0.0
H801 H 0.85449 0.29843 0.94951 0.0
H802 H 0.82096 0.27691 0.99012 0.0
H803 H 0.80061 0.22947 0.01476 0.0
H804 H 0.85516 0.14408 0.01337 0.0
H805 H 0.89725 0.17121 0.98595 0.0
C806 C 0.89281 0.22899 0.9614 0.0
C807 C 0.88485 0.2576 0.94692 0.0
C808 C 0.87244 0.21559 0.98311 0.0
C809 C 0.86055 0.2759 0.95959 0.0
C810 C 0.84113 0.26343 0.98254 0.0
C811 C 0.8219 0.2169 0.00879 0.0
C812 C 0.82441 0.1846 0.01485 0.0
C813 C 0.8455 0.23239 -0.00754 0.0
C814 C 0.8525 0.16882 0.00824 0.0
C815 C 0.87653 0.18433 -0.00739 0.0
H816 H 0.08301 0.74675 0.54999 0.0
H817 H 0.15821 0.79666 0.59546 0.0
H818 H 0.19275 0.7848 0.55161 0.0
H819 H 0.2042 0.7512 0.50618 0.0
H820 H 0.12983 0.69741 0.46406 0.0
H821 H 0.09232 0.72001 0.50064 0.0
C822 C 0.10677 0.75561 0.5501 0.0
C823 C 0.11827 0.77173 0.57639 0.0
C824 C 0.12683 0.74754 0.52558 0.0
C825 C 0.14887 0.78374 0.57573 0.0
C826 C 0.16873 0.77678 0.55075 0.0
C827 C 0.17963 0.74513 0.50452 0.0
C828 C 0.1698 0.72228 0.48298 0.0
C829 C 0.15841 0.75727 0.52642 0.0
C830 C 0.13795 0.71456 0.48092 0.0
C831 C 0.11652 0.72744 0.50181 0.0
H832 H 0.34642 0.28409 0.9485 0.0
H833 H 0.28058 0.21219 0.97443 0.0
H834 H 0.32188 0.18345 0.00162 0.0
H835 H 0.37092 0.18743 0.02981 0.0
H836 H 0.43313 0.26475 0.01163 0.0
H837 H 0.40034 0.28126 0.96787 0.0
C838 C 0.34134 0.26171 0.9594 0.0
C839 C 0.31042 0.25083 0.96072 0.0
C840 C 0.36475 0.24624 0.97635 0.0
C841 C 0.30412 0.22152 0.97423 0.0
C842 C 0.32773 0.20502 0.98958 0.0
C843 C 0.37795 0.20729 0.01565 0.0
C844 C 0.40313 0.22613 0.02516 0.0
C845 C 0.35744 0.21841 -0.00728 0.0
C846 C 0.41296 0.25066 0.00557 0.0
C847 C 0.39398 0.26038 0.9808 0.0
H848 H 0.50635 0.6429 0.8132 0.0
H849 H 0.49453 0.71397 0.74219 0.0
H850 H 0.45736 0.68084 0.71444 0.0
H851 H 0.42231 0.63578 0.71515 0.0
H852 H 0.43345 0.56496 0.78663 0.0
H853 H 0.47755 0.59341 0.80864 0.0
C854 C 0.49589 0.65091 0.79146 0.0
C855 C 0.50247 0.68105 0.78019 0.0
C856 C 0.47445 0.63183 0.77565 0.0
C857 C 0.4895 0.69094 0.75155 0.0
C858 C 0.46822 0.67205 0.73567 0.0
C859 C 0.43481 0.62617 0.73511 0.0
C860 C 0.42395 0.59887 0.74978 0.0
C861 C 0.45963 0.64301 0.74818 0.0
C862 C 0.44094 0.58627 0.77513 0.0
C863 C 0.46605 0.60264 0.78795 0.0
H864 H 0.00206 0.85348 0.21504 0.0
H865 H 0.96475 0.76658 0.25094 0.0
H866 H 0.93444 0.79546 0.28953 0.0
H867 H 0.91155 0.84477 0.30594 0.0
H868 H 0.94358 0.93168 0.2656 0.0
H869 H 0.98461 0.90343 0.23752 0.0
C870 C 0.98752 0.84081 0.23147 0.0
C871 C 0.98484 0.80802 0.22941 0.0
C872 C 0.96961 0.85757 0.25318 0.0
C873 C 0.9665 0.79192 0.25138 0.0
C874 C 0.94938 0.80837 0.27367 0.0
C875 C 0.92813 0.85778 0.29187 0.0
C876 C 0.92383 0.89007 0.28687 0.0
C877 C 0.94978 0.84119 0.27387 0.0
C878 C 0.94602 0.90664 0.26924 0.0
C879 C 0.96914 0.89045 0.25278 0.0
H880 H 0.4781 0.18155 0.74183 0.0
H881 H 0.46411 0.13116 0.6553 0.0
H882 H 0.49636 0.08808 0.67459 0.0
H883 H 0.53746 0.07095 0.71072 0.0
H884 H 0.55283 0.12228 0.79653 0.0
H885 H 0.51019 0.15787 0.78337 0.0
C886 C 0.48155 0.16083 0.72749 0.0
C887 C 0.46964 0.16001 0.69684 0.0
C888 C 0.50052 0.1363 0.73851 0.0
C889 C 0.47349 0.13264 0.67883 0.0
C890 C 0.49203 0.10799 0.68979 0.0
C891 C 0.53089 0.08931 0.72705 0.0
C892 C 0.54923 0.09474 0.75386 0.0
C893 C 0.50706 0.11043 0.71884 0.0
C894 C 0.53969 0.11799 0.77526 0.0
C895 C 0.51543 0.13862 0.76763 0.0
H896 H 0.06912 0.34658 0.18412 0.0
H897 H 0.03994 0.4252 0.24092 0.0
H898 H -0.0012 0.39332 0.26404 0.0
H899 H 0.97935 0.34069 0.27618 0.0
H900 H 0.01215 0.2613 0.2224 0.0
H901 H 0.04371 0.29599 0.19022 0.0
C902 C 0.05328 0.35711 0.20095 0.0
C903 C 0.05835 0.38794 0.21154 0.0
C904 C 0.03087 0.33821 0.21539 0.0
C905 C 0.03702 0.40133 0.23275 0.0
C906 C 0.01366 0.383 0.24626 0.0
C907 C -0.007 0.33097 0.25712 0.0
C908 C -0.0059 0.29831 0.25236 0.0
C909 C 0.01174 0.35094 0.23916 0.0
C910 C 0.01142 0.28626 0.2271 0.0
C911 C 0.02944 0.30609 0.2086 0.0
H912 H 0.17291 0.36009 0.00238 0.0
H913 H 0.27048 0.38315 0.014 0.0
H914 H 0.25684 0.42103 0.05494 0.0
H915 H 0.21828 0.44053 0.09223 0.0
H916 H 0.12138 0.41361 0.08318 0.0
H917 H 0.13346 0.38539 0.03494 0.0
C918 C 0.19121 0.37344 0.01387 0.0
C919 C 0.22272 0.36822 0.00615 0.0
C920 C 0.18321 0.39479 0.03726 0.0
C921 C 0.24613 0.38644 0.02018 0.0
C922 C 0.23831 0.40812 0.04338 0.0
C923 C 0.19953 0.42949 0.07913 0.0
C924 C 0.16906 0.42859 0.09146 0.0
C925 C 0.20703 0.41167 0.05275 0.0
C926 C 0.14504 0.41431 0.07419 0.0
C927 C 0.15203 0.39783 0.04693 0.0
H928 H 0.30256 0.6553 0.52671 0.0
H929 H 0.24152 0.57663 0.50878 0.0
H930 H 0.26405 0.54863 0.55301 0.0
H931 H 0.29577 0.54924 0.60009 0.0
H932 H 0.35364 0.62948 0.62099 0.0
H933 H 0.33883 0.65332 0.57119 0.0
C934 C 0.2942 0.63198 0.53239 0.0
C935 C 0.26982 0.61843 0.51488 0.0
C936 C 0.307 0.6161 0.55808 0.0
C937 C 0.2598 0.58792 0.52218 0.0
C938 C 0.27283 0.57177 0.54736 0.0
C939 C 0.30577 0.57167 0.59357 0.0
C940 C 0.32507 0.58795 0.61468 0.0
C941 C 0.29577 0.586 0.56593 0.0
C942 C 0.33834 0.61661 0.60541 0.0
C943 C 0.32958 0.63045 0.57711 0.0
H944 H 0.67219 0.10752 0.97156 0.0
H945 H 0.76215 0.06174 0.96518 0.0
H946 H 0.74614 0.03651 0.91626 0.0
H947 H 0.7102 0.03541 0.87146 0.0
H948 H 0.62168 0.0842 0.87684 0.0
H949 H 0.63305 0.09945 0.9307 0.0
C950 C 0.68819 0.09177 0.9596 0.0
C951 C 0.71858 0.08715 0.9713 0.0
C952 C 0.679 0.07781 0.93148 0.0
C953 C 0.73877 0.06596 0.95625 0.0
C954 C 0.72963 0.05158 0.92833 0.0
C955 C 0.69291 0.04842 0.88477 0.0
C956 C 0.66541 0.0592 0.8701 0.0
C957 C 0.70026 0.05837 0.91514 0.0
C958 C 0.64319 0.076 0.88761 0.0
C959 C 0.6498 0.08496 0.91826 0.0
H960 H 0.8053 0.88047 0.49098 0.0
H961 H 0.70649 0.8928 0.47477 0.0
H962 H 0.71754 0.92855 0.43119 0.0
H963 H 0.75533 0.94714 0.39244 0.0
H964 H 0.85415 0.93186 0.40758 0.0
H965 H 0.84318 0.90774 0.45809 0.0
C966 C 0.78625 0.89141 0.4781 0.0
C967 C 0.75523 0.88354 0.48505 0.0
C968 C 0.79284 0.91155 0.45326 0.0
C969 C 0.73055 0.89834 0.46919 0.0
C970 C 0.73689 0.9187 0.44441 0.0
C971 C 0.77458 0.93967 0.40729 0.0
C972 C 0.80547 0.94042 0.39597 0.0
C973 C 0.76798 0.92433 0.43544 0.0
C974 C 0.83015 0.931 0.41564 0.0
C975 C 0.82387 0.91687 0.4443 0.0
H976 H 0.12937 0.21775 0.42883 0.0
H977 H 0.13367 0.12557 0.38729 0.0
H978 H 0.08083 0.13235 0.36638 0.0
H979 H 0.03834 0.16816 0.35191 0.0
H980 H 0.03659 0.26209 0.39003 0.0
H981 H 0.08379 0.25098 0.42003 0.0
C982 C 0.11835 0.19867 0.41618 0.0
C983 C 0.13546 0.17141 0.40917 0.0
C984 C 0.0889 0.20349 0.40269 0.0
C985 C 0.12093 0.1469 0.39271 0.0
C986 C 0.09092 0.15093 0.38043 0.0
C987 C 0.04815 0.18618 0.36689 0.0
C988 C 0.0344 0.21616 0.36804 0.0
C989 C 0.07553 0.17982 0.38379 0.0
C990 C 0.04701 0.23897 0.3882 0.0
C991 C 0.07393 0.23261 0.40552 0.0
H992 H 0.37842 0.81794 0.92043 0.0
H993 H 0.35387 0.83718 0.82421 0.0
H994 H 0.40795 0.82733 0.80849 0.0
H995 H 0.45909 0.80451 0.82102 0.0
H996 H 0.48168 0.7809 0.91681 0.0
H997 H 0.43114 0.80122 0.93378 0.0
C998 C 0.38493 0.8204 0.89603 0.0
C999 C 0.36208 0.82739 0.87338 0.0
C1000 C 0.4155 0.81342 0.88706 0.0
C1001 C 0.37101 0.83143 0.84205 0.0
C1002 C 0.40184 0.82557 0.83302 0.0
C1003 C 0.4532 0.80425 0.84568 0.0
C1004 C 0.47375 0.79056 0.86755 0.0
C1005 C 0.42383 0.81512 0.85515 0.0
C1006 C 0.46594 0.79072 0.89945 0.0
C1007 C 0.43712 0.80239 0.90918 0.0
H1008 H 0.52258 0.30891 0.62109 0.0
H1009 H 0.52921 0.21434 0.58566 0.0
H1010 H 0.57596 0.22831 0.55597 0.0
H1011 H 0.61761 0.26577 0.54499 0.0
H1012 H 0.61161 0.36002 0.58163 0.0
H1013 H 0.56098 0.34812 0.60494 0.0
C1014 C 0.53435 0.29138 0.6069 0.0
C1015 C 0.52312 0.2605 0.6061 0.0
C1016 C 0.56087 0.29964 0.58976 0.0
C1017 C 0.53783 0.23817 0.58691 0.0
C1018 C 0.5644 0.24617 0.56986 0.0
C1019 C 0.60482 0.28405 0.55722 0.0
C1020 C 0.61851 0.3136 0.56197 0.0
C1021 C 0.57643 0.27668 0.57161 0.0
C1022 C 0.60162 0.337 0.5779 0.0
C1023 C 0.57287 0.33012 0.59152 0.0
H1024 H 0.97404 0.68239 0.10689 0.0
H1025 H 0.95558 0.78065 0.09018 0.0
H1026 H 0.90742 0.76732 0.06258 0.0
H1027 H 0.86554 0.72917 0.05509 0.0
H1028 H 0.88176 0.63178 0.07754 0.0
H1029 H 0.93629 0.64317 0.09 0.0
C1030 C 0.95976 0.70089 0.09676 0.0
C1031 C 0.96763 0.73248 0.10162 0.0
C1032 C 0.93164 0.69316 0.08201 0.0
C1033 C 0.94958 0.75614 0.0874 0.0
C1034 C 0.92201 0.74855 0.07165 0.0
C1035 C 0.88133 0.71025 0.06153 0.0
C1036 C 0.86966 0.67988 0.06624 0.0
C1037 C 0.91198 0.71731 0.07051 0.0
C1038 C 0.89028 0.65547 0.07436 0.0
C1039 C 0.92132 0.66202 0.08172 0.0
H1040 H 0.37403 0.01417 0.15753 0.0
H1041 H 0.41964 0.02273 0.24724 0.0
H1042 H 0.44679 0.06985 0.22917 0.0
H1043 H 0.44987 0.11302 0.1912 0.0
H1044 H 0.40172 0.10524 0.10261 0.0
H1045 H 0.38406 0.05275 0.11654 0.0
C1046 C 0.39025 0.02614 0.17299 0.0
C1047 C 0.39427 0.01559 0.2039 0.0
C1048 C 0.40533 0.05326 0.1626 0.0
C1049 C 0.41594 0.03069 0.22345 0.0
C1050 C 0.43138 0.05764 0.21314 0.0
C1051 C 0.43644 0.09944 0.17447 0.0
C1052 C 0.42663 0.11323 0.14612 0.0
C1053 C 0.42524 0.06981 0.18319 0.0
C1054 C 0.40925 0.09528 0.12472 0.0
C1055 C 0.39891 0.06539 0.13278 0.0
H1056 H 0.94189 0.3831 0.79031 0.0
H1057 H 0.90447 0.38744 0.884 0.0
H1058 H 0.88253 0.43918 0.87314 0.0
H1059 H 0.86366 0.4762 0.83361 0.0
H1060 H 0.89724 0.46929 0.73865 0.0
H1061 H 0.93096 0.42538 0.75346 0.0
C1062 C 0.92981 0.39571 0.80875 0.0
C1063 C 0.92374 0.38093 0.83752 0.0
C1064 C 0.91569 0.42453 0.80177 0.0
C1065 C 0.90879 0.39799 0.86137 0.0
C1066 C 0.89593 0.42744 0.85508 0.0
C1067 C 0.87865 0.46533 0.81622 0.0
C1068 C 0.8772 0.47518 0.78487 0.0
C1069 C 0.89739 0.43976 0.82472 0.0
C1070 C 0.8975 0.46168 0.76282 0.0
C1071 C 0.91679 0.43659 0.77128 0.0
H1072 H 0.63597 0.51018 0.30938 0.0
H1073 H 0.60388 0.52825 0.21522 0.0
H1074 H 0.57174 0.57185 0.23411 0.0
H1075 H 0.55616 0.60686 0.27651 0.0
H1076 H 0.58956 0.58988 0.37049 0.0
H1077 H 0.61686 0.54274 0.3526 0.0
C1078 C 0.6221 0.52379 0.29295 0.0
C1079 C 0.62277 0.51648 0.26086 0.0
C1080 C 0.60346 0.54848 0.304 0.0
C1081 C 0.60401 0.53371 0.23997 0.0
C1082 C 0.58552 0.55848 0.25078 0.0
C1083 C 0.56864 0.59243 0.29335 0.0
C1084 C 0.57096 0.602 0.32481 0.0
C1085 C 0.58533 0.56623 0.28269 0.0
C1086 C 0.58744 0.58304 0.34616 0.0
C1087 C 0.60336 0.55633 0.33587 0.0
H1088 H 0.05613 0.98872 0.69803 0.0
H1089 H 0.12833 0.97997 0.62794 0.0
H1090 H 0.1086 0.92849 0.61339 0.0
H1091 H 0.08044 0.88191 0.63024 0.0
H1092 H 0.01258 0.88877 0.70462 0.0
H1093 H 0.02036 0.94532 0.70717 0.0
C1094 C 0.06719 0.97586 0.67911 0.0
C1095 C 0.09453 0.98738 0.66513 0.0
C1096 C 0.05672 0.94576 0.67192 0.0
C1097 C 0.1078 0.97113 0.63977 0.0
C1098 C 0.0966 0.94164 0.63149 0.0
C1099 C 0.06686 0.89589 0.64656 0.0
C1100 C 0.04711 0.8812 0.6682 0.0
C1101 C 0.0726 0.92796 0.64897 0.0
C1102 C 0.0286 0.89955 0.68828 0.0
C1103 C 0.03316 0.93184 0.68988 0.0
H1104 H 0.81776 0.62358 0.87227 0.0
H1105 H 0.78128 0.53095 0.89021 0.0
H1106 H 0.76327 0.54813 0.94169 0.0
H1107 H 0.75386 0.59074 0.97925 0.0
H1108 H 0.78771 0.68391 0.95862 0.0
H1109 H 0.80999 0.66516 0.90985 0.0
C1110 C 0.80637 0.60684 0.88754 0.0
C1111 C 0.80064 0.57609 0.87725 0.0
C1112 C 0.7948 0.61718 0.91621 0.0
C1113 C 0.78594 0.55481 0.89753 0.0
C1114 C 0.77531 0.5647 0.92679 0.0
C1115 C 0.76588 0.60701 0.96398 0.0
C1116 C 0.76885 0.63874 0.97249 0.0
C1117 C 0.77873 0.59612 0.93589 0.0
C1118 C 0.78489 0.6594 0.95261 0.0
C1119 C 0.79785 0.64869 0.92479 0.0
H1120 H 0.67195 0.34051 0.45241 0.0
H1121 H 0.75701 0.39493 0.45449 0.0
H1122 H 0.73996 0.4235 0.40798 0.0
H1123 H 0.70413 0.42845 0.36372 0.0
H1124 H 0.62109 0.37129 0.35952 0.0
H1125 H 0.6336 0.34917 0.41081 0.0
C1126 C 0.68682 0.35863 0.44277 0.0
C1127 C 0.71604 0.36508 0.45653 0.0
C1128 C 0.67702 0.37476 0.41597 0.0
C1129 C 0.73462 0.38916 0.44411 0.0
C1130 C 0.72483 0.40561 0.41761 0.0
C1131 C 0.68819 0.41191 0.37444 0.0
C1132 C 0.66182 0.40134 0.35782 0.0
C1133 C 0.69642 0.3981 0.40299 0.0
C1134 C 0.64157 0.3797 0.3719 0.0
C1135 C 0.64891 0.3668 0.401 0.0
H1136 H 0.35457 0.88541 0.10432 0.0
H1137 H 0.28632 0.96015 0.10902 0.0
H1138 H 0.27212 0.95126 0.05448 0.0
H1139 H 0.27271 0.91625 0.00881 0.0
H1140 H 0.34089 0.84124 0.00467 0.0
H1141 H 0.36165 0.85667 0.05531 0.0
C1142 C 0.33704 0.90018 0.09323 0.0
C1143 C 0.32102 0.92283 0.11091 0.0
C1144 C 0.32861 0.89466 0.06201 0.0
C1145 C 0.29885 0.94228 0.09603 0.0
C1146 C 0.29052 0.9371 0.06486 0.0
C1147 C 0.29253 0.90368 0.01865 0.0
C1148 C 0.30448 0.87703 0.00333 0.0
C1149 C 0.30424 0.91239 0.0481 0.0
C1150 C 0.33063 0.86142 0.0162 0.0
C1151 C 0.34259 0.87017 0.04525 0.0
H1152 H 0.20247 0.08682 0.59986 0.0
H1153 H 0.12568 0.15307 0.59996 0.0
H1154 H 0.14903 0.18028 0.55523 0.0
H1155 H 0.1926 0.18621 0.51838 0.0
H1156 H 0.27073 0.12148 0.52235 0.0
H1157 H 0.24571 0.09327 0.56482 0.0
C1158 C 0.19029 0.10685 0.58988 0.0
C1159 C 0.16217 0.11776 0.603 0.0
C1160 C 0.20459 0.12316 0.56577 0.0
C1161 C 0.14719 0.14407 0.58999 0.0
C1162 C 0.16073 0.15981 0.56479 0.0
C1163 C 0.20441 0.16621 0.52882 0.0
C1164 C 0.23348 0.1559 0.51722 0.0
C1165 C 0.1898 0.14992 0.55304 0.0
C1166 C 0.24834 0.12985 0.53085 0.0
C1167 C 0.23396 0.11355 0.55491 0.0
H1168 H 0.95934 0.74254 0.58383 0.0
H1169 H 0.97826 0.83492 0.62042 0.0
H1170 H 0.93583 0.8569 0.58937 0.0
H1171 H 0.88683 0.84779 0.56196 0.0
H1172 H 0.86486 0.75509 0.52827 0.0
H1173 H 0.91543 0.7357 0.54655 0.0
C1174 C 0.95455 0.76754 0.5843 0.0
C1175 C 0.97098 0.78691 0.60511 0.0
C1176 C 0.92946 0.78001 0.56693 0.0
C1177 C 0.96507 0.81939 0.60528 0.0
C1178 C 0.94096 0.83205 0.58743 0.0
C1179 C 0.89363 0.82362 0.55761 0.0
C1180 C 0.87188 0.80275 0.54477 0.0
C1181 C 0.92193 0.81229 0.56963 0.0
C1182 C 0.88111 0.77164 0.53851 0.0
C1183 C 0.90988 0.76037 0.5494 0.0
H1184 H 0.52383 0.16967 0.1155 0.0
H1185 H 0.53945 0.26331 0.08074 0.0
H1186 H 0.58749 0.24564 0.05496 0.0
H1187 H 0.62763 0.20519 0.04825 0.0
H1188 H 0.61311 0.11249 0.08593 0.0
H1189 H 0.56097 0.12787 0.10366 0.0
C1190 C 0.5378 0.18622 0.1023 0.0
C1191 C 0.52884 0.21786 0.10064 0.0
C1192 C 0.56507 0.17592 0.08768 0.0
C1193 C 0.54637 0.23891 0.08265 0.0
C1194 C 0.57365 0.2288 0.06785 0.0
C1195 C 0.6126 0.18804 0.05934 0.0
C1196 C 0.62402 0.15785 0.06603 0.0
C1197 C 0.58353 0.19752 0.07085 0.0
C1198 C 0.60461 0.13589 0.0807 0.0
C1199 C 0.57506 0.14477 0.09112 0.0
H1200 H 0.36166 0.7057 0.43268 0.0
H1201 H 0.35326 0.6245 0.37292 0.0
H1202 H 0.40782 0.62984 0.35719 0.0
H1203 H 0.45465 0.66182 0.35472 0.0
H1204 H 0.46195 0.74547 0.41141 0.0
H1205 H 0.41088 0.73477 0.43428 0.0
C1206 C 0.37207 0.68869 0.41689 0.0
C1207 C 0.35364 0.66497 0.40366 0.0
C1208 C 0.40291 0.69271 0.40696 0.0
C1209 C 0.36714 0.64314 0.38309 0.0
C1210 C 0.39819 0.64627 0.374 0.0
C1211 C 0.44523 0.67768 0.37221 0.0
C1212 C 0.46172 0.70478 0.38079 0.0
C1213 C 0.41577 0.67176 0.38476 0.0
C1214 C 0.44949 0.72467 0.40403 0.0
C1215 C 0.42033 0.71856 0.41715 0.0
H1216 H 0.11328 0.25556 0.93028 0.0
H1217 H 0.10403 0.35548 0.91702 0.0
H1218 H 0.05186 0.3482 0.89467 0.0
H1219 H 0.01324 0.31295 0.8716 0.0
H1220 H 0.0238 0.21278 0.882 0.0
H1221 H 0.07182 0.22053 0.91232 0.0
C1222 C 0.09933 0.27582 0.92363 0.0
C1223 C 0.11226 0.306 0.92515 0.0
C1224 C 0.07032 0.27128 0.90922 0.0
C1225 C 0.09429 0.33207 0.91605 0.0
C1226 C 0.06476 0.32786 0.90289 0.0
C1227 C 0.02612 0.29283 0.88047 0.0
C1228 C 0.01567 0.26236 0.87401 0.0
C1229 C 0.05335 0.29749 0.89794 0.0
C1230 C 0.03185 0.23645 0.88639 0.0
C1231 C 0.05909 0.24088 0.90383 0.0
H1232 H 0.66171 0.95055 0.80341 0.0
H1233 H 0.58756 0.9596 0.73496 0.0
H1234 H 0.56488 0.91036 0.7531 0.0
H1235 H 0.5683 0.86358 0.78591 0.0
H1236 H 0.64385 0.85392 0.85263 0.0
H1237 H 0.66359 0.90544 0.83788 0.0
C1238 C 0.64062 0.94182 0.79228 0.0
C1239 C 0.62658 0.95846 0.76755 0.0
C1240 C 0.62787 0.91371 0.8027 0.0
C1241 C 0.59897 0.94704 0.75386 0.0
C1242 C 0.58595 0.919 0.76427 0.0
C1243 C 0.58872 0.873 0.79769 0.0
C1244 C 0.60473 0.85504 0.82021 0.0
C1245 C 0.60044 0.90204 0.78843 0.0
C1246 C 0.63129 0.86735 0.8351 0.0
C1247 C 0.64264 0.89666 0.82658 0.0
H1248 H 0.14943 0.54679 0.15664 0.0
H1249 H 0.08911 0.52828 0.23548 0.0
H1250 H 0.0609 0.57698 0.22575 0.0
H1251 H 0.05598 0.62644 0.19776 0.0
H1252 H 0.11779 0.64676 0.12073 0.0
H1253 H 0.14226 0.59514 0.12642 0.0
C1254 C 0.13006 0.55331 0.17167 0.0
C1255 C 0.12171 0.53401 0.19698 0.0
C1256 C 0.114 0.58148 0.16612 0.0
C1257 C 0.0963 0.54275 0.21598 0.0
C1258 C 0.08003 0.57057 0.2104 0.0
C1259 C 0.07428 0.61935 0.18168 0.0
C1260 C 0.08508 0.64039 0.15888 0.0
C1261 C 0.08897 0.59028 0.18583 0.0
C1262 C 0.10909 0.63095 0.1385 0.0
C1263 C 0.12324 0.60157 0.14189 0.0
H1264 H 0.41386 0.38265 0.63241 0.0
H1265 H 0.45164 0.36005 0.72339 0.0
H1266 H 0.43188 0.4097 0.7441 0.0
H1267 H 0.39505 0.45421 0.73858 0.0
H1268 H 0.35454 0.47369 0.64785 0.0
H1269 H 0.38377 0.43048 0.62512 0.0
C1270 C 0.41851 0.38892 0.65659 0.0
C1271 C 0.43347 0.36734 0.67647 0.0
C1272 C 0.40568 0.41657 0.6687 0.0
C1273 C 0.43994 0.37612 0.70756 0.0
C1274 C 0.42823 0.40434 0.71957 0.0
C1275 C 0.39295 0.44922 0.71378 0.0
C1276 C 0.37191 0.46661 0.69521 0.0
C1277 C 0.40954 0.42386 0.70076 0.0
C1278 C 0.36986 0.46016 0.66297 0.0
C1279 C 0.38675 0.43556 0.64981 0.0
H1280 H 0.92755 0.1135 0.27222 0.0
H1281 H 0.90738 0.11039 0.37108 0.0
H1282 H 0.87635 0.06295 0.36336 0.0
H1283 H 0.85082 0.02592 0.32782 0.0
H1284 H 0.86986 0.02987 0.2288 0.0
H1285 H 0.90502 0.07425 0.23719 0.0
C1286 C 0.91721 0.10191 0.29225 0.0
C1287 C 0.91977 0.11533 0.32221 0.0
C1288 C 0.89837 0.07557 0.28744 0.0
C1289 C 0.90579 0.10034 0.34784 0.0
C1290 C 0.88775 0.07352 0.34337 0.0
C1291 C 0.86247 0.03669 0.30805 0.0
C1292 C 0.85734 0.02519 0.27768 0.0
C1293 C 0.88298 0.06168 0.31313 0.0
C1294 C 0.87322 0.03868 0.25235 0.0
C1295 C 0.89346 0.06383 0.25716 0.0
H1296 H 0.19424 0.31501 0.24254 0.0
H1297 H 0.14754 0.36977 0.3138 0.0
H1298 H 0.16217 0.3312 0.35314 0.0
H1299 H 0.18821 0.28248 0.36746 0.0
H1300 H 0.23457 0.22698 0.29671 0.0
H1301 H 0.22007 0.26562 0.25694 0.0
C1302 C 0.18713 0.31849 0.26664 0.0
C1303 C 0.16985 0.3453 0.27514 0.0
C1304 C 0.19566 0.29627 0.28924 0.0
C1305 C 0.16088 0.3494 0.30652 0.0
C1306 C 0.16927 0.32739 0.3291 0.0
C1307 C 0.19539 0.27888 0.34339 0.0
C1308 C 0.21255 0.25201 0.33507 0.0
C1309 C 0.18677 0.30089 0.32073 0.0
C1310 C 0.22129 0.24751 0.30369 0.0
C1311 C 0.21301 0.26955 0.28096 0.0
H1312 H 0.29904 0.70652 0.89454 0.0
H1313 H 0.22902 0.73887 0.82898 0.0
H1314 H 0.23409 0.69039 0.79917 0.0
H1315 H 0.26418 0.64351 0.7871 0.0
H1316 H 0.33718 0.61201 0.84944 0.0
H1317 H 0.32473 0.655 0.88577 0.0
C1318 C 0.28439 0.70252 0.87417 0.0
C1319 C 0.26402 0.72633 0.86363 0.0
C1320 C 0.28819 0.67493 0.85651 0.0
C1321 C 0.24519 0.72103 0.8372 0.0
C1322 C 0.24807 0.69335 0.82017 0.0
C1323 C 0.27693 0.64571 0.809 0.0
C1324 C 0.30183 0.62515 0.81552 0.0
C1325 C 0.2704 0.67086 0.82888 0.0
C1326 C 0.31792 0.62771 0.84405 0.0
C1327 C 0.31099 0.65243 0.86458 0.0
H1328 H 0.66525 0.24878 0.63708 0.0
H1329 H 0.72459 0.19232 0.57775 0.0
H1330 H 0.70887 0.1451 0.60639 0.0
H1331 H 0.6807 0.12087 0.65062 0.0
H1332 H 0.62293 0.17899 0.70998 0.0
H1333 H 0.63542 0.22482 0.67852 0.0
C1334 C 0.67497 0.22621 0.63041 0.0
C1335 C 0.69653 0.22406 0.60577 0.0
C1336 C 0.66595 0.19955 0.64683 0.0
C1337 C 0.70818 0.19453 0.59689 0.0
C1338 C 0.69918 0.16761 0.61321 0.0
C1339 C 0.67049 0.14351 0.65626 0.0
C1340 C 0.65112 0.14673 0.6826 0.0
C1341 C 0.67836 0.16994 0.63848 0.0
C1342 C 0.63814 0.17611 0.68993 0.0
C1343 C 0.6453 0.20228 0.67204 0.0
H1344 H 0.79028 0.72645 0.18686 0.0
H1345 H 0.78268 0.78795 0.10684 0.0
H1346 H 0.79707 0.83259 0.13927 0.0
H1347 H 0.81287 0.85408 0.18977 0.0
H1348 H 0.81822 0.79386 0.27069 0.0
H1349 H 0.8039 0.74862 0.23833 0.0
C1350 C 0.79161 0.74964 0.17654 0.0
C1351 C 0.78551 0.75376 0.14441 0.0
C1352 C 0.79982 0.77533 0.19536 0.0
C1353 C 0.7871 0.78404 0.1315 0.0
C1354 C 0.79553 0.8096 0.14997 0.0
C1355 C 0.81123 0.83099 0.20028 0.0
C1356 C 0.81708 0.82713 0.2324 0.0
C1357 C 0.80225 0.80544 0.1818 0.0
C1358 C 0.81404 0.79728 0.24591 0.0
C1359 C 0.80579 0.77149 0.22746 0.0
H1360 H 0.40497 0.19952 0.25941 0.0
H1361 H 0.32167 0.19952 0.20163 0.0
H1362 H 0.29015 0.18578 0.24676 0.0
H1363 H 0.28638 0.17257 0.30155 0.0
H1364 H 0.36863 0.17333 0.36045 0.0
H1365 H 0.40078 0.18784 0.31535 0.0
C1366 C 0.37989 0.19676 0.25668 0.0
C1367 C 0.36573 0.20031 0.22716 0.0
C1368 C 0.3619 0.18864 0.28264 0.0
C1369 C 0.3332 0.19676 0.22406 0.0
C1370 C 0.31515 0.1888 0.24979 0.0
C1371 C 0.31143 0.17548 0.30454 0.0
C1372 C 0.32533 0.17138 0.33401 0.0
C1373 C 0.32936 0.18428 0.27897 0.0
C1374 C 0.35759 0.17612 0.33777 0.0
C1375 C 0.37585 0.18449 0.31212 0.0
H1376 H 0.15693 0.78463 0.86117 0.0
H1377 H 0.14619 0.88506 0.85782 0.0
H1378 H 0.1029 0.87976 0.82052 0.0
H1379 H 0.07674 0.84678 0.78095 0.0
H1380 H 0.0879 0.74642 0.78427 0.0
H1381 H 0.12199 0.75111 0.83013 0.0
C1382 C 0.14423 0.80519 0.85307 0.0
C1383 C 0.15457 0.83513 0.86167 0.0
C1384 C 0.11979 0.80189 0.83149 0.0
C1385 C 0.13828 0.86181 0.85138 0.0
C1386 C 0.11382 0.85877 0.82988 0.0
C1387 C 0.08566 0.826 0.79267 0.0
C1388 C 0.08014 0.79635 0.77966 0.0
C1389 C 0.10554 0.82901 0.8186 0.0
C1390 C 0.09182 0.76939 0.79439 0.0
C1391 C 0.11151 0.77211 0.82032 0.0
H1392 H 0.77037 0.32957 0.67852 0.0
H1393 H 0.84562 0.31884 0.6123 0.0
H1394 H 0.88265 0.31001 0.65539 0.0
H1395 H 0.89299 0.30394 0.71215 0.0
H1396 H 0.81675 0.31662 0.77723 0.0
H1397 H 0.78082 0.3261 0.73421 0.0
C1398 C 0.79487 0.32522 0.67345 0.0
C1399 C 0.80522 0.32448 0.64234 0.0
C1400 C 0.81585 0.32052 0.69814 0.0
C1401 C 0.83712 0.31946 0.63615 0.0
C1402 C 0.85824 0.31433 0.66074 0.0
C1403 C 0.86853 0.30883 0.71684 0.0
C1404 C 0.85763 0.30947 0.74788 0.0
C1405 C 0.8478 0.31458 0.69187 0.0
C1406 C 0.8259 0.31613 0.75362 0.0
C1407 C 0.80522 0.32146 0.72902 0.0
H1408 H 0.65014 0.65449 0.26947 0.0
H1409 H 0.5818 0.70324 0.21262 0.0
H1410 H 0.61066 0.68858 0.16541 0.0
H1411 H 0.65721 0.66482 0.14098 0.0
H1412 H 0.72631 0.61887 0.19896 0.0
H1413 H 0.69468 0.6291 0.24536 0.0
C1414 C 0.64145 0.66208 0.24682 0.0
C1415 C 0.6141 0.68035 0.24461 0.0
C1416 C 0.65812 0.6538 0.22007 0.0
C1417 C 0.60299 0.68942 0.21498 0.0
C1418 C 0.6194 0.68098 0.18801 0.0
C1419 C 0.66492 0.65653 0.16374 0.0
C1420 C 0.69386 0.64113 0.1668 0.0
C1421 C 0.64718 0.66347 0.19036 0.0
C1422 C 0.70405 0.63085 0.19629 0.0
C1423 C 0.6861 0.6368 0.22273 0.0
H1424 H 0.36516 0.33732 0.14967 0.0
H1425 H 0.30654 0.26978 0.10255 0.0
H1426 H 0.26057 0.30203 0.11291 0.0
H1427 H 0.23668 0.34712 0.13787 0.0
H1428 H 0.29378 0.4145 0.18705 0.0
H1429 H 0.34084 0.38458 0.17316 0.0
C1430 C 0.34237 0.32995 0.1413 0.0
C1431 C 0.33923 0.30114 0.12547 0.0
C1432 C 0.3158 0.34833 0.14796 0.0
C1433 C 0.30953 0.29172 0.11499 0.0
C1434 C 0.28323 0.31012 0.12092 0.0
C1435 C 0.25935 0.35543 0.14566 0.0
C1436 C 0.26159 0.38287 0.16385 0.0
C1437 C 0.28604 0.33808 0.1379 0.0
C1438 C 0.29132 0.39337 0.1732 0.0
C1439 C 0.31823 0.37626 0.16527 0.0
H1440 H 0.84756 0.16704 0.82561 0.0
H1441 H 0.78582 0.24651 0.83798 0.0
H1442 H 0.74198 0.21581 0.81796 0.0
H1443 H 0.7215 0.16664 0.79731 0.0
H1444 H 0.78349 0.08731 0.78455 0.0
H1445 H 0.82729 0.11823 0.80394 0.0
C1446 C 0.82444 0.17756 0.82432 0.0
C1447 C 0.8198 0.20885 0.83356 0.0
C1448 C 0.7996 0.16005 0.81231 0.0
C1449 C 0.78988 0.22237 0.83114 0.0
C1450 C 0.76488 0.20491 0.81958 0.0
C1451 C 0.74462 0.15612 0.79843 0.0
C1452 C 0.74916 0.12467 0.78956 0.0
C1453 C 0.76956 0.17381 0.80998 0.0
C1454 C 0.77931 0.11147 0.79125 0.0
C1455 C 0.80434 0.12905 0.8025 0.0
H1456 H 0.7506 0.8354 0.33283 0.0
H1457 H 0.68664 0.91037 0.30918 0.0
H1458 H 0.64216 0.87548 0.31906 0.0
H1459 H 0.62204 0.82328 0.33408 0.0
H1460 H 0.68748 0.74872 0.35517 0.0
H1461 H 0.73114 0.78423 0.34682 0.0
C1462 C 0.72694 0.84433 0.33006 0.0
C1463 C 0.72181 0.87548 0.32064 0.0
C1464 C 0.7019 0.82425 0.33533 0.0
C1465 C 0.69107 0.88644 0.31648 0.0
C1466 C 0.66574 0.86655 0.32219 0.0
C1467 C 0.64589 0.81497 0.33703 0.0
C1468 C 0.65166 0.78354 0.34529 0.0
C1469 C 0.67094 0.83538 0.33162 0.0
C1470 C 0.68256 0.7728 0.34866 0.0
C1471 C 0.70749 0.79306 0.34396 0.0
H1472 H 0.23583 0.64951 0.72936 0.0
H1473 H 0.20047 0.57801 0.6674 0.0
H1474 H 0.15312 0.60931 0.65804 0.0
H1475 H 0.12464 0.65942 0.66364 0.0
H1476 H 0.16109 0.7303 0.72615 0.0
H1477 H 0.20506 0.69656 0.7393 0.0
C1478 C 0.21764 0.6407 0.71396 0.0
C1479 C 0.22171 0.6119 0.69863 0.0
C1480 C 0.19081 0.65874 0.70866 0.0
C1481 C 0.19777 0.60028 0.67932 0.0
C1482 C 0.17083 0.61821 0.67387 0.0
C1483 C 0.14197 0.66733 0.68042 0.0
C1484 C 0.13985 0.69763 0.69332 0.0
C1485 C 0.16749 0.64785 0.68783 0.0
C1486 C 0.16237 0.70734 0.71534 0.0
C1487 C 0.18758 0.68807 0.72296 0.0
H1488 H 0.82748 0.6256 0.65619 0.0
H1489 H 0.7424 0.64999 0.70497 0.0
H1490 H 0.73012 0.68916 0.66513 0.0
H1491 H 0.74701 0.72087 0.62049 0.0
H1492 H 0.83453 0.70033 0.57515 0.0
H1493 H 0.84226 0.65455 0.60914 0.0
C1494 C 0.80597 0.63907 0.65784 0.0
C1495 C 0.78606 0.63517 0.68367 0.0
C1496 C 0.79952 0.6621 0.63539 0.0
C1497 C 0.75831 0.65286 0.68551 0.0
C1498 C 0.75123 0.67519 0.66273 0.0
C1499 C 0.76719 0.70561 0.61753 0.0
C1500 C 0.78995 0.71311 0.5953 0.0
C1501 C 0.77211 0.68059 0.63812 0.0
C1502 C 0.81659 0.69423 0.59192 0.0
C1503 C 0.82108 0.66841 0.6115 0.0
H1504 H 0.66203 0.23311 0.11665 0.0
H1505 H 0.74834 0.27215 0.08276 0.0
H1506 H 0.73452 0.32325 0.10587 0.0
H1507 H 0.70036 0.35441 0.14145 0.0
H1508 H 0.61529 0.31297 0.17602 0.0
H1509 H 0.6257 0.26528 0.14627 0.0
C1510 C 0.67775 0.2529 0.11419 0.0
C1511 C 0.70644 0.24894 0.09884 0.0
C1512 C 0.66973 0.2817 0.12753 0.0
C1513 C 0.72626 0.27478 0.09487 0.0
C1514 C 0.71837 0.30386 0.10811 0.0
C1515 C 0.68381 0.33519 0.14167 0.0
C1516 C 0.65721 0.33691 0.16089 0.0
C1517 C 0.69051 0.30734 0.12526 0.0
C1518 C 0.63598 0.3119 0.16144 0.0
C1519 C 0.64199 0.28464 0.14461 0.0
H1520 H 0.29628 0.77794 0.39135 0.0
H1521 H 0.23357 0.74304 0.32009 0.0
H1522 H 0.25049 0.78416 0.28445 0.0
H1523 H 0.28674 0.82586 0.27169 0.0
H1524 H 0.34985 0.86185 0.34188 0.0
H1525 H 0.32927 0.82408 0.3799 0.0
C1526 C 0.2858 0.77981 0.36829 0.0
C1527 C 0.26388 0.75729 0.35827 0.0
C1528 C 0.2962 0.80312 0.34758 0.0
C1529 C 0.25065 0.7599 0.32825 0.0
C1530 C 0.26043 0.78328 0.3078 0.0
C1531 C 0.296 0.82561 0.29533 0.0
C1532 C 0.3202 0.84622 0.30381 0.0
C1533 C 0.28391 0.80426 0.31689 0.0
C1534 C 0.33145 0.84598 0.33472 0.0
C1535 C 0.31965 0.82444 0.35642 0.0
H1536 H 0.13659 0.2163 0.88265 0.0
H1537 H 0.23433 0.1913 0.88466 0.0
H1538 H 0.22441 0.14733 0.84909 0.0
H1539 H 0.18952 0.12354 0.80975 0.0
H1540 H 0.09193 0.14905 0.80765 0.0
H1541 H 0.09982 0.18531 0.85144 0.0
C1542 C 0.15541 0.20049 0.876 0.0
C1543 C 0.18609 0.20684 0.8855 0.0
C1544 C 0.14957 0.17587 0.85532 0.0
C1545 C 0.21054 0.18647 0.87734 0.0
C1546 C 0.20491 0.16166 0.85684 0.0
C1547 C 0.16998 0.13648 0.81964 0.0
C1548 C 0.14039 0.13438 0.8058 0.0
C1549 C 0.17482 0.15724 0.84448 0.0
C1550 C 0.1149 0.15076 0.81833 0.0
C1551 C 0.11943 0.17145 0.84313 0.0
H1552 H 0.67358 0.78839 0.64373 0.0
H1553 H 0.75806 0.79441 0.69882 0.0
H1554 H 0.73099 0.77157 0.7437 0.0
H1555 H 0.68191 0.75518 0.76846 0.0
H1556 H 0.59753 0.74984 0.71297 0.0
H1557 H 0.6263 0.76623 0.66667 0.0
C1558 C 0.68601 0.78478 0.66561 0.0
C1559 C 0.71742 0.7938 0.66837 0.0
C1560 C 0.67047 0.77143 0.69104 0.0
C1561 C 0.73365 0.78806 0.69642 0.0
C1562 C 0.71826 0.77491 0.72198 0.0
C1563 C 0.67002 0.75673 0.74605 0.0
C1564 C 0.63759 0.75173 0.74418 0.0
C1565 C 0.68649 0.76709 0.71972 0.0
C1566 C 0.62246 0.7539 0.71502 0.0
C1567 C 0.63881 0.7635 0.6886 0.0
H1568 H 0.90209 0.15206 0.21684 0.0
H1569 H 0.85372 0.23795 0.23934 0.0
H1570 H 0.81369 0.22654 0.20002 0.0
H1571 H 0.79056 0.19027 0.16257 0.0
H1572 H 0.83769 0.10331 0.14056 0.0
H1573 H 0.88015 0.11678 0.17657 0.0
C1574 C 0.88321 0.16855 0.21229 0.0
C1575 C 0.8808 0.19598 0.23015 0.0
C1576 C 0.85986 0.16131 0.19038 0.0
C1577 C 0.85598 0.21697 0.22517 0.0
C1578 C 0.83304 0.2103 0.20302 0.0
C1579 C 0.81006 0.1742 0.1657 0.0
C1580 C 0.81081 0.14568 0.14932 0.0
C1581 C 0.83434 0.18217 0.18612 0.0
C1582 C 0.83654 0.12537 0.15311 0.0
C1583 C 0.86084 0.13307 0.17359 0.0
H1584 H 0.13283 0.69198 0.36893 0.0
H1585 H 0.17066 0.61399 0.31687 0.0
H1586 H 0.13653 0.62634 0.27267 0.0
H1587 H 0.10395 0.66475 0.24588 0.0
H1588 H 0.06834 0.74522 0.29542 0.0
H1589 H 0.09334 0.7266 0.34395 0.0
C1590 C 0.1327 0.67724 0.34823 0.0
C1591 C 0.15412 0.65236 0.34568 0.0
C1592 C 0.11402 0.68536 0.32244 0.0
C1593 C 0.15431 0.63338 0.3189 0.0
C1594 C 0.13501 0.64052 0.29368 0.0
C1595 C 0.10126 0.67781 0.26755 0.0
C1596 C 0.08513 0.7064 0.26746 0.0
C1597 C 0.11606 0.66733 0.29468 0.0
C1598 C 0.08103 0.72317 0.29535 0.0
C1599 C 0.09537 0.7126 0.32287 0.0
H1600 H 0.32636 0.29824 0.84811 0.0
H1601 H 0.24419 0.28733 0.79012 0.0
H1602 H 0.27706 0.27444 0.74534 0.0
H1603 H 0.32885 0.26981 0.72205 0.0
H1604 H 0.41137 0.28002 0.77945 0.0
H1605 H 0.37849 0.2892 0.82552 0.0
C1606 C 0.31568 0.29303 0.82566 0.0
C1607 C 0.28297 0.29421 0.82223 0.0
C1608 C 0.33468 0.28547 0.8001 0.0
C1609 C 0.26934 0.28672 0.79325 0.0
C1610 C 0.28809 0.2794 0.76766 0.0
C1611 C 0.33963 0.27387 0.74472 0.0
C1612 C 0.37234 0.27475 0.74747 0.0
C1613 C 0.32072 0.27923 0.77075 0.0
C1614 C 0.38615 0.2793 0.77693 0.0
C1615 C 0.36741 0.28475 0.80312 0.0
H1616 H 0.72032 0.58841 0.85058 0.0
H1617 H 0.67578 0.57103 0.76182 0.0
H1618 H 0.62831 0.59815 0.77991 0.0
H1619 H 0.6058 0.63728 0.81611 0.0
H1620 H 0.65499 0.66033 0.90116 0.0
H1621 H 0.69417 0.61992 0.89014 0.0
C1622 C 0.6997 0.58971 0.8357 0.0
C1623 C 0.70119 0.57836 0.80499 0.0
C1624 C 0.67363 0.60666 0.84564 0.0
C1625 C 0.67477 0.57976 0.7856 0.0
C1626 C 0.6479 0.5955 0.79586 0.0
C1627 C 0.62447 0.63241 0.8327 0.0
C1628 C 0.62792 0.65142 0.85928 0.0
C1629 C 0.64787 0.61061 0.82512 0.0
C1630 C 0.65222 0.64571 0.88059 0.0
C1631 C 0.67462 0.62285 0.87417 0.0
H1632 H 0.20709 0.91678 0.17837 0.0
H1633 H 0.24351 0.85852 0.25243 0.0
H1634 H 0.19511 0.82849 0.25351 0.0
H1635 H 0.14689 0.81342 0.22743 0.0
H1636 H 0.11134 0.86882 0.15058 0.0
H1637 H 0.15434 0.90586 0.15702 0.0
C1638 C 0.20388 0.89805 0.19521 0.0
C1639 C 0.22864 0.88933 0.21496 0.0
C1640 C 0.17634 0.88021 0.19494 0.0
C1641 C 0.22467 0.86508 0.23674 0.0
C1642 C 0.19708 0.84796 0.23734 0.0
C1643 C 0.14822 0.83388 0.21241 0.0
C1644 C 0.12649 0.83793 0.1881 0.0
C1645 C 0.17342 0.85441 0.21557 0.0
C1646 C 0.12804 0.86497 0.16931 0.0
C1647 C 0.15273 0.88607 0.17283 0.0
H1648 H 0.22361 0.16846 0.67141 0.0
H1649 H 0.27605 0.08609 0.69858 0.0
H1650 H 0.32442 0.11082 0.68 0.0
H1651 H 0.35147 0.15677 0.65678 0.0
H1652 H 0.29679 0.23763 0.62926 0.0
H1653 H 0.24922 0.212 0.64666 0.0
C1654 C 0.2456 0.15589 0.6738 0.0
C1655 C 0.24632 0.12572 0.68702 0.0
C1656 C 0.27276 0.16975 0.66243 0.0
C1657 C 0.27498 0.10956 0.68892 0.0
C1658 C 0.30253 0.12358 0.67809 0.0
C1659 C 0.32903 0.16842 0.65408 0.0
C1660 C 0.32757 0.19904 0.64182 0.0
C1661 C 0.30165 0.1537 0.6647 0.0
C1662 C 0.29846 0.21411 0.63875 0.0
C1663 C 0.27129 0.19957 0.64884 0.0
H1664 H 0.77855 0.3879 0.29505 0.0
H1665 H 0.73098 0.30978 0.25166 0.0
H1666 H 0.77507 0.27558 0.26388 0.0
H1667 H 0.82525 0.26721 0.28914 0.0
H1668 H 0.87323 0.34444 0.33343 0.0
H1669 H 0.83059 0.37988 0.31831 0.0
C1670 C 0.77794 0.36348 0.28795 0.0
C1671 C 0.75139 0.35135 0.2727 0.0
C1672 C 0.8032 0.34381 0.2954 0.0
C1673 C 0.75099 0.31965 0.2637 0.0
C1674 C 0.77616 0.30006 0.27068 0.0
C1675 C 0.82646 0.29178 0.29563 0.0
C1676 C 0.85212 0.30311 0.3128 0.0
C1677 C 0.80204 0.31179 0.287 0.0
C1678 C 0.85359 0.33514 0.32038 0.0
C1679 C 0.82925 0.35536 0.31176 0.0
loop_
_geom_bond_atom_site_label_1
_geom_bond_atom_site_label_2
_geom_bond_distance
_geom_bond_site_symmetry_2
_ccdc_geom_bond_type
Sc0 O3 2.025 . S
Sc0 O10 2.105 . S
Sc0 O13 2.105 . S
Sc0 O16 2.105 . S
Sc0 O19 2.105 . S
Sc1 O3 2.025 . S
Sc1 O11 2.105 . S
Sc1 O15 2.105 . S
Sc1 O17 2.105 . S
Sc1 O21 2.105 . S
Sc2 O3 2.025 . S
Sc2 O12 2.105 . S
Sc2 O14 2.105 . S
Sc2 O18 2.105 . S
Sc2 O20 2.105 . S
O3 Sc0 2.025 . S
O3 Sc1 2.025 . S
O3 Sc2 2.025 . S
C4 O10 1.268 . S
C4 O20 1.268 . S
C5 O11 1.268 . S
C5 O19 1.268 . S
C6 O12 1.268 . S
C6 O21 1.268 . S
C7 O13 1.268 . S
C7 O17 1.268 . S
C8 O14 1.268 . S
C8 O16 1.268 . S
C9 O15 1.268 . S
C9 O18 1.268 . S
O10 Sc0 2.105 . S
O10 C4 1.268 . S
O11 Sc1 2.105 . S
O11 C5 1.268 . S
O12 Sc2 2.105 . S
O12 C6 1.268 . S
O13 Sc0 2.105 . S
O13 C7 1.268 . S
O14 Sc2 2.105 . S
O14 C8 1.268 . S
O15 Sc1 2.105 . S
O15 C9 1.268 . S
O16 Sc0 2.105 . S
O16 C8 1.268 . S
O17 Sc1 2.105 . S
O17 C7 1.268 . S
O18 Sc2 2.105 . S
O18 C9 1.268 . S
O19 Sc0 2.105 . S
O19 C5 1.268 . S
O20 Sc2 2.105 . S
O20 C4 1.268 . S
O21 Sc1 2.105 . S
O21 C6 1.268 . S
Sc22 O25 2.025 . S
Sc22 O32 2.105 . S
Sc22 O35 2.105 . S
Sc22 O38 2.105 . S
Sc22 O41 2.105 . S
Sc23 O25 2.025 . S
Sc23 O33 2.105 . S
Sc23 O37 2.105 . S
Sc23 O39 2.105 . S
Sc23 O43 2.105 . S
Sc24 O25 2.025 . S
Sc24 O34 2.105 . S
Sc24 O36 2.105 . S
Sc24 O40 2.105 . S
Sc24 O42 2.105 . S
O25 Sc22 2.025 . S
O25 Sc23 2.025 . S
O25 Sc24 2.025 . S
C26 O32 1.268 . S
C26 O42 1.268 . S
C27 O33 1.268 . S
C27 O41 1.268 . S
C28 O34 1.268 . S
C28 O43 1.268 . S
C29 O35 1.268 . S
C29 O39 1.268 . S
C30 O36 1.268 . S
C30 O38 1.268 . S
C31 O37 1.268 . S
C31 O40 1.268 . S
O32 Sc22 2.105 . S
O32 C26 1.268 . S
O33 Sc23 2.105 . S
O33 C27 1.268 . S
O34 Sc24 2.105 . S
O34 C28 1.268 . S
O35 Sc22 2.105 . S
O35 C29 1.268 . S
O36 Sc24 2.105 . S
O36 C30 1.268 . S
O37 Sc23 2.105 . S
O37 C31 1.268 . S
O38 Sc22 2.105 . S
O38 C30 1.268 . S
O39 Sc23 2.105 . S
O39 C29 1.268 . S
O40 Sc24 2.105 . S
O40 C31 1.268 . S
O41 Sc22 2.105 . S
O41 C27 1.268 . S
O42 Sc24 2.105 . S
O42 C26 1.268 . S
O43 Sc23 2.105 . S
O43 C28 1.268 . S
Sc44 O47 2.025 . S
Sc44 O54 2.105 . S
Sc44 O57 2.105 . S
Sc44 O60 2.105 . S
Sc44 O63 2.105 . S
Sc45 O47 2.025 . S
Sc45 O55 2.105 . S
Sc45 O59 2.105 . S
Sc45 O61 2.105 . S
Sc45 O65 2.105 . S
Sc46 O47 2.025 . S
Sc46 O56 2.105 . S
Sc46 O58 2.105 . S
Sc46 O62 2.105 . S
Sc46 O64 2.105 . S
O47 Sc44 2.025 . S
O47 Sc45 2.025 . S
O47 Sc46 2.025 . S
C48 O54 1.268 . S
C48 O64 1.268 . S
C49 O55 1.268 . S
C49 O63 1.268 . S
C50 O56 1.268 . S
C50 O65 1.268 . S
C51 O57 1.268 . S
C51 O61 1.268 . S
C52 O58 1.268 . S
C52 O60 1.268 . S
C53 O59 1.268 . S
C53 O62 1.268 . S
O54 Sc44 2.105 . S
O54 C48 1.268 . S
O55 Sc45 2.105 . S
O55 C49 1.268 . S
O56 Sc46 2.105 . S
O56 C50 1.268 . S
O57 Sc44 2.105 . S
O57 C51 1.268 . S
O58 Sc46 2.105 . S
O58 C52 1.268 . S
O59 Sc45 2.105 . S
O59 C53 1.268 . S
O60 Sc44 2.105 . S
O60 C52 1.268 . S
O61 Sc45 2.105 . S
O61 C51 1.268 . S
O62 Sc46 2.105 . S
O62 C53 1.268 . S
O63 Sc44 2.105 . S
O63 C49 1.268 . S
O64 Sc46 2.105 . S
O64 C48 1.268 . S
O65 Sc45 2.105 . S
O65 C50 1.268 . S
Sc66 O69 2.025 . S
Sc66 O76 2.105 . S
Sc66 O79 2.105 . S
Sc66 O82 2.105 . S
Sc66 O85 2.105 . S
Sc67 O69 2.025 . S
Sc67 O77 2.105 . S
Sc67 O81 2.105 . S
Sc67 O83 2.105 . S
Sc67 O87 2.105 . S
Sc68 O69 2.025 . S
Sc68 O78 2.105 . S
Sc68 O80 2.105 . S
Sc68 O84 2.105 . S
Sc68 O86 2.105 . S
O69 Sc66 2.025 . S
O69 Sc67 2.025 . S
O69 Sc68 2.025 . S
C70 O76 1.268 . S
C70 O86 1.268 . S
C71 O77 1.268 . S
C71 O85 1.268 . S
C72 O78 1.268 . S
C72 O87 1.268 . S
C73 O79 1.268 . S
C73 O83 1.268 . S
C74 O80 1.268 . S
C74 O82 1.268 . S
C75 O81 1.268 . S
C75 O84 1.268 . S
O76 Sc66 2.105 . S
O76 C70 1.268 . S
O77 Sc67 2.105 . S
O77 C71 1.268 . S
O78 Sc68 2.105 . S
O78 C72 1.268 . S
O79 Sc66 2.105 . S
O79 C73 1.268 . S
O80 Sc68 2.105 . S
O80 C74 1.268 . S
O81 Sc67 2.105 . S
O81 C75 1.268 . S
O82 Sc66 2.105 . S
O82 C74 1.268 . S
O83 Sc67 2.105 . S
O83 C73 1.268 . S
O84 Sc68 2.105 . S
O84 C75 1.268 . S
O85 Sc66 2.105 . S
O85 C71 1.268 . S
O86 Sc68 2.105 . S
O86 C70 1.268 . S
O87 Sc67 2.105 . S
O87 C72 1.268 . S
Sc88 O91 2.025 . S
Sc88 O98 2.105 . S
Sc88 O101 2.105 . S
Sc88 O104 2.105 . S
Sc88 O107 2.105 . S
Sc89 O91 2.025 . S
Sc89 O99 2.105 . S
Sc89 O103 2.105 . S
Sc89 O105 2.105 . S
Sc89 O109 2.105 . S
Sc90 O91 2.025 . S
Sc90 O100 2.105 . S
Sc90 O102 2.105 . S
Sc90 O106 2.105 . S
Sc90 O108 2.105 . S
O91 Sc88 2.025 . S
O91 Sc89 2.025 . S
O91 Sc90 2.025 . S
C92 O98 1.268 . S
C92 O108 1.268 . S
C93 O99 1.268 . S
C93 O107 1.268 . S
C94 O100 1.268 . S
C94 O109 1.268 . S
C95 O101 1.268 . S
C95 O105 1.268 . S
C96 O102 1.268 . S
C96 O104 1.268 . S
C97 O103 1.268 . S
C97 O106 1.268 . S
O98 Sc88 2.105 . S
O98 C92 1.268 . S
O99 Sc89 2.105 . S
O99 C93 1.268 . S
O100 Sc90 2.105 . S
O100 C94 1.268 . S
O101 Sc88 2.105 . S
O101 C95 1.268 . S
O102 Sc90 2.105 . S
O102 C96 1.268 . S
O103 Sc89 2.105 . S
O103 C97 1.268 . S
O104 Sc88 2.105 . S
O104 C96 1.268 . S
O105 Sc89 2.105 . S
O105 C95 1.268 . S
O106 Sc90 2.105 . S
O106 C97 1.268 . S
O107 Sc88 2.105 . S
O107 C93 1.268 . S
O108 Sc90 2.105 . S
O108 C92 1.268 . S
O109 Sc89 2.105 . S
O109 C94 1.268 . S
Sc110 O113 2.025 . S
Sc110 O120 2.105 . S
Sc110 O123 2.105 . S
Sc110 O126 2.105 . S
Sc110 O129 2.105 . S
Sc111 O113 2.025 . S
Sc111 O121 2.105 . S
Sc111 O125 2.105 . S
Sc111 O127 2.105 . S
Sc111 O131 2.105 . S
Sc112 O113 2.025 . S
Sc112 O122 2.105 . S
Sc112 O124 2.105 . S
Sc112 O128 2.105 . S
Sc112 O130 2.105 . S
O113 Sc110 2.025 . S
O113 Sc111 2.025 . S
O113 Sc112 2.025 . S
C114 O120 1.268 . S
C114 O130 1.268 . S
C115 O121 1.268 . S
C115 O129 1.268 . S
C116 O122 1.268 . S
C116 O131 1.268 . S
C117 O123 1.268 . S
C117 O127 1.268 . S
C118 O124 1.268 . S
C118 O126 1.268 . S
C119 O125 1.268 . S
C119 O128 1.268 . S
O120 Sc110 2.105 . S
O120 C114 1.268 . S
O121 Sc111 2.105 . S
O121 C115 1.268 . S
O122 Sc112 2.105 . S
O122 C116 1.268 . S
O123 Sc110 2.105 . S
O123 C117 1.268 . S
O124 Sc112 2.105 . S
O124 C118 1.268 . S
O125 Sc111 2.105 . S
O125 C119 1.268 . S
O126 Sc110 2.105 . S
O126 C118 1.268 . S
O127 Sc111 2.105 . S
O127 C117 1.268 . S
O128 Sc112 2.105 . S
O128 C119 1.268 . S
O129 Sc110 2.105 . S
O129 C115 1.268 . S
O130 Sc112 2.105 . S
O130 C114 1.268 . S
O131 Sc111 2.105 . S
O131 C116 1.268 . S
Sc132 O135 2.025 . S
Sc132 O142 2.105 . S
Sc132 O145 2.105 . S
Sc132 O148 2.105 . S
Sc132 O151 2.105 . S
Sc133 O135 2.025 . S
Sc133 O143 2.105 . S
Sc133 O147 2.105 . S
Sc133 O149 2.105 . S
Sc133 O153 2.105 . S
Sc134 O135 2.025 . S
Sc134 O144 2.105 . S
Sc134 O146 2.105 . S
Sc134 O150 2.105 . S
Sc134 O152 2.105 . S
O135 Sc132 2.025 . S
O135 Sc133 2.025 . S
O135 Sc134 2.025 . S
C136 O142 1.268 . S
C136 O152 1.268 . S
C137 O143 1.268 . S
C137 O151 1.268 . S
C138 O144 1.268 . S
C138 O153 1.268 . S
C139 O145 1.268 . S
C139 O149 1.268 . S
C140 O146 1.268 . S
C140 O148 1.268 . S
C141 O147 1.268 . S
C141 O150 1.268 . S
O142 Sc132 2.105 . S
O142 C136 1.268 . S
O143 Sc133 2.105 . S
O143 C137 1.268 . S
O144 Sc134 2.105 . S
O144 C138 1.268 . S
O145 Sc132 2.105 . S
O145 C139 1.268 . S
O146 Sc134 2.105 . S
O146 C140 1.268 . S
O147 Sc133 2.105 . S
O147 C141 1.268 . S
O148 Sc132 2.105 . S
O148 C140 1.268 . S
O149 Sc133 2.105 . S
O149 C139 1.268 . S
O150 Sc134 2.105 . S
O150 C141 1.268 . S
O151 Sc132 2.105 . S
O151 C137 1.268 . S
O152 Sc134 2.105 . S
O152 C136 1.268 . S
O153 Sc133 2.105 . S
O153 C138 1.268 . S
Sc154 O157 2.025 . S
Sc154 O164 2.105 . S
Sc154 O167 2.105 . S
Sc154 O170 2.105 . S
Sc154 O173 2.105 . S
Sc155 O157 2.025 . S
Sc155 O165 2.105 . S
Sc155 O169 2.105 . S
Sc155 O171 2.105 . S
Sc155 O175 2.105 . S
Sc156 O157 2.025 . S
Sc156 O166 2.105 . S
Sc156 O168 2.105 . S
Sc156 O172 2.105 . S
Sc156 O174 2.105 . S
O157 Sc154 2.025 . S
O157 Sc155 2.025 . S
O157 Sc156 2.025 . S
C158 O164 1.268 . S
C158 O174 1.268 . S
C159 O165 1.268 . S
C159 O173 1.268 . S
C160 O166 1.268 . S
C160 O175 1.268 . S
C161 O167 1.268 . S
C161 O171 1.268 . S
C162 O168 1.268 . S
C162 O170 1.268 . S
C163 O169 1.268 . S
C163 O172 1.268 . S
O164 Sc154 2.105 . S
O164 C158 1.268 . S
O165 Sc155 2.105 . S
O165 C159 1.268 . S
O166 Sc156 2.105 . S
O166 C160 1.268 . S
O167 Sc154 2.105 . S
O167 C161 1.268 . S
O168 Sc156 2.105 . S
O168 C162 1.268 . S
O169 Sc155 2.105 . S
O169 C163 1.268 . S
O170 Sc154 2.105 . S
O170 C162 1.268 . S
O171 Sc155 2.105 . S
O171 C161 1.268 . S
O172 Sc156 2.105 . S
O172 C163 1.268 . S
O173 Sc154 2.105 . S
O173 C159 1.268 . S
O174 Sc156 2.105 . S
O174 C158 1.268 . S
O175 Sc155 2.105 . S
O175 C160 1.268 . S
Sc176 O179 2.025 . S
Sc176 O186 2.105 . S
Sc176 O189 2.105 . S
Sc176 O192 2.105 . S
Sc176 O195 2.105 . S
Sc177 O179 2.025 . S
Sc177 O187 2.105 . S
Sc177 O191 2.105 . S
Sc177 O193 2.105 . S
Sc177 O197 2.105 . S
Sc178 O179 2.025 . S
Sc178 O188 2.105 . S
Sc178 O190 2.105 . S
Sc178 O194 2.105 . S
Sc178 O196 2.105 . S
O179 Sc176 2.025 . S
O179 Sc177 2.025 . S
O179 Sc178 2.025 . S
C180 O186 1.268 . S
C180 O196 1.268 . S
C181 O187 1.268 . S
C181 O195 1.268 . S
C182 O188 1.268 . S
C182 O197 1.268 . S
C183 O189 1.268 . S
C183 O193 1.268 . S
C184 O190 1.268 . S
C184 O192 1.268 . S
C185 O191 1.268 . S
C185 O194 1.268 . S
O186 Sc176 2.105 . S
O186 C180 1.268 . S
O187 Sc177 2.105 . S
O187 C181 1.268 . S
O188 Sc178 2.105 . S
O188 C182 1.268 . S
O189 Sc176 2.105 . S
O189 C183 1.268 . S
O190 Sc178 2.105 . S
O190 C184 1.268 . S
O191 Sc177 2.105 . S
O191 C185 1.268 . S
O192 Sc176 2.105 . S
O192 C184 1.268 . S
O193 Sc177 2.105 . S
O193 C183 1.268 . S
O194 Sc178 2.105 . S
O194 C185 1.268 . S
O195 Sc176 2.105 . S
O195 C181 1.268 . S
O196 Sc178 2.105 . S
O196 C180 1.268 . S
O197 Sc177 2.105 . S
O197 C182 1.268 . S
Sc198 O201 2.025 . S
Sc198 O208 2.105 . S
Sc198 O211 2.105 . S
Sc198 O214 2.105 . S
Sc198 O217 2.105 . S
Sc199 O201 2.025 . S
Sc199 O209 2.105 . S
Sc199 O213 2.105 . S
Sc199 O215 2.105 . S
Sc199 O219 2.105 . S
Sc200 O201 2.025 . S
Sc200 O210 2.105 . S
Sc200 O212 2.105 . S
Sc200 O216 2.105 . S
Sc200 O218 2.105 . S
O201 Sc198 2.025 . S
O201 Sc199 2.025 . S
O201 Sc200 2.025 . S
C202 O208 1.268 . S
C202 O218 1.268 . S
C203 O209 1.268 . S
C203 O217 1.268 . S
C204 O210 1.268 . S
C204 O219 1.268 . S
C205 O211 1.268 . S
C205 O215 1.268 . S
C206 O212 1.268 . S
C206 O214 1.268 . S
C207 O213 1.268 . S
C207 O216 1.268 . S
O208 Sc198 2.105 . S
O208 C202 1.268 . S
O209 Sc199 2.105 . S
O209 C203 1.268 . S
O210 Sc200 2.105 . S
O210 C204 1.268 . S
O211 Sc198 2.105 . S
O211 C205 1.268 . S
O212 Sc200 2.105 . S
O212 C206 1.268 . S
O213 Sc199 2.105 . S
O213 C207 1.268 . S
O214 Sc198 2.105 . S
O214 C206 1.268 . S
O215 Sc199 2.105 . S
O215 C205 1.268 . S
O216 Sc200 2.105 . S
O216 C207 1.268 . S
O217 Sc198 2.105 . S
O217 C203 1.268 . S
O218 Sc200 2.105 . S
O218 C202 1.268 . S
O219 Sc199 2.105 . S
O219 C204 1.268 . S
Sc220 O223 2.025 . S
Sc220 O230 2.105 . S
Sc220 O233 2.105 . S
Sc220 O236 2.105 . S
Sc220 O239 2.105 . S
Sc221 O223 2.025 . S
Sc221 O231 2.105 . S
Sc221 O235 2.105 . S
Sc221 O237 2.105 . S
Sc221 O241 2.105 . S
Sc222 O223 2.025 . S
Sc222 O232 2.105 . S
Sc222 O234 2.105 . S
Sc222 O238 2.105 . S
Sc222 O240 2.105 . S
O223 Sc220 2.025 . S
O223 Sc221 2.025 . S
O223 Sc222 2.025 . S
C224 O230 1.268 . S
C224 O240 1.268 . S
C225 O231 1.268 . S
C225 O239 1.268 . S
C226 O232 1.268 . S
C226 O241 1.268 . S
C227 O233 1.268 . S
C227 O237 1.268 . S
C228 O234 1.268 . S
C228 O236 1.268 . S
C229 O235 1.268 . S
C229 O238 1.268 . S
O230 Sc220 2.105 . S
O230 C224 1.268 . S
O231 Sc221 2.105 . S
O231 C225 1.268 . S
O232 Sc222 2.105 . S
O232 C226 1.268 . S
O233 Sc220 2.105 . S
O233 C227 1.268 . S
O234 Sc222 2.105 . S
O234 C228 1.268 . S
O235 Sc221 2.105 . S
O235 C229 1.268 . S
O236 Sc220 2.105 . S
O236 C228 1.268 . S
O237 Sc221 2.105 . S
O237 C227 1.268 . S
O238 Sc222 2.105 . S
O238 C229 1.268 . S
O239 Sc220 2.105 . S
O239 C225 1.268 . S
O240 Sc222 2.105 . S
O240 C224 1.268 . S
O241 Sc221 2.105 . S
O241 C226 1.268 . S
Sc242 O245 2.025 . S
Sc242 O252 2.105 . S
Sc242 O255 2.105 . S
Sc242 O258 2.105 . S
Sc242 O261 2.105 . S
Sc243 O245 2.025 . S
Sc243 O253 2.105 . S
Sc243 O257 2.105 . S
Sc243 O259 2.105 . S
Sc243 O263 2.105 . S
Sc244 O245 2.025 . S
Sc244 O254 2.105 . S
Sc244 O256 2.105 . S
Sc244 O260 2.105 . S
Sc244 O262 2.105 . S
O245 Sc242 2.025 . S
O245 Sc243 2.025 . S
O245 Sc244 2.025 . S
C246 O252 1.268 . S
C246 O262 1.268 . S
C247 O253 1.268 . S
C247 O261 1.268 . S
C248 O254 1.268 . S
C248 O263 1.268 . S
C249 O255 1.268 . S
C249 O259 1.268 . S
C250 O256 1.268 . S
C250 O258 1.268 . S
C251 O257 1.268 . S
C251 O260 1.268 . S
O252 Sc242 2.105 . S
O252 C246 1.268 . S
O253 Sc243 2.105 . S
O253 C247 1.268 . S
O254 Sc244 2.105 . S
O254 C248 1.268 . S
O255 Sc242 2.105 . S
O255 C249 1.268 . S
O256 Sc244 2.105 . S
O256 C250 1.268 . S
O257 Sc243 2.105 . S
O257 C251 1.268 . S
O258 Sc242 2.105 . S
O258 C250 1.268 . S
O259 Sc243 2.105 . S
O259 C249 1.268 . S
O260 Sc244 2.105 . S
O260 C251 1.268 . S
O261 Sc242 2.105 . S
O261 C247 1.268 . S
O262 Sc244 2.105 . S
O262 C246 1.268 . S
O263 Sc243 2.105 . S
O263 C248 1.268 . S
Sc264 O267 2.025 . S
Sc264 O274 2.105 . S
Sc264 O277 2.105 . S
Sc264 O280 2.105 . S
Sc264 O283 2.105 . S
Sc265 O267 2.025 . S
Sc265 O275 2.105 . S
Sc265 O279 2.105 . S
Sc265 O281 2.105 . S
Sc265 O285 2.105 . S
Sc266 O267 2.025 . S
Sc266 O276 2.105 . S
Sc266 O278 2.105 . S
Sc266 O282 2.105 . S
Sc266 O284 2.105 . S
O267 Sc264 2.025 . S
O267 Sc265 2.025 . S
O267 Sc266 2.025 . S
C268 O274 1.268 . S
C268 O284 1.268 . S
C269 O275 1.268 . S
C269 O283 1.268 . S
C270 O276 1.268 . S
C270 O285 1.268 . S
C271 O277 1.268 . S
C271 O281 1.268 . S
C272 O278 1.268 . S
C272 O280 1.268 . S
C273 O279 1.268 . S
C273 O282 1.268 . S
O274 Sc264 2.105 . S
O274 C268 1.268 . S
O275 Sc265 2.105 . S
O275 C269 1.268 . S
O276 Sc266 2.105 . S
O276 C270 1.268 . S
O277 Sc264 2.105 . S
O277 C271 1.268 . S
O278 Sc266 2.105 . S
O278 C272 1.268 . S
O279 Sc265 2.105 . S
O279 C273 1.268 . S
O280 Sc264 2.105 . S
O280 C272 1.268 . S
O281 Sc265 2.105 . S
O281 C271 1.268 . S
O282 Sc266 2.105 . S
O282 C273 1.268 . S
O283 Sc264 2.105 . S
O283 C269 1.268 . S
O284 Sc266 2.105 . S
O284 C268 1.268 . S
O285 Sc265 2.105 . S
O285 C270 1.268 . S
Sc286 O289 2.025 . S
Sc286 O296 2.105 . S
Sc286 O299 2.105 . S
Sc286 O302 2.105 . S
Sc286 O305 2.105 . S
Sc287 O289 2.025 . S
Sc287 O297 2.105 . S
Sc287 O301 2.105 . S
Sc287 O303 2.105 . S
Sc287 O307 2.105 . S
Sc288 O289 2.025 . S
Sc288 O298 2.105 . S
Sc288 O300 2.105 . S
Sc288 O304 2.105 . S
Sc288 O306 2.105 . S
O289 Sc286 2.025 . S
O289 Sc287 2.025 . S
O289 Sc288 2.025 . S
C290 O296 1.268 . S
C290 O306 1.268 . S
C291 O297 1.268 . S
C291 O305 1.268 . S
C292 O298 1.268 . S
C292 O307 1.268 . S
C293 O299 1.268 . S
C293 O303 1.268 . S
C294 O300 1.268 . S
C294 O302 1.268 . S
C295 O301 1.268 . S
C295 O304 1.268 . S
O296 Sc286 2.105 . S
O296 C290 1.268 . S
O297 Sc287 2.105 . S
O297 C291 1.268 . S
O298 Sc288 2.105 . S
O298 C292 1.268 . S
O299 Sc286 2.105 . S
O299 C293 1.268 . S
O300 Sc288 2.105 . S
O300 C294 1.268 . S
O301 Sc287 2.105 . S
O301 C295 1.268 . S
O302 Sc286 2.105 . S
O302 C294 1.268 . S
O303 Sc287 2.105 . S
O303 C293 1.268 . S
O304 Sc288 2.105 . S
O304 C295 1.268 . S
O305 Sc286 2.105 . S
O305 C291 1.268 . S
O306 Sc288 2.105 . S
O306 C290 1.268 . S
O307 Sc287 2.105 . S
O307 C292 1.268 . S
Sc308 O311 2.025 . S
Sc308 O318 2.105 . S
Sc308 O321 2.105 . S
Sc308 O324 2.105 . S
Sc308 O327 2.105 . S
Sc309 O311 2.025 . S
Sc309 O319 2.105 . S
Sc309 O323 2.105 . S
Sc309 O325 2.105 . S
Sc309 O329 2.105 . S
Sc310 O311 2.025 . S
Sc310 O320 2.105 . S
Sc310 O322 2.105 . S
Sc310 O326 2.105 . S
Sc310 O328 2.105 . S
O311 Sc308 2.025 . S
O311 Sc309 2.025 . S
O311 Sc310 2.025 . S
C312 O318 1.268 . S
C312 O328 1.268 . S
C313 O319 1.268 . S
C313 O327 1.268 . S
C314 O320 1.268 . S
C314 O329 1.268 . S
C315 O321 1.268 . S
C315 O325 1.268 . S
C316 O322 1.268 . S
C316 O324 1.268 . S
C317 O323 1.268 . S
C317 O326 1.268 . S
O318 Sc308 2.105 . S
O318 C312 1.268 . S
O319 Sc309 2.105 . S
O319 C313 1.268 . S
O320 Sc310 2.105 . S
O320 C314 1.268 . S
O321 Sc308 2.105 . S
O321 C315 1.268 . S
O322 Sc310 2.105 . S
O322 C316 1.268 . S
O323 Sc309 2.105 . S
O323 C317 1.268 . S
O324 Sc308 2.105 . S
O324 C316 1.268 . S
O325 Sc309 2.105 . S
O325 C315 1.268 . S
O326 Sc310 2.105 . S
O326 C317 1.268 . S
O327 Sc308 2.105 . S
O327 C313 1.268 . S
O328 Sc310 2.105 . S
O328 C312 1.268 . S
O329 Sc309 2.105 . S
O329 C314 1.268 . S
Sc330 O333 2.025 . S
Sc330 O340 2.105 . S
Sc330 O343 2.105 . S
Sc330 O346 2.105 . S
Sc330 O349 2.105 . S
Sc331 O333 2.025 . S
Sc331 O341 2.105 . S
Sc331 O345 2.105 . S
Sc331 O347 2.105 . S
Sc331 O351 2.105 . S
Sc332 O333 2.025 . S
Sc332 O342 2.105 . S
Sc332 O344 2.105 . S
Sc332 O348 2.105 . S
Sc332 O350 2.105 . S
O333 Sc330 2.025 . S
O333 Sc331 2.025 . S
O333 Sc332 2.025 . S
C334 O340 1.268 . S
C334 O350 1.268 . S
C335 O341 1.268 . S
C335 O349 1.268 . S
C336 O342 1.268 . S
C336 O351 1.268 . S
C337 O343 1.268 . S
C337 O347 1.268 . S
C338 O344 1.268 . S
C338 O346 1.268 . S
C339 O345 1.268 . S
C339 O348 1.268 . S
O340 Sc330 2.105 . S
O340 C334 1.268 . S
O341 Sc331 2.105 . S
O341 C335 1.268 . S
O342 Sc332 2.105 . S
O342 C336 1.268 . S
O343 Sc330 2.105 . S
O343 C337 1.268 . S
O344 Sc332 2.105 . S
O344 C338 1.268 . S
O345 Sc331 2.105 . S
O345 C339 1.268 . S
O346 Sc330 2.105 . S
O346 C338 1.268 . S
O347 Sc331 2.105 . S
O347 C337 1.268 . S
O348 Sc332 2.105 . S
O348 C339 1.268 . S
O349 Sc330 2.105 . S
O349 C335 1.268 . S
O350 Sc332 2.105 . S
O350 C334 1.268 . S
O351 Sc331 2.105 . S
O351 C336 1.268 . S
Sc352 O355 2.025 . S
Sc352 O362 2.105 . S
Sc352 O365 2.105 . S
Sc352 O368 2.105 . S
Sc352 O371 2.105 . S
Sc353 O355 2.025 . S
Sc353 O363 2.105 . S
Sc353 O367 2.105 . S
Sc353 O369 2.105 . S
Sc353 O373 2.105 . S
Sc354 O355 2.025 . S
Sc354 O364 2.105 . S
Sc354 O366 2.105 . S
Sc354 O370 2.105 . S
Sc354 O372 2.105 . S
O355 Sc352 2.025 . S
O355 Sc353 2.025 . S
O355 Sc354 2.025 . S
C356 O362 1.268 . S
C356 O372 1.268 . S
C357 O363 1.268 . S
C357 O371 1.268 . S
C358 O364 1.268 . S
C358 O373 1.268 . S
C359 O365 1.268 . S
C359 O369 1.268 . S
C360 O366 1.268 . S
C360 O368 1.268 . S
C361 O367 1.268 . S
C361 O370 1.268 . S
O362 Sc352 2.105 . S
O362 C356 1.268 . S
O363 Sc353 2.105 . S
O363 C357 1.268 . S
O364 Sc354 2.105 . S
O364 C358 1.268 . S
O365 Sc352 2.105 . S
O365 C359 1.268 . S
O366 Sc354 2.105 . S
O366 C360 1.268 . S
O367 Sc353 2.105 . S
O367 C361 1.268 . S
O368 Sc352 2.105 . S
O368 C360 1.268 . S
O369 Sc353 2.105 . S
O369 C359 1.268 . S
O370 Sc354 2.105 . S
O370 C361 1.268 . S
O371 Sc352 2.105 . S
O371 C357 1.268 . S
O372 Sc354 2.105 . S
O372 C356 1.268 . S
O373 Sc353 2.105 . S
O373 C358 1.268 . S
Sc374 O377 2.025 . S
Sc374 O384 2.105 . S
Sc374 O387 2.105 . S
Sc374 O390 2.105 . S
Sc374 O393 2.105 . S
Sc375 O377 2.025 . S
Sc375 O385 2.105 . S
Sc375 O389 2.105 . S
Sc375 O391 2.105 . S
Sc375 O395 2.105 . S
Sc376 O377 2.025 . S
Sc376 O386 2.105 . S
Sc376 O388 2.105 . S
Sc376 O392 2.105 . S
Sc376 O394 2.105 . S
O377 Sc374 2.025 . S
O377 Sc375 2.025 . S
O377 Sc376 2.025 . S
C378 O384 1.268 . S
C378 O394 1.268 . S
C379 O385 1.268 . S
C379 O393 1.268 . S
C380 O386 1.268 . S
C380 O395 1.268 . S
C381 O387 1.268 . S
C381 O391 1.268 . S
C382 O388 1.268 . S
C382 O390 1.268 . S
C383 O389 1.268 . S
C383 O392 1.268 . S
O384 Sc374 2.105 . S
O384 C378 1.268 . S
O385 Sc375 2.105 . S
O385 C379 1.268 . S
O386 Sc376 2.105 . S
O386 C380 1.268 . S
O387 Sc374 2.105 . S
O387 C381 1.268 . S
O388 Sc376 2.105 . S
O388 C382 1.268 . S
O389 Sc375 2.105 . S
O389 C383 1.268 . S
O390 Sc374 2.105 . S
O390 C382 1.268 . S
O391 Sc375 2.105 . S
O391 C381 1.268 . S
O392 Sc376 2.105 . S
O392 C383 1.268 . S
O393 Sc374 2.105 . S
O393 C379 1.268 . S
O394 Sc376 2.105 . S
O394 C378 1.268 . S
O395 Sc375 2.105 . S
O395 C380 1.268 . S
Sc396 O399 2.025 . S
Sc396 O406 2.105 . S
Sc396 O409 2.105 . S
Sc396 O412 2.105 . S
Sc396 O415 2.105 . S
Sc397 O399 2.025 . S
Sc397 O407 2.105 . S
Sc397 O411 2.105 . S
Sc397 O413 2.105 . S
Sc397 O417 2.105 . S
Sc398 O399 2.025 . S
Sc398 O408 2.105 . S
Sc398 O410 2.105 . S
Sc398 O414 2.105 . S
Sc398 O416 2.105 . S
O399 Sc396 2.025 . S
O399 Sc397 2.025 . S
O399 Sc398 2.025 . S
C400 O406 1.268 . S
C400 O416 1.268 . S
C401 O407 1.268 . S
C401 O415 1.268 . S
C402 O408 1.268 . S
C402 O417 1.268 . S
C403 O409 1.268 . S
C403 O413 1.268 . S
C404 O410 1.268 . S
C404 O412 1.268 . S
C405 O411 1.268 . S
C405 O414 1.268 . S
O406 Sc396 2.105 . S
O406 C400 1.268 . S
O407 Sc397 2.105 . S
O407 C401 1.268 . S
O408 Sc398 2.105 . S
O408 C402 1.268 . S
O409 Sc396 2.105 . S
O409 C403 1.268 . S
O410 Sc398 2.105 . S
O410 C404 1.268 . S
O411 Sc397 2.105 . S
O411 C405 1.268 . S
O412 Sc396 2.105 . S
O412 C404 1.268 . S
O413 Sc397 2.105 . S
O413 C403 1.268 . S
O414 Sc398 2.105 . S
O414 C405 1.268 . S
O415 Sc396 2.105 . S
O415 C401 1.268 . S
O416 Sc398 2.105 . S
O416 C400 1.268 . S
O417 Sc397 2.105 . S
O417 C402 1.268 . S
Sc418 O421 2.025 . S
Sc418 O428 2.105 . S
Sc418 O431 2.105 . S
Sc418 O434 2.105 . S
Sc418 O437 2.105 . S
Sc419 O421 2.025 . S
Sc419 O429 2.105 . S
Sc419 O433 2.105 . S
Sc419 O435 2.105 . S
Sc419 O439 2.105 . S
Sc420 O421 2.025 . S
Sc420 O430 2.105 . S
Sc420 O432 2.105 . S
Sc420 O436 2.105 . S
Sc420 O438 2.105 . S
O421 Sc418 2.025 . S
O421 Sc419 2.025 . S
O421 Sc420 2.025 . S
C422 O428 1.268 . S
C422 O438 1.268 . S
C423 O429 1.268 . S
C423 O437 1.268 . S
C424 O430 1.268 . S
C424 O439 1.268 . S
C425 O431 1.268 . S
C425 O435 1.268 . S
C426 O432 1.268 . S
C426 O434 1.268 . S
C427 O433 1.268 . S
C427 O436 1.268 . S
O428 Sc418 2.105 . S
O428 C422 1.268 . S
O429 Sc419 2.105 . S
O429 C423 1.268 . S
O430 Sc420 2.105 . S
O430 C424 1.268 . S
O431 Sc418 2.105 . S
O431 C425 1.268 . S
O432 Sc420 2.105 . S
O432 C426 1.268 . S
O433 Sc419 2.105 . S
O433 C427 1.268 . S
O434 Sc418 2.105 . S
O434 C426 1.268 . S
O435 Sc419 2.105 . S
O435 C425 1.268 . S
O436 Sc420 2.105 . S
O436 C427 1.268 . S
O437 Sc418 2.105 . S
O437 C423 1.268 . S
O438 Sc420 2.105 . S
O438 C422 1.268 . S
O439 Sc419 2.105 . S
O439 C424 1.268 . S
Sc440 O443 2.025 . S
Sc440 O450 2.105 . S
Sc440 O453 2.105 . S
Sc440 O456 2.105 . S
Sc440 O459 2.105 . S
Sc441 O443 2.025 . S
Sc441 O451 2.105 . S
Sc441 O455 2.105 . S
Sc441 O457 2.105 . S
Sc441 O461 2.105 . S
Sc442 O443 2.025 . S
Sc442 O452 2.105 . S
Sc442 O454 2.105 . S
Sc442 O458 2.105 . S
Sc442 O460 2.105 . S
O443 Sc440 2.025 . S
O443 Sc441 2.025 . S
O443 Sc442 2.025 . S
C444 O450 1.268 . S
C444 O460 1.268 . S
C445 O451 1.268 . S
C445 O459 1.268 . S
C446 O452 1.268 . S
C446 O461 1.268 . S
C447 O453 1.268 . S
C447 O457 1.268 . S
C448 O454 1.268 . S
C448 O456 1.268 . S
C449 O455 1.268 . S
C449 O458 1.268 . S
O450 Sc440 2.105 . S
O450 C444 1.268 . S
O451 Sc441 2.105 . S
O451 C445 1.268 . S
O452 Sc442 2.105 . S
O452 C446 1.268 . S
O453 Sc440 2.105 . S
O453 C447 1.268 . S
O454 Sc442 2.105 . S
O454 C448 1.268 . S
O455 Sc441 2.105 . S
O455 C449 1.268 . S
O456 Sc440 2.105 . S
O456 C448 1.268 . S
O457 Sc441 2.105 . S
O457 C447 1.268 . S
O458 Sc442 2.105 . S
O458 C449 1.268 . S
O459 Sc440 2.105 . S
O459 C445 1.268 . S
O460 Sc442 2.105 . S
O460 C444 1.268 . S
O461 Sc441 2.105 . S
O461 C446 1.268 . S
Sc462 O465 2.025 . S
Sc462 O472 2.105 . S
Sc462 O475 2.105 . S
Sc462 O478 2.105 . S
Sc462 O481 2.105 . S
Sc463 O465 2.025 . S
Sc463 O473 2.105 . S
Sc463 O477 2.105 . S
Sc463 O479 2.105 . S
Sc463 O483 2.105 . S
Sc464 O465 2.025 . S
Sc464 O474 2.105 . S
Sc464 O476 2.105 . S
Sc464 O480 2.105 . S
Sc464 O482 2.105 . S
O465 Sc462 2.025 . S
O465 Sc463 2.025 . S
O465 Sc464 2.025 . S
C466 O472 1.268 . S
C466 O482 1.268 . S
C467 O473 1.268 . S
C467 O481 1.268 . S
C468 O474 1.268 . S
C468 O483 1.268 . S
C469 O475 1.268 . S
C469 O479 1.268 . S
C470 O476 1.268 . S
C470 O478 1.268 . S
C471 O477 1.268 . S
C471 O480 1.268 . S
O472 Sc462 2.105 . S
O472 C466 1.268 . S
O473 Sc463 2.105 . S
O473 C467 1.268 . S
O474 Sc464 2.105 . S
O474 C468 1.268 . S
O475 Sc462 2.105 . S
O475 C469 1.268 . S
O476 Sc464 2.105 . S
O476 C470 1.268 . S
O477 Sc463 2.105 . S
O477 C471 1.268 . S
O478 Sc462 2.105 . S
O478 C470 1.268 . S
O479 Sc463 2.105 . S
O479 C469 1.268 . S
O480 Sc464 2.105 . S
O480 C471 1.268 . S
O481 Sc462 2.105 . S
O481 C467 1.268 . S
O482 Sc464 2.105 . S
O482 C466 1.268 . S
O483 Sc463 2.105 . S
O483 C468 1.268 . S
Sc484 O487 2.025 . S
Sc484 O494 2.105 . S
Sc484 O497 2.105 . S
Sc484 O500 2.105 . S
Sc484 O503 2.105 . S
Sc485 O487 2.025 . S
Sc485 O495 2.105 . S
Sc485 O499 2.105 . S
Sc485 O501 2.105 . S
Sc485 O505 2.105 . S
Sc486 O487 2.025 . S
Sc486 O496 2.105 . S
Sc486 O498 2.105 . S
Sc486 O502 2.105 . S
Sc486 O504 2.105 . S
O487 Sc484 2.025 . S
O487 Sc485 2.025 . S
O487 Sc486 2.025 . S
C488 O494 1.268 . S
C488 O504 1.268 . S
C489 O495 1.268 . S
C489 O503 1.268 . S
C490 O496 1.268 . S
C490 O505 1.268 . S
C491 O497 1.268 . S
C491 O501 1.268 . S
C492 O498 1.268 . S
C492 O500 1.268 . S
C493 O499 1.268 . S
C493 O502 1.268 . S
O494 Sc484 2.105 . S
O494 C488 1.268 . S
O495 Sc485 2.105 . S
O495 C489 1.268 . S
O496 Sc486 2.105 . S
O496 C490 1.268 . S
O497 Sc484 2.105 . S
O497 C491 1.268 . S
O498 Sc486 2.105 . S
O498 C492 1.268 . S
O499 Sc485 2.105 . S
O499 C493 1.268 . S
O500 Sc484 2.105 . S
O500 C492 1.268 . S
O501 Sc485 2.105 . S
O501 C491 1.268 . S
O502 Sc486 2.105 . S
O502 C493 1.268 . S
O503 Sc484 2.105 . S
O503 C489 1.268 . S
O504 Sc486 2.105 . S
O504 C488 1.268 . S
O505 Sc485 2.105 . S
O505 C490 1.268 . S
Sc506 O509 2.025 . S
Sc506 O516 2.105 . S
Sc506 O519 2.105 . S
Sc506 O522 2.105 . S
Sc506 O525 2.105 . S
Sc507 O509 2.025 . S
Sc507 O517 2.105 . S
Sc507 O521 2.105 . S
Sc507 O523 2.105 . S
Sc507 O527 2.105 . S
Sc508 O509 2.025 . S
Sc508 O518 2.105 . S
Sc508 O520 2.105 . S
Sc508 O524 2.105 . S
Sc508 O526 2.105 . S
O509 Sc506 2.025 . S
O509 Sc507 2.025 . S
O509 Sc508 2.025 . S
C510 O516 1.268 . S
C510 O526 1.268 . S
C511 O517 1.268 . S
C511 O525 1.268 . S
C512 O518 1.268 . S
C512 O527 1.268 . S
C513 O519 1.268 . S
C513 O523 1.268 . S
C514 O520 1.268 . S
C514 O522 1.268 . S
C515 O521 1.268 . S
C515 O524 1.268 . S
O516 Sc506 2.105 . S
O516 C510 1.268 . S
O517 Sc507 2.105 . S
O517 C511 1.268 . S
O518 Sc508 2.105 . S
O518 C512 1.268 . S
O519 Sc506 2.105 . S
O519 C513 1.268 . S
O520 Sc508 2.105 . S
O520 C514 1.268 . S
O521 Sc507 2.105 . S
O521 C515 1.268 . S
O522 Sc506 2.105 . S
O522 C514 1.268 . S
O523 Sc507 2.105 . S
O523 C513 1.268 . S
O524 Sc508 2.105 . S
O524 C515 1.268 . S
O525 Sc506 2.105 . S
O525 C511 1.268 . S
O526 Sc508 2.105 . S
O526 C510 1.268 . S
O527 Sc507 2.105 . S
O527 C512 1.268 . S
H528 C534 0.930 . S
H529 C537 0.930 . S
H530 C538 0.930 . S
H531 C539 0.930 . S
H532 C542 0.930 . S
H533 C543 0.930 . S
C534 H528 0.930 . S
C534 C535 1.355 . S
C534 C536 1.415 . S
C535 C534 1.355 . S
C535 C537 1.419 . S
C536 C534 1.415 . S
C536 C541 1.425 . S
C536 C543 1.409 . S
C537 H529 0.930 . S
C537 C535 1.419 . S
C537 C538 1.362 . S
C538 H530 0.930 . S
C538 C537 1.362 . S
C538 C541 1.409 . S
C539 H531 0.930 . S
C539 C540 1.355 . S
C539 C541 1.415 . S
C540 C539 1.355 . S
C540 C542 1.419 . S
C541 C536 1.425 . S
C541 C538 1.409 . S
C541 C539 1.415 . S
C542 H532 0.930 . S
C542 C540 1.419 . S
C542 C543 1.362 . S
C543 H533 0.930 . S
C543 C536 1.409 . S
C543 C542 1.362 . S
H544 C550 0.930 . S
H545 C553 0.930 . S
H546 C554 0.930 . S
H547 C555 0.930 . S
H548 C558 0.930 . S
H549 C559 0.930 . S
C550 H544 0.930 . S
C550 C551 1.355 . S
C550 C552 1.415 . S
C551 C550 1.355 . S
C551 C553 1.419 . S
C552 C550 1.415 . S
C552 C557 1.425 . S
C552 C559 1.409 . S
C553 H545 0.930 . S
C553 C551 1.419 . S
C553 C554 1.362 . S
C554 H546 0.930 . S
C554 C553 1.362 . S
C554 C557 1.409 . S
C555 H547 0.930 . S
C555 C556 1.355 . S
C555 C557 1.415 . S
C556 C555 1.355 . S
C556 C558 1.419 . S
C557 C552 1.425 . S
C557 C554 1.409 . S
C557 C555 1.415 . S
C558 H548 0.930 . S
C558 C556 1.419 . S
C558 C559 1.362 . S
C559 H549 0.930 . S
C559 C552 1.409 . S
C559 C558 1.362 . S
H560 C566 0.930 . S
H561 C569 0.930 . S
H562 C570 0.930 . S
H563 C571 0.930 . S
H564 C574 0.930 . S
H565 C575 0.937 . S
C566 H560 0.930 . S
C566 C567 1.355 . S
C566 C568 1.415 . S
C567 C566 1.355 . S
C567 C569 1.419 . S
C568 C566 1.415 . S
C568 C573 1.425 . S
C568 C575 1.392 1_565 S
C569 H561 0.930 . S
C569 C567 1.419 . S
C569 C570 1.362 . S
C570 H562 0.930 . S
C570 C569 1.362 . S
C570 C573 1.409 . S
C571 H563 0.930 . S
C571 C572 1.355 1_565 S
C571 C573 1.415 . S
C572 C571 1.355 1_545 S
C572 C574 1.419 . S
C573 C568 1.425 . S
C573 C570 1.409 . S
C573 C571 1.415 . S
C574 H564 0.930 . S
C574 C572 1.419 . S
C574 C575 1.373 . S
C575 H565 0.937 . S
C575 C568 1.392 1_545 S
C575 C574 1.373 . S
H576 C582 0.930 . S
H577 C585 0.930 . S
H578 C586 0.930 . S
H579 C587 0.930 . S
H580 C590 0.930 . S
H581 C591 0.930 . S
C582 H576 0.930 . S
C582 C583 1.355 1_545 S
C582 C584 1.415 . S
C583 C582 1.355 1_565 S
C583 C585 1.419 . S
C584 C582 1.415 . S
C584 C589 1.425 . S
C584 C591 1.409 . S
C585 H577 0.930 . S
C585 C583 1.419 . S
C585 C586 1.362 . S
C586 H578 0.930 . S
C586 C585 1.362 . S
C586 C589 1.409 1_565 S
C587 H579 0.930 . S
C587 C588 1.355 . S
C587 C589 1.415 . S
C588 C587 1.355 . S
C588 C590 1.419 . S
C589 C584 1.425 . S
C589 C586 1.409 1_545 S
C589 C587 1.415 . S
C590 H580 0.930 . S
C590 C588 1.419 . S
C590 C591 1.362 . S
C591 H581 0.930 . S
C591 C584 1.409 . S
C591 C590 1.362 . S
H592 C598 0.930 . S
H593 C601 0.930 . S
H594 C602 0.930 . S
H595 C603 0.930 . S
H596 C606 0.930 . S
H597 C607 0.930 . S
C598 H592 0.930 . S
C598 C599 1.355 . S
C598 C600 1.415 . S
C599 C598 1.355 . S
C599 C601 1.419 . S
C600 C598 1.415 . S
C600 C605 1.425 . S
C600 C607 1.409 . S
C601 H593 0.930 . S
C601 C599 1.419 . S
C601 C602 1.362 . S
C602 H594 0.930 . S
C602 C601 1.362 . S
C602 C605 1.409 . S
C603 H595 0.930 . S
C603 C604 1.355 . S
C603 C605 1.415 . S
C604 C603 1.355 . S
C604 C606 1.419 . S
C605 C600 1.425 . S
C605 C602 1.409 . S
C605 C603 1.415 . S
C606 H596 0.930 . S
C606 C604 1.419 . S
C606 C607 1.362 . S
C607 H597 0.930 . S
C607 C600 1.409 . S
C607 C606 1.362 . S
H608 C614 0.930 . S
H609 C617 0.930 . S
H610 C618 0.930 1_556 S
H611 C619 0.930 . S
H612 C622 0.930 . S
H613 C623 0.930 . S
C614 H608 0.930 . S
C614 C615 1.355 . S
C614 C616 1.415 . S
C615 C614 1.355 . S
C615 C617 1.419 . S
C616 C614 1.415 . S
C616 C621 1.425 . S
C616 C623 1.409 . S
C617 H609 0.930 . S
C617 C615 1.419 . S
C617 C618 1.362 . S
C618 H610 0.930 1_554 S
C618 C617 1.362 . S
C618 C621 1.409 . S
C619 H611 0.930 . S
C619 C620 1.355 . S
C619 C621 1.415 1_556 S
C620 C619 1.355 . S
C620 C622 1.419 1_556 S
C621 C616 1.425 . S
C621 C618 1.409 . S
C621 C619 1.415 1_554 S
C622 H612 0.930 . S
C622 C620 1.419 1_554 S
C622 C623 1.362 . S
C623 H613 0.930 . S
C623 C616 1.409 . S
C623 C622 1.362 . S
H624 C630 0.930 . S
H625 C633 0.930 . S
H626 C634 0.930 . S
H627 C635 0.930 . S
H628 C638 0.930 . S
H629 C639 0.930 . S
C630 H624 0.930 . S
C630 C631 1.355 . S
C630 C632 1.415 . S
C631 C630 1.355 . S
C631 C633 1.419 . S
C632 C630 1.415 . S
C632 C637 1.425 . S
C632 C639 1.409 . S
C633 H625 0.930 . S
C633 C631 1.419 . S
C633 C634 1.362 . S
C634 H626 0.930 . S
C634 C633 1.362 . S
C634 C637 1.409 . S
C635 H627 0.930 . S
C635 C636 1.355 . S
C635 C637 1.415 . S
C636 C635 1.355 . S
C636 C638 1.419 . S
C637 C632 1.425 . S
C637 C634 1.409 . S
C637 C635 1.415 . S
C638 H628 0.930 . S
C638 C636 1.419 . S
C638 C639 1.362 . S
C639 H629 0.930 . S
C639 C632 1.409 . S
C639 C638 1.362 . S
H640 C646 0.930 . S
H641 C649 0.930 . S
H642 C650 0.930 . S
H643 C651 0.930 . S
H644 C654 0.930 . S
H645 C655 0.930 . S
C646 H640 0.930 . S
C646 C647 1.355 . S
C646 C648 1.415 . S
C647 C646 1.355 . S
C647 C649 1.419 . S
C648 C646 1.415 . S
C648 C653 1.425 . S
C648 C655 1.409 . S
C649 H641 0.930 . S
C649 C647 1.419 . S
C649 C650 1.362 . S
C650 H642 0.930 . S
C650 C649 1.362 . S
C650 C653 1.409 . S
C651 H643 0.930 . S
C651 C652 1.355 1_556 S
C651 C653 1.415 . S
C652 C651 1.355 1_554 S
C652 C654 1.419 . S
C653 C648 1.425 . S
C653 C650 1.409 . S
C653 C651 1.415 . S
C654 H644 0.930 . S
C654 C652 1.419 . S
C654 C655 1.362 1_554 S
C655 H645 0.930 . S
C655 C648 1.409 . S
C655 C654 1.362 1_556 S
H656 C662 0.930 . S
H657 C665 0.930 . S
H658 C666 0.930 . S
H659 C667 0.930 . S
H660 C670 0.930 . S
H661 C671 0.930 . S
C662 H656 0.930 . S
C662 C663 1.355 . S
C662 C664 1.415 . S
C663 C662 1.355 . S
C663 C665 1.419 . S
C664 C662 1.415 . S
C664 C669 1.425 . S
C664 C671 1.409 . S
C665 H657 0.930 . S
C665 C663 1.419 . S
C665 C666 1.362 . S
C666 H658 0.930 . S
C666 C665 1.362 . S
C666 C669 1.409 . S
C667 H659 0.930 . S
C667 C668 1.355 . S
C667 C669 1.415 . S
C668 C667 1.355 . S
C668 C670 1.419 . S
C669 C664 1.425 . S
C669 C666 1.409 . S
C669 C667 1.415 . S
C670 H660 0.930 . S
C670 C668 1.419 . S
C670 C671 1.362 . S
C671 H661 0.930 . S
C671 C664 1.409 . S
C671 C670 1.362 . S
H672 C678 0.930 . S
H673 C681 0.930 . S
H674 C682 0.930 . S
H675 C683 0.930 . S
H676 C686 0.930 . S
H677 C687 0.930 . S
C678 H672 0.930 . S
C678 C679 1.355 1_455 S
C678 C680 1.415 . S
C679 C678 1.355 1_655 S
C679 C681 1.419 . S
C680 C678 1.415 . S
C680 C685 1.425 . S
C680 C687 1.409 . S
C681 H673 0.930 . S
C681 C679 1.419 . S
C681 C682 1.362 . S
C682 H674 0.930 . S
C682 C681 1.362 . S
C682 C685 1.409 1_655 S
C683 H675 0.930 . S
C683 C684 1.355 . S
C683 C685 1.415 . S
C684 C683 1.355 . S
C684 C686 1.419 . S
C685 C680 1.425 . S
C685 C682 1.409 1_455 S
C685 C683 1.415 . S
C686 H676 0.930 . S
C686 C684 1.419 . S
C686 C687 1.362 . S
C687 H677 0.930 . S
C687 C680 1.409 . S
C687 C686 1.362 . S
H688 C694 0.930 . S
H689 C697 0.930 . S
H690 C698 0.930 . S
H691 C699 0.930 . S
H692 C702 0.930 . S
H693 C703 0.930 . S
C694 H688 0.930 . S
C694 C695 1.355 . S
C694 C696 1.415 . S
C695 C694 1.355 . S
C695 C697 1.419 . S
C696 C694 1.415 . S
C696 C701 1.425 . S
C696 C703 1.409 . S
C697 H689 0.930 . S
C697 C695 1.419 . S
C697 C698 1.362 . S
C698 H690 0.930 . S
C698 C697 1.362 . S
C698 C701 1.409 . S
C699 H691 0.930 . S
C699 C700 1.355 . S
C699 C701 1.415 . S
C700 C699 1.355 . S
C700 C702 1.419 . S
C701 C696 1.425 . S
C701 C698 1.409 . S
C701 C699 1.415 . S
C702 H692 0.930 . S
C702 C700 1.419 . S
C702 C703 1.362 . S
C703 H693 0.930 . S
C703 C696 1.409 . S
C703 C702 1.362 . S
H704 C710 0.930 . S
H705 C713 0.930 . S
H706 C714 0.930 . S
H707 C715 0.930 . S
H708 C718 0.930 . S
H709 C719 0.930 . S
C710 H704 0.930 . S
C710 C711 1.355 . S
C710 C712 1.415 . S
C711 C710 1.355 . S
C711 C713 1.419 . S
C712 C710 1.415 . S
C712 C717 1.425 . S
C712 C719 1.409 1_655 S
C713 H705 0.930 . S
C713 C711 1.419 . S
C713 C714 1.362 . S
C714 H706 0.930 . S
C714 C713 1.362 . S
C714 C717 1.409 . S
C715 H707 0.930 . S
C715 C716 1.355 1_655 S
C715 C717 1.415 . S
C716 C715 1.355 1_455 S
C716 C718 1.419 . S
C717 C712 1.425 . S
C717 C714 1.409 . S
C717 C715 1.415 . S
C718 H708 0.930 . S
C718 C716 1.419 . S
C718 C719 1.362 . S
C719 H709 0.930 . S
C719 C712 1.409 1_455 S
C719 C718 1.362 . S
H720 C726 0.930 . S
H721 C729 0.930 . S
H722 C730 0.930 . S
H723 C731 0.930 . S
H724 C734 0.930 . S
H725 C735 0.930 . S
C726 H720 0.930 . S
C726 C727 1.355 . S
C726 C728 1.415 . S
C727 C726 1.355 . S
C727 C729 1.419 . S
C728 C726 1.415 . S
C728 C733 1.425 . S
C728 C735 1.409 . S
C729 H721 0.930 . S
C729 C727 1.419 . S
C729 C730 1.362 . S
C730 H722 0.930 . S
C730 C729 1.362 . S
C730 C733 1.409 . S
C731 H723 0.930 . S
C731 C732 1.355 . S
C731 C733 1.415 . S
C732 C731 1.355 . S
C732 C734 1.419 . S
C733 C728 1.425 . S
C733 C730 1.409 . S
C733 C731 1.415 . S
C734 H724 0.930 . S
C734 C732 1.419 . S
C734 C735 1.362 . S
C735 H725 0.930 . S
C735 C728 1.409 . S
C735 C734 1.362 . S
H736 C742 0.930 . S
H737 C745 0.930 . S
H738 C746 0.930 . S
H739 C747 0.930 . S
H740 C750 0.930 . S
H741 C751 0.930 . S
C742 H736 0.930 . S
C742 C743 1.355 . S
C742 C744 1.415 . S
C743 C742 1.355 . S
C743 C745 1.419 . S
C744 C742 1.415 . S
C744 C749 1.425 . S
C744 C751 1.409 . S
C745 H737 0.930 . S
C745 C743 1.419 . S
C745 C746 1.362 . S
C746 H738 0.930 . S
C746 C745 1.362 . S
C746 C749 1.409 . S
C747 H739 0.930 . S
C747 C748 1.355 . S
C747 C749 1.415 . S
C748 C747 1.355 . S
C748 C750 1.419 . S
C749 C744 1.425 . S
C749 C746 1.409 . S
C749 C747 1.415 . S
C750 H740 0.930 . S
C750 C748 1.419 . S
C750 C751 1.362 . S
C751 H741 0.930 . S
C751 C744 1.409 . S
C751 C750 1.362 . S
H752 C758 0.930 . S
H753 C761 0.930 . S
H754 C762 0.930 . S
H755 C763 0.930 . S
H756 C766 0.930 . S
H757 C767 0.930 . S
C758 H752 0.930 . S
C758 C759 1.355 . S
C758 C760 1.415 . S
C759 C758 1.355 . S
C759 C761 1.419 . S
C760 C758 1.415 . S
C760 C765 1.425 . S
C760 C767 1.409 . S
C761 H753 0.930 . S
C761 C759 1.419 . S
C761 C762 1.362 . S
C762 H754 0.930 . S
C762 C761 1.362 . S
C762 C765 1.409 . S
C763 H755 0.930 . S
C763 C764 1.355 1_545 S
C763 C765 1.415 . S
C764 C763 1.355 1_565 S
C764 C766 1.419 . S
C765 C760 1.425 . S
C765 C762 1.409 . S
C765 C763 1.415 . S
C766 H756 0.930 . S
C766 C764 1.419 . S
C766 C767 1.362 1_565 S
C767 H757 0.930 . S
C767 C760 1.409 . S
C767 C766 1.362 1_545 S
H768 C774 0.930 . S
H769 C777 0.930 . S
H770 C778 0.930 1_545 S
H771 C779 0.930 . S
H772 C782 0.930 . S
H773 C783 0.930 . S
C774 H768 0.930 . S
C774 C775 1.355 . S
C774 C776 1.415 . S
C775 C774 1.355 . S
C775 C777 1.419 . S
C776 C774 1.415 . S
C776 C781 1.425 . S
C776 C783 1.409 . S
C777 H769 0.930 . S
C777 C775 1.419 . S
C777 C778 1.362 . S
C778 H770 0.930 1_565 S
C778 C777 1.362 . S
C778 C781 1.409 . S
C779 H771 0.930 . S
C779 C780 1.355 . S
C779 C781 1.415 1_545 S
C780 C779 1.355 . S
C780 C782 1.419 1_545 S
C781 C776 1.425 . S
C781 C778 1.409 . S
C781 C779 1.415 1_565 S
C782 H772 0.930 . S
C782 C780 1.419 1_565 S
C782 C783 1.362 . S
C783 H773 0.930 . S
C783 C776 1.409 . S
C783 C782 1.362 . S
H784 C790 0.930 . S
H785 C793 0.930 . S
H786 C794 0.930 . S
H787 C795 0.930 . S
H788 C798 0.930 . S
H789 C799 0.930 . S
C790 H784 0.930 . S
C790 C791 1.355 . S
C790 C792 1.415 . S
C791 C790 1.355 . S
C791 C793 1.419 . S
C792 C790 1.415 . S
C792 C797 1.425 . S
C792 C799 1.409 . S
C793 H785 0.930 . S
C793 C791 1.419 . S
C793 C794 1.362 . S
C794 H786 0.930 . S
C794 C793 1.362 . S
C794 C797 1.409 . S
C795 H787 0.930 . S
C795 C796 1.355 . S
C795 C797 1.415 . S
C796 C795 1.355 . S
C796 C798 1.419 . S
C797 C792 1.425 . S
C797 C794 1.409 . S
C797 C795 1.415 . S
C798 H788 0.930 . S
C798 C796 1.419 . S
C798 C799 1.362 . S
C799 H789 0.930 . S
C799 C792 1.409 . S
C799 C798 1.362 . S
H800 C806 0.930 . S
H801 C809 0.930 . S
H802 C810 0.930 . S
H803 C811 0.930 . S
H804 C814 0.930 . S
H805 C815 0.930 . S
C806 H800 0.930 . S
C806 C807 1.355 . S
C806 C808 1.415 . S
C807 C806 1.355 . S
C807 C809 1.419 . S
C808 C806 1.415 . S
C808 C813 1.425 . S
C808 C815 1.409 1_556 S
C809 H801 0.930 . S
C809 C807 1.419 . S
C809 C810 1.362 . S
C810 H802 0.930 . S
C810 C809 1.362 . S
C810 C813 1.409 . S
C811 H803 0.930 . S
C811 C812 1.355 1_556 S
C811 C813 1.415 . S
C812 C811 1.355 1_554 S
C812 C814 1.419 . S
C813 C808 1.425 . S
C813 C810 1.409 . S
C813 C811 1.415 . S
C814 H804 0.930 . S
C814 C812 1.419 . S
C814 C815 1.362 . S
C815 H805 0.930 . S
C815 C808 1.409 1_554 S
C815 C814 1.362 . S
H816 C822 0.930 . S
H817 C825 0.930 . S
H818 C826 0.930 . S
H819 C827 0.930 . S
H820 C830 0.930 . S
H821 C831 0.930 . S
C822 H816 0.930 . S
C822 C823 1.355 . S
C822 C824 1.415 . S
C823 C822 1.355 . S
C823 C825 1.419 . S
C824 C822 1.415 . S
C824 C829 1.425 . S
C824 C831 1.409 . S
C825 H817 0.930 . S
C825 C823 1.419 . S
C825 C826 1.362 . S
C826 H818 0.930 . S
C826 C825 1.362 . S
C826 C829 1.409 . S
C827 H819 0.930 . S
C827 C828 1.355 . S
C827 C829 1.415 . S
C828 C827 1.355 . S
C828 C830 1.419 . S
C829 C824 1.425 . S
C829 C826 1.409 . S
C829 C827 1.415 . S
C830 H820 0.930 . S
C830 C828 1.419 . S
C830 C831 1.362 . S
C831 H821 0.930 . S
C831 C824 1.409 . S
C831 C830 1.362 . S
H832 C838 0.932 . S
H833 C841 0.930 . S
H834 C842 0.930 . S
H835 C843 0.930 . S
H836 C846 0.930 . S
H837 C847 0.930 . S
C838 H832 0.932 . S
C838 C839 1.356 . S
C838 C840 1.411 1_556 S
C839 C838 1.356 . S
C839 C841 1.419 1_556 S
C840 C838 1.411 1_554 S
C840 C845 1.425 . S
C840 C847 1.409 . S
C841 H833 0.930 . S
C841 C839 1.419 1_554 S
C841 C842 1.362 . S
C842 H834 0.930 . S
C842 C841 1.362 . S
C842 C845 1.409 . S
C843 H835 0.930 . S
C843 C844 1.355 . S
C843 C845 1.415 . S
C844 C843 1.355 . S
C844 C846 1.419 . S
C845 C840 1.425 . S
C845 C842 1.409 . S
C845 C843 1.415 . S
C846 H836 0.930 . S
C846 C844 1.419 . S
C846 C847 1.362 . S
C847 H837 0.930 . S
C847 C840 1.409 . S
C847 C846 1.362 . S
H848 C854 0.930 . S
H849 C857 0.930 . S
H850 C858 0.930 . S
H851 C859 0.930 . S
H852 C862 0.930 . S
H853 C863 0.930 . S
C854 H848 0.930 . S
C854 C855 1.355 . S
C854 C856 1.415 . S
C855 C854 1.355 . S
C855 C857 1.419 . S
C856 C854 1.415 . S
C856 C861 1.425 . S
C856 C863 1.409 . S
C857 H849 0.930 . S
C857 C855 1.419 . S
C857 C858 1.362 . S
C858 H850 0.930 . S
C858 C857 1.362 . S
C858 C861 1.409 . S
C859 H851 0.930 . S
C859 C860 1.355 . S
C859 C861 1.415 . S
C860 C859 1.355 . S
C860 C862 1.419 . S
C861 C856 1.425 . S
C861 C858 1.409 . S
C861 C859 1.415 . S
C862 H852 0.930 . S
C862 C860 1.419 . S
C862 C863 1.362 . S
C863 H853 0.930 . S
C863 C856 1.409 . S
C863 C862 1.362 . S
H864 C870 0.930 . S
H865 C873 0.930 . S
H866 C874 0.930 1_455 S
H867 C875 0.930 . S
H868 C878 0.930 . S
H869 C879 0.930 . S
C870 H864 0.930 . S
C870 C871 1.355 1_655 S
C870 C872 1.415 . S
C871 C870 1.355 1_455 S
C871 C873 1.419 . S
C872 C870 1.415 . S
C872 C877 1.425 . S
C872 C879 1.409 . S
C873 H865 0.930 . S
C873 C871 1.419 . S
C873 C874 1.362 1_455 S
C874 H866 0.930 1_655 S
C874 C873 1.362 1_655 S
C874 C877 1.409 . S
C875 H867 0.930 . S
C875 C876 1.355 . S
C875 C877 1.415 . S
C876 C875 1.355 . S
C876 C878 1.419 . S
C877 C872 1.425 . S
C877 C874 1.409 . S
C877 C875 1.415 . S
C878 H868 0.930 . S
C878 C876 1.419 . S
C878 C879 1.362 . S
C879 H869 0.930 . S
C879 C872 1.409 . S
C879 C878 1.362 . S
H880 C886 0.930 . S
H881 C889 0.930 . S
H882 C890 0.930 . S
H883 C891 0.930 . S
H884 C894 0.930 . S
H885 C895 0.930 . S
C886 H880 0.930 . S
C886 C887 1.355 . S
C886 C888 1.415 . S
C887 C886 1.355 . S
C887 C889 1.419 . S
C888 C886 1.415 . S
C888 C893 1.425 . S
C888 C895 1.409 . S
C889 H881 0.930 . S
C889 C887 1.419 . S
C889 C890 1.362 . S
C890 H882 0.930 . S
C890 C889 1.362 . S
C890 C893 1.409 . S
C891 H883 0.930 . S
C891 C892 1.355 . S
C891 C893 1.415 . S
C892 C891 1.355 . S
C892 C894 1.419 . S
C893 C888 1.425 . S
C893 C890 1.409 . S
C893 C891 1.415 . S
C894 H884 0.930 . S
C894 C892 1.419 . S
C894 C895 1.362 . S
C895 H885 0.930 . S
C895 C888 1.409 . S
C895 C894 1.362 . S
H896 C902 0.930 . S
H897 C905 0.930 . S
H898 C906 0.930 . S
H899 C907 0.930 . S
H900 C910 0.930 . S
H901 C911 0.930 1_655 S
C902 H896 0.930 . S
C902 C903 1.355 . S
C902 C904 1.415 . S
C903 C902 1.355 . S
C903 C905 1.419 . S
C904 C902 1.415 . S
C904 C909 1.425 . S
C904 C911 1.409 . S
C905 H897 0.930 . S
C905 C903 1.419 . S
C905 C906 1.362 . S
C906 H898 0.930 . S
C906 C905 1.362 . S
C906 C909 1.409 . S
C907 H899 0.930 . S
C907 C908 1.355 1_455 S
C907 C909 1.415 . S
C908 C907 1.355 1_655 S
C908 C910 1.419 . S
C909 C904 1.425 . S
C909 C906 1.409 . S
C909 C907 1.415 . S
C910 H900 0.930 . S
C910 C908 1.419 . S
C910 C911 1.362 1_655 S
C911 H901 0.930 1_455 S
C911 C904 1.409 . S
C911 C910 1.362 1_455 S
H912 C918 0.930 . S
H913 C921 0.930 1_556 S
H914 C922 0.930 . S
H915 C923 0.930 . S
H916 C926 0.930 . S
H917 C927 0.930 . S
C918 H912 0.930 . S
C918 C919 1.355 . S
C918 C920 1.415 . S
C919 C918 1.355 . S
C919 C921 1.419 . S
C920 C918 1.415 . S
C920 C925 1.425 . S
C920 C927 1.409 . S
C921 H913 0.930 1_554 S
C921 C919 1.419 . S
C921 C922 1.362 . S
C922 H914 0.930 . S
C922 C921 1.362 . S
C922 C925 1.409 . S
C923 H915 0.930 . S
C923 C924 1.355 . S
C923 C925 1.415 . S
C924 C923 1.355 . S
C924 C926 1.419 . S
C925 C920 1.425 . S
C925 C922 1.409 . S
C925 C923 1.415 . S
C926 H916 0.930 . S
C926 C924 1.419 . S
C926 C927 1.362 . S
C927 H917 0.930 . S
C927 C920 1.409 . S
C927 C926 1.362 . S
H928 C934 0.930 . S
H929 C937 0.930 . S
H930 C938 0.930 . S
H931 C939 0.930 . S
H932 C942 0.930 . S
H933 C943 0.930 . S
C934 H928 0.930 . S
C934 C935 1.355 . S
C934 C936 1.415 . S
C935 C934 1.355 . S
C935 C937 1.419 . S
C936 C934 1.415 . S
C936 C941 1.425 . S
C936 C943 1.409 . S
C937 H929 0.930 . S
C937 C935 1.419 . S
C937 C938 1.362 . S
C938 H930 0.930 . S
C938 C937 1.362 . S
C938 C941 1.409 . S
C939 H931 0.930 . S
C939 C940 1.355 . S
C939 C941 1.415 . S
C940 C939 1.355 . S
C940 C942 1.419 . S
C941 C936 1.425 . S
C941 C938 1.409 . S
C941 C939 1.415 . S
C942 H932 0.930 . S
C942 C940 1.419 . S
C942 C943 1.362 . S
C943 H933 0.930 . S
C943 C936 1.409 . S
C943 C942 1.362 . S
H944 C950 0.930 . S
H945 C953 0.930 1_554 S
H946 C954 0.930 . S
H947 C955 0.930 . S
H948 C958 0.930 . S
H949 C959 0.930 . S
C950 H944 0.930 . S
C950 C951 1.355 . S
C950 C952 1.415 . S
C951 C950 1.355 . S
C951 C953 1.419 . S
C952 C950 1.415 . S
C952 C957 1.425 . S
C952 C959 1.409 . S
C953 H945 0.930 1_556 S
C953 C951 1.419 . S
C953 C954 1.362 . S
C954 H946 0.930 . S
C954 C953 1.362 . S
C954 C957 1.409 . S
C955 H947 0.930 . S
C955 C956 1.355 . S
C955 C957 1.415 . S
C956 C955 1.355 . S
C956 C958 1.419 . S
C957 C952 1.425 . S
C957 C954 1.409 . S
C957 C955 1.415 . S
C958 H948 0.930 . S
C958 C956 1.419 . S
C958 C959 1.362 . S
C959 H949 0.930 . S
C959 C952 1.409 . S
C959 C958 1.362 . S
H960 C966 0.930 . S
H961 C969 0.930 . S
H962 C970 0.930 . S
H963 C971 0.930 . S
H964 C974 0.930 . S
H965 C975 0.930 . S
C966 H960 0.930 . S
C966 C967 1.355 . S
C966 C968 1.415 . S
C967 C966 1.355 . S
C967 C969 1.419 . S
C968 C966 1.415 . S
C968 C973 1.425 . S
C968 C975 1.409 . S
C969 H961 0.930 . S
C969 C967 1.419 . S
C969 C970 1.362 . S
C970 H962 0.930 . S
C970 C969 1.362 . S
C970 C973 1.409 . S
C971 H963 0.930 . S
C971 C972 1.355 . S
C971 C973 1.415 . S
C972 C971 1.355 . S
C972 C974 1.419 . S
C973 C968 1.425 . S
C973 C970 1.409 . S
C973 C971 1.415 . S
C974 H964 0.930 . S
C974 C972 1.419 . S
C974 C975 1.362 . S
C975 H965 0.930 . S
C975 C968 1.409 . S
C975 C974 1.362 . S
H976 C982 0.930 . S
H977 C985 0.930 . S
H978 C986 0.930 . S
H979 C987 0.930 . S
H980 C990 0.930 1_655 S
H981 C991 0.930 . S
C982 H976 0.930 . S
C982 C983 1.355 . S
C982 C984 1.415 . S
C983 C982 1.355 . S
C983 C985 1.419 . S
C984 C982 1.415 . S
C984 C989 1.425 . S
C984 C991 1.409 . S
C985 H977 0.930 . S
C985 C983 1.419 . S
C985 C986 1.362 . S
C986 H978 0.930 . S
C986 C985 1.362 . S
C986 C989 1.409 . S
C987 H979 0.930 . S
C987 C988 1.355 . S
C987 C989 1.415 . S
C988 C987 1.355 . S
C988 C990 1.419 . S
C989 C984 1.425 . S
C989 C986 1.409 . S
C989 C987 1.415 . S
C990 H980 0.930 1_455 S
C990 C988 1.419 . S
C990 C991 1.362 . S
C991 H981 0.930 . S
C991 C984 1.409 . S
C991 C990 1.362 . S
H992 C998 0.930 . S
H993 C1001 0.930 . S
H994 C1002 0.930 . S
H995 C1003 0.930 . S
H996 C1006 0.930 . S
H997 C1007 0.930 . S
C998 H992 0.930 . S
C998 C999 1.355 . S
C998 C1000 1.415 . S
C999 C998 1.355 . S
C999 C1001 1.419 . S
C1000 C998 1.415 . S
C1000 C1005 1.425 . S
C1000 C1007 1.409 . S
C1001 H993 0.930 . S
C1001 C999 1.419 . S
C1001 C1002 1.362 . S
C1002 H994 0.930 . S
C1002 C1001 1.362 . S
C1002 C1005 1.409 . S
C1003 H995 0.930 . S
C1003 C1004 1.355 . S
C1003 C1005 1.415 . S
C1004 C1003 1.355 . S
C1004 C1006 1.419 . S
C1005 C1000 1.425 . S
C1005 C1002 1.409 . S
C1005 C1003 1.415 . S
C1006 H996 0.930 . S
C1006 C1004 1.419 . S
C1006 C1007 1.362 . S
C1007 H997 0.930 . S
C1007 C1000 1.409 . S
C1007 C1006 1.362 . S
H1008 C1014 0.930 . S
H1009 C1017 0.930 . S
H1010 C1018 0.930 . S
H1011 C1019 0.930 . S
H1012 C1022 0.930 . S
H1013 C1023 0.930 . S
C1014 H1008 0.930 . S
C1014 C1015 1.355 . S
C1014 C1016 1.415 . S
C1015 C1014 1.355 . S
C1015 C1017 1.419 . S
C1016 C1014 1.415 . S
C1016 C1021 1.425 . S
C1016 C1023 1.409 . S
C1017 H1009 0.930 . S
C1017 C1015 1.419 . S
C1017 C1018 1.362 . S
C1018 H1010 0.930 . S
C1018 C1017 1.362 . S
C1018 C1021 1.409 . S
C1019 H1011 0.930 . S
C1019 C1020 1.355 . S
C1019 C1021 1.415 . S
C1020 C1019 1.355 . S
C1020 C1022 1.419 . S
C1021 C1016 1.425 . S
C1021 C1018 1.409 . S
C1021 C1019 1.415 . S
C1022 H1012 0.930 . S
C1022 C1020 1.419 . S
C1022 C1023 1.362 . S
C1023 H1013 0.930 . S
C1023 C1016 1.409 . S
C1023 C1022 1.362 . S
H1024 C1030 0.930 . S
H1025 C1033 0.930 1_455 S
H1026 C1034 0.930 . S
H1027 C1035 0.930 . S
H1028 C1038 0.930 . S
H1029 C1039 0.930 . S
C1030 H1024 0.930 . S
C1030 C1031 1.355 . S
C1030 C1032 1.415 . S
C1031 C1030 1.355 . S
C1031 C1033 1.419 . S
C1032 C1030 1.415 . S
C1032 C1037 1.425 . S
C1032 C1039 1.409 . S
C1033 H1025 0.930 1_655 S
C1033 C1031 1.419 . S
C1033 C1034 1.362 . S
C1034 H1026 0.930 . S
C1034 C1033 1.362 . S
C1034 C1037 1.409 . S
C1035 H1027 0.930 . S
C1035 C1036 1.355 . S
C1035 C1037 1.415 . S
C1036 C1035 1.355 . S
C1036 C1038 1.419 . S
C1037 C1032 1.425 . S
C1037 C1034 1.409 . S
C1037 C1035 1.415 . S
C1038 H1028 0.930 . S
C1038 C1036 1.419 . S
C1038 C1039 1.362 . S
C1039 H1029 0.930 . S
C1039 C1032 1.409 . S
C1039 C1038 1.362 . S
H1040 C1046 0.930 . S
H1041 C1049 0.930 . S
H1042 C1050 0.930 . S
H1043 C1051 0.930 . S
H1044 C1054 0.930 . S
H1045 C1055 0.930 . S
C1046 H1040 0.930 . S
C1046 C1047 1.355 . S
C1046 C1048 1.415 . S
C1047 C1046 1.355 . S
C1047 C1049 1.419 . S
C1048 C1046 1.415 . S
C1048 C1053 1.425 . S
C1048 C1055 1.409 . S
C1049 H1041 0.930 . S
C1049 C1047 1.419 . S
C1049 C1050 1.362 . S
C1050 H1042 0.930 . S
C1050 C1049 1.362 . S
C1050 C1053 1.409 . S
C1051 H1043 0.930 . S
C1051 C1052 1.355 . S
C1051 C1053 1.415 . S
C1052 C1051 1.355 . S
C1052 C1054 1.419 . S
C1053 C1048 1.425 . S
C1053 C1050 1.409 . S
C1053 C1051 1.415 . S
C1054 H1044 0.930 . S
C1054 C1052 1.419 . S
C1054 C1055 1.362 . S
C1055 H1045 0.930 . S
C1055 C1048 1.409 . S
C1055 C1054 1.362 . S
H1056 C1062 0.930 . S
H1057 C1065 0.930 . S
H1058 C1066 0.930 . S
H1059 C1067 0.930 . S
H1060 C1070 0.930 . S
H1061 C1071 0.930 . S
C1062 H1056 0.930 . S
C1062 C1063 1.355 . S
C1062 C1064 1.415 . S
C1063 C1062 1.355 . S
C1063 C1065 1.419 . S
C1064 C1062 1.415 . S
C1064 C1069 1.425 . S
C1064 C1071 1.409 . S
C1065 H1057 0.930 . S
C1065 C1063 1.419 . S
C1065 C1066 1.362 . S
C1066 H1058 0.930 . S
C1066 C1065 1.362 . S
C1066 C1069 1.409 . S
C1067 H1059 0.930 . S
C1067 C1068 1.355 . S
C1067 C1069 1.415 . S
C1068 C1067 1.355 . S
C1068 C1070 1.419 . S
C1069 C1064 1.425 . S
C1069 C1066 1.409 . S
C1069 C1067 1.415 . S
C1070 H1060 0.930 . S
C1070 C1068 1.419 . S
C1070 C1071 1.362 . S
C1071 H1061 0.930 . S
C1071 C1064 1.409 . S
C1071 C1070 1.362 . S
H1072 C1078 0.930 . S
H1073 C1081 0.930 . S
H1074 C1082 0.930 . S
H1075 C1083 0.930 . S
H1076 C1086 0.930 . S
H1077 C1087 0.930 . S
C1078 H1072 0.930 . S
C1078 C1079 1.355 . S
C1078 C1080 1.415 . S
C1079 C1078 1.355 . S
C1079 C1081 1.419 . S
C1080 C1078 1.415 . S
C1080 C1085 1.425 . S
C1080 C1087 1.409 . S
C1081 H1073 0.930 . S
C1081 C1079 1.419 . S
C1081 C1082 1.362 . S
C1082 H1074 0.930 . S
C1082 C1081 1.362 . S
C1082 C1085 1.409 . S
C1083 H1075 0.930 . S
C1083 C1084 1.355 . S
C1083 C1085 1.415 . S
C1084 C1083 1.355 . S
C1084 C1086 1.419 . S
C1085 C1080 1.425 . S
C1085 C1082 1.409 . S
C1085 C1083 1.415 . S
C1086 H1076 0.930 . S
C1086 C1084 1.419 . S
C1086 C1087 1.362 . S
C1087 H1077 0.930 . S
C1087 C1080 1.409 . S
C1087 C1086 1.362 . S
H1088 C1094 0.930 . S
H1089 C1097 0.930 . S
H1090 C1098 0.930 . S
H1091 C1099 0.930 . S
H1092 C1102 0.930 . S
H1093 C1103 0.930 . S
C1094 H1088 0.930 . S
C1094 C1095 1.355 . S
C1094 C1096 1.415 . S
C1095 C1094 1.355 . S
C1095 C1097 1.419 . S
C1096 C1094 1.415 . S
C1096 C1101 1.425 . S
C1096 C1103 1.409 . S
C1097 H1089 0.930 . S
C1097 C1095 1.419 . S
C1097 C1098 1.362 . S
C1098 H1090 0.930 . S
C1098 C1097 1.362 . S
C1098 C1101 1.409 . S
C1099 H1091 0.930 . S
C1099 C1100 1.355 . S
C1099 C1101 1.415 . S
C1100 C1099 1.355 . S
C1100 C1102 1.419 . S
C1101 C1096 1.425 . S
C1101 C1098 1.409 . S
C1101 C1099 1.415 . S
C1102 H1092 0.930 . S
C1102 C1100 1.419 . S
C1102 C1103 1.362 . S
C1103 H1093 0.930 . S
C1103 C1096 1.409 . S
C1103 C1102 1.362 . S
H1104 C1110 0.930 . S
H1105 C1113 0.930 . S
H1106 C1114 0.930 . S
H1107 C1115 0.930 . S
H1108 C1118 0.942 . S
H1109 C1119 0.930 . S
C1110 H1104 0.930 . S
C1110 C1111 1.355 . S
C1110 C1112 1.415 . S
C1111 C1110 1.355 . S
C1111 C1113 1.419 . S
C1112 C1110 1.415 . S
C1112 C1117 1.425 . S
C1112 C1119 1.409 . S
C1113 H1105 0.930 . S
C1113 C1111 1.419 . S
C1113 C1114 1.362 . S
C1114 H1106 0.930 . S
C1114 C1113 1.362 . S
C1114 C1117 1.409 . S
C1115 H1107 0.930 . S
C1115 C1116 1.355 . S
C1115 C1117 1.415 . S
C1116 C1115 1.355 . S
C1116 C1118 1.419 . S
C1117 C1112 1.425 . S
C1117 C1114 1.409 . S
C1117 C1115 1.415 . S
C1118 H1108 0.942 . S
C1118 C1116 1.419 . S
C1118 C1119 1.362 . S
C1119 H1109 0.930 . S
C1119 C1112 1.409 . S
C1119 C1118 1.362 . S
H1120 C1126 0.930 . S
H1121 C1129 0.930 . S
H1122 C1130 0.930 . S
H1123 C1131 0.930 . S
H1124 C1134 0.930 . S
H1125 C1135 0.930 . S
C1126 H1120 0.930 . S
C1126 C1127 1.355 . S
C1126 C1128 1.415 . S
C1127 C1126 1.355 . S
C1127 C1129 1.419 . S
C1128 C1126 1.415 . S
C1128 C1133 1.425 . S
C1128 C1135 1.409 . S
C1129 H1121 0.930 . S
C1129 C1127 1.419 . S
C1129 C1130 1.362 . S
C1130 H1122 0.930 . S
C1130 C1129 1.362 . S
C1130 C1133 1.409 . S
C1131 H1123 0.930 . S
C1131 C1132 1.355 . S
C1131 C1133 1.415 . S
C1132 C1131 1.355 . S
C1132 C1134 1.419 . S
C1133 C1128 1.425 . S
C1133 C1130 1.409 . S
C1133 C1131 1.415 . S
C1134 H1124 0.930 . S
C1134 C1132 1.419 . S
C1134 C1135 1.362 . S
C1135 H1125 0.930 . S
C1135 C1128 1.409 . S
C1135 C1134 1.362 . S
H1136 C1142 0.930 . S
H1137 C1145 0.930 . S
H1138 C1146 0.930 . S
H1139 C1147 0.930 . S
H1140 C1150 0.930 . S
H1141 C1151 0.930 . S
C1142 H1136 0.930 . S
C1142 C1143 1.355 . S
C1142 C1144 1.415 . S
C1143 C1142 1.355 . S
C1143 C1145 1.419 . S
C1144 C1142 1.415 . S
C1144 C1149 1.425 . S
C1144 C1151 1.409 . S
C1145 H1137 0.930 . S
C1145 C1143 1.419 . S
C1145 C1146 1.362 . S
C1146 H1138 0.930 . S
C1146 C1145 1.362 . S
C1146 C1149 1.409 . S
C1147 H1139 0.930 . S
C1147 C1148 1.355 . S
C1147 C1149 1.415 . S
C1148 C1147 1.355 . S
C1148 C1150 1.419 . S
C1149 C1144 1.425 . S
C1149 C1146 1.409 . S
C1149 C1147 1.415 . S
C1150 H1140 0.930 . S
C1150 C1148 1.419 . S
C1150 C1151 1.362 . S
C1151 H1141 0.930 . S
C1151 C1144 1.409 . S
C1151 C1150 1.362 . S
H1152 C1158 0.930 . S
H1153 C1161 0.930 . S
H1154 C1162 0.930 . S
H1155 C1163 0.930 . S
H1156 C1166 0.930 . S
H1157 C1167 0.930 . S
C1158 H1152 0.930 . S
C1158 C1159 1.355 . S
C1158 C1160 1.415 . S
C1159 C1158 1.355 . S
C1159 C1161 1.419 . S
C1160 C1158 1.415 . S
C1160 C1165 1.425 . S
C1160 C1167 1.409 . S
C1161 H1153 0.930 . S
C1161 C1159 1.419 . S
C1161 C1162 1.362 . S
C1162 H1154 0.930 . S
C1162 C1161 1.362 . S
C1162 C1165 1.409 . S
C1163 H1155 0.930 . S
C1163 C1164 1.355 . S
C1163 C1165 1.415 . S
C1164 C1163 1.355 . S
C1164 C1166 1.419 . S
C1165 C1160 1.425 . S
C1165 C1162 1.409 . S
C1165 C1163 1.415 . S
C1166 H1156 0.930 . S
C1166 C1164 1.419 . S
C1166 C1167 1.362 . S
C1167 H1157 0.930 . S
C1167 C1160 1.409 . S
C1167 C1166 1.362 . S
H1168 C1174 0.930 . S
H1169 C1177 0.905 1_455 S
H1170 C1178 0.930 . S
H1171 C1179 0.930 . S
H1172 C1182 0.930 . S
H1173 C1183 0.930 . S
C1174 H1168 0.930 . S
C1174 C1175 1.355 . S
C1174 C1176 1.415 . S
C1175 C1174 1.355 . S
C1175 C1177 1.419 . S
C1176 C1174 1.415 . S
C1176 C1181 1.425 . S
C1176 C1183 1.409 . S
C1177 H1169 0.905 1_655 S
C1177 C1175 1.419 . S
C1177 C1178 1.362 . S
C1178 H1170 0.930 . S
C1178 C1177 1.362 . S
C1178 C1181 1.409 . S
C1179 H1171 0.930 . S
C1179 C1180 1.355 . S
C1179 C1181 1.415 . S
C1180 C1179 1.355 . S
C1180 C1182 1.419 . S
C1181 C1176 1.425 . S
C1181 C1178 1.409 . S
C1181 C1179 1.415 . S
C1182 H1172 0.930 . S
C1182 C1180 1.419 . S
C1182 C1183 1.362 . S
C1183 H1173 0.930 . S
C1183 C1176 1.409 . S
C1183 C1182 1.362 . S
H1184 C1190 0.930 . S
H1185 C1193 0.930 . S
H1186 C1194 0.930 . S
H1187 C1195 0.930 . S
H1188 C1198 0.930 . S
H1189 C1199 0.930 . S
C1190 H1184 0.930 . S
C1190 C1191 1.355 . S
C1190 C1192 1.415 . S
C1191 C1190 1.355 . S
C1191 C1193 1.419 . S
C1192 C1190 1.415 . S
C1192 C1197 1.425 . S
C1192 C1199 1.409 . S
C1193 H1185 0.930 . S
C1193 C1191 1.419 . S
C1193 C1194 1.362 . S
C1194 H1186 0.930 . S
C1194 C1193 1.362 . S
C1194 C1197 1.409 . S
C1195 H1187 0.930 . S
C1195 C1196 1.355 . S
C1195 C1197 1.415 . S
C1196 C1195 1.355 . S
C1196 C1198 1.419 . S
C1197 C1192 1.425 . S
C1197 C1194 1.409 . S
C1197 C1195 1.415 . S
C1198 H1188 0.930 . S
C1198 C1196 1.419 . S
C1198 C1199 1.362 . S
C1199 H1189 0.930 . S
C1199 C1192 1.409 . S
C1199 C1198 1.362 . S
H1200 C1206 0.930 . S
H1201 C1209 0.930 . S
H1202 C1210 0.930 . S
H1203 C1211 0.930 . S
H1204 C1214 0.930 . S
H1205 C1215 0.930 . S
C1206 H1200 0.930 . S
C1206 C1207 1.355 . S
C1206 C1208 1.415 . S
C1207 C1206 1.355 . S
C1207 C1209 1.419 . S
C1208 C1206 1.415 . S
C1208 C1213 1.425 . S
C1208 C1215 1.409 . S
C1209 H1201 0.930 . S
C1209 C1207 1.419 . S
C1209 C1210 1.362 . S
C1210 H1202 0.930 . S
C1210 C1209 1.362 . S
C1210 C1213 1.409 . S
C1211 H1203 0.930 . S
C1211 C1212 1.355 . S
C1211 C1213 1.415 . S
C1212 C1211 1.355 . S
C1212 C1214 1.419 . S
C1213 C1208 1.425 . S
C1213 C1210 1.409 . S
C1213 C1211 1.415 . S
C1214 H1204 0.930 . S
C1214 C1212 1.419 . S
C1214 C1215 1.362 . S
C1215 H1205 0.930 . S
C1215 C1208 1.409 . S
C1215 C1214 1.362 . S
H1216 C1222 0.930 . S
H1217 C1225 0.930 . S
H1218 C1226 0.930 . S
H1219 C1227 0.930 . S
H1220 C1230 0.930 . S
H1221 C1231 0.930 . S
C1222 H1216 0.930 . S
C1222 C1223 1.355 . S
C1222 C1224 1.415 . S
C1223 C1222 1.355 . S
C1223 C1225 1.419 . S
C1224 C1222 1.415 . S
C1224 C1229 1.425 . S
C1224 C1231 1.409 . S
C1225 H1217 0.930 . S
C1225 C1223 1.419 . S
C1225 C1226 1.362 . S
C1226 H1218 0.930 . S
C1226 C1225 1.362 . S
C1226 C1229 1.409 . S
C1227 H1219 0.930 . S
C1227 C1228 1.355 . S
C1227 C1229 1.415 . S
C1228 C1227 1.355 . S
C1228 C1230 1.419 . S
C1229 C1224 1.425 . S
C1229 C1226 1.409 . S
C1229 C1227 1.415 . S
C1230 H1220 0.930 . S
C1230 C1228 1.419 . S
C1230 C1231 1.362 . S
C1231 H1221 0.930 . S
C1231 C1224 1.409 . S
C1231 C1230 1.362 . S
H1232 C1238 0.930 . S
H1233 C1241 0.930 1_545 S
H1234 C1242 0.930 . S
H1235 C1243 0.930 . S
H1236 C1246 0.930 . S
H1237 C1247 0.930 . S
C1238 H1232 0.930 . S
C1238 C1239 1.355 . S
C1238 C1240 1.415 . S
C1239 C1238 1.355 . S
C1239 C1241 1.419 . S
C1240 C1238 1.415 . S
C1240 C1245 1.425 . S
C1240 C1247 1.409 . S
C1241 H1233 0.930 1_565 S
C1241 C1239 1.419 . S
C1241 C1242 1.362 . S
C1242 H1234 0.930 . S
C1242 C1241 1.362 . S
C1242 C1245 1.409 . S
C1243 H1235 0.930 . S
C1243 C1244 1.355 . S
C1243 C1245 1.415 . S
C1244 C1243 1.355 . S
C1244 C1246 1.419 . S
C1245 C1240 1.425 . S
C1245 C1242 1.409 . S
C1245 C1243 1.415 . S
C1246 H1236 0.930 . S
C1246 C1244 1.419 . S
C1246 C1247 1.362 . S
C1247 H1237 0.930 . S
C1247 C1240 1.409 . S
C1247 C1246 1.362 . S
H1248 C1254 0.930 . S
H1249 C1257 0.930 . S
H1250 C1258 0.930 . S
H1251 C1259 0.930 . S
H1252 C1262 0.930 . S
H1253 C1263 0.930 . S
C1254 H1248 0.930 . S
C1254 C1255 1.355 . S
C1254 C1256 1.415 . S
C1255 C1254 1.355 . S
C1255 C1257 1.419 . S
C1256 C1254 1.415 . S
C1256 C1261 1.425 . S
C1256 C1263 1.409 . S
C1257 H1249 0.930 . S
C1257 C1255 1.419 . S
C1257 C1258 1.362 . S
C1258 H1250 0.930 . S
C1258 C1257 1.362 . S
C1258 C1261 1.409 . S
C1259 H1251 0.930 . S
C1259 C1260 1.355 . S
C1259 C1261 1.415 . S
C1260 C1259 1.355 . S
C1260 C1262 1.419 . S
C1261 C1256 1.425 . S
C1261 C1258 1.409 . S
C1261 C1259 1.415 . S
C1262 H1252 0.930 . S
C1262 C1260 1.419 . S
C1262 C1263 1.362 . S
C1263 H1253 0.930 . S
C1263 C1256 1.409 . S
C1263 C1262 1.362 . S
H1264 C1270 0.930 . S
H1265 C1273 0.930 . S
H1266 C1274 0.930 . S
H1267 C1275 0.930 . S
H1268 C1278 0.930 . S
H1269 C1279 0.930 . S
C1270 H1264 0.930 . S
C1270 C1271 1.355 . S
C1270 C1272 1.415 . S
C1271 C1270 1.355 . S
C1271 C1273 1.419 . S
C1272 C1270 1.415 . S
C1272 C1277 1.425 . S
C1272 C1279 1.409 . S
C1273 H1265 0.930 . S
C1273 C1271 1.419 . S
C1273 C1274 1.362 . S
C1274 H1266 0.930 . S
C1274 C1273 1.362 . S
C1274 C1277 1.409 . S
C1275 H1267 0.930 . S
C1275 C1276 1.355 . S
C1275 C1277 1.415 . S
C1276 C1275 1.355 . S
C1276 C1278 1.419 . S
C1277 C1272 1.425 . S
C1277 C1274 1.409 . S
C1277 C1275 1.415 . S
C1278 H1268 0.930 . S
C1278 C1276 1.419 . S
C1278 C1279 1.362 . S
C1279 H1269 0.930 . S
C1279 C1272 1.409 . S
C1279 C1278 1.362 . S
H1280 C1286 0.930 . S
H1281 C1289 0.930 . S
H1282 C1290 0.930 . S
H1283 C1291 0.930 . S
H1284 C1294 0.930 . S
H1285 C1295 0.930 . S
C1286 H1280 0.930 . S
C1286 C1287 1.355 . S
C1286 C1288 1.415 . S
C1287 C1286 1.355 . S
C1287 C1289 1.419 . S
C1288 C1286 1.415 . S
C1288 C1293 1.425 . S
C1288 C1295 1.409 . S
C1289 H1281 0.930 . S
C1289 C1287 1.419 . S
C1289 C1290 1.362 . S
C1290 H1282 0.930 . S
C1290 C1289 1.362 . S
C1290 C1293 1.409 . S
C1291 H1283 0.930 . S
C1291 C1292 1.355 . S
C1291 C1293 1.415 . S
C1292 C1291 1.355 . S
C1292 C1294 1.419 . S
C1293 C1288 1.425 . S
C1293 C1290 1.409 . S
C1293 C1291 1.415 . S
C1294 H1284 0.930 . S
C1294 C1292 1.419 . S
C1294 C1295 1.362 . S
C1295 H1285 0.930 . S
C1295 C1288 1.409 . S
C1295 C1294 1.362 . S
H1296 C1302 0.930 . S
H1297 C1305 0.930 . S
H1298 C1306 0.930 . S
H1299 C1307 0.930 . S
H1300 C1310 0.930 . S
H1301 C1311 0.930 . S
C1302 H1296 0.930 . S
C1302 C1303 1.355 . S
C1302 C1304 1.415 . S
C1303 C1302 1.355 . S
C1303 C1305 1.419 . S
C1304 C1302 1.415 . S
C1304 C1309 1.425 . S
C1304 C1311 1.409 . S
C1305 H1297 0.930 . S
C1305 C1303 1.419 . S
C1305 C1306 1.362 . S
C1306 H1298 0.930 . S
C1306 C1305 1.362 . S
C1306 C1309 1.409 . S
C1307 H1299 0.930 . S
C1307 C1308 1.355 . S
C1307 C1309 1.415 . S
C1308 C1307 1.355 . S
C1308 C1310 1.419 . S
C1309 C1304 1.425 . S
C1309 C1306 1.409 . S
C1309 C1307 1.415 . S
C1310 H1300 0.930 . S
C1310 C1308 1.419 . S
C1310 C1311 1.362 . S
C1311 H1301 0.930 . S
C1311 C1304 1.409 . S
C1311 C1310 1.362 . S
H1312 C1318 0.930 . S
H1313 C1321 0.930 . S
H1314 C1322 0.930 . S
H1315 C1323 0.930 . S
H1316 C1326 0.930 . S
H1317 C1327 0.930 . S
C1318 H1312 0.930 . S
C1318 C1319 1.355 . S
C1318 C1320 1.415 . S
C1319 C1318 1.355 . S
C1319 C1321 1.419 . S
C1320 C1318 1.415 . S
C1320 C1325 1.425 . S
C1320 C1327 1.409 . S
C1321 H1313 0.930 . S
C1321 C1319 1.419 . S
C1321 C1322 1.362 . S
C1322 H1314 0.930 . S
C1322 C1321 1.362 . S
C1322 C1325 1.409 . S
C1323 H1315 0.930 . S
C1323 C1324 1.355 . S
C1323 C1325 1.415 . S
C1324 C1323 1.355 . S
C1324 C1326 1.419 . S
C1325 C1320 1.425 . S
C1325 C1322 1.409 . S
C1325 C1323 1.415 . S
C1326 H1316 0.930 . S
C1326 C1324 1.419 . S
C1326 C1327 1.362 . S
C1327 H1317 0.930 . S
C1327 C1320 1.409 . S
C1327 C1326 1.362 . S
H1328 C1334 0.930 . S
H1329 C1337 0.930 . S
H1330 C1338 0.930 . S
H1331 C1339 0.930 . S
H1332 C1342 0.930 . S
H1333 C1343 0.930 . S
C1334 H1328 0.930 . S
C1334 C1335 1.355 . S
C1334 C1336 1.415 . S
C1335 C1334 1.355 . S
C1335 C1337 1.419 . S
C1336 C1334 1.415 . S
C1336 C1341 1.425 . S
C1336 C1343 1.409 . S
C1337 H1329 0.930 . S
C1337 C1335 1.419 . S
C1337 C1338 1.362 . S
C1338 H1330 0.930 . S
C1338 C1337 1.362 . S
C1338 C1341 1.409 . S
C1339 H1331 0.930 . S
C1339 C1340 1.355 . S
C1339 C1341 1.415 . S
C1340 C1339 1.355 . S
C1340 C1342 1.419 . S
C1341 C1336 1.425 . S
C1341 C1338 1.409 . S
C1341 C1339 1.415 . S
C1342 H1332 0.930 . S
C1342 C1340 1.419 . S
C1342 C1343 1.362 . S
C1343 H1333 0.930 . S
C1343 C1336 1.409 . S
C1343 C1342 1.362 . S
H1344 C1350 0.930 . S
H1345 C1353 0.930 . S
H1346 C1354 0.930 . S
H1347 C1355 0.930 . S
H1348 C1358 0.930 . S
H1349 C1359 0.930 . S
C1350 H1344 0.930 . S
C1350 C1351 1.355 . S
C1350 C1352 1.415 . S
C1351 C1350 1.355 . S
C1351 C1353 1.419 . S
C1352 C1350 1.415 . S
C1352 C1357 1.425 . S
C1352 C1359 1.409 . S
C1353 H1345 0.930 . S
C1353 C1351 1.419 . S
C1353 C1354 1.362 . S
C1354 H1346 0.930 . S
C1354 C1353 1.362 . S
C1354 C1357 1.409 . S
C1355 H1347 0.930 . S
C1355 C1356 1.355 . S
C1355 C1357 1.415 . S
C1356 C1355 1.355 . S
C1356 C1358 1.419 . S
C1357 C1352 1.425 . S
C1357 C1354 1.409 . S
C1357 C1355 1.415 . S
C1358 H1348 0.930 . S
C1358 C1356 1.419 . S
C1358 C1359 1.362 . S
C1359 H1349 0.930 . S
C1359 C1352 1.409 . S
C1359 C1358 1.362 . S
H1360 C1366 0.930 . S
H1361 C1369 0.930 . S
H1362 C1370 0.930 . S
H1363 C1371 0.930 . S
H1364 C1374 0.930 . S
H1365 C1375 0.930 . S
C1366 H1360 0.930 . S
C1366 C1367 1.355 . S
C1366 C1368 1.415 . S
C1367 C1366 1.355 . S
C1367 C1369 1.419 . S
C1368 C1366 1.415 . S
C1368 C1373 1.425 . S
C1368 C1375 1.409 . S
C1369 H1361 0.930 . S
C1369 C1367 1.419 . S
C1369 C1370 1.362 . S
C1370 H1362 0.930 . S
C1370 C1369 1.362 . S
C1370 C1373 1.409 . S
C1371 H1363 0.930 . S
C1371 C1372 1.355 . S
C1371 C1373 1.415 . S
C1372 C1371 1.355 . S
C1372 C1374 1.419 . S
C1373 C1368 1.425 . S
C1373 C1370 1.409 . S
C1373 C1371 1.415 . S
C1374 H1364 0.930 . S
C1374 C1372 1.419 . S
C1374 C1375 1.362 . S
C1375 H1365 0.930 . S
C1375 C1368 1.409 . S
C1375 C1374 1.362 . S
H1376 C1382 0.930 . S
H1377 C1385 0.930 . S
H1378 C1386 0.930 . S
H1379 C1387 0.930 . S
H1380 C1390 0.930 . S
H1381 C1391 0.930 . S
C1382 H1376 0.930 . S
C1382 C1383 1.355 . S
C1382 C1384 1.415 . S
C1383 C1382 1.355 . S
C1383 C1385 1.419 . S
C1384 C1382 1.415 . S
C1384 C1389 1.425 . S
C1384 C1391 1.409 . S
C1385 H1377 0.930 . S
C1385 C1383 1.419 . S
C1385 C1386 1.362 . S
C1386 H1378 0.930 . S
C1386 C1385 1.362 . S
C1386 C1389 1.409 . S
C1387 H1379 0.930 . S
C1387 C1388 1.355 . S
C1387 C1389 1.415 . S
C1388 C1387 1.355 . S
C1388 C1390 1.419 . S
C1389 C1384 1.425 . S
C1389 C1386 1.409 . S
C1389 C1387 1.415 . S
C1390 H1380 0.930 . S
C1390 C1388 1.419 . S
C1390 C1391 1.362 . S
C1391 H1381 0.930 . S
C1391 C1384 1.409 . S
C1391 C1390 1.362 . S
H1392 C1398 0.930 . S
H1393 C1401 0.930 . S
H1394 C1402 0.930 . S
H1395 C1403 0.930 . S
H1396 C1406 0.930 . S
H1397 C1407 0.930 . S
C1398 H1392 0.930 . S
C1398 C1399 1.355 . S
C1398 C1400 1.415 . S
C1399 C1398 1.355 . S
C1399 C1401 1.419 . S
C1400 C1398 1.415 . S
C1400 C1405 1.425 . S
C1400 C1407 1.409 . S
C1401 H1393 0.930 . S
C1401 C1399 1.419 . S
C1401 C1402 1.362 . S
C1402 H1394 0.930 . S
C1402 C1401 1.362 . S
C1402 C1405 1.409 . S
C1403 H1395 0.930 . S
C1403 C1404 1.355 . S
C1403 C1405 1.415 . S
C1404 C1403 1.355 . S
C1404 C1406 1.419 . S
C1405 C1400 1.425 . S
C1405 C1402 1.409 . S
C1405 C1403 1.415 . S
C1406 H1396 0.930 . S
C1406 C1404 1.419 . S
C1406 C1407 1.362 . S
C1407 H1397 0.930 . S
C1407 C1400 1.409 . S
C1407 C1406 1.362 . S
H1408 C1414 0.930 . S
H1409 C1417 0.930 . S
H1410 C1418 0.930 . S
H1411 C1419 0.930 . S
H1412 C1422 0.930 . S
H1413 C1423 0.930 . S
C1414 H1408 0.930 . S
C1414 C1415 1.355 . S
C1414 C1416 1.415 . S
C1415 C1414 1.355 . S
C1415 C1417 1.419 . S
C1416 C1414 1.415 . S
C1416 C1421 1.425 . S
C1416 C1423 1.409 . S
C1417 H1409 0.930 . S
C1417 C1415 1.419 . S
C1417 C1418 1.362 . S
C1418 H1410 0.930 . S
C1418 C1417 1.362 . S
C1418 C1421 1.409 . S
C1419 H1411 0.930 . S
C1419 C1420 1.355 . S
C1419 C1421 1.415 . S
C1420 C1419 1.355 . S
C1420 C1422 1.419 . S
C1421 C1416 1.425 . S
C1421 C1418 1.409 . S
C1421 C1419 1.415 . S
C1422 H1412 0.930 . S
C1422 C1420 1.419 . S
C1422 C1423 1.362 . S
C1423 H1413 0.930 . S
C1423 C1416 1.409 . S
C1423 C1422 1.362 . S
H1424 C1430 0.930 . S
H1425 C1433 0.930 . S
H1426 C1434 0.930 . S
H1427 C1435 0.930 . S
H1428 C1438 0.930 . S
H1429 C1439 0.930 . S
C1430 H1424 0.930 . S
C1430 C1431 1.355 . S
C1430 C1432 1.415 . S
C1431 C1430 1.355 . S
C1431 C1433 1.419 . S
C1432 C1430 1.415 . S
C1432 C1437 1.425 . S
C1432 C1439 1.409 . S
C1433 H1425 0.930 . S
C1433 C1431 1.419 . S
C1433 C1434 1.362 . S
C1434 H1426 0.930 . S
C1434 C1433 1.362 . S
C1434 C1437 1.409 . S
C1435 H1427 0.930 . S
C1435 C1436 1.355 . S
C1435 C1437 1.415 . S
C1436 C1435 1.355 . S
C1436 C1438 1.419 . S
C1437 C1432 1.425 . S
C1437 C1434 1.409 . S
C1437 C1435 1.415 . S
C1438 H1428 0.930 . S
C1438 C1436 1.419 . S
C1438 C1439 1.362 . S
C1439 H1429 0.930 . S
C1439 C1432 1.409 . S
C1439 C1438 1.362 . S
H1440 C1446 0.930 . S
H1441 C1449 0.930 . S
H1442 C1450 0.930 . S
H1443 C1451 0.930 . S
H1444 C1454 0.930 . S
H1445 C1455 0.930 . S
C1446 H1440 0.930 . S
C1446 C1447 1.355 . S
C1446 C1448 1.415 . S
C1447 C1446 1.355 . S
C1447 C1449 1.419 . S
C1448 C1446 1.415 . S
C1448 C1453 1.425 . S
C1448 C1455 1.409 . S
C1449 H1441 0.930 . S
C1449 C1447 1.419 . S
C1449 C1450 1.362 . S
C1450 H1442 0.930 . S
C1450 C1449 1.362 . S
C1450 C1453 1.409 . S
C1451 H1443 0.930 . S
C1451 C1452 1.355 . S
C1451 C1453 1.415 . S
C1452 C1451 1.355 . S
C1452 C1454 1.419 . S
C1453 C1448 1.425 . S
C1453 C1450 1.409 . S
C1453 C1451 1.415 . S
C1454 H1444 0.930 . S
C1454 C1452 1.419 . S
C1454 C1455 1.362 . S
C1455 H1445 0.930 . S
C1455 C1448 1.409 . S
C1455 C1454 1.362 . S
H1456 C1462 0.930 . S
H1457 C1465 0.930 . S
H1458 C1466 0.930 . S
H1459 C1467 0.930 . S
H1460 C1470 0.930 . S
H1461 C1471 0.930 . S
C1462 H1456 0.930 . S
C1462 C1463 1.355 . S
C1462 C1464 1.415 . S
C1463 C1462 1.355 . S
C1463 C1465 1.419 . S
C1464 C1462 1.415 . S
C1464 C1469 1.425 . S
C1464 C1471 1.409 . S
C1465 H1457 0.930 . S
C1465 C1463 1.419 . S
C1465 C1466 1.362 . S
C1466 H1458 0.930 . S
C1466 C1465 1.362 . S
C1466 C1469 1.409 . S
C1467 H1459 0.930 . S
C1467 C1468 1.355 . S
C1467 C1469 1.415 . S
C1468 C1467 1.355 . S
C1468 C1470 1.419 . S
C1469 C1464 1.425 . S
C1469 C1466 1.409 . S
C1469 C1467 1.415 . S
C1470 H1460 0.930 . S
C1470 C1468 1.419 . S
C1470 C1471 1.362 . S
C1471 H1461 0.930 . S
C1471 C1464 1.409 . S
C1471 C1470 1.362 . S
H1472 C1478 0.930 . S
H1473 C1481 0.930 . S
H1474 C1482 0.930 . S
H1475 C1483 0.930 . S
H1476 C1486 0.930 . S
H1477 C1487 0.930 . S
C1478 H1472 0.930 . S
C1478 C1479 1.355 . S
C1478 C1480 1.415 . S
C1479 C1478 1.355 . S
C1479 C1481 1.419 . S
C1480 C1478 1.415 . S
C1480 C1485 1.425 . S
C1480 C1487 1.409 . S
C1481 H1473 0.930 . S
C1481 C1479 1.419 . S
C1481 C1482 1.362 . S
C1482 H1474 0.930 . S
C1482 C1481 1.362 . S
C1482 C1485 1.409 . S
C1483 H1475 0.930 . S
C1483 C1484 1.355 . S
C1483 C1485 1.415 . S
C1484 C1483 1.355 . S
C1484 C1486 1.419 . S
C1485 C1480 1.425 . S
C1485 C1482 1.409 . S
C1485 C1483 1.415 . S
C1486 H1476 0.930 . S
C1486 C1484 1.419 . S
C1486 C1487 1.362 . S
C1487 H1477 0.930 . S
C1487 C1480 1.409 . S
C1487 C1486 1.362 . S
H1488 C1494 0.930 . S
H1489 C1497 0.930 . S
H1490 C1498 0.930 . S
H1491 C1499 0.930 . S
H1492 C1502 0.930 . S
H1493 C1503 0.930 . S
C1494 H1488 0.930 . S
C1494 C1495 1.355 . S
C1494 C1496 1.415 . S
C1495 C1494 1.355 . S
C1495 C1497 1.419 . S
C1496 C1494 1.415 . S
C1496 C1501 1.425 . S
C1496 C1503 1.409 . S
C1497 H1489 0.930 . S
C1497 C1495 1.419 . S
C1497 C1498 1.362 . S
C1498 H1490 0.930 . S
C1498 C1497 1.362 . S
C1498 C1501 1.409 . S
C1499 H1491 0.930 . S
C1499 C1500 1.355 . S
C1499 C1501 1.415 . S
C1500 C1499 1.355 . S
C1500 C1502 1.419 . S
C1501 C1496 1.425 . S
C1501 C1498 1.409 . S
C1501 C1499 1.415 . S
C1502 H1492 0.930 . S
C1502 C1500 1.419 . S
C1502 C1503 1.362 . S
C1503 H1493 0.930 . S
C1503 C1496 1.409 . S
C1503 C1502 1.362 . S
H1504 C1510 0.930 . S
H1505 C1513 0.930 . S
H1506 C1514 0.930 . S
H1507 C1515 0.930 . S
H1508 C1518 0.930 . S
H1509 C1519 0.930 . S
C1510 H1504 0.930 . S
C1510 C1511 1.355 . S
C1510 C1512 1.415 . S
C1511 C1510 1.355 . S
C1511 C1513 1.419 . S
C1512 C1510 1.415 . S
C1512 C1517 1.425 . S
C1512 C1519 1.409 . S
C1513 H1505 0.930 . S
C1513 C1511 1.419 . S
C1513 C1514 1.362 . S
C1514 H1506 0.930 . S
C1514 C1513 1.362 . S
C1514 C1517 1.409 . S
C1515 H1507 0.930 . S
C1515 C1516 1.355 . S
C1515 C1517 1.415 . S
C1516 C1515 1.355 . S
C1516 C1518 1.419 . S
C1517 C1512 1.425 . S
C1517 C1514 1.409 . S
C1517 C1515 1.415 . S
C1518 H1508 0.930 . S
C1518 C1516 1.419 . S
C1518 C1519 1.362 . S
C1519 H1509 0.930 . S
C1519 C1512 1.409 . S
C1519 C1518 1.362 . S
H1520 C1526 0.930 . S
H1521 C1529 0.930 . S
H1522 C1530 0.930 . S
H1523 C1531 0.930 . S
H1524 C1534 0.930 . S
H1525 C1535 0.930 . S
C1526 H1520 0.930 . S
C1526 C1527 1.355 . S
C1526 C1528 1.415 . S
C1527 C1526 1.355 . S
C1527 C1529 1.419 . S
C1528 C1526 1.415 . S
C1528 C1533 1.425 . S
C1528 C1535 1.409 . S
C1529 H1521 0.930 . S
C1529 C1527 1.419 . S
C1529 C1530 1.362 . S
C1530 H1522 0.930 . S
C1530 C1529 1.362 . S
C1530 C1533 1.409 . S
C1531 H1523 0.930 . S
C1531 C1532 1.355 . S
C1531 C1533 1.415 . S
C1532 C1531 1.355 . S
C1532 C1534 1.419 . S
C1533 C1528 1.425 . S
C1533 C1530 1.409 . S
C1533 C1531 1.415 . S
C1534 H1524 0.930 . S
C1534 C1532 1.419 . S
C1534 C1535 1.362 . S
C1535 H1525 0.930 . S
C1535 C1528 1.409 . S
C1535 C1534 1.362 . S
H1536 C1542 0.930 . S
H1537 C1545 0.930 . S
H1538 C1546 0.930 . S
H1539 C1547 0.930 . S
H1540 C1550 0.930 . S
H1541 C1551 0.930 . S
C1542 H1536 0.930 . S
C1542 C1543 1.355 . S
C1542 C1544 1.415 . S
C1543 C1542 1.355 . S
C1543 C1545 1.419 . S
C1544 C1542 1.415 . S
C1544 C1549 1.425 . S
C1544 C1551 1.409 . S
C1545 H1537 0.930 . S
C1545 C1543 1.419 . S
C1545 C1546 1.362 . S
C1546 H1538 0.930 . S
C1546 C1545 1.362 . S
C1546 C1549 1.409 . S
C1547 H1539 0.930 . S
C1547 C1548 1.355 . S
C1547 C1549 1.415 . S
C1548 C1547 1.355 . S
C1548 C1550 1.419 . S
C1549 C1544 1.425 . S
C1549 C1546 1.409 . S
C1549 C1547 1.415 . S
C1550 H1540 0.930 . S
C1550 C1548 1.419 . S
C1550 C1551 1.362 . S
C1551 H1541 0.930 . S
C1551 C1544 1.409 . S
C1551 C1550 1.362 . S
H1552 C1558 0.930 . S
H1553 C1561 0.930 . S
H1554 C1562 0.930 . S
H1555 C1563 0.930 . S
H1556 C1566 0.930 . S
H1557 C1567 0.930 . S
C1558 H1552 0.930 . S
C1558 C1559 1.355 . S
C1558 C1560 1.415 . S
C1559 C1558 1.355 . S
C1559 C1561 1.419 . S
C1560 C1558 1.415 . S
C1560 C1565 1.425 . S
C1560 C1567 1.409 . S
C1561 H1553 0.930 . S
C1561 C1559 1.419 . S
C1561 C1562 1.362 . S
C1562 H1554 0.930 . S
C1562 C1561 1.362 . S
C1562 C1565 1.409 . S
C1563 H1555 0.930 . S
C1563 C1564 1.355 . S
C1563 C1565 1.415 . S
C1564 C1563 1.355 . S
C1564 C1566 1.419 . S
C1565 C1560 1.425 . S
C1565 C1562 1.409 . S
C1565 C1563 1.415 . S
C1566 H1556 0.930 . S
C1566 C1564 1.419 . S
C1566 C1567 1.362 . S
C1567 H1557 0.930 . S
C1567 C1560 1.409 . S
C1567 C1566 1.362 . S
H1568 C1574 0.930 . S
H1569 C1577 0.930 . S
H1570 C1578 0.930 . S
H1571 C1579 0.930 . S
H1572 C1582 0.930 . S
H1573 C1583 0.930 . S
C1574 H1568 0.930 . S
C1574 C1575 1.355 . S
C1574 C1576 1.415 . S
C1575 C1574 1.355 . S
C1575 C1577 1.419 . S
C1576 C1574 1.415 . S
C1576 C1581 1.425 . S
C1576 C1583 1.409 . S
C1577 H1569 0.930 . S
C1577 C1575 1.419 . S
C1577 C1578 1.362 . S
C1578 H1570 0.930 . S
C1578 C1577 1.362 . S
C1578 C1581 1.409 . S
C1579 H1571 0.930 . S
C1579 C1580 1.355 . S
C1579 C1581 1.415 . S
C1580 C1579 1.355 . S
C1580 C1582 1.419 . S
C1581 C1576 1.425 . S
C1581 C1578 1.409 . S
C1581 C1579 1.415 . S
C1582 H1572 0.930 . S
C1582 C1580 1.419 . S
C1582 C1583 1.362 . S
C1583 H1573 0.930 . S
C1583 C1576 1.409 . S
C1583 C1582 1.362 . S
H1584 C1590 0.930 . S
H1585 C1593 0.930 . S
H1586 C1594 0.930 . S
H1587 C1595 0.930 . S
H1588 C1598 0.930 . S
H1589 C1599 0.930 . S
C1590 H1584 0.930 . S
C1590 C1591 1.355 . S
C1590 C1592 1.415 . S
C1591 C1590 1.355 . S
C1591 C1593 1.419 . S
C1592 C1590 1.415 . S
C1592 C1597 1.425 . S
C1592 C1599 1.409 . S
C1593 H1585 0.930 . S
C1593 C1591 1.419 . S
C1593 C1594 1.362 . S
C1594 H1586 0.930 . S
C1594 C1593 1.362 . S
C1594 C1597 1.409 . S
C1595 H1587 0.930 . S
C1595 C1596 1.355 . S
C1595 C1597 1.415 . S
C1596 C1595 1.355 . S
C1596 C1598 1.419 . S
C1597 C1592 1.425 . S
C1597 C1594 1.409 . S
C1597 C1595 1.415 . S
C1598 H1588 0.930 . S
C1598 C1596 1.419 . S
C1598 C1599 1.362 . S
C1599 H1589 0.930 . S
C1599 C1592 1.409 . S
C1599 C1598 1.362 . S
H1600 C1606 0.930 . S
H1601 C1609 0.930 . S
H1602 C1610 0.930 . S
H1603 C1611 0.930 . S
H1604 C1614 0.930 . S
H1605 C1615 0.930 . S
C1606 H1600 0.930 . S
C1606 C1607 1.355 . S
C1606 C1608 1.415 . S
C1607 C1606 1.355 . S
C1607 C1609 1.419 . S
C1608 C1606 1.415 . S
C1608 C1613 1.425 . S
C1608 C1615 1.409 . S
C1609 H1601 0.930 . S
C1609 C1607 1.419 . S
C1609 C1610 1.362 . S
C1610 H1602 0.930 . S
C1610 C1609 1.362 . S
C1610 C1613 1.409 . S
C1611 H1603 0.930 . S
C1611 C1612 1.355 . S
C1611 C1613 1.415 . S
C1612 C1611 1.355 . S
C1612 C1614 1.419 . S
C1613 C1608 1.425 . S
C1613 C1610 1.409 . S
C1613 C1611 1.415 . S
C1614 H1604 0.930 . S
C1614 C1612 1.419 . S
C1614 C1615 1.362 . S
C1615 H1605 0.930 . S
C1615 C1608 1.409 . S
C1615 C1614 1.362 . S
H1616 C1622 0.930 . S
H1617 C1625 0.930 . S
H1618 C1626 0.930 . S
H1619 C1627 0.930 . S
H1620 C1630 0.930 . S
H1621 C1631 0.930 . S
C1622 H1616 0.930 . S
C1622 C1623 1.355 . S
C1622 C1624 1.415 . S
C1623 C1622 1.355 . S
C1623 C1625 1.419 . S
C1624 C1622 1.415 . S
C1624 C1629 1.425 . S
C1624 C1631 1.409 . S
C1625 H1617 0.930 . S
C1625 C1623 1.419 . S
C1625 C1626 1.362 . S
C1626 H1618 0.930 . S
C1626 C1625 1.362 . S
C1626 C1629 1.409 . S
C1627 H1619 0.930 . S
C1627 C1628 1.355 . S
C1627 C1629 1.415 . S
C1628 C1627 1.355 . S
C1628 C1630 1.419 . S
C1629 C1624 1.425 . S
C1629 C1626 1.409 . S
C1629 C1627 1.415 . S
C1630 H1620 0.930 . S
C1630 C1628 1.419 . S
C1630 C1631 1.362 . S
C1631 H1621 0.930 . S
C1631 C1624 1.409 . S
C1631 C1630 1.362 . S
H1632 C1638 0.930 . S
H1633 C1641 0.930 . S
H1634 C1642 0.930 . S
H1635 C1643 0.930 . S
H1636 C1646 0.930 . S
H1637 C1647 0.930 . S
C1638 H1632 0.930 . S
C1638 C1639 1.355 . S
C1638 C1640 1.415 . S
C1639 C1638 1.355 . S
C1639 C1641 1.419 . S
C1640 C1638 1.415 . S
C1640 C1645 1.425 . S
C1640 C1647 1.409 . S
C1641 H1633 0.930 . S
C1641 C1639 1.419 . S
C1641 C1642 1.362 . S
C1642 H1634 0.930 . S
C1642 C1641 1.362 . S
C1642 C1645 1.409 . S
C1643 H1635 0.930 . S
C1643 C1644 1.355 . S
C1643 C1645 1.415 . S
C1644 C1643 1.355 . S
C1644 C1646 1.419 . S
C1645 C1640 1.425 . S
C1645 C1642 1.409 . S
C1645 C1643 1.415 . S
C1646 H1636 0.930 . S
C1646 C1644 1.419 . S
C1646 C1647 1.362 . S
C1647 H1637 0.930 . S
C1647 C1640 1.409 . S
C1647 C1646 1.362 . S
H1648 C1654 0.930 . S
H1649 C1657 0.930 . S
H1650 C1658 0.930 . S
H1651 C1659 0.930 . S
H1652 C1662 0.930 . S
H1653 C1663 0.930 . S
C1654 H1648 0.930 . S
C1654 C1655 1.355 . S
C1654 C1656 1.415 . S
C1655 C1654 1.355 . S
C1655 C1657 1.419 . S
C1656 C1654 1.415 . S
C1656 C1661 1.425 . S
C1656 C1663 1.409 . S
C1657 H1649 0.930 . S
C1657 C1655 1.419 . S
C1657 C1658 1.362 . S
C1658 H1650 0.930 . S
C1658 C1657 1.362 . S
C1658 C1661 1.409 . S
C1659 H1651 0.930 . S
C1659 C1660 1.355 . S
C1659 C1661 1.415 . S
C1660 C1659 1.355 . S
C1660 C1662 1.419 . S
C1661 C1656 1.425 . S
C1661 C1658 1.409 . S
C1661 C1659 1.415 . S
C1662 H1652 0.930 . S
C1662 C1660 1.419 . S
C1662 C1663 1.362 . S
C1663 H1653 0.930 . S
C1663 C1656 1.409 . S
C1663 C1662 1.362 . S
H1664 C1670 0.930 . S
H1665 C1673 0.930 . S
H1666 C1674 0.930 . S
H1667 C1675 0.930 . S
H1668 C1678 0.930 . S
H1669 C1679 0.930 . S
C1670 H1664 0.930 . S
C1670 C1671 1.355 . S
C1670 C1672 1.415 . S
C1671 C1670 1.355 . S
C1671 C1673 1.419 . S
C1672 C1670 1.415 . S
C1672 C1677 1.425 . S
C1672 C1679 1.409 . S
C1673 H1665 0.930 . S
C1673 C1671 1.419 . S
C1673 C1674 1.362 . S
C1674 H1666 0.930 . S
C1674 C1673 1.362 . S
C1674 C1677 1.409 . S
C1675 H1667 0.930 . S
C1675 C1676 1.355 . S
C1675 C1677 1.415 . S
C1676 C1675 1.355 . S
C1676 C1678 1.419 . S
C1677 C1672 1.425 . S
C1677 C1674 1.409 . S
C1677 C1675 1.415 . S
C1678 H1668 0.930 . S
C1678 C1676 1.419 . S
C1678 C1679 1.362 . S
C1679 H1669 0.930 . S
C1679 C1672 1.409 . S
C1679 C1678 1.362 . S
C535 C9 1.529 . S
C540 C404 1.412 . S
C551 C422 1.458 . S
C556 C31 1.501 . S
C567 C356 1.426 . S
C572 C53 1.503 . S
C583 C71 1.540 . S
C588 C378 1.384 . S
C599 C488 1.428 . S
C604 C93 1.520 . S
C615 C466 1.471 . S
C620 C119 1.491 . S
C631 C514 1.392 . S
C636 C137 1.538 . S
C647 C448 1.449 . S
C652 C159 1.489 . S
C663 C185 1.476 . S
C668 C294 1.484 . S
C679 C203 1.539 . S
C684 C338 1.382 . S
C695 C225 1.523 . S
C700 C316 1.397 . S
C711 C268 1.383 . S
C716 C251 1.536 . S
C727 C140 1.463 . S
C732 C271 1.497 . S
C743 C292 1.531 . S
C748 C162 1.408 . S
C759 C96 1.403 . S
C764 C314 1.534 . S
C775 C114 1.484 . S
C780 C336 1.476 . S
C791 C359 1.479 . S
C796 C228 1.466 . S
C807 C206 1.385 . S
C812 C381 1.533 . S
C823 C246 1.388 . S
C828 C402 1.539 . S
C839 C425 1.525 . S
C844 C180 1.420 . S
C855 C446 1.495 . S
C860 C26 1.465 . S
C871 C469 1.538 . S
C876 C74 1.382 . S
C887 C491 1.474 . S
C892 C48 1.484 . S
C903 C4 1.391 . S
C908 C512 1.538 . S
C919 C423 1.205 1_554 S
C924 C5 1.096 . S
C935 C405 1.202 . S
C940 C27 1.086 . S
C951 C379 1.199 1_556 S
C956 C49 1.083 . S
C967 C357 1.205 . S
C972 C75 1.096 . S
C983 C97 1.135 . S
C988 C515 1.195 1_455 S
C999 C115 1.095 . S
C1004 C449 1.205 . S
C1015 C489 1.147 . S
C1020 C141 1.187 . S
C1031 C467 1.197 1_655 S
C1036 C163 1.082 . S
C1047 C317 1.177 1_545 S
C1052 C181 1.162 . S
C1063 C207 1.193 . S
C1068 C269 1.135 . S
C1079 C295 1.203 . S
C1084 C229 1.088 . S
C1095 C339 1.116 1_565 S
C1100 C247 1.157 . S
C1111 C270 1.110 . S
C1116 C161 1.146 1_556 S
C1127 C139 1.175 . S
C1132 C293 1.164 . S
C1143 C315 1.132 . S
C1148 C116 1.129 1_554 S
C1159 C337 1.192 . S
C1164 C95 1.138 . S
C1175 C248 1.179 1_655 S
C1180 C358 1.084 . S
C1191 C182 1.172 . S
C1196 C380 1.167 . S
C1207 C403 1.184 . S
C1212 C227 1.152 . S
C1223 C424 1.189 . S
C1228 C205 1.145 1_455 S
C1239 C50 1.205 1_565 S
C1244 C447 1.104 . S
C1255 C6 1.205 . S
C1260 C468 1.094 . S
C1271 C490 1.085 . S
C1276 C28 1.176 . S
C1287 C513 1.156 . S
C1292 C73 1.181 1_545 S
C1303 C8 0.966 . S
C1308 C94 0.999 . S
C1319 C117 1.011 . S
C1324 C30 0.955 . S
C1335 C138 0.930 . S
C1340 C52 1.018 . S
C1351 C160 0.980 . S
C1356 C70 0.978 . S
C1367 C183 0.962 . S
C1372 C92 0.996 . S
C1383 C118 0.947 . S
C1388 C249 1.017 . S
C1399 C136 0.988 . S
C1404 C204 0.972 . S
C1415 C226 0.997 . S
C1420 C158 0.964 . S
C1431 C184 0.960 . S
C1436 C7 1.002 . S
C1447 C202 0.944 . S
C1452 C51 1.022 . S
C1463 C72 1.025 . S
C1468 C224 0.940 . S
C1479 C29 1.020 . S
C1484 C250 0.944 . S
C1495 C272 0.965 . S
C1500 C361 0.996 . S
C1511 C383 1.016 . S
C1516 C290 0.947 . S
C1527 C401 1.024 . S
C1532 C312 0.942 . S
C1543 C427 1.019 . S
C1548 C334 0.947 . S
C1559 C360 0.941 . S
C1564 C445 1.025 . S
C1575 C511 1.005 . S
C1580 C382 0.960 . S
C1591 C400 0.942 . S
C1596 C471 1.024 . S
C1607 C426 0.943 . S
C1612 C493 1.022 . S
C1623 C273 1.023 . S
C1628 C444 0.943 . S
C1639 C313 0.971 . S
C1644 C470 0.989 . S
C1655 C335 0.988 . S
C1660 C492 0.971 . S
C1671 C291 0.945 . S
C1676 C510 1.010 . S
