# Generated by pormake.
# Topology wlk, (5)-cn, num edge types: 1
# Building blocks:
#     Node 0, Type 0, BuildingBlock: XOMCOT_clean_sbu_0, # of connection points: 5
#     Node 1, Type 0, BuildingBlock: XOMCOT_clean_sbu_0, # of connection points: 5
#     Node 2, Type 0, BuildingBlock: XOMCOT_clean_sbu_0, # of connection points: 5
#     Node 3, Type 0, BuildingBlock: XOMCOT_clean_sbu_0, # of connection points: 5
#     Node 4, Type 0, BuildingBlock: XOMCOT_clean_sbu_0, # of connection points: 5
#     Node 5, Type 0, BuildingBlock: XOMCOT_clean_sbu_0, # of connection points: 5
#     Node 6, Type 0, BuildingBlock: XOMCOT_clean_sbu_0, # of connection points: 5
#     Node 7, Type 0, BuildingBlock: XOMCOT_clean_sbu_0, # of connection points: 5
#     Node 8, Type 0, BuildingBlock: XOMCOT_clean_sbu_0, # of connection points: 5
#     Node 9, Type 0, BuildingBlock: XOMCOT_clean_sbu_0, # of connection points: 5
#     Node 10, Type 0, BuildingBlock: XOMCOT_clean_sbu_0, # of connection points: 5
#     Node 11, Type 0, BuildingBlock: XOMCOT_clean_sbu_0, # of connection points: 5
#     Node 12, Type 0, BuildingBlock: XOMCOT_clean_sbu_0, # of connection points: 5
#     Node 13, Type 0, BuildingBlock: XOMCOT_clean_sbu_0, # of connection points: 5
#     Node 14, Type 0, BuildingBlock: XOMCOT_clean_sbu_0, # of connection points: 5
#     Node 15, Type 0, BuildingBlock: XOMCOT_clean_sbu_0, # of connection points: 5
#     Node 16, Type 0, BuildingBlock: XOMCOT_clean_sbu_0, # of connection points: 5
#     Node 17, Type 0, BuildingBlock: XOMCOT_clean_sbu_0, # of connection points: 5
#     Edge 18, Type (0, 0), BuildingBlock: KIFKEQ_clean_linker_1, # of connection points: 2
#     Edge 19, Type (0, 0), BuildingBlock: KIFKEQ_clean_linker_1, # of connection points: 2
#     Edge 20, Type (0, 0), BuildingBlock: KIFKEQ_clean_linker_1, # of connection points: 2
#     Edge 21, Type (0, 0), BuildingBlock: KIFKEQ_clean_linker_1, # of connection points: 2
#     Edge 22, Type (0, 0), BuildingBlock: KIFKEQ_clean_linker_1, # of connection points: 2
#     Edge 23, Type (0, 0), BuildingBlock: KIFKEQ_clean_linker_1, # of connection points: 2
#     Edge 24, Type (0, 0), BuildingBlock: KIFKEQ_clean_linker_1, # of connection points: 2
#     Edge 25, Type (0, 0), BuildingBlock: KIFKEQ_clean_linker_1, # of connection points: 2
#     Edge 26, Type (0, 0), BuildingBlock: KIFKEQ_clean_linker_1, # of connection points: 2
#     Edge 27, Type (0, 0), BuildingBlock: KIFKEQ_clean_linker_1, # of connection points: 2
#     Edge 28, Type (0, 0), BuildingBlock: KIFKEQ_clean_linker_1, # of connection points: 2
#     Edge 29, Type (0, 0), BuildingBlock: KIFKEQ_clean_linker_1, # of connection points: 2
#     Edge 30, Type (0, 0), BuildingBlock: KIFKEQ_clean_linker_1, # of connection points: 2
#     Edge 31, Type (0, 0), BuildingBlock: KIFKEQ_clean_linker_1, # of connection points: 2
#     Edge 32, Type (0, 0), BuildingBlock: KIFKEQ_clean_linker_1, # of connection points: 2
#     Edge 33, Type (0, 0), BuildingBlock: KIFKEQ_clean_linker_1, # of connection points: 2
#     Edge 34, Type (0, 0), BuildingBlock: KIFKEQ_clean_linker_1, # of connection points: 2
#     Edge 35, Type (0, 0), BuildingBlock: KIFKEQ_clean_linker_1, # of connection points: 2
#     Edge 36, Type (0, 0), BuildingBlock: KIFKEQ_clean_linker_1, # of connection points: 2
#     Edge 37, Type (0, 0), BuildingBlock: KIFKEQ_clean_linker_1, # of connection points: 2
#     Edge 38, Type (0, 0), BuildingBlock: KIFKEQ_clean_linker_1, # of connection points: 2
#     Edge 39, Type (0, 0), BuildingBlock: KIFKEQ_clean_linker_1, # of connection points: 2
#     Edge 40, Type (0, 0), BuildingBlock: KIFKEQ_clean_linker_1, # of connection points: 2
#     Edge 41, Type (0, 0), BuildingBlock: KIFKEQ_clean_linker_1, # of connection points: 2
#     Edge 42, Type (0, 0), BuildingBlock: KIFKEQ_clean_linker_1, # of connection points: 2
#     Edge 43, Type (0, 0), BuildingBlock: KIFKEQ_clean_linker_1, # of connection points: 2
#     Edge 44, Type (0, 0), BuildingBlock: KIFKEQ_clean_linker_1, # of connection points: 2
#     Edge 45, Type (0, 0), BuildingBlock: KIFKEQ_clean_linker_1, # of connection points: 2
#     Edge 46, Type (0, 0), BuildingBlock: KIFKEQ_clean_linker_1, # of connection points: 2
#     Edge 47, Type (0, 0), BuildingBlock: KIFKEQ_clean_linker_1, # of connection points: 2
#     Edge 48, Type (0, 0), BuildingBlock: KIFKEQ_clean_linker_1, # of connection points: 2
#     Edge 49, Type (0, 0), BuildingBlock: KIFKEQ_clean_linker_1, # of connection points: 2
#     Edge 50, Type (0, 0), BuildingBlock: KIFKEQ_clean_linker_1, # of connection points: 2
#     Edge 51, Type (0, 0), BuildingBlock: KIFKEQ_clean_linker_1, # of connection points: 2
#     Edge 52, Type (0, 0), BuildingBlock: KIFKEQ_clean_linker_1, # of connection points: 2
#     Edge 53, Type (0, 0), BuildingBlock: KIFKEQ_clean_linker_1, # of connection points: 2
#     Edge 54, Type (0, 0), BuildingBlock: KIFKEQ_clean_linker_1, # of connection points: 2
#     Edge 55, Type (0, 0), BuildingBlock: KIFKEQ_clean_linker_1, # of connection points: 2
#     Edge 56, Type (0, 0), BuildingBlock: KIFKEQ_clean_linker_1, # of connection points: 2
#     Edge 57, Type (0, 0), BuildingBlock: KIFKEQ_clean_linker_1, # of connection points: 2
#     Edge 58, Type (0, 0), BuildingBlock: KIFKEQ_clean_linker_1, # of connection points: 2
#     Edge 59, Type (0, 0), BuildingBlock: KIFKEQ_clean_linker_1, # of connection points: 2
#     Edge 60, Type (0, 0), BuildingBlock: KIFKEQ_clean_linker_1, # of connection points: 2
#     Edge 61, Type (0, 0), BuildingBlock: KIFKEQ_clean_linker_1, # of connection points: 2
#     Edge 62, Type (0, 0), BuildingBlock: KIFKEQ_clean_linker_1, # of connection points: 2
# Relax obj value: 0.216
# Max RMSD: 0.254
# Mean RMSD: 0.254
data_MOF--net-wlk--node1-XOMCOT_clean_sbu_0--edge1-KIFKEQ_clean_linker_1
_symmetry_space_group_name_H-M    P1
_symmetry_Int_Tables_number       1
_symmetry_cell_setting            triclinic
loop_
_symmetry_equiv_pos_as_xyz
'x, y, z'
_cell_length_a     65.692638
_cell_length_b     65.674257
_cell_length_c     28.754893
_cell_angle_alpha  90.021136
_cell_angle_beta   89.960057
_cell_angle_gamma 119.8643
loop_
_atom_site_label
_atom_site_type_symbol
_atom_site_fract_x
_atom_site_fract_y
_atom_site_fract_z
_atom_type_partial_charge
Co0 Co 0.22046 0.28259 0.09541 0.0
C1 C 0.23211 0.25227 0.03609 0.0
C2 C 0.1951 0.23799 0.04288 0.0
C3 C 0.19906 0.22194 0.01994 0.0
N4 N 0.2158 0.25756 0.05186 0.0
N5 N 0.22239 0.23084 0.0158 0.0
H6 H 0.25073 0.26309 0.04219 0.0
H7 H 0.17819 0.23443 0.05569 0.0
C8 C 0.17671 0.27359 0.04775 0.0
O9 O 0.18876 0.27735 0.0091 0.0
N10 N 0.22491 0.30643 0.14045 0.0
C11 C 0.24516 0.32634 0.14916 0.0
C12 C 0.24139 0.33839 0.18407 0.0
C13 C 0.20908 0.30654 0.17032 0.0
N14 N 0.21866 0.32603 0.19746 0.0
C15 C 0.24895 0.3092 0.01835 0.0
C16 C 0.23575 0.34314 0.01878 0.0
C17 C 0.25435 0.3462 0.99026 0.0
C18 C 0.26049 0.32865 0.9894 0.0
C19 C 0.22416 0.32296 0.04645 0.0
N20 N 0.23108 0.30642 0.04664 0.0
H21 H 0.25563 0.2973 0.02002 0.0
H22 H 0.21041 0.32124 0.06958 0.0
H23 H 0.26159 0.33168 0.13141 0.0
H24 H 0.19097 0.29265 0.17189 0.0
O25 O 0.25066 0.28716 0.11123 0.0
O26 O 0.2177 0.26158 0.14633 0.0
O27 O 0.18644 0.27439 0.08689 0.0
C28 C 0.24048 0.27102 0.1426 0.0
H29 H 0.18579 0.20424 0.01074 0.0
H30 H 0.25465 0.35482 0.19891 0.0
H31 H 0.23063 0.35645 0.02054 0.0
H32 H 0.27517 0.33066 0.96869 0.0
Co33 Co 0.75404 0.94659 0.09576 0.0
C34 C 0.78694 0.98766 0.0376 0.0
C35 C 0.79701 0.96138 0.03802 0.0
C36 C 0.81381 0.98063 0.01406 0.0
N37 N 0.77955 0.96534 0.05169 0.0
N38 N 0.80743 0.99713 0.01413 0.0
H39 H 0.77842 0.99756 0.04662 0.0
H40 H 0.79877 0.94648 0.0479 0.0
C41 C 0.75754 0.90867 0.04558 0.0
O42 O 0.75362 0.9171 0.00731 0.0
N43 N 0.72959 0.92871 0.14076 0.0
C44 C 0.71024 0.93041 0.14799 0.0
C45 C 0.69769 0.91582 0.18413 0.0
C46 C 0.72872 0.9133 0.17292 0.0
N47 N 0.7093 0.90508 0.20005 0.0
C48 C 0.72904 0.95403 0.02287 0.0
C49 C 0.69255 0.90832 0.01536 0.0
C50 C 0.69163 0.92599 0.98955 0.0
C51 C 0.71031 0.94902 0.99358 0.0
C52 C 0.71188 0.91413 0.04436 0.0
N53 N 0.73 0.93681 0.04754 0.0
H54 H 0.74201 0.97211 0.02765 0.0
H55 H 0.71192 0.90053 0.06547 0.0
H56 H 0.70561 0.94155 0.1283 0.0
H57 H 0.7423 0.90869 0.17696 0.0
O58 O 0.7535 0.97429 0.1144 0.0
O59 O 0.77615 0.96204 0.14678 0.0
O60 O 0.75848 0.9184 0.08481 0.0
C61 C 0.76942 0.97769 0.1448 0.0
H62 H 0.83038 0.98309 0.00119 0.0
H63 H 0.68115 0.91326 0.19732 0.0
H64 H 0.67838 0.8903 0.01363 0.0
H65 H 0.71002 0.96343 0.97586 0.0
Co66 Co 0.08786 0.81689 0.08837 0.0
C67 C 0.04403 0.80733 0.03826 0.0
C68 C 0.07083 0.8434 0.03229 0.0
C69 C 0.0506 0.84074 0.01233 0.0
N70 N 0.06687 0.82243 0.04865 0.0
N71 N 0.03384 0.81807 0.01604 0.0
H72 H 0.03462 0.78905 0.04848 0.0
H73 H 0.08691 0.85992 0.03595 0.0
C74 C 0.13453 0.86411 0.08999 0.0
O75 O 0.14585 0.85548 0.11259 0.0
N76 N 0.10788 0.81108 0.12967 0.0
C77 C 0.11352 0.794 0.12614 0.0
C78 C 0.12706 0.79536 0.16385 0.0
C79 C 0.11676 0.8215 0.17103 0.0
N80 N 0.12936 0.81288 0.19183 0.0
C81 C 0.08189 0.78813 0.01011 0.0
C82 C 0.1286 0.80193 0.99574 0.0
C83 C 0.11131 0.78219 0.97223 0.0
C84 C 0.0878 0.77591 0.9784 0.0
C85 C 0.12192 0.81427 0.02625 0.0
N86 N 0.09871 0.80667 0.03468 0.0
H87 H 0.06357 0.7815 0.01724 0.0
H88 H 0.1354 0.82854 0.0458 0.0
H89 H 0.10818 0.78136 0.09816 0.0
H90 H 0.1146 0.83565 0.1848 0.0
O91 O 0.06267 0.78667 0.10588 0.0
O92 O 0.07159 0.81978 0.14266 0.0
O93 O 0.11295 0.85115 0.07838 0.0
C94 C 0.0583 0.797 0.13969 0.0
H95 H 0.04827 0.85447 0.99689 0.0
H96 H 0.1351 0.78464 0.16945 0.0
H97 H 0.14699 0.80725 0.99187 0.0
H98 H 0.0739 0.76057 0.96128 0.0
Co99 Co 0.81868 0.74447 0.90211 0.0
C100 C 0.81155 0.78221 0.94438 0.0
C101 C 0.83507 0.77548 0.98443 0.0
C102 C 0.83176 0.79206 0.0074 0.0
N103 N 0.82232 0.76918 0.94491 0.0
N104 N 0.817 0.79629 0.98205 0.0
H105 H 0.79925 0.78097 0.9181 0.0
H106 H 0.84558 0.76804 0.99644 0.0
C107 C 0.86659 0.74687 0.90263 0.0
O108 O 0.85827 0.72693 0.88017 0.0
N109 N 0.81451 0.71992 0.8588 0.0
C110 C 0.79779 0.69712 0.86101 0.0
C111 C 0.79956 0.68571 0.82245 0.0
C112 C 0.82529 0.72231 0.81744 0.0
N113 N 0.817 0.7015 0.79508 0.0
C114 C 0.791 0.72069 0.98056 0.0
C115 C 0.80647 0.6889 0.99349 0.0
C116 C 0.78728 0.68641 0.01912 0.0
C117 C 0.78 0.70294 0.01347 0.0
C118 C 0.81749 0.70742 0.96171 0.0
N119 N 0.80922 0.7226 0.95435 0.0
H120 H 0.7841 0.73235 0.97455 0.0
H121 H 0.83138 0.7082 0.941 0.0
H122 H 0.785 0.68924 0.8886 0.0
H123 H 0.83922 0.73893 0.80459 0.0
O124 O 0.78788 0.73803 0.88518 0.0
O125 O 0.82039 0.76403 0.84927 0.0
O126 O 0.8535 0.75568 0.91223 0.0
C127 C 0.7975 0.7533 0.85203 0.0
H128 H 0.83956 0.80032 0.04023 0.0
H129 H 0.78904 0.66707 0.81582 0.0
H130 H 0.81241 0.67626 0.99696 0.0
H131 H 0.76505 0.70137 0.03254 0.0
Co132 Co 0.28626 0.08181 0.90722 0.0
C133 C 0.25311 0.0415 0.96678 0.0
C134 C 0.24288 0.06762 0.9627 0.0
C135 C 0.22573 0.04856 0.98644 0.0
N136 N 0.26067 0.0637 0.95155 0.0
N137 N 0.23217 0.03213 0.98856 0.0
H138 H 0.26194 0.03167 0.95987 0.0
H139 H 0.24117 0.08233 0.9511 0.0
C140 C 0.28259 0.12003 0.95463 0.0
O141 O 0.28577 0.11132 0.9933 0.0
N142 N 0.31054 0.09896 0.86147 0.0
C143 C 0.32982 0.09716 0.8542 0.0
C144 C 0.34214 0.11137 0.8174 0.0
C145 C 0.31119 0.11401 0.82871 0.0
N146 N 0.33043 0.12196 0.80117 0.0
C147 C 0.31091 0.07669 0.9845 0.0
C148 C 0.3483 0.12219 0.98424 0.0
C149 C 0.34887 0.10559 0.01391 0.0
C150 C 0.32969 0.08277 0.01447 0.0
C151 C 0.32871 0.1155 0.95558 0.0
N152 N 0.31036 0.09285 0.95556 0.0
H153 H 0.29754 0.05857 0.98293 0.0
H154 H 0.32873 0.1283 0.93191 0.0
H155 H 0.33459 0.08626 0.87436 0.0
H156 H 0.29758 0.11857 0.8246 0.0
O157 O 0.28706 0.05394 0.89152 0.0
O158 O 0.26417 0.06529 0.8568 0.0
O159 O 0.28186 0.11016 0.91566 0.0
C160 C 0.27103 0.04979 0.86079 0.0
H161 H 0.20895 0.04617 0.99774 0.0
H162 H 0.3586 0.11381 0.804 0.0
H163 H 0.36297 0.13995 0.98261 0.0
H164 H 0.32981 0.06932 0.03611 0.0
Co165 Co 0.95337 0.21261 0.90993 0.0
C166 C 0.99362 0.22272 0.97226 0.0
C167 C 0.97029 0.18584 0.96548 0.0
C168 C 0.99005 0.18931 0.98882 0.0
N169 N 0.97208 0.20682 0.95584 0.0
N170 N 1.00487 0.21256 0.99274 0.0
H171 H 1.00171 0.24141 0.96647 0.0
H172 H 0.95685 0.16907 0.95254 0.0
C173 C 0.9163 0.16798 0.95098 0.0
O174 O 0.92211 0.17895 0.99114 0.0
N175 N 0.93583 0.21842 0.86273 0.0
C176 C 0.93604 0.23883 0.85618 0.0
C177 C 0.92194 0.23641 0.81889 0.0
C178 C 0.92179 0.20389 0.82902 0.0
N179 N 0.91299 0.21447 0.80162 0.0
C180 C 0.95244 0.23858 0.98921 0.0
C181 C 0.90592 0.22703 0.98111 0.0
C182 C 0.92035 0.24416 0.01324 0.0
C183 C 0.94364 0.24943 0.01798 0.0
C184 C 0.91527 0.21597 0.95382 0.0
N185 N 0.93847 0.22216 0.95734 0.0
H186 H 0.97088 0.24462 0.99083 0.0
H187 H 0.90414 0.20325 0.92816 0.0
H188 H 0.94566 0.25435 0.87742 0.0
H189 H 0.91842 0.18613 0.82433 0.0
O190 O 0.97945 0.24309 0.89807 0.0
O191 O 0.97322 0.21077 0.86145 0.0
O192 O 0.92747 0.17847 0.91395 0.0
C193 C 0.9864 0.23343 0.86731 0.0
H194 H 0.99408 0.17574 0.99811 0.0
H195 H 0.91833 0.24977 0.80604 0.0
H196 H 0.88785 0.2227 0.97633 0.0
H197 H 0.95545 0.26299 0.04176 0.0
Co198 Co 0.88683 0.61126 0.43119 0.0
C199 C 0.89642 0.57822 0.3761 0.0
C200 C 0.85996 0.56768 0.37523 0.0
C201 C 0.86288 0.55098 0.35213 0.0
N202 N 0.88112 0.58545 0.38885 0.0
N203 N 0.88579 0.5576 0.35294 0.0
H204 H 0.91485 0.58724 0.38513 0.0
H205 H 0.84314 0.56569 0.38427 0.0
C206 C 0.84444 0.60559 0.38181 0.0
O207 O 0.85664 0.60937 0.34336 0.0
N208 N 0.89221 0.63587 0.47496 0.0
C209 C 0.91297 0.65522 0.48394 0.0
C210 C 0.90984 0.66774 0.51881 0.0
C211 C 0.87672 0.63681 0.50454 0.0
N212 N 0.88706 0.65617 0.53178 0.0
C213 C 0.91758 0.6361 0.35611 0.0
C214 C 0.90923 0.67342 0.35486 0.0
C215 C 0.92888 0.67547 0.33144 0.0
C216 C 0.93226 0.65607 0.33052 0.0
C217 C 0.89475 0.65289 0.38009 0.0
N218 N 0.89951 0.6348 0.38176 0.0
H219 H 0.92223 0.62262 0.35831 0.0
H220 H 0.88078 0.65226 0.40105 0.0
H221 H 0.92928 0.65984 0.46639 0.0
H222 H 0.85844 0.62333 0.5069 0.0
O223 O 0.91614 0.61429 0.44917 0.0
O224 O 0.88229 0.59019 0.48343 0.0
O225 O 0.85355 0.60506 0.42091 0.0
C226 C 0.90503 0.59886 0.48126 0.0
H227 H 0.84905 0.53446 0.33862 0.0
H228 H 0.92329 0.68419 0.53333 0.0
H229 H 0.90603 0.68807 0.35635 0.0
H230 H 0.94708 0.65683 0.31235 0.0
Co231 Co 0.42199 0.27842 0.4296 0.0
C232 C 0.45347 0.31977 0.37069 0.0
C233 C 0.46536 0.29488 0.37251 0.0
C234 C 0.48172 0.3145 0.34885 0.0
N235 N 0.44704 0.29769 0.38507 0.0
N236 N 0.47423 0.33016 0.34807 0.0
H237 H 0.44402 0.32886 0.37902 0.0
H238 H 0.46802 0.28063 0.38318 0.0
C239 C 0.42779 0.24164 0.38086 0.0
O240 O 0.42376 0.24994 0.34252 0.0
N241 N 0.39808 0.26021 0.47537 0.0
C242 C 0.37879 0.2618 0.48404 0.0
C243 C 0.36652 0.24682 0.51987 0.0
C244 C 0.39746 0.24444 0.50635 0.0
N245 N 0.37819 0.23582 0.53397 0.0
C246 C 0.39594 0.2823 0.35329 0.0
C247 C 0.36017 0.23597 0.35364 0.0
C248 C 0.35836 0.25212 0.32473 0.0
C249 C 0.37671 0.27536 0.32403 0.0
C250 C 0.38014 0.24352 0.38159 0.0
N251 N 0.39767 0.26656 0.38161 0.0
H252 H 0.40869 0.30064 0.35483 0.0
H253 H 0.38104 0.23103 0.40476 0.0
H254 H 0.37405 0.27321 0.46567 0.0
H255 H 0.4108 0.23939 0.50843 0.0
O256 O 0.41972 0.30543 0.44649 0.0
O257 O 0.44385 0.29541 0.48013 0.0
O258 O 0.42813 0.25117 0.42006 0.0
C259 C 0.43592 0.31008 0.47714 0.0
H260 H 0.49876 0.31785 0.33695 0.0
H261 H 0.35047 0.24465 0.53497 0.0
H262 H 0.34614 0.21788 0.35525 0.0
H263 H 0.37561 0.2884 0.30274 0.0
Co264 Co 0.7537 0.14748 0.43604 0.0
C265 C 0.71098 0.13738 0.38083 0.0
C266 C 0.73604 0.17406 0.38197 0.0
C267 C 0.71638 0.17096 0.35891 0.0
N268 N 0.73326 0.15292 0.39418 0.0
N269 N 0.70062 0.14791 0.35844 0.0
H270 H 0.70194 0.11887 0.38916 0.0
H271 H 0.7505 0.19092 0.39196 0.0
C272 C 0.78909 0.18944 0.38417 0.0
O273 O 0.77983 0.17681 0.34652 0.0
N274 N 0.77321 0.14225 0.47937 0.0
C275 C 0.77226 0.12158 0.48715 0.0
C276 C 0.78785 0.12453 0.5219 0.0
C277 C 0.7892 0.15749 0.50981 0.0
N278 N 0.79857 0.14711 0.53623 0.0
C279 C 0.74766 0.11635 0.36104 0.0
C280 C 0.79399 0.12716 0.35475 0.0
C281 C 0.77693 0.10834 0.32874 0.0
C282 C 0.75361 0.10329 0.33164 0.0
C283 C 0.7873 0.14011 0.3834 0.0
N284 N 0.76428 0.13454 0.38654 0.0
H285 H 0.72939 0.1107 0.3653 0.0
H286 H 0.8005 0.15398 0.40465 0.0
H287 H 0.76079 0.10539 0.46909 0.0
H288 H 0.79377 0.17571 0.51252 0.0
O289 O 0.72765 0.11837 0.4553 0.0
O290 O 0.73777 0.15268 0.48835 0.0
O291 O 0.78054 0.18068 0.42417 0.0
C292 C 0.72369 0.12995 0.48705 0.0
H293 H 0.71326 0.1847 0.34633 0.0
H294 H 0.79057 0.11085 0.53626 0.0
H295 H 0.81221 0.13157 0.35359 0.0
H296 H 0.73976 0.08851 0.31315 0.0
Co297 Co 0.48647 0.07462 0.24475 0.0
C298 C 0.47858 0.11177 0.2876 0.0
C299 C 0.50381 0.10677 0.32549 0.0
C300 C 0.50047 0.12338 0.34826 0.0
N301 N 0.49016 0.09951 0.2872 0.0
N302 N 0.48451 0.12646 0.32447 0.0
H303 H 0.46585 0.10994 0.26183 0.0
H304 H 0.51485 0.0999 0.33706 0.0
C305 C 0.53466 0.07751 0.24372 0.0
O306 O 0.52685 0.0583 0.21902 0.0
N307 N 0.48198 0.04973 0.20183 0.0
C308 C 0.46521 0.02699 0.20515 0.0
C309 C 0.46663 0.01505 0.16725 0.0
C310 C 0.49228 0.05153 0.16005 0.0
N311 N 0.48386 0.03037 0.13882 0.0
C312 C 0.45843 0.05097 0.3226 0.0
C313 C 0.47352 0.01883 0.33528 0.0
C314 C 0.45391 0.01608 0.35991 0.0
C315 C 0.44695 0.03289 0.35456 0.0
C316 C 0.48511 0.03779 0.30453 0.0
N317 N 0.47682 0.05293 0.29701 0.0
H318 H 0.45165 0.06271 0.31645 0.0
H319 H 0.49936 0.03894 0.28418 0.0
H320 H 0.45256 0.0195 0.23305 0.0
H321 H 0.50607 0.06799 0.14638 0.0
O322 O 0.45589 0.06855 0.22705 0.0
O323 O 0.48878 0.09424 0.19173 0.0
O324 O 0.52106 0.08537 0.25583 0.0
C325 C 0.4659 0.08387 0.19408 0.0
H326 H 0.50862 0.13191 0.38067 0.0
H327 H 0.4558 0.99636 0.16186 0.0
H328 H 0.47927 1.00605 0.33853 0.0
H329 H 0.43171 0.03119 0.37268 0.0
Co330 Co 0.95402 0.41267 0.23687 0.0
C331 C 0.91704 0.36833 0.28139 0.0
C332 C 0.92334 0.3989 0.31969 0.0
C333 C 0.90705 0.37927 0.34351 0.0
N334 N 0.92958 0.39209 0.28051 0.0
N335 N 0.90318 0.36003 0.31946 0.0
H336 H 0.9182 0.35717 0.25523 0.0
H337 H 0.93079 0.41688 0.33122 0.0
C338 C 0.95377 0.45926 0.23964 0.0
O339 O 0.97314 0.47008 0.21521 0.0
N340 N 0.97835 0.43253 0.1928 0.0
C341 C 1.00097 0.43775 0.19357 0.0
C342 C 1.01206 0.4504 0.15431 0.0
C343 C 0.97575 0.44102 0.15171 0.0
N344 N 0.99625 0.45264 0.12814 0.0
C345 C 0.97809 0.40575 0.31024 0.0
C346 C 1.0104 0.45206 0.32956 0.0
C347 C 1.01239 0.43415 0.352 0.0
C348 C 0.99566 0.41079 0.34247 0.0
C349 C 0.99213 0.44618 0.29765 0.0
N350 N 0.9766 0.4232 0.28757 0.0
H351 H 0.96605 0.38757 0.30212 0.0
H352 H 0.99142 0.46011 0.27949 0.0
H353 H 1.00888 0.43248 0.22046 0.0
H354 H 0.95922 0.43902 0.13978 0.0
O355 O 0.95848 0.38749 0.21666 0.0
O356 O 0.93304 0.39617 0.18479 0.0
O357 O 0.9449 0.43756 0.25066 0.0
C358 C 0.94266 0.3829 0.18516 0.0
H359 H 0.89935 0.37922 0.37682 0.0
H360 H 0.03049 0.45773 0.14614 0.0
H361 H 0.02303 0.47034 0.33605 0.0
H362 H 0.99669 0.39637 0.35831 0.0
Co363 Co 0.62034 0.54616 0.24663 0.0
C364 C 0.66162 0.55663 0.30633 0.0
C365 C 0.63781 0.51974 0.3018 0.0
C366 C 0.65777 0.52325 0.32435 0.0
N367 N 0.63978 0.5407 0.29128 0.0
N368 N 0.67288 0.54649 0.32691 0.0
H369 H 0.66979 0.57526 0.29977 0.0
H370 H 0.62401 0.50285 0.29016 0.0
C371 C 0.58349 0.50153 0.28885 0.0
O372 O 0.5893 0.51253 0.32898 0.0
N373 N 0.60197 0.55158 0.2006 0.0
C374 C 0.60269 0.57215 0.19287 0.0
C375 C 0.58764 0.56926 0.15707 0.0
C376 C 0.58662 0.53646 0.1691 0.0
N377 N 0.57743 0.5468 0.14207 0.0
C378 C 0.62071 0.5728 0.32579 0.0
C379 C 0.57422 0.5615 0.32002 0.0
C380 C 0.58924 0.57924 0.35064 0.0
C381 C 0.61254 0.58433 0.35429 0.0
C382 C 0.58301 0.54991 0.29279 0.0
N383 N 0.60619 0.55598 0.29508 0.0
H384 H 0.63915 0.5787 0.32642 0.0
H385 H 0.57142 0.53688 0.26806 0.0
H386 H 0.61345 0.58817 0.21203 0.0
H387 H 0.58219 0.51828 0.16638 0.0
O388 O 0.64608 0.57664 0.23354 0.0
O389 O 0.63955 0.54427 0.19672 0.0
O390 O 0.59461 0.51199 0.25175 0.0
C391 C 0.65257 0.567 0.20187 0.0
H392 H 0.66165 0.50963 0.33422 0.0
H393 H 0.5848 0.58288 0.14278 0.0
H394 H 0.55609 0.55712 0.3162 0.0
H395 H 0.62484 0.59829 0.37679 0.0
Co396 Co 0.54754 0.94519 0.75466 0.0
C397 C 0.55351 0.90725 0.71035 0.0
C398 C 0.53102 0.91529 0.67021 0.0
C399 C 0.53422 0.89878 0.64644 0.0
N400 N 0.54323 0.92071 0.71037 0.0
N401 N 0.54857 0.89393 0.6717 0.0
H402 H 0.56455 0.9071 0.73772 0.0
H403 H 0.52118 0.92343 0.65811 0.0
C404 C 0.49998 0.94389 0.75479 0.0
O405 O 0.50848 0.96368 0.77784 0.0
N406 N 0.55235 0.9694 0.79944 0.0
C407 C 0.57042 0.99168 0.79989 0.0
C408 C 0.56873 1.00286 0.83898 0.0
C409 C 0.54071 0.96699 0.83971 0.0
N410 N 0.54987 0.98739 0.86368 0.0
C411 C 0.57615 0.96949 0.67776 0.0
C412 C 0.56349 1.00364 0.66918 0.0
C413 C 0.58277 1.00594 0.6439 0.0
C414 C 0.58851 0.98814 0.64732 0.0
C415 C 0.55112 0.98424 0.69857 0.0
N416 N 0.55808 0.96791 0.70391 0.0
H417 H 0.58207 0.95694 0.68237 0.0
H418 H 0.5373 0.9836 0.71943 0.0
H419 H 0.584 0.99931 0.77367 0.0
H420 H 0.52551 0.95076 0.85067 0.0
O421 O 0.57788 0.95008 0.77156 0.0
O422 O 0.54475 0.9247 0.80662 0.0
O423 O 0.51306 0.93522 0.74393 0.0
C424 C 0.56757 0.93443 0.80379 0.0
H425 H 0.52724 0.89163 0.61246 0.0
H426 H 0.58014 0.02112 0.84793 0.0
H427 H 0.55856 0.0171 0.6675 0.0
H428 H 0.60349 0.98937 0.62893 0.0
Co429 Co 0.08709 0.61038 0.76221 0.0
C430 C 0.11956 0.65274 0.70567 0.0
C431 C 0.1342 0.63087 0.7213 0.0
C432 C 0.15141 0.65122 0.70151 0.0
N433 N 0.11382 0.63128 0.72293 0.0
N434 N 0.1422 0.66496 0.69175 0.0
H435 H 0.10837 0.66043 0.70759 0.0
H436 H 0.13721 0.61771 0.7372 0.0
C437 C 0.09887 0.57711 0.71686 0.0
O438 O 0.09671 0.58625 0.67781 0.0
N439 N 0.06169 0.59031 0.80363 0.0
C440 C 0.04086 0.58946 0.80791 0.0
C441 C 0.02789 0.57321 0.84156 0.0
C442 C 0.06128 0.57485 0.83503 0.0
N443 N 0.04072 0.56401 0.85863 0.0
C444 C 0.06312 0.61306 0.6812 0.0
C445 C 0.0293 0.56602 0.67836 0.0
C446 C 0.02678 0.5819 0.64981 0.0
C447 C 0.04437 0.60551 0.65048 0.0
C448 C 0.04888 0.57424 0.70776 0.0
N449 N 0.06523 0.59768 0.70987 0.0
H450 H 0.07483 0.63157 0.68413 0.0
H451 H 0.05006 0.56196 0.73107 0.0
H452 H 0.03551 0.59995 0.78793 0.0
H453 H 0.07569 0.57153 0.84021 0.0
O454 O 0.08146 0.63556 0.77634 0.0
O455 O 0.1059 0.62805 0.81597 0.0
O456 O 0.09601 0.58491 0.75579 0.0
C457 C 0.0962 0.6411 0.81035 0.0
H458 H 0.16965 0.65609 0.69704 0.0
H459 H 1.01051 0.56887 0.85315 0.0
H460 H 1.01595 0.54763 0.679 0.0
H461 H 0.04279 0.61844 0.62975 0.0
Co462 Co 0.42013 0.48115 0.77409 0.0
C463 C 0.38016 0.4732 0.71226 0.0
C464 C 0.40425 0.50962 0.72331 0.0
C465 C 0.38503 0.50752 0.70003 0.0
N466 N 0.40165 0.48811 0.73007 0.0
N467 N 0.36972 0.48454 0.69318 0.0
H468 H 0.37138 0.45447 0.71669 0.0
H469 H 0.41816 0.52575 0.73778 0.0
C470 C 0.4565 0.5217 0.72082 0.0
O471 O 0.44644 0.50912 0.68349 0.0
N472 N 0.43789 0.47462 0.81938 0.0
C473 C 0.43629 0.45367 0.82716 0.0
C474 C 0.45099 0.45598 0.86333 0.0
C475 C 0.45333 0.48937 0.85113 0.0
N476 N 0.46169 0.47842 0.87862 0.0
C477 C 0.41203 0.44625 0.70546 0.0
C478 C 0.45828 0.45796 0.69255 0.0
C479 C 0.4406 0.43832 0.6693 0.0
C480 C 0.41726 0.43262 0.67616 0.0
C481 C 0.45224 0.4714 0.72138 0.0
N482 N 0.42929 0.46578 0.72681 0.0
H483 H 0.39391 0.44006 0.713 0.0
H484 H 0.46596 0.48585 0.74062 0.0
H485 H 0.42515 0.4378 0.80789 0.0
H486 H 0.45786 0.50755 0.85458 0.0
O487 O 0.39196 0.45388 0.79451 0.0
O488 O 0.40575 0.48961 0.82417 0.0
O489 O 0.44858 0.51308 0.76114 0.0
C490 C 0.38942 0.46756 0.82356 0.0
H491 H 0.38192 0.52185 0.69218 0.0
H492 H 0.45364 0.44213 0.87695 0.0
H493 H 0.47654 0.46277 0.68884 0.0
H494 H 0.40296 0.41704 0.66055 0.0
Co495 Co 0.15603 0.41143 0.57961 0.0
C496 C 0.15013 0.4488 0.62664 0.0
C497 C 0.17591 0.44332 0.66082 0.0
C498 C 0.17312 0.45983 0.68559 0.0
N499 N 0.16144 0.43636 0.62368 0.0
N500 N 0.15671 0.46308 0.6641 0.0
H501 H 0.13714 0.44748 0.60227 0.0
H502 H 0.18718 0.43634 0.67022 0.0
C503 C 0.20355 0.41288 0.57443 0.0
O504 O 0.19473 0.39307 0.55136 0.0
N505 N 0.15004 0.38665 0.53524 0.0
C506 C 0.13263 0.36413 0.53803 0.0
C507 C 0.13342 0.35219 0.49942 0.0
C508 C 0.16019 0.38842 0.49331 0.0
N509 N 0.15092 0.36739 0.4715 0.0
C510 C 0.12966 0.38787 0.65956 0.0
C511 C 0.14361 0.35462 0.66691 0.0
C512 C 0.12502 0.35241 0.69428 0.0
C513 C 0.11859 0.36969 0.6916 0.0
C514 C 0.15474 0.37357 0.6361 0.0
N515 N 0.14709 0.3894 0.63135 0.0
H516 H 0.12326 0.40007 0.65559 0.0
H517 H 0.16806 0.37416 0.61372 0.0
H518 H 0.12007 0.35682 0.56613 0.0
H519 H 0.17479 0.40455 0.48018 0.0
O520 O 0.12529 0.40631 0.56599 0.0
O521 O 0.15755 0.43137 0.52786 0.0
O522 O 0.19065 0.42155 0.58649 0.0
C523 C 0.13485 0.42179 0.53314 0.0
H524 H 0.18192 0.46816 0.7177 0.0
H525 H 0.12192 0.33371 0.49241 0.0
H526 H 0.14886 0.34139 0.66804 0.0
H527 H 0.10411 0.36835 0.71207 0.0
Co528 Co 0.61359 0.74458 0.56494 0.0
C529 C 0.58314 0.70362 0.62578 0.0
C530 C 0.56948 0.72692 0.61889 0.0
C531 C 0.55332 0.70719 0.64248 0.0
N532 N 0.58869 0.72516 0.60942 0.0
N533 N 0.56186 0.6924 0.64668 0.0
H534 H 0.59348 0.69536 0.6191 0.0
H535 H 0.56634 0.74058 0.60618 0.0
C536 C 0.60732 0.78032 0.61659 0.0
O537 O 0.61071 0.77122 0.65448 0.0
N538 N 0.63754 0.76298 0.51942 0.0
C539 C 0.6566 0.76103 0.5104 0.0
C540 C 0.66923 0.77635 0.47529 0.0
C541 C 0.63867 0.77934 0.48939 0.0
N542 N 0.65804 0.78795 0.46201 0.0
C543 C 0.6409 0.73903 0.63656 0.0
C544 C 0.67492 0.78583 0.64367 0.0
C545 C 0.67738 0.76909 0.66936 0.0
C546 C 0.65997 0.74553 0.66597 0.0
C547 C 0.65507 0.7786 0.61541 0.0
N548 N 0.63819 0.75537 0.61231 0.0
H549 H 0.62921 0.72067 0.63142 0.0
H550 H 0.65375 0.79157 0.59453 0.0
H551 H 0.66094 0.74915 0.52805 0.0
H552 H 0.62566 0.78484 0.48785 0.0
O553 O 0.61458 0.71716 0.54518 0.0
O554 O 0.59113 0.72907 0.51497 0.0
O555 O 0.60814 0.772 0.57678 0.0
C556 C 0.59819 0.7137 0.51578 0.0
H557 H 0.53583 0.70331 0.65222 0.0
H558 H 0.68519 0.77835 0.46011 0.0
H559 H 0.68832 0.80419 0.64489 0.0
H560 H 0.6617 0.73203 0.68422 0.0
Co561 Co 0.28084 0.87768 0.56934 0.0
C562 C 0.32443 0.88273 0.61414 0.0
C563 C 0.29307 0.85869 0.65067 0.0
C564 C 0.31212 0.86063 0.67459 0.0
N565 N 0.30072 0.87255 0.6127 0.0
N566 N 0.33183 0.87576 0.65161 0.0
H567 H 0.33622 0.89574 0.58964 0.0
H568 H 0.2749 0.84833 0.66111 0.0
C569 C 0.23365 0.8313 0.57254 0.0
O570 O 0.22228 0.84038 0.55164 0.0
N571 N 0.2615 0.88305 0.52553 0.0
C572 C 0.25772 0.90142 0.52581 0.0
C573 C 0.24395 0.89957 0.48828 0.0
C574 C 0.25112 0.87105 0.48623 0.0
N575 N 0.23949 0.88027 0.46365 0.0
C576 C 0.28729 0.90726 0.64564 0.0
C577 C 0.24122 0.89612 0.65861 0.0
C578 C 0.25902 0.91527 0.68268 0.0
C579 C 0.28222 0.92032 0.6768 0.0
C580 C 0.24706 0.88317 0.62808 0.0
N581 N 0.26998 0.88926 0.62076 0.0
H582 H 0.30548 0.91253 0.63958 0.0
H583 H 0.23321 0.8695 0.60836 0.0
H584 H 0.2646 0.91532 0.55143 0.0
H585 H 0.25123 0.85528 0.47572 0.0
O586 O 0.30638 0.90748 0.55148 0.0
O587 O 0.29777 0.87388 0.51714 0.0
O588 O 0.25575 0.8436 0.58044 0.0
C589 C 0.31112 0.89669 0.51921 0.0
H590 H 0.31147 0.85174 0.7067 0.0
H591 H 0.2378 0.91165 0.47981 0.0
H592 H 0.22303 0.89159 0.66237 0.0
H593 H 0.2966 0.93514 0.69418 0.0
H594 H 0.28755 0.29061 0.1396 0.0
H595 H 0.22634 0.23562 0.2086 0.0
H596 H 0.31243 0.28006 0.18222 0.0
H597 H 0.25184 0.2246 0.25178 0.0
H598 H 0.31514 0.24098 0.35748 0.0
H599 H 0.28332 0.24092 0.31275 0.0
H600 H 0.3221 0.24933 0.18596 0.0
H601 H 0.35408 0.25037 0.23099 0.0
C602 C 0.27929 0.27607 0.16377 0.0
C603 C 0.25486 0.26392 0.17056 0.0
C604 C 0.29366 0.26983 0.18797 0.0
C605 C 0.28415 0.25115 0.21977 0.0
C606 C 0.25969 0.23903 0.22731 0.0
C607 C 0.24511 0.24532 0.2027 0.0
C608 C 0.3164 0.24209 0.3199 0.0
C609 C 0.33697 0.24578 0.29748 0.0
C610 C 0.29822 0.24204 0.29429 0.0
C611 C 0.30038 0.24561 0.24589 0.0
C612 C 0.32012 0.24711 0.22332 0.0
C613 C 0.33835 0.24749 0.24891 0.0
H614 H 0.77642 0.98281 0.23947 0.0
H615 H 0.78421 0.02109 0.11279 0.0
H616 H 0.78381 0.01763 0.28478 0.0
H617 H 0.79324 0.05595 0.15694 0.0
H618 H 0.76243 0.09287 0.2409 0.0
H619 H 0.7664 0.06324 0.19821 0.0
H620 H 0.80849 0.05909 0.30931 0.0
H621 H 0.80373 0.08857 0.35313 0.0
C622 C 0.78074 0.99895 0.22143 0.0
C623 C 0.77978 0.99935 0.17272 0.0
C624 C 0.78498 0.01888 0.24723 0.0
C625 C 0.7886 0.03946 0.22444 0.0
C626 C 0.78987 0.04027 0.17568 0.0
C627 C 0.78505 0.02036 0.15025 0.0
C628 C 0.77274 0.08583 0.25607 0.0
C629 C 0.78268 0.09298 0.30038 0.0
C630 C 0.77524 0.06896 0.2314 0.0
C631 C 0.7879 0.0588 0.25017 0.0
C632 C 0.79854 0.06647 0.29398 0.0
C633 C 0.79605 0.08352 0.31879 0.0
H634 H 0.04289 0.75186 0.16109 0.0
H635 H 0.03141 0.80958 0.19363 0.0
H636 H 1.0113 0.7265 0.21327 0.0
H637 H 0.99894 0.78356 0.24616 0.0
H638 H 0.92397 0.70545 0.2712 0.0
H639 H 0.95586 0.73921 0.22998 0.0
H640 H 1.00696 0.72981 0.30683 0.0
H641 H 0.97552 0.69658 0.34786 0.0
C642 C 0.03357 0.75914 0.17946 0.0
C643 C 0.03962 0.7827 0.17339 0.0
C644 C 1.01551 0.74461 0.20942 0.0
C645 C 1.00278 0.75312 0.23367 0.0
C646 C 1.00857 0.77666 0.22767 0.0
C647 C 0.02715 0.7915 0.19803 0.0
C648 C 0.94204 0.71105 0.27997 0.0
C649 C 0.94733 0.6981 0.3118 0.0
C650 C 0.96021 0.73036 0.25664 0.0
C651 C 0.98377 0.73688 0.26514 0.0
C652 C 0.98893 0.725 0.29951 0.0
C653 C 0.97094 0.7059 0.32266 0.0
H654 H 0.72235 0.78581 0.63926 0.0
H655 H 0.67923 0.76469 0.76248 0.0
H656 H 0.75427 0.78554 0.68321 0.0
H657 H 0.71111 0.76513 0.80678 0.0
H658 H 0.75048 0.72759 0.84367 0.0
H659 H 0.72437 0.73665 0.80089 0.0
H660 H 0.78368 0.80047 0.74956 0.0
H661 H 0.81036 0.79109 0.79285 0.0
C662 C 0.7201 0.78201 0.67617 0.0
C663 C 0.69842 0.77519 0.69766 0.0
C664 C 0.73831 0.78182 0.7013 0.0
C665 C 0.73503 0.77482 0.74822 0.0
C666 C 0.714 0.77006 0.7704 0.0
C667 C 0.69582 0.77001 0.74528 0.0
C668 C 0.75812 0.74359 0.82333 0.0
C669 C 0.78252 0.75872 0.82197 0.0
C670 C 0.74306 0.74891 0.79904 0.0
C671 C 0.75187 0.76959 0.77271 0.0
C672 C 0.77637 0.78447 0.76984 0.0
C673 C 0.79162 0.77909 0.79443 0.0
H674 H 0.26099 0.04206 0.76728 0.0
H675 H 0.2588 1.00751 0.89619 0.0
H676 H 0.25267 1.00628 0.72449 0.0
H677 H 0.24889 0.97171 0.85473 0.0
H678 H 0.27654 0.9327 0.76823 0.0
H679 H 0.27397 0.96328 0.81036 0.0
H680 H 0.22765 0.96443 0.70495 0.0
H681 H 0.23105 0.93409 0.66153 0.0
C682 C 0.25779 0.02655 0.78647 0.0
C683 C 0.26062 0.0275 0.83492 0.0
C684 C 0.253 1.00606 0.76213 0.0
C685 C 0.25064 0.98627 0.78617 0.0
C686 C 0.25129 0.98679 0.83496 0.0
C687 C 0.25667 1.00726 0.85887 0.0
C688 C 0.26561 0.93929 0.75423 0.0
C689 C 0.25409 0.93106 0.71153 0.0
C690 C 0.26392 0.95671 0.7786 0.0
C691 C 0.25049 0.96632 0.76118 0.0
C692 C 0.23825 0.95752 0.71917 0.0
C693 C 0.23996 0.93996 0.69464 0.0
H694 H 1.01431 0.28031 0.87513 0.0
H695 H 1.00921 0.22004 0.80367 0.0
H696 H 0.05075 0.30561 0.83609 0.0
H697 H 0.04676 0.24584 0.7645 0.0
H698 H 0.0945 0.30897 0.66176 0.0
H699 H 0.06276 0.27698 0.70565 0.0
H700 H 0.09091 0.31628 0.83278 0.0
H701 H 0.12178 0.34858 0.78825 0.0
C702 C 0.0211 0.27236 0.85126 0.0
C703 C 1.00877 0.2481 0.84242 0.0
C704 C 0.04229 0.28694 0.8292 0.0
C705 C 0.05201 0.27779 0.7977 0.0
C706 C 0.03975 0.25345 0.78866 0.0
C707 C 1.01829 0.23869 0.81098 0.0
C708 C 0.09419 0.31032 0.69928 0.0
C709 C 0.11037 0.33111 0.72185 0.0
C710 C 0.07606 0.29202 0.72445 0.0
C711 C 0.07398 0.29426 0.77262 0.0
C712 C 0.09163 0.31425 0.79554 0.0
C713 C 0.10945 0.33265 0.77028 0.0
H714 H 0.94958 0.62705 0.50697 0.0
H715 H 0.89186 0.55645 0.52554 0.0
H716 H 0.97571 0.61671 0.54633 0.0
H717 H 0.91861 0.54594 0.56601 0.0
H718 H 0.98149 0.56036 0.68149 0.0
H719 H 0.94801 0.55988 0.64222 0.0
H720 H 0.99023 0.58853 0.5188 0.0
H721 H 0.02351 0.58927 0.55799 0.0
C722 C 0.94241 0.60928 0.51993 0.0
C723 C 0.91874 0.59247 0.51271 0.0
C724 C 0.95746 0.60334 0.54225 0.0
C725 C 0.94935 0.58037 0.55805 0.0
C726 C 0.92531 0.56373 0.55365 0.0
C727 C 0.91003 0.56974 0.53088 0.0
C728 C 0.98324 0.56569 0.64538 0.0
C729 C 1.00511 0.57508 0.6228 0.0
C730 C 0.96412 0.56544 0.62301 0.0
C731 C 0.9667 0.57456 0.57784 0.0
C732 C 0.98788 0.58171 0.5539 0.0
C733 C 1.0069 0.58208 0.5762 0.0
H734 H 0.47036 0.42095 0.68663 0.0
H735 H 0.4221 0.42069 0.58452 0.0
H736 H 0.47507 0.39223 0.63992 0.0
H737 H 0.42603 0.39176 0.53918 0.0
H738 H 0.44496 0.35229 0.44604 0.0
H739 H 0.45225 0.38639 0.49132 0.0
H740 H 0.45201 0.35041 0.61733 0.0
H741 H 0.44606 0.31643 0.57079 0.0
C742 C 0.46105 0.41503 0.65393 0.0
C743 C 0.44582 0.42304 0.63926 0.0
C744 C 0.46353 0.3984 0.62748 0.0
C745 C 0.45101 0.38968 0.58567 0.0
C746 C 0.43633 0.39831 0.57067 0.0
C747 C 0.43385 0.41477 0.59694 0.0
C748 C 0.44718 0.3519 0.48328 0.0
C749 C 0.44489 0.33174 0.50497 0.0
C750 C 0.4511 0.37138 0.50937 0.0
C751 C 0.45206 0.37096 0.55814 0.0
C752 C 0.45138 0.35135 0.57981 0.0
C753 C 0.44796 0.33189 0.55329 0.0
H754 H 0.59919 1.00918 0.55588 0.0
H755 H 0.6028 0.05148 0.67393 0.0
H756 H 0.63275 0.04315 0.52093 0.0
H757 H 0.63662 0.0857 0.63863 0.0
H758 H 0.69094 0.14126 0.5196 0.0
H759 H 0.65329 0.11363 0.55744 0.0
H760 H 0.67457 0.06118 0.56173 0.0
H761 H 0.71154 0.08832 0.52473 0.0
C762 C 0.60678 0.02592 0.57371 0.0
C763 C 0.59862 0.02764 0.61782 0.0
C764 C 0.62597 0.04533 0.55379 0.0
C765 C 0.63745 0.06687 0.57756 0.0
C766 C 0.62803 0.06927 0.61967 0.0
C767 C 0.60868 0.04973 0.63972 0.0
C768 C 0.68772 0.12407 0.5301 0.0
C769 C 0.70397 0.11678 0.51921 0.0
C770 C 0.66621 0.10826 0.55127 0.0
C771 C 0.66092 0.08516 0.56131 0.0
C772 C 0.678 0.07871 0.55335 0.0
C773 C 0.69922 0.0943 0.53251 0.0
H774 H 0.41878 0.05965 0.18609 0.0
H775 H 0.48007 0.12178 0.13483 0.0
H776 H 0.39362 0.07023 0.14386 0.0
H777 H 0.45438 0.13267 0.0921 0.0
H778 H 0.39333 0.12028 0.98282 0.0
H779 H 0.42464 0.11855 0.02607 0.0
H780 H 0.3824 0.10041 0.15072 0.0
H781 H 0.35109 0.10148 0.10721 0.0
C782 C 0.42693 0.07565 0.16572 0.0
C783 C 0.45144 0.08998 0.16411 0.0
C784 C 0.41244 0.08184 0.14178 0.0
C785 C 0.42196 0.1026 0.11555 0.0
C786 C 0.44655 0.11664 0.11234 0.0
C787 C 0.46122 0.11039 0.1366 0.0
C788 C 0.39116 0.11667 0.0198 0.0
C789 C 0.36982 0.11082 0.04178 0.0
C790 C 0.40903 0.11564 0.04451 0.0
C791 C 0.40575 0.10881 0.09152 0.0
C792 C 0.38522 0.10515 0.11425 0.0
C793 C 0.36737 0.10594 0.08955 0.0
H794 H 0.90304 0.35965 0.12961 0.0
H795 H 0.96575 0.3591 0.17305 0.0
H796 H 0.89004 0.32224 0.08793 0.0
H797 H 0.95286 0.32246 0.1327 0.0
H798 H 0.91871 0.24846 0.1066 0.0
H799 H 0.9184 0.28084 0.14766 0.0
H800 H 0.90632 0.30626 0.01806 0.0
H801 H 0.90615 0.27336 0.977 0.0
C802 C 0.91409 0.35173 0.12988 0.0
C803 C 0.93528 0.36217 0.15497 0.0
C804 C 0.90661 0.33035 0.10637 0.0
C805 C 0.92016 0.31919 0.10831 0.0
C806 C 0.94171 0.33027 0.1318 0.0
C807 C 0.94916 0.35142 0.15467 0.0
C808 C 0.915 0.2604 0.08727 0.0
C809 C 0.9126 0.25861 0.03879 0.0
C810 C 0.91493 0.27896 0.11061 0.0
C811 C 0.91281 0.29626 0.0858 0.0
C812 C 0.90794 0.29313 0.03795 0.0
C813 C 0.90781 0.27434 0.01453 0.0
H814 H 0.6764 0.61423 0.19995 0.0
H815 H 0.67727 0.55389 0.14233 0.0
H816 H 0.7119 0.64012 0.15867 0.0
H817 H 0.7139 0.5804 0.10078 0.0
H818 H 0.75922 0.64138 0.99103 0.0
H819 H 0.72829 0.60958 0.03694 0.0
H820 H 0.75292 0.65344 0.15948 0.0
H821 H 0.78292 0.68538 0.11289 0.0
C822 C 0.68433 0.60643 0.17867 0.0
C823 C 0.67402 0.58195 0.17459 0.0
C824 C 0.70495 0.62138 0.15528 0.0
C825 C 0.71613 0.6124 0.12719 0.0
C826 C 0.70574 0.58785 0.12236 0.0
C827 C 0.68481 0.5727 0.14599 0.0
C828 C 0.75833 0.64383 0.02809 0.0
C829 C 0.77321 0.66571 0.04864 0.0
C830 C 0.74068 0.62565 0.05439 0.0
C831 C 0.73781 0.62914 0.10166 0.0
C832 C 0.75426 0.65039 0.12287 0.0
C833 C 0.77158 0.66861 0.09646 0.0
H834 H 0.60249 0.9284 0.77109 0.0
H835 H 0.5645 0.92325 0.89704 0.0
H836 H 0.6289 0.91976 0.8138 0.0
H837 H 0.59272 0.91676 0.94159 0.0
H838 H 0.64443 0.89786 0.00843 0.0
H839 H 0.61138 0.89466 0.96299 0.0
H840 H 0.66033 0.94216 0.86077 0.0
H841 H 0.69259 0.94393 0.904 0.0
C842 C 0.59973 0.92527 0.80815 0.0
C843 C 0.58147 0.92654 0.83081 0.0
C844 C 0.61514 0.92063 0.83288 0.0
C845 C 0.61354 0.91829 0.88152 0.0
C846 C 0.59451 0.91842 0.90415 0.0
C847 C 0.57841 0.92225 0.87882 0.0
C848 C 0.64794 0.90704 0.97554 0.0
C849 C 0.67117 0.92127 0.95995 0.0
C850 C 0.62903 0.90549 0.94984 0.0
C851 C 0.63302 0.91813 0.90805 0.0
C852 C 0.65628 0.93172 0.89212 0.0
C853 C 0.67497 0.93304 0.91734 0.0
H854 H 0.06707 0.65791 0.82615 0.0
H855 H 0.13663 0.67091 0.85925 0.0
H856 H 0.0755 0.69429 0.86342 0.0
H857 H 0.1454 0.70823 0.89676 0.0
H858 H 0.13409 0.75931 0.0018 0.0
H859 H 0.13366 0.72561 0.9638 0.0
H860 H 0.10002 0.73562 0.84392 0.0
H861 H 0.09986 0.76863 0.88244 0.0
C862 C 0.08424 0.66859 0.84164 0.0
C863 C 0.10127 0.66166 0.83941 0.0
C864 C 0.08915 0.68961 0.86266 0.0
C865 C 0.11136 0.70455 0.88185 0.0
C866 C 0.12818 0.69716 0.88188 0.0
C867 C 0.12315 0.67581 0.86072 0.0
C868 C 0.12729 0.75467 0.96673 0.0
C869 C 0.11686 0.76639 0.94505 0.0
C870 C 0.12699 0.73536 0.94505 0.0
C871 C 0.11629 0.72759 0.90134 0.0
C872 C 0.10783 0.74077 0.87814 0.0
C873 C 0.10792 0.7598 0.89991 0.0
H874 H 0.27647 0.39098 0.02424 0.0
H875 H 0.26617 0.35086 0.89893 0.0
H876 H 0.30716 0.42621 0.98529 0.0
H877 H 0.2967 0.38562 0.86023 0.0
H878 H 0.34583 0.44962 0.78952 0.0
H879 H 0.30918 0.42457 0.8304 0.0
H880 H 0.34756 0.43737 0.9592 0.0
H881 H 0.38427 0.46314 0.9179 0.0
C882 C 0.28031 0.38991 0.98797 0.0
C883 C 0.26902 0.36828 0.96446 0.0
C884 C 0.29801 0.40996 0.96587 0.0
C885 C 0.30445 0.40873 0.91974 0.0
C886 C 0.29202 0.38734 0.89556 0.0
C887 C 0.27458 0.36735 0.91771 0.0
C888 C 0.34626 0.44769 0.82685 0.0
C889 C 0.3677 0.45817 0.85074 0.0
C890 C 0.32533 0.43324 0.85022 0.0
C891 C 0.32549 0.4286 0.89787 0.0
C892 C 0.34681 0.44069 0.92253 0.0
C893 C 0.36782 0.45543 0.89903 0.0
H894 H 0.05946 0.46476 0.33882 0.0
H895 H 1.00999 0.41385 0.43539 0.0
H896 H 0.09201 0.46706 0.38467 0.0
H897 H 0.04183 0.41489 0.4791 0.0
H898 H 0.09888 0.42535 0.56851 0.0
H899 H 0.07263 0.43533 0.52892 0.0
H900 H 0.11038 0.44413 0.40033 0.0
H901 H 0.13831 0.43612 0.44193 0.0
C902 C 0.05558 0.45442 0.37029 0.0
C903 C 0.0322 0.43902 0.38344 0.0
C904 C 0.07419 0.45544 0.39615 0.0
C905 C 0.06969 0.44109 0.43558 0.0
C906 C 0.04622 0.42657 0.44958 0.0
C907 C 0.02782 0.42574 0.42418 0.0
C908 C 0.10191 0.42987 0.53195 0.0
C909 C 0.1205 0.42977 0.50812 0.0
C910 C 0.08666 0.43539 0.50904 0.0
C911 C 0.08885 0.43989 0.46101 0.0
C912 C 0.10816 0.44084 0.43739 0.0
C913 C 0.12406 0.43608 0.46098 0.0
H914 H 0.57242 0.66975 0.54807 0.0
H915 H 0.60061 0.70929 0.42191 0.0
H916 H 0.56276 0.6335 0.50719 0.0
H917 H 0.59144 0.67302 0.38051 0.0
H918 H 0.5678 0.6022 0.31444 0.0
H919 H 0.5627 0.63281 0.35242 0.0
H920 H 0.59018 0.62131 0.48008 0.0
H921 H 0.59497 0.59078 0.44234 0.0
C922 C 0.57598 0.67049 0.51121 0.0
C923 C 0.58723 0.69211 0.488 0.0
C924 C 0.57058 0.64981 0.48782 0.0
C925 C 0.57669 0.65041 0.44079 0.0
C926 C 0.58635 0.67193 0.41666 0.0
C927 C 0.59161 0.69268 0.4402 0.0
C928 C 0.57206 0.6058 0.351 0.0
C929 C 0.5818 0.59419 0.37554 0.0
C930 C 0.56937 0.62346 0.37256 0.0
C931 C 0.57611 0.62956 0.41918 0.0
C932 C 0.58453 0.61689 0.4443 0.0
C933 C 0.58741 0.59947 0.42269 0.0
H934 H 0.33983 0.8827 0.47603 0.0
H935 H 0.32958 0.94211 0.49693 0.0
H936 H 0.37818 0.90891 0.4393 0.0
H937 H 0.36716 0.96778 0.46098 0.0
H938 H 0.44214 0.01373 0.45085 0.0
H939 H 0.40853 0.98109 0.48892 0.0
H940 H 0.39639 0.93807 0.36712 0.0
H941 H 0.43055 0.97081 0.32929 0.0
C942 C 0.34553 0.90117 0.47192 0.0
C943 C 0.3319 0.91046 0.48962 0.0
C944 C 0.36747 0.91614 0.45135 0.0
C945 C 0.3759 0.94046 0.44865 0.0
C946 C 0.36149 0.94926 0.46394 0.0
C947 C 0.33984 0.93449 0.48417 0.0
C948 C 0.43283 0.99701 0.43298 0.0
C949 C 0.43876 0.99474 0.38721 0.0
C950 C 0.41352 0.9784 0.45453 0.0
C951 C 0.39956 0.95727 0.43046 0.0
C952 C 0.40684 0.95417 0.38638 0.0
C953 C 0.42639 0.97284 0.36485 0.0
H954 H 0.17234 0.39548 0.39698 0.0
H955 H 0.14894 0.32617 0.45191 0.0
H956 H 0.18718 0.3856 0.32759 0.0
H957 H 0.16414 0.31643 0.38372 0.0
H958 H 0.17693 0.29751 0.24088 0.0
H959 H 0.15905 0.30786 0.30369 0.0
H960 H 0.2175 0.37888 0.30208 0.0
H961 H 0.23462 0.369 0.23755 0.0
C962 C 0.17044 0.37818 0.39431 0.0
C963 C 0.15932 0.3616 0.42989 0.0
C964 C 0.179 0.37249 0.35459 0.0
C965 C 0.17686 0.35013 0.34973 0.0
C966 C 0.16568 0.3336 0.38545 0.0
C967 C 0.15697 0.33922 0.4248 0.0
C968 C 0.18588 0.31543 0.25327 0.0
C969 C 0.20748 0.33226 0.23394 0.0
C970 C 0.1757 0.32133 0.2899 0.0
C971 C 0.18688 0.3442 0.30855 0.0
C972 C 0.20819 0.36115 0.28857 0.0
C973 C 0.21826 0.35531 0.25174 0.0
H974 H 0.63081 0.80077 0.41254 0.0
H975 H 0.7022 0.81524 0.42832 0.0
H976 H 0.64331 0.82926 0.34921 0.0
H977 H 0.71453 0.84339 0.36499 0.0
H978 H 0.72285 0.87271 0.21662 0.0
H979 H 0.71033 0.84456 0.28049 0.0
H980 H 0.66714 0.87161 0.33451 0.0
H981 H 0.67976 0.89983 0.27126 0.0
C982 C 0.64917 0.81009 0.40289 0.0
C983 C 0.6654 0.80545 0.42556 0.0
C984 C 0.65635 0.82643 0.36646 0.0
C985 C 0.67992 0.83851 0.3517 0.0
C986 C 0.69617 0.83408 0.37475 0.0
C987 C 0.68903 0.81786 0.4112 0.0
C988 C 0.71087 0.87284 0.24228 0.0
C989 C 0.7023 0.8886 0.23835 0.0
C990 C 0.70365 0.85665 0.27895 0.0
C991 C 0.68762 0.85573 0.3126 0.0
C992 C 0.67915 0.87152 0.3088 0.0
C993 C 0.68643 0.88776 0.27234 0.0
H994 H 0.14372 0.78965 0.24938 0.0
H995 H 0.14946 0.85729 0.22596 0.0
H996 H 0.17068 0.80587 0.31498 0.0
H997 H 0.17626 0.87341 0.29144 0.0
H998 H 0.20363 0.88766 0.44045 0.0
H999 H 0.17678 0.87104 0.37546 0.0
H1000 H 0.21207 0.83358 0.3322 0.0
H1001 H 0.2392 0.85038 0.39754 0.0
C1002 C 0.15073 0.80797 0.25809 0.0
C1003 C 0.14427 0.82209 0.23232 0.0
C1004 C 0.16626 0.8173 0.29566 0.0
C1005 C 0.17569 0.84097 0.30851 0.0
C1006 C 0.16907 0.85502 0.283 0.0
C1007 C 0.15359 0.84572 0.24544 0.0
C1008 C 0.206 0.87618 0.41686 0.0
C1009 C 0.22383 0.87058 0.42427 0.0
C1010 C 0.19048 0.86657 0.37951 0.0
C1011 C 0.19226 0.85102 0.34843 0.0
C1012 C 0.21001 0.84529 0.3558 0.0
C1013 C 0.22561 0.85496 0.39325 0.0
H1014 H 0.79468 0.66324 0.73877 0.0
H1015 H 0.86017 0.7282 0.75595 0.0
H1016 H 0.81137 0.65262 0.67432 0.0
H1017 H 0.87639 0.71821 0.68957 0.0
H1018 H 0.90788 0.68039 0.61014 0.0
H1019 H 0.89039 0.69231 0.67116 0.0
H1020 H 0.82459 0.65989 0.59634 0.0
H1021 H 0.84215 0.64746 0.53571 0.0
C1022 C 0.81258 0.6754 0.72872 0.0
C1023 C 0.82609 0.69649 0.75334 0.0
C1024 C 0.82209 0.66941 0.69113 0.0
C1025 C 0.84535 0.68442 0.67674 0.0
C1026 C 0.85857 0.70595 0.70015 0.0
C1027 C 0.84911 0.71186 0.73799 0.0
C1028 C 0.88973 0.67595 0.60653 0.0
C1029 C 0.87643 0.66301 0.56799 0.0
C1030 C 0.87968 0.68289 0.6415 0.0
C1031 C 0.85606 0.67727 0.63875 0.0
C1032 C 0.84273 0.6643 0.60007 0.0
C1033 C 0.85278 0.65717 0.56523 0.0
H1034 H 0.31636 0.15384 0.78356 0.0
H1035 H 0.35981 0.12694 0.72978 0.0
H1036 H 0.32805 0.18118 0.71849 0.0
H1037 H 0.37163 0.15441 0.66525 0.0
H1038 H 0.40634 0.22439 0.58396 0.0
H1039 H 0.39478 0.19671 0.64857 0.0
H1040 H 0.32301 0.18105 0.63394 0.0
H1041 H 0.3344 0.20838 0.5693 0.0
C1042 C 0.32825 0.15357 0.75784 0.0
C1043 C 0.33712 0.13809 0.76232 0.0
C1044 C 0.33499 0.16931 0.72047 0.0
C1045 C 0.35085 0.17006 0.68663 0.0
C1046 C 0.3597 0.1546 0.69104 0.0
C1047 C 0.35289 0.1388 0.72824 0.0
C1048 C 0.38806 0.2149 0.59412 0.0
C1049 C 0.37139 0.21887 0.57135 0.0
C1050 C 0.38142 0.19902 0.63129 0.0
C1051 C 0.35797 0.18676 0.64672 0.0
C1052 C 0.34129 0.19052 0.62363 0.0
C1053 C 0.34788 0.20627 0.58643 0.0
H1054 H 0.82725 0.13162 0.56902 0.0
H1055 H 0.80927 0.18607 0.58755 0.0
H1056 H 0.85501 0.14775 0.63296 0.0
H1057 H 0.83734 0.20236 0.65135 0.0
H1058 H 0.90726 0.2384 0.73047 0.0
H1059 H 0.8798 0.22234 0.66608 0.0
H1060 H 0.8554 0.15224 0.71793 0.0
H1061 H 0.88279 0.16833 0.78294 0.0
C1062 C 0.82903 0.14693 0.58684 0.0
C1063 C 0.81577 0.15739 0.57307 0.0
C1064 C 0.84502 0.15619 0.62361 0.0
C1065 C 0.84835 0.17628 0.64749 0.0
C1066 C 0.83539 0.18699 0.63338 0.0
C1067 C 0.81929 0.17766 0.59668 0.0
C1068 C 0.89593 0.21957 0.72861 0.0
C1069 C 0.89723 0.20472 0.76236 0.0
C1070 C 0.88015 0.21036 0.69152 0.0
C1071 C 0.86529 0.18601 0.6869 0.0
C1072 C 0.86677 0.17108 0.72017 0.0
C1073 C 0.88252 0.18032 0.75747 0.0
H1074 H 0.52321 0.05926 0.08821 0.0
H1075 H 0.46458 0.98821 0.09331 0.0
H1076 H 0.53861 0.04885 0.0213 0.0
H1077 H 0.4808 0.97761 0.02884 0.0
H1078 H 0.50397 0.96949 0.8847 0.0
H1079 H 0.48754 0.98066 0.94924 0.0
H1080 H 0.55765 0.02817 0.99919 0.0
H1081 H 0.5739 0.01754 0.93332 0.0
C1082 C 0.51349 0.04145 0.07544 0.0
C1083 C 0.49255 0.02468 0.09715 0.0
C1084 C 0.52258 0.03536 0.03714 0.0
C1085 C 0.51115 1.01227 0.01957 0.0
C1086 C 0.49006 0.99564 0.04074 0.0
C1087 C 0.48084 1.00176 0.07856 0.0
C1088 C 0.51581 0.98211 0.90983 0.0
C1089 C 0.54021 0.99258 0.90406 0.0
C1090 C 0.50642 0.98857 0.94695 0.0
C1091 C 0.5212 1.00543 0.97974 0.0
C1092 C 0.54565 0.01554 0.97428 0.0
C1093 C 0.55502 1.00932 0.93674 0.0
H1094 H 0.06936 0.55756 0.91752 0.0
H1095 H 0.99647 0.53082 0.8827 0.0
H1096 H 0.05769 0.52918 0.98064 0.0
H1097 H 0.98478 0.50237 0.94564 0.0
H1098 H 0.97337 0.47475 0.09663 0.0
H1099 H 0.98372 0.50073 0.02951 0.0
H1100 H 0.04055 0.48784 0.99716 0.0
H1101 H 0.03025 0.462 0.06442 0.0
C1102 C 0.05086 0.54546 0.92291 0.0
C1103 C 0.03389 0.54662 0.89504 0.0
C1104 C 0.04414 0.52913 0.95915 0.0
C1105 C 0.02026 0.51346 0.96841 0.0
C1106 C 1.00331 0.5144 0.9401 0.0
C1107 C 1.01003 0.53076 0.90393 0.0
C1108 C 0.98782 0.47715 0.07478 0.0
C1109 C 1.00103 0.46634 0.08612 0.0
C1110 C 0.9938 0.49209 0.03625 0.0
C1111 C 1.01311 0.49657 0.008 0.0
C1112 C 0.02589 0.48522 0.01863 0.0
C1113 C 0.01994 0.47033 0.05718 0.0
H1114 H 0.4933 0.52451 0.89462 0.0
H1115 H 0.4679 0.45477 0.94994 0.0
H1116 H 0.52125 0.54082 0.95856 0.0
H1117 H 0.49602 0.47109 0.01321 0.0
H1118 H 0.56673 0.50754 0.09164 0.0
H1119 H 0.53871 0.49092 0.02777 0.0
H1120 H 0.5215 0.54598 0.04347 0.0
H1121 H 0.54911 0.56239 0.10746 0.0
C1122 C 0.4935 0.51263 0.92041 0.0
C1123 C 0.47824 0.48825 0.9167 0.0
C1124 C 0.5096 0.522 0.95711 0.0
C1125 C 0.51095 0.50725 0.99098 0.0
C1126 C 0.49573 0.48292 0.98733 0.0
C1127 C 0.47957 0.47356 0.95085 0.0
C1128 C 0.55685 0.516 0.08187 0.0
C1129 C 0.56044 0.53647 0.10482 0.0
C1130 C 0.54078 0.50648 0.04512 0.0
C1131 C 0.52796 0.51721 0.03025 0.0
C1132 C 0.5314 0.53752 0.05339 0.0
C1133 C 0.54732 0.54695 0.09021 0.0
H1134 H 0.26519 0.23773 0.04251 0.0
H1135 H 0.20605 0.19517 0.95345 0.0
H1136 H 0.28283 0.2141 0.02133 0.0
H1137 H 0.22322 0.17083 0.93391 0.0
H1138 H 0.26631 0.13781 0.88629 0.0
H1139 H 0.25448 0.16759 0.89551 0.0
H1140 H 0.27452 0.17525 0.04031 0.0
H1141 H 0.28668 0.14621 0.03093 0.0
C1142 C 0.25604 0.22356 0.01795 0.0
C1143 C 0.23401 0.21828 1.00008 0.0
C1144 C 0.26607 0.20979 0.00617 0.0
C1145 C 0.25435 0.19034 0.9763 0.0
C1146 C 0.23284 0.18572 0.95677 0.0
C1147 C 0.22283 0.19951 0.96849 0.0
C1148 C 0.26846 0.14612 0.91986 0.0
C1149 C 0.2773 0.13949 0.95791 0.0
C1150 C 0.26155 0.16308 0.92526 0.0
C1151 C 0.26349 0.17384 0.96872 0.0
C1152 C 0.27306 0.16767 0.00618 0.0
C1153 C 0.27986 0.15078 1.00084 0.0
H1154 H 0.91689 0.1314 0.90639 0.0
H1155 H 0.87486 0.14836 0.99611 0.0
H1156 H 0.88964 0.08951 0.91859 0.0
H1157 H 0.84674 0.10687 0.00591 0.0
H1158 H 0.81898 0.03481 0.06759 0.0
H1159 H 0.84405 0.07583 0.04726 0.0
H1160 H 0.85345 0.05526 0.90942 0.0
H1161 H 0.82902 0.01389 0.93162 0.0
C1162 C 0.9014 0.12609 0.92758 0.0
C1163 C 0.89799 0.14299 0.95063 0.0
C1164 C 0.88571 0.10207 0.93461 0.0
C1165 C 0.86608 0.09456 0.96414 0.0
C1166 C 0.86201 0.11175 0.98437 0.0
C1167 C 0.87796 0.13561 0.97832 0.0
C1168 C 0.82617 0.03917 0.03283 0.0
C1169 C 0.82182 0.02134 1.00093 0.0
C1170 C 0.84053 0.06273 0.02088 0.0
C1171 C 0.85063 0.06917 0.97621 0.0
C1172 C 0.84623 0.05114 0.94422 0.0
C1173 C 0.83215 0.02746 0.95668 0.0
H1174 H 1.00536 0.83633 0.0271 0.0
H1175 H 1.00814 0.7769 0.97152 0.0
H1176 H 0.96464 0.81928 0.00215 0.0
H1177 H 0.96805 0.76037 0.94314 0.0
H1178 H 0.88978 0.72458 0.93071 0.0
H1179 H 0.92939 0.74153 0.96064 0.0
H1180 H 0.93864 0.81111 0.94286 0.0
H1181 H 0.89806 0.79366 0.91624 0.0
C1182 C 0.9972 0.81967 0.00896 0.0
C1183 C 1.00977 0.80785 0.00133 0.0
C1184 C 0.97387 0.80991 0.99421 0.0
C1185 C 0.96266 0.78829 0.97031 0.0
C1186 C 0.97556 0.77668 0.96237 0.0
C1187 C 0.99867 0.78618 0.9783 0.0
C1188 C 0.9003 0.74352 0.93331 0.0
C1189 C 0.89087 0.75781 0.92087 0.0
C1190 C 0.92323 0.75335 0.95016 0.0
C1191 C 0.93774 0.77787 0.95385 0.0
C1192 C 0.92814 0.79217 0.94141 0.0
C1193 C 0.90488 0.78223 0.92573 0.0
H1194 H 0.78516 0.89933 0.10359 0.0
H1195 H 0.74438 0.87594 0.9774 0.0
H1196 H 0.79949 0.87189 0.0897 0.0
H1197 H 0.75761 0.84783 0.96452 0.0
H1198 H 0.80591 0.82077 0.92168 0.0
H1199 H 0.7908 0.84694 0.93982 0.0
H1200 H 0.79216 0.83296 0.0864 0.0
H1201 H 0.80816 0.80738 0.06784 0.0
C1202 C 0.77886 0.88796 0.07343 0.0
C1203 C 0.7638 0.88994 0.04139 0.0
C1204 C 0.78704 0.87216 0.06541 0.0
C1205 C 0.78007 0.85776 0.02547 0.0
C1206 C 0.76403 0.85904 0.99485 0.0
C1207 C 0.75621 0.87504 0.00247 0.0
C1208 C 0.80289 0.82323 0.95774 0.0
C1209 C 0.80819 0.81194 0.99326 0.0
C1210 C 0.79407 0.83817 0.96828 0.0
C1211 C 0.78992 0.84202 0.0147 0.0
C1212 C 0.79535 0.83076 0.0503 0.0
C1213 C 0.80449 0.81602 0.03971 0.0
H1214 H 0.22293 0.99302 0.94119 0.0
H1215 H 0.20848 0.01736 0.0694 0.0
H1216 H 0.19791 0.9522 0.96617 0.0
H1217 H 0.1837 0.97646 0.09509 0.0
H1218 H 0.17007 0.90035 0.13674 0.0
H1219 H 0.19295 0.9415 0.11267 0.0
H1220 H 0.15195 0.92535 0.98695 0.0
H1221 H 0.12867 0.8842 0.01146 0.0
C1222 C 0.21459 0.98956 0.97494 0.0
C1223 C 0.21779 1.00821 0.00368 0.0
C1224 C 0.20011 0.96628 0.98901 0.0
C1225 C 0.1889 0.96124 0.03253 0.0
C1226 C 0.19221 0.97991 0.06144 0.0
C1227 C 0.20629 1.00321 0.04684 0.0
C1228 C 0.16583 0.90563 0.10413 0.0
C1229 C 0.14753 0.88911 0.07605 0.0
C1230 C 0.17885 0.92916 0.09051 0.0
C1231 C 0.1742 0.93654 0.048 0.0
C1232 C 0.15589 0.92006 0.01987 0.0
C1233 C 0.14248 0.8966 0.03403 0.0
H1234 H 0.14314 0.25747 0.11709 0.0
H1235 H 0.15322 0.27438 0.97066 0.0
H1236 H 0.10129 0.2447 0.10882 0.0
H1237 H 0.11185 0.26142 0.96238 0.0
H1238 H 0.04101 0.25449 0.9633 0.0
H1239 H 0.08232 0.27141 0.98231 0.0
H1240 H 0.06596 0.21256 0.07227 0.0
H1241 H 0.02431 0.19602 0.05468 0.0
C1242 C 0.1365 0.25858 0.08329 0.0
C1243 C 0.15156 0.26688 0.04455 0.0
C1244 C 0.11251 0.25116 0.07848 0.0
C1245 C 0.10317 0.25209 0.03494 0.0
C1246 C 0.11841 0.2608 0.99659 0.0
C1247 C 0.1422 0.26807 0.00132 0.0
C1248 C 0.04601 0.24535 0.98798 0.0
C1249 C 0.02918 0.22374 0.00724 0.0
C1250 C 0.06984 0.25496 0.99848 0.0
C1251 C 0.07756 0.24324 0.02842 0.0
C1252 C 0.06067 0.22215 0.04926 0.0
C1253 C 0.03679 0.21252 0.03875 0.0
H1254 H 0.91779 0.55004 0.39716 0.0
H1255 H 0.87652 0.53413 0.27197 0.0
H1256 H 0.93365 0.52515 0.37018 0.0
H1257 H 0.89281 0.50981 0.24441 0.0
H1258 H 0.955 0.49685 0.1974 0.0
H1259 H 0.93835 0.52069 0.22519 0.0
H1260 H 0.91209 0.47725 0.34758 0.0
H1261 H 0.92816 0.45285 0.31918 0.0
C1262 C 0.91236 0.54142 0.36369 0.0
C1263 C 0.89603 0.544 0.33646 0.0
C1264 C 0.92124 0.52708 0.34849 0.0
C1265 C 0.91436 0.51559 0.30533 0.0
C1266 C 0.89836 0.51851 0.2778 0.0
C1267 C 0.88906 0.53235 0.29351 0.0
C1268 C 0.94556 0.49229 0.23012 0.0
C1269 C 0.94282 0.47294 0.25607 0.0
C1270 C 0.93604 0.50591 0.24591 0.0
C1271 C 0.92407 0.50082 0.28854 0.0
C1272 C 0.92137 0.48155 0.31469 0.0
C1273 C 0.93041 0.46754 0.2983 0.0
H1274 H 0.58487 0.46486 0.24687 0.0
H1275 H 0.54127 0.482 0.33126 0.0
H1276 H 0.55735 0.42306 0.25827 0.0
H1277 H 0.51272 0.44054 0.33981 0.0
H1278 H 0.48189 0.3675 0.39952 0.0
H1279 H 0.50709 0.40868 0.38066 0.0
H1280 H 0.52235 0.38904 0.24684 0.0
H1281 H 0.4981 0.34762 0.268 0.0
C1282 C 0.56898 0.45959 0.2667 0.0
C1283 C 0.56518 0.47653 0.28845 0.0
C1284 C 0.55308 0.4356 0.27323 0.0
C1285 C 0.53276 0.42807 0.30077 0.0
C1286 C 0.52844 0.44534 0.31985 0.0
C1287 C 0.54465 0.4692 0.31447 0.0
C1288 C 0.49044 0.3721 0.36592 0.0
C1289 C 0.48793 0.35449 0.33503 0.0
C1290 C 0.50488 0.39578 0.35476 0.0
C1291 C 0.51682 0.40258 0.31178 0.0
C1292 C 0.51388 0.38475 0.28053 0.0
C1293 C 0.49983 0.36098 0.29232 0.0
H1294 H 0.55293 0.10213 0.32454 0.0
H1295 H 0.57195 0.0788 0.19993 0.0
H1296 H 0.59335 0.11889 0.35312 0.0
H1297 H 0.61237 0.09611 0.22796 0.0
H1298 H 0.68643 0.15778 0.27814 0.0
H1299 H 0.64597 0.14113 0.25004 0.0
H1300 H 0.62064 0.09846 0.37366 0.0
H1301 H 0.66127 0.11473 0.40116 0.0
C1302 C 0.56578 0.10086 0.30304 0.0
C1303 C 0.55931 0.0892 0.25998 0.0
C1304 C 0.58881 0.11026 0.31954 0.0
C1305 C 0.60587 0.10869 0.29272 0.0
C1306 C 0.59953 0.09756 0.24922 0.0
C1307 C 0.57642 0.08766 0.23328 0.0
C1308 C 0.67218 0.14476 0.29908 0.0
C1309 C 0.67689 0.1374 0.34158 0.0
C1310 C 0.64912 0.13525 0.28306 0.0
C1311 C 0.63027 0.11863 0.30983 0.0
C1312 C 0.63492 0.11135 0.35255 0.0
C1313 C 0.65807 0.12046 0.36804 0.0
H1314 H 0.50526 0.16606 0.37747 0.0
H1315 H 0.44234 0.12147 0.29937 0.0
H1316 H 0.4901 0.1924 0.39525 0.0
H1317 H 0.4273 0.14775 0.317 0.0
H1318 H 0.42341 0.21524 0.3047 0.0
H1319 H 0.43627 0.18675 0.29446 0.0
H1320 H 0.45959 0.19666 0.43729 0.0
H1321 H 0.44689 0.22577 0.44748 0.0
C1322 C 0.48811 0.16169 0.36447 0.0
C1323 C 0.4752 0.14168 0.33647 0.0
C1324 C 0.47938 0.1768 0.3748 0.0
C1325 C 0.45753 0.17233 0.35735 0.0
C1326 C 0.44439 0.15202 0.33033 0.0
C1327 C 0.45309 0.13694 0.32005 0.0
C1328 C 0.43115 0.21133 0.33416 0.0
C1329 C 0.43417 0.22292 0.37692 0.0
C1330 C 0.4384 0.19479 0.32832 0.0
C1331 C 0.44896 0.18931 0.36502 0.0
C1332 C 0.45171 0.20061 0.40814 0.0
C1333 C 0.44428 0.21717 0.41411 0.0
H1334 H 0.81356 0.21061 0.30569 0.0
H1335 H 0.80663 0.22482 0.4498 0.0
H1336 H 0.8419 0.25173 0.29339 0.0
H1337 H 0.83557 0.26638 0.43747 0.0
H1338 H 0.86477 0.34199 0.37569 0.0
H1339 H 0.83874 0.30078 0.39538 0.0
H1340 H 0.88154 0.28153 0.31299 0.0
H1341 H 0.90752 0.32256 0.29349 0.0
C1342 C 0.81823 0.22249 0.33498 0.0
C1343 C 0.80771 0.21437 0.37875 0.0
C1344 C 0.83467 0.24613 0.32793 0.0
C1345 C 0.84109 0.26243 0.36441 0.0
C1346 C 0.83086 0.25432 0.40851 0.0
C1347 C 0.81441 0.23049 0.41567 0.0
C1348 C 0.8688 0.32902 0.36219 0.0
C1349 C 0.88816 0.3357 0.3325 0.0
C1350 C 0.85388 0.30536 0.37361 0.0
C1351 C 0.85793 0.28779 0.35555 0.0
C1352 C 0.87762 0.29454 0.32683 0.0
C1353 C 0.89251 0.31814 0.31547 0.0
H1354 H 0.70918 0.58796 0.29595 0.0
H1355 H 0.69228 0.53017 0.38935 0.0
H1356 H 0.75056 0.60468 0.31451 0.0
H1357 H 0.7339 0.54643 0.40645 0.0
H1358 H 0.81079 0.59021 0.45082 0.0
H1359 H 0.76917 0.57816 0.44223 0.0
H1360 H 0.78019 0.59481 0.29579 0.0
H1361 H 0.82142 0.60714 0.30444 0.0
C1362 C 0.71417 0.57893 0.32093 0.0
C1363 C 0.69726 0.55757 0.34092 0.0
C1364 C 0.73803 0.58841 0.33117 0.0
C1365 C 0.74567 0.5768 0.36162 0.0
C1366 C 0.7287 0.55595 0.38307 0.0
C1367 C 0.70482 0.54647 0.37283 0.0
C1368 C 0.80432 0.59148 0.41694 0.0
C1369 C 0.81947 0.59955 0.37831 0.0
C1370 C 0.78045 0.58446 0.41194 0.0
C1371 C 0.77126 0.58551 0.36829 0.0
C1372 C 0.78661 0.59408 0.33007 0.0
C1373 C 0.81033 0.60099 0.33501 0.0
H1374 H 0.60798 0.80395 0.6949 0.0
H1375 H 0.59038 0.79773 0.5489 0.0
H1376 H 0.59426 0.83184 0.70484 0.0
H1377 H 0.57678 0.82612 0.55889 0.0
H1378 H 0.52917 0.85576 0.61457 0.0
H1379 H 0.54447 0.82932 0.59761 0.0
H1380 H 0.60486 0.87172 0.6838 0.0
H1381 H 0.58979 0.898 0.7004 0.0
C1382 C 0.60135 0.80868 0.66474 0.0
C1383 C 0.60031 0.79856 0.62108 0.0
C1384 C 0.59357 0.82481 0.67042 0.0
C1385 C 0.58444 0.83131 0.63266 0.0
C1386 C 0.58353 0.82135 0.58878 0.0
C1387 C 0.59149 0.80523 0.583 0.0
C1388 C 0.54581 0.85955 0.6295 0.0
C1389 C 0.55798 0.87883 0.65954 0.0
C1390 C 0.55462 0.84442 0.6197 0.0
C1391 C 0.57578 0.84823 0.63976 0.0
C1392 C 0.58825 0.86792 0.66858 0.0
C1393 C 0.57952 0.88299 0.67826 0.0
H1394 H 0.25048 0.80209 0.59699 0.0
H1395 H 0.18646 0.80511 0.58705 0.0
H1396 H 0.22816 0.76173 0.62463 0.0
H1397 H 0.16428 0.76537 0.6171 0.0
H1398 H 0.12687 0.6859 0.63159 0.0
H1399 H 0.14907 0.72586 0.60111 0.0
H1400 H 0.20806 0.7383 0.68758 0.0
H1401 H 0.18614 0.69808 0.71574 0.0
C1402 C 0.23165 0.79418 0.60107 0.0
C1403 C 0.22025 0.80677 0.58959 0.0
C1404 C 0.2188 0.77104 0.61731 0.0
C1405 C 0.19427 0.76007 0.62335 0.0
C1406 C 0.18299 0.77287 0.61209 0.0
C1407 C 0.19577 0.79581 0.59508 0.0
C1408 C 0.14457 0.69731 0.64395 0.0
C1409 C 0.15485 0.68889 0.67564 0.0
C1410 C 0.15733 0.72027 0.62673 0.0
C1411 C 0.18055 0.73551 0.64159 0.0
C1412 C 0.19054 0.72707 0.67422 0.0
C1413 C 0.17793 0.70401 0.69068 0.0
H1414 H 0.23359 0.39557 0.56748 0.0
H1415 H 0.22983 0.45584 0.61655 0.0
H1416 H 0.27385 0.41322 0.59524 0.0
H1417 H 0.27033 0.47351 0.64434 0.0
H1418 H 0.33355 0.43932 0.70259 0.0
H1419 H 0.29397 0.42282 0.67266 0.0
H1420 H 0.31153 0.48974 0.61236 0.0
H1421 H 0.35148 0.50639 0.64126 0.0
C1422 C 0.24135 0.41264 0.584 0.0
C1423 C 0.22841 0.42427 0.5898 0.0
C1424 C 0.26442 0.42268 0.60016 0.0
C1425 C 0.27523 0.4447 0.62215 0.0
C1426 C 0.2625 0.45657 0.62725 0.0
C1427 C 0.23928 0.44641 0.61149 0.0
C1428 C 0.32932 0.45064 0.68262 0.0
C1429 C 0.34609 0.4744 0.67473 0.0
C1430 C 0.30645 0.44108 0.66547 0.0
C1431 C 0.2996 0.45498 0.64023 0.0
C1432 C 0.3162 0.47866 0.63223 0.0
C1433 C 0.33917 0.4882 0.64897 0.0
H1434 H 0.11727 0.56183 0.7861 0.0
H1435 H 0.09669 0.5513 0.64154 0.0
H1436 H 0.13074 0.53309 0.7784 0.0
H1437 H 0.11003 0.52304 0.63399 0.0
H1438 H 0.11359 0.45688 0.64437 0.0
H1439 H 0.09877 0.48326 0.66206 0.0
H1440 H 0.1629 0.52931 0.73512 0.0
H1441 H 0.17807 0.50286 0.71676 0.0
C1442 C 0.11545 0.55329 0.7529 0.0
C1443 C 0.10591 0.55887 0.71445 0.0
C1444 C 0.12331 0.53699 0.74841 0.0
C1445 C 0.12137 0.52571 0.70561 0.0
C1446 C 0.11151 0.53113 0.66759 0.0
C1447 C 0.10397 0.54749 0.67191 0.0
C1448 C 0.12471 0.47266 0.66391 0.0
C1449 C 0.1473 0.47793 0.67821 0.0
C1450 C 0.11611 0.48776 0.67431 0.0
C1451 C 0.12975 0.50854 0.69953 0.0
C1452 C 0.15191 0.51337 0.7158 0.0
C1453 C 0.16061 0.49823 0.7052 0.0
H1454 H 0.47306 0.5573 0.7855 0.0
H1455 H 0.4816 0.54257 0.64265 0.0
H1456 H 0.50071 0.59909 0.77228 0.0
H1457 H 0.50887 0.58402 0.62947 0.0
H1458 H 0.57088 0.65682 0.62707 0.0
H1459 H 0.54792 0.61605 0.65002 0.0
H1460 H 0.50094 0.63158 0.72726 0.0
H1461 H 0.52425 0.67277 0.70514 0.0
C1462 C 0.48104 0.56291 0.75152 0.0
C1463 C 0.47506 0.5466 0.7151 0.0
C1464 C 0.49673 0.58686 0.74384 0.0
C1465 C 0.50698 0.59493 0.69978 0.0
C1466 C 0.50155 0.57844 0.66396 0.0
C1467 C 0.48577 0.55464 0.67148 0.0
C1468 C 0.55587 0.65187 0.64926 0.0
C1469 C 0.54931 0.66835 0.66334 0.0
C1470 C 0.54257 0.62827 0.66228 0.0
C1471 C 0.52243 0.62045 0.69007 0.0
C1472 C 0.5164 0.63701 0.70594 0.0
C1473 C 0.52964 0.66063 0.69271 0.0
H1474 H 0.34799 0.87998 0.73974 0.0
H1475 H 0.37011 0.89036 0.59614 0.0
H1476 H 0.38844 0.89472 0.76441 0.0
H1477 H 0.41082 0.90543 0.62097 0.0
H1478 H 0.47783 0.90988 0.68766 0.0
H1479 H 0.4369 0.8922 0.66187 0.0
H1480 H 0.42499 0.93392 0.76258 0.0
H1481 H 0.46557 0.95154 0.78814 0.0
C1482 C 0.36145 0.88521 0.71338 0.0
C1483 C 0.35577 0.884 0.66594 0.0
C1484 C 0.38468 0.89384 0.72755 0.0
C1485 C 0.40286 0.9013 0.69467 0.0
C1486 C 0.39719 0.89967 0.64714 0.0
C1487 C 0.37392 0.89126 0.63294 0.0
C1488 C 0.46642 0.91516 0.70441 0.0
C1489 C 0.47501 0.93215 0.73994 0.0
C1490 C 0.44304 0.90516 0.68944 0.0
C1491 C 0.42769 0.91164 0.71023 0.0
C1492 C 0.43626 0.92836 0.74615 0.0
C1493 C 0.4596 0.93856 0.76063 0.0
loop_
_geom_bond_atom_site_label_1
_geom_bond_atom_site_label_2
_geom_bond_distance
_geom_bond_site_symmetry_2
_ccdc_geom_bond_type
Co0 N4 2.148 . S
Co0 N10 2.128 . S
Co0 N20 2.194 . S
Co0 O25 2.351 . S
Co0 O26 2.155 . S
Co0 O27 2.096 . S
C1 N4 1.301 . S
C1 N5 1.328 . S
C1 H6 0.930 . S
C2 C3 1.333 . S
C2 N4 1.317 . S
C2 H7 0.930 . S
C3 C2 1.333 . S
C3 N5 1.350 . S
C3 H29 0.931 . S
N4 Co0 2.148 . S
N4 C1 1.301 . S
N4 C2 1.317 . S
N5 C1 1.328 . S
N5 C3 1.350 . S
H6 C1 0.930 . S
H7 C2 0.930 . S
C8 O9 1.224 . S
C8 O27 1.247 . S
O9 C8 1.224 . S
N10 Co0 2.128 . S
N10 C11 1.355 . S
N10 C13 1.311 . S
C11 N10 1.355 . S
C11 C12 1.363 . S
C11 H23 0.929 . S
C12 C11 1.363 . S
C12 N14 1.375 . S
C12 H30 0.931 . S
C13 N10 1.311 . S
C13 N14 1.347 . S
C13 H24 0.929 . S
N14 C12 1.375 . S
N14 C13 1.347 . S
C15 C18 1.365 . S
C15 N20 1.328 . S
C15 H21 0.929 . S
C16 C17 1.362 1_556 S
C16 C19 1.374 1_556 S
C16 H31 0.932 . S
C17 C16 1.362 1_554 S
C17 C18 1.369 . S
C18 C15 1.365 . S
C18 C17 1.369 . S
C18 H32 0.930 . S
C19 C16 1.374 1_554 S
C19 N20 1.315 . S
C19 H22 0.930 . S
N20 Co0 2.194 . S
N20 C15 1.328 . S
N20 C19 1.315 . S
H21 C15 0.929 . S
H22 C19 0.930 . S
H23 C11 0.929 . S
H24 C13 0.929 . S
O25 Co0 2.351 . S
O25 C28 1.244 . S
O26 Co0 2.155 . S
O26 C28 1.240 . S
O27 Co0 2.096 . S
O27 C8 1.247 . S
C28 O25 1.244 . S
C28 O26 1.240 . S
H29 C3 0.931 . S
H30 C12 0.931 . S
H31 C16 0.932 . S
H32 C18 0.930 . S
Co33 N37 2.148 . S
Co33 N43 2.128 . S
Co33 N53 2.194 . S
Co33 O58 2.351 . S
Co33 O59 2.155 . S
Co33 O60 2.096 . S
C34 N37 1.301 . S
C34 N38 1.328 1_565 S
C34 H39 0.930 . S
C35 C36 1.333 . S
C35 N37 1.317 . S
C35 H40 0.930 . S
C36 C35 1.333 . S
C36 N38 1.350 1_565 S
C36 H62 0.931 . S
N37 Co33 2.148 . S
N37 C34 1.301 . S
N37 C35 1.317 . S
N38 C34 1.328 1_545 S
N38 C36 1.350 1_545 S
H39 C34 0.930 . S
H40 C35 0.930 . S
C41 O42 1.224 . S
C41 O60 1.247 . S
O42 C41 1.224 . S
N43 Co33 2.128 . S
N43 C44 1.355 . S
N43 C46 1.311 . S
C44 N43 1.355 . S
C44 C45 1.363 . S
C44 H56 0.929 . S
C45 C44 1.363 . S
C45 N47 1.375 . S
C45 H63 0.931 . S
C46 N43 1.311 . S
C46 N47 1.347 . S
C46 H57 0.929 . S
N47 C45 1.375 . S
N47 C46 1.347 . S
C48 C51 1.365 . S
C48 N53 1.328 . S
C48 H54 0.929 . S
C49 C50 1.362 1_556 S
C49 C52 1.374 1_556 S
C49 H64 0.933 . S
C50 C49 1.362 1_554 S
C50 C51 1.369 . S
C51 C48 1.365 . S
C51 C50 1.369 . S
C51 H65 0.930 . S
C52 C49 1.374 1_554 S
C52 N53 1.315 . S
C52 H55 0.930 . S
N53 Co33 2.194 . S
N53 C48 1.328 . S
N53 C52 1.315 . S
H54 C48 0.929 . S
H55 C52 0.930 . S
H56 C44 0.929 . S
H57 C46 0.929 . S
O58 Co33 2.351 . S
O58 C61 1.244 . S
O59 Co33 2.155 . S
O59 C61 1.240 . S
O60 Co33 2.096 . S
O60 C41 1.247 . S
C61 O58 1.244 . S
C61 O59 1.240 . S
H62 C36 0.931 . S
H63 C45 0.931 . S
H64 C49 0.933 . S
H65 C51 0.930 . S
Co66 N70 2.148 . S
Co66 N76 2.128 . S
Co66 N86 2.194 . S
Co66 O91 2.351 . S
Co66 O92 2.155 . S
Co66 O93 2.096 . S
C67 N70 1.301 . S
C67 N71 1.328 1_455 S
C67 H72 0.930 . S
C68 C69 1.333 . S
C68 N70 1.317 . S
C68 H73 0.930 . S
C69 C68 1.333 . S
C69 N71 1.350 1_455 S
C69 H95 0.931 . S
N70 Co66 2.148 . S
N70 C67 1.301 . S
N70 C68 1.317 . S
N71 C67 1.328 1_655 S
N71 C69 1.350 1_655 S
H72 C67 0.930 . S
H73 C68 0.930 . S
C74 O75 1.224 . S
C74 O93 1.247 . S
O75 C74 1.224 . S
N76 Co66 2.128 . S
N76 C77 1.355 . S
N76 C79 1.311 . S
C77 N76 1.355 . S
C77 C78 1.363 . S
C77 H89 0.929 . S
C78 C77 1.363 . S
C78 N80 1.375 . S
C78 H96 0.931 . S
C79 N76 1.311 . S
C79 N80 1.347 . S
C79 H90 0.929 . S
N80 C78 1.375 . S
N80 C79 1.347 . S
C81 C84 1.365 . S
C81 N86 1.328 . S
C81 H87 0.929 . S
C82 C83 1.362 1_556 S
C82 C85 1.374 1_556 S
C82 H97 0.933 . S
C83 C82 1.362 1_554 S
C83 C84 1.369 . S
C84 C81 1.365 . S
C84 C83 1.369 . S
C84 H98 0.930 . S
C85 C82 1.374 1_554 S
C85 N86 1.315 . S
C85 H88 0.930 . S
N86 Co66 2.194 . S
N86 C81 1.328 . S
N86 C85 1.315 . S
H87 C81 0.929 . S
H88 C85 0.930 . S
H89 C77 0.929 . S
H90 C79 0.929 . S
O91 Co66 2.351 . S
O91 C94 1.244 . S
O92 Co66 2.155 . S
O92 C94 1.240 . S
O93 Co66 2.096 . S
O93 C74 1.247 . S
C94 O91 1.244 . S
C94 O92 1.240 . S
H95 C69 0.931 . S
H96 C78 0.931 . S
H97 C82 0.933 . S
H98 C84 0.930 . S
Co99 N103 2.148 . S
Co99 N109 2.128 . S
Co99 N119 2.194 . S
Co99 O124 2.351 . S
Co99 O125 2.155 . S
Co99 O126 2.096 . S
C100 N103 1.301 . S
C100 N104 1.328 . S
C100 H105 0.930 . S
C101 C102 1.333 . S
C101 N103 1.317 . S
C101 H106 0.930 . S
C102 C101 1.333 . S
C102 N104 1.350 . S
C102 H128 0.931 . S
N103 Co99 2.148 . S
N103 C100 1.301 . S
N103 C101 1.317 . S
N104 C100 1.328 . S
N104 C102 1.350 . S
H105 C100 0.930 . S
H106 C101 0.930 . S
C107 O108 1.224 . S
C107 O126 1.247 . S
O108 C107 1.224 . S
N109 Co99 2.128 . S
N109 C110 1.355 . S
N109 C112 1.311 . S
C110 N109 1.355 . S
C110 C111 1.363 . S
C110 H122 0.929 . S
C111 C110 1.363 . S
C111 N113 1.375 . S
C111 H129 0.931 . S
C112 N109 1.311 . S
C112 N113 1.347 . S
C112 H123 0.929 . S
N113 C111 1.375 . S
N113 C112 1.347 . S
C114 C117 1.365 . S
C114 N119 1.328 . S
C114 H120 0.929 . S
C115 C116 1.362 1_554 S
C115 C118 1.374 1_554 S
C115 H130 0.932 . S
C116 C115 1.362 1_556 S
C116 C117 1.369 . S
C117 C114 1.365 . S
C117 C116 1.369 . S
C117 H131 0.930 . S
C118 C115 1.374 1_556 S
C118 N119 1.315 . S
C118 H121 0.930 . S
N119 Co99 2.194 . S
N119 C114 1.328 . S
N119 C118 1.315 . S
H120 C114 0.929 . S
H121 C118 0.930 . S
H122 C110 0.929 . S
H123 C112 0.929 . S
O124 Co99 2.351 . S
O124 C127 1.244 . S
O125 Co99 2.155 . S
O125 C127 1.240 . S
O126 Co99 2.096 . S
O126 C107 1.247 . S
C127 O124 1.244 . S
C127 O125 1.240 . S
H128 C102 0.931 . S
H129 C111 0.931 . S
H130 C115 0.932 . S
H131 C117 0.930 . S
Co132 N136 2.148 . S
Co132 N142 2.128 . S
Co132 N152 2.194 . S
Co132 O157 2.351 . S
Co132 O158 2.155 . S
Co132 O159 2.096 . S
C133 N136 1.301 . S
C133 N137 1.328 1_545 S
C133 H138 0.930 . S
C134 C135 1.333 . S
C134 N136 1.317 . S
C134 H139 0.930 . S
C135 C134 1.333 . S
C135 N137 1.350 1_545 S
C135 H161 0.931 . S
N136 Co132 2.148 . S
N136 C133 1.301 . S
N136 C134 1.317 . S
N137 C133 1.328 1_565 S
N137 C135 1.350 1_565 S
H138 C133 0.930 . S
H139 C134 0.930 . S
C140 O141 1.224 . S
C140 O159 1.247 . S
O141 C140 1.224 . S
N142 Co132 2.128 . S
N142 C143 1.355 . S
N142 C145 1.311 . S
C143 N142 1.355 . S
C143 C144 1.363 . S
C143 H155 0.929 . S
C144 C143 1.363 . S
C144 N146 1.375 . S
C144 H162 0.931 . S
C145 N142 1.311 . S
C145 N146 1.347 . S
C145 H156 0.929 . S
N146 C144 1.375 . S
N146 C145 1.347 . S
C147 C150 1.365 . S
C147 N152 1.328 . S
C147 H153 0.929 . S
C148 C149 1.362 1_554 S
C148 C151 1.374 1_554 S
C148 H163 0.933 . S
C149 C148 1.362 1_556 S
C149 C150 1.369 . S
C150 C147 1.365 . S
C150 C149 1.369 . S
C150 H164 0.930 . S
C151 C148 1.374 1_556 S
C151 N152 1.315 . S
C151 H154 0.930 . S
N152 Co132 2.194 . S
N152 C147 1.328 . S
N152 C151 1.315 . S
H153 C147 0.929 . S
H154 C151 0.930 . S
H155 C143 0.929 . S
H156 C145 0.929 . S
O157 Co132 2.351 . S
O157 C160 1.244 . S
O158 Co132 2.155 . S
O158 C160 1.240 . S
O159 Co132 2.096 . S
O159 C140 1.247 . S
C160 O157 1.244 . S
C160 O158 1.240 . S
H161 C135 0.931 . S
H162 C144 0.931 . S
H163 C148 0.933 . S
H164 C150 0.930 . S
Co165 N169 2.148 . S
Co165 N175 2.128 . S
Co165 N185 2.194 . S
Co165 O190 2.351 . S
Co165 O191 2.155 . S
Co165 O192 2.096 . S
C166 N169 1.301 . S
C166 N170 1.328 1_655 S
C166 H171 0.930 . S
C167 C168 1.333 . S
C167 N169 1.317 . S
C167 H172 0.930 . S
C168 C167 1.333 . S
C168 N170 1.350 1_655 S
C168 H194 0.931 . S
N169 Co165 2.148 . S
N169 C166 1.301 . S
N169 C167 1.317 . S
N170 C166 1.328 1_455 S
N170 C168 1.350 1_455 S
H171 C166 0.930 . S
H172 C167 0.930 . S
C173 O174 1.224 . S
C173 O192 1.247 . S
O174 C173 1.224 . S
N175 Co165 2.128 . S
N175 C176 1.355 . S
N175 C178 1.311 . S
C176 N175 1.355 . S
C176 C177 1.363 . S
C176 H188 0.929 . S
C177 C176 1.363 . S
C177 N179 1.375 . S
C177 H195 0.931 . S
C178 N175 1.311 . S
C178 N179 1.347 . S
C178 H189 0.929 . S
N179 C177 1.375 . S
N179 C178 1.347 . S
C180 C183 1.365 . S
C180 N185 1.328 . S
C180 H186 0.929 . S
C181 C182 1.362 1_554 S
C181 C184 1.374 1_554 S
C181 H196 0.933 . S
C182 C181 1.362 1_556 S
C182 C183 1.369 . S
C183 C180 1.365 . S
C183 C182 1.369 . S
C183 H197 0.930 . S
C184 C181 1.374 1_556 S
C184 N185 1.315 . S
C184 H187 0.930 . S
N185 Co165 2.194 . S
N185 C180 1.328 . S
N185 C184 1.315 . S
H186 C180 0.929 . S
H187 C184 0.930 . S
H188 C176 0.929 . S
H189 C178 0.929 . S
O190 Co165 2.351 . S
O190 C193 1.244 . S
O191 Co165 2.155 . S
O191 C193 1.240 . S
O192 Co165 2.096 . S
O192 C173 1.247 . S
C193 O190 1.244 . S
C193 O191 1.240 . S
H194 C168 0.931 . S
H195 C177 0.931 . S
H196 C181 0.933 . S
H197 C183 0.930 . S
Co198 N202 2.148 . S
Co198 N208 2.128 . S
Co198 N218 2.194 . S
Co198 O223 2.351 . S
Co198 O224 2.155 . S
Co198 O225 2.096 . S
C199 N202 1.301 . S
C199 N203 1.328 . S
C199 H204 0.930 . S
C200 C201 1.333 . S
C200 N202 1.317 . S
C200 H205 0.930 . S
C201 C200 1.333 . S
C201 N203 1.350 . S
C201 H227 0.931 . S
N202 Co198 2.148 . S
N202 C199 1.301 . S
N202 C200 1.317 . S
N203 C199 1.328 . S
N203 C201 1.350 . S
H204 C199 0.930 . S
H205 C200 0.930 . S
C206 O207 1.224 . S
C206 O225 1.247 . S
O207 C206 1.224 . S
N208 Co198 2.128 . S
N208 C209 1.355 . S
N208 C211 1.311 . S
C209 N208 1.355 . S
C209 C210 1.363 . S
C209 H221 0.929 . S
C210 C209 1.363 . S
C210 N212 1.375 . S
C210 H228 0.931 . S
C211 N208 1.311 . S
C211 N212 1.347 . S
C211 H222 0.929 . S
N212 C210 1.375 . S
N212 C211 1.347 . S
C213 C216 1.365 . S
C213 N218 1.328 . S
C213 H219 0.929 . S
C214 C215 1.362 . S
C214 C217 1.378 . S
C214 H229 0.929 . S
C215 C214 1.362 . S
C215 C216 1.366 . S
C216 C213 1.365 . S
C216 C215 1.366 . S
C216 H230 0.930 . S
C217 C214 1.378 . S
C217 N218 1.315 . S
C217 H220 0.930 . S
N218 Co198 2.194 . S
N218 C213 1.328 . S
N218 C217 1.315 . S
H219 C213 0.929 . S
H220 C217 0.930 . S
H221 C209 0.929 . S
H222 C211 0.929 . S
O223 Co198 2.351 . S
O223 C226 1.244 . S
O224 Co198 2.155 . S
O224 C226 1.240 . S
O225 Co198 2.096 . S
O225 C206 1.247 . S
C226 O223 1.244 . S
C226 O224 1.240 . S
H227 C201 0.931 . S
H228 C210 0.931 . S
H229 C214 0.929 . S
H230 C216 0.930 . S
Co231 N235 2.148 . S
Co231 N241 2.128 . S
Co231 N251 2.194 . S
Co231 O256 2.351 . S
Co231 O257 2.155 . S
Co231 O258 2.096 . S
C232 N235 1.301 . S
C232 N236 1.328 . S
C232 H237 0.930 . S
C233 C234 1.333 . S
C233 N235 1.317 . S
C233 H238 0.930 . S
C234 C233 1.333 . S
C234 N236 1.350 . S
C234 H260 0.931 . S
N235 Co231 2.148 . S
N235 C232 1.301 . S
N235 C233 1.317 . S
N236 C232 1.328 . S
N236 C234 1.350 . S
H237 C232 0.930 . S
H238 C233 0.930 . S
C239 O240 1.224 . S
C239 O258 1.247 . S
O240 C239 1.224 . S
N241 Co231 2.128 . S
N241 C242 1.355 . S
N241 C244 1.311 . S
C242 N241 1.355 . S
C242 C243 1.363 . S
C242 H254 0.929 . S
C243 C242 1.363 . S
C243 N245 1.375 . S
C243 H261 0.931 . S
C244 N241 1.311 . S
C244 N245 1.347 . S
C244 H255 0.929 . S
N245 C243 1.375 . S
N245 C244 1.347 . S
C246 C249 1.365 . S
C246 N251 1.328 . S
C246 H252 0.929 . S
C247 C248 1.362 . S
C247 C250 1.378 . S
C247 H262 0.929 . S
C248 C247 1.362 . S
C248 C249 1.366 . S
C249 C246 1.365 . S
C249 C248 1.366 . S
C249 H263 0.930 . S
C250 C247 1.378 . S
C250 N251 1.315 . S
C250 H253 0.930 . S
N251 Co231 2.194 . S
N251 C246 1.328 . S
N251 C250 1.315 . S
H252 C246 0.929 . S
H253 C250 0.930 . S
H254 C242 0.929 . S
H255 C244 0.929 . S
O256 Co231 2.351 . S
O256 C259 1.244 . S
O257 Co231 2.155 . S
O257 C259 1.240 . S
O258 Co231 2.096 . S
O258 C239 1.247 . S
C259 O256 1.244 . S
C259 O257 1.240 . S
H260 C234 0.931 . S
H261 C243 0.931 . S
H262 C247 0.929 . S
H263 C249 0.930 . S
Co264 N268 2.148 . S
Co264 N274 2.128 . S
Co264 N284 2.194 . S
Co264 O289 2.351 . S
Co264 O290 2.155 . S
Co264 O291 2.096 . S
C265 N268 1.301 . S
C265 N269 1.328 . S
C265 H270 0.930 . S
C266 C267 1.333 . S
C266 N268 1.317 . S
C266 H271 0.930 . S
C267 C266 1.333 . S
C267 N269 1.350 . S
C267 H293 0.931 . S
N268 Co264 2.148 . S
N268 C265 1.301 . S
N268 C266 1.317 . S
N269 C265 1.328 . S
N269 C267 1.350 . S
H270 C265 0.930 . S
H271 C266 0.930 . S
C272 O273 1.224 . S
C272 O291 1.247 . S
O273 C272 1.224 . S
N274 Co264 2.128 . S
N274 C275 1.355 . S
N274 C277 1.311 . S
C275 N274 1.355 . S
C275 C276 1.363 . S
C275 H287 0.929 . S
C276 C275 1.363 . S
C276 N278 1.375 . S
C276 H294 0.931 . S
C277 N274 1.311 . S
C277 N278 1.347 . S
C277 H288 0.929 . S
N278 C276 1.375 . S
N278 C277 1.347 . S
C279 C282 1.365 . S
C279 N284 1.328 . S
C279 H285 0.929 . S
C280 C281 1.362 . S
C280 C283 1.378 . S
C280 H295 0.929 . S
C281 C280 1.362 . S
C281 C282 1.366 . S
C282 C279 1.365 . S
C282 C281 1.366 . S
C282 H296 0.930 . S
C283 C280 1.378 . S
C283 N284 1.315 . S
C283 H286 0.930 . S
N284 Co264 2.194 . S
N284 C279 1.328 . S
N284 C283 1.315 . S
H285 C279 0.929 . S
H286 C283 0.930 . S
H287 C275 0.929 . S
H288 C277 0.929 . S
O289 Co264 2.351 . S
O289 C292 1.244 . S
O290 Co264 2.155 . S
O290 C292 1.240 . S
O291 Co264 2.096 . S
O291 C272 1.247 . S
C292 O289 1.244 . S
C292 O290 1.240 . S
H293 C267 0.931 . S
H294 C276 0.931 . S
H295 C280 0.929 . S
H296 C282 0.930 . S
Co297 N301 2.148 . S
Co297 N307 2.128 . S
Co297 N317 2.194 . S
Co297 O322 2.351 . S
Co297 O323 2.155 . S
Co297 O324 2.096 . S
C298 N301 1.301 . S
C298 N302 1.328 . S
C298 H303 0.930 . S
C299 C300 1.333 . S
C299 N301 1.317 . S
C299 H304 0.930 . S
C300 C299 1.333 . S
C300 N302 1.350 . S
C300 H326 0.931 . S
N301 Co297 2.148 . S
N301 C298 1.301 . S
N301 C299 1.317 . S
N302 C298 1.328 . S
N302 C300 1.350 . S
H303 C298 0.930 . S
H304 C299 0.930 . S
C305 O306 1.224 . S
C305 O324 1.247 . S
O306 C305 1.224 . S
N307 Co297 2.128 . S
N307 C308 1.355 . S
N307 C310 1.311 . S
C308 N307 1.355 . S
C308 C309 1.363 . S
C308 H320 0.929 . S
C309 C308 1.363 . S
C309 N311 1.375 . S
C309 H327 0.969 . S
C310 N307 1.311 . S
C310 N311 1.347 . S
C310 H321 0.929 . S
N311 C309 1.375 . S
N311 C310 1.347 . S
C312 C315 1.365 . S
C312 N317 1.328 . S
C312 H318 0.929 . S
C313 C314 1.362 . S
C313 C316 1.378 . S
C313 H328 0.929 . S
C314 C313 1.362 . S
C314 C315 1.366 . S
C315 C312 1.365 . S
C315 C314 1.366 . S
C315 H329 0.930 . S
C316 C313 1.378 . S
C316 N317 1.315 . S
C316 H319 0.930 . S
N317 Co297 2.194 . S
N317 C312 1.328 . S
N317 C316 1.315 . S
H318 C312 0.929 . S
H319 C316 0.930 . S
H320 C308 0.929 . S
H321 C310 0.929 . S
O322 Co297 2.351 . S
O322 C325 1.244 . S
O323 Co297 2.155 . S
O323 C325 1.240 . S
O324 Co297 2.096 . S
O324 C305 1.247 . S
C325 O322 1.244 . S
C325 O323 1.240 . S
H326 C300 0.931 . S
H327 C309 0.969 . S
H328 C313 0.929 . S
H329 C315 0.930 . S
Co330 N334 2.148 . S
Co330 N340 2.128 . S
Co330 N350 2.194 . S
Co330 O355 2.351 . S
Co330 O356 2.155 . S
Co330 O357 2.096 . S
C331 N334 1.301 . S
C331 N335 1.328 . S
C331 H336 0.930 . S
C332 C333 1.333 . S
C332 N334 1.317 . S
C332 H337 0.930 . S
C333 C332 1.333 . S
C333 N335 1.350 . S
C333 H359 0.931 . S
N334 Co330 2.148 . S
N334 C331 1.301 . S
N334 C332 1.317 . S
N335 C331 1.328 . S
N335 C333 1.350 . S
H336 C331 0.930 . S
H337 C332 0.930 . S
C338 O339 1.224 . S
C338 O357 1.247 . S
O339 C338 1.224 . S
N340 Co330 2.128 . S
N340 C341 1.355 . S
N340 C343 1.311 . S
C341 N340 1.355 . S
C341 C342 1.363 . S
C341 H353 0.929 . S
C342 C341 1.363 . S
C342 N344 1.375 . S
C342 H360 0.975 . S
C343 N340 1.311 . S
C343 N344 1.347 . S
C343 H354 0.929 . S
N344 C342 1.375 . S
N344 C343 1.347 . S
C345 C348 1.365 . S
C345 N350 1.328 . S
C345 H351 0.929 . S
C346 C347 1.362 . S
C346 C349 1.378 . S
C346 H361 0.929 . S
C347 C346 1.362 . S
C347 C348 1.366 . S
C348 C345 1.365 . S
C348 C347 1.366 . S
C348 H362 0.930 . S
C349 C346 1.378 . S
C349 N350 1.315 . S
C349 H352 0.930 . S
N350 Co330 2.194 . S
N350 C345 1.328 . S
N350 C349 1.315 . S
H351 C345 0.929 . S
H352 C349 0.930 . S
H353 C341 0.929 . S
H354 C343 0.929 . S
O355 Co330 2.351 . S
O355 C358 1.244 . S
O356 Co330 2.155 . S
O356 C358 1.240 . S
O357 Co330 2.096 . S
O357 C338 1.247 . S
C358 O355 1.244 . S
C358 O356 1.240 . S
H359 C333 0.931 . S
H360 C342 0.975 . S
H361 C346 0.929 . S
H362 C348 0.930 . S
Co363 N367 2.148 . S
Co363 N373 2.128 . S
Co363 N383 2.194 . S
Co363 O388 2.351 . S
Co363 O389 2.155 . S
Co363 O390 2.096 . S
C364 N367 1.301 . S
C364 N368 1.328 . S
C364 H369 0.930 . S
C365 C366 1.333 . S
C365 N367 1.317 . S
C365 H370 0.930 . S
C366 C365 1.333 . S
C366 N368 1.350 . S
C366 H392 0.931 . S
N367 Co363 2.148 . S
N367 C364 1.301 . S
N367 C365 1.317 . S
N368 C364 1.328 . S
N368 C366 1.350 . S
H369 C364 0.930 . S
H370 C365 0.930 . S
C371 O372 1.224 . S
C371 O390 1.247 . S
O372 C371 1.224 . S
N373 Co363 2.128 . S
N373 C374 1.355 . S
N373 C376 1.311 . S
C374 N373 1.355 . S
C374 C375 1.363 . S
C374 H386 0.929 . S
C375 C374 1.363 . S
C375 N377 1.375 . S
C375 H393 0.931 . S
C376 N373 1.311 . S
C376 N377 1.347 . S
C376 H387 0.929 . S
N377 C375 1.375 . S
N377 C376 1.347 . S
C378 C381 1.365 . S
C378 N383 1.328 . S
C378 H384 0.929 . S
C379 C380 1.362 . S
C379 C382 1.378 . S
C379 H394 0.929 . S
C380 C379 1.362 . S
C380 C381 1.366 . S
C381 C378 1.365 . S
C381 C380 1.366 . S
C381 H395 0.930 . S
C382 C379 1.378 . S
C382 N383 1.315 . S
C382 H385 0.930 . S
N383 Co363 2.194 . S
N383 C378 1.328 . S
N383 C382 1.315 . S
H384 C378 0.929 . S
H385 C382 0.930 . S
H386 C374 0.929 . S
H387 C376 0.929 . S
O388 Co363 2.351 . S
O388 C391 1.244 . S
O389 Co363 2.155 . S
O389 C391 1.240 . S
O390 Co363 2.096 . S
O390 C371 1.247 . S
C391 O388 1.244 . S
C391 O389 1.240 . S
H392 C366 0.931 . S
H393 C375 0.931 . S
H394 C379 0.929 . S
H395 C381 0.930 . S
Co396 N400 2.148 . S
Co396 N406 2.128 . S
Co396 N416 2.194 . S
Co396 O421 2.351 . S
Co396 O422 2.155 . S
Co396 O423 2.096 . S
C397 N400 1.301 . S
C397 N401 1.328 . S
C397 H402 0.930 . S
C398 C399 1.333 . S
C398 N400 1.317 . S
C398 H403 0.930 . S
C399 C398 1.333 . S
C399 N401 1.350 . S
C399 H425 0.931 . S
N400 Co396 2.148 . S
N400 C397 1.301 . S
N400 C398 1.317 . S
N401 C397 1.328 . S
N401 C399 1.350 . S
H402 C397 0.930 . S
H403 C398 0.930 . S
C404 O405 1.224 . S
C404 O423 1.247 . S
O405 C404 1.224 . S
N406 Co396 2.128 . S
N406 C407 1.355 . S
N406 C409 1.311 . S
C407 N406 1.355 . S
C407 C408 1.363 . S
C407 H419 0.929 . S
C408 C407 1.363 . S
C408 N410 1.375 . S
C408 H426 0.969 . S
C409 N406 1.311 . S
C409 N410 1.347 . S
C409 H420 0.929 . S
N410 C408 1.375 . S
N410 C409 1.347 . S
C411 C414 1.365 . S
C411 N416 1.328 . S
C411 H417 0.929 . S
C412 C413 1.362 . S
C412 C415 1.378 . S
C412 H427 0.929 . S
C413 C412 1.362 . S
C413 C414 1.366 . S
C414 C411 1.365 . S
C414 C413 1.366 . S
C414 H428 0.930 . S
C415 C412 1.378 . S
C415 N416 1.315 . S
C415 H418 0.930 . S
N416 Co396 2.194 . S
N416 C411 1.328 . S
N416 C415 1.315 . S
H417 C411 0.929 . S
H418 C415 0.930 . S
H419 C407 0.929 . S
H420 C409 0.929 . S
O421 Co396 2.351 . S
O421 C424 1.244 . S
O422 Co396 2.155 . S
O422 C424 1.240 . S
O423 Co396 2.096 . S
O423 C404 1.247 . S
C424 O421 1.244 . S
C424 O422 1.240 . S
H425 C399 0.931 . S
H426 C408 0.969 . S
H427 C412 0.929 . S
H428 C414 0.930 . S
Co429 N433 2.148 . S
Co429 N439 2.128 . S
Co429 N449 2.194 . S
Co429 O454 2.351 . S
Co429 O455 2.155 . S
Co429 O456 2.096 . S
C430 N433 1.301 . S
C430 N434 1.328 . S
C430 H435 0.930 . S
C431 C432 1.333 . S
C431 N433 1.317 . S
C431 H436 0.930 . S
C432 C431 1.333 . S
C432 N434 1.350 . S
C432 H458 0.931 . S
N433 Co429 2.148 . S
N433 C430 1.301 . S
N433 C431 1.317 . S
N434 C430 1.328 . S
N434 C432 1.350 . S
H435 C430 0.930 . S
H436 C431 0.930 . S
C437 O438 1.224 . S
C437 O456 1.247 . S
O438 C437 1.224 . S
N439 Co429 2.128 . S
N439 C440 1.355 . S
N439 C442 1.311 . S
C440 N439 1.355 . S
C440 C441 1.363 . S
C440 H452 0.929 . S
C441 C440 1.363 . S
C441 N443 1.375 . S
C441 H459 0.975 . S
C442 N439 1.311 . S
C442 N443 1.347 . S
C442 H453 0.929 . S
N443 C441 1.375 . S
N443 C442 1.347 . S
C444 C447 1.365 . S
C444 N449 1.328 . S
C444 H450 0.929 . S
C445 C446 1.362 . S
C445 C448 1.378 . S
C445 H460 0.929 . S
C446 C445 1.362 . S
C446 C447 1.366 . S
C447 C444 1.365 . S
C447 C446 1.366 . S
C447 H461 0.930 . S
C448 C445 1.378 . S
C448 N449 1.315 . S
C448 H451 0.930 . S
N449 Co429 2.194 . S
N449 C444 1.328 . S
N449 C448 1.315 . S
H450 C444 0.929 . S
H451 C448 0.930 . S
H452 C440 0.929 . S
H453 C442 0.929 . S
O454 Co429 2.351 . S
O454 C457 1.244 . S
O455 Co429 2.155 . S
O455 C457 1.240 . S
O456 Co429 2.096 . S
O456 C437 1.247 . S
C457 O454 1.244 . S
C457 O455 1.240 . S
H458 C432 0.931 . S
H459 C441 0.975 . S
H460 C445 0.929 . S
H461 C447 0.930 . S
Co462 N466 2.148 . S
Co462 N472 2.128 . S
Co462 N482 2.194 . S
Co462 O487 2.351 . S
Co462 O488 2.155 . S
Co462 O489 2.096 . S
C463 N466 1.301 . S
C463 N467 1.328 . S
C463 H468 0.930 . S
C464 C465 1.333 . S
C464 N466 1.317 . S
C464 H469 0.930 . S
C465 C464 1.333 . S
C465 N467 1.350 . S
C465 H491 0.931 . S
N466 Co462 2.148 . S
N466 C463 1.301 . S
N466 C464 1.317 . S
N467 C463 1.328 . S
N467 C465 1.350 . S
H468 C463 0.930 . S
H469 C464 0.930 . S
C470 O471 1.224 . S
C470 O489 1.247 . S
O471 C470 1.224 . S
N472 Co462 2.128 . S
N472 C473 1.355 . S
N472 C475 1.311 . S
C473 N472 1.355 . S
C473 C474 1.363 . S
C473 H485 0.929 . S
C474 C473 1.363 . S
C474 N476 1.375 . S
C474 H492 0.931 . S
C475 N472 1.311 . S
C475 N476 1.347 . S
C475 H486 0.929 . S
N476 C474 1.375 . S
N476 C475 1.347 . S
C477 C480 1.365 . S
C477 N482 1.328 . S
C477 H483 0.929 . S
C478 C479 1.362 . S
C478 C481 1.378 . S
C478 H493 0.929 . S
C479 C478 1.362 . S
C479 C480 1.366 . S
C480 C477 1.365 . S
C480 C479 1.366 . S
C480 H494 0.930 . S
C481 C478 1.378 . S
C481 N482 1.315 . S
C481 H484 0.930 . S
N482 Co462 2.194 . S
N482 C477 1.328 . S
N482 C481 1.315 . S
H483 C477 0.929 . S
H484 C481 0.930 . S
H485 C473 0.929 . S
H486 C475 0.929 . S
O487 Co462 2.351 . S
O487 C490 1.244 . S
O488 Co462 2.155 . S
O488 C490 1.240 . S
O489 Co462 2.096 . S
O489 C470 1.247 . S
C490 O487 1.244 . S
C490 O488 1.240 . S
H491 C465 0.931 . S
H492 C474 0.931 . S
H493 C478 0.929 . S
H494 C480 0.930 . S
Co495 N499 2.148 . S
Co495 N505 2.128 . S
Co495 N515 2.194 . S
Co495 O520 2.351 . S
Co495 O521 2.155 . S
Co495 O522 2.096 . S
C496 N499 1.301 . S
C496 N500 1.328 . S
C496 H501 0.930 . S
C497 C498 1.333 . S
C497 N499 1.317 . S
C497 H502 0.930 . S
C498 C497 1.333 . S
C498 N500 1.350 . S
C498 H524 0.931 . S
N499 Co495 2.148 . S
N499 C496 1.301 . S
N499 C497 1.317 . S
N500 C496 1.328 . S
N500 C498 1.350 . S
H501 C496 0.930 . S
H502 C497 0.930 . S
C503 O504 1.224 . S
C503 O522 1.247 . S
O504 C503 1.224 . S
N505 Co495 2.128 . S
N505 C506 1.355 . S
N505 C508 1.311 . S
C506 N505 1.355 . S
C506 C507 1.363 . S
C506 H518 0.929 . S
C507 C506 1.363 . S
C507 N509 1.375 . S
C507 H525 0.931 . S
C508 N505 1.311 . S
C508 N509 1.347 . S
C508 H519 0.929 . S
N509 C507 1.375 . S
N509 C508 1.347 . S
C510 C513 1.365 . S
C510 N515 1.328 . S
C510 H516 0.929 . S
C511 C512 1.362 . S
C511 C514 1.378 . S
C511 H526 0.929 . S
C512 C511 1.362 . S
C512 C513 1.366 . S
C513 C510 1.365 . S
C513 C512 1.366 . S
C513 H527 0.930 . S
C514 C511 1.378 . S
C514 N515 1.315 . S
C514 H517 0.930 . S
N515 Co495 2.194 . S
N515 C510 1.328 . S
N515 C514 1.315 . S
H516 C510 0.929 . S
H517 C514 0.930 . S
H518 C506 0.929 . S
H519 C508 0.929 . S
O520 Co495 2.351 . S
O520 C523 1.244 . S
O521 Co495 2.155 . S
O521 C523 1.240 . S
O522 Co495 2.096 . S
O522 C503 1.247 . S
C523 O520 1.244 . S
C523 O521 1.240 . S
H524 C498 0.931 . S
H525 C507 0.931 . S
H526 C511 0.929 . S
H527 C513 0.930 . S
Co528 N532 2.148 . S
Co528 N538 2.128 . S
Co528 N548 2.194 . S
Co528 O553 2.351 . S
Co528 O554 2.155 . S
Co528 O555 2.096 . S
C529 N532 1.301 . S
C529 N533 1.328 . S
C529 H534 0.930 . S
C530 C531 1.333 . S
C530 N532 1.317 . S
C530 H535 0.930 . S
C531 C530 1.333 . S
C531 N533 1.350 . S
C531 H557 0.931 . S
N532 Co528 2.148 . S
N532 C529 1.301 . S
N532 C530 1.317 . S
N533 C529 1.328 . S
N533 C531 1.350 . S
H534 C529 0.930 . S
H535 C530 0.930 . S
C536 O537 1.224 . S
C536 O555 1.247 . S
O537 C536 1.224 . S
N538 Co528 2.128 . S
N538 C539 1.355 . S
N538 C541 1.311 . S
C539 N538 1.355 . S
C539 C540 1.363 . S
C539 H551 0.929 . S
C540 C539 1.363 . S
C540 N542 1.375 . S
C540 H558 0.931 . S
C541 N538 1.311 . S
C541 N542 1.347 . S
C541 H552 0.929 . S
N542 C540 1.375 . S
N542 C541 1.347 . S
C543 C546 1.365 . S
C543 N548 1.328 . S
C543 H549 0.929 . S
C544 C545 1.362 . S
C544 C547 1.378 . S
C544 H559 0.929 . S
C545 C544 1.362 . S
C545 C546 1.366 . S
C546 C543 1.365 . S
C546 C545 1.366 . S
C546 H560 0.930 . S
C547 C544 1.378 . S
C547 N548 1.315 . S
C547 H550 0.930 . S
N548 Co528 2.194 . S
N548 C543 1.328 . S
N548 C547 1.315 . S
H549 C543 0.929 . S
H550 C547 0.930 . S
H551 C539 0.929 . S
H552 C541 0.929 . S
O553 Co528 2.351 . S
O553 C556 1.244 . S
O554 Co528 2.155 . S
O554 C556 1.240 . S
O555 Co528 2.096 . S
O555 C536 1.247 . S
C556 O553 1.244 . S
C556 O554 1.240 . S
H557 C531 0.931 . S
H558 C540 0.931 . S
H559 C544 0.929 . S
H560 C546 0.930 . S
Co561 N565 2.148 . S
Co561 N571 2.128 . S
Co561 N581 2.194 . S
Co561 O586 2.351 . S
Co561 O587 2.155 . S
Co561 O588 2.096 . S
C562 N565 1.301 . S
C562 N566 1.328 . S
C562 H567 0.930 . S
C563 C564 1.333 . S
C563 N565 1.317 . S
C563 H568 0.930 . S
C564 C563 1.333 . S
C564 N566 1.350 . S
C564 H590 0.931 . S
N565 Co561 2.148 . S
N565 C562 1.301 . S
N565 C563 1.317 . S
N566 C562 1.328 . S
N566 C564 1.350 . S
H567 C562 0.930 . S
H568 C563 0.930 . S
C569 O570 1.224 . S
C569 O588 1.247 . S
O570 C569 1.224 . S
N571 Co561 2.128 . S
N571 C572 1.355 . S
N571 C574 1.311 . S
C572 N571 1.355 . S
C572 C573 1.363 . S
C572 H584 0.929 . S
C573 C572 1.363 . S
C573 N575 1.375 . S
C573 H591 0.931 . S
C574 N571 1.311 . S
C574 N575 1.347 . S
C574 H585 0.929 . S
N575 C573 1.375 . S
N575 C574 1.347 . S
C576 C579 1.365 . S
C576 N581 1.328 . S
C576 H582 0.929 . S
C577 C578 1.362 . S
C577 C580 1.378 . S
C577 H592 0.929 . S
C578 C577 1.362 . S
C578 C579 1.366 . S
C579 C576 1.365 . S
C579 C578 1.366 . S
C579 H593 0.930 . S
C580 C577 1.378 . S
C580 N581 1.315 . S
C580 H583 0.930 . S
N581 Co561 2.194 . S
N581 C576 1.328 . S
N581 C580 1.315 . S
H582 C576 0.929 . S
H583 C580 0.930 . S
H584 C572 0.929 . S
H585 C574 0.929 . S
O586 Co561 2.351 . S
O586 C589 1.244 . S
O587 Co561 2.155 . S
O587 C589 1.240 . S
O588 Co561 2.096 . S
O588 C569 1.247 . S
C589 O586 1.244 . S
C589 O587 1.240 . S
H590 C564 0.931 . S
H591 C573 0.931 . S
H592 C577 0.929 . S
H593 C579 0.930 . S
H594 C602 0.950 . S
H595 C607 0.950 . S
H596 C604 0.950 . S
H597 C606 0.950 . S
H598 C608 0.950 . S
H599 C610 0.950 . S
H600 C612 0.950 . S
H601 C613 0.950 . S
C602 H594 0.950 . S
C602 C603 1.386 . S
C602 C604 1.391 . S
C603 C602 1.386 . S
C603 C607 1.393 . S
C604 H596 0.950 . S
C604 C602 1.391 . S
C604 C605 1.400 . S
C605 C604 1.400 . S
C605 C606 1.398 . S
C605 C611 1.491 . S
C606 H597 0.950 . S
C606 C605 1.398 . S
C606 C607 1.391 . S
C607 H595 0.950 . S
C607 C603 1.393 . S
C607 C606 1.391 . S
C608 H598 0.950 . S
C608 C609 1.386 . S
C608 C610 1.391 . S
C609 C608 1.386 . S
C609 C613 1.393 . S
C610 H599 0.950 . S
C610 C608 1.391 . S
C610 C611 1.400 . S
C611 C605 1.491 . S
C611 C610 1.400 . S
C611 C612 1.398 . S
C612 H600 0.950 . S
C612 C611 1.398 . S
C612 C613 1.391 . S
C613 H601 0.950 . S
C613 C609 1.393 . S
C613 C612 1.391 . S
H614 C622 0.950 . S
H615 C627 0.950 . S
H616 C624 0.950 1_565 S
H617 C626 0.950 . S
H618 C628 0.950 . S
H619 C630 0.950 . S
H620 C632 0.950 . S
H621 C633 0.950 . S
C622 H614 0.950 . S
C622 C623 1.386 . S
C622 C624 1.391 1_565 S
C623 C622 1.386 . S
C623 C627 1.393 1_565 S
C624 H616 0.950 1_545 S
C624 C622 1.391 1_545 S
C624 C625 1.400 . S
C625 C624 1.400 . S
C625 C626 1.398 . S
C625 C631 1.491 . S
C626 H617 0.950 . S
C626 C625 1.398 . S
C626 C627 1.391 . S
C627 H615 0.950 . S
C627 C623 1.393 1_545 S
C627 C626 1.391 . S
C628 H618 0.950 . S
C628 C629 1.386 . S
C628 C630 1.391 . S
C629 C628 1.386 . S
C629 C633 1.393 . S
C630 H619 0.950 . S
C630 C628 1.391 . S
C630 C631 1.400 . S
C631 C625 1.491 . S
C631 C630 1.400 . S
C631 C632 1.398 . S
C632 H620 0.950 . S
C632 C631 1.398 . S
C632 C633 1.391 . S
C633 H621 0.950 . S
C633 C629 1.393 . S
C633 C632 1.391 . S
H634 C642 0.950 . S
H635 C647 0.950 . S
H636 C644 0.948 . S
H637 C646 0.950 . S
H638 C648 0.950 . S
H639 C650 0.950 . S
H640 C652 0.950 . S
H641 C653 0.950 . S
C642 H634 0.950 . S
C642 C643 1.386 . S
C642 C644 1.390 . S
C643 C642 1.386 . S
C643 C647 1.393 1_455 S
C644 H636 0.948 . S
C644 C642 1.390 . S
C644 C645 1.403 1_455 S
C645 C644 1.403 1_655 S
C645 C646 1.398 . S
C645 C651 1.491 . S
C646 H637 0.950 . S
C646 C645 1.398 . S
C646 C647 1.391 . S
C647 H635 0.950 . S
C647 C643 1.393 1_655 S
C647 C646 1.391 . S
C648 H638 0.950 . S
C648 C649 1.386 . S
C648 C650 1.391 . S
C649 C648 1.386 . S
C649 C653 1.393 . S
C650 H639 0.950 . S
C650 C648 1.391 . S
C650 C651 1.400 . S
C651 C645 1.491 . S
C651 C650 1.400 . S
C651 C652 1.398 . S
C652 H640 0.950 . S
C652 C651 1.398 . S
C652 C653 1.391 . S
C653 H641 0.950 . S
C653 C649 1.393 . S
C653 C652 1.391 . S
H654 C662 0.950 . S
H655 C667 0.950 . S
H656 C664 0.950 . S
H657 C666 0.950 . S
H658 C668 0.950 . S
H659 C670 0.950 . S
H660 C672 0.950 . S
H661 C673 0.950 . S
C662 H654 0.950 . S
C662 C663 1.386 . S
C662 C664 1.391 . S
C663 C662 1.386 . S
C663 C667 1.393 . S
C664 H656 0.950 . S
C664 C662 1.391 . S
C664 C665 1.400 . S
C665 C664 1.400 . S
C665 C666 1.398 . S
C665 C671 1.491 . S
C666 H657 0.950 . S
C666 C665 1.398 . S
C666 C667 1.391 . S
C667 H655 0.950 . S
C667 C663 1.393 . S
C667 C666 1.391 . S
C668 H658 0.950 . S
C668 C669 1.386 . S
C668 C670 1.391 . S
C669 C668 1.386 . S
C669 C673 1.393 . S
C670 H659 0.950 . S
C670 C668 1.391 . S
C670 C671 1.400 . S
C671 C665 1.491 . S
C671 C670 1.400 . S
C671 C672 1.398 . S
C672 H660 0.950 . S
C672 C671 1.398 . S
C672 C673 1.391 . S
C673 H661 0.950 . S
C673 C669 1.393 . S
C673 C672 1.391 . S
H674 C682 0.948 . S
H675 C687 0.950 . S
H676 C684 0.950 . S
H677 C686 0.950 . S
H678 C688 0.950 . S
H679 C690 0.950 . S
H680 C692 0.950 . S
H681 C693 0.950 . S
C682 H674 0.948 . S
C682 C683 1.385 . S
C682 C684 1.394 1_545 S
C683 C682 1.385 . S
C683 C687 1.393 . S
C684 H676 0.950 . S
C684 C682 1.394 1_565 S
C684 C685 1.400 . S
C685 C684 1.400 . S
C685 C686 1.398 . S
C685 C691 1.491 . S
C686 H677 0.950 . S
C686 C685 1.398 . S
C686 C687 1.391 1_565 S
C687 H675 0.950 . S
C687 C683 1.393 . S
C687 C686 1.391 1_545 S
C688 H678 0.950 . S
C688 C689 1.386 . S
C688 C690 1.391 . S
C689 C688 1.386 . S
C689 C693 1.393 . S
C690 H679 0.950 . S
C690 C688 1.391 . S
C690 C691 1.400 . S
C691 C685 1.491 . S
C691 C690 1.400 . S
C691 C692 1.398 . S
C692 H680 0.950 . S
C692 C691 1.398 . S
C692 C693 1.391 . S
C693 H681 0.950 . S
C693 C689 1.393 . S
C693 C692 1.391 . S
H694 C702 0.950 . S
H695 C707 0.950 . S
H696 C704 0.950 1_655 S
H697 C706 0.950 . S
H698 C708 0.950 . S
H699 C710 0.950 . S
H700 C712 0.950 . S
H701 C713 0.950 . S
C702 H694 0.950 . S
C702 C703 1.386 . S
C702 C704 1.391 1_655 S
C703 C702 1.386 . S
C703 C707 1.393 1_655 S
C704 H696 0.950 1_455 S
C704 C702 1.391 1_455 S
C704 C705 1.400 . S
C705 C704 1.400 . S
C705 C706 1.398 . S
C705 C711 1.491 . S
C706 H697 0.950 . S
C706 C705 1.398 . S
C706 C707 1.391 . S
C707 H695 0.950 . S
C707 C703 1.393 1_455 S
C707 C706 1.391 . S
C708 H698 0.950 . S
C708 C709 1.386 . S
C708 C710 1.391 . S
C709 C708 1.386 . S
C709 C713 1.393 . S
C710 H699 0.950 . S
C710 C708 1.391 . S
C710 C711 1.400 . S
C711 C705 1.491 . S
C711 C710 1.400 . S
C711 C712 1.398 . S
C712 H700 0.950 . S
C712 C711 1.398 . S
C712 C713 1.391 . S
C713 H701 0.950 . S
C713 C709 1.393 . S
C713 C712 1.391 . S
H714 C722 0.950 . S
H715 C727 0.950 . S
H716 C724 0.950 . S
H717 C726 0.950 . S
H718 C728 0.950 . S
H719 C730 0.950 . S
H720 C732 0.950 . S
H721 C733 0.950 . S
C722 H714 0.950 . S
C722 C723 1.386 . S
C722 C724 1.391 . S
C723 C722 1.386 . S
C723 C727 1.393 . S
C724 H716 0.950 . S
C724 C722 1.391 . S
C724 C725 1.400 . S
C725 C724 1.400 . S
C725 C726 1.398 . S
C725 C731 1.491 . S
C726 H717 0.950 . S
C726 C725 1.398 . S
C726 C727 1.391 . S
C727 H715 0.950 . S
C727 C723 1.393 . S
C727 C726 1.391 . S
C728 H718 0.950 . S
C728 C729 1.386 1_655 S
C728 C730 1.391 . S
C729 C728 1.386 1_455 S
C729 C733 1.393 . S
C730 H719 0.950 . S
C730 C728 1.391 . S
C730 C731 1.400 . S
C731 C725 1.491 . S
C731 C730 1.400 . S
C731 C732 1.398 . S
C732 H720 0.950 . S
C732 C731 1.398 . S
C732 C733 1.391 1_655 S
C733 H721 0.950 . S
C733 C729 1.393 . S
C733 C732 1.391 1_455 S
H734 C742 0.950 . S
H735 C747 0.950 . S
H736 C744 0.950 . S
H737 C746 0.950 . S
H738 C748 0.950 . S
H739 C750 0.950 . S
H740 C752 0.950 . S
H741 C753 0.950 . S
C742 H734 0.950 . S
C742 C743 1.386 . S
C742 C744 1.391 . S
C743 C742 1.386 . S
C743 C747 1.393 . S
C744 H736 0.950 . S
C744 C742 1.391 . S
C744 C745 1.400 . S
C745 C744 1.400 . S
C745 C746 1.398 . S
C745 C751 1.491 . S
C746 H737 0.950 . S
C746 C745 1.398 . S
C746 C747 1.391 . S
C747 H735 0.950 . S
C747 C743 1.393 . S
C747 C746 1.391 . S
C748 H738 0.950 . S
C748 C749 1.386 . S
C748 C750 1.391 . S
C749 C748 1.386 . S
C749 C753 1.393 . S
C750 H739 0.950 . S
C750 C748 1.391 . S
C750 C751 1.400 . S
C751 C745 1.491 . S
C751 C750 1.400 . S
C751 C752 1.398 . S
C752 H740 0.950 . S
C752 C751 1.398 . S
C752 C753 1.391 . S
C753 H741 0.950 . S
C753 C749 1.393 . S
C753 C752 1.391 . S
H754 C762 0.993 . S
H755 C767 0.950 . S
H756 C764 0.950 . S
H757 C766 0.950 . S
H758 C768 0.950 . S
H759 C770 0.950 . S
H760 C772 0.950 . S
H761 C773 0.950 . S
C762 H754 0.993 . S
C762 C763 1.370 . S
C762 C764 1.365 1_565 S
C763 C762 1.370 . S
C763 C767 1.393 1_565 S
C764 H756 0.950 . S
C764 C762 1.365 1_545 S
C764 C765 1.400 . S
C765 C764 1.400 . S
C765 C766 1.398 . S
C765 C771 1.491 . S
C766 H757 0.950 . S
C766 C765 1.398 . S
C766 C767 1.391 . S
C767 H755 0.950 . S
C767 C763 1.393 1_545 S
C767 C766 1.391 . S
C768 H758 0.950 . S
C768 C769 1.386 . S
C768 C770 1.391 . S
C769 C768 1.386 . S
C769 C773 1.393 . S
C770 H759 0.950 . S
C770 C768 1.391 . S
C770 C771 1.400 . S
C771 C765 1.491 . S
C771 C770 1.400 . S
C771 C772 1.398 . S
C772 H760 0.950 . S
C772 C771 1.398 . S
C772 C773 1.391 . S
C773 H761 0.950 . S
C773 C769 1.393 . S
C773 C772 1.391 . S
H774 C782 0.950 . S
H775 C787 0.950 . S
H776 C784 0.950 . S
H777 C786 0.950 . S
H778 C788 0.950 1_556 S
H779 C790 0.950 . S
H780 C792 0.950 . S
H781 C793 0.950 . S
C782 H774 0.950 . S
C782 C783 1.386 . S
C782 C784 1.391 . S
C783 C782 1.386 . S
C783 C787 1.393 . S
C784 H776 0.950 . S
C784 C782 1.391 . S
C784 C785 1.400 . S
C785 C784 1.400 . S
C785 C786 1.398 . S
C785 C791 1.491 . S
C786 H777 0.950 . S
C786 C785 1.398 . S
C786 C787 1.391 . S
C787 H775 0.950 . S
C787 C783 1.393 . S
C787 C786 1.391 . S
C788 H778 0.950 1_554 S
C788 C789 1.386 . S
C788 C790 1.391 . S
C789 C788 1.386 . S
C789 C793 1.393 . S
C790 H779 0.950 . S
C790 C788 1.391 . S
C790 C791 1.400 . S
C791 C785 1.491 . S
C791 C790 1.400 . S
C791 C792 1.398 . S
C792 H780 0.950 . S
C792 C791 1.398 . S
C792 C793 1.391 . S
C793 H781 0.950 . S
C793 C789 1.393 . S
C793 C792 1.391 . S
H794 C802 0.950 . S
H795 C807 0.950 . S
H796 C804 0.950 . S
H797 C806 0.950 . S
H798 C808 0.950 . S
H799 C810 0.950 . S
H800 C812 0.950 . S
H801 C813 0.950 . S
C802 H794 0.950 . S
C802 C803 1.386 . S
C802 C804 1.391 . S
C803 C802 1.386 . S
C803 C807 1.393 . S
C804 H796 0.950 . S
C804 C802 1.391 . S
C804 C805 1.400 . S
C805 C804 1.400 . S
C805 C806 1.398 . S
C805 C811 1.491 . S
C806 H797 0.950 . S
C806 C805 1.398 . S
C806 C807 1.391 . S
C807 H795 0.950 . S
C807 C803 1.393 . S
C807 C806 1.391 . S
C808 H798 0.950 . S
C808 C809 1.386 . S
C808 C810 1.391 . S
C809 C808 1.386 . S
C809 C813 1.393 . S
C810 H799 0.950 . S
C810 C808 1.391 . S
C810 C811 1.400 . S
C811 C805 1.491 . S
C811 C810 1.400 . S
C811 C812 1.398 . S
C812 H800 0.950 . S
C812 C811 1.398 . S
C812 C813 1.391 . S
C813 H801 0.950 . S
C813 C809 1.393 . S
C813 C812 1.391 . S
H814 C822 0.950 . S
H815 C827 0.950 . S
H816 C824 0.950 . S
H817 C826 0.950 . S
H818 C828 0.950 1_556 S
H819 C830 0.950 . S
H820 C832 0.950 . S
H821 C833 0.950 . S
C822 H814 0.950 . S
C822 C823 1.386 . S
C822 C824 1.391 . S
C823 C822 1.386 . S
C823 C827 1.393 . S
C824 H816 0.950 . S
C824 C822 1.391 . S
C824 C825 1.400 . S
C825 C824 1.400 . S
C825 C826 1.398 . S
C825 C831 1.491 . S
C826 H817 0.950 . S
C826 C825 1.398 . S
C826 C827 1.391 . S
C827 H815 0.950 . S
C827 C823 1.393 . S
C827 C826 1.391 . S
C828 H818 0.950 1_554 S
C828 C829 1.386 . S
C828 C830 1.391 . S
C829 C828 1.386 . S
C829 C833 1.393 . S
C830 H819 0.950 . S
C830 C828 1.391 . S
C830 C831 1.400 . S
C831 C825 1.491 . S
C831 C830 1.400 . S
C831 C832 1.398 . S
C832 H820 0.950 . S
C832 C831 1.398 . S
C832 C833 1.391 . S
C833 H821 0.950 . S
C833 C829 1.393 . S
C833 C832 1.391 . S
H834 C842 0.950 . S
H835 C847 0.950 . S
H836 C844 0.950 . S
H837 C846 0.950 . S
H838 C848 0.950 . S
H839 C850 0.950 . S
H840 C852 0.950 . S
H841 C853 0.950 . S
C842 H834 0.950 . S
C842 C843 1.386 . S
C842 C844 1.391 . S
C843 C842 1.386 . S
C843 C847 1.393 . S
C844 H836 0.950 . S
C844 C842 1.391 . S
C844 C845 1.400 . S
C845 C844 1.400 . S
C845 C846 1.398 . S
C845 C851 1.491 . S
C846 H837 0.950 . S
C846 C845 1.398 . S
C846 C847 1.391 . S
C847 H835 0.950 . S
C847 C843 1.393 . S
C847 C846 1.391 . S
C848 H838 0.950 . S
C848 C849 1.386 1_554 S
C848 C850 1.391 1_554 S
C849 C848 1.386 1_556 S
C849 C853 1.393 . S
C850 H839 0.950 . S
C850 C848 1.391 1_556 S
C850 C851 1.400 . S
C851 C845 1.491 . S
C851 C850 1.400 . S
C851 C852 1.398 . S
C852 H840 0.950 . S
C852 C851 1.398 . S
C852 C853 1.391 . S
C853 H841 0.950 . S
C853 C849 1.393 . S
C853 C852 1.391 . S
H854 C862 0.950 . S
H855 C867 0.950 . S
H856 C864 0.950 . S
H857 C866 0.950 . S
H858 C868 0.950 1_554 S
H859 C870 0.950 . S
H860 C872 0.950 . S
H861 C873 0.950 . S
C862 H854 0.950 . S
C862 C863 1.386 . S
C862 C864 1.391 . S
C863 C862 1.386 . S
C863 C867 1.393 . S
C864 H856 0.950 . S
C864 C862 1.391 . S
C864 C865 1.400 . S
C865 C864 1.400 . S
C865 C866 1.398 . S
C865 C871 1.491 . S
C866 H857 0.950 . S
C866 C865 1.398 . S
C866 C867 1.391 . S
C867 H855 0.950 . S
C867 C863 1.393 . S
C867 C866 1.391 . S
C868 H858 0.950 1_556 S
C868 C869 1.386 . S
C868 C870 1.391 . S
C869 C868 1.386 . S
C869 C873 1.393 . S
C870 H859 0.950 . S
C870 C868 1.391 . S
C870 C871 1.400 . S
C871 C865 1.491 . S
C871 C870 1.400 . S
C871 C872 1.398 . S
C872 H860 0.950 . S
C872 C871 1.398 . S
C872 C873 1.391 . S
C873 H861 0.950 . S
C873 C869 1.393 . S
C873 C872 1.391 . S
H874 C882 0.950 1_554 S
H875 C887 0.950 . S
H876 C884 0.950 . S
H877 C886 0.950 . S
H878 C888 0.950 . S
H879 C890 0.950 . S
H880 C892 0.950 . S
H881 C893 0.950 . S
C882 H874 0.950 1_556 S
C882 C883 1.386 . S
C882 C884 1.391 . S
C883 C882 1.386 . S
C883 C887 1.393 . S
C884 H876 0.950 . S
C884 C882 1.391 . S
C884 C885 1.400 . S
C885 C884 1.400 . S
C885 C886 1.398 . S
C885 C891 1.491 . S
C886 H877 0.950 . S
C886 C885 1.398 . S
C886 C887 1.391 . S
C887 H875 0.950 . S
C887 C883 1.393 . S
C887 C886 1.391 . S
C888 H878 0.950 . S
C888 C889 1.386 . S
C888 C890 1.391 . S
C889 C888 1.386 . S
C889 C893 1.393 . S
C890 H879 0.950 . S
C890 C888 1.391 . S
C890 C891 1.400 . S
C891 C885 1.491 . S
C891 C890 1.400 . S
C891 C892 1.398 . S
C892 H880 0.950 . S
C892 C891 1.398 . S
C892 C893 1.391 . S
C893 H881 0.950 . S
C893 C889 1.393 . S
C893 C892 1.391 . S
H894 C902 0.950 . S
H895 C907 0.950 . S
H896 C904 0.950 . S
H897 C906 0.950 . S
H898 C908 0.950 . S
H899 C910 0.950 . S
H900 C912 0.950 . S
H901 C913 0.950 . S
C902 H894 0.950 . S
C902 C903 1.386 1_455 S
C902 C904 1.391 . S
C903 C902 1.386 1_655 S
C903 C907 1.393 . S
C904 H896 0.950 . S
C904 C902 1.391 . S
C904 C905 1.400 . S
C905 C904 1.400 . S
C905 C906 1.398 . S
C905 C911 1.491 . S
C906 H897 0.950 . S
C906 C905 1.398 . S
C906 C907 1.391 1_455 S
C907 H895 0.950 . S
C907 C903 1.393 . S
C907 C906 1.391 1_655 S
C908 H898 0.950 . S
C908 C909 1.386 . S
C908 C910 1.391 . S
C909 C908 1.386 . S
C909 C913 1.393 . S
C910 H899 0.950 . S
C910 C908 1.391 . S
C910 C911 1.400 . S
C911 C905 1.491 . S
C911 C910 1.400 . S
C911 C912 1.398 . S
C912 H900 0.950 . S
C912 C911 1.398 . S
C912 C913 1.391 . S
C913 H901 0.950 . S
C913 C909 1.393 . S
C913 C912 1.391 . S
H914 C922 0.950 . S
H915 C927 0.950 . S
H916 C924 0.950 . S
H917 C926 0.950 . S
H918 C928 0.950 . S
H919 C930 0.950 . S
H920 C932 0.950 . S
H921 C933 0.950 . S
C922 H914 0.950 . S
C922 C923 1.386 . S
C922 C924 1.391 . S
C923 C922 1.386 . S
C923 C927 1.393 . S
C924 H916 0.950 . S
C924 C922 1.391 . S
C924 C925 1.400 . S
C925 C924 1.400 . S
C925 C926 1.398 . S
C925 C931 1.491 . S
C926 H917 0.950 . S
C926 C925 1.398 . S
C926 C927 1.391 . S
C927 H915 0.950 . S
C927 C923 1.393 . S
C927 C926 1.391 . S
C928 H918 0.950 . S
C928 C929 1.386 . S
C928 C930 1.391 . S
C929 C928 1.386 . S
C929 C933 1.393 . S
C930 H919 0.950 . S
C930 C928 1.391 . S
C930 C931 1.400 . S
C931 C925 1.491 . S
C931 C930 1.400 . S
C931 C932 1.398 . S
C932 H920 0.950 . S
C932 C931 1.398 . S
C932 C933 1.391 . S
C933 H921 0.950 . S
C933 C929 1.393 . S
C933 C932 1.391 . S
H934 C942 0.950 . S
H935 C947 0.950 . S
H936 C944 0.950 . S
H937 C946 0.950 . S
H938 C948 0.950 . S
H939 C950 0.950 . S
H940 C952 0.950 . S
H941 C953 0.950 . S
C942 H934 0.950 . S
C942 C943 1.386 . S
C942 C944 1.391 . S
C943 C942 1.386 . S
C943 C947 1.393 . S
C944 H936 0.950 . S
C944 C942 1.391 . S
C944 C945 1.400 . S
C945 C944 1.400 . S
C945 C946 1.398 . S
C945 C951 1.491 . S
C946 H937 0.950 . S
C946 C945 1.398 . S
C946 C947 1.391 . S
C947 H935 0.950 . S
C947 C943 1.393 . S
C947 C946 1.391 . S
C948 H938 0.950 . S
C948 C949 1.386 . S
C948 C950 1.391 1_545 S
C949 C948 1.386 . S
C949 C953 1.393 1_545 S
C950 H939 0.950 . S
C950 C948 1.391 1_565 S
C950 C951 1.400 . S
C951 C945 1.491 . S
C951 C950 1.400 . S
C951 C952 1.398 . S
C952 H940 0.950 . S
C952 C951 1.398 . S
C952 C953 1.391 . S
C953 H941 0.950 . S
C953 C949 1.393 1_565 S
C953 C952 1.391 . S
H954 C962 0.950 . S
H955 C967 0.950 . S
H956 C964 0.950 . S
H957 C966 0.950 . S
H958 C968 0.950 . S
H959 C970 0.950 . S
H960 C972 0.950 . S
H961 C973 0.950 . S
C962 H954 0.950 . S
C962 C963 1.386 . S
C962 C964 1.391 . S
C963 C962 1.386 . S
C963 C967 1.393 . S
C964 H956 0.950 . S
C964 C962 1.391 . S
C964 C965 1.400 . S
C965 C964 1.400 . S
C965 C966 1.398 . S
C965 C971 1.491 . S
C966 H957 0.950 . S
C966 C965 1.398 . S
C966 C967 1.391 . S
C967 H955 0.950 . S
C967 C963 1.393 . S
C967 C966 1.391 . S
C968 H958 0.950 . S
C968 C969 1.386 . S
C968 C970 1.391 . S
C969 C968 1.386 . S
C969 C973 1.393 . S
C970 H959 0.950 . S
C970 C968 1.391 . S
C970 C971 1.400 . S
C971 C965 1.491 . S
C971 C970 1.400 . S
C971 C972 1.398 . S
C972 H960 0.950 . S
C972 C971 1.398 . S
C972 C973 1.391 . S
C973 H961 0.950 . S
C973 C969 1.393 . S
C973 C972 1.391 . S
H974 C982 0.950 . S
H975 C987 0.950 . S
H976 C984 0.950 . S
H977 C986 0.950 . S
H978 C988 0.950 . S
H979 C990 0.950 . S
H980 C992 0.950 . S
H981 C993 0.950 . S
C982 H974 0.950 . S
C982 C983 1.386 . S
C982 C984 1.391 . S
C983 C982 1.386 . S
C983 C987 1.393 . S
C984 H976 0.950 . S
C984 C982 1.391 . S
C984 C985 1.400 . S
C985 C984 1.400 . S
C985 C986 1.398 . S
C985 C991 1.491 . S
C986 H977 0.950 . S
C986 C985 1.398 . S
C986 C987 1.391 . S
C987 H975 0.950 . S
C987 C983 1.393 . S
C987 C986 1.391 . S
C988 H978 0.950 . S
C988 C989 1.386 . S
C988 C990 1.391 . S
C989 C988 1.386 . S
C989 C993 1.393 . S
C990 H979 0.950 . S
C990 C988 1.391 . S
C990 C991 1.400 . S
C991 C985 1.491 . S
C991 C990 1.400 . S
C991 C992 1.398 . S
C992 H980 0.950 . S
C992 C991 1.398 . S
C992 C993 1.391 . S
C993 H981 0.950 . S
C993 C989 1.393 . S
C993 C992 1.391 . S
H994 C1002 0.950 . S
H995 C1007 0.950 . S
H996 C1004 0.950 . S
H997 C1006 0.950 . S
H998 C1008 0.950 . S
H999 C1010 0.950 . S
H1000 C1012 0.950 . S
H1001 C1013 0.950 . S
C1002 H994 0.950 . S
C1002 C1003 1.386 . S
C1002 C1004 1.391 . S
C1003 C1002 1.386 . S
C1003 C1007 1.393 . S
C1004 H996 0.950 . S
C1004 C1002 1.391 . S
C1004 C1005 1.400 . S
C1005 C1004 1.400 . S
C1005 C1006 1.398 . S
C1005 C1011 1.491 . S
C1006 H997 0.950 . S
C1006 C1005 1.398 . S
C1006 C1007 1.391 . S
C1007 H995 0.950 . S
C1007 C1003 1.393 . S
C1007 C1006 1.391 . S
C1008 H998 0.950 . S
C1008 C1009 1.386 . S
C1008 C1010 1.391 . S
C1009 C1008 1.386 . S
C1009 C1013 1.393 . S
C1010 H999 0.950 . S
C1010 C1008 1.391 . S
C1010 C1011 1.400 . S
C1011 C1005 1.491 . S
C1011 C1010 1.400 . S
C1011 C1012 1.398 . S
C1012 H1000 0.950 . S
C1012 C1011 1.398 . S
C1012 C1013 1.391 . S
C1013 H1001 0.950 . S
C1013 C1009 1.393 . S
C1013 C1012 1.391 . S
H1014 C1022 0.950 . S
H1015 C1027 0.950 . S
H1016 C1024 0.950 . S
H1017 C1026 0.950 . S
H1018 C1028 0.950 . S
H1019 C1030 0.950 . S
H1020 C1032 0.950 . S
H1021 C1033 0.950 . S
C1022 H1014 0.950 . S
C1022 C1023 1.386 . S
C1022 C1024 1.391 . S
C1023 C1022 1.386 . S
C1023 C1027 1.393 . S
C1024 H1016 0.950 . S
C1024 C1022 1.391 . S
C1024 C1025 1.400 . S
C1025 C1024 1.400 . S
C1025 C1026 1.398 . S
C1025 C1031 1.491 . S
C1026 H1017 0.950 . S
C1026 C1025 1.398 . S
C1026 C1027 1.391 . S
C1027 H1015 0.950 . S
C1027 C1023 1.393 . S
C1027 C1026 1.391 . S
C1028 H1018 0.950 . S
C1028 C1029 1.386 . S
C1028 C1030 1.391 . S
C1029 C1028 1.386 . S
C1029 C1033 1.393 . S
C1030 H1019 0.950 . S
C1030 C1028 1.391 . S
C1030 C1031 1.400 . S
C1031 C1025 1.491 . S
C1031 C1030 1.400 . S
C1031 C1032 1.398 . S
C1032 H1020 0.950 . S
C1032 C1031 1.398 . S
C1032 C1033 1.391 . S
C1033 H1021 0.950 . S
C1033 C1029 1.393 . S
C1033 C1032 1.391 . S
H1034 C1042 0.950 . S
H1035 C1047 0.950 . S
H1036 C1044 0.950 . S
H1037 C1046 0.950 . S
H1038 C1048 0.950 . S
H1039 C1050 0.950 . S
H1040 C1052 0.950 . S
H1041 C1053 0.950 . S
C1042 H1034 0.950 . S
C1042 C1043 1.386 . S
C1042 C1044 1.391 . S
C1043 C1042 1.386 . S
C1043 C1047 1.393 . S
C1044 H1036 0.950 . S
C1044 C1042 1.391 . S
C1044 C1045 1.400 . S
C1045 C1044 1.400 . S
C1045 C1046 1.398 . S
C1045 C1051 1.491 . S
C1046 H1037 0.950 . S
C1046 C1045 1.398 . S
C1046 C1047 1.391 . S
C1047 H1035 0.950 . S
C1047 C1043 1.393 . S
C1047 C1046 1.391 . S
C1048 H1038 0.950 . S
C1048 C1049 1.386 . S
C1048 C1050 1.391 . S
C1049 C1048 1.386 . S
C1049 C1053 1.393 . S
C1050 H1039 0.950 . S
C1050 C1048 1.391 . S
C1050 C1051 1.400 . S
C1051 C1045 1.491 . S
C1051 C1050 1.400 . S
C1051 C1052 1.398 . S
C1052 H1040 0.950 . S
C1052 C1051 1.398 . S
C1052 C1053 1.391 . S
C1053 H1041 0.950 . S
C1053 C1049 1.393 . S
C1053 C1052 1.391 . S
H1054 C1062 0.950 . S
H1055 C1067 0.950 . S
H1056 C1064 0.950 . S
H1057 C1066 0.950 . S
H1058 C1068 0.950 . S
H1059 C1070 0.950 . S
H1060 C1072 0.950 . S
H1061 C1073 0.950 . S
C1062 H1054 0.950 . S
C1062 C1063 1.386 . S
C1062 C1064 1.391 . S
C1063 C1062 1.386 . S
C1063 C1067 1.393 . S
C1064 H1056 0.950 . S
C1064 C1062 1.391 . S
C1064 C1065 1.400 . S
C1065 C1064 1.400 . S
C1065 C1066 1.398 . S
C1065 C1071 1.491 . S
C1066 H1057 0.950 . S
C1066 C1065 1.398 . S
C1066 C1067 1.391 . S
C1067 H1055 0.950 . S
C1067 C1063 1.393 . S
C1067 C1066 1.391 . S
C1068 H1058 0.950 . S
C1068 C1069 1.386 . S
C1068 C1070 1.391 . S
C1069 C1068 1.386 . S
C1069 C1073 1.393 . S
C1070 H1059 0.950 . S
C1070 C1068 1.391 . S
C1070 C1071 1.400 . S
C1071 C1065 1.491 . S
C1071 C1070 1.400 . S
C1071 C1072 1.398 . S
C1072 H1060 0.950 . S
C1072 C1071 1.398 . S
C1072 C1073 1.391 . S
C1073 H1061 0.950 . S
C1073 C1069 1.393 . S
C1073 C1072 1.391 . S
H1074 C1082 0.950 . S
H1075 C1087 0.950 . S
H1076 C1084 0.950 1_565 S
H1077 C1086 0.950 1_556 S
H1078 C1088 0.950 . S
H1079 C1090 0.950 1_545 S
H1080 C1092 0.950 1_554 S
H1081 C1093 0.950 . S
C1082 H1074 0.950 . S
C1082 C1083 1.386 . S
C1082 C1084 1.391 . S
C1083 C1082 1.386 . S
C1083 C1087 1.393 . S
C1084 H1076 0.950 1_545 S
C1084 C1082 1.391 . S
C1084 C1085 1.400 . S
C1085 C1084 1.400 . S
C1085 C1086 1.398 . S
C1085 C1091 1.491 1_544 S
C1086 H1077 0.950 1_554 S
C1086 C1085 1.398 . S
C1086 C1087 1.391 . S
C1087 H1075 0.950 . S
C1087 C1083 1.393 . S
C1087 C1086 1.391 . S
C1088 H1078 0.950 . S
C1088 C1089 1.386 . S
C1088 C1090 1.391 . S
C1089 C1088 1.386 . S
C1089 C1093 1.393 . S
C1090 H1079 0.950 1_565 S
C1090 C1088 1.391 . S
C1090 C1091 1.400 . S
C1091 C1085 1.491 1_566 S
C1091 C1090 1.400 . S
C1091 C1092 1.398 . S
C1092 H1080 0.950 1_556 S
C1092 C1091 1.398 . S
C1092 C1093 1.391 . S
C1093 H1081 0.950 . S
C1093 C1089 1.393 . S
C1093 C1092 1.391 . S
H1094 C1102 0.950 . S
H1095 C1107 0.950 . S
H1096 C1104 0.950 . S
H1097 C1106 0.950 . S
H1098 C1108 0.950 . S
H1099 C1110 0.950 . S
H1100 C1112 0.950 . S
H1101 C1113 0.950 . S
C1102 H1094 0.950 . S
C1102 C1103 1.386 . S
C1102 C1104 1.391 . S
C1103 C1102 1.386 . S
C1103 C1107 1.393 1_455 S
C1104 H1096 0.950 . S
C1104 C1102 1.391 . S
C1104 C1105 1.400 . S
C1105 C1104 1.400 . S
C1105 C1106 1.398 1_455 S
C1105 C1111 1.491 1_456 S
C1106 H1097 0.950 . S
C1106 C1105 1.398 1_655 S
C1106 C1107 1.391 . S
C1107 H1095 0.950 . S
C1107 C1103 1.393 1_655 S
C1107 C1106 1.391 . S
C1108 H1098 0.950 . S
C1108 C1109 1.386 . S
C1108 C1110 1.391 . S
C1109 C1108 1.386 . S
C1109 C1113 1.393 1_655 S
C1110 H1099 0.950 . S
C1110 C1108 1.391 . S
C1110 C1111 1.400 . S
C1111 C1105 1.491 1_654 S
C1111 C1110 1.400 . S
C1111 C1112 1.398 1_655 S
C1112 H1100 0.950 . S
C1112 C1111 1.398 1_455 S
C1112 C1113 1.391 . S
C1113 H1101 0.950 . S
C1113 C1109 1.393 1_455 S
C1113 C1112 1.391 . S
H1114 C1122 0.950 . S
H1115 C1127 0.950 . S
H1116 C1124 0.950 . S
H1117 C1126 0.950 . S
H1118 C1128 0.950 . S
H1119 C1130 0.950 . S
H1120 C1132 0.950 . S
H1121 C1133 0.950 . S
C1122 H1114 0.950 . S
C1122 C1123 1.386 . S
C1122 C1124 1.391 . S
C1123 C1122 1.386 . S
C1123 C1127 1.393 . S
C1124 H1116 0.950 . S
C1124 C1122 1.391 . S
C1124 C1125 1.400 . S
C1125 C1124 1.400 . S
C1125 C1126 1.398 . S
C1125 C1131 1.491 1_556 S
C1126 H1117 0.950 . S
C1126 C1125 1.398 . S
C1126 C1127 1.391 . S
C1127 H1115 0.950 . S
C1127 C1123 1.393 . S
C1127 C1126 1.391 . S
C1128 H1118 0.950 . S
C1128 C1129 1.386 . S
C1128 C1130 1.391 . S
C1129 C1128 1.386 . S
C1129 C1133 1.393 . S
C1130 H1119 0.950 . S
C1130 C1128 1.391 . S
C1130 C1131 1.400 . S
C1131 C1125 1.491 1_554 S
C1131 C1130 1.400 . S
C1131 C1132 1.398 . S
C1132 H1120 0.950 . S
C1132 C1131 1.398 . S
C1132 C1133 1.391 . S
C1133 H1121 0.950 . S
C1133 C1129 1.393 . S
C1133 C1132 1.391 . S
H1134 C1142 0.950 . S
H1135 C1147 0.950 1_554 S
H1136 C1144 0.950 . S
H1137 C1146 0.950 . S
H1138 C1148 0.950 . S
H1139 C1150 0.950 . S
H1140 C1152 0.950 . S
H1141 C1153 0.950 . S
C1142 H1134 0.950 . S
C1142 C1143 1.386 . S
C1142 C1144 1.391 1_554 S
C1143 C1142 1.386 . S
C1143 C1147 1.392 1_554 S
C1144 H1136 0.950 . S
C1144 C1142 1.391 1_556 S
C1144 C1145 1.400 . S
C1145 C1144 1.400 . S
C1145 C1146 1.398 . S
C1145 C1151 1.491 . S
C1146 H1137 0.950 . S
C1146 C1145 1.398 . S
C1146 C1147 1.391 . S
C1147 H1135 0.950 1_556 S
C1147 C1143 1.392 1_556 S
C1147 C1146 1.391 . S
C1148 H1138 0.950 . S
C1148 C1149 1.386 . S
C1148 C1150 1.391 . S
C1149 C1148 1.386 . S
C1149 C1153 1.393 . S
C1150 H1139 0.950 . S
C1150 C1148 1.391 . S
C1150 C1151 1.400 . S
C1151 C1145 1.491 . S
C1151 C1150 1.400 . S
C1151 C1152 1.398 . S
C1152 H1140 0.950 . S
C1152 C1151 1.398 . S
C1152 C1153 1.391 . S
C1153 H1141 0.950 . S
C1153 C1149 1.393 . S
C1153 C1152 1.391 . S
H1154 C1162 0.950 . S
H1155 C1167 0.950 . S
H1156 C1164 0.950 . S
H1157 C1166 0.950 . S
H1158 C1168 0.950 . S
H1159 C1170 0.949 1_554 S
H1160 C1172 0.950 . S
H1161 C1173 0.950 . S
C1162 H1154 0.950 . S
C1162 C1163 1.386 . S
C1162 C1164 1.391 . S
C1163 C1162 1.386 . S
C1163 C1167 1.393 . S
C1164 H1156 0.950 . S
C1164 C1162 1.391 . S
C1164 C1165 1.400 . S
C1165 C1164 1.400 . S
C1165 C1166 1.398 . S
C1165 C1171 1.491 . S
C1166 H1157 0.950 . S
C1166 C1165 1.398 . S
C1166 C1167 1.391 . S
C1167 H1155 0.950 . S
C1167 C1163 1.393 . S
C1167 C1166 1.391 . S
C1168 H1158 0.950 . S
C1168 C1169 1.386 . S
C1168 C1170 1.389 1_554 S
C1169 C1168 1.386 . S
C1169 C1173 1.393 1_554 S
C1170 H1159 0.949 1_556 S
C1170 C1168 1.389 1_556 S
C1170 C1171 1.404 . S
C1171 C1165 1.491 . S
C1171 C1170 1.404 . S
C1171 C1172 1.398 . S
C1172 H1160 0.950 . S
C1172 C1171 1.398 . S
C1172 C1173 1.391 . S
C1173 H1161 0.950 . S
C1173 C1169 1.393 1_556 S
C1173 C1172 1.391 . S
H1174 C1182 0.950 . S
H1175 C1187 0.950 . S
H1176 C1184 0.950 . S
H1177 C1186 0.950 . S
H1178 C1188 0.950 . S
H1179 C1190 0.950 . S
H1180 C1192 0.950 1_554 S
H1181 C1193 0.950 . S
C1182 H1174 0.950 . S
C1182 C1183 1.386 . S
C1182 C1184 1.391 . S
C1183 C1182 1.386 . S
C1183 C1187 1.393 1_554 S
C1184 H1176 0.950 . S
C1184 C1182 1.391 . S
C1184 C1185 1.400 1_554 S
C1185 C1184 1.400 1_556 S
C1185 C1186 1.398 . S
C1185 C1191 1.491 . S
C1186 H1177 0.950 . S
C1186 C1185 1.398 . S
C1186 C1187 1.391 . S
C1187 H1175 0.950 . S
C1187 C1183 1.393 1_556 S
C1187 C1186 1.391 . S
C1188 H1178 0.950 . S
C1188 C1189 1.386 . S
C1188 C1190 1.391 . S
C1189 C1188 1.386 . S
C1189 C1193 1.393 . S
C1190 H1179 0.950 . S
C1190 C1188 1.391 . S
C1190 C1191 1.400 . S
C1191 C1185 1.491 . S
C1191 C1190 1.400 . S
C1191 C1192 1.398 . S
C1192 H1180 0.950 1_556 S
C1192 C1191 1.398 . S
C1192 C1193 1.391 . S
C1193 H1181 0.950 . S
C1193 C1189 1.393 . S
C1193 C1192 1.391 . S
H1194 C1202 0.950 . S
H1195 C1207 0.950 . S
H1196 C1204 0.950 . S
H1197 C1206 0.950 . S
H1198 C1208 0.950 . S
H1199 C1210 0.950 . S
H1200 C1212 0.950 . S
H1201 C1213 0.950 . S
C1202 H1194 0.950 . S
C1202 C1203 1.386 . S
C1202 C1204 1.391 . S
C1203 C1202 1.386 . S
C1203 C1207 1.393 . S
C1204 H1196 0.950 . S
C1204 C1202 1.391 . S
C1204 C1205 1.400 . S
C1205 C1204 1.400 . S
C1205 C1206 1.398 . S
C1205 C1211 1.491 . S
C1206 H1197 0.950 . S
C1206 C1205 1.398 . S
C1206 C1207 1.391 . S
C1207 H1195 0.950 . S
C1207 C1203 1.393 . S
C1207 C1206 1.391 . S
C1208 H1198 0.950 . S
C1208 C1209 1.386 . S
C1208 C1210 1.391 . S
C1209 C1208 1.386 . S
C1209 C1213 1.393 1_556 S
C1210 H1199 0.950 . S
C1210 C1208 1.391 . S
C1210 C1211 1.400 1_556 S
C1211 C1205 1.491 . S
C1211 C1210 1.400 1_554 S
C1211 C1212 1.398 . S
C1212 H1200 0.950 . S
C1212 C1211 1.398 . S
C1212 C1213 1.391 . S
C1213 H1201 0.950 . S
C1213 C1209 1.393 1_554 S
C1213 C1212 1.391 . S
H1214 C1222 0.950 . S
H1215 C1227 0.950 . S
H1216 C1224 0.950 . S
H1217 C1226 0.950 . S
H1218 C1228 0.950 . S
H1219 C1230 0.950 . S
H1220 C1232 0.950 1_556 S
H1221 C1233 0.950 . S
C1222 H1214 0.950 . S
C1222 C1223 1.386 . S
C1222 C1224 1.391 . S
C1223 C1222 1.386 . S
C1223 C1227 1.393 1_556 S
C1224 H1216 0.950 . S
C1224 C1222 1.391 . S
C1224 C1225 1.400 1_556 S
C1225 C1224 1.400 1_554 S
C1225 C1226 1.398 . S
C1225 C1231 1.491 . S
C1226 H1217 0.950 . S
C1226 C1225 1.398 . S
C1226 C1227 1.391 . S
C1227 H1215 0.950 . S
C1227 C1223 1.393 1_554 S
C1227 C1226 1.391 . S
C1228 H1218 0.950 . S
C1228 C1229 1.386 . S
C1228 C1230 1.391 . S
C1229 C1228 1.386 . S
C1229 C1233 1.393 . S
C1230 H1219 0.950 . S
C1230 C1228 1.391 . S
C1230 C1231 1.400 . S
C1231 C1225 1.491 . S
C1231 C1230 1.400 . S
C1231 C1232 1.398 . S
C1232 H1220 0.950 1_554 S
C1232 C1231 1.398 . S
C1232 C1233 1.391 . S
C1233 H1221 0.950 . S
C1233 C1229 1.393 . S
C1233 C1232 1.391 . S
H1234 C1242 0.950 . S
H1235 C1247 0.950 . S
H1236 C1244 0.950 . S
H1237 C1246 0.950 . S
H1238 C1248 0.950 . S
H1239 C1250 0.950 . S
H1240 C1252 0.950 . S
H1241 C1253 0.950 . S
C1242 H1234 0.950 . S
C1242 C1243 1.386 . S
C1242 C1244 1.391 . S
C1243 C1242 1.386 . S
C1243 C1247 1.393 . S
C1244 H1236 0.950 . S
C1244 C1242 1.391 . S
C1244 C1245 1.400 . S
C1245 C1244 1.400 . S
C1245 C1246 1.398 . S
C1245 C1251 1.491 . S
C1246 H1237 0.950 . S
C1246 C1245 1.398 . S
C1246 C1247 1.391 . S
C1247 H1235 0.950 . S
C1247 C1243 1.393 . S
C1247 C1246 1.391 . S
C1248 H1238 0.950 . S
C1248 C1249 1.386 1_554 S
C1248 C1250 1.391 . S
C1249 C1248 1.386 1_556 S
C1249 C1253 1.393 . S
C1250 H1239 0.950 . S
C1250 C1248 1.391 . S
C1250 C1251 1.400 . S
C1251 C1245 1.491 . S
C1251 C1250 1.400 . S
C1251 C1252 1.398 1_554 S
C1252 H1240 0.950 . S
C1252 C1251 1.398 1_556 S
C1252 C1253 1.391 . S
C1253 H1241 0.950 . S
C1253 C1249 1.393 . S
C1253 C1252 1.391 . S
H1254 C1262 0.950 . S
H1255 C1267 0.950 . S
H1256 C1264 0.950 . S
H1257 C1266 0.950 . S
H1258 C1268 0.950 . S
H1259 C1270 0.950 . S
H1260 C1272 0.950 . S
H1261 C1273 0.950 . S
C1262 H1254 0.950 . S
C1262 C1263 1.386 . S
C1262 C1264 1.391 . S
C1263 C1262 1.386 . S
C1263 C1267 1.393 . S
C1264 H1256 0.950 . S
C1264 C1262 1.391 . S
C1264 C1265 1.400 . S
C1265 C1264 1.400 . S
C1265 C1266 1.398 . S
C1265 C1271 1.491 . S
C1266 H1257 0.950 . S
C1266 C1265 1.398 . S
C1266 C1267 1.391 . S
C1267 H1255 0.950 . S
C1267 C1263 1.393 . S
C1267 C1266 1.391 . S
C1268 H1258 0.950 . S
C1268 C1269 1.386 . S
C1268 C1270 1.391 . S
C1269 C1268 1.386 . S
C1269 C1273 1.393 . S
C1270 H1259 0.950 . S
C1270 C1268 1.391 . S
C1270 C1271 1.400 . S
C1271 C1265 1.491 . S
C1271 C1270 1.400 . S
C1271 C1272 1.398 . S
C1272 H1260 0.950 . S
C1272 C1271 1.398 . S
C1272 C1273 1.391 . S
C1273 H1261 0.950 . S
C1273 C1269 1.393 . S
C1273 C1272 1.391 . S
H1274 C1282 0.950 . S
H1275 C1287 0.950 . S
H1276 C1284 0.950 . S
H1277 C1286 0.950 . S
H1278 C1288 0.950 . S
H1279 C1290 0.950 . S
H1280 C1292 0.950 . S
H1281 C1293 0.950 . S
C1282 H1274 0.950 . S
C1282 C1283 1.386 . S
C1282 C1284 1.391 . S
C1283 C1282 1.386 . S
C1283 C1287 1.393 . S
C1284 H1276 0.950 . S
C1284 C1282 1.391 . S
C1284 C1285 1.400 . S
C1285 C1284 1.400 . S
C1285 C1286 1.398 . S
C1285 C1291 1.491 . S
C1286 H1277 0.950 . S
C1286 C1285 1.398 . S
C1286 C1287 1.391 . S
C1287 H1275 0.950 . S
C1287 C1283 1.393 . S
C1287 C1286 1.391 . S
C1288 H1278 0.950 . S
C1288 C1289 1.386 . S
C1288 C1290 1.391 . S
C1289 C1288 1.386 . S
C1289 C1293 1.393 . S
C1290 H1279 0.950 . S
C1290 C1288 1.391 . S
C1290 C1291 1.400 . S
C1291 C1285 1.491 . S
C1291 C1290 1.400 . S
C1291 C1292 1.398 . S
C1292 H1280 0.950 . S
C1292 C1291 1.398 . S
C1292 C1293 1.391 . S
C1293 H1281 0.950 . S
C1293 C1289 1.393 . S
C1293 C1292 1.391 . S
H1294 C1302 0.950 . S
H1295 C1307 0.950 . S
H1296 C1304 0.950 . S
H1297 C1306 0.950 . S
H1298 C1308 0.950 . S
H1299 C1310 0.950 . S
H1300 C1312 0.950 . S
H1301 C1313 0.950 . S
C1302 H1294 0.950 . S
C1302 C1303 1.386 . S
C1302 C1304 1.391 . S
C1303 C1302 1.386 . S
C1303 C1307 1.393 . S
C1304 H1296 0.950 . S
C1304 C1302 1.391 . S
C1304 C1305 1.400 . S
C1305 C1304 1.400 . S
C1305 C1306 1.398 . S
C1305 C1311 1.491 . S
C1306 H1297 0.950 . S
C1306 C1305 1.398 . S
C1306 C1307 1.391 . S
C1307 H1295 0.950 . S
C1307 C1303 1.393 . S
C1307 C1306 1.391 . S
C1308 H1298 0.950 . S
C1308 C1309 1.386 . S
C1308 C1310 1.391 . S
C1309 C1308 1.386 . S
C1309 C1313 1.393 . S
C1310 H1299 0.950 . S
C1310 C1308 1.391 . S
C1310 C1311 1.400 . S
C1311 C1305 1.491 . S
C1311 C1310 1.400 . S
C1311 C1312 1.398 . S
C1312 H1300 0.950 . S
C1312 C1311 1.398 . S
C1312 C1313 1.391 . S
C1313 H1301 0.950 . S
C1313 C1309 1.393 . S
C1313 C1312 1.391 . S
H1314 C1322 0.950 . S
H1315 C1327 0.950 . S
H1316 C1324 0.950 . S
H1317 C1326 0.950 . S
H1318 C1328 0.950 . S
H1319 C1330 0.950 . S
H1320 C1332 0.950 . S
H1321 C1333 0.950 . S
C1322 H1314 0.950 . S
C1322 C1323 1.386 . S
C1322 C1324 1.391 . S
C1323 C1322 1.386 . S
C1323 C1327 1.393 . S
C1324 H1316 0.950 . S
C1324 C1322 1.391 . S
C1324 C1325 1.400 . S
C1325 C1324 1.400 . S
C1325 C1326 1.398 . S
C1325 C1331 1.491 . S
C1326 H1317 0.950 . S
C1326 C1325 1.398 . S
C1326 C1327 1.391 . S
C1327 H1315 0.950 . S
C1327 C1323 1.393 . S
C1327 C1326 1.391 . S
C1328 H1318 0.950 . S
C1328 C1329 1.386 . S
C1328 C1330 1.391 . S
C1329 C1328 1.386 . S
C1329 C1333 1.393 . S
C1330 H1319 0.950 . S
C1330 C1328 1.391 . S
C1330 C1331 1.400 . S
C1331 C1325 1.491 . S
C1331 C1330 1.400 . S
C1331 C1332 1.398 . S
C1332 H1320 0.950 . S
C1332 C1331 1.398 . S
C1332 C1333 1.391 . S
C1333 H1321 0.950 . S
C1333 C1329 1.393 . S
C1333 C1332 1.391 . S
H1334 C1342 0.950 . S
H1335 C1347 0.950 . S
H1336 C1344 0.950 . S
H1337 C1346 0.950 . S
H1338 C1348 0.950 . S
H1339 C1350 0.950 . S
H1340 C1352 0.950 . S
H1341 C1353 0.950 . S
C1342 H1334 0.950 . S
C1342 C1343 1.386 . S
C1342 C1344 1.391 . S
C1343 C1342 1.386 . S
C1343 C1347 1.393 . S
C1344 H1336 0.950 . S
C1344 C1342 1.391 . S
C1344 C1345 1.400 . S
C1345 C1344 1.400 . S
C1345 C1346 1.398 . S
C1345 C1351 1.491 . S
C1346 H1337 0.950 . S
C1346 C1345 1.398 . S
C1346 C1347 1.391 . S
C1347 H1335 0.950 . S
C1347 C1343 1.393 . S
C1347 C1346 1.391 . S
C1348 H1338 0.950 . S
C1348 C1349 1.386 . S
C1348 C1350 1.391 . S
C1349 C1348 1.386 . S
C1349 C1353 1.393 . S
C1350 H1339 0.950 . S
C1350 C1348 1.391 . S
C1350 C1351 1.400 . S
C1351 C1345 1.491 . S
C1351 C1350 1.400 . S
C1351 C1352 1.398 . S
C1352 H1340 0.950 . S
C1352 C1351 1.398 . S
C1352 C1353 1.391 . S
C1353 H1341 0.950 . S
C1353 C1349 1.393 . S
C1353 C1352 1.391 . S
H1354 C1362 0.950 . S
H1355 C1367 0.950 . S
H1356 C1364 0.950 . S
H1357 C1366 0.950 . S
H1358 C1368 0.950 . S
H1359 C1370 0.950 . S
H1360 C1372 0.950 . S
H1361 C1373 0.950 . S
C1362 H1354 0.950 . S
C1362 C1363 1.386 . S
C1362 C1364 1.391 . S
C1363 C1362 1.386 . S
C1363 C1367 1.393 . S
C1364 H1356 0.950 . S
C1364 C1362 1.391 . S
C1364 C1365 1.400 . S
C1365 C1364 1.400 . S
C1365 C1366 1.398 . S
C1365 C1371 1.491 . S
C1366 H1357 0.950 . S
C1366 C1365 1.398 . S
C1366 C1367 1.391 . S
C1367 H1355 0.950 . S
C1367 C1363 1.393 . S
C1367 C1366 1.391 . S
C1368 H1358 0.950 . S
C1368 C1369 1.386 . S
C1368 C1370 1.391 . S
C1369 C1368 1.386 . S
C1369 C1373 1.393 . S
C1370 H1359 0.950 . S
C1370 C1368 1.391 . S
C1370 C1371 1.400 . S
C1371 C1365 1.491 . S
C1371 C1370 1.400 . S
C1371 C1372 1.398 . S
C1372 H1360 0.950 . S
C1372 C1371 1.398 . S
C1372 C1373 1.391 . S
C1373 H1361 0.950 . S
C1373 C1369 1.393 . S
C1373 C1372 1.391 . S
H1374 C1382 0.950 . S
H1375 C1387 0.950 . S
H1376 C1384 0.950 . S
H1377 C1386 0.950 . S
H1378 C1388 0.950 . S
H1379 C1390 0.950 . S
H1380 C1392 0.950 . S
H1381 C1393 0.950 . S
C1382 H1374 0.950 . S
C1382 C1383 1.386 . S
C1382 C1384 1.391 . S
C1383 C1382 1.386 . S
C1383 C1387 1.393 . S
C1384 H1376 0.950 . S
C1384 C1382 1.391 . S
C1384 C1385 1.400 . S
C1385 C1384 1.400 . S
C1385 C1386 1.398 . S
C1385 C1391 1.491 . S
C1386 H1377 0.950 . S
C1386 C1385 1.398 . S
C1386 C1387 1.391 . S
C1387 H1375 0.950 . S
C1387 C1383 1.393 . S
C1387 C1386 1.391 . S
C1388 H1378 0.950 . S
C1388 C1389 1.386 . S
C1388 C1390 1.391 . S
C1389 C1388 1.386 . S
C1389 C1393 1.393 . S
C1390 H1379 0.950 . S
C1390 C1388 1.391 . S
C1390 C1391 1.400 . S
C1391 C1385 1.491 . S
C1391 C1390 1.400 . S
C1391 C1392 1.398 . S
C1392 H1380 0.950 . S
C1392 C1391 1.398 . S
C1392 C1393 1.391 . S
C1393 H1381 0.950 . S
C1393 C1389 1.393 . S
C1393 C1392 1.391 . S
H1394 C1402 0.950 . S
H1395 C1407 0.950 . S
H1396 C1404 0.950 . S
H1397 C1406 0.950 . S
H1398 C1408 0.950 . S
H1399 C1410 0.950 . S
H1400 C1412 0.950 . S
H1401 C1413 0.950 . S
C1402 H1394 0.950 . S
C1402 C1403 1.386 . S
C1402 C1404 1.391 . S
C1403 C1402 1.386 . S
C1403 C1407 1.393 . S
C1404 H1396 0.950 . S
C1404 C1402 1.391 . S
C1404 C1405 1.400 . S
C1405 C1404 1.400 . S
C1405 C1406 1.398 . S
C1405 C1411 1.491 . S
C1406 H1397 0.950 . S
C1406 C1405 1.398 . S
C1406 C1407 1.391 . S
C1407 H1395 0.950 . S
C1407 C1403 1.393 . S
C1407 C1406 1.391 . S
C1408 H1398 0.950 . S
C1408 C1409 1.386 . S
C1408 C1410 1.391 . S
C1409 C1408 1.386 . S
C1409 C1413 1.393 . S
C1410 H1399 0.950 . S
C1410 C1408 1.391 . S
C1410 C1411 1.400 . S
C1411 C1405 1.491 . S
C1411 C1410 1.400 . S
C1411 C1412 1.398 . S
C1412 H1400 0.950 . S
C1412 C1411 1.398 . S
C1412 C1413 1.391 . S
C1413 H1401 0.950 . S
C1413 C1409 1.393 . S
C1413 C1412 1.391 . S
H1414 C1422 0.950 . S
H1415 C1427 0.950 . S
H1416 C1424 0.950 . S
H1417 C1426 0.950 . S
H1418 C1428 0.950 . S
H1419 C1430 0.950 . S
H1420 C1432 0.950 . S
H1421 C1433 0.950 . S
C1422 H1414 0.950 . S
C1422 C1423 1.386 . S
C1422 C1424 1.391 . S
C1423 C1422 1.386 . S
C1423 C1427 1.393 . S
C1424 H1416 0.950 . S
C1424 C1422 1.391 . S
C1424 C1425 1.400 . S
C1425 C1424 1.400 . S
C1425 C1426 1.398 . S
C1425 C1431 1.491 . S
C1426 H1417 0.950 . S
C1426 C1425 1.398 . S
C1426 C1427 1.391 . S
C1427 H1415 0.950 . S
C1427 C1423 1.393 . S
C1427 C1426 1.391 . S
C1428 H1418 0.950 . S
C1428 C1429 1.386 . S
C1428 C1430 1.391 . S
C1429 C1428 1.386 . S
C1429 C1433 1.393 . S
C1430 H1419 0.950 . S
C1430 C1428 1.391 . S
C1430 C1431 1.400 . S
C1431 C1425 1.491 . S
C1431 C1430 1.400 . S
C1431 C1432 1.398 . S
C1432 H1420 0.950 . S
C1432 C1431 1.398 . S
C1432 C1433 1.391 . S
C1433 H1421 0.950 . S
C1433 C1429 1.393 . S
C1433 C1432 1.391 . S
H1434 C1442 0.950 . S
H1435 C1447 0.950 . S
H1436 C1444 0.950 . S
H1437 C1446 0.950 . S
H1438 C1448 0.950 . S
H1439 C1450 0.950 . S
H1440 C1452 0.950 . S
H1441 C1453 0.950 . S
C1442 H1434 0.950 . S
C1442 C1443 1.386 . S
C1442 C1444 1.391 . S
C1443 C1442 1.386 . S
C1443 C1447 1.393 . S
C1444 H1436 0.950 . S
C1444 C1442 1.391 . S
C1444 C1445 1.400 . S
C1445 C1444 1.400 . S
C1445 C1446 1.398 . S
C1445 C1451 1.491 . S
C1446 H1437 0.950 . S
C1446 C1445 1.398 . S
C1446 C1447 1.391 . S
C1447 H1435 0.950 . S
C1447 C1443 1.393 . S
C1447 C1446 1.391 . S
C1448 H1438 0.950 . S
C1448 C1449 1.386 . S
C1448 C1450 1.391 . S
C1449 C1448 1.386 . S
C1449 C1453 1.393 . S
C1450 H1439 0.950 . S
C1450 C1448 1.391 . S
C1450 C1451 1.400 . S
C1451 C1445 1.491 . S
C1451 C1450 1.400 . S
C1451 C1452 1.398 . S
C1452 H1440 0.950 . S
C1452 C1451 1.398 . S
C1452 C1453 1.391 . S
C1453 H1441 0.950 . S
C1453 C1449 1.393 . S
C1453 C1452 1.391 . S
H1454 C1462 0.950 . S
H1455 C1467 0.950 . S
H1456 C1464 0.950 . S
H1457 C1466 0.950 . S
H1458 C1468 0.950 . S
H1459 C1470 0.950 . S
H1460 C1472 0.950 . S
H1461 C1473 0.950 . S
C1462 H1454 0.950 . S
C1462 C1463 1.386 . S
C1462 C1464 1.391 . S
C1463 C1462 1.386 . S
C1463 C1467 1.393 . S
C1464 H1456 0.950 . S
C1464 C1462 1.391 . S
C1464 C1465 1.400 . S
C1465 C1464 1.400 . S
C1465 C1466 1.398 . S
C1465 C1471 1.491 . S
C1466 H1457 0.950 . S
C1466 C1465 1.398 . S
C1466 C1467 1.391 . S
C1467 H1455 0.950 . S
C1467 C1463 1.393 . S
C1467 C1466 1.391 . S
C1468 H1458 0.950 . S
C1468 C1469 1.386 . S
C1468 C1470 1.391 . S
C1469 C1468 1.386 . S
C1469 C1473 1.393 . S
C1470 H1459 0.950 . S
C1470 C1468 1.391 . S
C1470 C1471 1.400 . S
C1471 C1465 1.491 . S
C1471 C1470 1.400 . S
C1471 C1472 1.398 . S
C1472 H1460 0.950 . S
C1472 C1471 1.398 . S
C1472 C1473 1.391 . S
C1473 H1461 0.950 . S
C1473 C1469 1.393 . S
C1473 C1472 1.391 . S
H1474 C1482 0.950 . S
H1475 C1487 0.950 . S
H1476 C1484 0.950 . S
H1477 C1486 0.950 . S
H1478 C1488 0.950 . S
H1479 C1490 0.950 . S
H1480 C1492 0.950 . S
H1481 C1493 0.950 . S
C1482 H1474 0.950 . S
C1482 C1483 1.386 . S
C1482 C1484 1.391 . S
C1483 C1482 1.386 . S
C1483 C1487 1.393 . S
C1484 H1476 0.950 . S
C1484 C1482 1.391 . S
C1484 C1485 1.400 . S
C1485 C1484 1.400 . S
C1485 C1486 1.398 . S
C1485 C1491 1.491 . S
C1486 H1477 0.950 . S
C1486 C1485 1.398 . S
C1486 C1487 1.391 . S
C1487 H1475 0.950 . S
C1487 C1483 1.393 . S
C1487 C1486 1.391 . S
C1488 H1478 0.950 . S
C1488 C1489 1.386 . S
C1488 C1490 1.391 . S
C1489 C1488 1.386 . S
C1489 C1493 1.393 . S
C1490 H1479 0.950 . S
C1490 C1488 1.391 . S
C1490 C1491 1.400 . S
C1491 C1485 1.491 . S
C1491 C1490 1.400 . S
C1491 C1492 1.398 . S
C1492 H1480 0.950 . S
C1492 C1491 1.398 . S
C1492 C1493 1.391 . S
C1493 H1481 0.950 . S
C1493 C1489 1.393 . S
C1493 C1492 1.391 . S
C603 C28 1.016 . S
C609 C248 1.033 . S
C623 C61 1.021 . S
C629 C281 1.026 . S
C643 C94 1.022 . S
C649 C215 1.029 . S
C663 C545 1.034 . S
C669 C127 1.006 . S
C683 C160 0.998 . S
C689 C578 1.033 . S
C703 C193 0.996 . S
C709 C512 1.022 . S
C723 C226 1.010 . S
C729 C446 1.033 . S
C743 C479 1.023 . S
C749 C259 1.016 . S
C763 C413 1.033 . S
C769 C292 1.014 . S
C783 C325 1.005 . S
C789 C149 1.019 1_554 S
C803 C358 1.012 . S
C809 C182 1.031 1_554 S
C823 C391 1.007 . S
C829 C116 1.019 1_554 S
C843 C424 0.996 . S
C849 C50 1.030 1_556 S
C863 C457 1.008 . S
C869 C83 1.031 1_556 S
C883 C17 1.025 1_556 S
C889 C490 1.022 . S
C903 C347 1.033 . S
C909 C523 0.999 . S
C923 C556 1.022 . S
C929 C380 1.028 . S
C943 C589 1.003 . S
C949 C314 1.034 . S
C963 N509 1.769 . S
C969 N14 1.769 . S
C983 N542 1.772 . S
C989 N47 1.772 . S
C1003 N80 1.773 . S
C1009 N575 1.773 . S
C1023 N113 1.755 . S
C1029 N212 1.755 . S
C1043 N146 1.773 . S
C1049 N245 1.773 . S
C1063 N278 1.765 . S
C1069 N179 1.765 . S
C1083 N311 1.758 . S
C1089 N410 1.758 . S
C1103 N443 1.749 . S
C1109 N344 1.749 . S
C1123 N476 1.749 . S
C1129 N377 1.749 . S
C1143 N5 1.508 . S
C1149 C140 1.516 . S
C1163 C173 1.508 . S
C1169 N38 1.516 . S
C1183 N71 1.504 . S
C1189 C107 1.500 . S
C1203 C41 1.510 . S
C1209 N104 1.503 . S
C1223 N137 1.521 . S
C1229 C74 1.516 . S
C1243 C8 1.521 . S
C1249 N170 1.514 . S
C1263 N203 1.500 . S
C1269 C338 1.505 . S
C1283 C371 1.505 . S
C1289 N236 1.512 . S
C1303 C305 1.504 . S
C1309 N269 1.500 . S
C1323 N302 1.510 . S
C1329 C239 1.518 . S
C1343 C272 1.504 . S
C1349 N335 1.511 . S
C1363 N368 1.508 . S
C1369 C206 1.502 . S
C1383 C536 1.521 . S
C1389 N401 1.514 . S
C1403 C569 1.500 . S
C1409 N434 1.501 . S
C1423 C503 1.517 . S
C1429 N467 1.522 . S
C1443 C437 1.518 . S
C1449 N500 1.510 . S
C1463 C470 1.520 . S
C1469 N533 1.512 . S
C1483 N566 1.502 . S
C1489 C404 1.508 . S
