# Generated by pormake.
# Topology yfo, (5)-cn, num edge types: 1
# Building blocks:
#     Node 0, Type 0, BuildingBlock: BEQFEK_clean_sbu_0, # of connection points: 5
#     Node 1, Type 0, BuildingBlock: BEQFEK_clean_sbu_0, # of connection points: 5
#     Node 2, Type 0, BuildingBlock: BEQFEK_clean_sbu_0, # of connection points: 5
#     Node 3, Type 0, BuildingBlock: BEQFEK_clean_sbu_0, # of connection points: 5
#     Node 4, Type 0, BuildingBlock: BEQFEK_clean_sbu_0, # of connection points: 5
#     Node 5, Type 0, BuildingBlock: BEQFEK_clean_sbu_0, # of connection points: 5
#     Node 6, Type 0, BuildingBlock: BEQFEK_clean_sbu_0, # of connection points: 5
#     Node 7, Type 0, BuildingBlock: BEQFEK_clean_sbu_0, # of connection points: 5
#     Node 8, Type 0, BuildingBlock: BEQFEK_clean_sbu_0, # of connection points: 5
#     Node 9, Type 0, BuildingBlock: BEQFEK_clean_sbu_0, # of connection points: 5
#     Node 10, Type 0, BuildingBlock: BEQFEK_clean_sbu_0, # of connection points: 5
#     Node 11, Type 0, BuildingBlock: BEQFEK_clean_sbu_0, # of connection points: 5
#     Node 12, Type 0, BuildingBlock: BEQFEK_clean_sbu_0, # of connection points: 5
#     Node 13, Type 0, BuildingBlock: BEQFEK_clean_sbu_0, # of connection points: 5
#     Node 14, Type 0, BuildingBlock: BEQFEK_clean_sbu_0, # of connection points: 5
#     Node 15, Type 0, BuildingBlock: BEQFEK_clean_sbu_0, # of connection points: 5
#     Node 16, Type 0, BuildingBlock: BEQFEK_clean_sbu_0, # of connection points: 5
#     Node 17, Type 0, BuildingBlock: BEQFEK_clean_sbu_0, # of connection points: 5
#     Node 18, Type 0, BuildingBlock: BEQFEK_clean_sbu_0, # of connection points: 5
#     Node 19, Type 0, BuildingBlock: BEQFEK_clean_sbu_0, # of connection points: 5
#     Node 20, Type 0, BuildingBlock: BEQFEK_clean_sbu_0, # of connection points: 5
#     Node 21, Type 0, BuildingBlock: BEQFEK_clean_sbu_0, # of connection points: 5
#     Node 22, Type 0, BuildingBlock: BEQFEK_clean_sbu_0, # of connection points: 5
#     Node 23, Type 0, BuildingBlock: BEQFEK_clean_sbu_0, # of connection points: 5
#     Node 24, Type 0, BuildingBlock: BEQFEK_clean_sbu_0, # of connection points: 5
#     Node 25, Type 0, BuildingBlock: BEQFEK_clean_sbu_0, # of connection points: 5
#     Node 26, Type 0, BuildingBlock: BEQFEK_clean_sbu_0, # of connection points: 5
#     Node 27, Type 0, BuildingBlock: BEQFEK_clean_sbu_0, # of connection points: 5
#     Node 28, Type 0, BuildingBlock: BEQFEK_clean_sbu_0, # of connection points: 5
#     Node 29, Type 0, BuildingBlock: BEQFEK_clean_sbu_0, # of connection points: 5
#     Node 30, Type 0, BuildingBlock: BEQFEK_clean_sbu_0, # of connection points: 5
#     Node 31, Type 0, BuildingBlock: BEQFEK_clean_sbu_0, # of connection points: 5
#     Edge 32, Type (0, 0), BuildingBlock: KIFKEQ_clean_linker_1, # of connection points: 2
#     Edge 33, Type (0, 0), BuildingBlock: KIFKEQ_clean_linker_1, # of connection points: 2
#     Edge 34, Type (0, 0), BuildingBlock: KIFKEQ_clean_linker_1, # of connection points: 2
#     Edge 35, Type (0, 0), BuildingBlock: KIFKEQ_clean_linker_1, # of connection points: 2
#     Edge 36, Type (0, 0), BuildingBlock: KIFKEQ_clean_linker_1, # of connection points: 2
#     Edge 37, Type (0, 0), BuildingBlock: KIFKEQ_clean_linker_1, # of connection points: 2
#     Edge 38, Type (0, 0), BuildingBlock: KIFKEQ_clean_linker_1, # of connection points: 2
#     Edge 39, Type (0, 0), BuildingBlock: KIFKEQ_clean_linker_1, # of connection points: 2
#     Edge 40, Type (0, 0), BuildingBlock: KIFKEQ_clean_linker_1, # of connection points: 2
#     Edge 41, Type (0, 0), BuildingBlock: KIFKEQ_clean_linker_1, # of connection points: 2
#     Edge 42, Type (0, 0), BuildingBlock: KIFKEQ_clean_linker_1, # of connection points: 2
#     Edge 43, Type (0, 0), BuildingBlock: KIFKEQ_clean_linker_1, # of connection points: 2
#     Edge 44, Type (0, 0), BuildingBlock: KIFKEQ_clean_linker_1, # of connection points: 2
#     Edge 45, Type (0, 0), BuildingBlock: KIFKEQ_clean_linker_1, # of connection points: 2
#     Edge 46, Type (0, 0), BuildingBlock: KIFKEQ_clean_linker_1, # of connection points: 2
#     Edge 47, Type (0, 0), BuildingBlock: KIFKEQ_clean_linker_1, # of connection points: 2
#     Edge 48, Type (0, 0), BuildingBlock: KIFKEQ_clean_linker_1, # of connection points: 2
#     Edge 49, Type (0, 0), BuildingBlock: KIFKEQ_clean_linker_1, # of connection points: 2
#     Edge 50, Type (0, 0), BuildingBlock: KIFKEQ_clean_linker_1, # of connection points: 2
#     Edge 51, Type (0, 0), BuildingBlock: KIFKEQ_clean_linker_1, # of connection points: 2
#     Edge 52, Type (0, 0), BuildingBlock: KIFKEQ_clean_linker_1, # of connection points: 2
#     Edge 53, Type (0, 0), BuildingBlock: KIFKEQ_clean_linker_1, # of connection points: 2
#     Edge 54, Type (0, 0), BuildingBlock: KIFKEQ_clean_linker_1, # of connection points: 2
#     Edge 55, Type (0, 0), BuildingBlock: KIFKEQ_clean_linker_1, # of connection points: 2
#     Edge 56, Type (0, 0), BuildingBlock: KIFKEQ_clean_linker_1, # of connection points: 2
#     Edge 57, Type (0, 0), BuildingBlock: KIFKEQ_clean_linker_1, # of connection points: 2
#     Edge 58, Type (0, 0), BuildingBlock: KIFKEQ_clean_linker_1, # of connection points: 2
#     Edge 59, Type (0, 0), BuildingBlock: KIFKEQ_clean_linker_1, # of connection points: 2
#     Edge 60, Type (0, 0), BuildingBlock: KIFKEQ_clean_linker_1, # of connection points: 2
#     Edge 61, Type (0, 0), BuildingBlock: KIFKEQ_clean_linker_1, # of connection points: 2
#     Edge 62, Type (0, 0), BuildingBlock: KIFKEQ_clean_linker_1, # of connection points: 2
#     Edge 63, Type (0, 0), BuildingBlock: KIFKEQ_clean_linker_1, # of connection points: 2
#     Edge 64, Type (0, 0), BuildingBlock: KIFKEQ_clean_linker_1, # of connection points: 2
#     Edge 65, Type (0, 0), BuildingBlock: KIFKEQ_clean_linker_1, # of connection points: 2
#     Edge 66, Type (0, 0), BuildingBlock: KIFKEQ_clean_linker_1, # of connection points: 2
#     Edge 67, Type (0, 0), BuildingBlock: KIFKEQ_clean_linker_1, # of connection points: 2
#     Edge 68, Type (0, 0), BuildingBlock: KIFKEQ_clean_linker_1, # of connection points: 2
#     Edge 69, Type (0, 0), BuildingBlock: KIFKEQ_clean_linker_1, # of connection points: 2
#     Edge 70, Type (0, 0), BuildingBlock: KIFKEQ_clean_linker_1, # of connection points: 2
#     Edge 71, Type (0, 0), BuildingBlock: KIFKEQ_clean_linker_1, # of connection points: 2
#     Edge 72, Type (0, 0), BuildingBlock: KIFKEQ_clean_linker_1, # of connection points: 2
#     Edge 73, Type (0, 0), BuildingBlock: KIFKEQ_clean_linker_1, # of connection points: 2
#     Edge 74, Type (0, 0), BuildingBlock: KIFKEQ_clean_linker_1, # of connection points: 2
#     Edge 75, Type (0, 0), BuildingBlock: KIFKEQ_clean_linker_1, # of connection points: 2
#     Edge 76, Type (0, 0), BuildingBlock: KIFKEQ_clean_linker_1, # of connection points: 2
#     Edge 77, Type (0, 0), BuildingBlock: KIFKEQ_clean_linker_1, # of connection points: 2
#     Edge 78, Type (0, 0), BuildingBlock: KIFKEQ_clean_linker_1, # of connection points: 2
#     Edge 79, Type (0, 0), BuildingBlock: KIFKEQ_clean_linker_1, # of connection points: 2
#     Edge 80, Type (0, 0), BuildingBlock: KIFKEQ_clean_linker_1, # of connection points: 2
#     Edge 81, Type (0, 0), BuildingBlock: KIFKEQ_clean_linker_1, # of connection points: 2
#     Edge 82, Type (0, 0), BuildingBlock: KIFKEQ_clean_linker_1, # of connection points: 2
#     Edge 83, Type (0, 0), BuildingBlock: KIFKEQ_clean_linker_1, # of connection points: 2
#     Edge 84, Type (0, 0), BuildingBlock: KIFKEQ_clean_linker_1, # of connection points: 2
#     Edge 85, Type (0, 0), BuildingBlock: KIFKEQ_clean_linker_1, # of connection points: 2
#     Edge 86, Type (0, 0), BuildingBlock: KIFKEQ_clean_linker_1, # of connection points: 2
#     Edge 87, Type (0, 0), BuildingBlock: KIFKEQ_clean_linker_1, # of connection points: 2
#     Edge 88, Type (0, 0), BuildingBlock: KIFKEQ_clean_linker_1, # of connection points: 2
#     Edge 89, Type (0, 0), BuildingBlock: KIFKEQ_clean_linker_1, # of connection points: 2
#     Edge 90, Type (0, 0), BuildingBlock: KIFKEQ_clean_linker_1, # of connection points: 2
#     Edge 91, Type (0, 0), BuildingBlock: KIFKEQ_clean_linker_1, # of connection points: 2
#     Edge 92, Type (0, 0), BuildingBlock: KIFKEQ_clean_linker_1, # of connection points: 2
#     Edge 93, Type (0, 0), BuildingBlock: KIFKEQ_clean_linker_1, # of connection points: 2
#     Edge 94, Type (0, 0), BuildingBlock: KIFKEQ_clean_linker_1, # of connection points: 2
#     Edge 95, Type (0, 0), BuildingBlock: KIFKEQ_clean_linker_1, # of connection points: 2
#     Edge 96, Type (0, 0), BuildingBlock: KIFKEQ_clean_linker_1, # of connection points: 2
#     Edge 97, Type (0, 0), BuildingBlock: KIFKEQ_clean_linker_1, # of connection points: 2
#     Edge 98, Type (0, 0), BuildingBlock: KIFKEQ_clean_linker_1, # of connection points: 2
#     Edge 99, Type (0, 0), BuildingBlock: KIFKEQ_clean_linker_1, # of connection points: 2
#     Edge 100, Type (0, 0), BuildingBlock: KIFKEQ_clean_linker_1, # of connection points: 2
#     Edge 101, Type (0, 0), BuildingBlock: KIFKEQ_clean_linker_1, # of connection points: 2
#     Edge 102, Type (0, 0), BuildingBlock: KIFKEQ_clean_linker_1, # of connection points: 2
#     Edge 103, Type (0, 0), BuildingBlock: KIFKEQ_clean_linker_1, # of connection points: 2
#     Edge 104, Type (0, 0), BuildingBlock: KIFKEQ_clean_linker_1, # of connection points: 2
#     Edge 105, Type (0, 0), BuildingBlock: KIFKEQ_clean_linker_1, # of connection points: 2
#     Edge 106, Type (0, 0), BuildingBlock: KIFKEQ_clean_linker_1, # of connection points: 2
#     Edge 107, Type (0, 0), BuildingBlock: KIFKEQ_clean_linker_1, # of connection points: 2
#     Edge 108, Type (0, 0), BuildingBlock: KIFKEQ_clean_linker_1, # of connection points: 2
#     Edge 109, Type (0, 0), BuildingBlock: KIFKEQ_clean_linker_1, # of connection points: 2
#     Edge 110, Type (0, 0), BuildingBlock: KIFKEQ_clean_linker_1, # of connection points: 2
#     Edge 111, Type (0, 0), BuildingBlock: KIFKEQ_clean_linker_1, # of connection points: 2
# Relax obj value: 0.612
# Max RMSD: 0.399
# Mean RMSD: 0.318
data_MOF--net-yfo--node1-BEQFEK_clean_sbu_0--edge1-KIFKEQ_clean_linker_1
_symmetry_space_group_name_H-M    P1
_symmetry_Int_Tables_number       1
_symmetry_cell_setting            triclinic
loop_
_symmetry_equiv_pos_as_xyz
'x, y, z'
_cell_length_a     80.126737
_cell_length_b     69.1788
_cell_length_c     27.68775
_cell_angle_alpha  89.989597
_cell_angle_beta   89.979895
_cell_angle_gamma 89.992673
loop_
_atom_site_label
_atom_site_type_symbol
_atom_site_fract_x
_atom_site_fract_y
_atom_site_fract_z
_atom_type_partial_charge
Co0 Co 0.23807 0.15473 0.24859 0.0
Co1 Co 0.22281 0.18032 0.16461 0.0
C2 C 0.25649 0.18076 0.18706 0.0
O3 O 0.25824 0.16868 0.22148 0.0
O4 O 0.24671 0.17602 0.15327 0.0
C5 C 0.25448 0.14002 0.33157 0.0
O6 O 0.26423 0.155 0.32423 0.0
C7 C 0.21723 0.19801 0.06804 0.0
C8 C 0.19248 0.2114 0.07851 0.0
C9 C 0.20526 0.20935 0.0453 0.0
N10 N 0.2118 0.19366 0.11274 0.0
N11 N 0.19695 0.20166 0.11856 0.0
C12 C 0.23322 0.1908 0.04701 0.0
H13 H 0.23666 0.17672 0.06339 0.0
H14 H 0.23198 0.18913 0.00735 0.0
H15 H 0.2433 0.20133 0.05462 0.0
C16 C 0.21607 0.12583 0.20019 0.0
N17 N 0.22274 0.14369 0.20308 0.0
N18 N 0.21551 0.15481 0.17057 0.0
C19 C 0.20458 0.14431 0.14492 0.0
C20 C 0.20455 0.1256 0.16281 0.0
C21 C 0.22005 0.10968 0.23418 0.0
H22 H 0.23378 0.1079 0.23669 0.0
H23 H 0.21426 0.09591 0.22221 0.0
H24 H 0.21536 0.11342 0.27072 0.0
O25 O 0.22623 0.1752 0.28404 0.0
O26 O 0.21809 0.19523 0.22604 0.0
H27 H 0.18617 0.16441 0.12062 0.0
H28 H 0.18529 0.14146 0.09005 0.0
C29 C 0.19378 0.15243 0.10572 0.0
H30 H 0.2018 0.1584 0.07667 0.0
H31 H 0.18999 0.20078 0.15036 0.0
O32 O 0.24347 0.13595 0.30019 0.0
C33 C 0.21956 0.19101 0.27074 0.0
Co34 Co 0.06651 0.92997 0.55517 0.0
Co35 Co 0.05063 0.90653 0.46953 0.0
C36 C 0.04395 0.94867 0.48222 0.0
O37 O 0.05378 0.94895 0.51825 0.0
O38 O 0.04131 0.93314 0.45846 0.0
C39 C 0.08467 0.9609 0.59871 0.0
O40 O 0.08399 0.96843 0.55519 0.0
C41 C 0.03847 0.893 0.37473 0.0
C42 C 0.0378 0.86142 0.38626 0.0
C43 C 0.0341 0.87569 0.35301 0.0
N44 N 0.0447 0.88916 0.41873 0.0
N45 N 0.04447 0.87021 0.4251 0.0
C46 C 0.03554 0.91291 0.35559 0.0
H47 H 0.02413 0.91895 0.37255 0.0
H48 H 0.04621 0.92239 0.36523 0.0
H49 H 0.03385 0.91271 0.31579 0.0
C50 C 0.09748 0.91538 0.51259 0.0
N51 N 0.08074 0.91596 0.51488 0.0
N52 N 0.07437 0.9071 0.47709 0.0
C53 C 0.08701 0.90106 0.44864 0.0
C54 C 0.10203 0.90608 0.47038 0.0
C55 C 0.1088 0.92553 0.54733 0.0
H56 H 0.10423 0.92346 0.58477 0.0
H57 H 0.1088 0.9412 0.53901 0.0
H58 H 0.12182 0.92022 0.54477 0.0
O59 O 0.04994 0.91377 0.58702 0.0
O60 O 0.03873 0.89648 0.5278 0.0
H61 H 0.07845 0.87729 0.40623 0.0
H62 H 0.09675 0.88902 0.38207 0.0
C63 C 0.08468 0.89143 0.40074 0.0
H64 H 0.07641 0.90044 0.37776 0.0
H65 H 0.04823 0.86334 0.45685 0.0
O66 O 0.07854 0.94421 0.60598 0.0
C67 C 0.03956 0.90128 0.57207 0.0
Co68 Co 0.24863 0.83687 0.7376 0.0
Co69 Co 0.26651 0.81129 0.65604 0.0
C70 C 0.23217 0.81111 0.67404 0.0
O71 O 0.22881 0.82402 0.70548 0.0
O72 O 0.24261 0.81582 0.64185 0.0
C73 C 0.23562 0.867 0.81513 0.0
O74 O 0.22337 0.87587 0.7927 0.0
C75 C 0.27344 0.79261 0.56039 0.0
C76 C 0.29898 0.78177 0.57299 0.0
C77 C 0.28628 0.78203 0.5392 0.0
N78 N 0.27835 0.79828 0.60477 0.0
N79 N 0.29367 0.79174 0.6118 0.0
C80 C 0.25713 0.79793 0.53779 0.0
H81 H 0.25197 0.81116 0.5547 0.0
H82 H 0.25889 0.80045 0.4986 0.0
H83 H 0.24809 0.78594 0.54247 0.0
C84 C 0.27227 0.86567 0.69594 0.0
N85 N 0.26543 0.84786 0.69614 0.0
N86 N 0.27354 0.83694 0.66478 0.0
C87 C 0.28524 0.84762 0.64258 0.0
C88 C 0.28487 0.86611 0.66166 0.0
C89 C 0.26738 0.88157 0.72962 0.0
H90 H 0.25363 0.88343 0.72882 0.0
H91 H 0.27355 0.8954 0.71979 0.0
H92 H 0.27098 0.87753 0.76698 0.0
O93 O 0.25885 0.81539 0.77177 0.0
O94 O 0.27072 0.79614 0.71784 0.0
H95 H 0.3052 0.82896 0.6217 0.0
H96 H 0.30489 0.85158 0.58941 0.0
C97 C 0.29699 0.84 0.60507 0.0
H98 H 0.28976 0.833 0.57573 0.0
H99 H 0.30038 0.79372 0.64371 0.0
O100 O 0.24375 0.85371 0.7939 0.0
C101 C 0.26683 0.80011 0.76143 0.0
Co102 Co 0.43022 0.07446 0.06544 0.0
Co103 Co 0.44831 0.09508 0.97858 0.0
C104 C 0.45417 0.05349 0.99941 0.0
O105 O 0.44402 0.05447 0.03465 0.0
O106 O 0.4571 0.06816 0.97275 0.0
C107 C 0.4111 0.04442 0.10668 0.0
O108 O 0.4128 0.03711 0.06322 0.0
C109 C 0.46158 0.10518 0.88215 0.0
C110 C 0.46476 0.13678 0.88929 0.0
C111 C 0.46744 0.12145 0.85807 0.0
N112 N 0.45568 0.11069 0.92551 0.0
N113 N 0.45737 0.12964 0.92915 0.0
C114 C 0.46323 0.08452 0.86688 0.0
H115 H 0.45242 0.07605 0.88034 0.0
H116 H 0.46405 0.08311 0.82711 0.0
H117 H 0.47475 0.07839 0.883 0.0
C118 C 0.40045 0.0876 0.01338 0.0
N119 N 0.41708 0.08716 0.01952 0.0
N120 N 0.42444 0.09506 0.98191 0.0
C121 C 0.41263 0.10041 0.94988 0.0
C122 C 0.39702 0.09573 0.96872 0.0
C123 C 0.38812 0.08034 0.04972 0.0
H124 H 0.39277 0.08304 0.08681 0.0
H125 H 0.38644 0.06454 0.04489 0.0
H126 H 0.37583 0.08751 0.04514 0.0
O127 O 0.44578 0.09176 0.09788 0.0
O128 O 0.45924 0.10614 0.03772 0.0
H129 H 0.42162 0.12254 0.90281 0.0
H130 H 0.40521 0.10792 0.87678 0.0
C131 C 0.41642 0.10772 0.90019 0.0
H132 H 0.426 0.09835 0.88324 0.0
H133 H 0.4541 0.1376 0.95975 0.0
O134 O 0.41701 0.06107 0.11558 0.0
C135 C 0.45713 0.10308 0.08271 0.0
Co136 Co 0.23755 0.84385 0.25003 0.0
Co137 Co 0.22355 0.8175 0.33463 0.0
C138 C 0.25816 0.81342 0.29981 0.0
O139 O 0.25636 0.8259 0.26612 0.0
O140 O 0.24728 0.81154 0.33303 0.0
C141 C 0.25468 0.86115 0.16879 0.0
O142 O 0.2665 0.84854 0.17818 0.0
C143 C 0.22012 0.79228 0.42111 0.0
C144 C 0.19346 0.79539 0.43935 0.0
C145 C 0.2081 0.78662 0.45418 0.0
N146 N 0.21309 0.80422 0.38851 0.0
N147 N 0.19704 0.80569 0.39926 0.0
C148 C 0.23791 0.78597 0.4198 0.0
H149 H 0.23992 0.77753 0.38635 0.0
H150 H 0.24615 0.79882 0.41897 0.0
H151 H 0.24117 0.77685 0.45131 0.0
C152 C 0.22222 0.87406 0.31046 0.0
N153 N 0.227 0.85562 0.30344 0.0
N154 N 0.22145 0.84491 0.33927 0.0
C155 C 0.2139 0.85651 0.37167 0.0
C156 C 0.21357 0.8753 0.35381 0.0
C157 C 0.22439 0.88976 0.27386 0.0
H158 H 0.23774 0.89074 0.26348 0.0
H159 H 0.22016 0.90394 0.28812 0.0
H160 H 0.21715 0.8861 0.24093 0.0
O161 O 0.22218 0.82666 0.21735 0.0
O162 O 0.21424 0.80573 0.2733 0.0
H163 H 0.19277 0.84575 0.41044 0.0
H164 H 0.20617 0.861 0.44556 0.0
C165 C 0.20597 0.84961 0.41749 0.0
H166 H 0.21281 0.83696 0.43186 0.0
H167 H 0.18849 0.81377 0.37922 0.0
O168 O 0.24248 0.86273 0.19784 0.0
C169 C 0.21479 0.81117 0.22928 0.0
Co170 Co 0.42722 0.92961 0.44558 0.0
Co171 Co 0.44369 0.90421 0.52669 0.0
C172 C 0.45169 0.94649 0.51435 0.0
O173 O 0.44093 0.94811 0.48084 0.0
O174 O 0.45435 0.93034 0.53537 0.0
C175 C 0.41021 0.9611 0.39816 0.0
O176 O 0.41192 0.9702 0.4395 0.0
C177 C 0.45553 0.89136 0.62231 0.0
C178 C 0.4584 0.85996 0.61027 0.0
C179 C 0.46097 0.87439 0.64413 0.0
N180 N 0.45002 0.88709 0.57772 0.0
N181 N 0.45149 0.86824 0.57112 0.0
C182 C 0.4574 0.91159 0.64064 0.0
H183 H 0.44729 0.92083 0.62586 0.0
H184 H 0.45709 0.91215 0.68059 0.0
H185 H 0.46955 0.91747 0.62822 0.0
C186 C 0.39652 0.91707 0.4939 0.0
N187 N 0.41317 0.91637 0.48813 0.0
N188 N 0.41987 0.90621 0.52333 0.0
C189 C 0.40757 0.90025 0.55312 0.0
C190 C 0.3924 0.90698 0.53544 0.0
C191 C 0.38514 0.92905 0.46318 0.0
H192 H 0.38748 0.92586 0.42451 0.0
H193 H 0.3879 0.94454 0.4695 0.0
H194 H 0.3718 0.92649 0.47156 0.0
O195 O 0.44285 0.91261 0.41163 0.0
O196 O 0.45382 0.89319 0.4668 0.0
H197 H 0.41738 0.87531 0.58873 0.0
H198 H 0.39844 0.8845 0.61548 0.0
C199 C 0.41037 0.88862 0.59795 0.0
H200 H 0.41804 0.89713 0.62365 0.0
H201 H 0.44847 0.86117 0.53901 0.0
O202 O 0.41504 0.94366 0.39459 0.0
C203 C 0.45271 0.89901 0.42333 0.0
Co204 Co 0.25471 0.15709 0.75861 0.0
Co205 Co 0.26998 0.18412 0.83983 0.0
C206 C 0.23629 0.18721 0.80905 0.0
O207 O 0.23493 0.17215 0.78273 0.0
O208 O 0.24541 0.18612 0.84651 0.0
C209 C 0.23723 0.14161 0.67838 0.0
O210 O 0.22759 0.15668 0.6859 0.0
C211 C 0.27632 0.20539 0.93137 0.0
C212 C 0.30339 0.21097 0.92531 0.0
C213 C 0.28976 0.21391 0.95516 0.0
N214 N 0.28189 0.1975 0.88998 0.0
N215 N 0.29807 0.20095 0.88662 0.0
C216 C 0.25826 0.20644 0.94433 0.0
H217 H 0.25149 0.21413 0.91529 0.0
H218 H 0.25313 0.19159 0.94637 0.0
H219 H 0.25612 0.21424 0.9786 0.0
C220 C 0.27464 0.12822 0.81173 0.0
N221 N 0.26803 0.14605 0.80791 0.0
N222 N 0.27446 0.15719 0.84169 0.0
C223 C 0.28465 0.14648 0.86953 0.0
C224 C 0.28537 0.12785 0.85103 0.0
C225 C 0.27245 0.1127 0.77468 0.0
H226 H 0.25894 0.10984 0.7695 0.0
H227 H 0.27882 0.09914 0.78561 0.0
H228 H 0.27759 0.11775 0.73965 0.0
O229 O 0.26853 0.17538 0.72209 0.0
O230 O 0.27786 0.19595 0.77706 0.0
H231 H 0.30583 0.16252 0.89367 0.0
H232 H 0.3002 0.14282 0.93283 0.0
C233 C 0.29518 0.15446 0.90945 0.0
H234 H 0.28768 0.16443 0.93202 0.0
H235 H 0.30546 0.19663 0.85752 0.0
O236 O 0.24862 0.13779 0.70885 0.0
C237 C 0.27671 0.19048 0.73317 0.0
Co238 Co 0.06231 0.07495 0.92846 0.0
Co239 Co 0.04566 0.09374 0.01927 0.0
C240 C 0.03725 0.05355 0.99002 0.0
O241 O 0.04704 0.05497 0.95401 0.0
O242 O 0.03565 0.06736 0.02012 0.0
C243 C 0.08091 0.04553 0.88229 0.0
O244 O 0.07926 0.03713 0.92461 0.0
C245 C 0.03477 0.09966 0.11905 0.0
C246 C 0.02937 0.13096 0.12038 0.0
C247 C 0.0285 0.11434 0.14832 0.0
N248 N 0.03881 0.10725 0.07596 0.0
N249 N 0.03576 0.12601 0.07716 0.0
C250 C 0.0375 0.07886 0.13165 0.0
H251 H 0.0483 0.07303 0.11118 0.0
H252 H 0.03971 0.07713 0.17099 0.0
H253 H 0.02633 0.07037 0.12121 0.0
C254 C 0.09306 0.08462 0.98229 0.0
N255 N 0.07635 0.0848 0.97712 0.0
N256 N 0.06948 0.09243 0.01587 0.0
C257 C 0.08168 0.09705 0.04742 0.0
C258 C 0.09697 0.09215 0.02724 0.0
C259 C 0.10491 0.07609 0.94627 0.0
H260 H 0.10096 0.07997 0.90914 0.0
H261 H 0.10478 0.06014 0.94993 0.0
H262 H 0.11789 0.08105 0.95199 0.0
O263 O 0.04864 0.09541 0.89943 0.0
O264 O 0.03547 0.10763 0.96303 0.0
H265 H 0.07039 0.11879 0.09169 0.0
H266 H 0.09067 0.11101 0.11241 0.0
C267 C 0.0788 0.10617 0.09571 0.0
H268 H 0.07267 0.09557 0.11996 0.0
H269 H 0.03757 0.13532 0.04798 0.0
O270 O 0.07502 0.0624 0.87619 0.0
C271 C 0.03795 0.1069 0.91759 0.0
Co272 Co 0.75297 0.83895 0.76235 0.0
Co273 Co 0.77092 0.8122 0.84042 0.0
C274 C 0.73626 0.81421 0.82846 0.0
O275 O 0.73351 0.82854 0.80056 0.0
O276 O 0.74745 0.81657 0.86023 0.0
C277 C 0.73619 0.85248 0.67994 0.0
O278 O 0.7278 0.83642 0.68716 0.0
C279 C 0.78013 0.79344 0.93356 0.0
C280 C 0.8021 0.77659 0.91013 0.0
C281 C 0.79171 0.77985 0.94921 0.0
N282 N 0.78355 0.79795 0.88728 0.0
N283 N 0.79687 0.78803 0.87389 0.0
C284 C 0.76505 0.8003 0.96012 0.0
H285 H 0.76077 0.81437 0.94543 0.0
H286 H 0.7678 0.80186 0.99913 0.0
H287 H 0.7549 0.78951 0.9559 0.0
C288 C 0.77764 0.86669 0.80314 0.0
N289 N 0.77069 0.84896 0.80142 0.0
N290 N 0.77868 0.83752 0.83179 0.0
C291 C 0.79062 0.84767 0.85441 0.0
C292 C 0.79033 0.86645 0.83709 0.0
C293 C 0.77222 0.88341 0.77271 0.0
H294 H 0.75849 0.88516 0.77548 0.0
H295 H 0.77851 0.89699 0.7839 0.0
H296 H 0.77525 0.88033 0.73436 0.0
O297 O 0.76161 0.81703 0.72411 0.0
O298 O 0.77346 0.79765 0.77788 0.0
H299 H 0.8085 0.82649 0.8764 0.0
H300 H 0.81165 0.84996 0.90356 0.0
C301 C 0.80213 0.83936 0.89159 0.0
H302 H 0.79471 0.83456 0.92325 0.0
H303 H 0.80193 0.78839 0.83916 0.0
O304 O 0.74665 0.85784 0.71171 0.0
C305 C 0.76936 0.80154 0.73448 0.0
Co306 Co 0.9279 0.06573 0.44725 0.0
Co307 Co 0.9444 0.09111 0.52874 0.0
C308 C 0.95628 0.05122 0.50866 0.0
O309 O 0.94521 0.04917 0.47619 0.0
O310 O 0.95757 0.06677 0.53308 0.0
C311 C 0.91289 0.03157 0.41145 0.0
O312 O 0.91811 0.02461 0.45294 0.0
C313 C 0.95797 0.10463 0.62182 0.0
C314 C 0.95393 0.13618 0.61685 0.0
C315 C 0.96037 0.1219 0.64654 0.0
N316 N 0.95029 0.10855 0.57977 0.0
N317 N 0.94782 0.12741 0.57719 0.0
C318 C 0.96415 0.08491 0.63515 0.0
H319 H 0.97391 0.08047 0.60896 0.0
H320 H 0.95374 0.07439 0.63235 0.0
H321 H 0.96958 0.08439 0.67187 0.0
C322 C 0.89759 0.07455 0.50202 0.0
N323 N 0.9141 0.07632 0.49458 0.0
N324 N 0.92086 0.08609 0.53028 0.0
C325 C 0.90882 0.09038 0.56262 0.0
C326 C 0.89365 0.08316 0.54576 0.0
C327 C 0.8858 0.06562 0.46649 0.0
H328 H 0.88991 0.06885 0.42912 0.0
H329 H 0.88577 0.0497 0.4715 0.0
H330 H 0.87291 0.07113 0.47145 0.0
O331 O 0.93967 0.08568 0.41038 0.0
O332 O 0.95209 0.10324 0.46707 0.0
H333 H 0.91409 0.11549 0.60479 0.0
H334 H 0.90155 0.09765 0.63582 0.0
C335 C 0.91208 0.09978 0.61037 0.0
H336 H 0.92354 0.09362 0.62662 0.0
H337 H 0.94223 0.13435 0.54789 0.0
O338 O 0.91526 0.04933 0.40184 0.0
C339 C 0.94941 0.09934 0.42275 0.0
Co340 Co 0.7449 0.16009 0.26614 0.0
Co341 Co 0.72485 0.18594 0.34272 0.0
C342 C 0.75915 0.18712 0.33264 0.0
O343 O 0.76326 0.17414 0.30225 0.0
O344 O 0.74817 0.18239 0.36319 0.0
C345 C 0.76016 0.1268 0.19501 0.0
O346 O 0.76754 0.11171 0.21431 0.0
C347 C 0.71349 0.20631 0.43379 0.0
C348 C 0.68935 0.21763 0.40774 0.0
C349 C 0.69992 0.21784 0.4473 0.0
N350 N 0.71094 0.19981 0.38834 0.0
N351 N 0.69639 0.20654 0.37349 0.0
C352 C 0.72909 0.20279 0.46218 0.0
H353 H 0.739 0.19635 0.43969 0.0
H354 H 0.72638 0.19252 0.49191 0.0
H355 H 0.73362 0.21655 0.47809 0.0
C356 C 0.72041 0.13136 0.30496 0.0
N357 N 0.72717 0.14924 0.30506 0.0
N358 N 0.71844 0.16023 0.3348 0.0
C359 C 0.70642 0.14961 0.35566 0.0
C360 C 0.70724 0.13103 0.33737 0.0
C361 C 0.72599 0.11522 0.27291 0.0
H362 H 0.73932 0.11203 0.28016 0.0
H363 H 0.71846 0.10196 0.27885 0.0
H364 H 0.72486 0.11979 0.23462 0.0
O365 O 0.73502 0.18016 0.22462 0.0
O366 O 0.72228 0.19925 0.27785 0.0
H367 H 0.68613 0.16834 0.37331 0.0
H368 H 0.68594 0.14583 0.4062 0.0
C369 C 0.69407 0.15736 0.39132 0.0
H370 H 0.70081 0.16454 0.42135 0.0
H371 H 0.69148 0.20404 0.33914 0.0
O372 O 0.7542 0.13979 0.22264 0.0
C373 C 0.72659 0.19527 0.23452 0.0
Co374 Co 0.56245 0.92548 0.94055 0.0
Co375 Co 0.5449 0.90167 0.02297 0.0
C376 C 0.53611 0.94323 0.00193 0.0
O377 O 0.54727 0.94464 0.96939 0.0
O378 O 0.5338 0.92752 0.02517 0.0
C379 C 0.58079 0.95565 0.89403 0.0
O380 O 0.57771 0.96517 0.93412 0.0
C381 C 0.53208 0.89204 0.11969 0.0
C382 C 0.5322 0.86007 0.11825 0.0
C383 C 0.52845 0.87576 0.14736 0.0
N384 N 0.53799 0.88615 0.0767 0.0
N385 N 0.53804 0.86705 0.0761 0.0
C386 C 0.5285 0.91281 0.13108 0.0
H387 H 0.51935 0.91845 0.10457 0.0
H388 H 0.54013 0.92137 0.12714 0.0
H389 H 0.52321 0.91493 0.16757 0.0
C390 C 0.5924 0.91505 0.99593 0.0
N391 N 0.57586 0.91405 0.98803 0.0
N392 N 0.56871 0.90434 0.02329 0.0
C393 C 0.58058 0.89902 0.05524 0.0
C394 C 0.59594 0.90566 0.03885 0.0
C395 C 0.60428 0.92634 0.96513 0.0
H396 H 0.60152 0.94195 0.96915 0.0
H397 H 0.61747 0.92401 0.97551 0.0
H398 H 0.60258 0.92232 0.92668 0.0
O399 O 0.54864 0.9064 0.90668 0.0
O400 O 0.53621 0.88897 0.96346 0.0
H401 H 0.58896 0.88462 0.12044 0.0
H402 H 0.56869 0.89609 0.12396 0.0
C403 C 0.57729 0.88779 0.10041 0.0
H404 H 0.57114 0.87394 0.09097 0.0
H405 H 0.54192 0.85876 0.04667 0.0
O406 O 0.57581 0.93831 0.89006 0.0
C407 C 0.53868 0.893 0.91915 0.0
Co408 Co 0.75788 0.15432 0.75255 0.0
Co409 Co 0.77635 0.17865 0.67055 0.0
C410 C 0.7397 0.18351 0.70008 0.0
O411 O 0.73846 0.16924 0.72895 0.0
O412 O 0.75334 0.18722 0.67837 0.0
C413 C 0.74249 0.14499 0.83932 0.0
O414 O 0.73546 0.16166 0.82916 0.0
C415 C 0.77762 0.19965 0.57674 0.0
C416 C 0.80465 0.20181 0.56298 0.0
C417 C 0.78923 0.20677 0.5442 0.0
N418 N 0.78568 0.19062 0.61304 0.0
N419 N 0.80189 0.19204 0.60445 0.0
C420 C 0.75917 0.20224 0.57399 0.0
H421 H 0.75562 0.21431 0.59817 0.0
H422 H 0.75273 0.18889 0.58597 0.0
H423 H 0.75522 0.20593 0.53675 0.0
C424 C 0.77357 0.12242 0.69831 0.0
N425 N 0.76944 0.14119 0.70283 0.0
N426 N 0.77676 0.15114 0.66824 0.0
C427 C 0.78524 0.13885 0.63968 0.0
C428 C 0.78381 0.12024 0.65821 0.0
C429 C 0.76956 0.10736 0.73527 0.0
H430 H 0.75604 0.10785 0.74381 0.0
H431 H 0.77297 0.09269 0.7223 0.0
H432 H 0.77652 0.11056 0.76899 0.0
O433 O 0.77209 0.17402 0.7828 0.0
O434 O 0.78762 0.18968 0.72938 0.0
H435 H 0.80787 0.15195 0.61555 0.0
H436 H 0.80049 0.13297 0.57659 0.0
C437 C 0.79657 0.14521 0.59975 0.0
H438 H 0.79011 0.156 0.57686 0.0
H439 H 0.81112 0.1867 0.62743 0.0
O440 O 0.75201 0.13733 0.80795 0.0
C441 C 0.78294 0.18681 0.77289 0.0
Co442 Co 0.56563 0.06509 0.55378 0.0
Co443 Co 0.54937 0.09142 0.47446 0.0
C444 C 0.53839 0.05035 0.49162 0.0
O445 O 0.54982 0.04748 0.52257 0.0
O446 O 0.53654 0.06666 0.47082 0.0
C447 C 0.58348 0.03314 0.59791 0.0
O448 O 0.58348 0.02486 0.55522 0.0
C449 C 0.53718 0.10356 0.37872 0.0
C450 C 0.54038 0.13529 0.38197 0.0
C451 C 0.53528 0.12044 0.35186 0.0
N452 N 0.54349 0.10825 0.42213 0.0
N453 N 0.54534 0.12723 0.42387 0.0
C454 C 0.53171 0.0835 0.36593 0.0
H455 H 0.52282 0.07827 0.39368 0.0
H456 H 0.54269 0.07372 0.36629 0.0
H457 H 0.52538 0.0827 0.33049 0.0
C458 C 0.59642 0.07567 0.50206 0.0
N459 N 0.5798 0.07666 0.50855 0.0
N460 N 0.57307 0.08701 0.47374 0.0
C461 C 0.58529 0.09251 0.44307 0.0
C462 C 0.60043 0.08549 0.4601 0.0
C463 C 0.60809 0.06476 0.53432 0.0
H464 H 0.60456 0.06701 0.57263 0.0
H465 H 0.60715 0.04913 0.52596 0.0
H466 H 0.62124 0.0692 0.52901 0.0
O467 O 0.55256 0.08436 0.5898 0.0
O468 O 0.5414 0.10393 0.53519 0.0
H469 H 0.57791 0.11903 0.41 0.0
H470 H 0.59429 0.10661 0.37808 0.0
C471 C 0.5826 0.10462 0.39898 0.0
H472 H 0.57307 0.09772 0.37566 0.0
H473 H 0.54997 0.13469 0.45375 0.0
O474 O 0.57748 0.05002 0.60294 0.0
C475 C 0.54343 0.09876 0.57896 0.0
Co476 Co 0.73854 0.84122 0.24773 0.0
Co477 Co 0.72246 0.81646 0.1628 0.0
C478 C 0.75562 0.81404 0.18863 0.0
O479 O 0.75846 0.82651 0.2215 0.0
O480 O 0.74669 0.81968 0.1538 0.0
C481 C 0.75475 0.85546 0.33241 0.0
O482 O 0.76477 0.84071 0.32516 0.0
C483 C 0.71719 0.79996 0.06462 0.0
C484 C 0.69424 0.78308 0.07713 0.0
C485 C 0.70634 0.78699 0.04284 0.0
N486 N 0.71174 0.80358 0.10974 0.0
N487 N 0.69781 0.7937 0.11649 0.0
C488 C 0.73342 0.80697 0.0448 0.0
H489 H 0.7373 0.8205 0.0631 0.0
H490 H 0.73234 0.80949 0.00535 0.0
H491 H 0.74308 0.79574 0.05086 0.0
C492 C 0.71689 0.87078 0.20079 0.0
N493 N 0.72364 0.85293 0.20177 0.0
N494 N 0.71616 0.84224 0.16878 0.0
C495 C 0.70498 0.853 0.14484 0.0
C496 C 0.70503 0.87145 0.16434 0.0
C497 C 0.72064 0.88626 0.23686 0.0
H498 H 0.73435 0.88813 0.23992 0.0
H499 H 0.71478 0.9002 0.22647 0.0
H500 H 0.71586 0.88176 0.27276 0.0
O501 O 0.72588 0.82123 0.28167 0.0
O502 O 0.71597 0.80213 0.2241 0.0
H503 H 0.68649 0.8327 0.12206 0.0
H504 H 0.68454 0.85613 0.09378 0.0
C505 C 0.6935 0.84513 0.10698 0.0
H506 H 0.70102 0.83976 0.07611 0.0
H507 H 0.69123 0.7934 0.14901 0.0
O508 O 0.7439 0.85952 0.30055 0.0
C509 C 0.71793 0.8062 0.26873 0.0
Co510 Co 0.93176 0.9215 0.07054 0.0
Co511 Co 0.94696 0.90097 0.97968 0.0
C512 C 0.9569 0.94113 0.00621 0.0
O513 O 0.94711 0.94097 0.0424 0.0
O514 O 0.95807 0.92664 0.97804 0.0
C515 C 0.91552 0.95216 0.11881 0.0
O516 O 0.91885 0.96115 0.07812 0.0
C517 C 0.95787 0.89466 0.88095 0.0
C518 C 0.96082 0.86295 0.87702 0.0
C519 C 0.96323 0.87983 0.85102 0.0
N520 N 0.95281 0.88699 0.92292 0.0
N521 N 0.95436 0.86799 0.92021 0.0
C522 C 0.95729 0.91584 0.86989 0.0
H523 H 0.94635 0.92254 0.88791 0.0
H524 H 0.95656 0.91837 0.83036 0.0
H525 H 0.96872 0.92286 0.8841 0.0
C526 C 0.90036 0.91326 0.01874 0.0
N527 N 0.91705 0.91193 0.02335 0.0
N528 N 0.92333 0.90364 0.98463 0.0
C529 C 0.91079 0.89968 0.9537 0.0
C530 C 0.89587 0.90573 0.97426 0.0
C531 C 0.88918 0.92299 0.05461 0.0
H532 H 0.89234 0.91808 0.09163 0.0
H533 H 0.89117 0.93882 0.05259 0.0
H534 H 0.87581 0.92008 0.04744 0.0
O535 O 0.94556 0.90084 0.09932 0.0
O536 O 0.95728 0.88723 0.03501 0.0
H537 H 0.92021 0.87663 0.91006 0.0
H538 H 0.90094 0.8869 0.88813 0.0
C539 C 0.91307 0.89023 0.90553 0.0
H540 H 0.92038 0.89995 0.88169 0.0
H541 H 0.95157 0.85853 0.94843 0.0
O542 O 0.91953 0.93448 0.12326 0.0
C543 C 0.95553 0.88867 0.08053 0.0
Co544 Co 0.74521 0.66249 0.73141 0.0
Co545 Co 0.72367 0.68617 0.65408 0.0
C546 C 0.75863 0.68791 0.66151 0.0
O547 O 0.76332 0.67483 0.69103 0.0
O548 O 0.74713 0.68321 0.63243 0.0
C549 C 0.76084 0.63251 0.80747 0.0
O550 O 0.77103 0.62084 0.78441 0.0
C551 C 0.71216 0.7035 0.56068 0.0
C552 C 0.688 0.71573 0.58383 0.0
C553 C 0.69883 0.71477 0.54494 0.0
N554 N 0.7093 0.6981 0.60675 0.0
N555 N 0.69467 0.70522 0.61987 0.0
C556 C 0.72821 0.70008 0.53461 0.0
H557 H 0.73614 0.71319 0.53731 0.0
H558 H 0.73494 0.6876 0.55035 0.0
H559 H 0.72591 0.69719 0.49585 0.0
C560 C 0.72123 0.63214 0.69938 0.0
N561 N 0.72742 0.65024 0.69635 0.0
N562 N 0.71798 0.66036 0.66651 0.0
C563 C 0.70595 0.64893 0.64865 0.0
C564 C 0.70756 0.63076 0.66901 0.0
C565 C 0.72784 0.61679 0.73219 0.0
H566 H 0.74144 0.61508 0.72606 0.0
H567 H 0.72147 0.60275 0.72606 0.0
H568 H 0.72596 0.62132 0.77025 0.0
O569 O 0.73567 0.68408 0.76791 0.0
O570 O 0.72103 0.70154 0.71588 0.0
H571 H 0.6851 0.66676 0.63063 0.0
H572 H 0.6848 0.64339 0.60164 0.0
C573 C 0.69293 0.65547 0.61348 0.0
H574 H 0.69909 0.66194 0.58144 0.0
H575 H 0.68962 0.70372 0.65442 0.0
O576 O 0.75314 0.64569 0.78459 0.0
C577 C 0.72661 0.69866 0.75843 0.0
Co578 Co 0.56327 0.4249 0.07195 0.0
Co579 Co 0.54601 0.40491 0.9831 0.0
C580 C 0.53745 0.44508 0.00991 0.0
O581 O 0.54727 0.44406 0.04598 0.0
O582 O 0.53601 0.43117 0.98003 0.0
C583 C 0.58161 0.45541 0.11512 0.0
O584 O 0.57835 0.46402 0.07389 0.0
C585 C 0.53195 0.39527 0.88757 0.0
C586 C 0.53744 0.36402 0.88212 0.0
C587 C 0.53058 0.37939 0.85702 0.0
N588 N 0.53965 0.38962 0.92831 0.0
N589 N 0.54283 0.37091 0.92489 0.0
C590 C 0.52497 0.41516 0.88029 0.0
H591 H 0.51761 0.41936 0.91252 0.0
H592 H 0.5354 0.42559 0.87632 0.0
H593 H 0.51667 0.41605 0.8484 0.0
C594 C 0.59352 0.41507 0.01695 0.0
N595 N 0.57687 0.41469 0.02314 0.0
N596 N 0.56978 0.40704 0.98482 0.0
C597 C 0.58174 0.40294 0.95209 0.0
C598 C 0.59719 0.40786 0.97147 0.0
C599 C 0.60567 0.42147 0.05478 0.0
H600 H 0.60098 0.41759 0.09118 0.0
H601 H 0.60712 0.4374 0.05284 0.0
H602 H 0.61807 0.41467 0.04933 0.0
O603 O 0.55014 0.40483 0.10347 0.0
O604 O 0.5363 0.39198 0.04191 0.0
H605 H 0.57587 0.38057 0.90174 0.0
H606 H 0.58899 0.39936 0.87724 0.0
C607 C 0.5783 0.39635 0.90157 0.0
H608 H 0.56711 0.40383 0.88731 0.0
H609 H 0.54876 0.36285 0.95172 0.0
O610 O 0.57665 0.43817 0.12171 0.0
C611 C 0.53919 0.39326 0.08712 0.0
Co612 Co 0.75461 0.33875 0.2418 0.0
Co613 Co 0.77118 0.31153 0.1612 0.0
C614 C 0.73658 0.31541 0.1769 0.0
O615 O 0.73441 0.32961 0.20546 0.0
O616 O 0.74763 0.31757 0.1446 0.0
C617 C 0.73694 0.35548 0.3205 0.0
O618 O 0.72644 0.34134 0.31168 0.0
C619 C 0.77947 0.29143 0.06704 0.0
C620 C 0.80447 0.28029 0.08515 0.0
C621 C 0.79267 0.28036 0.04853 0.0
N622 N 0.78346 0.29745 0.11201 0.0
N623 N 0.79847 0.29072 0.12223 0.0
C624 C 0.76295 0.29513 0.04394 0.0
H625 H 0.75392 0.30124 0.06977 0.0
H626 H 0.76451 0.30567 0.01406 0.0
H627 H 0.75797 0.28141 0.02922 0.0
C628 C 0.78 0.36541 0.20169 0.0
N629 N 0.77225 0.34811 0.20172 0.0
N630 N 0.77971 0.33665 0.17026 0.0
C631 C 0.79201 0.34651 0.14835 0.0
C632 C 0.7926 0.36496 0.16759 0.0
C633 C 0.77599 0.38159 0.23553 0.0
H634 H 0.7788 0.37699 0.27305 0.0
H635 H 0.76246 0.38492 0.23347 0.0
H636 H 0.78331 0.39476 0.22684 0.0
O637 O 0.76291 0.31628 0.27868 0.0
O638 O 0.77366 0.29647 0.22375 0.0
H639 H 0.81159 0.32735 0.12727 0.0
H640 H 0.81119 0.34969 0.09371 0.0
C641 C 0.80333 0.33832 0.11052 0.0
H642 H 0.7958 0.33117 0.08208 0.0
H643 H 0.80451 0.29293 0.15517 0.0
O644 O 0.74918 0.35802 0.29209 0.0
C645 C 0.77001 0.30042 0.26758 0.0
Co646 Co 0.92936 0.57073 0.56658 0.0
Co647 Co 0.94574 0.59124 0.47708 0.0
C648 C 0.95624 0.55224 0.50373 0.0
O649 O 0.94639 0.55341 0.53959 0.0
O650 O 0.9571 0.56572 0.47245 0.0
C651 C 0.91411 0.53727 0.60305 0.0
O652 O 0.91867 0.53074 0.56049 0.0
C653 C 0.9574 0.60271 0.3802 0.0
C654 C 0.95648 0.63461 0.38512 0.0
C655 C 0.96049 0.61957 0.35427 0.0
N656 N 0.95161 0.60764 0.42406 0.0
N657 N 0.95102 0.62671 0.42667 0.0
C658 C 0.9614 0.58232 0.36616 0.0
H659 H 0.97118 0.57666 0.39073 0.0
H660 H 0.95014 0.57317 0.37095 0.0
H661 H 0.96602 0.58109 0.32863 0.0
C662 C 0.89876 0.57907 0.51283 0.0
N663 N 0.91539 0.58018 0.51813 0.0
N664 N 0.92205 0.58808 0.47945 0.0
C665 C 0.90975 0.59185 0.44751 0.0
C666 C 0.89463 0.58625 0.46777 0.0
C667 C 0.88727 0.57 0.54902 0.0
H668 H 0.8909 0.57446 0.58602 0.0
H669 H 0.88836 0.55406 0.5464 0.0
H670 H 0.87405 0.57391 0.54262 0.0
O671 O 0.94141 0.59153 0.59943 0.0
O672 O 0.9551 0.60373 0.53657 0.0
H673 H 0.91808 0.61519 0.40315 0.0
H674 H 0.90062 0.60206 0.37834 0.0
C675 C 0.91246 0.60065 0.39879 0.0
H676 H 0.92136 0.59162 0.378 0.0
H677 H 0.94712 0.63434 0.45716 0.0
O678 O 0.91686 0.55486 0.61373 0.0
C679 C 0.95233 0.60292 0.5819 0.0
Co680 Co 0.73095 0.34108 0.74411 0.0
Co681 Co 0.71777 0.31382 0.82829 0.0
C682 C 0.752 0.31009 0.78387 0.0
O683 O 0.75073 0.325 0.75709 0.0
O684 O 0.74078 0.30586 0.81472 0.0
C685 C 0.74864 0.36021 0.66738 0.0
O686 O 0.76091 0.3486 0.67955 0.0
C687 C 0.71631 0.29012 0.91899 0.0
C688 C 0.68905 0.2884 0.93039 0.0
C689 C 0.70415 0.28279 0.95028 0.0
N690 N 0.70867 0.30006 0.88336 0.0
N691 N 0.69238 0.29869 0.89023 0.0
C692 C 0.73471 0.28614 0.91995 0.0
H693 H 0.7396 0.28466 0.8829 0.0
H694 H 0.74123 0.29834 0.93785 0.0
H695 H 0.7376 0.2725 0.93922 0.0
C696 C 0.71678 0.37056 0.80797 0.0
N697 N 0.72174 0.35228 0.79999 0.0
N698 N 0.71645 0.3412 0.83547 0.0
C699 C 0.70838 0.35231 0.86784 0.0
C700 C 0.70788 0.37124 0.85092 0.0
C701 C 0.71829 0.38641 0.77145 0.0
H702 H 0.73151 0.38775 0.75994 0.0
H703 H 0.71396 0.40044 0.78633 0.0
H704 H 0.71076 0.38268 0.73913 0.0
O705 O 0.71509 0.32323 0.71291 0.0
O706 O 0.70529 0.30414 0.77064 0.0
H707 H 0.68691 0.33825 0.897 0.0
H708 H 0.69599 0.35592 0.9367 0.0
C709 C 0.69884 0.34446 0.90998 0.0
H710 H 0.70621 0.33302 0.92812 0.0
H711 H 0.68348 0.30473 0.86723 0.0
O712 O 0.73548 0.36043 0.69299 0.0
C713 C 0.70608 0.30909 0.72635 0.0
Co714 Co 0.93382 0.4237 0.93558 0.0
Co715 Co 0.95049 0.40219 0.02342 0.0
C716 C 0.96056 0.44218 0.99665 0.0
O717 O 0.94999 0.44248 0.96232 0.0
O718 O 0.9622 0.42751 0.02415 0.0
C719 C 0.91668 0.45467 0.8904 0.0
O720 O 0.91999 0.46331 0.93156 0.0
C721 C 0.96204 0.39242 0.12151 0.0
C722 C 0.95979 0.36054 0.12137 0.0
C723 C 0.96417 0.37608 0.15018 0.0
N724 N 0.95631 0.38675 0.07818 0.0
N725 N 0.95499 0.3677 0.07834 0.0
C726 C 0.96645 0.41296 0.13303 0.0
H727 H 0.97546 0.41835 0.10578 0.0
H728 H 0.95507 0.42205 0.1305 0.0
H729 H 0.97217 0.4146 0.16917 0.0
C730 C 0.90326 0.4153 0.99118 0.0
N731 N 0.91989 0.41429 0.98448 0.0
N732 N 0.92682 0.40561 0.02171 0.0
C733 C 0.91477 0.40103 0.05368 0.0
C734 C 0.8995 0.40699 0.03532 0.0
C735 C 0.89122 0.42342 0.95521 0.0
H736 H 0.89505 0.41934 0.91812 0.0
H737 H 0.89127 0.43942 0.95792 0.0
H738 H 0.87834 0.41816 0.96195 0.0
O739 O 0.94655 0.40273 0.90457 0.0
O740 O 0.95934 0.38839 0.96609 0.0
H741 H 0.92196 0.37712 0.09789 0.0
H742 H 0.90666 0.39276 0.1256 0.0
C743 C 0.91793 0.39234 0.10235 0.0
H744 H 0.92802 0.40044 0.12067 0.0
H745 H 0.95085 0.35958 0.04894 0.0
O746 O 0.92104 0.43716 0.8847 0.0
C747 C 0.95662 0.39012 0.92104 0.0
Co748 Co 0.763 0.65606 0.24483 0.0
Co749 Co 0.77563 0.67998 0.33508 0.0
C750 C 0.74111 0.68387 0.29911 0.0
O751 O 0.74355 0.67183 0.26488 0.0
O752 O 0.7519 0.68633 0.33229 0.0
C753 C 0.745 0.64046 0.16361 0.0
O754 O 0.73326 0.6526 0.17696 0.0
C755 C 0.77765 0.69809 0.43146 0.0
C756 C 0.80422 0.70613 0.43606 0.0
C757 C 0.78921 0.7073 0.4606 0.0
N758 N 0.7854 0.69153 0.39161 0.0
N759 N 0.80135 0.69628 0.39483 0.0
C760 C 0.75945 0.69592 0.44136 0.0
H761 H 0.7546 0.68251 0.42452 0.0
H762 H 0.75729 0.69546 0.48087 0.0
H763 H 0.75269 0.70854 0.42625 0.0
C764 C 0.77784 0.62431 0.30078 0.0
N765 N 0.77308 0.64287 0.29637 0.0
N766 N 0.7786 0.65277 0.33361 0.0
C767 C 0.78687 0.64074 0.36333 0.0
C768 C 0.78677 0.62227 0.34336 0.0
C769 C 0.77524 0.60931 0.26261 0.0
H770 H 0.76189 0.60907 0.25197 0.0
H771 H 0.77901 0.59475 0.27547 0.0
H772 H 0.78266 0.61319 0.23018 0.0
O773 O 0.77838 0.67506 0.21609 0.0
O774 O 0.78519 0.69383 0.27803 0.0
H775 H 0.80701 0.65694 0.39345 0.0
H776 H 0.80205 0.6355 0.42728 0.0
C777 C 0.79668 0.64755 0.40611 0.0
H778 H 0.7885 0.65624 0.43003 0.0
H779 H 0.81018 0.6934 0.36807 0.0
O780 O 0.75789 0.6386 0.18994 0.0
C781 C 0.78539 0.69007 0.23301 0.0
Co782 Co 0.56942 0.56739 0.44474 0.0
Co783 Co 0.55065 0.58963 0.52775 0.0
C784 C 0.54144 0.54947 0.50289 0.0
O785 O 0.55246 0.54976 0.46992 0.0
O786 O 0.5393 0.56391 0.53089 0.0
C787 C 0.58534 0.53419 0.40746 0.0
O788 O 0.57978 0.52674 0.44804 0.0
C789 C 0.53522 0.60103 0.61994 0.0
C790 C 0.53731 0.63286 0.61761 0.0
C791 C 0.53124 0.61774 0.64526 0.0
N792 N 0.54315 0.60604 0.57905 0.0
N793 N 0.54444 0.62509 0.57801 0.0
C794 C 0.53216 0.58057 0.63501 0.0
H795 H 0.54289 0.57139 0.62424 0.0
H796 H 0.53026 0.5795 0.67463 0.0
H797 H 0.52086 0.57508 0.61634 0.0
C798 C 0.59847 0.57661 0.50444 0.0
N799 N 0.58205 0.5777 0.49515 0.0
N800 N 0.57445 0.5868 0.53062 0.0
C801 C 0.58594 0.59169 0.56412 0.0
C802 C 0.60153 0.58538 0.54851 0.0
C803 C 0.61068 0.566 0.47318 0.0
H804 H 0.60772 0.55036 0.47419 0.0
H805 H 0.62375 0.56787 0.48539 0.0
H806 H 0.60946 0.57102 0.43528 0.0
O807 O 0.55731 0.58725 0.40833 0.0
O808 O 0.54255 0.60154 0.46603 0.0
H809 H 0.5933 0.60465 0.63223 0.0
H810 H 0.57238 0.59474 0.63022 0.0
C811 C 0.58208 0.6026 0.60941 0.0
H812 H 0.57699 0.617 0.59979 0.0
H813 H 0.54998 0.63282 0.54988 0.0
O814 O 0.5831 0.55208 0.39919 0.0
C815 C 0.54616 0.59925 0.42153 0.0
Co816 Co 0.25536 0.34037 0.25257 0.0
Co817 Co 0.26942 0.31513 0.34062 0.0
C818 C 0.23593 0.31544 0.31108 0.0
O819 O 0.23437 0.32921 0.28074 0.0
O820 O 0.245 0.31862 0.34778 0.0
C821 C 0.24088 0.36615 0.17385 0.0
O822 O 0.22569 0.36583 0.19168 0.0
C823 C 0.27416 0.29561 0.43646 0.0
C824 C 0.30043 0.28637 0.42924 0.0
C825 C 0.28678 0.2853 0.45975 0.0
N826 N 0.28012 0.30228 0.39409 0.0
N827 N 0.29585 0.29672 0.3903 0.0
C828 C 0.257 0.29969 0.45496 0.0
H829 H 0.25215 0.31332 0.43925 0.0
H830 H 0.25717 0.3008 0.49492 0.0
H831 H 0.24855 0.28773 0.44456 0.0
C832 C 0.27644 0.36949 0.30016 0.0
N833 N 0.26988 0.35161 0.2987 0.0
N834 N 0.27656 0.34104 0.33338 0.0
C835 C 0.28715 0.35213 0.35885 0.0
C836 C 0.28742 0.37046 0.33855 0.0
C837 C 0.27301 0.38492 0.26365 0.0
H838 H 0.25933 0.38649 0.25875 0.0
H839 H 0.27844 0.39899 0.27485 0.0
H840 H 0.27846 0.38058 0.22844 0.0
O841 O 0.26718 0.31877 0.22267 0.0
O842 O 0.27564 0.29949 0.28159 0.0
H843 H 0.30698 0.33457 0.38571 0.0
H844 H 0.30425 0.35684 0.41848 0.0
C845 C 0.29761 0.34492 0.39985 0.0
H846 H 0.28961 0.33722 0.42624 0.0
H847 H 0.30337 0.29957 0.36035 0.0
O848 O 0.2526 0.35744 0.19574 0.0
C849 C 0.27437 0.30342 0.23675 0.0
Co850 Co 0.43054 0.57684 0.93083 0.0
Co851 Co 0.44679 0.59658 0.02136 0.0
C852 C 0.45654 0.55678 0.99111 0.0
O853 O 0.44646 0.55743 0.95569 0.0
O854 O 0.45778 0.57083 0.0206 0.0
C855 C 0.41293 0.54664 0.88537 0.0
O856 O 0.41514 0.53845 0.92772 0.0
C857 C 0.45878 0.60173 0.12036 0.0
C858 C 0.46303 0.63322 0.12415 0.0
C859 C 0.46514 0.61622 0.14999 0.0
N860 N 0.45355 0.60977 0.07885 0.0
N861 N 0.45589 0.62864 0.08161 0.0
C862 C 0.45718 0.58063 0.13135 0.0
H863 H 0.44606 0.57458 0.11281 0.0
H864 H 0.45612 0.57818 0.17085 0.0
H865 H 0.46834 0.57292 0.11764 0.0
C866 C 0.39967 0.58571 0.98412 0.0
N867 N 0.41638 0.58615 0.9796 0.0
N868 N 0.423 0.59405 0.01837 0.0
C869 C 0.4106 0.59847 0.0495 0.0
C870 C 0.39544 0.59332 0.02871 0.0
C871 C 0.3881 0.57711 0.94744 0.0
H872 H 0.392 0.58151 0.91063 0.0
H873 H 0.38871 0.56114 0.95004 0.0
H874 H 0.37497 0.58146 0.95328 0.0
O875 O 0.44345 0.59792 0.90211 0.0
O876 O 0.45633 0.61114 0.96505 0.0
H877 H 0.42077 0.62098 0.09344 0.0
H878 H 0.40122 0.61133 0.1155 0.0
C879 C 0.41324 0.60765 0.0978 0.0
H880 H 0.42035 0.59758 0.12124 0.0
H881 H 0.45321 0.63831 0.05373 0.0
O882 O 0.41808 0.56381 0.87883 0.0
C883 C 0.45368 0.61009 0.91971 0.0
Co884 Co 0.24325 0.65705 0.76162 0.0
Co885 Co 0.22743 0.68517 0.84001 0.0
C886 C 0.26156 0.68279 0.82135 0.0
O887 O 0.2638 0.66878 0.79214 0.0
O888 O 0.25116 0.67994 0.85498 0.0
C889 C 0.26008 0.63675 0.6841 0.0
O890 O 0.2728 0.64827 0.69214 0.0
C891 C 0.21975 0.70663 0.93188 0.0
C892 C 0.19589 0.72007 0.91007 0.0
C893 C 0.20733 0.71932 0.94744 0.0
N894 N 0.21572 0.70028 0.88732 0.0
N895 N 0.20136 0.70827 0.87496 0.0
C896 C 0.2359 0.70232 0.95664 0.0
H897 H 0.24374 0.69252 0.93483 0.0
H898 H 0.23345 0.69526 0.99183 0.0
H899 H 0.24272 0.71602 0.96324 0.0
C900 C 0.21915 0.63048 0.80916 0.0
N901 N 0.22651 0.64794 0.80546 0.0
N902 N 0.21918 0.65995 0.83577 0.0
C903 C 0.20737 0.65043 0.86062 0.0
C904 C 0.20697 0.63146 0.84456 0.0
C905 C 0.22332 0.61345 0.77817 0.0
H906 H 0.23701 0.61107 0.77839 0.0
H907 H 0.21687 0.60019 0.7909 0.0
H908 H 0.2195 0.61653 0.74042 0.0
O909 O 0.23358 0.67797 0.72246 0.0
O910 O 0.2237 0.69876 0.77625 0.0
H911 H 0.18904 0.67141 0.88026 0.0
H912 H 0.18743 0.64916 0.91379 0.0
C913 C 0.19627 0.65963 0.89755 0.0
H914 H 0.20404 0.6661 0.92648 0.0
H915 H 0.19555 0.70615 0.84165 0.0
O916 O 0.24768 0.63707 0.71259 0.0
C917 C 0.22646 0.69389 0.73253 0.0
Co918 Co 0.06642 0.42833 0.43735 0.0
Co919 Co 0.05065 0.40491 0.5235 0.0
C920 C 0.04263 0.44671 0.50597 0.0
O921 O 0.05307 0.44786 0.47145 0.0
O922 O 0.04035 0.43096 0.52897 0.0
C923 C 0.08496 0.45838 0.3922 0.0
O924 O 0.08487 0.46579 0.43589 0.0
C925 C 0.03608 0.39423 0.6173 0.0
C926 C 0.04146 0.36295 0.6213 0.0
C927 C 0.03361 0.3779 0.6455 0.0
N928 N 0.04481 0.38916 0.57787 0.0
N929 N 0.04812 0.37046 0.58069 0.0
C930 C 0.03077 0.41448 0.62843 0.0
H931 H 0.0199 0.41828 0.60552 0.0
H932 H 0.04109 0.42462 0.62 0.0
H933 H 0.02728 0.41614 0.667 0.0
C934 C 0.09752 0.4159 0.48446 0.0
N935 N 0.0808 0.41553 0.48016 0.0
N936 N 0.07429 0.40699 0.5182 0.0
C937 C 0.08668 0.40235 0.54899 0.0
C938 C 0.10182 0.40779 0.5285 0.0
C939 C 0.10913 0.42368 0.44681 0.0
H940 H 0.1039 0.42119 0.41027 0.0
H941 H 0.11073 0.43945 0.45229 0.0
H942 H 0.12156 0.41667 0.44932 0.0
O943 O 0.05015 0.41109 0.40716 0.0
O944 O 0.0398 0.39287 0.46601 0.0
H945 H 0.08188 0.3795 0.59901 0.0
H946 H 0.09467 0.39864 0.62319 0.0
C947 C 0.08387 0.39536 0.59954 0.0
H948 H 0.07262 0.40234 0.61499 0.0
H949 H 0.05465 0.36274 0.55439 0.0
O950 O 0.07839 0.4419 0.38523 0.0
C951 C 0.0403 0.39795 0.42184 0.0
Co952 Co 0.25876 0.65218 0.25339 0.0
Co953 Co 0.26905 0.67921 0.16646 0.0
C954 C 0.23715 0.68213 0.21165 0.0
O955 O 0.2383 0.66809 0.24139 0.0
O956 O 0.24447 0.68084 0.17097 0.0
C957 C 0.24362 0.6308 0.33322 0.0
O958 O 0.22934 0.639 0.32213 0.0
C959 C 0.27093 0.70453 0.07915 0.0
C960 C 0.29777 0.7023 0.06156 0.0
C961 C 0.28295 0.71043 0.04615 0.0
N962 N 0.27824 0.69297 0.11205 0.0
N963 N 0.29436 0.69212 0.10183 0.0
C964 C 0.25301 0.7104 0.08055 0.0
H965 H 0.25122 0.72048 0.11117 0.0
H966 H 0.24498 0.69756 0.0864 0.0
H967 H 0.24924 0.71793 0.04702 0.0
C968 C 0.27467 0.62306 0.19138 0.0
N969 N 0.2689 0.64111 0.19844 0.0
N970 N 0.27349 0.65212 0.16202 0.0
C971 C 0.28142 0.64099 0.12929 0.0
C972 C 0.28304 0.62235 0.14755 0.0
C973 C 0.27367 0.60732 0.22832 0.0
H974 H 0.26051 0.60553 0.24005 0.0
H975 H 0.27836 0.5934 0.21372 0.0
H976 H 0.28114 0.61147 0.26043 0.0
O977 O 0.27423 0.67041 0.28324 0.0
O978 O 0.27925 0.69169 0.22547 0.0
H979 H 0.30133 0.65298 0.08745 0.0
H980 H 0.28826 0.63657 0.0547 0.0
C981 C 0.28826 0.64816 0.08227 0.0
H982 H 0.28055 0.66019 0.06832 0.0
H983 H 0.30307 0.68452 0.12241 0.0
O984 O 0.25616 0.63322 0.30591 0.0
C985 C 0.28069 0.6862 0.26925 0.0
Co986 Co 0.06351 0.57436 0.06424 0.0
Co987 Co 0.0471 0.59554 0.97539 0.0
C988 C 0.04123 0.55355 0.99414 0.0
O989 O 0.05091 0.55424 0.03047 0.0
O990 O 0.03846 0.5685 0.96828 0.0
C991 C 0.08238 0.54481 0.10978 0.0
O992 O 0.08186 0.53712 0.06641 0.0
C993 C 0.03405 0.60593 0.87889 0.0
C994 C 0.03599 0.6378 0.8807 0.0
C995 C 0.03081 0.62253 0.85208 0.0
N996 N 0.04102 0.61122 0.92106 0.0
N997 N 0.04222 0.63027 0.92173 0.0
C998 C 0.02891 0.5856 0.86785 0.0
H999 H 0.02 0.58067 0.8959 0.0
H1000 H 0.04002 0.57604 0.86951 0.0
H1001 H 0.02283 0.58417 0.83216 0.0
C1002 C 0.09426 0.58805 0.01768 0.0
N1003 N 0.07752 0.58752 0.02114 0.0
N1004 N 0.07087 0.5954 0.98238 0.0
C1005 C 0.08329 0.60066 0.95218 0.0
C1006 C 0.09847 0.59617 0.97365 0.0
C1007 C 0.10589 0.57896 0.0534 0.0
H1008 H 0.10128 0.58144 0.09063 0.0
H1009 H 0.10644 0.56318 0.04661 0.0
H1010 H 0.11872 0.58477 0.05021 0.0
O1011 O 0.04682 0.59109 0.09397 0.0
O1012 O 0.03516 0.60676 0.03259 0.0
H1013 H 0.07511 0.62376 0.90696 0.0
H1014 H 0.09246 0.61048 0.8826 0.0
C1015 C 0.08062 0.60915 0.90307 0.0
H1016 H 0.0717 0.60005 0.88253 0.0
H1017 H 0.04695 0.63817 0.95077 0.0
O1018 O 0.07584 0.56132 0.11664 0.0
C1019 C 0.03619 0.60302 0.07754 0.0
Co1020 Co 0.23717 0.33622 0.74774 0.0
Co1021 Co 0.21871 0.31221 0.6653 0.0
C1022 C 0.2558 0.3092 0.68569 0.0
O1023 O 0.25628 0.32226 0.71824 0.0
O1024 O 0.24227 0.30518 0.66367 0.0
C1025 C 0.2519 0.36677 0.81831 0.0
O1026 O 0.2581 0.37885 0.78647 0.0
C1027 C 0.21317 0.29124 0.57283 0.0
C1028 C 0.18574 0.28818 0.57218 0.0
C1029 C 0.2 0.28339 0.54663 0.0
N1030 N 0.20695 0.3005 0.61169 0.0
N1031 N 0.19052 0.29859 0.61092 0.0
C1032 C 0.23133 0.28733 0.56582 0.0
H1033 H 0.23547 0.27741 0.59486 0.0
H1034 H 0.23847 0.301 0.56908 0.0
H1035 H 0.23404 0.28034 0.53075 0.0
C1036 C 0.21893 0.36822 0.69809 0.0
N1037 N 0.22388 0.34964 0.70169 0.0
N1038 N 0.21697 0.33965 0.66639 0.0
C1039 C 0.20824 0.35175 0.63802 0.0
C1040 C 0.20905 0.37023 0.65729 0.0
C1041 C 0.22231 0.38344 0.73514 0.0
H1042 H 0.22168 0.3771 0.77187 0.0
H1043 H 0.235 0.3893 0.72901 0.0
H1044 H 0.21334 0.39561 0.73233 0.0
O1045 O 0.22409 0.31589 0.77956 0.0
O1046 O 0.20992 0.29939 0.72482 0.0
H1047 H 0.18628 0.3382 0.61047 0.0
H1048 H 0.19388 0.35756 0.57316 0.0
C1049 C 0.19769 0.3453 0.5964 0.0
H1050 H 0.20471 0.3348 0.57406 0.0
H1051 H 0.18259 0.3039 0.63773 0.0
O1052 O 0.24435 0.35153 0.80491 0.0
C1053 C 0.21411 0.30234 0.76855 0.0
Co1054 Co 0.42965 0.43084 0.55506 0.0
Co1055 Co 0.44532 0.40322 0.4771 0.0
C1056 C 0.45452 0.44545 0.4854 0.0
O1057 O 0.44361 0.44854 0.51786 0.0
O1058 O 0.45672 0.42867 0.46728 0.0
C1059 C 0.4125 0.46294 0.59918 0.0
O1060 O 0.41389 0.47126 0.55671 0.0
C1061 C 0.45618 0.38986 0.38102 0.0
C1062 C 0.45859 0.3584 0.39291 0.0
C1063 C 0.46105 0.37273 0.35867 0.0
N1064 N 0.45111 0.38573 0.42617 0.0
N1065 N 0.45231 0.36686 0.43273 0.0
C1066 C 0.45812 0.41007 0.36255 0.0
H1067 H 0.44845 0.41954 0.3788 0.0
H1068 H 0.45711 0.41078 0.32275 0.0
H1069 H 0.47058 0.41561 0.3732 0.0
C1070 C 0.39861 0.41851 0.50862 0.0
N1071 N 0.41524 0.41731 0.51435 0.0
N1072 N 0.42163 0.40629 0.48031 0.0
C1073 C 0.40917 0.40035 0.45113 0.0
C1074 C 0.39425 0.40796 0.46815 0.0
C1075 C 0.38749 0.43127 0.53814 0.0
H1076 H 0.39 0.44656 0.5286 0.0
H1077 H 0.3741 0.42835 0.53153 0.0
H1078 H 0.39022 0.42922 0.57706 0.0
O1079 O 0.44486 0.41372 0.58999 0.0
O1080 O 0.45512 0.39253 0.53783 0.0
H1081 H 0.39948 0.38412 0.39035 0.0
H1082 H 0.41928 0.39609 0.38054 0.0
C1083 C 0.41157 0.3881 0.40716 0.0
H1084 H 0.41835 0.37472 0.41718 0.0
H1085 H 0.44948 0.35986 0.46511 0.0
O1086 O 0.4178 0.44579 0.60494 0.0
C1087 C 0.45423 0.39941 0.58042 0.0
H1088 H 0.23218 0.3034 0.21683 0.0
H1089 H 0.24272 0.28263 0.3606 0.0
H1090 H 0.23961 0.27223 0.18419 0.0
H1091 H 0.24791 0.25068 0.32929 0.0
H1092 H 0.27107 0.19854 0.26549 0.0
H1093 H 0.26634 0.23145 0.29301 0.0
H1094 H 0.23494 0.24176 0.16818 0.0
H1095 H 0.24153 0.2103 0.13853 0.0
C1096 C 0.23553 0.29196 0.24171 0.0
C1097 C 0.23709 0.29561 0.29136 0.0
C1098 C 0.2397 0.27384 0.22301 0.0
C1099 C 0.24472 0.25863 0.25377 0.0
C1100 C 0.24492 0.26202 0.30384 0.0
C1101 C 0.24147 0.28031 0.32217 0.0
C1102 C 0.26348 0.20809 0.24358 0.0
C1103 C 0.25624 0.2015 0.20051 0.0
C1104 C 0.26044 0.22691 0.25979 0.0
C1105 C 0.24966 0.23937 0.23402 0.0
C1106 C 0.24334 0.233 0.18948 0.0
C1107 C 0.24695 0.21459 0.17251 0.0
H1108 H 0.04807 0.98427 0.5221 0.0
H1109 H 0.01541 0.95205 0.42757 0.0
H1110 H 0.02716 0.00908 0.53071 0.0
H1111 H 0.99467 0.97777 0.43347 0.0
H1112 H 0.95291 0.01222 0.50112 0.0
H1113 H 0.97515 0.98864 0.48936 0.0
H1114 H 0.01176 0.03436 0.50251 0.0
H1115 H 0.9895 0.05744 0.51784 0.0
C1116 C 0.03657 0.98274 0.50188 0.0
C1117 C 0.03329 0.96592 0.47494 0.0
C1118 C 0.02451 0.99712 0.50669 0.0
C1119 C 0.00894 0.99533 0.48383 0.0
C1120 C 0.00627 0.97935 0.45311 0.0
C1121 C 0.0183 0.96474 0.44889 0.0
C1122 C 0.96577 0.01702 0.50275 0.0
C1123 C 0.96954 0.03654 0.51101 0.0
C1124 C 0.97854 0.00361 0.495 0.0
C1125 C 0.99535 0.00954 0.49394 0.0
C1126 C -0.00095 0.02908 0.5036 0.0
C1127 C 0.98629 0.04237 0.51266 0.0
H1128 H 0.21965 0.79466 0.75757 0.0
H1129 H 0.24704 0.78095 0.62805 0.0
H1130 H 0.22714 0.76361 0.79099 0.0
H1131 H 0.25668 0.75168 0.66282 0.0
H1132 H 0.26996 0.69455 0.72932 0.0
H1133 H 0.26164 0.72408 0.69122 0.0
H1134 H 0.24434 0.74582 0.82959 0.0
H1135 H 0.2524 0.71603 0.86648 0.0
C1136 C 0.22746 0.78508 0.73641 0.0
C1137 C 0.23353 0.79083 0.69117 0.0
C1138 C 0.23224 0.76729 0.7561 0.0
C1139 C 0.24379 0.75515 0.73193 0.0
C1140 C 0.2483 0.76025 0.68443 0.0
C1141 C 0.24282 0.77747 0.66402 0.0
C1142 C 0.26459 0.70582 0.75158 0.0
C1143 C 0.26104 0.70249 0.80044 0.0
C1144 C 0.25964 0.72308 0.72961 0.0
C1145 C 0.25113 0.73758 0.75606 0.0
C1146 C 0.24966 0.73495 0.80636 0.0
C1147 C 0.2546 0.71776 0.82815 0.0
H1148 H 0.45225 0.0208 0.05409 0.0
H1149 H 0.47935 0.04596 0.93455 0.0
H1150 H 0.472 0.99443 0.05742 0.0
H1151 H 0.49877 0.01882 0.9362 0.0
H1152 H 0.54172 0.98158 0.98618 0.0
H1153 H 0.52106 0.00741 0.98361 0.0
H1154 H 0.48257 0.96647 0.023 0.0
H1155 H 0.50344 0.94103 0.02825 0.0
C1156 C 0.46224 0.02051 0.02772 0.0
C1157 C 0.46434 0.03571 0.99445 0.0
C1158 C 0.47358 0.00525 0.02953 0.0
C1159 C 0.48722 0.00457 0.99765 0.0
C1160 C 0.48871 0.01914 0.96232 0.0
C1161 C 0.47744 0.03459 0.96086 0.0
C1162 C 0.52888 0.97825 0.99511 0.0
C1163 C 0.52419 0.95933 0.00754 0.0
C1164 C 0.51697 0.99297 0.99294 0.0
C1165 C 0.50003 0.98904 0.00218 0.0
C1166 C 0.49548 0.97017 0.01608 0.0
C1167 C 0.50746 0.95554 0.01921 0.0
H1168 H 0.2694 0.78603 0.36347 0.0
H1169 H 0.26813 0.79918 0.21159 0.0
H1170 H 0.26046 0.75358 0.34715 0.0
H1171 H 0.26213 0.76566 0.19372 0.0
H1172 H 0.22934 0.71574 0.16722 0.0
H1173 H 0.23933 0.7476 0.18996 0.0
H1174 H 0.25607 0.72405 0.32672 0.0
H1175 H 0.24518 0.693 0.30431 0.0
C1176 C 0.26823 0.78159 0.3261 0.0
C1177 C 0.26765 0.79556 0.28934 0.0
C1178 C 0.26287 0.76278 0.31649 0.0
C1179 C 0.25902 0.75702 0.26895 0.0
C1180 C 0.26331 0.76983 0.2312 0.0
C1181 C 0.26759 0.78901 0.24133 0.0
C1182 C 0.23491 0.71772 0.20239 0.0
C1183 C 0.23726 0.70177 0.23269 0.0
C1184 C 0.2411 0.73586 0.21524 0.0
C1185 C 0.25004 0.7384 0.25872 0.0
C1186 C 0.25009 0.72293 0.29196 0.0
C1187 C 0.24361 0.7049 0.27928 0.0
H1188 H 0.44632 0.98389 0.48883 0.0
H1189 H 0.48285 0.94655 0.55566 0.0
H1190 H 0.46702 0.00908 0.48085 0.0
H1191 H 0.50356 0.97232 0.55013 0.0
H1192 H 0.5419 0.01145 0.48032 0.0
H1193 H 0.52022 0.98696 0.49092 0.0
H1194 H 0.48385 0.03229 0.51426 0.0
H1195 H 0.5053 0.05646 0.49984 0.0
C1196 C 0.45871 0.98125 0.50308 0.0
C1197 C 0.463 0.96309 0.5222 0.0
C1198 C 0.47063 0.99579 0.49864 0.0
C1199 C 0.48716 0.9927 0.51385 0.0
C1200 C 0.49111 0.97504 0.5366 0.0
C1201 C 0.47915 0.96036 0.54067 0.0
C1202 C 0.52913 0.01603 0.48629 0.0
C1203 C 0.52514 0.03574 0.48832 0.0
C1204 C 0.51676 0.00206 0.4934 0.0
C1205 C 0.50024 0.00755 0.50426 0.0
C1206 C 0.4963 0.02739 0.50522 0.0
C1207 C 0.50857 0.0413 0.4967 0.0
H1208 H 0.27698 0.29835 0.7601 0.0
H1209 H 0.26374 0.28211 0.61588 0.0
H1210 H 0.2706 0.26599 0.78827 0.0
H1211 H 0.25386 0.25117 0.64419 0.0
H1212 H 0.23793 0.19411 0.7111 0.0
H1213 H 0.24934 0.2227 0.67421 0.0
H1214 H 0.24647 0.25245 0.81163 0.0
H1215 H 0.23587 0.22321 0.84867 0.0
C1216 C 0.27301 0.28767 0.73389 0.0
C1217 C 0.26815 0.29332 0.68729 0.0
C1218 C 0.26847 0.26933 0.7506 0.0
C1219 C 0.2597 0.25652 0.72005 0.0
C1220 C 0.25957 0.26072 0.67021 0.0
C1221 C 0.26552 0.2785 0.65357 0.0
C1222 C 0.2396 0.20682 0.73339 0.0
C1223 C 0.23718 0.20599 0.78358 0.0
C1224 C 0.2463 0.2234 0.71214 0.0
C1225 C 0.25033 0.23967 0.74049 0.0
C1226 C 0.24513 0.23974 0.78917 0.0
C1227 C 0.23873 0.22306 0.81048 0.0
H1228 H 0.01639 0.04325 0.06448 0.0
H1229 H 0.03363 0.0245 0.92418 0.0
H1230 H 0.99723 0.01591 0.06738 0.0
H1231 H 0.01403 0.99785 0.92596 0.0
H1232 H 0.98724 0.94165 0.96145 0.0
H1233 H 0.00737 0.96798 0.95971 0.0
H1234 H 0.97206 0.00487 0.03367 0.0
H1235 H 0.95232 0.97814 0.03758 0.0
C1236 C 0.01611 0.0333 0.03429 0.0
C1237 C 0.02654 0.03614 0.9941 0.0
C1238 C 0.00499 0.01771 0.03567 0.0
C1239 C 0.00388 0.0047 0.99664 0.0
C1240 C 0.0146 0.00735 0.95698 0.0
C1241 C 0.02584 0.02276 0.95587 0.0
C1242 C 0.98373 0.95546 0.97689 0.0
C1243 C 0.96822 0.95782 0.99975 0.0
C1244 C 0.99528 0.97061 0.97588 0.0
C1245 C 0.99147 0.98861 0.99693 0.0
C1246 C 0.97566 0.99111 0.01824 0.0
C1247 C 0.96424 0.97586 0.02001 0.0
H1248 H 0.77505 0.70389 0.73931 0.0
H1249 H 0.7405 0.71792 0.62513 0.0
H1250 H 0.76886 0.73435 0.77803 0.0
H1251 H 0.73229 0.74654 0.66638 0.0
H1252 H 0.72371 0.80354 0.73997 0.0
H1253 H 0.72987 0.77442 0.69684 0.0
H1254 H 0.75295 0.75067 0.82569 0.0
H1255 H 0.74735 0.78035 0.86742 0.0
C1256 C 0.76595 0.71339 0.72279 0.0
C1257 C 0.7576 0.70792 0.68048 0.0
C1258 C 0.76198 0.7308 0.7457 0.0
C1259 C 0.74908 0.74284 0.72792 0.0
C1260 C 0.74202 0.73804 0.68289 0.0
C1261 C 0.74666 0.72122 0.65885 0.0
C1262 C 0.73006 0.79202 0.759 0.0
C1263 C 0.73595 0.79477 0.80614 0.0
C1264 C 0.73366 0.77497 0.73416 0.0
C1265 C 0.74307 0.76007 0.75608 0.0
C1266 C 0.74689 0.76203 0.80553 0.0
C1267 C 0.74339 0.7791 0.83015 0.0
H1268 H 0.72569 0.30465 0.26754 0.0
H1269 H 0.74529 0.28171 0.13455 0.0
H1270 H 0.73146 0.27459 0.3073 0.0
H1271 H 0.74929 0.25073 0.17175 0.0
H1272 H 0.77333 0.20302 0.25103 0.0
H1273 H 0.76635 0.23368 0.21451 0.0
H1274 H 0.73332 0.24606 0.33496 0.0
H1275 H 0.74252 0.21731 0.37365 0.0
C1276 C 0.73081 0.29291 0.24634 0.0
C1277 C 0.73571 0.29583 0.19828 0.0
C1278 C 0.73414 0.27533 0.26919 0.0
C1279 C 0.74203 0.26004 0.24406 0.0
C1280 C 0.74453 0.26229 0.19405 0.0
C1281 C 0.74172 0.28002 0.17185 0.0
C1282 C 0.76486 0.2126 0.26992 0.0
C1283 C 0.75779 0.20717 0.31417 0.0
C1284 C 0.76039 0.23012 0.24835 0.0
C1285 C 0.74825 0.24232 0.26961 0.0
C1286 C 0.74241 0.23744 0.31597 0.0
C1287 C 0.74758 0.22052 0.33846 0.0
H1288 H 0.75494 0.30126 0.68908 0.0
H1289 H 0.76678 0.27951 0.83045 0.0
H1290 H 0.74453 0.27035 0.66562 0.0
H1291 H 0.7585 0.24722 0.80549 0.0
H1292 H 0.72671 0.19779 0.78419 0.0
H1293 H 0.73459 0.23091 0.80056 0.0
H1294 H 0.73838 0.24116 0.64648 0.0
H1295 H 0.72849 0.20887 0.63183 0.0
C1296 C 0.7564 0.28942 0.7144 0.0
C1297 C 0.76031 0.29307 0.763 0.0
C1298 C 0.75001 0.27145 0.7011 0.0
C1299 C 0.74905 0.25631 0.73506 0.0
C1300 C 0.7574 0.25886 0.7796 0.0
C1301 C 0.76302 0.27718 0.79341 0.0
C1302 C 0.72819 0.20757 0.75392 0.0
C1303 C 0.72883 0.20041 0.70656 0.0
C1304 C 0.7336 0.22641 0.76327 0.0
C1305 C 0.73913 0.23836 0.7251 0.0
C1306 C 0.73533 0.23245 0.67758 0.0
C1307 C 0.72921 0.21387 0.66883 0.0
H1308 H 0.7266 0.69369 0.21322 0.0
H1309 H 0.73196 0.71336 0.36012 0.0
H1310 H 0.72958 0.72599 0.18464 0.0
H1311 H 0.73323 0.74647 0.33226 0.0
H1312 H 0.76302 0.79666 0.27601 0.0
H1313 H 0.75328 0.76543 0.30407 0.0
H1314 H 0.72939 0.75598 0.16544 0.0
H1315 H 0.74137 0.78529 0.13616 0.0
C1316 C 0.72742 0.70511 0.23988 0.0
C1317 C 0.73045 0.70081 0.28864 0.0
C1318 C 0.72933 0.724 0.2233 0.0
C1319 C 0.73306 0.73913 0.25576 0.0
C1320 C 0.7318 0.73519 0.30557 0.0
C1321 C 0.73044 0.71616 0.32188 0.0
C1322 C 0.75604 0.78758 0.25136 0.0
C1323 C 0.75247 0.79386 0.20431 0.0
C1324 C 0.75 0.76977 0.26779 0.0
C1325 C 0.73982 0.75805 0.23803 0.0
C1326 C 0.73712 0.76408 0.19014 0.0
C1327 C 0.74388 0.78129 0.17317 0.0
H1328 H 0.52443 0.46153 0.92803 0.0
H1329 H 0.52496 0.46633 0.08347 0.0
H1330 H 0.50506 0.48885 0.92352 0.0
H1331 H 0.50503 0.49268 0.07945 0.0
H1332 H 0.48196 0.55159 0.05587 0.0
H1333 H 0.50203 0.5253 0.05869 0.0
H1334 H 0.4769 0.49743 0.93936 0.0
H1335 H 0.45714 0.52407 0.93555 0.0
C1336 C 0.52035 0.46841 0.96115 0.0
C1337 C 0.52629 0.46197 0.00603 0.0
C1338 C 0.50916 0.48394 0.9587 0.0
C1339 C 0.50343 0.49302 0.00117 0.0
C1340 C 0.50941 0.48641 0.04594 0.0
C1341 C 0.52082 0.47123 0.04828 0.0
C1342 C 0.48063 0.5398 0.03046 0.0
C1343 C 0.4679 0.53996 0.99559 0.0
C1344 C 0.49214 0.52465 0.03211 0.0
C1345 C 0.49116 0.50919 0.99916 0.0
C1346 C 0.47826 0.50923 0.96475 0.0
C1347 C 0.46679 0.52443 0.96293 0.0
H1348 H 0.97846 0.54223 0.43202 0.0
H1349 H 0.96088 0.52509 0.57337 0.0
H1350 H -0.0004 0.51678 0.43535 0.0
H1351 H 0.9823 0.50063 0.57769 0.0
H1352 H 0.0123 0.44595 0.55056 0.0
H1353 H 0.9909 0.47072 0.54797 0.0
H1354 H 0.02517 0.50931 0.47532 0.0
H1355 H 0.04641 0.48412 0.4762 0.0
C1356 C 0.97908 0.53305 0.46366 0.0
C1357 C 0.96802 0.53578 0.50241 0.0
C1358 C 0.9913 0.51861 0.46587 0.0
C1359 C 0.99281 0.50678 0.5071 0.0
C1360 C 0.98144 0.50926 0.54516 0.0
C1361 C 0.96914 0.52343 0.54268 0.0
C1362 C 0.0154 0.45984 0.53492 0.0
C1363 C 0.03104 0.46304 0.51347 0.0
C1364 C 0.00308 0.47408 0.53326 0.0
C1365 C 0.0062 0.49197 0.51078 0.0
C1366 C 0.02217 0.49552 0.49172 0.0
C1367 C 0.03444 0.48119 0.49285 0.0
H1368 H 0.99368 0.43992 0.01569 0.0
H1369 H 0.95439 0.48049 0.98306 0.0
H1370 H 0.01429 0.46558 0.00844 0.0
H1371 H 0.97479 0.50663 0.97918 0.0
H1372 H 0.01506 0.54728 0.93168 0.0
H1373 H 0.99603 0.51978 0.9316 0.0
H1374 H 0.02537 0.49267 0.04392 0.0
H1375 H 0.04473 0.51939 0.04187 0.0
C1376 C 0.98944 0.4545 0.00837 0.0
C1377 C 0.97249 0.4583 1.00016 0.0
C1378 C 0.00125 0.46926 0.00411 0.0
C1379 C 0.99631 0.48828 0.99281 0.0
C1380 C 0.97918 0.49212 0.98652 0.0
C1381 C 0.96743 0.47724 0.9895 0.0
C1382 C 0.01764 0.53522 0.95546 0.0
C1383 C 0.03134 0.53568 0.98708 0.0
C1384 C 0.00658 0.51955 0.95602 0.0
C1385 C 0.0089 0.50408 0.9885 0.0
C1386 C 0.02313 0.50415 0.01815 0.0
C1387 C 0.03425 0.51963 0.01716 0.0
H1388 H 0.51339 0.54434 0.55891 0.0
H1389 H 0.54295 0.51709 0.44734 0.0
H1390 H 0.49239 0.51901 0.55027 0.0
H1391 H 0.52177 0.49265 0.43696 0.0
H1392 H 0.48725 0.44113 0.4621 0.0
H1393 H 0.50891 0.46553 0.46917 0.0
H1394 H 0.47128 0.5091 0.49584 0.0
H1395 H 0.44969 0.48435 0.49133 0.0
C1396 C 0.51548 0.53291 0.53287 0.0
C1397 C 0.52979 0.53287 0.50364 0.0
C1398 C 0.50333 0.51854 0.52734 0.0
C1399 C 0.5052 0.50394 0.49221 0.0
C1400 C 0.51988 0.50352 0.46454 0.0
C1401 C 0.53205 0.51768 0.47044 0.0
C1402 C 0.48359 0.45601 0.46824 0.0
C1403 C 0.46681 0.46085 0.47636 0.0
C1404 C 0.49602 0.47004 0.47256 0.0
C1405 C 0.4919 0.48928 0.4841 0.0
C1406 C 0.47497 0.49433 0.48855 0.0
C1407 C 0.46257 0.48023 0.48512 0.0
H1408 H 0.20231 0.10482 0.08031 0.0
H1409 H 0.17829 0.11464 0.2174 0.0
H1410 H 0.17646 0.09105 0.04835 0.0
H1411 H 0.15233 0.10121 0.18561 0.0
H1412 H 0.10697 0.0748 0.11057 0.0
H1413 H 0.13494 0.07549 0.14687 0.0
H1414 H 0.15202 0.11203 0.03026 0.0
H1415 H 0.12419 0.11134 0.99465 0.0
C1416 C 0.19169 0.10315 0.10416 0.0
C1417 C 0.19207 0.11082 0.15096 0.0
C1418 C 0.17687 0.09551 0.08583 0.0
C1419 C 0.16229 0.09559 0.11412 0.0
C1420 C 0.16335 0.10101 0.16295 0.0
C1421 C 0.1782 0.10862 0.18127 0.0
C1422 C 0.11679 0.08294 0.09298 0.0
C1423 C 0.1136 0.09295 0.04988 0.0
C1424 C 0.13275 0.08323 0.11345 0.0
C1425 C 0.14574 0.09349 0.0909 0.0
C1426 C 0.14242 0.10351 0.04774 0.0
C1427 C 0.12649 0.10329 0.02756 0.0
H1428 H 0.12821 0.88651 0.50767 0.0
H1429 H 0.11394 0.9236 0.38956 0.0
H1430 H 0.15696 0.88616 0.47824 0.0
H1431 H 0.14282 0.92342 0.35978 0.0
H1432 H 0.18786 0.88564 0.29647 0.0
H1433 H 0.16111 0.89804 0.32399 0.0
H1434 H 0.18185 0.90756 0.46601 0.0
H1435 H 0.20885 0.89534 0.43783 0.0
C1436 C 0.13133 0.89458 0.47536 0.0
C1437 C 0.11901 0.9049 0.45043 0.0
C1438 C 0.14777 0.89465 0.45891 0.0
C1439 C 0.15218 0.90503 0.41713 0.0
C1440 C 0.13977 0.91534 0.39212 0.0
C1441 C 0.12329 0.91531 0.40877 0.0
C1442 C 0.18693 0.89128 0.33288 0.0
C1443 C 0.20023 0.88922 0.36543 0.0
C1444 C 0.17157 0.8983 0.34874 0.0
C1445 C 0.16929 0.90324 0.39747 0.0
C1446 C 0.1832 0.9034 0.42849 0.0
C1447 C 0.19863 0.89652 0.41242 0.0
H1448 H 0.38245 0.91896 0.62468 0.0
H1449 H 0.36494 0.89127 0.49477 0.0
H1450 H 0.35447 0.91617 0.66018 0.0
H1451 H 0.33716 0.88822 0.5298 0.0
H1452 H 0.287 0.89011 0.58479 0.0
H1453 H 0.31257 0.9058 0.5566 0.0
H1454 H 0.33729 0.88932 0.68915 0.0
H1455 H 0.31154 0.87423 0.7174 0.0
C1456 C 0.37257 0.91226 0.60391 0.0
C1457 C 0.37571 0.9052 0.55729 0.0
C1458 C 0.35659 0.91076 0.62399 0.0
C1459 C 0.34354 0.90218 0.59762 0.0
C1460 C 0.34679 0.89536 0.55066 0.0
C1461 C 0.36271 0.89686 0.53075 0.0
C1462 C 0.29771 0.89074 0.60862 0.0
C1463 C 0.2975 0.88105 0.65301 0.0
C1464 C 0.31238 0.89946 0.59237 0.0
C1465 C 0.32707 0.89833 0.62012 0.0
C1466 C 0.32621 0.89047 0.66692 0.0
C1467 C 0.31149 0.88186 0.68323 0.0
H1468 H 0.31172 0.12458 0.79157 0.0
H1469 H 0.29183 0.10392 0.92676 0.0
H1470 H 0.33944 0.11297 0.81437 0.0
H1471 H 0.31959 0.09202 0.94957 0.0
H1472 H 0.37362 0.06732 0.96047 0.0
H1473 H 0.34569 0.0699 0.92497 0.0
H1474 H 0.35578 0.12924 0.88655 0.0
H1475 H 0.38342 0.12688 0.92357 0.0
C1476 C 0.31319 0.11672 0.82518 0.0
C1477 C 0.29982 0.11506 0.85758 0.0
C1478 C 0.32902 0.11028 0.83838 0.0
C1479 C 0.33161 0.10192 0.88394 0.0
C1480 C 0.31785 0.0984 0.9142 0.0
C1481 C 0.30202 0.10509 0.90118 0.0
C1482 C 0.3698 0.08092 0.94462 0.0
C1483 C 0.38058 0.09696 0.94484 0.0
C1484 C 0.35392 0.08232 0.92409 0.0
C1485 C 0.34873 0.09967 0.90268 0.0
C1486 C 0.35965 0.11558 0.90206 0.0
C1487 C 0.37541 0.11426 0.92322 0.0
H1488 H 0.81653 0.87895 0.78428 0.0
H1489 H 0.79116 0.88699 0.92001 0.0
H1490 H 0.84139 0.89454 0.8171 0.0
H1491 H 0.81579 0.90317 0.95288 0.0
H1492 H 0.86872 0.88757 0.01023 0.0
H1493 H 0.84099 0.88552 0.97462 0.0
H1494 H 0.8574 0.92078 0.85468 0.0
H1495 H 0.88536 0.92257 0.89072 0.0
C1496 C 0.81606 0.88499 0.82037 0.0
C1497 C 0.80218 0.88175 0.84998 0.0
C1498 C 0.83027 0.8939 0.83926 0.0
C1499 C 0.83068 0.89962 0.88801 0.0
C1500 C 0.81595 0.89849 0.91555 0.0
C1501 C 0.80182 0.88945 0.89673 0.0
C1502 C 0.86628 0.89507 0.97661 0.0
C1503 C 0.87903 0.90515 0.95299 0.0
C1504 C 0.85038 0.89411 0.9564 0.0
C1505 C 0.84693 0.9032 0.91202 0.0
C1506 C 0.85969 0.91363 0.88884 0.0
C1507 C 0.87564 0.91458 0.90922 0.0
H1508 H 0.80849 0.11182 0.72038 0.0
H1509 H 0.78883 0.09675 0.58038 0.0
H1510 H 0.8354 0.09784 0.69833 0.0
H1511 H 0.81585 0.08248 0.55835 0.0
H1512 H 0.87056 0.0543 0.55553 0.0
H1513 H 0.84222 0.05696 0.58872 0.0
H1514 H 0.85129 0.11695 0.62219 0.0
H1515 H 0.87916 0.11463 0.58687 0.0
C1516 C 0.80969 0.10456 0.68587 0.0
C1517 C 0.79676 0.1054 0.65183 0.0
C1518 C 0.82509 0.09672 0.67318 0.0
C1519 C 0.82764 0.08941 0.62654 0.0
C1520 C 0.81408 0.08803 0.59459 0.0
C1521 C 0.79867 0.09609 0.60717 0.0
C1522 C 0.86643 0.06806 0.5698 0.0
C1523 C 0.87702 0.08429 0.56874 0.0
C1524 C 0.85032 0.0695 0.58898 0.0
C1525 C 0.8448 0.08706 0.60842 0.0
C1526 C 0.85547 0.10315 0.60816 0.0
C1527 C 0.87139 0.10182 0.58815 0.0
H1528 H 0.62672 0.10375 0.50057 0.0
H1529 H 0.61157 0.07288 0.37265 0.0
H1530 H 0.65452 0.10824 0.46664 0.0
H1531 H 0.6396 0.07722 0.33819 0.0
H1532 H 0.68108 0.12156 0.28077 0.0
H1533 H 0.65567 0.10543 0.30833 0.0
H1534 H 0.68005 0.09104 0.44284 0.0
H1535 H 0.70528 0.10764 0.41527 0.0
C1536 C 0.62949 0.09775 0.46533 0.0
C1537 C 0.61716 0.08802 0.43905 0.0
C1538 C 0.64543 0.10011 0.44605 0.0
C1539 C 0.64933 0.09281 0.39998 0.0
C1540 C 0.63695 0.08295 0.37377 0.0
C1541 C 0.62096 0.08055 0.39325 0.0
C1542 C 0.68115 0.11417 0.31528 0.0
C1543 C 0.69492 0.11576 0.34615 0.0
C1544 C 0.66663 0.10497 0.33116 0.0
C1545 C 0.66577 0.09737 0.3782 0.0
C1546 C 0.68028 0.09713 0.4068 0.0
C1547 C 0.69474 0.10639 0.39095 0.0
H1548 H 0.67864 0.87849 0.22209 0.0
H1549 H 0.70145 0.89516 0.08742 0.0
H1550 H 0.65196 0.89159 0.19475 0.0
H1551 H 0.67491 0.9088 0.06016 0.0
H1552 H 0.62357 0.88909 0.0016 0.0
H1553 H 0.65138 0.88777 0.037 0.0
H1554 H 0.63322 0.91754 0.16382 0.0
H1555 H 0.60519 0.91879 0.12778 0.0
C1556 C 0.67809 0.88594 0.1877 0.0
C1557 C 0.69187 0.88582 0.15656 0.0
C1558 C 0.66283 0.89338 0.17192 0.0
C1559 C 0.66129 0.90074 0.12482 0.0
C1560 C 0.6757 0.9028 0.09623 0.0
C1561 C 0.6909 0.89526 0.11193 0.0
C1562 C 0.62559 0.8954 0.03695 0.0
C1563 C 0.6124 0.90402 0.06212 0.0
C1564 C 0.64151 0.89489 0.05699 0.0
C1565 C 0.64455 0.90293 0.1028 0.0
C1566 C 0.63124 0.91135 0.12835 0.0
C1567 C 0.61526 0.91194 0.10803 0.0
H1568 H 0.70606 0.6044 0.59721 0.0
H1569 H 0.68145 0.62314 0.72741 0.0
H1570 H 0.68073 0.58737 0.57228 0.0
H1571 H 0.65597 0.6065 0.7024 0.0
H1572 H 0.6114 0.57353 0.63835 0.0
H1573 H 0.63923 0.57739 0.67477 0.0
H1574 H 0.65603 0.60666 0.54571 0.0
H1575 H 0.62843 0.603 0.51022 0.0
C1576 C 0.69544 0.60404 0.62145 0.0
C1577 C 0.69549 0.61498 0.66397 0.0
C1578 C 0.68093 0.59451 0.60709 0.0
C1579 C 0.66629 0.59605 0.63488 0.0
C1580 C 0.66705 0.60505 0.68031 0.0
C1581 C 0.68161 0.61454 0.6947 0.0
C1582 C 0.62113 0.58081 0.61816 0.0
C1583 C 0.61792 0.58801 0.57167 0.0
C1584 C 0.637 0.58286 0.63869 0.0
C1585 C 0.64987 0.59195 0.61265 0.0
C1586 C 0.64653 0.59908 0.56611 0.0
C1587 C 0.63071 0.5972 0.54597 0.0
H1588 H 0.70239 0.39296 0.9318 0.0
H1589 H 0.68149 0.37781 0.79332 0.0
H1590 H 0.67525 0.40613 0.95687 0.0
H1591 H 0.65454 0.39084 0.81813 0.0
H1592 H 0.60971 0.37696 0.92311 0.0
H1593 H 0.63744 0.37354 0.88754 0.0
H1594 H 0.65021 0.4311 0.935 0.0
H1595 H 0.6221 0.43485 0.96903 0.0
C1596 C 0.69217 0.3932 0.9062 0.0
C1597 C 0.69387 0.3844 0.86087 0.0
C1598 C 0.6767 0.40067 0.92044 0.0
C1599 C 0.66285 0.39917 0.88954 0.0
C1600 C 0.66504 0.39199 0.84261 0.0
C1601 C 0.68046 0.38471 0.82832 0.0
C1602 C 0.61831 0.38901 0.92506 0.0
C1603 C 0.6138 0.40614 0.94871 0.0
C1604 C 0.63414 0.38707 0.90481 0.0
C1605 C 0.64583 0.40215 0.90836 0.0
C1606 C 0.64137 0.41932 0.93192 0.0
C1607 C 0.62539 0.42138 0.95154 0.0
H1608 H 0.87555 0.4343 0.05258 0.0
H1609 H 0.88631 0.37343 0.06664 0.0
H1610 H 0.84843 0.42932 0.09275 0.0
H1611 H 0.85958 0.36851 0.10694 0.0
H1612 H 0.82122 0.36624 0.21757 0.0
H1613 H 0.84732 0.38069 0.18955 0.0
H1614 H 0.82104 0.40779 0.07144 0.0
H1615 H 0.79487 0.39314 0.09969 0.0
C1616 C 0.87205 0.4199 0.06419 0.0
C1617 C 0.88295 0.40424 0.0573 0.0
C1618 C 0.85667 0.4171 0.08721 0.0
C1619 C 0.8522 0.39864 0.1038 0.0
C1620 C 0.86299 0.38298 0.09568 0.0
C1621 C 0.8782 0.38575 0.07253 0.0
C1622 C 0.82096 0.376 0.18697 0.0
C1623 C 0.80626 0.37871 0.16061 0.0
C1624 C 0.83583 0.38413 0.17078 0.0
C1625 C 0.83612 0.39505 0.12802 0.0
C1626 C 0.82106 0.39945 0.10456 0.0
C1627 C 0.80615 0.39115 0.12065 0.0
H1628 H 0.88347 0.56807 0.38667 0.0
H1629 H 0.86819 0.60612 0.50183 0.0
H1630 H 0.85497 0.56874 0.35365 0.0
H1631 H 0.8399 0.60678 0.46953 0.0
H1632 H 0.78914 0.60083 0.42543 0.0
H1633 H 0.81482 0.58565 0.45472 0.0
H1634 H 0.83792 0.59547 0.31585 0.0
H1635 H 0.81233 0.61055 0.28699 0.0
C1636 C 0.87396 0.57655 0.40473 0.0
C1637 C 0.87783 0.58709 0.44652 0.0
C1638 C 0.85772 0.57678 0.38625 0.0
C1639 C 0.84517 0.58747 0.40964 0.0
C1640 C 0.84917 0.59793 0.45157 0.0
C1641 C 0.86536 0.59779 0.46971 0.0
C1642 C 0.7995 0.5989 0.40073 0.0
C1643 C 0.79904 0.60711 0.35453 0.0
C1644 C 0.81418 0.59035 0.41744 0.0
C1645 C 0.82846 0.58992 0.38789 0.0
C1646 C 0.82713 0.59568 0.33943 0.0
C1647 C 0.81248 0.60429 0.32286 0.0
H1648 H 0.28913 0.39484 0.41486 0.0
H1649 H 0.31441 0.37808 0.28401 0.0
H1650 H 0.31455 0.41078 0.44341 0.0
H1651 H 0.33998 0.39331 0.31271 0.0
H1652 H 0.38533 0.42077 0.379 0.0
H1653 H 0.35743 0.41968 0.34247 0.0
H1654 H 0.33842 0.39215 0.47153 0.0
H1655 H 0.36611 0.39355 0.5076 0.0
C1656 C 0.29999 0.39528 0.39156 0.0
C1657 C 0.30011 0.3852 0.34778 0.0
C1658 C 0.31453 0.4042 0.4079 0.0
C1659 C 0.32936 0.40277 0.38089 0.0
C1660 C 0.32878 0.39466 0.33437 0.0
C1661 C 0.31419 0.38592 0.3179 0.0
C1662 C 0.37507 0.41455 0.39923 0.0
C1663 C 0.37768 0.40708 0.4457 0.0
C1664 C 0.35916 0.41406 0.37863 0.0
C1665 C 0.34569 0.40607 0.40435 0.0
C1666 C 0.34841 0.39889 0.45124 0.0
C1667 C 0.36426 0.3994 0.47168 0.0
H1668 H 0.36915 0.61318 0.99278 0.0
H1669 H 0.38385 0.57617 0.11065 0.0
H1670 H 0.34053 0.61358 0.02306 0.0
H1671 H 0.3551 0.57665 0.14166 0.0
H1672 H 0.30953 0.61422 0.20416 0.0
H1673 H 0.33661 0.60267 0.17681 0.0
H1674 H 0.31591 0.59112 0.03573 0.0
H1675 H 0.28857 0.60239 0.06375 0.0
C1676 C 0.36616 0.60508 0.02516 0.0
C1677 C 0.37855 0.59461 0.04945 0.0
C1678 C 0.34979 0.60511 0.04217 0.0
C1679 C 0.34554 0.59481 0.08416 0.0
C1680 C 0.35804 0.58458 0.10901 0.0
C1681 C 0.37444 0.58444 0.09164 0.0
C1682 C 0.31058 0.60836 0.168 0.0
C1683 C 0.29712 0.60948 0.13567 0.0
C1684 C 0.32611 0.60183 0.15227 0.0
C1685 C 0.32843 0.59646 0.10386 0.0
C1686 C 0.3145 0.59558 0.07301 0.0
C1687 C 0.29889 0.60196 0.08896 0.0
H1688 H 0.12483 0.61622 0.00803 0.0
H1689 H 0.10981 0.57827 0.89242 0.0
H1690 H 0.15299 0.61765 0.97479 0.0
H1691 H 0.13813 0.57971 0.85849 0.0
H1692 H 0.181 0.62001 0.78943 0.0
H1693 H 0.15505 0.60604 0.81997 0.0
H1694 H 0.17815 0.5976 0.95942 0.0
H1695 H 0.20395 0.61199 0.92874 0.0
C1696 C 0.12768 0.60809 0.97561 0.0
C1697 C 0.11529 0.59726 0.95248 0.0
C1698 C 0.1438 0.6087 0.95685 0.0
C1699 C 0.14782 0.59854 0.9144 0.0
C1700 C 0.13538 0.58762 0.89129 0.0
C1701 C 0.11922 0.58692 0.91038 0.0
C1702 C 0.18067 0.61435 0.82591 0.0
C1703 C 0.19421 0.61714 0.85711 0.0
C1704 C 0.16585 0.60638 0.84345 0.0
C1705 C 0.16449 0.60119 0.89239 0.0
C1706 C 0.17878 0.60187 0.92181 0.0
C1707 C 0.19355 0.6099 0.90429 0.0
H1708 H 0.12595 0.43581 0.5323 0.0
H1709 H 0.11533 0.37694 0.57419 0.0
H1710 H 0.1537 0.43332 0.56948 0.0
H1711 H 0.14259 0.3748 0.61299 0.0
H1712 H 0.18315 0.37941 0.71443 0.0
H1713 H 0.15711 0.39402 0.68695 0.0
H1714 H 0.18015 0.40818 0.55055 0.0
H1715 H 0.20633 0.39351 0.57832 0.0
C1716 C 0.12957 0.42236 0.54932 0.0
C1717 C 0.11856 0.40653 0.55049 0.0
C1718 C 0.14531 0.42105 0.5709 0.0
C1719 C 0.15002 0.40403 0.59474 0.0
C1720 C 0.13901 0.38824 0.59576 0.0
C1721 C 0.12348 0.38944 0.57355 0.0
C1722 C 0.18288 0.38657 0.67961 0.0
C1723 C 0.19653 0.38529 0.64814 0.0
C1724 C 0.168 0.39478 0.66381 0.0
C1725 C 0.16666 0.40182 0.61646 0.0
C1726 C 0.18096 0.40282 0.58724 0.0
C1727 C 0.19588 0.3945 0.60306 0.0
H1728 H 0.23155 0.23054 0.01285 0.0
H1729 H 0.18137 0.21344 0.976 0.0
H1730 H 0.23237 0.25182 0.94254 0.0
H1731 H 0.18211 0.23499 0.90546 0.0
H1732 H 0.20123 0.26553 0.75912 0.0
H1733 H 0.19884 0.24103 0.82302 0.0
H1734 H 0.2151 0.28297 0.92827 0.0
H1735 H 0.21729 0.30734 0.86545 0.0
C1736 C 0.2209 0.23087 0.98882 0.0
C1737 C 0.20652 0.2201 0.99929 0.0
C1738 C 0.22126 0.24326 0.949 0.0
C1739 C 0.20725 0.24513 0.9188 0.0
C1740 C 0.1931 0.23374 0.92804 0.0
C1741 C 0.19267 0.22149 0.96834 0.0
C1742 C 0.20389 0.26963 0.79608 0.0
C1743 C 0.20951 0.2884 0.80709 0.0
C1744 C 0.20262 0.25558 0.83252 0.0
C1745 C 0.2071 0.26005 0.88033 0.0
C1746 C 0.21191 0.27902 0.89154 0.0
C1747 C 0.21303 0.29302 0.8555 0.0
H1748 H 0.95037 0.86408 0.15619 0.0
H1749 H 0.98859 0.89448 0.07733 0.0
H1750 H 0.97067 0.85569 0.21865 0.0
H1751 H 0.00855 0.8878 0.14109 0.0
H1752 H 0.04384 0.87196 0.25928 0.0
H1753 H 0.02576 0.86914 0.18832 0.0
H1754 H 0.98242 0.87231 0.28156 0.0
H1755 H 0.00061 0.87396 0.35161 0.0
C1756 C 0.96322 0.86865 0.15203 0.0
C1757 C 0.96803 0.87977 0.11218 0.0
C1758 C 0.97483 0.86414 0.18803 0.0
C1759 C 0.99126 0.87146 0.18585 0.0
C1760 C 0.99618 0.88164 0.14418 0.0
C1761 C 0.98472 0.88555 0.1075 0.0
C1762 C 0.03042 0.87174 0.26409 0.0
C1763 C 0.02348 0.87319 0.31034 0.0
C1764 C 0.02003 0.87025 0.22361 0.0
C1765 C 0.00251 0.87051 0.22879 0.0
C1766 C 0.99575 0.87159 0.27572 0.0
C1767 C 0.00614 0.87279 0.31599 0.0
H1768 H 0.26183 0.75778 0.50736 0.0
H1769 H 0.31086 0.7792 0.47149 0.0
H1770 H 0.26336 0.73505 0.44014 0.0
H1771 H 0.31241 0.75631 0.40375 0.0
H1772 H 0.29428 0.72273 0.25819 0.0
H1773 H 0.29732 0.74727 0.32162 0.0
H1774 H 0.28241 0.7054 0.4287 0.0
H1775 H 0.28005 0.68086 0.36669 0.0
C1776 C 0.27274 0.75801 0.48428 0.0
C1777 C 0.28614 0.77043 0.49425 0.0
C1778 C 0.27374 0.74477 0.44625 0.0
C1779 C 0.28813 0.74372 0.41717 0.0
C1780 C 0.30121 0.75678 0.42564 0.0
C1781 C 0.30032 0.76984 0.46429 0.0
C1782 C 0.2922 0.7186 0.29544 0.0
C1783 C 0.28667 0.69984 0.30704 0.0
C1784 C 0.29384 0.73269 0.3317 0.0
C1785 C 0.28953 0.72837 0.37979 0.0
C1786 C 0.28536 0.70928 0.39174 0.0
C1787 C 0.28413 0.69516 0.35601 0.0
H1788 H 0.45969 0.10854 0.76731 0.0
H1789 H 0.49846 0.13635 0.85002 0.0
H1790 H 0.47835 0.10719 0.697 0.0
H1791 H 0.51705 0.13513 0.78007 0.0
H1792 H 0.54941 0.09742 0.67552 0.0
H1793 H 0.53045 0.10619 0.74045 0.0
H1794 H 0.49508 0.12804 0.63629 0.0
H1795 H 0.5142 0.11923 0.57064 0.0
C1796 C 0.47218 0.11443 0.77023 0.0
C1797 C 0.47783 0.12217 0.81412 0.0
C1798 C 0.48276 0.11388 0.72998 0.0
C1799 C 0.49919 0.12093 0.73326 0.0
C1800 C 0.50451 0.12944 0.77667 0.0
C1801 C 0.49389 0.13018 0.81659 0.0
C1802 C 0.53777 0.1045 0.66637 0.0
C1803 C 0.53333 0.10764 0.6179 0.0
C1804 C 0.52691 0.10955 0.70363 0.0
C1805 C 0.51127 0.11773 0.6934 0.0
C1806 C 0.50703 0.12163 0.6451 0.0
C1807 C 0.51805 0.11677 0.60764 0.0
H1808 H 0.24084 0.69444 0.64379 0.0
H1809 H 0.20474 0.72478 0.73119 0.0
H1810 H 0.23682 0.71738 0.57914 0.0
H1811 H 0.19958 0.74716 0.66454 0.0
H1812 H 0.20411 0.79457 0.54982 0.0
H1813 H 0.20847 0.77274 0.6181 0.0
H1814 H 0.21984 0.72644 0.51808 0.0
H1815 H 0.21651 0.74873 0.45088 0.0
C1816 C 0.23168 0.70579 0.64874 0.0
C1817 C 0.22294 0.70759 0.69251 0.0
C1818 C 0.22927 0.71898 0.6113 0.0
C1819 C 0.21759 0.73409 0.61561 0.0
C1820 C 0.20879 0.73589 0.65958 0.0
C1821 C 0.21158 0.72292 0.69777 0.0
C1822 C 0.20758 0.77969 0.54289 0.0
C1823 C 0.21008 0.77327 0.4954 0.0
C1824 C 0.21 0.76709 0.58194 0.0
C1825 C 0.21469 0.74768 0.57421 0.0
C1826 C 0.21676 0.74132 0.52614 0.0
C1827 C 0.21467 0.75401 0.48734 0.0
H1828 H 0.45376 0.88624 0.7363 0.0
H1829 H 0.4913 0.8576 0.65051 0.0
H1830 H 0.47275 0.88621 0.80582 0.0
H1831 H 0.51012 0.8572 0.71983 0.0
H1832 H 0.54433 0.89305 0.82239 0.0
H1833 H 0.52476 0.8848 0.75881 0.0
H1834 H 0.48916 0.86542 0.86544 0.0
H1835 H 0.50885 0.87386 0.92982 0.0
C1836 C 0.46604 0.87986 0.73253 0.0
C1837 C 0.47131 0.8724 0.68792 0.0
C1838 C 0.4768 0.87958 0.77237 0.0
C1839 C 0.49298 0.87188 0.76802 0.0
C1840 C 0.4978 0.86343 0.72404 0.0
C1841 C 0.48703 0.8636 0.68447 0.0
C1842 C 0.5325 0.88662 0.83242 0.0
C1843 C 0.52815 0.88416 0.88121 0.0
C1844 C 0.52128 0.88183 0.79589 0.0
C1845 C 0.50541 0.87452 0.80716 0.0
C1846 C 0.50128 0.87117 0.85581 0.0
C1847 C 0.51262 0.87582 0.89256 0.0
H1848 H 0.30616 0.24756 0.97065 0.0
H1849 H 0.27466 0.20583 0.04204 0.0
H1850 H 0.30556 0.26794 0.04246 0.0
H1851 H 0.27354 0.22661 0.11362 0.0
H1852 H 0.28322 0.26498 0.24692 0.0
H1853 H 0.28909 0.24186 0.18173 0.0
H1854 H 0.28361 0.28768 0.0769 0.0
H1855 H 0.2779 0.31045 0.14096 0.0
C1856 C 0.29908 0.24277 0.00177 0.0
C1857 C 0.28991 0.2255 1.00013 0.0
C1858 C 0.29868 0.25446 0.04285 0.0
C1859 C 0.28919 0.2491 0.08345 0.0
C1860 C 0.28084 0.23122 0.08288 0.0
C1861 C 0.28123 0.2195 0.04162 0.0
C1862 C 0.28355 0.2701 0.20996 0.0
C1863 C 0.27999 0.28955 0.19921 0.0
C1864 C 0.28678 0.25685 0.17264 0.0
C1865 C 0.28686 0.26294 0.12408 0.0
C1866 C 0.2839 0.28251 0.11382 0.0
C1867 C 0.28051 0.29559 0.15074 0.0
H1868 H 0.00933 0.08429 0.18149 0.0
H1869 H 0.02616 0.14169 0.21914 0.0
H1870 H 0.99116 0.08401 0.25112 0.0
H1871 H 0.00716 0.14162 0.28875 0.0
H1872 H 0.97952 0.11787 0.43382 0.0
H1873 H 0.00044 0.12295 0.37041 0.0
H1874 H 0.96486 0.10425 0.2632 0.0
H1875 H 0.94407 0.09919 0.32583 0.0
C1876 C 0.00965 0.09662 0.20534 0.0
C1877 C 0.01948 0.1129 0.19494 0.0
C1878 C -0.00109 0.09661 0.24488 0.0
C1879 C -0.00248 0.11294 0.27468 0.0
C1880 C 0.00796 0.12887 0.26615 0.0
C1881 C 0.01878 0.12889 0.22635 0.0
C1882 C 0.976 0.11546 0.39653 0.0
C1883 C 0.96019 0.10785 0.38489 0.0
C1884 C 0.98802 0.11826 0.36036 0.0
C1885 C 0.98436 0.11345 0.31223 0.0
C1886 C 0.96811 0.10758 0.30025 0.0
C1887 C 0.95616 0.10485 0.33611 0.0
H1888 H 0.77708 0.72807 0.23433 0.0
H1889 H 0.80409 0.68546 0.15185 0.0
H1890 H 0.77909 0.75079 0.16728 0.0
H1891 H 0.8073 0.7085 0.08593 0.0
H1892 H 0.79034 0.74099 0.95413 0.0
H1893 H 0.79063 0.72061 0.02548 0.0
H1894 H 0.79386 0.7715 0.11591 0.0
H1895 H 0.79276 0.79189 0.04363 0.0
C1896 C 0.78411 0.7239 0.20254 0.0
C1897 C 0.79056 0.70508 0.19828 0.0
C1898 C 0.78523 0.73691 0.1639 0.0
C1899 C 0.79312 0.73148 0.12047 0.0
C1900 C 0.80064 0.71307 0.11798 0.0
C1901 C 0.79911 0.69992 0.15606 0.0
C1902 C 0.79107 0.74778 0.98935 0.0
C1903 C 0.79142 0.76796 0.99352 0.0
C1904 C 0.79143 0.7361 0.03042 0.0
C1905 C 0.79258 0.74427 0.0769 0.0
C1906 C 0.79284 0.76461 0.08095 0.0
C1907 C 0.7922 0.77633 0.03962 0.0
H1908 H 0.04428 0.11807 0.82523 0.0
H1909 H 0.0056 0.1178 0.93389 0.0
H1910 H 0.02382 0.12684 0.76416 0.0
H1911 H 0.985 0.12658 0.87241 0.0
H1912 H 0.95606 0.10382 0.73336 0.0
H1913 H 0.97406 0.1062 0.80445 0.0
H1914 H 0.00307 0.15052 0.73345 0.0
H1915 H 0.9852 0.1478 0.66208 0.0
C1916 C 0.03147 0.12045 0.83629 0.0
C1917 C 0.02653 0.11708 0.88422 0.0
C1918 C 0.01974 0.12555 0.80132 0.0
C1919 C 0.00276 0.12718 0.81338 0.0
C1920 C -0.00202 0.12522 0.86202 0.0
C1921 C 0.0098 0.12037 0.89726 0.0
C1922 C 0.96625 0.11411 0.73322 0.0
C1923 C 0.96965 0.12515 0.69187 0.0
C1924 C 0.9764 0.1157 0.7741 0.0
C1925 C 0.99011 0.1284 0.7743 0.0
C1926 C 0.99274 0.14043 0.73407 0.0
C1927 C 0.98252 0.1389 0.69333 0.0
H1928 H 0.68276 0.25175 0.45283 0.0
H1929 H 0.71066 0.2118 0.54148 0.0
H1930 H 0.67961 0.27326 0.52174 0.0
H1931 H 0.70819 0.23379 0.60925 0.0
H1932 H 0.6965 0.27115 0.73477 0.0
H1933 H 0.6916 0.24839 0.66903 0.0
H1934 H 0.69655 0.29493 0.56578 0.0
H1935 H 0.70089 0.31763 0.63136 0.0
C1936 C 0.68832 0.24754 0.4869 0.0
C1937 C 0.69752 0.23026 0.49078 0.0
C1938 C 0.68659 0.25999 0.52643 0.0
C1939 C 0.69396 0.25549 0.5711 0.0
C1940 C 0.70246 0.23779 0.57552 0.0
C1941 C 0.70418 0.2253 0.53605 0.0
C1942 C 0.69598 0.27662 0.69814 0.0
C1943 C 0.69915 0.29623 0.68838 0.0
C1944 C 0.69341 0.2635 0.66029 0.0
C1945 C 0.69394 0.26969 0.61181 0.0
C1946 C 0.69593 0.28955 0.60246 0.0
C1947 C 0.69849 0.30263 0.64021 0.0
H1948 H 0.46827 0.86349 0.41508 0.0
H1949 H 0.46532 0.92028 0.35052 0.0
H1950 H 0.48942 0.85422 0.35437 0.0
H1951 H 0.48651 0.91129 0.29207 0.0
H1952 H 0.53628 0.89659 0.22818 0.0
H1953 H 0.51952 0.89935 0.30185 0.0
H1954 H 0.48682 0.85431 0.2504 0.0
H1955 H 0.50318 0.85209 0.17574 0.0
C1956 C 0.47212 0.87392 0.3881 0.0
C1957 C 0.46496 0.89248 0.38697 0.0
C1958 C 0.48421 0.86867 0.35373 0.0
C1959 C 0.48963 0.88217 0.31916 0.0
C1960 C 0.48264 0.90072 0.31872 0.0
C1961 C 0.47035 0.90575 0.35185 0.0
C1962 C 0.52552 0.88729 0.23268 0.0
C1963 C 0.52049 0.87482 0.19546 0.0
C1964 C 0.51613 0.88865 0.27501 0.0
C1965 C 0.50184 0.87716 0.28128 0.0
C1966 C 0.49783 0.86326 0.2463 0.0
C1967 C 0.50711 0.86209 0.2036 0.0
H1968 H 0.77917 0.24402 0.54717 0.0
H1969 H 0.79242 0.19855 0.44818 0.0
H1970 H 0.77492 0.2661 0.47993 0.0
H1971 H 0.78705 0.22012 0.37978 0.0
H1972 H 0.79129 0.26905 0.26814 0.0
H1973 H 0.79586 0.24602 0.33377 0.0
H1974 H 0.75803 0.27508 0.41844 0.0
H1975 H 0.75454 0.29864 0.35484 0.0
C1976 C 0.78094 0.23875 0.51067 0.0
C1977 C 0.78616 0.21971 0.50265 0.0
C1978 C 0.77833 0.25132 0.47184 0.0
C1979 C 0.78047 0.24503 0.42371 0.0
C1980 C 0.78552 0.22573 0.41598 0.0
C1981 C 0.78849 0.21327 0.45509 0.0
C1982 C 0.78413 0.27057 0.30109 0.0
C1983 C 0.7728 0.28593 0.30651 0.0
C1984 C 0.78659 0.25722 0.33872 0.0
C1985 C 0.77753 0.25868 0.38233 0.0
C1986 C 0.76578 0.27372 0.38661 0.0
C1987 C 0.76367 0.28727 0.34974 0.0
H1988 H 0.51289 0.14769 0.32347 0.0
H1989 H 0.5412 0.09902 0.27056 0.0
H1990 H 0.49624 0.14761 0.2492 0.0
H1991 H 0.5241 0.09853 0.1972 0.0
H1992 H 0.4638 0.08722 0.16975 0.0
H1993 H 0.48613 0.09522 0.22529 0.0
H1994 H 0.50194 0.14172 0.13228 0.0
H1995 H 0.47954 0.13338 0.07462 0.0
C1996 C 0.5158 0.13729 0.29547 0.0
C1997 C 0.52776 0.12278 0.30348 0.0
C1998 C 0.50638 0.13737 0.25296 0.0
C1999 C 0.50893 0.12303 0.21796 0.0
C2000 C 0.522 0.10974 0.22383 0.0
C2001 C 0.53152 0.1098 0.26606 0.0
C2002 C 0.47182 0.09934 0.16102 0.0
C2003 C 0.46974 0.10983 0.11791 0.0
C2004 C 0.4847 0.10375 0.1927 0.0
C2005 C 0.49568 0.11893 0.18264 0.0
C2006 C 0.49357 0.12986 0.14035 0.0
C2007 C 0.48076 0.12516 0.10773 0.0
H2008 H 0.74309 0.70133 0.84373 0.0
H2009 H 0.70353 0.72835 0.76195 0.0
H2010 H 0.73837 0.7236 0.9096 0.0
H2011 H 0.69844 0.75063 0.82942 0.0
H2012 H 0.70582 0.79828 0.94792 0.0
H2013 H 0.71015 0.77765 0.87663 0.0
H2014 H 0.71782 0.72849 0.97047 0.0
H2015 H 0.71345 0.74904 0.04072 0.0
C2016 C 0.7332 0.7119 0.83998 0.0
C2017 C 0.72348 0.71279 0.79776 0.0
C2018 C 0.73044 0.72467 0.87803 0.0
C2019 C 0.7178 0.7387 0.87535 0.0
C2020 C 0.70829 0.74 0.83266 0.0
C2021 C 0.71113 0.72718 0.79414 0.0
C2022 C 0.70853 0.78306 0.95286 0.0
C2023 C 0.70941 0.77516 0.99947 0.0
C2024 C 0.71091 0.77124 0.91222 0.0
C2025 C 0.71453 0.75143 0.91775 0.0
C2026 C 0.71535 0.74371 0.96473 0.0
C2027 C 0.71276 0.75542 0.00502 0.0
H2028 H 0.01931 0.92619 0.61587 0.0
H2029 H 0.02892 0.86512 0.60099 0.0
H2030 H -0.00142 0.91967 0.67774 0.0
H2031 H 0.00833 0.85843 0.66525 0.0
H2032 H 0.96105 0.85776 0.76899 0.0
H2033 H 0.97773 0.86131 0.69465 0.0
H2034 H 0.00455 0.90864 0.76042 0.0
H2035 H 0.98823 0.90507 0.83331 0.0
C2036 C 0.01687 0.91131 0.62594 0.0
C2037 C 0.02589 0.89615 0.60486 0.0
C2038 C 0.00503 0.90757 0.66129 0.0
C2039 C 0.00217 0.88859 0.67715 0.0
C2040 C 0.01036 0.87321 0.65372 0.0
C2041 C 0.02216 0.87699 0.61737 0.0
C2042 C 0.97047 0.86896 0.76702 0.0
C2043 C 0.97294 0.88165 0.80602 0.0
C2044 C 0.98001 0.87093 0.72478 0.0
C2045 C 0.99215 0.88554 0.72142 0.0
C2046 C 0.9949 0.89768 0.76127 0.0
C2047 C 0.98545 0.89573 0.803 0.0
H2048 H 0.72342 0.80934 0.36519 0.0
H2049 H 0.69968 0.77238 0.25975 0.0
H2050 H 0.71609 0.78703 0.42855 0.0
H2051 H 0.6917 0.75 0.3246 0.0
H2052 H 0.70269 0.7049 0.44922 0.0
H2053 H 0.70399 0.72693 0.38014 0.0
H2054 H 0.69345 0.77504 0.47466 0.0
H2055 H 0.69232 0.7531 0.54333 0.0
C2056 C 0.71634 0.79658 0.35548 0.0
C2057 C 0.71209 0.79277 0.30714 0.0
C2058 C 0.71199 0.78378 0.39218 0.0
C2059 C 0.70309 0.76677 0.38203 0.0
C2060 C 0.69857 0.76297 0.33375 0.0
C2061 C 0.70307 0.77583 0.29662 0.0
C2062 C 0.70085 0.72022 0.45512 0.0
C2063 C 0.69805 0.72742 0.50184 0.0
C2064 C 0.70143 0.73283 0.41549 0.0
C2065 C 0.6995 0.75288 0.42198 0.0
C2066 C 0.69556 0.75978 0.46843 0.0
C2067 C 0.6948 0.7472 0.5078 0.0
H2068 H 0.53443 0.4047 0.78238 0.0
H2069 H 0.50968 0.35162 0.82218 0.0
H2070 H 0.51739 0.40658 0.70926 0.0
H2071 H 0.49292 0.35325 0.74802 0.0
H2072 H 0.4739 0.36649 0.58285 0.0
H2073 H 0.49526 0.35844 0.64381 0.0
H2074 H 0.48307 0.41048 0.72197 0.0
H2075 H 0.46178 0.41827 0.66321 0.0
C2076 C 0.52548 0.39333 0.77511 0.0
C2077 C 0.52277 0.3785 0.80878 0.0
C2078 C 0.51593 0.39427 0.7331 0.0
C2079 C 0.50377 0.38016 0.7236 0.0
C2080 C 0.50226 0.36425 0.7547 0.0
C2081 C 0.51175 0.3634 0.7971 0.0
C2082 C 0.47567 0.37603 0.61344 0.0
C2083 C 0.46604 0.39294 0.61828 0.0
C2084 C 0.4879 0.37146 0.648 0.0
C2085 C 0.49086 0.38404 0.6869 0.0
C2086 C 0.48113 0.40072 0.69188 0.0
C2087 C 0.4688 0.40503 0.65834 0.0
H2088 H 0.77491 0.28349 0.96128 0.0
H2089 H 0.81418 0.25059 0.03042 0.0
H2090 H 0.77478 0.2606 0.89502 0.0
H2091 H 0.81486 0.22884 0.96105 0.0
H2092 H 0.80689 0.21581 0.77258 0.0
H2093 H 0.81176 0.24002 0.83649 0.0
H2094 H 0.77421 0.21291 0.92488 0.0
H2095 H 0.76945 0.18879 0.86283 0.0
C2096 C 0.78346 0.27152 0.96306 0.0
C2097 C 0.79394 0.26853 0.00327 0.0
C2098 C 0.78372 0.25874 0.92389 0.0
C2099 C 0.79496 0.24324 0.92278 0.0
C2100 C 0.80618 0.24085 0.96102 0.0
C2101 C 0.80569 0.25334 0.0008 0.0
C2102 C 0.7999 0.21484 0.80596 0.0
C2103 C 0.78786 0.20023 0.81244 0.0
C2104 C 0.80265 0.22869 0.8423 0.0
C2105 C 0.7933 0.22819 0.88525 0.0
C2106 C 0.78159 0.21347 0.8921 0.0
C2107 C 0.77897 0.19961 0.8564 0.0
H2108 H 0.98627 0.64294 0.3287 0.0
H2109 H 0.95151 0.60133 0.27094 0.0
H2110 H 0.00185 0.64251 0.2526 0.0
H2111 H 0.96709 0.60078 0.19491 0.0
H2112 H 0.0174 0.57879 0.12873 0.0
H2113 H 0.99586 0.58633 0.18739 0.0
H2114 H 0.00246 0.64729 0.1593 0.0
H2115 H 0.02415 0.6395 0.09885 0.0
C2116 C 0.9818 0.63401 0.29929 0.0
C2117 C 0.96814 0.62158 0.30605 0.0
C2118 C 0.99062 0.63388 0.25568 0.0
C2119 C 0.98582 0.62138 0.2182 0.0
C2120 C 0.97122 0.6103 0.22357 0.0
C2121 C 0.96242 0.61046 0.2671 0.0
C2122 C 0.01413 0.59381 0.1347 0.0
C2123 C 0.02251 0.6086 0.10999 0.0
C2124 C 0.00167 0.59812 0.16787 0.0
C2125 C -0.00258 0.61739 0.17776 0.0
C2126 C 0.00552 0.63231 0.15219 0.0
C2127 C 0.01786 0.62791 0.11783 0.0
H2128 H 0.74225 0.19859 0.1478 0.0
H2129 H 0.70162 0.2226 0.23114 0.0
H2130 H 0.73562 0.22041 0.08133 0.0
H2131 H 0.69477 0.24424 0.16339 0.0
H2132 H 0.68213 0.25679 0.98998 0.0
H2133 H 0.6863 0.23642 0.06176 0.0
H2134 H 0.73527 0.2608 0.08061 0.0
H2135 H 0.72994 0.28347 0.015 0.0
C2136 C 0.73179 0.20839 0.15178 0.0
C2137 C 0.72236 0.20873 0.19463 0.0
C2138 C 0.72804 0.22088 0.11372 0.0
C2139 C 0.71459 0.23377 0.11716 0.0
C2140 C 0.70508 0.2342 0.15979 0.0
C2141 C 0.70906 0.22193 0.1985 0.0
C2142 C 0.69364 0.25815 0.01021 0.0
C2143 C 0.7062 0.27105 0.995 0.0
C2144 C 0.696 0.24648 0.05116 0.0
C2145 C 0.71112 0.24718 0.07671 0.0
C2146 C 0.72343 0.26028 0.06207 0.0
C2147 C 0.72068 0.27266 0.02313 0.0
H2148 H 0.95584 0.39766 0.22918 0.0
H2149 H 0.98788 0.35117 0.18227 0.0
H2150 H 0.97151 0.39988 0.30488 0.0
H2151 H 0.00337 0.35313 0.2583 0.0
H2152 H 0.02542 0.36205 0.41303 0.0
H2153 H 0.0031 0.35315 0.35563 0.0
H2154 H 0.00238 0.41178 0.30215 0.0
H2155 H 0.02461 0.42038 0.35739 0.0
C2156 C 0.9661 0.38777 0.23544 0.0
C2157 C 0.97121 0.37486 0.19929 0.0
C2158 C 0.9749 0.38886 0.27884 0.0
C2159 C 0.98878 0.37686 0.28691 0.0
C2160 C 0.99269 0.36251 0.25294 0.0
C2161 C 0.98393 0.3615 0.20937 0.0
C2162 C 0.02043 0.3729 0.38881 0.0
C2163 C 0.02697 0.39175 0.38866 0.0
C2164 C 0.00767 0.36788 0.35638 0.0
C2165 C 0.00096 0.38186 0.32495 0.0
C2166 C 0.00716 0.40079 0.32638 0.0
C2167 C 0.02008 0.40562 0.35749 0.0
H2168 H 0.79691 0.70133 0.55551 0.0
H2169 H 0.77387 0.74189 0.45828 0.0
H2170 H 0.7913 0.72295 0.62349 0.0
H2171 H 0.76953 0.76435 0.52427 0.0
H2172 H 0.7518 0.79728 0.6514 0.0
H2173 H 0.75518 0.77316 0.58924 0.0
H2174 H 0.79807 0.75007 0.66498 0.0
H2175 H 0.79335 0.77319 0.73005 0.0
C2176 C 0.79074 0.71501 0.5489 0.0
C2177 C 0.78573 0.72003 0.50207 0.0
C2178 C 0.78767 0.72757 0.58768 0.0
C2179 C 0.77994 0.74567 0.5801 0.0
C2180 C 0.77507 0.75049 0.5326 0.0
C2181 C 0.77771 0.73772 0.49433 0.0
C2182 C 0.76197 0.78705 0.65476 0.0
C2183 C 0.77237 0.78724 0.69555 0.0
C2184 C 0.76406 0.77321 0.61864 0.0
C2185 C 0.77715 0.75963 0.62084 0.0
C2186 C 0.78767 0.75996 0.66176 0.0
C2187 C 0.78513 0.7734 0.699 0.0
H2188 H 0.50214 0.59911 0.66339 0.0
H2189 H 0.53583 0.6415 0.72309 0.0
H2190 H 0.4837 0.60302 0.73237 0.0
H2191 H 0.51711 0.64558 0.79292 0.0
H2192 H 0.48678 0.61853 0.93049 0.0
H2193 H 0.50644 0.62422 0.86426 0.0
H2194 H 0.46519 0.62945 0.76487 0.0
H2195 H 0.44564 0.62343 0.83061 0.0
C2196 C 0.5057 0.60909 0.69168 0.0
C2197 C 0.52054 0.61973 0.68842 0.0
C2198 C 0.495 0.61159 0.73081 0.0
C2199 C 0.49886 0.62481 0.76771 0.0
C2200 C 0.51382 0.63536 0.76487 0.0
C2201 C 0.52448 0.63302 0.7251 0.0
C2202 C 0.48191 0.62172 0.89487 0.0
C2203 C 0.46471 0.62025 0.88542 0.0
C2204 C 0.49317 0.6249 0.85694 0.0
C2205 C 0.48732 0.62675 0.8093 0.0
C2206 C 0.47004 0.6276 0.8011 0.0
C2207 C 0.45884 0.6243 0.83876 0.0
H2208 H 0.31107 0.28 0.52734 0.0
H2209 H 0.26121 0.26187 0.48966 0.0
H2210 H 0.31145 0.2565 0.59361 0.0
H2211 H 0.26149 0.2387 0.5557 0.0
H2212 H 0.2726 0.1848 0.63649 0.0
H2213 H 0.27639 0.20813 0.57212 0.0
H2214 H 0.29774 0.24859 0.67338 0.0
H2215 H 0.29361 0.22523 0.73884 0.0
C2216 C 0.3001 0.27122 0.53372 0.0
C2217 C 0.28602 0.27302 0.50367 0.0
C2218 C 0.30033 0.25777 0.5716 0.0
C2219 C 0.28662 0.24553 0.57949 0.0
C2220 C 0.2724 0.24767 0.55006 0.0
C2221 C 0.27209 0.26127 0.51273 0.0
C2222 C 0.27838 0.19851 0.64525 0.0
C2223 C 0.28253 0.20321 0.69324 0.0
C2224 C 0.28043 0.21197 0.6082 0.0
C2225 C 0.28694 0.2304 0.61782 0.0
C2226 C 0.29259 0.23452 0.66486 0.0
C2227 C 0.29023 0.22113 0.70239 0.0
H2228 H 0.46715 0.64161 0.22533 0.0
H2229 H 0.48699 0.58732 0.17395 0.0
H2230 H 0.48685 0.64078 0.29321 0.0
H2231 H 0.50598 0.58619 0.24184 0.0
H2232 H 0.55174 0.60043 0.32449 0.0
H2233 H 0.53114 0.60585 0.26155 0.0
H2234 H 0.49454 0.62134 0.36923 0.0
H2235 H 0.51527 0.616 0.43281 0.0
C2236 C 0.47543 0.62932 0.22907 0.0
C2237 C 0.47525 0.61436 0.19462 0.0
C2238 C 0.48667 0.62885 0.26788 0.0
C2239 C 0.4981 0.61356 0.2724 0.0
C2240 C 0.49749 0.59833 0.2389 0.0
C2241 C 0.48629 0.59877 0.2004 0.0
C2242 C 0.53943 0.60542 0.33488 0.0
C2243 C 0.53512 0.60752 0.38381 0.0
C2244 C 0.52757 0.60835 0.29878 0.0
C2245 C 0.51111 0.6135 0.31059 0.0
C2246 C 0.50712 0.61725 0.35912 0.0
C2247 C 0.51903 0.61427 0.39548 0.0
H2248 H 0.21508 0.71066 0.04225 0.0
H2249 H 0.19769 0.75672 0.95001 0.0
H2250 H 0.21467 0.73269 0.11115 0.0
H2251 H 0.19637 0.77831 0.0189 0.0
H2252 H 0.2169 0.81817 0.13293 0.0
H2253 H 0.21448 0.79548 0.06759 0.0
H2254 H 0.19896 0.75105 0.16781 0.0
H2255 H 0.20241 0.77385 0.23479 0.0
C2256 C 0.2114 0.72552 0.03655 0.0
C2257 C 0.20695 0.73212 0.99036 0.0
C2258 C 0.21084 0.73806 0.07631 0.0
C2259 C 0.20575 0.75741 0.0708 0.0
C2260 C 0.20077 0.7637 0.02466 0.0
C2261 C 0.20139 0.75125 0.98507 0.0
C2262 C 0.21268 0.80368 0.14142 0.0
C2263 C 0.20978 0.79795 0.18948 0.0
C2264 C 0.21121 0.79058 0.1035 0.0
C2265 C 0.20641 0.77135 0.11199 0.0
C2266 C 0.20286 0.76569 0.15986 0.0
C2267 C 0.20459 0.77883 0.19825 0.0
H2268 H 0.03969 0.35855 0.7299 0.0
H2269 H 0.00236 0.3921 0.65522 0.0
H2270 H 0.0209 0.35554 0.79977 0.0
H2271 H 0.98394 0.38966 0.72438 0.0
H2272 H 0.94798 0.37517 0.83391 0.0
H2273 H 0.96703 0.36713 0.76817 0.0
H2274 H 0.00907 0.37647 0.86308 0.0
H2275 H 0.98992 0.38351 0.92938 0.0
C2276 C 0.02748 0.36526 0.72857 0.0
C2277 C 0.02255 0.37588 0.68778 0.0
C2278 C 0.01677 0.36358 0.76841 0.0
C2279 C 0.00085 0.37219 0.76749 0.0
C2280 C 0.99595 0.3825 0.72609 0.0
C2281 C 0.00663 0.38424 0.68671 0.0
C2282 C 0.96127 0.37479 0.84102 0.0
C2283 C 0.96751 0.38008 0.88639 0.0
C2284 C 0.9722 0.37039 0.80337 0.0
C2285 C 0.98957 0.37172 0.81005 0.0
C2286 C 0.99578 0.37527 0.85672 0.0
C2287 C 0.9848 0.37929 0.89473 0.0
H2288 H 0.24944 0.79727 0.84458 0.0
H2289 H 0.2908 0.7714 0.76833 0.0
H2290 H 0.25357 0.7755 0.9112 0.0
H2291 H 0.29579 0.74997 0.83737 0.0
H2292 H 0.29044 0.70242 0.95257 0.0
H2293 H 0.28721 0.72358 0.8825 0.0
H2294 H 0.26942 0.76909 0.97679 0.0
H2295 H 0.27166 0.74737 0.04553 0.0
C2296 C 0.25971 0.78712 0.84248 0.0
C2297 C 0.26996 0.78629 0.80133 0.0
C2298 C 0.26222 0.77466 0.88124 0.0
C2299 C 0.2753 0.76112 0.88078 0.0
C2300 C 0.28552 0.7601 0.83923 0.0
C2301 C 0.28276 0.77244 0.79966 0.0
C2302 C 0.28572 0.71695 0.95782 0.0
C2303 C 0.28102 0.72326 0.00401 0.0
C2304 C 0.28401 0.72918 0.9178 0.0
C2305 C 0.27785 0.74812 0.92338 0.0
C2306 C 0.27366 0.75446 0.97031 0.0
C2307 C 0.27502 0.7421 0.00998 0.0
H2308 H 0.00528 0.64712 0.8337 0.0
H2309 H 0.03525 0.60256 0.76762 0.0
H2310 H 0.98712 0.64768 0.7628 0.0
H2311 H 0.01687 0.60276 0.69697 0.0
H2312 H 0.98475 0.61332 0.56576 0.0
H2313 H 0.00543 0.62221 0.62685 0.0
H2314 H 0.9668 0.62247 0.73566 0.0
H2315 H 0.94623 0.61351 0.67494 0.0
C2316 C 0.00807 0.6376 0.8037 0.0
C2317 C 0.02128 0.62433 0.80663 0.0
C2318 C -0.00234 0.63788 0.76326 0.0
C2319 C 0.00042 0.62507 0.72471 0.0
C2320 C 0.01442 0.61281 0.72613 0.0
C2321 C 0.02479 0.61248 0.76677 0.0
C2322 C 0.9806 0.61587 0.60246 0.0
C2323 C 0.96386 0.61268 0.61566 0.0
C2324 C 0.99247 0.62076 0.63745 0.0
C2325 C 0.98775 0.6229 0.68604 0.0
C2326 C 0.97081 0.62107 0.69845 0.0
C2327 C 0.95901 0.6159 0.66371 0.0
H2328 H 0.21671 0.28982 0.46218 0.0
H2329 H 0.18436 0.24889 0.53309 0.0
H2330 H 0.21927 0.26793 0.39327 0.0
H2331 H 0.18675 0.22708 0.46382 0.0
H2332 H 0.21524 0.18391 0.36673 0.0
H2333 H 0.20868 0.20677 0.4305 0.0
H2334 H 0.20521 0.25267 0.32517 0.0
H2335 H 0.21197 0.22966 0.26089 0.0
C2336 C 0.21021 0.2761 0.46296 0.0
C2337 C 0.20073 0.27077 0.50345 0.0
C2338 C 0.21153 0.26367 0.42327 0.0
C2339 C 0.20346 0.24563 0.42316 0.0
C2340 C 0.1934 0.2407 0.46301 0.0
C2341 C 0.19195 0.25321 0.50256 0.0
C2342 C 0.21295 0.19884 0.35694 0.0
C2343 C 0.21418 0.20493 0.30858 0.0
C2344 C 0.20905 0.21195 0.3936 0.0
C2345 C 0.20636 0.23158 0.38311 0.0
C2346 C 0.2073 0.23767 0.33461 0.0
C2347 C 0.21108 0.22446 0.2977 0.0
H2348 H 0.5449 0.38797 0.18289 0.0
H2349 H 0.50815 0.37736 0.07181 0.0
H2350 H 0.52486 0.37885 0.24424 0.0
H2351 H 0.48796 0.36781 0.13394 0.0
H2352 H 0.45387 0.38619 0.26748 0.0
H2353 H 0.47263 0.38631 0.19759 0.0
H2354 H 0.50844 0.35258 0.27824 0.0
H2355 H 0.49005 0.35325 0.34836 0.0
C2356 C 0.53266 0.38319 0.17142 0.0
C2357 C 0.52812 0.38351 0.12242 0.0
C2358 C 0.52115 0.37785 0.2067 0.0
C2359 C 0.50478 0.37266 0.19402 0.0
C2360 C 0.50045 0.37192 0.14481 0.0
C2361 C 0.51206 0.37719 0.10925 0.0
C2362 C 0.46581 0.37895 0.27018 0.0
C2363 C 0.47085 0.37041 0.31382 0.0
C2364 C 0.47641 0.37867 0.22994 0.0
C2365 C 0.49217 0.36974 0.23271 0.0
C2366 C 0.49654 0.35991 0.27529 0.0
C2367 C 0.48598 0.36021 0.31536 0.0
H2368 H 0.27724 0.14229 0.40467 0.0
H2369 H 0.22859 0.11925 0.36978 0.0
H2370 H 0.27225 0.13557 0.48989 0.0
H2371 H 0.22359 0.11269 0.4552 0.0
H2372 H 0.21459 0.14538 0.60531 0.0
H2373 H 0.21911 0.13792 0.52033 0.0
H2374 H 0.26616 0.111 0.55558 0.0
H2375 H 0.26166 0.11836 0.64081 0.0
C2376 C 0.26568 0.1353 0.41502 0.0
C2377 C 0.25324 0.13156 0.38056 0.0
C2378 C 0.26285 0.13136 0.46385 0.0
C2379 C 0.24744 0.1238 0.47921 0.0
C2380 C 0.23551 0.11868 0.44436 0.0
C2381 C 0.23844 0.12236 0.39543 0.0
C2382 C 0.22566 0.13736 0.59519 0.0
C2383 C 0.23787 0.13275 0.62973 0.0
C2384 C 0.22822 0.133 0.54647 0.0
C2385 C 0.24309 0.12408 0.53129 0.0
C2386 C 0.25467 0.11806 0.56627 0.0
C2387 C 0.25203 0.12222 0.6151 0.0
H2388 H 0.08313 0.95143 0.69406 0.0
H2389 H 0.09893 0.99688 0.59719 0.0
H2390 H 0.08742 0.97262 0.76241 0.0
H2391 H 0.10395 0.01802 0.66623 0.0
H2392 H 0.07941 0.05536 0.78708 0.0
H2393 H 0.0856 0.03485 0.71839 0.0
H2394 H 0.10455 0.99077 0.81468 0.0
H2395 H 0.0976 0.01109 0.88377 0.0
C2396 C 0.08795 0.96581 0.68742 0.0
C2397 C 0.09036 0.97261 0.64013 0.0
C2398 C 0.09058 0.97797 0.72681 0.0
C2399 C 0.09586 0.99716 0.71991 0.0
C2400 C 0.09953 0.00346 0.67276 0.0
C2401 C 0.09673 0.99132 0.63321 0.0
C2402 C 0.08516 0.04143 0.7936 0.0
C2403 C 0.08766 0.03464 0.84084 0.0
C2404 C 0.08887 0.02969 0.75408 0.0
C2405 C 0.09535 0.01099 0.76094 0.0
C2406 C 0.09918 0.0049 0.80815 0.0
C2407 C 0.09526 0.01656 0.84774 0.0
H2408 H 0.22643 0.87369 0.12332 0.0
H2409 H 0.2795 0.86677 0.1025 0.0
H2410 H 0.22287 0.87949 0.03745 0.0
H2411 H 0.27614 0.87372 0.01673 0.0
H2412 H 0.26059 0.8512 0.86849 0.0
H2413 H 0.2661 0.85496 0.95347 0.0
H2414 H 0.22603 0.89664 0.96422 0.0
H2415 H 0.22001 0.89218 0.8782 0.0
C2416 C 0.23745 0.87408 0.10064 0.0
C2417 C 0.25324 0.86941 0.11958 0.0
C2418 C 0.23541 0.8775 0.05119 0.0
C2419 C 0.24915 0.87665 0.01962 0.0
C2420 C 0.26516 0.87386 0.03957 0.0
C2421 C 0.26715 0.87005 0.08885 0.0
C2422 C 0.25296 0.86131 0.88864 0.0
C2423 C 0.2397 0.87122 0.8664 0.0
C2424 C 0.25629 0.86367 0.93766 0.0
C2425 C 0.24659 0.87618 0.96616 0.0
C2426 C 0.23367 0.8867 0.94362 0.0
C2427 C 0.23025 0.88423 0.89423 0.0
H2428 H 0.39655 0.99737 0.39139 0.0
H2429 H 0.41347 0.94911 0.30504 0.0
H2430 H 0.39363 0.01686 0.3179 0.0
H2431 H 0.41074 0.96863 0.23241 0.0
H2432 H 0.43324 0.02006 0.14495 0.0
H2433 H 0.42957 -0.00119 0.21455 0.0
H2434 H 0.37866 0.01842 0.22992 0.0
H2435 H 0.38249 0.03998 0.15963 0.0
C2436 C 0.39932 0.99081 0.35677 0.0
C2437 C 0.40547 0.9718 0.35407 0.0
C2438 C 0.39756 0.00193 0.31482 0.0
C2439 C 0.40215 0.99424 0.2698 0.0
C2440 C 0.40725 0.97488 0.26684 0.0
C2441 C 0.40878 0.96372 0.30848 0.0
C2442 C 0.42122 0.01962 0.16295 0.0
C2443 C 0.40809 0.03136 0.14723 0.0
C2444 C 0.4191 0.00749 0.20253 0.0
C2445 C 0.40378 0.00688 0.22709 0.0
C2446 C 0.39057 0.0187 0.21143 0.0
C2447 C 0.39272 0.03091 0.17147 0.0
H2448 H 0.77745 0.85452 0.40599 0.0
H2449 H 0.72768 0.87397 0.37073 0.0
H2450 H 0.77192 0.86058 0.49138 0.0
H2451 H 0.72212 0.87975 0.45617 0.0
H2452 H 0.7146 0.84612 0.6055 0.0
H2453 H 0.71917 0.85361 0.52056 0.0
H2454 H 0.76401 0.88486 0.55749 0.0
H2455 H 0.75941 0.87749 0.64281 0.0
C2456 C 0.76551 0.86058 0.41632 0.0
C2457 C 0.75296 0.86353 0.38168 0.0
C2458 C 0.76235 0.86413 0.4652 0.0
C2459 C 0.74651 0.87043 0.48042 0.0
C2460 C 0.73439 0.87476 0.44544 0.0
C2461 C 0.73763 0.87152 0.39648 0.0
C2462 C 0.72517 0.85507 0.59575 0.0
C2463 C 0.73674 0.86099 0.63087 0.0
C2464 C 0.72775 0.85943 0.54705 0.0
C2465 C 0.74204 0.86967 0.5324 0.0
C2466 C 0.75297 0.87681 0.5678 0.0
C2467 C 0.75027 0.87266 0.61666 0.0
H2468 H 0.894 0.0406 0.3327 0.0
H2469 H 0.9188 0.99301 0.40363 0.0
H2470 H 0.88872 0.02017 0.26251 0.0
H2471 H 0.91437 0.97292 0.33302 0.0
H2472 H 0.90422 0.93765 0.20469 0.0
H2473 H 0.89768 0.95581 0.27773 0.0
H2474 H 0.9064 0.00925 0.2006 0.0
H2475 H 0.91218 0.99117 0.12758 0.0
C2476 C 0.89813 0.02569 0.33344 0.0
C2477 C 0.90701 0.01845 0.3732 0.0
C2478 C 0.8952 0.01401 0.29319 0.0
C2479 C 0.90139 0.99498 0.29159 0.0
C2480 C 0.90924 0.98739 0.33294 0.0
C2481 C 0.91189 -0.00103 0.37347 0.0
C2482 C 0.9044 0.9533 0.20323 0.0
C2483 C 0.90901 0.96299 0.16068 0.0
C2484 C 0.90072 0.96371 0.24513 0.0
C2485 C 0.90177 0.98401 0.24542 0.0
C2486 C 0.90528 0.99367 0.20184 0.0
C2487 C 0.90876 0.98327 0.15989 0.0
H2488 H 0.76171 0.11637 0.88017 0.0
H2489 H 0.72314 0.15799 0.91319 0.0
H2490 H 0.76554 0.1103 0.9665 0.0
H2491 H 0.72678 0.15172 0.99887 0.0
H2492 H 0.75448 0.15888 0.14053 0.0
H2493 H 0.74907 0.16058 0.05409 0.0
H2494 H 0.75369 0.0985 0.04361 0.0
H2495 H 0.75964 0.09687 0.13027 0.0
C2496 C 0.75379 0.12388 0.90571 0.0
C2497 C 0.74234 0.13794 0.88985 0.0
C2498 C 0.75599 0.12041 0.9552 0.0
C2499 C 0.74678 0.13093 0.98959 0.0
C2500 C 0.73443 0.14381 0.97337 0.0
C2501 C 0.73224 0.14727 0.92416 0.0
C2502 C 0.75433 0.14559 0.11981 0.0
C2503 C 0.75739 0.12776 0.14222 0.0
C2504 C 0.75112 0.14653 0.0703 0.0
C2505 C 0.75067 0.12963 0.04204 0.0
C2506 C 0.75401 0.11178 0.0643 0.0
C2507 C 0.7574 0.11086 0.11391 0.0
H2508 H 0.57093 0.03847 0.6872 0.0
H2509 H 0.60511 0.00247 0.60661 0.0
H2510 H 0.57568 0.01913 0.75876 0.0
H2511 H 0.61009 0.98296 0.67968 0.0
H2512 H 0.59348 0.99222 0.89013 0.0
H2513 H 0.59935 0.01097 0.81748 0.0
H2514 H 0.58965 0.96073 0.72943 0.0
H2515 H 0.58396 0.94183 0.80195 0.0
C2516 C 0.57982 0.02669 0.68513 0.0
C2517 C 0.58776 0.02204 0.64149 0.0
C2518 C 0.58258 0.01565 0.72623 0.0
C2519 C 0.59346 -0.00021 0.72489 0.0
C2520 C 0.60168 0.9952 0.6815 0.0
C2521 C 0.59882 0.00629 0.63991 0.0
C2522 C 0.59299 0.98503 0.8554 0.0
C2523 C 0.58783 0.96571 0.85165 0.0
C2524 C 0.5964 0.99575 0.8139 0.0
C2525 C 0.59468 0.98733 0.76801 0.0
C2526 C 0.59112 0.96753 0.76442 0.0
C2527 C 0.58773 0.95678 0.80598 0.0
H2528 H 0.74195 0.65591 0.86432 0.0
H2529 H 0.772 0.60405 0.8694 0.0
H2530 H 0.73654 0.65325 0.94989 0.0
H2531 H 0.76615 0.60107 0.95596 0.0
H2532 H 0.77075 0.62245 0.11674 0.0
H2533 H 0.77334 0.61716 0.03027 0.0
H2534 H 0.72222 0.63542 0.01055 0.0
H2535 H 0.71982 0.64143 0.09697 0.0
C2536 C 0.74729 0.64377 0.88361 0.0
C2537 C 0.7575 0.63023 0.85987 0.0
C2538 C 0.744 0.64212 0.93284 0.0
C2539 C 0.75074 0.62682 0.95994 0.0
C2540 C 0.76083 0.6131 0.93622 0.0
C2541 C 0.76418 0.61479 0.88664 0.0
C2542 C 0.75993 0.62497 0.09414 0.0
C2543 C 0.74519 0.6328 0.11364 0.0
C2544 C 0.76141 0.62183 0.04442 0.0
C2545 C 0.74812 0.62629 0.0132 0.0
C2546 C 0.73287 0.63237 0.0334 0.0
C2547 C 0.73144 0.63568 0.08302 0.0
H2548 H 0.59442 0.44113 0.19926 0.0
H2549 H 0.58495 0.49449 0.12296 0.0
H2550 H 0.60158 0.45939 0.27161 0.0
H2551 H 0.59132 0.51269 0.19548 0.0
H2552 H 0.60363 0.54412 0.3279 0.0
H2553 H 0.60897 0.52408 0.25697 0.0
H2554 H 0.5849 0.47581 0.32781 0.0
H2555 H 0.58038 0.49549 0.39893 0.0
C2556 C 0.59406 0.45678 0.19782 0.0
C2557 C 0.5888 0.46638 0.1558 0.0
C2558 C 0.59809 0.46725 0.23933 0.0
C2559 C 0.59671 0.48752 0.23984 0.0
C2560 C 0.59267 0.49713 0.19656 0.0
C2561 C 0.58887 0.48666 0.1549 0.0
C2562 C 0.59987 0.52908 0.32853 0.0
C2563 C 0.59138 0.52143 0.36856 0.0
C2564 C 0.60284 0.51762 0.28786 0.0
C2565 C 0.59711 0.4984 0.28617 0.0
C2566 C 0.58968 0.49044 0.32774 0.0
C2567 C 0.58697 0.50179 0.36861 0.0
H2568 H 0.773 0.35909 0.59828 0.0
H2569 H 0.72316 0.38046 0.6252 0.0
H2570 H 0.76944 0.36533 0.51248 0.0
H2571 H 0.71968 0.38683 0.53917 0.0
H2572 H 0.7131 0.35326 0.39078 0.0
H2573 H 0.7163 0.36201 0.47534 0.0
H2574 H 0.76424 0.38764 0.44393 0.0
H2575 H 0.7611 0.37882 0.35913 0.0
C2576 C 0.76148 0.36568 0.58615 0.0
C2577 C 0.74823 0.36884 0.61846 0.0
C2578 C 0.75946 0.36936 0.53689 0.0
C2579 C 0.74416 0.37627 0.51898 0.0
C2580 C 0.73151 0.3812 0.55188 0.0
C2581 C 0.73354 0.3776 0.60119 0.0
C2582 C 0.72412 0.36123 0.40158 0.0
C2583 C 0.73697 0.36499 0.36839 0.0
C2584 C 0.72592 0.36637 0.45008 0.0
C2585 C 0.74065 0.3753 0.4664 0.0
C2586 C 0.75287 0.38054 0.43247 0.0
C2587 C 0.75101 0.37554 0.38385 0.0
H2588 H 0.89483 0.54516 0.68189 0.0
H2589 H 0.92066 0.49887 0.60877 0.0
H2590 H 0.88941 0.52378 0.75034 0.0
H2591 H 0.91619 0.4779 0.6777 0.0
H2592 H 0.90634 0.4409 0.80278 0.0
H2593 H 0.89982 0.45973 0.73085 0.0
H2594 H 0.90648 0.51245 0.81262 0.0
H2595 H 0.9122 0.49365 0.88454 0.0
C2596 C 0.89919 0.53034 0.68037 0.0
C2597 C 0.90836 0.52372 0.64052 0.0
C2598 C 0.89618 0.51812 0.7196 0.0
C2599 C 0.90264 0.49919 0.72014 0.0
C2600 C 0.91084 0.49226 0.67863 0.0
C2601 C 0.91352 0.50435 0.63907 0.0
C2602 C 0.90605 0.45652 0.80551 0.0
C2603 C 0.91008 0.46581 0.8491 0.0
C2604 C 0.9024 0.46733 0.76421 0.0
C2605 C 0.9029 0.48765 0.76551 0.0
C2606 C 0.9058 0.49685 0.81007 0.0
C2607 C 0.90924 0.48605 0.85143 0.0
H2608 H 0.24861 0.40148 0.86563 0.0
H2609 H 0.25703 0.34052 0.88864 0.0
H2610 H 0.24685 0.40632 0.95384 0.0
H2611 H 0.25579 0.34545 0.97575 0.0
H2612 H 0.27037 0.36486 0.125 0.0
H2613 H 0.27467 0.36901 0.03876 0.0
H2614 H 0.22353 0.38712 0.02202 0.0
H2615 H 0.21887 0.38253 0.10898 0.0
C2616 C 0.25044 0.38926 0.88952 0.0
C2617 C 0.253 0.37064 0.87057 0.0
C2618 C 0.2493 0.39201 0.93968 0.0
C2619 C 0.25121 0.37624 0.97119 0.0
C2620 C 0.25437 0.35783 0.95209 0.0
C2621 C 0.25508 0.35502 0.90234 0.0
C2622 C 0.26005 0.37014 0.10343 0.0
C2623 C 0.24413 0.37298 0.12388 0.0
C2624 C 0.2626 0.37258 0.05402 0.0
C2625 C 0.24943 0.37829 0.02403 0.0
C2626 C 0.23389 0.3828 0.04471 0.0
C2627 C 0.23123 0.38009 0.09435 0.0
H2628 H 0.41705 0.45389 0.69371 0.0
H2629 H 0.39534 0.4972 0.60045 0.0
H2630 H 0.41201 0.47425 0.76315 0.0
H2631 H 0.38948 0.51743 0.67081 0.0
H2632 H 0.41154 0.55734 0.79062 0.0
H2633 H 0.4064 0.53654 0.72174 0.0
H2634 H 0.39396 0.48949 0.81813 0.0
H2635 H 0.39986 0.51017 0.88722 0.0
C2636 C 0.41075 0.46758 0.6882 0.0
C2637 C 0.40683 0.47409 0.64154 0.0
C2638 C 0.40771 0.47924 0.72823 0.0
C2639 C 0.40042 0.4976 0.7227 0.0
C2640 C 0.39543 0.50354 0.67627 0.0
C2641 C 0.39872 0.49194 0.63599 0.0
C2642 C 0.40744 0.54265 0.79715 0.0
C2643 C 0.40653 0.53524 0.84431 0.0
C2644 C 0.40433 0.53072 0.75754 0.0
C2645 C 0.40006 0.51119 0.76428 0.0
C2646 C 0.39767 0.50432 0.81162 0.0
C2647 C 0.40097 0.5162 0.85124 0.0
H2648 H 0.28394 0.62234 0.62303 0.0
H2649 H 0.23098 0.63234 0.63578 0.0
H2650 H 0.28021 0.61325 0.53866 0.0
H2651 H 0.22732 0.62535 0.55131 0.0
H2652 H 0.22129 0.61464 0.3967 0.0
H2653 H 0.22572 0.60855 0.48252 0.0
H2654 H 0.27688 0.62802 0.46777 0.0
H2655 H 0.27276 0.63213 0.38249 0.0
C2656 C 0.2715 0.62244 0.60775 0.0
C2657 C 0.2578 0.62812 0.63581 0.0
C2658 C 0.26931 0.6175 0.55913 0.0
C2659 C 0.25348 0.61899 0.53697 0.0
C2660 C 0.23969 0.62366 0.56629 0.0
C2661 C 0.2418 0.62787 0.61514 0.0
C2662 C 0.23357 0.61703 0.41194 0.0
C2663 C 0.24662 0.62394 0.38298 0.0
C2664 C 0.23612 0.6138 0.46134 0.0
C2665 C 0.2516 0.61818 0.48318 0.0
C2666 C 0.26484 0.62409 0.45314 0.0
C2667 C 0.26243 0.62664 0.40374 0.0
H2668 H 0.09844 0.50996 0.10789 0.0
H2669 H 0.08002 0.5538 0.20548 0.0
H2670 H 0.10439 0.48892 0.17647 0.0
H2671 H 0.08547 0.53263 0.27362 0.0
H2672 H 0.0818 0.4496 0.29668 0.0
H2673 H 0.08593 0.47107 0.2285 0.0
H2674 H 0.10477 0.51524 0.32447 0.0
H2675 H 0.10013 0.49383 0.39329 0.0
C2676 C 0.09586 0.5152 0.14398 0.0
C2677 C 0.0885 0.5334 0.15123 0.0
C2678 C 0.09922 0.50313 0.18324 0.0
C2679 C 0.0952 0.50898 0.23047 0.0
C2680 C 0.08888 0.52771 0.23783 0.0
C2681 C 0.08563 0.53982 0.19865 0.0
C2682 C 0.08712 0.46375 0.30326 0.0
C2683 C 0.09037 0.47014 0.35049 0.0
C2684 C 0.08962 0.47605 0.26402 0.0
C2685 C 0.09555 0.49496 0.27105 0.0
C2686 C 0.09991 0.50087 0.31798 0.0
C2687 C 0.09731 0.48858 0.35736 0.0
loop_
_geom_bond_atom_site_label_1
_geom_bond_atom_site_label_2
_geom_bond_distance
_geom_bond_site_symmetry_2
_ccdc_geom_bond_type
Co0 O3 1.970 . S
Co0 N17 1.989 . S
Co0 O25 1.967 . S
Co0 O32 1.920 . S
Co1 O4 1.966 . S
Co1 N10 2.022 . S
Co1 N18 1.993 . S
Co1 O26 1.941 . S
C2 O3 1.258 . S
C2 O4 1.263 . S
O3 Co0 1.970 . S
O3 C2 1.258 . S
O4 Co1 1.966 . S
O4 C2 1.263 . S
C5 O6 1.235 . S
C5 O32 1.289 . S
O6 C5 1.235 . S
C7 C9 1.400 . S
C7 N10 1.351 . S
C7 C12 1.501 . S
C8 C9 1.387 . S
C8 N11 1.341 . S
C9 C7 1.400 . S
C9 C8 1.387 . S
N10 Co1 2.022 . S
N10 C7 1.351 . S
N10 N11 1.365 . S
N11 C8 1.341 . S
N11 N10 1.365 . S
N11 H31 0.862 . S
C12 C7 1.501 . S
C12 H13 0.961 . S
C12 H14 0.961 . S
C12 H15 0.960 . S
H13 C12 0.961 . S
H14 C12 0.961 . S
H15 C12 0.960 . S
C16 N17 1.342 . S
C16 C20 1.401 . S
C16 C21 1.499 . S
N17 Co0 1.989 . S
N17 C16 1.342 . S
N17 N18 1.388 . S
N18 Co1 1.993 . S
N18 N17 1.388 . S
N18 C19 1.346 . S
C19 N18 1.346 . S
C19 C20 1.396 . S
C19 C29 1.510 . S
C20 C16 1.401 . S
C20 C19 1.396 . S
C21 C16 1.499 . S
C21 H22 0.959 . S
C21 H23 0.960 . S
C21 H24 0.961 . S
H22 C21 0.959 . S
H23 C21 0.960 . S
H24 C21 0.961 . S
O25 Co0 1.967 . S
O25 C33 1.258 . S
O26 Co1 1.941 . S
O26 C33 1.266 . S
H27 C29 0.959 . S
H28 C29 0.961 . S
C29 C19 1.510 . S
C29 H27 0.959 . S
C29 H28 0.961 . S
C29 H30 0.960 . S
H30 C29 0.960 . S
H31 N11 0.862 . S
O32 Co0 1.920 . S
O32 C5 1.289 . S
C33 O25 1.258 . S
C33 O26 1.266 . S
Co34 O37 1.970 . S
Co34 N51 1.989 . S
Co34 O59 1.967 . S
Co34 O66 1.920 . S
Co35 O38 1.966 . S
Co35 N44 2.022 . S
Co35 N52 1.993 . S
Co35 O60 1.941 . S
C36 O37 1.258 . S
C36 O38 1.263 . S
O37 Co34 1.970 . S
O37 C36 1.258 . S
O38 Co35 1.966 . S
O38 C36 1.263 . S
C39 O40 1.235 . S
C39 O66 1.289 . S
O40 C39 1.235 . S
C41 C43 1.400 . S
C41 N44 1.351 . S
C41 C46 1.501 . S
C42 C43 1.387 . S
C42 N45 1.341 . S
C43 C41 1.400 . S
C43 C42 1.387 . S
N44 Co35 2.022 . S
N44 C41 1.351 . S
N44 N45 1.365 . S
N45 C42 1.341 . S
N45 N44 1.365 . S
N45 H65 0.862 . S
C46 C41 1.501 . S
C46 H47 0.961 . S
C46 H48 0.961 . S
C46 H49 0.960 . S
H47 C46 0.961 . S
H48 C46 0.961 . S
H49 C46 0.960 . S
C50 N51 1.342 . S
C50 C54 1.401 . S
C50 C55 1.499 . S
N51 Co34 1.989 . S
N51 C50 1.342 . S
N51 N52 1.388 . S
N52 Co35 1.993 . S
N52 N51 1.388 . S
N52 C53 1.346 . S
C53 N52 1.346 . S
C53 C54 1.396 . S
C53 C63 1.510 . S
C54 C50 1.401 . S
C54 C53 1.396 . S
C55 C50 1.499 . S
C55 H56 0.959 . S
C55 H57 0.960 . S
C55 H58 0.961 . S
H56 C55 0.959 . S
H57 C55 0.960 . S
H58 C55 0.961 . S
O59 Co34 1.967 . S
O59 C67 1.258 . S
O60 Co35 1.941 . S
O60 C67 1.266 . S
H61 C63 0.959 . S
H62 C63 0.961 . S
C63 C53 1.510 . S
C63 H61 0.959 . S
C63 H62 0.961 . S
C63 H64 0.960 . S
H64 C63 0.960 . S
H65 N45 0.862 . S
O66 Co34 1.920 . S
O66 C39 1.289 . S
C67 O59 1.258 . S
C67 O60 1.266 . S
Co68 O71 1.970 . S
Co68 N85 1.989 . S
Co68 O93 1.967 . S
Co68 O100 1.920 . S
Co69 O72 1.966 . S
Co69 N78 2.022 . S
Co69 N86 1.993 . S
Co69 O94 1.941 . S
C70 O71 1.258 . S
C70 O72 1.263 . S
O71 Co68 1.970 . S
O71 C70 1.258 . S
O72 Co69 1.966 . S
O72 C70 1.263 . S
C73 O74 1.235 . S
C73 O100 1.289 . S
O74 C73 1.235 . S
C75 C77 1.400 . S
C75 N78 1.351 . S
C75 C80 1.501 . S
C76 C77 1.387 . S
C76 N79 1.341 . S
C77 C75 1.400 . S
C77 C76 1.387 . S
N78 Co69 2.022 . S
N78 C75 1.351 . S
N78 N79 1.365 . S
N79 C76 1.341 . S
N79 N78 1.365 . S
N79 H99 0.862 . S
C80 C75 1.501 . S
C80 H81 0.961 . S
C80 H82 0.961 . S
C80 H83 0.960 . S
H81 C80 0.961 . S
H82 C80 0.961 . S
H83 C80 0.960 . S
C84 N85 1.342 . S
C84 C88 1.401 . S
C84 C89 1.499 . S
N85 Co68 1.989 . S
N85 C84 1.342 . S
N85 N86 1.388 . S
N86 Co69 1.993 . S
N86 N85 1.388 . S
N86 C87 1.346 . S
C87 N86 1.346 . S
C87 C88 1.396 . S
C87 C97 1.510 . S
C88 C84 1.401 . S
C88 C87 1.396 . S
C89 C84 1.499 . S
C89 H90 0.959 . S
C89 H91 0.960 . S
C89 H92 0.961 . S
H90 C89 0.959 . S
H91 C89 0.960 . S
H92 C89 0.961 . S
O93 Co68 1.967 . S
O93 C101 1.258 . S
O94 Co69 1.941 . S
O94 C101 1.266 . S
H95 C97 0.959 . S
H96 C97 0.961 . S
C97 C87 1.510 . S
C97 H95 0.959 . S
C97 H96 0.961 . S
C97 H98 0.960 . S
H98 C97 0.960 . S
H99 N79 0.862 . S
O100 Co68 1.920 . S
O100 C73 1.289 . S
C101 O93 1.258 . S
C101 O94 1.266 . S
Co102 O105 1.970 . S
Co102 N119 1.989 . S
Co102 O127 1.967 . S
Co102 O134 1.920 . S
Co103 O106 1.966 . S
Co103 N112 2.022 . S
Co103 N120 1.993 . S
Co103 O128 1.941 1_556 S
C104 O105 1.258 1_556 S
C104 O106 1.263 . S
O105 Co102 1.970 . S
O105 C104 1.258 1_554 S
O106 Co103 1.966 . S
O106 C104 1.263 . S
C107 O108 1.235 . S
C107 O134 1.289 . S
O108 C107 1.235 . S
C109 C111 1.400 . S
C109 N112 1.351 . S
C109 C114 1.501 . S
C110 C111 1.387 . S
C110 N113 1.341 . S
C111 C109 1.400 . S
C111 C110 1.387 . S
N112 Co103 2.022 . S
N112 C109 1.351 . S
N112 N113 1.365 . S
N113 C110 1.341 . S
N113 N112 1.365 . S
N113 H133 0.862 . S
C114 C109 1.501 . S
C114 H115 0.961 . S
C114 H116 0.961 . S
C114 H117 0.960 . S
H115 C114 0.961 . S
H116 C114 0.961 . S
H117 C114 0.960 . S
C118 N119 1.342 . S
C118 C122 1.401 1_554 S
C118 C123 1.499 . S
N119 Co102 1.989 . S
N119 C118 1.342 . S
N119 N120 1.388 1_554 S
N120 Co103 1.993 . S
N120 N119 1.388 1_556 S
N120 C121 1.346 . S
C121 N120 1.346 . S
C121 C122 1.396 . S
C121 C131 1.510 . S
C122 C118 1.401 1_556 S
C122 C121 1.396 . S
C123 C118 1.499 . S
C123 H124 0.959 . S
C123 H125 0.960 . S
C123 H126 0.961 . S
H124 C123 0.959 . S
H125 C123 0.960 . S
H126 C123 0.961 . S
O127 Co102 1.967 . S
O127 C135 1.258 . S
O128 Co103 1.941 1_554 S
O128 C135 1.266 . S
H129 C131 0.959 . S
H130 C131 0.961 . S
C131 C121 1.510 . S
C131 H129 0.959 . S
C131 H130 0.961 . S
C131 H132 0.960 . S
H132 C131 0.960 . S
H133 N113 0.862 . S
O134 Co102 1.920 . S
O134 C107 1.289 . S
C135 O127 1.258 . S
C135 O128 1.266 . S
Co136 O139 1.970 . S
Co136 N153 1.989 . S
Co136 O161 1.967 . S
Co136 O168 1.920 . S
Co137 O140 1.966 . S
Co137 N146 2.022 . S
Co137 N154 1.993 . S
Co137 O162 1.941 . S
C138 O139 1.258 . S
C138 O140 1.263 . S
O139 Co136 1.970 . S
O139 C138 1.258 . S
O140 Co137 1.966 . S
O140 C138 1.263 . S
C141 O142 1.235 . S
C141 O168 1.289 . S
O142 C141 1.235 . S
C143 C145 1.400 . S
C143 N146 1.351 . S
C143 C148 1.501 . S
C144 C145 1.387 . S
C144 N147 1.341 . S
C145 C143 1.400 . S
C145 C144 1.387 . S
N146 Co137 2.022 . S
N146 C143 1.351 . S
N146 N147 1.365 . S
N147 C144 1.341 . S
N147 N146 1.365 . S
N147 H167 0.862 . S
C148 C143 1.501 . S
C148 H149 0.961 . S
C148 H150 0.961 . S
C148 H151 0.960 . S
H149 C148 0.961 . S
H150 C148 0.961 . S
H151 C148 0.960 . S
C152 N153 1.342 . S
C152 C156 1.401 . S
C152 C157 1.499 . S
N153 Co136 1.989 . S
N153 C152 1.342 . S
N153 N154 1.388 . S
N154 Co137 1.993 . S
N154 N153 1.388 . S
N154 C155 1.346 . S
C155 N154 1.346 . S
C155 C156 1.396 . S
C155 C165 1.510 . S
C156 C152 1.401 . S
C156 C155 1.396 . S
C157 C152 1.499 . S
C157 H158 0.959 . S
C157 H159 0.960 . S
C157 H160 0.961 . S
H158 C157 0.959 . S
H159 C157 0.960 . S
H160 C157 0.961 . S
O161 Co136 1.967 . S
O161 C169 1.258 . S
O162 Co137 1.941 . S
O162 C169 1.266 . S
H163 C165 0.959 . S
H164 C165 0.961 . S
C165 C155 1.510 . S
C165 H163 0.959 . S
C165 H164 0.961 . S
C165 H166 0.960 . S
H166 C165 0.960 . S
H167 N147 0.862 . S
O168 Co136 1.920 . S
O168 C141 1.289 . S
C169 O161 1.258 . S
C169 O162 1.266 . S
Co170 O173 1.970 . S
Co170 N187 1.989 . S
Co170 O195 1.967 . S
Co170 O202 1.920 . S
Co171 O174 1.966 . S
Co171 N180 2.022 . S
Co171 N188 1.993 . S
Co171 O196 1.941 . S
C172 O173 1.258 . S
C172 O174 1.263 . S
O173 Co170 1.970 . S
O173 C172 1.258 . S
O174 Co171 1.966 . S
O174 C172 1.263 . S
C175 O176 1.235 . S
C175 O202 1.289 . S
O176 C175 1.235 . S
C177 C179 1.400 . S
C177 N180 1.351 . S
C177 C182 1.501 . S
C178 C179 1.387 . S
C178 N181 1.341 . S
C179 C177 1.400 . S
C179 C178 1.387 . S
N180 Co171 2.022 . S
N180 C177 1.351 . S
N180 N181 1.365 . S
N181 C178 1.341 . S
N181 N180 1.365 . S
N181 H201 0.862 . S
C182 C177 1.501 . S
C182 H183 0.961 . S
C182 H184 0.961 . S
C182 H185 0.960 . S
H183 C182 0.961 . S
H184 C182 0.961 . S
H185 C182 0.960 . S
C186 N187 1.342 . S
C186 C190 1.401 . S
C186 C191 1.499 . S
N187 Co170 1.989 . S
N187 C186 1.342 . S
N187 N188 1.388 . S
N188 Co171 1.993 . S
N188 N187 1.388 . S
N188 C189 1.346 . S
C189 N188 1.346 . S
C189 C190 1.396 . S
C189 C199 1.510 . S
C190 C186 1.401 . S
C190 C189 1.396 . S
C191 C186 1.499 . S
C191 H192 0.959 . S
C191 H193 0.960 . S
C191 H194 0.961 . S
H192 C191 0.959 . S
H193 C191 0.960 . S
H194 C191 0.961 . S
O195 Co170 1.967 . S
O195 C203 1.258 . S
O196 Co171 1.941 . S
O196 C203 1.266 . S
H197 C199 0.959 . S
H198 C199 0.961 . S
C199 C189 1.510 . S
C199 H197 0.959 . S
C199 H198 0.961 . S
C199 H200 0.960 . S
H200 C199 0.960 . S
H201 N181 0.862 . S
O202 Co170 1.920 . S
O202 C175 1.289 . S
C203 O195 1.258 . S
C203 O196 1.266 . S
Co204 O207 1.970 . S
Co204 N221 1.989 . S
Co204 O229 1.967 . S
Co204 O236 1.920 . S
Co205 O208 1.966 . S
Co205 N214 2.022 . S
Co205 N222 1.993 . S
Co205 O230 1.941 . S
C206 O207 1.258 . S
C206 O208 1.263 . S
O207 Co204 1.970 . S
O207 C206 1.258 . S
O208 Co205 1.966 . S
O208 C206 1.263 . S
C209 O210 1.235 . S
C209 O236 1.289 . S
O210 C209 1.235 . S
C211 C213 1.400 . S
C211 N214 1.351 . S
C211 C216 1.501 . S
C212 C213 1.387 . S
C212 N215 1.341 . S
C213 C211 1.400 . S
C213 C212 1.387 . S
N214 Co205 2.022 . S
N214 C211 1.351 . S
N214 N215 1.365 . S
N215 C212 1.341 . S
N215 N214 1.365 . S
N215 H235 0.862 . S
C216 C211 1.501 . S
C216 H217 0.961 . S
C216 H218 0.961 . S
C216 H219 0.960 . S
H217 C216 0.961 . S
H218 C216 0.961 . S
H219 C216 0.960 . S
C220 N221 1.342 . S
C220 C224 1.401 . S
C220 C225 1.499 . S
N221 Co204 1.989 . S
N221 C220 1.342 . S
N221 N222 1.388 . S
N222 Co205 1.993 . S
N222 N221 1.388 . S
N222 C223 1.346 . S
C223 N222 1.346 . S
C223 C224 1.396 . S
C223 C233 1.510 . S
C224 C220 1.401 . S
C224 C223 1.396 . S
C225 C220 1.499 . S
C225 H226 0.959 . S
C225 H227 0.960 . S
C225 H228 0.961 . S
H226 C225 0.959 . S
H227 C225 0.960 . S
H228 C225 0.961 . S
O229 Co204 1.967 . S
O229 C237 1.258 . S
O230 Co205 1.941 . S
O230 C237 1.266 . S
H231 C233 0.959 . S
H232 C233 0.961 . S
C233 C223 1.510 . S
C233 H231 0.959 . S
C233 H232 0.961 . S
C233 H234 0.960 . S
H234 C233 0.960 . S
H235 N215 0.862 . S
O236 Co204 1.920 . S
O236 C209 1.289 . S
C237 O229 1.258 . S
C237 O230 1.266 . S
Co238 O241 1.970 . S
Co238 N255 1.989 . S
Co238 O263 1.967 . S
Co238 O270 1.920 . S
Co239 O242 1.966 . S
Co239 N248 2.022 . S
Co239 N256 1.993 . S
Co239 O264 1.941 1_554 S
C240 O241 1.258 1_554 S
C240 O242 1.263 . S
O241 Co238 1.970 . S
O241 C240 1.258 1_556 S
O242 Co239 1.966 . S
O242 C240 1.263 . S
C243 O244 1.235 . S
C243 O270 1.289 . S
O244 C243 1.235 . S
C245 C247 1.400 . S
C245 N248 1.351 . S
C245 C250 1.501 . S
C246 C247 1.387 . S
C246 N249 1.341 . S
C247 C245 1.400 . S
C247 C246 1.387 . S
N248 Co239 2.022 . S
N248 C245 1.351 . S
N248 N249 1.365 . S
N249 C246 1.341 . S
N249 N248 1.365 . S
N249 H269 0.862 . S
C250 C245 1.501 . S
C250 H251 0.961 . S
C250 H252 0.961 . S
C250 H253 0.960 . S
H251 C250 0.961 . S
H252 C250 0.961 . S
H253 C250 0.960 . S
C254 N255 1.342 . S
C254 C258 1.401 1_556 S
C254 C259 1.499 . S
N255 Co238 1.989 . S
N255 C254 1.342 . S
N255 N256 1.388 1_556 S
N256 Co239 1.993 . S
N256 N255 1.388 1_554 S
N256 C257 1.346 . S
C257 N256 1.346 . S
C257 C258 1.396 . S
C257 C267 1.510 . S
C258 C254 1.401 1_554 S
C258 C257 1.396 . S
C259 C254 1.499 . S
C259 H260 0.959 . S
C259 H261 0.960 . S
C259 H262 0.961 . S
H260 C259 0.959 . S
H261 C259 0.960 . S
H262 C259 0.961 . S
O263 Co238 1.967 . S
O263 C271 1.258 . S
O264 Co239 1.941 1_556 S
O264 C271 1.266 . S
H265 C267 0.959 . S
H266 C267 0.961 . S
C267 C257 1.510 . S
C267 H265 0.959 . S
C267 H266 0.961 . S
C267 H268 0.960 . S
H268 C267 0.960 . S
H269 N249 0.862 . S
O270 Co238 1.920 . S
O270 C243 1.289 . S
C271 O263 1.258 . S
C271 O264 1.266 . S
Co272 O275 1.970 . S
Co272 N289 1.989 . S
Co272 O297 1.967 . S
Co272 O304 1.920 . S
Co273 O276 1.966 . S
Co273 N282 2.022 . S
Co273 N290 1.993 . S
Co273 O298 1.941 . S
C274 O275 1.258 . S
C274 O276 1.263 . S
O275 Co272 1.970 . S
O275 C274 1.258 . S
O276 Co273 1.966 . S
O276 C274 1.263 . S
C277 O278 1.235 . S
C277 O304 1.289 . S
O278 C277 1.235 . S
C279 C281 1.400 . S
C279 N282 1.351 . S
C279 C284 1.501 . S
C280 C281 1.387 . S
C280 N283 1.341 . S
C281 C279 1.400 . S
C281 C280 1.387 . S
N282 Co273 2.022 . S
N282 C279 1.351 . S
N282 N283 1.365 . S
N283 C280 1.341 . S
N283 N282 1.365 . S
N283 H303 0.862 . S
C284 C279 1.501 . S
C284 H285 0.961 . S
C284 H286 0.961 . S
C284 H287 0.960 . S
H285 C284 0.961 . S
H286 C284 0.961 . S
H287 C284 0.960 . S
C288 N289 1.342 . S
C288 C292 1.401 . S
C288 C293 1.499 . S
N289 Co272 1.989 . S
N289 C288 1.342 . S
N289 N290 1.388 . S
N290 Co273 1.993 . S
N290 N289 1.388 . S
N290 C291 1.346 . S
C291 N290 1.346 . S
C291 C292 1.396 . S
C291 C301 1.510 . S
C292 C288 1.401 . S
C292 C291 1.396 . S
C293 C288 1.499 . S
C293 H294 0.959 . S
C293 H295 0.960 . S
C293 H296 0.961 . S
H294 C293 0.959 . S
H295 C293 0.960 . S
H296 C293 0.961 . S
O297 Co272 1.967 . S
O297 C305 1.258 . S
O298 Co273 1.941 . S
O298 C305 1.266 . S
H299 C301 0.959 . S
H300 C301 0.961 . S
C301 C291 1.510 . S
C301 H299 0.959 . S
C301 H300 0.961 . S
C301 H302 0.960 . S
H302 C301 0.960 . S
H303 N283 0.862 . S
O304 Co272 1.920 . S
O304 C277 1.289 . S
C305 O297 1.258 . S
C305 O298 1.266 . S
Co306 O309 1.970 . S
Co306 N323 1.989 . S
Co306 O331 1.967 . S
Co306 O338 1.920 . S
Co307 O310 1.966 . S
Co307 N316 2.022 . S
Co307 N324 1.993 . S
Co307 O332 1.941 . S
C308 O309 1.258 . S
C308 O310 1.263 . S
O309 Co306 1.970 . S
O309 C308 1.258 . S
O310 Co307 1.966 . S
O310 C308 1.263 . S
C311 O312 1.235 . S
C311 O338 1.289 . S
O312 C311 1.235 . S
C313 C315 1.400 . S
C313 N316 1.351 . S
C313 C318 1.501 . S
C314 C315 1.387 . S
C314 N317 1.341 . S
C315 C313 1.400 . S
C315 C314 1.387 . S
N316 Co307 2.022 . S
N316 C313 1.351 . S
N316 N317 1.365 . S
N317 C314 1.341 . S
N317 N316 1.365 . S
N317 H337 0.862 . S
C318 C313 1.501 . S
C318 H319 0.961 . S
C318 H320 0.961 . S
C318 H321 0.960 . S
H319 C318 0.961 . S
H320 C318 0.961 . S
H321 C318 0.960 . S
C322 N323 1.342 . S
C322 C326 1.401 . S
C322 C327 1.499 . S
N323 Co306 1.989 . S
N323 C322 1.342 . S
N323 N324 1.388 . S
N324 Co307 1.993 . S
N324 N323 1.388 . S
N324 C325 1.346 . S
C325 N324 1.346 . S
C325 C326 1.396 . S
C325 C335 1.510 . S
C326 C322 1.401 . S
C326 C325 1.396 . S
C327 C322 1.499 . S
C327 H328 0.959 . S
C327 H329 0.960 . S
C327 H330 0.961 . S
H328 C327 0.959 . S
H329 C327 0.960 . S
H330 C327 0.961 . S
O331 Co306 1.967 . S
O331 C339 1.258 . S
O332 Co307 1.941 . S
O332 C339 1.266 . S
H333 C335 0.959 . S
H334 C335 0.961 . S
C335 C325 1.510 . S
C335 H333 0.959 . S
C335 H334 0.961 . S
C335 H336 0.960 . S
H336 C335 0.960 . S
H337 N317 0.862 . S
O338 Co306 1.920 . S
O338 C311 1.289 . S
C339 O331 1.258 . S
C339 O332 1.266 . S
Co340 O343 1.970 . S
Co340 N357 1.989 . S
Co340 O365 1.967 . S
Co340 O372 1.920 . S
Co341 O344 1.966 . S
Co341 N350 2.022 . S
Co341 N358 1.993 . S
Co341 O366 1.941 . S
C342 O343 1.258 . S
C342 O344 1.263 . S
O343 Co340 1.970 . S
O343 C342 1.258 . S
O344 Co341 1.966 . S
O344 C342 1.263 . S
C345 O346 1.235 . S
C345 O372 1.289 . S
O346 C345 1.235 . S
C347 C349 1.400 . S
C347 N350 1.351 . S
C347 C352 1.501 . S
C348 C349 1.387 . S
C348 N351 1.341 . S
C349 C347 1.400 . S
C349 C348 1.387 . S
N350 Co341 2.022 . S
N350 C347 1.351 . S
N350 N351 1.365 . S
N351 C348 1.341 . S
N351 N350 1.365 . S
N351 H371 0.862 . S
C352 C347 1.501 . S
C352 H353 0.961 . S
C352 H354 0.961 . S
C352 H355 0.960 . S
H353 C352 0.961 . S
H354 C352 0.961 . S
H355 C352 0.960 . S
C356 N357 1.342 . S
C356 C360 1.401 . S
C356 C361 1.499 . S
N357 Co340 1.989 . S
N357 C356 1.342 . S
N357 N358 1.388 . S
N358 Co341 1.993 . S
N358 N357 1.388 . S
N358 C359 1.346 . S
C359 N358 1.346 . S
C359 C360 1.396 . S
C359 C369 1.510 . S
C360 C356 1.401 . S
C360 C359 1.396 . S
C361 C356 1.499 . S
C361 H362 0.959 . S
C361 H363 0.960 . S
C361 H364 0.961 . S
H362 C361 0.959 . S
H363 C361 0.960 . S
H364 C361 0.961 . S
O365 Co340 1.967 . S
O365 C373 1.258 . S
O366 Co341 1.941 . S
O366 C373 1.266 . S
H367 C369 0.959 . S
H368 C369 0.961 . S
C369 C359 1.510 . S
C369 H367 0.959 . S
C369 H368 0.961 . S
C369 H370 0.960 . S
H370 C369 0.960 . S
H371 N351 0.862 . S
O372 Co340 1.920 . S
O372 C345 1.289 . S
C373 O365 1.258 . S
C373 O366 1.266 . S
Co374 O377 1.970 . S
Co374 N391 1.989 . S
Co374 O399 1.967 . S
Co374 O406 1.920 . S
Co375 O378 1.966 . S
Co375 N384 2.022 . S
Co375 N392 1.993 . S
Co375 O400 1.941 1_554 S
C376 O377 1.258 1_554 S
C376 O378 1.263 . S
O377 Co374 1.970 . S
O377 C376 1.258 1_556 S
O378 Co375 1.966 . S
O378 C376 1.263 . S
C379 O380 1.235 . S
C379 O406 1.289 . S
O380 C379 1.235 . S
C381 C383 1.400 . S
C381 N384 1.351 . S
C381 C386 1.501 . S
C382 C383 1.387 . S
C382 N385 1.341 . S
C383 C381 1.400 . S
C383 C382 1.387 . S
N384 Co375 2.022 . S
N384 C381 1.351 . S
N384 N385 1.365 . S
N385 C382 1.341 . S
N385 N384 1.365 . S
N385 H405 0.862 . S
C386 C381 1.501 . S
C386 H387 0.961 . S
C386 H388 0.961 . S
C386 H389 0.960 . S
H387 C386 0.961 . S
H388 C386 0.961 . S
H389 C386 0.960 . S
C390 N391 1.342 . S
C390 C394 1.401 1_556 S
C390 C395 1.499 . S
N391 Co374 1.989 . S
N391 C390 1.342 . S
N391 N392 1.388 1_556 S
N392 Co375 1.993 . S
N392 N391 1.388 1_554 S
N392 C393 1.346 . S
C393 N392 1.346 . S
C393 C394 1.396 . S
C393 C403 1.510 . S
C394 C390 1.401 1_554 S
C394 C393 1.396 . S
C395 C390 1.499 . S
C395 H396 0.959 . S
C395 H397 0.960 . S
C395 H398 0.961 . S
H396 C395 0.959 . S
H397 C395 0.960 . S
H398 C395 0.961 . S
O399 Co374 1.967 . S
O399 C407 1.258 . S
O400 Co375 1.941 1_556 S
O400 C407 1.266 . S
H401 C403 0.959 . S
H402 C403 0.961 . S
C403 C393 1.510 . S
C403 H401 0.959 . S
C403 H402 0.961 . S
C403 H404 0.960 . S
H404 C403 0.960 . S
H405 N385 0.862 . S
O406 Co374 1.920 . S
O406 C379 1.289 . S
C407 O399 1.258 . S
C407 O400 1.266 . S
Co408 O411 1.970 . S
Co408 N425 1.989 . S
Co408 O433 1.967 . S
Co408 O440 1.920 . S
Co409 O412 1.966 . S
Co409 N418 2.022 . S
Co409 N426 1.993 . S
Co409 O434 1.941 . S
C410 O411 1.258 . S
C410 O412 1.263 . S
O411 Co408 1.970 . S
O411 C410 1.258 . S
O412 Co409 1.966 . S
O412 C410 1.263 . S
C413 O414 1.235 . S
C413 O440 1.289 . S
O414 C413 1.235 . S
C415 C417 1.400 . S
C415 N418 1.351 . S
C415 C420 1.501 . S
C416 C417 1.387 . S
C416 N419 1.341 . S
C417 C415 1.400 . S
C417 C416 1.387 . S
N418 Co409 2.022 . S
N418 C415 1.351 . S
N418 N419 1.365 . S
N419 C416 1.341 . S
N419 N418 1.365 . S
N419 H439 0.862 . S
C420 C415 1.501 . S
C420 H421 0.961 . S
C420 H422 0.961 . S
C420 H423 0.960 . S
H421 C420 0.961 . S
H422 C420 0.961 . S
H423 C420 0.960 . S
C424 N425 1.342 . S
C424 C428 1.401 . S
C424 C429 1.499 . S
N425 Co408 1.989 . S
N425 C424 1.342 . S
N425 N426 1.388 . S
N426 Co409 1.993 . S
N426 N425 1.388 . S
N426 C427 1.346 . S
C427 N426 1.346 . S
C427 C428 1.396 . S
C427 C437 1.510 . S
C428 C424 1.401 . S
C428 C427 1.396 . S
C429 C424 1.499 . S
C429 H430 0.959 . S
C429 H431 0.960 . S
C429 H432 0.961 . S
H430 C429 0.959 . S
H431 C429 0.960 . S
H432 C429 0.961 . S
O433 Co408 1.967 . S
O433 C441 1.258 . S
O434 Co409 1.941 . S
O434 C441 1.266 . S
H435 C437 0.959 . S
H436 C437 0.961 . S
C437 C427 1.510 . S
C437 H435 0.959 . S
C437 H436 0.961 . S
C437 H438 0.960 . S
H438 C437 0.960 . S
H439 N419 0.862 . S
O440 Co408 1.920 . S
O440 C413 1.289 . S
C441 O433 1.258 . S
C441 O434 1.266 . S
Co442 O445 1.970 . S
Co442 N459 1.989 . S
Co442 O467 1.967 . S
Co442 O474 1.920 . S
Co443 O446 1.966 . S
Co443 N452 2.022 . S
Co443 N460 1.993 . S
Co443 O468 1.941 . S
C444 O445 1.258 . S
C444 O446 1.263 . S
O445 Co442 1.970 . S
O445 C444 1.258 . S
O446 Co443 1.966 . S
O446 C444 1.263 . S
C447 O448 1.235 . S
C447 O474 1.289 . S
O448 C447 1.235 . S
C449 C451 1.400 . S
C449 N452 1.351 . S
C449 C454 1.501 . S
C450 C451 1.387 . S
C450 N453 1.341 . S
C451 C449 1.400 . S
C451 C450 1.387 . S
N452 Co443 2.022 . S
N452 C449 1.351 . S
N452 N453 1.365 . S
N453 C450 1.341 . S
N453 N452 1.365 . S
N453 H473 0.862 . S
C454 C449 1.501 . S
C454 H455 0.961 . S
C454 H456 0.961 . S
C454 H457 0.960 . S
H455 C454 0.961 . S
H456 C454 0.961 . S
H457 C454 0.960 . S
C458 N459 1.342 . S
C458 C462 1.401 . S
C458 C463 1.499 . S
N459 Co442 1.989 . S
N459 C458 1.342 . S
N459 N460 1.388 . S
N460 Co443 1.993 . S
N460 N459 1.388 . S
N460 C461 1.346 . S
C461 N460 1.346 . S
C461 C462 1.396 . S
C461 C471 1.510 . S
C462 C458 1.401 . S
C462 C461 1.396 . S
C463 C458 1.499 . S
C463 H464 0.959 . S
C463 H465 0.960 . S
C463 H466 0.961 . S
H464 C463 0.959 . S
H465 C463 0.960 . S
H466 C463 0.961 . S
O467 Co442 1.967 . S
O467 C475 1.258 . S
O468 Co443 1.941 . S
O468 C475 1.266 . S
H469 C471 0.959 . S
H470 C471 0.961 . S
C471 C461 1.510 . S
C471 H469 0.959 . S
C471 H470 0.961 . S
C471 H472 0.960 . S
H472 C471 0.960 . S
H473 N453 0.862 . S
O474 Co442 1.920 . S
O474 C447 1.289 . S
C475 O467 1.258 . S
C475 O468 1.266 . S
Co476 O479 1.970 . S
Co476 N493 1.989 . S
Co476 O501 1.967 . S
Co476 O508 1.920 . S
Co477 O480 1.966 . S
Co477 N486 2.022 . S
Co477 N494 1.993 . S
Co477 O502 1.941 . S
C478 O479 1.258 . S
C478 O480 1.263 . S
O479 Co476 1.970 . S
O479 C478 1.258 . S
O480 Co477 1.966 . S
O480 C478 1.263 . S
C481 O482 1.235 . S
C481 O508 1.289 . S
O482 C481 1.235 . S
C483 C485 1.400 . S
C483 N486 1.351 . S
C483 C488 1.501 . S
C484 C485 1.387 . S
C484 N487 1.341 . S
C485 C483 1.400 . S
C485 C484 1.387 . S
N486 Co477 2.022 . S
N486 C483 1.351 . S
N486 N487 1.365 . S
N487 C484 1.341 . S
N487 N486 1.365 . S
N487 H507 0.862 . S
C488 C483 1.501 . S
C488 H489 0.961 . S
C488 H490 0.961 . S
C488 H491 0.960 . S
H489 C488 0.961 . S
H490 C488 0.961 . S
H491 C488 0.960 . S
C492 N493 1.342 . S
C492 C496 1.401 . S
C492 C497 1.499 . S
N493 Co476 1.989 . S
N493 C492 1.342 . S
N493 N494 1.388 . S
N494 Co477 1.993 . S
N494 N493 1.388 . S
N494 C495 1.346 . S
C495 N494 1.346 . S
C495 C496 1.396 . S
C495 C505 1.510 . S
C496 C492 1.401 . S
C496 C495 1.396 . S
C497 C492 1.499 . S
C497 H498 0.959 . S
C497 H499 0.960 . S
C497 H500 0.961 . S
H498 C497 0.959 . S
H499 C497 0.960 . S
H500 C497 0.961 . S
O501 Co476 1.967 . S
O501 C509 1.258 . S
O502 Co477 1.941 . S
O502 C509 1.266 . S
H503 C505 0.959 . S
H504 C505 0.961 . S
C505 C495 1.510 . S
C505 H503 0.959 . S
C505 H504 0.961 . S
C505 H506 0.960 . S
H506 C505 0.960 . S
H507 N487 0.862 . S
O508 Co476 1.920 . S
O508 C481 1.289 . S
C509 O501 1.258 . S
C509 O502 1.266 . S
Co510 O513 1.970 . S
Co510 N527 1.989 . S
Co510 O535 1.967 . S
Co510 O542 1.920 . S
Co511 O514 1.966 . S
Co511 N520 2.022 . S
Co511 N528 1.993 . S
Co511 O536 1.941 1_556 S
C512 O513 1.258 1_556 S
C512 O514 1.263 . S
O513 Co510 1.970 . S
O513 C512 1.258 1_554 S
O514 Co511 1.966 . S
O514 C512 1.263 . S
C515 O516 1.235 . S
C515 O542 1.289 . S
O516 C515 1.235 . S
C517 C519 1.400 . S
C517 N520 1.351 . S
C517 C522 1.501 . S
C518 C519 1.387 . S
C518 N521 1.341 . S
C519 C517 1.400 . S
C519 C518 1.387 . S
N520 Co511 2.022 . S
N520 C517 1.351 . S
N520 N521 1.365 . S
N521 C518 1.341 . S
N521 N520 1.365 . S
N521 H541 0.862 . S
C522 C517 1.501 . S
C522 H523 0.961 . S
C522 H524 0.961 . S
C522 H525 0.960 . S
H523 C522 0.961 . S
H524 C522 0.961 . S
H525 C522 0.960 . S
C526 N527 1.342 . S
C526 C530 1.401 1_554 S
C526 C531 1.499 . S
N527 Co510 1.989 . S
N527 C526 1.342 . S
N527 N528 1.388 1_554 S
N528 Co511 1.993 . S
N528 N527 1.388 1_556 S
N528 C529 1.346 . S
C529 N528 1.346 . S
C529 C530 1.396 . S
C529 C539 1.510 . S
C530 C526 1.401 1_556 S
C530 C529 1.396 . S
C531 C526 1.499 . S
C531 H532 0.959 . S
C531 H533 0.960 . S
C531 H534 0.961 . S
H532 C531 0.959 . S
H533 C531 0.960 . S
H534 C531 0.961 . S
O535 Co510 1.967 . S
O535 C543 1.258 . S
O536 Co511 1.941 1_554 S
O536 C543 1.266 . S
H537 C539 0.959 . S
H538 C539 0.961 . S
C539 C529 1.510 . S
C539 H537 0.959 . S
C539 H538 0.961 . S
C539 H540 0.960 . S
H540 C539 0.960 . S
H541 N521 0.862 . S
O542 Co510 1.920 . S
O542 C515 1.289 . S
C543 O535 1.258 . S
C543 O536 1.266 . S
Co544 O547 1.970 . S
Co544 N561 1.989 . S
Co544 O569 1.967 . S
Co544 O576 1.920 . S
Co545 O548 1.966 . S
Co545 N554 2.022 . S
Co545 N562 1.993 . S
Co545 O570 1.941 . S
C546 O547 1.258 . S
C546 O548 1.263 . S
O547 Co544 1.970 . S
O547 C546 1.258 . S
O548 Co545 1.966 . S
O548 C546 1.263 . S
C549 O550 1.235 . S
C549 O576 1.289 . S
O550 C549 1.235 . S
C551 C553 1.400 . S
C551 N554 1.351 . S
C551 C556 1.501 . S
C552 C553 1.387 . S
C552 N555 1.341 . S
C553 C551 1.400 . S
C553 C552 1.387 . S
N554 Co545 2.022 . S
N554 C551 1.351 . S
N554 N555 1.365 . S
N555 C552 1.341 . S
N555 N554 1.365 . S
N555 H575 0.862 . S
C556 C551 1.501 . S
C556 H557 0.961 . S
C556 H558 0.961 . S
C556 H559 0.960 . S
H557 C556 0.961 . S
H558 C556 0.961 . S
H559 C556 0.960 . S
C560 N561 1.342 . S
C560 C564 1.401 . S
C560 C565 1.499 . S
N561 Co544 1.989 . S
N561 C560 1.342 . S
N561 N562 1.388 . S
N562 Co545 1.993 . S
N562 N561 1.388 . S
N562 C563 1.346 . S
C563 N562 1.346 . S
C563 C564 1.396 . S
C563 C573 1.510 . S
C564 C560 1.401 . S
C564 C563 1.396 . S
C565 C560 1.499 . S
C565 H566 0.959 . S
C565 H567 0.960 . S
C565 H568 0.961 . S
H566 C565 0.959 . S
H567 C565 0.960 . S
H568 C565 0.961 . S
O569 Co544 1.967 . S
O569 C577 1.258 . S
O570 Co545 1.941 . S
O570 C577 1.266 . S
H571 C573 0.959 . S
H572 C573 0.961 . S
C573 C563 1.510 . S
C573 H571 0.959 . S
C573 H572 0.961 . S
C573 H574 0.960 . S
H574 C573 0.960 . S
H575 N555 0.862 . S
O576 Co544 1.920 . S
O576 C549 1.289 . S
C577 O569 1.258 . S
C577 O570 1.266 . S
Co578 O581 1.970 . S
Co578 N595 1.989 . S
Co578 O603 1.967 . S
Co578 O610 1.920 . S
Co579 O582 1.966 . S
Co579 N588 2.022 . S
Co579 N596 1.993 . S
Co579 O604 1.941 1_556 S
C580 O581 1.258 1_556 S
C580 O582 1.263 . S
O581 Co578 1.970 . S
O581 C580 1.258 1_554 S
O582 Co579 1.966 . S
O582 C580 1.263 . S
C583 O584 1.235 . S
C583 O610 1.289 . S
O584 C583 1.235 . S
C585 C587 1.400 . S
C585 N588 1.351 . S
C585 C590 1.501 . S
C586 C587 1.387 . S
C586 N589 1.341 . S
C587 C585 1.400 . S
C587 C586 1.387 . S
N588 Co579 2.022 . S
N588 C585 1.351 . S
N588 N589 1.365 . S
N589 C586 1.341 . S
N589 N588 1.365 . S
N589 H609 0.862 . S
C590 C585 1.501 . S
C590 H591 0.961 . S
C590 H592 0.961 . S
C590 H593 0.960 . S
H591 C590 0.961 . S
H592 C590 0.961 . S
H593 C590 0.960 . S
C594 N595 1.342 . S
C594 C598 1.401 1_554 S
C594 C599 1.499 . S
N595 Co578 1.989 . S
N595 C594 1.342 . S
N595 N596 1.388 1_554 S
N596 Co579 1.993 . S
N596 N595 1.388 1_556 S
N596 C597 1.346 . S
C597 N596 1.346 . S
C597 C598 1.396 . S
C597 C607 1.510 . S
C598 C594 1.401 1_556 S
C598 C597 1.396 . S
C599 C594 1.499 . S
C599 H600 0.959 . S
C599 H601 0.960 . S
C599 H602 0.961 . S
H600 C599 0.959 . S
H601 C599 0.960 . S
H602 C599 0.961 . S
O603 Co578 1.967 . S
O603 C611 1.258 . S
O604 Co579 1.941 1_554 S
O604 C611 1.266 . S
H605 C607 0.959 . S
H606 C607 0.961 . S
C607 C597 1.510 . S
C607 H605 0.959 . S
C607 H606 0.961 . S
C607 H608 0.960 . S
H608 C607 0.960 . S
H609 N589 0.862 . S
O610 Co578 1.920 . S
O610 C583 1.289 . S
C611 O603 1.258 . S
C611 O604 1.266 . S
Co612 O615 1.970 . S
Co612 N629 1.989 . S
Co612 O637 1.967 . S
Co612 O644 1.920 . S
Co613 O616 1.966 . S
Co613 N622 2.022 . S
Co613 N630 1.993 . S
Co613 O638 1.941 . S
C614 O615 1.258 . S
C614 O616 1.263 . S
O615 Co612 1.970 . S
O615 C614 1.258 . S
O616 Co613 1.966 . S
O616 C614 1.263 . S
C617 O618 1.235 . S
C617 O644 1.289 . S
O618 C617 1.235 . S
C619 C621 1.400 . S
C619 N622 1.351 . S
C619 C624 1.501 . S
C620 C621 1.387 . S
C620 N623 1.341 . S
C621 C619 1.400 . S
C621 C620 1.387 . S
N622 Co613 2.022 . S
N622 C619 1.351 . S
N622 N623 1.365 . S
N623 C620 1.341 . S
N623 N622 1.365 . S
N623 H643 0.862 . S
C624 C619 1.501 . S
C624 H625 0.961 . S
C624 H626 0.961 . S
C624 H627 0.960 . S
H625 C624 0.961 . S
H626 C624 0.961 . S
H627 C624 0.960 . S
C628 N629 1.342 . S
C628 C632 1.401 . S
C628 C633 1.499 . S
N629 Co612 1.989 . S
N629 C628 1.342 . S
N629 N630 1.388 . S
N630 Co613 1.993 . S
N630 N629 1.388 . S
N630 C631 1.346 . S
C631 N630 1.346 . S
C631 C632 1.396 . S
C631 C641 1.510 . S
C632 C628 1.401 . S
C632 C631 1.396 . S
C633 C628 1.499 . S
C633 H634 0.959 . S
C633 H635 0.960 . S
C633 H636 0.961 . S
H634 C633 0.959 . S
H635 C633 0.960 . S
H636 C633 0.961 . S
O637 Co612 1.967 . S
O637 C645 1.258 . S
O638 Co613 1.941 . S
O638 C645 1.266 . S
H639 C641 0.959 . S
H640 C641 0.961 . S
C641 C631 1.510 . S
C641 H639 0.959 . S
C641 H640 0.961 . S
C641 H642 0.960 . S
H642 C641 0.960 . S
H643 N623 0.862 . S
O644 Co612 1.920 . S
O644 C617 1.289 . S
C645 O637 1.258 . S
C645 O638 1.266 . S
Co646 O649 1.970 . S
Co646 N663 1.989 . S
Co646 O671 1.967 . S
Co646 O678 1.920 . S
Co647 O650 1.966 . S
Co647 N656 2.022 . S
Co647 N664 1.993 . S
Co647 O672 1.941 . S
C648 O649 1.258 . S
C648 O650 1.263 . S
O649 Co646 1.970 . S
O649 C648 1.258 . S
O650 Co647 1.966 . S
O650 C648 1.263 . S
C651 O652 1.235 . S
C651 O678 1.289 . S
O652 C651 1.235 . S
C653 C655 1.400 . S
C653 N656 1.351 . S
C653 C658 1.501 . S
C654 C655 1.387 . S
C654 N657 1.341 . S
C655 C653 1.400 . S
C655 C654 1.387 . S
N656 Co647 2.022 . S
N656 C653 1.351 . S
N656 N657 1.365 . S
N657 C654 1.341 . S
N657 N656 1.365 . S
N657 H677 0.862 . S
C658 C653 1.501 . S
C658 H659 0.961 . S
C658 H660 0.961 . S
C658 H661 0.960 . S
H659 C658 0.961 . S
H660 C658 0.961 . S
H661 C658 0.960 . S
C662 N663 1.342 . S
C662 C666 1.401 . S
C662 C667 1.499 . S
N663 Co646 1.989 . S
N663 C662 1.342 . S
N663 N664 1.388 . S
N664 Co647 1.993 . S
N664 N663 1.388 . S
N664 C665 1.346 . S
C665 N664 1.346 . S
C665 C666 1.396 . S
C665 C675 1.510 . S
C666 C662 1.401 . S
C666 C665 1.396 . S
C667 C662 1.499 . S
C667 H668 0.959 . S
C667 H669 0.960 . S
C667 H670 0.961 . S
H668 C667 0.959 . S
H669 C667 0.960 . S
H670 C667 0.961 . S
O671 Co646 1.967 . S
O671 C679 1.258 . S
O672 Co647 1.941 . S
O672 C679 1.266 . S
H673 C675 0.959 . S
H674 C675 0.961 . S
C675 C665 1.510 . S
C675 H673 0.959 . S
C675 H674 0.961 . S
C675 H676 0.960 . S
H676 C675 0.960 . S
H677 N657 0.862 . S
O678 Co646 1.920 . S
O678 C651 1.289 . S
C679 O671 1.258 . S
C679 O672 1.266 . S
Co680 O683 1.970 . S
Co680 N697 1.989 . S
Co680 O705 1.967 . S
Co680 O712 1.920 . S
Co681 O684 1.966 . S
Co681 N690 2.022 . S
Co681 N698 1.993 . S
Co681 O706 1.941 . S
C682 O683 1.258 . S
C682 O684 1.263 . S
O683 Co680 1.970 . S
O683 C682 1.258 . S
O684 Co681 1.966 . S
O684 C682 1.263 . S
C685 O686 1.235 . S
C685 O712 1.289 . S
O686 C685 1.235 . S
C687 C689 1.400 . S
C687 N690 1.351 . S
C687 C692 1.501 . S
C688 C689 1.387 . S
C688 N691 1.341 . S
C689 C687 1.400 . S
C689 C688 1.387 . S
N690 Co681 2.022 . S
N690 C687 1.351 . S
N690 N691 1.365 . S
N691 C688 1.341 . S
N691 N690 1.365 . S
N691 H711 0.862 . S
C692 C687 1.501 . S
C692 H693 0.961 . S
C692 H694 0.961 . S
C692 H695 0.960 . S
H693 C692 0.961 . S
H694 C692 0.961 . S
H695 C692 0.960 . S
C696 N697 1.342 . S
C696 C700 1.401 . S
C696 C701 1.499 . S
N697 Co680 1.989 . S
N697 C696 1.342 . S
N697 N698 1.388 . S
N698 Co681 1.993 . S
N698 N697 1.388 . S
N698 C699 1.346 . S
C699 N698 1.346 . S
C699 C700 1.396 . S
C699 C709 1.510 . S
C700 C696 1.401 . S
C700 C699 1.396 . S
C701 C696 1.499 . S
C701 H702 0.959 . S
C701 H703 0.960 . S
C701 H704 0.961 . S
H702 C701 0.959 . S
H703 C701 0.960 . S
H704 C701 0.961 . S
O705 Co680 1.967 . S
O705 C713 1.258 . S
O706 Co681 1.941 . S
O706 C713 1.266 . S
H707 C709 0.959 . S
H708 C709 0.961 . S
C709 C699 1.510 . S
C709 H707 0.959 . S
C709 H708 0.961 . S
C709 H710 0.960 . S
H710 C709 0.960 . S
H711 N691 0.862 . S
O712 Co680 1.920 . S
O712 C685 1.289 . S
C713 O705 1.258 . S
C713 O706 1.266 . S
Co714 O717 1.970 . S
Co714 N731 1.989 . S
Co714 O739 1.967 . S
Co714 O746 1.920 . S
Co715 O718 1.966 . S
Co715 N724 2.022 . S
Co715 N732 1.993 . S
Co715 O740 1.941 1_554 S
C716 O717 1.258 1_554 S
C716 O718 1.263 . S
O717 Co714 1.970 . S
O717 C716 1.258 1_556 S
O718 Co715 1.966 . S
O718 C716 1.263 . S
C719 O720 1.235 . S
C719 O746 1.289 . S
O720 C719 1.235 . S
C721 C723 1.400 . S
C721 N724 1.351 . S
C721 C726 1.501 . S
C722 C723 1.387 . S
C722 N725 1.341 . S
C723 C721 1.400 . S
C723 C722 1.387 . S
N724 Co715 2.022 . S
N724 C721 1.351 . S
N724 N725 1.365 . S
N725 C722 1.341 . S
N725 N724 1.365 . S
N725 H745 0.862 . S
C726 C721 1.501 . S
C726 H727 0.961 . S
C726 H728 0.961 . S
C726 H729 0.960 . S
H727 C726 0.961 . S
H728 C726 0.961 . S
H729 C726 0.960 . S
C730 N731 1.342 . S
C730 C734 1.401 1_556 S
C730 C735 1.499 . S
N731 Co714 1.989 . S
N731 C730 1.342 . S
N731 N732 1.388 1_556 S
N732 Co715 1.993 . S
N732 N731 1.388 1_554 S
N732 C733 1.346 . S
C733 N732 1.346 . S
C733 C734 1.396 . S
C733 C743 1.510 . S
C734 C730 1.401 1_554 S
C734 C733 1.396 . S
C735 C730 1.499 . S
C735 H736 0.959 . S
C735 H737 0.960 . S
C735 H738 0.961 . S
H736 C735 0.959 . S
H737 C735 0.960 . S
H738 C735 0.961 . S
O739 Co714 1.967 . S
O739 C747 1.258 . S
O740 Co715 1.941 1_556 S
O740 C747 1.266 . S
H741 C743 0.959 . S
H742 C743 0.961 . S
C743 C733 1.510 . S
C743 H741 0.959 . S
C743 H742 0.961 . S
C743 H744 0.960 . S
H744 C743 0.960 . S
H745 N725 0.862 . S
O746 Co714 1.920 . S
O746 C719 1.289 . S
C747 O739 1.258 . S
C747 O740 1.266 . S
Co748 O751 1.970 . S
Co748 N765 1.989 . S
Co748 O773 1.967 . S
Co748 O780 1.920 . S
Co749 O752 1.966 . S
Co749 N758 2.022 . S
Co749 N766 1.993 . S
Co749 O774 1.941 . S
C750 O751 1.258 . S
C750 O752 1.263 . S
O751 Co748 1.970 . S
O751 C750 1.258 . S
O752 Co749 1.966 . S
O752 C750 1.263 . S
C753 O754 1.235 . S
C753 O780 1.289 . S
O754 C753 1.235 . S
C755 C757 1.400 . S
C755 N758 1.351 . S
C755 C760 1.501 . S
C756 C757 1.387 . S
C756 N759 1.341 . S
C757 C755 1.400 . S
C757 C756 1.387 . S
N758 Co749 2.022 . S
N758 C755 1.351 . S
N758 N759 1.365 . S
N759 C756 1.341 . S
N759 N758 1.365 . S
N759 H779 0.862 . S
C760 C755 1.501 . S
C760 H761 0.961 . S
C760 H762 0.961 . S
C760 H763 0.960 . S
H761 C760 0.961 . S
H762 C760 0.961 . S
H763 C760 0.960 . S
C764 N765 1.342 . S
C764 C768 1.401 . S
C764 C769 1.499 . S
N765 Co748 1.989 . S
N765 C764 1.342 . S
N765 N766 1.388 . S
N766 Co749 1.993 . S
N766 N765 1.388 . S
N766 C767 1.346 . S
C767 N766 1.346 . S
C767 C768 1.396 . S
C767 C777 1.510 . S
C768 C764 1.401 . S
C768 C767 1.396 . S
C769 C764 1.499 . S
C769 H770 0.959 . S
C769 H771 0.960 . S
C769 H772 0.961 . S
H770 C769 0.959 . S
H771 C769 0.960 . S
H772 C769 0.961 . S
O773 Co748 1.967 . S
O773 C781 1.258 . S
O774 Co749 1.941 . S
O774 C781 1.266 . S
H775 C777 0.959 . S
H776 C777 0.961 . S
C777 C767 1.510 . S
C777 H775 0.959 . S
C777 H776 0.961 . S
C777 H778 0.960 . S
H778 C777 0.960 . S
H779 N759 0.862 . S
O780 Co748 1.920 . S
O780 C753 1.289 . S
C781 O773 1.258 . S
C781 O774 1.266 . S
Co782 O785 1.970 . S
Co782 N799 1.989 . S
Co782 O807 1.967 . S
Co782 O814 1.920 . S
Co783 O786 1.966 . S
Co783 N792 2.022 . S
Co783 N800 1.993 . S
Co783 O808 1.941 . S
C784 O785 1.258 . S
C784 O786 1.263 . S
O785 Co782 1.970 . S
O785 C784 1.258 . S
O786 Co783 1.966 . S
O786 C784 1.263 . S
C787 O788 1.235 . S
C787 O814 1.289 . S
O788 C787 1.235 . S
C789 C791 1.400 . S
C789 N792 1.351 . S
C789 C794 1.501 . S
C790 C791 1.387 . S
C790 N793 1.341 . S
C791 C789 1.400 . S
C791 C790 1.387 . S
N792 Co783 2.022 . S
N792 C789 1.351 . S
N792 N793 1.365 . S
N793 C790 1.341 . S
N793 N792 1.365 . S
N793 H813 0.862 . S
C794 C789 1.501 . S
C794 H795 0.961 . S
C794 H796 0.961 . S
C794 H797 0.960 . S
H795 C794 0.961 . S
H796 C794 0.961 . S
H797 C794 0.960 . S
C798 N799 1.342 . S
C798 C802 1.401 . S
C798 C803 1.499 . S
N799 Co782 1.989 . S
N799 C798 1.342 . S
N799 N800 1.388 . S
N800 Co783 1.993 . S
N800 N799 1.388 . S
N800 C801 1.346 . S
C801 N800 1.346 . S
C801 C802 1.396 . S
C801 C811 1.510 . S
C802 C798 1.401 . S
C802 C801 1.396 . S
C803 C798 1.499 . S
C803 H804 0.959 . S
C803 H805 0.960 . S
C803 H806 0.961 . S
H804 C803 0.959 . S
H805 C803 0.960 . S
H806 C803 0.961 . S
O807 Co782 1.967 . S
O807 C815 1.258 . S
O808 Co783 1.941 . S
O808 C815 1.266 . S
H809 C811 0.959 . S
H810 C811 0.961 . S
C811 C801 1.510 . S
C811 H809 0.959 . S
C811 H810 0.961 . S
C811 H812 0.960 . S
H812 C811 0.960 . S
H813 N793 0.862 . S
O814 Co782 1.920 . S
O814 C787 1.289 . S
C815 O807 1.258 . S
C815 O808 1.266 . S
Co816 O819 1.970 . S
Co816 N833 1.989 . S
Co816 O841 1.967 . S
Co816 O848 1.920 . S
Co817 O820 1.966 . S
Co817 N826 2.022 . S
Co817 N834 1.993 . S
Co817 O842 1.941 . S
C818 O819 1.258 . S
C818 O820 1.263 . S
O819 Co816 1.970 . S
O819 C818 1.258 . S
O820 Co817 1.966 . S
O820 C818 1.263 . S
C821 O822 1.235 . S
C821 O848 1.289 . S
O822 C821 1.235 . S
C823 C825 1.400 . S
C823 N826 1.351 . S
C823 C828 1.501 . S
C824 C825 1.387 . S
C824 N827 1.341 . S
C825 C823 1.400 . S
C825 C824 1.387 . S
N826 Co817 2.022 . S
N826 C823 1.351 . S
N826 N827 1.365 . S
N827 C824 1.341 . S
N827 N826 1.365 . S
N827 H847 0.862 . S
C828 C823 1.501 . S
C828 H829 0.961 . S
C828 H830 0.961 . S
C828 H831 0.960 . S
H829 C828 0.961 . S
H830 C828 0.961 . S
H831 C828 0.960 . S
C832 N833 1.342 . S
C832 C836 1.401 . S
C832 C837 1.499 . S
N833 Co816 1.989 . S
N833 C832 1.342 . S
N833 N834 1.388 . S
N834 Co817 1.993 . S
N834 N833 1.388 . S
N834 C835 1.346 . S
C835 N834 1.346 . S
C835 C836 1.396 . S
C835 C845 1.510 . S
C836 C832 1.401 . S
C836 C835 1.396 . S
C837 C832 1.499 . S
C837 H838 0.959 . S
C837 H839 0.960 . S
C837 H840 0.961 . S
H838 C837 0.959 . S
H839 C837 0.960 . S
H840 C837 0.961 . S
O841 Co816 1.967 . S
O841 C849 1.258 . S
O842 Co817 1.941 . S
O842 C849 1.266 . S
H843 C845 0.959 . S
H844 C845 0.961 . S
C845 C835 1.510 . S
C845 H843 0.959 . S
C845 H844 0.961 . S
C845 H846 0.960 . S
H846 C845 0.960 . S
H847 N827 0.862 . S
O848 Co816 1.920 . S
O848 C821 1.289 . S
C849 O841 1.258 . S
C849 O842 1.266 . S
Co850 O853 1.970 . S
Co850 N867 1.989 . S
Co850 O875 1.967 . S
Co850 O882 1.920 . S
Co851 O854 1.966 . S
Co851 N860 2.022 . S
Co851 N868 1.993 . S
Co851 O876 1.941 1_554 S
C852 O853 1.258 1_554 S
C852 O854 1.263 . S
O853 Co850 1.970 . S
O853 C852 1.258 1_556 S
O854 Co851 1.966 . S
O854 C852 1.263 . S
C855 O856 1.235 . S
C855 O882 1.289 . S
O856 C855 1.235 . S
C857 C859 1.400 . S
C857 N860 1.351 . S
C857 C862 1.501 . S
C858 C859 1.387 . S
C858 N861 1.341 . S
C859 C857 1.400 . S
C859 C858 1.387 . S
N860 Co851 2.022 . S
N860 C857 1.351 . S
N860 N861 1.365 . S
N861 C858 1.341 . S
N861 N860 1.365 . S
N861 H881 0.862 . S
C862 C857 1.501 . S
C862 H863 0.961 . S
C862 H864 0.961 . S
C862 H865 0.960 . S
H863 C862 0.961 . S
H864 C862 0.961 . S
H865 C862 0.960 . S
C866 N867 1.342 . S
C866 C870 1.401 1_556 S
C866 C871 1.499 . S
N867 Co850 1.989 . S
N867 C866 1.342 . S
N867 N868 1.388 1_556 S
N868 Co851 1.993 . S
N868 N867 1.388 1_554 S
N868 C869 1.346 . S
C869 N868 1.346 . S
C869 C870 1.396 . S
C869 C879 1.510 . S
C870 C866 1.401 1_554 S
C870 C869 1.396 . S
C871 C866 1.499 . S
C871 H872 0.959 . S
C871 H873 0.960 . S
C871 H874 0.961 . S
H872 C871 0.959 . S
H873 C871 0.960 . S
H874 C871 0.961 . S
O875 Co850 1.967 . S
O875 C883 1.258 . S
O876 Co851 1.941 1_556 S
O876 C883 1.266 . S
H877 C879 0.959 . S
H878 C879 0.961 . S
C879 C869 1.510 . S
C879 H877 0.959 . S
C879 H878 0.961 . S
C879 H880 0.960 . S
H880 C879 0.960 . S
H881 N861 0.862 . S
O882 Co850 1.920 . S
O882 C855 1.289 . S
C883 O875 1.258 . S
C883 O876 1.266 . S
Co884 O887 1.970 . S
Co884 N901 1.989 . S
Co884 O909 1.967 . S
Co884 O916 1.920 . S
Co885 O888 1.966 . S
Co885 N894 2.022 . S
Co885 N902 1.993 . S
Co885 O910 1.941 . S
C886 O887 1.258 . S
C886 O888 1.263 . S
O887 Co884 1.970 . S
O887 C886 1.258 . S
O888 Co885 1.966 . S
O888 C886 1.263 . S
C889 O890 1.235 . S
C889 O916 1.289 . S
O890 C889 1.235 . S
C891 C893 1.400 . S
C891 N894 1.351 . S
C891 C896 1.501 . S
C892 C893 1.387 . S
C892 N895 1.341 . S
C893 C891 1.400 . S
C893 C892 1.387 . S
N894 Co885 2.022 . S
N894 C891 1.351 . S
N894 N895 1.365 . S
N895 C892 1.341 . S
N895 N894 1.365 . S
N895 H915 0.862 . S
C896 C891 1.501 . S
C896 H897 0.961 . S
C896 H898 0.961 . S
C896 H899 0.960 . S
H897 C896 0.961 . S
H898 C896 0.961 . S
H899 C896 0.960 . S
C900 N901 1.342 . S
C900 C904 1.401 . S
C900 C905 1.499 . S
N901 Co884 1.989 . S
N901 C900 1.342 . S
N901 N902 1.388 . S
N902 Co885 1.993 . S
N902 N901 1.388 . S
N902 C903 1.346 . S
C903 N902 1.346 . S
C903 C904 1.396 . S
C903 C913 1.510 . S
C904 C900 1.401 . S
C904 C903 1.396 . S
C905 C900 1.499 . S
C905 H906 0.959 . S
C905 H907 0.960 . S
C905 H908 0.961 . S
H906 C905 0.959 . S
H907 C905 0.960 . S
H908 C905 0.961 . S
O909 Co884 1.967 . S
O909 C917 1.258 . S
O910 Co885 1.941 . S
O910 C917 1.266 . S
H911 C913 0.959 . S
H912 C913 0.961 . S
C913 C903 1.510 . S
C913 H911 0.959 . S
C913 H912 0.961 . S
C913 H914 0.960 . S
H914 C913 0.960 . S
H915 N895 0.862 . S
O916 Co884 1.920 . S
O916 C889 1.289 . S
C917 O909 1.258 . S
C917 O910 1.266 . S
Co918 O921 1.970 . S
Co918 N935 1.989 . S
Co918 O943 1.967 . S
Co918 O950 1.920 . S
Co919 O922 1.966 . S
Co919 N928 2.022 . S
Co919 N936 1.993 . S
Co919 O944 1.941 . S
C920 O921 1.258 . S
C920 O922 1.263 . S
O921 Co918 1.970 . S
O921 C920 1.258 . S
O922 Co919 1.966 . S
O922 C920 1.263 . S
C923 O924 1.235 . S
C923 O950 1.289 . S
O924 C923 1.235 . S
C925 C927 1.400 . S
C925 N928 1.351 . S
C925 C930 1.501 . S
C926 C927 1.387 . S
C926 N929 1.341 . S
C927 C925 1.400 . S
C927 C926 1.387 . S
N928 Co919 2.022 . S
N928 C925 1.351 . S
N928 N929 1.365 . S
N929 C926 1.341 . S
N929 N928 1.365 . S
N929 H949 0.862 . S
C930 C925 1.501 . S
C930 H931 0.961 . S
C930 H932 0.961 . S
C930 H933 0.960 . S
H931 C930 0.961 . S
H932 C930 0.961 . S
H933 C930 0.960 . S
C934 N935 1.342 . S
C934 C938 1.401 . S
C934 C939 1.499 . S
N935 Co918 1.989 . S
N935 C934 1.342 . S
N935 N936 1.388 . S
N936 Co919 1.993 . S
N936 N935 1.388 . S
N936 C937 1.346 . S
C937 N936 1.346 . S
C937 C938 1.396 . S
C937 C947 1.510 . S
C938 C934 1.401 . S
C938 C937 1.396 . S
C939 C934 1.499 . S
C939 H940 0.959 . S
C939 H941 0.960 . S
C939 H942 0.961 . S
H940 C939 0.959 . S
H941 C939 0.960 . S
H942 C939 0.961 . S
O943 Co918 1.967 . S
O943 C951 1.258 . S
O944 Co919 1.941 . S
O944 C951 1.266 . S
H945 C947 0.959 . S
H946 C947 0.961 . S
C947 C937 1.510 . S
C947 H945 0.959 . S
C947 H946 0.961 . S
C947 H948 0.960 . S
H948 C947 0.960 . S
H949 N929 0.862 . S
O950 Co918 1.920 . S
O950 C923 1.289 . S
C951 O943 1.258 . S
C951 O944 1.266 . S
Co952 O955 1.970 . S
Co952 N969 1.989 . S
Co952 O977 1.967 . S
Co952 O984 1.920 . S
Co953 O956 1.966 . S
Co953 N962 2.022 . S
Co953 N970 1.993 . S
Co953 O978 1.941 . S
C954 O955 1.258 . S
C954 O956 1.263 . S
O955 Co952 1.970 . S
O955 C954 1.258 . S
O956 Co953 1.966 . S
O956 C954 1.263 . S
C957 O958 1.235 . S
C957 O984 1.289 . S
O958 C957 1.235 . S
C959 C961 1.400 . S
C959 N962 1.351 . S
C959 C964 1.501 . S
C960 C961 1.387 . S
C960 N963 1.341 . S
C961 C959 1.400 . S
C961 C960 1.387 . S
N962 Co953 2.022 . S
N962 C959 1.351 . S
N962 N963 1.365 . S
N963 C960 1.341 . S
N963 N962 1.365 . S
N963 H983 0.862 . S
C964 C959 1.501 . S
C964 H965 0.961 . S
C964 H966 0.961 . S
C964 H967 0.960 . S
H965 C964 0.961 . S
H966 C964 0.961 . S
H967 C964 0.960 . S
C968 N969 1.342 . S
C968 C972 1.401 . S
C968 C973 1.499 . S
N969 Co952 1.989 . S
N969 C968 1.342 . S
N969 N970 1.388 . S
N970 Co953 1.993 . S
N970 N969 1.388 . S
N970 C971 1.346 . S
C971 N970 1.346 . S
C971 C972 1.396 . S
C971 C981 1.510 . S
C972 C968 1.401 . S
C972 C971 1.396 . S
C973 C968 1.499 . S
C973 H974 0.959 . S
C973 H975 0.960 . S
C973 H976 0.961 . S
H974 C973 0.959 . S
H975 C973 0.960 . S
H976 C973 0.961 . S
O977 Co952 1.967 . S
O977 C985 1.258 . S
O978 Co953 1.941 . S
O978 C985 1.266 . S
H979 C981 0.959 . S
H980 C981 0.961 . S
C981 C971 1.510 . S
C981 H979 0.959 . S
C981 H980 0.961 . S
C981 H982 0.960 . S
H982 C981 0.960 . S
H983 N963 0.862 . S
O984 Co952 1.920 . S
O984 C957 1.289 . S
C985 O977 1.258 . S
C985 O978 1.266 . S
Co986 O989 1.970 . S
Co986 N1003 1.989 . S
Co986 O1011 1.967 . S
Co986 O1018 1.920 . S
Co987 O990 1.966 . S
Co987 N996 2.022 . S
Co987 N1004 1.993 . S
Co987 O1012 1.941 1_556 S
C988 O989 1.258 1_556 S
C988 O990 1.263 . S
O989 Co986 1.970 . S
O989 C988 1.258 1_554 S
O990 Co987 1.966 . S
O990 C988 1.263 . S
C991 O992 1.235 . S
C991 O1018 1.289 . S
O992 C991 1.235 . S
C993 C995 1.400 . S
C993 N996 1.351 . S
C993 C998 1.501 . S
C994 C995 1.387 . S
C994 N997 1.341 . S
C995 C993 1.400 . S
C995 C994 1.387 . S
N996 Co987 2.022 . S
N996 C993 1.351 . S
N996 N997 1.365 . S
N997 C994 1.341 . S
N997 N996 1.365 . S
N997 H1017 0.862 . S
C998 C993 1.501 . S
C998 H999 0.961 . S
C998 H1000 0.961 . S
C998 H1001 0.960 . S
H999 C998 0.961 . S
H1000 C998 0.961 . S
H1001 C998 0.960 . S
C1002 N1003 1.342 . S
C1002 C1006 1.401 1_554 S
C1002 C1007 1.499 . S
N1003 Co986 1.989 . S
N1003 C1002 1.342 . S
N1003 N1004 1.388 1_554 S
N1004 Co987 1.993 . S
N1004 N1003 1.388 1_556 S
N1004 C1005 1.346 . S
C1005 N1004 1.346 . S
C1005 C1006 1.396 . S
C1005 C1015 1.510 . S
C1006 C1002 1.401 1_556 S
C1006 C1005 1.396 . S
C1007 C1002 1.499 . S
C1007 H1008 0.959 . S
C1007 H1009 0.960 . S
C1007 H1010 0.961 . S
H1008 C1007 0.959 . S
H1009 C1007 0.960 . S
H1010 C1007 0.961 . S
O1011 Co986 1.967 . S
O1011 C1019 1.258 . S
O1012 Co987 1.941 1_554 S
O1012 C1019 1.266 . S
H1013 C1015 0.959 . S
H1014 C1015 0.961 . S
C1015 C1005 1.510 . S
C1015 H1013 0.959 . S
C1015 H1014 0.961 . S
C1015 H1016 0.960 . S
H1016 C1015 0.960 . S
H1017 N997 0.862 . S
O1018 Co986 1.920 . S
O1018 C991 1.289 . S
C1019 O1011 1.258 . S
C1019 O1012 1.266 . S
Co1020 O1023 1.970 . S
Co1020 N1037 1.989 . S
Co1020 O1045 1.967 . S
Co1020 O1052 1.920 . S
Co1021 O1024 1.966 . S
Co1021 N1030 2.022 . S
Co1021 N1038 1.993 . S
Co1021 O1046 1.941 . S
C1022 O1023 1.258 . S
C1022 O1024 1.263 . S
O1023 Co1020 1.970 . S
O1023 C1022 1.258 . S
O1024 Co1021 1.966 . S
O1024 C1022 1.263 . S
C1025 O1026 1.235 . S
C1025 O1052 1.289 . S
O1026 C1025 1.235 . S
C1027 C1029 1.400 . S
C1027 N1030 1.351 . S
C1027 C1032 1.501 . S
C1028 C1029 1.387 . S
C1028 N1031 1.341 . S
C1029 C1027 1.400 . S
C1029 C1028 1.387 . S
N1030 Co1021 2.022 . S
N1030 C1027 1.351 . S
N1030 N1031 1.365 . S
N1031 C1028 1.341 . S
N1031 N1030 1.365 . S
N1031 H1051 0.862 . S
C1032 C1027 1.501 . S
C1032 H1033 0.961 . S
C1032 H1034 0.961 . S
C1032 H1035 0.960 . S
H1033 C1032 0.961 . S
H1034 C1032 0.961 . S
H1035 C1032 0.960 . S
C1036 N1037 1.342 . S
C1036 C1040 1.401 . S
C1036 C1041 1.499 . S
N1037 Co1020 1.989 . S
N1037 C1036 1.342 . S
N1037 N1038 1.388 . S
N1038 Co1021 1.993 . S
N1038 N1037 1.388 . S
N1038 C1039 1.346 . S
C1039 N1038 1.346 . S
C1039 C1040 1.396 . S
C1039 C1049 1.510 . S
C1040 C1036 1.401 . S
C1040 C1039 1.396 . S
C1041 C1036 1.499 . S
C1041 H1042 0.959 . S
C1041 H1043 0.960 . S
C1041 H1044 0.961 . S
H1042 C1041 0.959 . S
H1043 C1041 0.960 . S
H1044 C1041 0.961 . S
O1045 Co1020 1.967 . S
O1045 C1053 1.258 . S
O1046 Co1021 1.941 . S
O1046 C1053 1.266 . S
H1047 C1049 0.959 . S
H1048 C1049 0.961 . S
C1049 C1039 1.510 . S
C1049 H1047 0.959 . S
C1049 H1048 0.961 . S
C1049 H1050 0.960 . S
H1050 C1049 0.960 . S
H1051 N1031 0.862 . S
O1052 Co1020 1.920 . S
O1052 C1025 1.289 . S
C1053 O1045 1.258 . S
C1053 O1046 1.266 . S
Co1054 O1057 1.970 . S
Co1054 N1071 1.989 . S
Co1054 O1079 1.967 . S
Co1054 O1086 1.920 . S
Co1055 O1058 1.966 . S
Co1055 N1064 2.022 . S
Co1055 N1072 1.993 . S
Co1055 O1080 1.941 . S
C1056 O1057 1.258 . S
C1056 O1058 1.263 . S
O1057 Co1054 1.970 . S
O1057 C1056 1.258 . S
O1058 Co1055 1.966 . S
O1058 C1056 1.263 . S
C1059 O1060 1.235 . S
C1059 O1086 1.289 . S
O1060 C1059 1.235 . S
C1061 C1063 1.400 . S
C1061 N1064 1.351 . S
C1061 C1066 1.501 . S
C1062 C1063 1.387 . S
C1062 N1065 1.341 . S
C1063 C1061 1.400 . S
C1063 C1062 1.387 . S
N1064 Co1055 2.022 . S
N1064 C1061 1.351 . S
N1064 N1065 1.365 . S
N1065 C1062 1.341 . S
N1065 N1064 1.365 . S
N1065 H1085 0.862 . S
C1066 C1061 1.501 . S
C1066 H1067 0.961 . S
C1066 H1068 0.961 . S
C1066 H1069 0.960 . S
H1067 C1066 0.961 . S
H1068 C1066 0.961 . S
H1069 C1066 0.960 . S
C1070 N1071 1.342 . S
C1070 C1074 1.401 . S
C1070 C1075 1.499 . S
N1071 Co1054 1.989 . S
N1071 C1070 1.342 . S
N1071 N1072 1.388 . S
N1072 Co1055 1.993 . S
N1072 N1071 1.388 . S
N1072 C1073 1.346 . S
C1073 N1072 1.346 . S
C1073 C1074 1.396 . S
C1073 C1083 1.510 . S
C1074 C1070 1.401 . S
C1074 C1073 1.396 . S
C1075 C1070 1.499 . S
C1075 H1076 0.959 . S
C1075 H1077 0.960 . S
C1075 H1078 0.961 . S
H1076 C1075 0.959 . S
H1077 C1075 0.960 . S
H1078 C1075 0.961 . S
O1079 Co1054 1.967 . S
O1079 C1087 1.258 . S
O1080 Co1055 1.941 . S
O1080 C1087 1.266 . S
H1081 C1083 0.959 . S
H1082 C1083 0.961 . S
C1083 C1073 1.510 . S
C1083 H1081 0.959 . S
C1083 H1082 0.961 . S
C1083 H1084 0.960 . S
H1084 C1083 0.960 . S
H1085 N1065 0.862 . S
O1086 Co1054 1.920 . S
O1086 C1059 1.289 . S
C1087 O1079 1.258 . S
C1087 O1080 1.266 . S
H1088 C1096 0.950 . S
H1089 C1101 0.950 . S
H1090 C1098 0.950 . S
H1091 C1100 0.950 . S
H1092 C1102 0.950 . S
H1093 C1104 0.950 . S
H1094 C1106 0.950 . S
H1095 C1107 0.950 . S
C1096 H1088 0.950 . S
C1096 C1097 1.386 . S
C1096 C1098 1.391 . S
C1097 C1096 1.386 . S
C1097 C1101 1.393 . S
C1098 H1090 0.950 . S
C1098 C1096 1.391 . S
C1098 C1099 1.400 . S
C1099 C1098 1.400 . S
C1099 C1100 1.398 . S
C1099 C1105 1.491 . S
C1100 H1091 0.950 . S
C1100 C1099 1.398 . S
C1100 C1101 1.391 . S
C1101 H1089 0.950 . S
C1101 C1097 1.393 . S
C1101 C1100 1.391 . S
C1102 H1092 0.950 . S
C1102 C1103 1.386 . S
C1102 C1104 1.391 . S
C1103 C1102 1.386 . S
C1103 C1107 1.393 . S
C1104 H1093 0.950 . S
C1104 C1102 1.391 . S
C1104 C1105 1.400 . S
C1105 C1099 1.491 . S
C1105 C1104 1.400 . S
C1105 C1106 1.398 . S
C1106 H1094 0.950 . S
C1106 C1105 1.398 . S
C1106 C1107 1.391 . S
C1107 H1095 0.950 . S
C1107 C1103 1.393 . S
C1107 C1106 1.391 . S
H1108 C1116 0.950 . S
H1109 C1121 0.950 . S
H1110 C1118 0.950 1_545 S
H1111 C1120 0.950 1_655 S
H1112 C1122 0.950 . S
H1113 C1124 0.950 1_565 S
H1114 C1126 0.950 1_455 S
H1115 C1127 0.950 . S
C1116 H1108 0.950 . S
C1116 C1117 1.386 . S
C1116 C1118 1.391 . S
C1117 C1116 1.386 . S
C1117 C1121 1.393 . S
C1118 H1110 0.950 1_565 S
C1118 C1116 1.391 . S
C1118 C1119 1.400 . S
C1119 C1118 1.400 . S
C1119 C1120 1.398 . S
C1119 C1125 1.491 1_465 S
C1120 H1111 0.950 1_455 S
C1120 C1119 1.398 . S
C1120 C1121 1.391 . S
C1121 H1109 0.950 . S
C1121 C1117 1.393 . S
C1121 C1120 1.391 . S
C1122 H1112 0.950 . S
C1122 C1123 1.386 . S
C1122 C1124 1.391 . S
C1123 C1122 1.386 . S
C1123 C1127 1.393 . S
C1124 H1113 0.950 1_545 S
C1124 C1122 1.391 . S
C1124 C1125 1.400 . S
C1125 C1119 1.491 1_645 S
C1125 C1124 1.400 . S
C1125 C1126 1.398 . S
C1126 H1114 0.950 1_655 S
C1126 C1125 1.398 . S
C1126 C1127 1.391 . S
C1127 H1115 0.950 . S
C1127 C1123 1.393 . S
C1127 C1126 1.391 . S
H1128 C1136 0.950 . S
H1129 C1141 0.950 . S
H1130 C1138 0.950 . S
H1131 C1140 0.950 . S
H1132 C1142 0.950 . S
H1133 C1144 0.950 . S
H1134 C1146 0.950 . S
H1135 C1147 0.950 . S
C1136 H1128 0.950 . S
C1136 C1137 1.386 . S
C1136 C1138 1.391 . S
C1137 C1136 1.386 . S
C1137 C1141 1.393 . S
C1138 H1130 0.950 . S
C1138 C1136 1.391 . S
C1138 C1139 1.400 . S
C1139 C1138 1.400 . S
C1139 C1140 1.398 . S
C1139 C1145 1.491 . S
C1140 H1131 0.950 . S
C1140 C1139 1.398 . S
C1140 C1141 1.391 . S
C1141 H1129 0.950 . S
C1141 C1137 1.393 . S
C1141 C1140 1.391 . S
C1142 H1132 0.950 . S
C1142 C1143 1.386 . S
C1142 C1144 1.391 . S
C1143 C1142 1.386 . S
C1143 C1147 1.393 . S
C1144 H1133 0.950 . S
C1144 C1142 1.391 . S
C1144 C1145 1.400 . S
C1145 C1139 1.491 . S
C1145 C1144 1.400 . S
C1145 C1146 1.398 . S
C1146 H1134 0.950 . S
C1146 C1145 1.398 . S
C1146 C1147 1.391 . S
C1147 H1135 0.950 . S
C1147 C1143 1.393 . S
C1147 C1146 1.391 . S
H1148 C1156 0.950 . S
H1149 C1161 0.950 . S
H1150 C1158 0.950 1_565 S
H1151 C1160 0.950 . S
H1152 C1162 0.950 . S
H1153 C1164 0.950 1_545 S
H1154 C1166 0.950 . S
H1155 C1167 0.950 . S
C1156 H1148 0.950 . S
C1156 C1157 1.386 1_554 S
C1156 C1158 1.391 . S
C1157 C1156 1.386 1_556 S
C1157 C1161 1.393 . S
C1158 H1150 0.950 1_545 S
C1158 C1156 1.391 . S
C1158 C1159 1.400 1_554 S
C1159 C1158 1.400 1_556 S
C1159 C1160 1.398 . S
C1159 C1165 1.491 1_546 S
C1160 H1151 0.950 . S
C1160 C1159 1.398 . S
C1160 C1161 1.391 . S
C1161 H1149 0.950 . S
C1161 C1157 1.393 . S
C1161 C1160 1.391 . S
C1162 H1152 0.950 . S
C1162 C1163 1.386 1_556 S
C1162 C1164 1.391 . S
C1163 C1162 1.386 1_554 S
C1163 C1167 1.393 . S
C1164 H1153 0.950 1_565 S
C1164 C1162 1.391 . S
C1164 C1165 1.400 1_556 S
C1165 C1159 1.491 1_564 S
C1165 C1164 1.400 1_554 S
C1165 C1166 1.398 . S
C1166 H1154 0.950 . S
C1166 C1165 1.398 . S
C1166 C1167 1.391 . S
C1167 H1155 0.950 . S
C1167 C1163 1.393 . S
C1167 C1166 1.391 . S
H1168 C1176 0.950 . S
H1169 C1181 0.950 . S
H1170 C1178 0.950 . S
H1171 C1180 0.950 . S
H1172 C1182 0.950 . S
H1173 C1184 0.950 . S
H1174 C1186 0.950 . S
H1175 C1187 0.950 . S
C1176 H1168 0.950 . S
C1176 C1177 1.386 . S
C1176 C1178 1.391 . S
C1177 C1176 1.386 . S
C1177 C1181 1.393 . S
C1178 H1170 0.950 . S
C1178 C1176 1.391 . S
C1178 C1179 1.400 . S
C1179 C1178 1.400 . S
C1179 C1180 1.398 . S
C1179 C1185 1.491 . S
C1180 H1171 0.950 . S
C1180 C1179 1.398 . S
C1180 C1181 1.391 . S
C1181 H1169 0.950 . S
C1181 C1177 1.393 . S
C1181 C1180 1.391 . S
C1182 H1172 0.950 . S
C1182 C1183 1.386 . S
C1182 C1184 1.391 . S
C1183 C1182 1.386 . S
C1183 C1187 1.393 . S
C1184 H1173 0.950 . S
C1184 C1182 1.391 . S
C1184 C1185 1.400 . S
C1185 C1179 1.491 . S
C1185 C1184 1.400 . S
C1185 C1186 1.398 . S
C1186 H1174 0.950 . S
C1186 C1185 1.398 . S
C1186 C1187 1.391 . S
C1187 H1175 0.950 . S
C1187 C1183 1.393 . S
C1187 C1186 1.391 . S
H1188 C1196 0.950 . S
H1189 C1201 0.950 . S
H1190 C1198 0.950 1_545 S
H1191 C1200 0.950 . S
H1192 C1202 0.950 . S
H1193 C1204 0.950 1_565 S
H1194 C1206 0.950 . S
H1195 C1207 0.950 . S
C1196 H1188 0.950 . S
C1196 C1197 1.386 . S
C1196 C1198 1.391 . S
C1197 C1196 1.386 . S
C1197 C1201 1.393 . S
C1198 H1190 0.950 1_565 S
C1198 C1196 1.391 . S
C1198 C1199 1.400 . S
C1199 C1198 1.400 . S
C1199 C1200 1.398 . S
C1199 C1205 1.491 1_565 S
C1200 H1191 0.950 . S
C1200 C1199 1.398 . S
C1200 C1201 1.391 . S
C1201 H1189 0.950 . S
C1201 C1197 1.393 . S
C1201 C1200 1.391 . S
C1202 H1192 0.950 . S
C1202 C1203 1.386 . S
C1202 C1204 1.391 . S
C1203 C1202 1.386 . S
C1203 C1207 1.393 . S
C1204 H1193 0.950 1_545 S
C1204 C1202 1.391 . S
C1204 C1205 1.400 . S
C1205 C1199 1.491 1_545 S
C1205 C1204 1.400 . S
C1205 C1206 1.398 . S
C1206 H1194 0.950 . S
C1206 C1205 1.398 . S
C1206 C1207 1.391 . S
C1207 H1195 0.950 . S
C1207 C1203 1.393 . S
C1207 C1206 1.391 . S
H1208 C1216 0.950 . S
H1209 C1221 0.950 . S
H1210 C1218 0.950 . S
H1211 C1220 0.950 . S
H1212 C1222 0.950 . S
H1213 C1224 0.950 . S
H1214 C1226 0.950 . S
H1215 C1227 0.950 . S
C1216 H1208 0.950 . S
C1216 C1217 1.386 . S
C1216 C1218 1.391 . S
C1217 C1216 1.386 . S
C1217 C1221 1.393 . S
C1218 H1210 0.950 . S
C1218 C1216 1.391 . S
C1218 C1219 1.400 . S
C1219 C1218 1.400 . S
C1219 C1220 1.398 . S
C1219 C1225 1.491 . S
C1220 H1211 0.950 . S
C1220 C1219 1.398 . S
C1220 C1221 1.391 . S
C1221 H1209 0.950 . S
C1221 C1217 1.393 . S
C1221 C1220 1.391 . S
C1222 H1212 0.950 . S
C1222 C1223 1.386 . S
C1222 C1224 1.391 . S
C1223 C1222 1.386 . S
C1223 C1227 1.393 . S
C1224 H1213 0.950 . S
C1224 C1222 1.391 . S
C1224 C1225 1.400 . S
C1225 C1219 1.491 . S
C1225 C1224 1.400 . S
C1225 C1226 1.398 . S
C1226 H1214 0.950 . S
C1226 C1225 1.398 . S
C1226 C1227 1.391 . S
C1227 H1215 0.950 . S
C1227 C1223 1.393 . S
C1227 C1226 1.391 . S
H1228 C1236 0.950 . S
H1229 C1241 0.950 . S
H1230 C1238 0.950 1_655 S
H1231 C1240 0.950 1_565 S
H1232 C1242 0.950 . S
H1233 C1244 0.950 1_455 S
H1234 C1246 0.950 1_545 S
H1235 C1247 0.950 . S
C1236 H1228 0.950 . S
C1236 C1237 1.386 . S
C1236 C1238 1.391 . S
C1237 C1236 1.386 . S
C1237 C1241 1.393 1_554 S
C1238 H1230 0.950 1_455 S
C1238 C1236 1.391 . S
C1238 C1239 1.414 . S
C1239 C1238 1.414 . S
C1239 C1240 1.385 1_554 S
C1239 C1245 1.490 1_444 S
C1240 H1231 0.950 1_545 S
C1240 C1239 1.385 1_556 S
C1240 C1241 1.391 . S
C1241 H1229 0.950 . S
C1241 C1237 1.393 1_556 S
C1241 C1240 1.391 . S
C1242 H1232 0.950 . S
C1242 C1243 1.386 . S
C1242 C1244 1.391 . S
C1243 C1242 1.386 . S
C1243 C1247 1.393 1_556 S
C1244 H1233 0.950 1_655 S
C1244 C1242 1.391 . S
C1244 C1245 1.400 . S
C1245 C1239 1.490 1_666 S
C1245 C1244 1.400 . S
C1245 C1246 1.398 1_556 S
C1246 H1234 0.950 1_565 S
C1246 C1245 1.398 1_554 S
C1246 C1247 1.391 . S
C1247 H1235 0.950 . S
C1247 C1243 1.393 1_554 S
C1247 C1246 1.391 . S
H1248 C1256 0.950 . S
H1249 C1261 0.950 . S
H1250 C1258 0.950 . S
H1251 C1260 0.950 . S
H1252 C1262 0.950 . S
H1253 C1264 0.950 . S
H1254 C1266 0.950 . S
H1255 C1267 0.950 . S
C1256 H1248 0.950 . S
C1256 C1257 1.386 . S
C1256 C1258 1.391 . S
C1257 C1256 1.386 . S
C1257 C1261 1.393 . S
C1258 H1250 0.950 . S
C1258 C1256 1.391 . S
C1258 C1259 1.400 . S
C1259 C1258 1.400 . S
C1259 C1260 1.398 . S
C1259 C1265 1.491 . S
C1260 H1251 0.950 . S
C1260 C1259 1.398 . S
C1260 C1261 1.391 . S
C1261 H1249 0.950 . S
C1261 C1257 1.393 . S
C1261 C1260 1.391 . S
C1262 H1252 0.950 . S
C1262 C1263 1.386 . S
C1262 C1264 1.391 . S
C1263 C1262 1.386 . S
C1263 C1267 1.393 . S
C1264 H1253 0.950 . S
C1264 C1262 1.391 . S
C1264 C1265 1.400 . S
C1265 C1259 1.491 . S
C1265 C1264 1.400 . S
C1265 C1266 1.398 . S
C1266 H1254 0.950 . S
C1266 C1265 1.398 . S
C1266 C1267 1.391 . S
C1267 H1255 0.950 . S
C1267 C1263 1.393 . S
C1267 C1266 1.391 . S
H1268 C1276 0.950 . S
H1269 C1281 0.950 . S
H1270 C1278 0.950 . S
H1271 C1280 0.950 . S
H1272 C1282 0.950 . S
H1273 C1284 0.950 . S
H1274 C1286 0.950 . S
H1275 C1287 0.950 . S
C1276 H1268 0.950 . S
C1276 C1277 1.386 . S
C1276 C1278 1.391 . S
C1277 C1276 1.386 . S
C1277 C1281 1.393 . S
C1278 H1270 0.950 . S
C1278 C1276 1.391 . S
C1278 C1279 1.400 . S
C1279 C1278 1.400 . S
C1279 C1280 1.398 . S
C1279 C1285 1.491 . S
C1280 H1271 0.950 . S
C1280 C1279 1.398 . S
C1280 C1281 1.391 . S
C1281 H1269 0.950 . S
C1281 C1277 1.393 . S
C1281 C1280 1.391 . S
C1282 H1272 0.950 . S
C1282 C1283 1.386 . S
C1282 C1284 1.391 . S
C1283 C1282 1.386 . S
C1283 C1287 1.393 . S
C1284 H1273 0.950 . S
C1284 C1282 1.391 . S
C1284 C1285 1.400 . S
C1285 C1279 1.491 . S
C1285 C1284 1.400 . S
C1285 C1286 1.398 . S
C1286 H1274 0.950 . S
C1286 C1285 1.398 . S
C1286 C1287 1.391 . S
C1287 H1275 0.950 . S
C1287 C1283 1.393 . S
C1287 C1286 1.391 . S
H1288 C1296 0.950 . S
H1289 C1301 0.950 . S
H1290 C1298 0.950 . S
H1291 C1300 0.950 . S
H1292 C1302 0.950 . S
H1293 C1304 0.950 . S
H1294 C1306 0.950 . S
H1295 C1307 0.950 . S
C1296 H1288 0.950 . S
C1296 C1297 1.386 . S
C1296 C1298 1.391 . S
C1297 C1296 1.386 . S
C1297 C1301 1.393 . S
C1298 H1290 0.950 . S
C1298 C1296 1.391 . S
C1298 C1299 1.400 . S
C1299 C1298 1.400 . S
C1299 C1300 1.398 . S
C1299 C1305 1.491 . S
C1300 H1291 0.950 . S
C1300 C1299 1.398 . S
C1300 C1301 1.391 . S
C1301 H1289 0.950 . S
C1301 C1297 1.393 . S
C1301 C1300 1.391 . S
C1302 H1292 0.950 . S
C1302 C1303 1.386 . S
C1302 C1304 1.391 . S
C1303 C1302 1.386 . S
C1303 C1307 1.393 . S
C1304 H1293 0.950 . S
C1304 C1302 1.391 . S
C1304 C1305 1.400 . S
C1305 C1299 1.491 . S
C1305 C1304 1.400 . S
C1305 C1306 1.398 . S
C1306 H1294 0.950 . S
C1306 C1305 1.398 . S
C1306 C1307 1.391 . S
C1307 H1295 0.950 . S
C1307 C1303 1.393 . S
C1307 C1306 1.391 . S
H1308 C1316 0.950 . S
H1309 C1321 0.950 . S
H1310 C1318 0.950 . S
H1311 C1320 0.950 . S
H1312 C1322 0.950 . S
H1313 C1324 0.950 . S
H1314 C1326 0.950 . S
H1315 C1327 0.950 . S
C1316 H1308 0.950 . S
C1316 C1317 1.386 . S
C1316 C1318 1.391 . S
C1317 C1316 1.386 . S
C1317 C1321 1.393 . S
C1318 H1310 0.950 . S
C1318 C1316 1.391 . S
C1318 C1319 1.400 . S
C1319 C1318 1.400 . S
C1319 C1320 1.398 . S
C1319 C1325 1.491 . S
C1320 H1311 0.950 . S
C1320 C1319 1.398 . S
C1320 C1321 1.391 . S
C1321 H1309 0.950 . S
C1321 C1317 1.393 . S
C1321 C1320 1.391 . S
C1322 H1312 0.950 . S
C1322 C1323 1.386 . S
C1322 C1324 1.391 . S
C1323 C1322 1.386 . S
C1323 C1327 1.393 . S
C1324 H1313 0.950 . S
C1324 C1322 1.391 . S
C1324 C1325 1.400 . S
C1325 C1319 1.491 . S
C1325 C1324 1.400 . S
C1325 C1326 1.398 . S
C1326 H1314 0.950 . S
C1326 C1325 1.398 . S
C1326 C1327 1.391 . S
C1327 H1315 0.950 . S
C1327 C1323 1.393 . S
C1327 C1326 1.391 . S
H1328 C1336 0.950 . S
H1329 C1341 0.950 . S
H1330 C1338 0.950 . S
H1331 C1340 0.950 . S
H1332 C1342 0.950 . S
H1333 C1344 0.950 . S
H1334 C1346 0.950 . S
H1335 C1347 0.950 . S
C1336 H1328 0.950 . S
C1336 C1337 1.386 . S
C1336 C1338 1.391 . S
C1337 C1336 1.386 . S
C1337 C1341 1.393 1_556 S
C1338 H1330 0.950 . S
C1338 C1336 1.391 . S
C1338 C1339 1.400 . S
C1339 C1338 1.400 . S
C1339 C1340 1.398 1_556 S
C1339 C1345 1.491 1_556 S
C1340 H1331 0.950 . S
C1340 C1339 1.398 1_554 S
C1340 C1341 1.391 . S
C1341 H1329 0.950 . S
C1341 C1337 1.393 1_554 S
C1341 C1340 1.391 . S
C1342 H1332 0.950 . S
C1342 C1343 1.386 . S
C1342 C1344 1.391 . S
C1343 C1342 1.386 . S
C1343 C1347 1.393 1_554 S
C1344 H1333 0.950 . S
C1344 C1342 1.391 . S
C1344 C1345 1.400 . S
C1345 C1339 1.491 1_554 S
C1345 C1344 1.400 . S
C1345 C1346 1.398 1_554 S
C1346 H1334 0.950 . S
C1346 C1345 1.398 1_556 S
C1346 C1347 1.391 . S
C1347 H1335 0.950 . S
C1347 C1343 1.393 1_556 S
C1347 C1346 1.391 . S
H1348 C1356 0.950 . S
H1349 C1361 0.950 . S
H1350 C1358 0.950 . S
H1351 C1360 0.950 . S
H1352 C1362 0.950 . S
H1353 C1364 0.950 . S
H1354 C1366 0.950 . S
H1355 C1367 0.950 . S
C1356 H1348 0.950 . S
C1356 C1357 1.386 . S
C1356 C1358 1.391 . S
C1357 C1356 1.386 . S
C1357 C1361 1.393 . S
C1358 H1350 0.950 . S
C1358 C1356 1.391 . S
C1358 C1359 1.400 . S
C1359 C1358 1.400 . S
C1359 C1360 1.398 . S
C1359 C1365 1.491 1_655 S
C1360 H1351 0.950 . S
C1360 C1359 1.398 . S
C1360 C1361 1.391 . S
C1361 H1349 0.950 . S
C1361 C1357 1.393 . S
C1361 C1360 1.391 . S
C1362 H1352 0.950 . S
C1362 C1363 1.386 . S
C1362 C1364 1.391 . S
C1363 C1362 1.386 . S
C1363 C1367 1.393 . S
C1364 H1353 0.950 . S
C1364 C1362 1.391 . S
C1364 C1365 1.400 . S
C1365 C1359 1.491 1_455 S
C1365 C1364 1.400 . S
C1365 C1366 1.398 . S
C1366 H1354 0.950 . S
C1366 C1365 1.398 . S
C1366 C1367 1.391 . S
C1367 H1355 0.950 . S
C1367 C1363 1.393 . S
C1367 C1366 1.391 . S
H1368 C1376 0.950 . S
H1369 C1381 0.950 . S
H1370 C1378 0.950 1_455 S
H1371 C1380 0.950 . S
H1372 C1382 0.950 . S
H1373 C1384 0.950 1_655 S
H1374 C1386 0.950 . S
H1375 C1387 0.950 . S
C1376 H1368 0.950 . S
C1376 C1377 1.386 1_556 S
C1376 C1378 1.391 . S
C1377 C1376 1.386 1_554 S
C1377 C1381 1.393 . S
C1378 H1370 0.950 1_655 S
C1378 C1376 1.391 . S
C1378 C1379 1.396 1_556 S
C1379 C1378 1.396 1_554 S
C1379 C1380 1.404 . S
C1379 C1385 1.490 1_654 S
C1380 H1371 0.950 . S
C1380 C1379 1.404 . S
C1380 C1381 1.391 . S
C1381 H1369 0.950 . S
C1381 C1377 1.393 . S
C1381 C1380 1.391 . S
C1382 H1372 0.950 . S
C1382 C1383 1.386 1_554 S
C1382 C1384 1.391 . S
C1383 C1382 1.386 1_556 S
C1383 C1387 1.393 . S
C1384 H1373 0.950 1_455 S
C1384 C1382 1.391 . S
C1384 C1385 1.400 1_554 S
C1385 C1379 1.490 1_456 S
C1385 C1384 1.400 1_556 S
C1385 C1386 1.398 . S
C1386 H1374 0.950 . S
C1386 C1385 1.398 . S
C1386 C1387 1.391 . S
C1387 H1375 0.950 . S
C1387 C1383 1.393 . S
C1387 C1386 1.391 . S
H1388 C1396 0.950 . S
H1389 C1401 0.950 . S
H1390 C1398 0.950 . S
H1391 C1400 0.950 . S
H1392 C1402 0.950 . S
H1393 C1404 0.950 . S
H1394 C1406 0.950 . S
H1395 C1407 0.950 . S
C1396 H1388 0.950 . S
C1396 C1397 1.386 . S
C1396 C1398 1.391 . S
C1397 C1396 1.386 . S
C1397 C1401 1.393 . S
C1398 H1390 0.950 . S
C1398 C1396 1.391 . S
C1398 C1399 1.400 . S
C1399 C1398 1.400 . S
C1399 C1400 1.398 . S
C1399 C1405 1.491 . S
C1400 H1391 0.950 . S
C1400 C1399 1.398 . S
C1400 C1401 1.391 . S
C1401 H1389 0.950 . S
C1401 C1397 1.393 . S
C1401 C1400 1.391 . S
C1402 H1392 0.950 . S
C1402 C1403 1.386 . S
C1402 C1404 1.391 . S
C1403 C1402 1.386 . S
C1403 C1407 1.393 . S
C1404 H1393 0.950 . S
C1404 C1402 1.391 . S
C1404 C1405 1.400 . S
C1405 C1399 1.491 . S
C1405 C1404 1.400 . S
C1405 C1406 1.398 . S
C1406 H1394 0.950 . S
C1406 C1405 1.398 . S
C1406 C1407 1.391 . S
C1407 H1395 0.950 . S
C1407 C1403 1.393 . S
C1407 C1406 1.391 . S
H1408 C1416 0.950 . S
H1409 C1421 0.950 . S
H1410 C1418 0.950 . S
H1411 C1420 0.950 . S
H1412 C1422 0.950 . S
H1413 C1424 0.950 . S
H1414 C1426 0.950 . S
H1415 C1427 0.953 . S
C1416 H1408 0.950 . S
C1416 C1417 1.386 . S
C1416 C1418 1.391 . S
C1417 C1416 1.386 . S
C1417 C1421 1.393 . S
C1418 H1410 0.950 . S
C1418 C1416 1.391 . S
C1418 C1419 1.400 . S
C1419 C1418 1.400 . S
C1419 C1420 1.398 . S
C1419 C1425 1.491 . S
C1420 H1411 0.950 . S
C1420 C1419 1.398 . S
C1420 C1421 1.391 . S
C1421 H1409 0.950 . S
C1421 C1417 1.393 . S
C1421 C1420 1.391 . S
C1422 H1412 0.950 . S
C1422 C1423 1.386 . S
C1422 C1424 1.391 . S
C1423 C1422 1.386 . S
C1423 C1427 1.393 . S
C1424 H1413 0.950 . S
C1424 C1422 1.391 . S
C1424 C1425 1.400 . S
C1425 C1419 1.491 . S
C1425 C1424 1.400 . S
C1425 C1426 1.398 . S
C1426 H1414 0.950 . S
C1426 C1425 1.398 . S
C1426 C1427 1.391 . S
C1427 H1415 0.953 . S
C1427 C1423 1.393 . S
C1427 C1426 1.391 . S
H1428 C1436 0.950 . S
H1429 C1441 0.950 . S
H1430 C1438 0.950 . S
H1431 C1440 0.950 . S
H1432 C1442 0.950 . S
H1433 C1444 0.950 . S
H1434 C1446 0.950 . S
H1435 C1447 0.950 . S
C1436 H1428 0.950 . S
C1436 C1437 1.386 . S
C1436 C1438 1.391 . S
C1437 C1436 1.386 . S
C1437 C1441 1.393 . S
C1438 H1430 0.950 . S
C1438 C1436 1.391 . S
C1438 C1439 1.400 . S
C1439 C1438 1.400 . S
C1439 C1440 1.398 . S
C1439 C1445 1.491 . S
C1440 H1431 0.950 . S
C1440 C1439 1.398 . S
C1440 C1441 1.391 . S
C1441 H1429 0.950 . S
C1441 C1437 1.393 . S
C1441 C1440 1.391 . S
C1442 H1432 0.950 . S
C1442 C1443 1.386 . S
C1442 C1444 1.391 . S
C1443 C1442 1.386 . S
C1443 C1447 1.393 . S
C1444 H1433 0.950 . S
C1444 C1442 1.391 . S
C1444 C1445 1.400 . S
C1445 C1439 1.491 . S
C1445 C1444 1.400 . S
C1445 C1446 1.398 . S
C1446 H1434 0.950 . S
C1446 C1445 1.398 . S
C1446 C1447 1.391 . S
C1447 H1435 0.950 . S
C1447 C1443 1.393 . S
C1447 C1446 1.391 . S
H1448 C1456 0.950 . S
H1449 C1461 0.950 . S
H1450 C1458 0.950 . S
H1451 C1460 0.950 . S
H1452 C1462 0.950 . S
H1453 C1464 0.950 . S
H1454 C1466 0.950 . S
H1455 C1467 0.950 . S
C1456 H1448 0.950 . S
C1456 C1457 1.386 . S
C1456 C1458 1.391 . S
C1457 C1456 1.386 . S
C1457 C1461 1.393 . S
C1458 H1450 0.950 . S
C1458 C1456 1.391 . S
C1458 C1459 1.400 . S
C1459 C1458 1.400 . S
C1459 C1460 1.398 . S
C1459 C1465 1.491 . S
C1460 H1451 0.950 . S
C1460 C1459 1.398 . S
C1460 C1461 1.391 . S
C1461 H1449 0.950 . S
C1461 C1457 1.393 . S
C1461 C1460 1.391 . S
C1462 H1452 0.950 . S
C1462 C1463 1.386 . S
C1462 C1464 1.391 . S
C1463 C1462 1.386 . S
C1463 C1467 1.393 . S
C1464 H1453 0.950 . S
C1464 C1462 1.391 . S
C1464 C1465 1.400 . S
C1465 C1459 1.491 . S
C1465 C1464 1.400 . S
C1465 C1466 1.398 . S
C1466 H1454 0.950 . S
C1466 C1465 1.398 . S
C1466 C1467 1.391 . S
C1467 H1455 0.950 . S
C1467 C1463 1.393 . S
C1467 C1466 1.391 . S
H1468 C1476 0.950 . S
H1469 C1481 0.950 . S
H1470 C1478 0.950 . S
H1471 C1480 0.950 . S
H1472 C1482 0.950 . S
H1473 C1484 0.950 . S
H1474 C1486 0.950 . S
H1475 C1487 0.950 . S
C1476 H1468 0.950 . S
C1476 C1477 1.386 . S
C1476 C1478 1.391 . S
C1477 C1476 1.386 . S
C1477 C1481 1.393 . S
C1478 H1470 0.950 . S
C1478 C1476 1.391 . S
C1478 C1479 1.400 . S
C1479 C1478 1.400 . S
C1479 C1480 1.398 . S
C1479 C1485 1.491 . S
C1480 H1471 0.950 . S
C1480 C1479 1.398 . S
C1480 C1481 1.391 . S
C1481 H1469 0.950 . S
C1481 C1477 1.393 . S
C1481 C1480 1.391 . S
C1482 H1472 0.950 . S
C1482 C1483 1.386 . S
C1482 C1484 1.391 . S
C1483 C1482 1.386 . S
C1483 C1487 1.393 . S
C1484 H1473 0.950 . S
C1484 C1482 1.391 . S
C1484 C1485 1.400 . S
C1485 C1479 1.491 . S
C1485 C1484 1.400 . S
C1485 C1486 1.398 . S
C1486 H1474 0.950 . S
C1486 C1485 1.398 . S
C1486 C1487 1.391 . S
C1487 H1475 0.950 . S
C1487 C1483 1.393 . S
C1487 C1486 1.391 . S
H1488 C1496 0.950 . S
H1489 C1501 0.950 . S
H1490 C1498 0.950 . S
H1491 C1500 0.950 . S
H1492 C1502 0.950 1_554 S
H1493 C1504 0.950 . S
H1494 C1506 0.950 . S
H1495 C1507 0.950 . S
C1496 H1488 0.950 . S
C1496 C1497 1.386 . S
C1496 C1498 1.391 . S
C1497 C1496 1.386 . S
C1497 C1501 1.393 . S
C1498 H1490 0.950 . S
C1498 C1496 1.391 . S
C1498 C1499 1.400 . S
C1499 C1498 1.400 . S
C1499 C1500 1.398 . S
C1499 C1505 1.491 . S
C1500 H1491 0.950 . S
C1500 C1499 1.398 . S
C1500 C1501 1.391 . S
C1501 H1489 0.950 . S
C1501 C1497 1.393 . S
C1501 C1500 1.391 . S
C1502 H1492 0.950 1_556 S
C1502 C1503 1.386 . S
C1502 C1504 1.391 . S
C1503 C1502 1.386 . S
C1503 C1507 1.393 . S
C1504 H1493 0.950 . S
C1504 C1502 1.391 . S
C1504 C1505 1.400 . S
C1505 C1499 1.491 . S
C1505 C1504 1.400 . S
C1505 C1506 1.398 . S
C1506 H1494 0.950 . S
C1506 C1505 1.398 . S
C1506 C1507 1.391 . S
C1507 H1495 0.950 . S
C1507 C1503 1.393 . S
C1507 C1506 1.391 . S
H1508 C1516 0.950 . S
H1509 C1521 0.950 . S
H1510 C1518 0.950 . S
H1511 C1520 0.950 . S
H1512 C1522 0.950 . S
H1513 C1524 0.950 . S
H1514 C1526 0.950 . S
H1515 C1527 0.950 . S
C1516 H1508 0.950 . S
C1516 C1517 1.386 . S
C1516 C1518 1.391 . S
C1517 C1516 1.386 . S
C1517 C1521 1.393 . S
C1518 H1510 0.950 . S
C1518 C1516 1.391 . S
C1518 C1519 1.400 . S
C1519 C1518 1.400 . S
C1519 C1520 1.398 . S
C1519 C1525 1.491 . S
C1520 H1511 0.950 . S
C1520 C1519 1.398 . S
C1520 C1521 1.391 . S
C1521 H1509 0.950 . S
C1521 C1517 1.393 . S
C1521 C1520 1.391 . S
C1522 H1512 0.950 . S
C1522 C1523 1.386 . S
C1522 C1524 1.391 . S
C1523 C1522 1.386 . S
C1523 C1527 1.393 . S
C1524 H1513 0.950 . S
C1524 C1522 1.391 . S
C1524 C1525 1.400 . S
C1525 C1519 1.491 . S
C1525 C1524 1.400 . S
C1525 C1526 1.398 . S
C1526 H1514 0.950 . S
C1526 C1525 1.398 . S
C1526 C1527 1.391 . S
C1527 H1515 0.950 . S
C1527 C1523 1.393 . S
C1527 C1526 1.391 . S
H1528 C1536 0.950 . S
H1529 C1541 0.950 . S
H1530 C1538 0.950 . S
H1531 C1540 0.950 . S
H1532 C1542 0.950 . S
H1533 C1544 0.950 . S
H1534 C1546 0.950 . S
H1535 C1547 0.950 . S
C1536 H1528 0.950 . S
C1536 C1537 1.386 . S
C1536 C1538 1.391 . S
C1537 C1536 1.386 . S
C1537 C1541 1.393 . S
C1538 H1530 0.950 . S
C1538 C1536 1.391 . S
C1538 C1539 1.400 . S
C1539 C1538 1.400 . S
C1539 C1540 1.398 . S
C1539 C1545 1.491 . S
C1540 H1531 0.950 . S
C1540 C1539 1.398 . S
C1540 C1541 1.391 . S
C1541 H1529 0.950 . S
C1541 C1537 1.393 . S
C1541 C1540 1.391 . S
C1542 H1532 0.950 . S
C1542 C1543 1.386 . S
C1542 C1544 1.391 . S
C1543 C1542 1.386 . S
C1543 C1547 1.393 . S
C1544 H1533 0.950 . S
C1544 C1542 1.391 . S
C1544 C1545 1.400 . S
C1545 C1539 1.491 . S
C1545 C1544 1.400 . S
C1545 C1546 1.398 . S
C1546 H1534 0.950 . S
C1546 C1545 1.398 . S
C1546 C1547 1.391 . S
C1547 H1535 0.950 . S
C1547 C1543 1.393 . S
C1547 C1546 1.391 . S
H1548 C1556 0.950 . S
H1549 C1561 0.950 . S
H1550 C1558 0.950 . S
H1551 C1560 0.950 . S
H1552 C1562 0.950 1_556 S
H1553 C1564 0.950 . S
H1554 C1566 0.950 . S
H1555 C1567 0.950 . S
C1556 H1548 0.950 . S
C1556 C1557 1.386 . S
C1556 C1558 1.391 . S
C1557 C1556 1.386 . S
C1557 C1561 1.393 . S
C1558 H1550 0.950 . S
C1558 C1556 1.391 . S
C1558 C1559 1.400 . S
C1559 C1558 1.400 . S
C1559 C1560 1.398 . S
C1559 C1565 1.491 . S
C1560 H1551 0.950 . S
C1560 C1559 1.398 . S
C1560 C1561 1.391 . S
C1561 H1549 0.950 . S
C1561 C1557 1.393 . S
C1561 C1560 1.391 . S
C1562 H1552 0.950 1_554 S
C1562 C1563 1.386 . S
C1562 C1564 1.391 . S
C1563 C1562 1.386 . S
C1563 C1567 1.393 . S
C1564 H1553 0.950 . S
C1564 C1562 1.391 . S
C1564 C1565 1.400 . S
C1565 C1559 1.491 . S
C1565 C1564 1.400 . S
C1565 C1566 1.398 . S
C1566 H1554 0.950 . S
C1566 C1565 1.398 . S
C1566 C1567 1.391 . S
C1567 H1555 0.950 . S
C1567 C1563 1.393 . S
C1567 C1566 1.391 . S
H1568 C1576 0.950 . S
H1569 C1581 0.950 . S
H1570 C1578 0.950 . S
H1571 C1580 0.950 . S
H1572 C1582 0.950 . S
H1573 C1584 0.950 . S
H1574 C1586 0.950 . S
H1575 C1587 0.950 . S
C1576 H1568 0.950 . S
C1576 C1577 1.386 . S
C1576 C1578 1.391 . S
C1577 C1576 1.386 . S
C1577 C1581 1.393 . S
C1578 H1570 0.950 . S
C1578 C1576 1.391 . S
C1578 C1579 1.400 . S
C1579 C1578 1.400 . S
C1579 C1580 1.398 . S
C1579 C1585 1.491 . S
C1580 H1571 0.950 . S
C1580 C1579 1.398 . S
C1580 C1581 1.391 . S
C1581 H1569 0.950 . S
C1581 C1577 1.393 . S
C1581 C1580 1.391 . S
C1582 H1572 0.950 . S
C1582 C1583 1.386 . S
C1582 C1584 1.391 . S
C1583 C1582 1.386 . S
C1583 C1587 1.393 . S
C1584 H1573 0.950 . S
C1584 C1582 1.391 . S
C1584 C1585 1.400 . S
C1585 C1579 1.491 . S
C1585 C1584 1.400 . S
C1585 C1586 1.398 . S
C1586 H1574 0.950 . S
C1586 C1585 1.398 . S
C1586 C1587 1.391 . S
C1587 H1575 0.950 . S
C1587 C1583 1.393 . S
C1587 C1586 1.391 . S
H1588 C1596 0.950 . S
H1589 C1601 0.950 . S
H1590 C1598 0.950 . S
H1591 C1600 0.950 . S
H1592 C1602 0.950 . S
H1593 C1604 0.950 . S
H1594 C1606 0.950 . S
H1595 C1607 0.941 1_554 S
C1596 H1588 0.950 . S
C1596 C1597 1.386 . S
C1596 C1598 1.391 . S
C1597 C1596 1.386 . S
C1597 C1601 1.393 . S
C1598 H1590 0.950 . S
C1598 C1596 1.391 . S
C1598 C1599 1.400 . S
C1599 C1598 1.400 . S
C1599 C1600 1.398 . S
C1599 C1605 1.491 . S
C1600 H1591 0.950 . S
C1600 C1599 1.398 . S
C1600 C1601 1.391 . S
C1601 H1589 0.950 . S
C1601 C1597 1.393 . S
C1601 C1600 1.391 . S
C1602 H1592 0.950 . S
C1602 C1603 1.386 . S
C1602 C1604 1.391 . S
C1603 C1602 1.386 . S
C1603 C1607 1.393 . S
C1604 H1593 0.950 . S
C1604 C1602 1.391 . S
C1604 C1605 1.400 . S
C1605 C1599 1.491 . S
C1605 C1604 1.400 . S
C1605 C1606 1.398 . S
C1606 H1594 0.950 . S
C1606 C1605 1.398 . S
C1606 C1607 1.391 . S
C1607 H1595 0.941 1_556 S
C1607 C1603 1.393 . S
C1607 C1606 1.391 . S
H1608 C1616 0.950 . S
H1609 C1621 0.950 . S
H1610 C1618 0.950 . S
H1611 C1620 0.950 . S
H1612 C1622 0.950 . S
H1613 C1624 0.950 . S
H1614 C1626 0.950 . S
H1615 C1627 0.950 . S
C1616 H1608 0.950 . S
C1616 C1617 1.386 . S
C1616 C1618 1.391 . S
C1617 C1616 1.386 . S
C1617 C1621 1.393 . S
C1618 H1610 0.950 . S
C1618 C1616 1.391 . S
C1618 C1619 1.400 . S
C1619 C1618 1.400 . S
C1619 C1620 1.398 . S
C1619 C1625 1.491 . S
C1620 H1611 0.950 . S
C1620 C1619 1.398 . S
C1620 C1621 1.391 . S
C1621 H1609 0.950 . S
C1621 C1617 1.393 . S
C1621 C1620 1.391 . S
C1622 H1612 0.950 . S
C1622 C1623 1.386 . S
C1622 C1624 1.391 . S
C1623 C1622 1.386 . S
C1623 C1627 1.393 . S
C1624 H1613 0.950 . S
C1624 C1622 1.391 . S
C1624 C1625 1.400 . S
C1625 C1619 1.491 . S
C1625 C1624 1.400 . S
C1625 C1626 1.398 . S
C1626 H1614 0.950 . S
C1626 C1625 1.398 . S
C1626 C1627 1.391 . S
C1627 H1615 0.950 . S
C1627 C1623 1.393 . S
C1627 C1626 1.391 . S
H1628 C1636 0.950 . S
H1629 C1641 0.950 . S
H1630 C1638 0.950 . S
H1631 C1640 0.950 . S
H1632 C1642 0.950 . S
H1633 C1644 0.950 . S
H1634 C1646 0.950 . S
H1635 C1647 0.950 . S
C1636 H1628 0.950 . S
C1636 C1637 1.386 . S
C1636 C1638 1.391 . S
C1637 C1636 1.386 . S
C1637 C1641 1.393 . S
C1638 H1630 0.950 . S
C1638 C1636 1.391 . S
C1638 C1639 1.400 . S
C1639 C1638 1.400 . S
C1639 C1640 1.398 . S
C1639 C1645 1.491 . S
C1640 H1631 0.950 . S
C1640 C1639 1.398 . S
C1640 C1641 1.391 . S
C1641 H1629 0.950 . S
C1641 C1637 1.393 . S
C1641 C1640 1.391 . S
C1642 H1632 0.950 . S
C1642 C1643 1.386 . S
C1642 C1644 1.391 . S
C1643 C1642 1.386 . S
C1643 C1647 1.393 . S
C1644 H1633 0.950 . S
C1644 C1642 1.391 . S
C1644 C1645 1.400 . S
C1645 C1639 1.491 . S
C1645 C1644 1.400 . S
C1645 C1646 1.398 . S
C1646 H1634 0.950 . S
C1646 C1645 1.398 . S
C1646 C1647 1.391 . S
C1647 H1635 0.950 . S
C1647 C1643 1.393 . S
C1647 C1646 1.391 . S
H1648 C1656 0.950 . S
H1649 C1661 0.950 . S
H1650 C1658 0.950 . S
H1651 C1660 0.950 . S
H1652 C1662 0.950 . S
H1653 C1664 0.950 . S
H1654 C1666 0.950 . S
H1655 C1667 0.950 . S
C1656 H1648 0.950 . S
C1656 C1657 1.386 . S
C1656 C1658 1.391 . S
C1657 C1656 1.386 . S
C1657 C1661 1.393 . S
C1658 H1650 0.950 . S
C1658 C1656 1.391 . S
C1658 C1659 1.400 . S
C1659 C1658 1.400 . S
C1659 C1660 1.398 . S
C1659 C1665 1.491 . S
C1660 H1651 0.950 . S
C1660 C1659 1.398 . S
C1660 C1661 1.391 . S
C1661 H1649 0.950 . S
C1661 C1657 1.393 . S
C1661 C1660 1.391 . S
C1662 H1652 0.950 . S
C1662 C1663 1.386 . S
C1662 C1664 1.391 . S
C1663 C1662 1.386 . S
C1663 C1667 1.393 . S
C1664 H1653 0.950 . S
C1664 C1662 1.391 . S
C1664 C1665 1.400 . S
C1665 C1659 1.491 . S
C1665 C1664 1.400 . S
C1665 C1666 1.398 . S
C1666 H1654 0.950 . S
C1666 C1665 1.398 . S
C1666 C1667 1.391 . S
C1667 H1655 0.950 . S
C1667 C1663 1.393 . S
C1667 C1666 1.391 . S
H1668 C1676 0.950 1_556 S
H1669 C1681 0.950 . S
H1670 C1678 0.950 . S
H1671 C1680 0.950 . S
H1672 C1682 0.950 . S
H1673 C1684 0.950 . S
H1674 C1686 0.950 . S
H1675 C1687 0.950 . S
C1676 H1668 0.950 1_554 S
C1676 C1677 1.386 . S
C1676 C1678 1.391 . S
C1677 C1676 1.386 . S
C1677 C1681 1.393 . S
C1678 H1670 0.950 . S
C1678 C1676 1.391 . S
C1678 C1679 1.400 . S
C1679 C1678 1.400 . S
C1679 C1680 1.398 . S
C1679 C1685 1.491 . S
C1680 H1671 0.950 . S
C1680 C1679 1.398 . S
C1680 C1681 1.391 . S
C1681 H1669 0.950 . S
C1681 C1677 1.393 . S
C1681 C1680 1.391 . S
C1682 H1672 0.950 . S
C1682 C1683 1.386 . S
C1682 C1684 1.391 . S
C1683 C1682 1.386 . S
C1683 C1687 1.393 . S
C1684 H1673 0.950 . S
C1684 C1682 1.391 . S
C1684 C1685 1.400 . S
C1685 C1679 1.491 . S
C1685 C1684 1.400 . S
C1685 C1686 1.398 . S
C1686 H1674 0.950 . S
C1686 C1685 1.398 . S
C1686 C1687 1.391 . S
C1687 H1675 0.950 . S
C1687 C1683 1.393 . S
C1687 C1686 1.391 . S
H1688 C1696 0.950 1_554 S
H1689 C1701 0.950 . S
H1690 C1698 0.950 . S
H1691 C1700 0.950 . S
H1692 C1702 0.950 . S
H1693 C1704 0.950 . S
H1694 C1706 0.950 . S
H1695 C1707 0.950 . S
C1696 H1688 0.950 1_556 S
C1696 C1697 1.386 . S
C1696 C1698 1.391 . S
C1697 C1696 1.386 . S
C1697 C1701 1.393 . S
C1698 H1690 0.950 . S
C1698 C1696 1.391 . S
C1698 C1699 1.400 . S
C1699 C1698 1.400 . S
C1699 C1700 1.398 . S
C1699 C1705 1.491 . S
C1700 H1691 0.950 . S
C1700 C1699 1.398 . S
C1700 C1701 1.391 . S
C1701 H1689 0.950 . S
C1701 C1697 1.393 . S
C1701 C1700 1.391 . S
C1702 H1692 0.950 . S
C1702 C1703 1.386 . S
C1702 C1704 1.391 . S
C1703 C1702 1.386 . S
C1703 C1707 1.393 . S
C1704 H1693 0.950 . S
C1704 C1702 1.391 . S
C1704 C1705 1.400 . S
C1705 C1699 1.491 . S
C1705 C1704 1.400 . S
C1705 C1706 1.398 . S
C1706 H1694 0.950 . S
C1706 C1705 1.398 . S
C1706 C1707 1.391 . S
C1707 H1695 0.950 . S
C1707 C1703 1.393 . S
C1707 C1706 1.391 . S
H1708 C1716 0.950 . S
H1709 C1721 0.950 . S
H1710 C1718 0.950 . S
H1711 C1720 0.950 . S
H1712 C1722 0.950 . S
H1713 C1724 0.950 . S
H1714 C1726 0.950 . S
H1715 C1727 0.950 . S
C1716 H1708 0.950 . S
C1716 C1717 1.386 . S
C1716 C1718 1.391 . S
C1717 C1716 1.386 . S
C1717 C1721 1.393 . S
C1718 H1710 0.950 . S
C1718 C1716 1.391 . S
C1718 C1719 1.400 . S
C1719 C1718 1.400 . S
C1719 C1720 1.398 . S
C1719 C1725 1.491 . S
C1720 H1711 0.950 . S
C1720 C1719 1.398 . S
C1720 C1721 1.391 . S
C1721 H1709 0.950 . S
C1721 C1717 1.393 . S
C1721 C1720 1.391 . S
C1722 H1712 0.950 . S
C1722 C1723 1.386 . S
C1722 C1724 1.391 . S
C1723 C1722 1.386 . S
C1723 C1727 1.393 . S
C1724 H1713 0.950 . S
C1724 C1722 1.391 . S
C1724 C1725 1.400 . S
C1725 C1719 1.491 . S
C1725 C1724 1.400 . S
C1725 C1726 1.398 . S
C1726 H1714 0.950 . S
C1726 C1725 1.398 . S
C1726 C1727 1.391 . S
C1727 H1715 0.950 . S
C1727 C1723 1.393 . S
C1727 C1726 1.391 . S
H1728 C1736 0.950 1_554 S
H1729 C1741 0.950 . S
H1730 C1738 0.950 . S
H1731 C1740 0.950 . S
H1732 C1742 0.950 . S
H1733 C1744 0.950 . S
H1734 C1746 0.950 . S
H1735 C1747 0.950 . S
C1736 H1728 0.950 1_556 S
C1736 C1737 1.386 . S
C1736 C1738 1.391 . S
C1737 C1736 1.386 . S
C1737 C1741 1.393 . S
C1738 H1730 0.950 . S
C1738 C1736 1.391 . S
C1738 C1739 1.400 . S
C1739 C1738 1.400 . S
C1739 C1740 1.398 . S
C1739 C1745 1.491 . S
C1740 H1731 0.950 . S
C1740 C1739 1.398 . S
C1740 C1741 1.391 . S
C1741 H1729 0.950 . S
C1741 C1737 1.393 . S
C1741 C1740 1.391 . S
C1742 H1732 0.950 . S
C1742 C1743 1.386 . S
C1742 C1744 1.391 . S
C1743 C1742 1.386 . S
C1743 C1747 1.393 . S
C1744 H1733 0.950 . S
C1744 C1742 1.391 . S
C1744 C1745 1.400 . S
C1745 C1739 1.491 . S
C1745 C1744 1.400 . S
C1745 C1746 1.398 . S
C1746 H1734 0.950 . S
C1746 C1745 1.398 . S
C1746 C1747 1.391 . S
C1747 H1735 0.950 . S
C1747 C1743 1.393 . S
C1747 C1746 1.391 . S
H1748 C1756 0.950 . S
H1749 C1761 0.950 . S
H1750 C1758 0.950 . S
H1751 C1760 0.950 . S
H1752 C1762 0.950 . S
H1753 C1764 0.950 . S
H1754 C1766 0.950 1_655 S
H1755 C1767 0.950 . S
C1756 H1748 0.950 . S
C1756 C1757 1.386 . S
C1756 C1758 1.391 . S
C1757 C1756 1.386 . S
C1757 C1761 1.393 . S
C1758 H1750 0.950 . S
C1758 C1756 1.391 . S
C1758 C1759 1.400 . S
C1759 C1758 1.400 . S
C1759 C1760 1.398 1_655 S
C1759 C1765 1.491 1_655 S
C1760 H1751 0.950 . S
C1760 C1759 1.398 1_455 S
C1760 C1761 1.391 1_455 S
C1761 H1749 0.950 . S
C1761 C1757 1.393 . S
C1761 C1760 1.391 1_655 S
C1762 H1752 0.950 . S
C1762 C1763 1.386 . S
C1762 C1764 1.391 . S
C1763 C1762 1.386 . S
C1763 C1767 1.393 . S
C1764 H1753 0.950 . S
C1764 C1762 1.391 . S
C1764 C1765 1.400 . S
C1765 C1759 1.491 1_455 S
C1765 C1764 1.400 . S
C1765 C1766 1.398 . S
C1766 H1754 0.950 1_455 S
C1766 C1765 1.398 . S
C1766 C1767 1.391 . S
C1767 H1755 0.950 . S
C1767 C1763 1.393 . S
C1767 C1766 1.391 . S
H1768 C1776 0.950 . S
H1769 C1781 0.950 . S
H1770 C1778 0.950 . S
H1771 C1780 0.950 . S
H1772 C1782 0.950 . S
H1773 C1784 0.950 . S
H1774 C1786 0.950 . S
H1775 C1787 0.950 . S
C1776 H1768 0.950 . S
C1776 C1777 1.386 . S
C1776 C1778 1.391 . S
C1777 C1776 1.386 . S
C1777 C1781 1.393 . S
C1778 H1770 0.950 . S
C1778 C1776 1.391 . S
C1778 C1779 1.400 . S
C1779 C1778 1.400 . S
C1779 C1780 1.398 . S
C1779 C1785 1.491 . S
C1780 H1771 0.950 . S
C1780 C1779 1.398 . S
C1780 C1781 1.391 . S
C1781 H1769 0.950 . S
C1781 C1777 1.393 . S
C1781 C1780 1.391 . S
C1782 H1772 0.950 . S
C1782 C1783 1.386 . S
C1782 C1784 1.391 . S
C1783 C1782 1.386 . S
C1783 C1787 1.393 . S
C1784 H1773 0.950 . S
C1784 C1782 1.391 . S
C1784 C1785 1.400 . S
C1785 C1779 1.491 . S
C1785 C1784 1.400 . S
C1785 C1786 1.398 . S
C1786 H1774 0.950 . S
C1786 C1785 1.398 . S
C1786 C1787 1.391 . S
C1787 H1775 0.950 . S
C1787 C1783 1.393 . S
C1787 C1786 1.391 . S
H1788 C1796 0.950 . S
H1789 C1801 0.950 . S
H1790 C1798 0.950 . S
H1791 C1800 0.950 . S
H1792 C1802 0.950 . S
H1793 C1804 0.950 . S
H1794 C1806 0.950 . S
H1795 C1807 0.950 . S
C1796 H1788 0.950 . S
C1796 C1797 1.386 . S
C1796 C1798 1.391 . S
C1797 C1796 1.386 . S
C1797 C1801 1.393 . S
C1798 H1790 0.950 . S
C1798 C1796 1.391 . S
C1798 C1799 1.400 . S
C1799 C1798 1.400 . S
C1799 C1800 1.398 . S
C1799 C1805 1.491 . S
C1800 H1791 0.950 . S
C1800 C1799 1.398 . S
C1800 C1801 1.391 . S
C1801 H1789 0.950 . S
C1801 C1797 1.393 . S
C1801 C1800 1.391 . S
C1802 H1792 0.950 . S
C1802 C1803 1.386 . S
C1802 C1804 1.391 . S
C1803 C1802 1.386 . S
C1803 C1807 1.393 . S
C1804 H1793 0.950 . S
C1804 C1802 1.391 . S
C1804 C1805 1.400 . S
C1805 C1799 1.491 . S
C1805 C1804 1.400 . S
C1805 C1806 1.398 . S
C1806 H1794 0.950 . S
C1806 C1805 1.398 . S
C1806 C1807 1.391 . S
C1807 H1795 0.950 . S
C1807 C1803 1.393 . S
C1807 C1806 1.391 . S
H1808 C1816 0.950 . S
H1809 C1821 0.950 . S
H1810 C1818 0.950 . S
H1811 C1820 0.950 . S
H1812 C1822 0.950 . S
H1813 C1824 0.950 . S
H1814 C1826 0.950 . S
H1815 C1827 0.950 . S
C1816 H1808 0.950 . S
C1816 C1817 1.386 . S
C1816 C1818 1.391 . S
C1817 C1816 1.386 . S
C1817 C1821 1.393 . S
C1818 H1810 0.950 . S
C1818 C1816 1.391 . S
C1818 C1819 1.400 . S
C1819 C1818 1.400 . S
C1819 C1820 1.398 . S
C1819 C1825 1.491 . S
C1820 H1811 0.950 . S
C1820 C1819 1.398 . S
C1820 C1821 1.391 . S
C1821 H1809 0.950 . S
C1821 C1817 1.393 . S
C1821 C1820 1.391 . S
C1822 H1812 0.950 . S
C1822 C1823 1.386 . S
C1822 C1824 1.391 . S
C1823 C1822 1.386 . S
C1823 C1827 1.393 . S
C1824 H1813 0.950 . S
C1824 C1822 1.391 . S
C1824 C1825 1.400 . S
C1825 C1819 1.491 . S
C1825 C1824 1.400 . S
C1825 C1826 1.398 . S
C1826 H1814 0.950 . S
C1826 C1825 1.398 . S
C1826 C1827 1.391 . S
C1827 H1815 0.950 . S
C1827 C1823 1.393 . S
C1827 C1826 1.391 . S
H1828 C1836 0.950 . S
H1829 C1841 0.950 . S
H1830 C1838 0.950 . S
H1831 C1840 0.950 . S
H1832 C1842 0.950 . S
H1833 C1844 0.950 . S
H1834 C1846 0.950 . S
H1835 C1847 0.950 . S
C1836 H1828 0.950 . S
C1836 C1837 1.386 . S
C1836 C1838 1.391 . S
C1837 C1836 1.386 . S
C1837 C1841 1.393 . S
C1838 H1830 0.950 . S
C1838 C1836 1.391 . S
C1838 C1839 1.400 . S
C1839 C1838 1.400 . S
C1839 C1840 1.398 . S
C1839 C1845 1.491 . S
C1840 H1831 0.950 . S
C1840 C1839 1.398 . S
C1840 C1841 1.391 . S
C1841 H1829 0.950 . S
C1841 C1837 1.393 . S
C1841 C1840 1.391 . S
C1842 H1832 0.950 . S
C1842 C1843 1.386 . S
C1842 C1844 1.391 . S
C1843 C1842 1.386 . S
C1843 C1847 1.393 . S
C1844 H1833 0.950 . S
C1844 C1842 1.391 . S
C1844 C1845 1.400 . S
C1845 C1839 1.491 . S
C1845 C1844 1.400 . S
C1845 C1846 1.398 . S
C1846 H1834 0.950 . S
C1846 C1845 1.398 . S
C1846 C1847 1.391 . S
C1847 H1835 0.950 . S
C1847 C1843 1.393 . S
C1847 C1846 1.391 . S
H1848 C1856 0.950 1_556 S
H1849 C1861 0.950 . S
H1850 C1858 0.950 . S
H1851 C1860 0.950 . S
H1852 C1862 0.950 . S
H1853 C1864 0.950 . S
H1854 C1866 0.950 . S
H1855 C1867 0.950 . S
C1856 H1848 0.950 1_554 S
C1856 C1857 1.386 . S
C1856 C1858 1.391 . S
C1857 C1856 1.386 . S
C1857 C1861 1.393 . S
C1858 H1850 0.950 . S
C1858 C1856 1.391 . S
C1858 C1859 1.400 . S
C1859 C1858 1.400 . S
C1859 C1860 1.398 . S
C1859 C1865 1.491 . S
C1860 H1851 0.950 . S
C1860 C1859 1.398 . S
C1860 C1861 1.391 . S
C1861 H1849 0.950 . S
C1861 C1857 1.393 . S
C1861 C1860 1.391 . S
C1862 H1852 0.950 . S
C1862 C1863 1.386 . S
C1862 C1864 1.391 . S
C1863 C1862 1.386 . S
C1863 C1867 1.393 . S
C1864 H1853 0.950 . S
C1864 C1862 1.391 . S
C1864 C1865 1.400 . S
C1865 C1859 1.491 . S
C1865 C1864 1.400 . S
C1865 C1866 1.398 . S
C1866 H1854 0.950 . S
C1866 C1865 1.398 . S
C1866 C1867 1.391 . S
C1867 H1855 0.950 . S
C1867 C1863 1.393 . S
C1867 C1866 1.391 . S
H1868 C1876 0.950 . S
H1869 C1881 0.950 . S
H1870 C1878 0.950 1_655 S
H1871 C1880 0.950 . S
H1872 C1882 0.950 . S
H1873 C1884 0.925 1_455 S
H1874 C1886 0.950 . S
H1875 C1887 0.950 . S
C1876 H1868 0.950 . S
C1876 C1877 1.386 . S
C1876 C1878 1.391 . S
C1877 C1876 1.386 . S
C1877 C1881 1.393 . S
C1878 H1870 0.950 1_455 S
C1878 C1876 1.391 . S
C1878 C1879 1.400 . S
C1879 C1878 1.400 . S
C1879 C1880 1.398 . S
C1879 C1885 1.491 1_455 S
C1880 H1871 0.950 . S
C1880 C1879 1.398 . S
C1880 C1881 1.391 . S
C1881 H1869 0.950 . S
C1881 C1877 1.393 . S
C1881 C1880 1.391 . S
C1882 H1872 0.950 . S
C1882 C1883 1.386 . S
C1882 C1884 1.391 . S
C1883 C1882 1.386 . S
C1883 C1887 1.393 . S
C1884 H1873 0.925 1_655 S
C1884 C1882 1.391 . S
C1884 C1885 1.400 . S
C1885 C1879 1.491 1_655 S
C1885 C1884 1.400 . S
C1885 C1886 1.398 . S
C1886 H1874 0.950 . S
C1886 C1885 1.398 . S
C1886 C1887 1.391 . S
C1887 H1875 0.950 . S
C1887 C1883 1.393 . S
C1887 C1886 1.391 . S
H1888 C1896 0.950 . S
H1889 C1901 0.950 . S
H1890 C1898 0.950 . S
H1891 C1900 0.950 . S
H1892 C1902 0.950 1_556 S
H1893 C1904 0.950 . S
H1894 C1906 0.950 . S
H1895 C1907 0.950 . S
C1896 H1888 0.950 . S
C1896 C1897 1.386 . S
C1896 C1898 1.391 . S
C1897 C1896 1.386 . S
C1897 C1901 1.393 . S
C1898 H1890 0.950 . S
C1898 C1896 1.391 . S
C1898 C1899 1.400 . S
C1899 C1898 1.400 . S
C1899 C1900 1.398 . S
C1899 C1905 1.491 . S
C1900 H1891 0.950 . S
C1900 C1899 1.398 . S
C1900 C1901 1.391 . S
C1901 H1889 0.950 . S
C1901 C1897 1.393 . S
C1901 C1900 1.391 . S
C1902 H1892 0.950 1_554 S
C1902 C1903 1.386 . S
C1902 C1904 1.391 . S
C1903 C1902 1.386 . S
C1903 C1907 1.393 . S
C1904 H1893 0.950 . S
C1904 C1902 1.391 . S
C1904 C1905 1.400 . S
C1905 C1899 1.491 . S
C1905 C1904 1.400 . S
C1905 C1906 1.398 . S
C1906 H1894 0.950 . S
C1906 C1905 1.398 . S
C1906 C1907 1.391 . S
C1907 H1895 0.950 . S
C1907 C1903 1.393 . S
C1907 C1906 1.391 . S
H1908 C1916 0.950 . S
H1909 C1921 0.950 . S
H1910 C1918 0.950 . S
H1911 C1920 0.950 . S
H1912 C1922 0.950 . S
H1913 C1924 0.950 . S
H1914 C1926 0.950 1_455 S
H1915 C1927 0.950 . S
C1916 H1908 0.950 . S
C1916 C1917 1.386 . S
C1916 C1918 1.391 . S
C1917 C1916 1.386 . S
C1917 C1921 1.393 . S
C1918 H1910 0.950 . S
C1918 C1916 1.391 . S
C1918 C1919 1.400 . S
C1919 C1918 1.400 . S
C1919 C1920 1.398 1_455 S
C1919 C1925 1.491 1_455 S
C1920 H1911 0.950 . S
C1920 C1919 1.398 1_655 S
C1920 C1921 1.391 1_655 S
C1921 H1909 0.950 . S
C1921 C1917 1.393 . S
C1921 C1920 1.391 1_455 S
C1922 H1912 0.950 . S
C1922 C1923 1.386 . S
C1922 C1924 1.391 . S
C1923 C1922 1.386 . S
C1923 C1927 1.393 . S
C1924 H1913 0.950 . S
C1924 C1922 1.391 . S
C1924 C1925 1.400 . S
C1925 C1919 1.491 1_655 S
C1925 C1924 1.400 . S
C1925 C1926 1.398 . S
C1926 H1914 0.950 1_655 S
C1926 C1925 1.398 . S
C1926 C1927 1.391 . S
C1927 H1915 0.950 . S
C1927 C1923 1.393 . S
C1927 C1926 1.391 . S
H1928 C1936 0.950 . S
H1929 C1941 0.950 . S
H1930 C1938 0.950 . S
H1931 C1940 0.950 . S
H1932 C1942 0.950 . S
H1933 C1944 0.950 . S
H1934 C1946 0.950 . S
H1935 C1947 0.950 . S
C1936 H1928 0.950 . S
C1936 C1937 1.386 . S
C1936 C1938 1.391 . S
C1937 C1936 1.386 . S
C1937 C1941 1.393 . S
C1938 H1930 0.950 . S
C1938 C1936 1.391 . S
C1938 C1939 1.400 . S
C1939 C1938 1.400 . S
C1939 C1940 1.398 . S
C1939 C1945 1.491 . S
C1940 H1931 0.950 . S
C1940 C1939 1.398 . S
C1940 C1941 1.391 . S
C1941 H1929 0.950 . S
C1941 C1937 1.393 . S
C1941 C1940 1.391 . S
C1942 H1932 0.950 . S
C1942 C1943 1.386 . S
C1942 C1944 1.391 . S
C1943 C1942 1.386 . S
C1943 C1947 1.393 . S
C1944 H1933 0.950 . S
C1944 C1942 1.391 . S
C1944 C1945 1.400 . S
C1945 C1939 1.491 . S
C1945 C1944 1.400 . S
C1945 C1946 1.398 . S
C1946 H1934 0.950 . S
C1946 C1945 1.398 . S
C1946 C1947 1.391 . S
C1947 H1935 0.950 . S
C1947 C1943 1.393 . S
C1947 C1946 1.391 . S
H1948 C1956 0.950 . S
H1949 C1961 0.950 . S
H1950 C1958 0.950 . S
H1951 C1960 0.950 . S
H1952 C1962 0.950 . S
H1953 C1964 0.950 . S
H1954 C1966 0.950 . S
H1955 C1967 0.950 . S
C1956 H1948 0.950 . S
C1956 C1957 1.386 . S
C1956 C1958 1.391 . S
C1957 C1956 1.386 . S
C1957 C1961 1.393 . S
C1958 H1950 0.950 . S
C1958 C1956 1.391 . S
C1958 C1959 1.400 . S
C1959 C1958 1.400 . S
C1959 C1960 1.398 . S
C1959 C1965 1.491 . S
C1960 H1951 0.950 . S
C1960 C1959 1.398 . S
C1960 C1961 1.391 . S
C1961 H1949 0.950 . S
C1961 C1957 1.393 . S
C1961 C1960 1.391 . S
C1962 H1952 0.950 . S
C1962 C1963 1.386 . S
C1962 C1964 1.391 . S
C1963 C1962 1.386 . S
C1963 C1967 1.393 . S
C1964 H1953 0.950 . S
C1964 C1962 1.391 . S
C1964 C1965 1.400 . S
C1965 C1959 1.491 . S
C1965 C1964 1.400 . S
C1965 C1966 1.398 . S
C1966 H1954 0.950 . S
C1966 C1965 1.398 . S
C1966 C1967 1.391 . S
C1967 H1955 0.950 . S
C1967 C1963 1.393 . S
C1967 C1966 1.391 . S
H1968 C1976 0.950 . S
H1969 C1981 0.950 . S
H1970 C1978 0.950 . S
H1971 C1980 0.950 . S
H1972 C1982 0.950 . S
H1973 C1984 0.950 . S
H1974 C1986 0.950 . S
H1975 C1987 0.950 . S
C1976 H1968 0.950 . S
C1976 C1977 1.386 . S
C1976 C1978 1.391 . S
C1977 C1976 1.386 . S
C1977 C1981 1.393 . S
C1978 H1970 0.950 . S
C1978 C1976 1.391 . S
C1978 C1979 1.400 . S
C1979 C1978 1.400 . S
C1979 C1980 1.398 . S
C1979 C1985 1.491 . S
C1980 H1971 0.950 . S
C1980 C1979 1.398 . S
C1980 C1981 1.391 . S
C1981 H1969 0.950 . S
C1981 C1977 1.393 . S
C1981 C1980 1.391 . S
C1982 H1972 0.950 . S
C1982 C1983 1.386 . S
C1982 C1984 1.391 . S
C1983 C1982 1.386 . S
C1983 C1987 1.393 . S
C1984 H1973 0.950 . S
C1984 C1982 1.391 . S
C1984 C1985 1.400 . S
C1985 C1979 1.491 . S
C1985 C1984 1.400 . S
C1985 C1986 1.398 . S
C1986 H1974 0.950 . S
C1986 C1985 1.398 . S
C1986 C1987 1.391 . S
C1987 H1975 0.950 . S
C1987 C1983 1.393 . S
C1987 C1986 1.391 . S
H1988 C1996 0.950 . S
H1989 C2001 0.950 . S
H1990 C1998 0.950 . S
H1991 C2000 0.950 . S
H1992 C2002 0.950 . S
H1993 C2004 0.950 . S
H1994 C2006 0.950 . S
H1995 C2007 0.950 . S
C1996 H1988 0.950 . S
C1996 C1997 1.386 . S
C1996 C1998 1.391 . S
C1997 C1996 1.386 . S
C1997 C2001 1.393 . S
C1998 H1990 0.950 . S
C1998 C1996 1.391 . S
C1998 C1999 1.400 . S
C1999 C1998 1.400 . S
C1999 C2000 1.398 . S
C1999 C2005 1.491 . S
C2000 H1991 0.950 . S
C2000 C1999 1.398 . S
C2000 C2001 1.391 . S
C2001 H1989 0.950 . S
C2001 C1997 1.393 . S
C2001 C2000 1.391 . S
C2002 H1992 0.950 . S
C2002 C2003 1.386 . S
C2002 C2004 1.391 . S
C2003 C2002 1.386 . S
C2003 C2007 1.393 . S
C2004 H1993 0.950 . S
C2004 C2002 1.391 . S
C2004 C2005 1.400 . S
C2005 C1999 1.491 . S
C2005 C2004 1.400 . S
C2005 C2006 1.398 . S
C2006 H1994 0.950 . S
C2006 C2005 1.398 . S
C2006 C2007 1.391 . S
C2007 H1995 0.950 . S
C2007 C2003 1.393 . S
C2007 C2006 1.391 . S
H2008 C2016 0.950 . S
H2009 C2021 0.950 . S
H2010 C2018 0.950 . S
H2011 C2020 0.950 . S
H2012 C2022 0.950 . S
H2013 C2024 0.950 . S
H2014 C2026 0.950 . S
H2015 C2027 0.950 . S
C2016 H2008 0.950 . S
C2016 C2017 1.386 . S
C2016 C2018 1.391 . S
C2017 C2016 1.386 . S
C2017 C2021 1.393 . S
C2018 H2010 0.950 . S
C2018 C2016 1.391 . S
C2018 C2019 1.400 . S
C2019 C2018 1.400 . S
C2019 C2020 1.398 . S
C2019 C2025 1.491 . S
C2020 H2011 0.950 . S
C2020 C2019 1.398 . S
C2020 C2021 1.391 . S
C2021 H2009 0.950 . S
C2021 C2017 1.393 . S
C2021 C2020 1.391 . S
C2022 H2012 0.950 . S
C2022 C2023 1.386 . S
C2022 C2024 1.391 . S
C2023 C2022 1.386 . S
C2023 C2027 1.393 . S
C2024 H2013 0.950 . S
C2024 C2022 1.391 . S
C2024 C2025 1.400 . S
C2025 C2019 1.491 . S
C2025 C2024 1.400 . S
C2025 C2026 1.398 . S
C2026 H2014 0.950 . S
C2026 C2025 1.398 . S
C2026 C2027 1.391 . S
C2027 H2015 0.950 . S
C2027 C2023 1.393 . S
C2027 C2026 1.391 . S
H2028 C2036 0.950 . S
H2029 C2041 0.950 . S
H2030 C2038 0.950 . S
H2031 C2040 0.954 1_655 S
H2032 C2042 0.950 . S
H2033 C2044 0.950 . S
H2034 C2046 0.918 1_455 S
H2035 C2047 0.950 . S
C2036 H2028 0.950 . S
C2036 C2037 1.386 . S
C2036 C2038 1.391 . S
C2037 C2036 1.386 . S
C2037 C2041 1.393 . S
C2038 H2030 0.950 . S
C2038 C2036 1.391 . S
C2038 C2039 1.400 . S
C2039 C2038 1.400 . S
C2039 C2040 1.398 . S
C2039 C2045 1.491 1_455 S
C2040 H2031 0.954 1_455 S
C2040 C2039 1.398 . S
C2040 C2041 1.391 . S
C2041 H2029 0.950 . S
C2041 C2037 1.393 . S
C2041 C2040 1.391 . S
C2042 H2032 0.950 . S
C2042 C2043 1.386 . S
C2042 C2044 1.391 . S
C2043 C2042 1.386 . S
C2043 C2047 1.393 . S
C2044 H2033 0.950 . S
C2044 C2042 1.391 . S
C2044 C2045 1.400 . S
C2045 C2039 1.491 1_655 S
C2045 C2044 1.400 . S
C2045 C2046 1.398 . S
C2046 H2034 0.918 1_655 S
C2046 C2045 1.398 . S
C2046 C2047 1.391 . S
C2047 H2035 0.950 . S
C2047 C2043 1.393 . S
C2047 C2046 1.391 . S
H2048 C2056 0.950 . S
H2049 C2061 0.950 . S
H2050 C2058 0.950 . S
H2051 C2060 0.950 . S
H2052 C2062 0.950 . S
H2053 C2064 0.950 . S
H2054 C2066 0.950 . S
H2055 C2067 0.950 . S
C2056 H2048 0.950 . S
C2056 C2057 1.386 . S
C2056 C2058 1.391 . S
C2057 C2056 1.386 . S
C2057 C2061 1.393 . S
C2058 H2050 0.950 . S
C2058 C2056 1.391 . S
C2058 C2059 1.400 . S
C2059 C2058 1.400 . S
C2059 C2060 1.398 . S
C2059 C2065 1.491 . S
C2060 H2051 0.950 . S
C2060 C2059 1.398 . S
C2060 C2061 1.391 . S
C2061 H2049 0.950 . S
C2061 C2057 1.393 . S
C2061 C2060 1.391 . S
C2062 H2052 0.950 . S
C2062 C2063 1.386 . S
C2062 C2064 1.391 . S
C2063 C2062 1.386 . S
C2063 C2067 1.393 . S
C2064 H2053 0.950 . S
C2064 C2062 1.391 . S
C2064 C2065 1.400 . S
C2065 C2059 1.491 . S
C2065 C2064 1.400 . S
C2065 C2066 1.398 . S
C2066 H2054 0.950 . S
C2066 C2065 1.398 . S
C2066 C2067 1.391 . S
C2067 H2055 0.950 . S
C2067 C2063 1.393 . S
C2067 C2066 1.391 . S
H2068 C2076 0.950 . S
H2069 C2081 0.950 . S
H2070 C2078 0.950 . S
H2071 C2080 0.950 . S
H2072 C2082 0.950 . S
H2073 C2084 0.950 . S
H2074 C2086 0.950 . S
H2075 C2087 0.950 . S
C2076 H2068 0.950 . S
C2076 C2077 1.386 . S
C2076 C2078 1.391 . S
C2077 C2076 1.386 . S
C2077 C2081 1.393 . S
C2078 H2070 0.950 . S
C2078 C2076 1.391 . S
C2078 C2079 1.400 . S
C2079 C2078 1.400 . S
C2079 C2080 1.398 . S
C2079 C2085 1.491 . S
C2080 H2071 0.950 . S
C2080 C2079 1.398 . S
C2080 C2081 1.391 . S
C2081 H2069 0.950 . S
C2081 C2077 1.393 . S
C2081 C2080 1.391 . S
C2082 H2072 0.950 . S
C2082 C2083 1.386 . S
C2082 C2084 1.391 . S
C2083 C2082 1.386 . S
C2083 C2087 1.393 . S
C2084 H2073 0.950 . S
C2084 C2082 1.391 . S
C2084 C2085 1.400 . S
C2085 C2079 1.491 . S
C2085 C2084 1.400 . S
C2085 C2086 1.398 . S
C2086 H2074 0.950 . S
C2086 C2085 1.398 . S
C2086 C2087 1.391 . S
C2087 H2075 0.950 . S
C2087 C2083 1.393 . S
C2087 C2086 1.391 . S
H2088 C2096 0.950 . S
H2089 C2101 0.950 . S
H2090 C2098 0.950 . S
H2091 C2100 0.950 . S
H2092 C2102 0.950 . S
H2093 C2104 0.950 . S
H2094 C2106 0.950 . S
H2095 C2107 0.950 . S
C2096 H2088 0.950 . S
C2096 C2097 1.386 . S
C2096 C2098 1.391 . S
C2097 C2096 1.386 . S
C2097 C2101 1.393 . S
C2098 H2090 0.950 . S
C2098 C2096 1.391 . S
C2098 C2099 1.400 . S
C2099 C2098 1.400 . S
C2099 C2100 1.398 . S
C2099 C2105 1.491 . S
C2100 H2091 0.950 . S
C2100 C2099 1.398 . S
C2100 C2101 1.391 . S
C2101 H2089 0.950 . S
C2101 C2097 1.393 . S
C2101 C2100 1.391 . S
C2102 H2092 0.950 . S
C2102 C2103 1.386 . S
C2102 C2104 1.391 . S
C2103 C2102 1.386 . S
C2103 C2107 1.393 . S
C2104 H2093 0.950 . S
C2104 C2102 1.391 . S
C2104 C2105 1.400 . S
C2105 C2099 1.491 . S
C2105 C2104 1.400 . S
C2105 C2106 1.398 . S
C2106 H2094 0.950 . S
C2106 C2105 1.398 . S
C2106 C2107 1.391 . S
C2107 H2095 0.950 . S
C2107 C2103 1.393 . S
C2107 C2106 1.391 . S
H2108 C2116 0.950 . S
H2109 C2121 0.950 . S
H2110 C2118 0.950 1_455 S
H2111 C2120 0.950 . S
H2112 C2122 0.950 . S
H2113 C2124 0.950 1_655 S
H2114 C2126 0.950 . S
H2115 C2127 0.950 . S
C2116 H2108 0.950 . S
C2116 C2117 1.386 . S
C2116 C2118 1.391 . S
C2117 C2116 1.386 . S
C2117 C2121 1.393 . S
C2118 H2110 0.950 1_655 S
C2118 C2116 1.391 . S
C2118 C2119 1.400 . S
C2119 C2118 1.400 . S
C2119 C2120 1.398 . S
C2119 C2125 1.491 1_655 S
C2120 H2111 0.950 . S
C2120 C2119 1.398 . S
C2120 C2121 1.391 . S
C2121 H2109 0.950 . S
C2121 C2117 1.393 . S
C2121 C2120 1.391 . S
C2122 H2112 0.950 . S
C2122 C2123 1.386 . S
C2122 C2124 1.391 . S
C2123 C2122 1.386 . S
C2123 C2127 1.393 . S
C2124 H2113 0.950 1_455 S
C2124 C2122 1.391 . S
C2124 C2125 1.400 . S
C2125 C2119 1.491 1_455 S
C2125 C2124 1.400 . S
C2125 C2126 1.398 . S
C2126 H2114 0.950 . S
C2126 C2125 1.398 . S
C2126 C2127 1.391 . S
C2127 H2115 0.950 . S
C2127 C2123 1.393 . S
C2127 C2126 1.391 . S
H2128 C2136 0.950 . S
H2129 C2141 0.950 . S
H2130 C2138 0.950 . S
H2131 C2140 0.950 . S
H2132 C2142 0.950 . S
H2133 C2144 0.950 . S
H2134 C2146 0.950 . S
H2135 C2147 0.950 . S
C2136 H2128 0.950 . S
C2136 C2137 1.386 . S
C2136 C2138 1.391 . S
C2137 C2136 1.386 . S
C2137 C2141 1.393 . S
C2138 H2130 0.950 . S
C2138 C2136 1.391 . S
C2138 C2139 1.400 . S
C2139 C2138 1.400 . S
C2139 C2140 1.398 . S
C2139 C2145 1.491 . S
C2140 H2131 0.950 . S
C2140 C2139 1.398 . S
C2140 C2141 1.391 . S
C2141 H2129 0.950 . S
C2141 C2137 1.393 . S
C2141 C2140 1.391 . S
C2142 H2132 0.950 . S
C2142 C2143 1.386 . S
C2142 C2144 1.391 . S
C2143 C2142 1.386 . S
C2143 C2147 1.393 . S
C2144 H2133 0.950 . S
C2144 C2142 1.391 . S
C2144 C2145 1.400 . S
C2145 C2139 1.491 . S
C2145 C2144 1.400 . S
C2145 C2146 1.398 . S
C2146 H2134 0.950 . S
C2146 C2145 1.398 . S
C2146 C2147 1.391 . S
C2147 H2135 0.950 . S
C2147 C2143 1.393 . S
C2147 C2146 1.391 . S
H2148 C2156 0.950 . S
H2149 C2161 0.950 . S
H2150 C2158 0.950 . S
H2151 C2160 0.950 1_455 S
H2152 C2162 0.950 . S
H2153 C2164 0.950 . S
H2154 C2166 0.950 1_655 S
H2155 C2167 0.950 . S
C2156 H2148 0.950 . S
C2156 C2157 1.386 . S
C2156 C2158 1.391 . S
C2157 C2156 1.386 . S
C2157 C2161 1.393 . S
C2158 H2150 0.950 . S
C2158 C2156 1.391 . S
C2158 C2159 1.400 . S
C2159 C2158 1.400 . S
C2159 C2160 1.398 . S
C2159 C2165 1.491 1_655 S
C2160 H2151 0.950 1_655 S
C2160 C2159 1.398 . S
C2160 C2161 1.391 . S
C2161 H2149 0.950 . S
C2161 C2157 1.393 . S
C2161 C2160 1.391 . S
C2162 H2152 0.950 . S
C2162 C2163 1.386 . S
C2162 C2164 1.391 . S
C2163 C2162 1.386 . S
C2163 C2167 1.393 . S
C2164 H2153 0.950 . S
C2164 C2162 1.391 . S
C2164 C2165 1.400 . S
C2165 C2159 1.491 1_455 S
C2165 C2164 1.400 . S
C2165 C2166 1.398 . S
C2166 H2154 0.950 1_455 S
C2166 C2165 1.398 . S
C2166 C2167 1.391 . S
C2167 H2155 0.950 . S
C2167 C2163 1.393 . S
C2167 C2166 1.391 . S
H2168 C2176 0.950 . S
H2169 C2181 0.950 . S
H2170 C2178 0.950 . S
H2171 C2180 0.950 . S
H2172 C2182 0.950 . S
H2173 C2184 0.950 . S
H2174 C2186 0.950 . S
H2175 C2187 0.950 . S
C2176 H2168 0.950 . S
C2176 C2177 1.386 . S
C2176 C2178 1.391 . S
C2177 C2176 1.386 . S
C2177 C2181 1.393 . S
C2178 H2170 0.950 . S
C2178 C2176 1.391 . S
C2178 C2179 1.400 . S
C2179 C2178 1.400 . S
C2179 C2180 1.398 . S
C2179 C2185 1.491 . S
C2180 H2171 0.950 . S
C2180 C2179 1.398 . S
C2180 C2181 1.391 . S
C2181 H2169 0.950 . S
C2181 C2177 1.393 . S
C2181 C2180 1.391 . S
C2182 H2172 0.950 . S
C2182 C2183 1.386 . S
C2182 C2184 1.391 . S
C2183 C2182 1.386 . S
C2183 C2187 1.393 . S
C2184 H2173 0.950 . S
C2184 C2182 1.391 . S
C2184 C2185 1.400 . S
C2185 C2179 1.491 . S
C2185 C2184 1.400 . S
C2185 C2186 1.398 . S
C2186 H2174 0.950 . S
C2186 C2185 1.398 . S
C2186 C2187 1.391 . S
C2187 H2175 0.950 . S
C2187 C2183 1.393 . S
C2187 C2186 1.391 . S
H2188 C2196 0.950 . S
H2189 C2201 0.950 . S
H2190 C2198 0.950 . S
H2191 C2200 0.950 . S
H2192 C2202 0.950 . S
H2193 C2204 0.950 . S
H2194 C2206 0.950 . S
H2195 C2207 0.950 . S
C2196 H2188 0.950 . S
C2196 C2197 1.386 . S
C2196 C2198 1.391 . S
C2197 C2196 1.386 . S
C2197 C2201 1.393 . S
C2198 H2190 0.950 . S
C2198 C2196 1.391 . S
C2198 C2199 1.400 . S
C2199 C2198 1.400 . S
C2199 C2200 1.398 . S
C2199 C2205 1.491 . S
C2200 H2191 0.950 . S
C2200 C2199 1.398 . S
C2200 C2201 1.391 . S
C2201 H2189 0.950 . S
C2201 C2197 1.393 . S
C2201 C2200 1.391 . S
C2202 H2192 0.950 . S
C2202 C2203 1.386 . S
C2202 C2204 1.391 . S
C2203 C2202 1.386 . S
C2203 C2207 1.393 . S
C2204 H2193 0.950 . S
C2204 C2202 1.391 . S
C2204 C2205 1.400 . S
C2205 C2199 1.491 . S
C2205 C2204 1.400 . S
C2205 C2206 1.398 . S
C2206 H2194 0.950 . S
C2206 C2205 1.398 . S
C2206 C2207 1.391 . S
C2207 H2195 0.950 . S
C2207 C2203 1.393 . S
C2207 C2206 1.391 . S
H2208 C2216 0.950 . S
H2209 C2221 0.950 . S
H2210 C2218 0.950 . S
H2211 C2220 0.950 . S
H2212 C2222 0.950 . S
H2213 C2224 0.950 . S
H2214 C2226 0.950 . S
H2215 C2227 0.950 . S
C2216 H2208 0.950 . S
C2216 C2217 1.386 . S
C2216 C2218 1.391 . S
C2217 C2216 1.386 . S
C2217 C2221 1.393 . S
C2218 H2210 0.950 . S
C2218 C2216 1.391 . S
C2218 C2219 1.400 . S
C2219 C2218 1.400 . S
C2219 C2220 1.398 . S
C2219 C2225 1.491 . S
C2220 H2211 0.950 . S
C2220 C2219 1.398 . S
C2220 C2221 1.391 . S
C2221 H2209 0.950 . S
C2221 C2217 1.393 . S
C2221 C2220 1.391 . S
C2222 H2212 0.950 . S
C2222 C2223 1.386 . S
C2222 C2224 1.391 . S
C2223 C2222 1.386 . S
C2223 C2227 1.393 . S
C2224 H2213 0.950 . S
C2224 C2222 1.391 . S
C2224 C2225 1.400 . S
C2225 C2219 1.491 . S
C2225 C2224 1.400 . S
C2225 C2226 1.398 . S
C2226 H2214 0.950 . S
C2226 C2225 1.398 . S
C2226 C2227 1.391 . S
C2227 H2215 0.950 . S
C2227 C2223 1.393 . S
C2227 C2226 1.391 . S
H2228 C2236 0.950 . S
H2229 C2241 0.950 . S
H2230 C2238 0.950 . S
H2231 C2240 0.950 . S
H2232 C2242 0.950 . S
H2233 C2244 0.950 . S
H2234 C2246 0.950 . S
H2235 C2247 0.950 . S
C2236 H2228 0.950 . S
C2236 C2237 1.386 . S
C2236 C2238 1.391 . S
C2237 C2236 1.386 . S
C2237 C2241 1.393 . S
C2238 H2230 0.950 . S
C2238 C2236 1.391 . S
C2238 C2239 1.400 . S
C2239 C2238 1.400 . S
C2239 C2240 1.398 . S
C2239 C2245 1.491 . S
C2240 H2231 0.950 . S
C2240 C2239 1.398 . S
C2240 C2241 1.391 . S
C2241 H2229 0.950 . S
C2241 C2237 1.393 . S
C2241 C2240 1.391 . S
C2242 H2232 0.950 . S
C2242 C2243 1.386 . S
C2242 C2244 1.391 . S
C2243 C2242 1.386 . S
C2243 C2247 1.393 . S
C2244 H2233 0.950 . S
C2244 C2242 1.391 . S
C2244 C2245 1.400 . S
C2245 C2239 1.491 . S
C2245 C2244 1.400 . S
C2245 C2246 1.398 . S
C2246 H2234 0.950 . S
C2246 C2245 1.398 . S
C2246 C2247 1.391 . S
C2247 H2235 0.950 . S
C2247 C2243 1.393 . S
C2247 C2246 1.391 . S
H2248 C2256 0.950 . S
H2249 C2261 0.950 1_556 S
H2250 C2258 0.950 . S
H2251 C2260 0.950 . S
H2252 C2262 0.950 . S
H2253 C2264 0.950 . S
H2254 C2266 0.950 . S
H2255 C2267 0.950 . S
C2256 H2248 0.950 . S
C2256 C2257 1.386 . S
C2256 C2258 1.391 . S
C2257 C2256 1.386 . S
C2257 C2261 1.393 . S
C2258 H2250 0.950 . S
C2258 C2256 1.391 . S
C2258 C2259 1.400 . S
C2259 C2258 1.400 . S
C2259 C2260 1.398 . S
C2259 C2265 1.491 . S
C2260 H2251 0.950 . S
C2260 C2259 1.398 . S
C2260 C2261 1.391 . S
C2261 H2249 0.950 1_554 S
C2261 C2257 1.393 . S
C2261 C2260 1.391 . S
C2262 H2252 0.950 . S
C2262 C2263 1.386 . S
C2262 C2264 1.391 . S
C2263 C2262 1.386 . S
C2263 C2267 1.393 . S
C2264 H2253 0.950 . S
C2264 C2262 1.391 . S
C2264 C2265 1.400 . S
C2265 C2259 1.491 . S
C2265 C2264 1.400 . S
C2265 C2266 1.398 . S
C2266 H2254 0.950 . S
C2266 C2265 1.398 . S
C2266 C2267 1.391 . S
C2267 H2255 0.950 . S
C2267 C2263 1.393 . S
C2267 C2266 1.391 . S
H2268 C2276 0.950 . S
H2269 C2281 0.950 . S
H2270 C2278 0.950 . S
H2271 C2280 0.950 1_655 S
H2272 C2282 0.950 . S
H2273 C2284 0.950 . S
H2274 C2286 0.950 . S
H2275 C2287 0.950 . S
C2276 H2268 0.950 . S
C2276 C2277 1.386 . S
C2276 C2278 1.391 . S
C2277 C2276 1.386 . S
C2277 C2281 1.393 . S
C2278 H2270 0.950 . S
C2278 C2276 1.391 . S
C2278 C2279 1.400 . S
C2279 C2278 1.400 . S
C2279 C2280 1.398 . S
C2279 C2285 1.491 1_455 S
C2280 H2271 0.950 1_455 S
C2280 C2279 1.398 . S
C2280 C2281 1.391 . S
C2281 H2269 0.950 . S
C2281 C2277 1.393 . S
C2281 C2280 1.391 . S
C2282 H2272 0.950 . S
C2282 C2283 1.386 . S
C2282 C2284 1.391 . S
C2283 C2282 1.386 . S
C2283 C2287 1.393 . S
C2284 H2273 0.950 . S
C2284 C2282 1.391 . S
C2284 C2285 1.400 . S
C2285 C2279 1.491 1_655 S
C2285 C2284 1.400 . S
C2285 C2286 1.398 1_655 S
C2286 H2274 0.950 . S
C2286 C2285 1.398 1_455 S
C2286 C2287 1.391 1_455 S
C2287 H2275 0.950 . S
C2287 C2283 1.393 . S
C2287 C2286 1.391 1_655 S
H2288 C2296 0.950 . S
H2289 C2301 0.950 . S
H2290 C2298 0.950 . S
H2291 C2300 0.950 . S
H2292 C2302 0.950 . S
H2293 C2304 0.950 . S
H2294 C2306 0.950 . S
H2295 C2307 0.950 . S
C2296 H2288 0.950 . S
C2296 C2297 1.386 . S
C2296 C2298 1.391 . S
C2297 C2296 1.386 . S
C2297 C2301 1.393 . S
C2298 H2290 0.950 . S
C2298 C2296 1.391 . S
C2298 C2299 1.400 . S
C2299 C2298 1.400 . S
C2299 C2300 1.398 . S
C2299 C2305 1.491 . S
C2300 H2291 0.950 . S
C2300 C2299 1.398 . S
C2300 C2301 1.391 . S
C2301 H2289 0.950 . S
C2301 C2297 1.393 . S
C2301 C2300 1.391 . S
C2302 H2292 0.950 . S
C2302 C2303 1.386 . S
C2302 C2304 1.391 . S
C2303 C2302 1.386 . S
C2303 C2307 1.393 . S
C2304 H2293 0.950 . S
C2304 C2302 1.391 . S
C2304 C2305 1.400 . S
C2305 C2299 1.491 . S
C2305 C2304 1.400 . S
C2305 C2306 1.398 . S
C2306 H2294 0.950 . S
C2306 C2305 1.398 . S
C2306 C2307 1.391 . S
C2307 H2295 0.950 . S
C2307 C2303 1.393 . S
C2307 C2306 1.391 . S
H2308 C2316 0.950 . S
H2309 C2321 0.950 . S
H2310 C2318 0.944 1_655 S
H2311 C2320 0.950 . S
H2312 C2322 0.950 . S
H2313 C2324 0.950 1_455 S
H2314 C2326 0.950 . S
H2315 C2327 0.950 . S
C2316 H2308 0.950 . S
C2316 C2317 1.386 . S
C2316 C2318 1.395 . S
C2317 C2316 1.386 . S
C2317 C2321 1.393 . S
C2318 H2310 0.944 1_455 S
C2318 C2316 1.395 . S
C2318 C2319 1.402 . S
C2319 C2318 1.402 . S
C2319 C2320 1.398 . S
C2319 C2325 1.491 1_455 S
C2320 H2311 0.950 . S
C2320 C2319 1.398 . S
C2320 C2321 1.391 . S
C2321 H2309 0.950 . S
C2321 C2317 1.393 . S
C2321 C2320 1.391 . S
C2322 H2312 0.950 . S
C2322 C2323 1.386 . S
C2322 C2324 1.391 . S
C2323 C2322 1.386 . S
C2323 C2327 1.393 . S
C2324 H2313 0.950 1_655 S
C2324 C2322 1.391 . S
C2324 C2325 1.400 . S
C2325 C2319 1.491 1_655 S
C2325 C2324 1.400 . S
C2325 C2326 1.398 . S
C2326 H2314 0.950 . S
C2326 C2325 1.398 . S
C2326 C2327 1.391 . S
C2327 H2315 0.950 . S
C2327 C2323 1.393 . S
C2327 C2326 1.391 . S
H2328 C2336 0.950 . S
H2329 C2341 0.950 . S
H2330 C2338 0.950 . S
H2331 C2340 0.950 . S
H2332 C2342 0.950 . S
H2333 C2344 0.950 . S
H2334 C2346 0.950 . S
H2335 C2347 0.950 . S
C2336 H2328 0.950 . S
C2336 C2337 1.386 . S
C2336 C2338 1.391 . S
C2337 C2336 1.386 . S
C2337 C2341 1.393 . S
C2338 H2330 0.950 . S
C2338 C2336 1.391 . S
C2338 C2339 1.400 . S
C2339 C2338 1.400 . S
C2339 C2340 1.398 . S
C2339 C2345 1.491 . S
C2340 H2331 0.950 . S
C2340 C2339 1.398 . S
C2340 C2341 1.391 . S
C2341 H2329 0.950 . S
C2341 C2337 1.393 . S
C2341 C2340 1.391 . S
C2342 H2332 0.950 . S
C2342 C2343 1.386 . S
C2342 C2344 1.391 . S
C2343 C2342 1.386 . S
C2343 C2347 1.393 . S
C2344 H2333 0.950 . S
C2344 C2342 1.391 . S
C2344 C2345 1.400 . S
C2345 C2339 1.491 . S
C2345 C2344 1.400 . S
C2345 C2346 1.398 . S
C2346 H2334 0.950 . S
C2346 C2345 1.398 . S
C2346 C2347 1.391 . S
C2347 H2335 0.950 . S
C2347 C2343 1.393 . S
C2347 C2346 1.391 . S
H2348 C2356 0.950 . S
H2349 C2361 0.950 . S
H2350 C2358 0.950 . S
H2351 C2360 0.950 . S
H2352 C2362 0.950 . S
H2353 C2364 0.950 . S
H2354 C2366 0.950 . S
H2355 C2367 0.950 . S
C2356 H2348 0.950 . S
C2356 C2357 1.386 . S
C2356 C2358 1.391 . S
C2357 C2356 1.386 . S
C2357 C2361 1.393 . S
C2358 H2350 0.950 . S
C2358 C2356 1.391 . S
C2358 C2359 1.400 . S
C2359 C2358 1.400 . S
C2359 C2360 1.398 . S
C2359 C2365 1.491 . S
C2360 H2351 0.950 . S
C2360 C2359 1.398 . S
C2360 C2361 1.391 . S
C2361 H2349 0.950 . S
C2361 C2357 1.393 . S
C2361 C2360 1.391 . S
C2362 H2352 0.950 . S
C2362 C2363 1.386 . S
C2362 C2364 1.391 . S
C2363 C2362 1.386 . S
C2363 C2367 1.393 . S
C2364 H2353 0.950 . S
C2364 C2362 1.391 . S
C2364 C2365 1.400 . S
C2365 C2359 1.491 . S
C2365 C2364 1.400 . S
C2365 C2366 1.398 . S
C2366 H2354 0.950 . S
C2366 C2365 1.398 . S
C2366 C2367 1.391 . S
C2367 H2355 0.950 . S
C2367 C2363 1.393 . S
C2367 C2366 1.391 . S
H2368 C2376 0.950 . S
H2369 C2381 0.950 . S
H2370 C2378 0.950 . S
H2371 C2380 0.950 . S
H2372 C2382 0.950 . S
H2373 C2384 0.950 . S
H2374 C2386 0.950 . S
H2375 C2387 0.950 . S
C2376 H2368 0.950 . S
C2376 C2377 1.386 . S
C2376 C2378 1.391 . S
C2377 C2376 1.386 . S
C2377 C2381 1.393 . S
C2378 H2370 0.950 . S
C2378 C2376 1.391 . S
C2378 C2379 1.400 . S
C2379 C2378 1.400 . S
C2379 C2380 1.398 . S
C2379 C2385 1.491 . S
C2380 H2371 0.950 . S
C2380 C2379 1.398 . S
C2380 C2381 1.391 . S
C2381 H2369 0.950 . S
C2381 C2377 1.393 . S
C2381 C2380 1.391 . S
C2382 H2372 0.950 . S
C2382 C2383 1.386 . S
C2382 C2384 1.391 . S
C2383 C2382 1.386 . S
C2383 C2387 1.393 . S
C2384 H2373 0.950 . S
C2384 C2382 1.391 . S
C2384 C2385 1.400 . S
C2385 C2379 1.491 . S
C2385 C2384 1.400 . S
C2385 C2386 1.398 . S
C2386 H2374 0.950 . S
C2386 C2385 1.398 . S
C2386 C2387 1.391 . S
C2387 H2375 0.950 . S
C2387 C2383 1.393 . S
C2387 C2386 1.391 . S
H2388 C2396 0.950 . S
H2389 C2401 0.932 1_545 S
H2390 C2398 0.950 . S
H2391 C2400 0.950 . S
H2392 C2402 0.950 . S
H2393 C2404 0.950 . S
H2394 C2406 0.950 1_565 S
H2395 C2407 0.950 . S
C2396 H2388 0.950 . S
C2396 C2397 1.386 . S
C2396 C2398 1.391 . S
C2397 C2396 1.386 . S
C2397 C2401 1.393 . S
C2398 H2390 0.950 . S
C2398 C2396 1.391 . S
C2398 C2399 1.400 . S
C2399 C2398 1.400 . S
C2399 C2400 1.398 1_565 S
C2399 C2405 1.491 1_565 S
C2400 H2391 0.950 . S
C2400 C2399 1.398 1_545 S
C2400 C2401 1.391 1_545 S
C2401 H2389 0.932 1_565 S
C2401 C2397 1.393 . S
C2401 C2400 1.391 1_565 S
C2402 H2392 0.950 . S
C2402 C2403 1.386 . S
C2402 C2404 1.391 . S
C2403 C2402 1.386 . S
C2403 C2407 1.393 . S
C2404 H2393 0.950 . S
C2404 C2402 1.391 . S
C2404 C2405 1.400 . S
C2405 C2399 1.491 1_545 S
C2405 C2404 1.400 . S
C2405 C2406 1.398 . S
C2406 H2394 0.950 1_545 S
C2406 C2405 1.398 . S
C2406 C2407 1.391 . S
C2407 H2395 0.950 . S
C2407 C2403 1.393 . S
C2407 C2406 1.391 . S
H2408 C2416 0.950 . S
H2409 C2421 0.950 . S
H2410 C2418 0.950 . S
H2411 C2420 0.950 . S
H2412 C2422 0.950 . S
H2413 C2424 0.950 . S
H2414 C2426 0.950 . S
H2415 C2427 0.950 . S
C2416 H2408 0.950 . S
C2416 C2417 1.386 . S
C2416 C2418 1.391 . S
C2417 C2416 1.386 . S
C2417 C2421 1.393 . S
C2418 H2410 0.950 . S
C2418 C2416 1.391 . S
C2418 C2419 1.400 . S
C2419 C2418 1.400 . S
C2419 C2420 1.398 . S
C2419 C2425 1.491 1_554 S
C2420 H2411 0.950 . S
C2420 C2419 1.398 . S
C2420 C2421 1.391 . S
C2421 H2409 0.950 . S
C2421 C2417 1.393 . S
C2421 C2420 1.391 . S
C2422 H2412 0.950 . S
C2422 C2423 1.386 . S
C2422 C2424 1.391 . S
C2423 C2422 1.386 . S
C2423 C2427 1.393 . S
C2424 H2413 0.950 . S
C2424 C2422 1.391 . S
C2424 C2425 1.400 . S
C2425 C2419 1.491 1_556 S
C2425 C2424 1.400 . S
C2425 C2426 1.398 . S
C2426 H2414 0.950 . S
C2426 C2425 1.398 . S
C2426 C2427 1.391 . S
C2427 H2415 0.950 . S
C2427 C2423 1.393 . S
C2427 C2426 1.391 . S
H2428 C2436 0.950 . S
H2429 C2441 0.950 . S
H2430 C2438 0.950 1_545 S
H2431 C2440 0.950 . S
H2432 C2442 0.950 . S
H2433 C2444 0.950 . S
H2434 C2446 0.950 . S
H2435 C2447 0.950 . S
C2436 H2428 0.950 . S
C2436 C2437 1.386 . S
C2436 C2438 1.391 . S
C2437 C2436 1.386 . S
C2437 C2441 1.393 . S
C2438 H2430 0.950 1_565 S
C2438 C2436 1.391 . S
C2438 C2439 1.400 . S
C2439 C2438 1.400 . S
C2439 C2440 1.398 . S
C2439 C2445 1.491 1_565 S
C2440 H2431 0.950 . S
C2440 C2439 1.398 . S
C2440 C2441 1.391 . S
C2441 H2429 0.950 . S
C2441 C2437 1.393 . S
C2441 C2440 1.391 . S
C2442 H2432 0.950 . S
C2442 C2443 1.386 . S
C2442 C2444 1.391 . S
C2443 C2442 1.386 . S
C2443 C2447 1.393 . S
C2444 H2433 0.950 . S
C2444 C2442 1.391 . S
C2444 C2445 1.400 . S
C2445 C2439 1.491 1_545 S
C2445 C2444 1.400 . S
C2445 C2446 1.398 . S
C2446 H2434 0.950 . S
C2446 C2445 1.398 . S
C2446 C2447 1.391 . S
C2447 H2435 0.950 . S
C2447 C2443 1.393 . S
C2447 C2446 1.391 . S
H2448 C2456 0.950 . S
H2449 C2461 0.950 . S
H2450 C2458 0.950 . S
H2451 C2460 0.950 . S
H2452 C2462 0.950 . S
H2453 C2464 0.950 . S
H2454 C2466 0.950 . S
H2455 C2467 0.950 . S
C2456 H2448 0.950 . S
C2456 C2457 1.386 . S
C2456 C2458 1.391 . S
C2457 C2456 1.386 . S
C2457 C2461 1.393 . S
C2458 H2450 0.950 . S
C2458 C2456 1.391 . S
C2458 C2459 1.400 . S
C2459 C2458 1.400 . S
C2459 C2460 1.398 . S
C2459 C2465 1.491 . S
C2460 H2451 0.950 . S
C2460 C2459 1.398 . S
C2460 C2461 1.391 . S
C2461 H2449 0.950 . S
C2461 C2457 1.393 . S
C2461 C2460 1.391 . S
C2462 H2452 0.950 . S
C2462 C2463 1.386 . S
C2462 C2464 1.391 . S
C2463 C2462 1.386 . S
C2463 C2467 1.393 . S
C2464 H2453 0.950 . S
C2464 C2462 1.391 . S
C2464 C2465 1.400 . S
C2465 C2459 1.491 . S
C2465 C2464 1.400 . S
C2465 C2466 1.398 . S
C2466 H2454 0.950 . S
C2466 C2465 1.398 . S
C2466 C2467 1.391 . S
C2467 H2455 0.950 . S
C2467 C2463 1.393 . S
C2467 C2466 1.391 . S
H2468 C2476 0.950 . S
H2469 C2481 0.950 . S
H2470 C2478 0.950 . S
H2471 C2480 0.948 . S
H2472 C2482 0.950 . S
H2473 C2484 0.950 . S
H2474 C2486 0.950 1_545 S
H2475 C2487 0.950 . S
C2476 H2468 0.950 . S
C2476 C2477 1.386 . S
C2476 C2478 1.391 . S
C2477 C2476 1.386 . S
C2477 C2481 1.393 . S
C2478 H2470 0.950 . S
C2478 C2476 1.391 . S
C2478 C2479 1.400 . S
C2479 C2478 1.400 . S
C2479 C2480 1.399 1_545 S
C2479 C2485 1.491 1_545 S
C2480 H2471 0.948 . S
C2480 C2479 1.399 1_565 S
C2480 C2481 1.392 1_565 S
C2481 H2469 0.950 . S
C2481 C2477 1.393 . S
C2481 C2480 1.392 1_545 S
C2482 H2472 0.950 . S
C2482 C2483 1.386 . S
C2482 C2484 1.391 . S
C2483 C2482 1.386 . S
C2483 C2487 1.393 . S
C2484 H2473 0.950 . S
C2484 C2482 1.391 . S
C2484 C2485 1.400 . S
C2485 C2479 1.491 1_565 S
C2485 C2484 1.400 . S
C2485 C2486 1.398 . S
C2486 H2474 0.950 1_565 S
C2486 C2485 1.398 . S
C2486 C2487 1.391 . S
C2487 H2475 0.950 . S
C2487 C2483 1.393 . S
C2487 C2486 1.391 . S
H2488 C2496 0.950 . S
H2489 C2501 0.950 . S
H2490 C2498 0.950 . S
H2491 C2500 0.950 . S
H2492 C2502 0.950 . S
H2493 C2504 0.950 . S
H2494 C2506 0.950 . S
H2495 C2507 0.950 . S
C2496 H2488 0.950 . S
C2496 C2497 1.386 . S
C2496 C2498 1.391 . S
C2497 C2496 1.386 . S
C2497 C2501 1.393 . S
C2498 H2490 0.950 . S
C2498 C2496 1.391 . S
C2498 C2499 1.400 . S
C2499 C2498 1.400 . S
C2499 C2500 1.398 . S
C2499 C2505 1.491 1_556 S
C2500 H2491 0.950 . S
C2500 C2499 1.398 . S
C2500 C2501 1.391 . S
C2501 H2489 0.950 . S
C2501 C2497 1.393 . S
C2501 C2500 1.391 . S
C2502 H2492 0.950 . S
C2502 C2503 1.386 . S
C2502 C2504 1.391 . S
C2503 C2502 1.386 . S
C2503 C2507 1.393 . S
C2504 H2493 0.950 . S
C2504 C2502 1.391 . S
C2504 C2505 1.400 . S
C2505 C2499 1.491 1_554 S
C2505 C2504 1.400 . S
C2505 C2506 1.398 . S
C2506 H2494 0.950 . S
C2506 C2505 1.398 . S
C2506 C2507 1.391 . S
C2507 H2495 0.950 . S
C2507 C2503 1.393 . S
C2507 C2506 1.391 . S
H2508 C2516 0.950 . S
H2509 C2521 0.950 . S
H2510 C2518 0.928 1_565 S
H2511 C2520 0.950 . S
H2512 C2522 0.950 . S
H2513 C2524 0.950 . S
H2514 C2526 0.950 . S
H2515 C2527 0.950 . S
C2516 H2508 0.950 . S
C2516 C2517 1.386 . S
C2516 C2518 1.391 . S
C2517 C2516 1.386 . S
C2517 C2521 1.393 . S
C2518 H2510 0.928 1_545 S
C2518 C2516 1.391 . S
C2518 C2519 1.400 . S
C2519 C2518 1.400 . S
C2519 C2520 1.398 . S
C2519 C2525 1.491 1_545 S
C2520 H2511 0.950 . S
C2520 C2519 1.398 . S
C2520 C2521 1.391 . S
C2521 H2509 0.950 . S
C2521 C2517 1.393 . S
C2521 C2520 1.391 . S
C2522 H2512 0.950 . S
C2522 C2523 1.386 . S
C2522 C2524 1.391 . S
C2523 C2522 1.386 . S
C2523 C2527 1.393 . S
C2524 H2513 0.950 . S
C2524 C2522 1.391 . S
C2524 C2525 1.400 . S
C2525 C2519 1.491 1_565 S
C2525 C2524 1.400 . S
C2525 C2526 1.398 . S
C2526 H2514 0.950 . S
C2526 C2525 1.398 . S
C2526 C2527 1.391 . S
C2527 H2515 0.950 . S
C2527 C2523 1.393 . S
C2527 C2526 1.391 . S
H2528 C2536 0.950 . S
H2529 C2541 0.950 . S
H2530 C2538 0.950 . S
H2531 C2540 0.950 . S
H2532 C2542 0.950 . S
H2533 C2544 0.950 . S
H2534 C2546 0.950 . S
H2535 C2547 0.950 . S
C2536 H2528 0.950 . S
C2536 C2537 1.386 . S
C2536 C2538 1.391 . S
C2537 C2536 1.386 . S
C2537 C2541 1.393 . S
C2538 H2530 0.950 . S
C2538 C2536 1.391 . S
C2538 C2539 1.400 . S
C2539 C2538 1.400 . S
C2539 C2540 1.398 . S
C2539 C2545 1.491 1_556 S
C2540 H2531 0.950 . S
C2540 C2539 1.398 . S
C2540 C2541 1.391 . S
C2541 H2529 0.950 . S
C2541 C2537 1.393 . S
C2541 C2540 1.391 . S
C2542 H2532 0.950 . S
C2542 C2543 1.386 . S
C2542 C2544 1.391 . S
C2543 C2542 1.386 . S
C2543 C2547 1.393 . S
C2544 H2533 0.950 . S
C2544 C2542 1.391 . S
C2544 C2545 1.400 . S
C2545 C2539 1.491 1_554 S
C2545 C2544 1.400 . S
C2545 C2546 1.398 . S
C2546 H2534 0.950 . S
C2546 C2545 1.398 . S
C2546 C2547 1.391 . S
C2547 H2535 0.950 . S
C2547 C2543 1.393 . S
C2547 C2546 1.391 . S
H2548 C2556 0.950 . S
H2549 C2561 0.950 . S
H2550 C2558 0.950 . S
H2551 C2560 0.950 . S
H2552 C2562 0.950 . S
H2553 C2564 0.950 . S
H2554 C2566 0.950 . S
H2555 C2567 0.950 . S
C2556 H2548 0.950 . S
C2556 C2557 1.386 . S
C2556 C2558 1.391 . S
C2557 C2556 1.386 . S
C2557 C2561 1.393 . S
C2558 H2550 0.950 . S
C2558 C2556 1.391 . S
C2558 C2559 1.400 . S
C2559 C2558 1.400 . S
C2559 C2560 1.398 . S
C2559 C2565 1.491 . S
C2560 H2551 0.950 . S
C2560 C2559 1.398 . S
C2560 C2561 1.391 . S
C2561 H2549 0.950 . S
C2561 C2557 1.393 . S
C2561 C2560 1.391 . S
C2562 H2552 0.950 . S
C2562 C2563 1.386 . S
C2562 C2564 1.391 . S
C2563 C2562 1.386 . S
C2563 C2567 1.393 . S
C2564 H2553 0.950 . S
C2564 C2562 1.391 . S
C2564 C2565 1.400 . S
C2565 C2559 1.491 . S
C2565 C2564 1.400 . S
C2565 C2566 1.398 . S
C2566 H2554 0.950 . S
C2566 C2565 1.398 . S
C2566 C2567 1.391 . S
C2567 H2555 0.950 . S
C2567 C2563 1.393 . S
C2567 C2566 1.391 . S
H2568 C2576 0.950 . S
H2569 C2581 0.950 . S
H2570 C2578 0.950 . S
H2571 C2580 0.950 . S
H2572 C2582 0.950 . S
H2573 C2584 0.950 . S
H2574 C2586 0.950 . S
H2575 C2587 0.950 . S
C2576 H2568 0.950 . S
C2576 C2577 1.386 . S
C2576 C2578 1.391 . S
C2577 C2576 1.386 . S
C2577 C2581 1.393 . S
C2578 H2570 0.950 . S
C2578 C2576 1.391 . S
C2578 C2579 1.400 . S
C2579 C2578 1.400 . S
C2579 C2580 1.398 . S
C2579 C2585 1.491 . S
C2580 H2571 0.950 . S
C2580 C2579 1.398 . S
C2580 C2581 1.391 . S
C2581 H2569 0.950 . S
C2581 C2577 1.393 . S
C2581 C2580 1.391 . S
C2582 H2572 0.950 . S
C2582 C2583 1.386 . S
C2582 C2584 1.391 . S
C2583 C2582 1.386 . S
C2583 C2587 1.393 . S
C2584 H2573 0.950 . S
C2584 C2582 1.391 . S
C2584 C2585 1.400 . S
C2585 C2579 1.491 . S
C2585 C2584 1.400 . S
C2585 C2586 1.398 . S
C2586 H2574 0.950 . S
C2586 C2585 1.398 . S
C2586 C2587 1.391 . S
C2587 H2575 0.950 . S
C2587 C2583 1.393 . S
C2587 C2586 1.391 . S
H2588 C2596 0.950 . S
H2589 C2601 0.950 . S
H2590 C2598 0.950 . S
H2591 C2600 0.950 . S
H2592 C2602 0.950 . S
H2593 C2604 0.950 . S
H2594 C2606 0.950 . S
H2595 C2607 0.950 . S
C2596 H2588 0.950 . S
C2596 C2597 1.386 . S
C2596 C2598 1.391 . S
C2597 C2596 1.386 . S
C2597 C2601 1.393 . S
C2598 H2590 0.950 . S
C2598 C2596 1.391 . S
C2598 C2599 1.400 . S
C2599 C2598 1.400 . S
C2599 C2600 1.398 . S
C2599 C2605 1.491 . S
C2600 H2591 0.950 . S
C2600 C2599 1.398 . S
C2600 C2601 1.391 . S
C2601 H2589 0.950 . S
C2601 C2597 1.393 . S
C2601 C2600 1.391 . S
C2602 H2592 0.950 . S
C2602 C2603 1.386 . S
C2602 C2604 1.391 . S
C2603 C2602 1.386 . S
C2603 C2607 1.393 . S
C2604 H2593 0.950 . S
C2604 C2602 1.391 . S
C2604 C2605 1.400 . S
C2605 C2599 1.491 . S
C2605 C2604 1.400 . S
C2605 C2606 1.398 . S
C2606 H2594 0.950 . S
C2606 C2605 1.398 . S
C2606 C2607 1.391 . S
C2607 H2595 0.950 . S
C2607 C2603 1.393 . S
C2607 C2606 1.391 . S
H2608 C2616 0.950 . S
H2609 C2621 0.950 . S
H2610 C2618 0.950 . S
H2611 C2620 0.950 . S
H2612 C2622 0.950 . S
H2613 C2624 0.950 . S
H2614 C2626 0.950 . S
H2615 C2627 0.950 . S
C2616 H2608 0.950 . S
C2616 C2617 1.386 . S
C2616 C2618 1.391 . S
C2617 C2616 1.386 . S
C2617 C2621 1.393 . S
C2618 H2610 0.950 . S
C2618 C2616 1.391 . S
C2618 C2619 1.400 . S
C2619 C2618 1.400 . S
C2619 C2620 1.398 . S
C2619 C2625 1.491 1_556 S
C2620 H2611 0.950 . S
C2620 C2619 1.398 . S
C2620 C2621 1.391 . S
C2621 H2609 0.950 . S
C2621 C2617 1.393 . S
C2621 C2620 1.391 . S
C2622 H2612 0.950 . S
C2622 C2623 1.386 . S
C2622 C2624 1.391 . S
C2623 C2622 1.386 . S
C2623 C2627 1.393 . S
C2624 H2613 0.950 . S
C2624 C2622 1.391 . S
C2624 C2625 1.400 . S
C2625 C2619 1.491 1_554 S
C2625 C2624 1.400 . S
C2625 C2626 1.398 . S
C2626 H2614 0.950 . S
C2626 C2625 1.398 . S
C2626 C2627 1.391 . S
C2627 H2615 0.950 . S
C2627 C2623 1.393 . S
C2627 C2626 1.391 . S
H2628 C2636 0.950 . S
H2629 C2641 0.950 . S
H2630 C2638 0.950 . S
H2631 C2640 0.950 . S
H2632 C2642 0.950 . S
H2633 C2644 0.950 . S
H2634 C2646 0.950 . S
H2635 C2647 0.950 . S
C2636 H2628 0.950 . S
C2636 C2637 1.386 . S
C2636 C2638 1.391 . S
C2637 C2636 1.386 . S
C2637 C2641 1.393 . S
C2638 H2630 0.950 . S
C2638 C2636 1.391 . S
C2638 C2639 1.400 . S
C2639 C2638 1.400 . S
C2639 C2640 1.398 . S
C2639 C2645 1.491 . S
C2640 H2631 0.950 . S
C2640 C2639 1.398 . S
C2640 C2641 1.391 . S
C2641 H2629 0.950 . S
C2641 C2637 1.393 . S
C2641 C2640 1.391 . S
C2642 H2632 0.950 . S
C2642 C2643 1.386 . S
C2642 C2644 1.391 . S
C2643 C2642 1.386 . S
C2643 C2647 1.393 . S
C2644 H2633 0.950 . S
C2644 C2642 1.391 . S
C2644 C2645 1.400 . S
C2645 C2639 1.491 . S
C2645 C2644 1.400 . S
C2645 C2646 1.398 . S
C2646 H2634 0.950 . S
C2646 C2645 1.398 . S
C2646 C2647 1.391 . S
C2647 H2635 0.950 . S
C2647 C2643 1.393 . S
C2647 C2646 1.391 . S
H2648 C2656 0.950 . S
H2649 C2661 0.950 . S
H2650 C2658 0.950 . S
H2651 C2660 0.950 . S
H2652 C2662 0.950 . S
H2653 C2664 0.950 . S
H2654 C2666 0.950 . S
H2655 C2667 0.950 . S
C2656 H2648 0.950 . S
C2656 C2657 1.386 . S
C2656 C2658 1.391 . S
C2657 C2656 1.386 . S
C2657 C2661 1.393 . S
C2658 H2650 0.950 . S
C2658 C2656 1.391 . S
C2658 C2659 1.400 . S
C2659 C2658 1.400 . S
C2659 C2660 1.398 . S
C2659 C2665 1.491 . S
C2660 H2651 0.950 . S
C2660 C2659 1.398 . S
C2660 C2661 1.391 . S
C2661 H2649 0.950 . S
C2661 C2657 1.393 . S
C2661 C2660 1.391 . S
C2662 H2652 0.950 . S
C2662 C2663 1.386 . S
C2662 C2664 1.391 . S
C2663 C2662 1.386 . S
C2663 C2667 1.393 . S
C2664 H2653 0.950 . S
C2664 C2662 1.391 . S
C2664 C2665 1.400 . S
C2665 C2659 1.491 . S
C2665 C2664 1.400 . S
C2665 C2666 1.398 . S
C2666 H2654 0.950 . S
C2666 C2665 1.398 . S
C2666 C2667 1.391 . S
C2667 H2655 0.950 . S
C2667 C2663 1.393 . S
C2667 C2666 1.391 . S
H2668 C2676 0.950 . S
H2669 C2681 0.950 . S
H2670 C2678 0.950 . S
H2671 C2680 0.950 . S
H2672 C2682 0.950 . S
H2673 C2684 0.950 . S
H2674 C2686 0.950 . S
H2675 C2687 0.950 . S
C2676 H2668 0.950 . S
C2676 C2677 1.386 . S
C2676 C2678 1.391 . S
C2677 C2676 1.386 . S
C2677 C2681 1.393 . S
C2678 H2670 0.950 . S
C2678 C2676 1.391 . S
C2678 C2679 1.400 . S
C2679 C2678 1.400 . S
C2679 C2680 1.398 . S
C2679 C2685 1.491 . S
C2680 H2671 0.950 . S
C2680 C2679 1.398 . S
C2680 C2681 1.391 . S
C2681 H2669 0.950 . S
C2681 C2677 1.393 . S
C2681 C2680 1.391 . S
C2682 H2672 0.950 . S
C2682 C2683 1.386 . S
C2682 C2684 1.391 . S
C2683 C2682 1.386 . S
C2683 C2687 1.393 . S
C2684 H2673 0.950 . S
C2684 C2682 1.391 . S
C2684 C2685 1.400 . S
C2685 C2679 1.491 . S
C2685 C2684 1.400 . S
C2685 C2686 1.398 . S
C2686 H2674 0.950 . S
C2686 C2685 1.398 . S
C2686 C2687 1.391 . S
C2687 H2675 0.950 . S
C2687 C2683 1.393 . S
C2687 C2686 1.391 . S
C1097 C818 1.083 . S
C1103 C2 1.080 . S
C1117 C36 0.506 . S
C1123 C308 0.506 . S
C1137 C70 1.139 . S
C1143 C886 1.137 . S
C1157 C104 0.605 . S
C1163 C376 0.607 . S
C1177 C138 1.106 . S
C1183 C954 1.104 . S
C1197 C172 0.497 . S
C1203 C444 0.497 . S
C1217 C1022 1.083 . S
C1223 C206 1.081 . S
C1237 C240 0.569 . S
C1243 C512 0.570 . S
C1257 C546 1.117 . S
C1263 C274 1.114 . S
C1277 C614 1.133 . S
C1283 C342 1.136 . S
C1297 C682 1.143 . S
C1303 C410 1.145 . S
C1317 C750 1.113 . S
C1323 C478 1.111 . S
C1337 C580 0.584 . S
C1343 C852 0.586 . S
C1357 C648 0.470 . S
C1363 C920 0.470 . S
C1377 C716 0.575 . S
C1383 C988 0.577 . S
C1397 C784 0.457 . S
C1403 C1056 0.457 . S
C1417 C20 1.596 . S
C1423 C258 1.637 . S
C1437 C54 1.567 . S
C1443 C156 1.527 . S
C1457 C190 1.561 . S
C1463 C88 1.508 . S
C1477 C224 1.587 . S
C1483 C122 1.632 . S
C1497 C292 1.595 . S
C1503 C530 1.637 . S
C1517 C428 1.527 . S
C1523 C326 1.570 . S
C1537 C462 1.560 . S
C1543 C360 1.506 . S
C1557 C496 1.598 . S
C1563 C394 1.641 . S
C1577 C564 1.529 . S
C1583 C802 1.571 . S
C1597 C700 1.592 . S
C1603 C598 1.639 . S
C1617 C734 1.633 . S
C1623 C632 1.582 . S
C1637 C666 1.563 . S
C1643 C768 1.510 . S
C1657 C836 1.507 . S
C1663 C1074 1.560 . S
C1677 C870 1.626 . S
C1683 C972 1.574 . S
C1697 C1006 1.626 . S
C1703 C904 1.574 . S
C1717 C938 1.561 . S
C1723 C1040 1.513 . S
C1737 C9 1.131 1_556 S
C1743 C1053 1.153 . S
C1757 C543 0.773 . S
C1763 C43 0.745 . S
C1777 C77 1.145 . S
C1783 C985 1.171 . S
C1797 C111 1.051 . S
C1803 C475 1.064 . S
C1817 C917 1.168 . S
C1823 C145 1.146 . S
C1837 C179 0.738 . S
C1843 C407 0.739 . S
C1857 C213 1.111 1_554 S
C1863 C849 1.154 . S
C1877 C247 1.076 . S
C1883 C339 1.079 . S
C1897 C781 1.155 . S
C1903 C281 1.113 1_554 S
C1917 C271 0.738 . S
C1923 C315 0.756 . S
C1937 C349 1.136 . S
C1943 C713 1.151 . S
C1957 C203 1.071 . S
C1963 C383 1.079 . S
C1977 C417 1.111 . S
C1983 C645 1.145 . S
C1997 C451 0.779 . S
C2003 C135 0.764 . S
C2017 C577 1.140 . S
C2023 C485 1.093 1_556 S
C2037 C67 1.069 . S
C2043 C519 1.048 . S
C2057 C509 1.170 . S
C2063 C553 1.124 . S
C2077 C587 1.077 . S
C2083 C1087 1.077 . S
C2097 C621 1.120 1_556 S
C2103 C441 1.133 . S
C2117 C655 0.743 . S
C2123 C1019 0.768 . S
C2137 C373 1.142 . S
C2143 C689 1.129 1_554 S
C2157 C723 1.072 . S
C2163 C951 1.067 . S
C2177 C757 1.110 . S
C2183 C305 1.160 . S
C2197 C791 0.763 . S
C2203 C883 0.775 . S
C2217 C825 1.146 . S
C2223 C237 1.162 . S
C2237 C859 1.073 . S
C2243 C815 1.083 . S
C2257 C893 1.122 1_554 S
C2263 C169 1.156 . S
C2277 C927 0.751 . S
C2283 C747 0.773 . S
C2297 C101 1.137 . S
C2303 C961 1.092 1_556 S
C2317 C995 1.071 . S
C2323 C679 1.066 . S
C2337 C1029 1.117 . S
C2343 C33 1.166 . S
C2357 C611 0.741 . S
C2363 C1063 0.736 . S
C2377 C5 1.887 . S
C2383 C209 1.904 . S
C2397 C39 1.204 . S
C2403 C243 1.180 . S
C2417 C141 1.881 . S
C2423 C73 1.868 . S
C2437 C175 1.182 . S
C2443 C107 1.191 . S
C2457 C481 1.896 . S
C2463 C277 1.887 . S
C2477 C311 1.189 . S
C2483 C515 1.206 . S
C2497 C413 1.868 . S
C2503 C345 1.867 . S
C2517 C447 1.191 . S
C2523 C379 1.182 . S
C2537 C549 1.876 . S
C2543 C753 1.863 . S
C2557 C583 1.209 . S
C2563 C787 1.185 . S
C2577 C685 1.885 . S
C2583 C617 1.902 . S
C2597 C651 1.191 . S
C2603 C719 1.182 . S
C2617 C1025 1.864 . S
C2623 C821 1.874 . S
C2637 C1059 1.181 . S
C2643 C855 1.192 . S
C2657 C889 1.904 . S
C2663 C957 1.887 . S
C2677 C991 1.201 . S
C2683 C923 1.200 . S
