# Generated by pormake.
# Topology acs-f, (3)-cn, num edge types: 1
# Building blocks:
#     Node 0, Type 0, BuildingBlock: WUSLED_clean_sbu_0, # of connection points: 3
#     Node 1, Type 0, BuildingBlock: WUSLED_clean_sbu_0, # of connection points: 3
#     Node 2, Type 0, BuildingBlock: WUSLED_clean_sbu_0, # of connection points: 3
#     Node 3, Type 0, BuildingBlock: WUSLED_clean_sbu_0, # of connection points: 3
#     Node 4, Type 0, BuildingBlock: WUSLED_clean_sbu_0, # of connection points: 3
#     Node 5, Type 0, BuildingBlock: WUSLED_clean_sbu_0, # of connection points: 3
#     Node 6, Type 0, BuildingBlock: WUSLED_clean_sbu_0, # of connection points: 3
#     Node 7, Type 0, BuildingBlock: WUSLED_clean_sbu_0, # of connection points: 3
#     Node 8, Type 0, BuildingBlock: WUSLED_clean_sbu_0, # of connection points: 3
#     Node 9, Type 0, BuildingBlock: WUSLED_clean_sbu_0, # of connection points: 3
#     Node 10, Type 0, BuildingBlock: WUSLED_clean_sbu_0, # of connection points: 3
#     Node 11, Type 0, BuildingBlock: WUSLED_clean_sbu_0, # of connection points: 3
#     Edge 12, Type (0, 0), BuildingBlock: OJICUG_clean_linker_0, # of connection points: 2
#     Edge 13, Type (0, 0), BuildingBlock: OJICUG_clean_linker_0, # of connection points: 2
#     Edge 14, Type (0, 0), BuildingBlock: OJICUG_clean_linker_0, # of connection points: 2
#     Edge 15, Type (0, 0), BuildingBlock: OJICUG_clean_linker_0, # of connection points: 2
#     Edge 16, Type (0, 0), BuildingBlock: OJICUG_clean_linker_0, # of connection points: 2
#     Edge 17, Type (0, 0), BuildingBlock: OJICUG_clean_linker_0, # of connection points: 2
#     Edge 18, Type (0, 0), BuildingBlock: OJICUG_clean_linker_0, # of connection points: 2
#     Edge 19, Type (0, 0), BuildingBlock: OJICUG_clean_linker_0, # of connection points: 2
#     Edge 20, Type (0, 0), BuildingBlock: OJICUG_clean_linker_0, # of connection points: 2
#     Edge 21, Type (0, 0), BuildingBlock: OJICUG_clean_linker_0, # of connection points: 2
#     Edge 22, Type (0, 0), BuildingBlock: OJICUG_clean_linker_0, # of connection points: 2
#     Edge 23, Type (0, 0), BuildingBlock: OJICUG_clean_linker_0, # of connection points: 2
#     Edge 24, Type (0, 0), BuildingBlock: OJICUG_clean_linker_0, # of connection points: 2
#     Edge 25, Type (0, 0), BuildingBlock: OJICUG_clean_linker_0, # of connection points: 2
#     Edge 26, Type (0, 0), BuildingBlock: OJICUG_clean_linker_0, # of connection points: 2
#     Edge 27, Type (0, 0), BuildingBlock: OJICUG_clean_linker_0, # of connection points: 2
#     Edge 28, Type (0, 0), BuildingBlock: OJICUG_clean_linker_0, # of connection points: 2
#     Edge 29, Type (0, 0), BuildingBlock: OJICUG_clean_linker_0, # of connection points: 2
# Relax obj value: 0.266
# Max RMSD: 0.159
# Mean RMSD: 0.148
data_MOF--net-acs-f--node1-WUSLED_clean_sbu_0--edge1-OJICUG_clean_linker_0
_symmetry_space_group_name_H-M    P1
_symmetry_Int_Tables_number       1
_symmetry_cell_setting            triclinic
loop_
_symmetry_equiv_pos_as_xyz
'x, y, z'
_cell_length_a     43.899054
_cell_length_b     43.936315
_cell_length_c     54.140421
_cell_angle_alpha  89.800952
_cell_angle_beta   89.84136
_cell_angle_gamma 114.78834
loop_
_atom_site_label
_atom_site_type_symbol
_atom_site_fract_x
_atom_site_fract_y
_atom_site_fract_z
_atom_type_partial_charge
C0 C 0.13471 0.37178 0.16555 0.0
C1 C 0.13341 0.39072 0.18605 0.0
C2 C 0.162 0.36499 0.21124 0.0
C3 C 0.14714 0.38756 0.20858 0.0
C4 C 0.16213 0.34501 0.19102 0.0
C5 C 0.14874 0.34856 0.16824 0.0
U6 U 0.07942 0.40323 0.13207 0.0
O7 O 0.09086 0.43661 0.09989 0.0
O8 O 0.04763 0.38744 0.09876 0.0
C9 C 0.06477 0.41611 0.08733 0.0
C10 C 0.12205 0.37721 0.1415 0.0
C11 C 0.0456 0.43169 0.07403 0.0
C12 C 0.01935 0.43692 0.03571 0.0
C13 C 0.03321 0.41981 0.05047 0.0
C14 C 0.02896 0.47754 0.06826 0.0
C15 C 0.01773 0.46644 0.04418 0.0
C16 C 0.04273 0.46031 0.08307 0.0
C17 C 0.03304 0.43117 0.18485 0.0
C18 C 0.01339 0.4745 0.19179 0.0
C19 C 0.00939 0.43527 0.22454 0.0
C20 C 0.02274 0.41899 0.20877 0.0
C21 C 0.00562 0.46404 0.21663 0.0
C22 C 0.0274 0.4584 0.17608 0.0
C23 C 0.05396 0.41783 0.17163 0.0
O24 O 0.09005 0.35875 0.13737 0.0
O25 O 0.13132 0.4089 0.13567 0.0
O26 O 0.08152 0.43919 0.16078 0.0
O27 O 0.03936 0.38891 0.16029 0.0
H28 H 0.12231 0.4085 0.18449 0.0
H29 H 0.14636 0.40295 0.22395 0.0
H30 H 0.17353 0.32749 0.19263 0.0
H31 H 0.1498 0.3336 0.15267 0.0
H32 H 0.01125 0.4278 0.01723 0.0
H33 H 0.03543 0.39794 0.04308 0.0
H34 H 0.02758 0.49987 0.07551 0.0
H35 H 0.05208 0.46994 0.10123 0.0
H36 H 0.01009 0.49601 0.18476 0.0
H37 H 0.00439 0.42652 0.24346 0.0
H38 H 0.02715 0.39809 0.21589 0.0
H39 H 0.03516 0.46809 0.15758 0.0
C40 C 0.62509 0.74261 0.16572 0.0
C41 C 0.6115 0.72491 0.18762 0.0
C42 C 0.63675 0.77637 0.21147 0.0
C43 C 0.61707 0.74158 0.21019 0.0
C44 C 0.65103 0.79391 0.18947 0.0
C45 C 0.64516 0.77715 0.16677 0.0
U46 U 0.59178 0.66011 0.13361 0.0
O47 O 0.55606 0.64187 0.10305 0.0
O48 O 0.60596 0.64183 0.0994 0.0
C49 C 0.57635 0.63384 0.08934 0.0
C50 C 0.61746 0.72475 0.14198 0.0
C51 C 0.56115 0.60176 0.07587 0.0
C52 C 0.55944 0.57114 0.03814 0.0
C53 C 0.57567 0.59885 0.05341 0.0
C54 C 0.51428 0.54799 0.06801 0.0
C55 C 0.52815 0.5457 0.04496 0.0
C56 C 0.5306 0.57576 0.08331 0.0
C57 C 0.56931 0.59191 0.18748 0.0
C58 C 0.53037 0.53391 0.19421 0.0
C59 C 0.5657 0.56604 0.22763 0.0
C60 C 0.58036 0.59347 0.21184 0.0
C61 C 0.53979 0.53609 0.21932 0.0
C62 C 0.5448 0.56178 0.17845 0.0
C63 C 0.58106 0.62356 0.17369 0.0
O64 O 0.63596 0.70864 0.13657 0.0
O65 O 0.58533 0.70673 0.13815 0.0
O66 O 0.55842 0.63225 0.16399 0.0
O67 O 0.60902 0.6333 0.16084 0.0
H68 H 0.59595 0.69817 0.18721 0.0
H69 H 0.60508 0.72722 0.22652 0.0
H70 H 0.6667 0.8206 0.18975 0.0
H71 H 0.65603 0.79118 0.15006 0.0
H72 H 0.5712 0.56993 0.02079 0.0
H73 H 0.59915 0.61864 0.04724 0.0
H74 H 0.49014 0.52901 0.07381 0.0
H75 H 0.51875 0.57741 0.10052 0.0
H76 H 0.51104 0.5111 0.18693 0.0
H77 H 0.5734 0.5693 0.24677 0.0
H78 H 0.59911 0.61669 0.21915 0.0
H79 H 0.536 0.5602 0.15962 0.0
C80 C 0.24836 0.85742 0.16661 0.0
C81 C 0.26717 0.85832 0.18774 0.0
C82 C 0.21614 0.83413 0.21262 0.0
C83 C 0.25126 0.8466 0.21041 0.0
C84 C 0.19742 0.83386 0.19143 0.0
C85 C 0.21341 0.84534 0.16862 0.0
U86 U 0.32762 0.91089 0.13304 0.0
O87 O 0.35157 0.89897 0.10119 0.0
O88 O 0.33821 0.9419 0.09916 0.0
C89 C 0.35249 0.92459 0.08807 0.0
C90 C 0.26545 0.86923 0.14269 0.0
C91 C 0.38351 0.94352 0.0738 0.0
C92 C 0.40866 0.97226 0.03547 0.0
C93 C 0.38101 0.9583 0.05134 0.0
C94 C 0.44232 0.95798 0.06468 0.0
C95 C 0.43951 0.97166 0.04166 0.0
C96 C 0.41458 0.94402 0.0806 0.0
C97 C 0.39458 0.95755 0.18542 0.0
C98 C 0.4543 0.97633 0.19239 0.0
C99 C 0.41863 0.98112 0.22494 0.0
C100 C 0.39115 0.96808 0.20921 0.0
C101 C 0.45045 0.98435 0.21712 0.0
C102 C 0.42646 0.96264 0.17672 0.0
C103 C 0.36361 0.93683 0.17234 0.0
O104 O 0.27436 0.90115 0.13778 0.0
O105 O 0.28923 0.85937 0.13779 0.0
O106 O 0.36149 0.90891 0.1621 0.0
O107 O 0.3473 0.95153 0.16052 0.0
H108 H 0.29424 0.86775 0.18666 0.0
H109 H 0.26656 0.84671 0.22609 0.0
H110 H 0.17041 0.82494 0.19245 0.0
H111 H 0.1985 0.84474 0.15256 0.0
H112 H 0.40572 0.98314 0.01816 0.0
H113 H 0.35727 0.95811 0.04569 0.0
H114 H 0.4656 0.9569 0.07001 0.0
H115 H 0.41716 0.93267 0.0978 0.0
H116 H 0.4785 0.97922 0.18542 0.0
H117 H 0.41412 0.98632 0.24379 0.0
H118 H 0.36662 0.96408 0.21628 0.0
H119 H 0.42955 0.95467 0.15834 0.0
C120 C 0.62697 0.86265 0.35221 0.0
C121 C 0.61169 0.86784 0.33087 0.0
C122 C 0.6378 0.8392 0.3059 0.0
C123 C 0.61686 0.85609 0.30803 0.0
C124 C 0.65383 0.83487 0.32731 0.0
C125 C 0.64836 0.84642 0.35028 0.0
U126 U 0.59275 0.9151 0.3868 0.0
O127 O 0.55789 0.90152 0.41824 0.0
O128 O 0.6073 0.94414 0.42141 0.0
C129 C 0.57811 0.92639 0.43197 0.0
C130 C 0.61963 0.87346 0.37636 0.0
C131 C 0.56259 0.94471 0.44642 0.0
C132 C 0.56114 0.97265 0.48485 0.0
C133 C 0.57743 0.95937 0.46882 0.0
C134 C 0.51519 0.9578 0.45597 0.0
C135 C 0.52948 0.97143 0.47888 0.0
C136 C 0.53158 0.94459 0.43988 0.0
C137 C 0.56703 0.96426 0.33404 0.0
C138 C 0.51963 0.97364 0.31885 0.0
C139 C 0.57154 0.99414 0.2954 0.0
C140 C 0.58608 0.98217 0.3137 0.0
C141 C 0.5378 0.98873 0.29733 0.0
C142 C 0.53408 0.9612 0.33705 0.0
C143 C 0.57979 0.9434 0.34811 0.0
O144 O 0.63764 0.9051 0.38184 0.0
O145 O 0.58752 0.8637 0.38102 0.0
O146 O 0.55815 0.91493 0.35765 0.0
O147 O 0.60816 0.95743 0.36028 0.0
H148 H 0.59512 0.88041 0.33195 0.0
H149 H 0.60356 0.85943 0.29218 0.0
H150 H 0.67052 0.82245 0.32638 0.0
H151 H 0.66054 0.84238 0.36654 0.0
H152 H 0.57276 0.98264 0.5024 0.0
H153 H 0.60116 0.95944 0.47437 0.0
H154 H 0.49109 0.95695 0.45061 0.0
H155 H 0.51956 0.93344 0.42269 0.0
H156 H 0.49345 0.96897 0.32062 0.0
H157 H 0.58601 0.00573 0.279 0.0
H158 H 0.61144 0.98454 0.31092 0.0
H159 H 0.51883 0.94726 0.35251 0.0
C160 C 0.13294 0.74177 0.35264 0.0
C161 C 0.12918 0.72316 0.33094 0.0
C162 C 0.15629 0.77457 0.30683 0.0
C163 C 0.14091 0.73933 0.30836 0.0
C164 C 0.15931 0.79314 0.3286 0.0
C165 C 0.14781 0.77685 0.35131 0.0
U166 U 0.07879 0.66249 0.38584 0.0
O167 O 0.09132 0.63701 0.41644 0.0
O168 O 0.04947 0.65173 0.42057 0.0
C169 C 0.06652 0.63631 0.43047 0.0
C170 C 0.12163 0.7243 0.37648 0.0
C171 C 0.04737 0.60489 0.44426 0.0
C172 C 0.01795 0.5785 0.4821 0.0
C173 C 0.0321 0.60662 0.46668 0.0
C174 C 0.03308 0.54594 0.45252 0.0
C175 C 0.01888 0.54796 0.4755 0.0
C176 C 0.04719 0.57411 0.43705 0.0
C177 C 0.02821 0.5975 0.33316 0.0
C178 C 0.01746 0.54192 0.31809 0.0
C179 C -0.00304 0.57699 0.29525 0.0
C180 C 0.00982 0.60166 0.3133 0.0
C181 C 0.00197 0.54757 0.29694 0.0
C182 C 0.03076 0.56687 0.33605 0.0
C183 C 0.05009 0.62778 0.34662 0.0
O184 O 0.09005 0.71622 0.3822 0.0
O185 O 0.13068 0.69974 0.38036 0.0
O186 O 0.07839 0.62916 0.35571 0.0
O187 O 0.03665 0.64446 0.35941 0.0
H188 H 0.11763 0.69601 0.33153 0.0
H189 H 0.13861 0.72408 0.29221 0.0
H190 H 0.17053 0.82028 0.32813 0.0
H191 H 0.15069 0.79163 0.36784 0.0
H192 H 0.00668 0.58085 0.49939 0.0
H193 H 0.03204 0.6301 0.47266 0.0
H194 H 0.03448 0.52293 0.44688 0.0
H195 H 0.05892 0.57208 0.41989 0.0
H196 H 0.02183 0.51948 0.31968 0.0
H197 H 0.98506 0.58185 0.27913 0.0
H198 H 0.0078 0.62521 0.31062 0.0
H199 H 0.04503 0.56318 0.35114 0.0
C200 C 0.25696 0.36999 0.35074 0.0
C201 C 0.27617 0.38395 0.32946 0.0
C202 C 0.22577 0.36328 0.30436 0.0
C203 C 0.26072 0.3808 0.30654 0.0
C204 C 0.20665 0.34801 0.3255 0.0
C205 C 0.22216 0.35154 0.3486 0.0
U206 U 0.33751 0.40091 0.38553 0.0
O207 O 0.35421 0.43618 0.4164 0.0
O208 O 0.35361 0.38611 0.4205 0.0
C209 C 0.36133 0.41566 0.43054 0.0
C210 C 0.27342 0.37645 0.37504 0.0
C211 C 0.39287 0.43066 0.4447 0.0
C212 C 0.42151 0.4336 0.48364 0.0
C213 C 0.39421 0.41726 0.46801 0.0
C214 C 0.44733 0.47655 0.45251 0.0
C215 C 0.44809 0.46389 0.47635 0.0
C216 C 0.41999 0.46011 0.43684 0.0
C217 C 0.40838 0.4232 0.33313 0.0
C218 C 0.46032 0.4685 0.31927 0.0
C219 C 0.43462 0.41808 0.29478 0.0
C220 C 0.40937 0.40436 0.31252 0.0
C221 C 0.45955 0.45073 0.29755 0.0
C222 C 0.43468 0.45491 0.33692 0.0
C223 C 0.37654 0.4118 0.34682 0.0
O224 O 0.28876 0.35738 0.38087 0.0
O225 O 0.29165 0.40833 0.37952 0.0
O226 O 0.36742 0.43444 0.35596 0.0
O227 O 0.36564 0.38355 0.35941 0.0
H228 H 0.30311 0.39809 0.33069 0.0
H229 H 0.27607 0.39251 0.29052 0.0
H230 H 0.17964 0.3345 0.32431 0.0
H231 H 0.20695 0.34057 0.36482 0.0
H232 H 0.42151 0.42275 0.50163 0.0
H233 H 0.37354 0.39462 0.47449 0.0
H234 H 0.46721 0.49991 0.44631 0.0
H235 H 0.41954 0.47107 0.41897 0.0
H236 H 0.47923 0.49387 0.32167 0.0
H237 H 0.43358 0.40395 0.27819 0.0
H238 H 0.38915 0.37996 0.30916 0.0
H239 H 0.43426 0.46998 0.35261 0.0
C240 C 0.87342 0.65175 0.85286 0.0
C241 C 0.87343 0.63182 0.83267 0.0
C242 C 0.84444 0.65735 0.80761 0.0
C243 C 0.85897 0.63449 0.81031 0.0
C244 C 0.84559 0.67825 0.82757 0.0
C245 C 0.85983 0.67532 0.85012 0.0
U246 U 0.91836 0.60974 0.888 0.0
O247 O 0.90476 0.58193 0.92305 0.0
O248 O 0.95372 0.62505 0.91927 0.0
C249 C 0.93374 0.60025 0.9334 0.0
C250 C 0.88605 0.64637 0.87689 0.0
C251 C 0.94926 0.58184 0.94761 0.0
C252 C 0.97343 0.5748 0.98637 0.0
C253 C 0.96134 0.59315 0.97131 0.0
C254 C 0.96217 0.53367 0.95397 0.0
C255 C 0.9737 0.54462 0.97803 0.0
C256 C 0.95006 0.55213 0.93887 0.0
C257 C 0.94669 0.55869 0.8392 0.0
C258 C 0.9821 0.55306 0.80645 0.0
C259 C 0.935 0.50399 0.82185 0.0
C260 C 0.92781 0.52377 0.83901 0.0
C261 C 0.96112 0.51874 0.80457 0.0
C262 C 0.97484 0.57289 0.82356 0.0
C263 C 0.93274 0.58083 0.85027 0.0
O264 O 0.87113 0.61546 0.88521 0.0
O265 O 0.91888 0.65897 0.87893 0.0
O266 O 0.95345 0.61037 0.85856 0.0
O267 O 0.90441 0.56711 0.86276 0.0
H268 H 0.88397 0.6136 0.83438 0.0
H269 H 0.85884 0.61838 0.79517 0.0
H270 H 0.83445 0.69599 0.826 0.0
H271 H 0.85961 0.6909 0.86552 0.0
H272 H 0.98164 0.58381 1.00485 0.0
H273 H 0.96067 0.61588 0.97846 0.0
H274 H 0.96244 0.51079 0.94682 0.0
H275 H 0.94082 0.54295 0.9206 0.0
H276 H 0.00236 0.56511 0.79334 0.0
H277 H 0.91877 0.47744 0.82106 0.0
H278 H 0.9059 0.512 0.85073 0.0
H279 H 0.9896 0.59978 0.82307 0.0
C280 C 0.34292 0.24471 0.85468 0.0
C281 C 0.34089 0.26151 0.83306 0.0
C282 C 0.33577 0.21352 0.80815 0.0
C283 C 0.33715 0.24601 0.81007 0.0
C284 C 0.33683 0.19642 0.82997 0.0
C285 C 0.34041 0.21192 0.85301 0.0
U286 U 0.38479 0.32664 0.88764 0.0
O287 O 0.37175 0.34714 0.92119 0.0
O288 O 0.41828 0.33979 0.91971 0.0
C289 C 0.39955 0.35087 0.93253 0.0
C290 C 0.35141 0.26261 0.8784 0.0
C291 C 0.4172 0.38215 0.94652 0.0
C292 C 0.4214 0.41283 0.9846 0.0
C293 C 0.40369 0.38564 0.96927 0.0
C294 C 0.4662 0.43426 0.95431 0.0
C295 C 0.45316 0.4372 0.97756 0.0
C296 C 0.4484 0.40695 0.93893 0.0
C297 C 0.42347 0.39827 0.83678 0.0
C298 C 0.47704 0.44124 0.82312 0.0
C299 C 0.42624 0.43344 0.80129 0.0
C300 C 0.40749 0.40824 0.81805 0.0
C301 C 0.46139 0.44901 0.80293 0.0
C302 C 0.45825 0.41603 0.8399 0.0
C303 C 0.40479 0.36523 0.84843 0.0
O304 O 0.38365 0.27642 0.88324 0.0
O305 O 0.33663 0.28258 0.88302 0.0
O306 O 0.37626 0.35913 0.85976 0.0
O307 O 0.42222 0.35046 0.85867 0.0
H308 H 0.34316 0.28701 0.83387 0.0
H309 H 0.33591 0.25975 0.79375 0.0
H310 H 0.33629 0.17158 0.8292 0.0
H311 H 0.34239 0.19873 0.86944 0.0
H312 H 0.41028 0.41461 1.00211 0.0
H313 H 0.37968 0.36678 0.9755 0.0
H314 H 0.49065 0.45246 0.94834 0.0
H315 H 0.45941 0.40476 0.92147 0.0
H316 H 0.50405 0.45334 0.82514 0.0
H317 H 0.41343 0.43874 0.78593 0.0
H318 H 0.38072 0.39468 0.81513 0.0
H319 H 0.47125 0.40892 0.85421 0.0
C320 C 0.74809 0.12533 0.8501 0.0
C321 C 0.73514 0.10763 0.82822 0.0
C322 C 0.7814 0.14893 0.80455 0.0
C323 C 0.75169 0.11921 0.80571 0.0
C324 C 0.79457 0.16628 0.82664 0.0
C325 C 0.77801 0.15458 0.8492 0.0
U326 U 0.6658 0.07488 0.88152 0.0
O327 O 0.64092 0.08846 0.91203 0.0
O328 O 0.65304 0.04491 0.91592 0.0
C329 C 0.639 0.06312 0.92596 0.0
C330 C 0.72906 0.11464 0.87337 0.0
C331 C 0.60763 0.04521 0.94011 0.0
C332 C 0.5816 0.01699 0.97838 0.0
C333 C 0.60941 0.03017 0.96262 0.0
C334 C 0.54912 0.03257 0.94897 0.0
C335 C 0.55128 0.01862 0.97203 0.0
C336 C 0.57707 0.04582 0.93316 0.0
C337 C 0.59892 0.02881 0.8296 0.0
C338 C 0.53868 0.00999 0.82576 0.0
C339 C 0.57157 0.00687 0.79065 0.0
C340 C 0.60036 0.01942 0.80512 0.0
C341 C 0.54043 0.00305 0.80046 0.0
C342 C 0.56781 0.02313 0.84018 0.0
C343 C 0.63088 0.04898 0.84171 0.0
O344 O 0.70573 0.12566 0.87634 0.0
O345 O 0.71866 0.08271 0.87902 0.0
O346 O 0.6456 0.03357 0.85458 0.0
O347 O 0.63444 0.07786 0.85102 0.0
H348 H 0.71189 0.0851 0.8285 0.0
H349 H 0.74106 0.10495 0.78918 0.0
H350 H 0.81713 0.18947 0.82641 0.0
H351 H 0.78817 0.16877 0.86586 0.0
H352 H 0.584 0.00585 0.99573 0.0
H353 H 0.63275 0.02951 0.9684 0.0
H354 H 0.52622 0.03439 0.94353 0.0
H355 H 0.57505 0.0574 0.91592 0.0
H356 H 0.51509 0.00665 0.83418 0.0
H357 H 0.57442 0.00249 0.7713 0.0
H358 H 0.62427 0.0239 0.79662 0.0
H359 H 0.56628 0.03026 0.85912 0.0
C360 C 0.35215 0.12768 0.66866 0.0
C361 C 0.35026 0.11087 0.6911 0.0
C362 C 0.34064 0.15415 0.71336 0.0
C363 C 0.34443 0.1239 0.71323 0.0
C364 C 0.34179 0.17048 0.69072 0.0
C365 C 0.34751 0.15734 0.66856 0.0
U366 U 0.38969 0.07413 0.63888 0.0
O367 O 0.42687 0.08676 0.60894 0.0
O368 O 0.37751 0.04437 0.60458 0.0
C369 C 0.40738 0.06184 0.59492 0.0
C370 C 0.36192 0.11592 0.64584 0.0
C371 C 0.42332 0.04326 0.58125 0.0
C372 C 0.42522 0.0141 0.54355 0.0
C373 C 0.40863 0.02762 0.55908 0.0
C374 C 0.47121 0.03058 0.57251 0.0
C375 C 0.45703 0.01596 0.5498 0.0
C376 C 0.45453 0.04412 0.5881 0.0
C377 C 0.41392 0.02584 0.6921 0.0
C378 C 0.46177 0.01481 0.70373 0.0
C379 C 0.41286 -0.00348 0.73042 0.0
C380 C 0.39697 0.00888 0.71343 0.0
C381 C 0.44592 0.00065 0.72622 0.0
C382 C 0.44594 0.02757 0.68681 0.0
C383 C 0.40043 0.04697 0.67917 0.0
O384 O 0.3944 0.12565 0.64323 0.0
O385 O 0.34454 0.08408 0.64059 0.0
O386 O 0.37293 0.03254 0.66606 0.0
O387 O 0.42206 0.07568 0.66998 0.0
H388 H 0.35424 0.08815 0.69159 0.0
H389 H 0.34419 0.11094 0.73033 0.0
H390 H 0.33865 0.19365 0.69016 0.0
H391 H 0.34912 0.17076 0.65143 0.0
H392 H 0.41366 0.00343 0.52613 0.0
H393 H 0.38477 0.027 0.55327 0.0
H394 H 0.49543 0.03198 0.5781 0.0
H395 H 0.46648 0.05608 0.6051 0.0
H396 H 0.48737 0.01848 0.70016 0.0
H397 H 0.4001 0.98557 0.74755 0.0
H398 H 0.37233 0.00749 0.71792 0.0
H399 H 0.45957 0.04073 0.67051 0.0
C400 C 0.87221 0.23743 0.6654 0.0
C401 C 0.8856 0.25292 0.68793 0.0
C402 C 0.84465 0.20529 0.71061 0.0
C403 C 0.87206 0.23695 0.71032 0.0
C404 C 0.83176 0.18958 0.68795 0.0
C405 C 0.84543 0.20555 0.66554 0.0
U406 U 0.91848 0.31994 0.63309 0.0
O407 O 0.90429 0.34017 0.60014 0.0
O408 O 0.9519 0.3348 0.60046 0.0
C409 C 0.93213 0.34513 0.58821 0.0
C410 C 0.8841 0.25577 0.64199 0.0
C411 C 0.94832 0.37682 0.5742 0.0
C412 C 0.97594 0.40462 0.53625 0.0
C413 C 0.96374 0.37635 0.55159 0.0
C414 C 0.95847 0.43488 0.56628 0.0
C415 C 0.97294 0.43407 0.54316 0.0
C416 C 0.94619 0.40647 0.58166 0.0
C417 C 0.95197 0.39138 0.68394 0.0
C418 C 0.94546 0.44093 0.69757 0.0
C419 C 0.98209 0.4221 0.71999 0.0
C420 C 0.9751 0.39615 0.70303 0.0
C421 C 0.96586 0.44357 0.71819 0.0
C422 C 0.93853 0.41501 0.68058 0.0
C423 C 0.93657 0.35809 0.6723 0.0
O424 O 0.87003 0.276 0.63639 0.0
O425 O 0.9168 0.26955 0.63861 0.0
O426 O 0.95605 0.34578 0.66188 0.0
O427 O 0.90756 0.34963 0.66122 0.0
H428 H 0.90597 0.27778 0.68821 0.0
H429 H 0.88228 0.24997 0.72738 0.0
H430 H 0.81089 0.16507 0.68753 0.0
H431 H 0.83461 0.19334 0.64833 0.0
H432 H 0.98752 0.40328 0.51884 0.0
H433 H 0.9656 0.35373 0.54548 0.0
H434 H 0.95562 0.45709 0.57213 0.0
H435 H 0.9343 0.40741 0.59903 0.0
H436 H 0.93311 0.45757 0.69549 0.0
H437 H -0.00215 0.42344 0.73568 0.0
H438 H 0.98557 0.37808 0.70612 0.0
H439 H 0.92068 0.41203 0.66598 0.0
C440 C 0.74254 0.65034 0.67074 0.0
C441 C 0.72459 0.63371 0.69186 0.0
C442 C 0.77552 0.65715 0.71639 0.0
C443 C 0.74093 0.63698 0.71443 0.0
C444 C 0.79321 0.67491 0.69542 0.0
C445 C 0.77683 0.67136 0.67269 0.0
U446 U 0.66237 0.60811 0.63578 0.0
O447 O 0.64127 0.62242 0.60307 0.0
O448 O 0.65227 0.57801 0.60203 0.0
C449 C 0.63983 0.59644 0.59028 0.0
C450 C 0.72564 0.64375 0.64663 0.0
C451 C 0.60918 0.57818 0.57577 0.0
C452 C 0.58018 0.57184 0.53663 0.0
C453 C 0.6069 0.59024 0.55217 0.0
C454 C 0.55685 0.52927 0.56838 0.0
C455 C 0.55509 0.54083 0.54434 0.0
C456 C 0.58371 0.54776 0.58396 0.0
C457 C 0.58959 0.56215 0.68495 0.0
C458 C 0.55003 0.55871 0.7176 0.0
C459 C 0.55103 0.50795 0.70119 0.0
C460 C 0.57622 0.52697 0.68448 0.0
C461 C 0.53887 0.52374 0.71873 0.0
C462 C 0.57525 0.57772 0.70092 0.0
C463 C 0.62273 0.58272 0.67391 0.0
O464 O 0.71372 0.61223 0.63982 0.0
O465 O 0.7042 0.65713 0.64327 0.0
O466 O 0.62799 0.61197 0.66415 0.0
O467 O 0.63895 0.5674 0.66269 0.0
H468 H 0.69806 0.61743 0.69073 0.0
H469 H 0.72657 0.62333 0.73033 0.0
H470 H 0.81992 0.69048 0.69638 0.0
H471 H 0.79107 0.68433 0.65655 0.0
H472 H 0.57931 0.58184 0.51846 0.0
H473 H 0.62631 0.61364 0.5455 0.0
H474 H 0.53806 0.50543 0.57488 0.0
H475 H 0.58503 0.53791 0.6021 0.0
H476 H 0.54125 0.57163 0.73089 0.0
H477 H 0.54239 0.48096 0.70131 0.0
H478 H 0.58675 0.51417 0.67244 0.0
H479 H 0.58536 0.60482 0.70189 0.0
C480 C 0.21737 0.3933 0.2676 0.0
C481 C 0.20941 0.36302 0.28038 0.0
H482 H 0.2085 0.41749 0.23582 0.0
C483 C 0.18594 0.33303 0.2701 0.0
H484 H 0.23518 0.41681 0.27518 0.0
C485 C 0.17094 0.33338 0.24732 0.0
C486 C 0.17864 0.36382 0.23479 0.0
H487 H 0.17949 0.30935 0.27956 0.0
H488 H 0.15288 0.31002 0.23973 0.0
C489 C 0.202 0.39372 0.24516 0.0
C490 C 0.64071 0.82608 0.2366 0.0
C491 C 0.64085 0.79416 0.23553 0.0
H492 H 0.64067 0.86571 0.25938 0.0
C493 C 0.64284 0.7785 0.25782 0.0
H494 H 0.63899 0.83891 0.21992 0.0
C495 C 0.64289 0.79352 0.28057 0.0
C496 C 0.64136 0.82482 0.28167 0.0
H497 H 0.64372 0.75424 0.25778 0.0
H498 H 0.64287 0.7799 0.29728 0.0
C499 C 0.64114 0.84127 0.25935 0.0
C500 C 0.20043 0.82062 0.28185 0.0
C501 C 0.17012 0.79155 0.28277 0.0
H502 H 0.23813 0.85733 0.2593 0.0
C503 C 0.15402 0.77791 0.26038 0.0
H504 H 0.21377 0.83177 0.29861 0.0
C505 C 0.16849 0.7921 0.23771 0.0
C506 C 0.19933 0.82056 0.23678 0.0
H507 H 0.13032 0.75593 0.26029 0.0
H508 H 0.15593 0.78005 0.22092 0.0
C509 C 0.21472 0.83502 0.25919 0.0
C510 C 0.78725 0.62763 0.75218 0.0
C511 C 0.7932 0.65782 0.73987 0.0
H512 H 0.79872 0.60395 0.78312 0.0
C513 C 0.8161 0.68817 0.75009 0.0
H514 H 0.76999 0.60383 0.74464 0.0
C515 C 0.8325 0.68824 0.7723 0.0
C516 C 0.82673 0.65793 0.7844 0.0
H517 H 0.82105 0.71181 0.74103 0.0
H518 H 0.85007 0.7119 0.77981 0.0
C519 C 0.80391 0.62767 0.7741 0.0
C520 C 0.31642 0.16392 0.77942 0.0
C521 C 0.33526 0.1984 0.78346 0.0
H522 H 0.30285 0.12299 0.75408 0.0
C523 C 0.35476 0.2183 0.76389 0.0
H524 H 0.30076 0.14793 0.79395 0.0
C525 C 0.35582 0.20405 0.74104 0.0
C526 C 0.33751 0.1695 0.73716 0.0
H527 H 0.37013 0.2448 0.76641 0.0
H528 H 0.37191 0.21999 0.72667 0.0
C529 C 0.31757 0.14964 0.75656 0.0
C530 C 0.84819 0.19092 0.75529 0.0
C531 C 0.82863 0.18955 0.73444 0.0
H532 H 0.84878 0.17871 0.79358 0.0
C533 C 0.79349 0.17412 0.73673 0.0
H534 H 0.87533 0.20229 0.75408 0.0
C535 C 0.77828 0.16076 0.75936 0.0
C536 C 0.7978 0.16236 0.78031 0.0
H537 H 0.77766 0.17318 0.72117 0.0
H538 H 0.75116 0.14991 0.76056 0.0
C539 C 0.83297 0.17745 0.77795 0.0
C540 C 0.97848 0.47047 0.01169 0.0
C541 C 0.00598 0.48637 0.0275 0.0
H542 H 0.94655 0.47622 0.98397 0.0
C543 C 0.023 0.52152 0.02664 0.0
H544 H 0.9646 0.44346 0.01204 0.0
C545 C 0.01279 0.54029 0.01044 0.0
C546 C 0.98522 0.52444 0.99469 0.0
H547 H 0.0447 0.53457 0.03816 0.0
H548 H 0.02683 0.56727 0.01005 0.0
C549 C 0.96822 0.48926 0.99551 0.0
C550 C 0.47325 0.45884 0.02024 0.0
C551 C 0.4728 0.46497 0.99473 0.0
H552 H 0.49135 0.47911 0.05595 0.0
C553 C 0.49117 0.49776 0.98586 0.0
H554 H 0.45992 0.43377 0.02768 0.0
C555 C 0.50923 0.52379 1.00211 0.0
C556 C 0.50951 0.51771 0.02765 0.0
H557 H 0.49106 0.50349 0.9664 0.0
H558 H 0.52243 0.54887 0.99466 0.0
C559 C 0.49134 0.48485 0.03648 0.0
C560 C 0.50124 0.00214 0.03199 0.0
C561 C 0.46814 0.98414 0.0238 0.0
H562 H 0.55316 0.02754 0.02216 0.0
C563 C 0.4626 0.97772 0.99835 0.0
H564 H 0.50644 0.00799 0.05136 0.0
C565 C 0.48943 0.98893 0.98156 0.0
C566 C 0.52253 0.00677 0.98978 0.0
H567 H 0.43752 0.96342 0.99139 0.0
H568 H 0.48427 0.98308 0.96218 0.0
C569 C 0.52806 0.01332 0.01521 0.0
C570 C 0.51048 0.0225 0.52837 0.0
C571 C 0.47579 0.00404 0.53213 0.0
H572 H 0.55443 0.02719 0.50837 0.0
C573 C 0.45896 0.97483 0.51816 0.0
H574 H 0.52417 0.04544 0.53844 0.0
C575 C 0.47629 0.96449 0.50079 0.0
C576 C 0.51094 0.98302 0.49695 0.0
H577 H 0.43236 0.95972 0.52079 0.0
H578 H 0.46259 0.94159 0.49065 0.0
C579 C 0.52783 0.01211 0.51102 0.0
C580 C 0.00118 0.49626 0.53478 0.0
C581 C 0.98416 0.46338 0.52596 0.0
H582 H 0.02594 0.5485 0.52587 0.0
C583 C 0.97804 0.4586 0.50043 0.0
H584 H 0.00667 0.50085 0.55426 0.0
C585 C 0.98897 0.48593 0.48413 0.0
C586 C 0.0063 0.51881 0.4929 0.0
H587 H 0.96445 0.43367 0.49303 0.0
H588 H 0.98353 0.48128 0.46466 0.0
C589 C 0.01217 0.52361 0.51847 0.0
C590 C 0.46878 0.48496 0.51909 0.0
C591 C 0.4757 0.48282 0.49389 0.0
H592 H 0.4881 0.50509 0.55462 0.0
C593 C 0.50904 0.49954 0.48558 0.0
H594 H 0.44334 0.47292 0.52611 0.0
C595 C 0.53469 0.5181 0.50195 0.0
C596 C 0.52772 0.52048 0.52709 0.0
H597 H 0.51542 0.49805 0.46642 0.0
H598 H 0.56012 0.53034 0.49492 0.0
C599 C 0.49446 0.50349 0.53547 0.0
C600 C 0.97928 0.49116 0.2766 0.0
C601 C -0.00312 0.52608 0.27498 0.0
H602 H 0.96605 0.44405 0.25874 0.0
C603 C 0.01323 0.54055 0.25279 0.0
H604 H 0.96624 0.47949 0.29349 0.0
C605 C 0.01419 0.52043 0.23321 0.0
C606 C -0.00168 0.48525 0.23518 0.0
H607 H 0.02728 0.56747 0.25119 0.0
H608 H 0.02938 0.53263 0.21727 0.0
C609 C 0.97948 0.47095 0.25673 0.0
C610 C 0.51602 0.48452 0.2786 0.0
C611 C 0.48109 0.4681 0.27629 0.0
H612 H 0.56241 0.51706 0.26174 0.0
C613 C 0.46608 0.4708 0.25403 0.0
H614 H 0.52811 0.4825 0.29555 0.0
C615 C 0.48538 0.49138 0.23497 0.0
C616 C 0.52031 0.50935 0.23756 0.0
H617 H 0.43907 0.45854 0.25193 0.0
H618 H 0.47247 0.49467 0.21889 0.0
C619 C 0.53552 0.50449 0.25926 0.0
C620 C 0.4795 0.0106 0.25696 0.0
C621 C 0.47773 0.99146 0.23567 0.0
H622 H 0.49958 0.02436 0.29347 0.0
C623 C 0.49938 0.97531 0.23394 0.0
H624 H 0.46402 0.02423 0.25878 0.0
C625 C 0.52048 0.97644 0.25348 0.0
C626 C 0.52008 0.99324 0.2754 0.0
H627 H 0.49862 0.95987 0.21822 0.0
H628 H 0.53552 0.96228 0.25206 0.0
C629 C 0.50003 0.01098 0.2768 0.0
C630 C 0.99405 0.50118 0.77392 0.0
C631 C 0.9632 0.49956 0.78263 0.0
H632 H 0.01926 0.48475 0.74649 0.0
C633 C 0.93386 0.48073 0.7694 0.0
H634 H 0.01707 0.5157 0.78371 0.0
C635 C 0.93515 0.46358 0.74813 0.0
C636 C 0.9658 0.46466 0.73953 0.0
H637 H 0.9098 0.47953 0.77536 0.0
H638 H 0.91189 0.44874 0.73874 0.0
C639 C -0.0047 0.48358 0.75266 0.0
C640 C 0.49098 0.51028 0.74888 0.0
C641 C 0.51816 0.50444 0.73994 0.0
H642 H 0.45178 0.49758 0.77604 0.0
C643 C 0.52701 0.48122 0.75237 0.0
H644 H 0.48365 0.52812 0.73972 0.0
C645 C 0.50905 0.46404 0.77311 0.0
C646 C 0.48171 0.46957 0.782 0.0
H647 H 0.54822 0.47662 0.74628 0.0
H648 H 0.51622 0.44584 0.78188 0.0
C649 C 0.47277 0.49283 0.76964 0.0
C650 C 0.49016 0.01252 0.78738 0.0
C651 C 0.51156 -0.00356 0.7835 0.0
H652 H 0.45254 0.02604 0.77233 0.0
C653 C 0.50781 0.97789 0.7616 0.0
H654 H 0.49241 0.02752 0.80365 0.0
C655 C 0.48546 0.97794 0.74323 0.0
C656 C 0.46563 0.99563 0.74671 0.0
H657 H 0.5231 0.96437 0.75816 0.0
H658 H 0.48433 0.96495 0.72605 0.0
C659 C 0.46733 0.01188 0.76929 0.0
loop_
_geom_bond_atom_site_label_1
_geom_bond_atom_site_label_2
_geom_bond_distance
_geom_bond_site_symmetry_2
_ccdc_geom_bond_type
C0 C1 1.264 . S
C0 C5 1.479 . S
C0 C10 1.465 . S
C1 C0 1.264 . S
C1 C3 1.339 . S
C1 H28 0.931 . S
C2 C3 1.395 . S
C2 C4 1.320 . S
C3 C1 1.339 . S
C3 C2 1.395 . S
C3 H29 0.929 . S
C4 C2 1.320 . S
C4 C5 1.405 . S
C4 H30 0.930 . S
C5 C0 1.479 . S
C5 C4 1.405 . S
C5 H31 0.931 . S
U6 O7 2.454 . S
U6 O8 2.458 1_455 S
U6 C9 2.984 1_455 S
U6 C10 2.847 . S
U6 C23 2.882 1_455 S
U6 O24 2.441 . S
U6 O25 2.420 . S
U6 O26 2.455 1_455 S
U6 O27 2.449 . S
O7 U6 2.454 . S
O7 C9 1.353 1_455 S
O8 U6 2.458 1_655 S
O8 C9 1.286 . S
C9 U6 2.984 1_655 S
C9 O7 1.353 1_655 S
C9 O8 1.286 . S
C9 C11 1.363 . S
C10 C0 1.465 . S
C10 U6 2.847 . S
C10 O24 1.249 . S
C10 O25 1.202 . S
C11 C9 1.363 . S
C11 C13 1.408 1_655 S
C11 C16 1.342 . S
C12 C13 1.310 1_655 S
C12 C15 1.461 . S
C12 H32 0.932 1_655 S
C13 C11 1.408 1_455 S
C13 C12 1.310 1_455 S
C13 H33 0.930 . S
C14 C15 1.474 . S
C14 C16 1.285 . S
C14 H34 0.929 . S
C15 C12 1.461 . S
C15 C14 1.474 . S
C16 C11 1.342 . S
C16 C14 1.285 . S
C16 H35 0.930 . S
C17 C20 1.424 . S
C17 C22 1.245 . S
C17 C23 1.428 . S
C18 C21 1.260 . S
C18 C22 1.477 . S
C18 H36 0.932 . S
C19 C20 1.384 . S
C19 C21 1.479 . S
C19 H37 0.929 . S
C20 C17 1.424 . S
C20 C19 1.384 . S
C20 H38 0.928 . S
C21 C18 1.260 . S
C21 C19 1.479 . S
C22 C17 1.245 . S
C22 C18 1.477 . S
C22 H39 0.932 . S
C23 U6 2.882 1_655 S
C23 C17 1.428 . S
C23 O26 1.301 . S
C23 O27 1.282 1_655 S
O24 U6 2.441 . S
O24 C10 1.249 . S
O25 U6 2.420 . S
O25 C10 1.202 . S
O26 U6 2.455 1_655 S
O26 C23 1.301 . S
O27 U6 2.449 . S
O27 C23 1.282 1_455 S
H28 C1 0.931 . S
H29 C3 0.929 . S
H30 C4 0.930 . S
H31 C5 0.931 . S
H32 C12 0.932 1_455 S
H33 C13 0.930 . S
H34 C14 0.929 . S
H35 C16 0.930 . S
H36 C18 0.932 . S
H37 C19 0.929 . S
H38 C20 0.928 . S
H39 C22 0.932 . S
C40 C41 1.264 . S
C40 C45 1.479 . S
C40 C50 1.465 . S
C41 C40 1.264 . S
C41 C43 1.339 . S
C41 H68 0.931 . S
C42 C43 1.395 . S
C42 C44 1.320 . S
C43 C41 1.339 . S
C43 C42 1.395 . S
C43 H69 0.929 . S
C44 C42 1.320 . S
C44 C45 1.405 . S
C44 H70 0.930 . S
C45 C40 1.479 . S
C45 C44 1.405 . S
C45 H71 0.931 . S
U46 O47 2.454 . S
U46 O48 2.458 . S
U46 C49 2.984 . S
U46 C50 2.847 . S
U46 C63 2.882 . S
U46 O64 2.441 . S
U46 O65 2.420 . S
U46 O66 2.455 . S
U46 O67 2.449 . S
O47 U46 2.454 . S
O47 C49 1.353 . S
O48 U46 2.458 . S
O48 C49 1.286 . S
C49 U46 2.984 . S
C49 O47 1.353 . S
C49 O48 1.286 . S
C49 C51 1.363 . S
C50 C40 1.465 . S
C50 U46 2.847 . S
C50 O64 1.249 . S
C50 O65 1.202 . S
C51 C49 1.363 . S
C51 C53 1.408 . S
C51 C56 1.342 . S
C52 C53 1.310 . S
C52 C55 1.461 . S
C52 H72 0.932 . S
C53 C51 1.408 . S
C53 C52 1.310 . S
C53 H73 0.930 . S
C54 C55 1.474 . S
C54 C56 1.285 . S
C54 H74 0.929 . S
C55 C52 1.461 . S
C55 C54 1.474 . S
C56 C51 1.342 . S
C56 C54 1.285 . S
C56 H75 0.930 . S
C57 C60 1.424 . S
C57 C62 1.245 . S
C57 C63 1.428 . S
C58 C61 1.260 . S
C58 C62 1.477 . S
C58 H76 0.932 . S
C59 C60 1.384 . S
C59 C61 1.479 . S
C59 H77 0.929 . S
C60 C57 1.424 . S
C60 C59 1.384 . S
C60 H78 0.928 . S
C61 C58 1.260 . S
C61 C59 1.479 . S
C62 C57 1.245 . S
C62 C58 1.477 . S
C62 H79 0.932 . S
C63 U46 2.882 . S
C63 C57 1.428 . S
C63 O66 1.301 . S
C63 O67 1.282 . S
O64 U46 2.441 . S
O64 C50 1.249 . S
O65 U46 2.420 . S
O65 C50 1.202 . S
O66 U46 2.455 . S
O66 C63 1.301 . S
O67 U46 2.449 . S
O67 C63 1.282 . S
H68 C41 0.931 . S
H69 C43 0.929 . S
H70 C44 0.930 . S
H71 C45 0.931 . S
H72 C52 0.932 . S
H73 C53 0.930 . S
H74 C54 0.929 . S
H75 C56 0.930 . S
H76 C58 0.932 . S
H77 C59 0.929 . S
H78 C60 0.928 . S
H79 C62 0.932 . S
C80 C81 1.264 . S
C80 C85 1.479 . S
C80 C90 1.465 . S
C81 C80 1.264 . S
C81 C83 1.339 . S
C81 H108 0.931 . S
C82 C83 1.395 . S
C82 C84 1.320 . S
C83 C81 1.339 . S
C83 C82 1.395 . S
C83 H109 0.929 . S
C84 C82 1.320 . S
C84 C85 1.405 . S
C84 H110 0.930 . S
C85 C80 1.479 . S
C85 C84 1.405 . S
C85 H111 0.931 . S
U86 O87 2.454 . S
U86 O88 2.458 1_565 S
U86 C89 2.984 1_565 S
U86 C90 2.847 . S
U86 C103 2.882 1_565 S
U86 O104 2.441 . S
U86 O105 2.420 . S
U86 O106 2.455 1_565 S
U86 O107 2.449 . S
O87 U86 2.454 . S
O87 C89 1.353 1_565 S
O88 U86 2.458 1_545 S
O88 C89 1.286 . S
C89 U86 2.984 1_545 S
C89 O87 1.353 1_545 S
C89 O88 1.286 . S
C89 C91 1.363 . S
C90 C80 1.465 . S
C90 U86 2.847 . S
C90 O104 1.249 . S
C90 O105 1.202 . S
C91 C89 1.363 . S
C91 C93 1.408 1_545 S
C91 C96 1.342 . S
C92 C93 1.310 1_545 S
C92 C95 1.461 . S
C92 H112 0.932 1_545 S
C93 C91 1.408 1_565 S
C93 C92 1.310 1_565 S
C93 H113 0.930 . S
C94 C95 1.474 . S
C94 C96 1.285 . S
C94 H114 0.929 . S
C95 C92 1.461 . S
C95 C94 1.474 . S
C96 C91 1.342 . S
C96 C94 1.285 . S
C96 H115 0.930 . S
C97 C100 1.424 . S
C97 C102 1.245 . S
C97 C103 1.428 . S
C98 C101 1.260 . S
C98 C102 1.477 . S
C98 H116 0.932 . S
C99 C100 1.384 . S
C99 C101 1.479 . S
C99 H117 0.929 . S
C100 C97 1.424 . S
C100 C99 1.384 . S
C100 H118 0.928 . S
C101 C98 1.260 . S
C101 C99 1.479 . S
C102 C97 1.245 . S
C102 C98 1.477 . S
C102 H119 0.932 . S
C103 U86 2.882 1_545 S
C103 C97 1.428 . S
C103 O106 1.301 . S
C103 O107 1.282 1_545 S
O104 U86 2.441 . S
O104 C90 1.249 . S
O105 U86 2.420 . S
O105 C90 1.202 . S
O106 U86 2.455 1_545 S
O106 C103 1.301 . S
O107 U86 2.449 . S
O107 C103 1.282 1_565 S
H108 C81 0.931 . S
H109 C83 0.929 . S
H110 C84 0.930 . S
H111 C85 0.931 . S
H112 C92 0.932 1_565 S
H113 C93 0.930 . S
H114 C94 0.929 . S
H115 C96 0.930 . S
H116 C98 0.932 . S
H117 C99 0.929 . S
H118 C100 0.928 . S
H119 C102 0.932 . S
C120 C121 1.264 . S
C120 C125 1.479 . S
C120 C130 1.465 . S
C121 C120 1.264 . S
C121 C123 1.339 . S
C121 H148 0.931 . S
C122 C123 1.395 . S
C122 C124 1.320 . S
C123 C121 1.339 . S
C123 C122 1.395 . S
C123 H149 0.929 . S
C124 C122 1.320 . S
C124 C125 1.405 . S
C124 H150 0.930 . S
C125 C120 1.479 . S
C125 C124 1.405 . S
C125 H151 0.931 . S
U126 O127 2.454 . S
U126 O128 2.458 1_565 S
U126 C129 2.984 1_565 S
U126 C130 2.847 . S
U126 C143 2.882 1_565 S
U126 O144 2.441 . S
U126 O145 2.420 . S
U126 O146 2.455 1_565 S
U126 O147 2.449 . S
O127 U126 2.454 . S
O127 C129 1.353 1_565 S
O128 U126 2.458 1_545 S
O128 C129 1.286 . S
C129 U126 2.984 1_545 S
C129 O127 1.353 1_545 S
C129 O128 1.286 . S
C129 C131 1.363 . S
C130 C120 1.465 . S
C130 U126 2.847 . S
C130 O144 1.249 . S
C130 O145 1.202 . S
C131 C129 1.363 . S
C131 C133 1.408 1_545 S
C131 C136 1.342 . S
C132 C133 1.310 1_545 S
C132 C135 1.461 . S
C132 H152 0.932 1_545 S
C133 C131 1.408 1_565 S
C133 C132 1.310 1_565 S
C133 H153 0.930 . S
C134 C135 1.474 . S
C134 C136 1.285 . S
C134 H154 0.929 . S
C135 C132 1.461 . S
C135 C134 1.474 . S
C136 C131 1.342 . S
C136 C134 1.285 . S
C136 H155 0.930 . S
C137 C140 1.424 . S
C137 C142 1.245 . S
C137 C143 1.428 . S
C138 C141 1.260 . S
C138 C142 1.477 . S
C138 H156 0.932 . S
C139 C140 1.384 . S
C139 C141 1.479 . S
C139 H157 0.929 . S
C140 C137 1.424 . S
C140 C139 1.384 . S
C140 H158 0.928 . S
C141 C138 1.260 . S
C141 C139 1.479 . S
C142 C137 1.245 . S
C142 C138 1.477 . S
C142 H159 0.932 . S
C143 U126 2.882 1_545 S
C143 C137 1.428 . S
C143 O146 1.301 . S
C143 O147 1.282 1_545 S
O144 U126 2.441 . S
O144 C130 1.249 . S
O145 U126 2.420 . S
O145 C130 1.202 . S
O146 U126 2.455 1_545 S
O146 C143 1.301 . S
O147 U126 2.449 . S
O147 C143 1.282 1_565 S
H148 C121 0.931 . S
H149 C123 0.929 . S
H150 C124 0.930 . S
H151 C125 0.931 . S
H152 C132 0.932 1_565 S
H153 C133 0.930 . S
H154 C134 0.929 . S
H155 C136 0.930 . S
H156 C138 0.932 . S
H157 C139 0.929 . S
H158 C140 0.928 . S
H159 C142 0.932 . S
C160 C161 1.264 . S
C160 C165 1.479 . S
C160 C170 1.465 . S
C161 C160 1.264 . S
C161 C163 1.339 . S
C161 H188 0.931 . S
C162 C163 1.395 . S
C162 C164 1.320 . S
C163 C161 1.339 . S
C163 C162 1.395 . S
C163 H189 0.929 . S
C164 C162 1.320 . S
C164 C165 1.405 . S
C164 H190 0.930 . S
C165 C160 1.479 . S
C165 C164 1.405 . S
C165 H191 0.931 . S
U166 O167 2.454 . S
U166 O168 2.458 1_455 S
U166 C169 2.984 1_455 S
U166 C170 2.847 . S
U166 C183 2.882 1_455 S
U166 O184 2.441 . S
U166 O185 2.420 . S
U166 O186 2.455 1_455 S
U166 O187 2.449 . S
O167 U166 2.454 . S
O167 C169 1.353 1_455 S
O168 U166 2.458 1_655 S
O168 C169 1.286 . S
C169 U166 2.984 1_655 S
C169 O167 1.353 1_655 S
C169 O168 1.286 . S
C169 C171 1.363 . S
C170 C160 1.465 . S
C170 U166 2.847 . S
C170 O184 1.249 . S
C170 O185 1.202 . S
C171 C169 1.363 . S
C171 C173 1.408 1_655 S
C171 C176 1.342 . S
C172 C173 1.310 1_655 S
C172 C175 1.461 . S
C172 H192 0.932 1_655 S
C173 C171 1.408 1_455 S
C173 C172 1.310 1_455 S
C173 H193 0.930 . S
C174 C175 1.474 . S
C174 C176 1.285 . S
C174 H194 0.929 . S
C175 C172 1.461 . S
C175 C174 1.474 . S
C176 C171 1.342 . S
C176 C174 1.285 . S
C176 H195 0.930 . S
C177 C180 1.424 . S
C177 C182 1.245 . S
C177 C183 1.428 . S
C178 C181 1.260 . S
C178 C182 1.477 . S
C178 H196 0.932 . S
C179 C180 1.384 . S
C179 C181 1.479 . S
C179 H197 0.929 . S
C180 C177 1.424 . S
C180 C179 1.384 . S
C180 H198 0.928 . S
C181 C178 1.260 . S
C181 C179 1.479 . S
C182 C177 1.245 . S
C182 C178 1.477 . S
C182 H199 0.932 . S
C183 U166 2.882 1_655 S
C183 C177 1.428 . S
C183 O186 1.301 . S
C183 O187 1.282 1_655 S
O184 U166 2.441 . S
O184 C170 1.249 . S
O185 U166 2.420 . S
O185 C170 1.202 . S
O186 U166 2.455 1_655 S
O186 C183 1.301 . S
O187 U166 2.449 . S
O187 C183 1.282 1_455 S
H188 C161 0.931 . S
H189 C163 0.929 . S
H190 C164 0.930 . S
H191 C165 0.931 . S
H192 C172 0.932 1_455 S
H193 C173 0.930 . S
H194 C174 0.929 . S
H195 C176 0.930 . S
H196 C178 0.932 . S
H197 C179 0.929 . S
H198 C180 0.928 . S
H199 C182 0.932 . S
C200 C201 1.264 . S
C200 C205 1.479 . S
C200 C210 1.465 . S
C201 C200 1.264 . S
C201 C203 1.339 . S
C201 H228 0.931 . S
C202 C203 1.395 . S
C202 C204 1.320 . S
C203 C201 1.339 . S
C203 C202 1.395 . S
C203 H229 0.929 . S
C204 C202 1.320 . S
C204 C205 1.405 . S
C204 H230 0.930 . S
C205 C200 1.479 . S
C205 C204 1.405 . S
C205 H231 0.931 . S
U206 O207 2.454 . S
U206 O208 2.458 . S
U206 C209 2.984 . S
U206 C210 2.847 . S
U206 C223 2.882 . S
U206 O224 2.441 . S
U206 O225 2.420 . S
U206 O226 2.455 . S
U206 O227 2.449 . S
O207 U206 2.454 . S
O207 C209 1.353 . S
O208 U206 2.458 . S
O208 C209 1.286 . S
C209 U206 2.984 . S
C209 O207 1.353 . S
C209 O208 1.286 . S
C209 C211 1.363 . S
C210 C200 1.465 . S
C210 U206 2.847 . S
C210 O224 1.249 . S
C210 O225 1.202 . S
C211 C209 1.363 . S
C211 C213 1.408 . S
C211 C216 1.342 . S
C212 C213 1.310 . S
C212 C215 1.461 . S
C212 H232 0.932 . S
C213 C211 1.408 . S
C213 C212 1.310 . S
C213 H233 0.930 . S
C214 C215 1.474 . S
C214 C216 1.285 . S
C214 H234 0.929 . S
C215 C212 1.461 . S
C215 C214 1.474 . S
C216 C211 1.342 . S
C216 C214 1.285 . S
C216 H235 0.930 . S
C217 C220 1.424 . S
C217 C222 1.245 . S
C217 C223 1.428 . S
C218 C221 1.260 . S
C218 C222 1.477 . S
C218 H236 0.932 . S
C219 C220 1.384 . S
C219 C221 1.479 . S
C219 H237 0.929 . S
C220 C217 1.424 . S
C220 C219 1.384 . S
C220 H238 0.928 . S
C221 C218 1.260 . S
C221 C219 1.479 . S
C222 C217 1.245 . S
C222 C218 1.477 . S
C222 H239 0.932 . S
C223 U206 2.882 . S
C223 C217 1.428 . S
C223 O226 1.301 . S
C223 O227 1.282 . S
O224 U206 2.441 . S
O224 C210 1.249 . S
O225 U206 2.420 . S
O225 C210 1.202 . S
O226 U206 2.455 . S
O226 C223 1.301 . S
O227 U206 2.449 . S
O227 C223 1.282 . S
H228 C201 0.931 . S
H229 C203 0.929 . S
H230 C204 0.930 . S
H231 C205 0.931 . S
H232 C212 0.932 . S
H233 C213 0.930 . S
H234 C214 0.929 . S
H235 C216 0.930 . S
H236 C218 0.932 . S
H237 C219 0.929 . S
H238 C220 0.928 . S
H239 C222 0.932 . S
C240 C241 1.264 . S
C240 C245 1.479 . S
C240 C250 1.465 . S
C241 C240 1.264 . S
C241 C243 1.339 . S
C241 H268 0.931 . S
C242 C243 1.395 . S
C242 C244 1.320 . S
C243 C241 1.339 . S
C243 C242 1.395 . S
C243 H269 0.929 . S
C244 C242 1.320 . S
C244 C245 1.405 . S
C244 H270 0.930 . S
C245 C240 1.479 . S
C245 C244 1.405 . S
C245 H271 0.931 . S
U246 O247 2.454 1_455 S
U246 O248 2.458 . S
U246 C249 2.984 . S
U246 C250 2.847 1_455 S
U246 C263 2.882 . S
U246 O264 2.441 1_455 S
U246 O265 2.420 1_455 S
U246 O266 2.455 . S
U246 O267 2.449 . S
O247 U246 2.454 1_655 S
O247 C249 1.353 1_655 S
O248 U246 2.458 . S
O248 C249 1.286 . S
C249 U246 2.984 . S
C249 O247 1.353 1_455 S
C249 O248 1.286 . S
C249 C251 1.363 . S
C250 C240 1.465 . S
C250 U246 2.847 1_655 S
C250 O264 1.249 . S
C250 O265 1.202 . S
C251 C249 1.363 . S
C251 C253 1.408 . S
C251 C256 1.342 . S
C252 C253 1.310 . S
C252 C255 1.461 . S
C252 H272 0.932 1_455 S
C253 C251 1.408 . S
C253 C252 1.310 . S
C253 H273 0.930 1_455 S
C254 C255 1.474 . S
C254 C256 1.285 . S
C254 H274 0.929 . S
C255 C252 1.461 . S
C255 C254 1.474 . S
C256 C251 1.342 . S
C256 C254 1.285 . S
C256 H275 0.930 . S
C257 C260 1.424 . S
C257 C262 1.245 . S
C257 C263 1.428 . S
C258 C261 1.260 . S
C258 C262 1.477 . S
C258 H276 0.932 . S
C259 C260 1.384 . S
C259 C261 1.479 . S
C259 H277 0.929 . S
C260 C257 1.424 . S
C260 C259 1.384 . S
C260 H278 0.928 . S
C261 C258 1.260 . S
C261 C259 1.479 . S
C262 C257 1.245 . S
C262 C258 1.477 . S
C262 H279 0.932 . S
C263 U246 2.882 . S
C263 C257 1.428 . S
C263 O266 1.301 . S
C263 O267 1.282 . S
O264 U246 2.441 1_655 S
O264 C250 1.249 . S
O265 U246 2.420 1_655 S
O265 C250 1.202 . S
O266 U246 2.455 . S
O266 C263 1.301 . S
O267 U246 2.449 . S
O267 C263 1.282 . S
H268 C241 0.931 . S
H269 C243 0.929 . S
H270 C244 0.930 . S
H271 C245 0.931 . S
H272 C252 0.932 1_655 S
H273 C253 0.930 1_655 S
H274 C254 0.929 . S
H275 C256 0.930 . S
H276 C258 0.932 . S
H277 C259 0.929 . S
H278 C260 0.928 . S
H279 C262 0.932 . S
C280 C281 1.264 . S
C280 C285 1.479 . S
C280 C290 1.465 . S
C281 C280 1.264 . S
C281 C283 1.339 . S
C281 H308 0.931 . S
C282 C283 1.395 . S
C282 C284 1.320 . S
C283 C281 1.339 . S
C283 C282 1.395 . S
C283 H309 0.929 . S
C284 C282 1.320 . S
C284 C285 1.405 . S
C284 H310 0.930 . S
C285 C280 1.479 . S
C285 C284 1.405 . S
C285 H311 0.931 . S
U286 O287 2.454 . S
U286 O288 2.458 . S
U286 C289 2.984 . S
U286 C290 2.847 . S
U286 C303 2.882 . S
U286 O304 2.441 . S
U286 O305 2.420 . S
U286 O306 2.455 . S
U286 O307 2.449 . S
O287 U286 2.454 . S
O287 C289 1.353 . S
O288 U286 2.458 . S
O288 C289 1.286 . S
C289 U286 2.984 . S
C289 O287 1.353 . S
C289 O288 1.286 . S
C289 C291 1.363 . S
C290 C280 1.465 . S
C290 U286 2.847 . S
C290 O304 1.249 . S
C290 O305 1.202 . S
C291 C289 1.363 . S
C291 C293 1.408 . S
C291 C296 1.342 . S
C292 C293 1.310 . S
C292 C295 1.461 . S
C292 H312 0.932 . S
C293 C291 1.408 . S
C293 C292 1.310 . S
C293 H313 0.930 . S
C294 C295 1.474 . S
C294 C296 1.285 . S
C294 H314 0.929 . S
C295 C292 1.461 . S
C295 C294 1.474 . S
C296 C291 1.342 . S
C296 C294 1.285 . S
C296 H315 0.930 . S
C297 C300 1.424 . S
C297 C302 1.245 . S
C297 C303 1.428 . S
C298 C301 1.260 . S
C298 C302 1.477 . S
C298 H316 0.932 . S
C299 C300 1.384 . S
C299 C301 1.479 . S
C299 H317 0.929 . S
C300 C297 1.424 . S
C300 C299 1.384 . S
C300 H318 0.928 . S
C301 C298 1.260 . S
C301 C299 1.479 . S
C302 C297 1.245 . S
C302 C298 1.477 . S
C302 H319 0.932 . S
C303 U286 2.882 . S
C303 C297 1.428 . S
C303 O306 1.301 . S
C303 O307 1.282 . S
O304 U286 2.441 . S
O304 C290 1.249 . S
O305 U286 2.420 . S
O305 C290 1.202 . S
O306 U286 2.455 . S
O306 C303 1.301 . S
O307 U286 2.449 . S
O307 C303 1.282 . S
H308 C281 0.931 . S
H309 C283 0.929 . S
H310 C284 0.930 . S
H311 C285 0.931 . S
H312 C292 0.932 . S
H313 C293 0.930 . S
H314 C294 0.929 . S
H315 C296 0.930 . S
H316 C298 0.932 . S
H317 C299 0.929 . S
H318 C300 0.928 . S
H319 C302 0.932 . S
C320 C321 1.264 . S
C320 C325 1.479 . S
C320 C330 1.465 . S
C321 C320 1.264 . S
C321 C323 1.339 . S
C321 H348 0.931 . S
C322 C323 1.395 . S
C322 C324 1.320 . S
C323 C321 1.339 . S
C323 C322 1.395 . S
C323 H349 0.929 . S
C324 C322 1.320 . S
C324 C325 1.405 . S
C324 H350 0.930 . S
C325 C320 1.479 . S
C325 C324 1.405 . S
C325 H351 0.931 . S
U326 O327 2.456 . S
U326 O328 2.458 . S
U326 C329 2.984 . S
U326 C330 2.847 1_565 S
U326 C343 2.882 . S
U326 O344 2.441 1_565 S
U326 O345 2.420 1_565 S
U326 O346 2.455 . S
U326 O347 2.449 . S
O327 U326 2.456 . S
O327 C329 1.355 . S
O328 U326 2.458 . S
O328 C329 1.286 . S
C329 U326 2.984 . S
C329 O327 1.355 . S
C329 O328 1.286 . S
C329 C331 1.363 . S
C330 C320 1.465 . S
C330 U326 2.847 1_545 S
C330 O344 1.249 . S
C330 O345 1.202 . S
C331 C329 1.363 . S
C331 C333 1.408 . S
C331 C336 1.342 . S
C332 C333 1.310 . S
C332 C335 1.461 . S
C332 H352 0.933 . S
C333 C331 1.408 . S
C333 C332 1.310 . S
C333 H353 0.930 1_565 S
C334 C335 1.474 . S
C334 C336 1.285 . S
C334 H354 0.929 . S
C335 C332 1.461 . S
C335 C334 1.474 . S
C336 C331 1.342 . S
C336 C334 1.285 . S
C336 H355 0.930 . S
C337 C340 1.424 . S
C337 C342 1.245 . S
C337 C343 1.428 . S
C338 C341 1.260 . S
C338 C342 1.477 . S
C338 H356 0.932 . S
C339 C340 1.384 . S
C339 C341 1.479 . S
C339 H357 0.929 . S
C340 C337 1.424 . S
C340 C339 1.384 . S
C340 H358 0.928 . S
C341 C338 1.260 . S
C341 C339 1.479 . S
C342 C337 1.245 . S
C342 C338 1.477 . S
C342 H359 0.932 . S
C343 U326 2.882 . S
C343 C337 1.428 . S
C343 O346 1.301 . S
C343 O347 1.282 . S
O344 U326 2.441 1_545 S
O344 C330 1.249 . S
O345 U326 2.420 1_545 S
O345 C330 1.202 . S
O346 U326 2.455 . S
O346 C343 1.301 . S
O347 U326 2.449 . S
O347 C343 1.282 . S
H348 C321 0.931 . S
H349 C323 0.929 . S
H350 C324 0.930 . S
H351 C325 0.931 . S
H352 C332 0.933 . S
H353 C333 0.930 1_545 S
H354 C334 0.929 . S
H355 C336 0.930 . S
H356 C338 0.932 . S
H357 C339 0.929 . S
H358 C340 0.928 . S
H359 C342 0.932 . S
C360 C361 1.264 . S
C360 C365 1.479 . S
C360 C370 1.465 . S
C361 C360 1.264 . S
C361 C363 1.339 . S
C361 H388 0.931 . S
C362 C363 1.395 . S
C362 C364 1.320 . S
C363 C361 1.339 . S
C363 C362 1.395 . S
C363 H389 0.929 . S
C364 C362 1.320 . S
C364 C365 1.405 . S
C364 H390 0.930 . S
C365 C360 1.479 . S
C365 C364 1.405 . S
C365 H391 0.931 . S
U366 O367 2.454 1_565 S
U366 O368 2.458 . S
U366 C369 2.984 . S
U366 C370 2.847 1_565 S
U366 C383 2.882 . S
U366 O384 2.441 1_565 S
U366 O385 2.420 1_565 S
U366 O386 2.455 . S
U366 O387 2.449 . S
O367 U366 2.454 1_545 S
O367 C369 1.353 1_545 S
O368 U366 2.458 . S
O368 C369 1.286 . S
C369 U366 2.984 . S
C369 O367 1.353 1_565 S
C369 O368 1.286 . S
C369 C371 1.363 . S
C370 C360 1.465 . S
C370 U366 2.847 1_545 S
C370 O384 1.249 . S
C370 O385 1.202 . S
C371 C369 1.363 . S
C371 C373 1.408 . S
C371 C376 1.342 . S
C372 C373 1.310 . S
C372 C375 1.461 . S
C372 H392 0.932 1_565 S
C373 C371 1.408 . S
C373 C372 1.310 . S
C373 H393 0.930 1_565 S
C374 C375 1.474 . S
C374 C376 1.285 . S
C374 H394 0.929 . S
C375 C372 1.461 . S
C375 C374 1.474 . S
C376 C371 1.342 . S
C376 C374 1.285 . S
C376 H395 0.930 . S
C377 C380 1.424 . S
C377 C382 1.245 . S
C377 C383 1.428 . S
C378 C381 1.260 . S
C378 C382 1.477 . S
C378 H396 0.932 . S
C379 C380 1.384 . S
C379 C381 1.479 . S
C379 H397 0.929 . S
C380 C377 1.424 . S
C380 C379 1.384 . S
C380 H398 0.928 . S
C381 C378 1.260 . S
C381 C379 1.479 . S
C382 C377 1.245 . S
C382 C378 1.477 . S
C382 H399 0.932 . S
C383 U366 2.882 . S
C383 C377 1.428 . S
C383 O386 1.301 . S
C383 O387 1.282 . S
O384 U366 2.441 1_545 S
O384 C370 1.249 . S
O385 U366 2.420 1_545 S
O385 C370 1.202 . S
O386 U366 2.455 . S
O386 C383 1.301 . S
O387 U366 2.449 . S
O387 C383 1.282 . S
H388 C361 0.931 . S
H389 C363 0.929 . S
H390 C364 0.930 . S
H391 C365 0.931 . S
H392 C372 0.932 1_545 S
H393 C373 0.930 1_545 S
H394 C374 0.929 . S
H395 C376 0.930 . S
H396 C378 0.932 . S
H397 C379 0.929 . S
H398 C380 0.928 . S
H399 C382 0.932 . S
C400 C401 1.264 . S
C400 C405 1.479 . S
C400 C410 1.465 . S
C401 C400 1.264 . S
C401 C403 1.339 . S
C401 H428 0.931 . S
C402 C403 1.395 . S
C402 C404 1.320 . S
C403 C401 1.339 . S
C403 C402 1.395 . S
C403 H429 0.929 . S
C404 C402 1.320 . S
C404 C405 1.405 . S
C404 H430 0.930 . S
C405 C400 1.479 . S
C405 C404 1.405 . S
C405 H431 0.931 . S
U406 O407 2.456 . S
U406 O408 2.458 . S
U406 C409 2.984 . S
U406 C410 2.847 1_455 S
U406 C423 2.882 . S
U406 O424 2.441 1_455 S
U406 O425 2.420 1_455 S
U406 O426 2.455 . S
U406 O427 2.449 . S
O407 U406 2.456 . S
O407 C409 1.355 . S
O408 U406 2.458 . S
O408 C409 1.286 . S
C409 U406 2.984 . S
C409 O407 1.355 . S
C409 O408 1.286 . S
C409 C411 1.363 . S
C410 C400 1.465 . S
C410 U406 2.847 1_655 S
C410 O424 1.249 . S
C410 O425 1.202 . S
C411 C409 1.363 . S
C411 C413 1.408 . S
C411 C416 1.342 . S
C412 C413 1.310 . S
C412 C415 1.461 . S
C412 H432 0.933 . S
C413 C411 1.408 . S
C413 C412 1.310 . S
C413 H433 0.930 1_455 S
C414 C415 1.474 . S
C414 C416 1.285 . S
C414 H434 0.929 . S
C415 C412 1.461 . S
C415 C414 1.474 . S
C416 C411 1.342 . S
C416 C414 1.285 . S
C416 H435 0.930 . S
C417 C420 1.424 . S
C417 C422 1.245 . S
C417 C423 1.428 . S
C418 C421 1.260 . S
C418 C422 1.477 . S
C418 H436 0.932 . S
C419 C420 1.384 . S
C419 C421 1.479 . S
C419 H437 0.929 . S
C420 C417 1.424 . S
C420 C419 1.384 . S
C420 H438 0.928 . S
C421 C418 1.260 . S
C421 C419 1.479 . S
C422 C417 1.245 . S
C422 C418 1.477 . S
C422 H439 0.932 . S
C423 U406 2.882 . S
C423 C417 1.428 . S
C423 O426 1.301 . S
C423 O427 1.282 . S
O424 U406 2.441 1_655 S
O424 C410 1.249 . S
O425 U406 2.420 1_655 S
O425 C410 1.202 . S
O426 U406 2.455 . S
O426 C423 1.301 . S
O427 U406 2.449 . S
O427 C423 1.282 . S
H428 C401 0.931 . S
H429 C403 0.929 . S
H430 C404 0.930 . S
H431 C405 0.931 . S
H432 C412 0.933 . S
H433 C413 0.930 1_655 S
H434 C414 0.929 . S
H435 C416 0.930 . S
H436 C418 0.932 . S
H437 C419 0.929 . S
H438 C420 0.928 . S
H439 C422 0.932 . S
C440 C441 1.264 . S
C440 C445 1.479 . S
C440 C450 1.465 . S
C441 C440 1.264 . S
C441 C443 1.339 . S
C441 H468 0.931 . S
C442 C443 1.395 . S
C442 C444 1.320 . S
C443 C441 1.339 . S
C443 C442 1.395 . S
C443 H469 0.929 . S
C444 C442 1.320 . S
C444 C445 1.405 . S
C444 H470 0.930 . S
C445 C440 1.479 . S
C445 C444 1.405 . S
C445 H471 0.931 . S
U446 O447 2.454 . S
U446 O448 2.458 . S
U446 C449 2.984 . S
U446 C450 2.847 . S
U446 C463 2.882 . S
U446 O464 2.441 . S
U446 O465 2.420 . S
U446 O466 2.455 . S
U446 O467 2.449 . S
O447 U446 2.454 . S
O447 C449 1.353 . S
O448 U446 2.458 . S
O448 C449 1.286 . S
C449 U446 2.984 . S
C449 O447 1.353 . S
C449 O448 1.286 . S
C449 C451 1.363 . S
C450 C440 1.465 . S
C450 U446 2.847 . S
C450 O464 1.249 . S
C450 O465 1.202 . S
C451 C449 1.363 . S
C451 C453 1.408 . S
C451 C456 1.342 . S
C452 C453 1.310 . S
C452 C455 1.461 . S
C452 H472 0.932 . S
C453 C451 1.408 . S
C453 C452 1.310 . S
C453 H473 0.930 . S
C454 C455 1.474 . S
C454 C456 1.285 . S
C454 H474 0.929 . S
C455 C452 1.461 . S
C455 C454 1.474 . S
C456 C451 1.342 . S
C456 C454 1.285 . S
C456 H475 0.930 . S
C457 C460 1.424 . S
C457 C462 1.245 . S
C457 C463 1.428 . S
C458 C461 1.260 . S
C458 C462 1.477 . S
C458 H476 0.932 . S
C459 C460 1.384 . S
C459 C461 1.479 . S
C459 H477 0.929 . S
C460 C457 1.424 . S
C460 C459 1.384 . S
C460 H478 0.928 . S
C461 C458 1.260 . S
C461 C459 1.479 . S
C462 C457 1.245 . S
C462 C458 1.477 . S
C462 H479 0.932 . S
C463 U446 2.882 . S
C463 C457 1.428 . S
C463 O466 1.301 . S
C463 O467 1.282 . S
O464 U446 2.441 . S
O464 C450 1.249 . S
O465 U446 2.420 . S
O465 C450 1.202 . S
O466 U446 2.455 . S
O466 C463 1.301 . S
O467 U446 2.449 . S
O467 C463 1.282 . S
H468 C441 0.931 . S
H469 C443 0.929 . S
H470 C444 0.930 . S
H471 C445 0.931 . S
H472 C452 0.932 . S
H473 C453 0.930 . S
H474 C454 0.929 . S
H475 C456 0.930 . S
H476 C458 0.932 . S
H477 C459 0.929 . S
H478 C460 0.928 . S
H479 C462 0.932 . S
C480 C481 1.387 . S
C480 H484 0.950 . S
C480 C489 1.390 . S
C481 C480 1.387 . S
C481 C483 1.387 . S
H482 C489 0.950 . S
C483 C481 1.387 . S
C483 C485 1.390 . S
C483 H487 0.950 . S
H484 C480 0.950 . S
C485 C483 1.390 . S
C485 C486 1.387 . S
C485 H488 0.950 . S
C486 C485 1.387 . S
C486 C489 1.387 . S
H487 C483 0.950 . S
H488 C485 0.950 . S
C489 C480 1.390 . S
C489 H482 0.950 . S
C489 C486 1.387 . S
C490 C491 1.387 . S
C490 H494 0.950 . S
C490 C499 1.390 . S
C491 C490 1.387 . S
C491 C493 1.387 . S
H492 C499 0.950 . S
C493 C491 1.387 . S
C493 C495 1.390 . S
C493 H497 0.950 . S
H494 C490 0.950 . S
C495 C493 1.390 . S
C495 C496 1.387 . S
C495 H498 0.950 . S
C496 C495 1.387 . S
C496 C499 1.387 . S
H497 C493 0.950 . S
H498 C495 0.950 . S
C499 C490 1.390 . S
C499 H492 0.950 . S
C499 C496 1.387 . S
C500 C501 1.387 . S
C500 H504 0.950 . S
C500 C509 1.390 . S
C501 C500 1.387 . S
C501 C503 1.387 . S
H502 C509 0.950 . S
C503 C501 1.387 . S
C503 C505 1.390 . S
C503 H507 0.950 . S
H504 C500 0.950 . S
C505 C503 1.390 . S
C505 C506 1.387 . S
C505 H508 0.950 . S
C506 C505 1.387 . S
C506 C509 1.387 . S
H507 C503 0.950 . S
H508 C505 0.950 . S
C509 C500 1.390 . S
C509 H502 0.950 . S
C509 C506 1.387 . S
C510 C511 1.387 . S
C510 H514 0.950 . S
C510 C519 1.390 . S
C511 C510 1.387 . S
C511 C513 1.387 . S
H512 C519 0.950 . S
C513 C511 1.387 . S
C513 C515 1.390 . S
C513 H517 0.950 . S
H514 C510 0.950 . S
C515 C513 1.390 . S
C515 C516 1.387 . S
C515 H518 0.950 . S
C516 C515 1.387 . S
C516 C519 1.387 . S
H517 C513 0.950 . S
H518 C515 0.950 . S
C519 C510 1.390 . S
C519 H512 0.950 . S
C519 C516 1.387 . S
C520 C521 1.387 . S
C520 H524 0.950 . S
C520 C529 1.390 . S
C521 C520 1.387 . S
C521 C523 1.387 . S
H522 C529 0.950 . S
C523 C521 1.387 . S
C523 C525 1.390 . S
C523 H527 0.950 . S
H524 C520 0.950 . S
C525 C523 1.390 . S
C525 C526 1.387 . S
C525 H528 0.950 . S
C526 C525 1.387 . S
C526 C529 1.387 . S
H527 C523 0.950 . S
H528 C525 0.950 . S
C529 C520 1.390 . S
C529 H522 0.950 . S
C529 C526 1.387 . S
C530 C531 1.387 . S
C530 H534 0.950 . S
C530 C539 1.390 . S
C531 C530 1.387 . S
C531 C533 1.387 . S
H532 C539 0.950 . S
C533 C531 1.387 . S
C533 C535 1.390 . S
C533 H537 0.950 . S
H534 C530 0.950 . S
C535 C533 1.390 . S
C535 C536 1.387 . S
C535 H538 0.950 . S
C536 C535 1.387 . S
C536 C539 1.387 . S
H537 C533 0.950 . S
H538 C535 0.950 . S
C539 C530 1.390 . S
C539 H532 0.950 . S
C539 C536 1.387 . S
C540 C541 1.387 1_556 S
C540 H544 0.950 . S
C540 C549 1.390 . S
C541 C540 1.387 1_554 S
C541 C543 1.387 1_655 S
H542 C549 0.950 . S
C543 C541 1.387 1_455 S
C543 C545 1.390 . S
C543 H547 0.950 . S
H544 C540 0.950 . S
C545 C543 1.390 . S
C545 C546 1.387 1_554 S
C545 H548 0.950 . S
C546 C545 1.387 1_556 S
C546 C549 1.387 1_455 S
H547 C543 0.950 . S
H548 C545 0.950 . S
C549 C540 1.390 . S
C549 H542 0.950 . S
C549 C546 1.387 1_655 S
C550 C551 1.387 1_554 S
C550 H554 0.950 . S
C550 C559 1.390 . S
C551 C550 1.387 1_556 S
C551 C553 1.387 . S
H552 C559 0.950 . S
C553 C551 1.387 . S
C553 C555 1.390 . S
C553 H557 0.950 . S
H554 C550 0.950 . S
C555 C553 1.390 . S
C555 C556 1.387 1_556 S
C555 H558 0.950 . S
C556 C555 1.387 1_554 S
C556 C559 1.387 . S
H557 C553 0.950 . S
H558 C555 0.950 . S
C559 C550 1.390 . S
C559 H552 0.950 . S
C559 C556 1.387 . S
C560 C561 1.387 1_556 S
C560 H564 0.950 . S
C560 C569 1.390 . S
C561 C560 1.387 1_554 S
C561 C563 1.387 1_545 S
H562 C569 0.950 . S
C563 C561 1.387 1_565 S
C563 C565 1.390 . S
C563 H567 0.950 . S
H564 C560 0.950 . S
C565 C563 1.390 . S
C565 C566 1.387 1_554 S
C565 H568 0.950 . S
C566 C565 1.387 1_556 S
C566 C569 1.387 1_565 S
H567 C563 0.950 . S
H568 C565 0.950 . S
C569 C560 1.390 . S
C569 H562 0.950 . S
C569 C566 1.387 1_545 S
C570 C571 1.387 1_545 S
C570 H574 0.950 . S
C570 C579 1.390 . S
C571 C570 1.387 1_565 S
C571 C573 1.387 . S
H572 C579 0.950 . S
C573 C571 1.387 . S
C573 C575 1.390 . S
C573 H577 0.950 . S
H574 C570 0.950 . S
C575 C573 1.390 . S
C575 C576 1.387 1_565 S
C575 H578 0.950 . S
C576 C575 1.387 1_545 S
C576 C579 1.387 . S
H577 C573 0.950 . S
H578 C575 0.950 . S
C579 C570 1.390 . S
C579 H572 0.950 . S
C579 C576 1.387 . S
C580 C581 1.387 . S
C580 H584 0.950 . S
C580 C589 1.390 . S
C581 C580 1.387 . S
C581 C583 1.387 1_455 S
H582 C589 0.950 . S
C583 C581 1.387 1_655 S
C583 C585 1.390 . S
C583 H587 0.950 . S
H584 C580 0.950 . S
C585 C583 1.390 . S
C585 C586 1.387 . S
C585 H588 0.950 . S
C586 C585 1.387 . S
C586 C589 1.387 1_655 S
H587 C583 0.950 . S
H588 C585 0.950 . S
C589 C580 1.390 . S
C589 H582 0.950 . S
C589 C586 1.387 1_455 S
C590 C591 1.387 . S
C590 H594 0.950 . S
C590 C599 1.390 . S
C591 C590 1.387 . S
C591 C593 1.387 . S
H592 C599 0.950 . S
C593 C591 1.387 . S
C593 C595 1.390 . S
C593 H597 0.950 . S
H594 C590 0.950 . S
C595 C593 1.390 . S
C595 C596 1.387 . S
C595 H598 0.950 . S
C596 C595 1.387 . S
C596 C599 1.387 . S
H597 C593 0.950 . S
H598 C595 0.950 . S
C599 C590 1.390 . S
C599 H592 0.950 . S
C599 C596 1.387 . S
C600 C601 1.387 . S
C600 H604 0.950 . S
C600 C609 1.390 . S
C601 C600 1.387 . S
C601 C603 1.387 . S
H602 C609 0.950 . S
C603 C601 1.387 . S
C603 C605 1.390 . S
C603 H607 0.950 . S
H604 C600 0.950 . S
C605 C603 1.390 . S
C605 C606 1.387 . S
C605 H608 0.950 . S
C606 C605 1.387 . S
C606 C609 1.387 . S
H607 C603 0.950 . S
H608 C605 0.950 . S
C609 C600 1.390 . S
C609 H602 0.950 . S
C609 C606 1.387 . S
C610 C611 1.387 . S
C610 H614 0.950 . S
C610 C619 1.390 . S
C611 C610 1.387 . S
C611 C613 1.387 . S
H612 C619 0.950 . S
C613 C611 1.387 . S
C613 C615 1.390 . S
C613 H617 0.950 . S
H614 C610 0.950 . S
C615 C613 1.390 . S
C615 C616 1.387 . S
C615 H618 0.950 . S
C616 C615 1.387 . S
C616 C619 1.387 . S
H617 C613 0.950 . S
H618 C615 0.950 . S
C619 C610 1.390 . S
C619 H612 0.950 . S
C619 C616 1.387 . S
C620 C621 1.387 . S
C620 H624 0.950 . S
C620 C629 1.390 . S
C621 C620 1.387 . S
C621 C623 1.387 . S
H622 C629 0.950 . S
C623 C621 1.387 . S
C623 C625 1.390 . S
C623 H627 0.950 . S
H624 C620 0.950 . S
C625 C623 1.390 . S
C625 C626 1.387 . S
C625 H628 0.950 . S
C626 C625 1.387 . S
C626 C629 1.387 . S
H627 C623 0.950 . S
H628 C625 0.950 . S
C629 C620 1.390 . S
C629 H622 0.950 . S
C629 C626 1.387 . S
C630 C631 1.387 . S
C630 H634 0.950 . S
C630 C639 1.390 . S
C631 C630 1.387 . S
C631 C633 1.387 . S
H632 C639 0.950 . S
C633 C631 1.387 . S
C633 C635 1.390 . S
C633 H637 0.950 . S
H634 C630 0.950 . S
C635 C633 1.390 . S
C635 C636 1.387 . S
C635 H638 0.950 . S
C636 C635 1.387 . S
C636 C639 1.387 . S
H637 C633 0.950 . S
H638 C635 0.950 . S
C639 C630 1.390 . S
C639 H632 0.950 . S
C639 C636 1.387 . S
C640 C641 1.387 . S
C640 H644 0.950 . S
C640 C649 1.390 . S
C641 C640 1.387 . S
C641 C643 1.387 . S
H642 C649 0.950 . S
C643 C641 1.387 . S
C643 C645 1.390 . S
C643 H647 0.950 . S
H644 C640 0.950 . S
C645 C643 1.390 . S
C645 C646 1.387 . S
C645 H648 0.950 . S
C646 C645 1.387 . S
C646 C649 1.387 . S
H647 C643 0.950 . S
H648 C645 0.950 . S
C649 C640 1.390 . S
C649 H642 0.950 . S
C649 C646 1.387 . S
C650 C651 1.387 . S
C650 H654 0.950 . S
C650 C659 1.390 . S
C651 C650 1.387 . S
C651 C653 1.387 . S
H652 C659 0.950 . S
C653 C651 1.387 . S
C653 C655 1.390 . S
C653 H657 0.950 . S
H654 C650 0.950 . S
C655 C653 1.390 . S
C655 C656 1.387 . S
C655 H658 0.950 . S
C656 C655 1.387 . S
C656 C659 1.387 . S
H657 C653 0.950 . S
H658 C655 0.950 . S
C659 C650 1.390 . S
C659 H652 0.950 . S
C659 C656 1.387 . S
C481 C202 2.816 . S
C486 C2 2.806 . S
C491 C42 2.817 . S
C496 C122 2.805 . S
C501 C162 2.598 . S
C506 C82 2.594 . S
C511 C442 2.894 . S
C516 C242 2.872 . S
C521 C282 2.895 . S
C526 C362 2.873 . S
C531 C402 2.649 . S
C536 C322 2.646 . S
C541 C15 3.564 . S
C546 C255 3.589 . S
C551 C295 3.587 . S
C556 C55 3.563 . S
C561 C95 3.239 . S
C566 C335 3.256 . S
C571 C375 3.587 . S
C576 C135 3.565 . S
C581 C415 3.259 . S
C586 C175 3.232 . S
C591 C215 3.561 . S
C596 C455 3.585 . S
C601 C181 0.853 . S
C606 C21 0.823 . S
C611 C221 0.906 . S
C616 C61 0.913 . S
C621 C101 0.858 . S
C626 C141 0.815 . S
C631 C261 0.882 . S
C636 C421 0.894 . S
C641 C461 0.973 . S
C646 C301 0.970 . S
C651 C341 0.890 . S
C656 C381 0.876 . S
