# Generated by pormake.
# Topology unj, (4)-cn, num edge types: 1
# Building blocks:
#     Node 0, Type 0, BuildingBlock: QUQFOY_clean_sbu_3, # of connection points: 4
#     Node 1, Type 0, BuildingBlock: QUQFOY_clean_sbu_3, # of connection points: 4
#     Node 2, Type 0, BuildingBlock: QUQFOY_clean_sbu_3, # of connection points: 4
#     Node 3, Type 0, BuildingBlock: QUQFOY_clean_sbu_3, # of connection points: 4
#     Node 4, Type 0, BuildingBlock: QUQFOY_clean_sbu_3, # of connection points: 4
#     Node 5, Type 0, BuildingBlock: QUQFOY_clean_sbu_3, # of connection points: 4
#     Edge 6, Type (0, 0), BuildingBlock: XIVTED_clean_linker_0, # of connection points: 2
#     Edge 7, Type (0, 0), BuildingBlock: XIVTED_clean_linker_0, # of connection points: 2
#     Edge 8, Type (0, 0), BuildingBlock: XIVTED_clean_linker_0, # of connection points: 2
#     Edge 9, Type (0, 0), BuildingBlock: XIVTED_clean_linker_0, # of connection points: 2
#     Edge 10, Type (0, 0), BuildingBlock: XIVTED_clean_linker_0, # of connection points: 2
#     Edge 11, Type (0, 0), BuildingBlock: XIVTED_clean_linker_0, # of connection points: 2
#     Edge 12, Type (0, 0), BuildingBlock: XIVTED_clean_linker_0, # of connection points: 2
#     Edge 13, Type (0, 0), BuildingBlock: XIVTED_clean_linker_0, # of connection points: 2
#     Edge 14, Type (0, 0), BuildingBlock: XIVTED_clean_linker_0, # of connection points: 2
#     Edge 15, Type (0, 0), BuildingBlock: XIVTED_clean_linker_0, # of connection points: 2
#     Edge 16, Type (0, 0), BuildingBlock: XIVTED_clean_linker_0, # of connection points: 2
#     Edge 17, Type (0, 0), BuildingBlock: XIVTED_clean_linker_0, # of connection points: 2
# Relax obj value: 0.028
# Max RMSD: 0.079
# Mean RMSD: 0.079
data_MOF--net-unj--node1-QUQFOY_clean_sbu_3--edge1-XIVTED_clean_linker_0
_symmetry_space_group_name_H-M    P1
_symmetry_Int_Tables_number       1
_symmetry_cell_setting            triclinic
loop_
_symmetry_equiv_pos_as_xyz
'x, y, z'
_cell_length_a     34.373945
_cell_length_b     34.173042
_cell_length_c     38.422176
_cell_angle_alpha  90.234693
_cell_angle_beta   90.055976
_cell_angle_gamma 120.17044
loop_
_atom_site_label
_atom_site_type_symbol
_atom_site_fract_x
_atom_site_fract_y
_atom_site_fract_z
_atom_type_partial_charge
C0 C 0.57982 0.31606 0.51287 0.0
O1 O 0.60384 0.30228 0.52745 0.0
Cd2 Cd 0.57417 0.24623 0.57152 0.0
O3 O 0.53977 0.30252 0.52306 0.0
Cd4 Cd 0.4885 0.25639 0.57075 0.0
C5 C 0.47664 0.16295 0.53221 0.0
O6 O 0.54717 0.27862 0.61344 0.0
O7 O 0.48334 0.22161 0.62836 0.0
O8 O 0.47741 0.3204 0.57655 0.0
C9 C 0.52295 0.2516 0.63695 0.0
O10 O 0.51643 0.17647 0.54315 0.0
C11 C 0.43524 0.2978 0.58124 0.0
O12 O 0.45802 0.18655 0.53746 0.0
O13 O 0.4168 0.25494 0.57987 0.0
C14 C 0.24238 0.56311 0.67805 0.0
O15 O 0.28095 0.58723 0.69172 0.0
Cd16 Cd 0.30948 0.5575 0.73363 0.0
O17 O 0.21651 0.52239 0.68776 0.0
Cd18 Cd 0.21371 0.46928 0.73336 0.0
C19 C 0.29444 0.46058 0.69192 0.0
O20 O 0.25032 0.52905 0.77544 0.0
O21 O 0.24439 0.46586 0.79123 0.0
O22 O 0.1377 0.45482 0.73593 0.0
C23 C 0.2541 0.50578 0.79922 0.0
O24 O 0.32054 0.50084 0.70271 0.0
C25 C 0.11932 0.41318 0.74334 0.0
O26 O 0.25256 0.44048 0.6985 0.0
O27 O 0.14491 0.39641 0.74527 0.0
C28 C 0.68722 0.27655 0.85662 0.0
O29 O 0.71192 0.31608 0.86908 0.0
Cd30 Cd 0.77037 0.33778 0.91081 0.0
O31 O 0.69104 0.24324 0.86713 0.0
Cd32 Cd 0.73481 0.22686 0.9107 0.0
C33 C 0.83007 0.29603 0.86642 0.0
O34 O 0.7348 0.27924 0.95175 0.0
O35 O 0.77141 0.24705 0.96913 0.0
O36 O 0.66417 0.1582 0.92136 0.0
C37 C 0.75795 0.27475 0.9752 0.0
O38 O 0.82534 0.3286 0.87747 0.0
C39 C 0.68064 0.13228 0.92223 0.0
O40 O 0.8018 0.25513 0.87409 0.0
O41 O 0.72252 0.15015 0.91626 0.0
C42 C 0.39473 0.68082 0.01639 0.0
O43 O 0.37673 0.70041 0.03212 0.0
Cd44 Cd 0.41232 0.75246 0.07844 0.0
O45 O 0.43356 0.68808 0.02536 0.0
Cd46 Cd 0.4914 0.73313 0.07036 0.0
C47 C 0.50782 0.83016 0.03569 0.0
O48 O 0.4376 0.71424 0.11628 0.0
O49 O 0.50403 0.76917 0.12872 0.0
O50 O 0.50112 0.66782 0.07267 0.0
C51 C 0.46495 0.74039 0.13906 0.0
O52 O 0.47071 0.8206 0.05001 0.0
C53 C 0.54361 0.68991 0.07578 0.0
O54 O 0.52282 0.80295 0.0375 0.0
O55 O 0.56249 0.73278 0.07501 0.0
C56 C 0.73059 0.42505 0.18354 0.0
O57 O 0.69095 0.40292 0.19571 0.0
Cd58 Cd 0.65987 0.43388 0.23517 0.0
O59 O 0.75779 0.46557 0.19338 0.0
Cd60 Cd 0.7651 0.5243 0.23546 0.0
C61 C 0.68478 0.53241 0.19033 0.0
O62 O 0.71934 0.46711 0.27587 0.0
O63 O 0.74304 0.53458 0.29517 0.0
O64 O 0.83916 0.53352 0.23902 0.0
C65 C 0.71981 0.4923 0.30014 0.0
O66 O 0.65699 0.4927 0.20106 0.0
C67 C 0.86016 0.57614 0.24323 0.0
O68 O 0.7263 0.55182 0.19857 0.0
O69 O 0.83688 0.59558 0.24315 0.0
C70 C 0.29939 0.71418 0.3555 0.0
O71 O 0.27365 0.67448 0.36694 0.0
Cd72 Cd 0.21202 0.65155 0.40531 0.0
O73 O 0.29482 0.74742 0.3653 0.0
Cd74 Cd 0.24787 0.76318 0.40637 0.0
C75 C 0.15508 0.69435 0.35839 0.0
O76 O 0.24481 0.70962 0.44716 0.0
O77 O 0.20751 0.74161 0.46328 0.0
O78 O 0.31767 0.83181 0.42037 0.0
C79 C 0.22013 0.71334 0.46962 0.0
O80 O 0.15925 0.66164 0.36969 0.0
C81 C 0.30119 0.85774 0.42009 0.0
O82 O 0.18287 0.73516 0.36707 0.0
O83 O 0.25981 0.83993 0.41205 0.0
H84 H 0.50648 0.10472 0.51497 0.0
H85 H 0.27384 0.92013 0.4277 0.0
H86 H 0.39091 0.1222 0.50539 0.0
H87 H 0.38993 0.90386 0.43858 0.0
H88 H 0.31753 -0.00356 0.45231 0.0
H89 H 0.46536 0.03288 0.48389 0.0
C90 C 0.47245 0.09351 0.50632 0.0
C91 C 0.45208 0.11952 0.51299 0.0
C92 C 0.33351 0.97627 0.44906 0.0
C93 C 0.40471 0.03707 0.47723 0.0
C94 C 0.30864 0.93278 0.43491 0.0
C95 C 0.32821 0.90551 0.43127 0.0
C96 C 0.37821 0.99252 0.45969 0.0
C97 C 0.37341 0.92361 0.44106 0.0
C98 C 0.44899 0.05245 0.48848 0.0
C99 C 0.40793 0.10324 0.50096 0.0
N100 N 0.39676 0.96584 0.455 0.0
N101 N 0.38567 0.06298 0.48376 0.0
H102 H 0.34667 0.25956 0.60078 0.0
H103 H 0.37916 0.49657 0.66517 0.0
H104 H 0.46694 0.38851 0.58408 0.0
H105 H 0.25241 0.37123 0.672 0.0
H106 H 0.41042 0.45719 0.63312 0.0
H107 H 0.30954 0.2994 0.6239 0.0
C108 C 0.36504 0.29622 0.60153 0.0
C109 C 0.41008 0.32076 0.59082 0.0
C110 C 0.37568 0.43826 0.64145 0.0
C111 C 0.36813 0.36639 0.61748 0.0
C112 C 0.35784 0.46074 0.6599 0.0
C113 C 0.31318 0.43712 0.67154 0.0
C114 C 0.34886 0.39165 0.63477 0.0
C115 C 0.28707 0.39075 0.66363 0.0
C116 C 0.3439 0.31892 0.61481 0.0
C117 C 0.4323 0.36818 0.59233 0.0
N118 N 0.30541 0.36943 0.64594 0.0
N119 N 0.41125 0.38939 0.60572 0.0
H120 H 0.86895 0.24424 0.85194 0.0
H121 H 0.05614 0.43702 0.7315 0.0
H122 H 0.87787 0.3718 0.82788 0.0
H123 H 0.07333 0.33119 0.77663 0.0
H124 H 0.98079 0.40207 0.75584 0.0
H125 H 0.93518 0.26582 0.81508 0.0
C126 C 0.8846 0.27654 0.83874 0.0
C127 C 0.86833 0.30657 0.84331 0.0
C128 C 0.0008 0.38616 0.76018 0.0
C129 C 0.94306 0.33091 0.801 0.0
C130 C 0.04379 0.40602 0.74618 0.0
C131 C 0.07126 0.38737 0.75258 0.0
C132 C 0.98514 0.3475 0.781 0.0
C133 C 0.05328 0.34681 0.77136 0.0
C134 C 0.92227 0.28878 0.81779 0.0
C135 C 0.88966 0.34789 0.82556 0.0
N136 N 0.01141 0.32847 0.78541 0.0
N137 N 0.92587 0.35881 0.80529 0.0
H138 H 0.59098 0.86544 0.00529 0.0
H139 H 0.59097 0.08631 0.93707 0.0
H140 H 0.48201 0.89209 0.02117 0.0
H141 H 0.70744 0.06987 0.93214 0.0
H142 H 0.5477 0.01069 0.96158 0.0
H143 H 0.63173 0.93641 0.97312 0.0
C144 C 0.57558 0.88614 0.00201 0.0
C145 C 0.53309 0.87289 0.01614 0.0
C146 C 0.58264 0.02344 0.95494 0.0
C147 C 0.5794 0.95388 0.9792 0.0
C148 C 0.60734 0.06658 0.9408 0.0
C149 C 0.65298 0.08455 0.93281 0.0
C150 C 0.6037 -0.00198 0.96123 0.0
C151 C 0.67236 0.05737 0.93807 0.0
C152 C 0.59886 0.92661 -0.01639 0.0
C153 C 0.51477 0.90101 0.01095 0.0
N154 N 0.64768 0.01552 0.95222 0.0
N155 N 0.53805 0.94015 -0.00705 0.0
H156 H 0.72958 0.62131 0.1695 0.0
H157 H 0.51221 0.59914 0.07474 0.0
H158 H 0.60202 0.4971 0.15986 0.0
H159 H 0.63208 0.72743 0.09538 0.0
H160 H 0.55013 0.56033 0.09696 0.0
H161 H 0.69925 0.65978 0.13462 0.0
C162 C 0.69534 0.60207 0.15991 0.0
C163 C 0.66813 0.55602 0.16798 0.0
C164 C 0.56837 0.59697 0.09634 0.0
C165 C 0.63345 0.5997 0.12795 0.0
C166 C 0.54677 0.61917 0.08354 0.0
C167 C 0.56885 0.66659 0.08366 0.0
C168 C 0.61232 0.62234 0.10959 0.0
C169 C 0.61374 0.69079 0.09506 0.0
C170 C 0.67809 0.62404 0.13999 0.0
C171 C 0.62409 0.53274 0.15469 0.0
N172 N 0.63388 0.66837 0.10801 0.0
N173 N 0.60813 0.55487 0.1355 0.0
H174 H 0.11681 0.74647 0.34341 0.0
H175 H 0.91907 0.54617 0.23332 0.0
H176 H 0.10713 0.61834 0.31939 0.0
H177 H 0.91185 0.66161 0.27068 0.0
H178 H -0.00382 0.58107 0.25443 0.0
H179 H 0.04932 0.72393 0.3077 0.0
C180 C 0.10082 0.71389 0.33035 0.0
C181 C 0.11712 0.68391 0.33479 0.0
C182 C 0.97799 0.59908 0.25778 0.0
C183 C 0.04064 0.65826 0.29391 0.0
C184 C 0.93395 0.57918 0.24565 0.0
C185 C 0.90884 0.60071 0.25079 0.0
C186 C -0.00295 0.64067 0.27557 0.0
C187 C 0.93002 0.64375 0.26647 0.0
C188 C 0.06237 0.70107 0.31005 0.0
C189 C 0.0953 0.64221 0.31721 0.0
N190 N 0.97283 0.66211 0.27884 0.0
N191 N 0.05815 0.6306 0.29774 0.0
H192 H 0.66769 0.37924 0.50177 0.0
H193 H 0.63971 0.41478 0.30642 0.0
H194 H 0.53466 0.3255 0.45805 0.0
H195 H 0.74332 0.52473 0.36655 0.0
H196 H 0.60214 0.37719 0.36049 0.0
H197 H 0.69896 0.42917 0.45135 0.0
C198 C 0.64511 0.37814 0.4816 0.0
C199 C 0.59862 0.34807 0.48379 0.0
C200 C 0.63271 0.40987 0.36179 0.0
C201 C 0.63408 0.4044 0.42629 0.0
C202 C 0.65419 0.43117 0.33108 0.0
C203 C 0.69459 0.47269 0.33229 0.0
C204 C 0.65261 0.42962 0.3938 0.0
C205 C 0.71208 0.49273 0.36474 0.0
C206 C 0.6629 0.40682 0.4531 0.0
C207 C 0.57071 0.34821 0.45722 0.0
N208 N 0.69142 0.47049 0.39442 0.0
N209 N 0.58898 0.37541 0.42914 0.0
H210 H 0.20137 0.62672 0.47548 0.0
H211 H 0.26803 0.65182 0.66923 0.0
H212 H 0.21188 0.73855 0.5355 0.0
H213 H 0.18318 0.51909 0.6248 0.0
H214 H 0.2487 0.68498 0.62066 0.0
H215 H 0.19405 0.58591 0.52941 0.0
C216 C 0.20132 0.64226 0.50011 0.0
C217 C 0.20759 0.68604 0.50133 0.0
C218 C 0.23373 0.64855 0.62188 0.0
C219 C 0.2004 0.64027 0.56281 0.0
C220 C 0.24506 0.62967 0.64934 0.0
C221 C 0.22763 0.58276 0.65063 0.0
C222 C 0.20577 0.6204 0.59514 0.0
C223 C 0.19753 0.55546 0.62455 0.0
C224 C 0.19696 0.61895 0.53078 0.0
C225 C 0.20712 0.70478 0.53369 0.0
N226 N 0.18823 0.5748 0.59738 0.0
N227 N 0.20473 0.68218 0.56337 0.0
H228 H 0.6253 0.19718 0.82434 0.0
H229 H 0.59205 0.32537 0.66715 0.0
H230 H 0.67734 0.34155 0.8237 0.0
H231 H 0.49627 0.18462 0.68608 0.0
H232 H 0.62625 0.33027 0.72364 0.0
H233 H 0.57914 0.18966 0.77319 0.0
C234 C 0.62674 0.22718 0.8137 0.0
C235 C 0.65567 0.27014 0.82808 0.0
C236 C 0.59752 0.29835 0.71567 0.0
C237 C 0.60344 0.26172 0.76975 0.0
C238 C 0.57815 0.29548 0.68334 0.0
C239 C 0.5415 0.25447 0.67197 0.0
C240 C 0.58071 0.25972 0.73661 0.0
C241 C 0.52454 0.21685 0.69405 0.0
C242 C 0.60031 0.2228 0.78464 0.0
C243 C 0.65592 0.30779 0.81338 0.0
N244 N 0.54472 0.22017 0.7253 0.0
N245 N 0.63066 0.30274 0.78482 0.0
H246 H 0.29654 0.48158 0.84823 0.0
H247 H 0.32001 0.6703 -0.01686 0.0
H248 H 0.25086 0.57617 0.82826 0.0
H249 H 0.41429 0.62172 -0.01747 0.0
H250 H 0.2823 0.62274 0.93274 0.0
H251 H 0.32873 0.52051 0.90399 0.0
C252 C 0.29296 0.51019 0.85575 0.0
C253 C 0.27136 0.52599 0.83368 0.0
C254 C 0.31115 0.62238 0.94372 0.0
C255 C 0.30721 0.56981 0.8969 0.0
C256 C 0.33267 0.64943 0.97255 0.0
C257 C 0.37066 0.65033 -0.01313 0.0
C258 C 0.32739 0.59565 0.9292 0.0
C259 C 0.38538 0.62238 0.97205 0.0
C260 C 0.31143 0.5324 0.88733 0.0
C261 C 0.26762 0.5632 0.84442 0.0
N262 N 0.36369 0.5961 0.94388 0.0
N263 N 0.28527 0.58376 0.87529 0.0
H264 H 0.77836 0.36174 -0.01742 0.0
H265 H 0.69874 0.33493 0.17288 0.0
H266 H 0.75887 0.24596 0.04122 0.0
H267 H 0.79472 0.46702 0.1336 0.0
H268 H 0.71767 0.3003 0.12479 0.0
H269 H 0.78298 0.4011 0.03708 0.0
C270 C 0.77579 0.34499 0.00707 0.0
C271 C 0.76803 0.30067 0.0077 0.0
C272 C 0.73509 0.33684 0.12712 0.0
C273 C 0.77207 0.34474 0.06972 0.0
C274 C 0.72406 0.35659 0.15429 0.0
C275 C 0.74483 0.40385 0.15686 0.0
C276 C 0.76616 0.36459 0.10196 0.0
C277 C 0.77779 0.43043 0.13239 0.0
C278 C 0.77861 0.36745 0.03806 0.0
C279 C 0.76499 0.28025 0.03989 0.0
N280 N 0.78681 0.4104 0.10547 0.0
N281 N 0.76595 0.30212 0.06981 0.0
H282 H 0.31674 0.65053 0.32873 0.0
H283 H 0.49361 0.81032 0.18624 0.0
H284 H 0.35939 0.79271 0.32182 0.0
H285 H 0.40189 0.66711 0.17319 0.0
H286 H 0.46092 0.80652 0.24412 0.0
H287 H 0.36576 0.6591 0.28026 0.0
C288 C 0.3367 0.68372 0.31726 0.0
C289 C 0.33322 0.7208 0.32895 0.0
C290 C 0.44849 0.77599 0.22859 0.0
C291 C 0.38954 0.73067 0.27338 0.0
C292 C 0.46714 0.77808 0.19582 0.0
C293 C 0.44995 0.73901 0.17503 0.0
C294 C 0.41338 0.73438 0.24059 0.0
C295 C 0.41564 0.69806 0.18834 0.0
C296 C 0.36467 0.68851 0.28956 0.0
C297 C 0.36056 0.76308 0.31331 0.0
N298 N 0.39848 0.69681 0.22027 0.0
N299 N 0.38737 0.76683 0.28599 0.0
loop_
_geom_bond_atom_site_label_1
_geom_bond_atom_site_label_2
_geom_bond_distance
_geom_bond_site_symmetry_2
_ccdc_geom_bond_type
C0 O1 1.306 . S
C0 O3 1.160 . S
O1 C0 1.306 . S
O1 Cd2 2.228 . S
Cd2 O1 2.228 . S
Cd2 O6 2.273 . S
Cd2 O10 2.277 . S
O3 C0 1.160 . S
O3 Cd4 2.203 . S
Cd4 O3 2.203 . S
Cd4 O6 2.411 . S
Cd4 O7 2.333 . S
Cd4 O8 2.352 . S
Cd4 O12 2.277 . S
Cd4 O13 2.356 . S
C5 O10 1.209 . S
C5 O12 1.226 . S
O6 Cd2 2.273 . S
O6 Cd4 2.411 . S
O6 C9 1.320 . S
O7 Cd4 2.333 . S
O7 C9 1.214 . S
O8 Cd4 2.352 . S
O8 C11 1.258 . S
C9 O6 1.320 . S
C9 O7 1.214 . S
O10 Cd2 2.277 . S
O10 C5 1.209 . S
C11 O8 1.258 . S
C11 O13 1.282 . S
O12 Cd4 2.277 . S
O12 C5 1.226 . S
O13 Cd4 2.356 . S
O13 C11 1.282 . S
C14 O15 1.306 . S
C14 O17 1.160 . S
O15 C14 1.306 . S
O15 Cd16 2.228 . S
Cd16 O15 2.228 . S
Cd16 O20 2.273 . S
Cd16 O24 2.277 . S
O17 C14 1.160 . S
O17 Cd18 2.203 . S
Cd18 O17 2.203 . S
Cd18 O20 2.411 . S
Cd18 O21 2.333 . S
Cd18 O22 2.352 . S
Cd18 O26 2.277 . S
Cd18 O27 2.356 . S
C19 O24 1.209 . S
C19 O26 1.226 . S
O20 Cd16 2.273 . S
O20 Cd18 2.411 . S
O20 C23 1.320 . S
O21 Cd18 2.333 . S
O21 C23 1.214 . S
O22 Cd18 2.352 . S
O22 C25 1.258 . S
C23 O20 1.320 . S
C23 O21 1.214 . S
O24 Cd16 2.277 . S
O24 C19 1.209 . S
C25 O22 1.258 . S
C25 O27 1.282 . S
O26 Cd18 2.277 . S
O26 C19 1.226 . S
O27 Cd18 2.356 . S
O27 C25 1.282 . S
C28 O29 1.306 . S
C28 O31 1.160 . S
O29 C28 1.306 . S
O29 Cd30 2.228 . S
Cd30 O29 2.228 . S
Cd30 O34 2.273 . S
Cd30 O38 2.277 . S
O31 C28 1.160 . S
O31 Cd32 2.203 . S
Cd32 O31 2.203 . S
Cd32 O34 2.411 . S
Cd32 O35 2.333 . S
Cd32 O36 2.352 . S
Cd32 O40 2.277 . S
Cd32 O41 2.356 . S
C33 O38 1.209 . S
C33 O40 1.226 . S
O34 Cd30 2.273 . S
O34 Cd32 2.411 . S
O34 C37 1.320 . S
O35 Cd32 2.333 . S
O35 C37 1.214 . S
O36 Cd32 2.352 . S
O36 C39 1.258 . S
C37 O34 1.320 . S
C37 O35 1.214 . S
O38 Cd30 2.277 . S
O38 C33 1.209 . S
C39 O36 1.258 . S
C39 O41 1.282 . S
O40 Cd32 2.277 . S
O40 C33 1.226 . S
O41 Cd32 2.356 . S
O41 C39 1.282 . S
C42 O43 1.306 . S
C42 O45 1.160 . S
O43 C42 1.306 . S
O43 Cd44 2.228 . S
Cd44 O43 2.228 . S
Cd44 O48 2.273 . S
Cd44 O52 2.277 . S
O45 C42 1.160 . S
O45 Cd46 2.203 . S
Cd46 O45 2.203 . S
Cd46 O48 2.411 . S
Cd46 O49 2.333 . S
Cd46 O50 2.352 . S
Cd46 O54 2.277 . S
Cd46 O55 2.356 . S
C47 O52 1.209 . S
C47 O54 1.226 . S
O48 Cd44 2.273 . S
O48 Cd46 2.411 . S
O48 C51 1.320 . S
O49 Cd46 2.333 . S
O49 C51 1.214 . S
O50 Cd46 2.352 . S
O50 C53 1.258 . S
C51 O48 1.320 . S
C51 O49 1.214 . S
O52 Cd44 2.277 . S
O52 C47 1.209 . S
C53 O50 1.258 . S
C53 O55 1.282 . S
O54 Cd46 2.277 . S
O54 C47 1.226 . S
O55 Cd46 2.356 . S
O55 C53 1.282 . S
C56 O57 1.306 . S
C56 O59 1.160 . S
O57 C56 1.306 . S
O57 Cd58 2.228 . S
Cd58 O57 2.228 . S
Cd58 O62 2.273 . S
Cd58 O66 2.277 . S
O59 C56 1.160 . S
O59 Cd60 2.203 . S
Cd60 O59 2.203 . S
Cd60 O62 2.411 . S
Cd60 O63 2.333 . S
Cd60 O64 2.352 . S
Cd60 O68 2.277 . S
Cd60 O69 2.356 . S
C61 O66 1.209 . S
C61 O68 1.226 . S
O62 Cd58 2.273 . S
O62 Cd60 2.411 . S
O62 C65 1.320 . S
O63 Cd60 2.333 . S
O63 C65 1.214 . S
O64 Cd60 2.352 . S
O64 C67 1.258 . S
C65 O62 1.320 . S
C65 O63 1.214 . S
O66 Cd58 2.277 . S
O66 C61 1.209 . S
C67 O64 1.258 . S
C67 O69 1.282 . S
O68 Cd60 2.277 . S
O68 C61 1.226 . S
O69 Cd60 2.356 . S
O69 C67 1.282 . S
C70 O71 1.306 . S
C70 O73 1.160 . S
O71 C70 1.306 . S
O71 Cd72 2.228 . S
Cd72 O71 2.228 . S
Cd72 O76 2.273 . S
Cd72 O80 2.277 . S
O73 C70 1.160 . S
O73 Cd74 2.203 . S
Cd74 O73 2.203 . S
Cd74 O76 2.411 . S
Cd74 O77 2.333 . S
Cd74 O78 2.352 . S
Cd74 O82 2.277 . S
Cd74 O83 2.356 . S
C75 O80 1.209 . S
C75 O82 1.226 . S
O76 Cd72 2.273 . S
O76 Cd74 2.411 . S
O76 C79 1.320 . S
O77 Cd74 2.333 . S
O77 C79 1.214 . S
O78 Cd74 2.352 . S
O78 C81 1.258 . S
C79 O76 1.320 . S
C79 O77 1.214 . S
O80 Cd72 2.277 . S
O80 C75 1.209 . S
C81 O78 1.258 . S
C81 O83 1.282 . S
O82 Cd74 2.277 . S
O82 C75 1.226 . S
O83 Cd74 2.356 . S
O83 C81 1.282 . S
H84 C90 0.930 . S
H85 C94 0.930 . S
H86 C99 0.929 . S
H87 C97 0.929 . S
H88 C92 0.929 . S
H89 C98 0.929 . S
C90 H84 0.930 . S
C90 C91 1.367 . S
C90 C98 1.378 . S
C91 C90 1.367 . S
C91 C99 1.433 . S
C92 H88 0.929 . S
C92 C94 1.378 . S
C92 C96 1.350 . S
C93 C96 1.463 1_545 S
C93 C98 1.350 . S
C93 N101 1.427 . S
C94 H85 0.930 . S
C94 C92 1.378 . S
C94 C95 1.367 . S
C95 C94 1.367 . S
C95 C97 1.433 . S
C96 C92 1.350 . S
C96 C93 1.463 1_565 S
C96 N100 1.427 . S
C97 H87 0.929 . S
C97 C95 1.433 . S
C97 N100 1.384 . S
C98 H89 0.929 . S
C98 C90 1.378 . S
C98 C93 1.350 . S
C99 H86 0.929 . S
C99 C91 1.433 . S
C99 N101 1.384 . S
N100 C96 1.427 . S
N100 C97 1.384 . S
N101 C93 1.427 . S
N101 C99 1.384 . S
H102 C108 0.930 . S
H103 C112 0.930 . S
H104 C117 0.929 . S
H105 C115 0.929 . S
H106 C110 0.929 . S
H107 C116 0.929 . S
C108 H102 0.930 . S
C108 C109 1.367 . S
C108 C116 1.378 . S
C109 C108 1.367 . S
C109 C117 1.433 . S
C110 H106 0.929 . S
C110 C112 1.378 . S
C110 C114 1.350 . S
C111 C114 1.463 . S
C111 C116 1.350 . S
C111 N119 1.427 . S
C112 H103 0.930 . S
C112 C110 1.378 . S
C112 C113 1.367 . S
C113 C112 1.367 . S
C113 C115 1.433 . S
C114 C110 1.350 . S
C114 C111 1.463 . S
C114 N118 1.427 . S
C115 H105 0.929 . S
C115 C113 1.433 . S
C115 N118 1.384 . S
C116 H107 0.929 . S
C116 C108 1.378 . S
C116 C111 1.350 . S
C117 H104 0.929 . S
C117 C109 1.433 . S
C117 N119 1.384 . S
N118 C114 1.427 . S
N118 C115 1.384 . S
N119 C111 1.427 . S
N119 C117 1.384 . S
H120 C126 0.930 . S
H121 C130 0.930 . S
H122 C135 0.929 . S
H123 C133 0.929 . S
H124 C128 0.929 . S
H125 C134 0.929 . S
C126 H120 0.930 . S
C126 C127 1.367 . S
C126 C134 1.378 . S
C127 C126 1.367 . S
C127 C135 1.433 . S
C128 H124 0.929 . S
C128 C130 1.378 . S
C128 C132 1.350 . S
C129 C132 1.463 1_655 S
C129 C134 1.350 . S
C129 N137 1.427 . S
C130 H121 0.930 . S
C130 C128 1.378 . S
C130 C131 1.367 . S
C131 C130 1.367 . S
C131 C133 1.433 . S
C132 C128 1.350 . S
C132 C129 1.463 1_455 S
C132 N136 1.427 . S
C133 H123 0.929 . S
C133 C131 1.433 . S
C133 N136 1.384 . S
C134 H125 0.929 . S
C134 C126 1.378 . S
C134 C129 1.350 . S
C135 H122 0.929 . S
C135 C127 1.433 . S
C135 N137 1.384 . S
N136 C132 1.427 . S
N136 C133 1.384 . S
N137 C129 1.427 . S
N137 C135 1.384 . S
H138 C144 0.930 . S
H139 C148 0.930 . S
H140 C153 0.929 1_556 S
H141 C151 0.929 1_554 S
H142 C146 0.929 1_565 S
H143 C152 0.929 . S
C144 H138 0.930 . S
C144 C145 1.367 . S
C144 C152 1.378 . S
C145 C144 1.367 . S
C145 C153 1.433 . S
C146 H142 0.929 1_545 S
C146 C148 1.378 . S
C146 C150 1.350 . S
C147 C150 1.463 1_564 S
C147 C152 1.350 . S
C147 N155 1.427 1_554 S
C148 H139 0.930 . S
C148 C146 1.378 . S
C148 C149 1.367 . S
C149 C148 1.367 . S
C149 C151 1.433 . S
C150 C146 1.350 . S
C150 C147 1.463 1_546 S
C150 N154 1.427 1_556 S
C151 H141 0.929 1_556 S
C151 C149 1.433 . S
C151 N154 1.384 1_556 S
C152 H143 0.929 . S
C152 C144 1.378 . S
C152 C147 1.350 . S
C153 H140 0.929 1_554 S
C153 C145 1.433 . S
C153 N155 1.384 1_554 S
N154 C150 1.427 1_554 S
N154 C151 1.384 1_554 S
N155 C147 1.427 1_556 S
N155 C153 1.384 1_556 S
H156 C162 0.930 . S
H157 C166 0.930 . S
H158 C171 0.929 . S
H159 C169 0.929 . S
H160 C164 0.929 . S
H161 C170 0.929 . S
C162 H156 0.930 . S
C162 C163 1.367 . S
C162 C170 1.378 . S
C163 C162 1.367 . S
C163 C171 1.433 . S
C164 H160 0.929 . S
C164 C166 1.378 . S
C164 C168 1.350 . S
C165 C168 1.463 . S
C165 C170 1.350 . S
C165 N173 1.427 . S
C166 H157 0.930 . S
C166 C164 1.378 . S
C166 C167 1.367 . S
C167 C166 1.367 . S
C167 C169 1.433 . S
C168 C164 1.350 . S
C168 C165 1.463 . S
C168 N172 1.427 . S
C169 H159 0.929 . S
C169 C167 1.433 . S
C169 N172 1.384 . S
C170 H161 0.929 . S
C170 C162 1.378 . S
C170 C165 1.350 . S
C171 H158 0.929 . S
C171 C163 1.433 . S
C171 N173 1.384 . S
N172 C168 1.427 . S
N172 C169 1.384 . S
N173 C165 1.427 . S
N173 C171 1.384 . S
H174 C180 0.930 . S
H175 C184 0.930 . S
H176 C189 0.929 . S
H177 C187 0.929 . S
H178 C182 0.929 1_455 S
H179 C188 0.929 . S
C180 H174 0.930 . S
C180 C181 1.367 . S
C180 C188 1.378 . S
C181 C180 1.367 . S
C181 C189 1.433 . S
C182 H178 0.929 1_655 S
C182 C184 1.378 . S
C182 C186 1.350 . S
C183 C186 1.463 1_455 S
C183 C188 1.350 . S
C183 N191 1.427 . S
C184 H175 0.930 . S
C184 C182 1.378 . S
C184 C185 1.367 . S
C185 C184 1.367 . S
C185 C187 1.433 . S
C186 C182 1.350 . S
C186 C183 1.463 1_655 S
C186 N190 1.427 . S
C187 H177 0.929 . S
C187 C185 1.433 . S
C187 N190 1.384 . S
C188 H179 0.929 . S
C188 C180 1.378 . S
C188 C183 1.350 . S
C189 H176 0.929 . S
C189 C181 1.433 . S
C189 N191 1.384 . S
N190 C186 1.427 . S
N190 C187 1.384 . S
N191 C183 1.427 . S
N191 C189 1.384 . S
H192 C198 0.930 . S
H193 C202 0.930 . S
H194 C207 0.929 . S
H195 C205 0.929 . S
H196 C200 0.929 . S
H197 C206 0.929 . S
C198 H192 0.930 . S
C198 C199 1.367 . S
C198 C206 1.378 . S
C199 C198 1.367 . S
C199 C207 1.433 . S
C200 H196 0.929 . S
C200 C202 1.378 . S
C200 C204 1.350 . S
C201 C204 1.463 . S
C201 C206 1.350 . S
C201 N209 1.427 . S
C202 H193 0.930 . S
C202 C200 1.378 . S
C202 C203 1.367 . S
C203 C202 1.367 . S
C203 C205 1.433 . S
C204 C200 1.350 . S
C204 C201 1.463 . S
C204 N208 1.427 . S
C205 H195 0.929 . S
C205 C203 1.433 . S
C205 N208 1.384 . S
C206 H197 0.929 . S
C206 C198 1.378 . S
C206 C201 1.350 . S
C207 H194 0.929 . S
C207 C199 1.433 . S
C207 N209 1.384 . S
N208 C204 1.427 . S
N208 C205 1.384 . S
N209 C201 1.427 . S
N209 C207 1.384 . S
H210 C216 0.930 . S
H211 C220 0.930 . S
H212 C225 0.929 . S
H213 C223 0.929 . S
H214 C218 0.929 . S
H215 C224 0.929 . S
C216 H210 0.930 . S
C216 C217 1.367 . S
C216 C224 1.378 . S
C217 C216 1.367 . S
C217 C225 1.433 . S
C218 H214 0.929 . S
C218 C220 1.378 . S
C218 C222 1.350 . S
C219 C222 1.463 . S
C219 C224 1.350 . S
C219 N227 1.427 . S
C220 H211 0.930 . S
C220 C218 1.378 . S
C220 C221 1.367 . S
C221 C220 1.367 . S
C221 C223 1.433 . S
C222 C218 1.350 . S
C222 C219 1.463 . S
C222 N226 1.427 . S
C223 H213 0.929 . S
C223 C221 1.433 . S
C223 N226 1.384 . S
C224 H215 0.929 . S
C224 C216 1.378 . S
C224 C219 1.350 . S
C225 H212 0.929 . S
C225 C217 1.433 . S
C225 N227 1.384 . S
N226 C222 1.427 . S
N226 C223 1.384 . S
N227 C219 1.427 . S
N227 C225 1.384 . S
H228 C234 0.930 . S
H229 C238 0.930 . S
H230 C243 0.929 . S
H231 C241 0.929 . S
H232 C236 0.929 . S
H233 C242 0.929 . S
C234 H228 0.930 . S
C234 C235 1.367 . S
C234 C242 1.378 . S
C235 C234 1.367 . S
C235 C243 1.433 . S
C236 H232 0.929 . S
C236 C238 1.378 . S
C236 C240 1.350 . S
C237 C240 1.463 . S
C237 C242 1.350 . S
C237 N245 1.427 . S
C238 H229 0.930 . S
C238 C236 1.378 . S
C238 C239 1.367 . S
C239 C238 1.367 . S
C239 C241 1.433 . S
C240 C236 1.350 . S
C240 C237 1.463 . S
C240 N244 1.427 . S
C241 H231 0.929 . S
C241 C239 1.433 . S
C241 N244 1.384 . S
C242 H233 0.929 . S
C242 C234 1.378 . S
C242 C237 1.350 . S
C243 H230 0.929 . S
C243 C235 1.433 . S
C243 N245 1.384 . S
N244 C240 1.427 . S
N244 C241 1.384 . S
N245 C237 1.427 . S
N245 C243 1.384 . S
H246 C252 0.930 . S
H247 C256 0.930 . S
H248 C261 0.929 . S
H249 C259 0.929 . S
H250 C254 0.929 . S
H251 C260 0.929 . S
C252 H246 0.930 . S
C252 C253 1.367 . S
C252 C260 1.378 . S
C253 C252 1.367 . S
C253 C261 1.433 . S
C254 H250 0.929 . S
C254 C256 1.378 . S
C254 C258 1.350 . S
C255 C258 1.463 . S
C255 C260 1.350 . S
C255 N263 1.427 . S
C256 H247 0.930 . S
C256 C254 1.378 . S
C256 C257 1.367 . S
C257 C256 1.367 . S
C257 C259 1.433 . S
C258 C254 1.350 . S
C258 C255 1.463 . S
C258 N262 1.427 . S
C259 H249 0.929 . S
C259 C257 1.433 . S
C259 N262 1.384 . S
C260 H251 0.929 . S
C260 C252 1.378 . S
C260 C255 1.350 . S
C261 H248 0.929 . S
C261 C253 1.433 . S
C261 N263 1.384 . S
N262 C258 1.427 . S
N262 C259 1.384 . S
N263 C255 1.427 . S
N263 C261 1.384 . S
H264 C270 0.930 1_556 S
H265 C274 0.930 . S
H266 C279 0.929 . S
H267 C277 0.929 . S
H268 C272 0.929 . S
H269 C278 0.929 . S
C270 H264 0.930 1_554 S
C270 C271 1.367 . S
C270 C278 1.378 . S
C271 C270 1.367 . S
C271 C279 1.433 . S
C272 H268 0.929 . S
C272 C274 1.378 . S
C272 C276 1.350 . S
C273 C276 1.463 . S
C273 C278 1.350 . S
C273 N281 1.427 . S
C274 H265 0.930 . S
C274 C272 1.378 . S
C274 C275 1.367 . S
C275 C274 1.367 . S
C275 C277 1.433 . S
C276 C272 1.350 . S
C276 C273 1.463 . S
C276 N280 1.427 . S
C277 H267 0.929 . S
C277 C275 1.433 . S
C277 N280 1.384 . S
C278 H269 0.929 . S
C278 C270 1.378 . S
C278 C273 1.350 . S
C279 H266 0.929 . S
C279 C271 1.433 . S
C279 N281 1.384 . S
N280 C276 1.427 . S
N280 C277 1.384 . S
N281 C273 1.427 . S
N281 C279 1.384 . S
H282 C288 0.930 . S
H283 C292 0.930 . S
H284 C297 0.929 . S
H285 C295 0.929 . S
H286 C290 0.929 . S
H287 C296 0.929 . S
C288 H282 0.930 . S
C288 C289 1.367 . S
C288 C296 1.378 . S
C289 C288 1.367 . S
C289 C297 1.433 . S
C290 H286 0.929 . S
C290 C292 1.378 . S
C290 C294 1.350 . S
C291 C294 1.463 . S
C291 C296 1.350 . S
C291 N299 1.427 . S
C292 H283 0.930 . S
C292 C290 1.378 . S
C292 C293 1.367 . S
C293 C292 1.367 . S
C293 C295 1.433 . S
C294 C290 1.350 . S
C294 C291 1.463 . S
C294 N298 1.427 . S
C295 H285 0.929 . S
C295 C293 1.433 . S
C295 N298 1.384 . S
C296 H287 0.929 . S
C296 C288 1.378 . S
C296 C291 1.350 . S
C297 H284 0.929 . S
C297 C289 1.433 . S
C297 N299 1.384 . S
N298 C294 1.427 . S
N298 C295 1.384 . S
N299 C291 1.427 . S
N299 C297 1.384 . S
C91 C5 1.608 . S
C95 C81 1.599 . S
C109 C11 1.599 . S
C113 C19 1.608 . S
C127 C33 1.608 . S
C131 C25 1.602 . S
C145 C47 1.609 . S
C149 C39 1.604 . S
C163 C61 1.609 . S
C167 C53 1.604 . S
C181 C75 1.609 . S
C185 C67 1.603 . S
C199 C0 1.446 . S
C203 C65 1.461 . S
C217 C79 1.460 . S
C221 C14 1.448 . S
C235 C28 1.453 . S
C239 C9 1.458 . S
C253 C23 1.459 . S
C257 C42 1.445 1_556 S
C271 C37 1.460 1_554 S
C275 C56 1.447 . S
C289 C70 1.446 . S
C293 C51 1.459 . S
