# Generated by pormake.
# Topology fna, (5)-cn, num edge types: 1
# Building blocks:
#     Node 0, Type 0, BuildingBlock: XOMCOT_clean_sbu_0, # of connection points: 5
#     Node 1, Type 0, BuildingBlock: XOMCOT_clean_sbu_0, # of connection points: 5
#     Node 2, Type 0, BuildingBlock: XOMCOT_clean_sbu_0, # of connection points: 5
#     Node 3, Type 0, BuildingBlock: XOMCOT_clean_sbu_0, # of connection points: 5
#     Node 4, Type 0, BuildingBlock: XOMCOT_clean_sbu_0, # of connection points: 5
#     Node 5, Type 0, BuildingBlock: XOMCOT_clean_sbu_0, # of connection points: 5
#     Node 6, Type 0, BuildingBlock: XOMCOT_clean_sbu_0, # of connection points: 5
#     Node 7, Type 0, BuildingBlock: XOMCOT_clean_sbu_0, # of connection points: 5
#     Node 8, Type 0, BuildingBlock: XOMCOT_clean_sbu_0, # of connection points: 5
#     Node 9, Type 0, BuildingBlock: XOMCOT_clean_sbu_0, # of connection points: 5
#     Node 10, Type 0, BuildingBlock: XOMCOT_clean_sbu_0, # of connection points: 5
#     Node 11, Type 0, BuildingBlock: XOMCOT_clean_sbu_0, # of connection points: 5
#     Edge 12, Type (0, 0), BuildingBlock: MIFKUJ_clean_linker_0, # of connection points: 2
#     Edge 13, Type (0, 0), BuildingBlock: MIFKUJ_clean_linker_0, # of connection points: 2
#     Edge 14, Type (0, 0), BuildingBlock: MIFKUJ_clean_linker_0, # of connection points: 2
#     Edge 15, Type (0, 0), BuildingBlock: MIFKUJ_clean_linker_0, # of connection points: 2
#     Edge 16, Type (0, 0), BuildingBlock: MIFKUJ_clean_linker_0, # of connection points: 2
#     Edge 17, Type (0, 0), BuildingBlock: MIFKUJ_clean_linker_0, # of connection points: 2
#     Edge 18, Type (0, 0), BuildingBlock: MIFKUJ_clean_linker_0, # of connection points: 2
#     Edge 19, Type (0, 0), BuildingBlock: MIFKUJ_clean_linker_0, # of connection points: 2
#     Edge 20, Type (0, 0), BuildingBlock: MIFKUJ_clean_linker_0, # of connection points: 2
#     Edge 21, Type (0, 0), BuildingBlock: MIFKUJ_clean_linker_0, # of connection points: 2
#     Edge 22, Type (0, 0), BuildingBlock: MIFKUJ_clean_linker_0, # of connection points: 2
#     Edge 23, Type (0, 0), BuildingBlock: MIFKUJ_clean_linker_0, # of connection points: 2
#     Edge 24, Type (0, 0), BuildingBlock: MIFKUJ_clean_linker_0, # of connection points: 2
#     Edge 25, Type (0, 0), BuildingBlock: MIFKUJ_clean_linker_0, # of connection points: 2
#     Edge 26, Type (0, 0), BuildingBlock: MIFKUJ_clean_linker_0, # of connection points: 2
#     Edge 27, Type (0, 0), BuildingBlock: MIFKUJ_clean_linker_0, # of connection points: 2
#     Edge 28, Type (0, 0), BuildingBlock: MIFKUJ_clean_linker_0, # of connection points: 2
#     Edge 29, Type (0, 0), BuildingBlock: MIFKUJ_clean_linker_0, # of connection points: 2
#     Edge 30, Type (0, 0), BuildingBlock: MIFKUJ_clean_linker_0, # of connection points: 2
#     Edge 31, Type (0, 0), BuildingBlock: MIFKUJ_clean_linker_0, # of connection points: 2
#     Edge 32, Type (0, 0), BuildingBlock: MIFKUJ_clean_linker_0, # of connection points: 2
#     Edge 33, Type (0, 0), BuildingBlock: MIFKUJ_clean_linker_0, # of connection points: 2
#     Edge 34, Type (0, 0), BuildingBlock: MIFKUJ_clean_linker_0, # of connection points: 2
#     Edge 35, Type (0, 0), BuildingBlock: MIFKUJ_clean_linker_0, # of connection points: 2
#     Edge 36, Type (0, 0), BuildingBlock: MIFKUJ_clean_linker_0, # of connection points: 2
#     Edge 37, Type (0, 0), BuildingBlock: MIFKUJ_clean_linker_0, # of connection points: 2
#     Edge 38, Type (0, 0), BuildingBlock: MIFKUJ_clean_linker_0, # of connection points: 2
#     Edge 39, Type (0, 0), BuildingBlock: MIFKUJ_clean_linker_0, # of connection points: 2
#     Edge 40, Type (0, 0), BuildingBlock: MIFKUJ_clean_linker_0, # of connection points: 2
#     Edge 41, Type (0, 0), BuildingBlock: MIFKUJ_clean_linker_0, # of connection points: 2
# Relax obj value: 0.321
# Max RMSD: 0.210
# Mean RMSD: 0.210
data_MOF--net-fna--node1-XOMCOT_clean_sbu_0--edge1-MIFKUJ_clean_linker_0
_symmetry_space_group_name_H-M    P1
_symmetry_Int_Tables_number       1
_symmetry_cell_setting            triclinic
loop_
_symmetry_equiv_pos_as_xyz
'x, y, z'
_cell_length_a     57.786229
_cell_length_b     57.791934
_cell_length_c     57.587048
_cell_angle_alpha  89.987638
_cell_angle_beta   90.018345
_cell_angle_gamma 119.96005
loop_
_atom_site_label
_atom_site_type_symbol
_atom_site_fract_x
_atom_site_fract_y
_atom_site_fract_z
_atom_type_partial_charge
Co0 Co 0.33379 0.28864 0.48561 0.0
C1 C 0.32302 0.25254 0.44542 0.0
C2 C 0.28718 0.24974 0.45874 0.0
C3 C 0.28033 0.22945 0.44297 0.0
N4 N 0.31405 0.26472 0.46004 0.0
N5 N 0.30292 0.2311 0.43472 0.0
H6 H 0.34352 0.25705 0.44465 0.0
H7 H 0.27333 0.25165 0.47008 0.0
C8 C 0.29169 0.30442 0.47641 0.0
O9 O 0.29458 0.30387 0.45382 0.0
N10 N 0.35316 0.31126 0.51135 0.0
C11 C 0.3799 0.3252 0.51393 0.0
C12 C 0.38564 0.33559 0.53605 0.0
C13 C 0.34294 0.31327 0.53173 0.0
N14 N 0.36238 0.32803 0.54713 0.0
C15 C 0.37273 0.31761 0.45021 0.0
C16 C 0.37628 0.36625 0.45924 0.0
C17 C 0.39568 0.3657 0.44499 0.0
C18 C 0.39303 0.34074 0.43982 0.0
C19 C 0.35612 0.34262 0.46905 0.0
N20 N 0.35477 0.31867 0.46491 0.0
H21 H 0.37297 0.29929 0.44783 0.0
H22 H 0.34323 0.34415 0.48176 0.0
H23 H 0.39415 0.32682 0.50094 0.0
H24 H 0.32179 0.3029 0.53563 0.0
O25 O 0.35685 0.27321 0.48732 0.0
O26 O 0.31841 0.2584 0.50604 0.0
O27 O 0.30563 0.29912 0.49029 0.0
C28 C 0.33937 0.25626 0.50192 0.0
H29 H 0.26025 0.21367 0.43909 0.0
H30 H 0.40534 0.34724 0.54359 0.0
H31 H 0.37771 0.38497 0.46428 0.0
H32 H 0.40733 0.33916 0.42877 0.0
Co33 Co 0.04465 0.32919 0.6507 0.0
C34 C 0.07269 0.32252 0.61038 0.0
C35 C 0.03956 0.28518 0.62107 0.0
C36 C 0.05367 0.28029 0.6044 0.0
N37 N 0.05099 0.31178 0.62444 0.0
N38 N 0.07467 0.30379 0.59787 0.0
H39 H 0.08797 0.34331 0.61054 0.0
H40 H 0.02351 0.2701 0.63141 0.0
C41 C 0.98747 0.28618 0.63902 0.0
O42 O 0.99154 0.2898 0.61654 0.0
N43 N 0.03913 0.34626 0.67722 0.0
C44 C 0.04644 0.37224 0.67965 0.0
C45 C 0.04123 0.37643 0.70212 0.0
C46 C 0.03008 0.33512 0.69823 0.0
N47 N 0.03114 0.35311 0.71372 0.0
C48 C 0.05718 0.37182 0.6187 0.0
C49 C 0.00878 0.37038 0.62176 0.0
C50 C 0.03019 0.3924 0.61084 0.0
C51 C 0.05444 0.39246 0.60887 0.0
C52 C 0.01251 0.35042 0.63176 0.0
N53 N 0.03658 0.35133 0.63037 0.0
H54 H 0.07668 0.37375 0.61861 0.0
H55 H 0.99654 0.33556 0.64221 0.0
H56 H 0.05577 0.3873 0.66634 0.0
H57 H 0.0235 0.31444 0.70222 0.0
O58 O 0.08287 0.35252 0.6544 0.0
O59 O 0.05871 0.31284 0.67095 0.0
O60 O 0.00606 0.30023 0.65341 0.0
C61 C 0.0818 0.33431 0.66842 0.0
H62 H 0.05013 0.26083 0.59906 0.0
H63 H 0.04567 0.39537 0.70965 0.0
H64 H 0.98952 0.36907 0.6236 0.0
H65 H 0.07188 0.40917 0.60122 0.0
Co66 Co 0.7203 0.04405 0.81811 0.0
C67 C 0.75407 0.07148 0.77706 0.0
C68 C 0.75505 0.03587 0.78519 0.0
C69 C 0.77304 0.04904 0.76758 0.0
N70 N 0.74242 0.04946 0.79075 0.0
N71 N 0.77254 0.07154 0.76262 0.0
H72 H 0.75055 0.08809 0.77861 0.0
H73 H 0.75319 0.01879 0.79446 0.0
C74 C 0.70313 0.98583 0.80767 0.0
O75 O 0.70049 0.98842 0.78532 0.0
N76 N 0.69939 0.03944 0.84557 0.0
C77 C 0.68241 0.04862 0.84923 0.0
C78 C 0.67323 0.04271 0.87169 0.0
C79 C 0.7007 0.02849 0.8658 0.0
N80 N 0.68486 0.03016 0.88222 0.0
C81 C 0.68874 0.05338 0.78466 0.0
C82 C 0.641 0.00798 0.79538 0.0
C83 C 0.64058 0.02732 0.78104 0.0
C84 C 0.66492 0.04986 0.77507 0.0
C85 C 0.66523 0.01206 0.8043 0.0
N86 N 0.68874 0.03478 0.79929 0.0
H87 H 0.7068 0.072 0.78163 0.0
H88 H 0.66462 0.99793 0.81688 0.0
H89 H 0.67741 0.05926 0.83657 0.0
H90 H 0.71384 0.02046 0.86853 0.0
O91 O 0.73499 0.08235 0.8211 0.0
O92 O 0.75189 0.05895 0.83686 0.0
O93 O 0.71087 0.00562 0.82144 0.0
C94 C 0.75302 0.08184 0.83439 0.0
H95 H 0.78695 0.0436 0.76032 0.0
H96 H 0.65932 0.04772 0.87956 0.0
H97 H 0.62259 0.99036 0.80052 0.0
H98 H 0.66537 0.06551 0.76439 0.0
Co99 Co 0.67526 0.71635 0.98622 0.0
C100 C 0.68325 0.7512 0.94575 0.0
C101 C 0.71979 0.7529 0.95544 0.0
C102 C 0.72524 0.7717 0.9384 0.0
N103 N 0.69325 0.73938 0.95965 0.0
N104 N 0.70224 0.77074 0.9325 0.0
H105 H 0.66289 0.74716 0.9465 0.0
H106 H 0.73466 0.75111 0.96538 0.0
C107 C 0.71698 0.70001 0.97621 0.0
O108 O 0.7126 0.69861 0.95373 0.0
N109 N 0.65727 0.6944 0.01291 0.0
C110 C 0.63123 0.67552 0.0145 0.0
C111 C 0.62571 0.66662 0.03706 0.0
C112 C 0.66706 0.6973 0.03461 0.0
N113 N 0.6482 0.68047 0.04957 0.0
C114 C 0.63502 0.68601 0.9519 0.0
C115 C 0.63358 0.63823 0.96051 0.0
C116 C 0.61371 0.63812 0.94655 0.0
C117 C 0.61508 0.66251 0.9416 0.0
C118 C 0.65332 0.66213 0.9702 0.0
N119 N 0.65364 0.68565 0.96627 0.0
H120 H 0.63407 0.704 0.94973 0.0
H121 H 0.66668 0.66106 0.98266 0.0
H122 H 0.61691 0.66938 0.00047 0.0
H123 H 0.68722 0.71205 0.03954 0.0
O124 O 0.65203 0.73159 0.98905 0.0
O125 O 0.69177 0.74727 0.0057 0.0
O126 O 0.70393 0.70647 0.99009 0.0
C127 C 0.6705 0.74912 0.00271 0.0
H128 H 0.74488 0.78648 0.93232 0.0
H129 H 0.60639 0.65224 0.04406 0.0
H130 H 0.63307 0.61975 0.9649 0.0
H131 H 0.59975 0.66315 0.93125 0.0
Co132 Co 0.96749 0.67881 0.14906 0.0
C133 C 0.93569 0.68261 0.1103 0.0
C134 C 0.97447 0.71748 0.11166 0.0
C135 C 0.95982 0.72101 0.09457 0.0
N136 N 0.95954 0.69313 0.12135 0.0
N137 N 0.93538 0.69912 0.09384 0.0
H138 H 0.91848 0.66361 0.11468 0.0
H139 H 0.99396 0.73264 0.11741 0.0
C140 C 0.02622 0.71977 0.13804 0.0
O141 O 0.02621 0.7101 0.11739 0.0
N142 N 0.97473 0.66475 0.17674 0.0
C143 C 0.96504 0.6388 0.18189 0.0
C144 C 0.97406 0.63712 0.20356 0.0
C145 C 0.98913 0.67853 0.19536 0.0
N146 N 0.98918 0.6621 0.21199 0.0
C147 C 0.95842 0.63824 0.1156 0.0
C148 C 1.00309 0.63487 0.12728 0.0
C149 C 0.98381 0.61535 0.11273 0.0
C150 C 0.96168 0.61769 0.10625 0.0
C151 C 0.99926 0.65525 0.13596 0.0
N152 N 0.97685 0.65648 0.13053 0.0
H153 H 0.94014 0.63829 0.11207 0.0
H154 H 0.01336 0.66881 0.14856 0.0
H155 H 0.95203 0.62228 0.17076 0.0
H156 H 0.99906 0.70006 0.19678 0.0
O157 O 0.92964 0.65411 0.15402 0.0
O158 O 0.95268 0.69536 0.16791 0.0
O159 O 1.00517 0.70948 0.15049 0.0
C160 C 0.93023 0.67294 0.16696 0.0
H161 H 0.9661 0.73902 0.08454 0.0
H162 H 0.96904 0.61886 0.21276 0.0
H163 H 0.02043 0.63372 0.13273 0.0
H164 H 0.94613 0.60274 0.09535 0.0
Co165 Co 0.29312 0.96062 0.31606 0.0
C166 C 0.25276 0.93531 0.27844 0.0
C167 C 0.28817 0.96941 0.26571 0.0
C168 C 0.27126 0.95696 0.24723 0.0
N169 N 0.27673 0.95569 0.28538 0.0
N170 N 0.24904 0.9355 0.25532 0.0
H171 H 0.23874 0.91963 0.28969 0.0
H172 H 0.30815 0.9862 0.26437 0.0
C173 C 0.31201 0.02054 0.30925 0.0
O174 O 0.32774 0.02393 0.29159 0.0
N175 N 0.30872 0.96497 0.3465 0.0
C176 C 0.32576 0.95681 0.35351 0.0
C177 C 0.32938 0.96063 0.37711 0.0
C178 C 0.30161 0.97291 0.36588 0.0
N179 N 0.31402 0.97052 0.38477 0.0
C180 C 0.32988 0.95551 0.28648 0.0
C181 C 0.37585 0.99892 0.30349 0.0
C182 C 0.37812 0.98191 0.28745 0.0
C183 C 0.35473 0.96028 0.27858 0.0
C184 C 0.35055 0.99371 0.31061 0.0
N185 N 0.32794 0.97215 0.30218 0.0
H186 H 0.31205 0.93784 0.28056 0.0
H187 H 0.34917 0.00622 0.32386 0.0
H188 H 0.33425 0.9479 0.34238 0.0
H189 H 0.28712 0.97958 0.36623 0.0
O190 O 0.28061 0.92267 0.31859 0.0
O191 O 0.25857 0.94291 0.3303 0.0
O192 O 0.29834 0.99771 0.31885 0.0
C193 C 0.26006 0.92121 0.32939 0.0
H194 H 0.2754 0.96275 0.22917 0.0
H195 H 0.34139 0.95541 0.38797 0.0
H196 H 0.39347 0.01573 0.31087 0.0
H197 H 0.35565 0.94638 0.26652 0.0
Co198 Co 0.71497 0.67211 0.35268 0.0
C199 C 0.75589 0.67973 0.38797 0.0
C200 C 0.7454 0.71026 0.39107 0.0
C201 C 0.76472 0.71487 0.40735 0.0
N202 N 0.73955 0.68801 0.37892 0.0
N203 N 0.77137 0.69569 0.40534 0.0
H204 H 0.75644 0.66225 0.38212 0.0
H205 H 0.73709 0.72302 0.38819 0.0
C206 C 0.69723 0.71379 0.36148 0.0
O207 O 0.68548 0.70366 0.38142 0.0
N208 N 0.69138 0.65629 0.32648 0.0
C209 C 0.67473 0.63002 0.32293 0.0
C210 C 0.66353 0.62664 0.30127 0.0
C211 C 0.69043 0.66855 0.3069 0.0
N212 N 0.67351 0.65085 0.29115 0.0
C213 C 0.6868 0.63585 0.38983 0.0
C214 C 0.63721 0.62918 0.37891 0.0
C215 C 0.63863 0.61157 0.39486 0.0
C216 C 0.66402 0.61581 0.4009 0.0
C217 C 0.66045 0.64907 0.36842 0.0
N218 N 0.68484 0.65185 0.37346 0.0
H219 H 0.7058 0.63727 0.39332 0.0
H220 H 0.65852 0.66089 0.35482 0.0
H221 H 0.67142 0.6144 0.33511 0.0
H222 H 0.70285 0.68978 0.30389 0.0
O223 O 0.72652 0.64605 0.34826 0.0
O224 O 0.74457 0.68612 0.33171 0.0
O225 O 0.70915 0.7037 0.35028 0.0
C226 C 0.74374 0.66334 0.33367 0.0
H227 H 0.7738 0.7316 0.41923 0.0
H228 H 0.64941 0.60772 0.29349 0.0
H229 H 0.61817 0.62654 0.37324 0.0
H230 H 0.66625 0.603 0.41334 0.0
Co231 Co 0.04844 0.71605 0.51823 0.0
C232 C 0.07381 0.75135 0.55893 0.0
C233 C 0.03964 0.75303 0.54695 0.0
C234 C 0.05261 0.77271 0.56329 0.0
N235 N 0.0525 0.73908 0.54447 0.0
N236 N 0.07435 0.77191 0.57065 0.0
H237 H 0.09014 0.74732 0.55907 0.0
H238 H 0.0234 0.75087 0.53616 0.0
C239 C 0.98996 0.69898 0.52745 0.0
O240 O 0.99274 0.69855 0.55007 0.0
N241 N 0.04511 0.69432 0.49176 0.0
C242 C 0.0565 0.67912 0.48878 0.0
C243 C 0.05342 0.67117 0.46592 0.0
C244 C 0.03542 0.69557 0.47086 0.0
N245 N 0.04033 0.68172 0.45463 0.0
C246 C 0.06021 0.68671 0.55167 0.0
C247 C 0.01404 0.63825 0.54495 0.0
C248 C 0.035 0.63887 0.55766 0.0
C249 C 0.05804 0.66358 0.56146 0.0
C250 C 0.0172 0.66179 0.53509 0.0
N251 N 0.0402 0.68568 0.53829 0.0
H252 H 0.07895 0.70503 0.55331 0.0
H253 H 1.00201 0.66017 0.52324 0.0
H254 H 0.06757 0.67536 0.50194 0.0
H255 H 0.02604 0.70742 0.46752 0.0
O256 O 0.0869 0.73185 0.51607 0.0
O257 O 0.06287 0.7469 0.49841 0.0
O258 O 0.00969 0.70523 0.5139 0.0
C259 C 0.08607 0.749 0.50191 0.0
H260 H 0.04723 0.78747 0.56824 0.0
H261 H 0.06168 0.65992 0.45798 0.0
H262 H 0.99617 0.61945 0.54117 0.0
H263 H 0.07478 0.66483 0.57103 0.0
Co264 Co 0.3314 0.04043 0.68921 0.0
C265 C 0.32323 0.07373 0.7242 0.0
C266 C 0.30891 0.03403 0.73682 0.0
C267 C 0.30498 0.04856 0.75377 0.0
N268 N 0.32031 0.04976 0.71814 0.0
N269 N 0.314 0.07358 0.74581 0.0
H270 H 0.33256 0.09128 0.71334 0.0
H271 H 0.3041 0.01356 0.7384 0.0
C272 C 0.29073 0.98089 0.69911 0.0
O273 O 0.30474 0.97773 0.71546 0.0
N274 N 0.34226 0.03171 0.66034 0.0
C275 C 0.36748 0.03989 0.65362 0.0
C276 C 0.36702 0.03193 0.6311 0.0
C277 C 0.32684 0.01945 0.64172 0.0
N278 N 0.34146 0.01926 0.62344 0.0
C279 C 0.37162 0.04781 0.72215 0.0
C280 C 0.37743 0.00543 0.70742 0.0
C281 C 0.396 0.02377 0.72317 0.0
C282 C 0.39245 0.04472 0.7311 0.0
C283 C 0.35672 0.00902 0.69915 0.0
N284 N 0.35423 0.03028 0.70617 0.0
H285 H 0.37043 0.06523 0.72704 0.0
H286 H 0.3436 0.9955 0.68599 0.0
H287 H 0.38503 0.05138 0.66422 0.0
H288 H 0.30559 0.01216 0.64135 0.0
O289 O 0.35735 0.07766 0.68323 0.0
O290 O 0.31504 0.05662 0.67168 0.0
O291 O 0.29887 1.00352 0.68938 0.0
C292 C 0.33837 0.07812 0.67127 0.0
H293 H 0.29602 0.04112 0.7706 0.0
H294 H 0.38446 0.03593 0.62111 0.0
H295 H 0.37944 0.98894 0.7009 0.0
H296 H 0.40661 0.05955 0.743 0.0
Co297 Co 0.29144 0.33537 0.85167 0.0
C298 C 0.25773 0.32756 0.89288 0.0
C299 C 0.2564 0.29114 0.88346 0.0
C300 C 0.23766 0.28567 0.90055 0.0
N301 N 0.26956 0.31762 0.87892 0.0
N302 N 0.23833 0.30858 0.90624 0.0
H303 H 0.26167 0.34789 0.89208 0.0
H304 H 0.25814 0.2762 0.87361 0.0
C305 C 0.30709 0.2928 0.85844 0.0
O306 O 0.31239 0.29896 0.88051 0.0
N307 N 0.31208 0.353 0.8244 0.0
C308 C 0.32802 0.37954 0.82165 0.0
C309 C 0.33684 0.38447 0.79905 0.0
C310 C 0.31115 0.34211 0.80351 0.0
N311 N 0.32618 0.36094 0.78768 0.0
C312 C 0.32456 0.3723 0.88696 0.0
C313 C 0.37159 0.37576 0.87179 0.0
C314 C 0.37286 0.39439 0.88803 0.0
C315 C 0.3489 0.39187 0.89629 0.0
C316 C 0.34686 0.35628 0.86316 0.0
N317 N 0.32372 0.35514 0.87026 0.0
H318 H 0.30668 0.37245 0.8919 0.0
H319 H 0.34661 0.34367 0.84922 0.0
H320 H 0.3324 0.3943 0.83503 0.0
H321 H 0.29881 0.32103 0.79975 0.0
O322 O 0.27895 0.36086 0.85155 0.0
O323 O 0.2593 0.32152 0.83363 0.0
O324 O 0.29861 0.3051 0.84572 0.0
C325 C 0.25984 0.34381 0.83817 0.0
H326 H 0.223 0.26601 0.90669 0.0
H327 H 0.34988 0.4039 0.79154 0.0
H328 H 0.38967 0.37707 0.86493 0.0
H329 H 0.34906 0.40615 0.90857 0.0
Co330 Co 0.96439 0.29161 0.02076 0.0
C331 C 0.94015 0.25806 0.06268 0.0
C332 C 0.97293 0.25462 0.04955 0.0
C333 C 0.96016 0.23542 0.06629 0.0
N334 N 0.96082 0.26936 0.04749 0.0
N335 N 0.9394 0.23745 0.07443 0.0
H336 H 0.92413 0.26255 0.06327 0.0
H337 H 0.98832 0.25584 0.03813 0.0
C338 C 0.02236 0.3079 0.02951 0.0
O339 O 0.01957 0.30889 0.05206 0.0
N340 N 0.96723 0.31252 0.99377 0.0
C341 C 0.9572 0.32892 0.99098 0.0
C342 C 0.96167 0.33799 0.96843 0.0
C343 C 0.9773 0.31147 0.973 0.0
N344 N 0.97421 0.3269 0.95707 0.0
C345 C 0.95614 0.32311 0.05499 0.0
C346 C 1.00123 0.37077 0.0435 0.0
C347 C 0.98219 0.37129 0.05816 0.0
C348 C 0.95987 0.347 0.06457 0.0
C349 C 0.99696 0.3465 0.03458 0.0
N350 N 0.97436 0.32302 0.03996 0.0
H351 H 0.93755 0.3051 0.05825 0.0
H352 H 0.01073 0.34707 0.02164 0.0
H353 H 0.94692 0.33355 0.00427 0.0
H354 H 0.98569 0.29877 0.96951 0.0
O355 O 0.92595 0.27654 0.0196 0.0
O356 O 0.94878 0.26008 0.00192 0.0
O357 O 1.00274 0.30147 0.0158 0.0
C358 C 0.92594 0.25858 0.00589 0.0
H359 H 0.96474 0.22 0.07096 0.0
H360 H 0.95583 0.35152 0.96105 0.0
H361 H 0.01865 0.38915 0.03799 0.0
H362 H 0.94443 0.34664 0.0755 0.0
Co363 Co 0.68327 0.96537 0.19027 0.0
C364 C 0.69072 0.94021 0.23221 0.0
C365 C 0.72673 0.97588 0.22302 0.0
C366 C 0.7326 0.96265 0.23985 0.0
N367 N 0.70032 0.96201 0.2183 0.0
N368 N 0.70993 0.94013 0.24551 0.0
H369 H 0.67082 0.92316 0.23081 0.0
H370 H 0.74141 0.9929 0.21334 0.0
C371 C 0.723 0.02449 0.19807 0.0
O372 O 0.7148 0.02393 0.21944 0.0
N373 N 0.66662 0.96783 0.16207 0.0
C374 C 0.64032 0.95806 0.15836 0.0
C375 C 0.63654 0.96158 0.13532 0.0
C376 C 0.67844 0.97654 0.14125 0.0
N377 N 0.6605 0.97302 0.12466 0.0
C378 C 0.64346 0.95825 0.22404 0.0
C379 C 0.63922 1.00178 0.21006 0.0
C380 C 0.62076 0.98389 0.22613 0.0
C381 C 0.6235 0.9623 0.2336 0.0
C382 C 0.65904 0.99719 0.20115 0.0
N383 N 0.66085 0.97546 0.20791 0.0
H384 H 0.6437 0.94031 0.22853 0.0
H385 H 0.67173 0.01014 0.18751 0.0
H386 H 0.6249 0.94842 0.17138 0.0
H387 H 0.69962 0.98478 0.13825 0.0
O388 O 0.66001 0.92686 0.18896 0.0
O389 O 0.70027 0.94978 0.17304 0.0
O390 O 0.71232 1.00349 0.18553 0.0
C391 C 0.6788 0.9269 0.17635 0.0
H392 H 0.75234 0.96821 0.2462 0.0
H393 H 0.61759 0.95529 0.12684 0.0
H394 H 0.63774 0.01865 0.20375 0.0
H395 H 0.6093 0.9477 0.24563 0.0
H396 H 0.30115 0.08536 0.64898 0.0
H397 H 0.30856 0.11757 0.61852 0.0
H398 H 0.39375 0.1534 0.62741 0.0
H399 H 0.38644 0.12099 0.65825 0.0
H400 H 0.37672 0.19091 0.62033 0.0
H401 H 0.36643 0.11216 0.58376 0.0
H402 H 0.34564 0.06414 0.57531 0.0
H403 H 0.27412 0.06254 0.55251 0.0
H404 H 0.29436 0.11058 0.56113 0.0
H405 H 0.38709 0.25989 0.51301 0.0
H406 H 0.39411 0.23124 0.54032 0.0
H407 H 0.30882 0.18139 0.54814 0.0
H408 H 0.30176 0.20996 0.52126 0.0
H409 H 0.33526 0.15247 0.54407 0.0
H410 H 0.34165 0.22767 0.58694 0.0
H411 H 0.36038 0.27528 0.59652 0.0
H412 H 0.43746 0.2831 0.60768 0.0
H413 H 0.41917 0.2355 0.59793 0.0
C414 C 0.32149 0.10031 0.64474 0.0
C415 C 0.34323 0.10054 0.65589 0.0
C416 C 0.32569 0.11861 0.62722 0.0
C417 C 0.35169 0.13744 0.62036 0.0
C418 C 0.37352 0.13883 0.63235 0.0
C419 C 0.36932 0.12042 0.65 0.0
C420 C 0.35562 0.15489 0.60014 0.0
C421 C 0.36824 0.1826 0.60348 0.0
C422 C 0.34424 0.14396 0.57825 0.0
C423 C 0.33188 0.11497 0.57326 0.0
C424 C 0.34618 0.10153 0.57715 0.0
C425 C 0.33449 0.07428 0.57229 0.0
C426 C 0.30853 0.06025 0.56344 0.0
C427 C 0.29422 0.07344 0.55939 0.0
C428 C 0.3058 0.10069 0.56423 0.0
C429 C 0.3699 0.24249 0.52023 0.0
C430 C 0.34388 0.23708 0.51512 0.0
C431 C 0.37393 0.22631 0.53591 0.0
C432 C 0.35197 0.20439 0.54636 0.0
C433 C 0.32601 0.19824 0.54027 0.0
C434 C 0.32201 0.21457 0.52495 0.0
C435 C 0.35555 0.18832 0.5645 0.0
C436 C 0.34434 0.16084 0.56074 0.0
C437 C 0.36803 0.19945 0.586 0.0
C438 C 0.37915 0.22815 0.59138 0.0
C439 C 0.36266 0.23962 0.59116 0.0
C440 C 0.37318 0.26659 0.59669 0.0
C441 C 0.40013 0.28225 0.60263 0.0
C442 C 0.41661 0.27096 0.60303 0.0
C443 C 0.40618 0.24399 0.59751 0.0
H444 H 0.40824 0.30308 0.60704 0.0
H445 H 0.29949 0.03918 0.55964 0.0
H446 H 0.08069 0.30464 0.70524 0.0
H447 H 0.11606 0.31534 0.73339 0.0
H448 H 0.16978 0.38501 0.69373 0.0
H449 H 0.13399 0.37474 0.6654 0.0
H450 H 0.18982 0.34774 0.71436 0.0
H451 H 0.15235 0.40225 0.73277 0.0
H452 H 0.11487 0.41082 0.73705 0.0
H453 H 0.08342 0.35443 0.79312 0.0
H454 H 0.12013 0.34468 0.78854 0.0
H455 H 0.2732 0.39046 0.81658 0.0
H456 H 0.24612 0.39758 0.78763 0.0
H457 H 0.17942 0.31952 0.80261 0.0
H458 H 0.2068 0.31182 0.8307 0.0
H459 H 0.1722 0.37184 0.79263 0.0
H460 H 0.20229 0.30982 0.76478 0.0
H461 H 0.23785 0.29862 0.75888 0.0
H462 H 0.28361 0.37108 0.72018 0.0
H463 H 0.24861 0.38304 0.72645 0.0
C464 C 0.10011 0.32202 0.7022 0.0
C465 C 0.10456 0.33896 0.68318 0.0
C466 C 0.12026 0.32811 0.71836 0.0
C467 C 0.14531 0.35104 0.71566 0.0
C468 C 0.15045 0.36725 0.69602 0.0
C469 C 0.13005 0.36138 0.67993 0.0
C470 C 0.16514 0.35846 0.73443 0.0
C471 C 0.18646 0.35376 0.7313 0.0
C472 C 0.16045 0.36602 0.75654 0.0
C473 C 0.13886 0.37249 0.7601 0.0
C474 C 0.13729 0.39144 0.74585 0.0
C475 C 0.11616 0.39649 0.74829 0.0
C476 C 0.09667 0.38302 0.7652 0.0
C477 C 0.09842 0.36469 0.77988 0.0
C478 C 0.11938 0.35936 0.77735 0.0
C479 C 0.25247 0.37525 0.81422 0.0
C480 C 0.2419 0.35064 0.82578 0.0
C481 C 0.23712 0.3793 0.79769 0.0
C482 C 0.21088 0.35906 0.79311 0.0
C483 C 0.19961 0.33538 0.8061 0.0
C484 C 0.2152 0.331 0.82206 0.0
C485 C 0.19653 0.36068 0.77257 0.0
C486 C 0.17611 0.36679 0.77549 0.0
C487 C 0.20211 0.35463 0.75021 0.0
C488 C 0.22313 0.34753 0.74643 0.0
C489 C 0.22015 0.32356 0.75536 0.0
C490 C 0.24019 0.31709 0.75198 0.0
C491 C 0.26309 0.33428 0.73941 0.0
C492 C 0.26601 0.35795 0.73016 0.0
C493 C 0.24609 0.3646 0.73363 0.0
H494 H 0.27828 0.32894 0.73647 0.0
H495 H 0.08022 0.38682 0.76685 0.0
H496 H 0.79627 0.08766 0.85784 0.0
H497 H 0.82141 0.12041 0.88787 0.0
H498 H 0.77632 0.16011 0.87468 0.0
H499 H 0.75099 0.12725 0.84424 0.0
H500 H 0.83112 0.19563 0.88426 0.0
H501 H 0.75719 0.11894 0.9186 0.0
H502 H 0.72719 0.07109 0.92637 0.0
H503 H 0.79303 0.06449 0.95306 0.0
H504 H 0.82354 0.11233 0.94527 0.0
H505 H 0.88318 0.26355 0.99274 0.0
H506 H 0.84847 0.23527 0.96459 0.0
H507 H 0.88109 0.18253 0.96137 0.0
H508 H 0.91576 0.21071 0.98911 0.0
H509 H 0.82549 0.15558 0.96181 0.0
H510 H 0.89989 0.23068 0.92383 0.0
H511 H 0.93054 0.27837 0.91588 0.0
H512 H 0.86426 0.28791 0.89564 0.0
H513 H 0.83311 0.24032 0.90396 0.0
C514 C 0.79201 0.10364 0.86098 0.0
C515 C 0.7715 0.10477 0.84885 0.0
C516 C 0.80631 0.12227 0.87823 0.0
C517 C 0.80026 0.14226 0.88385 0.0
C518 C 0.7811 0.14466 0.87069 0.0
C519 C 0.76675 0.12597 0.85327 0.0
C520 C 0.81299 0.15939 0.9044 0.0
C521 C 0.82945 0.18702 0.90135 0.0
C522 C 0.81094 0.14804 0.92662 0.0
C523 C 0.79268 0.1192 0.93122 0.0
C524 C 0.76532 0.10725 0.92596 0.0
C525 C 0.7482 0.08011 0.9304 0.0
C526 C 0.75819 0.06472 0.94015 0.0
C527 C 0.78532 0.07644 0.9455 0.0
C528 C 0.80253 0.10358 0.94113 0.0
C529 C 0.88243 0.24552 0.98645 0.0
C530 C 0.90208 0.23925 0.99299 0.0
C531 C 0.86278 0.22955 0.97028 0.0
C532 C 0.86246 0.20702 0.96076 0.0
C533 C 0.88104 0.19986 0.9685 0.0
C534 C 0.90082 0.21596 0.98432 0.0
C535 C 0.84417 0.19168 0.94157 0.0
C536 C 0.82667 0.16433 0.94487 0.0
C537 C 0.84536 0.20332 0.91963 0.0
C538 C 0.86411 0.232 0.91486 0.0
C539 C 0.89179 0.24301 0.91801 0.0
C540 C 0.90927 0.27003 0.91339 0.0
C541 C 0.89934 0.28619 0.90533 0.0
C542 C 0.87191 0.27537 0.90193 0.0
C543 C 0.85433 0.24838 0.90662 0.0
H544 H 0.91288 0.30706 0.90161 0.0
H545 H 0.74496 0.04375 0.94364 0.0
H546 H 0.7084 0.79898 0.01484 0.0
H547 H 0.70542 0.82644 0.04562 0.0
H548 H 0.62199 0.7685 0.05502 0.0
H549 H 0.62474 0.7414 0.02341 0.0
H550 H 0.63212 0.81981 0.06094 0.0
H551 H 0.6731 0.76775 0.08904 0.0
H552 H 0.70775 0.75438 0.08854 0.0
H553 H 0.76907 0.83613 0.09621 0.0
H554 H 0.73516 0.8501 0.09655 0.0
H555 H 0.63251 0.87918 0.16933 0.0
H556 H 0.62629 0.84404 0.14181 0.0
H557 H 0.71067 0.88729 0.12636 0.0
H558 H 0.71703 0.92158 0.15407 0.0
H559 H 0.69497 0.83758 0.12616 0.0
H560 H 0.66413 0.89317 0.09277 0.0
H561 H 0.6368 0.91496 0.0906 0.0
H562 H 0.56537 0.83822 0.08821 0.0
H563 H 0.5923 0.81595 0.09073 0.0
C564 C 0.68926 0.79252 0.02304 0.0
C565 C 0.6668 0.76816 0.01686 0.0
C566 C 0.68763 0.80803 0.04079 0.0
C567 C 0.66372 0.79903 0.05316 0.0
C568 C 0.64072 0.77564 0.04587 0.0
C569 C 0.64223 0.7603 0.02772 0.0
C570 C 0.66323 0.81334 0.07437 0.0
C571 C 0.64551 0.8233 0.0754 0.0
C572 C 0.68135 0.81865 0.09292 0.0
C573 C 0.70157 0.80995 0.09269 0.0
C574 C 0.69398 0.78285 0.09048 0.0
C575 C 0.71345 0.77517 0.09025 0.0
C576 C 0.74045 0.79434 0.09229 0.0
C577 C 0.74814 0.82128 0.09462 0.0
C578 C 0.72883 0.82908 0.09488 0.0
C579 C 0.64977 0.88073 0.16048 0.0
C580 C 0.6752 0.9032 0.16365 0.0
C581 C 0.64617 0.86081 0.14462 0.0
C582 C 0.66794 0.86331 0.13167 0.0
C583 C 0.69354 0.88491 0.13606 0.0
C584 C 0.69714 0.90459 0.15189 0.0
C585 C 0.66437 0.84465 0.11252 0.0
C586 C 0.68121 0.8337 0.11191 0.0
C587 C 0.64644 0.83961 0.09389 0.0
C588 C 0.63019 0.85289 0.09225 0.0
C589 C 0.64258 0.88094 0.09197 0.0
C590 C 0.62718 0.89338 0.09065 0.0
C591 C 0.59937 0.87798 0.08935 0.0
C592 C 0.58692 0.85011 0.08929 0.0
C593 C 0.60224 0.83757 0.09066 0.0
H594 H 0.58747 0.88764 0.08832 0.0
H595 H 0.75543 0.78831 0.0921 0.0
H596 H 0.93171 0.70572 0.20106 0.0
H597 H 0.89727 0.69802 0.22897 0.0
H598 H 0.8435 0.62294 0.19591 0.0
H599 H 0.87882 0.63014 0.1681 0.0
H600 H 0.85245 0.69499 0.22433 0.0
H601 H 0.79801 0.5807 0.23854 0.0
H602 H 0.80718 0.54342 0.23571 0.0
H603 H 0.89061 0.59759 0.2474 0.0
H604 H 0.88189 0.63509 0.25096 0.0
H605 H 0.73929 0.66373 0.28753 0.0
H606 H 0.76679 0.65824 0.25835 0.0
H607 H 0.80905 0.64292 0.31254 0.0
H608 H 0.78041 0.6473 0.34193 0.0
H609 H 0.80486 0.6142 0.27367 0.0
H610 H 0.83161 0.70471 0.29208 0.0
H611 H 0.82708 0.74458 0.29733 0.0
H612 H 0.80863 0.74323 0.22494 0.0
H613 H 0.81191 0.7027 0.21944 0.0
C614 C 0.91255 0.68759 0.19953 0.0
C615 C 0.90793 0.66858 0.18228 0.0
C616 C 0.89282 0.6832 0.21559 0.0
C617 C 0.86779 0.65985 0.21469 0.0
C618 C 0.86281 0.64093 0.19718 0.0
C619 C 0.88286 0.64516 0.18118 0.0
C620 C 0.84716 0.65617 0.23198 0.0
C621 C 0.84197 0.67723 0.235 0.0
C622 C 0.8338 0.63318 0.24623 0.0
C623 C 0.8393 0.61075 0.2447 0.0
C624 C 0.81829 0.58463 0.24065 0.0
C625 C 0.82341 0.56347 0.23896 0.0
C626 C 0.84947 0.56816 0.24136 0.0
C627 C 0.87045 0.59401 0.24558 0.0
C628 C 0.86542 0.61523 0.24743 0.0
C629 C 0.75413 0.65866 0.29314 0.0
C630 C 0.75813 0.65622 0.31682 0.0
C631 C 0.76979 0.65553 0.2765 0.0
C632 C 0.79038 0.65079 0.28329 0.0
C633 C 0.79332 0.64667 0.30695 0.0
C634 C 0.77712 0.64925 0.32369 0.0
C635 C 0.81035 0.65308 0.26589 0.0
C636 C 0.81529 0.63182 0.26284 0.0
C637 C 0.82425 0.67629 0.25201 0.0
C638 C 0.82166 0.7004 0.25542 0.0
C639 C 0.82616 0.71264 0.27735 0.0
C640 C 0.82377 0.73537 0.28038 0.0
C641 C 0.81735 0.74632 0.26152 0.0
C642 C 0.81333 0.73459 0.23959 0.0
C643 C 0.81536 0.71168 0.23652 0.0
H644 H 0.81562 0.76398 0.26387 0.0
H645 H 0.85341 0.55176 0.23997 0.0
H646 H 0.26528 0.87845 0.3427 0.0
H647 H 0.23878 0.84544 0.37266 0.0
H648 H 0.18665 0.87865 0.37709 0.0
H649 H 0.2127 0.91133 0.34732 0.0
H650 H 0.21063 0.87832 0.41924 0.0
H651 H 0.1658 0.8206 0.35415 0.0
H652 H 0.16102 0.7943 0.31903 0.0
H653 H 0.18825 0.74824 0.35665 0.0
H654 H 0.1936 0.77458 0.39198 0.0
H655 H 0.09322 0.79358 0.47988 0.0
H656 H 0.12819 0.82093 0.45207 0.0
H657 H 0.16576 0.77352 0.46369 0.0
H658 H 0.13076 0.74608 0.49188 0.0
H659 H 0.1567 0.77948 0.41635 0.0
H660 H 0.19757 0.83405 0.48212 0.0
H661 H 0.20032 0.85875 0.51784 0.0
H662 H 0.18066 0.91016 0.47922 0.0
H663 H 0.17726 0.88544 0.4433 0.0
C664 C 0.24767 0.87812 0.34957 0.0
C665 C 0.24114 0.89755 0.34284 0.0
C666 C 0.23268 0.85938 0.36674 0.0
C667 C 0.21103 0.85993 0.37724 0.0
C668 C 0.20347 0.87814 0.36934 0.0
C669 C 0.21832 0.89671 0.35225 0.0
C670 C 0.19748 0.84338 0.39784 0.0
C671 C 0.19873 0.85669 0.4186 0.0
C672 C 0.18296 0.81516 0.39716 0.0
C673 C 0.18058 0.79993 0.37566 0.0
C674 C 0.17129 0.80524 0.35486 0.0
C675 C 0.1683 0.79019 0.33493 0.0
C676 C 0.17445 0.7697 0.33557 0.0
C677 C 0.18356 0.76418 0.35616 0.0
C678 C 0.18656 0.77915 0.37615 0.0
C679 C 0.10921 0.7893 0.47687 0.0
C680 C 0.10937 0.76781 0.48807 0.0
C681 C 0.12917 0.80493 0.46099 0.0
C682 C 0.14955 0.79925 0.45589 0.0
C683 C 0.15019 0.77821 0.46747 0.0
C684 C 0.13036 0.76274 0.48366 0.0
C685 C 0.16905 0.81452 0.43741 0.0
C686 C 0.16905 0.80105 0.41711 0.0
C687 C 0.18482 0.84263 0.43845 0.0
C688 C 0.18694 0.85771 0.46001 0.0
C689 C 0.1936 0.85047 0.48125 0.0
C690 C 0.19532 0.86452 0.50155 0.0
C691 C 0.19059 0.88597 0.50082 0.0
C692 C 0.18427 0.89351 0.47977 0.0
C693 C 0.18246 0.8795 0.45942 0.0
H694 H 0.19181 0.89674 0.51656 0.0
H695 H 0.17207 0.75803 0.32013 0.0
H696 H 0.26814 0.17773 0.43337 0.0
H697 H 0.27256 0.1442 0.41112 0.0
H698 H 0.34739 0.20562 0.38302 0.0
H699 H 0.34293 0.2395 0.40521 0.0
H700 H 0.3138 0.16921 0.3494 0.0
H701 H 0.35013 0.16611 0.42375 0.0
H702 H 0.35069 0.16318 0.46647 0.0
H703 H 0.2782 0.08733 0.46456 0.0
H704 H 0.27709 0.08993 0.42182 0.0
H705 H 0.34609 0.07416 0.30143 0.0
H706 H 0.34709 0.11185 0.32185 0.0
H707 H 0.27812 0.05704 0.36185 0.0
H708 H 0.27743 0.01947 0.34206 0.0
H709 H 0.31296 0.09284 0.38957 0.0
H710 H 0.2754 0.09587 0.31573 0.0
H711 H 0.27391 0.09838 0.27305 0.0
H712 H 0.34681 0.17393 0.27375 0.0
H713 H 0.3489 0.1717 0.31644 0.0
C714 C 0.2854 0.18422 0.42228 0.0
C715 C 0.30516 0.21136 0.42101 0.0
C716 C 0.28804 0.16496 0.40973 0.0
C717 C 0.31044 0.17235 0.39557 0.0
C718 C 0.32999 0.19946 0.39391 0.0
C719 C 0.32748 0.21876 0.40665 0.0
C720 C 0.31318 0.15163 0.38251 0.0
C721 C 0.31407 0.15272 0.35815 0.0
C722 C 0.31298 0.12985 0.39392 0.0
C723 C 0.31346 0.12829 0.41961 0.0
C724 C 0.33421 0.14889 0.43246 0.0
C725 C 0.33465 0.14727 0.45667 0.0
C726 C 0.31447 0.1251 0.46823 0.0
C727 C 0.29378 0.10452 0.45559 0.0
C728 C 0.29327 0.10604 0.43137 0.0
C729 C 0.33099 0.07016 0.31441 0.0
C730 C 0.31166 0.04375 0.32003 0.0
C731 C 0.33155 0.09175 0.32608 0.0
C732 C 0.31256 0.08739 0.34335 0.0
C733 C 0.29307 0.06103 0.34871 0.0
C734 C 0.29264 0.03951 0.33724 0.0
C735 C 0.31309 0.11004 0.35629 0.0
C736 C 0.31285 0.10935 0.3807 0.0
C737 C 0.3137 0.13209 0.34489 0.0
C738 C 0.31246 0.13347 0.31925 0.0
C739 C 0.29122 0.11292 0.30676 0.0
C740 C 0.29025 0.11431 0.28257 0.0
C741 C 0.3103 0.13626 0.27069 0.0
C742 C 0.33132 0.15691 0.28298 0.0
C743 C 0.3324 0.15561 0.30717 0.0
H744 H 0.30951 0.1373 0.25196 0.0
H745 H 0.31488 0.12385 0.48697 0.0
H746 H 0.24204 0.28909 0.45897 0.0
H747 H 0.20582 0.29193 0.4783 0.0
H748 H 0.25858 0.3342 0.53548 0.0
H749 H 0.29408 0.32966 0.51686 0.0
H750 H 0.21595 0.30122 0.55313 0.0
H751 H 0.23442 0.36373 0.49208 0.0
H752 H 0.2417 0.38069 0.45189 0.0
H753 H 0.16195 0.32039 0.4337 0.0
H754 H 0.1543 0.30284 0.47372 0.0
H755 H 0.12723 0.33919 0.60483 0.0
H756 H 0.16506 0.34264 0.58267 0.0
H757 H 0.1105 0.27955 0.53727 0.0
H758 H 0.07257 0.27593 0.55951 0.0
H759 H 0.15416 0.32494 0.51399 0.0
H760 H 0.1383 0.2641 0.57809 0.0
H761 H 0.13341 0.25147 0.61945 0.0
H762 H 0.21273 0.31585 0.63312 0.0
H763 H 0.21791 0.32917 0.59189 0.0
C764 C 0.24594 0.29932 0.47549 0.0
C765 C 0.27086 0.30923 0.48638 0.0
C766 C 0.22524 0.30107 0.48655 0.0
C767 C 0.22934 0.31362 0.50836 0.0
C768 C 0.25465 0.32429 0.51879 0.0
C769 C 0.27504 0.32185 0.50806 0.0
C770 C 0.20701 0.31432 0.52096 0.0
C771 C 0.20284 0.30693 0.54454 0.0
C772 C 0.18939 0.32132 0.50994 0.0
C773 C 0.19388 0.33181 0.48585 0.0
C774 C 0.2185 0.35396 0.47947 0.0
C775 C 0.22268 0.3637 0.45672 0.0
C776 C 0.20232 0.35158 0.44024 0.0
C777 C 0.17771 0.32973 0.44648 0.0
C778 C 0.17343 0.3199 0.4692 0.0
C779 C 0.12328 0.32636 0.58991 0.0
C780 C 0.09691 0.3073 0.58385 0.0
C781 C 0.14491 0.32822 0.57736 0.0
C782 C 0.1406 0.31127 0.55838 0.0
C783 C 0.11429 0.29283 0.55184 0.0
C784 C 0.09266 0.29069 0.56459 0.0
C785 C 0.16349 0.31202 0.54589 0.0
C786 C 0.1676 0.31954 0.52241 0.0
C787 C 0.18152 0.30588 0.55714 0.0
C788 C 0.17836 0.29782 0.58194 0.0
C789 C 0.15459 0.27574 0.58995 0.0
C790 C 0.15179 0.26843 0.61337 0.0
C791 C 0.17271 0.28291 0.62892 0.0
C792 C 0.19651 0.3047 0.62107 0.0
C793 C 0.19939 0.31213 0.59767 0.0
H794 H 0.17052 0.2772 0.64704 0.0
H795 H 0.2056 0.35915 0.42264 0.0
H796 H 0.79528 0.12475 0.77036 0.0
H797 H 0.82866 0.16081 0.7463 0.0
H798 H 0.82468 0.1029 0.69673 0.0
H799 H 0.79199 0.06675 0.72138 0.0
H800 H 0.87351 0.13728 0.70246 0.0
H801 H 0.797 0.14576 0.68693 0.0
H802 H 0.75762 0.15008 0.69599 0.0
H803 H 0.80768 0.22432 0.73096 0.0
H804 H 0.84733 0.22028 0.72238 0.0
H805 H 0.95142 0.23879 0.6185 0.0
H806 H 0.91146 0.20169 0.63644 0.0
H807 H 0.9254 0.24857 0.6985 0.0
H808 H 0.9655 0.28532 0.68098 0.0
H809 H 0.86978 0.21897 0.68293 0.0
H810 H 0.94548 0.20725 0.70009 0.0
H811 H 0.98431 0.20264 0.68943 0.0
H812 H 0.93368 0.13323 0.64866 0.0
H813 H 0.89459 0.1377 0.6588 0.0
C814 C 0.80124 0.11975 0.75417 0.0
C815 C 0.79089 0.09292 0.74767 0.0
C816 C 0.82032 0.14041 0.74033 0.0
C817 C 0.82901 0.13477 0.71936 0.0
C818 C 0.81841 0.10791 0.71276 0.0
C819 C 0.79969 0.08724 0.72682 0.0
C820 C 0.84999 0.15674 0.7049 0.0
C821 C 0.8723 0.15484 0.69785 0.0
C822 C 0.8489 0.18003 0.69903 0.0
C823 C 0.82511 0.18259 0.70417 0.0
C824 C 0.79959 0.16292 0.69669 0.0
C825 C 0.77722 0.16533 0.70172 0.0
C826 C 0.78014 0.18743 0.71408 0.0
C827 C 0.80544 0.2072 0.7214 0.0
C828 C 0.82788 0.20488 0.71643 0.0
C829 C 0.9457 0.24129 0.63582 0.0
C830 C 0.96162 0.26491 0.64836 0.0
C831 C 0.92295 0.22008 0.64607 0.0
C832 C 0.91553 0.22237 0.66884 0.0
C833 C 0.93072 0.2464 0.68093 0.0
C834 C 0.95369 0.26733 0.67091 0.0
C835 C 0.89296 0.1993 0.68072 0.0
C836 C 0.87056 0.20112 0.68733 0.0
C837 C 0.89375 0.1758 0.68594 0.0
C838 C 0.91719 0.17301 0.67996 0.0
C839 C 0.94267 0.19116 0.68867 0.0
C840 C 0.96472 0.18854 0.68276 0.0
C841 C 0.96148 0.1677 0.66831 0.0
C842 C 0.93616 0.14939 0.65981 0.0
C843 C 0.91406 0.15195 0.66563 0.0
H844 H 0.97857 0.1657 0.66376 0.0
H845 H 0.76279 0.18926 0.71796 0.0
H846 H 0.67866 0.96384 0.84838 0.0
H847 H 0.67487 0.92444 0.86761 0.0
H848 H 0.71465 0.9118 0.80963 0.0
H849 H 0.71678 0.9504 0.78965 0.0
H850 H 0.6801 0.86597 0.82523 0.0
H851 H 0.74689 0.94545 0.86233 0.0
H852 H 0.76532 0.98898 0.88207 0.0
H853 H 0.71069 0.95188 0.93863 0.0
H854 H 0.69125 0.90827 0.91888 0.0
H855 H 0.72843 0.79323 0.89257 0.0
H856 H 0.72559 0.82743 0.86937 0.0
H857 H 0.66792 0.82631 0.91751 0.0
H858 H 0.67048 0.79198 0.94054 0.0
H859 H 0.71196 0.87852 0.90676 0.0
H860 H 0.64568 0.79875 0.86813 0.0
H861 H 0.6292 0.75572 0.84794 0.0
H862 H 0.68755 0.79464 0.79419 0.0
H863 H 0.70464 0.83787 0.81426 0.0
C864 C 0.68617 0.95235 0.83959 0.0
C865 C 0.69813 0.96017 0.8176 0.0
C866 C 0.68424 0.92996 0.85068 0.0
C867 C 0.69529 0.91554 0.8405 0.0
C868 C 0.70615 0.92264 0.818 0.0
C869 C 0.70737 0.94467 0.80656 0.0
C870 C 0.69636 0.89382 0.85369 0.0
C871 C 0.68742 0.86892 0.84295 0.0
C872 C 0.70564 0.89736 0.87699 0.0
C873 C 0.71741 0.9236 0.88899 0.0
C874 C 0.73861 0.9466 0.87887 0.0
C875 C 0.74919 0.97132 0.89005 0.0
C876 C 0.73904 0.97323 0.91153 0.0
C877 C 0.71835 0.95041 0.92191 0.0
C878 C 0.70752 0.9257 0.91072 0.0
C879 C 0.71504 0.80019 0.89806 0.0
C880 C 0.69956 0.78982 0.91825 0.0
C881 C 0.71336 0.81963 0.88479 0.0
C882 C 0.69647 0.82934 0.89168 0.0
C883 C 0.68101 0.81903 0.91184 0.0
C884 C 0.68233 0.79928 0.92488 0.0
C885 C 0.69558 0.85089 0.8783 0.0
C886 C 0.70467 0.87573 0.88903 0.0
C887 C 0.68691 0.84745 0.85494 0.0
C888 C 0.67663 0.8215 0.84283 0.0
C889 C 0.65517 0.7981 0.85213 0.0
C890 C 0.64567 0.77368 0.84068 0.0
C891 C 0.65737 0.77243 0.81983 0.0
C892 C 0.67854 0.79563 0.81036 0.0
C893 C 0.68812 0.82009 0.82175 0.0
H894 H 0.64999 0.75351 0.81098 0.0
H895 H 0.74727 0.99237 0.92017 0.0
H896 H 0.76325 0.70806 0.95559 0.0
H897 H 0.79994 0.70513 0.97405 0.0
H898 H 0.75416 0.6777 0.03743 0.0
H899 H 0.71825 0.68191 0.01942 0.0
H900 H 0.8006 0.7128 0.04847 0.0
H901 H 0.76732 0.6363 0.99902 0.0
H902 H 0.75306 0.6111 0.96227 0.0
H903 H 0.83166 0.65993 0.93403 0.0
H904 H 0.8463 0.68567 0.97052 0.0
H905 H 0.88321 0.6727 0.1066 0.0
H906 H 0.84541 0.66969 0.08483 0.0
H907 H 0.8984 0.71526 0.02902 0.0
H908 H 0.93633 0.71824 0.05073 0.0
H909 H 0.84908 0.6706 0.01386 0.0
H910 H 0.88083 0.74655 0.06547 0.0
H911 H 0.89348 0.76889 0.10361 0.0
H912 H 0.81441 0.7164 0.12936 0.0
H913 H 0.8014 0.69349 0.09145 0.0
C914 C 0.76095 0.70107 0.97335 0.0
C915 C 0.73793 0.69527 0.98607 0.0
C916 C 0.7819 0.69929 0.98391 0.0
C917 C 0.7799 0.69098 0.00719 0.0
C918 C 0.75643 0.68434 0.01955 0.0
C919 C 0.73582 0.68665 0.0092 0.0
C920 C 0.80263 0.69057 0.0192 0.0
C921 C 0.81082 0.70315 0.04096 0.0
C922 C 0.81655 0.67852 0.00939 0.0
C923 C 0.80783 0.66309 0.98742 0.0
C924 C 0.78151 0.6418 0.98491 0.0
C925 C 0.77337 0.62739 0.96414 0.0
C926 C 0.79142 0.63396 0.94581 0.0
C927 C 0.81768 0.6549 0.94823 0.0
C928 C 0.82592 0.66939 0.96896 0.0
C929 C 0.88677 0.68171 0.08955 0.0
C930 C 0.9128 0.69577 0.0804 0.0
C931 C 0.86517 0.68012 0.07718 0.0
C932 C 0.86912 0.69241 0.05536 0.0
C933 C 0.89491 0.70566 0.04582 0.0
C934 C 0.91657 0.7075 0.0583 0.0
C935 C 0.84656 0.6925 0.04301 0.0
C936 C 0.83859 0.68004 0.02125 0.0
C937 C 0.83247 0.70421 0.05297 0.0
C938 C 0.84023 0.71814 0.0757 0.0
C939 C 0.86621 0.73964 0.07932 0.0
C940 C 0.87343 0.75242 0.10089 0.0
C941 C 0.85478 0.74402 0.11892 0.0
C942 C 0.82884 0.72286 0.11539 0.0
C943 C 0.82153 0.70999 0.09387 0.0
H944 H 0.86042 0.75394 0.1356 0.0
H945 H 0.78508 0.62278 0.92974 0.0
H946 H 0.25163 0.91806 0.21223 0.0
H947 H 0.21535 0.88147 0.1907 0.0
H948 H 0.16085 0.86987 0.2466 0.0
H949 H 0.19734 0.90602 0.26841 0.0
H950 H 0.15229 0.82379 0.23311 0.0
H951 H 0.16173 0.90078 0.1932 0.0
H952 H 0.18533 0.94357 0.17211 0.0
H953 H 0.20632 0.90613 0.11814 0.0
H954 H 0.18312 0.86317 0.13907 0.0
H955 H 0.02956 0.74786 0.17699 0.0
H956 H 0.06903 0.78433 0.19472 0.0
H957 H 0.11787 0.78126 0.13955 0.0
H958 H 0.07792 0.74445 0.12126 0.0
H959 H 0.13115 0.83308 0.1513 0.0
H960 H 0.11656 0.7541 0.19184 0.0
H961 H 0.08929 0.71196 0.21311 0.0
H962 H 0.07446 0.75435 0.26688 0.0
H963 H 0.10132 0.79674 0.24577 0.0
C964 C 0.23184 0.90793 0.21978 0.0
C965 C 0.22731 0.91501 0.24198 0.0
C966 C 0.21107 0.88698 0.20746 0.0
C967 C 0.18517 0.873 0.21684 0.0
C968 C 0.18061 0.88022 0.23896 0.0
C969 C 0.20146 0.90092 0.25142 0.0
C970 C 0.16293 0.85054 0.20389 0.0
C971 C 0.14755 0.82598 0.2153 0.0
C972 C 0.15696 0.85303 0.18045 0.0
C973 C 0.17095 0.87884 0.16783 0.0
C974 C 0.17157 0.90172 0.17693 0.0
C975 C 0.18484 0.92599 0.16499 0.0
C976 C 0.19739 0.92758 0.14384 0.0
C977 C 0.19663 0.90488 0.13455 0.0
C978 C 0.18341 0.88056 0.14643 0.0
C979 C 0.04862 0.75481 0.16848 0.0
C980 C 0.05055 0.74297 0.14774 0.0
C981 C 0.07124 0.7757 0.17875 0.0
C982 C 0.09649 0.78518 0.16875 0.0
C983 C 0.09856 0.77408 0.14766 0.0
C984 C 0.07575 0.75307 0.13723 0.0
C985 C 0.12049 0.80661 0.18063 0.0
C986 C 0.13615 0.83091 0.16903 0.0
C987 C 0.12643 0.80402 0.20404 0.0
C988 C 0.11087 0.77862 0.21712 0.0
C989 C 0.1074 0.75445 0.20815 0.0
C990 C 0.09201 0.73051 0.22018 0.0
C991 C 0.08012 0.73048 0.24131 0.0
C992 C 0.08369 0.75441 0.25051 0.0
C993 C 0.09903 0.77841 0.23853 0.0
H994 H 0.06821 0.71192 0.25058 0.0
H995 H 0.20764 0.94639 0.13461 0.0
H996 H 0.97076 0.67846 0.48475 0.0
H997 H 0.93137 0.67438 0.46534 0.0
H998 H 0.91268 0.70527 0.52635 0.0
H999 H 0.9516 0.70814 0.54631 0.0
H1000 H 0.86814 0.66854 0.50743 0.0
H1001 H 0.94644 0.74545 0.47731 0.0
H1002 H 0.99143 0.76908 0.45989 0.0
H1003 H 0.96215 0.71911 0.39944 0.0
H1004 H 0.91703 0.69498 0.41663 0.0
H1005 H 0.78749 0.71226 0.44949 0.0
H1006 H 0.82276 0.70999 0.47109 0.0
H1007 H 0.83647 0.6718 0.4126 0.0
H1008 H 0.80146 0.6744 0.39077 0.0
H1009 H 0.8831 0.71193 0.43024 0.0
H1010 H 0.80446 0.63593 0.46014 0.0
H1011 H 0.75973 0.61199 0.47797 0.0
H1012 H 0.78981 0.6608 0.53901 0.0
H1013 H 0.83467 0.68531 0.5214 0.0
C1014 C 0.95807 0.68409 0.49415 0.0
C1015 C 0.96439 0.69384 0.517 0.0
C1016 C 0.93562 0.68193 0.48296 0.0
C1017 C 0.91939 0.69029 0.49406 0.0
C1018 C 0.92496 0.69889 0.5173 0.0
C1019 C 0.94719 0.70051 0.52872 0.0
C1020 C 0.89732 0.69094 0.48109 0.0
C1021 C 0.87153 0.67836 0.49071 0.0
C1022 C 0.90147 0.70328 0.45899 0.0
C1023 C 0.92841 0.71828 0.44833 0.0
C1024 C 0.94962 0.73946 0.46033 0.0
C1025 C 0.97514 0.75293 0.4505 0.0
C1026 C 0.97966 0.74556 0.4286 0.0
C1027 C 0.95862 0.72479 0.41642 0.0
C1028 C 0.93306 0.71124 0.42617 0.0
C1029 C 0.79804 0.70343 0.44119 0.0
C1030 C 0.79159 0.69349 0.41838 0.0
C1031 C 0.81807 0.70195 0.45364 0.0
C1032 C 0.83217 0.69052 0.44357 0.0
C1033 C 0.82583 0.68062 0.42078 0.0
C1034 C 0.80565 0.68193 0.40837 0.0
C1035 C 0.85398 0.68954 0.45658 0.0
C1036 C 0.87974 0.70213 0.44697 0.0
C1037 C 0.84981 0.67735 0.47871 0.0
C1038 C 0.82287 0.66264 0.48935 0.0
C1039 C 0.80149 0.64172 0.47728 0.0
C1040 C 0.77612 0.62801 0.48736 0.0
C1041 C 0.77191 0.63492 0.50958 0.0
C1042 C 0.79309 0.6555 0.52179 0.0
C1043 C 0.8185 0.66929 0.51177 0.0
H1044 H 0.75226 0.62427 0.51736 0.0
H1045 H 0.99945 0.75596 0.42104 0.0
H1046 H 0.2761 0.92789 0.70185 0.0
H1047 H 0.23852 0.89028 0.68204 0.0
H1048 H 0.21302 0.94355 0.65507 0.0
H1049 H 0.25059 0.98118 0.67447 0.0
H1050 H 0.1706 0.89448 0.67201 0.0
H1051 H 0.24651 0.9278 0.62106 0.0
H1052 H 0.29327 0.9414 0.61189 0.0
H1053 H 0.27724 0.86162 0.6251 0.0
H1054 H 0.23048 0.84765 0.63489 0.0
H1055 H 0.0875 0.82359 0.5779 0.0
H1056 H 0.12351 0.85659 0.60189 0.0
H1057 H 0.14703 0.79879 0.61965 0.0
H1058 H 0.11059 0.76527 0.59568 0.0
H1059 H 0.19044 0.84793 0.60938 0.0
H1060 H 0.11331 0.81429 0.65856 0.0
H1061 H 0.06705 0.80175 0.66875 0.0
H1062 H 0.08548 0.88282 0.65872 0.0
H1063 H 0.13178 0.8958 0.64815 0.0
C1064 C 0.26225 0.93151 0.692 0.0
C1065 C 0.26635 0.95753 0.68972 0.0
C1066 C 0.24089 0.91004 0.68059 0.0
C1067 C 0.22309 0.91418 0.66696 0.0
C1068 C 0.2265 0.93992 0.66549 0.0
C1069 C 0.24803 0.9614 0.67657 0.0
C1070 C 0.20156 0.892 0.6534 0.0
C1071 C 0.17491 0.8844 0.65822 0.0
C1072 C 0.20722 0.87861 0.63564 0.0
C1073 C 0.23509 0.88676 0.62905 0.0
C1074 C 0.25301 0.91321 0.62224 0.0
C1075 C 0.27953 0.92101 0.61697 0.0
C1076 C 0.28827 0.90244 0.61811 0.0
C1077 C 0.27046 0.876 0.62435 0.0
C1078 C 0.24395 0.86813 0.62978 0.0
C1079 C 0.09997 0.8176 0.5871 0.0
C1080 C 0.09579 0.79151 0.58499 0.0
C1081 C 0.12074 0.83665 0.60078 0.0
C1082 C 0.13781 0.83012 0.61285 0.0
C1083 C 0.13409 0.80428 0.61053 0.0
C1084 C 0.11324 0.78514 0.5968 0.0
C1085 C 0.15934 0.85037 0.62796 0.0
C1086 C 0.18604 0.85775 0.62334 0.0
C1087 C 0.15374 0.86366 0.64588 0.0
C1088 C 0.12596 0.85597 0.65239 0.0
C1089 C 0.10745 0.82941 0.65837 0.0
C1090 C 0.08123 0.82223 0.66424 0.0
C1091 C 0.07332 0.84146 0.66433 0.0
C1092 C 0.09164 0.86794 0.65862 0.0
C1093 C 0.11788 0.87523 0.65272 0.0
H1094 H 0.05301 0.83586 0.66887 0.0
H1095 H 0.30879 0.9085 0.61396 0.0
H1096 H 0.31089 0.25267 0.88063 0.0
H1097 H 0.3127 0.21512 0.86273 0.0
H1098 H 0.31191 0.24612 0.79473 0.0
H1099 H 0.30926 0.28301 0.81244 0.0
H1100 H 0.27884 0.1955 0.79486 0.0
H1101 H 0.36968 0.25014 0.82039 0.0
H1102 H 0.40564 0.27547 0.84871 0.0
H1103 H 0.38057 0.20419 0.8888 0.0
H1104 H 0.34422 0.17848 0.86086 0.0
H1105 H 0.31575 0.11748 0.72661 0.0
H1106 H 0.31579 0.15452 0.74689 0.0
H1107 H 0.31128 0.11677 0.81264 0.0
H1108 H 0.3123 0.08007 0.79251 0.0
H1109 H 0.34612 0.16937 0.81499 0.0
H1110 H 0.25586 0.11476 0.78809 0.0
H1111 H 0.22063 0.09 0.75902 0.0
H1112 H 0.24568 0.16239 0.72061 0.0
H1113 H 0.2813 0.18752 0.74929 0.0
C1114 C 0.31129 0.25155 0.86187 0.0
C1115 C 0.30985 0.27081 0.84799 0.0
C1116 C 0.31242 0.23011 0.85163 0.0
C1117 C 0.31266 0.22779 0.82731 0.0
C1118 C 0.31162 0.24728 0.8135 0.0
C1119 C 0.31016 0.26846 0.82369 0.0
C1120 C 0.31314 0.20475 0.81605 0.0
C1121 C 0.2938 0.19006 0.79909 0.0
C1122 C 0.33218 0.19705 0.8219 0.0
C1123 C 0.35406 0.21245 0.83866 0.0
C1124 C 0.37171 0.23991 0.83534 0.0
C1125 C 0.39219 0.25433 0.8513 0.0
C1126 C 0.39534 0.24146 0.87057 0.0
C1127 C 0.37807 0.21413 0.87388 0.0
C1128 C 0.35755 0.19963 0.85798 0.0
C1129 C 0.31507 0.11708 0.74538 0.0
C1130 C 0.31396 0.09558 0.75784 0.0
C1131 C 0.31481 0.13823 0.75698 0.0
C1132 C 0.31315 0.13832 0.78132 0.0
C1133 C 0.31244 0.11713 0.79385 0.0
C1134 C 0.31277 0.09598 0.78227 0.0
C1135 C 0.31205 0.16044 0.79364 0.0
C1136 C 0.33118 0.17486 0.81082 0.0
C1137 C 0.29293 0.16803 0.78791 0.0
C1138 C 0.27139 0.15297 0.77073 0.0
C1139 C 0.25397 0.12536 0.77336 0.0
C1140 C 0.23391 0.11127 0.75697 0.0
C1141 C 0.23096 0.1246 0.73796 0.0
C1142 C 0.24801 0.15208 0.73533 0.0
C1143 C 0.26811 0.16626 0.75166 0.0
H1144 H 0.21542 0.11366 0.72528 0.0
H1145 H 0.4112 0.25266 0.88292 0.0
H1146 H 0.04545 0.33425 0.98966 0.0
H1147 H 0.08471 0.33788 0.97026 0.0
H1148 H 0.0944 0.29345 0.02603 0.0
H1149 H 0.05612 0.29155 0.04626 0.0
H1150 H 0.14065 0.32792 0.0124 0.0
H1151 H 0.06183 0.26528 0.97076 0.0
H1152 H 0.01945 0.25021 0.94975 0.0
H1153 H 0.06057 0.31027 0.89774 0.0
H1154 H 0.10313 0.32603 0.91865 0.0
H1155 H 0.21438 0.28152 0.94549 0.0
H1156 H 0.17954 0.28405 0.96788 0.0
H1157 H 0.18288 0.34325 0.92028 0.0
H1158 H 0.21762 0.34079 0.89793 0.0
H1159 H 0.13066 0.30154 0.92942 0.0
H1160 H 0.2096 0.36309 0.9716 0.0
H1161 H 0.25156 0.37705 0.99289 0.0
H1162 H 0.20904 0.316 0.04385 0.0
H1163 H 0.16685 0.30142 0.02266 0.0
C1164 C 0.05628 0.32566 0.99792 0.0
C1165 C 0.04779 0.31256 0.0194 0.0
C1166 C 0.07855 0.32746 0.98671 0.0
C1167 C 0.09211 0.31514 0.99621 0.0
C1168 C 0.08424 0.30296 0.01818 0.0
C1169 C 0.0624 0.3019 0.02978 0.0
C1170 C 0.11396 0.31436 0.983 0.0
C1171 C 0.13823 0.32176 0.99435 0.0
C1172 C 0.11119 0.30679 0.95924 0.0
C1173 C 0.08565 0.297 0.94641 0.0
C1174 C 0.06182 0.27537 0.95491 0.0
C1175 C 0.03776 0.26671 0.94302 0.0
C1176 C 0.0373 0.27933 0.92246 0.0
C1177 C 0.06094 0.30056 0.91369 0.0
C1178 C 0.08504 0.30936 0.92555 0.0
C1179 C 0.20774 0.29515 0.93992 0.0
C1180 C 0.21889 0.31109 0.92008 0.0
C1181 C 0.18794 0.29666 0.95274 0.0
C1182 C 0.1787 0.31394 0.9458 0.0
C1183 C 0.18976 0.32984 0.92598 0.0
C1184 C 0.2098 0.3286 0.91335 0.0
C1185 C 0.15707 0.31499 0.95889 0.0
C1186 C 0.1329 0.30761 0.94749 0.0
C1187 C 0.15979 0.32221 0.98262 0.0
C1188 C 0.18511 0.33098 0.99541 0.0
C1189 C 0.20923 0.35248 0.98723 0.0
C1190 C 0.23305 0.36054 0.99931 0.0
C1191 C 0.23298 0.34737 0.01968 0.0
C1192 C 0.20907 0.32616 0.02805 0.0
C1193 C 0.1852 0.318 0.01603 0.0
H1194 H 0.25144 0.35364 0.02901 0.0
H1195 H 0.01866 0.27264 0.91331 0.0
H1196 H 0.75248 0.02836 0.15994 0.0
H1197 H 0.78967 0.06829 0.1431 0.0
H1198 H 0.782 0.11672 0.19605 0.0
H1199 H 0.74463 0.07643 0.21348 0.0
H1200 H 0.78749 0.13518 0.14547 0.0
H1201 H 0.83018 0.10941 0.2039 0.0
H1202 H 0.83887 0.07716 0.22459 0.0
H1203 H 0.86668 0.06003 0.16131 0.0
H1204 H 0.85777 0.09189 0.14016 0.0
H1205 H 0.90963 0.24737 0.10488 0.0
H1206 H 0.87331 0.21476 0.12958 0.0
H1207 H 0.88399 0.15174 0.10086 0.0
H1208 H 0.92046 0.18419 0.07681 0.0
H1209 H 0.87755 0.14434 0.14459 0.0
H1210 H 0.83118 0.16328 0.08493 0.0
H1211 H 0.8198 0.1915 0.06086 0.0
H1212 H 0.79654 0.2175 0.1219 0.0
H1213 H 0.80811 0.18966 0.14636 0.0
C1214 C 0.75858 0.04745 0.1681 0.0
C1215 C 0.74558 0.04917 0.18815 0.0
C1216 C 0.77989 0.07026 0.15841 0.0
C1217 C 0.78861 0.09541 0.16835 0.0
C1218 C 0.77551 0.09744 0.18814 0.0
C1219 C 0.7543 0.07443 0.19813 0.0
C1220 C 0.81176 0.11923 0.15799 0.0
C1221 C 0.80737 0.13764 0.14569 0.0
C1222 C 0.83741 0.12182 0.15767 0.0
C1223 C 0.84314 0.10292 0.17042 0.0
C1224 C 0.83797 0.09863 0.19436 0.0
C1225 C 0.84296 0.08044 0.20618 0.0
C1226 C 0.85328 0.06652 0.19427 0.0
C1227 C 0.85869 0.07082 0.17052 0.0
C1228 C 0.8537 0.08897 0.15861 0.0
C1229 C 0.90414 0.22653 0.1039 0.0
C1230 C 0.91805 0.21841 0.08904 0.0
C1231 C 0.88333 0.20788 0.11795 0.0
C1232 C 0.87566 0.18064 0.11703 0.0
C1233 C 0.88957 0.17259 0.10211 0.0
C1234 C 0.91052 0.19122 0.08836 0.0
C1235 C 0.85338 0.16031 0.13157 0.0
C1236 C 0.85787 0.14238 0.14464 0.0
C1237 C 0.8277 0.15786 0.13214 0.0
C1238 C 0.82084 0.17468 0.11749 0.0
C1239 C 0.82386 0.1752 0.09323 0.0
C1240 C 0.81733 0.19109 0.07952 0.0
C1241 C 0.80754 0.20636 0.08985 0.0
C1242 C 0.80419 0.20571 0.11392 0.0
C1243 C 0.81072 0.18988 0.12772 0.0
H1244 H 0.80249 0.21864 0.0792 0.0
H1245 H 0.85712 0.05243 0.20345 0.0
H1246 H 0.74619 0.92359 0.24883 0.0
H1247 H 0.74106 0.8844 0.26967 0.0
H1248 H 0.66309 0.86675 0.29317 0.0
H1249 H 0.66807 0.90599 0.27208 0.0
H1250 H 0.69711 0.86324 0.32858 0.0
H1251 H 0.66462 0.83199 0.2517 0.0
H1252 H 0.66651 0.83216 0.20894 0.0
H1253 H 0.73459 0.82105 0.21166 0.0
H1254 H 0.73353 0.82147 0.25446 0.0
H1255 H 0.6639 0.73366 0.37152 0.0
H1256 H 0.66315 0.77145 0.35288 0.0
H1257 H 0.73082 0.78576 0.31077 0.0
H1258 H 0.73092 0.74762 0.32855 0.0
H1259 H 0.69752 0.78964 0.28464 0.0
H1260 H 0.73424 0.82564 0.35987 0.0
H1261 H 0.73519 0.82725 0.40268 0.0
H1262 H 0.6628 0.83096 0.40318 0.0
H1263 H 0.66125 0.82903 0.36036 0.0
C1264 C 0.7281 0.91159 0.25867 0.0
C1265 C 0.70755 0.91793 0.2589 0.0
C1266 C 0.72511 0.88908 0.27043 0.0
C1267 C 0.70164 0.87259 0.28286 0.0
C1268 C 0.68134 0.8792 0.28365 0.0
C1269 C 0.68415 0.90152 0.27156 0.0
C1270 C 0.69828 0.84824 0.29468 0.0
C1271 C 0.69679 0.84691 0.319 0.0
C1272 C 0.69846 0.82726 0.28215 0.0
C1273 C 0.69918 0.82709 0.25635 0.0
C1274 C 0.6802 0.82991 0.24321 0.0
C1275 C 0.6811 0.82986 0.21894 0.0
C1276 C 0.70071 0.82671 0.20759 0.0
C1277 C 0.71945 0.82357 0.22047 0.0
C1278 C 0.71872 0.82373 0.24475 0.0
C1279 C 0.6787 0.74502 0.3584 0.0
C1280 C 0.69747 0.73763 0.35157 0.0
C1281 C 0.67833 0.76669 0.34778 0.0
C1282 C 0.6971 0.78176 0.33048 0.0
C1283 C 0.71601 0.77449 0.32392 0.0
C1284 C 0.71612 0.75267 0.33422 0.0
C1285 C 0.697 0.80477 0.31874 0.0
C1286 C 0.69774 0.80584 0.29433 0.0
C1287 C 0.69656 0.82571 0.33122 0.0
C1288 C 0.69747 0.82689 0.35694 0.0
C1289 C 0.71842 0.82659 0.36912 0.0
C1290 C 0.71909 0.8276 0.39338 0.0
C1291 C 0.69902 0.82912 0.40564 0.0
C1292 C 0.6783 0.82972 0.39366 0.0
C1293 C 0.67752 0.82869 0.3694 0.0
H1294 H 0.69958 0.8299 0.42442 0.0
H1295 H 0.70134 0.82663 0.1888 0.0
H1296 H 0.39955 0.41359 0.43255 0.0
H1297 H 0.44014 0.45608 0.42505 0.0
H1298 H 0.48741 0.41778 0.433 0.0
H1299 H 0.44727 0.37574 0.44191 0.0
H1300 H 0.51005 0.46227 0.45568 0.0
H1301 H 0.47449 0.43727 0.37877 0.0
H1302 H 0.4405 0.42336 0.34792 0.0
H1303 H 0.437 0.49521 0.35764 0.0
H1304 H 0.47073 0.50939 0.38877 0.0
H1305 H 0.6304 0.5611 0.40232 0.0
H1306 H 0.58878 0.52084 0.41231 0.0
H1307 H 0.54815 0.56626 0.41472 0.0
H1308 H 0.59 0.60702 0.4055 0.0
H1309 H 0.52168 0.51978 0.38767 0.0
H1310 H 0.55987 0.54504 0.46389 0.0
H1311 H 0.59513 0.5583 0.49348 0.0
H1312 H 0.59499 0.48463 0.48331 0.0
H1313 H 0.55999 0.47108 0.45341 0.0
C1314 C 0.41857 0.41417 0.43275 0.0
C1315 C 0.41996 0.39105 0.4378 0.0
C1316 C 0.44179 0.43849 0.4282 0.0
C1317 C 0.46692 0.44018 0.42824 0.0
C1318 C 0.46831 0.41705 0.43284 0.0
C1319 C 0.44518 0.39284 0.43762 0.0
C1320 C 0.49189 0.46615 0.42431 0.0
C1321 C 0.51266 0.47463 0.44063 0.0
C1322 C 0.4952 0.48272 0.40499 0.0
C1323 C 0.47492 0.47425 0.38627 0.0
C1324 C 0.46631 0.45 0.37446 0.0
C1325 C 0.44712 0.44209 0.3569 0.0
C1326 C 0.43654 0.45835 0.35087 0.0
C1327 C 0.44518 0.48261 0.36235 0.0
C1328 C 0.46435 0.49061 0.37994 0.0
C1329 C 0.61287 0.56282 0.40556 0.0
C1330 C 0.61374 0.5875 0.40314 0.0
C1331 C 0.58898 0.53965 0.41111 0.0
C1332 C 0.56537 0.54055 0.41427 0.0
C1333 C 0.56614 0.56511 0.41223 0.0
C1334 C 0.59009 0.58838 0.4069 0.0
C1335 C 0.53976 0.51562 0.4189 0.0
C1336 C 0.51892 0.50738 0.40274 0.0
C1337 C 0.5365 0.49911 0.43819 0.0
C1338 C 0.55747 0.50716 0.45626 0.0
C1339 C 0.56751 0.53176 0.46783 0.0
C1340 C 0.58742 0.53931 0.48468 0.0
C1341 C 0.59734 0.52235 0.49023 0.0
C1342 C 0.58731 0.49776 0.47898 0.0
C1343 C 0.56741 0.49013 0.46209 0.0
H1344 H 0.61276 0.52824 0.50329 0.0
H1345 H 0.42168 0.45219 0.33727 0.0
H1346 H 1.00057 0.41239 0.6311 0.0
H1347 H 0.99963 0.45286 0.62104 0.0
H1348 H 0.05566 0.46867 0.56565 0.0
H1349 H 0.0556 0.42727 0.57451 0.0
H1350 H 0.06869 0.51252 0.60038 0.0
H1351 H 0.99891 0.45094 0.54872 0.0
H1352 H 0.95688 0.40965 0.53961 0.0
H1353 H 0.91431 0.43284 0.5865 0.0
H1354 H 0.95619 0.47411 0.59615 0.0
H1355 H 0.0717 0.62402 0.54787 0.0
H1356 H 0.06955 0.5817 0.55669 0.0
H1357 H 0.99436 0.5545 0.5919 0.0
H1358 H 0.9959 0.59656 0.58192 0.0
H1359 H 0.99046 0.51558 0.56857 0.0
H1360 H 0.05682 0.57568 0.62121 0.0
H1361 H 0.09764 0.6163 0.63392 0.0
H1362 H 0.14527 0.59575 0.59077 0.0
H1363 H 0.10469 0.55517 0.57754 0.0
C1364 C 0.01216 0.42389 0.61632 0.0
C1365 C 0.02814 0.41623 0.60363 0.0
C1366 C 0.01177 0.44726 0.61078 0.0
C1367 C 0.02763 0.46376 0.59268 0.0
C1368 C 0.04339 0.45623 0.57979 0.0
C1369 C 0.04341 0.43258 0.58501 0.0
C1370 C 0.02843 0.48935 0.58777 0.0
C1371 C 0.05176 0.5133 0.59311 0.0
C1372 C 0.00593 0.4902 0.57922 0.0
C1373 C 0.98073 0.46547 0.57334 0.0
C1374 C 0.98063 0.44712 0.55725 0.0
C1375 C 0.95682 0.42374 0.55195 0.0
C1376 C 0.93295 0.41859 0.56252 0.0
C1377 C 0.93282 0.43684 0.57836 0.0
C1378 C 0.95658 0.46023 0.58373 0.0
C1379 C 0.05486 0.60911 0.55772 0.0
C1380 C 0.03413 0.61367 0.56448 0.0
C1381 C 0.05367 0.5849 0.56284 0.0
C1382 C 0.03208 0.56495 0.57546 0.0
C1383 C 0.01129 0.56952 0.58222 0.0
C1384 C 0.01221 0.59358 0.57663 0.0
C1385 C 0.03095 0.53914 0.58098 0.0
C1386 C 0.00749 0.51504 0.57586 0.0
C1387 C 0.05319 0.53814 0.59028 0.0
C1388 C 0.07767 0.5625 0.59823 0.0
C1389 C 0.07598 0.57991 0.61431 0.0
C1390 C 0.09908 0.60292 0.62162 0.0
C1391 C 0.12403 0.60864 0.61311 0.0
C1392 C 0.12593 0.59131 0.59732 0.0
C1393 C 0.10289 0.56829 0.58993 0.0
H1394 H 0.14189 0.62646 0.6188 0.0
H1395 H 0.91453 0.40048 0.55839 0.0
H1396 H 0.59925 0.01767 0.80955 0.0
H1397 H 0.55749 0.01619 0.79957 0.0
H1398 H 0.58166 0.03069 0.72764 0.0
H1399 H 0.62417 0.03337 0.7379 0.0
H1400 H 0.56033 0.0588 0.73779 0.0
H1401 H 0.53249 0.96688 0.74991 0.0
H1402 H 0.52817 0.92753 0.77058 0.0
H1403 H 0.48701 0.94091 0.82641 0.0
H1404 H 0.49139 0.98057 0.80622 0.0
H1405 H 0.42972 0.01762 0.69413 0.0
H1406 H 0.47079 0.01739 0.70412 0.0
H1407 H 0.45831 0.02687 0.77649 0.0
H1408 H 0.4172 0.02743 0.76654 0.0
H1409 H 0.47278 0.98584 0.76554 0.0
H1410 H 0.50163 0.07874 0.7513 0.0
H1411 H 0.50497 0.11628 0.7283 0.0
H1412 H 0.5432 0.098 0.6731 0.0
H1413 H 0.53971 0.06007 0.69565 0.0
C1414 C 0.59552 0.02026 0.79157 0.0
C1415 C 0.6148 0.02531 0.77444 0.0
C1416 C 0.57157 0.01933 0.78584 0.0
C1417 C 0.566 0.02273 0.76273 0.0
C1418 C 0.58535 0.02789 0.74558 0.0
C1419 C 0.60959 0.02935 0.75141 0.0
C1420 C 0.54035 0.02162 0.75665 0.0
C1421 C 0.54121 0.04258 0.74359 0.0
C1422 C 0.51526 1.00074 0.76447 0.0
C1423 C 0.51249 0.97684 0.77664 0.0
C1424 C 0.52268 0.96154 0.76667 0.0
C1425 C 0.5202 0.93917 0.77829 0.0
C1426 C 0.50738 0.93177 0.79982 0.0
C1427 C 0.49696 0.94669 0.80975 0.0
C1428 C 0.49941 0.9691 0.79821 0.0
C1429 C 0.43558 0.01938 0.7122 0.0
C1430 C 0.42021 0.02243 0.72959 0.0
C1431 C 0.45911 0.0194 0.71785 0.0
C1432 C 0.4676 0.0222 0.74102 0.0
C1433 C 0.45205 0.02468 0.75851 0.0
C1434 C 0.42869 0.0251 0.75281 0.0
C1435 C 0.49299 0.02295 0.74683 0.0
C1436 C 0.492 1.00194 0.75978 0.0
C1437 C 0.51788 0.04349 0.73857 0.0
C1438 C 0.52015 0.0664 0.72507 0.0
C1439 C 0.51053 0.08257 0.73417 0.0
C1440 C 0.51249 0.10395 0.72123 0.0
C1441 C 0.52422 0.10948 0.69922 0.0
C1442 C 0.53408 0.09368 0.69014 0.0
C1443 C 0.53214 0.07225 0.703 0.0
H1444 H 0.52573 0.12604 0.68923 0.0
H1445 H 0.50548 0.91444 0.80879 0.0
H1446 H 0.59132 0.62275 0.90328 0.0
H1447 H 0.55153 0.58054 0.89253 0.0
H1448 H 0.54233 0.55431 0.96386 0.0
H1449 H 0.58262 0.59582 0.97431 0.0
H1450 H 0.53182 0.51448 0.93854 0.0
H1451 H 0.50336 0.57932 0.93707 0.0
H1452 H 0.50445 0.62098 0.92563 0.0
H1453 H 0.49292 0.59615 0.85426 0.0
H1454 H 0.49213 0.55448 0.86524 0.0
H1455 H 0.39198 0.41488 0.9313 0.0
H1456 H 0.43415 0.45564 0.94072 0.0
H1457 H 0.45383 0.46855 0.8679 0.0
H1458 H 0.41205 0.42777 0.85844 0.0
H1459 H 0.4587 0.51432 0.89328 0.0
H1460 H 0.48576 0.44766 0.89738 0.0
H1461 H 0.48243 0.40575 0.91133 0.0
H1462 H 0.49364 0.43439 0.98154 0.0
H1463 H 0.49665 0.47634 0.96803 0.0
C1464 C 0.5808 0.60785 0.91657 0.0
C1465 C 0.59008 0.61246 0.93958 0.0
C1466 C 0.55797 0.58381 0.91048 0.0
C1467 C 0.54355 0.56427 0.92745 0.0
C1468 C 0.55304 0.5689 0.9504 0.0
C1469 C 0.57609 0.59265 0.95637 0.0
C1470 C 0.51856 0.53905 0.92146 0.0
C1471 C 0.51576 0.51458 0.92888 0.0
C1472 C 0.49755 0.53891 0.90861 0.0
C1473 C 0.49797 0.56392 0.90195 0.0
C1474 C 0.50126 0.58284 0.91891 0.0
C1475 C 0.50179 0.60643 0.91252 0.0
C1476 C 0.49883 0.61124 0.88923 0.0
C1477 C 0.49526 0.59242 0.87229 0.0
C1478 C 0.49475 0.5688 0.87859 0.0
C1479 C 0.40544 0.42634 0.91737 0.0
C1480 C 0.39888 0.41806 0.89417 0.0
C1481 C 0.42947 0.44955 0.92274 0.0
C1482 C 0.44708 0.46504 0.90498 0.0
C1483 C 0.44052 0.45684 0.88183 0.0
C1484 C 0.41677 0.43345 0.87649 0.0
C1485 C 0.47215 0.4901 0.91044 0.0
C1486 C 0.47488 0.51442 0.90292 0.0
C1487 C 0.49282 0.49016 0.9236 0.0
C1488 C 0.49115 0.46501 0.93172 0.0
C1489 C 0.48727 0.44492 0.91581 0.0
C1490 C 0.4855 0.42118 0.92363 0.0
C1491 C 0.48775 0.41738 0.94731 0.0
C1492 C 0.49186 0.43735 0.96321 0.0
C1493 C 0.49363 0.46112 0.95548 0.0
H1494 H 0.48637 0.39899 0.95333 0.0
H1495 H 0.49925 0.62952 0.88431 0.0
H1496 H 0.99032 0.41151 0.02894 0.0
H1497 H 0.99151 0.45326 0.03831 0.0
H1498 H 0.97977 0.43129 0.11081 0.0
H1499 H 0.97736 0.38875 0.10119 0.0
H1500 H 0.9507 0.45165 0.10081 0.0
H1501 H 0.04246 0.48031 0.0868 0.0
H1502 H 0.08141 0.48456 0.0655 0.0
H1503 H 0.06559 0.52344 0.00922 0.0
H1504 H 0.02631 0.5191 0.03005 0.0
H1505 H 0.99266 0.58347 0.14175 0.0
H1506 H 0.99316 0.54244 0.13218 0.0
H1507 H 0.97881 0.55158 0.06018 0.0
H1508 H 0.97788 0.59261 0.06975 0.0
H1509 H 0.02187 0.53873 0.07044 0.0
H1510 H 0.92909 0.50898 0.08669 0.0
H1511 H 0.89215 0.50587 0.11044 0.0
H1512 H 0.91325 0.47027 0.16595 0.0
H1513 H 0.95061 0.47356 0.14264 0.0
C1514 C 0.98828 0.41574 0.04691 0.0
C1515 C 0.98409 0.39708 0.0644 0.0
C1516 C 0.98905 0.43967 0.05229 0.0
C1517 C 0.98634 0.44585 0.07537 0.0
C1518 C 0.98203 0.42712 0.09288 0.0
C1519 C 0.98074 0.40287 0.08742 0.0
C1520 C 0.98725 0.47146 0.08103 0.0
C1521 C 0.96654 0.47068 0.09442 0.0
C1522 C 0.00763 0.49642 0.07246 0.0
C1523 C 0.0313 0.49916 0.0599 0.0
C1524 C 0.04718 0.4896 0.06981 0.0
C1525 C 0.06933 0.49205 0.05783 0.0
C1526 C 0.07593 0.5042 0.036 0.0
C1527 C 0.06043 0.514 0.02612 0.0
C1528 C 0.03824 0.51158 0.03802 0.0
C1529 C 0.98988 0.57688 0.12384 0.0
C1530 C 0.98537 0.59127 0.10645 0.0
C1531 C 0.99003 0.5534 0.11843 0.0
C1532 C 0.98596 0.544 0.09551 0.0
C1533 C 0.982 0.55857 0.07798 0.0
C1534 C 0.98139 0.58188 0.08345 0.0
C1535 C 0.98539 0.51867 0.09003 0.0
C1536 C 0.00615 0.51959 0.07676 0.0
C1537 C 0.96538 0.49394 0.09905 0.0
C1538 C 0.94282 0.49178 0.11302 0.0
C1539 C 0.92601 0.50072 0.10404 0.0
C1540 C 0.90496 0.49888 0.11741 0.0
C1541 C 0.9004 0.48795 0.13972 0.0
C1542 C 0.91683 0.47877 0.14868 0.0
C1543 C 0.93794 0.4806 0.13539 0.0
H1544 H 0.88409 0.48654 0.15004 0.0
H1545 H 0.09309 0.50608 0.02675 0.0
H1546 H 0.3975 0.98203 0.24415 0.0
H1547 H 0.43996 0.98474 0.23419 0.0
H1548 H 0.46029 0.99095 0.30694 0.0
H1549 H 0.4183 0.9893 0.31682 0.0
H1550 H 0.5029 0.02219 0.28427 0.0
H1551 H 0.43527 0.93086 0.27495 0.0
H1552 H 0.39325 0.89299 0.26039 0.0
H1553 H 0.4217 0.91306 0.1903 0.0
H1554 H 0.46376 0.9513 0.20442 0.0
H1555 H 0.60049 0.98 0.26995 0.0
H1556 H 0.56038 0.98189 0.28099 0.0
H1557 H 0.54772 0.99415 0.2093 0.0
H1558 H 0.58771 0.99244 0.19822 0.0
H1559 H 0.5018 0.95328 0.23218 0.0
H1560 H 0.57063 0.04512 0.24374 0.0
H1561 H 0.61266 0.08103 0.26029 0.0
H1562 H 0.58145 0.05666 0.32918 0.0
H1563 H 0.53935 0.02033 0.31303 0.0
C1564 C 0.41115 0.98415 0.25796 0.0
C1565 C 0.4046 0.9854 0.28124 0.0
C1566 C 0.43535 0.98555 0.2523 0.0
C1567 C 0.45317 0.98746 0.26984 0.0
C1568 C 0.44693 0.98943 0.29307 0.0
C1569 C 0.42294 0.98852 0.29871 0.0
C1570 C 0.47805 0.98693 0.26402 0.0
C1571 C 0.50253 0.00688 0.27312 0.0
C1572 C 0.4778 0.96714 0.24929 0.0
C1573 C 0.45256 0.9441 0.24073 0.0
C1574 C 0.43249 0.92731 0.25642 0.0
C1575 C 0.40868 0.90577 0.24825 0.0
C1576 C 0.40478 0.90066 0.22443 0.0
C1577 C 0.42473 0.91706 0.20874 0.0
C1578 C 0.44857 0.93867 0.21682 0.0
C1579 C 0.58919 0.98323 0.25661 0.0
C1580 C 0.59733 0.98627 0.23326 0.0
C1581 C 0.56638 0.98439 0.26292 0.0
C1582 C 0.55117 0.98826 0.24595 0.0
C1583 C 0.55923 0.99122 0.22266 0.0
C1584 C 0.58218 0.99044 0.21639 0.0
C1585 C 0.52643 0.98856 0.2523 0.0
C1586 C 0.50202 0.96852 0.24333 0.0
C1587 C 0.5267 0.00794 0.26746 0.0
C1588 C 0.55195 0.02984 0.27718 0.0
C1589 C 0.57282 0.04727 0.26242 0.0
C1590 C 0.59664 0.06773 0.27173 0.0
C1591 C 0.59975 0.07108 0.29578 0.0
C1592 C 0.57902 0.05401 0.31056 0.0
C1593 C 0.55517 0.0335 0.30133 0.0
H1594 H 0.61821 0.08694 0.30295 0.0
H1595 H 0.38633 0.88397 0.21814 0.0
H1596 H 0.33466 0.3955 0.75265 0.0
H1597 H 0.33952 0.38892 0.71141 0.0
H1598 H 0.32924 0.31124 0.72628 0.0
H1599 H 0.32418 0.31757 0.76766 0.0
H1600 H 0.37959 0.37619 0.69249 0.0
H1601 H 0.29364 0.28157 0.70037 0.0
H1602 H 0.24676 0.25549 0.71342 0.0
H1603 H 0.23024 0.31371 0.68328 0.0
H1604 H 0.27725 0.34044 0.67065 0.0
H1605 H 0.39277 0.32927 0.58311 0.0
H1606 H 0.3856 0.33413 0.62418 0.0
H1607 H 0.31738 0.34226 0.60634 0.0
H1608 H 0.32379 0.33585 0.56529 0.0
H1609 H 0.30518 0.31295 0.64196 0.0
H1610 H 0.38071 0.39708 0.62259 0.0
H1611 H 0.42545 0.4281 0.60695 0.0
H1612 H 0.46081 0.39919 0.65628 0.0
H1613 H 0.41622 0.36774 0.67203 0.0
C1614 C 0.33354 0.37706 0.74719 0.0
C1615 C 0.329 0.35702 0.76341 0.0
C1616 C 0.3361 0.37326 0.72361 0.0
C1617 C 0.3341 0.34937 0.71582 0.0
C1618 C 0.32996 0.32945 0.73192 0.0
C1619 C 0.32723 0.33316 0.75553 0.0
C1620 C 0.33801 0.34612 0.69097 0.0
C1621 C 0.36347 0.36214 0.68142 0.0
C1622 C 0.31672 0.32861 0.67649 0.0
C1623 C 0.28896 0.31319 0.68503 0.0
C1624 C 0.2801 0.289 0.69692 0.0
C1625 C 0.2535 0.27406 0.70415 0.0
C1626 C 0.23554 0.28296 0.69921 0.0
C1627 C 0.24416 0.30684 0.6871 0.0
C1628 C 0.2708 0.32196 0.68004 0.0
C1629 C 0.37638 0.33227 0.58801 0.0
C1630 C 0.35888 0.33227 0.57113 0.0
C1631 C 0.37232 0.33514 0.61146 0.0
C1632 C 0.35122 0.33906 0.61839 0.0
C1633 C 0.33378 0.33923 0.60146 0.0
C1634 C 0.33746 0.33566 0.57804 0.0
C1635 C 0.34711 0.34257 0.64331 0.0
C1636 C 0.32154 0.32683 0.6529 0.0
C1637 C 0.36824 0.36092 0.6577 0.0
C1638 C 0.3951 0.37989 0.64835 0.0
C1639 C 0.39801 0.39722 0.63 0.0
C1640 C 0.42334 0.41489 0.62113 0.0
C1641 C 0.44595 0.41557 0.63058 0.0
C1642 C 0.44327 0.39862 0.64896 0.0
C1643 C 0.41798 0.38089 0.65789 0.0
H1644 H 0.46554 0.42927 0.62368 0.0
H1645 H 0.21495 0.27135 0.70479 0.0
H1646 H 0.00728 0.37417 0.73933 0.0
H1647 H 0.99838 0.36867 0.78101 0.0
H1648 H 0.03409 0.31857 0.78502 0.0
H1649 H 0.04159 0.32298 0.74303 0.0
H1650 H 0.99614 0.29908 0.81219 0.0
H1651 H 0.06825 0.38904 0.80703 0.0
H1652 H 0.0932 0.43486 0.79127 0.0
H1653 H 0.0287 0.44794 0.81004 0.0
H1654 H 1.00328 0.40202 0.82549 0.0
H1655 H 0.00917 0.31486 0.93604 0.0
H1656 H 0.01973 0.31814 0.89475 0.0
H1657 H 0.96647 0.3486 0.8814 0.0
H1658 H 0.95534 0.34502 0.92243 0.0
H1659 H 0.01659 0.37824 0.86034 0.0
H1660 H 0.94595 0.28375 0.86649 0.0
H1661 H 0.92686 0.23864 0.88352 0.0
H1662 H 0.99834 0.23698 0.86659 0.0
H1663 H 0.01771 0.28189 0.84917 0.0
C1664 C 0.01318 0.362 0.7492 0.0
C1665 C 0.02519 0.3491 0.73809 0.0
C1666 C 0.00837 0.35906 0.77306 0.0
C1667 C 0.01638 0.34394 0.78648 0.0
C1668 C 0.02784 0.3305 0.77521 0.0
C1669 C 0.03208 0.33294 0.75121 0.0
C1670 C 0.01234 0.34182 0.81212 0.0
C1671 C 1.00106 0.31653 0.82267 0.0
C1672 C 0.01866 0.36442 0.8261 0.0
C1673 C 0.03376 0.39203 0.81698 0.0
C1674 C 0.05932 0.40163 0.80746 0.0
C1675 C 0.07356 0.42762 0.79868 0.0
C1676 C 0.06248 0.44427 0.79954 0.0
C1677 C 0.03721 0.435 0.80931 0.0
C1678 C 0.0229 0.409 0.8181 0.0
C1679 C 0.99942 0.32199 0.9244 0.0
C1680 C 0.98123 0.32954 0.93277 0.0
C1681 C 1.00556 0.32389 0.90076 0.0
C1682 C 0.99369 0.33338 0.88506 0.0
C1683 C 0.97586 0.34125 0.8933 0.0
C1684 C 0.96965 0.33931 0.91687 0.0
C1685 C 1.00011 0.33563 0.86002 0.0
C1686 C 0.01187 0.36093 0.8497 0.0
C1687 C 0.9951 0.31323 0.84647 0.0
C1688 C 0.98327 0.28614 0.85663 0.0
C1689 C 0.95758 0.27375 0.86644 0.0
C1690 C 0.94672 0.24824 0.87615 0.0
C1691 C 0.96143 0.23504 0.87626 0.0
C1692 C 0.98696 0.24722 0.86649 0.0
C1693 C 0.99784 0.27263 0.85659 0.0
H1694 H 0.95301 0.21534 0.88387 0.0
H1695 H 0.07352 0.46438 0.79274 0.0
H1696 H 0.70215 0.99866 0.90242 0.0
H1697 H 0.70119 0.98854 0.94352 0.0
H1698 H 0.66039 0.03216 0.95821 0.0
H1699 H 0.66246 0.04371 0.91756 0.0
H1700 H 0.69882 0.04534 0.98804 0.0
H1701 H 0.62926 0.96215 0.95618 0.0
H1702 H 0.61084 0.92306 0.93017 0.0
H1703 H 0.66417 0.89927 0.95934 0.0
H1704 H 0.68333 0.93855 0.98517 0.0
H1705 H 0.63748 0.99313 0.09683 0.0
H1706 H 0.64533 1.00246 0.05515 0.0
H1707 H 0.70189 0.97441 0.05575 0.0
H1708 H 0.69438 0.96549 0.09765 0.0
H1709 H 0.66071 0.95318 0.0187 0.0
H1710 H 0.7285 0.0351 0.05173 0.0
H1711 H 0.74673 0.07407 0.07785 0.0
H1712 H 0.69554 0.09947 0.04678 0.0
H1713 H 0.67667 0.06038 0.02071 0.0
C1714 C 0.69306 0.0063 0.91426 0.0
C1715 C 0.68255 0.02227 0.90633 0.0
C1716 C 0.69225 1.00013 0.93782 0.0
C1717 C 0.68054 0.00938 0.95394 0.0
C1718 C 0.66961 0.02485 0.9461 0.0
C1719 C 0.67059 0.03123 0.92264 0.0
C1720 C 0.68008 1.00359 0.9791 0.0
C1721 C 0.69022 0.02514 0.9947 0.0
C1722 C 0.66974 0.97729 0.9878 0.0
C1723 C 0.658 0.95352 0.9724 0.0
C1724 C 0.63725 0.94873 0.9569 0.0
C1725 C 0.62666 0.92652 0.94219 0.0
C1726 C 0.63642 0.90876 0.94302 0.0
C1727 C 0.65667 0.91307 0.95867 0.0
C1728 C 0.66742 0.93532 0.97334 0.0
C1729 C 0.65159 0.98902 0.08802 0.0
C1730 C 0.66546 0.97879 0.10034 0.0
C1731 C 0.65611 0.9944 0.06433 0.0
C1732 C 0.67425 0.9892 0.05251 0.0
C1733 C 0.68789 0.97861 0.06467 0.0
C1734 C 0.68375 0.97373 0.08851 0.0
C1735 C 0.67871 0.99484 0.02739 0.0
C1736 C 0.66944 0.97333 0.01189 0.0
C1737 C 0.68972 0.02111 0.01873 0.0
C1738 C 0.70098 0.04464 0.03441 0.0
C1739 C 0.72092 0.04883 0.05062 0.0
C1740 C 0.73142 0.07099 0.06539 0.0
C1741 C 0.72226 0.0892 0.06402 0.0
C1742 C 0.7026 0.08532 0.04784 0.0
C1743 C 0.69201 0.06318 0.03305 0.0
H1744 H 0.73043 0.10636 0.07545 0.0
H1745 H 0.62823 0.8916 0.9316 0.0
H1746 H 0.636 0.63773 0.0761 0.0
H1747 H 0.63857 0.63679 0.1186 0.0
H1748 H 0.6662 0.72136 0.12097 0.0
H1749 H 0.66382 0.72195 0.07827 0.0
H1750 H 0.69415 0.71006 0.15023 0.0
H1751 H 0.60203 0.67554 0.13616 0.0
H1752 H 0.55796 0.6473 0.11811 0.0
H1753 H 0.55552 0.57708 0.14567 0.0
H1754 H 0.59978 0.60486 0.16361 0.0
H1755 H 0.67854 0.69711 0.27437 0.0
H1756 H 0.672 0.70643 0.23413 0.0
H1757 H 0.65137 0.62631 0.21467 0.0
H1758 H 0.65809 0.61697 0.25451 0.0
H1759 H 0.61742 0.64149 0.19556 0.0
H1760 H 0.71374 0.67888 0.20554 0.0
H1761 H 0.75624 0.70887 0.22524 0.0
H1762 H 0.74855 0.77667 0.20646 0.0
H1763 H 0.7057 0.74694 0.18698 0.0
C1764 C 0.6427 0.65601 0.08585 0.0
C1765 C 0.65026 0.68006 0.07429 0.0
C1766 C 0.64403 0.65552 0.11003 0.0
C1767 C 0.65229 0.67897 0.12302 0.0
C1768 C 0.65989 0.70306 0.11134 0.0
C1769 C 0.65878 0.70352 0.08712 0.0
C1770 C 0.65316 0.67817 0.14874 0.0
C1771 C 0.6772 0.69538 0.16018 0.0
C1772 C 0.63103 0.65915 0.16179 0.0
C1773 C 0.60433 0.6423 0.15111 0.0
C1774 C 0.59219 0.65406 0.13824 0.0
C1775 C 0.56716 0.63814 0.12804 0.0
C1776 C 0.55397 0.61041 0.13071 0.0
C1777 C 0.56577 0.59856 0.14361 0.0
C1778 C 0.59082 0.61439 0.15383 0.0
C1779 C 0.67269 0.68153 0.2615 0.0
C1780 C 0.66886 0.65628 0.2677 0.0
C1781 C 0.66887 0.68685 0.23856 0.0
C1782 C 0.6613 0.66707 0.22144 0.0
C1783 C 0.65702 0.64179 0.22766 0.0
C1784 C 0.66082 0.63646 0.25051 0.0
C1785 C 0.65862 0.6726 0.19678 0.0
C1786 C 0.63419 0.65637 0.18558 0.0
C1787 C 0.68022 0.69279 0.18405 0.0
C1788 C 0.70643 0.71068 0.19501 0.0
C1789 C 0.72108 0.70017 0.20568 0.0
C1790 C 0.74524 0.71714 0.21681 0.0
C1791 C 0.7551 0.74469 0.21714 0.0
C1792 C 0.74088 0.75533 0.20622 0.0
C1793 C 0.71666 0.73844 0.19513 0.0
H1794 H 0.77374 0.7578 0.22585 0.0
H1795 H 0.53459 0.59812 0.1228 0.0
H1796 H 0.00703 0.63535 0.23796 0.0
H1797 H 0.01997 0.64313 0.27881 0.0
H1798 H 0.01061 0.71264 0.27885 0.0
H1799 H 0.99749 0.70487 0.23787 0.0
H1800 H 0.0534 0.71893 0.30692 0.0
H1801 H 0.96016 0.65826 0.29745 0.0
H1802 H 0.92025 0.61957 0.28101 0.0
H1803 H 0.94629 0.56693 0.30766 0.0
H1804 H 0.98652 0.60545 0.3242 0.0
H1805 H 0.03348 0.71759 0.42915 0.0
H1806 H 0.02715 0.71714 0.38732 0.0
H1807 H 0.0317 0.64509 0.38178 0.0
H1808 H 0.03682 0.64465 0.42381 0.0
H1809 H 0.99127 0.64244 0.35632 0.0
H1810 H 0.08553 0.70713 0.36755 0.0
H1811 H 0.12138 0.74735 0.38659 0.0
H1812 H 0.08988 0.79456 0.35797 0.0
H1813 H 0.05368 0.75457 0.33893 0.0
C1814 C 0.00793 0.65241 0.2466 0.0
C1815 C 1.00067 0.66914 0.23486 0.0
C1816 C 0.01548 0.65693 0.26987 0.0
C1817 C 0.01573 0.67815 0.2819 0.0
C1818 C 0.01043 0.6961 0.26984 0.0
C1819 C 1.00294 0.69162 0.24645 0.0
C1820 C 0.01859 0.67963 0.30746 0.0
C1821 C 0.03975 0.70235 0.31778 0.0
C1822 C 1.00066 0.65802 0.32157 0.0
C1823 C 0.97645 0.63474 0.31185 0.0
C1824 C 0.95746 0.63845 0.29966 0.0
C1825 C 0.93477 0.61655 0.29034 0.0
C1826 C 0.93077 0.59079 0.29317 0.0
C1827 C 0.94943 0.58689 0.30544 0.0
C1828 C 0.97216 0.60875 0.31484 0.0
C1829 C 0.03277 0.70139 0.41919 0.0
C1830 C 0.03575 0.68115 0.42996 0.0
C1831 C 0.0295 0.70139 0.39517 0.0
C1832 C 0.02947 0.68136 0.38141 0.0
C1833 C 0.0319 0.66087 0.39209 0.0
C1834 C 0.03502 0.66075 0.41611 0.0
C1835 C 0.02648 0.68143 0.35587 0.0
C1836 C 1.00511 0.65899 0.34551 0.0
C1837 C 0.04395 0.70351 0.34189 0.0
C1838 C 0.06675 0.72781 0.35202 0.0
C1839 C 0.08626 0.72609 0.36532 0.0
C1840 C 0.1066 0.74884 0.37615 0.0
C1841 C 0.10771 0.77343 0.37369 0.0
C1842 C 0.08887 0.77545 0.35997 0.0
C1843 C 0.06848 0.75277 0.34911 0.0
H1844 H 0.12318 0.79093 0.38239 0.0
H1845 H 0.91319 0.57386 0.28591 0.0
H1846 H 0.28997 0.98836 0.60823 0.0
H1847 H 0.27504 0.97801 0.56796 0.0
H1848 H 0.35696 0.01919 0.54493 0.0
H1849 H 0.3721 0.03022 0.58455 0.0
H1850 H 0.32676 0.03592 0.52181 0.0
H1851 H 0.31915 0.94824 0.54227 0.0
H1852 H 0.30049 0.90732 0.56615 0.0
H1853 H 0.22106 0.89236 0.55278 0.0
H1854 H 0.23934 0.93297 0.52844 0.0
H1855 H 0.35223 0.99394 0.4171 0.0
H1856 H 0.34611 1.00107 0.45803 0.0
H1857 H 0.2611 0.96434 0.44719 0.0
H1858 H 0.26734 0.95769 0.40589 0.0
H1859 H 0.27828 0.9451 0.48747 0.0
H1860 H 0.28759 0.02337 0.45469 0.0
H1861 H 0.30592 0.06293 0.42942 0.0
H1862 H 0.37974 0.0983 0.46731 0.0
H1863 H 0.36239 0.05832 0.49214 0.0
C1864 C 0.30489 0.99531 0.59468 0.0
C1865 C 0.33236 0.0106 0.59995 0.0
C1866 C 0.29625 0.9891 0.57163 0.0
C1867 C 0.31491 0.99804 0.55346 0.0
C1868 C 0.34221 0.01232 0.55869 0.0
C1869 C 0.35085 0.01844 0.58158 0.0
C1870 C 0.30659 0.99367 0.5288 0.0
C1871 C 0.31615 0.01609 0.51424 0.0
C1872 C 0.29145 0.96785 0.51917 0.0
C1873 C 0.28055 0.94354 0.53367 0.0
C1874 C 0.29771 0.93617 0.54444 0.0
C1875 C 0.28721 0.913 0.55796 0.0
C1876 C 0.25959 0.89722 0.56095 0.0
C1877 C 0.24243 0.90452 0.55035 0.0
C1878 C 0.25283 0.92751 0.5366 0.0
C1879 C 0.33231 0.98756 0.42348 0.0
C1880 C 0.31029 0.97545 0.4085 0.0
C1881 C 0.32881 0.99166 0.44674 0.0
C1882 C 0.30318 0.98334 0.4555 0.0
C1883 C 0.28102 0.97098 0.44065 0.0
C1884 C 0.28462 0.96738 0.41716 0.0
C1885 C 0.30011 0.98737 0.48038 0.0
C1886 C 0.28826 0.96497 0.495 0.0
C1887 C 0.31295 0.01331 0.49008 0.0
C1888 C 0.32368 0.03761 0.47523 0.0
C1889 C 0.30788 0.03938 0.45748 0.0
C1890 C 0.3181 0.06192 0.44321 0.0
C1891 C 0.34395 0.08318 0.4468 0.0
C1892 C 0.3597 0.08182 0.46456 0.0
C1893 C 0.3497 0.05915 0.4787 0.0
H1894 H 0.35174 0.1007 0.43582 0.0
H1895 H 0.2515 0.87938 0.57153 0.0
loop_
_geom_bond_atom_site_label_1
_geom_bond_atom_site_label_2
_geom_bond_distance
_geom_bond_site_symmetry_2
_ccdc_geom_bond_type
Co0 N4 2.148 . S
Co0 N10 2.128 . S
Co0 N20 2.194 . S
Co0 O25 2.351 . S
Co0 O26 2.155 . S
Co0 O27 2.096 . S
C1 N4 1.301 . S
C1 N5 1.328 . S
C1 H6 0.930 . S
C2 C3 1.333 . S
C2 N4 1.317 . S
C2 H7 0.930 . S
C3 C2 1.333 . S
C3 N5 1.350 . S
C3 H29 0.931 . S
N4 Co0 2.148 . S
N4 C1 1.301 . S
N4 C2 1.317 . S
N5 C1 1.328 . S
N5 C3 1.350 . S
H6 C1 0.930 . S
H7 C2 0.930 . S
C8 O9 1.224 . S
C8 O27 1.247 . S
O9 C8 1.224 . S
N10 Co0 2.128 . S
N10 C11 1.355 . S
N10 C13 1.311 . S
C11 N10 1.355 . S
C11 C12 1.363 . S
C11 H23 0.929 . S
C12 C11 1.363 . S
C12 N14 1.375 . S
C12 H30 0.931 . S
C13 N10 1.311 . S
C13 N14 1.347 . S
C13 H24 0.929 . S
N14 C12 1.375 . S
N14 C13 1.347 . S
C15 C18 1.365 . S
C15 N20 1.328 . S
C15 H21 0.929 . S
C16 C17 1.362 . S
C16 C19 1.378 . S
C16 H31 0.929 . S
C17 C16 1.362 . S
C17 C18 1.366 . S
C18 C15 1.365 . S
C18 C17 1.366 . S
C18 H32 0.930 . S
C19 C16 1.378 . S
C19 N20 1.315 . S
C19 H22 0.930 . S
N20 Co0 2.194 . S
N20 C15 1.328 . S
N20 C19 1.315 . S
H21 C15 0.929 . S
H22 C19 0.930 . S
H23 C11 0.929 . S
H24 C13 0.929 . S
O25 Co0 2.351 . S
O25 C28 1.244 . S
O26 Co0 2.155 . S
O26 C28 1.240 . S
O27 Co0 2.096 . S
O27 C8 1.247 . S
C28 O25 1.244 . S
C28 O26 1.240 . S
H29 C3 0.931 . S
H30 C12 0.931 . S
H31 C16 0.929 . S
H32 C18 0.930 . S
Co33 N37 2.148 . S
Co33 N43 2.128 . S
Co33 N53 2.194 . S
Co33 O58 2.351 . S
Co33 O59 2.155 . S
Co33 O60 2.096 . S
C34 N37 1.301 . S
C34 N38 1.328 . S
C34 H39 0.930 . S
C35 C36 1.333 . S
C35 N37 1.317 . S
C35 H40 0.930 . S
C36 C35 1.333 . S
C36 N38 1.350 . S
C36 H62 0.931 . S
N37 Co33 2.148 . S
N37 C34 1.301 . S
N37 C35 1.317 . S
N38 C34 1.328 . S
N38 C36 1.350 . S
H39 C34 0.930 . S
H40 C35 0.930 . S
C41 O42 1.224 . S
C41 O60 1.247 1_655 S
O42 C41 1.224 . S
N43 Co33 2.128 . S
N43 C44 1.355 . S
N43 C46 1.311 . S
C44 N43 1.355 . S
C44 C45 1.363 . S
C44 H56 0.929 . S
C45 C44 1.363 . S
C45 N47 1.375 . S
C45 H63 0.931 . S
C46 N43 1.311 . S
C46 N47 1.347 . S
C46 H57 0.929 . S
N47 C45 1.375 . S
N47 C46 1.347 . S
C48 C51 1.365 . S
C48 N53 1.328 . S
C48 H54 0.929 . S
C49 C50 1.362 . S
C49 C52 1.378 . S
C49 H64 0.929 . S
C50 C49 1.362 . S
C50 C51 1.366 . S
C51 C48 1.365 . S
C51 C50 1.366 . S
C51 H65 0.930 . S
C52 C49 1.378 . S
C52 N53 1.315 . S
C52 H55 0.930 . S
N53 Co33 2.194 . S
N53 C48 1.328 . S
N53 C52 1.315 . S
H54 C48 0.929 . S
H55 C52 0.930 . S
H56 C44 0.929 . S
H57 C46 0.929 . S
O58 Co33 2.351 . S
O58 C61 1.244 . S
O59 Co33 2.155 . S
O59 C61 1.240 . S
O60 Co33 2.096 . S
O60 C41 1.247 1_455 S
C61 O58 1.244 . S
C61 O59 1.240 . S
H62 C36 0.931 . S
H63 C45 0.931 . S
H64 C49 0.929 . S
H65 C51 0.930 . S
Co66 N70 2.148 . S
Co66 N76 2.128 . S
Co66 N86 2.194 . S
Co66 O91 2.351 . S
Co66 O92 2.155 . S
Co66 O93 2.096 . S
C67 N70 1.301 . S
C67 N71 1.328 . S
C67 H72 0.930 . S
C68 C69 1.333 . S
C68 N70 1.317 . S
C68 H73 0.930 . S
C69 C68 1.333 . S
C69 N71 1.350 . S
C69 H95 0.931 . S
N70 Co66 2.148 . S
N70 C67 1.301 . S
N70 C68 1.317 . S
N71 C67 1.328 . S
N71 C69 1.350 . S
H72 C67 0.930 . S
H73 C68 0.930 . S
C74 O75 1.224 . S
C74 O93 1.247 1_565 S
O75 C74 1.224 . S
N76 Co66 2.128 . S
N76 C77 1.355 . S
N76 C79 1.311 . S
C77 N76 1.355 . S
C77 C78 1.363 . S
C77 H89 0.929 . S
C78 C77 1.363 . S
C78 N80 1.375 . S
C78 H96 0.931 . S
C79 N76 1.311 . S
C79 N80 1.347 . S
C79 H90 0.929 . S
N80 C78 1.375 . S
N80 C79 1.347 . S
C81 C84 1.365 . S
C81 N86 1.328 . S
C81 H87 0.929 . S
C82 C83 1.362 . S
C82 C85 1.378 . S
C82 H97 0.929 . S
C83 C82 1.362 . S
C83 C84 1.366 . S
C84 C81 1.365 . S
C84 C83 1.366 . S
C84 H98 0.930 . S
C85 C82 1.378 . S
C85 N86 1.315 . S
C85 H88 0.930 . S
N86 Co66 2.194 . S
N86 C81 1.328 . S
N86 C85 1.315 . S
H87 C81 0.929 . S
H88 C85 0.930 . S
H89 C77 0.929 . S
H90 C79 0.929 . S
O91 Co66 2.351 . S
O91 C94 1.244 . S
O92 Co66 2.155 . S
O92 C94 1.240 . S
O93 Co66 2.096 . S
O93 C74 1.247 1_545 S
C94 O91 1.244 . S
C94 O92 1.240 . S
H95 C69 0.931 . S
H96 C78 0.931 . S
H97 C82 0.929 . S
H98 C84 0.930 . S
Co99 N103 2.148 1_554 S
Co99 N109 2.128 . S
Co99 N119 2.194 1_554 S
Co99 O124 2.351 . S
Co99 O125 2.155 . S
Co99 O126 2.096 . S
C100 N103 1.301 . S
C100 N104 1.328 . S
C100 H105 0.930 . S
C101 C102 1.333 . S
C101 N103 1.317 . S
C101 H106 0.930 . S
C102 C101 1.333 . S
C102 N104 1.350 . S
C102 H128 0.931 . S
N103 Co99 2.148 1_556 S
N103 C100 1.301 . S
N103 C101 1.317 . S
N104 C100 1.328 . S
N104 C102 1.350 . S
H105 C100 0.930 . S
H106 C101 0.930 . S
C107 O108 1.224 1_554 S
C107 O126 1.247 . S
O108 C107 1.224 1_556 S
N109 Co99 2.128 . S
N109 C110 1.355 . S
N109 C112 1.311 . S
C110 N109 1.355 . S
C110 C111 1.363 . S
C110 H122 0.929 . S
C111 C110 1.363 . S
C111 N113 1.375 . S
C111 H129 0.931 . S
C112 N109 1.311 . S
C112 N113 1.347 . S
C112 H123 0.929 . S
N113 C111 1.375 . S
N113 C112 1.347 . S
C114 C117 1.365 . S
C114 N119 1.328 . S
C114 H120 0.929 . S
C115 C116 1.362 . S
C115 C118 1.378 . S
C115 H130 0.929 . S
C116 C115 1.362 . S
C116 C117 1.366 . S
C117 C114 1.365 . S
C117 C116 1.366 . S
C117 H131 0.930 . S
C118 C115 1.378 . S
C118 N119 1.315 . S
C118 H121 0.930 . S
N119 Co99 2.194 1_556 S
N119 C114 1.328 . S
N119 C118 1.315 . S
H120 C114 0.929 . S
H121 C118 0.930 . S
H122 C110 0.929 . S
H123 C112 0.929 . S
O124 Co99 2.351 . S
O124 C127 1.244 . S
O125 Co99 2.155 . S
O125 C127 1.240 . S
O126 Co99 2.096 . S
O126 C107 1.247 . S
C127 O124 1.244 . S
C127 O125 1.240 . S
H128 C102 0.931 . S
H129 C111 0.931 . S
H130 C115 0.929 . S
H131 C117 0.930 . S
Co132 N136 2.148 . S
Co132 N142 2.128 . S
Co132 N152 2.194 . S
Co132 O157 2.351 . S
Co132 O158 2.155 . S
Co132 O159 2.096 . S
C133 N136 1.301 . S
C133 N137 1.328 . S
C133 H138 0.930 . S
C134 C135 1.333 . S
C134 N136 1.317 . S
C134 H139 0.930 . S
C135 C134 1.333 . S
C135 N137 1.350 . S
C135 H161 0.931 . S
N136 Co132 2.148 . S
N136 C133 1.301 . S
N136 C134 1.317 . S
N137 C133 1.328 . S
N137 C135 1.350 . S
H138 C133 0.930 . S
H139 C134 0.930 . S
C140 O141 1.224 . S
C140 O159 1.247 1_455 S
O141 C140 1.224 . S
N142 Co132 2.128 . S
N142 C143 1.355 . S
N142 C145 1.311 . S
C143 N142 1.355 . S
C143 C144 1.363 . S
C143 H155 0.929 . S
C144 C143 1.363 . S
C144 N146 1.375 . S
C144 H162 0.931 . S
C145 N142 1.311 . S
C145 N146 1.347 . S
C145 H156 0.929 . S
N146 C144 1.375 . S
N146 C145 1.347 . S
C147 C150 1.365 . S
C147 N152 1.328 . S
C147 H153 0.929 . S
C148 C149 1.362 . S
C148 C151 1.378 . S
C148 H163 0.929 . S
C149 C148 1.362 . S
C149 C150 1.366 . S
C150 C147 1.365 . S
C150 C149 1.366 . S
C150 H164 0.930 . S
C151 C148 1.378 . S
C151 N152 1.315 . S
C151 H154 0.930 . S
N152 Co132 2.194 . S
N152 C147 1.328 . S
N152 C151 1.315 . S
H153 C147 0.929 . S
H154 C151 0.930 . S
H155 C143 0.929 . S
H156 C145 0.929 . S
O157 Co132 2.351 . S
O157 C160 1.244 . S
O158 Co132 2.155 . S
O158 C160 1.240 . S
O159 Co132 2.096 . S
O159 C140 1.247 1_655 S
C160 O157 1.244 . S
C160 O158 1.240 . S
H161 C135 0.931 . S
H162 C144 0.931 . S
H163 C148 0.929 . S
H164 C150 0.930 . S
Co165 N169 2.148 . S
Co165 N175 2.128 . S
Co165 N185 2.194 . S
Co165 O190 2.351 . S
Co165 O191 2.155 . S
Co165 O192 2.096 . S
C166 N169 1.301 . S
C166 N170 1.328 . S
C166 H171 0.930 . S
C167 C168 1.333 . S
C167 N169 1.317 . S
C167 H172 0.930 . S
C168 C167 1.333 . S
C168 N170 1.350 . S
C168 H194 0.931 . S
N169 Co165 2.148 . S
N169 C166 1.301 . S
N169 C167 1.317 . S
N170 C166 1.328 . S
N170 C168 1.350 . S
H171 C166 0.930 . S
H172 C167 0.930 . S
C173 O174 1.224 . S
C173 O192 1.247 1_545 S
O174 C173 1.224 . S
N175 Co165 2.128 . S
N175 C176 1.355 . S
N175 C178 1.311 . S
C176 N175 1.355 . S
C176 C177 1.363 . S
C176 H188 0.929 . S
C177 C176 1.363 . S
C177 N179 1.375 . S
C177 H195 0.931 . S
C178 N175 1.311 . S
C178 N179 1.347 . S
C178 H189 0.929 . S
N179 C177 1.375 . S
N179 C178 1.347 . S
C180 C183 1.365 . S
C180 N185 1.328 . S
C180 H186 0.929 . S
C181 C182 1.362 . S
C181 C184 1.378 . S
C181 H196 0.929 . S
C182 C181 1.362 . S
C182 C183 1.366 . S
C183 C180 1.365 . S
C183 C182 1.366 . S
C183 H197 0.930 . S
C184 C181 1.378 . S
C184 N185 1.315 . S
C184 H187 0.930 . S
N185 Co165 2.194 . S
N185 C180 1.328 . S
N185 C184 1.315 . S
H186 C180 0.929 . S
H187 C184 0.930 . S
H188 C176 0.929 . S
H189 C178 0.929 . S
O190 Co165 2.351 . S
O190 C193 1.244 . S
O191 Co165 2.155 . S
O191 C193 1.240 . S
O192 Co165 2.096 . S
O192 C173 1.247 1_565 S
C193 O190 1.244 . S
C193 O191 1.240 . S
H194 C168 0.931 . S
H195 C177 0.931 . S
H196 C181 0.929 . S
H197 C183 0.930 . S
Co198 N202 2.148 . S
Co198 N208 2.128 . S
Co198 N218 2.194 . S
Co198 O223 2.351 . S
Co198 O224 2.155 . S
Co198 O225 2.096 . S
C199 N202 1.301 . S
C199 N203 1.328 . S
C199 H204 0.930 . S
C200 C201 1.333 . S
C200 N202 1.317 . S
C200 H205 0.930 . S
C201 C200 1.333 . S
C201 N203 1.350 . S
C201 H227 0.931 . S
N202 Co198 2.148 . S
N202 C199 1.301 . S
N202 C200 1.317 . S
N203 C199 1.328 . S
N203 C201 1.350 . S
H204 C199 0.930 . S
H205 C200 0.930 . S
C206 O207 1.224 . S
C206 O225 1.247 . S
O207 C206 1.224 . S
N208 Co198 2.128 . S
N208 C209 1.355 . S
N208 C211 1.311 . S
C209 N208 1.355 . S
C209 C210 1.363 . S
C209 H221 0.929 . S
C210 C209 1.363 . S
C210 N212 1.375 . S
C210 H228 0.931 . S
C211 N208 1.311 . S
C211 N212 1.347 . S
C211 H222 0.929 . S
N212 C210 1.375 . S
N212 C211 1.347 . S
C213 C216 1.365 . S
C213 N218 1.328 . S
C213 H219 0.929 . S
C214 C215 1.362 . S
C214 C217 1.378 . S
C214 H229 0.929 . S
C215 C214 1.362 . S
C215 C216 1.366 . S
C216 C213 1.365 . S
C216 C215 1.366 . S
C216 H230 0.930 . S
C217 C214 1.378 . S
C217 N218 1.315 . S
C217 H220 0.930 . S
N218 Co198 2.194 . S
N218 C213 1.328 . S
N218 C217 1.315 . S
H219 C213 0.929 . S
H220 C217 0.930 . S
H221 C209 0.929 . S
H222 C211 0.929 . S
O223 Co198 2.351 . S
O223 C226 1.244 . S
O224 Co198 2.155 . S
O224 C226 1.240 . S
O225 Co198 2.096 . S
O225 C206 1.247 . S
C226 O223 1.244 . S
C226 O224 1.240 . S
H227 C201 0.931 . S
H228 C210 0.931 . S
H229 C214 0.929 . S
H230 C216 0.930 . S
Co231 N235 2.148 . S
Co231 N241 2.128 . S
Co231 N251 2.194 . S
Co231 O256 2.351 . S
Co231 O257 2.155 . S
Co231 O258 2.096 . S
C232 N235 1.301 . S
C232 N236 1.328 . S
C232 H237 0.930 . S
C233 C234 1.333 . S
C233 N235 1.317 . S
C233 H238 0.930 . S
C234 C233 1.333 . S
C234 N236 1.350 . S
C234 H260 0.931 . S
N235 Co231 2.148 . S
N235 C232 1.301 . S
N235 C233 1.317 . S
N236 C232 1.328 . S
N236 C234 1.350 . S
H237 C232 0.930 . S
H238 C233 0.930 . S
C239 O240 1.224 . S
C239 O258 1.247 1_655 S
O240 C239 1.224 . S
N241 Co231 2.128 . S
N241 C242 1.355 . S
N241 C244 1.311 . S
C242 N241 1.355 . S
C242 C243 1.363 . S
C242 H254 0.929 . S
C243 C242 1.363 . S
C243 N245 1.375 . S
C243 H261 0.931 . S
C244 N241 1.311 . S
C244 N245 1.347 . S
C244 H255 0.929 . S
N245 C243 1.375 . S
N245 C244 1.347 . S
C246 C249 1.365 . S
C246 N251 1.328 . S
C246 H252 0.929 . S
C247 C248 1.362 . S
C247 C250 1.378 . S
C247 H262 0.929 . S
C248 C247 1.362 . S
C248 C249 1.366 . S
C249 C246 1.365 . S
C249 C248 1.366 . S
C249 H263 0.930 . S
C250 C247 1.378 . S
C250 N251 1.315 . S
C250 H253 0.930 . S
N251 Co231 2.194 . S
N251 C246 1.328 . S
N251 C250 1.315 . S
H252 C246 0.929 . S
H253 C250 0.930 . S
H254 C242 0.929 . S
H255 C244 0.929 . S
O256 Co231 2.351 . S
O256 C259 1.244 . S
O257 Co231 2.155 . S
O257 C259 1.240 . S
O258 Co231 2.096 . S
O258 C239 1.247 1_455 S
C259 O256 1.244 . S
C259 O257 1.240 . S
H260 C234 0.931 . S
H261 C243 0.931 . S
H262 C247 0.929 . S
H263 C249 0.930 . S
Co264 N268 2.148 . S
Co264 N274 2.128 . S
Co264 N284 2.194 . S
Co264 O289 2.351 . S
Co264 O290 2.155 . S
Co264 O291 2.096 . S
C265 N268 1.301 . S
C265 N269 1.328 . S
C265 H270 0.930 . S
C266 C267 1.333 . S
C266 N268 1.317 . S
C266 H271 0.930 . S
C267 C266 1.333 . S
C267 N269 1.350 . S
C267 H293 0.931 . S
N268 Co264 2.148 . S
N268 C265 1.301 . S
N268 C266 1.317 . S
N269 C265 1.328 . S
N269 C267 1.350 . S
H270 C265 0.930 . S
H271 C266 0.930 . S
C272 O273 1.224 . S
C272 O291 1.247 1_565 S
O273 C272 1.224 . S
N274 Co264 2.128 . S
N274 C275 1.355 . S
N274 C277 1.311 . S
C275 N274 1.355 . S
C275 C276 1.363 . S
C275 H287 0.929 . S
C276 C275 1.363 . S
C276 N278 1.375 . S
C276 H294 0.931 . S
C277 N274 1.311 . S
C277 N278 1.347 . S
C277 H288 0.929 . S
N278 C276 1.375 . S
N278 C277 1.347 . S
C279 C282 1.365 . S
C279 N284 1.328 . S
C279 H285 0.929 . S
C280 C281 1.362 . S
C280 C283 1.378 . S
C280 H295 0.929 . S
C281 C280 1.362 . S
C281 C282 1.366 . S
C282 C279 1.365 . S
C282 C281 1.366 . S
C282 H296 0.930 . S
C283 C280 1.378 . S
C283 N284 1.315 . S
C283 H286 0.930 . S
N284 Co264 2.194 . S
N284 C279 1.328 . S
N284 C283 1.315 . S
H285 C279 0.929 . S
H286 C283 0.930 . S
H287 C275 0.929 . S
H288 C277 0.929 . S
O289 Co264 2.351 . S
O289 C292 1.244 . S
O290 Co264 2.155 . S
O290 C292 1.240 . S
O291 Co264 2.096 . S
O291 C272 1.247 1_545 S
C292 O289 1.244 . S
C292 O290 1.240 . S
H293 C267 0.931 . S
H294 C276 0.931 . S
H295 C280 0.929 . S
H296 C282 0.930 . S
Co297 N301 2.148 . S
Co297 N307 2.128 . S
Co297 N317 2.194 . S
Co297 O322 2.351 . S
Co297 O323 2.155 . S
Co297 O324 2.096 . S
C298 N301 1.301 . S
C298 N302 1.328 . S
C298 H303 0.930 . S
C299 C300 1.333 . S
C299 N301 1.317 . S
C299 H304 0.930 . S
C300 C299 1.333 . S
C300 N302 1.350 . S
C300 H326 0.931 . S
N301 Co297 2.148 . S
N301 C298 1.301 . S
N301 C299 1.317 . S
N302 C298 1.328 . S
N302 C300 1.350 . S
H303 C298 0.930 . S
H304 C299 0.930 . S
C305 O306 1.224 . S
C305 O324 1.247 . S
O306 C305 1.224 . S
N307 Co297 2.128 . S
N307 C308 1.355 . S
N307 C310 1.311 . S
C308 N307 1.355 . S
C308 C309 1.363 . S
C308 H320 0.929 . S
C309 C308 1.363 . S
C309 N311 1.375 . S
C309 H327 0.931 . S
C310 N307 1.311 . S
C310 N311 1.347 . S
C310 H321 0.929 . S
N311 C309 1.375 . S
N311 C310 1.347 . S
C312 C315 1.365 . S
C312 N317 1.328 . S
C312 H318 0.929 . S
C313 C314 1.362 . S
C313 C316 1.378 . S
C313 H328 0.929 . S
C314 C313 1.362 . S
C314 C315 1.366 . S
C315 C312 1.365 . S
C315 C314 1.366 . S
C315 H329 0.930 . S
C316 C313 1.378 . S
C316 N317 1.315 . S
C316 H319 0.930 . S
N317 Co297 2.194 . S
N317 C312 1.328 . S
N317 C316 1.315 . S
H318 C312 0.929 . S
H319 C316 0.930 . S
H320 C308 0.929 . S
H321 C310 0.929 . S
O322 Co297 2.351 . S
O322 C325 1.244 . S
O323 Co297 2.155 . S
O323 C325 1.240 . S
O324 Co297 2.096 . S
O324 C305 1.247 . S
C325 O322 1.244 . S
C325 O323 1.240 . S
H326 C300 0.931 . S
H327 C309 0.931 . S
H328 C313 0.929 . S
H329 C315 0.930 . S
Co330 N334 2.148 . S
Co330 N340 2.128 1_554 S
Co330 N350 2.194 . S
Co330 O355 2.351 1_554 S
Co330 O356 2.155 1_554 S
Co330 O357 2.096 1_554 S
C331 N334 1.301 . S
C331 N335 1.328 . S
C331 H336 0.930 . S
C332 C333 1.333 . S
C332 N334 1.317 . S
C332 H337 0.930 . S
C333 C332 1.333 . S
C333 N335 1.350 . S
C333 H359 0.931 . S
N334 Co330 2.148 . S
N334 C331 1.301 . S
N334 C332 1.317 . S
N335 C331 1.328 . S
N335 C333 1.350 . S
H336 C331 0.930 . S
H337 C332 0.930 . S
C338 O339 1.224 . S
C338 O357 1.247 1_454 S
O339 C338 1.224 . S
N340 Co330 2.128 1_556 S
N340 C341 1.355 . S
N340 C343 1.311 . S
C341 N340 1.355 . S
C341 C342 1.363 . S
C341 H353 0.929 . S
C342 C341 1.363 . S
C342 N344 1.375 . S
C342 H360 0.931 . S
C343 N340 1.311 . S
C343 N344 1.347 . S
C343 H354 0.929 . S
N344 C342 1.375 . S
N344 C343 1.347 . S
C345 C348 1.365 . S
C345 N350 1.328 . S
C345 H351 0.929 . S
C346 C347 1.362 . S
C346 C349 1.378 . S
C346 H361 0.929 . S
C347 C346 1.362 . S
C347 C348 1.366 . S
C348 C345 1.365 . S
C348 C347 1.366 . S
C348 H362 0.930 . S
C349 C346 1.378 . S
C349 N350 1.315 . S
C349 H352 0.930 . S
N350 Co330 2.194 . S
N350 C345 1.328 . S
N350 C349 1.315 . S
H351 C345 0.929 . S
H352 C349 0.930 . S
H353 C341 0.929 . S
H354 C343 0.929 . S
O355 Co330 2.351 1_556 S
O355 C358 1.244 . S
O356 Co330 2.155 1_556 S
O356 C358 1.240 . S
O357 Co330 2.096 1_556 S
O357 C338 1.247 1_656 S
C358 O355 1.244 . S
C358 O356 1.240 . S
H359 C333 0.931 . S
H360 C342 0.931 . S
H361 C346 0.929 . S
H362 C348 0.930 . S
Co363 N367 2.148 . S
Co363 N373 2.128 . S
Co363 N383 2.194 . S
Co363 O388 2.351 . S
Co363 O389 2.155 . S
Co363 O390 2.096 . S
C364 N367 1.301 . S
C364 N368 1.328 . S
C364 H369 0.930 . S
C365 C366 1.333 . S
C365 N367 1.317 . S
C365 H370 0.930 . S
C366 C365 1.333 . S
C366 N368 1.350 . S
C366 H392 0.931 . S
N367 Co363 2.148 . S
N367 C364 1.301 . S
N367 C365 1.317 . S
N368 C364 1.328 . S
N368 C366 1.350 . S
H369 C364 0.930 . S
H370 C365 0.930 . S
C371 O372 1.224 . S
C371 O390 1.247 1_545 S
O372 C371 1.224 . S
N373 Co363 2.128 . S
N373 C374 1.355 . S
N373 C376 1.311 . S
C374 N373 1.355 . S
C374 C375 1.363 . S
C374 H386 0.929 . S
C375 C374 1.363 . S
C375 N377 1.375 . S
C375 H393 0.931 . S
C376 N373 1.311 . S
C376 N377 1.347 . S
C376 H387 0.929 . S
N377 C375 1.375 . S
N377 C376 1.347 . S
C378 C381 1.365 . S
C378 N383 1.328 . S
C378 H384 0.929 . S
C379 C380 1.362 . S
C379 C382 1.378 . S
C379 H394 0.929 . S
C380 C379 1.362 . S
C380 C381 1.366 . S
C381 C378 1.365 . S
C381 C380 1.366 . S
C381 H395 0.930 . S
C382 C379 1.378 . S
C382 N383 1.315 . S
C382 H385 0.930 . S
N383 Co363 2.194 . S
N383 C378 1.328 . S
N383 C382 1.315 . S
H384 C378 0.929 . S
H385 C382 0.930 . S
H386 C374 0.929 . S
H387 C376 0.929 . S
O388 Co363 2.351 . S
O388 C391 1.244 . S
O389 Co363 2.155 . S
O389 C391 1.240 . S
O390 Co363 2.096 . S
O390 C371 1.247 1_565 S
C391 O388 1.244 . S
C391 O389 1.240 . S
H392 C366 0.931 . S
H393 C375 0.931 . S
H394 C379 0.929 . S
H395 C381 0.930 . S
H396 C414 0.951 . S
H397 C416 0.951 . S
H398 C418 0.950 . S
H399 C419 0.950 . S
H400 C421 0.950 . S
H401 C424 0.950 . S
H402 C425 0.950 . S
H403 C427 0.950 . S
H404 C428 0.950 . S
H405 C429 0.951 . S
H406 C431 0.951 . S
H407 C433 0.950 . S
H408 C434 0.950 . S
H409 C436 0.950 . S
H410 C439 0.950 . S
H411 C440 0.950 . S
H412 C442 0.950 . S
H413 C443 0.950 . S
C414 H396 0.951 . S
C414 C415 1.366 . S
C414 C416 1.388 . S
C415 C414 1.366 . S
C415 C419 1.385 . S
C416 H397 0.951 . S
C416 C414 1.388 . S
C416 C417 1.366 . S
C417 C416 1.366 . S
C417 C418 1.414 . S
C417 C420 1.499 . S
C418 H398 0.950 . S
C418 C417 1.414 . S
C418 C419 1.374 . S
C419 H399 0.950 . S
C419 C415 1.385 . S
C419 C418 1.374 . S
C420 C417 1.499 . S
C420 C421 1.373 . S
C420 C422 1.389 . S
C421 H400 0.950 . S
C421 C420 1.373 . S
C421 C437 1.377 . S
C422 C420 1.389 . S
C422 C423 1.524 . S
C422 C436 1.377 . S
C423 C422 1.524 . S
C423 C424 1.397 . S
C423 C428 1.363 . S
C424 H401 0.950 . S
C424 C423 1.397 . S
C424 C425 1.334 . S
C425 H402 0.950 . S
C425 C424 1.334 . S
C425 C426 1.287 . S
C426 C425 1.287 . S
C426 C427 1.524 . S
C426 H445 0.913 . S
C427 H403 0.950 . S
C427 C426 1.524 . S
C427 C428 1.415 . S
C428 H404 0.950 . S
C428 C423 1.363 . S
C428 C427 1.415 . S
C429 H405 0.951 . S
C429 C430 1.366 . S
C429 C431 1.388 . S
C430 C429 1.366 . S
C430 C434 1.385 . S
C431 H406 0.951 . S
C431 C429 1.388 . S
C431 C432 1.366 . S
C432 C431 1.366 . S
C432 C433 1.414 . S
C432 C435 1.499 . S
C433 H407 0.950 . S
C433 C432 1.414 . S
C433 C434 1.374 . S
C434 H408 0.950 . S
C434 C430 1.385 . S
C434 C433 1.374 . S
C435 C432 1.499 . S
C435 C436 1.373 . S
C435 C437 1.389 . S
C436 H409 0.950 . S
C436 C422 1.377 . S
C436 C435 1.373 . S
C437 C421 1.377 . S
C437 C435 1.389 . S
C437 C438 1.524 . S
C438 C437 1.524 . S
C438 C439 1.397 . S
C438 C443 1.363 . S
C439 H410 0.950 . S
C439 C438 1.397 . S
C439 C440 1.334 . S
C440 H411 0.950 . S
C440 C439 1.334 . S
C440 C441 1.287 . S
C441 C440 1.287 . S
C441 C442 1.524 . S
C441 H444 0.999 . S
C442 H412 0.950 . S
C442 C441 1.524 . S
C442 C443 1.415 . S
C443 H413 0.950 . S
C443 C438 1.363 . S
C443 C442 1.415 . S
H444 C441 0.999 . S
H445 C426 0.913 . S
H446 C464 0.951 . S
H447 C466 0.951 . S
H448 C468 0.950 . S
H449 C469 0.950 . S
H450 C471 0.950 . S
H451 C474 0.950 . S
H452 C475 0.950 . S
H453 C477 0.950 . S
H454 C478 0.950 . S
H455 C479 0.951 . S
H456 C481 0.951 . S
H457 C483 0.950 . S
H458 C484 0.950 . S
H459 C486 0.950 . S
H460 C489 0.950 . S
H461 C490 0.950 . S
H462 C492 0.950 . S
H463 C493 0.950 . S
C464 H446 0.951 . S
C464 C465 1.366 . S
C464 C466 1.388 . S
C465 C464 1.366 . S
C465 C469 1.385 . S
C466 H447 0.951 . S
C466 C464 1.388 . S
C466 C467 1.366 . S
C467 C466 1.366 . S
C467 C468 1.414 . S
C467 C470 1.499 . S
C468 H448 0.950 . S
C468 C467 1.414 . S
C468 C469 1.374 . S
C469 H449 0.950 . S
C469 C465 1.385 . S
C469 C468 1.374 . S
C470 C467 1.499 . S
C470 C471 1.373 . S
C470 C472 1.389 . S
C471 H450 0.950 . S
C471 C470 1.373 . S
C471 C487 1.377 . S
C472 C470 1.389 . S
C472 C473 1.524 . S
C472 C486 1.377 . S
C473 C472 1.524 . S
C473 C474 1.397 . S
C473 C478 1.363 . S
C474 H451 0.950 . S
C474 C473 1.397 . S
C474 C475 1.334 . S
C475 H452 0.950 . S
C475 C474 1.334 . S
C475 C476 1.287 . S
C476 C475 1.287 . S
C476 C477 1.524 . S
C476 H495 0.913 . S
C477 H453 0.950 . S
C477 C476 1.524 . S
C477 C478 1.415 . S
C478 H454 0.950 . S
C478 C473 1.363 . S
C478 C477 1.415 . S
C479 H455 0.951 . S
C479 C480 1.366 . S
C479 C481 1.388 . S
C480 C479 1.366 . S
C480 C484 1.385 . S
C481 H456 0.951 . S
C481 C479 1.388 . S
C481 C482 1.366 . S
C482 C481 1.366 . S
C482 C483 1.414 . S
C482 C485 1.499 . S
C483 H457 0.950 . S
C483 C482 1.414 . S
C483 C484 1.374 . S
C484 H458 0.950 . S
C484 C480 1.385 . S
C484 C483 1.374 . S
C485 C482 1.499 . S
C485 C486 1.373 . S
C485 C487 1.389 . S
C486 H459 0.950 . S
C486 C472 1.377 . S
C486 C485 1.373 . S
C487 C471 1.377 . S
C487 C485 1.389 . S
C487 C488 1.524 . S
C488 C487 1.524 . S
C488 C489 1.397 . S
C488 C493 1.363 . S
C489 H460 0.950 . S
C489 C488 1.397 . S
C489 C490 1.334 . S
C490 H461 0.950 . S
C490 C489 1.334 . S
C490 C491 1.287 . S
C491 C490 1.287 . S
C491 C492 1.524 . S
C491 H494 0.999 . S
C492 H462 0.950 . S
C492 C491 1.524 . S
C492 C493 1.415 . S
C493 H463 0.950 . S
C493 C488 1.363 . S
C493 C492 1.415 . S
H494 C491 0.999 . S
H495 C476 0.913 . S
H496 C514 0.951 . S
H497 C516 0.951 . S
H498 C518 0.950 . S
H499 C519 0.950 . S
H500 C521 0.950 . S
H501 C524 0.950 . S
H502 C525 0.950 . S
H503 C527 0.950 . S
H504 C528 0.950 . S
H505 C529 0.951 . S
H506 C531 0.951 . S
H507 C533 0.950 . S
H508 C534 0.950 . S
H509 C536 0.950 . S
H510 C539 0.950 . S
H511 C540 0.950 . S
H512 C542 0.950 . S
H513 C543 0.950 . S
C514 H496 0.951 . S
C514 C515 1.366 . S
C514 C516 1.388 . S
C515 C514 1.366 . S
C515 C519 1.385 . S
C516 H497 0.951 . S
C516 C514 1.388 . S
C516 C517 1.366 . S
C517 C516 1.366 . S
C517 C518 1.414 . S
C517 C520 1.499 . S
C518 H498 0.950 . S
C518 C517 1.414 . S
C518 C519 1.374 . S
C519 H499 0.950 . S
C519 C515 1.385 . S
C519 C518 1.374 . S
C520 C517 1.499 . S
C520 C521 1.373 . S
C520 C522 1.389 . S
C521 H500 0.950 . S
C521 C520 1.373 . S
C521 C537 1.377 . S
C522 C520 1.389 . S
C522 C523 1.524 . S
C522 C536 1.377 . S
C523 C522 1.524 . S
C523 C524 1.397 . S
C523 C528 1.363 . S
C524 H501 0.950 . S
C524 C523 1.397 . S
C524 C525 1.334 . S
C525 H502 0.950 . S
C525 C524 1.334 . S
C525 C526 1.287 . S
C526 C525 1.287 . S
C526 C527 1.524 . S
C526 H545 0.913 . S
C527 H503 0.950 . S
C527 C526 1.524 . S
C527 C528 1.415 . S
C528 H504 0.950 . S
C528 C523 1.363 . S
C528 C527 1.415 . S
C529 H505 0.951 . S
C529 C530 1.366 . S
C529 C531 1.388 . S
C530 C529 1.366 . S
C530 C534 1.385 . S
C531 H506 0.951 . S
C531 C529 1.388 . S
C531 C532 1.366 . S
C532 C531 1.366 . S
C532 C533 1.414 . S
C532 C535 1.499 . S
C533 H507 0.950 . S
C533 C532 1.414 . S
C533 C534 1.374 . S
C534 H508 0.950 . S
C534 C530 1.385 . S
C534 C533 1.374 . S
C535 C532 1.499 . S
C535 C536 1.373 . S
C535 C537 1.389 . S
C536 H509 0.950 . S
C536 C522 1.377 . S
C536 C535 1.373 . S
C537 C521 1.377 . S
C537 C535 1.389 . S
C537 C538 1.524 . S
C538 C537 1.524 . S
C538 C539 1.397 . S
C538 C543 1.363 . S
C539 H510 0.950 . S
C539 C538 1.397 . S
C539 C540 1.334 . S
C540 H511 0.950 . S
C540 C539 1.334 . S
C540 C541 1.287 . S
C541 C540 1.287 . S
C541 C542 1.524 . S
C541 H544 0.999 . S
C542 H512 0.950 . S
C542 C541 1.524 . S
C542 C543 1.415 . S
C543 H513 0.950 . S
C543 C538 1.363 . S
C543 C542 1.415 . S
H544 C541 0.999 . S
H545 C526 0.913 . S
H546 C564 0.951 1_556 S
H547 C566 0.951 . S
H548 C568 0.950 . S
H549 C569 0.950 . S
H550 C571 0.950 . S
H551 C574 0.950 . S
H552 C575 0.950 . S
H553 C577 0.950 . S
H554 C578 0.950 . S
H555 C579 0.951 . S
H556 C581 0.951 . S
H557 C583 0.950 . S
H558 C584 0.950 . S
H559 C586 0.950 . S
H560 C589 0.950 . S
H561 C590 0.950 . S
H562 C592 0.950 . S
H563 C593 0.950 . S
C564 H546 0.951 1_554 S
C564 C565 1.366 . S
C564 C566 1.388 . S
C565 C564 1.366 . S
C565 C569 1.385 . S
C566 H547 0.951 . S
C566 C564 1.388 . S
C566 C567 1.366 . S
C567 C566 1.366 . S
C567 C568 1.414 . S
C567 C570 1.499 . S
C568 H548 0.950 . S
C568 C567 1.414 . S
C568 C569 1.374 . S
C569 H549 0.950 . S
C569 C565 1.385 . S
C569 C568 1.374 . S
C570 C567 1.499 . S
C570 C571 1.373 . S
C570 C572 1.389 . S
C571 H550 0.950 . S
C571 C570 1.373 . S
C571 C587 1.377 . S
C572 C570 1.389 . S
C572 C573 1.524 . S
C572 C586 1.377 . S
C573 C572 1.524 . S
C573 C574 1.397 . S
C573 C578 1.363 . S
C574 H551 0.950 . S
C574 C573 1.397 . S
C574 C575 1.334 . S
C575 H552 0.950 . S
C575 C574 1.334 . S
C575 C576 1.287 . S
C576 C575 1.287 . S
C576 C577 1.524 . S
C576 H595 0.913 . S
C577 H553 0.950 . S
C577 C576 1.524 . S
C577 C578 1.415 . S
C578 H554 0.950 . S
C578 C573 1.363 . S
C578 C577 1.415 . S
C579 H555 0.951 . S
C579 C580 1.366 . S
C579 C581 1.388 . S
C580 C579 1.366 . S
C580 C584 1.385 . S
C581 H556 0.951 . S
C581 C579 1.388 . S
C581 C582 1.366 . S
C582 C581 1.366 . S
C582 C583 1.414 . S
C582 C585 1.499 . S
C583 H557 0.950 . S
C583 C582 1.414 . S
C583 C584 1.374 . S
C584 H558 0.950 . S
C584 C580 1.385 . S
C584 C583 1.374 . S
C585 C582 1.499 . S
C585 C586 1.373 . S
C585 C587 1.389 . S
C586 H559 0.950 . S
C586 C572 1.377 . S
C586 C585 1.373 . S
C587 C571 1.377 . S
C587 C585 1.389 . S
C587 C588 1.524 . S
C588 C587 1.524 . S
C588 C589 1.397 . S
C588 C593 1.363 . S
C589 H560 0.950 . S
C589 C588 1.397 . S
C589 C590 1.334 . S
C590 H561 0.950 . S
C590 C589 1.334 . S
C590 C591 1.287 . S
C591 C590 1.287 . S
C591 C592 1.524 . S
C591 H594 0.999 . S
C592 H562 0.950 . S
C592 C591 1.524 . S
C592 C593 1.415 . S
C593 H563 0.950 . S
C593 C588 1.363 . S
C593 C592 1.415 . S
H594 C591 0.999 . S
H595 C576 0.913 . S
H596 C614 0.951 . S
H597 C616 0.951 . S
H598 C618 0.950 . S
H599 C619 0.950 . S
H600 C621 0.950 . S
H601 C624 0.950 . S
H602 C625 0.950 . S
H603 C627 0.950 . S
H604 C628 0.950 . S
H605 C629 0.951 . S
H606 C631 0.951 . S
H607 C633 0.950 . S
H608 C634 0.950 . S
H609 C636 0.950 . S
H610 C639 0.950 . S
H611 C640 0.950 . S
H612 C642 0.950 . S
H613 C643 0.950 . S
C614 H596 0.951 . S
C614 C615 1.366 . S
C614 C616 1.388 . S
C615 C614 1.366 . S
C615 C619 1.385 . S
C616 H597 0.951 . S
C616 C614 1.388 . S
C616 C617 1.366 . S
C617 C616 1.366 . S
C617 C618 1.414 . S
C617 C620 1.499 . S
C618 H598 0.950 . S
C618 C617 1.414 . S
C618 C619 1.374 . S
C619 H599 0.950 . S
C619 C615 1.385 . S
C619 C618 1.374 . S
C620 C617 1.499 . S
C620 C621 1.373 . S
C620 C622 1.389 . S
C621 H600 0.950 . S
C621 C620 1.373 . S
C621 C637 1.377 . S
C622 C620 1.389 . S
C622 C623 1.524 . S
C622 C636 1.377 . S
C623 C622 1.524 . S
C623 C624 1.397 . S
C623 C628 1.363 . S
C624 H601 0.950 . S
C624 C623 1.397 . S
C624 C625 1.334 . S
C625 H602 0.950 . S
C625 C624 1.334 . S
C625 C626 1.287 . S
C626 C625 1.287 . S
C626 C627 1.524 . S
C626 H645 0.913 . S
C627 H603 0.950 . S
C627 C626 1.524 . S
C627 C628 1.415 . S
C628 H604 0.950 . S
C628 C623 1.363 . S
C628 C627 1.415 . S
C629 H605 0.951 . S
C629 C630 1.366 . S
C629 C631 1.388 . S
C630 C629 1.366 . S
C630 C634 1.385 . S
C631 H606 0.951 . S
C631 C629 1.388 . S
C631 C632 1.366 . S
C632 C631 1.366 . S
C632 C633 1.414 . S
C632 C635 1.499 . S
C633 H607 0.950 . S
C633 C632 1.414 . S
C633 C634 1.374 . S
C634 H608 0.950 . S
C634 C630 1.385 . S
C634 C633 1.374 . S
C635 C632 1.499 . S
C635 C636 1.373 . S
C635 C637 1.389 . S
C636 H609 0.950 . S
C636 C622 1.377 . S
C636 C635 1.373 . S
C637 C621 1.377 . S
C637 C635 1.389 . S
C637 C638 1.524 . S
C638 C637 1.524 . S
C638 C639 1.397 . S
C638 C643 1.363 . S
C639 H610 0.950 . S
C639 C638 1.397 . S
C639 C640 1.334 . S
C640 H611 0.950 . S
C640 C639 1.334 . S
C640 C641 1.287 . S
C641 C640 1.287 . S
C641 C642 1.524 . S
C641 H644 0.999 . S
C642 H612 0.950 . S
C642 C641 1.524 . S
C642 C643 1.415 . S
C643 H613 0.950 . S
C643 C638 1.363 . S
C643 C642 1.415 . S
H644 C641 0.999 . S
H645 C626 0.913 . S
H646 C664 0.951 . S
H647 C666 0.951 . S
H648 C668 0.950 . S
H649 C669 0.950 . S
H650 C671 0.950 . S
H651 C674 0.950 . S
H652 C675 0.950 . S
H653 C677 0.950 . S
H654 C678 0.950 . S
H655 C679 0.951 . S
H656 C681 0.951 . S
H657 C683 0.950 . S
H658 C684 0.950 . S
H659 C686 0.950 . S
H660 C689 0.950 . S
H661 C690 0.950 . S
H662 C692 0.950 . S
H663 C693 0.950 . S
C664 H646 0.951 . S
C664 C665 1.366 . S
C664 C666 1.388 . S
C665 C664 1.366 . S
C665 C669 1.385 . S
C666 H647 0.951 . S
C666 C664 1.388 . S
C666 C667 1.366 . S
C667 C666 1.366 . S
C667 C668 1.414 . S
C667 C670 1.499 . S
C668 H648 0.950 . S
C668 C667 1.414 . S
C668 C669 1.374 . S
C669 H649 0.950 . S
C669 C665 1.385 . S
C669 C668 1.374 . S
C670 C667 1.499 . S
C670 C671 1.373 . S
C670 C672 1.389 . S
C671 H650 0.950 . S
C671 C670 1.373 . S
C671 C687 1.377 . S
C672 C670 1.389 . S
C672 C673 1.524 . S
C672 C686 1.377 . S
C673 C672 1.524 . S
C673 C674 1.397 . S
C673 C678 1.363 . S
C674 H651 0.950 . S
C674 C673 1.397 . S
C674 C675 1.334 . S
C675 H652 0.950 . S
C675 C674 1.334 . S
C675 C676 1.287 . S
C676 C675 1.287 . S
C676 C677 1.524 . S
C676 H695 0.913 . S
C677 H653 0.950 . S
C677 C676 1.524 . S
C677 C678 1.415 . S
C678 H654 0.950 . S
C678 C673 1.363 . S
C678 C677 1.415 . S
C679 H655 0.951 . S
C679 C680 1.366 . S
C679 C681 1.388 . S
C680 C679 1.366 . S
C680 C684 1.385 . S
C681 H656 0.951 . S
C681 C679 1.388 . S
C681 C682 1.366 . S
C682 C681 1.366 . S
C682 C683 1.414 . S
C682 C685 1.499 . S
C683 H657 0.950 . S
C683 C682 1.414 . S
C683 C684 1.374 . S
C684 H658 0.950 . S
C684 C680 1.385 . S
C684 C683 1.374 . S
C685 C682 1.499 . S
C685 C686 1.373 . S
C685 C687 1.389 . S
C686 H659 0.950 . S
C686 C672 1.377 . S
C686 C685 1.373 . S
C687 C671 1.377 . S
C687 C685 1.389 . S
C687 C688 1.524 . S
C688 C687 1.524 . S
C688 C689 1.397 . S
C688 C693 1.363 . S
C689 H660 0.950 . S
C689 C688 1.397 . S
C689 C690 1.334 . S
C690 H661 0.950 . S
C690 C689 1.334 . S
C690 C691 1.287 . S
C691 C690 1.287 . S
C691 C692 1.524 . S
C691 H694 0.999 . S
C692 H662 0.950 . S
C692 C691 1.524 . S
C692 C693 1.415 . S
C693 H663 0.950 . S
C693 C688 1.363 . S
C693 C692 1.415 . S
H694 C691 0.999 . S
H695 C676 0.913 . S
H696 C714 0.951 . S
H697 C716 0.951 . S
H698 C718 0.950 . S
H699 C719 0.950 . S
H700 C721 0.950 . S
H701 C724 0.950 . S
H702 C725 0.950 . S
H703 C727 0.950 . S
H704 C728 0.950 . S
H705 C729 0.951 . S
H706 C731 0.951 . S
H707 C733 0.950 . S
H708 C734 0.950 . S
H709 C736 0.950 . S
H710 C739 0.950 . S
H711 C740 0.950 . S
H712 C742 0.950 . S
H713 C743 0.950 . S
C714 H696 0.951 . S
C714 C715 1.366 . S
C714 C716 1.388 . S
C715 C714 1.366 . S
C715 C719 1.385 . S
C716 H697 0.951 . S
C716 C714 1.388 . S
C716 C717 1.366 . S
C717 C716 1.366 . S
C717 C718 1.414 . S
C717 C720 1.499 . S
C718 H698 0.950 . S
C718 C717 1.414 . S
C718 C719 1.374 . S
C719 H699 0.950 . S
C719 C715 1.385 . S
C719 C718 1.374 . S
C720 C717 1.499 . S
C720 C721 1.373 . S
C720 C722 1.389 . S
C721 H700 0.950 . S
C721 C720 1.373 . S
C721 C737 1.377 . S
C722 C720 1.389 . S
C722 C723 1.524 . S
C722 C736 1.377 . S
C723 C722 1.524 . S
C723 C724 1.397 . S
C723 C728 1.363 . S
C724 H701 0.950 . S
C724 C723 1.397 . S
C724 C725 1.334 . S
C725 H702 0.950 . S
C725 C724 1.334 . S
C725 C726 1.287 . S
C726 C725 1.287 . S
C726 C727 1.524 . S
C726 H745 0.913 . S
C727 H703 0.950 . S
C727 C726 1.524 . S
C727 C728 1.415 . S
C728 H704 0.950 . S
C728 C723 1.363 . S
C728 C727 1.415 . S
C729 H705 0.951 . S
C729 C730 1.366 . S
C729 C731 1.388 . S
C730 C729 1.366 . S
C730 C734 1.385 . S
C731 H706 0.951 . S
C731 C729 1.388 . S
C731 C732 1.366 . S
C732 C731 1.366 . S
C732 C733 1.414 . S
C732 C735 1.499 . S
C733 H707 0.950 . S
C733 C732 1.414 . S
C733 C734 1.374 . S
C734 H708 0.950 . S
C734 C730 1.385 . S
C734 C733 1.374 . S
C735 C732 1.499 . S
C735 C736 1.373 . S
C735 C737 1.389 . S
C736 H709 0.950 . S
C736 C722 1.377 . S
C736 C735 1.373 . S
C737 C721 1.377 . S
C737 C735 1.389 . S
C737 C738 1.524 . S
C738 C737 1.524 . S
C738 C739 1.397 . S
C738 C743 1.363 . S
C739 H710 0.950 . S
C739 C738 1.397 . S
C739 C740 1.334 . S
C740 H711 0.950 . S
C740 C739 1.334 . S
C740 C741 1.287 . S
C741 C740 1.287 . S
C741 C742 1.524 . S
C741 H744 0.999 . S
C742 H712 0.950 . S
C742 C741 1.524 . S
C742 C743 1.415 . S
C743 H713 0.950 . S
C743 C738 1.363 . S
C743 C742 1.415 . S
H744 C741 0.999 . S
H745 C726 0.913 . S
H746 C764 0.951 . S
H747 C766 0.951 . S
H748 C768 0.950 . S
H749 C769 0.950 . S
H750 C771 0.950 . S
H751 C774 0.950 . S
H752 C775 0.950 . S
H753 C777 0.950 . S
H754 C778 0.950 . S
H755 C779 0.951 . S
H756 C781 0.951 . S
H757 C783 0.950 . S
H758 C784 0.950 . S
H759 C786 0.950 . S
H760 C789 0.950 . S
H761 C790 0.950 . S
H762 C792 0.950 . S
H763 C793 0.950 . S
C764 H746 0.951 . S
C764 C765 1.366 . S
C764 C766 1.388 . S
C765 C764 1.366 . S
C765 C769 1.385 . S
C766 H747 0.951 . S
C766 C764 1.388 . S
C766 C767 1.366 . S
C767 C766 1.366 . S
C767 C768 1.414 . S
C767 C770 1.499 . S
C768 H748 0.950 . S
C768 C767 1.414 . S
C768 C769 1.374 . S
C769 H749 0.950 . S
C769 C765 1.385 . S
C769 C768 1.374 . S
C770 C767 1.499 . S
C770 C771 1.373 . S
C770 C772 1.389 . S
C771 H750 0.950 . S
C771 C770 1.373 . S
C771 C787 1.377 . S
C772 C770 1.389 . S
C772 C773 1.524 . S
C772 C786 1.377 . S
C773 C772 1.524 . S
C773 C774 1.397 . S
C773 C778 1.363 . S
C774 H751 0.950 . S
C774 C773 1.397 . S
C774 C775 1.334 . S
C775 H752 0.950 . S
C775 C774 1.334 . S
C775 C776 1.287 . S
C776 C775 1.287 . S
C776 C777 1.524 . S
C776 H795 0.913 . S
C777 H753 0.950 . S
C777 C776 1.524 . S
C777 C778 1.415 . S
C778 H754 0.950 . S
C778 C773 1.363 . S
C778 C777 1.415 . S
C779 H755 0.951 . S
C779 C780 1.366 . S
C779 C781 1.388 . S
C780 C779 1.366 . S
C780 C784 1.385 . S
C781 H756 0.951 . S
C781 C779 1.388 . S
C781 C782 1.366 . S
C782 C781 1.366 . S
C782 C783 1.414 . S
C782 C785 1.499 . S
C783 H757 0.950 . S
C783 C782 1.414 . S
C783 C784 1.374 . S
C784 H758 0.950 . S
C784 C780 1.385 . S
C784 C783 1.374 . S
C785 C782 1.499 . S
C785 C786 1.373 . S
C785 C787 1.389 . S
C786 H759 0.950 . S
C786 C772 1.377 . S
C786 C785 1.373 . S
C787 C771 1.377 . S
C787 C785 1.389 . S
C787 C788 1.524 . S
C788 C787 1.524 . S
C788 C789 1.397 . S
C788 C793 1.363 . S
C789 H760 0.950 . S
C789 C788 1.397 . S
C789 C790 1.334 . S
C790 H761 0.950 . S
C790 C789 1.334 . S
C790 C791 1.287 . S
C791 C790 1.287 . S
C791 C792 1.524 . S
C791 H794 0.999 . S
C792 H762 0.950 . S
C792 C791 1.524 . S
C792 C793 1.415 . S
C793 H763 0.950 . S
C793 C788 1.363 . S
C793 C792 1.415 . S
H794 C791 0.999 . S
H795 C776 0.913 . S
H796 C814 0.951 . S
H797 C816 0.951 . S
H798 C818 0.950 . S
H799 C819 0.950 . S
H800 C821 0.950 . S
H801 C824 0.950 . S
H802 C825 0.950 . S
H803 C827 0.950 . S
H804 C828 0.950 . S
H805 C829 0.951 . S
H806 C831 0.951 . S
H807 C833 0.950 . S
H808 C834 0.950 . S
H809 C836 0.950 . S
H810 C839 0.950 . S
H811 C840 0.950 . S
H812 C842 0.950 . S
H813 C843 0.950 . S
C814 H796 0.951 . S
C814 C815 1.366 . S
C814 C816 1.388 . S
C815 C814 1.366 . S
C815 C819 1.385 . S
C816 H797 0.951 . S
C816 C814 1.388 . S
C816 C817 1.366 . S
C817 C816 1.366 . S
C817 C818 1.414 . S
C817 C820 1.499 . S
C818 H798 0.950 . S
C818 C817 1.414 . S
C818 C819 1.374 . S
C819 H799 0.950 . S
C819 C815 1.385 . S
C819 C818 1.374 . S
C820 C817 1.499 . S
C820 C821 1.373 . S
C820 C822 1.389 . S
C821 H800 0.950 . S
C821 C820 1.373 . S
C821 C837 1.377 . S
C822 C820 1.389 . S
C822 C823 1.524 . S
C822 C836 1.377 . S
C823 C822 1.524 . S
C823 C824 1.397 . S
C823 C828 1.363 . S
C824 H801 0.950 . S
C824 C823 1.397 . S
C824 C825 1.334 . S
C825 H802 0.950 . S
C825 C824 1.334 . S
C825 C826 1.287 . S
C826 C825 1.287 . S
C826 C827 1.524 . S
C826 H845 0.913 . S
C827 H803 0.950 . S
C827 C826 1.524 . S
C827 C828 1.415 . S
C828 H804 0.950 . S
C828 C823 1.363 . S
C828 C827 1.415 . S
C829 H805 0.951 . S
C829 C830 1.366 . S
C829 C831 1.388 . S
C830 C829 1.366 . S
C830 C834 1.385 . S
C831 H806 0.951 . S
C831 C829 1.388 . S
C831 C832 1.366 . S
C832 C831 1.366 . S
C832 C833 1.414 . S
C832 C835 1.499 . S
C833 H807 0.950 . S
C833 C832 1.414 . S
C833 C834 1.374 . S
C834 H808 0.950 . S
C834 C830 1.385 . S
C834 C833 1.374 . S
C835 C832 1.499 . S
C835 C836 1.373 . S
C835 C837 1.389 . S
C836 H809 0.950 . S
C836 C822 1.377 . S
C836 C835 1.373 . S
C837 C821 1.377 . S
C837 C835 1.389 . S
C837 C838 1.524 . S
C838 C837 1.524 . S
C838 C839 1.397 . S
C838 C843 1.363 . S
C839 H810 0.950 . S
C839 C838 1.397 . S
C839 C840 1.334 . S
C840 H811 0.950 . S
C840 C839 1.334 . S
C840 C841 1.287 . S
C841 C840 1.287 . S
C841 C842 1.524 . S
C841 H844 0.999 . S
C842 H812 0.950 . S
C842 C841 1.524 . S
C842 C843 1.415 . S
C843 H813 0.950 . S
C843 C838 1.363 . S
C843 C842 1.415 . S
H844 C841 0.999 . S
H845 C826 0.913 . S
H846 C864 0.951 . S
H847 C866 0.951 . S
H848 C868 0.950 . S
H849 C869 0.950 . S
H850 C871 0.950 . S
H851 C874 0.950 . S
H852 C875 0.950 . S
H853 C877 0.950 . S
H854 C878 0.950 . S
H855 C879 0.951 . S
H856 C881 0.951 . S
H857 C883 0.950 . S
H858 C884 0.950 . S
H859 C886 0.950 . S
H860 C889 0.950 . S
H861 C890 0.950 . S
H862 C892 0.950 . S
H863 C893 0.950 . S
C864 H846 0.951 . S
C864 C865 1.366 . S
C864 C866 1.388 . S
C865 C864 1.366 . S
C865 C869 1.385 . S
C866 H847 0.951 . S
C866 C864 1.388 . S
C866 C867 1.366 . S
C867 C866 1.366 . S
C867 C868 1.414 . S
C867 C870 1.499 . S
C868 H848 0.950 . S
C868 C867 1.414 . S
C868 C869 1.374 . S
C869 H849 0.950 . S
C869 C865 1.385 . S
C869 C868 1.374 . S
C870 C867 1.499 . S
C870 C871 1.373 . S
C870 C872 1.389 . S
C871 H850 0.950 . S
C871 C870 1.373 . S
C871 C887 1.377 . S
C872 C870 1.389 . S
C872 C873 1.524 . S
C872 C886 1.377 . S
C873 C872 1.524 . S
C873 C874 1.397 . S
C873 C878 1.363 . S
C874 H851 0.950 . S
C874 C873 1.397 . S
C874 C875 1.334 . S
C875 H852 0.950 . S
C875 C874 1.334 . S
C875 C876 1.287 . S
C876 C875 1.287 . S
C876 C877 1.524 . S
C876 H895 0.913 . S
C877 H853 0.950 . S
C877 C876 1.524 . S
C877 C878 1.415 . S
C878 H854 0.950 . S
C878 C873 1.363 . S
C878 C877 1.415 . S
C879 H855 0.951 . S
C879 C880 1.366 . S
C879 C881 1.388 . S
C880 C879 1.366 . S
C880 C884 1.385 . S
C881 H856 0.951 . S
C881 C879 1.388 . S
C881 C882 1.366 . S
C882 C881 1.366 . S
C882 C883 1.414 . S
C882 C885 1.499 . S
C883 H857 0.950 . S
C883 C882 1.414 . S
C883 C884 1.374 . S
C884 H858 0.950 . S
C884 C880 1.385 . S
C884 C883 1.374 . S
C885 C882 1.499 . S
C885 C886 1.373 . S
C885 C887 1.389 . S
C886 H859 0.950 . S
C886 C872 1.377 . S
C886 C885 1.373 . S
C887 C871 1.377 . S
C887 C885 1.389 . S
C887 C888 1.524 . S
C888 C887 1.524 . S
C888 C889 1.397 . S
C888 C893 1.363 . S
C889 H860 0.950 . S
C889 C888 1.397 . S
C889 C890 1.334 . S
C890 H861 0.950 . S
C890 C889 1.334 . S
C890 C891 1.287 . S
C891 C890 1.287 . S
C891 C892 1.524 . S
C891 H894 0.999 . S
C892 H862 0.950 . S
C892 C891 1.524 . S
C892 C893 1.415 . S
C893 H863 0.950 . S
C893 C888 1.363 . S
C893 C892 1.415 . S
H894 C891 0.999 . S
H895 C876 0.913 . S
H896 C914 0.951 1_556 S
H897 C916 0.951 . S
H898 C918 0.950 . S
H899 C919 0.950 . S
H900 C921 0.950 . S
H901 C924 0.950 . S
H902 C925 0.950 . S
H903 C927 0.950 . S
H904 C928 0.950 . S
H905 C929 0.951 . S
H906 C931 0.951 . S
H907 C933 0.950 . S
H908 C934 0.950 . S
H909 C936 0.950 . S
H910 C939 0.950 . S
H911 C940 0.950 . S
H912 C942 0.950 . S
H913 C943 0.950 . S
C914 H896 0.951 1_554 S
C914 C915 1.366 . S
C914 C916 1.388 . S
C915 C914 1.366 . S
C915 C919 1.385 . S
C916 H897 0.951 . S
C916 C914 1.388 . S
C916 C917 1.366 . S
C917 C916 1.366 . S
C917 C918 1.414 . S
C917 C920 1.499 . S
C918 H898 0.950 . S
C918 C917 1.414 . S
C918 C919 1.374 . S
C919 H899 0.950 . S
C919 C915 1.385 . S
C919 C918 1.374 . S
C920 C917 1.499 . S
C920 C921 1.373 . S
C920 C922 1.389 . S
C921 H900 0.950 . S
C921 C920 1.373 . S
C921 C937 1.377 . S
C922 C920 1.389 . S
C922 C923 1.510 1_554 S
C922 C936 1.377 . S
C923 C922 1.510 1_556 S
C923 C924 1.403 . S
C923 C928 1.371 . S
C924 H901 0.950 . S
C924 C923 1.403 . S
C924 C925 1.334 . S
C925 H902 0.950 . S
C925 C924 1.334 . S
C925 C926 1.287 . S
C926 C925 1.287 . S
C926 C927 1.524 . S
C926 H945 0.913 . S
C927 H903 0.950 . S
C927 C926 1.524 . S
C927 C928 1.415 . S
C928 H904 0.950 . S
C928 C923 1.371 . S
C928 C927 1.415 . S
C929 H905 0.951 . S
C929 C930 1.366 . S
C929 C931 1.388 . S
C930 C929 1.366 . S
C930 C934 1.385 . S
C931 H906 0.951 . S
C931 C929 1.388 . S
C931 C932 1.366 . S
C932 C931 1.366 . S
C932 C933 1.414 . S
C932 C935 1.499 . S
C933 H907 0.950 . S
C933 C932 1.414 . S
C933 C934 1.374 . S
C934 H908 0.950 . S
C934 C930 1.385 . S
C934 C933 1.374 . S
C935 C932 1.499 . S
C935 C936 1.373 . S
C935 C937 1.389 . S
C936 H909 0.950 . S
C936 C922 1.377 . S
C936 C935 1.373 . S
C937 C921 1.377 . S
C937 C935 1.389 . S
C937 C938 1.524 . S
C938 C937 1.524 . S
C938 C939 1.397 . S
C938 C943 1.363 . S
C939 H910 0.950 . S
C939 C938 1.397 . S
C939 C940 1.334 . S
C940 H911 0.950 . S
C940 C939 1.334 . S
C940 C941 1.287 . S
C941 C940 1.287 . S
C941 C942 1.524 . S
C941 H944 0.999 . S
C942 H912 0.950 . S
C942 C941 1.524 . S
C942 C943 1.415 . S
C943 H913 0.950 . S
C943 C938 1.363 . S
C943 C942 1.415 . S
H944 C941 0.999 . S
H945 C926 0.913 . S
H946 C964 0.951 . S
H947 C966 0.951 . S
H948 C968 0.950 . S
H949 C969 0.950 . S
H950 C971 0.950 . S
H951 C974 0.950 . S
H952 C975 0.950 . S
H953 C977 0.950 . S
H954 C978 0.950 . S
H955 C979 0.951 . S
H956 C981 0.951 . S
H957 C983 0.950 . S
H958 C984 0.950 . S
H959 C986 0.950 . S
H960 C989 0.950 . S
H961 C990 0.950 . S
H962 C992 0.950 . S
H963 C993 0.950 . S
C964 H946 0.951 . S
C964 C965 1.366 . S
C964 C966 1.388 . S
C965 C964 1.366 . S
C965 C969 1.385 . S
C966 H947 0.951 . S
C966 C964 1.388 . S
C966 C967 1.366 . S
C967 C966 1.366 . S
C967 C968 1.414 . S
C967 C970 1.499 . S
C968 H948 0.950 . S
C968 C967 1.414 . S
C968 C969 1.374 . S
C969 H949 0.950 . S
C969 C965 1.385 . S
C969 C968 1.374 . S
C970 C967 1.499 . S
C970 C971 1.373 . S
C970 C972 1.389 . S
C971 H950 0.950 . S
C971 C970 1.373 . S
C971 C987 1.377 . S
C972 C970 1.389 . S
C972 C973 1.524 . S
C972 C986 1.377 . S
C973 C972 1.524 . S
C973 C974 1.397 . S
C973 C978 1.363 . S
C974 H951 0.950 . S
C974 C973 1.397 . S
C974 C975 1.334 . S
C975 H952 0.950 . S
C975 C974 1.334 . S
C975 C976 1.287 . S
C976 C975 1.287 . S
C976 C977 1.524 . S
C976 H995 0.913 . S
C977 H953 0.950 . S
C977 C976 1.524 . S
C977 C978 1.415 . S
C978 H954 0.950 . S
C978 C973 1.363 . S
C978 C977 1.415 . S
C979 H955 0.951 . S
C979 C980 1.366 . S
C979 C981 1.388 . S
C980 C979 1.366 . S
C980 C984 1.385 . S
C981 H956 0.951 . S
C981 C979 1.388 . S
C981 C982 1.366 . S
C982 C981 1.366 . S
C982 C983 1.414 . S
C982 C985 1.499 . S
C983 H957 0.950 . S
C983 C982 1.414 . S
C983 C984 1.374 . S
C984 H958 0.950 . S
C984 C980 1.385 . S
C984 C983 1.374 . S
C985 C982 1.499 . S
C985 C986 1.373 . S
C985 C987 1.389 . S
C986 H959 0.950 . S
C986 C972 1.377 . S
C986 C985 1.373 . S
C987 C971 1.377 . S
C987 C985 1.389 . S
C987 C988 1.524 . S
C988 C987 1.524 . S
C988 C989 1.397 . S
C988 C993 1.363 . S
C989 H960 0.950 . S
C989 C988 1.397 . S
C989 C990 1.334 . S
C990 H961 0.950 . S
C990 C989 1.334 . S
C990 C991 1.287 . S
C991 C990 1.287 . S
C991 C992 1.524 . S
C991 H994 0.999 . S
C992 H962 0.950 . S
C992 C991 1.524 . S
C992 C993 1.415 . S
C993 H963 0.950 . S
C993 C988 1.363 . S
C993 C992 1.415 . S
H994 C991 0.999 . S
H995 C976 0.913 . S
H996 C1014 0.951 . S
H997 C1016 0.951 . S
H998 C1018 0.950 . S
H999 C1019 0.950 . S
H1000 C1021 0.950 . S
H1001 C1024 0.950 . S
H1002 C1025 0.950 . S
H1003 C1027 0.950 . S
H1004 C1028 0.950 . S
H1005 C1029 0.951 . S
H1006 C1031 0.951 . S
H1007 C1033 0.950 . S
H1008 C1034 0.950 . S
H1009 C1036 0.950 . S
H1010 C1039 0.950 . S
H1011 C1040 0.950 . S
H1012 C1042 0.950 . S
H1013 C1043 0.950 . S
C1014 H996 0.951 . S
C1014 C1015 1.366 . S
C1014 C1016 1.388 . S
C1015 C1014 1.366 . S
C1015 C1019 1.385 . S
C1016 H997 0.951 . S
C1016 C1014 1.388 . S
C1016 C1017 1.366 . S
C1017 C1016 1.366 . S
C1017 C1018 1.414 . S
C1017 C1020 1.499 . S
C1018 H998 0.950 . S
C1018 C1017 1.414 . S
C1018 C1019 1.374 . S
C1019 H999 0.950 . S
C1019 C1015 1.385 . S
C1019 C1018 1.374 . S
C1020 C1017 1.499 . S
C1020 C1021 1.373 . S
C1020 C1022 1.389 . S
C1021 H1000 0.950 . S
C1021 C1020 1.373 . S
C1021 C1037 1.377 . S
C1022 C1020 1.389 . S
C1022 C1023 1.524 . S
C1022 C1036 1.377 . S
C1023 C1022 1.524 . S
C1023 C1024 1.397 . S
C1023 C1028 1.363 . S
C1024 H1001 0.950 . S
C1024 C1023 1.397 . S
C1024 C1025 1.334 . S
C1025 H1002 0.950 . S
C1025 C1024 1.334 . S
C1025 C1026 1.287 . S
C1026 C1025 1.287 . S
C1026 C1027 1.524 . S
C1026 H1045 0.913 . S
C1027 H1003 0.950 . S
C1027 C1026 1.524 . S
C1027 C1028 1.415 . S
C1028 H1004 0.950 . S
C1028 C1023 1.363 . S
C1028 C1027 1.415 . S
C1029 H1005 0.951 . S
C1029 C1030 1.366 . S
C1029 C1031 1.388 . S
C1030 C1029 1.366 . S
C1030 C1034 1.385 . S
C1031 H1006 0.951 . S
C1031 C1029 1.388 . S
C1031 C1032 1.366 . S
C1032 C1031 1.366 . S
C1032 C1033 1.414 . S
C1032 C1035 1.499 . S
C1033 H1007 0.950 . S
C1033 C1032 1.414 . S
C1033 C1034 1.374 . S
C1034 H1008 0.950 . S
C1034 C1030 1.385 . S
C1034 C1033 1.374 . S
C1035 C1032 1.499 . S
C1035 C1036 1.373 . S
C1035 C1037 1.389 . S
C1036 H1009 0.950 . S
C1036 C1022 1.377 . S
C1036 C1035 1.373 . S
C1037 C1021 1.377 . S
C1037 C1035 1.389 . S
C1037 C1038 1.524 . S
C1038 C1037 1.524 . S
C1038 C1039 1.397 . S
C1038 C1043 1.363 . S
C1039 H1010 0.950 . S
C1039 C1038 1.397 . S
C1039 C1040 1.334 . S
C1040 H1011 0.950 . S
C1040 C1039 1.334 . S
C1040 C1041 1.287 . S
C1041 C1040 1.287 . S
C1041 C1042 1.524 . S
C1041 H1044 0.999 . S
C1042 H1012 0.950 . S
C1042 C1041 1.524 . S
C1042 C1043 1.415 . S
C1043 H1013 0.950 . S
C1043 C1038 1.363 . S
C1043 C1042 1.415 . S
H1044 C1041 0.999 . S
H1045 C1026 0.913 . S
H1046 C1064 0.951 . S
H1047 C1066 0.951 . S
H1048 C1068 0.950 . S
H1049 C1069 0.950 . S
H1050 C1071 0.950 . S
H1051 C1074 0.950 . S
H1052 C1075 0.950 . S
H1053 C1077 0.950 . S
H1054 C1078 0.950 . S
H1055 C1079 0.951 . S
H1056 C1081 0.951 . S
H1057 C1083 0.950 . S
H1058 C1084 0.950 . S
H1059 C1086 0.950 . S
H1060 C1089 0.950 . S
H1061 C1090 0.950 . S
H1062 C1092 0.950 . S
H1063 C1093 0.950 . S
C1064 H1046 0.951 . S
C1064 C1065 1.366 . S
C1064 C1066 1.388 . S
C1065 C1064 1.366 . S
C1065 C1069 1.385 . S
C1066 H1047 0.951 . S
C1066 C1064 1.388 . S
C1066 C1067 1.366 . S
C1067 C1066 1.366 . S
C1067 C1068 1.414 . S
C1067 C1070 1.499 . S
C1068 H1048 0.950 . S
C1068 C1067 1.414 . S
C1068 C1069 1.374 . S
C1069 H1049 0.950 . S
C1069 C1065 1.385 . S
C1069 C1068 1.374 . S
C1070 C1067 1.499 . S
C1070 C1071 1.373 . S
C1070 C1072 1.389 . S
C1071 H1050 0.950 . S
C1071 C1070 1.373 . S
C1071 C1087 1.377 . S
C1072 C1070 1.389 . S
C1072 C1073 1.524 . S
C1072 C1086 1.377 . S
C1073 C1072 1.524 . S
C1073 C1074 1.397 . S
C1073 C1078 1.363 . S
C1074 H1051 0.950 . S
C1074 C1073 1.397 . S
C1074 C1075 1.334 . S
C1075 H1052 0.950 . S
C1075 C1074 1.334 . S
C1075 C1076 1.287 . S
C1076 C1075 1.287 . S
C1076 C1077 1.524 . S
C1076 H1095 0.913 . S
C1077 H1053 0.950 . S
C1077 C1076 1.524 . S
C1077 C1078 1.415 . S
C1078 H1054 0.950 . S
C1078 C1073 1.363 . S
C1078 C1077 1.415 . S
C1079 H1055 0.951 . S
C1079 C1080 1.366 . S
C1079 C1081 1.388 . S
C1080 C1079 1.366 . S
C1080 C1084 1.385 . S
C1081 H1056 0.951 . S
C1081 C1079 1.388 . S
C1081 C1082 1.366 . S
C1082 C1081 1.366 . S
C1082 C1083 1.414 . S
C1082 C1085 1.499 . S
C1083 H1057 0.950 . S
C1083 C1082 1.414 . S
C1083 C1084 1.374 . S
C1084 H1058 0.950 . S
C1084 C1080 1.385 . S
C1084 C1083 1.374 . S
C1085 C1082 1.499 . S
C1085 C1086 1.373 . S
C1085 C1087 1.389 . S
C1086 H1059 0.950 . S
C1086 C1072 1.377 . S
C1086 C1085 1.373 . S
C1087 C1071 1.377 . S
C1087 C1085 1.389 . S
C1087 C1088 1.524 . S
C1088 C1087 1.524 . S
C1088 C1089 1.397 . S
C1088 C1093 1.363 . S
C1089 H1060 0.950 . S
C1089 C1088 1.397 . S
C1089 C1090 1.334 . S
C1090 H1061 0.950 . S
C1090 C1089 1.334 . S
C1090 C1091 1.287 . S
C1091 C1090 1.287 . S
C1091 C1092 1.524 . S
C1091 H1094 0.999 . S
C1092 H1062 0.950 . S
C1092 C1091 1.524 . S
C1092 C1093 1.415 . S
C1093 H1063 0.950 . S
C1093 C1088 1.363 . S
C1093 C1092 1.415 . S
H1094 C1091 0.999 . S
H1095 C1076 0.913 . S
H1096 C1114 0.951 . S
H1097 C1116 0.951 . S
H1098 C1118 0.950 . S
H1099 C1119 0.950 . S
H1100 C1121 0.950 . S
H1101 C1124 0.950 . S
H1102 C1125 0.950 . S
H1103 C1127 0.950 . S
H1104 C1128 0.950 . S
H1105 C1129 0.951 . S
H1106 C1131 0.951 . S
H1107 C1133 0.950 . S
H1108 C1134 0.950 . S
H1109 C1136 0.950 . S
H1110 C1139 0.950 . S
H1111 C1140 0.950 . S
H1112 C1142 0.950 . S
H1113 C1143 0.950 . S
C1114 H1096 0.951 . S
C1114 C1115 1.366 . S
C1114 C1116 1.388 . S
C1115 C1114 1.366 . S
C1115 C1119 1.385 . S
C1116 H1097 0.951 . S
C1116 C1114 1.388 . S
C1116 C1117 1.366 . S
C1117 C1116 1.366 . S
C1117 C1118 1.414 . S
C1117 C1120 1.499 . S
C1118 H1098 0.950 . S
C1118 C1117 1.414 . S
C1118 C1119 1.374 . S
C1119 H1099 0.950 . S
C1119 C1115 1.385 . S
C1119 C1118 1.374 . S
C1120 C1117 1.499 . S
C1120 C1121 1.373 . S
C1120 C1122 1.389 . S
C1121 H1100 0.950 . S
C1121 C1120 1.373 . S
C1121 C1137 1.377 . S
C1122 C1120 1.389 . S
C1122 C1123 1.524 . S
C1122 C1136 1.377 . S
C1123 C1122 1.524 . S
C1123 C1124 1.397 . S
C1123 C1128 1.363 . S
C1124 H1101 0.950 . S
C1124 C1123 1.397 . S
C1124 C1125 1.334 . S
C1125 H1102 0.950 . S
C1125 C1124 1.334 . S
C1125 C1126 1.287 . S
C1126 C1125 1.287 . S
C1126 C1127 1.524 . S
C1126 H1145 0.913 . S
C1127 H1103 0.950 . S
C1127 C1126 1.524 . S
C1127 C1128 1.415 . S
C1128 H1104 0.950 . S
C1128 C1123 1.363 . S
C1128 C1127 1.415 . S
C1129 H1105 0.951 . S
C1129 C1130 1.366 . S
C1129 C1131 1.388 . S
C1130 C1129 1.366 . S
C1130 C1134 1.385 . S
C1131 H1106 0.951 . S
C1131 C1129 1.388 . S
C1131 C1132 1.366 . S
C1132 C1131 1.366 . S
C1132 C1133 1.414 . S
C1132 C1135 1.499 . S
C1133 H1107 0.950 . S
C1133 C1132 1.414 . S
C1133 C1134 1.374 . S
C1134 H1108 0.950 . S
C1134 C1130 1.385 . S
C1134 C1133 1.374 . S
C1135 C1132 1.499 . S
C1135 C1136 1.373 . S
C1135 C1137 1.389 . S
C1136 H1109 0.950 . S
C1136 C1122 1.377 . S
C1136 C1135 1.373 . S
C1137 C1121 1.377 . S
C1137 C1135 1.389 . S
C1137 C1138 1.524 . S
C1138 C1137 1.524 . S
C1138 C1139 1.397 . S
C1138 C1143 1.363 . S
C1139 H1110 0.950 . S
C1139 C1138 1.397 . S
C1139 C1140 1.334 . S
C1140 H1111 0.950 . S
C1140 C1139 1.334 . S
C1140 C1141 1.287 . S
C1141 C1140 1.287 . S
C1141 C1142 1.524 . S
C1141 H1144 0.999 . S
C1142 H1112 0.950 . S
C1142 C1141 1.524 . S
C1142 C1143 1.415 . S
C1143 H1113 0.950 . S
C1143 C1138 1.363 . S
C1143 C1142 1.415 . S
H1144 C1141 0.999 . S
H1145 C1126 0.913 . S
H1146 C1164 0.951 . S
H1147 C1166 0.951 . S
H1148 C1168 0.928 1_554 S
H1149 C1169 0.950 . S
H1150 C1171 0.950 . S
H1151 C1174 0.950 . S
H1152 C1175 0.950 . S
H1153 C1177 0.950 . S
H1154 C1178 0.950 . S
H1155 C1179 0.951 . S
H1156 C1181 0.951 . S
H1157 C1183 0.950 . S
H1158 C1184 0.950 . S
H1159 C1186 0.950 . S
H1160 C1189 0.950 . S
H1161 C1190 0.950 . S
H1162 C1192 0.950 . S
H1163 C1193 0.950 1_554 S
C1164 H1146 0.951 . S
C1164 C1165 1.366 . S
C1164 C1166 1.388 . S
C1165 C1164 1.366 . S
C1165 C1169 1.385 1_556 S
C1166 H1147 0.951 . S
C1166 C1164 1.388 . S
C1166 C1167 1.366 . S
C1167 C1166 1.366 . S
C1167 C1168 1.452 . S
C1167 C1170 1.499 . S
C1168 H1148 0.928 1_556 S
C1168 C1167 1.452 . S
C1168 C1169 1.359 1_556 S
C1169 H1149 0.950 . S
C1169 C1165 1.385 1_554 S
C1169 C1168 1.359 1_554 S
C1170 C1167 1.499 . S
C1170 C1171 1.373 . S
C1170 C1172 1.389 . S
C1171 H1150 0.950 . S
C1171 C1170 1.373 . S
C1171 C1187 1.377 . S
C1172 C1170 1.389 . S
C1172 C1173 1.524 . S
C1172 C1186 1.377 . S
C1173 C1172 1.524 . S
C1173 C1174 1.397 . S
C1173 C1178 1.363 . S
C1174 H1151 0.950 . S
C1174 C1173 1.397 . S
C1174 C1175 1.334 . S
C1175 H1152 0.950 . S
C1175 C1174 1.334 . S
C1175 C1176 1.287 . S
C1176 C1175 1.287 . S
C1176 C1177 1.524 . S
C1176 H1195 0.913 . S
C1177 H1153 0.950 . S
C1177 C1176 1.524 . S
C1177 C1178 1.415 . S
C1178 H1154 0.950 . S
C1178 C1173 1.363 . S
C1178 C1177 1.415 . S
C1179 H1155 0.951 . S
C1179 C1180 1.366 . S
C1179 C1181 1.388 . S
C1180 C1179 1.366 . S
C1180 C1184 1.385 . S
C1181 H1156 0.951 . S
C1181 C1179 1.388 . S
C1181 C1182 1.366 . S
C1182 C1181 1.366 . S
C1182 C1183 1.414 . S
C1182 C1185 1.499 . S
C1183 H1157 0.950 . S
C1183 C1182 1.414 . S
C1183 C1184 1.374 . S
C1184 H1158 0.950 . S
C1184 C1180 1.385 . S
C1184 C1183 1.374 . S
C1185 C1182 1.499 . S
C1185 C1186 1.373 . S
C1185 C1187 1.389 . S
C1186 H1159 0.950 . S
C1186 C1172 1.377 . S
C1186 C1185 1.373 . S
C1187 C1171 1.377 . S
C1187 C1185 1.389 . S
C1187 C1188 1.524 . S
C1188 C1187 1.524 . S
C1188 C1189 1.397 . S
C1188 C1193 1.363 . S
C1189 H1160 0.950 . S
C1189 C1188 1.397 . S
C1189 C1190 1.334 . S
C1190 H1161 0.950 . S
C1190 C1189 1.334 . S
C1190 C1191 1.287 . S
C1191 C1190 1.287 . S
C1191 C1192 1.524 1_556 S
C1191 H1194 0.999 . S
C1192 H1162 0.950 . S
C1192 C1191 1.524 1_554 S
C1192 C1193 1.415 1_554 S
C1193 H1163 0.950 1_556 S
C1193 C1188 1.363 . S
C1193 C1192 1.415 1_556 S
H1194 C1191 0.999 . S
H1195 C1176 0.913 . S
H1196 C1214 0.951 . S
H1197 C1216 0.951 . S
H1198 C1218 0.950 . S
H1199 C1219 0.950 . S
H1200 C1221 0.950 . S
H1201 C1224 0.950 . S
H1202 C1225 0.950 . S
H1203 C1227 0.950 . S
H1204 C1228 0.950 . S
H1205 C1229 0.951 . S
H1206 C1231 0.951 . S
H1207 C1233 0.950 . S
H1208 C1234 0.950 . S
H1209 C1236 0.950 . S
H1210 C1239 0.950 . S
H1211 C1240 0.950 . S
H1212 C1242 0.950 . S
H1213 C1243 0.950 . S
C1214 H1196 0.951 . S
C1214 C1215 1.366 . S
C1214 C1216 1.388 . S
C1215 C1214 1.366 . S
C1215 C1219 1.385 . S
C1216 H1197 0.951 . S
C1216 C1214 1.388 . S
C1216 C1217 1.366 . S
C1217 C1216 1.366 . S
C1217 C1218 1.414 . S
C1217 C1220 1.499 . S
C1218 H1198 0.950 . S
C1218 C1217 1.414 . S
C1218 C1219 1.374 . S
C1219 H1199 0.950 . S
C1219 C1215 1.385 . S
C1219 C1218 1.374 . S
C1220 C1217 1.499 . S
C1220 C1221 1.373 . S
C1220 C1222 1.389 . S
C1221 H1200 0.950 . S
C1221 C1220 1.373 . S
C1221 C1237 1.377 . S
C1222 C1220 1.389 . S
C1222 C1223 1.524 . S
C1222 C1236 1.377 . S
C1223 C1222 1.524 . S
C1223 C1224 1.397 . S
C1223 C1228 1.363 . S
C1224 H1201 0.950 . S
C1224 C1223 1.397 . S
C1224 C1225 1.334 . S
C1225 H1202 0.950 . S
C1225 C1224 1.334 . S
C1225 C1226 1.287 . S
C1226 C1225 1.287 . S
C1226 C1227 1.524 . S
C1226 H1245 0.913 . S
C1227 H1203 0.950 . S
C1227 C1226 1.524 . S
C1227 C1228 1.415 . S
C1228 H1204 0.950 . S
C1228 C1223 1.363 . S
C1228 C1227 1.415 . S
C1229 H1205 0.951 . S
C1229 C1230 1.366 . S
C1229 C1231 1.388 . S
C1230 C1229 1.366 . S
C1230 C1234 1.385 . S
C1231 H1206 0.951 . S
C1231 C1229 1.388 . S
C1231 C1232 1.366 . S
C1232 C1231 1.366 . S
C1232 C1233 1.414 . S
C1232 C1235 1.499 . S
C1233 H1207 0.950 . S
C1233 C1232 1.414 . S
C1233 C1234 1.374 . S
C1234 H1208 0.950 . S
C1234 C1230 1.385 . S
C1234 C1233 1.374 . S
C1235 C1232 1.499 . S
C1235 C1236 1.373 . S
C1235 C1237 1.389 . S
C1236 H1209 0.950 . S
C1236 C1222 1.377 . S
C1236 C1235 1.373 . S
C1237 C1221 1.377 . S
C1237 C1235 1.389 . S
C1237 C1238 1.524 . S
C1238 C1237 1.524 . S
C1238 C1239 1.397 . S
C1238 C1243 1.363 . S
C1239 H1210 0.950 . S
C1239 C1238 1.397 . S
C1239 C1240 1.334 . S
C1240 H1211 0.950 . S
C1240 C1239 1.334 . S
C1240 C1241 1.287 . S
C1241 C1240 1.287 . S
C1241 C1242 1.524 . S
C1241 H1244 0.999 . S
C1242 H1212 0.950 . S
C1242 C1241 1.524 . S
C1242 C1243 1.415 . S
C1243 H1213 0.950 . S
C1243 C1238 1.363 . S
C1243 C1242 1.415 . S
H1244 C1241 0.999 . S
H1245 C1226 0.913 . S
H1246 C1264 0.951 . S
H1247 C1266 0.951 . S
H1248 C1268 0.950 . S
H1249 C1269 0.950 . S
H1250 C1271 0.950 . S
H1251 C1274 0.950 . S
H1252 C1275 0.950 . S
H1253 C1277 0.950 . S
H1254 C1278 0.950 . S
H1255 C1279 0.951 . S
H1256 C1281 0.951 . S
H1257 C1283 0.950 . S
H1258 C1284 0.950 . S
H1259 C1286 0.950 . S
H1260 C1289 0.950 . S
H1261 C1290 0.950 . S
H1262 C1292 0.950 . S
H1263 C1293 0.950 . S
C1264 H1246 0.951 . S
C1264 C1265 1.366 . S
C1264 C1266 1.388 . S
C1265 C1264 1.366 . S
C1265 C1269 1.385 . S
C1266 H1247 0.951 . S
C1266 C1264 1.388 . S
C1266 C1267 1.366 . S
C1267 C1266 1.366 . S
C1267 C1268 1.414 . S
C1267 C1270 1.499 . S
C1268 H1248 0.950 . S
C1268 C1267 1.414 . S
C1268 C1269 1.374 . S
C1269 H1249 0.950 . S
C1269 C1265 1.385 . S
C1269 C1268 1.374 . S
C1270 C1267 1.499 . S
C1270 C1271 1.373 . S
C1270 C1272 1.389 . S
C1271 H1250 0.950 . S
C1271 C1270 1.373 . S
C1271 C1287 1.377 . S
C1272 C1270 1.389 . S
C1272 C1273 1.524 . S
C1272 C1286 1.377 . S
C1273 C1272 1.524 . S
C1273 C1274 1.397 . S
C1273 C1278 1.363 . S
C1274 H1251 0.950 . S
C1274 C1273 1.397 . S
C1274 C1275 1.334 . S
C1275 H1252 0.950 . S
C1275 C1274 1.334 . S
C1275 C1276 1.287 . S
C1276 C1275 1.287 . S
C1276 C1277 1.524 . S
C1276 H1295 0.913 . S
C1277 H1253 0.950 . S
C1277 C1276 1.524 . S
C1277 C1278 1.415 . S
C1278 H1254 0.950 . S
C1278 C1273 1.363 . S
C1278 C1277 1.415 . S
C1279 H1255 0.951 . S
C1279 C1280 1.366 . S
C1279 C1281 1.388 . S
C1280 C1279 1.366 . S
C1280 C1284 1.385 . S
C1281 H1256 0.951 . S
C1281 C1279 1.388 . S
C1281 C1282 1.366 . S
C1282 C1281 1.366 . S
C1282 C1283 1.414 . S
C1282 C1285 1.499 . S
C1283 H1257 0.950 . S
C1283 C1282 1.414 . S
C1283 C1284 1.374 . S
C1284 H1258 0.950 . S
C1284 C1280 1.385 . S
C1284 C1283 1.374 . S
C1285 C1282 1.499 . S
C1285 C1286 1.373 . S
C1285 C1287 1.389 . S
C1286 H1259 0.950 . S
C1286 C1272 1.377 . S
C1286 C1285 1.373 . S
C1287 C1271 1.377 . S
C1287 C1285 1.389 . S
C1287 C1288 1.524 . S
C1288 C1287 1.524 . S
C1288 C1289 1.397 . S
C1288 C1293 1.363 . S
C1289 H1260 0.950 . S
C1289 C1288 1.397 . S
C1289 C1290 1.334 . S
C1290 H1261 0.950 . S
C1290 C1289 1.334 . S
C1290 C1291 1.287 . S
C1291 C1290 1.287 . S
C1291 C1292 1.524 . S
C1291 H1294 0.999 . S
C1292 H1262 0.950 . S
C1292 C1291 1.524 . S
C1292 C1293 1.415 . S
C1293 H1263 0.950 . S
C1293 C1288 1.363 . S
C1293 C1292 1.415 . S
H1294 C1291 0.999 . S
H1295 C1276 0.913 . S
H1296 C1314 0.951 . S
H1297 C1316 0.951 . S
H1298 C1318 0.950 . S
H1299 C1319 0.950 . S
H1300 C1321 0.950 . S
H1301 C1324 0.950 . S
H1302 C1325 0.950 . S
H1303 C1327 0.950 . S
H1304 C1328 0.950 . S
H1305 C1329 0.951 . S
H1306 C1331 0.951 . S
H1307 C1333 0.950 . S
H1308 C1334 0.950 . S
H1309 C1336 0.950 . S
H1310 C1339 0.950 . S
H1311 C1340 0.950 . S
H1312 C1342 0.950 . S
H1313 C1343 0.950 . S
C1314 H1296 0.951 . S
C1314 C1315 1.366 . S
C1314 C1316 1.388 . S
C1315 C1314 1.366 . S
C1315 C1319 1.385 . S
C1316 H1297 0.951 . S
C1316 C1314 1.388 . S
C1316 C1317 1.366 . S
C1317 C1316 1.366 . S
C1317 C1318 1.414 . S
C1317 C1320 1.499 . S
C1318 H1298 0.950 . S
C1318 C1317 1.414 . S
C1318 C1319 1.374 . S
C1319 H1299 0.950 . S
C1319 C1315 1.385 . S
C1319 C1318 1.374 . S
C1320 C1317 1.499 . S
C1320 C1321 1.373 . S
C1320 C1322 1.389 . S
C1321 H1300 0.950 . S
C1321 C1320 1.373 . S
C1321 C1337 1.377 . S
C1322 C1320 1.389 . S
C1322 C1323 1.524 . S
C1322 C1336 1.377 . S
C1323 C1322 1.524 . S
C1323 C1324 1.397 . S
C1323 C1328 1.363 . S
C1324 H1301 0.950 . S
C1324 C1323 1.397 . S
C1324 C1325 1.334 . S
C1325 H1302 0.950 . S
C1325 C1324 1.334 . S
C1325 C1326 1.287 . S
C1326 C1325 1.287 . S
C1326 C1327 1.524 . S
C1326 H1345 0.913 . S
C1327 H1303 0.950 . S
C1327 C1326 1.524 . S
C1327 C1328 1.415 . S
C1328 H1304 0.950 . S
C1328 C1323 1.363 . S
C1328 C1327 1.415 . S
C1329 H1305 0.951 . S
C1329 C1330 1.366 . S
C1329 C1331 1.388 . S
C1330 C1329 1.366 . S
C1330 C1334 1.385 . S
C1331 H1306 0.951 . S
C1331 C1329 1.388 . S
C1331 C1332 1.366 . S
C1332 C1331 1.366 . S
C1332 C1333 1.414 . S
C1332 C1335 1.499 . S
C1333 H1307 0.950 . S
C1333 C1332 1.414 . S
C1333 C1334 1.374 . S
C1334 H1308 0.950 . S
C1334 C1330 1.385 . S
C1334 C1333 1.374 . S
C1335 C1332 1.499 . S
C1335 C1336 1.373 . S
C1335 C1337 1.389 . S
C1336 H1309 0.950 . S
C1336 C1322 1.377 . S
C1336 C1335 1.373 . S
C1337 C1321 1.377 . S
C1337 C1335 1.389 . S
C1337 C1338 1.524 . S
C1338 C1337 1.524 . S
C1338 C1339 1.397 . S
C1338 C1343 1.363 . S
C1339 H1310 0.950 . S
C1339 C1338 1.397 . S
C1339 C1340 1.334 . S
C1340 H1311 0.950 . S
C1340 C1339 1.334 . S
C1340 C1341 1.287 . S
C1341 C1340 1.287 . S
C1341 C1342 1.524 . S
C1341 H1344 0.999 . S
C1342 H1312 0.950 . S
C1342 C1341 1.524 . S
C1342 C1343 1.415 . S
C1343 H1313 0.950 . S
C1343 C1338 1.363 . S
C1343 C1342 1.415 . S
H1344 C1341 0.999 . S
H1345 C1326 0.913 . S
H1346 C1364 0.951 . S
H1347 C1366 0.951 . S
H1348 C1368 0.950 . S
H1349 C1369 0.950 . S
H1350 C1371 0.950 . S
H1351 C1374 0.950 . S
H1352 C1375 0.950 . S
H1353 C1377 0.950 . S
H1354 C1378 0.950 . S
H1355 C1379 0.951 . S
H1356 C1381 0.951 . S
H1357 C1383 0.950 . S
H1358 C1384 0.950 . S
H1359 C1386 0.950 . S
H1360 C1389 0.950 . S
H1361 C1390 0.950 . S
H1362 C1392 0.950 . S
H1363 C1393 0.950 . S
C1364 H1346 0.951 . S
C1364 C1365 1.366 . S
C1364 C1366 1.388 . S
C1365 C1364 1.366 . S
C1365 C1369 1.385 . S
C1366 H1347 0.951 . S
C1366 C1364 1.388 . S
C1366 C1367 1.366 . S
C1367 C1366 1.366 . S
C1367 C1368 1.414 . S
C1367 C1370 1.499 . S
C1368 H1348 0.950 . S
C1368 C1367 1.414 . S
C1368 C1369 1.374 . S
C1369 H1349 0.950 . S
C1369 C1365 1.385 . S
C1369 C1368 1.374 . S
C1370 C1367 1.499 . S
C1370 C1371 1.373 . S
C1370 C1372 1.389 . S
C1371 H1350 0.950 . S
C1371 C1370 1.373 . S
C1371 C1387 1.377 . S
C1372 C1370 1.389 . S
C1372 C1373 1.524 . S
C1372 C1386 1.377 . S
C1373 C1372 1.524 . S
C1373 C1374 1.397 . S
C1373 C1378 1.363 1_455 S
C1374 H1351 0.950 . S
C1374 C1373 1.397 . S
C1374 C1375 1.334 . S
C1375 H1352 0.950 . S
C1375 C1374 1.334 . S
C1375 C1376 1.287 1_455 S
C1376 C1375 1.287 1_655 S
C1376 C1377 1.524 . S
C1376 H1395 0.913 . S
C1377 H1353 0.950 . S
C1377 C1376 1.524 . S
C1377 C1378 1.415 . S
C1378 H1354 0.950 . S
C1378 C1373 1.363 1_655 S
C1378 C1377 1.415 . S
C1379 H1355 0.951 . S
C1379 C1380 1.366 . S
C1379 C1381 1.388 . S
C1380 C1379 1.366 . S
C1380 C1384 1.385 . S
C1381 H1356 0.951 . S
C1381 C1379 1.388 . S
C1381 C1382 1.366 . S
C1382 C1381 1.366 . S
C1382 C1383 1.414 . S
C1382 C1385 1.499 . S
C1383 H1357 0.950 . S
C1383 C1382 1.414 . S
C1383 C1384 1.374 . S
C1384 H1358 0.950 . S
C1384 C1380 1.385 . S
C1384 C1383 1.374 . S
C1385 C1382 1.499 . S
C1385 C1386 1.373 . S
C1385 C1387 1.389 . S
C1386 H1359 0.950 . S
C1386 C1372 1.377 . S
C1386 C1385 1.373 . S
C1387 C1371 1.377 . S
C1387 C1385 1.389 . S
C1387 C1388 1.524 . S
C1388 C1387 1.524 . S
C1388 C1389 1.397 . S
C1388 C1393 1.363 . S
C1389 H1360 0.950 . S
C1389 C1388 1.397 . S
C1389 C1390 1.334 . S
C1390 H1361 0.950 . S
C1390 C1389 1.334 . S
C1390 C1391 1.287 . S
C1391 C1390 1.287 . S
C1391 C1392 1.524 . S
C1391 H1394 0.999 . S
C1392 H1362 0.950 . S
C1392 C1391 1.524 . S
C1392 C1393 1.415 . S
C1393 H1363 0.950 . S
C1393 C1388 1.363 . S
C1393 C1392 1.415 . S
H1394 C1391 0.999 . S
H1395 C1376 0.913 . S
H1396 C1414 0.951 . S
H1397 C1416 0.951 . S
H1398 C1418 0.950 . S
H1399 C1419 0.950 . S
H1400 C1421 0.950 . S
H1401 C1424 0.950 . S
H1402 C1425 0.950 . S
H1403 C1427 0.950 . S
H1404 C1428 0.950 . S
H1405 C1429 0.951 . S
H1406 C1431 0.951 . S
H1407 C1433 0.950 . S
H1408 C1434 0.950 . S
H1409 C1436 0.950 . S
H1410 C1439 0.950 . S
H1411 C1440 0.950 . S
H1412 C1442 0.950 . S
H1413 C1443 0.950 . S
C1414 H1396 0.951 . S
C1414 C1415 1.366 . S
C1414 C1416 1.388 . S
C1415 C1414 1.366 . S
C1415 C1419 1.385 . S
C1416 H1397 0.951 . S
C1416 C1414 1.388 . S
C1416 C1417 1.366 . S
C1417 C1416 1.366 . S
C1417 C1418 1.414 . S
C1417 C1420 1.499 . S
C1418 H1398 0.950 . S
C1418 C1417 1.414 . S
C1418 C1419 1.374 . S
C1419 H1399 0.950 . S
C1419 C1415 1.385 . S
C1419 C1418 1.374 . S
C1420 C1417 1.499 . S
C1420 C1421 1.373 . S
C1420 C1422 1.389 . S
C1421 H1400 0.950 . S
C1421 C1420 1.373 . S
C1421 C1437 1.377 . S
C1422 C1420 1.389 . S
C1422 C1423 1.524 . S
C1422 C1436 1.377 . S
C1423 C1422 1.524 . S
C1423 C1424 1.397 1_545 S
C1423 C1428 1.363 . S
C1424 H1401 0.950 . S
C1424 C1423 1.397 1_565 S
C1424 C1425 1.334 . S
C1425 H1402 0.950 . S
C1425 C1424 1.334 . S
C1425 C1426 1.287 . S
C1426 C1425 1.287 . S
C1426 C1427 1.524 . S
C1426 H1445 0.913 . S
C1427 H1403 0.950 . S
C1427 C1426 1.524 . S
C1427 C1428 1.415 1_565 S
C1428 H1404 0.950 . S
C1428 C1423 1.363 . S
C1428 C1427 1.415 1_545 S
C1429 H1405 0.951 . S
C1429 C1430 1.366 . S
C1429 C1431 1.388 . S
C1430 C1429 1.366 . S
C1430 C1434 1.385 . S
C1431 H1406 0.951 . S
C1431 C1429 1.388 . S
C1431 C1432 1.366 . S
C1432 C1431 1.366 . S
C1432 C1433 1.414 . S
C1432 C1435 1.499 . S
C1433 H1407 0.950 . S
C1433 C1432 1.414 . S
C1433 C1434 1.374 . S
C1434 H1408 0.950 . S
C1434 C1430 1.385 . S
C1434 C1433 1.374 . S
C1435 C1432 1.499 . S
C1435 C1436 1.373 . S
C1435 C1437 1.389 . S
C1436 H1409 0.950 . S
C1436 C1422 1.377 . S
C1436 C1435 1.373 . S
C1437 C1421 1.377 . S
C1437 C1435 1.389 . S
C1437 C1438 1.524 . S
C1438 C1437 1.524 . S
C1438 C1439 1.397 . S
C1438 C1443 1.363 . S
C1439 H1410 0.950 . S
C1439 C1438 1.397 . S
C1439 C1440 1.334 . S
C1440 H1411 0.950 . S
C1440 C1439 1.334 . S
C1440 C1441 1.287 . S
C1441 C1440 1.287 . S
C1441 C1442 1.524 . S
C1441 H1444 0.999 . S
C1442 H1412 0.950 . S
C1442 C1441 1.524 . S
C1442 C1443 1.415 . S
C1443 H1413 0.950 . S
C1443 C1438 1.363 . S
C1443 C1442 1.415 . S
H1444 C1441 0.999 . S
H1445 C1426 0.913 . S
H1446 C1464 0.951 . S
H1447 C1466 0.951 . S
H1448 C1468 0.950 . S
H1449 C1469 0.950 . S
H1450 C1471 0.950 . S
H1451 C1474 0.950 . S
H1452 C1475 0.950 . S
H1453 C1477 0.950 . S
H1454 C1478 0.950 . S
H1455 C1479 0.951 . S
H1456 C1481 0.951 . S
H1457 C1483 0.950 . S
H1458 C1484 0.950 . S
H1459 C1486 0.950 . S
H1460 C1489 0.950 . S
H1461 C1490 0.950 . S
H1462 C1492 0.950 . S
H1463 C1493 0.950 . S
C1464 H1446 0.951 . S
C1464 C1465 1.366 . S
C1464 C1466 1.388 . S
C1465 C1464 1.366 . S
C1465 C1469 1.385 . S
C1466 H1447 0.951 . S
C1466 C1464 1.388 . S
C1466 C1467 1.366 . S
C1467 C1466 1.366 . S
C1467 C1468 1.414 . S
C1467 C1470 1.499 . S
C1468 H1448 0.950 . S
C1468 C1467 1.414 . S
C1468 C1469 1.374 . S
C1469 H1449 0.950 . S
C1469 C1465 1.385 . S
C1469 C1468 1.374 . S
C1470 C1467 1.499 . S
C1470 C1471 1.373 . S
C1470 C1472 1.389 . S
C1471 H1450 0.950 . S
C1471 C1470 1.373 . S
C1471 C1487 1.377 . S
C1472 C1470 1.389 . S
C1472 C1473 1.524 . S
C1472 C1486 1.377 . S
C1473 C1472 1.524 . S
C1473 C1474 1.397 . S
C1473 C1478 1.363 . S
C1474 H1451 0.950 . S
C1474 C1473 1.397 . S
C1474 C1475 1.334 . S
C1475 H1452 0.950 . S
C1475 C1474 1.334 . S
C1475 C1476 1.287 . S
C1476 C1475 1.287 . S
C1476 C1477 1.524 . S
C1476 H1495 0.913 . S
C1477 H1453 0.950 . S
C1477 C1476 1.524 . S
C1477 C1478 1.415 . S
C1478 H1454 0.950 . S
C1478 C1473 1.363 . S
C1478 C1477 1.415 . S
C1479 H1455 0.951 . S
C1479 C1480 1.366 . S
C1479 C1481 1.388 . S
C1480 C1479 1.366 . S
C1480 C1484 1.385 . S
C1481 H1456 0.951 . S
C1481 C1479 1.388 . S
C1481 C1482 1.366 . S
C1482 C1481 1.366 . S
C1482 C1483 1.414 . S
C1482 C1485 1.499 . S
C1483 H1457 0.950 . S
C1483 C1482 1.414 . S
C1483 C1484 1.374 . S
C1484 H1458 0.950 . S
C1484 C1480 1.385 . S
C1484 C1483 1.374 . S
C1485 C1482 1.499 . S
C1485 C1486 1.373 . S
C1485 C1487 1.389 . S
C1486 H1459 0.950 . S
C1486 C1472 1.377 . S
C1486 C1485 1.373 . S
C1487 C1471 1.377 . S
C1487 C1485 1.389 . S
C1487 C1488 1.524 . S
C1488 C1487 1.524 . S
C1488 C1489 1.397 . S
C1488 C1493 1.363 . S
C1489 H1460 0.950 . S
C1489 C1488 1.397 . S
C1489 C1490 1.334 . S
C1490 H1461 0.950 . S
C1490 C1489 1.334 . S
C1490 C1491 1.287 . S
C1491 C1490 1.287 . S
C1491 C1492 1.524 . S
C1491 H1494 0.999 . S
C1492 H1462 0.950 . S
C1492 C1491 1.524 . S
C1492 C1493 1.415 . S
C1493 H1463 0.950 . S
C1493 C1488 1.363 . S
C1493 C1492 1.415 . S
H1494 C1491 0.999 . S
H1495 C1476 0.913 . S
H1496 C1514 0.951 . S
H1497 C1516 0.951 . S
H1498 C1518 0.950 . S
H1499 C1519 0.950 . S
H1500 C1521 0.950 . S
H1501 C1524 0.950 . S
H1502 C1525 0.950 . S
H1503 C1527 0.950 . S
H1504 C1528 0.950 1_655 S
H1505 C1529 0.951 . S
H1506 C1531 0.951 . S
H1507 C1533 0.950 . S
H1508 C1534 0.950 . S
H1509 C1536 0.950 . S
H1510 C1539 0.950 . S
H1511 C1540 0.950 . S
H1512 C1542 0.950 . S
H1513 C1543 0.950 . S
C1514 H1496 0.951 . S
C1514 C1515 1.366 . S
C1514 C1516 1.388 . S
C1515 C1514 1.366 . S
C1515 C1519 1.385 . S
C1516 H1497 0.951 . S
C1516 C1514 1.388 . S
C1516 C1517 1.366 . S
C1517 C1516 1.366 . S
C1517 C1518 1.414 . S
C1517 C1520 1.499 . S
C1518 H1498 0.950 . S
C1518 C1517 1.414 . S
C1518 C1519 1.374 . S
C1519 H1499 0.950 . S
C1519 C1515 1.385 . S
C1519 C1518 1.374 . S
C1520 C1517 1.499 . S
C1520 C1521 1.373 . S
C1520 C1522 1.389 . S
C1521 H1500 0.950 . S
C1521 C1520 1.373 . S
C1521 C1537 1.377 . S
C1522 C1520 1.389 . S
C1522 C1523 1.524 . S
C1522 C1536 1.377 . S
C1523 C1522 1.524 . S
C1523 C1524 1.397 1_655 S
C1523 C1528 1.363 1_655 S
C1524 H1501 0.950 . S
C1524 C1523 1.397 1_455 S
C1524 C1525 1.334 . S
C1525 H1502 0.950 . S
C1525 C1524 1.334 . S
C1525 C1526 1.287 . S
C1526 C1525 1.287 . S
C1526 C1527 1.524 . S
C1526 H1545 0.913 . S
C1527 H1503 0.950 . S
C1527 C1526 1.524 . S
C1527 C1528 1.415 . S
C1528 H1504 0.950 1_455 S
C1528 C1523 1.363 1_455 S
C1528 C1527 1.415 . S
C1529 H1505 0.951 . S
C1529 C1530 1.366 . S
C1529 C1531 1.388 . S
C1530 C1529 1.366 . S
C1530 C1534 1.385 . S
C1531 H1506 0.951 . S
C1531 C1529 1.388 . S
C1531 C1532 1.366 . S
C1532 C1531 1.366 . S
C1532 C1533 1.414 . S
C1532 C1535 1.499 . S
C1533 H1507 0.950 . S
C1533 C1532 1.414 . S
C1533 C1534 1.374 . S
C1534 H1508 0.950 . S
C1534 C1530 1.385 . S
C1534 C1533 1.374 . S
C1535 C1532 1.499 . S
C1535 C1536 1.373 . S
C1535 C1537 1.389 . S
C1536 H1509 0.950 . S
C1536 C1522 1.377 . S
C1536 C1535 1.373 . S
C1537 C1521 1.377 . S
C1537 C1535 1.389 . S
C1537 C1538 1.524 . S
C1538 C1537 1.524 . S
C1538 C1539 1.397 . S
C1538 C1543 1.363 . S
C1539 H1510 0.950 . S
C1539 C1538 1.397 . S
C1539 C1540 1.334 . S
C1540 H1511 0.950 . S
C1540 C1539 1.334 . S
C1540 C1541 1.287 . S
C1541 C1540 1.287 . S
C1541 C1542 1.524 . S
C1541 H1544 0.999 . S
C1542 H1512 0.950 . S
C1542 C1541 1.524 . S
C1542 C1543 1.415 . S
C1543 H1513 0.950 . S
C1543 C1538 1.363 . S
C1543 C1542 1.415 . S
H1544 C1541 0.999 . S
H1545 C1526 0.913 . S
H1546 C1564 0.951 . S
H1547 C1566 0.951 . S
H1548 C1568 0.950 . S
H1549 C1569 0.950 . S
H1550 C1571 0.950 . S
H1551 C1574 0.950 . S
H1552 C1575 0.950 . S
H1553 C1577 0.950 . S
H1554 C1578 0.950 . S
H1555 C1579 0.951 . S
H1556 C1581 0.951 . S
H1557 C1583 0.950 . S
H1558 C1584 0.950 . S
H1559 C1586 0.950 . S
H1560 C1589 0.950 . S
H1561 C1590 0.950 . S
H1562 C1592 0.950 . S
H1563 C1593 0.950 . S
C1564 H1546 0.951 . S
C1564 C1565 1.366 . S
C1564 C1566 1.388 . S
C1565 C1564 1.366 . S
C1565 C1569 1.385 . S
C1566 H1547 0.951 . S
C1566 C1564 1.388 . S
C1566 C1567 1.366 . S
C1567 C1566 1.366 . S
C1567 C1568 1.414 . S
C1567 C1570 1.499 . S
C1568 H1548 0.950 . S
C1568 C1567 1.414 . S
C1568 C1569 1.374 . S
C1569 H1549 0.950 . S
C1569 C1565 1.385 . S
C1569 C1568 1.374 . S
C1570 C1567 1.499 . S
C1570 C1571 1.373 . S
C1570 C1572 1.389 . S
C1571 H1550 0.950 . S
C1571 C1570 1.373 . S
C1571 C1587 1.377 . S
C1572 C1570 1.389 . S
C1572 C1573 1.524 . S
C1572 C1586 1.377 . S
C1573 C1572 1.524 . S
C1573 C1574 1.397 . S
C1573 C1578 1.363 . S
C1574 H1551 0.950 . S
C1574 C1573 1.397 . S
C1574 C1575 1.334 . S
C1575 H1552 0.950 . S
C1575 C1574 1.334 . S
C1575 C1576 1.287 . S
C1576 C1575 1.287 . S
C1576 C1577 1.524 . S
C1576 H1595 0.913 . S
C1577 H1553 0.950 . S
C1577 C1576 1.524 . S
C1577 C1578 1.415 . S
C1578 H1554 0.950 . S
C1578 C1573 1.363 . S
C1578 C1577 1.415 . S
C1579 H1555 0.951 . S
C1579 C1580 1.366 . S
C1579 C1581 1.388 . S
C1580 C1579 1.366 . S
C1580 C1584 1.385 . S
C1581 H1556 0.951 . S
C1581 C1579 1.388 . S
C1581 C1582 1.366 . S
C1582 C1581 1.366 . S
C1582 C1583 1.414 . S
C1582 C1585 1.499 . S
C1583 H1557 0.950 . S
C1583 C1582 1.414 . S
C1583 C1584 1.374 . S
C1584 H1558 0.950 . S
C1584 C1580 1.385 . S
C1584 C1583 1.374 . S
C1585 C1582 1.499 . S
C1585 C1586 1.373 . S
C1585 C1587 1.389 . S
C1586 H1559 0.950 . S
C1586 C1572 1.377 . S
C1586 C1585 1.373 . S
C1587 C1571 1.377 . S
C1587 C1585 1.389 . S
C1587 C1588 1.524 . S
C1588 C1587 1.524 . S
C1588 C1589 1.397 1_565 S
C1588 C1593 1.363 . S
C1589 H1560 0.950 . S
C1589 C1588 1.397 1_545 S
C1589 C1590 1.334 . S
C1590 H1561 0.950 . S
C1590 C1589 1.334 . S
C1590 C1591 1.287 . S
C1591 C1590 1.287 . S
C1591 C1592 1.524 . S
C1591 H1594 0.999 . S
C1592 H1562 0.950 . S
C1592 C1591 1.524 . S
C1592 C1593 1.415 1_545 S
C1593 H1563 0.950 . S
C1593 C1588 1.363 . S
C1593 C1592 1.415 1_565 S
H1594 C1591 0.999 . S
H1595 C1576 0.913 . S
H1596 C1614 0.951 . S
H1597 C1616 0.951 . S
H1598 C1618 0.950 . S
H1599 C1619 0.950 . S
H1600 C1621 0.950 . S
H1601 C1624 0.950 . S
H1602 C1625 0.950 . S
H1603 C1627 0.950 . S
H1604 C1628 0.950 . S
H1605 C1629 0.951 . S
H1606 C1631 0.951 . S
H1607 C1633 0.950 . S
H1608 C1634 0.950 . S
H1609 C1636 0.950 . S
H1610 C1639 0.950 . S
H1611 C1640 0.950 . S
H1612 C1642 0.950 . S
H1613 C1643 0.950 . S
C1614 H1596 0.951 . S
C1614 C1615 1.366 . S
C1614 C1616 1.388 . S
C1615 C1614 1.366 . S
C1615 C1619 1.385 . S
C1616 H1597 0.951 . S
C1616 C1614 1.388 . S
C1616 C1617 1.366 . S
C1617 C1616 1.366 . S
C1617 C1618 1.414 . S
C1617 C1620 1.499 . S
C1618 H1598 0.950 . S
C1618 C1617 1.414 . S
C1618 C1619 1.374 . S
C1619 H1599 0.950 . S
C1619 C1615 1.385 . S
C1619 C1618 1.374 . S
C1620 C1617 1.499 . S
C1620 C1621 1.373 . S
C1620 C1622 1.389 . S
C1621 H1600 0.950 . S
C1621 C1620 1.373 . S
C1621 C1637 1.377 . S
C1622 C1620 1.389 . S
C1622 C1623 1.524 . S
C1622 C1636 1.377 . S
C1623 C1622 1.524 . S
C1623 C1624 1.397 . S
C1623 C1628 1.363 . S
C1624 H1601 0.950 . S
C1624 C1623 1.397 . S
C1624 C1625 1.334 . S
C1625 H1602 0.950 . S
C1625 C1624 1.334 . S
C1625 C1626 1.287 . S
C1626 C1625 1.287 . S
C1626 C1627 1.524 . S
C1626 H1645 0.913 . S
C1627 H1603 0.950 . S
C1627 C1626 1.524 . S
C1627 C1628 1.415 . S
C1628 H1604 0.950 . S
C1628 C1623 1.363 . S
C1628 C1627 1.415 . S
C1629 H1605 0.951 . S
C1629 C1630 1.366 . S
C1629 C1631 1.388 . S
C1630 C1629 1.366 . S
C1630 C1634 1.385 . S
C1631 H1606 0.951 . S
C1631 C1629 1.388 . S
C1631 C1632 1.366 . S
C1632 C1631 1.366 . S
C1632 C1633 1.414 . S
C1632 C1635 1.499 . S
C1633 H1607 0.950 . S
C1633 C1632 1.414 . S
C1633 C1634 1.374 . S
C1634 H1608 0.950 . S
C1634 C1630 1.385 . S
C1634 C1633 1.374 . S
C1635 C1632 1.499 . S
C1635 C1636 1.373 . S
C1635 C1637 1.389 . S
C1636 H1609 0.950 . S
C1636 C1622 1.377 . S
C1636 C1635 1.373 . S
C1637 C1621 1.377 . S
C1637 C1635 1.389 . S
C1637 C1638 1.524 . S
C1638 C1637 1.524 . S
C1638 C1639 1.397 . S
C1638 C1643 1.363 . S
C1639 H1610 0.950 . S
C1639 C1638 1.397 . S
C1639 C1640 1.334 . S
C1640 H1611 0.950 . S
C1640 C1639 1.334 . S
C1640 C1641 1.287 . S
C1641 C1640 1.287 . S
C1641 C1642 1.524 . S
C1641 H1644 0.999 . S
C1642 H1612 0.950 . S
C1642 C1641 1.524 . S
C1642 C1643 1.415 . S
C1643 H1613 0.950 . S
C1643 C1638 1.363 . S
C1643 C1642 1.415 . S
H1644 C1641 0.999 . S
H1645 C1626 0.913 . S
H1646 C1664 0.951 . S
H1647 C1666 0.951 . S
H1648 C1668 0.950 . S
H1649 C1669 0.950 . S
H1650 C1671 0.950 . S
H1651 C1674 0.950 . S
H1652 C1675 0.950 . S
H1653 C1677 0.950 . S
H1654 C1678 0.950 . S
H1655 C1679 0.951 . S
H1656 C1681 0.951 . S
H1657 C1683 0.950 . S
H1658 C1684 0.950 . S
H1659 C1686 0.950 . S
H1660 C1689 0.950 . S
H1661 C1690 0.950 . S
H1662 C1692 0.950 . S
H1663 C1693 0.950 . S
C1664 H1646 0.951 . S
C1664 C1665 1.366 1_655 S
C1664 C1666 1.388 . S
C1665 C1664 1.366 1_455 S
C1665 C1669 1.385 . S
C1666 H1647 0.951 . S
C1666 C1664 1.388 . S
C1666 C1667 1.366 1_655 S
C1667 C1666 1.366 1_455 S
C1667 C1668 1.414 . S
C1667 C1670 1.499 . S
C1668 H1648 0.950 . S
C1668 C1667 1.414 . S
C1668 C1669 1.374 . S
C1669 H1649 0.950 . S
C1669 C1665 1.385 . S
C1669 C1668 1.374 . S
C1670 C1667 1.499 . S
C1670 C1671 1.373 . S
C1670 C1672 1.389 1_455 S
C1671 H1650 0.950 . S
C1671 C1670 1.373 . S
C1671 C1687 1.377 . S
C1672 C1670 1.389 1_655 S
C1672 C1673 1.524 . S
C1672 C1686 1.377 . S
C1673 C1672 1.524 . S
C1673 C1674 1.397 1_655 S
C1673 C1678 1.363 . S
C1674 H1651 0.950 . S
C1674 C1673 1.397 1_455 S
C1674 C1675 1.334 . S
C1675 H1652 0.950 . S
C1675 C1674 1.334 . S
C1675 C1676 1.287 1_455 S
C1676 C1675 1.287 1_655 S
C1676 C1677 1.524 . S
C1676 H1695 0.913 . S
C1677 H1653 0.950 . S
C1677 C1676 1.524 . S
C1677 C1678 1.415 . S
C1678 H1654 0.950 . S
C1678 C1673 1.363 . S
C1678 C1677 1.415 . S
C1679 H1655 0.951 . S
C1679 C1680 1.366 1_455 S
C1679 C1681 1.388 . S
C1680 C1679 1.366 1_655 S
C1680 C1684 1.385 . S
C1681 H1656 0.951 . S
C1681 C1679 1.388 . S
C1681 C1682 1.366 1_455 S
C1682 C1681 1.366 1_655 S
C1682 C1683 1.414 . S
C1682 C1685 1.499 . S
C1683 H1657 0.950 . S
C1683 C1682 1.414 . S
C1683 C1684 1.374 . S
C1684 H1658 0.950 . S
C1684 C1680 1.385 . S
C1684 C1683 1.374 . S
C1685 C1682 1.499 . S
C1685 C1686 1.373 . S
C1685 C1687 1.389 1_655 S
C1686 H1659 0.950 . S
C1686 C1672 1.377 . S
C1686 C1685 1.373 . S
C1687 C1671 1.377 . S
C1687 C1685 1.389 1_455 S
C1687 C1688 1.524 . S
C1688 C1687 1.524 . S
C1688 C1689 1.397 1_455 S
C1688 C1693 1.363 . S
C1689 H1660 0.950 . S
C1689 C1688 1.397 1_655 S
C1689 C1690 1.334 . S
C1690 H1661 0.950 . S
C1690 C1689 1.334 . S
C1690 C1691 1.287 1_655 S
C1691 C1690 1.287 1_455 S
C1691 C1692 1.524 . S
C1691 H1694 0.999 . S
C1692 H1662 0.950 . S
C1692 C1691 1.524 . S
C1692 C1693 1.415 . S
C1693 H1663 0.950 . S
C1693 C1688 1.363 . S
C1693 C1692 1.415 . S
H1694 C1691 0.999 . S
H1695 C1676 0.913 . S
H1696 C1714 0.951 . S
H1697 C1716 0.951 . S
H1698 C1718 0.950 . S
H1699 C1719 0.950 . S
H1700 C1721 0.950 . S
H1701 C1724 0.950 . S
H1702 C1725 0.950 . S
H1703 C1727 0.950 . S
H1704 C1728 0.950 . S
H1705 C1729 0.951 . S
H1706 C1731 0.951 . S
H1707 C1733 0.950 . S
H1708 C1734 0.950 . S
H1709 C1736 0.950 . S
H1710 C1739 0.950 . S
H1711 C1740 0.950 . S
H1712 C1742 0.950 . S
H1713 C1743 0.950 . S
C1714 H1696 0.951 . S
C1714 C1715 1.366 1_565 S
C1714 C1716 1.388 . S
C1715 C1714 1.366 1_545 S
C1715 C1719 1.385 . S
C1716 H1697 0.951 . S
C1716 C1714 1.388 . S
C1716 C1717 1.366 1_565 S
C1717 C1716 1.366 1_545 S
C1717 C1718 1.414 . S
C1717 C1720 1.499 . S
C1718 H1698 0.950 . S
C1718 C1717 1.414 . S
C1718 C1719 1.374 . S
C1719 H1699 0.950 . S
C1719 C1715 1.385 . S
C1719 C1718 1.374 . S
C1720 C1717 1.499 . S
C1720 C1721 1.373 . S
C1720 C1722 1.389 1_545 S
C1721 H1700 0.950 . S
C1721 C1720 1.373 . S
C1721 C1737 1.377 1_556 S
C1722 C1720 1.389 1_565 S
C1722 C1723 1.524 . S
C1722 C1736 1.377 1_556 S
C1723 C1722 1.524 . S
C1723 C1724 1.397 . S
C1723 C1728 1.363 . S
C1724 H1701 0.950 . S
C1724 C1723 1.397 . S
C1724 C1725 1.334 . S
C1725 H1702 0.950 . S
C1725 C1724 1.334 . S
C1725 C1726 1.287 . S
C1726 C1725 1.287 . S
C1726 C1727 1.524 . S
C1726 H1745 0.913 . S
C1727 H1703 0.950 . S
C1727 C1726 1.524 . S
C1727 C1728 1.415 . S
C1728 H1704 0.950 . S
C1728 C1723 1.363 . S
C1728 C1727 1.415 . S
C1729 H1705 0.951 . S
C1729 C1730 1.366 1_545 S
C1729 C1731 1.388 . S
C1730 C1729 1.366 1_565 S
C1730 C1734 1.385 . S
C1731 H1706 0.951 . S
C1731 C1729 1.388 . S
C1731 C1732 1.366 1_545 S
C1732 C1731 1.366 1_565 S
C1732 C1733 1.414 . S
C1732 C1735 1.499 . S
C1733 H1707 0.950 . S
C1733 C1732 1.414 . S
C1733 C1734 1.374 . S
C1734 H1708 0.950 . S
C1734 C1730 1.385 . S
C1734 C1733 1.374 . S
C1735 C1732 1.499 . S
C1735 C1736 1.373 . S
C1735 C1737 1.389 1_565 S
C1736 H1709 0.950 . S
C1736 C1722 1.377 1_554 S
C1736 C1735 1.373 . S
C1737 C1721 1.377 1_554 S
C1737 C1735 1.389 1_545 S
C1737 C1738 1.524 . S
C1738 C1737 1.524 . S
C1738 C1739 1.397 . S
C1738 C1743 1.363 . S
C1739 H1710 0.950 . S
C1739 C1738 1.397 . S
C1739 C1740 1.334 . S
C1740 H1711 0.950 . S
C1740 C1739 1.334 . S
C1740 C1741 1.287 . S
C1741 C1740 1.287 . S
C1741 C1742 1.524 . S
C1741 H1744 0.999 . S
C1742 H1712 0.950 . S
C1742 C1741 1.524 . S
C1742 C1743 1.415 . S
C1743 H1713 0.950 . S
C1743 C1738 1.363 . S
C1743 C1742 1.415 . S
H1744 C1741 0.999 . S
H1745 C1726 0.913 . S
H1746 C1764 0.951 . S
H1747 C1766 0.951 . S
H1748 C1768 0.950 . S
H1749 C1769 0.950 . S
H1750 C1771 0.950 . S
H1751 C1774 0.950 . S
H1752 C1775 0.950 . S
H1753 C1777 0.950 . S
H1754 C1778 0.950 . S
H1755 C1779 0.951 . S
H1756 C1781 0.951 . S
H1757 C1783 0.950 . S
H1758 C1784 0.950 . S
H1759 C1786 0.950 . S
H1760 C1789 0.950 . S
H1761 C1790 0.950 . S
H1762 C1792 0.950 . S
H1763 C1793 0.950 . S
C1764 H1746 0.951 . S
C1764 C1765 1.366 . S
C1764 C1766 1.388 . S
C1765 C1764 1.366 . S
C1765 C1769 1.385 . S
C1766 H1747 0.951 . S
C1766 C1764 1.388 . S
C1766 C1767 1.366 . S
C1767 C1766 1.366 . S
C1767 C1768 1.414 . S
C1767 C1770 1.499 . S
C1768 H1748 0.950 . S
C1768 C1767 1.414 . S
C1768 C1769 1.374 . S
C1769 H1749 0.950 . S
C1769 C1765 1.385 . S
C1769 C1768 1.374 . S
C1770 C1767 1.499 . S
C1770 C1771 1.373 . S
C1770 C1772 1.389 . S
C1771 H1750 0.950 . S
C1771 C1770 1.373 . S
C1771 C1787 1.377 . S
C1772 C1770 1.389 . S
C1772 C1773 1.524 . S
C1772 C1786 1.377 . S
C1773 C1772 1.524 . S
C1773 C1774 1.397 . S
C1773 C1778 1.363 . S
C1774 H1751 0.950 . S
C1774 C1773 1.397 . S
C1774 C1775 1.334 . S
C1775 H1752 0.950 . S
C1775 C1774 1.334 . S
C1775 C1776 1.287 . S
C1776 C1775 1.287 . S
C1776 C1777 1.524 . S
C1776 H1795 0.913 . S
C1777 H1753 0.950 . S
C1777 C1776 1.524 . S
C1777 C1778 1.415 . S
C1778 H1754 0.950 . S
C1778 C1773 1.363 . S
C1778 C1777 1.415 . S
C1779 H1755 0.951 . S
C1779 C1780 1.366 . S
C1779 C1781 1.388 . S
C1780 C1779 1.366 . S
C1780 C1784 1.385 . S
C1781 H1756 0.951 . S
C1781 C1779 1.388 . S
C1781 C1782 1.366 . S
C1782 C1781 1.366 . S
C1782 C1783 1.414 . S
C1782 C1785 1.499 . S
C1783 H1757 0.950 . S
C1783 C1782 1.414 . S
C1783 C1784 1.374 . S
C1784 H1758 0.950 . S
C1784 C1780 1.385 . S
C1784 C1783 1.374 . S
C1785 C1782 1.499 . S
C1785 C1786 1.373 . S
C1785 C1787 1.389 . S
C1786 H1759 0.950 . S
C1786 C1772 1.377 . S
C1786 C1785 1.373 . S
C1787 C1771 1.377 . S
C1787 C1785 1.389 . S
C1787 C1788 1.524 . S
C1788 C1787 1.524 . S
C1788 C1789 1.397 . S
C1788 C1793 1.363 . S
C1789 H1760 0.950 . S
C1789 C1788 1.397 . S
C1789 C1790 1.334 . S
C1790 H1761 0.950 . S
C1790 C1789 1.334 . S
C1790 C1791 1.287 . S
C1791 C1790 1.287 . S
C1791 C1792 1.524 . S
C1791 H1794 0.999 . S
C1792 H1762 0.950 . S
C1792 C1791 1.524 . S
C1792 C1793 1.415 . S
C1793 H1763 0.950 . S
C1793 C1788 1.363 . S
C1793 C1792 1.415 . S
H1794 C1791 0.999 . S
H1795 C1776 0.913 . S
H1796 C1814 0.951 . S
H1797 C1816 0.951 . S
H1798 C1818 0.950 . S
H1799 C1819 0.950 . S
H1800 C1821 0.950 . S
H1801 C1824 0.950 . S
H1802 C1825 0.950 . S
H1803 C1827 0.950 . S
H1804 C1828 0.950 1_455 S
H1805 C1829 0.951 . S
H1806 C1831 0.951 . S
H1807 C1833 0.950 . S
H1808 C1834 0.950 . S
H1809 C1836 0.950 . S
H1810 C1839 0.950 . S
H1811 C1840 0.950 . S
H1812 C1842 0.950 . S
H1813 C1843 0.950 1_655 S
C1814 H1796 0.951 . S
C1814 C1815 1.366 1_455 S
C1814 C1816 1.388 . S
C1815 C1814 1.366 1_655 S
C1815 C1819 1.385 . S
C1816 H1797 0.951 . S
C1816 C1814 1.388 . S
C1816 C1817 1.366 1_455 S
C1817 C1816 1.366 1_655 S
C1817 C1818 1.414 . S
C1817 C1820 1.499 . S
C1818 H1798 0.950 . S
C1818 C1817 1.414 . S
C1818 C1819 1.374 . S
C1819 H1799 0.950 . S
C1819 C1815 1.385 . S
C1819 C1818 1.374 . S
C1820 C1817 1.499 . S
C1820 C1821 1.373 1_655 S
C1820 C1822 1.389 . S
C1821 H1800 0.950 . S
C1821 C1820 1.373 1_455 S
C1821 C1837 1.377 . S
C1822 C1820 1.389 . S
C1822 C1823 1.524 . S
C1822 C1836 1.377 . S
C1823 C1822 1.524 . S
C1823 C1824 1.397 . S
C1823 C1828 1.363 . S
C1824 H1801 0.950 . S
C1824 C1823 1.397 . S
C1824 C1825 1.334 . S
C1825 H1802 0.950 . S
C1825 C1824 1.334 . S
C1825 C1826 1.287 . S
C1826 C1825 1.287 . S
C1826 C1827 1.524 . S
C1826 H1845 0.913 . S
C1827 H1803 0.950 . S
C1827 C1826 1.524 . S
C1827 C1828 1.415 . S
C1828 H1804 0.950 1_655 S
C1828 C1823 1.363 . S
C1828 C1827 1.415 . S
C1829 H1805 0.951 . S
C1829 C1830 1.366 1_655 S
C1829 C1831 1.388 . S
C1830 C1829 1.366 1_455 S
C1830 C1834 1.385 . S
C1831 H1806 0.951 . S
C1831 C1829 1.388 . S
C1831 C1832 1.366 1_655 S
C1832 C1831 1.366 1_455 S
C1832 C1833 1.414 . S
C1832 C1835 1.499 . S
C1833 H1807 0.950 . S
C1833 C1832 1.414 . S
C1833 C1834 1.374 . S
C1834 H1808 0.950 . S
C1834 C1830 1.385 . S
C1834 C1833 1.374 . S
C1835 C1832 1.499 . S
C1835 C1836 1.373 1_455 S
C1835 C1837 1.389 . S
C1836 H1809 0.950 . S
C1836 C1822 1.377 . S
C1836 C1835 1.373 1_655 S
C1837 C1821 1.377 . S
C1837 C1835 1.389 . S
C1837 C1838 1.524 . S
C1838 C1837 1.524 . S
C1838 C1839 1.397 . S
C1838 C1843 1.363 . S
C1839 H1810 0.950 . S
C1839 C1838 1.397 . S
C1839 C1840 1.334 . S
C1840 H1811 0.950 . S
C1840 C1839 1.334 . S
C1840 C1841 1.287 . S
C1841 C1840 1.287 . S
C1841 C1842 1.524 . S
C1841 H1844 0.999 . S
C1842 H1812 0.950 . S
C1842 C1841 1.524 . S
C1842 C1843 1.415 . S
C1843 H1813 0.950 1_455 S
C1843 C1838 1.363 . S
C1843 C1842 1.415 . S
H1844 C1841 0.999 . S
H1845 C1826 0.913 . S
H1846 C1864 0.951 . S
H1847 C1866 0.951 . S
H1848 C1868 0.950 . S
H1849 C1869 0.950 . S
H1850 C1871 0.950 . S
H1851 C1874 0.950 . S
H1852 C1875 0.950 . S
H1853 C1877 0.950 . S
H1854 C1878 0.950 . S
H1855 C1879 0.951 . S
H1856 C1881 0.951 . S
H1857 C1883 0.950 . S
H1858 C1884 0.950 . S
H1859 C1886 0.950 . S
H1860 C1889 0.950 . S
H1861 C1890 0.950 . S
H1862 C1892 0.950 . S
H1863 C1893 0.950 . S
C1864 H1846 0.951 . S
C1864 C1865 1.366 1_565 S
C1864 C1866 1.388 . S
C1865 C1864 1.366 1_545 S
C1865 C1869 1.385 . S
C1866 H1847 0.951 . S
C1866 C1864 1.388 . S
C1866 C1867 1.366 1_565 S
C1867 C1866 1.366 1_545 S
C1867 C1868 1.414 . S
C1867 C1870 1.499 . S
C1868 H1848 0.950 . S
C1868 C1867 1.414 . S
C1868 C1869 1.374 . S
C1869 H1849 0.950 . S
C1869 C1865 1.385 . S
C1869 C1868 1.374 . S
C1870 C1867 1.499 . S
C1870 C1871 1.373 . S
C1870 C1872 1.389 1_545 S
C1871 H1850 0.950 . S
C1871 C1870 1.373 . S
C1871 C1887 1.377 . S
C1872 C1870 1.389 1_565 S
C1872 C1873 1.524 . S
C1872 C1886 1.377 . S
C1873 C1872 1.524 . S
C1873 C1874 1.397 . S
C1873 C1878 1.363 . S
C1874 H1851 0.950 . S
C1874 C1873 1.397 . S
C1874 C1875 1.334 . S
C1875 H1852 0.950 . S
C1875 C1874 1.334 . S
C1875 C1876 1.287 . S
C1876 C1875 1.287 . S
C1876 C1877 1.524 . S
C1876 H1895 0.913 . S
C1877 H1853 0.950 . S
C1877 C1876 1.524 . S
C1877 C1878 1.415 . S
C1878 H1854 0.950 . S
C1878 C1873 1.363 . S
C1878 C1877 1.415 . S
C1879 H1855 0.951 . S
C1879 C1880 1.366 1_545 S
C1879 C1881 1.388 . S
C1880 C1879 1.366 1_565 S
C1880 C1884 1.385 . S
C1881 H1856 0.951 . S
C1881 C1879 1.388 . S
C1881 C1882 1.366 1_545 S
C1882 C1881 1.366 1_565 S
C1882 C1883 1.414 . S
C1882 C1885 1.499 . S
C1883 H1857 0.950 . S
C1883 C1882 1.414 . S
C1883 C1884 1.374 . S
C1884 H1858 0.950 . S
C1884 C1880 1.385 . S
C1884 C1883 1.374 . S
C1885 C1882 1.499 . S
C1885 C1886 1.373 . S
C1885 C1887 1.389 1_565 S
C1886 H1859 0.950 . S
C1886 C1872 1.377 . S
C1886 C1885 1.373 . S
C1887 C1871 1.377 . S
C1887 C1885 1.389 1_545 S
C1887 C1888 1.524 . S
C1888 C1887 1.524 . S
C1888 C1889 1.397 . S
C1888 C1893 1.363 . S
C1889 H1860 0.950 . S
C1889 C1888 1.397 . S
C1889 C1890 1.334 . S
C1890 H1861 0.950 . S
C1890 C1889 1.334 . S
C1890 C1891 1.287 . S
C1891 C1890 1.287 . S
C1891 C1892 1.524 . S
C1891 H1894 0.999 . S
C1892 H1862 0.950 . S
C1892 C1891 1.524 . S
C1892 C1893 1.415 . S
C1893 H1863 0.950 . S
C1893 C1888 1.363 . S
C1893 C1892 1.415 . S
H1894 C1891 0.999 . S
H1895 C1876 0.913 . S
C415 C292 0.424 . S
C430 C28 0.423 . S
C465 C61 0.423 . S
C480 C325 0.424 . S
C515 C94 0.424 . S
C530 C358 0.423 . S
C565 C127 0.423 . S
C580 C391 0.422 . S
C615 C160 0.422 . S
C630 C226 0.423 . S
C665 C193 0.421 . S
C680 C259 0.422 . S
C715 N5 1.709 . S
C730 C173 1.728 . S
C765 C8 1.728 . S
C780 N38 1.709 . S
C815 N71 1.708 . S
C830 C41 1.728 . S
C865 C74 1.728 . S
C880 N104 1.709 . S
C915 C107 1.728 . S
C930 N137 1.709 . S
C965 N170 1.709 . S
C980 C140 1.728 . S
C1015 C239 1.728 . S
C1030 N203 1.709 . S
C1065 C272 1.728 . S
C1080 N236 1.709 . S
C1115 C305 1.728 . S
C1130 N269 1.709 . S
C1165 C338 1.728 1_556 S
C1180 N302 1.709 . S
C1215 C371 1.728 . S
C1230 N335 1.709 . S
C1265 N368 1.709 . S
C1280 C206 1.728 . S
C1315 C17 1.240 . S
C1330 C215 1.240 . S
C1365 C50 1.240 . S
C1380 C248 1.241 . S
C1415 C83 1.241 . S
C1430 C281 1.241 . S
C1465 C116 1.241 . S
C1480 C314 1.240 . S
C1515 C347 1.240 . S
C1530 C149 1.241 . S
C1565 C182 1.240 . S
C1580 C380 1.240 . S
C1615 N311 0.734 . S
C1630 N14 0.734 . S
C1665 N47 0.734 . S
C1680 N344 0.734 . S
C1715 N80 0.733 . S
C1730 N377 0.733 . S
C1765 N113 0.735 . S
C1780 N212 0.735 . S
C1815 N146 0.735 . S
C1830 N245 0.735 . S
C1865 N278 0.733 . S
C1880 N179 0.733 . S
