# Generated by pormake.
# Topology snl, (6)-cn, num edge types: 1
# Building blocks:
#     Node 0, Type 0, BuildingBlock: BETFAJ_clean_sbu_0, # of connection points: 6
#     Node 1, Type 0, BuildingBlock: BETFAJ_clean_sbu_0, # of connection points: 6
#     Node 2, Type 0, BuildingBlock: BETFAJ_clean_sbu_0, # of connection points: 6
#     Node 3, Type 0, BuildingBlock: BETFAJ_clean_sbu_0, # of connection points: 6
#     Node 4, Type 0, BuildingBlock: BETFAJ_clean_sbu_0, # of connection points: 6
#     Node 5, Type 0, BuildingBlock: BETFAJ_clean_sbu_0, # of connection points: 6
#     Node 6, Type 0, BuildingBlock: BETFAJ_clean_sbu_0, # of connection points: 6
#     Node 7, Type 0, BuildingBlock: BETFAJ_clean_sbu_0, # of connection points: 6
#     Node 8, Type 0, BuildingBlock: BETFAJ_clean_sbu_0, # of connection points: 6
#     Node 9, Type 0, BuildingBlock: BETFAJ_clean_sbu_0, # of connection points: 6
#     Node 10, Type 0, BuildingBlock: BETFAJ_clean_sbu_0, # of connection points: 6
#     Node 11, Type 0, BuildingBlock: BETFAJ_clean_sbu_0, # of connection points: 6
#     Node 12, Type 0, BuildingBlock: BETFAJ_clean_sbu_0, # of connection points: 6
#     Node 13, Type 0, BuildingBlock: BETFAJ_clean_sbu_0, # of connection points: 6
#     Node 14, Type 0, BuildingBlock: BETFAJ_clean_sbu_0, # of connection points: 6
#     Node 15, Type 0, BuildingBlock: BETFAJ_clean_sbu_0, # of connection points: 6
#     Edge 16, Type (0, 0), BuildingBlock: TEMPAE_clean_linker_10, # of connection points: 2
#     Edge 17, Type (0, 0), BuildingBlock: TEMPAE_clean_linker_10, # of connection points: 2
#     Edge 18, Type (0, 0), BuildingBlock: TEMPAE_clean_linker_10, # of connection points: 2
#     Edge 19, Type (0, 0), BuildingBlock: TEMPAE_clean_linker_10, # of connection points: 2
#     Edge 20, Type (0, 0), BuildingBlock: TEMPAE_clean_linker_10, # of connection points: 2
#     Edge 21, Type (0, 0), BuildingBlock: TEMPAE_clean_linker_10, # of connection points: 2
#     Edge 22, Type (0, 0), BuildingBlock: TEMPAE_clean_linker_10, # of connection points: 2
#     Edge 23, Type (0, 0), BuildingBlock: TEMPAE_clean_linker_10, # of connection points: 2
#     Edge 24, Type (0, 0), BuildingBlock: TEMPAE_clean_linker_10, # of connection points: 2
#     Edge 25, Type (0, 0), BuildingBlock: TEMPAE_clean_linker_10, # of connection points: 2
#     Edge 26, Type (0, 0), BuildingBlock: TEMPAE_clean_linker_10, # of connection points: 2
#     Edge 27, Type (0, 0), BuildingBlock: TEMPAE_clean_linker_10, # of connection points: 2
#     Edge 28, Type (0, 0), BuildingBlock: TEMPAE_clean_linker_10, # of connection points: 2
#     Edge 29, Type (0, 0), BuildingBlock: TEMPAE_clean_linker_10, # of connection points: 2
#     Edge 30, Type (0, 0), BuildingBlock: TEMPAE_clean_linker_10, # of connection points: 2
#     Edge 31, Type (0, 0), BuildingBlock: TEMPAE_clean_linker_10, # of connection points: 2
#     Edge 32, Type (0, 0), BuildingBlock: TEMPAE_clean_linker_10, # of connection points: 2
#     Edge 33, Type (0, 0), BuildingBlock: TEMPAE_clean_linker_10, # of connection points: 2
#     Edge 34, Type (0, 0), BuildingBlock: TEMPAE_clean_linker_10, # of connection points: 2
#     Edge 35, Type (0, 0), BuildingBlock: TEMPAE_clean_linker_10, # of connection points: 2
#     Edge 36, Type (0, 0), BuildingBlock: TEMPAE_clean_linker_10, # of connection points: 2
#     Edge 37, Type (0, 0), BuildingBlock: TEMPAE_clean_linker_10, # of connection points: 2
#     Edge 38, Type (0, 0), BuildingBlock: TEMPAE_clean_linker_10, # of connection points: 2
#     Edge 39, Type (0, 0), BuildingBlock: TEMPAE_clean_linker_10, # of connection points: 2
#     Edge 40, Type (0, 0), BuildingBlock: TEMPAE_clean_linker_10, # of connection points: 2
#     Edge 41, Type (0, 0), BuildingBlock: TEMPAE_clean_linker_10, # of connection points: 2
#     Edge 42, Type (0, 0), BuildingBlock: TEMPAE_clean_linker_10, # of connection points: 2
#     Edge 43, Type (0, 0), BuildingBlock: TEMPAE_clean_linker_10, # of connection points: 2
#     Edge 44, Type (0, 0), BuildingBlock: TEMPAE_clean_linker_10, # of connection points: 2
#     Edge 45, Type (0, 0), BuildingBlock: TEMPAE_clean_linker_10, # of connection points: 2
#     Edge 46, Type (0, 0), BuildingBlock: TEMPAE_clean_linker_10, # of connection points: 2
#     Edge 47, Type (0, 0), BuildingBlock: TEMPAE_clean_linker_10, # of connection points: 2
#     Edge 48, Type (0, 0), BuildingBlock: TEMPAE_clean_linker_10, # of connection points: 2
#     Edge 49, Type (0, 0), BuildingBlock: TEMPAE_clean_linker_10, # of connection points: 2
#     Edge 50, Type (0, 0), BuildingBlock: TEMPAE_clean_linker_10, # of connection points: 2
#     Edge 51, Type (0, 0), BuildingBlock: TEMPAE_clean_linker_10, # of connection points: 2
#     Edge 52, Type (0, 0), BuildingBlock: TEMPAE_clean_linker_10, # of connection points: 2
#     Edge 53, Type (0, 0), BuildingBlock: TEMPAE_clean_linker_10, # of connection points: 2
#     Edge 54, Type (0, 0), BuildingBlock: TEMPAE_clean_linker_10, # of connection points: 2
#     Edge 55, Type (0, 0), BuildingBlock: TEMPAE_clean_linker_10, # of connection points: 2
#     Edge 56, Type (0, 0), BuildingBlock: TEMPAE_clean_linker_10, # of connection points: 2
#     Edge 57, Type (0, 0), BuildingBlock: TEMPAE_clean_linker_10, # of connection points: 2
#     Edge 58, Type (0, 0), BuildingBlock: TEMPAE_clean_linker_10, # of connection points: 2
#     Edge 59, Type (0, 0), BuildingBlock: TEMPAE_clean_linker_10, # of connection points: 2
#     Edge 60, Type (0, 0), BuildingBlock: TEMPAE_clean_linker_10, # of connection points: 2
#     Edge 61, Type (0, 0), BuildingBlock: TEMPAE_clean_linker_10, # of connection points: 2
#     Edge 62, Type (0, 0), BuildingBlock: TEMPAE_clean_linker_10, # of connection points: 2
#     Edge 63, Type (0, 0), BuildingBlock: TEMPAE_clean_linker_10, # of connection points: 2
# Relax obj value: 0.189
# Max RMSD: 0.253
# Mean RMSD: 0.225
data_MOF--net-snl--node1-BETFAJ_clean_sbu_0--edge1-TEMPAE_clean_linker_10
_symmetry_space_group_name_H-M    P1
_symmetry_Int_Tables_number       1
_symmetry_cell_setting            triclinic
loop_
_symmetry_equiv_pos_as_xyz
'x, y, z'
_cell_length_a     57.902806
_cell_length_b     57.939348
_cell_length_c     26.216414
_cell_angle_alpha  102.61365
_cell_angle_beta   90.023859
_cell_angle_gamma 89.975423
loop_
_atom_site_label
_atom_site_type_symbol
_atom_site_fract_x
_atom_site_fract_y
_atom_site_fract_z
_atom_type_partial_charge
Sm0 Sm 0.15126 0.63108 0.08418 0.0
Sm1 Sm 0.13372 0.63355 0.19724 0.0
C2 C 0.15844 0.61543 0.98325 0.0
C3 C 0.15109 0.62109 0.93331 0.0
C4 C 0.13519 0.60634 0.9012 0.0
C5 C 0.12967 0.61007 0.85177 0.0
C6 C 0.14025 0.62839 0.83283 0.0
C7 C 0.15542 0.64377 0.86602 0.0
C8 C 0.16068 0.64024 0.91577 0.0
C9 C 0.144 0.67819 0.12901 0.0
C10 C 0.09556 0.63622 0.11353 0.0
C11 C 0.12505 0.64158 0.29858 0.0
C12 C 0.13394 0.63868 0.34956 0.0
C13 C 0.14166 0.65862 0.38629 0.0
C14 C 0.14535 0.65731 0.43821 0.0
C15 C 0.14129 0.63608 0.45394 0.0
C16 C 0.13509 0.61576 0.41687 0.0
C17 C 0.13153 0.61699 0.36489 0.0
C18 C 0.13565 0.5893 0.13163 0.0
C19 C 0.1898 0.63129 0.17577 0.0
O20 O 0.14257 0.60671 1.00928 0.0
O21 O 0.17249 0.63021 0.01339 0.0
O22 O 0.14058 0.66115 0.15098 0.0
O23 O 0.15221 0.67051 0.08253 0.0
O24 O 0.11125 0.62713 0.07812 0.0
O25 O 0.10092 0.64463 0.16269 0.0
O26 O 0.13507 0.65711 0.27643 0.0
O27 O 0.11817 0.62263 0.26521 0.0
O28 O 0.1508 0.60512 0.13594 0.0
O29 O 0.11869 0.59616 0.16356 0.0
O30 O 0.17279 0.63559 0.20996 0.0
O31 O 0.18621 0.62671 0.12455 0.0
H32 H 0.12739 0.59153 0.91382 0.0
H33 H 0.11744 0.59823 0.82805 0.0
H34 H 0.16411 0.65796 0.85289 0.0
H35 H 0.17286 0.65207 0.93968 0.0
H36 H 0.14352 0.67556 0.37563 0.0
H37 H 0.15 0.67317 0.46667 0.0
H38 H 0.13183 0.59927 0.4287 0.0
H39 H 0.12561 0.6013 0.33759 0.0
Sm40 Sm 0.6501 0.88722 0.44117 0.0
Sm41 Sm 0.63209 0.8829 0.32691 0.0
C42 C 0.65584 0.90368 0.54232 0.0
C43 C 0.64984 0.89799 0.59272 0.0
C44 C 0.63798 0.91504 0.62954 0.0
C45 C 0.63344 0.91129 0.67925 0.0
C46 C 0.6409 0.89048 0.6934 0.0
C47 C 0.65167 0.87277 0.65554 0.0
C48 C 0.65608 0.87648 0.60543 0.0
C49 C 0.64461 0.8397 0.39715 0.0
C50 C 0.59493 0.87946 0.41143 0.0
C51 C 0.62488 0.8712 0.22506 0.0
C52 C 0.63277 0.87582 0.17479 0.0
C53 C 0.64272 0.8573 0.13772 0.0
C54 C 0.6465 0.85976 0.08661 0.0
C55 C 0.64019 0.88073 0.07176 0.0
C56 C 0.63175 0.89984 0.10967 0.0
C57 C 0.62812 0.89745 0.16089 0.0
C58 C 0.63321 0.92822 0.38923 0.0
C59 C 0.68825 0.8889 0.349 0.0
O60 O 0.63847 0.90965 0.51594 0.0
O61 O 0.67144 0.89069 0.51287 0.0
O62 O 0.64037 0.85659 0.37537 0.0
O63 O 0.65243 0.84786 0.44382 0.0
O64 O 0.61007 0.8912 0.44507 0.0
O65 O 0.60085 0.86945 0.3634 0.0
O66 O 0.6389 0.85952 0.24938 0.0
O67 O 0.61325 0.88783 0.25658 0.0
O68 O 0.6482 0.91237 0.38771 0.0
O69 O 0.61742 0.92102 0.35414 0.0
O70 O 0.67095 0.88428 0.31561 0.0
O71 O 0.68502 0.89241 0.40041 0.0
H72 H 0.63268 0.93158 0.62023 0.0
H73 H 0.62459 0.925 0.70711 0.0
H74 H 0.65758 0.85653 0.6653 0.0
H75 H 0.66488 0.86285 0.57731 0.0
H76 H 0.64646 0.84046 0.14753 0.0
H77 H 0.653 0.84477 0.05798 0.0
H78 H 0.62709 0.9163 0.09912 0.0
H79 H 0.62068 0.91215 0.18875 0.0
Sm80 Sm 0.38116 0.40922 0.69543 0.0
Sm81 Sm 0.37375 0.38646 0.57682 0.0
C82 C 0.37056 0.42113 0.79585 0.0
C83 C 0.37461 0.41425 0.84637 0.0
C84 C 0.35792 0.40065 0.8656 0.0
C85 C 0.35978 0.39658 0.91601 0.0
C86 C 0.37824 0.40618 0.94823 0.0
C87 C 0.39541 0.41899 0.92876 0.0
C88 C 0.39368 0.42294 0.87808 0.0
C89 C 0.42413 0.3999 0.65195 0.0
C90 C 0.3844 0.35056 0.64955 0.0
C91 C 0.37043 0.37379 0.47399 0.0
C92 C 0.37157 0.3833 0.42614 0.0
C93 C 0.39273 0.3849 0.40109 0.0
C94 C 0.39333 0.39038 0.35181 0.0
C95 C 0.37277 0.39468 0.3266 0.0
C96 C 0.35172 0.39447 0.35339 0.0
C97 C 0.35111 0.38857 0.40222 0.0
C98 C 0.33603 0.38951 0.64179 0.0
C99 C 0.37749 0.44418 0.61264 0.0
O100 O 0.35834 0.40644 0.76116 0.0
O101 O 0.3873 0.43135 0.77517 0.0
O102 O 0.40522 0.3956 0.62751 0.0
O103 O 0.42068 0.40939 0.7009 0.0
O104 O 0.38022 0.36835 0.69001 0.0
O105 O 0.38637 0.35379 0.60164 0.0
O106 O 0.38968 0.37221 0.49939 0.0
O107 O 0.35267 0.38002 0.50476 0.0
O108 O 0.35077 0.40549 0.64189 0.0
O109 O 0.3409 0.3708 0.6062 0.0
O110 O 0.37846 0.42519 0.57461 0.0
O111 O 0.37666 0.44327 0.66281 0.0
H112 H 0.34291 0.39389 0.84241 0.0
H113 H 0.34628 0.38682 0.93068 0.0
H114 H 0.40975 0.42655 0.95337 0.0
H115 H 0.4068 0.4335 0.86456 0.0
H116 H 0.40882 0.38093 0.41845 0.0
H117 H 0.40991 0.39007 0.33268 0.0
H118 H 0.33555 0.39836 0.33632 0.0
H119 H 0.3345 0.38747 0.42053 0.0
Sm120 Sm 0.88113 0.10805 0.82876 0.0
Sm121 Sm 0.87343 0.13388 0.94694 0.0
C122 C 0.87545 0.09165 0.72647 0.0
C123 C 0.87737 0.09991 0.67657 0.0
C124 C 0.85741 0.10697 0.65372 0.0
C125 C 0.85808 0.11258 0.60453 0.0
C126 C 0.87884 0.11103 0.57611 0.0
C127 C 0.89909 0.10463 0.59961 0.0
C128 C 0.89836 0.09909 0.64918 0.0
C129 C 0.92398 0.12053 0.87135 0.0
C130 C 0.88066 0.16734 0.86777 0.0
C131 C 0.87529 0.14696 0.05027 0.0
C132 C 0.87453 0.1374 0.09838 0.0
C133 C 0.8949 0.13017 0.11971 0.0
C134 C 0.89475 0.12496 0.16937 0.0
C135 C 0.87423 0.12671 0.19856 0.0
C136 C 0.85363 0.13251 0.17608 0.0
C137 C 0.85379 0.13796 0.12662 0.0
C138 C 0.83476 0.12874 0.88435 0.0
C139 C 0.87686 0.07561 0.9174 0.0
O140 O 0.8588 0.10054 0.75831 0.0
O141 O 0.89438 0.08848 0.75124 0.0
O142 O 0.90502 0.12465 0.89602 0.0
O143 O 0.92026 0.10929 0.82385 0.0
O144 O 0.87731 0.1485 0.82901 0.0
O145 O 0.88332 0.16587 0.91672 0.0
O146 O 0.89367 0.14265 0.0206 0.0
O147 O 0.85616 0.14668 0.02352 0.0
O148 O 0.85049 0.11336 0.88271 0.0
O149 O 0.83821 0.14683 0.92267 0.0
O150 O 0.8744 0.09565 0.95168 0.0
O151 O 0.87895 0.07477 0.86641 0.0
H152 H 0.841 0.1072 0.67314 0.0
H153 H 0.84201 0.11703 0.58786 0.0
H154 H 0.9155 0.10359 0.57945 0.0
H155 H 0.91414 0.09365 0.66539 0.0
H156 H 0.91117 0.12947 0.09907 0.0
H157 H 0.91081 0.12023 0.18567 0.0
H158 H 0.8376 0.13406 0.19788 0.0
H159 H 0.83783 0.14356 0.1115 0.0
Sm160 Sm 0.15109 0.38632 0.93664 0.0
Sm161 Sm 0.13309 0.3836 0.82447 0.0
C162 C 0.15827 0.40253 0.03738 0.0
C163 C 0.15124 0.39778 0.08816 0.0
C164 C 0.1435 0.41676 0.12711 0.0
C165 C 0.13926 0.41373 0.17755 0.0
C166 C 0.14266 0.39161 0.19001 0.0
C167 C 0.14888 0.37215 0.15021 0.0
C168 C 0.15319 0.37521 0.0995 0.0
C169 C 0.14524 0.33902 0.89204 0.0
C170 C 0.09526 0.38061 0.90799 0.0
C171 C 0.12494 0.37486 0.72285 0.0
C172 C 0.13418 0.37788 0.67232 0.0
C173 C 0.13932 0.35772 0.63351 0.0
C174 C 0.14374 0.35969 0.5823 0.0
C175 C 0.14298 0.38189 0.56903 0.0
C176 C 0.1395 0.40224 0.60868 0.0
C177 C 0.13515 0.40027 0.65993 0.0
C178 C 0.13433 0.42785 0.88991 0.0
C179 C 0.18932 0.38842 0.84564 0.0
O180 O 0.1423 0.41104 1.0112 0.0
O181 O 0.17209 0.3873 1.00777 0.0
O182 O 0.14107 0.35584 0.86976 0.0
O183 O 0.15303 0.34709 0.93876 0.0
O184 O 0.11102 0.3897 0.94322 0.0
O185 O 0.10055 0.37215 0.85887 0.0
O186 O 0.13535 0.35978 0.74568 0.0
O187 O 0.11732 0.39366 0.75565 0.0
O188 O 0.14988 0.4124 0.88508 0.0
O189 O 0.11708 0.42046 0.85909 0.0
O190 O 0.172 0.38458 0.8122 0.0
O191 O 0.1861 0.39105 0.89671 0.0
H192 H 0.14153 0.43421 0.11897 0.0
H193 H 0.13408 0.42889 0.20739 0.0
H194 H 0.15155 0.3549 0.1589 0.0
H195 H 0.15877 0.36017 0.06983 0.0
H196 H 0.13867 0.34027 0.64211 0.0
H197 H 0.14631 0.3437 0.55255 0.0
H198 H 0.13927 0.41961 0.59964 0.0
H199 H 0.13148 0.41618 0.68913 0.0
Sm200 Sm 0.87784 0.90946 0.19555 0.0
Sm201 Sm 0.87391 0.88513 0.07958 0.0
C202 C 0.86562 0.92111 0.29534 0.0
C203 C 0.87005 0.91438 0.3461 0.0
C204 C 0.85307 0.90173 0.36695 0.0
C205 C 0.85566 0.89696 0.41668 0.0
C206 C 0.8753 0.90476 0.44718 0.0
C207 C 0.89269 0.91673 0.42561 0.0
C208 C 0.89009 0.92152 0.37569 0.0
C209 C 0.92256 0.90174 0.16163 0.0
C210 C 0.88354 0.85092 0.15505 0.0
C211 C 0.86981 0.8718 0.97654 0.0
C212 C 0.87112 0.87955 0.92645 0.0
C213 C 0.89165 0.88798 0.90848 0.0
C214 C 0.89268 0.89265 0.85822 0.0
C215 C 0.87325 0.88894 0.82501 0.0
C216 C 0.85256 0.88133 0.84412 0.0
C217 C 0.85154 0.87673 0.89417 0.0
C218 C 0.83434 0.88857 0.13996 0.0
C219 C 0.87768 0.94248 0.11012 0.0
O220 O 0.85461 0.90554 0.26002 0.0
O221 O 0.88164 0.93252 0.27533 0.0
O222 O 0.90512 0.89576 0.13212 0.0
O223 O 0.9164 0.91224 0.20838 0.0
O224 O 0.87713 0.86893 0.19278 0.0
O225 O 0.88687 0.85309 0.10679 0.0
O226 O 0.88893 0.86925 1.00156 0.0
O227 O 0.85272 0.88016 1.00761 0.0
O228 O 0.84867 0.9048 0.1393 0.0
O229 O 0.84102 0.86916 0.10883 0.0
O230 O 0.88242 0.92302 0.0755 0.0
O231 O 0.87237 0.94233 0.15929 0.0
H232 H 0.83737 0.89606 0.34531 0.0
H233 H 0.84177 0.88794 0.43198 0.0
H234 H 0.90824 0.92265 0.44756 0.0
H235 H 0.90358 0.9312 0.36081 0.0
H236 H 0.90699 0.8905 0.93269 0.0
H237 H 0.90878 0.89892 0.84515 0.0
H238 H 0.83731 0.878 0.81968 0.0
H239 H 0.83552 0.87019 0.90707 0.0
Sm240 Sm 0.37975 0.60905 0.33465 0.0
Sm241 Sm 0.37436 0.63241 0.44498 0.0
C242 C 0.37497 0.59611 0.23113 0.0
C243 C 0.3762 0.60496 0.18185 0.0
C244 C 0.35602 0.61214 0.15968 0.0
C245 C 0.3564 0.61721 0.10976 0.0
C246 C 0.377 0.61524 0.0805 0.0
C247 C 0.39738 0.60909 0.10379 0.0
C248 C 0.39696 0.60389 0.15358 0.0
C249 C 0.42182 0.61404 0.38408 0.0
C250 C 0.3801 0.66832 0.37286 0.0
C251 C 0.37069 0.64554 0.54836 0.0
C252 C 0.37193 0.63743 0.59823 0.0
C253 C 0.39319 0.634 0.62142 0.0
C254 C 0.39396 0.62985 0.67211 0.0
C255 C 0.3735 0.62901 0.70065 0.0
C256 C 0.35223 0.63135 0.67644 0.0
C257 C 0.35147 0.6356 0.62595 0.0
C258 C 0.33412 0.62721 0.38652 0.0
C259 C 0.37826 0.57599 0.41835 0.0
O260 O 0.3579 0.60343 0.26315 0.0
O261 O 0.39417 0.59361 0.25563 0.0
O262 O 0.40622 0.62994 0.39189 0.0
O263 O 0.41495 0.59523 0.35097 0.0
O264 O 0.37744 0.64949 0.33412 0.0
O265 O 0.38252 0.66636 0.4214 0.0
O266 O 0.3898 0.64758 0.523 0.0
O267 O 0.35334 0.63802 0.51737 0.0
O268 O 0.34901 0.61137 0.38639 0.0
O269 O 0.3405 0.64692 0.41674 0.0
O270 O 0.38564 0.59544 0.44928 0.0
O271 O 0.37181 0.57613 0.3699 0.0
H272 H 0.33967 0.61301 0.18008 0.0
H273 H 0.34028 0.62166 0.09332 0.0
H274 H 0.4137 0.6079 0.08324 0.0
H275 H 0.41284 0.59838 0.16924 0.0
H276 H 0.40928 0.63524 0.60116 0.0
H277 H 0.4106 0.62774 0.6894 0.0
H278 H 0.33616 0.63097 0.69739 0.0
H279 H 0.33482 0.63836 0.60937 0.0
Sm280 Sm 0.64984 0.13084 0.58465 0.0
Sm281 Sm 0.63361 0.1347 0.6994 0.0
C282 C 0.65637 0.11411 0.484 0.0
C283 C 0.64911 0.11916 0.43368 0.0
C284 C 0.64045 0.10055 0.39508 0.0
C285 C 0.63568 0.10393 0.34512 0.0
C286 C 0.63955 0.12601 0.33276 0.0
C287 C 0.64678 0.14512 0.37236 0.0
C288 C 0.65153 0.14173 0.42259 0.0
C289 C 0.64376 0.1783 0.62791 0.0
C290 C 0.59456 0.13669 0.61685 0.0
C291 C 0.62604 0.14547 0.80116 0.0
C292 C 0.63445 0.14206 0.85198 0.0
C293 C 0.64038 0.16199 0.89065 0.0
C294 C 0.64393 0.15997 0.94214 0.0
C295 C 0.64144 0.13798 0.95572 0.0
C296 C 0.63721 0.11774 0.91628 0.0
C297 C 0.63377 0.11974 0.86475 0.0
C298 C 0.63409 0.08981 0.63557 0.0
C299 C 0.68921 0.12966 0.67463 0.0
O300 O 0.64035 0.10602 0.51077 0.0
O301 O 0.67066 0.12902 0.51306 0.0
O302 O 0.64033 0.16164 0.65111 0.0
O303 O 0.65113 0.16998 0.58093 0.0
O304 O 0.60981 0.12747 0.58055 0.0
O305 O 0.60056 0.14554 0.66546 0.0
O306 O 0.63829 0.15885 0.7772 0.0
O307 O 0.61656 0.12736 0.76947 0.0
O308 O 0.64926 0.1055 0.63768 0.0
O309 O 0.61817 0.09711 0.67019 0.0
O310 O 0.67274 0.13388 0.71006 0.0
O311 O 0.68511 0.1262 0.6237 0.0
H312 H 0.63809 0.08313 0.4031 0.0
H313 H 0.62967 0.08904 0.31558 0.0
H314 H 0.64986 0.16233 0.36385 0.0
H315 H 0.6578 0.15651 0.45205 0.0
H316 H 0.641 0.17937 0.88166 0.0
H317 H 0.64714 0.17585 0.97182 0.0
H318 H 0.63563 0.10051 0.92572 0.0
H319 H 0.62947 0.104 0.83561 0.0
Sm320 Sm 0.88237 0.38365 0.8251 0.0
Sm321 Sm 0.86782 0.38612 0.93283 0.0
C322 C 0.88971 0.37499 0.72329 0.0
C323 C 0.88075 0.37835 0.6729 0.0
C324 C 0.8752 0.35824 0.63441 0.0
C325 C 0.87121 0.36014 0.58314 0.0
C326 C 0.87268 0.3822 0.56953 0.0
C327 C 0.87644 0.40262 0.6087 0.0
C328 C 0.88054 0.40071 0.66018 0.0
C329 C 0.8813 0.42897 0.88708 0.0
C330 C 0.82744 0.38766 0.8495 0.0
C331 C 0.86152 0.39741 0.03525 0.0
C332 C 0.86968 0.39416 0.08635 0.0
C333 C 0.87354 0.4143 0.12601 0.0
C334 C 0.87736 0.4122 0.1773 0.0
C335 C 0.87746 0.38983 0.18988 0.0
C336 C 0.87511 0.36953 0.1494 0.0
C337 C 0.87119 0.37167 0.09802 0.0
C338 C 0.86967 0.34012 0.8748 0.0
C339 C 0.92328 0.38114 0.90202 0.0
O340 O 0.87848 0.36047 0.74619 0.0
O341 O 0.89827 0.39332 0.75593 0.0
O342 O 0.86597 0.41346 0.88506 0.0
O343 O 0.89782 0.42112 0.85459 0.0
O344 O 0.8432 0.37915 0.81446 0.0
O345 O 0.83306 0.39558 0.89901 0.0
O346 O 0.87447 0.40979 1.01037 0.0
O347 O 0.8511 0.37969 1.00438 0.0
O348 O 0.8846 0.3559 0.8741 0.0
O349 O 0.85364 0.34829 0.90828 0.0
O350 O 0.90812 0.39004 0.93891 0.0
O351 O 0.91637 0.37256 0.85404 0.0
H352 H 0.87521 0.34084 0.64334 0.0
H353 H 0.86802 0.34422 0.55356 0.0
H354 H 0.87765 0.41981 0.59895 0.0
H355 H 0.88467 0.41654 0.6892 0.0
H356 H 0.87244 0.43181 0.11778 0.0
H357 H 0.87894 0.42819 0.20748 0.0
H358 H 0.87558 0.35203 0.15771 0.0
H359 H 0.86848 0.35581 0.06796 0.0
Sm360 Sm 0.38265 0.13506 0.69709 0.0
Sm361 Sm 0.36676 0.13286 0.59074 0.0
C362 C 0.39093 0.14374 0.79872 0.0
C363 C 0.38284 0.14081 0.85019 0.0
C364 C 0.37684 0.16108 0.88786 0.0
C365 C 0.37358 0.15978 0.93979 0.0
C366 C 0.37625 0.13818 0.95504 0.0
C367 C 0.38062 0.11755 0.91681 0.0
C368 C 0.38398 0.11885 0.86469 0.0
C369 C 0.37996 0.08962 0.63569 0.0
C370 C 0.32723 0.13268 0.67669 0.0
C371 C 0.36013 0.12286 0.48822 0.0
C372 C 0.36914 0.12686 0.43822 0.0
C373 C 0.37474 0.10719 0.39856 0.0
C374 C 0.3796 0.10993 0.34807 0.0
C375 C 0.37891 0.13244 0.33624 0.0
C376 C 0.37478 0.15231 0.37683 0.0
C377 C 0.36991 0.14956 0.42741 0.0
C378 C 0.36929 0.17868 0.64843 0.0
C379 C 0.42264 0.13739 0.61842 0.0
O380 O 0.3794 0.15819 0.77621 0.0
O381 O 0.39908 0.12527 0.76577 0.0
O382 O 0.36498 0.10552 0.63832 0.0
O383 O 0.39688 0.09706 0.66736 0.0
O384 O 0.34387 0.14115 0.70953 0.0
O385 O 0.33197 0.12426 0.62671 0.0
O386 O 0.37236 0.10953 0.51228 0.0
O387 O 0.35012 0.14053 0.5201 0.0
O388 O 0.38444 0.16296 0.6482 0.0
O389 O 0.35239 0.17039 0.61749 0.0
O390 O 0.40704 0.12833 0.58267 0.0
O391 O 0.41633 0.14607 0.66673 0.0
H392 H 0.37585 0.1782 0.87768 0.0
H393 H 0.36985 0.17586 0.96848 0.0
H394 H 0.38277 0.10068 0.92769 0.0
H395 H 0.38855 0.10291 0.83644 0.0
H396 H 0.37427 0.08952 0.40601 0.0
H397 H 0.38258 0.09425 0.3177 0.0
H398 H 0.37457 0.16993 0.36911 0.0
H399 H 0.36589 0.1651 0.45739 0.0
Sm400 Sm 0.64354 0.63343 0.44797 0.0
Sm401 Sm 0.63565 0.60904 0.32968 0.0
C402 C 0.64491 0.6471 0.55106 0.0
C403 C 0.64496 0.63789 0.59943 0.0
C404 C 0.6251 0.62794 0.61683 0.0
C405 C 0.6247 0.62254 0.66634 0.0
C406 C 0.64412 0.62699 0.69933 0.0
C407 C 0.66435 0.63562 0.68045 0.0
C408 C 0.66472 0.64109 0.63119 0.0
C409 C 0.68184 0.62891 0.38383 0.0
C410 C 0.64 0.57548 0.41579 0.0
C411 C 0.64541 0.59616 0.2288 0.0
C412 C 0.64209 0.60271 0.17774 0.0
C413 C 0.66106 0.61187 0.15523 0.0
C414 C 0.65965 0.61609 0.105 0.0
C415 C 0.63925 0.61115 0.07573 0.0
C416 C 0.61984 0.60301 0.09893 0.0
C417 C 0.62127 0.59871 0.14953 0.0
C418 C 0.59293 0.62067 0.3737 0.0
C419 C 0.63395 0.66777 0.37116 0.0
O420 O 0.62574 0.64576 0.52402 0.0
O421 O 0.66342 0.6433 0.52185 0.0
O422 O 0.66644 0.61333 0.3829 0.0
O423 O 0.67753 0.64746 0.42044 0.0
O424 O 0.64019 0.59496 0.45252 0.0
O425 O 0.63949 0.5755 0.36502 0.0
O426 O 0.65786 0.61085 0.26278 0.0
O427 O 0.62834 0.58673 0.2502 0.0
O428 O 0.6121 0.62453 0.39721 0.0
O429 O 0.59601 0.61037 0.32511 0.0
O430 O 0.6385 0.64945 0.33233 0.0
O431 O 0.63138 0.6655 0.41969 0.0
H432 H 0.60961 0.62513 0.59312 0.0
H433 H 0.60883 0.61591 0.67968 0.0
H434 H 0.67978 0.63872 0.70434 0.0
H435 H 0.6803 0.64861 0.61867 0.0
H436 H 0.67734 0.61518 0.17601 0.0
H437 H 0.67476 0.62277 0.08855 0.0
H438 H 0.60389 0.59906 0.07718 0.0
H439 H 0.60633 0.59171 0.16587 0.0
Sm440 Sm 0.14399 0.88606 0.07926 0.0
Sm441 Sm 0.1349 0.90934 0.19608 0.0
C442 C 0.1486 0.87382 0.97659 0.0
C443 C 0.14759 0.88268 0.92815 0.0
C444 C 0.12795 0.89398 0.91358 0.0
C445 C 0.12678 0.89929 0.864 0.0
C446 C 0.14519 0.8933 0.82853 0.0
C447 C 0.16529 0.88337 0.84471 0.0
C448 C 0.16644 0.87809 0.89396 0.0
C449 C 0.18206 0.89123 0.14434 0.0
C450 C 0.1387 0.94343 0.11194 0.0
C451 C 0.14445 0.91923 0.29715 0.0
C452 C 0.14026 0.91384 0.34894 0.0
C453 C 0.15735 0.90115 0.3693 0.0
C454 C 0.15582 0.89781 0.42012 0.0
C455 C 0.13712 0.90704 0.45203 0.0
C456 C 0.11935 0.91878 0.43117 0.0
C457 C 0.12097 0.92233 0.37997 0.0
C458 C 0.09252 0.89909 0.1506 0.0
C459 C 0.133 0.8504 0.15102 0.0
O460 O 0.12926 0.87128 1.00069 0.0
O461 O 0.16573 0.88138 1.00828 0.0
O462 O 0.16636 0.90647 0.14528 0.0
O463 O 0.17804 0.87256 0.10802 0.0
O464 O 0.13584 0.92388 0.0762 0.0
O465 O 0.14078 0.94328 0.16249 0.0
O466 O 0.15385 0.90206 0.26276 0.0
O467 O 0.12984 0.93205 0.27661 0.0
O468 O 0.11169 0.89486 0.12732 0.0
O469 O 0.09536 0.90979 0.19903 0.0
O470 O 0.13677 0.86851 0.19086 0.0
O471 O 0.13163 0.85315 0.10276 0.0
H472 H 0.11328 0.89796 0.93963 0.0
H473 H 0.11111 0.90704 0.85257 0.0
H474 H 0.17994 0.87908 0.81866 0.0
H475 H 0.18184 0.86962 0.90469 0.0
H476 H 0.1724 0.89434 0.34633 0.0
H477 H 0.16958 0.88838 0.43491 0.0
H478 H 0.10473 0.92606 0.45514 0.0
H479 H 0.10753 0.93215 0.36529 0.0
Sm480 Sm 0.88256 0.63474 0.19841 0.0
Sm481 Sm 0.8681 0.63277 0.09058 0.0
C482 C 0.88986 0.64482 0.3002 0.0
C483 C 0.88186 0.64113 0.35106 0.0
C484 C 0.8727 0.66039 0.3873 0.0
C485 C 0.86918 0.65888 0.439 0.0
C486 C 0.87496 0.63813 0.45549 0.0
C487 C 0.88265 0.61829 0.41843 0.0
C488 C 0.88608 0.61977 0.36655 0.0
C489 C 0.88131 0.58935 0.13681 0.0
C490 C 0.82744 0.62977 0.1738 0.0
C491 C 0.86312 0.62232 0.98773 0.0
C492 C 0.87113 0.62772 0.9384 0.0
C493 C 0.88035 0.60932 0.89996 0.0
C494 C 0.88452 0.6126 0.84967 0.0
C495 C 0.87942 0.63436 0.83695 0.0
C496 C 0.87164 0.65327 0.87636 0.0
C497 C 0.86754 0.65 0.9268 0.0
C498 C 0.8701 0.67874 0.14842 0.0
C499 C 0.92358 0.63729 0.12147 0.0
O500 O 0.87702 0.65792 0.27664 0.0
O501 O 0.89985 0.62715 0.26816 0.0
O502 O 0.86634 0.60511 0.13738 0.0
O503 O 0.89705 0.59666 0.17176 0.0
O504 O 0.84337 0.63723 0.20926 0.0
O505 O 0.83278 0.62371 0.12358 0.0
O506 O 0.8776 0.61141 1.0125 0.0
O507 O 0.85038 0.63795 0.01891 0.0
O508 O 0.88479 0.6628 0.15001 0.0
O509 O 0.85433 0.67056 0.11428 0.0
O510 O 0.90836 0.62869 0.08455 0.0
O511 O 0.91672 0.64554 0.16957 0.0
H512 H 0.86931 0.67705 0.37631 0.0
H513 H 0.86279 0.67428 0.46657 0.0
H514 H 0.88729 0.60207 0.43009 0.0
H515 H 0.89313 0.6046 0.3394 0.0
H516 H 0.88324 0.59199 0.90811 0.0
H517 H 0.8904 0.59769 0.82 0.0
H518 H 0.86793 0.67032 0.86764 0.0
H519 H 0.86067 0.66458 0.95591 0.0
Sm520 Sm 0.14368 0.13386 0.94859 0.0
Sm521 Sm 0.13522 0.10843 0.83089 0.0
C522 C 0.14684 0.14752 0.05154 0.0
C523 C 0.14609 0.13845 0.10015 0.0
C524 C 0.12552 0.13016 0.11841 0.0
C525 C 0.12471 0.12476 0.16797 0.0
C526 C 0.14442 0.12756 0.20021 0.0
C527 C 0.16524 0.13454 0.18045 0.0
C528 C 0.16603 0.14001 0.13117 0.0
C529 C 0.18104 0.12898 0.88215 0.0
C530 C 0.13937 0.07574 0.91795 0.0
C531 C 0.14436 0.0949 0.72961 0.0
C532 C 0.14162 0.1023 0.67908 0.0
C533 C 0.1611 0.11039 0.65615 0.0
C534 C 0.15997 0.11478 0.60589 0.0
C535 C 0.13931 0.11125 0.57715 0.0
C536 C 0.11946 0.1043 0.60087 0.0
C537 C 0.12061 0.09973 0.65129 0.0
C538 C 0.09268 0.11909 0.8771 0.0
C539 C 0.13303 0.16739 0.87078 0.0
O540 O 0.12754 0.14834 0.0258 0.0
O541 O 0.16474 0.14162 0.02104 0.0
O542 O 0.16611 0.11328 0.88376 0.0
O543 O 0.17651 0.14831 0.91627 0.0
O544 O 0.13936 0.09547 0.95403 0.0
O545 O 0.13928 0.07529 0.86701 0.0
O546 O 0.15847 0.10754 0.7636 0.0
O547 O 0.1263 0.08734 0.75139 0.0
O548 O 0.11203 0.12377 0.89939 0.0
O549 O 0.09552 0.108 0.8289 0.0
O550 O 0.1373 0.14883 0.83221 0.0
O551 O 0.1309 0.16551 0.9197 0.0
H552 H 0.10987 0.12861 0.0953 0.0
H553 H 0.10838 0.11942 0.18189 0.0
H554 H 0.1809 0.13632 0.20361 0.0
H555 H 0.18214 0.14621 0.11798 0.0
H556 H 0.17752 0.11262 0.6765 0.0
H557 H 0.17546 0.12048 0.589 0.0
H558 H 0.1033 0.10143 0.57958 0.0
H559 H 0.10526 0.09356 0.66777 0.0
Sm560 Sm 0.6419 0.38824 0.58368 0.0
Sm561 Sm 0.63696 0.41025 0.69514 0.0
C562 C 0.64232 0.37563 0.47998 0.0
C563 C 0.64371 0.38487 0.4316 0.0
C564 C 0.62373 0.39221 0.40911 0.0
C565 C 0.62447 0.39708 0.35917 0.0
C566 C 0.64522 0.39473 0.33054 0.0
C567 C 0.66545 0.38868 0.35436 0.0
C568 C 0.66468 0.38371 0.40416 0.0
C569 C 0.68316 0.3939 0.63921 0.0
C570 C 0.63971 0.44505 0.61431 0.0
C571 C 0.64178 0.4215 0.79873 0.0
C572 C 0.63972 0.41321 0.84828 0.0
C573 C 0.65924 0.40362 0.86818 0.0
C574 C 0.65916 0.39947 0.91865 0.0
C575 C 0.6395 0.40458 0.95029 0.0
C576 C 0.61952 0.41293 0.92972 0.0
C577 C 0.61968 0.41742 0.87924 0.0
C578 C 0.59504 0.40613 0.64597 0.0
C579 C 0.63474 0.35132 0.65358 0.0
O580 O 0.62337 0.37932 0.50767 0.0
O581 O 0.66087 0.37679 0.50874 0.0
O582 O 0.66742 0.40921 0.64291 0.0
O583 O 0.67749 0.37486 0.60553 0.0
O584 O 0.6332 0.42601 0.58069 0.0
O585 O 0.64539 0.44398 0.66283 0.0
O586 O 0.65749 0.41126 0.76612 0.0
O587 O 0.62332 0.42692 0.77505 0.0
O588 O 0.61049 0.39012 0.6376 0.0
O589 O 0.60187 0.42454 0.68025 0.0
O590 O 0.63928 0.36952 0.69266 0.0
O591 O 0.63167 0.35437 0.60601 0.0
H592 H 0.60726 0.39322 0.42905 0.0
H593 H 0.60851 0.40154 0.34205 0.0
H594 H 0.68183 0.38721 0.33397 0.0
H595 H 0.68039 0.37808 0.42034 0.0
H596 H 0.67501 0.40021 0.84559 0.0
H597 H 0.6747 0.39285 0.93353 0.0
H598 H 0.60418 0.41707 0.95361 0.0
H599 H 0.60445 0.42498 0.86531 0.0
Sm600 Sm 0.38133 0.88308 0.32751 0.0
Sm601 Sm 0.36734 0.8849 0.43562 0.0
C602 C 0.38833 0.87289 0.22561 0.0
C603 C 0.3807 0.87683 0.17481 0.0
C604 C 0.37441 0.8572 0.13578 0.0
C605 C 0.37154 0.85947 0.08434 0.0
C606 C 0.37502 0.88143 0.07119 0.0
C607 C 0.37972 0.90142 0.11095 0.0
C608 C 0.38254 0.89915 0.16246 0.0
C609 C 0.3793 0.92852 0.38886 0.0
C610 C 0.32645 0.88669 0.35379 0.0
C611 C 0.36121 0.89421 0.53804 0.0
C612 C 0.37072 0.89098 0.58814 0.0
C613 C 0.37845 0.91092 0.62459 0.0
C614 C 0.38342 0.90941 0.67575 0.0
C615 C 0.38059 0.88794 0.69154 0.0
C616 C 0.3744 0.86757 0.65419 0.0
C617 C 0.36947 0.86907 0.60282 0.0
C618 C 0.3687 0.83963 0.37519 0.0
C619 C 0.42278 0.88142 0.40409 0.0
O620 O 0.37507 0.86017 0.24908 0.0
O621 O 0.39867 0.8903 0.25765 0.0
O622 O 0.36471 0.91245 0.38844 0.0
O623 O 0.39507 0.92146 0.35387 0.0
O624 O 0.34208 0.87866 0.31802 0.0
O625 O 0.33228 0.89434 0.40327 0.0
O626 O 0.37234 0.9083 0.51391 0.0
O627 O 0.35209 0.87592 0.50632 0.0
O628 O 0.38398 0.85521 0.37578 0.0
O629 O 0.3523 0.84764 0.40779 0.0
O630 O 0.40759 0.88902 0.44176 0.0
O631 O 0.41588 0.87324 0.35598 0.0
H632 H 0.37297 0.83981 0.14451 0.0
H633 H 0.36801 0.84375 0.05443 0.0
H634 H 0.38207 0.91863 0.10185 0.0
H635 H 0.38722 0.91464 0.19194 0.0
H636 H 0.37957 0.928 0.61423 0.0
H637 H 0.38857 0.92529 0.70355 0.0
H638 H 0.37202 0.8508 0.66535 0.0
H639 H 0.36361 0.85335 0.5755 0.0
C640 C 0.13471 0.60998 0.73759 0.0
C641 C 0.13689 0.63042 0.77759 0.0
C642 C 0.13362 0.6114 0.68497 0.0
C643 C 0.1355 0.63371 0.67181 0.0
C644 C 0.13688 0.65447 0.71175 0.0
C645 C 0.13729 0.6526 0.76419 0.0
C646 C 0.13131 0.58893 0.64338 0.0
C647 C 0.13845 0.6786 0.69898 0.0
C648 C 0.16023 0.63385 0.53794 0.0
C649 C 0.14018 0.63595 0.50973 0.0
C650 C 0.15893 0.63333 0.59111 0.0
C651 C 0.13709 0.63518 0.61616 0.0
C652 C 0.11684 0.63773 0.58762 0.0
C653 C 0.11866 0.6379 0.53447 0.0
C654 C 0.18085 0.63052 0.62035 0.0
C655 C 0.09319 0.63945 0.61238 0.0
H656 H 0.13467 0.59269 0.74703 0.0
H657 H 0.13828 0.66856 0.79465 0.0
H658 H 0.11779 0.59093 0.61465 0.0
H659 H 0.14784 0.58518 0.62178 0.0
H660 H 0.12688 0.57347 0.66018 0.0
H661 H 0.13874 0.69307 0.73462 0.0
H662 H 0.15437 0.67972 0.67608 0.0
H663 H 0.12355 0.68141 0.67438 0.0
H664 H 0.1768 0.63234 0.51825 0.0
H665 H 0.10322 0.63951 0.51203 0.0
H666 H 0.18018 0.6138 0.63438 0.0
H667 H 0.18248 0.64522 0.65526 0.0
H668 H 0.19649 0.63023 0.59569 0.0
H669 H 0.08719 0.62144 0.61393 0.0
H670 H 0.0804 0.64732 0.58949 0.0
H671 H 0.09351 0.65018 0.65297 0.0
C672 C 0.65932 0.87482 0.98433 0.0
C673 C 0.63997 0.88174 0.01601 0.0
C674 C 0.65881 0.87528 0.93106 0.0
C675 C 0.63835 0.88239 0.90915 0.0
C676 C 0.61864 0.88889 0.94085 0.0
C677 C 0.61974 0.88863 0.99404 0.0
C678 C 0.68023 0.86853 0.8984 0.0
C679 C 0.59636 0.89602 0.91855 0.0
C680 C 0.64466 0.90778 0.78882 0.0
C681 C 0.63913 0.88831 0.74858 0.0
C682 C 0.64413 0.90611 0.84121 0.0
C683 C 0.638 0.8844 0.85377 0.0
C684 C 0.63197 0.86475 0.81356 0.0
C685 C 0.63276 0.8669 0.76126 0.0
C686 C 0.65062 0.92747 0.88308 0.0
C687 C 0.62513 0.84136 0.82554 0.0
H688 H 0.6749 0.8694 1.00143 0.0
H689 H 0.60461 0.89344 0.01841 0.0
H690 H 0.67636 0.8536 0.86511 0.0
H691 H 0.68593 0.88363 0.88175 0.0
H692 H 0.6947 0.8633 0.92133 0.0
H693 H 0.5827 0.90085 0.94874 0.0
H694 H 0.59936 0.91131 0.90026 0.0
H695 H 0.58998 0.88121 0.88747 0.0
H696 H 0.65 0.92426 0.77928 0.0
H697 H 0.62832 0.85185 0.73032 0.0
H698 H 0.66631 0.92351 0.90391 0.0
H699 H 0.63659 0.93178 0.91243 0.0
H700 H 0.65404 0.94332 0.86685 0.0
H701 H 0.64078 0.83232 0.8359 0.0
H702 H 0.6167 0.82954 0.79157 0.0
H703 H 0.6132 0.84398 0.85944 0.0
C704 C 0.35487 0.38958 0.23724 0.0
C705 C 0.37319 0.3979 0.2716 0.0
C706 C 0.35541 0.39159 0.18491 0.0
C707 C 0.3752 0.40114 0.16556 0.0
C708 C 0.39376 0.40951 0.19968 0.0
C709 C 0.39232 0.40827 0.25242 0.0
C710 C 0.33491 0.3831 0.15022 0.0
C711 C 0.4153 0.41953 0.1803 0.0
C712 C 0.38512 0.38422 0.01877 0.0
C713 C 0.37823 0.40487 1.00368 0.0
C714 C 0.38455 0.38285 0.0716 0.0
C715 C 0.37645 0.40245 0.10964 0.0
C716 C 0.36927 0.42326 0.09418 0.0
C717 C 0.37042 0.42427 0.04129 0.0
C718 C 0.39262 0.36048 0.08674 0.0
C719 C 0.35975 0.4442 0.13324 0.0
H720 H 0.34018 0.38101 0.2507 0.0
H721 H 0.40635 0.41535 0.27849 0.0
H722 H 0.33022 0.39619 0.12674 0.0
H723 H 0.33939 0.36633 0.12254 0.0
H724 H 0.31955 0.37989 0.17307 0.0
H725 H 0.42851 0.42459 0.21148 0.0
H726 H 0.42296 0.40629 0.14762 0.0
H727 H 0.41091 0.43535 0.16492 0.0
H728 H 0.39101 0.36923 0.98926 0.0
H729 H 0.36482 0.44009 0.02905 0.0
H730 H 0.3781 0.35232 0.10401 0.0
H731 H 0.40632 0.36469 0.11697 0.0
H732 H 0.39946 0.34731 0.05282 0.0
H733 H 0.34352 0.439 0.15024 0.0
H734 H 0.35606 0.45949 0.11528 0.0
H735 H 0.37208 0.44992 0.16595 0.0
C736 C 0.89268 0.1004 0.48266 0.0
C737 C 0.87888 0.11463 0.5212 0.0
C738 C 0.89183 0.10252 0.43027 0.0
C739 C 0.87665 0.1191 0.41559 0.0
C740 C 0.86286 0.13373 0.45416 0.0
C741 C 0.86422 0.13141 0.50639 0.0
C742 C 0.907 0.08677 0.39038 0.0
C743 C 0.84643 0.15163 0.44016 0.0
C744 C 0.89028 0.13812 0.28891 0.0
C745 C 0.87473 0.12447 0.25385 0.0
C746 C 0.89073 0.1369 0.34179 0.0
C747 C 0.87554 0.12131 0.35995 0.0
C748 C 0.85975 0.10748 0.32463 0.0
C749 C 0.85937 0.1094 0.27205 0.0
C750 C 0.90745 0.15235 0.37827 0.0
C751 C 0.84345 0.09045 0.34224 0.0
H752 H 0.90378 0.0871 0.49307 0.0
H753 H 0.85372 0.1428 0.53569 0.0
H754 H 0.89612 0.07557 0.35986 0.0
H755 H 0.91814 0.0977 0.37056 0.0
H756 H 0.91822 0.0751 0.40816 0.0
H757 H 0.83828 0.16294 0.47521 0.0
H758 H 0.8556 0.16315 0.41811 0.0
H759 H 0.83259 0.14231 0.41439 0.0
H760 H 0.90187 0.15011 0.27504 0.0
H761 H 0.84732 0.09886 0.24492 0.0
H762 H 0.91935 0.14119 0.3957 0.0
H763 H 0.89789 0.16381 0.41089 0.0
H764 H 0.91787 0.16378 0.35814 0.0
H765 H 0.85348 0.07688 0.35678 0.0
H766 H 0.83191 0.08135 0.31026 0.0
H767 H 0.83266 0.09997 0.37513 0.0
C768 C 0.12953 0.37168 0.26095 0.0
C769 C 0.14202 0.38966 0.24534 0.0
C770 C 0.12917 0.37004 0.31365 0.0
C771 C 0.14202 0.38644 0.35098 0.0
C772 C 0.15479 0.40446 0.33517 0.0
C773 C 0.15453 0.40591 0.28262 0.0
C774 C 0.115 0.35089 0.32948 0.0
C775 C 0.1691 0.42196 0.3736 0.0
C776 C 0.12704 0.39752 0.4949 0.0
C777 C 0.14345 0.38354 0.51345 0.0
C778 C 0.12617 0.39834 0.44196 0.0
C779 C 0.14217 0.38494 0.40675 0.0
C780 C 0.1589 0.3709 0.42523 0.0
C781 C 0.15924 0.37024 0.47841 0.0
C782 C 0.10804 0.41346 0.42367 0.0
C783 C 0.17643 0.35662 0.38886 0.0
H784 H 0.11981 0.35916 0.2321 0.0
H785 H 0.16453 0.41957 0.27038 0.0
H786 H 0.12645 0.3389 0.34568 0.0
H787 H 0.10264 0.35885 0.36075 0.0
H788 H 0.10517 0.34021 0.29615 0.0
H789 H 0.177 0.43569 0.35546 0.0
H790 H 0.15834 0.43087 0.40715 0.0
H791 H 0.1831 0.41246 0.3894 0.0
H792 H 0.11449 0.40744 0.52168 0.0
H793 H 0.17195 0.35944 0.49268 0.0
H794 H 0.09698 0.40228 0.3935 0.0
H795 H 0.1164 0.42684 0.40532 0.0
H796 H 0.09686 0.42279 0.45613 0.0
H797 H 0.1675 0.34262 0.35998 0.0
H798 H 0.18937 0.34811 0.4101 0.0
H799 H 0.18563 0.36807 0.36667 0.0
C800 C 0.89421 0.88412 0.73926 0.0
C801 C 0.87465 0.89184 0.76989 0.0
C802 C 0.89525 0.88556 0.68645 0.0
C803 C 0.87628 0.89494 0.66352 0.0
C804 C 0.85654 0.9029 0.69425 0.0
C805 C 0.85598 0.9013 0.74695 0.0
C806 C 0.91663 0.87692 0.65511 0.0
C807 C 0.8359 0.91296 0.67137 0.0
C808 C 0.88557 0.91971 0.542 0.0
C809 C 0.87692 0.90151 0.50215 0.0
C810 C 0.88583 0.9176 0.59441 0.0
C811 C 0.87717 0.89682 0.60763 0.0
C812 C 0.86881 0.87818 0.56762 0.0
C813 C 0.86882 0.88073 0.51546 0.0
C814 C 0.89484 0.9379 0.63591 0.0
C815 C 0.85961 0.85564 0.57998 0.0
H816 H 0.90857 0.87642 0.75622 0.0
H817 H 0.84089 0.90758 0.77032 0.0
H818 H 0.91195 0.8632 0.62007 0.0
H819 H 0.92472 0.89175 0.64112 0.0
H820 H 0.92959 0.8694 0.67819 0.0
H821 H 0.82244 0.9196 0.70116 0.0
H822 H 0.84132 0.92769 0.65321 0.0
H823 H 0.82811 0.89912 0.6401 0.0
H824 H 0.89153 0.93599 0.53251 0.0
H825 H 0.86242 0.86639 0.48503 0.0
H826 H 0.90851 0.9316 0.65925 0.0
H827 H 0.88068 0.9452 0.6632 0.0
H828 H 0.90203 0.95237 0.61906 0.0
H829 H 0.87296 0.84743 0.6007 0.0
H830 H 0.85425 0.84258 0.54431 0.0
H831 H 0.84451 0.85968 0.60649 0.0
C832 C 0.38985 0.64087 0.79132 0.0
C833 C 0.37431 0.62705 0.75639 0.0
C834 C 0.39026 0.63998 0.84449 0.0
C835 C 0.37497 0.62465 0.86325 0.0
C836 C 0.35928 0.61059 0.82812 0.0
C837 C 0.35903 0.61207 0.77527 0.0
C838 C 0.40717 0.65539 0.88051 0.0
C839 C 0.34277 0.59391 0.84632 0.0
C840 C 0.39102 0.60406 0.98715 0.0
C841 C 0.377 0.61839 0.02515 0.0
C842 C 0.39072 0.60616 0.93471 0.0
C843 C 0.37585 0.62279 0.91927 0.0
C844 C 0.36176 0.63743 0.95723 0.0
C845 C 0.36256 0.63513 1.0096 0.0
C846 C 0.40609 0.59026 0.89555 0.0
C847 C 0.34581 0.65554 0.9425 0.0
H848 H 0.40145 0.65278 0.77723 0.0
H849 H 0.34704 0.60128 0.74848 0.0
H850 H 0.39809 0.66576 0.91532 0.0
H851 H 0.42009 0.6441 0.89466 0.0
H852 H 0.41644 0.66783 0.86091 0.0
H853 H 0.33224 0.58358 0.81379 0.0
H854 H 0.35247 0.5814 0.86486 0.0
H855 H 0.33096 0.60407 0.87632 0.0
H856 H 0.40193 0.59073 0.99805 0.0
H857 H 0.35191 0.64659 0.03843 0.0
H858 H 0.41722 0.60103 0.87534 0.0
H859 H 0.39533 0.57877 0.86525 0.0
H860 H 0.41732 0.57886 0.91406 0.0
H861 H 0.3559 0.66817 0.92513 0.0
H862 H 0.33602 0.66565 0.97658 0.0
H863 H 0.33332 0.64668 0.91244 0.0
C864 C 0.65744 0.14823 0.04658 0.0
C865 C 0.64087 0.13654 1.01129 0.0
C866 C 0.65644 0.14744 0.09962 0.0
C867 C 0.63827 0.13493 0.11761 0.0
C868 C 0.6213 0.12343 0.08223 0.0
C869 C 0.62285 0.12432 0.02943 0.0
C870 C 0.67498 0.15966 0.13624 0.0
C871 C 0.60141 0.11034 0.1002 0.0
C872 C 0.64892 0.11113 0.23875 0.0
C873 C 0.63826 0.12827 0.27766 0.0
C874 C 0.64892 0.11311 0.18655 0.0
C875 C 0.63782 0.13262 0.17279 0.0
C876 C 0.62663 0.14981 0.21164 0.0
C877 C 0.62722 0.14757 0.26392 0.0
C878 C 0.66115 0.09449 0.14622 0.0
C879 C 0.61432 0.17067 0.19818 0.0
H880 H 0.67135 0.15772 0.03252 0.0
H881 H 0.60968 0.11578 1.00238 0.0
H882 H 0.66709 0.17309 0.16816 0.0
H883 H 0.68395 0.14661 0.15463 0.0
H884 H 0.688 0.16852 0.11597 0.0
H885 H 0.59018 0.10155 0.06727 0.0
H886 H 0.60794 0.09672 0.12047 0.0
H887 H 0.59075 0.1229 0.12869 0.0
H888 H 0.6578 0.09639 0.24939 0.0
H889 H 0.61891 0.1608 0.29397 0.0
H890 H 0.67521 0.1028 0.12775 0.0
H891 H 0.64895 0.08636 0.11478 0.0
H892 H 0.66868 0.08025 0.16334 0.0
H893 H 0.62724 0.1833 0.18901 0.0
H894 H 0.60336 0.18014 0.2309 0.0
H895 H 0.60332 0.16492 0.16304 0.0
C896 C 0.89186 0.40299 0.28199 0.0
C897 C 0.87792 0.3879 0.24541 0.0
C898 C 0.89098 0.40251 0.3352 0.0
C899 C 0.87586 0.38652 0.35207 0.0
C900 C 0.86202 0.371 0.31535 0.0
C901 C 0.86315 0.37194 0.2625 0.0
C902 C 0.90617 0.41912 0.37338 0.0
C903 C 0.84564 0.35376 0.33205 0.0
C904 C 0.88818 0.36875 0.47979 0.0
C905 C 0.87298 0.38337 0.51394 0.0
C906 C 0.88942 0.36979 0.42709 0.0
C907 C 0.87487 0.38561 0.40805 0.0
C908 C 0.85935 0.40034 0.44232 0.0
C909 C 0.85881 0.39926 0.49526 0.0
C910 C 0.90643 0.35408 0.39189 0.0
C911 C 0.84344 0.41728 0.4232 0.0
H912 H 0.90346 0.41522 0.26901 0.0
H913 H 0.85194 0.36059 0.23473 0.0
H914 H 0.89532 0.43105 0.40267 0.0
H915 H 0.91729 0.40891 0.39499 0.0
H916 H 0.91738 0.4301 0.35376 0.0
H917 H 0.83711 0.34193 0.29822 0.0
H918 H 0.85497 0.34267 0.35488 0.0
H919 H 0.83211 0.36366 0.35787 0.0
H920 H 0.89944 0.35677 0.49464 0.0
H921 H 0.84713 0.41058 0.52191 0.0
H922 H 0.91869 0.3651 0.375 0.0
H923 H 0.8972 0.34256 0.35881 0.0
H924 H 0.91646 0.34271 0.41293 0.0
H925 H 0.85374 0.43165 0.4125 0.0
H926 H 0.83058 0.42537 0.45329 0.0
H927 H 0.83408 0.40808 0.3876 0.0
C928 C 0.3646 0.14959 0.26252 0.0
C929 C 0.38024 0.13482 0.28105 0.0
C930 C 0.3641 0.1506 0.20963 0.0
C931 C 0.37955 0.13641 0.17432 0.0
C932 C 0.39575 0.12188 0.19283 0.0
C933 C 0.39587 0.1212 0.24602 0.0
C934 C 0.34649 0.16625 0.19131 0.0
C935 C 0.41281 0.10691 0.15634 0.0
C936 C 0.364 0.12081 0.03018 0.0
C937 C 0.37666 0.1377 1.01115 0.0
C938 C 0.36464 0.12027 0.08342 0.0
C939 C 0.37865 0.13672 0.11792 0.0
C940 C 0.39167 0.15363 0.09867 0.0
C941 C 0.39039 0.15401 0.04555 0.0
C942 C 0.35031 0.10218 0.10277 0.0
C943 C 0.40698 0.17127 0.13416 0.0
H944 H 0.35216 0.15981 0.28909 0.0
H945 H 0.40815 0.10993 0.26018 0.0
H946 H 0.35483 0.17744 0.16728 0.0
H947 H 0.3335 0.15506 0.16628 0.0
H948 H 0.33738 0.17794 0.22443 0.0
H949 H 0.42476 0.09711 0.17718 0.0
H950 H 0.40345 0.09395 0.12596 0.0
H951 H 0.42316 0.11822 0.13587 0.0
H952 H 0.35337 0.10824 1.00351 0.0
H953 H 0.4005 0.16684 0.03062 0.0
H954 H 0.33872 0.11115 0.13471 0.0
H955 H 0.36175 0.09025 0.11915 0.0
H956 H 0.33963 0.09129 0.07127 0.0
H957 H 0.39641 0.18271 0.16491 0.0
H958 H 0.4166 0.18272 0.1126 0.0
H959 H 0.41961 0.16187 0.15419 0.0
C960 C 0.65729 0.60372 0.9871 0.0
C961 C 0.63897 0.61316 0.02018 0.0
C962 C 0.65771 0.60547 0.93462 0.0
C963 C 0.63946 0.61714 0.91468 0.0
C964 C 0.6209 0.62677 0.94783 0.0
C965 C 0.62077 0.62446 1.00015 0.0
C966 C 0.67778 0.59494 0.90059 0.0
C967 C 0.6013 0.63963 0.92811 0.0
C968 C 0.65276 0.64138 0.79458 0.0
C969 C 0.64292 0.62418 0.75434 0.0
C970 C 0.65158 0.63939 0.84686 0.0
C971 C 0.6402 0.61976 0.85944 0.0
C972 C 0.63015 0.60235 0.81912 0.0
C973 C 0.6316 0.60478 0.76703 0.0
C974 C 0.66244 0.65838 0.88869 0.0
C975 C 0.6181 0.58103 0.83095 0.0
H976 H 0.67127 0.5947 1.00223 0.0
H977 H 0.60666 0.6319 0.02568 0.0
H978 H 0.6714 0.5822 0.8655 0.0
H979 H 0.68719 0.60908 0.88673 0.0
H980 H 0.69016 0.58566 0.92159 0.0
H981 H 0.589 0.64746 0.95966 0.0
H982 H 0.60815 0.65396 0.91038 0.0
H983 H 0.59174 0.6272 0.8971 0.0
H984 H 0.66112 0.65668 0.78529 0.0
H985 H 0.62414 0.59132 0.73614 0.0
H986 H 0.67559 0.65048 0.91054 0.0
H987 H 0.64909 0.66667 0.91722 0.0
H988 H 0.67084 0.67241 0.87233 0.0
H989 H 0.63037 0.57074 0.8498 0.0
H990 H 0.611 0.56921 0.79525 0.0
H991 H 0.60377 0.58677 0.85892 0.0
C992 C 0.1571 0.91211 0.53798 0.0
C993 C 0.1372 0.90557 0.50775 0.0
C994 C 0.15793 0.91059 0.59054 0.0
C995 C 0.13847 0.90206 0.6133 0.0
C996 C 0.11835 0.89528 0.58292 0.0
C997 C 0.11786 0.89737 0.53052 0.0
C998 C 0.17969 0.918 0.62161 0.0
C999 C 0.09746 0.88563 0.60566 0.0
C1000 C 0.14996 0.87702 0.73289 0.0
C1001 C 0.14304 0.89572 0.77359 0.0
C1002 C 0.14827 0.87874 0.68056 0.0
C1003 C 0.13948 0.89971 0.66859 0.0
C1004 C 0.13233 0.91863 0.70946 0.0
C1005 C 0.13408 0.91636 0.76159 0.0
C1006 C 0.15588 0.85809 0.63812 0.0
C1007 C 0.12323 0.9414 0.69813 0.0
H1008 H 0.17202 0.91865 0.52051 0.0
H1009 H 0.10256 0.89212 0.50701 0.0
H1010 H 0.17563 0.93181 0.65697 0.0
H1011 H 0.1871 0.9027 0.63507 0.0
H1012 H 0.19302 0.925 0.59851 0.0
H1013 H 0.0839 0.87945 0.57582 0.0
H1014 H 0.10251 0.87066 0.62345 0.0
H1015 H 0.08999 0.89955 0.63721 0.0
H1016 H 0.15651 0.86085 0.74198 0.0
H1017 H 0.12886 0.93089 0.793 0.0
H1018 H 0.1699 0.86365 0.61463 0.0
H1019 H 0.14127 0.85193 0.61117 0.0
H1020 H 0.16218 0.84298 0.65409 0.0
H1021 H 0.13659 0.94959 0.67744 0.0
H1022 H 0.11818 0.95433 0.73427 0.0
H1023 H 0.10799 0.93774 0.67195 0.0
C1024 C 0.8607 0.64615 0.76109 0.0
C1025 C 0.87978 0.63641 0.78174 0.0
C1026 C 0.85963 0.64652 0.70797 0.0
C1027 C 0.87815 0.637 0.67485 0.0
C1028 C 0.89766 0.62749 0.69553 0.0
C1029 C 0.89819 0.62719 0.74885 0.0
C1030 C 0.83845 0.65658 0.68709 0.0
C1031 C 0.91789 0.61762 0.66131 0.0
C1032 C 0.86682 0.61827 0.5293 0.0
C1033 C 0.87499 0.63793 0.51178 0.0
C1034 C 0.86772 0.61771 0.58244 0.0
C1035 C 0.87714 0.63721 0.61856 0.0
C1036 C 0.88539 0.65711 0.6011 0.0
C1037 C 0.88422 0.65722 0.54787 0.0
C1038 C 0.85867 0.59624 0.59988 0.0
C1039 C 0.8956 0.67818 0.63859 0.0
H1040 H 0.84622 0.65282 0.78622 0.0
H1041 H 0.91298 0.61972 0.76486 0.0
H1042 H 0.84345 0.67029 0.66554 0.0
H1043 H 0.82939 0.64235 0.65904 0.0
H1044 H 0.82619 0.66454 0.71863 0.0
H1045 H 0.93179 0.61097 0.68355 0.0
H1046 H 0.91206 0.60291 0.62934 0.0
H1047 H 0.9252 0.63148 0.64278 0.0
H1048 H 0.85961 0.6034 0.50148 0.0
H1049 H 0.89101 0.67226 0.53433 0.0
H1050 H 0.84538 0.60161 0.63066 0.0
H1051 H 0.87291 0.58766 0.61718 0.0
H1052 H 0.85099 0.58302 0.56713 0.0
H1053 H 0.88268 0.68587 0.66878 0.0
H1054 H 0.90134 0.69221 0.61856 0.0
H1055 H 0.91061 0.67252 0.65918 0.0
C1056 C 0.15639 0.10233 0.48731 0.0
C1057 C 0.13909 0.11339 0.52157 0.0
C1058 C 0.1567 0.104 0.43469 0.0
C1059 C 0.13949 0.11736 0.41582 0.0
C1060 C 0.12199 0.12865 0.45022 0.0
C1061 C 0.12183 0.1263 0.50257 0.0
C1062 C 0.17558 0.09156 0.39934 0.0
C1063 C 0.10355 0.14336 0.4318 0.0
C1064 C 0.15456 0.14068 0.29518 0.0
C1065 C 0.14309 0.12466 0.25529 0.0
C1066 C 0.15339 0.13859 0.34745 0.0
C1067 C 0.14032 0.12006 0.36051 0.0
C1068 C 0.1286 0.10386 0.32056 0.0
C1069 C 0.13011 0.10636 0.26846 0.0
C1070 C 0.16606 0.15631 0.38877 0.0
C1071 C 0.1147 0.08371 0.33278 0.0
H1072 H 0.1696 0.09209 0.50162 0.0
H1073 H 0.1085 0.13497 0.52896 0.0
H1074 H 0.16792 0.07968 0.36448 0.0
H1075 H 0.18629 0.10475 0.38518 0.0
H1076 H 0.18702 0.08095 0.41941 0.0
H1077 H 0.092 0.15215 0.46407 0.0
H1078 H 0.1116 0.15712 0.41406 0.0
H1079 H 0.09292 0.13198 0.40108 0.0
H1080 H 0.16424 0.15519 0.28568 0.0
H1081 H 0.12136 0.09377 0.23792 0.0
H1082 H 0.17844 0.14708 0.40976 0.0
H1083 H 0.1536 0.16583 0.4181 0.0
H1084 H 0.17572 0.1695 0.37209 0.0
H1085 H 0.12603 0.0722 0.35065 0.0
H1086 H 0.10644 0.07276 0.2974 0.0
H1087 H 0.10104 0.09072 0.36167 0.0
C1088 C 0.63182 0.41415 0.25873 0.0
C1089 C 0.64543 0.39703 0.27498 0.0
C1090 C 0.63092 0.41557 0.20595 0.0
C1091 C 0.64394 0.39949 0.16838 0.0
C1092 C 0.65802 0.38244 0.18457 0.0
C1093 C 0.65854 0.38137 0.23754 0.0
C1094 C 0.61584 0.43413 0.19033 0.0
C1095 C 0.67234 0.36514 0.14579 0.0
C1096 C 0.62468 0.38915 0.02627 0.0
C1097 C 0.64059 0.40292 1.00583 0.0
C1098 C 0.62582 0.38754 0.07896 0.0
C1099 C 0.64287 0.40052 0.11212 0.0
C1100 C 0.65889 0.41454 0.09153 0.0
C1101 C 0.65767 0.4154 0.03852 0.0
C1102 C 0.60885 0.37188 0.09912 0.0
C1103 C 0.67704 0.429 0.12569 0.0
H1104 H 0.62187 0.42654 0.28735 0.0
H1105 H 0.66882 0.36781 0.24939 0.0
H1106 H 0.62604 0.44473 0.16787 0.0
H1107 H 0.60174 0.42543 0.16446 0.0
H1108 H 0.60802 0.44629 0.22465 0.0
H1109 H 0.68251 0.35306 0.16472 0.0
H1110 H 0.66095 0.35437 0.11572 0.0
H1111 H 0.68444 0.37484 0.12522 0.0
H1112 H 0.61159 0.37938 1.0008 0.0
H1113 H 0.66984 0.42622 0.02271 0.0
H1114 H 0.59814 0.3827 0.13053 0.0
H1115 H 0.61827 0.35877 0.11645 0.0
H1116 H 0.59725 0.36225 0.06788 0.0
H1117 H 0.66852 0.44306 0.15526 0.0
H1118 H 0.68931 0.43747 0.10283 0.0
H1119 H 0.68696 0.41778 0.14721 0.0
C1120 C 0.39425 0.89503 0.99812 0.0
C1121 C 0.37597 0.88296 0.01576 0.0
C1122 C 0.3963 0.89564 0.94527 0.0
C1123 C 0.37958 0.88401 0.90941 0.0
C1124 C 0.36106 0.87182 0.92694 0.0
C1125 C 0.35953 0.87134 0.98002 0.0
C1126 C 0.41631 0.90876 0.92788 0.0
C1127 C 0.34282 0.85938 0.88969 0.0
C1128 C 0.37059 0.90516 0.78442 0.0
C1129 C 0.38171 0.88741 0.74765 0.0
C1130 C 0.37005 0.90438 0.83734 0.0
C1131 C 0.38091 0.88542 0.85383 0.0
C1132 C 0.39253 0.86765 0.81718 0.0
C1133 C 0.39268 0.86879 0.76429 0.0
C1134 C 0.3573 0.9235 0.87536 0.0
C1135 C 0.40459 0.84738 0.83379 0.0
H1136 H 0.40725 0.90361 0.02556 0.0
H1137 H 0.34539 0.86202 0.99369 0.0
H1138 H 0.42566 0.8971 0.8952 0.0
H1139 H 0.40976 0.9241 0.9132 0.0
H1140 H 0.42874 0.91534 0.96008 0.0
H1141 H 0.32905 0.8515 0.90999 0.0
H1142 H 0.33474 0.87198 0.86864 0.0
H1143 H 0.35088 0.84511 0.85987 0.0
H1144 H 0.36168 0.91934 0.77157 0.0
H1145 H 0.40139 0.85514 0.73594 0.0
H1146 H 0.36884 0.93183 0.90797 0.0
H1147 H 0.34259 0.91561 0.89266 0.0
H1148 H 0.35053 0.93753 0.85648 0.0
H1149 H 0.41735 0.85429 0.86498 0.0
H1150 H 0.41366 0.83557 0.80077 0.0
H1151 H 0.39185 0.83673 0.85034 0.0
C1152 C 0.16154 0.71777 0.14417 0.0
C1153 C 0.14303 0.70365 0.15318 0.0
C1154 C 0.15958 0.74242 0.15378 0.0
C1155 C 0.13839 0.75327 0.17229 0.0
C1156 C 0.12014 0.73922 0.18518 0.0
C1157 C 0.1227 0.71442 0.17564 0.0
C1158 C 0.17955 0.75661 0.1397 0.0
C1159 C 0.09728 0.75016 0.20472 0.0
C1160 C 0.13894 0.8207 0.20688 0.0
C1161 C 0.13204 0.82593 0.15937 0.0
C1162 C 0.14022 0.79714 0.21266 0.0
C1163 C 0.13443 0.77845 0.16998 0.0
C1164 C 0.12671 0.78374 0.12256 0.0
C1165 C 0.12563 0.80733 0.11787 0.0
C1166 C 0.14859 0.79222 0.26373 0.0
C1167 C 0.12051 0.76442 0.0758 0.0
H1168 H 0.17726 0.70936 0.12677 0.0
H1169 H 0.10827 0.70345 0.18195 0.0
H1170 H 0.17497 0.76358 0.10479 0.0
H1171 H 0.18323 0.772 0.17206 0.0
H1172 H 0.19552 0.74584 0.13086 0.0
H1173 H 0.08641 0.73783 0.22138 0.0
H1174 H 0.0999 0.76666 0.23486 0.0
H1175 H 0.08774 0.75495 0.17179 0.0
H1176 H 0.14404 0.83494 0.23904 0.0
H1177 H 0.12019 0.81113 0.08099 0.0
H1178 H 0.16558 0.78318 0.25782 0.0
H1179 H 0.13643 0.78019 0.27778 0.0
H1180 H 0.15048 0.80867 0.29448 0.0
H1181 H 0.13611 0.75384 0.06153 0.0
H1182 H 0.11333 0.77155 0.04306 0.0
H1183 H 0.10765 0.75224 0.08699 0.0
C1184 C 0.55724 0.85941 0.41394 0.0
C1185 C 0.57026 0.88022 0.42466 0.0
C1186 C 0.53315 0.86012 0.41953 0.0
C1187 C 0.52181 0.88228 0.4336 0.0
C1188 C 0.53503 0.90334 0.44578 0.0
C1189 C 0.55922 0.90202 0.44201 0.0
C1190 C 0.51974 0.83724 0.40784 0.0
C1191 C 0.52357 0.92731 0.45962 0.0
C1192 C 0.46288 0.88267 0.37168 0.0
C1193 C 0.44794 0.88265 0.41383 0.0
C1194 C 0.48685 0.88327 0.37821 0.0
C1195 C 0.49629 0.88345 0.42806 0.0
C1196 C 0.48135 0.88388 0.47114 0.0
C1197 C 0.45725 0.88364 0.46356 0.0
C1198 C 0.50206 0.8835 0.33144 0.0
C1199 C 0.49071 0.88359 0.52467 0.0
H1200 H 0.56591 0.84259 0.40028 0.0
H1201 H 0.5694 0.91812 0.4494 0.0
H1202 H 0.50671 0.83713 0.43882 0.0
H1203 H 0.51033 0.83553 0.37033 0.0
H1204 H 0.53118 0.82159 0.4048 0.0
H1205 H 0.53631 0.94195 0.46908 0.0
H1206 H 0.51276 0.92997 0.42639 0.0
H1207 H 0.51193 0.9283 0.49362 0.0
H1208 H 0.45583 0.88233 0.3332 0.0
H1209 H 0.44576 0.8836 0.49617 0.0
H1210 H 0.51247 0.86705 0.32189 0.0
H1211 H 0.51429 0.89859 0.34053 0.0
H1212 H 0.49193 0.8849 0.29623 0.0
H1213 H 0.49645 0.86538 0.52529 0.0
H1214 H 0.47743 0.88901 0.55555 0.0
H1215 H 0.5059 0.8954 0.53424 0.0
C1216 C 0.38303 0.30707 0.61255 0.0
C1217 C 0.38496 0.32583 0.65651 0.0
C1218 C 0.38205 0.28352 0.61763 0.0
C1219 C 0.38327 0.27841 0.66793 0.0
C1220 C 0.38572 0.29717 0.71245 0.0
C1221 C 0.38642 0.3207 0.70624 0.0
C1222 C 0.37901 0.26415 0.56909 0.0
C1223 C 0.38743 0.29242 0.76663 0.0
C1224 C 0.3548 0.21993 0.67122 0.0
C1225 C 0.37364 0.20441 0.66357 0.0
C1226 C 0.3579 0.24435 0.67657 0.0
C1227 C 0.3804 0.25347 0.67333 0.0
C1228 C 0.39966 0.23801 0.66853 0.0
C1229 C 0.39607 0.2136 0.6641 0.0
C1230 C 0.3369 0.26017 0.68222 0.0
C1231 C 0.42389 0.247 0.66439 0.0
H1232 H 0.38165 0.31076 0.57386 0.0
H1233 H 0.38799 0.33507 0.74032 0.0
H1234 H 0.39292 0.25079 0.56662 0.0
H1235 H 0.36233 0.25495 0.57107 0.0
H1236 H 0.37921 0.27102 0.53271 0.0
H1237 H 0.38771 0.30899 0.7974 0.0
H1238 H 0.37269 0.2814 0.77415 0.0
H1239 H 0.40346 0.28233 0.76979 0.0
H1240 H 0.33747 0.21283 0.67109 0.0
H1241 H 0.41069 0.20161 0.65786 0.0
H1242 H 0.33435 0.26664 0.64576 0.0
H1243 H 0.33939 0.27589 0.71453 0.0
H1244 H 0.32096 0.25083 0.68994 0.0
H1245 H 0.42616 0.25161 0.62578 0.0
H1246 H 0.43712 0.23361 0.66836 0.0
H1247 H 0.42698 0.26332 0.69476 0.0
C1248 C 0.96371 0.12989 0.85026 0.0
C1249 C 0.9478 0.1275 0.88909 0.0
C1250 C 0.98746 0.13121 0.85984 0.0
C1251 C 0.99585 0.13054 0.91018 0.0
C1252 C 0.97982 0.12979 0.95089 0.0
C1253 C 0.95582 0.12822 0.93988 0.0
C1254 C 1.00361 0.13162 0.81471 0.0
C1255 C 0.98814 0.1296 1.00527 0.0
C1256 C 0.05518 0.10262 0.8958 0.0
C1257 C 0.06957 0.12242 0.90139 0.0
C1258 C 0.03127 0.10503 0.90393 0.0
C1259 C 0.02133 0.12792 0.91721 0.0
C1260 C 0.03605 0.14802 0.92667 0.0
C1261 C 0.0601 0.14503 0.91867 0.0
C1262 C 0.01648 0.08305 0.89295 0.0
C1263 C 0.02624 0.17271 0.94037 0.0
H1264 H 0.95759 0.12958 0.81099 0.0
H1265 H 0.94361 0.12628 0.96998 0.0
H1266 H 0.01607 0.1464 0.82534 0.0
H1267 H 0.01368 0.11492 0.80538 0.0
H1268 H 0.99423 0.13352 0.77887 0.0
H1269 H 0.97362 0.12962 0.03297 0.0
H1270 H 0.99897 0.11372 1.00449 0.0
H1271 H 0.99916 0.1453 0.02 0.0
H1272 H 0.06251 0.08515 0.88177 0.0
H1273 H 0.07115 0.16038 0.92189 0.0
H1274 H 1.00725 0.08178 0.85532 0.0
H1275 H 1.00327 0.08386 0.9239 0.0
H1276 H 0.02691 0.06672 0.89025 0.0
H1277 H 0.01908 0.17734 0.90462 0.0
H1278 H 0.03963 0.18598 0.95678 0.0
H1279 H 0.01192 0.17384 0.96893 0.0
C1280 C 0.12682 0.30233 0.8379 0.0
C1281 C 0.14525 0.31347 0.86821 0.0
C1282 C 0.12476 0.27744 0.82685 0.0
C1283 C 0.14153 0.26374 0.84647 0.0
C1284 C 0.16123 0.27498 0.87262 0.0
C1285 C 0.16274 0.29966 0.88335 0.0
C1286 C 0.10378 0.26595 0.79793 0.0
C1287 C 0.17979 0.26114 0.89333 0.0
C1288 C 0.12369 0.21028 0.89811 0.0
C1289 C 0.13278 0.19151 0.86044 0.0
C1290 C 0.12552 0.2337 0.8925 0.0
C1291 C 0.13687 0.23862 0.84819 0.0
C1292 C 0.1456 0.21969 0.80928 0.0
C1293 C 0.14327 0.1963 0.81567 0.0
C1294 C 0.11618 0.25328 0.93533 0.0
C1295 C 0.15778 0.22411 0.76145 0.0
H1296 H 0.11328 0.31301 0.82615 0.0
H1297 H 0.17719 0.30829 0.90615 0.0
H1298 H 0.10875 0.24978 0.76879 0.0
H1299 H 0.09174 0.26049 0.82604 0.0
H1300 H 0.09451 0.27815 0.77766 0.0
H1301 H 0.19505 0.27223 0.90801 0.0
H1302 H 0.17272 0.25387 0.92592 0.0
H1303 H 0.18556 0.24597 0.86238 0.0
H1304 H 0.11552 0.20674 0.9328 0.0
H1305 H 0.15048 0.18188 0.78659 0.0
H1306 H 0.10423 0.26466 0.91863 0.0
H1307 H 0.13059 0.26462 0.95424 0.0
H1308 H 0.10683 0.2464 0.9659 0.0
H1309 H 0.14496 0.2299 0.73538 0.0
H1310 H 0.1666 0.20799 0.73921 0.0
H1311 H 0.17073 0.23845 0.7723 0.0
C1312 C 0.05771 0.8741 0.12846 0.0
C1313 C 0.06943 0.89506 0.12711 0.0
C1314 C 0.03352 0.87278 0.12359 0.0
C1315 C 0.02086 0.89297 0.1175 0.0
C1316 C 0.03294 0.91361 0.11227 0.0
C1317 C 0.0571 0.91443 0.11752 0.0
C1318 C 0.02138 0.85057 0.13015 0.0
C1319 C 0.02028 0.93568 0.10663 0.0
C1320 C 0.95525 0.8899 0.09639 0.0
C1321 C 0.94736 0.89818 0.1477 0.0
C1322 C 0.97921 0.88786 0.08559 0.0
C1323 C 0.99539 0.89416 0.12703 0.0
C1324 C 0.98731 0.90223 0.17875 0.0
C1325 C 0.96357 0.90408 0.18827 0.0
C1326 C 0.98728 0.8793 0.03 0.0
C1327 C 1.00373 0.90915 0.22443 0.0
H1328 H 0.06727 0.85937 0.13743 0.0
H1329 H 0.06617 0.93086 0.11801 0.0
H1330 H 0.01266 0.85391 0.16876 0.0
H1331 H 1.00788 0.84541 0.09979 0.0
H1332 H 0.03357 0.83557 0.12791 0.0
H1333 H 0.03197 0.94856 0.09393 0.0
H1334 H 1.00594 0.93129 0.07808 0.0
H1335 H 0.01263 0.94434 0.14485 0.0
H1336 H 0.94283 0.88534 0.06487 0.0
H1337 H 0.9577 0.91038 0.22815 0.0
H1338 H 0.99821 0.86332 0.02694 0.0
H1339 H 0.99816 0.89305 0.01832 0.0
H1340 H 0.97266 0.875 1.00213 0.0
H1341 H 0.01478 0.89387 0.22747 0.0
H1342 H 0.99455 0.91526 0.26219 0.0
H1343 H 0.01529 0.92357 0.21834 0.0
C1344 C 0.38794 0.69827 0.31908 0.0
C1345 C 0.37836 0.69239 0.36351 0.0
C1346 C 0.38755 0.7218 0.31295 0.0
C1347 C 0.3769 0.73954 0.35168 0.0
C1348 C 0.36635 0.73333 0.39551 0.0
C1349 C 0.36743 0.7099 0.4011 0.0
C1350 C 0.39913 0.72778 0.26599 0.0
C1351 C 0.35417 0.75149 0.43696 0.0
C1352 C 0.39284 0.80449 0.37795 0.0
C1353 C 0.37316 0.8141 0.35953 0.0
C1354 C 0.39491 0.77997 0.37319 0.0
C1355 C 0.37717 0.7648 0.34804 0.0
C1356 C 0.3581 0.77442 0.32596 0.0
C1357 C 0.35612 0.79906 0.33284 0.0
C1358 C 0.41514 0.77048 0.39867 0.0
C1359 C 0.33915 0.75877 0.29782 0.0
H1360 H 0.3964 0.68467 0.29015 0.0
H1361 H 0.35964 0.70524 0.4351 0.0
H1362 H 0.38757 0.73871 0.24714 0.0
H1363 H 0.41489 0.73835 0.27872 0.0
H1364 H 0.40417 0.71168 0.23659 0.0
H1365 H 0.34648 0.74361 0.46805 0.0
H1366 H 0.3665 0.76551 0.45539 0.0
H1367 H 0.34021 0.76015 0.41897 0.0
H1368 H 0.40582 0.81626 0.39933 0.0
H1369 H 0.34089 0.80664 0.31878 0.0
H1370 H 0.42324 0.75543 0.371 0.0
H1371 H 0.40897 0.76374 0.43278 0.0
H1372 H 0.42846 0.78422 0.41242 0.0
H1373 H 0.34663 0.74476 0.26645 0.0
H1374 H 0.32621 0.76887 0.28023 0.0
H1375 H 0.33015 0.7498 0.32546 0.0
C1376 C 0.55931 0.14471 0.56879 0.0
C1377 C 0.56978 0.13391 0.60555 0.0
C1378 C 0.53516 0.14423 0.56288 0.0
C1379 C 0.52149 0.13217 0.59361 0.0
C1380 C 0.53232 0.11992 0.62829 0.0
C1381 C 0.55634 0.12129 0.63449 0.0
C1382 C 0.52422 0.15779 0.5262 0.0
C1383 C 0.51846 0.10617 0.66043 0.0
C1384 C 0.46183 0.15406 0.63866 0.0
C1385 C 0.44751 0.13756 0.60628 0.0
C1386 C 0.48585 0.15301 0.63327 0.0
C1387 C 0.49593 0.13479 0.59493 0.0
C1388 C 0.48157 0.1184 0.56112 0.0
C1389 C 0.45741 0.12015 0.56681 0.0
C1390 C 0.50046 0.1709 0.67011 0.0
C1391 C 0.4917 0.09863 0.52004 0.0
H1392 H 0.56987 0.15448 0.54665 0.0
H1393 H 0.56465 0.11273 0.66253 0.0
H1394 H 0.51118 0.14674 0.50111 0.0
H1395 H 0.51512 0.1735 0.5493 0.0
H1396 H 0.5372 0.16388 0.50083 0.0
H1397 H 0.52964 0.09571 0.68142 0.0
H1398 H 0.50795 0.11853 0.68967 0.0
H1399 H 0.50635 0.09396 0.63497 0.0
H1400 H 0.45423 0.16762 0.66916 0.0
H1401 H 0.44637 0.10727 0.54207 0.0
H1402 H 0.51296 0.17929 0.64771 0.0
H1403 H 0.51055 0.16189 0.69605 0.0
H1404 H 0.48988 0.185 0.69497 0.0
H1405 H 0.49975 0.10611 0.48883 0.0
H1406 H 0.47842 0.08555 0.50194 0.0
H1407 H 0.50545 0.08929 0.5371 0.0
C1408 C 0.86353 0.20736 0.88822 0.0
C1409 C 0.87918 0.19145 0.85853 0.0
C1410 C 0.8634 0.23132 0.88597 0.0
C1411 C 0.87975 0.23972 0.85418 0.0
C1412 C 0.89555 0.22362 0.82385 0.0
C1413 C 0.89493 0.19954 0.82602 0.0
C1414 C 0.84601 0.2477 0.91835 0.0
C1415 C 0.91361 0.23196 0.79061 0.0
C1416 C 0.86333 0.29893 0.82427 0.0
C1417 C 0.8753 0.31471 0.86333 0.0
C1418 C 0.86585 0.27434 0.81856 0.0
C1419 C 0.88023 0.26544 0.85362 0.0
C1420 C 0.89302 0.28145 0.89193 0.0
C1421 C 0.8905 0.30593 0.89608 0.0
C1422 C 0.8521 0.25789 0.77696 0.0
C1423 C 0.90822 0.27284 0.93074 0.0
H1424 H 0.8515 0.20104 0.91382 0.0
H1425 H 0.90737 0.18726 0.80416 0.0
H1426 H 0.85507 0.26178 0.94676 0.0
H1427 H 0.83548 0.2565 0.89275 0.0
H1428 H 0.83419 0.23825 0.94023 0.0
H1429 H 0.92346 0.21703 0.7665 0.0
H1430 H 0.90545 0.24227 0.7644 0.0
H1431 H 0.92591 0.24389 0.81615 0.0
H1432 H 0.85147 0.30583 0.79925 0.0
H1433 H 0.8995 0.31825 0.92674 0.0
H1434 H 0.83842 0.24918 0.79567 0.0
H1435 H 0.86337 0.24374 0.75462 0.0
H1436 H 0.84381 0.26736 0.74923 0.0
H1437 H 0.89724 0.26591 0.9587 0.0
H1438 H 0.91927 0.28717 0.95331 0.0
H1439 H 0.91944 0.25814 0.91057 0.0
C1440 C 0.62674 0.80311 0.34136 0.0
C1441 C 0.64484 0.81421 0.37291 0.0
C1442 C 0.62484 0.77822 0.32947 0.0
C1443 C 0.64145 0.76448 0.34949 0.0
C1444 C 0.66086 0.77572 0.37693 0.0
C1445 C 0.6622 0.8004 0.3885 0.0
C1446 C 0.60418 0.76673 0.29919 0.0
C1447 C 0.67926 0.76183 0.39806 0.0
C1448 C 0.62383 0.71044 0.39899 0.0
C1449 C 0.63348 0.69198 0.36146 0.0
C1450 C 0.62528 0.73394 0.3938 0.0
C1451 C 0.63687 0.73925 0.35019 0.0
C1452 C 0.64609 0.72063 0.31131 0.0
C1453 C 0.6441 0.69714 0.31718 0.0
C1454 C 0.61529 0.75321 0.43642 0.0
C1455 C 0.65851 0.72548 0.26417 0.0
H1456 H 0.61332 0.81381 0.32922 0.0
H1457 H 0.6764 0.80902 0.41223 0.0
H1458 H 0.60943 0.75064 0.27015 0.0
H1459 H 0.5918 0.76116 0.32647 0.0
H1460 H 0.59519 0.77899 0.27861 0.0
H1461 H 0.69436 0.77298 0.41375 0.0
H1462 H 0.67191 0.75431 0.43 0.0
H1463 H 0.68534 0.74685 0.36704 0.0
H1464 H 0.61549 0.7066 0.43321 0.0
H1465 H 0.65166 0.68294 0.28813 0.0
H1466 H 0.60345 0.76455 0.41932 0.0
H1467 H 0.62939 0.76467 0.45648 0.0
H1468 H 0.60564 0.74601 0.46612 0.0
H1469 H 0.64583 0.73147 0.23808 0.0
H1470 H 0.66747 0.70953 0.2416 0.0
H1471 H 0.67138 0.73984 0.27593 0.0
C1472 C 0.87571 0.71897 0.20595 0.0
C1473 C 0.87658 0.70384 0.15644 0.0
C1474 C 0.87865 0.74356 0.21164 0.0
C1475 C 0.88252 0.75295 0.16674 0.0
C1476 C 0.88453 0.73743 0.11709 0.0
C1477 C 0.88149 0.71309 0.11261 0.0
C1478 C 0.87635 0.75952 0.26519 0.0
C1479 C 0.8888 0.7466 0.06822 0.0
C1480 C 0.86235 0.81468 0.16124 0.0
C1481 C 0.88326 0.82695 0.16465 0.0
C1482 C 0.86178 0.79078 0.16394 0.0
C1483 C 0.88268 0.77899 0.1704 0.0
C1484 C 0.90378 0.79169 0.17565 0.0
C1485 C 0.90385 0.81556 0.17217 0.0
C1486 C 0.83892 0.77791 0.15773 0.0
C1487 C 0.92631 0.7799 0.18369 0.0
H1488 H 0.8718 0.71173 0.23976 0.0
H1489 H 0.88223 0.70125 0.07438 0.0
H1490 H 0.88964 0.77365 0.27139 0.0
H1491 H 0.8592 0.76825 0.26858 0.0
H1492 H 0.87789 0.74953 0.2967 0.0
H1493 H 0.89111 0.73208 0.03311 0.0
H1494 H 0.87399 0.75769 0.06125 0.0
H1495 H 0.90442 0.75794 0.07308 0.0
H1496 H 0.84652 0.82359 0.15461 0.0
H1497 H 0.91999 0.82521 0.17436 0.0
H1498 H 0.83604 0.76931 0.19106 0.0
H1499 H 0.83915 0.76375 0.12159 0.0
H1500 H 0.82417 0.78992 0.15546 0.0
H1501 H 0.92521 0.77245 0.21917 0.0
H1502 H 0.94113 0.79235 0.18806 0.0
H1503 H 0.92972 0.76497 0.15009 0.0
C1504 C 0.66095 0.21774 0.63549 0.0
C1505 C 0.64348 0.20396 0.65075 0.0
C1506 C 0.6593 0.24242 0.64543 0.0
C1507 C 0.63948 0.25371 0.67093 0.0
C1508 C 0.62243 0.24003 0.68967 0.0
C1509 C 0.62467 0.21516 0.67954 0.0
C1510 C 0.67798 0.25618 0.62491 0.0
C1511 C 0.60099 0.25145 0.71666 0.0
C1512 C 0.64306 0.32103 0.70669 0.0
C1513 C 0.63366 0.32686 0.66188 0.0
C1514 C 0.64413 0.29733 0.7116 0.0
C1515 C 0.63543 0.27915 0.67091 0.0
C1516 C 0.625 0.28514 0.62669 0.0
C1517 C 0.62433 0.30884 0.62266 0.0
C1518 C 0.65547 0.29167 0.75919 0.0
C1519 C 0.6155 0.2664 0.58228 0.0
H1520 H 0.67555 0.20906 0.61337 0.0
H1521 H 0.61102 0.2045 0.69086 0.0
H1522 H 0.67104 0.26346 0.59223 0.0
H1523 H 0.68372 0.27133 0.65589 0.0
H1524 H 0.69323 0.24503 0.61043 0.0
H1525 H 0.59165 0.23943 0.73723 0.0
H1526 H 0.60534 0.26802 0.7452 0.0
H1527 H 0.5892 0.2562 0.68718 0.0
H1528 H 0.65037 0.33486 0.73703 0.0
H1529 H 0.61685 0.31316 0.58799 0.0
H1530 H 0.6719 0.2821 0.74768 0.0
H1531 H 0.64422 0.27987 0.77642 0.0
H1532 H 0.65927 0.30785 0.78952 0.0
H1533 H 0.62986 0.25534 0.56219 0.0
H1534 H 0.60614 0.27414 0.55297 0.0
H1535 H 0.60354 0.25455 0.59748 0.0
C1536 C 0.96299 0.36746 0.87517 0.0
C1537 C 0.94836 0.38112 0.91263 0.0
C1538 C 0.98699 0.36858 0.88091 0.0
C1539 C 0.99674 0.38377 0.9253 0.0
C1540 C 0.98212 0.3973 0.96391 0.0
C1541 C 0.958 0.39579 0.95714 0.0
C1542 C 1.00191 0.35386 0.83869 0.0
C1543 C 0.9919 0.41405 1.0112 0.0
C1544 C 0.05928 0.36924 0.94818 0.0
C1545 C 0.07067 0.3839 0.92061 0.0
C1546 C 0.03509 0.36997 0.95276 0.0
C1547 C 0.02229 0.38586 0.92955 0.0
C1548 C 0.03403 0.40167 0.90432 0.0
C1549 C 0.05812 0.40027 0.8996 0.0
C1550 C 0.02314 0.35279 0.97967 0.0
C1551 C 0.02109 0.41907 0.87961 0.0
H1552 H 0.9557 0.35603 0.84061 0.0
H1553 H 0.94679 0.40663 0.98581 0.0
H1554 H 0.0127 0.3656 0.82026 0.0
H1555 H 0.01379 0.3426 0.85592 0.0
H1556 H 0.99154 0.34228 0.80764 0.0
H1557 H 0.97852 0.42018 0.04149 0.0
H1558 H 1.00614 0.40558 0.02874 0.0
H1559 H 0.99917 0.42976 0.99914 0.0
H1560 H 0.06915 0.35647 0.96385 0.0
H1561 H 0.06713 0.41153 0.87808 0.0
H1562 H 0.0134 0.33965 0.95041 0.0
H1563 H 0.0105 0.36224 1.00865 0.0
H1564 H 0.03555 0.34319 0.99986 0.0
H1565 H 0.01198 0.40941 0.84407 0.0
H1566 H 0.0328 0.43227 0.86825 0.0
H1567 H 1.00783 0.42857 0.90684 0.0
C1568 C 0.46217 0.60716 0.35207 0.0
C1569 C 0.44694 0.61902 0.39067 0.0
C1570 C 0.48609 0.61062 0.35643 0.0
C1571 C 0.49536 0.62595 0.40129 0.0
C1572 C 0.48011 0.63822 0.44039 0.0
C1573 C 0.45598 0.63487 0.43427 0.0
C1574 C 0.50145 0.59758 0.31294 0.0
C1575 C 0.48932 0.65465 0.48878 0.0
C1576 C 0.55832 0.61115 0.4212 0.0
C1577 C 0.5697 0.62667 0.3956 0.0
C1578 C 0.53412 0.6119 0.42699 0.0
C1579 C 0.52105 0.62858 0.40666 0.0
C1580 C 0.53277 0.64538 0.38411 0.0
C1581 C 0.55693 0.64404 0.37839 0.0
C1582 C 0.5224 0.59351 0.4508 0.0
C1583 C 0.51972 0.66336 0.36151 0.0
H1584 H 0.45533 0.59517 0.31776 0.0
H1585 H 0.44428 0.64415 0.46407 0.0
H1586 H 0.51266 0.61027 0.29837 0.0
H1587 H 0.5129 0.58522 0.32796 0.0
H1588 H 0.49141 0.58729 0.27947 0.0
H1589 H 0.47542 0.66163 0.51715 0.0
H1590 H 0.50223 0.6453 0.50824 0.0
H1591 H 0.49829 0.66977 0.4778 0.0
H1592 H 0.56813 0.59726 0.43308 0.0
H1593 H 0.5657 0.65565 0.35736 0.0
H1594 H 0.51369 0.58037 0.41959 0.0
H1595 H 0.50895 0.60181 0.47905 0.0
H1596 H 0.53486 0.58399 0.47105 0.0
H1597 H 0.51181 0.65445 0.32377 0.0
H1598 H 0.53121 0.67766 0.35429 0.0
H1599 H 0.50555 0.6714 0.38793 0.0
C1600 C 0.45898 0.41142 0.60861 0.0
C1601 C 0.44748 0.39472 0.63061 0.0
C1602 C 0.48318 0.41087 0.60342 0.0
C1603 C 0.49606 0.39321 0.62076 0.0
C1604 C 0.48425 0.37544 0.63994 0.0
C1605 C 0.46009 0.37654 0.64499 0.0
C1606 C 0.49506 0.43033 0.58345 0.0
C1607 C 0.49721 0.35655 0.65973 0.0
C1608 C 0.56096 0.38695 0.59323 0.0
C1609 C 0.57 0.40143 0.63871 0.0
C1610 C 0.53685 0.3841 0.58646 0.0
C1611 C 0.52167 0.3955 0.62664 0.0
C1612 C 0.53092 0.40946 0.67325 0.0
C1613 C 0.55485 0.41242 0.67838 0.0
C1614 C 0.52756 0.36932 0.53608 0.0
C1615 C 0.51558 0.42157 0.71777 0.0
H1616 H 0.44923 0.4259 0.59905 0.0
H1617 H 0.45118 0.36404 0.6634 0.0
H1618 H 0.5043 0.44216 0.61608 0.0
H1619 H 0.50814 0.42277 0.55351 0.0
H1620 H 0.48266 0.44115 0.56627 0.0
H1621 H 0.4856 0.34215 0.66596 0.0
H1622 H 0.51103 0.34877 0.63198 0.0
H1623 H 0.50561 0.36456 0.69751 0.0
H1624 H 0.57266 0.37846 0.56255 0.0
H1625 H 0.56173 0.42338 0.71402 0.0
H1626 H 0.51662 0.38045 0.5163 0.0
H1627 H 0.51643 0.35499 0.54433 0.0
H1628 H 0.54156 0.36131 0.50896 0.0
H1629 H 0.50472 0.43503 0.70497 0.0
H1630 H 0.52564 0.43047 0.75264 0.0
H1631 H 0.50379 0.40856 0.72948 0.0
C1632 C 0.05976 0.64977 0.07656 0.0
C1633 C 0.07096 0.63361 0.10055 0.0
C1634 C 0.03558 0.64951 0.07184 0.0
C1635 C 0.02255 0.63267 0.09158 0.0
C1636 C 0.03408 0.61548 0.11322 0.0
C1637 C 0.05819 0.61632 0.11793 0.0
C1638 C 0.02391 0.66814 0.04871 0.0
C1639 C 0.02086 0.59699 0.13389 0.0
C1640 C 0.96353 0.6499 0.14924 0.0
C1641 C 0.94866 0.63741 0.1106 0.0
C1642 C 0.9875 0.64889 0.14275 0.0
C1643 C 0.99701 0.63497 0.09643 0.0
C1644 C 0.98216 0.62262 0.05672 0.0
C1645 C 0.95807 0.62412 0.06413 0.0
C1646 C 1.00267 0.66225 0.18628 0.0
C1647 C 0.99166 0.60768 1.00672 0.0
H1648 H 0.06981 0.66324 0.06376 0.0
H1649 H 0.06706 0.60392 0.13673 0.0
H1650 H 0.01076 0.65995 0.01956 0.0
H1651 H 0.01482 0.68086 0.08006 0.0
H1652 H 0.03643 0.67807 0.02963 0.0
H1653 H 0.03245 0.58368 0.14524 0.0
H1654 H 0.01064 0.60563 0.16864 0.0
H1655 H 1.0085 0.58772 0.10397 0.0
H1656 H 0.95646 0.6603 0.18528 0.0
H1657 H 0.94668 0.61439 0.03421 0.0
H1658 H 0.01459 0.67412 0.171 0.0
H1659 H 0.01341 0.64962 0.20224 0.0
H1660 H 0.99249 0.67306 0.21883 0.0
H1661 H 0.99898 0.61939 0.98252 0.0
H1662 H 0.97815 0.59641 0.98354 0.0
H1663 H 1.00584 0.59615 0.01505 0.0
C1664 C 0.12424 0.56155 0.04873 0.0
C1665 C 0.13703 0.56606 0.09514 0.0
C1666 C 0.12521 0.53931 0.01398 0.0
C1667 C 0.13846 0.52088 0.02725 0.0
C1668 C 0.15142 0.5255 0.07432 0.0
C1669 C 0.15085 0.54819 0.10726 0.0
C1670 C 0.11183 0.53547 0.96339 0.0
C1671 C 0.16543 0.50633 0.09053 0.0
C1672 C 0.11875 0.45841 0.96394 0.0
C1673 C 0.13572 0.45125 0.92582 0.0
C1674 C 0.11993 0.4807 0.99842 0.0
C1675 C 0.13796 0.49657 0.993 0.0
C1676 C 0.15511 0.48931 0.95421 0.0
C1677 C 0.15404 0.46651 0.92183 0.0
C1678 C 0.10191 0.48727 0.0407 0.0
C1679 C 0.17403 0.50592 0.94541 0.0
H1680 H 0.11352 0.57544 0.03954 0.0
H1681 H 0.16072 0.55182 0.14329 0.0
H1682 H 0.12306 0.52724 0.93006 0.0
H1683 H 0.09729 0.52316 0.96461 0.0
H1684 H 0.10473 0.55225 0.95596 0.0
H1685 H 0.17378 0.51255 0.12925 0.0
H1686 H 0.15418 0.49101 0.09226 0.0
H1687 H 0.17906 0.49993 0.06113 0.0
H1688 H 0.10477 0.44638 0.96735 0.0
H1689 H 0.16712 0.46087 0.89212 0.0
H1690 H 0.09148 0.50237 0.0339 0.0
H1691 H 0.1104 0.49302 0.07937 0.0
H1692 H 0.0901 0.47234 0.04221 0.0
H1693 H 0.16634 0.52063 0.9302 0.0
H1694 H 0.18715 0.49692 0.91699 0.0
H1695 H 0.18282 0.51387 0.98268 0.0
C1696 C 0.7129 0.88803 0.27074 0.0
C1697 C 0.71143 0.89075 0.32536 0.0
C1698 C 0.73398 0.88906 0.24543 0.0
C1699 C 0.75457 0.8928 0.27501 0.0
C1700 C 0.75342 0.89594 0.33025 0.0
C1701 C 0.73182 0.89495 0.35491 0.0
C1702 C 0.73414 0.88572 0.18657 0.0
C1703 C 0.77504 0.90014 0.36307 0.0
C1704 C 0.80658 0.86956 0.19111 0.0
C1705 C 0.81515 0.89013 0.17806 0.0
C1706 C 0.78792 0.87046 0.22574 0.0
C1707 C 0.7771 0.8924 0.24691 0.0
C1708 C 0.78609 0.91335 0.2349 0.0
C1709 C 0.80522 0.912 0.20117 0.0
C1710 C 0.77917 0.84772 0.23792 0.0
C1711 C 0.77463 0.93699 0.25502 0.0
H1712 H 0.69744 0.8849 0.24694 0.0
H1713 H 0.73093 0.89722 0.39701 0.0
H1714 H 0.74346 0.9005 0.17501 0.0
H1715 H 0.74338 0.86913 0.16881 0.0
H1716 H 0.71645 0.88473 0.16978 0.0
H1717 H 0.77145 0.9012 0.40515 0.0
H1718 H 0.78766 0.88572 0.34918 0.0
H1719 H 0.78331 0.91689 0.35887 0.0
H1720 H 0.81439 0.85266 0.17392 0.0
H1721 H 0.81187 0.92797 0.19131 0.0
H1722 H 0.76209 0.84326 0.21919 0.0
H1723 H 0.77679 0.84983 0.28069 0.0
H1724 H 0.79111 0.83267 0.22367 0.0
H1725 H 0.75782 0.93739 0.23487 0.0
H1726 H 0.78537 0.9519 0.24814 0.0
H1727 H 0.771 0.93972 0.29745 0.0
C1728 C 0.35542 0.47091 0.56926 0.0
C1729 C 0.37558 0.46666 0.59535 0.0
C1730 C 0.35478 0.48817 0.53906 0.0
C1731 C 0.37496 0.50128 0.53394 0.0
C1732 C 0.39525 0.49744 0.56139 0.0
C1733 C 0.39533 0.48012 0.59174 0.0
C1734 C 0.33269 0.49181 0.5112 0.0
C1735 C 0.41709 0.51114 0.55744 0.0
C1736 C 0.38011 0.53219 0.41886 0.0
C1737 C 0.37507 0.5556 0.44356 0.0
C1738 C 0.37998 0.51414 0.4476 0.0
C1739 C 0.3745 0.51973 0.50186 0.0
C1740 C 0.36857 0.54321 0.52603 0.0
C1741 C 0.36889 0.56069 0.49671 0.0
C1742 C 0.38634 0.48924 0.42044 0.0
C1743 C 0.36221 0.55009 0.58327 0.0
H1744 H 0.34038 0.45991 0.57067 0.0
H1745 H 0.41115 0.47624 0.61037 0.0
H1746 H 0.32773 0.51077 0.5207 0.0
H1747 H 0.33538 0.48667 0.46832 0.0
H1748 H 0.31816 0.48125 0.52176 0.0
H1749 H 0.43165 0.50543 0.57939 0.0
H1750 H 0.4222 0.5089 0.51585 0.0
H1751 H 0.414 0.53029 0.57298 0.0
H1752 H 0.38502 0.52818 0.37798 0.0
H1753 H 0.36461 0.57871 0.516 0.0
H1754 H 0.37217 0.47691 0.42464 0.0
H1755 H 0.4019 0.48351 0.4391 0.0
H1756 H 0.38989 0.48765 0.37817 0.0
H1757 H 0.34683 0.53994 0.59087 0.0
H1758 H 0.35837 0.56927 0.59627 0.0
H1759 H 0.37653 0.54563 0.60755 0.0
C1760 C 0.81568 0.12822 0.79843 0.0
C1761 C 0.81397 0.12611 0.85046 0.0
C1762 C 0.79604 0.1269 0.76632 0.0
C1763 C 0.77389 0.12466 0.78753 0.0
C1764 C 0.77195 0.12351 0.84089 0.0
C1765 C 0.79204 0.124 0.87155 0.0
C1766 C 0.79917 0.1281 0.70977 0.0
C1767 C 0.74861 0.12258 0.86597 0.0
C1768 C 0.72332 0.14888 0.72239 0.0
C1769 C 0.71277 0.12821 0.69472 0.0
C1770 C 0.74331 0.14791 0.75217 0.0
C1771 C 0.75276 0.12567 0.75517 0.0
C1772 C 0.74239 0.1047 0.72616 0.0
C1773 C 0.72243 0.10622 0.69627 0.0
C1774 C 0.7542 0.17072 0.78097 0.0
C1775 C 0.75219 0.0807 0.72728 0.0
H1776 H 0.83224 0.13209 0.78336 0.0
H1777 H 0.79058 0.12326 0.9124 0.0
H1778 H 0.78435 0.13644 0.69402 0.0
H1779 H 0.81498 0.13814 0.70441 0.0
H1780 H 0.80079 0.1098 0.68603 0.0
H1781 H 0.74998 0.12218 0.90803 0.0
H1782 H 0.73824 0.13826 0.86231 0.0
H1783 H 0.73904 0.10667 0.84541 0.0
H1784 H 0.71547 0.16584 0.72195 0.0
H1785 H 0.71382 0.09023 0.67592 0.0
H1786 H 0.77228 0.17178 0.76762 0.0
H1787 H 0.75475 0.17116 0.82349 0.0
H1788 H 0.74469 0.18654 0.77479 0.0
H1789 H 0.77003 0.07934 0.71146 0.0
H1790 H 0.74167 0.06608 0.70405 0.0
H1791 H 0.7532 0.07842 0.76816 0.0
C1792 C 0.87018 0.56221 0.05223 0.0
C1793 C 0.88083 0.56561 0.10135 0.0
C1794 C 0.87112 0.5402 0.01665 0.0
C1795 C 0.88132 0.52058 0.03215 0.0
C1796 C 0.89114 0.5237 0.08276 0.0
C1797 C 0.89141 0.54633 0.11608 0.0
C1798 C 0.8614 0.53803 0.96233 0.0
C1799 C 0.90132 0.50313 0.10183 0.0
C1800 C 0.86244 0.45934 0.95775 0.0
C1801 C 0.8813 0.45227 0.92439 0.0
C1802 C 0.86231 0.48141 0.99329 0.0
C1803 C 0.8815 0.49679 0.99562 0.0
C1804 C 0.9007 0.48955 0.96245 0.0
C1805 C 0.90035 0.46742 0.92726 0.0
C1806 C 0.84162 0.48829 0.02833 0.0
C1807 C 0.92142 0.50542 0.96312 0.0
H1808 H 0.86145 0.57686 0.04116 0.0
H1809 H 0.89941 0.54882 0.15428 0.0
H1810 H 0.8743 0.52973 0.93262 0.0
H1811 H 0.84598 0.52641 0.95715 0.0
H1812 H 0.85639 0.55546 0.95455 0.0
H1813 H 0.90652 0.50812 0.14359 0.0
H1814 H 0.88861 0.48848 0.09699 0.0
H1815 H 0.91671 0.49631 0.07811 0.0
H1816 H 0.84772 0.44763 0.956 0.0
H1817 H 0.91503 0.46198 0.90182 0.0
H1818 H 0.83326 0.50418 0.01943 0.0
H1819 H 0.84717 0.49295 0.06984 0.0
H1820 H 0.82859 0.47391 0.02362 0.0
H1821 H 0.91633 0.52116 0.94808 0.0
H1822 H 0.93581 0.4963 0.93875 0.0
H1823 H 0.9278 0.51185 1.00361 0.0
C1824 C 0.21605 0.10849 0.83791 0.0
C1825 C 0.19981 0.12676 0.84305 0.0
C1826 C 0.23559 0.10798 0.80561 0.0
C1827 C 0.23841 0.12564 0.77617 0.0
C1828 C 0.22111 0.14318 0.77871 0.0
C1829 C 0.2023 0.14384 0.81299 0.0
C1830 C 0.25394 0.08949 0.80575 0.0
C1831 C 0.22296 0.16183 0.74673 0.0
C1832 C 0.29957 0.14395 0.75062 0.0
C1833 C 0.3037 0.13167 0.69899 0.0
C1834 C 0.27853 0.14208 0.77569 0.0
C1835 C 0.26073 0.12772 0.74856 0.0
C1836 C 0.26446 0.11564 0.69593 0.0
C1837 C 0.28596 0.1177 0.67173 0.0
C1838 C 0.27557 0.15522 0.83181 0.0
C1839 C 0.24594 0.10018 0.66558 0.0
H1840 H 0.21414 0.09535 0.86139 0.0
H1841 H 0.18956 0.15783 0.81656 0.0
H1842 H 0.25913 0.08107 0.76525 0.0
H1843 H 0.26954 0.09806 0.82614 0.0
H1844 H 0.24808 0.07552 0.82583 0.0
H1845 H 0.207 0.17267 0.74894 0.0
H1846 H 0.23769 0.17375 0.76091 0.0
H1847 H 0.22639 0.15341 0.70518 0.0
H1848 H 0.31303 0.15494 0.77218 0.0
H1849 H 0.28901 0.10801 0.63203 0.0
H1850 H 0.27169 0.14253 0.8568 0.0
H1851 H 0.26078 0.16763 0.83506 0.0
H1852 H 0.29121 0.16548 0.84746 0.0
H1853 H 0.24352 0.08427 0.68207 0.0
H1854 H 0.2504 0.09431 0.62352 0.0
H1855 H 0.2292 0.10972 0.66908 0.0
C1856 C 0.66054 0.55228 0.46999 0.0
C1857 C 0.64223 0.55358 0.43564 0.0
C1858 C 0.66066 0.53564 0.50167 0.0
C1859 C 0.64189 0.51983 0.49942 0.0
C1860 C 0.62355 0.52063 0.46375 0.0
C1861 C 0.62391 0.53756 0.43226 0.0
C1862 C 0.6807 0.53532 0.53838 0.0
C1863 C 0.60315 0.50417 0.46027 0.0
C1864 C 0.65309 0.46212 0.54137 0.0
C1865 C 0.64325 0.46609 0.59152 0.0
C1866 C 0.65268 0.47937 0.51142 0.0
C1867 C 0.64233 0.50153 0.53199 0.0
C1868 C 0.63306 0.50612 0.58354 0.0
C1869 C 0.63364 0.48828 0.61288 0.0
C1870 C 0.66285 0.47355 0.45702 0.0
C1871 C 0.62212 0.52965 0.60718 0.0
H1872 H 0.67444 0.56509 0.47362 0.0
H1873 H 0.60934 0.53911 0.40724 0.0
H1874 H 0.6744 0.53831 0.57924 0.0
H1875 H 0.68919 0.51773 0.52919 0.0
H1876 H 0.69382 0.54903 0.53592 0.0
H1877 H 0.59066 0.5065 0.42961 0.0
H1878 H 0.60909 0.48552 0.45169 0.0
H1879 H 0.59409 0.50746 0.49847 0.0
H1880 H 0.66049 0.44494 0.52455 0.0
H1881 H 0.62568 0.4913 0.65118 0.0
H1882 H 0.67663 0.48642 0.45359 0.0
H1883 H 0.64934 0.47498 0.42785 0.0
H1884 H 0.67027 0.45544 0.44684 0.0
H1885 H 0.63554 0.54365 0.61379 0.0
H1886 H 0.61355 0.52962 0.64507 0.0
H1887 H 0.60919 0.53439 0.57993 0.0
C1888 C 0.28783 0.87109 0.32286 0.0
C1889 C 0.30306 0.8902 0.3353 0.0
C1890 C 0.26736 0.87279 0.29503 0.0
C1891 C 0.26259 0.8938 0.27741 0.0
C1892 C 0.27796 0.91326 0.29069 0.0
C1893 C 0.29784 0.9113 0.32019 0.0
C1894 C 0.2514 0.85171 0.28288 0.0
C1895 C 0.27417 0.93573 0.27149 0.0
C1896 C 0.22369 0.88284 0.15735 0.0
C1897 C 0.20327 0.89436 0.17719 0.0
C1898 C 0.24362 0.8841 0.18853 0.0
C1899 C 0.24237 0.89485 0.24251 0.0
C1900 C 0.22176 0.9065 0.26274 0.0
C1901 C 0.20318 0.90767 0.22872 0.0
C1902 C 0.26591 0.87389 0.16344 0.0
C1903 C 0.2187 0.91628 0.32066 0.0
H1904 H 0.29228 0.85457 0.3335 0.0
H1905 H 0.31006 0.92582 0.32888 0.0
H1906 H 0.23304 0.85737 0.28623 0.0
H1907 H 0.25438 0.84178 0.24224 0.0
H1908 H 0.2545 0.83943 0.30932 0.0
H1909 H 0.28967 0.94731 0.27732 0.0
H1910 H 0.26964 0.9316 0.22933 0.0
H1911 H 0.25962 0.94586 0.29301 0.0
H1912 H 0.22428 0.87329 0.1169 0.0
H1913 H 0.18844 0.91845 0.24306 0.0
H1914 H 0.26909 0.85637 0.17257 0.0
H1915 H 0.28072 0.88553 0.17865 0.0
H1916 H 0.26535 0.87152 0.12024 0.0
H1917 H 0.21898 0.90141 0.34117 0.0
H1918 H 0.20214 0.92597 0.32979 0.0
H1919 H 0.23308 0.92824 0.33686 0.0
C1920 C 0.62334 0.97138 0.40934 0.0
C1921 C 0.63419 0.9522 0.42399 0.0
C1922 C 0.62409 0.9942 0.44185 0.0
C1923 C 0.63455 0.99766 0.49188 0.0
C1924 C 0.64517 0.97819 0.5072 0.0
C1925 C 0.64585 0.95605 0.472 0.0
C1926 C 0.61396 0.01467 0.42235 0.0
C1927 C 0.65533 0.98061 0.56118 0.0
C1928 C 0.653 0.05943 0.56472 0.0
C1929 C 0.63418 0.06647 0.59822 0.0
C1930 C 0.65332 0.03718 0.52976 0.0
C1931 C 0.63434 0.02156 0.52817 0.0
C1932 C 0.61523 0.02873 0.56167 0.0
C1933 C 0.61536 0.05108 0.5961 0.0
C1934 C 0.67397 0.03036 0.49456 0.0
C1935 C 0.59468 0.0127 0.56154 0.0
H1936 H 0.61479 0.96865 0.37171 0.0
H1937 H 0.65523 0.94167 0.48248 0.0
H1938 H 0.59972 0.02287 0.44834 0.0
H1939 H 0.62735 0.02847 0.42323 0.0
H1940 H 0.60722 1.00919 0.38184 0.0
H1941 H 0.66213 0.96357 0.56778 0.0
H1942 H 0.66951 0.99378 0.56735 0.0
H1943 H 0.64193 0.98719 0.59111 0.0
H1944 H 0.66758 0.07129 0.56601 0.0
H1945 H 0.60069 0.05649 0.62158 0.0
H1946 H 0.66834 0.0256 0.45313 0.0
H1947 H 0.68247 0.01454 0.50347 0.0
H1948 H 0.68692 0.04481 0.49904 0.0
H1949 H 0.58608 0.00939 0.52282 0.0
H1950 H 0.58179 0.02035 0.59191 0.0
H1951 H 0.60043 0.99533 0.56824 0.0
C1952 C 0.21417 0.39087 0.76963 0.0
C1953 C 0.21256 0.39077 0.8231 0.0
C1954 C 0.23545 0.3922 0.74536 0.0
C1955 C 0.25598 0.39338 0.77495 0.0
C1956 C 0.25465 0.39388 0.82926 0.0
C1957 C 0.23289 0.39265 0.85286 0.0
C1958 C 0.23586 0.39173 0.68747 0.0
C1959 C 0.27623 0.39534 0.86206 0.0
C1960 C 0.30705 0.36999 0.68853 0.0
C1961 C 0.31704 0.39085 0.68012 0.0
C1962 C 0.28814 0.37065 0.72231 0.0
C1963 C 0.27864 0.39273 0.74753 0.0
C1964 C 0.28914 0.41391 0.74048 0.0
C1965 C 0.30841 0.41272 0.70725 0.0
C1966 C 0.27769 0.34764 0.7291 0.0
C1967 C 0.27914 0.43778 0.76536 0.0
H1968 H 0.19868 0.3897 0.74597 0.0
H1969 H 0.23184 0.39277 0.8942 0.0
H1970 H 0.24636 0.4066 0.6797 0.0
H1971 H 0.24397 0.37506 0.66613 0.0
H1972 H 0.21828 0.39291 0.6712 0.0
H1973 H 0.27237 0.39505 0.90342 0.0
H1974 H 0.28789 0.38034 0.84568 0.0
H1975 H 0.28574 0.41185 0.86105 0.0
H1976 H 0.31389 0.35305 0.66818 0.0
H1977 H 0.31616 0.42889 0.7009 0.0
H1978 H 0.26048 0.34522 0.71004 0.0
H1979 H 0.27511 0.34798 0.77119 0.0
H1980 H 0.28863 0.33216 0.71174 0.0
H1981 H 0.26253 0.44022 0.74607 0.0
H1982 H 0.2909 0.45249 0.76176 0.0
H1983 H 0.27542 0.4389 0.80732 0.0
C1984 C 0.8979 0.9707 0.06735 0.0
C1985 C 0.87761 0.96429 0.0898 0.0
C1986 C 0.89761 0.98733 0.03557 0.0
C1987 C 0.87638 0.99748 0.02489 0.0
C1988 C 0.85578 0.9911 0.04772 0.0
C1989 C 0.85665 0.97461 0.08007 0.0
C1990 C 0.92005 0.99396 0.01323 0.0
C1991 C 0.83277 1.00133 0.03699 0.0
C1992 C 0.88007 0.0585 0.9961 0.0
C1993 C 0.87745 0.05441 0.94132 0.0
C1994 C 0.87927 0.04029 0.0231 0.0
C1995 C 0.87625 0.01679 0.99514 0.0
C1996 C 0.87396 0.0121 0.93972 0.0
C1997 C 0.8746 0.03102 0.91327 0.0
C1998 C 0.88173 0.04639 0.082 0.0
C1999 C 0.87095 0.98715 0.90852 0.0
H2000 H 0.91399 0.9621 0.07349 0.0
H2001 H 0.84081 0.96888 0.09556 0.0
H2002 H 0.91879 0.99095 0.97006 0.0
H2003 H 0.92355 0.01307 0.0283 0.0
H2004 H 0.93493 0.9837 0.02334 0.0
H2005 H 0.81833 0.99449 0.05735 0.0
H2006 H 0.83316 0.02089 0.04963 0.0
H2007 H 0.82928 0.997 0.99433 0.0
H2008 H 0.88273 0.07628 0.01891 0.0
H2009 H 0.87261 0.02754 0.87118 0.0
H2010 H 0.89718 0.0375 0.09378 0.0
H2011 H 0.86649 0.03994 0.1004 0.0
H2012 H 0.8834 0.06573 0.09798 0.0
H2013 H 0.88727 0.97719 0.90932 0.0
H2014 H 0.86638 0.98662 0.86712 0.0
H2015 H 0.85732 0.9779 0.92612 0.0
C2016 C 0.21879 0.64768 0.24338 0.0
C2017 C 0.21328 0.631 0.19772 0.0
C2018 C 0.23937 0.64616 0.2706 0.0
C2019 C 0.25483 0.62723 0.25218 0.0
C2020 C 0.24958 0.61053 0.20535 0.0
C2021 C 0.2289 0.61273 0.17831 0.0
C2022 C 0.24424 0.66451 0.31991 0.0
C2023 C 0.26533 0.58982 0.1851 0.0
C2024 C 0.31554 0.63733 0.30838 0.0
C2025 C 0.31477 0.62525 0.34916 0.0
C2026 C 0.29662 0.63695 0.27454 0.0
C2027 C 0.27615 0.62491 0.28291 0.0
C2028 C 0.27548 0.61242 0.32382 0.0
C2029 C 0.29495 0.6125 0.35604 0.0
C2030 C 0.29825 0.65006 0.23084 0.0
C2031 C 0.25383 0.59999 0.33538 0.0
H2032 H 0.20666 0.66179 0.25849 0.0
H2033 H 0.22442 0.59955 0.1436 0.0
H2034 H 0.24578 0.65588 0.3536 0.0
H2035 H 0.26093 0.6734 0.31621 0.0
H2036 H 0.2305 0.67819 0.32869 0.0
H2037 H 0.25967 0.57933 0.14646 0.0
H2038 H 0.28326 0.59605 0.18163 0.0
H2039 H 0.26566 0.57804 0.21327 0.0
H2040 H 0.33094 0.64721 0.30315 0.0
H2041 H 0.29435 0.60337 0.388 0.0
H2042 H 0.28594 0.66511 0.23804 0.0
H2043 H 0.29335 0.63822 0.19315 0.0
H2044 H 0.3159 0.657 0.22704 0.0
H2045 H 0.24066 0.61337 0.35253 0.0
H2046 H 0.25705 0.58846 0.36339 0.0
H2047 H 0.24643 0.5891 0.29894 0.0
C2048 C 0.39269 0.97049 0.41487 0.0
C2049 C 0.37828 0.95238 0.42385 0.0
C2050 C 0.39224 0.99312 0.44802 0.0
C2051 C 0.37747 0.99763 0.49218 0.0
C2052 C 0.36288 0.97934 0.50151 0.0
C2053 C 0.36323 0.95704 0.46684 0.0
C2054 C 0.40773 0.01218 0.43592 0.0
C2055 C 0.3471 0.98327 0.54845 0.0
C2056 C 0.39439 0.04822 0.60527 0.0
C2057 C 0.37892 0.06606 0.59948 0.0
C2058 C 0.39383 0.02582 0.57118 0.0
C2059 C 0.37778 0.02126 0.52936 0.0
C2060 C 0.36223 0.03933 0.523 0.0
C2061 C 0.3628 0.06142 0.55849 0.0
C2062 C 0.41039 1.00697 0.58013 0.0
C2063 C 0.34528 0.03547 0.47816 0.0
H2064 H 0.40428 0.967 0.3816 0.0
H2065 H 0.35198 0.94313 0.47392 0.0
H2066 H 0.39746 0.02821 0.43458 0.0
H2067 H 0.42077 0.01729 0.46734 0.0
H2068 H 0.41689 1.00636 0.39806 0.0
H2069 H 0.33755 0.96699 0.55143 0.0
H2070 H 0.35725 0.98939 0.5848 0.0
H2071 H 0.33439 0.99735 0.54617 0.0
H2072 H 0.40685 0.05172 0.6369 0.0
H2073 H 0.35084 0.07518 0.55367 0.0
H2074 H 0.42178 1.00143 0.54561 0.0
H2075 H 0.40063 0.99112 0.58501 0.0
H2076 H 0.42138 0.01313 0.61522 0.0
H2077 H 0.35482 0.03211 0.44056 0.0
H2078 H 0.33371 0.05092 0.47984 0.0
H2079 H 0.33452 0.01963 0.47818 0.0
C2080 C 0.7845 0.63647 0.17924 0.0
C2081 C 0.80426 0.62544 0.19341 0.0
C2082 C 0.76343 0.63575 0.20603 0.0
C2083 C 0.76216 0.62349 0.24737 0.0
C2084 C 0.78191 0.61132 0.25962 0.0
C2085 C 0.80268 0.61261 0.23281 0.0
C2086 C 0.74287 0.64907 0.19189 0.0
C2087 C 0.78146 0.59779 0.30274 0.0
C2088 C 0.71926 0.64458 0.35813 0.0
C2089 C 0.70227 0.62692 0.34843 0.0
C2090 C 0.73876 0.64359 0.32576 0.0
C2091 C 0.741 0.62497 0.28093 0.0
C2092 C 0.72376 0.60719 0.2704 0.0
C2093 C 0.70502 0.60795 0.30521 0.0
C2094 C 0.75719 0.66231 0.34022 0.0
C2095 C 0.72507 0.58746 0.22221 0.0
H2096 H 0.78582 0.64669 0.14931 0.0
H2097 H 0.81802 0.60409 0.24377 0.0
H2098 H 0.72734 0.63758 0.1864 0.0
H2099 H 0.73912 0.66442 0.22433 0.0
H2100 H 0.74586 0.65567 0.15571 0.0
H2101 H 0.79831 0.5893 0.30737 0.0
H2102 H 0.77692 0.60985 0.3404 0.0
H2103 H 0.76801 0.58385 0.29444 0.0
H2104 H 0.71755 0.65911 0.39185 0.0
H2105 H 0.69244 0.59378 0.29826 0.0
H2106 H 0.75955 0.67173 0.30803 0.0
H2107 H 0.77394 0.6539 0.34594 0.0
H2108 H 0.75296 0.67549 0.37659 0.0
H2109 H 0.72565 0.59501 0.18679 0.0
H2110 H 0.71009 0.57525 0.21889 0.0
H2111 H 0.74119 0.57715 0.22267 0.0
C2112 C 0.15931 0.05274 0.9735 0.0
C2113 C 0.14123 0.05405 0.93863 0.0
C2114 C 0.15921 0.03602 1.00498 0.0
C2115 C 0.1404 0.0202 1.00205 0.0
C2116 C 0.12224 0.02111 0.96602 0.0
C2117 C 0.12286 0.03807 0.93467 0.0
C2118 C 0.17914 0.03551 0.04188 0.0
C2119 C 0.10185 1.0046 0.96174 0.0
C2120 C 0.15178 0.96185 0.04048 0.0
C2121 C 0.14146 0.96494 0.09011 0.0
C2122 C 0.15139 0.97956 1.01184 0.0
C2123 C 0.14083 1.00147 0.03343 0.0
C2124 C 0.13129 1.00533 0.08467 0.0
C2125 C 0.13169 0.98694 0.11258 0.0
C2126 C 0.16185 0.97448 0.95768 0.0
C2127 C 0.12032 0.02869 0.10948 0.0
H2128 H 0.17327 0.0655 0.97745 0.0
H2129 H 0.10848 0.03961 0.90911 0.0
H2130 H 0.17269 0.03777 0.0825 0.0
H2131 H 0.18793 0.01809 0.03163 0.0
H2132 H 0.19206 0.04956 0.04073 0.0
H2133 H 0.08932 1.00729 0.93147 0.0
H2134 H 0.10781 0.98595 0.95207 0.0
H2135 H 0.09283 1.00743 0.99995 0.0
H2136 H 0.1597 0.94501 0.02295 0.0
H2137 H 0.12361 0.98945 0.15068 0.0
H2138 H 0.17569 0.98747 0.95554 0.0
H2139 H 0.14851 0.97636 0.92846 0.0
H2140 H 0.16927 0.95639 0.94645 0.0
H2141 H 0.13368 0.04275 0.11642 0.0
H2142 H 0.1119 0.02828 0.14735 0.0
H2143 H 0.10726 0.03364 0.08277 0.0
C2144 C 0.72434 0.38314 0.65189 0.0
C2145 C 0.70473 0.39642 0.67091 0.0
C2146 C 0.74443 0.38411 0.68254 0.0
C2147 C 0.74402 0.39645 0.73563 0.0
C2148 C 0.72413 0.40972 0.7551 0.0
C2149 C 0.70563 0.41109 0.72106 0.0
C2150 C 0.76588 0.37174 0.65768 0.0
C2151 C 0.72202 0.42169 0.81221 0.0
C2152 C 0.78811 0.37329 0.82046 0.0
C2153 C 0.80431 0.3916 0.82996 0.0
C2154 C 0.7679 0.37508 0.79175 0.0
C2155 C 0.76423 0.39538 0.77068 0.0
C2156 C 0.78052 0.41412 0.78122 0.0
C2157 C 0.80028 0.41201 0.81102 0.0
C2158 C 0.75094 0.35483 0.78245 0.0
C2159 C 0.77835 0.4355 0.75737 0.0
H2160 H 0.7242 0.37242 0.61243 0.0
H2161 H 0.69168 0.42319 0.73428 0.0
H2162 H 0.78184 0.38075 0.67513 0.0
H2163 H 0.7661 0.35331 0.66321 0.0
H2164 H 0.76613 0.37094 0.61494 0.0
H2165 H 0.70458 0.42938 0.82203 0.0
H2166 H 0.72553 0.40871 0.8368 0.0
H2167 H 0.73498 0.43601 0.82279 0.0
H2168 H 0.79165 0.35723 0.83397 0.0
H2169 H 0.81331 0.4258 0.81703 0.0
H2170 H 0.75265 0.34452 0.74171 0.0
H2171 H 0.73294 0.36153 0.78778 0.0
H2172 H 0.75403 0.34264 0.8091 0.0
H2173 H 0.78346 0.43043 0.71562 0.0
H2174 H 0.7897 0.4502 0.77723 0.0
H2175 H 0.76037 0.4421 0.75871 0.0
loop_
_geom_bond_atom_site_label_1
_geom_bond_atom_site_label_2
_geom_bond_distance
_geom_bond_site_symmetry_2
_ccdc_geom_bond_type
Sm0 C2 2.846 1_554 S
Sm0 O20 2.543 1_554 S
Sm0 O21 2.450 1_554 S
Sm0 O22 2.681 . S
Sm0 O23 2.464 . S
Sm0 O24 2.396 . S
Sm0 O28 2.386 . S
Sm0 O31 2.408 . S
Sm1 C11 2.846 . S
Sm1 O22 2.386 . S
Sm1 O25 2.408 . S
Sm1 O26 2.543 . S
Sm1 O27 2.450 . S
Sm1 O28 2.681 . S
Sm1 O29 2.464 . S
Sm1 O30 2.396 . S
C2 Sm0 2.846 1_556 S
C2 C3 1.506 . S
C2 O20 1.261 . S
C2 O21 1.242 . S
C3 C2 1.506 . S
C3 C4 1.358 . S
C3 C8 1.382 . S
C4 C3 1.358 . S
C4 C5 1.385 . S
C4 H32 0.930 . S
C5 C4 1.385 . S
C5 C6 1.395 . S
C5 H33 0.929 . S
C6 C5 1.395 . S
C6 C7 1.335 . S
C7 C6 1.335 . S
C7 C8 1.398 . S
C7 H34 0.930 . S
C8 C3 1.382 . S
C8 C7 1.398 . S
C8 H35 0.929 . S
C9 O22 1.271 . S
C9 O23 1.251 . S
C10 O24 1.252 . S
C10 O25 1.272 . S
C11 Sm1 2.846 . S
C11 C12 1.506 . S
C11 O26 1.261 . S
C11 O27 1.242 . S
C12 C11 1.506 . S
C12 C13 1.358 . S
C12 C17 1.382 . S
C13 C12 1.358 . S
C13 C14 1.385 . S
C13 H36 0.930 . S
C14 C13 1.385 . S
C14 C15 1.395 . S
C14 H37 0.929 . S
C15 C14 1.395 . S
C15 C16 1.335 . S
C16 C15 1.335 . S
C16 C17 1.398 . S
C16 H38 0.930 . S
C17 C12 1.382 . S
C17 C16 1.398 . S
C17 H39 0.929 . S
C18 O28 1.271 . S
C18 O29 1.251 . S
C19 O30 1.252 . S
C19 O31 1.272 . S
O20 Sm0 2.543 1_556 S
O20 C2 1.261 . S
O21 Sm0 2.450 1_556 S
O21 C2 1.242 . S
O22 Sm0 2.681 . S
O22 Sm1 2.386 . S
O22 C9 1.271 . S
O23 Sm0 2.464 . S
O23 C9 1.251 . S
O24 Sm0 2.396 . S
O24 C10 1.252 . S
O25 Sm1 2.408 . S
O25 C10 1.272 . S
O26 Sm1 2.543 . S
O26 C11 1.261 . S
O27 Sm1 2.450 . S
O27 C11 1.242 . S
O28 Sm0 2.386 . S
O28 Sm1 2.681 . S
O28 C18 1.271 . S
O29 Sm1 2.464 . S
O29 C18 1.251 . S
O30 Sm1 2.396 . S
O30 C19 1.252 . S
O31 Sm0 2.408 . S
O31 C19 1.272 . S
H32 C4 0.930 . S
H33 C5 0.929 . S
H34 C7 0.930 . S
H35 C8 0.929 . S
H36 C13 0.930 . S
H37 C14 0.929 . S
H38 C16 0.930 . S
H39 C17 0.929 . S
Sm40 C42 2.846 . S
Sm40 O60 2.543 . S
Sm40 O61 2.450 . S
Sm40 O62 2.681 . S
Sm40 O63 2.464 . S
Sm40 O64 2.396 . S
Sm40 O68 2.386 . S
Sm40 O71 2.408 . S
Sm41 C51 2.846 . S
Sm41 O62 2.386 . S
Sm41 O65 2.408 . S
Sm41 O66 2.543 . S
Sm41 O67 2.450 . S
Sm41 O68 2.681 . S
Sm41 O69 2.464 . S
Sm41 O70 2.396 . S
C42 Sm40 2.846 . S
C42 C43 1.506 . S
C42 O60 1.261 . S
C42 O61 1.242 . S
C43 C42 1.506 . S
C43 C44 1.358 . S
C43 C48 1.382 . S
C44 C43 1.358 . S
C44 C45 1.385 . S
C44 H72 0.930 . S
C45 C44 1.385 . S
C45 C46 1.395 . S
C45 H73 0.929 . S
C46 C45 1.395 . S
C46 C47 1.335 . S
C47 C46 1.335 . S
C47 C48 1.398 . S
C47 H74 0.930 . S
C48 C43 1.382 . S
C48 C47 1.398 . S
C48 H75 0.929 . S
C49 O62 1.271 . S
C49 O63 1.251 . S
C50 O64 1.252 . S
C50 O65 1.272 . S
C51 Sm41 2.846 . S
C51 C52 1.506 . S
C51 O66 1.261 . S
C51 O67 1.242 . S
C52 C51 1.506 . S
C52 C53 1.358 . S
C52 C57 1.382 . S
C53 C52 1.358 . S
C53 C54 1.385 . S
C53 H76 0.930 . S
C54 C53 1.385 . S
C54 C55 1.395 . S
C54 H77 0.929 . S
C55 C54 1.395 . S
C55 C56 1.335 . S
C56 C55 1.335 . S
C56 C57 1.398 . S
C56 H78 0.930 . S
C57 C52 1.382 . S
C57 C56 1.398 . S
C57 H79 0.929 . S
C58 O68 1.271 . S
C58 O69 1.251 . S
C59 O70 1.252 . S
C59 O71 1.272 . S
O60 Sm40 2.543 . S
O60 C42 1.261 . S
O61 Sm40 2.450 . S
O61 C42 1.242 . S
O62 Sm40 2.681 . S
O62 Sm41 2.386 . S
O62 C49 1.271 . S
O63 Sm40 2.464 . S
O63 C49 1.251 . S
O64 Sm40 2.396 . S
O64 C50 1.252 . S
O65 Sm41 2.408 . S
O65 C50 1.272 . S
O66 Sm41 2.543 . S
O66 C51 1.261 . S
O67 Sm41 2.450 . S
O67 C51 1.242 . S
O68 Sm40 2.386 . S
O68 Sm41 2.681 . S
O68 C58 1.271 . S
O69 Sm41 2.464 . S
O69 C58 1.251 . S
O70 Sm41 2.396 . S
O70 C59 1.252 . S
O71 Sm40 2.408 . S
O71 C59 1.272 . S
H72 C44 0.930 . S
H73 C45 0.929 . S
H74 C47 0.930 . S
H75 C48 0.929 . S
H76 C53 0.930 . S
H77 C54 0.929 . S
H78 C56 0.930 . S
H79 C57 0.929 . S
Sm80 C82 2.846 . S
Sm80 O100 2.543 . S
Sm80 O101 2.450 . S
Sm80 O102 2.681 . S
Sm80 O103 2.464 . S
Sm80 O104 2.396 . S
Sm80 O108 2.386 . S
Sm80 O111 2.408 . S
Sm81 C91 2.846 . S
Sm81 O102 2.386 . S
Sm81 O105 2.408 . S
Sm81 O106 2.543 . S
Sm81 O107 2.450 . S
Sm81 O108 2.681 . S
Sm81 O109 2.464 . S
Sm81 O110 2.396 . S
C82 Sm80 2.846 . S
C82 C83 1.506 . S
C82 O100 1.261 . S
C82 O101 1.242 . S
C83 C82 1.506 . S
C83 C84 1.358 . S
C83 C88 1.382 . S
C84 C83 1.358 . S
C84 C85 1.385 . S
C84 H112 0.930 . S
C85 C84 1.385 . S
C85 C86 1.395 . S
C85 H113 0.929 . S
C86 C85 1.395 . S
C86 C87 1.335 . S
C87 C86 1.335 . S
C87 C88 1.398 . S
C87 H114 0.930 . S
C88 C83 1.382 . S
C88 C87 1.398 . S
C88 H115 0.929 . S
C89 O102 1.271 . S
C89 O103 1.251 . S
C90 O104 1.252 . S
C90 O105 1.272 . S
C91 Sm81 2.846 . S
C91 C92 1.506 . S
C91 O106 1.261 . S
C91 O107 1.242 . S
C92 C91 1.506 . S
C92 C93 1.358 . S
C92 C97 1.382 . S
C93 C92 1.358 . S
C93 C94 1.385 . S
C93 H116 0.930 . S
C94 C93 1.385 . S
C94 C95 1.395 . S
C94 H117 0.929 . S
C95 C94 1.395 . S
C95 C96 1.335 . S
C96 C95 1.335 . S
C96 C97 1.398 . S
C96 H118 0.930 . S
C97 C92 1.382 . S
C97 C96 1.398 . S
C97 H119 0.929 . S
C98 O108 1.271 . S
C98 O109 1.251 . S
C99 O110 1.252 . S
C99 O111 1.272 . S
O100 Sm80 2.543 . S
O100 C82 1.261 . S
O101 Sm80 2.450 . S
O101 C82 1.242 . S
O102 Sm80 2.681 . S
O102 Sm81 2.386 . S
O102 C89 1.271 . S
O103 Sm80 2.464 . S
O103 C89 1.251 . S
O104 Sm80 2.396 . S
O104 C90 1.252 . S
O105 Sm81 2.408 . S
O105 C90 1.272 . S
O106 Sm81 2.543 . S
O106 C91 1.261 . S
O107 Sm81 2.450 . S
O107 C91 1.242 . S
O108 Sm80 2.386 . S
O108 Sm81 2.681 . S
O108 C98 1.271 . S
O109 Sm81 2.464 . S
O109 C98 1.251 . S
O110 Sm81 2.396 . S
O110 C99 1.252 . S
O111 Sm80 2.408 . S
O111 C99 1.272 . S
H112 C84 0.930 . S
H113 C85 0.929 . S
H114 C87 0.930 . S
H115 C88 0.929 . S
H116 C93 0.930 . S
H117 C94 0.929 . S
H118 C96 0.930 . S
H119 C97 0.929 . S
Sm120 C122 2.846 . S
Sm120 O140 2.543 . S
Sm120 O141 2.450 . S
Sm120 O142 2.681 . S
Sm120 O143 2.464 . S
Sm120 O144 2.396 . S
Sm120 O148 2.386 . S
Sm120 O151 2.408 . S
Sm121 C131 2.846 1_556 S
Sm121 O142 2.386 . S
Sm121 O145 2.408 . S
Sm121 O146 2.543 1_556 S
Sm121 O147 2.450 1_556 S
Sm121 O148 2.681 . S
Sm121 O149 2.464 . S
Sm121 O150 2.396 . S
C122 Sm120 2.846 . S
C122 C123 1.506 . S
C122 O140 1.261 . S
C122 O141 1.242 . S
C123 C122 1.506 . S
C123 C124 1.358 . S
C123 C128 1.382 . S
C124 C123 1.358 . S
C124 C125 1.385 . S
C124 H152 0.930 . S
C125 C124 1.385 . S
C125 C126 1.395 . S
C125 H153 0.929 . S
C126 C125 1.395 . S
C126 C127 1.335 . S
C127 C126 1.335 . S
C127 C128 1.398 . S
C127 H154 0.930 . S
C128 C123 1.382 . S
C128 C127 1.398 . S
C128 H155 0.929 . S
C129 O142 1.271 . S
C129 O143 1.251 . S
C130 O144 1.252 . S
C130 O145 1.272 . S
C131 Sm121 2.846 1_554 S
C131 C132 1.506 . S
C131 O146 1.261 . S
C131 O147 1.242 . S
C132 C131 1.506 . S
C132 C133 1.358 . S
C132 C137 1.382 . S
C133 C132 1.358 . S
C133 C134 1.385 . S
C133 H156 0.930 . S
C134 C133 1.385 . S
C134 C135 1.395 . S
C134 H157 0.929 . S
C135 C134 1.395 . S
C135 C136 1.335 . S
C136 C135 1.335 . S
C136 C137 1.398 . S
C136 H158 0.930 . S
C137 C132 1.382 . S
C137 C136 1.398 . S
C137 H159 0.929 . S
C138 O148 1.271 . S
C138 O149 1.251 . S
C139 O150 1.252 . S
C139 O151 1.272 . S
O140 Sm120 2.543 . S
O140 C122 1.261 . S
O141 Sm120 2.450 . S
O141 C122 1.242 . S
O142 Sm120 2.681 . S
O142 Sm121 2.386 . S
O142 C129 1.271 . S
O143 Sm120 2.464 . S
O143 C129 1.251 . S
O144 Sm120 2.396 . S
O144 C130 1.252 . S
O145 Sm121 2.408 . S
O145 C130 1.272 . S
O146 Sm121 2.543 1_554 S
O146 C131 1.261 . S
O147 Sm121 2.450 1_554 S
O147 C131 1.242 . S
O148 Sm120 2.386 . S
O148 Sm121 2.681 . S
O148 C138 1.271 . S
O149 Sm121 2.464 . S
O149 C138 1.251 . S
O150 Sm121 2.396 . S
O150 C139 1.252 . S
O151 Sm120 2.408 . S
O151 C139 1.272 . S
H152 C124 0.930 . S
H153 C125 0.929 . S
H154 C127 0.930 . S
H155 C128 0.929 . S
H156 C133 0.930 . S
H157 C134 0.929 . S
H158 C136 0.930 . S
H159 C137 0.929 . S
Sm160 C162 2.846 1_556 S
Sm160 O180 2.543 1_556 S
Sm160 O181 2.450 1_556 S
Sm160 O182 2.681 . S
Sm160 O183 2.464 . S
Sm160 O184 2.396 . S
Sm160 O188 2.386 . S
Sm160 O191 2.408 . S
Sm161 C171 2.846 . S
Sm161 O182 2.386 . S
Sm161 O185 2.408 . S
Sm161 O186 2.543 . S
Sm161 O187 2.450 . S
Sm161 O188 2.681 . S
Sm161 O189 2.464 . S
Sm161 O190 2.396 . S
C162 Sm160 2.846 1_554 S
C162 C163 1.506 . S
C162 O180 1.261 . S
C162 O181 1.242 . S
C163 C162 1.506 . S
C163 C164 1.358 . S
C163 C168 1.382 . S
C164 C163 1.358 . S
C164 C165 1.385 . S
C164 H192 0.930 . S
C165 C164 1.385 . S
C165 C166 1.395 . S
C165 H193 0.929 . S
C166 C165 1.395 . S
C166 C167 1.335 . S
C167 C166 1.335 . S
C167 C168 1.398 . S
C167 H194 0.930 . S
C168 C163 1.382 . S
C168 C167 1.398 . S
C168 H195 0.929 . S
C169 O182 1.271 . S
C169 O183 1.251 . S
C170 O184 1.252 . S
C170 O185 1.272 . S
C171 Sm161 2.846 . S
C171 C172 1.506 . S
C171 O186 1.261 . S
C171 O187 1.242 . S
C172 C171 1.506 . S
C172 C173 1.358 . S
C172 C177 1.382 . S
C173 C172 1.358 . S
C173 C174 1.385 . S
C173 H196 0.930 . S
C174 C173 1.385 . S
C174 C175 1.395 . S
C174 H197 0.929 . S
C175 C174 1.395 . S
C175 C176 1.335 . S
C176 C175 1.335 . S
C176 C177 1.398 . S
C176 H198 0.930 . S
C177 C172 1.382 . S
C177 C176 1.398 . S
C177 H199 0.929 . S
C178 O188 1.271 . S
C178 O189 1.251 . S
C179 O190 1.252 . S
C179 O191 1.272 . S
O180 Sm160 2.543 1_554 S
O180 C162 1.261 . S
O181 Sm160 2.450 1_554 S
O181 C162 1.242 . S
O182 Sm160 2.681 . S
O182 Sm161 2.386 . S
O182 C169 1.271 . S
O183 Sm160 2.464 . S
O183 C169 1.251 . S
O184 Sm160 2.396 . S
O184 C170 1.252 . S
O185 Sm161 2.408 . S
O185 C170 1.272 . S
O186 Sm161 2.543 . S
O186 C171 1.261 . S
O187 Sm161 2.450 . S
O187 C171 1.242 . S
O188 Sm160 2.386 . S
O188 Sm161 2.681 . S
O188 C178 1.271 . S
O189 Sm161 2.464 . S
O189 C178 1.251 . S
O190 Sm161 2.396 . S
O190 C179 1.252 . S
O191 Sm160 2.408 . S
O191 C179 1.272 . S
H192 C164 0.930 . S
H193 C165 0.929 . S
H194 C167 0.930 . S
H195 C168 0.929 . S
H196 C173 0.930 . S
H197 C174 0.929 . S
H198 C176 0.930 . S
H199 C177 0.929 . S
Sm200 C202 2.846 . S
Sm200 O220 2.543 . S
Sm200 O221 2.450 . S
Sm200 O222 2.681 . S
Sm200 O223 2.464 . S
Sm200 O224 2.396 . S
Sm200 O228 2.386 . S
Sm200 O231 2.408 . S
Sm201 C211 2.846 1_554 S
Sm201 O222 2.386 . S
Sm201 O225 2.408 . S
Sm201 O226 2.543 1_554 S
Sm201 O227 2.450 1_554 S
Sm201 O228 2.681 . S
Sm201 O229 2.464 . S
Sm201 O230 2.396 . S
C202 Sm200 2.846 . S
C202 C203 1.506 . S
C202 O220 1.261 . S
C202 O221 1.242 . S
C203 C202 1.506 . S
C203 C204 1.358 . S
C203 C208 1.382 . S
C204 C203 1.358 . S
C204 C205 1.385 . S
C204 H232 0.930 . S
C205 C204 1.385 . S
C205 C206 1.395 . S
C205 H233 0.929 . S
C206 C205 1.395 . S
C206 C207 1.335 . S
C207 C206 1.335 . S
C207 C208 1.398 . S
C207 H234 0.930 . S
C208 C203 1.382 . S
C208 C207 1.398 . S
C208 H235 0.929 . S
C209 O222 1.271 . S
C209 O223 1.251 . S
C210 O224 1.252 . S
C210 O225 1.272 . S
C211 Sm201 2.846 1_556 S
C211 C212 1.506 . S
C211 O226 1.261 . S
C211 O227 1.242 . S
C212 C211 1.506 . S
C212 C213 1.358 . S
C212 C217 1.382 . S
C213 C212 1.358 . S
C213 C214 1.385 . S
C213 H236 0.930 . S
C214 C213 1.385 . S
C214 C215 1.395 . S
C214 H237 0.929 . S
C215 C214 1.395 . S
C215 C216 1.335 . S
C216 C215 1.335 . S
C216 C217 1.398 . S
C216 H238 0.930 . S
C217 C212 1.382 . S
C217 C216 1.398 . S
C217 H239 0.929 . S
C218 O228 1.271 . S
C218 O229 1.251 . S
C219 O230 1.252 . S
C219 O231 1.272 . S
O220 Sm200 2.543 . S
O220 C202 1.261 . S
O221 Sm200 2.450 . S
O221 C202 1.242 . S
O222 Sm200 2.681 . S
O222 Sm201 2.386 . S
O222 C209 1.271 . S
O223 Sm200 2.464 . S
O223 C209 1.251 . S
O224 Sm200 2.396 . S
O224 C210 1.252 . S
O225 Sm201 2.408 . S
O225 C210 1.272 . S
O226 Sm201 2.543 1_556 S
O226 C211 1.261 . S
O227 Sm201 2.450 1_556 S
O227 C211 1.242 . S
O228 Sm200 2.386 . S
O228 Sm201 2.681 . S
O228 C218 1.271 . S
O229 Sm201 2.464 . S
O229 C218 1.251 . S
O230 Sm201 2.396 . S
O230 C219 1.252 . S
O231 Sm200 2.408 . S
O231 C219 1.272 . S
H232 C204 0.930 . S
H233 C205 0.929 . S
H234 C207 0.930 . S
H235 C208 0.929 . S
H236 C213 0.930 . S
H237 C214 0.929 . S
H238 C216 0.930 . S
H239 C217 0.929 . S
Sm240 C242 2.846 . S
Sm240 O260 2.543 . S
Sm240 O261 2.450 . S
Sm240 O262 2.681 . S
Sm240 O263 2.464 . S
Sm240 O264 2.396 . S
Sm240 O268 2.386 . S
Sm240 O271 2.408 . S
Sm241 C251 2.846 . S
Sm241 O262 2.386 . S
Sm241 O265 2.408 . S
Sm241 O266 2.543 . S
Sm241 O267 2.450 . S
Sm241 O268 2.681 . S
Sm241 O269 2.464 . S
Sm241 O270 2.396 . S
C242 Sm240 2.846 . S
C242 C243 1.506 . S
C242 O260 1.261 . S
C242 O261 1.242 . S
C243 C242 1.506 . S
C243 C244 1.358 . S
C243 C248 1.382 . S
C244 C243 1.358 . S
C244 C245 1.385 . S
C244 H272 0.930 . S
C245 C244 1.385 . S
C245 C246 1.395 . S
C245 H273 0.929 . S
C246 C245 1.395 . S
C246 C247 1.335 . S
C247 C246 1.335 . S
C247 C248 1.398 . S
C247 H274 0.930 . S
C248 C243 1.382 . S
C248 C247 1.398 . S
C248 H275 0.929 . S
C249 O262 1.271 . S
C249 O263 1.251 . S
C250 O264 1.252 . S
C250 O265 1.272 . S
C251 Sm241 2.846 . S
C251 C252 1.506 . S
C251 O266 1.261 . S
C251 O267 1.242 . S
C252 C251 1.506 . S
C252 C253 1.358 . S
C252 C257 1.382 . S
C253 C252 1.358 . S
C253 C254 1.385 . S
C253 H276 0.930 . S
C254 C253 1.385 . S
C254 C255 1.395 . S
C254 H277 0.929 . S
C255 C254 1.395 . S
C255 C256 1.335 . S
C256 C255 1.335 . S
C256 C257 1.398 . S
C256 H278 0.930 . S
C257 C252 1.382 . S
C257 C256 1.398 . S
C257 H279 0.929 . S
C258 O268 1.271 . S
C258 O269 1.251 . S
C259 O270 1.252 . S
C259 O271 1.272 . S
O260 Sm240 2.543 . S
O260 C242 1.261 . S
O261 Sm240 2.450 . S
O261 C242 1.242 . S
O262 Sm240 2.681 . S
O262 Sm241 2.386 . S
O262 C249 1.271 . S
O263 Sm240 2.464 . S
O263 C249 1.251 . S
O264 Sm240 2.396 . S
O264 C250 1.252 . S
O265 Sm241 2.408 . S
O265 C250 1.272 . S
O266 Sm241 2.543 . S
O266 C251 1.261 . S
O267 Sm241 2.450 . S
O267 C251 1.242 . S
O268 Sm240 2.386 . S
O268 Sm241 2.681 . S
O268 C258 1.271 . S
O269 Sm241 2.464 . S
O269 C258 1.251 . S
O270 Sm241 2.396 . S
O270 C259 1.252 . S
O271 Sm240 2.408 . S
O271 C259 1.272 . S
H272 C244 0.930 . S
H273 C245 0.929 . S
H274 C247 0.930 . S
H275 C248 0.929 . S
H276 C253 0.930 . S
H277 C254 0.929 . S
H278 C256 0.930 . S
H279 C257 0.929 . S
Sm280 C282 2.846 . S
Sm280 O300 2.543 . S
Sm280 O301 2.450 . S
Sm280 O302 2.681 . S
Sm280 O303 2.464 . S
Sm280 O304 2.396 . S
Sm280 O308 2.386 . S
Sm280 O311 2.408 . S
Sm281 C291 2.846 . S
Sm281 O302 2.386 . S
Sm281 O305 2.408 . S
Sm281 O306 2.543 . S
Sm281 O307 2.450 . S
Sm281 O308 2.681 . S
Sm281 O309 2.464 . S
Sm281 O310 2.396 . S
C282 Sm280 2.846 . S
C282 C283 1.506 . S
C282 O300 1.261 . S
C282 O301 1.242 . S
C283 C282 1.506 . S
C283 C284 1.358 . S
C283 C288 1.382 . S
C284 C283 1.358 . S
C284 C285 1.385 . S
C284 H312 0.930 . S
C285 C284 1.385 . S
C285 C286 1.395 . S
C285 H313 0.929 . S
C286 C285 1.395 . S
C286 C287 1.335 . S
C287 C286 1.335 . S
C287 C288 1.398 . S
C287 H314 0.930 . S
C288 C283 1.382 . S
C288 C287 1.398 . S
C288 H315 0.929 . S
C289 O302 1.271 . S
C289 O303 1.251 . S
C290 O304 1.252 . S
C290 O305 1.272 . S
C291 Sm281 2.846 . S
C291 C292 1.506 . S
C291 O306 1.261 . S
C291 O307 1.242 . S
C292 C291 1.506 . S
C292 C293 1.358 . S
C292 C297 1.382 . S
C293 C292 1.358 . S
C293 C294 1.385 . S
C293 H316 0.930 . S
C294 C293 1.385 . S
C294 C295 1.395 . S
C294 H317 0.929 . S
C295 C294 1.395 . S
C295 C296 1.335 . S
C296 C295 1.335 . S
C296 C297 1.398 . S
C296 H318 0.930 . S
C297 C292 1.382 . S
C297 C296 1.398 . S
C297 H319 0.929 . S
C298 O308 1.271 . S
C298 O309 1.251 . S
C299 O310 1.252 . S
C299 O311 1.272 . S
O300 Sm280 2.543 . S
O300 C282 1.261 . S
O301 Sm280 2.450 . S
O301 C282 1.242 . S
O302 Sm280 2.681 . S
O302 Sm281 2.386 . S
O302 C289 1.271 . S
O303 Sm280 2.464 . S
O303 C289 1.251 . S
O304 Sm280 2.396 . S
O304 C290 1.252 . S
O305 Sm281 2.408 . S
O305 C290 1.272 . S
O306 Sm281 2.543 . S
O306 C291 1.261 . S
O307 Sm281 2.450 . S
O307 C291 1.242 . S
O308 Sm280 2.386 . S
O308 Sm281 2.681 . S
O308 C298 1.271 . S
O309 Sm281 2.464 . S
O309 C298 1.251 . S
O310 Sm281 2.396 . S
O310 C299 1.252 . S
O311 Sm280 2.408 . S
O311 C299 1.272 . S
H312 C284 0.930 . S
H313 C285 0.929 . S
H314 C287 0.930 . S
H315 C288 0.929 . S
H316 C293 0.930 . S
H317 C294 0.929 . S
H318 C296 0.930 . S
H319 C297 0.929 . S
Sm320 C322 2.846 . S
Sm320 O340 2.543 . S
Sm320 O341 2.450 . S
Sm320 O342 2.681 . S
Sm320 O343 2.464 . S
Sm320 O344 2.396 . S
Sm320 O348 2.386 . S
Sm320 O351 2.408 . S
Sm321 C331 2.846 1_556 S
Sm321 O342 2.386 . S
Sm321 O345 2.408 . S
Sm321 O346 2.543 1_556 S
Sm321 O347 2.450 1_556 S
Sm321 O348 2.681 . S
Sm321 O349 2.464 . S
Sm321 O350 2.396 . S
C322 Sm320 2.846 . S
C322 C323 1.506 . S
C322 O340 1.261 . S
C322 O341 1.242 . S
C323 C322 1.506 . S
C323 C324 1.358 . S
C323 C328 1.382 . S
C324 C323 1.358 . S
C324 C325 1.385 . S
C324 H352 0.930 . S
C325 C324 1.385 . S
C325 C326 1.395 . S
C325 H353 0.929 . S
C326 C325 1.395 . S
C326 C327 1.335 . S
C327 C326 1.335 . S
C327 C328 1.398 . S
C327 H354 0.930 . S
C328 C323 1.382 . S
C328 C327 1.398 . S
C328 H355 0.929 . S
C329 O342 1.271 . S
C329 O343 1.251 . S
C330 O344 1.252 . S
C330 O345 1.272 . S
C331 Sm321 2.846 1_554 S
C331 C332 1.506 . S
C331 O346 1.261 . S
C331 O347 1.242 . S
C332 C331 1.506 . S
C332 C333 1.358 . S
C332 C337 1.382 . S
C333 C332 1.358 . S
C333 C334 1.385 . S
C333 H356 0.930 . S
C334 C333 1.385 . S
C334 C335 1.395 . S
C334 H357 0.929 . S
C335 C334 1.395 . S
C335 C336 1.335 . S
C336 C335 1.335 . S
C336 C337 1.398 . S
C336 H358 0.930 . S
C337 C332 1.382 . S
C337 C336 1.398 . S
C337 H359 0.929 . S
C338 O348 1.271 . S
C338 O349 1.251 . S
C339 O350 1.252 . S
C339 O351 1.272 . S
O340 Sm320 2.543 . S
O340 C322 1.261 . S
O341 Sm320 2.450 . S
O341 C322 1.242 . S
O342 Sm320 2.681 . S
O342 Sm321 2.386 . S
O342 C329 1.271 . S
O343 Sm320 2.464 . S
O343 C329 1.251 . S
O344 Sm320 2.396 . S
O344 C330 1.252 . S
O345 Sm321 2.408 . S
O345 C330 1.272 . S
O346 Sm321 2.543 1_554 S
O346 C331 1.261 . S
O347 Sm321 2.450 1_554 S
O347 C331 1.242 . S
O348 Sm320 2.386 . S
O348 Sm321 2.681 . S
O348 C338 1.271 . S
O349 Sm321 2.464 . S
O349 C338 1.251 . S
O350 Sm321 2.396 . S
O350 C339 1.252 . S
O351 Sm320 2.408 . S
O351 C339 1.272 . S
H352 C324 0.930 . S
H353 C325 0.929 . S
H354 C327 0.930 . S
H355 C328 0.929 . S
H356 C333 0.930 . S
H357 C334 0.929 . S
H358 C336 0.930 . S
H359 C337 0.929 . S
Sm360 C362 2.846 . S
Sm360 O380 2.543 . S
Sm360 O381 2.450 . S
Sm360 O382 2.681 . S
Sm360 O383 2.464 . S
Sm360 O384 2.396 . S
Sm360 O388 2.386 . S
Sm360 O391 2.408 . S
Sm361 C371 2.846 . S
Sm361 O382 2.386 . S
Sm361 O385 2.408 . S
Sm361 O386 2.543 . S
Sm361 O387 2.450 . S
Sm361 O388 2.681 . S
Sm361 O389 2.464 . S
Sm361 O390 2.396 . S
C362 Sm360 2.846 . S
C362 C363 1.506 . S
C362 O380 1.261 . S
C362 O381 1.242 . S
C363 C362 1.506 . S
C363 C364 1.358 . S
C363 C368 1.382 . S
C364 C363 1.358 . S
C364 C365 1.385 . S
C364 H392 0.930 . S
C365 C364 1.385 . S
C365 C366 1.395 . S
C365 H393 0.929 . S
C366 C365 1.395 . S
C366 C367 1.335 . S
C367 C366 1.335 . S
C367 C368 1.398 . S
C367 H394 0.930 . S
C368 C363 1.382 . S
C368 C367 1.398 . S
C368 H395 0.929 . S
C369 O382 1.271 . S
C369 O383 1.251 . S
C370 O384 1.252 . S
C370 O385 1.272 . S
C371 Sm361 2.846 . S
C371 C372 1.506 . S
C371 O386 1.261 . S
C371 O387 1.242 . S
C372 C371 1.506 . S
C372 C373 1.358 . S
C372 C377 1.382 . S
C373 C372 1.358 . S
C373 C374 1.385 . S
C373 H396 0.930 . S
C374 C373 1.385 . S
C374 C375 1.395 . S
C374 H397 0.929 . S
C375 C374 1.395 . S
C375 C376 1.335 . S
C376 C375 1.335 . S
C376 C377 1.398 . S
C376 H398 0.930 . S
C377 C372 1.382 . S
C377 C376 1.398 . S
C377 H399 0.929 . S
C378 O388 1.271 . S
C378 O389 1.251 . S
C379 O390 1.252 . S
C379 O391 1.272 . S
O380 Sm360 2.543 . S
O380 C362 1.261 . S
O381 Sm360 2.450 . S
O381 C362 1.242 . S
O382 Sm360 2.681 . S
O382 Sm361 2.386 . S
O382 C369 1.271 . S
O383 Sm360 2.464 . S
O383 C369 1.251 . S
O384 Sm360 2.396 . S
O384 C370 1.252 . S
O385 Sm361 2.408 . S
O385 C370 1.272 . S
O386 Sm361 2.543 . S
O386 C371 1.261 . S
O387 Sm361 2.450 . S
O387 C371 1.242 . S
O388 Sm360 2.386 . S
O388 Sm361 2.681 . S
O388 C378 1.271 . S
O389 Sm361 2.464 . S
O389 C378 1.251 . S
O390 Sm361 2.396 . S
O390 C379 1.252 . S
O391 Sm360 2.408 . S
O391 C379 1.272 . S
H392 C364 0.930 . S
H393 C365 0.929 . S
H394 C367 0.930 . S
H395 C368 0.929 . S
H396 C373 0.930 . S
H397 C374 0.929 . S
H398 C376 0.930 . S
H399 C377 0.929 . S
Sm400 C402 2.846 . S
Sm400 O420 2.543 . S
Sm400 O421 2.450 . S
Sm400 O422 2.681 . S
Sm400 O423 2.464 . S
Sm400 O424 2.396 . S
Sm400 O428 2.386 . S
Sm400 O431 2.408 . S
Sm401 C411 2.846 . S
Sm401 O422 2.386 . S
Sm401 O425 2.408 . S
Sm401 O426 2.543 . S
Sm401 O427 2.450 . S
Sm401 O428 2.681 . S
Sm401 O429 2.464 . S
Sm401 O430 2.396 . S
C402 Sm400 2.846 . S
C402 C403 1.506 . S
C402 O420 1.261 . S
C402 O421 1.242 . S
C403 C402 1.506 . S
C403 C404 1.358 . S
C403 C408 1.382 . S
C404 C403 1.358 . S
C404 C405 1.385 . S
C404 H432 0.930 . S
C405 C404 1.385 . S
C405 C406 1.395 . S
C405 H433 0.929 . S
C406 C405 1.395 . S
C406 C407 1.335 . S
C407 C406 1.335 . S
C407 C408 1.398 . S
C407 H434 0.930 . S
C408 C403 1.382 . S
C408 C407 1.398 . S
C408 H435 0.929 . S
C409 O422 1.271 . S
C409 O423 1.251 . S
C410 O424 1.252 . S
C410 O425 1.272 . S
C411 Sm401 2.846 . S
C411 C412 1.506 . S
C411 O426 1.261 . S
C411 O427 1.242 . S
C412 C411 1.506 . S
C412 C413 1.358 . S
C412 C417 1.382 . S
C413 C412 1.358 . S
C413 C414 1.385 . S
C413 H436 0.930 . S
C414 C413 1.385 . S
C414 C415 1.395 . S
C414 H437 0.929 . S
C415 C414 1.395 . S
C415 C416 1.335 . S
C416 C415 1.335 . S
C416 C417 1.398 . S
C416 H438 0.930 . S
C417 C412 1.382 . S
C417 C416 1.398 . S
C417 H439 0.929 . S
C418 O428 1.271 . S
C418 O429 1.251 . S
C419 O430 1.252 . S
C419 O431 1.272 . S
O420 Sm400 2.543 . S
O420 C402 1.261 . S
O421 Sm400 2.450 . S
O421 C402 1.242 . S
O422 Sm400 2.681 . S
O422 Sm401 2.386 . S
O422 C409 1.271 . S
O423 Sm400 2.464 . S
O423 C409 1.251 . S
O424 Sm400 2.396 . S
O424 C410 1.252 . S
O425 Sm401 2.408 . S
O425 C410 1.272 . S
O426 Sm401 2.543 . S
O426 C411 1.261 . S
O427 Sm401 2.450 . S
O427 C411 1.242 . S
O428 Sm400 2.386 . S
O428 Sm401 2.681 . S
O428 C418 1.271 . S
O429 Sm401 2.464 . S
O429 C418 1.251 . S
O430 Sm401 2.396 . S
O430 C419 1.252 . S
O431 Sm400 2.408 . S
O431 C419 1.272 . S
H432 C404 0.930 . S
H433 C405 0.929 . S
H434 C407 0.930 . S
H435 C408 0.929 . S
H436 C413 0.930 . S
H437 C414 0.929 . S
H438 C416 0.930 . S
H439 C417 0.929 . S
Sm440 C442 2.846 1_554 S
Sm440 O460 2.543 1_554 S
Sm440 O461 2.450 1_554 S
Sm440 O462 2.681 . S
Sm440 O463 2.464 . S
Sm440 O464 2.396 . S
Sm440 O468 2.386 . S
Sm440 O471 2.408 . S
Sm441 C451 2.846 . S
Sm441 O462 2.386 . S
Sm441 O465 2.408 . S
Sm441 O466 2.543 . S
Sm441 O467 2.450 . S
Sm441 O468 2.681 . S
Sm441 O469 2.464 . S
Sm441 O470 2.396 . S
C442 Sm440 2.846 1_556 S
C442 C443 1.506 . S
C442 O460 1.261 . S
C442 O461 1.242 . S
C443 C442 1.506 . S
C443 C444 1.358 . S
C443 C448 1.382 . S
C444 C443 1.358 . S
C444 C445 1.385 . S
C444 H472 0.930 . S
C445 C444 1.385 . S
C445 C446 1.395 . S
C445 H473 0.929 . S
C446 C445 1.395 . S
C446 C447 1.335 . S
C447 C446 1.335 . S
C447 C448 1.398 . S
C447 H474 0.930 . S
C448 C443 1.382 . S
C448 C447 1.398 . S
C448 H475 0.929 . S
C449 O462 1.271 . S
C449 O463 1.251 . S
C450 O464 1.252 . S
C450 O465 1.272 . S
C451 Sm441 2.846 . S
C451 C452 1.506 . S
C451 O466 1.261 . S
C451 O467 1.242 . S
C452 C451 1.506 . S
C452 C453 1.358 . S
C452 C457 1.382 . S
C453 C452 1.358 . S
C453 C454 1.385 . S
C453 H476 0.930 . S
C454 C453 1.385 . S
C454 C455 1.395 . S
C454 H477 0.929 . S
C455 C454 1.395 . S
C455 C456 1.335 . S
C456 C455 1.335 . S
C456 C457 1.398 . S
C456 H478 0.930 . S
C457 C452 1.382 . S
C457 C456 1.398 . S
C457 H479 0.929 . S
C458 O468 1.271 . S
C458 O469 1.251 . S
C459 O470 1.252 . S
C459 O471 1.272 . S
O460 Sm440 2.543 1_556 S
O460 C442 1.261 . S
O461 Sm440 2.450 1_556 S
O461 C442 1.242 . S
O462 Sm440 2.681 . S
O462 Sm441 2.386 . S
O462 C449 1.271 . S
O463 Sm440 2.464 . S
O463 C449 1.251 . S
O464 Sm440 2.396 . S
O464 C450 1.252 . S
O465 Sm441 2.408 . S
O465 C450 1.272 . S
O466 Sm441 2.543 . S
O466 C451 1.261 . S
O467 Sm441 2.450 . S
O467 C451 1.242 . S
O468 Sm440 2.386 . S
O468 Sm441 2.681 . S
O468 C458 1.271 . S
O469 Sm441 2.464 . S
O469 C458 1.251 . S
O470 Sm441 2.396 . S
O470 C459 1.252 . S
O471 Sm440 2.408 . S
O471 C459 1.272 . S
H472 C444 0.930 . S
H473 C445 0.929 . S
H474 C447 0.930 . S
H475 C448 0.929 . S
H476 C453 0.930 . S
H477 C454 0.929 . S
H478 C456 0.930 . S
H479 C457 0.929 . S
Sm480 C482 2.846 . S
Sm480 O500 2.543 . S
Sm480 O501 2.450 . S
Sm480 O502 2.681 . S
Sm480 O503 2.464 . S
Sm480 O504 2.396 . S
Sm480 O508 2.386 . S
Sm480 O511 2.408 . S
Sm481 C491 2.846 1_554 S
Sm481 O502 2.386 . S
Sm481 O505 2.408 . S
Sm481 O506 2.543 1_554 S
Sm481 O507 2.450 1_554 S
Sm481 O508 2.681 . S
Sm481 O509 2.464 . S
Sm481 O510 2.396 . S
C482 Sm480 2.846 . S
C482 C483 1.506 . S
C482 O500 1.261 . S
C482 O501 1.242 . S
C483 C482 1.506 . S
C483 C484 1.358 . S
C483 C488 1.382 . S
C484 C483 1.358 . S
C484 C485 1.385 . S
C484 H512 0.930 . S
C485 C484 1.385 . S
C485 C486 1.395 . S
C485 H513 0.929 . S
C486 C485 1.395 . S
C486 C487 1.335 . S
C487 C486 1.335 . S
C487 C488 1.398 . S
C487 H514 0.930 . S
C488 C483 1.382 . S
C488 C487 1.398 . S
C488 H515 0.929 . S
C489 O502 1.271 . S
C489 O503 1.251 . S
C490 O504 1.252 . S
C490 O505 1.272 . S
C491 Sm481 2.846 1_556 S
C491 C492 1.506 . S
C491 O506 1.261 . S
C491 O507 1.242 . S
C492 C491 1.506 . S
C492 C493 1.358 . S
C492 C497 1.382 . S
C493 C492 1.358 . S
C493 C494 1.385 . S
C493 H516 0.930 . S
C494 C493 1.385 . S
C494 C495 1.395 . S
C494 H517 0.929 . S
C495 C494 1.395 . S
C495 C496 1.335 . S
C496 C495 1.335 . S
C496 C497 1.398 . S
C496 H518 0.930 . S
C497 C492 1.382 . S
C497 C496 1.398 . S
C497 H519 0.929 . S
C498 O508 1.271 . S
C498 O509 1.251 . S
C499 O510 1.252 . S
C499 O511 1.272 . S
O500 Sm480 2.543 . S
O500 C482 1.261 . S
O501 Sm480 2.450 . S
O501 C482 1.242 . S
O502 Sm480 2.681 . S
O502 Sm481 2.386 . S
O502 C489 1.271 . S
O503 Sm480 2.464 . S
O503 C489 1.251 . S
O504 Sm480 2.396 . S
O504 C490 1.252 . S
O505 Sm481 2.408 . S
O505 C490 1.272 . S
O506 Sm481 2.543 1_556 S
O506 C491 1.261 . S
O507 Sm481 2.450 1_556 S
O507 C491 1.242 . S
O508 Sm480 2.386 . S
O508 Sm481 2.681 . S
O508 C498 1.271 . S
O509 Sm481 2.464 . S
O509 C498 1.251 . S
O510 Sm481 2.396 . S
O510 C499 1.252 . S
O511 Sm480 2.408 . S
O511 C499 1.272 . S
H512 C484 0.930 . S
H513 C485 0.929 . S
H514 C487 0.930 . S
H515 C488 0.929 . S
H516 C493 0.930 . S
H517 C494 0.929 . S
H518 C496 0.930 . S
H519 C497 0.929 . S
Sm520 C522 2.846 1_556 S
Sm520 O540 2.543 1_556 S
Sm520 O541 2.450 1_556 S
Sm520 O542 2.681 . S
Sm520 O543 2.464 . S
Sm520 O544 2.396 . S
Sm520 O548 2.386 . S
Sm520 O551 2.408 . S
Sm521 C531 2.846 . S
Sm521 O542 2.386 . S
Sm521 O545 2.408 . S
Sm521 O546 2.543 . S
Sm521 O547 2.450 . S
Sm521 O548 2.681 . S
Sm521 O549 2.464 . S
Sm521 O550 2.396 . S
C522 Sm520 2.846 1_554 S
C522 C523 1.506 . S
C522 O540 1.261 . S
C522 O541 1.242 . S
C523 C522 1.506 . S
C523 C524 1.358 . S
C523 C528 1.382 . S
C524 C523 1.358 . S
C524 C525 1.385 . S
C524 H552 0.930 . S
C525 C524 1.385 . S
C525 C526 1.395 . S
C525 H553 0.929 . S
C526 C525 1.395 . S
C526 C527 1.335 . S
C527 C526 1.335 . S
C527 C528 1.398 . S
C527 H554 0.930 . S
C528 C523 1.382 . S
C528 C527 1.398 . S
C528 H555 0.929 . S
C529 O542 1.271 . S
C529 O543 1.251 . S
C530 O544 1.252 . S
C530 O545 1.272 . S
C531 Sm521 2.846 . S
C531 C532 1.506 . S
C531 O546 1.261 . S
C531 O547 1.242 . S
C532 C531 1.506 . S
C532 C533 1.358 . S
C532 C537 1.382 . S
C533 C532 1.358 . S
C533 C534 1.385 . S
C533 H556 0.930 . S
C534 C533 1.385 . S
C534 C535 1.395 . S
C534 H557 0.929 . S
C535 C534 1.395 . S
C535 C536 1.335 . S
C536 C535 1.335 . S
C536 C537 1.398 . S
C536 H558 0.930 . S
C537 C532 1.382 . S
C537 C536 1.398 . S
C537 H559 0.929 . S
C538 O548 1.271 . S
C538 O549 1.251 . S
C539 O550 1.252 . S
C539 O551 1.272 . S
O540 Sm520 2.543 1_554 S
O540 C522 1.261 . S
O541 Sm520 2.450 1_554 S
O541 C522 1.242 . S
O542 Sm520 2.681 . S
O542 Sm521 2.386 . S
O542 C529 1.271 . S
O543 Sm520 2.464 . S
O543 C529 1.251 . S
O544 Sm520 2.396 . S
O544 C530 1.252 . S
O545 Sm521 2.408 . S
O545 C530 1.272 . S
O546 Sm521 2.543 . S
O546 C531 1.261 . S
O547 Sm521 2.450 . S
O547 C531 1.242 . S
O548 Sm520 2.386 . S
O548 Sm521 2.681 . S
O548 C538 1.271 . S
O549 Sm521 2.464 . S
O549 C538 1.251 . S
O550 Sm521 2.396 . S
O550 C539 1.252 . S
O551 Sm520 2.408 . S
O551 C539 1.272 . S
H552 C524 0.930 . S
H553 C525 0.929 . S
H554 C527 0.930 . S
H555 C528 0.929 . S
H556 C533 0.930 . S
H557 C534 0.929 . S
H558 C536 0.930 . S
H559 C537 0.929 . S
Sm560 C562 2.846 . S
Sm560 O580 2.543 . S
Sm560 O581 2.450 . S
Sm560 O582 2.681 . S
Sm560 O583 2.464 . S
Sm560 O584 2.396 . S
Sm560 O588 2.386 . S
Sm560 O591 2.408 . S
Sm561 C571 2.846 . S
Sm561 O582 2.386 . S
Sm561 O585 2.408 . S
Sm561 O586 2.543 . S
Sm561 O587 2.450 . S
Sm561 O588 2.681 . S
Sm561 O589 2.464 . S
Sm561 O590 2.396 . S
C562 Sm560 2.846 . S
C562 C563 1.506 . S
C562 O580 1.261 . S
C562 O581 1.242 . S
C563 C562 1.506 . S
C563 C564 1.358 . S
C563 C568 1.382 . S
C564 C563 1.358 . S
C564 C565 1.385 . S
C564 H592 0.930 . S
C565 C564 1.385 . S
C565 C566 1.395 . S
C565 H593 0.929 . S
C566 C565 1.395 . S
C566 C567 1.335 . S
C567 C566 1.335 . S
C567 C568 1.398 . S
C567 H594 0.930 . S
C568 C563 1.382 . S
C568 C567 1.398 . S
C568 H595 0.929 . S
C569 O582 1.271 . S
C569 O583 1.251 . S
C570 O584 1.252 . S
C570 O585 1.272 . S
C571 Sm561 2.846 . S
C571 C572 1.506 . S
C571 O586 1.261 . S
C571 O587 1.242 . S
C572 C571 1.506 . S
C572 C573 1.358 . S
C572 C577 1.382 . S
C573 C572 1.358 . S
C573 C574 1.385 . S
C573 H596 0.930 . S
C574 C573 1.385 . S
C574 C575 1.395 . S
C574 H597 0.929 . S
C575 C574 1.395 . S
C575 C576 1.335 . S
C576 C575 1.335 . S
C576 C577 1.398 . S
C576 H598 0.930 . S
C577 C572 1.382 . S
C577 C576 1.398 . S
C577 H599 0.929 . S
C578 O588 1.271 . S
C578 O589 1.251 . S
C579 O590 1.252 . S
C579 O591 1.272 . S
O580 Sm560 2.543 . S
O580 C562 1.261 . S
O581 Sm560 2.450 . S
O581 C562 1.242 . S
O582 Sm560 2.681 . S
O582 Sm561 2.386 . S
O582 C569 1.271 . S
O583 Sm560 2.464 . S
O583 C569 1.251 . S
O584 Sm560 2.396 . S
O584 C570 1.252 . S
O585 Sm561 2.408 . S
O585 C570 1.272 . S
O586 Sm561 2.543 . S
O586 C571 1.261 . S
O587 Sm561 2.450 . S
O587 C571 1.242 . S
O588 Sm560 2.386 . S
O588 Sm561 2.681 . S
O588 C578 1.271 . S
O589 Sm561 2.464 . S
O589 C578 1.251 . S
O590 Sm561 2.396 . S
O590 C579 1.252 . S
O591 Sm560 2.408 . S
O591 C579 1.272 . S
H592 C564 0.930 . S
H593 C565 0.929 . S
H594 C567 0.930 . S
H595 C568 0.929 . S
H596 C573 0.930 . S
H597 C574 0.929 . S
H598 C576 0.930 . S
H599 C577 0.929 . S
Sm600 C602 2.846 . S
Sm600 O620 2.543 . S
Sm600 O621 2.450 . S
Sm600 O622 2.681 . S
Sm600 O623 2.464 . S
Sm600 O624 2.396 . S
Sm600 O628 2.386 . S
Sm600 O631 2.408 . S
Sm601 C611 2.846 . S
Sm601 O622 2.386 . S
Sm601 O625 2.408 . S
Sm601 O626 2.543 . S
Sm601 O627 2.450 . S
Sm601 O628 2.681 . S
Sm601 O629 2.464 . S
Sm601 O630 2.396 . S
C602 Sm600 2.846 . S
C602 C603 1.506 . S
C602 O620 1.261 . S
C602 O621 1.242 . S
C603 C602 1.506 . S
C603 C604 1.358 . S
C603 C608 1.382 . S
C604 C603 1.358 . S
C604 C605 1.385 . S
C604 H632 0.930 . S
C605 C604 1.385 . S
C605 C606 1.395 . S
C605 H633 0.929 . S
C606 C605 1.395 . S
C606 C607 1.335 . S
C607 C606 1.335 . S
C607 C608 1.398 . S
C607 H634 0.930 . S
C608 C603 1.382 . S
C608 C607 1.398 . S
C608 H635 0.929 . S
C609 O622 1.271 . S
C609 O623 1.251 . S
C610 O624 1.252 . S
C610 O625 1.272 . S
C611 Sm601 2.846 . S
C611 C612 1.506 . S
C611 O626 1.261 . S
C611 O627 1.242 . S
C612 C611 1.506 . S
C612 C613 1.358 . S
C612 C617 1.382 . S
C613 C612 1.358 . S
C613 C614 1.385 . S
C613 H636 0.930 . S
C614 C613 1.385 . S
C614 C615 1.395 . S
C614 H637 0.929 . S
C615 C614 1.395 . S
C615 C616 1.335 . S
C616 C615 1.335 . S
C616 C617 1.398 . S
C616 H638 0.930 . S
C617 C612 1.382 . S
C617 C616 1.398 . S
C617 H639 0.929 . S
C618 O628 1.271 . S
C618 O629 1.251 . S
C619 O630 1.252 . S
C619 O631 1.272 . S
O620 Sm600 2.543 . S
O620 C602 1.261 . S
O621 Sm600 2.450 . S
O621 C602 1.242 . S
O622 Sm600 2.681 . S
O622 Sm601 2.386 . S
O622 C609 1.271 . S
O623 Sm600 2.464 . S
O623 C609 1.251 . S
O624 Sm600 2.396 . S
O624 C610 1.252 . S
O625 Sm601 2.408 . S
O625 C610 1.272 . S
O626 Sm601 2.543 . S
O626 C611 1.261 . S
O627 Sm601 2.450 . S
O627 C611 1.242 . S
O628 Sm600 2.386 . S
O628 Sm601 2.681 . S
O628 C618 1.271 . S
O629 Sm601 2.464 . S
O629 C618 1.251 . S
O630 Sm601 2.396 . S
O630 C619 1.252 . S
O631 Sm600 2.408 . S
O631 C619 1.272 . S
H632 C604 0.930 . S
H633 C605 0.929 . S
H634 C607 0.930 . S
H635 C608 0.929 . S
H636 C613 0.930 . S
H637 C614 0.929 . S
H638 C616 0.930 . S
H639 C617 0.929 . S
C640 C641 1.391 . S
C640 C642 1.394 . S
C640 H656 0.931 . S
C641 C640 1.391 . S
C641 C645 1.376 . S
C642 C640 1.394 . S
C642 C643 1.369 . S
C642 C646 1.531 . S
C643 C642 1.369 . S
C643 C644 1.410 . S
C643 C651 1.503 . S
C644 C643 1.410 . S
C644 C645 1.392 . S
C644 C647 1.511 . S
C645 C641 1.376 . S
C645 C644 1.392 . S
C645 H657 0.929 . S
C646 C642 1.531 . S
C646 H658 0.960 . S
C646 H659 0.962 . S
C646 H660 0.960 . S
C647 C644 1.511 . S
C647 H661 0.961 . S
C647 H662 0.961 . S
C647 H663 0.961 . S
C648 C649 1.370 . S
C648 C650 1.363 . S
C648 H664 0.931 . S
C649 C648 1.370 . S
C649 C653 1.408 . S
C650 C648 1.363 . S
C650 C651 1.370 . S
C650 C654 1.524 . S
C651 C643 1.503 . S
C651 C650 1.370 . S
C651 C652 1.403 . S
C652 C651 1.403 . S
C652 C653 1.404 . S
C652 C655 1.539 . S
C653 C649 1.408 . S
C653 C652 1.404 . S
C653 H665 0.930 . S
C654 C650 1.524 . S
C654 H666 0.956 . S
C654 H667 0.961 . S
C654 H668 0.961 . S
C655 C652 1.539 . S
C655 H669 0.958 . S
C655 H670 0.961 . S
C655 H671 0.960 . S
H656 C640 0.931 . S
H657 C645 0.929 . S
H658 C646 0.960 . S
H659 C646 0.962 . S
H660 C646 0.960 . S
H661 C647 0.961 . S
H662 C647 0.961 . S
H663 C647 0.961 . S
H664 C648 0.931 . S
H665 C653 0.930 . S
H666 C654 0.956 . S
H667 C654 0.961 . S
H668 C654 0.961 . S
H669 C655 0.958 . S
H670 C655 0.961 . S
H671 C655 0.960 . S
C672 C673 1.391 . S
C672 C674 1.394 . S
C672 H688 0.931 . S
C673 C672 1.391 . S
C673 C677 1.376 . S
C674 C672 1.394 . S
C674 C675 1.369 . S
C674 C678 1.531 . S
C675 C674 1.369 . S
C675 C676 1.410 . S
C675 C683 1.503 . S
C676 C675 1.410 . S
C676 C677 1.392 . S
C676 C679 1.511 . S
C677 C673 1.376 . S
C677 C676 1.392 . S
C677 H689 0.929 1_556 S
C678 C674 1.531 . S
C678 H690 0.960 . S
C678 H691 0.962 . S
C678 H692 0.960 . S
C679 C676 1.511 . S
C679 H693 0.961 . S
C679 H694 0.961 . S
C679 H695 0.961 . S
C680 C681 1.370 . S
C680 C682 1.363 . S
C680 H696 0.931 . S
C681 C680 1.370 . S
C681 C685 1.408 . S
C682 C680 1.363 . S
C682 C683 1.370 . S
C682 C686 1.524 . S
C683 C675 1.503 . S
C683 C682 1.370 . S
C683 C684 1.403 . S
C684 C683 1.403 . S
C684 C685 1.404 . S
C684 C687 1.539 . S
C685 C681 1.408 . S
C685 C684 1.404 . S
C685 H697 0.930 . S
C686 C682 1.524 . S
C686 H698 0.956 . S
C686 H699 0.961 . S
C686 H700 0.961 . S
C687 C684 1.539 . S
C687 H701 0.958 . S
C687 H702 0.961 . S
C687 H703 0.960 . S
H688 C672 0.931 . S
H689 C677 0.929 1_554 S
H690 C678 0.960 . S
H691 C678 0.962 . S
H692 C678 0.960 . S
H693 C679 0.961 . S
H694 C679 0.961 . S
H695 C679 0.961 . S
H696 C680 0.931 . S
H697 C685 0.930 . S
H698 C686 0.956 . S
H699 C686 0.961 . S
H700 C686 0.961 . S
H701 C687 0.958 . S
H702 C687 0.961 . S
H703 C687 0.960 . S
C704 C705 1.391 . S
C704 C706 1.394 . S
C704 H720 0.931 . S
C705 C704 1.391 . S
C705 C709 1.376 . S
C706 C704 1.394 . S
C706 C707 1.369 . S
C706 C710 1.531 . S
C707 C706 1.369 . S
C707 C708 1.410 . S
C707 C715 1.503 . S
C708 C707 1.410 . S
C708 C709 1.392 . S
C708 C711 1.511 . S
C709 C705 1.376 . S
C709 C708 1.392 . S
C709 H721 0.929 . S
C710 C706 1.531 . S
C710 H722 0.960 . S
C710 H723 0.962 . S
C710 H724 0.960 . S
C711 C708 1.511 . S
C711 H725 0.961 . S
C711 H726 0.961 . S
C711 H727 0.961 . S
C712 C713 1.370 1_554 S
C712 C714 1.363 . S
C712 H728 0.931 . S
C713 C712 1.370 1_556 S
C713 C717 1.408 1_556 S
C714 C712 1.363 . S
C714 C715 1.370 . S
C714 C718 1.524 . S
C715 C707 1.503 . S
C715 C714 1.370 . S
C715 C716 1.403 . S
C716 C715 1.403 . S
C716 C717 1.404 . S
C716 C719 1.539 . S
C717 C713 1.408 1_554 S
C717 C716 1.404 . S
C717 H729 0.940 . S
C718 C714 1.524 . S
C718 H730 0.956 . S
C718 H731 0.961 . S
C718 H732 0.961 . S
C719 C716 1.539 . S
C719 H733 0.958 . S
C719 H734 0.961 . S
C719 H735 0.960 . S
H720 C704 0.931 . S
H721 C709 0.929 . S
H722 C710 0.960 . S
H723 C710 0.962 . S
H724 C710 0.960 . S
H725 C711 0.961 . S
H726 C711 0.961 . S
H727 C711 0.961 . S
H728 C712 0.931 . S
H729 C717 0.940 . S
H730 C718 0.956 . S
H731 C718 0.961 . S
H732 C718 0.961 . S
H733 C719 0.958 . S
H734 C719 0.961 . S
H735 C719 0.960 . S
C736 C737 1.391 . S
C736 C738 1.394 . S
C736 H752 0.931 . S
C737 C736 1.391 . S
C737 C741 1.376 . S
C738 C736 1.394 . S
C738 C739 1.369 . S
C738 C742 1.531 . S
C739 C738 1.369 . S
C739 C740 1.410 . S
C739 C747 1.503 . S
C740 C739 1.410 . S
C740 C741 1.392 . S
C740 C743 1.511 . S
C741 C737 1.376 . S
C741 C740 1.392 . S
C741 H753 0.929 . S
C742 C738 1.531 . S
C742 H754 0.960 . S
C742 H755 0.962 . S
C742 H756 0.960 . S
C743 C740 1.511 . S
C743 H757 0.961 . S
C743 H758 0.961 . S
C743 H759 0.961 . S
C744 C745 1.370 . S
C744 C746 1.363 . S
C744 H760 0.931 . S
C745 C744 1.370 . S
C745 C749 1.408 . S
C746 C744 1.363 . S
C746 C747 1.370 . S
C746 C750 1.524 . S
C747 C739 1.503 . S
C747 C746 1.370 . S
C747 C748 1.403 . S
C748 C747 1.403 . S
C748 C749 1.404 . S
C748 C751 1.539 . S
C749 C745 1.408 . S
C749 C748 1.404 . S
C749 H761 0.930 . S
C750 C746 1.524 . S
C750 H762 0.956 . S
C750 H763 0.961 . S
C750 H764 0.961 . S
C751 C748 1.539 . S
C751 H765 0.958 . S
C751 H766 0.961 . S
C751 H767 0.960 . S
H752 C736 0.931 . S
H753 C741 0.929 . S
H754 C742 0.960 . S
H755 C742 0.962 . S
H756 C742 0.960 . S
H757 C743 0.961 . S
H758 C743 0.961 . S
H759 C743 0.961 . S
H760 C744 0.931 . S
H761 C749 0.930 . S
H762 C750 0.956 . S
H763 C750 0.961 . S
H764 C750 0.961 . S
H765 C751 0.958 . S
H766 C751 0.961 . S
H767 C751 0.960 . S
C768 C769 1.391 . S
C768 C770 1.394 . S
C768 H784 0.931 . S
C769 C768 1.391 . S
C769 C773 1.376 . S
C770 C768 1.394 . S
C770 C771 1.369 . S
C770 C774 1.531 . S
C771 C770 1.369 . S
C771 C772 1.410 . S
C771 C779 1.503 . S
C772 C771 1.410 . S
C772 C773 1.392 . S
C772 C775 1.511 . S
C773 C769 1.376 . S
C773 C772 1.392 . S
C773 H785 0.929 . S
C774 C770 1.531 . S
C774 H786 0.960 . S
C774 H787 0.962 . S
C774 H788 0.960 . S
C775 C772 1.511 . S
C775 H789 0.961 . S
C775 H790 0.961 . S
C775 H791 0.961 . S
C776 C777 1.370 . S
C776 C778 1.363 . S
C776 H792 0.931 . S
C777 C776 1.370 . S
C777 C781 1.408 . S
C778 C776 1.363 . S
C778 C779 1.370 . S
C778 C782 1.524 . S
C779 C771 1.503 . S
C779 C778 1.370 . S
C779 C780 1.403 . S
C780 C779 1.403 . S
C780 C781 1.404 . S
C780 C783 1.539 . S
C781 C777 1.408 . S
C781 C780 1.404 . S
C781 H793 0.930 . S
C782 C778 1.524 . S
C782 H794 0.956 . S
C782 H795 0.961 . S
C782 H796 0.961 . S
C783 C780 1.539 . S
C783 H797 0.958 . S
C783 H798 0.961 . S
C783 H799 0.960 . S
H784 C768 0.931 . S
H785 C773 0.929 . S
H786 C774 0.960 . S
H787 C774 0.962 . S
H788 C774 0.960 . S
H789 C775 0.961 . S
H790 C775 0.961 . S
H791 C775 0.961 . S
H792 C776 0.931 . S
H793 C781 0.930 . S
H794 C782 0.956 . S
H795 C782 0.961 . S
H796 C782 0.961 . S
H797 C783 0.958 . S
H798 C783 0.961 . S
H799 C783 0.960 . S
C800 C801 1.391 . S
C800 C802 1.394 . S
C800 H816 0.931 . S
C801 C800 1.391 . S
C801 C805 1.376 . S
C802 C800 1.394 . S
C802 C803 1.369 . S
C802 C806 1.531 . S
C803 C802 1.369 . S
C803 C804 1.410 . S
C803 C811 1.503 . S
C804 C803 1.410 . S
C804 C805 1.392 . S
C804 C807 1.511 . S
C805 C801 1.376 . S
C805 C804 1.392 . S
C805 H817 0.929 . S
C806 C802 1.531 . S
C806 H818 0.960 . S
C806 H819 0.962 . S
C806 H820 0.960 . S
C807 C804 1.511 . S
C807 H821 0.961 . S
C807 H822 0.961 . S
C807 H823 0.961 . S
C808 C809 1.370 . S
C808 C810 1.363 . S
C808 H824 0.931 . S
C809 C808 1.370 . S
C809 C813 1.408 . S
C810 C808 1.363 . S
C810 C811 1.370 . S
C810 C814 1.524 . S
C811 C803 1.503 . S
C811 C810 1.370 . S
C811 C812 1.403 . S
C812 C811 1.403 . S
C812 C813 1.404 . S
C812 C815 1.539 . S
C813 C809 1.408 . S
C813 C812 1.404 . S
C813 H825 0.930 . S
C814 C810 1.524 . S
C814 H826 0.956 . S
C814 H827 0.961 . S
C814 H828 0.961 . S
C815 C812 1.539 . S
C815 H829 0.958 . S
C815 H830 0.961 . S
C815 H831 0.960 . S
H816 C800 0.931 . S
H817 C805 0.929 . S
H818 C806 0.960 . S
H819 C806 0.962 . S
H820 C806 0.960 . S
H821 C807 0.961 . S
H822 C807 0.961 . S
H823 C807 0.961 . S
H824 C808 0.931 . S
H825 C813 0.930 . S
H826 C814 0.956 . S
H827 C814 0.961 . S
H828 C814 0.961 . S
H829 C815 0.958 . S
H830 C815 0.961 . S
H831 C815 0.960 . S
C832 C833 1.391 . S
C832 C834 1.394 . S
C832 H848 0.931 . S
C833 C832 1.391 . S
C833 C837 1.376 . S
C834 C832 1.394 . S
C834 C835 1.369 . S
C834 C838 1.531 . S
C835 C834 1.369 . S
C835 C836 1.410 . S
C835 C843 1.503 . S
C836 C835 1.410 . S
C836 C837 1.392 . S
C836 C839 1.511 . S
C837 C833 1.376 . S
C837 C836 1.392 . S
C837 H849 0.929 . S
C838 C834 1.531 . S
C838 H850 0.960 . S
C838 H851 0.962 . S
C838 H852 0.960 . S
C839 C836 1.511 . S
C839 H853 0.961 . S
C839 H854 0.961 . S
C839 H855 0.961 . S
C840 C841 1.370 1_556 S
C840 C842 1.363 . S
C840 H856 0.931 . S
C841 C840 1.370 1_554 S
C841 C845 1.408 1_554 S
C842 C840 1.363 . S
C842 C843 1.370 . S
C842 C846 1.524 . S
C843 C835 1.503 . S
C843 C842 1.370 . S
C843 C844 1.403 . S
C844 C843 1.403 . S
C844 C845 1.404 . S
C844 C847 1.539 . S
C845 C841 1.408 1_556 S
C845 C844 1.404 . S
C845 H857 0.930 1_556 S
C846 C842 1.524 . S
C846 H858 0.956 . S
C846 H859 0.961 . S
C846 H860 0.961 . S
C847 C844 1.539 . S
C847 H861 0.958 . S
C847 H862 0.961 . S
C847 H863 0.960 . S
H848 C832 0.931 . S
H849 C837 0.929 . S
H850 C838 0.960 . S
H851 C838 0.962 . S
H852 C838 0.960 . S
H853 C839 0.961 . S
H854 C839 0.961 . S
H855 C839 0.961 . S
H856 C840 0.931 . S
H857 C845 0.930 1_554 S
H858 C846 0.956 . S
H859 C846 0.961 . S
H860 C846 0.961 . S
H861 C847 0.958 . S
H862 C847 0.961 . S
H863 C847 0.960 . S
C864 C865 1.391 . S
C864 C866 1.394 . S
C864 H880 0.931 . S
C865 C864 1.391 . S
C865 C869 1.376 . S
C866 C864 1.394 . S
C866 C867 1.369 . S
C866 C870 1.531 . S
C867 C866 1.369 . S
C867 C868 1.410 . S
C867 C875 1.503 . S
C868 C867 1.410 . S
C868 C869 1.392 . S
C868 C871 1.511 . S
C869 C865 1.376 . S
C869 C868 1.392 . S
C869 H881 0.929 1_554 S
C870 C866 1.531 . S
C870 H882 0.960 . S
C870 H883 0.962 . S
C870 H884 0.960 . S
C871 C868 1.511 . S
C871 H885 0.961 . S
C871 H886 0.961 . S
C871 H887 0.961 . S
C872 C873 1.370 . S
C872 C874 1.363 . S
C872 H888 0.931 . S
C873 C872 1.370 . S
C873 C877 1.408 . S
C874 C872 1.363 . S
C874 C875 1.370 . S
C874 C878 1.524 . S
C875 C867 1.503 . S
C875 C874 1.370 . S
C875 C876 1.403 . S
C876 C875 1.403 . S
C876 C877 1.404 . S
C876 C879 1.539 . S
C877 C873 1.408 . S
C877 C876 1.404 . S
C877 H889 0.930 . S
C878 C874 1.524 . S
C878 H890 0.956 . S
C878 H891 0.961 . S
C878 H892 0.961 . S
C879 C876 1.539 . S
C879 H893 0.958 . S
C879 H894 0.961 . S
C879 H895 0.960 . S
H880 C864 0.931 . S
H881 C869 0.929 1_556 S
H882 C870 0.960 . S
H883 C870 0.962 . S
H884 C870 0.960 . S
H885 C871 0.961 . S
H886 C871 0.961 . S
H887 C871 0.961 . S
H888 C872 0.931 . S
H889 C877 0.930 . S
H890 C878 0.956 . S
H891 C878 0.961 . S
H892 C878 0.961 . S
H893 C879 0.958 . S
H894 C879 0.961 . S
H895 C879 0.960 . S
C896 C897 1.391 . S
C896 C898 1.394 . S
C896 H912 0.931 . S
C897 C896 1.391 . S
C897 C901 1.376 . S
C898 C896 1.394 . S
C898 C899 1.369 . S
C898 C902 1.531 . S
C899 C898 1.369 . S
C899 C900 1.410 . S
C899 C907 1.503 . S
C900 C899 1.410 . S
C900 C901 1.392 . S
C900 C903 1.511 . S
C901 C897 1.376 . S
C901 C900 1.392 . S
C901 H913 0.929 . S
C902 C898 1.531 . S
C902 H914 0.960 . S
C902 H915 0.962 . S
C902 H916 0.960 . S
C903 C900 1.511 . S
C903 H917 0.961 . S
C903 H918 0.961 . S
C903 H919 0.961 . S
C904 C905 1.370 . S
C904 C906 1.363 . S
C904 H920 0.931 . S
C905 C904 1.370 . S
C905 C909 1.408 . S
C906 C904 1.363 . S
C906 C907 1.370 . S
C906 C910 1.524 . S
C907 C899 1.503 . S
C907 C906 1.370 . S
C907 C908 1.403 . S
C908 C907 1.403 . S
C908 C909 1.404 . S
C908 C911 1.539 . S
C909 C905 1.408 . S
C909 C908 1.404 . S
C909 H921 0.930 . S
C910 C906 1.524 . S
C910 H922 0.956 . S
C910 H923 0.961 . S
C910 H924 0.961 . S
C911 C908 1.539 . S
C911 H925 0.958 . S
C911 H926 0.961 . S
C911 H927 0.960 . S
H912 C896 0.931 . S
H913 C901 0.929 . S
H914 C902 0.960 . S
H915 C902 0.962 . S
H916 C902 0.960 . S
H917 C903 0.961 . S
H918 C903 0.961 . S
H919 C903 0.961 . S
H920 C904 0.931 . S
H921 C909 0.930 . S
H922 C910 0.956 . S
H923 C910 0.961 . S
H924 C910 0.961 . S
H925 C911 0.958 . S
H926 C911 0.961 . S
H927 C911 0.960 . S
C928 C929 1.391 . S
C928 C930 1.394 . S
C928 H944 0.931 . S
C929 C928 1.391 . S
C929 C933 1.376 . S
C930 C928 1.394 . S
C930 C931 1.369 . S
C930 C934 1.531 . S
C931 C930 1.369 . S
C931 C932 1.410 . S
C931 C939 1.503 . S
C932 C931 1.410 . S
C932 C933 1.392 . S
C932 C935 1.511 . S
C933 C929 1.376 . S
C933 C932 1.392 . S
C933 H945 0.929 . S
C934 C930 1.531 . S
C934 H946 0.960 . S
C934 H947 0.962 . S
C934 H948 0.960 . S
C935 C932 1.511 . S
C935 H949 0.961 . S
C935 H950 0.961 . S
C935 H951 0.961 . S
C936 C937 1.370 . S
C936 C938 1.363 . S
C936 H952 0.931 . S
C937 C936 1.370 . S
C937 C941 1.408 . S
C938 C936 1.363 . S
C938 C939 1.370 . S
C938 C942 1.524 . S
C939 C931 1.503 . S
C939 C938 1.370 . S
C939 C940 1.403 . S
C940 C939 1.403 . S
C940 C941 1.404 . S
C940 C943 1.539 . S
C941 C937 1.408 . S
C941 C940 1.404 . S
C941 H953 0.930 . S
C942 C938 1.524 . S
C942 H954 0.956 . S
C942 H955 0.961 . S
C942 H956 0.961 . S
C943 C940 1.539 . S
C943 H957 0.958 . S
C943 H958 0.961 . S
C943 H959 0.960 . S
H944 C928 0.931 . S
H945 C933 0.929 . S
H946 C934 0.960 . S
H947 C934 0.962 . S
H948 C934 0.960 . S
H949 C935 0.961 . S
H950 C935 0.961 . S
H951 C935 0.961 . S
H952 C936 0.931 . S
H953 C941 0.930 . S
H954 C942 0.956 . S
H955 C942 0.961 . S
H956 C942 0.961 . S
H957 C943 0.958 . S
H958 C943 0.961 . S
H959 C943 0.960 . S
C960 C961 1.391 1_556 S
C960 C962 1.394 . S
C960 H976 0.931 . S
C961 C960 1.391 1_554 S
C961 C965 1.376 1_554 S
C962 C960 1.394 . S
C962 C963 1.369 . S
C962 C966 1.531 . S
C963 C962 1.369 . S
C963 C964 1.410 . S
C963 C971 1.503 . S
C964 C963 1.410 . S
C964 C965 1.392 . S
C964 C967 1.511 . S
C965 C961 1.376 1_556 S
C965 C964 1.392 . S
C965 H977 0.929 . S
C966 C962 1.531 . S
C966 H978 0.960 . S
C966 H979 0.962 . S
C966 H980 0.960 . S
C967 C964 1.511 . S
C967 H981 0.961 . S
C967 H982 0.961 . S
C967 H983 0.961 . S
C968 C969 1.370 . S
C968 C970 1.363 . S
C968 H984 0.931 . S
C969 C968 1.370 . S
C969 C973 1.408 . S
C970 C968 1.363 . S
C970 C971 1.370 . S
C970 C974 1.524 . S
C971 C963 1.503 . S
C971 C970 1.370 . S
C971 C972 1.403 . S
C972 C971 1.403 . S
C972 C973 1.404 . S
C972 C975 1.539 . S
C973 C969 1.408 . S
C973 C972 1.404 . S
C973 H985 0.930 . S
C974 C970 1.524 . S
C974 H986 0.956 . S
C974 H987 0.961 . S
C974 H988 0.961 . S
C975 C972 1.539 . S
C975 H989 0.958 . S
C975 H990 0.961 . S
C975 H991 0.960 . S
H976 C960 0.931 . S
H977 C965 0.929 . S
H978 C966 0.960 . S
H979 C966 0.962 . S
H980 C966 0.960 . S
H981 C967 0.961 . S
H982 C967 0.961 . S
H983 C967 0.961 . S
H984 C968 0.931 . S
H985 C973 0.930 . S
H986 C974 0.956 . S
H987 C974 0.961 . S
H988 C974 0.961 . S
H989 C975 0.958 . S
H990 C975 0.961 . S
H991 C975 0.960 . S
C992 C993 1.391 . S
C992 C994 1.394 . S
C992 H1008 0.931 . S
C993 C992 1.391 . S
C993 C997 1.376 . S
C994 C992 1.394 . S
C994 C995 1.369 . S
C994 C998 1.531 . S
C995 C994 1.369 . S
C995 C996 1.410 . S
C995 C1003 1.503 . S
C996 C995 1.410 . S
C996 C997 1.392 . S
C996 C999 1.511 . S
C997 C993 1.376 . S
C997 C996 1.392 . S
C997 H1009 0.929 . S
C998 C994 1.531 . S
C998 H1010 0.960 . S
C998 H1011 0.962 . S
C998 H1012 0.960 . S
C999 C996 1.511 . S
C999 H1013 0.961 . S
C999 H1014 0.961 . S
C999 H1015 0.961 . S
C1000 C1001 1.370 . S
C1000 C1002 1.363 . S
C1000 H1016 0.931 . S
C1001 C1000 1.370 . S
C1001 C1005 1.408 . S
C1002 C1000 1.363 . S
C1002 C1003 1.370 . S
C1002 C1006 1.524 . S
C1003 C995 1.503 . S
C1003 C1002 1.370 . S
C1003 C1004 1.403 . S
C1004 C1003 1.403 . S
C1004 C1005 1.404 . S
C1004 C1007 1.539 . S
C1005 C1001 1.408 . S
C1005 C1004 1.404 . S
C1005 H1017 0.930 . S
C1006 C1002 1.524 . S
C1006 H1018 0.956 . S
C1006 H1019 0.961 . S
C1006 H1020 0.961 . S
C1007 C1004 1.539 . S
C1007 H1021 0.958 . S
C1007 H1022 0.961 . S
C1007 H1023 0.960 . S
H1008 C992 0.931 . S
H1009 C997 0.929 . S
H1010 C998 0.960 . S
H1011 C998 0.962 . S
H1012 C998 0.960 . S
H1013 C999 0.961 . S
H1014 C999 0.961 . S
H1015 C999 0.961 . S
H1016 C1000 0.931 . S
H1017 C1005 0.930 . S
H1018 C1006 0.956 . S
H1019 C1006 0.961 . S
H1020 C1006 0.961 . S
H1021 C1007 0.958 . S
H1022 C1007 0.961 . S
H1023 C1007 0.960 . S
C1024 C1025 1.391 . S
C1024 C1026 1.394 . S
C1024 H1040 0.931 . S
C1025 C1024 1.391 . S
C1025 C1029 1.376 . S
C1026 C1024 1.394 . S
C1026 C1027 1.369 . S
C1026 C1030 1.531 . S
C1027 C1026 1.369 . S
C1027 C1028 1.410 . S
C1027 C1035 1.503 . S
C1028 C1027 1.410 . S
C1028 C1029 1.392 . S
C1028 C1031 1.511 . S
C1029 C1025 1.376 . S
C1029 C1028 1.392 . S
C1029 H1041 0.929 . S
C1030 C1026 1.531 . S
C1030 H1042 0.960 . S
C1030 H1043 0.962 . S
C1030 H1044 0.960 . S
C1031 C1028 1.511 . S
C1031 H1045 0.961 . S
C1031 H1046 0.961 . S
C1031 H1047 0.961 . S
C1032 C1033 1.370 . S
C1032 C1034 1.363 . S
C1032 H1048 0.931 . S
C1033 C1032 1.370 . S
C1033 C1037 1.408 . S
C1034 C1032 1.363 . S
C1034 C1035 1.370 . S
C1034 C1038 1.524 . S
C1035 C1027 1.503 . S
C1035 C1034 1.370 . S
C1035 C1036 1.403 . S
C1036 C1035 1.403 . S
C1036 C1037 1.404 . S
C1036 C1039 1.539 . S
C1037 C1033 1.408 . S
C1037 C1036 1.404 . S
C1037 H1049 0.930 . S
C1038 C1034 1.524 . S
C1038 H1050 0.956 . S
C1038 H1051 0.961 . S
C1038 H1052 0.961 . S
C1039 C1036 1.539 . S
C1039 H1053 0.958 . S
C1039 H1054 0.961 . S
C1039 H1055 0.960 . S
H1040 C1024 0.931 . S
H1041 C1029 0.929 . S
H1042 C1030 0.960 . S
H1043 C1030 0.962 . S
H1044 C1030 0.960 . S
H1045 C1031 0.961 . S
H1046 C1031 0.961 . S
H1047 C1031 0.961 . S
H1048 C1032 0.931 . S
H1049 C1037 0.930 . S
H1050 C1038 0.956 . S
H1051 C1038 0.961 . S
H1052 C1038 0.961 . S
H1053 C1039 0.958 . S
H1054 C1039 0.961 . S
H1055 C1039 0.960 . S
C1056 C1057 1.391 . S
C1056 C1058 1.394 . S
C1056 H1072 0.931 . S
C1057 C1056 1.391 . S
C1057 C1061 1.376 . S
C1058 C1056 1.394 . S
C1058 C1059 1.369 . S
C1058 C1062 1.531 . S
C1059 C1058 1.369 . S
C1059 C1060 1.410 . S
C1059 C1067 1.503 . S
C1060 C1059 1.410 . S
C1060 C1061 1.392 . S
C1060 C1063 1.511 . S
C1061 C1057 1.376 . S
C1061 C1060 1.392 . S
C1061 H1073 0.929 . S
C1062 C1058 1.531 . S
C1062 H1074 0.960 . S
C1062 H1075 0.962 . S
C1062 H1076 0.960 . S
C1063 C1060 1.511 . S
C1063 H1077 0.961 . S
C1063 H1078 0.961 . S
C1063 H1079 0.961 . S
C1064 C1065 1.370 . S
C1064 C1066 1.363 . S
C1064 H1080 0.931 . S
C1065 C1064 1.370 . S
C1065 C1069 1.408 . S
C1066 C1064 1.363 . S
C1066 C1067 1.370 . S
C1066 C1070 1.524 . S
C1067 C1059 1.503 . S
C1067 C1066 1.370 . S
C1067 C1068 1.403 . S
C1068 C1067 1.403 . S
C1068 C1069 1.404 . S
C1068 C1071 1.539 . S
C1069 C1065 1.408 . S
C1069 C1068 1.404 . S
C1069 H1081 0.930 . S
C1070 C1066 1.524 . S
C1070 H1082 0.956 . S
C1070 H1083 0.961 . S
C1070 H1084 0.961 . S
C1071 C1068 1.539 . S
C1071 H1085 0.958 . S
C1071 H1086 0.961 . S
C1071 H1087 0.960 . S
H1072 C1056 0.931 . S
H1073 C1061 0.929 . S
H1074 C1062 0.960 . S
H1075 C1062 0.962 . S
H1076 C1062 0.960 . S
H1077 C1063 0.961 . S
H1078 C1063 0.961 . S
H1079 C1063 0.961 . S
H1080 C1064 0.931 . S
H1081 C1069 0.930 . S
H1082 C1070 0.956 . S
H1083 C1070 0.961 . S
H1084 C1070 0.961 . S
H1085 C1071 0.958 . S
H1086 C1071 0.961 . S
H1087 C1071 0.960 . S
C1088 C1089 1.391 . S
C1088 C1090 1.394 . S
C1088 H1104 0.931 . S
C1089 C1088 1.391 . S
C1089 C1093 1.376 . S
C1090 C1088 1.394 . S
C1090 C1091 1.369 . S
C1090 C1094 1.531 . S
C1091 C1090 1.369 . S
C1091 C1092 1.410 . S
C1091 C1099 1.503 . S
C1092 C1091 1.410 . S
C1092 C1093 1.392 . S
C1092 C1095 1.511 . S
C1093 C1089 1.376 . S
C1093 C1092 1.392 . S
C1093 H1105 0.929 . S
C1094 C1090 1.531 . S
C1094 H1106 0.960 . S
C1094 H1107 0.962 . S
C1094 H1108 0.960 . S
C1095 C1092 1.511 . S
C1095 H1109 0.961 . S
C1095 H1110 0.961 . S
C1095 H1111 0.961 . S
C1096 C1097 1.370 1_554 S
C1096 C1098 1.363 . S
C1096 H1112 0.931 . S
C1097 C1096 1.370 1_556 S
C1097 C1101 1.408 1_556 S
C1098 C1096 1.363 . S
C1098 C1099 1.370 . S
C1098 C1102 1.524 . S
C1099 C1091 1.503 . S
C1099 C1098 1.370 . S
C1099 C1100 1.403 . S
C1100 C1099 1.403 . S
C1100 C1101 1.404 . S
C1100 C1103 1.539 . S
C1101 C1097 1.408 1_554 S
C1101 C1100 1.404 . S
C1101 H1113 0.930 1_554 S
C1102 C1098 1.524 . S
C1102 H1114 0.956 . S
C1102 H1115 0.961 . S
C1102 H1116 0.961 . S
C1103 C1100 1.539 . S
C1103 H1117 0.958 . S
C1103 H1118 0.961 . S
C1103 H1119 0.960 . S
H1104 C1088 0.931 . S
H1105 C1093 0.929 . S
H1106 C1094 0.960 . S
H1107 C1094 0.962 . S
H1108 C1094 0.960 . S
H1109 C1095 0.961 . S
H1110 C1095 0.961 . S
H1111 C1095 0.961 . S
H1112 C1096 0.931 . S
H1113 C1101 0.930 1_556 S
H1114 C1102 0.956 . S
H1115 C1102 0.961 . S
H1116 C1102 0.961 . S
H1117 C1103 0.958 . S
H1118 C1103 0.961 . S
H1119 C1103 0.960 . S
C1120 C1121 1.391 . S
C1120 C1122 1.394 . S
C1120 H1136 0.931 1_556 S
C1121 C1120 1.391 . S
C1121 C1125 1.376 . S
C1122 C1120 1.394 . S
C1122 C1123 1.369 . S
C1122 C1126 1.531 . S
C1123 C1122 1.369 . S
C1123 C1124 1.410 . S
C1123 C1131 1.503 . S
C1124 C1123 1.410 . S
C1124 C1125 1.392 . S
C1124 C1127 1.511 . S
C1125 C1121 1.376 . S
C1125 C1124 1.392 . S
C1125 H1137 0.929 . S
C1126 C1122 1.531 . S
C1126 H1138 0.960 . S
C1126 H1139 0.962 . S
C1126 H1140 0.960 . S
C1127 C1124 1.511 . S
C1127 H1141 0.961 . S
C1127 H1142 0.961 . S
C1127 H1143 0.961 . S
C1128 C1129 1.370 . S
C1128 C1130 1.363 . S
C1128 H1144 0.931 . S
C1129 C1128 1.370 . S
C1129 C1133 1.408 . S
C1130 C1128 1.363 . S
C1130 C1131 1.370 . S
C1130 C1134 1.524 . S
C1131 C1123 1.503 . S
C1131 C1130 1.370 . S
C1131 C1132 1.403 . S
C1132 C1131 1.403 . S
C1132 C1133 1.404 . S
C1132 C1135 1.539 . S
C1133 C1129 1.408 . S
C1133 C1132 1.404 . S
C1133 H1145 0.930 . S
C1134 C1130 1.524 . S
C1134 H1146 0.956 . S
C1134 H1147 0.961 . S
C1134 H1148 0.961 . S
C1135 C1132 1.539 . S
C1135 H1149 0.958 . S
C1135 H1150 0.961 . S
C1135 H1151 0.960 . S
H1136 C1120 0.931 1_554 S
H1137 C1125 0.929 . S
H1138 C1126 0.960 . S
H1139 C1126 0.962 . S
H1140 C1126 0.960 . S
H1141 C1127 0.961 . S
H1142 C1127 0.961 . S
H1143 C1127 0.961 . S
H1144 C1128 0.931 . S
H1145 C1133 0.930 . S
H1146 C1134 0.956 . S
H1147 C1134 0.961 . S
H1148 C1134 0.961 . S
H1149 C1135 0.958 . S
H1150 C1135 0.961 . S
H1151 C1135 0.960 . S
C1152 C1153 1.391 . S
C1152 C1154 1.394 . S
C1152 H1168 0.931 . S
C1153 C1152 1.391 . S
C1153 C1157 1.376 . S
C1154 C1152 1.394 . S
C1154 C1155 1.369 . S
C1154 C1158 1.531 . S
C1155 C1154 1.369 . S
C1155 C1156 1.410 . S
C1155 C1163 1.503 . S
C1156 C1155 1.410 . S
C1156 C1157 1.392 . S
C1156 C1159 1.511 . S
C1157 C1153 1.376 . S
C1157 C1156 1.392 . S
C1157 H1169 0.929 . S
C1158 C1154 1.531 . S
C1158 H1170 0.960 . S
C1158 H1171 0.962 . S
C1158 H1172 0.960 . S
C1159 C1156 1.511 . S
C1159 H1173 0.961 . S
C1159 H1174 0.961 . S
C1159 H1175 0.961 . S
C1160 C1161 1.370 . S
C1160 C1162 1.363 . S
C1160 H1176 0.931 . S
C1161 C1160 1.370 . S
C1161 C1165 1.408 . S
C1162 C1160 1.363 . S
C1162 C1163 1.370 . S
C1162 C1166 1.524 . S
C1163 C1155 1.503 . S
C1163 C1162 1.370 . S
C1163 C1164 1.403 . S
C1164 C1163 1.403 . S
C1164 C1165 1.404 . S
C1164 C1167 1.539 . S
C1165 C1161 1.408 . S
C1165 C1164 1.404 . S
C1165 H1177 0.930 . S
C1166 C1162 1.524 . S
C1166 H1178 0.956 . S
C1166 H1179 0.961 . S
C1166 H1180 0.961 . S
C1167 C1164 1.539 . S
C1167 H1181 0.958 . S
C1167 H1182 0.961 . S
C1167 H1183 0.960 . S
H1168 C1152 0.931 . S
H1169 C1157 0.929 . S
H1170 C1158 0.960 . S
H1171 C1158 0.962 . S
H1172 C1158 0.960 . S
H1173 C1159 0.961 . S
H1174 C1159 0.961 . S
H1175 C1159 0.961 . S
H1176 C1160 0.931 . S
H1177 C1165 0.930 . S
H1178 C1166 0.956 . S
H1179 C1166 0.961 . S
H1180 C1166 0.961 . S
H1181 C1167 0.958 . S
H1182 C1167 0.961 . S
H1183 C1167 0.960 . S
C1184 C1185 1.391 . S
C1184 C1186 1.394 . S
C1184 H1200 0.931 . S
C1185 C1184 1.391 . S
C1185 C1189 1.376 . S
C1186 C1184 1.394 . S
C1186 C1187 1.369 . S
C1186 C1190 1.531 . S
C1187 C1186 1.369 . S
C1187 C1188 1.410 . S
C1187 C1195 1.503 . S
C1188 C1187 1.410 . S
C1188 C1189 1.392 . S
C1188 C1191 1.511 . S
C1189 C1185 1.376 . S
C1189 C1188 1.392 . S
C1189 H1201 0.929 . S
C1190 C1186 1.531 . S
C1190 H1202 0.960 . S
C1190 H1203 0.962 . S
C1190 H1204 0.960 . S
C1191 C1188 1.511 . S
C1191 H1205 0.961 . S
C1191 H1206 0.961 . S
C1191 H1207 0.961 . S
C1192 C1193 1.370 . S
C1192 C1194 1.363 . S
C1192 H1208 0.931 . S
C1193 C1192 1.370 . S
C1193 C1197 1.408 . S
C1194 C1192 1.363 . S
C1194 C1195 1.370 . S
C1194 C1198 1.524 . S
C1195 C1187 1.503 . S
C1195 C1194 1.370 . S
C1195 C1196 1.403 . S
C1196 C1195 1.403 . S
C1196 C1197 1.404 . S
C1196 C1199 1.539 . S
C1197 C1193 1.408 . S
C1197 C1196 1.404 . S
C1197 H1209 0.930 . S
C1198 C1194 1.524 . S
C1198 H1210 0.956 . S
C1198 H1211 0.961 . S
C1198 H1212 0.961 . S
C1199 C1196 1.539 . S
C1199 H1213 0.958 . S
C1199 H1214 0.961 . S
C1199 H1215 0.960 . S
H1200 C1184 0.931 . S
H1201 C1189 0.929 . S
H1202 C1190 0.960 . S
H1203 C1190 0.962 . S
H1204 C1190 0.960 . S
H1205 C1191 0.961 . S
H1206 C1191 0.961 . S
H1207 C1191 0.961 . S
H1208 C1192 0.931 . S
H1209 C1197 0.930 . S
H1210 C1198 0.956 . S
H1211 C1198 0.961 . S
H1212 C1198 0.961 . S
H1213 C1199 0.958 . S
H1214 C1199 0.961 . S
H1215 C1199 0.960 . S
C1216 C1217 1.391 . S
C1216 C1218 1.394 . S
C1216 H1232 0.931 . S
C1217 C1216 1.391 . S
C1217 C1221 1.376 . S
C1218 C1216 1.394 . S
C1218 C1219 1.369 . S
C1218 C1222 1.531 . S
C1219 C1218 1.369 . S
C1219 C1220 1.410 . S
C1219 C1227 1.503 . S
C1220 C1219 1.410 . S
C1220 C1221 1.392 . S
C1220 C1223 1.511 . S
C1221 C1217 1.376 . S
C1221 C1220 1.392 . S
C1221 H1233 0.929 . S
C1222 C1218 1.531 . S
C1222 H1234 0.960 . S
C1222 H1235 0.962 . S
C1222 H1236 0.960 . S
C1223 C1220 1.511 . S
C1223 H1237 0.961 . S
C1223 H1238 0.961 . S
C1223 H1239 0.961 . S
C1224 C1225 1.370 . S
C1224 C1226 1.363 . S
C1224 H1240 0.931 . S
C1225 C1224 1.370 . S
C1225 C1229 1.408 . S
C1226 C1224 1.363 . S
C1226 C1227 1.370 . S
C1226 C1230 1.524 . S
C1227 C1219 1.503 . S
C1227 C1226 1.370 . S
C1227 C1228 1.403 . S
C1228 C1227 1.403 . S
C1228 C1229 1.404 . S
C1228 C1231 1.539 . S
C1229 C1225 1.408 . S
C1229 C1228 1.404 . S
C1229 H1241 0.930 . S
C1230 C1226 1.524 . S
C1230 H1242 0.956 . S
C1230 H1243 0.961 . S
C1230 H1244 0.961 . S
C1231 C1228 1.539 . S
C1231 H1245 0.958 . S
C1231 H1246 0.961 . S
C1231 H1247 0.960 . S
H1232 C1216 0.931 . S
H1233 C1221 0.929 . S
H1234 C1222 0.960 . S
H1235 C1222 0.962 . S
H1236 C1222 0.960 . S
H1237 C1223 0.961 . S
H1238 C1223 0.961 . S
H1239 C1223 0.961 . S
H1240 C1224 0.931 . S
H1241 C1229 0.930 . S
H1242 C1230 0.956 . S
H1243 C1230 0.961 . S
H1244 C1230 0.961 . S
H1245 C1231 0.958 . S
H1246 C1231 0.961 . S
H1247 C1231 0.960 . S
C1248 C1249 1.391 . S
C1248 C1250 1.394 . S
C1248 H1264 0.931 . S
C1249 C1248 1.391 . S
C1249 C1253 1.376 . S
C1250 C1248 1.394 . S
C1250 C1251 1.369 . S
C1250 C1254 1.531 . S
C1251 C1250 1.369 . S
C1251 C1252 1.410 . S
C1251 C1259 1.503 1_655 S
C1252 C1251 1.410 . S
C1252 C1253 1.392 . S
C1252 C1255 1.511 . S
C1253 C1249 1.376 . S
C1253 C1252 1.392 . S
C1253 H1265 0.929 . S
C1254 C1250 1.531 . S
C1254 H1266 0.960 1_655 S
C1254 H1267 0.962 . S
C1254 H1268 0.960 . S
C1255 C1252 1.511 . S
C1255 H1269 0.961 1_556 S
C1255 H1270 0.961 1_655 S
C1255 H1271 0.961 . S
C1256 C1257 1.370 . S
C1256 C1258 1.363 . S
C1256 H1272 0.931 . S
C1257 C1256 1.370 . S
C1257 C1261 1.408 . S
C1258 C1256 1.363 . S
C1258 C1259 1.370 . S
C1258 C1262 1.524 . S
C1259 C1251 1.503 1_455 S
C1259 C1258 1.370 . S
C1259 C1260 1.403 . S
C1260 C1259 1.403 . S
C1260 C1261 1.404 . S
C1260 C1263 1.539 . S
C1261 C1257 1.408 . S
C1261 C1260 1.404 . S
C1261 H1273 0.930 . S
C1262 C1258 1.524 . S
C1262 H1274 0.956 . S
C1262 H1275 0.961 1_455 S
C1262 H1276 0.961 . S
C1263 C1260 1.539 . S
C1263 H1277 0.958 . S
C1263 H1278 0.961 . S
C1263 H1279 0.970 . S
H1264 C1248 0.931 . S
H1265 C1253 0.929 . S
H1266 C1254 0.960 1_455 S
H1267 C1254 0.962 . S
H1268 C1254 0.960 . S
H1269 C1255 0.961 1_554 S
H1270 C1255 0.961 1_455 S
H1271 C1255 0.961 . S
H1272 C1256 0.931 . S
H1273 C1261 0.930 . S
H1274 C1262 0.956 . S
H1275 C1262 0.961 1_655 S
H1276 C1262 0.961 . S
H1277 C1263 0.958 . S
H1278 C1263 0.961 . S
H1279 C1263 0.970 . S
C1280 C1281 1.391 . S
C1280 C1282 1.394 . S
C1280 H1296 0.931 . S
C1281 C1280 1.391 . S
C1281 C1285 1.376 . S
C1282 C1280 1.394 . S
C1282 C1283 1.369 . S
C1282 C1286 1.531 . S
C1283 C1282 1.369 . S
C1283 C1284 1.410 . S
C1283 C1291 1.503 . S
C1284 C1283 1.410 . S
C1284 C1285 1.392 . S
C1284 C1287 1.511 . S
C1285 C1281 1.376 . S
C1285 C1284 1.392 . S
C1285 H1297 0.929 . S
C1286 C1282 1.531 . S
C1286 H1298 0.960 . S
C1286 H1299 0.962 . S
C1286 H1300 0.960 . S
C1287 C1284 1.511 . S
C1287 H1301 0.961 . S
C1287 H1302 0.961 . S
C1287 H1303 0.961 . S
C1288 C1289 1.370 . S
C1288 C1290 1.363 . S
C1288 H1304 0.931 . S
C1289 C1288 1.370 . S
C1289 C1293 1.408 . S
C1290 C1288 1.363 . S
C1290 C1291 1.370 . S
C1290 C1294 1.524 . S
C1291 C1283 1.503 . S
C1291 C1290 1.370 . S
C1291 C1292 1.403 . S
C1292 C1291 1.403 . S
C1292 C1293 1.404 . S
C1292 C1295 1.539 . S
C1293 C1289 1.408 . S
C1293 C1292 1.404 . S
C1293 H1305 0.930 . S
C1294 C1290 1.524 . S
C1294 H1306 0.956 . S
C1294 H1307 0.961 . S
C1294 H1308 0.961 . S
C1295 C1292 1.539 . S
C1295 H1309 0.958 . S
C1295 H1310 0.961 . S
C1295 H1311 0.960 . S
H1296 C1280 0.931 . S
H1297 C1285 0.929 . S
H1298 C1286 0.960 . S
H1299 C1286 0.962 . S
H1300 C1286 0.960 . S
H1301 C1287 0.961 . S
H1302 C1287 0.961 . S
H1303 C1287 0.961 . S
H1304 C1288 0.931 . S
H1305 C1293 0.930 . S
H1306 C1294 0.956 . S
H1307 C1294 0.961 . S
H1308 C1294 0.961 . S
H1309 C1295 0.958 . S
H1310 C1295 0.961 . S
H1311 C1295 0.960 . S
C1312 C1313 1.391 . S
C1312 C1314 1.394 . S
C1312 H1328 0.931 . S
C1313 C1312 1.391 . S
C1313 C1317 1.376 . S
C1314 C1312 1.394 . S
C1314 C1315 1.369 . S
C1314 C1318 1.531 . S
C1315 C1314 1.369 . S
C1315 C1316 1.410 . S
C1315 C1323 1.503 1_455 S
C1316 C1315 1.410 . S
C1316 C1317 1.392 . S
C1316 C1319 1.511 . S
C1317 C1313 1.376 . S
C1317 C1316 1.392 . S
C1317 H1329 0.929 . S
C1318 C1314 1.531 . S
C1318 H1330 0.960 1_455 S
C1318 H1331 0.962 . S
C1318 H1332 0.960 . S
C1319 C1316 1.511 . S
C1319 H1333 0.961 . S
C1319 H1334 0.961 1_455 S
C1319 H1335 0.961 . S
C1320 C1321 1.370 . S
C1320 C1322 1.363 . S
C1320 H1336 0.931 . S
C1321 C1320 1.370 . S
C1321 C1325 1.408 . S
C1322 C1320 1.363 . S
C1322 C1323 1.370 . S
C1322 C1326 1.524 . S
C1323 C1315 1.503 1_655 S
C1323 C1322 1.370 . S
C1323 C1324 1.403 . S
C1324 C1323 1.403 . S
C1324 C1325 1.404 . S
C1324 C1327 1.539 . S
C1325 C1321 1.408 . S
C1325 C1324 1.404 . S
C1325 H1337 0.930 . S
C1326 C1322 1.524 . S
C1326 H1338 0.956 . S
C1326 H1339 0.961 1_655 S
C1326 H1340 0.961 1_554 S
C1327 C1324 1.539 . S
C1327 H1341 0.958 . S
C1327 H1342 0.961 . S
C1327 H1343 0.970 . S
H1328 C1312 0.931 . S
H1329 C1317 0.929 . S
H1330 C1318 0.960 1_655 S
H1331 C1318 0.962 . S
H1332 C1318 0.960 . S
H1333 C1319 0.961 . S
H1334 C1319 0.961 1_655 S
H1335 C1319 0.961 . S
H1336 C1320 0.931 . S
H1337 C1325 0.930 . S
H1338 C1326 0.956 . S
H1339 C1326 0.961 1_455 S
H1340 C1326 0.961 1_556 S
H1341 C1327 0.958 . S
H1342 C1327 0.961 . S
H1343 C1327 0.970 . S
C1344 C1345 1.391 . S
C1344 C1346 1.394 . S
C1344 H1360 0.931 . S
C1345 C1344 1.391 . S
C1345 C1349 1.376 . S
C1346 C1344 1.394 . S
C1346 C1347 1.369 . S
C1346 C1350 1.531 . S
C1347 C1346 1.369 . S
C1347 C1348 1.410 . S
C1347 C1355 1.503 . S
C1348 C1347 1.410 . S
C1348 C1349 1.392 . S
C1348 C1351 1.511 . S
C1349 C1345 1.376 . S
C1349 C1348 1.392 . S
C1349 H1361 0.929 . S
C1350 C1346 1.531 . S
C1350 H1362 0.960 . S
C1350 H1363 0.962 . S
C1350 H1364 0.960 . S
C1351 C1348 1.511 . S
C1351 H1365 0.961 . S
C1351 H1366 0.961 . S
C1351 H1367 0.961 . S
C1352 C1353 1.370 . S
C1352 C1354 1.363 . S
C1352 H1368 0.931 . S
C1353 C1352 1.370 . S
C1353 C1357 1.408 . S
C1354 C1352 1.363 . S
C1354 C1355 1.370 . S
C1354 C1358 1.524 . S
C1355 C1347 1.503 . S
C1355 C1354 1.370 . S
C1355 C1356 1.403 . S
C1356 C1355 1.403 . S
C1356 C1357 1.404 . S
C1356 C1359 1.539 . S
C1357 C1353 1.408 . S
C1357 C1356 1.404 . S
C1357 H1369 0.930 . S
C1358 C1354 1.524 . S
C1358 H1370 0.956 . S
C1358 H1371 0.961 . S
C1358 H1372 0.961 . S
C1359 C1356 1.539 . S
C1359 H1373 0.958 . S
C1359 H1374 0.961 . S
C1359 H1375 0.960 . S
H1360 C1344 0.931 . S
H1361 C1349 0.929 . S
H1362 C1350 0.960 . S
H1363 C1350 0.962 . S
H1364 C1350 0.960 . S
H1365 C1351 0.961 . S
H1366 C1351 0.961 . S
H1367 C1351 0.961 . S
H1368 C1352 0.931 . S
H1369 C1357 0.930 . S
H1370 C1358 0.956 . S
H1371 C1358 0.961 . S
H1372 C1358 0.961 . S
H1373 C1359 0.958 . S
H1374 C1359 0.961 . S
H1375 C1359 0.960 . S
C1376 C1377 1.391 . S
C1376 C1378 1.394 . S
C1376 H1392 0.931 . S
C1377 C1376 1.391 . S
C1377 C1381 1.376 . S
C1378 C1376 1.394 . S
C1378 C1379 1.369 . S
C1378 C1382 1.531 . S
C1379 C1378 1.369 . S
C1379 C1380 1.410 . S
C1379 C1387 1.503 . S
C1380 C1379 1.410 . S
C1380 C1381 1.392 . S
C1380 C1383 1.511 . S
C1381 C1377 1.376 . S
C1381 C1380 1.392 . S
C1381 H1393 0.929 . S
C1382 C1378 1.531 . S
C1382 H1394 0.960 . S
C1382 H1395 0.962 . S
C1382 H1396 0.960 . S
C1383 C1380 1.511 . S
C1383 H1397 0.961 . S
C1383 H1398 0.961 . S
C1383 H1399 0.961 . S
C1384 C1385 1.370 . S
C1384 C1386 1.363 . S
C1384 H1400 0.931 . S
C1385 C1384 1.370 . S
C1385 C1389 1.408 . S
C1386 C1384 1.363 . S
C1386 C1387 1.370 . S
C1386 C1390 1.524 . S
C1387 C1379 1.503 . S
C1387 C1386 1.370 . S
C1387 C1388 1.403 . S
C1388 C1387 1.403 . S
C1388 C1389 1.404 . S
C1388 C1391 1.539 . S
C1389 C1385 1.408 . S
C1389 C1388 1.404 . S
C1389 H1401 0.930 . S
C1390 C1386 1.524 . S
C1390 H1402 0.956 . S
C1390 H1403 0.961 . S
C1390 H1404 0.961 . S
C1391 C1388 1.539 . S
C1391 H1405 0.958 . S
C1391 H1406 0.961 . S
C1391 H1407 0.960 . S
H1392 C1376 0.931 . S
H1393 C1381 0.929 . S
H1394 C1382 0.960 . S
H1395 C1382 0.962 . S
H1396 C1382 0.960 . S
H1397 C1383 0.961 . S
H1398 C1383 0.961 . S
H1399 C1383 0.961 . S
H1400 C1384 0.931 . S
H1401 C1389 0.930 . S
H1402 C1390 0.956 . S
H1403 C1390 0.961 . S
H1404 C1390 0.961 . S
H1405 C1391 0.958 . S
H1406 C1391 0.961 . S
H1407 C1391 0.960 . S
C1408 C1409 1.391 . S
C1408 C1410 1.394 . S
C1408 H1424 0.931 . S
C1409 C1408 1.391 . S
C1409 C1413 1.376 . S
C1410 C1408 1.394 . S
C1410 C1411 1.369 . S
C1410 C1414 1.531 . S
C1411 C1410 1.369 . S
C1411 C1412 1.410 . S
C1411 C1419 1.503 . S
C1412 C1411 1.410 . S
C1412 C1413 1.392 . S
C1412 C1415 1.511 . S
C1413 C1409 1.376 . S
C1413 C1412 1.392 . S
C1413 H1425 0.929 . S
C1414 C1410 1.531 . S
C1414 H1426 0.960 . S
C1414 H1427 0.962 . S
C1414 H1428 0.960 . S
C1415 C1412 1.511 . S
C1415 H1429 0.961 . S
C1415 H1430 0.961 . S
C1415 H1431 0.961 . S
C1416 C1417 1.370 . S
C1416 C1418 1.363 . S
C1416 H1432 0.931 . S
C1417 C1416 1.370 . S
C1417 C1421 1.408 . S
C1418 C1416 1.363 . S
C1418 C1419 1.370 . S
C1418 C1422 1.524 . S
C1419 C1411 1.503 . S
C1419 C1418 1.370 . S
C1419 C1420 1.403 . S
C1420 C1419 1.403 . S
C1420 C1421 1.404 . S
C1420 C1423 1.539 . S
C1421 C1417 1.408 . S
C1421 C1420 1.404 . S
C1421 H1433 0.930 . S
C1422 C1418 1.524 . S
C1422 H1434 0.956 . S
C1422 H1435 0.961 . S
C1422 H1436 0.961 . S
C1423 C1420 1.539 . S
C1423 H1437 0.958 . S
C1423 H1438 0.961 . S
C1423 H1439 0.960 . S
H1424 C1408 0.931 . S
H1425 C1413 0.929 . S
H1426 C1414 0.960 . S
H1427 C1414 0.962 . S
H1428 C1414 0.960 . S
H1429 C1415 0.961 . S
H1430 C1415 0.961 . S
H1431 C1415 0.961 . S
H1432 C1416 0.931 . S
H1433 C1421 0.930 . S
H1434 C1422 0.956 . S
H1435 C1422 0.961 . S
H1436 C1422 0.961 . S
H1437 C1423 0.958 . S
H1438 C1423 0.961 . S
H1439 C1423 0.960 . S
C1440 C1441 1.391 . S
C1440 C1442 1.394 . S
C1440 H1456 0.931 . S
C1441 C1440 1.391 . S
C1441 C1445 1.376 . S
C1442 C1440 1.394 . S
C1442 C1443 1.369 . S
C1442 C1446 1.531 . S
C1443 C1442 1.369 . S
C1443 C1444 1.410 . S
C1443 C1451 1.503 . S
C1444 C1443 1.410 . S
C1444 C1445 1.392 . S
C1444 C1447 1.511 . S
C1445 C1441 1.376 . S
C1445 C1444 1.392 . S
C1445 H1457 0.929 . S
C1446 C1442 1.531 . S
C1446 H1458 0.960 . S
C1446 H1459 0.962 . S
C1446 H1460 0.960 . S
C1447 C1444 1.511 . S
C1447 H1461 0.961 . S
C1447 H1462 0.961 . S
C1447 H1463 0.961 . S
C1448 C1449 1.370 . S
C1448 C1450 1.363 . S
C1448 H1464 0.931 . S
C1449 C1448 1.370 . S
C1449 C1453 1.408 . S
C1450 C1448 1.363 . S
C1450 C1451 1.370 . S
C1450 C1454 1.524 . S
C1451 C1443 1.503 . S
C1451 C1450 1.370 . S
C1451 C1452 1.403 . S
C1452 C1451 1.403 . S
C1452 C1453 1.404 . S
C1452 C1455 1.539 . S
C1453 C1449 1.408 . S
C1453 C1452 1.404 . S
C1453 H1465 0.930 . S
C1454 C1450 1.524 . S
C1454 H1466 0.956 . S
C1454 H1467 0.961 . S
C1454 H1468 0.961 . S
C1455 C1452 1.539 . S
C1455 H1469 0.958 . S
C1455 H1470 0.961 . S
C1455 H1471 0.960 . S
H1456 C1440 0.931 . S
H1457 C1445 0.929 . S
H1458 C1446 0.960 . S
H1459 C1446 0.962 . S
H1460 C1446 0.960 . S
H1461 C1447 0.961 . S
H1462 C1447 0.961 . S
H1463 C1447 0.961 . S
H1464 C1448 0.931 . S
H1465 C1453 0.930 . S
H1466 C1454 0.956 . S
H1467 C1454 0.961 . S
H1468 C1454 0.961 . S
H1469 C1455 0.958 . S
H1470 C1455 0.961 . S
H1471 C1455 0.960 . S
C1472 C1473 1.391 . S
C1472 C1474 1.394 . S
C1472 H1488 0.931 . S
C1473 C1472 1.391 . S
C1473 C1477 1.376 . S
C1474 C1472 1.394 . S
C1474 C1475 1.369 . S
C1474 C1478 1.531 . S
C1475 C1474 1.369 . S
C1475 C1476 1.410 . S
C1475 C1483 1.503 . S
C1476 C1475 1.410 . S
C1476 C1477 1.392 . S
C1476 C1479 1.511 . S
C1477 C1473 1.376 . S
C1477 C1476 1.392 . S
C1477 H1489 0.929 . S
C1478 C1474 1.531 . S
C1478 H1490 0.960 . S
C1478 H1491 0.962 . S
C1478 H1492 0.960 . S
C1479 C1476 1.511 . S
C1479 H1493 0.961 . S
C1479 H1494 0.961 . S
C1479 H1495 0.961 . S
C1480 C1481 1.370 . S
C1480 C1482 1.363 . S
C1480 H1496 0.931 . S
C1481 C1480 1.370 . S
C1481 C1485 1.408 . S
C1482 C1480 1.363 . S
C1482 C1483 1.370 . S
C1482 C1486 1.524 . S
C1483 C1475 1.503 . S
C1483 C1482 1.370 . S
C1483 C1484 1.403 . S
C1484 C1483 1.403 . S
C1484 C1485 1.404 . S
C1484 C1487 1.539 . S
C1485 C1481 1.408 . S
C1485 C1484 1.404 . S
C1485 H1497 0.930 . S
C1486 C1482 1.524 . S
C1486 H1498 0.956 . S
C1486 H1499 0.961 . S
C1486 H1500 0.961 . S
C1487 C1484 1.539 . S
C1487 H1501 0.958 . S
C1487 H1502 0.961 . S
C1487 H1503 0.960 . S
H1488 C1472 0.931 . S
H1489 C1477 0.929 . S
H1490 C1478 0.960 . S
H1491 C1478 0.962 . S
H1492 C1478 0.960 . S
H1493 C1479 0.961 . S
H1494 C1479 0.961 . S
H1495 C1479 0.961 . S
H1496 C1480 0.931 . S
H1497 C1485 0.930 . S
H1498 C1486 0.956 . S
H1499 C1486 0.961 . S
H1500 C1486 0.961 . S
H1501 C1487 0.958 . S
H1502 C1487 0.961 . S
H1503 C1487 0.960 . S
C1504 C1505 1.391 . S
C1504 C1506 1.394 . S
C1504 H1520 0.931 . S
C1505 C1504 1.391 . S
C1505 C1509 1.376 . S
C1506 C1504 1.394 . S
C1506 C1507 1.369 . S
C1506 C1510 1.531 . S
C1507 C1506 1.369 . S
C1507 C1508 1.410 . S
C1507 C1515 1.503 . S
C1508 C1507 1.410 . S
C1508 C1509 1.392 . S
C1508 C1511 1.511 . S
C1509 C1505 1.376 . S
C1509 C1508 1.392 . S
C1509 H1521 0.929 . S
C1510 C1506 1.531 . S
C1510 H1522 0.960 . S
C1510 H1523 0.962 . S
C1510 H1524 0.960 . S
C1511 C1508 1.511 . S
C1511 H1525 0.961 . S
C1511 H1526 0.961 . S
C1511 H1527 0.961 . S
C1512 C1513 1.370 . S
C1512 C1514 1.363 . S
C1512 H1528 0.931 . S
C1513 C1512 1.370 . S
C1513 C1517 1.408 . S
C1514 C1512 1.363 . S
C1514 C1515 1.370 . S
C1514 C1518 1.524 . S
C1515 C1507 1.503 . S
C1515 C1514 1.370 . S
C1515 C1516 1.403 . S
C1516 C1515 1.403 . S
C1516 C1517 1.404 . S
C1516 C1519 1.539 . S
C1517 C1513 1.408 . S
C1517 C1516 1.404 . S
C1517 H1529 0.930 . S
C1518 C1514 1.524 . S
C1518 H1530 0.956 . S
C1518 H1531 0.961 . S
C1518 H1532 0.961 . S
C1519 C1516 1.539 . S
C1519 H1533 0.958 . S
C1519 H1534 0.961 . S
C1519 H1535 0.960 . S
H1520 C1504 0.931 . S
H1521 C1509 0.929 . S
H1522 C1510 0.960 . S
H1523 C1510 0.962 . S
H1524 C1510 0.960 . S
H1525 C1511 0.961 . S
H1526 C1511 0.961 . S
H1527 C1511 0.961 . S
H1528 C1512 0.931 . S
H1529 C1517 0.930 . S
H1530 C1518 0.956 . S
H1531 C1518 0.961 . S
H1532 C1518 0.961 . S
H1533 C1519 0.958 . S
H1534 C1519 0.961 . S
H1535 C1519 0.960 . S
C1536 C1537 1.391 . S
C1536 C1538 1.394 . S
C1536 H1552 0.931 . S
C1537 C1536 1.391 . S
C1537 C1541 1.376 . S
C1538 C1536 1.394 . S
C1538 C1539 1.369 . S
C1538 C1542 1.531 . S
C1539 C1538 1.369 . S
C1539 C1540 1.410 . S
C1539 C1547 1.503 1_655 S
C1540 C1539 1.410 . S
C1540 C1541 1.392 . S
C1540 C1543 1.511 1_556 S
C1541 C1537 1.376 . S
C1541 C1540 1.392 . S
C1541 H1553 0.929 . S
C1542 C1538 1.531 . S
C1542 H1554 0.960 1_655 S
C1542 H1555 0.962 . S
C1542 H1556 0.960 . S
C1543 C1540 1.511 1_554 S
C1543 H1557 0.961 . S
C1543 H1558 0.961 1_655 S
C1543 H1559 0.961 1_554 S
C1544 C1545 1.370 . S
C1544 C1546 1.363 . S
C1544 H1560 0.931 . S
C1545 C1544 1.370 . S
C1545 C1549 1.408 . S
C1546 C1544 1.363 . S
C1546 C1547 1.370 . S
C1546 C1550 1.524 . S
C1547 C1539 1.503 1_455 S
C1547 C1546 1.370 . S
C1547 C1548 1.403 . S
C1548 C1547 1.403 . S
C1548 C1549 1.404 . S
C1548 C1551 1.539 . S
C1549 C1545 1.408 . S
C1549 C1548 1.404 . S
C1549 H1561 0.930 . S
C1550 C1546 1.524 . S
C1550 H1562 0.956 . S
C1550 H1563 0.961 1_455 S
C1550 H1564 0.961 . S
C1551 C1548 1.539 . S
C1551 H1565 0.958 . S
C1551 H1566 0.961 . S
C1551 H1567 0.970 . S
H1552 C1536 0.931 . S
H1553 C1541 0.929 . S
H1554 C1542 0.960 1_455 S
H1555 C1542 0.962 . S
H1556 C1542 0.960 . S
H1557 C1543 0.961 . S
H1558 C1543 0.961 1_455 S
H1559 C1543 0.961 1_556 S
H1560 C1544 0.931 . S
H1561 C1549 0.930 . S
H1562 C1550 0.956 . S
H1563 C1550 0.961 1_655 S
H1564 C1550 0.961 . S
H1565 C1551 0.958 . S
H1566 C1551 0.961 . S
H1567 C1551 0.970 . S
C1568 C1569 1.391 . S
C1568 C1570 1.394 . S
C1568 H1584 0.931 . S
C1569 C1568 1.391 . S
C1569 C1573 1.376 . S
C1570 C1568 1.394 . S
C1570 C1571 1.369 . S
C1570 C1574 1.531 . S
C1571 C1570 1.369 . S
C1571 C1572 1.410 . S
C1571 C1579 1.503 . S
C1572 C1571 1.410 . S
C1572 C1573 1.392 . S
C1572 C1575 1.511 . S
C1573 C1569 1.376 . S
C1573 C1572 1.392 . S
C1573 H1585 0.929 . S
C1574 C1570 1.531 . S
C1574 H1586 0.960 . S
C1574 H1587 0.962 . S
C1574 H1588 0.960 . S
C1575 C1572 1.511 . S
C1575 H1589 0.961 . S
C1575 H1590 0.961 . S
C1575 H1591 0.961 . S
C1576 C1577 1.370 . S
C1576 C1578 1.363 . S
C1576 H1592 0.931 . S
C1577 C1576 1.370 . S
C1577 C1581 1.408 . S
C1578 C1576 1.363 . S
C1578 C1579 1.370 . S
C1578 C1582 1.524 . S
C1579 C1571 1.503 . S
C1579 C1578 1.370 . S
C1579 C1580 1.403 . S
C1580 C1579 1.403 . S
C1580 C1581 1.404 . S
C1580 C1583 1.539 . S
C1581 C1577 1.408 . S
C1581 C1580 1.404 . S
C1581 H1593 0.930 . S
C1582 C1578 1.524 . S
C1582 H1594 0.956 . S
C1582 H1595 0.961 . S
C1582 H1596 0.961 . S
C1583 C1580 1.539 . S
C1583 H1597 0.958 . S
C1583 H1598 0.961 . S
C1583 H1599 0.960 . S
H1584 C1568 0.931 . S
H1585 C1573 0.929 . S
H1586 C1574 0.960 . S
H1587 C1574 0.962 . S
H1588 C1574 0.960 . S
H1589 C1575 0.961 . S
H1590 C1575 0.961 . S
H1591 C1575 0.961 . S
H1592 C1576 0.931 . S
H1593 C1581 0.930 . S
H1594 C1582 0.956 . S
H1595 C1582 0.961 . S
H1596 C1582 0.961 . S
H1597 C1583 0.958 . S
H1598 C1583 0.961 . S
H1599 C1583 0.960 . S
C1600 C1601 1.391 . S
C1600 C1602 1.394 . S
C1600 H1616 0.931 . S
C1601 C1600 1.391 . S
C1601 C1605 1.376 . S
C1602 C1600 1.394 . S
C1602 C1603 1.369 . S
C1602 C1606 1.531 . S
C1603 C1602 1.369 . S
C1603 C1604 1.410 . S
C1603 C1611 1.503 . S
C1604 C1603 1.410 . S
C1604 C1605 1.392 . S
C1604 C1607 1.511 . S
C1605 C1601 1.376 . S
C1605 C1604 1.392 . S
C1605 H1617 0.929 . S
C1606 C1602 1.531 . S
C1606 H1618 0.960 . S
C1606 H1619 0.962 . S
C1606 H1620 0.960 . S
C1607 C1604 1.511 . S
C1607 H1621 0.961 . S
C1607 H1622 0.961 . S
C1607 H1623 0.961 . S
C1608 C1609 1.370 . S
C1608 C1610 1.363 . S
C1608 H1624 0.931 . S
C1609 C1608 1.370 . S
C1609 C1613 1.408 . S
C1610 C1608 1.363 . S
C1610 C1611 1.370 . S
C1610 C1614 1.524 . S
C1611 C1603 1.503 . S
C1611 C1610 1.370 . S
C1611 C1612 1.403 . S
C1612 C1611 1.403 . S
C1612 C1613 1.404 . S
C1612 C1615 1.539 . S
C1613 C1609 1.408 . S
C1613 C1612 1.404 . S
C1613 H1625 0.930 . S
C1614 C1610 1.524 . S
C1614 H1626 0.956 . S
C1614 H1627 0.961 . S
C1614 H1628 0.961 . S
C1615 C1612 1.539 . S
C1615 H1629 0.958 . S
C1615 H1630 0.961 . S
C1615 H1631 0.960 . S
H1616 C1600 0.931 . S
H1617 C1605 0.929 . S
H1618 C1606 0.960 . S
H1619 C1606 0.962 . S
H1620 C1606 0.960 . S
H1621 C1607 0.961 . S
H1622 C1607 0.961 . S
H1623 C1607 0.961 . S
H1624 C1608 0.931 . S
H1625 C1613 0.930 . S
H1626 C1614 0.956 . S
H1627 C1614 0.961 . S
H1628 C1614 0.961 . S
H1629 C1615 0.958 . S
H1630 C1615 0.961 . S
H1631 C1615 0.960 . S
C1632 C1633 1.391 . S
C1632 C1634 1.394 . S
C1632 H1648 0.931 . S
C1633 C1632 1.391 . S
C1633 C1637 1.376 . S
C1634 C1632 1.394 . S
C1634 C1635 1.369 . S
C1634 C1638 1.531 . S
C1635 C1634 1.369 . S
C1635 C1636 1.410 . S
C1635 C1643 1.503 1_455 S
C1636 C1635 1.410 . S
C1636 C1637 1.392 . S
C1636 C1639 1.511 . S
C1637 C1633 1.376 . S
C1637 C1636 1.392 . S
C1637 H1649 0.929 . S
C1638 C1634 1.531 . S
C1638 H1650 0.960 1_455 S
C1638 H1651 0.962 . S
C1638 H1652 0.960 1_554 S
C1639 C1636 1.511 . S
C1639 H1653 0.961 . S
C1639 H1654 0.961 1_455 S
C1639 H1655 0.961 . S
C1640 C1641 1.370 . S
C1640 C1642 1.363 . S
C1640 H1656 0.931 . S
C1641 C1640 1.370 . S
C1641 C1645 1.408 . S
C1642 C1640 1.363 . S
C1642 C1643 1.370 . S
C1642 C1646 1.524 . S
C1643 C1635 1.503 1_655 S
C1643 C1642 1.370 . S
C1643 C1644 1.403 . S
C1644 C1643 1.403 . S
C1644 C1645 1.404 . S
C1644 C1647 1.539 1_554 S
C1645 C1641 1.408 . S
C1645 C1644 1.404 . S
C1645 H1657 0.930 1_554 S
C1646 C1642 1.524 . S
C1646 H1658 0.956 . S
C1646 H1659 0.961 1_655 S
C1646 H1660 0.961 . S
C1647 C1644 1.539 1_556 S
C1647 H1661 0.958 . S
C1647 H1662 0.961 . S
C1647 H1663 0.970 . S
H1648 C1632 0.931 . S
H1649 C1637 0.929 . S
H1650 C1638 0.960 1_655 S
H1651 C1638 0.962 . S
H1652 C1638 0.960 1_556 S
H1653 C1639 0.961 . S
H1654 C1639 0.961 1_655 S
H1655 C1639 0.961 . S
H1656 C1640 0.931 . S
H1657 C1645 0.930 1_556 S
H1658 C1646 0.956 . S
H1659 C1646 0.961 1_455 S
H1660 C1646 0.961 . S
H1661 C1647 0.958 . S
H1662 C1647 0.961 . S
H1663 C1647 0.970 . S
C1664 C1665 1.391 . S
C1664 C1666 1.394 1_554 S
C1664 H1680 0.931 . S
C1665 C1664 1.391 . S
C1665 C1669 1.376 . S
C1666 C1664 1.394 1_556 S
C1666 C1667 1.369 1_556 S
C1666 C1670 1.531 . S
C1667 C1666 1.369 1_554 S
C1667 C1668 1.410 . S
C1667 C1675 1.503 1_554 S
C1668 C1667 1.410 . S
C1668 C1669 1.392 . S
C1668 C1671 1.511 . S
C1669 C1665 1.376 . S
C1669 C1668 1.392 . S
C1669 H1681 0.929 . S
C1670 C1666 1.531 . S
C1670 H1682 0.960 . S
C1670 H1683 0.962 . S
C1670 H1684 0.960 . S
C1671 C1668 1.511 . S
C1671 H1685 0.961 . S
C1671 H1686 0.961 . S
C1671 H1687 0.961 . S
C1672 C1673 1.370 . S
C1672 C1674 1.363 . S
C1672 H1688 0.931 . S
C1673 C1672 1.370 . S
C1673 C1677 1.408 . S
C1674 C1672 1.363 . S
C1674 C1675 1.370 . S
C1674 C1678 1.524 1_556 S
C1675 C1667 1.503 1_556 S
C1675 C1674 1.370 . S
C1675 C1676 1.403 . S
C1676 C1675 1.403 . S
C1676 C1677 1.404 . S
C1676 C1679 1.539 . S
C1677 C1673 1.408 . S
C1677 C1676 1.404 . S
C1677 H1689 0.930 . S
C1678 C1674 1.524 1_554 S
C1678 H1690 0.956 . S
C1678 H1691 0.961 . S
C1678 H1692 0.961 . S
C1679 C1676 1.539 . S
C1679 H1693 0.958 . S
C1679 H1694 0.961 . S
C1679 H1695 0.960 . S
H1680 C1664 0.931 . S
H1681 C1669 0.929 . S
H1682 C1670 0.960 . S
H1683 C1670 0.962 . S
H1684 C1670 0.960 . S
H1685 C1671 0.961 . S
H1686 C1671 0.961 . S
H1687 C1671 0.961 . S
H1688 C1672 0.931 . S
H1689 C1677 0.930 . S
H1690 C1678 0.956 . S
H1691 C1678 0.961 . S
H1692 C1678 0.961 . S
H1693 C1679 0.958 . S
H1694 C1679 0.961 . S
H1695 C1679 0.960 . S
C1696 C1697 1.391 . S
C1696 C1698 1.394 . S
C1696 H1712 0.931 . S
C1697 C1696 1.391 . S
C1697 C1701 1.376 . S
C1698 C1696 1.394 . S
C1698 C1699 1.369 . S
C1698 C1702 1.531 . S
C1699 C1698 1.369 . S
C1699 C1700 1.410 . S
C1699 C1707 1.503 . S
C1700 C1699 1.410 . S
C1700 C1701 1.392 . S
C1700 C1703 1.511 . S
C1701 C1697 1.376 . S
C1701 C1700 1.392 . S
C1701 H1713 0.929 . S
C1702 C1698 1.531 . S
C1702 H1714 0.960 . S
C1702 H1715 0.962 . S
C1702 H1716 0.960 . S
C1703 C1700 1.511 . S
C1703 H1717 0.961 . S
C1703 H1718 0.961 . S
C1703 H1719 0.961 . S
C1704 C1705 1.370 . S
C1704 C1706 1.363 . S
C1704 H1720 0.931 . S
C1705 C1704 1.370 . S
C1705 C1709 1.408 . S
C1706 C1704 1.363 . S
C1706 C1707 1.370 . S
C1706 C1710 1.524 . S
C1707 C1699 1.503 . S
C1707 C1706 1.370 . S
C1707 C1708 1.403 . S
C1708 C1707 1.403 . S
C1708 C1709 1.404 . S
C1708 C1711 1.539 . S
C1709 C1705 1.408 . S
C1709 C1708 1.404 . S
C1709 H1721 0.930 . S
C1710 C1706 1.524 . S
C1710 H1722 0.956 . S
C1710 H1723 0.961 . S
C1710 H1724 0.961 . S
C1711 C1708 1.539 . S
C1711 H1725 0.958 . S
C1711 H1726 0.961 . S
C1711 H1727 0.960 . S
H1712 C1696 0.931 . S
H1713 C1701 0.929 . S
H1714 C1702 0.960 . S
H1715 C1702 0.962 . S
H1716 C1702 0.960 . S
H1717 C1703 0.961 . S
H1718 C1703 0.961 . S
H1719 C1703 0.961 . S
H1720 C1704 0.931 . S
H1721 C1709 0.930 . S
H1722 C1710 0.956 . S
H1723 C1710 0.961 . S
H1724 C1710 0.961 . S
H1725 C1711 0.958 . S
H1726 C1711 0.961 . S
H1727 C1711 0.960 . S
C1728 C1729 1.391 . S
C1728 C1730 1.394 . S
C1728 H1744 0.931 . S
C1729 C1728 1.391 . S
C1729 C1733 1.376 . S
C1730 C1728 1.394 . S
C1730 C1731 1.369 . S
C1730 C1734 1.531 . S
C1731 C1730 1.369 . S
C1731 C1732 1.410 . S
C1731 C1739 1.503 . S
C1732 C1731 1.410 . S
C1732 C1733 1.392 . S
C1732 C1735 1.511 . S
C1733 C1729 1.376 . S
C1733 C1732 1.392 . S
C1733 H1745 0.929 . S
C1734 C1730 1.531 . S
C1734 H1746 0.960 . S
C1734 H1747 0.962 . S
C1734 H1748 0.960 . S
C1735 C1732 1.511 . S
C1735 H1749 0.961 . S
C1735 H1750 0.961 . S
C1735 H1751 0.961 . S
C1736 C1737 1.370 . S
C1736 C1738 1.363 . S
C1736 H1752 0.931 . S
C1737 C1736 1.370 . S
C1737 C1741 1.408 . S
C1738 C1736 1.363 . S
C1738 C1739 1.370 . S
C1738 C1742 1.524 . S
C1739 C1731 1.503 . S
C1739 C1738 1.370 . S
C1739 C1740 1.403 . S
C1740 C1739 1.403 . S
C1740 C1741 1.404 . S
C1740 C1743 1.539 . S
C1741 C1737 1.408 . S
C1741 C1740 1.404 . S
C1741 H1753 0.930 . S
C1742 C1738 1.524 . S
C1742 H1754 0.956 . S
C1742 H1755 0.961 . S
C1742 H1756 0.961 . S
C1743 C1740 1.539 . S
C1743 H1757 0.958 . S
C1743 H1758 0.961 . S
C1743 H1759 0.960 . S
H1744 C1728 0.931 . S
H1745 C1733 0.929 . S
H1746 C1734 0.960 . S
H1747 C1734 0.962 . S
H1748 C1734 0.960 . S
H1749 C1735 0.961 . S
H1750 C1735 0.961 . S
H1751 C1735 0.961 . S
H1752 C1736 0.931 . S
H1753 C1741 0.930 . S
H1754 C1742 0.956 . S
H1755 C1742 0.961 . S
H1756 C1742 0.961 . S
H1757 C1743 0.958 . S
H1758 C1743 0.961 . S
H1759 C1743 0.960 . S
C1760 C1761 1.391 . S
C1760 C1762 1.394 . S
C1760 H1776 0.931 . S
C1761 C1760 1.391 . S
C1761 C1765 1.376 . S
C1762 C1760 1.394 . S
C1762 C1763 1.369 . S
C1762 C1766 1.531 . S
C1763 C1762 1.369 . S
C1763 C1764 1.410 . S
C1763 C1771 1.503 . S
C1764 C1763 1.410 . S
C1764 C1765 1.392 . S
C1764 C1767 1.511 . S
C1765 C1761 1.376 . S
C1765 C1764 1.392 . S
C1765 H1777 0.929 . S
C1766 C1762 1.531 . S
C1766 H1778 0.960 . S
C1766 H1779 0.962 . S
C1766 H1780 0.960 . S
C1767 C1764 1.511 . S
C1767 H1781 0.961 . S
C1767 H1782 0.961 . S
C1767 H1783 0.961 . S
C1768 C1769 1.370 . S
C1768 C1770 1.363 . S
C1768 H1784 0.931 . S
C1769 C1768 1.370 . S
C1769 C1773 1.408 . S
C1770 C1768 1.363 . S
C1770 C1771 1.370 . S
C1770 C1774 1.524 . S
C1771 C1763 1.503 . S
C1771 C1770 1.370 . S
C1771 C1772 1.403 . S
C1772 C1771 1.403 . S
C1772 C1773 1.404 . S
C1772 C1775 1.539 . S
C1773 C1769 1.408 . S
C1773 C1772 1.404 . S
C1773 H1785 0.930 . S
C1774 C1770 1.524 . S
C1774 H1786 0.956 . S
C1774 H1787 0.961 . S
C1774 H1788 0.961 . S
C1775 C1772 1.539 . S
C1775 H1789 0.958 . S
C1775 H1790 0.961 . S
C1775 H1791 0.960 . S
H1776 C1760 0.931 . S
H1777 C1765 0.929 . S
H1778 C1766 0.960 . S
H1779 C1766 0.962 . S
H1780 C1766 0.960 . S
H1781 C1767 0.961 . S
H1782 C1767 0.961 . S
H1783 C1767 0.961 . S
H1784 C1768 0.931 . S
H1785 C1773 0.930 . S
H1786 C1774 0.956 . S
H1787 C1774 0.961 . S
H1788 C1774 0.961 . S
H1789 C1775 0.958 . S
H1790 C1775 0.961 . S
H1791 C1775 0.960 . S
C1792 C1793 1.391 . S
C1792 C1794 1.394 1_554 S
C1792 H1808 0.931 . S
C1793 C1792 1.391 . S
C1793 C1797 1.376 . S
C1794 C1792 1.394 1_556 S
C1794 C1795 1.369 1_556 S
C1794 C1798 1.531 . S
C1795 C1794 1.369 1_554 S
C1795 C1796 1.410 . S
C1795 C1803 1.503 1_554 S
C1796 C1795 1.410 . S
C1796 C1797 1.392 . S
C1796 C1799 1.511 . S
C1797 C1793 1.376 . S
C1797 C1796 1.392 . S
C1797 H1809 0.929 . S
C1798 C1794 1.531 . S
C1798 H1810 0.960 . S
C1798 H1811 0.962 . S
C1798 H1812 0.960 . S
C1799 C1796 1.511 . S
C1799 H1813 0.961 . S
C1799 H1814 0.961 . S
C1799 H1815 0.961 . S
C1800 C1801 1.370 . S
C1800 C1802 1.363 . S
C1800 H1816 0.931 . S
C1801 C1800 1.370 . S
C1801 C1805 1.408 . S
C1802 C1800 1.363 . S
C1802 C1803 1.370 . S
C1802 C1806 1.524 1_556 S
C1803 C1795 1.503 1_556 S
C1803 C1802 1.370 . S
C1803 C1804 1.403 . S
C1804 C1803 1.403 . S
C1804 C1805 1.404 . S
C1804 C1807 1.539 . S
C1805 C1801 1.408 . S
C1805 C1804 1.404 . S
C1805 H1817 0.930 . S
C1806 C1802 1.524 1_554 S
C1806 H1818 0.956 1_554 S
C1806 H1819 0.961 . S
C1806 H1820 0.961 . S
C1807 C1804 1.539 . S
C1807 H1821 0.958 . S
C1807 H1822 0.961 . S
C1807 H1823 0.960 . S
H1808 C1792 0.931 . S
H1809 C1797 0.929 . S
H1810 C1798 0.960 . S
H1811 C1798 0.962 . S
H1812 C1798 0.960 . S
H1813 C1799 0.961 . S
H1814 C1799 0.961 . S
H1815 C1799 0.961 . S
H1816 C1800 0.931 . S
H1817 C1805 0.930 . S
H1818 C1806 0.956 1_556 S
H1819 C1806 0.961 . S
H1820 C1806 0.961 . S
H1821 C1807 0.958 . S
H1822 C1807 0.961 . S
H1823 C1807 0.960 . S
C1824 C1825 1.391 . S
C1824 C1826 1.394 . S
C1824 H1840 0.931 . S
C1825 C1824 1.391 . S
C1825 C1829 1.376 . S
C1826 C1824 1.394 . S
C1826 C1827 1.369 . S
C1826 C1830 1.531 . S
C1827 C1826 1.369 . S
C1827 C1828 1.410 . S
C1827 C1835 1.503 . S
C1828 C1827 1.410 . S
C1828 C1829 1.392 . S
C1828 C1831 1.511 . S
C1829 C1825 1.376 . S
C1829 C1828 1.392 . S
C1829 H1841 0.929 . S
C1830 C1826 1.531 . S
C1830 H1842 0.960 . S
C1830 H1843 0.962 . S
C1830 H1844 0.960 . S
C1831 C1828 1.511 . S
C1831 H1845 0.961 . S
C1831 H1846 0.961 . S
C1831 H1847 0.961 . S
C1832 C1833 1.370 . S
C1832 C1834 1.363 . S
C1832 H1848 0.931 . S
C1833 C1832 1.370 . S
C1833 C1837 1.408 . S
C1834 C1832 1.363 . S
C1834 C1835 1.370 . S
C1834 C1838 1.524 . S
C1835 C1827 1.503 . S
C1835 C1834 1.370 . S
C1835 C1836 1.403 . S
C1836 C1835 1.403 . S
C1836 C1837 1.404 . S
C1836 C1839 1.539 . S
C1837 C1833 1.408 . S
C1837 C1836 1.404 . S
C1837 H1849 0.930 . S
C1838 C1834 1.524 . S
C1838 H1850 0.956 . S
C1838 H1851 0.961 . S
C1838 H1852 0.961 . S
C1839 C1836 1.539 . S
C1839 H1853 0.958 . S
C1839 H1854 0.961 . S
C1839 H1855 0.960 . S
H1840 C1824 0.931 . S
H1841 C1829 0.929 . S
H1842 C1830 0.960 . S
H1843 C1830 0.962 . S
H1844 C1830 0.960 . S
H1845 C1831 0.961 . S
H1846 C1831 0.961 . S
H1847 C1831 0.961 . S
H1848 C1832 0.931 . S
H1849 C1837 0.930 . S
H1850 C1838 0.956 . S
H1851 C1838 0.961 . S
H1852 C1838 0.961 . S
H1853 C1839 0.958 . S
H1854 C1839 0.961 . S
H1855 C1839 0.960 . S
C1856 C1857 1.391 . S
C1856 C1858 1.394 . S
C1856 H1872 0.931 . S
C1857 C1856 1.391 . S
C1857 C1861 1.376 . S
C1858 C1856 1.394 . S
C1858 C1859 1.369 . S
C1858 C1862 1.531 . S
C1859 C1858 1.369 . S
C1859 C1860 1.410 . S
C1859 C1867 1.503 . S
C1860 C1859 1.410 . S
C1860 C1861 1.392 . S
C1860 C1863 1.511 . S
C1861 C1857 1.376 . S
C1861 C1860 1.392 . S
C1861 H1873 0.929 . S
C1862 C1858 1.531 . S
C1862 H1874 0.960 . S
C1862 H1875 0.962 . S
C1862 H1876 0.960 . S
C1863 C1860 1.511 . S
C1863 H1877 0.961 . S
C1863 H1878 0.961 . S
C1863 H1879 0.961 . S
C1864 C1865 1.370 . S
C1864 C1866 1.363 . S
C1864 H1880 0.931 . S
C1865 C1864 1.370 . S
C1865 C1869 1.408 . S
C1866 C1864 1.363 . S
C1866 C1867 1.370 . S
C1866 C1870 1.524 . S
C1867 C1859 1.503 . S
C1867 C1866 1.370 . S
C1867 C1868 1.403 . S
C1868 C1867 1.403 . S
C1868 C1869 1.404 . S
C1868 C1871 1.539 . S
C1869 C1865 1.408 . S
C1869 C1868 1.404 . S
C1869 H1881 0.930 . S
C1870 C1866 1.524 . S
C1870 H1882 0.956 . S
C1870 H1883 0.961 . S
C1870 H1884 0.961 . S
C1871 C1868 1.539 . S
C1871 H1885 0.958 . S
C1871 H1886 0.961 . S
C1871 H1887 0.960 . S
H1872 C1856 0.931 . S
H1873 C1861 0.929 . S
H1874 C1862 0.960 . S
H1875 C1862 0.962 . S
H1876 C1862 0.960 . S
H1877 C1863 0.961 . S
H1878 C1863 0.961 . S
H1879 C1863 0.961 . S
H1880 C1864 0.931 . S
H1881 C1869 0.930 . S
H1882 C1870 0.956 . S
H1883 C1870 0.961 . S
H1884 C1870 0.961 . S
H1885 C1871 0.958 . S
H1886 C1871 0.961 . S
H1887 C1871 0.960 . S
C1888 C1889 1.391 . S
C1888 C1890 1.394 . S
C1888 H1904 0.931 . S
C1889 C1888 1.391 . S
C1889 C1893 1.376 . S
C1890 C1888 1.394 . S
C1890 C1891 1.369 . S
C1890 C1894 1.531 . S
C1891 C1890 1.369 . S
C1891 C1892 1.410 . S
C1891 C1899 1.503 . S
C1892 C1891 1.410 . S
C1892 C1893 1.392 . S
C1892 C1895 1.511 . S
C1893 C1889 1.376 . S
C1893 C1892 1.392 . S
C1893 H1905 0.929 . S
C1894 C1890 1.531 . S
C1894 H1906 0.960 . S
C1894 H1907 0.962 . S
C1894 H1908 0.960 . S
C1895 C1892 1.511 . S
C1895 H1909 0.961 . S
C1895 H1910 0.961 . S
C1895 H1911 0.961 . S
C1896 C1897 1.370 . S
C1896 C1898 1.363 . S
C1896 H1912 0.931 . S
C1897 C1896 1.370 . S
C1897 C1901 1.408 . S
C1898 C1896 1.363 . S
C1898 C1899 1.370 . S
C1898 C1902 1.524 . S
C1899 C1891 1.503 . S
C1899 C1898 1.370 . S
C1899 C1900 1.403 . S
C1900 C1899 1.403 . S
C1900 C1901 1.404 . S
C1900 C1903 1.539 . S
C1901 C1897 1.408 . S
C1901 C1900 1.404 . S
C1901 H1913 0.930 . S
C1902 C1898 1.524 . S
C1902 H1914 0.956 . S
C1902 H1915 0.961 . S
C1902 H1916 0.961 . S
C1903 C1900 1.539 . S
C1903 H1917 0.958 . S
C1903 H1918 0.961 . S
C1903 H1919 0.960 . S
H1904 C1888 0.931 . S
H1905 C1893 0.929 . S
H1906 C1894 0.960 . S
H1907 C1894 0.962 . S
H1908 C1894 0.960 . S
H1909 C1895 0.961 . S
H1910 C1895 0.961 . S
H1911 C1895 0.961 . S
H1912 C1896 0.931 . S
H1913 C1901 0.930 . S
H1914 C1902 0.956 . S
H1915 C1902 0.961 . S
H1916 C1902 0.961 . S
H1917 C1903 0.958 . S
H1918 C1903 0.961 . S
H1919 C1903 0.960 . S
C1920 C1921 1.391 . S
C1920 C1922 1.394 . S
C1920 H1936 0.931 . S
C1921 C1920 1.391 . S
C1921 C1925 1.376 . S
C1922 C1920 1.394 . S
C1922 C1923 1.369 . S
C1922 C1926 1.531 1_565 S
C1923 C1922 1.369 . S
C1923 C1924 1.410 . S
C1923 C1931 1.503 1_565 S
C1924 C1923 1.410 . S
C1924 C1925 1.392 . S
C1924 C1927 1.511 . S
C1925 C1921 1.376 . S
C1925 C1924 1.392 . S
C1925 H1937 0.929 . S
C1926 C1922 1.531 1_545 S
C1926 H1938 0.960 . S
C1926 H1939 0.962 . S
C1926 H1940 0.960 1_545 S
C1927 C1924 1.511 . S
C1927 H1941 0.961 . S
C1927 H1942 0.961 . S
C1927 H1943 0.961 . S
C1928 C1929 1.370 . S
C1928 C1930 1.363 . S
C1928 H1944 0.931 . S
C1929 C1928 1.370 . S
C1929 C1933 1.408 . S
C1930 C1928 1.363 . S
C1930 C1931 1.370 . S
C1930 C1934 1.524 . S
C1931 C1923 1.503 1_545 S
C1931 C1930 1.370 . S
C1931 C1932 1.403 . S
C1932 C1931 1.403 . S
C1932 C1933 1.404 . S
C1932 C1935 1.539 . S
C1933 C1929 1.408 . S
C1933 C1932 1.404 . S
C1933 H1945 0.930 . S
C1934 C1930 1.524 . S
C1934 H1946 0.956 . S
C1934 H1947 0.961 1_545 S
C1934 H1948 0.961 . S
C1935 C1932 1.539 . S
C1935 H1949 0.958 . S
C1935 H1950 0.961 . S
C1935 H1951 0.960 1_545 S
H1936 C1920 0.931 . S
H1937 C1925 0.929 . S
H1938 C1926 0.960 . S
H1939 C1926 0.962 . S
H1940 C1926 0.960 1_565 S
H1941 C1927 0.961 . S
H1942 C1927 0.961 . S
H1943 C1927 0.961 . S
H1944 C1928 0.931 . S
H1945 C1933 0.930 . S
H1946 C1934 0.956 . S
H1947 C1934 0.961 1_565 S
H1948 C1934 0.961 . S
H1949 C1935 0.958 . S
H1950 C1935 0.961 . S
H1951 C1935 0.960 1_565 S
C1952 C1953 1.391 . S
C1952 C1954 1.394 . S
C1952 H1968 0.931 . S
C1953 C1952 1.391 . S
C1953 C1957 1.376 . S
C1954 C1952 1.394 . S
C1954 C1955 1.369 . S
C1954 C1958 1.531 . S
C1955 C1954 1.369 . S
C1955 C1956 1.410 . S
C1955 C1963 1.503 . S
C1956 C1955 1.410 . S
C1956 C1957 1.392 . S
C1956 C1959 1.511 . S
C1957 C1953 1.376 . S
C1957 C1956 1.392 . S
C1957 H1969 0.929 . S
C1958 C1954 1.531 . S
C1958 H1970 0.960 . S
C1958 H1971 0.962 . S
C1958 H1972 0.960 . S
C1959 C1956 1.511 . S
C1959 H1973 0.961 . S
C1959 H1974 0.961 . S
C1959 H1975 0.961 . S
C1960 C1961 1.370 . S
C1960 C1962 1.363 . S
C1960 H1976 0.931 . S
C1961 C1960 1.370 . S
C1961 C1965 1.408 . S
C1962 C1960 1.363 . S
C1962 C1963 1.370 . S
C1962 C1966 1.524 . S
C1963 C1955 1.503 . S
C1963 C1962 1.370 . S
C1963 C1964 1.403 . S
C1964 C1963 1.403 . S
C1964 C1965 1.404 . S
C1964 C1967 1.539 . S
C1965 C1961 1.408 . S
C1965 C1964 1.404 . S
C1965 H1977 0.930 . S
C1966 C1962 1.524 . S
C1966 H1978 0.956 . S
C1966 H1979 0.961 . S
C1966 H1980 0.961 . S
C1967 C1964 1.539 . S
C1967 H1981 0.958 . S
C1967 H1982 0.961 . S
C1967 H1983 0.960 . S
H1968 C1952 0.931 . S
H1969 C1957 0.929 . S
H1970 C1958 0.960 . S
H1971 C1958 0.962 . S
H1972 C1958 0.960 . S
H1973 C1959 0.961 . S
H1974 C1959 0.961 . S
H1975 C1959 0.961 . S
H1976 C1960 0.931 . S
H1977 C1965 0.930 . S
H1978 C1966 0.956 . S
H1979 C1966 0.961 . S
H1980 C1966 0.961 . S
H1981 C1967 0.958 . S
H1982 C1967 0.961 . S
H1983 C1967 0.960 . S
C1984 C1985 1.391 . S
C1984 C1986 1.394 . S
C1984 H2000 0.931 . S
C1985 C1984 1.391 . S
C1985 C1989 1.376 . S
C1986 C1984 1.394 . S
C1986 C1987 1.369 . S
C1986 C1990 1.531 1_554 S
C1987 C1986 1.369 . S
C1987 C1988 1.410 . S
C1987 C1995 1.503 1_564 S
C1988 C1987 1.410 . S
C1988 C1989 1.392 . S
C1988 C1991 1.511 . S
C1989 C1985 1.376 . S
C1989 C1988 1.392 . S
C1989 H2001 0.929 . S
C1990 C1986 1.531 1_556 S
C1990 H2002 0.960 . S
C1990 H2003 0.962 1_556 S
C1990 H2004 0.960 . S
C1991 C1988 1.511 . S
C1991 H2005 0.961 . S
C1991 H2006 0.961 1_565 S
C1991 H2007 0.961 1_554 S
C1992 C1993 1.370 . S
C1992 C1994 1.363 1_556 S
C1992 H2008 0.931 1_556 S
C1993 C1992 1.370 . S
C1993 C1997 1.408 . S
C1994 C1992 1.363 1_554 S
C1994 C1995 1.370 1_554 S
C1994 C1998 1.524 . S
C1995 C1987 1.503 1_546 S
C1995 C1994 1.370 1_556 S
C1995 C1996 1.403 . S
C1996 C1995 1.403 . S
C1996 C1997 1.404 . S
C1996 C1999 1.539 1_545 S
C1997 C1993 1.408 . S
C1997 C1996 1.404 . S
C1997 H2009 0.930 . S
C1998 C1994 1.524 . S
C1998 H2010 0.956 . S
C1998 H2011 0.961 . S
C1998 H2012 0.961 . S
C1999 C1996 1.539 1_565 S
C1999 H2013 0.958 . S
C1999 H2014 0.961 . S
C1999 H2015 0.960 . S
H2000 C1984 0.931 . S
H2001 C1989 0.929 . S
H2002 C1990 0.960 . S
H2003 C1990 0.962 1_554 S
H2004 C1990 0.960 . S
H2005 C1991 0.961 . S
H2006 C1991 0.961 1_545 S
H2007 C1991 0.961 1_556 S
H2008 C1992 0.931 1_554 S
H2009 C1997 0.930 . S
H2010 C1998 0.956 . S
H2011 C1998 0.961 . S
H2012 C1998 0.961 . S
H2013 C1999 0.958 . S
H2014 C1999 0.961 . S
H2015 C1999 0.960 . S
C2016 C2017 1.391 . S
C2016 C2018 1.394 . S
C2016 H2032 0.931 . S
C2017 C2016 1.391 . S
C2017 C2021 1.376 . S
C2018 C2016 1.394 . S
C2018 C2019 1.369 . S
C2018 C2022 1.531 . S
C2019 C2018 1.369 . S
C2019 C2020 1.410 . S
C2019 C2027 1.503 . S
C2020 C2019 1.410 . S
C2020 C2021 1.392 . S
C2020 C2023 1.511 . S
C2021 C2017 1.376 . S
C2021 C2020 1.392 . S
C2021 H2033 0.929 . S
C2022 C2018 1.531 . S
C2022 H2034 0.960 . S
C2022 H2035 0.962 . S
C2022 H2036 0.960 . S
C2023 C2020 1.511 . S
C2023 H2037 0.961 . S
C2023 H2038 0.961 . S
C2023 H2039 0.961 . S
C2024 C2025 1.370 . S
C2024 C2026 1.363 . S
C2024 H2040 0.931 . S
C2025 C2024 1.370 . S
C2025 C2029 1.408 . S
C2026 C2024 1.363 . S
C2026 C2027 1.370 . S
C2026 C2030 1.524 . S
C2027 C2019 1.503 . S
C2027 C2026 1.370 . S
C2027 C2028 1.403 . S
C2028 C2027 1.403 . S
C2028 C2029 1.404 . S
C2028 C2031 1.539 . S
C2029 C2025 1.408 . S
C2029 C2028 1.404 . S
C2029 H2041 0.930 . S
C2030 C2026 1.524 . S
C2030 H2042 0.956 . S
C2030 H2043 0.961 . S
C2030 H2044 0.961 . S
C2031 C2028 1.539 . S
C2031 H2045 0.958 . S
C2031 H2046 0.961 . S
C2031 H2047 0.960 . S
H2032 C2016 0.931 . S
H2033 C2021 0.929 . S
H2034 C2022 0.960 . S
H2035 C2022 0.962 . S
H2036 C2022 0.960 . S
H2037 C2023 0.961 . S
H2038 C2023 0.961 . S
H2039 C2023 0.961 . S
H2040 C2024 0.931 . S
H2041 C2029 0.930 . S
H2042 C2030 0.956 . S
H2043 C2030 0.961 . S
H2044 C2030 0.961 . S
H2045 C2031 0.958 . S
H2046 C2031 0.961 . S
H2047 C2031 0.960 . S
C2048 C2049 1.391 . S
C2048 C2050 1.394 . S
C2048 H2064 0.931 . S
C2049 C2048 1.391 . S
C2049 C2053 1.376 . S
C2050 C2048 1.394 . S
C2050 C2051 1.369 . S
C2050 C2054 1.531 1_565 S
C2051 C2050 1.369 . S
C2051 C2052 1.410 . S
C2051 C2059 1.503 1_565 S
C2052 C2051 1.410 . S
C2052 C2053 1.392 . S
C2052 C2055 1.511 . S
C2053 C2049 1.376 . S
C2053 C2052 1.392 . S
C2053 H2065 0.929 . S
C2054 C2050 1.531 1_545 S
C2054 H2066 0.960 . S
C2054 H2067 0.962 . S
C2054 H2068 0.960 1_545 S
C2055 C2052 1.511 . S
C2055 H2069 0.961 . S
C2055 H2070 0.961 . S
C2055 H2071 0.961 . S
C2056 C2057 1.370 . S
C2056 C2058 1.363 . S
C2056 H2072 0.931 . S
C2057 C2056 1.370 . S
C2057 C2061 1.408 . S
C2058 C2056 1.363 . S
C2058 C2059 1.370 . S
C2058 C2062 1.524 1_545 S
C2059 C2051 1.503 1_545 S
C2059 C2058 1.370 . S
C2059 C2060 1.403 . S
C2060 C2059 1.403 . S
C2060 C2061 1.404 . S
C2060 C2063 1.539 . S
C2061 C2057 1.408 . S
C2061 C2060 1.404 . S
C2061 H2073 0.930 . S
C2062 C2058 1.524 1_565 S
C2062 H2074 0.956 . S
C2062 H2075 0.961 . S
C2062 H2076 0.961 1_565 S
C2063 C2060 1.539 . S
C2063 H2077 0.958 . S
C2063 H2078 0.961 . S
C2063 H2079 0.960 . S
H2064 C2048 0.931 . S
H2065 C2053 0.929 . S
H2066 C2054 0.960 . S
H2067 C2054 0.962 . S
H2068 C2054 0.960 1_565 S
H2069 C2055 0.961 . S
H2070 C2055 0.961 . S
H2071 C2055 0.961 . S
H2072 C2056 0.931 . S
H2073 C2061 0.930 . S
H2074 C2062 0.956 . S
H2075 C2062 0.961 . S
H2076 C2062 0.961 1_545 S
H2077 C2063 0.958 . S
H2078 C2063 0.961 . S
H2079 C2063 0.960 . S
C2080 C2081 1.391 . S
C2080 C2082 1.394 . S
C2080 H2096 0.931 . S
C2081 C2080 1.391 . S
C2081 C2085 1.376 . S
C2082 C2080 1.394 . S
C2082 C2083 1.369 . S
C2082 C2086 1.531 . S
C2083 C2082 1.369 . S
C2083 C2084 1.410 . S
C2083 C2091 1.503 . S
C2084 C2083 1.410 . S
C2084 C2085 1.392 . S
C2084 C2087 1.511 . S
C2085 C2081 1.376 . S
C2085 C2084 1.392 . S
C2085 H2097 0.929 . S
C2086 C2082 1.531 . S
C2086 H2098 0.960 . S
C2086 H2099 0.962 . S
C2086 H2100 0.960 . S
C2087 C2084 1.511 . S
C2087 H2101 0.961 . S
C2087 H2102 0.961 . S
C2087 H2103 0.961 . S
C2088 C2089 1.370 . S
C2088 C2090 1.363 . S
C2088 H2104 0.931 . S
C2089 C2088 1.370 . S
C2089 C2093 1.408 . S
C2090 C2088 1.363 . S
C2090 C2091 1.370 . S
C2090 C2094 1.524 . S
C2091 C2083 1.503 . S
C2091 C2090 1.370 . S
C2091 C2092 1.403 . S
C2092 C2091 1.403 . S
C2092 C2093 1.404 . S
C2092 C2095 1.539 . S
C2093 C2089 1.408 . S
C2093 C2092 1.404 . S
C2093 H2105 0.930 . S
C2094 C2090 1.524 . S
C2094 H2106 0.956 . S
C2094 H2107 0.961 . S
C2094 H2108 0.961 . S
C2095 C2092 1.539 . S
C2095 H2109 0.958 . S
C2095 H2110 0.961 . S
C2095 H2111 0.960 . S
H2096 C2080 0.931 . S
H2097 C2085 0.929 . S
H2098 C2086 0.960 . S
H2099 C2086 0.962 . S
H2100 C2086 0.960 . S
H2101 C2087 0.961 . S
H2102 C2087 0.961 . S
H2103 C2087 0.961 . S
H2104 C2088 0.931 . S
H2105 C2093 0.930 . S
H2106 C2094 0.956 . S
H2107 C2094 0.961 . S
H2108 C2094 0.961 . S
H2109 C2095 0.958 . S
H2110 C2095 0.961 . S
H2111 C2095 0.960 . S
C2112 C2113 1.391 . S
C2112 C2114 1.394 . S
C2112 H2128 0.931 . S
C2113 C2112 1.391 . S
C2113 C2117 1.376 . S
C2114 C2112 1.394 . S
C2114 C2115 1.369 . S
C2114 C2118 1.531 1_556 S
C2115 C2114 1.369 . S
C2115 C2116 1.410 . S
C2115 C2123 1.503 1_546 S
C2116 C2115 1.410 . S
C2116 C2117 1.392 . S
C2116 C2119 1.512 1_545 S
C2117 C2113 1.376 . S
C2117 C2116 1.392 . S
C2117 H2129 0.929 . S
C2118 C2114 1.531 1_554 S
C2118 H2130 0.960 . S
C2118 H2131 0.962 . S
C2118 H2132 0.960 . S
C2119 C2116 1.512 1_565 S
C2119 H2133 0.961 . S
C2119 H2134 0.959 . S
C2119 H2135 0.961 1_565 S
C2120 C2121 1.370 . S
C2120 C2122 1.363 1_554 S
C2120 H2136 0.931 . S
C2121 C2120 1.370 . S
C2121 C2125 1.408 . S
C2122 C2120 1.363 1_556 S
C2122 C2123 1.370 1_556 S
C2122 C2126 1.524 . S
C2123 C2115 1.503 1_564 S
C2123 C2122 1.370 1_554 S
C2123 C2124 1.403 . S
C2124 C2123 1.403 . S
C2124 C2125 1.404 . S
C2124 C2127 1.539 1_565 S
C2125 C2121 1.408 . S
C2125 C2124 1.404 . S
C2125 H2137 0.930 . S
C2126 C2122 1.524 . S
C2126 H2138 0.956 . S
C2126 H2139 0.961 . S
C2126 H2140 0.961 . S
C2127 C2124 1.539 1_545 S
C2127 H2141 0.958 . S
C2127 H2142 0.961 . S
C2127 H2143 0.960 . S
H2128 C2112 0.931 . S
H2129 C2117 0.929 . S
H2130 C2118 0.960 . S
H2131 C2118 0.962 . S
H2132 C2118 0.960 . S
H2133 C2119 0.961 . S
H2134 C2119 0.959 . S
H2135 C2119 0.961 1_545 S
H2136 C2120 0.931 . S
H2137 C2125 0.930 . S
H2138 C2126 0.956 . S
H2139 C2126 0.961 . S
H2140 C2126 0.961 . S
H2141 C2127 0.958 . S
H2142 C2127 0.961 . S
H2143 C2127 0.960 . S
C2144 C2145 1.391 . S
C2144 C2146 1.394 . S
C2144 H2160 0.931 . S
C2145 C2144 1.391 . S
C2145 C2149 1.376 . S
C2146 C2144 1.394 . S
C2146 C2147 1.369 . S
C2146 C2150 1.531 . S
C2147 C2146 1.369 . S
C2147 C2148 1.410 . S
C2147 C2155 1.503 . S
C2148 C2147 1.410 . S
C2148 C2149 1.392 . S
C2148 C2151 1.511 . S
C2149 C2145 1.376 . S
C2149 C2148 1.392 . S
C2149 H2161 0.929 . S
C2150 C2146 1.531 . S
C2150 H2162 0.960 . S
C2150 H2163 0.962 . S
C2150 H2164 0.960 . S
C2151 C2148 1.511 . S
C2151 H2165 0.961 . S
C2151 H2166 0.961 . S
C2151 H2167 0.961 . S
C2152 C2153 1.370 . S
C2152 C2154 1.363 . S
C2152 H2168 0.931 . S
C2153 C2152 1.370 . S
C2153 C2157 1.408 . S
C2154 C2152 1.363 . S
C2154 C2155 1.370 . S
C2154 C2158 1.524 . S
C2155 C2147 1.503 . S
C2155 C2154 1.370 . S
C2155 C2156 1.403 . S
C2156 C2155 1.403 . S
C2156 C2157 1.404 . S
C2156 C2159 1.539 . S
C2157 C2153 1.408 . S
C2157 C2156 1.404 . S
C2157 H2169 0.930 . S
C2158 C2154 1.524 . S
C2158 H2170 0.956 . S
C2158 H2171 0.961 . S
C2158 H2172 0.961 . S
C2159 C2156 1.539 . S
C2159 H2173 0.958 . S
C2159 H2174 0.961 . S
C2159 H2175 0.960 . S
H2160 C2144 0.931 . S
H2161 C2149 0.929 . S
H2162 C2150 0.960 . S
H2163 C2150 0.962 . S
H2164 C2150 0.960 . S
H2165 C2151 0.961 . S
H2166 C2151 0.961 . S
H2167 C2151 0.961 . S
H2168 C2152 0.931 . S
H2169 C2157 0.930 . S
H2170 C2158 0.956 . S
H2171 C2158 0.961 . S
H2172 C2158 0.961 . S
H2173 C2159 0.958 . S
H2174 C2159 0.961 . S
H2175 C2159 0.960 . S
C641 C6 1.888 . S
C649 C15 1.854 . S
C673 C55 1.859 1_556 S
C681 C46 1.867 . S
C705 C95 1.533 . S
C713 C86 1.507 . S
C737 C126 1.490 . S
C745 C135 1.524 . S
C769 C166 1.833 . S
C777 C175 1.877 . S
C801 C215 1.496 . S
C809 C206 1.521 . S
C833 C255 1.504 . S
C841 C246 1.517 . S
C865 C295 1.849 1_554 S
C873 C286 1.871 . S
C897 C335 1.842 . S
C905 C326 1.874 . S
C929 C375 1.875 . S
C937 C366 1.857 1_554 S
C961 C415 1.499 . S
C969 C406 1.519 . S
C993 C455 1.496 . S
C1001 C446 1.521 . S
C1025 C495 1.866 . S
C1033 C486 1.860 . S
C1057 C535 1.501 . S
C1065 C526 1.518 . S
C1089 C566 1.532 . S
C1097 C575 1.508 . S
C1121 C606 1.849 1_556 S
C1129 C615 1.867 . S
C1153 C9 1.605 . S
C1161 C459 1.701 . S
C1185 C50 1.710 . S
C1193 C619 1.699 . S
C1217 C90 1.694 . S
C1225 C378 1.643 . S
C1249 C129 1.747 . S
C1257 C538 1.747 . S
C1281 C169 1.660 . S
C1289 C539 1.720 . S
C1313 C458 1.707 . S
C1321 C209 1.729 . S
C1345 C250 1.727 . S
C1353 C618 1.643 . S
C1377 C290 1.709 . S
C1385 C379 1.697 . S
C1409 C130 1.683 . S
C1417 C338 1.631 . S
C1441 C49 1.660 . S
C1449 C419 1.720 . S
C1473 C498 1.648 . S
C1481 C210 1.707 . S
C1505 C289 1.609 . S
C1513 C579 1.701 . S
C1537 C339 1.676 . S
C1545 C170 1.687 . S
C1569 C249 1.730 . S
C1577 C418 1.740 . S
C1601 C89 1.707 . S
C1609 C578 1.729 . S
C1633 C10 1.711 . S
C1641 C499 1.699 . S
C1665 C18 1.328 . S
C1673 C178 1.319 . S
C1697 C59 1.712 . S
C1705 C218 1.737 . S
C1729 C99 2.080 . S
C1737 C259 2.080 . S
C1761 C138 1.741 . S
C1769 C299 1.725 . S
C1793 C489 1.306 . S
C1801 C329 1.312 . S
C1825 C529 1.737 . S
C1833 C370 1.729 . S
C1857 C410 2.076 . S
C1865 C570 2.086 . S
C1889 C610 1.726 . S
C1897 C449 1.734 . S
C1921 C58 1.306 . S
C1929 C298 1.311 . S
C1953 C179 1.712 . S
C1961 C98 1.737 . S
C1985 C219 2.072 . S
C1993 C139 2.083 . S
C2017 C19 1.717 . S
C2025 C258 1.734 . S
C2049 C609 1.315 . S
C2057 C369 1.323 . S
C2081 C490 1.716 . S
C2089 C409 1.736 . S
C2113 C530 2.076 . S
C2121 C450 2.086 . S
C2145 C569 1.740 . S
C2153 C330 1.725 . S
