# Generated by pormake.
# Topology wme, (6)-cn, num edge types: 1
# Building blocks:
#     Node 0, Type 0, BuildingBlock: NUHQIS_clean_sbu_0, # of connection points: 6
#     Node 1, Type 0, BuildingBlock: NUHQIS_clean_sbu_0, # of connection points: 6
#     Node 2, Type 0, BuildingBlock: NUHQIS_clean_sbu_0, # of connection points: 6
#     Node 3, Type 0, BuildingBlock: NUHQIS_clean_sbu_0, # of connection points: 6
#     Node 4, Type 0, BuildingBlock: NUHQIS_clean_sbu_0, # of connection points: 6
#     Node 5, Type 0, BuildingBlock: NUHQIS_clean_sbu_0, # of connection points: 6
#     Node 6, Type 0, BuildingBlock: NUHQIS_clean_sbu_0, # of connection points: 6
#     Node 7, Type 0, BuildingBlock: NUHQIS_clean_sbu_0, # of connection points: 6
#     Node 8, Type 0, BuildingBlock: NUHQIS_clean_sbu_0, # of connection points: 6
#     Node 9, Type 0, BuildingBlock: NUHQIS_clean_sbu_0, # of connection points: 6
#     Node 10, Type 0, BuildingBlock: NUHQIS_clean_sbu_0, # of connection points: 6
#     Node 11, Type 0, BuildingBlock: NUHQIS_clean_sbu_0, # of connection points: 6
#     Edge 12, Type (0, 0), BuildingBlock: CIFDUS_clean_linker_0, # of connection points: 2
#     Edge 13, Type (0, 0), BuildingBlock: CIFDUS_clean_linker_0, # of connection points: 2
#     Edge 14, Type (0, 0), BuildingBlock: CIFDUS_clean_linker_0, # of connection points: 2
#     Edge 15, Type (0, 0), BuildingBlock: CIFDUS_clean_linker_0, # of connection points: 2
#     Edge 16, Type (0, 0), BuildingBlock: CIFDUS_clean_linker_0, # of connection points: 2
#     Edge 17, Type (0, 0), BuildingBlock: CIFDUS_clean_linker_0, # of connection points: 2
#     Edge 18, Type (0, 0), BuildingBlock: CIFDUS_clean_linker_0, # of connection points: 2
#     Edge 19, Type (0, 0), BuildingBlock: CIFDUS_clean_linker_0, # of connection points: 2
#     Edge 20, Type (0, 0), BuildingBlock: CIFDUS_clean_linker_0, # of connection points: 2
#     Edge 21, Type (0, 0), BuildingBlock: CIFDUS_clean_linker_0, # of connection points: 2
#     Edge 22, Type (0, 0), BuildingBlock: CIFDUS_clean_linker_0, # of connection points: 2
#     Edge 23, Type (0, 0), BuildingBlock: CIFDUS_clean_linker_0, # of connection points: 2
#     Edge 24, Type (0, 0), BuildingBlock: CIFDUS_clean_linker_0, # of connection points: 2
#     Edge 25, Type (0, 0), BuildingBlock: CIFDUS_clean_linker_0, # of connection points: 2
#     Edge 26, Type (0, 0), BuildingBlock: CIFDUS_clean_linker_0, # of connection points: 2
#     Edge 27, Type (0, 0), BuildingBlock: CIFDUS_clean_linker_0, # of connection points: 2
#     Edge 28, Type (0, 0), BuildingBlock: CIFDUS_clean_linker_0, # of connection points: 2
#     Edge 29, Type (0, 0), BuildingBlock: CIFDUS_clean_linker_0, # of connection points: 2
#     Edge 30, Type (0, 0), BuildingBlock: CIFDUS_clean_linker_0, # of connection points: 2
#     Edge 31, Type (0, 0), BuildingBlock: CIFDUS_clean_linker_0, # of connection points: 2
#     Edge 32, Type (0, 0), BuildingBlock: CIFDUS_clean_linker_0, # of connection points: 2
#     Edge 33, Type (0, 0), BuildingBlock: CIFDUS_clean_linker_0, # of connection points: 2
#     Edge 34, Type (0, 0), BuildingBlock: CIFDUS_clean_linker_0, # of connection points: 2
#     Edge 35, Type (0, 0), BuildingBlock: CIFDUS_clean_linker_0, # of connection points: 2
#     Edge 36, Type (0, 0), BuildingBlock: CIFDUS_clean_linker_0, # of connection points: 2
#     Edge 37, Type (0, 0), BuildingBlock: CIFDUS_clean_linker_0, # of connection points: 2
#     Edge 38, Type (0, 0), BuildingBlock: CIFDUS_clean_linker_0, # of connection points: 2
#     Edge 39, Type (0, 0), BuildingBlock: CIFDUS_clean_linker_0, # of connection points: 2
#     Edge 40, Type (0, 0), BuildingBlock: CIFDUS_clean_linker_0, # of connection points: 2
#     Edge 41, Type (0, 0), BuildingBlock: CIFDUS_clean_linker_0, # of connection points: 2
#     Edge 42, Type (0, 0), BuildingBlock: CIFDUS_clean_linker_0, # of connection points: 2
#     Edge 43, Type (0, 0), BuildingBlock: CIFDUS_clean_linker_0, # of connection points: 2
#     Edge 44, Type (0, 0), BuildingBlock: CIFDUS_clean_linker_0, # of connection points: 2
#     Edge 45, Type (0, 0), BuildingBlock: CIFDUS_clean_linker_0, # of connection points: 2
#     Edge 46, Type (0, 0), BuildingBlock: CIFDUS_clean_linker_0, # of connection points: 2
#     Edge 47, Type (0, 0), BuildingBlock: CIFDUS_clean_linker_0, # of connection points: 2
# Relax obj value: 0.091
# Max RMSD: 0.196
# Mean RMSD: 0.196
data_MOF--net-wme--node1-NUHQIS_clean_sbu_0--edge1-CIFDUS_clean_linker_0
_symmetry_space_group_name_H-M    P1
_symmetry_Int_Tables_number       1
_symmetry_cell_setting            triclinic
loop_
_symmetry_equiv_pos_as_xyz
'x, y, z'
_cell_length_a     36.330005
_cell_length_b     36.254377
_cell_length_c     45.862366
_cell_angle_alpha  89.983491
_cell_angle_beta   90.233184
_cell_angle_gamma 120.1125
loop_
_atom_site_label
_atom_site_type_symbol
_atom_site_fract_x
_atom_site_fract_y
_atom_site_fract_z
_atom_type_partial_charge
Tb0 Tb 0.22087 0.37738 0.10883 0.0
Eu1 Eu 0.26224 0.32393 0.14115 0.0
C2 C 0.24804 0.32031 0.07332 0.0
C3 C 0.16234 0.28427 0.1302 0.0
C4 C 0.18616 0.45705 0.0932 0.0
C5 C 0.15732 0.50359 0.08295 0.0
C6 C 0.15936 0.46676 0.0769 0.0
C7 C 0.21048 0.48436 0.11598 0.0
C8 C 0.20854 0.52126 0.12202 0.0
C9 C 0.18217 0.53158 0.10543 0.0
C10 C 0.18802 0.41822 0.08632 0.0
O11 O 0.21472 0.38203 0.1558 0.0
O12 O 0.26867 0.3727 0.17394 0.0
O13 O 0.3176 0.38578 0.12426 0.0
O14 O 0.2845 0.42578 0.12215 0.0
C15 C 0.24118 0.38589 0.1769 0.0
O16 O 0.2658 0.2872 0.17766 0.0
O17 O 0.3018 0.29421 0.13846 0.0
O18 O 0.24048 0.29675 0.09655 0.0
O19 O 0.24826 0.35673 0.07447 0.0
O20 O 0.1715 0.31042 0.10806 0.0
O21 O 0.19166 0.28925 0.14913 0.0
C22 C 0.31914 0.42284 0.12199 0.0
O23 O 0.22509 0.42363 0.07913 0.0
O24 O 0.16835 0.38649 0.10433 0.0
C25 C 0.27087 0.22721 0.16222 0.0
C26 C 0.2391 0.13811 0.1586 0.0
C27 C 0.21168 0.15401 0.1647 0.0
C28 C 0.22732 0.19803 0.16633 0.0
C29 C 0.29832 0.21144 0.15629 0.0
C30 C 0.28264 0.16743 0.15442 0.0
C31 C 0.28778 0.27392 0.16309 0.0
H32 H 0.13708 0.51069 0.06951 0.0
H33 H 0.14022 0.44599 0.05928 0.0
H34 H 0.23108 0.47722 0.12901 0.0
H35 H 0.22771 0.54171 0.13974 0.0
H36 H 0.17793 0.1324 0.16767 0.0
H37 H 0.20521 0.20919 0.17055 0.0
H38 H 0.33196 0.23324 0.15294 0.0
H39 H 0.30471 0.15632 0.14995 0.0
Tb40 Tb 0.87511 0.21567 0.61036 0.0
Eu41 Eu 0.97035 0.25639 0.64353 0.0
C42 C 0.9609 0.24977 0.57531 0.0
C43 C 0.91154 0.15744 0.6296 0.0
C44 C 0.76261 0.18471 0.59156 0.0
C45 C 0.68672 0.15497 0.58246 0.0
C46 C 0.72498 0.1555 0.57712 0.0
C47 C 0.76136 0.21325 0.61166 0.0
C48 C 0.72313 0.21282 0.61698 0.0
C49 C 0.68523 0.18374 0.60238 0.0
C50 C 0.80239 0.184 0.58614 0.0
O51 O 0.86253 0.2283 0.65458 0.0
O52 O 0.92249 0.23751 0.67913 0.0
O53 O 0.95501 0.3096 0.64594 0.0
O54 O 0.90117 0.28427 0.61127 0.0
C55 C 0.88403 0.2323 0.67869 0.0
O56 O 1.00899 0.25082 0.67798 0.0
O57 O 1.03919 0.2996 0.64503 0.0
O58 O 0.98067 0.27545 0.59705 0.0
O59 O 0.92094 0.21877 0.57763 0.0
O60 O 0.87867 0.16309 0.63 0.0
O61 O 0.95031 0.18998 0.62759 0.0
C62 C 0.92834 0.31446 0.62891 0.0
O63 O 0.83558 0.21971 0.57824 0.0
O64 O 0.81247 0.16452 0.60564 0.0
C65 C 0.07702 0.26631 0.6625 0.0
C66 C 0.13544 0.23666 0.6566 0.0
C67 C 0.13277 0.25537 0.68283 0.0
C68 C 0.10389 0.27003 0.68571 0.0
C69 C 0.07965 0.24792 0.63618 0.0
C70 C 0.10872 0.23344 0.63321 0.0
C71 C 0.04491 0.27948 0.66661 0.0
H72 H 0.65846 0.13251 0.57054 0.0
H73 H 0.72519 0.13305 0.56163 0.0
H74 H 0.78992 0.23577 0.62331 0.0
H75 H 0.72322 0.23508 0.63275 0.0
H76 H 0.15318 0.25887 0.70116 0.0
H77 H 0.10223 0.28391 0.70624 0.0
H78 H 0.05882 0.24423 0.61806 0.0
H79 H 0.10957 0.21881 0.61283 0.0
Tb80 Tb 0.67764 0.84861 0.10387 0.0
Eu81 Eu 0.73392 0.94246 0.13567 0.0
C82 C 0.73282 0.93359 0.0682 0.0
C83 C 0.77196 0.88178 0.12057 0.0
C84 C 0.59512 0.73537 0.08794 0.0
C85 C 0.54837 0.65949 0.07919 0.0
C86 C 0.58547 0.69792 0.07286 0.0
C87 C 0.56743 0.73385 0.10976 0.0
C88 C 0.53023 0.69544 0.11606 0.0
C89 C 0.52009 0.65777 0.10075 0.0
C90 C 0.63423 0.77553 0.08078 0.0
O91 O 0.67862 0.83725 0.15082 0.0
O92 O 0.68871 0.90043 0.16959 0.0
O93 O 0.671 0.93583 0.12068 0.0
O94 O 0.63064 0.86286 0.1209 0.0
C95 C 0.67733 0.86019 0.17272 0.0
O96 O 0.77891 0.9841 0.16903 0.0
O97 O 0.75536 1.01035 0.13629 0.0
O98 O 0.75844 0.94816 0.0906 0.0
O99 O 0.69572 0.89812 0.07029 0.0
O100 O 0.74392 0.86603 0.09932 0.0
O101 O 0.76928 0.90607 0.14076 0.0
C102 C 0.63363 0.90046 0.12042 0.0
O103 O 0.62967 0.8081 0.07451 0.0
O104 O 0.66664 0.78634 0.09803 0.0
C105 C 0.82739 0.05288 0.15102 0.0
C106 C 0.91245 0.11686 0.14001 0.0
C107 C 0.8978 0.10518 0.16879 0.0
C108 C 0.85568 0.07352 0.17421 0.0
C109 C 0.84192 0.06453 0.12228 0.0
C110 C 0.88392 0.09616 0.11683 0.0
C111 C 0.78331 1.0187 0.15697 0.0
H112 H 0.54138 0.63132 0.06673 0.0
H113 H 0.60653 0.69847 0.05598 0.0
H114 H 0.57451 0.76237 0.12183 0.0
H115 H 0.50948 0.69521 0.13304 0.0
H116 H 0.91878 0.12083 0.18714 0.0
H117 H 0.8452 0.06507 0.19654 0.0
H118 H 0.82088 0.04906 0.10396 0.0
H119 H 0.89422 0.10394 0.09442 0.0
Tb120 Tb 0.8638 0.67358 0.60714 0.0
Eu121 Eu 0.82669 0.73009 0.63911 0.0
C122 C 0.83447 0.72921 0.57132 0.0
C123 C 0.92536 0.76803 0.62375 0.0
C124 C 0.89399 0.59047 0.59117 0.0
C125 C 0.88533 0.52323 0.57379 0.0
C126 C 0.88473 0.56091 0.56866 0.0
C127 C 0.90423 0.5818 0.61903 0.0
C128 C 0.90515 0.54411 0.62413 0.0
C129 C 0.89541 0.51426 0.60159 0.0
C130 C 0.89343 0.63017 0.58475 0.0
O131 O 0.87454 0.67311 0.65422 0.0
O132 O 0.82056 0.68209 0.67184 0.0
O133 O 0.76985 0.66811 0.62312 0.0
O134 O 0.80121 0.62669 0.62244 0.0
C135 C 0.84884 0.6702 0.67544 0.0
O136 O 0.8288 0.77169 0.67431 0.0
O137 O 0.78313 0.75498 0.63911 0.0
O138 O 0.84392 0.75431 0.5939 0.0
O139 O 0.83454 0.69292 0.57279 0.0
O140 O 0.91266 0.73991 0.60258 0.0
O141 O 0.89859 0.76575 0.64386 0.0
C142 C 0.76711 0.63045 0.62194 0.0
O143 O 0.85673 0.62595 0.57761 0.0
O144 O 0.91483 0.66244 0.60224 0.0
C145 C 0.81234 0.82391 0.65892 0.0
C146 C 0.83177 0.90913 0.65138 0.0
C147 C 0.80029 0.88208 0.67127 0.0
C148 C 0.79067 0.83988 0.67497 0.0
C149 C 0.84427 0.85081 0.63939 0.0
C150 C 0.85397 0.89311 0.63569 0.0
C151 C 0.80054 0.77891 0.66203 0.0
H152 H 0.8782 0.50118 0.55586 0.0
H153 H 0.87703 0.56701 0.54699 0.0
H154 H 0.91141 0.60402 0.63685 0.0
H155 H 0.91267 0.53793 0.64582 0.0
H156 H 0.78302 0.89355 0.68403 0.0
H157 H 0.76601 0.81959 0.69018 0.0
H158 H 0.86125 0.83889 0.62674 0.0
H159 H 0.87808 0.9129 0.62002 0.0
Tb160 Tb 0.20694 0.83265 0.1078 0.0
Eu161 Eu 0.11354 0.79657 0.13975 0.0
C162 C 0.12235 0.8062 0.07214 0.0
C163 C 0.17707 0.89566 0.12596 0.0
C164 C 0.32047 0.86373 0.0923 0.0
C165 C 0.39586 0.89269 0.08263 0.0
C166 C 0.35732 0.89129 0.07673 0.0
C167 C 0.32271 0.83783 0.11416 0.0
C168 C 0.36126 0.83913 0.12005 0.0
C169 C 0.39834 0.86646 0.10426 0.0
C170 C 0.28028 0.86285 0.08557 0.0
O171 O 0.21729 0.8406 0.15525 0.0
O172 O 0.15345 0.78638 0.17191 0.0
O173 O 0.11698 0.73865 0.12366 0.0
O174 O 0.18979 0.76909 0.12184 0.0
C175 C 0.19389 0.8136 0.17585 0.0
O176 O 0.07488 0.79874 0.17544 0.0
O177 O 0.04449 0.75621 0.13878 0.0
O178 O 0.1081 0.81639 0.09499 0.0
O179 O 0.15807 0.80502 0.07322 0.0
O180 O 0.19116 0.88275 0.10424 0.0
O181 O 0.15251 0.86853 0.14598 0.0
C182 C 0.15153 0.7353 0.12184 0.0
O183 O 0.24771 0.82598 0.07856 0.0
O184 O 0.26954 0.88374 0.10344 0.0
C185 C 1.00876 0.78936 0.15948 0.0
C186 C 0.95137 0.82047 0.15517 0.0
C187 C 0.95386 0.80045 0.18082 0.0
C188 C 0.98224 0.78502 0.18291 0.0
C189 C 1.00666 0.80958 0.13389 0.0
C190 C 0.97814 0.82481 0.13172 0.0
C191 C 1.03902 0.77354 0.16212 0.0
H192 H 0.4235 0.91366 0.06977 0.0
H193 H 0.35624 0.91159 0.05981 0.0
H194 H 0.29466 0.81657 0.1266 0.0
H195 H 0.36205 0.81885 0.13709 0.0
H196 H 0.93343 0.79617 0.19918 0.0
H197 H 0.98346 0.76965 0.20287 0.0
H198 H 1.02717 0.81374 0.1156 0.0
H199 H 0.97748 0.84053 0.1118 0.0
Tb200 Tb 0.40751 0.20586 0.60507 0.0
Eu201 Eu 0.35159 0.11346 0.6383 0.0
C202 C 0.35174 0.11981 0.57038 0.0
C203 C 0.31373 0.17394 0.62192 0.0
C204 C 0.48946 0.3187 0.58873 0.0
C205 C 0.53707 0.39413 0.57928 0.0
C206 C 0.50004 0.35563 0.57273 0.0
C207 C 0.5161 0.32078 0.61168 0.0
C208 C 0.5532 0.35923 0.61821 0.0
C209 C 0.56431 0.39638 0.60199 0.0
C210 C 0.4504 0.27846 0.58149 0.0
O211 O 0.40829 0.21865 0.65182 0.0
O212 O 0.39971 0.15642 0.67102 0.0
O213 O 0.41364 0.11794 0.62351 0.0
O214 O 0.45478 0.19095 0.62115 0.0
C215 C 0.41134 0.19679 0.67374 0.0
O216 O 0.31358 0.07573 0.67514 0.0
O217 O 0.32143 0.04391 0.63767 0.0
O218 O 0.32654 0.10558 0.59289 0.0
O219 O 0.38856 0.15564 0.57205 0.0
O220 O 0.34113 0.18843 0.60041 0.0
O221 O 0.317 0.15067 0.64263 0.0
C222 C 0.45122 0.15304 0.62162 0.0
O223 O 0.45503 0.24586 0.57554 0.0
O224 O 0.41811 0.26784 0.59861 0.0
C225 C 0.25412 1.00969 0.66056 0.0
C226 C 0.16547 0.95232 0.65607 0.0
C227 C 0.19457 0.93753 0.65431 0.0
C228 C 0.23841 0.96592 0.65662 0.0
C229 C 0.22515 1.02463 0.66224 0.0
C230 C 0.18128 0.99619 0.66021 0.0
C231 C 0.30063 0.03941 0.6618 0.0
H232 H 0.54485 0.4219 0.56613 0.0
H233 H 0.47976 0.35464 0.55499 0.0
H234 H 0.50824 0.29265 0.62447 0.0
H235 H 0.57314 0.3599 0.63607 0.0
H236 H 0.1834 0.90388 0.65139 0.0
H237 H 0.26012 0.9537 0.65514 0.0
H238 H 0.23636 0.05833 0.66487 0.0
H239 H 0.15975 1.00865 0.6613 0.0
Tb240 Tb 0.68683 0.84275 0.41083 0.0
Eu241 Eu 0.74452 0.80663 0.3795 0.0
C242 C 0.74333 0.81538 0.44719 0.0
C243 C 0.78089 0.90536 0.39474 0.0
C244 C 0.60261 0.87195 0.42499 0.0
C245 C 0.53164 0.8562 0.43893 0.0
C246 C 0.56887 0.85516 0.4449 0.0
C247 C 0.59846 0.89018 0.39894 0.0
C248 C 0.56122 0.89151 0.39304 0.0
C249 C 0.52729 0.87433 0.41293 0.0
C250 C 0.64204 0.87131 0.43242 0.0
O251 O 0.68694 0.85352 0.36378 0.0
O252 O 0.69721 0.80025 0.34591 0.0
O253 O 0.68306 0.74905 0.39522 0.0
O254 O 0.64111 0.77983 0.39466 0.0
C255 C 0.68495 0.82832 0.34234 0.0
O256 O 0.78635 0.80925 0.34446 0.0
O257 O 0.77251 0.76567 0.38054 0.0
O258 O 0.76852 0.82553 0.42475 0.0
O259 O 0.70657 0.8143 0.44547 0.0
O260 O 0.75273 0.89282 0.41572 0.0
O261 O 0.77859 0.87845 0.37463 0.0
C262 C 0.64525 0.74589 0.39568 0.0
O263 O 0.63778 0.83442 0.4392 0.0
O264 O 0.67521 0.89353 0.41603 0.0
C265 C 0.84151 0.79754 0.36056 0.0
C266 C 0.92821 0.82193 0.36751 0.0
C267 C 0.90303 0.79284 0.34558 0.0
C268 C 0.86016 0.78076 0.34218 0.0
C269 C 0.8666 0.82749 0.38199 0.0
C270 C 0.90963 0.83965 0.38541 0.0
C271 C 0.79582 0.78304 0.35748 0.0
H272 H 0.50636 0.84322 0.4549 0.0
H273 H 0.57138 0.84134 0.46524 0.0
H274 H 0.62393 0.90345 0.38311 0.0
H275 H 0.55872 0.90538 0.37274 0.0
H276 H 0.91644 0.7791 0.33109 0.0
H277 H 0.84141 0.75789 0.32539 0.0
H278 H 0.85273 0.84091 0.39636 0.0
H279 H 0.92797 0.86187 0.40262 0.0
Tb280 Tb 0.85726 0.67135 0.91321 0.0
Eu281 Eu 0.95334 0.72063 0.88381 0.0
C282 C 0.94073 0.7247 0.95049 0.0
C283 C 0.89591 0.76449 0.89206 0.0
C284 C 0.74246 0.5921 0.92463 0.0
C285 C 0.66502 0.54997 0.92414 0.0
C286 C 0.70272 0.58786 0.93083 0.0
C287 C 0.74397 0.55827 0.9109 0.0
C288 C 0.70634 0.52032 0.90438 0.0
C289 C 0.66638 0.51547 0.91125 0.0
C290 C 0.7819 0.63181 0.93256 0.0
O291 O 0.84993 0.66832 0.86559 0.0
O292 O 0.91222 0.67257 0.85075 0.0
O293 O 0.94326 0.65723 0.90149 0.0
O294 O 0.86997 0.62108 0.90137 0.0
C295 C 0.87298 0.6631 0.8456 0.0
O296 O 0.9958 0.75716 0.84824 0.0
O297 O 1.02211 0.74836 0.88836 0.0
O298 O 0.95681 0.74849 0.9275 0.0
O299 O 0.90351 0.68934 0.94917 0.0
O300 O 0.8775 0.73883 0.91418 0.0
O301 O 0.91982 0.75771 0.8739 0.0
C302 C 0.90624 0.62153 0.9038 0.0
O303 O 0.81307 0.62765 0.943 0.0
O304 O 0.79544 0.66266 0.91365 0.0
C305 C 0.05862 0.81602 0.8662 0.0
C306 C 0.11316 0.90529 0.87124 0.0
C307 C 0.12669 0.87971 0.85696 0.0
C308 C 0.09966 0.83552 0.85449 0.0
C309 C 0.04478 0.84131 0.88026 0.0
C310 C 0.07173 0.88548 0.88272 0.0
C311 C 1.03012 0.76947 0.86391 0.0
H312 H 0.63485 0.54718 0.92995 0.0
H313 H 0.70086 0.61369 0.94125 0.0
H314 H 0.77425 0.561 0.90551 0.0
H315 H 0.70852 0.49458 0.89412 0.0
H316 H 0.15813 0.8939 0.84748 0.0
H317 H 0.11084 0.81658 0.84345 0.0
H318 H 1.01313 0.8268 0.88949 0.0
H319 H 0.06038 0.90398 0.89412 0.0
Tb320 Tb 0.23223 0.86298 0.40467 0.0
Eu321 Eu 0.27755 0.96325 0.38373 0.0
C322 C 0.27344 0.93954 0.4473 0.0
C323 C 0.17667 0.90435 0.39127 0.0
C324 C 0.19464 0.74602 0.41719 0.0
C325 C 0.22939 0.70352 0.41606 0.0
C326 C 0.23172 0.74311 0.41897 0.0
C327 C 0.15557 0.70892 0.41151 0.0
C328 C 0.15327 0.66941 0.40843 0.0
C329 C 0.19003 0.66608 0.4112 0.0
C330 C 0.19517 0.78656 0.42246 0.0
O331 O 0.24876 0.86211 0.35883 0.0
O332 O 0.25185 0.92425 0.34355 0.0
O333 O 0.3298 0.94689 0.37757 0.0
O334 O 0.29923 0.88225 0.40211 0.0
C335 C 0.25081 0.88828 0.33805 0.0
O336 O 0.29818 1.0156 0.35246 0.0
O337 O 0.30582 0.02879 0.39882 0.0
O338 O 0.30116 0.95586 0.42658 0.0
O339 O 0.23706 0.90487 0.44137 0.0
O340 O 0.18183 0.87157 0.3871 0.0
O341 O 0.20948 0.94224 0.39683 0.0
C342 C 0.33168 0.9142 0.38875 0.0
O343 O 0.22865 0.81775 0.43502 0.0
O344 O 0.18101 0.80015 0.40137 0.0
C345 C 0.28721 0.07058 0.37026 0.0
C346 C 0.25129 0.12394 0.37004 0.0
C347 C 0.29254 0.13855 0.35911 0.0
C348 C 0.31036 0.11211 0.35931 0.0
C349 C 0.24561 0.05536 0.38032 0.0
C350 C 0.22781 0.08175 0.38024 0.0
C351 C 0.30722 0.04406 0.37284 0.0
H352 H 0.2584 0.70213 0.41794 0.0
H353 H 0.26236 0.7712 0.42311 0.0
H354 H 0.12653 0.71036 0.41009 0.0
H355 H 0.12245 0.64124 0.40499 0.0
H356 H 0.31126 0.17059 0.35062 0.0
H357 H 0.34248 0.12436 0.3514 0.0
H358 H 0.22729 1.02341 0.389 0.0
H359 H 0.19621 0.06952 0.38911 0.0
Tb360 Tb 0.39521 0.2119 0.91001 0.0
Eu361 Eu 0.33583 0.24465 0.87598 0.0
C362 C 0.33994 0.2419 0.94438 0.0
C363 C 0.30341 0.14718 0.88974 0.0
C364 C 0.47943 0.18552 0.92862 0.0
C365 C 0.55301 0.22277 0.91229 0.0
C366 C 0.51507 0.22254 0.91803 0.0
C367 C 0.48211 0.14857 0.93268 0.0
C368 C 0.51993 0.14868 0.92672 0.0
C369 C 0.55598 0.18591 0.91673 0.0
C370 C 0.43906 0.18447 0.93503 0.0
O371 O 0.42102 0.2247 0.8658 0.0
O372 O 0.36748 0.22853 0.84079 0.0
O373 O 0.40331 0.30065 0.8727 0.0
O374 O 0.43457 0.28075 0.90874 0.0
C375 C 0.40252 0.22649 0.84147 0.0
O376 O 0.28697 0.2329 0.84357 0.0
O377 O 0.31131 0.28842 0.87151 0.0
O378 O 0.34357 0.26564 0.92202 0.0
O379 O 0.35048 0.21205 0.94239 0.0
O380 O 0.34346 0.15796 0.88817 0.0
O381 O 0.29268 0.1767 0.89169 0.0
C382 C 0.43558 0.30887 0.89014 0.0
O383 O 0.44122 0.22051 0.94145 0.0
O384 O 0.40768 0.16187 0.91729 0.0
C385 C 0.23905 0.2555 0.85775 0.0
C386 C 0.15579 0.23937 0.86872 0.0
C387 C 0.18133 0.26906 0.84736 0.0
C388 C 0.22253 0.27702 0.84196 0.0
C389 C 0.21374 0.22556 0.87893 0.0
C390 C 0.17238 0.21746 0.88431 0.0
C391 C 0.28278 0.26491 0.8521 0.0
H392 H 0.58005 0.25183 0.90432 0.0
H393 H 0.5137 0.25133 0.91427 0.0
H394 H 0.45492 0.1196 0.94066 0.0
H395 H 0.52129 0.11992 0.93064 0.0
H396 H 0.16937 0.28604 0.83467 0.0
H397 H 0.24157 0.30012 0.82547 0.0
H398 H 0.22609 0.20872 0.8914 0.0
H399 H 0.15373 0.19471 0.90107 0.0
Tb400 Tb 0.21394 0.39872 0.41248 0.0
Eu401 Eu 0.12353 0.33397 0.376 0.0
C402 C 0.12865 0.33441 0.44577 0.0
C403 C 0.19469 0.30942 0.39053 0.0
C404 C 0.32683 0.48073 0.42853 0.0
C405 C 0.40133 0.52874 0.44104 0.0
C406 C 0.36034 0.49644 0.44886 0.0
C407 C 0.33535 0.49649 0.39988 0.0
C408 C 0.37611 0.52897 0.39215 0.0
C409 C 0.40938 0.54621 0.4128 0.0
C410 C 0.28268 0.45104 0.43795 0.0
O411 O 0.22926 0.4203 0.36727 0.0
O412 O 0.17236 0.3665 0.34178 0.0
O413 O 0.13507 0.4014 0.37259 0.0
O414 O 0.16931 0.42154 0.41638 0.0
C415 C 0.20988 0.40105 0.34287 0.0
O416 O 0.09063 0.28604 0.34218 0.0
O417 O 0.05503 0.30593 0.36933 0.0
O418 O 0.10617 0.33143 0.42261 0.0
O419 O 0.17071 0.35354 0.44533 0.0
O420 O 0.22271 0.35025 0.39154 0.0
O421 O 0.15362 0.29562 0.39102 0.0
C422 C 0.15133 0.42904 0.39412 0.0
O423 O 0.25424 0.4602 0.42872 0.0
O424 O 0.26898 0.41027 0.43591 0.0
C425 C 1.02061 0.23377 0.35384 0.0
C426 C 0.96172 0.14576 0.35996 0.0
C427 C 0.96605 0.16654 0.33319 0.0
C428 C 0.99521 0.2101 0.33019 0.0
C429 C 1.01628 0.2134 0.3807 0.0
C430 C 0.98696 0.16981 0.38377 0.0
C431 C 0.05304 0.27892 0.34967 0.0
H432 H 0.42616 0.54151 0.45749 0.0
H433 H 0.35448 0.48482 0.47109 0.0
H434 H 0.31012 0.48479 0.38374 0.0
H435 H 0.38138 0.54141 0.37014 0.0
H436 H 0.94676 0.14915 0.31453 0.0
H437 H 0.99825 0.22523 0.30926 0.0
H438 H 1.03599 0.23106 0.39915 0.0
H439 H 0.98475 0.15475 0.40459 0.0
Tb440 Tb 0.85412 0.20379 0.91386 0.0
Eu441 Eu 0.81214 0.1094 0.88045 0.0
C442 C 0.81349 0.11719 0.94805 0.0
C443 C 0.91053 0.16615 0.89498 0.0
C444 C 0.89411 0.31886 0.93309 0.0
C445 C 0.89351 0.38249 0.94946 0.0
C446 C 0.88601 0.34122 0.9547 0.0
C447 C 0.91004 0.33871 0.90602 0.0
C448 C 0.91786 0.38021 0.90082 0.0
C449 C 0.90955 0.40259 0.92246 0.0
C450 C 0.88655 0.2755 0.93959 0.0
O451 O 0.84792 0.2196 0.86887 0.0
O452 O 0.83237 0.15714 0.84457 0.0
O453 O 0.76139 0.12748 0.87535 0.0
O454 O 0.78601 0.18008 0.91083 0.0
C455 C 0.84192 0.19722 0.84487 0.0
O456 O 0.81885 0.06864 0.84829 0.0
O457 O 0.76599 0.04124 0.87836 0.0
O458 O 0.78824 0.10056 0.92572 0.0
O459 O 0.84734 0.1556 0.94619 0.0
O460 O 0.90562 0.19947 0.89358 0.0
O461 O 0.87741 0.12789 0.89804 0.0
C462 C 0.7565 0.1541 0.89229 0.0
O463 O 0.84716 0.24536 0.94262 0.0
O464 O 0.90818 0.26233 0.92472 0.0
C465 C 0.79787 1.0 0.86635 0.0
C466 C 0.82043 0.93752 0.87943 0.0
C467 C 0.81049 0.94315 0.85067 0.0
C468 C 0.79927 0.97403 0.84423 0.0
C469 C 0.80803 0.99471 0.89508 0.0
C470 C 0.81897 0.96366 0.90157 0.0
C471 C 0.78769 0.03361 0.85907 0.0
H472 H 0.88718 0.39889 0.96673 0.0
H473 H 0.87396 0.32675 0.97578 0.0
H474 H 0.91643 0.32219 0.88886 0.0
H475 H 0.92974 0.39449 0.87969 0.0
H476 H 0.81088 0.92331 0.83316 0.0
H477 H 0.79183 0.97777 0.8219 0.0
H478 H 0.80781 1.0148 0.91249 0.0
H479 H 0.82694 0.96056 0.92388 0.0
H480 H 0.15435 0.93658 0.16655 0.0
H481 H 0.2308 0.95918 0.08952 0.0
H482 H 0.25632 0.03514 0.09282 0.0
H483 H 0.25819 0.09592 0.11764 0.0
H484 H 0.18194 0.07466 0.19438 0.0
H485 H 0.15505 0.99792 0.19094 0.0
C486 C 0.17645 0.95809 0.15043 0.0
C487 C 0.19054 0.94181 0.12786 0.0
C488 C 0.1912 1.00224 0.15237 0.0
C489 C 0.21921 0.97042 0.10716 0.0
C490 C 0.234 1.0141 0.10902 0.0
C491 C 0.23591 0.07456 0.13375 0.0
C492 C 0.22235 0.09121 0.15632 0.0
C493 C 0.22048 0.03044 0.1316 0.0
C494 C 0.19277 0.0628 0.17666 0.0
C495 C 0.17748 1.01886 0.17477 0.0
H496 H 0.2582 0.15997 0.66638 0.0
H497 H 0.29318 0.21463 0.5803 0.0
H498 H 0.24068 0.23764 0.58303 0.0
H499 H 0.18655 0.24484 0.61051 0.0
H500 H 0.15209 0.19103 0.69678 0.0
H501 H 0.20271 0.16557 0.69336 0.0
C502 C 0.25418 0.17665 0.64812 0.0
C503 C 0.27981 0.18551 0.62319 0.0
C504 C 0.22415 0.19034 0.64994 0.0
C505 C 0.27409 0.20736 0.59982 0.0
C506 C 0.24403 0.22063 0.60135 0.0
C507 C 0.18978 0.22717 0.62845 0.0
C508 C 0.16559 0.22014 0.65393 0.0
C509 C 0.21913 0.21266 0.62639 0.0
C510 C 0.17069 0.19755 0.67708 0.0
C511 C 0.19951 0.18273 0.67509 0.0
H512 H 0.98449 0.1287 0.16721 0.0
H513 H 0.94115 0.18058 0.09938 0.0
H514 H 1.01448 0.23564 0.08948 0.0
H515 H 0.0909 0.27025 0.10086 0.0
H516 H 0.13393 0.21901 0.16941 0.0
H517 H 0.06086 0.16287 0.1783 0.0
C518 C 0.99103 0.15226 0.15042 0.0
C519 C 0.95725 0.15046 0.13412 0.0
C520 C 1.0333 0.18404 0.14494 0.0
C521 C 0.96649 0.18086 0.11208 0.0
C522 C 1.00844 0.21253 0.10648 0.0
C523 C 0.08437 0.24668 0.11763 0.0
C524 C 0.118 0.24903 0.13444 0.0
C525 C 0.04212 0.21451 0.12282 0.0
C526 C 0.10878 0.2182 0.15617 0.0
C527 C 0.06692 0.18601 0.16131 0.0
H528 H 0.90882 0.98231 0.64504 0.0
H529 H 0.77364 0.93541 0.64646 0.0
H530 H 0.78652 1.00758 0.6396 0.0
H531 H 0.83569 0.08385 0.63374 0.0
H532 H 0.97108 0.1319 0.63194 0.0
H533 H 0.95849 0.05941 0.63801 0.0
C534 C 0.88219 0.98786 0.6436 0.0
C535 C 0.84031 0.95339 0.64652 0.0
C536 C 0.88981 0.02964 0.63955 0.0
C537 C 0.80621 0.96131 0.64484 0.0
C538 C 0.81352 1.00259 0.64073 0.0
C539 C 0.86258 0.07863 0.63461 0.0
C540 C 0.90431 0.11345 0.63244 0.0
C541 C 0.85514 0.03699 0.63822 0.0
C542 C 0.93861 0.1058 0.63356 0.0
C543 C 0.93143 0.06431 0.63706 0.0
H544 H 0.90074 0.81333 0.10891 0.0
H545 H 0.93321 0.86375 0.19633 0.0
H546 H 0.88199 0.88858 0.19309 0.0
H547 H 0.82664 0.89465 0.16576 0.0
H548 H 0.79391 0.84321 0.07852 0.0
H549 H 0.84687 0.82084 0.08126 0.0
C550 C 0.89699 0.83017 0.12715 0.0
C551 C 0.92082 0.83653 0.15285 0.0
C552 C 0.86737 0.8443 0.12518 0.0
C553 C 0.91495 0.85788 0.17642 0.0
C554 C 0.8858 0.87232 0.17453 0.0
C555 C 0.83132 0.87887 0.14725 0.0
C556 C 0.80619 0.8707 0.12197 0.0
C557 C 0.86161 0.8655 0.14907 0.0
C558 C 0.8126 0.8499 0.0983 0.0
C559 C 0.84293 0.83701 0.09983 0.0
H560 H 0.96472 0.83495 0.6622 0.0
H561 H 0.98933 0.77631 0.58856 0.0
H562 H 0.06495 0.82787 0.59197 0.0
H563 H 0.12482 0.88866 0.61632 0.0
H564 H 0.10134 0.94841 0.68957 0.0
H565 H 1.0249 0.89781 0.68567 0.0
C566 C 0.98659 0.83357 0.64682 0.0
C567 C 0.97108 0.80153 0.62523 0.0
C568 C 1.03044 0.86355 0.64883 0.0
C569 C 1.00006 0.80047 0.60543 0.0
C570 C 0.04351 0.82996 0.60737 0.0
C571 C 0.103 0.89046 0.63154 0.0
C572 C 0.11885 0.92209 0.65333 0.0
C573 C 0.05913 0.86138 0.62911 0.0
C574 C 0.09 0.9245 0.6725 0.0
C575 C 0.04627 0.89546 0.67036 0.0
H576 H 0.10426 0.82917 0.38251 0.0
H577 H 0.14966 0.96335 0.39447 0.0
H578 H 0.07671 0.94991 0.38879 0.0
H579 H 0.99977 0.89952 0.37913 0.0
H580 H 0.95693 0.76572 0.36758 0.0
H581 H 1.02928 0.77978 0.3742 0.0
C582 C 0.09852 0.85573 0.38392 0.0
C583 C 0.1327 0.89733 0.3888 0.0
C584 C 0.0568 0.84779 0.38054 0.0
C585 C 0.12413 0.93102 0.39069 0.0
C586 C 0.08236 0.92331 0.38741 0.0
C587 C 1.0063 0.87346 0.37826 0.0
C588 C 0.97283 0.83162 0.37247 0.0
C589 C 0.04838 0.88177 0.38217 0.0
C590 C 0.98199 0.7983 0.37134 0.0
C591 C 1.02339 0.80625 0.37532 0.0
H592 H 0.19744 0.94623 0.88461 0.0
H593 H 0.09482 0.97008 0.86591 0.0
H594 H 0.14352 0.0469 0.87121 0.0
H595 H 0.21663 0.10803 0.87978 0.0
H596 H 0.31812 0.08169 0.89743 0.0
H597 H 0.26875 1.00576 0.89365 0.0
C598 C 0.1857 0.96816 0.88137 0.0
C599 C 0.14253 0.95221 0.87464 0.0
C600 C 0.21385 1.0122 0.88424 0.0
C601 C 0.12783 0.98131 0.87128 0.0
C602 C 0.15575 1.02534 0.87418 0.0
C603 C 0.22779 0.08562 0.88294 0.0
C604 C 0.27125 0.1009 0.88867 0.0
C605 C 0.199 0.04129 0.88053 0.0
C606 C 0.28507 0.07122 0.8927 0.0
C607 C 0.2568 1.02755 0.89059 0.0
H608 H 0.15032 0.22463 0.37575 0.0
H609 H 0.27536 0.32611 0.40059 0.0
H610 H 0.30349 0.27805 0.39629 0.0
H611 H 0.29315 0.20752 0.38577 0.0
H612 H 0.16933 0.10581 0.35934 0.0
H613 H 0.14024 0.15342 0.36433 0.0
C614 C 0.18366 0.23613 0.38032 0.0
C615 C 0.2106 0.279 0.38844 0.0
C616 C 0.19997 0.20829 0.37754 0.0
C617 C 0.25382 0.2934 0.39413 0.0
C618 C 0.27005 0.26591 0.39172 0.0
C619 C 0.25993 0.19582 0.38065 0.0
C620 C 0.23361 0.15312 0.37206 0.0
C621 C 0.24351 0.2234 0.38332 0.0
C622 C 0.19033 0.1384 0.36625 0.0
C623 C 0.17368 0.16568 0.36898 0.0
H624 H 0.08233 0.16352 0.8781 0.0
H625 H 0.13186 0.29932 0.87351 0.0
H626 H 0.06088 0.28853 0.88171 0.0
H627 H 0.98479 0.24094 0.88915 0.0
H628 H 0.93405 0.10496 0.89394 0.0
H629 H 1.0055 0.11552 0.8871 0.0
C630 C 0.07763 0.19076 0.87919 0.0
C631 C 0.11243 0.23217 0.87492 0.0
C632 C 1.03651 0.18433 0.88394 0.0
C633 C 0.10563 0.26706 0.87617 0.0
C634 C 0.06505 0.26096 0.88103 0.0
C635 C 0.98921 0.2135 0.8888 0.0
C636 C 0.95393 0.17218 0.89198 0.0
C637 C 1.03024 0.21976 0.8847 0.0
C638 C 0.96053 0.13713 0.89153 0.0
C639 C 1.00142 0.14315 0.88757 0.0
H640 H 0.90773 0.10405 0.40499 0.0
H641 H 0.94737 0.08249 0.32124 0.0
H642 H 0.89617 1.00631 0.32493 0.0
H643 H 0.83888 0.94585 0.35141 0.0
H644 H 0.79899 0.96772 0.43506 0.0
H645 H 0.85184 0.04334 0.43207 0.0
C646 C 0.9055 0.08263 0.38768 0.0
C647 C 0.93128 0.09912 0.36281 0.0
C648 C 0.87589 0.03877 0.38991 0.0
C649 C 0.92751 0.07085 0.34044 0.0
C650 C 0.89838 1.02719 0.34259 0.0
C651 C 0.8419 0.96706 0.3691 0.0
C652 C 0.81483 0.95092 0.3934 0.0
C653 C 0.87217 1.0108 0.36714 0.0
C654 C 0.81923 0.97909 0.41603 0.0
C655 C 0.84948 1.02247 0.41436 0.0
H656 H 0.84713 0.78717 0.92415 0.0
H657 H 0.92678 0.82282 0.84777 0.0
H658 H 0.91087 0.87939 0.83731 0.0
H659 H 0.8731 0.918 0.84917 0.0
H660 H 0.79347 0.88224 0.92547 0.0
H661 H 0.81093 0.8269 0.9367 0.0
C662 C 0.86121 0.8074 0.90527 0.0
C663 C 0.88801 0.80044 0.88674 0.0
C664 C 0.85188 0.83995 0.89931 0.0
C665 C 0.90597 0.8272 0.86242 0.0
C666 C 0.89684 0.85961 0.85637 0.0
C667 C 0.85938 0.89793 0.86817 0.0
C668 C 0.83188 0.90428 0.88638 0.0
C669 C 0.86954 0.86606 0.87451 0.0
C670 C 0.815 0.87841 0.9112 0.0
C671 C 0.82481 0.84657 0.91757 0.0
H672 H 0.21632 0.71862 0.12574 0.0
H673 H 0.08021 0.65613 0.11355 0.0
H674 H 0.07737 0.58744 0.1079 0.0
H675 H 0.11424 0.54546 0.10524 0.0
H676 H 0.25057 0.60995 0.11701 0.0
H677 H 0.25238 0.67736 0.12422 0.0
C678 C 0.18584 0.69008 0.12191 0.0
C679 C 0.1485 0.69279 0.11995 0.0
C680 C 0.1845 0.6509 0.11862 0.0
C681 C 0.10946 0.65515 0.1152 0.0
C682 C 0.10786 0.61584 0.11188 0.0
C683 C 0.14435 0.57429 0.10929 0.0
C684 C 0.18223 0.57235 0.11065 0.0
C685 C 0.14527 0.61337 0.1133 0.0
C686 C 0.22084 0.6101 0.11628 0.0
C687 C 0.22198 0.64885 0.12022 0.0
H688 H 0.60355 0.11577 0.60694 0.0
H689 H 0.67554 0.25338 0.60858 0.0
H690 H 0.61029 0.25564 0.61574 0.0
H691 H 0.53288 0.21922 0.62026 0.0
H692 H 0.45958 0.0817 0.61801 0.0
H693 H 0.52514 0.0789 0.61223 0.0
C694 C 0.60498 0.14628 0.60871 0.0
C695 C 0.64477 0.18437 0.60727 0.0
C696 C 0.56702 0.14743 0.61269 0.0
C697 C 0.64575 0.22352 0.61002 0.0
C698 C 0.6083 0.22488 0.61394 0.0
C699 C 0.531 0.18848 0.61863 0.0
C700 C 0.49101 0.15068 0.61956 0.0
C701 C 0.56878 0.1871 0.6152 0.0
C702 C 0.4897 0.11133 0.61743 0.0
C703 C 0.52727 0.10971 0.61405 0.0
H704 H 0.50722 0.57661 0.10427 0.0
H705 H 0.44137 0.64773 0.10996 0.0
H706 H 0.37429 0.58186 0.11799 0.0
H707 H 0.33384 0.50419 0.12195 0.0
H708 H 0.39859 0.43201 0.11581 0.0
H709 H 0.46643 0.49814 0.10925 0.0
C710 C 0.47816 0.57768 0.10714 0.0
C711 C 0.47952 0.61726 0.10651 0.0
C712 C 0.43943 0.53947 0.11161 0.0
C713 C 0.44154 0.61796 0.11072 0.0
C714 C 0.40304 0.58021 0.11513 0.0
C715 C 0.36272 0.50271 0.11925 0.0
C716 C 0.36088 0.46293 0.11929 0.0
C717 C 0.40156 0.5408 0.11545 0.0
C718 C 0.39889 0.46203 0.1159 0.0
C719 C 0.43775 0.49989 0.11208 0.0
H720 H 0.95384 0.50109 0.63103 0.0
H721 H 0.83474 0.4352 0.58401 0.0
H722 H 0.8342 0.36808 0.58925 0.0
H723 H 0.86815 0.32854 0.60535 0.0
H724 H 0.98739 0.39239 0.65232 0.0
H725 H 0.98695 0.45976 0.64929 0.0
C726 C 0.92761 0.47192 0.62221 0.0
C727 C 0.8946 0.47331 0.60682 0.0
C728 C 0.92756 0.43315 0.6252 0.0
C729 C 0.86091 0.43524 0.59545 0.0
C730 C 0.86047 0.39677 0.59854 0.0
C731 C 0.89425 0.3571 0.61495 0.0
C732 C 0.92806 0.35536 0.62876 0.0
C733 C 0.89386 0.39548 0.61299 0.0
C734 C 0.96105 0.39274 0.64146 0.0
C735 C 0.96082 0.4313 0.63967 0.0
H736 H 0.55237 0.83392 0.12302 0.0
H737 H 0.62444 0.97089 0.11425 0.0
H738 H 0.55823 0.97266 0.1092 0.0
H739 H 0.47968 0.93493 0.10603 0.0
H740 H 0.40865 0.79783 0.11411 0.0
H741 H 0.47465 0.79671 0.12102 0.0
C742 C 0.5538 0.8643 0.12012 0.0
C743 C 0.59358 0.90224 0.11893 0.0
C744 C 0.51566 0.86507 0.11713 0.0
C745 C 0.59444 0.94118 0.11527 0.0
C746 C 0.55652 0.9422 0.11231 0.0
C747 C 0.47863 0.90478 0.10919 0.0
C748 C 0.43901 0.8665 0.10954 0.0
C749 C 0.51693 0.90429 0.11295 0.0
C750 C 0.43843 0.82784 0.11412 0.0
C751 C 0.47625 0.82712 0.11787 0.0
H752 H 0.75077 0.54877 0.62485 0.0
H753 H 0.6884 0.6226 0.61368 0.0
H754 H 0.62002 0.55681 0.60712 0.0
H755 H 0.57827 0.4781 0.60324 0.0
H756 H 0.6421 0.40557 0.6139 0.0
H757 H 0.70944 0.47112 0.62223 0.0
C758 C 0.72229 0.55069 0.62108 0.0
C759 C 0.72493 0.59079 0.61965 0.0
C760 C 0.68323 0.51285 0.61723 0.0
C761 C 0.68744 0.5923 0.61492 0.0
C762 C 0.6483 0.55464 0.61108 0.0
C763 C 0.60695 0.47667 0.60729 0.0
C764 C 0.60496 0.43678 0.60795 0.0
C765 C 0.64587 0.51471 0.61192 0.0
C766 C 0.64242 0.4356 0.61364 0.0
C767 C 0.68108 0.47316 0.61823 0.0
H768 H 0.34244 0.84743 0.40215 0.0
H769 H 0.41215 0.97858 0.37393 0.0
H770 H 0.47889 0.97729 0.37737 0.0
H771 H 0.51776 0.93983 0.39154 0.0
H772 H 0.44631 0.80904 0.42028 0.0
H773 H 0.37997 0.80952 0.41369 0.0
C774 C 0.37212 0.87588 0.39663 0.0
C775 C 0.37215 0.91323 0.38805 0.0
C776 C 0.41019 0.87504 0.39899 0.0
C777 C 0.41106 0.9494 0.38063 0.0
C778 C 0.44928 0.94871 0.38271 0.0
C779 C 0.48761 0.91133 0.39601 0.0
C780 C 0.48711 0.87457 0.40673 0.0
C781 C 0.44931 0.91186 0.3923 0.0
C782 C 0.44774 0.83797 0.41255 0.0
C783 C 0.40974 0.83814 0.40865 0.0
H784 H 0.58946 0.49982 0.88877 0.0
H785 H 0.65382 0.43686 0.92419 0.0
H786 H 0.58891 0.36801 0.91945 0.0
H787 H 0.51367 0.32584 0.90725 0.0
H788 H 0.4475 0.38649 0.87129 0.0
H789 H 0.51333 0.45604 0.87409 0.0
C790 C 0.58919 0.47099 0.89543 0.0
C791 C 0.62663 0.47363 0.90682 0.0
C792 C 0.55146 0.43114 0.89261 0.0
C793 C 0.6258 0.43586 0.91504 0.0
C794 C 0.58857 0.39642 0.9125 0.0
C795 C 0.51345 0.35421 0.89999 0.0
C796 C 0.47547 0.35097 0.88941 0.0
C797 C 0.5512 0.39374 0.90159 0.0
C798 C 0.47621 0.38804 0.87957 0.0
C799 C 0.51383 0.42783 0.88129 0.0
H800 H 0.14375 0.59848 0.37422 0.0
H801 H 0.22889 0.63765 0.44831 0.0
H802 H 0.22316 0.56781 0.44979 0.0
H803 H 0.19435 0.49607 0.43053 0.0
H804 H 0.11038 0.45544 0.35581 0.0
H805 H 0.11482 0.52525 0.35437 0.0
C806 C 0.16092 0.59162 0.39072 0.0
C807 C 0.18695 0.6235 0.41103 0.0
C808 C 0.15748 0.55111 0.39148 0.0
C809 C 0.20925 0.61413 0.43211 0.0
C810 C 0.20573 0.57403 0.43314 0.0
C811 C 0.17665 0.50213 0.41397 0.0
C812 C 0.15172 0.47025 0.39344 0.0
C813 C 0.17995 0.54234 0.41299 0.0
C814 C 0.1296 0.47922 0.37199 0.0
C815 C 0.13224 0.5192 0.37112 0.0
H816 H 0.74237 0.21515 0.91436 0.0
H817 H 0.67898 0.09415 0.86941 0.0
H818 H 0.61134 0.09359 0.8724 0.0
H819 H 0.56977 0.12656 0.88961 0.0
H820 H 0.63468 0.24765 0.93438 0.0
H821 H 0.70217 0.24908 0.92951 0.0
C822 C 0.71384 0.18856 0.90514 0.0
C823 C 0.71579 0.15451 0.89192 0.0
C824 C 0.67525 0.18847 0.90695 0.0
C825 C 0.67848 0.12075 0.87974 0.0
C826 C 0.63975 0.12036 0.88154 0.0
C827 C 0.59872 0.1532 0.8983 0.0
C828 C 0.5971 0.18696 0.91237 0.0
C829 C 0.63766 0.15384 0.89542 0.0
C830 C 0.63501 0.22152 0.92318 0.0
C831 C 0.67362 0.22225 0.92055 0.0
H832 H 0.49042 0.56152 0.42371 0.0
H833 H 0.42138 0.6182 0.38612 0.0
H834 H 0.488 0.68365 0.37629 0.0
H835 H 0.56541 0.72614 0.38018 0.0
H836 H 0.63616 0.67062 0.41655 0.0
H837 H 0.56959 0.60341 0.42476 0.0
C838 C 0.49009 0.5882 0.41328 0.0
C839 C 0.45085 0.58486 0.40564 0.0
C840 C 0.52883 0.62597 0.40746 0.0
C841 C 0.451 0.61963 0.39193 0.0
C842 C 0.48913 0.65722 0.38642 0.0
C843 C 0.56641 0.6993 0.38977 0.0
C844 C 0.60579 0.70359 0.39793 0.0
C845 C 0.52815 0.6609 0.39432 0.0
C846 C 0.60636 0.66821 0.40998 0.0
C847 C 0.56824 0.62983 0.41483 0.0
H848 H 0.96352 0.59453 0.89079 0.0
H849 H 0.84186 0.55428 0.93096 0.0
H850 H 0.83258 0.48428 0.94034 0.0
H851 H 0.85732 0.43322 0.93647 0.0
H852 H 0.97753 0.47034 0.89557 0.0
H853 H 0.98868 0.54199 0.8869 0.0
C854 C 0.9352 0.57047 0.90174 0.0
C855 C 0.90345 0.57987 0.91002 0.0
C856 C 0.9295 0.52937 0.9068 0.0
C857 C 0.86673 0.54807 0.92403 0.0
C858 C 0.86131 0.50785 0.92951 0.0
C859 C 0.8862 0.45706 0.9259 0.0
C860 C 0.91658 0.44632 0.91686 0.0
C861 C 0.89226 0.498 0.92086 0.0
C862 C 0.9534 0.47753 0.90262 0.0
C863 C 0.95991 0.51865 0.89778 0.0
H864 H 0.17655 0.41613 0.29555 0.0
H865 H 0.28895 0.41748 0.32719 0.0
H866 H 0.31212 0.4181 0.27689 0.0
H867 H 0.29304 0.405 0.22463 0.0
H868 H 0.17902 0.40221 0.19396 0.0
H869 H 0.16404 0.41586 0.24314 0.0
C870 C 0.20686 0.41809 0.29131 0.0
C871 C 0.23101 0.41653 0.3147 0.0
C872 C 0.21911 0.41719 0.26257 0.0
C873 C 0.27017 0.41905 0.30932 0.0
C874 C 0.28302 0.41876 0.28061 0.0
C875 C 0.26527 0.40802 0.22863 0.0
C876 C 0.2366 0.4014 0.20573 0.0
C877 C 0.2566 0.41566 0.25713 0.0
C878 C 0.20129 0.4064 0.21118 0.0
C879 C 0.19263 0.41423 0.23934 0.0
H880 H 0.92004 0.28153 0.72603 0.0
H881 H 0.80344 0.17414 0.69467 0.0
H882 H 0.77653 0.15709 0.74465 0.0
H883 H 0.79202 0.16587 0.79734 0.0
H884 H 0.9079 0.27412 0.82871 0.0
H885 H 0.92917 0.29856 0.77852 0.0
C886 C 0.88831 0.25506 0.73019 0.0
C887 C 0.86388 0.2286 0.70705 0.0
C888 C 0.87324 0.24557 0.75886 0.0
C889 C 0.82266 0.19478 0.71232 0.0
C890 C 0.80747 0.1849 0.74086 0.0
C891 C 0.82133 0.19547 0.79311 0.0
C892 C 0.84876 0.218 0.81636 0.0
C893 C 0.83328 0.20902 0.76432 0.0
C894 C 0.88641 0.25645 0.81098 0.0
C895 C 0.8987 0.27013 0.78233 0.0
H896 H 0.66419 0.89533 0.22088 0.0
H897 H 0.67044 0.78536 0.19169 0.0
H898 H 0.66826 0.76307 0.24223 0.0
H899 H 0.67359 0.77972 0.29437 0.0
H900 H 0.67005 0.89125 0.32342 0.0
H901 H 0.66174 0.90777 0.27307 0.0
C902 C 0.66456 0.86618 0.22549 0.0
C903 C 0.66827 0.84246 0.20255 0.0
C904 C 0.66418 0.85405 0.25454 0.0
C905 C 0.66791 0.80438 0.20892 0.0
C906 C 0.66688 0.79173 0.23783 0.0
C907 C 0.67053 0.80742 0.28978 0.0
C908 C 0.67328 0.83468 0.31261 0.0
C909 C 0.66647 0.81711 0.26078 0.0
C910 C 0.66849 0.86996 0.30627 0.0
C911 C 0.66385 0.87951 0.27746 0.0
H912 H 0.79618 0.65247 0.72148 0.0
H913 H 0.91446 0.66072 0.69617 0.0
H914 H 0.92945 0.65304 0.74712 0.0
H915 H 0.91343 0.65376 0.79888 0.0
H916 H 0.7967 0.64915 0.82405 0.0
H917 H 0.77639 0.64507 0.77287 0.0
C918 C 0.82506 0.65212 0.727 0.0
C919 C 0.85461 0.65807 0.70513 0.0
C920 C 0.83387 0.64866 0.75629 0.0
C921 C 0.89138 0.65661 0.71261 0.0
C922 C 0.90005 0.6524 0.74175 0.0
C923 C 0.88323 0.65125 0.79327 0.0
C924 C 0.85701 0.65262 0.81529 0.0
C925 C 0.87222 0.64993 0.76381 0.0
C926 C 0.81772 0.64866 0.80757 0.0
C927 C 0.80614 0.64647 0.77829 0.0
H928 H 0.25528 0.88521 0.20192 0.0
H929 H 0.16841 0.75156 0.21692 0.0
H930 H 0.18328 0.76156 0.26922 0.0
H931 H 0.21242 0.81055 0.31128 0.0
H932 H 0.29459 0.94502 0.29573 0.0
H933 H 0.29056 0.93254 0.24335 0.0
C934 C 0.24058 0.85811 0.21656 0.0
C935 C 0.21057 0.81789 0.20574 0.0
C936 C 0.2479 0.86441 0.24668 0.0
C937 C 0.19139 0.78301 0.22492 0.0
C938 C 0.19972 0.78871 0.25482 0.0
C939 C 0.23007 0.83683 0.29637 0.0
C940 C 0.25315 0.8786 0.30718 0.0
C941 C 0.22655 0.82961 0.26609 0.0
C942 C 0.27593 0.91258 0.28776 0.0
C943 C 0.27374 0.90552 0.25781 0.0
H944 H 0.41066 0.2746 0.79494 0.0
H945 H 0.43245 0.17425 0.82436 0.0
H946 H 0.44316 0.15958 0.7738 0.0
H947 H 0.43435 0.16797 0.72129 0.0
H948 H 0.41156 0.26824 0.69249 0.0
H949 H 0.41394 0.29086 0.74286 0.0
C950 C 0.41882 0.25023 0.79025 0.0
C951 C 0.42024 0.22507 0.81302 0.0
C952 C 0.42418 0.2417 0.76131 0.0
C953 C 0.4313 0.19396 0.80702 0.0
C954 C 0.43697 0.18535 0.77815 0.0
C955 C 0.43065 0.19524 0.72601 0.0
C956 C 0.4218 0.21578 0.70324 0.0
C957 C 0.43162 0.20783 0.75508 0.0
C958 C 0.41799 0.25162 0.7096 0.0
C959 C 0.41915 0.26447 0.73842 0.0
H960 H 0.312 0.29773 0.95121 0.0
H961 H 0.32683 0.20268 0.99819 0.0
H962 H 0.29714 0.21697 0.04196 0.0
H963 H 0.26909 0.25824 0.06686 0.0
H964 H 0.25646 0.35398 0.01892 0.0
H965 H 0.28309 0.33711 0.97516 0.0
C966 C 0.30892 0.27992 0.97093 0.0
C967 C 0.32199 0.24924 0.97138 0.0
C968 C 0.29206 0.28834 0.99574 0.0
C969 C 0.31726 0.22654 0.99723 0.0
C970 C 0.30023 0.2347 0.02221 0.0
C971 C 0.2717 0.27513 0.04676 0.0
C972 C 0.26066 0.30738 0.0462 0.0
C973 C 0.28772 0.26571 0.02172 0.0
C974 C 0.26467 0.32911 0.02002 0.0
C975 C 0.28 0.31954 0.995 0.0
H976 H 0.0441 0.27858 0.45092 0.0
H977 H 0.15851 0.3506 0.5022 0.0
H978 H 0.11614 0.32791 0.54689 0.0
H979 H 0.04662 0.29255 0.57074 0.0
H980 H 0.93194 0.22163 0.51958 0.0
H981 H 0.97483 0.23898 0.47512 0.0
C982 C 0.05997 0.28928 0.47186 0.0
C983 C 0.10452 0.31687 0.47317 0.0
C984 C 1.03538 0.27656 0.49731 0.0
C985 C 0.12442 0.32956 0.50053 0.0
C986 C 0.10014 0.31675 0.52605 0.0
C987 C 1.03081 0.28078 0.54988 0.0
C988 C 0.98595 0.25641 0.5484 0.0
C989 C 0.05558 0.29109 0.52459 0.0
C990 C 0.96627 0.24062 0.52129 0.0
C991 C 0.99081 0.25066 0.49592 0.0
H992 H 0.8043 1.01049 0.05957 0.0
H993 H 0.68573 0.91977 0.01841 0.0
H994 H 0.70032 0.96957 0.9783 0.0
H995 H 0.74486 0.03902 0.95615 0.0
H996 H 0.86283 0.1312 0.9973 0.0
H997 H 0.84935 0.08078 0.03715 0.0
C998 C 0.78153 1.0015 0.04189 0.0
C999 C 0.74371 0.9614 0.04218 0.0
C1000 C 0.78962 0.03074 0.0193 0.0
C1001 C 0.71502 0.95024 0.01879 0.0
C1002 C 0.72322 0.97885 0.99596 0.0
C1003 C 0.7678 0.04845 0.9738 0.0
C1004 C 0.80489 0.08909 0.97371 0.0
C1005 C 0.76008 1.0193 0.99625 0.0
C1006 C 0.83396 0.10038 0.9969 0.0
C1007 C 0.82638 0.07142 0.01953 0.0
H1008 H 0.78954 0.76974 0.56948 0.0
H1009 H 0.84471 0.71404 0.51427 0.0
H1010 H 0.82136 0.73656 0.47088 0.0
H1011 H 0.78664 0.77324 0.44909 0.0
H1012 H 0.72684 0.82425 0.50423 0.0
H1013 H 0.75059 0.80214 0.54764 0.0
C1014 C 0.79656 0.76263 0.54791 0.0
C1015 C 0.81939 0.74088 0.54491 0.0
C1016 C 0.78222 0.77477 0.5233 0.0
C1017 C 0.82738 0.73091 0.51699 0.0
C1018 C 0.81411 0.74384 0.49228 0.0
C1019 C 0.77889 0.77963 0.47065 0.0
C1020 C 0.75562 0.80093 0.47362 0.0
C1021 C 0.79178 0.76602 0.49525 0.0
C1022 C 0.74487 0.80809 0.50153 0.0
C1023 C 0.75851 0.79554 0.52624 0.0
H1024 H 1.02626 0.76349 0.95122 0.0
H1025 H 0.91719 0.71004 1.00801 0.0
H1026 H 0.96458 0.73103 0.05069 0.0
H1027 H 1.03678 0.76558 0.07141 0.0
H1028 H 0.14559 0.81449 0.01457 0.0
H1029 H 0.09822 0.79384 0.97189 0.0
C1030 C 1.01281 0.75655 0.97296 0.0
C1031 C 0.96829 0.73587 0.97659 0.0
C1032 C 1.04012 0.76775 0.99714 0.0
C1033 C 0.95129 0.72612 1.00477 0.0
C1034 C 0.97837 0.73815 0.02907 0.0
C1035 C 0.05019 0.77183 0.04965 0.0
C1036 C 0.09468 0.79213 0.04602 0.0
C1037 C 1.02279 0.75916 0.02546 0.0
C1038 C 0.11153 0.79908 0.01781 0.0
C1039 C 0.08446 0.78739 0.99351 0.0
H1040 H 0.34081 1.01775 0.45701 0.0
H1041 H 0.22282 0.92322 0.49609 0.0
H1042 H 0.23582 0.97184 0.53726 0.0
H1043 H 0.28127 0.04127 0.56176 0.0
H1044 H 0.3979 0.13509 0.52057 0.0
H1045 H 0.38403 0.08648 0.47995 0.0
C1046 C 0.31768 1.00734 0.47446 0.0
C1047 C 0.28085 0.96657 0.47347 0.0
C1048 C 0.32491 0.03557 0.49743 0.0
C1049 C 0.25149 0.9542 0.49637 0.0
C1050 C 0.25886 0.98211 0.51979 0.0
C1051 C 0.30351 0.05131 0.54377 0.0
C1052 C 0.34072 0.09198 0.5443 0.0
C1053 C 0.29546 1.02297 0.52045 0.0
C1054 C 0.36908 0.10423 0.52079 0.0
C1055 C 0.36127 0.07632 0.49761 0.0
loop_
_geom_bond_atom_site_label_1
_geom_bond_atom_site_label_2
_geom_bond_distance
_geom_bond_site_symmetry_2
_ccdc_geom_bond_type
Tb0 C10 2.825 . S
Tb0 O11 2.347 . S
Tb0 O14 2.366 . S
Tb0 O19 2.418 . S
Tb0 O20 2.384 . S
Tb0 O23 2.479 . S
Tb0 O24 2.471 . S
Eu1 O12 2.418 . S
Eu1 O13 2.384 . S
Eu1 O16 2.479 . S
Eu1 O17 2.471 . S
Eu1 O18 2.347 . S
Eu1 O21 2.366 . S
Eu1 C31 2.825 . S
C2 O18 1.259 . S
C2 O19 1.265 . S
C3 O20 1.255 . S
C3 O21 1.265 . S
C4 C6 1.380 . S
C4 C7 1.374 . S
C4 C10 1.507 . S
C5 C6 1.384 . S
C5 C9 1.387 . S
C5 H32 0.930 . S
C6 C4 1.380 . S
C6 C5 1.384 . S
C6 H33 0.931 . S
C7 C4 1.374 . S
C7 C8 1.390 . S
C7 H34 0.930 . S
C8 C7 1.390 . S
C8 C9 1.391 . S
C8 H35 0.930 . S
C9 C5 1.387 . S
C9 C8 1.391 . S
C10 Tb0 2.825 . S
C10 C4 1.507 . S
C10 O23 1.238 . S
C10 O24 1.247 . S
O11 Tb0 2.347 . S
O11 C15 1.259 . S
O12 Eu1 2.418 . S
O12 C15 1.265 . S
O13 Eu1 2.384 . S
O13 C22 1.255 . S
O14 Tb0 2.366 . S
O14 C22 1.265 . S
C15 O11 1.259 . S
C15 O12 1.265 . S
O16 Eu1 2.479 . S
O16 C31 1.238 . S
O17 Eu1 2.471 . S
O17 C31 1.247 . S
O18 Eu1 2.347 . S
O18 C2 1.259 . S
O19 Tb0 2.418 . S
O19 C2 1.265 . S
O20 Tb0 2.384 . S
O20 C3 1.255 . S
O21 Eu1 2.366 . S
O21 C3 1.265 . S
C22 O13 1.255 . S
C22 O14 1.265 . S
O23 Tb0 2.479 . S
O23 C10 1.238 . S
O24 Tb0 2.471 . S
O24 C10 1.247 . S
C25 C28 1.380 . S
C25 C29 1.374 . S
C25 C31 1.507 . S
C26 C27 1.387 . S
C26 C30 1.391 . S
C27 C26 1.387 . S
C27 C28 1.384 . S
C27 H36 0.930 . S
C28 C25 1.380 . S
C28 C27 1.384 . S
C28 H37 0.931 . S
C29 C25 1.374 . S
C29 C30 1.390 . S
C29 H38 0.930 . S
C30 C26 1.391 . S
C30 C29 1.390 . S
C30 H39 0.930 . S
C31 Eu1 2.825 . S
C31 O16 1.238 . S
C31 O17 1.247 . S
C31 C25 1.507 . S
H32 C5 0.930 . S
H33 C6 0.931 . S
H34 C7 0.930 . S
H35 C8 0.930 . S
H36 C27 0.930 . S
H37 C28 0.931 . S
H38 C29 0.930 . S
H39 C30 0.930 . S
Tb40 C50 2.825 . S
Tb40 O51 2.347 . S
Tb40 O54 2.366 . S
Tb40 O59 2.418 . S
Tb40 O60 2.384 . S
Tb40 O63 2.479 . S
Tb40 O64 2.471 . S
Eu41 O52 2.418 . S
Eu41 O53 2.384 . S
Eu41 O56 2.479 . S
Eu41 O57 2.471 . S
Eu41 O58 2.347 . S
Eu41 O61 2.366 . S
Eu41 C71 2.825 . S
C42 O58 1.259 . S
C42 O59 1.265 . S
C43 O60 1.255 . S
C43 O61 1.265 . S
C44 C46 1.380 . S
C44 C47 1.374 . S
C44 C50 1.507 . S
C45 C46 1.384 . S
C45 C49 1.387 . S
C45 H72 0.930 . S
C46 C44 1.380 . S
C46 C45 1.384 . S
C46 H73 0.931 . S
C47 C44 1.374 . S
C47 C48 1.390 . S
C47 H74 0.930 . S
C48 C47 1.390 . S
C48 C49 1.391 . S
C48 H75 0.930 . S
C49 C45 1.387 . S
C49 C48 1.391 . S
C50 Tb40 2.825 . S
C50 C44 1.507 . S
C50 O63 1.238 . S
C50 O64 1.247 . S
O51 Tb40 2.347 . S
O51 C55 1.259 . S
O52 Eu41 2.418 . S
O52 C55 1.265 . S
O53 Eu41 2.384 . S
O53 C62 1.255 . S
O54 Tb40 2.366 . S
O54 C62 1.265 . S
C55 O51 1.259 . S
C55 O52 1.265 . S
O56 Eu41 2.479 . S
O56 C71 1.238 . S
O57 Eu41 2.471 . S
O57 C71 1.247 . S
O58 Eu41 2.347 . S
O58 C42 1.259 . S
O59 Tb40 2.418 . S
O59 C42 1.265 . S
O60 Tb40 2.384 . S
O60 C43 1.255 . S
O61 Eu41 2.366 . S
O61 C43 1.265 . S
C62 O53 1.255 . S
C62 O54 1.265 . S
O63 Tb40 2.479 . S
O63 C50 1.238 . S
O64 Tb40 2.471 . S
O64 C50 1.247 . S
C65 C68 1.380 . S
C65 C69 1.374 . S
C65 C71 1.507 1_455 S
C66 C67 1.387 . S
C66 C70 1.391 . S
C67 C66 1.387 . S
C67 C68 1.384 . S
C67 H76 0.930 . S
C68 C65 1.380 . S
C68 C67 1.384 . S
C68 H77 0.931 . S
C69 C65 1.374 . S
C69 C70 1.390 . S
C69 H78 0.930 . S
C70 C66 1.391 . S
C70 C69 1.390 . S
C70 H79 0.930 . S
C71 Eu41 2.825 . S
C71 O56 1.238 . S
C71 O57 1.247 . S
C71 C65 1.507 1_655 S
H72 C45 0.930 . S
H73 C46 0.931 . S
H74 C47 0.930 . S
H75 C48 0.930 . S
H76 C67 0.930 . S
H77 C68 0.931 . S
H78 C69 0.930 . S
H79 C70 0.930 . S
Tb80 C90 2.825 . S
Tb80 O91 2.347 . S
Tb80 O94 2.366 . S
Tb80 O99 2.418 . S
Tb80 O100 2.384 . S
Tb80 O103 2.479 . S
Tb80 O104 2.471 . S
Eu81 O92 2.418 . S
Eu81 O93 2.384 . S
Eu81 O96 2.479 . S
Eu81 O97 2.471 . S
Eu81 O98 2.347 . S
Eu81 O101 2.366 . S
Eu81 C111 2.825 . S
C82 O98 1.259 . S
C82 O99 1.265 . S
C83 O100 1.255 . S
C83 O101 1.265 . S
C84 C86 1.380 . S
C84 C87 1.374 . S
C84 C90 1.507 . S
C85 C86 1.384 . S
C85 C89 1.387 . S
C85 H112 0.930 . S
C86 C84 1.380 . S
C86 C85 1.384 . S
C86 H113 0.931 . S
C87 C84 1.374 . S
C87 C88 1.390 . S
C87 H114 0.930 . S
C88 C87 1.390 . S
C88 C89 1.391 . S
C88 H115 0.930 . S
C89 C85 1.387 . S
C89 C88 1.391 . S
C90 Tb80 2.825 . S
C90 C84 1.507 . S
C90 O103 1.238 . S
C90 O104 1.247 . S
O91 Tb80 2.347 . S
O91 C95 1.259 . S
O92 Eu81 2.418 . S
O92 C95 1.265 . S
O93 Eu81 2.384 . S
O93 C102 1.255 . S
O94 Tb80 2.366 . S
O94 C102 1.265 . S
C95 O91 1.259 . S
C95 O92 1.265 . S
O96 Eu81 2.479 . S
O96 C111 1.238 . S
O97 Eu81 2.471 . S
O97 C111 1.247 . S
O98 Eu81 2.347 . S
O98 C82 1.259 . S
O99 Tb80 2.418 . S
O99 C82 1.265 . S
O100 Tb80 2.384 . S
O100 C83 1.255 . S
O101 Eu81 2.366 . S
O101 C83 1.265 . S
C102 O93 1.255 . S
C102 O94 1.265 . S
O103 Tb80 2.479 . S
O103 C90 1.238 . S
O104 Tb80 2.471 . S
O104 C90 1.247 . S
C105 C108 1.380 . S
C105 C109 1.374 . S
C105 C111 1.507 1_545 S
C106 C107 1.387 . S
C106 C110 1.391 . S
C107 C106 1.387 . S
C107 C108 1.384 . S
C107 H116 0.930 . S
C108 C105 1.380 . S
C108 C107 1.384 . S
C108 H117 0.931 . S
C109 C105 1.374 . S
C109 C110 1.390 . S
C109 H118 0.930 . S
C110 C106 1.391 . S
C110 C109 1.390 . S
C110 H119 0.930 . S
C111 Eu81 2.825 . S
C111 O96 1.238 . S
C111 O97 1.247 . S
C111 C105 1.507 1_565 S
H112 C85 0.930 . S
H113 C86 0.931 . S
H114 C87 0.930 . S
H115 C88 0.930 . S
H116 C107 0.930 . S
H117 C108 0.931 . S
H118 C109 0.930 . S
H119 C110 0.930 . S
Tb120 C130 2.825 . S
Tb120 O131 2.347 . S
Tb120 O134 2.366 . S
Tb120 O139 2.418 . S
Tb120 O140 2.384 . S
Tb120 O143 2.479 . S
Tb120 O144 2.471 . S
Eu121 O132 2.418 . S
Eu121 O133 2.384 . S
Eu121 O136 2.479 . S
Eu121 O137 2.471 . S
Eu121 O138 2.347 . S
Eu121 O141 2.366 . S
Eu121 C151 2.825 . S
C122 O138 1.259 . S
C122 O139 1.265 . S
C123 O140 1.255 . S
C123 O141 1.265 . S
C124 C126 1.380 . S
C124 C127 1.374 . S
C124 C130 1.507 . S
C125 C126 1.384 . S
C125 C129 1.387 . S
C125 H152 0.930 . S
C126 C124 1.380 . S
C126 C125 1.384 . S
C126 H153 0.931 . S
C127 C124 1.374 . S
C127 C128 1.390 . S
C127 H154 0.930 . S
C128 C127 1.390 . S
C128 C129 1.391 . S
C128 H155 0.930 . S
C129 C125 1.387 . S
C129 C128 1.391 . S
C130 Tb120 2.825 . S
C130 C124 1.507 . S
C130 O143 1.238 . S
C130 O144 1.247 . S
O131 Tb120 2.347 . S
O131 C135 1.259 . S
O132 Eu121 2.418 . S
O132 C135 1.265 . S
O133 Eu121 2.384 . S
O133 C142 1.255 . S
O134 Tb120 2.366 . S
O134 C142 1.265 . S
C135 O131 1.259 . S
C135 O132 1.265 . S
O136 Eu121 2.479 . S
O136 C151 1.238 . S
O137 Eu121 2.471 . S
O137 C151 1.247 . S
O138 Eu121 2.347 . S
O138 C122 1.259 . S
O139 Tb120 2.418 . S
O139 C122 1.265 . S
O140 Tb120 2.384 . S
O140 C123 1.255 . S
O141 Eu121 2.366 . S
O141 C123 1.265 . S
C142 O133 1.255 . S
C142 O134 1.265 . S
O143 Tb120 2.479 . S
O143 C130 1.238 . S
O144 Tb120 2.471 . S
O144 C130 1.247 . S
C145 C148 1.380 . S
C145 C149 1.374 . S
C145 C151 1.507 . S
C146 C147 1.387 . S
C146 C150 1.391 . S
C147 C146 1.387 . S
C147 C148 1.384 . S
C147 H156 0.930 . S
C148 C145 1.380 . S
C148 C147 1.384 . S
C148 H157 0.931 . S
C149 C145 1.374 . S
C149 C150 1.390 . S
C149 H158 0.930 . S
C150 C146 1.391 . S
C150 C149 1.390 . S
C150 H159 0.930 . S
C151 Eu121 2.825 . S
C151 O136 1.238 . S
C151 O137 1.247 . S
C151 C145 1.507 . S
H152 C125 0.930 . S
H153 C126 0.931 . S
H154 C127 0.930 . S
H155 C128 0.930 . S
H156 C147 0.930 . S
H157 C148 0.931 . S
H158 C149 0.930 . S
H159 C150 0.930 . S
Tb160 C170 2.825 . S
Tb160 O171 2.347 . S
Tb160 O174 2.366 . S
Tb160 O179 2.418 . S
Tb160 O180 2.384 . S
Tb160 O183 2.479 . S
Tb160 O184 2.471 . S
Eu161 O172 2.418 . S
Eu161 O173 2.384 . S
Eu161 O176 2.479 . S
Eu161 O177 2.471 . S
Eu161 O178 2.347 . S
Eu161 O181 2.366 . S
Eu161 C191 2.825 . S
C162 O178 1.259 . S
C162 O179 1.265 . S
C163 O180 1.255 . S
C163 O181 1.265 . S
C164 C166 1.380 . S
C164 C167 1.374 . S
C164 C170 1.507 . S
C165 C166 1.384 . S
C165 C169 1.387 . S
C165 H192 0.930 . S
C166 C164 1.380 . S
C166 C165 1.384 . S
C166 H193 0.931 . S
C167 C164 1.374 . S
C167 C168 1.390 . S
C167 H194 0.930 . S
C168 C167 1.390 . S
C168 C169 1.391 . S
C168 H195 0.930 . S
C169 C165 1.387 . S
C169 C168 1.391 . S
C170 Tb160 2.825 . S
C170 C164 1.507 . S
C170 O183 1.238 . S
C170 O184 1.247 . S
O171 Tb160 2.347 . S
O171 C175 1.259 . S
O172 Eu161 2.418 . S
O172 C175 1.265 . S
O173 Eu161 2.384 . S
O173 C182 1.255 . S
O174 Tb160 2.366 . S
O174 C182 1.265 . S
C175 O171 1.259 . S
C175 O172 1.265 . S
O176 Eu161 2.479 . S
O176 C191 1.238 . S
O177 Eu161 2.471 . S
O177 C191 1.247 . S
O178 Eu161 2.347 . S
O178 C162 1.259 . S
O179 Tb160 2.418 . S
O179 C162 1.265 . S
O180 Tb160 2.384 . S
O180 C163 1.255 . S
O181 Eu161 2.366 . S
O181 C163 1.265 . S
C182 O173 1.255 . S
C182 O174 1.265 . S
O183 Tb160 2.479 . S
O183 C170 1.238 . S
O184 Tb160 2.471 . S
O184 C170 1.247 . S
C185 C188 1.380 . S
C185 C189 1.374 . S
C185 C191 1.507 1_655 S
C186 C187 1.387 . S
C186 C190 1.391 . S
C187 C186 1.387 . S
C187 C188 1.384 . S
C187 H196 0.930 . S
C188 C185 1.380 . S
C188 C187 1.384 . S
C188 H197 0.931 . S
C189 C185 1.374 . S
C189 C190 1.390 . S
C189 H198 0.930 . S
C190 C186 1.391 . S
C190 C189 1.390 . S
C190 H199 0.930 . S
C191 Eu161 2.825 . S
C191 O176 1.238 . S
C191 O177 1.247 . S
C191 C185 1.507 1_455 S
H192 C165 0.930 . S
H193 C166 0.931 . S
H194 C167 0.930 . S
H195 C168 0.930 . S
H196 C187 0.930 . S
H197 C188 0.931 . S
H198 C189 0.930 . S
H199 C190 0.930 . S
Tb200 C210 2.825 . S
Tb200 O211 2.347 . S
Tb200 O214 2.366 . S
Tb200 O219 2.418 . S
Tb200 O220 2.384 . S
Tb200 O223 2.479 . S
Tb200 O224 2.471 . S
Eu201 O212 2.418 . S
Eu201 O213 2.384 . S
Eu201 O216 2.479 . S
Eu201 O217 2.471 . S
Eu201 O218 2.347 . S
Eu201 O221 2.366 . S
Eu201 C231 2.825 . S
C202 O218 1.259 . S
C202 O219 1.265 . S
C203 O220 1.255 . S
C203 O221 1.265 . S
C204 C206 1.380 . S
C204 C207 1.374 . S
C204 C210 1.507 . S
C205 C206 1.384 . S
C205 C209 1.387 . S
C205 H232 0.930 . S
C206 C204 1.380 . S
C206 C205 1.384 . S
C206 H233 0.931 . S
C207 C204 1.374 . S
C207 C208 1.390 . S
C207 H234 0.930 . S
C208 C207 1.390 . S
C208 C209 1.391 . S
C208 H235 0.930 . S
C209 C205 1.387 . S
C209 C208 1.391 . S
C210 Tb200 2.825 . S
C210 C204 1.507 . S
C210 O223 1.238 . S
C210 O224 1.247 . S
O211 Tb200 2.347 . S
O211 C215 1.259 . S
O212 Eu201 2.418 . S
O212 C215 1.265 . S
O213 Eu201 2.384 . S
O213 C222 1.255 . S
O214 Tb200 2.366 . S
O214 C222 1.265 . S
C215 O211 1.259 . S
C215 O212 1.265 . S
O216 Eu201 2.479 . S
O216 C231 1.238 . S
O217 Eu201 2.471 . S
O217 C231 1.247 . S
O218 Eu201 2.347 . S
O218 C202 1.259 . S
O219 Tb200 2.418 . S
O219 C202 1.265 . S
O220 Tb200 2.384 . S
O220 C203 1.255 . S
O221 Eu201 2.366 . S
O221 C203 1.265 . S
C222 O213 1.255 . S
C222 O214 1.265 . S
O223 Tb200 2.479 . S
O223 C210 1.238 . S
O224 Tb200 2.471 . S
O224 C210 1.247 . S
C225 C228 1.380 . S
C225 C229 1.374 . S
C225 C231 1.507 1_565 S
C226 C227 1.387 . S
C226 C230 1.391 . S
C227 C226 1.387 . S
C227 C228 1.384 . S
C227 H236 0.930 . S
C228 C225 1.380 . S
C228 C227 1.384 . S
C228 H237 0.931 . S
C229 C225 1.374 . S
C229 C230 1.390 . S
C229 H238 0.930 . S
C230 C226 1.391 . S
C230 C229 1.390 . S
C230 H239 0.930 . S
C231 Eu201 2.825 . S
C231 O216 1.238 . S
C231 O217 1.247 . S
C231 C225 1.507 1_545 S
H232 C205 0.930 . S
H233 C206 0.931 . S
H234 C207 0.930 . S
H235 C208 0.930 . S
H236 C227 0.930 . S
H237 C228 0.931 . S
H238 C229 0.930 . S
H239 C230 0.930 . S
Tb240 C250 2.825 . S
Tb240 O251 2.347 . S
Tb240 O254 2.366 . S
Tb240 O259 2.418 . S
Tb240 O260 2.384 . S
Tb240 O263 2.479 . S
Tb240 O264 2.471 . S
Eu241 O252 2.418 . S
Eu241 O253 2.384 . S
Eu241 O256 2.479 . S
Eu241 O257 2.471 . S
Eu241 O258 2.347 . S
Eu241 O261 2.366 . S
Eu241 C271 2.825 . S
C242 O258 1.259 . S
C242 O259 1.265 . S
C243 O260 1.255 . S
C243 O261 1.265 . S
C244 C246 1.380 . S
C244 C247 1.374 . S
C244 C250 1.507 . S
C245 C246 1.384 . S
C245 C249 1.387 . S
C245 H272 0.930 . S
C246 C244 1.380 . S
C246 C245 1.384 . S
C246 H273 0.931 . S
C247 C244 1.374 . S
C247 C248 1.390 . S
C247 H274 0.930 . S
C248 C247 1.390 . S
C248 C249 1.391 . S
C248 H275 0.930 . S
C249 C245 1.387 . S
C249 C248 1.391 . S
C250 Tb240 2.825 . S
C250 C244 1.507 . S
C250 O263 1.238 . S
C250 O264 1.247 . S
O251 Tb240 2.347 . S
O251 C255 1.259 . S
O252 Eu241 2.418 . S
O252 C255 1.265 . S
O253 Eu241 2.384 . S
O253 C262 1.255 . S
O254 Tb240 2.366 . S
O254 C262 1.265 . S
C255 O251 1.259 . S
C255 O252 1.265 . S
O256 Eu241 2.479 . S
O256 C271 1.238 . S
O257 Eu241 2.471 . S
O257 C271 1.247 . S
O258 Eu241 2.347 . S
O258 C242 1.259 . S
O259 Tb240 2.418 . S
O259 C242 1.265 . S
O260 Tb240 2.384 . S
O260 C243 1.255 . S
O261 Eu241 2.366 . S
O261 C243 1.265 . S
C262 O253 1.255 . S
C262 O254 1.265 . S
O263 Tb240 2.479 . S
O263 C250 1.238 . S
O264 Tb240 2.471 . S
O264 C250 1.247 . S
C265 C268 1.380 . S
C265 C269 1.374 . S
C265 C271 1.507 . S
C266 C267 1.387 . S
C266 C270 1.391 . S
C267 C266 1.387 . S
C267 C268 1.384 . S
C267 H276 0.930 . S
C268 C265 1.380 . S
C268 C267 1.384 . S
C268 H277 0.931 . S
C269 C265 1.374 . S
C269 C270 1.390 . S
C269 H278 0.930 . S
C270 C266 1.391 . S
C270 C269 1.390 . S
C270 H279 0.930 . S
C271 Eu241 2.825 . S
C271 O256 1.238 . S
C271 O257 1.247 . S
C271 C265 1.507 . S
H272 C245 0.930 . S
H273 C246 0.931 . S
H274 C247 0.930 . S
H275 C248 0.930 . S
H276 C267 0.930 . S
H277 C268 0.931 . S
H278 C269 0.930 . S
H279 C270 0.930 . S
Tb280 C290 2.825 . S
Tb280 O291 2.347 . S
Tb280 O294 2.366 . S
Tb280 O299 2.418 . S
Tb280 O300 2.384 . S
Tb280 O303 2.479 . S
Tb280 O304 2.471 . S
Eu281 O292 2.418 . S
Eu281 O293 2.384 . S
Eu281 O296 2.479 . S
Eu281 O297 2.471 . S
Eu281 O298 2.347 . S
Eu281 O301 2.366 . S
Eu281 C311 2.825 . S
C282 O298 1.259 . S
C282 O299 1.265 . S
C283 O300 1.255 . S
C283 O301 1.265 . S
C284 C286 1.380 . S
C284 C287 1.374 . S
C284 C290 1.507 . S
C285 C286 1.384 . S
C285 C289 1.387 . S
C285 H312 0.930 . S
C286 C284 1.380 . S
C286 C285 1.384 . S
C286 H313 0.931 . S
C287 C284 1.374 . S
C287 C288 1.390 . S
C287 H314 0.930 . S
C288 C287 1.390 . S
C288 C289 1.391 . S
C288 H315 0.930 . S
C289 C285 1.387 . S
C289 C288 1.391 . S
C290 Tb280 2.825 . S
C290 C284 1.507 . S
C290 O303 1.238 . S
C290 O304 1.247 . S
O291 Tb280 2.347 . S
O291 C295 1.259 . S
O292 Eu281 2.418 . S
O292 C295 1.265 . S
O293 Eu281 2.384 . S
O293 C302 1.255 . S
O294 Tb280 2.366 . S
O294 C302 1.265 . S
C295 O291 1.259 . S
C295 O292 1.265 . S
O296 Eu281 2.479 . S
O296 C311 1.238 . S
O297 Eu281 2.471 . S
O297 C311 1.247 . S
O298 Eu281 2.347 . S
O298 C282 1.259 . S
O299 Tb280 2.418 . S
O299 C282 1.265 . S
O300 Tb280 2.384 . S
O300 C283 1.255 . S
O301 Eu281 2.366 . S
O301 C283 1.265 . S
C302 O293 1.255 . S
C302 O294 1.265 . S
O303 Tb280 2.479 . S
O303 C290 1.238 . S
O304 Tb280 2.471 . S
O304 C290 1.247 . S
C305 C308 1.380 . S
C305 C309 1.374 . S
C305 C311 1.507 1_455 S
C306 C307 1.387 . S
C306 C310 1.391 . S
C307 C306 1.387 . S
C307 C308 1.384 . S
C307 H316 0.930 . S
C308 C305 1.380 . S
C308 C307 1.384 . S
C308 H317 0.931 . S
C309 C305 1.374 . S
C309 C310 1.390 . S
C309 H318 0.930 . S
C310 C306 1.391 . S
C310 C309 1.390 . S
C310 H319 0.930 . S
C311 Eu281 2.825 . S
C311 O296 1.238 . S
C311 O297 1.247 . S
C311 C305 1.507 1_655 S
H312 C285 0.930 . S
H313 C286 0.931 . S
H314 C287 0.930 . S
H315 C288 0.930 . S
H316 C307 0.930 . S
H317 C308 0.931 . S
H318 C309 0.930 . S
H319 C310 0.930 . S
Tb320 C330 2.825 . S
Tb320 O331 2.347 . S
Tb320 O334 2.366 . S
Tb320 O339 2.418 . S
Tb320 O340 2.384 . S
Tb320 O343 2.479 . S
Tb320 O344 2.471 . S
Eu321 O332 2.418 . S
Eu321 O333 2.384 . S
Eu321 O336 2.479 . S
Eu321 O337 2.471 . S
Eu321 O338 2.347 . S
Eu321 O341 2.366 . S
Eu321 C351 2.825 . S
C322 O338 1.259 . S
C322 O339 1.265 . S
C323 O340 1.255 . S
C323 O341 1.265 . S
C324 C326 1.380 . S
C324 C327 1.374 . S
C324 C330 1.507 . S
C325 C326 1.384 . S
C325 C329 1.387 . S
C325 H352 0.930 . S
C326 C324 1.380 . S
C326 C325 1.384 . S
C326 H353 0.931 . S
C327 C324 1.374 . S
C327 C328 1.390 . S
C327 H354 0.930 . S
C328 C327 1.390 . S
C328 C329 1.391 . S
C328 H355 0.930 . S
C329 C325 1.387 . S
C329 C328 1.391 . S
C330 Tb320 2.825 . S
C330 C324 1.507 . S
C330 O343 1.238 . S
C330 O344 1.247 . S
O331 Tb320 2.347 . S
O331 C335 1.259 . S
O332 Eu321 2.418 . S
O332 C335 1.265 . S
O333 Eu321 2.384 . S
O333 C342 1.255 . S
O334 Tb320 2.366 . S
O334 C342 1.265 . S
C335 O331 1.259 . S
C335 O332 1.265 . S
O336 Eu321 2.479 . S
O336 C351 1.238 . S
O337 Eu321 2.471 . S
O337 C351 1.247 . S
O338 Eu321 2.347 . S
O338 C322 1.259 . S
O339 Tb320 2.418 . S
O339 C322 1.265 . S
O340 Tb320 2.384 . S
O340 C323 1.255 . S
O341 Eu321 2.366 . S
O341 C323 1.265 . S
C342 O333 1.255 . S
C342 O334 1.265 . S
O343 Tb320 2.479 . S
O343 C330 1.238 . S
O344 Tb320 2.471 . S
O344 C330 1.247 . S
C345 C348 1.380 . S
C345 C349 1.374 . S
C345 C351 1.507 1_545 S
C346 C347 1.387 . S
C346 C350 1.391 . S
C347 C346 1.387 . S
C347 C348 1.384 . S
C347 H356 0.930 . S
C348 C345 1.380 . S
C348 C347 1.384 . S
C348 H357 0.931 . S
C349 C345 1.374 . S
C349 C350 1.390 . S
C349 H358 0.930 . S
C350 C346 1.391 . S
C350 C349 1.390 . S
C350 H359 0.930 . S
C351 Eu321 2.825 . S
C351 O336 1.238 . S
C351 O337 1.247 . S
C351 C345 1.507 1_565 S
H352 C325 0.930 . S
H353 C326 0.931 . S
H354 C327 0.930 . S
H355 C328 0.930 . S
H356 C347 0.930 . S
H357 C348 0.931 . S
H358 C349 0.930 . S
H359 C350 0.930 . S
Tb360 C370 2.825 . S
Tb360 O371 2.347 . S
Tb360 O374 2.366 . S
Tb360 O379 2.418 . S
Tb360 O380 2.384 . S
Tb360 O383 2.479 . S
Tb360 O384 2.471 . S
Eu361 O372 2.418 . S
Eu361 O373 2.384 . S
Eu361 O376 2.479 . S
Eu361 O377 2.471 . S
Eu361 O378 2.347 . S
Eu361 O381 2.366 . S
Eu361 C391 2.825 . S
C362 O378 1.259 . S
C362 O379 1.265 . S
C363 O380 1.255 . S
C363 O381 1.265 . S
C364 C366 1.380 . S
C364 C367 1.374 . S
C364 C370 1.507 . S
C365 C366 1.384 . S
C365 C369 1.387 . S
C365 H392 0.930 . S
C366 C364 1.380 . S
C366 C365 1.384 . S
C366 H393 0.931 . S
C367 C364 1.374 . S
C367 C368 1.390 . S
C367 H394 0.930 . S
C368 C367 1.390 . S
C368 C369 1.391 . S
C368 H395 0.930 . S
C369 C365 1.387 . S
C369 C368 1.391 . S
C370 Tb360 2.825 . S
C370 C364 1.507 . S
C370 O383 1.238 . S
C370 O384 1.247 . S
O371 Tb360 2.347 . S
O371 C375 1.259 . S
O372 Eu361 2.418 . S
O372 C375 1.265 . S
O373 Eu361 2.384 . S
O373 C382 1.255 . S
O374 Tb360 2.366 . S
O374 C382 1.265 . S
C375 O371 1.259 . S
C375 O372 1.265 . S
O376 Eu361 2.479 . S
O376 C391 1.238 . S
O377 Eu361 2.471 . S
O377 C391 1.247 . S
O378 Eu361 2.347 . S
O378 C362 1.259 . S
O379 Tb360 2.418 . S
O379 C362 1.265 . S
O380 Tb360 2.384 . S
O380 C363 1.255 . S
O381 Eu361 2.366 . S
O381 C363 1.265 . S
C382 O373 1.255 . S
C382 O374 1.265 . S
O383 Tb360 2.479 . S
O383 C370 1.238 . S
O384 Tb360 2.471 . S
O384 C370 1.247 . S
C385 C388 1.380 . S
C385 C389 1.374 . S
C385 C391 1.507 . S
C386 C387 1.387 . S
C386 C390 1.391 . S
C387 C386 1.387 . S
C387 C388 1.384 . S
C387 H396 0.930 . S
C388 C385 1.380 . S
C388 C387 1.384 . S
C388 H397 0.931 . S
C389 C385 1.374 . S
C389 C390 1.390 . S
C389 H398 0.930 . S
C390 C386 1.391 . S
C390 C389 1.390 . S
C390 H399 0.930 . S
C391 Eu361 2.825 . S
C391 O376 1.238 . S
C391 O377 1.247 . S
C391 C385 1.507 . S
H392 C365 0.930 . S
H393 C366 0.931 . S
H394 C367 0.930 . S
H395 C368 0.930 . S
H396 C387 0.930 . S
H397 C388 0.931 . S
H398 C389 0.930 . S
H399 C390 0.930 . S
Tb400 C410 2.825 . S
Tb400 O411 2.347 . S
Tb400 O414 2.366 . S
Tb400 O419 2.418 . S
Tb400 O420 2.384 . S
Tb400 O423 2.479 . S
Tb400 O424 2.471 . S
Eu401 O412 2.418 . S
Eu401 O413 2.384 . S
Eu401 O416 2.479 . S
Eu401 O417 2.471 . S
Eu401 O418 2.347 . S
Eu401 O421 2.366 . S
Eu401 C431 2.825 . S
C402 O418 1.259 . S
C402 O419 1.265 . S
C403 O420 1.255 . S
C403 O421 1.265 . S
C404 C406 1.380 . S
C404 C407 1.374 . S
C404 C410 1.507 . S
C405 C406 1.384 . S
C405 C409 1.387 . S
C405 H432 0.930 . S
C406 C404 1.380 . S
C406 C405 1.384 . S
C406 H433 0.931 . S
C407 C404 1.374 . S
C407 C408 1.390 . S
C407 H434 0.930 . S
C408 C407 1.390 . S
C408 C409 1.391 . S
C408 H435 0.930 . S
C409 C405 1.387 . S
C409 C408 1.391 . S
C410 Tb400 2.825 . S
C410 C404 1.507 . S
C410 O423 1.238 . S
C410 O424 1.247 . S
O411 Tb400 2.347 . S
O411 C415 1.259 . S
O412 Eu401 2.418 . S
O412 C415 1.265 . S
O413 Eu401 2.384 . S
O413 C422 1.255 . S
O414 Tb400 2.366 . S
O414 C422 1.265 . S
C415 O411 1.259 . S
C415 O412 1.265 . S
O416 Eu401 2.479 . S
O416 C431 1.238 . S
O417 Eu401 2.471 . S
O417 C431 1.247 . S
O418 Eu401 2.347 . S
O418 C402 1.259 . S
O419 Tb400 2.418 . S
O419 C402 1.265 . S
O420 Tb400 2.384 . S
O420 C403 1.255 . S
O421 Eu401 2.366 . S
O421 C403 1.265 . S
C422 O413 1.255 . S
C422 O414 1.265 . S
O423 Tb400 2.479 . S
O423 C410 1.238 . S
O424 Tb400 2.471 . S
O424 C410 1.247 . S
C425 C428 1.380 . S
C425 C429 1.374 . S
C425 C431 1.507 1_655 S
C426 C427 1.387 . S
C426 C430 1.391 . S
C427 C426 1.387 . S
C427 C428 1.384 . S
C427 H436 0.930 . S
C428 C425 1.380 . S
C428 C427 1.384 . S
C428 H437 0.931 . S
C429 C425 1.374 . S
C429 C430 1.390 . S
C429 H438 0.930 . S
C430 C426 1.391 . S
C430 C429 1.390 . S
C430 H439 0.930 . S
C431 Eu401 2.825 . S
C431 O416 1.238 . S
C431 O417 1.247 . S
C431 C425 1.507 1_455 S
H432 C405 0.930 . S
H433 C406 0.931 . S
H434 C407 0.930 . S
H435 C408 0.930 . S
H436 C427 0.930 . S
H437 C428 0.931 . S
H438 C429 0.930 . S
H439 C430 0.930 . S
Tb440 C450 2.825 . S
Tb440 O451 2.347 . S
Tb440 O454 2.366 . S
Tb440 O459 2.418 . S
Tb440 O460 2.384 . S
Tb440 O463 2.479 . S
Tb440 O464 2.471 . S
Eu441 O452 2.418 . S
Eu441 O453 2.384 . S
Eu441 O456 2.479 . S
Eu441 O457 2.471 . S
Eu441 O458 2.347 . S
Eu441 O461 2.366 . S
Eu441 C471 2.825 . S
C442 O458 1.259 . S
C442 O459 1.265 . S
C443 O460 1.255 . S
C443 O461 1.265 . S
C444 C446 1.380 . S
C444 C447 1.374 . S
C444 C450 1.507 . S
C445 C446 1.384 . S
C445 C449 1.387 . S
C445 H472 0.930 . S
C446 C444 1.380 . S
C446 C445 1.384 . S
C446 H473 0.931 . S
C447 C444 1.374 . S
C447 C448 1.390 . S
C447 H474 0.930 . S
C448 C447 1.390 . S
C448 C449 1.391 . S
C448 H475 0.930 . S
C449 C445 1.387 . S
C449 C448 1.391 . S
C450 Tb440 2.825 . S
C450 C444 1.507 . S
C450 O463 1.238 . S
C450 O464 1.247 . S
O451 Tb440 2.347 . S
O451 C455 1.259 . S
O452 Eu441 2.418 . S
O452 C455 1.265 . S
O453 Eu441 2.384 . S
O453 C462 1.255 . S
O454 Tb440 2.366 . S
O454 C462 1.265 . S
C455 O451 1.259 . S
C455 O452 1.265 . S
O456 Eu441 2.479 . S
O456 C471 1.238 . S
O457 Eu441 2.471 . S
O457 C471 1.247 . S
O458 Eu441 2.347 . S
O458 C442 1.259 . S
O459 Tb440 2.418 . S
O459 C442 1.265 . S
O460 Tb440 2.384 . S
O460 C443 1.255 . S
O461 Eu441 2.366 . S
O461 C443 1.265 . S
C462 O453 1.255 . S
C462 O454 1.265 . S
O463 Tb440 2.479 . S
O463 C450 1.238 . S
O464 Tb440 2.471 . S
O464 C450 1.247 . S
C465 C468 1.380 . S
C465 C469 1.374 . S
C465 C471 1.507 1_565 S
C466 C467 1.387 . S
C466 C470 1.391 . S
C467 C466 1.387 . S
C467 C468 1.384 . S
C467 H476 0.930 . S
C468 C465 1.380 . S
C468 C467 1.384 . S
C468 H477 0.931 . S
C469 C465 1.374 . S
C469 C470 1.390 . S
C469 H478 0.930 . S
C470 C466 1.391 . S
C470 C469 1.390 . S
C470 H479 0.930 . S
C471 Eu441 2.825 . S
C471 O456 1.238 . S
C471 O457 1.247 . S
C471 C465 1.507 1_545 S
H472 C445 0.930 . S
H473 C446 0.931 . S
H474 C447 0.930 . S
H475 C448 0.930 . S
H476 C467 0.930 . S
H477 C468 0.931 . S
H478 C469 0.930 . S
H479 C470 0.930 . S
H480 C486 0.930 . S
H481 C489 0.930 . S
H482 C490 0.930 . S
H483 C491 0.930 . S
H484 C494 0.930 . S
H485 C495 0.930 1_565 S
C486 H480 0.930 . S
C486 C487 1.355 . S
C486 C488 1.415 . S
C487 C486 1.355 . S
C487 C489 1.419 . S
C488 C486 1.415 . S
C488 C493 1.425 . S
C488 C495 1.409 1_565 S
C489 H481 0.930 . S
C489 C487 1.419 . S
C489 C490 1.362 . S
C490 H482 0.930 . S
C490 C489 1.362 . S
C490 C493 1.409 . S
C491 H483 0.930 . S
C491 C492 1.355 . S
C491 C493 1.415 1_545 S
C492 C491 1.355 . S
C492 C494 1.419 . S
C493 C488 1.425 . S
C493 C490 1.409 . S
C493 C491 1.415 1_565 S
C494 H484 0.930 . S
C494 C492 1.419 . S
C494 C495 1.362 . S
C495 H485 0.930 1_545 S
C495 C488 1.409 1_545 S
C495 C494 1.362 . S
H496 C502 0.930 . S
H497 C505 0.930 . S
H498 C506 0.930 . S
H499 C507 0.930 . S
H500 C510 0.930 . S
H501 C511 0.930 . S
C502 H496 0.930 . S
C502 C503 1.355 . S
C502 C504 1.415 . S
C503 C502 1.355 . S
C503 C505 1.419 . S
C504 C502 1.415 . S
C504 C509 1.425 . S
C504 C511 1.409 . S
C505 H497 0.930 . S
C505 C503 1.419 . S
C505 C506 1.362 . S
C506 H498 0.930 . S
C506 C505 1.362 . S
C506 C509 1.409 . S
C507 H499 0.930 . S
C507 C508 1.355 . S
C507 C509 1.415 . S
C508 C507 1.355 . S
C508 C510 1.419 . S
C509 C504 1.425 . S
C509 C506 1.409 . S
C509 C507 1.415 . S
C510 H500 0.930 . S
C510 C508 1.419 . S
C510 C511 1.362 . S
C511 H501 0.930 . S
C511 C504 1.409 . S
C511 C510 1.362 . S
H512 C518 0.930 . S
H513 C521 0.930 . S
H514 C522 0.930 . S
H515 C523 0.930 . S
H516 C526 0.930 . S
H517 C527 0.930 . S
C518 H512 0.930 . S
C518 C519 1.355 . S
C518 C520 1.415 1_655 S
C519 C518 1.355 . S
C519 C521 1.419 . S
C520 C518 1.415 1_455 S
C520 C525 1.425 . S
C520 C527 1.409 . S
C521 H513 0.930 . S
C521 C519 1.419 . S
C521 C522 1.362 . S
C522 H514 0.930 . S
C522 C521 1.362 . S
C522 C525 1.409 1_655 S
C523 H515 0.930 . S
C523 C524 1.355 . S
C523 C525 1.415 . S
C524 C523 1.355 . S
C524 C526 1.419 . S
C525 C520 1.425 . S
C525 C522 1.409 1_455 S
C525 C523 1.415 . S
C526 H516 0.930 . S
C526 C524 1.419 . S
C526 C527 1.362 . S
C527 H517 0.930 . S
C527 C520 1.409 . S
C527 C526 1.362 . S
H528 C534 0.930 . S
H529 C537 0.930 . S
H530 C538 0.930 . S
H531 C539 0.930 . S
H532 C542 0.930 . S
H533 C543 0.930 . S
C534 H528 0.930 . S
C534 C535 1.355 . S
C534 C536 1.415 1_565 S
C535 C534 1.355 . S
C535 C537 1.419 . S
C536 C534 1.415 1_545 S
C536 C541 1.425 . S
C536 C543 1.409 . S
C537 H529 0.930 . S
C537 C535 1.419 . S
C537 C538 1.362 . S
C538 H530 0.930 . S
C538 C537 1.362 . S
C538 C541 1.409 1_565 S
C539 H531 0.930 . S
C539 C540 1.355 . S
C539 C541 1.415 . S
C540 C539 1.355 . S
C540 C542 1.419 . S
C541 C536 1.425 . S
C541 C538 1.409 1_545 S
C541 C539 1.415 . S
C542 H532 0.930 . S
C542 C540 1.419 . S
C542 C543 1.362 . S
C543 H533 0.930 . S
C543 C536 1.409 . S
C543 C542 1.362 . S
H544 C550 0.930 . S
H545 C553 0.930 . S
H546 C554 0.930 . S
H547 C555 0.930 . S
H548 C558 0.930 . S
H549 C559 0.930 . S
C550 H544 0.930 . S
C550 C551 1.355 . S
C550 C552 1.415 . S
C551 C550 1.355 . S
C551 C553 1.419 . S
C552 C550 1.415 . S
C552 C557 1.425 . S
C552 C559 1.409 . S
C553 H545 0.930 . S
C553 C551 1.419 . S
C553 C554 1.362 . S
C554 H546 0.930 . S
C554 C553 1.362 . S
C554 C557 1.409 . S
C555 H547 0.930 . S
C555 C556 1.355 . S
C555 C557 1.415 . S
C556 C555 1.355 . S
C556 C558 1.419 . S
C557 C552 1.425 . S
C557 C554 1.409 . S
C557 C555 1.415 . S
C558 H548 0.930 . S
C558 C556 1.419 . S
C558 C559 1.362 . S
C559 H549 0.930 . S
C559 C552 1.409 . S
C559 C558 1.362 . S
H560 C566 0.930 . S
H561 C569 0.930 . S
H562 C570 0.930 . S
H563 C571 0.930 . S
H564 C574 0.930 . S
H565 C575 0.930 . S
C566 H560 0.930 . S
C566 C567 1.355 . S
C566 C568 1.415 . S
C567 C566 1.355 . S
C567 C569 1.419 . S
C568 C566 1.415 . S
C568 C573 1.453 . S
C568 C575 1.409 . S
C569 H561 0.930 . S
C569 C567 1.419 . S
C569 C570 1.362 . S
C570 H562 0.930 . S
C570 C569 1.362 . S
C570 C573 1.407 . S
C571 H563 0.930 . S
C571 C572 1.355 . S
C571 C573 1.391 1_455 S
C572 C571 1.355 . S
C572 C574 1.419 . S
C573 C568 1.453 . S
C573 C570 1.407 . S
C573 C571 1.391 1_655 S
C574 H564 0.930 . S
C574 C572 1.419 . S
C574 C575 1.362 1_455 S
C575 H565 0.930 . S
C575 C568 1.409 . S
C575 C574 1.362 1_655 S
H576 C582 0.930 . S
H577 C585 0.930 . S
H578 C586 0.930 . S
H579 C587 0.930 . S
H580 C590 0.930 . S
H581 C591 0.930 . S
C582 H576 0.930 . S
C582 C583 1.355 . S
C582 C584 1.415 . S
C583 C582 1.355 . S
C583 C585 1.419 . S
C584 C582 1.415 . S
C584 C589 1.425 . S
C584 C591 1.409 1_455 S
C585 H577 0.930 . S
C585 C583 1.419 . S
C585 C586 1.362 . S
C586 H578 0.930 . S
C586 C585 1.362 . S
C586 C589 1.409 . S
C587 H579 0.930 . S
C587 C588 1.355 . S
C587 C589 1.415 1_655 S
C588 C587 1.355 . S
C588 C590 1.419 . S
C589 C584 1.425 . S
C589 C586 1.409 . S
C589 C587 1.415 1_455 S
C590 H580 0.930 . S
C590 C588 1.419 . S
C590 C591 1.362 . S
C591 H581 0.930 . S
C591 C584 1.409 1_655 S
C591 C590 1.362 . S
H592 C598 0.930 . S
H593 C601 0.930 . S
H594 C602 0.948 . S
H595 C603 0.930 . S
H596 C606 0.930 . S
H597 C607 0.930 . S
C598 H592 0.930 . S
C598 C599 1.355 . S
C598 C600 1.415 1_565 S
C599 C598 1.355 . S
C599 C601 1.419 . S
C600 C598 1.415 1_545 S
C600 C605 1.425 . S
C600 C607 1.409 . S
C601 H593 0.930 . S
C601 C599 1.419 . S
C601 C602 1.344 1_565 S
C602 H594 0.948 . S
C602 C601 1.344 1_545 S
C602 C605 1.411 . S
C603 H595 0.930 . S
C603 C604 1.355 . S
C603 C605 1.415 . S
C604 C603 1.355 . S
C604 C606 1.419 . S
C605 C600 1.425 . S
C605 C602 1.411 . S
C605 C603 1.415 . S
C606 H596 0.930 . S
C606 C604 1.419 . S
C606 C607 1.362 . S
C607 H597 0.930 . S
C607 C600 1.409 . S
C607 C606 1.362 . S
H608 C614 0.930 . S
H609 C617 0.930 . S
H610 C618 0.930 . S
H611 C619 0.930 . S
H612 C622 0.930 . S
H613 C623 0.930 . S
C614 H608 0.930 . S
C614 C615 1.355 . S
C614 C616 1.415 . S
C615 C614 1.355 . S
C615 C617 1.419 . S
C616 C614 1.415 . S
C616 C621 1.425 . S
C616 C623 1.409 . S
C617 H609 0.930 . S
C617 C615 1.419 . S
C617 C618 1.362 . S
C618 H610 0.930 . S
C618 C617 1.362 . S
C618 C621 1.409 . S
C619 H611 0.930 . S
C619 C620 1.355 . S
C619 C621 1.415 . S
C620 C619 1.355 . S
C620 C622 1.419 . S
C621 C616 1.425 . S
C621 C618 1.409 . S
C621 C619 1.415 . S
C622 H612 0.930 . S
C622 C620 1.419 . S
C622 C623 1.362 . S
C623 H613 0.930 . S
C623 C616 1.409 . S
C623 C622 1.362 . S
H624 C630 0.930 . S
H625 C633 0.930 . S
H626 C634 0.930 . S
H627 C635 0.930 . S
H628 C638 0.930 . S
H629 C639 0.930 . S
C630 H624 0.930 . S
C630 C631 1.355 . S
C630 C632 1.415 1_455 S
C631 C630 1.355 . S
C631 C633 1.419 . S
C632 C630 1.415 1_655 S
C632 C637 1.425 . S
C632 C639 1.409 . S
C633 H625 0.930 . S
C633 C631 1.419 . S
C633 C634 1.362 . S
C634 H626 0.930 . S
C634 C633 1.362 . S
C634 C637 1.409 1_455 S
C635 H627 0.930 . S
C635 C636 1.355 . S
C635 C637 1.415 . S
C636 C635 1.355 . S
C636 C638 1.419 . S
C637 C632 1.425 . S
C637 C634 1.409 1_655 S
C637 C635 1.415 . S
C638 H628 0.930 . S
C638 C636 1.419 . S
C638 C639 1.362 . S
C639 H629 0.930 . S
C639 C632 1.409 . S
C639 C638 1.362 . S
H640 C646 0.930 . S
H641 C649 0.930 . S
H642 C650 0.930 . S
H643 C651 0.930 . S
H644 C654 0.930 . S
H645 C655 0.953 . S
C646 H640 0.930 . S
C646 C647 1.355 . S
C646 C648 1.412 1_545 S
C647 C646 1.355 . S
C647 C649 1.419 . S
C648 C646 1.412 1_565 S
C648 C653 1.428 . S
C648 C655 1.409 . S
C649 H641 0.930 . S
C649 C647 1.419 . S
C649 C650 1.362 1_545 S
C650 H642 0.930 . S
C650 C649 1.362 1_565 S
C650 C653 1.409 . S
C651 H643 0.930 . S
C651 C652 1.355 . S
C651 C653 1.415 . S
C652 C651 1.355 . S
C652 C654 1.419 . S
C653 C648 1.428 . S
C653 C650 1.409 . S
C653 C651 1.415 . S
C654 H644 0.930 . S
C654 C652 1.419 . S
C654 C655 1.362 . S
C655 H645 0.953 . S
C655 C648 1.409 . S
C655 C654 1.362 . S
H656 C662 0.930 . S
H657 C665 0.930 . S
H658 C666 0.930 . S
H659 C667 0.930 . S
H660 C670 0.930 . S
H661 C671 0.930 . S
C662 H656 0.930 . S
C662 C663 1.355 . S
C662 C664 1.415 . S
C663 C662 1.355 . S
C663 C665 1.419 . S
C664 C662 1.415 . S
C664 C669 1.425 . S
C664 C671 1.409 . S
C665 H657 0.930 . S
C665 C663 1.419 . S
C665 C666 1.362 . S
C666 H658 0.930 . S
C666 C665 1.362 . S
C666 C669 1.409 . S
C667 H659 0.930 . S
C667 C668 1.355 . S
C667 C669 1.415 . S
C668 C667 1.355 . S
C668 C670 1.419 . S
C669 C664 1.425 . S
C669 C666 1.409 . S
C669 C667 1.415 . S
C670 H660 0.930 . S
C670 C668 1.419 . S
C670 C671 1.362 . S
C671 H661 0.930 . S
C671 C664 1.409 . S
C671 C670 1.362 . S
H672 C678 0.930 . S
H673 C681 0.930 . S
H674 C682 0.930 . S
H675 C683 0.930 . S
H676 C686 0.930 . S
H677 C687 0.930 . S
C678 H672 0.930 . S
C678 C679 1.355 . S
C678 C680 1.415 . S
C679 C678 1.355 . S
C679 C681 1.419 . S
C680 C678 1.415 . S
C680 C685 1.425 . S
C680 C687 1.409 . S
C681 H673 0.930 . S
C681 C679 1.419 . S
C681 C682 1.362 . S
C682 H674 0.930 . S
C682 C681 1.362 . S
C682 C685 1.409 . S
C683 H675 0.930 . S
C683 C684 1.355 . S
C683 C685 1.415 . S
C684 C683 1.355 . S
C684 C686 1.419 . S
C685 C680 1.425 . S
C685 C682 1.409 . S
C685 C683 1.415 . S
C686 H676 0.930 . S
C686 C684 1.419 . S
C686 C687 1.362 . S
C687 H677 0.930 . S
C687 C680 1.409 . S
C687 C686 1.362 . S
H688 C694 0.930 . S
H689 C697 0.930 . S
H690 C698 0.930 . S
H691 C699 0.930 . S
H692 C702 0.930 . S
H693 C703 0.930 . S
C694 H688 0.930 . S
C694 C695 1.355 . S
C694 C696 1.415 . S
C695 C694 1.355 . S
C695 C697 1.419 . S
C696 C694 1.415 . S
C696 C701 1.425 . S
C696 C703 1.409 . S
C697 H689 0.930 . S
C697 C695 1.419 . S
C697 C698 1.362 . S
C698 H690 0.930 . S
C698 C697 1.362 . S
C698 C701 1.409 . S
C699 H691 0.930 . S
C699 C700 1.355 . S
C699 C701 1.415 . S
C700 C699 1.355 . S
C700 C702 1.419 . S
C701 C696 1.425 . S
C701 C698 1.409 . S
C701 C699 1.415 . S
C702 H692 0.930 . S
C702 C700 1.419 . S
C702 C703 1.362 . S
C703 H693 0.930 . S
C703 C696 1.409 . S
C703 C702 1.362 . S
H704 C710 0.930 . S
H705 C713 0.930 . S
H706 C714 0.930 . S
H707 C715 0.930 . S
H708 C718 0.930 . S
H709 C719 0.930 . S
C710 H704 0.930 . S
C710 C711 1.355 . S
C710 C712 1.415 . S
C711 C710 1.355 . S
C711 C713 1.419 . S
C712 C710 1.415 . S
C712 C717 1.425 . S
C712 C719 1.409 . S
C713 H705 0.930 . S
C713 C711 1.419 . S
C713 C714 1.362 . S
C714 H706 0.930 . S
C714 C713 1.362 . S
C714 C717 1.409 . S
C715 H707 0.930 . S
C715 C716 1.355 . S
C715 C717 1.415 . S
C716 C715 1.355 . S
C716 C718 1.419 . S
C717 C712 1.425 . S
C717 C714 1.409 . S
C717 C715 1.415 . S
C718 H708 0.930 . S
C718 C716 1.419 . S
C718 C719 1.362 . S
C719 H709 0.930 . S
C719 C712 1.409 . S
C719 C718 1.362 . S
H720 C726 0.930 . S
H721 C729 0.930 . S
H722 C730 0.930 . S
H723 C731 0.930 . S
H724 C734 0.930 . S
H725 C735 0.930 . S
C726 H720 0.930 . S
C726 C727 1.355 . S
C726 C728 1.415 . S
C727 C726 1.355 . S
C727 C729 1.419 . S
C728 C726 1.415 . S
C728 C733 1.425 . S
C728 C735 1.409 . S
C729 H721 0.930 . S
C729 C727 1.419 . S
C729 C730 1.362 . S
C730 H722 0.930 . S
C730 C729 1.362 . S
C730 C733 1.409 . S
C731 H723 0.930 . S
C731 C732 1.355 . S
C731 C733 1.415 . S
C732 C731 1.355 . S
C732 C734 1.419 . S
C733 C728 1.425 . S
C733 C730 1.409 . S
C733 C731 1.415 . S
C734 H724 0.930 . S
C734 C732 1.419 . S
C734 C735 1.362 . S
C735 H725 0.930 . S
C735 C728 1.409 . S
C735 C734 1.362 . S
H736 C742 0.930 . S
H737 C745 0.930 . S
H738 C746 0.930 . S
H739 C747 0.930 . S
H740 C750 0.930 . S
H741 C751 0.930 . S
C742 H736 0.930 . S
C742 C743 1.355 . S
C742 C744 1.415 . S
C743 C742 1.355 . S
C743 C745 1.419 . S
C744 C742 1.415 . S
C744 C749 1.425 . S
C744 C751 1.409 . S
C745 H737 0.930 . S
C745 C743 1.419 . S
C745 C746 1.362 . S
C746 H738 0.930 . S
C746 C745 1.362 . S
C746 C749 1.409 . S
C747 H739 0.930 . S
C747 C748 1.355 . S
C747 C749 1.415 . S
C748 C747 1.355 . S
C748 C750 1.419 . S
C749 C744 1.425 . S
C749 C746 1.409 . S
C749 C747 1.415 . S
C750 H740 0.930 . S
C750 C748 1.419 . S
C750 C751 1.362 . S
C751 H741 0.930 . S
C751 C744 1.409 . S
C751 C750 1.362 . S
H752 C758 0.930 . S
H753 C761 0.930 . S
H754 C762 0.930 . S
H755 C763 0.930 . S
H756 C766 0.930 . S
H757 C767 0.930 . S
C758 H752 0.930 . S
C758 C759 1.355 . S
C758 C760 1.415 . S
C759 C758 1.355 . S
C759 C761 1.419 . S
C760 C758 1.415 . S
C760 C765 1.425 . S
C760 C767 1.409 . S
C761 H753 0.930 . S
C761 C759 1.419 . S
C761 C762 1.362 . S
C762 H754 0.930 . S
C762 C761 1.362 . S
C762 C765 1.409 . S
C763 H755 0.930 . S
C763 C764 1.355 . S
C763 C765 1.415 . S
C764 C763 1.355 . S
C764 C766 1.419 . S
C765 C760 1.425 . S
C765 C762 1.409 . S
C765 C763 1.415 . S
C766 H756 0.930 . S
C766 C764 1.419 . S
C766 C767 1.362 . S
C767 H757 0.930 . S
C767 C760 1.409 . S
C767 C766 1.362 . S
H768 C774 0.930 . S
H769 C777 0.930 . S
H770 C778 0.930 . S
H771 C779 0.930 . S
H772 C782 0.930 . S
H773 C783 0.930 . S
C774 H768 0.930 . S
C774 C775 1.355 . S
C774 C776 1.415 . S
C775 C774 1.355 . S
C775 C777 1.419 . S
C776 C774 1.415 . S
C776 C781 1.425 . S
C776 C783 1.409 . S
C777 H769 0.930 . S
C777 C775 1.419 . S
C777 C778 1.362 . S
C778 H770 0.930 . S
C778 C777 1.362 . S
C778 C781 1.409 . S
C779 H771 0.930 . S
C779 C780 1.355 . S
C779 C781 1.415 . S
C780 C779 1.355 . S
C780 C782 1.419 . S
C781 C776 1.425 . S
C781 C778 1.409 . S
C781 C779 1.415 . S
C782 H772 0.930 . S
C782 C780 1.419 . S
C782 C783 1.362 . S
C783 H773 0.930 . S
C783 C776 1.409 . S
C783 C782 1.362 . S
H784 C790 0.930 . S
H785 C793 0.930 . S
H786 C794 0.930 . S
H787 C795 0.930 . S
H788 C798 0.930 . S
H789 C799 0.930 . S
C790 H784 0.930 . S
C790 C791 1.355 . S
C790 C792 1.415 . S
C791 C790 1.355 . S
C791 C793 1.419 . S
C792 C790 1.415 . S
C792 C797 1.425 . S
C792 C799 1.409 . S
C793 H785 0.930 . S
C793 C791 1.419 . S
C793 C794 1.362 . S
C794 H786 0.930 . S
C794 C793 1.362 . S
C794 C797 1.409 . S
C795 H787 0.930 . S
C795 C796 1.355 . S
C795 C797 1.415 . S
C796 C795 1.355 . S
C796 C798 1.419 . S
C797 C792 1.425 . S
C797 C794 1.409 . S
C797 C795 1.415 . S
C798 H788 0.930 . S
C798 C796 1.419 . S
C798 C799 1.362 . S
C799 H789 0.930 . S
C799 C792 1.409 . S
C799 C798 1.362 . S
H800 C806 0.930 . S
H801 C809 0.930 . S
H802 C810 0.930 . S
H803 C811 0.930 . S
H804 C814 0.930 . S
H805 C815 0.930 . S
C806 H800 0.930 . S
C806 C807 1.355 . S
C806 C808 1.415 . S
C807 C806 1.355 . S
C807 C809 1.419 . S
C808 C806 1.415 . S
C808 C813 1.425 . S
C808 C815 1.409 . S
C809 H801 0.930 . S
C809 C807 1.419 . S
C809 C810 1.362 . S
C810 H802 0.930 . S
C810 C809 1.362 . S
C810 C813 1.409 . S
C811 H803 0.930 . S
C811 C812 1.355 . S
C811 C813 1.415 . S
C812 C811 1.355 . S
C812 C814 1.419 . S
C813 C808 1.425 . S
C813 C810 1.409 . S
C813 C811 1.415 . S
C814 H804 0.930 . S
C814 C812 1.419 . S
C814 C815 1.362 . S
C815 H805 0.930 . S
C815 C808 1.409 . S
C815 C814 1.362 . S
H816 C822 0.930 . S
H817 C825 0.930 . S
H818 C826 0.930 . S
H819 C827 0.930 . S
H820 C830 0.930 . S
H821 C831 0.930 . S
C822 H816 0.930 . S
C822 C823 1.355 . S
C822 C824 1.415 . S
C823 C822 1.355 . S
C823 C825 1.419 . S
C824 C822 1.415 . S
C824 C829 1.425 . S
C824 C831 1.409 . S
C825 H817 0.930 . S
C825 C823 1.419 . S
C825 C826 1.362 . S
C826 H818 0.930 . S
C826 C825 1.362 . S
C826 C829 1.409 . S
C827 H819 0.930 . S
C827 C828 1.355 . S
C827 C829 1.415 . S
C828 C827 1.355 . S
C828 C830 1.419 . S
C829 C824 1.425 . S
C829 C826 1.409 . S
C829 C827 1.415 . S
C830 H820 0.930 . S
C830 C828 1.419 . S
C830 C831 1.362 . S
C831 H821 0.930 . S
C831 C824 1.409 . S
C831 C830 1.362 . S
H832 C838 0.930 . S
H833 C841 0.930 . S
H834 C842 0.930 . S
H835 C843 0.930 . S
H836 C846 0.930 . S
H837 C847 0.930 . S
C838 H832 0.930 . S
C838 C839 1.355 . S
C838 C840 1.415 . S
C839 C838 1.355 . S
C839 C841 1.419 . S
C840 C838 1.415 . S
C840 C845 1.425 . S
C840 C847 1.409 . S
C841 H833 0.930 . S
C841 C839 1.419 . S
C841 C842 1.362 . S
C842 H834 0.930 . S
C842 C841 1.362 . S
C842 C845 1.409 . S
C843 H835 0.930 . S
C843 C844 1.355 . S
C843 C845 1.415 . S
C844 C843 1.355 . S
C844 C846 1.419 . S
C845 C840 1.425 . S
C845 C842 1.409 . S
C845 C843 1.415 . S
C846 H836 0.930 . S
C846 C844 1.419 . S
C846 C847 1.362 . S
C847 H837 0.930 . S
C847 C840 1.409 . S
C847 C846 1.362 . S
H848 C854 0.930 . S
H849 C857 0.930 . S
H850 C858 0.930 . S
H851 C859 0.930 . S
H852 C862 0.930 . S
H853 C863 0.930 . S
C854 H848 0.930 . S
C854 C855 1.355 . S
C854 C856 1.415 . S
C855 C854 1.355 . S
C855 C857 1.419 . S
C856 C854 1.415 . S
C856 C861 1.425 . S
C856 C863 1.409 . S
C857 H849 0.930 . S
C857 C855 1.419 . S
C857 C858 1.362 . S
C858 H850 0.930 . S
C858 C857 1.362 . S
C858 C861 1.409 . S
C859 H851 0.930 . S
C859 C860 1.355 . S
C859 C861 1.415 . S
C860 C859 1.355 . S
C860 C862 1.419 . S
C861 C856 1.425 . S
C861 C858 1.409 . S
C861 C859 1.415 . S
C862 H852 0.930 . S
C862 C860 1.419 . S
C862 C863 1.362 . S
C863 H853 0.930 . S
C863 C856 1.409 . S
C863 C862 1.362 . S
H864 C870 0.930 . S
H865 C873 0.930 . S
H866 C874 0.930 . S
H867 C875 0.930 . S
H868 C878 0.930 . S
H869 C879 0.930 . S
C870 H864 0.930 . S
C870 C871 1.355 . S
C870 C872 1.415 . S
C871 C870 1.355 . S
C871 C873 1.419 . S
C872 C870 1.415 . S
C872 C877 1.425 . S
C872 C879 1.409 . S
C873 H865 0.930 . S
C873 C871 1.419 . S
C873 C874 1.362 . S
C874 H866 0.930 . S
C874 C873 1.362 . S
C874 C877 1.409 . S
C875 H867 0.930 . S
C875 C876 1.355 . S
C875 C877 1.415 . S
C876 C875 1.355 . S
C876 C878 1.419 . S
C877 C872 1.425 . S
C877 C874 1.409 . S
C877 C875 1.415 . S
C878 H868 0.930 . S
C878 C876 1.419 . S
C878 C879 1.362 . S
C879 H869 0.930 . S
C879 C872 1.409 . S
C879 C878 1.362 . S
H880 C886 0.930 . S
H881 C889 0.930 . S
H882 C890 0.930 . S
H883 C891 0.930 . S
H884 C894 0.930 . S
H885 C895 0.930 . S
C886 H880 0.930 . S
C886 C887 1.355 . S
C886 C888 1.415 . S
C887 C886 1.355 . S
C887 C889 1.419 . S
C888 C886 1.415 . S
C888 C893 1.425 . S
C888 C895 1.409 . S
C889 H881 0.930 . S
C889 C887 1.419 . S
C889 C890 1.362 . S
C890 H882 0.930 . S
C890 C889 1.362 . S
C890 C893 1.409 . S
C891 H883 0.930 . S
C891 C892 1.355 . S
C891 C893 1.415 . S
C892 C891 1.355 . S
C892 C894 1.419 . S
C893 C888 1.425 . S
C893 C890 1.409 . S
C893 C891 1.415 . S
C894 H884 0.930 . S
C894 C892 1.419 . S
C894 C895 1.362 . S
C895 H885 0.930 . S
C895 C888 1.409 . S
C895 C894 1.362 . S
H896 C902 0.930 . S
H897 C905 0.930 . S
H898 C906 0.930 . S
H899 C907 0.930 . S
H900 C910 0.930 . S
H901 C911 0.930 . S
C902 H896 0.930 . S
C902 C903 1.355 . S
C902 C904 1.415 . S
C903 C902 1.355 . S
C903 C905 1.419 . S
C904 C902 1.415 . S
C904 C909 1.425 . S
C904 C911 1.409 . S
C905 H897 0.930 . S
C905 C903 1.419 . S
C905 C906 1.362 . S
C906 H898 0.930 . S
C906 C905 1.362 . S
C906 C909 1.409 . S
C907 H899 0.930 . S
C907 C908 1.355 . S
C907 C909 1.415 . S
C908 C907 1.355 . S
C908 C910 1.419 . S
C909 C904 1.425 . S
C909 C906 1.409 . S
C909 C907 1.415 . S
C910 H900 0.930 . S
C910 C908 1.419 . S
C910 C911 1.362 . S
C911 H901 0.930 . S
C911 C904 1.409 . S
C911 C910 1.362 . S
H912 C918 0.930 . S
H913 C921 0.930 . S
H914 C922 0.930 . S
H915 C923 0.930 . S
H916 C926 0.930 . S
H917 C927 0.930 . S
C918 H912 0.930 . S
C918 C919 1.355 . S
C918 C920 1.415 . S
C919 C918 1.355 . S
C919 C921 1.419 . S
C920 C918 1.415 . S
C920 C925 1.425 . S
C920 C927 1.409 . S
C921 H913 0.930 . S
C921 C919 1.419 . S
C921 C922 1.362 . S
C922 H914 0.930 . S
C922 C921 1.362 . S
C922 C925 1.409 . S
C923 H915 0.930 . S
C923 C924 1.355 . S
C923 C925 1.415 . S
C924 C923 1.355 . S
C924 C926 1.419 . S
C925 C920 1.425 . S
C925 C922 1.409 . S
C925 C923 1.415 . S
C926 H916 0.930 . S
C926 C924 1.419 . S
C926 C927 1.362 . S
C927 H917 0.930 . S
C927 C920 1.409 . S
C927 C926 1.362 . S
H928 C934 0.930 . S
H929 C937 0.930 . S
H930 C938 0.930 . S
H931 C939 0.930 . S
H932 C942 0.930 . S
H933 C943 0.930 . S
C934 H928 0.930 . S
C934 C935 1.355 . S
C934 C936 1.415 . S
C935 C934 1.355 . S
C935 C937 1.419 . S
C936 C934 1.415 . S
C936 C941 1.425 . S
C936 C943 1.409 . S
C937 H929 0.930 . S
C937 C935 1.419 . S
C937 C938 1.362 . S
C938 H930 0.930 . S
C938 C937 1.362 . S
C938 C941 1.409 . S
C939 H931 0.930 . S
C939 C940 1.355 . S
C939 C941 1.415 . S
C940 C939 1.355 . S
C940 C942 1.419 . S
C941 C936 1.425 . S
C941 C938 1.409 . S
C941 C939 1.415 . S
C942 H932 0.930 . S
C942 C940 1.419 . S
C942 C943 1.362 . S
C943 H933 0.930 . S
C943 C936 1.409 . S
C943 C942 1.362 . S
H944 C950 0.930 . S
H945 C953 0.930 . S
H946 C954 0.930 . S
H947 C955 0.930 . S
H948 C958 0.930 . S
H949 C959 0.930 . S
C950 H944 0.930 . S
C950 C951 1.355 . S
C950 C952 1.415 . S
C951 C950 1.355 . S
C951 C953 1.419 . S
C952 C950 1.415 . S
C952 C957 1.425 . S
C952 C959 1.409 . S
C953 H945 0.930 . S
C953 C951 1.419 . S
C953 C954 1.362 . S
C954 H946 0.930 . S
C954 C953 1.362 . S
C954 C957 1.409 . S
C955 H947 0.930 . S
C955 C956 1.355 . S
C955 C957 1.415 . S
C956 C955 1.355 . S
C956 C958 1.419 . S
C957 C952 1.425 . S
C957 C954 1.409 . S
C957 C955 1.415 . S
C958 H948 0.930 . S
C958 C956 1.419 . S
C958 C959 1.362 . S
C959 H949 0.930 . S
C959 C952 1.409 . S
C959 C958 1.362 . S
H960 C966 0.930 . S
H961 C969 0.930 . S
H962 C970 0.930 . S
H963 C971 0.930 . S
H964 C974 0.930 . S
H965 C975 0.930 . S
C966 H960 0.930 . S
C966 C967 1.355 . S
C966 C968 1.415 . S
C967 C966 1.355 . S
C967 C969 1.419 . S
C968 C966 1.415 . S
C968 C973 1.425 1_556 S
C968 C975 1.409 . S
C969 H961 0.930 . S
C969 C967 1.419 . S
C969 C970 1.362 1_556 S
C970 H962 0.930 . S
C970 C969 1.362 1_554 S
C970 C973 1.409 . S
C971 H963 0.930 . S
C971 C972 1.355 . S
C971 C973 1.415 . S
C972 C971 1.355 . S
C972 C974 1.419 . S
C973 C968 1.425 1_554 S
C973 C970 1.409 . S
C973 C971 1.415 . S
C974 H964 0.930 . S
C974 C972 1.419 . S
C974 C975 1.362 1_554 S
C975 H965 0.930 . S
C975 C968 1.409 . S
C975 C974 1.362 1_556 S
H976 C982 0.930 . S
H977 C985 0.930 . S
H978 C986 0.930 . S
H979 C987 0.930 . S
H980 C990 0.930 . S
H981 C991 0.930 . S
C982 H976 0.930 . S
C982 C983 1.355 . S
C982 C984 1.415 . S
C983 C982 1.355 . S
C983 C985 1.419 . S
C984 C982 1.415 . S
C984 C989 1.425 1_455 S
C984 C991 1.409 1_455 S
C985 H977 0.930 . S
C985 C983 1.419 . S
C985 C986 1.362 . S
C986 H978 0.930 . S
C986 C985 1.362 . S
C986 C989 1.409 1_455 S
C987 H979 0.930 . S
C987 C988 1.355 . S
C987 C989 1.415 . S
C988 C987 1.355 . S
C988 C990 1.419 . S
C989 C984 1.425 1_655 S
C989 C986 1.409 1_655 S
C989 C987 1.415 . S
C990 H980 0.930 . S
C990 C988 1.419 . S
C990 C991 1.362 . S
C991 H981 0.930 . S
C991 C984 1.409 1_655 S
C991 C990 1.362 . S
H992 C998 0.930 . S
H993 C1001 0.930 . S
H994 C1002 0.930 . S
H995 C1003 0.930 . S
H996 C1006 0.930 . S
H997 C1007 0.930 . S
C998 H992 0.930 . S
C998 C999 1.355 . S
C998 C1000 1.415 . S
C999 C998 1.355 . S
C999 C1001 1.419 . S
C1000 C998 1.415 . S
C1000 C1005 1.425 1_564 S
C1000 C1007 1.409 1_565 S
C1001 H993 0.930 . S
C1001 C999 1.419 . S
C1001 C1002 1.362 1_554 S
C1002 H994 0.930 . S
C1002 C1001 1.362 1_556 S
C1002 C1005 1.409 1_565 S
C1003 H995 0.930 . S
C1003 C1004 1.355 . S
C1003 C1005 1.415 . S
C1004 C1003 1.355 . S
C1004 C1006 1.419 . S
C1005 C1000 1.425 1_546 S
C1005 C1002 1.409 1_545 S
C1005 C1003 1.415 . S
C1006 H996 0.930 . S
C1006 C1004 1.419 . S
C1006 C1007 1.362 1_556 S
C1007 H997 0.930 . S
C1007 C1000 1.409 1_545 S
C1007 C1006 1.362 1_554 S
H1008 C1014 0.930 . S
H1009 C1017 0.930 . S
H1010 C1018 0.930 . S
H1011 C1019 0.930 . S
H1012 C1022 0.930 . S
H1013 C1023 0.930 . S
C1014 H1008 0.930 . S
C1014 C1015 1.355 . S
C1014 C1016 1.415 . S
C1015 C1014 1.355 . S
C1015 C1017 1.419 . S
C1016 C1014 1.415 . S
C1016 C1021 1.425 . S
C1016 C1023 1.409 . S
C1017 H1009 0.930 . S
C1017 C1015 1.419 . S
C1017 C1018 1.362 . S
C1018 H1010 0.930 . S
C1018 C1017 1.362 . S
C1018 C1021 1.409 . S
C1019 H1011 0.930 . S
C1019 C1020 1.355 . S
C1019 C1021 1.415 . S
C1020 C1019 1.355 . S
C1020 C1022 1.419 . S
C1021 C1016 1.425 . S
C1021 C1018 1.409 . S
C1021 C1019 1.415 . S
C1022 H1012 0.930 . S
C1022 C1020 1.419 . S
C1022 C1023 1.362 . S
C1023 H1013 0.930 . S
C1023 C1016 1.409 . S
C1023 C1022 1.362 . S
H1024 C1030 0.923 1_554 S
H1025 C1033 0.930 . S
H1026 C1034 0.930 . S
H1027 C1035 0.923 1_556 S
H1028 C1038 0.930 . S
H1029 C1039 0.930 . S
C1030 H1024 0.923 1_556 S
C1030 C1031 1.364 . S
C1030 C1032 1.411 1_556 S
C1031 C1030 1.364 . S
C1031 C1033 1.419 . S
C1032 C1030 1.411 1_554 S
C1032 C1037 1.425 1_654 S
C1032 C1039 1.409 . S
C1033 H1025 0.930 . S
C1033 C1031 1.419 . S
C1033 C1034 1.362 1_655 S
C1034 H1026 0.930 . S
C1034 C1033 1.362 1_455 S
C1034 C1037 1.409 . S
C1035 H1027 0.923 1_554 S
C1035 C1036 1.364 . S
C1035 C1037 1.411 1_554 S
C1036 C1035 1.364 . S
C1036 C1038 1.419 . S
C1037 C1032 1.425 1_456 S
C1037 C1034 1.409 . S
C1037 C1035 1.411 1_556 S
C1038 H1028 0.930 . S
C1038 C1036 1.419 . S
C1038 C1039 1.362 1_455 S
C1039 H1029 0.930 . S
C1039 C1032 1.409 . S
C1039 C1038 1.362 1_655 S
H1040 C1046 0.930 . S
H1041 C1049 0.930 . S
H1042 C1050 0.930 1_545 S
H1043 C1051 0.930 . S
H1044 C1054 0.930 . S
H1045 C1055 0.930 1_565 S
C1046 H1040 0.930 . S
C1046 C1047 1.355 . S
C1046 C1048 1.415 . S
C1047 C1046 1.355 . S
C1047 C1049 1.419 . S
C1048 C1046 1.415 . S
C1048 C1053 1.425 1_565 S
C1048 C1055 1.409 1_565 S
C1049 H1041 0.930 . S
C1049 C1047 1.419 . S
C1049 C1050 1.362 . S
C1050 H1042 0.930 1_565 S
C1050 C1049 1.362 . S
C1050 C1053 1.409 1_565 S
C1051 H1043 0.930 . S
C1051 C1052 1.355 . S
C1051 C1053 1.415 . S
C1052 C1051 1.355 . S
C1052 C1054 1.419 . S
C1053 C1048 1.425 1_545 S
C1053 C1050 1.409 1_545 S
C1053 C1051 1.415 . S
C1054 H1044 0.930 . S
C1054 C1052 1.419 . S
C1054 C1055 1.362 . S
C1055 H1045 0.930 1_545 S
C1055 C1048 1.409 1_545 S
C1055 C1054 1.362 . S
C487 C163 1.361 . S
C492 C26 1.361 . S
C503 C203 1.345 . S
C508 C66 1.364 . S
C519 C106 1.350 . S
C524 C3 1.356 . S
C535 C146 1.339 . S
C540 C43 1.329 . S
C551 C186 1.355 . S
C556 C83 1.319 . S
C567 C123 1.315 . S
C572 C226 1.353 . S
C583 C323 1.360 . S
C588 C266 1.354 . S
C599 C306 1.340 . S
C604 C363 1.310 . S
C615 C403 1.322 . S
C620 C346 1.357 . S
C631 C386 1.359 . S
C636 C443 1.362 . S
C647 C426 1.360 . S
C652 C243 1.327 . S
C663 C283 1.326 . S
C668 C466 1.338 . S
C679 C182 1.776 . S
C684 C9 1.746 . S
C695 C49 1.741 . S
C700 C222 1.773 . S
C711 C89 1.750 . S
C716 C22 1.781 . S
C727 C129 1.748 . S
C732 C62 1.783 . S
C743 C102 1.755 . S
C748 C169 1.708 . S
C759 C142 1.762 . S
C764 C209 1.722 . S
C775 C342 1.783 . S
C780 C249 1.748 . S
C791 C289 1.750 . S
C796 C382 1.783 . S
C807 C329 1.693 . S
C812 C422 1.757 . S
C823 C462 1.774 . S
C828 C369 1.722 . S
C839 C409 1.750 . S
C844 C262 1.783 . S
C855 C302 1.752 . S
C860 C449 1.688 . S
C871 C415 1.678 . S
C876 C15 1.650 . S
C887 C55 1.664 . S
C892 C455 1.626 . S
C903 C95 1.634 . S
C908 C255 1.669 . S
C919 C135 1.668 . S
C924 C295 1.631 . S
C935 C175 1.610 . S
C940 C335 1.598 . S
C951 C375 1.606 . S
C956 C215 1.641 . S
C967 C362 2.210 . S
C972 C2 2.213 . S
C983 C402 2.209 . S
C988 C42 2.212 . S
C999 C82 2.209 . S
C1004 C442 2.206 . S
C1015 C122 2.189 . S
C1020 C242 2.190 . S
C1031 C282 2.189 . S
C1036 C162 2.190 . S
C1047 C322 2.196 . S
C1052 C202 2.199 . S
