# Generated by pormake.
# Topology wna, (6)-cn, num edge types: 1
# Building blocks:
#     Node 0, Type 0, BuildingBlock: LEVNOQ01_clean_sbu_1, # of connection points: 6
#     Node 1, Type 0, BuildingBlock: LEVNOQ01_clean_sbu_1, # of connection points: 6
#     Node 2, Type 0, BuildingBlock: LEVNOQ01_clean_sbu_1, # of connection points: 6
#     Node 3, Type 0, BuildingBlock: LEVNOQ01_clean_sbu_1, # of connection points: 6
#     Node 4, Type 0, BuildingBlock: LEVNOQ01_clean_sbu_1, # of connection points: 6
#     Node 5, Type 0, BuildingBlock: LEVNOQ01_clean_sbu_1, # of connection points: 6
#     Node 6, Type 0, BuildingBlock: LEVNOQ01_clean_sbu_1, # of connection points: 6
#     Node 7, Type 0, BuildingBlock: LEVNOQ01_clean_sbu_1, # of connection points: 6
#     Node 8, Type 0, BuildingBlock: LEVNOQ01_clean_sbu_1, # of connection points: 6
#     Node 9, Type 0, BuildingBlock: LEVNOQ01_clean_sbu_1, # of connection points: 6
#     Node 10, Type 0, BuildingBlock: LEVNOQ01_clean_sbu_1, # of connection points: 6
#     Node 11, Type 0, BuildingBlock: LEVNOQ01_clean_sbu_1, # of connection points: 6
#     Node 12, Type 0, BuildingBlock: LEVNOQ01_clean_sbu_1, # of connection points: 6
#     Node 13, Type 0, BuildingBlock: LEVNOQ01_clean_sbu_1, # of connection points: 6
#     Node 14, Type 0, BuildingBlock: LEVNOQ01_clean_sbu_1, # of connection points: 6
#     Node 15, Type 0, BuildingBlock: LEVNOQ01_clean_sbu_1, # of connection points: 6
#     Node 16, Type 0, BuildingBlock: LEVNOQ01_clean_sbu_1, # of connection points: 6
#     Node 17, Type 0, BuildingBlock: LEVNOQ01_clean_sbu_1, # of connection points: 6
#     Node 18, Type 0, BuildingBlock: LEVNOQ01_clean_sbu_1, # of connection points: 6
#     Node 19, Type 0, BuildingBlock: LEVNOQ01_clean_sbu_1, # of connection points: 6
#     Node 20, Type 0, BuildingBlock: LEVNOQ01_clean_sbu_1, # of connection points: 6
#     Node 21, Type 0, BuildingBlock: LEVNOQ01_clean_sbu_1, # of connection points: 6
#     Node 22, Type 0, BuildingBlock: LEVNOQ01_clean_sbu_1, # of connection points: 6
#     Node 23, Type 0, BuildingBlock: LEVNOQ01_clean_sbu_1, # of connection points: 6
#     Node 24, Type 0, BuildingBlock: LEVNOQ01_clean_sbu_1, # of connection points: 6
#     Node 25, Type 0, BuildingBlock: LEVNOQ01_clean_sbu_1, # of connection points: 6
#     Node 26, Type 0, BuildingBlock: LEVNOQ01_clean_sbu_1, # of connection points: 6
#     Node 27, Type 0, BuildingBlock: LEVNOQ01_clean_sbu_1, # of connection points: 6
#     Node 28, Type 0, BuildingBlock: LEVNOQ01_clean_sbu_1, # of connection points: 6
#     Node 29, Type 0, BuildingBlock: LEVNOQ01_clean_sbu_1, # of connection points: 6
#     Node 30, Type 0, BuildingBlock: LEVNOQ01_clean_sbu_1, # of connection points: 6
#     Node 31, Type 0, BuildingBlock: LEVNOQ01_clean_sbu_1, # of connection points: 6
#     Node 32, Type 0, BuildingBlock: LEVNOQ01_clean_sbu_1, # of connection points: 6
#     Node 33, Type 0, BuildingBlock: LEVNOQ01_clean_sbu_1, # of connection points: 6
#     Node 34, Type 0, BuildingBlock: LEVNOQ01_clean_sbu_1, # of connection points: 6
#     Node 35, Type 0, BuildingBlock: LEVNOQ01_clean_sbu_1, # of connection points: 6
#     Edge 36, Type (0, 0), None
#     Edge 37, Type (0, 0), None
#     Edge 38, Type (0, 0), None
#     Edge 39, Type (0, 0), None
#     Edge 40, Type (0, 0), None
#     Edge 41, Type (0, 0), None
#     Edge 42, Type (0, 0), None
#     Edge 43, Type (0, 0), None
#     Edge 44, Type (0, 0), None
#     Edge 45, Type (0, 0), None
#     Edge 46, Type (0, 0), None
#     Edge 47, Type (0, 0), None
#     Edge 48, Type (0, 0), None
#     Edge 49, Type (0, 0), None
#     Edge 50, Type (0, 0), None
#     Edge 51, Type (0, 0), None
#     Edge 52, Type (0, 0), None
#     Edge 53, Type (0, 0), None
#     Edge 54, Type (0, 0), None
#     Edge 55, Type (0, 0), None
#     Edge 56, Type (0, 0), None
#     Edge 57, Type (0, 0), None
#     Edge 58, Type (0, 0), None
#     Edge 59, Type (0, 0), None
#     Edge 60, Type (0, 0), None
#     Edge 61, Type (0, 0), None
#     Edge 62, Type (0, 0), None
#     Edge 63, Type (0, 0), None
#     Edge 64, Type (0, 0), None
#     Edge 65, Type (0, 0), None
#     Edge 66, Type (0, 0), None
#     Edge 67, Type (0, 0), None
#     Edge 68, Type (0, 0), None
#     Edge 69, Type (0, 0), None
#     Edge 70, Type (0, 0), None
#     Edge 71, Type (0, 0), None
#     Edge 72, Type (0, 0), None
#     Edge 73, Type (0, 0), None
#     Edge 74, Type (0, 0), None
#     Edge 75, Type (0, 0), None
#     Edge 76, Type (0, 0), None
#     Edge 77, Type (0, 0), None
#     Edge 78, Type (0, 0), None
#     Edge 79, Type (0, 0), None
#     Edge 80, Type (0, 0), None
#     Edge 81, Type (0, 0), None
#     Edge 82, Type (0, 0), None
#     Edge 83, Type (0, 0), None
#     Edge 84, Type (0, 0), None
#     Edge 85, Type (0, 0), None
#     Edge 86, Type (0, 0), None
#     Edge 87, Type (0, 0), None
#     Edge 88, Type (0, 0), None
#     Edge 89, Type (0, 0), None
#     Edge 90, Type (0, 0), None
#     Edge 91, Type (0, 0), None
#     Edge 92, Type (0, 0), None
#     Edge 93, Type (0, 0), None
#     Edge 94, Type (0, 0), None
#     Edge 95, Type (0, 0), None
#     Edge 96, Type (0, 0), None
#     Edge 97, Type (0, 0), None
#     Edge 98, Type (0, 0), None
#     Edge 99, Type (0, 0), None
#     Edge 100, Type (0, 0), None
#     Edge 101, Type (0, 0), None
#     Edge 102, Type (0, 0), None
#     Edge 103, Type (0, 0), None
#     Edge 104, Type (0, 0), None
#     Edge 105, Type (0, 0), None
#     Edge 106, Type (0, 0), None
#     Edge 107, Type (0, 0), None
#     Edge 108, Type (0, 0), None
#     Edge 109, Type (0, 0), None
#     Edge 110, Type (0, 0), None
#     Edge 111, Type (0, 0), None
#     Edge 112, Type (0, 0), None
#     Edge 113, Type (0, 0), None
#     Edge 114, Type (0, 0), None
#     Edge 115, Type (0, 0), None
#     Edge 116, Type (0, 0), None
#     Edge 117, Type (0, 0), None
#     Edge 118, Type (0, 0), None
#     Edge 119, Type (0, 0), None
#     Edge 120, Type (0, 0), None
#     Edge 121, Type (0, 0), None
#     Edge 122, Type (0, 0), None
#     Edge 123, Type (0, 0), None
#     Edge 124, Type (0, 0), None
#     Edge 125, Type (0, 0), None
#     Edge 126, Type (0, 0), None
#     Edge 127, Type (0, 0), None
#     Edge 128, Type (0, 0), None
#     Edge 129, Type (0, 0), None
#     Edge 130, Type (0, 0), None
#     Edge 131, Type (0, 0), None
#     Edge 132, Type (0, 0), None
#     Edge 133, Type (0, 0), None
#     Edge 134, Type (0, 0), None
#     Edge 135, Type (0, 0), None
#     Edge 136, Type (0, 0), None
#     Edge 137, Type (0, 0), None
#     Edge 138, Type (0, 0), None
#     Edge 139, Type (0, 0), None
#     Edge 140, Type (0, 0), None
#     Edge 141, Type (0, 0), None
#     Edge 142, Type (0, 0), None
#     Edge 143, Type (0, 0), None
# Relax obj value: 0.256
# Max RMSD: 0.226
# Mean RMSD: 0.226
data_MOF--net-wna--node1-LEVNOQ01_clean_sbu_1--edge1-none
_symmetry_space_group_name_H-M    P1
_symmetry_Int_Tables_number       1
_symmetry_cell_setting            triclinic
loop_
_symmetry_equiv_pos_as_xyz
'x, y, z'
_cell_length_a     19.474082
_cell_length_b     19.348651
_cell_length_c     42.000684
_cell_angle_alpha  89.767927
_cell_angle_beta   89.348677
_cell_angle_gamma 119.68
loop_
_atom_site_label
_atom_site_type_symbol
_atom_site_fract_x
_atom_site_fract_y
_atom_site_fract_z
_atom_type_partial_charge
O0 O 0.15656 0.08278 0.18264 0.0
Mg1 Mg 0.16357 0.18112 0.20914 0.0
O2 O 0.12367 0.13235 0.1432 0.0
Mg3 Mg 0.08947 0.22253 0.1613 0.0
O4 O 0.19957 0.29483 0.18897 0.0
O5 O 0.28229 0.25782 0.20743 0.0
O6 O 0.04604 0.31453 0.16601 0.0
O7 O 0.16671 0.29197 0.11808 0.0
Mg8 Mg 0.00719 0.21574 0.09308 0.0
O9 O -0.01624 0.15624 0.1348 0.0
O10 O 0.05824 0.33307 0.11428 0.0
O11 O 0.1095 0.20983 0.07882 0.0
O12 O 0.88911 0.11303 0.10141 0.0
C13 C 0.01631 0.14573 0.23698 0.0
C14 C 0.14498 0.08472 0.15332 0.0
C15 C 0.27054 0.30665 0.19061 0.0
C16 C 0.03604 0.34605 0.14081 0.0
C17 C 0.16717 0.2741 0.08895 0.0
C18 C 0.91285 0.10565 0.12892 0.0
O19 O 0.08322 0.16163 0.24737 0.0
O20 O 0.00848 0.15565 0.20728 0.0
O21 O 0.88079 0.03125 0.17857 0.0
Mg22 Mg 0.76626 0.95185 0.20312 0.0
O23 O 0.79085 -0.0031 0.14412 0.0
Mg24 Mg 0.73706 0.86752 0.16007 0.0
O25 O 0.64522 0.88103 0.18728 0.0
O26 O 0.70313 0.00931 0.20021 0.0
O27 O 0.67264 0.73001 0.15628 0.0
O28 O 0.66123 0.85979 0.1185 0.0
Mg29 Mg 0.79164 0.84119 0.08929 0.0
O30 O 0.83305 0.87151 0.13291 0.0
O31 O 0.70539 0.72512 0.10489 0.0
O32 O 0.74146 0.91465 0.07763 0.0
O33 O 0.91125 0.8681 0.09662 0.0
C34 C 0.80489 0.86278 0.23632 0.0
C35 C 0.86009 0.04396 0.15192 0.0
C36 C 0.64311 0.94676 0.18933 0.0
C37 C 0.66813 0.69154 0.13065 0.0
C38 C 0.67309 0.88696 0.09028 0.0
C39 C 0.89795 0.87392 0.1263 0.0
O40 O 0.7751 0.90319 0.24676 0.0
O41 O 0.80619 0.85311 0.2061 0.0
O42 O 0.94857 0.8853 0.17943 0.0
Mg43 Mg 0.00388 0.82516 0.20438 0.0
O44 O -0.01239 0.83585 0.14281 0.0
Mg45 Mg 0.10122 0.8595 0.16433 0.0
O46 O 0.04114 0.74052 0.19128 0.0
O47 O 0.91847 0.71094 0.20572 0.0
O48 O 0.23343 0.89325 0.16936 0.0
O49 O 0.08781 0.7796 0.12117 0.0
Mg50 Mg 0.17862 0.94413 0.09385 0.0
O51 O 0.14692 0.96712 0.13649 0.0
O52 O 0.23287 0.88289 0.11775 0.0
O53 O 0.06797 0.8434 0.08218 0.0
O54 O 0.18776 0.06161 0.10214 0.0
C55 C 0.10588 0.93945 0.23901 0.0
C56 C 0.94772 0.86744 0.15065 0.0
C57 C 0.96728 0.68851 0.1963 0.0
C58 C 0.27192 0.91041 0.14277 0.0
C59 C 0.07079 0.78253 0.09209 0.0
C60 C 0.16099 0.03688 0.13036 0.0
O61 O 0.05033 0.87383 0.24875 0.0
O62 O 0.12536 0.94775 0.20939 0.0
O63 O 0.05362 0.08197 0.31873 0.0
Mg64 Mg 0.17041 0.12813 0.29418 0.0
O65 O 0.14469 0.15384 0.35073 0.0
Mg66 Mg 0.21159 0.09248 0.3345 0.0
O67 O 0.29314 0.20433 0.30592 0.0
O68 O 0.20783 0.24357 0.29056 0.0
O69 O 0.28971 0.03394 0.33868 0.0
O70 O 0.28576 0.16921 0.37485 0.0
Mg71 Mg 0.16889 0.01408 0.4065 0.0
O72 O 0.12498 -0.00292 0.36317 0.0
O73 O 0.2672 0.0027 0.391 0.0
O74 O 0.20435 0.13611 0.4158 0.0
O75 O 0.05255 0.91139 0.39923 0.0
C76 C 0.14175 0.00728 0.26086 0.0
C77 C 0.0731 0.11945 0.34447 0.0
C78 C 0.27724 0.2606 0.29949 0.0
C79 C 0.30289 0.0072 0.36473 0.0
C80 C 0.27131 0.18262 0.40294 0.0
C81 C 0.06218 0.93274 0.36977 0.0
O82 O 0.16696 0.07648 0.25015 0.0
O83 O 0.14253 -0.00252 0.29104 0.0
O84 O 0.86885 0.95948 0.31937 0.0
Mg85 Mg 0.82423 0.02932 0.29363 0.0
O86 O 0.79643 -0.01794 0.35092 0.0
Mg87 Mg 0.85909 0.10922 0.33317 0.0
O88 O 0.74959 0.08051 0.30493 0.0
O89 O 0.70803 0.95359 0.29292 0.0
O90 O 0.91664 0.24595 0.33624 0.0
O91 O 0.78248 0.10998 0.37474 0.0
Mg92 Mg 0.93208 0.14317 0.40419 0.0
O93 O 0.95395 0.11788 0.36107 0.0
O94 O 0.94088 0.25259 0.3888 0.0
O95 O 0.81202 0.05434 0.41365 0.0
O96 O 0.03636 0.13183 0.39788 0.0
C97 C 0.94694 0.11427 0.259 0.0
C98 C 0.83016 0.9432 0.3451 0.0
C99 C 0.69241 0.00835 0.30085 0.0
C100 C 0.93897 0.28476 0.3625 0.0
C101 C 0.76839 0.08031 0.40272 0.0
C102 C 0.01822 0.12065 0.36829 0.0
O103 O 0.87856 0.06981 0.2486 0.0
O104 O 0.9545 0.12987 0.28889 0.0
O105 O -0.00586 0.90619 0.31959 0.0
Mg106 Mg 0.92587 0.79367 0.29313 0.0
O107 O 0.9671 0.8088 0.35066 0.0
Mg108 Mg 0.84164 0.74246 0.33192 0.0
O109 O 0.87516 0.66627 0.30223 0.0
O110 O 0.00191 0.75266 0.29103 0.0
O111 O 0.70532 0.66214 0.33494 0.0
O112 O 0.84038 0.66184 0.37224 0.0
Mg113 Mg 0.80045 0.77434 0.40388 0.0
O114 O 0.82828 0.82374 0.36131 0.0
O115 O 0.69391 0.67412 0.38777 0.0
O116 O 0.89052 0.74379 0.41199 0.0
O117 O 0.81053 0.89058 0.3983 0.0
C118 C 0.83912 0.82863 0.25854 0.0
C119 C 0.00691 0.88177 0.3454 0.0
C120 C 0.94732 0.68156 0.29767 0.0
C121 C 0.6643 0.64313 0.3611 0.0
C122 C 0.86792 0.67557 0.40021 0.0
C123 C 0.82482 0.88512 0.36875 0.0
O124 O 0.88937 0.81094 0.24841 0.0
O125 O 0.81953 0.81682 0.28822 0.0
O126 O 0.83066 0.75218 0.91529 0.0
Mg127 Mg 0.93298 0.7458 0.90141 0.0
O128 O 0.77296 0.67021 0.87601 0.0
Mg129 Mg 0.85096 0.7398 0.83294 0.0
O130 O 0.95626 0.80524 0.85973 0.0
O131 O 0.05133 0.84829 0.89286 0.0
O132 O 0.93203 0.80661 0.78702 0.0
O133 O 0.81783 0.83063 0.85092 0.0
Mg134 Mg 0.77536 0.78329 0.78429 0.0
O135 O 0.74217 0.67052 0.80451 0.0
O136 O 0.85772 0.80205 0.74688 0.0
O137 O 0.78589 0.88187 0.81172 0.0
O138 O 0.65653 0.70539 0.78851 0.0
C139 C 0.90347 0.61566 0.85351 0.0
C140 C 0.77285 0.68796 0.90518 0.0
C141 C 0.02735 0.85564 0.8654 0.0
C142 C 0.92436 0.81696 0.75734 0.0
C143 C 0.79749 0.87916 0.84101 0.0
C144 C 0.67065 0.65741 0.80473 0.0
O145 O 0.88117 0.62873 0.88 0.0
O146 O 0.89352 0.64706 0.82824 0.0
O147 O 0.19866 0.04733 0.91678 0.0
Mg148 Mg 0.14789 0.12029 0.9051 0.0
O149 O 0.27864 0.1016 0.87578 0.0
Mg150 Mg 0.20282 0.0941 0.83424 0.0
O151 O 0.10668 0.08956 0.86149 0.0
O152 O 0.02835 0.09354 0.89753 0.0
O153 O 0.13382 0.10881 0.78818 0.0
O154 O 0.14916 0.96455 0.85006 0.0
Mg155 Mg 0.17311 0.00927 0.79094 0.0
O156 O 0.29411 0.0805 0.80672 0.0
O157 O 0.16439 0.05838 0.74746 0.0
O158 O 0.05885 0.93022 0.81578 0.0
O159 O 0.23643 0.95203 0.79427 0.0
C160 C 0.27174 0.27021 0.86394 0.0
C161 C 0.26694 0.07483 0.90406 0.0
C162 C 0.04188 0.08755 0.8679 0.0
C163 C 0.13504 0.09916 0.75795 0.0
C164 C 0.07985 0.9174 0.84234 0.0
C165 C 0.29633 0.01476 0.8051 0.0
O166 O 0.23409 0.23646 0.88962 0.0
O167 O 0.26744 0.23186 0.83829 0.0
O168 O 0.87582 0.1212 0.91208 0.0
Mg169 Mg 0.76523 0.01964 0.90102 0.0
O170 O 0.85483 0.1843 0.87313 0.0
Mg171 Mg 0.84063 0.1039 0.82999 0.0
O172 O 0.79594 -0.00324 0.85815 0.0
O173 O 0.75637 0.90243 0.89252 0.0
O174 O 0.81541 0.0155 0.78473 0.0
O175 O 0.95577 0.12979 0.8508 0.0
Mg176 Mg 0.93743 0.1371 0.78953 0.0
O177 O 0.89912 0.22109 0.80237 0.0
O178 O 0.89077 0.08876 0.74524 0.0
O179 O -0.01014 0.0744 0.81489 0.0
O180 O 0.02282 0.25164 0.78949 0.0
C181 C 0.67057 0.05281 0.85248 0.0
C182 C 0.87191 0.18153 0.90222 0.0
C183 C 0.78233 0.92712 0.86421 0.0
C184 C 0.83475 0.0235 0.75507 0.0
C185 C -0.00706 0.09502 0.84341 0.0
C186 C -0.02677 0.2735 0.79846 0.0
O187 O 0.71021 0.08012 0.87737 0.0
O188 O 0.7082 0.06947 0.8257 0.0
O189 O 0.88667 0.8804 0.67564 0.0
Mg190 Mg 0.76971 0.83445 0.7001 0.0
O191 O 0.79582 0.80846 0.64358 0.0
Mg192 Mg 0.72885 0.86986 0.6597 0.0
O193 O 0.64715 0.75793 0.68829 0.0
O194 O 0.73253 0.71913 0.70401 0.0
O195 O 0.65079 0.92846 0.6554 0.0
O196 O 0.65461 0.79295 0.61941 0.0
Mg197 Mg 0.77171 0.94801 0.58765 0.0
O198 O 0.81558 0.96509 0.631 0.0
O199 O 0.67362 0.95981 0.6031 0.0
O200 O 0.73577 0.82581 0.57839 0.0
O201 O 0.88816 0.05058 0.59491 0.0
C202 C 0.79837 0.95559 0.73326 0.0
C203 C 0.86737 0.84288 0.64991 0.0
C204 C 0.66316 0.70183 0.69494 0.0
C205 C 0.6378 0.95529 0.62933 0.0
C206 C 0.66888 0.77938 0.59132 0.0
C207 C 0.87846 0.02936 0.62439 0.0
O208 O 0.77258 0.88638 0.74403 0.0
O209 O 0.79811 0.96526 0.70305 0.0
O210 O 0.07182 0.00252 0.67498 0.0
Mg211 Mg 0.11652 0.93271 0.70073 0.0
O212 O 0.14443 0.98017 0.64346 0.0
Mg213 Mg 0.08161 0.853 0.66116 0.0
O214 O 0.19108 0.88151 0.68935 0.0
O215 O 0.2327 0.00841 0.70145 0.0
O216 O 0.0239 0.71634 0.65818 0.0
O217 O 0.1583 0.85223 0.61951 0.0
Mg218 Mg 0.00868 0.81925 0.59029 0.0
O219 O -0.01334 0.84454 0.63338 0.0
O220 O -0.0002 0.70973 0.60562 0.0
O221 O 0.12877 0.90786 0.58058 0.0
O222 O 0.9044 0.83064 0.59651 0.0
C223 C -0.00625 0.84799 0.73534 0.0
C224 C 0.11059 0.01891 0.64925 0.0
C225 C 0.24827 0.95365 0.69345 0.0
C226 C 0.00159 0.67754 0.63192 0.0
C227 C 0.17263 0.88225 0.59158 0.0
C228 C 0.92242 0.84179 0.62611 0.0
O229 O 0.06219 0.89206 0.74576 0.0
O230 O -0.01382 0.83258 0.70544 0.0
O231 O 0.94651 0.0561 0.67458 0.0
Mg232 Mg 0.01476 0.16877 0.701 0.0
O233 O -0.02648 0.15337 0.64346 0.0
Mg234 Mg 0.09895 0.2197 0.66225 0.0
O235 O 0.06549 0.29612 0.69184 0.0
O236 O 0.93868 0.20976 0.70296 0.0
O237 O 0.2353 0.29995 0.65929 0.0
O238 O 0.10027 0.3002 0.62187 0.0
Mg239 Mg 0.14025 0.18758 0.5904 0.0
O240 O 0.11228 0.13825 0.63298 0.0
O241 O 0.24688 0.28774 0.60649 0.0
O242 O 0.05034 0.21828 0.58208 0.0
O243 O 0.13011 0.07135 0.59603 0.0
C244 C 0.10121 0.13369 0.73571 0.0
C245 C 0.93372 0.08042 0.64875 0.0
C246 C -0.00668 0.28086 0.69635 0.0
C247 C 0.27641 0.31884 0.63315 0.0
C248 C 0.0727 0.28642 0.59389 0.0
C249 C 0.11579 0.07687 0.62557 0.0
O250 O 0.05124 0.15179 0.7458 0.0
O251 O 0.12075 0.14526 0.70602 0.0
O252 O 0.82332 0.41614 0.51597 0.0
Mg253 Mg 0.8303 0.51446 0.54247 0.0
O254 O 0.79033 0.46566 0.47653 0.0
Mg255 Mg 0.75618 0.55588 0.49463 0.0
O256 O 0.86628 0.62817 0.52231 0.0
O257 O 0.94901 0.59119 0.54078 0.0
O258 O 0.71277 0.6479 0.49934 0.0
O259 O 0.83344 0.62529 0.45141 0.0
Mg260 Mg 0.67388 0.54909 0.4264 0.0
O261 O 0.65045 0.4896 0.46813 0.0
O262 O 0.72496 0.66641 0.4476 0.0
O263 O 0.77617 0.54312 0.41214 0.0
O264 O 0.55579 0.44639 0.43474 0.0
C265 C 0.683 0.47909 0.57031 0.0
C266 C 0.81167 0.41805 0.48665 0.0
C267 C 0.93726 0.64001 0.52396 0.0
C268 C 0.70275 0.6794 0.47413 0.0
C269 C 0.83386 0.60734 0.42229 0.0
C270 C 0.57953 0.43902 0.46226 0.0
O271 O 0.74992 0.49496 0.5807 0.0
O272 O 0.67518 0.48901 0.54061 0.0
O273 O 0.54746 0.36463 0.51191 0.0
Mg274 Mg 0.43292 0.28523 0.53645 0.0
O275 O 0.45753 0.33028 0.47745 0.0
Mg276 Mg 0.40372 0.2009 0.4934 0.0
O277 O 0.31188 0.21439 0.52062 0.0
O278 O 0.36977 0.34267 0.53355 0.0
O279 O 0.3393 0.06338 0.4896 0.0
O280 O 0.3279 0.1932 0.45184 0.0
Mg281 Mg 0.4583 0.17456 0.42262 0.0
O282 O 0.4997 0.20487 0.46623 0.0
O283 O 0.37203 0.05849 0.4382 0.0
O284 O 0.40815 0.24804 0.41095 0.0
O285 O 0.5779 0.20144 0.42995 0.0
C286 C 0.47154 0.19613 0.56964 0.0
C287 C 0.52677 0.37734 0.48526 0.0
C288 C 0.30975 0.28012 0.52268 0.0
C289 C 0.33479 0.02491 0.46397 0.0
C290 C 0.33981 0.22041 0.42362 0.0
C291 C 0.56459 0.20726 0.45963 0.0
O292 O 0.44176 0.23655 0.58008 0.0
O293 O 0.47285 0.18647 0.53942 0.0
O294 O 0.61519 0.2186 0.51276 0.0
Mg295 Mg 0.67052 0.15847 0.53771 0.0
O296 O 0.65426 0.16919 0.47613 0.0
Mg297 Mg 0.76787 0.19281 0.49766 0.0
O298 O 0.7078 0.07384 0.52461 0.0
O299 O 0.58512 0.04424 0.53906 0.0
O300 O 0.90008 0.22655 0.50268 0.0
O301 O 0.75442 0.11289 0.4545 0.0
Mg302 Mg 0.84526 0.27744 0.42716 0.0
O303 O 0.81358 0.30043 0.46981 0.0
O304 O 0.8995 0.21619 0.45106 0.0
O305 O 0.73458 0.17672 0.4155 0.0
O306 O 0.85441 0.39492 0.43546 0.0
C307 C 0.77255 0.27276 0.57233 0.0
C308 C 0.61436 0.20076 0.48398 0.0
C309 C 0.63395 0.02182 0.52964 0.0
C310 C 0.93855 0.24371 0.47609 0.0
C311 C 0.73735 0.11584 0.42544 0.0
C312 C 0.82766 0.3702 0.46368 0.0
O313 O 0.71698 0.20715 0.58207 0.0
O314 O 0.79202 0.28106 0.54271 0.0
O315 O 0.72028 0.41532 0.65206 0.0
Mg316 Mg 0.83706 0.4614 0.62752 0.0
O317 O 0.81137 0.48712 0.68407 0.0
Mg318 Mg 0.87828 0.42579 0.66783 0.0
O319 O 0.95979 0.53767 0.63925 0.0
O320 O 0.87442 0.5768 0.62387 0.0
O321 O 0.95644 0.36729 0.672 0.0
O322 O 0.95244 0.50252 0.70818 0.0
Mg323 Mg 0.83562 0.34737 0.73983 0.0
O324 O 0.7917 0.33037 0.6965 0.0
O325 O 0.93398 0.33607 0.72433 0.0
O326 O 0.87103 0.46939 0.74913 0.0
O327 O 0.71928 0.24469 0.73256 0.0
C328 C 0.80843 0.34058 0.59419 0.0
C329 C 0.73979 0.45279 0.6778 0.0
C330 C 0.94383 0.59389 0.63281 0.0
C331 C 0.9697 0.34066 0.69806 0.0
C332 C 0.93798 0.51592 0.73627 0.0
C333 C 0.72889 0.26604 0.7031 0.0
O334 O 0.83362 0.40978 0.58349 0.0
O335 O 0.80922 0.33077 0.62437 0.0
O336 O 0.53551 0.2928 0.6527 0.0
Mg337 Mg 0.49097 0.3627 0.62697 0.0
O338 O 0.46317 0.31547 0.68426 0.0
Mg339 Mg 0.5258 0.44261 0.6665 0.0
O340 O 0.41626 0.41383 0.63827 0.0
O341 O 0.37481 0.28693 0.62623 0.0
O342 O 0.5833 0.57933 0.66955 0.0
O343 O 0.44918 0.44335 0.70808 0.0
Mg344 Mg 0.5988 0.47661 0.73752 0.0
O345 O 0.62068 0.45131 0.6944 0.0
O346 O 0.6075 0.58599 0.72213 0.0
O347 O 0.47877 0.38774 0.74698 0.0
O348 O 0.7031 0.4653 0.73121 0.0
C349 C 0.61366 0.44764 0.59234 0.0
C350 C 0.49683 0.27654 0.67844 0.0
C351 C 0.35913 0.34165 0.63417 0.0
C352 C 0.60551 0.61811 0.69582 0.0
C353 C 0.43512 0.41369 0.73606 0.0
C354 C 0.68494 0.45408 0.70162 0.0
O355 O 0.54527 0.40315 0.58194 0.0
O356 O 0.62121 0.46327 0.62221 0.0
O357 O 0.66084 0.23955 0.65293 0.0
Mg358 Mg 0.59251 0.12704 0.62646 0.0
O359 O 0.6337 0.14215 0.684 0.0
Mg360 Mg 0.50826 0.07578 0.66525 0.0
O361 O 0.54185 -0.00036 0.63556 0.0
O362 O 0.66859 0.0861 0.62435 0.0
O363 O 0.37194 -0.00458 0.66824 0.0
O364 O 0.50701 -0.00483 0.70556 0.0
Mg365 Mg 0.46699 0.1076 0.73721 0.0
O366 O 0.49485 0.15702 0.69463 0.0
O367 O 0.3605 0.00732 0.72108 0.0
O368 O 0.55711 0.07713 0.74532 0.0
O369 O 0.47705 0.22383 0.73163 0.0
C370 C 0.50577 0.16198 0.59187 0.0
C371 C 0.67357 0.2151 0.67874 0.0
C372 C 0.61403 0.01498 0.63099 0.0
C373 C 0.33096 0.97631 0.69441 0.0
C374 C 0.53454 0.00891 0.73355 0.0
C375 C 0.49139 0.21841 0.70208 0.0
O376 O 0.55604 0.14433 0.58175 0.0
O377 O 0.48615 0.15015 0.62155 0.0
O378 O 0.49731 0.08552 0.24862 0.0
Mg379 Mg 0.59965 0.0792 0.23474 0.0
O380 O 0.43968 0.00353 0.20934 0.0
Mg381 Mg 0.51765 0.07315 0.16628 0.0
O382 O 0.62294 0.13863 0.19306 0.0
O383 O 0.71799 0.1817 0.2262 0.0
O384 O 0.59872 0.13998 0.12035 0.0
O385 O 0.48445 0.16392 0.18425 0.0
Mg386 Mg 0.4421 0.11659 0.11763 0.0
O387 O 0.40885 0.00381 0.13786 0.0
O388 O 0.52441 0.13536 0.08021 0.0
O389 O 0.45258 0.21519 0.14504 0.0
O390 O 0.32326 0.03877 0.1218 0.0
C391 C 0.5701 0.94897 0.18685 0.0
C392 C 0.43954 0.02128 0.23851 0.0
C393 C 0.69401 0.18904 0.19874 0.0
C394 C 0.59106 0.15031 0.09067 0.0
C395 C 0.46412 0.21246 0.17433 0.0
C396 C 0.33736 -0.00921 0.13804 0.0
O397 O 0.54797 0.96208 0.21337 0.0
O398 O 0.56027 0.98047 0.16159 0.0
O399 O 0.86532 0.38069 0.25011 0.0
Mg400 Mg 0.81455 0.45366 0.23843 0.0
O401 O 0.9453 0.43496 0.20911 0.0
Mg402 Mg 0.86948 0.42745 0.16757 0.0
O403 O 0.77335 0.42292 0.19482 0.0
O404 O 0.69501 0.42689 0.23087 0.0
O405 O 0.80048 0.44217 0.12151 0.0
O406 O 0.81583 0.29791 0.18339 0.0
Mg407 Mg 0.83976 0.34263 0.12426 0.0
O408 O 0.96075 0.41384 0.14004 0.0
O409 O 0.83104 0.39175 0.08078 0.0
O410 O 0.72551 0.26361 0.14911 0.0
O411 O 0.90305 0.28536 0.12758 0.0
C412 C 0.93845 0.60355 0.19727 0.0
C413 C 0.9336 0.40819 0.23739 0.0
C414 C 0.70854 0.4209 0.20123 0.0
C415 C 0.8017 0.43252 0.09127 0.0
C416 C 0.74652 0.25078 0.17567 0.0
C417 C 0.96294 0.34808 0.13842 0.0
O418 O 0.90077 0.56981 0.22294 0.0
O419 O 0.93411 0.56521 0.17161 0.0
O420 O 0.54241 0.45449 0.2454 0.0
Mg421 Mg 0.43182 0.35295 0.23432 0.0
O422 O 0.5214 0.51757 0.20645 0.0
Mg423 Mg 0.50726 0.4372 0.16332 0.0
O424 O 0.46255 0.33005 0.19146 0.0
O425 O 0.42294 0.23572 0.22583 0.0
O426 O 0.48207 0.3488 0.11805 0.0
O427 O 0.62239 0.46308 0.18414 0.0
Mg428 Mg 0.60407 0.47039 0.12287 0.0
O429 O 0.56579 0.55441 0.13571 0.0
O430 O 0.55742 0.42206 0.07856 0.0
O431 O 0.65652 0.40773 0.14822 0.0
O432 O 0.68948 0.58491 0.12281 0.0
C433 C 0.3372 0.3862 0.18578 0.0
C434 C 0.5385 0.51481 0.23554 0.0
C435 C 0.44893 0.26041 0.19753 0.0
C436 C 0.50142 0.35679 0.0884 0.0
C437 C 0.65958 0.42834 0.17674 0.0
C438 C 0.63991 0.60679 0.13179 0.0
O439 O 0.37673 0.41341 0.21071 0.0
O440 O 0.37484 0.40274 0.15901 0.0
O441 O 0.55336 0.21371 0.00898 0.0
Mg442 Mg 0.43638 0.16773 0.03344 0.0
O443 O 0.46252 0.14175 0.97692 0.0
Mg444 Mg 0.39553 0.20314 0.99303 0.0
O445 O 0.31382 0.09122 0.02163 0.0
O446 O 0.39918 0.05239 0.03735 0.0
O447 O 0.31746 0.26175 0.98872 0.0
O448 O 0.32129 0.12621 0.95275 0.0
Mg449 Mg 0.43838 0.2813 0.92098 0.0
O450 O 0.48224 0.29838 0.96433 0.0
O451 O 0.34028 0.29309 0.93642 0.0
O452 O 0.40247 0.15911 0.91171 0.0
O453 O 0.55482 0.38388 0.92824 0.0
C454 C 0.46505 0.28888 0.06659 0.0
C455 C 0.53407 0.1762 0.98324 0.0
C456 C 0.32981 0.03511 0.02828 0.0
C457 C 0.30447 0.28858 0.96266 0.0
C458 C 0.33561 0.11266 0.92466 0.0
C459 C 0.54512 0.36266 0.95772 0.0
O460 O 0.43926 0.21967 0.07736 0.0
O461 O 0.46478 0.29854 0.03638 0.0
O462 O 0.7385 0.33588 0.00832 0.0
Mg463 Mg 0.78323 0.2661 0.03408 0.0
O464 O 0.81116 0.31356 0.9768 0.0
Mg465 Mg 0.74833 0.18638 0.9945 0.0
O466 O 0.85778 0.21487 0.02269 0.0
O467 O 0.89942 0.34178 0.0348 0.0
O468 O 0.6906 0.04972 0.99151 0.0
O469 O 0.82505 0.18564 0.95286 0.0
Mg470 Mg 0.67541 0.15263 0.92361 0.0
O471 O 0.65339 0.17791 0.96671 0.0
O472 O 0.66652 0.04311 0.93894 0.0
O473 O 0.7955 0.24127 0.91391 0.0
O474 O 0.57112 0.164 0.92984 0.0
C475 C 0.66045 0.18135 0.06867 0.0
C476 C 0.77728 0.35228 0.9826 0.0
C477 C 0.91498 0.28701 0.0268 0.0
C478 C 0.66829 0.01091 0.96525 0.0
C479 C 0.83938 0.21571 0.92494 0.0
C480 C 0.58913 0.17514 0.95945 0.0
O481 O 0.72889 0.22542 0.0791 0.0
O482 O 0.65289 0.16595 0.03877 0.0
O483 O 0.61317 0.38943 0.00792 0.0
Mg484 Mg 0.68139 0.50211 0.03434 0.0
O485 O 0.64012 0.48669 0.9768 0.0
Mg486 Mg 0.76556 0.55303 0.99558 0.0
O487 O 0.73212 0.62946 0.02517 0.0
O488 O 0.60532 0.54312 0.0363 0.0
O489 O 0.90192 0.63328 0.9926 0.0
O490 O 0.76685 0.63351 0.9552 0.0
Mg491 Mg 0.80684 0.52089 0.92372 0.0
O492 O 0.77889 0.47158 0.9663 0.0
O493 O 0.91348 0.62106 0.93979 0.0
O494 O 0.71691 0.55157 0.9154 0.0
O495 O 0.79673 0.40466 0.92937 0.0
C496 C 0.76785 0.46705 0.06904 0.0
C497 C 0.60035 0.41374 0.98208 0.0
C498 C 0.65996 0.61422 0.02968 0.0
C499 C 0.94302 0.65216 0.96646 0.0
C500 C 0.73923 0.61968 0.92723 0.0
C501 C 0.78242 0.4102 0.95891 0.0
O502 O 0.71789 0.48515 0.07913 0.0
O503 O 0.78739 0.47861 0.03935 0.0
O504 O 0.48996 0.74949 0.84931 0.0
Mg505 Mg 0.49689 0.84782 0.8758 0.0
O506 O 0.45703 0.79901 0.80986 0.0
Mg507 Mg 0.42282 0.88919 0.82797 0.0
O508 O 0.53293 0.96154 0.85562 0.0
O509 O 0.6156 0.92448 0.87417 0.0
O510 O 0.37936 0.98116 0.83266 0.0
O511 O 0.50004 0.95863 0.78475 0.0
Mg512 Mg 0.34053 0.88236 0.75974 0.0
O513 O 0.3171 0.82289 0.80147 0.0
O514 O 0.39149 -0.00027 0.78089 0.0
O515 O 0.44284 0.87644 0.74547 0.0
O516 O 0.22246 0.77965 0.76807 0.0
C517 C 0.34964 0.81241 0.90364 0.0
C518 C 0.47836 0.75141 0.81999 0.0
C519 C 0.60388 0.97329 0.85732 0.0
C520 C 0.36945 0.01276 0.80746 0.0
C521 C 0.5005 0.94069 0.75562 0.0
C522 C 0.24619 0.77229 0.79559 0.0
O523 O 0.41657 0.82832 0.91404 0.0
O524 O 0.34182 0.82231 0.87395 0.0
O525 O 0.21413 0.69791 0.84525 0.0
Mg526 Mg 0.0996 0.61854 0.8698 0.0
O527 O 0.12419 0.66358 0.81079 0.0
Mg528 Mg 0.0704 0.53421 0.82674 0.0
O529 O -0.02143 0.54772 0.85396 0.0
O530 O 0.03647 0.67599 0.86691 0.0
O531 O 0.00596 0.3967 0.82294 0.0
O532 O -0.00543 0.52651 0.78517 0.0
Mg533 Mg 0.12497 0.50785 0.75595 0.0
O534 O 0.16637 0.53817 0.79957 0.0
O535 O 0.03868 0.3918 0.77154 0.0
O536 O 0.07482 0.58135 0.74429 0.0
O537 O 0.24456 0.53474 0.76328 0.0
C538 C 0.13822 0.52943 0.90298 0.0
C539 C 0.19343 0.71063 0.8186 0.0
C540 C -0.02353 0.61345 0.85602 0.0
C541 C 0.0014 0.35824 0.79731 0.0
C542 C 0.00649 0.55371 0.75695 0.0
C543 C 0.23126 0.54057 0.79296 0.0
O544 O 0.10844 0.56984 0.91343 0.0
O545 O 0.13953 0.51978 0.87276 0.0
O546 O 0.28187 0.55194 0.84609 0.0
Mg547 Mg 0.33722 0.49183 0.87105 0.0
O548 O 0.32096 0.50255 0.80947 0.0
Mg549 Mg 0.43456 0.52618 0.831 0.0
O550 O 0.37445 0.40718 0.85794 0.0
O551 O 0.25179 0.37762 0.8724 0.0
O552 O 0.56676 0.55993 0.83603 0.0
O553 O 0.42118 0.44628 0.78785 0.0
Mg554 Mg 0.51198 0.61079 0.76052 0.0
O555 O 0.48029 0.6338 0.80317 0.0
O556 O 0.56631 0.54957 0.78439 0.0
O557 O 0.40131 0.51009 0.74884 0.0
O558 O 0.52115 0.72829 0.76881 0.0
C559 C 0.43922 0.60612 0.90567 0.0
C560 C 0.28104 0.5341 0.81731 0.0
C561 C 0.3006 0.35518 0.86297 0.0
C562 C 0.60524 0.57698 0.80945 0.0
C563 C 0.40409 0.44922 0.75878 0.0
C564 C 0.49437 0.70356 0.79703 0.0
O565 O 0.38366 0.54051 0.91541 0.0
O566 O 0.45868 0.61443 0.87605 0.0
O567 O 0.38692 0.74866 0.98539 0.0
Mg568 Mg 0.50371 0.79478 0.96084 0.0
O569 O 0.478 0.82048 0.0174 0.0
Mg570 Mg 0.54493 0.75916 0.00116 0.0
O571 O 0.62644 0.87103 0.97258 0.0
O572 O 0.54109 0.9102 0.9572 0.0
O573 O 0.62308 0.70065 0.00534 0.0
O574 O 0.61908 0.83591 0.04151 0.0
Mg575 Mg 0.50227 0.68073 0.07317 0.0
O576 O 0.45836 0.66374 0.02984 0.0
O577 O 0.60065 0.66945 0.05767 0.0
O578 O 0.53766 0.80274 0.08248 0.0
O579 O 0.38595 0.57803 0.0659 0.0
C580 C 0.47508 0.67395 0.92753 0.0
C581 C 0.40641 0.78613 0.01114 0.0
C582 C 0.6105 0.92727 0.96614 0.0
C583 C 0.63636 0.67403 0.0314 0.0
C584 C 0.60458 0.84929 0.0696 0.0
C585 C 0.39556 0.59939 0.03643 0.0
O586 O 0.50026 0.74315 0.91682 0.0
O587 O 0.47587 0.66414 0.95771 0.0
O588 O 0.20216 0.6261 0.98603 0.0
Mg589 Mg 0.15758 0.69598 0.96029 0.0
O590 O 0.12977 0.64872 0.01758 0.0
Mg591 Mg 0.1924 0.77588 -0.00017 0.0
O592 O 0.08288 0.74712 0.97159 0.0
O593 O 0.04141 0.62022 0.95955 0.0
O594 O 0.24992 0.91261 0.00289 0.0
O595 O 0.11575 0.77659 0.0414 0.0
Mg596 Mg 0.26539 0.80988 0.07086 0.0
O597 O 0.28727 0.78459 0.02774 0.0
O598 O 0.27411 0.91927 0.05547 0.0
O599 O 0.14536 0.72098 0.08031 0.0
O600 O 0.3697 0.79858 0.06454 0.0
C601 C 0.28029 0.78095 0.92567 0.0
C602 C 0.16346 0.60983 0.01176 0.0
C603 C 0.02574 0.67495 0.96748 0.0
C604 C 0.27213 0.95139 0.02916 0.0
C605 C 0.1017 0.74688 0.06937 0.0
C606 C 0.35154 0.78737 0.03496 0.0
O607 O 0.2119 0.73646 0.91526 0.0
O608 O 0.28783 0.79656 0.95555 0.0
O609 O 0.32751 0.57288 0.98626 0.0
Mg610 Mg 0.2592 0.46035 0.9598 0.0
O611 O 0.30042 0.47548 0.01733 0.0
Mg612 Mg 0.17497 0.40911 -0.00142 0.0
O613 O 0.20854 0.33295 0.96889 0.0
O614 O 0.33528 0.4194 0.95768 0.0
O615 O 0.03865 0.32875 0.00159 0.0
O616 O 0.17376 0.32851 0.03889 0.0
Mg617 Mg 0.13372 0.44094 0.07055 0.0
O618 O 0.16156 0.49035 0.02797 0.0
O619 O 0.02722 0.34066 0.05444 0.0
O620 O 0.22386 0.4105 0.07866 0.0
O621 O 0.14375 0.55717 0.06496 0.0
C622 C 0.17245 0.49528 0.92521 0.0
C623 C 0.34026 0.54844 0.01207 0.0
C624 C 0.28072 0.34828 0.96432 0.0
C625 C -0.00233 0.30966 0.02776 0.0
C626 C 0.20133 0.34231 0.06687 0.0
C627 C 0.15808 0.55173 0.03541 0.0
O628 O 0.22272 0.47763 0.91508 0.0
O629 O 0.15284 0.48346 0.95489 0.0
O630 O 0.16399 0.4189 0.58198 0.0
Mg631 Mg 0.2663 0.41254 0.56809 0.0
O632 O 0.1063 0.33689 0.54267 0.0
Mg633 Mg 0.18429 0.40649 0.49961 0.0
O634 O 0.28958 0.47195 0.5264 0.0
O635 O 0.38465 0.51501 0.55953 0.0
O636 O 0.26536 0.47328 0.45369 0.0
O637 O 0.15114 0.4973 0.51758 0.0
Mg638 Mg 0.10872 0.44993 0.45097 0.0
O639 O 0.07549 0.33715 0.47119 0.0
O640 O 0.19105 0.46871 0.41355 0.0
O641 O 0.11917 0.54851 0.47838 0.0
O642 O -0.01011 0.37208 0.45511 0.0
C643 C 0.23673 0.2823 0.52019 0.0
C644 C 0.10619 0.35471 0.57184 0.0
C645 C 0.36067 0.52235 0.53207 0.0
C646 C 0.25769 0.48363 0.424 0.0
C647 C 0.13078 0.54581 0.50767 0.0
C648 C 0.00399 0.32411 0.47136 0.0
O649 O 0.21459 0.29542 0.54671 0.0
O650 O 0.22688 0.31378 0.49493 0.0
O651 O 0.53197 0.71397 0.58346 0.0
Mg652 Mg 0.48123 0.78697 0.57178 0.0
O653 O 0.61197 0.76823 0.54243 0.0
Mg654 Mg 0.53615 0.76075 0.50091 0.0
O655 O 0.44004 0.75624 0.52816 0.0
O656 O 0.3617 0.76024 0.5642 0.0
O657 O 0.46715 0.77548 0.45485 0.0
O658 O 0.48249 0.63121 0.51672 0.0
Mg659 Mg 0.50643 0.67592 0.45759 0.0
O660 O 0.62742 0.74715 0.47337 0.0
O661 O 0.49773 0.72507 0.41412 0.0
O662 O 0.39217 0.5969 0.48244 0.0
O663 O 0.56975 0.61868 0.4609 0.0
C664 C 0.60513 0.93686 0.53061 0.0
C665 C 0.60022 0.74142 0.57071 0.0
C666 C 0.37523 0.75424 0.53457 0.0
C667 C 0.46838 0.76584 0.42461 0.0
C668 C 0.41318 0.58408 0.509 0.0
C669 C 0.62963 0.6814 0.47174 0.0
O670 O 0.56747 0.90312 0.55629 0.0
O671 O 0.60078 0.89852 0.50495 0.0
O672 O 0.20915 0.78785 0.57875 0.0
Mg673 Mg 0.09853 0.68632 0.56768 0.0
O674 O 0.18814 0.85096 0.53978 0.0
Mg675 Mg 0.17395 0.77057 0.49665 0.0
O676 O 0.12924 0.66342 0.52481 0.0
O677 O 0.08964 0.56909 0.55918 0.0
O678 O 0.14874 0.68216 0.45139 0.0
O679 O 0.28909 0.79643 0.51748 0.0
Mg680 Mg 0.27077 0.80376 0.4562 0.0
O681 O 0.23247 0.88778 0.46904 0.0
O682 O 0.2241 0.75541 0.41191 0.0
O683 O 0.32323 0.7411 0.48156 0.0
O684 O 0.35616 0.91829 0.45614 0.0
C685 C 0.00391 0.71957 0.51913 0.0
C686 C 0.20528 0.84819 0.56886 0.0
C687 C 0.11561 0.59378 0.53087 0.0
C688 C 0.16809 0.69016 0.42174 0.0
C689 C 0.32629 0.7617 0.51008 0.0
C690 C 0.30658 0.94017 0.46512 0.0
O691 O 0.04345 0.74678 0.54405 0.0
O692 O 0.04154 0.73613 0.49236 0.0
O693 O 0.22003 0.54704 0.34231 0.0
Mg694 Mg 0.10306 0.50113 0.36677 0.0
O695 O 0.12917 0.47515 0.31024 0.0
Mg696 Mg 0.06218 0.53651 0.32637 0.0
O697 O -0.0195 0.42455 0.35496 0.0
O698 O 0.06593 0.38583 0.37071 0.0
O699 O -0.01593 0.59507 0.32207 0.0
O700 O -0.01205 0.45957 0.28609 0.0
Mg701 Mg 0.10499 0.61468 0.25431 0.0
O702 O 0.14886 0.63176 0.29766 0.0
O703 O 0.00684 0.62638 0.26976 0.0
O704 O 0.06912 0.4925 0.24504 0.0
O705 O 0.22143 0.71726 0.26158 0.0
C706 C 0.13171 0.62225 0.39993 0.0
C707 C 0.20072 0.50953 0.31657 0.0
C708 C -0.00345 0.3685 0.36163 0.0
C709 C -0.029 0.62179 0.29599 0.0
C710 C 0.00227 0.44603 0.258 0.0
C711 C 0.21175 0.69603 0.29106 0.0
O712 O 0.10594 0.55304 0.41069 0.0
O713 O 0.13143 0.63192 0.36972 0.0
O714 O 0.40518 0.66923 0.34165 0.0
Mg715 Mg 0.44983 0.59938 0.3674 0.0
O716 O 0.47776 0.64683 0.31013 0.0
Mg717 Mg 0.41496 0.51967 0.32784 0.0
O718 O 0.52445 0.54823 0.35603 0.0
O719 O 0.56598 0.67511 0.36816 0.0
O720 O 0.35727 0.38301 0.32486 0.0
O721 O 0.49169 0.51894 0.28619 0.0
Mg722 Mg 0.34203 0.48586 0.25695 0.0
O723 O 0.32 0.51116 0.30004 0.0
O724 O 0.33323 0.37637 0.27228 0.0
O725 O 0.46209 0.57455 0.24725 0.0
O726 O 0.23772 0.49721 0.26318 0.0
C727 C 0.32708 0.51465 0.40201 0.0
C728 C 0.44395 0.68561 0.31593 0.0
C729 C 0.5816 0.62038 0.36015 0.0
C730 C 0.33509 0.34423 0.29859 0.0
C731 C 0.50599 0.549 0.25826 0.0
C732 C 0.25575 0.50839 0.29278 0.0
O733 O 0.39552 0.55874 0.41243 0.0
O734 O 0.31951 0.49923 0.37211 0.0
O735 O 0.2798 0.72274 0.34125 0.0
Mg736 Mg 0.34809 0.83542 0.36767 0.0
O737 O 0.30686 0.82002 0.31012 0.0
Mg738 Mg 0.43228 0.88638 0.32892 0.0
O739 O 0.39876 0.96276 0.35851 0.0
O740 O 0.27198 0.87635 0.36964 0.0
O741 O 0.56864 0.96667 0.32597 0.0
O742 O 0.43356 0.96686 0.28854 0.0
Mg743 Mg 0.47364 0.8543 0.25706 0.0
O744 O 0.44566 0.80496 0.29965 0.0
O745 O 0.58023 0.95454 0.27315 0.0
O746 O 0.38366 0.8849 0.24874 0.0
O747 O 0.46355 0.73808 0.26271 0.0
C748 C 0.43455 0.80037 0.40237 0.0
C749 C 0.26703 0.74707 0.31541 0.0
C750 C 0.32658 0.94746 0.36303 0.0
C751 C 0.60971 -0.01435 0.29982 0.0
C752 C 0.40594 0.95301 0.26057 0.0
C753 C 0.44919 0.74359 0.29225 0.0
O754 O 0.38455 0.81844 0.41247 0.0
O755 O 0.45411 0.81196 0.37269 0.0
loop_
_geom_bond_atom_site_label_1
_geom_bond_atom_site_label_2
_geom_bond_distance
_geom_bond_site_symmetry_2
_ccdc_geom_bond_type
O0 Mg1 1.990 . S
O0 C14 1.253 . S
Mg1 O0 1.990 . S
Mg1 O4 2.180 . S
Mg1 O5 2.117 . S
Mg1 O19 2.030 . S
O2 Mg3 2.072 . S
O2 C14 1.260 . S
Mg3 O2 2.072 . S
Mg3 O4 2.099 . S
Mg3 O6 2.079 . S
Mg3 O7 2.072 . S
Mg3 O9 2.099 1_455 S
Mg3 O20 2.079 . S
O4 Mg1 2.180 . S
O4 Mg3 2.099 . S
O4 C15 1.279 . S
O5 Mg1 2.117 . S
O5 C15 1.250 . S
O6 Mg3 2.079 . S
O6 C16 1.264 . S
O7 Mg3 2.072 . S
O7 C17 1.260 . S
Mg8 O9 2.180 . S
Mg8 O10 2.030 1_655 S
Mg8 O11 1.990 1_655 S
Mg8 O12 2.117 . S
O9 Mg3 2.099 1_655 S
O9 Mg8 2.180 . S
O9 C18 1.279 . S
O10 Mg8 2.030 1_455 S
O10 C16 1.248 . S
O11 Mg8 1.990 1_455 S
O11 C17 1.253 . S
O12 Mg8 2.117 . S
O12 C18 1.250 . S
C13 O19 1.248 . S
C13 O20 1.264 . S
C14 O0 1.253 . S
C14 O2 1.260 . S
C15 O4 1.279 . S
C15 O5 1.250 . S
C16 O6 1.264 . S
C16 O10 1.248 . S
C17 O7 1.260 . S
C17 O11 1.253 . S
C18 O9 1.279 . S
C18 O12 1.250 . S
O19 Mg1 2.030 . S
O19 C13 1.248 . S
O20 Mg3 2.079 . S
O20 C13 1.264 . S
O21 Mg22 1.990 1_545 S
O21 C35 1.253 . S
Mg22 O21 1.990 1_565 S
Mg22 O25 2.180 . S
Mg22 O26 2.117 . S
Mg22 O40 2.030 . S
O23 Mg24 2.072 . S
O23 C35 1.260 1_565 S
Mg24 O23 2.072 . S
Mg24 O25 2.099 . S
Mg24 O27 2.079 . S
Mg24 O28 2.072 . S
Mg24 O30 2.099 . S
Mg24 O41 2.079 . S
O25 Mg22 2.180 . S
O25 Mg24 2.099 . S
O25 C36 1.279 . S
O26 Mg22 2.117 . S
O26 C36 1.250 . S
O27 Mg24 2.079 . S
O27 C37 1.264 . S
O28 Mg24 2.072 . S
O28 C38 1.260 . S
Mg29 O30 2.180 . S
Mg29 O31 2.030 . S
Mg29 O32 1.990 . S
Mg29 O33 2.117 . S
O30 Mg24 2.099 . S
O30 Mg29 2.180 . S
O30 C39 1.279 . S
O31 Mg29 2.030 . S
O31 C37 1.248 . S
O32 Mg29 1.990 . S
O32 C38 1.253 . S
O33 Mg29 2.117 . S
O33 C39 1.250 . S
C34 O40 1.248 . S
C34 O41 1.264 . S
C35 O21 1.253 . S
C35 O23 1.260 1_545 S
C36 O25 1.279 . S
C36 O26 1.250 . S
C37 O27 1.264 . S
C37 O31 1.248 . S
C38 O28 1.260 . S
C38 O32 1.253 . S
C39 O30 1.279 . S
C39 O33 1.250 . S
O40 Mg22 2.030 . S
O40 C34 1.248 . S
O41 Mg24 2.079 . S
O41 C34 1.264 . S
O42 Mg43 1.990 1_655 S
O42 C56 1.253 . S
Mg43 O42 1.990 1_455 S
Mg43 O46 2.180 . S
Mg43 O47 2.117 . S
Mg43 O61 2.030 . S
O44 Mg45 2.072 . S
O44 C56 1.260 1_455 S
Mg45 O44 2.072 . S
Mg45 O46 2.099 . S
Mg45 O48 2.079 . S
Mg45 O49 2.072 . S
Mg45 O51 2.099 1_565 S
Mg45 O62 2.079 . S
O46 Mg43 2.180 . S
O46 Mg45 2.099 . S
O46 C57 1.279 . S
O47 Mg43 2.117 . S
O47 C57 1.250 . S
O48 Mg45 2.079 . S
O48 C58 1.264 . S
O49 Mg45 2.072 . S
O49 C59 1.260 . S
Mg50 O51 2.180 . S
Mg50 O52 2.030 1_545 S
Mg50 O53 1.990 1_545 S
Mg50 O54 2.117 . S
O51 Mg45 2.099 1_545 S
O51 Mg50 2.180 . S
O51 C60 1.279 . S
O52 Mg50 2.030 1_565 S
O52 C58 1.248 . S
O53 Mg50 1.990 1_565 S
O53 C59 1.253 . S
O54 Mg50 2.117 . S
O54 C60 1.250 . S
C55 O61 1.248 . S
C55 O62 1.264 . S
C56 O42 1.253 . S
C56 O44 1.260 1_655 S
C57 O46 1.279 . S
C57 O47 1.250 . S
C58 O48 1.264 . S
C58 O52 1.248 . S
C59 O49 1.260 . S
C59 O53 1.253 . S
C60 O51 1.279 . S
C60 O54 1.250 . S
O61 Mg43 2.030 . S
O61 C55 1.248 . S
O62 Mg45 2.079 . S
O62 C55 1.264 . S
O63 Mg64 1.990 . S
O63 C77 1.253 . S
Mg64 O63 1.990 . S
Mg64 O67 2.180 . S
Mg64 O68 2.117 . S
Mg64 O82 2.030 . S
O65 Mg66 2.072 . S
O65 C77 1.260 . S
Mg66 O65 2.072 . S
Mg66 O67 2.099 . S
Mg66 O69 2.079 . S
Mg66 O70 2.072 . S
Mg66 O72 2.099 1_545 S
Mg66 O83 2.079 . S
O67 Mg64 2.180 . S
O67 Mg66 2.099 . S
O67 C78 1.279 . S
O68 Mg64 2.117 . S
O68 C78 1.250 . S
O69 Mg66 2.079 . S
O69 C79 1.264 . S
O70 Mg66 2.072 . S
O70 C80 1.260 . S
Mg71 O72 2.180 . S
Mg71 O73 2.030 1_565 S
Mg71 O74 1.990 1_565 S
Mg71 O75 2.117 . S
O72 Mg66 2.099 1_565 S
O72 Mg71 2.180 . S
O72 C81 1.279 . S
O73 Mg71 2.030 1_545 S
O73 C79 1.248 . S
O74 Mg71 1.990 1_545 S
O74 C80 1.253 . S
O75 Mg71 2.117 . S
O75 C81 1.250 . S
C76 O82 1.248 . S
C76 O83 1.264 . S
C77 O63 1.253 . S
C77 O65 1.260 . S
C78 O67 1.279 . S
C78 O68 1.250 . S
C79 O69 1.264 . S
C79 O73 1.248 . S
C80 O70 1.260 . S
C80 O74 1.253 . S
C81 O72 1.279 . S
C81 O75 1.250 . S
O82 Mg64 2.030 . S
O82 C76 1.248 . S
O83 Mg66 2.079 . S
O83 C76 1.264 . S
O84 Mg85 1.990 1_565 S
O84 C98 1.253 . S
Mg85 O84 1.990 1_545 S
Mg85 O88 2.180 . S
Mg85 O89 2.117 . S
Mg85 O103 2.030 . S
O86 Mg87 2.072 . S
O86 C98 1.260 1_545 S
Mg87 O86 2.072 . S
Mg87 O88 2.099 . S
Mg87 O90 2.079 . S
Mg87 O91 2.072 . S
Mg87 O93 2.099 1_655 S
Mg87 O104 2.079 . S
O88 Mg85 2.180 . S
O88 Mg87 2.099 . S
O88 C99 1.279 . S
O89 Mg85 2.117 . S
O89 C99 1.250 . S
O90 Mg87 2.079 . S
O90 C100 1.264 . S
O91 Mg87 2.072 . S
O91 C101 1.260 . S
Mg92 O93 2.180 . S
Mg92 O94 2.030 1_455 S
Mg92 O95 1.990 1_455 S
Mg92 O96 2.117 . S
O93 Mg87 2.099 1_455 S
O93 Mg92 2.180 . S
O93 C102 1.279 . S
O94 Mg92 2.030 1_655 S
O94 C100 1.248 . S
O95 Mg92 1.990 1_655 S
O95 C101 1.253 . S
O96 Mg92 2.117 . S
O96 C102 1.250 . S
C97 O103 1.248 . S
C97 O104 1.264 . S
C98 O84 1.253 . S
C98 O86 1.260 1_565 S
C99 O88 1.279 . S
C99 O89 1.250 . S
C100 O90 1.264 . S
C100 O94 1.248 . S
C101 O91 1.260 . S
C101 O95 1.253 . S
C102 O93 1.279 . S
C102 O96 1.250 . S
O103 Mg85 2.030 . S
O103 C97 1.248 . S
O104 Mg87 2.079 . S
O104 C97 1.264 . S
O105 Mg106 1.990 1_455 S
O105 C119 1.253 . S
Mg106 O105 1.990 1_655 S
Mg106 O109 2.180 . S
Mg106 O110 2.117 . S
Mg106 O124 2.030 . S
O107 Mg108 2.072 . S
O107 C119 1.260 1_655 S
Mg108 O107 2.072 . S
Mg108 O109 2.099 . S
Mg108 O111 2.079 . S
Mg108 O112 2.072 . S
Mg108 O114 2.099 . S
Mg108 O125 2.079 . S
O109 Mg106 2.180 . S
O109 Mg108 2.099 . S
O109 C120 1.279 . S
O110 Mg106 2.117 . S
O110 C120 1.250 . S
O111 Mg108 2.079 . S
O111 C121 1.264 . S
O112 Mg108 2.072 . S
O112 C122 1.260 . S
Mg113 O114 2.180 . S
Mg113 O115 2.030 . S
Mg113 O116 1.990 . S
Mg113 O117 2.117 . S
O114 Mg108 2.099 . S
O114 Mg113 2.180 . S
O114 C123 1.279 . S
O115 Mg113 2.030 . S
O115 C121 1.248 . S
O116 Mg113 1.990 . S
O116 C122 1.253 . S
O117 Mg113 2.117 . S
O117 C123 1.250 . S
C118 O124 1.248 . S
C118 O125 1.264 . S
C119 O105 1.253 . S
C119 O107 1.260 1_455 S
C120 O109 1.279 . S
C120 O110 1.250 . S
C121 O111 1.264 . S
C121 O115 1.248 . S
C122 O112 1.260 . S
C122 O116 1.253 . S
C123 O114 1.279 . S
C123 O117 1.250 . S
O124 Mg106 2.030 . S
O124 C118 1.248 . S
O125 Mg108 2.079 . S
O125 C118 1.264 . S
O126 Mg127 1.990 1_655 S
O126 C140 1.253 . S
Mg127 O126 1.990 1_455 S
Mg127 O130 2.180 . S
Mg127 O131 2.117 . S
Mg127 O145 2.030 1_455 S
O128 Mg129 2.072 . S
O128 C140 1.260 . S
Mg129 O128 2.072 . S
Mg129 O130 2.099 1_655 S
Mg129 O132 2.079 . S
Mg129 O133 2.072 . S
Mg129 O135 2.099 . S
Mg129 O146 2.079 . S
O130 Mg127 2.180 . S
O130 Mg129 2.099 1_455 S
O130 C141 1.279 . S
O131 Mg127 2.117 . S
O131 C141 1.250 . S
O132 Mg129 2.079 . S
O132 C142 1.264 . S
O133 Mg129 2.072 . S
O133 C143 1.260 . S
Mg134 O135 2.180 . S
Mg134 O136 2.030 . S
Mg134 O137 1.990 . S
Mg134 O138 2.117 . S
O135 Mg129 2.099 . S
O135 Mg134 2.180 . S
O135 C144 1.279 . S
O136 Mg134 2.030 . S
O136 C142 1.248 . S
O137 Mg134 1.990 . S
O137 C143 1.253 . S
O138 Mg134 2.117 . S
O138 C144 1.250 . S
C139 O145 1.248 . S
C139 O146 1.264 . S
C140 O126 1.253 . S
C140 O128 1.260 . S
C141 O130 1.279 . S
C141 O131 1.250 . S
C142 O132 1.264 . S
C142 O136 1.248 . S
C143 O133 1.260 . S
C143 O137 1.253 . S
C144 O135 1.279 . S
C144 O138 1.250 . S
O145 Mg127 2.030 1_655 S
O145 C139 1.248 . S
O146 Mg129 2.079 . S
O146 C139 1.264 . S
O147 Mg148 1.990 . S
O147 C161 1.253 . S
Mg148 O147 1.990 . S
Mg148 O151 2.180 . S
Mg148 O152 2.117 . S
Mg148 O166 2.030 . S
O149 Mg150 2.072 . S
O149 C161 1.260 . S
Mg150 O149 2.072 . S
Mg150 O151 2.099 . S
Mg150 O153 2.079 . S
Mg150 O154 2.072 . S
Mg150 O156 2.099 . S
Mg150 O167 2.079 . S
O151 Mg148 2.180 . S
O151 Mg150 2.099 . S
O151 C162 1.279 . S
O152 Mg148 2.117 . S
O152 C162 1.250 . S
O153 Mg150 2.079 . S
O153 C163 1.264 . S
O154 Mg150 2.072 . S
O154 C164 1.260 1_545 S
Mg155 O156 2.180 . S
Mg155 O157 2.030 . S
Mg155 O158 1.990 1_545 S
Mg155 O159 2.117 . S
O156 Mg150 2.099 . S
O156 Mg155 2.180 . S
O156 C165 1.279 . S
O157 Mg155 2.030 . S
O157 C163 1.248 . S
O158 Mg155 1.990 1_565 S
O158 C164 1.253 . S
O159 Mg155 2.117 . S
O159 C165 1.250 . S
C160 O166 1.248 . S
C160 O167 1.264 . S
C161 O147 1.253 . S
C161 O149 1.260 . S
C162 O151 1.279 . S
C162 O152 1.250 . S
C163 O153 1.264 . S
C163 O157 1.248 . S
C164 O154 1.260 1_565 S
C164 O158 1.253 . S
C165 O156 1.279 . S
C165 O159 1.250 . S
O166 Mg148 2.030 . S
O166 C160 1.248 . S
O167 Mg150 2.079 . S
O167 C160 1.264 . S
O168 Mg169 1.990 1_545 S
O168 C182 1.253 . S
Mg169 O168 1.990 1_565 S
Mg169 O172 2.180 . S
Mg169 O173 2.117 . S
Mg169 O187 2.030 1_565 S
O170 Mg171 2.072 . S
O170 C182 1.260 . S
Mg171 O170 2.072 . S
Mg171 O172 2.099 1_545 S
Mg171 O174 2.079 . S
Mg171 O175 2.072 . S
Mg171 O177 2.099 . S
Mg171 O188 2.079 . S
O172 Mg169 2.180 . S
O172 Mg171 2.099 1_565 S
O172 C183 1.279 . S
O173 Mg169 2.117 . S
O173 C183 1.250 . S
O174 Mg171 2.079 . S
O174 C184 1.264 . S
O175 Mg171 2.072 . S
O175 C185 1.260 1_655 S
Mg176 O177 2.180 . S
Mg176 O178 2.030 . S
Mg176 O179 1.990 1_655 S
Mg176 O180 2.117 . S
O177 Mg171 2.099 . S
O177 Mg176 2.180 . S
O177 C186 1.279 . S
O178 Mg176 2.030 . S
O178 C184 1.248 . S
O179 Mg176 1.990 1_455 S
O179 C185 1.253 . S
O180 Mg176 2.117 . S
O180 C186 1.250 . S
C181 O187 1.248 . S
C181 O188 1.264 . S
C182 O168 1.253 . S
C182 O170 1.260 . S
C183 O172 1.279 . S
C183 O173 1.250 . S
C184 O174 1.264 . S
C184 O178 1.248 . S
C185 O175 1.260 1_455 S
C185 O179 1.253 . S
C186 O177 1.279 . S
C186 O180 1.250 . S
O187 Mg169 2.030 1_545 S
O187 C181 1.248 . S
O188 Mg171 2.079 . S
O188 C181 1.264 . S
O189 Mg190 1.990 . S
O189 C203 1.253 . S
Mg190 O189 1.990 . S
Mg190 O193 2.180 . S
Mg190 O194 2.117 . S
Mg190 O208 2.030 . S
O191 Mg192 2.072 . S
O191 C203 1.260 . S
Mg192 O191 2.072 . S
Mg192 O193 2.099 . S
Mg192 O195 2.079 . S
Mg192 O196 2.072 . S
Mg192 O198 2.099 1_565 S
Mg192 O209 2.079 . S
O193 Mg190 2.180 . S
O193 Mg192 2.099 . S
O193 C204 1.279 . S
O194 Mg190 2.117 . S
O194 C204 1.250 . S
O195 Mg192 2.079 . S
O195 C205 1.264 . S
O196 Mg192 2.072 . S
O196 C206 1.260 . S
Mg197 O198 2.180 . S
Mg197 O199 2.030 1_545 S
Mg197 O200 1.990 1_545 S
Mg197 O201 2.117 . S
O198 Mg192 2.099 1_545 S
O198 Mg197 2.180 . S
O198 C207 1.279 . S
O199 Mg197 2.030 1_565 S
O199 C205 1.248 . S
O200 Mg197 1.990 1_565 S
O200 C206 1.253 . S
O201 Mg197 2.117 . S
O201 C207 1.250 . S
C202 O208 1.248 . S
C202 O209 1.264 . S
C203 O189 1.253 . S
C203 O191 1.260 . S
C204 O193 1.279 . S
C204 O194 1.250 . S
C205 O195 1.264 . S
C205 O199 1.248 . S
C206 O196 1.260 . S
C206 O200 1.253 . S
C207 O198 1.279 . S
C207 O201 1.250 . S
O208 Mg190 2.030 . S
O208 C202 1.248 . S
O209 Mg192 2.079 . S
O209 C202 1.264 . S
O210 Mg211 1.990 1_545 S
O210 C224 1.253 . S
Mg211 O210 1.990 1_565 S
Mg211 O214 2.180 . S
Mg211 O215 2.117 . S
Mg211 O229 2.030 . S
O212 Mg213 2.072 . S
O212 C224 1.260 1_565 S
Mg213 O212 2.072 . S
Mg213 O214 2.099 . S
Mg213 O216 2.079 . S
Mg213 O217 2.072 . S
Mg213 O219 2.099 1_455 S
Mg213 O230 2.079 . S
O214 Mg211 2.180 . S
O214 Mg213 2.099 . S
O214 C225 1.279 . S
O215 Mg211 2.117 . S
O215 C225 1.250 . S
O216 Mg213 2.079 . S
O216 C226 1.264 . S
O217 Mg213 2.072 . S
O217 C227 1.260 . S
Mg218 O219 2.180 . S
Mg218 O220 2.030 1_655 S
Mg218 O221 1.990 1_655 S
Mg218 O222 2.117 . S
O219 Mg213 2.099 1_655 S
O219 Mg218 2.180 . S
O219 C228 1.279 . S
O220 Mg218 2.030 1_455 S
O220 C226 1.248 . S
O221 Mg218 1.990 1_455 S
O221 C227 1.253 . S
O222 Mg218 2.117 . S
O222 C228 1.250 . S
C223 O229 1.248 . S
C223 O230 1.264 . S
C224 O210 1.253 . S
C224 O212 1.260 1_545 S
C225 O214 1.279 . S
C225 O215 1.250 . S
C226 O216 1.264 . S
C226 O220 1.248 . S
C227 O217 1.260 . S
C227 O221 1.253 . S
C228 O219 1.279 . S
C228 O222 1.250 . S
O229 Mg211 2.030 . S
O229 C223 1.248 . S
O230 Mg213 2.079 . S
O230 C223 1.264 . S
O231 Mg232 1.990 1_655 S
O231 C245 1.253 . S
Mg232 O231 1.990 1_455 S
Mg232 O235 2.180 . S
Mg232 O236 2.117 . S
Mg232 O250 2.030 . S
O233 Mg234 2.072 . S
O233 C245 1.260 1_455 S
Mg234 O233 2.072 . S
Mg234 O235 2.099 . S
Mg234 O237 2.079 . S
Mg234 O238 2.072 . S
Mg234 O240 2.099 . S
Mg234 O251 2.079 . S
O235 Mg232 2.180 . S
O235 Mg234 2.099 . S
O235 C246 1.279 . S
O236 Mg232 2.117 . S
O236 C246 1.250 . S
O237 Mg234 2.079 . S
O237 C247 1.264 . S
O238 Mg234 2.072 . S
O238 C248 1.260 . S
Mg239 O240 2.180 . S
Mg239 O241 2.030 . S
Mg239 O242 1.990 . S
Mg239 O243 2.117 . S
O240 Mg234 2.099 . S
O240 Mg239 2.180 . S
O240 C249 1.279 . S
O241 Mg239 2.030 . S
O241 C247 1.248 . S
O242 Mg239 1.990 . S
O242 C248 1.253 . S
O243 Mg239 2.117 . S
O243 C249 1.250 . S
C244 O250 1.248 . S
C244 O251 1.264 . S
C245 O231 1.253 . S
C245 O233 1.260 1_655 S
C246 O235 1.279 . S
C246 O236 1.250 . S
C247 O237 1.264 . S
C247 O241 1.248 . S
C248 O238 1.260 . S
C248 O242 1.253 . S
C249 O240 1.279 . S
C249 O243 1.250 . S
O250 Mg232 2.030 . S
O250 C244 1.248 . S
O251 Mg234 2.079 . S
O251 C244 1.264 . S
O252 Mg253 1.990 . S
O252 C266 1.253 . S
Mg253 O252 1.990 . S
Mg253 O256 2.180 . S
Mg253 O257 2.117 1_655 S
Mg253 O271 2.030 . S
O254 Mg255 2.072 . S
O254 C266 1.260 . S
Mg255 O254 2.072 . S
Mg255 O256 2.099 . S
Mg255 O258 2.079 . S
Mg255 O259 2.072 . S
Mg255 O261 2.099 . S
Mg255 O272 2.079 . S
O256 Mg253 2.180 . S
O256 Mg255 2.099 . S
O256 C267 1.279 . S
O257 Mg253 2.117 1_455 S
O257 C267 1.250 1_455 S
O258 Mg255 2.079 . S
O258 C268 1.264 . S
O259 Mg255 2.072 . S
O259 C269 1.260 . S
Mg260 O261 2.180 . S
Mg260 O262 2.030 . S
Mg260 O263 1.990 . S
Mg260 O264 2.117 . S
O261 Mg255 2.099 . S
O261 Mg260 2.180 . S
O261 C270 1.279 . S
O262 Mg260 2.030 . S
O262 C268 1.248 . S
O263 Mg260 1.990 . S
O263 C269 1.253 . S
O264 Mg260 2.117 . S
O264 C270 1.250 . S
C265 O271 1.248 . S
C265 O272 1.264 . S
C266 O252 1.253 . S
C266 O254 1.260 . S
C267 O256 1.279 . S
C267 O257 1.250 1_655 S
C268 O258 1.264 . S
C268 O262 1.248 . S
C269 O259 1.260 . S
C269 O263 1.253 . S
C270 O261 1.279 . S
C270 O264 1.250 . S
O271 Mg253 2.030 . S
O271 C265 1.248 . S
O272 Mg255 2.079 . S
O272 C265 1.264 . S
O273 Mg274 1.990 . S
O273 C287 1.253 . S
Mg274 O273 1.990 . S
Mg274 O277 2.180 . S
Mg274 O278 2.117 . S
Mg274 O292 2.030 . S
O275 Mg276 2.072 . S
O275 C287 1.260 . S
Mg276 O275 2.072 . S
Mg276 O277 2.099 . S
Mg276 O279 2.079 . S
Mg276 O280 2.072 . S
Mg276 O282 2.099 . S
Mg276 O293 2.079 . S
O277 Mg274 2.180 . S
O277 Mg276 2.099 . S
O277 C288 1.279 . S
O278 Mg274 2.117 . S
O278 C288 1.250 . S
O279 Mg276 2.079 . S
O279 C289 1.264 1_545 S
O280 Mg276 2.072 . S
O280 C290 1.260 . S
Mg281 O282 2.180 . S
Mg281 O283 2.030 1_545 S
Mg281 O284 1.990 . S
Mg281 O285 2.117 . S
O282 Mg276 2.099 . S
O282 Mg281 2.180 . S
O282 C291 1.279 . S
O283 Mg281 2.030 1_565 S
O283 C289 1.248 . S
O284 Mg281 1.990 . S
O284 C290 1.253 . S
O285 Mg281 2.117 . S
O285 C291 1.250 . S
C286 O292 1.248 . S
C286 O293 1.264 . S
C287 O273 1.253 . S
C287 O275 1.260 . S
C288 O277 1.279 . S
C288 O278 1.250 . S
C289 O279 1.264 1_565 S
C289 O283 1.248 . S
C290 O280 1.260 . S
C290 O284 1.253 . S
C291 O282 1.279 . S
C291 O285 1.250 . S
O292 Mg274 2.030 . S
O292 C286 1.248 . S
O293 Mg276 2.079 . S
O293 C286 1.264 . S
O294 Mg295 1.990 . S
O294 C308 1.253 . S
Mg295 O294 1.990 . S
Mg295 O298 2.180 . S
Mg295 O299 2.117 1_545 S
Mg295 O313 2.030 . S
O296 Mg297 2.072 . S
O296 C308 1.260 . S
Mg297 O296 2.072 . S
Mg297 O298 2.099 . S
Mg297 O300 2.079 . S
Mg297 O301 2.072 . S
Mg297 O303 2.099 . S
Mg297 O314 2.079 . S
O298 Mg295 2.180 . S
O298 Mg297 2.099 . S
O298 C309 1.279 . S
O299 Mg295 2.117 1_565 S
O299 C309 1.250 1_565 S
O300 Mg297 2.079 . S
O300 C310 1.264 1_655 S
O301 Mg297 2.072 . S
O301 C311 1.260 . S
Mg302 O303 2.180 . S
Mg302 O304 2.030 1_655 S
Mg302 O305 1.990 . S
Mg302 O306 2.117 . S
O303 Mg297 2.099 . S
O303 Mg302 2.180 . S
O303 C312 1.279 . S
O304 Mg302 2.030 1_455 S
O304 C310 1.248 . S
O305 Mg302 1.990 . S
O305 C311 1.253 . S
O306 Mg302 2.117 . S
O306 C312 1.250 . S
C307 O313 1.248 . S
C307 O314 1.264 . S
C308 O294 1.253 . S
C308 O296 1.260 . S
C309 O298 1.279 . S
C309 O299 1.250 1_545 S
C310 O300 1.264 1_455 S
C310 O304 1.248 . S
C311 O301 1.260 . S
C311 O305 1.253 . S
C312 O303 1.279 . S
C312 O306 1.250 . S
O313 Mg295 2.030 . S
O313 C307 1.248 . S
O314 Mg297 2.079 . S
O314 C307 1.264 . S
O315 Mg316 1.990 . S
O315 C329 1.253 . S
Mg316 O315 1.990 . S
Mg316 O319 2.180 . S
Mg316 O320 2.117 1_655 S
Mg316 O334 2.030 . S
O317 Mg318 2.072 . S
O317 C329 1.260 . S
Mg318 O317 2.072 . S
Mg318 O319 2.099 . S
Mg318 O321 2.079 1_655 S
Mg318 O322 2.072 . S
Mg318 O324 2.099 . S
Mg318 O335 2.079 . S
O319 Mg316 2.180 . S
O319 Mg318 2.099 . S
O319 C330 1.279 1_655 S
O320 Mg316 2.117 1_455 S
O320 C330 1.250 . S
O321 Mg318 2.079 1_455 S
O321 C331 1.264 . S
O322 Mg318 2.072 . S
O322 C332 1.260 . S
Mg323 O324 2.180 . S
Mg323 O325 2.030 1_655 S
Mg323 O326 1.990 . S
Mg323 O327 2.117 . S
O324 Mg318 2.099 . S
O324 Mg323 2.180 . S
O324 C333 1.279 . S
O325 Mg323 2.030 1_455 S
O325 C331 1.248 . S
O326 Mg323 1.990 . S
O326 C332 1.253 . S
O327 Mg323 2.117 . S
O327 C333 1.250 . S
C328 O334 1.248 . S
C328 O335 1.264 . S
C329 O315 1.253 . S
C329 O317 1.260 . S
C330 O319 1.279 1_455 S
C330 O320 1.250 . S
C331 O321 1.264 . S
C331 O325 1.248 . S
C332 O322 1.260 . S
C332 O326 1.253 . S
C333 O324 1.279 . S
C333 O327 1.250 . S
O334 Mg316 2.030 . S
O334 C328 1.248 . S
O335 Mg318 2.079 . S
O335 C328 1.264 . S
O336 Mg337 1.990 . S
O336 C350 1.253 . S
Mg337 O336 1.990 . S
Mg337 O340 2.180 . S
Mg337 O341 2.117 . S
Mg337 O355 2.030 . S
O338 Mg339 2.072 . S
O338 C350 1.260 . S
Mg339 O338 2.072 . S
Mg339 O340 2.099 . S
Mg339 O342 2.079 . S
Mg339 O343 2.072 . S
Mg339 O345 2.099 . S
Mg339 O356 2.079 . S
O340 Mg337 2.180 . S
O340 Mg339 2.099 . S
O340 C351 1.279 . S
O341 Mg337 2.117 . S
O341 C351 1.250 . S
O342 Mg339 2.079 . S
O342 C352 1.264 . S
O343 Mg339 2.072 . S
O343 C353 1.260 . S
Mg344 O345 2.180 . S
Mg344 O346 2.030 . S
Mg344 O347 1.990 . S
Mg344 O348 2.117 . S
O345 Mg339 2.099 . S
O345 Mg344 2.180 . S
O345 C354 1.279 . S
O346 Mg344 2.030 . S
O346 C352 1.248 . S
O347 Mg344 1.990 . S
O347 C353 1.253 . S
O348 Mg344 2.117 . S
O348 C354 1.250 . S
C349 O355 1.248 . S
C349 O356 1.264 . S
C350 O336 1.253 . S
C350 O338 1.260 . S
C351 O340 1.279 . S
C351 O341 1.250 . S
C352 O342 1.264 . S
C352 O346 1.248 . S
C353 O343 1.260 . S
C353 O347 1.253 . S
C354 O345 1.279 . S
C354 O348 1.250 . S
O355 Mg337 2.030 . S
O355 C349 1.248 . S
O356 Mg339 2.079 . S
O356 C349 1.264 . S
O357 Mg358 1.990 . S
O357 C371 1.253 . S
Mg358 O357 1.990 . S
Mg358 O361 2.180 . S
Mg358 O362 2.117 1_545 S
Mg358 O376 2.030 . S
O359 Mg360 2.072 . S
O359 C371 1.260 . S
Mg360 O359 2.072 . S
Mg360 O361 2.099 . S
Mg360 O363 2.079 1_545 S
Mg360 O364 2.072 . S
Mg360 O366 2.099 . S
Mg360 O377 2.079 . S
O361 Mg358 2.180 . S
O361 Mg360 2.099 . S
O361 C372 1.279 1_545 S
O362 Mg358 2.117 1_565 S
O362 C372 1.250 . S
O363 Mg360 2.079 1_565 S
O363 C373 1.264 . S
O364 Mg360 2.072 . S
O364 C374 1.260 . S
Mg365 O366 2.180 . S
Mg365 O367 2.030 1_545 S
Mg365 O368 1.990 . S
Mg365 O369 2.117 . S
O366 Mg360 2.099 . S
O366 Mg365 2.180 . S
O366 C375 1.279 . S
O367 Mg365 2.030 1_565 S
O367 C373 1.248 . S
O368 Mg365 1.990 . S
O368 C374 1.253 . S
O369 Mg365 2.117 . S
O369 C375 1.250 . S
C370 O376 1.248 . S
C370 O377 1.264 . S
C371 O357 1.253 . S
C371 O359 1.260 . S
C372 O361 1.279 1_565 S
C372 O362 1.250 . S
C373 O363 1.264 . S
C373 O367 1.248 . S
C374 O364 1.260 . S
C374 O368 1.253 . S
C375 O366 1.279 . S
C375 O369 1.250 . S
O376 Mg358 2.030 . S
O376 C370 1.248 . S
O377 Mg360 2.079 . S
O377 C370 1.264 . S
O378 Mg379 1.990 . S
O378 C392 1.253 . S
Mg379 O378 1.990 . S
Mg379 O382 2.180 . S
Mg379 O383 2.117 . S
Mg379 O397 2.030 1_545 S
O380 Mg381 2.072 . S
O380 C392 1.260 . S
Mg381 O380 2.072 . S
Mg381 O382 2.099 . S
Mg381 O384 2.079 . S
Mg381 O385 2.072 . S
Mg381 O387 2.099 . S
Mg381 O398 2.079 1_545 S
O382 Mg379 2.180 . S
O382 Mg381 2.099 . S
O382 C393 1.279 . S
O383 Mg379 2.117 . S
O383 C393 1.250 . S
O384 Mg381 2.079 . S
O384 C394 1.264 . S
O385 Mg381 2.072 . S
O385 C395 1.260 . S
Mg386 O387 2.180 . S
Mg386 O388 2.030 . S
Mg386 O389 1.990 . S
Mg386 O390 2.117 1_545 S
O387 Mg381 2.099 . S
O387 Mg386 2.180 . S
O387 C396 1.279 1_545 S
O388 Mg386 2.030 . S
O388 C394 1.248 . S
O389 Mg386 1.990 . S
O389 C395 1.253 . S
O390 Mg386 2.117 1_565 S
O390 C396 1.250 . S
C391 O397 1.248 . S
C391 O398 1.264 . S
C392 O378 1.253 . S
C392 O380 1.260 . S
C393 O382 1.279 . S
C393 O383 1.250 . S
C394 O384 1.264 . S
C394 O388 1.248 . S
C395 O385 1.260 . S
C395 O389 1.253 . S
C396 O387 1.279 1_565 S
C396 O390 1.250 . S
O397 Mg379 2.030 1_565 S
O397 C391 1.248 . S
O398 Mg381 2.079 1_565 S
O398 C391 1.264 . S
O399 Mg400 1.990 . S
O399 C413 1.253 . S
Mg400 O399 1.990 . S
Mg400 O403 2.180 . S
Mg400 O404 2.117 . S
Mg400 O418 2.030 1_655 S
O401 Mg402 2.072 . S
O401 C413 1.260 . S
Mg402 O401 2.072 . S
Mg402 O403 2.099 . S
Mg402 O405 2.079 . S
Mg402 O406 2.072 . S
Mg402 O408 2.099 . S
Mg402 O419 2.079 1_655 S
O403 Mg400 2.180 . S
O403 Mg402 2.099 . S
O403 C414 1.279 . S
O404 Mg400 2.117 . S
O404 C414 1.250 . S
O405 Mg402 2.079 . S
O405 C415 1.264 . S
O406 Mg402 2.072 . S
O406 C416 1.260 . S
Mg407 O408 2.180 . S
Mg407 O409 2.030 . S
Mg407 O410 1.990 . S
Mg407 O411 2.117 1_655 S
O408 Mg402 2.099 . S
O408 Mg407 2.180 . S
O408 C417 1.279 1_655 S
O409 Mg407 2.030 . S
O409 C415 1.248 . S
O410 Mg407 1.990 . S
O410 C416 1.253 . S
O411 Mg407 2.117 1_455 S
O411 C417 1.250 . S
C412 O418 1.248 . S
C412 O419 1.264 . S
C413 O399 1.253 . S
C413 O401 1.260 . S
C414 O403 1.279 . S
C414 O404 1.250 . S
C415 O405 1.264 . S
C415 O409 1.248 . S
C416 O406 1.260 . S
C416 O410 1.253 . S
C417 O408 1.279 1_455 S
C417 O411 1.250 . S
O418 Mg400 2.030 1_455 S
O418 C412 1.248 . S
O419 Mg402 2.079 1_455 S
O419 C412 1.264 . S
O420 Mg421 1.990 . S
O420 C434 1.253 . S
Mg421 O420 1.990 . S
Mg421 O424 2.180 . S
Mg421 O425 2.117 . S
Mg421 O439 2.030 . S
O422 Mg423 2.072 . S
O422 C434 1.260 . S
Mg423 O422 2.072 . S
Mg423 O424 2.099 . S
Mg423 O426 2.079 . S
Mg423 O427 2.072 . S
Mg423 O429 2.099 . S
Mg423 O440 2.079 . S
O424 Mg421 2.180 . S
O424 Mg423 2.099 . S
O424 C435 1.279 . S
O425 Mg421 2.117 . S
O425 C435 1.250 . S
O426 Mg423 2.079 . S
O426 C436 1.264 . S
O427 Mg423 2.072 . S
O427 C437 1.260 . S
Mg428 O429 2.180 . S
Mg428 O430 2.030 . S
Mg428 O431 1.990 . S
Mg428 O432 2.117 . S
O429 Mg423 2.099 . S
O429 Mg428 2.180 . S
O429 C438 1.279 . S
O430 Mg428 2.030 . S
O430 C436 1.248 . S
O431 Mg428 1.990 . S
O431 C437 1.253 . S
O432 Mg428 2.117 . S
O432 C438 1.250 . S
C433 O439 1.248 . S
C433 O440 1.264 . S
C434 O420 1.253 . S
C434 O422 1.260 . S
C435 O424 1.279 . S
C435 O425 1.250 . S
C436 O426 1.264 . S
C436 O430 1.248 . S
C437 O427 1.260 . S
C437 O431 1.253 . S
C438 O429 1.279 . S
C438 O432 1.250 . S
O439 Mg421 2.030 . S
O439 C433 1.248 . S
O440 Mg423 2.079 . S
O440 C433 1.264 . S
O441 Mg442 1.990 . S
O441 C455 1.253 . S
Mg442 O441 1.990 . S
Mg442 O445 2.180 . S
Mg442 O446 2.117 1_545 S
Mg442 O460 2.030 . S
O443 Mg444 2.074 . S
O443 C455 1.265 . S
Mg444 O443 2.074 . S
Mg444 O445 2.099 . S
Mg444 O447 2.079 . S
Mg444 O448 2.072 1_554 S
Mg444 O450 2.099 1_554 S
Mg444 O461 2.079 . S
O445 Mg442 2.180 . S
O445 Mg444 2.099 . S
O445 C456 1.279 . S
O446 Mg442 2.117 1_565 S
O446 C456 1.250 1_565 S
O447 Mg444 2.079 . S
O447 C457 1.264 1_554 S
O448 Mg444 2.072 1_556 S
O448 C458 1.260 . S
Mg449 O450 2.180 . S
Mg449 O451 2.030 . S
Mg449 O452 1.990 . S
Mg449 O453 2.117 . S
O450 Mg444 2.099 1_556 S
O450 Mg449 2.180 . S
O450 C459 1.279 . S
O451 Mg449 2.030 . S
O451 C457 1.248 . S
O452 Mg449 1.990 . S
O452 C458 1.253 . S
O453 Mg449 2.117 . S
O453 C459 1.250 . S
C454 O460 1.248 . S
C454 O461 1.264 . S
C455 O441 1.253 . S
C455 O443 1.265 . S
C456 O445 1.279 . S
C456 O446 1.250 1_545 S
C457 O447 1.264 1_556 S
C457 O451 1.248 . S
C458 O448 1.260 . S
C458 O452 1.253 . S
C459 O450 1.279 . S
C459 O453 1.250 . S
O460 Mg442 2.030 . S
O460 C454 1.248 . S
O461 Mg444 2.079 . S
O461 C454 1.264 . S
O462 Mg463 1.990 . S
O462 C476 1.253 . S
Mg463 O462 1.990 . S
Mg463 O466 2.180 . S
Mg463 O467 2.117 1_655 S
Mg463 O481 2.030 . S
O464 Mg465 2.074 . S
O464 C476 1.265 . S
Mg465 O464 2.074 . S
Mg465 O466 2.099 . S
Mg465 O468 2.079 . S
Mg465 O469 2.072 1_554 S
Mg465 O471 2.099 1_554 S
Mg465 O482 2.079 . S
O466 Mg463 2.180 . S
O466 Mg465 2.099 . S
O466 C477 1.279 . S
O467 Mg463 2.117 1_455 S
O467 C477 1.250 1_455 S
O468 Mg465 2.079 . S
O468 C478 1.264 1_544 S
O469 Mg465 2.072 1_556 S
O469 C479 1.260 . S
Mg470 O471 2.180 . S
Mg470 O472 2.030 1_545 S
Mg470 O473 1.990 . S
Mg470 O474 2.117 . S
O471 Mg465 2.099 1_556 S
O471 Mg470 2.180 . S
O471 C480 1.279 . S
O472 Mg470 2.030 1_565 S
O472 C478 1.248 . S
O473 Mg470 1.990 . S
O473 C479 1.253 . S
O474 Mg470 2.117 . S
O474 C480 1.250 . S
C475 O481 1.248 . S
C475 O482 1.264 . S
C476 O462 1.253 . S
C476 O464 1.265 . S
C477 O466 1.279 . S
C477 O467 1.250 1_655 S
C478 O468 1.264 1_566 S
C478 O472 1.248 . S
C479 O469 1.260 . S
C479 O473 1.253 . S
C480 O471 1.279 . S
C480 O474 1.250 . S
O481 Mg463 2.030 . S
O481 C475 1.248 . S
O482 Mg465 2.079 . S
O482 C475 1.264 . S
O483 Mg484 1.990 . S
O483 C497 1.253 . S
Mg484 O483 1.990 . S
Mg484 O487 2.180 . S
Mg484 O488 2.117 . S
Mg484 O502 2.030 . S
O485 Mg486 2.074 . S
O485 C497 1.265 . S
Mg486 O485 2.074 . S
Mg486 O487 2.099 . S
Mg486 O489 2.079 . S
Mg486 O490 2.072 1_554 S
Mg486 O492 2.099 1_554 S
Mg486 O503 2.079 . S
O487 Mg484 2.180 . S
O487 Mg486 2.099 . S
O487 C498 1.279 . S
O488 Mg484 2.117 . S
O488 C498 1.250 . S
O489 Mg486 2.079 . S
O489 C499 1.264 1_654 S
O490 Mg486 2.072 1_556 S
O490 C500 1.260 . S
Mg491 O492 2.180 . S
Mg491 O493 2.030 1_655 S
Mg491 O494 1.990 . S
Mg491 O495 2.117 . S
O492 Mg486 2.099 1_556 S
O492 Mg491 2.180 . S
O492 C501 1.279 . S
O493 Mg491 2.030 1_455 S
O493 C499 1.248 . S
O494 Mg491 1.990 . S
O494 C500 1.253 . S
O495 Mg491 2.117 . S
O495 C501 1.250 . S
C496 O502 1.248 . S
C496 O503 1.264 . S
C497 O483 1.253 . S
C497 O485 1.265 . S
C498 O487 1.279 . S
C498 O488 1.250 . S
C499 O489 1.264 1_456 S
C499 O493 1.248 . S
C500 O490 1.260 . S
C500 O494 1.253 . S
C501 O492 1.279 . S
C501 O495 1.250 . S
O502 Mg484 2.030 . S
O502 C496 1.248 . S
O503 Mg486 2.079 . S
O503 C496 1.264 . S
O504 Mg505 1.990 . S
O504 C518 1.253 . S
Mg505 O504 1.990 . S
Mg505 O508 2.180 . S
Mg505 O509 2.117 1_565 S
Mg505 O523 2.030 . S
O506 Mg507 2.072 . S
O506 C518 1.260 . S
Mg507 O506 2.072 . S
Mg507 O508 2.099 . S
Mg507 O510 2.079 1_565 S
Mg507 O511 2.072 . S
Mg507 O513 2.099 . S
Mg507 O524 2.079 . S
O508 Mg505 2.180 . S
O508 Mg507 2.099 . S
O508 C519 1.279 1_565 S
O509 Mg505 2.117 1_545 S
O509 C519 1.250 . S
O510 Mg507 2.079 1_545 S
O510 C520 1.264 . S
O511 Mg507 2.072 . S
O511 C521 1.260 . S
Mg512 O513 2.180 . S
Mg512 O514 2.030 1_565 S
Mg512 O515 1.990 . S
Mg512 O516 2.117 . S
O513 Mg507 2.099 . S
O513 Mg512 2.180 . S
O513 C522 1.279 . S
O514 Mg512 2.030 1_545 S
O514 C520 1.248 . S
O515 Mg512 1.990 . S
O515 C521 1.253 . S
O516 Mg512 2.117 . S
O516 C522 1.250 . S
C517 O523 1.248 . S
C517 O524 1.264 . S
C518 O504 1.253 . S
C518 O506 1.260 . S
C519 O508 1.279 1_545 S
C519 O509 1.250 . S
C520 O510 1.264 . S
C520 O514 1.248 . S
C521 O511 1.260 . S
C521 O515 1.253 . S
C522 O513 1.279 . S
C522 O516 1.250 . S
O523 Mg505 2.030 . S
O523 C517 1.248 . S
O524 Mg507 2.079 . S
O524 C517 1.264 . S
O525 Mg526 1.990 . S
O525 C539 1.253 . S
Mg526 O525 1.990 . S
Mg526 O529 2.180 . S
Mg526 O530 2.117 1_455 S
Mg526 O544 2.030 . S
O527 Mg528 2.072 . S
O527 C539 1.260 . S
Mg528 O527 2.072 . S
Mg528 O529 2.099 . S
Mg528 O531 2.079 1_455 S
Mg528 O532 2.072 . S
Mg528 O534 2.099 . S
Mg528 O545 2.079 . S
O529 Mg526 2.180 . S
O529 Mg528 2.099 . S
O529 C540 1.279 1_455 S
O530 Mg526 2.117 1_655 S
O530 C540 1.250 . S
O531 Mg528 2.079 1_655 S
O531 C541 1.264 . S
O532 Mg528 2.072 . S
O532 C542 1.260 . S
Mg533 O534 2.180 . S
Mg533 O535 2.030 1_455 S
Mg533 O536 1.990 . S
Mg533 O537 2.117 . S
O534 Mg528 2.099 . S
O534 Mg533 2.180 . S
O534 C543 1.279 . S
O535 Mg533 2.030 1_655 S
O535 C541 1.248 . S
O536 Mg533 1.990 . S
O536 C542 1.253 . S
O537 Mg533 2.117 . S
O537 C543 1.250 . S
C538 O544 1.248 . S
C538 O545 1.264 . S
C539 O525 1.253 . S
C539 O527 1.260 . S
C540 O529 1.279 1_655 S
C540 O530 1.250 . S
C541 O531 1.264 . S
C541 O535 1.248 . S
C542 O532 1.260 . S
C542 O536 1.253 . S
C543 O534 1.279 . S
C543 O537 1.250 . S
O544 Mg526 2.030 . S
O544 C538 1.248 . S
O545 Mg528 2.079 . S
O545 C538 1.264 . S
O546 Mg547 1.990 . S
O546 C560 1.253 . S
Mg547 O546 1.990 . S
Mg547 O550 2.180 . S
Mg547 O551 2.117 . S
Mg547 O565 2.030 . S
O548 Mg549 2.072 . S
O548 C560 1.260 . S
Mg549 O548 2.072 . S
Mg549 O550 2.099 . S
Mg549 O552 2.079 . S
Mg549 O553 2.072 . S
Mg549 O555 2.099 . S
Mg549 O566 2.079 . S
O550 Mg547 2.180 . S
O550 Mg549 2.099 . S
O550 C561 1.279 . S
O551 Mg547 2.117 . S
O551 C561 1.250 . S
O552 Mg549 2.079 . S
O552 C562 1.264 . S
O553 Mg549 2.072 . S
O553 C563 1.260 . S
Mg554 O555 2.180 . S
Mg554 O556 2.030 . S
Mg554 O557 1.990 . S
Mg554 O558 2.117 . S
O555 Mg549 2.099 . S
O555 Mg554 2.180 . S
O555 C564 1.279 . S
O556 Mg554 2.030 . S
O556 C562 1.248 . S
O557 Mg554 1.990 . S
O557 C563 1.253 . S
O558 Mg554 2.117 . S
O558 C564 1.250 . S
C559 O565 1.248 . S
C559 O566 1.264 . S
C560 O546 1.253 . S
C560 O548 1.260 . S
C561 O550 1.279 . S
C561 O551 1.250 . S
C562 O552 1.264 . S
C562 O556 1.248 . S
C563 O553 1.260 . S
C563 O557 1.253 . S
C564 O555 1.279 . S
C564 O558 1.250 . S
O565 Mg547 2.030 . S
O565 C559 1.248 . S
O566 Mg549 2.079 . S
O566 C559 1.264 . S
O567 Mg568 1.990 . S
O567 C581 1.253 . S
Mg568 O567 1.990 . S
Mg568 O571 2.180 . S
Mg568 O572 2.117 1_565 S
Mg568 O586 2.030 . S
O569 Mg570 2.074 . S
O569 C581 1.265 . S
Mg570 O569 2.074 . S
Mg570 O571 2.099 . S
Mg570 O573 2.079 . S
Mg570 O574 2.072 1_556 S
Mg570 O576 2.099 1_556 S
Mg570 O587 2.079 . S
O571 Mg568 2.180 . S
O571 Mg570 2.099 . S
O571 C582 1.279 . S
O572 Mg568 2.117 1_545 S
O572 C582 1.250 1_545 S
O573 Mg570 2.079 . S
O573 C583 1.264 1_556 S
O574 Mg570 2.072 1_554 S
O574 C584 1.260 . S
Mg575 O576 2.180 . S
Mg575 O577 2.030 . S
Mg575 O578 1.990 . S
Mg575 O579 2.117 . S
O576 Mg570 2.099 1_554 S
O576 Mg575 2.180 . S
O576 C585 1.279 . S
O577 Mg575 2.030 . S
O577 C583 1.248 . S
O578 Mg575 1.990 . S
O578 C584 1.253 . S
O579 Mg575 2.117 . S
O579 C585 1.250 . S
C580 O586 1.248 . S
C580 O587 1.264 . S
C581 O567 1.253 . S
C581 O569 1.265 . S
C582 O571 1.279 . S
C582 O572 1.250 1_565 S
C583 O573 1.264 1_554 S
C583 O577 1.248 . S
C584 O574 1.260 . S
C584 O578 1.253 . S
C585 O576 1.279 . S
C585 O579 1.250 . S
O586 Mg568 2.030 . S
O586 C580 1.248 . S
O587 Mg570 2.079 . S
O587 C580 1.264 . S
O588 Mg589 1.990 . S
O588 C602 1.253 . S
Mg589 O588 1.990 . S
Mg589 O592 2.180 . S
Mg589 O593 2.117 1_455 S
Mg589 O607 2.030 . S
O590 Mg591 2.074 . S
O590 C602 1.265 . S
Mg591 O590 2.074 . S
Mg591 O592 2.099 . S
Mg591 O594 2.079 . S
Mg591 O595 2.072 1_556 S
Mg591 O597 2.099 1_556 S
Mg591 O608 2.079 . S
O592 Mg589 2.180 . S
O592 Mg591 2.099 . S
O592 C603 1.279 . S
O593 Mg589 2.117 1_655 S
O593 C603 1.250 1_655 S
O594 Mg591 2.079 . S
O594 C604 1.264 1_566 S
O595 Mg591 2.072 1_554 S
O595 C605 1.260 . S
Mg596 O597 2.180 . S
Mg596 O598 2.030 1_565 S
Mg596 O599 1.990 . S
Mg596 O600 2.117 . S
O597 Mg591 2.099 1_554 S
O597 Mg596 2.180 . S
O597 C606 1.279 . S
O598 Mg596 2.030 1_545 S
O598 C604 1.248 . S
O599 Mg596 1.990 . S
O599 C605 1.253 . S
O600 Mg596 2.117 . S
O600 C606 1.250 . S
C601 O607 1.248 . S
C601 O608 1.264 . S
C602 O588 1.253 . S
C602 O590 1.265 . S
C603 O592 1.279 . S
C603 O593 1.250 1_455 S
C604 O594 1.264 1_544 S
C604 O598 1.248 . S
C605 O595 1.260 . S
C605 O599 1.253 . S
C606 O597 1.279 . S
C606 O600 1.250 . S
O607 Mg589 2.030 . S
O607 C601 1.248 . S
O608 Mg591 2.079 . S
O608 C601 1.264 . S
O609 Mg610 1.990 . S
O609 C623 1.253 . S
Mg610 O609 1.990 . S
Mg610 O613 2.180 . S
Mg610 O614 2.117 . S
Mg610 O628 2.030 . S
O611 Mg612 2.074 . S
O611 C623 1.265 . S
Mg612 O611 2.074 . S
Mg612 O613 2.099 . S
Mg612 O615 2.079 . S
Mg612 O616 2.072 1_556 S
Mg612 O618 2.099 1_556 S
Mg612 O629 2.079 . S
O613 Mg610 2.180 . S
O613 Mg612 2.099 . S
O613 C624 1.279 . S
O614 Mg610 2.117 . S
O614 C624 1.250 . S
O615 Mg612 2.079 . S
O615 C625 1.264 1_456 S
O616 Mg612 2.072 1_554 S
O616 C626 1.260 . S
Mg617 O618 2.180 . S
Mg617 O619 2.030 1_455 S
Mg617 O620 1.990 . S
Mg617 O621 2.117 . S
O618 Mg612 2.099 1_554 S
O618 Mg617 2.180 . S
O618 C627 1.279 . S
O619 Mg617 2.030 1_655 S
O619 C625 1.248 . S
O620 Mg617 1.990 . S
O620 C626 1.253 . S
O621 Mg617 2.117 . S
O621 C627 1.250 . S
C622 O628 1.248 . S
C622 O629 1.264 . S
C623 O609 1.253 . S
C623 O611 1.265 . S
C624 O613 1.279 . S
C624 O614 1.250 . S
C625 O615 1.264 1_654 S
C625 O619 1.248 . S
C626 O616 1.260 . S
C626 O620 1.253 . S
C627 O618 1.279 . S
C627 O621 1.250 . S
O628 Mg610 2.030 . S
O628 C622 1.248 . S
O629 Mg612 2.079 . S
O629 C622 1.264 . S
O630 Mg631 1.990 . S
O630 C644 1.253 . S
Mg631 O630 1.990 . S
Mg631 O634 2.180 . S
Mg631 O635 2.117 . S
Mg631 O649 2.030 . S
O632 Mg633 2.072 . S
O632 C644 1.260 . S
Mg633 O632 2.072 . S
Mg633 O634 2.099 . S
Mg633 O636 2.079 . S
Mg633 O637 2.072 . S
Mg633 O639 2.099 . S
Mg633 O650 2.079 . S
O634 Mg631 2.180 . S
O634 Mg633 2.099 . S
O634 C645 1.279 . S
O635 Mg631 2.117 . S
O635 C645 1.250 . S
O636 Mg633 2.079 . S
O636 C646 1.264 . S
O637 Mg633 2.072 . S
O637 C647 1.260 . S
Mg638 O639 2.180 . S
Mg638 O640 2.030 . S
Mg638 O641 1.990 . S
Mg638 O642 2.117 1_455 S
O639 Mg633 2.099 . S
O639 Mg638 2.180 . S
O639 C648 1.279 . S
O640 Mg638 2.030 . S
O640 C646 1.248 . S
O641 Mg638 1.990 . S
O641 C647 1.253 . S
O642 Mg638 2.117 1_655 S
O642 C648 1.250 1_655 S
C643 O649 1.248 . S
C643 O650 1.264 . S
C644 O630 1.253 . S
C644 O632 1.260 . S
C645 O634 1.279 . S
C645 O635 1.250 . S
C646 O636 1.264 . S
C646 O640 1.248 . S
C647 O637 1.260 . S
C647 O641 1.253 . S
C648 O639 1.279 . S
C648 O642 1.250 1_455 S
O649 Mg631 2.030 . S
O649 C643 1.248 . S
O650 Mg633 2.079 . S
O650 C643 1.264 . S
O651 Mg652 1.990 . S
O651 C665 1.253 . S
Mg652 O651 1.990 . S
Mg652 O655 2.180 . S
Mg652 O656 2.117 . S
Mg652 O670 2.030 1_565 S
O653 Mg654 2.072 . S
O653 C665 1.260 . S
Mg654 O653 2.072 . S
Mg654 O655 2.099 . S
Mg654 O657 2.079 . S
Mg654 O658 2.072 . S
Mg654 O660 2.099 . S
Mg654 O671 2.079 . S
O655 Mg652 2.180 . S
O655 Mg654 2.099 . S
O655 C666 1.279 . S
O656 Mg652 2.117 . S
O656 C666 1.250 . S
O657 Mg654 2.079 . S
O657 C667 1.264 . S
O658 Mg654 2.072 . S
O658 C668 1.260 . S
Mg659 O660 2.180 . S
Mg659 O661 2.030 . S
Mg659 O662 1.990 . S
Mg659 O663 2.117 . S
O660 Mg654 2.099 . S
O660 Mg659 2.180 . S
O660 C669 1.279 . S
O661 Mg659 2.030 . S
O661 C667 1.248 . S
O662 Mg659 1.990 . S
O662 C668 1.253 . S
O663 Mg659 2.117 . S
O663 C669 1.250 . S
C664 O670 1.248 . S
C664 O671 1.264 1_545 S
C665 O651 1.253 . S
C665 O653 1.260 . S
C666 O655 1.279 . S
C666 O656 1.250 . S
C667 O657 1.264 . S
C667 O661 1.248 . S
C668 O658 1.260 . S
C668 O662 1.253 . S
C669 O660 1.279 . S
C669 O663 1.250 . S
O670 Mg652 2.030 1_545 S
O670 C664 1.248 . S
O671 Mg654 2.079 . S
O671 C664 1.264 1_565 S
O672 Mg673 1.990 . S
O672 C686 1.253 . S
Mg673 O672 1.990 . S
Mg673 O676 2.180 . S
Mg673 O677 2.117 . S
Mg673 O691 2.030 1_455 S
O674 Mg675 2.072 . S
O674 C686 1.260 . S
Mg675 O674 2.072 . S
Mg675 O676 2.099 . S
Mg675 O678 2.079 . S
Mg675 O679 2.072 . S
Mg675 O681 2.099 . S
Mg675 O692 2.079 . S
O676 Mg673 2.180 . S
O676 Mg675 2.099 . S
O676 C687 1.279 . S
O677 Mg673 2.117 . S
O677 C687 1.250 . S
O678 Mg675 2.079 . S
O678 C688 1.264 . S
O679 Mg675 2.072 . S
O679 C689 1.260 . S
Mg680 O681 2.180 . S
Mg680 O682 2.030 . S
Mg680 O683 1.990 . S
Mg680 O684 2.117 1_565 S
O681 Mg675 2.099 . S
O681 Mg680 2.180 . S
O681 C690 1.279 . S
O682 Mg680 2.030 . S
O682 C688 1.248 . S
O683 Mg680 1.990 . S
O683 C689 1.253 . S
O684 Mg680 2.117 1_545 S
O684 C690 1.250 1_545 S
C685 O691 1.248 . S
C685 O692 1.264 1_655 S
C686 O672 1.253 . S
C686 O674 1.260 . S
C687 O676 1.279 . S
C687 O677 1.250 . S
C688 O678 1.264 . S
C688 O682 1.248 . S
C689 O679 1.260 . S
C689 O683 1.253 . S
C690 O681 1.279 . S
C690 O684 1.250 1_565 S
O691 Mg673 2.030 1_655 S
O691 C685 1.248 . S
O692 Mg675 2.079 . S
O692 C685 1.264 1_455 S
O693 Mg694 1.990 . S
O693 C707 1.253 . S
Mg694 O693 1.990 . S
Mg694 O697 2.180 . S
Mg694 O698 2.117 1_455 S
Mg694 O712 2.030 . S
O695 Mg696 2.072 . S
O695 C707 1.260 . S
Mg696 O695 2.072 . S
Mg696 O697 2.099 . S
Mg696 O699 2.079 1_455 S
Mg696 O700 2.072 . S
Mg696 O702 2.099 . S
Mg696 O713 2.079 . S
O697 Mg694 2.180 . S
O697 Mg696 2.099 . S
O697 C708 1.279 1_455 S
O698 Mg694 2.117 1_655 S
O698 C708 1.250 . S
O699 Mg696 2.079 1_655 S
O699 C709 1.264 . S
O700 Mg696 2.072 . S
O700 C710 1.260 . S
Mg701 O702 2.180 . S
Mg701 O703 2.030 1_455 S
Mg701 O704 1.990 . S
Mg701 O705 2.117 . S
O702 Mg696 2.099 . S
O702 Mg701 2.180 . S
O702 C711 1.279 . S
O703 Mg701 2.030 1_655 S
O703 C709 1.248 . S
O704 Mg701 1.990 . S
O704 C710 1.253 . S
O705 Mg701 2.117 . S
O705 C711 1.250 . S
C706 O712 1.248 . S
C706 O713 1.264 . S
C707 O693 1.253 . S
C707 O695 1.260 . S
C708 O697 1.279 1_655 S
C708 O698 1.250 . S
C709 O699 1.264 . S
C709 O703 1.248 . S
C710 O700 1.260 . S
C710 O704 1.253 . S
C711 O702 1.279 . S
C711 O705 1.250 . S
O712 Mg694 2.030 . S
O712 C706 1.248 . S
O713 Mg696 2.079 . S
O713 C706 1.264 . S
O714 Mg715 1.990 . S
O714 C728 1.253 . S
Mg715 O714 1.990 . S
Mg715 O718 2.180 . S
Mg715 O719 2.117 . S
Mg715 O733 2.030 . S
O716 Mg717 2.072 . S
O716 C728 1.260 . S
Mg717 O716 2.072 . S
Mg717 O718 2.099 . S
Mg717 O720 2.079 . S
Mg717 O721 2.072 . S
Mg717 O723 2.099 . S
Mg717 O734 2.079 . S
O718 Mg715 2.180 . S
O718 Mg717 2.099 . S
O718 C729 1.279 . S
O719 Mg715 2.117 . S
O719 C729 1.250 . S
O720 Mg717 2.079 . S
O720 C730 1.264 . S
O721 Mg717 2.072 . S
O721 C731 1.260 . S
Mg722 O723 2.180 . S
Mg722 O724 2.030 . S
Mg722 O725 1.990 . S
Mg722 O726 2.117 . S
O723 Mg717 2.099 . S
O723 Mg722 2.180 . S
O723 C732 1.279 . S
O724 Mg722 2.030 . S
O724 C730 1.248 . S
O725 Mg722 1.990 . S
O725 C731 1.253 . S
O726 Mg722 2.117 . S
O726 C732 1.250 . S
C727 O733 1.248 . S
C727 O734 1.264 . S
C728 O714 1.253 . S
C728 O716 1.260 . S
C729 O718 1.279 . S
C729 O719 1.250 . S
C730 O720 1.264 . S
C730 O724 1.248 . S
C731 O721 1.260 . S
C731 O725 1.253 . S
C732 O723 1.279 . S
C732 O726 1.250 . S
O733 Mg715 2.030 . S
O733 C727 1.248 . S
O734 Mg717 2.079 . S
O734 C727 1.264 . S
O735 Mg736 1.990 . S
O735 C749 1.253 . S
Mg736 O735 1.990 . S
Mg736 O739 2.180 . S
Mg736 O740 2.117 1_565 S
Mg736 O754 2.030 . S
O737 Mg738 2.072 . S
O737 C749 1.260 . S
Mg738 O737 2.072 . S
Mg738 O739 2.099 . S
Mg738 O741 2.079 1_565 S
Mg738 O742 2.072 . S
Mg738 O744 2.099 . S
Mg738 O755 2.079 . S
O739 Mg736 2.180 . S
O739 Mg738 2.099 . S
O739 C750 1.279 1_565 S
O740 Mg736 2.117 1_545 S
O740 C750 1.250 . S
O741 Mg738 2.079 1_545 S
O741 C751 1.264 . S
O742 Mg738 2.072 . S
O742 C752 1.260 . S
Mg743 O744 2.180 . S
Mg743 O745 2.030 1_565 S
Mg743 O746 1.990 . S
Mg743 O747 2.117 . S
O744 Mg738 2.099 . S
O744 Mg743 2.180 . S
O744 C753 1.279 . S
O745 Mg743 2.030 1_545 S
O745 C751 1.248 . S
O746 Mg743 1.990 . S
O746 C752 1.253 . S
O747 Mg743 2.117 . S
O747 C753 1.250 . S
C748 O754 1.248 . S
C748 O755 1.264 . S
C749 O735 1.253 . S
C749 O737 1.260 . S
C750 O739 1.279 1_545 S
C750 O740 1.250 . S
C751 O741 1.264 . S
C751 O745 1.248 . S
C752 O742 1.260 . S
C752 O746 1.253 . S
C753 O744 1.279 . S
C753 O747 1.250 . S
O754 Mg736 2.030 . S
O754 C748 1.248 . S
O755 Mg738 2.079 . S
O755 C748 1.264 . S
C14 C60 1.864 . S
C18 C35 1.864 . S
C56 C39 1.864 . S
C77 C102 1.864 . S
C123 C98 1.864 . S
C119 C81 1.864 . S
C143 C183 1.864 . S
C164 C141 1.864 . S
C185 C162 1.864 . S
C203 C228 1.864 . S
C249 C224 1.864 . S
C207 C245 1.864 . S
C312 C266 1.864 . S
C287 C270 1.864 . S
C291 C308 1.864 . S
C329 C354 1.864 . S
C375 C350 1.864 . S
C333 C371 1.864 . S
C395 C435 1.864 . S
C416 C393 1.864 . S
C414 C437 1.864 . S
C480 C455 1.864 1_556 S
C476 C501 1.864 1_554 S
C459 C497 1.864 1_556 S
C518 C564 1.864 . S
C539 C522 1.864 . S
C560 C543 1.864 . S
C581 C606 1.864 1_556 S
C602 C627 1.864 1_556 S
C623 C585 1.864 1_556 S
C647 C687 1.864 . S
C668 C645 1.864 . S
C666 C689 1.864 . S
C707 C732 1.864 . S
C728 C753 1.864 . S
C711 C749 1.864 . S
C15 C433 0.612 . S
C391 C36 0.612 . S
C57 C412 0.612 . S
C78 C730 0.612 . S
C751 C99 0.611 . S
C120 C709 0.612 . S
C562 C144 0.612 . S
C165 C520 0.612 . S
C186 C541 0.612 . S
C352 C204 0.612 . S
C373 C225 0.611 . S
C331 C246 0.612 . S
C267 C685 0.612 . S
C288 C643 0.612 . S
C664 C309 0.612 . S
C226 C330 0.612 . S
C247 C351 0.611 . S
C205 C372 0.612 . S
C58 C396 0.612 . S
C417 C16 0.612 . S
C438 C37 0.612 . S
C604 C456 0.610 . S
C625 C477 0.609 . S
C498 C583 0.610 . S
C181 C519 0.612 . S
C139 C540 0.612 . S
C160 C561 0.612 . S
C582 C478 0.610 . S
C499 C603 0.609 . S
C624 C457 0.610 . S
C648 C310 0.612 . S
C669 C268 0.612 . S
C690 C289 0.612 . S
C708 C100 0.612 . S
C121 C729 0.611 . S
C79 C750 0.612 . S
C626 C17 1.903 . S
C584 C38 1.903 . S
C59 C605 1.903 . S
C290 C80 1.906 . S
C101 C311 1.906 . S
C122 C269 1.906 . S
C140 C500 1.903 . S
C161 C458 1.903 . S
C182 C479 1.903 . S
C665 C206 1.906 . S
C686 C227 1.906 . S
C644 C248 1.906 . S
C332 C542 1.906 1_655 S
C353 C563 1.906 . S
C374 C521 1.906 1_545 S
C392 C752 1.906 1_545 S
C710 C413 1.906 1_455 S
C434 C731 1.906 . S
C97 C13 2.694 1_655 S
C118 C34 2.694 . S
C76 C55 2.694 1_545 S
C142 C223 2.694 1_655 S
C244 C163 2.694 . S
C184 C202 2.694 1_545 S
C349 C265 2.694 . S
C370 C286 2.694 . S
C328 C307 2.694 . S
C475 C394 2.695 . S
C415 C496 2.695 . S
C436 C454 2.695 . S
C517 C601 2.695 . S
C622 C538 2.695 . S
C559 C580 2.695 . S
C646 C727 2.694 . S
C748 C667 2.694 . S
C688 C706 2.694 . S
