# Generated by pormake.
# Topology snl, (6)-cn, num edge types: 1
# Building blocks:
#     Node 0, Type 0, BuildingBlock: MIDCAF_clean_sbu_0, # of connection points: 6
#     Node 1, Type 0, BuildingBlock: MIDCAF_clean_sbu_0, # of connection points: 6
#     Node 2, Type 0, BuildingBlock: MIDCAF_clean_sbu_0, # of connection points: 6
#     Node 3, Type 0, BuildingBlock: MIDCAF_clean_sbu_0, # of connection points: 6
#     Node 4, Type 0, BuildingBlock: MIDCAF_clean_sbu_0, # of connection points: 6
#     Node 5, Type 0, BuildingBlock: MIDCAF_clean_sbu_0, # of connection points: 6
#     Node 6, Type 0, BuildingBlock: MIDCAF_clean_sbu_0, # of connection points: 6
#     Node 7, Type 0, BuildingBlock: MIDCAF_clean_sbu_0, # of connection points: 6
#     Node 8, Type 0, BuildingBlock: MIDCAF_clean_sbu_0, # of connection points: 6
#     Node 9, Type 0, BuildingBlock: MIDCAF_clean_sbu_0, # of connection points: 6
#     Node 10, Type 0, BuildingBlock: MIDCAF_clean_sbu_0, # of connection points: 6
#     Node 11, Type 0, BuildingBlock: MIDCAF_clean_sbu_0, # of connection points: 6
#     Node 12, Type 0, BuildingBlock: MIDCAF_clean_sbu_0, # of connection points: 6
#     Node 13, Type 0, BuildingBlock: MIDCAF_clean_sbu_0, # of connection points: 6
#     Node 14, Type 0, BuildingBlock: MIDCAF_clean_sbu_0, # of connection points: 6
#     Node 15, Type 0, BuildingBlock: MIDCAF_clean_sbu_0, # of connection points: 6
#     Edge 16, Type (0, 0), BuildingBlock: XIVTED_clean_linker_0, # of connection points: 2
#     Edge 17, Type (0, 0), BuildingBlock: XIVTED_clean_linker_0, # of connection points: 2
#     Edge 18, Type (0, 0), BuildingBlock: XIVTED_clean_linker_0, # of connection points: 2
#     Edge 19, Type (0, 0), BuildingBlock: XIVTED_clean_linker_0, # of connection points: 2
#     Edge 20, Type (0, 0), BuildingBlock: XIVTED_clean_linker_0, # of connection points: 2
#     Edge 21, Type (0, 0), BuildingBlock: XIVTED_clean_linker_0, # of connection points: 2
#     Edge 22, Type (0, 0), BuildingBlock: XIVTED_clean_linker_0, # of connection points: 2
#     Edge 23, Type (0, 0), BuildingBlock: XIVTED_clean_linker_0, # of connection points: 2
#     Edge 24, Type (0, 0), BuildingBlock: XIVTED_clean_linker_0, # of connection points: 2
#     Edge 25, Type (0, 0), BuildingBlock: XIVTED_clean_linker_0, # of connection points: 2
#     Edge 26, Type (0, 0), BuildingBlock: XIVTED_clean_linker_0, # of connection points: 2
#     Edge 27, Type (0, 0), BuildingBlock: XIVTED_clean_linker_0, # of connection points: 2
#     Edge 28, Type (0, 0), BuildingBlock: XIVTED_clean_linker_0, # of connection points: 2
#     Edge 29, Type (0, 0), BuildingBlock: XIVTED_clean_linker_0, # of connection points: 2
#     Edge 30, Type (0, 0), BuildingBlock: XIVTED_clean_linker_0, # of connection points: 2
#     Edge 31, Type (0, 0), BuildingBlock: XIVTED_clean_linker_0, # of connection points: 2
#     Edge 32, Type (0, 0), BuildingBlock: XIVTED_clean_linker_0, # of connection points: 2
#     Edge 33, Type (0, 0), BuildingBlock: XIVTED_clean_linker_0, # of connection points: 2
#     Edge 34, Type (0, 0), BuildingBlock: XIVTED_clean_linker_0, # of connection points: 2
#     Edge 35, Type (0, 0), BuildingBlock: XIVTED_clean_linker_0, # of connection points: 2
#     Edge 36, Type (0, 0), BuildingBlock: XIVTED_clean_linker_0, # of connection points: 2
#     Edge 37, Type (0, 0), BuildingBlock: XIVTED_clean_linker_0, # of connection points: 2
#     Edge 38, Type (0, 0), BuildingBlock: XIVTED_clean_linker_0, # of connection points: 2
#     Edge 39, Type (0, 0), BuildingBlock: XIVTED_clean_linker_0, # of connection points: 2
#     Edge 40, Type (0, 0), BuildingBlock: XIVTED_clean_linker_0, # of connection points: 2
#     Edge 41, Type (0, 0), BuildingBlock: XIVTED_clean_linker_0, # of connection points: 2
#     Edge 42, Type (0, 0), BuildingBlock: XIVTED_clean_linker_0, # of connection points: 2
#     Edge 43, Type (0, 0), BuildingBlock: XIVTED_clean_linker_0, # of connection points: 2
#     Edge 44, Type (0, 0), BuildingBlock: XIVTED_clean_linker_0, # of connection points: 2
#     Edge 45, Type (0, 0), BuildingBlock: XIVTED_clean_linker_0, # of connection points: 2
#     Edge 46, Type (0, 0), BuildingBlock: XIVTED_clean_linker_0, # of connection points: 2
#     Edge 47, Type (0, 0), BuildingBlock: XIVTED_clean_linker_0, # of connection points: 2
#     Edge 48, Type (0, 0), BuildingBlock: XIVTED_clean_linker_0, # of connection points: 2
#     Edge 49, Type (0, 0), BuildingBlock: XIVTED_clean_linker_0, # of connection points: 2
#     Edge 50, Type (0, 0), BuildingBlock: XIVTED_clean_linker_0, # of connection points: 2
#     Edge 51, Type (0, 0), BuildingBlock: XIVTED_clean_linker_0, # of connection points: 2
#     Edge 52, Type (0, 0), BuildingBlock: XIVTED_clean_linker_0, # of connection points: 2
#     Edge 53, Type (0, 0), BuildingBlock: XIVTED_clean_linker_0, # of connection points: 2
#     Edge 54, Type (0, 0), BuildingBlock: XIVTED_clean_linker_0, # of connection points: 2
#     Edge 55, Type (0, 0), BuildingBlock: XIVTED_clean_linker_0, # of connection points: 2
#     Edge 56, Type (0, 0), BuildingBlock: XIVTED_clean_linker_0, # of connection points: 2
#     Edge 57, Type (0, 0), BuildingBlock: XIVTED_clean_linker_0, # of connection points: 2
#     Edge 58, Type (0, 0), BuildingBlock: XIVTED_clean_linker_0, # of connection points: 2
#     Edge 59, Type (0, 0), BuildingBlock: XIVTED_clean_linker_0, # of connection points: 2
#     Edge 60, Type (0, 0), BuildingBlock: XIVTED_clean_linker_0, # of connection points: 2
#     Edge 61, Type (0, 0), BuildingBlock: XIVTED_clean_linker_0, # of connection points: 2
#     Edge 62, Type (0, 0), BuildingBlock: XIVTED_clean_linker_0, # of connection points: 2
#     Edge 63, Type (0, 0), BuildingBlock: XIVTED_clean_linker_0, # of connection points: 2
# Relax obj value: 0.110
# Max RMSD: 0.168
# Mean RMSD: 0.168
data_MOF--net-snl--node1-MIDCAF_clean_sbu_0--edge1-XIVTED_clean_linker_0
_symmetry_space_group_name_H-M    P1
_symmetry_Int_Tables_number       1
_symmetry_cell_setting            triclinic
loop_
_symmetry_equiv_pos_as_xyz
'x, y, z'
_cell_length_a     60.149162
_cell_length_b     59.949363
_cell_length_c     15.418221
_cell_angle_alpha  90.069622
_cell_angle_beta   90.022166
_cell_angle_gamma 89.920775
loop_
_atom_site_label
_atom_site_type_symbol
_atom_site_fract_x
_atom_site_fract_y
_atom_site_fract_z
_atom_type_partial_charge
Zn0 Zn 0.10968 0.60658 0.29314 0.0
Zn1 Zn 0.17014 0.65847 0.17778 0.0
Zn2 Zn 0.14065 0.62951 0.22202 0.0
C3 C 0.13311 0.68355 0.19792 0.0
C4 C 0.19019 0.63587 0.3086 0.0
O5 O 0.13764 0.59987 0.13707 0.0
O6 O 0.1108 0.58238 0.20758 0.0
C7 C 0.08841 0.64476 0.25017 0.0
O8 O 0.12542 0.66347 0.20198 0.0
O9 O 0.15381 0.6868 0.1961 0.0
O10 O 0.19496 0.65093 0.25491 0.0
O11 O 0.17047 0.62735 0.30987 0.0
O12 O 0.084 0.62673 0.28827 0.0
O13 O 0.10834 0.64864 0.22292 0.0
O14 O 0.15157 0.61949 0.35495 0.0
O15 O 0.12302 0.60049 0.40645 0.0
C16 C 0.14225 0.6084 0.41677 0.0
O17 O 0.15132 0.61649 0.09655 0.0
O18 O 0.17171 0.6455 0.05821 0.0
C19 C 0.12462 0.583 0.14609 0.0
C20 C 0.1632 0.62678 0.03992 0.0
Zn21 Zn 0.65501 0.8386 0.36474 0.0
Zn22 Zn 0.59792 0.89033 0.23817 0.0
Zn23 Zn 0.62651 0.86501 0.30422 0.0
C24 C 0.5778 0.87514 0.38515 0.0
C25 C 0.63406 0.9177 0.25836 0.0
O26 O 0.65765 0.88505 0.32902 0.0
O27 O 0.6791 0.8594 0.38919 0.0
C28 C 0.64441 0.8187 0.21348 0.0
O29 O 0.59624 0.86416 0.38841 0.0
O30 O 0.57463 0.88942 0.32659 0.0
O31 O 0.61481 0.91789 0.22612 0.0
O32 O 0.64171 0.89957 0.29283 0.0
O33 O 0.65915 0.8169 0.27111 0.0
O34 O 0.63084 0.83544 0.21496 0.0
O35 O 0.61391 0.85312 0.43289 0.0
O36 O 0.63929 0.8282 0.46893 0.0
C37 C 0.62166 0.83861 0.48697 0.0
O38 O 0.61795 0.85192 0.17131 0.0
O39 O 0.5913 0.87484 0.12954 0.0
C40 C 0.67609 0.87929 0.36577 0.0
C41 C 0.60358 0.85827 0.11402 0.0
Zn42 Zn 0.39424 0.41897 0.47055 0.0
Zn43 Zn 0.35294 0.35571 0.35451 0.0
Zn44 Zn 0.37235 0.3893 0.41831 0.0
C45 C 0.35046 0.38803 0.22834 0.0
C46 C 0.3926 0.33806 0.40337 0.0
O47 O 0.3602 0.39784 0.54929 0.0
O48 O 0.39102 0.41378 0.59573 0.0
C49 C 0.36642 0.43951 0.35966 0.0
O50 O 0.3597 0.39942 0.2895 0.0
O51 O 0.34644 0.36757 0.23888 0.0
O52 O 0.37488 0.33162 0.3676 0.0
O53 O 0.39518 0.35898 0.42217 0.0
O54 O 0.37659 0.44415 0.42861 0.0
O55 O 0.36561 0.41908 0.33313 0.0
O56 O 0.40791 0.37848 0.4136 0.0
O57 O 0.42223 0.41219 0.40902 0.0
C58 C 0.42453 0.39146 0.39852 0.0
O59 O 0.34421 0.38396 0.50744 0.0
O60 O 0.328 0.35626 0.43717 0.0
C61 C 0.37174 0.4065 0.61114 0.0
C62 C 0.32792 0.37025 0.49842 0.0
Zn63 Zn 0.85693 0.16762 0.93809 0.0
Zn64 Zn 0.91426 0.11698 0.79982 0.0
Zn65 Zn 0.88408 0.14001 0.87138 0.0
C66 C 0.88076 0.11745 0.6792 0.0
C67 C 0.93623 0.15466 0.83642 0.0
O68 O 0.87382 0.12556 -0.00083 0.0
O69 O 0.85062 0.15152 0.04565 0.0
C70 C 0.83651 0.15247 0.78906 0.0
O71 O 0.87185 0.12966 0.73902 0.0
O72 O 0.89986 0.10931 0.69065 0.0
O73 O 0.93987 0.13701 0.79437 0.0
O74 O 0.91671 0.15841 0.86835 0.0
O75 O 0.83379 0.16643 0.84929 0.0
O76 O 0.85465 0.14105 0.78411 0.0
O77 O 0.8999 0.17405 0.887 0.0
O78 O 0.87411 0.19517 0.94803 0.0
C79 C 0.89339 0.19309 0.91724 0.0
O80 O 0.8872 0.1098 0.95328 0.0
O81 O 0.91515 0.09302 0.88658 0.0
C82 C 0.86045 0.13319 0.05766 0.0
C83 C 0.90073 0.09323 0.94594 0.0
Zn84 Zn 0.10019 0.41028 0.75774 0.0
Zn85 Zn 0.15496 0.35488 0.88715 0.0
Zn86 Zn 0.1287 0.38375 0.82207 0.0
C87 C 0.15185 0.3874 0.01264 0.0
C88 C 0.11765 0.33095 0.85467 0.0
O89 O 0.1415 0.39463 0.69198 0.0
O90 O 0.11507 0.41769 0.64879 0.0
C91 C 0.11501 0.43085 0.90707 0.0
O92 O 0.13927 0.39612 0.9537 0.0
O93 O 0.16092 0.36874 -0.00071 0.0
O94 O 0.13681 0.32791 0.88528 0.0
O95 O 0.11148 0.35055 0.82968 0.0
O96 O 0.10081 0.43326 0.84767 0.0
O97 O 0.12709 0.41309 0.91043 0.0
O98 O 0.09538 0.36651 0.81018 0.0
O99 O 0.07355 0.39176 0.7495 0.0
C100 C 0.07619 0.37251 0.78046 0.0
O101 O 0.15813 0.38203 0.7348 0.0
O102 O 0.17876 0.35673 0.80162 0.0
C103 C 0.13333 0.40803 0.63457 0.0
C104 C 0.17615 0.37045 0.74068 0.0
Zn105 Zn 0.91056 0.91191 0.29879 0.0
Zn106 Zn 0.84698 0.86575 0.16515 0.0
Zn107 Zn 0.87749 0.89196 0.22782 0.0
C108 C 0.85478 0.89947 0.04188 0.0
C109 C 0.88188 0.83773 0.19198 0.0
O110 O 0.86674 0.90331 0.35978 0.0
O111 O 0.89724 0.91904 0.41117 0.0
C112 C 0.89731 0.93722 0.15358 0.0
O113 O 0.86838 0.90661 0.10031 0.0
O114 O 0.84386 0.88179 0.05437 0.0
O115 O 0.86216 0.83652 0.16454 0.0
O116 O 0.88995 0.85673 0.21591 0.0
O117 O 0.91149 0.93644 0.21388 0.0
O118 O 0.88297 0.92144 0.14471 0.0
O119 O 0.90852 0.87064 0.22835 0.0
O120 O 0.93471 0.88985 0.29549 0.0
C121 C 0.92882 0.87255 0.25514 0.0
O122 O 0.84786 0.89505 0.31376 0.0
O123 O 0.8237 0.87223 0.25156 0.0
C124 C 0.8772 0.91346 0.42139 0.0
C125 C 0.82823 0.88649 0.30909 0.0
Zn126 Zn 0.37194 0.67021 0.45693 0.0
Zn127 Zn 0.42269 0.61133 0.33393 0.0
Zn128 Zn 0.39683 0.63978 0.39668 0.0
C129 C 0.4245 0.64515 0.21601 0.0
C130 C 0.44114 0.61934 0.49063 0.0
O131 O 0.40889 0.64735 0.53123 0.0
O132 O 0.38679 0.67507 0.56962 0.0
C133 C 0.34395 0.63413 0.43602 0.0
O134 O 0.40964 0.65254 0.26934 0.0
O135 O 0.43494 0.6275 0.23385 0.0
O136 O 0.44293 0.6052 0.43052 0.0
O137 O 0.42508 0.63365 0.48927 0.0
O138 O 0.34393 0.65394 0.4635 0.0
O139 O 0.36206 0.62551 0.40551 0.0
O140 O 0.40054 0.67095 0.31798 0.0
O141 O 0.37516 0.69399 0.37003 0.0
C142 C 0.39083 0.69016 0.31787 0.0
O143 O 0.37596 0.60939 0.36614 0.0
O144 O 0.40122 0.5883 0.30202 0.0
C145 C 0.40248 0.66191 0.58787 0.0
C146 C 0.38138 0.59132 0.32543 0.0
Zn147 Zn 0.65707 0.1516 0.44442 0.0
Zn148 Zn 0.60845 0.08909 0.55718 0.0
Zn149 Zn 0.6366 0.11907 0.51526 0.0
C150 C 0.58286 0.12584 0.53488 0.0
C151 C 0.63164 0.06992 0.42503 0.0
O152 O 0.66643 0.12168 0.59739 0.0
O153 O 0.68208 0.14966 0.52676 0.0
C154 C 0.62076 0.17217 0.50486 0.0
O155 O 0.60275 0.13388 0.5359 0.0
O156 O 0.58003 0.105 0.53325 0.0
O157 O 0.61772 0.06432 0.48195 0.0
O158 O 0.63887 0.0902 0.42181 0.0
O159 O 0.63714 0.17734 0.45817 0.0
O160 O 0.61793 0.15168 0.52854 0.0
O161 O 0.64628 0.10968 0.37973 0.0
O162 O 0.66266 0.1399 0.32821 0.0
C163 C 0.65615 0.12012 0.31741 0.0
O164 O 0.65022 0.1075 0.63833 0.0
O165 O 0.62063 0.08821 0.67786 0.0
C166 C 0.68266 0.13536 0.58675 0.0
C167 C 0.63961 0.09609 0.69551 0.0
Zn168 Zn 0.90182 0.42933 0.78639 0.0
Zn169 Zn 0.84252 0.37158 0.90639 0.0
Zn170 Zn 0.8726 0.40015 0.8477 0.0
C171 C 0.84812 0.40413 0.03483 0.0
C172 C 0.88206 0.3475 0.88584 0.0
O173 O 0.86143 0.41148 0.71715 0.0
O174 O 0.8865 0.4363 0.67613 0.0
C175 C 0.88667 0.44684 0.94241 0.0
O176 O 0.86206 0.41177 0.97859 0.0
O177 O 0.83692 0.38686 0.01806 0.0
O178 O 0.86209 0.34488 0.90885 0.0
O179 O 0.88903 0.36681 0.86106 0.0
O180 O 0.90047 0.45109 0.88306 0.0
O181 O 0.8752 0.42867 0.94047 0.0
O182 O 0.9048 0.38204 0.83178 0.0
O183 O 0.92708 0.40807 0.77912 0.0
C184 C 0.92399 0.3882 0.80336 0.0
O185 O 0.84348 0.39992 0.75752 0.0
O186 O 0.82013 0.37525 0.81348 0.0
C187 C 0.86914 0.42522 0.66014 0.0
C188 C 0.82469 0.38954 0.75625 0.0
Zn189 Zn 0.41257 0.12178 0.75931 0.0
Zn190 Zn 0.3562 0.17366 0.64358 0.0
Zn191 Zn 0.38295 0.14485 0.6884 0.0
C192 C 0.35982 0.14136 0.50937 0.0
C193 C 0.39302 0.19796 0.65215 0.0
O194 O 0.37253 0.13751 0.8251 0.0
O195 O 0.40096 0.11821 0.87623 0.0
C196 C 0.39378 0.09542 0.62694 0.0
O197 O 0.3706 0.13045 0.56762 0.0
O198 O 0.3534 0.16106 0.52479 0.0
O199 O 0.37249 0.20184 0.65808 0.0
O200 O 0.40013 0.1776 0.65555 0.0
O201 O 0.40868 0.09546 0.68462 0.0
O202 O 0.38224 0.11321 0.61326 0.0
O203 O 0.41661 0.16157 0.67661 0.0
O204 O 0.43971 0.13922 0.7464 0.0
C205 C 0.43648 0.15661 0.70243 0.0
O206 O 0.35381 0.1461 0.78195 0.0
O207 O 0.33041 0.1688 0.71626 0.0
C208 C 0.38208 0.12682 0.88763 0.0
C209 C 0.33429 0.15507 0.77608 0.0
Zn210 Zn 0.61035 0.59039 0.30148 0.0
Zn211 Zn 0.6677 0.64897 0.4192 0.0
Zn212 Zn 0.63832 0.62026 0.36197 0.0
C213 C 0.63555 0.64501 0.54896 0.0
C214 C 0.65044 0.66754 0.26863 0.0
O215 O 0.62749 0.6313 0.23042 0.0
O216 O 0.60435 0.60474 0.18859 0.0
C217 C 0.64903 0.56691 0.33344 0.0
O218 O 0.62687 0.6319 0.49179 0.0
O219 O 0.65361 0.65488 0.53282 0.0
O220 O 0.66452 0.67155 0.32723 0.0
O221 O 0.6394 0.64907 0.26926 0.0
O222 O 0.62984 0.56382 0.30259 0.0
O223 O 0.65504 0.58665 0.35768 0.0
O224 O 0.60941 0.6197 0.45215 0.0
O225 O 0.5879 0.59361 0.39487 0.0
C226 C 0.59133 0.60816 0.45261 0.0
O227 O 0.67123 0.60298 0.37265 0.0
O228 O 0.69415 0.62953 0.41693 0.0
C229 C 0.61442 0.62274 0.17284 0.0
C230 C 0.6909 0.60964 0.39361 0.0
Zn231 Zn 0.14746 0.85065 0.94796 0.0
Zn232 Zn 0.09493 0.91019 0.05487 0.0
Zn233 Zn 0.12435 0.88123 0.0196 0.0
C234 C 0.07071 0.87287 0.03968 0.0
C235 C 0.11847 0.9309 0.93099 0.0
O236 O 0.1538 0.87972 0.10397 0.0
O237 O 0.17184 0.8532 0.03316 0.0
C238 C 0.11072 0.82817 -0.00173 0.0
O239 O 0.09085 0.86541 0.04188 0.0
O240 O 0.0672 0.89353 0.03316 0.0
O241 O 0.10228 0.93545 0.97974 0.0
O242 O 0.12702 0.9111 0.93205 0.0
O243 O 0.12816 0.82434 0.95549 0.0
O244 O 0.10652 0.84818 0.02509 0.0
O245 O 0.13368 0.8918 0.88499 0.0
O246 O 0.15297 0.86337 0.83323 0.0
C247 C 0.14466 0.88248 0.82269 0.0
O248 O 0.13666 0.89293 0.14399 0.0
O249 O 0.10654 0.91224 0.17739 0.0
C250 C 0.17103 0.86724 0.09418 0.0
C251 C 0.12537 0.90451 0.19877 0.0
Zn252 Zn 0.86133 0.65595 0.34445 0.0
Zn253 Zn 0.92128 0.61109 0.39942 0.0
Zn254 Zn 0.89084 0.63237 0.34274 0.0
C255 C 0.93844 0.64066 0.26906 0.0
C256 C 0.89241 0.58052 0.31519 0.0
O257 O 0.86062 0.61303 0.31514 0.0
O258 O 0.84389 0.63343 0.41388 0.0
C259 C 0.89683 0.68321 0.34305 0.0
O260 O 0.918 0.64711 0.26491 0.0
O261 O 0.94403 0.62542 0.32143 0.0
O262 O 0.90939 0.5812 0.36364 0.0
O263 O 0.88223 0.59873 0.29642 0.0
O264 O 0.88 0.68177 0.3922 0.0
O265 O 0.90263 0.66583 0.29895 0.0
O266 O 0.89538 0.65116 0.22288 0.0
O267 O 0.85915 0.65355 0.20944 0.0
C268 C 0.87813 0.65334 0.17371 0.0
O269 O 0.8887 0.64118 0.47694 0.0
O270 O 0.91747 0.62198 0.52267 0.0
C271 C 0.84431 0.61593 0.36785 0.0
C272 C 0.90145 0.63508 0.53856 0.0
Zn273 Zn 0.10798 0.10356 0.0108 0.0
Zn274 Zn 0.15443 0.16195 0.07188 0.0
Zn275 Zn 0.1342 0.13137 0.01294 0.0
C276 C 0.12878 0.18031 0.93693 0.0
C277 C 0.18563 0.13083 0.00457 0.0
O278 O 0.14961 0.10059 0.96884 0.0
O279 O 0.13032 0.08242 0.0665 0.0
C280 C 0.08485 0.14234 0.01869 0.0
O281 O 0.12117 0.16017 0.93728 0.0
O282 O 0.14443 0.18561 0.98758 0.0
O283 O 0.18416 0.14731 0.05559 0.0
O284 O 0.1679 0.12225 0.97257 0.0
O285 O 0.08464 0.12478 0.06475 0.0
O286 O 0.10247 0.14672 0.97419 0.0
O287 O 0.11532 0.1382 0.89344 0.0
O288 O 0.10807 0.10259 0.87626 0.0
C289 C 0.11041 0.12174 0.84282 0.0
O290 O 0.12528 0.12865 0.14834 0.0
O291 O 0.1399 0.16051 0.189 0.0
C292 C 0.14585 0.08251 0.0108 0.0
C293 C 0.12862 0.14333 0.20696 0.0
Zn294 Zn 0.60474 0.402 0.56531 0.0
Zn295 Zn 0.65446 0.33782 0.44844 0.0
Zn296 Zn 0.62848 0.36922 0.50431 0.0
C297 C 0.62353 0.34614 0.31677 0.0
C298 C 0.63232 0.31983 0.5891 0.0
O299 O 0.61657 0.35911 0.63484 0.0
O300 O 0.59883 0.38921 0.68059 0.0
C301 C 0.64507 0.42114 0.52819 0.0
O302 O 0.61579 0.35957 0.37479 0.0
O303 O 0.64079 0.33483 0.33236 0.0
O304 O 0.64695 0.31462 0.53409 0.0
O305 O 0.62436 0.33982 0.59093 0.0
O306 O 0.62623 0.42659 0.55717 0.0
O307 O 0.64911 0.40061 0.50758 0.0
O308 O 0.59934 0.37244 0.41749 0.0
O309 O 0.58049 0.39994 0.47907 0.0
C310 C 0.58196 0.385 0.42161 0.0
O311 O 0.66356 0.38228 0.49768 0.0
O312 O 0.68324 0.35299 0.45623 0.0
C313 C 0.60567 0.36961 0.69427 0.0
C314 C 0.68248 0.37315 0.47957 0.0
Zn315 Zn 0.35165 0.85762 0.44739 0.0
Zn316 Zn 0.39238 0.91858 0.32591 0.0
Zn317 Zn 0.37133 0.89078 0.38325 0.0
C318 C 0.36994 0.90648 0.18991 0.0
C319 C 0.42276 0.89191 0.40019 0.0
O320 O 0.36024 0.9015 0.51273 0.0
O321 O 0.34577 0.87017 0.56261 0.0
C322 C 0.32577 0.87266 0.30768 0.0
O323 O 0.35802 0.8998 0.25423 0.0
O324 O 0.39006 0.91156 0.20231 0.0
O325 O 0.42027 0.91269 0.39192 0.0
O326 O 0.40631 0.87897 0.38241 0.0
O327 O 0.32632 0.85812 0.3667 0.0
O328 O 0.34189 0.88659 0.29904 0.0
O329 O 0.39312 0.86001 0.37406 0.0
O330 O 0.37305 0.83307 0.43283 0.0
C331 C 0.39038 0.83921 0.39371 0.0
O332 O 0.36961 0.92082 0.47016 0.0
O333 O 0.37387 0.94413 0.36154 0.0
C334 C 0.35056 0.89046 0.5735 0.0
C335 C 0.36847 0.9408 0.43924 0.0
H336 H 0.14088 0.59232 0.95975 0.0
H337 H 0.17398 0.63494 0.49311 0.0
H338 H 0.19146 0.64201 0.91518 0.0
H339 H 0.13359 0.57665 0.53766 0.0
H340 H 0.18488 0.6345 0.64593 0.0
H341 H 0.14179 0.58291 0.80577 0.0
C342 C 0.1525 0.60092 0.91819 0.0
C343 C 0.16587 0.61816 0.95051 0.0
C344 C 0.17399 0.62152 0.62187 0.0
C345 C 0.16671 0.60786 0.77357 0.0
C346 C 0.16795 0.62167 0.53432 0.0
C347 C 0.15274 0.60594 0.50283 0.0
C348 C 0.16447 0.60571 0.67816 0.0
C349 C 0.14509 0.58934 0.55966 0.0
C350 C 0.15297 0.59562 0.82995 0.0
C351 C 0.18054 0.62884 0.89299 0.0
N352 N 0.15075 0.58987 0.64478 0.0
N353 N 0.18031 0.62377 0.80722 0.0
H354 H 0.63424 0.83164 0.02957 0.0
H355 H 0.59055 0.86462 0.57142 0.0
H356 H 0.57013 0.86294 -0.00345 0.0
H357 H 0.63264 0.80695 0.60655 0.0
H358 H 0.58208 0.864 0.72649 0.0
H359 H 0.63396 0.8216 0.87554 0.0
C360 C 0.61983 0.83579 0.9909 0.0
C361 C 0.60222 0.84815 0.02636 0.0
C362 C 0.5928 0.8512 0.69973 0.0
C363 C 0.60219 0.83757 0.84944 0.0
C364 C 0.59747 0.85143 0.61086 0.0
C365 C 0.61236 0.83588 0.57547 0.0
C366 C 0.6035 0.83562 0.75374 0.0
C367 C 0.62124 0.81946 0.63089 0.0
C368 C 0.61975 0.83025 0.90267 0.0
C369 C 0.58422 0.85362 0.97196 0.0
N370 N 0.61705 0.82004 0.7174 0.0
N371 N 0.58486 0.84868 0.88608 0.0
H372 H 0.32041 0.37393 0.10887 0.0
H373 H 0.38478 0.43631 0.73311 0.0
H374 H 0.37093 0.42377 0.15164 0.0
H375 H 0.33852 0.38243 0.69053 0.0
H376 H 0.37326 0.43812 0.88413 0.0
H377 H 0.31973 0.38364 0.95549 0.0
C378 C 0.33105 0.38727 0.08615 0.0
C379 C 0.34613 0.39776 0.14244 0.0
C380 C 0.36539 0.42608 0.84168 0.0
C381 C 0.34565 0.40869 0.96699 0.0
C382 C 0.37204 0.42492 0.75549 0.0
C383 C 0.36286 0.40888 0.69964 0.0
C384 C 0.34961 0.41089 0.87276 0.0
C385 C 0.34608 0.39495 0.73149 0.0
C386 C 0.33067 0.39277 -0.00143 0.0
C387 C 0.35921 0.41517 0.11024 0.0
N388 N 0.34023 0.39604 0.81654 0.0
N389 N 0.359 0.4198 0.02401 0.0
H390 H 0.84854 0.14264 0.59704 0.0
H391 H 0.88804 0.10289 0.13924 0.0
H392 H 0.89011 0.08453 0.56373 0.0
H393 H 0.82736 0.14034 0.17442 0.0
H394 H 0.8875 0.09357 0.29385 0.0
H395 H 0.83838 0.14037 0.44337 0.0
C396 C 0.85499 0.12904 0.55831 0.0
C397 C 0.87034 0.11392 0.59323 0.0
C398 C 0.87404 0.10343 0.26719 0.0
C399 C 0.85946 0.11163 0.41698 0.0
C400 C 0.87427 0.10859 0.17866 0.0
C401 C 0.85791 0.12264 0.14392 0.0
C402 C 0.85755 0.11272 0.32117 0.0
C403 C 0.84058 0.12978 0.19873 0.0
C404 C 0.84935 0.12783 0.4703 0.0
C405 C 0.8785 0.09682 0.53921 0.0
N406 N 0.84111 0.12516 0.28481 0.0
N407 N 0.87333 0.0964 0.45359 0.0
H408 H 0.18504 0.37896 0.12749 0.0
H409 H 0.12521 0.44138 0.51934 0.0
H410 H 0.12519 0.41798 0.0977 0.0
H411 H 0.16326 0.38079 0.54932 0.0
H412 H 0.13422 0.4416 0.3651 0.0
H413 H 0.18589 0.3886 0.28113 0.0
C414 C 0.1723 0.38998 0.15277 0.0
C415 C 0.15483 0.39751 0.09955 0.0
C416 C 0.14096 0.42853 0.40587 0.0
C417 C 0.15588 0.40861 0.27566 0.0
C418 C 0.13592 0.42837 0.49401 0.0
C419 C 0.14333 0.41086 0.5475 0.0
C420 C 0.1537 0.4112 0.37076 0.0
C421 C 0.15732 0.39466 0.51103 0.0
C422 C 0.17283 0.3954 0.24056 0.0
C423 C 0.139 0.41194 0.13586 0.0
N424 N 0.16186 0.39507 0.42453 0.0
N425 N 0.13976 0.41683 0.22212 0.0
H426 H 0.81907 0.89853 0.93438 0.0
H427 H 0.84232 0.89154 0.49885 0.0
H428 H 0.88599 0.9239 0.9522 0.0
H429 H 0.89014 0.94394 0.54179 0.0
H430 H 0.83162 0.89384 0.65117 0.0
H431 H 0.81869 0.90719 0.78006 0.0
C432 C 0.83362 0.90623 0.90585 0.0
C433 C 0.8528 0.91005 0.95574 0.0
C434 C 0.8439 0.90542 0.62692 0.0
C435 C 0.85276 0.91921 0.77816 0.0
C436 C 0.84996 0.90408 0.53949 0.0
C437 C 0.86712 0.91751 0.50748 0.0
C438 C 0.85523 0.92022 0.68263 0.0
C439 C 0.87696 0.93307 0.56398 0.0
C440 C 0.83346 0.9109 0.81741 0.0
C441 C 0.87094 0.92051 0.916 0.0
N442 N 0.87118 0.93371 0.649 0.0
N443 N 0.87061 0.9244 0.82899 0.0
H444 H 0.42829 0.63065 0.67222 0.0
H445 H 0.45844 0.63745 0.10272 0.0
H446 H 0.39663 0.69457 0.70929 0.0
H447 H 0.39663 0.6736 0.12642 0.0
H448 H 0.45809 0.64421 0.94683 0.0
H449 H 0.43898 0.6307 0.82489 0.0
C450 C 0.42426 0.64504 0.71142 0.0
C451 C 0.41185 0.66275 0.67701 0.0
C452 C 0.44466 0.65076 0.98613 0.0
C453 C 0.42351 0.66273 0.85315 0.0
C454 C 0.44496 0.64717 0.07543 0.0
C455 C 0.42728 0.65459 0.12778 0.0
C456 C 0.42655 0.66185 0.94853 0.0
C457 C 0.41051 0.66743 0.08872 0.0
C458 C 0.43028 0.64504 0.79907 0.0
C459 C 0.40622 0.68052 0.73271 0.0
N460 N 0.41041 0.67042 0.0011 0.0
N461 N 0.41176 0.67988 0.81815 0.0
H462 H 0.62503 0.06692 0.81802 0.0
H463 H 0.68845 0.12957 0.20014 0.0
H464 H 0.67313 0.11927 0.77784 0.0
H465 H 0.63039 0.08857 0.23685 0.0
H466 H 0.68956 0.11845 0.04789 0.0
H467 H 0.6337 0.0672 0.9723 0.0
C468 C 0.63768 0.07828 0.84137 0.0
C469 C 0.64808 0.09342 0.78497 0.0
C470 C 0.67683 0.11153 0.08954 0.0
C471 C 0.65798 0.09383 0.96204 0.0
C472 C 0.67617 0.11783 0.17645 0.0
C473 C 0.65921 0.10999 0.23101 0.0
C474 C 0.66031 0.09737 0.05669 0.0
C475 C 0.64388 0.09472 0.19729 0.0
C476 C 0.64259 0.0784 0.92961 0.0
C477 C 0.66459 0.10744 0.81883 0.0
N478 N 0.64461 0.08912 0.11182 0.0
N479 N 0.6688 0.10753 0.90554 0.0
H480 H 0.81314 0.401 0.14619 0.0
H481 H 0.84332 0.39439 0.57723 0.0
H482 H 0.87951 0.42767 0.12643 0.0
H483 H 0.87562 0.4577 0.53817 0.0
H484 H 0.83261 0.39399 0.42477 0.0
H485 H 0.81312 0.40981 0.30113 0.0
C486 C 0.82753 0.40919 0.17397 0.0
C487 C 0.84637 0.4137 0.12307 0.0
C488 C 0.84137 0.40835 0.45019 0.0
C489 C 0.84647 0.42354 0.30023 0.0
C490 C 0.84719 0.40871 0.53776 0.0
C491 C 0.85966 0.42642 0.57159 0.0
C492 C 0.84873 0.4255 0.39529 0.0
C493 C 0.8658 0.44378 0.51511 0.0
C494 C 0.82752 0.41407 0.26237 0.0
C495 C 0.86448 0.4244 0.16251 0.0
N496 N 0.86066 0.44267 0.42932 0.0
N497 N 0.86415 0.42884 0.24908 0.0
H498 H 0.38104 0.10617 0.42924 0.0
H499 H 0.35089 0.15378 0.96654 0.0
H500 H 0.33108 0.1568 0.38724 0.0
H501 H 0.39025 0.09441 0.00581 0.0
H502 H 0.33918 0.15198 0.11851 0.0
H503 H 0.38049 0.09787 0.2739 0.0
C504 C 0.36958 0.11516 0.38784 0.0
C505 C 0.35644 0.13249 0.42094 0.0
C506 C 0.35008 0.13911 0.0934 0.0
C507 C 0.35604 0.1235 0.24319 0.0
C508 C 0.35667 0.14012 0.00653 0.0
C509 C 0.37177 0.12442 0.97395 0.0
C510 C 0.35895 0.12247 0.14786 0.0
C511 C 0.37891 0.10714 0.02885 0.0
C512 C 0.36934 0.11052 0.29897 0.0
C513 C 0.34189 0.14362 0.36413 0.0
N514 N 0.37271 0.10682 0.11333 0.0
N515 N 0.34238 0.13923 0.27789 0.0
H516 H 0.58181 0.61482 0.0539 0.0
H517 H 0.64442 0.67731 0.66879 0.0
H518 H 0.64303 0.65118 0.08846 0.0
H519 H 0.60665 0.61686 0.63323 0.0
H520 H 0.63513 0.6767 0.82311 0.0
H521 H 0.58221 0.62456 0.90001 0.0
C522 C 0.59507 0.62532 0.02974 0.0
C523 C 0.61241 0.63229 0.08461 0.0
C524 C 0.62848 0.66388 0.78091 0.0
C525 C 0.6128 0.64353 0.90862 0.0
C526 C 0.6337 0.6642 0.69281 0.0
C527 C 0.62621 0.64711 0.63751 0.0
C528 C 0.61551 0.64648 0.81401 0.0
C529 C 0.61235 0.63062 0.67252 0.0
C530 C 0.59526 0.63081 0.94191 0.0
C531 C 0.62908 0.6459 0.0495 0.0
N532 N 0.60757 0.63061 0.75875 0.0
N533 N 0.62896 0.65094 0.96351 0.0
H534 H 0.10727 0.93151 0.32293 0.0
H535 H 0.17663 0.87447 0.70239 0.0
H536 H 0.16051 0.88427 0.28238 0.0
H537 H 0.11749 0.91376 0.7454 0.0
H538 H 0.17617 0.88524 0.55021 0.0
H539 H 0.11593 0.93206 0.47738 0.0
C540 C 0.12101 0.92146 0.34617 0.0
C541 C 0.13298 0.90753 0.28943 0.0
C542 C 0.16346 0.8918 0.59299 0.0
C543 C 0.14292 0.90813 0.46677 0.0
C544 C 0.16371 0.88569 0.68003 0.0
C545 C 0.14683 0.89293 0.73635 0.0
C546 C 0.14608 0.90512 0.56149 0.0
C547 C 0.13075 0.90772 0.70417 0.0
C548 C 0.12592 0.92182 0.43454 0.0
C549 C 0.15076 0.89516 0.32339 0.0
N550 N 0.13055 0.91304 0.61832 0.0
N551 N 0.15501 0.89554 0.41002 0.0
H552 H 0.84521 0.65801 0.05194 0.0
H553 H 0.86525 0.65753 0.60489 0.0
H554 H 0.91652 0.65375 0.07868 0.0
H555 H 0.92853 0.62927 0.67855 0.0
H556 H 0.85822 0.66671 0.75719 0.0
H557 H 0.84942 0.65746 0.89468 0.0
C558 C 0.86179 0.65739 0.02468 0.0
C559 C 0.88053 0.65581 0.07868 0.0
C560 C 0.87354 0.65831 0.74029 0.0
C561 C 0.88557 0.65545 0.89809 0.0
C562 C 0.87766 0.65327 0.65306 0.0
C563 C 0.89736 0.64232 0.62902 0.0
C564 C 0.88928 0.65231 0.80374 0.0
C565 C 0.91297 0.63743 0.69404 0.0
C566 C 0.86422 0.65723 0.93452 0.0
C567 C 0.90159 0.65491 0.03973 0.0
N568 N 0.90855 0.64239 0.77817 0.0
N569 N 0.9035 0.65447 0.95196 0.0
H570 H 0.10311 0.08997 0.718 0.0
H571 H 0.12417 0.17545 0.33026 0.0
H572 H 0.11193 0.1609 0.75152 0.0
H573 H 0.1149 0.10485 0.28943 0.0
H574 H 0.11541 0.1706 0.48292 0.0
H575 H 0.10316 0.09525 0.56065 0.0
C576 C 0.10477 0.1067 0.69237 0.0
C577 C 0.10771 0.12502 0.74818 0.0
C578 C 0.11509 0.15613 0.4408 0.0
C579 C 0.10793 0.13111 0.56797 0.0
C580 C 0.12012 0.15888 0.35334 0.0
C581 C 0.12055 0.14046 0.29703 0.0
C582 C 0.11063 0.13474 0.47311 0.0
C583 C 0.11485 0.11948 0.33063 0.0
C584 C 0.10484 0.10968 0.60244 0.0
C585 C 0.10979 0.14628 0.71119 0.0
N586 N 0.11039 0.11713 0.41684 0.0
N587 N 0.11003 0.1487 0.62355 0.0
H588 H 0.59409 0.37505 0.23871 0.0
H589 H 0.62741 0.33424 0.77091 0.0
H590 H 0.63156 0.31473 0.1927 0.0
H591 H 0.57656 0.38368 0.81791 0.0
H592 H 0.62591 0.32384 0.92394 0.0
H593 H 0.58393 0.37583 0.08559 0.0
C594 C 0.5997 0.36165 0.19714 0.0
C595 C 0.61384 0.34492 0.2287 0.0
C596 C 0.61477 0.33667 0.90036 0.0
C597 C 0.60288 0.34606 0.05254 0.0
C598 C 0.61554 0.34252 0.81269 0.0
C599 C 0.6023 0.36003 0.78161 0.0
C600 C 0.60089 0.34865 0.95727 0.0
C601 C 0.58738 0.37033 0.83933 0.0
C602 C 0.59403 0.36217 0.10932 0.0
C603 C 0.62089 0.32817 0.17099 0.0
N604 N 0.58735 0.36475 0.92454 0.0
N605 N 0.61566 0.32937 0.08552 0.0
H606 H 0.33389 0.88563 0.11525 0.0
H607 H 0.37119 0.92619 0.6493 0.0
H608 H 0.38485 0.9346 0.06618 0.0
H609 H 0.32052 0.87669 0.69355 0.0
H610 H 0.36944 0.93649 0.80225 0.0
H611 H 0.32229 0.88846 0.96327 0.0
C612 C 0.34235 0.89722 0.07297 0.0
C613 C 0.36065 0.90948 0.10251 0.0
C614 C 0.35836 0.92367 0.77822 0.0
C615 C 0.34767 0.91281 0.9295 0.0
C616 C 0.35925 0.91797 0.69062 0.0
C617 C 0.34633 0.90035 0.65927 0.0
C618 C 0.34465 0.91139 0.83459 0.0
C619 C 0.3312 0.89005 0.71583 0.0
C620 C 0.33578 0.89884 0.98628 0.0
C621 C 0.37104 0.92435 0.04526 0.0
N622 N 0.33108 0.89542 0.80121 0.0
N623 N 0.36459 0.92539 0.96131 0.0
H624 H 0.13402 0.72157 0.29315 0.0
H625 H 0.09732 0.79144 0.9084 0.0
H626 H 0.09971 0.69026 0.0803 0.0
H627 H 0.0989 0.81971 0.16518 0.0
H628 H 0.09255 0.75436 0.9717 0.0
H629 H 0.11686 0.7572 0.25476 0.0
C630 C 0.12232 0.72214 0.23975 0.0
C631 C 0.11829 0.70307 0.18956 0.0
C632 C 0.09306 0.76872 0.01434 0.0
C633 C 0.09925 0.74393 0.14292 0.0
C634 C 0.09562 0.78992 0.9781 0.0
C635 C 0.09855 0.80862 0.0317 0.0
C636 C 0.09423 0.76617 0.10477 0.0
C637 C 0.09656 0.80573 0.12161 0.0
C638 C 0.1125 0.74247 0.21777 0.0
C639 C 0.10315 0.70465 0.12063 0.0
N640 N 0.09526 0.7848 0.1555 0.0
N641 N 0.09465 0.7249 0.09768 0.0
H642 H 0.55328 0.8373 0.37759 0.0
H643 H 0.4504 0.91203 0.51377 0.0
H644 H 0.55728 0.90116 0.50434 0.0
H645 H 0.4444 0.85264 0.35761 0.0
H646 H 0.4885 0.90181 0.54872 0.0
H647 H 0.51333 0.83603 0.40981 0.0
C648 C 0.54595 0.85047 0.41645 0.0
C649 C 0.55846 0.86936 0.4386 0.0
C650 C 0.47887 0.89078 0.5077 0.0
C651 C 0.51287 0.86844 0.4729 0.0
C652 C 0.4571 0.89665 0.48748 0.0
C653 C 0.44442 0.88339 0.4312 0.0
C654 C 0.48836 0.8717 0.46992 0.0
C655 C 0.45373 0.86341 0.40061 0.0
C656 C 0.52309 0.84992 0.43351 0.0
C657 C 0.54816 0.88627 0.48663 0.0
N658 N 0.47537 0.85839 0.41883 0.0
N659 N 0.5259 0.8856 0.50087 0.0
H660 H 0.41128 0.33518 0.56436 0.0
H661 H 0.41968 0.20297 0.51025 0.0
H662 H 0.40634 0.30023 0.32089 0.0
H663 H 0.39728 0.23688 0.74056 0.0
H664 H 0.43089 0.23911 0.44885 0.0
H665 H 0.42248 0.30018 0.63463 0.0
C666 C 0.4136 0.3204 0.52488 0.0
C667 C 0.40772 0.32055 0.43682 0.0
C668 C 0.42428 0.23853 0.51414 0.0
C669 C 0.42016 0.28045 0.5168 0.0
C670 C 0.41814 0.21789 0.54956 0.0
C671 C 0.40754 0.21702 0.63047 0.0
C672 C 0.41995 0.2583 0.56054 0.0
C673 C 0.40544 0.2369 0.67796 0.0
C674 C 0.41972 0.30036 0.56521 0.0
C675 C 0.41063 0.30079 0.38906 0.0
N676 N 0.41128 0.25674 0.64192 0.0
N677 N 0.41629 0.28147 0.42982 0.0
H678 H 0.97068 0.1679 0.73491 0.0
H679 H 0.0485 0.14554 0.12473 0.0
H680 H 0.9468 0.16948 -0.00186 0.0
H681 H 0.07331 0.16653 0.87546 0.0
H682 H 0.01175 0.15992 0.08553 0.0
H683 H 0.00835 0.17461 0.78748 0.0
C684 C 0.97329 0.17062 0.80366 0.0
C685 C 0.95572 0.16793 0.86241 0.0
C686 C 0.02535 0.16191 0.04018 0.0
C687 C 0.99892 0.17442 0.92364 0.0
C688 C 0.04631 0.1536 0.06245 0.0
C689 C 0.06391 0.15466 0.00298 0.0
C690 C 0.02185 0.17084 0.95701 0.0
C691 C 0.0602 0.16536 0.92332 0.0
C692 C 0.99485 0.17424 0.83389 0.0
C693 C 0.95995 0.17143 0.95082 0.0
N694 N 0.03948 0.17262 0.90199 0.0
N695 N 0.98127 0.17377 0.97914 0.0
H696 H 0.11578 0.30695 0.70714 0.0
H697 H 0.09103 0.1997 0.99309 0.0
H698 H 0.09181 0.30857 0.97002 0.0
H699 H 0.14006 0.20309 0.79025 0.0
H700 H 0.07709 0.23652 0.94998 0.0
H701 H 0.10961 0.26654 0.70337 0.0
C702 C 0.108 0.29895 0.76233 0.0
C703 C 0.10419 0.31098 0.83891 0.0
C704 C 0.09037 0.22887 0.91291 0.0
C705 C 0.09773 0.26491 0.83604 0.0
C706 C 0.09818 0.20782 0.9369 0.0
C707 C 0.11651 0.19842 0.89433 0.0
C708 C 0.10112 0.24057 0.84626 0.0
C709 C 0.12575 0.20982 0.82395 0.0
C710 C 0.1048 0.27588 0.76058 0.0
C711 C 0.09476 0.29983 0.9096 0.0
N712 N 0.11811 0.23047 0.80261 0.0
N713 N 0.0922 0.2773 0.90709 0.0
H714 H 0.0639 0.84484 0.17606 0.0
H715 H 0.93335 0.85307 0.09601 0.0
H716 H 0.033 0.86979 0.94357 0.0
H717 H 0.96523 0.85859 0.3454 0.0
H718 H 0.96895 0.84134 0.03275 0.0
H719 H 0.0273 0.83237 0.2276 0.0
C720 C 0.04958 0.84669 0.13406 0.0
C721 C 0.05135 0.85837 0.05569 0.0
C722 C 0.96792 0.84431 0.10194 0.0
C723 C 0.00961 0.84451 0.1143 0.0
C724 C 0.94757 0.85079 0.13824 0.0
C725 C 0.94651 0.85717 0.2257 0.0
C726 C 0.98713 0.84396 0.15394 0.0
C727 C 0.96548 0.85409 0.27737 0.0
C728 C 0.02869 0.8398 0.16383 0.0
C729 C 0.03223 0.86087 0.00452 0.0
N730 N 0.98513 0.84809 0.24047 0.0
N731 N 0.0121 0.85428 0.03519 0.0
H732 H 0.37158 0.71974 0.20671 0.0
H733 H 0.41646 0.80957 0.48093 0.0
H734 H 0.43217 0.70616 0.34571 0.0
H735 H 0.39396 0.82751 0.2253 0.0
H736 H 0.42617 0.77236 0.4268 0.0
H737 H 0.38202 0.75913 0.19829 0.0
C738 C 0.38764 0.72489 0.23144 0.0
C739 C 0.40108 0.70974 0.27662 0.0
C740 C 0.41999 0.78471 0.38155 0.0
C741 C 0.41247 0.75488 0.27221 0.0
C742 C 0.4146 0.80598 0.41242 0.0
C743 C 0.40462 0.82159 0.3572 0.0
C744 C 0.41437 0.77879 0.29604 0.0
C745 C 0.40191 0.81595 0.26949 0.0
C746 C 0.39353 0.74741 0.2274 0.0
C747 C 0.42147 0.71735 0.30961 0.0
N748 N 0.40601 0.79473 0.24214 0.0
N749 N 0.42616 0.73956 0.30982 0.0
H750 H 0.54553 0.12337 0.43662 0.0
H751 H 0.4719 0.17192 0.79415 0.0
H752 H 0.57486 0.16054 0.64662 0.0
H753 H 0.44722 0.16415 0.53378 0.0
H754 H 0.50984 0.17343 0.73767 0.0
H755 H 0.51003 0.14203 0.46369 0.0
C756 C 0.54457 0.13589 0.48722 0.0
C757 C 0.56307 0.14043 0.5396 0.0
C758 C 0.49614 0.17225 0.69233 0.0
C759 C 0.52232 0.1614 0.57287 0.0
C760 C 0.47443 0.17164 0.72457 0.0
C761 C 0.45644 0.16787 0.66849 0.0
C762 C 0.49987 0.1683 0.60373 0.0
C763 C 0.46064 0.16719 0.57909 0.0
C764 C 0.52432 0.14661 0.50254 0.0
C765 C 0.56097 0.15671 0.6045 0.0
N766 N 0.48199 0.16662 0.54961 0.0
N767 N 0.54079 0.16622 0.62082 0.0
H768 H 0.90866 0.2181 0.0504 0.0
H769 H 0.902 0.32537 0.75103 0.0
H770 H 0.90668 0.21513 0.77163 0.0
H771 H 0.89407 0.32444 0.02846 0.0
H772 H 0.91612 0.28679 0.7568 0.0
H773 H 0.91686 0.25793 0.04232 0.0
C774 C 0.91091 0.22573 0.98732 0.0
C775 C 0.90703 0.21341 0.91161 0.0
C776 C 0.91194 0.29527 0.81666 0.0
C777 C 0.91516 0.25926 0.90151 0.0
C778 C 0.90407 0.31731 0.81337 0.0
C779 C 0.89684 0.32791 0.88943 0.0
C780 C 0.91256 0.28397 0.89663 0.0
C781 C 0.89947 0.31674 0.96846 0.0
C782 C 0.9153 0.24854 0.98258 0.0
C783 C 0.90974 0.2241 0.83144 0.0
N784 N 0.90685 0.29533 0.96992 0.0
N785 N 0.91307 0.24658 0.82838 0.0
H786 H 0.67489 0.79653 0.11639 0.0
H787 H 0.61015 0.68581 0.22497 0.0
H788 H 0.6061 0.79503 0.19289 0.0
H789 H 0.6804 0.69119 0.17572 0.0
H790 H 0.60488 0.72335 0.16383 0.0
H791 H 0.67314 0.75676 0.08343 0.0
C792 C 0.65912 0.78797 0.1226 0.0
C793 C 0.64069 0.79897 0.15813 0.0
C794 C 0.62134 0.71602 0.16374 0.0
C795 C 0.63883 0.75312 0.1255 0.0
C796 C 0.6243 0.69452 0.19794 0.0
C797 C 0.64577 0.68561 0.20617 0.0
C798 C 0.64001 0.72846 0.13759 0.0
C799 C 0.6636 0.69762 0.1712 0.0
C800 C 0.65817 0.76515 0.10491 0.0
C801 C 0.62069 0.78709 0.16562 0.0
N802 N 0.66038 0.71852 0.13975 0.0
N803 N 0.62045 0.7646 0.15218 0.0
H804 H 0.90066 0.71878 0.45213 0.0
H805 H 0.88351 0.80242 0.08149 0.0
H806 H 0.91196 0.69878 0.18712 0.0
H807 H 0.90787 0.82507 0.32918 0.0
H808 H 0.89638 0.76471 0.11556 0.0
H809 H 0.90602 0.75775 0.40994 0.0
C810 C 0.90486 0.72258 0.38544 0.0
C811 C 0.90568 0.7056 0.32287 0.0
C812 C 0.89947 0.778 0.16163 0.0
C813 C 0.91115 0.75015 0.27363 0.0
C814 C 0.89211 0.79951 0.14221 0.0
C815 C 0.89452 0.81677 0.20291 0.0
C816 C 0.90862 0.77356 0.2436 0.0
C817 C 0.90573 0.81217 0.28067 0.0
C818 C 0.90793 0.74482 0.36138 0.0
C819 C 0.91115 0.7114 0.23734 0.0
N820 N 0.91184 0.79085 0.29991 0.0
N821 N 0.91308 0.73326 0.2147 0.0
H822 H 0.61987 0.18212 0.67564 0.0
H823 H 0.58928 0.30831 0.56905 0.0
H824 H 0.59647 0.20508 0.42733 0.0
H825 H 0.64986 0.28785 0.69494 0.0
H826 H 0.57611 0.2696 0.57391 0.0
H827 H 0.61437 0.21982 0.73458 0.0
C828 C 0.61237 0.19478 0.63491 0.0
C829 C 0.60856 0.19058 0.54661 0.0
C830 C 0.59179 0.27384 0.60433 0.0
C831 C 0.60226 0.23346 0.61338 0.0
C832 C 0.5992 0.29594 0.60269 0.0
C833 C 0.62071 0.30118 0.63143 0.0
C834 C 0.6058 0.25712 0.63699 0.0
C835 C 0.63316 0.28443 0.67228 0.0
C836 C 0.60946 0.21629 0.66838 0.0
C837 C 0.59946 0.20768 0.49585 0.0
N838 N 0.62568 0.26302 0.67263 0.0
N839 N 0.59686 0.2285 0.52968 0.0
H840 H 0.94116 0.36098 0.93076 0.0
H841 H 0.05564 0.35783 0.92722 0.0
H842 H 0.95055 0.38117 0.66536 0.0
H843 H 0.05053 0.35761 0.64889 0.0
H844 H 0.0157 0.35077 0.93718 0.0
H845 H 0.97867 0.34452 0.93021 0.0
C846 C 0.95092 0.36136 0.87175 0.0
C847 C 0.94304 0.37274 0.79843 0.0
C848 C 0.02331 0.35115 0.8737 0.0
C849 C 0.98598 0.35464 0.79754 0.0
C850 C 0.04627 0.35501 0.86818 0.0
C851 C 0.05627 0.35837 0.78712 0.0
C852 C 0.01044 0.3508 0.79728 0.0
C853 C 0.04337 0.35513 0.71259 0.0
C854 C 0.97246 0.35226 0.87169 0.0
C855 C 0.9562 0.37281 0.72358 0.0
N856 N 0.02109 0.35203 0.71946 0.0
N857 N 0.97704 0.36418 0.7254 0.0
H858 H 0.4644 0.65711 0.52927 0.0
H859 H 0.56816 0.57817 0.54753 0.0
H860 H 0.46258 0.58643 0.57786 0.0
H861 H 0.5723 0.64842 0.49222 0.0
H862 H 0.53127 0.58387 0.60928 0.0
H863 H 0.5041 0.6573 0.56594 0.0
C864 C 0.47211 0.64185 0.55196 0.0
C865 C 0.46039 0.62164 0.54921 0.0
C866 C 0.54035 0.59823 0.58573 0.0
C867 C 0.50575 0.62156 0.58887 0.0
C868 C 0.56149 0.59494 0.5509 0.0
C869 C 0.57307 0.6128 0.51387 0.0
C870 C 0.53035 0.6194 0.58061 0.0
C871 C 0.56378 0.63422 0.5199 0.0
C872 C 0.49486 0.64189 0.5718 0.0
C873 C 0.47116 0.60231 0.57823 0.0
N874 N 0.54264 0.63685 0.55024 0.0
N875 N 0.49331 0.60264 0.59497 0.0
H876 H 0.44694 0.35306 0.44649 0.0
H877 H 0.56153 0.34468 0.40203 0.0
H878 H 0.45224 0.41166 0.28624 0.0
H879 H 0.55555 0.41419 0.33561 0.0
H880 H 0.52183 0.33966 0.37013 0.0
H881 H 0.48651 0.3454 0.42091 0.0
C882 C 0.45626 0.36385 0.40361 0.0
C883 C 0.44647 0.38319 0.36957 0.0
C884 C 0.52925 0.35591 0.36102 0.0
C885 C 0.49159 0.37462 0.33925 0.0
C886 C 0.55202 0.35867 0.37742 0.0
C887 C 0.56166 0.37993 0.37198 0.0
C888 C 0.51628 0.37461 0.33876 0.0
C889 C 0.54865 0.39756 0.34095 0.0
C890 C 0.47889 0.35949 0.38872 0.0
C891 C 0.45928 0.39678 0.31509 0.0
N892 N 0.52661 0.39456 0.3265 0.0
N893 N 0.48118 0.39245 0.30288 0.0
H894 H 0.06441 0.67156 0.35725 0.0
H895 H 0.95322 0.68257 0.30247 0.0
H896 H 0.0683 0.64795 0.09409 0.0
H897 H 0.96567 0.62491 0.14298 0.0
H898 H 0.99142 0.69529 0.27551 0.0
H899 H 0.02536 0.68116 0.3343 0.0
C900 C 0.05729 0.66955 0.29315 0.0
C901 C 0.06953 0.65918 0.22719 0.0
C902 C 0.98557 0.68023 0.24421 0.0
C903 C 0.02463 0.66914 0.20112 0.0
C904 C 0.96368 0.67317 0.25835 0.0
C905 C 0.95644 0.65268 0.22484 0.0
C906 C 1.00013 0.66658 0.19639 0.0
C907 C 0.97072 0.64083 0.16973 0.0
C908 C 0.03493 0.67494 0.27994 0.0
C909 C 0.0594 0.6562 0.14612 0.0
N910 N 0.992 0.64779 0.15815 0.0
N911 N 0.03731 0.66042 0.13618 0.0
H912 H 0.16168 0.55884 0.09981 0.0
H913 H 0.08358 0.45478 0.98929 0.0
H914 H 0.09034 0.56085 0.0754 0.0
H915 H 0.15434 0.45146 0.9478 0.0
H916 H 0.08753 0.49283 0.04171 0.0
H917 H 0.16118 0.51958 0.05104 0.0
C918 C 0.14605 0.55125 0.08123 0.0
C919 C 0.126 0.56297 0.09125 0.0
C920 C 0.10233 0.48382 0.02221 0.0
C921 C 0.1252 0.51829 0.03967 0.0
C922 C 0.10008 0.46195 0.99375 0.0
C923 C 0.11865 0.45008 0.96447 0.0
C924 C 0.1233 0.4941 0.02041 0.0
C925 C 0.13966 0.46012 0.97073 0.0
C926 C 0.14573 0.52881 0.05496 0.0
C927 C 0.10614 0.55235 0.0684 0.0
N928 N 0.14144 0.48179 -0.00302 0.0
N929 N 0.10623 0.53061 0.0447 0.0
H930 H 0.69686 0.88786 0.51699 0.0
H931 H 0.80621 0.86925 0.44795 0.0
H932 H 0.69911 0.90356 0.24471 0.0
H933 H 0.80569 0.92368 0.2663 0.0
H934 H 0.76742 0.87732 0.48367 0.0
H935 H 0.73598 0.89839 0.53039 0.0
C936 C 0.7054 0.89446 0.4607 0.0
C937 C 0.69487 0.89467 0.37943 0.0
C938 C 0.776 0.88822 0.43892 0.0
C939 C 0.73984 0.90568 0.39342 0.0
C940 C 0.79821 0.88365 0.41907 0.0
C941 C 0.80922 0.89617 0.35586 0.0
C942 C 0.76451 0.9049 0.39263 0.0
C943 C 0.79783 0.91402 0.31706 0.0
C944 C 0.7278 0.90009 0.46814 0.0
C945 C 0.70666 0.90319 0.30846 0.0
N946 N 0.77587 0.91745 0.33403 0.0
N947 N 0.72875 0.9079 0.31663 0.0
H948 H 0.32893 0.46073 0.40887 0.0
H949 H 0.35093 0.57225 0.43614 0.0
H950 H 0.38117 0.46242 0.21848 0.0
H951 H 0.37794 0.56723 0.17819 0.0
H952 H 0.33707 0.534 0.4229 0.0
H953 H 0.322 0.50046 0.38454 0.0
C954 C 0.33822 0.46928 0.35874 0.0
C955 C 0.35555 0.45827 0.31509 0.0
C956 C 0.34516 0.54148 0.36751 0.0
C957 C 0.34877 0.50407 0.29097 0.0
C958 C 0.353 0.56345 0.37524 0.0
C959 C 0.36577 0.57277 0.30858 0.0
C960 C 0.35033 0.52887 0.2927 0.0
C961 C 0.36833 0.56051 0.23149 0.0
C962 C 0.33464 0.49212 0.34649 0.0
C963 C 0.36745 0.4702 0.25252 0.0
N964 N 0.36122 0.53907 0.22649 0.0
N965 N 0.36412 0.49255 0.24345 0.0
H966 H 0.80997 0.18263 0.71162 0.0
H967 H 0.70944 0.09912 0.61873 0.0
H968 H 0.81802 0.11192 0.75015 0.0
H969 H 0.7034 0.16987 0.66232 0.0
H970 H 0.74925 0.10148 0.65703 0.0
H971 H 0.77156 0.17648 0.66852 0.0
C972 C 0.80375 0.16569 0.70824 0.0
C973 C 0.81707 0.14777 0.73433 0.0
C974 C 0.73903 0.11635 0.65982 0.0
C975 C 0.77273 0.14059 0.68928 0.0
C976 C 0.71631 0.11493 0.63962 0.0
C977 C 0.70325 0.13434 0.63786 0.0
C978 C 0.74848 0.13734 0.67717 0.0
C979 C 0.71295 0.15453 0.66316 0.0
C980 C 0.7817 0.16218 0.68526 0.0
C981 C 0.80822 0.12613 0.72964 0.0
N982 N 0.73498 0.15555 0.68062 0.0
N983 N 0.78638 0.12311 0.70887 0.0
H984 H 0.90601 0.53937 0.36701 0.0
H985 H 0.91949 0.46251 0.04456 0.0
H986 H 0.8641 0.57165 0.17741 0.0
H987 H 0.84914 0.46875 -0.00208 0.0
H988 H 0.91729 0.49309 0.14923 0.0
H989 H 0.9015 0.50419 0.28991 0.0
C990 C 0.89563 0.53906 0.3096 0.0
C991 C 0.88588 0.55869 0.27741 0.0
C992 C 0.90221 0.4875 0.11755 0.0
C993 C 0.88088 0.51829 0.18838 0.0
C994 C 0.90349 0.47014 0.05778 0.0
C995 C 0.88443 0.46305 0.01376 0.0
C996 C 0.8818 0.49831 0.1319 0.0
C997 C 0.86412 0.47365 0.03185 0.0
C998 C 0.89315 0.51894 0.26559 0.0
C999 C 0.87218 0.557 0.20377 0.0
N1000 N 0.86337 0.49113 0.08862 0.0
N1001 N 0.87031 0.53715 0.16081 0.0
H1002 H 0.20022 0.12027 0.84136 0.0
H1003 H 0.32833 0.11577 0.86856 0.0
H1004 H 0.22243 0.1274 0.10578 0.0
H1005 H 0.29585 0.17768 0.80149 0.0
H1006 H 0.29273 0.10232 0.92981 0.0
H1007 H 0.23929 0.12131 0.79367 0.0
C1008 C 0.21331 0.12099 0.88954 0.0
C1009 C 0.20817 0.12388 0.97746 0.0
C1010 C 0.2937 0.11887 0.90204 0.0
C1011 C 0.2525 0.12485 0.92372 0.0
C1012 C 0.31398 0.12669 0.86839 0.0
C1013 C 0.31513 0.14793 0.82998 0.0
C1014 C 0.27463 0.13228 0.89517 0.0
C1015 C 0.29581 0.16117 0.82992 0.0
C1016 C 0.23551 0.12169 0.86236 0.0
C1017 C 0.22579 0.12524 0.03728 0.0
N1018 N 0.27636 0.15303 0.8608 0.0
N1019 N 0.24721 0.12613 0.00926 0.0
H1020 H 0.65537 0.53082 0.22948 0.0
H1021 H 0.6571 0.45584 0.63134 0.0
H1022 H 0.67217 0.55698 0.48138 0.0
H1023 H 0.66636 0.42892 0.37487 0.0
H1024 H 0.6698 0.49217 0.57985 0.0
H1025 H 0.66635 0.49362 0.27767 0.0
C1026 C 0.66213 0.52882 0.29415 0.0
C1027 C 0.66268 0.54693 0.35181 0.0
C1028 C 0.66982 0.47821 0.5352 0.0
C1029 C 0.67442 0.50417 0.40887 0.0
C1030 C 0.6627 0.45741 0.56483 0.0
C1031 C 0.66057 0.43943 0.50708 0.0
C1032 C 0.67412 0.48126 0.44644 0.0
C1033 C 0.66781 0.44237 0.42145 0.0
C1034 C 0.66833 0.50753 0.32188 0.0
C1035 C 0.67148 0.54342 0.43496 0.0
N1036 N 0.67362 0.46308 0.39298 0.0
N1037 N 0.67637 0.52233 0.46192 0.0
H1038 H 0.30389 0.83843 0.23433 0.0
H1039 H 0.19158 0.9062 0.14344 0.0
H1040 H 0.30046 0.90961 0.271 0.0
H1041 H 0.19749 0.83461 0.15506 0.0
H1042 H 0.23092 0.90935 0.18728 0.0
H1043 H 0.26517 0.83831 0.18948 0.0
C1044 C 0.29503 0.85416 0.23059 0.0
C1045 C 0.30528 0.87404 0.25606 0.0
C1046 C 0.22343 0.893 0.18158 0.0
C1047 C 0.26051 0.87402 0.2085 0.0
C1048 C 0.20095 0.89122 0.15809 0.0
C1049 C 0.1914 0.8701 0.1458 0.0
C1050 C 0.23619 0.87351 0.19215 0.0
C1051 C 0.20427 0.85119 0.16374 0.0
C1052 C 0.2728 0.85408 0.20633 0.0
C1053 C 0.29309 0.89398 0.25085 0.0
N1054 N 0.22599 0.85334 0.18505 0.0
N1055 N 0.27113 0.89346 0.22863 0.0
H1056 H 0.63413 0.94958 0.13478 0.0
H1057 H 0.66814 0.04596 0.46617 0.0
H1058 H 0.65921 0.93578 0.3911 0.0
H1059 H 0.61613 0.05112 0.27541 0.0
H1060 H 0.67718 0.00846 0.41149 0.0
H1061 H 0.64095 0.98925 0.15793 0.0
C1062 C 0.64182 0.95484 0.19499 0.0
C1063 C 0.64582 0.93938 0.26165 0.0
C1064 C 0.66433 0.01814 0.3797 0.0
C1065 C 0.65332 0.98493 0.28891 0.0
C1066 C 0.65935 0.0396 0.40999 0.0
C1067 C 0.64173 0.05182 0.37365 0.0
C1068 C 0.65168 0.00896 0.31211 0.0
C1069 C 0.63023 0.04252 0.30348 0.0
C1070 C 0.64553 0.97752 0.20829 0.0
C1071 C 0.65587 0.94714 0.33811 0.0
N1072 N 0.63535 0.02161 0.27518 0.0
N1073 N 0.65888 0.96951 0.35046 0.0
H1074 H 0.19559 0.33876 0.64373 0.0
H1075 H 0.30762 0.4078 0.56474 0.0
H1076 H 0.20058 0.40819 0.71278 0.0
H1077 H 0.30099 0.33637 0.54461 0.0
H1078 H 0.26862 0.41003 0.61347 0.0
H1079 H 0.23347 0.33979 0.58856 0.0
C1080 C 0.20453 0.35445 0.64443 0.0
C1081 C 0.19503 0.37345 0.68181 0.0
C1082 C 0.27587 0.39389 0.59936 0.0
C1083 C 0.23888 0.37459 0.62331 0.0
C1084 C 0.29816 0.39259 0.57297 0.0
C1085 C 0.30743 0.37187 0.55045 0.0
C1086 C 0.26298 0.37434 0.60254 0.0
C1087 C 0.29443 0.35269 0.56085 0.0
C1088 C 0.22631 0.35498 0.61447 0.0
C1089 C 0.20735 0.3933 0.68299 0.0
N1090 N 0.27289 0.35442 0.58523 0.0
N1091 N 0.22888 0.39332 0.65524 0.0
H1092 H 0.86024 0.96007 0.09813 0.0
H1093 H 0.93396 0.06925 0.01683 0.0
H1094 H 0.93186 0.96242 0.10105 0.0
H1095 H 0.8628 0.06994 0.98493 0.0
H1096 H 0.93216 0.03032 0.06008 0.0
H1097 H 0.85954 0.99976 0.0564 0.0
C1098 C 0.87577 0.96874 0.08726 0.0
C1099 C 0.89615 0.95806 0.10318 0.0
C1100 C 0.91682 0.03892 0.04474 0.0
C1101 C 0.89549 1.00329 0.05893 0.0
C1102 C 0.91784 0.06127 0.0214 0.0
C1103 C 0.89851 0.07275 -0.00234 0.0
C1104 C 0.8963 0.02774 0.04336 0.0
C1105 C 0.87804 0.06163 0.00377 0.0
C1106 C 0.87537 0.99144 0.06498 0.0
C1107 C 0.9158 0.97008 0.08973 0.0
N1108 N 0.87747 0.03955 0.02497 0.0
N1109 N 0.91496 0.99203 0.06933 0.0
H1110 H 0.21023 0.59594 0.28179 0.0
H1111 H 0.32531 0.6069 0.31068 0.0
H1112 H 0.21347 0.65503 0.44013 0.0
H1113 H 0.31288 0.63613 0.56156 0.0
H1114 H 0.28532 0.59912 0.29679 0.0
H1115 H 0.24842 0.58643 0.32566 0.0
C1116 C 0.21868 0.60638 0.32878 0.0
C1117 C 0.20871 0.62616 0.35833 0.0
C1118 C 0.29146 0.60643 0.35636 0.0
C1119 C 0.2524 0.61587 0.40633 0.0
C1120 C 0.31433 0.61078 0.3643 0.0
C1121 C 0.32233 0.62237 0.43692 0.0
C1122 C 0.27671 0.61396 0.42128 0.0
C1123 C 0.30732 0.6274 0.50396 0.0
C1124 C 0.24058 0.60117 0.35238 0.0
C1125 C 0.22051 0.63951 0.41687 0.0
N1126 N 0.28523 0.62371 0.49358 0.0
N1127 N 0.24176 0.63417 0.43868 0.0
H1128 H 0.39313 0.95402 0.57702 0.0
H1129 H 0.35449 0.08168 0.54972 0.0
H1130 H 0.33858 0.97403 0.41359 0.0
H1131 H 0.4203 0.05896 0.61863 0.0
H1132 H 0.34412 0.04269 0.51799 0.0
H1133 H 0.39739 0.99271 0.62424 0.0
C1134 C 0.38128 0.96637 0.55471 0.0
C1135 C 0.36519 0.9608 0.49292 0.0
C1136 C 0.36084 0.04641 0.5396 0.0
C1137 C 0.37079 1.00531 0.54209 0.0
C1138 C 0.36685 0.06864 0.55642 0.0
C1139 C 0.38827 0.0736 0.58722 0.0
C1140 C 0.37628 0.0292 0.55511 0.0
C1141 C 0.40354 0.05597 0.59579 0.0
C1142 C 0.38408 0.98857 0.57975 0.0
C1143 C 0.35097 0.97771 0.4625 0.0
N1144 N 0.39718 0.03465 0.58091 0.0
N1145 N 0.35425 0.99931 0.48656 0.0
H1146 H 0.82217 0.5974 0.22977 0.0
H1147 H 0.71465 0.59175 0.52528 0.0
H1148 H 0.82096 0.6026 0.50843 0.0
H1149 H 0.71267 0.59699 0.24708 0.0
H1150 H 0.75399 0.58168 0.51709 0.0
H1151 H 0.78347 0.58414 0.23274 0.0
C1152 C 0.81404 0.5949 0.29168 0.0
C1153 C 0.82456 0.60134 0.36894 0.0
C1154 C 0.74488 0.58433 0.45739 0.0
C1155 C 0.78048 0.5865 0.37295 0.0
C1156 C 0.72234 0.5898 0.46217 0.0
C1157 C 0.71052 0.5951 0.38677 0.0
C1158 C 0.75579 0.58485 0.37673 0.0
C1159 C 0.72128 0.59281 0.30658 0.0
C1160 C 0.79192 0.58753 0.29337 0.0
C1161 C 0.81328 0.59803 0.44738 0.0
N1162 N 0.74349 0.58839 0.30366 0.0
N1163 N 0.79179 0.59116 0.4473 0.0
H1164 H 0.16273 0.04737 0.10212 0.0
H1165 H 0.16241 0.93993 0.94807 0.0
H1166 H 0.14388 0.06776 0.84456 0.0
H1167 H 0.10177 0.96621 0.83985 0.0
H1168 H 0.17799 0.97777 0.94965 0.0
H1169 H 0.16408 0.00851 0.05217 0.0
C1170 C 0.15976 0.04372 0.03426 0.0
C1171 C 0.1535 0.06076 0.97707 0.0
C1172 C 0.1616 0.97506 0.92247 0.0
C1173 C 0.15406 0.0164 0.9204 0.0
C1174 C 0.15283 0.95345 0.92016 0.0
C1175 C 0.13072 0.95 0.89419 0.0
C1176 C 0.14828 0.99315 0.89692 0.0
C1177 C 0.11886 0.96821 0.86046 0.0
C1178 C 0.16051 0.02158 0.00574 0.0
C1179 C 0.14916 0.05511 0.89023 0.0
N1180 N 0.12768 0.98909 0.86386 0.0
N1181 N 0.14877 0.03331 0.86518 0.0
H1182 H 0.721 0.36599 0.39294 0.0
H1183 H 0.79702 0.42552 0.74905 0.0
H1184 H 0.69311 0.40588 0.599 0.0
H1185 H 0.81239 0.36354 0.6209 0.0
H1186 H 0.76268 0.42838 0.66203 0.0
H1187 H 0.75822 0.37618 0.44125 0.0
C1188 C 0.7227 0.37739 0.44712 0.0
C1189 C 0.70392 0.38476 0.49307 0.0
C1190 C 0.77393 0.41451 0.65144 0.0
C1191 C 0.7466 0.39625 0.54932 0.0
C1192 C 0.79353 0.41297 0.70031 0.0
C1193 C 0.80755 0.39442 0.69085 0.0
C1194 C 0.76865 0.3975 0.59225 0.0
C1195 C 0.80208 0.37822 0.62906 0.0
C1196 C 0.74397 0.38311 0.4748 0.0
C1197 C 0.70714 0.39974 0.56203 0.0
N1198 N 0.78307 0.38013 0.58211 0.0
N1199 N 0.72816 0.40467 0.58934 0.0
loop_
_geom_bond_atom_site_label_1
_geom_bond_atom_site_label_2
_geom_bond_distance
_geom_bond_site_symmetry_2
_ccdc_geom_bond_type
Zn0 O6 1.920 . S
Zn0 O12 1.898 . S
Zn0 O15 1.905 . S
Zn1 O9 1.905 . S
Zn1 O10 1.898 . S
Zn1 O18 1.920 1_554 S
Zn2 O5 2.080 . S
Zn2 O8 2.114 . S
Zn2 O11 2.120 . S
Zn2 O13 2.120 . S
Zn2 O14 2.114 . S
Zn2 O17 2.080 1_554 S
C3 O8 1.166 . S
C3 O9 1.182 . S
C4 O10 1.167 . S
C4 O11 1.299 . S
O5 Zn2 2.080 . S
O5 C19 1.305 . S
O6 Zn0 1.920 . S
O6 C19 1.234 . S
C7 O12 1.167 . S
C7 O13 1.299 . S
O8 Zn2 2.114 . S
O8 C3 1.166 . S
O9 Zn1 1.905 . S
O9 C3 1.182 . S
O10 Zn1 1.898 . S
O10 C4 1.167 . S
O11 Zn2 2.120 . S
O11 C4 1.299 . S
O12 Zn0 1.898 . S
O12 C7 1.167 . S
O13 Zn2 2.120 . S
O13 C7 1.299 . S
O14 Zn2 2.114 . S
O14 C16 1.166 . S
O15 Zn0 1.905 . S
O15 C16 1.182 . S
C16 O14 1.166 . S
C16 O15 1.182 . S
O17 Zn2 2.080 1_556 S
O17 C20 1.305 . S
O18 Zn1 1.920 1_556 S
O18 C20 1.234 . S
C19 O5 1.305 . S
C19 O6 1.234 . S
C20 O17 1.305 . S
C20 O18 1.234 . S
Zn21 O27 1.920 . S
Zn21 O33 1.898 . S
Zn21 O36 1.905 . S
Zn22 O30 1.905 . S
Zn22 O31 1.898 . S
Zn22 O39 1.920 . S
Zn23 O26 2.080 . S
Zn23 O29 2.114 . S
Zn23 O32 2.120 . S
Zn23 O34 2.120 . S
Zn23 O35 2.114 . S
Zn23 O38 2.080 . S
C24 O29 1.166 . S
C24 O30 1.182 . S
C25 O31 1.167 . S
C25 O32 1.299 . S
O26 Zn23 2.080 . S
O26 C40 1.305 . S
O27 Zn21 1.920 . S
O27 C40 1.234 . S
C28 O33 1.167 . S
C28 O34 1.299 . S
O29 Zn23 2.114 . S
O29 C24 1.166 . S
O30 Zn22 1.905 . S
O30 C24 1.182 . S
O31 Zn22 1.898 . S
O31 C25 1.167 . S
O32 Zn23 2.120 . S
O32 C25 1.299 . S
O33 Zn21 1.898 . S
O33 C28 1.167 . S
O34 Zn23 2.120 . S
O34 C28 1.299 . S
O35 Zn23 2.114 . S
O35 C37 1.166 . S
O36 Zn21 1.905 . S
O36 C37 1.182 . S
C37 O35 1.166 . S
C37 O36 1.182 . S
O38 Zn23 2.080 . S
O38 C41 1.305 . S
O39 Zn22 1.920 . S
O39 C41 1.234 . S
C40 O26 1.305 . S
C40 O27 1.234 . S
C41 O38 1.305 . S
C41 O39 1.234 . S
Zn42 O48 1.920 . S
Zn42 O54 1.898 . S
Zn42 O57 1.905 . S
Zn43 O51 1.905 . S
Zn43 O52 1.898 . S
Zn43 O60 1.920 . S
Zn44 O47 2.080 . S
Zn44 O50 2.114 . S
Zn44 O53 2.120 . S
Zn44 O55 2.120 . S
Zn44 O56 2.114 . S
Zn44 O59 2.080 . S
C45 O50 1.166 . S
C45 O51 1.182 . S
C46 O52 1.167 . S
C46 O53 1.299 . S
O47 Zn44 2.080 . S
O47 C61 1.305 . S
O48 Zn42 1.920 . S
O48 C61 1.234 . S
C49 O54 1.167 . S
C49 O55 1.299 . S
O50 Zn44 2.114 . S
O50 C45 1.166 . S
O51 Zn43 1.905 . S
O51 C45 1.182 . S
O52 Zn43 1.898 . S
O52 C46 1.167 . S
O53 Zn44 2.120 . S
O53 C46 1.299 . S
O54 Zn42 1.898 . S
O54 C49 1.167 . S
O55 Zn44 2.120 . S
O55 C49 1.299 . S
O56 Zn44 2.114 . S
O56 C58 1.166 . S
O57 Zn42 1.905 . S
O57 C58 1.182 . S
C58 O56 1.166 . S
C58 O57 1.182 . S
O59 Zn44 2.080 . S
O59 C62 1.305 . S
O60 Zn43 1.920 . S
O60 C62 1.234 . S
C61 O47 1.305 . S
C61 O48 1.234 . S
C62 O59 1.305 . S
C62 O60 1.234 . S
Zn63 O69 1.920 1_556 S
Zn63 O75 1.898 . S
Zn63 O78 1.905 . S
Zn64 O72 1.905 . S
Zn64 O73 1.898 . S
Zn64 O81 1.920 . S
Zn65 O68 2.080 1_556 S
Zn65 O71 2.114 . S
Zn65 O74 2.120 . S
Zn65 O76 2.120 . S
Zn65 O77 2.114 . S
Zn65 O80 2.080 . S
C66 O71 1.166 . S
C66 O72 1.182 . S
C67 O73 1.167 . S
C67 O74 1.299 . S
O68 Zn65 2.080 1_554 S
O68 C82 1.305 . S
O69 Zn63 1.920 1_554 S
O69 C82 1.234 . S
C70 O75 1.167 . S
C70 O76 1.299 . S
O71 Zn65 2.114 . S
O71 C66 1.166 . S
O72 Zn64 1.905 . S
O72 C66 1.182 . S
O73 Zn64 1.898 . S
O73 C67 1.167 . S
O74 Zn65 2.120 . S
O74 C67 1.299 . S
O75 Zn63 1.898 . S
O75 C70 1.167 . S
O76 Zn65 2.120 . S
O76 C70 1.299 . S
O77 Zn65 2.114 . S
O77 C79 1.166 . S
O78 Zn63 1.905 . S
O78 C79 1.182 . S
C79 O77 1.166 . S
C79 O78 1.182 . S
O80 Zn65 2.080 . S
O80 C83 1.305 . S
O81 Zn64 1.920 . S
O81 C83 1.234 . S
C82 O68 1.305 . S
C82 O69 1.234 . S
C83 O80 1.305 . S
C83 O81 1.234 . S
Zn84 O90 1.920 . S
Zn84 O96 1.898 . S
Zn84 O99 1.905 . S
Zn85 O93 1.905 1_556 S
Zn85 O94 1.898 . S
Zn85 O102 1.920 . S
Zn86 O89 2.080 . S
Zn86 O92 2.114 1_556 S
Zn86 O95 2.120 . S
Zn86 O97 2.120 . S
Zn86 O98 2.114 . S
Zn86 O101 2.080 . S
C87 O92 1.166 . S
C87 O93 1.182 . S
C88 O94 1.167 . S
C88 O95 1.299 . S
O89 Zn86 2.080 . S
O89 C103 1.305 . S
O90 Zn84 1.920 . S
O90 C103 1.234 . S
C91 O96 1.167 . S
C91 O97 1.299 . S
O92 Zn86 2.114 1_554 S
O92 C87 1.166 . S
O93 Zn85 1.905 1_554 S
O93 C87 1.182 . S
O94 Zn85 1.898 . S
O94 C88 1.167 . S
O95 Zn86 2.120 . S
O95 C88 1.299 . S
O96 Zn84 1.898 . S
O96 C91 1.167 . S
O97 Zn86 2.120 . S
O97 C91 1.299 . S
O98 Zn86 2.114 . S
O98 C100 1.166 . S
O99 Zn84 1.905 . S
O99 C100 1.182 . S
C100 O98 1.166 . S
C100 O99 1.182 . S
O101 Zn86 2.080 . S
O101 C104 1.305 . S
O102 Zn85 1.920 . S
O102 C104 1.234 . S
C103 O89 1.305 . S
C103 O90 1.234 . S
C104 O101 1.305 . S
C104 O102 1.234 . S
Zn105 O111 1.920 . S
Zn105 O117 1.898 . S
Zn105 O120 1.905 . S
Zn106 O114 1.905 1_554 S
Zn106 O115 1.898 . S
Zn106 O123 1.920 . S
Zn107 O110 2.080 . S
Zn107 O113 2.114 1_554 S
Zn107 O116 2.120 . S
Zn107 O118 2.120 . S
Zn107 O119 2.114 . S
Zn107 O122 2.080 . S
C108 O113 1.166 . S
C108 O114 1.182 . S
C109 O115 1.167 . S
C109 O116 1.299 . S
O110 Zn107 2.080 . S
O110 C124 1.305 . S
O111 Zn105 1.920 . S
O111 C124 1.234 . S
C112 O117 1.167 . S
C112 O118 1.299 . S
O113 Zn107 2.114 1_556 S
O113 C108 1.166 . S
O114 Zn106 1.905 1_556 S
O114 C108 1.182 . S
O115 Zn106 1.898 . S
O115 C109 1.167 . S
O116 Zn107 2.120 . S
O116 C109 1.299 . S
O117 Zn105 1.898 . S
O117 C112 1.167 . S
O118 Zn107 2.120 . S
O118 C112 1.299 . S
O119 Zn107 2.114 . S
O119 C121 1.166 . S
O120 Zn105 1.905 . S
O120 C121 1.182 . S
C121 O119 1.166 . S
C121 O120 1.182 . S
O122 Zn107 2.080 . S
O122 C125 1.305 . S
O123 Zn106 1.920 . S
O123 C125 1.234 . S
C124 O110 1.305 . S
C124 O111 1.234 . S
C125 O122 1.305 . S
C125 O123 1.234 . S
Zn126 O132 1.920 . S
Zn126 O138 1.898 . S
Zn126 O141 1.905 . S
Zn127 O135 1.905 . S
Zn127 O136 1.898 . S
Zn127 O144 1.920 . S
Zn128 O131 2.080 . S
Zn128 O134 2.114 . S
Zn128 O137 2.120 . S
Zn128 O139 2.120 . S
Zn128 O140 2.114 . S
Zn128 O143 2.080 . S
C129 O134 1.166 . S
C129 O135 1.182 . S
C130 O136 1.167 . S
C130 O137 1.299 . S
O131 Zn128 2.080 . S
O131 C145 1.305 . S
O132 Zn126 1.920 . S
O132 C145 1.234 . S
C133 O138 1.167 . S
C133 O139 1.299 . S
O134 Zn128 2.114 . S
O134 C129 1.166 . S
O135 Zn127 1.905 . S
O135 C129 1.182 . S
O136 Zn127 1.898 . S
O136 C130 1.167 . S
O137 Zn128 2.120 . S
O137 C130 1.299 . S
O138 Zn126 1.898 . S
O138 C133 1.167 . S
O139 Zn128 2.120 . S
O139 C133 1.299 . S
O140 Zn128 2.114 . S
O140 C142 1.166 . S
O141 Zn126 1.905 . S
O141 C142 1.182 . S
C142 O140 1.166 . S
C142 O141 1.182 . S
O143 Zn128 2.080 . S
O143 C146 1.305 . S
O144 Zn127 1.920 . S
O144 C146 1.234 . S
C145 O131 1.305 . S
C145 O132 1.234 . S
C146 O143 1.305 . S
C146 O144 1.234 . S
Zn147 O153 1.920 . S
Zn147 O159 1.898 . S
Zn147 O162 1.905 . S
Zn148 O156 1.905 . S
Zn148 O157 1.898 . S
Zn148 O165 1.920 . S
Zn149 O152 2.080 . S
Zn149 O155 2.114 . S
Zn149 O158 2.120 . S
Zn149 O160 2.120 . S
Zn149 O161 2.114 . S
Zn149 O164 2.080 . S
C150 O155 1.166 . S
C150 O156 1.182 . S
C151 O157 1.167 . S
C151 O158 1.299 . S
O152 Zn149 2.080 . S
O152 C166 1.305 . S
O153 Zn147 1.920 . S
O153 C166 1.234 . S
C154 O159 1.167 . S
C154 O160 1.299 . S
O155 Zn149 2.114 . S
O155 C150 1.166 . S
O156 Zn148 1.905 . S
O156 C150 1.182 . S
O157 Zn148 1.898 . S
O157 C151 1.167 . S
O158 Zn149 2.120 . S
O158 C151 1.299 . S
O159 Zn147 1.898 . S
O159 C154 1.167 . S
O160 Zn149 2.120 . S
O160 C154 1.299 . S
O161 Zn149 2.114 . S
O161 C163 1.166 . S
O162 Zn147 1.905 . S
O162 C163 1.182 . S
C163 O161 1.166 . S
C163 O162 1.182 . S
O164 Zn149 2.080 . S
O164 C167 1.305 . S
O165 Zn148 1.920 . S
O165 C167 1.234 . S
C166 O152 1.305 . S
C166 O153 1.234 . S
C167 O164 1.305 . S
C167 O165 1.234 . S
Zn168 O174 1.920 . S
Zn168 O180 1.898 . S
Zn168 O183 1.905 . S
Zn169 O177 1.905 1_556 S
Zn169 O178 1.898 . S
Zn169 O186 1.920 . S
Zn170 O173 2.080 . S
Zn170 O176 2.114 1_556 S
Zn170 O179 2.120 . S
Zn170 O181 2.120 . S
Zn170 O182 2.114 . S
Zn170 O185 2.080 . S
C171 O176 1.166 . S
C171 O177 1.182 . S
C172 O178 1.167 . S
C172 O179 1.299 . S
O173 Zn170 2.080 . S
O173 C187 1.305 . S
O174 Zn168 1.920 . S
O174 C187 1.234 . S
C175 O180 1.167 . S
C175 O181 1.299 . S
O176 Zn170 2.114 1_554 S
O176 C171 1.166 . S
O177 Zn169 1.905 1_554 S
O177 C171 1.182 . S
O178 Zn169 1.898 . S
O178 C172 1.167 . S
O179 Zn170 2.120 . S
O179 C172 1.299 . S
O180 Zn168 1.898 . S
O180 C175 1.167 . S
O181 Zn170 2.120 . S
O181 C175 1.299 . S
O182 Zn170 2.114 . S
O182 C184 1.166 . S
O183 Zn168 1.905 . S
O183 C184 1.182 . S
C184 O182 1.166 . S
C184 O183 1.182 . S
O185 Zn170 2.080 . S
O185 C188 1.305 . S
O186 Zn169 1.920 . S
O186 C188 1.234 . S
C187 O173 1.305 . S
C187 O174 1.234 . S
C188 O185 1.305 . S
C188 O186 1.234 . S
Zn189 O195 1.920 . S
Zn189 O201 1.898 . S
Zn189 O204 1.905 . S
Zn190 O198 1.905 . S
Zn190 O199 1.898 . S
Zn190 O207 1.920 . S
Zn191 O194 2.080 . S
Zn191 O197 2.114 . S
Zn191 O200 2.120 . S
Zn191 O202 2.120 . S
Zn191 O203 2.114 . S
Zn191 O206 2.080 . S
C192 O197 1.166 . S
C192 O198 1.182 . S
C193 O199 1.167 . S
C193 O200 1.299 . S
O194 Zn191 2.080 . S
O194 C208 1.305 . S
O195 Zn189 1.920 . S
O195 C208 1.234 . S
C196 O201 1.167 . S
C196 O202 1.299 . S
O197 Zn191 2.114 . S
O197 C192 1.166 . S
O198 Zn190 1.905 . S
O198 C192 1.182 . S
O199 Zn190 1.898 . S
O199 C193 1.167 . S
O200 Zn191 2.120 . S
O200 C193 1.299 . S
O201 Zn189 1.898 . S
O201 C196 1.167 . S
O202 Zn191 2.120 . S
O202 C196 1.299 . S
O203 Zn191 2.114 . S
O203 C205 1.166 . S
O204 Zn189 1.905 . S
O204 C205 1.182 . S
C205 O203 1.166 . S
C205 O204 1.182 . S
O206 Zn191 2.080 . S
O206 C209 1.305 . S
O207 Zn190 1.920 . S
O207 C209 1.234 . S
C208 O194 1.305 . S
C208 O195 1.234 . S
C209 O206 1.305 . S
C209 O207 1.234 . S
Zn210 O216 1.920 . S
Zn210 O222 1.898 . S
Zn210 O225 1.905 . S
Zn211 O219 1.905 . S
Zn211 O220 1.898 . S
Zn211 O228 1.920 . S
Zn212 O215 2.080 . S
Zn212 O218 2.114 . S
Zn212 O221 2.120 . S
Zn212 O223 2.120 . S
Zn212 O224 2.114 . S
Zn212 O227 2.080 . S
C213 O218 1.166 . S
C213 O219 1.182 . S
C214 O220 1.167 . S
C214 O221 1.299 . S
O215 Zn212 2.080 . S
O215 C229 1.305 . S
O216 Zn210 1.920 . S
O216 C229 1.234 . S
C217 O222 1.167 . S
C217 O223 1.299 . S
O218 Zn212 2.114 . S
O218 C213 1.166 . S
O219 Zn211 1.905 . S
O219 C213 1.182 . S
O220 Zn211 1.898 . S
O220 C214 1.167 . S
O221 Zn212 2.120 . S
O221 C214 1.299 . S
O222 Zn210 1.898 . S
O222 C217 1.167 . S
O223 Zn212 2.120 . S
O223 C217 1.299 . S
O224 Zn212 2.114 . S
O224 C226 1.166 . S
O225 Zn210 1.905 . S
O225 C226 1.182 . S
C226 O224 1.166 . S
C226 O225 1.182 . S
O227 Zn212 2.080 . S
O227 C230 1.305 . S
O228 Zn211 1.920 . S
O228 C230 1.234 . S
C229 O215 1.305 . S
C229 O216 1.234 . S
C230 O227 1.305 . S
C230 O228 1.234 . S
Zn231 O237 1.920 . S
Zn231 O243 1.898 . S
Zn231 O246 1.905 1_554 S
Zn232 O240 1.905 . S
Zn232 O241 1.898 . S
Zn232 O249 1.920 . S
Zn233 O236 2.080 . S
Zn233 O239 2.114 . S
Zn233 O242 2.120 . S
Zn233 O244 2.120 . S
Zn233 O245 2.114 1_554 S
Zn233 O248 2.080 . S
C234 O239 1.166 . S
C234 O240 1.182 . S
C235 O241 1.167 . S
C235 O242 1.299 . S
O236 Zn233 2.080 . S
O236 C250 1.305 . S
O237 Zn231 1.920 . S
O237 C250 1.234 . S
C238 O243 1.167 . S
C238 O244 1.299 . S
O239 Zn233 2.114 . S
O239 C234 1.166 . S
O240 Zn232 1.905 . S
O240 C234 1.182 . S
O241 Zn232 1.898 . S
O241 C235 1.167 . S
O242 Zn233 2.120 . S
O242 C235 1.299 . S
O243 Zn231 1.898 . S
O243 C238 1.167 . S
O244 Zn233 2.120 . S
O244 C238 1.299 . S
O245 Zn233 2.114 1_556 S
O245 C247 1.166 . S
O246 Zn231 1.905 1_556 S
O246 C247 1.182 . S
C247 O245 1.166 . S
C247 O246 1.182 . S
O248 Zn233 2.080 . S
O248 C251 1.305 . S
O249 Zn232 1.920 . S
O249 C251 1.234 . S
C250 O236 1.305 . S
C250 O237 1.234 . S
C251 O248 1.305 . S
C251 O249 1.234 . S
Zn252 O258 1.920 . S
Zn252 O264 1.898 . S
Zn252 O267 1.905 1_554 S
Zn253 O261 1.905 . S
Zn253 O262 1.898 . S
Zn253 O270 1.920 . S
Zn254 O257 2.080 . S
Zn254 O260 2.114 . S
Zn254 O263 2.120 . S
Zn254 O265 2.120 . S
Zn254 O266 2.114 1_554 S
Zn254 O269 2.080 . S
C255 O260 1.166 . S
C255 O261 1.182 . S
C256 O262 1.167 . S
C256 O263 1.299 . S
O257 Zn254 2.080 . S
O257 C271 1.305 . S
O258 Zn252 1.920 . S
O258 C271 1.234 . S
C259 O264 1.167 . S
C259 O265 1.299 . S
O260 Zn254 2.114 . S
O260 C255 1.166 . S
O261 Zn253 1.905 . S
O261 C255 1.182 . S
O262 Zn253 1.898 . S
O262 C256 1.167 . S
O263 Zn254 2.120 . S
O263 C256 1.299 . S
O264 Zn252 1.898 . S
O264 C259 1.167 . S
O265 Zn254 2.120 . S
O265 C259 1.299 . S
O266 Zn254 2.114 1_556 S
O266 C268 1.166 . S
O267 Zn252 1.905 1_556 S
O267 C268 1.182 . S
C268 O266 1.166 . S
C268 O267 1.182 . S
O269 Zn254 2.080 . S
O269 C272 1.305 . S
O270 Zn253 1.920 . S
O270 C272 1.234 . S
C271 O257 1.305 . S
C271 O258 1.234 . S
C272 O269 1.305 . S
C272 O270 1.234 . S
Zn273 O279 1.920 . S
Zn273 O285 1.898 . S
Zn273 O288 1.905 . S
Zn274 O282 1.905 . S
Zn274 O283 1.898 . S
Zn274 O291 1.920 1_556 S
Zn275 O278 2.080 . S
Zn275 O281 2.114 . S
Zn275 O284 2.120 . S
Zn275 O286 2.120 . S
Zn275 O287 2.114 . S
Zn275 O290 2.080 1_556 S
C276 O281 1.166 . S
C276 O282 1.182 . S
C277 O283 1.167 . S
C277 O284 1.299 . S
O278 Zn275 2.080 . S
O278 C292 1.305 . S
O279 Zn273 1.920 . S
O279 C292 1.234 . S
C280 O285 1.167 . S
C280 O286 1.299 . S
O281 Zn275 2.114 . S
O281 C276 1.166 . S
O282 Zn274 1.905 . S
O282 C276 1.182 . S
O283 Zn274 1.898 . S
O283 C277 1.167 . S
O284 Zn275 2.120 . S
O284 C277 1.299 . S
O285 Zn273 1.898 . S
O285 C280 1.167 . S
O286 Zn275 2.120 . S
O286 C280 1.299 . S
O287 Zn275 2.114 . S
O287 C289 1.166 . S
O288 Zn273 1.905 . S
O288 C289 1.182 . S
C289 O287 1.166 . S
C289 O288 1.182 . S
O290 Zn275 2.080 1_554 S
O290 C293 1.305 . S
O291 Zn274 1.920 1_554 S
O291 C293 1.234 . S
C292 O278 1.305 . S
C292 O279 1.234 . S
C293 O290 1.305 . S
C293 O291 1.234 . S
Zn294 O300 1.920 . S
Zn294 O306 1.898 . S
Zn294 O309 1.905 . S
Zn295 O303 1.905 . S
Zn295 O304 1.898 . S
Zn295 O312 1.920 . S
Zn296 O299 2.080 . S
Zn296 O302 2.114 . S
Zn296 O305 2.120 . S
Zn296 O307 2.120 . S
Zn296 O308 2.114 . S
Zn296 O311 2.080 . S
C297 O302 1.166 . S
C297 O303 1.182 . S
C298 O304 1.167 . S
C298 O305 1.299 . S
O299 Zn296 2.080 . S
O299 C313 1.305 . S
O300 Zn294 1.920 . S
O300 C313 1.234 . S
C301 O306 1.167 . S
C301 O307 1.299 . S
O302 Zn296 2.114 . S
O302 C297 1.166 . S
O303 Zn295 1.905 . S
O303 C297 1.182 . S
O304 Zn295 1.898 . S
O304 C298 1.167 . S
O305 Zn296 2.120 . S
O305 C298 1.299 . S
O306 Zn294 1.898 . S
O306 C301 1.167 . S
O307 Zn296 2.120 . S
O307 C301 1.299 . S
O308 Zn296 2.114 . S
O308 C310 1.166 . S
O309 Zn294 1.905 . S
O309 C310 1.182 . S
C310 O308 1.166 . S
C310 O309 1.182 . S
O311 Zn296 2.080 . S
O311 C314 1.305 . S
O312 Zn295 1.920 . S
O312 C314 1.234 . S
C313 O299 1.305 . S
C313 O300 1.234 . S
C314 O311 1.305 . S
C314 O312 1.234 . S
Zn315 O321 1.920 . S
Zn315 O327 1.898 . S
Zn315 O330 1.905 . S
Zn316 O324 1.905 . S
Zn316 O325 1.898 . S
Zn316 O333 1.920 . S
Zn317 O320 2.080 . S
Zn317 O323 2.114 . S
Zn317 O326 2.120 . S
Zn317 O328 2.120 . S
Zn317 O329 2.114 . S
Zn317 O332 2.080 . S
C318 O323 1.166 . S
C318 O324 1.182 . S
C319 O325 1.167 . S
C319 O326 1.299 . S
O320 Zn317 2.080 . S
O320 C334 1.305 . S
O321 Zn315 1.920 . S
O321 C334 1.234 . S
C322 O327 1.167 . S
C322 O328 1.299 . S
O323 Zn317 2.114 . S
O323 C318 1.166 . S
O324 Zn316 1.905 . S
O324 C318 1.182 . S
O325 Zn316 1.898 . S
O325 C319 1.167 . S
O326 Zn317 2.120 . S
O326 C319 1.299 . S
O327 Zn315 1.898 . S
O327 C322 1.167 . S
O328 Zn317 2.120 . S
O328 C322 1.299 . S
O329 Zn317 2.114 . S
O329 C331 1.166 . S
O330 Zn315 1.905 . S
O330 C331 1.182 . S
C331 O329 1.166 . S
C331 O330 1.182 . S
O332 Zn317 2.080 . S
O332 C335 1.305 . S
O333 Zn316 1.920 . S
O333 C335 1.234 . S
C334 O320 1.305 . S
C334 O321 1.234 . S
C335 O332 1.305 . S
C335 O333 1.234 . S
H336 C342 0.930 . S
H337 C346 0.930 . S
H338 C351 0.929 . S
H339 C349 0.929 . S
H340 C344 0.929 . S
H341 C350 0.929 . S
C342 H336 0.930 . S
C342 C343 1.367 . S
C342 C350 1.378 . S
C343 C342 1.367 . S
C343 C351 1.433 . S
C344 H340 0.929 . S
C344 C346 1.378 . S
C344 C348 1.350 . S
C345 C348 1.463 . S
C345 C350 1.350 . S
C345 N353 1.427 . S
C346 H337 0.930 . S
C346 C344 1.378 . S
C346 C347 1.367 . S
C347 C346 1.367 . S
C347 C349 1.433 . S
C348 C344 1.350 . S
C348 C345 1.463 . S
C348 N352 1.427 . S
C349 H339 0.929 . S
C349 C347 1.433 . S
C349 N352 1.384 . S
C350 H341 0.929 . S
C350 C342 1.378 . S
C350 C345 1.350 . S
C351 H338 0.929 . S
C351 C343 1.433 . S
C351 N353 1.384 . S
N352 C348 1.427 . S
N352 C349 1.384 . S
N353 C345 1.427 . S
N353 C351 1.384 . S
H354 C360 0.930 . S
H355 C364 0.930 . S
H356 C369 0.929 . S
H357 C367 0.929 . S
H358 C362 0.929 . S
H359 C368 0.929 . S
C360 H354 0.930 . S
C360 C361 1.367 . S
C360 C368 1.378 1_554 S
C361 C360 1.367 . S
C361 C369 1.433 . S
C362 H358 0.929 . S
C362 C364 1.378 . S
C362 C366 1.350 . S
C363 C366 1.463 . S
C363 C368 1.350 . S
C363 N371 1.427 . S
C364 H355 0.930 . S
C364 C362 1.378 . S
C364 C365 1.367 . S
C365 C364 1.367 . S
C365 C367 1.433 . S
C366 C362 1.350 . S
C366 C363 1.463 . S
C366 N370 1.427 . S
C367 H357 0.929 . S
C367 C365 1.433 . S
C367 N370 1.384 . S
C368 H359 0.929 . S
C368 C360 1.378 1_556 S
C368 C363 1.350 . S
C369 H356 0.929 . S
C369 C361 1.433 . S
C369 N371 1.384 1_554 S
N370 C366 1.427 . S
N370 C367 1.384 . S
N371 C363 1.427 . S
N371 C369 1.384 1_556 S
H372 C378 0.930 . S
H373 C382 0.930 . S
H374 C387 0.929 . S
H375 C385 0.929 . S
H376 C380 0.929 . S
H377 C386 0.929 . S
C378 H372 0.930 . S
C378 C379 1.367 . S
C378 C386 1.378 . S
C379 C378 1.367 . S
C379 C387 1.433 . S
C380 H376 0.929 . S
C380 C382 1.378 1_554 S
C380 C384 1.350 . S
C381 C384 1.463 . S
C381 C386 1.350 . S
C381 N389 1.427 . S
C382 H373 0.930 . S
C382 C380 1.378 1_556 S
C382 C383 1.367 . S
C383 C382 1.367 . S
C383 C385 1.433 . S
C384 C380 1.350 . S
C384 C381 1.463 . S
C384 N388 1.427 . S
C385 H375 0.929 . S
C385 C383 1.433 . S
C385 N388 1.384 1_556 S
C386 H377 0.929 . S
C386 C378 1.378 . S
C386 C381 1.350 . S
C387 H374 0.929 . S
C387 C379 1.433 . S
C387 N389 1.384 . S
N388 C384 1.427 . S
N388 C385 1.384 1_554 S
N389 C381 1.427 . S
N389 C387 1.384 . S
H390 C396 0.930 . S
H391 C400 0.930 . S
H392 C405 0.929 . S
H393 C403 0.929 . S
H394 C398 0.929 . S
H395 C404 0.929 . S
C396 H390 0.930 . S
C396 C397 1.367 . S
C396 C404 1.378 . S
C397 C396 1.367 . S
C397 C405 1.433 . S
C398 H394 0.929 . S
C398 C400 1.378 . S
C398 C402 1.350 . S
C399 C402 1.463 . S
C399 C404 1.350 . S
C399 N407 1.427 . S
C400 H391 0.930 . S
C400 C398 1.378 . S
C400 C401 1.367 . S
C401 C400 1.367 . S
C401 C403 1.433 . S
C402 C398 1.350 . S
C402 C399 1.463 . S
C402 N406 1.427 . S
C403 H393 0.929 . S
C403 C401 1.433 . S
C403 N406 1.384 . S
C404 H395 0.929 . S
C404 C396 1.378 . S
C404 C399 1.350 . S
C405 H392 0.929 . S
C405 C397 1.433 . S
C405 N407 1.384 . S
N406 C402 1.427 . S
N406 C403 1.384 . S
N407 C399 1.427 . S
N407 C405 1.384 . S
H408 C414 0.930 . S
H409 C418 0.930 . S
H410 C423 0.929 . S
H411 C421 0.929 . S
H412 C416 0.929 . S
H413 C422 0.929 . S
C414 H408 0.930 . S
C414 C415 1.367 . S
C414 C422 1.378 . S
C415 C414 1.367 . S
C415 C423 1.433 . S
C416 H412 0.929 . S
C416 C418 1.378 . S
C416 C420 1.350 . S
C417 C420 1.463 . S
C417 C422 1.350 . S
C417 N425 1.427 . S
C418 H409 0.930 . S
C418 C416 1.378 . S
C418 C419 1.367 . S
C419 C418 1.367 . S
C419 C421 1.433 . S
C420 C416 1.350 . S
C420 C417 1.463 . S
C420 N424 1.427 . S
C421 H411 0.929 . S
C421 C419 1.433 . S
C421 N424 1.384 . S
C422 H413 0.929 . S
C422 C414 1.378 . S
C422 C417 1.350 . S
C423 H410 0.929 . S
C423 C415 1.433 . S
C423 N425 1.384 . S
N424 C420 1.427 . S
N424 C421 1.384 . S
N425 C417 1.427 . S
N425 C423 1.384 . S
H426 C432 0.930 . S
H427 C436 0.930 . S
H428 C441 0.929 . S
H429 C439 0.929 . S
H430 C434 0.929 . S
H431 C440 0.929 . S
C432 H426 0.930 . S
C432 C433 1.367 . S
C432 C440 1.378 . S
C433 C432 1.367 . S
C433 C441 1.433 . S
C434 H430 0.929 . S
C434 C436 1.378 . S
C434 C438 1.350 . S
C435 C438 1.463 . S
C435 C440 1.350 . S
C435 N443 1.427 . S
C436 H427 0.930 . S
C436 C434 1.378 . S
C436 C437 1.367 . S
C437 C436 1.367 . S
C437 C439 1.433 . S
C438 C434 1.350 . S
C438 C435 1.463 . S
C438 N442 1.427 . S
C439 H429 0.929 . S
C439 C437 1.433 . S
C439 N442 1.384 . S
C440 H431 0.929 . S
C440 C432 1.378 . S
C440 C435 1.350 . S
C441 H428 0.929 . S
C441 C433 1.433 . S
C441 N443 1.384 . S
N442 C438 1.427 . S
N442 C439 1.384 . S
N443 C435 1.427 . S
N443 C441 1.384 . S
H444 C450 0.930 . S
H445 C454 0.930 . S
H446 C459 0.929 . S
H447 C457 0.929 . S
H448 C452 0.929 . S
H449 C458 0.929 . S
C450 H444 0.930 . S
C450 C451 1.367 . S
C450 C458 1.378 . S
C451 C450 1.367 . S
C451 C459 1.433 . S
C452 H448 0.929 . S
C452 C454 1.378 1_556 S
C452 C456 1.350 . S
C453 C456 1.463 . S
C453 C458 1.350 . S
C453 N461 1.427 . S
C454 H445 0.930 . S
C454 C452 1.378 1_554 S
C454 C455 1.367 . S
C455 C454 1.367 . S
C455 C457 1.433 . S
C456 C452 1.350 . S
C456 C453 1.463 . S
C456 N460 1.427 . S
C457 H447 0.929 . S
C457 C455 1.433 . S
C457 N460 1.384 1_554 S
C458 H449 0.929 . S
C458 C450 1.378 . S
C458 C453 1.350 . S
C459 H446 0.929 . S
C459 C451 1.433 . S
C459 N461 1.384 . S
N460 C456 1.427 . S
N460 C457 1.384 1_556 S
N461 C453 1.427 . S
N461 C459 1.384 . S
H462 C468 0.930 . S
H463 C472 0.930 . S
H464 C477 0.929 . S
H465 C475 0.929 . S
H466 C470 0.929 . S
H467 C476 0.929 . S
C468 H462 0.930 . S
C468 C469 1.367 . S
C468 C476 1.378 1_556 S
C469 C468 1.367 . S
C469 C477 1.433 . S
C470 H466 0.929 . S
C470 C472 1.378 . S
C470 C474 1.350 . S
C471 C474 1.463 . S
C471 C476 1.350 . S
C471 N479 1.427 . S
C472 H463 0.930 . S
C472 C470 1.378 . S
C472 C473 1.367 . S
C473 C472 1.367 . S
C473 C475 1.433 . S
C474 C470 1.350 . S
C474 C471 1.463 . S
C474 N478 1.427 . S
C475 H465 0.929 . S
C475 C473 1.433 . S
C475 N478 1.384 . S
C476 H467 0.929 . S
C476 C468 1.378 1_554 S
C476 C471 1.350 . S
C477 H464 0.929 . S
C477 C469 1.433 . S
C477 N479 1.384 1_556 S
N478 C474 1.427 . S
N478 C475 1.384 . S
N479 C471 1.427 . S
N479 C477 1.384 1_554 S
H480 C486 0.930 . S
H481 C490 0.930 . S
H482 C495 0.929 . S
H483 C493 0.929 . S
H484 C488 0.929 . S
H485 C494 0.929 . S
C486 H480 0.930 . S
C486 C487 1.367 . S
C486 C494 1.378 . S
C487 C486 1.367 . S
C487 C495 1.433 . S
C488 H484 0.929 . S
C488 C490 1.378 . S
C488 C492 1.350 . S
C489 C492 1.463 . S
C489 C494 1.350 . S
C489 N497 1.427 . S
C490 H481 0.930 . S
C490 C488 1.378 . S
C490 C491 1.367 . S
C491 C490 1.367 . S
C491 C493 1.433 . S
C492 C488 1.350 . S
C492 C489 1.463 . S
C492 N496 1.427 . S
C493 H483 0.929 . S
C493 C491 1.433 . S
C493 N496 1.384 . S
C494 H485 0.929 . S
C494 C486 1.378 . S
C494 C489 1.350 . S
C495 H482 0.929 . S
C495 C487 1.433 . S
C495 N497 1.384 . S
N496 C492 1.427 . S
N496 C493 1.384 . S
N497 C489 1.427 . S
N497 C495 1.384 . S
H498 C504 0.930 . S
H499 C508 0.930 . S
H500 C513 0.929 . S
H501 C511 0.929 . S
H502 C506 0.929 . S
H503 C512 0.929 . S
C504 H498 0.930 . S
C504 C505 1.367 . S
C504 C512 1.378 . S
C505 C504 1.367 . S
C505 C513 1.433 . S
C506 H502 0.929 . S
C506 C508 1.378 1_554 S
C506 C510 1.350 . S
C507 C510 1.463 . S
C507 C512 1.350 . S
C507 N515 1.427 . S
C508 H499 0.930 . S
C508 C506 1.378 1_556 S
C508 C509 1.367 . S
C509 C508 1.367 . S
C509 C511 1.433 . S
C510 C506 1.350 . S
C510 C507 1.463 . S
C510 N514 1.427 . S
C511 H501 0.929 . S
C511 C509 1.433 . S
C511 N514 1.384 1_556 S
C512 H503 0.929 . S
C512 C504 1.378 . S
C512 C507 1.350 . S
C513 H500 0.929 . S
C513 C505 1.433 . S
C513 N515 1.384 . S
N514 C510 1.427 . S
N514 C511 1.384 1_554 S
N515 C507 1.427 . S
N515 C513 1.384 . S
H516 C522 0.930 . S
H517 C526 0.930 . S
H518 C531 0.929 . S
H519 C529 0.929 . S
H520 C524 0.929 . S
H521 C530 0.929 . S
C522 H516 0.930 . S
C522 C523 1.367 . S
C522 C530 1.378 1_554 S
C523 C522 1.367 . S
C523 C531 1.433 . S
C524 H520 0.929 . S
C524 C526 1.378 . S
C524 C528 1.350 . S
C525 C528 1.463 . S
C525 C530 1.350 . S
C525 N533 1.427 . S
C526 H517 0.930 . S
C526 C524 1.378 . S
C526 C527 1.367 . S
C527 C526 1.367 . S
C527 C529 1.433 . S
C528 C524 1.350 . S
C528 C525 1.463 . S
C528 N532 1.427 . S
C529 H519 0.929 . S
C529 C527 1.433 . S
C529 N532 1.384 . S
C530 H521 0.929 . S
C530 C522 1.378 1_556 S
C530 C525 1.350 . S
C531 H518 0.929 . S
C531 C523 1.433 . S
C531 N533 1.384 1_554 S
N532 C528 1.427 . S
N532 C529 1.384 . S
N533 C525 1.427 . S
N533 C531 1.384 1_556 S
H534 C540 0.930 . S
H535 C544 0.930 . S
H536 C549 0.929 . S
H537 C547 0.929 . S
H538 C542 0.929 . S
H539 C548 0.929 . S
C540 H534 0.930 . S
C540 C541 1.367 . S
C540 C548 1.378 . S
C541 C540 1.367 . S
C541 C549 1.433 . S
C542 H538 0.929 . S
C542 C544 1.378 . S
C542 C546 1.350 . S
C543 C546 1.463 . S
C543 C548 1.350 . S
C543 N551 1.427 . S
C544 H535 0.930 . S
C544 C542 1.378 . S
C544 C545 1.367 . S
C545 C544 1.367 . S
C545 C547 1.433 . S
C546 C542 1.350 . S
C546 C543 1.463 . S
C546 N550 1.427 . S
C547 H537 0.929 . S
C547 C545 1.433 . S
C547 N550 1.384 . S
C548 H539 0.929 . S
C548 C540 1.378 . S
C548 C543 1.350 . S
C549 H536 0.929 . S
C549 C541 1.433 . S
C549 N551 1.384 . S
N550 C546 1.427 . S
N550 C547 1.384 . S
N551 C543 1.427 . S
N551 C549 1.384 . S
H552 C558 0.930 . S
H553 C562 0.930 . S
H554 C567 0.929 . S
H555 C565 0.929 . S
H556 C560 0.929 . S
H557 C566 0.929 . S
C558 H552 0.930 . S
C558 C559 1.367 . S
C558 C566 1.378 . S
C559 C558 1.367 . S
C559 C567 1.433 . S
C560 H556 0.929 . S
C560 C562 1.378 . S
C560 C564 1.350 . S
C561 C564 1.463 . S
C561 C566 1.350 . S
C561 N569 1.427 . S
C562 H553 0.930 . S
C562 C560 1.378 . S
C562 C563 1.367 . S
C563 C562 1.367 . S
C563 C565 1.433 . S
C564 C560 1.350 . S
C564 C561 1.463 . S
C564 N568 1.427 . S
C565 H555 0.929 . S
C565 C563 1.433 . S
C565 N568 1.384 . S
C566 H557 0.929 . S
C566 C558 1.378 . S
C566 C561 1.350 . S
C567 H554 0.929 . S
C567 C559 1.433 . S
C567 N569 1.384 . S
N568 C564 1.427 . S
N568 C565 1.384 . S
N569 C561 1.427 . S
N569 C567 1.384 . S
H570 C576 0.930 . S
H571 C580 0.930 . S
H572 C585 0.929 . S
H573 C583 0.929 . S
H574 C578 0.929 . S
H575 C584 0.929 . S
C576 H570 0.930 . S
C576 C577 1.367 . S
C576 C584 1.378 . S
C577 C576 1.367 . S
C577 C585 1.433 . S
C578 H574 0.929 . S
C578 C580 1.378 . S
C578 C582 1.350 . S
C579 C582 1.463 . S
C579 C584 1.350 . S
C579 N587 1.427 . S
C580 H571 0.930 . S
C580 C578 1.378 . S
C580 C581 1.367 . S
C581 C580 1.367 . S
C581 C583 1.433 . S
C582 C578 1.350 . S
C582 C579 1.463 . S
C582 N586 1.427 . S
C583 H573 0.929 . S
C583 C581 1.433 . S
C583 N586 1.384 . S
C584 H575 0.929 . S
C584 C576 1.378 . S
C584 C579 1.350 . S
C585 H572 0.929 . S
C585 C577 1.433 . S
C585 N587 1.384 . S
N586 C582 1.427 . S
N586 C583 1.384 . S
N587 C579 1.427 . S
N587 C585 1.384 . S
H588 C594 0.930 . S
H589 C598 0.930 . S
H590 C603 0.929 . S
H591 C601 0.929 . S
H592 C596 0.929 . S
H593 C602 0.929 . S
C594 H588 0.930 . S
C594 C595 1.367 . S
C594 C602 1.378 . S
C595 C594 1.367 . S
C595 C603 1.433 . S
C596 H592 0.929 . S
C596 C598 1.378 1_554 S
C596 C600 1.350 . S
C597 C600 1.463 . S
C597 C602 1.350 . S
C597 N605 1.427 . S
C598 H589 0.930 . S
C598 C596 1.378 1_556 S
C598 C599 1.367 . S
C599 C598 1.367 . S
C599 C601 1.433 . S
C600 C596 1.350 . S
C600 C597 1.463 . S
C600 N604 1.427 . S
C601 H591 0.929 . S
C601 C599 1.433 . S
C601 N604 1.384 1_556 S
C602 H593 0.929 . S
C602 C594 1.378 . S
C602 C597 1.350 . S
C603 H590 0.929 . S
C603 C595 1.433 . S
C603 N605 1.384 . S
N604 C600 1.427 . S
N604 C601 1.384 1_554 S
N605 C597 1.427 . S
N605 C603 1.384 . S
H606 C612 0.930 . S
H607 C616 0.930 . S
H608 C621 0.929 . S
H609 C619 0.929 . S
H610 C614 0.929 . S
H611 C620 0.929 . S
C612 H606 0.930 . S
C612 C613 1.367 . S
C612 C620 1.378 1_554 S
C613 C612 1.367 . S
C613 C621 1.433 . S
C614 H610 0.929 . S
C614 C616 1.378 . S
C614 C618 1.350 . S
C615 C618 1.463 . S
C615 C620 1.350 . S
C615 N623 1.427 . S
C616 H607 0.930 . S
C616 C614 1.378 . S
C616 C617 1.367 . S
C617 C616 1.367 . S
C617 C619 1.433 . S
C618 C614 1.350 . S
C618 C615 1.463 . S
C618 N622 1.427 . S
C619 H609 0.929 . S
C619 C617 1.433 . S
C619 N622 1.384 . S
C620 H611 0.929 . S
C620 C612 1.378 1_556 S
C620 C615 1.350 . S
C621 H608 0.929 . S
C621 C613 1.433 . S
C621 N623 1.384 1_554 S
N622 C618 1.427 . S
N622 C619 1.384 . S
N623 C615 1.427 . S
N623 C621 1.384 1_556 S
H624 C630 0.930 . S
H625 C634 0.930 . S
H626 C639 0.929 . S
H627 C637 0.929 . S
H628 C632 0.929 . S
H629 C638 0.929 . S
C630 H624 0.930 . S
C630 C631 1.367 . S
C630 C638 1.378 . S
C631 C630 1.367 . S
C631 C639 1.433 . S
C632 H628 0.929 . S
C632 C634 1.378 . S
C632 C636 1.350 . S
C633 C636 1.463 . S
C633 C638 1.350 . S
C633 N641 1.427 . S
C634 H625 0.930 . S
C634 C632 1.378 . S
C634 C635 1.367 . S
C635 C634 1.367 . S
C635 C637 1.433 . S
C636 C632 1.350 . S
C636 C633 1.463 . S
C636 N640 1.427 . S
C637 H627 0.929 . S
C637 C635 1.433 . S
C637 N640 1.384 . S
C638 H629 0.929 . S
C638 C630 1.378 . S
C638 C633 1.350 . S
C639 H626 0.929 . S
C639 C631 1.433 . S
C639 N641 1.384 . S
N640 C636 1.427 . S
N640 C637 1.384 . S
N641 C633 1.427 . S
N641 C639 1.384 . S
H642 C648 0.930 . S
H643 C652 0.930 . S
H644 C657 0.929 . S
H645 C655 0.929 . S
H646 C650 0.929 . S
H647 C656 0.929 . S
C648 H642 0.930 . S
C648 C649 1.367 . S
C648 C656 1.378 . S
C649 C648 1.367 . S
C649 C657 1.433 . S
C650 H646 0.929 . S
C650 C652 1.378 . S
C650 C654 1.350 . S
C651 C654 1.463 . S
C651 C656 1.350 . S
C651 N659 1.427 . S
C652 H643 0.930 . S
C652 C650 1.378 . S
C652 C653 1.367 . S
C653 C652 1.367 . S
C653 C655 1.433 . S
C654 C650 1.350 . S
C654 C651 1.463 . S
C654 N658 1.427 . S
C655 H645 0.929 . S
C655 C653 1.433 . S
C655 N658 1.384 . S
C656 H647 0.929 . S
C656 C648 1.378 . S
C656 C651 1.350 . S
C657 H644 0.929 . S
C657 C649 1.433 . S
C657 N659 1.384 . S
N658 C654 1.427 . S
N658 C655 1.384 . S
N659 C651 1.427 . S
N659 C657 1.384 . S
H660 C666 0.930 . S
H661 C670 0.930 . S
H662 C675 0.929 . S
H663 C673 0.929 . S
H664 C668 0.929 . S
H665 C674 0.929 . S
C666 H660 0.930 . S
C666 C667 1.367 . S
C666 C674 1.378 . S
C667 C666 1.367 . S
C667 C675 1.433 . S
C668 H664 0.929 . S
C668 C670 1.378 . S
C668 C672 1.350 . S
C669 C672 1.463 . S
C669 C674 1.350 . S
C669 N677 1.427 . S
C670 H661 0.930 . S
C670 C668 1.378 . S
C670 C671 1.367 . S
C671 C670 1.367 . S
C671 C673 1.433 . S
C672 C668 1.350 . S
C672 C669 1.463 . S
C672 N676 1.427 . S
C673 H663 0.929 . S
C673 C671 1.433 . S
C673 N676 1.384 . S
C674 H665 0.929 . S
C674 C666 1.378 . S
C674 C669 1.350 . S
C675 H662 0.929 . S
C675 C667 1.433 . S
C675 N677 1.384 . S
N676 C672 1.427 . S
N676 C673 1.384 . S
N677 C669 1.427 . S
N677 C675 1.384 . S
H678 C684 0.930 . S
H679 C688 0.930 . S
H680 C693 0.929 . S
H681 C691 0.929 . S
H682 C686 0.929 . S
H683 C692 0.929 . S
C684 H678 0.930 . S
C684 C685 1.367 . S
C684 C692 1.378 . S
C685 C684 1.367 . S
C685 C693 1.433 . S
C686 H682 0.929 . S
C686 C688 1.378 . S
C686 C690 1.350 . S
C687 C690 1.463 1_655 S
C687 C692 1.350 . S
C687 N695 1.427 . S
C688 H679 0.930 . S
C688 C686 1.378 . S
C688 C689 1.367 . S
C689 C688 1.367 . S
C689 C691 1.433 . S
C690 C686 1.350 . S
C690 C687 1.463 1_455 S
C690 N694 1.427 . S
C691 H681 0.929 . S
C691 C689 1.433 . S
C691 N694 1.384 . S
C692 H683 0.929 . S
C692 C684 1.378 . S
C692 C687 1.350 . S
C693 H680 0.929 . S
C693 C685 1.433 . S
C693 N695 1.384 . S
N694 C690 1.427 . S
N694 C691 1.384 . S
N695 C687 1.427 . S
N695 C693 1.384 . S
H696 C702 0.930 . S
H697 C706 0.930 . S
H698 C711 0.929 . S
H699 C709 0.929 . S
H700 C704 0.929 . S
H701 C710 0.929 . S
C702 H696 0.930 . S
C702 C703 1.367 . S
C702 C710 1.378 . S
C703 C702 1.367 . S
C703 C711 1.433 . S
C704 H700 0.929 . S
C704 C706 1.378 . S
C704 C708 1.350 . S
C705 C708 1.463 . S
C705 C710 1.350 . S
C705 N713 1.427 . S
C706 H697 0.930 . S
C706 C704 1.378 . S
C706 C707 1.367 . S
C707 C706 1.367 . S
C707 C709 1.433 . S
C708 C704 1.350 . S
C708 C705 1.463 . S
C708 N712 1.427 . S
C709 H699 0.929 . S
C709 C707 1.433 . S
C709 N712 1.384 . S
C710 H701 0.929 . S
C710 C702 1.378 . S
C710 C705 1.350 . S
C711 H698 0.929 . S
C711 C703 1.433 . S
C711 N713 1.384 . S
N712 C708 1.427 . S
N712 C709 1.384 . S
N713 C705 1.427 . S
N713 C711 1.384 . S
H714 C720 0.930 . S
H715 C724 0.930 . S
H716 C729 0.929 . S
H717 C727 0.929 . S
H718 C722 0.929 . S
H719 C728 0.929 . S
C720 H714 0.930 . S
C720 C721 1.367 . S
C720 C728 1.378 . S
C721 C720 1.367 . S
C721 C729 1.433 . S
C722 H718 0.929 . S
C722 C724 1.378 . S
C722 C726 1.350 . S
C723 C726 1.463 1_455 S
C723 C728 1.350 . S
C723 N731 1.427 . S
C724 H715 0.930 . S
C724 C722 1.378 . S
C724 C725 1.367 . S
C725 C724 1.367 . S
C725 C727 1.433 . S
C726 C722 1.350 . S
C726 C723 1.463 1_655 S
C726 N730 1.427 . S
C727 H717 0.929 . S
C727 C725 1.433 . S
C727 N730 1.384 . S
C728 H719 0.929 . S
C728 C720 1.378 . S
C728 C723 1.350 . S
C729 H716 0.929 . S
C729 C721 1.433 . S
C729 N731 1.384 . S
N730 C726 1.427 . S
N730 C727 1.384 . S
N731 C723 1.427 . S
N731 C729 1.384 . S
H732 C738 0.930 . S
H733 C742 0.930 . S
H734 C747 0.929 . S
H735 C745 0.929 . S
H736 C740 0.929 . S
H737 C746 0.929 . S
C738 H732 0.930 . S
C738 C739 1.367 . S
C738 C746 1.378 . S
C739 C738 1.367 . S
C739 C747 1.433 . S
C740 H736 0.929 . S
C740 C742 1.378 . S
C740 C744 1.350 . S
C741 C744 1.463 . S
C741 C746 1.350 . S
C741 N749 1.427 . S
C742 H733 0.930 . S
C742 C740 1.378 . S
C742 C743 1.367 . S
C743 C742 1.367 . S
C743 C745 1.433 . S
C744 C740 1.350 . S
C744 C741 1.463 . S
C744 N748 1.427 . S
C745 H735 0.929 . S
C745 C743 1.433 . S
C745 N748 1.384 . S
C746 H737 0.929 . S
C746 C738 1.378 . S
C746 C741 1.350 . S
C747 H734 0.929 . S
C747 C739 1.433 . S
C747 N749 1.384 . S
N748 C744 1.427 . S
N748 C745 1.384 . S
N749 C741 1.427 . S
N749 C747 1.384 . S
H750 C756 0.930 . S
H751 C760 0.930 . S
H752 C765 0.929 . S
H753 C763 0.929 . S
H754 C758 0.929 . S
H755 C764 0.929 . S
C756 H750 0.930 . S
C756 C757 1.367 . S
C756 C764 1.378 . S
C757 C756 1.367 . S
C757 C765 1.433 . S
C758 H754 0.929 . S
C758 C760 1.378 . S
C758 C762 1.350 . S
C759 C762 1.463 . S
C759 C764 1.350 . S
C759 N767 1.427 . S
C760 H751 0.930 . S
C760 C758 1.378 . S
C760 C761 1.367 . S
C761 C760 1.367 . S
C761 C763 1.433 . S
C762 C758 1.350 . S
C762 C759 1.463 . S
C762 N766 1.427 . S
C763 H753 0.929 . S
C763 C761 1.433 . S
C763 N766 1.384 . S
C764 H755 0.929 . S
C764 C756 1.378 . S
C764 C759 1.350 . S
C765 H752 0.929 . S
C765 C757 1.433 . S
C765 N767 1.384 . S
N766 C762 1.427 . S
N766 C763 1.384 . S
N767 C759 1.427 . S
N767 C765 1.384 . S
H768 C774 0.930 1_554 S
H769 C778 0.930 . S
H770 C783 0.929 . S
H771 C781 0.929 1_554 S
H772 C776 0.929 . S
H773 C782 0.929 1_554 S
C774 H768 0.930 1_556 S
C774 C775 1.367 . S
C774 C782 1.378 . S
C775 C774 1.367 . S
C775 C783 1.433 . S
C776 H772 0.929 . S
C776 C778 1.378 . S
C776 C780 1.350 . S
C777 C780 1.463 . S
C777 C782 1.350 . S
C777 N785 1.427 . S
C778 H769 0.930 . S
C778 C776 1.378 . S
C778 C779 1.367 . S
C779 C778 1.367 . S
C779 C781 1.433 . S
C780 C776 1.350 . S
C780 C777 1.463 . S
C780 N784 1.427 . S
C781 H771 0.929 1_556 S
C781 C779 1.433 . S
C781 N784 1.384 . S
C782 H773 0.929 1_556 S
C782 C774 1.378 . S
C782 C777 1.350 . S
C783 H770 0.929 . S
C783 C775 1.433 . S
C783 N785 1.384 . S
N784 C780 1.427 . S
N784 C781 1.384 . S
N785 C777 1.427 . S
N785 C783 1.384 . S
H786 C792 0.930 . S
H787 C796 0.930 . S
H788 C801 0.929 . S
H789 C799 0.929 . S
H790 C794 0.929 . S
H791 C800 0.929 . S
C792 H786 0.930 . S
C792 C793 1.367 . S
C792 C800 1.378 . S
C793 C792 1.367 . S
C793 C801 1.433 . S
C794 H790 0.929 . S
C794 C796 1.378 . S
C794 C798 1.350 . S
C795 C798 1.463 . S
C795 C800 1.350 . S
C795 N803 1.427 . S
C796 H787 0.930 . S
C796 C794 1.378 . S
C796 C797 1.367 . S
C797 C796 1.367 . S
C797 C799 1.433 . S
C798 C794 1.350 . S
C798 C795 1.463 . S
C798 N802 1.427 . S
C799 H789 0.929 . S
C799 C797 1.433 . S
C799 N802 1.384 . S
C800 H791 0.929 . S
C800 C792 1.378 . S
C800 C795 1.350 . S
C801 H788 0.929 . S
C801 C793 1.433 . S
C801 N803 1.384 . S
N802 C798 1.427 . S
N802 C799 1.384 . S
N803 C795 1.427 . S
N803 C801 1.384 . S
H804 C810 0.930 . S
H805 C814 0.930 1_556 S
H806 C819 0.929 1_556 S
H807 C817 0.929 . S
H808 C812 0.929 1_556 S
H809 C818 0.929 . S
C810 H804 0.930 . S
C810 C811 1.367 . S
C810 C818 1.378 . S
C811 C810 1.367 . S
C811 C819 1.433 . S
C812 H808 0.929 1_554 S
C812 C814 1.378 . S
C812 C816 1.350 . S
C813 C816 1.463 . S
C813 C818 1.350 . S
C813 N821 1.427 . S
C814 H805 0.930 1_554 S
C814 C812 1.378 . S
C814 C815 1.367 . S
C815 C814 1.367 . S
C815 C817 1.433 . S
C816 C812 1.350 . S
C816 C813 1.463 . S
C816 N820 1.427 . S
C817 H807 0.929 . S
C817 C815 1.433 . S
C817 N820 1.384 . S
C818 H809 0.929 . S
C818 C810 1.378 . S
C818 C813 1.350 . S
C819 H806 0.929 1_554 S
C819 C811 1.433 . S
C819 N821 1.384 . S
N820 C816 1.427 . S
N820 C817 1.384 . S
N821 C813 1.427 . S
N821 C819 1.384 . S
H822 C828 0.930 . S
H823 C832 0.930 . S
H824 C837 0.929 . S
H825 C835 0.929 . S
H826 C830 0.929 . S
H827 C836 0.929 . S
C828 H822 0.930 . S
C828 C829 1.367 . S
C828 C836 1.378 . S
C829 C828 1.367 . S
C829 C837 1.433 . S
C830 H826 0.929 . S
C830 C832 1.378 . S
C830 C834 1.350 . S
C831 C834 1.463 . S
C831 C836 1.350 . S
C831 N839 1.427 . S
C832 H823 0.930 . S
C832 C830 1.378 . S
C832 C833 1.367 . S
C833 C832 1.367 . S
C833 C835 1.433 . S
C834 C830 1.350 . S
C834 C831 1.463 . S
C834 N838 1.427 . S
C835 H825 0.929 . S
C835 C833 1.433 . S
C835 N838 1.384 . S
C836 H827 0.929 . S
C836 C828 1.378 . S
C836 C831 1.350 . S
C837 H824 0.929 . S
C837 C829 1.433 . S
C837 N839 1.384 . S
N838 C834 1.427 . S
N838 C835 1.384 . S
N839 C831 1.427 . S
N839 C837 1.384 . S
H840 C846 0.930 . S
H841 C850 0.930 . S
H842 C855 0.929 . S
H843 C853 0.929 . S
H844 C848 0.929 . S
H845 C854 0.929 . S
C846 H840 0.930 . S
C846 C847 1.367 . S
C846 C854 1.378 . S
C847 C846 1.367 . S
C847 C855 1.433 . S
C848 H844 0.929 . S
C848 C850 1.378 . S
C848 C852 1.350 . S
C849 C852 1.463 1_655 S
C849 C854 1.350 . S
C849 N857 1.427 . S
C850 H841 0.930 . S
C850 C848 1.378 . S
C850 C851 1.367 . S
C851 C850 1.367 . S
C851 C853 1.433 . S
C852 C848 1.350 . S
C852 C849 1.463 1_455 S
C852 N856 1.427 . S
C853 H843 0.929 . S
C853 C851 1.433 . S
C853 N856 1.384 . S
C854 H845 0.929 . S
C854 C846 1.378 . S
C854 C849 1.350 . S
C855 H842 0.929 . S
C855 C847 1.433 . S
C855 N857 1.384 . S
N856 C852 1.427 . S
N856 C853 1.384 . S
N857 C849 1.427 . S
N857 C855 1.384 . S
H858 C864 0.930 . S
H859 C868 0.930 . S
H860 C873 0.929 . S
H861 C871 0.929 . S
H862 C866 0.929 . S
H863 C872 0.929 . S
C864 H858 0.930 . S
C864 C865 1.367 . S
C864 C872 1.378 . S
C865 C864 1.367 . S
C865 C873 1.433 . S
C866 H862 0.929 . S
C866 C868 1.378 . S
C866 C870 1.350 . S
C867 C870 1.463 . S
C867 C872 1.350 . S
C867 N875 1.427 . S
C868 H859 0.930 . S
C868 C866 1.378 . S
C868 C869 1.367 . S
C869 C868 1.367 . S
C869 C871 1.433 . S
C870 C866 1.350 . S
C870 C867 1.463 . S
C870 N874 1.427 . S
C871 H861 0.929 . S
C871 C869 1.433 . S
C871 N874 1.384 . S
C872 H863 0.929 . S
C872 C864 1.378 . S
C872 C867 1.350 . S
C873 H860 0.929 . S
C873 C865 1.433 . S
C873 N875 1.384 . S
N874 C870 1.427 . S
N874 C871 1.384 . S
N875 C867 1.427 . S
N875 C873 1.384 . S
H876 C882 0.930 . S
H877 C886 0.930 . S
H878 C891 0.929 . S
H879 C889 0.929 . S
H880 C884 0.929 . S
H881 C890 0.929 . S
C882 H876 0.930 . S
C882 C883 1.367 . S
C882 C890 1.378 . S
C883 C882 1.367 . S
C883 C891 1.433 . S
C884 H880 0.929 . S
C884 C886 1.378 . S
C884 C888 1.350 . S
C885 C888 1.463 . S
C885 C890 1.350 . S
C885 N893 1.427 . S
C886 H877 0.930 . S
C886 C884 1.378 . S
C886 C887 1.367 . S
C887 C886 1.367 . S
C887 C889 1.433 . S
C888 C884 1.350 . S
C888 C885 1.463 . S
C888 N892 1.427 . S
C889 H879 0.929 . S
C889 C887 1.433 . S
C889 N892 1.384 . S
C890 H881 0.929 . S
C890 C882 1.378 . S
C890 C885 1.350 . S
C891 H878 0.929 . S
C891 C883 1.433 . S
C891 N893 1.384 . S
N892 C888 1.427 . S
N892 C889 1.384 . S
N893 C885 1.427 . S
N893 C891 1.384 . S
H894 C900 0.930 . S
H895 C904 0.930 . S
H896 C909 0.929 . S
H897 C907 0.929 . S
H898 C902 0.929 . S
H899 C908 0.929 . S
C900 H894 0.930 . S
C900 C901 1.367 . S
C900 C908 1.378 . S
C901 C900 1.367 . S
C901 C909 1.433 . S
C902 H898 0.929 . S
C902 C904 1.378 . S
C902 C906 1.350 . S
C903 C906 1.463 1_455 S
C903 C908 1.350 . S
C903 N911 1.427 . S
C904 H895 0.930 . S
C904 C902 1.378 . S
C904 C905 1.367 . S
C905 C904 1.367 . S
C905 C907 1.433 . S
C906 C902 1.350 . S
C906 C903 1.463 1_655 S
C906 N910 1.427 . S
C907 H897 0.929 . S
C907 C905 1.433 . S
C907 N910 1.384 . S
C908 H899 0.929 . S
C908 C900 1.378 . S
C908 C903 1.350 . S
C909 H896 0.929 . S
C909 C901 1.433 . S
C909 N911 1.384 . S
N910 C906 1.427 . S
N910 C907 1.384 . S
N911 C903 1.427 . S
N911 C909 1.384 . S
H912 C918 0.930 . S
H913 C922 0.930 . S
H914 C927 0.929 . S
H915 C925 0.929 . S
H916 C920 0.929 . S
H917 C926 0.929 . S
C918 H912 0.930 . S
C918 C919 1.367 1_556 S
C918 C926 1.378 . S
C919 C918 1.367 1_554 S
C919 C927 1.433 . S
C920 H916 0.929 . S
C920 C922 1.378 . S
C920 C924 1.350 1_554 S
C921 C924 1.463 1_554 S
C921 C926 1.350 1_554 S
C921 N929 1.427 . S
C922 H913 0.930 . S
C922 C920 1.378 . S
C922 C923 1.367 1_554 S
C923 C922 1.367 1_556 S
C923 C925 1.433 . S
C924 C920 1.350 1_556 S
C924 C921 1.463 1_556 S
C924 N928 1.427 . S
C925 H915 0.929 . S
C925 C923 1.433 . S
C925 N928 1.384 . S
C926 H917 0.929 . S
C926 C918 1.378 . S
C926 C921 1.350 1_556 S
C927 H914 0.929 . S
C927 C919 1.433 . S
C927 N929 1.384 . S
N928 C924 1.427 . S
N928 C925 1.384 . S
N929 C921 1.427 . S
N929 C927 1.384 . S
H930 C936 0.930 . S
H931 C940 0.930 . S
H932 C945 0.929 . S
H933 C943 0.929 . S
H934 C938 0.929 . S
H935 C944 0.929 . S
C936 H930 0.930 . S
C936 C937 1.367 . S
C936 C944 1.378 . S
C937 C936 1.367 . S
C937 C945 1.433 . S
C938 H934 0.929 . S
C938 C940 1.378 . S
C938 C942 1.350 . S
C939 C942 1.463 . S
C939 C944 1.350 . S
C939 N947 1.427 . S
C940 H931 0.930 . S
C940 C938 1.378 . S
C940 C941 1.367 . S
C941 C940 1.367 . S
C941 C943 1.433 . S
C942 C938 1.350 . S
C942 C939 1.463 . S
C942 N946 1.427 . S
C943 H933 0.929 . S
C943 C941 1.433 . S
C943 N946 1.384 . S
C944 H935 0.929 . S
C944 C936 1.378 . S
C944 C939 1.350 . S
C945 H932 0.929 . S
C945 C937 1.433 . S
C945 N947 1.384 . S
N946 C942 1.427 . S
N946 C943 1.384 . S
N947 C939 1.427 . S
N947 C945 1.384 . S
H948 C954 0.930 . S
H949 C958 0.930 . S
H950 C963 0.929 . S
H951 C961 0.929 . S
H952 C956 0.929 . S
H953 C962 0.929 . S
C954 H948 0.930 . S
C954 C955 1.367 . S
C954 C962 1.378 . S
C955 C954 1.367 . S
C955 C963 1.433 . S
C956 H952 0.929 . S
C956 C958 1.378 . S
C956 C960 1.350 . S
C957 C960 1.463 . S
C957 C962 1.350 . S
C957 N965 1.427 . S
C958 H949 0.930 . S
C958 C956 1.378 . S
C958 C959 1.367 . S
C959 C958 1.367 . S
C959 C961 1.433 . S
C960 C956 1.350 . S
C960 C957 1.463 . S
C960 N964 1.427 . S
C961 H951 0.929 . S
C961 C959 1.433 . S
C961 N964 1.384 . S
C962 H953 0.929 . S
C962 C954 1.378 . S
C962 C957 1.350 . S
C963 H950 0.929 . S
C963 C955 1.433 . S
C963 N965 1.384 . S
N964 C960 1.427 . S
N964 C961 1.384 . S
N965 C957 1.427 . S
N965 C963 1.384 . S
H966 C972 0.930 . S
H967 C976 0.930 . S
H968 C981 0.929 . S
H969 C979 0.929 . S
H970 C974 0.929 . S
H971 C980 0.929 . S
C972 H966 0.930 . S
C972 C973 1.367 . S
C972 C980 1.378 . S
C973 C972 1.367 . S
C973 C981 1.433 . S
C974 H970 0.929 . S
C974 C976 1.378 . S
C974 C978 1.350 . S
C975 C978 1.463 . S
C975 C980 1.350 . S
C975 N983 1.427 . S
C976 H967 0.930 . S
C976 C974 1.378 . S
C976 C977 1.367 . S
C977 C976 1.367 . S
C977 C979 1.433 . S
C978 C974 1.350 . S
C978 C975 1.463 . S
C978 N982 1.427 . S
C979 H969 0.929 . S
C979 C977 1.433 . S
C979 N982 1.384 . S
C980 H971 0.929 . S
C980 C972 1.378 . S
C980 C975 1.350 . S
C981 H968 0.929 . S
C981 C973 1.433 . S
C981 N983 1.384 . S
N982 C978 1.427 . S
N982 C979 1.384 . S
N983 C975 1.427 . S
N983 C981 1.384 . S
H984 C990 0.930 . S
H985 C994 0.930 . S
H986 C999 0.929 . S
H987 C997 0.929 . S
H988 C992 0.929 . S
H989 C998 0.929 . S
C990 H984 0.930 . S
C990 C991 1.367 . S
C990 C998 1.378 . S
C991 C990 1.367 . S
C991 C999 1.433 1_554 S
C992 H988 0.929 . S
C992 C994 1.378 . S
C992 C996 1.350 . S
C993 C996 1.463 1_554 S
C993 C998 1.350 . S
C993 N1001 1.427 1_554 S
C994 H985 0.930 . S
C994 C992 1.378 . S
C994 C995 1.367 . S
C995 C994 1.367 . S
C995 C997 1.433 1_556 S
C996 C992 1.350 . S
C996 C993 1.463 1_556 S
C996 N1000 1.427 1_556 S
C997 H987 0.929 . S
C997 C995 1.433 1_554 S
C997 N1000 1.384 . S
C998 H989 0.929 . S
C998 C990 1.378 . S
C998 C993 1.350 . S
C999 H986 0.929 . S
C999 C991 1.433 1_556 S
C999 N1001 1.384 . S
N1000 C996 1.427 1_554 S
N1000 C997 1.384 . S
N1001 C993 1.427 1_556 S
N1001 C999 1.384 . S
H1002 C1008 0.930 . S
H1003 C1012 0.930 . S
H1004 C1017 0.929 . S
H1005 C1015 0.929 . S
H1006 C1010 0.929 . S
H1007 C1016 0.929 . S
C1008 H1002 0.930 . S
C1008 C1009 1.367 . S
C1008 C1016 1.378 . S
C1009 C1008 1.367 . S
C1009 C1017 1.433 . S
C1010 H1006 0.929 . S
C1010 C1012 1.378 . S
C1010 C1014 1.350 . S
C1011 C1014 1.463 . S
C1011 C1016 1.350 . S
C1011 N1019 1.427 . S
C1012 H1003 0.930 . S
C1012 C1010 1.378 . S
C1012 C1013 1.367 . S
C1013 C1012 1.367 . S
C1013 C1015 1.433 . S
C1014 C1010 1.350 . S
C1014 C1011 1.463 . S
C1014 N1018 1.427 . S
C1015 H1005 0.929 . S
C1015 C1013 1.433 . S
C1015 N1018 1.384 . S
C1016 H1007 0.929 . S
C1016 C1008 1.378 . S
C1016 C1011 1.350 . S
C1017 H1004 0.929 . S
C1017 C1009 1.433 . S
C1017 N1019 1.384 . S
N1018 C1014 1.427 . S
N1018 C1015 1.384 . S
N1019 C1011 1.427 . S
N1019 C1017 1.384 . S
H1020 C1026 0.930 . S
H1021 C1030 0.930 . S
H1022 C1035 0.929 . S
H1023 C1033 0.929 . S
H1024 C1028 0.929 . S
H1025 C1034 0.929 . S
C1026 H1020 0.930 . S
C1026 C1027 1.367 . S
C1026 C1034 1.378 . S
C1027 C1026 1.367 . S
C1027 C1035 1.433 . S
C1028 H1024 0.929 . S
C1028 C1030 1.378 . S
C1028 C1032 1.350 . S
C1029 C1032 1.463 . S
C1029 C1034 1.350 . S
C1029 N1037 1.427 . S
C1030 H1021 0.930 . S
C1030 C1028 1.378 . S
C1030 C1031 1.367 . S
C1031 C1030 1.367 . S
C1031 C1033 1.433 . S
C1032 C1028 1.350 . S
C1032 C1029 1.463 . S
C1032 N1036 1.427 . S
C1033 H1023 0.929 . S
C1033 C1031 1.433 . S
C1033 N1036 1.384 . S
C1034 H1025 0.929 . S
C1034 C1026 1.378 . S
C1034 C1029 1.350 . S
C1035 H1022 0.929 . S
C1035 C1027 1.433 . S
C1035 N1037 1.384 . S
N1036 C1032 1.427 . S
N1036 C1033 1.384 . S
N1037 C1029 1.427 . S
N1037 C1035 1.384 . S
H1038 C1044 0.930 . S
H1039 C1048 0.930 . S
H1040 C1053 0.929 . S
H1041 C1051 0.929 . S
H1042 C1046 0.929 . S
H1043 C1052 0.929 . S
C1044 H1038 0.930 . S
C1044 C1045 1.367 . S
C1044 C1052 1.378 . S
C1045 C1044 1.367 . S
C1045 C1053 1.433 . S
C1046 H1042 0.929 . S
C1046 C1048 1.378 . S
C1046 C1050 1.350 . S
C1047 C1050 1.463 . S
C1047 C1052 1.350 . S
C1047 N1055 1.427 . S
C1048 H1039 0.930 . S
C1048 C1046 1.378 . S
C1048 C1049 1.367 . S
C1049 C1048 1.367 . S
C1049 C1051 1.433 . S
C1050 C1046 1.350 . S
C1050 C1047 1.463 . S
C1050 N1054 1.427 . S
C1051 H1041 0.929 . S
C1051 C1049 1.433 . S
C1051 N1054 1.384 . S
C1052 H1043 0.929 . S
C1052 C1044 1.378 . S
C1052 C1047 1.350 . S
C1053 H1040 0.929 . S
C1053 C1045 1.433 . S
C1053 N1055 1.384 . S
N1054 C1050 1.427 . S
N1054 C1051 1.384 . S
N1055 C1047 1.427 . S
N1055 C1053 1.384 . S
H1056 C1062 0.930 . S
H1057 C1066 0.930 . S
H1058 C1071 0.929 . S
H1059 C1069 0.929 . S
H1060 C1064 0.929 . S
H1061 C1070 0.929 . S
C1062 H1056 0.930 . S
C1062 C1063 1.367 . S
C1062 C1070 1.378 . S
C1063 C1062 1.367 . S
C1063 C1071 1.433 . S
C1064 H1060 0.929 . S
C1064 C1066 1.378 . S
C1064 C1068 1.350 . S
C1065 C1068 1.463 1_565 S
C1065 C1070 1.350 . S
C1065 N1073 1.427 . S
C1066 H1057 0.930 . S
C1066 C1064 1.378 . S
C1066 C1067 1.367 . S
C1067 C1066 1.367 . S
C1067 C1069 1.433 . S
C1068 C1064 1.350 . S
C1068 C1065 1.463 1_545 S
C1068 N1072 1.427 . S
C1069 H1059 0.929 . S
C1069 C1067 1.433 . S
C1069 N1072 1.384 . S
C1070 H1061 0.929 . S
C1070 C1062 1.378 . S
C1070 C1065 1.350 . S
C1071 H1058 0.929 . S
C1071 C1063 1.433 . S
C1071 N1073 1.384 . S
N1072 C1068 1.427 . S
N1072 C1069 1.384 . S
N1073 C1065 1.427 . S
N1073 C1071 1.384 . S
H1074 C1080 0.930 . S
H1075 C1084 0.930 . S
H1076 C1089 0.929 . S
H1077 C1087 0.929 . S
H1078 C1082 0.929 . S
H1079 C1088 0.929 . S
C1080 H1074 0.930 . S
C1080 C1081 1.367 . S
C1080 C1088 1.378 . S
C1081 C1080 1.367 . S
C1081 C1089 1.433 . S
C1082 H1078 0.929 . S
C1082 C1084 1.378 . S
C1082 C1086 1.350 . S
C1083 C1086 1.463 . S
C1083 C1088 1.350 . S
C1083 N1091 1.427 . S
C1084 H1075 0.930 . S
C1084 C1082 1.378 . S
C1084 C1085 1.367 . S
C1085 C1084 1.367 . S
C1085 C1087 1.433 . S
C1086 C1082 1.350 . S
C1086 C1083 1.463 . S
C1086 N1090 1.427 . S
C1087 H1077 0.929 . S
C1087 C1085 1.433 . S
C1087 N1090 1.384 . S
C1088 H1079 0.929 . S
C1088 C1080 1.378 . S
C1088 C1083 1.350 . S
C1089 H1076 0.929 . S
C1089 C1081 1.433 . S
C1089 N1091 1.384 . S
N1090 C1086 1.427 . S
N1090 C1087 1.384 . S
N1091 C1083 1.427 . S
N1091 C1089 1.384 . S
H1092 C1098 0.930 . S
H1093 C1102 0.930 . S
H1094 C1107 0.929 . S
H1095 C1105 0.929 . S
H1096 C1100 0.929 . S
H1097 C1106 0.929 . S
C1098 H1092 0.930 . S
C1098 C1099 1.367 1_556 S
C1098 C1106 1.378 . S
C1099 C1098 1.367 1_554 S
C1099 C1107 1.433 . S
C1100 H1096 0.929 . S
C1100 C1102 1.378 . S
C1100 C1104 1.350 1_554 S
C1101 C1104 1.463 1_564 S
C1101 C1106 1.350 1_554 S
C1101 N1109 1.427 . S
C1102 H1093 0.930 . S
C1102 C1100 1.378 . S
C1102 C1103 1.367 1_554 S
C1103 C1102 1.367 1_556 S
C1103 C1105 1.433 . S
C1104 C1100 1.350 1_556 S
C1104 C1101 1.463 1_546 S
C1104 N1108 1.427 . S
C1105 H1095 0.929 . S
C1105 C1103 1.433 . S
C1105 N1108 1.384 . S
C1106 H1097 0.929 . S
C1106 C1098 1.378 . S
C1106 C1101 1.350 1_556 S
C1107 H1094 0.929 . S
C1107 C1099 1.433 . S
C1107 N1109 1.384 . S
N1108 C1104 1.427 . S
N1108 C1105 1.384 . S
N1109 C1101 1.427 . S
N1109 C1107 1.384 . S
H1110 C1116 0.930 . S
H1111 C1120 0.930 . S
H1112 C1125 0.929 . S
H1113 C1123 0.929 . S
H1114 C1118 0.929 . S
H1115 C1124 0.929 . S
C1116 H1110 0.930 . S
C1116 C1117 1.367 . S
C1116 C1124 1.378 . S
C1117 C1116 1.367 . S
C1117 C1125 1.433 . S
C1118 H1114 0.929 . S
C1118 C1120 1.378 . S
C1118 C1122 1.350 . S
C1119 C1122 1.463 . S
C1119 C1124 1.350 . S
C1119 N1127 1.427 . S
C1120 H1111 0.930 . S
C1120 C1118 1.378 . S
C1120 C1121 1.367 . S
C1121 C1120 1.367 . S
C1121 C1123 1.433 . S
C1122 C1118 1.350 . S
C1122 C1119 1.463 . S
C1122 N1126 1.427 . S
C1123 H1113 0.929 . S
C1123 C1121 1.433 . S
C1123 N1126 1.384 . S
C1124 H1115 0.929 . S
C1124 C1116 1.378 . S
C1124 C1119 1.350 . S
C1125 H1112 0.929 . S
C1125 C1117 1.433 . S
C1125 N1127 1.384 . S
N1126 C1122 1.427 . S
N1126 C1123 1.384 . S
N1127 C1119 1.427 . S
N1127 C1125 1.384 . S
H1128 C1134 0.930 . S
H1129 C1138 0.930 . S
H1130 C1143 0.929 . S
H1131 C1141 0.929 . S
H1132 C1136 0.929 . S
H1133 C1142 0.929 . S
C1134 H1128 0.930 . S
C1134 C1135 1.367 . S
C1134 C1142 1.378 . S
C1135 C1134 1.367 . S
C1135 C1143 1.433 . S
C1136 H1132 0.929 . S
C1136 C1138 1.378 . S
C1136 C1140 1.350 . S
C1137 C1140 1.463 1_565 S
C1137 C1142 1.350 . S
C1137 N1145 1.427 . S
C1138 H1129 0.930 . S
C1138 C1136 1.378 . S
C1138 C1139 1.367 . S
C1139 C1138 1.367 . S
C1139 C1141 1.433 . S
C1140 C1136 1.350 . S
C1140 C1137 1.463 1_545 S
C1140 N1144 1.427 . S
C1141 H1131 0.929 . S
C1141 C1139 1.433 . S
C1141 N1144 1.384 . S
C1142 H1133 0.929 . S
C1142 C1134 1.378 . S
C1142 C1137 1.350 . S
C1143 H1130 0.929 . S
C1143 C1135 1.433 . S
C1143 N1145 1.384 . S
N1144 C1140 1.427 . S
N1144 C1141 1.384 . S
N1145 C1137 1.427 . S
N1145 C1143 1.384 . S
H1146 C1152 0.930 . S
H1147 C1156 0.930 . S
H1148 C1161 0.929 . S
H1149 C1159 0.929 . S
H1150 C1154 0.929 . S
H1151 C1160 0.929 . S
C1152 H1146 0.930 . S
C1152 C1153 1.367 . S
C1152 C1160 1.378 . S
C1153 C1152 1.367 . S
C1153 C1161 1.433 . S
C1154 H1150 0.929 . S
C1154 C1156 1.378 . S
C1154 C1158 1.350 . S
C1155 C1158 1.463 . S
C1155 C1160 1.350 . S
C1155 N1163 1.427 . S
C1156 H1147 0.930 . S
C1156 C1154 1.378 . S
C1156 C1157 1.367 . S
C1157 C1156 1.367 . S
C1157 C1159 1.433 . S
C1158 C1154 1.350 . S
C1158 C1155 1.463 . S
C1158 N1162 1.427 . S
C1159 H1149 0.929 . S
C1159 C1157 1.433 . S
C1159 N1162 1.384 . S
C1160 H1151 0.929 . S
C1160 C1152 1.378 . S
C1160 C1155 1.350 . S
C1161 H1148 0.929 . S
C1161 C1153 1.433 . S
C1161 N1163 1.384 . S
N1162 C1158 1.427 . S
N1162 C1159 1.384 . S
N1163 C1155 1.427 . S
N1163 C1161 1.384 . S
H1164 C1170 0.930 . S
H1165 C1174 0.930 . S
H1166 C1179 0.929 . S
H1167 C1177 0.929 . S
H1168 C1172 0.929 . S
H1169 C1178 0.929 . S
C1170 H1164 0.930 . S
C1170 C1171 1.367 1_554 S
C1170 C1178 1.378 . S
C1171 C1170 1.367 1_556 S
C1171 C1179 1.433 . S
C1172 H1168 0.929 . S
C1172 C1174 1.378 . S
C1172 C1176 1.350 1_556 S
C1173 C1176 1.463 1_546 S
C1173 C1178 1.350 1_556 S
C1173 N1181 1.427 . S
C1174 H1165 0.930 . S
C1174 C1172 1.378 . S
C1174 C1175 1.367 1_556 S
C1175 C1174 1.367 1_554 S
C1175 C1177 1.433 . S
C1176 C1172 1.350 1_554 S
C1176 C1173 1.463 1_564 S
C1176 N1180 1.427 . S
C1177 H1167 0.929 . S
C1177 C1175 1.433 . S
C1177 N1180 1.384 . S
C1178 H1169 0.929 . S
C1178 C1170 1.378 . S
C1178 C1173 1.350 1_554 S
C1179 H1166 0.929 . S
C1179 C1171 1.433 . S
C1179 N1181 1.384 . S
N1180 C1176 1.427 . S
N1180 C1177 1.384 . S
N1181 C1173 1.427 . S
N1181 C1179 1.384 . S
H1182 C1188 0.930 . S
H1183 C1192 0.930 . S
H1184 C1197 0.929 . S
H1185 C1195 0.929 . S
H1186 C1190 0.929 . S
H1187 C1196 0.929 . S
C1188 H1182 0.930 . S
C1188 C1189 1.367 . S
C1188 C1196 1.378 . S
C1189 C1188 1.367 . S
C1189 C1197 1.433 . S
C1190 H1186 0.929 . S
C1190 C1192 1.378 . S
C1190 C1194 1.350 . S
C1191 C1194 1.463 . S
C1191 C1196 1.350 . S
C1191 N1199 1.427 . S
C1192 H1183 0.930 . S
C1192 C1190 1.378 . S
C1192 C1193 1.367 . S
C1193 C1192 1.367 . S
C1193 C1195 1.433 . S
C1194 C1190 1.350 . S
C1194 C1191 1.463 . S
C1194 N1198 1.427 . S
C1195 H1185 0.929 . S
C1195 C1193 1.433 . S
C1195 N1198 1.384 . S
C1196 H1187 0.929 . S
C1196 C1188 1.378 . S
C1196 C1191 1.350 . S
C1197 H1184 0.929 . S
C1197 C1189 1.433 . S
C1197 N1199 1.384 . S
N1198 C1194 1.427 . S
N1198 C1195 1.384 . S
N1199 C1191 1.427 . S
N1199 C1197 1.384 . S
C343 C20 1.335 . S
C347 C16 1.333 . S
C361 C41 1.329 . S
C365 C37 1.323 . S
C379 C45 1.316 . S
C383 C61 1.314 . S
C397 C66 1.333 . S
C401 C82 1.322 . S
C415 C87 1.314 . S
C419 C103 1.312 . S
C433 C108 1.329 . S
C437 C124 1.317 . S
C451 C145 1.312 . S
C455 C129 1.320 . S
C469 C167 1.323 . S
C473 C163 1.319 . S
C487 C171 1.328 . S
C491 C187 1.316 . S
C505 C192 1.327 . S
C509 C208 1.332 . S
C523 C229 1.315 . S
C527 C213 1.317 . S
C541 C251 1.311 . S
C545 C247 1.316 . S
C559 C268 1.334 . S
C563 C272 1.323 . S
C577 C289 1.318 . S
C581 C293 1.316 . S
C595 C297 1.335 . S
C599 C313 1.323 . S
C613 C318 1.331 . S
C617 C334 1.333 . S
C631 C3 1.321 . S
C635 C238 1.320 . S
C649 C24 1.326 . S
C653 C319 1.288 . S
C667 C46 1.302 . S
C671 C193 1.297 . S
C685 C67 1.268 . S
C689 C280 1.289 . S
C703 C88 1.322 . S
C707 C276 1.345 . S
C721 C234 1.366 . S
C725 C121 1.347 . S
C739 C142 1.355 . S
C743 C331 1.361 . S
C757 C150 1.354 . S
C761 C205 1.336 . S
C775 C79 1.331 . S
C779 C172 1.337 . S
C793 C28 1.300 . S
C797 C214 1.299 . S
C811 C259 1.312 . S
C815 C109 1.292 . S
C829 C154 1.292 . S
C833 C298 1.314 . S
C847 C184 1.364 . S
C851 C100 1.338 . S
C865 C130 1.315 . S
C869 C226 1.309 . S
C883 C58 1.328 . S
C887 C310 1.351 . S
C901 C7 1.287 . S
C905 C255 1.329 . S
C919 C19 1.356 . S
C923 C91 1.351 . S
C937 C40 1.353 . S
C941 C125 1.343 . S
C955 C49 1.353 . S
C959 C146 1.352 . S
C973 C70 1.361 . S
C977 C166 1.377 . S
C991 C256 1.351 . S
C995 C175 1.345 . S
C1009 C277 1.353 . S
C1013 C209 1.369 . S
C1027 C217 1.338 . S
C1031 C301 1.347 . S
C1045 C322 1.335 . S
C1049 C250 1.350 . S
C1063 C25 1.345 . S
C1067 C151 1.353 . S
C1081 C104 1.346 . S
C1085 C62 1.349 . S
C1099 C112 1.350 . S
C1103 C83 1.346 . S
C1117 C4 1.380 . S
C1121 C133 1.371 . S
C1135 C335 1.353 . S
C1139 C196 1.354 . S
C1153 C271 1.342 . S
C1157 C230 1.349 . S
C1171 C292 1.358 . S
C1175 C235 1.364 . S
C1189 C314 1.347 . S
C1193 C188 1.359 . S
