# Generated by pormake.
# Topology snz, (6)-cn, num edge types: 1
# Building blocks:
#     Node 0, Type 0, BuildingBlock: KUMBOL_clean_sbu_1, # of connection points: 6
#     Node 1, Type 0, BuildingBlock: KUMBOL_clean_sbu_1, # of connection points: 6
#     Node 2, Type 0, BuildingBlock: KUMBOL_clean_sbu_1, # of connection points: 6
#     Node 3, Type 0, BuildingBlock: KUMBOL_clean_sbu_1, # of connection points: 6
#     Node 4, Type 0, BuildingBlock: KUMBOL_clean_sbu_1, # of connection points: 6
#     Node 5, Type 0, BuildingBlock: KUMBOL_clean_sbu_1, # of connection points: 6
#     Node 6, Type 0, BuildingBlock: KUMBOL_clean_sbu_1, # of connection points: 6
#     Node 7, Type 0, BuildingBlock: KUMBOL_clean_sbu_1, # of connection points: 6
#     Node 8, Type 0, BuildingBlock: KUMBOL_clean_sbu_1, # of connection points: 6
#     Edge 9, Type (0, 0), BuildingBlock: UVAHIK_clean_linker_0, # of connection points: 2
#     Edge 10, Type (0, 0), BuildingBlock: UVAHIK_clean_linker_0, # of connection points: 2
#     Edge 11, Type (0, 0), BuildingBlock: UVAHIK_clean_linker_0, # of connection points: 2
#     Edge 12, Type (0, 0), BuildingBlock: UVAHIK_clean_linker_0, # of connection points: 2
#     Edge 13, Type (0, 0), BuildingBlock: UVAHIK_clean_linker_0, # of connection points: 2
#     Edge 14, Type (0, 0), BuildingBlock: UVAHIK_clean_linker_0, # of connection points: 2
#     Edge 15, Type (0, 0), BuildingBlock: UVAHIK_clean_linker_0, # of connection points: 2
#     Edge 16, Type (0, 0), BuildingBlock: UVAHIK_clean_linker_0, # of connection points: 2
#     Edge 17, Type (0, 0), BuildingBlock: UVAHIK_clean_linker_0, # of connection points: 2
#     Edge 18, Type (0, 0), BuildingBlock: UVAHIK_clean_linker_0, # of connection points: 2
#     Edge 19, Type (0, 0), BuildingBlock: UVAHIK_clean_linker_0, # of connection points: 2
#     Edge 20, Type (0, 0), BuildingBlock: UVAHIK_clean_linker_0, # of connection points: 2
#     Edge 21, Type (0, 0), BuildingBlock: UVAHIK_clean_linker_0, # of connection points: 2
#     Edge 22, Type (0, 0), BuildingBlock: UVAHIK_clean_linker_0, # of connection points: 2
#     Edge 23, Type (0, 0), BuildingBlock: UVAHIK_clean_linker_0, # of connection points: 2
#     Edge 24, Type (0, 0), BuildingBlock: UVAHIK_clean_linker_0, # of connection points: 2
#     Edge 25, Type (0, 0), BuildingBlock: UVAHIK_clean_linker_0, # of connection points: 2
#     Edge 26, Type (0, 0), BuildingBlock: UVAHIK_clean_linker_0, # of connection points: 2
#     Edge 27, Type (0, 0), BuildingBlock: UVAHIK_clean_linker_0, # of connection points: 2
#     Edge 28, Type (0, 0), BuildingBlock: UVAHIK_clean_linker_0, # of connection points: 2
#     Edge 29, Type (0, 0), BuildingBlock: UVAHIK_clean_linker_0, # of connection points: 2
#     Edge 30, Type (0, 0), BuildingBlock: UVAHIK_clean_linker_0, # of connection points: 2
#     Edge 31, Type (0, 0), BuildingBlock: UVAHIK_clean_linker_0, # of connection points: 2
#     Edge 32, Type (0, 0), BuildingBlock: UVAHIK_clean_linker_0, # of connection points: 2
#     Edge 33, Type (0, 0), BuildingBlock: UVAHIK_clean_linker_0, # of connection points: 2
#     Edge 34, Type (0, 0), BuildingBlock: UVAHIK_clean_linker_0, # of connection points: 2
#     Edge 35, Type (0, 0), BuildingBlock: UVAHIK_clean_linker_0, # of connection points: 2
# Relax obj value: 0.173
# Max RMSD: 0.157
# Mean RMSD: 0.107
data_MOF--net-snz--node1-KUMBOL_clean_sbu_1--edge1-UVAHIK_clean_linker_0
_symmetry_space_group_name_H-M    P1
_symmetry_Int_Tables_number       1
_symmetry_cell_setting            triclinic
loop_
_symmetry_equiv_pos_as_xyz
'x, y, z'
_cell_length_a     80.686161
_cell_length_b     68.11894
_cell_length_c     20.989879
_cell_angle_alpha  96.401776
_cell_angle_beta   95.285933
_cell_angle_gamma 120.51414
loop_
_atom_site_label
_atom_site_type_symbol
_atom_site_fract_x
_atom_site_fract_y
_atom_site_fract_z
_atom_type_partial_charge
C0 C 0.10904 0.53058 0.13333 0.0
C1 C 0.12772 0.56128 0.22731 0.0
C2 C 0.11155 0.53923 0.19845 0.0
C3 C 0.14052 0.5752 0.18824 0.0
C4 C 0.12275 0.5437 0.09502 0.0
C5 C 0.13804 0.56641 0.12212 0.0
N6 N 0.09442 0.50839 0.10949 0.0
C7 C 0.09423 0.49731 0.05068 0.0
C8 C 0.12129 0.53313 1.03192 0.0
C9 C 0.10726 0.50965 1.01027 0.0
Gd10 Gd 0.02386 0.49358 0.15685 0.0
Gd11 Gd 0.07142 0.49025 0.17777 0.0
N12 N 0.09911 0.52514 0.23478 0.0
C13 C 0.13104 0.56815 0.29495 0.0
C14 C 0.10322 0.53088 0.30126 0.0
C15 C 0.119 0.55265 0.33223 0.0
H16 H 0.09381 0.519 0.3301 0.0
H17 H 0.1218 0.5575 0.38472 0.0
H18 H 0.01277 0.49786 1.00021 0.0
H19 H 0.08373 0.479 1.03433 0.0
H20 H 0.99152 0.47173 0.89842 0.0
H21 H 0.14328 0.58498 0.31902 0.0
H22 H 0.15286 0.59236 0.20925 0.0
H23 H 0.00212 0.46819 0.2782 0.0
H24 H 0.13153 0.54259 1.00088 0.0
H25 H 0.10656 0.50099 0.96273 0.0
H26 H 0.94875 0.4003 0.96598 0.0
H27 H 0.14854 0.5769 0.09318 0.0
H28 H 0.95253 0.40106 0.1955 0.0
H29 H 0.9743 0.43087 0.2921 0.0
N30 N 0.9966 0.45938 0.17478 0.0
C31 C 0.98412 0.44383 0.1212 0.0
C32 C 0.99281 0.45533 0.23567 0.0
C33 C 0.96472 0.41744 0.1891 0.0
C34 C 0.97699 0.43421 0.24374 0.0
C35 C 0.96803 0.42226 0.12682 0.0
H36 H 0.94346 0.38951 0.0736 0.0
N37 N 0.00205 0.47147 0.05787 0.0
C38 C 0.98718 0.4499 0.06076 0.0
C39 C 0.9763 0.44222 0.94465 0.0
C40 C 0.97409 0.43454 1.00413 0.0
C41 C 0.0028 0.47981 1.00118 0.0
C42 C 0.9904 0.46517 0.9435 0.0
O43 O 0.07066 0.5215 0.22482 0.0
O44 O 0.05223 0.5247 0.14461 0.0
O45 O 0.00198 0.50258 0.13218 0.0
O46 O 0.02201 0.51899 0.22321 0.0
O47 O 0.05867 0.48706 0.2745 0.0
O48 O 0.03525 0.49752 0.26777 0.0
O49 O 0.02391 0.46109 0.17359 0.0
O50 O 0.04484 0.46115 0.10981 0.0
O51 O 0.06684 0.46034 0.21964 0.0
O52 O 0.09399 0.48171 0.1876 0.0
O53 O 0.04032 0.50291 0.06784 0.0
O54 O 0.05786 0.48467 0.06781 0.0
C55 C 0.06732 0.53464 0.19147 0.0
C56 C 0.04674 0.49217 0.30255 0.0
C57 C 0.01312 0.54205 0.16892 0.0
C58 C 0.00277 0.56568 0.11811 0.0
C59 C 0.03642 0.58291 0.17133 0.0
C60 C 0.03209 0.5617 0.18752 0.0
C61 C 0.02193 0.58488 0.13643 0.0
C62 C 0.99838 0.54426 0.13491 0.0
C63 C 0.0089 0.51916 0.18242 0.0
C64 C 0.95874 0.41246 1.00905 0.0
C65 C 0.95568 0.40635 0.07034 0.0
H66 H 0.96656 0.43098 0.90004 0.0
C67 C 0.0281 0.4499 0.12932 0.0
C68 C 0.04926 0.49399 1.03581 0.0
C69 C 0.08288 0.44202 0.17843 0.0
C70 C 0.09064 0.41157 0.18253 0.0
C71 C 0.07473 0.4139 0.08124 0.0
C72 C 0.07478 0.4331 0.11235 0.0
C73 C 0.08268 0.40333 0.11563 0.0
C74 C 0.09073 0.4312 0.21356 0.0
C75 C 0.08348 0.4629 0.21007 0.0
H76 H 0.05111 0.59786 0.18557 0.0
H77 H 0.04366 0.56068 0.21424 0.0
H78 H 0.02564 0.60151 0.12412 0.0
H79 H 0.9837 0.52928 0.12016 0.0
H80 H 0.06865 0.40727 1.02998 0.0
H81 H 0.06865 0.44113 0.0847 0.0
H82 H 0.08281 0.38885 0.08917 0.0
H83 H 0.0967 0.438 0.26488 0.0
C84 C 0.5897 0.46775 0.06935 0.0
C85 C 0.57617 0.43406 0.98319 0.0
C86 C 0.57985 0.4564 1.00632 0.0
C87 C 0.58185 0.42299 1.02498 0.0
C88 C 0.59623 0.45711 0.11038 0.0
C89 C 0.59188 0.43449 0.08836 0.0
N90 N 0.59399 0.48975 0.08904 0.0
C91 C 0.60574 0.50262 0.14727 0.0
C92 C 0.60746 0.46979 0.17162 0.0
C93 C 0.61245 0.49274 0.18976 0.0
Gd94 Gd 0.53423 0.50752 1.00199 0.0
Gd95 Gd 0.58064 0.50387 1.01643 0.0
N96 N 0.57466 0.46762 0.96675 0.0
C97 C 0.56736 0.42376 0.91822 0.0
C98 C 0.56717 0.45824 0.90228 0.0
C99 C 0.56309 0.43603 0.87741 0.0
H100 H 0.56362 0.46738 0.87025 0.0
H101 H 0.55661 0.42838 0.82679 0.0
H102 H 0.55174 0.54741 0.14091 0.0
H103 H 0.60976 0.52046 0.16103 0.0
H104 H 0.55538 0.58517 0.17829 0.0
H105 H 0.56423 0.40659 0.89869 0.0
H106 H 0.57899 0.40575 1.0082 0.0
H107 H 0.50345 0.48514 0.86067 0.0
H108 H 0.61276 0.46222 0.20452 0.0
H109 H 0.62148 0.50285 0.23637 0.0
H110 H 0.52401 0.59758 0.9949 0.0
H111 H 0.59661 0.42595 0.11942 0.0
H112 H 0.49126 0.53619 0.80843 0.0
H113 H 0.48709 0.49741 0.78274 0.0
N114 N 0.51687 0.51682 0.92838 0.0
C115 C 0.51901 0.53793 0.94414 0.0
C116 C 0.50532 0.50211 0.87189 0.0
C117 C 0.4985 0.53093 0.8425 0.0
C118 C 0.49606 0.509 0.82788 0.0
C119 C 0.5099 0.54561 0.90156 0.0
H120 H 0.50534 0.57369 0.88759 0.0
N121 N 0.53743 0.54293 1.04522 0.0
C122 C 0.52956 0.55137 1.00451 0.0
C123 C 0.54094 0.58531 0.08693 0.0
C124 C 0.53122 0.57288 1.02406 0.0
C125 C 0.54597 0.55437 0.10782 0.0
C126 C 0.54813 0.57587 0.12923 0.0
O127 O 0.55085 0.47016 1.00491 0.0
O128 O 0.53086 0.47646 0.93827 0.0
O129 O 0.51831 0.48006 0.05551 0.0
O130 O 0.50389 0.49554 1.00753 0.0
O131 O 0.57094 0.5062 0.9101 0.0
O132 O 0.54119 0.5041 0.8973 0.0
O133 O 0.56324 0.54136 1.01133 0.0
O134 O 0.58464 0.53634 0.07596 0.0
O135 O 0.60136 0.53222 0.97316 0.0
O136 O 0.60995 0.51049 1.01529 0.0
O137 O 0.54553 0.5085 0.10995 0.0
O138 O 0.57421 0.5081 0.12155 0.0
C139 C 0.53513 0.46215 0.96081 0.0
C140 C 0.55646 0.50584 0.87257 0.0
C141 C 0.48427 0.45639 1.0187 0.0
C142 C 0.45404 0.42442 1.04171 0.0
C143 C 0.46459 0.42114 0.93808 0.0
C144 C 0.48095 0.44351 0.957 0.0
C145 C 0.45124 0.41158 0.98014 0.0
C146 C 0.47073 0.44689 0.06071 0.0
C147 C 0.50195 0.47952 1.04043 0.0
C148 C 0.52276 0.58101 0.98094 0.0
C149 C 0.51211 0.5674 0.91983 0.0
H150 H 0.54259 0.60194 0.10373 0.0
C151 C 0.57933 0.54997 0.05396 0.0
C152 C 0.55966 0.50809 0.14716 0.0
C153 C 0.63465 0.54934 1.02037 0.0
C154 C 0.66979 0.5751 1.02231 0.0
C155 C 0.6544 0.58114 0.11106 0.0
C156 C 0.63635 0.56208 0.08037 0.0
C157 C 0.67099 0.58758 0.08258 0.0
C158 C 0.65137 0.55585 0.99143 0.0
C159 C 0.61563 0.5288 0.989 0.0
H160 H 0.46217 0.41121 0.89053 0.0
H161 H 0.49102 0.45078 0.92364 0.0
H162 H 0.43852 0.39431 0.96396 0.0
H163 H 0.47331 0.45689 0.10843 0.0
H164 H 0.6556 0.59084 0.15755 0.0
H165 H 0.62375 0.55711 0.10376 0.0
H166 H 0.68485 0.60213 0.10861 0.0
H167 H 0.64997 0.54598 0.94491 0.0
C168 C 0.51465 0.98012 0.84496 0.0
C169 C 0.52295 0.95626 0.90118 0.0
C170 C 0.52396 0.97745 0.89906 0.0
C171 C 0.51335 0.93829 0.84649 0.0
C172 C 0.50422 0.9618 0.79112 0.0
C173 C 0.50401 0.94107 0.79154 0.0
N174 N 0.51471 1.00011 0.84691 0.0
C175 C 0.50394 1.00266 0.79817 0.0
C176 C 0.49381 0.96465 0.73946 0.0
C177 C 0.4935 0.98508 0.74337 0.0
Gd178 Gd 0.58237 0.08925 0.97376 0.0
Gd179 Gd 0.53387 0.02939 0.93762 0.0
N180 N 0.53284 0.99502 0.95133 0.0
C181 C 0.53098 0.95348 0.95901 0.0
C182 C 0.53953 0.99187 1.00915 0.0
C183 C 0.539 0.97122 1.01357 0.0
H184 H 0.5458 0.00549 0.05153 0.0
H185 H 0.54484 0.96905 0.05897 0.0
H186 H 0.56824 0.10788 0.84787 0.0
H187 H 0.50372 0.01848 0.80129 0.0
H188 H 0.56712 0.14214 0.82907 0.0
H189 H 0.53053 0.93747 0.96264 0.0
H190 H 0.51259 0.92196 0.84692 0.0
H191 H 0.61006 0.10458 0.11984 0.0
H192 H 0.48561 0.951 0.69716 0.0
H193 H 0.48522 0.98729 0.70423 0.0
H194 H 0.59735 0.19491 1.03344 0.0
H195 H 0.49622 0.92685 0.7504 0.0
H196 H 0.62451 0.17279 0.20381 0.0
H197 H 0.62622 0.13786 0.21171 0.0
N198 N 0.59918 0.12048 0.06137 0.0
C199 C 0.59846 0.13967 0.05533 0.0
C200 C 0.60931 0.11981 0.11604 0.0
C201 C 0.61738 0.15824 0.16349 0.0
C202 C 0.61843 0.13859 0.16808 0.0
C203 C 0.6075 0.15908 0.10639 0.0
H204 H 0.61346 0.19383 0.13722 0.0
N205 N 0.58159 0.12161 0.94771 0.0
C206 C 0.58943 0.14028 0.99674 0.0
C207 C 0.58075 0.16079 0.92706 0.0
C208 C 0.58914 0.16033 0.98783 0.0
C209 C 0.57418 0.12241 0.88741 0.0
C210 C 0.57341 0.14183 0.8765 0.0
O211 O 0.56194 0.02897 0.94425 0.0
O212 O 0.5835 0.06146 1.01925 0.0
O213 O 0.59934 0.07962 0.91727 0.0
O214 O 0.61337 0.11376 0.9773 0.0
O215 O 0.54549 0.0416 0.0498 0.0
O216 O 0.57304 0.07871 0.07322 0.0
O217 O 0.55406 0.08976 0.96672 0.0
O218 O 0.53225 0.05698 0.89271 0.0
O219 O 0.51923 0.04057 1.00075 0.0
O220 O 0.50372 0.00531 0.94487 0.0
O221 O 0.57165 0.07565 0.86162 0.0
O222 O 0.5424 0.04014 0.83801 0.0
C223 C 0.5773 0.04024 0.99072 0.0
C224 C 0.55883 0.0604 0.09302 0.0
C225 C 0.63255 0.09675 0.9658 0.0
C226 C 0.66352 0.09881 0.95587 0.0
C227 C 0.64742 0.08527 1.04799 0.0
C228 C 0.63256 0.0887 1.02438 0.0
C229 C 0.6627 0.09011 1.01391 0.0
C230 C 0.64832 0.1022 0.93184 0.0
C231 C 0.6159 0.09903 0.94067 0.0
C232 C 0.59755 0.17942 1.03928 0.0
C233 C 0.60672 0.17881 0.09839 0.0
H234 H 0.58019 0.17584 0.91834 0.0
C235 C 0.53796 0.07784 0.92286 0.0
C236 C 0.55737 0.05762 0.81838 0.0
C237 C 0.48473 0.02114 0.97395 0.0
C238 C 0.45381 0.01276 1.00677 0.0
C239 C 0.4641 0.0314 0.91328 0.0
C240 C 0.48103 0.03044 0.92215 0.0
C241 C 0.45059 0.0227 0.95535 0.0
C242 C 0.47107 0.01218 1.01582 0.0
C243 C 0.50271 0.02055 0.98528 0.0
H244 H 0.64712 0.07884 0.09304 0.0
H245 H 0.62099 0.08504 0.05192 0.0
H246 H 0.67413 0.08741 1.03355 0.0
H247 H 0.64862 0.10866 0.88681 0.0
H248 H 0.46137 0.03875 0.87339 0.0
H249 H 0.49118 0.03682 0.88865 0.0
H250 H 0.43742 0.0233 0.94681 0.0
H251 H 0.47398 0.00494 0.0558 0.0
C252 C 0.77332 0.89059 0.34935 0.0
C253 C 0.78389 0.8991 0.46603 0.0
C254 C 0.77029 0.88435 0.40958 0.0
C255 C 0.79983 0.92077 0.46118 0.0
C256 C 0.78996 0.91168 0.34366 0.0
C257 C 0.80289 0.92703 0.40005 0.0
N258 N 0.76033 0.87557 0.2959 0.0
C259 C 0.76399 0.87964 0.23492 0.0
C260 C 0.79323 0.91654 0.28139 0.0
C261 C 0.78034 0.90028 0.22677 0.0
Gd262 Gd 0.6857 0.84665 0.29421 0.0
Gd263 Gd 0.73259 0.84185 0.31369 0.0
N264 N 0.75492 0.86309 0.41228 0.0
C265 C 0.78156 0.89119 0.52516 0.0
C266 C 0.75391 0.85446 0.46856 0.0
C267 C 0.76677 0.86854 0.52608 0.0
H268 H 0.7434 0.83656 0.46929 0.0
H269 H 0.76548 0.86176 0.57082 0.0
H270 H 0.66185 0.81773 0.14382 0.0
H271 H 0.75423 0.86715 0.19239 0.0
H272 H 0.63204 0.78042 0.09133 0.0
H273 H 0.79167 0.90198 0.56961 0.0
H274 H 0.81026 0.93246 0.50412 0.0
H275 H 0.67516 0.86115 0.43751 0.0
H276 H 0.80584 0.93255 0.27496 0.0
H277 H 0.78297 0.90363 0.17838 0.0
H278 H 0.60087 0.74891 0.27022 0.0
H279 H 0.81556 0.9435 0.39678 0.0
H280 H 0.62539 0.80053 0.47626 0.0
H281 H 0.65211 0.84155 0.51132 0.0
N282 N 0.66282 0.83085 0.36443 0.0
C283 C 0.64735 0.80903 0.34229 0.0
C284 C 0.66388 0.84303 0.42261 0.0
C285 C 0.63573 0.8089 0.44435 0.0
C286 C 0.65075 0.83207 0.46424 0.0
C287 C 0.63346 0.79733 0.38176 0.0
H288 H 0.60651 0.76567 0.38597 0.0
N289 N 0.65688 0.81254 0.23994 0.0
C290 C 0.64419 0.79958 0.27748 0.0
C291 C 0.62301 0.77094 0.18231 0.0
C292 C 0.62704 0.77822 0.24993 0.0
C293 C 0.65219 0.80658 0.17356 0.0
C294 C 0.63538 0.78549 0.14381 0.0
O295 O 0.73379 0.87537 0.30024 0.0
O296 O 0.71249 0.87509 0.36286 0.0
O297 O 0.69179 0.87711 0.25266 0.0
O298 O 0.66407 0.85661 0.28255 0.0
O299 O 0.71621 0.83269 0.40299 0.0
O300 O 0.69905 0.85139 0.40385 0.0
O301 O 0.68486 0.81426 0.24685 0.0
O302 O 0.7039 0.8113 0.32582 0.0
O303 O 0.75284 0.83034 0.33782 0.0
O304 O 0.7345 0.81748 0.24356 0.0
O305 O 0.69793 0.84885 0.19676 0.0
O306 O 0.72106 0.83802 0.20321 0.0
C307 C 0.72936 0.88643 0.34412 0.0
C308 C 0.70748 0.84182 0.43544 0.0
C309 C 0.67601 0.89644 0.28937 0.0
C310 C 0.66799 0.9265 0.28078 0.0
C311 C 0.68433 0.92573 0.38365 0.0
C312 C 0.6843 0.90624 0.35497 0.0
C313 C 0.67615 0.93566 0.3473 0.0
C314 C 0.66798 0.90664 0.25226 0.0
C315 C 0.67521 0.87519 0.26009 0.0
C316 C 0.61397 0.76556 0.2902 0.0
C317 C 0.61719 0.7751 0.35613 0.0
H318 H 0.60997 0.75465 0.15918 0.0
C319 C 0.68882 0.80125 0.27885 0.0
C320 C 0.70967 0.84349 0.16857 0.0
C321 C 0.7412 0.79138 0.2899 0.0
C322 C 0.74924 0.76458 0.33257 0.0
C323 C 0.71743 0.74988 0.26728 0.0
C324 C 0.72269 0.77234 0.26033 0.0
C325 C 0.7305 0.74601 0.30355 0.0
C326 C 0.7546 0.78731 0.32526 0.0
C327 C 0.74648 0.81533 0.28402 0.0
H328 H 0.69056 0.93306 0.43458 0.0
H329 H 0.69056 0.89866 0.38412 0.0
H330 H 0.676 0.95038 0.37197 0.0
H331 H 0.66188 0.89915 0.20129 0.0
H332 H 0.70313 0.73539 0.24441 0.0
H333 H 0.71221 0.77474 0.23178 0.0
H334 H 0.72608 0.7284 0.30818 0.0
H335 H 0.76898 0.80176 0.34785 0.0
C336 C 0.22737 0.79168 0.4917 0.0
C337 C 0.21764 0.75919 0.40575 0.0
C338 C 0.22085 0.78141 0.42695 0.0
C339 C 0.21963 0.74675 0.45189 0.0
C340 C 0.23091 0.78007 0.53769 0.0
C341 C 0.22627 0.75719 0.51788 0.0
N342 N 0.23225 0.81398 0.50833 0.0
C343 C 0.24265 0.82652 0.56855 0.0
C344 C 0.23993 0.79223 0.60128 0.0
C345 C 0.24622 0.81573 0.61638 0.0
Gd346 Gd 0.17413 0.82969 0.41663 0.0
Gd347 Gd 0.22286 0.8297 0.4278 0.0
N348 N 0.21958 0.7942 0.38395 0.0
C349 C 0.21357 0.75073 0.33874 0.0
C350 C 0.21744 0.78697 0.31862 0.0
C351 C 0.21394 0.76493 0.29499 0.0
H352 H 0.21754 0.79784 0.28467 0.0
H353 H 0.21148 0.75889 0.24312 0.0
H354 H 0.16005 0.82686 0.56525 0.0
H355 H 0.24782 0.84481 0.58008 0.0
H356 H 0.163 0.85377 0.66015 0.0
H357 H 0.21097 0.73372 0.32039 0.0
H358 H 0.21693 0.7295 0.43675 0.0
H359 H 0.17547 0.85522 0.28772 0.0
H360 H 0.24291 0.78396 0.63814 0.0
H361 H 0.25389 0.82556 0.66467 0.0
H362 H 0.18511 0.92532 0.58346 0.0
H363 H 0.22859 0.74783 0.55264 0.0
H364 H 0.18781 0.92363 0.35594 0.0
H365 H 0.18189 0.89302 0.26546 0.0
N366 N 0.17838 0.86452 0.39017 0.0
C367 C 0.18041 0.88058 0.43982 0.0
C368 C 0.17813 0.86843 0.3277 0.0
C369 C 0.18501 0.90706 0.36602 0.0
C370 C 0.18169 0.88983 0.31484 0.0
C371 C 0.18411 0.90245 0.42936 0.0
H372 H 0.18955 0.93579 0.47517 0.0
N373 N 0.17309 0.85287 0.50741 0.0
C374 C 0.17803 0.8747 0.50066 0.0
C375 C 0.17448 0.88313 0.61175 0.0
C376 C 0.17913 0.89053 0.55284 0.0
C377 C 0.16654 0.84495 0.56253 0.0
C378 C 0.16769 0.86006 0.61604 0.0
O379 O 0.19425 0.79878 0.37176 0.0
O380 O 0.17336 0.79735 0.43749 0.0
O381 O 0.14453 0.82078 0.4272 0.0
O382 O 0.14958 0.8068 0.33914 0.0
O383 O 0.21267 0.83204 0.32263 0.0
O384 O 0.18096 0.82458 0.31157 0.0
O385 O 0.20346 0.86201 0.41134 0.0
O386 O 0.22299 0.85912 0.48812 0.0
O387 O 0.24221 0.85762 0.38116 0.0
O388 O 0.25357 0.84056 0.4352 0.0
O389 O 0.18135 0.81901 0.51312 0.0
O390 O 0.21475 0.83558 0.5307 0.0
C391 C 0.17898 0.78653 0.39809 0.0
C392 C 0.19665 0.82837 0.28551 0.0
C393 C 0.1206 0.78192 0.37823 0.0
C394 C 0.08984 0.75626 0.41459 0.0
C395 C 0.10691 0.74026 0.3601 0.0
C396 C 0.12147 0.7624 0.35418 0.0
C397 C 0.09124 0.73717 0.39 0.0
C398 C 0.10459 0.77869 0.40804 0.0
C399 C 0.13655 0.80554 0.37357 0.0
C400 C 0.18394 0.91283 0.54371 0.0
C401 C 0.18641 0.91877 0.48202 0.0
H402 H 0.17513 0.89474 0.65298 0.0
C403 C 0.21818 0.8721 0.46026 0.0
C404 C 0.19801 0.82695 0.55401 0.0
C405 C 0.27533 0.87986 0.42875 0.0
C406 C 0.30646 0.91212 0.4123 0.0
C407 C 0.29337 0.91491 0.51074 0.0
C408 C 0.27712 0.89258 0.48895 0.0
C409 C 0.30793 0.92469 0.47269 0.0
C410 C 0.29004 0.8896 0.39081 0.0
C411 C 0.25763 0.85715 0.40249 0.0
H412 H 0.10778 0.7254 0.34137 0.0
H413 H 0.13345 0.76416 0.3308 0.0
H414 H 0.08005 0.7197 0.39314 0.0
H415 H 0.10383 0.79362 0.42713 0.0
H416 H 0.29465 0.92473 0.55711 0.0
H417 H 0.26586 0.88532 0.51858 0.0
H418 H 0.32042 0.942 0.49077 0.0
H419 H 0.28841 0.87985 0.34372 0.0
C420 C 0.16074 0.19282 0.39034 0.0
C421 C 0.1707 0.17419 0.46394 0.0
C422 C 0.16959 0.19344 0.4511 0.0
C423 C 0.16324 0.15466 0.41454 0.0
C424 C 0.1527 0.17293 0.34123 0.0
C425 C 0.15424 0.15402 0.35338 0.0
N426 N 0.1593 0.21126 0.38004 0.0
C427 C 0.1494 0.21065 0.32271 0.0
C428 C 0.14303 0.17247 0.28165 0.0
C429 C 0.14125 0.19135 0.27258 0.0
Gd430 Gd 0.22331 0.3035 0.50119 0.0
Gd431 Gd 0.17458 0.24344 0.46534 0.0
N432 N 0.17661 0.21255 0.49811 0.0
C433 C 0.179 0.17497 0.52637 0.0
C434 C 0.18401 0.21294 0.55991 0.0
C435 C 0.18552 0.19434 0.57466 0.0
H436 H 0.18941 0.22778 0.59789 0.0
H437 H 0.19179 0.19501 0.6233 0.0
H438 H 0.21078 0.32556 0.383 0.0
H439 H 0.14805 0.22522 0.3152 0.0
H440 H 0.2106 0.3611 0.37163 0.0
H441 H 0.18018 0.16058 0.53805 0.0
H442 H 0.16408 0.1398 0.42347 0.0
H443 H 0.25335 0.31657 0.64018 0.0
H444 H 0.13667 0.15752 0.24275 0.0
H445 H 0.13363 0.19108 0.22695 0.0
H446 H 0.2406 0.40955 0.58288 0.0
H447 H 0.14827 0.13866 0.3161 0.0
H448 H 0.26863 0.38361 0.73932 0.0
H449 H 0.2706 0.34841 0.73618 0.0
N450 N 0.24139 0.33344 0.59133 0.0
C451 C 0.24063 0.35287 0.59106 0.0
C452 C 0.2524 0.33189 0.64162 0.0
C453 C 0.26095 0.36965 0.69749 0.0
C454 C 0.26216 0.34984 0.69582 0.0
C455 C 0.25038 0.37154 0.64421 0.0
H456 H 0.25704 0.40616 0.68213 0.0
N457 N 0.22308 0.33686 0.48383 0.0
C458 C 0.23127 0.3547 0.53537 0.0
C459 C 0.22361 0.37741 0.47178 0.0
C460 C 0.23156 0.37537 0.53104 0.0
C461 C 0.21649 0.33934 0.42473 0.0
C462 C 0.21637 0.35948 0.41807 0.0
O463 O 0.20298 0.24316 0.47114 0.0
O464 O 0.22491 0.27578 0.54544 0.0
O465 O 0.23912 0.29387 0.43918 0.0
O466 O 0.25353 0.32859 0.49745 0.0
O467 O 0.18483 0.25825 0.57711 0.0
O468 O 0.21536 0.29216 0.60068 0.0
O469 O 0.19509 0.30356 0.49599 0.0
O470 O 0.1736 0.27134 0.42012 0.0
O471 O 0.15612 0.25191 0.51721 0.0
O472 O 0.14369 0.21786 0.45868 0.0
O473 O 0.21195 0.29041 0.38907 0.0
O474 O 0.18344 0.25413 0.36556 0.0
C475 C 0.21919 0.255 0.5146 0.0
C476 C 0.19977 0.27554 0.62036 0.0
C477 C 0.27355 0.31414 0.47016 0.0
C478 C 0.30495 0.32317 0.44042 0.0
C479 C 0.29453 0.30529 0.53494 0.0
C480 C 0.27736 0.30563 0.52375 0.0
C481 C 0.30823 0.31391 0.49349 0.0
C482 C 0.28742 0.32307 0.42893 0.0
C483 C 0.25534 0.31412 0.45684 0.0
C484 C 0.24042 0.39362 0.58503 0.0
C485 C 0.24979 0.3917 0.64154 0.0
H486 H 0.22353 0.393 0.46644 0.0
C487 C 0.17965 0.29238 0.44978 0.0
C488 C 0.19809 0.27201 0.34579 0.0
C489 C 0.12334 0.2334 0.46199 0.0
C490 C 0.09119 0.22953 0.46184 0.0
C491 C 0.10784 0.23974 0.36853 0.0
C492 C 0.12346 0.23911 0.39994 0.0
C493 C 0.09183 0.2348 0.39864 0.0
C494 C 0.10715 0.22865 0.49322 0.0
C495 C 0.14006 0.23213 0.49233 0.0
H496 H 0.29732 0.29852 0.57622 0.0
H497 H 0.26709 0.29945 0.55693 0.0
H498 H 0.3216 0.31383 0.50384 0.0
H499 H 0.28451 0.32982 0.38773 0.0
H500 H 0.10808 0.24391 0.32021 0.0
H501 H 0.13563 0.2429 0.37538 0.0
H502 H 0.07978 0.23485 0.37151 0.0
H503 H 0.10711 0.22452 0.54157 0.0
C504 C 0.42901 0.16932 0.64454 0.0
C505 C 0.42242 0.12997 0.62924 0.0
C506 C 0.41572 0.14552 0.63556 0.0
C507 C 0.44247 0.13856 0.63296 0.0
C508 C 0.44915 0.17794 0.6477 0.0
C509 C 0.45578 0.16246 0.64195 0.0
N510 N 0.42232 0.18405 0.6516 0.0
C511 C 0.43488 0.20746 0.65967 0.0
C512 C 0.46211 0.20193 0.65712 0.0
C513 C 0.45492 0.21673 0.66294 0.0
Gd514 Gd 0.3695 0.16432 0.80395 0.0
Gd515 Gd 0.38828 0.16648 0.63876 0.0
N516 N 0.39632 0.13758 0.63254 0.0
C517 C 0.40874 0.10616 0.61822 0.0
C518 C 0.38293 0.11436 0.6162 0.0
C519 C 0.38889 0.09833 0.61066 0.0
H520 H 0.36767 0.10798 0.60357 0.0
H521 H 0.37813 0.07994 0.59862 0.0
H522 H 0.36704 0.21208 0.80011 0.0
H523 H 0.42953 0.2191 0.66211 0.0
H524 H 0.34306 0.22398 0.81275 0.0
H525 H 0.41331 0.09369 0.61317 0.0
H526 H 0.44782 0.12684 0.62845 0.0
H527 H 0.35168 0.11368 0.85339 0.0
H528 H 0.47766 0.2092 0.65966 0.0
H529 H 0.46481 0.23529 0.66935 0.0
H530 H 0.28791 0.15712 0.86378 0.0
H531 H 0.4712 0.16879 0.64453 0.0
H532 H 0.29419 0.09214 0.89231 0.0
H533 H 0.32096 0.08455 0.88547 0.0
N534 N 0.34187 0.13678 0.84003 0.0
C535 C 0.32755 0.14154 0.84462 0.0
C536 C 0.33989 0.11686 0.85544 0.0
C537 C 0.30751 0.10481 0.87762 0.0
C538 C 0.32261 0.10047 0.87389 0.0
C539 C 0.30996 0.12568 0.86369 0.0
H540 H 0.28191 0.11929 0.8836 0.0
N541 N 0.34813 0.17782 0.81574 0.0
C542 C 0.33086 0.16279 0.83284 0.0
C543 C 0.32115 0.191 0.83227 0.0
C544 C 0.31677 0.16885 0.84071 0.0
C545 C 0.35294 0.1999 0.81095 0.0
C546 C 0.33941 0.20668 0.81815 0.0
O547 O 0.40646 0.17103 0.73592 0.0
O548 O 0.38434 0.14418 0.78585 0.0
O549 O 0.39716 0.18703 0.86878 0.0
O550 O 0.37078 0.16696 0.90864 0.0
O551 O 0.35782 0.13563 0.64206 0.0
O552 O 0.36052 0.12925 0.74647 0.0
O553 O 0.35028 0.16585 0.72066 0.0
O554 O 0.36819 0.1808 0.63938 0.0
O555 O 0.37591 0.14711 0.53991 0.0
O556 O 0.39949 0.18285 0.55655 0.0
O557 O 0.39202 0.20025 0.78786 0.0
O558 O 0.39629 0.20285 0.68072 0.0
C559 C 0.40181 0.15458 0.7705 0.0
C560 C 0.35195 0.12173 0.68503 0.0
C561 C 0.39384 0.20547 0.96334 0.0
C562 C 0.41798 0.2412 1.03833 0.0
C563 C 0.38563 0.23401 1.00093 0.0
C564 C 0.38027 0.21257 0.96481 0.0
C565 C 0.40437 0.24829 1.03751 0.0
C566 C 0.41267 0.21988 1.00002 0.0
C567 C 0.38904 0.18393 0.92069 0.0
C568 C 0.29899 0.15285 0.85801 0.0
C569 C 0.29558 0.1313 0.86934 0.0
H570 H 0.31069 0.19631 0.83781 0.0
C571 C 0.35315 0.17582 0.66907 0.0
C572 C 0.39955 0.21242 0.74232 0.0
C573 C 0.40201 0.15616 0.48208 0.0
C574 C 0.43264 0.16698 0.44304 0.0
C575 C 0.40908 0.12656 0.44381 0.0
C576 C 0.39652 0.13273 0.4683 0.0
C577 C 0.42706 0.14355 0.43127 0.0
C578 C 0.42009 0.17315 0.46886 0.0
C579 C 0.38997 0.16313 0.51608 0.0
H580 H 0.37513 0.23943 1.00134 0.0
H581 H 0.36554 0.20159 0.93823 0.0
H582 H 0.40809 0.26463 0.0664 0.0
H583 H 0.42295 0.21409 1.00026 0.0
H584 H 0.40483 0.10853 0.43434 0.0
H585 H 0.38271 0.11914 0.47777 0.0
H586 H 0.43647 0.13836 0.41146 0.0
H587 H 0.42425 0.19119 0.4778 0.0
C588 C 0.91891 0.14284 0.72561 0.0
C589 C 0.95216 0.17303 0.7749 0.0
C590 C 0.93184 0.16359 0.76794 0.0
C591 C 0.95936 0.16157 0.73757 0.0
C592 C 0.92613 0.13093 0.68962 0.0
C593 C 0.94638 0.14062 0.69486 0.0
N594 N 0.89933 0.13379 0.72202 0.0
C595 C 0.8865 0.11154 0.69025 0.0
C596 C 0.91279 0.10923 0.65114 0.0
C597 C 0.89291 0.09929 0.6526 0.0
Gd598 Gd 0.87061 0.18191 0.65698 0.0
Gd599 Gd 0.89041 0.1562 0.78837 0.0
N600 N 0.9245 0.17471 0.80189 0.0
C601 C 0.96464 0.19378 0.81902 0.0
C602 C 0.93652 0.19458 0.84639 0.0
C603 C 0.95677 0.20451 0.85525 0.0
H604 H 0.93043 0.20274 0.87495 0.0
H605 H 0.96628 0.22039 0.89007 0.0
H606 H 0.85252 0.14378 0.51563 0.0
H607 H 0.87141 0.10259 0.69585 0.0
H608 H 0.82026 0.11311 0.45269 0.0
H609 H 0.98034 0.20158 0.82571 0.0
H610 H 0.97494 0.16867 0.7417 0.0
H611 H 0.86339 0.22079 0.73905 0.0
H612 H 0.91774 0.09955 0.62273 0.0
H613 H 0.88254 0.08189 0.62627 0.0
H614 H 0.77459 0.12355 0.56094 0.0
H615 H 0.95216 0.1318 0.66708 0.0
H616 H 0.80172 0.19317 0.71992 0.0
H617 H 0.83576 0.22492 0.7645 0.0
N618 N 0.84503 0.18711 0.68166 0.0
C619 C 0.82662 0.17044 0.65282 0.0
C620 C 0.84854 0.20706 0.71885 0.0
C621 C 0.81377 0.19141 0.70837 0.0
C622 C 0.83296 0.2094 0.73343 0.0
C623 C 0.81041 0.17178 0.66645 0.0
H624 H 0.77884 0.15455 0.64596 0.0
N625 N 0.84063 0.15469 0.58803 0.0
C626 C 0.82431 0.15334 0.60482 0.0
C627 C 0.80414 0.12136 0.51561 0.0
C628 C 0.8056 0.1366 0.56946 0.0
C629 C 0.83939 0.1414 0.5319 0.0
C630 C 0.82116 0.12414 0.49585 0.0
O631 O 0.91004 0.18217 0.72954 0.0
O632 O 0.89244 0.17238 0.62801 0.0
O633 O 0.88677 0.21851 0.65442 0.0
O634 O 0.87116 0.19414 0.56483 0.0
O635 O 0.89408 0.19086 0.83133 0.0
O636 O 0.89547 0.20756 0.73938 0.0
O637 O 0.85988 0.17823 0.75389 0.0
O638 O 0.85902 0.14696 0.78825 0.0
O639 O 0.89897 0.16066 0.89344 0.0
O640 O 0.88463 0.12676 0.83316 0.0
O641 O 0.86787 0.14689 0.62765 0.0
O642 O 0.86217 0.13071 0.71899 0.0
C643 C 0.90885 0.17888 0.66621 0.0
C644 C 0.89958 0.20923 0.80308 0.0
C645 C 0.90019 0.22971 0.56242 0.0
C646 C 0.92916 0.23553 0.51995 0.0
C647 C 0.923 0.26703 0.53681 0.0
C648 C 0.90582 0.25266 0.55917 0.0
C649 C 0.93462 0.25857 0.51719 0.0
C650 C 0.91194 0.22125 0.54342 0.0
C651 C 0.88306 0.21578 0.59172 0.0
C652 C 0.78913 0.13649 0.58679 0.0
C653 C 0.79155 0.15414 0.63517 0.0
H654 H 0.79004 0.1082 0.48718 0.0
C655 C 0.85107 0.15942 0.77906 0.0
C656 C 0.85819 0.12888 0.6557 0.0
C657 C 0.91242 0.13713 0.90875 0.0
C658 C 0.94285 0.15028 0.9824 0.0
C659 C 0.93307 0.12177 0.88429 0.0
C660 C 0.91612 0.12225 0.86862 0.0
C661 C 0.94642 0.13574 0.9407 0.0
C662 C 0.9258 0.15093 0.96586 0.0
C663 C 0.8956 0.13964 0.88817 0.0
H664 H 0.92727 0.28473 0.53428 0.0
H665 H 0.89706 0.25956 0.57482 0.0
H666 H 0.94755 0.26987 0.49808 0.0
H667 H 0.90771 0.20362 0.54705 0.0
H668 H 0.93588 0.11056 0.85243 0.0
H669 H 0.90616 0.11124 0.82422 0.0
H670 H 0.9595 0.13512 0.95177 0.0
H671 H 0.92279 0.16199 0.99761 0.0
C672 C 0.84718 0.58079 0.62823 0.0
C673 C 0.81248 0.56199 0.62887 0.0
C674 C 0.83075 0.58207 0.62984 0.0
C675 C 0.81131 0.54073 0.62976 0.0
C676 C 0.84604 0.55938 0.62619 0.0
C677 C 0.82808 0.53942 0.62851 0.0
N678 N 0.86407 0.60031 0.62452 0.0
C679 C 0.88022 0.59944 0.61502 0.0
C680 C 0.86283 0.55859 0.61997 0.0
C681 C 0.87994 0.57868 0.61358 0.0
Gd682 Gd 0.89595 0.69293 0.77504 0.0
Gd683 Gd 0.86408 0.63507 0.63547 0.0
N684 N 0.83246 0.60281 0.62809 0.0
C685 C 0.7959 0.56382 0.62493 0.0
C686 C 0.81626 0.60449 0.62051 0.0
C687 C 0.79778 0.58512 0.61977 0.0
H688 H 0.81771 0.62096 0.61676 0.0
H689 H 0.78502 0.58663 0.61532 0.0
H690 H 0.91361 0.67557 0.89554 0.0
H691 H 0.89345 0.61486 0.60957 0.0
H692 H 0.9436 0.67548 0.93049 0.0
H693 H 0.78158 0.54881 0.62411 0.0
H694 H 0.79744 0.52511 0.62971 0.0
H695 H 0.90896 0.73724 0.69726 0.0
H696 H 0.8626 0.5425 0.61838 0.0
H697 H 0.8929 0.57818 0.60738 0.0
H698 H 0.98939 0.72599 0.80723 0.0
H699 H 0.82691 0.52283 0.62759 0.0
H700 H 0.96952 0.7678 0.68311 0.0
H701 H 0.93833 0.76655 0.65931 0.0
N702 N 0.92346 0.72213 0.74121 0.0
C703 C 0.94058 0.72319 0.7572 0.0
C704 C 0.92255 0.73777 0.70783 0.0
C705 C 0.95672 0.75504 0.70007 0.0
C706 C 0.93914 0.75437 0.68649 0.0
C707 C 0.95766 0.73945 0.73626 0.0
H708 H 0.98826 0.75182 0.73604 0.0
N709 N 0.92466 0.69438 0.81961 0.0
C710 C 0.94112 0.70852 0.79667 0.0
C711 C 0.95947 0.69693 0.86349 0.0
C712 C 0.95889 0.7099 0.81707 0.0
C713 C 0.92588 0.68412 0.87076 0.0
C714 C 0.94301 0.68449 0.8918 0.0
O715 O 0.84773 0.63459 0.71796 0.0
O716 O 0.86629 0.66764 0.79961 0.0
O717 O 0.90813 0.71519 0.86992 0.0
O718 O 0.88575 0.71593 0.80734 0.0
O719 O 0.8525 0.65882 0.65676 0.0
O720 O 0.87918 0.69591 0.68837 0.0
O721 O 0.90162 0.6899 0.67155 0.0
O722 O 0.89697 0.65404 0.64859 0.0
O723 O 0.8714 0.65731 0.56341 0.0
O724 O 0.85406 0.61997 0.5326 0.0
O725 O 0.8879 0.65781 0.80145 0.0
O726 O 0.88827 0.63801 0.70632 0.0
C727 C 0.85025 0.64739 0.77433 0.0
C728 C 0.86127 0.68124 0.65729 0.0
C729 C 0.9077 0.74968 0.88659 0.0
C730 C 0.9112 0.78064 0.9677 0.0
C731 C 0.93542 0.78894 0.89779 0.0
C732 C 0.9252 0.76558 0.86775 0.0
C733 C 0.92864 0.79644 0.94838 0.0
C734 C 0.90061 0.75742 0.93562 0.0
C735 C 0.89772 0.72459 0.86263 0.0
C736 C 0.97569 0.725 0.79304 0.0
C737 C 0.97508 0.73979 0.75278 0.0
H738 H 0.97281 0.69745 0.8804 0.0
C739 C 0.90777 0.67636 0.64999 0.0
C740 C 0.89031 0.64183 0.76996 0.0
C741 C 0.84611 0.64282 0.47346 0.0
C742 C 0.83918 0.66782 0.41553 0.0
C743 C 0.81352 0.62794 0.41447 0.0
C744 C 0.8266 0.62463 0.45306 0.0
C745 C 0.81972 0.64929 0.39545 0.0
C746 C 0.85219 0.66434 0.45503 0.0
C747 C 0.86025 0.64008 0.51552 0.0
H748 H 0.94902 0.80109 0.88351 0.0
H749 H 0.93134 0.7599 0.83177 0.0
H750 H 0.93719 0.81432 0.97346 0.0
H751 H 0.88752 0.74497 0.95213 0.0
H752 H 0.79852 0.61383 0.39872 0.0
H753 H 0.8214 0.60789 0.46705 0.0
H754 H 0.80933 0.65103 0.36395 0.0
H755 H 0.86711 0.67849 0.4725 0.0
C756 C 0.05361 0.47971 0.91989 0.0
C757 C 0.04933 0.4941 0.9607 0.0
C758 C 0.05331 0.4795 0.85106 0.0
C759 C 0.03938 0.50313 0.7046 0.0
H760 H 0.06336 0.47525 0.60961 0.0
C761 C 0.03448 0.49714 0.41243 0.0
C762 C 0.04681 0.49245 0.37786 0.0
C763 C 0.0347 0.49733 0.48129 0.0
C764 C 0.05658 0.48341 0.63398 0.0
H765 H 0.04176 0.52018 0.95499 0.0
H766 H 0.04125 0.51997 0.83845 0.0
H767 H 0.06427 0.47601 0.72578 0.0
H768 H 0.06936 0.48436 0.39516 0.0
H769 H 0.07 0.48494 0.51177 0.0
H770 H 0.03201 0.51091 0.61298 0.0
C771 C 0.04458 0.50822 0.85872 0.0
C772 C 0.05692 0.48362 0.70281 0.0
C773 C 0.04488 0.5084 0.92749 0.0
C774 C 0.05941 0.48801 0.41742 0.0
C775 C 0.05967 0.48824 0.48617 0.0
C776 C 0.03904 0.50293 0.63574 0.0
C777 C 0.04874 0.49373 0.81735 0.0
C778 C 0.04835 0.49349 0.74125 0.0
C779 C 0.04732 0.49288 0.52124 0.0
C780 C 0.04764 0.49307 0.59732 0.0
H781 H 0.05697 0.46809 0.94103 0.0
H782 H 0.05647 0.46765 0.82426 0.0
H783 H 0.03225 0.51086 0.72878 0.0
H784 H 0.02439 0.50068 0.38607 0.0
H785 H 0.02458 0.50081 0.50279 0.0
C786 C 0.57198 0.50655 0.76753 0.0
C787 C 0.55676 0.50599 0.79797 0.0
C788 C 0.57231 0.50685 0.69928 0.0
C789 C 0.54081 0.49966 0.53453 0.0
H790 H 0.58941 0.52155 0.46982 0.0
C791 C 0.54443 0.50825 0.25251 0.0
C792 C 0.55954 0.50848 0.22205 0.0
C793 C 0.54409 0.50804 0.3208 0.0
C794 C 0.57545 0.51504 0.48556 0.0
H795 H 0.5298 0.50538 0.77458 0.0
H796 H 0.53035 0.50609 0.65874 0.0
H797 H 0.58885 0.52096 0.58525 0.0
H798 H 0.5863 0.50865 0.24567 0.0
H799 H 0.58573 0.5081 0.36143 0.0
H800 H 0.52741 0.49377 0.43479 0.0
C801 C 0.54219 0.506 0.68705 0.0
C802 C 0.57512 0.51468 0.55376 0.0
C803 C 0.54188 0.50571 0.75526 0.0
C804 C 0.5743 0.50856 0.26486 0.0
C805 C 0.57398 0.50838 0.33309 0.0
C806 C 0.54114 0.50003 0.46632 0.0
C807 C 0.55743 0.5066 0.65621 0.0
C808 C 0.55778 0.50698 0.58109 0.0
C809 C 0.55885 0.50806 0.36389 0.0
C810 C 0.55847 0.50772 0.439 0.0
H811 H 0.58387 0.50672 0.79665 0.0
H812 H 0.58438 0.50698 0.68041 0.0
H813 H 0.52684 0.49315 0.55025 0.0
H814 H 0.53262 0.50818 0.22331 0.0
H815 H 0.5321 0.50811 0.33969 0.0
C816 C 0.54309 0.03912 0.6947 0.0
C817 C 0.55748 0.05785 0.74378 0.0
C818 C 0.54322 0.03936 0.6264 0.0
C819 C 0.57493 0.07371 0.50164 0.0
H820 H 0.52777 0.03245 0.37628 0.0
C821 C 0.57271 0.07918 0.21676 0.0
C822 C 0.55881 0.06009 0.16762 0.0
C823 C 0.57259 0.07888 0.28503 0.0
C824 C 0.54134 0.0441 0.40951 0.0
H825 H 0.5835 0.09185 0.75397 0.0
H826 H 0.58369 0.09248 0.63789 0.0
H827 H 0.52746 0.03203 0.4919 0.0
H828 H 0.53363 0.0254 0.15732 0.0
H829 H 0.53342 0.02474 0.27352 0.0
H830 H 0.58878 0.08581 0.41915 0.0
C831 C 0.57217 0.0771 0.65143 0.0
C832 C 0.54117 0.04385 0.4778 0.0
C833 C 0.57203 0.07683 0.7197 0.0
C834 C 0.54473 0.04069 0.19163 0.0
C835 C 0.54456 0.04039 0.25989 0.0
C836 C 0.57509 0.07398 0.43336 0.0
C837 C 0.55778 0.05837 0.60192 0.0
C838 C 0.55796 0.05864 0.52671 0.0
C839 C 0.55849 0.05948 0.30938 0.0
C840 C 0.55831 0.05918 0.38451 0.0
H841 H 0.53156 0.02392 0.70894 0.0
H842 H 0.53181 0.02415 0.59275 0.0
H843 H 0.58852 0.08535 0.53475 0.0
H844 H 0.58384 0.09471 0.20262 0.0
H845 H 0.58361 0.09434 0.3188 0.0
C846 C 0.70338 0.85626 0.55155 0.0
C847 C 0.7074 0.84166 0.51054 0.0
C848 C 0.70363 0.85642 0.62034 0.0
C849 C 0.71696 0.83222 0.76649 0.0
H850 H 0.69353 0.86081 0.86167 0.0
C851 C 0.72177 0.8382 0.05862 0.0
C852 C 0.70956 0.84314 0.09322 0.0
C853 C 0.72158 0.83801 0.98977 0.0
C854 C 0.70016 0.85245 0.83723 0.0
H855 H 0.71453 0.81519 0.51592 0.0
H856 H 0.71497 0.81533 0.63246 0.0
H857 H 0.6927 0.86009 0.74554 0.0
H858 H 0.68727 0.85165 0.07599 0.0
H859 H 0.68669 0.85105 0.95937 0.0
H860 H 0.72409 0.8242 0.85802 0.0
C861 C 0.71185 0.82726 0.61233 0.0
C862 C 0.69986 0.85226 0.76843 0.0
C863 C 0.71159 0.82713 0.54357 0.0
C864 C 0.69712 0.8478 0.0537 0.0
C865 C 0.69689 0.84757 0.98496 0.0
C866 C 0.71725 0.8324 0.83532 0.0
C867 C 0.70791 0.84194 0.65385 0.0
C868 C 0.70824 0.84214 0.72992 0.0
C869 C 0.70912 0.84269 0.94986 0.0
C870 C 0.70885 0.84251 0.8738 0.0
H871 H 0.70026 0.86809 0.53062 0.0
H872 H 0.70067 0.86844 0.64726 0.0
H873 H 0.72392 0.82428 0.74224 0.0
H874 H 0.73174 0.83449 0.08495 0.0
H875 H 0.7316 0.83434 0.96825 0.0
C876 C 0.21504 0.84015 0.67729 0.0
C877 C 0.19792 0.8267 0.62904 0.0
C878 C 0.21485 0.84029 0.74592 0.0
C879 C 0.17985 0.81865 0.87528 0.0
H880 H 0.22807 0.84316 0.9952 0.0
C881 C 0.18036 0.82473 0.16597 0.0
C882 C 0.19639 0.82795 0.21011 0.0
C883 C 0.18045 0.82456 0.09722 0.0
C884 C 0.21418 0.83596 0.96368 0.0
H885 H 0.16696 0.80218 0.62126 0.0
H886 H 0.16653 0.8023 0.73744 0.0
H887 H 0.22839 0.84246 0.87949 0.0
H888 H 0.22528 0.83343 0.21022 0.0
H889 H 0.22541 0.83286 0.09394 0.0
H890 H 0.1656 0.81176 0.95941 0.0
C891 C 0.18041 0.81336 0.72319 0.0
C892 C 0.21441 0.8358 0.89508 0.0
C893 C 0.18063 0.81324 0.65463 0.0
C894 C 0.21246 0.83094 0.18026 0.0
C895 C 0.21255 0.83074 0.11168 0.0
C896 C 0.17963 0.81881 0.94391 0.0
C897 C 0.19751 0.82694 0.77195 0.0
C898 C 0.19725 0.82713 0.84778 0.0
C899 C 0.19657 0.82758 0.06704 0.0
C900 C 0.19678 0.82745 0.9912 0.0
H901 H 0.22884 0.85108 0.66217 0.0
H902 H 0.22861 0.85142 0.77864 0.0
H903 H 0.16602 0.8119 0.84385 0.0
H904 H 0.16752 0.82237 0.18459 0.0
H905 H 0.16764 0.82228 0.06793 0.0
C906 C 0.21472 0.29321 0.74419 0.0
C907 C 0.19959 0.27531 0.69498 0.0
C908 C 0.21455 0.29291 0.81247 0.0
C909 C 0.18182 0.26022 0.93744 0.0
H910 H 0.22969 0.29843 0.06204 0.0
C911 C 0.1836 0.25391 0.22183 0.0
C912 C 0.19816 0.27238 0.27117 0.0
C913 C 0.18374 0.2543 0.15359 0.0
C914 C 0.21593 0.28766 1.02903 0.0
H915 H 0.1722 0.24268 0.68464 0.0
H916 H 0.17195 0.24191 0.80062 0.0
H917 H 0.23001 0.29898 0.94648 0.0
H918 H 0.22453 0.3061 0.28173 0.0
H919 H 0.22479 0.30691 0.16559 0.0
H920 H 0.16777 0.24885 1.02013 0.0
C921 C 0.1841 0.25672 0.78723 0.0
C922 C 0.21611 0.28798 0.96076 0.0
C923 C 0.18427 0.25707 0.71898 0.0
C924 C 0.21291 0.29128 0.24731 0.0
C925 C 0.2131 0.29166 0.17907 0.0
C926 C 0.18165 0.25986 1.0057 0.0
C927 C 0.19924 0.27464 0.83686 0.0
C928 C 0.19905 0.27428 0.91208 0.0
C929 C 0.19851 0.27318 0.12941 0.0
C930 C 0.1987 0.27357 0.0543 0.0
H931 H 0.22689 0.30781 0.7301 0.0
H932 H 0.2266 0.3075 0.84617 0.0
H933 H 0.16803 0.24946 0.90459 0.0
H934 H 0.1719 0.2388 0.23574 0.0
H935 H 0.17217 0.2393 0.11967 0.0
C936 C 0.45345 0.18044 0.35826 0.0
C937 C 0.45036 0.18472 0.42156 0.0
C938 C 0.46682 0.19857 0.33088 0.0
C939 C 0.49047 0.23813 0.2681 0.0
H940 H 0.4789 0.28579 0.31564 0.0
C941 C 0.45393 0.25675 0.06874 0.0
C942 C 0.43656 0.25419 0.08553 0.0
C943 C 0.46988 0.26345 0.11729 0.0
C944 C 0.48222 0.27258 0.30128 0.0
H945 H 0.46083 0.21051 0.50949 0.0
H946 H 0.48478 0.24224 0.46254 0.0
H947 H 0.48136 0.26444 0.39615 0.0
H948 H 0.42307 0.25922 0.16526 0.0
H949 H 0.44996 0.26984 0.24892 0.0
H950 H 0.48818 0.24365 0.17092 0.0
C951 C 0.47629 0.2251 0.43269 0.0
C952 C 0.48403 0.26047 0.34823 0.0
C953 C 0.46261 0.20692 0.45981 0.0
C954 C 0.43623 0.26097 0.15068 0.0
C955 C 0.45195 0.26728 0.19908 0.0
C956 C 0.48772 0.24946 0.22045 0.0
C957 C 0.47758 0.22151 0.36632 0.0
C958 C 0.4859 0.24123 0.3301 0.0
C959 C 0.46853 0.26709 0.18359 0.0
C960 C 0.48127 0.2649 0.2352 0.0
H961 H 0.44425 0.1635 0.32757 0.0
H962 H 0.46705 0.19466 0.27972 0.0
H963 H 0.49356 0.22472 0.25357 0.0
H964 H 0.45475 0.25223 1.01847 0.0
H965 H 0.48263 0.26402 0.10289 0.0
C966 C 0.96092 0.23953 0.49996 0.0
C967 C 0.94043 0.22595 0.49261 0.0
C968 C 0.97101 0.23215 0.46325 0.0
C969 C 0.96406 0.18211 0.34526 0.0
H970 H 0.99419 0.22951 0.24712 0.0
C971 C 0.96001 0.18599 0.06896 0.0
C972 C 0.95618 0.16374 1.04508 0.0
C973 C 0.96889 0.19657 0.1334 0.0
C974 C 0.98609 0.2161 0.27456 0.0
H975 H 0.91472 0.1931 0.44539 0.0
H976 H 0.93208 0.18034 0.38191 0.0
H977 H 0.98768 0.24056 0.35176 0.0
H978 H 0.96086 0.13639 0.06748 0.0
H979 H 0.97689 0.15519 0.17943 0.0
H980 H 0.96064 0.15744 0.26552 0.0
C981 C 0.94053 0.19662 0.41601 0.0
C982 C 0.98251 0.22245 0.33497 0.0
C983 C 0.93048 0.20398 0.45249 0.0
C984 C 0.96345 0.15348 0.08457 0.0
C985 C 0.97254 0.16419 0.14893 0.0
C986 C 0.96754 0.17576 0.28488 0.0
C987 C 0.96078 0.21105 0.41875 0.0
C988 C 0.97024 0.20533 0.3686 0.0
C989 C 0.97427 0.18518 0.17518 0.0
C990 C 0.97734 0.19256 0.24672 0.0
H991 H 0.96904 0.25631 0.53192 0.0
H992 H 0.98668 0.24339 0.46754 0.0
H993 H 0.95498 0.16853 0.37078 0.0
H994 H 0.9551 0.19464 1.03899 0.0
H995 H 0.96992 0.21272 0.15161 0.0
C996 C 0.83362 0.69872 0.38091 0.0
C997 C 0.84617 0.69034 0.39307 0.0
C998 C 0.83969 0.71847 0.35277 0.0
C999 C 0.88233 0.76885 0.31071 0.0
H1000 H 0.85161 0.74846 0.13765 0.0
C1001 C 0.91697 0.79133 0.08774 0.0
C1002 C 0.90539 0.7868 1.02768 0.0
C1003 C 0.90909 0.78955 0.14481 0.0
C1004 C 0.8602 0.75513 0.18616 0.0
H1005 H 0.87535 0.69711 0.38724 0.0
H1006 H 0.88596 0.73169 0.34096 0.0
H1007 H 0.83838 0.72629 0.22167 0.0
H1008 H 0.8775 0.77975 0.98014 0.0
H1009 H 0.86403 0.77816 0.08031 0.0
H1010 H 0.90447 0.79731 0.27488 0.0
C1011 C 0.87147 0.72302 0.35344 0.0
C1012 C 0.85252 0.74223 0.23448 0.0
C1013 C 0.86531 0.70309 0.38013 0.0
C1014 C 0.88663 0.7832 1.02618 0.0
C1015 C 0.87888 0.78201 0.08352 0.0
C1016 C 0.88988 0.78208 0.26273 0.0
C1017 C 0.85856 0.7305 0.33769 0.0
C1018 C 0.86399 0.74819 0.29587 0.0
C1019 C 0.88953 0.78354 0.14293 0.0
C1020 C 0.87944 0.7745 0.19855 0.0
H1021 H 0.81894 0.68976 0.39166 0.0
H1022 H 0.82948 0.72394 0.34098 0.0
H1023 H 0.89136 0.7739 0.35811 0.0
H1024 H 0.93143 0.79392 0.08981 0.0
H1025 H 0.91785 0.79073 0.189 0.0
C1026 C 0.17368 0.32549 0.46383 0.0
C1027 C 0.16957 0.30436 0.42774 0.0
C1028 C 0.16513 0.33745 0.44073 0.0
C1029 C 0.13826 0.3395 0.28765 0.0
H1030 H 0.12802 0.37849 0.40589 0.0
C1031 C 0.09075 0.37556 0.20082 0.0
C1032 C 0.09895 0.39968 0.21832 0.0
C1033 C 0.09935 0.36453 0.22944 0.0
C1034 C 0.13091 0.36777 0.37232 0.0
H1035 H 0.15279 0.27913 0.33928 0.0
H1036 H 0.13687 0.29882 0.30159 0.0
H1037 H 0.14237 0.3576 0.44955 0.0
H1038 H 0.12243 0.43077 0.28267 0.0
H1039 H 0.13696 0.41121 0.33437 0.0
H1040 H 0.12612 0.3491 0.21061 0.0
C1041 C 0.14732 0.30684 0.34656 0.0
C1042 C 0.13925 0.35582 0.39727 0.0
C1043 C 0.1562 0.29519 0.36893 0.0
C1044 C 0.11553 0.4122 0.26796 0.0
C1045 C 0.12396 0.40102 0.2975 0.0
C1046 C 0.12962 0.35107 0.2629 0.0
C1047 C 0.15185 0.32839 0.38142 0.0
C1048 C 0.14303 0.34139 0.35531 0.0
C1049 C 0.11618 0.37713 0.27754 0.0
C1050 C 0.12579 0.36531 0.30482 0.0
H1051 H 0.1839 0.33312 0.5094 0.0
H1052 H 0.16934 0.35407 0.46891 0.0
H1053 H 0.14137 0.32924 0.25329 0.0
H1054 H 0.07766 0.36505 0.16448 0.0
H1055 H 0.09278 0.34603 0.21385 0.0
C1056 C 0.58848 0.59079 1.04436 0.0
C1057 C 0.5913 0.57571 0.0783 0.0
C1058 C 0.5993 0.61488 0.06702 0.0
C1059 C 0.62815 0.66024 0.21514 0.0
H1060 H 0.64829 0.70128 0.09123 0.0
C1061 C 0.67837 0.76087 0.2991 0.0
C1062 C 0.67755 0.77538 0.25771 0.0
C1063 C 0.66812 0.73663 0.27855 0.0
C1064 C 0.64255 0.69025 0.12677 0.0
H1065 H 0.60765 0.57453 0.16414 0.0
H1066 H 0.62653 0.61655 0.2037 0.0
H1067 H 0.63012 0.6595 0.05377 0.0
H1068 H 0.66548 0.77539 0.16134 0.0
H1069 H 0.64689 0.73352 0.1268 0.0
H1070 H 0.64015 0.69089 0.28802 0.0
C1071 C 0.61592 0.60967 0.1592 0.0
C1072 C 0.63213 0.6661 0.10506 0.0
C1073 C 0.60521 0.58553 0.13612 0.0
C1074 C 0.66612 0.76487 0.19528 0.0
C1075 C 0.65572 0.74067 0.17492 0.0
C1076 C 0.63839 0.68444 0.23684 0.0
C1077 C 0.6132 0.62477 0.12485 0.0
C1078 C 0.6247 0.65065 0.14877 0.0
C1079 C 0.6566 0.72601 0.21589 0.0
C1080 C 0.64576 0.69996 0.19304 0.0
H1081 H 0.57784 0.58399 0.99994 0.0
H1082 H 0.59651 0.62576 1.03956 0.0
H1083 H 0.62251 0.649 0.25032 0.0
H1084 H 0.68712 0.76828 0.34739 0.0
H1085 H 0.66962 0.7263 0.3116 0.0
C1086 C 0.4336 0.98111 0.06709 0.0
C1087 C 0.4391 1.00276 0.05021 0.0
C1088 C 0.41943 0.97141 0.10659 0.0
C1089 C 0.3956 0.98632 0.2286 0.0
H1090 H 0.35465 0.92147 0.17981 0.0
C1091 C 0.32952 0.94562 0.36258 0.0
C1092 C 0.32184 0.9226 0.37138 0.0
C1093 C 0.34384 0.95541 0.32367 0.0
C1094 C 0.36612 0.93952 0.19486 0.0
H1095 H 0.43426 0.03137 0.06264 0.0
H1096 H 0.40957 0.01448 0.13183 0.0
H1097 H 0.37973 0.93849 0.11257 0.0
H1098 H 0.32348 0.89195 0.34704 0.0
H1099 H 0.34873 0.90908 0.28039 0.0
H1100 H 0.38228 0.98737 0.31141 0.0
C1101 C 0.41622 0.005 0.11443 0.0
C1102 C 0.38049 0.94929 0.15608 0.0
C1103 C 0.43024 0.01459 0.07435 0.0
C1104 C 0.32892 0.90963 0.34058 0.0
C1105 C 0.34337 0.91948 0.30213 0.0
C1106 C 0.38134 0.97651 0.26775 0.0
C1107 C 0.41056 0.98323 0.13073 0.0
C1108 C 0.39538 0.97282 0.17237 0.0
C1109 C 0.35102 0.9425 0.29292 0.0
C1110 C 0.36635 0.95297 0.25139 0.0
H1111 H 0.44002 0.97146 0.04886 0.0
H1112 H 0.41552 0.95471 0.11868 0.0
H1113 H 0.40702 0.00444 0.24297 0.0
H1114 H 0.32418 0.95597 0.38488 0.0
H1115 H 0.34905 0.97301 0.3169 0.0
C1116 C 0.51199 0.0787 0.84856 0.0
C1117 C 0.52556 0.08781 0.90702 0.0
C1118 C 0.49924 0.08661 0.83502 0.0
C1119 C 0.49035 0.13482 0.88606 0.0
H1120 H 0.43836 0.09028 0.79015 0.0
C1121 C 0.43636 0.16311 0.79545 0.0
C1122 C 0.41616 0.14772 0.79119 0.0
C1123 C 0.44977 0.15621 0.81061 0.0
C1124 C 0.45271 0.10301 0.81764 0.0
H1125 H 0.53676 0.11328 0.99596 0.0
H1126 H 0.51441 0.12693 0.97304 0.0
H1127 H 0.46122 0.07788 0.81551 0.0
H1128 H 0.39438 0.1131 0.80185 0.0
H1129 H 0.41762 0.10125 0.83028 0.0
H1130 H 0.48158 0.15978 0.89013 0.0
C1131 C 0.51362 0.11365 0.93714 0.0
C1132 C 0.46606 0.09592 0.83139 0.0
C1133 C 0.52647 0.10575 0.95056 0.0
C1134 C 0.40981 0.12543 0.80456 0.0
C1135 C 0.42322 0.11854 0.82008 0.0
C1136 C 0.47695 0.14189 0.87261 0.0
C1137 C 0.49956 0.10399 0.87943 0.0
C1138 C 0.48519 0.11169 0.8656 0.0
C1139 C 0.44347 0.13373 0.82287 0.0
C1140 C 0.45786 0.12614 0.83798 0.0
H1141 H 0.51104 0.06516 0.81318 0.0
H1142 H 0.48913 0.07905 0.78927 0.0
H1143 H 0.5049 0.14768 0.91191 0.0
H1144 H 0.44184 0.18052 0.78629 0.0
H1145 H 0.46509 0.16846 0.81124 0.0
C1146 C 0.92232 0.25211 0.81023 0.0
C1147 C 0.91235 0.23332 0.84234 0.0
C1148 C 0.93407 0.27489 0.84476 0.0
C1149 C 0.95959 0.31079 1.01168 0.0
H1150 H 0.96292 0.35985 0.92547 0.0
C1151 C 0.00216 0.40906 0.13754 0.0
C1152 C 0.01412 0.42494 0.1003 0.0
C1153 C 0.98915 0.38553 0.10944 0.0
C1154 C 0.96229 0.34641 0.95022 0.0
H1155 H 0.90743 0.2242 0.9373 0.0
H1156 H 0.92761 0.26417 0.9979 0.0
H1157 H 0.94133 0.31959 0.87212 0.0
H1158 H 0.02178 0.42849 1.00434 0.0
H1159 H 0.99898 0.38774 0.95513 0.0
H1160 H 0.9804 0.33799 0.09048 0.0
C1161 C 0.9265 0.26116 0.94554 0.0
C1162 C 0.94991 0.32316 0.91939 0.0
C1163 C 0.9148 0.23814 0.91073 0.0
C1164 C 0.01277 0.41672 1.03441 0.0
C1165 C 0.99958 0.39336 1.00608 0.0
C1166 C 0.97184 0.33414 1.04294 0.0
C1167 C 0.93622 0.28 0.91299 0.0
C1168 C 0.94858 0.30486 0.94885 0.0
C1169 C 0.98759 0.37735 1.04311 0.0
C1170 C 0.97362 0.35232 1.01215 0.0
H1171 H 0.92122 0.2493 0.75781 0.0
H1172 H 0.94165 0.28852 0.81744 0.0
H1173 H 0.95922 0.29745 1.0362 0.0
H1174 H 0.00294 0.41482 0.18855 0.0
H1175 H 0.98008 0.3738 0.13941 0.0
C1176 C 0.83065 0.65529 0.84844 0.0
C1177 C 0.83301 0.63935 0.80769 0.0
C1178 C 0.81325 0.64809 0.87295 0.0
C1179 C 0.76902 0.59658 0.90508 0.0
H1180 H 0.74587 0.63414 0.89223 0.0
C1181 C 0.69111 0.5654 0.96101 0.0
C1182 C 0.68785 0.58209 0.99316 0.0
C1183 C 0.7086 0.57209 0.93734 0.0
C1184 C 0.75219 0.62355 0.89716 0.0
H1185 H 0.81922 0.6031 0.76365 0.0
H1186 H 0.78898 0.59057 0.80659 0.0
H1187 H 0.77715 0.6465 0.85751 0.0
H1188 H 0.70042 0.61909 1.02312 0.0
H1189 H 0.73092 0.63062 0.98431 0.0
H1190 H 0.74425 0.5738 0.94565 0.0
C1191 C 0.80053 0.60866 0.81936 0.0
C1192 C 0.77019 0.63067 0.8771 0.0
C1193 C 0.81785 0.61589 0.79437 0.0
C1194 C 0.70244 0.60565 0.99969 0.0
C1195 C 0.71992 0.61232 0.97645 0.0
C1196 C 0.75109 0.58955 0.92573 0.0
C1197 C 0.79785 0.62473 0.85799 0.0
C1198 C 0.77885 0.61729 0.88076 0.0
C1199 C 0.72337 0.59567 0.94527 0.0
C1200 C 0.74238 0.60292 0.92211 0.0
H1201 H 0.84197 0.67351 0.85948 0.0
H1202 H 0.81177 0.66088 0.90323 0.0
H1203 H 0.77535 0.58596 0.90915 0.0
H1204 H 0.68035 0.54709 0.9554 0.0
H1205 H 0.7105 0.55871 0.91274 0.0
C1206 C 0.89543 0.62655 0.86941 0.0
C1207 C 0.89894 0.63076 0.80655 0.0
C1208 C 0.90428 0.61675 0.90381 0.0
C1209 C 0.93101 0.58535 0.87974 0.0
H1210 H 0.94919 0.60642 0.06585 0.0
C1211 C 0.99091 0.57621 1.02098 0.0
C1212 C 0.98778 0.56837 0.08036 0.0
C1213 C 0.97789 0.58098 0.98779 0.0
C1214 C 0.94398 0.60016 1.01399 0.0
H1215 H 0.91465 0.6282 0.73083 0.0
H1216 H 0.93034 0.61184 0.7906 0.0
H1217 H 0.93083 0.62058 1.00816 0.0
H1218 H 0.96857 0.55925 0.1516 0.0
H1219 H 0.94587 0.56812 0.09404 0.0
H1220 H 0.94498 0.56578 0.88542 0.0
C1221 C 0.92035 0.61534 0.81318 0.0
C1222 C 0.93338 0.60822 0.98079 0.0
C1223 C 0.91138 0.62486 0.77876 0.0
C1224 C 0.97119 0.56508 0.10558 0.0
C1225 C 0.95833 0.57032 0.07296 0.0
C1226 C 0.94183 0.5776 0.91274 0.0
C1227 C 0.91695 0.61107 0.87624 0.0
C1228 C 0.92698 0.6012 0.91291 0.0
C1229 C 0.96162 0.57846 1.01384 0.0
C1230 C 0.94866 0.58513 0.98008 0.0
H1231 H 0.88584 0.63084 0.89193 0.0
H1232 H 0.90107 0.6135 0.95182 0.0
H1233 H 0.92592 0.57897 0.82791 0.0
H1234 H 0.00365 0.57898 1.00069 0.0
H1235 H 0.98092 0.58739 0.94268 0.0
C1236 C 0.50981 0.42786 0.87513 0.0
C1237 C 0.5218 0.43653 0.93692 0.0
C1238 C 0.49686 0.40388 0.85322 0.0
C1239 C 0.46891 0.34854 0.9115 0.0
H1240 H 0.46534 0.31941 0.73725 0.0
C1241 C 0.42074 0.24818 0.82938 0.0
C1242 C 0.41276 0.23828 0.76313 0.0
C1243 C 0.43383 0.27217 0.84966 0.0
C1244 C 0.46574 0.32712 0.78572 0.0
H1245 H 0.52968 0.42645 1.0235 0.0
H1246 H 0.50679 0.38469 0.98601 0.0
H1247 H 0.48816 0.36093 0.77353 0.0
H1248 H 0.4123 0.2465 0.66654 0.0
H1249 H 0.43433 0.28828 0.70168 0.0
H1250 H 0.44611 0.31521 0.92358 0.0
C1251 C 0.5074 0.39649 0.95442 0.0
C1252 C 0.47904 0.3511 0.80671 0.0
C1253 C 0.52063 0.42047 0.97583 0.0
C1254 C 0.41814 0.25334 0.7179 0.0
C1255 C 0.43103 0.27746 0.73832 0.0
C1256 C 0.45535 0.32466 0.89021 0.0
C1257 C 0.49527 0.38781 0.89278 0.0
C1258 C 0.48094 0.36218 0.87009 0.0
C1259 C 0.43929 0.28742 0.80469 0.0
C1260 C 0.45355 0.31333 0.82696 0.0
H1261 H 0.51039 0.43966 0.84357 0.0
H1262 H 0.48775 0.39795 0.80568 0.0
H1263 H 0.46969 0.35646 0.96028 0.0
H1264 H 0.41723 0.2373 0.86595 0.0
H1265 H 0.43996 0.27857 0.90092 0.0
C1266 C 0.82823 0.16977 0.82525 0.0
C1267 C 0.83204 0.15273 0.80019 0.0
C1268 C 0.80964 0.16368 0.83849 0.0
C1269 C 0.76397 0.11551 0.8738 0.0
H1270 H 0.7408 0.14978 0.81662 0.0
C1271 C 0.68497 0.08704 0.90594 0.0
C1272 C 0.68055 0.10423 0.92257 0.0
C1273 C 0.70267 0.09261 0.88556 0.0
C1274 C 0.74707 0.14016 0.8338 0.0
H1275 H 0.81952 0.11576 0.7725 0.0
H1276 H 0.78712 0.10499 0.79684 0.0
H1277 H 0.77324 0.16016 0.79508 0.0
H1278 H 0.69113 0.14073 0.92951 0.0
H1279 H 0.72227 0.15071 0.89532 0.0
H1280 H 0.73827 0.09593 0.9142 0.0
C1281 C 0.79848 0.12317 0.80551 0.0
C1282 C 0.76573 0.14612 0.82122 0.0
C1283 C 0.81706 0.12932 0.79172 0.0
C1284 C 0.694 0.12705 0.91605 0.0
C1285 C 0.71191 0.13273 0.89648 0.0
C1286 C 0.74544 0.10972 0.88703 0.0
C1287 C 0.79441 0.1403 0.82809 0.0
C1288 C 0.77445 0.13386 0.84103 0.0
C1289 C 0.71675 0.11567 0.88233 0.0
C1290 C 0.73659 0.12187 0.86714 0.0
H1291 H 0.83965 0.1879 0.83435 0.0
H1292 H 0.80722 0.17732 0.85715 0.0
H1293 H 0.77031 0.10589 0.89062 0.0
H1294 H 0.67489 0.06929 0.91049 0.0
H1295 H 0.7054 0.07875 0.8734 0.0
C1296 C 0.58345 0.00726 0.97841 0.0
C1297 C 0.5872 0.02826 1.01431 0.0
C1298 C 0.59222 0.99562 1.00221 0.0
C1299 C 0.63507 0.00479 0.10853 0.0
H1300 H 0.60307 0.94059 0.12658 0.0
C1301 C 0.66734 0.96177 0.25721 0.0
C1302 C 0.65943 0.93766 0.24253 0.0
C1303 C 0.65876 0.97221 0.22509 0.0
C1304 C 0.61238 0.95837 0.12082 0.0
H1305 H 0.60302 0.05318 0.10412 0.0
H1306 H 0.61911 0.03361 0.14349 0.0
H1307 H 0.58786 0.95973 0.07751 0.0
H1308 H 0.63628 0.90587 0.17998 0.0
H1309 H 0.62203 0.92418 0.12146 0.0
H1310 H 0.65966 1.00355 0.14956 0.0
C1311 C 0.60927 0.0261 0.09713 0.0
C1312 C 0.60356 0.96937 0.09292 0.0
C1313 C 0.60013 0.0374 0.07421 0.0
C1314 C 0.64298 0.92447 0.19272 0.0
C1315 C 0.63455 0.935 0.1597 0.0
C1316 C 0.64394 0.99371 0.13516 0.0
C1317 C 0.60533 0.00499 0.06168 0.0
C1318 C 0.61477 0.99281 0.0874 0.0
C1319 C 0.64216 0.95905 0.17585 0.0
C1320 C 0.63274 0.97039 0.14294 0.0
H1321 H 0.57356 0.99965 0.93215 0.0
H1322 H 0.58892 0.9794 0.97375 0.0
H1323 H 0.64412 0.02279 0.10411 0.0
H1324 H 0.68024 0.97278 0.294 0.0
H1325 H 0.66504 0.99065 0.24021 0.0
C1326 C 0.16597 0.75015 0.31461 0.0
C1327 C 0.16699 0.7607 0.37766 0.0
C1328 C 0.15482 0.72591 0.29493 0.0
C1329 C 0.13619 0.67125 0.35403 0.0
H1330 H 0.09751 0.64324 0.19613 0.0
C1331 C 0.08664 0.57062 0.27854 0.0
C1332 C 0.07877 0.56044 0.21262 0.0
C1333 C 0.09705 0.59484 0.29889 0.0
C1334 C 0.10848 0.65054 0.23969 0.0
H1335 H 0.157 0.75383 0.46944 0.0
H1336 H 0.13806 0.71138 0.4358 0.0
H1337 H 0.11634 0.68524 0.23035 0.0
H1338 H 0.07597 0.56793 0.11618 0.0
H1339 H 0.09483 0.60995 0.15037 0.0
H1340 H 0.12931 0.63701 0.3624 0.0
C1341 C 0.14577 0.72198 0.40139 0.0
C1342 C 0.1192 0.67481 0.25963 0.0
C1343 C 0.15656 0.7463 0.42059 0.0
C1344 C 0.08175 0.57518 0.16743 0.0
C1345 C 0.0925 0.59945 0.18749 0.0
C1346 C 0.12584 0.64701 0.33336 0.0
C1347 C 0.14468 0.71144 0.33815 0.0
C1348 C 0.13315 0.68551 0.31723 0.0
C1349 C 0.10031 0.60987 0.25382 0.0
C1350 C 0.11165 0.63606 0.27581 0.0
H1351 H 0.17362 0.76068 0.28 0.0
H1352 H 0.15437 0.71843 0.246 0.0
H1353 H 0.14698 0.67891 0.39826 0.0
H1354 H 0.08435 0.5598 0.3149 0.0
H1355 H 0.10219 0.60163 0.35047 0.0
C1356 C 0.43174 0.39144 0.09448 0.0
C1357 C 0.43943 0.41444 0.08538 0.0
C1358 C 0.41754 0.38181 0.13388 0.0
C1359 C 0.37893 0.38738 0.1978 0.0
H1360 H 0.38279 0.35155 0.32313 0.0
C1361 C 0.32539 0.35482 0.38058 0.0
C1362 C 0.31996 0.33329 0.39809 0.0
C1363 C 0.33998 0.36476 0.34267 0.0
C1364 C 0.38127 0.36118 0.28771 0.0
H1365 H 0.43818 0.44534 0.11046 0.0
H1366 H 0.41326 0.42847 0.179 0.0
H1367 H 0.40821 0.36872 0.25712 0.0
H1368 H 0.32524 0.30504 0.38812 0.0
H1369 H 0.35027 0.32196 0.32058 0.0
H1370 H 0.35182 0.37949 0.22697 0.0
C1371 C 0.41826 0.41791 0.15565 0.0
C1372 C 0.39593 0.37112 0.25005 0.0
C1373 C 0.43265 0.42763 0.11689 0.0
C1374 C 0.32927 0.32178 0.37609 0.0
C1375 C 0.34371 0.33158 0.33758 0.0
C1376 C 0.36415 0.37723 0.23492 0.0
C1377 C 0.4105 0.39487 0.16448 0.0
C1378 C 0.39496 0.38438 0.20477 0.0
C1379 C 0.34939 0.35331 0.32063 0.0
C1380 C 0.36511 0.36401 0.28057 0.0
H1381 H 0.43676 0.38089 0.07122 0.0
H1382 H 0.41177 0.36398 0.13938 0.0
H1383 H 0.37762 0.39723 0.16267 0.0
H1384 H 0.31868 0.36428 0.39752 0.0
H1385 H 0.34413 0.38167 0.3318 0.0
C1386 C 0.83244 0.67527 0.58118 0.0
C1387 C 0.85049 0.6904 0.62242 0.0
C1388 C 0.82244 0.68389 0.5476 0.0
C1389 C 0.82858 0.73844 0.49987 0.0
H1390 H 0.77205 0.70301 0.47413 0.0
C1391 C 0.78084 0.76536 0.35208 0.0
C1392 C 0.76282 0.75966 0.37021 0.0
C1393 C 0.79229 0.75774 0.38219 0.0
C1394 C 0.78784 0.7134 0.48157 0.0
H1395 H 0.87208 0.72663 0.66066 0.0
H1396 H 0.85438 0.7416 0.60435 0.0
H1397 H 0.79023 0.68833 0.52765 0.0
H1398 H 0.74307 0.74262 0.43601 0.0
H1399 H 0.7633 0.73039 0.49076 0.0
H1400 H 0.82612 0.76402 0.45627 0.0
C1401 C 0.84813 0.72304 0.59626 0.0
C1402 C 0.79834 0.70469 0.51139 0.0
C1403 C 0.85825 0.71441 0.6292 0.0
C1404 C 0.75686 0.74711 0.42083 0.0
C1405 C 0.7684 0.73986 0.45162 0.0
C1406 C 0.81806 0.74731 0.47067 0.0
C1407 C 0.83003 0.70791 0.555 0.0
C1408 C 0.81888 0.71709 0.52137 0.0
C1409 C 0.78606 0.74451 0.43174 0.0
C1410 C 0.7975 0.73501 0.46157 0.0
H1411 H 0.8261 0.6567 0.57398 0.0
H1412 H 0.80882 0.67161 0.5152 0.0
H1413 H 0.84435 0.74834 0.50526 0.0
H1414 H 0.78565 0.77481 0.31267 0.0
H1415 H 0.80565 0.76155 0.3649 0.0
C1416 C 0.32557 0.08812 0.59885 0.0
C1417 C 0.33676 0.09638 0.66203 0.0
C1418 C 0.31203 0.06427 0.57629 0.0
C1419 C 0.28441 0.00737 0.63412 0.0
H1420 H 0.27716 0.98066 0.45335 0.0
C1421 C 0.24239 0.90756 0.54368 0.0
C1422 C 0.23048 0.89796 0.48173 0.0
C1423 C 0.2545 0.93167 0.56441 0.0
C1424 C 0.27876 0.98779 0.50385 0.0
H1425 H 0.34238 0.08543 0.75033 0.0
H1426 H 0.31905 0.04424 0.7115 0.0
H1427 H 0.29962 0.02222 0.49153 0.0
H1428 H 0.22235 0.90662 0.39276 0.0
H1429 H 0.24321 0.94875 0.42913 0.0
H1430 H 0.26372 0.97292 0.64659 0.0
C1431 C 0.32036 0.05615 0.67941 0.0
C1432 C 0.29173 0.0118 0.52595 0.0
C1433 C 0.33386 0.07998 0.70192 0.0
C1434 C 0.23108 0.91332 0.44106 0.0
C1435 C 0.24327 0.93755 0.46178 0.0
C1436 C 0.27152 0.98339 0.6121 0.0
C1437 C 0.3092 0.04778 0.61604 0.0
C1438 C 0.29491 0.02207 0.59167 0.0
C1439 C 0.25522 0.94717 0.52393 0.0
C1440 C 0.26853 0.97309 0.54665 0.0
H1441 H 0.32732 0.1001 0.56647 0.0
H1442 H 0.30365 0.05882 0.52763 0.0
H1443 H 0.28596 0.01439 0.68467 0.0
H1444 H 0.24242 0.89637 0.57648 0.0
H1445 H 0.26361 0.93813 0.61206 0.0
C1446 C 0.94504 0.20349 0.67306 0.0
C1447 C 0.92695 0.18474 0.63948 0.0
C1448 C 0.96259 0.20724 0.65529 0.0
C1449 C 0.98373 0.1918 0.52186 0.0
H1450 H 0.02848 0.215 0.65838 0.0
C1451 C 0.06367 0.23628 0.47817 0.0
C1452 C 0.07362 0.22479 0.4925 0.0
C1453 C 0.04591 0.23008 0.49878 0.0
C1454 C 0.01608 0.20847 0.61978 0.0
H1455 H 0.91306 0.15569 0.55914 0.0
H1456 H 0.94371 0.16202 0.52788 0.0
H1457 H 0.99699 0.20659 0.68678 0.0
H1458 H 0.07282 0.19855 0.54428 0.0
H1459 H 0.04213 0.18861 0.58328 0.0
H1460 H 0.00304 0.19447 0.4548 0.0
C1461 C 0.94441 0.17402 0.56798 0.0
C1462 C 0.99804 0.20384 0.63588 0.0
C1463 C 0.92677 0.1704 0.58558 0.0
C1464 C 0.06575 0.20788 0.53216 0.0
C1465 C 0.04808 0.20204 0.55419 0.0
C1466 C 0.00184 0.19702 0.50566 0.0
C1467 C 0.96264 0.19224 0.60353 0.0
C1468 C 0.98163 0.1958 0.58696 0.0
C1469 C 0.03775 0.2127 0.53624 0.0
C1470 C 0.01827 0.20558 0.55439 0.0
H1471 H 0.94564 0.21498 0.71453 0.0
H1472 H 0.97617 0.22183 0.68282 0.0
H1473 H 0.97146 0.18516 0.48315 0.0
H1474 H 0.06942 0.24998 0.44996 0.0
H1475 H 0.03847 0.23889 0.48518 0.0
C1476 C 0.31989 0.17125 0.66165 0.0
C1477 C 0.33874 0.1823 0.64539 0.0
C1478 C 0.3067 0.17824 0.64408 0.0
C1479 C 0.30455 0.22839 0.59963 0.0
H1480 H 0.24925 0.18319 0.54404 0.0
C1481 C 0.24666 0.25529 0.58401 0.0
C1482 C 0.23158 0.24489 0.52934 0.0
C1483 C 0.25936 0.24719 0.5958 0.0
C1484 C 0.26464 0.19609 0.55912 0.0
H1485 H 0.35825 0.20941 0.59685 0.0
H1486 H 0.33526 0.2216 0.56602 0.0
H1487 H 0.27203 0.17016 0.5667 0.0
H1488 H 0.21745 0.21662 0.44641 0.0
H1489 H 0.23933 0.20213 0.46774 0.0
H1490 H 0.29717 0.25433 0.59231 0.0
C1491 C 0.3307 0.20753 0.59284 0.0
C1492 C 0.27775 0.1886 0.57274 0.0
C1493 C 0.34387 0.20037 0.60997 0.0
C1494 C 0.22898 0.22529 0.48861 0.0
C1495 C 0.24156 0.21694 0.50096 0.0
C1496 C 0.29143 0.23588 0.58672 0.0
C1497 C 0.31191 0.19664 0.60988 0.0
C1498 C 0.29794 0.20462 0.5934 0.0
C1499 C 0.25719 0.22804 0.55417 0.0
C1500 C 0.27123 0.21987 0.56648 0.0
H1501 H 0.31531 0.15724 0.68874 0.0
H1502 H 0.29254 0.16953 0.65888 0.0
H1503 H 0.31989 0.24133 0.61587 0.0
H1504 H 0.24883 0.26996 0.61776 0.0
H1505 H 0.27085 0.25591 0.63811 0.0
C1506 C 0.75691 0.9268 0.33788 0.0
C1507 C 0.74283 0.91171 0.37176 0.0
C1508 C 0.7694 0.95055 0.36468 0.0
C1509 C 0.77382 0.99733 0.49093 0.0
H1510 H 0.82818 0.0308 0.47065 0.0
C1511 C 0.82941 0.08837 0.64464 0.0
C1512 C 0.84427 0.10509 0.61646 0.0
C1513 C 0.81697 0.06549 0.61112 0.0
C1514 C 0.81297 0.02186 0.47616 0.0
H1515 H 0.73079 0.91002 0.46047 0.0
H1516 H 0.75237 0.95106 0.50705 0.0
H1517 H 0.80703 0.98986 0.42032 0.0
H1518 H 0.85782 0.11047 0.53055 0.0
H1519 H 0.83594 0.0705 0.47135 0.0
H1520 H 0.77971 0.02915 0.54702 0.0
C1521 C 0.75381 0.94476 0.45946 0.0
C1522 C 0.80078 0.99826 0.44718 0.0
C1523 C 0.74142 0.92108 0.43278 0.0
C1524 C 0.84633 0.0982 0.55337 0.0
C1525 C 0.8339 0.07515 0.51976 0.0
C1526 C 0.78598 0.02084 0.51987 0.0
C1527 C 0.768 0.95999 0.4259 0.0
C1528 C 0.78102 0.9855 0.45465 0.0
C1529 C 0.81902 0.05837 0.5482 0.0
C1530 C 0.80583 0.0335 0.51368 0.0
H1531 H 0.7581 0.92031 0.29014 0.0
H1532 H 0.77989 0.9616 0.33667 0.0
H1533 H 0.75865 0.98846 0.49675 0.0
H1534 H 0.82748 0.09291 0.69333 0.0
H1535 H 0.80601 0.0532 0.6355 0.0
C1536 C 0.93865 0.67712 0.63878 0.0
C1537 C 0.92654 0.68592 0.62585 0.0
C1538 C 0.95689 0.68689 0.61903 0.0
C1539 C 0.9851 0.72162 0.50186 0.0
H1540 H 0.02957 0.73082 0.6186 0.0
C1541 C 0.06251 0.7632 0.43236 0.0
C1542 C 0.07287 0.75228 0.44662 0.0
C1543 C 0.04541 0.75748 0.45774 0.0
C1544 C 0.01729 0.72822 0.58512 0.0
H1545 H 0.92359 0.7112 0.58023 0.0
H1546 H 0.95543 0.72822 0.54507 0.0
H1547 H 0.99809 0.71574 0.65444 0.0
H1548 H 0.0739 0.72767 0.50158 0.0
H1549 H 0.04418 0.71752 0.54477 0.0
H1550 H 0.0042 0.73375 0.43213 0.0
C1551 C 0.95092 0.71386 0.57078 0.0
C1552 C 0.99921 0.71954 0.60571 0.0
C1553 C 0.93275 0.70424 0.59122 0.0
C1554 C 0.06615 0.73621 0.48884 0.0
C1555 C 0.04917 0.73056 0.51425 0.0
C1556 C 0.00318 0.73026 0.48117 0.0
C1557 C 0.96332 0.70546 0.58496 0.0
C1558 C 0.9828 0.71583 0.56406 0.0
C1559 C 0.03837 0.74083 0.49838 0.0
C1560 C 0.01949 0.7334 0.5222 0.0
H1561 H 0.9342 0.66302 0.66551 0.0
H1562 H 0.96591 0.67976 0.63001 0.0
H1563 H 0.97274 0.7188 0.46828 0.0
H1564 H 0.06722 0.77559 0.39984 0.0
H1565 H 0.03763 0.76598 0.44508 0.0
loop_
_geom_bond_atom_site_label_1
_geom_bond_atom_site_label_2
_geom_bond_distance
_geom_bond_site_symmetry_2
_ccdc_geom_bond_type
C0 C2 1.422 . S
C0 C4 1.415 . S
C0 N6 1.369 . S
C1 C2 1.421 . S
C1 C3 1.417 . S
C1 C13 1.422 . S
C2 C0 1.422 . S
C2 C1 1.421 . S
C2 N12 1.359 . S
C3 C1 1.417 . S
C3 C5 1.329 . S
C3 H22 0.930 . S
C4 C0 1.415 . S
C4 C5 1.437 . S
C4 C8 1.413 . S
C5 C3 1.329 . S
C5 C4 1.437 . S
C5 H27 0.929 . S
N6 C0 1.369 . S
N6 C7 1.338 . S
N6 Gd11 2.622 . S
C7 N6 1.338 . S
C7 C9 1.378 . S
C7 H19 0.929 . S
C8 C4 1.413 . S
C8 C9 1.348 . S
C8 H24 0.931 . S
C9 C7 1.378 . S
C9 C8 1.348 . S
C9 H25 0.930 1_554 S
Gd10 N30 2.622 . S
Gd10 N37 2.570 . S
Gd10 O44 2.353 1_655 S
Gd10 O45 2.468 . S
Gd10 O46 2.427 . S
Gd10 O48 2.388 1_655 S
Gd10 O49 2.386 . S
Gd10 O53 2.307 1_655 S
Gd10 C63 2.805 . S
Gd11 N6 2.622 . S
Gd11 N12 2.570 . S
Gd11 O43 2.386 . S
Gd11 O47 2.307 . S
Gd11 O50 2.353 . S
Gd11 O51 2.468 . S
Gd11 O52 2.427 . S
Gd11 O54 2.388 . S
Gd11 C75 2.805 . S
N12 C2 1.359 . S
N12 Gd11 2.570 . S
N12 C14 1.343 . S
C13 C1 1.422 . S
C13 C15 1.321 . S
C13 H21 0.931 . S
C14 N12 1.343 . S
C14 C15 1.390 . S
C14 H16 0.931 . S
C15 C13 1.321 . S
C15 C14 1.390 . S
C15 H17 0.930 . S
H16 C14 0.931 . S
H17 C15 0.930 . S
H18 C41 0.931 . S
H19 C7 0.929 . S
H20 C42 0.930 . S
H21 C13 0.931 . S
H22 C3 0.930 . S
H23 C32 0.929 . S
H24 C8 0.931 . S
H25 C9 0.930 1_556 S
H26 C64 0.930 . S
H27 C5 0.929 . S
H28 C33 0.931 . S
H29 C34 0.930 . S
N30 Gd10 2.622 . S
N30 C31 1.369 . S
N30 C32 1.338 . S
C31 N30 1.369 . S
C31 C35 1.415 . S
C31 C38 1.422 . S
C32 H23 0.929 . S
C32 N30 1.338 . S
C32 C34 1.378 . S
C33 H28 0.931 . S
C33 C34 1.348 . S
C33 C35 1.413 . S
C34 H29 0.930 . S
C34 C32 1.378 . S
C34 C33 1.348 . S
C35 C31 1.415 . S
C35 C33 1.413 . S
C35 C65 1.437 . S
H36 C65 0.929 . S
N37 Gd10 2.570 . S
N37 C38 1.359 . S
N37 C41 1.343 1_554 S
C38 C31 1.422 . S
C38 N37 1.359 . S
C38 C40 1.421 . S
C39 C40 1.422 1_556 S
C39 C42 1.321 . S
C39 H66 0.931 . S
C40 C38 1.421 . S
C40 C39 1.422 1_554 S
C40 C64 1.417 . S
C41 H18 0.931 . S
C41 N37 1.343 1_556 S
C41 C42 1.390 . S
C42 H20 0.930 . S
C42 C39 1.321 . S
C42 C41 1.390 . S
O43 Gd11 2.386 . S
O43 C55 1.265 . S
O44 Gd10 2.353 1_455 S
O44 C55 1.242 . S
O45 Gd10 2.468 . S
O45 C63 1.263 . S
O46 Gd10 2.427 . S
O46 C63 1.252 . S
O47 Gd11 2.307 . S
O47 C56 1.261 . S
O48 Gd10 2.388 1_455 S
O48 C56 1.252 . S
O49 Gd10 2.386 . S
O49 C67 1.265 . S
O50 Gd11 2.353 . S
O50 C67 1.242 1_455 S
O51 Gd11 2.468 . S
O51 C75 1.263 . S
O52 Gd11 2.427 . S
O52 C75 1.252 . S
O53 Gd10 2.307 1_455 S
O53 C68 1.261 . S
O54 Gd11 2.388 . S
O54 C68 1.252 . S
C55 O43 1.265 . S
C55 O44 1.242 . S
C56 O47 1.261 . S
C56 O48 1.252 . S
C57 C60 1.394 . S
C57 C62 1.370 . S
C57 C63 1.500 . S
C58 C61 1.383 . S
C58 C62 1.395 . S
C59 C60 1.396 . S
C59 C61 1.365 . S
C59 H76 0.929 . S
C60 C57 1.394 . S
C60 C59 1.396 . S
C60 H77 0.930 . S
C61 C58 1.383 . S
C61 C59 1.365 . S
C61 H78 0.931 . S
C62 C57 1.370 . S
C62 C58 1.395 . S
C62 H79 0.930 . S
C63 Gd10 2.805 . S
C63 O45 1.263 . S
C63 O46 1.252 . S
C63 C57 1.500 . S
C64 H26 0.930 . S
C64 C40 1.417 . S
C64 C65 1.329 . S
C65 C35 1.437 . S
C65 H36 0.929 . S
C65 C64 1.329 . S
H66 C39 0.931 . S
C67 O49 1.265 . S
C67 O50 1.242 1_655 S
C68 O53 1.261 . S
C68 O54 1.252 . S
C69 C72 1.394 . S
C69 C74 1.370 . S
C69 C75 1.500 . S
C70 C73 1.383 . S
C70 C74 1.395 . S
C71 C72 1.396 . S
C71 C73 1.365 . S
C71 H80 0.929 . S
C72 C69 1.394 . S
C72 C71 1.396 . S
C72 H81 0.930 . S
C73 C70 1.383 . S
C73 C71 1.365 . S
C73 H82 0.931 . S
C74 C69 1.370 . S
C74 C70 1.395 . S
C74 H83 0.930 . S
C75 Gd11 2.805 . S
C75 O51 1.263 . S
C75 O52 1.252 . S
C75 C69 1.500 . S
H76 C59 0.929 . S
H77 C60 0.930 . S
H78 C61 0.931 . S
H79 C62 0.930 . S
H80 C71 0.929 . S
H81 C72 0.930 . S
H82 C73 0.931 . S
H83 C74 0.930 . S
C84 C86 1.422 . S
C84 C88 1.415 . S
C84 N90 1.369 . S
C85 C86 1.414 1_556 S
C85 C87 1.409 1_556 S
C85 C97 1.438 . S
C86 C84 1.422 . S
C86 C85 1.414 1_554 S
C86 N96 1.359 . S
C87 C85 1.409 1_554 S
C87 C89 1.329 . S
C87 H106 0.930 . S
C88 C84 1.415 . S
C88 C89 1.437 . S
C88 C92 1.413 . S
C89 C87 1.329 . S
C89 C88 1.437 . S
C89 H111 0.929 . S
N90 C84 1.369 . S
N90 C91 1.338 . S
N90 Gd95 2.622 . S
C91 N90 1.338 . S
C91 C93 1.378 . S
C91 H103 0.929 . S
C92 C88 1.413 . S
C92 C93 1.348 . S
C92 H108 0.931 . S
C93 C91 1.378 . S
C93 C92 1.348 . S
C93 H109 0.930 . S
Gd94 N114 2.622 . S
Gd94 N121 2.570 . S
Gd94 O128 2.353 . S
Gd94 O129 2.468 . S
Gd94 O130 2.427 . S
Gd94 O132 2.388 1_554 S
Gd94 O133 2.386 . S
Gd94 O137 2.307 . S
Gd94 C147 2.805 . S
Gd95 N90 2.622 . S
Gd95 N96 2.570 . S
Gd95 O127 2.386 . S
Gd95 O131 2.307 1_554 S
Gd95 O134 2.353 . S
Gd95 O135 2.468 . S
Gd95 O136 2.427 . S
Gd95 O138 2.388 . S
Gd95 C159 2.805 . S
N96 C86 1.359 . S
N96 Gd95 2.570 . S
N96 C98 1.343 1_554 S
C97 C85 1.438 . S
C97 C99 1.321 . S
C97 H105 0.931 . S
C98 N96 1.343 1_556 S
C98 C99 1.390 . S
C98 H100 0.931 . S
C99 C97 1.321 . S
C99 C98 1.390 . S
C99 H101 0.930 . S
H100 C98 0.931 . S
H101 C99 0.930 . S
H102 C125 0.931 . S
H103 C91 0.929 . S
H104 C126 0.930 . S
H105 C97 0.931 . S
H106 C87 0.930 . S
H107 C116 0.929 . S
H108 C92 0.931 . S
H109 C93 0.930 . S
H110 C148 0.930 . S
H111 C89 0.929 . S
H112 C117 0.931 . S
H113 C118 0.930 . S
N114 Gd94 2.622 . S
N114 C115 1.369 . S
N114 C116 1.338 1_554 S
C115 N114 1.369 . S
C115 C119 1.415 . S
C115 C122 1.422 . S
C116 H107 0.929 . S
C116 N114 1.338 1_556 S
C116 C118 1.378 . S
C117 H112 0.931 . S
C117 C118 1.348 . S
C117 C119 1.413 1_556 S
C118 H113 0.930 . S
C118 C116 1.378 . S
C118 C117 1.348 . S
C119 C115 1.415 . S
C119 C117 1.413 1_554 S
C119 C149 1.437 . S
H120 C149 0.929 . S
N121 Gd94 2.570 . S
N121 C122 1.359 . S
N121 C125 1.343 . S
C122 C115 1.422 . S
C122 N121 1.359 . S
C122 C124 1.421 . S
C123 C124 1.422 . S
C123 C126 1.321 . S
C123 H150 0.931 . S
C124 C122 1.421 . S
C124 C123 1.422 . S
C124 C148 1.417 . S
C125 H102 0.931 . S
C125 N121 1.343 . S
C125 C126 1.390 . S
C126 H104 0.930 . S
C126 C123 1.321 . S
C126 C125 1.390 . S
O127 Gd95 2.386 . S
O127 C139 1.265 . S
O128 Gd94 2.353 . S
O128 C139 1.242 . S
O129 Gd94 2.468 . S
O129 C147 1.263 . S
O130 Gd94 2.427 . S
O130 C147 1.252 . S
O131 Gd95 2.307 1_556 S
O131 C140 1.261 . S
O132 Gd94 2.388 1_556 S
O132 C140 1.252 . S
O133 Gd94 2.386 . S
O133 C151 1.265 . S
O134 Gd95 2.353 . S
O134 C151 1.242 . S
O135 Gd95 2.468 . S
O135 C159 1.263 . S
O136 Gd95 2.427 . S
O136 C159 1.252 . S
O137 Gd94 2.307 . S
O137 C152 1.261 . S
O138 Gd95 2.388 . S
O138 C152 1.252 . S
C139 O127 1.265 . S
C139 O128 1.242 . S
C140 O131 1.261 . S
C140 O132 1.252 . S
C141 C144 1.394 . S
C141 C146 1.370 . S
C141 C147 1.500 . S
C142 C145 1.383 . S
C142 C146 1.395 . S
C143 C144 1.396 . S
C143 C145 1.365 . S
C143 H160 0.929 1_554 S
C144 C141 1.394 . S
C144 C143 1.396 . S
C144 H161 0.930 1_554 S
C145 C142 1.383 . S
C145 C143 1.365 . S
C145 H162 0.931 . S
C146 C141 1.370 . S
C146 C142 1.395 . S
C146 H163 0.930 . S
C147 Gd94 2.805 . S
C147 O129 1.263 . S
C147 O130 1.252 . S
C147 C141 1.500 . S
C148 H110 0.930 . S
C148 C124 1.417 . S
C148 C149 1.329 . S
C149 C119 1.437 . S
C149 H120 0.929 . S
C149 C148 1.329 . S
H150 C123 0.931 . S
C151 O133 1.265 . S
C151 O134 1.242 . S
C152 O137 1.261 . S
C152 O138 1.252 . S
C153 C156 1.394 . S
C153 C158 1.370 . S
C153 C159 1.500 . S
C154 C157 1.383 . S
C154 C158 1.395 . S
C155 C156 1.396 . S
C155 C157 1.365 . S
C155 H164 0.929 . S
C156 C153 1.394 . S
C156 C155 1.396 . S
C156 H165 0.930 . S
C157 C154 1.383 . S
C157 C155 1.365 . S
C157 H166 0.931 . S
C158 C153 1.370 . S
C158 C154 1.395 . S
C158 H167 0.930 1_554 S
C159 Gd95 2.805 . S
C159 O135 1.263 . S
C159 O136 1.252 . S
C159 C153 1.500 . S
H160 C143 0.929 1_556 S
H161 C144 0.930 1_556 S
H162 C145 0.931 . S
H163 C146 0.930 . S
H164 C155 0.929 . S
H165 C156 0.930 . S
H166 C157 0.931 . S
H167 C158 0.930 1_556 S
C168 C170 1.422 1_556 S
C168 C172 1.415 . S
C168 N174 1.369 . S
C169 C170 1.421 . S
C169 C171 1.417 1_554 S
C169 C181 1.422 . S
C170 C168 1.422 1_554 S
C170 C169 1.421 . S
C170 N180 1.333 1_565 S
C171 C169 1.417 1_556 S
C171 C173 1.329 . S
C171 H190 0.930 1_556 S
C172 C168 1.415 . S
C172 C173 1.437 . S
C172 C176 1.413 . S
C173 C171 1.329 . S
C173 C172 1.437 . S
C173 H195 0.929 . S
N174 C168 1.369 . S
N174 C175 1.338 . S
N174 Gd179 2.622 1_565 S
C175 N174 1.338 . S
C175 C177 1.378 . S
C175 H187 0.929 1_565 S
C176 C172 1.413 . S
C176 C177 1.348 . S
C176 H192 0.931 . S
C177 C175 1.378 . S
C177 C176 1.348 . S
C177 H193 0.930 . S
Gd178 N198 2.622 . S
Gd178 N205 2.570 1_554 S
Gd178 O212 2.353 . S
Gd178 O213 2.468 1_554 S
Gd178 O214 2.427 . S
Gd178 O216 2.388 . S
Gd178 O217 2.386 . S
Gd178 O221 2.307 1_554 S
Gd178 C231 2.805 . S
Gd179 N174 2.622 1_545 S
Gd179 N180 2.597 1_556 S
Gd179 O211 2.386 . S
Gd179 O215 2.307 1_556 S
Gd179 O218 2.353 . S
Gd179 O219 2.468 1_556 S
Gd179 O220 2.427 . S
Gd179 O222 2.388 . S
Gd179 C243 2.801 1_556 S
N180 C170 1.333 1_545 S
N180 Gd179 2.597 1_554 S
N180 C182 1.340 . S
C181 C169 1.422 . S
C181 C183 1.321 . S
C181 H189 0.931 . S
C182 N180 1.340 . S
C182 C183 1.390 1_545 S
C182 H184 0.931 . S
C183 C181 1.321 . S
C183 C182 1.390 1_565 S
C183 H185 0.930 . S
H184 C182 0.931 . S
H185 C183 0.930 . S
H186 C209 0.931 . S
H187 C175 0.929 1_545 S
H188 C210 0.930 . S
H189 C181 0.931 . S
H190 C171 0.930 1_554 S
H191 C200 0.929 . S
H192 C176 0.931 . S
H193 C177 0.930 . S
H194 C232 0.930 . S
H195 C173 0.929 . S
H196 C201 0.931 . S
H197 C202 0.930 . S
N198 Gd178 2.622 . S
N198 C199 1.369 . S
N198 C200 1.338 . S
C199 N198 1.369 . S
C199 C203 1.415 . S
C199 C206 1.422 . S
C200 H191 0.929 . S
C200 N198 1.338 . S
C200 C202 1.378 . S
C201 H196 0.931 . S
C201 C202 1.348 . S
C201 C203 1.413 . S
C202 H197 0.930 . S
C202 C200 1.378 . S
C202 C201 1.348 . S
C203 C199 1.415 . S
C203 C201 1.413 . S
C203 C233 1.437 . S
H204 C233 0.929 . S
N205 Gd178 2.570 1_556 S
N205 C206 1.359 1_556 S
N205 C209 1.343 . S
C206 C199 1.422 . S
C206 N205 1.359 1_554 S
C206 C208 1.421 1_554 S
C207 C208 1.422 . S
C207 C210 1.321 . S
C207 H234 0.931 . S
C208 C206 1.421 1_556 S
C208 C207 1.422 . S
C208 C232 1.417 1_556 S
C209 H186 0.931 . S
C209 N205 1.343 . S
C209 C210 1.390 . S
C210 H188 0.930 . S
C210 C207 1.321 . S
C210 C209 1.390 . S
O211 Gd179 2.386 . S
O211 C223 1.265 1_556 S
O212 Gd178 2.353 . S
O212 C223 1.242 . S
O213 Gd178 2.468 1_556 S
O213 C231 1.263 1_556 S
O214 Gd178 2.427 . S
O214 C231 1.252 . S
O215 Gd179 2.307 1_554 S
O215 C224 1.261 . S
O216 Gd178 2.388 . S
O216 C224 1.252 . S
O217 Gd178 2.386 . S
O217 C235 1.265 . S
O218 Gd179 2.353 . S
O218 C235 1.242 1_556 S
O219 Gd179 2.468 1_554 S
O219 C243 1.276 . S
O220 Gd179 2.427 . S
O220 C243 1.236 1_556 S
O221 Gd178 2.307 1_556 S
O221 C236 1.261 . S
O222 Gd179 2.388 . S
O222 C236 1.252 . S
C223 O211 1.265 1_554 S
C223 O212 1.242 . S
C224 O215 1.261 . S
C224 O216 1.252 . S
C225 C228 1.394 . S
C225 C230 1.370 1_554 S
C225 C231 1.500 . S
C226 C229 1.383 1_556 S
C226 C230 1.395 . S
C227 C228 1.396 . S
C227 C229 1.365 . S
C227 H244 0.929 . S
C228 C225 1.394 . S
C228 C227 1.396 . S
C228 H245 0.930 . S
C229 C226 1.383 1_554 S
C229 C227 1.365 . S
C229 H246 0.931 . S
C230 C225 1.370 1_556 S
C230 C226 1.395 . S
C230 H247 0.930 . S
C231 Gd178 2.805 . S
C231 O213 1.263 1_554 S
C231 O214 1.252 . S
C231 C225 1.500 . S
C232 H194 0.930 . S
C232 C208 1.417 1_554 S
C232 C233 1.329 . S
C233 C203 1.437 . S
C233 H204 0.929 . S
C233 C232 1.329 . S
H234 C207 0.931 . S
C235 O217 1.265 . S
C235 O218 1.242 1_554 S
C236 O221 1.261 . S
C236 O222 1.252 . S
C237 C240 1.394 1_544 S
C237 C242 1.370 . S
C237 C243 1.505 . S
C238 C241 1.383 1_545 S
C238 C242 1.395 . S
C239 C240 1.396 . S
C239 C241 1.365 1_556 S
C239 H248 0.929 . S
C240 C237 1.394 1_566 S
C240 C239 1.396 . S
C240 H249 0.930 . S
C241 C238 1.383 1_565 S
C241 C239 1.365 1_554 S
C241 H250 0.931 . S
C242 C237 1.370 . S
C242 C238 1.395 . S
C242 H251 0.930 . S
C243 Gd179 2.801 1_554 S
C243 O219 1.276 . S
C243 O220 1.236 1_554 S
C243 C237 1.505 . S
H244 C227 0.929 . S
H245 C228 0.930 . S
H246 C229 0.931 . S
H247 C230 0.930 . S
H248 C239 0.929 . S
H249 C240 0.930 . S
H250 C241 0.931 . S
H251 C242 0.930 . S
C252 C254 1.422 . S
C252 C256 1.415 . S
C252 N258 1.369 . S
C253 C254 1.421 . S
C253 C255 1.417 . S
C253 C265 1.422 . S
C254 C252 1.422 . S
C254 C253 1.421 . S
C254 N264 1.359 . S
C255 C253 1.417 . S
C255 C257 1.329 . S
C255 H274 0.930 . S
C256 C252 1.415 . S
C256 C257 1.437 . S
C256 C260 1.413 . S
C257 C255 1.329 . S
C257 C256 1.437 . S
C257 H279 0.929 . S
N258 C252 1.369 . S
N258 C259 1.338 . S
N258 Gd263 2.622 . S
C259 N258 1.338 . S
C259 C261 1.378 . S
C259 H271 0.929 . S
C260 C256 1.413 . S
C260 C261 1.348 . S
C260 H276 0.931 . S
C261 C259 1.378 . S
C261 C260 1.348 . S
C261 H277 0.930 . S
Gd262 N282 2.622 . S
Gd262 N289 2.570 . S
Gd262 O296 2.353 . S
Gd262 O297 2.468 . S
Gd262 O298 2.427 . S
Gd262 O300 2.388 . S
Gd262 O301 2.386 . S
Gd262 O305 2.307 . S
Gd262 C315 2.805 . S
Gd263 N258 2.622 . S
Gd263 N264 2.570 . S
Gd263 O295 2.386 . S
Gd263 O299 2.307 . S
Gd263 O302 2.353 . S
Gd263 O303 2.468 . S
Gd263 O304 2.427 . S
Gd263 O306 2.388 . S
Gd263 C327 2.805 . S
N264 C254 1.359 . S
N264 Gd263 2.570 . S
N264 C266 1.343 . S
C265 C253 1.422 . S
C265 C267 1.321 . S
C265 H273 0.931 . S
C266 N264 1.343 . S
C266 C267 1.390 . S
C266 H268 0.931 . S
C267 C265 1.321 . S
C267 C266 1.390 . S
C267 H269 0.930 . S
H268 C266 0.931 . S
H269 C267 0.930 . S
H270 C293 0.931 . S
H271 C259 0.929 . S
H272 C294 0.930 1_556 S
H273 C265 0.931 . S
H274 C255 0.930 . S
H275 C284 0.929 . S
H276 C260 0.931 . S
H277 C261 0.930 . S
H278 C316 0.930 . S
H279 C257 0.929 . S
H280 C285 0.931 . S
H281 C286 0.930 . S
N282 Gd262 2.622 . S
N282 C283 1.369 . S
N282 C284 1.338 . S
C283 N282 1.369 . S
C283 C287 1.415 . S
C283 C290 1.422 . S
C284 H275 0.929 . S
C284 N282 1.338 . S
C284 C286 1.378 . S
C285 H280 0.931 . S
C285 C286 1.348 . S
C285 C287 1.413 . S
C286 H281 0.930 . S
C286 C284 1.378 . S
C286 C285 1.348 . S
C287 C283 1.415 . S
C287 C285 1.413 . S
C287 C317 1.437 . S
H288 C317 0.929 . S
N289 Gd262 2.570 . S
N289 C290 1.359 . S
N289 C293 1.343 . S
C290 C283 1.422 . S
C290 N289 1.359 . S
C290 C292 1.421 . S
C291 C292 1.422 . S
C291 C294 1.321 . S
C291 H318 0.931 . S
C292 C290 1.421 . S
C292 C291 1.422 . S
C292 C316 1.417 . S
C293 H270 0.931 . S
C293 N289 1.343 . S
C293 C294 1.390 . S
C294 H272 0.930 1_554 S
C294 C291 1.321 . S
C294 C293 1.390 . S
O295 Gd263 2.386 . S
O295 C307 1.265 . S
O296 Gd262 2.353 . S
O296 C307 1.242 . S
O297 Gd262 2.468 . S
O297 C315 1.263 . S
O298 Gd262 2.427 . S
O298 C315 1.252 . S
O299 Gd263 2.307 . S
O299 C308 1.261 . S
O300 Gd262 2.388 . S
O300 C308 1.252 . S
O301 Gd262 2.386 . S
O301 C319 1.265 . S
O302 Gd263 2.353 . S
O302 C319 1.242 . S
O303 Gd263 2.468 . S
O303 C327 1.263 . S
O304 Gd263 2.427 . S
O304 C327 1.252 . S
O305 Gd262 2.307 . S
O305 C320 1.261 . S
O306 Gd263 2.388 . S
O306 C320 1.252 . S
C307 O295 1.265 . S
C307 O296 1.242 . S
C308 O299 1.261 . S
C308 O300 1.252 . S
C309 C312 1.394 . S
C309 C314 1.370 . S
C309 C315 1.500 . S
C310 C313 1.383 . S
C310 C314 1.395 . S
C311 C312 1.396 . S
C311 C313 1.365 . S
C311 H328 0.929 . S
C312 C309 1.394 . S
C312 C311 1.396 . S
C312 H329 0.930 . S
C313 C310 1.383 . S
C313 C311 1.365 . S
C313 H330 0.931 . S
C314 C309 1.370 . S
C314 C310 1.395 . S
C314 H331 0.930 . S
C315 Gd262 2.805 . S
C315 O297 1.263 . S
C315 O298 1.252 . S
C315 C309 1.500 . S
C316 H278 0.930 . S
C316 C292 1.417 . S
C316 C317 1.329 . S
C317 C287 1.437 . S
C317 H288 0.929 . S
C317 C316 1.329 . S
H318 C291 0.931 . S
C319 O301 1.265 . S
C319 O302 1.242 . S
C320 O305 1.261 . S
C320 O306 1.252 . S
C321 C324 1.394 . S
C321 C326 1.370 . S
C321 C327 1.500 . S
C322 C325 1.383 . S
C322 C326 1.395 . S
C323 C324 1.396 . S
C323 C325 1.365 . S
C323 H332 0.929 . S
C324 C321 1.394 . S
C324 C323 1.396 . S
C324 H333 0.930 . S
C325 C322 1.383 . S
C325 C323 1.365 . S
C325 H334 0.931 . S
C326 C321 1.370 . S
C326 C322 1.395 . S
C326 H335 0.930 . S
C327 Gd263 2.805 . S
C327 O303 1.263 . S
C327 O304 1.252 . S
C327 C321 1.500 . S
H328 C311 0.929 . S
H329 C312 0.930 . S
H330 C313 0.931 . S
H331 C314 0.930 . S
H332 C323 0.929 . S
H333 C324 0.930 . S
H334 C325 0.931 . S
H335 C326 0.930 . S
C336 C338 1.422 . S
C336 C340 1.415 . S
C336 N342 1.369 . S
C337 C338 1.421 . S
C337 C339 1.417 . S
C337 C349 1.422 . S
C338 C336 1.422 . S
C338 C337 1.421 . S
C338 N348 1.359 . S
C339 C337 1.417 . S
C339 C341 1.329 . S
C339 H358 0.930 . S
C340 C336 1.415 . S
C340 C341 1.437 . S
C340 C344 1.413 . S
C341 C339 1.329 . S
C341 C340 1.437 . S
C341 H363 0.929 . S
N342 C336 1.369 . S
N342 C343 1.338 . S
N342 Gd347 2.622 . S
C343 N342 1.338 . S
C343 C345 1.378 . S
C343 H355 0.929 . S
C344 C340 1.413 . S
C344 C345 1.348 . S
C344 H360 0.931 . S
C345 C343 1.378 . S
C345 C344 1.348 . S
C345 H361 0.930 . S
Gd346 N366 2.622 . S
Gd346 N373 2.570 . S
Gd346 O380 2.353 . S
Gd346 O381 2.468 . S
Gd346 O382 2.427 . S
Gd346 O384 2.388 . S
Gd346 O385 2.386 . S
Gd346 O389 2.307 . S
Gd346 C399 2.805 . S
Gd347 N342 2.622 . S
Gd347 N348 2.570 . S
Gd347 O379 2.386 . S
Gd347 O383 2.307 . S
Gd347 O386 2.353 . S
Gd347 O387 2.468 . S
Gd347 O388 2.427 . S
Gd347 O390 2.388 . S
Gd347 C411 2.805 . S
N348 C338 1.359 . S
N348 Gd347 2.570 . S
N348 C350 1.343 . S
C349 C337 1.422 . S
C349 C351 1.321 . S
C349 H357 0.931 . S
C350 N348 1.343 . S
C350 C351 1.390 . S
C350 H352 0.931 . S
C351 C349 1.321 . S
C351 C350 1.390 . S
C351 H353 0.930 . S
H352 C350 0.931 . S
H353 C351 0.930 . S
H354 C377 0.931 . S
H355 C343 0.929 . S
H356 C378 0.930 . S
H357 C349 0.931 . S
H358 C339 0.930 . S
H359 C368 0.929 . S
H360 C344 0.931 . S
H361 C345 0.930 . S
H362 C400 0.930 . S
H363 C341 0.929 . S
H364 C369 0.931 . S
H365 C370 0.930 . S
N366 Gd346 2.622 . S
N366 C367 1.369 . S
N366 C368 1.338 . S
C367 N366 1.369 . S
C367 C371 1.415 . S
C367 C374 1.422 . S
C368 H359 0.929 . S
C368 N366 1.338 . S
C368 C370 1.378 . S
C369 H364 0.931 . S
C369 C370 1.348 . S
C369 C371 1.413 . S
C370 H365 0.930 . S
C370 C368 1.378 . S
C370 C369 1.348 . S
C371 C367 1.415 . S
C371 C369 1.413 . S
C371 C401 1.437 . S
H372 C401 0.929 . S
N373 Gd346 2.570 . S
N373 C374 1.359 . S
N373 C377 1.343 . S
C374 C367 1.422 . S
C374 N373 1.359 . S
C374 C376 1.421 . S
C375 C376 1.422 . S
C375 C378 1.321 . S
C375 H402 0.931 . S
C376 C374 1.421 . S
C376 C375 1.422 . S
C376 C400 1.417 . S
C377 H354 0.931 . S
C377 N373 1.343 . S
C377 C378 1.390 . S
C378 H356 0.930 . S
C378 C375 1.321 . S
C378 C377 1.390 . S
O379 Gd347 2.386 . S
O379 C391 1.265 . S
O380 Gd346 2.353 . S
O380 C391 1.242 . S
O381 Gd346 2.468 . S
O381 C399 1.263 . S
O382 Gd346 2.427 . S
O382 C399 1.252 . S
O383 Gd347 2.307 . S
O383 C392 1.261 . S
O384 Gd346 2.388 . S
O384 C392 1.252 . S
O385 Gd346 2.386 . S
O385 C403 1.265 . S
O386 Gd347 2.353 . S
O386 C403 1.242 . S
O387 Gd347 2.468 . S
O387 C411 1.263 . S
O388 Gd347 2.427 . S
O388 C411 1.252 . S
O389 Gd346 2.307 . S
O389 C404 1.261 . S
O390 Gd347 2.388 . S
O390 C404 1.252 . S
C391 O379 1.265 . S
C391 O380 1.242 . S
C392 O383 1.261 . S
C392 O384 1.252 . S
C393 C396 1.394 . S
C393 C398 1.370 . S
C393 C399 1.500 . S
C394 C397 1.383 . S
C394 C398 1.395 . S
C395 C396 1.396 . S
C395 C397 1.365 . S
C395 H412 0.929 . S
C396 C393 1.394 . S
C396 C395 1.396 . S
C396 H413 0.930 . S
C397 C394 1.383 . S
C397 C395 1.365 . S
C397 H414 0.931 . S
C398 C393 1.370 . S
C398 C394 1.395 . S
C398 H415 0.930 . S
C399 Gd346 2.805 . S
C399 O381 1.263 . S
C399 O382 1.252 . S
C399 C393 1.500 . S
C400 H362 0.930 . S
C400 C376 1.417 . S
C400 C401 1.329 . S
C401 C371 1.437 . S
C401 H372 0.929 . S
C401 C400 1.329 . S
H402 C375 0.931 . S
C403 O385 1.265 . S
C403 O386 1.242 . S
C404 O389 1.261 . S
C404 O390 1.252 . S
C405 C408 1.394 . S
C405 C410 1.370 . S
C405 C411 1.500 . S
C406 C409 1.383 . S
C406 C410 1.395 . S
C407 C408 1.396 . S
C407 C409 1.365 . S
C407 H416 0.929 . S
C408 C405 1.394 . S
C408 C407 1.396 . S
C408 H417 0.930 . S
C409 C406 1.383 . S
C409 C407 1.365 . S
C409 H418 0.931 . S
C410 C405 1.370 . S
C410 C406 1.395 . S
C410 H419 0.930 . S
C411 Gd347 2.805 . S
C411 O387 1.263 . S
C411 O388 1.252 . S
C411 C405 1.500 . S
H412 C395 0.929 . S
H413 C396 0.930 . S
H414 C397 0.931 . S
H415 C398 0.930 . S
H416 C407 0.929 . S
H417 C408 0.930 . S
H418 C409 0.931 . S
H419 C410 0.930 . S
C420 C422 1.422 . S
C420 C424 1.415 . S
C420 N426 1.369 . S
C421 C422 1.421 . S
C421 C423 1.417 . S
C421 C433 1.422 . S
C422 C420 1.422 . S
C422 C421 1.421 . S
C422 N432 1.359 . S
C423 C421 1.417 . S
C423 C425 1.329 . S
C423 H442 0.930 . S
C424 C420 1.415 . S
C424 C425 1.437 . S
C424 C428 1.413 . S
C425 C423 1.329 . S
C425 C424 1.437 . S
C425 H447 0.929 . S
N426 C420 1.369 . S
N426 C427 1.338 . S
N426 Gd431 2.622 . S
C427 N426 1.338 . S
C427 C429 1.378 . S
C427 H439 0.929 . S
C428 C424 1.413 . S
C428 C429 1.348 . S
C428 H444 0.931 . S
C429 C427 1.378 . S
C429 C428 1.348 . S
C429 H445 0.930 . S
Gd430 N450 2.622 . S
Gd430 N457 2.570 . S
Gd430 O464 2.353 . S
Gd430 O465 2.468 . S
Gd430 O466 2.427 . S
Gd430 O468 2.388 . S
Gd430 O469 2.386 . S
Gd430 O473 2.307 . S
Gd430 C483 2.805 . S
Gd431 N426 2.622 . S
Gd431 N432 2.570 . S
Gd431 O463 2.386 . S
Gd431 O467 2.307 . S
Gd431 O470 2.353 . S
Gd431 O471 2.468 . S
Gd431 O472 2.427 . S
Gd431 O474 2.388 . S
Gd431 C495 2.805 . S
N432 C422 1.359 . S
N432 Gd431 2.570 . S
N432 C434 1.343 . S
C433 C421 1.422 . S
C433 C435 1.321 . S
C433 H441 0.931 . S
C434 N432 1.343 . S
C434 C435 1.390 . S
C434 H436 0.931 . S
C435 C433 1.321 . S
C435 C434 1.390 . S
C435 H437 0.930 . S
H436 C434 0.931 . S
H437 C435 0.930 . S
H438 C461 0.931 . S
H439 C427 0.929 . S
H440 C462 0.930 . S
H441 C433 0.931 . S
H442 C423 0.930 . S
H443 C452 0.929 . S
H444 C428 0.931 . S
H445 C429 0.930 . S
H446 C484 0.930 . S
H447 C425 0.929 . S
H448 C453 0.931 . S
H449 C454 0.930 . S
N450 Gd430 2.622 . S
N450 C451 1.369 . S
N450 C452 1.338 . S
C451 N450 1.369 . S
C451 C455 1.415 . S
C451 C458 1.422 . S
C452 H443 0.929 . S
C452 N450 1.338 . S
C452 C454 1.378 . S
C453 H448 0.931 . S
C453 C454 1.348 . S
C453 C455 1.413 . S
C454 H449 0.930 . S
C454 C452 1.378 . S
C454 C453 1.348 . S
C455 C451 1.415 . S
C455 C453 1.413 . S
C455 C485 1.437 . S
H456 C485 0.929 . S
N457 Gd430 2.570 . S
N457 C458 1.359 . S
N457 C461 1.343 . S
C458 C451 1.422 . S
C458 N457 1.359 . S
C458 C460 1.421 . S
C459 C460 1.422 . S
C459 C462 1.321 . S
C459 H486 0.931 . S
C460 C458 1.421 . S
C460 C459 1.422 . S
C460 C484 1.417 . S
C461 H438 0.931 . S
C461 N457 1.343 . S
C461 C462 1.390 . S
C462 H440 0.930 . S
C462 C459 1.321 . S
C462 C461 1.390 . S
O463 Gd431 2.386 . S
O463 C475 1.265 . S
O464 Gd430 2.353 . S
O464 C475 1.242 . S
O465 Gd430 2.468 . S
O465 C483 1.263 . S
O466 Gd430 2.427 . S
O466 C483 1.252 . S
O467 Gd431 2.307 . S
O467 C476 1.261 . S
O468 Gd430 2.388 . S
O468 C476 1.252 . S
O469 Gd430 2.386 . S
O469 C487 1.265 . S
O470 Gd431 2.353 . S
O470 C487 1.242 . S
O471 Gd431 2.468 . S
O471 C495 1.263 . S
O472 Gd431 2.427 . S
O472 C495 1.252 . S
O473 Gd430 2.307 . S
O473 C488 1.261 . S
O474 Gd431 2.388 . S
O474 C488 1.252 . S
C475 O463 1.265 . S
C475 O464 1.242 . S
C476 O467 1.261 . S
C476 O468 1.252 . S
C477 C480 1.394 . S
C477 C482 1.370 . S
C477 C483 1.500 . S
C478 C481 1.383 . S
C478 C482 1.395 . S
C479 C480 1.396 . S
C479 C481 1.365 . S
C479 H496 0.929 . S
C480 C477 1.394 . S
C480 C479 1.396 . S
C480 H497 0.930 . S
C481 C478 1.383 . S
C481 C479 1.365 . S
C481 H498 0.931 . S
C482 C477 1.370 . S
C482 C478 1.395 . S
C482 H499 0.930 . S
C483 Gd430 2.805 . S
C483 O465 1.263 . S
C483 O466 1.252 . S
C483 C477 1.500 . S
C484 H446 0.930 . S
C484 C460 1.417 . S
C484 C485 1.329 . S
C485 C455 1.437 . S
C485 H456 0.929 . S
C485 C484 1.329 . S
H486 C459 0.931 . S
C487 O469 1.265 . S
C487 O470 1.242 . S
C488 O473 1.261 . S
C488 O474 1.252 . S
C489 C492 1.394 . S
C489 C494 1.370 . S
C489 C495 1.500 . S
C490 C493 1.383 . S
C490 C494 1.395 . S
C491 C492 1.396 . S
C491 C493 1.365 . S
C491 H500 0.929 . S
C492 C489 1.394 . S
C492 C491 1.396 . S
C492 H501 0.930 . S
C493 C490 1.383 . S
C493 C491 1.365 . S
C493 H502 0.931 . S
C494 C489 1.370 . S
C494 C490 1.395 . S
C494 H503 0.930 . S
C495 Gd431 2.805 . S
C495 O471 1.263 . S
C495 O472 1.252 . S
C495 C489 1.500 . S
H496 C479 0.929 . S
H497 C480 0.930 . S
H498 C481 0.931 . S
H499 C482 0.930 . S
H500 C491 0.929 . S
H501 C492 0.930 . S
H502 C493 0.931 . S
H503 C494 0.930 . S
C504 C506 1.422 . S
C504 C508 1.415 . S
C504 N510 1.369 . S
C505 C506 1.421 . S
C505 C507 1.417 . S
C505 C517 1.422 . S
C506 C504 1.422 . S
C506 C505 1.421 . S
C506 N516 1.359 . S
C507 C505 1.417 . S
C507 C509 1.329 . S
C507 H526 0.930 . S
C508 C504 1.415 . S
C508 C509 1.437 . S
C508 C512 1.413 . S
C509 C507 1.329 . S
C509 C508 1.437 . S
C509 H531 0.929 . S
N510 C504 1.369 . S
N510 C511 1.338 . S
N510 Gd515 2.622 . S
C511 N510 1.338 . S
C511 C513 1.378 . S
C511 H523 0.929 . S
C512 C508 1.413 . S
C512 C513 1.348 . S
C512 H528 0.931 . S
C513 C511 1.378 . S
C513 C512 1.348 . S
C513 H529 0.930 . S
Gd514 N534 2.622 . S
Gd514 N541 2.570 . S
Gd514 O548 2.353 . S
Gd514 O549 2.468 . S
Gd514 O550 2.427 . S
Gd514 O552 2.388 . S
Gd514 O553 2.386 . S
Gd514 O557 2.307 . S
Gd514 C567 2.805 . S
Gd515 N510 2.622 . S
Gd515 N516 2.570 . S
Gd515 O547 2.386 . S
Gd515 O551 2.307 . S
Gd515 O554 2.353 . S
Gd515 O555 2.468 . S
Gd515 O556 2.427 . S
Gd515 O558 2.388 . S
Gd515 C579 2.805 . S
N516 C506 1.359 . S
N516 Gd515 2.570 . S
N516 C518 1.343 . S
C517 C505 1.422 . S
C517 C519 1.321 . S
C517 H525 0.931 . S
C518 N516 1.343 . S
C518 C519 1.390 . S
C518 H520 0.931 . S
C519 C517 1.321 . S
C519 C518 1.390 . S
C519 H521 0.930 . S
H520 C518 0.931 . S
H521 C519 0.930 . S
H522 C545 0.931 . S
H523 C511 0.929 . S
H524 C546 0.930 . S
H525 C517 0.931 . S
H526 C507 0.930 . S
H527 C536 0.929 . S
H528 C512 0.931 . S
H529 C513 0.930 . S
H530 C568 0.930 . S
H531 C509 0.929 . S
H532 C537 0.931 . S
H533 C538 0.930 . S
N534 Gd514 2.622 . S
N534 C535 1.369 . S
N534 C536 1.338 . S
C535 N534 1.369 . S
C535 C539 1.415 . S
C535 C542 1.422 . S
C536 H527 0.929 . S
C536 N534 1.338 . S
C536 C538 1.378 . S
C537 H532 0.931 . S
C537 C538 1.348 . S
C537 C539 1.413 . S
C538 H533 0.930 . S
C538 C536 1.378 . S
C538 C537 1.348 . S
C539 C535 1.415 . S
C539 C537 1.413 . S
C539 C569 1.437 . S
H540 C569 0.929 . S
N541 Gd514 2.570 . S
N541 C542 1.359 . S
N541 C545 1.343 . S
C542 C535 1.422 . S
C542 N541 1.359 . S
C542 C544 1.421 . S
C543 C544 1.422 . S
C543 C546 1.321 . S
C543 H570 0.931 . S
C544 C542 1.421 . S
C544 C543 1.422 . S
C544 C568 1.417 . S
C545 H522 0.931 . S
C545 N541 1.343 . S
C545 C546 1.390 . S
C546 H524 0.930 . S
C546 C543 1.321 . S
C546 C545 1.390 . S
O547 Gd515 2.386 . S
O547 C559 1.265 . S
O548 Gd514 2.353 . S
O548 C559 1.242 . S
O549 Gd514 2.468 . S
O549 C567 1.263 . S
O550 Gd514 2.427 . S
O550 C567 1.252 . S
O551 Gd515 2.307 . S
O551 C560 1.261 . S
O552 Gd514 2.388 . S
O552 C560 1.252 . S
O553 Gd514 2.386 . S
O553 C571 1.265 . S
O554 Gd515 2.353 . S
O554 C571 1.242 . S
O555 Gd515 2.468 . S
O555 C579 1.263 . S
O556 Gd515 2.427 . S
O556 C579 1.252 . S
O557 Gd514 2.307 . S
O557 C572 1.261 . S
O558 Gd515 2.388 . S
O558 C572 1.252 . S
C559 O547 1.265 . S
C559 O548 1.242 . S
C560 O551 1.261 . S
C560 O552 1.252 . S
C561 C564 1.394 . S
C561 C566 1.370 . S
C561 C567 1.500 . S
C562 C565 1.383 . S
C562 C566 1.395 1_554 S
C563 C564 1.396 1_554 S
C563 C565 1.365 . S
C563 H580 0.929 . S
C564 C561 1.394 . S
C564 C563 1.396 1_556 S
C564 H581 0.930 . S
C565 C562 1.383 . S
C565 C563 1.365 . S
C565 H582 0.931 . S
C566 C561 1.370 . S
C566 C562 1.395 1_556 S
C566 H583 0.930 . S
C567 Gd514 2.805 . S
C567 O549 1.263 . S
C567 O550 1.252 . S
C567 C561 1.500 . S
C568 H530 0.930 . S
C568 C544 1.417 . S
C568 C569 1.329 . S
C569 C539 1.437 . S
C569 H540 0.929 . S
C569 C568 1.329 . S
H570 C543 0.931 . S
C571 O553 1.265 . S
C571 O554 1.242 . S
C572 O557 1.261 . S
C572 O558 1.252 . S
C573 C576 1.394 . S
C573 C578 1.370 . S
C573 C579 1.500 . S
C574 C577 1.383 . S
C574 C578 1.395 . S
C575 C576 1.396 . S
C575 C577 1.365 . S
C575 H584 0.929 . S
C576 C573 1.394 . S
C576 C575 1.396 . S
C576 H585 0.930 . S
C577 C574 1.383 . S
C577 C575 1.365 . S
C577 H586 0.931 . S
C578 C573 1.370 . S
C578 C574 1.395 . S
C578 H587 0.930 . S
C579 Gd515 2.805 . S
C579 O555 1.263 . S
C579 O556 1.252 . S
C579 C573 1.500 . S
H580 C563 0.929 . S
H581 C564 0.930 . S
H582 C565 0.931 . S
H583 C566 0.930 . S
H584 C575 0.929 . S
H585 C576 0.930 . S
H586 C577 0.931 . S
H587 C578 0.930 . S
C588 C590 1.422 . S
C588 C592 1.415 . S
C588 N594 1.369 . S
C589 C590 1.421 . S
C589 C591 1.417 . S
C589 C601 1.422 . S
C590 C588 1.422 . S
C590 C589 1.421 . S
C590 N600 1.359 . S
C591 C589 1.417 . S
C591 C593 1.329 . S
C591 H610 0.930 . S
C592 C588 1.415 . S
C592 C593 1.437 . S
C592 C596 1.413 . S
C593 C591 1.329 . S
C593 C592 1.437 . S
C593 H615 0.929 . S
N594 C588 1.369 . S
N594 C595 1.338 . S
N594 Gd599 2.622 . S
C595 N594 1.338 . S
C595 C597 1.378 . S
C595 H607 0.929 . S
C596 C592 1.413 . S
C596 C597 1.348 . S
C596 H612 0.931 . S
C597 C595 1.378 . S
C597 C596 1.348 . S
C597 H613 0.930 . S
Gd598 N618 2.622 . S
Gd598 N625 2.570 . S
Gd598 O632 2.353 . S
Gd598 O633 2.468 . S
Gd598 O634 2.427 . S
Gd598 O636 2.388 . S
Gd598 O637 2.386 . S
Gd598 O641 2.307 . S
Gd598 C651 2.805 . S
Gd599 N594 2.622 . S
Gd599 N600 2.570 . S
Gd599 O631 2.386 . S
Gd599 O635 2.307 . S
Gd599 O638 2.353 . S
Gd599 O639 2.468 . S
Gd599 O640 2.427 . S
Gd599 O642 2.388 . S
Gd599 C663 2.805 . S
N600 C590 1.359 . S
N600 Gd599 2.570 . S
N600 C602 1.343 . S
C601 C589 1.422 . S
C601 C603 1.321 . S
C601 H609 0.931 . S
C602 N600 1.343 . S
C602 C603 1.390 . S
C602 H604 0.931 . S
C603 C601 1.321 . S
C603 C602 1.390 . S
C603 H605 0.930 . S
H604 C602 0.931 . S
H605 C603 0.930 . S
H606 C629 0.931 . S
H607 C595 0.929 . S
H608 C630 0.930 . S
H609 C601 0.931 . S
H610 C591 0.930 . S
H611 C620 0.929 . S
H612 C596 0.931 . S
H613 C597 0.930 . S
H614 C652 0.930 . S
H615 C593 0.929 . S
H616 C621 0.931 . S
H617 C622 0.930 . S
N618 Gd598 2.622 . S
N618 C619 1.369 . S
N618 C620 1.338 . S
C619 N618 1.369 . S
C619 C623 1.415 . S
C619 C626 1.422 . S
C620 H611 0.929 . S
C620 N618 1.338 . S
C620 C622 1.378 . S
C621 H616 0.931 . S
C621 C622 1.348 . S
C621 C623 1.413 . S
C622 H617 0.930 . S
C622 C620 1.378 . S
C622 C621 1.348 . S
C623 C619 1.415 . S
C623 C621 1.413 . S
C623 C653 1.437 . S
H624 C653 0.929 . S
N625 Gd598 2.570 . S
N625 C626 1.359 . S
N625 C629 1.343 . S
C626 C619 1.422 . S
C626 N625 1.359 . S
C626 C628 1.421 . S
C627 C628 1.422 . S
C627 C630 1.321 . S
C627 H654 0.931 . S
C628 C626 1.421 . S
C628 C627 1.422 . S
C628 C652 1.417 . S
C629 H606 0.931 . S
C629 N625 1.343 . S
C629 C630 1.390 . S
C630 H608 0.930 . S
C630 C627 1.321 . S
C630 C629 1.390 . S
O631 Gd599 2.386 . S
O631 C643 1.265 . S
O632 Gd598 2.353 . S
O632 C643 1.242 . S
O633 Gd598 2.468 . S
O633 C651 1.263 . S
O634 Gd598 2.427 . S
O634 C651 1.252 . S
O635 Gd599 2.307 . S
O635 C644 1.261 . S
O636 Gd598 2.388 . S
O636 C644 1.252 . S
O637 Gd598 2.386 . S
O637 C655 1.265 . S
O638 Gd599 2.353 . S
O638 C655 1.242 . S
O639 Gd599 2.468 . S
O639 C663 1.263 . S
O640 Gd599 2.427 . S
O640 C663 1.252 . S
O641 Gd598 2.307 . S
O641 C656 1.261 . S
O642 Gd599 2.388 . S
O642 C656 1.252 . S
C643 O631 1.265 . S
C643 O632 1.242 . S
C644 O635 1.261 . S
C644 O636 1.252 . S
C645 C648 1.394 . S
C645 C650 1.370 . S
C645 C651 1.500 . S
C646 C649 1.383 . S
C646 C650 1.395 . S
C647 C648 1.396 . S
C647 C649 1.365 . S
C647 H664 0.929 . S
C648 C645 1.394 . S
C648 C647 1.396 . S
C648 H665 0.930 . S
C649 C646 1.383 . S
C649 C647 1.365 . S
C649 H666 0.931 . S
C650 C645 1.370 . S
C650 C646 1.395 . S
C650 H667 0.930 . S
C651 Gd598 2.805 . S
C651 O633 1.263 . S
C651 O634 1.252 . S
C651 C645 1.500 . S
C652 H614 0.930 . S
C652 C628 1.417 . S
C652 C653 1.329 . S
C653 C623 1.437 . S
C653 H624 0.929 . S
C653 C652 1.329 . S
H654 C627 0.931 . S
C655 O637 1.265 . S
C655 O638 1.242 . S
C656 O641 1.261 . S
C656 O642 1.252 . S
C657 C660 1.394 . S
C657 C662 1.370 . S
C657 C663 1.500 . S
C658 C661 1.383 . S
C658 C662 1.395 1_554 S
C659 C660 1.396 . S
C659 C661 1.365 1_556 S
C659 H668 0.926 1_556 S
C660 C657 1.394 . S
C660 C659 1.396 . S
C660 H669 0.930 . S
C661 C658 1.383 . S
C661 C659 1.365 1_554 S
C661 H670 0.931 . S
C662 C657 1.370 . S
C662 C658 1.395 1_556 S
C662 H671 0.930 . S
C663 Gd599 2.805 . S
C663 O639 1.263 . S
C663 O640 1.252 . S
C663 C657 1.500 . S
H664 C647 0.929 . S
H665 C648 0.930 . S
H666 C649 0.931 . S
H667 C650 0.930 . S
H668 C659 0.926 1_554 S
H669 C660 0.930 . S
H670 C661 0.931 . S
H671 C662 0.930 . S
C672 C674 1.422 . S
C672 C676 1.415 . S
C672 N678 1.369 . S
C673 C674 1.421 . S
C673 C675 1.417 . S
C673 C685 1.422 . S
C674 C672 1.422 . S
C674 C673 1.421 . S
C674 N684 1.359 . S
C675 C673 1.417 . S
C675 C677 1.329 . S
C675 H694 0.930 . S
C676 C672 1.415 . S
C676 C677 1.437 . S
C676 C680 1.413 . S
C677 C675 1.329 . S
C677 C676 1.437 . S
C677 H699 0.929 . S
N678 C672 1.369 . S
N678 C679 1.338 . S
N678 Gd683 2.622 . S
C679 N678 1.338 . S
C679 C681 1.378 . S
C679 H691 0.929 . S
C680 C676 1.413 . S
C680 C681 1.348 . S
C680 H696 0.931 . S
C681 C679 1.378 . S
C681 C680 1.348 . S
C681 H697 0.930 . S
Gd682 N702 2.622 . S
Gd682 N709 2.570 . S
Gd682 O716 2.353 . S
Gd682 O717 2.468 . S
Gd682 O718 2.427 . S
Gd682 O720 2.388 . S
Gd682 O721 2.386 . S
Gd682 O725 2.307 . S
Gd682 C735 2.805 . S
Gd683 N678 2.622 . S
Gd683 N684 2.570 . S
Gd683 O715 2.386 . S
Gd683 O719 2.307 . S
Gd683 O722 2.353 . S
Gd683 O723 2.468 . S
Gd683 O724 2.427 . S
Gd683 O726 2.388 . S
Gd683 C747 2.805 . S
N684 C674 1.359 . S
N684 Gd683 2.570 . S
N684 C686 1.343 . S
C685 C673 1.422 . S
C685 C687 1.321 . S
C685 H693 0.931 . S
C686 N684 1.343 . S
C686 C687 1.390 . S
C686 H688 0.931 . S
C687 C685 1.321 . S
C687 C686 1.390 . S
C687 H689 0.930 . S
H688 C686 0.931 . S
H689 C687 0.930 . S
H690 C713 0.931 . S
H691 C679 0.929 . S
H692 C714 0.930 . S
H693 C685 0.931 . S
H694 C675 0.930 . S
H695 C704 0.929 . S
H696 C680 0.931 . S
H697 C681 0.930 . S
H698 C736 0.930 . S
H699 C677 0.929 . S
H700 C705 0.931 . S
H701 C706 0.930 . S
N702 Gd682 2.622 . S
N702 C703 1.369 . S
N702 C704 1.338 . S
C703 N702 1.369 . S
C703 C707 1.415 . S
C703 C710 1.422 . S
C704 H695 0.929 . S
C704 N702 1.338 . S
C704 C706 1.378 . S
C705 H700 0.931 . S
C705 C706 1.348 . S
C705 C707 1.413 . S
C706 H701 0.930 . S
C706 C704 1.378 . S
C706 C705 1.348 . S
C707 C703 1.415 . S
C707 C705 1.413 . S
C707 C737 1.437 . S
H708 C737 0.929 . S
N709 Gd682 2.570 . S
N709 C710 1.359 . S
N709 C713 1.343 . S
C710 C703 1.422 . S
C710 N709 1.359 . S
C710 C712 1.421 . S
C711 C712 1.422 . S
C711 C714 1.321 . S
C711 H738 0.931 . S
C712 C710 1.421 . S
C712 C711 1.422 . S
C712 C736 1.417 . S
C713 H690 0.931 . S
C713 N709 1.343 . S
C713 C714 1.390 . S
C714 H692 0.930 . S
C714 C711 1.321 . S
C714 C713 1.390 . S
O715 Gd683 2.386 . S
O715 C727 1.265 . S
O716 Gd682 2.353 . S
O716 C727 1.242 . S
O717 Gd682 2.468 . S
O717 C735 1.263 . S
O718 Gd682 2.427 . S
O718 C735 1.252 . S
O719 Gd683 2.307 . S
O719 C728 1.261 . S
O720 Gd682 2.388 . S
O720 C728 1.252 . S
O721 Gd682 2.386 . S
O721 C739 1.265 . S
O722 Gd683 2.353 . S
O722 C739 1.242 . S
O723 Gd683 2.468 . S
O723 C747 1.263 . S
O724 Gd683 2.427 . S
O724 C747 1.252 . S
O725 Gd682 2.307 . S
O725 C740 1.261 . S
O726 Gd683 2.388 . S
O726 C740 1.252 . S
C727 O715 1.265 . S
C727 O716 1.242 . S
C728 O719 1.261 . S
C728 O720 1.252 . S
C729 C732 1.394 . S
C729 C734 1.370 . S
C729 C735 1.500 . S
C730 C733 1.383 . S
C730 C734 1.395 1_554 S
C731 C732 1.396 1_554 S
C731 C733 1.365 . S
C731 H748 0.929 . S
C732 C729 1.394 . S
C732 C731 1.396 1_556 S
C732 H749 0.930 . S
C733 C730 1.383 . S
C733 C731 1.365 . S
C733 H750 0.931 . S
C734 C729 1.370 . S
C734 C730 1.395 1_556 S
C734 H751 0.930 . S
C735 Gd682 2.805 . S
C735 O717 1.263 . S
C735 O718 1.252 . S
C735 C729 1.500 . S
C736 H698 0.930 . S
C736 C712 1.417 . S
C736 C737 1.329 . S
C737 C707 1.437 . S
C737 H708 0.929 . S
C737 C736 1.329 . S
H738 C711 0.931 . S
C739 O721 1.265 . S
C739 O722 1.242 . S
C740 O725 1.261 . S
C740 O726 1.252 . S
C741 C744 1.394 . S
C741 C746 1.370 . S
C741 C747 1.500 . S
C742 C745 1.383 . S
C742 C746 1.395 . S
C743 C744 1.396 . S
C743 C745 1.365 . S
C743 H752 0.929 . S
C744 C741 1.394 . S
C744 C743 1.396 . S
C744 H753 0.930 . S
C745 C742 1.383 . S
C745 C743 1.365 . S
C745 H754 0.931 . S
C746 C741 1.370 . S
C746 C742 1.395 . S
C746 H755 0.930 . S
C747 Gd683 2.805 . S
C747 O723 1.263 . S
C747 O724 1.252 . S
C747 C741 1.500 . S
H748 C731 0.929 . S
H749 C732 0.930 . S
H750 C733 0.931 . S
H751 C734 0.930 . S
H752 C743 0.929 . S
H753 C744 0.930 . S
H754 C745 0.931 . S
H755 C746 0.930 . S
C756 C757 1.349 . S
C756 C758 1.327 . S
C756 H781 0.950 . S
C757 C756 1.349 . S
C757 C773 1.349 . S
C758 C756 1.327 . S
C758 C777 1.429 . S
C758 H782 0.950 . S
C759 C776 1.577 . S
C759 C778 1.367 1_655 S
C759 H783 0.951 . S
H760 C764 0.949 . S
C761 C762 1.357 . S
C761 C763 1.325 . S
C761 H784 0.943 1_455 S
C762 C761 1.357 . S
C762 C774 1.349 . S
C763 C761 1.325 . S
C763 C779 1.425 . S
C763 H785 0.954 1_455 S
C764 H760 0.949 . S
C764 C772 1.574 . S
C764 C780 1.368 . S
H765 C773 0.950 1_655 S
H766 C771 0.950 1_655 S
H767 C772 0.949 . S
H768 C774 0.950 . S
H769 C775 0.950 . S
H770 C776 0.963 . S
C771 H766 0.950 1_455 S
C771 C773 1.327 . S
C771 C777 1.429 . S
C772 C764 1.574 . S
C772 H767 0.949 . S
C772 C778 1.368 . S
C773 C757 1.349 . S
C773 H765 0.950 1_455 S
C773 C771 1.327 . S
C774 C762 1.349 . S
C774 H768 0.950 . S
C774 C775 1.327 . S
C775 H769 0.950 . S
C775 C774 1.327 . S
C775 C779 1.429 . S
C776 C759 1.577 . S
C776 H770 0.963 . S
C776 C780 1.350 1_655 S
C777 C758 1.429 . S
C777 C771 1.429 . S
C777 C778 1.523 . S
C778 C759 1.367 1_455 S
C778 C772 1.368 . S
C778 C777 1.523 . S
C779 C763 1.425 . S
C779 C775 1.429 . S
C779 C780 1.523 . S
C780 C764 1.368 . S
C780 C776 1.350 1_455 S
C780 C779 1.523 . S
H781 C756 0.950 . S
H782 C758 0.950 . S
H783 C759 0.951 . S
H784 C761 0.943 1_655 S
H785 C763 0.954 1_655 S
C786 C787 1.349 . S
C786 C788 1.327 . S
C786 H811 0.950 . S
C787 C786 1.349 . S
C787 C803 1.349 . S
C788 C786 1.327 . S
C788 C807 1.429 . S
C788 H812 0.950 . S
C789 C806 1.574 . S
C789 C808 1.368 . S
C789 H813 0.949 . S
H790 C794 0.949 . S
C791 C792 1.349 . S
C791 C793 1.327 . S
C791 H814 0.950 . S
C792 C791 1.349 . S
C792 C804 1.349 . S
C793 C791 1.327 . S
C793 C809 1.429 . S
C793 H815 0.950 . S
C794 H790 0.949 . S
C794 C802 1.574 . S
C794 C810 1.368 . S
H795 C803 0.950 . S
H796 C801 0.950 . S
H797 C802 0.949 . S
H798 C804 0.950 . S
H799 C805 0.950 . S
H800 C806 0.949 . S
C801 H796 0.950 . S
C801 C803 1.327 . S
C801 C807 1.429 . S
C802 C794 1.574 . S
C802 H797 0.949 . S
C802 C808 1.368 . S
C803 C787 1.349 . S
C803 H795 0.950 . S
C803 C801 1.327 . S
C804 C792 1.349 . S
C804 H798 0.950 . S
C804 C805 1.327 . S
C805 H799 0.950 . S
C805 C804 1.327 . S
C805 C809 1.429 . S
C806 C789 1.574 . S
C806 H800 0.949 . S
C806 C810 1.368 . S
C807 C788 1.429 . S
C807 C801 1.429 . S
C807 C808 1.523 . S
C808 C789 1.368 . S
C808 C802 1.368 . S
C808 C807 1.523 . S
C809 C793 1.429 . S
C809 C805 1.429 . S
C809 C810 1.523 . S
C810 C794 1.368 . S
C810 C806 1.368 . S
C810 C809 1.523 . S
H811 C786 0.950 . S
H812 C788 0.950 . S
H813 C789 0.949 . S
H814 C791 0.950 . S
H815 C793 0.950 . S
C816 C817 1.349 . S
C816 C818 1.327 . S
C816 H841 0.950 . S
C817 C816 1.349 . S
C817 C833 1.349 . S
C818 C816 1.327 . S
C818 C837 1.429 . S
C818 H842 0.950 . S
C819 C836 1.574 . S
C819 C838 1.368 . S
C819 H843 0.949 . S
H820 C824 0.949 . S
C821 C822 1.349 . S
C821 C823 1.327 . S
C821 H844 0.950 . S
C822 C821 1.349 . S
C822 C834 1.349 . S
C823 C821 1.327 . S
C823 C839 1.429 . S
C823 H845 0.950 . S
C824 H820 0.949 . S
C824 C832 1.574 . S
C824 C840 1.368 . S
H825 C833 0.950 . S
H826 C831 0.950 . S
H827 C832 0.949 . S
H828 C834 0.950 . S
H829 C835 0.950 . S
H830 C836 0.949 . S
C831 H826 0.950 . S
C831 C833 1.327 . S
C831 C837 1.429 . S
C832 C824 1.574 . S
C832 H827 0.949 . S
C832 C838 1.368 . S
C833 C817 1.349 . S
C833 H825 0.950 . S
C833 C831 1.327 . S
C834 C822 1.349 . S
C834 H828 0.950 . S
C834 C835 1.327 . S
C835 H829 0.950 . S
C835 C834 1.327 . S
C835 C839 1.429 . S
C836 C819 1.574 . S
C836 H830 0.949 . S
C836 C840 1.368 . S
C837 C818 1.429 . S
C837 C831 1.429 . S
C837 C838 1.523 . S
C838 C819 1.368 . S
C838 C832 1.368 . S
C838 C837 1.523 . S
C839 C823 1.429 . S
C839 C835 1.429 . S
C839 C840 1.523 . S
C840 C824 1.368 . S
C840 C836 1.368 . S
C840 C839 1.523 . S
H841 C816 0.950 . S
H842 C818 0.950 . S
H843 C819 0.949 . S
H844 C821 0.950 . S
H845 C823 0.950 . S
C846 C847 1.349 . S
C846 C848 1.327 . S
C846 H871 0.950 . S
C847 C846 1.349 . S
C847 C863 1.349 . S
C848 C846 1.327 . S
C848 C867 1.429 . S
C848 H872 0.950 . S
C849 C866 1.574 . S
C849 C868 1.368 . S
C849 H873 0.949 . S
H850 C854 0.949 . S
C851 C852 1.349 . S
C851 C853 1.327 . S
C851 H874 0.950 . S
C852 C851 1.349 . S
C852 C864 1.349 . S
C853 C851 1.327 . S
C853 C869 1.429 . S
C853 H875 0.950 . S
C854 H850 0.949 . S
C854 C862 1.574 . S
C854 C870 1.368 . S
H855 C863 0.950 . S
H856 C861 0.950 . S
H857 C862 0.949 . S
H858 C864 0.950 . S
H859 C865 0.950 . S
H860 C866 0.949 . S
C861 H856 0.950 . S
C861 C863 1.327 . S
C861 C867 1.429 . S
C862 C854 1.574 . S
C862 H857 0.949 . S
C862 C868 1.368 . S
C863 C847 1.349 . S
C863 H855 0.950 . S
C863 C861 1.327 . S
C864 C852 1.349 . S
C864 H858 0.950 . S
C864 C865 1.327 . S
C865 H859 0.950 . S
C865 C864 1.327 . S
C865 C869 1.429 . S
C866 C849 1.574 . S
C866 H860 0.949 . S
C866 C870 1.368 . S
C867 C848 1.429 . S
C867 C861 1.429 . S
C867 C868 1.523 . S
C868 C849 1.368 . S
C868 C862 1.368 . S
C868 C867 1.523 . S
C869 C853 1.429 . S
C869 C865 1.429 . S
C869 C870 1.523 . S
C870 C854 1.368 . S
C870 C866 1.368 . S
C870 C869 1.523 . S
H871 C846 0.950 . S
H872 C848 0.950 . S
H873 C849 0.949 . S
H874 C851 0.950 . S
H875 C853 0.950 . S
C876 C877 1.349 . S
C876 C878 1.327 . S
C876 H901 0.950 . S
C877 C876 1.349 . S
C877 C893 1.349 . S
C878 C876 1.327 . S
C878 C897 1.429 . S
C878 H902 0.950 . S
C879 C896 1.574 . S
C879 C898 1.368 . S
C879 H903 0.949 . S
H880 C884 0.949 . S
C881 C882 1.349 . S
C881 C883 1.327 1_554 S
C881 H904 0.950 . S
C882 C881 1.349 . S
C882 C894 1.349 1_554 S
C883 C881 1.327 1_556 S
C883 C899 1.429 . S
C883 H905 0.950 . S
C884 H880 0.949 . S
C884 C892 1.574 . S
C884 C900 1.368 . S
H885 C893 0.950 . S
H886 C891 0.950 . S
H887 C892 0.949 . S
H888 C894 0.950 1_554 S
H889 C895 0.950 . S
H890 C896 0.949 . S
C891 H886 0.950 . S
C891 C893 1.327 . S
C891 C897 1.429 . S
C892 C884 1.574 . S
C892 H887 0.949 . S
C892 C898 1.368 . S
C893 C877 1.349 . S
C893 H885 0.950 . S
C893 C891 1.327 . S
C894 C882 1.349 1_556 S
C894 H888 0.950 1_556 S
C894 C895 1.327 . S
C895 H889 0.950 . S
C895 C894 1.327 . S
C895 C899 1.429 . S
C896 C879 1.574 . S
C896 H890 0.949 . S
C896 C900 1.368 . S
C897 C878 1.429 . S
C897 C891 1.429 . S
C897 C898 1.523 . S
C898 C879 1.368 . S
C898 C892 1.368 . S
C898 C897 1.523 . S
C899 C883 1.429 . S
C899 C895 1.429 . S
C899 C900 1.523 . S
C900 C884 1.368 . S
C900 C896 1.368 . S
C900 C899 1.523 . S
H901 C876 0.950 . S
H902 C878 0.950 . S
H903 C879 0.949 . S
H904 C881 0.950 . S
H905 C883 0.950 . S
C906 C907 1.349 . S
C906 C908 1.327 . S
C906 H931 0.950 . S
C907 C906 1.349 . S
C907 C923 1.349 . S
C908 C906 1.327 . S
C908 C927 1.429 . S
C908 H932 0.950 . S
C909 C926 1.574 . S
C909 C928 1.368 . S
C909 H933 0.949 . S
H910 C914 0.949 . S
C911 C912 1.349 . S
C911 C913 1.327 1_554 S
C911 H934 0.950 . S
C912 C911 1.349 . S
C912 C924 1.349 . S
C913 C911 1.327 1_556 S
C913 C929 1.429 . S
C913 H935 0.950 . S
C914 H910 0.949 . S
C914 C922 1.574 . S
C914 C930 1.368 . S
H915 C923 0.950 . S
H916 C921 0.950 . S
H917 C922 0.949 . S
H918 C924 0.950 . S
H919 C925 0.950 1_556 S
H920 C926 0.949 . S
C921 H916 0.950 . S
C921 C923 1.327 . S
C921 C927 1.429 . S
C922 C914 1.574 . S
C922 H917 0.949 . S
C922 C928 1.368 . S
C923 C907 1.349 . S
C923 H915 0.950 . S
C923 C921 1.327 . S
C924 C912 1.349 . S
C924 H918 0.950 . S
C924 C925 1.327 . S
C925 H919 0.950 1_554 S
C925 C924 1.327 . S
C925 C929 1.429 1_554 S
C926 C909 1.574 . S
C926 H920 0.949 . S
C926 C930 1.368 . S
C927 C908 1.429 . S
C927 C921 1.429 . S
C927 C928 1.523 . S
C928 C909 1.368 . S
C928 C922 1.368 . S
C928 C927 1.523 . S
C929 C913 1.429 . S
C929 C925 1.429 1_556 S
C929 C930 1.523 . S
C930 C914 1.368 . S
C930 C926 1.368 . S
C930 C929 1.523 . S
H931 C906 0.950 . S
H932 C908 0.950 . S
H933 C909 0.949 . S
H934 C911 0.950 . S
H935 C913 0.950 . S
C936 C937 1.349 . S
C936 C938 1.327 . S
C936 H961 0.950 . S
C937 C936 1.349 . S
C937 C953 1.349 . S
C938 C936 1.327 . S
C938 C957 1.429 . S
C938 H962 0.950 . S
C939 C956 1.574 . S
C939 C958 1.368 . S
C939 H963 0.949 . S
H940 C944 0.949 . S
C941 C942 1.349 . S
C941 C943 1.327 1_556 S
C941 H964 0.950 . S
C942 C941 1.349 . S
C942 C954 1.349 1_556 S
C943 C941 1.327 1_554 S
C943 C959 1.429 . S
C943 H965 0.950 . S
C944 H940 0.949 . S
C944 C952 1.574 . S
C944 C960 1.368 . S
H945 C953 0.950 . S
H946 C951 0.950 . S
H947 C952 0.949 . S
H948 C954 0.950 . S
H949 C955 0.950 . S
H950 C956 0.949 . S
C951 H946 0.950 . S
C951 C953 1.327 . S
C951 C957 1.429 . S
C952 C944 1.574 . S
C952 H947 0.949 . S
C952 C958 1.368 . S
C953 C937 1.349 . S
C953 H945 0.950 . S
C953 C951 1.327 . S
C954 C942 1.349 1_554 S
C954 H948 0.950 . S
C954 C955 1.327 . S
C955 H949 0.950 . S
C955 C954 1.327 . S
C955 C959 1.429 . S
C956 C939 1.574 . S
C956 H950 0.949 . S
C956 C960 1.368 . S
C957 C938 1.429 . S
C957 C951 1.429 . S
C957 C958 1.523 . S
C958 C939 1.368 . S
C958 C952 1.368 . S
C958 C957 1.523 . S
C959 C943 1.429 . S
C959 C955 1.429 . S
C959 C960 1.523 . S
C960 C944 1.368 . S
C960 C956 1.368 . S
C960 C959 1.523 . S
H961 C936 0.950 . S
H962 C938 0.950 . S
H963 C939 0.949 . S
H964 C941 0.950 . S
H965 C943 0.950 . S
C966 C967 1.349 . S
C966 C968 1.327 . S
C966 H991 0.950 . S
C967 C966 1.349 . S
C967 C983 1.349 . S
C968 C966 1.327 . S
C968 C987 1.429 . S
C968 H992 0.950 . S
C969 C986 1.574 . S
C969 C988 1.368 . S
C969 H993 0.949 . S
H970 C974 0.949 . S
C971 C972 1.349 . S
C971 C973 1.327 1_556 S
C971 H994 0.950 . S
C972 C971 1.349 . S
C972 C984 1.349 . S
C973 C971 1.327 1_554 S
C973 C989 1.429 . S
C973 H995 0.950 . S
C974 H970 0.949 . S
C974 C982 1.574 . S
C974 C990 1.368 . S
H975 C983 0.950 . S
H976 C981 0.950 . S
H977 C982 0.949 . S
H978 C984 0.950 . S
H979 C985 0.950 . S
H980 C986 0.949 . S
C981 H976 0.950 . S
C981 C983 1.327 . S
C981 C987 1.429 . S
C982 C974 1.574 . S
C982 H977 0.949 . S
C982 C988 1.368 . S
C983 C967 1.349 . S
C983 H975 0.950 . S
C983 C981 1.327 . S
C984 C972 1.349 . S
C984 H978 0.950 . S
C984 C985 1.327 1_556 S
C985 H979 0.950 . S
C985 C984 1.327 1_554 S
C985 C989 1.429 . S
C986 C969 1.574 . S
C986 H980 0.949 . S
C986 C990 1.368 . S
C987 C968 1.429 . S
C987 C981 1.429 . S
C987 C988 1.523 . S
C988 C969 1.368 . S
C988 C982 1.368 . S
C988 C987 1.523 . S
C989 C973 1.429 . S
C989 C985 1.429 . S
C989 C990 1.523 . S
C990 C974 1.368 . S
C990 C986 1.368 . S
C990 C989 1.523 . S
H991 C966 0.950 . S
H992 C968 0.950 . S
H993 C969 0.949 . S
H994 C971 0.950 . S
H995 C973 0.950 . S
C996 C997 1.349 . S
C996 C998 1.327 . S
C996 H1021 0.950 . S
C997 C996 1.349 . S
C997 C1013 1.349 . S
C998 C996 1.327 . S
C998 C1017 1.429 . S
C998 H1022 0.950 . S
C999 C1016 1.574 . S
C999 C1018 1.368 . S
C999 H1023 0.949 . S
H1000 C1004 0.949 . S
C1001 C1002 1.349 . S
C1001 C1003 1.327 1_556 S
C1001 H1024 0.950 . S
C1002 C1001 1.349 . S
C1002 C1014 1.349 1_556 S
C1003 C1001 1.327 1_554 S
C1003 C1019 1.429 . S
C1003 H1025 0.950 . S
C1004 H1000 0.949 . S
C1004 C1012 1.574 . S
C1004 C1020 1.368 . S
H1005 C1013 0.950 . S
H1006 C1011 0.950 . S
H1007 C1012 0.949 . S
H1008 C1014 0.950 . S
H1009 C1015 0.950 . S
H1010 C1016 0.949 . S
C1011 H1006 0.950 . S
C1011 C1013 1.327 . S
C1011 C1017 1.429 . S
C1012 C1004 1.574 . S
C1012 H1007 0.949 . S
C1012 C1018 1.368 . S
C1013 C997 1.349 . S
C1013 H1005 0.950 . S
C1013 C1011 1.327 . S
C1014 C1002 1.349 1_554 S
C1014 H1008 0.950 . S
C1014 C1015 1.327 . S
C1015 H1009 0.950 . S
C1015 C1014 1.327 . S
C1015 C1019 1.429 . S
C1016 C999 1.574 . S
C1016 H1010 0.949 . S
C1016 C1020 1.368 . S
C1017 C998 1.429 . S
C1017 C1011 1.429 . S
C1017 C1018 1.523 . S
C1018 C999 1.368 . S
C1018 C1012 1.368 . S
C1018 C1017 1.523 . S
C1019 C1003 1.429 . S
C1019 C1015 1.429 . S
C1019 C1020 1.523 . S
C1020 C1004 1.368 . S
C1020 C1016 1.368 . S
C1020 C1019 1.523 . S
H1021 C996 0.950 . S
H1022 C998 0.950 . S
H1023 C999 0.949 . S
H1024 C1001 0.950 . S
H1025 C1003 0.950 . S
C1026 C1027 1.349 . S
C1026 C1028 1.327 . S
C1026 H1051 0.950 . S
C1027 C1026 1.349 . S
C1027 C1043 1.349 . S
C1028 C1026 1.327 . S
C1028 C1047 1.429 . S
C1028 H1052 0.950 . S
C1029 C1046 1.574 . S
C1029 C1048 1.368 . S
C1029 H1053 0.949 . S
H1030 C1034 0.949 . S
C1031 C1032 1.349 . S
C1031 C1033 1.327 . S
C1031 H1054 0.950 . S
C1032 C1031 1.349 . S
C1032 C1044 1.349 . S
C1033 C1031 1.327 . S
C1033 C1049 1.429 . S
C1033 H1055 0.950 . S
C1034 H1030 0.949 . S
C1034 C1042 1.574 . S
C1034 C1050 1.368 . S
H1035 C1043 0.950 . S
H1036 C1041 0.950 . S
H1037 C1042 0.949 . S
H1038 C1044 0.950 . S
H1039 C1045 0.950 . S
H1040 C1046 0.949 . S
C1041 H1036 0.950 . S
C1041 C1043 1.327 . S
C1041 C1047 1.429 . S
C1042 C1034 1.574 . S
C1042 H1037 0.949 . S
C1042 C1048 1.368 . S
C1043 C1027 1.349 . S
C1043 H1035 0.950 . S
C1043 C1041 1.327 . S
C1044 C1032 1.349 . S
C1044 H1038 0.950 . S
C1044 C1045 1.327 . S
C1045 H1039 0.950 . S
C1045 C1044 1.327 . S
C1045 C1049 1.429 . S
C1046 C1029 1.574 . S
C1046 H1040 0.949 . S
C1046 C1050 1.368 . S
C1047 C1028 1.429 . S
C1047 C1041 1.429 . S
C1047 C1048 1.523 . S
C1048 C1029 1.368 . S
C1048 C1042 1.368 . S
C1048 C1047 1.523 . S
C1049 C1033 1.429 . S
C1049 C1045 1.429 . S
C1049 C1050 1.523 . S
C1050 C1034 1.368 . S
C1050 C1046 1.368 . S
C1050 C1049 1.523 . S
H1051 C1026 0.950 . S
H1052 C1028 0.950 . S
H1053 C1029 0.949 . S
H1054 C1031 0.950 . S
H1055 C1033 0.950 . S
C1056 C1057 1.349 . S
C1056 C1058 1.327 . S
C1056 H1081 0.950 . S
C1057 C1056 1.349 . S
C1057 C1073 1.349 . S
C1058 C1056 1.327 . S
C1058 C1077 1.429 . S
C1058 H1082 0.950 . S
C1059 C1076 1.574 . S
C1059 C1078 1.368 . S
C1059 H1083 0.949 . S
H1060 C1064 0.949 . S
C1061 C1062 1.349 . S
C1061 C1063 1.327 . S
C1061 H1084 0.950 . S
C1062 C1061 1.349 . S
C1062 C1074 1.349 . S
C1063 C1061 1.327 . S
C1063 C1079 1.429 . S
C1063 H1085 0.950 . S
C1064 H1060 0.949 . S
C1064 C1072 1.574 . S
C1064 C1080 1.368 . S
H1065 C1073 0.950 . S
H1066 C1071 0.950 . S
H1067 C1072 0.949 . S
H1068 C1074 0.950 . S
H1069 C1075 0.950 . S
H1070 C1076 0.949 . S
C1071 H1066 0.950 . S
C1071 C1073 1.327 . S
C1071 C1077 1.429 . S
C1072 C1064 1.574 . S
C1072 H1067 0.949 . S
C1072 C1078 1.368 . S
C1073 C1057 1.349 . S
C1073 H1065 0.950 . S
C1073 C1071 1.327 . S
C1074 C1062 1.349 . S
C1074 H1068 0.950 . S
C1074 C1075 1.327 . S
C1075 H1069 0.950 . S
C1075 C1074 1.327 . S
C1075 C1079 1.429 . S
C1076 C1059 1.574 . S
C1076 H1070 0.949 . S
C1076 C1080 1.368 . S
C1077 C1058 1.429 . S
C1077 C1071 1.429 . S
C1077 C1078 1.523 . S
C1078 C1059 1.368 . S
C1078 C1072 1.368 . S
C1078 C1077 1.523 . S
C1079 C1063 1.429 . S
C1079 C1075 1.429 . S
C1079 C1080 1.523 . S
C1080 C1064 1.368 . S
C1080 C1076 1.368 . S
C1080 C1079 1.523 . S
H1081 C1056 0.950 . S
H1082 C1058 0.950 . S
H1083 C1059 0.949 . S
H1084 C1061 0.950 . S
H1085 C1063 0.950 . S
C1086 C1087 1.349 . S
C1086 C1088 1.327 . S
C1086 H1111 0.950 . S
C1087 C1086 1.349 . S
C1087 C1103 1.349 1_565 S
C1088 C1086 1.327 . S
C1088 C1107 1.429 . S
C1088 H1112 0.950 . S
C1089 C1106 1.574 . S
C1089 C1108 1.368 . S
C1089 H1113 0.949 . S
H1090 C1094 0.949 . S
C1091 C1092 1.349 . S
C1091 C1093 1.327 . S
C1091 H1114 0.950 . S
C1092 C1091 1.349 . S
C1092 C1104 1.349 . S
C1093 C1091 1.327 . S
C1093 C1109 1.429 . S
C1093 H1115 0.950 . S
C1094 H1090 0.949 . S
C1094 C1102 1.574 . S
C1094 C1110 1.368 . S
H1095 C1103 0.950 . S
H1096 C1101 0.945 1_545 S
H1097 C1102 0.949 . S
H1098 C1104 0.950 . S
H1099 C1105 0.950 . S
H1100 C1106 0.949 . S
C1101 H1096 0.945 1_565 S
C1101 C1103 1.327 1_565 S
C1101 C1107 1.433 . S
C1102 C1094 1.574 . S
C1102 H1097 0.949 . S
C1102 C1108 1.368 . S
C1103 C1087 1.349 1_545 S
C1103 H1095 0.950 . S
C1103 C1101 1.327 1_545 S
C1104 C1092 1.349 . S
C1104 H1098 0.950 . S
C1104 C1105 1.327 . S
C1105 H1099 0.950 . S
C1105 C1104 1.327 . S
C1105 C1109 1.429 . S
C1106 C1089 1.574 . S
C1106 H1100 0.949 . S
C1106 C1110 1.368 . S
C1107 C1088 1.429 . S
C1107 C1101 1.433 . S
C1107 C1108 1.523 . S
C1108 C1089 1.368 . S
C1108 C1102 1.368 . S
C1108 C1107 1.523 . S
C1109 C1093 1.429 . S
C1109 C1105 1.429 . S
C1109 C1110 1.523 . S
C1110 C1094 1.368 . S
C1110 C1106 1.368 . S
C1110 C1109 1.523 . S
H1111 C1086 0.950 . S
H1112 C1088 0.950 . S
H1113 C1089 0.949 . S
H1114 C1091 0.950 . S
H1115 C1093 0.950 . S
C1116 C1117 1.349 . S
C1116 C1118 1.327 . S
C1116 H1141 0.963 . S
C1117 C1116 1.349 . S
C1117 C1133 1.349 . S
C1118 C1116 1.327 . S
C1118 C1137 1.429 . S
C1118 H1142 0.950 . S
C1119 C1136 1.574 . S
C1119 C1138 1.368 . S
C1119 H1143 0.949 . S
H1120 C1124 0.949 . S
C1121 C1122 1.349 . S
C1121 C1123 1.327 . S
C1121 H1144 0.950 . S
C1122 C1121 1.349 . S
C1122 C1134 1.349 . S
C1123 C1121 1.327 . S
C1123 C1139 1.429 . S
C1123 H1145 0.950 . S
C1124 H1120 0.949 . S
C1124 C1132 1.574 . S
C1124 C1140 1.368 . S
H1125 C1133 0.950 . S
H1126 C1131 0.950 . S
H1127 C1132 0.949 . S
H1128 C1134 0.950 . S
H1129 C1135 0.950 . S
H1130 C1136 0.949 . S
C1131 H1126 0.950 . S
C1131 C1133 1.327 . S
C1131 C1137 1.429 . S
C1132 C1124 1.574 . S
C1132 H1127 0.949 . S
C1132 C1138 1.368 . S
C1133 C1117 1.349 . S
C1133 H1125 0.950 . S
C1133 C1131 1.327 . S
C1134 C1122 1.349 . S
C1134 H1128 0.950 . S
C1134 C1135 1.327 . S
C1135 H1129 0.950 . S
C1135 C1134 1.327 . S
C1135 C1139 1.429 . S
C1136 C1119 1.574 . S
C1136 H1130 0.949 . S
C1136 C1140 1.368 . S
C1137 C1118 1.429 . S
C1137 C1131 1.429 . S
C1137 C1138 1.523 . S
C1138 C1119 1.368 . S
C1138 C1132 1.368 . S
C1138 C1137 1.523 . S
C1139 C1123 1.429 . S
C1139 C1135 1.429 . S
C1139 C1140 1.523 . S
C1140 C1124 1.368 . S
C1140 C1136 1.368 . S
C1140 C1139 1.523 . S
H1141 C1116 0.963 . S
H1142 C1118 0.950 . S
H1143 C1119 0.949 . S
H1144 C1121 0.950 . S
H1145 C1123 0.950 . S
C1146 C1147 1.349 . S
C1146 C1148 1.327 . S
C1146 H1171 0.950 . S
C1147 C1146 1.349 . S
C1147 C1163 1.349 . S
C1148 C1146 1.327 . S
C1148 C1167 1.429 . S
C1148 H1172 0.950 . S
C1149 C1166 1.574 . S
C1149 C1168 1.368 . S
C1149 H1173 0.949 . S
H1150 C1154 0.949 . S
C1151 C1152 1.349 . S
C1151 C1153 1.327 . S
C1151 H1174 0.950 . S
C1152 C1151 1.349 . S
C1152 C1164 1.349 . S
C1153 C1151 1.327 . S
C1153 C1169 1.429 . S
C1153 H1175 0.950 . S
C1154 H1150 0.949 . S
C1154 C1162 1.574 . S
C1154 C1170 1.368 . S
H1155 C1163 0.950 . S
H1156 C1161 0.950 . S
H1157 C1162 0.949 . S
H1158 C1164 0.950 . S
H1159 C1165 0.950 . S
H1160 C1166 0.949 1_554 S
C1161 H1156 0.950 . S
C1161 C1163 1.327 . S
C1161 C1167 1.429 . S
C1162 C1154 1.574 . S
C1162 H1157 0.949 . S
C1162 C1168 1.368 . S
C1163 C1147 1.349 . S
C1163 H1155 0.950 . S
C1163 C1161 1.327 . S
C1164 C1152 1.349 . S
C1164 H1158 0.950 . S
C1164 C1165 1.327 1_554 S
C1165 H1159 0.950 . S
C1165 C1164 1.327 1_556 S
C1165 C1169 1.429 1_556 S
C1166 C1149 1.574 . S
C1166 H1160 0.949 1_556 S
C1166 C1170 1.368 . S
C1167 C1148 1.429 . S
C1167 C1161 1.429 . S
C1167 C1168 1.523 . S
C1168 C1149 1.368 . S
C1168 C1162 1.368 . S
C1168 C1167 1.523 . S
C1169 C1153 1.429 . S
C1169 C1165 1.429 1_554 S
C1169 C1170 1.523 1_554 S
C1170 C1154 1.368 . S
C1170 C1166 1.368 . S
C1170 C1169 1.523 1_556 S
H1171 C1146 0.950 . S
H1172 C1148 0.950 . S
H1173 C1149 0.949 . S
H1174 C1151 0.950 . S
H1175 C1153 0.950 . S
C1176 C1177 1.349 . S
C1176 C1178 1.327 . S
C1176 H1201 0.950 . S
C1177 C1176 1.349 . S
C1177 C1193 1.349 . S
C1178 C1176 1.327 . S
C1178 C1197 1.429 . S
C1178 H1202 0.950 . S
C1179 C1196 1.574 . S
C1179 C1198 1.368 . S
C1179 H1203 0.949 . S
H1180 C1184 0.949 . S
C1181 C1182 1.349 . S
C1181 C1183 1.327 . S
C1181 H1204 0.950 . S
C1182 C1181 1.349 . S
C1182 C1194 1.349 . S
C1183 C1181 1.327 . S
C1183 C1199 1.429 . S
C1183 H1205 0.950 . S
C1184 H1180 0.949 . S
C1184 C1192 1.574 . S
C1184 C1200 1.368 . S
H1185 C1193 0.950 . S
H1186 C1191 0.950 . S
H1187 C1192 0.949 . S
H1188 C1194 0.950 . S
H1189 C1195 0.950 . S
H1190 C1196 0.949 . S
C1191 H1186 0.950 . S
C1191 C1193 1.327 . S
C1191 C1197 1.429 . S
C1192 C1184 1.574 . S
C1192 H1187 0.949 . S
C1192 C1198 1.368 . S
C1193 C1177 1.349 . S
C1193 H1185 0.950 . S
C1193 C1191 1.327 . S
C1194 C1182 1.349 . S
C1194 H1188 0.950 . S
C1194 C1195 1.327 . S
C1195 H1189 0.950 . S
C1195 C1194 1.327 . S
C1195 C1199 1.429 . S
C1196 C1179 1.574 . S
C1196 H1190 0.949 . S
C1196 C1200 1.368 . S
C1197 C1178 1.429 . S
C1197 C1191 1.429 . S
C1197 C1198 1.523 . S
C1198 C1179 1.368 . S
C1198 C1192 1.368 . S
C1198 C1197 1.523 . S
C1199 C1183 1.429 . S
C1199 C1195 1.429 . S
C1199 C1200 1.523 . S
C1200 C1184 1.368 . S
C1200 C1196 1.368 . S
C1200 C1199 1.523 . S
H1201 C1176 0.950 . S
H1202 C1178 0.950 . S
H1203 C1179 0.949 . S
H1204 C1181 0.950 . S
H1205 C1183 0.950 . S
C1206 C1207 1.349 . S
C1206 C1208 1.327 . S
C1206 H1231 0.950 . S
C1207 C1206 1.349 . S
C1207 C1223 1.349 . S
C1208 C1206 1.327 . S
C1208 C1227 1.429 . S
C1208 H1232 0.950 . S
C1209 C1226 1.574 . S
C1209 C1228 1.368 . S
C1209 H1233 0.949 . S
H1210 C1214 0.949 . S
C1211 C1212 1.349 1_556 S
C1211 C1213 1.327 . S
C1211 H1234 0.950 . S
C1212 C1211 1.349 1_554 S
C1212 C1224 1.349 1_554 S
C1213 C1211 1.327 . S
C1213 C1229 1.429 . S
C1213 H1235 0.950 . S
C1214 H1210 0.949 . S
C1214 C1222 1.574 . S
C1214 C1230 1.368 . S
H1215 C1223 0.950 . S
H1216 C1221 0.950 . S
H1217 C1222 0.949 . S
H1218 C1224 0.950 1_554 S
H1219 C1225 0.950 . S
H1220 C1226 0.949 . S
C1221 H1216 0.950 . S
C1221 C1223 1.327 . S
C1221 C1227 1.429 . S
C1222 C1214 1.574 . S
C1222 H1217 0.949 . S
C1222 C1228 1.368 . S
C1223 C1207 1.349 . S
C1223 H1215 0.950 . S
C1223 C1221 1.327 . S
C1224 C1212 1.349 1_556 S
C1224 H1218 0.950 1_556 S
C1224 C1225 1.327 . S
C1225 H1219 0.950 . S
C1225 C1224 1.327 . S
C1225 C1229 1.429 . S
C1226 C1209 1.574 . S
C1226 H1220 0.949 . S
C1226 C1230 1.368 . S
C1227 C1208 1.429 . S
C1227 C1221 1.429 . S
C1227 C1228 1.523 . S
C1228 C1209 1.368 . S
C1228 C1222 1.368 . S
C1228 C1227 1.523 . S
C1229 C1213 1.429 . S
C1229 C1225 1.429 . S
C1229 C1230 1.523 . S
C1230 C1214 1.368 . S
C1230 C1226 1.368 . S
C1230 C1229 1.523 . S
H1231 C1206 0.950 . S
H1232 C1208 0.950 . S
H1233 C1209 0.949 . S
H1234 C1211 0.950 . S
H1235 C1213 0.950 . S
C1236 C1237 1.349 1_556 S
C1236 C1238 1.327 . S
C1236 H1261 0.950 . S
C1237 C1236 1.349 1_554 S
C1237 C1253 1.349 . S
C1238 C1236 1.327 . S
C1238 C1257 1.429 . S
C1238 H1262 0.950 . S
C1239 C1256 1.574 . S
C1239 C1258 1.368 . S
C1239 H1263 0.949 . S
H1240 C1244 0.949 . S
C1241 C1242 1.349 . S
C1241 C1243 1.327 . S
C1241 H1264 0.950 . S
C1242 C1241 1.349 . S
C1242 C1254 1.349 . S
C1243 C1241 1.327 . S
C1243 C1259 1.429 . S
C1243 H1265 0.950 . S
C1244 H1240 0.949 . S
C1244 C1252 1.574 . S
C1244 C1260 1.368 . S
H1245 C1253 0.950 . S
H1246 C1251 0.950 . S
H1247 C1252 0.949 . S
H1248 C1254 0.950 . S
H1249 C1255 0.950 . S
H1250 C1256 0.949 . S
C1251 H1246 0.950 . S
C1251 C1253 1.327 . S
C1251 C1257 1.429 1_554 S
C1252 C1244 1.574 . S
C1252 H1247 0.949 . S
C1252 C1258 1.368 . S
C1253 C1237 1.349 . S
C1253 H1245 0.950 . S
C1253 C1251 1.327 . S
C1254 C1242 1.349 . S
C1254 H1248 0.950 . S
C1254 C1255 1.327 . S
C1255 H1249 0.950 . S
C1255 C1254 1.327 . S
C1255 C1259 1.429 . S
C1256 C1239 1.574 . S
C1256 H1250 0.949 . S
C1256 C1260 1.368 . S
C1257 C1238 1.429 . S
C1257 C1251 1.429 1_556 S
C1257 C1258 1.523 . S
C1258 C1239 1.368 . S
C1258 C1252 1.368 . S
C1258 C1257 1.523 . S
C1259 C1243 1.429 . S
C1259 C1255 1.429 . S
C1259 C1260 1.523 . S
C1260 C1244 1.368 . S
C1260 C1256 1.368 . S
C1260 C1259 1.523 . S
H1261 C1236 0.950 . S
H1262 C1238 0.950 . S
H1263 C1239 0.949 . S
H1264 C1241 0.950 . S
H1265 C1243 0.950 . S
C1266 C1267 1.349 . S
C1266 C1268 1.327 . S
C1266 H1291 0.950 . S
C1267 C1266 1.349 . S
C1267 C1283 1.349 . S
C1268 C1266 1.327 . S
C1268 C1287 1.429 . S
C1268 H1292 0.950 . S
C1269 C1286 1.574 . S
C1269 C1288 1.368 . S
C1269 H1293 0.949 . S
H1270 C1274 0.949 . S
C1271 C1272 1.349 . S
C1271 C1273 1.327 . S
C1271 H1294 0.950 . S
C1272 C1271 1.349 . S
C1272 C1284 1.349 . S
C1273 C1271 1.327 . S
C1273 C1289 1.429 . S
C1273 H1295 0.950 . S
C1274 H1270 0.949 . S
C1274 C1282 1.574 . S
C1274 C1290 1.368 . S
H1275 C1283 0.950 . S
H1276 C1281 0.950 . S
H1277 C1282 0.949 . S
H1278 C1284 0.950 . S
H1279 C1285 0.950 . S
H1280 C1286 0.949 . S
C1281 H1276 0.950 . S
C1281 C1283 1.327 . S
C1281 C1287 1.429 . S
C1282 C1274 1.574 . S
C1282 H1277 0.949 . S
C1282 C1288 1.368 . S
C1283 C1267 1.349 . S
C1283 H1275 0.950 . S
C1283 C1281 1.327 . S
C1284 C1272 1.349 . S
C1284 H1278 0.950 . S
C1284 C1285 1.327 . S
C1285 H1279 0.950 . S
C1285 C1284 1.327 . S
C1285 C1289 1.429 . S
C1286 C1269 1.574 . S
C1286 H1280 0.949 . S
C1286 C1290 1.368 . S
C1287 C1268 1.429 . S
C1287 C1281 1.429 . S
C1287 C1288 1.523 . S
C1288 C1269 1.368 . S
C1288 C1282 1.368 . S
C1288 C1287 1.523 . S
C1289 C1273 1.429 . S
C1289 C1285 1.429 . S
C1289 C1290 1.523 . S
C1290 C1274 1.368 . S
C1290 C1286 1.368 . S
C1290 C1289 1.523 . S
H1291 C1266 0.950 . S
H1292 C1268 0.950 . S
H1293 C1269 0.949 . S
H1294 C1271 0.950 . S
H1295 C1273 0.950 . S
C1296 C1297 1.349 . S
C1296 C1298 1.327 1_545 S
C1296 H1321 0.950 1_545 S
C1297 C1296 1.349 . S
C1297 C1313 1.349 . S
C1298 C1296 1.327 1_565 S
C1298 C1317 1.429 1_565 S
C1298 H1322 0.950 . S
C1299 C1316 1.574 1_545 S
C1299 C1318 1.368 1_545 S
C1299 H1323 0.949 . S
H1300 C1304 0.949 . S
C1301 C1302 1.349 . S
C1301 C1303 1.327 . S
C1301 H1324 0.950 . S
C1302 C1301 1.349 . S
C1302 C1314 1.349 . S
C1303 C1301 1.327 . S
C1303 C1319 1.429 . S
C1303 H1325 0.950 . S
C1304 H1300 0.949 . S
C1304 C1312 1.574 . S
C1304 C1320 1.368 . S
H1305 C1313 0.950 . S
H1306 C1311 0.950 . S
H1307 C1312 0.949 . S
H1308 C1314 0.950 . S
H1309 C1315 0.950 . S
H1310 C1316 0.949 1_545 S
C1311 H1306 0.950 . S
C1311 C1313 1.327 . S
C1311 C1317 1.429 . S
C1312 C1304 1.574 . S
C1312 H1307 0.949 . S
C1312 C1318 1.368 . S
C1313 C1297 1.349 . S
C1313 H1305 0.950 . S
C1313 C1311 1.327 . S
C1314 C1302 1.349 . S
C1314 H1308 0.950 . S
C1314 C1315 1.327 . S
C1315 H1309 0.950 . S
C1315 C1314 1.327 . S
C1315 C1319 1.429 . S
C1316 C1299 1.574 1_565 S
C1316 H1310 0.949 1_565 S
C1316 C1320 1.368 . S
C1317 C1298 1.429 1_545 S
C1317 C1311 1.429 . S
C1317 C1318 1.523 1_545 S
C1318 C1299 1.368 1_565 S
C1318 C1312 1.368 . S
C1318 C1317 1.523 1_565 S
C1319 C1303 1.429 . S
C1319 C1315 1.429 . S
C1319 C1320 1.523 . S
C1320 C1304 1.368 . S
C1320 C1316 1.368 . S
C1320 C1319 1.523 . S
H1321 C1296 0.950 1_565 S
H1322 C1298 0.950 . S
H1323 C1299 0.949 . S
H1324 C1301 0.950 . S
H1325 C1303 0.950 . S
C1326 C1327 1.349 . S
C1326 C1328 1.327 . S
C1326 H1351 0.950 . S
C1327 C1326 1.349 . S
C1327 C1343 1.349 . S
C1328 C1326 1.327 . S
C1328 C1347 1.429 . S
C1328 H1352 0.950 . S
C1329 C1346 1.574 . S
C1329 C1348 1.368 . S
C1329 H1353 0.949 . S
H1330 C1334 0.949 . S
C1331 C1332 1.349 . S
C1331 C1333 1.327 . S
C1331 H1354 0.950 . S
C1332 C1331 1.349 . S
C1332 C1344 1.349 . S
C1333 C1331 1.327 . S
C1333 C1349 1.429 . S
C1333 H1355 0.950 . S
C1334 H1330 0.949 . S
C1334 C1342 1.574 . S
C1334 C1350 1.368 . S
H1335 C1343 0.950 . S
H1336 C1341 0.950 . S
H1337 C1342 0.949 . S
H1338 C1344 0.950 . S
H1339 C1345 0.950 . S
H1340 C1346 0.949 . S
C1341 H1336 0.950 . S
C1341 C1343 1.327 . S
C1341 C1347 1.429 . S
C1342 C1334 1.574 . S
C1342 H1337 0.949 . S
C1342 C1348 1.368 . S
C1343 C1327 1.349 . S
C1343 H1335 0.950 . S
C1343 C1341 1.327 . S
C1344 C1332 1.349 . S
C1344 H1338 0.950 . S
C1344 C1345 1.327 . S
C1345 H1339 0.950 . S
C1345 C1344 1.327 . S
C1345 C1349 1.429 . S
C1346 C1329 1.574 . S
C1346 H1340 0.949 . S
C1346 C1350 1.368 . S
C1347 C1328 1.429 . S
C1347 C1341 1.429 . S
C1347 C1348 1.523 . S
C1348 C1329 1.368 . S
C1348 C1342 1.368 . S
C1348 C1347 1.523 . S
C1349 C1333 1.429 . S
C1349 C1345 1.429 . S
C1349 C1350 1.523 . S
C1350 C1334 1.368 . S
C1350 C1346 1.368 . S
C1350 C1349 1.523 . S
H1351 C1326 0.950 . S
H1352 C1328 0.950 . S
H1353 C1329 0.949 . S
H1354 C1331 0.950 . S
H1355 C1333 0.950 . S
C1356 C1357 1.349 . S
C1356 C1358 1.327 . S
C1356 H1381 0.950 . S
C1357 C1356 1.349 . S
C1357 C1373 1.349 . S
C1358 C1356 1.327 . S
C1358 C1377 1.429 . S
C1358 H1382 0.950 . S
C1359 C1376 1.574 . S
C1359 C1378 1.368 . S
C1359 H1383 0.949 . S
H1360 C1364 0.949 . S
C1361 C1362 1.349 . S
C1361 C1363 1.327 . S
C1361 H1384 0.950 . S
C1362 C1361 1.349 . S
C1362 C1374 1.349 . S
C1363 C1361 1.327 . S
C1363 C1379 1.429 . S
C1363 H1385 0.950 . S
C1364 H1360 0.949 . S
C1364 C1372 1.574 . S
C1364 C1380 1.368 . S
H1365 C1373 0.950 . S
H1366 C1371 0.950 . S
H1367 C1372 0.949 . S
H1368 C1374 0.950 . S
H1369 C1375 0.950 . S
H1370 C1376 0.949 . S
C1371 H1366 0.950 . S
C1371 C1373 1.327 . S
C1371 C1377 1.429 . S
C1372 C1364 1.574 . S
C1372 H1367 0.949 . S
C1372 C1378 1.368 . S
C1373 C1357 1.349 . S
C1373 H1365 0.950 . S
C1373 C1371 1.327 . S
C1374 C1362 1.349 . S
C1374 H1368 0.950 . S
C1374 C1375 1.327 . S
C1375 H1369 0.950 . S
C1375 C1374 1.327 . S
C1375 C1379 1.429 . S
C1376 C1359 1.574 . S
C1376 H1370 0.949 . S
C1376 C1380 1.368 . S
C1377 C1358 1.429 . S
C1377 C1371 1.429 . S
C1377 C1378 1.523 . S
C1378 C1359 1.368 . S
C1378 C1372 1.368 . S
C1378 C1377 1.523 . S
C1379 C1363 1.429 . S
C1379 C1375 1.429 . S
C1379 C1380 1.523 . S
C1380 C1364 1.368 . S
C1380 C1376 1.368 . S
C1380 C1379 1.523 . S
H1381 C1356 0.950 . S
H1382 C1358 0.950 . S
H1383 C1359 0.949 . S
H1384 C1361 0.950 . S
H1385 C1363 0.950 . S
C1386 C1387 1.349 . S
C1386 C1388 1.327 . S
C1386 H1411 0.950 . S
C1387 C1386 1.349 . S
C1387 C1403 1.349 . S
C1388 C1386 1.327 . S
C1388 C1407 1.429 . S
C1388 H1412 0.950 . S
C1389 C1406 1.574 . S
C1389 C1408 1.368 . S
C1389 H1413 0.949 . S
H1390 C1394 0.949 . S
C1391 C1392 1.349 . S
C1391 C1393 1.327 . S
C1391 H1414 0.950 . S
C1392 C1391 1.349 . S
C1392 C1404 1.349 . S
C1393 C1391 1.327 . S
C1393 C1409 1.429 . S
C1393 H1415 0.950 . S
C1394 H1390 0.949 . S
C1394 C1402 1.574 . S
C1394 C1410 1.368 . S
H1395 C1403 0.950 . S
H1396 C1401 0.950 . S
H1397 C1402 0.949 . S
H1398 C1404 0.950 . S
H1399 C1405 0.950 . S
H1400 C1406 0.949 . S
C1401 H1396 0.950 . S
C1401 C1403 1.327 . S
C1401 C1407 1.429 . S
C1402 C1394 1.574 . S
C1402 H1397 0.949 . S
C1402 C1408 1.368 . S
C1403 C1387 1.349 . S
C1403 H1395 0.950 . S
C1403 C1401 1.327 . S
C1404 C1392 1.349 . S
C1404 H1398 0.950 . S
C1404 C1405 1.327 . S
C1405 H1399 0.950 . S
C1405 C1404 1.327 . S
C1405 C1409 1.429 . S
C1406 C1389 1.574 . S
C1406 H1400 0.949 . S
C1406 C1410 1.368 . S
C1407 C1388 1.429 . S
C1407 C1401 1.429 . S
C1407 C1408 1.523 . S
C1408 C1389 1.368 . S
C1408 C1402 1.368 . S
C1408 C1407 1.523 . S
C1409 C1393 1.429 . S
C1409 C1405 1.429 . S
C1409 C1410 1.523 . S
C1410 C1394 1.368 . S
C1410 C1406 1.368 . S
C1410 C1409 1.523 . S
H1411 C1386 0.950 . S
H1412 C1388 0.950 . S
H1413 C1389 0.949 . S
H1414 C1391 0.950 . S
H1415 C1393 0.950 . S
C1416 C1417 1.349 . S
C1416 C1418 1.327 . S
C1416 H1441 0.950 . S
C1417 C1416 1.349 . S
C1417 C1433 1.349 . S
C1418 C1416 1.327 . S
C1418 C1437 1.429 . S
C1418 H1442 0.950 . S
C1419 C1436 1.574 1_545 S
C1419 C1438 1.368 . S
C1419 H1443 0.949 . S
H1420 C1424 0.949 . S
C1421 C1422 1.349 . S
C1421 C1423 1.327 . S
C1421 H1444 0.950 . S
C1422 C1421 1.349 . S
C1422 C1434 1.349 . S
C1423 C1421 1.327 . S
C1423 C1439 1.429 . S
C1423 H1445 0.950 . S
C1424 H1420 0.949 . S
C1424 C1432 1.574 1_565 S
C1424 C1440 1.368 . S
H1425 C1433 0.950 . S
H1426 C1431 0.950 . S
H1427 C1432 0.949 . S
H1428 C1434 0.950 . S
H1429 C1435 0.950 . S
H1430 C1436 0.949 . S
C1431 H1426 0.950 . S
C1431 C1433 1.327 . S
C1431 C1437 1.429 . S
C1432 C1424 1.574 1_545 S
C1432 H1427 0.949 . S
C1432 C1438 1.368 . S
C1433 C1417 1.349 . S
C1433 H1425 0.950 . S
C1433 C1431 1.327 . S
C1434 C1422 1.349 . S
C1434 H1428 0.950 . S
C1434 C1435 1.327 . S
C1435 H1429 0.950 . S
C1435 C1434 1.327 . S
C1435 C1439 1.429 . S
C1436 C1419 1.574 1_565 S
C1436 H1430 0.949 . S
C1436 C1440 1.368 . S
C1437 C1418 1.429 . S
C1437 C1431 1.429 . S
C1437 C1438 1.523 . S
C1438 C1419 1.368 . S
C1438 C1432 1.368 . S
C1438 C1437 1.523 . S
C1439 C1423 1.429 . S
C1439 C1435 1.429 . S
C1439 C1440 1.523 . S
C1440 C1424 1.368 . S
C1440 C1436 1.368 . S
C1440 C1439 1.523 . S
H1441 C1416 0.950 . S
H1442 C1418 0.950 . S
H1443 C1419 0.949 . S
H1444 C1421 0.950 . S
H1445 C1423 0.950 . S
C1446 C1447 1.349 . S
C1446 C1448 1.327 . S
C1446 H1471 0.950 . S
C1447 C1446 1.349 . S
C1447 C1463 1.349 . S
C1448 C1446 1.327 . S
C1448 C1467 1.429 . S
C1448 H1472 0.950 . S
C1449 C1466 1.574 . S
C1449 C1468 1.368 . S
C1449 H1473 0.949 . S
H1450 C1454 0.949 . S
C1451 C1452 1.349 . S
C1451 C1453 1.327 . S
C1451 H1474 0.950 . S
C1452 C1451 1.349 . S
C1452 C1464 1.349 . S
C1453 C1451 1.327 . S
C1453 C1469 1.429 . S
C1453 H1475 0.950 . S
C1454 H1450 0.949 . S
C1454 C1462 1.574 . S
C1454 C1470 1.368 . S
H1455 C1463 0.950 . S
H1456 C1461 0.950 . S
H1457 C1462 0.949 . S
H1458 C1464 0.950 . S
H1459 C1465 0.950 . S
H1460 C1466 0.949 . S
C1461 H1456 0.950 . S
C1461 C1463 1.327 . S
C1461 C1467 1.429 . S
C1462 C1454 1.574 . S
C1462 H1457 0.949 . S
C1462 C1468 1.368 1_455 S
C1463 C1447 1.349 . S
C1463 H1455 0.950 . S
C1463 C1461 1.327 . S
C1464 C1452 1.349 . S
C1464 H1458 0.950 . S
C1464 C1465 1.327 . S
C1465 H1459 0.950 . S
C1465 C1464 1.327 . S
C1465 C1469 1.429 . S
C1466 C1449 1.574 . S
C1466 H1460 0.949 . S
C1466 C1470 1.368 1_655 S
C1467 C1448 1.429 . S
C1467 C1461 1.429 . S
C1467 C1468 1.523 . S
C1468 C1449 1.368 . S
C1468 C1462 1.368 1_655 S
C1468 C1467 1.523 . S
C1469 C1453 1.429 . S
C1469 C1465 1.429 . S
C1469 C1470 1.523 . S
C1470 C1454 1.368 . S
C1470 C1466 1.368 1_455 S
C1470 C1469 1.523 . S
H1471 C1446 0.950 . S
H1472 C1448 0.950 . S
H1473 C1449 0.949 . S
H1474 C1451 0.950 . S
H1475 C1453 0.950 . S
C1476 C1477 1.349 . S
C1476 C1478 1.327 . S
C1476 H1501 0.950 . S
C1477 C1476 1.349 . S
C1477 C1493 1.349 . S
C1478 C1476 1.327 . S
C1478 C1497 1.429 . S
C1478 H1502 0.950 . S
C1479 C1496 1.574 . S
C1479 C1498 1.368 . S
C1479 H1503 0.949 . S
H1480 C1484 0.949 . S
C1481 C1482 1.349 . S
C1481 C1483 1.327 . S
C1481 H1504 0.950 . S
C1482 C1481 1.349 . S
C1482 C1494 1.349 . S
C1483 C1481 1.327 . S
C1483 C1499 1.429 . S
C1483 H1505 0.950 . S
C1484 H1480 0.949 . S
C1484 C1492 1.574 . S
C1484 C1500 1.368 . S
H1485 C1493 0.950 . S
H1486 C1491 0.950 . S
H1487 C1492 0.949 . S
H1488 C1494 0.950 . S
H1489 C1495 0.950 . S
H1490 C1496 0.949 . S
C1491 H1486 0.950 . S
C1491 C1493 1.327 . S
C1491 C1497 1.429 . S
C1492 C1484 1.574 . S
C1492 H1487 0.949 . S
C1492 C1498 1.368 . S
C1493 C1477 1.349 . S
C1493 H1485 0.950 . S
C1493 C1491 1.327 . S
C1494 C1482 1.349 . S
C1494 H1488 0.950 . S
C1494 C1495 1.327 . S
C1495 H1489 0.950 . S
C1495 C1494 1.327 . S
C1495 C1499 1.429 . S
C1496 C1479 1.574 . S
C1496 H1490 0.949 . S
C1496 C1500 1.368 . S
C1497 C1478 1.429 . S
C1497 C1491 1.429 . S
C1497 C1498 1.523 . S
C1498 C1479 1.368 . S
C1498 C1492 1.368 . S
C1498 C1497 1.523 . S
C1499 C1483 1.429 . S
C1499 C1495 1.429 . S
C1499 C1500 1.523 . S
C1500 C1484 1.368 . S
C1500 C1496 1.368 . S
C1500 C1499 1.523 . S
H1501 C1476 0.950 . S
H1502 C1478 0.950 . S
H1503 C1479 0.949 . S
H1504 C1481 0.950 . S
H1505 C1483 0.950 . S
C1506 C1507 1.349 . S
C1506 C1508 1.327 . S
C1506 H1531 0.950 . S
C1507 C1506 1.349 . S
C1507 C1523 1.349 . S
C1508 C1506 1.327 . S
C1508 C1527 1.429 . S
C1508 H1532 0.950 . S
C1509 C1526 1.574 . S
C1509 C1528 1.368 1_545 S
C1509 H1533 0.949 1_545 S
H1510 C1514 0.949 . S
C1511 C1512 1.349 . S
C1511 C1513 1.327 . S
C1511 H1534 0.950 . S
C1512 C1511 1.349 . S
C1512 C1524 1.349 . S
C1513 C1511 1.327 . S
C1513 C1529 1.429 . S
C1513 H1535 0.950 . S
C1514 H1510 0.949 . S
C1514 C1522 1.609 . S
C1514 C1530 1.368 . S
H1515 C1523 0.950 . S
H1516 C1521 0.950 . S
H1517 C1522 0.908 1_565 S
H1518 C1524 0.950 . S
H1519 C1525 0.950 . S
H1520 C1526 0.949 . S
C1521 H1516 0.950 . S
C1521 C1523 1.327 . S
C1521 C1527 1.429 . S
C1522 C1514 1.609 . S
C1522 H1517 0.908 1_545 S
C1522 C1528 1.381 1_545 S
C1523 C1507 1.349 . S
C1523 H1515 0.950 . S
C1523 C1521 1.327 . S
C1524 C1512 1.349 . S
C1524 H1518 0.950 . S
C1524 C1525 1.327 . S
C1525 H1519 0.950 . S
C1525 C1524 1.327 . S
C1525 C1529 1.429 . S
C1526 C1509 1.574 . S
C1526 H1520 0.949 . S
C1526 C1530 1.368 . S
C1527 C1508 1.429 . S
C1527 C1521 1.429 . S
C1527 C1528 1.523 . S
C1528 C1509 1.368 1_565 S
C1528 C1522 1.381 1_565 S
C1528 C1527 1.523 . S
C1529 C1513 1.429 . S
C1529 C1525 1.429 . S
C1529 C1530 1.523 . S
C1530 C1514 1.368 . S
C1530 C1526 1.368 . S
C1530 C1529 1.523 . S
H1531 C1506 0.950 . S
H1532 C1508 0.950 . S
H1533 C1509 0.949 1_565 S
H1534 C1511 0.950 . S
H1535 C1513 0.950 . S
C1536 C1537 1.349 . S
C1536 C1538 1.327 . S
C1536 H1561 0.950 . S
C1537 C1536 1.349 . S
C1537 C1553 1.349 . S
C1538 C1536 1.327 . S
C1538 C1557 1.429 . S
C1538 H1562 0.950 . S
C1539 C1556 1.574 . S
C1539 C1558 1.368 . S
C1539 H1563 0.949 . S
H1540 C1544 0.949 . S
C1541 C1542 1.349 . S
C1541 C1543 1.327 . S
C1541 H1564 0.950 . S
C1542 C1541 1.349 . S
C1542 C1554 1.349 . S
C1543 C1541 1.327 . S
C1543 C1559 1.429 . S
C1543 H1565 0.950 . S
C1544 H1540 0.949 . S
C1544 C1552 1.574 1_455 S
C1544 C1560 1.368 . S
H1545 C1553 0.950 . S
H1546 C1551 0.950 . S
H1547 C1552 0.949 . S
H1548 C1554 0.950 . S
H1549 C1555 0.950 . S
H1550 C1556 0.949 . S
C1551 H1546 0.950 . S
C1551 C1553 1.327 . S
C1551 C1557 1.429 . S
C1552 C1544 1.574 1_655 S
C1552 H1547 0.949 . S
C1552 C1558 1.368 . S
C1553 C1537 1.349 . S
C1553 H1545 0.950 . S
C1553 C1551 1.327 . S
C1554 C1542 1.349 . S
C1554 H1548 0.950 . S
C1554 C1555 1.327 . S
C1555 H1549 0.950 . S
C1555 C1554 1.327 . S
C1555 C1559 1.429 . S
C1556 C1539 1.574 . S
C1556 H1550 0.949 . S
C1556 C1560 1.368 1_655 S
C1557 C1538 1.429 . S
C1557 C1551 1.429 . S
C1557 C1558 1.523 . S
C1558 C1539 1.368 . S
C1558 C1552 1.368 . S
C1558 C1557 1.523 . S
C1559 C1543 1.429 . S
C1559 C1555 1.429 . S
C1559 C1560 1.523 . S
C1560 C1544 1.368 . S
C1560 C1556 1.368 1_455 S
C1560 C1559 1.523 . S
H1561 C1536 0.950 . S
H1562 C1538 0.950 . S
H1563 C1539 0.949 . S
H1564 C1541 0.950 . S
H1565 C1543 0.950 . S
C757 C68 3.380 1_556 S
C762 C56 3.380 . S
C787 C140 3.393 . S
C792 C152 3.393 . S
C817 C236 3.414 . S
C822 C224 3.414 . S
C847 C308 3.380 . S
C852 C320 3.380 1_556 S
C877 C404 3.393 . S
C882 C392 3.393 . S
C907 C476 3.414 . S
C912 C488 3.414 . S
C937 C574 2.268 . S
C942 C562 2.268 1_556 S
C967 C646 2.265 . S
C972 C658 2.265 1_556 S
C997 C742 1.919 . S
C1002 C730 1.919 1_556 S
C1027 C487 1.730 . S
C1032 C70 1.466 . S
C1057 C151 2.145 . S
C1062 C319 2.142 . S
C1087 C238 1.156 1_565 S
C1092 C406 1.155 . S
C1117 C235 2.169 1_556 S
C1122 C559 2.173 . S
C1147 C644 1.419 . S
C1152 C67 1.428 . S
C1177 C727 1.245 . S
C1182 C154 1.196 1_556 S
C1207 C740 0.929 . S
C1212 C58 0.901 . S
C1237 C139 1.747 . S
C1242 C572 1.729 . S
C1267 C655 1.682 . S
C1272 C226 1.601 . S
C1297 C223 1.730 . S
C1302 C310 1.466 . S
C1327 C391 2.145 . S
C1332 C55 2.142 . S
C1357 C142 1.155 . S
C1362 C478 1.156 . S
C1387 C728 0.928 . S
C1392 C322 0.901 . S
C1417 C560 1.729 . S
C1422 C403 1.747 . S
C1447 C643 1.682 . S
C1452 C490 1.601 . S
C1477 C571 2.173 . S
C1482 C475 2.169 . S
C1507 C307 1.428 . S
C1512 C656 1.419 . S
C1537 C739 1.245 . S
C1542 C394 1.197 . S
