# Generated by pormake.
# Topology vcc, (6)-cn, num edge types: 1
# Building blocks:
#     Node 0, Type 0, BuildingBlock: BETDEL_clean_sbu_0, # of connection points: 6
#     Node 1, Type 0, BuildingBlock: BETDEL_clean_sbu_0, # of connection points: 6
#     Node 2, Type 0, BuildingBlock: BETDEL_clean_sbu_0, # of connection points: 6
#     Node 3, Type 0, BuildingBlock: BETDEL_clean_sbu_0, # of connection points: 6
#     Node 4, Type 0, BuildingBlock: BETDEL_clean_sbu_0, # of connection points: 6
#     Node 5, Type 0, BuildingBlock: BETDEL_clean_sbu_0, # of connection points: 6
#     Node 6, Type 0, BuildingBlock: BETDEL_clean_sbu_0, # of connection points: 6
#     Node 7, Type 0, BuildingBlock: BETDEL_clean_sbu_0, # of connection points: 6
#     Node 8, Type 0, BuildingBlock: BETDEL_clean_sbu_0, # of connection points: 6
#     Node 9, Type 0, BuildingBlock: BETDEL_clean_sbu_0, # of connection points: 6
#     Node 10, Type 0, BuildingBlock: BETDEL_clean_sbu_0, # of connection points: 6
#     Node 11, Type 0, BuildingBlock: BETDEL_clean_sbu_0, # of connection points: 6
#     Node 12, Type 0, BuildingBlock: BETDEL_clean_sbu_0, # of connection points: 6
#     Node 13, Type 0, BuildingBlock: BETDEL_clean_sbu_0, # of connection points: 6
#     Node 14, Type 0, BuildingBlock: BETDEL_clean_sbu_0, # of connection points: 6
#     Node 15, Type 0, BuildingBlock: BETDEL_clean_sbu_0, # of connection points: 6
#     Node 16, Type 0, BuildingBlock: BETDEL_clean_sbu_0, # of connection points: 6
#     Node 17, Type 0, BuildingBlock: BETDEL_clean_sbu_0, # of connection points: 6
#     Node 18, Type 0, BuildingBlock: BETDEL_clean_sbu_0, # of connection points: 6
#     Node 19, Type 0, BuildingBlock: BETDEL_clean_sbu_0, # of connection points: 6
#     Node 20, Type 0, BuildingBlock: BETDEL_clean_sbu_0, # of connection points: 6
#     Node 21, Type 0, BuildingBlock: BETDEL_clean_sbu_0, # of connection points: 6
#     Node 22, Type 0, BuildingBlock: BETDEL_clean_sbu_0, # of connection points: 6
#     Node 23, Type 0, BuildingBlock: BETDEL_clean_sbu_0, # of connection points: 6
#     Node 24, Type 0, BuildingBlock: BETDEL_clean_sbu_0, # of connection points: 6
#     Node 25, Type 0, BuildingBlock: BETDEL_clean_sbu_0, # of connection points: 6
#     Node 26, Type 0, BuildingBlock: BETDEL_clean_sbu_0, # of connection points: 6
#     Node 27, Type 0, BuildingBlock: BETDEL_clean_sbu_0, # of connection points: 6
#     Node 28, Type 0, BuildingBlock: BETDEL_clean_sbu_0, # of connection points: 6
#     Node 29, Type 0, BuildingBlock: BETDEL_clean_sbu_0, # of connection points: 6
#     Node 30, Type 0, BuildingBlock: BETDEL_clean_sbu_0, # of connection points: 6
#     Node 31, Type 0, BuildingBlock: BETDEL_clean_sbu_0, # of connection points: 6
#     Edge 32, Type (0, 0), BuildingBlock: EZIPEK_clean_linker_0, # of connection points: 2
#     Edge 33, Type (0, 0), BuildingBlock: EZIPEK_clean_linker_0, # of connection points: 2
#     Edge 34, Type (0, 0), BuildingBlock: EZIPEK_clean_linker_0, # of connection points: 2
#     Edge 35, Type (0, 0), BuildingBlock: EZIPEK_clean_linker_0, # of connection points: 2
#     Edge 36, Type (0, 0), BuildingBlock: EZIPEK_clean_linker_0, # of connection points: 2
#     Edge 37, Type (0, 0), BuildingBlock: EZIPEK_clean_linker_0, # of connection points: 2
#     Edge 38, Type (0, 0), BuildingBlock: EZIPEK_clean_linker_0, # of connection points: 2
#     Edge 39, Type (0, 0), BuildingBlock: EZIPEK_clean_linker_0, # of connection points: 2
#     Edge 40, Type (0, 0), BuildingBlock: EZIPEK_clean_linker_0, # of connection points: 2
#     Edge 41, Type (0, 0), BuildingBlock: EZIPEK_clean_linker_0, # of connection points: 2
#     Edge 42, Type (0, 0), BuildingBlock: EZIPEK_clean_linker_0, # of connection points: 2
#     Edge 43, Type (0, 0), BuildingBlock: EZIPEK_clean_linker_0, # of connection points: 2
#     Edge 44, Type (0, 0), BuildingBlock: EZIPEK_clean_linker_0, # of connection points: 2
#     Edge 45, Type (0, 0), BuildingBlock: EZIPEK_clean_linker_0, # of connection points: 2
#     Edge 46, Type (0, 0), BuildingBlock: EZIPEK_clean_linker_0, # of connection points: 2
#     Edge 47, Type (0, 0), BuildingBlock: EZIPEK_clean_linker_0, # of connection points: 2
#     Edge 48, Type (0, 0), BuildingBlock: EZIPEK_clean_linker_0, # of connection points: 2
#     Edge 49, Type (0, 0), BuildingBlock: EZIPEK_clean_linker_0, # of connection points: 2
#     Edge 50, Type (0, 0), BuildingBlock: EZIPEK_clean_linker_0, # of connection points: 2
#     Edge 51, Type (0, 0), BuildingBlock: EZIPEK_clean_linker_0, # of connection points: 2
#     Edge 52, Type (0, 0), BuildingBlock: EZIPEK_clean_linker_0, # of connection points: 2
#     Edge 53, Type (0, 0), BuildingBlock: EZIPEK_clean_linker_0, # of connection points: 2
#     Edge 54, Type (0, 0), BuildingBlock: EZIPEK_clean_linker_0, # of connection points: 2
#     Edge 55, Type (0, 0), BuildingBlock: EZIPEK_clean_linker_0, # of connection points: 2
#     Edge 56, Type (0, 0), BuildingBlock: EZIPEK_clean_linker_0, # of connection points: 2
#     Edge 57, Type (0, 0), BuildingBlock: EZIPEK_clean_linker_0, # of connection points: 2
#     Edge 58, Type (0, 0), BuildingBlock: EZIPEK_clean_linker_0, # of connection points: 2
#     Edge 59, Type (0, 0), BuildingBlock: EZIPEK_clean_linker_0, # of connection points: 2
#     Edge 60, Type (0, 0), BuildingBlock: EZIPEK_clean_linker_0, # of connection points: 2
#     Edge 61, Type (0, 0), BuildingBlock: EZIPEK_clean_linker_0, # of connection points: 2
#     Edge 62, Type (0, 0), BuildingBlock: EZIPEK_clean_linker_0, # of connection points: 2
#     Edge 63, Type (0, 0), BuildingBlock: EZIPEK_clean_linker_0, # of connection points: 2
#     Edge 64, Type (0, 0), BuildingBlock: EZIPEK_clean_linker_0, # of connection points: 2
#     Edge 65, Type (0, 0), BuildingBlock: EZIPEK_clean_linker_0, # of connection points: 2
#     Edge 66, Type (0, 0), BuildingBlock: EZIPEK_clean_linker_0, # of connection points: 2
#     Edge 67, Type (0, 0), BuildingBlock: EZIPEK_clean_linker_0, # of connection points: 2
#     Edge 68, Type (0, 0), BuildingBlock: EZIPEK_clean_linker_0, # of connection points: 2
#     Edge 69, Type (0, 0), BuildingBlock: EZIPEK_clean_linker_0, # of connection points: 2
#     Edge 70, Type (0, 0), BuildingBlock: EZIPEK_clean_linker_0, # of connection points: 2
#     Edge 71, Type (0, 0), BuildingBlock: EZIPEK_clean_linker_0, # of connection points: 2
#     Edge 72, Type (0, 0), BuildingBlock: EZIPEK_clean_linker_0, # of connection points: 2
#     Edge 73, Type (0, 0), BuildingBlock: EZIPEK_clean_linker_0, # of connection points: 2
#     Edge 74, Type (0, 0), BuildingBlock: EZIPEK_clean_linker_0, # of connection points: 2
#     Edge 75, Type (0, 0), BuildingBlock: EZIPEK_clean_linker_0, # of connection points: 2
#     Edge 76, Type (0, 0), BuildingBlock: EZIPEK_clean_linker_0, # of connection points: 2
#     Edge 77, Type (0, 0), BuildingBlock: EZIPEK_clean_linker_0, # of connection points: 2
#     Edge 78, Type (0, 0), BuildingBlock: EZIPEK_clean_linker_0, # of connection points: 2
#     Edge 79, Type (0, 0), BuildingBlock: EZIPEK_clean_linker_0, # of connection points: 2
#     Edge 80, Type (0, 0), BuildingBlock: EZIPEK_clean_linker_0, # of connection points: 2
#     Edge 81, Type (0, 0), BuildingBlock: EZIPEK_clean_linker_0, # of connection points: 2
#     Edge 82, Type (0, 0), BuildingBlock: EZIPEK_clean_linker_0, # of connection points: 2
#     Edge 83, Type (0, 0), BuildingBlock: EZIPEK_clean_linker_0, # of connection points: 2
#     Edge 84, Type (0, 0), BuildingBlock: EZIPEK_clean_linker_0, # of connection points: 2
#     Edge 85, Type (0, 0), BuildingBlock: EZIPEK_clean_linker_0, # of connection points: 2
#     Edge 86, Type (0, 0), BuildingBlock: EZIPEK_clean_linker_0, # of connection points: 2
#     Edge 87, Type (0, 0), BuildingBlock: EZIPEK_clean_linker_0, # of connection points: 2
#     Edge 88, Type (0, 0), BuildingBlock: EZIPEK_clean_linker_0, # of connection points: 2
#     Edge 89, Type (0, 0), BuildingBlock: EZIPEK_clean_linker_0, # of connection points: 2
#     Edge 90, Type (0, 0), BuildingBlock: EZIPEK_clean_linker_0, # of connection points: 2
#     Edge 91, Type (0, 0), BuildingBlock: EZIPEK_clean_linker_0, # of connection points: 2
#     Edge 92, Type (0, 0), BuildingBlock: EZIPEK_clean_linker_0, # of connection points: 2
#     Edge 93, Type (0, 0), BuildingBlock: EZIPEK_clean_linker_0, # of connection points: 2
#     Edge 94, Type (0, 0), BuildingBlock: EZIPEK_clean_linker_0, # of connection points: 2
#     Edge 95, Type (0, 0), BuildingBlock: EZIPEK_clean_linker_0, # of connection points: 2
#     Edge 96, Type (0, 0), BuildingBlock: EZIPEK_clean_linker_0, # of connection points: 2
#     Edge 97, Type (0, 0), BuildingBlock: EZIPEK_clean_linker_0, # of connection points: 2
#     Edge 98, Type (0, 0), BuildingBlock: EZIPEK_clean_linker_0, # of connection points: 2
#     Edge 99, Type (0, 0), BuildingBlock: EZIPEK_clean_linker_0, # of connection points: 2
#     Edge 100, Type (0, 0), BuildingBlock: EZIPEK_clean_linker_0, # of connection points: 2
#     Edge 101, Type (0, 0), BuildingBlock: EZIPEK_clean_linker_0, # of connection points: 2
#     Edge 102, Type (0, 0), BuildingBlock: EZIPEK_clean_linker_0, # of connection points: 2
#     Edge 103, Type (0, 0), BuildingBlock: EZIPEK_clean_linker_0, # of connection points: 2
#     Edge 104, Type (0, 0), BuildingBlock: EZIPEK_clean_linker_0, # of connection points: 2
#     Edge 105, Type (0, 0), BuildingBlock: EZIPEK_clean_linker_0, # of connection points: 2
#     Edge 106, Type (0, 0), BuildingBlock: EZIPEK_clean_linker_0, # of connection points: 2
#     Edge 107, Type (0, 0), BuildingBlock: EZIPEK_clean_linker_0, # of connection points: 2
#     Edge 108, Type (0, 0), BuildingBlock: EZIPEK_clean_linker_0, # of connection points: 2
#     Edge 109, Type (0, 0), BuildingBlock: EZIPEK_clean_linker_0, # of connection points: 2
#     Edge 110, Type (0, 0), BuildingBlock: EZIPEK_clean_linker_0, # of connection points: 2
#     Edge 111, Type (0, 0), BuildingBlock: EZIPEK_clean_linker_0, # of connection points: 2
#     Edge 112, Type (0, 0), BuildingBlock: EZIPEK_clean_linker_0, # of connection points: 2
#     Edge 113, Type (0, 0), BuildingBlock: EZIPEK_clean_linker_0, # of connection points: 2
#     Edge 114, Type (0, 0), BuildingBlock: EZIPEK_clean_linker_0, # of connection points: 2
#     Edge 115, Type (0, 0), BuildingBlock: EZIPEK_clean_linker_0, # of connection points: 2
#     Edge 116, Type (0, 0), BuildingBlock: EZIPEK_clean_linker_0, # of connection points: 2
#     Edge 117, Type (0, 0), BuildingBlock: EZIPEK_clean_linker_0, # of connection points: 2
#     Edge 118, Type (0, 0), BuildingBlock: EZIPEK_clean_linker_0, # of connection points: 2
#     Edge 119, Type (0, 0), BuildingBlock: EZIPEK_clean_linker_0, # of connection points: 2
#     Edge 120, Type (0, 0), BuildingBlock: EZIPEK_clean_linker_0, # of connection points: 2
#     Edge 121, Type (0, 0), BuildingBlock: EZIPEK_clean_linker_0, # of connection points: 2
#     Edge 122, Type (0, 0), BuildingBlock: EZIPEK_clean_linker_0, # of connection points: 2
#     Edge 123, Type (0, 0), BuildingBlock: EZIPEK_clean_linker_0, # of connection points: 2
#     Edge 124, Type (0, 0), BuildingBlock: EZIPEK_clean_linker_0, # of connection points: 2
#     Edge 125, Type (0, 0), BuildingBlock: EZIPEK_clean_linker_0, # of connection points: 2
#     Edge 126, Type (0, 0), BuildingBlock: EZIPEK_clean_linker_0, # of connection points: 2
#     Edge 127, Type (0, 0), BuildingBlock: EZIPEK_clean_linker_0, # of connection points: 2
# Relax obj value: 0.093
# Max RMSD: 0.136
# Mean RMSD: 0.136
data_MOF--net-vcc--node1-BETDEL_clean_sbu_0--edge1-EZIPEK_clean_linker_0
_symmetry_space_group_name_H-M    P1
_symmetry_Int_Tables_number       1
_symmetry_cell_setting            triclinic
loop_
_symmetry_equiv_pos_as_xyz
'x, y, z'
_cell_length_a     29.573728
_cell_length_b     40.555656
_cell_length_c     34.042749
_cell_angle_alpha  89.952845
_cell_angle_beta   90.061699
_cell_angle_gamma 89.910134
loop_
_atom_site_label
_atom_site_type_symbol
_atom_site_fract_x
_atom_site_fract_y
_atom_site_fract_z
_atom_type_partial_charge
Dy0 Dy 0.35576 0.02797 0.06231 0.0
C1 C 0.23323 1.00842 0.1854 0.0
C2 C 0.37538 0.01977 0.98389 0.0
Dy3 Dy 0.2851 1.00982 0.11847 0.0
O4 O 0.39357 0.04243 1.00651 0.0
O5 O 0.3516 1.00011 1.0056 0.0
O6 O 0.371 0.0767 0.0897 0.0
O7 O 0.30466 0.05742 0.0937 0.0
C8 C 0.33152 0.07949 0.10661 0.0
C9 C 0.31968 0.95677 0.08079 0.0
O10 O 0.23785 1.01444 0.06691 0.0
O11 O 0.29306 0.03658 0.0275 0.0
O12 O 0.26289 0.98646 0.1752 0.0
O13 O 0.23062 0.03033 0.15772 0.0
O14 O 0.27688 0.96151 0.08743 0.0
O15 O 0.34117 0.9815 0.09359 0.0
O16 O 0.4049 0.01529 0.11079 0.0
O17 O 0.34698 0.01572 0.15672 0.0
C18 C 0.25151 0.02651 0.03288 0.0
C19 C 0.39052 0.01501 0.1479 0.0
Dy20 Dy 0.86205 0.24438 0.05886 0.0
C21 C 0.97491 0.25907 0.18694 0.0
C22 C 0.83724 0.2517 0.98158 0.0
Dy23 Dy 0.93084 0.25942 0.11672 0.0
O24 O 0.82001 0.22979 1.00557 0.0
O25 O 0.86335 0.27116 1.00133 0.0
O26 O 0.84629 0.19354 0.07899 0.0
O27 O 0.91154 0.21256 0.08913 0.0
C28 C 0.8838 0.18959 0.09852 0.0
C29 C 0.89681 0.31468 0.08162 0.0
O30 O 0.9819 0.24956 0.06981 0.0
O31 O 0.92591 0.24518 0.0233 0.0
O32 O 0.97255 0.28423 0.16343 0.0
O33 O 0.95565 0.23378 0.17098 0.0
O34 O 0.93935 0.30894 0.08801 0.0
O35 O 0.87478 0.28962 0.09285 0.0
O36 O 0.81298 0.25511 0.10893 0.0
O37 O 0.87022 0.25789 0.15509 0.0
C38 C 0.96888 0.24697 0.03284 0.0
C39 C 0.82691 0.25681 0.14631 0.0
Dy40 Dy 0.35354 0.25456 0.23341 0.0
C41 C 0.23792 0.28361 0.10931 0.0
C42 C 0.37488 0.26003 0.31157 0.0
Dy43 Dy 0.28661 0.27401 0.17704 0.0
O44 O 0.39158 0.23756 0.28796 0.0
O45 O 0.35175 0.281 0.29103 0.0
O46 O 0.3686 0.2057 0.20707 0.0
O47 O 0.30245 0.22525 0.20121 0.0
C48 C 0.32967 0.20291 0.18939 0.0
C49 C 0.32021 0.32654 0.21572 0.0
O50 O 0.23652 0.26922 0.22611 0.0
O51 O 0.29049 0.24876 0.26801 0.0
O52 O 0.23145 0.26012 0.13457 0.0
O53 O 0.27047 0.302 0.1221 0.0
O54 O 0.27764 0.3211 0.20984 0.0
O55 O 0.34252 0.30207 0.20297 0.0
O56 O 0.4043 0.26585 0.18631 0.0
O57 O 0.34767 0.26418 0.13944 0.0
C58 C 0.24905 0.25824 0.26093 0.0
C59 C 0.39095 0.26499 0.149 0.0
Dy60 Dy 0.86564 0.02001 0.2392 0.0
C61 C 0.97383 0.99846 0.10333 0.0
C62 C 0.83202 0.0232 0.31357 0.0
Dy63 Dy 0.93191 0.99854 0.17369 0.0
O64 O 0.82642 0.04611 0.28697 0.0
O65 O 0.84892 0.99717 0.29705 0.0
O66 O 0.89698 0.07098 0.23557 0.0
O67 O 0.89249 0.0432 0.18547 0.0
C68 C 0.90576 0.07073 0.19823 0.0
C69 C 0.90253 0.94343 0.21083 0.0
O70 O 0.98251 1.01083 0.22104 0.0
O71 O 0.92974 1.011 0.27123 0.0
O72 O 0.94408 0.97713 0.11459 0.0
O73 O 0.98286 0.01921 0.13144 0.0
O74 O 0.93265 0.94349 0.18307 0.0
O75 O 0.89254 0.97328 0.21812 0.0
O76 O 0.81291 1.00939 0.19309 0.0
O77 O 0.86596 1.00452 0.1424 0.0
C78 C 0.9717 1.01168 0.25883 0.0
C79 C 0.82376 1.00556 0.15532 0.0
Dy80 Dy 0.68557 1.01478 0.92859 0.0
C81 C 0.59655 0.99781 0.0674 0.0
C82 C 0.72566 1.00891 0.85728 0.0
Dy83 Dy 0.61936 1.00539 0.9896 0.0
O84 O 0.73635 0.03094 0.88334 0.0
O85 O 0.69472 0.98959 0.87088 0.0
O86 O 0.70186 0.06607 0.94938 0.0
O87 O 0.63543 0.04891 0.95361 0.0
C88 C 0.66088 0.07334 0.96002 0.0
C89 C 0.63646 0.94949 0.94927 0.0
O90 O 0.5671 0.01864 0.94417 0.0
O91 O 0.62035 1.01454 0.8944 0.0
O92 O 0.62268 0.97871 0.04725 0.0
O93 O 0.57917 0.02004 0.04399 0.0
O94 O 0.59694 0.95885 0.9616 0.0
O95 O 0.66603 0.97025 0.96032 0.0
O96 O 0.73238 0.99979 0.97735 0.0
O97 O 0.68186 0.02417 1.01814 0.0
C98 C 0.57802 0.01822 0.90621 0.0
C99 C 0.72174 1.0111 1.01244 0.0
Dy100 Dy 0.04237 0.76248 0.92528 0.0
C101 C 0.14309 0.77919 0.06774 0.0
C102 C 0.00035 0.7711 0.85508 0.0
Dy103 Dy 0.11333 0.77772 0.99155 0.0
O104 O -0.0153 0.75275 0.88338 0.0
O105 O 0.03682 0.78591 0.86628 0.0
O106 O 0.04335 0.70656 0.92821 0.0
O107 O 0.08262 0.73394 0.96606 0.0
C108 C 0.07303 0.70454 0.95639 0.0
C109 C 0.07444 0.83218 0.95581 0.0
O110 O 0.16322 0.77127 0.94166 0.0
O111 O 0.10829 0.75843 0.89378 0.0
O112 O 0.12308 0.80303 0.04926 0.0
O113 O 0.15367 0.75629 0.04233 0.0
O114 O 0.08809 0.83077 0.99196 0.0
O115 O 0.08449 0.80462 0.94114 0.0
O116 O -0.00213 0.77778 0.97605 0.0
O117 O 0.05093 0.75927 1.02005 0.0
C118 C 0.15072 0.76346 0.90489 0.0
C119 C 0.00993 0.76968 1.01235 0.0
Dy120 Dy 0.68167 0.76502 0.86558 0.0
C121 C 0.59309 0.78695 0.72749 0.0
C122 C 0.72462 0.76682 0.93637 0.0
Dy123 Dy 0.61235 0.77924 0.80591 0.0
O124 O 0.72903 0.74342 0.91063 0.0
O125 O 0.69924 0.79001 0.92226 0.0
O126 O 0.693 0.71464 0.84055 0.0
O127 O 0.62747 0.73425 0.84012 0.0
C128 C 0.65103 0.70917 0.8312 0.0
C129 C 0.63129 0.83306 0.848 0.0
O130 O 0.56245 0.77157 0.856 0.0
O131 O 0.61939 0.76297 0.90186 0.0
O132 O 0.62047 0.80475 0.74811 0.0
O133 O 0.57194 0.7664 0.75088 0.0
O134 O 0.59373 0.8286 0.82892 0.0
O135 O 0.66014 0.81112 0.83772 0.0
O136 O 0.72815 0.77803 0.81605 0.0
O137 O 0.673 0.75915 0.77516 0.0
C138 C 0.57638 0.76726 0.89317 0.0
C139 C 0.71468 0.76884 0.78079 0.0
Dy140 Dy 0.04396 0.02007 0.86852 0.0
C141 C 0.13532 0.99075 0.72852 0.0
C142 C 0.00092 0.01715 0.93838 0.0
Dy143 Dy 0.11486 1.00076 0.8059 0.0
O144 O 0.03221 0.03795 0.92931 0.0
O145 O -0.00879 0.99837 0.90854 0.0
O146 O 0.04236 0.07531 0.86051 0.0
O147 O 0.0858 0.04672 0.82706 0.0
C148 C 0.07446 0.07631 0.83441 0.0
C149 C 0.09472 0.95134 0.85711 0.0
O150 O 0.16247 0.02207 0.85065 0.0
O151 O 0.10978 1.01419 0.90033 0.0
O152 O 0.10777 0.97326 0.74946 0.0
O153 O 0.15699 1.01116 0.75162 0.0
O154 O 0.13332 0.95445 0.83903 0.0
O155 O 0.06759 0.9731 0.84364 0.0
O156 O -0.00505 0.01489 0.8185 0.0
O157 O 0.05237 1.01394 0.77215 0.0
C158 C 0.15111 0.02174 0.88847 0.0
C159 C 0.00918 0.0148 0.78154 0.0
Dy160 Dy 0.35746 0.53259 0.56127 0.0
C161 C 0.247 0.51159 0.68863 0.0
C162 C 0.38424 0.52969 0.48409 0.0
Dy163 Dy 0.28899 0.5148 0.61743 0.0
O164 O 0.39598 0.55278 0.50881 0.0
O165 O 0.36339 0.50674 0.50327 0.0
O166 O 0.37229 0.58278 0.58321 0.0
O167 O 0.30688 0.56312 0.5922 0.0
C168 C 0.33454 0.58603 0.60239 0.0
C169 C 0.32469 0.4609 0.58137 0.0
O170 O 0.23789 0.52365 0.56992 0.0
O171 O 0.29477 0.53056 0.5249 0.0
O172 O 0.24967 0.48741 0.66378 0.0
O173 O 0.26378 0.53803 0.67311 0.0
O174 O 0.28181 0.46623 0.58666 0.0
O175 O 0.34622 0.48599 0.59349 0.0
O176 O 0.40696 0.52364 0.61102 0.0
O177 O 0.34958 0.51558 0.65596 0.0
C178 C 0.25181 0.52748 0.53335 0.0
C179 C 0.39265 0.51986 0.64796 0.0
Dy180 Dy 0.85939 0.74829 0.55466 0.0
C181 C 0.96261 0.77355 0.68909 0.0
C182 C 0.82389 0.74686 0.48026 0.0
Dy183 Dy 0.92298 0.76812 0.61752 0.0
O184 O 0.81633 0.72469 0.5074 0.0
O185 O 0.84614 0.77099 0.49601 0.0
O186 O 0.89034 0.69678 0.55573 0.0
O187 O 0.88633 0.72271 0.60683 0.0
C188 C 0.89993 0.69585 0.59288 0.0
C189 C 0.89594 0.82044 0.57274 0.0
O190 O 0.97282 0.75098 0.57167 0.0
O191 O 0.92211 0.76126 0.52254 0.0
O192 O 0.93406 0.79437 0.67433 0.0
O193 O 0.97221 0.75079 0.66355 0.0
O194 O 0.93594 0.81669 0.58806 0.0
O195 O 0.87234 0.79601 0.5837 0.0
O196 O 0.80526 0.75695 0.60023 0.0
O197 O 0.85828 0.76297 0.65063 0.0
C198 C 0.96341 0.75489 0.53397 0.0
C199 C 0.81603 0.76102 0.63804 0.0
Dy200 Dy 0.35539 0.76261 0.735 0.0
C201 C 0.24968 0.77141 0.60417 0.0
C202 C 0.38372 0.75786 0.81185 0.0
Dy203 Dy 0.28948 0.77506 0.67644 0.0
O204 O 0.38643 0.73447 0.78589 0.0
O205 O 0.37231 0.78479 0.79385 0.0
O206 O 0.37285 0.715 0.70675 0.0
O207 O 0.3046 0.72892 0.7075 0.0
C208 C 0.33231 0.70681 0.69599 0.0
C209 C 0.31742 0.83246 0.70954 0.0
O210 O 0.23985 0.76197 0.72402 0.0
O211 O 0.29385 0.77417 0.76966 0.0
O212 O 0.24075 0.79386 0.63026 0.0
O213 O 0.27898 0.75088 0.61805 0.0
O214 O 0.27601 0.82597 0.6995 0.0
O215 O 0.34209 0.80787 0.701 0.0
O216 O 0.40774 0.77615 0.69045 0.0
O217 O 0.35398 0.7713 0.64155 0.0
C218 C 0.25188 0.76743 0.76084 0.0
C219 C 0.39658 0.77446 0.65273 0.0
Dy220 Dy 0.85967 0.5241 0.73547 0.0
C221 C 0.96713 0.52047 0.60334 0.0
C222 C 0.83547 0.51561 0.8124 0.0
Dy223 Dy 0.93049 0.51118 0.67533 0.0
O224 O 0.81868 0.5383 0.7892 0.0
O225 O 0.85954 0.49545 0.79157 0.0
O226 O 0.8431 0.57519 0.71582 0.0
O227 O 0.90795 0.55601 0.70518 0.0
C228 C 0.88036 0.57915 0.69597 0.0
C229 C 0.89922 0.45469 0.70952 0.0
O230 O 0.98037 0.5226 0.72254 0.0
O231 O 0.92447 0.52571 0.76967 0.0
O232 O 0.97508 0.49482 0.62539 0.0
O233 O 0.94245 0.5416 0.62198 0.0
O234 O 0.9405 0.45934 0.69741 0.0
O235 O 0.87651 0.48024 0.70068 0.0
O236 O 0.81166 0.5136 0.6846 0.0
O237 O 0.8692 0.51046 0.63836 0.0
C238 C 0.96736 0.5254 0.7595 0.0
C239 C 0.82608 0.51192 0.64735 0.0
Dy240 Dy 0.67337 0.51591 0.42511 0.0
C241 C 0.58407 0.50131 0.56472 0.0
C242 C 0.7038 0.52249 0.35012 0.0
Dy243 Dy 0.60974 0.50035 0.48741 0.0
O244 O 0.72869 0.51213 0.37917 0.0
O245 O 0.66386 0.5297 0.3623 0.0
O246 O 0.68727 0.56584 0.44966 0.0
O247 O 0.62239 0.54642 0.45517 0.0
C248 C 0.64732 0.57065 0.46411 0.0
C249 C 0.63409 0.44632 0.44654 0.0
O250 O 0.5586 0.51428 0.44149 0.0
O251 O 0.61041 0.49918 0.39449 0.0
O252 O 0.57174 0.47889 0.53942 0.0
O253 O 0.60471 0.5247 0.54617 0.0
O254 O 0.59468 0.45069 0.46268 0.0
O255 O 0.66037 0.46968 0.45617 0.0
O256 O 0.72691 0.50444 0.46983 0.0
O257 O 0.67466 0.50419 0.51994 0.0
C258 C 0.56889 0.50756 0.4044 0.0
C259 C 0.71662 0.50364 0.50766 0.0
Dy260 Dy 0.04042 0.26184 0.42659 0.0
C261 C 0.13143 0.27614 0.56428 0.0
C262 C 0.00172 0.26308 0.35426 0.0
Dy263 Dy 0.10752 0.2795 0.48685 0.0
O264 O -0.00323 0.23927 0.37946 0.0
O265 O 0.02563 0.28653 0.36931 0.0
O266 O 0.0296 0.212 0.454 0.0
O267 O 0.09312 0.23317 0.45662 0.0
C268 C 0.07034 0.20852 0.46796 0.0
C269 C 0.08649 0.3311 0.44087 0.0
O270 O 0.15929 0.26475 0.44161 0.0
O271 O 0.10495 0.25926 0.39278 0.0
O272 O 0.14423 0.29946 0.54022 0.0
O273 O 0.11155 0.25313 0.54439 0.0
O274 O 0.12511 0.32766 0.4588 0.0
O275 O 0.0586 0.30936 0.45315 0.0
O276 O -0.01135 0.27576 0.47151 0.0
O277 O 0.04226 0.28031 0.52028 0.0
C278 C 0.1476 0.26054 0.40418 0.0
C279 C -0.0002 0.27923 0.5089 0.0
Dy280 Dy 0.67343 0.25735 0.36872 0.0
C281 C 0.58498 0.27994 0.23163 0.0
C282 C 0.71107 0.25612 0.44153 0.0
Dy283 Dy 0.60798 0.27597 0.30967 0.0
O284 O 0.71471 0.23251 0.41594 0.0
O285 O 0.6895 0.28087 0.42646 0.0
O286 O 0.68632 0.21001 0.33752 0.0
O287 O 0.6203 0.2284 0.33947 0.0
C288 C 0.64447 0.20437 0.32822 0.0
C289 C 0.63111 0.32699 0.35588 0.0
O290 O 0.55461 0.2591 0.35251 0.0
O291 O 0.60783 0.25427 0.40212 0.0
O292 O 0.57143 0.30067 0.25852 0.0
O293 O 0.60585 0.25579 0.24854 0.0
O294 O 0.59144 0.3235 0.34007 0.0
O295 O 0.65814 0.3052 0.34272 0.0
O296 O 0.72621 0.2694 0.32362 0.0
O297 O 0.67217 0.271 0.27528 0.0
C298 C 0.56516 0.25502 0.39026 0.0
C299 C 0.7148 0.27047 0.28605 0.0
Dy300 Dy 0.03935 0.52582 0.36833 0.0
C301 C 0.12903 0.50664 0.2296 0.0
C302 C -0.00456 0.52785 0.43795 0.0
Dy303 Dy 0.10897 0.50414 0.30778 0.0
O304 O 0.97752 0.51633 0.40572 0.0
O305 O 0.03583 0.53849 0.43144 0.0
O306 O 0.04087 0.58092 0.36144 0.0
O307 O 0.08367 0.55137 0.32817 0.0
C308 C 0.0735 0.581 0.33598 0.0
C309 C 0.08612 0.45547 0.35778 0.0
O310 O 0.15825 0.52116 0.35363 0.0
O311 O 0.1034 0.5171 0.40202 0.0
O312 O 0.14229 0.48311 0.2533 0.0
O313 O 0.11082 0.53009 0.25 0.0
O314 O 0.12489 0.45751 0.33957 0.0
O315 O 0.05918 0.47746 0.3444 0.0
O316 O -0.00765 0.52252 0.31638 0.0
O317 O 0.04352 0.49376 0.27794 0.0
C318 C 0.14582 0.52117 0.39113 0.0
C319 C 0.00366 0.50737 0.28327 0.0
Dy320 Dy 0.86017 0.02579 0.5558 0.0
C321 C 0.75052 0.01956 0.69094 0.0
C322 C 0.88044 0.03378 0.47827 0.0
Dy323 Dy 0.79232 1.01143 0.62098 0.0
O324 O 0.85467 0.05286 0.49894 0.0
O325 O 0.89983 1.01209 0.50129 0.0
O326 O 0.87801 0.07284 0.58469 0.0
O327 O 0.81081 0.05687 0.58877 0.0
C328 C 0.83848 0.07938 0.59939 0.0
C329 C 0.8255 0.95261 0.59347 0.0
O330 O 0.74303 0.01952 0.5716 0.0
O331 O 0.79796 1.00747 0.52583 0.0
O332 O 0.73591 1.00024 0.66313 0.0
O333 O 0.78657 0.03497 0.67976 0.0
O334 O 0.79605 0.95529 0.62158 0.0
O335 O 0.83484 0.98172 0.58315 0.0
O336 O 0.91127 1.01319 0.60274 0.0
O337 O 0.85791 0.01744 0.65281 0.0
C338 C 0.75546 1.01286 0.53506 0.0
C339 C 0.90011 1.01442 0.64066 0.0
Dy340 Dy 0.35716 0.25511 0.5539 0.0
C341 C 0.47184 0.26423 0.68904 0.0
C342 C 0.32862 0.25061 0.47757 0.0
Dy343 Dy 0.42725 0.27088 0.62006 0.0
O344 O 0.35449 0.2298 0.49571 0.0
O345 O 0.31294 0.27201 0.50302 0.0
O346 O 0.38005 0.20147 0.55771 0.0
O347 O 0.38245 0.2299 0.607 0.0
C348 C 0.39192 0.20162 0.59438 0.0
C349 C 0.40324 0.3283 0.58469 0.0
O350 O 0.47253 0.25603 0.56932 0.0
O351 O 0.41925 0.27376 0.5252 0.0
O352 O 0.4424 0.28695 0.68119 0.0
O353 O 0.47875 0.2456 0.65851 0.0
O354 O 0.43347 0.32605 0.61239 0.0
O355 O 0.39048 0.29918 0.57659 0.0
O356 O 0.3056 0.26516 0.60136 0.0
O357 O 0.36029 0.26878 0.65129 0.0
C358 C 0.46021 0.26307 0.53274 0.0
C359 C 0.31758 0.2688 0.63907 0.0
Dy360 Dy 0.85972 0.25375 0.73738 0.0
C361 C 0.73507 0.24985 0.60922 0.0
C362 C 0.88184 0.24771 0.81509 0.0
Dy363 Dy 0.78052 0.26435 0.67628 0.0
O364 O 0.85765 0.22728 0.7948 0.0
O365 O 0.8991 0.27001 0.79143 0.0
O366 O 0.87785 0.20432 0.71335 0.0
O367 O 0.81148 0.22183 0.70618 0.0
C368 C 0.83959 0.19952 0.69534 0.0
C369 C 0.81458 0.32388 0.69814 0.0
O370 O 0.73848 0.25634 0.73003 0.0
O371 O 0.79854 0.27027 0.77035 0.0
O372 O 0.7229 0.27253 0.63423 0.0
O373 O 0.7701 0.23411 0.62241 0.0
O374 O 0.7804 0.3203 0.6744 0.0
O375 O 0.82605 0.29535 0.70982 0.0
O376 O 0.90302 0.2672 0.68477 0.0
O377 O 0.84279 0.26748 0.6401 0.0
C378 C 0.7555 0.26354 0.765 0.0
C379 C 0.88647 0.26864 0.64805 0.0
Dy380 Dy 0.3553 0.03221 0.74245 0.0
C381 C 0.47596 0.04098 0.61231 0.0
C382 C 0.32408 0.02192 0.81824 0.0
Dy383 Dy 0.43301 0.02378 0.67974 0.0
O384 O 0.32374 0.04977 0.7991 0.0
O385 O 0.33706 0.99929 0.79356 0.0
O386 O 0.33632 0.0824 0.72089 0.0
O387 O 0.40237 0.06492 0.71161 0.0
C388 C 0.37403 0.08744 0.70185 0.0
C389 C 0.40075 0.96346 0.69939 0.0
O390 O 0.47727 0.02806 0.73335 0.0
O391 O 0.41868 0.03685 0.7778 0.0
O392 O 0.49462 0.02423 0.64083 0.0
O393 O 0.43564 0.05004 0.62236 0.0
O394 O 0.43383 0.96805 0.67477 0.0
O395 O 0.38899 0.99147 0.71262 0.0
O396 O 0.31111 0.02094 0.68957 0.0
O397 O 0.37009 0.02248 0.64387 0.0
C398 C 0.46182 0.0322 0.76969 0.0
C399 C 0.32657 0.02094 0.65253 0.0
Dy400 Dy 0.17637 0.01802 0.42694 0.0
C401 C 0.08571 1.00696 0.56407 0.0
C402 C 0.2115 0.02163 0.35269 0.0
Dy403 Dy 0.11104 1.00477 0.48671 0.0
O404 O 0.22395 1.00041 0.37924 0.0
O405 O 0.1831 0.04214 0.36798 0.0
O406 O 0.1868 0.06824 0.45336 0.0
O407 O 0.12165 0.04932 0.45131 0.0
C408 C 0.1446 0.07434 0.46094 0.0
C409 C 0.1342 0.9486 0.45019 0.0
O410 O 0.0617 0.01682 0.43817 0.0
O411 O 0.11585 1.00029 0.39406 0.0
O412 O 0.06981 0.98606 0.53835 0.0
O413 O 0.10983 0.02875 0.54592 0.0
O414 O 0.0944 0.9552 0.46432 0.0
O415 O 0.16151 0.97189 0.45868 0.0
O416 O 0.22978 1.01163 0.47313 0.0
O417 O 0.1752 1.00897 0.52099 0.0
C418 C 0.07378 1.00847 0.40188 0.0
C419 C 0.21783 1.0102 0.51053 0.0
Dy420 Dy 0.5446 0.75635 0.42904 0.0
C421 C 0.64173 0.78036 0.56194 0.0
C422 C 0.50035 0.75262 0.35885 0.0
Dy423 Dy 0.61412 0.77797 0.48521 0.0
O424 O 0.52147 0.72844 0.37561 0.0
O425 O 0.49963 0.77786 0.38218 0.0
O426 O 0.53455 0.7087 0.46002 0.0
O427 O 0.5996 0.72944 0.45811 0.0
C428 C 0.57662 0.70484 0.47027 0.0
C429 C 0.5862 0.82655 0.43722 0.0
O430 O 0.66569 0.76462 0.43998 0.0
O431 O 0.60883 0.76127 0.39335 0.0
O432 O 0.64735 0.80407 0.53648 0.0
O433 O 0.62802 0.75425 0.54346 0.0
O434 O 0.62653 0.82507 0.45261 0.0
O435 O 0.56114 0.80463 0.45262 0.0
O436 O 0.49572 0.76321 0.47901 0.0
O437 O 0.55162 0.7809 0.52113 0.0
C438 C 0.65219 0.76198 0.40294 0.0
C439 C 0.50959 0.77259 0.51428 0.0
Dy440 Dy 0.18446 0.76761 0.36558 0.0
C441 C 0.08631 0.77216 0.23076 0.0
C442 C 0.22627 0.7737 0.43627 0.0
Dy443 Dy 0.11039 0.77987 0.30816 0.0
O444 O 0.23107 0.74861 0.41283 0.0
O445 O 0.20166 0.79617 0.41967 0.0
O446 O 0.19487 0.71758 0.33863 0.0
O447 O 0.12971 0.73637 0.34279 0.0
C448 C 0.15238 0.71158 0.33176 0.0
C449 C 0.13157 0.83479 0.34671 0.0
O450 O 0.06447 0.76822 0.36012 0.0
O451 O 0.12395 0.76358 0.40424 0.0
O452 O 0.06943 0.79457 0.25428 0.0
O453 O 0.11127 0.75232 0.25119 0.0
O454 O 0.09344 0.83066 0.32822 0.0
O455 O 0.1595 0.81224 0.33658 0.0
O456 O 0.2323 0.77864 0.31636 0.0
O457 O 0.17339 0.77901 0.27213 0.0
C458 C 0.08021 0.76524 0.39694 0.0
C459 C 0.21679 0.77965 0.27995 0.0
Dy460 Dy 0.54083 0.02261 0.37265 0.0
C461 C 0.63029 0.99925 0.23515 0.0
C462 C 0.50887 0.04012 0.44544 0.0
Dy463 Dy 0.60399 0.9998 0.31186 0.0
O464 O 0.54101 0.05464 0.42656 0.0
O465 O 0.49256 0.01646 0.42386 0.0
O466 O 0.53255 0.07007 0.33963 0.0
O467 O 0.59533 0.04719 0.34048 0.0
C468 C 0.57377 0.07148 0.32664 0.0
C469 C 0.5777 0.94957 0.35704 0.0
O470 O 0.65647 1.01156 0.35761 0.0
O471 O 0.6022 1.00555 0.40554 0.0
O472 O 0.63879 0.97562 0.26012 0.0
O473 O 0.61298 0.02415 0.25357 0.0
O474 O 0.61641 0.95119 0.33901 0.0
O475 O 0.55188 0.97332 0.34641 0.0
O476 O 0.48621 1.01381 0.32773 0.0
O477 O 0.53862 1.00339 0.27909 0.0
C478 C 0.64484 1.00858 0.39509 0.0
C479 C 0.49663 1.00835 0.29036 0.0
Dy480 Dy 0.86145 0.52016 0.0536 0.0
C481 C 0.74446 0.51006 0.18672 0.0
C482 C 0.888 0.52489 0.97712 0.0
Dy483 Dy 0.79187 0.50389 0.1195 0.0
O484 O 0.86431 0.54639 0.9962 0.0
O485 O 0.90363 0.50285 1.00186 0.0
O486 O 0.83646 0.57305 0.05549 0.0
O487 O 0.83523 0.54591 0.10604 0.0
C488 C 0.82479 0.57368 0.09211 0.0
C489 C 0.81775 0.44675 0.08454 0.0
O490 O 0.74575 0.51699 0.06902 0.0
O491 O 0.79966 0.50035 0.02489 0.0
O492 O 0.77148 0.48588 0.17862 0.0
O493 O 0.74167 0.53057 0.15744 0.0
O494 O 0.78744 0.44847 0.11214 0.0
O495 O 0.82949 0.47602 0.07648 0.0
O496 O 0.91309 0.51183 0.10164 0.0
O497 O 0.85833 0.50673 0.15137 0.0
C498 C 0.75816 0.50963 0.03272 0.0
C499 C 0.90105 0.50787 0.13931 0.0
Dy500 Dy 0.3557 0.75364 0.05454 0.0
C501 C 0.46478 0.76994 0.19287 0.0
C502 C 0.33324 0.74655 0.9769 0.0
Dy503 Dy 0.42771 0.77118 0.11955 0.0
O504 O 0.35624 0.72568 0.99779 0.0
O505 O 0.31726 0.76947 1.00001 0.0
O506 O 0.33563 0.7077 0.08677 0.0
O507 O 0.40177 0.72525 0.09324 0.0
C508 C 0.37341 0.70424 0.10614 0.0
C509 C 0.40083 0.82694 0.08239 0.0
O510 O 0.47696 0.76151 0.07079 0.0
O511 O 0.42078 0.76239 0.02296 0.0
O512 O 0.43656 0.79176 0.17994 0.0
O513 O 0.4759 0.7498 0.16459 0.0
O514 O 0.43307 0.82606 0.10844 0.0
O515 O 0.38826 0.79753 0.07668 0.0
O516 O 0.30712 0.77341 0.09909 0.0
O517 O 0.36021 0.76755 0.14911 0.0
C518 C 0.46369 0.76132 0.03343 0.0
C519 C 0.31864 0.77349 0.13681 0.0
Dy520 Dy 0.8629 0.74245 0.23963 0.0
C521 C 0.74833 0.75224 0.10349 0.0
C522 C 0.87978 0.73548 0.3182 0.0
Dy523 Dy 0.78964 0.7593 0.17402 0.0
O524 O 0.85812 0.71479 0.29615 0.0
O525 O 0.89845 0.758 0.29582 0.0
O526 O 0.87855 0.69305 0.21463 0.0
O527 O 0.8151 0.71441 0.20321 0.0
C528 C 0.84208 0.69111 0.19326 0.0
C529 C 0.82347 0.81573 0.20644 0.0
O530 O 0.74218 0.748 0.22355 0.0
O531 O 0.79851 0.75654 0.26978 0.0
O532 O 0.73588 0.77324 0.13037 0.0
O533 O 0.7815 0.7342 0.11618 0.0
O534 O 0.79152 0.8152 0.18009 0.0
O535 O 0.83325 0.78593 0.2135 0.0
O536 O 0.91114 0.75422 0.1895 0.0
O537 O 0.85483 0.7616 0.14179 0.0
C538 C 0.75581 0.75183 0.2604 0.0
C539 C 0.89776 0.75892 0.15218 0.0
Dy540 Dy 0.35391 0.53011 0.24157 0.0
C541 C 0.46472 0.52799 0.10633 0.0
C542 C 0.33306 0.538 0.31932 0.0
Dy543 Dy 0.42658 0.51525 0.17679 0.0
O544 O 0.35738 0.55785 0.29828 0.0
O545 O 0.31513 0.51565 0.29641 0.0
O546 O 0.33425 0.5769 0.2104 0.0
O547 O 0.401 0.5596 0.20582 0.0
C548 C 0.37276 0.58058 0.19251 0.0
C549 C 0.39769 0.45767 0.20762 0.0
O550 O 0.47424 0.52329 0.22731 0.0
O551 O 0.41726 0.51598 0.27329 0.0
O552 O 0.47875 0.50514 0.1304 0.0
O553 O 0.43237 0.54499 0.12201 0.0
O554 O 0.42822 0.45973 0.18016 0.0
O555 O 0.38551 0.48676 0.21631 0.0
O556 O 0.30502 0.51216 0.1957 0.0
O557 O 0.35979 0.50945 0.14616 0.0
C558 C 0.46026 0.51914 0.26405 0.0
C559 C 0.31722 0.5081 0.1583 0.0
Dy560 Dy 0.18498 0.51514 0.92627 0.0
C561 C 0.07962 0.49829 0.06493 0.0
C562 C 0.22682 0.50289 0.85686 0.0
Dy563 Dy 0.10712 0.50242 0.98855 0.0
O564 O 0.24077 0.5244 0.88268 0.0
O565 O 0.19202 0.48717 0.87029 0.0
O566 O 0.18505 0.57126 0.92914 0.0
O567 O 0.1406 0.54462 0.96266 0.0
C568 C 0.15217 0.57391 0.95443 0.0
C569 C 0.12792 0.44917 0.94456 0.0
O570 O 0.06291 0.5156 0.93629 0.0
O571 O 0.12218 0.51827 0.89078 0.0
O572 O 0.10538 0.47738 0.04687 0.0
O573 O 0.06399 0.51981 0.03965 0.0
O574 O 0.09024 0.45296 0.96383 0.0
O575 O 0.15514 0.47192 0.95547 0.0
O576 O 0.22868 0.50354 0.97861 0.0
O577 O 0.17018 0.51396 0.02235 0.0
C578 C 0.07873 0.51822 0.89954 0.0
C579 C 0.21313 0.50776 1.01489 0.0
Dy580 Dy 0.54806 0.25795 0.92629 0.0
C581 C 0.62974 0.29046 0.06598 0.0
C582 C 0.51164 0.24898 0.85319 0.0
Dy583 Dy 0.60863 0.27989 0.98846 0.0
O584 O 0.54308 0.2312 0.8688 0.0
O585 O 0.49736 0.27052 0.87858 0.0
O586 O 0.53893 0.20834 0.95231 0.0
O587 O 0.60194 0.23162 0.95821 0.0
C588 C 0.57986 0.20536 0.9657 0.0
C589 C 0.58389 0.32971 0.9407 0.0
O590 O 0.66543 0.27206 0.94626 0.0
O591 O 0.61324 0.27089 0.89572 0.0
O592 O 0.6021 0.3078 0.04491 0.0
O593 O 0.65043 0.26944 0.04308 0.0
O594 O 0.62223 0.32825 0.95937 0.0
O595 O 0.55803 0.30661 0.95232 0.0
O596 O 0.49481 0.26309 0.97336 0.0
O597 O 0.54884 0.2625 1.02159 0.0
C598 C 0.65549 0.27177 0.90827 0.0
C599 C 0.50631 0.26205 1.01099 0.0
Dy600 Dy 0.18681 0.26127 0.87116 0.0
C601 C 0.08792 0.28399 0.72966 0.0
C602 C 0.22524 0.27371 0.94204 0.0
Dy603 Dy 0.11252 0.27676 0.80607 0.0
O604 O 0.23051 0.24642 0.92241 0.0
O605 O 0.20302 0.29485 0.92102 0.0
O606 O 0.18735 0.20541 0.86569 0.0
O607 O 0.14651 0.23375 0.82998 0.0
C608 C 0.15707 0.20411 0.8378 0.0
C609 C 0.14787 0.33067 0.84484 0.0
O610 O 0.06372 0.26547 0.85545 0.0
O611 O 0.12072 0.2555 0.90265 0.0
O612 O 0.1193 0.30024 0.7476 0.0
O613 O 0.06581 0.26543 0.7548 0.0
O614 O 0.13027 0.33119 0.81 0.0
O615 O 0.14116 0.3018 0.85719 0.0
O616 O 0.22973 0.27519 0.81896 0.0
O617 O 0.17412 0.25588 0.77772 0.0
C618 C 0.07758 0.25822 0.89206 0.0
C619 C 0.21553 0.26674 0.78332 0.0
Dy620 Dy 0.54831 0.52238 0.86981 0.0
C621 C 0.63224 0.49341 0.73035 0.0
C622 C 0.51031 0.5323 0.94185 0.0
Dy623 Dy 0.61044 0.50163 0.80805 0.0
O624 O 0.4937 0.51301 0.91503 0.0
O625 O 0.54544 0.54725 0.92838 0.0
O626 O 0.53852 0.57161 0.84191 0.0
O627 O 0.60216 0.54916 0.83867 0.0
C628 C 0.57968 0.57469 0.82933 0.0
C629 C 0.58503 0.45086 0.85395 0.0
O630 O 0.6652 0.50912 0.8527 0.0
O631 O 0.61142 0.5073 0.90194 0.0
O632 O 0.60855 0.47341 0.75157 0.0
O633 O 0.6495 0.51599 0.75323 0.0
O634 O 0.62387 0.45279 0.83619 0.0
O635 O 0.55935 0.47423 0.84265 0.0
O636 O 0.49576 0.51235 0.82385 0.0
O637 O 0.54938 0.51967 0.7764 0.0
C638 C 0.65402 0.50763 0.89046 0.0
C639 C 0.50709 0.51571 0.78656 0.0
C640 C 0.40738 0.88711 0.06394 0.0
C641 C 0.38002 0.85859 0.06797 0.0
C642 C 0.31472 0.89355 0.08128 0.0
C643 C 0.34069 0.9229 0.0753 0.0
N644 N 0.41161 0.94563 0.05117 0.0
N645 N 0.30491 0.83729 0.06016 0.0
C646 C 0.38698 0.91914 0.06355 0.0
C647 C 0.33278 0.86271 0.06953 0.0
N648 N 0.45314 0.88359 0.06052 0.0
N649 N 0.27497 0.8938 0.10168 0.0
H650 H 0.31762 0.81584 0.04768 0.0
H651 H 0.26981 0.83978 0.05905 0.0
H652 H 0.2639 0.91363 0.11842 0.0
H653 H 0.2572 0.87223 0.10792 0.0
H654 H 0.4758 0.90308 0.06351 0.0
H655 H 0.46835 0.86073 0.05579 0.0
H656 H 0.4433 0.9435 0.03809 0.0
H657 H 0.39944 0.96957 0.05061 0.0
C658 C 0.8862 0.40983 0.07609 0.0
C659 C 0.83908 0.41458 0.07202 0.0
C660 C 0.83119 0.35414 0.06455 0.0
C661 C 0.87679 0.34923 0.07756 0.0
N662 N 0.94187 0.37604 0.10797 0.0
N663 N 0.76573 0.39038 0.06201 0.0
C664 C 0.90304 0.37801 0.0863 0.0
C665 C 0.81137 0.3864 0.06609 0.0
N666 N 0.91515 0.43559 0.07114 0.0
N667 N 0.80676 0.32848 0.04966 0.0
H668 H 0.7507 0.41349 0.05878 0.0
H669 H 0.74285 0.37089 0.06341 0.0
H670 H 0.81892 0.30456 0.04774 0.0
H671 H 0.7756 0.33149 0.0358 0.0
H672 H 0.9502 0.43269 0.07148 0.0
H673 H 0.9042 0.45853 0.06134 0.0
H674 H 0.95995 0.39686 0.11665 0.0
H675 H 0.95187 0.35503 0.12318 0.0
C676 C 0.4069 0.39686 0.22382 0.0
C677 C 0.37888 0.42539 0.22195 0.0
C678 C 0.31275 0.38998 0.21563 0.0
C679 C 0.33984 0.36083 0.22017 0.0
N680 N 0.41235 0.33943 0.24214 0.0
N681 N 0.30462 0.44653 0.23631 0.0
C682 C 0.38682 0.3651 0.22852 0.0
C683 C 0.3317 0.42111 0.22504 0.0
N684 N 0.4528 0.39973 0.22115 0.0
N685 N 0.27069 0.38933 0.199 0.0
H686 H 0.31804 0.46838 0.24713 0.0
H687 H 0.26992 0.44379 0.2407 0.0
H688 H 0.2573 0.36926 0.18416 0.0
H689 H 0.25216 0.4108 0.19372 0.0
H690 H 0.4741 0.37954 0.21692 0.0
H691 H 0.46954 0.42229 0.22148 0.0
H692 H 0.44545 0.34226 0.25211 0.0
H693 H 0.39928 0.31621 0.24802 0.0
C694 C 0.89039 0.85106 0.22982 0.0
C695 C 0.84333 0.84724 0.22301 0.0
C696 C 0.83382 0.90781 0.22808 0.0
C697 C 0.88155 0.91183 0.22605 0.0
N698 N 0.95551 0.88755 0.23221 0.0
N699 N 0.76945 0.87049 0.23248 0.0
C700 C 0.90975 0.88342 0.22978 0.0
C701 C 0.81478 0.87532 0.22718 0.0
N702 N 0.91629 0.82401 0.23777 0.0
N703 N 0.80663 0.93498 0.22931 0.0
H704 H 0.75548 0.84698 0.23485 0.0
H705 H 0.74632 0.88915 0.23845 0.0
H706 H 0.81902 0.95827 0.23589 0.0
H707 H 0.77193 0.9346 0.22431 0.0
H708 H 0.95014 0.8249 0.24599 0.0
H709 H 0.90268 0.80058 0.24043 0.0
H710 H 0.979 0.86861 0.22906 0.0
H711 H 0.97011 0.91059 0.2367 0.0
C712 C 0.60956 0.11572 0.9907 0.0
C713 C 0.64237 0.10788 0.96173 0.0
C714 C 0.63236 0.16358 0.93336 0.0
C715 C 0.60128 0.17172 0.96392 0.0
N716 N 0.54629 0.14981 1.00922 0.0
N717 N 0.68484 0.12475 0.90432 0.0
C718 C 0.58602 0.14626 0.98925 0.0
C719 C 0.65405 0.13202 0.93298 0.0
N720 N 0.60139 0.09408 1.02048 0.0
N721 N 0.63623 0.18402 0.90155 0.0
H722 H 0.69445 0.10091 0.89688 0.0
H723 H 0.70156 0.14268 0.88795 0.0
H724 H 0.6174 0.20545 0.89809 0.0
H725 H 0.65375 0.1781 0.87602 0.0
H726 H 0.5826 0.09994 0.0454 0.0
H727 H 0.61693 0.07119 1.02172 0.0
H728 H 0.53127 0.13096 0.02537 0.0
H729 H 0.52466 0.16966 1.00485 0.0
C730 C 0.06592 0.64366 0.97237 0.0
C731 C 0.09412 0.67203 0.96923 0.0
C732 C 0.16099 0.63524 0.96957 0.0
C733 C 0.13249 0.60682 0.96809 0.0
N734 N 0.05921 0.58501 0.98474 0.0
N735 N 0.1687 0.69445 0.97881 0.0
C736 C 0.08537 0.61132 0.97472 0.0
C737 C 0.14175 0.66772 0.97232 0.0
N738 N 0.02001 0.64762 0.97282 0.0
N739 N 0.20685 0.63115 0.9685 0.0
H740 H 0.1559 0.71807 0.98215 0.0
H741 H 0.20315 0.69312 0.98475 0.0
H742 H 0.22237 0.60839 0.97319 0.0
H743 H 0.22959 0.65009 0.96271 0.0
H744 H -0.00276 0.6284 0.96844 0.0
H745 H 0.00459 0.67054 0.97658 0.0
H746 H 0.02569 0.58688 0.99377 0.0
H747 H 0.0723 0.56153 0.98818 0.0
C748 C 0.60302 0.66418 0.80041 0.0
C749 C 0.63184 0.67483 0.83134 0.0
C750 C 0.62358 0.62029 0.86272 0.0
C751 C 0.60002 0.60844 0.82908 0.0
N752 N 0.56898 0.61855 0.76483 0.0
N753 N 0.66911 0.66261 0.89305 0.0
C754 C 0.59028 0.63029 0.79761 0.0
C755 C 0.64234 0.65264 0.86255 0.0
N756 N 0.5862 0.6868 0.77458 0.0
N757 N 0.62492 0.60179 0.89632 0.0
H758 H 0.67667 0.68716 0.89878 0.0
H759 H 0.68461 0.64625 0.91248 0.0
H760 H 0.61166 0.57818 0.89852 0.0
H761 H 0.63584 0.61077 0.92336 0.0
H762 H 0.56165 0.68158 0.75356 0.0
H763 H 0.59366 0.71173 0.77693 0.0
H764 H 0.56547 0.63202 0.73896 0.0
H765 H 0.55746 0.59434 0.76253 0.0
C766 C 0.08911 0.16912 0.81596 0.0
C767 C 0.13634 0.17217 0.82305 0.0
C768 C 0.14264 0.11156 0.81534 0.0
C769 C 0.09525 0.10831 0.82012 0.0
N770 N 0.02212 0.13471 0.81848 0.0
N771 N 0.20942 0.14533 0.824 0.0
C772 C 0.06816 0.13737 0.81818 0.0
C773 C 0.16348 0.14305 0.82091 0.0
N774 N 0.06433 0.19615 0.80571 0.0
N775 N 0.16755 0.08507 0.80357 0.0
H776 H 0.22665 0.16769 0.82302 0.0
H777 H 0.23035 0.12499 0.82852 0.0
H778 H 0.15237 0.06321 0.79477 0.0
H779 H 0.20187 0.08618 0.79692 0.0
H780 H 0.03069 0.19512 0.79675 0.0
H781 H 0.07875 0.21913 0.80154 0.0
H782 H 0.00054 0.15459 0.82348 0.0
H783 H 0.0055 0.1123 0.81452 0.0
C784 C 0.33535 0.36584 0.5758 0.0
C785 C 0.38256 0.3609 0.57263 0.0
C786 C 0.39092 0.42147 0.5661 0.0
C787 C 0.34498 0.42639 0.57789 0.0
N788 N 0.27955 0.39953 0.60747 0.0
N789 N 0.45647 0.3854 0.56614 0.0
C790 C 0.31854 0.39762 0.5861 0.0
C791 C 0.41062 0.38918 0.56811 0.0
N792 N 0.30624 0.34031 0.57004 0.0
N793 N 0.41594 0.44719 0.5521 0.0
H794 H 0.47209 0.36242 0.5641 0.0
H795 H 0.47902 0.40502 0.5685 0.0
H796 H 0.40394 0.47117 0.55015 0.0
H797 H 0.4475 0.44417 0.53901 0.0
H798 H 0.27121 0.3434 0.56996 0.0
H799 H 0.31707 0.31749 0.55984 0.0
H800 H 0.26134 0.37868 0.61583 0.0
H801 H 0.26968 0.42046 0.62287 0.0
C802 C 0.88809 0.91526 0.56458 0.0
C803 C 0.84227 0.92003 0.57664 0.0
C804 C 0.82935 0.86032 0.5658 0.0
C805 C 0.87666 0.85464 0.56479 0.0
N806 N 0.95015 0.87726 0.55119 0.0
N807 N 0.76735 0.89648 0.58279 0.0
C808 C 0.90573 0.88239 0.56036 0.0
C809 C 0.8124 0.89235 0.57536 0.0
N810 N 0.9144 0.94188 0.55582 0.0
N811 N 0.80047 0.83576 0.55477 0.0
H812 H 0.75158 0.91944 0.58344 0.0
H813 H 0.74565 0.87692 0.5889 0.0
H814 H 0.81188 0.81337 0.54362 0.0
H815 H 0.76572 0.83898 0.55154 0.0
H816 H 0.94698 0.94044 0.54452 0.0
H817 H 0.90226 0.96582 0.55577 0.0
H818 H 0.97529 0.89504 0.55378 0.0
H819 H 0.96184 0.85477 0.54034 0.0
C820 C 0.35231 0.91803 0.67044 0.0
C821 C 0.37614 0.93107 0.70334 0.0
C822 C 0.35626 0.8813 0.74144 0.0
C823 C 0.33527 0.86721 0.70792 0.0
N824 N 0.31617 0.87113 0.63907 0.0
N825 N 0.41111 0.92063 0.7659 0.0
C826 C 0.33373 0.88546 0.6721 0.0
C827 C 0.38059 0.9116 0.73785 0.0
N828 N 0.34786 0.93674 0.63722 0.0
N829 N 0.35243 0.86592 0.77699 0.0
H830 H 0.4327 0.94062 0.76199 0.0
H831 H 0.41897 0.9062 0.7903 0.0
H832 H 0.33457 0.84398 0.78062 0.0
H833 H 0.3631 0.87651 0.80328 0.0
H834 H 0.32705 0.93078 0.61365 0.0
H835 H 0.36323 0.95959 0.63372 0.0
H836 H 0.31839 0.88107 0.61098 0.0
H837 H 0.30224 0.84763 0.63875 0.0
C838 C 0.8453 0.3716 0.7396 0.0
C839 C 0.84011 0.35589 0.70252 0.0
C840 C 0.87025 0.40587 0.67033 0.0
C841 C 0.87888 0.42058 0.70752 0.0
N842 N 0.88183 0.41478 0.77783 0.0
N843 N 0.85635 0.3561 0.63304 0.0
C844 C 0.86865 0.40257 0.74226 0.0
C845 C 0.85507 0.37253 0.66807 0.0
N846 N 0.82569 0.35793 0.77201 0.0
N847 N 0.87542 0.42402 0.63682 0.0
H848 H 0.84606 0.33173 0.62986 0.0
H849 H 0.87195 0.3654 0.60796 0.0
H850 H 0.88798 0.44794 0.63681 0.0
H851 H 0.86387 0.41638 0.60938 0.0
H852 H 0.824 0.36972 0.79913 0.0
H853 H 0.80757 0.33593 0.77081 0.0
H854 H 0.87929 0.40154 0.80396 0.0
H855 H 0.89897 0.43712 0.78066 0.0
C856 C 0.61802 0.61927 0.50244 0.0
C857 C 0.62921 0.60488 0.46588 0.0
C858 C 0.60927 0.65671 0.43238 0.0
C859 C 0.59521 0.67045 0.46892 0.0
N860 N 0.57251 0.66007 0.53572 0.0
N861 N 0.62802 0.60773 0.39506 0.0
C862 C 0.59574 0.6504 0.50317 0.0
C863 C 0.6229 0.62305 0.43056 0.0
N864 N 0.62924 0.6035 0.53655 0.0
N865 N 0.60881 0.67553 0.39906 0.0
H866 H 0.63781 0.58322 0.39231 0.0
H867 H 0.61856 0.61816 0.36834 0.0
H868 H 0.59469 0.69894 0.39769 0.0
H869 H 0.62449 0.66863 0.37296 0.0
H870 H 0.62559 0.61426 0.56416 0.0
H871 H 0.64626 0.58095 0.53696 0.0
H872 H 0.5687 0.64535 0.56059 0.0
H873 H 0.55183 0.68076 0.53543 0.0
C874 C 0.08146 0.11427 0.4831 0.0
C875 C 0.1252 0.10888 0.46609 0.0
C876 C 0.13704 0.16893 0.46836 0.0
C877 C 0.09067 0.17473 0.4759 0.0
N878 N 0.01922 0.152 0.49619 0.0
N879 N 0.18763 0.13493 0.4312 0.0
C880 C 0.06298 0.14705 0.48488 0.0
C881 C 0.15124 0.13722 0.45572 0.0
N882 N 0.05803 0.08858 0.49914 0.0
N883 N 0.16812 0.19318 0.47435 0.0
H884 H 0.19527 0.11387 0.4151 0.0
H885 H 0.20552 0.15564 0.42181 0.0
H886 H 0.15985 0.21498 0.48886 0.0
H887 H 0.20276 0.18924 0.4709 0.0
H888 H 0.02891 0.09152 0.51594 0.0
H889 H 0.06928 0.06438 0.49872 0.0
H890 H -0.005 0.13339 0.4968 0.0
H891 H 0.00716 0.17503 0.50485 0.0
C892 C 0.58508 0.16333 0.30344 0.0
C893 C 0.62648 0.1698 0.32378 0.0
C894 C 0.64014 0.11022 0.32675 0.0
C895 C 0.59514 0.10376 0.3155 0.0
N896 N 0.52654 0.12376 0.28602 0.0
N897 N 0.68441 0.1464 0.36659 0.0
C898 C 0.56815 0.13029 0.30154 0.0
C899 C 0.6519 0.14248 0.33846 0.0
N900 N 0.56227 0.18837 0.28532 0.0
N901 N 0.67198 0.08591 0.32584 0.0
H902 H 0.68874 0.16817 0.3823 0.0
H903 H 0.70154 0.12642 0.379 0.0
H904 H 0.66565 0.06319 0.31264 0.0
H905 H 0.70592 0.09029 0.3324 0.0
H906 H 0.53524 0.18481 0.2662 0.0
H907 H 0.57171 0.21288 0.28758 0.0
H908 H 0.50204 0.14166 0.28064 0.0
H909 H 0.51666 0.09988 0.27865 0.0
C910 C 0.1591 0.64822 0.33467 0.0
C911 C 0.13255 0.67718 0.32699 0.0
C912 C 0.06702 0.64038 0.31526 0.0
C913 C 0.09474 0.61227 0.32129 0.0
N914 N 0.17027 0.59078 0.31796 0.0
N915 N 0.06149 0.69842 0.30076 0.0
C916 C 0.14184 0.61666 0.32432 0.0
C917 C 0.08665 0.67257 0.31437 0.0
N918 N 0.19859 0.64968 0.35543 0.0
N919 N 0.02143 0.63636 0.31072 0.0
H920 H 0.07209 0.72268 0.30108 0.0
H921 H 0.03068 0.69553 0.28633 0.0
H922 H 0.0067 0.61328 0.30636 0.0
H923 H -0.00175 0.65567 0.31263 0.0
H924 H 0.21666 0.6286 0.36337 0.0
H925 H 0.20937 0.67037 0.37072 0.0
H926 H 0.20537 0.59329 0.31784 0.0
H927 H 0.15851 0.56848 0.30685 0.0
C928 C 0.20958 0.98368 0.24997 0.0
C929 C 0.2166 1.0122 0.22653 0.0
C930 C 0.22388 0.04571 0.28596 0.0
C931 C 0.21599 0.01751 0.30954 0.0
N932 N 0.18503 0.96227 0.3127 0.0
N933 N 0.20928 0.07169 0.22349 0.0
C934 C 0.20437 0.98707 0.29132 0.0
C935 C 0.21714 0.04371 0.24476 0.0
N936 N 0.20673 0.95337 0.23268 0.0
N937 N 0.23867 0.07435 0.30271 0.0
H938 H 0.19853 0.07133 0.1944 0.0
H939 H 0.20671 0.09495 0.23628 0.0
H940 H 0.24486 0.07663 0.33276 0.0
H941 H 0.24917 0.09462 0.28622 0.0
H942 H 0.20815 0.93137 0.24849 0.0
H943 H 0.20405 0.95029 0.20234 0.0
H944 H 0.17188 0.94094 0.30009 0.0
H945 H 0.17709 0.9644 0.34235 0.0
C946 C 0.0214 0.24031 0.28832 0.0
C947 C -0.00697 0.26065 0.31181 0.0
C948 C 0.95293 0.27995 0.25335 0.0
C949 C 0.98316 0.26134 0.22956 0.0
N950 N 0.04918 0.22708 0.22301 0.0
N951 N 0.93682 0.30347 0.31722 0.0
C952 C 0.01814 0.24226 0.24669 0.0
C953 C 0.96036 0.2816 0.29445 0.0
N954 N 0.0516 0.2193 0.3058 0.0
N955 N 0.91571 0.29469 0.23707 0.0
H956 H 0.93949 0.30418 0.34777 0.0
H957 H 0.91688 0.32234 0.3057 0.0
H958 H 0.90896 0.29484 0.20708 0.0
H959 H 0.88943 0.30468 0.25358 0.0
H960 H 0.06967 0.20128 0.29074 0.0
H961 H 0.05702 0.2184 0.33603 0.0
H962 H 0.07839 0.21561 0.23328 0.0
H963 H 0.04762 0.22813 0.19241 0.0
C964 C 0.20129 0.25317 1.00852 0.0
C965 C 0.22604 0.27623 0.98536 0.0
C966 C 0.23642 0.31063 0.04356 0.0
C967 C 0.22221 0.2841 0.06767 0.0
N968 N 0.18313 0.23196 0.07292 0.0
N969 N 0.26803 0.32708 0.98107 0.0
C970 C 0.20217 0.25591 0.05014 0.0
C971 C 0.24361 0.30515 1.00293 0.0
N972 N 0.17388 0.23032 0.99097 0.0
N973 N 0.24108 0.3414 0.05929 0.0
H974 H 0.2744 0.32378 0.95118 0.0
H975 H 0.28528 0.34696 0.99333 0.0
H976 H 0.23203 0.34659 0.08826 0.0
H977 H 0.24795 0.3623 0.04251 0.0
H978 H 0.15128 0.2155 1.00637 0.0
H979 H 0.16968 0.22821 0.96076 0.0
H980 H 0.17661 0.20822 0.06278 0.0
H981 H 0.17258 0.2362 0.10166 0.0
C982 C 0.00561 0.97934 0.0398 0.0
C983 C 0.9829 1.00413 0.06151 0.0
C984 C 0.96644 0.03494 1.00119 0.0
C985 C -0.0105 1.01034 0.9795 0.0
N986 N 0.0369 0.96171 0.97751 0.0
N987 N 0.93349 0.05179 0.06304 0.0
C988 C 0.01018 0.98294 0.99852 0.0
C989 C 0.96139 0.03113 0.04236 0.0
N990 N 0.02193 0.952 0.05874 0.0
N991 N 0.95048 0.06245 0.98239 0.0
H992 H 0.92815 0.04999 0.0932 0.0
H993 H 0.91257 0.06935 0.05008 0.0
H994 H 0.95063 0.065 0.95188 0.0
H995 H 0.93925 0.08352 0.99687 0.0
H996 H 0.03334 0.9309 0.04445 0.0
H997 H 0.02204 0.94961 0.08926 0.0
H998 H 0.05749 0.94376 0.99009 0.0
H999 H 0.04102 0.96312 0.94719 0.0
C1000 C 0.70703 0.03569 0.79351 0.0
C1001 C 0.7335 1.01247 0.81494 0.0
C1002 C 0.76643 0.99135 0.75415 0.0
C1003 C 0.74052 0.01489 0.73277 0.0
N1004 N 0.68906 0.06077 0.73049 0.0
N1005 N 0.78284 0.96525 0.8168 0.0
C1006 C 0.71139 0.03732 0.752 0.0
C1007 C 0.7617 0.98947 0.79557 0.0
N1008 N 0.67607 0.05495 0.81275 0.0
N1009 N 0.79715 0.97189 0.73493 0.0
H1010 H 0.782 0.96428 0.84742 0.0
H1011 H 0.79928 0.94513 0.80434 0.0
H1012 H 0.80034 0.97135 0.70444 0.0
H1013 H 0.8213 0.9574 0.74901 0.0
H1014 H 0.65207 0.0696 0.79876 0.0
H1015 H 0.67235 0.05509 0.84318 0.0
H1016 H 0.67171 0.08063 0.74258 0.0
H1017 H 0.6893 0.06106 0.69985 0.0
C1018 C 0.97801 0.74124 0.7931 0.0
C1019 C -0.01469 0.77124 0.81366 0.0
C1020 C -0.01501 0.80141 0.75136 0.0
C1021 C 0.97288 0.77208 0.73146 0.0
N1022 N 0.94437 0.71613 0.73595 0.0
N1023 N -0.01519 0.83071 0.81309 0.0
C1024 C 0.96545 0.74251 0.75294 0.0
C1025 C -0.01452 0.80161 0.79296 0.0
N1026 N -0.0146 0.71144 0.81078 0.0
N1027 N -0.00254 0.8288 0.73062 0.0
H1028 H 0.98316 0.83168 0.84364 0.0
H1029 H 0.98066 0.85351 0.79943 0.0
H1030 H -0.00113 0.8293 0.7 0.0
H1031 H 0.01082 0.84982 0.7438 0.0
H1032 H -0.01493 0.68926 0.79532 0.0
H1033 H -0.00351 0.7088 0.83962 0.0
H1034 H 0.93453 0.69538 0.75187 0.0
H1035 H 0.93188 0.71627 0.70734 0.0
C1036 C 0.70473 0.7394 0.99988 0.0
C1037 C 0.73187 0.76249 0.97898 0.0
C1038 C 0.76644 0.7809 0.0406 0.0
C1039 C 0.74026 0.75705 0.06117 0.0
N1040 N 0.69031 0.71031 0.0609 0.0
N1041 N 0.78396 0.80799 0.97866 0.0
C1042 C 0.71103 0.73538 0.04095 0.0
C1043 C 0.76152 0.78402 0.99916 0.0
N1044 N 0.67073 0.72292 0.98099 0.0
N1045 N 0.79763 0.79938 0.06055 0.0
H1046 H 0.78276 0.80987 0.94811 0.0
H1047 H 0.8021 0.82706 0.9916 0.0
H1048 H 0.80139 0.79866 0.09098 0.0
H1049 H 0.82164 0.81434 0.04719 0.0
H1050 H 0.64631 0.70897 0.99537 0.0
H1051 H 0.66413 0.72538 0.95111 0.0
H1052 H 0.67333 0.691 0.0472 0.0
H1053 H 0.69267 0.70749 0.09131 0.0
C1054 C 0.20813 0.52913 0.79258 0.0
C1055 C 0.23439 0.50595 0.81419 0.0
C1056 C 0.26955 0.48662 0.75347 0.0
C1057 C 0.24044 0.50777 0.73148 0.0
N1058 N 0.17763 0.54552 0.72926 0.0
N1059 N 0.28408 0.45892 0.81541 0.0
C1060 C 0.20856 0.5281 0.75084 0.0
C1061 C 0.26323 0.48352 0.79468 0.0
N1062 N 0.18305 0.55236 0.81195 0.0
N1063 N 0.30496 0.47095 0.73559 0.0
H1064 H 0.28151 0.45671 0.84587 0.0
H1065 H 0.30113 0.43941 0.80212 0.0
H1066 H 0.31178 0.47268 0.70569 0.0
H1067 H 0.33021 0.45854 0.75105 0.0
H1068 H 0.16722 0.57211 0.79802 0.0
H1069 H 0.18075 0.55355 0.84246 0.0
H1070 H 0.15027 0.55799 0.7415 0.0
H1071 H 0.1769 0.54513 0.69862 0.0
C1072 C 0.20571 0.75142 0.50259 0.0
C1073 C 0.23309 0.77267 0.47922 0.0
C1074 C 0.26922 0.79451 0.53835 0.0
C1075 C 0.24069 0.77432 0.56172 0.0
N1076 N 0.17759 0.73747 0.56766 0.0
N1077 N 0.28488 0.81831 0.47442 0.0
C1078 C 0.20772 0.75384 0.54425 0.0
C1079 C 0.26288 0.79551 0.49702 0.0
N1080 N 0.17775 0.72895 0.48505 0.0
N1081 N 0.30379 0.8116 0.55552 0.0
H1082 H 0.28303 0.81863 0.44382 0.0
H1083 H 0.30264 0.83822 0.48598 0.0
H1084 H 0.30954 0.81163 0.58568 0.0
H1085 H 0.32875 0.82387 0.53977 0.0
H1086 H 0.16112 0.71027 0.50016 0.0
H1087 H 0.17271 0.72756 0.45485 0.0
H1088 H 0.14957 0.72476 0.55713 0.0
H1089 H 0.1785 0.73881 0.59827 0.0
C1090 C 0.96262 0.49705 0.49528 0.0
C1091 C 0.97684 0.52708 0.478 0.0
C1092 C -0.01249 0.5516 0.54291 0.0
C1093 C 0.97231 0.5219 0.56033 0.0
N1094 N 0.93024 0.47108 0.55237 0.0
N1095 N -0.01125 0.58554 0.4844 0.0
C1096 C 0.95544 0.4959 0.5364 0.0
C1097 C -0.01542 0.55525 0.50164 0.0
N1098 N 0.95775 0.46921 0.47312 0.0
N1099 N 0.00627 0.57583 0.56557 0.0
H1100 H -0.0146 0.58892 0.45411 0.0
H1101 H -0.00949 0.60747 0.50024 0.0
H1102 H 0.0101 0.57373 0.59593 0.0
H1103 H 0.02188 0.59665 0.55388 0.0
H1104 H 0.95365 0.44586 0.48541 0.0
H1105 H 0.96062 0.46887 0.44268 0.0
H1106 H 0.91334 0.45356 0.53549 0.0
H1107 H 0.92177 0.47006 0.58195 0.0
C1108 C 0.75685 0.53839 0.25062 0.0
C1109 C 0.7301 0.51713 0.22698 0.0
C1110 C 0.68899 0.49781 0.28453 0.0
C1111 C 0.71463 0.51988 0.30816 0.0
N1112 N 0.76681 0.5652 0.31373 0.0
N1113 N 0.666 0.48145 0.21895 0.0
C1114 C 0.74689 0.54135 0.29125 0.0
C1115 C 0.69465 0.49833 0.24323 0.0
N1116 N 0.79282 0.55471 0.23452 0.0
N1117 N 0.66052 0.47548 0.30168 0.0
H1118 H 0.6695 0.48151 0.18844 0.0
H1119 H 0.63656 0.4699 0.22846 0.0
H1120 H 0.65501 0.47425 0.33183 0.0
H1121 H 0.64496 0.45631 0.28653 0.0
H1122 H 0.81687 0.56731 0.25104 0.0
H1123 H 0.80033 0.55417 0.20461 0.0
H1124 H 0.78663 0.58406 0.30223 0.0
H1125 H 0.76089 0.5676 0.34381 0.0
C1126 C 0.74784 0.27616 0.50284 0.0
C1127 C 0.71942 0.25288 0.48408 0.0
C1128 C 0.69939 0.22845 0.5478 0.0
C1129 C 0.72667 0.25229 0.56663 0.0
N1130 N 0.78131 0.29648 0.56321 0.0
N1131 N 0.66113 0.2112 0.48842 0.0
C1132 C 0.75183 0.27574 0.54447 0.0
C1133 C 0.69358 0.22994 0.50639 0.0
N1134 N 0.77009 0.29918 0.48069 0.0
N1135 N 0.68003 0.20382 0.56947 0.0
H1136 H 0.65508 0.21154 0.45828 0.0
H1137 H 0.63742 0.19721 0.50364 0.0
H1138 H 0.68197 0.20285 0.60006 0.0
H1139 H 0.66462 0.1832 0.55715 0.0
H1140 H 0.78683 0.31956 0.49212 0.0
H1141 H 0.77063 0.29868 0.45005 0.0
H1142 H 0.80499 0.3112 0.54905 0.0
H1143 H 0.78387 0.29817 0.59364 0.0
C1144 C 0.45829 0.24394 0.7964 0.0
C1145 C 0.50254 0.25024 0.81048 0.0
C1146 C 0.52838 0.26266 0.74339 0.0
C1147 C 0.48447 0.25567 0.72955 0.0
N1148 N 0.41049 0.23247 0.7401 0.0
N1149 N 0.58175 0.2613 0.79704 0.0
C1150 C 0.45022 0.24416 0.75528 0.0
C1151 C 0.53832 0.25799 0.78384 0.0
N1152 N 0.42394 0.23808 0.82233 0.0
N1153 N 0.55986 0.27542 0.7182 0.0
H1154 H 0.59056 0.26155 0.82653 0.0
H1155 H 0.60979 0.26229 0.77862 0.0
H1156 H 0.5541 0.27793 0.68809 0.0
H1157 H 0.59064 0.28531 0.72717 0.0
H1158 H 0.38999 0.23726 0.81427 0.0
H1159 H 0.429 0.23592 0.85255 0.0
H1160 H 0.3857 0.22089 0.7568 0.0
H1161 H 0.40403 0.23148 0.70998 0.0
C1162 C 0.48008 0.0712 0.5482 0.0
C1163 C 0.49172 0.04294 0.57101 0.0
C1164 C 0.52442 0.01777 0.51254 0.0
C1165 C 0.5042 0.04233 0.48868 0.0
N1166 N 0.46182 0.09286 0.4835 0.0
N1167 N 0.51641 0.98558 0.57114 0.0
C1168 C 0.48186 0.06935 0.50642 0.0
C1169 C 0.51195 0.01525 0.55241 0.0
N1170 N 0.46853 0.09997 0.56652 0.0
N1171 N 0.55687 0.99743 0.4977 0.0
H1172 H 0.50479 0.98074 0.59933 0.0
H1173 H 0.52701 0.9643 0.55661 0.0
H1174 H 0.56846 0.99952 0.46907 0.0
H1175 H 0.57567 0.98126 0.51513 0.0
H1176 H 0.46311 0.12208 0.55165 0.0
H1177 H 0.46927 0.10253 0.597 0.0
H1178 H 0.44101 0.11134 0.4947 0.0
H1179 H 0.46357 0.09249 0.45289 0.0
C1180 C 0.43736 0.76437 0.26261 0.0
C1181 C 0.47391 0.76451 0.23525 0.0
C1182 C 0.5269 0.75194 0.28854 0.0
C1183 C 0.49088 0.75482 0.31622 0.0
N1184 N 0.41327 0.76854 0.33039 0.0
N1185 N 0.5541 0.76446 0.22303 0.0
C1186 C 0.44664 0.76267 0.30346 0.0
C1187 C 0.51883 0.75967 0.24839 0.0
N1188 N 0.39352 0.76392 0.24975 0.0
N1189 N 0.56909 0.74225 0.30037 0.0
H1190 H 0.54965 0.77065 0.19354 0.0
H1191 H 0.5878 0.76543 0.23184 0.0
H1192 H 0.57822 0.73859 0.32948 0.0
H1193 H 0.59469 0.73563 0.28092 0.0
H1194 H 0.36593 0.76 0.26813 0.0
H1195 H 0.38438 0.76386 0.22032 0.0
H1196 H 0.38208 0.77885 0.32308 0.0
H1197 H 0.41763 0.76517 0.36053 0.0
C1198 C 0.52228 0.5299 0.0528 0.0
C1199 C 0.47641 0.5297 0.06431 0.0
C1200 C 0.45282 0.53502 0.99558 0.0
C1201 C 0.4984 0.53142 0.98388 0.0
N1202 N 0.57531 0.51652 1.00162 0.0
N1203 N 0.39766 0.52328 0.04572 0.0
C1204 C 0.53295 0.52647 1.0125 0.0
C1205 C 0.44142 0.52995 0.03552 0.0
N1206 N 0.55569 0.53415 0.0801 0.0
N1207 N 0.42053 0.54401 0.96887 0.0
H1208 H 0.38789 0.51685 0.07405 0.0
H1209 H 0.37185 0.52021 0.02519 0.0
H1210 H 0.42767 0.54825 0.9393 0.0
H1211 H 0.38763 0.55036 0.97686 0.0
H1212 H 0.58944 0.53791 0.07257 0.0
H1213 H 0.54915 0.53724 0.10998 0.0
H1214 H 0.60012 0.50952 1.02174 0.0
H1215 H 0.58422 0.51135 0.97275 0.0
C1216 C 0.37216 0.99414 0.91686 0.0
C1217 C 0.36527 0.02246 0.94063 0.0
C1218 C 0.32005 0.04735 0.88675 0.0
C1219 C 0.32871 0.0194 0.86261 0.0
N1220 N 0.34467 0.96112 0.86256 0.0
N1221 N 0.32439 0.07347 0.95084 0.0
C1222 C 0.34954 0.99127 0.87989 0.0
C1223 C 0.33719 0.04853 0.92618 0.0
N1224 N 0.40062 0.96983 0.92972 0.0
N1225 N 0.294 0.07243 0.8723 0.0
H1226 H 0.3373 0.07655 0.979 0.0
H1227 H 0.29909 0.09048 0.94441 0.0
H1228 H 0.27337 0.06948 0.84769 0.0
H1229 H 0.29219 0.09582 0.88474 0.0
H1230 H 0.41009 0.94971 0.91261 0.0
H1231 H 0.4181 0.97136 0.95631 0.0
H1232 H 0.3562 0.93924 0.87508 0.0
H1233 H 0.32306 0.95731 0.83879 0.0
C1234 C 0.83262 0.27585 0.91388 0.0
C1235 C 0.84307 0.24833 0.93803 0.0
C1236 C 0.88425 0.22268 0.88256 0.0
C1237 C 0.87477 0.2506 0.85865 0.0
N1238 N 0.83383 0.30171 0.84972 0.0
N1239 N 0.88321 0.19686 0.94689 0.0
C1240 C 0.84767 0.27679 0.87398 0.0
C1241 C 0.86953 0.22187 0.9226 0.0
N1242 N 0.80928 0.30178 0.92975 0.0
N1243 N 0.90681 0.19648 0.86645 0.0
H1244 H 0.87346 0.19474 0.97611 0.0
H1245 H 0.90621 0.17865 0.939 0.0
H1246 H 0.9219 0.19743 0.83878 0.0
H1247 H 0.90923 0.17333 0.87945 0.0
H1248 H 0.80579 0.3247 0.91632 0.0
H1249 H 0.79458 0.30082 0.95759 0.0
H1250 H 0.80828 0.31839 0.85659 0.0
H1251 H 0.84638 0.30508 0.82154 0.0
C1252 C 0.33726 0.23026 0.36835 0.0
C1253 C 0.36583 0.25626 0.35472 0.0
C1254 C 0.36123 0.28247 0.42016 0.0
C1255 C 0.33409 0.25584 0.43418 0.0
N1256 N 0.29879 0.20339 0.42279 0.0
N1257 N 0.39824 0.30987 0.36536 0.0
C1258 C 0.32265 0.22964 0.4084 0.0
C1259 C 0.37579 0.28309 0.38009 0.0
N1260 N 0.32134 0.20725 0.34244 0.0
N1261 N 0.37587 0.30619 0.44573 0.0
H1262 H 0.41295 0.31017 0.33751 0.0
H1263 H 0.4004 0.33247 0.37969 0.0
H1264 H 0.36512 0.30804 0.47469 0.0
H1265 H 0.40065 0.32346 0.43905 0.0
H1266 H 0.2951 0.19103 0.34871 0.0
H1267 H 0.33204 0.20539 0.31345 0.0
H1268 H 0.29473 0.18117 0.40794 0.0
H1269 H 0.28451 0.20327 0.45081 0.0
C1270 C 0.8729 0.05317 0.36884 0.0
C1271 C 0.84047 0.02925 0.35627 0.0
C1272 C 0.84296 1.0041 0.42202 0.0
C1273 C 0.87203 0.02978 0.43539 0.0
N1274 N 0.90813 0.08196 0.4233 0.0
N1275 N 0.78858 0.98597 0.37301 0.0
C1276 C 0.88466 0.05538 0.40935 0.0
C1277 C 0.82375 1.00594 0.38362 0.0
N1278 N 0.89515 0.07236 0.34214 0.0
N1279 N 0.83383 0.97772 0.44574 0.0
H1280 H 0.77326 0.98728 0.34542 0.0
H1281 H 0.77176 0.97047 0.39247 0.0
H1282 H 0.84672 0.97511 0.474 0.0
H1283 H 0.81674 0.95678 0.43621 0.0
H1284 H 0.92235 0.08738 0.34956 0.0
H1285 H 0.88974 0.07145 0.31206 0.0
H1286 H 0.913 0.10347 0.40709 0.0
H1287 H 0.92026 0.08339 0.45204 0.0
C1288 C 0.63312 0.02307 0.12732 0.0
C1289 C 0.60139 1.00043 0.111 0.0
C1290 C 0.59497 0.97282 0.17514 0.0
C1291 C 0.62581 0.99609 0.19169 0.0
N1292 N 0.6731 0.0439 0.18467 0.0
N1293 N 0.54699 0.95731 0.11989 0.0
C1294 C 0.64451 0.02134 0.16796 0.0
C1295 C 0.58112 0.97617 0.13509 0.0
N1296 N 0.65327 0.04584 0.1036 0.0
N1297 N 0.57869 0.94748 0.19755 0.0
H1298 H 0.53594 0.95961 0.09088 0.0
H1299 H 0.52685 0.94154 0.13643 0.0
H1300 H 0.58485 0.94492 0.22744 0.0
H1301 H 0.56102 0.9275 0.18615 0.0
H1302 H 0.67983 0.06105 0.11185 0.0
H1303 H 0.64373 0.04933 0.0747 0.0
H1304 H 0.68365 0.06557 0.17122 0.0
H1305 H 0.68572 0.04142 0.21316 0.0
C1306 C 0.09946 0.75096 0.12238 0.0
C1307 C 0.13361 0.7739 0.11062 0.0
C1308 C 0.13046 0.79947 0.17639 0.0
C1309 C 0.09621 0.77664 0.18797 0.0
N1310 N 0.05107 0.72896 0.17395 0.0
N1311 N 0.18096 0.82024 0.12552 0.0
C1312 C 0.08145 0.75209 0.16133 0.0
C1313 C 0.14904 0.79805 0.13762 0.0
N1314 N 0.08243 0.72897 0.09581 0.0
N1315 N 0.14677 0.82163 0.20317 0.0
H1316 H 0.19778 0.81808 0.09869 0.0
H1317 H 0.19041 0.84113 0.14113 0.0
H1318 H 0.1322 0.82547 0.23058 0.0
H1319 H 0.17569 0.83576 0.19918 0.0
H1320 H 0.05241 0.71605 0.09978 0.0
H1321 H 0.09742 0.72395 0.0689 0.0
H1322 H 0.04314 0.70756 0.15861 0.0
H1323 H 0.03475 0.73055 0.20106 0.0
C1324 C 0.58603 0.80878 0.65851 0.0
C1325 C 0.60019 0.78325 0.68415 0.0
C1326 C 0.6489 0.76094 0.63151 0.0
C1327 C 0.63182 0.78476 0.60484 0.0
N1328 N 0.57626 0.82768 0.59178 0.0
N1329 N 0.64035 0.73194 0.69326 0.0
C1330 C 0.59842 0.80782 0.61798 0.0
C1331 C 0.63007 0.75834 0.67 0.0
N1332 N 0.56107 0.83442 0.67301 0.0
N1333 N 0.68419 0.74127 0.62022 0.0
H1334 H 0.62753 0.72917 0.7214 0.0
H1335 H 0.65811 0.71131 0.68363 0.0
H1336 H 0.69953 0.74323 0.59272 0.0
H1337 H 0.70107 0.72516 0.63897 0.0
H1338 H 0.55485 0.85602 0.65729 0.0
H1339 H 0.54881 0.83494 0.70174 0.0
H1340 H 0.54731 0.84103 0.59897 0.0
H1341 H 0.58408 0.82926 0.56213 0.0
C1342 C 0.10553 0.02543 0.67206 0.0
C1343 C 0.12622 0.99564 0.68561 0.0
C1344 C 0.11663 0.97154 0.61964 0.0
C1345 C 0.09338 1.0005 0.60686 0.0
N1346 N 0.05909 0.05252 0.62252 0.0
N1347 N 0.14432 0.93852 0.67412 0.0
C1348 C 0.08614 0.02673 0.63361 0.0
C1349 C 0.12927 0.96814 0.65994 0.0
N1350 N 0.10383 0.05259 0.69581 0.0
N1351 N 0.12945 0.94803 0.59308 0.0
H1352 H 0.15761 0.9356 0.70231 0.0
H1353 H 0.14127 0.91643 0.65876 0.0
H1354 H 0.12272 0.94931 0.56316 0.0
H1355 H 0.15041 0.92824 0.60007 0.0
H1356 H 0.09534 0.07604 0.68578 0.0
H1357 H 0.11336 0.05269 0.72517 0.0
H1358 H 0.04863 0.07119 0.64138 0.0
H1359 H 0.04346 0.05372 0.59504 0.0
C1360 C 0.34162 0.55809 0.42884 0.0
C1361 C 0.37479 0.53465 0.44129 0.0
C1362 C 0.37224 0.50905 0.37574 0.0
C1363 C 0.34209 0.53421 0.36236 0.0
N1364 N 0.30279 0.58513 0.37478 0.0
N1365 N 0.42674 0.49124 0.42506 0.0
C1366 C 0.32833 0.55946 0.38854 0.0
C1367 C 0.39145 0.51111 0.4142 0.0
N1368 N 0.32084 0.57806 0.45569 0.0
N1369 N 0.38236 0.4829 0.35198 0.0
H1370 H 0.44173 0.49251 0.45279 0.0
H1371 H 0.44394 0.47579 0.40578 0.0
H1372 H 0.36992 0.48023 0.3236 0.0
H1373 H 0.40009 0.46217 0.36146 0.0
H1374 H 0.29197 0.59184 0.44938 0.0
H1375 H 0.33016 0.57939 0.4851 0.0
H1376 H 0.29664 0.60651 0.39087 0.0
H1377 H 0.28983 0.5859 0.34627 0.0
C1378 C 0.84298 0.71142 0.42137 0.0
C1379 C 0.82584 0.74151 0.43662 0.0
C1380 C 0.84076 0.76792 0.37256 0.0
C1381 C 0.86597 0.73961 0.36032 0.0
N1382 N 0.89376 0.68511 0.37502 0.0
N1383 N 0.805 0.79809 0.42578 0.0
C1384 C 0.86771 0.71158 0.38537 0.0
C1385 C 0.82357 0.76956 0.41171 0.0
N1386 N 0.83418 0.68244 0.44026 0.0
N1387 N 0.83079 0.79256 0.3465 0.0
H1388 H 0.78733 0.79901 0.45229 0.0
H1389 H 0.80829 0.82086 0.41191 0.0
H1390 H 0.84326 0.79375 0.31804 0.0
H1391 H 0.80711 0.81099 0.3521 0.0
H1392 H 0.84308 0.65946 0.42902 0.0
H1393 H 0.81214 0.68091 0.464 0.0
H1394 H 0.90025 0.66537 0.39381 0.0
H1395 H 0.91275 0.68448 0.34921 0.0
C1396 C 0.39321 0.77342 0.88279 0.0
C1397 C 0.37282 0.75268 0.85441 0.0
C1398 C 0.32604 0.72765 0.90671 0.0
C1399 C 0.34294 0.75086 0.93409 0.0
N1400 N 0.38874 0.79924 0.94672 0.0
N1401 N 0.31257 0.71423 0.83855 0.0
C1402 C 0.37526 0.77481 0.92166 0.0
C1403 C 0.33746 0.73072 0.86611 0.0
N1404 N 0.43092 0.79104 0.87288 0.0
N1405 N 0.2988 0.70262 0.91947 0.0
H1406 H 0.3171 0.71661 0.80843 0.0
H1407 H 0.28413 0.70029 0.84532 0.0
H1408 H 0.28724 0.70088 0.94834 0.0
H1409 H 0.29008 0.68243 0.90217 0.0
H1410 H 0.45074 0.80366 0.8932 0.0
H1411 H 0.4452 0.79024 0.84487 0.0
H1412 H 0.4083 0.81926 0.93798 0.0
H1413 H 0.37739 0.80142 0.97548 0.0
C1414 C 0.87105 0.54697 0.86911 0.0
C1415 C 0.84509 0.51953 0.85544 0.0
C1416 C 0.85325 0.49306 0.92046 0.0
C1417 C 0.87982 0.52021 0.934 0.0
N1418 N 0.90957 0.57455 0.92313 0.0
N1419 N 0.81631 0.46484 0.86632 0.0
C1420 C 0.88738 0.54752 0.9087 0.0
C1421 C 0.83758 0.49224 0.88074 0.0
N1422 N 0.88302 0.57155 0.84359 0.0
N1423 N 0.83979 0.46908 0.9462 0.0
H1424 H 0.80091 0.46419 0.83874 0.0
H1425 H 0.81589 0.44216 0.88067 0.0
H1426 H 0.85158 0.46697 0.97483 0.0
H1427 H 0.8144 0.45209 0.94007 0.0
H1428 H 0.90476 0.59077 0.85053 0.0
H1429 H 0.87367 0.57237 0.81421 0.0
H1430 H 0.91002 0.59751 0.90954 0.0
H1431 H 0.92631 0.57451 0.95014 0.0
C1432 C 0.59605 0.5234 0.67292 0.0
C1433 C 0.6232 0.49672 0.68717 0.0
C1434 C 0.61811 0.46994 0.62222 0.0
C1435 C 0.59096 0.49657 0.60797 0.0
N1436 N 0.55456 0.54875 0.61887 0.0
N1437 N 0.65329 0.44217 0.67771 0.0
C1438 C 0.5798 0.52312 0.63334 0.0
C1439 C 0.632 0.4693 0.66243 0.0
N1440 N 0.58344 0.54818 0.69786 0.0
N1441 N 0.63371 0.44636 0.59687 0.0
H1442 H 0.66777 0.44181 0.70567 0.0
H1443 H 0.65455 0.41937 0.66373 0.0
H1444 H 0.62584 0.44545 0.56717 0.0
H1445 H 0.65744 0.42852 0.60447 0.0
H1446 H 0.55808 0.56525 0.6919 0.0
H1447 H 0.59708 0.55145 0.72566 0.0
H1448 H 0.55022 0.57128 0.63292 0.0
H1449 H 0.53852 0.54786 0.59156 0.0
C1450 C 0.1106 0.25122 0.67037 0.0
C1451 C 0.09041 0.28015 0.68624 0.0
C1452 C 0.0979 0.30758 0.62202 0.0
C1453 C 0.12239 0.27984 0.60728 0.0
N1454 N 0.15783 0.22737 0.61932 0.0
N1455 N 0.06976 0.33722 0.67894 0.0
C1456 C 0.13016 0.25222 0.63206 0.0
C1457 C 0.0857 0.30871 0.66251 0.0
N1458 N 0.11161 0.2228 0.692 0.0
N1459 N 0.08373 0.33208 0.59726 0.0
H1460 H 0.05661 0.33823 0.70736 0.0
H1461 H 0.07176 0.36015 0.66527 0.0
H1462 H 0.08912 0.33217 0.56713 0.0
H1463 H 0.06268 0.3513 0.60596 0.0
H1464 H 0.1216 0.20008 0.68076 0.0
H1465 H 0.09866 0.221 0.72031 0.0
H1466 H 0.16827 0.20776 0.63684 0.0
H1467 H 0.17397 0.2279 0.59208 0.0
C1468 C 0.62533 0.31606 0.13327 0.0
C1469 C 0.62282 0.28734 0.10943 0.0
C1470 C 0.5833 0.25863 0.16321 0.0
C1471 C 0.59036 0.28587 0.18847 0.0
N1472 N 0.62445 0.33949 0.19869 0.0
N1473 N 0.60532 0.22901 0.10482 0.0
C1474 C 0.61273 0.31449 0.1738 0.0
C1475 C 0.6038 0.25793 0.12536 0.0
N1476 N 0.64002 0.34503 0.11716 0.0
N1477 N 0.55546 0.23365 0.17513 0.0
H1478 H 0.61767 0.22674 0.07643 0.0
H1479 H 0.59772 0.20627 0.1174 0.0
H1480 H 0.53869 0.23398 0.2021 0.0
H1481 H 0.54516 0.21449 0.15689 0.0
H1482 H 0.63679 0.36779 0.13103 0.0
H1483 H 0.65345 0.34658 0.08889 0.0
H1484 H 0.64541 0.35894 0.19063 0.0
H1485 H 0.61614 0.34003 0.22832 0.0
C1486 C 0.11362 0.52968 0.12162 0.0
C1487 C 0.08528 0.50361 0.10804 0.0
C1488 C 0.08797 0.47806 0.17374 0.0
C1489 C 0.11842 0.50315 0.18681 0.0
N1490 N 0.15396 0.55564 0.17556 0.0
N1491 N 0.04737 0.45222 0.11981 0.0
C1492 C 0.12934 0.52972 0.16131 0.0
C1493 C 0.0728 0.47779 0.13391 0.0
N1494 N 0.12824 0.55333 0.09591 0.0
N1495 N 0.07078 0.45573 0.19989 0.0
H1496 H 0.03257 0.45255 0.09196 0.0
H1497 H 0.04248 0.43011 0.13473 0.0
H1498 H 0.08154 0.45344 0.2288 0.0
H1499 H 0.0433 0.44056 0.19387 0.0
H1500 H 0.15346 0.57034 0.10225 0.0
H1501 H 0.11672 0.55558 0.06719 0.0
H1502 H 0.15653 0.57837 0.16155 0.0
H1503 H 0.1703 0.55512 0.20273 0.0
C1504 C 0.31005 0.17098 0.1277 0.0
C1505 C 0.31643 0.17149 0.1691 0.0
C1506 C 0.3147 0.11084 0.16932 0.0
C1507 C 0.31753 0.11049 0.12764 0.0
N1508 N 0.31618 0.1403 0.06655 0.0
N1509 N 0.32264 0.14178 0.23008 0.0
C1510 C 0.31425 0.14064 0.10666 0.0
C1511 C 0.31785 0.1413 0.19013 0.0
N1512 N 0.29935 0.19947 0.10861 0.0
N1513 N 0.30801 0.08202 0.18893 0.0
H1514 H 0.32074 0.16348 0.24647 0.0
H1515 H 0.33009 0.12102 0.24688 0.0
H1516 H 0.30134 0.06039 0.17391 0.0
H1517 H 0.3038 0.08009 0.21917 0.0
H1518 H 0.29054 0.20076 0.07903 0.0
H1519 H 0.29441 0.22134 0.12376 0.0
H1520 H 0.31977 0.16144 0.04947 0.0
H1521 H 0.31602 0.11849 0.05029 0.0
C1522 C 0.86007 0.11982 0.17366 0.0
C1523 C 0.90139 0.10181 0.17376 0.0
C1524 C 0.93303 0.14192 0.12586 0.0
C1525 C 0.89164 0.16022 0.12583 0.0
N1526 N 0.8134 0.16335 0.14721 0.0
N1527 N 0.97966 0.09882 0.1555 0.0
C1528 C 0.85475 0.14822 0.14914 0.0
C1529 C 0.93847 0.11377 0.15132 0.0
N1530 N 0.82603 0.11081 0.19868 0.0
N1531 N 0.96599 0.14965 0.09931 0.0
H1532 H -0.01538 0.07822 0.17339 0.0
H1533 H 0.00958 0.10822 0.14401 0.0
H1534 H 0.9633 0.169 0.0794 0.0
H1535 H -0.00559 0.13511 0.09428 0.0
H1536 H 0.79885 0.126 0.20582 0.0
H1537 H 0.82537 0.08861 0.214 0.0
H1538 H 0.78335 0.15204 0.15565 0.0
H1539 H 0.80841 0.18723 0.137 0.0
C1540 C 0.677 0.88138 0.87707 0.0
C1541 C 0.63748 0.86104 0.87702 0.0
C1542 C 0.6083 0.89311 0.933 0.0
C1543 C 0.64357 0.91636 0.92943 0.0
N1544 N 0.72016 0.92562 0.90792 0.0
N1545 N 0.56053 0.85363 0.90164 0.0
C1546 C 0.68064 0.90855 0.9043 0.0
C1547 C 0.60167 0.86891 0.90366 0.0
N1548 N 0.70923 0.87668 0.84886 0.0
N1549 N 0.58311 0.89214 0.96665 0.0
H1550 H 0.55353 0.83285 0.88508 0.0
H1551 H 0.53211 0.86264 0.91627 0.0
H1552 H 0.59121 0.90616 0.99137 0.0
H1553 H 0.55882 0.87416 0.9722 0.0
H1554 H 0.73594 0.89278 0.8438 0.0
H1555 H 0.70741 0.85811 0.82784 0.0
H1556 H 0.74997 0.91925 0.89362 0.0
H1557 H 0.72501 0.94404 0.92866 0.0
C1558 C 0.03978 0.87566 0.9101 0.0
C1559 C 0.07724 0.864 0.93249 0.0
C1560 C 0.1191 0.91403 0.9133 0.0
C1561 C 0.08496 0.92316 0.88576 0.0
N1562 N 0.01265 0.91031 0.85654 0.0
N1563 N 0.15579 0.871 0.95071 0.0
C1564 C 0.04493 0.90352 0.88408 0.0
C1565 C 0.11765 0.88297 0.93288 0.0
N1566 N -0.00111 0.86048 0.91429 0.0
N1567 N 0.15232 0.93594 0.92245 0.0
H1568 H 0.15755 0.84815 0.96459 0.0
H1569 H 0.18743 0.88199 0.94772 0.0
H1570 H 0.15331 0.95925 0.91016 0.0
H1571 H 0.17503 0.93266 0.94555 0.0
H1572 H 0.96889 0.86985 0.90272 0.0
H1573 H -0.00563 0.83982 0.93214 0.0
H1574 H -0.01551 0.89553 0.85167 0.0
H1575 H 0.01538 0.92953 0.83648 0.0
C1576 C 0.3557 0.64823 0.68581 0.0
C1577 C 0.32248 0.67269 0.67932 0.0
C1578 C 0.28757 0.63483 0.63037 0.0
C1579 C 0.32719 0.61447 0.63092 0.0
N1580 N 0.40341 0.6071 0.65735 0.0
N1581 N 0.25173 0.687 0.64855 0.0
C1582 C 0.36254 0.62289 0.65783 0.0
C1583 C 0.28649 0.66517 0.65284 0.0
N1584 N 0.37958 0.64806 0.7202 0.0
N1585 N 0.25138 0.62577 0.60793 0.0
H1586 H 0.24716 0.70696 0.6673 0.0
H1587 H 0.22781 0.68574 0.62617 0.0
H1588 H 0.25179 0.60544 0.58934 0.0
H1589 H 0.21994 0.63725 0.60924 0.0
H1590 H 0.40215 0.62932 0.72773 0.0
H1591 H 0.37199 0.66404 0.74332 0.0
H1592 H 0.4314 0.61595 0.67274 0.0
H1593 H 0.41044 0.58599 0.64133 0.0
C1594 C 0.85452 0.64763 0.61938 0.0
C1595 C 0.89651 0.66442 0.61664 0.0
C1596 C 0.92972 0.62459 0.66414 0.0
C1597 C 0.88745 0.60767 0.66723 0.0
N1598 N 0.80782 0.60603 0.64949 0.0
N1599 N 0.97599 0.6658 0.63074 0.0
C1600 C 0.84956 0.6201 0.64529 0.0
C1601 C 0.93459 0.65195 0.63745 0.0
N1602 N 0.81933 0.65697 0.59565 0.0
N1603 N 0.9643 0.61649 0.68903 0.0
H1604 H 0.98048 0.68601 0.61216 0.0
H1605 H 0.00631 0.65582 0.64079 0.0
H1606 H 0.96222 0.59783 0.70988 0.0
H1607 H -0.00614 0.63016 0.6918 0.0
H1608 H 0.79083 0.64253 0.59064 0.0
H1609 H 0.81899 0.67859 0.57916 0.0
H1610 H 0.77775 0.61805 0.64243 0.0
H1611 H 0.80267 0.58214 0.65958 0.0
C1612 C 0.62415 0.35643 0.4214 0.0
C1613 C 0.64279 0.35527 0.38278 0.0
C1614 C 0.67172 0.41181 0.39256 0.0
C1615 C 0.64751 0.41393 0.42849 0.0
N1616 N 0.62028 0.38419 0.48444 0.0
N1617 N 0.68475 0.38218 0.33137 0.0
C1618 C 0.62973 0.3849 0.44512 0.0
C1619 C 0.66764 0.38285 0.36863 0.0
N1620 N 0.59892 0.33087 0.43492 0.0
N1621 N 0.70018 0.43674 0.38235 0.0
H1622 H 0.68312 0.36132 0.31356 0.0
H1623 H 0.69829 0.40266 0.31723 0.0
H1624 H 0.7057 0.45673 0.40076 0.0
H1625 H 0.72186 0.43599 0.35832 0.0
H1626 H 0.57951 0.33167 0.46038 0.0
H1627 H 0.59506 0.30958 0.41884 0.0
H1628 H 0.61143 0.36288 0.49967 0.0
H1629 H 0.62686 0.40421 0.50283 0.0
C1630 C 0.0844 0.36377 0.37696 0.0
C1631 C 0.07507 0.36194 0.41797 0.0
C1632 C 0.06235 0.42226 0.41815 0.0
C1633 C 0.0722 0.4237 0.37731 0.0
N1634 N 0.07721 0.3946 0.31612 0.0
N1635 N 0.0477 0.38882 0.47627 0.0
C1636 C 0.07806 0.39396 0.35625 0.0
C1637 C 0.0613 0.39104 0.43803 0.0
N1638 N 0.10224 0.33722 0.35798 0.0
N1639 N 0.05593 0.45092 0.43823 0.0
H1640 H 0.04832 0.36667 0.4918 0.0
H1641 H 0.03311 0.4082 0.49178 0.0
H1642 H 0.05228 0.47332 0.42376 0.0
H1643 H 0.055 0.45262 0.46872 0.0
H1644 H 0.11499 0.33813 0.32949 0.0
H1645 H 0.10786 0.31499 0.37205 0.0
H1646 H 0.07697 0.37339 0.29888 0.0
H1647 H 0.07161 0.41629 0.30028 0.0
C1648 C 0.86114 0.13805 0.61137 0.0
C1649 C 0.82892 0.11291 0.61811 0.0
C1650 C 0.79485 0.14905 0.66941 0.0
C1651 C 0.8327 0.17101 0.66688 0.0
N1652 N 0.90742 0.18049 0.63875 0.0
N1653 N 0.75602 0.09971 0.64515 0.0
C1654 C 0.86749 0.16354 0.63919 0.0
C1655 C 0.7929 0.11988 0.64475 0.0
N1656 N 0.88344 0.13938 0.57625 0.0
N1657 N 0.76271 0.15458 0.69748 0.0
H1658 H 0.75276 0.07952 0.62658 0.0
H1659 H 0.72672 0.10437 0.661 0.0
H1660 H 0.76325 0.17493 0.71608 0.0
H1661 H 0.73669 0.13835 0.70421 0.0
H1662 H 0.90538 0.15843 0.56874 0.0
H1663 H 0.87475 0.12436 0.55253 0.0
H1664 H 0.93556 0.1722 0.62312 0.0
H1665 H 0.91334 0.20225 0.65389 0.0
C1666 C 0.34628 0.15481 0.62427 0.0
C1667 C 0.38835 0.17136 0.62021 0.0
C1668 C 0.42225 0.13273 0.66868 0.0
C1669 C 0.38023 0.11566 0.67257 0.0
N1670 N 0.3006 0.11297 0.65514 0.0
N1671 N 0.46838 0.17184 0.632 0.0
C1672 C 0.34194 0.1276 0.65076 0.0
C1673 C 0.42681 0.15911 0.64066 0.0
N1674 N 0.31065 0.16369 0.60082 0.0
N1675 N 0.45699 0.12572 0.69387 0.0
H1676 H 0.47291 0.19088 0.61176 0.0
H1677 H 0.49865 0.16164 0.64188 0.0
H1678 H 0.45494 0.10811 0.71601 0.0
H1679 H 0.48641 0.13969 0.6957 0.0
H1680 H 0.28183 0.14937 0.59686 0.0
H1681 H 0.31014 0.18479 0.58343 0.0
H1682 H 0.27016 0.12471 0.64862 0.0
H1683 H 0.29628 0.08879 0.6645 0.0
C1684 C 0.17623 0.88351 0.3755 0.0
C1685 C 0.13836 0.86164 0.37692 0.0
C1686 C 0.11172 0.89061 0.43596 0.0
C1687 C 0.14405 0.91579 0.43064 0.0
N1688 N 0.21749 0.92941 0.40519 0.0
N1689 N 0.06477 0.84983 0.40594 0.0
C1690 C 0.17961 0.91033 0.40325 0.0
C1691 C 0.10461 0.86686 0.40623 0.0
N1692 N 0.20693 0.88026 0.34579 0.0
N1693 N 0.08967 0.8879 0.4711 0.0
H1694 H 0.05781 0.82999 0.38777 0.0
H1695 H 0.03726 0.85658 0.42334 0.0
H1696 H 0.09825 0.90232 0.49537 0.0
H1697 H 0.06791 0.86851 0.4778 0.0
H1698 H 0.23277 0.89695 0.34014 0.0
H1699 H 0.2047 0.86186 0.32458 0.0
H1700 H 0.24612 0.92585 0.38801 0.0
H1701 H 0.22244 0.94681 0.42719 0.0
C1702 C 0.56048 0.88598 0.4369 0.0
C1703 C 0.56971 0.85661 0.41575 0.0
C1704 C 0.56824 0.88811 0.35373 0.0
C1705 C 0.56293 0.91772 0.37528 0.0
N1706 N 0.53732 0.94328 0.4345 0.0
N1707 N 0.56869 0.82847 0.3535 0.0
C1708 C 0.55358 0.91609 0.41601 0.0
C1709 C 0.56904 0.8573 0.37393 0.0
N1710 N 0.56015 0.8854 0.47703 0.0
N1711 N 0.57361 0.88965 0.31388 0.0
H1712 H 0.56974 0.80594 0.3676 0.0
H1713 H 0.56382 0.82668 0.3233 0.0
H1714 H 0.56851 0.91138 0.29802 0.0
H1715 H 0.58413 0.86988 0.29668 0.0
H1716 H 0.55935 0.9066 0.49427 0.0
H1717 H 0.56275 0.86359 0.49318 0.0
H1718 H 0.52439 0.94291 0.46294 0.0
H1719 H 0.53209 0.96513 0.41927 0.0
C1720 C 0.86919 0.62271 0.11787 0.0
C1721 C 0.82781 0.60496 0.11603 0.0
C1722 C 0.7932 0.64557 0.16158 0.0
C1723 C 0.8349 0.66321 0.16404 0.0
N1724 N 0.91427 0.66619 0.14612 0.0
N1725 N 0.74791 0.60382 0.12841 0.0
C1726 C 0.8731 0.65112 0.14242 0.0
C1727 C 0.78916 0.61766 0.13576 0.0
N1728 N 0.90467 0.61348 0.0945 0.0
N1729 N 0.75838 0.65362 0.18616 0.0
H1730 H 0.74376 0.58373 0.10962 0.0
H1731 H 0.71743 0.61392 0.13786 0.0
H1732 H 0.75964 0.67303 0.20606 0.0
H1733 H 0.7295 0.63927 0.1895 0.0
H1734 H 0.93232 0.62852 0.08855 0.0
H1735 H 0.90618 0.59127 0.07929 0.0
H1736 H 0.94482 0.65495 0.1389 0.0
H1737 H 0.91854 0.69001 0.15675 0.0
C1738 C 0.37041 0.61251 0.12783 0.0
C1739 C 0.38343 0.6107 0.16812 0.0
C1740 C 0.39729 0.67063 0.16686 0.0
C1741 C 0.38499 0.67211 0.12641 0.0
N1742 N 0.37518 0.64217 0.06609 0.0
N1743 N 0.4194 0.63714 0.22311 0.0
C1744 C 0.37659 0.64225 0.10622 0.0
C1745 C 0.40058 0.63946 0.18653 0.0
N1746 N 0.35009 0.58628 0.11033 0.0
N1747 N 0.40314 0.69908 0.18726 0.0
H1748 H 0.42135 0.61496 0.23855 0.0
H1749 H 0.4366 0.65645 0.2366 0.0
H1750 H 0.40168 0.72181 0.17352 0.0
H1751 H 0.40653 0.70014 0.21768 0.0
H1752 H 0.33496 0.5873 0.0827 0.0
H1753 H 0.34545 0.56423 0.12495 0.0
H1754 H 0.37343 0.62064 0.04948 0.0
H1755 H 0.38106 0.66334 0.04941 0.0
C1756 C 0.09719 0.40524 0.89834 0.0
C1757 C 0.1357 0.41997 0.91702 0.0
C1758 C 0.18338 0.3769 0.88547 0.0
C1759 C 0.14427 0.36063 0.87097 0.0
N1760 N 0.06293 0.3563 0.87071 0.0
N1761 N 0.21545 0.41517 0.93257 0.0
C1762 C 0.10101 0.37389 0.87967 0.0
C1763 C 0.17891 0.40466 0.91153 0.0
N1764 N 0.05694 0.42188 0.89613 0.0
N1765 N 0.22507 0.3661 0.87392 0.0
H1766 H 0.21442 0.43483 0.95202 0.0
H1767 H 0.2461 0.4025 0.93338 0.0
H1768 H 0.22951 0.34536 0.8562 0.0
H1769 H 0.2548 0.37904 0.8794 0.0
H1770 H 0.0297 0.41384 0.87926 0.0
H1771 H 0.05227 0.44595 0.90579 0.0
H1772 H 0.03093 0.36251 0.88116 0.0
H1773 H 0.06359 0.33356 0.85652 0.0
C1774 C 0.56732 0.35958 0.87679 0.0
C1775 C 0.56978 0.36007 0.91851 0.0
C1776 C 0.56379 0.42054 0.91647 0.0
C1777 C 0.57043 0.42015 0.87513 0.0
N1778 N 0.57612 0.38913 0.81515 0.0
N1779 N 0.56886 0.39122 0.9786 0.0
C1780 C 0.57099 0.38955 0.85505 0.0
C1781 C 0.56705 0.39067 0.93848 0.0
N1782 N 0.56127 0.33036 0.85795 0.0
N1783 N 0.55404 0.44952 0.93466 0.0
H1784 H 0.56761 0.36984 0.99563 0.0
H1785 H 0.57345 0.41265 0.99495 0.0
H1786 H 0.55048 0.4711 0.91875 0.0
H1787 H 0.54488 0.45156 0.96407 0.0
H1788 H 0.55512 0.32806 0.82796 0.0
H1789 H 0.55803 0.30861 0.87348 0.0
H1790 H 0.58331 0.36793 0.7991 0.0
H1791 H 0.57478 0.41049 0.79807 0.0
C1792 C 0.23368 1.00076 0.96835 0.0
C1793 C 0.22326 0.02531 0.99678 0.0
C1794 C 0.17331 0.05259 0.9491 0.0
C1795 C 0.18422 0.02811 0.92065 0.0
N1796 N 0.23418 0.98475 0.89966 0.0
N1797 N 0.19015 0.07789 1.01226 0.0
C1798 C 0.21782 1.00428 0.92907 0.0
C1799 C 0.1951 0.05227 0.98655 0.0
N1800 N 0.25764 0.97341 0.97938 0.0
N1801 N 0.14139 0.07587 0.94028 0.0
H1802 H 0.20421 0.07763 0.0404 0.0
H1803 H 0.17429 0.10003 1.00513 0.0
H1804 H 0.12791 0.0785 0.9121 0.0
H1805 H 0.12738 0.09183 0.96089 0.0
H1806 H 0.26283 0.95308 0.9613 0.0
H1807 H 0.26872 0.96962 1.00811 0.0
H1808 H 0.26079 0.96824 0.90332 0.0
H1809 H 0.22365 0.98701 0.87059 0.0
C1810 C 0.0202 0.22799 0.93315 0.0
C1811 C 0.04554 0.25698 0.92581 0.0
C1812 C 0.02444 0.2784 0.99108 0.0
C1813 C 0.00139 0.24853 0.9994 0.0
N1814 N -0.01551 0.19253 0.98164 0.0
N1815 N 0.07793 0.30766 0.95035 0.0
C1816 C 0.00127 0.22266 0.97123 0.0
C1817 C 0.04933 0.28155 0.95554 0.0
N1818 N 0.0143 0.20556 0.90371 0.0
N1819 N 0.02112 0.30448 1.0163 0.0
H1820 H 0.09481 0.31222 0.92411 0.0
H1821 H 0.08725 0.32369 0.97282 0.0
H1822 H 0.00608 0.30282 0.04379 0.0
H1823 H 0.03116 0.32834 1.00913 0.0
H1824 H -0.00678 0.18513 0.90586 0.0
H1825 H 0.02781 0.20895 0.87576 0.0
H1826 H -0.01256 0.17151 0.9643 0.0
H1827 H 0.9711 0.18784 1.00943 0.0
C1828 C 0.22772 0.2863 0.3233 0.0
C1829 C 0.2197 0.26035 0.29601 0.0
C1830 C 0.17716 0.23027 0.34626 0.0
C1831 C 0.18109 0.25768 0.37202 0.0
N1832 N 0.20723 0.31301 0.38431 0.0
N1833 N 0.18434 0.20887 0.2798 0.0
C1834 C 0.20612 0.28586 0.36056 0.0
C1835 C 0.19366 0.23264 0.30705 0.0
N1836 N 0.25697 0.31114 0.31388 0.0
N1837 N 0.15817 0.20176 0.35987 0.0
H1838 H 0.19612 0.21018 0.25094 0.0
H1839 H 0.16221 0.18937 0.28462 0.0
H1840 H 0.14664 0.19936 0.38869 0.0
H1841 H 0.15737 0.1798 0.34411 0.0
H1842 H 0.26962 0.32791 0.33425 0.0
H1843 H 0.27064 0.31397 0.28592 0.0
H1844 H 0.21892 0.33598 0.37522 0.0
H1845 H 0.19432 0.31314 0.41273 0.0
C1846 C 0.01063 0.04202 0.31287 0.0
C1847 C 0.00611 1.01265 0.29057 0.0
C1848 C 0.03729 0.98041 0.34521 0.0
C1849 C 0.0429 1.00976 0.36745 0.0
N1850 N 0.04037 0.06911 0.37116 0.0
N1851 N 0.02403 0.95556 0.28128 0.0
C1852 C 0.03087 0.04081 0.35097 0.0
C1853 C 0.02235 0.98235 0.30551 0.0
N1854 N -0.00483 0.07103 0.29733 0.0
N1855 N 0.04524 0.95056 0.36264 0.0
H1856 H 0.01461 0.95701 0.25179 0.0
H1857 H 0.03883 0.93316 0.28895 0.0
H1858 H 0.05483 0.94841 0.39202 0.0
H1859 H 0.03843 0.92798 0.34942 0.0
H1860 H -0.00683 0.0931 0.31275 0.0
H1861 H 0.9834 0.07279 0.26848 0.0
H1862 H 0.03718 0.0927 0.35946 0.0
H1863 H 0.05336 0.06911 0.39963 0.0
C1864 C 0.78254 0.97602 0.10195 0.0
C1865 C 0.78929 1.00542 0.12377 0.0
C1866 C 0.76127 0.03807 0.06827 0.0
C1867 C 0.75167 1.00867 0.0473 0.0
N1868 N 0.74555 0.9493 0.04693 0.0
N1869 N 0.77646 0.06349 0.13138 0.0
C1870 C 0.76029 0.97747 0.06483 0.0
C1871 C 0.77574 0.03616 0.10803 0.0
N1872 N 0.79842 0.94677 0.11646 0.0
N1873 N 0.75744 0.06786 0.04972 0.0
H1874 H 0.78514 0.06212 0.16098 0.0
H1875 H 0.76383 0.08639 0.1229 0.0
H1876 H 0.74798 0.06996 1.02029 0.0
H1877 H 0.76775 0.09007 0.06212 0.0
H1878 H 0.79982 0.92513 0.10006 0.0
H1879 H 0.81226 0.94462 0.14456 0.0
H1880 H 0.74597 0.92626 0.06046 0.0
H1881 H 0.73012 0.94917 1.01939 0.0
C1882 C -0.01352 0.78977 0.0789 0.0
C1883 C 0.97776 0.76913 0.04597 0.0
C1884 C 0.91959 0.74019 0.08375 0.0
C1885 C 0.93 0.75954 0.11795 0.0
N1886 N 0.97865 0.79964 0.14889 0.0
N1887 N 0.94241 0.72071 1.01941 0.0
C1888 C 0.96531 0.78321 0.11585 0.0
C1889 C 0.94595 0.74337 0.04901 0.0
N1890 N 0.01391 0.81658 0.07425 0.0
N1891 N 0.88387 0.71883 0.08391 0.0
H1892 H 0.95963 0.72284 0.99282 0.0
H1893 H 0.92497 0.69854 1.02219 0.0
H1894 H 0.86627 0.71227 0.10907 0.0
H1895 H 0.8702 0.70856 0.05851 0.0
H1896 H 0.01871 0.83459 0.09561 0.0
H1897 H 0.02853 0.82259 0.04735 0.0
H1898 H 0.00758 0.81417 0.15033 0.0
H1899 H 0.96306 0.79677 0.17601 0.0
C1900 C 0.76539 0.79323 0.68252 0.0
C1901 C 0.78174 0.76218 0.66967 0.0
C1902 C 0.76273 0.73777 0.73355 0.0
C1903 C 0.74455 0.76838 0.74591 0.0
N1904 N 0.72283 0.8243 0.73098 0.0
N1905 N 0.78859 0.7038 0.67932 0.0
C1906 C 0.74421 0.79587 0.71998 0.0
C1907 C 0.77792 0.73409 0.69418 0.0
N1908 N 0.77178 0.82039 0.65943 0.0
N1909 N 0.7665 0.7125 0.75992 0.0
H1910 H 0.79883 0.70081 0.65027 0.0
H1911 H 0.78324 0.68168 0.6941 0.0
H1912 H 0.75704 0.71504 0.78926 0.0
H1913 H 0.78281 0.69031 0.75399 0.0
H1914 H 0.76584 0.84445 0.66873 0.0
H1915 H 0.78502 0.81878 0.63112 0.0
H1916 H 0.71627 0.84377 0.71184 0.0
H1917 H 0.70966 0.82781 0.75909 0.0
C1918 C 0.93301 0.98498 0.69847 0.0
C1919 C 0.93436 1.01265 0.67277 0.0
C1920 C 0.97937 0.04329 0.72149 0.0
C1921 C 0.9774 0.01581 0.74749 0.0
N1922 N 0.95709 0.95927 0.75963 0.0
N1923 N 0.95597 0.06873 0.66001 0.0
C1924 C 0.95511 0.9864 0.73577 0.0
C1925 C 0.95729 0.04183 0.6842 0.0
N1926 N 0.90918 0.95762 0.68736 0.0
N1927 N 0.00355 0.07057 0.73229 0.0
H1928 H 0.94384 0.06752 0.63134 0.0
H1929 H 0.96601 0.09232 0.66815 0.0
H1930 H 0.01748 0.07338 0.76023 0.0
H1931 H 0.01137 0.08999 0.71354 0.0
H1932 H 0.9013 0.93813 0.70598 0.0
H1933 H 0.8959 0.9548 0.65915 0.0
H1934 H 0.94657 0.9358 0.75145 0.0
H1935 H 0.97108 0.95987 0.78773 0.0
C1936 C 0.22805 0.49773 0.47234 0.0
C1937 C 0.22121 0.52458 0.49874 0.0
C1938 C 0.17496 0.55259 0.44879 0.0
C1939 C 0.17883 0.52464 0.42383 0.0
N1940 N 0.20611 0.4696 0.41242 0.0
N1941 N 0.18554 0.57631 0.51384 0.0
C1942 C 0.20495 0.49707 0.43562 0.0
C1943 C 0.19376 0.55165 0.48746 0.0
N1944 N 0.25741 0.47297 0.48216 0.0
N1945 N 0.15413 0.58036 0.43482 0.0
H1946 H 0.1992 0.5763 0.54209 0.0
H1947 H 0.16269 0.59543 0.50907 0.0
H1948 H 0.141 0.58182 0.40639 0.0
H1949 H 0.15319 0.60274 0.44972 0.0
H1950 H 0.26918 0.45541 0.46235 0.0
H1951 H 0.27183 0.47073 0.50996 0.0
H1952 H 0.21872 0.44688 0.42158 0.0
H1953 H 0.19265 0.46915 0.38416 0.0
C1954 C 0.06019 0.78114 0.46702 0.0
C1955 C 0.05016 0.76225 0.43239 0.0
C1956 C -0.00778 0.73222 0.47017 0.0
C1957 C -0.00155 0.75402 0.50248 0.0
N1958 N 0.03487 0.80174 0.53001 0.0
N1959 N 0.00712 0.71863 0.40191 0.0
C1960 C 0.03186 0.77882 0.50066 0.0
C1961 C 0.01602 0.73761 0.43417 0.0
N1962 N 0.09721 0.80127 0.46852 0.0
N1963 N 0.96479 0.70539 0.47478 0.0
H1964 H 0.02685 0.71876 0.37664 0.0
H1965 H 0.97917 0.70327 0.39946 0.0
H1966 H 0.94883 0.70007 0.50129 0.0
H1967 H 0.96107 0.6867 0.45413 0.0
H1968 H 0.11041 0.8104 0.49473 0.0
H1969 H 0.11633 0.80804 0.4443 0.0
H1970 H 0.05376 0.8233 0.52771 0.0
H1971 H 0.01613 0.80053 0.55583 0.0
C1972 C 0.20709 0.73619 0.81088 0.0
C1973 C 0.22006 0.76694 0.79455 0.0
C1974 C 0.19279 0.79535 0.85382 0.0
C1975 C 0.18296 0.76443 0.87145 0.0
N1976 N 0.18526 0.70529 0.86923 0.0
N1977 N 0.22959 0.82567 0.80156 0.0
C1978 C 0.19145 0.73479 0.85055 0.0
C1979 C 0.21413 0.79645 0.81643 0.0
N1980 N 0.20995 0.70834 0.78841 0.0
N1981 N 0.17936 0.82377 0.87189 0.0
H1982 H 0.2416 0.82806 0.77292 0.0
H1983 H 0.23238 0.84717 0.81808 0.0
H1984 H 0.16489 0.82391 0.8997 0.0
H1985 H 0.17984 0.84687 0.85852 0.0
H1986 H 0.19769 0.68544 0.79706 0.0
H1987 H 0.22175 0.70863 0.75955 0.0
H1988 H 0.1943 0.68257 0.85743 0.0
H1989 H 0.17442 0.70384 0.89832 0.0
C1990 C 0.05369 0.49541 0.83417 0.0
C1991 C 0.04832 0.51953 0.86448 0.0
C1992 C 0.00024 0.55182 0.81962 0.0
C1993 C 0.00041 0.52537 0.79233 0.0
N1994 N 0.02122 0.46926 0.77715 0.0
N1995 N 0.01505 0.57071 0.88607 0.0
C1996 C 0.02563 0.49652 0.80044 0.0
C1997 C 0.02086 0.54768 0.85729 0.0
N1998 N 0.08646 0.4717 0.83661 0.0
N1999 N 0.98186 0.58138 0.80872 0.0
H2000 H 0.03088 0.56909 0.91331 0.0
H2001 H -0.00755 0.59032 0.88395 0.0
H2002 H 0.967 0.58509 0.78125 0.0
H2003 H -0.01521 0.60286 0.82523 0.0
H2004 H 0.09571 0.4569 0.81291 0.0
H2005 H 0.10661 0.46792 0.86118 0.0
H2006 H 0.034 0.44618 0.78492 0.0
H2007 H 0.00176 0.46883 0.75167 0.0
C2008 C 0.77635 0.53222 0.54675 0.0
C2009 C 0.75114 0.50341 0.53913 0.0
C2010 C 0.76868 0.48251 0.60543 0.0
C2011 C 0.79563 0.51082 0.61252 0.0
N2012 N 0.83524 0.55784 0.58438 0.0
N2013 N 0.73179 0.44786 0.55675 0.0
C2014 C 0.80247 0.53422 0.58156 0.0
C2015 C 0.74982 0.47757 0.56728 0.0
N2016 N 0.77402 0.55848 0.52162 0.0
N2017 N 0.76166 0.46008 0.63477 0.0
H2018 H 0.71839 0.44359 0.52882 0.0
H2019 H 0.73408 0.42672 0.574 0.0
H2020 H 0.77641 0.46206 0.66248 0.0
H2021 H 0.73892 0.44062 0.63256 0.0
H2022 H 0.78624 0.58183 0.52872 0.0
H2023 H 0.75743 0.55759 0.49468 0.0
H2024 H 0.84553 0.57228 0.5607 0.0
H2025 H 0.85483 0.56153 0.60928 0.0
C2026 C 0.93669 0.25154 0.54593 0.0
C2027 C 0.9653 0.27909 0.54083 0.0
C2028 C 0.9463 0.2982 0.60767 0.0
C2029 C 0.91607 0.27125 0.61233 0.0
N2030 N 0.87336 0.22775 0.57926 0.0
N2031 N -0.01344 0.33336 0.56181 0.0
C2032 C 0.90831 0.24977 0.57946 0.0
C2033 C 0.96709 0.30374 0.57038 0.0
N2034 N 0.93805 0.22582 0.52 0.0
N2035 N 0.95462 0.31907 0.63831 0.0
H2036 H 0.00061 0.33831 0.53437 0.0
H2037 H -0.01569 0.35392 0.58003 0.0
H2038 H 0.93775 0.31778 0.66509 0.0
H2039 H 0.98017 0.33671 0.63783 0.0
H2040 H 0.92248 0.20324 0.52527 0.0
H2041 H 0.95732 0.22578 0.49451 0.0
H2042 H 0.86204 0.2162 0.55373 0.0
H2043 H 0.85391 0.22185 0.60353 0.0
C2044 C 0.77682 0.24111 0.24863 0.0
C2045 C 0.74857 0.26908 0.25336 0.0
C2046 C 0.76536 0.286 0.18506 0.0
C2047 C 0.79573 0.259 0.18102 0.0
N2048 N 0.83714 0.21462 0.21314 0.0
N2049 N 0.72408 0.32196 0.22948 0.0
C2050 C 0.80345 0.23777 0.21404 0.0
C2051 C 0.7451 0.29253 0.2224 0.0
N2052 N 0.77685 0.21663 0.27624 0.0
N2053 N 0.75617 0.30585 0.15357 0.0
H2054 H 0.70998 0.32778 0.25668 0.0
H2055 H 0.72479 0.3418 0.21007 0.0
H2056 H 0.77217 0.30352 0.12651 0.0
H2057 H 0.73036 0.32334 0.15341 0.0
H2058 H 0.79086 0.19339 0.27144 0.0
H2059 H 0.76057 0.21861 0.30316 0.0
H2060 H 0.8487 0.20231 0.23809 0.0
H2061 H 0.85587 0.2089 0.18826 0.0
C2062 C 0.95523 0.536 0.18531 0.0
C2063 C 0.93486 0.50648 0.17174 0.0
C2064 C 0.95348 0.47925 0.23447 0.0
C2065 C 0.97457 0.50857 0.2477 0.0
N2066 N 0.00361 0.56281 0.23312 0.0
N2067 N 0.92146 0.44846 0.17983 0.0
C2068 C 0.97767 0.5364 0.22238 0.0
C2069 C 0.93623 0.4776 0.19535 0.0
N2070 N 0.95155 0.56408 0.16342 0.0
N2071 N 0.9492 0.45324 0.25977 0.0
H2072 H 0.90896 0.44671 0.15125 0.0
H2073 H 0.92502 0.42571 0.19365 0.0
H2074 H 0.96135 0.45395 0.28855 0.0
H2075 H 0.93077 0.43205 0.25355 0.0
H2076 H 0.95976 0.58747 0.17379 0.0
H2077 H 0.93826 0.56401 0.13512 0.0
H2078 H 0.01207 0.58193 0.21409 0.0
H2079 H 0.01923 0.56468 0.2605 0.0
C2080 C 0.71679 0.98096 0.48179 0.0
C2081 C 0.72276 1.01143 0.50182 0.0
C2082 C 0.68402 0.04054 0.44783 0.0
C2083 C 0.67812 1.01007 0.42782 0.0
N2084 N 0.684 0.95094 0.42699 0.0
N2085 N 0.718 0.07072 0.50199 0.0
C2086 C 0.69346 0.98021 0.4451 0.0
C2087 C 0.70761 0.04134 0.48445 0.0
N2088 N 0.73505 0.95283 0.49739 0.0
N2089 N 0.66522 0.06859 0.43248 0.0
H2090 H 0.73357 0.07231 0.52943 0.0
H2091 H 0.71348 0.09361 0.48874 0.0
H2092 H 0.64983 0.06929 0.40492 0.0
H2093 H 0.66278 0.09083 0.44752 0.0
H2094 H 0.7375 0.93053 0.48246 0.0
H2095 H 0.74984 0.95211 0.52518 0.0
H2096 H 0.68832 0.92792 0.43997 0.0
H2097 H 0.67006 0.94968 0.39892 0.0
C2098 C 0.49301 0.28771 0.47193 0.0
C2099 C 0.49092 0.26038 0.49804 0.0
C2100 C 0.53143 0.22678 0.44911 0.0
C2101 C 0.53063 0.25368 0.4222 0.0
N2102 N 0.50077 0.30709 0.40496 0.0
N2103 N 0.50065 0.2019 0.50825 0.0
C2104 C 0.5078 0.28314 0.43255 0.0
C2105 C 0.50821 0.22931 0.48583 0.0
N2106 N 0.4824 0.31849 0.48543 0.0
N2107 N 0.5548 0.19883 0.43956 0.0
H2108 H 0.48435 0.20273 0.53535 0.0
H2109 H 0.50773 0.17803 0.49882 0.0
H2110 H 0.56892 0.19516 0.4118 0.0
H2111 H 0.56175 0.18002 0.45953 0.0
H2112 H 0.48752 0.33998 0.46929 0.0
H2113 H 0.47288 0.32281 0.51443 0.0
H2114 H 0.48135 0.32808 0.41003 0.0
H2115 H 0.51065 0.30455 0.37579 0.0
C2116 C 0.73357 0.23984 0.82984 0.0
C2117 C 0.72745 0.26486 0.80097 0.0
C2118 C 0.68721 0.29895 0.84897 0.0
C2119 C 0.69032 0.27302 0.87685 0.0
N2120 N 0.72578 0.22282 0.89814 0.0
N2121 N 0.697 0.31741 0.78152 0.0
C2122 C 0.71651 0.24465 0.86861 0.0
C2123 C 0.70392 0.29428 0.81017 0.0
N2124 N 0.75407 0.21088 0.81941 0.0
N2125 N 0.6701 0.32863 0.86071 0.0
H2126 H 0.70931 0.31473 0.75299 0.0
H2127 H 0.67655 0.3381 0.78492 0.0
H2128 H 0.66084 0.33293 0.88978 0.0
H2129 H 0.66919 0.34971 0.8433 0.0
H2130 H 0.75666 0.19039 0.83766 0.0
H2131 H 0.76568 0.20634 0.79098 0.0
H2132 H 0.74788 0.20299 0.89551 0.0
H2133 H 0.714 0.22612 0.92671 0.0
C2134 C 0.4838 1.00275 0.83212 0.0
C2135 C 0.49223 0.02863 0.80454 0.0
C2136 C 0.54942 0.05144 0.84929 0.0
C2137 C 0.54398 0.02386 0.87472 0.0
N2138 N 0.5105 0.97098 0.88797 0.0
N2139 N 0.53563 0.07614 0.78526 0.0
C2140 C 0.51218 0.999 0.86562 0.0
C2141 C 0.52599 0.05248 0.8126 0.0
N2142 N 0.44825 0.98177 0.8266 0.0
N2143 N 0.57596 0.07721 0.86104 0.0
H2144 H 0.51776 0.07857 0.759 0.0
H2145 H 0.56318 0.09199 0.78727 0.0
H2146 H 0.59256 0.07753 0.88809 0.0
H2147 H 0.57843 0.09943 0.8459 0.0
H2148 H 0.43781 0.96451 0.84726 0.0
H2149 H 0.42699 0.98272 0.80234 0.0
H2150 H 0.49313 0.94977 0.87975 0.0
H2151 H 0.52907 0.96796 0.91373 0.0
C2152 C 0.27674 0.03988 0.55052 0.0
C2153 C 0.25094 1.01119 0.54355 0.0
C2154 C 0.26656 0.99233 0.61123 0.0
C2155 C 0.29597 0.01957 0.61719 0.0
N2156 N 0.33507 0.06639 0.58798 0.0
N2157 N 0.23009 0.9565 0.56374 0.0
C2158 C 0.30289 0.04238 0.58546 0.0
C2159 C 0.24837 0.98642 0.573 0.0
N2160 N 0.27474 0.06574 0.52478 0.0
N2161 N 0.25604 0.9718 0.6417 0.0
H2162 H 0.21734 0.95122 0.53583 0.0
H2163 H 0.23202 0.93603 0.58216 0.0
H2164 H 0.26988 0.97401 0.66967 0.0
H2165 H 0.23118 0.95371 0.63983 0.0
H2166 H 0.28736 0.08911 0.53123 0.0
H2167 H 0.2577 0.06471 0.49807 0.0
H2168 H 0.34609 0.08004 0.56388 0.0
H2169 H 0.35289 0.07162 0.61341 0.0
C2170 C 0.42492 0.80113 0.59132 0.0
C2171 C 0.43068 0.77671 0.62086 0.0
C2172 C 0.49077 0.75156 0.58186 0.0
C2173 C 0.47964 0.77246 0.54942 0.0
N2174 N 0.43522 0.81717 0.52312 0.0
N2175 N 0.46631 0.7264 0.64261 0.0
C2176 C 0.44615 0.79716 0.55403 0.0
C2177 C 0.46308 0.75144 0.61586 0.0
N2178 N 0.40087 0.82894 0.59992 0.0
N2179 N 0.52871 0.73238 0.58093 0.0
H2180 H 0.44805 0.72591 0.66872 0.0
H2181 H 0.48498 0.705 0.63764 0.0
H2182 H 0.54947 0.73063 0.55649 0.0
H2183 H 0.54167 0.72034 0.60556 0.0
H2184 H 0.39834 0.84919 0.58123 0.0
H2185 H 0.38746 0.83301 0.62781 0.0
H2186 H 0.40841 0.83381 0.52359 0.0
H2187 H 0.45125 0.81566 0.4959 0.0
C2188 C 0.29224 0.80597 0.19465 0.0
C2189 C 0.28535 0.77893 0.16871 0.0
C2190 C 0.24119 0.75064 0.21919 0.0
C2191 C 0.24658 0.77806 0.24484 0.0
N2192 N 0.27164 0.83375 0.25534 0.0
N2193 N 0.24532 0.72921 0.15275 0.0
C2194 C 0.27066 0.8063 0.23213 0.0
C2195 C 0.25707 0.75251 0.17985 0.0
N2196 N 0.32032 0.83103 0.18351 0.0
N2197 N 0.2222 0.72221 0.23309 0.0
H2198 H 0.25636 0.73005 0.12371 0.0
H2199 H 0.22111 0.71109 0.15779 0.0
H2200 H 0.21135 0.71962 0.26204 0.0
H2201 H 0.2212 0.70024 0.21733 0.0
H2202 H 0.33159 0.84942 0.20243 0.0
H2203 H 0.33367 0.83273 0.1552 0.0
H2204 H 0.28376 0.85654 0.24606 0.0
H2205 H 0.25824 0.83407 0.28364 0.0
C2206 C 0.46038 0.98003 0.23275 0.0
C2207 C 0.46246 1.00809 0.25791 0.0
C2208 C 0.42606 0.04154 0.20653 0.0
C2209 C 0.42201 1.01333 0.18213 0.0
N2210 N 0.4306 0.95484 0.17314 0.0
N2211 N 0.43858 0.06366 0.27184 0.0
C2212 C 0.43802 0.98229 0.19555 0.0
C2213 C 0.4424 0.03822 0.24578 0.0
N2214 N 0.4802 0.9512 0.24459 0.0
N2215 N 0.41585 0.07188 0.19145 0.0
H2216 H 0.44997 0.0621 0.30073 0.0
H2217 H 0.42035 0.08511 0.26611 0.0
H2218 H 0.40562 0.07511 0.1624 0.0
H2219 H 0.4218 0.09397 0.20613 0.0
H2220 H 0.48495 0.93089 0.22639 0.0
H2221 H 0.49322 0.9479 0.27284 0.0
H2222 H 0.43663 0.93086 0.1827 0.0
H2223 H 0.41639 0.95597 0.14511 0.0
C2224 C 0.71231 0.5351 0.93289 0.0
C2225 C 0.68792 0.50629 0.9227 0.0
C2226 C 0.70122 0.48336 0.9887 0.0
C2227 C 0.72707 0.51145 0.99851 0.0
N2228 N 0.76012 0.56338 0.98 0.0
N2229 N 0.66829 0.45009 0.93692 0.0
C2230 C 0.73347 0.5371 0.97048 0.0
C2231 C 0.68509 0.47957 0.94958 0.0
N2232 N 0.71364 0.56104 0.90727 0.0
N2233 N 0.69172 0.46051 1.01701 0.0
H2234 H 0.65889 0.44633 0.90776 0.0
H2235 H 0.66821 0.42865 0.95375 0.0
H2236 H 0.70282 0.46303 0.04596 0.0
H2237 H 0.66959 0.44088 1.0129 0.0
H2238 H 0.7259 0.58431 0.9144 0.0
H2239 H 0.70074 0.55969 0.87881 0.0
H2240 H 0.77183 0.58062 0.95979 0.0
H2241 H 0.77145 0.56743 1.00856 0.0
C2242 C 0.50955 0.74413 0.93109 0.0
C2243 C 0.54537 0.76728 0.92813 0.0
C2244 C 0.52943 0.78576 0.99616 0.0
C2245 C 0.4963 0.76093 0.99998 0.0
N2246 N 0.4623 0.71144 0.9744 0.0
N2247 N 0.59536 0.80548 0.96247 0.0
C2248 C 0.48839 0.73877 0.96826 0.0
C2249 C 0.55716 0.78654 0.96207 0.0
N2250 N 0.49614 0.72663 0.89885 0.0
N2251 N 0.53309 0.80992 0.024 0.0
H2252 H 0.61489 0.81043 0.93788 0.0
H2253 H 0.60911 0.81522 0.98816 0.0
H2254 H 0.51365 0.81063 0.04944 0.0
H2255 H 0.55293 0.83089 1.02044 0.0
H2256 H 0.46659 0.7127 0.89809 0.0
H2257 H 0.51251 0.72777 0.87184 0.0
H2258 H 0.45838 0.69265 0.95387 0.0
H2259 H 0.4485 0.70573 1.00177 0.0
C2260 C 0.70731 0.73053 0.36072 0.0
C2261 C 0.68457 0.7604 0.36953 0.0
C2262 C 0.69935 0.78079 0.30268 0.0
C2263 C 0.72412 0.75179 0.29428 0.0
N2264 N 0.75519 0.69981 0.3157 0.0
N2265 N 0.66974 0.81697 0.35306 0.0
C2266 C 0.72908 0.72686 0.32354 0.0
C2267 C 0.6836 0.78635 0.34158 0.0
N2268 N 0.70703 0.70542 0.38752 0.0
N2269 N 0.69086 0.80306 0.27346 0.0
H2270 H 0.66069 0.82203 0.38201 0.0
H2271 H 0.67186 0.83787 0.33537 0.0
H2272 H 0.70202 0.79967 0.2447 0.0
H2273 H 0.66927 0.82318 0.27678 0.0
H2274 H 0.71829 0.68162 0.38158 0.0
H2275 H 0.69362 0.7081 0.41566 0.0
H2276 H 0.76547 0.68289 0.33692 0.0
H2277 H 0.76806 0.6949 0.28777 0.0
C2278 C 0.50731 0.54456 0.31721 0.0
C2279 C 0.49222 0.51575 0.29758 0.0
C2280 C 0.52313 0.48147 0.35094 0.0
C2281 C 0.53574 0.51034 0.37172 0.0
N2282 N 0.534 0.56944 0.37793 0.0
N2283 N 0.47805 0.45723 0.29913 0.0
C2284 C 0.52591 0.54195 0.35584 0.0
C2285 C 0.49804 0.48432 0.31543 0.0
N2286 N 0.50404 0.5744 0.29868 0.0
N2287 N 0.53567 0.4512 0.36496 0.0
H2288 H 0.46046 0.45819 0.27267 0.0
H2289 H 0.4761 0.43441 0.31309 0.0
H2290 H 0.5509 0.44794 0.39233 0.0
H2291 H 0.53303 0.42955 0.3487 0.0
H2292 H 0.5181 0.59607 0.3095 0.0
H2293 H 0.49025 0.57702 0.27062 0.0
H2294 H 0.52411 0.59312 0.36981 0.0
H2295 H 0.54738 0.56831 0.40624 0.0
C2296 C 0.28424 0.47677 0.1015 0.0
C2297 C 0.28323 0.5051 0.12608 0.0
C2298 C 0.24508 0.53616 0.07364 0.0
C2299 C 0.24337 0.5074 0.04999 0.0
N2300 N 0.25455 0.44875 0.04397 0.0
N2301 N 0.25382 0.55947 0.13873 0.0
C2302 C 0.26119 0.47722 0.06458 0.0
C2303 C 0.26049 0.53397 0.1132 0.0
N2304 N 0.30783 0.44952 0.11338 0.0
N2305 N 0.23326 0.56589 0.05767 0.0
H2306 H 0.26369 0.55841 0.16805 0.0
H2307 H 0.23485 0.58036 0.13197 0.0
H2308 H 0.22254 0.56835 0.0286 0.0
H2309 H 0.23814 0.58837 0.07179 0.0
H2310 H 0.31483 0.42957 0.09512 0.0
H2311 H 0.32207 0.44754 0.14135 0.0
H2312 H 0.26199 0.42542 0.05501 0.0
H2313 H 0.23882 0.4483 1.01658 0.0
C2314 C 0.45016 0.23684 0.10782 0.0
C2315 C 0.42353 0.26508 0.11567 0.0
C2316 C 0.44316 0.2878 0.05059 0.0
C2317 C 0.47287 0.26075 0.044 0.0
N2318 N 0.50968 0.21183 0.0697 0.0
N2319 N 0.39967 0.3198 0.09776 0.0
C2320 C 0.47769 0.23594 0.07359 0.0
C2321 C 0.42128 0.29114 0.0878 0.0
N2322 N 0.44816 0.21025 0.13244 0.0
N2323 N 0.43624 0.31062 1.02162 0.0
H2324 H 0.38435 0.32333 0.12504 0.0
H2325 H 0.40039 0.34114 0.08077 0.0
H2326 H 0.45336 0.31035 0.99492 0.0
H2327 H 0.41114 0.32861 0.02278 0.0
H2328 H 0.46099 0.18708 0.1254 0.0
H2329 H 0.43114 0.2107 0.15911 0.0
H2330 H 0.51803 0.19513 0.09176 0.0
H2331 H 0.53066 0.20984 0.04544 0.0
C2332 C 0.26455 0.24078 0.68531 0.0
C2333 C 0.28374 0.27053 0.6714 0.0
C2334 C 0.25926 0.29856 0.73209 0.0
C2335 C 0.24496 0.26782 0.74779 0.0
N2336 N 0.24008 0.20878 0.7416 0.0
N2337 N 0.30265 0.32752 0.68232 0.0
C2338 C 0.24931 0.23868 0.7249 0.0
C2339 C 0.28191 0.29939 0.69507 0.0
N2340 N 0.26071 0.21456 0.66046 0.0
N2341 N 0.24945 0.32712 0.75163 0.0
H2342 H 0.31679 0.3296 0.65436 0.0
H2343 H 0.30765 0.34816 0.69997 0.0
H2344 H 0.23367 0.32756 0.779 0.0
H2345 H 0.25413 0.35047 0.73959 0.0
H2346 H 0.24429 0.19269 0.66766 0.0
H2347 H 0.26958 0.21619 0.63096 0.0
H2348 H 0.24656 0.18628 0.72801 0.0
H2349 H 0.23001 0.20641 0.77079 0.0
C2350 C 0.44007 0.53912 0.75042 0.0
C2351 C 0.47381 0.51471 0.7539 0.0
C2352 C 0.45969 0.49704 0.68568 0.0
C2353 C 0.42344 0.51996 0.6829 0.0
N2354 N 0.37313 0.55805 0.71728 0.0
N2355 N 0.50791 0.46505 0.72904 0.0
C2356 C 0.41173 0.53944 0.71668 0.0
C2357 C 0.48151 0.49222 0.72259 0.0
N2358 N 0.43635 0.56319 0.77835 0.0
N2359 N 0.47276 0.47916 0.65362 0.0
H2360 H 0.52173 0.45968 0.75653 0.0
H2361 H 0.51195 0.44605 0.70878 0.0
H2362 H 0.45563 0.47945 0.62692 0.0
H2363 H 0.50257 0.46546 0.65275 0.0
H2364 H 0.41618 0.58407 0.77492 0.0
H2365 H 0.45596 0.5637 0.80378 0.0
H2366 H 0.35984 0.56809 0.74298 0.0
H2367 H 0.35279 0.56248 0.69296 0.0
loop_
_geom_bond_atom_site_label_1
_geom_bond_atom_site_label_2
_geom_bond_distance
_geom_bond_site_symmetry_2
_ccdc_geom_bond_type
Dy0 O4 2.398 1_554 S
Dy0 O5 2.491 1_544 S
Dy0 O6 2.403 . S
Dy0 O7 2.664 . S
Dy0 O11 2.326 . S
Dy0 O15 2.310 1_545 S
Dy0 O16 2.351 . S
C1 O12 1.185 . S
C1 O13 1.355 1_565 S
C2 O4 1.185 . S
C2 O5 1.355 1_545 S
Dy3 O7 2.310 1_565 S
Dy3 O10 2.351 . S
Dy3 O12 2.398 . S
Dy3 O13 2.491 1_565 S
Dy3 O14 2.403 . S
Dy3 O15 2.664 . S
Dy3 O17 2.326 . S
O4 Dy0 2.398 1_556 S
O4 C2 1.185 . S
O5 Dy0 2.491 1_566 S
O5 C2 1.355 1_565 S
O6 Dy0 2.403 . S
O6 C8 1.254 . S
O7 Dy0 2.664 . S
O7 Dy3 2.310 1_545 S
O7 C8 1.268 . S
C8 O6 1.254 . S
C8 O7 1.268 . S
C9 O14 1.254 . S
C9 O15 1.268 . S
O10 Dy3 2.351 . S
O10 C18 1.249 1_565 S
O11 Dy0 2.326 . S
O11 C18 1.267 . S
O12 C1 1.185 . S
O12 Dy3 2.398 . S
O13 C1 1.355 1_545 S
O13 Dy3 2.491 1_545 S
O14 Dy3 2.403 . S
O14 C9 1.254 . S
O15 Dy0 2.310 1_565 S
O15 Dy3 2.664 . S
O15 C9 1.268 . S
O16 Dy0 2.351 . S
O16 C19 1.249 . S
O17 Dy3 2.326 . S
O17 C19 1.267 1_565 S
C18 O10 1.249 1_545 S
C18 O11 1.267 . S
C19 O16 1.249 . S
C19 O17 1.267 1_545 S
Dy20 O24 2.398 1_554 S
Dy20 O25 2.491 1_554 S
Dy20 O26 2.403 . S
Dy20 O27 2.664 . S
Dy20 O31 2.326 . S
Dy20 O35 2.310 . S
Dy20 O36 2.351 . S
C21 O32 1.185 . S
C21 O33 1.355 . S
C22 O24 1.185 . S
C22 O25 1.355 . S
Dy23 O27 2.310 . S
Dy23 O30 2.351 . S
Dy23 O32 2.398 . S
Dy23 O33 2.491 . S
Dy23 O34 2.403 . S
Dy23 O35 2.664 . S
Dy23 O37 2.326 . S
O24 Dy20 2.398 1_556 S
O24 C22 1.185 . S
O25 Dy20 2.491 1_556 S
O25 C22 1.355 . S
O26 Dy20 2.403 . S
O26 C28 1.254 . S
O27 Dy20 2.664 . S
O27 Dy23 2.310 . S
O27 C28 1.268 . S
C28 O26 1.254 . S
C28 O27 1.268 . S
C29 O34 1.254 . S
C29 O35 1.268 . S
O30 Dy23 2.351 . S
O30 C38 1.249 . S
O31 Dy20 2.326 . S
O31 C38 1.267 . S
O32 C21 1.185 . S
O32 Dy23 2.398 . S
O33 C21 1.355 . S
O33 Dy23 2.491 . S
O34 Dy23 2.403 . S
O34 C29 1.254 . S
O35 Dy20 2.310 . S
O35 Dy23 2.664 . S
O35 C29 1.268 . S
O36 Dy20 2.351 . S
O36 C39 1.249 . S
O37 Dy23 2.326 . S
O37 C39 1.267 . S
C38 O30 1.249 . S
C38 O31 1.267 . S
C39 O36 1.249 . S
C39 O37 1.267 . S
Dy40 O44 2.398 . S
Dy40 O45 2.491 . S
Dy40 O46 2.403 . S
Dy40 O47 2.664 . S
Dy40 O51 2.326 . S
Dy40 O55 2.310 . S
Dy40 O56 2.351 . S
C41 O52 1.185 . S
C41 O53 1.355 . S
C42 O44 1.185 . S
C42 O45 1.355 . S
Dy43 O47 2.310 . S
Dy43 O50 2.351 . S
Dy43 O52 2.398 . S
Dy43 O53 2.491 . S
Dy43 O54 2.403 . S
Dy43 O55 2.664 . S
Dy43 O57 2.326 . S
O44 Dy40 2.398 . S
O44 C42 1.185 . S
O45 Dy40 2.491 . S
O45 C42 1.355 . S
O46 Dy40 2.403 . S
O46 C48 1.254 . S
O47 Dy40 2.664 . S
O47 Dy43 2.310 . S
O47 C48 1.268 . S
C48 O46 1.254 . S
C48 O47 1.268 . S
C49 O54 1.254 . S
C49 O55 1.268 . S
O50 Dy43 2.351 . S
O50 C58 1.249 . S
O51 Dy40 2.326 . S
O51 C58 1.267 . S
O52 C41 1.185 . S
O52 Dy43 2.398 . S
O53 C41 1.355 . S
O53 Dy43 2.491 . S
O54 Dy43 2.403 . S
O54 C49 1.254 . S
O55 Dy40 2.310 . S
O55 Dy43 2.664 . S
O55 C49 1.268 . S
O56 Dy40 2.351 . S
O56 C59 1.249 . S
O57 Dy43 2.326 . S
O57 C59 1.267 . S
C58 O50 1.249 . S
C58 O51 1.267 . S
C59 O56 1.249 . S
C59 O57 1.267 . S
Dy60 O64 2.398 . S
Dy60 O65 2.491 1_545 S
Dy60 O66 2.403 . S
Dy60 O67 2.664 . S
Dy60 O71 2.326 . S
Dy60 O75 2.310 1_545 S
Dy60 O76 2.351 . S
C61 O72 1.185 . S
C61 O73 1.355 1_565 S
C62 O64 1.185 . S
C62 O65 1.355 1_545 S
Dy63 O67 2.310 1_565 S
Dy63 O70 2.351 . S
Dy63 O72 2.398 . S
Dy63 O73 2.491 1_565 S
Dy63 O74 2.403 . S
Dy63 O75 2.664 . S
Dy63 O77 2.326 . S
O64 Dy60 2.398 . S
O64 C62 1.185 . S
O65 Dy60 2.491 1_565 S
O65 C62 1.355 1_565 S
O66 Dy60 2.403 . S
O66 C68 1.254 . S
O67 Dy60 2.664 . S
O67 Dy63 2.310 1_545 S
O67 C68 1.268 . S
C68 O66 1.254 . S
C68 O67 1.268 . S
C69 O74 1.254 . S
C69 O75 1.268 . S
O70 Dy63 2.351 . S
O70 C78 1.249 1_565 S
O71 Dy60 2.326 . S
O71 C78 1.267 . S
O72 C61 1.185 . S
O72 Dy63 2.398 . S
O73 C61 1.355 1_545 S
O73 Dy63 2.491 1_545 S
O74 Dy63 2.403 . S
O74 C69 1.254 . S
O75 Dy60 2.310 1_565 S
O75 Dy63 2.664 . S
O75 C69 1.268 . S
O76 Dy60 2.351 . S
O76 C79 1.249 . S
O77 Dy63 2.326 . S
O77 C79 1.267 1_565 S
C78 O70 1.249 1_545 S
C78 O71 1.267 . S
C79 O76 1.249 . S
C79 O77 1.267 1_545 S
Dy80 O84 2.398 . S
Dy80 O85 2.491 1_545 S
Dy80 O86 2.403 . S
Dy80 O87 2.664 . S
Dy80 O91 2.326 . S
Dy80 O95 2.310 1_545 S
Dy80 O96 2.351 . S
C81 O92 1.185 . S
C81 O93 1.355 1_565 S
C82 O84 1.185 . S
C82 O85 1.355 1_545 S
Dy83 O87 2.310 1_565 S
Dy83 O90 2.351 . S
Dy83 O92 2.398 1_556 S
Dy83 O93 2.491 1_566 S
Dy83 O94 2.403 . S
Dy83 O95 2.664 . S
Dy83 O97 2.326 . S
O84 Dy80 2.398 . S
O84 C82 1.185 . S
O85 Dy80 2.491 1_565 S
O85 C82 1.355 1_565 S
O86 Dy80 2.403 . S
O86 C88 1.254 . S
O87 Dy80 2.664 . S
O87 Dy83 2.310 1_545 S
O87 C88 1.268 . S
C88 O86 1.254 . S
C88 O87 1.268 . S
C89 O94 1.254 . S
C89 O95 1.268 . S
O90 Dy83 2.351 . S
O90 C98 1.249 . S
O91 Dy80 2.326 . S
O91 C98 1.267 1_545 S
O92 C81 1.185 . S
O92 Dy83 2.398 1_554 S
O93 C81 1.355 1_545 S
O93 Dy83 2.491 1_544 S
O94 Dy83 2.403 . S
O94 C89 1.254 . S
O95 Dy80 2.310 1_565 S
O95 Dy83 2.664 . S
O95 C89 1.268 . S
O96 Dy80 2.351 . S
O96 C99 1.249 1_545 S
O97 Dy83 2.326 . S
O97 C99 1.267 . S
C98 O90 1.249 . S
C98 O91 1.267 1_565 S
C99 O96 1.249 1_565 S
C99 O97 1.267 . S
Dy100 O104 2.398 . S
Dy100 O105 2.491 . S
Dy100 O106 2.403 . S
Dy100 O107 2.664 . S
Dy100 O111 2.326 . S
Dy100 O115 2.310 . S
Dy100 O116 2.351 . S
C101 O112 1.185 . S
C101 O113 1.355 . S
C102 O104 1.185 . S
C102 O105 1.355 . S
Dy103 O107 2.310 . S
Dy103 O110 2.351 . S
Dy103 O112 2.398 1_556 S
Dy103 O113 2.491 1_556 S
Dy103 O114 2.403 . S
Dy103 O115 2.664 . S
Dy103 O117 2.326 . S
O104 Dy100 2.398 . S
O104 C102 1.185 . S
O105 Dy100 2.491 . S
O105 C102 1.355 . S
O106 Dy100 2.403 . S
O106 C108 1.254 . S
O107 Dy100 2.664 . S
O107 Dy103 2.310 . S
O107 C108 1.268 . S
C108 O106 1.254 . S
C108 O107 1.268 . S
C109 O114 1.254 . S
C109 O115 1.268 . S
O110 Dy103 2.351 . S
O110 C118 1.249 . S
O111 Dy100 2.326 . S
O111 C118 1.267 . S
O112 C101 1.185 . S
O112 Dy103 2.398 1_554 S
O113 C101 1.355 . S
O113 Dy103 2.491 1_554 S
O114 Dy103 2.403 . S
O114 C109 1.254 . S
O115 Dy100 2.310 . S
O115 Dy103 2.664 . S
O115 C109 1.268 . S
O116 Dy100 2.351 . S
O116 C119 1.249 . S
O117 Dy103 2.326 . S
O117 C119 1.267 . S
C118 O110 1.249 . S
C118 O111 1.267 . S
C119 O116 1.249 . S
C119 O117 1.267 . S
Dy120 O124 2.398 . S
Dy120 O125 2.491 . S
Dy120 O126 2.403 . S
Dy120 O127 2.664 . S
Dy120 O131 2.326 . S
Dy120 O135 2.310 . S
Dy120 O136 2.351 . S
C121 O132 1.185 . S
C121 O133 1.355 . S
C122 O124 1.185 . S
C122 O125 1.355 . S
Dy123 O127 2.310 . S
Dy123 O130 2.351 . S
Dy123 O132 2.398 . S
Dy123 O133 2.491 . S
Dy123 O134 2.403 . S
Dy123 O135 2.664 . S
Dy123 O137 2.326 . S
O124 Dy120 2.398 . S
O124 C122 1.185 . S
O125 Dy120 2.491 . S
O125 C122 1.355 . S
O126 Dy120 2.403 . S
O126 C128 1.254 . S
O127 Dy120 2.664 . S
O127 Dy123 2.310 . S
O127 C128 1.268 . S
C128 O126 1.254 . S
C128 O127 1.268 . S
C129 O134 1.254 . S
C129 O135 1.268 . S
O130 Dy123 2.351 . S
O130 C138 1.249 . S
O131 Dy120 2.326 . S
O131 C138 1.267 . S
O132 C121 1.185 . S
O132 Dy123 2.398 . S
O133 C121 1.355 . S
O133 Dy123 2.491 . S
O134 Dy123 2.403 . S
O134 C129 1.254 . S
O135 Dy120 2.310 . S
O135 Dy123 2.664 . S
O135 C129 1.268 . S
O136 Dy120 2.351 . S
O136 C139 1.249 . S
O137 Dy123 2.326 . S
O137 C139 1.267 . S
C138 O130 1.249 . S
C138 O131 1.267 . S
C139 O136 1.249 . S
C139 O137 1.267 . S
Dy140 O144 2.398 . S
Dy140 O145 2.491 1_545 S
Dy140 O146 2.403 . S
Dy140 O147 2.664 . S
Dy140 O151 2.326 . S
Dy140 O155 2.310 1_545 S
Dy140 O156 2.351 . S
C141 O152 1.185 . S
C141 O153 1.355 1_565 S
C142 O144 1.185 . S
C142 O145 1.355 1_545 S
Dy143 O147 2.310 1_565 S
Dy143 O150 2.351 . S
Dy143 O152 2.398 . S
Dy143 O153 2.491 1_565 S
Dy143 O154 2.403 . S
Dy143 O155 2.664 . S
Dy143 O157 2.326 . S
O144 Dy140 2.398 . S
O144 C142 1.185 . S
O145 Dy140 2.491 1_565 S
O145 C142 1.355 1_565 S
O146 Dy140 2.403 . S
O146 C148 1.254 . S
O147 Dy140 2.664 . S
O147 Dy143 2.310 1_545 S
O147 C148 1.268 . S
C148 O146 1.254 . S
C148 O147 1.268 . S
C149 O154 1.254 . S
C149 O155 1.268 . S
O150 Dy143 2.351 . S
O150 C158 1.249 . S
O151 Dy140 2.326 . S
O151 C158 1.267 1_545 S
O152 C141 1.185 . S
O152 Dy143 2.398 . S
O153 C141 1.355 1_545 S
O153 Dy143 2.491 1_545 S
O154 Dy143 2.403 . S
O154 C149 1.254 . S
O155 Dy140 2.310 1_565 S
O155 Dy143 2.664 . S
O155 C149 1.268 . S
O156 Dy140 2.351 . S
O156 C159 1.249 1_545 S
O157 Dy143 2.326 . S
O157 C159 1.267 . S
C158 O150 1.249 . S
C158 O151 1.267 1_565 S
C159 O156 1.249 1_565 S
C159 O157 1.267 . S
Dy160 O164 2.398 . S
Dy160 O165 2.491 . S
Dy160 O166 2.403 . S
Dy160 O167 2.664 . S
Dy160 O171 2.326 . S
Dy160 O175 2.310 . S
Dy160 O176 2.351 . S
C161 O172 1.185 . S
C161 O173 1.355 . S
C162 O164 1.185 . S
C162 O165 1.355 . S
Dy163 O167 2.310 . S
Dy163 O170 2.351 . S
Dy163 O172 2.398 . S
Dy163 O173 2.491 . S
Dy163 O174 2.403 . S
Dy163 O175 2.664 . S
Dy163 O177 2.326 . S
O164 Dy160 2.398 . S
O164 C162 1.185 . S
O165 Dy160 2.491 . S
O165 C162 1.355 . S
O166 Dy160 2.403 . S
O166 C168 1.254 . S
O167 Dy160 2.664 . S
O167 Dy163 2.310 . S
O167 C168 1.268 . S
C168 O166 1.254 . S
C168 O167 1.268 . S
C169 O174 1.254 . S
C169 O175 1.268 . S
O170 Dy163 2.351 . S
O170 C178 1.249 . S
O171 Dy160 2.326 . S
O171 C178 1.267 . S
O172 C161 1.185 . S
O172 Dy163 2.398 . S
O173 C161 1.355 . S
O173 Dy163 2.491 . S
O174 Dy163 2.403 . S
O174 C169 1.254 . S
O175 Dy160 2.310 . S
O175 Dy163 2.664 . S
O175 C169 1.268 . S
O176 Dy160 2.351 . S
O176 C179 1.249 . S
O177 Dy163 2.326 . S
O177 C179 1.267 . S
C178 O170 1.249 . S
C178 O171 1.267 . S
C179 O176 1.249 . S
C179 O177 1.267 . S
Dy180 O184 2.398 . S
Dy180 O185 2.491 . S
Dy180 O186 2.403 . S
Dy180 O187 2.664 . S
Dy180 O191 2.326 . S
Dy180 O195 2.310 . S
Dy180 O196 2.351 . S
C181 O192 1.185 . S
C181 O193 1.355 . S
C182 O184 1.185 . S
C182 O185 1.355 . S
Dy183 O187 2.310 . S
Dy183 O190 2.351 . S
Dy183 O192 2.398 . S
Dy183 O193 2.491 . S
Dy183 O194 2.403 . S
Dy183 O195 2.664 . S
Dy183 O197 2.326 . S
O184 Dy180 2.398 . S
O184 C182 1.185 . S
O185 Dy180 2.491 . S
O185 C182 1.355 . S
O186 Dy180 2.403 . S
O186 C188 1.254 . S
O187 Dy180 2.664 . S
O187 Dy183 2.310 . S
O187 C188 1.268 . S
C188 O186 1.254 . S
C188 O187 1.268 . S
C189 O194 1.254 . S
C189 O195 1.268 . S
O190 Dy183 2.351 . S
O190 C198 1.249 . S
O191 Dy180 2.326 . S
O191 C198 1.267 . S
O192 C181 1.185 . S
O192 Dy183 2.398 . S
O193 C181 1.355 . S
O193 Dy183 2.491 . S
O194 Dy183 2.403 . S
O194 C189 1.254 . S
O195 Dy180 2.310 . S
O195 Dy183 2.664 . S
O195 C189 1.268 . S
O196 Dy180 2.351 . S
O196 C199 1.249 . S
O197 Dy183 2.326 . S
O197 C199 1.267 . S
C198 O190 1.249 . S
C198 O191 1.267 . S
C199 O196 1.249 . S
C199 O197 1.267 . S
Dy200 O204 2.398 . S
Dy200 O205 2.491 . S
Dy200 O206 2.403 . S
Dy200 O207 2.664 . S
Dy200 O211 2.326 . S
Dy200 O215 2.310 . S
Dy200 O216 2.351 . S
C201 O212 1.185 . S
C201 O213 1.355 . S
C202 O204 1.185 . S
C202 O205 1.355 . S
Dy203 O207 2.310 . S
Dy203 O210 2.351 . S
Dy203 O212 2.398 . S
Dy203 O213 2.491 . S
Dy203 O214 2.403 . S
Dy203 O215 2.664 . S
Dy203 O217 2.326 . S
O204 Dy200 2.398 . S
O204 C202 1.185 . S
O205 Dy200 2.491 . S
O205 C202 1.355 . S
O206 Dy200 2.403 . S
O206 C208 1.254 . S
O207 Dy200 2.664 . S
O207 Dy203 2.310 . S
O207 C208 1.268 . S
C208 O206 1.254 . S
C208 O207 1.268 . S
C209 O214 1.254 . S
C209 O215 1.268 . S
O210 Dy203 2.351 . S
O210 C218 1.249 . S
O211 Dy200 2.326 . S
O211 C218 1.267 . S
O212 C201 1.185 . S
O212 Dy203 2.398 . S
O213 C201 1.355 . S
O213 Dy203 2.491 . S
O214 Dy203 2.403 . S
O214 C209 1.254 . S
O215 Dy200 2.310 . S
O215 Dy203 2.664 . S
O215 C209 1.268 . S
O216 Dy200 2.351 . S
O216 C219 1.249 . S
O217 Dy203 2.326 . S
O217 C219 1.267 . S
C218 O210 1.249 . S
C218 O211 1.267 . S
C219 O216 1.249 . S
C219 O217 1.267 . S
Dy220 O224 2.398 . S
Dy220 O225 2.491 . S
Dy220 O226 2.403 . S
Dy220 O227 2.664 . S
Dy220 O231 2.326 . S
Dy220 O235 2.310 . S
Dy220 O236 2.351 . S
C221 O232 1.185 . S
C221 O233 1.355 . S
C222 O224 1.185 . S
C222 O225 1.355 . S
Dy223 O227 2.310 . S
Dy223 O230 2.351 . S
Dy223 O232 2.398 . S
Dy223 O233 2.491 . S
Dy223 O234 2.403 . S
Dy223 O235 2.664 . S
Dy223 O237 2.326 . S
O224 Dy220 2.398 . S
O224 C222 1.185 . S
O225 Dy220 2.491 . S
O225 C222 1.355 . S
O226 Dy220 2.403 . S
O226 C228 1.254 . S
O227 Dy220 2.664 . S
O227 Dy223 2.310 . S
O227 C228 1.268 . S
C228 O226 1.254 . S
C228 O227 1.268 . S
C229 O234 1.254 . S
C229 O235 1.268 . S
O230 Dy223 2.351 . S
O230 C238 1.249 . S
O231 Dy220 2.326 . S
O231 C238 1.267 . S
O232 C221 1.185 . S
O232 Dy223 2.398 . S
O233 C221 1.355 . S
O233 Dy223 2.491 . S
O234 Dy223 2.403 . S
O234 C229 1.254 . S
O235 Dy220 2.310 . S
O235 Dy223 2.664 . S
O235 C229 1.268 . S
O236 Dy220 2.351 . S
O236 C239 1.249 . S
O237 Dy223 2.326 . S
O237 C239 1.267 . S
C238 O230 1.249 . S
C238 O231 1.267 . S
C239 O236 1.249 . S
C239 O237 1.267 . S
Dy240 O244 2.398 . S
Dy240 O245 2.491 . S
Dy240 O246 2.403 . S
Dy240 O247 2.664 . S
Dy240 O251 2.326 . S
Dy240 O255 2.310 . S
Dy240 O256 2.351 . S
C241 O252 1.185 . S
C241 O253 1.355 . S
C242 O244 1.185 . S
C242 O245 1.355 . S
Dy243 O247 2.310 . S
Dy243 O250 2.351 . S
Dy243 O252 2.398 . S
Dy243 O253 2.491 . S
Dy243 O254 2.403 . S
Dy243 O255 2.664 . S
Dy243 O257 2.326 . S
O244 Dy240 2.398 . S
O244 C242 1.185 . S
O245 Dy240 2.491 . S
O245 C242 1.355 . S
O246 Dy240 2.403 . S
O246 C248 1.254 . S
O247 Dy240 2.664 . S
O247 Dy243 2.310 . S
O247 C248 1.268 . S
C248 O246 1.254 . S
C248 O247 1.268 . S
C249 O254 1.254 . S
C249 O255 1.268 . S
O250 Dy243 2.351 . S
O250 C258 1.249 . S
O251 Dy240 2.326 . S
O251 C258 1.267 . S
O252 C241 1.185 . S
O252 Dy243 2.398 . S
O253 C241 1.355 . S
O253 Dy243 2.491 . S
O254 Dy243 2.403 . S
O254 C249 1.254 . S
O255 Dy240 2.310 . S
O255 Dy243 2.664 . S
O255 C249 1.268 . S
O256 Dy240 2.351 . S
O256 C259 1.249 . S
O257 Dy243 2.326 . S
O257 C259 1.267 . S
C258 O250 1.249 . S
C258 O251 1.267 . S
C259 O256 1.249 . S
C259 O257 1.267 . S
Dy260 O264 2.398 . S
Dy260 O265 2.491 . S
Dy260 O266 2.403 . S
Dy260 O267 2.664 . S
Dy260 O271 2.326 . S
Dy260 O275 2.310 . S
Dy260 O276 2.351 . S
C261 O272 1.185 . S
C261 O273 1.355 . S
C262 O264 1.185 . S
C262 O265 1.355 . S
Dy263 O267 2.310 . S
Dy263 O270 2.351 . S
Dy263 O272 2.398 . S
Dy263 O273 2.491 . S
Dy263 O274 2.403 . S
Dy263 O275 2.664 . S
Dy263 O277 2.326 . S
O264 Dy260 2.398 . S
O264 C262 1.185 . S
O265 Dy260 2.491 . S
O265 C262 1.355 . S
O266 Dy260 2.403 . S
O266 C268 1.254 . S
O267 Dy260 2.664 . S
O267 Dy263 2.310 . S
O267 C268 1.268 . S
C268 O266 1.254 . S
C268 O267 1.268 . S
C269 O274 1.254 . S
C269 O275 1.268 . S
O270 Dy263 2.351 . S
O270 C278 1.249 . S
O271 Dy260 2.326 . S
O271 C278 1.267 . S
O272 C261 1.185 . S
O272 Dy263 2.398 . S
O273 C261 1.355 . S
O273 Dy263 2.491 . S
O274 Dy263 2.403 . S
O274 C269 1.254 . S
O275 Dy260 2.310 . S
O275 Dy263 2.664 . S
O275 C269 1.268 . S
O276 Dy260 2.351 . S
O276 C279 1.249 . S
O277 Dy263 2.326 . S
O277 C279 1.267 . S
C278 O270 1.249 . S
C278 O271 1.267 . S
C279 O276 1.249 . S
C279 O277 1.267 . S
Dy280 O284 2.398 . S
Dy280 O285 2.491 . S
Dy280 O286 2.403 . S
Dy280 O287 2.664 . S
Dy280 O291 2.326 . S
Dy280 O295 2.310 . S
Dy280 O296 2.351 . S
C281 O292 1.185 . S
C281 O293 1.355 . S
C282 O284 1.185 . S
C282 O285 1.355 . S
Dy283 O287 2.310 . S
Dy283 O290 2.351 . S
Dy283 O292 2.398 . S
Dy283 O293 2.491 . S
Dy283 O294 2.403 . S
Dy283 O295 2.664 . S
Dy283 O297 2.326 . S
O284 Dy280 2.398 . S
O284 C282 1.185 . S
O285 Dy280 2.491 . S
O285 C282 1.355 . S
O286 Dy280 2.403 . S
O286 C288 1.254 . S
O287 Dy280 2.664 . S
O287 Dy283 2.310 . S
O287 C288 1.268 . S
C288 O286 1.254 . S
C288 O287 1.268 . S
C289 O294 1.254 . S
C289 O295 1.268 . S
O290 Dy283 2.351 . S
O290 C298 1.249 . S
O291 Dy280 2.326 . S
O291 C298 1.267 . S
O292 C281 1.185 . S
O292 Dy283 2.398 . S
O293 C281 1.355 . S
O293 Dy283 2.491 . S
O294 Dy283 2.403 . S
O294 C289 1.254 . S
O295 Dy280 2.310 . S
O295 Dy283 2.664 . S
O295 C289 1.268 . S
O296 Dy280 2.351 . S
O296 C299 1.249 . S
O297 Dy283 2.326 . S
O297 C299 1.267 . S
C298 O290 1.249 . S
C298 O291 1.267 . S
C299 O296 1.249 . S
C299 O297 1.267 . S
Dy300 O304 2.398 . S
Dy300 O305 2.491 . S
Dy300 O306 2.403 . S
Dy300 O307 2.664 . S
Dy300 O311 2.326 . S
Dy300 O315 2.310 . S
Dy300 O316 2.351 . S
C301 O312 1.185 . S
C301 O313 1.355 . S
C302 O304 1.185 . S
C302 O305 1.355 . S
Dy303 O307 2.310 . S
Dy303 O310 2.351 . S
Dy303 O312 2.398 . S
Dy303 O313 2.491 . S
Dy303 O314 2.403 . S
Dy303 O315 2.664 . S
Dy303 O317 2.326 . S
O304 Dy300 2.398 . S
O304 C302 1.185 . S
O305 Dy300 2.491 . S
O305 C302 1.355 . S
O306 Dy300 2.403 . S
O306 C308 1.254 . S
O307 Dy300 2.664 . S
O307 Dy303 2.310 . S
O307 C308 1.268 . S
C308 O306 1.254 . S
C308 O307 1.268 . S
C309 O314 1.254 . S
C309 O315 1.268 . S
O310 Dy303 2.351 . S
O310 C318 1.249 . S
O311 Dy300 2.326 . S
O311 C318 1.267 . S
O312 C301 1.185 . S
O312 Dy303 2.398 . S
O313 C301 1.355 . S
O313 Dy303 2.491 . S
O314 Dy303 2.403 . S
O314 C309 1.254 . S
O315 Dy300 2.310 . S
O315 Dy303 2.664 . S
O315 C309 1.268 . S
O316 Dy300 2.351 . S
O316 C319 1.249 . S
O317 Dy303 2.326 . S
O317 C319 1.267 . S
C318 O310 1.249 . S
C318 O311 1.267 . S
C319 O316 1.249 . S
C319 O317 1.267 . S
Dy320 O324 2.398 . S
Dy320 O325 2.491 1_545 S
Dy320 O326 2.403 . S
Dy320 O327 2.664 . S
Dy320 O331 2.326 . S
Dy320 O335 2.310 1_545 S
Dy320 O336 2.351 . S
C321 O332 1.185 . S
C321 O333 1.355 1_565 S
C322 O324 1.185 . S
C322 O325 1.355 1_545 S
Dy323 O327 2.310 1_565 S
Dy323 O330 2.351 . S
Dy323 O332 2.398 . S
Dy323 O333 2.491 1_565 S
Dy323 O334 2.403 . S
Dy323 O335 2.664 . S
Dy323 O337 2.326 . S
O324 Dy320 2.398 . S
O324 C322 1.185 . S
O325 Dy320 2.491 1_565 S
O325 C322 1.355 1_565 S
O326 Dy320 2.403 . S
O326 C328 1.254 . S
O327 Dy320 2.664 . S
O327 Dy323 2.310 1_545 S
O327 C328 1.268 . S
C328 O326 1.254 . S
C328 O327 1.268 . S
C329 O334 1.254 . S
C329 O335 1.268 . S
O330 Dy323 2.351 . S
O330 C338 1.249 1_565 S
O331 Dy320 2.326 . S
O331 C338 1.267 . S
O332 C321 1.185 . S
O332 Dy323 2.398 . S
O333 C321 1.355 1_545 S
O333 Dy323 2.491 1_545 S
O334 Dy323 2.403 . S
O334 C329 1.254 . S
O335 Dy320 2.310 1_565 S
O335 Dy323 2.664 . S
O335 C329 1.268 . S
O336 Dy320 2.351 . S
O336 C339 1.249 . S
O337 Dy323 2.326 . S
O337 C339 1.267 1_565 S
C338 O330 1.249 1_545 S
C338 O331 1.267 . S
C339 O336 1.249 . S
C339 O337 1.267 1_545 S
Dy340 O344 2.398 . S
Dy340 O345 2.491 . S
Dy340 O346 2.403 . S
Dy340 O347 2.664 . S
Dy340 O351 2.326 . S
Dy340 O355 2.310 . S
Dy340 O356 2.351 . S
C341 O352 1.185 . S
C341 O353 1.355 . S
C342 O344 1.185 . S
C342 O345 1.355 . S
Dy343 O347 2.310 . S
Dy343 O350 2.351 . S
Dy343 O352 2.398 . S
Dy343 O353 2.491 . S
Dy343 O354 2.403 . S
Dy343 O355 2.664 . S
Dy343 O357 2.326 . S
O344 Dy340 2.398 . S
O344 C342 1.185 . S
O345 Dy340 2.491 . S
O345 C342 1.355 . S
O346 Dy340 2.403 . S
O346 C348 1.254 . S
O347 Dy340 2.664 . S
O347 Dy343 2.310 . S
O347 C348 1.268 . S
C348 O346 1.254 . S
C348 O347 1.268 . S
C349 O354 1.254 . S
C349 O355 1.268 . S
O350 Dy343 2.351 . S
O350 C358 1.249 . S
O351 Dy340 2.326 . S
O351 C358 1.267 . S
O352 C341 1.185 . S
O352 Dy343 2.398 . S
O353 C341 1.355 . S
O353 Dy343 2.491 . S
O354 Dy343 2.403 . S
O354 C349 1.254 . S
O355 Dy340 2.310 . S
O355 Dy343 2.664 . S
O355 C349 1.268 . S
O356 Dy340 2.351 . S
O356 C359 1.249 . S
O357 Dy343 2.326 . S
O357 C359 1.267 . S
C358 O350 1.249 . S
C358 O351 1.267 . S
C359 O356 1.249 . S
C359 O357 1.267 . S
Dy360 O364 2.398 . S
Dy360 O365 2.491 . S
Dy360 O366 2.403 . S
Dy360 O367 2.664 . S
Dy360 O371 2.326 . S
Dy360 O375 2.310 . S
Dy360 O376 2.351 . S
C361 O372 1.185 . S
C361 O373 1.355 . S
C362 O364 1.185 . S
C362 O365 1.355 . S
Dy363 O367 2.310 . S
Dy363 O370 2.351 . S
Dy363 O372 2.398 . S
Dy363 O373 2.491 . S
Dy363 O374 2.403 . S
Dy363 O375 2.664 . S
Dy363 O377 2.326 . S
O364 Dy360 2.398 . S
O364 C362 1.185 . S
O365 Dy360 2.491 . S
O365 C362 1.355 . S
O366 Dy360 2.403 . S
O366 C368 1.254 . S
O367 Dy360 2.664 . S
O367 Dy363 2.310 . S
O367 C368 1.268 . S
C368 O366 1.254 . S
C368 O367 1.268 . S
C369 O374 1.254 . S
C369 O375 1.268 . S
O370 Dy363 2.351 . S
O370 C378 1.249 . S
O371 Dy360 2.326 . S
O371 C378 1.267 . S
O372 C361 1.185 . S
O372 Dy363 2.398 . S
O373 C361 1.355 . S
O373 Dy363 2.491 . S
O374 Dy363 2.403 . S
O374 C369 1.254 . S
O375 Dy360 2.310 . S
O375 Dy363 2.664 . S
O375 C369 1.268 . S
O376 Dy360 2.351 . S
O376 C379 1.249 . S
O377 Dy363 2.326 . S
O377 C379 1.267 . S
C378 O370 1.249 . S
C378 O371 1.267 . S
C379 O376 1.249 . S
C379 O377 1.267 . S
Dy380 O384 2.398 . S
Dy380 O385 2.491 1_545 S
Dy380 O386 2.403 . S
Dy380 O387 2.664 . S
Dy380 O391 2.326 . S
Dy380 O395 2.310 1_545 S
Dy380 O396 2.351 . S
C381 O392 1.185 . S
C381 O393 1.355 1_565 S
C382 O384 1.185 . S
C382 O385 1.355 1_545 S
Dy383 O387 2.310 1_565 S
Dy383 O390 2.351 . S
Dy383 O392 2.398 . S
Dy383 O393 2.491 1_565 S
Dy383 O394 2.403 . S
Dy383 O395 2.664 . S
Dy383 O397 2.326 . S
O384 Dy380 2.398 . S
O384 C382 1.185 . S
O385 Dy380 2.491 1_565 S
O385 C382 1.355 1_565 S
O386 Dy380 2.403 . S
O386 C388 1.254 . S
O387 Dy380 2.664 . S
O387 Dy383 2.310 1_545 S
O387 C388 1.268 . S
C388 O386 1.254 . S
C388 O387 1.268 . S
C389 O394 1.254 . S
C389 O395 1.268 . S
O390 Dy383 2.351 . S
O390 C398 1.249 1_565 S
O391 Dy380 2.326 . S
O391 C398 1.267 . S
O392 C381 1.185 . S
O392 Dy383 2.398 . S
O393 C381 1.355 1_545 S
O393 Dy383 2.491 1_545 S
O394 Dy383 2.403 . S
O394 C389 1.254 . S
O395 Dy380 2.310 1_565 S
O395 Dy383 2.664 . S
O395 C389 1.268 . S
O396 Dy380 2.351 . S
O396 C399 1.249 . S
O397 Dy383 2.326 . S
O397 C399 1.267 1_565 S
C398 O390 1.249 1_545 S
C398 O391 1.267 . S
C399 O396 1.249 . S
C399 O397 1.267 1_545 S
Dy400 O404 2.398 . S
Dy400 O405 2.491 1_545 S
Dy400 O406 2.403 . S
Dy400 O407 2.664 . S
Dy400 O411 2.326 . S
Dy400 O415 2.310 1_545 S
Dy400 O416 2.351 . S
C401 O412 1.185 . S
C401 O413 1.355 1_565 S
C402 O404 1.185 . S
C402 O405 1.355 1_545 S
Dy403 O407 2.310 1_565 S
Dy403 O410 2.351 . S
Dy403 O412 2.398 . S
Dy403 O413 2.491 1_565 S
Dy403 O414 2.403 . S
Dy403 O415 2.664 . S
Dy403 O417 2.326 . S
O404 Dy400 2.398 . S
O404 C402 1.185 . S
O405 Dy400 2.491 1_565 S
O405 C402 1.355 1_565 S
O406 Dy400 2.403 . S
O406 C408 1.254 . S
O407 Dy400 2.664 . S
O407 Dy403 2.310 1_545 S
O407 C408 1.268 . S
C408 O406 1.254 . S
C408 O407 1.268 . S
C409 O414 1.254 . S
C409 O415 1.268 . S
O410 Dy403 2.351 . S
O410 C418 1.249 . S
O411 Dy400 2.326 . S
O411 C418 1.267 1_545 S
O412 C401 1.185 . S
O412 Dy403 2.398 . S
O413 C401 1.355 1_545 S
O413 Dy403 2.491 1_545 S
O414 Dy403 2.403 . S
O414 C409 1.254 . S
O415 Dy400 2.310 1_565 S
O415 Dy403 2.664 . S
O415 C409 1.268 . S
O416 Dy400 2.351 . S
O416 C419 1.249 1_545 S
O417 Dy403 2.326 . S
O417 C419 1.267 . S
C418 O410 1.249 . S
C418 O411 1.267 1_565 S
C419 O416 1.249 1_565 S
C419 O417 1.267 . S
Dy420 O424 2.398 . S
Dy420 O425 2.491 . S
Dy420 O426 2.403 . S
Dy420 O427 2.664 . S
Dy420 O431 2.326 . S
Dy420 O435 2.310 . S
Dy420 O436 2.351 . S
C421 O432 1.185 . S
C421 O433 1.355 . S
C422 O424 1.185 . S
C422 O425 1.355 . S
Dy423 O427 2.310 . S
Dy423 O430 2.351 . S
Dy423 O432 2.398 . S
Dy423 O433 2.491 . S
Dy423 O434 2.403 . S
Dy423 O435 2.664 . S
Dy423 O437 2.326 . S
O424 Dy420 2.398 . S
O424 C422 1.185 . S
O425 Dy420 2.491 . S
O425 C422 1.355 . S
O426 Dy420 2.403 . S
O426 C428 1.254 . S
O427 Dy420 2.664 . S
O427 Dy423 2.310 . S
O427 C428 1.268 . S
C428 O426 1.254 . S
C428 O427 1.268 . S
C429 O434 1.254 . S
C429 O435 1.268 . S
O430 Dy423 2.351 . S
O430 C438 1.249 . S
O431 Dy420 2.326 . S
O431 C438 1.267 . S
O432 C421 1.185 . S
O432 Dy423 2.398 . S
O433 C421 1.355 . S
O433 Dy423 2.491 . S
O434 Dy423 2.403 . S
O434 C429 1.254 . S
O435 Dy420 2.310 . S
O435 Dy423 2.664 . S
O435 C429 1.268 . S
O436 Dy420 2.351 . S
O436 C439 1.249 . S
O437 Dy423 2.326 . S
O437 C439 1.267 . S
C438 O430 1.249 . S
C438 O431 1.267 . S
C439 O436 1.249 . S
C439 O437 1.267 . S
Dy440 O444 2.398 . S
Dy440 O445 2.491 . S
Dy440 O446 2.403 . S
Dy440 O447 2.664 . S
Dy440 O451 2.326 . S
Dy440 O455 2.310 . S
Dy440 O456 2.351 . S
C441 O452 1.185 . S
C441 O453 1.355 . S
C442 O444 1.185 . S
C442 O445 1.355 . S
Dy443 O447 2.310 . S
Dy443 O450 2.351 . S
Dy443 O452 2.398 . S
Dy443 O453 2.491 . S
Dy443 O454 2.403 . S
Dy443 O455 2.664 . S
Dy443 O457 2.326 . S
O444 Dy440 2.398 . S
O444 C442 1.185 . S
O445 Dy440 2.491 . S
O445 C442 1.355 . S
O446 Dy440 2.403 . S
O446 C448 1.254 . S
O447 Dy440 2.664 . S
O447 Dy443 2.310 . S
O447 C448 1.268 . S
C448 O446 1.254 . S
C448 O447 1.268 . S
C449 O454 1.254 . S
C449 O455 1.268 . S
O450 Dy443 2.351 . S
O450 C458 1.249 . S
O451 Dy440 2.326 . S
O451 C458 1.267 . S
O452 C441 1.185 . S
O452 Dy443 2.398 . S
O453 C441 1.355 . S
O453 Dy443 2.491 . S
O454 Dy443 2.403 . S
O454 C449 1.254 . S
O455 Dy440 2.310 . S
O455 Dy443 2.664 . S
O455 C449 1.268 . S
O456 Dy440 2.351 . S
O456 C459 1.249 . S
O457 Dy443 2.326 . S
O457 C459 1.267 . S
C458 O450 1.249 . S
C458 O451 1.267 . S
C459 O456 1.249 . S
C459 O457 1.267 . S
Dy460 O464 2.398 . S
Dy460 O465 2.491 1_545 S
Dy460 O466 2.403 . S
Dy460 O467 2.664 . S
Dy460 O471 2.326 . S
Dy460 O475 2.310 1_545 S
Dy460 O476 2.351 . S
C461 O472 1.185 . S
C461 O473 1.355 1_565 S
C462 O464 1.185 . S
C462 O465 1.355 1_545 S
Dy463 O467 2.310 1_565 S
Dy463 O470 2.351 . S
Dy463 O472 2.398 . S
Dy463 O473 2.491 1_565 S
Dy463 O474 2.403 . S
Dy463 O475 2.664 . S
Dy463 O477 2.326 . S
O464 Dy460 2.398 . S
O464 C462 1.185 . S
O465 Dy460 2.491 1_565 S
O465 C462 1.355 1_565 S
O466 Dy460 2.403 . S
O466 C468 1.254 . S
O467 Dy460 2.664 . S
O467 Dy463 2.310 1_545 S
O467 C468 1.268 . S
C468 O466 1.254 . S
C468 O467 1.268 . S
C469 O474 1.254 . S
C469 O475 1.268 . S
O470 Dy463 2.351 . S
O470 C478 1.249 . S
O471 Dy460 2.326 . S
O471 C478 1.267 1_545 S
O472 C461 1.185 . S
O472 Dy463 2.398 . S
O473 C461 1.355 1_545 S
O473 Dy463 2.491 1_545 S
O474 Dy463 2.403 . S
O474 C469 1.254 . S
O475 Dy460 2.310 1_565 S
O475 Dy463 2.664 . S
O475 C469 1.268 . S
O476 Dy460 2.351 . S
O476 C479 1.249 1_545 S
O477 Dy463 2.326 . S
O477 C479 1.267 . S
C478 O470 1.249 . S
C478 O471 1.267 1_565 S
C479 O476 1.249 1_565 S
C479 O477 1.267 . S
Dy480 O484 2.398 1_554 S
Dy480 O485 2.491 1_554 S
Dy480 O486 2.403 . S
Dy480 O487 2.664 . S
Dy480 O491 2.326 . S
Dy480 O495 2.310 . S
Dy480 O496 2.351 . S
C481 O492 1.185 . S
C481 O493 1.355 . S
C482 O484 1.185 . S
C482 O485 1.355 . S
Dy483 O487 2.310 . S
Dy483 O490 2.351 . S
Dy483 O492 2.398 . S
Dy483 O493 2.491 . S
Dy483 O494 2.403 . S
Dy483 O495 2.664 . S
Dy483 O497 2.326 . S
O484 Dy480 2.398 1_556 S
O484 C482 1.185 . S
O485 Dy480 2.491 1_556 S
O485 C482 1.355 . S
O486 Dy480 2.403 . S
O486 C488 1.254 . S
O487 Dy480 2.664 . S
O487 Dy483 2.310 . S
O487 C488 1.268 . S
C488 O486 1.254 . S
C488 O487 1.268 . S
C489 O494 1.254 . S
C489 O495 1.268 . S
O490 Dy483 2.351 . S
O490 C498 1.249 . S
O491 Dy480 2.326 . S
O491 C498 1.267 . S
O492 C481 1.185 . S
O492 Dy483 2.398 . S
O493 C481 1.355 . S
O493 Dy483 2.491 . S
O494 Dy483 2.403 . S
O494 C489 1.254 . S
O495 Dy480 2.310 . S
O495 Dy483 2.664 . S
O495 C489 1.268 . S
O496 Dy480 2.351 . S
O496 C499 1.249 . S
O497 Dy483 2.326 . S
O497 C499 1.267 . S
C498 O490 1.249 . S
C498 O491 1.267 . S
C499 O496 1.249 . S
C499 O497 1.267 . S
Dy500 O504 2.398 1_554 S
Dy500 O505 2.491 1_554 S
Dy500 O506 2.403 . S
Dy500 O507 2.664 . S
Dy500 O511 2.326 . S
Dy500 O515 2.310 . S
Dy500 O516 2.351 . S
C501 O512 1.185 . S
C501 O513 1.355 . S
C502 O504 1.185 . S
C502 O505 1.355 . S
Dy503 O507 2.310 . S
Dy503 O510 2.351 . S
Dy503 O512 2.398 . S
Dy503 O513 2.491 . S
Dy503 O514 2.403 . S
Dy503 O515 2.664 . S
Dy503 O517 2.326 . S
O504 Dy500 2.398 1_556 S
O504 C502 1.185 . S
O505 Dy500 2.491 1_556 S
O505 C502 1.355 . S
O506 Dy500 2.403 . S
O506 C508 1.254 . S
O507 Dy500 2.664 . S
O507 Dy503 2.310 . S
O507 C508 1.268 . S
C508 O506 1.254 . S
C508 O507 1.268 . S
C509 O514 1.254 . S
C509 O515 1.268 . S
O510 Dy503 2.351 . S
O510 C518 1.249 . S
O511 Dy500 2.326 . S
O511 C518 1.267 . S
O512 C501 1.185 . S
O512 Dy503 2.398 . S
O513 C501 1.355 . S
O513 Dy503 2.491 . S
O514 Dy503 2.403 . S
O514 C509 1.254 . S
O515 Dy500 2.310 . S
O515 Dy503 2.664 . S
O515 C509 1.268 . S
O516 Dy500 2.351 . S
O516 C519 1.249 . S
O517 Dy503 2.326 . S
O517 C519 1.267 . S
C518 O510 1.249 . S
C518 O511 1.267 . S
C519 O516 1.249 . S
C519 O517 1.267 . S
Dy520 O524 2.398 . S
Dy520 O525 2.491 . S
Dy520 O526 2.403 . S
Dy520 O527 2.664 . S
Dy520 O531 2.326 . S
Dy520 O535 2.310 . S
Dy520 O536 2.351 . S
C521 O532 1.185 . S
C521 O533 1.355 . S
C522 O524 1.185 . S
C522 O525 1.355 . S
Dy523 O527 2.310 . S
Dy523 O530 2.351 . S
Dy523 O532 2.398 . S
Dy523 O533 2.491 . S
Dy523 O534 2.403 . S
Dy523 O535 2.664 . S
Dy523 O537 2.326 . S
O524 Dy520 2.398 . S
O524 C522 1.185 . S
O525 Dy520 2.491 . S
O525 C522 1.355 . S
O526 Dy520 2.403 . S
O526 C528 1.254 . S
O527 Dy520 2.664 . S
O527 Dy523 2.310 . S
O527 C528 1.268 . S
C528 O526 1.254 . S
C528 O527 1.268 . S
C529 O534 1.254 . S
C529 O535 1.268 . S
O530 Dy523 2.351 . S
O530 C538 1.249 . S
O531 Dy520 2.326 . S
O531 C538 1.267 . S
O532 C521 1.185 . S
O532 Dy523 2.398 . S
O533 C521 1.355 . S
O533 Dy523 2.491 . S
O534 Dy523 2.403 . S
O534 C529 1.254 . S
O535 Dy520 2.310 . S
O535 Dy523 2.664 . S
O535 C529 1.268 . S
O536 Dy520 2.351 . S
O536 C539 1.249 . S
O537 Dy523 2.326 . S
O537 C539 1.267 . S
C538 O530 1.249 . S
C538 O531 1.267 . S
C539 O536 1.249 . S
C539 O537 1.267 . S
Dy540 O544 2.398 . S
Dy540 O545 2.491 . S
Dy540 O546 2.403 . S
Dy540 O547 2.664 . S
Dy540 O551 2.326 . S
Dy540 O555 2.310 . S
Dy540 O556 2.351 . S
C541 O552 1.185 . S
C541 O553 1.355 . S
C542 O544 1.185 . S
C542 O545 1.355 . S
Dy543 O547 2.310 . S
Dy543 O550 2.351 . S
Dy543 O552 2.398 . S
Dy543 O553 2.491 . S
Dy543 O554 2.403 . S
Dy543 O555 2.664 . S
Dy543 O557 2.326 . S
O544 Dy540 2.398 . S
O544 C542 1.185 . S
O545 Dy540 2.491 . S
O545 C542 1.355 . S
O546 Dy540 2.403 . S
O546 C548 1.254 . S
O547 Dy540 2.664 . S
O547 Dy543 2.310 . S
O547 C548 1.268 . S
C548 O546 1.254 . S
C548 O547 1.268 . S
C549 O554 1.254 . S
C549 O555 1.268 . S
O550 Dy543 2.351 . S
O550 C558 1.249 . S
O551 Dy540 2.326 . S
O551 C558 1.267 . S
O552 C541 1.185 . S
O552 Dy543 2.398 . S
O553 C541 1.355 . S
O553 Dy543 2.491 . S
O554 Dy543 2.403 . S
O554 C549 1.254 . S
O555 Dy540 2.310 . S
O555 Dy543 2.664 . S
O555 C549 1.268 . S
O556 Dy540 2.351 . S
O556 C559 1.249 . S
O557 Dy543 2.326 . S
O557 C559 1.267 . S
C558 O550 1.249 . S
C558 O551 1.267 . S
C559 O556 1.249 . S
C559 O557 1.267 . S
Dy560 O564 2.398 . S
Dy560 O565 2.491 . S
Dy560 O566 2.403 . S
Dy560 O567 2.664 . S
Dy560 O571 2.326 . S
Dy560 O575 2.310 . S
Dy560 O576 2.351 . S
C561 O572 1.185 . S
C561 O573 1.355 . S
C562 O564 1.185 . S
C562 O565 1.355 . S
Dy563 O567 2.310 . S
Dy563 O570 2.351 . S
Dy563 O572 2.398 1_556 S
Dy563 O573 2.491 1_556 S
Dy563 O574 2.403 . S
Dy563 O575 2.664 . S
Dy563 O577 2.326 . S
O564 Dy560 2.398 . S
O564 C562 1.185 . S
O565 Dy560 2.491 . S
O565 C562 1.355 . S
O566 Dy560 2.403 . S
O566 C568 1.254 . S
O567 Dy560 2.664 . S
O567 Dy563 2.310 . S
O567 C568 1.268 . S
C568 O566 1.254 . S
C568 O567 1.268 . S
C569 O574 1.254 . S
C569 O575 1.268 . S
O570 Dy563 2.351 . S
O570 C578 1.249 . S
O571 Dy560 2.326 . S
O571 C578 1.267 . S
O572 C561 1.185 . S
O572 Dy563 2.398 1_554 S
O573 C561 1.355 . S
O573 Dy563 2.491 1_554 S
O574 Dy563 2.403 . S
O574 C569 1.254 . S
O575 Dy560 2.310 . S
O575 Dy563 2.664 . S
O575 C569 1.268 . S
O576 Dy560 2.351 . S
O576 C579 1.249 . S
O577 Dy563 2.326 . S
O577 C579 1.267 . S
C578 O570 1.249 . S
C578 O571 1.267 . S
C579 O576 1.249 . S
C579 O577 1.267 . S
Dy580 O584 2.398 . S
Dy580 O585 2.491 . S
Dy580 O586 2.403 . S
Dy580 O587 2.664 . S
Dy580 O591 2.326 . S
Dy580 O595 2.310 . S
Dy580 O596 2.351 . S
C581 O592 1.185 . S
C581 O593 1.355 . S
C582 O584 1.185 . S
C582 O585 1.355 . S
Dy583 O587 2.310 . S
Dy583 O590 2.351 . S
Dy583 O592 2.398 1_556 S
Dy583 O593 2.491 1_556 S
Dy583 O594 2.403 . S
Dy583 O595 2.664 . S
Dy583 O597 2.326 . S
O584 Dy580 2.398 . S
O584 C582 1.185 . S
O585 Dy580 2.491 . S
O585 C582 1.355 . S
O586 Dy580 2.403 . S
O586 C588 1.254 . S
O587 Dy580 2.664 . S
O587 Dy583 2.310 . S
O587 C588 1.268 . S
C588 O586 1.254 . S
C588 O587 1.268 . S
C589 O594 1.254 . S
C589 O595 1.268 . S
O590 Dy583 2.351 . S
O590 C598 1.249 . S
O591 Dy580 2.326 . S
O591 C598 1.267 . S
O592 C581 1.185 . S
O592 Dy583 2.398 1_554 S
O593 C581 1.355 . S
O593 Dy583 2.491 1_554 S
O594 Dy583 2.403 . S
O594 C589 1.254 . S
O595 Dy580 2.310 . S
O595 Dy583 2.664 . S
O595 C589 1.268 . S
O596 Dy580 2.351 . S
O596 C599 1.249 . S
O597 Dy583 2.326 . S
O597 C599 1.267 . S
C598 O590 1.249 . S
C598 O591 1.267 . S
C599 O596 1.249 . S
C599 O597 1.267 . S
Dy600 O604 2.398 . S
Dy600 O605 2.491 . S
Dy600 O606 2.403 . S
Dy600 O607 2.664 . S
Dy600 O611 2.326 . S
Dy600 O615 2.310 . S
Dy600 O616 2.351 . S
C601 O612 1.185 . S
C601 O613 1.355 . S
C602 O604 1.185 . S
C602 O605 1.355 . S
Dy603 O607 2.310 . S
Dy603 O610 2.351 . S
Dy603 O612 2.398 . S
Dy603 O613 2.491 . S
Dy603 O614 2.403 . S
Dy603 O615 2.664 . S
Dy603 O617 2.326 . S
O604 Dy600 2.398 . S
O604 C602 1.185 . S
O605 Dy600 2.491 . S
O605 C602 1.355 . S
O606 Dy600 2.403 . S
O606 C608 1.254 . S
O607 Dy600 2.664 . S
O607 Dy603 2.310 . S
O607 C608 1.268 . S
C608 O606 1.254 . S
C608 O607 1.268 . S
C609 O614 1.254 . S
C609 O615 1.268 . S
O610 Dy603 2.351 . S
O610 C618 1.249 . S
O611 Dy600 2.326 . S
O611 C618 1.267 . S
O612 C601 1.185 . S
O612 Dy603 2.398 . S
O613 C601 1.355 . S
O613 Dy603 2.491 . S
O614 Dy603 2.403 . S
O614 C609 1.254 . S
O615 Dy600 2.310 . S
O615 Dy603 2.664 . S
O615 C609 1.268 . S
O616 Dy600 2.351 . S
O616 C619 1.249 . S
O617 Dy603 2.326 . S
O617 C619 1.267 . S
C618 O610 1.249 . S
C618 O611 1.267 . S
C619 O616 1.249 . S
C619 O617 1.267 . S
Dy620 O624 2.398 . S
Dy620 O625 2.491 . S
Dy620 O626 2.403 . S
Dy620 O627 2.664 . S
Dy620 O631 2.326 . S
Dy620 O635 2.310 . S
Dy620 O636 2.351 . S
C621 O632 1.185 . S
C621 O633 1.355 . S
C622 O624 1.185 . S
C622 O625 1.355 . S
Dy623 O627 2.310 . S
Dy623 O630 2.351 . S
Dy623 O632 2.398 . S
Dy623 O633 2.491 . S
Dy623 O634 2.403 . S
Dy623 O635 2.664 . S
Dy623 O637 2.326 . S
O624 Dy620 2.398 . S
O624 C622 1.185 . S
O625 Dy620 2.491 . S
O625 C622 1.355 . S
O626 Dy620 2.403 . S
O626 C628 1.254 . S
O627 Dy620 2.664 . S
O627 Dy623 2.310 . S
O627 C628 1.268 . S
C628 O626 1.254 . S
C628 O627 1.268 . S
C629 O634 1.254 . S
C629 O635 1.268 . S
O630 Dy623 2.351 . S
O630 C638 1.249 . S
O631 Dy620 2.326 . S
O631 C638 1.267 . S
O632 C621 1.185 . S
O632 Dy623 2.398 . S
O633 C621 1.355 . S
O633 Dy623 2.491 . S
O634 Dy623 2.403 . S
O634 C629 1.254 . S
O635 Dy620 2.310 . S
O635 Dy623 2.664 . S
O635 C629 1.268 . S
O636 Dy620 2.351 . S
O636 C639 1.249 . S
O637 Dy623 2.326 . S
O637 C639 1.267 . S
C638 O630 1.249 . S
C638 O631 1.267 . S
C639 O636 1.249 . S
C639 O637 1.267 . S
C640 C641 1.363 . S
C640 C646 1.379 . S
C640 N648 1.356 . S
C641 C640 1.363 . S
C641 C647 1.363 . S
C642 C643 1.363 . S
C642 C647 1.379 . S
C642 N649 1.356 . S
C643 C642 1.363 . S
C643 C646 1.363 . S
N644 C646 1.356 . S
N644 H656 0.984 1_554 S
N644 H657 0.985 . S
N645 C647 1.356 . S
N645 H650 0.984 . S
N645 H651 0.985 . S
C646 C640 1.379 . S
C646 C643 1.363 . S
C646 N644 1.356 . S
C647 C641 1.363 . S
C647 C642 1.379 . S
C647 N645 1.356 . S
N648 C640 1.356 . S
N648 H654 0.984 1_554 S
N648 H655 0.984 . S
N649 C642 1.356 . S
N649 H652 0.984 . S
N649 H653 0.985 . S
H650 N645 0.984 . S
H651 N645 0.985 . S
H652 N649 0.984 . S
H653 N649 0.985 . S
H654 N648 0.984 1_556 S
H655 N648 0.984 . S
H656 N644 0.984 1_556 S
H657 N644 0.985 . S
C658 C659 1.363 . S
C658 C664 1.379 . S
C658 N666 1.356 . S
C659 C658 1.363 . S
C659 C665 1.363 . S
C660 C661 1.363 . S
C660 C665 1.379 . S
C660 N667 1.356 . S
C661 C660 1.363 . S
C661 C664 1.363 . S
N662 C664 1.356 . S
N662 H674 0.984 . S
N662 H675 0.985 . S
N663 C665 1.356 . S
N663 H668 0.984 . S
N663 H669 0.985 1_554 S
C664 C658 1.379 . S
C664 C661 1.363 . S
C664 N662 1.356 . S
C665 C659 1.363 . S
C665 C660 1.379 . S
C665 N663 1.356 . S
N666 C658 1.356 . S
N666 H672 0.984 . S
N666 H673 0.984 . S
N667 C660 1.356 . S
N667 H670 0.984 . S
N667 H671 0.985 1_554 S
H668 N663 0.984 . S
H669 N663 0.985 1_556 S
H670 N667 0.984 . S
H671 N667 0.985 1_556 S
H672 N666 0.984 . S
H673 N666 0.984 . S
H674 N662 0.984 . S
H675 N662 0.985 . S
C676 C677 1.363 . S
C676 C682 1.379 . S
C676 N684 1.356 . S
C677 C676 1.363 . S
C677 C683 1.363 . S
C678 C679 1.363 . S
C678 C683 1.379 . S
C678 N685 1.356 . S
C679 C678 1.363 . S
C679 C682 1.363 . S
N680 C682 1.356 . S
N680 H692 0.984 . S
N680 H693 0.985 . S
N681 C683 1.356 . S
N681 H686 0.984 . S
N681 H687 0.985 . S
C682 C676 1.379 . S
C682 C679 1.363 . S
C682 N680 1.356 . S
C683 C677 1.363 . S
C683 C678 1.379 . S
C683 N681 1.356 . S
N684 C676 1.356 . S
N684 H690 0.984 . S
N684 H691 0.984 . S
N685 C678 1.356 . S
N685 H688 0.984 . S
N685 H689 0.985 . S
H686 N681 0.984 . S
H687 N681 0.985 . S
H688 N685 0.984 . S
H689 N685 0.985 . S
H690 N684 0.984 . S
H691 N684 0.984 . S
H692 N680 0.984 . S
H693 N680 0.985 . S
C694 C695 1.363 . S
C694 C700 1.379 . S
C694 N702 1.356 . S
C695 C694 1.363 . S
C695 C701 1.363 . S
C696 C697 1.363 . S
C696 C701 1.379 . S
C696 N703 1.356 . S
C697 C696 1.363 . S
C697 C700 1.363 . S
N698 C700 1.356 . S
N698 H710 0.984 . S
N698 H711 0.985 . S
N699 C701 1.356 . S
N699 H704 0.984 . S
N699 H705 0.985 . S
C700 C694 1.379 . S
C700 C697 1.363 . S
C700 N698 1.356 . S
C701 C695 1.363 . S
C701 C696 1.379 . S
C701 N699 1.356 . S
N702 C694 1.356 . S
N702 H708 0.984 . S
N702 H709 0.984 . S
N703 C696 1.356 . S
N703 H706 0.984 . S
N703 H707 0.985 . S
H704 N699 0.984 . S
H705 N699 0.985 . S
H706 N703 0.984 . S
H707 N703 0.985 . S
H708 N702 0.984 . S
H709 N702 0.984 . S
H710 N698 0.984 . S
H711 N698 0.985 . S
C712 C713 1.363 . S
C712 C718 1.379 . S
C712 N720 1.356 . S
C713 C712 1.363 . S
C713 C719 1.363 . S
C714 C715 1.363 . S
C714 C719 1.379 . S
C714 N721 1.356 . S
C715 C714 1.363 . S
C715 C718 1.363 . S
N716 C718 1.356 . S
N716 H728 0.984 1_556 S
N716 H729 0.985 . S
N717 C719 1.356 . S
N717 H722 0.984 . S
N717 H723 0.985 . S
C718 C712 1.379 . S
C718 C715 1.363 . S
C718 N716 1.356 . S
C719 C713 1.363 . S
C719 C714 1.379 . S
C719 N717 1.356 . S
N720 C712 1.356 . S
N720 H726 0.984 1_556 S
N720 H727 0.984 . S
N721 C714 1.356 . S
N721 H724 0.984 . S
N721 H725 0.985 . S
H722 N717 0.984 . S
H723 N717 0.985 . S
H724 N721 0.984 . S
H725 N721 0.985 . S
H726 N720 0.984 1_554 S
H727 N720 0.984 . S
H728 N716 0.984 1_554 S
H729 N716 0.985 . S
C730 C731 1.363 . S
C730 C736 1.379 . S
C730 N738 1.356 . S
C731 C730 1.363 . S
C731 C737 1.363 . S
C732 C733 1.363 . S
C732 C737 1.379 . S
C732 N739 1.356 . S
C733 C732 1.363 . S
C733 C736 1.363 . S
N734 C736 1.356 . S
N734 H746 0.984 . S
N734 H747 0.985 . S
N735 C737 1.356 . S
N735 H740 0.984 . S
N735 H741 0.985 1_556 S
C736 C730 1.379 . S
C736 C733 1.363 . S
C736 N734 1.356 . S
C737 C731 1.363 . S
C737 C732 1.379 . S
C737 N735 1.356 . S
N738 C730 1.356 . S
N738 H744 0.984 . S
N738 H745 0.984 . S
N739 C732 1.356 . S
N739 H742 0.984 . S
N739 H743 0.985 1_556 S
H740 N735 0.984 . S
H741 N735 0.985 1_554 S
H742 N739 0.984 . S
H743 N739 0.985 1_554 S
H744 N738 0.984 . S
H745 N738 0.984 . S
H746 N734 0.984 . S
H747 N734 0.985 . S
C748 C749 1.363 . S
C748 C754 1.379 . S
C748 N756 1.356 . S
C749 C748 1.363 . S
C749 C755 1.363 . S
C750 C751 1.363 . S
C750 C755 1.379 . S
C750 N757 1.356 . S
C751 C750 1.363 . S
C751 C754 1.363 . S
N752 C754 1.356 . S
N752 H764 0.984 . S
N752 H765 0.985 . S
N753 C755 1.356 . S
N753 H758 0.984 . S
N753 H759 0.985 . S
C754 C748 1.379 . S
C754 C751 1.363 . S
C754 N752 1.356 . S
C755 C749 1.363 . S
C755 C750 1.379 . S
C755 N753 1.356 . S
N756 C748 1.356 . S
N756 H762 0.984 . S
N756 H763 0.984 . S
N757 C750 1.356 . S
N757 H760 0.984 . S
N757 H761 0.985 . S
H758 N753 0.984 . S
H759 N753 0.985 . S
H760 N757 0.984 . S
H761 N757 0.985 . S
H762 N756 0.984 . S
H763 N756 0.984 . S
H764 N752 0.984 . S
H765 N752 0.985 . S
C766 C767 1.363 . S
C766 C772 1.379 . S
C766 N774 1.356 . S
C767 C766 1.363 . S
C767 C773 1.363 . S
C768 C769 1.363 . S
C768 C773 1.379 . S
C768 N775 1.356 . S
C769 C768 1.363 . S
C769 C772 1.363 . S
N770 C772 1.356 . S
N770 H782 0.984 . S
N770 H783 0.985 . S
N771 C773 1.356 . S
N771 H776 0.984 . S
N771 H777 0.985 . S
C772 C766 1.379 . S
C772 C769 1.363 . S
C772 N770 1.356 . S
C773 C767 1.363 . S
C773 C768 1.379 . S
C773 N771 1.356 . S
N774 C766 1.356 . S
N774 H780 0.984 . S
N774 H781 0.984 . S
N775 C768 1.356 . S
N775 H778 0.984 . S
N775 H779 0.985 . S
H776 N771 0.984 . S
H777 N771 0.985 . S
H778 N775 0.984 . S
H779 N775 0.985 . S
H780 N774 0.984 . S
H781 N774 0.984 . S
H782 N770 0.984 . S
H783 N770 0.985 . S
C784 C785 1.363 . S
C784 C790 1.379 . S
C784 N792 1.356 . S
C785 C784 1.363 . S
C785 C791 1.363 . S
C786 C787 1.363 . S
C786 C791 1.379 . S
C786 N793 1.356 . S
C787 C786 1.363 . S
C787 C790 1.363 . S
N788 C790 1.356 . S
N788 H800 0.984 . S
N788 H801 0.985 . S
N789 C791 1.356 . S
N789 H794 0.984 . S
N789 H795 0.985 . S
C790 C784 1.379 . S
C790 C787 1.363 . S
C790 N788 1.356 . S
C791 C785 1.363 . S
C791 C786 1.379 . S
C791 N789 1.356 . S
N792 C784 1.356 . S
N792 H798 0.984 . S
N792 H799 0.984 . S
N793 C786 1.356 . S
N793 H796 0.984 . S
N793 H797 0.985 . S
H794 N789 0.984 . S
H795 N789 0.985 . S
H796 N793 0.984 . S
H797 N793 0.985 . S
H798 N792 0.984 . S
H799 N792 0.984 . S
H800 N788 0.984 . S
H801 N788 0.985 . S
C802 C803 1.363 . S
C802 C808 1.379 . S
C802 N810 1.356 . S
C803 C802 1.363 . S
C803 C809 1.363 . S
C804 C805 1.363 . S
C804 C809 1.379 . S
C804 N811 1.356 . S
C805 C804 1.363 . S
C805 C808 1.363 . S
N806 C808 1.356 . S
N806 H818 0.984 . S
N806 H819 0.985 . S
N807 C809 1.356 . S
N807 H812 0.984 . S
N807 H813 0.985 . S
C808 C802 1.379 . S
C808 C805 1.363 . S
C808 N806 1.356 . S
C809 C803 1.363 . S
C809 C804 1.379 . S
C809 N807 1.356 . S
N810 C802 1.356 . S
N810 H816 0.984 . S
N810 H817 0.984 . S
N811 C804 1.356 . S
N811 H814 0.984 . S
N811 H815 0.985 . S
H812 N807 0.984 . S
H813 N807 0.985 . S
H814 N811 0.984 . S
H815 N811 0.985 . S
H816 N810 0.984 . S
H817 N810 0.984 . S
H818 N806 0.984 . S
H819 N806 0.985 . S
C820 C821 1.363 . S
C820 C826 1.379 . S
C820 N828 1.356 . S
C821 C820 1.363 . S
C821 C827 1.363 . S
C822 C823 1.363 . S
C822 C827 1.379 . S
C822 N829 1.356 . S
C823 C822 1.363 . S
C823 C826 1.363 . S
N824 C826 1.356 . S
N824 H836 0.984 . S
N824 H837 0.985 . S
N825 C827 1.356 . S
N825 H830 0.984 . S
N825 H831 0.985 . S
C826 C820 1.379 . S
C826 C823 1.363 . S
C826 N824 1.356 . S
C827 C821 1.363 . S
C827 C822 1.379 . S
C827 N825 1.356 . S
N828 C820 1.356 . S
N828 H834 0.984 . S
N828 H835 0.984 . S
N829 C822 1.356 . S
N829 H832 0.984 . S
N829 H833 0.985 . S
H830 N825 0.984 . S
H831 N825 0.985 . S
H832 N829 0.984 . S
H833 N829 0.985 . S
H834 N828 0.984 . S
H835 N828 0.984 . S
H836 N824 0.984 . S
H837 N824 0.985 . S
C838 C839 1.363 . S
C838 C844 1.379 . S
C838 N846 1.356 . S
C839 C838 1.363 . S
C839 C845 1.363 . S
C840 C841 1.363 . S
C840 C845 1.379 . S
C840 N847 1.356 . S
C841 C840 1.363 . S
C841 C844 1.363 . S
N842 C844 1.356 . S
N842 H854 0.984 . S
N842 H855 0.985 . S
N843 C845 1.356 . S
N843 H848 0.984 . S
N843 H849 0.985 . S
C844 C838 1.379 . S
C844 C841 1.363 . S
C844 N842 1.356 . S
C845 C839 1.363 . S
C845 C840 1.379 . S
C845 N843 1.356 . S
N846 C838 1.356 . S
N846 H852 0.984 . S
N846 H853 0.984 . S
N847 C840 1.356 . S
N847 H850 0.984 . S
N847 H851 0.985 . S
H848 N843 0.984 . S
H849 N843 0.985 . S
H850 N847 0.984 . S
H851 N847 0.985 . S
H852 N846 0.984 . S
H853 N846 0.984 . S
H854 N842 0.984 . S
H855 N842 0.985 . S
C856 C857 1.363 . S
C856 C862 1.379 . S
C856 N864 1.356 . S
C857 C856 1.363 . S
C857 C863 1.363 . S
C858 C859 1.363 . S
C858 C863 1.379 . S
C858 N865 1.356 . S
C859 C858 1.363 . S
C859 C862 1.363 . S
N860 C862 1.356 . S
N860 H872 0.984 . S
N860 H873 0.985 . S
N861 C863 1.356 . S
N861 H866 0.984 . S
N861 H867 0.985 . S
C862 C856 1.379 . S
C862 C859 1.363 . S
C862 N860 1.356 . S
C863 C857 1.363 . S
C863 C858 1.379 . S
C863 N861 1.356 . S
N864 C856 1.356 . S
N864 H870 0.984 . S
N864 H871 0.984 . S
N865 C858 1.356 . S
N865 H868 0.984 . S
N865 H869 0.985 . S
H866 N861 0.984 . S
H867 N861 0.985 . S
H868 N865 0.984 . S
H869 N865 0.985 . S
H870 N864 0.984 . S
H871 N864 0.984 . S
H872 N860 0.984 . S
H873 N860 0.985 . S
C874 C875 1.363 . S
C874 C880 1.379 . S
C874 N882 1.356 . S
C875 C874 1.363 . S
C875 C881 1.363 . S
C876 C877 1.363 . S
C876 C881 1.379 . S
C876 N883 1.356 . S
C877 C876 1.363 . S
C877 C880 1.363 . S
N878 C880 1.356 . S
N878 H890 0.984 . S
N878 H891 0.985 . S
N879 C881 1.356 . S
N879 H884 0.984 . S
N879 H885 0.985 . S
C880 C874 1.379 . S
C880 C877 1.363 . S
C880 N878 1.356 . S
C881 C875 1.363 . S
C881 C876 1.379 . S
C881 N879 1.356 . S
N882 C874 1.356 . S
N882 H888 0.984 . S
N882 H889 0.984 . S
N883 C876 1.356 . S
N883 H886 0.984 . S
N883 H887 0.985 . S
H884 N879 0.984 . S
H885 N879 0.985 . S
H886 N883 0.984 . S
H887 N883 0.985 . S
H888 N882 0.984 . S
H889 N882 0.984 . S
H890 N878 0.984 . S
H891 N878 0.985 . S
C892 C893 1.363 . S
C892 C898 1.379 . S
C892 N900 1.356 . S
C893 C892 1.363 . S
C893 C899 1.363 . S
C894 C895 1.363 . S
C894 C899 1.379 . S
C894 N901 1.356 . S
C895 C894 1.363 . S
C895 C898 1.363 . S
N896 C898 1.356 . S
N896 H908 0.984 . S
N896 H909 0.985 . S
N897 C899 1.356 . S
N897 H902 0.984 . S
N897 H903 0.985 . S
C898 C892 1.379 . S
C898 C895 1.363 . S
C898 N896 1.356 . S
C899 C893 1.363 . S
C899 C894 1.379 . S
C899 N897 1.356 . S
N900 C892 1.356 . S
N900 H906 0.984 . S
N900 H907 0.984 . S
N901 C894 1.356 . S
N901 H904 0.984 . S
N901 H905 0.985 . S
H902 N897 0.984 . S
H903 N897 0.985 . S
H904 N901 0.984 . S
H905 N901 0.985 . S
H906 N900 0.984 . S
H907 N900 0.984 . S
H908 N896 0.984 . S
H909 N896 0.985 . S
C910 C911 1.363 . S
C910 C916 1.379 . S
C910 N918 1.356 . S
C911 C910 1.363 . S
C911 C917 1.363 . S
C912 C913 1.363 . S
C912 C917 1.379 . S
C912 N919 1.356 . S
C913 C912 1.363 . S
C913 C916 1.363 . S
N914 C916 1.356 . S
N914 H926 0.984 . S
N914 H927 0.985 . S
N915 C917 1.356 . S
N915 H920 0.984 . S
N915 H921 0.985 . S
C916 C910 1.379 . S
C916 C913 1.363 . S
C916 N914 1.356 . S
C917 C911 1.363 . S
C917 C912 1.379 . S
C917 N915 1.356 . S
N918 C910 1.356 . S
N918 H924 0.984 . S
N918 H925 0.984 . S
N919 C912 1.356 . S
N919 H922 0.984 . S
N919 H923 0.985 . S
H920 N915 0.984 . S
H921 N915 0.985 . S
H922 N919 0.984 . S
H923 N919 0.985 . S
H924 N918 0.984 . S
H925 N918 0.984 . S
H926 N914 0.984 . S
H927 N914 0.985 . S
C928 C929 1.363 . S
C928 C934 1.379 . S
C928 N936 1.356 . S
C929 C928 1.363 . S
C929 C935 1.363 1_565 S
C930 C931 1.363 . S
C930 C935 1.379 . S
C930 N937 1.356 . S
C931 C930 1.363 . S
C931 C934 1.363 1_545 S
N932 C934 1.356 . S
N932 H944 0.984 . S
N932 H945 0.985 . S
N933 C935 1.356 . S
N933 H938 0.984 . S
N933 H939 0.985 . S
C934 C928 1.379 . S
C934 C931 1.363 1_565 S
C934 N932 1.356 . S
C935 C929 1.363 1_545 S
C935 C930 1.379 . S
C935 N933 1.356 . S
N936 C928 1.356 . S
N936 H942 0.984 . S
N936 H943 0.984 . S
N937 C930 1.356 . S
N937 H940 0.984 . S
N937 H941 0.985 . S
H938 N933 0.984 . S
H939 N933 0.985 . S
H940 N937 0.984 . S
H941 N937 0.985 . S
H942 N936 0.984 . S
H943 N936 0.984 . S
H944 N932 0.984 . S
H945 N932 0.985 . S
C946 C947 1.363 . S
C946 C952 1.379 . S
C946 N954 1.356 . S
C947 C946 1.363 . S
C947 C953 1.363 1_455 S
C948 C949 1.363 . S
C948 C953 1.379 . S
C948 N955 1.356 . S
C949 C948 1.363 . S
C949 C952 1.363 1_655 S
N950 C952 1.356 . S
N950 H962 0.984 . S
N950 H963 0.985 1_455 S
N951 C953 1.356 . S
N951 H956 0.984 1_655 S
N951 H957 0.985 . S
C952 C946 1.379 . S
C952 C949 1.363 1_455 S
C952 N950 1.356 . S
C953 C947 1.363 1_655 S
C953 C948 1.379 . S
C953 N951 1.356 . S
N954 C946 1.356 . S
N954 H960 0.984 . S
N954 H961 0.984 . S
N955 C948 1.356 . S
N955 H958 0.984 . S
N955 H959 0.985 . S
H956 N951 0.984 1_455 S
H957 N951 0.985 . S
H958 N955 0.984 . S
H959 N955 0.985 . S
H960 N954 0.984 . S
H961 N954 0.984 . S
H962 N950 0.984 . S
H963 N950 0.985 1_655 S
C964 C965 1.363 . S
C964 C970 1.379 1_556 S
C964 N972 1.356 . S
C965 C964 1.363 . S
C965 C971 1.363 . S
C966 C967 1.363 . S
C966 C971 1.379 1_554 S
C966 N973 1.356 . S
C967 C966 1.363 . S
C967 C970 1.363 . S
N968 C970 1.356 . S
N968 H980 0.984 . S
N968 H981 0.985 . S
N969 C971 1.356 . S
N969 H974 0.984 . S
N969 H975 0.985 . S
C970 C964 1.379 1_554 S
C970 C967 1.363 . S
C970 N968 1.356 . S
C971 C965 1.363 . S
C971 C966 1.379 1_556 S
C971 N969 1.356 . S
N972 C964 1.356 . S
N972 H978 0.984 1_556 S
N972 H979 0.984 . S
N973 C966 1.356 . S
N973 H976 0.984 . S
N973 H977 0.985 1_554 S
H974 N969 0.984 . S
H975 N969 0.985 . S
H976 N973 0.984 . S
H977 N973 0.985 1_556 S
H978 N972 0.984 1_554 S
H979 N972 0.984 . S
H980 N968 0.984 . S
H981 N968 0.985 . S
C982 C983 1.363 1_455 S
C982 C988 1.379 1_554 S
C982 N990 1.356 . S
C983 C982 1.363 1_655 S
C983 C989 1.363 1_565 S
C984 C985 1.363 1_655 S
C984 C989 1.379 1_556 S
C984 N991 1.356 . S
C985 C984 1.363 1_455 S
C985 C988 1.363 1_545 S
N986 C988 1.356 . S
N986 H998 0.984 . S
N986 H999 0.985 . S
N987 C989 1.356 . S
N987 H992 0.984 . S
N987 H993 0.985 . S
C988 C982 1.379 1_556 S
C988 C985 1.363 1_565 S
C988 N986 1.356 . S
C989 C983 1.363 1_545 S
C989 C984 1.379 1_554 S
C989 N987 1.356 . S
N990 C982 1.356 . S
N990 H996 0.984 . S
N990 H997 0.984 1_455 S
N991 C984 1.356 . S
N991 H994 0.984 1_655 S
N991 H995 0.985 . S
H992 N987 0.984 . S
H993 N987 0.985 . S
H994 N991 0.984 1_455 S
H995 N991 0.985 . S
H996 N990 0.984 . S
H997 N990 0.984 1_655 S
H998 N986 0.984 . S
H999 N986 0.985 . S
C1000 C1001 1.363 . S
C1000 C1006 1.379 . S
C1000 N1008 1.356 . S
C1001 C1000 1.363 . S
C1001 C1007 1.363 1_545 S
C1002 C1003 1.363 . S
C1002 C1007 1.379 . S
C1002 N1009 1.356 . S
C1003 C1002 1.363 . S
C1003 C1006 1.363 1_565 S
N1004 C1006 1.356 . S
N1004 H1016 0.984 . S
N1004 H1017 0.985 . S
N1005 C1007 1.356 . S
N1005 H1010 0.984 . S
N1005 H1011 0.985 . S
C1006 C1000 1.379 . S
C1006 C1003 1.363 1_545 S
C1006 N1004 1.356 . S
C1007 C1001 1.363 1_565 S
C1007 C1002 1.379 . S
C1007 N1005 1.356 . S
N1008 C1000 1.356 . S
N1008 H1014 0.984 . S
N1008 H1015 0.984 . S
N1009 C1002 1.356 . S
N1009 H1012 0.984 . S
N1009 H1013 0.985 . S
H1010 N1005 0.984 . S
H1011 N1005 0.985 . S
H1012 N1009 0.984 . S
H1013 N1009 0.985 . S
H1014 N1008 0.984 . S
H1015 N1008 0.984 . S
H1016 N1004 0.984 . S
H1017 N1004 0.985 . S
C1018 C1019 1.363 1_655 S
C1018 C1024 1.379 . S
C1018 N1026 1.356 1_655 S
C1019 C1018 1.363 1_455 S
C1019 C1025 1.363 . S
C1020 C1021 1.363 1_455 S
C1020 C1025 1.379 . S
C1020 N1027 1.356 1_455 S
C1021 C1020 1.363 1_655 S
C1021 C1024 1.363 . S
N1022 C1024 1.356 . S
N1022 H1034 0.984 . S
N1022 H1035 0.985 . S
N1023 C1025 1.356 . S
N1023 H1028 0.984 . S
N1023 H1029 0.985 . S
C1024 C1018 1.379 . S
C1024 C1021 1.363 . S
C1024 N1022 1.356 . S
C1025 C1019 1.363 . S
C1025 C1020 1.379 . S
C1025 N1023 1.356 . S
N1026 C1018 1.356 1_455 S
N1026 H1032 0.984 1_455 S
N1026 H1033 0.984 . S
N1027 C1020 1.356 1_655 S
N1027 H1030 0.984 . S
N1027 H1031 0.985 1_655 S
H1028 N1023 0.984 . S
H1029 N1023 0.985 . S
H1030 N1027 0.984 . S
H1031 N1027 0.985 1_455 S
H1032 N1026 0.984 1_655 S
H1033 N1026 0.984 . S
H1034 N1022 0.984 . S
H1035 N1022 0.985 . S
C1036 C1037 1.363 . S
C1036 C1042 1.379 1_556 S
C1036 N1044 1.356 . S
C1037 C1036 1.363 . S
C1037 C1043 1.363 . S
C1038 C1039 1.363 . S
C1038 C1043 1.379 1_554 S
C1038 N1045 1.356 . S
C1039 C1038 1.363 . S
C1039 C1042 1.363 . S
N1040 C1042 1.356 . S
N1040 H1052 0.984 . S
N1040 H1053 0.985 . S
N1041 C1043 1.356 . S
N1041 H1046 0.984 . S
N1041 H1047 0.985 . S
C1042 C1036 1.379 1_554 S
C1042 C1039 1.363 . S
C1042 N1040 1.356 . S
C1043 C1037 1.363 . S
C1043 C1038 1.379 1_556 S
C1043 N1041 1.356 . S
N1044 C1036 1.356 . S
N1044 H1050 0.984 1_556 S
N1044 H1051 0.984 . S
N1045 C1038 1.356 . S
N1045 H1048 0.984 . S
N1045 H1049 0.985 1_554 S
H1046 N1041 0.984 . S
H1047 N1041 0.985 . S
H1048 N1045 0.984 . S
H1049 N1045 0.985 1_556 S
H1050 N1044 0.984 1_554 S
H1051 N1044 0.984 . S
H1052 N1040 0.984 . S
H1053 N1040 0.985 . S
C1054 C1055 1.363 . S
C1054 C1060 1.379 . S
C1054 N1062 1.356 . S
C1055 C1054 1.363 . S
C1055 C1061 1.363 . S
C1056 C1057 1.363 . S
C1056 C1061 1.379 . S
C1056 N1063 1.356 . S
C1057 C1056 1.363 . S
C1057 C1060 1.363 . S
N1058 C1060 1.356 . S
N1058 H1070 0.984 . S
N1058 H1071 0.985 . S
N1059 C1061 1.356 . S
N1059 H1064 0.984 . S
N1059 H1065 0.985 . S
C1060 C1054 1.379 . S
C1060 C1057 1.363 . S
C1060 N1058 1.356 . S
C1061 C1055 1.363 . S
C1061 C1056 1.379 . S
C1061 N1059 1.356 . S
N1062 C1054 1.356 . S
N1062 H1068 0.984 . S
N1062 H1069 0.984 . S
N1063 C1056 1.356 . S
N1063 H1066 0.984 . S
N1063 H1067 0.985 . S
H1064 N1059 0.984 . S
H1065 N1059 0.985 . S
H1066 N1063 0.984 . S
H1067 N1063 0.985 . S
H1068 N1062 0.984 . S
H1069 N1062 0.984 . S
H1070 N1058 0.984 . S
H1071 N1058 0.985 . S
C1072 C1073 1.363 . S
C1072 C1078 1.379 . S
C1072 N1080 1.356 . S
C1073 C1072 1.363 . S
C1073 C1079 1.363 . S
C1074 C1075 1.363 . S
C1074 C1079 1.379 . S
C1074 N1081 1.356 . S
C1075 C1074 1.363 . S
C1075 C1078 1.363 . S
N1076 C1078 1.356 . S
N1076 H1088 0.984 . S
N1076 H1089 0.985 . S
N1077 C1079 1.356 . S
N1077 H1082 0.984 . S
N1077 H1083 0.985 . S
C1078 C1072 1.379 . S
C1078 C1075 1.363 . S
C1078 N1076 1.356 . S
C1079 C1073 1.363 . S
C1079 C1074 1.379 . S
C1079 N1077 1.356 . S
N1080 C1072 1.356 . S
N1080 H1086 0.984 . S
N1080 H1087 0.984 . S
N1081 C1074 1.356 . S
N1081 H1084 0.984 . S
N1081 H1085 0.985 . S
H1082 N1077 0.984 . S
H1083 N1077 0.985 . S
H1084 N1081 0.984 . S
H1085 N1081 0.985 . S
H1086 N1080 0.984 . S
H1087 N1080 0.984 . S
H1088 N1076 0.984 . S
H1089 N1076 0.985 . S
C1090 C1091 1.363 1_655 S
C1090 C1096 1.379 . S
C1090 N1098 1.356 . S
C1091 C1090 1.363 1_455 S
C1091 C1097 1.363 . S
C1092 C1093 1.363 1_455 S
C1092 C1097 1.379 . S
C1092 N1099 1.356 . S
C1093 C1092 1.363 1_655 S
C1093 C1096 1.363 . S
N1094 C1096 1.356 . S
N1094 H1106 0.984 . S
N1094 H1107 0.985 . S
N1095 C1097 1.356 . S
N1095 H1100 0.984 . S
N1095 H1101 0.985 . S
C1096 C1090 1.379 . S
C1096 C1093 1.363 . S
C1096 N1094 1.356 . S
C1097 C1091 1.363 . S
C1097 C1092 1.379 . S
C1097 N1095 1.356 . S
N1098 C1090 1.356 . S
N1098 H1104 0.984 . S
N1098 H1105 0.984 1_655 S
N1099 C1092 1.356 . S
N1099 H1102 0.984 1_455 S
N1099 H1103 0.985 . S
H1100 N1095 0.984 . S
H1101 N1095 0.985 . S
H1102 N1099 0.984 1_655 S
H1103 N1099 0.985 . S
H1104 N1098 0.984 . S
H1105 N1098 0.984 1_455 S
H1106 N1094 0.984 . S
H1107 N1094 0.985 . S
C1108 C1109 1.363 . S
C1108 C1114 1.379 . S
C1108 N1116 1.356 . S
C1109 C1108 1.363 . S
C1109 C1115 1.363 . S
C1110 C1111 1.363 . S
C1110 C1115 1.379 . S
C1110 N1117 1.356 . S
C1111 C1110 1.363 . S
C1111 C1114 1.363 . S
N1112 C1114 1.356 . S
N1112 H1124 0.984 . S
N1112 H1125 0.985 . S
N1113 C1115 1.356 . S
N1113 H1118 0.984 . S
N1113 H1119 0.985 . S
C1114 C1108 1.379 . S
C1114 C1111 1.363 . S
C1114 N1112 1.356 . S
C1115 C1109 1.363 . S
C1115 C1110 1.379 . S
C1115 N1113 1.356 . S
N1116 C1108 1.356 . S
N1116 H1122 0.984 . S
N1116 H1123 0.984 . S
N1117 C1110 1.356 . S
N1117 H1120 0.984 . S
N1117 H1121 0.985 . S
H1118 N1113 0.984 . S
H1119 N1113 0.985 . S
H1120 N1117 0.984 . S
H1121 N1117 0.985 . S
H1122 N1116 0.984 . S
H1123 N1116 0.984 . S
H1124 N1112 0.984 . S
H1125 N1112 0.985 . S
C1126 C1127 1.363 . S
C1126 C1132 1.379 . S
C1126 N1134 1.356 . S
C1127 C1126 1.363 . S
C1127 C1133 1.363 . S
C1128 C1129 1.363 . S
C1128 C1133 1.379 . S
C1128 N1135 1.356 . S
C1129 C1128 1.363 . S
C1129 C1132 1.363 . S
N1130 C1132 1.356 . S
N1130 H1142 0.984 . S
N1130 H1143 0.985 . S
N1131 C1133 1.356 . S
N1131 H1136 0.984 . S
N1131 H1137 0.985 . S
C1132 C1126 1.379 . S
C1132 C1129 1.363 . S
C1132 N1130 1.356 . S
C1133 C1127 1.363 . S
C1133 C1128 1.379 . S
C1133 N1131 1.356 . S
N1134 C1126 1.356 . S
N1134 H1140 0.984 . S
N1134 H1141 0.984 . S
N1135 C1128 1.356 . S
N1135 H1138 0.984 . S
N1135 H1139 0.985 . S
H1136 N1131 0.984 . S
H1137 N1131 0.985 . S
H1138 N1135 0.984 . S
H1139 N1135 0.985 . S
H1140 N1134 0.984 . S
H1141 N1134 0.984 . S
H1142 N1130 0.984 . S
H1143 N1130 0.985 . S
C1144 C1145 1.363 . S
C1144 C1150 1.379 . S
C1144 N1152 1.356 . S
C1145 C1144 1.363 . S
C1145 C1151 1.363 . S
C1146 C1147 1.363 . S
C1146 C1151 1.379 . S
C1146 N1153 1.356 . S
C1147 C1146 1.363 . S
C1147 C1150 1.363 . S
N1148 C1150 1.356 . S
N1148 H1160 0.984 . S
N1148 H1161 0.985 . S
N1149 C1151 1.356 . S
N1149 H1154 0.984 . S
N1149 H1155 0.985 . S
C1150 C1144 1.379 . S
C1150 C1147 1.363 . S
C1150 N1148 1.356 . S
C1151 C1145 1.363 . S
C1151 C1146 1.379 . S
C1151 N1149 1.356 . S
N1152 C1144 1.356 . S
N1152 H1158 0.984 . S
N1152 H1159 0.984 . S
N1153 C1146 1.356 . S
N1153 H1156 0.984 . S
N1153 H1157 0.985 . S
H1154 N1149 0.984 . S
H1155 N1149 0.985 . S
H1156 N1153 0.984 . S
H1157 N1153 0.985 . S
H1158 N1152 0.984 . S
H1159 N1152 0.984 . S
H1160 N1148 0.984 . S
H1161 N1148 0.985 . S
C1162 C1163 1.363 1_545 S
C1162 C1168 1.379 . S
C1162 N1170 1.356 . S
C1163 C1162 1.363 1_565 S
C1163 C1169 1.363 . S
C1164 C1165 1.363 1_565 S
C1164 C1169 1.379 . S
C1164 N1171 1.356 . S
C1165 C1164 1.363 1_545 S
C1165 C1168 1.363 . S
N1166 C1168 1.356 . S
N1166 H1178 0.984 . S
N1166 H1179 0.985 . S
N1167 C1169 1.356 . S
N1167 H1172 0.984 . S
N1167 H1173 0.985 . S
C1168 C1162 1.379 . S
C1168 C1165 1.363 . S
C1168 N1166 1.356 . S
C1169 C1163 1.363 . S
C1169 C1164 1.379 . S
C1169 N1167 1.356 . S
N1170 C1162 1.356 . S
N1170 H1176 0.984 . S
N1170 H1177 0.984 . S
N1171 C1164 1.356 . S
N1171 H1174 0.984 . S
N1171 H1175 0.985 . S
H1172 N1167 0.984 . S
H1173 N1167 0.985 . S
H1174 N1171 0.984 . S
H1175 N1171 0.985 . S
H1176 N1170 0.984 . S
H1177 N1170 0.984 . S
H1178 N1166 0.984 . S
H1179 N1166 0.985 . S
C1180 C1181 1.363 . S
C1180 C1186 1.379 . S
C1180 N1188 1.356 . S
C1181 C1180 1.363 . S
C1181 C1187 1.363 . S
C1182 C1183 1.363 . S
C1182 C1187 1.379 . S
C1182 N1189 1.356 . S
C1183 C1182 1.363 . S
C1183 C1186 1.363 . S
N1184 C1186 1.356 . S
N1184 H1196 0.984 . S
N1184 H1197 0.985 . S
N1185 C1187 1.356 . S
N1185 H1190 0.984 . S
N1185 H1191 0.985 . S
C1186 C1180 1.379 . S
C1186 C1183 1.363 . S
C1186 N1184 1.356 . S
C1187 C1181 1.363 . S
C1187 C1182 1.379 . S
C1187 N1185 1.356 . S
N1188 C1180 1.356 . S
N1188 H1194 0.984 . S
N1188 H1195 0.984 . S
N1189 C1182 1.356 . S
N1189 H1192 0.984 . S
N1189 H1193 0.985 . S
H1190 N1185 0.984 . S
H1191 N1185 0.985 . S
H1192 N1189 0.984 . S
H1193 N1189 0.985 . S
H1194 N1188 0.984 . S
H1195 N1188 0.984 . S
H1196 N1184 0.984 . S
H1197 N1184 0.985 . S
C1198 C1199 1.363 . S
C1198 C1204 1.379 1_554 S
C1198 N1206 1.356 . S
C1199 C1198 1.363 . S
C1199 C1205 1.363 . S
C1200 C1201 1.363 . S
C1200 C1205 1.379 1_556 S
C1200 N1207 1.356 . S
C1201 C1200 1.363 . S
C1201 C1204 1.363 . S
N1202 C1204 1.356 . S
N1202 H1214 0.984 . S
N1202 H1215 0.985 . S
N1203 C1205 1.356 . S
N1203 H1208 0.984 . S
N1203 H1209 0.985 . S
C1204 C1198 1.379 1_556 S
C1204 C1201 1.363 . S
C1204 N1202 1.356 . S
C1205 C1199 1.363 . S
C1205 C1200 1.379 1_554 S
C1205 N1203 1.356 . S
N1206 C1198 1.356 . S
N1206 H1212 0.984 . S
N1206 H1213 0.984 . S
N1207 C1200 1.356 . S
N1207 H1210 0.984 . S
N1207 H1211 0.985 . S
H1208 N1203 0.984 . S
H1209 N1203 0.985 . S
H1210 N1207 0.984 . S
H1211 N1207 0.985 . S
H1212 N1206 0.984 . S
H1213 N1206 0.984 . S
H1214 N1202 0.984 . S
H1215 N1202 0.985 . S
C1216 C1217 1.363 1_565 S
C1216 C1222 1.379 . S
C1216 N1224 1.356 . S
C1217 C1216 1.363 1_545 S
C1217 C1223 1.363 . S
C1218 C1219 1.363 . S
C1218 C1223 1.379 . S
C1218 N1225 1.356 . S
C1219 C1218 1.363 . S
C1219 C1222 1.363 1_545 S
N1220 C1222 1.356 . S
N1220 H1232 0.984 . S
N1220 H1233 0.985 . S
N1221 C1223 1.356 . S
N1221 H1226 0.984 . S
N1221 H1227 0.985 . S
C1222 C1216 1.379 . S
C1222 C1219 1.363 1_565 S
C1222 N1220 1.356 . S
C1223 C1217 1.363 . S
C1223 C1218 1.379 . S
C1223 N1221 1.356 . S
N1224 C1216 1.356 . S
N1224 H1230 0.984 . S
N1224 H1231 0.984 . S
N1225 C1218 1.356 . S
N1225 H1228 0.984 . S
N1225 H1229 0.985 . S
H1226 N1221 0.984 . S
H1227 N1221 0.985 . S
H1228 N1225 0.984 . S
H1229 N1225 0.985 . S
H1230 N1224 0.984 . S
H1231 N1224 0.984 . S
H1232 N1220 0.984 . S
H1233 N1220 0.985 . S
C1234 C1235 1.363 . S
C1234 C1240 1.379 . S
C1234 N1242 1.356 . S
C1235 C1234 1.363 . S
C1235 C1241 1.363 . S
C1236 C1237 1.363 . S
C1236 C1241 1.379 . S
C1236 N1243 1.356 . S
C1237 C1236 1.363 . S
C1237 C1240 1.363 . S
N1238 C1240 1.356 . S
N1238 H1250 0.984 . S
N1238 H1251 0.985 . S
N1239 C1241 1.356 . S
N1239 H1244 0.984 . S
N1239 H1245 0.985 . S
C1240 C1234 1.379 . S
C1240 C1237 1.363 . S
C1240 N1238 1.356 . S
C1241 C1235 1.363 . S
C1241 C1236 1.379 . S
C1241 N1239 1.356 . S
N1242 C1234 1.356 . S
N1242 H1248 0.984 . S
N1242 H1249 0.984 . S
N1243 C1236 1.356 . S
N1243 H1246 0.984 . S
N1243 H1247 0.985 . S
H1244 N1239 0.984 . S
H1245 N1239 0.985 . S
H1246 N1243 0.984 . S
H1247 N1243 0.985 . S
H1248 N1242 0.984 . S
H1249 N1242 0.984 . S
H1250 N1238 0.984 . S
H1251 N1238 0.985 . S
C1252 C1253 1.363 . S
C1252 C1258 1.379 . S
C1252 N1260 1.356 . S
C1253 C1252 1.363 . S
C1253 C1259 1.363 . S
C1254 C1255 1.363 . S
C1254 C1259 1.379 . S
C1254 N1261 1.356 . S
C1255 C1254 1.363 . S
C1255 C1258 1.363 . S
N1256 C1258 1.356 . S
N1256 H1268 0.984 . S
N1256 H1269 0.985 . S
N1257 C1259 1.356 . S
N1257 H1262 0.984 . S
N1257 H1263 0.985 . S
C1258 C1252 1.379 . S
C1258 C1255 1.363 . S
C1258 N1256 1.356 . S
C1259 C1253 1.363 . S
C1259 C1254 1.379 . S
C1259 N1257 1.356 . S
N1260 C1252 1.356 . S
N1260 H1266 0.984 . S
N1260 H1267 0.984 . S
N1261 C1254 1.356 . S
N1261 H1264 0.984 . S
N1261 H1265 0.985 . S
H1262 N1257 0.984 . S
H1263 N1257 0.985 . S
H1264 N1261 0.984 . S
H1265 N1261 0.985 . S
H1266 N1260 0.984 . S
H1267 N1260 0.984 . S
H1268 N1256 0.984 . S
H1269 N1256 0.985 . S
C1270 C1271 1.363 . S
C1270 C1276 1.379 . S
C1270 N1278 1.356 . S
C1271 C1270 1.363 . S
C1271 C1277 1.363 1_545 S
C1272 C1273 1.363 1_565 S
C1272 C1277 1.379 . S
C1272 N1279 1.356 . S
C1273 C1272 1.363 1_545 S
C1273 C1276 1.363 . S
N1274 C1276 1.356 . S
N1274 H1286 0.984 . S
N1274 H1287 0.985 . S
N1275 C1277 1.356 . S
N1275 H1280 0.984 . S
N1275 H1281 0.985 . S
C1276 C1270 1.379 . S
C1276 C1273 1.363 . S
C1276 N1274 1.356 . S
C1277 C1271 1.363 1_565 S
C1277 C1272 1.379 . S
C1277 N1275 1.356 . S
N1278 C1270 1.356 . S
N1278 H1284 0.984 . S
N1278 H1285 0.984 . S
N1279 C1272 1.356 . S
N1279 H1282 0.984 . S
N1279 H1283 0.985 . S
H1280 N1275 0.984 . S
H1281 N1275 0.985 . S
H1282 N1279 0.984 . S
H1283 N1279 0.985 . S
H1284 N1278 0.984 . S
H1285 N1278 0.984 . S
H1286 N1274 0.984 . S
H1287 N1274 0.985 . S
C1288 C1289 1.363 1_545 S
C1288 C1294 1.379 . S
C1288 N1296 1.356 . S
C1289 C1288 1.363 1_565 S
C1289 C1295 1.363 . S
C1290 C1291 1.363 . S
C1290 C1295 1.379 . S
C1290 N1297 1.356 . S
C1291 C1290 1.363 . S
C1291 C1294 1.363 1_565 S
N1292 C1294 1.356 . S
N1292 H1304 0.984 . S
N1292 H1305 0.985 . S
N1293 C1295 1.356 . S
N1293 H1298 0.984 . S
N1293 H1299 0.985 . S
C1294 C1288 1.379 . S
C1294 C1291 1.363 1_545 S
C1294 N1292 1.356 . S
C1295 C1289 1.363 . S
C1295 C1290 1.379 . S
C1295 N1293 1.356 . S
N1296 C1288 1.356 . S
N1296 H1302 0.984 . S
N1296 H1303 0.984 . S
N1297 C1290 1.356 . S
N1297 H1300 0.984 . S
N1297 H1301 0.985 . S
H1298 N1293 0.984 . S
H1299 N1293 0.985 . S
H1300 N1297 0.984 . S
H1301 N1297 0.985 . S
H1302 N1296 0.984 . S
H1303 N1296 0.984 . S
H1304 N1292 0.984 . S
H1305 N1292 0.985 . S
C1306 C1307 1.363 . S
C1306 C1312 1.379 . S
C1306 N1314 1.356 . S
C1307 C1306 1.363 . S
C1307 C1313 1.363 . S
C1308 C1309 1.363 . S
C1308 C1313 1.379 . S
C1308 N1315 1.356 . S
C1309 C1308 1.363 . S
C1309 C1312 1.363 . S
N1310 C1312 1.356 . S
N1310 H1322 0.984 . S
N1310 H1323 0.985 . S
N1311 C1313 1.356 . S
N1311 H1316 0.984 . S
N1311 H1317 0.985 . S
C1312 C1306 1.379 . S
C1312 C1309 1.363 . S
C1312 N1310 1.356 . S
C1313 C1307 1.363 . S
C1313 C1308 1.379 . S
C1313 N1311 1.356 . S
N1314 C1306 1.356 . S
N1314 H1320 0.984 . S
N1314 H1321 0.984 . S
N1315 C1308 1.356 . S
N1315 H1318 0.984 . S
N1315 H1319 0.985 . S
H1316 N1311 0.984 . S
H1317 N1311 0.985 . S
H1318 N1315 0.984 . S
H1319 N1315 0.985 . S
H1320 N1314 0.984 . S
H1321 N1314 0.984 . S
H1322 N1310 0.984 . S
H1323 N1310 0.985 . S
C1324 C1325 1.363 . S
C1324 C1330 1.379 . S
C1324 N1332 1.356 . S
C1325 C1324 1.363 . S
C1325 C1331 1.363 . S
C1326 C1327 1.363 . S
C1326 C1331 1.379 . S
C1326 N1333 1.356 . S
C1327 C1326 1.363 . S
C1327 C1330 1.363 . S
N1328 C1330 1.356 . S
N1328 H1340 0.984 . S
N1328 H1341 0.985 . S
N1329 C1331 1.356 . S
N1329 H1334 0.984 . S
N1329 H1335 0.985 . S
C1330 C1324 1.379 . S
C1330 C1327 1.363 . S
C1330 N1328 1.356 . S
C1331 C1325 1.363 . S
C1331 C1326 1.379 . S
C1331 N1329 1.356 . S
N1332 C1324 1.356 . S
N1332 H1338 0.984 . S
N1332 H1339 0.984 . S
N1333 C1326 1.356 . S
N1333 H1336 0.984 . S
N1333 H1337 0.985 . S
H1334 N1329 0.984 . S
H1335 N1329 0.985 . S
H1336 N1333 0.984 . S
H1337 N1333 0.985 . S
H1338 N1332 0.984 . S
H1339 N1332 0.984 . S
H1340 N1328 0.984 . S
H1341 N1328 0.985 . S
C1342 C1343 1.363 1_545 S
C1342 C1348 1.379 . S
C1342 N1350 1.356 . S
C1343 C1342 1.363 1_565 S
C1343 C1349 1.363 . S
C1344 C1345 1.363 . S
C1344 C1349 1.379 . S
C1344 N1351 1.356 . S
C1345 C1344 1.363 . S
C1345 C1348 1.363 1_565 S
N1346 C1348 1.356 . S
N1346 H1358 0.984 . S
N1346 H1359 0.985 . S
N1347 C1349 1.356 . S
N1347 H1352 0.984 . S
N1347 H1353 0.985 . S
C1348 C1342 1.379 . S
C1348 C1345 1.363 1_545 S
C1348 N1346 1.356 . S
C1349 C1343 1.363 . S
C1349 C1344 1.379 . S
C1349 N1347 1.356 . S
N1350 C1342 1.356 . S
N1350 H1356 0.984 . S
N1350 H1357 0.984 . S
N1351 C1344 1.356 . S
N1351 H1354 0.984 . S
N1351 H1355 0.985 . S
H1352 N1347 0.984 . S
H1353 N1347 0.985 . S
H1354 N1351 0.984 . S
H1355 N1351 0.985 . S
H1356 N1350 0.984 . S
H1357 N1350 0.984 . S
H1358 N1346 0.984 . S
H1359 N1346 0.985 . S
C1360 C1361 1.363 . S
C1360 C1366 1.379 . S
C1360 N1368 1.356 . S
C1361 C1360 1.363 . S
C1361 C1367 1.363 . S
C1362 C1363 1.363 . S
C1362 C1367 1.379 . S
C1362 N1369 1.356 . S
C1363 C1362 1.363 . S
C1363 C1366 1.363 . S
N1364 C1366 1.356 . S
N1364 H1376 0.984 . S
N1364 H1377 0.985 . S
N1365 C1367 1.356 . S
N1365 H1370 0.984 . S
N1365 H1371 0.985 . S
C1366 C1360 1.379 . S
C1366 C1363 1.363 . S
C1366 N1364 1.356 . S
C1367 C1361 1.363 . S
C1367 C1362 1.379 . S
C1367 N1365 1.356 . S
N1368 C1360 1.356 . S
N1368 H1374 0.984 . S
N1368 H1375 0.984 . S
N1369 C1362 1.356 . S
N1369 H1372 0.984 . S
N1369 H1373 0.985 . S
H1370 N1365 0.984 . S
H1371 N1365 0.985 . S
H1372 N1369 0.984 . S
H1373 N1369 0.985 . S
H1374 N1368 0.984 . S
H1375 N1368 0.984 . S
H1376 N1364 0.984 . S
H1377 N1364 0.985 . S
C1378 C1379 1.363 . S
C1378 C1384 1.379 . S
C1378 N1386 1.356 . S
C1379 C1378 1.363 . S
C1379 C1385 1.363 . S
C1380 C1381 1.363 . S
C1380 C1385 1.379 . S
C1380 N1387 1.356 . S
C1381 C1380 1.363 . S
C1381 C1384 1.363 . S
N1382 C1384 1.356 . S
N1382 H1394 0.984 . S
N1382 H1395 0.985 . S
N1383 C1385 1.356 . S
N1383 H1388 0.984 . S
N1383 H1389 0.985 . S
C1384 C1378 1.379 . S
C1384 C1381 1.363 . S
C1384 N1382 1.356 . S
C1385 C1379 1.363 . S
C1385 C1380 1.379 . S
C1385 N1383 1.356 . S
N1386 C1378 1.356 . S
N1386 H1392 0.984 . S
N1386 H1393 0.984 . S
N1387 C1380 1.356 . S
N1387 H1390 0.984 . S
N1387 H1391 0.985 . S
H1388 N1383 0.984 . S
H1389 N1383 0.985 . S
H1390 N1387 0.984 . S
H1391 N1387 0.985 . S
H1392 N1386 0.984 . S
H1393 N1386 0.984 . S
H1394 N1382 0.984 . S
H1395 N1382 0.985 . S
C1396 C1397 1.363 . S
C1396 C1402 1.379 . S
C1396 N1404 1.356 . S
C1397 C1396 1.363 . S
C1397 C1403 1.363 . S
C1398 C1399 1.363 . S
C1398 C1403 1.379 . S
C1398 N1405 1.356 . S
C1399 C1398 1.363 . S
C1399 C1402 1.363 . S
N1400 C1402 1.356 . S
N1400 H1412 0.984 . S
N1400 H1413 0.985 . S
N1401 C1403 1.356 . S
N1401 H1406 0.984 . S
N1401 H1407 0.985 . S
C1402 C1396 1.379 . S
C1402 C1399 1.363 . S
C1402 N1400 1.356 . S
C1403 C1397 1.363 . S
C1403 C1398 1.379 . S
C1403 N1401 1.356 . S
N1404 C1396 1.356 . S
N1404 H1410 0.984 . S
N1404 H1411 0.984 . S
N1405 C1398 1.356 . S
N1405 H1408 0.984 . S
N1405 H1409 0.985 . S
H1406 N1401 0.984 . S
H1407 N1401 0.985 . S
H1408 N1405 0.984 . S
H1409 N1405 0.985 . S
H1410 N1404 0.984 . S
H1411 N1404 0.984 . S
H1412 N1400 0.984 . S
H1413 N1400 0.985 . S
C1414 C1415 1.363 . S
C1414 C1420 1.379 . S
C1414 N1422 1.356 . S
C1415 C1414 1.363 . S
C1415 C1421 1.363 . S
C1416 C1417 1.363 . S
C1416 C1421 1.379 . S
C1416 N1423 1.356 . S
C1417 C1416 1.363 . S
C1417 C1420 1.363 . S
N1418 C1420 1.356 . S
N1418 H1430 0.984 . S
N1418 H1431 0.985 . S
N1419 C1421 1.356 . S
N1419 H1424 0.984 . S
N1419 H1425 0.985 . S
C1420 C1414 1.379 . S
C1420 C1417 1.363 . S
C1420 N1418 1.356 . S
C1421 C1415 1.363 . S
C1421 C1416 1.379 . S
C1421 N1419 1.356 . S
N1422 C1414 1.356 . S
N1422 H1428 0.984 . S
N1422 H1429 0.984 . S
N1423 C1416 1.356 . S
N1423 H1426 0.984 . S
N1423 H1427 0.985 . S
H1424 N1419 0.984 . S
H1425 N1419 0.985 . S
H1426 N1423 0.984 . S
H1427 N1423 0.985 . S
H1428 N1422 0.984 . S
H1429 N1422 0.984 . S
H1430 N1418 0.984 . S
H1431 N1418 0.985 . S
C1432 C1433 1.363 . S
C1432 C1438 1.379 . S
C1432 N1440 1.356 . S
C1433 C1432 1.363 . S
C1433 C1439 1.363 . S
C1434 C1435 1.363 . S
C1434 C1439 1.379 . S
C1434 N1441 1.356 . S
C1435 C1434 1.363 . S
C1435 C1438 1.363 . S
N1436 C1438 1.356 . S
N1436 H1448 0.984 . S
N1436 H1449 0.985 . S
N1437 C1439 1.356 . S
N1437 H1442 0.984 . S
N1437 H1443 0.985 . S
C1438 C1432 1.379 . S
C1438 C1435 1.363 . S
C1438 N1436 1.356 . S
C1439 C1433 1.363 . S
C1439 C1434 1.379 . S
C1439 N1437 1.356 . S
N1440 C1432 1.356 . S
N1440 H1446 0.984 . S
N1440 H1447 0.984 . S
N1441 C1434 1.356 . S
N1441 H1444 0.984 . S
N1441 H1445 0.985 . S
H1442 N1437 0.984 . S
H1443 N1437 0.985 . S
H1444 N1441 0.984 . S
H1445 N1441 0.985 . S
H1446 N1440 0.984 . S
H1447 N1440 0.984 . S
H1448 N1436 0.984 . S
H1449 N1436 0.985 . S
C1450 C1451 1.363 . S
C1450 C1456 1.379 . S
C1450 N1458 1.356 . S
C1451 C1450 1.363 . S
C1451 C1457 1.363 . S
C1452 C1453 1.363 . S
C1452 C1457 1.379 . S
C1452 N1459 1.356 . S
C1453 C1452 1.363 . S
C1453 C1456 1.363 . S
N1454 C1456 1.356 . S
N1454 H1466 0.984 . S
N1454 H1467 0.985 . S
N1455 C1457 1.356 . S
N1455 H1460 0.984 . S
N1455 H1461 0.985 . S
C1456 C1450 1.379 . S
C1456 C1453 1.363 . S
C1456 N1454 1.356 . S
C1457 C1451 1.363 . S
C1457 C1452 1.379 . S
C1457 N1455 1.356 . S
N1458 C1450 1.356 . S
N1458 H1464 0.984 . S
N1458 H1465 0.984 . S
N1459 C1452 1.356 . S
N1459 H1462 0.984 . S
N1459 H1463 0.985 . S
H1460 N1455 0.984 . S
H1461 N1455 0.985 . S
H1462 N1459 0.984 . S
H1463 N1459 0.985 . S
H1464 N1458 0.984 . S
H1465 N1458 0.984 . S
H1466 N1454 0.984 . S
H1467 N1454 0.985 . S
C1468 C1469 1.363 . S
C1468 C1474 1.379 . S
C1468 N1476 1.356 . S
C1469 C1468 1.363 . S
C1469 C1475 1.363 . S
C1470 C1471 1.363 . S
C1470 C1475 1.379 . S
C1470 N1477 1.356 . S
C1471 C1470 1.363 . S
C1471 C1474 1.363 . S
N1472 C1474 1.356 . S
N1472 H1484 0.984 . S
N1472 H1485 0.985 . S
N1473 C1475 1.356 . S
N1473 H1478 0.984 . S
N1473 H1479 0.985 . S
C1474 C1468 1.379 . S
C1474 C1471 1.363 . S
C1474 N1472 1.356 . S
C1475 C1469 1.363 . S
C1475 C1470 1.379 . S
C1475 N1473 1.356 . S
N1476 C1468 1.356 . S
N1476 H1482 0.984 . S
N1476 H1483 0.984 . S
N1477 C1470 1.356 . S
N1477 H1480 0.984 . S
N1477 H1481 0.985 . S
H1478 N1473 0.984 . S
H1479 N1473 0.985 . S
H1480 N1477 0.984 . S
H1481 N1477 0.985 . S
H1482 N1476 0.984 . S
H1483 N1476 0.984 . S
H1484 N1472 0.984 . S
H1485 N1472 0.985 . S
C1486 C1487 1.363 . S
C1486 C1492 1.379 . S
C1486 N1494 1.356 . S
C1487 C1486 1.363 . S
C1487 C1493 1.363 . S
C1488 C1489 1.363 . S
C1488 C1493 1.379 . S
C1488 N1495 1.356 . S
C1489 C1488 1.363 . S
C1489 C1492 1.363 . S
N1490 C1492 1.356 . S
N1490 H1502 0.984 . S
N1490 H1503 0.985 . S
N1491 C1493 1.356 . S
N1491 H1496 0.984 . S
N1491 H1497 0.985 . S
C1492 C1486 1.379 . S
C1492 C1489 1.363 . S
C1492 N1490 1.356 . S
C1493 C1487 1.363 . S
C1493 C1488 1.379 . S
C1493 N1491 1.356 . S
N1494 C1486 1.356 . S
N1494 H1500 0.984 . S
N1494 H1501 0.984 . S
N1495 C1488 1.356 . S
N1495 H1498 0.984 . S
N1495 H1499 0.985 . S
H1496 N1491 0.984 . S
H1497 N1491 0.985 . S
H1498 N1495 0.984 . S
H1499 N1495 0.985 . S
H1500 N1494 0.984 . S
H1501 N1494 0.984 . S
H1502 N1490 0.984 . S
H1503 N1490 0.985 . S
C1504 C1505 1.363 . S
C1504 C1510 1.379 . S
C1504 N1512 1.356 . S
C1505 C1504 1.363 . S
C1505 C1511 1.363 . S
C1506 C1507 1.363 . S
C1506 C1511 1.379 . S
C1506 N1513 1.356 . S
C1507 C1506 1.363 . S
C1507 C1510 1.363 . S
N1508 C1510 1.356 . S
N1508 H1520 0.984 . S
N1508 H1521 0.985 . S
N1509 C1511 1.356 . S
N1509 H1514 0.984 . S
N1509 H1515 0.985 . S
C1510 C1504 1.379 . S
C1510 C1507 1.363 . S
C1510 N1508 1.356 . S
C1511 C1505 1.363 . S
C1511 C1506 1.379 . S
C1511 N1509 1.356 . S
N1512 C1504 1.356 . S
N1512 H1518 0.984 . S
N1512 H1519 0.984 . S
N1513 C1506 1.356 . S
N1513 H1516 0.984 . S
N1513 H1517 0.985 . S
H1514 N1509 0.984 . S
H1515 N1509 0.985 . S
H1516 N1513 0.984 . S
H1517 N1513 0.985 . S
H1518 N1512 0.984 . S
H1519 N1512 0.984 . S
H1520 N1508 0.984 . S
H1521 N1508 0.985 . S
C1522 C1523 1.363 . S
C1522 C1528 1.379 . S
C1522 N1530 1.356 . S
C1523 C1522 1.363 . S
C1523 C1529 1.363 . S
C1524 C1525 1.363 . S
C1524 C1529 1.379 . S
C1524 N1531 1.356 . S
C1525 C1524 1.363 . S
C1525 C1528 1.363 . S
N1526 C1528 1.356 . S
N1526 H1538 0.984 . S
N1526 H1539 0.985 . S
N1527 C1529 1.356 . S
N1527 H1532 0.984 . S
N1527 H1533 0.985 1_655 S
C1528 C1522 1.379 . S
C1528 C1525 1.363 . S
C1528 N1526 1.356 . S
C1529 C1523 1.363 . S
C1529 C1524 1.379 . S
C1529 N1527 1.356 . S
N1530 C1522 1.356 . S
N1530 H1536 0.984 . S
N1530 H1537 0.984 . S
N1531 C1524 1.356 . S
N1531 H1534 0.984 . S
N1531 H1535 0.985 1_655 S
H1532 N1527 0.984 . S
H1533 N1527 0.985 1_455 S
H1534 N1531 0.984 . S
H1535 N1531 0.985 1_455 S
H1536 N1530 0.984 . S
H1537 N1530 0.984 . S
H1538 N1526 0.984 . S
H1539 N1526 0.985 . S
C1540 C1541 1.363 . S
C1540 C1546 1.379 . S
C1540 N1548 1.356 . S
C1541 C1540 1.363 . S
C1541 C1547 1.363 . S
C1542 C1543 1.363 . S
C1542 C1547 1.379 . S
C1542 N1549 1.356 . S
C1543 C1542 1.363 . S
C1543 C1546 1.363 . S
N1544 C1546 1.356 . S
N1544 H1556 0.984 . S
N1544 H1557 0.985 . S
N1545 C1547 1.356 . S
N1545 H1550 0.984 . S
N1545 H1551 0.985 . S
C1546 C1540 1.379 . S
C1546 C1543 1.363 . S
C1546 N1544 1.356 . S
C1547 C1541 1.363 . S
C1547 C1542 1.379 . S
C1547 N1545 1.356 . S
N1548 C1540 1.356 . S
N1548 H1554 0.984 . S
N1548 H1555 0.984 . S
N1549 C1542 1.356 . S
N1549 H1552 0.984 . S
N1549 H1553 0.985 . S
H1550 N1545 0.984 . S
H1551 N1545 0.985 . S
H1552 N1549 0.984 . S
H1553 N1549 0.985 . S
H1554 N1548 0.984 . S
H1555 N1548 0.984 . S
H1556 N1544 0.984 . S
H1557 N1544 0.985 . S
C1558 C1559 1.363 . S
C1558 C1564 1.379 . S
C1558 N1566 1.356 . S
C1559 C1558 1.363 . S
C1559 C1565 1.363 . S
C1560 C1561 1.363 . S
C1560 C1565 1.379 . S
C1560 N1567 1.356 . S
C1561 C1560 1.363 . S
C1561 C1564 1.363 . S
N1562 C1564 1.356 . S
N1562 H1574 0.984 . S
N1562 H1575 0.985 . S
N1563 C1565 1.356 . S
N1563 H1568 0.984 . S
N1563 H1569 0.985 . S
C1564 C1558 1.379 . S
C1564 C1561 1.363 . S
C1564 N1562 1.356 . S
C1565 C1559 1.363 . S
C1565 C1560 1.379 . S
C1565 N1563 1.356 . S
N1566 C1558 1.356 . S
N1566 H1572 0.984 . S
N1566 H1573 0.984 . S
N1567 C1560 1.356 . S
N1567 H1570 0.984 . S
N1567 H1571 0.985 . S
H1568 N1563 0.984 . S
H1569 N1563 0.985 . S
H1570 N1567 0.984 . S
H1571 N1567 0.985 . S
H1572 N1566 0.984 . S
H1573 N1566 0.984 . S
H1574 N1562 0.984 . S
H1575 N1562 0.985 . S
C1576 C1577 1.363 . S
C1576 C1582 1.379 . S
C1576 N1584 1.356 . S
C1577 C1576 1.363 . S
C1577 C1583 1.363 . S
C1578 C1579 1.363 . S
C1578 C1583 1.379 . S
C1578 N1585 1.356 . S
C1579 C1578 1.363 . S
C1579 C1582 1.363 . S
N1580 C1582 1.356 . S
N1580 H1592 0.984 . S
N1580 H1593 0.985 . S
N1581 C1583 1.356 . S
N1581 H1586 0.984 . S
N1581 H1587 0.985 . S
C1582 C1576 1.379 . S
C1582 C1579 1.363 . S
C1582 N1580 1.356 . S
C1583 C1577 1.363 . S
C1583 C1578 1.379 . S
C1583 N1581 1.356 . S
N1584 C1576 1.356 . S
N1584 H1590 0.984 . S
N1584 H1591 0.984 . S
N1585 C1578 1.356 . S
N1585 H1588 0.984 . S
N1585 H1589 0.985 . S
H1586 N1581 0.984 . S
H1587 N1581 0.985 . S
H1588 N1585 0.984 . S
H1589 N1585 0.985 . S
H1590 N1584 0.984 . S
H1591 N1584 0.984 . S
H1592 N1580 0.984 . S
H1593 N1580 0.985 . S
C1594 C1595 1.363 . S
C1594 C1600 1.379 . S
C1594 N1602 1.356 . S
C1595 C1594 1.363 . S
C1595 C1601 1.363 . S
C1596 C1597 1.363 . S
C1596 C1601 1.379 . S
C1596 N1603 1.356 . S
C1597 C1596 1.363 . S
C1597 C1600 1.363 . S
N1598 C1600 1.356 . S
N1598 H1610 0.984 . S
N1598 H1611 0.985 . S
N1599 C1601 1.356 . S
N1599 H1604 0.984 . S
N1599 H1605 0.985 . S
C1600 C1594 1.379 . S
C1600 C1597 1.363 . S
C1600 N1598 1.356 . S
C1601 C1595 1.363 . S
C1601 C1596 1.379 . S
C1601 N1599 1.356 . S
N1602 C1594 1.356 . S
N1602 H1608 0.984 . S
N1602 H1609 0.984 . S
N1603 C1596 1.356 . S
N1603 H1606 0.984 . S
N1603 H1607 0.985 . S
H1604 N1599 0.984 . S
H1605 N1599 0.985 . S
H1606 N1603 0.984 . S
H1607 N1603 0.985 . S
H1608 N1602 0.984 . S
H1609 N1602 0.984 . S
H1610 N1598 0.984 . S
H1611 N1598 0.985 . S
C1612 C1613 1.363 . S
C1612 C1618 1.379 . S
C1612 N1620 1.356 . S
C1613 C1612 1.363 . S
C1613 C1619 1.363 . S
C1614 C1615 1.363 . S
C1614 C1619 1.379 . S
C1614 N1621 1.356 . S
C1615 C1614 1.363 . S
C1615 C1618 1.363 . S
N1616 C1618 1.356 . S
N1616 H1628 0.984 . S
N1616 H1629 0.985 . S
N1617 C1619 1.356 . S
N1617 H1622 0.984 . S
N1617 H1623 0.985 . S
C1618 C1612 1.379 . S
C1618 C1615 1.363 . S
C1618 N1616 1.356 . S
C1619 C1613 1.363 . S
C1619 C1614 1.379 . S
C1619 N1617 1.356 . S
N1620 C1612 1.356 . S
N1620 H1626 0.984 . S
N1620 H1627 0.984 . S
N1621 C1614 1.356 . S
N1621 H1624 0.984 . S
N1621 H1625 0.985 . S
H1622 N1617 0.984 . S
H1623 N1617 0.985 . S
H1624 N1621 0.984 . S
H1625 N1621 0.985 . S
H1626 N1620 0.984 . S
H1627 N1620 0.984 . S
H1628 N1616 0.984 . S
H1629 N1616 0.985 . S
C1630 C1631 1.363 . S
C1630 C1636 1.379 . S
C1630 N1638 1.356 . S
C1631 C1630 1.363 . S
C1631 C1637 1.363 . S
C1632 C1633 1.363 . S
C1632 C1637 1.379 . S
C1632 N1639 1.356 . S
C1633 C1632 1.363 . S
C1633 C1636 1.363 . S
N1634 C1636 1.356 . S
N1634 H1646 0.984 . S
N1634 H1647 0.985 . S
N1635 C1637 1.356 . S
N1635 H1640 0.984 . S
N1635 H1641 0.985 . S
C1636 C1630 1.379 . S
C1636 C1633 1.363 . S
C1636 N1634 1.356 . S
C1637 C1631 1.363 . S
C1637 C1632 1.379 . S
C1637 N1635 1.356 . S
N1638 C1630 1.356 . S
N1638 H1644 0.984 . S
N1638 H1645 0.984 . S
N1639 C1632 1.356 . S
N1639 H1642 0.984 . S
N1639 H1643 0.985 . S
H1640 N1635 0.984 . S
H1641 N1635 0.985 . S
H1642 N1639 0.984 . S
H1643 N1639 0.985 . S
H1644 N1638 0.984 . S
H1645 N1638 0.984 . S
H1646 N1634 0.984 . S
H1647 N1634 0.985 . S
C1648 C1649 1.363 . S
C1648 C1654 1.379 . S
C1648 N1656 1.356 . S
C1649 C1648 1.363 . S
C1649 C1655 1.363 . S
C1650 C1651 1.363 . S
C1650 C1655 1.379 . S
C1650 N1657 1.356 . S
C1651 C1650 1.363 . S
C1651 C1654 1.363 . S
N1652 C1654 1.356 . S
N1652 H1664 0.984 . S
N1652 H1665 0.985 . S
N1653 C1655 1.356 . S
N1653 H1658 0.984 . S
N1653 H1659 0.985 . S
C1654 C1648 1.379 . S
C1654 C1651 1.363 . S
C1654 N1652 1.356 . S
C1655 C1649 1.363 . S
C1655 C1650 1.379 . S
C1655 N1653 1.356 . S
N1656 C1648 1.356 . S
N1656 H1662 0.984 . S
N1656 H1663 0.984 . S
N1657 C1650 1.356 . S
N1657 H1660 0.984 . S
N1657 H1661 0.985 . S
H1658 N1653 0.984 . S
H1659 N1653 0.985 . S
H1660 N1657 0.984 . S
H1661 N1657 0.985 . S
H1662 N1656 0.984 . S
H1663 N1656 0.984 . S
H1664 N1652 0.984 . S
H1665 N1652 0.985 . S
C1666 C1667 1.363 . S
C1666 C1672 1.379 . S
C1666 N1674 1.356 . S
C1667 C1666 1.363 . S
C1667 C1673 1.363 . S
C1668 C1669 1.363 . S
C1668 C1673 1.379 . S
C1668 N1675 1.356 . S
C1669 C1668 1.363 . S
C1669 C1672 1.363 . S
N1670 C1672 1.356 . S
N1670 H1682 0.984 . S
N1670 H1683 0.985 . S
N1671 C1673 1.356 . S
N1671 H1676 0.984 . S
N1671 H1677 0.985 . S
C1672 C1666 1.379 . S
C1672 C1669 1.363 . S
C1672 N1670 1.356 . S
C1673 C1667 1.363 . S
C1673 C1668 1.379 . S
C1673 N1671 1.356 . S
N1674 C1666 1.356 . S
N1674 H1680 0.984 . S
N1674 H1681 0.984 . S
N1675 C1668 1.356 . S
N1675 H1678 0.984 . S
N1675 H1679 0.985 . S
H1676 N1671 0.984 . S
H1677 N1671 0.985 . S
H1678 N1675 0.984 . S
H1679 N1675 0.985 . S
H1680 N1674 0.984 . S
H1681 N1674 0.984 . S
H1682 N1670 0.984 . S
H1683 N1670 0.985 . S
C1684 C1685 1.363 . S
C1684 C1690 1.379 . S
C1684 N1692 1.356 . S
C1685 C1684 1.363 . S
C1685 C1691 1.363 . S
C1686 C1687 1.363 . S
C1686 C1691 1.379 . S
C1686 N1693 1.356 . S
C1687 C1686 1.363 . S
C1687 C1690 1.363 . S
N1688 C1690 1.356 . S
N1688 H1700 0.984 . S
N1688 H1701 0.985 . S
N1689 C1691 1.356 . S
N1689 H1694 0.984 . S
N1689 H1695 0.985 . S
C1690 C1684 1.379 . S
C1690 C1687 1.363 . S
C1690 N1688 1.356 . S
C1691 C1685 1.363 . S
C1691 C1686 1.379 . S
C1691 N1689 1.356 . S
N1692 C1684 1.356 . S
N1692 H1698 0.984 . S
N1692 H1699 0.984 . S
N1693 C1686 1.356 . S
N1693 H1696 0.984 . S
N1693 H1697 0.985 . S
H1694 N1689 0.984 . S
H1695 N1689 0.985 . S
H1696 N1693 0.984 . S
H1697 N1693 0.985 . S
H1698 N1692 0.984 . S
H1699 N1692 0.984 . S
H1700 N1688 0.984 . S
H1701 N1688 0.985 . S
C1702 C1703 1.363 . S
C1702 C1708 1.379 . S
C1702 N1710 1.356 . S
C1703 C1702 1.363 . S
C1703 C1709 1.363 . S
C1704 C1705 1.363 . S
C1704 C1709 1.379 . S
C1704 N1711 1.356 . S
C1705 C1704 1.363 . S
C1705 C1708 1.363 . S
N1706 C1708 1.356 . S
N1706 H1718 0.984 . S
N1706 H1719 0.985 . S
N1707 C1709 1.356 . S
N1707 H1712 0.984 . S
N1707 H1713 0.985 . S
C1708 C1702 1.379 . S
C1708 C1705 1.363 . S
C1708 N1706 1.356 . S
C1709 C1703 1.363 . S
C1709 C1704 1.379 . S
C1709 N1707 1.356 . S
N1710 C1702 1.356 . S
N1710 H1716 0.984 . S
N1710 H1717 0.984 . S
N1711 C1704 1.356 . S
N1711 H1714 0.984 . S
N1711 H1715 0.985 . S
H1712 N1707 0.984 . S
H1713 N1707 0.985 . S
H1714 N1711 0.984 . S
H1715 N1711 0.985 . S
H1716 N1710 0.984 . S
H1717 N1710 0.984 . S
H1718 N1706 0.984 . S
H1719 N1706 0.985 . S
C1720 C1721 1.363 . S
C1720 C1726 1.379 . S
C1720 N1728 1.356 . S
C1721 C1720 1.363 . S
C1721 C1727 1.363 . S
C1722 C1723 1.363 . S
C1722 C1727 1.379 . S
C1722 N1729 1.356 . S
C1723 C1722 1.363 . S
C1723 C1726 1.363 . S
N1724 C1726 1.356 . S
N1724 H1736 0.984 . S
N1724 H1737 0.985 . S
N1725 C1727 1.356 . S
N1725 H1730 0.984 . S
N1725 H1731 0.985 . S
C1726 C1720 1.379 . S
C1726 C1723 1.363 . S
C1726 N1724 1.356 . S
C1727 C1721 1.363 . S
C1727 C1722 1.379 . S
C1727 N1725 1.356 . S
N1728 C1720 1.356 . S
N1728 H1734 0.984 . S
N1728 H1735 0.984 . S
N1729 C1722 1.356 . S
N1729 H1732 0.984 . S
N1729 H1733 0.985 . S
H1730 N1725 0.984 . S
H1731 N1725 0.985 . S
H1732 N1729 0.984 . S
H1733 N1729 0.985 . S
H1734 N1728 0.984 . S
H1735 N1728 0.984 . S
H1736 N1724 0.984 . S
H1737 N1724 0.985 . S
C1738 C1739 1.363 . S
C1738 C1744 1.379 . S
C1738 N1746 1.356 . S
C1739 C1738 1.363 . S
C1739 C1745 1.363 . S
C1740 C1741 1.363 . S
C1740 C1745 1.379 . S
C1740 N1747 1.356 . S
C1741 C1740 1.363 . S
C1741 C1744 1.363 . S
N1742 C1744 1.356 . S
N1742 H1754 0.984 . S
N1742 H1755 0.985 . S
N1743 C1745 1.356 . S
N1743 H1748 0.984 . S
N1743 H1749 0.985 . S
C1744 C1738 1.379 . S
C1744 C1741 1.363 . S
C1744 N1742 1.356 . S
C1745 C1739 1.363 . S
C1745 C1740 1.379 . S
C1745 N1743 1.356 . S
N1746 C1738 1.356 . S
N1746 H1752 0.984 . S
N1746 H1753 0.984 . S
N1747 C1740 1.356 . S
N1747 H1750 0.984 . S
N1747 H1751 0.985 . S
H1748 N1743 0.984 . S
H1749 N1743 0.985 . S
H1750 N1747 0.984 . S
H1751 N1747 0.985 . S
H1752 N1746 0.984 . S
H1753 N1746 0.984 . S
H1754 N1742 0.984 . S
H1755 N1742 0.985 . S
C1756 C1757 1.363 . S
C1756 C1762 1.379 . S
C1756 N1764 1.356 . S
C1757 C1756 1.363 . S
C1757 C1763 1.363 . S
C1758 C1759 1.363 . S
C1758 C1763 1.379 . S
C1758 N1765 1.356 . S
C1759 C1758 1.363 . S
C1759 C1762 1.363 . S
N1760 C1762 1.356 . S
N1760 H1772 0.984 . S
N1760 H1773 0.985 . S
N1761 C1763 1.356 . S
N1761 H1766 0.984 . S
N1761 H1767 0.985 . S
C1762 C1756 1.379 . S
C1762 C1759 1.363 . S
C1762 N1760 1.356 . S
C1763 C1757 1.363 . S
C1763 C1758 1.379 . S
C1763 N1761 1.356 . S
N1764 C1756 1.356 . S
N1764 H1770 0.984 . S
N1764 H1771 0.984 . S
N1765 C1758 1.356 . S
N1765 H1768 0.984 . S
N1765 H1769 0.985 . S
H1766 N1761 0.984 . S
H1767 N1761 0.985 . S
H1768 N1765 0.984 . S
H1769 N1765 0.985 . S
H1770 N1764 0.984 . S
H1771 N1764 0.984 . S
H1772 N1760 0.984 . S
H1773 N1760 0.985 . S
C1774 C1775 1.363 . S
C1774 C1780 1.379 . S
C1774 N1782 1.356 . S
C1775 C1774 1.363 . S
C1775 C1781 1.363 . S
C1776 C1777 1.363 . S
C1776 C1781 1.379 . S
C1776 N1783 1.356 . S
C1777 C1776 1.363 . S
C1777 C1780 1.363 . S
N1778 C1780 1.356 . S
N1778 H1790 0.984 . S
N1778 H1791 0.985 . S
N1779 C1781 1.356 . S
N1779 H1784 0.984 . S
N1779 H1785 0.985 . S
C1780 C1774 1.379 . S
C1780 C1777 1.363 . S
C1780 N1778 1.356 . S
C1781 C1775 1.363 . S
C1781 C1776 1.379 . S
C1781 N1779 1.356 . S
N1782 C1774 1.356 . S
N1782 H1788 0.984 . S
N1782 H1789 0.984 . S
N1783 C1776 1.356 . S
N1783 H1786 0.984 . S
N1783 H1787 0.985 . S
H1784 N1779 0.984 . S
H1785 N1779 0.985 . S
H1786 N1783 0.984 . S
H1787 N1783 0.985 . S
H1788 N1782 0.984 . S
H1789 N1782 0.984 . S
H1790 N1778 0.984 . S
H1791 N1778 0.985 . S
C1792 C1793 1.363 1_565 S
C1792 C1798 1.379 . S
C1792 N1800 1.356 . S
C1793 C1792 1.363 1_545 S
C1793 C1799 1.363 . S
C1794 C1795 1.363 1_545 S
C1794 C1799 1.379 . S
C1794 N1801 1.356 . S
C1795 C1794 1.363 1_565 S
C1795 C1798 1.363 . S
N1796 C1798 1.356 . S
N1796 H1808 0.984 . S
N1796 H1809 0.985 . S
N1797 C1799 1.356 1_554 S
N1797 H1802 0.984 . S
N1797 H1803 0.985 . S
C1798 C1792 1.379 . S
C1798 C1795 1.363 . S
C1798 N1796 1.356 . S
C1799 C1793 1.363 . S
C1799 C1794 1.379 . S
C1799 N1797 1.356 1_556 S
N1800 C1792 1.356 . S
N1800 H1806 0.984 . S
N1800 H1807 0.984 . S
N1801 C1794 1.356 . S
N1801 H1804 0.984 . S
N1801 H1805 0.985 . S
H1802 N1797 0.984 . S
H1803 N1797 0.985 . S
H1804 N1801 0.984 . S
H1805 N1801 0.985 . S
H1806 N1800 0.984 . S
H1807 N1800 0.984 . S
H1808 N1796 0.984 . S
H1809 N1796 0.985 . S
C1810 C1811 1.363 . S
C1810 C1816 1.379 . S
C1810 N1818 1.356 . S
C1811 C1810 1.363 . S
C1811 C1817 1.363 . S
C1812 C1813 1.363 . S
C1812 C1817 1.379 . S
C1812 N1819 1.356 1_556 S
C1813 C1812 1.363 . S
C1813 C1816 1.363 . S
N1814 C1816 1.356 1_655 S
N1814 H1826 0.984 . S
N1814 H1827 0.985 . S
N1815 C1817 1.356 . S
N1815 H1820 0.984 . S
N1815 H1821 0.985 . S
C1816 C1810 1.379 . S
C1816 C1813 1.363 . S
C1816 N1814 1.356 1_455 S
C1817 C1811 1.363 . S
C1817 C1812 1.379 . S
C1817 N1815 1.356 . S
N1818 C1810 1.356 . S
N1818 H1824 0.984 . S
N1818 H1825 0.984 . S
N1819 C1812 1.356 1_554 S
N1819 H1822 0.984 . S
N1819 H1823 0.985 . S
H1820 N1815 0.984 . S
H1821 N1815 0.985 . S
H1822 N1819 0.984 . S
H1823 N1819 0.985 . S
H1824 N1818 0.984 . S
H1825 N1818 0.984 . S
H1826 N1814 0.984 . S
H1827 N1814 0.985 . S
C1828 C1829 1.363 . S
C1828 C1834 1.379 . S
C1828 N1836 1.356 . S
C1829 C1828 1.363 . S
C1829 C1835 1.363 . S
C1830 C1831 1.363 . S
C1830 C1835 1.379 . S
C1830 N1837 1.356 . S
C1831 C1830 1.363 . S
C1831 C1834 1.363 . S
N1832 C1834 1.356 . S
N1832 H1844 0.984 . S
N1832 H1845 0.985 . S
N1833 C1835 1.356 . S
N1833 H1838 0.984 . S
N1833 H1839 0.985 . S
C1834 C1828 1.379 . S
C1834 C1831 1.363 . S
C1834 N1832 1.356 . S
C1835 C1829 1.363 . S
C1835 C1830 1.379 . S
C1835 N1833 1.356 . S
N1836 C1828 1.356 . S
N1836 H1842 0.984 . S
N1836 H1843 0.984 . S
N1837 C1830 1.356 . S
N1837 H1840 0.984 . S
N1837 H1841 0.985 . S
H1838 N1833 0.984 . S
H1839 N1833 0.985 . S
H1840 N1837 0.984 . S
H1841 N1837 0.985 . S
H1842 N1836 0.984 . S
H1843 N1836 0.984 . S
H1844 N1832 0.984 . S
H1845 N1832 0.985 . S
C1846 C1847 1.363 . S
C1846 C1852 1.379 . S
C1846 N1854 1.356 . S
C1847 C1846 1.363 . S
C1847 C1853 1.363 1_545 S
C1848 C1849 1.363 . S
C1848 C1853 1.379 . S
C1848 N1855 1.356 . S
C1849 C1848 1.363 . S
C1849 C1852 1.363 1_565 S
N1850 C1852 1.356 . S
N1850 H1862 0.984 . S
N1850 H1863 0.985 . S
N1851 C1853 1.356 1_655 S
N1851 H1856 0.984 . S
N1851 H1857 0.985 . S
C1852 C1846 1.379 . S
C1852 C1849 1.363 1_545 S
C1852 N1850 1.356 . S
C1853 C1847 1.363 1_565 S
C1853 C1848 1.379 . S
C1853 N1851 1.356 1_455 S
N1854 C1846 1.356 . S
N1854 H1860 0.984 . S
N1854 H1861 0.984 . S
N1855 C1848 1.356 . S
N1855 H1858 0.984 . S
N1855 H1859 0.985 . S
H1856 N1851 0.984 . S
H1857 N1851 0.985 . S
H1858 N1855 0.984 . S
H1859 N1855 0.985 . S
H1860 N1854 0.984 . S
H1861 N1854 0.984 . S
H1862 N1850 0.984 . S
H1863 N1850 0.985 . S
C1864 C1865 1.363 1_565 S
C1864 C1870 1.379 . S
C1864 N1872 1.356 . S
C1865 C1864 1.363 1_545 S
C1865 C1871 1.363 . S
C1866 C1867 1.363 1_545 S
C1866 C1871 1.379 . S
C1866 N1873 1.356 . S
C1867 C1866 1.363 1_565 S
C1867 C1870 1.363 . S
N1868 C1870 1.356 1_556 S
N1868 H1880 0.984 . S
N1868 H1881 0.985 . S
N1869 C1871 1.356 . S
N1869 H1874 0.984 . S
N1869 H1875 0.985 . S
C1870 C1864 1.379 . S
C1870 C1867 1.363 . S
C1870 N1868 1.356 1_554 S
C1871 C1865 1.363 . S
C1871 C1866 1.379 . S
C1871 N1869 1.356 . S
N1872 C1864 1.356 . S
N1872 H1878 0.984 . S
N1872 H1879 0.984 . S
N1873 C1866 1.356 . S
N1873 H1876 0.984 . S
N1873 H1877 0.985 . S
H1874 N1869 0.984 . S
H1875 N1869 0.985 . S
H1876 N1873 0.984 . S
H1877 N1873 0.985 . S
H1878 N1872 0.984 . S
H1879 N1872 0.984 . S
H1880 N1868 0.984 . S
H1881 N1868 0.985 . S
C1882 C1883 1.363 . S
C1882 C1888 1.379 . S
C1882 N1890 1.356 1_655 S
C1883 C1882 1.363 . S
C1883 C1889 1.363 . S
C1884 C1885 1.363 . S
C1884 C1889 1.379 . S
C1884 N1891 1.356 . S
C1885 C1884 1.363 . S
C1885 C1888 1.363 . S
N1886 C1888 1.356 . S
N1886 H1898 0.984 . S
N1886 H1899 0.985 . S
N1887 C1889 1.356 1_556 S
N1887 H1892 0.984 . S
N1887 H1893 0.985 . S
C1888 C1882 1.379 . S
C1888 C1885 1.363 . S
C1888 N1886 1.356 . S
C1889 C1883 1.363 . S
C1889 C1884 1.379 . S
C1889 N1887 1.356 1_554 S
N1890 C1882 1.356 1_455 S
N1890 H1896 0.984 . S
N1890 H1897 0.984 . S
N1891 C1884 1.356 . S
N1891 H1894 0.984 . S
N1891 H1895 0.985 . S
H1892 N1887 0.984 . S
H1893 N1887 0.985 . S
H1894 N1891 0.984 . S
H1895 N1891 0.985 . S
H1896 N1890 0.984 . S
H1897 N1890 0.984 . S
H1898 N1886 0.984 . S
H1899 N1886 0.985 . S
C1900 C1901 1.363 . S
C1900 C1906 1.379 . S
C1900 N1908 1.356 . S
C1901 C1900 1.363 . S
C1901 C1907 1.363 . S
C1902 C1903 1.363 . S
C1902 C1907 1.379 . S
C1902 N1909 1.356 . S
C1903 C1902 1.363 . S
C1903 C1906 1.363 . S
N1904 C1906 1.356 . S
N1904 H1916 0.984 . S
N1904 H1917 0.985 . S
N1905 C1907 1.356 . S
N1905 H1910 0.984 . S
N1905 H1911 0.985 . S
C1906 C1900 1.379 . S
C1906 C1903 1.363 . S
C1906 N1904 1.356 . S
C1907 C1901 1.363 . S
C1907 C1902 1.379 . S
C1907 N1905 1.356 . S
N1908 C1900 1.356 . S
N1908 H1914 0.984 . S
N1908 H1915 0.984 . S
N1909 C1902 1.356 . S
N1909 H1912 0.984 . S
N1909 H1913 0.985 . S
H1910 N1905 0.984 . S
H1911 N1905 0.985 . S
H1912 N1909 0.984 . S
H1913 N1909 0.985 . S
H1914 N1908 0.984 . S
H1915 N1908 0.984 . S
H1916 N1904 0.984 . S
H1917 N1904 0.985 . S
C1918 C1919 1.363 1_565 S
C1918 C1924 1.379 . S
C1918 N1926 1.356 . S
C1919 C1918 1.363 1_545 S
C1919 C1925 1.363 . S
C1920 C1921 1.363 1_545 S
C1920 C1925 1.379 . S
C1920 N1927 1.356 1_655 S
C1921 C1920 1.363 1_565 S
C1921 C1924 1.363 . S
N1922 C1924 1.356 . S
N1922 H1934 0.984 . S
N1922 H1935 0.985 . S
N1923 C1925 1.356 . S
N1923 H1928 0.984 . S
N1923 H1929 0.985 . S
C1924 C1918 1.379 . S
C1924 C1921 1.363 . S
C1924 N1922 1.356 . S
C1925 C1919 1.363 . S
C1925 C1920 1.379 . S
C1925 N1923 1.356 . S
N1926 C1918 1.356 . S
N1926 H1932 0.984 . S
N1926 H1933 0.984 . S
N1927 C1920 1.356 1_455 S
N1927 H1930 0.984 . S
N1927 H1931 0.985 . S
H1928 N1923 0.984 . S
H1929 N1923 0.985 . S
H1930 N1927 0.984 . S
H1931 N1927 0.985 . S
H1932 N1926 0.984 . S
H1933 N1926 0.984 . S
H1934 N1922 0.984 . S
H1935 N1922 0.985 . S
C1936 C1937 1.363 . S
C1936 C1942 1.379 . S
C1936 N1944 1.356 . S
C1937 C1936 1.363 . S
C1937 C1943 1.363 . S
C1938 C1939 1.363 . S
C1938 C1943 1.379 . S
C1938 N1945 1.356 . S
C1939 C1938 1.363 . S
C1939 C1942 1.363 . S
N1940 C1942 1.356 . S
N1940 H1952 0.984 . S
N1940 H1953 0.985 . S
N1941 C1943 1.356 . S
N1941 H1946 0.984 . S
N1941 H1947 0.985 . S
C1942 C1936 1.379 . S
C1942 C1939 1.363 . S
C1942 N1940 1.356 . S
C1943 C1937 1.363 . S
C1943 C1938 1.379 . S
C1943 N1941 1.356 . S
N1944 C1936 1.356 . S
N1944 H1950 0.984 . S
N1944 H1951 0.984 . S
N1945 C1938 1.356 . S
N1945 H1948 0.984 . S
N1945 H1949 0.985 . S
H1946 N1941 0.984 . S
H1947 N1941 0.985 . S
H1948 N1945 0.984 . S
H1949 N1945 0.985 . S
H1950 N1944 0.984 . S
H1951 N1944 0.984 . S
H1952 N1940 0.984 . S
H1953 N1940 0.985 . S
C1954 C1955 1.363 . S
C1954 C1960 1.379 . S
C1954 N1962 1.356 . S
C1955 C1954 1.363 . S
C1955 C1961 1.363 . S
C1956 C1957 1.363 . S
C1956 C1961 1.379 . S
C1956 N1963 1.356 1_455 S
C1957 C1956 1.363 . S
C1957 C1960 1.363 . S
N1958 C1960 1.356 . S
N1958 H1970 0.984 . S
N1958 H1971 0.985 . S
N1959 C1961 1.356 . S
N1959 H1964 0.984 . S
N1959 H1965 0.985 . S
C1960 C1954 1.379 . S
C1960 C1957 1.363 . S
C1960 N1958 1.356 . S
C1961 C1955 1.363 . S
C1961 C1956 1.379 . S
C1961 N1959 1.356 . S
N1962 C1954 1.356 . S
N1962 H1968 0.984 . S
N1962 H1969 0.984 . S
N1963 C1956 1.356 1_655 S
N1963 H1966 0.984 . S
N1963 H1967 0.985 . S
H1964 N1959 0.984 . S
H1965 N1959 0.985 . S
H1966 N1963 0.984 . S
H1967 N1963 0.985 . S
H1968 N1962 0.984 . S
H1969 N1962 0.984 . S
H1970 N1958 0.984 . S
H1971 N1958 0.985 . S
C1972 C1973 1.363 . S
C1972 C1978 1.379 . S
C1972 N1980 1.356 . S
C1973 C1972 1.363 . S
C1973 C1979 1.363 . S
C1974 C1975 1.363 . S
C1974 C1979 1.379 . S
C1974 N1981 1.356 . S
C1975 C1974 1.363 . S
C1975 C1978 1.363 . S
N1976 C1978 1.356 . S
N1976 H1988 0.984 . S
N1976 H1989 0.985 . S
N1977 C1979 1.356 . S
N1977 H1982 0.984 . S
N1977 H1983 0.985 . S
C1978 C1972 1.379 . S
C1978 C1975 1.363 . S
C1978 N1976 1.356 . S
C1979 C1973 1.363 . S
C1979 C1974 1.379 . S
C1979 N1977 1.356 . S
N1980 C1972 1.356 . S
N1980 H1986 0.984 . S
N1980 H1987 0.984 . S
N1981 C1974 1.356 . S
N1981 H1984 0.984 . S
N1981 H1985 0.985 . S
H1982 N1977 0.984 . S
H1983 N1977 0.985 . S
H1984 N1981 0.984 . S
H1985 N1981 0.985 . S
H1986 N1980 0.984 . S
H1987 N1980 0.984 . S
H1988 N1976 0.984 . S
H1989 N1976 0.985 . S
C1990 C1991 1.363 . S
C1990 C1996 1.379 . S
C1990 N1998 1.356 . S
C1991 C1990 1.363 . S
C1991 C1997 1.363 . S
C1992 C1993 1.362 1_655 S
C1992 C1997 1.376 1_655 S
C1992 N1999 1.360 . S
C1993 C1992 1.362 1_455 S
C1993 C1996 1.363 . S
N1994 C1996 1.356 . S
N1994 H2006 0.984 . S
N1994 H2007 0.985 . S
N1995 C1997 1.356 . S
N1995 H2000 0.984 . S
N1995 H2001 0.985 . S
C1996 C1990 1.379 . S
C1996 C1993 1.363 . S
C1996 N1994 1.356 . S
C1997 C1991 1.363 . S
C1997 C1992 1.376 1_455 S
C1997 N1995 1.356 . S
N1998 C1990 1.356 . S
N1998 H2004 0.984 . S
N1998 H2005 0.984 . S
N1999 C1992 1.360 . S
N1999 H2002 0.984 . S
N1999 H2003 0.985 . S
H2000 N1995 0.984 . S
H2001 N1995 0.985 . S
H2002 N1999 0.984 . S
H2003 N1999 0.985 . S
H2004 N1998 0.984 . S
H2005 N1998 0.984 . S
H2006 N1994 0.984 . S
H2007 N1994 0.985 . S
C2008 C2009 1.363 . S
C2008 C2014 1.379 . S
C2008 N2016 1.356 . S
C2009 C2008 1.363 . S
C2009 C2015 1.363 . S
C2010 C2011 1.363 . S
C2010 C2015 1.379 . S
C2010 N2017 1.356 . S
C2011 C2010 1.363 . S
C2011 C2014 1.363 . S
N2012 C2014 1.356 . S
N2012 H2024 0.984 . S
N2012 H2025 0.985 . S
N2013 C2015 1.356 . S
N2013 H2018 0.984 . S
N2013 H2019 0.985 . S
C2014 C2008 1.379 . S
C2014 C2011 1.363 . S
C2014 N2012 1.356 . S
C2015 C2009 1.363 . S
C2015 C2010 1.379 . S
C2015 N2013 1.356 . S
N2016 C2008 1.356 . S
N2016 H2022 0.984 . S
N2016 H2023 0.984 . S
N2017 C2010 1.356 . S
N2017 H2020 0.984 . S
N2017 H2021 0.985 . S
H2018 N2013 0.984 . S
H2019 N2013 0.985 . S
H2020 N2017 0.984 . S
H2021 N2017 0.985 . S
H2022 N2016 0.984 . S
H2023 N2016 0.984 . S
H2024 N2012 0.984 . S
H2025 N2012 0.985 . S
C2026 C2027 1.363 . S
C2026 C2032 1.379 . S
C2026 N2034 1.356 . S
C2027 C2026 1.363 . S
C2027 C2033 1.363 . S
C2028 C2029 1.363 . S
C2028 C2033 1.379 . S
C2028 N2035 1.356 . S
C2029 C2028 1.363 . S
C2029 C2032 1.363 . S
N2030 C2032 1.356 . S
N2030 H2042 0.984 . S
N2030 H2043 0.985 . S
N2031 C2033 1.356 1_455 S
N2031 H2036 0.984 . S
N2031 H2037 0.985 . S
C2032 C2026 1.379 . S
C2032 C2029 1.363 . S
C2032 N2030 1.356 . S
C2033 C2027 1.363 . S
C2033 C2028 1.379 . S
C2033 N2031 1.356 1_655 S
N2034 C2026 1.356 . S
N2034 H2040 0.984 . S
N2034 H2041 0.984 . S
N2035 C2028 1.356 . S
N2035 H2038 0.984 . S
N2035 H2039 0.985 . S
H2036 N2031 0.984 . S
H2037 N2031 0.985 . S
H2038 N2035 0.984 . S
H2039 N2035 0.985 . S
H2040 N2034 0.984 . S
H2041 N2034 0.984 . S
H2042 N2030 0.984 . S
H2043 N2030 0.985 . S
C2044 C2045 1.363 . S
C2044 C2050 1.379 . S
C2044 N2052 1.356 . S
C2045 C2044 1.363 . S
C2045 C2051 1.363 . S
C2046 C2047 1.363 . S
C2046 C2051 1.379 . S
C2046 N2053 1.356 . S
C2047 C2046 1.363 . S
C2047 C2050 1.363 . S
N2048 C2050 1.356 . S
N2048 H2060 0.984 . S
N2048 H2061 0.985 . S
N2049 C2051 1.356 . S
N2049 H2054 0.984 . S
N2049 H2055 0.985 . S
C2050 C2044 1.379 . S
C2050 C2047 1.363 . S
C2050 N2048 1.356 . S
C2051 C2045 1.363 . S
C2051 C2046 1.379 . S
C2051 N2049 1.356 . S
N2052 C2044 1.356 . S
N2052 H2058 0.984 . S
N2052 H2059 0.984 . S
N2053 C2046 1.356 . S
N2053 H2056 0.984 . S
N2053 H2057 0.985 . S
H2054 N2049 0.984 . S
H2055 N2049 0.985 . S
H2056 N2053 0.984 . S
H2057 N2053 0.985 . S
H2058 N2052 0.984 . S
H2059 N2052 0.984 . S
H2060 N2048 0.984 . S
H2061 N2048 0.985 . S
C2062 C2063 1.363 . S
C2062 C2068 1.379 . S
C2062 N2070 1.356 . S
C2063 C2062 1.363 . S
C2063 C2069 1.363 . S
C2064 C2065 1.363 . S
C2064 C2069 1.379 . S
C2064 N2071 1.356 . S
C2065 C2064 1.363 . S
C2065 C2068 1.363 . S
N2066 C2068 1.356 1_455 S
N2066 H2078 0.984 . S
N2066 H2079 0.985 . S
N2067 C2069 1.356 . S
N2067 H2072 0.984 . S
N2067 H2073 0.985 . S
C2068 C2062 1.379 . S
C2068 C2065 1.363 . S
C2068 N2066 1.356 1_655 S
C2069 C2063 1.363 . S
C2069 C2064 1.379 . S
C2069 N2067 1.356 . S
N2070 C2062 1.356 . S
N2070 H2076 0.984 . S
N2070 H2077 0.984 . S
N2071 C2064 1.356 . S
N2071 H2074 0.984 . S
N2071 H2075 0.985 . S
H2072 N2067 0.984 . S
H2073 N2067 0.985 . S
H2074 N2071 0.984 . S
H2075 N2071 0.985 . S
H2076 N2070 0.984 . S
H2077 N2070 0.984 . S
H2078 N2066 0.984 . S
H2079 N2066 0.985 . S
C2080 C2081 1.363 1_565 S
C2080 C2086 1.379 . S
C2080 N2088 1.356 . S
C2081 C2080 1.363 1_545 S
C2081 C2087 1.363 . S
C2082 C2083 1.363 1_545 S
C2082 C2087 1.379 . S
C2082 N2089 1.356 . S
C2083 C2082 1.363 1_565 S
C2083 C2086 1.363 . S
N2084 C2086 1.356 . S
N2084 H2096 0.984 . S
N2084 H2097 0.985 . S
N2085 C2087 1.356 . S
N2085 H2090 0.984 . S
N2085 H2091 0.985 . S
C2086 C2080 1.379 . S
C2086 C2083 1.363 . S
C2086 N2084 1.356 . S
C2087 C2081 1.363 . S
C2087 C2082 1.379 . S
C2087 N2085 1.356 . S
N2088 C2080 1.356 . S
N2088 H2094 0.984 . S
N2088 H2095 0.984 . S
N2089 C2082 1.356 . S
N2089 H2092 0.984 . S
N2089 H2093 0.985 . S
H2090 N2085 0.984 . S
H2091 N2085 0.985 . S
H2092 N2089 0.984 . S
H2093 N2089 0.985 . S
H2094 N2088 0.984 . S
H2095 N2088 0.984 . S
H2096 N2084 0.984 . S
H2097 N2084 0.985 . S
C2098 C2099 1.363 . S
C2098 C2104 1.379 . S
C2098 N2106 1.356 . S
C2099 C2098 1.363 . S
C2099 C2105 1.363 . S
C2100 C2101 1.363 . S
C2100 C2105 1.379 . S
C2100 N2107 1.356 . S
C2101 C2100 1.363 . S
C2101 C2104 1.363 . S
N2102 C2104 1.356 . S
N2102 H2114 0.984 . S
N2102 H2115 0.985 . S
N2103 C2105 1.356 . S
N2103 H2108 0.984 . S
N2103 H2109 0.985 . S
C2104 C2098 1.379 . S
C2104 C2101 1.363 . S
C2104 N2102 1.356 . S
C2105 C2099 1.363 . S
C2105 C2100 1.379 . S
C2105 N2103 1.356 . S
N2106 C2098 1.356 . S
N2106 H2112 0.984 . S
N2106 H2113 0.984 . S
N2107 C2100 1.356 . S
N2107 H2110 0.984 . S
N2107 H2111 0.985 . S
H2108 N2103 0.984 . S
H2109 N2103 0.985 . S
H2110 N2107 0.984 . S
H2111 N2107 0.985 . S
H2112 N2106 0.984 . S
H2113 N2106 0.984 . S
H2114 N2102 0.984 . S
H2115 N2102 0.985 . S
C2116 C2117 1.363 . S
C2116 C2122 1.379 . S
C2116 N2124 1.356 . S
C2117 C2116 1.363 . S
C2117 C2123 1.363 . S
C2118 C2119 1.363 . S
C2118 C2123 1.379 . S
C2118 N2125 1.356 . S
C2119 C2118 1.363 . S
C2119 C2122 1.363 . S
N2120 C2122 1.356 . S
N2120 H2132 0.984 . S
N2120 H2133 0.985 . S
N2121 C2123 1.356 . S
N2121 H2126 0.984 . S
N2121 H2127 0.985 . S
C2122 C2116 1.379 . S
C2122 C2119 1.363 . S
C2122 N2120 1.356 . S
C2123 C2117 1.363 . S
C2123 C2118 1.379 . S
C2123 N2121 1.356 . S
N2124 C2116 1.356 . S
N2124 H2130 0.984 . S
N2124 H2131 0.984 . S
N2125 C2118 1.356 . S
N2125 H2128 0.984 . S
N2125 H2129 0.985 . S
H2126 N2121 0.984 . S
H2127 N2121 0.985 . S
H2128 N2125 0.984 . S
H2129 N2125 0.985 . S
H2130 N2124 0.984 . S
H2131 N2124 0.984 . S
H2132 N2120 0.984 . S
H2133 N2120 0.985 . S
C2134 C2135 1.363 1_565 S
C2134 C2140 1.379 . S
C2134 N2142 1.356 . S
C2135 C2134 1.363 1_545 S
C2135 C2141 1.363 . S
C2136 C2137 1.363 1_545 S
C2136 C2141 1.379 . S
C2136 N2143 1.356 . S
C2137 C2136 1.363 1_565 S
C2137 C2140 1.363 . S
N2138 C2140 1.356 . S
N2138 H2150 0.984 . S
N2138 H2151 0.985 . S
N2139 C2141 1.356 . S
N2139 H2144 0.984 . S
N2139 H2145 0.985 . S
C2140 C2134 1.379 . S
C2140 C2137 1.363 . S
C2140 N2138 1.356 . S
C2141 C2135 1.363 . S
C2141 C2136 1.379 . S
C2141 N2139 1.356 . S
N2142 C2134 1.356 . S
N2142 H2148 0.984 . S
N2142 H2149 0.984 . S
N2143 C2136 1.356 . S
N2143 H2146 0.984 . S
N2143 H2147 0.985 . S
H2144 N2139 0.984 . S
H2145 N2139 0.985 . S
H2146 N2143 0.984 . S
H2147 N2143 0.985 . S
H2148 N2142 0.984 . S
H2149 N2142 0.984 . S
H2150 N2138 0.984 . S
H2151 N2138 0.985 . S
C2152 C2153 1.363 1_545 S
C2152 C2158 1.379 . S
C2152 N2160 1.356 . S
C2153 C2152 1.363 1_565 S
C2153 C2159 1.363 . S
C2154 C2155 1.363 1_565 S
C2154 C2159 1.379 . S
C2154 N2161 1.356 . S
C2155 C2154 1.363 1_545 S
C2155 C2158 1.363 . S
N2156 C2158 1.356 . S
N2156 H2168 0.984 . S
N2156 H2169 0.985 . S
N2157 C2159 1.356 . S
N2157 H2162 0.984 . S
N2157 H2163 0.985 . S
C2158 C2152 1.379 . S
C2158 C2155 1.363 . S
C2158 N2156 1.356 . S
C2159 C2153 1.363 . S
C2159 C2154 1.379 . S
C2159 N2157 1.356 . S
N2160 C2152 1.356 . S
N2160 H2166 0.984 . S
N2160 H2167 0.984 . S
N2161 C2154 1.356 . S
N2161 H2164 0.984 . S
N2161 H2165 0.985 . S
H2162 N2157 0.984 . S
H2163 N2157 0.985 . S
H2164 N2161 0.984 . S
H2165 N2161 0.985 . S
H2166 N2160 0.984 . S
H2167 N2160 0.984 . S
H2168 N2156 0.984 . S
H2169 N2156 0.985 . S
C2170 C2171 1.363 . S
C2170 C2176 1.379 . S
C2170 N2178 1.356 . S
C2171 C2170 1.363 . S
C2171 C2177 1.363 . S
C2172 C2173 1.363 . S
C2172 C2177 1.379 . S
C2172 N2179 1.356 . S
C2173 C2172 1.363 . S
C2173 C2176 1.363 . S
N2174 C2176 1.356 . S
N2174 H2186 0.984 . S
N2174 H2187 0.985 . S
N2175 C2177 1.356 . S
N2175 H2180 0.984 . S
N2175 H2181 0.985 . S
C2176 C2170 1.379 . S
C2176 C2173 1.363 . S
C2176 N2174 1.356 . S
C2177 C2171 1.363 . S
C2177 C2172 1.379 . S
C2177 N2175 1.356 . S
N2178 C2170 1.356 . S
N2178 H2184 0.984 . S
N2178 H2185 0.984 . S
N2179 C2172 1.356 . S
N2179 H2182 0.984 . S
N2179 H2183 0.985 . S
H2180 N2175 0.984 . S
H2181 N2175 0.985 . S
H2182 N2179 0.984 . S
H2183 N2179 0.985 . S
H2184 N2178 0.984 . S
H2185 N2178 0.984 . S
H2186 N2174 0.984 . S
H2187 N2174 0.985 . S
C2188 C2189 1.363 . S
C2188 C2194 1.379 . S
C2188 N2196 1.356 . S
C2189 C2188 1.363 . S
C2189 C2195 1.363 . S
C2190 C2191 1.363 . S
C2190 C2195 1.379 . S
C2190 N2197 1.356 . S
C2191 C2190 1.363 . S
C2191 C2194 1.363 . S
N2192 C2194 1.356 . S
N2192 H2204 0.984 . S
N2192 H2205 0.985 . S
N2193 C2195 1.356 . S
N2193 H2198 0.984 . S
N2193 H2199 0.985 . S
C2194 C2188 1.379 . S
C2194 C2191 1.363 . S
C2194 N2192 1.356 . S
C2195 C2189 1.363 . S
C2195 C2190 1.379 . S
C2195 N2193 1.356 . S
N2196 C2188 1.356 . S
N2196 H2202 0.984 . S
N2196 H2203 0.984 . S
N2197 C2190 1.356 . S
N2197 H2200 0.984 . S
N2197 H2201 0.985 . S
H2198 N2193 0.984 . S
H2199 N2193 0.985 . S
H2200 N2197 0.984 . S
H2201 N2197 0.985 . S
H2202 N2196 0.984 . S
H2203 N2196 0.984 . S
H2204 N2192 0.984 . S
H2205 N2192 0.985 . S
C2206 C2207 1.363 . S
C2206 C2212 1.379 . S
C2206 N2214 1.356 . S
C2207 C2206 1.363 . S
C2207 C2213 1.363 1_565 S
C2208 C2209 1.363 . S
C2208 C2213 1.379 . S
C2208 N2215 1.356 . S
C2209 C2208 1.363 . S
C2209 C2212 1.363 1_545 S
N2210 C2212 1.356 . S
N2210 H2222 0.984 . S
N2210 H2223 0.985 . S
N2211 C2213 1.356 . S
N2211 H2216 0.984 . S
N2211 H2217 0.985 . S
C2212 C2206 1.379 . S
C2212 C2209 1.363 1_565 S
C2212 N2210 1.356 . S
C2213 C2207 1.363 1_545 S
C2213 C2208 1.379 . S
C2213 N2211 1.356 . S
N2214 C2206 1.356 . S
N2214 H2220 0.984 . S
N2214 H2221 0.984 . S
N2215 C2208 1.356 . S
N2215 H2218 0.984 . S
N2215 H2219 0.985 . S
H2216 N2211 0.984 . S
H2217 N2211 0.985 . S
H2218 N2215 0.984 . S
H2219 N2215 0.985 . S
H2220 N2214 0.984 . S
H2221 N2214 0.984 . S
H2222 N2210 0.984 . S
H2223 N2210 0.985 . S
C2224 C2225 1.363 . S
C2224 C2230 1.379 . S
C2224 N2232 1.356 . S
C2225 C2224 1.363 . S
C2225 C2231 1.363 . S
C2226 C2227 1.363 . S
C2226 C2231 1.379 . S
C2226 N2233 1.356 1_556 S
C2227 C2226 1.363 . S
C2227 C2230 1.363 . S
N2228 C2230 1.356 . S
N2228 H2240 0.984 . S
N2228 H2241 0.985 1_556 S
N2229 C2231 1.356 . S
N2229 H2234 0.984 . S
N2229 H2235 0.985 . S
C2230 C2224 1.379 . S
C2230 C2227 1.363 . S
C2230 N2228 1.356 . S
C2231 C2225 1.363 . S
C2231 C2226 1.379 . S
C2231 N2229 1.356 . S
N2232 C2224 1.356 . S
N2232 H2238 0.984 . S
N2232 H2239 0.984 . S
N2233 C2226 1.356 1_554 S
N2233 H2236 0.984 . S
N2233 H2237 0.985 . S
H2234 N2229 0.984 . S
H2235 N2229 0.985 . S
H2236 N2233 0.984 . S
H2237 N2233 0.985 . S
H2238 N2232 0.984 . S
H2239 N2232 0.984 . S
H2240 N2228 0.984 . S
H2241 N2228 0.985 1_554 S
C2242 C2243 1.363 . S
C2242 C2248 1.379 . S
C2242 N2250 1.356 . S
C2243 C2242 1.363 . S
C2243 C2249 1.363 . S
C2244 C2245 1.363 . S
C2244 C2249 1.379 . S
C2244 N2251 1.356 1_556 S
C2245 C2244 1.363 . S
C2245 C2248 1.363 . S
N2246 C2248 1.356 . S
N2246 H2258 0.984 . S
N2246 H2259 0.985 . S
N2247 C2249 1.356 . S
N2247 H2252 0.984 . S
N2247 H2253 0.985 . S
C2248 C2242 1.379 . S
C2248 C2245 1.363 . S
C2248 N2246 1.356 . S
C2249 C2243 1.363 . S
C2249 C2244 1.379 . S
C2249 N2247 1.356 . S
N2250 C2242 1.356 . S
N2250 H2256 0.984 . S
N2250 H2257 0.984 . S
N2251 C2244 1.356 1_554 S
N2251 H2254 0.984 . S
N2251 H2255 0.985 . S
H2252 N2247 0.984 . S
H2253 N2247 0.985 . S
H2254 N2251 0.984 . S
H2255 N2251 0.985 . S
H2256 N2250 0.984 . S
H2257 N2250 0.984 . S
H2258 N2246 0.984 . S
H2259 N2246 0.985 . S
C2260 C2261 1.363 . S
C2260 C2266 1.379 . S
C2260 N2268 1.356 . S
C2261 C2260 1.363 . S
C2261 C2267 1.363 . S
C2262 C2263 1.363 . S
C2262 C2267 1.379 . S
C2262 N2269 1.356 . S
C2263 C2262 1.363 . S
C2263 C2266 1.363 . S
N2264 C2266 1.356 . S
N2264 H2276 0.984 . S
N2264 H2277 0.985 . S
N2265 C2267 1.356 . S
N2265 H2270 0.984 . S
N2265 H2271 0.985 . S
C2266 C2260 1.379 . S
C2266 C2263 1.363 . S
C2266 N2264 1.356 . S
C2267 C2261 1.363 . S
C2267 C2262 1.379 . S
C2267 N2265 1.356 . S
N2268 C2260 1.356 . S
N2268 H2274 0.984 . S
N2268 H2275 0.984 . S
N2269 C2262 1.356 . S
N2269 H2272 0.984 . S
N2269 H2273 0.985 . S
H2270 N2265 0.984 . S
H2271 N2265 0.985 . S
H2272 N2269 0.984 . S
H2273 N2269 0.985 . S
H2274 N2268 0.984 . S
H2275 N2268 0.984 . S
H2276 N2264 0.984 . S
H2277 N2264 0.985 . S
C2278 C2279 1.363 . S
C2278 C2284 1.379 . S
C2278 N2286 1.356 . S
C2279 C2278 1.363 . S
C2279 C2285 1.363 . S
C2280 C2281 1.363 . S
C2280 C2285 1.379 . S
C2280 N2287 1.356 . S
C2281 C2280 1.363 . S
C2281 C2284 1.363 . S
N2282 C2284 1.356 . S
N2282 H2294 0.984 . S
N2282 H2295 0.985 . S
N2283 C2285 1.356 . S
N2283 H2288 0.984 . S
N2283 H2289 0.985 . S
C2284 C2278 1.379 . S
C2284 C2281 1.363 . S
C2284 N2282 1.356 . S
C2285 C2279 1.363 . S
C2285 C2280 1.379 . S
C2285 N2283 1.356 . S
N2286 C2278 1.356 . S
N2286 H2292 0.984 . S
N2286 H2293 0.984 . S
N2287 C2280 1.356 . S
N2287 H2290 0.984 . S
N2287 H2291 0.985 . S
H2288 N2283 0.984 . S
H2289 N2283 0.985 . S
H2290 N2287 0.984 . S
H2291 N2287 0.985 . S
H2292 N2286 0.984 . S
H2293 N2286 0.984 . S
H2294 N2282 0.984 . S
H2295 N2282 0.985 . S
C2296 C2297 1.363 . S
C2296 C2302 1.379 . S
C2296 N2304 1.356 . S
C2297 C2296 1.363 . S
C2297 C2303 1.363 . S
C2298 C2299 1.363 . S
C2298 C2303 1.379 . S
C2298 N2305 1.356 . S
C2299 C2298 1.363 . S
C2299 C2302 1.363 . S
N2300 C2302 1.356 1_556 S
N2300 H2312 0.984 . S
N2300 H2313 0.985 . S
N2301 C2303 1.356 . S
N2301 H2306 0.984 . S
N2301 H2307 0.985 . S
C2302 C2296 1.379 . S
C2302 C2299 1.363 . S
C2302 N2300 1.356 1_554 S
C2303 C2297 1.363 . S
C2303 C2298 1.379 . S
C2303 N2301 1.356 . S
N2304 C2296 1.356 . S
N2304 H2310 0.984 . S
N2304 H2311 0.984 . S
N2305 C2298 1.356 . S
N2305 H2308 0.984 . S
N2305 H2309 0.985 . S
H2306 N2301 0.984 . S
H2307 N2301 0.985 . S
H2308 N2305 0.984 . S
H2309 N2305 0.985 . S
H2310 N2304 0.984 . S
H2311 N2304 0.984 . S
H2312 N2300 0.984 . S
H2313 N2300 0.985 . S
C2314 C2315 1.363 . S
C2314 C2320 1.379 . S
C2314 N2322 1.356 . S
C2315 C2314 1.363 . S
C2315 C2321 1.363 . S
C2316 C2317 1.363 . S
C2316 C2321 1.379 . S
C2316 N2323 1.356 1_554 S
C2317 C2316 1.363 . S
C2317 C2320 1.363 . S
N2318 C2320 1.356 . S
N2318 H2330 0.984 . S
N2318 H2331 0.985 . S
N2319 C2321 1.356 . S
N2319 H2324 0.984 . S
N2319 H2325 0.985 . S
C2320 C2314 1.379 . S
C2320 C2317 1.363 . S
C2320 N2318 1.356 . S
C2321 C2315 1.363 . S
C2321 C2316 1.379 . S
C2321 N2319 1.356 . S
N2322 C2314 1.356 . S
N2322 H2328 0.984 . S
N2322 H2329 0.984 . S
N2323 C2316 1.356 1_556 S
N2323 H2326 0.984 . S
N2323 H2327 0.985 . S
H2324 N2319 0.984 . S
H2325 N2319 0.985 . S
H2326 N2323 0.984 . S
H2327 N2323 0.985 . S
H2328 N2322 0.984 . S
H2329 N2322 0.984 . S
H2330 N2318 0.984 . S
H2331 N2318 0.985 . S
C2332 C2333 1.363 . S
C2332 C2338 1.379 . S
C2332 N2340 1.356 . S
C2333 C2332 1.363 . S
C2333 C2339 1.363 . S
C2334 C2335 1.363 . S
C2334 C2339 1.379 . S
C2334 N2341 1.356 . S
C2335 C2334 1.363 . S
C2335 C2338 1.363 . S
N2336 C2338 1.356 . S
N2336 H2348 0.984 . S
N2336 H2349 0.985 . S
N2337 C2339 1.356 . S
N2337 H2342 0.984 . S
N2337 H2343 0.985 . S
C2338 C2332 1.379 . S
C2338 C2335 1.363 . S
C2338 N2336 1.356 . S
C2339 C2333 1.363 . S
C2339 C2334 1.379 . S
C2339 N2337 1.356 . S
N2340 C2332 1.356 . S
N2340 H2346 0.984 . S
N2340 H2347 0.984 . S
N2341 C2334 1.356 . S
N2341 H2344 0.984 . S
N2341 H2345 0.985 . S
H2342 N2337 0.984 . S
H2343 N2337 0.985 . S
H2344 N2341 0.984 . S
H2345 N2341 0.985 . S
H2346 N2340 0.984 . S
H2347 N2340 0.984 . S
H2348 N2336 0.984 . S
H2349 N2336 0.985 . S
C2350 C2351 1.363 . S
C2350 C2356 1.379 . S
C2350 N2358 1.356 . S
C2351 C2350 1.363 . S
C2351 C2357 1.363 . S
C2352 C2353 1.363 . S
C2352 C2357 1.379 . S
C2352 N2359 1.356 . S
C2353 C2352 1.363 . S
C2353 C2356 1.363 . S
N2354 C2356 1.356 . S
N2354 H2366 0.984 . S
N2354 H2367 0.985 . S
N2355 C2357 1.356 . S
N2355 H2360 0.984 . S
N2355 H2361 0.985 . S
C2356 C2350 1.379 . S
C2356 C2353 1.363 . S
C2356 N2354 1.356 . S
C2357 C2351 1.363 . S
C2357 C2352 1.379 . S
C2357 N2355 1.356 . S
N2358 C2350 1.356 . S
N2358 H2364 0.984 . S
N2358 H2365 0.984 . S
N2359 C2352 1.356 . S
N2359 H2362 0.984 . S
N2359 H2363 0.985 . S
H2360 N2355 0.984 . S
H2361 N2355 0.985 . S
H2362 N2359 0.984 . S
H2363 N2359 0.985 . S
H2364 N2358 0.984 . S
H2365 N2358 0.984 . S
H2366 N2354 0.984 . S
H2367 N2354 0.985 . S
C641 C509 1.665 . S
C643 C9 1.665 . S
C659 C489 1.665 . S
C661 C29 1.665 . S
C677 C549 1.665 . S
C679 C49 1.665 . S
C695 C529 1.665 . S
C697 C69 1.665 . S
C713 C88 1.665 . S
C715 C588 1.665 . S
C731 C108 1.665 . S
C733 C568 1.665 . S
C749 C128 1.665 . S
C751 C628 1.665 . S
C767 C608 1.665 . S
C769 C148 1.665 . S
C785 C349 1.665 . S
C787 C169 1.665 . S
C803 C329 1.665 . S
C805 C189 1.665 . S
C821 C389 1.665 . S
C823 C209 1.665 . S
C839 C369 1.665 . S
C841 C229 1.665 . S
C857 C248 1.665 . S
C859 C428 1.665 . S
C875 C408 1.665 . S
C877 C268 1.665 . S
C893 C288 1.665 . S
C895 C468 1.665 . S
C911 C448 1.665 . S
C913 C308 1.665 . S
C929 C1 0.913 . S
C931 C402 0.913 . S
C947 C262 0.913 . S
C949 C21 0.913 . S
C965 C602 0.913 . S
C967 C41 0.913 . S
C983 C61 0.913 . S
C985 C142 0.913 . S
C1001 C82 0.913 . S
C1003 C321 0.913 . S
C1019 C102 0.913 . S
C1021 C181 0.913 . S
C1037 C122 0.913 . S
C1039 C521 0.913 . S
C1055 C562 0.913 . S
C1057 C161 0.913 . S
C1073 C442 0.913 . S
C1075 C201 0.913 . S
C1091 C302 0.913 . S
C1093 C221 0.913 . S
C1109 C481 0.913 . S
C1111 C242 0.913 . S
C1127 C282 0.913 . S
C1129 C361 0.913 . S
C1145 C582 0.913 . S
C1147 C341 0.913 . S
C1163 C381 0.913 . S
C1165 C462 0.913 . S
C1181 C501 0.913 . S
C1183 C422 0.913 . S
C1199 C541 0.913 . S
C1201 C622 0.913 . S
C1217 C2 1.591 . S
C1219 C382 1.591 . S
C1235 C22 1.591 . S
C1237 C362 1.591 . S
C1253 C42 1.591 . S
C1255 C342 1.591 . S
C1271 C62 1.591 . S
C1273 C322 1.591 . S
C1289 C81 1.591 . S
C1291 C461 1.591 . S
C1307 C101 1.591 . S
C1309 C441 1.591 . S
C1325 C121 1.591 . S
C1327 C421 1.591 . S
C1343 C141 1.591 . S
C1345 C401 1.591 . S
C1361 C162 1.591 . S
C1363 C542 1.591 . S
C1379 C182 1.591 . S
C1381 C522 1.591 . S
C1397 C202 1.591 . S
C1399 C502 1.591 . S
C1415 C222 1.591 . S
C1417 C482 1.591 . S
C1433 C621 1.591 . S
C1435 C241 1.591 . S
C1451 C601 1.591 . S
C1453 C261 1.591 . S
C1469 C581 1.591 . S
C1471 C281 1.591 . S
C1487 C561 1.591 . S
C1489 C301 1.591 . S
C1505 C48 1.643 . S
C1507 C8 1.643 . S
C1523 C68 1.643 . S
C1525 C28 1.643 . S
C1541 C129 1.643 . S
C1543 C89 1.643 . S
C1559 C109 1.643 . S
C1561 C149 1.643 . S
C1577 C208 1.643 . S
C1579 C168 1.643 . S
C1595 C188 1.643 . S
C1597 C228 1.643 . S
C1613 C289 1.643 . S
C1615 C249 1.643 . S
C1631 C269 1.643 . S
C1633 C309 1.643 . S
C1649 C328 1.643 . S
C1651 C368 1.643 . S
C1667 C348 1.643 . S
C1669 C388 1.643 . S
C1685 C449 1.643 . S
C1687 C409 1.643 . S
C1703 C429 1.643 . S
C1705 C469 1.643 . S
C1721 C488 1.643 . S
C1723 C528 1.643 . S
C1739 C548 1.643 . S
C1741 C508 1.643 . S
C1757 C569 1.643 . S
C1759 C609 1.643 . S
C1775 C589 1.643 . S
C1777 C629 1.643 . S
C1793 C18 1.659 1_556 S
C1795 C158 1.647 . S
C1811 C618 1.647 . S
C1813 C38 1.659 1_456 S
C1829 C58 1.659 . S
C1831 C278 1.647 . S
C1847 C78 1.659 1_455 S
C1849 C418 1.647 . S
C1865 C79 1.647 . S
C1867 C99 1.659 1_554 S
C1883 C119 1.659 1_654 S
C1885 C539 1.647 . S
C1901 C199 1.647 . S
C1903 C139 1.659 . S
C1919 C339 1.647 . S
C1921 C159 1.659 1_655 S
C1937 C178 1.659 . S
C1939 C318 1.647 . S
C1955 C458 1.647 . S
C1957 C198 1.659 1_455 S
C1973 C218 1.659 . S
C1975 C118 1.647 . S
C1991 C578 1.647 . S
C1993 C238 1.659 1_455 S
C2009 C259 1.659 . S
C2011 C239 1.647 . S
C2027 C279 1.659 1_655 S
C2029 C379 1.647 . S
C2045 C299 1.659 . S
C2047 C39 1.647 . S
C2063 C499 1.647 . S
C2065 C319 1.659 1_655 S
C2081 C338 1.659 . S
C2083 C478 1.647 . S
C2099 C358 1.659 . S
C2101 C298 1.647 . S
C2117 C378 1.659 . S
C2119 C598 1.647 . S
C2135 C398 1.659 . S
C2137 C98 1.647 . S
C2153 C419 1.659 . S
C2155 C399 1.647 . S
C2171 C219 1.647 . S
C2173 C439 1.659 . S
C2189 C519 1.647 . S
C2191 C459 1.659 . S
C2207 C479 1.659 . S
C2209 C19 1.647 . S
C2225 C638 1.647 . S
C2227 C498 1.659 1_556 S
C2243 C138 1.647 . S
C2245 C518 1.659 1_556 S
C2261 C438 1.647 . S
C2263 C538 1.659 . S
C2279 C558 1.659 . S
C2281 C258 1.647 . S
C2297 C559 1.647 . S
C2299 C579 1.659 1_554 S
C2315 C59 1.647 . S
C2317 C599 1.659 1_554 S
C2333 C359 1.647 . S
C2335 C619 1.659 . S
C2351 C639 1.659 . S
C2353 C179 1.647 . S
