# Generated by pormake.
# Topology umm, (4)-cn, num edge types: 1
# Building blocks:
#     Node 0, Type 0, BuildingBlock: ICAMEG_clean_sbu_1, # of connection points: 4
#     Node 1, Type 0, BuildingBlock: ICAMEG_clean_sbu_1, # of connection points: 4
#     Node 2, Type 0, BuildingBlock: ICAMEG_clean_sbu_1, # of connection points: 4
#     Node 3, Type 0, BuildingBlock: ICAMEG_clean_sbu_1, # of connection points: 4
#     Node 4, Type 0, BuildingBlock: ICAMEG_clean_sbu_1, # of connection points: 4
#     Node 5, Type 0, BuildingBlock: ICAMEG_clean_sbu_1, # of connection points: 4
#     Node 6, Type 0, BuildingBlock: ICAMEG_clean_sbu_1, # of connection points: 4
#     Node 7, Type 0, BuildingBlock: ICAMEG_clean_sbu_1, # of connection points: 4
#     Node 8, Type 0, BuildingBlock: ICAMEG_clean_sbu_1, # of connection points: 4
#     Node 9, Type 0, BuildingBlock: ICAMEG_clean_sbu_1, # of connection points: 4
#     Node 10, Type 0, BuildingBlock: ICAMEG_clean_sbu_1, # of connection points: 4
#     Node 11, Type 0, BuildingBlock: ICAMEG_clean_sbu_1, # of connection points: 4
#     Edge 12, Type (0, 0), None
#     Edge 13, Type (0, 0), None
#     Edge 14, Type (0, 0), None
#     Edge 15, Type (0, 0), None
#     Edge 16, Type (0, 0), None
#     Edge 17, Type (0, 0), None
#     Edge 18, Type (0, 0), None
#     Edge 19, Type (0, 0), None
#     Edge 20, Type (0, 0), None
#     Edge 21, Type (0, 0), None
#     Edge 22, Type (0, 0), None
#     Edge 23, Type (0, 0), None
#     Edge 24, Type (0, 0), None
#     Edge 25, Type (0, 0), None
#     Edge 26, Type (0, 0), None
#     Edge 27, Type (0, 0), None
#     Edge 28, Type (0, 0), None
#     Edge 29, Type (0, 0), None
#     Edge 30, Type (0, 0), None
#     Edge 31, Type (0, 0), None
#     Edge 32, Type (0, 0), None
#     Edge 33, Type (0, 0), None
#     Edge 34, Type (0, 0), None
#     Edge 35, Type (0, 0), None
# Relax obj value: 0.050
# Max RMSD: 0.165
# Mean RMSD: 0.165
data_MOF--net-umm--node1-ICAMEG_clean_sbu_1--edge1-none
_symmetry_space_group_name_H-M    P1
_symmetry_Int_Tables_number       1
_symmetry_cell_setting            triclinic
loop_
_symmetry_equiv_pos_as_xyz
'x, y, z'
_cell_length_a     29.294664
_cell_length_b     29.306097
_cell_length_c     14.545324
_cell_angle_alpha  90.001721
_cell_angle_beta   89.997331
_cell_angle_gamma 120.00021
loop_
_atom_site_label
_atom_site_type_symbol
_atom_site_fract_x
_atom_site_fract_y
_atom_site_fract_z
_atom_type_partial_charge
Co0 Co 0.35585 0.47616 0.01472 0.0
Co1 Co 0.45866 0.59413 0.08308 0.0
O2 O 0.38568 0.54005 0.08342 0.0
C3 C 0.28224 0.51936 0.98888 0.0
O4 O 0.32413 0.56373 0.96548 0.0
C5 C 0.42243 0.56336 0.27937 0.0
O6 O 0.39174 0.51558 0.24931 0.0
O7 O 0.48324 0.54384 0.10742 0.0
O8 O 0.42827 0.47556 0.01888 0.0
H9 H 0.65745 0.68216 0.05729 0.0
H10 H 0.27405 0.4588 0.1577 0.0
O11 O 0.28687 0.47889 0.00543 0.0
H12 H 0.34423 0.34486 0.24848 0.0
H13 H 0.1983 0.30459 0.92745 0.0
H14 H 0.38151 0.43618 0.84618 0.0
H15 H 0.3841 0.40698 0.12242 0.0
H16 H 0.25126 0.37877 0.02907 0.0
O17 O 0.45179 0.60057 0.22279 0.0
H18 H 0.56469 0.61386 0.01751 0.0
H19 H 0.5084 0.69589 0.17856 0.0
H20 H 0.32912 0.36155 0.74473 0.0
H21 H 0.23299 0.39791 0.28493 0.0
H22 H 0.23635 0.29678 0.77966 0.0
H23 H 0.26669 0.33839 0.33043 0.0
O24 O 0.38113 0.5171 0.89972 0.0
H25 H 0.34787 0.68062 0.08633 0.0
H26 H 0.50147 0.68048 0.95417 0.0
H27 H 0.48243 0.74918 0.91013 0.0
H28 H 0.40922 0.75328 0.97967 0.0
H29 H 0.37148 0.61481 0.13785 0.0
H30 H 0.59876 0.76594 0.21056 0.0
H31 H 0.6741 0.75938 0.14924 0.0
O32 O 0.46204 0.58361 0.94164 0.0
C33 C 0.47437 0.50472 0.05781 0.0
C34 C 0.62442 0.686 0.08035 0.0
C35 C 0.5919 0.73309 0.1675 0.0
N36 N 0.53127 0.65109 0.09409 0.0
C37 C 0.57231 0.64743 0.05924 0.0
C38 C 0.54071 0.69315 0.14854 0.0
C39 C 0.63408 0.72936 0.13324 0.0
C40 C 0.29026 0.4347 0.17721 0.0
N41 N 0.33103 0.43594 0.12899 0.0
C42 C 0.26657 0.39987 0.25022 0.0
C43 C 0.28552 0.3667 0.2757 0.0
C44 C 0.32877 0.37011 0.22981 0.0
C45 C 0.35132 0.40541 0.15715 0.0
C46 C 0.23845 0.33315 0.90901 0.0
C47 C 0.3413 0.40777 0.86416 0.0
C48 C 0.26954 0.37494 0.96768 0.0
N49 N 0.32044 0.41164 0.94506 0.0
C50 C 0.31086 0.36687 0.80374 0.0
C51 C 0.25937 0.32929 0.82586 0.0
C52 C 0.42679 0.55505 0.87975 0.0
C53 C 0.38309 0.68231 0.06037 0.0
C54 C 0.46862 0.68133 0.98626 0.0
C55 C 0.45839 0.72067 0.96067 0.0
C56 C 0.41632 0.72213 -0.0002 0.0
N57 N 0.4389 0.64534 0.05222 0.0
C58 C 0.39606 0.64478 0.08869 0.0
Co59 Co 0.87697 0.35725 0.3477 0.0
Co60 Co 0.8616 0.45991 0.41592 0.0
O61 O 0.84286 0.38702 0.4164 0.0
C62 C 0.76014 0.28354 0.32201 0.0
O63 O 0.75759 0.32538 0.29855 0.0
C64 C 0.85674 0.42403 0.61206 0.0
O65 O 0.8756 0.3948 0.58212 0.0
O66 O 0.93655 0.48465 0.44035 0.0
O67 O 0.95 0.42968 0.35201 0.0
H68 H 0.97151 0.65869 0.3894 0.0
H69 H 0.8125 0.27669 0.49167 0.0
O70 O 0.80528 0.28823 0.33855 0.0
H71 H -0.00331 0.34418 0.57938 0.0
H72 H 0.89116 0.1997 0.26153 0.0
H73 H 0.94217 0.38247 0.1785 0.0
H74 H 0.97456 0.38439 0.4534 0.0
H75 H 0.87009 0.2529 0.36282 0.0
O76 O 0.84804 0.45281 0.55548 0.0
H77 H 0.94749 0.56597 0.34998 0.0
H78 H 0.80947 0.50934 0.512 0.0
H79 H 0.96434 0.32984 0.0775 0.0
H80 H 0.83205 0.23529 0.61894 0.0
H81 H 0.9366 0.23728 0.11325 0.0
H82 H 0.92535 0.26773 0.66288 0.0
O83 O 0.86126 0.38247 0.2327 0.0
H84 H 0.6643 0.3493 0.41969 0.0
H85 H 0.81795 0.50261 0.2868 0.0
H86 H 0.73009 0.4837 0.24317 0.0
H87 H 0.65289 0.41058 0.31307 0.0
H88 H 0.75378 0.37277 0.47068 0.0
H89 H 0.8296 0.59956 0.54444 0.0
H90 H 0.91102 0.67504 0.48215 0.0
O91 O 0.87562 0.46336 0.27455 0.0
C92 C 0.96688 0.47576 0.39095 0.0
C93 C 0.9348 0.62557 0.41272 0.0
C94 C 0.85551 0.59282 0.50091 0.0
N95 N 0.87702 0.53242 0.42703 0.0
C96 C 0.92151 0.57351 0.3918 0.0
C97 C 0.8444 0.54171 0.4818 0.0
C98 C 0.90115 0.63507 0.46612 0.0
C99 C 0.8528 0.29231 0.51076 0.0
N100 N 0.89242 0.33253 0.46188 0.0
C101 C 0.86381 0.26846 0.58366 0.0
C102 C 0.91596 0.28669 0.60823 0.0
C103 C 0.95597 0.32936 0.56148 0.0
C104 C 0.94332 0.35211 0.48902 0.0
C105 C 0.90262 0.23976 0.24271 0.0
C106 C 0.93047 0.34235 0.19685 0.0
C107 C 0.89202 0.27099 0.30117 0.0
N108 N 0.90607 0.32178 0.27809 0.0
C109 C 0.94087 0.31176 0.13665 0.0
C110 C 0.92715 0.2604 0.15927 0.0
C111 C 0.86896 0.42812 0.21268 0.0
C112 C 0.69781 0.38444 0.39351 0.0
C113 C 0.78427 0.4698 0.31895 0.0
C114 C 0.73466 0.45965 0.29361 0.0
C115 C 0.69118 0.41765 0.33297 0.0
N116 N 0.7906 0.44008 0.38487 0.0
C117 C 0.74834 0.39732 0.42153 0.0
Co118 Co 0.51707 0.87843 0.68101 0.0
Co119 Co 0.39897 0.86296 0.74922 0.0
O120 O 0.45321 0.84432 0.74973 0.0
C121 C 0.47401 0.76165 0.65535 0.0
O122 O 0.42962 0.7591 0.63185 0.0
C123 C 0.43001 0.85816 0.94533 0.0
O124 O 0.47816 0.87727 0.91545 0.0
O125 O 0.44908 0.93791 0.77364 0.0
O126 O 0.51759 0.95141 0.6854 0.0
H127 H 0.30951 0.97235 0.72247 0.0
H128 H 0.53295 0.81397 0.82514 0.0
O129 O 0.51447 0.80678 0.67186 0.0
H130 H 0.64993 -0.00194 0.91267 0.0
H131 H 0.68892 0.89274 0.59484 0.0
H132 H 0.557 0.94362 0.51181 0.0
H133 H 0.58765 0.97599 0.78653 0.0
H134 H 0.61463 0.87166 0.69616 0.0
O135 O 0.39251 0.84937 0.88873 0.0
H136 H 0.37851 0.94864 0.68326 0.0
H137 H 0.29741 0.81068 0.84533 0.0
H138 H 0.63181 0.96579 0.41076 0.0
H139 H 0.59387 0.83343 0.95251 0.0
H140 H 0.69671 0.93812 0.44653 0.0
H141 H 0.65484 0.92668 -0.00363 0.0
O142 O 0.47612 0.86271 0.56598 0.0
H143 H 0.31235 0.66572 0.75328 0.0
H144 H 0.31277 0.81928 0.61996 0.0
H145 H 0.24388 0.73151 0.57647 0.0
H146 H 0.23958 0.65435 0.64675 0.0
H147 H 0.37839 0.75519 0.80418 0.0
H148 H 0.2271 0.83051 0.87763 0.0
H149 H 0.23273 0.91176 0.81518 0.0
O150 O 0.40954 0.87701 0.60785 0.0
C151 C 0.48834 0.96826 0.72431 0.0
C152 C 0.30607 0.93573 0.74583 0.0
C153 C 0.25972 0.85647 0.83411 0.0
N154 N 0.34175 0.87822 0.76034 0.0
C155 C 0.34499 0.92261 0.72504 0.0
C156 C 0.29986 0.84554 0.8151 0.0
C157 C 0.26294 0.90201 0.79922 0.0
C158 C 0.55772 0.85424 0.84416 0.0
N159 N 0.55724 0.89388 0.79519 0.0
C160 C 0.59255 0.86521 0.91713 0.0
C161 C 0.62654 0.91733 0.94165 0.0
C162 C 0.62399 0.95736 0.89479 0.0
C163 C 0.58862 0.94475 0.82226 0.0
C164 C 0.66028 0.90417 0.57601 0.0
C165 C 0.58546 0.93194 0.53016 0.0
C166 C 0.61843 0.89355 0.63449 0.0
N167 N 0.58165 0.90756 0.61141 0.0
C168 C 0.62645 0.94235 0.46994 0.0
C169 C 0.66413 0.92866 0.49257 0.0
C170 C 0.43814 0.87038 0.54597 0.0
C171 C 0.31075 0.69923 0.72703 0.0
C172 C 0.31191 0.78564 0.65219 0.0
C173 C 0.27244 0.73605 0.62697 0.0
C174 C 0.27087 0.6926 0.66653 0.0
N175 N 0.34793 0.79197 0.71818 0.0
C176 C 0.34842 0.74975 0.75497 0.0
Co177 Co 0.63584 0.51833 0.01472 0.0
Co178 Co 0.53307 0.40034 0.08307 0.0
O179 O 0.60604 0.45444 0.08341 0.0
C180 C 0.70946 0.47515 0.98884 0.0
O181 O 0.66758 0.43077 0.96544 0.0
C182 C 0.56934 0.43109 0.27937 0.0
O183 O 0.60013 0.47885 0.24933 0.0
O184 O 0.50843 0.45058 0.10739 0.0
O185 O 0.5634 0.51889 0.0189 0.0
H186 H 0.33427 0.31212 0.05714 0.0
H187 H 0.71782 0.53588 0.15753 0.0
O188 O 0.70483 0.51561 0.00539 0.0
H189 H 0.64718 0.64934 0.24891 0.0
H190 H 0.79334 0.68991 0.92731 0.0
H191 H 0.61009 0.5583 0.8463 0.0
H192 H 0.60736 0.58724 0.12285 0.0
H193 H 0.74043 0.61575 0.02898 0.0
O194 O 0.53992 0.3939 0.22278 0.0
H195 H 0.42702 0.38051 0.01745 0.0
H196 H 0.48338 0.29859 0.17861 0.0
H197 H 0.66244 0.6329 0.74477 0.0
H198 H 0.75882 0.59675 0.28478 0.0
H199 H 0.75523 0.69769 0.77958 0.0
H200 H 0.72491 0.65605 0.33056 0.0
O201 O 0.61057 0.47741 0.89972 0.0
H202 H 0.64393 0.31392 0.08643 0.0
H203 H 0.49034 0.31399 0.95416 0.0
H204 H 0.50941 0.24532 0.91018 0.0
H205 H 0.5826 0.24123 0.9798 0.0
H206 H 0.62029 0.37971 0.1379 0.0
H207 H 0.39305 0.2285 0.21061 0.0
H208 H 0.31767 0.23495 0.14915 0.0
O209 O 0.52969 0.41084 0.94163 0.0
C210 C 0.5173 0.4897 0.05779 0.0
C211 C 0.36732 0.30833 0.08023 0.0
C212 C 0.39989 0.26133 0.1675 0.0
N213 N 0.46047 0.34333 0.09408 0.0
C214 C 0.41942 0.34695 0.05918 0.0
C215 C 0.45106 0.30129 0.14856 0.0
C216 C 0.35769 0.26499 0.13316 0.0
C217 C 0.70151 0.55989 0.17714 0.0
N218 N 0.66066 0.55854 0.12903 0.0
C219 C 0.72517 0.5947 0.25017 0.0
C220 C 0.70609 0.62775 0.27582 0.0
C221 C 0.66275 0.62421 0.23009 0.0
C222 C 0.64024 0.58892 0.1574 0.0
C223 C 0.75318 0.66134 0.90893 0.0
C224 C 0.65032 0.58672 0.86423 0.0
C225 C 0.72212 0.61957 0.96763 0.0
N226 N 0.67121 0.58286 0.94508 0.0
C227 C 0.68072 0.62761 0.80376 0.0
C228 C 0.73222 0.66519 0.82581 0.0
C229 C 0.56493 0.43943 0.87974 0.0
C230 C 0.60872 0.31222 0.06044 0.0
C231 C 0.52318 0.31316 0.98627 0.0
C232 C 0.53343 0.27383 0.96071 0.0
C233 C 0.57549 0.27238 -0.00011 0.0
N234 N 0.55288 0.34916 0.05223 0.0
C235 C 0.59573 0.34974 0.08873 0.0
Co236 Co 0.11475 0.63728 0.34775 0.0
Co237 Co 0.13017 0.53465 0.41593 0.0
O238 O 0.14888 0.60753 0.41642 0.0
C239 C 0.23158 0.71099 0.32202 0.0
O240 O 0.23412 0.66915 0.29857 0.0
C241 C 0.13506 0.57055 0.61209 0.0
O242 O 0.11626 0.59984 0.58217 0.0
O243 O 0.05521 0.50987 0.44036 0.0
O244 O 0.04174 0.56484 0.35205 0.0
H245 H 0.02043 0.33586 0.38923 0.0
H246 H 0.17922 0.71802 0.49156 0.0
O247 O 0.18644 0.70631 0.33856 0.0
H248 H 0.99503 0.65009 0.5798 0.0
H249 H 0.10051 0.79479 0.26144 0.0
H250 H 0.04945 0.61196 0.17869 0.0
H251 H 0.01718 0.60993 0.45383 0.0
H252 H 0.12163 0.74164 0.36278 0.0
O253 O 0.14372 0.54176 0.55549 0.0
H254 H 0.04436 0.42858 0.34993 0.0
H255 H 0.18232 0.48527 0.51207 0.0
H256 H 0.02726 0.66454 0.07761 0.0
H257 H 0.15962 0.75938 0.61882 0.0
H258 H 0.05501 0.75712 0.11324 0.0
H259 H 0.06632 0.72673 0.66303 0.0
O260 O 0.13047 0.61207 0.23273 0.0
H261 H 0.32748 0.64524 0.41982 0.0
H262 H 0.17384 0.492 0.28678 0.0
H263 H 0.26169 0.51087 0.24324 0.0
H264 H 0.33887 0.58392 0.31327 0.0
H265 H 0.23799 0.62181 0.47073 0.0
H266 H 0.16227 0.39508 0.54448 0.0
H267 H 0.08093 0.31956 0.48202 0.0
O268 O 0.11615 0.5312 0.27456 0.0
C269 C 0.02487 0.51875 0.39095 0.0
C270 C 0.0571 0.369 0.4126 0.0
C271 C 0.13636 0.4018 0.50091 0.0
N272 N 0.11479 0.46216 0.42704 0.0
C273 C 0.07034 0.42105 0.39174 0.0
C274 C 0.14742 0.4529 0.48184 0.0
C275 C 0.09077 0.35953 0.46603 0.0
C276 C 0.13891 0.70231 0.51073 0.0
N277 N 0.09931 0.66201 0.46196 0.0
C278 C 0.12788 0.72613 0.58365 0.0
C279 C 0.07573 0.70779 0.60836 0.0
C280 C 0.03575 0.66502 0.56177 0.0
C281 C 0.04842 0.6423 0.48928 0.0
C282 C 0.08905 0.75472 0.24268 0.0
C283 C 0.06117 0.6521 0.19698 0.0
C284 C 0.09967 0.72352 0.30117 0.0
N285 N 0.08562 0.67271 0.27816 0.0
C286 C 0.05074 0.68265 0.13675 0.0
C287 C 0.06448 0.73403 0.15929 0.0
C288 C 0.12279 0.56644 0.2127 0.0
C289 C 0.29396 0.61012 0.39361 0.0
C290 C 0.20751 0.5248 0.31896 0.0
C291 C 0.25711 0.53493 0.29367 0.0
C292 C 0.30059 0.57689 0.3331 0.0
N293 N 0.20117 0.55451 0.38488 0.0
C294 C 0.24343 0.59726 0.42157 0.0
Co295 Co 0.47462 0.11607 0.68102 0.0
Co296 Co 0.59269 0.1315 0.74923 0.0
O297 O 0.53847 0.15016 0.74976 0.0
C298 C 0.51769 0.23286 0.6554 0.0
O299 O 0.56209 0.2354 0.6319 0.0
C300 C 0.56166 0.13627 0.94535 0.0
O301 O 0.5135 0.1171 0.91547 0.0
O302 O 0.54256 0.05655 0.77366 0.0
O303 O 0.47406 0.04308 0.6854 0.0
H304 H 0.68202 0.02198 0.72265 0.0
H305 H 0.45891 0.18054 0.8253 0.0
O306 O 0.47723 0.18773 0.67191 0.0
H307 H 0.34149 0.99645 0.91228 0.0
H308 H 0.30278 0.10183 0.59498 0.0
H309 H 0.43469 0.05097 0.51169 0.0
H310 H 0.40381 0.01849 0.78618 0.0
H311 H 0.37707 0.12285 0.69626 0.0
O312 O 0.59916 0.1451 0.88874 0.0
H313 H 0.61309 0.04575 0.68335 0.0
H314 H 0.69428 0.18378 0.84523 0.0
H315 H 0.35986 0.02883 0.41072 0.0
H316 H 0.39796 0.16112 0.95264 0.0
H317 H 0.29498 0.05651 0.4466 0.0
H318 H 0.33678 0.06787 -0.00376 0.0
O319 O 0.51558 0.13179 0.566 0.0
H320 H 0.6794 0.32875 0.75328 0.0
H321 H 0.67886 0.17513 0.61993 0.0
H322 H 0.74775 0.26287 0.57639 0.0
H323 H 0.75214 0.34007 0.64671 0.0
H324 H 0.61333 0.23929 0.80421 0.0
H325 H 0.76459 0.16393 0.87749 0.0
H326 H 0.75886 0.0826 0.81523 0.0
O327 O 0.58212 0.11744 0.60787 0.0
C328 C 0.5033 0.02622 0.72432 0.0
C329 C 0.68551 0.05863 0.74596 0.0
C330 C 0.73194 0.13795 0.83405 0.0
N331 N 0.64989 0.11621 0.76034 0.0
C332 C 0.64661 0.07178 0.72512 0.0
C333 C 0.69181 0.1489 0.81504 0.0
C334 C 0.72867 0.09237 0.79927 0.0
C335 C 0.43405 0.14027 0.84424 0.0
N336 N 0.43444 0.10062 0.79517 0.0
C337 C 0.39921 0.12932 0.91718 0.0
C338 C 0.36509 0.0772 0.94154 0.0
C339 C 0.36753 0.03714 0.89454 0.0
C340 C 0.40293 0.04974 0.82206 0.0
C341 C 0.33142 0.09041 0.5761 0.0
C342 C 0.40624 0.06265 0.5301 0.0
C343 C 0.37326 0.10099 0.63455 0.0
N344 N 0.41005 0.08698 0.6114 0.0
C345 C 0.36524 0.05227 0.46991 0.0
C346 C 0.32756 0.06594 0.49261 0.0
C347 C 0.55354 0.1241 0.54599 0.0
C348 C 0.68097 0.29523 0.72703 0.0
C349 C 0.67974 0.20879 0.65217 0.0
C350 C 0.71922 0.25835 0.62692 0.0
C351 C 0.72083 0.30183 0.6665 0.0
N352 N 0.64374 0.20247 0.71818 0.0
C353 C 0.64329 0.24472 0.75498 0.0
Co354 Co 0.51703 0.63726 0.64436 0.0
Co355 Co 0.39896 0.53459 0.5762 0.0
O356 O 0.45313 0.60749 0.57568 0.0
C357 C 0.47398 0.71103 0.66985 0.0
O358 O 0.42955 0.66921 0.69323 0.0
C359 C 0.42997 0.57041 0.38008 0.0
O360 O 0.47811 0.59948 0.40997 0.0
O361 O 0.44917 0.50986 0.55169 0.0
O362 O 0.51759 0.56483 0.64008 0.0
H363 H 0.30995 0.3358 0.60277 0.0
H364 H 0.53294 0.71759 0.50022 0.0
O365 O 0.51443 0.70631 0.65346 0.0
H366 H 0.64991 0.65041 0.41276 0.0
H367 H 0.6889 0.79478 0.73032 0.0
H368 H 0.55696 0.61211 0.8137 0.0
H369 H 0.58759 0.61021 0.53883 0.0
H370 H 0.6146 0.74155 0.62906 0.0
O371 O 0.39247 0.5417 0.43668 0.0
H372 H 0.37873 0.42852 0.64216 0.0
H373 H 0.29739 0.48517 0.48014 0.0
H374 H 0.63178 0.66478 0.91467 0.0
H375 H 0.59388 0.75902 0.37288 0.0
H376 H 0.69668 0.75729 0.87874 0.0
H377 H 0.65486 0.72673 0.32907 0.0
O378 O 0.47607 0.61206 0.75939 0.0
H379 H 0.31205 0.64493 0.57231 0.0
H380 H 0.31273 0.4919 0.70551 0.0
H381 H 0.24371 0.51067 0.74914 0.0
H382 H 0.2394 0.58358 0.67901 0.0
H383 H 0.37816 0.62161 0.52135 0.0
H384 H 0.22726 0.39496 0.4477 0.0
H385 H 0.23313 0.31947 0.51002 0.0
O386 O 0.40958 0.53114 0.71756 0.0
C387 C 0.48839 0.51875 0.60111 0.0
C388 C 0.3064 0.36893 0.57944 0.0
C389 C 0.2599 0.4017 0.49123 0.0
N390 N 0.34185 0.46208 0.56509 0.0
C391 C 0.34521 0.42098 0.60034 0.0
C392 C 0.29994 0.4528 0.51033 0.0
C393 C 0.26325 0.35944 0.52604 0.0
C394 C 0.5577 0.70206 0.48119 0.0
N395 N 0.55719 0.66194 0.53017 0.0
C396 C 0.59254 0.72592 0.40825 0.0
C397 C 0.62654 0.70777 0.38376 0.0
C398 C 0.62396 0.66518 0.43062 0.0
C399 C 0.58857 0.64243 0.50312 0.0
C400 C 0.66025 0.75475 0.74922 0.0
C401 C 0.58541 0.65222 0.79528 0.0
C402 C 0.6184 0.72349 0.69078 0.0
N403 N 0.58161 0.67273 0.71396 0.0
C404 C 0.62642 0.68283 0.85546 0.0
C405 C 0.6641 0.73416 0.83273 0.0
C406 C 0.43814 0.5664 0.77942 0.0
C407 C 0.31049 0.60985 0.59854 0.0
C408 C 0.3118 0.52466 0.67332 0.0
C409 C 0.27229 0.53472 0.69864 0.0
C410 C 0.27068 0.57662 0.65914 0.0
N411 N 0.34781 0.55439 0.60733 0.0
C412 C 0.34821 0.59706 0.57057 0.0
Co413 Co 0.87692 0.51829 0.97736 0.0
Co414 Co 0.86178 0.40034 0.90907 0.0
O415 O 0.84282 0.45437 0.90871 0.0
C416 C 0.76008 0.47512 0.00305 0.0
O417 O 0.75753 0.43071 0.02633 0.0
C418 C 0.85635 0.43111 0.71279 0.0
O419 O 0.87361 0.47892 0.74285 0.0
O420 O 0.93665 0.45069 0.88463 0.0
O421 O 0.94994 0.51891 0.97326 0.0
H422 H 0.97267 0.31249 0.93492 0.0
H423 H 0.81252 0.53569 0.83439 0.0
O424 O 0.80521 0.51558 0.98662 0.0
H425 H -0.00332 0.64954 0.74354 0.0
H426 H 0.89102 0.68991 0.06441 0.0
H427 H 0.94249 0.55829 0.14599 0.0
H428 H 0.97438 0.58738 0.86952 0.0
H429 H 0.86981 0.61573 0.96286 0.0
O430 O 0.84842 0.39387 0.76936 0.0
H431 H 0.94812 0.3807 0.97472 0.0
H432 H 0.80986 0.29861 0.81348 0.0
H433 H 0.96473 0.63293 0.24737 0.0
H434 H 0.83238 0.59659 0.70717 0.0
H435 H 0.9368 0.69772 0.2123 0.0
H436 H 0.92564 0.65609 0.66167 0.0
O437 O 0.86123 0.47737 0.09236 0.0
H438 H 0.66448 0.31356 0.90583 0.0
H439 H 0.81831 0.31395 0.03805 0.0
H440 H 0.73053 0.2451 0.08212 0.0
H441 H 0.65321 0.24099 0.01262 0.0
H442 H 0.75387 0.37946 0.85438 0.0
H443 H 0.83034 0.22871 0.78128 0.0
H444 H 0.91222 0.23533 0.84275 0.0
O445 O 0.8757 0.41091 0.05049 0.0
C446 C 0.96689 0.48978 0.93431 0.0
C447 C 0.9358 0.30862 0.91181 0.0
C448 C 0.85626 0.26153 0.82446 0.0
N449 N 0.87749 0.34344 0.89805 0.0
C450 C 0.9222 0.34714 0.93295 0.0
C451 C 0.84492 0.30139 0.84351 0.0
C452 C 0.90216 0.26529 0.8588 0.0
C453 C 0.85284 0.55976 0.81484 0.0
N454 N 0.89234 0.55849 0.86305 0.0
C455 C 0.864 0.5946 0.74185 0.0
C456 C 0.91614 0.62776 0.71637 0.0
C457 C 0.95596 0.62431 0.76222 0.0
C458 C 0.94318 0.58899 0.83485 0.0
C459 C 0.90258 0.66134 0.08292 0.0
C460 C 0.93071 0.5867 0.12794 0.0
C461 C 0.89189 0.61955 0.02428 0.0
N462 N 0.90605 0.58284 0.04698 0.0
C463 C 0.94117 0.62761 0.18833 0.0
C464 C 0.92731 0.6652 0.16612 0.0
C465 C 0.86897 0.43945 0.11236 0.0
C466 C 0.69802 0.31192 0.93183 0.0
C467 C 0.78459 0.31305 0.00599 0.0
C468 C 0.73501 0.27364 0.0316 0.0
C469 C 0.69146 0.27215 0.99247 0.0
N470 N 0.79082 0.34904 0.94004 0.0
C471 C 0.74851 0.34951 0.90354 0.0
Co472 Co 0.35589 0.87839 0.31064 0.0
Co473 Co 0.45869 0.86319 0.24232 0.0
O474 O 0.3857 0.84429 0.24197 0.0
C475 C 0.28221 0.7616 0.33635 0.0
O476 O 0.32408 0.75905 0.35964 0.0
C477 C 0.42243 0.85764 0.04603 0.0
O478 O 0.39163 0.87461 0.07605 0.0
O479 O 0.48327 0.93804 0.21792 0.0
O480 O 0.42832 0.95136 0.30652 0.0
H481 H 0.65749 0.97382 0.26822 0.0
H482 H 0.27391 0.81401 0.16781 0.0
O483 O 0.28687 0.80672 0.31993 0.0
H484 H 0.34472 -0.00193 0.0762 0.0
H485 H 0.19841 0.8926 0.39796 0.0
H486 H 0.3816 0.94405 0.47912 0.0
H487 H 0.38448 0.97578 0.20236 0.0
H488 H 0.25133 0.87133 0.29629 0.0
O489 O 0.45185 0.84987 0.10262 0.0
H490 H 0.56472 0.94943 0.30793 0.0
H491 H 0.50844 0.81115 0.14683 0.0
H492 H 0.32926 0.96631 0.58067 0.0
H493 H 0.23296 0.8339 0.0405 0.0
H494 H 0.23649 0.9384 0.54577 0.0
H495 H 0.26694 0.92709 0.99462 0.0
O496 O 0.38113 0.8627 0.42565 0.0
H497 H 0.34809 0.66595 0.239 0.0
H498 H 0.50148 0.8197 0.37135 0.0
H499 H 0.48253 0.73203 0.41544 0.0
H500 H 0.40947 0.65471 0.34574 0.0
H501 H 0.3716 0.75532 0.18746 0.0
H502 H 0.5988 0.83142 0.11486 0.0
H503 H 0.67414 0.91326 0.17626 0.0
O504 O 0.46206 0.8771 0.38375 0.0
C505 C 0.47441 0.96827 0.26759 0.0
C506 C 0.62446 0.93698 0.24515 0.0
C507 C 0.59194 0.8574 0.15793 0.0
N508 N 0.53131 0.87881 0.23132 0.0
C509 C 0.57235 0.92348 0.26621 0.0
C510 C 0.54075 0.84618 0.17687 0.0
C511 C 0.63411 0.90327 0.19224 0.0
C512 C 0.29024 0.85432 0.14819 0.0
N513 N 0.33109 0.8938 0.1963 0.0
C514 C 0.26662 0.86549 0.07511 0.0
C515 C 0.28574 0.9176 0.0494 0.0
C516 C 0.3291 0.95738 0.0951 0.0
C517 C 0.35157 0.9446 0.16785 0.0
C518 C 0.23856 0.90415 0.41637 0.0
C519 C 0.34139 0.93228 0.46116 0.0
C520 C 0.26962 0.89343 0.35767 0.0
N521 N 0.32052 0.90757 0.38027 0.0
C522 C 0.31098 0.94277 0.52163 0.0
C523 C 0.25949 0.92891 0.49954 0.0
C524 C 0.4268 0.8704 0.44564 0.0
C525 C 0.38327 0.69948 0.26499 0.0
C526 C 0.46868 0.78601 0.33924 0.0
C527 C 0.4585 0.73647 0.36484 0.0
C528 C 0.41651 0.69294 0.32562 0.0
N529 N 0.43896 0.79225 0.27322 0.0
C530 C 0.39617 0.74996 0.23668 0.0
Co531 Co 0.47469 0.35725 0.64434 0.0
Co532 Co 0.59278 0.45988 0.5762 0.0
O533 O 0.53859 0.38699 0.57568 0.0
C534 C 0.51772 0.28347 0.66988 0.0
O535 O 0.56215 0.32529 0.69327 0.0
C536 C 0.56178 0.42404 0.38008 0.0
O537 O 0.51364 0.39493 0.40995 0.0
O538 O 0.54261 0.48465 0.55171 0.0
O539 O 0.47416 0.42969 0.64005 0.0
H540 H 0.68196 0.65868 0.60291 0.0
H541 H 0.45859 0.27673 0.50035 0.0
O542 O 0.47727 0.28819 0.65348 0.0
H543 H 0.3421 0.34437 0.41234 0.0
H544 H 0.30281 0.19978 0.73044 0.0
H545 H 0.43476 0.38249 0.81358 0.0
H546 H 0.40438 0.38452 0.53843 0.0
H547 H 0.37709 0.25296 0.62913 0.0
O548 O 0.59926 0.45276 0.43668 0.0
H549 H 0.61309 0.56595 0.64221 0.0
H550 H 0.69433 0.50924 0.48006 0.0
H551 H 0.35996 0.32987 0.91463 0.0
H552 H 0.39768 0.23537 0.37299 0.0
H553 H 0.29504 0.23733 0.87881 0.0
H554 H 0.33692 0.26787 0.32891 0.0
O555 O 0.51563 0.38244 0.75938 0.0
H556 H 0.67963 0.34947 0.57219 0.0
H557 H 0.679 0.50251 0.7055 0.0
H558 H 0.74802 0.48372 0.74904 0.0
H559 H 0.75232 0.41083 0.67882 0.0
H560 H 0.61352 0.37281 0.5213 0.0
H561 H 0.7645 0.59942 0.44762 0.0
H562 H 0.75874 0.67495 0.51009 0.0
O563 O 0.58217 0.46333 0.71756 0.0
C564 C 0.50338 0.47577 0.60112 0.0
C565 C 0.68546 0.62553 0.57954 0.0
C566 C 0.73188 0.59271 0.4912 0.0
N567 N 0.64993 0.53237 0.56509 0.0
C568 C 0.64662 0.57349 0.60039 0.0
C569 C 0.69182 0.54162 0.51029 0.0
C570 C 0.72859 0.63499 0.52609 0.0
C571 C 0.43393 0.29236 0.48124 0.0
N572 N 0.43453 0.33256 0.53012 0.0
C573 C 0.39911 0.26854 0.40827 0.0
C574 C 0.36523 0.28681 0.38362 0.0
C575 C 0.36793 0.3295 0.43033 0.0
C576 C 0.4033 0.3522 0.50288 0.0
C577 C 0.33145 0.23982 0.74929 0.0
C578 C 0.4063 0.34237 0.7952 0.0
C579 C 0.3733 0.27104 0.69081 0.0
N580 N 0.4101 0.32182 0.71393 0.0
C581 C 0.36531 0.31179 0.85542 0.0
C582 C 0.32762 0.26045 0.83277 0.0
C583 C 0.55358 0.42808 0.77941 0.0
C584 C 0.68119 0.38456 0.59845 0.0
C585 C 0.67991 0.46974 0.67328 0.0
C586 C 0.71943 0.45967 0.69855 0.0
C587 C 0.72102 0.41779 0.65901 0.0
N588 N 0.6439 0.44004 0.6073 0.0
C589 C 0.64348 0.39735 0.57051 0.0
Co590 Co 0.11479 0.47625 0.97736 0.0
Co591 Co 0.12999 0.59424 0.9091 0.0
O592 O 0.14892 0.54019 0.90873 0.0
C593 C 0.23162 0.5194 0.0031 0.0
O594 O 0.23418 0.56381 0.02639 0.0
C595 C 0.13547 0.56347 0.71281 0.0
O596 O 0.11832 0.51568 0.74285 0.0
O597 O 0.05512 0.54392 0.88467 0.0
O598 O 0.04178 0.47567 0.97326 0.0
H599 H 0.01922 0.68221 0.93514 0.0
H600 H 0.17918 0.45865 0.83455 0.0
O601 O 0.18649 0.47894 0.98665 0.0
H602 H 0.99504 0.3453 0.74311 0.0
H603 H 0.10062 0.30462 0.06454 0.0
H604 H 0.04913 0.43627 0.14587 0.0
H605 H 0.01736 0.40742 0.86913 0.0
H606 H 0.12187 0.3788 0.96293 0.0
O607 O 0.14334 0.6007 0.76939 0.0
H608 H 0.04372 0.61394 0.97485 0.0
H609 H 0.18191 0.69593 0.81341 0.0
H610 H 0.02686 0.36165 0.24733 0.0
H611 H 0.15927 0.39778 0.7073 0.0
H612 H 0.0548 0.29684 0.21237 0.0
H613 H 0.06603 0.33852 0.66151 0.0
O614 O 0.13048 0.51716 0.09237 0.0
H615 H 0.32728 0.68092 0.90585 0.0
H616 H 0.17351 0.68066 0.03805 0.0
H617 H 0.26131 0.74951 0.08206 0.0
H618 H 0.33861 0.75352 0.0126 0.0
H619 H 0.23788 0.61504 0.85442 0.0
H620 H 0.16145 0.76584 0.78119 0.0
H621 H 0.07965 0.75932 0.84285 0.0
O622 O 0.11608 0.58367 0.05052 0.0
C623 C 0.02486 0.50483 0.93433 0.0
C624 C 0.05607 0.68604 0.91199 0.0
C625 C 0.13555 0.73305 0.82444 0.0
N626 N 0.11431 0.65116 0.89809 0.0
C627 C 0.06963 0.64749 0.93306 0.0
C628 C 0.14687 0.69318 0.8435 0.0
C629 C 0.08969 0.72934 0.85889 0.0
C630 C 0.13886 0.43468 0.81491 0.0
N631 N 0.09937 0.43606 0.86302 0.0
C632 C 0.12768 0.39986 0.74188 0.0
C633 C 0.07554 0.36684 0.71623 0.0
C634 C 0.03575 0.37041 0.76193 0.0
C635 C 0.04855 0.40571 0.83462 0.0
C636 C 0.08906 0.3332 0.08299 0.0
C637 C 0.06091 0.40785 0.12787 0.0
C638 C 0.09977 0.37498 0.02432 0.0
N639 N 0.08561 0.4117 0.04696 0.0
C640 C 0.05043 0.36695 0.1883 0.0
C641 C 0.06429 0.32935 0.16616 0.0
C642 C 0.12277 0.55511 0.11238 0.0
C643 C 0.29376 0.68258 0.93185 0.0
C644 C 0.20722 0.68154 0.00598 0.0
C645 C 0.25681 0.72093 0.03157 0.0
C646 C 0.30034 0.72238 0.99246 0.0
N647 N 0.20096 0.64552 0.94005 0.0
C648 C 0.24326 0.64501 0.90357 0.0
Co649 Co 0.63584 0.11613 0.31066 0.0
Co650 Co 0.533 0.13129 0.24233 0.0
O651 O 0.606 0.15021 0.24198 0.0
C652 C 0.70951 0.23293 0.33635 0.0
O653 O 0.66763 0.23548 0.35966 0.0
C654 C 0.56923 0.13679 0.04604 0.0
O655 O 0.59997 0.11974 0.07608 0.0
O656 O 0.50847 0.05645 0.21793 0.0
O657 O 0.56342 0.04314 0.30654 0.0
H658 H 0.33422 0.02049 0.26807 0.0
H659 H 0.71764 0.18052 0.16768 0.0
O660 O 0.70484 0.18781 0.31992 0.0
H661 H 0.6473 0.99644 0.07661 0.0
H662 H 0.79337 0.10198 0.39785 0.0
H663 H 0.6102 0.05055 0.47925 0.0
H664 H 0.60748 0.01871 0.20276 0.0
H665 H 0.7404 0.12321 0.29623 0.0
O666 O 0.53984 0.14461 0.10264 0.0
H667 H 0.42699 0.04497 0.30788 0.0
H668 H 0.4832 0.18329 0.14693 0.0
H669 H 0.6626 0.02831 0.58072 0.0
H670 H 0.75865 0.16067 0.04035 0.0
H671 H 0.75535 0.05622 0.54571 0.0
H672 H 0.72488 0.06748 0.99473 0.0
O673 O 0.61058 0.13182 0.42567 0.0
H674 H 0.64362 0.32851 0.23909 0.0
H675 H 0.49017 0.17477 0.37136 0.0
H676 H 0.50917 0.26246 0.41552 0.0
H677 H 0.58228 0.33978 0.34591 0.0
H678 H 0.62008 0.23914 0.18749 0.0
H679 H 0.39282 0.16294 0.1149 0.0
H680 H 0.31752 0.08103 0.17615 0.0
O681 O 0.52964 0.11737 0.38376 0.0
C682 C 0.51733 0.02622 0.26759 0.0
C683 C 0.36723 0.05735 0.24503 0.0
C684 C 0.39971 0.13697 0.15795 0.0
N685 N 0.46037 0.11562 0.23134 0.0
C686 C 0.41935 0.07091 0.26616 0.0
C687 C 0.45091 0.14824 0.17692 0.0
C688 C 0.35755 0.09105 0.19216 0.0
C689 C 0.70141 0.14021 0.14813 0.0
N690 N 0.66064 0.10071 0.19635 0.0
C691 C 0.72506 0.12906 0.07506 0.0
C692 C 0.70607 0.07695 0.04951 0.0
C693 C 0.6628 0.03714 0.09537 0.0
C694 C 0.64029 0.0499 0.16809 0.0
C695 C 0.75322 0.09044 0.41632 0.0
C696 C 0.65041 0.06232 0.46124 0.0
C697 C 0.72213 0.10113 0.35765 0.0
N698 N 0.67124 0.08699 0.3803 0.0
C699 C 0.68085 0.05185 0.52167 0.0
C700 C 0.73232 0.0657 0.49951 0.0
C701 C 0.5649 0.12409 0.44566 0.0
C702 C 0.60843 0.29499 0.26506 0.0
C703 C 0.52299 0.20846 0.33926 0.0
C704 C 0.53319 0.25801 0.3649 0.0
C705 C 0.57521 0.30154 0.32572 0.0
N706 N 0.55271 0.20222 0.27324 0.0
C707 C 0.5955 0.24451 0.23671 0.0
loop_
_geom_bond_atom_site_label_1
_geom_bond_atom_site_label_2
_geom_bond_distance
_geom_bond_site_symmetry_2
_ccdc_geom_bond_type
Co0 O2 2.143 1_556 S
Co0 O8 2.074 . S
Co0 O11 2.093 . S
Co0 O24 2.097 . S
Co0 N41 2.151 1_556 S
Co0 N49 2.214 . S
Co1 O2 2.160 . S
Co1 O7 2.058 . S
Co1 O17 2.057 . S
Co1 O32 2.037 1_554 S
Co1 N36 2.145 . S
Co1 N57 2.257 . S
O2 Co0 2.143 1_554 S
O2 Co1 2.160 . S
C3 O4 1.278 . S
C3 O11 1.224 1_554 S
O4 C3 1.278 . S
C5 O6 1.245 . S
C5 O17 1.232 . S
O6 C5 1.245 . S
O7 Co1 2.058 . S
O7 C33 1.269 . S
O8 Co0 2.074 . S
O8 C33 1.257 1_556 S
H9 C34 0.930 1_556 S
H10 C40 0.930 . S
O11 Co0 2.093 . S
O11 C3 1.224 1_556 S
H12 C44 0.929 . S
H13 C46 0.930 . S
H14 C47 0.930 . S
H15 C45 0.929 . S
H16 C48 0.928 . S
O17 Co1 2.057 . S
O17 C5 1.232 . S
H18 C37 0.929 1_556 S
H19 C38 0.929 . S
H20 C50 0.931 . S
H21 C42 0.929 . S
H22 C51 0.930 . S
H23 C43 0.931 . S
O24 Co0 2.097 . S
O24 C52 1.214 . S
H25 C53 0.929 . S
H26 C54 0.934 . S
H27 C55 0.930 . S
H28 C56 0.929 . S
H29 C58 0.930 . S
H30 C35 0.930 . S
H31 C39 0.930 . S
O32 Co1 2.037 1_556 S
O32 C52 1.234 . S
C33 O7 1.269 . S
C33 O8 1.257 1_554 S
C34 H9 0.930 1_554 S
C34 C37 1.388 . S
C34 C39 1.418 . S
C35 H30 0.930 . S
C35 C38 1.404 . S
C35 C39 1.353 . S
N36 Co1 2.145 . S
N36 C37 1.397 . S
N36 C38 1.334 . S
C37 H18 0.929 1_554 S
C37 C34 1.388 . S
C37 N36 1.397 . S
C38 H19 0.929 . S
C38 C35 1.404 . S
C38 N36 1.334 . S
C39 H31 0.930 . S
C39 C34 1.418 . S
C39 C35 1.353 . S
C40 H10 0.930 . S
C40 N41 1.330 . S
C40 C42 1.446 . S
N41 Co0 2.151 1_554 S
N41 C40 1.330 . S
N41 C45 1.418 . S
C42 H21 0.929 . S
C42 C40 1.446 . S
C42 C43 1.332 . S
C43 H23 0.931 . S
C43 C42 1.332 . S
C43 C44 1.267 . S
C44 H12 0.929 . S
C44 C43 1.267 . S
C44 C45 1.251 . S
C45 H15 0.929 . S
C45 N41 1.418 . S
C45 C44 1.251 . S
C46 H13 0.930 . S
C46 C48 1.406 . S
C46 C51 1.261 . S
C47 H14 0.930 . S
C47 N49 1.325 . S
C47 C50 1.357 . S
C48 H16 0.928 . S
C48 C46 1.406 . S
C48 N49 1.261 . S
N49 Co0 2.214 . S
N49 C47 1.325 . S
N49 C48 1.261 . S
C50 H20 0.931 . S
C50 C47 1.357 . S
C50 C51 1.312 . S
C51 H22 0.930 . S
C51 C46 1.261 . S
C51 C50 1.312 . S
C52 O24 1.214 . S
C52 O32 1.234 . S
C53 H25 0.929 . S
C53 C56 1.391 . S
C53 C58 1.391 . S
C54 H26 0.934 . S
C54 C55 1.391 . S
C54 N57 1.385 1_556 S
C55 H27 0.930 . S
C55 C54 1.391 . S
C55 C56 1.392 1_556 S
C56 H28 0.929 . S
C56 C53 1.391 . S
C56 C55 1.392 1_554 S
N57 Co1 2.257 . S
N57 C54 1.385 1_554 S
N57 C58 1.388 . S
C58 H29 0.930 . S
C58 C53 1.391 . S
C58 N57 1.388 . S
Co59 O61 2.143 . S
Co59 O67 2.074 . S
Co59 O70 2.093 . S
Co59 O83 2.097 . S
Co59 N100 2.151 . S
Co59 N108 2.214 . S
Co60 O61 2.160 . S
Co60 O66 2.058 . S
Co60 O76 2.057 . S
Co60 O91 2.037 . S
Co60 N95 2.145 . S
Co60 N116 2.257 . S
O61 Co59 2.143 . S
O61 Co60 2.160 . S
C62 O63 1.278 . S
C62 O70 1.224 . S
O63 C62 1.278 . S
C64 O65 1.245 . S
C64 O76 1.232 . S
O65 C64 1.245 . S
O66 Co60 2.058 . S
O66 C92 1.269 . S
O67 Co59 2.074 . S
O67 C92 1.257 . S
H68 C93 0.930 . S
H69 C99 0.930 . S
O70 Co59 2.093 . S
O70 C62 1.224 . S
H71 C103 0.929 1_455 S
H72 C105 0.930 . S
H73 C106 0.930 . S
H74 C104 0.929 . S
H75 C107 0.928 . S
O76 Co60 2.057 . S
O76 C64 1.232 . S
H77 C96 0.929 . S
H78 C97 0.929 . S
H79 C109 0.931 . S
H80 C101 0.929 . S
H81 C110 0.930 1_556 S
H82 C102 0.931 . S
O83 Co59 2.097 . S
O83 C111 1.214 . S
H84 C112 0.929 . S
H85 C113 0.929 . S
H86 C114 0.930 . S
H87 C115 0.929 . S
H88 C117 0.930 . S
H89 C94 0.930 . S
H90 C98 0.930 . S
O91 Co60 2.037 . S
O91 C111 1.234 . S
C92 O66 1.269 . S
C92 O67 1.257 . S
C93 H68 0.930 . S
C93 C96 1.388 . S
C93 C98 1.418 . S
C94 H89 0.930 . S
C94 C97 1.404 . S
C94 C98 1.353 . S
N95 Co60 2.145 . S
N95 C96 1.397 . S
N95 C97 1.334 . S
C96 H77 0.929 . S
C96 C93 1.388 . S
C96 N95 1.397 . S
C97 H78 0.929 . S
C97 C94 1.404 . S
C97 N95 1.334 . S
C98 H90 0.930 . S
C98 C93 1.418 . S
C98 C94 1.353 . S
C99 H69 0.930 . S
C99 N100 1.330 . S
C99 C101 1.446 . S
N100 Co59 2.151 . S
N100 C99 1.330 . S
N100 C104 1.418 . S
C101 H80 0.929 . S
C101 C99 1.446 . S
C101 C102 1.332 . S
C102 H82 0.931 . S
C102 C101 1.332 . S
C102 C103 1.267 . S
C103 H71 0.929 1_655 S
C103 C102 1.267 . S
C103 C104 1.251 . S
C104 H74 0.929 . S
C104 N100 1.418 . S
C104 C103 1.251 . S
C105 H72 0.930 . S
C105 C107 1.406 . S
C105 C110 1.261 . S
C106 H73 0.930 . S
C106 N108 1.325 . S
C106 C109 1.357 . S
C107 H75 0.928 . S
C107 C105 1.406 . S
C107 N108 1.261 . S
N108 Co59 2.214 . S
N108 C106 1.325 . S
N108 C107 1.261 . S
C109 H79 0.931 . S
C109 C106 1.357 . S
C109 C110 1.312 . S
C110 H81 0.930 1_554 S
C110 C105 1.261 . S
C110 C109 1.312 . S
C111 O83 1.214 . S
C111 O91 1.234 . S
C112 H84 0.929 . S
C112 C115 1.391 . S
C112 C117 1.391 . S
C113 H85 0.929 . S
C113 C114 1.390 . S
C113 N116 1.391 . S
C114 H86 0.930 . S
C114 C113 1.390 . S
C114 C115 1.392 . S
C115 H87 0.929 . S
C115 C112 1.391 . S
C115 C114 1.392 . S
N116 Co60 2.257 . S
N116 C113 1.391 . S
N116 C117 1.388 . S
C117 H88 0.930 . S
C117 C112 1.391 . S
C117 N116 1.388 . S
Co118 O120 2.143 . S
Co118 O126 2.074 . S
Co118 O129 2.093 . S
Co118 O142 2.097 . S
Co118 N159 2.151 . S
Co118 N167 2.214 . S
Co119 O120 2.160 . S
Co119 O125 2.058 . S
Co119 O135 2.057 . S
Co119 O150 2.037 . S
Co119 N154 2.145 . S
Co119 N175 2.257 . S
O120 Co118 2.143 . S
O120 Co119 2.160 . S
C121 O122 1.278 . S
C121 O129 1.224 . S
O122 C121 1.278 . S
C123 O124 1.245 . S
C123 O135 1.232 . S
O124 C123 1.245 . S
O125 Co119 2.058 . S
O125 C151 1.269 . S
O126 Co118 2.074 . S
O126 C151 1.257 . S
H127 C152 0.930 . S
H128 C158 0.930 . S
O129 Co118 2.093 . S
O129 C121 1.224 . S
H130 C162 0.929 1_545 S
H131 C164 0.930 . S
H132 C165 0.930 . S
H133 C163 0.929 . S
H134 C166 0.928 . S
O135 Co119 2.057 . S
O135 C123 1.232 . S
H136 C155 0.929 . S
H137 C156 0.929 . S
H138 C168 0.931 . S
H139 C160 0.929 . S
H140 C169 0.930 . S
H141 C161 0.931 . S
O142 Co118 2.097 . S
O142 C170 1.214 . S
H143 C171 0.929 . S
H144 C172 0.929 . S
H145 C173 0.930 . S
H146 C174 0.929 . S
H147 C176 0.930 . S
H148 C153 0.930 . S
H149 C157 0.930 . S
O150 Co119 2.037 . S
O150 C170 1.234 . S
C151 O125 1.269 . S
C151 O126 1.257 . S
C152 H127 0.930 . S
C152 C155 1.388 . S
C152 C157 1.418 . S
C153 H148 0.930 . S
C153 C156 1.404 . S
C153 C157 1.353 . S
N154 Co119 2.145 . S
N154 C155 1.397 . S
N154 C156 1.334 . S
C155 H136 0.929 . S
C155 C152 1.388 . S
C155 N154 1.397 . S
C156 H137 0.929 . S
C156 C153 1.404 . S
C156 N154 1.334 . S
C157 H149 0.930 . S
C157 C152 1.418 . S
C157 C153 1.353 . S
C158 H128 0.930 . S
C158 N159 1.330 . S
C158 C160 1.446 . S
N159 Co118 2.151 . S
N159 C158 1.330 . S
N159 C163 1.418 . S
C160 H139 0.929 . S
C160 C158 1.446 . S
C160 C161 1.332 . S
C161 H141 0.931 . S
C161 C160 1.332 . S
C161 C162 1.267 . S
C162 H130 0.929 1_565 S
C162 C161 1.267 . S
C162 C163 1.251 . S
C163 H133 0.929 . S
C163 N159 1.418 . S
C163 C162 1.251 . S
C164 H131 0.930 . S
C164 C166 1.406 . S
C164 C169 1.261 . S
C165 H132 0.930 . S
C165 N167 1.325 . S
C165 C168 1.357 . S
C166 H134 0.928 . S
C166 C164 1.406 . S
C166 N167 1.261 . S
N167 Co118 2.214 . S
N167 C165 1.325 . S
N167 C166 1.261 . S
C168 H138 0.931 . S
C168 C165 1.357 . S
C168 C169 1.312 . S
C169 H140 0.930 . S
C169 C164 1.261 . S
C169 C168 1.312 . S
C170 O142 1.214 . S
C170 O150 1.234 . S
C171 H143 0.929 . S
C171 C174 1.391 . S
C171 C176 1.391 . S
C172 H144 0.929 . S
C172 C173 1.390 . S
C172 N175 1.391 . S
C173 H145 0.930 . S
C173 C172 1.390 . S
C173 C174 1.392 . S
C174 H146 0.929 . S
C174 C171 1.391 . S
C174 C173 1.392 . S
N175 Co119 2.257 . S
N175 C172 1.391 . S
N175 C176 1.388 . S
C176 H147 0.930 . S
C176 C171 1.391 . S
C176 N175 1.388 . S
Co177 O179 2.143 1_556 S
Co177 O185 2.074 . S
Co177 O188 2.093 . S
Co177 O201 2.097 . S
Co177 N218 2.151 1_556 S
Co177 N226 2.214 . S
Co178 O179 2.160 . S
Co178 O184 2.058 . S
Co178 O194 2.057 . S
Co178 O209 2.037 1_554 S
Co178 N213 2.145 . S
Co178 N234 2.257 . S
O179 Co177 2.143 1_554 S
O179 Co178 2.160 . S
C180 O181 1.278 . S
C180 O188 1.224 1_554 S
O181 C180 1.278 . S
C182 O183 1.245 . S
C182 O194 1.232 . S
O183 C182 1.245 . S
O184 Co178 2.058 . S
O184 C210 1.269 . S
O185 Co177 2.074 . S
O185 C210 1.257 1_556 S
H186 C211 0.930 1_556 S
H187 C217 0.930 . S
O188 Co177 2.093 . S
O188 C180 1.224 1_556 S
H189 C221 0.929 . S
H190 C223 0.930 . S
H191 C224 0.930 . S
H192 C222 0.929 . S
H193 C225 0.928 . S
O194 Co178 2.057 . S
O194 C182 1.232 . S
H195 C214 0.929 1_556 S
H196 C215 0.929 . S
H197 C227 0.931 . S
H198 C219 0.929 . S
H199 C228 0.930 . S
H200 C220 0.931 . S
O201 Co177 2.097 . S
O201 C229 1.214 . S
H202 C230 0.929 . S
H203 C231 0.934 . S
H204 C232 0.930 . S
H205 C233 0.929 . S
H206 C235 0.930 . S
H207 C212 0.930 . S
H208 C216 0.930 . S
O209 Co178 2.037 1_556 S
O209 C229 1.234 . S
C210 O184 1.269 . S
C210 O185 1.257 1_554 S
C211 H186 0.930 1_554 S
C211 C214 1.388 . S
C211 C216 1.418 . S
C212 H207 0.930 . S
C212 C215 1.404 . S
C212 C216 1.353 . S
N213 Co178 2.145 . S
N213 C214 1.397 . S
N213 C215 1.334 . S
C214 H195 0.929 1_554 S
C214 C211 1.388 . S
C214 N213 1.397 . S
C215 H196 0.929 . S
C215 C212 1.404 . S
C215 N213 1.334 . S
C216 H208 0.930 . S
C216 C211 1.418 . S
C216 C212 1.353 . S
C217 H187 0.930 . S
C217 N218 1.330 . S
C217 C219 1.446 . S
N218 Co177 2.151 1_554 S
N218 C217 1.330 . S
N218 C222 1.418 . S
C219 H198 0.929 . S
C219 C217 1.446 . S
C219 C220 1.332 . S
C220 H200 0.931 . S
C220 C219 1.332 . S
C220 C221 1.267 . S
C221 H189 0.929 . S
C221 C220 1.267 . S
C221 C222 1.251 . S
C222 H192 0.929 . S
C222 N218 1.418 . S
C222 C221 1.251 . S
C223 H190 0.930 . S
C223 C225 1.406 . S
C223 C228 1.261 . S
C224 H191 0.930 . S
C224 N226 1.325 . S
C224 C227 1.357 . S
C225 H193 0.928 . S
C225 C223 1.406 . S
C225 N226 1.261 . S
N226 Co177 2.214 . S
N226 C224 1.325 . S
N226 C225 1.261 . S
C227 H197 0.931 . S
C227 C224 1.357 . S
C227 C228 1.312 . S
C228 H199 0.930 . S
C228 C223 1.261 . S
C228 C227 1.312 . S
C229 O201 1.214 . S
C229 O209 1.234 . S
C230 H202 0.929 . S
C230 C233 1.391 . S
C230 C235 1.391 . S
C231 H203 0.934 . S
C231 C232 1.391 . S
C231 N234 1.385 1_556 S
C232 H204 0.930 . S
C232 C231 1.391 . S
C232 C233 1.392 1_556 S
C233 H205 0.929 . S
C233 C230 1.391 . S
C233 C232 1.392 1_554 S
N234 Co178 2.257 . S
N234 C231 1.385 1_554 S
N234 C235 1.388 . S
C235 H206 0.930 . S
C235 C230 1.391 . S
C235 N234 1.388 . S
Co236 O238 2.143 . S
Co236 O244 2.074 . S
Co236 O247 2.093 . S
Co236 O260 2.097 . S
Co236 N277 2.151 . S
Co236 N285 2.214 . S
Co237 O238 2.160 . S
Co237 O243 2.058 . S
Co237 O253 2.057 . S
Co237 O268 2.037 . S
Co237 N272 2.145 . S
Co237 N293 2.257 . S
O238 Co236 2.143 . S
O238 Co237 2.160 . S
C239 O240 1.278 . S
C239 O247 1.224 . S
O240 C239 1.278 . S
C241 O242 1.245 . S
C241 O253 1.232 . S
O242 C241 1.245 . S
O243 Co237 2.058 . S
O243 C269 1.269 . S
O244 Co236 2.074 . S
O244 C269 1.257 . S
H245 C270 0.930 . S
H246 C276 0.930 . S
O247 Co236 2.093 . S
O247 C239 1.224 . S
H248 C280 0.929 1_655 S
H249 C282 0.930 . S
H250 C283 0.930 . S
H251 C281 0.929 . S
H252 C284 0.928 . S
O253 Co237 2.057 . S
O253 C241 1.232 . S
H254 C273 0.929 . S
H255 C274 0.929 . S
H256 C286 0.931 . S
H257 C278 0.929 . S
H258 C287 0.930 1_556 S
H259 C279 0.931 . S
O260 Co236 2.097 . S
O260 C288 1.214 . S
H261 C289 0.929 . S
H262 C290 0.929 . S
H263 C291 0.930 . S
H264 C292 0.929 . S
H265 C294 0.930 . S
H266 C271 0.930 . S
H267 C275 0.930 . S
O268 Co237 2.037 . S
O268 C288 1.234 . S
C269 O243 1.269 . S
C269 O244 1.257 . S
C270 H245 0.930 . S
C270 C273 1.388 . S
C270 C275 1.418 . S
C271 H266 0.930 . S
C271 C274 1.404 . S
C271 C275 1.353 . S
N272 Co237 2.145 . S
N272 C273 1.397 . S
N272 C274 1.334 . S
C273 H254 0.929 . S
C273 C270 1.388 . S
C273 N272 1.397 . S
C274 H255 0.929 . S
C274 C271 1.404 . S
C274 N272 1.334 . S
C275 H267 0.930 . S
C275 C270 1.418 . S
C275 C271 1.353 . S
C276 H246 0.930 . S
C276 N277 1.330 . S
C276 C278 1.446 . S
N277 Co236 2.151 . S
N277 C276 1.330 . S
N277 C281 1.418 . S
C278 H257 0.929 . S
C278 C276 1.446 . S
C278 C279 1.332 . S
C279 H259 0.931 . S
C279 C278 1.332 . S
C279 C280 1.267 . S
C280 H248 0.929 1_455 S
C280 C279 1.267 . S
C280 C281 1.251 . S
C281 H251 0.929 . S
C281 N277 1.418 . S
C281 C280 1.251 . S
C282 H249 0.930 . S
C282 C284 1.406 . S
C282 C287 1.261 . S
C283 H250 0.930 . S
C283 N285 1.325 . S
C283 C286 1.357 . S
C284 H252 0.928 . S
C284 C282 1.406 . S
C284 N285 1.261 . S
N285 Co236 2.214 . S
N285 C283 1.325 . S
N285 C284 1.261 . S
C286 H256 0.931 . S
C286 C283 1.357 . S
C286 C287 1.312 . S
C287 H258 0.930 1_554 S
C287 C282 1.261 . S
C287 C286 1.312 . S
C288 O260 1.214 . S
C288 O268 1.234 . S
C289 H261 0.929 . S
C289 C292 1.391 . S
C289 C294 1.391 . S
C290 H262 0.929 . S
C290 C291 1.390 . S
C290 N293 1.391 . S
C291 H263 0.930 . S
C291 C290 1.390 . S
C291 C292 1.392 . S
C292 H264 0.929 . S
C292 C289 1.391 . S
C292 C291 1.392 . S
N293 Co237 2.257 . S
N293 C290 1.391 . S
N293 C294 1.388 . S
C294 H265 0.930 . S
C294 C289 1.391 . S
C294 N293 1.388 . S
Co295 O297 2.143 . S
Co295 O303 2.074 . S
Co295 O306 2.093 . S
Co295 O319 2.097 . S
Co295 N336 2.151 . S
Co295 N344 2.214 . S
Co296 O297 2.160 . S
Co296 O302 2.058 . S
Co296 O312 2.057 . S
Co296 O327 2.037 . S
Co296 N331 2.145 . S
Co296 N352 2.257 . S
O297 Co295 2.143 . S
O297 Co296 2.160 . S
C298 O299 1.278 . S
C298 O306 1.224 . S
O299 C298 1.278 . S
C300 O301 1.245 . S
C300 O312 1.232 . S
O301 C300 1.245 . S
O302 Co296 2.058 . S
O302 C328 1.269 . S
O303 Co295 2.074 . S
O303 C328 1.257 . S
H304 C329 0.930 . S
H305 C335 0.930 . S
O306 Co295 2.093 . S
O306 C298 1.224 . S
H307 C339 0.929 1_565 S
H308 C341 0.930 . S
H309 C342 0.930 . S
H310 C340 0.929 . S
H311 C343 0.928 . S
O312 Co296 2.057 . S
O312 C300 1.232 . S
H313 C332 0.929 . S
H314 C333 0.929 . S
H315 C345 0.931 . S
H316 C337 0.929 . S
H317 C346 0.930 . S
H318 C338 0.931 . S
O319 Co295 2.097 . S
O319 C347 1.214 . S
H320 C348 0.929 . S
H321 C349 0.929 . S
H322 C350 0.930 . S
H323 C351 0.929 . S
H324 C353 0.930 . S
H325 C330 0.930 . S
H326 C334 0.930 . S
O327 Co296 2.037 . S
O327 C347 1.234 . S
C328 O302 1.269 . S
C328 O303 1.257 . S
C329 H304 0.930 . S
C329 C332 1.388 . S
C329 C334 1.418 . S
C330 H325 0.930 . S
C330 C333 1.404 . S
C330 C334 1.353 . S
N331 Co296 2.145 . S
N331 C332 1.397 . S
N331 C333 1.334 . S
C332 H313 0.929 . S
C332 C329 1.388 . S
C332 N331 1.397 . S
C333 H314 0.929 . S
C333 C330 1.404 . S
C333 N331 1.334 . S
C334 H326 0.930 . S
C334 C329 1.418 . S
C334 C330 1.353 . S
C335 H305 0.930 . S
C335 N336 1.330 . S
C335 C337 1.446 . S
N336 Co295 2.151 . S
N336 C335 1.330 . S
N336 C340 1.418 . S
C337 H316 0.929 . S
C337 C335 1.446 . S
C337 C338 1.332 . S
C338 H318 0.931 . S
C338 C337 1.332 . S
C338 C339 1.267 . S
C339 H307 0.929 1_545 S
C339 C338 1.267 . S
C339 C340 1.251 . S
C340 H310 0.929 . S
C340 N336 1.418 . S
C340 C339 1.251 . S
C341 H308 0.930 . S
C341 C343 1.406 . S
C341 C346 1.261 . S
C342 H309 0.930 . S
C342 N344 1.325 . S
C342 C345 1.357 . S
C343 H311 0.928 . S
C343 C341 1.406 . S
C343 N344 1.261 . S
N344 Co295 2.214 . S
N344 C342 1.325 . S
N344 C343 1.261 . S
C345 H315 0.931 . S
C345 C342 1.357 . S
C345 C346 1.312 . S
C346 H317 0.930 . S
C346 C341 1.261 . S
C346 C345 1.312 . S
C347 O319 1.214 . S
C347 O327 1.234 . S
C348 H320 0.929 . S
C348 C351 1.391 . S
C348 C353 1.391 . S
C349 H321 0.929 . S
C349 C350 1.390 . S
C349 N352 1.391 . S
C350 H322 0.930 . S
C350 C349 1.390 . S
C350 C351 1.392 . S
C351 H323 0.929 . S
C351 C348 1.391 . S
C351 C350 1.392 . S
N352 Co296 2.257 . S
N352 C349 1.391 . S
N352 C353 1.388 . S
C353 H324 0.930 . S
C353 C348 1.391 . S
C353 N352 1.388 . S
Co354 O356 2.143 . S
Co354 O362 2.074 . S
Co354 O365 2.093 . S
Co354 O378 2.097 . S
Co354 N395 2.151 . S
Co354 N403 2.214 . S
Co355 O356 2.160 . S
Co355 O361 2.058 . S
Co355 O371 2.057 . S
Co355 O386 2.037 . S
Co355 N390 2.145 . S
Co355 N411 2.257 . S
O356 Co354 2.143 . S
O356 Co355 2.160 . S
C357 O358 1.278 . S
C357 O365 1.224 . S
O358 C357 1.278 . S
C359 O360 1.245 . S
C359 O371 1.232 . S
O360 C359 1.245 . S
O361 Co355 2.058 . S
O361 C387 1.269 . S
O362 Co354 2.074 . S
O362 C387 1.257 . S
H363 C388 0.930 . S
H364 C394 0.930 . S
O365 Co354 2.093 . S
O365 C357 1.224 . S
H366 C398 0.929 . S
H367 C400 0.930 . S
H368 C401 0.930 . S
H369 C399 0.929 . S
H370 C402 0.928 . S
O371 Co355 2.057 . S
O371 C359 1.232 . S
H372 C391 0.929 . S
H373 C392 0.929 . S
H374 C404 0.931 . S
H375 C396 0.929 . S
H376 C405 0.930 1_554 S
H377 C397 0.931 . S
O378 Co354 2.097 . S
O378 C406 1.214 . S
H379 C407 0.929 . S
H380 C408 0.929 . S
H381 C409 0.930 . S
H382 C410 0.929 . S
H383 C412 0.930 . S
H384 C389 0.930 . S
H385 C393 0.930 . S
O386 Co355 2.037 . S
O386 C406 1.234 . S
C387 O361 1.269 . S
C387 O362 1.257 . S
C388 H363 0.930 . S
C388 C391 1.388 . S
C388 C393 1.418 . S
C389 H384 0.930 . S
C389 C392 1.404 . S
C389 C393 1.353 . S
N390 Co355 2.145 . S
N390 C391 1.397 . S
N390 C392 1.334 . S
C391 H372 0.929 . S
C391 C388 1.388 . S
C391 N390 1.397 . S
C392 H373 0.929 . S
C392 C389 1.404 . S
C392 N390 1.334 . S
C393 H385 0.930 . S
C393 C388 1.418 . S
C393 C389 1.353 . S
C394 H364 0.930 . S
C394 N395 1.330 . S
C394 C396 1.446 . S
N395 Co354 2.151 . S
N395 C394 1.330 . S
N395 C399 1.418 . S
C396 H375 0.929 . S
C396 C394 1.446 . S
C396 C397 1.332 . S
C397 H377 0.931 . S
C397 C396 1.332 . S
C397 C398 1.267 . S
C398 H366 0.929 . S
C398 C397 1.267 . S
C398 C399 1.251 . S
C399 H369 0.929 . S
C399 N395 1.418 . S
C399 C398 1.251 . S
C400 H367 0.930 . S
C400 C402 1.406 . S
C400 C405 1.261 . S
C401 H368 0.930 . S
C401 N403 1.325 . S
C401 C404 1.357 . S
C402 H370 0.928 . S
C402 C400 1.406 . S
C402 N403 1.261 . S
N403 Co354 2.214 . S
N403 C401 1.325 . S
N403 C402 1.261 . S
C404 H374 0.931 . S
C404 C401 1.357 . S
C404 C405 1.312 . S
C405 H376 0.930 1_556 S
C405 C400 1.261 . S
C405 C404 1.312 . S
C406 O378 1.214 . S
C406 O386 1.234 . S
C407 H379 0.929 . S
C407 C410 1.391 . S
C407 C412 1.391 . S
C408 H380 0.929 . S
C408 C409 1.390 . S
C408 N411 1.391 . S
C409 H381 0.930 . S
C409 C408 1.390 . S
C409 C410 1.392 . S
C410 H382 0.929 . S
C410 C407 1.391 . S
C410 C409 1.392 . S
N411 Co355 2.257 . S
N411 C408 1.391 . S
N411 C412 1.388 . S
C412 H383 0.930 . S
C412 C407 1.391 . S
C412 N411 1.388 . S
Co413 O415 2.143 1_554 S
Co413 O421 2.074 . S
Co413 O424 2.093 . S
Co413 O437 2.097 . S
Co413 N454 2.151 1_554 S
Co413 N462 2.214 . S
Co414 O415 2.160 . S
Co414 O420 2.058 . S
Co414 O430 2.057 . S
Co414 O445 2.037 1_556 S
Co414 N449 2.145 . S
Co414 N470 2.257 . S
O415 Co413 2.143 1_556 S
O415 Co414 2.160 . S
C416 O417 1.278 . S
C416 O424 1.224 1_556 S
O417 C416 1.278 . S
C418 O419 1.245 . S
C418 O430 1.232 . S
O419 C418 1.245 . S
O420 Co414 2.058 . S
O420 C446 1.269 . S
O421 Co413 2.074 . S
O421 C446 1.257 1_554 S
H422 C447 0.930 1_554 S
H423 C453 0.930 . S
O424 Co413 2.093 . S
O424 C416 1.224 1_554 S
H425 C457 0.929 1_455 S
H426 C459 0.930 . S
H427 C460 0.930 . S
H428 C458 0.929 . S
H429 C461 0.928 . S
O430 Co414 2.057 . S
O430 C418 1.232 . S
H431 C450 0.929 1_554 S
H432 C451 0.929 . S
H433 C463 0.931 . S
H434 C455 0.929 . S
H435 C464 0.930 . S
H436 C456 0.931 . S
O437 Co413 2.097 . S
O437 C465 1.214 . S
H438 C466 0.929 . S
H439 C467 0.934 . S
H440 C468 0.930 . S
H441 C469 0.929 . S
H442 C471 0.930 . S
H443 C448 0.930 . S
H444 C452 0.930 . S
O445 Co414 2.037 1_554 S
O445 C465 1.234 . S
C446 O420 1.269 . S
C446 O421 1.257 1_556 S
C447 H422 0.930 1_556 S
C447 C450 1.388 . S
C447 C452 1.418 . S
C448 H443 0.930 . S
C448 C451 1.404 . S
C448 C452 1.353 . S
N449 Co414 2.145 . S
N449 C450 1.397 . S
N449 C451 1.334 . S
C450 H431 0.929 1_556 S
C450 C447 1.388 . S
C450 N449 1.397 . S
C451 H432 0.929 . S
C451 C448 1.404 . S
C451 N449 1.334 . S
C452 H444 0.930 . S
C452 C447 1.418 . S
C452 C448 1.353 . S
C453 H423 0.930 . S
C453 N454 1.330 . S
C453 C455 1.446 . S
N454 Co413 2.151 1_556 S
N454 C453 1.330 . S
N454 C458 1.418 . S
C455 H434 0.929 . S
C455 C453 1.446 . S
C455 C456 1.332 . S
C456 H436 0.931 . S
C456 C455 1.332 . S
C456 C457 1.267 . S
C457 H425 0.929 1_655 S
C457 C456 1.267 . S
C457 C458 1.251 . S
C458 H428 0.929 . S
C458 N454 1.418 . S
C458 C457 1.251 . S
C459 H426 0.930 . S
C459 C461 1.406 . S
C459 C464 1.261 . S
C460 H427 0.930 . S
C460 N462 1.325 . S
C460 C463 1.357 . S
C461 H429 0.928 . S
C461 C459 1.406 . S
C461 N462 1.261 . S
N462 Co413 2.214 . S
N462 C460 1.325 . S
N462 C461 1.261 . S
C463 H433 0.931 . S
C463 C460 1.357 . S
C463 C464 1.312 . S
C464 H435 0.930 . S
C464 C459 1.261 . S
C464 C463 1.312 . S
C465 O437 1.214 . S
C465 O445 1.234 . S
C466 H438 0.929 . S
C466 C469 1.391 . S
C466 C471 1.391 . S
C467 H439 0.934 . S
C467 C468 1.391 . S
C467 N470 1.385 1_554 S
C468 H440 0.930 . S
C468 C467 1.391 . S
C468 C469 1.392 1_554 S
C469 H441 0.929 . S
C469 C466 1.391 . S
C469 C468 1.392 1_556 S
N470 Co414 2.257 . S
N470 C467 1.385 1_556 S
N470 C471 1.388 . S
C471 H442 0.930 . S
C471 C466 1.391 . S
C471 N470 1.388 . S
Co472 O474 2.143 . S
Co472 O480 2.074 . S
Co472 O483 2.093 . S
Co472 O496 2.097 . S
Co472 N513 2.151 . S
Co472 N521 2.214 . S
Co473 O474 2.160 . S
Co473 O479 2.058 . S
Co473 O489 2.057 . S
Co473 O504 2.037 . S
Co473 N508 2.145 . S
Co473 N529 2.257 . S
O474 Co472 2.143 . S
O474 Co473 2.160 . S
C475 O476 1.278 . S
C475 O483 1.224 . S
O476 C475 1.278 . S
C477 O478 1.245 . S
C477 O489 1.232 . S
O478 C477 1.245 . S
O479 Co473 2.058 . S
O479 C505 1.269 . S
O480 Co472 2.074 . S
O480 C505 1.257 . S
H481 C506 0.930 . S
H482 C512 0.930 . S
O483 Co472 2.093 . S
O483 C475 1.224 . S
H484 C516 0.929 1_545 S
H485 C518 0.930 . S
H486 C519 0.930 . S
H487 C517 0.929 . S
H488 C520 0.928 . S
O489 Co473 2.057 . S
O489 C477 1.232 . S
H490 C509 0.929 . S
H491 C510 0.929 . S
H492 C522 0.931 . S
H493 C514 0.929 . S
H494 C523 0.930 . S
H495 C515 0.931 . S
O496 Co472 2.097 . S
O496 C524 1.214 . S
H497 C525 0.929 . S
H498 C526 0.929 . S
H499 C527 0.930 . S
H500 C528 0.929 . S
H501 C530 0.930 . S
H502 C507 0.930 . S
H503 C511 0.930 . S
O504 Co473 2.037 . S
O504 C524 1.234 . S
C505 O479 1.269 . S
C505 O480 1.257 . S
C506 H481 0.930 . S
C506 C509 1.388 . S
C506 C511 1.418 . S
C507 H502 0.930 . S
C507 C510 1.404 . S
C507 C511 1.353 . S
N508 Co473 2.145 . S
N508 C509 1.397 . S
N508 C510 1.334 . S
C509 H490 0.929 . S
C509 C506 1.388 . S
C509 N508 1.397 . S
C510 H491 0.929 . S
C510 C507 1.404 . S
C510 N508 1.334 . S
C511 H503 0.930 . S
C511 C506 1.418 . S
C511 C507 1.353 . S
C512 H482 0.930 . S
C512 N513 1.330 . S
C512 C514 1.446 . S
N513 Co472 2.151 . S
N513 C512 1.330 . S
N513 C517 1.418 . S
C514 H493 0.929 . S
C514 C512 1.446 . S
C514 C515 1.332 . S
C515 H495 0.931 . S
C515 C514 1.332 . S
C515 C516 1.267 . S
C516 H484 0.929 1_565 S
C516 C515 1.267 . S
C516 C517 1.251 . S
C517 H487 0.929 . S
C517 N513 1.418 . S
C517 C516 1.251 . S
C518 H485 0.930 . S
C518 C520 1.406 . S
C518 C523 1.261 . S
C519 H486 0.930 . S
C519 N521 1.325 . S
C519 C522 1.357 . S
C520 H488 0.928 . S
C520 C518 1.406 . S
C520 N521 1.261 . S
N521 Co472 2.214 . S
N521 C519 1.325 . S
N521 C520 1.261 . S
C522 H492 0.931 . S
C522 C519 1.357 . S
C522 C523 1.312 . S
C523 H494 0.930 . S
C523 C518 1.261 . S
C523 C522 1.312 . S
C524 O496 1.214 . S
C524 O504 1.234 . S
C525 H497 0.929 . S
C525 C528 1.391 . S
C525 C530 1.391 . S
C526 H498 0.929 . S
C526 C527 1.390 . S
C526 N529 1.391 . S
C527 H499 0.930 . S
C527 C526 1.390 . S
C527 C528 1.392 . S
C528 H500 0.929 . S
C528 C525 1.391 . S
C528 C527 1.392 . S
N529 Co473 2.257 . S
N529 C526 1.391 . S
N529 C530 1.388 . S
C530 H501 0.930 . S
C530 C525 1.391 . S
C530 N529 1.388 . S
Co531 O533 2.143 . S
Co531 O539 2.074 . S
Co531 O542 2.093 . S
Co531 O555 2.097 . S
Co531 N572 2.151 . S
Co531 N580 2.214 . S
Co532 O533 2.160 . S
Co532 O538 2.058 . S
Co532 O548 2.057 . S
Co532 O563 2.037 . S
Co532 N567 2.145 . S
Co532 N588 2.257 . S
O533 Co531 2.143 . S
O533 Co532 2.160 . S
C534 O535 1.278 . S
C534 O542 1.224 . S
O535 C534 1.278 . S
C536 O537 1.245 . S
C536 O548 1.232 . S
O537 C536 1.245 . S
O538 Co532 2.058 . S
O538 C564 1.269 . S
O539 Co531 2.074 . S
O539 C564 1.257 . S
H540 C565 0.930 . S
H541 C571 0.930 . S
O542 Co531 2.093 . S
O542 C534 1.224 . S
H543 C575 0.929 . S
H544 C577 0.930 . S
H545 C578 0.930 . S
H546 C576 0.929 . S
H547 C579 0.928 . S
O548 Co532 2.057 . S
O548 C536 1.232 . S
H549 C568 0.929 . S
H550 C569 0.929 . S
H551 C581 0.931 . S
H552 C573 0.929 . S
H553 C582 0.930 1_554 S
H554 C574 0.931 . S
O555 Co531 2.097 . S
O555 C583 1.214 . S
H556 C584 0.929 . S
H557 C585 0.929 . S
H558 C586 0.930 . S
H559 C587 0.929 . S
H560 C589 0.930 . S
H561 C566 0.930 . S
H562 C570 0.930 . S
O563 Co532 2.037 . S
O563 C583 1.234 . S
C564 O538 1.269 . S
C564 O539 1.257 . S
C565 H540 0.930 . S
C565 C568 1.388 . S
C565 C570 1.418 . S
C566 H561 0.930 . S
C566 C569 1.404 . S
C566 C570 1.353 . S
N567 Co532 2.145 . S
N567 C568 1.397 . S
N567 C569 1.334 . S
C568 H549 0.929 . S
C568 C565 1.388 . S
C568 N567 1.397 . S
C569 H550 0.929 . S
C569 C566 1.404 . S
C569 N567 1.334 . S
C570 H562 0.930 . S
C570 C565 1.418 . S
C570 C566 1.353 . S
C571 H541 0.930 . S
C571 N572 1.330 . S
C571 C573 1.446 . S
N572 Co531 2.151 . S
N572 C571 1.330 . S
N572 C576 1.418 . S
C573 H552 0.929 . S
C573 C571 1.446 . S
C573 C574 1.332 . S
C574 H554 0.931 . S
C574 C573 1.332 . S
C574 C575 1.267 . S
C575 H543 0.929 . S
C575 C574 1.267 . S
C575 C576 1.251 . S
C576 H546 0.929 . S
C576 N572 1.418 . S
C576 C575 1.251 . S
C577 H544 0.930 . S
C577 C579 1.406 . S
C577 C582 1.261 . S
C578 H545 0.930 . S
C578 N580 1.325 . S
C578 C581 1.357 . S
C579 H547 0.928 . S
C579 C577 1.406 . S
C579 N580 1.261 . S
N580 Co531 2.214 . S
N580 C578 1.325 . S
N580 C579 1.261 . S
C581 H551 0.931 . S
C581 C578 1.357 . S
C581 C582 1.312 . S
C582 H553 0.930 1_556 S
C582 C577 1.261 . S
C582 C581 1.312 . S
C583 O555 1.214 . S
C583 O563 1.234 . S
C584 H556 0.929 . S
C584 C587 1.391 . S
C584 C589 1.391 . S
C585 H557 0.929 . S
C585 C586 1.390 . S
C585 N588 1.391 . S
C586 H558 0.930 . S
C586 C585 1.390 . S
C586 C587 1.392 . S
C587 H559 0.929 . S
C587 C584 1.391 . S
C587 C586 1.392 . S
N588 Co532 2.257 . S
N588 C585 1.391 . S
N588 C589 1.388 . S
C589 H560 0.930 . S
C589 C584 1.391 . S
C589 N588 1.388 . S
Co590 O592 2.143 1_554 S
Co590 O598 2.074 . S
Co590 O601 2.093 . S
Co590 O614 2.097 . S
Co590 N631 2.151 1_554 S
Co590 N639 2.214 . S
Co591 O592 2.160 . S
Co591 O597 2.058 . S
Co591 O607 2.057 . S
Co591 O622 2.037 1_556 S
Co591 N626 2.145 . S
Co591 N647 2.257 . S
O592 Co590 2.143 1_556 S
O592 Co591 2.160 . S
C593 O594 1.278 . S
C593 O601 1.224 1_556 S
O594 C593 1.278 . S
C595 O596 1.245 . S
C595 O607 1.232 . S
O596 C595 1.245 . S
O597 Co591 2.058 . S
O597 C623 1.269 . S
O598 Co590 2.074 . S
O598 C623 1.257 1_554 S
H599 C624 0.930 1_554 S
H600 C630 0.930 . S
O601 Co590 2.093 . S
O601 C593 1.224 1_554 S
H602 C634 0.929 1_655 S
H603 C636 0.930 . S
H604 C637 0.930 . S
H605 C635 0.929 . S
H606 C638 0.928 . S
O607 Co591 2.057 . S
O607 C595 1.232 . S
H608 C627 0.929 1_554 S
H609 C628 0.929 . S
H610 C640 0.931 . S
H611 C632 0.929 . S
H612 C641 0.930 . S
H613 C633 0.931 . S
O614 Co590 2.097 . S
O614 C642 1.214 . S
H615 C643 0.929 . S
H616 C644 0.934 . S
H617 C645 0.930 . S
H618 C646 0.929 . S
H619 C648 0.930 . S
H620 C625 0.930 . S
H621 C629 0.930 . S
O622 Co591 2.037 1_554 S
O622 C642 1.234 . S
C623 O597 1.269 . S
C623 O598 1.257 1_556 S
C624 H599 0.930 1_556 S
C624 C627 1.388 . S
C624 C629 1.418 . S
C625 H620 0.930 . S
C625 C628 1.404 . S
C625 C629 1.353 . S
N626 Co591 2.145 . S
N626 C627 1.397 . S
N626 C628 1.334 . S
C627 H608 0.929 1_556 S
C627 C624 1.388 . S
C627 N626 1.397 . S
C628 H609 0.929 . S
C628 C625 1.404 . S
C628 N626 1.334 . S
C629 H621 0.930 . S
C629 C624 1.418 . S
C629 C625 1.353 . S
C630 H600 0.930 . S
C630 N631 1.330 . S
C630 C632 1.446 . S
N631 Co590 2.151 1_556 S
N631 C630 1.330 . S
N631 C635 1.418 . S
C632 H611 0.929 . S
C632 C630 1.446 . S
C632 C633 1.332 . S
C633 H613 0.931 . S
C633 C632 1.332 . S
C633 C634 1.267 . S
C634 H602 0.929 1_455 S
C634 C633 1.267 . S
C634 C635 1.251 . S
C635 H605 0.929 . S
C635 N631 1.418 . S
C635 C634 1.251 . S
C636 H603 0.930 . S
C636 C638 1.406 . S
C636 C641 1.261 . S
C637 H604 0.930 . S
C637 N639 1.325 . S
C637 C640 1.357 . S
C638 H606 0.928 . S
C638 C636 1.406 . S
C638 N639 1.261 . S
N639 Co590 2.214 . S
N639 C637 1.325 . S
N639 C638 1.261 . S
C640 H610 0.931 . S
C640 C637 1.357 . S
C640 C641 1.312 . S
C641 H612 0.930 . S
C641 C636 1.261 . S
C641 C640 1.312 . S
C642 O614 1.214 . S
C642 O622 1.234 . S
C643 H615 0.929 . S
C643 C646 1.391 . S
C643 C648 1.391 . S
C644 H616 0.934 . S
C644 C645 1.391 . S
C644 N647 1.385 1_554 S
C645 H617 0.930 . S
C645 C644 1.391 . S
C645 C646 1.392 1_554 S
C646 H618 0.929 . S
C646 C643 1.391 . S
C646 C645 1.392 1_556 S
N647 Co591 2.257 . S
N647 C644 1.385 1_556 S
N647 C648 1.388 . S
C648 H619 0.930 . S
C648 C643 1.391 . S
C648 N647 1.388 . S
Co649 O651 2.143 . S
Co649 O657 2.074 . S
Co649 O660 2.093 . S
Co649 O673 2.097 . S
Co649 N690 2.151 . S
Co649 N698 2.214 . S
Co650 O651 2.160 . S
Co650 O656 2.058 . S
Co650 O666 2.057 . S
Co650 O681 2.037 . S
Co650 N685 2.145 . S
Co650 N706 2.257 . S
O651 Co649 2.143 . S
O651 Co650 2.160 . S
C652 O653 1.278 . S
C652 O660 1.224 . S
O653 C652 1.278 . S
C654 O655 1.245 . S
C654 O666 1.232 . S
O655 C654 1.245 . S
O656 Co650 2.058 . S
O656 C682 1.269 . S
O657 Co649 2.074 . S
O657 C682 1.257 . S
H658 C683 0.930 . S
H659 C689 0.930 . S
O660 Co649 2.093 . S
O660 C652 1.224 . S
H661 C693 0.929 1_565 S
H662 C695 0.930 . S
H663 C696 0.930 . S
H664 C694 0.929 . S
H665 C697 0.928 . S
O666 Co650 2.057 . S
O666 C654 1.232 . S
H667 C686 0.929 . S
H668 C687 0.929 . S
H669 C699 0.931 . S
H670 C691 0.929 . S
H671 C700 0.930 . S
H672 C692 0.931 . S
O673 Co649 2.097 . S
O673 C701 1.214 . S
H674 C702 0.929 . S
H675 C703 0.929 . S
H676 C704 0.930 . S
H677 C705 0.929 . S
H678 C707 0.930 . S
H679 C684 0.930 . S
H680 C688 0.930 . S
O681 Co650 2.037 . S
O681 C701 1.234 . S
C682 O656 1.269 . S
C682 O657 1.257 . S
C683 H658 0.930 . S
C683 C686 1.388 . S
C683 C688 1.418 . S
C684 H679 0.930 . S
C684 C687 1.404 . S
C684 C688 1.353 . S
N685 Co650 2.145 . S
N685 C686 1.397 . S
N685 C687 1.334 . S
C686 H667 0.929 . S
C686 C683 1.388 . S
C686 N685 1.397 . S
C687 H668 0.929 . S
C687 C684 1.404 . S
C687 N685 1.334 . S
C688 H680 0.930 . S
C688 C683 1.418 . S
C688 C684 1.353 . S
C689 H659 0.930 . S
C689 N690 1.330 . S
C689 C691 1.446 . S
N690 Co649 2.151 . S
N690 C689 1.330 . S
N690 C694 1.418 . S
C691 H670 0.929 . S
C691 C689 1.446 . S
C691 C692 1.332 . S
C692 H672 0.931 . S
C692 C691 1.332 . S
C692 C693 1.267 . S
C693 H661 0.929 1_545 S
C693 C692 1.267 . S
C693 C694 1.251 . S
C694 H664 0.929 . S
C694 N690 1.418 . S
C694 C693 1.251 . S
C695 H662 0.930 . S
C695 C697 1.406 . S
C695 C700 1.261 . S
C696 H663 0.930 . S
C696 N698 1.325 . S
C696 C699 1.357 . S
C697 H665 0.928 . S
C697 C695 1.406 . S
C697 N698 1.261 . S
N698 Co649 2.214 . S
N698 C696 1.325 . S
N698 C697 1.261 . S
C699 H669 0.931 . S
C699 C696 1.357 . S
C699 C700 1.312 . S
C700 H671 0.930 . S
C700 C695 1.261 . S
C700 C699 1.312 . S
C701 O673 1.214 . S
C701 O681 1.234 . S
C702 H674 0.929 . S
C702 C705 1.391 . S
C702 C707 1.391 . S
C703 H675 0.929 . S
C703 C704 1.390 . S
C703 N706 1.391 . S
C704 H676 0.930 . S
C704 C703 1.390 . S
C704 C705 1.392 . S
C705 H677 0.929 . S
C705 C702 1.391 . S
C705 C704 1.392 . S
N706 Co650 2.257 . S
N706 C703 1.391 . S
N706 C707 1.388 . S
C707 H678 0.930 . S
C707 C702 1.391 . S
C707 N706 1.388 . S
C5 C359 1.590 . S
C64 C418 1.590 . S
C123 C477 1.590 1_556 S
C182 C536 1.590 . S
C241 C595 1.590 . S
C654 C300 1.590 1_554 S
C3 C593 1.403 1_554 S
C62 C652 1.404 . S
C121 C357 1.405 . S
C180 C416 1.403 1_554 S
C239 C475 1.404 . S
C298 C534 1.405 . S
C33 C210 1.787 . S
C92 C269 1.796 1_655 S
C328 C151 1.796 1_545 S
C387 C564 1.798 . S
C623 C446 1.790 1_455 S
C505 C682 1.788 1_565 S
C406 C52 1.172 . S
C111 C465 1.172 . S
C170 C524 1.172 . S
C583 C229 1.172 . S
C642 C288 1.172 . S
C347 C701 1.172 . S
