# Generated by pormake.
# Topology pcb, (4)-cn, num edge types: 1
# Building blocks:
#     Node 0, Type 0, BuildingBlock: QUQFOY_clean_sbu_3, # of connection points: 4
#     Node 1, Type 0, BuildingBlock: QUQFOY_clean_sbu_3, # of connection points: 4
#     Node 2, Type 0, BuildingBlock: QUQFOY_clean_sbu_3, # of connection points: 4
#     Node 3, Type 0, BuildingBlock: QUQFOY_clean_sbu_3, # of connection points: 4
#     Node 4, Type 0, BuildingBlock: QUQFOY_clean_sbu_3, # of connection points: 4
#     Node 5, Type 0, BuildingBlock: QUQFOY_clean_sbu_3, # of connection points: 4
#     Node 6, Type 0, BuildingBlock: QUQFOY_clean_sbu_3, # of connection points: 4
#     Node 7, Type 0, BuildingBlock: QUQFOY_clean_sbu_3, # of connection points: 4
#     Node 8, Type 0, BuildingBlock: QUQFOY_clean_sbu_3, # of connection points: 4
#     Node 9, Type 0, BuildingBlock: QUQFOY_clean_sbu_3, # of connection points: 4
#     Node 10, Type 0, BuildingBlock: QUQFOY_clean_sbu_3, # of connection points: 4
#     Node 11, Type 0, BuildingBlock: QUQFOY_clean_sbu_3, # of connection points: 4
#     Node 12, Type 0, BuildingBlock: QUQFOY_clean_sbu_3, # of connection points: 4
#     Node 13, Type 0, BuildingBlock: QUQFOY_clean_sbu_3, # of connection points: 4
#     Node 14, Type 0, BuildingBlock: QUQFOY_clean_sbu_3, # of connection points: 4
#     Node 15, Type 0, BuildingBlock: QUQFOY_clean_sbu_3, # of connection points: 4
#     Edge 16, Type (0, 0), BuildingBlock: EZIPEK_clean_linker_0, # of connection points: 2
#     Edge 17, Type (0, 0), BuildingBlock: EZIPEK_clean_linker_0, # of connection points: 2
#     Edge 18, Type (0, 0), BuildingBlock: EZIPEK_clean_linker_0, # of connection points: 2
#     Edge 19, Type (0, 0), BuildingBlock: EZIPEK_clean_linker_0, # of connection points: 2
#     Edge 20, Type (0, 0), BuildingBlock: EZIPEK_clean_linker_0, # of connection points: 2
#     Edge 21, Type (0, 0), BuildingBlock: EZIPEK_clean_linker_0, # of connection points: 2
#     Edge 22, Type (0, 0), BuildingBlock: EZIPEK_clean_linker_0, # of connection points: 2
#     Edge 23, Type (0, 0), BuildingBlock: EZIPEK_clean_linker_0, # of connection points: 2
#     Edge 24, Type (0, 0), BuildingBlock: EZIPEK_clean_linker_0, # of connection points: 2
#     Edge 25, Type (0, 0), BuildingBlock: EZIPEK_clean_linker_0, # of connection points: 2
#     Edge 26, Type (0, 0), BuildingBlock: EZIPEK_clean_linker_0, # of connection points: 2
#     Edge 27, Type (0, 0), BuildingBlock: EZIPEK_clean_linker_0, # of connection points: 2
#     Edge 28, Type (0, 0), BuildingBlock: EZIPEK_clean_linker_0, # of connection points: 2
#     Edge 29, Type (0, 0), BuildingBlock: EZIPEK_clean_linker_0, # of connection points: 2
#     Edge 30, Type (0, 0), BuildingBlock: EZIPEK_clean_linker_0, # of connection points: 2
#     Edge 31, Type (0, 0), BuildingBlock: EZIPEK_clean_linker_0, # of connection points: 2
#     Edge 32, Type (0, 0), BuildingBlock: EZIPEK_clean_linker_0, # of connection points: 2
#     Edge 33, Type (0, 0), BuildingBlock: EZIPEK_clean_linker_0, # of connection points: 2
#     Edge 34, Type (0, 0), BuildingBlock: EZIPEK_clean_linker_0, # of connection points: 2
#     Edge 35, Type (0, 0), BuildingBlock: EZIPEK_clean_linker_0, # of connection points: 2
#     Edge 36, Type (0, 0), BuildingBlock: EZIPEK_clean_linker_0, # of connection points: 2
#     Edge 37, Type (0, 0), BuildingBlock: EZIPEK_clean_linker_0, # of connection points: 2
#     Edge 38, Type (0, 0), BuildingBlock: EZIPEK_clean_linker_0, # of connection points: 2
#     Edge 39, Type (0, 0), BuildingBlock: EZIPEK_clean_linker_0, # of connection points: 2
#     Edge 40, Type (0, 0), BuildingBlock: EZIPEK_clean_linker_0, # of connection points: 2
#     Edge 41, Type (0, 0), BuildingBlock: EZIPEK_clean_linker_0, # of connection points: 2
#     Edge 42, Type (0, 0), BuildingBlock: EZIPEK_clean_linker_0, # of connection points: 2
#     Edge 43, Type (0, 0), BuildingBlock: EZIPEK_clean_linker_0, # of connection points: 2
#     Edge 44, Type (0, 0), BuildingBlock: EZIPEK_clean_linker_0, # of connection points: 2
#     Edge 45, Type (0, 0), BuildingBlock: EZIPEK_clean_linker_0, # of connection points: 2
#     Edge 46, Type (0, 0), BuildingBlock: EZIPEK_clean_linker_0, # of connection points: 2
#     Edge 47, Type (0, 0), BuildingBlock: EZIPEK_clean_linker_0, # of connection points: 2
# Relax obj value: 0.312
# Max RMSD: 0.172
# Mean RMSD: 0.172
data_MOF--net-pcb--node1-QUQFOY_clean_sbu_3--edge1-EZIPEK_clean_linker_0
_symmetry_space_group_name_H-M    P1
_symmetry_Int_Tables_number       1
_symmetry_cell_setting            triclinic
loop_
_symmetry_equiv_pos_as_xyz
'x, y, z'
_cell_length_a     30.544965
_cell_length_b     37.645809
_cell_length_c     37.91491
_cell_angle_alpha  89.895197
_cell_angle_beta   89.929093
_cell_angle_gamma 90.128471
loop_
_atom_site_label
_atom_site_type_symbol
_atom_site_fract_x
_atom_site_fract_y
_atom_site_fract_z
_atom_type_partial_charge
C0 C 0.07289 0.103 0.1007 0.0
O1 O 0.08012 0.08329 0.07404 0.0
Cd2 Cd 0.14596 0.05502 0.05255 0.0
O3 O 0.10325 0.11164 0.12222 0.0
Cd4 Cd 0.18279 0.10045 0.13088 0.0
C5 C 0.21275 0.12837 0.04593 0.0
O6 O 0.18134 0.04452 0.10548 0.0
O7 O 0.21324 0.04202 0.15531 0.0
O8 O 0.16856 0.12356 0.18923 0.0
C9 C 0.19955 0.0256 0.12835 0.0
O10 O 0.19075 0.10369 0.03125 0.0
C11 C 0.20521 0.13949 0.19178 0.0
O12 O 0.21474 0.13174 0.07939 0.0
O13 O 0.23197 0.13673 0.16616 0.0
C14 C 0.89186 0.14518 0.11288 0.0
O15 O 0.87772 0.17571 0.1056 0.0
Cd16 Cd 0.80056 0.15498 0.10497 0.0
O17 O 0.86345 0.12158 0.11911 0.0
Cd18 Cd 0.78776 0.15325 0.11144 0.0
C19 C 0.76669 0.08177 0.1331 0.0
O20 O 0.78423 0.16734 0.04672 0.0
O21 O 0.73136 0.13562 0.06577 0.0
O22 O 0.80892 0.21522 0.12826 0.0
C23 C 0.74902 0.15124 0.03972 0.0
O24 O 0.79163 0.08779 0.1071 0.0
C25 C 0.77601 0.21965 0.14814 0.0
O26 O 0.75198 0.10845 0.14937 0.0
O27 O 0.7488 0.19425 0.15054 0.0
C28 C 0.89881 0.86626 0.12008 0.0
O29 O 0.89568 0.89905 0.11253 0.0
Cd30 Cd 0.82844 0.92897 0.10583 0.0
O31 O 0.86588 0.84885 0.1318 0.0
Cd32 Cd 0.78881 0.86253 0.15165 0.0
C33 C 0.77267 0.85967 0.06434 0.0
O34 O 0.79873 0.92419 0.16287 0.0
O35 O 0.73124 0.90932 0.15746 0.0
O36 O 0.80093 0.83399 0.20864 0.0
C37 C 0.75918 0.93365 0.16289 0.0
O38 O 0.7924 0.88953 0.06284 0.0
C39 C 0.76703 0.81447 0.20643 0.0
O40 O 0.76585 0.84409 0.09361 0.0
O41 O 0.74369 0.81737 0.17889 0.0
C42 C 0.06765 0.81117 0.07793 0.0
O43 O 0.07504 0.80892 0.04509 0.0
Cd44 Cd 0.14656 0.82173 0.02413 0.0
O45 O 0.099 0.80848 0.09998 0.0
Cd46 Cd 0.17855 0.79178 0.09673 0.0
C47 C 0.18528 0.87895 0.08972 0.0
O48 O 0.18863 0.77132 0.03745 0.0
O49 O 0.24471 0.79684 0.05931 0.0
O50 O 0.17308 0.73404 0.12525 0.0
C51 C 0.22794 0.78101 0.03308 0.0
O52 O 0.17141 0.87418 0.05833 0.0
C53 C 0.1996 0.74194 0.14982 0.0
O54 O 0.19075 0.85305 0.11079 0.0
O55 O 0.21546 0.77316 0.14995 0.0
C56 C 0.08371 0.85554 0.83573 0.0
O57 O 0.08351 0.8805 0.85818 0.0
Cd58 Cd 0.1444 0.91491 0.87662 0.0
O59 O 0.11861 0.84659 0.81945 0.0
Cd60 Cd 0.19773 0.86576 0.81655 0.0
C61 C 0.21045 0.84609 0.90406 0.0
O62 O 0.18003 0.92718 0.82203 0.0
O63 O 0.2491 0.9185 0.81723 0.0
O64 O 0.1954 0.84367 0.75592 0.0
C65 C 0.21808 0.94037 0.82156 0.0
O66 O 0.18661 0.87259 0.91211 0.0
C67 C 0.22957 0.82473 0.75932 0.0
O68 O 0.21837 0.83811 0.87212 0.0
O69 O 0.25024 0.82693 0.78828 0.0
C70 C 0.08116 0.15198 0.87254 0.0
O71 O 0.09042 0.14074 0.90321 0.0
Cd72 Cd 0.16184 0.14107 0.92951 0.0
O73 O 0.11056 0.16516 0.85252 0.0
Cd74 Cd 0.19101 0.17335 0.85717 0.0
C75 C 0.20586 0.08515 0.86933 0.0
O76 O 0.19519 0.19618 0.91613 0.0
O77 O 0.25536 0.17495 0.89703 0.0
O78 O 0.18877 0.23046 0.82755 0.0
C79 C 0.23549 0.19097 0.92171 0.0
O80 O 0.20242 0.0923 0.90204 0.0
C81 C 0.2154 0.22191 0.8033 0.0
O82 O 0.19869 0.10915 0.84629 0.0
O83 O 0.23009 0.19034 0.80364 0.0
C84 C 0.90667 0.10781 0.84328 0.0
O85 O 0.90308 0.07841 0.85955 0.0
Cd86 Cd 0.83908 0.04243 0.86553 0.0
O87 O 0.8746 0.12149 0.82651 0.0
Cd88 Cd 0.79636 0.10615 0.81343 0.0
C89 C 0.77231 0.10672 0.90156 0.0
O90 O 0.81067 0.04455 0.80764 0.0
O91 O 0.74247 0.05733 0.80256 0.0
O92 O 0.80161 0.13062 0.754 0.0
C93 C 0.7719 0.03369 0.80366 0.0
O94 O 0.79368 0.07792 0.90513 0.0
C95 C 0.77077 0.15278 0.75843 0.0
O96 O 0.76884 0.12206 0.87174 0.0
O97 O 0.75219 0.15327 0.7884 0.0
C98 C 0.90955 0.82238 0.85614 0.0
O99 O 0.90594 0.84103 0.88387 0.0
Cd100 Cd 0.84126 0.85504 0.916 0.0
O101 O 0.8765 0.80714 0.84208 0.0
Cd102 Cd 0.79587 0.80149 0.85473 0.0
C103 C 0.78337 0.89097 0.84594 0.0
O104 O 0.80464 0.80018 0.91686 0.0
O105 O 0.73724 0.80223 0.90105 0.0
O106 O 0.79605 0.73905 0.83759 0.0
C107 C 0.76499 0.80228 0.92588 0.0
O108 O 0.80241 0.89442 0.87563 0.0
C109 C 0.76748 0.74288 0.81356 0.0
O110 O 0.77806 0.86065 0.83166 0.0
O111 O 0.75189 0.7738 0.80903 0.0
C112 C 0.57446 0.58989 0.62964 0.0
O113 O 0.57794 0.55746 0.62106 0.0
Cd114 Cd 0.6462 0.53323 0.60541 0.0
O115 O 0.60789 0.60748 0.64004 0.0
Cd116 Cd 0.68686 0.5936 0.65615 0.0
C117 C 0.69723 0.60861 0.56981 0.0
O118 O 0.68394 0.53002 0.65933 0.0
O119 O 0.74855 0.54982 0.65021 0.0
O120 O 0.68129 0.6134 0.71758 0.0
C121 C 0.72379 0.52299 0.65399 0.0
O122 O 0.67786 0.57887 0.56559 0.0
C123 C 0.71144 0.63654 0.71421 0.0
O124 O 0.70512 0.62085 0.60035 0.0
O125 O 0.73019 0.63888 0.68441 0.0
C126 C 0.4058 0.64661 0.58859 0.0
O127 O 0.40102 0.65109 0.55566 0.0
Cd128 Cd 0.33132 0.63891 0.53117 0.0
O129 O 0.37271 0.64803 0.60914 0.0
Cd130 Cd 0.29392 0.66765 0.60224 0.0
C131 C 0.28494 0.58076 0.59353 0.0
O132 O 0.28837 0.68911 0.54246 0.0
O133 O 0.23012 0.66495 0.56223 0.0
O134 O 0.30577 0.72442 0.63164 0.0
C135 C 0.24903 0.68029 0.53661 0.0
O136 O 0.30298 0.58658 0.56367 0.0
C137 C 0.27528 0.72 0.65403 0.0
O138 O 0.27672 0.60615 0.61465 0.0
O139 O 0.25394 0.69099 0.65272 0.0
C140 C 0.39532 0.33614 0.62531 0.0
O141 O 0.38151 0.34771 0.65441 0.0
Cd142 Cd 0.30768 0.3591 0.62982 0.0
O143 O 0.36744 0.33273 0.60102 0.0
Cd144 Cd 0.29338 0.35428 0.62847 0.0
C145 C 0.27269 0.33119 0.55777 0.0
O146 O 0.30804 0.4199 0.63558 0.0
O147 O 0.24591 0.4074 0.61249 0.0
O148 O 0.3028 0.33768 0.69208 0.0
C149 C 0.27289 0.43116 0.62226 0.0
O150 O 0.30318 0.3533 0.56302 0.0
C151 C 0.26872 0.3183 0.69253 0.0
O152 O 0.25219 0.32004 0.58443 0.0
O153 O 0.24599 0.31736 0.66464 0.0
C154 C 0.57657 0.32085 0.58612 0.0
O155 O 0.58644 0.33777 0.55822 0.0
Cd156 Cd 0.65694 0.33745 0.53005 0.0
O157 O 0.60545 0.3038 0.60339 0.0
Cd158 Cd 0.68585 0.29812 0.59653 0.0
C159 C 0.70634 0.38566 0.59218 0.0
O160 O 0.68516 0.2792 0.5358 0.0
O161 O 0.74737 0.29772 0.55344 0.0
O162 O 0.68554 0.24073 0.62623 0.0
C163 C 0.72535 0.28331 0.52897 0.0
O164 O 0.70465 0.38092 0.559 0.0
C165 C 0.71393 0.24947 0.64909 0.0
O166 O 0.69473 0.36077 0.61293 0.0
O167 O 0.7292 0.28082 0.64748 0.0
C168 C 0.58181 0.34316 0.32407 0.0
O169 O 0.58124 0.36748 0.34722 0.0
Cd170 Cd 0.64147 0.40268 0.3664 0.0
O171 O 0.61693 0.33485 0.30781 0.0
Cd172 Cd 0.69488 0.35609 0.30802 0.0
C173 C 0.70884 0.33526 0.39451 0.0
O174 O 0.67527 0.41744 0.31202 0.0
O175 O 0.74456 0.40825 0.31532 0.0
O176 O 0.69639 0.34366 0.24498 0.0
C177 C 0.71325 0.43025 0.31495 0.0
O178 O 0.6859 0.36242 0.40194 0.0
C179 C 0.73282 0.32754 0.24537 0.0
O180 O 0.71555 0.32588 0.36273 0.0
O181 O 0.75016 0.32349 0.27553 0.0
C182 C 0.5682 0.64289 0.36437 0.0
O183 O 0.57053 0.62659 0.39369 0.0
Cd184 Cd 0.63316 0.61442 0.42892 0.0
O185 O 0.60188 0.65665 0.34964 0.0
Cd186 Cd 0.68215 0.66314 0.36237 0.0
C187 C 0.69247 0.57241 0.36318 0.0
O188 O 0.66943 0.66897 0.4232 0.0
O189 O 0.73755 0.6729 0.4104 0.0
O190 O 0.6798 0.72057 0.33281 0.0
C191 C 0.70833 0.67052 0.43402 0.0
O192 O 0.67165 0.57121 0.39232 0.0
C193 C 0.71259 0.7141 0.31317 0.0
O194 O 0.69975 0.60167 0.34724 0.0
O195 O 0.73138 0.68426 0.31686 0.0
C196 C 0.39403 0.6098 0.33952 0.0
O197 O 0.39175 0.58351 0.36049 0.0
Cd198 Cd 0.32778 0.54975 0.37382 0.0
O199 O 0.36063 0.62076 0.32255 0.0
Cd200 Cd 0.28192 0.60314 0.31702 0.0
C201 C 0.26421 0.61786 0.4048 0.0
O202 O 0.2993 0.5414 0.3159 0.0
O203 O 0.23017 0.55166 0.31263 0.0
O204 O 0.28498 0.62294 0.25595 0.0
C205 C 0.26101 0.52916 0.31308 0.0
O206 O 0.28582 0.58984 0.41169 0.0
C207 C 0.25312 0.64435 0.25903 0.0
O208 O 0.25858 0.62823 0.37322 0.0
O209 O 0.23409 0.6458 0.28877 0.0
C210 C 0.40747 0.31164 0.34051 0.0
O211 O 0.40513 0.32877 0.36927 0.0
Cd212 Cd 0.34255 0.34153 0.40416 0.0
O213 O 0.37365 0.2977 0.32627 0.0
Cd214 Cd 0.29349 0.29309 0.34133 0.0
C215 C 0.28096 0.38301 0.33941 0.0
O216 O 0.30589 0.28666 0.40316 0.0
O217 O 0.23805 0.29221 0.3898 0.0
O218 O 0.29131 0.23184 0.32029 0.0
C219 C 0.2668 0.28871 0.41359 0.0
O220 O 0.3017 0.384 0.36851 0.0
C221 C 0.25744 0.23558 0.30133 0.0
O222 O 0.27505 0.35399 0.32275 0.0
O223 O 0.24291 0.26709 0.29893 0.0
C224 C 0.26029 0.173 0.27558 0.0
C225 C 0.23793 0.20576 0.2802 0.0
C226 C 0.18924 0.19129 0.23097 0.0
C227 C 0.21561 0.16136 0.22306 0.0
N228 N 0.27611 0.12291 0.23746 0.0
N229 N 0.16737 0.23383 0.27523 0.0
C230 C 0.25106 0.1519 0.24533 0.0
C231 C 0.1982 0.2114 0.2617 0.0
N232 N 0.28666 0.16022 0.30177 0.0
N233 N 0.1572 0.20187 0.2081 0.0
H234 H 0.17051 0.24526 0.30014 0.0
H235 H 0.13622 0.23681 0.26449 0.0
H236 H 0.14982 0.18836 0.18486 0.0
H237 H 0.14062 0.2259 0.21052 0.0
H238 H 0.30177 0.13548 0.30101 0.0
H239 H 0.28783 0.17153 0.32678 0.0
H240 H 0.30586 0.11741 0.24967 0.0
H241 H 0.26843 0.1052 0.21726 0.0
C242 C 0.7924 0.29248 0.2159 0.0
C243 C 0.75139 0.30974 0.21345 0.0
C244 C 0.7334 0.27484 0.16104 0.0
C245 C 0.76998 0.25278 0.16823 0.0
N246 N 0.8348 0.24005 0.20254 0.0
N247 N 0.69709 0.33089 0.17252 0.0
C248 C 0.80025 0.26187 0.19515 0.0
C249 C 0.72581 0.30506 0.18262 0.0
N250 N 0.82457 0.30673 0.2365 0.0
N251 N 0.70556 0.2665 0.13407 0.0
H252 H 0.69596 0.35558 0.18488 0.0
H253 H 0.67929 0.3302 0.14914 0.0
H254 H 0.71178 0.24608 0.11619 0.0
H255 H 0.67536 0.27869 0.13033 0.0
H256 H 0.85647 0.29706 0.23728 0.0
H257 H 0.82083 0.33122 0.24899 0.0
H258 H 0.85467 0.24315 0.22462 0.0
H259 H 0.84177 0.21714 0.18821 0.0
C260 C 0.74827 0.80043 0.26947 0.0
C261 C 0.75532 0.78873 0.23436 0.0
C262 C 0.73064 0.72901 0.25046 0.0
C263 C 0.72758 0.7398 0.28621 0.0
N264 N 0.74218 0.78377 0.33099 0.0
N265 N 0.76304 0.7402 0.19328 0.0
C266 C 0.73887 0.77497 0.29613 0.0
C267 C 0.74939 0.7525 0.22537 0.0
N268 N 0.74856 0.8359 0.27714 0.0
N269 N 0.7138 0.69702 0.24003 0.0
H270 H 0.7781 0.75637 0.17446 0.0
H271 H 0.76358 0.71332 0.1868 0.0
H272 H 0.69838 0.67938 0.25729 0.0
H273 H 0.71109 0.68958 0.21367 0.0
H274 H 0.7389 0.84603 0.30148 0.0
H275 H 0.75452 0.85553 0.25829 0.0
H276 H 0.75473 0.80797 0.33968 0.0
H277 H 0.73644 0.76568 0.35136 0.0
C278 C 0.19482 0.66963 0.21995 0.0
C279 C 0.2396 0.66774 0.22968 0.0
C280 C 0.25823 0.70966 0.18267 0.0
C281 C 0.21301 0.7155 0.17652 0.0
N282 N 0.13778 0.70547 0.19381 0.0
N283 N 0.3129 0.69191 0.22501 0.0
C284 C 0.18105 0.69662 0.19629 0.0
C285 C 0.27115 0.68929 0.21229 0.0
N286 N 0.16567 0.64497 0.23231 0.0
N287 N 0.28888 0.72245 0.15958 0.0
H288 H 0.32357 0.67878 0.24763 0.0
H289 H 0.33564 0.71015 0.21527 0.0
H290 H 0.28079 0.73633 0.13668 0.0
H291 H 0.32195 0.71587 0.16113 0.0
H292 H 0.13354 0.64313 0.22329 0.0
H293 H 0.17476 0.62402 0.24876 0.0
H294 H 0.11381 0.69496 0.21041 0.0
H295 H 0.12632 0.72584 0.17763 0.0
C296 C 0.25574 0.78281 0.67041 0.0
C297 C 0.26516 0.74736 0.68085 0.0
C298 C 0.24715 0.76218 0.74194 0.0
C299 C 0.24241 0.79843 0.7322 0.0
N300 N 0.2503 0.84443 0.68826 0.0
N301 N 0.27986 0.70558 0.72775 0.0
C302 C 0.24902 0.80914 0.69671 0.0
C303 C 0.26381 0.73769 0.71698 0.0
N304 N 0.25112 0.79107 0.63549 0.0
N305 N 0.23362 0.75059 0.77439 0.0
H306 H 0.29368 0.68723 0.71045 0.0
H307 H 0.28372 0.69879 0.75422 0.0
H308 H 0.21926 0.76714 0.79311 0.0
H309 H 0.23224 0.7238 0.78128 0.0
H310 H 0.23976 0.81559 0.62667 0.0
H311 H 0.25448 0.77244 0.61537 0.0
H312 H 0.25952 0.85381 0.66347 0.0
H313 H 0.24625 0.86449 0.70691 0.0
C314 C 0.1979 0.26861 0.75802 0.0
C315 C 0.22948 0.24797 0.77626 0.0
C316 C 0.28745 0.27312 0.73918 0.0
C317 C 0.25645 0.29629 0.7234 0.0
N318 N 0.18428 0.32228 0.72472 0.0
N319 N 0.30564 0.23826 0.79064 0.0
C320 C 0.21228 0.29596 0.73498 0.0
C321 C 0.2747 0.25251 0.76881 0.0
N322 N 0.15428 0.26103 0.76113 0.0
N323 N 0.32825 0.26905 0.72489 0.0
H324 H 0.29784 0.22426 0.81357 0.0
H325 H 0.33895 0.24378 0.7881 0.0
H326 H 0.33875 0.28224 0.70223 0.0
H327 H 0.35013 0.24967 0.73346 0.0
H328 H 0.13043 0.27313 0.74561 0.0
H329 H 0.14223 0.24008 0.77633 0.0
H330 H 0.15284 0.32503 0.73505 0.0
H331 H 0.19411 0.3436 0.70894 0.0
C332 C 0.78766 0.19817 0.71163 0.0
C333 C 0.75653 0.17685 0.72977 0.0
C334 C 0.69719 0.20592 0.6975 0.0
C335 C 0.72856 0.2242 0.67658 0.0
N336 N 0.80401 0.2312 0.65847 0.0
N337 N 0.68246 0.15441 0.73375 0.0
C338 C 0.77396 0.21849 0.68211 0.0
C339 C 0.71147 0.17896 0.72094 0.0
N340 N 0.82985 0.20038 0.72342 0.0
N341 N 0.654 0.21529 0.69631 0.0
H342 H 0.69178 0.13325 0.74985 0.0
H343 H 0.65008 0.15279 0.72527 0.0
H344 H 0.6422 0.2359 0.6806 0.0
H345 H 0.63067 0.20514 0.71371 0.0
H346 H 0.85254 0.21839 0.71321 0.0
H347 H 0.84103 0.18699 0.74574 0.0
H348 H 0.83712 0.22469 0.65951 0.0
H349 H 0.79534 0.24506 0.6357 0.0
C350 C 0.70767 0.70579 0.78733 0.0
C351 C 0.75307 0.71276 0.79132 0.0
C352 C 0.76971 0.66303 0.75209 0.0
C353 C 0.72468 0.66022 0.74345 0.0
N354 N 0.65087 0.68265 0.74939 0.0
N355 N 0.82763 0.70133 0.77298 0.0
C356 C 0.69349 0.68235 0.76034 0.0
C357 C 0.78431 0.69209 0.77275 0.0
N358 N 0.67813 0.72083 0.80989 0.0
N359 N 0.79842 0.63752 0.74114 0.0
H360 H 0.83985 0.72321 0.78661 0.0
H361 H 0.85086 0.68935 0.75677 0.0
H362 H 0.78862 0.61526 0.72678 0.0
H363 H 0.83087 0.63646 0.74953 0.0
H364 H 0.64508 0.71393 0.81031 0.0
H365 H 0.6874 0.73733 0.83067 0.0
H366 H 0.6281 0.7012 0.75821 0.0
H367 H 0.63901 0.66661 0.72916 0.0
C368 C 0.22523 0.20611 -0.01514 0.0
C369 C 0.25068 0.18883 0.95896 0.0
C370 C 0.26949 0.14213 0.0007 0.0
C371 C 0.23501 0.15419 0.02268 0.0
N372 N 0.18532 0.20071 0.04006 0.0
N373 N 0.31513 0.15388 0.94928 0.0
C374 C 0.21557 0.18789 0.01679 0.0
C375 C 0.27914 0.16121 0.96927 0.0
N376 N 0.20962 0.23931 -0.0221 0.0
N377 N 0.29097 0.11147 0.00903 0.0
H378 H 0.32388 0.16986 0.92785 0.0
H379 H 0.33857 0.13507 0.95608 0.0
H380 H 0.28559 0.09812 0.03282 0.0
H381 H 0.31303 0.09892 -0.00775 0.0
H382 H 0.19247 0.25472 -0.00402 0.0
H383 H 0.21751 0.25244 0.95442 0.0
H384 H 0.16642 0.2232 0.03553 0.0
H385 H 0.1784 0.1882 0.06398 0.0
C386 C 0.72419 0.10308 0.95495 0.0
C387 C 0.75313 0.12326 0.93342 0.0
C388 C 0.75267 0.17059 -0.02266 0.0
C389 C 0.73518 0.14648 0.00225 0.0
N390 N 0.69146 0.09404 0.01272 0.0
N391 N 0.79529 0.17715 0.92417 0.0
C392 C 0.71626 0.11416 -0.00967 0.0
C393 C 0.76651 0.15777 0.94409 0.0
N394 N 0.70389 0.07386 0.94113 0.0
N395 N 0.75653 0.20563 -0.01398 0.0
H396 H 0.80759 0.16871 0.89999 0.0
H397 H 0.8098 0.20056 0.93303 0.0
H398 H 0.74527 0.2153 0.01019 0.0
H399 H 0.76596 0.2252 0.96807 0.0
H400 H 0.68016 0.05904 0.95429 0.0
H401 H 0.70835 0.06603 0.91499 0.0
H402 H 0.68264 0.06779 0.00788 0.0
H403 H 0.67822 0.10428 0.03588 0.0
C404 C 0.7709 0.79174 -0.00989 0.0
C405 C 0.75425 0.81299 0.96244 0.0
C406 C 0.73657 0.85962 0.00518 0.0
C407 C 0.76147 0.84142 0.03098 0.0
N408 N 0.80746 0.79135 0.04646 0.0
N409 N 0.72389 0.86909 0.94304 0.0
C410 C 0.77939 0.80744 0.02337 0.0
C411 C 0.73697 0.84725 0.9698 0.0
N412 N 0.77922 0.75659 -0.01572 0.0
N413 N 0.71246 0.88865 0.01456 0.0
H414 H 0.72326 0.86136 0.91675 0.0
H415 H 0.71652 0.89584 0.94667 0.0
H416 H 0.71113 0.89801 0.04043 0.0
H417 H 0.69047 0.90107 -0.00242 0.0
H418 H 0.78772 0.73893 0.00431 0.0
H419 H 0.77302 0.74447 0.96004 0.0
H420 H 0.82508 0.76854 0.04024 0.0
H421 H 0.81667 0.80234 0.07053 0.0
C422 C 0.22197 0.7698 0.96877 0.0
C423 C 0.24329 0.78802 -0.00362 0.0
C424 C 0.25788 0.83829 0.95733 0.0
C425 C 0.22799 0.82352 0.93266 0.0
N426 N 0.18372 0.77398 0.91302 0.0
N427 N 0.30093 0.82903 0.01048 0.0
C428 C 0.21177 0.78835 0.93721 0.0
C429 C 0.26763 0.81906 -0.01135 0.0
N430 N 0.2114 0.73484 0.97338 0.0
N431 N 0.27556 0.87113 0.95128 0.0
H432 H 0.31122 0.8129 0.03127 0.0
H433 H 0.32167 0.85046 0.00559 0.0
H434 H 0.27115 0.88482 0.9276 0.0
H435 H 0.29324 0.88532 0.97003 0.0
H436 H 0.19859 0.71873 0.95362 0.0
H437 H 0.21985 0.72124 -0.00357 0.0
H438 H 0.1668 0.75027 0.91692 0.0
H439 H 0.1753 0.78662 0.88954 0.0
C440 C 0.00856 0.13723 0.07875 0.0
C441 C 0.02802 0.11683 0.10596 0.0
C442 C 0.96023 0.12068 0.14049 0.0
C443 C 0.93915 0.1367 0.11118 0.0
N444 N 0.94143 0.15416 0.04974 0.0
N445 N 0.02103 0.08499 0.16104 0.0
C446 C 0.96284 0.14358 0.07962 0.0
C447 C 0.00363 0.10759 0.13656 0.0
N448 N 0.03396 0.15124 0.05244 0.0
N449 N 0.93926 0.11885 0.17231 0.0
H450 H 0.05257 0.07463 0.15909 0.0
H451 H 0.00297 0.07418 0.18178 0.0
H452 H 0.90771 0.12863 0.17626 0.0
H453 H 0.95457 0.11075 0.19549 0.0
H454 H 0.0222 0.16932 0.03391 0.0
H455 H 0.06781 0.14772 0.05129 0.0
H456 H 0.95654 0.15575 0.02513 0.0
H457 H 0.90766 0.15786 0.04853 0.0
C458 C 0.75955 -0.00452 0.18547 0.0
C459 C 0.74895 0.97167 0.1579 0.0
C460 C 0.73685 0.02197 0.11807 0.0
C461 C 0.75547 0.04496 0.14355 0.0
N462 N 0.78748 0.05355 0.2012 0.0
N463 N 0.73069 0.96179 0.09658 0.0
C464 C 0.76688 0.03191 0.17748 0.0
C465 C 0.73769 -0.01526 0.12392 0.0
N466 N 0.76284 -0.01696 0.21923 0.0
N467 N 0.71792 0.03582 0.08845 0.0
H468 H 0.73052 0.93429 0.09941 0.0
H469 H 0.7281 0.97001 0.07041 0.0
H470 H 0.71615 0.06309 0.08374 0.0
H471 H 0.70012 0.02065 0.07052 0.0
H472 H 0.76654 -0.00052 0.24109 0.0
H473 H 0.7575 0.95639 0.22564 0.0
H474 H 0.80109 0.04438 0.22467 0.0
H475 H 0.79414 0.08027 0.19635 0.0
C476 C 0.95756 0.85662 0.07594 0.0
C477 C 0.9396 0.84784 0.10928 0.0
C478 C 0.00261 0.8089 0.11998 0.0
C479 C 0.02365 0.82328 0.08961 0.0
N480 N 0.02457 0.87076 0.04612 0.0
N481 N 0.94813 0.81852 0.16561 0.0
C482 C 0.00214 0.84993 0.06959 0.0
C483 C 0.96281 0.82457 0.13211 0.0
N484 N 0.93201 0.87083 0.04996 0.0
N485 N 0.01963 0.77983 0.13656 0.0
H486 H 0.91966 0.82994 0.1756 0.0
H487 H 0.96625 0.80463 0.18435 0.0
H488 H 0.04772 0.76691 0.12771 0.0
H489 H 0.00343 0.7665 0.15686 0.0
H490 H 0.94365 0.8752 0.02443 0.0
H491 H 0.89822 0.87394 0.05264 0.0
H492 H 0.01004 0.89212 0.0331 0.0
H493 H 0.05853 0.8701 0.04338 0.0
C494 C 0.17503 0.96406 0.14298 0.0
C495 C 0.20307 -0.01319 0.12346 0.0
C496 C 0.22565 0.93683 0.08625 0.0
C497 C 0.19305 0.91548 0.10251 0.0
N498 N 0.1328 0.90954 0.14346 0.0
N499 N 0.25458 -0.00395 0.07609 0.0
C500 C 0.16708 0.92909 0.13048 0.0
C501 C 0.22845 0.97346 0.09506 0.0
N502 N 0.15539 0.97604 0.17311 0.0
N503 N 0.25461 0.9218 0.06315 0.0
H504 H 0.25983 0.02244 0.08337 0.0
H505 H 0.26952 -0.01082 0.05238 0.0
H506 H 0.25363 0.89496 0.05635 0.0
H507 H 0.28179 0.93504 0.05297 0.0
H508 H 0.13839 0.95959 0.19049 0.0
H509 H 0.15921 0.00187 0.18247 0.0
H510 H 0.10959 0.91959 0.16089 0.0
H511 H 0.12501 0.88413 0.13453 0.0
C512 C 0.98555 0.79915 0.85713 0.0
C513 C 0.95346 0.81995 0.83993 0.0
C514 C 0.01068 0.85156 0.80718 0.0
C515 C 0.04215 0.83632 0.82996 0.0
N516 N 0.0621 0.79283 0.87351 0.0
N517 N 0.93365 0.86299 0.79582 0.0
C518 C 0.03044 0.80855 0.85343 0.0
C519 C 0.9655 0.84464 0.81335 0.0
N520 N 0.97258 0.77099 0.87741 0.0
N521 N 0.02436 0.87318 0.78035 0.0
H522 H 0.90043 0.85733 0.79902 0.0
H523 H 0.93976 0.88425 0.77894 0.0
H524 H 0.05748 0.87829 0.77571 0.0
H525 H 0.00369 0.8836 0.76117 0.0
H526 H -0.00596 0.75314 0.88917 0.0
H527 H 0.93966 0.76389 0.88004 0.0
H528 H 0.05573 0.77512 0.89398 0.0
H529 H 0.09532 0.79837 0.87003 0.0
C530 C 0.2396 0.00488 0.81345 0.0
C531 C 0.22554 0.97668 0.83546 0.0
C532 C 0.19845 0.01883 0.87867 0.0
C533 C 0.21483 0.04775 0.85819 0.0
N534 N 0.26375 0.06619 0.81115 0.0
N535 N 0.21096 0.95774 0.89486 0.0
C536 C 0.23933 0.04024 0.82698 0.0
C537 C 0.21153 -0.01599 0.87008 0.0
N538 N 0.25232 -0.00188 0.77962 0.0
N539 N 0.16752 0.02366 0.90428 0.0
H540 H 0.22274 0.93234 0.88938 0.0
H541 H 0.20363 0.96252 0.92131 0.0
H542 H 0.15137 0.04761 0.90843 0.0
H543 H 0.15328 0.00243 0.91783 0.0
H544 H 0.25838 0.01814 0.76122 0.0
H545 H 0.25423 0.97238 0.76955 0.0
H546 H 0.28461 0.06125 0.78996 0.0
H547 H 0.26733 0.09155 0.82176 0.0
C548 C 0.02783 0.12148 0.83236 0.0
C549 C 0.03605 0.14685 0.85929 0.0
C550 C 0.95737 0.15198 0.87095 0.0
C551 C 0.94939 0.12616 0.84454 0.0
N552 N 0.97436 0.09345 0.79403 0.0
N553 N 0.00934 0.19251 0.89805 0.0
C554 C 0.98387 0.11341 0.82312 0.0
C555 C 0.0009 0.16419 0.87657 0.0
N556 N 0.06179 0.10328 0.81737 0.0
N557 N 0.92362 0.16351 0.89167 0.0
H558 H 0.04097 0.2021 0.90234 0.0
H559 H 0.98506 0.20838 0.90906 0.0
H560 H 0.89115 0.15608 0.88731 0.0
H561 H 0.92789 0.17897 0.91414 0.0
H562 H 0.05752 0.08151 0.80082 0.0
H563 H 0.09455 0.10816 0.82334 0.0
H564 H -0.00238 0.08607 0.77534 0.0
H565 H 0.9423 0.08711 0.78684 0.0
C566 C 0.73843 0.9458 0.8449 0.0
C567 C 0.76899 0.92364 0.82766 0.0
C568 C 0.78465 0.97128 0.78555 0.0
C569 C 0.76221 -0.00459 0.80776 0.0
N570 N 0.71871 0.00587 0.86022 0.0
N571 N 0.82155 0.9146 0.78095 0.0
C572 C 0.7384 -0.01726 0.83748 0.0
C573 C 0.79151 0.93586 0.79723 0.0
N574 N 0.7096 0.93134 0.86845 0.0
N575 N 0.79968 -0.01747 0.75345 0.0
H576 H 0.82688 0.88826 0.78823 0.0
H577 H 0.84295 0.92364 0.76149 0.0
H578 H 0.79463 0.00838 0.74431 0.0
H579 H 0.81308 0.96555 0.73468 0.0
H580 H 0.68406 0.94556 0.87989 0.0
H581 H 0.7084 0.90407 0.87323 0.0
H582 H 0.70589 -0.00186 0.88454 0.0
H583 H 0.71769 0.0332 0.85624 0.0
C584 C 0.69364 0.67864 0.4977 0.0
C585 C 0.71766 0.66079 0.47111 0.0
C586 C 0.74071 0.61656 0.5147 0.0
C587 C 0.70897 0.62981 0.53839 0.0
N588 N 0.65376 0.6733 0.55269 0.0
N589 N 0.76274 0.61062 0.45393 0.0
C590 C 0.68555 0.66125 0.53032 0.0
C591 C 0.74169 0.62955 0.47955 0.0
N592 N 0.67834 0.71214 0.49146 0.0
N593 N 0.77013 0.59176 0.52597 0.0
H594 H 0.76474 0.61845 0.42769 0.0
H595 H 0.77588 0.58549 0.45833 0.0
H596 H 0.77087 0.58281 0.552 0.0
H597 H 0.79665 0.58335 0.51085 0.0
H598 H 0.66375 0.72781 0.51078 0.0
H599 H 0.68442 0.72554 0.46781 0.0
H600 H 0.63214 0.69362 0.54614 0.0
H601 H 0.64686 0.6614 0.57692 0.0
C602 C 0.25835 0.69203 0.47241 0.0
C603 C 0.23517 0.6741 0.49934 0.0
C604 C 0.2174 0.62589 0.45862 0.0
C605 C 0.24839 0.64007 0.43439 0.0
N606 N 0.29736 0.6877 0.41703 0.0
N607 N 0.17428 0.63548 0.5117 0.0
C608 C 0.26754 0.67405 0.44036 0.0
C609 C 0.20875 0.64448 0.49053 0.0
N610 N 0.2712 0.72634 0.47788 0.0
N611 N 0.19748 0.59414 0.45158 0.0
H612 H 0.16451 0.65148 0.53269 0.0
H613 H 0.15211 0.61528 0.50595 0.0
H614 H 0.20103 0.58109 0.42749 0.0
H615 H 0.1789 0.58009 0.46995 0.0
H616 H 0.28528 0.74236 0.45853 0.0
H617 H 0.26322 0.7398 0.50108 0.0
H618 H 0.31642 0.71005 0.42212 0.0
H619 H 0.30524 0.67559 0.3932 0.0
C620 C 0.24614 0.33241 0.46078 0.0
C621 C 0.25802 0.29729 0.45093 0.0
C622 C 0.27512 0.28298 0.51239 0.0
C623 C 0.2629 0.31796 0.52208 0.0
N624 N 0.22522 0.37218 0.50805 0.0
N625 N 0.27349 0.23694 0.46767 0.0
C626 C 0.24458 0.34145 0.49704 0.0
C627 C 0.26904 0.27181 0.47697 0.0
N628 N 0.23922 0.35781 0.43564 0.0
N629 N 0.29466 0.26113 0.53652 0.0
H630 H 0.26896 0.22811 0.44184 0.0
H631 H 0.27754 0.21645 0.48585 0.0
H632 H 0.29929 0.2682 0.56283 0.0
H633 H 0.30897 0.23693 0.53 0.0
H634 H 0.23598 0.38473 0.44136 0.0
H635 H 0.24 0.35255 0.40875 0.0
H636 H 0.20766 0.38891 0.49136 0.0
H637 H 0.22284 0.37898 0.53464 0.0
C638 C 0.75921 0.32809 0.44598 0.0
C639 C 0.72617 0.31363 0.42392 0.0
C640 C 0.7136 0.26576 0.46647 0.0
C641 C 0.73908 0.28478 0.4912 0.0
N642 N 0.80338 0.32084 0.49881 0.0
N643 N 0.67509 0.26654 0.41053 0.0
C644 C 0.76764 0.31185 0.47918 0.0
C645 C 0.7053 0.28109 0.43286 0.0
N646 N 0.78101 0.35812 0.43573 0.0
N647 N 0.69748 0.23319 0.47572 0.0
H648 H 0.6688 0.27674 0.38548 0.0
H649 H 0.65499 0.24519 0.41714 0.0
H650 H 0.70472 0.22172 0.50013 0.0
H651 H 0.68086 0.21638 0.45856 0.0
H652 H 0.80158 0.37256 0.45226 0.0
H653 H 0.77717 0.36932 0.41073 0.0
H654 H 0.82694 0.33914 0.49072 0.0
H655 H 0.81242 0.30638 0.52112 0.0
C656 C 0.51463 0.59989 0.58657 0.0
C657 C 0.53303 0.60808 0.61987 0.0
C658 C 0.46964 0.64631 0.63203 0.0
C659 C 0.44871 0.63296 0.60124 0.0
N660 N 0.4474 0.58687 0.55665 0.0
N661 N 0.52529 0.63619 0.67671 0.0
C662 C 0.47003 0.60676 0.58066 0.0
C663 C 0.50989 0.63065 0.64339 0.0
N664 N 0.53994 0.5865 0.55999 0.0
N665 N 0.45213 0.67449 0.64969 0.0
H666 H 0.55431 0.62497 0.68589 0.0
H667 H 0.5075 0.64954 0.69602 0.0
H668 H 0.4234 0.68703 0.6417 0.0
H669 H 0.4682 0.68734 0.67027 0.0
H670 H 0.52799 0.58266 0.53451 0.0
H671 H 0.57381 0.58364 0.56214 0.0
H672 H 0.46162 0.5657 0.54314 0.0
H673 H 0.41349 0.58826 0.55373 0.0
C674 C 0.2886 0.52926 0.63628 0.0
C675 C 0.27424 0.5436 0.6036 0.0
C676 C 0.25356 0.48402 0.58368 0.0
C677 C 0.26605 0.46992 0.61702 0.0
N678 N 0.28125 0.48124 0.67838 0.0
N679 N 0.23001 0.53615 0.55143 0.0
C680 C 0.27877 0.49333 0.64445 0.0
C681 C 0.25234 0.52145 0.57903 0.0
N682 N 0.31424 0.54883 0.65852 0.0
N683 N 0.24603 0.46216 0.55561 0.0
H684 H 0.22732 0.56356 0.54785 0.0
H685 H 0.21023 0.52131 0.53457 0.0
H686 H 0.2485 0.43467 0.55689 0.0
H687 H 0.24152 0.47161 0.53002 0.0
H688 H 0.32914 0.53804 0.6808 0.0
H689 H 0.32448 0.57467 0.65306 0.0
H690 H 0.28677 0.49795 0.69982 0.0
H691 H 0.27277 0.4553 0.68541 0.0
C692 C 0.51608 0.35653 0.61218 0.0
C693 C 0.53135 0.32329 0.59981 0.0
C694 C 0.45896 0.29694 0.61031 0.0
C695 C 0.44255 0.33117 0.61849 0.0
N696 N 0.45372 0.39463 0.62241 0.0
N697 N 0.51752 0.26224 0.58423 0.0
C698 C 0.47068 0.36126 0.61843 0.0
C699 C 0.50295 0.29344 0.59835 0.0
N700 N 0.54522 0.38338 0.61868 0.0
N701 N 0.43273 0.2678 0.61476 0.0
H702 H 0.54969 0.25858 0.57575 0.0
H703 H 0.49718 0.24074 0.57872 0.0
H704 H 0.40038 0.26957 0.62345 0.0
H705 H 0.4439 0.24178 0.6127 0.0
H706 H 0.53671 0.40694 0.63128 0.0
H707 H 0.57884 0.38082 0.61453 0.0
H708 H 0.47186 0.41775 0.61841 0.0
H709 H 0.42057 0.39953 0.62672 0.0
C710 C 0.74218 0.45786 0.65692 0.0
C711 C 0.73437 0.48878 0.63672 0.0
C712 C 0.70911 0.45279 0.58765 0.0
C713 C 0.71907 0.42114 0.60664 0.0
N714 N 0.75991 0.39524 0.65508 0.0
N715 N 0.72949 0.51396 0.57852 0.0
C716 C 0.74025 0.42406 0.64007 0.0
C717 C 0.72491 0.48553 0.60048 0.0
N718 N 0.75086 0.4607 0.69208 0.0
N719 N 0.68109 0.45271 0.55957 0.0
H720 H 0.74208 0.53807 0.58733 0.0
H721 H 0.72557 0.51204 0.55125 0.0
H722 H 0.66263 0.43073 0.55206 0.0
H723 H 0.67116 0.47604 0.54706 0.0
H724 H 0.7522 0.43879 0.7089 0.0
H725 H 0.75455 0.48527 0.70447 0.0
H726 H 0.7782 0.39681 0.67821 0.0
H727 H 0.76263 0.37088 0.64224 0.0
C728 C 0.46408 0.33521 0.2992 0.0
C729 C 0.45103 0.30893 0.32386 0.0
C730 C 0.52745 0.29554 0.33758 0.0
C731 C 0.54014 0.32483 0.31641 0.0
N732 N 0.52419 0.36523 0.26913 0.0
N733 N 0.46834 0.25707 0.35788 0.0
C734 C 0.50951 0.34197 0.29421 0.0
C735 C 0.48233 0.28645 0.33987 0.0
N736 N 0.43294 0.35512 0.28257 0.0
N737 N 0.55835 0.27803 0.35696 0.0
H738 H 0.43522 0.25028 0.35945 0.0
H739 H 0.48917 0.23812 0.36865 0.0
H740 H 0.59173 0.28348 0.35445 0.0
H741 H 0.55117 0.25887 0.37592 0.0
H742 H 0.43979 0.37741 0.26725 0.0
H743 H 0.39956 0.34961 0.28495 0.0
H744 H 0.50415 0.3772 0.25041 0.0
H745 H 0.5575 0.37026 0.26533 0.0
C746 C 0.73405 0.47836 0.35778 0.0
C747 C 0.71872 0.46815 0.32394 0.0
C748 C 0.69076 0.5281 0.31351 0.0
C749 C 0.70667 0.5385 0.34715 0.0
N750 N 0.7546 0.52692 0.39621 0.0
N751 N 0.69422 0.48514 0.26604 0.0
C752 C 0.7321 0.51468 0.36758 0.0
C753 C 0.70113 0.49378 0.30059 0.0
N754 N 0.74757 0.45332 0.38153 0.0
N755 N 0.66319 0.54974 0.29497 0.0
H756 H 0.70184 0.46015 0.25586 0.0
H757 H 0.68528 0.50365 0.24692 0.0
H758 H 0.65383 0.57487 0.30351 0.0
H759 H 0.64659 0.54158 0.2724 0.0
H760 H 0.75394 0.45904 0.40791 0.0
H761 H 0.7492 0.42631 0.37585 0.0
H762 H 0.77687 0.51151 0.41029 0.0
H763 H 0.75445 0.55362 0.40348 0.0
C764 C 0.49223 0.66588 0.36245 0.0
C765 C 0.52497 0.64429 0.34713 0.0
C766 C 0.46919 0.61131 0.31444 0.0
C767 C 0.43676 0.62769 0.33552 0.0
N768 N 0.41517 0.67281 0.37683 0.0
N769 N 0.54651 0.59882 0.30614 0.0
C770 C 0.44752 0.65633 0.35812 0.0
C771 C 0.51405 0.61829 0.32162 0.0
N772 N 0.50437 0.69505 0.38149 0.0
N773 N 0.45672 0.58877 0.28808 0.0
H774 H 0.57962 0.60439 0.30999 0.0
H775 H 0.54093 0.57662 0.29046 0.0
H776 H 0.42384 0.58354 0.28258 0.0
H777 H 0.47828 0.57769 0.26993 0.0
H778 H 0.48242 0.71352 0.39161 0.0
H779 H 0.53716 0.70231 0.38459 0.0
H780 H 0.42086 0.6912 0.39676 0.0
H781 H 0.38208 0.66715 0.37293 0.0
C782 C 0.28648 0.43334 0.29616 0.0
C783 C 0.26471 0.417 0.32495 0.0
C784 C 0.23084 0.47351 0.34116 0.0
C785 C 0.254 0.49026 0.31321 0.0
N786 N 0.292 0.48485 0.25783 0.0
N787 N 0.20518 0.41794 0.36636 0.0
C788 C 0.27775 0.46959 0.2885 0.0
C789 C 0.23304 0.43599 0.34455 0.0
N790 N 0.31742 0.41501 0.2776 0.0
N791 N 0.20952 0.49333 0.36596 0.0
H792 H 0.20542 0.39028 0.36802 0.0
H793 H 0.17902 0.42983 0.37941 0.0
H794 H 0.20697 0.52087 0.3647 0.0
H795 H 0.19682 0.48262 0.38917 0.0
H796 H 0.33827 0.42683 0.25925 0.0
H797 H 0.32395 0.38818 0.28194 0.0
H798 H 0.30632 0.47057 0.23735 0.0
H799 H 0.28541 0.5113 0.25149 0.0
loop_
_geom_bond_atom_site_label_1
_geom_bond_atom_site_label_2
_geom_bond_distance
_geom_bond_site_symmetry_2
_ccdc_geom_bond_type
C0 O1 1.306 . S
C0 O3 1.160 . S
O1 C0 1.306 . S
O1 Cd2 2.228 . S
Cd2 O1 2.228 . S
Cd2 O6 2.273 . S
Cd2 O10 2.277 . S
O3 C0 1.160 . S
O3 Cd4 2.203 . S
Cd4 O3 2.203 . S
Cd4 O6 2.411 . S
Cd4 O7 2.333 . S
Cd4 O8 2.352 . S
Cd4 O12 2.277 . S
Cd4 O13 2.356 . S
C5 O10 1.209 . S
C5 O12 1.226 . S
O6 Cd2 2.273 . S
O6 Cd4 2.411 . S
O6 C9 1.320 . S
O7 Cd4 2.333 . S
O7 C9 1.214 . S
O8 Cd4 2.352 . S
O8 C11 1.258 . S
C9 O6 1.320 . S
C9 O7 1.214 . S
O10 Cd2 2.277 . S
O10 C5 1.209 . S
C11 O8 1.258 . S
C11 O13 1.282 . S
O12 Cd4 2.277 . S
O12 C5 1.226 . S
O13 Cd4 2.356 . S
O13 C11 1.282 . S
C14 O15 1.306 . S
C14 O17 1.160 . S
O15 C14 1.306 . S
O15 Cd16 2.228 . S
Cd16 O15 2.228 . S
Cd16 O20 2.273 . S
Cd16 O24 2.277 . S
O17 C14 1.160 . S
O17 Cd18 2.203 . S
Cd18 O17 2.203 . S
Cd18 O20 2.411 . S
Cd18 O21 2.333 . S
Cd18 O22 2.352 . S
Cd18 O26 2.277 . S
Cd18 O27 2.356 . S
C19 O24 1.209 . S
C19 O26 1.226 . S
O20 Cd16 2.273 . S
O20 Cd18 2.411 . S
O20 C23 1.320 . S
O21 Cd18 2.333 . S
O21 C23 1.214 . S
O22 Cd18 2.352 . S
O22 C25 1.258 . S
C23 O20 1.320 . S
C23 O21 1.214 . S
O24 Cd16 2.277 . S
O24 C19 1.209 . S
C25 O22 1.258 . S
C25 O27 1.282 . S
O26 Cd18 2.277 . S
O26 C19 1.226 . S
O27 Cd18 2.356 . S
O27 C25 1.282 . S
C28 O29 1.306 . S
C28 O31 1.160 . S
O29 C28 1.306 . S
O29 Cd30 2.228 . S
Cd30 O29 2.228 . S
Cd30 O34 2.273 . S
Cd30 O38 2.277 . S
O31 C28 1.160 . S
O31 Cd32 2.203 . S
Cd32 O31 2.203 . S
Cd32 O34 2.411 . S
Cd32 O35 2.333 . S
Cd32 O36 2.352 . S
Cd32 O40 2.277 . S
Cd32 O41 2.356 . S
C33 O38 1.209 . S
C33 O40 1.226 . S
O34 Cd30 2.273 . S
O34 Cd32 2.411 . S
O34 C37 1.320 . S
O35 Cd32 2.333 . S
O35 C37 1.214 . S
O36 Cd32 2.352 . S
O36 C39 1.258 . S
C37 O34 1.320 . S
C37 O35 1.214 . S
O38 Cd30 2.277 . S
O38 C33 1.209 . S
C39 O36 1.258 . S
C39 O41 1.282 . S
O40 Cd32 2.277 . S
O40 C33 1.226 . S
O41 Cd32 2.356 . S
O41 C39 1.282 . S
C42 O43 1.306 . S
C42 O45 1.160 . S
O43 C42 1.306 . S
O43 Cd44 2.228 . S
Cd44 O43 2.228 . S
Cd44 O48 2.273 . S
Cd44 O52 2.277 . S
O45 C42 1.160 . S
O45 Cd46 2.203 . S
Cd46 O45 2.203 . S
Cd46 O48 2.411 . S
Cd46 O49 2.333 . S
Cd46 O50 2.352 . S
Cd46 O54 2.277 . S
Cd46 O55 2.356 . S
C47 O52 1.209 . S
C47 O54 1.226 . S
O48 Cd44 2.273 . S
O48 Cd46 2.411 . S
O48 C51 1.320 . S
O49 Cd46 2.333 . S
O49 C51 1.214 . S
O50 Cd46 2.352 . S
O50 C53 1.258 . S
C51 O48 1.320 . S
C51 O49 1.214 . S
O52 Cd44 2.277 . S
O52 C47 1.209 . S
C53 O50 1.258 . S
C53 O55 1.282 . S
O54 Cd46 2.277 . S
O54 C47 1.226 . S
O55 Cd46 2.356 . S
O55 C53 1.282 . S
C56 O57 1.306 . S
C56 O59 1.160 . S
O57 C56 1.306 . S
O57 Cd58 2.228 . S
Cd58 O57 2.228 . S
Cd58 O62 2.273 . S
Cd58 O66 2.277 . S
O59 C56 1.160 . S
O59 Cd60 2.203 . S
Cd60 O59 2.203 . S
Cd60 O62 2.411 . S
Cd60 O63 2.333 . S
Cd60 O64 2.352 . S
Cd60 O68 2.277 . S
Cd60 O69 2.356 . S
C61 O66 1.209 . S
C61 O68 1.226 . S
O62 Cd58 2.273 . S
O62 Cd60 2.411 . S
O62 C65 1.320 . S
O63 Cd60 2.333 . S
O63 C65 1.214 . S
O64 Cd60 2.352 . S
O64 C67 1.258 . S
C65 O62 1.320 . S
C65 O63 1.214 . S
O66 Cd58 2.277 . S
O66 C61 1.209 . S
C67 O64 1.258 . S
C67 O69 1.282 . S
O68 Cd60 2.277 . S
O68 C61 1.226 . S
O69 Cd60 2.356 . S
O69 C67 1.282 . S
C70 O71 1.306 . S
C70 O73 1.160 . S
O71 C70 1.306 . S
O71 Cd72 2.228 . S
Cd72 O71 2.228 . S
Cd72 O76 2.273 . S
Cd72 O80 2.277 . S
O73 C70 1.160 . S
O73 Cd74 2.203 . S
Cd74 O73 2.203 . S
Cd74 O76 2.411 . S
Cd74 O77 2.333 . S
Cd74 O78 2.352 . S
Cd74 O82 2.277 . S
Cd74 O83 2.356 . S
C75 O80 1.209 . S
C75 O82 1.226 . S
O76 Cd72 2.273 . S
O76 Cd74 2.411 . S
O76 C79 1.320 . S
O77 Cd74 2.333 . S
O77 C79 1.214 . S
O78 Cd74 2.352 . S
O78 C81 1.258 . S
C79 O76 1.320 . S
C79 O77 1.214 . S
O80 Cd72 2.277 . S
O80 C75 1.209 . S
C81 O78 1.258 . S
C81 O83 1.282 . S
O82 Cd74 2.277 . S
O82 C75 1.226 . S
O83 Cd74 2.356 . S
O83 C81 1.282 . S
C84 O85 1.306 . S
C84 O87 1.160 . S
O85 C84 1.306 . S
O85 Cd86 2.228 . S
Cd86 O85 2.228 . S
Cd86 O90 2.273 . S
Cd86 O94 2.277 . S
O87 C84 1.160 . S
O87 Cd88 2.203 . S
Cd88 O87 2.203 . S
Cd88 O90 2.411 . S
Cd88 O91 2.333 . S
Cd88 O92 2.352 . S
Cd88 O96 2.277 . S
Cd88 O97 2.356 . S
C89 O94 1.209 . S
C89 O96 1.226 . S
O90 Cd86 2.273 . S
O90 Cd88 2.411 . S
O90 C93 1.320 . S
O91 Cd88 2.333 . S
O91 C93 1.214 . S
O92 Cd88 2.352 . S
O92 C95 1.258 . S
C93 O90 1.320 . S
C93 O91 1.214 . S
O94 Cd86 2.277 . S
O94 C89 1.209 . S
C95 O92 1.258 . S
C95 O97 1.282 . S
O96 Cd88 2.277 . S
O96 C89 1.226 . S
O97 Cd88 2.356 . S
O97 C95 1.282 . S
C98 O99 1.306 . S
C98 O101 1.160 . S
O99 C98 1.306 . S
O99 Cd100 2.228 . S
Cd100 O99 2.228 . S
Cd100 O104 2.273 . S
Cd100 O108 2.277 . S
O101 C98 1.160 . S
O101 Cd102 2.203 . S
Cd102 O101 2.203 . S
Cd102 O104 2.411 . S
Cd102 O105 2.333 . S
Cd102 O106 2.352 . S
Cd102 O110 2.277 . S
Cd102 O111 2.356 . S
C103 O108 1.209 . S
C103 O110 1.226 . S
O104 Cd100 2.273 . S
O104 Cd102 2.411 . S
O104 C107 1.320 . S
O105 Cd102 2.333 . S
O105 C107 1.214 . S
O106 Cd102 2.352 . S
O106 C109 1.258 . S
C107 O104 1.320 . S
C107 O105 1.214 . S
O108 Cd100 2.277 . S
O108 C103 1.209 . S
C109 O106 1.258 . S
C109 O111 1.282 . S
O110 Cd102 2.277 . S
O110 C103 1.226 . S
O111 Cd102 2.356 . S
O111 C109 1.282 . S
C112 O113 1.306 . S
C112 O115 1.160 . S
O113 C112 1.306 . S
O113 Cd114 2.228 . S
Cd114 O113 2.228 . S
Cd114 O118 2.273 . S
Cd114 O122 2.277 . S
O115 C112 1.160 . S
O115 Cd116 2.203 . S
Cd116 O115 2.203 . S
Cd116 O118 2.411 . S
Cd116 O119 2.333 . S
Cd116 O120 2.352 . S
Cd116 O124 2.277 . S
Cd116 O125 2.356 . S
C117 O122 1.209 . S
C117 O124 1.226 . S
O118 Cd114 2.273 . S
O118 Cd116 2.411 . S
O118 C121 1.320 . S
O119 Cd116 2.333 . S
O119 C121 1.214 . S
O120 Cd116 2.352 . S
O120 C123 1.258 . S
C121 O118 1.320 . S
C121 O119 1.214 . S
O122 Cd114 2.277 . S
O122 C117 1.209 . S
C123 O120 1.258 . S
C123 O125 1.282 . S
O124 Cd116 2.277 . S
O124 C117 1.226 . S
O125 Cd116 2.356 . S
O125 C123 1.282 . S
C126 O127 1.306 . S
C126 O129 1.160 . S
O127 C126 1.306 . S
O127 Cd128 2.228 . S
Cd128 O127 2.228 . S
Cd128 O132 2.273 . S
Cd128 O136 2.277 . S
O129 C126 1.160 . S
O129 Cd130 2.203 . S
Cd130 O129 2.203 . S
Cd130 O132 2.411 . S
Cd130 O133 2.333 . S
Cd130 O134 2.352 . S
Cd130 O138 2.277 . S
Cd130 O139 2.356 . S
C131 O136 1.209 . S
C131 O138 1.226 . S
O132 Cd128 2.273 . S
O132 Cd130 2.411 . S
O132 C135 1.320 . S
O133 Cd130 2.333 . S
O133 C135 1.214 . S
O134 Cd130 2.352 . S
O134 C137 1.258 . S
C135 O132 1.320 . S
C135 O133 1.214 . S
O136 Cd128 2.277 . S
O136 C131 1.209 . S
C137 O134 1.258 . S
C137 O139 1.282 . S
O138 Cd130 2.277 . S
O138 C131 1.226 . S
O139 Cd130 2.356 . S
O139 C137 1.282 . S
C140 O141 1.306 . S
C140 O143 1.160 . S
O141 C140 1.306 . S
O141 Cd142 2.228 . S
Cd142 O141 2.228 . S
Cd142 O146 2.273 . S
Cd142 O150 2.277 . S
O143 C140 1.160 . S
O143 Cd144 2.203 . S
Cd144 O143 2.203 . S
Cd144 O146 2.411 . S
Cd144 O147 2.333 . S
Cd144 O148 2.352 . S
Cd144 O152 2.277 . S
Cd144 O153 2.356 . S
C145 O150 1.209 . S
C145 O152 1.226 . S
O146 Cd142 2.273 . S
O146 Cd144 2.411 . S
O146 C149 1.320 . S
O147 Cd144 2.333 . S
O147 C149 1.214 . S
O148 Cd144 2.352 . S
O148 C151 1.258 . S
C149 O146 1.320 . S
C149 O147 1.214 . S
O150 Cd142 2.277 . S
O150 C145 1.209 . S
C151 O148 1.258 . S
C151 O153 1.282 . S
O152 Cd144 2.277 . S
O152 C145 1.226 . S
O153 Cd144 2.356 . S
O153 C151 1.282 . S
C154 O155 1.306 . S
C154 O157 1.160 . S
O155 C154 1.306 . S
O155 Cd156 2.228 . S
Cd156 O155 2.228 . S
Cd156 O160 2.273 . S
Cd156 O164 2.277 . S
O157 C154 1.160 . S
O157 Cd158 2.203 . S
Cd158 O157 2.203 . S
Cd158 O160 2.411 . S
Cd158 O161 2.333 . S
Cd158 O162 2.352 . S
Cd158 O166 2.277 . S
Cd158 O167 2.356 . S
C159 O164 1.209 . S
C159 O166 1.226 . S
O160 Cd156 2.273 . S
O160 Cd158 2.411 . S
O160 C163 1.320 . S
O161 Cd158 2.333 . S
O161 C163 1.214 . S
O162 Cd158 2.352 . S
O162 C165 1.258 . S
C163 O160 1.320 . S
C163 O161 1.214 . S
O164 Cd156 2.277 . S
O164 C159 1.209 . S
C165 O162 1.258 . S
C165 O167 1.282 . S
O166 Cd158 2.277 . S
O166 C159 1.226 . S
O167 Cd158 2.356 . S
O167 C165 1.282 . S
C168 O169 1.306 . S
C168 O171 1.160 . S
O169 C168 1.306 . S
O169 Cd170 2.228 . S
Cd170 O169 2.228 . S
Cd170 O174 2.273 . S
Cd170 O178 2.277 . S
O171 C168 1.160 . S
O171 Cd172 2.203 . S
Cd172 O171 2.203 . S
Cd172 O174 2.411 . S
Cd172 O175 2.333 . S
Cd172 O176 2.352 . S
Cd172 O180 2.277 . S
Cd172 O181 2.356 . S
C173 O178 1.209 . S
C173 O180 1.226 . S
O174 Cd170 2.273 . S
O174 Cd172 2.411 . S
O174 C177 1.320 . S
O175 Cd172 2.333 . S
O175 C177 1.214 . S
O176 Cd172 2.352 . S
O176 C179 1.258 . S
C177 O174 1.320 . S
C177 O175 1.214 . S
O178 Cd170 2.277 . S
O178 C173 1.209 . S
C179 O176 1.258 . S
C179 O181 1.282 . S
O180 Cd172 2.277 . S
O180 C173 1.226 . S
O181 Cd172 2.356 . S
O181 C179 1.282 . S
C182 O183 1.306 . S
C182 O185 1.160 . S
O183 C182 1.306 . S
O183 Cd184 2.228 . S
Cd184 O183 2.228 . S
Cd184 O188 2.273 . S
Cd184 O192 2.277 . S
O185 C182 1.160 . S
O185 Cd186 2.203 . S
Cd186 O185 2.203 . S
Cd186 O188 2.411 . S
Cd186 O189 2.333 . S
Cd186 O190 2.352 . S
Cd186 O194 2.277 . S
Cd186 O195 2.356 . S
C187 O192 1.209 . S
C187 O194 1.226 . S
O188 Cd184 2.273 . S
O188 Cd186 2.411 . S
O188 C191 1.320 . S
O189 Cd186 2.333 . S
O189 C191 1.214 . S
O190 Cd186 2.352 . S
O190 C193 1.258 . S
C191 O188 1.320 . S
C191 O189 1.214 . S
O192 Cd184 2.277 . S
O192 C187 1.209 . S
C193 O190 1.258 . S
C193 O195 1.282 . S
O194 Cd186 2.277 . S
O194 C187 1.226 . S
O195 Cd186 2.356 . S
O195 C193 1.282 . S
C196 O197 1.306 . S
C196 O199 1.160 . S
O197 C196 1.306 . S
O197 Cd198 2.228 . S
Cd198 O197 2.228 . S
Cd198 O202 2.273 . S
Cd198 O206 2.277 . S
O199 C196 1.160 . S
O199 Cd200 2.203 . S
Cd200 O199 2.203 . S
Cd200 O202 2.411 . S
Cd200 O203 2.333 . S
Cd200 O204 2.352 . S
Cd200 O208 2.277 . S
Cd200 O209 2.356 . S
C201 O206 1.209 . S
C201 O208 1.226 . S
O202 Cd198 2.273 . S
O202 Cd200 2.411 . S
O202 C205 1.320 . S
O203 Cd200 2.333 . S
O203 C205 1.214 . S
O204 Cd200 2.352 . S
O204 C207 1.258 . S
C205 O202 1.320 . S
C205 O203 1.214 . S
O206 Cd198 2.277 . S
O206 C201 1.209 . S
C207 O204 1.258 . S
C207 O209 1.282 . S
O208 Cd200 2.277 . S
O208 C201 1.226 . S
O209 Cd200 2.356 . S
O209 C207 1.282 . S
C210 O211 1.306 . S
C210 O213 1.160 . S
O211 C210 1.306 . S
O211 Cd212 2.228 . S
Cd212 O211 2.228 . S
Cd212 O216 2.273 . S
Cd212 O220 2.277 . S
O213 C210 1.160 . S
O213 Cd214 2.203 . S
Cd214 O213 2.203 . S
Cd214 O216 2.411 . S
Cd214 O217 2.333 . S
Cd214 O218 2.352 . S
Cd214 O222 2.277 . S
Cd214 O223 2.356 . S
C215 O220 1.209 . S
C215 O222 1.226 . S
O216 Cd212 2.273 . S
O216 Cd214 2.411 . S
O216 C219 1.320 . S
O217 Cd214 2.333 . S
O217 C219 1.214 . S
O218 Cd214 2.352 . S
O218 C221 1.258 . S
C219 O216 1.320 . S
C219 O217 1.214 . S
O220 Cd212 2.277 . S
O220 C215 1.209 . S
C221 O218 1.258 . S
C221 O223 1.282 . S
O222 Cd214 2.277 . S
O222 C215 1.226 . S
O223 Cd214 2.356 . S
O223 C221 1.282 . S
C224 C225 1.363 . S
C224 C230 1.379 . S
C224 N232 1.356 . S
C225 C224 1.363 . S
C225 C231 1.363 . S
C226 C227 1.363 . S
C226 C231 1.379 . S
C226 N233 1.356 . S
C227 C226 1.363 . S
C227 C230 1.363 . S
N228 C230 1.356 . S
N228 H240 0.984 . S
N228 H241 0.985 . S
N229 C231 1.356 . S
N229 H234 0.984 . S
N229 H235 0.985 . S
C230 C224 1.379 . S
C230 C227 1.363 . S
C230 N228 1.356 . S
C231 C225 1.363 . S
C231 C226 1.379 . S
C231 N229 1.356 . S
N232 C224 1.356 . S
N232 H238 0.984 . S
N232 H239 0.984 . S
N233 C226 1.356 . S
N233 H236 0.984 . S
N233 H237 0.985 . S
H234 N229 0.984 . S
H235 N229 0.985 . S
H236 N233 0.984 . S
H237 N233 0.985 . S
H238 N232 0.984 . S
H239 N232 0.984 . S
H240 N228 0.984 . S
H241 N228 0.985 . S
C242 C243 1.363 . S
C242 C248 1.379 . S
C242 N250 1.356 . S
C243 C242 1.363 . S
C243 C249 1.363 . S
C244 C245 1.363 . S
C244 C249 1.379 . S
C244 N251 1.356 . S
C245 C244 1.363 . S
C245 C248 1.363 . S
N246 C248 1.356 . S
N246 H258 0.984 . S
N246 H259 0.985 . S
N247 C249 1.356 . S
N247 H252 0.984 . S
N247 H253 0.985 . S
C248 C242 1.379 . S
C248 C245 1.363 . S
C248 N246 1.356 . S
C249 C243 1.363 . S
C249 C244 1.379 . S
C249 N247 1.356 . S
N250 C242 1.356 . S
N250 H256 0.984 . S
N250 H257 0.984 . S
N251 C244 1.356 . S
N251 H254 0.984 . S
N251 H255 0.985 . S
H252 N247 0.984 . S
H253 N247 0.985 . S
H254 N251 0.984 . S
H255 N251 0.985 . S
H256 N250 0.984 . S
H257 N250 0.984 . S
H258 N246 0.984 . S
H259 N246 0.985 . S
C260 C261 1.363 . S
C260 C266 1.379 . S
C260 N268 1.356 . S
C261 C260 1.363 . S
C261 C267 1.363 . S
C262 C263 1.363 . S
C262 C267 1.379 . S
C262 N269 1.356 . S
C263 C262 1.363 . S
C263 C266 1.363 . S
N264 C266 1.356 . S
N264 H276 0.984 . S
N264 H277 0.985 . S
N265 C267 1.356 . S
N265 H270 0.984 . S
N265 H271 0.985 . S
C266 C260 1.379 . S
C266 C263 1.363 . S
C266 N264 1.356 . S
C267 C261 1.363 . S
C267 C262 1.379 . S
C267 N265 1.356 . S
N268 C260 1.356 . S
N268 H274 0.984 . S
N268 H275 0.984 . S
N269 C262 1.356 . S
N269 H272 0.984 . S
N269 H273 0.985 . S
H270 N265 0.984 . S
H271 N265 0.985 . S
H272 N269 0.984 . S
H273 N269 0.985 . S
H274 N268 0.984 . S
H275 N268 0.984 . S
H276 N264 0.984 . S
H277 N264 0.985 . S
C278 C279 1.363 . S
C278 C284 1.379 . S
C278 N286 1.356 . S
C279 C278 1.363 . S
C279 C285 1.363 . S
C280 C281 1.363 . S
C280 C285 1.379 . S
C280 N287 1.356 . S
C281 C280 1.363 . S
C281 C284 1.363 . S
N282 C284 1.356 . S
N282 H294 0.984 . S
N282 H295 0.985 . S
N283 C285 1.356 . S
N283 H288 0.984 . S
N283 H289 0.985 . S
C284 C278 1.379 . S
C284 C281 1.363 . S
C284 N282 1.356 . S
C285 C279 1.363 . S
C285 C280 1.379 . S
C285 N283 1.356 . S
N286 C278 1.356 . S
N286 H292 0.984 . S
N286 H293 0.984 . S
N287 C280 1.356 . S
N287 H290 0.984 . S
N287 H291 0.985 . S
H288 N283 0.984 . S
H289 N283 0.985 . S
H290 N287 0.984 . S
H291 N287 0.985 . S
H292 N286 0.984 . S
H293 N286 0.984 . S
H294 N282 0.984 . S
H295 N282 0.985 . S
C296 C297 1.363 . S
C296 C302 1.379 . S
C296 N304 1.356 . S
C297 C296 1.363 . S
C297 C303 1.363 . S
C298 C299 1.363 . S
C298 C303 1.379 . S
C298 N305 1.356 . S
C299 C298 1.363 . S
C299 C302 1.363 . S
N300 C302 1.356 . S
N300 H312 0.984 . S
N300 H313 0.985 . S
N301 C303 1.356 . S
N301 H306 0.984 . S
N301 H307 0.985 . S
C302 C296 1.379 . S
C302 C299 1.363 . S
C302 N300 1.356 . S
C303 C297 1.363 . S
C303 C298 1.379 . S
C303 N301 1.356 . S
N304 C296 1.356 . S
N304 H310 0.984 . S
N304 H311 0.984 . S
N305 C298 1.356 . S
N305 H308 0.984 . S
N305 H309 0.985 . S
H306 N301 0.984 . S
H307 N301 0.985 . S
H308 N305 0.984 . S
H309 N305 0.985 . S
H310 N304 0.984 . S
H311 N304 0.984 . S
H312 N300 0.984 . S
H313 N300 0.985 . S
C314 C315 1.363 . S
C314 C320 1.379 . S
C314 N322 1.356 . S
C315 C314 1.363 . S
C315 C321 1.363 . S
C316 C317 1.363 . S
C316 C321 1.379 . S
C316 N323 1.356 . S
C317 C316 1.363 . S
C317 C320 1.363 . S
N318 C320 1.356 . S
N318 H330 0.984 . S
N318 H331 0.985 . S
N319 C321 1.356 . S
N319 H324 0.984 . S
N319 H325 0.985 . S
C320 C314 1.379 . S
C320 C317 1.363 . S
C320 N318 1.356 . S
C321 C315 1.363 . S
C321 C316 1.379 . S
C321 N319 1.356 . S
N322 C314 1.356 . S
N322 H328 0.984 . S
N322 H329 0.984 . S
N323 C316 1.356 . S
N323 H326 0.984 . S
N323 H327 0.985 . S
H324 N319 0.984 . S
H325 N319 0.985 . S
H326 N323 0.984 . S
H327 N323 0.985 . S
H328 N322 0.984 . S
H329 N322 0.984 . S
H330 N318 0.984 . S
H331 N318 0.985 . S
C332 C333 1.363 . S
C332 C338 1.379 . S
C332 N340 1.356 . S
C333 C332 1.363 . S
C333 C339 1.363 . S
C334 C335 1.363 . S
C334 C339 1.379 . S
C334 N341 1.356 . S
C335 C334 1.363 . S
C335 C338 1.363 . S
N336 C338 1.356 . S
N336 H348 0.984 . S
N336 H349 0.985 . S
N337 C339 1.356 . S
N337 H342 0.984 . S
N337 H343 0.985 . S
C338 C332 1.379 . S
C338 C335 1.363 . S
C338 N336 1.356 . S
C339 C333 1.363 . S
C339 C334 1.379 . S
C339 N337 1.356 . S
N340 C332 1.356 . S
N340 H346 0.984 . S
N340 H347 0.984 . S
N341 C334 1.356 . S
N341 H344 0.984 . S
N341 H345 0.985 . S
H342 N337 0.984 . S
H343 N337 0.985 . S
H344 N341 0.984 . S
H345 N341 0.985 . S
H346 N340 0.984 . S
H347 N340 0.984 . S
H348 N336 0.984 . S
H349 N336 0.985 . S
C350 C351 1.363 . S
C350 C356 1.379 . S
C350 N358 1.356 . S
C351 C350 1.363 . S
C351 C357 1.363 . S
C352 C353 1.363 . S
C352 C357 1.379 . S
C352 N359 1.356 . S
C353 C352 1.363 . S
C353 C356 1.363 . S
N354 C356 1.356 . S
N354 H366 0.984 . S
N354 H367 0.985 . S
N355 C357 1.356 . S
N355 H360 0.984 . S
N355 H361 0.985 . S
C356 C350 1.379 . S
C356 C353 1.363 . S
C356 N354 1.356 . S
C357 C351 1.363 . S
C357 C352 1.379 . S
C357 N355 1.356 . S
N358 C350 1.356 . S
N358 H364 0.984 . S
N358 H365 0.984 . S
N359 C352 1.356 . S
N359 H362 0.984 . S
N359 H363 0.985 . S
H360 N355 0.984 . S
H361 N355 0.985 . S
H362 N359 0.984 . S
H363 N359 0.985 . S
H364 N358 0.984 . S
H365 N358 0.984 . S
H366 N354 0.984 . S
H367 N354 0.985 . S
C368 C369 1.363 . S
C368 C374 1.379 1_556 S
C368 N376 1.356 . S
C369 C368 1.363 . S
C369 C375 1.363 . S
C370 C371 1.363 . S
C370 C375 1.379 1_554 S
C370 N377 1.356 . S
C371 C370 1.363 . S
C371 C374 1.363 . S
N372 C374 1.356 . S
N372 H384 0.984 . S
N372 H385 0.985 . S
N373 C375 1.356 . S
N373 H378 0.984 . S
N373 H379 0.985 . S
C374 C368 1.379 1_554 S
C374 C371 1.363 . S
C374 N372 1.356 . S
C375 C369 1.363 . S
C375 C370 1.379 1_556 S
C375 N373 1.356 . S
N376 C368 1.356 . S
N376 H382 0.984 . S
N376 H383 0.984 . S
N377 C370 1.356 . S
N377 H380 0.984 . S
N377 H381 0.985 . S
H378 N373 0.984 . S
H379 N373 0.985 . S
H380 N377 0.984 . S
H381 N377 0.985 . S
H382 N376 0.984 . S
H383 N376 0.984 . S
H384 N372 0.984 . S
H385 N372 0.985 . S
C386 C387 1.363 . S
C386 C392 1.379 1_556 S
C386 N394 1.356 . S
C387 C386 1.363 . S
C387 C393 1.363 . S
C388 C389 1.363 . S
C388 C393 1.379 1_554 S
C388 N395 1.356 . S
C389 C388 1.363 . S
C389 C392 1.363 . S
N390 C392 1.356 . S
N390 H402 0.984 . S
N390 H403 0.985 . S
N391 C393 1.356 . S
N391 H396 0.984 . S
N391 H397 0.985 . S
C392 C386 1.379 1_554 S
C392 C389 1.363 . S
C392 N390 1.356 . S
C393 C387 1.363 . S
C393 C388 1.379 1_556 S
C393 N391 1.356 . S
N394 C386 1.356 . S
N394 H400 0.984 . S
N394 H401 0.984 . S
N395 C388 1.356 . S
N395 H398 0.984 . S
N395 H399 0.985 . S
H396 N391 0.984 . S
H397 N391 0.985 . S
H398 N395 0.984 . S
H399 N395 0.985 . S
H400 N394 0.984 . S
H401 N394 0.984 . S
H402 N390 0.984 . S
H403 N390 0.985 . S
C404 C405 1.363 . S
C404 C410 1.379 1_556 S
C404 N412 1.356 . S
C405 C404 1.363 . S
C405 C411 1.363 . S
C406 C407 1.363 . S
C406 C411 1.379 1_554 S
C406 N413 1.356 . S
C407 C406 1.363 . S
C407 C410 1.363 . S
N408 C410 1.356 . S
N408 H420 0.984 . S
N408 H421 0.985 . S
N409 C411 1.356 . S
N409 H414 0.984 . S
N409 H415 0.985 . S
C410 C404 1.379 1_554 S
C410 C407 1.363 . S
C410 N408 1.356 . S
C411 C405 1.363 . S
C411 C406 1.379 1_556 S
C411 N409 1.356 . S
N412 C404 1.356 . S
N412 H418 0.984 . S
N412 H419 0.984 . S
N413 C406 1.356 . S
N413 H416 0.984 . S
N413 H417 0.985 . S
H414 N409 0.984 . S
H415 N409 0.985 . S
H416 N413 0.984 . S
H417 N413 0.985 . S
H418 N412 0.984 . S
H419 N412 0.984 . S
H420 N408 0.984 . S
H421 N408 0.985 . S
C422 C423 1.363 . S
C422 C428 1.379 1_554 S
C422 N430 1.356 . S
C423 C422 1.363 . S
C423 C429 1.363 . S
C424 C425 1.363 . S
C424 C429 1.379 1_556 S
C424 N431 1.356 . S
C425 C424 1.363 . S
C425 C428 1.363 . S
N426 C428 1.356 . S
N426 H438 0.984 . S
N426 H439 0.985 . S
N427 C429 1.356 . S
N427 H432 0.984 . S
N427 H433 0.985 . S
C428 C422 1.379 1_556 S
C428 C425 1.363 . S
C428 N426 1.356 . S
C429 C423 1.363 . S
C429 C424 1.379 1_554 S
C429 N427 1.356 . S
N430 C422 1.356 . S
N430 H436 0.984 . S
N430 H437 0.984 . S
N431 C424 1.356 . S
N431 H434 0.984 . S
N431 H435 0.985 . S
H432 N427 0.984 . S
H433 N427 0.985 . S
H434 N431 0.984 . S
H435 N431 0.985 . S
H436 N430 0.984 . S
H437 N430 0.984 . S
H438 N426 0.984 . S
H439 N426 0.985 . S
C440 C441 1.363 . S
C440 C446 1.379 1_455 S
C440 N448 1.356 . S
C441 C440 1.363 . S
C441 C447 1.363 . S
C442 C443 1.363 . S
C442 C447 1.379 1_655 S
C442 N449 1.356 . S
C443 C442 1.363 . S
C443 C446 1.363 . S
N444 C446 1.356 . S
N444 H456 0.984 . S
N444 H457 0.985 . S
N445 C447 1.356 . S
N445 H450 0.984 . S
N445 H451 0.985 . S
C446 C440 1.379 1_655 S
C446 C443 1.363 . S
C446 N444 1.356 . S
C447 C441 1.363 . S
C447 C442 1.379 1_455 S
C447 N445 1.356 . S
N448 C440 1.356 . S
N448 H454 0.984 . S
N448 H455 0.984 . S
N449 C442 1.356 . S
N449 H452 0.984 . S
N449 H453 0.985 . S
H450 N445 0.984 . S
H451 N445 0.985 . S
H452 N449 0.984 . S
H453 N449 0.985 . S
H454 N448 0.984 . S
H455 N448 0.984 . S
H456 N444 0.984 . S
H457 N444 0.985 . S
C458 C459 1.363 . S
C458 C464 1.379 1_565 S
C458 N466 1.356 . S
C459 C458 1.363 . S
C459 C465 1.363 . S
C460 C461 1.363 . S
C460 C465 1.379 1_545 S
C460 N467 1.356 . S
C461 C460 1.363 . S
C461 C464 1.363 . S
N462 C464 1.356 . S
N462 H474 0.984 . S
N462 H475 0.985 . S
N463 C465 1.356 . S
N463 H468 0.984 . S
N463 H469 0.985 . S
C464 C458 1.379 1_545 S
C464 C461 1.363 . S
C464 N462 1.356 . S
C465 C459 1.363 . S
C465 C460 1.379 1_565 S
C465 N463 1.356 . S
N466 C458 1.356 . S
N466 H472 0.984 . S
N466 H473 0.984 . S
N467 C460 1.356 . S
N467 H470 0.984 . S
N467 H471 0.985 . S
H468 N463 0.984 . S
H469 N463 0.985 . S
H470 N467 0.984 . S
H471 N467 0.985 . S
H472 N466 0.984 . S
H473 N466 0.984 . S
H474 N462 0.984 . S
H475 N462 0.985 . S
C476 C477 1.363 . S
C476 C482 1.379 1_655 S
C476 N484 1.356 . S
C477 C476 1.363 . S
C477 C483 1.363 . S
C478 C479 1.363 . S
C478 C483 1.379 1_455 S
C478 N485 1.356 . S
C479 C478 1.363 . S
C479 C482 1.363 . S
N480 C482 1.356 . S
N480 H492 0.984 . S
N480 H493 0.985 . S
N481 C483 1.356 . S
N481 H486 0.984 . S
N481 H487 0.985 . S
C482 C476 1.379 1_455 S
C482 C479 1.363 . S
C482 N480 1.356 . S
C483 C477 1.363 . S
C483 C478 1.379 1_655 S
C483 N481 1.356 . S
N484 C476 1.356 . S
N484 H490 0.984 . S
N484 H491 0.984 . S
N485 C478 1.356 . S
N485 H488 0.984 . S
N485 H489 0.985 . S
H486 N481 0.984 . S
H487 N481 0.985 . S
H488 N485 0.984 . S
H489 N485 0.985 . S
H490 N484 0.984 . S
H491 N484 0.984 . S
H492 N480 0.984 . S
H493 N480 0.985 . S
C494 C495 1.363 . S
C494 C500 1.379 1_545 S
C494 N502 1.356 . S
C495 C494 1.363 . S
C495 C501 1.363 . S
C496 C497 1.363 . S
C496 C501 1.379 1_565 S
C496 N503 1.356 . S
C497 C496 1.363 . S
C497 C500 1.363 . S
N498 C500 1.356 . S
N498 H510 0.984 . S
N498 H511 0.985 . S
N499 C501 1.356 . S
N499 H504 0.984 . S
N499 H505 0.985 . S
C500 C494 1.379 1_565 S
C500 C497 1.363 . S
C500 N498 1.356 . S
C501 C495 1.363 . S
C501 C496 1.379 1_545 S
C501 N499 1.356 . S
N502 C494 1.356 . S
N502 H508 0.984 . S
N502 H509 0.984 . S
N503 C496 1.356 . S
N503 H506 0.984 . S
N503 H507 0.985 . S
H504 N499 0.984 . S
H505 N499 0.985 . S
H506 N503 0.984 . S
H507 N503 0.985 . S
H508 N502 0.984 . S
H509 N502 0.984 . S
H510 N498 0.984 . S
H511 N498 0.985 . S
C512 C513 1.363 . S
C512 C518 1.379 1_655 S
C512 N520 1.356 . S
C513 C512 1.363 . S
C513 C519 1.363 . S
C514 C515 1.363 . S
C514 C519 1.379 1_455 S
C514 N521 1.356 . S
C515 C514 1.363 . S
C515 C518 1.363 . S
N516 C518 1.356 . S
N516 H528 0.984 . S
N516 H529 0.985 . S
N517 C519 1.356 . S
N517 H522 0.984 . S
N517 H523 0.985 . S
C518 C512 1.379 1_455 S
C518 C515 1.363 . S
C518 N516 1.356 . S
C519 C513 1.363 . S
C519 C514 1.379 1_655 S
C519 N517 1.356 . S
N520 C512 1.356 . S
N520 H526 0.984 . S
N520 H527 0.984 . S
N521 C514 1.356 . S
N521 H524 0.984 . S
N521 H525 0.985 . S
H522 N517 0.984 . S
H523 N517 0.985 . S
H524 N521 0.984 . S
H525 N521 0.985 . S
H526 N520 0.984 . S
H527 N520 0.984 . S
H528 N516 0.984 . S
H529 N516 0.985 . S
C530 C531 1.363 . S
C530 C536 1.379 1_565 S
C530 N538 1.356 . S
C531 C530 1.363 . S
C531 C537 1.363 . S
C532 C533 1.363 . S
C532 C537 1.379 1_545 S
C532 N539 1.356 . S
C533 C532 1.363 . S
C533 C536 1.363 . S
N534 C536 1.356 . S
N534 H546 0.984 . S
N534 H547 0.985 . S
N535 C537 1.356 . S
N535 H540 0.984 . S
N535 H541 0.985 . S
C536 C530 1.379 1_545 S
C536 C533 1.363 . S
C536 N534 1.356 . S
C537 C531 1.363 . S
C537 C532 1.379 1_565 S
C537 N535 1.356 . S
N538 C530 1.356 . S
N538 H544 0.984 . S
N538 H545 0.984 . S
N539 C532 1.356 . S
N539 H542 0.984 . S
N539 H543 0.985 . S
H540 N535 0.984 . S
H541 N535 0.985 . S
H542 N539 0.984 . S
H543 N539 0.985 . S
H544 N538 0.984 . S
H545 N538 0.984 . S
H546 N534 0.984 . S
H547 N534 0.985 . S
C548 C549 1.363 . S
C548 C554 1.379 1_455 S
C548 N556 1.356 . S
C549 C548 1.363 . S
C549 C555 1.363 . S
C550 C551 1.363 . S
C550 C555 1.379 1_655 S
C550 N557 1.356 . S
C551 C550 1.363 . S
C551 C554 1.363 . S
N552 C554 1.356 . S
N552 H564 0.984 . S
N552 H565 0.985 . S
N553 C555 1.356 . S
N553 H558 0.984 . S
N553 H559 0.985 . S
C554 C548 1.379 1_655 S
C554 C551 1.363 . S
C554 N552 1.356 . S
C555 C549 1.363 . S
C555 C550 1.379 1_455 S
C555 N553 1.356 . S
N556 C548 1.356 . S
N556 H562 0.984 . S
N556 H563 0.984 . S
N557 C550 1.356 . S
N557 H560 0.984 . S
N557 H561 0.985 . S
H558 N553 0.984 . S
H559 N553 0.985 . S
H560 N557 0.984 . S
H561 N557 0.985 . S
H562 N556 0.984 . S
H563 N556 0.984 . S
H564 N552 0.984 . S
H565 N552 0.985 . S
C566 C567 1.363 . S
C566 C572 1.379 1_565 S
C566 N574 1.356 . S
C567 C566 1.363 . S
C567 C573 1.363 . S
C568 C569 1.363 . S
C568 C573 1.379 1_545 S
C568 N575 1.356 . S
C569 C568 1.363 . S
C569 C572 1.363 . S
N570 C572 1.356 . S
N570 H582 0.984 . S
N570 H583 0.985 . S
N571 C573 1.356 . S
N571 H576 0.984 . S
N571 H577 0.985 . S
C572 C566 1.379 1_545 S
C572 C569 1.363 . S
C572 N570 1.356 . S
C573 C567 1.363 . S
C573 C568 1.379 1_565 S
C573 N571 1.356 . S
N574 C566 1.356 . S
N574 H580 0.984 . S
N574 H581 0.984 . S
N575 C568 1.356 . S
N575 H578 0.984 . S
N575 H579 0.985 . S
H576 N571 0.984 . S
H577 N571 0.985 . S
H578 N575 0.984 . S
H579 N575 0.985 . S
H580 N574 0.984 . S
H581 N574 0.984 . S
H582 N570 0.984 . S
H583 N570 0.985 . S
C584 C585 1.363 . S
C584 C590 1.379 . S
C584 N592 1.356 . S
C585 C584 1.363 . S
C585 C591 1.363 . S
C586 C587 1.363 . S
C586 C591 1.379 . S
C586 N593 1.356 . S
C587 C586 1.363 . S
C587 C590 1.363 . S
N588 C590 1.356 . S
N588 H600 0.984 . S
N588 H601 0.985 . S
N589 C591 1.356 . S
N589 H594 0.984 . S
N589 H595 0.985 . S
C590 C584 1.379 . S
C590 C587 1.363 . S
C590 N588 1.356 . S
C591 C585 1.363 . S
C591 C586 1.379 . S
C591 N589 1.356 . S
N592 C584 1.356 . S
N592 H598 0.984 . S
N592 H599 0.984 . S
N593 C586 1.356 . S
N593 H596 0.984 . S
N593 H597 0.985 . S
H594 N589 0.984 . S
H595 N589 0.985 . S
H596 N593 0.984 . S
H597 N593 0.985 . S
H598 N592 0.984 . S
H599 N592 0.984 . S
H600 N588 0.984 . S
H601 N588 0.985 . S
C602 C603 1.363 . S
C602 C608 1.379 . S
C602 N610 1.356 . S
C603 C602 1.363 . S
C603 C609 1.363 . S
C604 C605 1.363 . S
C604 C609 1.379 . S
C604 N611 1.356 . S
C605 C604 1.363 . S
C605 C608 1.363 . S
N606 C608 1.356 . S
N606 H618 0.984 . S
N606 H619 0.985 . S
N607 C609 1.356 . S
N607 H612 0.984 . S
N607 H613 0.985 . S
C608 C602 1.379 . S
C608 C605 1.363 . S
C608 N606 1.356 . S
C609 C603 1.363 . S
C609 C604 1.379 . S
C609 N607 1.356 . S
N610 C602 1.356 . S
N610 H616 0.984 . S
N610 H617 0.984 . S
N611 C604 1.356 . S
N611 H614 0.984 . S
N611 H615 0.985 . S
H612 N607 0.984 . S
H613 N607 0.985 . S
H614 N611 0.984 . S
H615 N611 0.985 . S
H616 N610 0.984 . S
H617 N610 0.984 . S
H618 N606 0.984 . S
H619 N606 0.985 . S
C620 C621 1.363 . S
C620 C626 1.379 . S
C620 N628 1.356 . S
C621 C620 1.363 . S
C621 C627 1.363 . S
C622 C623 1.363 . S
C622 C627 1.379 . S
C622 N629 1.356 . S
C623 C622 1.363 . S
C623 C626 1.363 . S
N624 C626 1.356 . S
N624 H636 0.984 . S
N624 H637 0.985 . S
N625 C627 1.356 . S
N625 H630 0.984 . S
N625 H631 0.985 . S
C626 C620 1.379 . S
C626 C623 1.363 . S
C626 N624 1.356 . S
C627 C621 1.363 . S
C627 C622 1.379 . S
C627 N625 1.356 . S
N628 C620 1.356 . S
N628 H634 0.984 . S
N628 H635 0.984 . S
N629 C622 1.356 . S
N629 H632 0.984 . S
N629 H633 0.985 . S
H630 N625 0.984 . S
H631 N625 0.985 . S
H632 N629 0.984 . S
H633 N629 0.985 . S
H634 N628 0.984 . S
H635 N628 0.984 . S
H636 N624 0.984 . S
H637 N624 0.985 . S
C638 C639 1.363 . S
C638 C644 1.379 . S
C638 N646 1.356 . S
C639 C638 1.363 . S
C639 C645 1.363 . S
C640 C641 1.363 . S
C640 C645 1.379 . S
C640 N647 1.356 . S
C641 C640 1.363 . S
C641 C644 1.363 . S
N642 C644 1.356 . S
N642 H654 0.984 . S
N642 H655 0.985 . S
N643 C645 1.356 . S
N643 H648 0.984 . S
N643 H649 0.985 . S
C644 C638 1.379 . S
C644 C641 1.363 . S
C644 N642 1.356 . S
C645 C639 1.363 . S
C645 C640 1.379 . S
C645 N643 1.356 . S
N646 C638 1.356 . S
N646 H652 0.984 . S
N646 H653 0.984 . S
N647 C640 1.356 . S
N647 H650 0.984 . S
N647 H651 0.985 . S
H648 N643 0.984 . S
H649 N643 0.985 . S
H650 N647 0.984 . S
H651 N647 0.985 . S
H652 N646 0.984 . S
H653 N646 0.984 . S
H654 N642 0.984 . S
H655 N642 0.985 . S
C656 C657 1.363 . S
C656 C662 1.379 . S
C656 N664 1.356 . S
C657 C656 1.363 . S
C657 C663 1.363 . S
C658 C659 1.363 . S
C658 C663 1.379 . S
C658 N665 1.356 . S
C659 C658 1.363 . S
C659 C662 1.363 . S
N660 C662 1.356 . S
N660 H672 0.984 . S
N660 H673 0.985 . S
N661 C663 1.356 . S
N661 H666 0.984 . S
N661 H667 0.985 . S
C662 C656 1.379 . S
C662 C659 1.363 . S
C662 N660 1.356 . S
C663 C657 1.363 . S
C663 C658 1.379 . S
C663 N661 1.356 . S
N664 C656 1.356 . S
N664 H670 0.984 . S
N664 H671 0.984 . S
N665 C658 1.356 . S
N665 H668 0.984 . S
N665 H669 0.985 . S
H666 N661 0.984 . S
H667 N661 0.985 . S
H668 N665 0.984 . S
H669 N665 0.985 . S
H670 N664 0.984 . S
H671 N664 0.984 . S
H672 N660 0.984 . S
H673 N660 0.985 . S
C674 C675 1.363 . S
C674 C680 1.379 . S
C674 N682 1.356 . S
C675 C674 1.363 . S
C675 C681 1.363 . S
C676 C677 1.363 . S
C676 C681 1.379 . S
C676 N683 1.356 . S
C677 C676 1.363 . S
C677 C680 1.363 . S
N678 C680 1.356 . S
N678 H690 0.984 . S
N678 H691 0.985 . S
N679 C681 1.356 . S
N679 H684 0.984 . S
N679 H685 0.985 . S
C680 C674 1.379 . S
C680 C677 1.363 . S
C680 N678 1.356 . S
C681 C675 1.363 . S
C681 C676 1.379 . S
C681 N679 1.356 . S
N682 C674 1.356 . S
N682 H688 0.984 . S
N682 H689 0.984 . S
N683 C676 1.356 . S
N683 H686 0.984 . S
N683 H687 0.985 . S
H684 N679 0.984 . S
H685 N679 0.985 . S
H686 N683 0.984 . S
H687 N683 0.985 . S
H688 N682 0.984 . S
H689 N682 0.984 . S
H690 N678 0.984 . S
H691 N678 0.985 . S
C692 C693 1.363 . S
C692 C698 1.379 . S
C692 N700 1.356 . S
C693 C692 1.363 . S
C693 C699 1.363 . S
C694 C695 1.363 . S
C694 C699 1.379 . S
C694 N701 1.356 . S
C695 C694 1.363 . S
C695 C698 1.363 . S
N696 C698 1.356 . S
N696 H708 0.984 . S
N696 H709 0.985 . S
N697 C699 1.356 . S
N697 H702 0.984 . S
N697 H703 0.985 . S
C698 C692 1.379 . S
C698 C695 1.363 . S
C698 N696 1.356 . S
C699 C693 1.363 . S
C699 C694 1.379 . S
C699 N697 1.356 . S
N700 C692 1.356 . S
N700 H706 0.984 . S
N700 H707 0.984 . S
N701 C694 1.356 . S
N701 H704 0.984 . S
N701 H705 0.985 . S
H702 N697 0.984 . S
H703 N697 0.985 . S
H704 N701 0.984 . S
H705 N701 0.985 . S
H706 N700 0.984 . S
H707 N700 0.984 . S
H708 N696 0.984 . S
H709 N696 0.985 . S
C710 C711 1.363 . S
C710 C716 1.379 . S
C710 N718 1.356 . S
C711 C710 1.363 . S
C711 C717 1.363 . S
C712 C713 1.363 . S
C712 C717 1.379 . S
C712 N719 1.356 . S
C713 C712 1.363 . S
C713 C716 1.363 . S
N714 C716 1.356 . S
N714 H726 0.984 . S
N714 H727 0.985 . S
N715 C717 1.356 . S
N715 H720 0.984 . S
N715 H721 0.985 . S
C716 C710 1.379 . S
C716 C713 1.363 . S
C716 N714 1.356 . S
C717 C711 1.363 . S
C717 C712 1.379 . S
C717 N715 1.356 . S
N718 C710 1.356 . S
N718 H724 0.984 . S
N718 H725 0.984 . S
N719 C712 1.356 . S
N719 H722 0.984 . S
N719 H723 0.985 . S
H720 N715 0.984 . S
H721 N715 0.985 . S
H722 N719 0.984 . S
H723 N719 0.985 . S
H724 N718 0.984 . S
H725 N718 0.984 . S
H726 N714 0.984 . S
H727 N714 0.985 . S
C728 C729 1.363 . S
C728 C734 1.379 . S
C728 N736 1.356 . S
C729 C728 1.363 . S
C729 C735 1.363 . S
C730 C731 1.363 . S
C730 C735 1.379 . S
C730 N737 1.356 . S
C731 C730 1.363 . S
C731 C734 1.363 . S
N732 C734 1.356 . S
N732 H744 0.984 . S
N732 H745 0.985 . S
N733 C735 1.356 . S
N733 H738 0.984 . S
N733 H739 0.985 . S
C734 C728 1.379 . S
C734 C731 1.363 . S
C734 N732 1.356 . S
C735 C729 1.363 . S
C735 C730 1.379 . S
C735 N733 1.356 . S
N736 C728 1.356 . S
N736 H742 0.984 . S
N736 H743 0.984 . S
N737 C730 1.356 . S
N737 H740 0.984 . S
N737 H741 0.985 . S
H738 N733 0.984 . S
H739 N733 0.985 . S
H740 N737 0.984 . S
H741 N737 0.985 . S
H742 N736 0.984 . S
H743 N736 0.984 . S
H744 N732 0.984 . S
H745 N732 0.985 . S
C746 C747 1.363 . S
C746 C752 1.379 . S
C746 N754 1.356 . S
C747 C746 1.363 . S
C747 C753 1.363 . S
C748 C749 1.363 . S
C748 C753 1.379 . S
C748 N755 1.356 . S
C749 C748 1.363 . S
C749 C752 1.363 . S
N750 C752 1.356 . S
N750 H762 0.984 . S
N750 H763 0.985 . S
N751 C753 1.356 . S
N751 H756 0.984 . S
N751 H757 0.985 . S
C752 C746 1.379 . S
C752 C749 1.363 . S
C752 N750 1.356 . S
C753 C747 1.363 . S
C753 C748 1.379 . S
C753 N751 1.356 . S
N754 C746 1.356 . S
N754 H760 0.984 . S
N754 H761 0.984 . S
N755 C748 1.356 . S
N755 H758 0.984 . S
N755 H759 0.985 . S
H756 N751 0.984 . S
H757 N751 0.985 . S
H758 N755 0.984 . S
H759 N755 0.985 . S
H760 N754 0.984 . S
H761 N754 0.984 . S
H762 N750 0.984 . S
H763 N750 0.985 . S
C764 C765 1.363 . S
C764 C770 1.379 . S
C764 N772 1.356 . S
C765 C764 1.363 . S
C765 C771 1.363 . S
C766 C767 1.363 . S
C766 C771 1.379 . S
C766 N773 1.356 . S
C767 C766 1.363 . S
C767 C770 1.363 . S
N768 C770 1.356 . S
N768 H780 0.984 . S
N768 H781 0.985 . S
N769 C771 1.356 . S
N769 H774 0.984 . S
N769 H775 0.985 . S
C770 C764 1.379 . S
C770 C767 1.363 . S
C770 N768 1.356 . S
C771 C765 1.363 . S
C771 C766 1.379 . S
C771 N769 1.356 . S
N772 C764 1.356 . S
N772 H778 0.984 . S
N772 H779 0.984 . S
N773 C766 1.356 . S
N773 H776 0.984 . S
N773 H777 0.985 . S
H774 N769 0.984 . S
H775 N769 0.985 . S
H776 N773 0.984 . S
H777 N773 0.985 . S
H778 N772 0.984 . S
H779 N772 0.984 . S
H780 N768 0.984 . S
H781 N768 0.985 . S
C782 C783 1.363 . S
C782 C788 1.379 . S
C782 N790 1.356 . S
C783 C782 1.363 . S
C783 C789 1.363 . S
C784 C785 1.363 . S
C784 C789 1.379 . S
C784 N791 1.356 . S
C785 C784 1.363 . S
C785 C788 1.363 . S
N786 C788 1.356 . S
N786 H798 0.984 . S
N786 H799 0.985 . S
N787 C789 1.356 . S
N787 H792 0.984 . S
N787 H793 0.985 . S
C788 C782 1.379 . S
C788 C785 1.363 . S
C788 N786 1.356 . S
C789 C783 1.363 . S
C789 C784 1.379 . S
C789 N787 1.356 . S
N790 C782 1.356 . S
N790 H796 0.984 . S
N790 H797 0.984 . S
N791 C784 1.356 . S
N791 H794 0.984 . S
N791 H795 0.985 . S
H792 N787 0.984 . S
H793 N787 0.985 . S
H794 N791 0.984 . S
H795 N791 0.985 . S
H796 N790 0.984 . S
H797 N790 0.984 . S
H798 N786 0.984 . S
H799 N786 0.985 . S
C225 C221 1.205 . S
C227 C11 1.205 . S
C243 C179 1.205 . S
C245 C25 1.205 . S
C261 C39 1.205 . S
C263 C193 1.205 . S
C279 C207 1.205 . S
C281 C53 1.205 . S
C297 C137 1.205 . S
C299 C67 1.205 . S
C315 C81 1.205 . S
C317 C151 1.205 . S
C333 C95 1.205 . S
C335 C165 1.205 . S
C351 C109 1.205 . S
C353 C123 1.205 . S
C369 C79 1.512 . S
C371 C5 1.562 . S
C387 C89 1.562 . S
C389 C23 1.512 . S
C405 C107 1.512 . S
C407 C33 1.562 . S
C423 C51 1.512 . S
C425 C61 1.562 . S
C441 C0 1.556 . S
C443 C14 1.556 . S
C459 C37 1.512 . S
C461 C19 1.562 . S
C477 C28 1.556 . S
C479 C42 1.556 . S
C495 C9 1.512 . S
C497 C47 1.562 . S
C513 C98 1.556 . S
C515 C56 1.556 . S
C531 C65 1.512 . S
C533 C75 1.562 . S
C549 C70 1.556 . S
C551 C84 1.556 . S
C567 C103 1.562 . S
C569 C93 1.512 . S
C585 C191 1.512 . S
C587 C117 1.562 . S
C603 C135 1.512 . S
C605 C201 1.562 . S
C621 C219 1.512 . S
C623 C145 1.562 . S
C639 C173 1.562 . S
C641 C163 1.512 . S
C657 C112 1.556 . S
C659 C126 1.556 . S
C675 C131 1.562 . S
C677 C149 1.512 . S
C693 C154 1.556 . S
C695 C140 1.556 . S
C711 C121 1.512 . S
C713 C159 1.562 . S
C729 C210 1.556 . S
C731 C168 1.556 . S
C747 C177 1.512 . S
C749 C187 1.562 . S
C765 C182 1.556 . S
C767 C196 1.556 . S
C783 C215 1.562 . S
C785 C205 1.512 . S
