# Generated by pormake.
# Topology unb, (4)-cn, num edge types: 1
# Building blocks:
#     Node 0, Type 0, BuildingBlock: TATPOV_clean_sbu_0, # of connection points: 4
#     Node 1, Type 0, BuildingBlock: TATPOV_clean_sbu_0, # of connection points: 4
#     Node 2, Type 0, BuildingBlock: TATPOV_clean_sbu_0, # of connection points: 4
#     Node 3, Type 0, BuildingBlock: TATPOV_clean_sbu_0, # of connection points: 4
#     Node 4, Type 0, BuildingBlock: TATPOV_clean_sbu_0, # of connection points: 4
#     Node 5, Type 0, BuildingBlock: TATPOV_clean_sbu_0, # of connection points: 4
#     Node 6, Type 0, BuildingBlock: TATPOV_clean_sbu_0, # of connection points: 4
#     Node 7, Type 0, BuildingBlock: TATPOV_clean_sbu_0, # of connection points: 4
#     Node 8, Type 0, BuildingBlock: TATPOV_clean_sbu_0, # of connection points: 4
#     Node 9, Type 0, BuildingBlock: TATPOV_clean_sbu_0, # of connection points: 4
#     Node 10, Type 0, BuildingBlock: TATPOV_clean_sbu_0, # of connection points: 4
#     Node 11, Type 0, BuildingBlock: TATPOV_clean_sbu_0, # of connection points: 4
#     Node 12, Type 0, BuildingBlock: TATPOV_clean_sbu_0, # of connection points: 4
#     Node 13, Type 0, BuildingBlock: TATPOV_clean_sbu_0, # of connection points: 4
#     Node 14, Type 0, BuildingBlock: TATPOV_clean_sbu_0, # of connection points: 4
#     Node 15, Type 0, BuildingBlock: TATPOV_clean_sbu_0, # of connection points: 4
#     Node 16, Type 0, BuildingBlock: TATPOV_clean_sbu_0, # of connection points: 4
#     Node 17, Type 0, BuildingBlock: TATPOV_clean_sbu_0, # of connection points: 4
#     Edge 18, Type (0, 0), BuildingBlock: XIVTED_clean_linker_0, # of connection points: 2
#     Edge 19, Type (0, 0), BuildingBlock: XIVTED_clean_linker_0, # of connection points: 2
#     Edge 20, Type (0, 0), BuildingBlock: XIVTED_clean_linker_0, # of connection points: 2
#     Edge 21, Type (0, 0), BuildingBlock: XIVTED_clean_linker_0, # of connection points: 2
#     Edge 22, Type (0, 0), BuildingBlock: XIVTED_clean_linker_0, # of connection points: 2
#     Edge 23, Type (0, 0), BuildingBlock: XIVTED_clean_linker_0, # of connection points: 2
#     Edge 24, Type (0, 0), BuildingBlock: XIVTED_clean_linker_0, # of connection points: 2
#     Edge 25, Type (0, 0), BuildingBlock: XIVTED_clean_linker_0, # of connection points: 2
#     Edge 26, Type (0, 0), BuildingBlock: XIVTED_clean_linker_0, # of connection points: 2
#     Edge 27, Type (0, 0), BuildingBlock: XIVTED_clean_linker_0, # of connection points: 2
#     Edge 28, Type (0, 0), BuildingBlock: XIVTED_clean_linker_0, # of connection points: 2
#     Edge 29, Type (0, 0), BuildingBlock: XIVTED_clean_linker_0, # of connection points: 2
#     Edge 30, Type (0, 0), BuildingBlock: XIVTED_clean_linker_0, # of connection points: 2
#     Edge 31, Type (0, 0), BuildingBlock: XIVTED_clean_linker_0, # of connection points: 2
#     Edge 32, Type (0, 0), BuildingBlock: XIVTED_clean_linker_0, # of connection points: 2
#     Edge 33, Type (0, 0), BuildingBlock: XIVTED_clean_linker_0, # of connection points: 2
#     Edge 34, Type (0, 0), BuildingBlock: XIVTED_clean_linker_0, # of connection points: 2
#     Edge 35, Type (0, 0), BuildingBlock: XIVTED_clean_linker_0, # of connection points: 2
#     Edge 36, Type (0, 0), BuildingBlock: XIVTED_clean_linker_0, # of connection points: 2
#     Edge 37, Type (0, 0), BuildingBlock: XIVTED_clean_linker_0, # of connection points: 2
#     Edge 38, Type (0, 0), BuildingBlock: XIVTED_clean_linker_0, # of connection points: 2
#     Edge 39, Type (0, 0), BuildingBlock: XIVTED_clean_linker_0, # of connection points: 2
#     Edge 40, Type (0, 0), BuildingBlock: XIVTED_clean_linker_0, # of connection points: 2
#     Edge 41, Type (0, 0), BuildingBlock: XIVTED_clean_linker_0, # of connection points: 2
#     Edge 42, Type (0, 0), BuildingBlock: XIVTED_clean_linker_0, # of connection points: 2
#     Edge 43, Type (0, 0), BuildingBlock: XIVTED_clean_linker_0, # of connection points: 2
#     Edge 44, Type (0, 0), BuildingBlock: XIVTED_clean_linker_0, # of connection points: 2
#     Edge 45, Type (0, 0), BuildingBlock: XIVTED_clean_linker_0, # of connection points: 2
#     Edge 46, Type (0, 0), BuildingBlock: XIVTED_clean_linker_0, # of connection points: 2
#     Edge 47, Type (0, 0), BuildingBlock: XIVTED_clean_linker_0, # of connection points: 2
#     Edge 48, Type (0, 0), BuildingBlock: XIVTED_clean_linker_0, # of connection points: 2
#     Edge 49, Type (0, 0), BuildingBlock: XIVTED_clean_linker_0, # of connection points: 2
#     Edge 50, Type (0, 0), BuildingBlock: XIVTED_clean_linker_0, # of connection points: 2
#     Edge 51, Type (0, 0), BuildingBlock: XIVTED_clean_linker_0, # of connection points: 2
#     Edge 52, Type (0, 0), BuildingBlock: XIVTED_clean_linker_0, # of connection points: 2
#     Edge 53, Type (0, 0), BuildingBlock: XIVTED_clean_linker_0, # of connection points: 2
# Relax obj value: 0.021
# Max RMSD: 0.033
# Mean RMSD: 0.033
data_MOF--net-unb--node1-TATPOV_clean_sbu_0--edge1-XIVTED_clean_linker_0
_symmetry_space_group_name_H-M    P1
_symmetry_Int_Tables_number       1
_symmetry_cell_setting            triclinic
loop_
_symmetry_equiv_pos_as_xyz
'x, y, z'
_cell_length_a     66.95352
_cell_length_b     66.899614
_cell_length_c     23.949053
_cell_angle_alpha  90.07135
_cell_angle_beta   89.86988
_cell_angle_gamma 119.99403
loop_
_atom_site_label
_atom_site_type_symbol
_atom_site_fract_x
_atom_site_fract_y
_atom_site_fract_z
_atom_type_partial_charge
Zn0 Zn 0.10288 0.23476 1.00821 0.0
Zn1 Zn 0.11615 0.25435 0.09523 0.0
O2 O 0.08193 0.24749 0.08453 0.0
O3 O 0.07783 0.24142 0.99421 0.0
O4 O 0.12565 0.27034 0.17216 0.0
O5 O 0.09548 0.20371 0.0349 0.0
O6 O 0.12163 0.22601 0.09566 0.0
C7 C 0.07033 0.24454 0.0398 0.0
C8 C 0.14508 0.2738 0.99187 0.0
O9 O 0.13937 0.27822 0.0392 0.0
O10 O 0.13297 0.25407 0.97043 0.0
C11 C 0.14542 0.28788 0.18179 0.0
O12 O 0.16102 0.29552 0.14197 0.0
C13 C 0.11068 0.20664 0.07022 0.0
Zn14 Zn 0.75375 0.8733 1.00044 0.0
Zn15 Zn 0.73756 0.87044 0.08995 0.0
O16 O 0.7403 0.84058 0.07764 0.0
O17 O 0.74338 0.84051 0.98651 0.0
O18 O 0.72294 0.86593 0.16834 0.0
O19 O 0.78621 0.89479 1.02013 0.0
O20 O 0.76902 0.90205 0.08877 0.0
C21 C 0.74085 0.83048 0.0327 0.0
C22 C 0.71893 0.88301 0.98884 0.0
O23 O 0.71453 0.8736 0.03707 0.0
O24 O 0.73733 0.88733 0.96424 0.0
C25 C 0.70125 0.85237 0.17397 0.0
O26 O 0.68904 0.84195 0.1294 0.0
C27 C 0.78687 0.90823 0.05805 0.0
Zn28 Zn 0.1078 0.86721 1.01068 0.0
Zn29 Zn 0.11607 0.85717 0.09807 0.0
O30 O 0.14122 0.89201 0.08347 0.0
O31 O 0.13915 0.89241 0.99221 0.0
O32 O 0.12362 0.84842 0.17445 0.0
O33 O 0.08434 0.8749 0.03753 0.0
O34 O 0.08163 0.84978 0.10001 0.0
C35 C 0.14937 0.9022 0.03679 0.0
C36 C 0.10702 0.82639 0.99884 0.0
O37 O 0.11838 0.8343 0.04399 0.0
O38 O 0.09689 0.83618 0.97766 0.0
C39 C 0.1444 0.85805 0.19171 0.0
O40 O 0.16069 0.87432 0.16105 0.0
C41 C 0.07264 0.86011 0.07429 0.0
Zn42 Zn 0.20256 0.10051 1.02236 0.0
Zn43 Zn 0.22716 0.11383 0.94083 0.0
O44 O 0.21919 0.07923 0.95313 0.0
O45 O 0.20571 0.07356 0.03882 0.0
O46 O 0.24609 0.12442 0.86793 0.0
O47 O 0.17386 0.09673 0.98833 0.0
O48 O 0.20098 0.1224 0.93433 0.0
C49 C 0.21265 0.06696 0.99757 0.0
C50 C 0.2439 0.1404 0.0476 0.0
O51 O 0.24943 0.13513 1.00113 0.0
O52 O 0.22319 0.12943 0.06415 0.0
C53 C 0.2599 0.11714 0.85571 0.0
O54 O 0.26145 0.10265 0.88995 0.0
C55 C 0.18054 0.11325 0.95433 0.0
Zn56 Zn 0.87496 0.11131 0.05483 0.0
Zn57 Zn 0.8621 0.11477 0.9645 0.0
O58 O 0.89439 0.14485 0.97733 0.0
O59 O 0.89796 0.14392 0.06816 0.0
O60 O 0.85214 0.11945 0.88641 0.0
O61 O 0.88516 0.08918 0.03541 0.0
O62 O 0.86167 0.08297 0.96541 0.0
C63 C 0.90512 0.15453 1.02246 0.0
C64 C 0.83058 0.10275 0.06513 0.0
O65 O 0.83589 0.11188 1.01665 0.0
O66 O 0.84434 0.09821 0.09048 0.0
C67 C 0.84474 0.13365 0.88178 0.0
O68 O 0.84386 0.14444 0.92678 0.0
C69 C 0.8727 0.07621 0.99655 0.0
Zn70 Zn 0.87314 0.76511 0.0429 0.0
Zn71 Zn 0.86277 0.74046 0.96023 0.0
O72 O 0.83564 0.7477 0.9708 0.0
O73 O 0.84253 0.76147 0.05627 0.0
O74 O 0.85477 0.7207 0.88926 0.0
O75 O 0.89821 0.7937 1.00839 0.0
O76 O 0.89697 0.76729 0.95192 0.0
C77 C 0.82943 0.75433 1.01433 0.0
C78 C 0.87299 0.72439 0.06815 0.0
O79 O 0.86275 0.71884 1.02107 0.0
O80 O 0.88153 0.74485 0.08582 0.0
C81 C 0.84568 0.72407 0.84626 0.0
O82 O 0.84187 0.74152 0.84616 0.0
C83 C 0.90801 0.78761 0.97263 0.0
Zn84 Zn 0.77016 0.56087 0.3487 0.0
Zn85 Zn 0.78237 0.58097 0.43613 0.0
O86 O 0.74807 0.57341 0.42415 0.0
O87 O 0.74446 0.56653 0.33408 0.0
O88 O 0.79223 0.59856 0.5105 0.0
O89 O 0.76368 0.53034 0.37745 0.0
O90 O 0.78844 0.5531 0.44021 0.0
C91 C 0.73663 0.56986 0.37891 0.0
C92 C 0.81172 0.60069 0.33305 0.0
O93 O 0.80554 0.60468 0.38021 0.0
O94 O 0.80026 0.58092 0.31127 0.0
C95 C 0.79216 0.61758 0.51216 0.0
O96 O 0.78535 0.62396 0.46759 0.0
C97 C 0.7782 0.53364 0.41503 0.0
Zn98 Zn 0.40921 0.19945 0.33052 0.0
Zn99 Zn 0.38854 0.19108 0.41678 0.0
O100 O 0.39801 0.16545 0.40589 0.0
O101 O 0.40503 0.16864 0.31588 0.0
O102 O 0.37107 0.18382 0.4918 0.0
O103 O 0.4392 0.22453 0.35875 0.0
O104 O 0.41538 0.22559 0.42005 0.0
C105 C 0.40217 0.15779 0.36092 0.0
C106 C 0.36859 0.19929 0.31257 0.0
O107 O 0.36447 0.18911 0.35974 0.0
O108 O 0.38861 0.20829 0.29195 0.0
C109 C 0.35943 0.16308 0.50931 0.0
O110 O 0.35943 0.14656 0.4796 0.0
C111 C 0.43498 0.23548 0.39542 0.0
Zn112 Zn 0.7756 0.20519 0.34495 0.0
Zn113 Zn 0.78244 0.19205 0.43049 0.0
O114 O 0.81027 0.22593 0.41753 0.0
O115 O 0.80769 0.22864 0.32691 0.0
O116 O 0.78888 0.18212 0.50687 0.0
O117 O 0.75374 0.21472 0.37414 0.0
O118 O 0.74921 0.18783 0.43326 0.0
C119 C 0.81879 0.23665 0.3716 0.0
C120 C 0.76988 0.16209 0.32812 0.0
O121 O 0.78106 0.16787 0.37401 0.0
O122 O 0.76239 0.17457 0.30832 0.0
C123 C 0.8015 0.17283 0.51017 0.0
O124 O 0.81016 0.1696 0.46403 0.0
C125 C 0.74124 0.19943 0.40915 0.0
Zn126 Zn 0.87852 0.43319 0.37287 0.0
Zn127 Zn 0.90206 0.44848 0.28946 0.0
O128 O 0.8959 0.41434 0.2976 0.0
O129 O 0.88303 0.40665 0.38385 0.0
O130 O 0.91948 0.4604 0.21517 0.0
O131 O 0.84897 0.42897 0.34334 0.0
O132 O 0.87445 0.45496 0.28668 0.0
C133 C 0.88998 0.40121 0.34057 0.0
C134 C 0.91903 0.47445 0.39706 0.0
O135 O 0.9245 0.47034 0.34907 0.0
O136 O 0.89879 0.46188 0.41546 0.0
C137 C 0.93908 0.46197 0.20756 0.0
O138 O 0.94786 0.45551 0.24799 0.0
C139 C 0.85438 0.44518 0.30898 0.0
Zn140 Zn 0.5365 0.43713 0.38135 0.0
Zn141 Zn 0.52341 0.44821 0.29817 0.0
O142 O 0.55805 0.47444 0.30944 0.0
O143 O 0.56406 0.46724 0.3953 0.0
O144 O 0.51295 0.4573 0.22675 0.0
O145 O 0.53939 0.41167 0.3472 0.0
O146 O 0.51524 0.4137 0.28893 0.0
C147 C 0.57068 0.4803 0.35318 0.0
C148 C 0.49682 0.43885 0.406 0.0
O149 O 0.50202 0.44906 0.35879 0.0
O150 O 0.50796 0.42953 0.42392 0.0
C151 C 0.52598 0.46566 0.18416 0.0
O152 O 0.54654 0.46771 0.18516 0.0
C153 C 0.52407 0.40234 0.31012 0.0
Zn154 Zn 0.54455 0.10419 0.35526 0.0
Zn155 Zn 0.53479 0.07897 0.27514 0.0
O156 O 0.50658 0.08458 0.28774 0.0
O157 O 0.51378 0.09922 0.37231 0.0
O158 O 0.5276 0.06104 0.20065 0.0
O159 O 0.56825 0.13351 0.32043 0.0
O160 O 0.56868 0.10682 0.26834 0.0
C161 C 0.50027 0.09111 0.33132 0.0
C162 C 0.54722 0.0648 0.38201 0.0
O163 O 0.53631 0.05796 0.33588 0.0
O164 O 0.55497 0.08543 0.39767 0.0
C165 C 0.51843 0.03913 0.19751 0.0
O166 O 0.51349 0.02711 0.2439 0.0
C167 C 0.57897 0.12744 0.28745 0.0
Zn168 Zn 0.4474 0.90517 0.65029 0.0
Zn169 Zn 0.45905 0.9195 0.74281 0.0
O170 O 0.42548 0.91422 0.73163 0.0
O171 O 0.42253 0.9125 0.64035 0.0
O172 O 0.46827 0.93339 0.82189 0.0
O173 O 0.43963 0.87316 0.66532 0.0
O174 O 0.46146 0.88924 0.73876 0.0
C175 C 0.41442 0.91335 0.68731 0.0
C176 C 0.49043 0.94282 0.64295 0.0
O177 O 0.48453 0.94492 0.69237 0.0
O178 O 0.47761 0.9249 0.61512 0.0
C179 C 0.47322 0.95432 0.82842 0.0
O180 O 0.47193 0.96556 0.7849 0.0
C181 C 0.45158 0.8722 0.70482 0.0
Zn182 Zn 0.08272 0.53741 0.67372 0.0
Zn183 Zn 0.0634 0.52963 0.76091 0.0
O184 O 0.07149 0.50328 0.74701 0.0
O185 O 0.07631 0.50596 0.6562 0.0
O186 O 0.04737 0.52181 0.83801 0.0
O187 O 0.1137 0.56068 0.70164 0.0
O188 O 0.09119 0.5637 0.76352 0.0
C189 C 0.07418 0.49516 0.70097 0.0
C190 C 0.04328 0.53947 0.65939 0.0
O191 O 0.03918 0.52859 0.70556 0.0
O192 O 0.06322 0.54849 0.63831 0.0
C193 C 0.0292 0.52283 0.84851 0.0
O194 O 0.02079 0.5303 0.80949 0.0
C195 C 0.11064 0.57244 0.73836 0.0
Zn196 Zn 0.44807 0.553 0.6887 0.0
Zn197 Zn 0.45597 0.53923 0.77393 0.0
O198 O 0.48401 0.57309 0.76248 0.0
O199 O 0.47966 0.57808 0.67374 0.0
O200 O 0.46246 0.52809 0.84798 0.0
O201 O 0.42458 0.56001 0.71905 0.0
O202 O 0.42235 0.53399 0.77815 0.0
C203 C 0.49169 0.58486 0.71751 0.0
C204 C 0.44482 0.51058 0.66985 0.0
O205 O 0.45534 0.51595 0.71658 0.0
O206 O 0.43718 0.52294 0.65002 0.0
C207 C 0.48056 0.52637 0.85052 0.0
O208 O 0.49411 0.53233 0.80653 0.0
C209 C 0.41314 0.54462 0.75486 0.0
Zn210 Zn 0.56335 0.78027 0.71754 0.0
Zn211 Zn 0.58156 0.79336 0.62926 0.0
O212 O 0.57818 0.76053 0.64303 0.0
O213 O 0.5722 0.7569 0.73345 0.0
O214 O 0.597 0.80322 0.55162 0.0
O215 O 0.5315 0.77062 0.69496 0.0
O216 O 0.55069 0.7946 0.62699 0.0
C217 C 0.57613 0.74962 0.68853 0.0
C218 C 0.59943 0.82431 0.73111 0.0
O219 O 0.60422 0.81917 0.68343 0.0
O220 O 0.58048 0.81064 0.75423 0.0
C221 C 0.61882 0.8122 0.54662 0.0
O222 O 0.63112 0.81519 0.59176 0.0
C223 C 0.53222 0.78366 0.65603 0.0
Zn224 Zn 0.21641 0.77241 0.70368 0.0
Zn225 Zn 0.20187 0.78276 0.62154 0.0
O226 O 0.23631 0.80983 0.63211 0.0
O227 O 0.24365 0.80274 0.71683 0.0
O228 O 0.19054 0.79054 0.54931 0.0
O229 O 0.21936 0.74688 0.67006 0.0
O230 O 0.19418 0.74836 0.6144 0.0
C231 C 0.24938 0.81595 0.67509 0.0
C232 C 0.17588 0.77295 0.72965 0.0
O233 O 0.18027 0.78301 0.68229 0.0
O234 O 0.18798 0.76458 0.747 0.0
C235 C 0.19703 0.81152 0.53766 0.0
O236 O 0.2112 0.82774 0.57198 0.0
C237 C 0.20323 0.7371 0.63506 0.0
Zn238 Zn 0.21348 0.43748 0.70738 0.0
Zn239 Zn 0.20561 0.41566 0.62204 0.0
O240 O 0.17758 0.4215 0.63221 0.0
O241 O 0.18209 0.4318 0.72042 0.0
O242 O 0.19977 0.39872 0.547 0.0
O243 O 0.23797 0.46783 0.67914 0.0
O244 O 0.23957 0.44371 0.61979 0.0
C245 C 0.16998 0.42601 0.67676 0.0
C246 C 0.21465 0.39721 0.72736 0.0
O247 O 0.20488 0.39249 0.67967 0.0
O248 O 0.2228 0.4173 0.74719 0.0
C249 C 0.18122 0.37951 0.53997 0.0
O250 O 0.1662 0.37127 0.58107 0.0
C251 C 0.24922 0.46349 0.64358 0.0
H252 H 0.2088 0.38992 0.44643 0.0
H253 H 0.11752 0.27784 0.27463 0.0
H254 H 0.14268 0.33872 0.51204 0.0
H255 H 0.18516 0.32702 0.21263 0.0
H256 H 0.1263 0.29997 0.36164 0.0
H257 H 0.20032 0.36738 0.36012 0.0
C258 C 0.1925 0.37398 0.44276 0.0
C259 C 0.17646 0.36628 0.48679 0.0
C260 C 0.13925 0.30589 0.32904 0.0
C261 C 0.16659 0.34028 0.38779 0.0
C262 C 0.13424 0.29322 0.27929 0.0
C263 C 0.15059 0.3005 0.236 0.0
C264 C 0.16076 0.32609 0.33573 0.0
C265 C 0.17197 0.32066 0.24467 0.0
C266 C 0.18766 0.36107 0.39342 0.0
C267 C 0.15561 0.34541 0.47941 0.0
N268 N 0.17639 0.33272 0.29328 0.0
N269 N 0.1513 0.33321 0.43104 0.0
H270 H 0.59926 0.80466 0.44172 0.0
H271 H 0.72079 0.86653 0.27849 0.0
H272 H 0.66522 0.83521 0.52449 0.0
H273 H 0.65496 0.82767 0.19648 0.0
H274 H 0.70077 0.85757 0.36887 0.0
H275 H 0.6193 0.81524 0.35141 0.0
C276 C 0.61793 0.81364 0.44101 0.0
C277 C 0.6305 0.81896 0.49103 0.0
C278 C 0.69071 0.85103 0.33105 0.0
C279 C 0.65366 0.83122 0.38746 0.0
C280 C 0.70216 0.8562 0.27937 0.0
C281 C 0.68962 0.84782 0.22956 0.0
C282 C 0.66649 0.83749 0.33315 0.0
C283 C 0.66543 0.83447 0.23358 0.0
C284 C 0.62939 0.81966 0.38936 0.0
C285 C 0.65472 0.83064 0.48721 0.0
N286 N 0.65472 0.82976 0.28422 0.0
N287 N 0.66545 0.83635 0.43657 0.0
H288 H 0.21439 0.85433 0.49157 0.0
H289 H 0.11878 0.81812 0.25293 0.0
H290 H 0.1609 0.78359 0.46745 0.0
H291 H 0.18455 0.88115 0.2504 0.0
H292 H 0.13099 0.80609 0.33725 0.0
H293 H 0.20084 0.86532 0.40909 0.0
C294 C 0.19976 0.84106 0.46896 0.0
C295 C 0.18884 0.81795 0.4866 0.0
C296 C 0.14269 0.82255 0.31815 0.0
C297 C 0.17301 0.83057 0.3917 0.0
C298 C 0.13569 0.82949 0.27024 0.0
C299 C 0.15065 0.85069 0.24439 0.0
C300 C 0.16467 0.83707 0.34087 0.0
C301 C 0.17243 0.86464 0.2686 0.0
C302 C 0.19205 0.84737 0.42166 0.0
C303 C 0.16994 0.80158 0.45528 0.0
N304 N 0.1787 0.85764 0.31536 0.0
N305 N 0.16255 0.80821 0.40953 0.0
H306 H 0.34111 0.12287 0.56835 0.0
H307 H 0.2689 0.15334 0.78475 0.0
H308 H 0.34555 0.18947 0.56915 0.0
H309 H 0.28397 0.09833 0.80894 0.0
H310 H 0.29366 0.16548 0.70108 0.0
H311 H 0.31702 0.11227 0.6518 0.0
C312 C 0.33706 0.13533 0.58611 0.0
C313 C 0.34547 0.15715 0.56155 0.0
C314 C 0.29152 0.15078 0.72486 0.0
C315 C 0.31748 0.14491 0.65751 0.0
C316 C 0.27731 0.14377 0.77245 0.0
C317 C 0.27431 0.12476 0.80409 0.0
C318 C 0.30253 0.1385 0.70831 0.0
C319 C 0.28576 0.1131 0.78616 0.0
C320 C 0.32329 0.12925 0.63396 0.0
C321 C 0.33957 0.17251 0.58677 0.0
N322 N 0.29919 0.12007 0.73956 0.0
N323 N 0.32582 0.16606 0.63315 0.0
H324 H 0.82411 0.14883 0.52892 0.0
H325 H 0.82416 0.15946 0.8622 0.0
H326 H 0.79131 0.18114 0.61655 0.0
H327 H 0.84844 0.11891 0.77624 0.0
H328 H 0.81284 0.16818 0.77278 0.0
H329 H 0.83383 0.13843 0.61846 0.0
C330 C 0.8189 0.15374 0.56697 0.0
C331 C 0.80687 0.16597 0.56492 0.0
C332 C 0.82057 0.15732 0.77334 0.0
C333 C 0.81812 0.15408 0.66823 0.0
C334 C 0.82712 0.15233 0.82453 0.0
C335 C 0.83736 0.13842 0.82703 0.0
C336 C 0.82438 0.14851 0.72372 0.0
C337 C 0.84062 0.12969 0.77653 0.0
C338 C 0.82445 0.14773 0.61821 0.0
C339 C 0.80057 0.17173 0.61589 0.0
N340 N 0.83425 0.13495 0.72704 0.0
N341 N 0.80635 0.16584 0.66531 0.0
H342 H 0.84805 0.68426 0.83369 0.0
H343 H 0.79246 0.65817 0.52701 0.0
H344 H 0.82699 0.72728 0.74743 0.0
H345 H 0.80989 0.61205 0.61169 0.0
H346 H 0.80579 0.68372 0.60759 0.0
H347 H 0.83517 0.65792 0.75336 0.0
C348 C 0.8408 0.68823 0.79789 0.0
C349 C 0.83862 0.70809 0.79752 0.0
C350 C 0.80672 0.66802 0.60882 0.0
C351 C 0.82379 0.67792 0.70535 0.0
C352 C 0.79907 0.65334 0.56262 0.0
C353 C 0.79999 0.63282 0.56231 0.0
C354 C 0.81549 0.66234 0.65561 0.0
C355 C 0.80879 0.62764 0.60999 0.0
C356 C 0.83341 0.67314 0.75206 0.0
C357 C 0.82904 0.71224 0.74988 0.0
N358 N 0.81622 0.6423 0.65466 0.0
N359 N 0.82202 0.69735 0.70598 0.0
H360 H 0.92739 0.47862 0.11548 0.0
H361 H 0.04074 0.50559 0.93986 0.0
H362 H 0.98071 0.46637 0.17806 0.0
H363 H 0.98907 0.52106 0.88115 0.0
H364 H 0.019 0.49101 0.02715 0.0
H365 H 0.94954 0.49386 0.02904 0.0
C366 C 0.94372 0.4791 0.11112 0.0
C367 C 0.95213 0.47115 0.15434 0.0
C368 C 0.01245 0.49764 0.99521 0.0
C369 C 0.9777 0.48865 0.05513 0.0
C370 C 0.02489 0.50601 0.9453 0.0
C371 C 0.01679 0.51461 0.90285 0.0
C372 C -0.00834 0.49777 1.00289 0.0
C373 C -0.00394 0.51464 0.9125 0.0
C374 C 0.95641 0.48785 0.06169 0.0
C375 C 0.97348 0.47227 0.14606 0.0
N376 N 0.98425 0.50634 0.96124 0.0
N377 N 0.98546 0.48081 0.09761 0.0
H378 H 0.54933 0.48293 0.08604 0.0
H379 H 0.45594 0.51006 0.94906 0.0
H380 H 0.48596 0.46744 0.16931 0.0
H381 H 0.51854 0.52202 0.86762 0.0
H382 H 0.46627 0.49481 0.03058 0.0
H383 H 0.53794 0.49749 1.00623 0.0
C384 C 0.53296 0.48252 0.0876 0.0
C385 C 0.51861 0.4739 0.13473 0.0
C386 C 0.47772 0.50079 0.99482 0.0
C387 C 0.50539 0.49077 0.04276 0.0
C388 C 0.47185 0.50954 0.94827 0.0
C389 C 0.48637 0.51738 0.90121 0.0
C390 C 0.49828 0.4999 0.99439 0.0
C391 C 0.50675 0.51621 0.90271 0.0
C392 C 0.52645 0.49089 0.04182 0.0
C393 C 0.49758 0.47388 0.13394 0.0
N394 N 0.51205 0.50769 0.9483 0.0
N395 N 0.49163 0.48222 0.08881 0.0
H396 H 0.52234 0.05749 0.09236 0.0
H397 H 0.47482 0.93641 0.93137 0.0
H398 H 0.50151 0.99305 0.17679 0.0
H399 H 0.48816 -0.0003 0.85143 0.0
H400 H 0.48644 0.95701 1.02099 0.0
H401 H 0.51194 0.03686 1.00308 0.0
C402 C 0.51566 0.03903 0.09222 0.0
C403 C 0.51279 0.02705 0.14244 0.0
C404 C 0.48683 0.96637 0.98377 0.0
C405 C 0.5008 0.0032 0.0399 0.0
C406 C 0.48021 0.95461 0.93254 0.0
C407 C 0.48042 0.96626 0.88356 0.0
C408 C 0.49385 0.99002 0.98616 0.0
C409 C 0.4876 0.98989 0.88789 0.0
C410 C 0.50966 0.02722 0.04113 0.0
C411 C 0.50399 0.00306 0.13932 0.0
N412 N 0.49401 0.00092 0.93801 0.0
N413 N 0.49834 0.99198 0.08912 0.0
H414 H 0.17267 0.31973 1.01727 0.0
H415 H 0.1965 0.35123 0.70343 0.0
H416 H 0.16071 0.26893 0.89056 0.0
H417 H 0.23079 0.40168 0.83376 0.0
H418 H 0.18769 0.32063 0.77107 0.0
H419 H 0.19841 0.35005 0.95272 0.0
C420 C 0.17578 0.31493 0.97632 0.0
C421 C 0.16402 0.29188 0.95864 0.0
C422 C 0.19759 0.33843 0.78457 0.0
C423 C 0.19315 0.32632 0.88467 0.0
C424 C 0.20258 0.35588 0.74594 0.0
C425 C 0.21378 0.37896 0.76336 0.0
C426 C 0.20351 0.34417 0.84097 0.0
C427 C 0.2216 0.38405 0.81878 0.0
C428 C 0.19052 0.33221 0.93951 0.0
C429 C 0.16895 0.28657 0.90543 0.0
N430 N 0.21582 0.36676 0.85599 0.0
N431 N 0.18276 0.3037 0.86986 0.0
H432 H 0.59234 0.8406 0.82901 0.0
H433 H 0.72604 0.90719 0.8925 0.0
H434 H 0.64546 0.85319 0.70844 0.0
H435 H 0.67301 0.86604 1.01255 0.0
H436 H 0.6964 0.90314 0.82717 0.0
H437 H 0.62195 0.86568 0.89513 0.0
C438 C 0.61022 0.84907 0.81586 0.0
C439 C 0.61656 0.84415 0.76383 0.0
C440 C 0.69133 0.89555 0.86837 0.0
C441 C 0.65029 0.87298 0.83918 0.0
C442 C 0.70817 0.89776 0.90572 0.0
C443 C 0.70185 0.88616 0.95727 0.0
C444 C 0.66809 0.88178 0.88284 0.0
C445 C 0.67856 0.87479 0.97275 0.0
C446 C 0.62704 0.86342 0.85368 0.0
C447 C 0.63988 0.85611 0.74857 0.0
N448 N 0.66239 0.87245 0.93504 0.0
N449 N 0.65602 0.86967 0.78667 0.0
H450 H 0.08169 0.8036 0.90727 0.0
H451 H 0.14521 0.78775 0.70758 0.0
H452 H 0.13559 0.80856 1.01517 0.0
H453 H 0.16639 0.75734 0.83691 0.0
H454 H 0.12045 0.79228 0.77513 0.0
H455 H 0.09101 0.78212 0.83987 0.0
C456 C 0.09528 0.79988 0.91717 0.0
C457 C 0.10847 0.80856 0.96597 0.0
C458 C 0.12992 0.78391 0.78833 0.0
C459 C 0.11947 0.78456 0.8886 0.0
C460 C 0.14427 0.78159 0.74984 0.0
C461 C 0.15816 0.77255 0.76688 0.0
C462 C 0.12969 0.77733 0.84419 0.0
C463 C 0.1562 0.7647 0.82212 0.0
C464 C 0.10068 0.78779 0.87844 0.0
C465 C 0.12535 0.80262 0.97747 0.0
N466 N 0.14263 0.76776 0.85916 0.0
N467 N 0.13068 0.7913 0.93842 0.0
H468 H 0.37284 0.22004 0.212 0.0
H469 H 0.23801 0.15011 0.15504 0.0
H470 H 0.32214 0.17741 0.33526 0.0
H471 H 0.2901 0.16861 0.02751 0.0
H472 H 0.26826 0.17191 0.22314 0.0
H473 H 0.34185 0.21303 0.14783 0.0
C474 C 0.35518 0.20949 0.22599 0.0
C475 C 0.35002 0.19873 0.27856 0.0
C476 C 0.27298 0.17152 0.18003 0.0
C477 C 0.31463 0.19086 0.20529 0.0
C478 C 0.25578 0.15912 0.14103 0.0
C479 C 0.26163 0.1571 0.08574 0.0
C480 C 0.29611 0.1821 0.16345 0.0
C481 C 0.28488 0.16938 0.06991 0.0
C482 C 0.33754 0.20555 0.18926 0.0
C483 C 0.32685 0.18567 0.29476 0.0
N484 N 0.30136 0.18116 0.10886 0.0
N485 N 0.30993 0.18179 0.2578 0.0
H486 H 0.80272 0.12067 0.03903 0.0
H487 H 0.78652 0.13287 0.35083 0.0
H488 H 0.81274 0.07943 0.1622 0.0
H489 H 0.74921 0.14788 0.22654 0.0
H490 H 0.79102 0.10797 0.28343 0.0
H491 H 0.77738 0.12548 0.10452 0.0
C492 C 0.79909 0.11211 0.07919 0.0
C493 C 0.81048 0.10038 0.09606 0.0
C494 C 0.78135 0.11628 0.27136 0.0
C495 C 0.782 0.10609 0.17123 0.0
C496 C 0.77886 0.13055 0.30983 0.0
C497 C 0.76817 0.14304 0.29366 0.0
C498 C 0.77349 0.11495 0.21629 0.0
C499 C 0.75819 0.13908 0.24029 0.0
C500 C 0.78463 0.11484 0.11664 0.0
C501 C 0.80491 0.08931 0.14826 0.0
N502 N 0.76162 0.12586 0.20296 0.0
N503 N 0.79156 0.09297 0.18466 0.0
H504 H 0.85778 0.67888 0.04496 0.0
H505 H 0.83735 0.64667 0.35943 0.0
H506 H 0.88832 0.72996 0.17559 0.0
H507 H 0.82807 0.59727 0.23127 0.0
H508 H 0.86124 0.67786 0.29487 0.0
H509 H 0.85166 0.64901 0.11241 0.0
C510 C 0.86352 0.68385 0.08759 0.0
C511 C 0.87297 0.7068 0.10506 0.0
C512 C 0.85439 0.66018 0.2813 0.0
C513 C 0.86585 0.67282 0.18243 0.0
C514 C 0.84072 0.64238 0.31815 0.0
C515 C 0.83014 0.6194 0.30007 0.0
C516 C 0.8571 0.65484 0.226 0.0
C517 C 0.83538 0.61479 0.24646 0.0
C518 C 0.86013 0.66682 0.12607 0.0
C519 C 0.88049 0.71237 0.16056 0.0
N520 N 0.84807 0.63238 0.21083 0.0
N521 N 0.8763 0.69541 0.19762 0.0
H522 H 0.91256 0.48505 0.50308 0.0
H523 H 0.04706 0.56024 0.55895 0.0
H524 H 0.96495 0.50423 0.37601 0.0
H525 H -0.00302 0.51765 0.68338 0.0
H526 H 0.01575 0.55198 0.49452 0.0
H527 H 0.94236 0.50907 0.57001 0.0
C528 C 0.93029 0.49461 0.48891 0.0
C529 C 0.9364 0.49215 0.43419 0.0
C530 C 0.01165 0.54485 0.53632 0.0
C531 C 0.97038 0.51974 0.51061 0.0
C532 C 0.02946 0.54951 0.57321 0.0
C533 C 0.02459 0.53899 0.62606 0.0
C534 C 0.98887 0.52969 0.55254 0.0
C535 C 0.00149 0.5257 0.64261 0.0
C536 C 0.94723 0.50832 0.52722 0.0
C537 C 0.95956 0.50529 0.41804 0.0
N538 N 0.98441 0.52108 0.60549 0.0
N539 N 0.97581 0.51831 0.45643 0.0
H540 H 0.42387 0.49573 0.56874 0.0
H541 H 0.48541 0.42249 0.51252 0.0
H542 H 0.46242 0.48219 0.69263 0.0
H543 H 0.47002 0.45835 0.38487 0.0
H544 H 0.46419 0.43206 0.58004 0.0
H545 H 0.42804 0.46979 0.50448 0.0
C546 C 0.4329 0.48702 0.58284 0.0
C547 C 0.44343 0.49164 0.63558 0.0
C548 C 0.4651 0.43741 0.537 0.0
C549 C 0.44806 0.46191 0.56225 0.0
C550 C 0.47719 0.43199 0.49834 0.0
C551 C 0.48004 0.44024 0.44329 0.0
C552 C 0.45571 0.45104 0.52037 0.0
C553 C 0.46866 0.45208 0.42715 0.0
C554 C 0.4352 0.4722 0.54609 0.0
C555 C 0.45445 0.47947 0.65195 0.0
N556 N 0.45726 0.45746 0.46585 0.0
N557 N 0.45682 0.46539 0.61496 0.0
H558 H 0.51201 0.94011 0.54955 0.0
H559 H 0.56412 0.07339 0.48824 0.0
H560 H 0.51338 0.98894 0.66971 0.0
H561 H 0.53438 0.0194 0.36404 0.0
H562 H 0.56038 0.04499 0.55738 0.0
H563 H 0.53582 0.97192 0.48672 0.0
C564 C 0.51782 0.9576 0.56333 0.0
C565 C 0.51009 0.96193 0.61404 0.0
C566 C 0.55515 0.03951 0.51471 0.0
C567 C 0.53723 -0.00182 0.5424 0.0
C568 C 0.5572 0.05564 0.47513 0.0
C569 C 0.54893 0.04858 0.42057 0.0
C570 C 0.54498 0.01627 0.49946 0.0
C571 C 0.54051 0.02547 0.40589 0.0
C572 C 0.53138 0.97569 0.52741 0.0
C573 C 0.51861 0.98488 0.63048 0.0
N574 N 0.53845 0.01002 0.44543 0.0
N575 N 0.53136 0.00223 0.59403 0.0
H576 H 0.15538 0.21703 0.08255 0.0
H577 H 0.1343 0.09619 0.96772 0.0
H578 H 0.08729 0.16071 0.04543 0.0
H579 H 0.19881 0.15989 0.94933 0.0
H580 H 0.11644 0.11809 1.002 0.0
H581 H 0.17177 0.194 0.0468 0.0
C582 C 0.14383 0.19953 0.06874 0.0
C583 C 0.11993 0.19074 0.06704 0.0
C584 C 0.13439 0.1273 0.98949 0.0
C585 C 0.13858 0.16463 0.02449 0.0
C586 C 0.1445 0.11485 0.96917 0.0
C587 C 0.16805 0.12623 0.95543 0.0
C588 C 0.14805 0.15123 0.99718 0.0
C589 C 0.18056 0.15042 0.95886 0.0
C590 C 0.15322 0.18659 0.04721 0.0
C591 C 0.10582 0.1681 0.04754 0.0
N592 N 0.17052 0.16208 0.9804 0.0
N593 N 0.11535 0.15587 0.02669 0.0
H594 H 0.84783 0.04146 0.92035 0.0
H595 H 0.79802 0.94336 0.13405 0.0
H596 H 0.8823 0.05464 0.07978 0.0
H597 H 0.81746 0.92902 0.97318 0.0
H598 H 0.82373 0.98487 0.11651 0.0
H599 H 0.83096 -0.00023 0.93737 0.0
C600 C 0.85224 0.03568 0.95817 0.0
C601 C 0.86645 0.05161 0.99862 0.0
C602 C 0.8225 0.97243 0.08572 0.0
C603 C 0.84658 0.00435 1.01909 0.0
C604 C 0.80797 0.94884 0.09577 0.0
C605 C 0.80553 0.93265 0.05516 0.0
C606 C 0.83394 0.97973 0.03412 0.0
C607 C 0.81875 0.9408 1.00587 0.0
C608 C 0.84256 0.01199 0.96794 0.0
C609 C 0.87143 0.04308 0.04728 0.0
N610 N 0.83195 0.96378 0.99614 0.0
N611 N 0.86106 0.02004 0.05679 0.0
H612 H 0.93635 0.83398 0.98706 0.0
H613 H 0.03889 0.81528 0.08871 0.0
H614 H 0.93724 0.77058 0.96163 0.0
H615 H 0.04946 0.883 0.05183 0.0
H616 H -0.00099 0.79836 0.05636 0.0
H617 H 0.97658 0.85258 1.01773 0.0
C618 C 0.94525 0.8242 0.9862 0.0
C619 C 0.93345 0.80073 0.97159 0.0
C620 C 0.00999 0.81694 0.0561 0.0
C621 C 0.97898 0.82153 1.00921 0.0
C622 C 0.03259 0.82663 0.07569 0.0
C623 C 0.04746 0.85058 0.07306 0.0
C624 C 0.00219 0.83134 0.03446 0.0
C625 C 0.03851 0.86445 0.05463 0.0
C626 C 0.96808 0.83472 1.00444 0.0
C627 C 0.94571 0.78876 0.97196 0.0
N628 N 0.01647 0.85463 0.03572 0.0
N629 N 0.96768 0.79917 0.9916 0.0
H630 H 0.80562 0.75322 0.10706 0.0
H631 H 0.73646 0.80263 0.94477 0.0
H632 H 0.80443 0.75809 0.9276 0.0
H633 H 0.75058 0.81079 0.12163 0.0
H634 H 0.75069 0.77547 0.94034 0.0
H635 H 0.77538 0.76321 0.11393 0.0
C636 C 0.79871 0.75605 0.06892 0.0
C637 C 0.80793 0.75538 1.01665 0.0
C638 C 0.75022 0.78282 0.98032 0.0
C639 C 0.77336 0.76703 0.02443 0.0
C640 C 0.74204 0.79829 0.98303 0.0
C641 C 0.74289 0.80946 0.03349 0.0
C642 C 0.75934 0.77849 0.02838 0.0
C643 C 0.74989 0.80284 0.08176 0.0
C644 C 0.78142 0.76174 0.07297 0.0
C645 C 0.79798 0.75869 0.9687 0.0
N646 N 0.75828 0.7881 0.0778 0.0
N647 N 0.78149 0.76483 0.97378 0.0
H648 H 0.17329 0.9258 0.94426 0.0
H649 H 0.21463 0.04634 0.0929 0.0
H650 H 0.16751 0.9343 0.12117 0.0
H651 H 0.2097 0.03702 0.91414 0.0
H652 H 0.20723 0.0071 0.10419 0.0
H653 H 0.19636 0.96759 0.93417 0.0
C654 C 0.17727 0.93644 0.98128 0.0
C655 C 0.16799 0.92656 0.03355 0.0
C656 C 0.20804 0.01365 0.06242 0.0
C657 C 0.1943 0.97446 1.02197 0.0
C658 C 0.21223 0.03607 0.05584 0.0
C659 C 0.21224 0.04476 1.00246 0.0
C660 C 0.20359 -0.00038 1.01533 0.0
C661 C 0.20957 0.03088 0.95602 0.0
C662 C 0.19041 0.96032 0.97534 0.0
C663 C 0.17407 0.94117 0.08004 0.0
N664 N 0.20493 0.00878 0.96358 0.0
N665 N 0.18652 0.96445 0.07298 0.0
H666 H 0.93314 0.17755 0.93295 0.0
H667 H 0.0415 0.23635 0.12974 0.0
H668 H 0.92838 0.18097 0.11214 0.0
H669 H 0.04542 0.24508 0.95076 0.0
H670 H -4e-05 0.22191 0.12503 0.0
H671 H 0.97368 0.20785 0.93804 0.0
C672 C 0.94044 0.18503 0.97316 0.0
C673 C 0.92753 0.17631 1.02226 0.0
C674 C 0.01 0.22744 0.08689 0.0
C675 C 0.97392 0.21064 0.02865 0.0
C676 C 0.03375 0.23577 0.08968 0.0
C677 C 0.04682 0.24137 0.04048 0.0
C678 C -0.00065 0.22452 0.03451 0.0
C679 C 0.03589 0.24041 0.98968 0.0
C680 C 0.96363 0.2023 0.97616 0.0
C681 C 0.93786 0.18678 0.07326 0.0
N682 N 0.01274 0.23167 0.98787 0.0
N683 N 0.96054 0.20303 0.07526 0.0
H684 H 0.75523 0.48711 0.39825 0.0
H685 H 0.86981 0.49104 0.2936 0.0
H686 H 0.82321 0.54531 0.42561 0.0
H687 H 0.80853 0.42657 0.33299 0.0
H688 H 0.85058 0.51173 0.32674 0.0
H689 H 0.77272 0.46449 0.36638 0.0
C690 C 0.77383 0.49486 0.39929 0.0
C691 C 0.78781 0.51805 0.41496 0.0
C692 C 0.84126 0.49304 0.32742 0.0
C693 C 0.80785 0.49275 0.37588 0.0
C694 C 0.85204 0.48119 0.30741 0.0
C695 C 0.84076 0.45702 0.31063 0.0
C696 C 0.81895 0.48063 0.35001 0.0
C697 C 0.81785 0.44522 0.32984 0.0
C698 C 0.78378 0.48207 0.38039 0.0
C699 C 0.8118 0.52741 0.41463 0.0
N700 N 0.80772 0.45714 0.34915 0.0
N701 N 0.82109 0.51486 0.39429 0.0
H702 H 0.54279 0.3745 0.31985 0.0
H703 H 0.42219 0.26789 0.41258 0.0
H704 H 0.47798 0.3727 0.29838 0.0
H705 H 0.48114 0.26045 0.37437 0.0
H706 H 0.44429 0.30844 0.38415 0.0
H707 H 0.52176 0.33367 0.34607 0.0
C708 C 0.52411 0.36529 0.3189 0.0
C709 C 0.5121 0.37695 0.30661 0.0
C710 C 0.45246 0.29798 0.3827 0.0
C711 C 0.48802 0.33066 0.33923 0.0
C712 C 0.44003 0.27498 0.40003 0.0
C713 C 0.44989 0.26082 0.39594 0.0
C714 C 0.47496 0.30689 0.36182 0.0
C715 C 0.47293 0.27081 0.37823 0.0
C716 C 0.51214 0.3421 0.33461 0.0
C717 C 0.48791 0.36431 0.30685 0.0
N718 N 0.48466 0.29321 0.36154 0.0
N719 N 0.47665 0.34193 0.324 0.0
H720 H 0.60666 0.17386 0.3042 0.0
H721 H 0.70666 0.15495 0.42364 0.0
H722 H 0.60881 0.11097 0.28155 0.0
H723 H 0.71896 0.22291 0.38181 0.0
H724 H 0.66753 0.13843 0.38679 0.0
H725 H 0.64617 0.19258 0.34035 0.0
C726 C 0.6157 0.16422 0.30513 0.0
C727 C 0.60442 0.14082 0.28972 0.0
C728 C 0.67872 0.15699 0.38642 0.0
C729 C 0.64904 0.16176 0.33355 0.0
C730 C 0.70089 0.16648 0.40855 0.0
C731 C 0.71612 0.19036 0.40571 0.0
C732 C 0.67163 0.1715 0.36201 0.0
C733 C 0.70776 0.2044 0.38474 0.0
C734 C 0.6381 0.17481 0.32648 0.0
C735 C 0.61686 0.12907 0.29246 0.0
N736 N 0.6861 0.19476 0.36331 0.0
N737 N 0.63833 0.13952 0.31509 0.0
H738 H 0.47278 0.09106 0.24556 0.0
H739 H 0.4128 0.13867 0.44966 0.0
H740 H 0.47762 0.09122 0.42521 0.0
H741 H 0.40293 0.13325 0.2711 0.0
H742 H 0.42992 0.11384 0.44315 0.0
H743 H 0.44096 0.09912 0.25472 0.0
C744 C 0.46682 0.09229 0.28683 0.0
C745 C 0.47819 0.09104 0.33459 0.0
C746 C 0.42359 0.11772 0.40549 0.0
C747 C 0.44212 0.10046 0.34558 0.0
C748 C 0.41371 0.1318 0.40934 0.0
C749 C 0.40698 0.13849 0.36075 0.0
C750 C 0.42688 0.11049 0.35266 0.0
C751 C 0.40843 0.12897 0.30954 0.0
C752 C 0.44872 0.09696 0.29215 0.0
C753 C 0.4697 0.09264 0.38717 0.0
N754 N 0.41862 0.11585 0.30669 0.0
N755 N 0.45247 0.09763 0.39123 0.0
H756 H 0.84745 0.25755 0.28341 0.0
H757 H 0.8858 0.37328 0.25146 0.0
H758 H 0.83604 0.26929 0.45465 0.0
H759 H 0.89239 0.3781 0.43077 0.0
H760 H 0.87632 0.33303 0.25706 0.0
H761 H 0.87351 0.29882 0.27167 0.0
C762 C 0.85075 0.26885 0.31888 0.0
C763 C 0.83915 0.26007 0.36976 0.0
C764 C 0.88057 0.34298 0.29518 0.0
C765 C 0.86815 0.30755 0.35586 0.0
C766 C 0.88594 0.36604 0.2918 0.0
C767 C 0.88944 0.37886 0.34071 0.0
C768 C 0.87882 0.33284 0.34795 0.0
C769 C 0.88932 0.36865 0.39202 0.0
C770 C 0.8654 0.29252 0.31186 0.0
C771 C 0.84443 0.27535 0.41457 0.0
N772 N 0.88369 0.34619 0.39436 0.0
N773 N 0.85821 0.29843 0.40623 0.0
H774 H 0.59898 0.5058 0.26608 0.0
H775 H 0.70737 0.56199 0.46758 0.0
H776 H 0.59476 0.5025 0.44598 0.0
H777 H 0.71193 0.56937 0.28825 0.0
H778 H 0.66582 0.54723 0.46149 0.0
H779 H 0.63973 0.5357 0.27357 0.0
C780 C 0.60649 0.51169 0.30704 0.0
C781 C 0.59367 0.50128 0.3554 0.0
C782 C 0.67599 0.55248 0.42352 0.0
C783 C 0.64012 0.53519 0.36446 0.0
C784 C 0.69974 0.56102 0.42711 0.0
C785 C 0.71301 0.56635 0.3783 0.0
C786 C 0.66552 0.54914 0.37075 0.0
C787 C 0.70224 0.56491 0.32692 0.0
C788 C 0.62975 0.5287 0.3114 0.0
C789 C 0.60418 0.50966 0.40752 0.0
N790 N 0.67908 0.55604 0.32438 0.0
N791 N 0.62684 0.52583 0.41066 0.0
H792 H 0.52444 0.80911 0.57729 0.0
H793 H 0.47316 0.8597 0.78451 0.0
H794 H 0.50039 0.77536 0.73696 0.0
H795 H 0.44532 0.84375 0.61734 0.0
H796 H 0.48887 0.83371 0.76995 0.0
H797 H 0.50054 0.82721 0.59053 0.0
C798 C 0.51384 0.80513 0.61439 0.0
C799 C 0.51447 0.79071 0.65596 0.0
C800 C 0.479 0.83579 0.73702 0.0
C801 C 0.48813 0.812 0.67223 0.0
C802 C 0.47002 0.85051 0.74533 0.0
C803 C 0.45789 0.85393 0.70224 0.0
C804 C 0.47641 0.82514 0.68481 0.0
C805 C 0.45449 0.84166 0.65195 0.0
C806 C 0.50035 0.81551 0.62203 0.0
C807 C 0.50048 0.78632 0.70363 0.0
N808 N 0.46412 0.82822 0.64419 0.0
N809 N 0.48831 0.79734 0.71108 0.0
H810 H 0.15707 0.70827 0.61968 0.0
H811 H 0.15709 0.59503 0.72116 0.0
H812 H 0.22022 0.70815 0.65452 0.0
H813 H 0.09989 0.60658 0.74719 0.0
H814 H 0.18047 0.63493 0.68877 0.0
H815 H 0.13516 0.66818 0.65114 0.0
C816 C 0.16635 0.69959 0.63204 0.0
C817 C 0.19053 0.71161 0.6346 0.0
C818 C 0.16294 0.62885 0.70252 0.0
C819 C 0.16555 0.666 0.67218 0.0
C820 C 0.14971 0.60622 0.72173 0.0
C821 C 0.1266 0.59757 0.73731 0.0
C822 C 0.1528 0.64273 0.69768 0.0
C823 C 0.11773 0.61264 0.73635 0.0
C824 C 0.15382 0.67686 0.65113 0.0
C825 C 0.20159 0.69952 0.65194 0.0
N826 N 0.13072 0.63439 0.71584 0.0
N827 N 0.18902 0.67742 0.67049 0.0
H828 H 0.38849 0.56639 0.73594 0.0
H829 H 0.28104 0.44987 0.62828 0.0
H830 H 0.38064 0.49919 0.76461 0.0
H831 H 0.27483 0.50949 0.66773 0.0
H832 H 0.32079 0.47041 0.66221 0.0
H833 H 0.34862 0.54779 0.70223 0.0
C834 C 0.37813 0.54773 0.73682 0.0
C835 C 0.38785 0.53431 0.75339 0.0
C836 C 0.3108 0.47909 0.66267 0.0
C837 C 0.3428 0.51303 0.71227 0.0
C838 C 0.28828 0.46757 0.64219 0.0
C839 C 0.27459 0.47799 0.64524 0.0
C840 C 0.31979 0.50128 0.68554 0.0
C841 C 0.28481 0.50084 0.66468 0.0
C842 C 0.35553 0.53716 0.71688 0.0
C843 C 0.37378 0.5102 0.75289 0.0
N844 N 0.30677 0.5117 0.68446 0.0
N845 N 0.35211 0.50032 0.73156 0.0
H846 H 0.14427 0.42185 0.76831 0.0
H847 H 0.07385 0.4708 0.60938 0.0
H848 H 0.14597 0.43112 0.58974 0.0
H849 H 0.08478 0.4751 0.78757 0.0
H850 H 0.09035 0.44564 0.60224 0.0
H851 H 0.11307 0.43047 0.77517 0.0
C852 C 0.13781 0.42537 0.73031 0.0
C853 C 0.14809 0.42633 0.67842 0.0
C854 C 0.08875 0.45172 0.64302 0.0
C855 C 0.11241 0.43636 0.68623 0.0
C856 C 0.07929 0.46606 0.64727 0.0
C857 C 0.07846 0.47553 0.69909 0.0
C858 C 0.09749 0.44681 0.69091 0.0
C859 C 0.08535 0.46844 0.74675 0.0
C860 C 0.11997 0.43027 0.73436 0.0
C861 C 0.1387 0.43046 0.63058 0.0
N862 N 0.09498 0.45481 0.74137 0.0
N863 N 0.12162 0.43577 0.63574 0.0
H864 H 0.51538 0.61389 0.805 0.0
H865 H 0.56937 0.72037 0.60054 0.0
H866 H 0.51643 0.6078 0.62575 0.0
H867 H 0.57875 0.72653 0.77923 0.0
H868 H 0.55667 0.67923 0.60807 0.0
H869 H 0.54487 0.65474 0.79696 0.0
C870 C 0.52221 0.62099 0.76416 0.0
C871 C 0.51304 0.60761 0.71594 0.0
C872 C 0.56197 0.68969 0.64554 0.0
C873 C 0.54641 0.65427 0.70617 0.0
C874 C 0.56934 0.71322 0.64112 0.0
C875 C 0.57455 0.72676 0.68942 0.0
C876 C 0.5596 0.67969 0.69866 0.0
C877 C 0.57433 0.7166 0.74097 0.0
C878 C 0.53898 0.64434 0.75946 0.0
C879 C 0.5226 0.61766 0.664 0.0
N880 N 0.56648 0.69361 0.74438 0.0
N881 N 0.53841 0.64045 0.66041 0.0
H882 H 0.27251 0.83909 0.76787 0.0
H883 H 0.389 0.91552 0.60107 0.0
H884 H 0.27712 0.84236 0.58804 0.0
H885 H 0.38511 0.90086 0.7775 0.0
H886 H 0.34718 0.89831 0.5987 0.0
H887 H 0.31214 0.87064 0.77368 0.0
C888 C 0.28181 0.84667 0.72945 0.0
C889 C 0.27171 0.83772 0.67729 0.0
C890 C 0.3555 0.89926 0.63814 0.0
C891 C 0.31726 0.87386 0.68386 0.0
C892 C 0.37941 0.90915 0.63968 0.0
C893 C 0.39053 0.9091 0.68939 0.0
C894 C 0.3426 0.88923 0.68663 0.0
C895 C 0.37725 0.901 0.73816 0.0
C896 C 0.30445 0.86473 0.7329 0.0
C897 C 0.28437 0.84857 0.62904 0.0
N898 N 0.35391 0.89098 0.73534 0.0
N899 N 0.30671 0.86585 0.63348 0.0
loop_
_geom_bond_atom_site_label_1
_geom_bond_atom_site_label_2
_geom_bond_distance
_geom_bond_site_symmetry_2
_ccdc_geom_bond_type
Zn0 O3 2.031 . S
Zn0 O5 2.049 . S
Zn0 O10 2.067 . S
Zn1 O2 1.962 . S
Zn1 O4 1.986 . S
Zn1 O6 1.996 . S
Zn1 O9 1.943 . S
O2 Zn1 1.962 . S
O2 C7 1.254 . S
O3 Zn0 2.031 . S
O3 C7 1.269 1_556 S
O4 Zn1 1.986 . S
O4 C11 1.262 . S
O5 Zn0 2.049 . S
O5 C13 1.260 1_556 S
O6 Zn1 1.996 . S
O6 C13 1.257 . S
C7 O2 1.254 . S
C7 O3 1.269 1_554 S
C8 O9 1.249 1_556 S
C8 O10 1.270 . S
O9 Zn1 1.943 . S
O9 C8 1.249 1_554 S
O10 Zn0 2.067 . S
O10 C8 1.270 . S
C11 O4 1.262 . S
C11 O12 1.232 . S
O12 C11 1.232 . S
C13 O5 1.260 1_554 S
C13 O6 1.257 . S
Zn14 O17 2.031 . S
Zn14 O19 2.049 . S
Zn14 O24 2.067 . S
Zn15 O16 1.962 . S
Zn15 O18 1.986 . S
Zn15 O20 1.996 . S
Zn15 O23 1.943 . S
O16 Zn15 1.962 . S
O16 C21 1.254 . S
O17 Zn14 2.031 . S
O17 C21 1.269 1_556 S
O18 Zn15 1.986 . S
O18 C25 1.262 . S
O19 Zn14 2.049 . S
O19 C27 1.260 1_556 S
O20 Zn15 1.996 . S
O20 C27 1.257 . S
C21 O16 1.254 . S
C21 O17 1.269 1_554 S
C22 O23 1.249 1_556 S
C22 O24 1.270 . S
O23 Zn15 1.943 . S
O23 C22 1.249 1_554 S
O24 Zn14 2.067 . S
O24 C22 1.270 . S
C25 O18 1.262 . S
C25 O26 1.232 . S
O26 C25 1.232 . S
C27 O19 1.260 1_554 S
C27 O20 1.257 . S
Zn28 O31 2.031 . S
Zn28 O33 2.049 . S
Zn28 O38 2.067 . S
Zn29 O30 1.962 . S
Zn29 O32 1.986 . S
Zn29 O34 1.996 . S
Zn29 O37 1.943 . S
O30 Zn29 1.962 . S
O30 C35 1.254 . S
O31 Zn28 2.031 . S
O31 C35 1.269 1_556 S
O32 Zn29 1.986 . S
O32 C39 1.262 . S
O33 Zn28 2.049 . S
O33 C41 1.260 1_556 S
O34 Zn29 1.996 . S
O34 C41 1.257 . S
C35 O30 1.254 . S
C35 O31 1.269 1_554 S
C36 O37 1.249 1_556 S
C36 O38 1.270 . S
O37 Zn29 1.943 . S
O37 C36 1.249 1_554 S
O38 Zn28 2.067 . S
O38 C36 1.270 . S
C39 O32 1.262 . S
C39 O40 1.232 . S
O40 C39 1.232 . S
C41 O33 1.260 1_554 S
C41 O34 1.257 . S
Zn42 O45 2.031 . S
Zn42 O47 2.049 . S
Zn42 O52 2.067 . S
Zn43 O44 1.962 . S
Zn43 O46 1.986 . S
Zn43 O48 1.996 . S
Zn43 O51 1.943 . S
O44 Zn43 1.962 . S
O44 C49 1.254 . S
O45 Zn42 2.031 . S
O45 C49 1.269 1_554 S
O46 Zn43 1.986 . S
O46 C53 1.262 . S
O47 Zn42 2.049 . S
O47 C55 1.260 1_554 S
O48 Zn43 1.996 . S
O48 C55 1.257 . S
C49 O44 1.254 . S
C49 O45 1.269 1_556 S
C50 O51 1.249 1_554 S
C50 O52 1.270 . S
O51 Zn43 1.943 . S
O51 C50 1.249 1_556 S
O52 Zn42 2.067 . S
O52 C50 1.270 . S
C53 O46 1.262 . S
C53 O54 1.232 . S
O54 C53 1.232 . S
C55 O47 1.260 1_556 S
C55 O48 1.257 . S
Zn56 O59 2.031 . S
Zn56 O61 2.049 . S
Zn56 O66 2.067 . S
Zn57 O58 1.962 . S
Zn57 O60 1.986 . S
Zn57 O62 1.996 . S
Zn57 O65 1.943 . S
O58 Zn57 1.962 . S
O58 C63 1.254 . S
O59 Zn56 2.031 . S
O59 C63 1.269 1_554 S
O60 Zn57 1.986 . S
O60 C67 1.262 . S
O61 Zn56 2.049 . S
O61 C69 1.260 1_554 S
O62 Zn57 1.996 . S
O62 C69 1.257 . S
C63 O58 1.254 . S
C63 O59 1.269 1_556 S
C64 O65 1.249 1_554 S
C64 O66 1.270 . S
O65 Zn57 1.943 . S
O65 C64 1.249 1_556 S
O66 Zn56 2.067 . S
O66 C64 1.270 . S
C67 O60 1.262 . S
C67 O68 1.232 . S
O68 C67 1.232 . S
C69 O61 1.260 1_556 S
C69 O62 1.257 . S
Zn70 O73 2.031 . S
Zn70 O75 2.049 . S
Zn70 O80 2.067 . S
Zn71 O72 1.962 . S
Zn71 O74 1.986 . S
Zn71 O76 1.996 . S
Zn71 O79 1.943 . S
O72 Zn71 1.962 . S
O72 C77 1.254 . S
O73 Zn70 2.031 . S
O73 C77 1.269 1_554 S
O74 Zn71 1.986 . S
O74 C81 1.262 . S
O75 Zn70 2.049 . S
O75 C83 1.260 1_554 S
O76 Zn71 1.996 . S
O76 C83 1.257 . S
C77 O72 1.254 . S
C77 O73 1.269 1_556 S
C78 O79 1.249 1_554 S
C78 O80 1.270 . S
O79 Zn71 1.943 . S
O79 C78 1.249 1_556 S
O80 Zn70 2.067 . S
O80 C78 1.270 . S
C81 O74 1.262 . S
C81 O82 1.232 . S
O82 C81 1.232 . S
C83 O75 1.260 1_556 S
C83 O76 1.257 . S
Zn84 O87 2.031 . S
Zn84 O89 2.049 . S
Zn84 O94 2.067 . S
Zn85 O86 1.962 . S
Zn85 O88 1.986 . S
Zn85 O90 1.996 . S
Zn85 O93 1.943 . S
O86 Zn85 1.962 . S
O86 C91 1.254 . S
O87 Zn84 2.031 . S
O87 C91 1.269 . S
O88 Zn85 1.986 . S
O88 C95 1.262 . S
O89 Zn84 2.049 . S
O89 C97 1.260 . S
O90 Zn85 1.996 . S
O90 C97 1.257 . S
C91 O86 1.254 . S
C91 O87 1.269 . S
C92 O93 1.249 . S
C92 O94 1.270 . S
O93 Zn85 1.943 . S
O93 C92 1.249 . S
O94 Zn84 2.067 . S
O94 C92 1.270 . S
C95 O88 1.262 . S
C95 O96 1.232 . S
O96 C95 1.232 . S
C97 O89 1.260 . S
C97 O90 1.257 . S
Zn98 O101 2.031 . S
Zn98 O103 2.049 . S
Zn98 O108 2.067 . S
Zn99 O100 1.962 . S
Zn99 O102 1.986 . S
Zn99 O104 1.996 . S
Zn99 O107 1.943 . S
O100 Zn99 1.962 . S
O100 C105 1.254 . S
O101 Zn98 2.031 . S
O101 C105 1.269 . S
O102 Zn99 1.986 . S
O102 C109 1.262 . S
O103 Zn98 2.049 . S
O103 C111 1.260 . S
O104 Zn99 1.996 . S
O104 C111 1.257 . S
C105 O100 1.254 . S
C105 O101 1.269 . S
C106 O107 1.249 . S
C106 O108 1.270 . S
O107 Zn99 1.943 . S
O107 C106 1.249 . S
O108 Zn98 2.067 . S
O108 C106 1.270 . S
C109 O102 1.262 . S
C109 O110 1.232 . S
O110 C109 1.232 . S
C111 O103 1.260 . S
C111 O104 1.257 . S
Zn112 O115 2.031 . S
Zn112 O117 2.049 . S
Zn112 O122 2.067 . S
Zn113 O114 1.962 . S
Zn113 O116 1.986 . S
Zn113 O118 1.996 . S
Zn113 O121 1.943 . S
O114 Zn113 1.962 . S
O114 C119 1.254 . S
O115 Zn112 2.031 . S
O115 C119 1.269 . S
O116 Zn113 1.986 . S
O116 C123 1.262 . S
O117 Zn112 2.049 . S
O117 C125 1.260 . S
O118 Zn113 1.996 . S
O118 C125 1.257 . S
C119 O114 1.254 . S
C119 O115 1.269 . S
C120 O121 1.249 . S
C120 O122 1.270 . S
O121 Zn113 1.943 . S
O121 C120 1.249 . S
O122 Zn112 2.067 . S
O122 C120 1.270 . S
C123 O116 1.262 . S
C123 O124 1.232 . S
O124 C123 1.232 . S
C125 O117 1.260 . S
C125 O118 1.257 . S
Zn126 O129 2.031 . S
Zn126 O131 2.049 . S
Zn126 O136 2.067 . S
Zn127 O128 1.962 . S
Zn127 O130 1.986 . S
Zn127 O132 1.996 . S
Zn127 O135 1.943 . S
O128 Zn127 1.962 . S
O128 C133 1.254 . S
O129 Zn126 2.031 . S
O129 C133 1.269 . S
O130 Zn127 1.986 . S
O130 C137 1.262 . S
O131 Zn126 2.049 . S
O131 C139 1.260 . S
O132 Zn127 1.996 . S
O132 C139 1.257 . S
C133 O128 1.254 . S
C133 O129 1.269 . S
C134 O135 1.249 . S
C134 O136 1.270 . S
O135 Zn127 1.943 . S
O135 C134 1.249 . S
O136 Zn126 2.067 . S
O136 C134 1.270 . S
C137 O130 1.262 . S
C137 O138 1.232 . S
O138 C137 1.232 . S
C139 O131 1.260 . S
C139 O132 1.257 . S
Zn140 O143 2.031 . S
Zn140 O145 2.049 . S
Zn140 O150 2.067 . S
Zn141 O142 1.962 . S
Zn141 O144 1.986 . S
Zn141 O146 1.996 . S
Zn141 O149 1.943 . S
O142 Zn141 1.962 . S
O142 C147 1.254 . S
O143 Zn140 2.031 . S
O143 C147 1.269 . S
O144 Zn141 1.986 . S
O144 C151 1.262 . S
O145 Zn140 2.049 . S
O145 C153 1.260 . S
O146 Zn141 1.996 . S
O146 C153 1.257 . S
C147 O142 1.254 . S
C147 O143 1.269 . S
C148 O149 1.249 . S
C148 O150 1.270 . S
O149 Zn141 1.943 . S
O149 C148 1.249 . S
O150 Zn140 2.067 . S
O150 C148 1.270 . S
C151 O144 1.262 . S
C151 O152 1.232 . S
O152 C151 1.232 . S
C153 O145 1.260 . S
C153 O146 1.257 . S
Zn154 O157 2.031 . S
Zn154 O159 2.049 . S
Zn154 O164 2.067 . S
Zn155 O156 1.962 . S
Zn155 O158 1.986 . S
Zn155 O160 1.996 . S
Zn155 O163 1.943 . S
O156 Zn155 1.962 . S
O156 C161 1.254 . S
O157 Zn154 2.031 . S
O157 C161 1.269 . S
O158 Zn155 1.986 . S
O158 C165 1.262 . S
O159 Zn154 2.049 . S
O159 C167 1.260 . S
O160 Zn155 1.996 . S
O160 C167 1.257 . S
C161 O156 1.254 . S
C161 O157 1.269 . S
C162 O163 1.249 . S
C162 O164 1.270 . S
O163 Zn155 1.943 . S
O163 C162 1.249 . S
O164 Zn154 2.067 . S
O164 C162 1.270 . S
C165 O158 1.262 . S
C165 O166 1.232 . S
O166 C165 1.232 . S
C167 O159 1.260 . S
C167 O160 1.257 . S
Zn168 O171 2.031 . S
Zn168 O173 2.049 . S
Zn168 O178 2.067 . S
Zn169 O170 1.962 . S
Zn169 O172 1.986 . S
Zn169 O174 1.996 . S
Zn169 O177 1.943 . S
O170 Zn169 1.962 . S
O170 C175 1.254 . S
O171 Zn168 2.031 . S
O171 C175 1.269 . S
O172 Zn169 1.986 . S
O172 C179 1.262 . S
O173 Zn168 2.049 . S
O173 C181 1.260 . S
O174 Zn169 1.996 . S
O174 C181 1.257 . S
C175 O170 1.254 . S
C175 O171 1.269 . S
C176 O177 1.249 . S
C176 O178 1.270 . S
O177 Zn169 1.943 . S
O177 C176 1.249 . S
O178 Zn168 2.067 . S
O178 C176 1.270 . S
C179 O172 1.262 . S
C179 O180 1.232 . S
O180 C179 1.232 . S
C181 O173 1.260 . S
C181 O174 1.257 . S
Zn182 O185 2.031 . S
Zn182 O187 2.049 . S
Zn182 O192 2.067 . S
Zn183 O184 1.962 . S
Zn183 O186 1.986 . S
Zn183 O188 1.996 . S
Zn183 O191 1.943 . S
O184 Zn183 1.962 . S
O184 C189 1.254 . S
O185 Zn182 2.031 . S
O185 C189 1.269 . S
O186 Zn183 1.986 . S
O186 C193 1.262 . S
O187 Zn182 2.049 . S
O187 C195 1.260 . S
O188 Zn183 1.996 . S
O188 C195 1.257 . S
C189 O184 1.254 . S
C189 O185 1.269 . S
C190 O191 1.249 . S
C190 O192 1.270 . S
O191 Zn183 1.943 . S
O191 C190 1.249 . S
O192 Zn182 2.067 . S
O192 C190 1.270 . S
C193 O186 1.262 . S
C193 O194 1.232 . S
O194 C193 1.232 . S
C195 O187 1.260 . S
C195 O188 1.257 . S
Zn196 O199 2.031 . S
Zn196 O201 2.049 . S
Zn196 O206 2.067 . S
Zn197 O198 1.962 . S
Zn197 O200 1.986 . S
Zn197 O202 1.996 . S
Zn197 O205 1.943 . S
O198 Zn197 1.962 . S
O198 C203 1.254 . S
O199 Zn196 2.031 . S
O199 C203 1.269 . S
O200 Zn197 1.986 . S
O200 C207 1.262 . S
O201 Zn196 2.049 . S
O201 C209 1.260 . S
O202 Zn197 1.996 . S
O202 C209 1.257 . S
C203 O198 1.254 . S
C203 O199 1.269 . S
C204 O205 1.249 . S
C204 O206 1.270 . S
O205 Zn197 1.943 . S
O205 C204 1.249 . S
O206 Zn196 2.067 . S
O206 C204 1.270 . S
C207 O200 1.262 . S
C207 O208 1.232 . S
O208 C207 1.232 . S
C209 O201 1.260 . S
C209 O202 1.257 . S
Zn210 O213 2.031 . S
Zn210 O215 2.049 . S
Zn210 O220 2.067 . S
Zn211 O212 1.962 . S
Zn211 O214 1.986 . S
Zn211 O216 1.996 . S
Zn211 O219 1.943 . S
O212 Zn211 1.962 . S
O212 C217 1.254 . S
O213 Zn210 2.031 . S
O213 C217 1.269 . S
O214 Zn211 1.986 . S
O214 C221 1.262 . S
O215 Zn210 2.049 . S
O215 C223 1.260 . S
O216 Zn211 1.996 . S
O216 C223 1.257 . S
C217 O212 1.254 . S
C217 O213 1.269 . S
C218 O219 1.249 . S
C218 O220 1.270 . S
O219 Zn211 1.943 . S
O219 C218 1.249 . S
O220 Zn210 2.067 . S
O220 C218 1.270 . S
C221 O214 1.262 . S
C221 O222 1.232 . S
O222 C221 1.232 . S
C223 O215 1.260 . S
C223 O216 1.257 . S
Zn224 O227 2.031 . S
Zn224 O229 2.049 . S
Zn224 O234 2.067 . S
Zn225 O226 1.962 . S
Zn225 O228 1.986 . S
Zn225 O230 1.996 . S
Zn225 O233 1.943 . S
O226 Zn225 1.962 . S
O226 C231 1.254 . S
O227 Zn224 2.031 . S
O227 C231 1.269 . S
O228 Zn225 1.986 . S
O228 C235 1.262 . S
O229 Zn224 2.049 . S
O229 C237 1.260 . S
O230 Zn225 1.996 . S
O230 C237 1.257 . S
C231 O226 1.254 . S
C231 O227 1.269 . S
C232 O233 1.249 . S
C232 O234 1.270 . S
O233 Zn225 1.943 . S
O233 C232 1.249 . S
O234 Zn224 2.067 . S
O234 C232 1.270 . S
C235 O228 1.262 . S
C235 O236 1.232 . S
O236 C235 1.232 . S
C237 O229 1.260 . S
C237 O230 1.257 . S
Zn238 O241 2.031 . S
Zn238 O243 2.049 . S
Zn238 O248 2.067 . S
Zn239 O240 1.962 . S
Zn239 O242 1.986 . S
Zn239 O244 1.996 . S
Zn239 O247 1.943 . S
O240 Zn239 1.962 . S
O240 C245 1.254 . S
O241 Zn238 2.031 . S
O241 C245 1.269 . S
O242 Zn239 1.986 . S
O242 C249 1.262 . S
O243 Zn238 2.049 . S
O243 C251 1.260 . S
O244 Zn239 1.996 . S
O244 C251 1.257 . S
C245 O240 1.254 . S
C245 O241 1.269 . S
C246 O247 1.249 . S
C246 O248 1.270 . S
O247 Zn239 1.943 . S
O247 C246 1.249 . S
O248 Zn238 2.067 . S
O248 C246 1.270 . S
C249 O242 1.262 . S
C249 O250 1.232 . S
O250 C249 1.232 . S
C251 O243 1.260 . S
C251 O244 1.257 . S
H252 C258 0.930 . S
H253 C262 0.930 . S
H254 C267 0.929 . S
H255 C265 0.929 . S
H256 C260 0.929 . S
H257 C266 0.929 . S
C258 H252 0.930 . S
C258 C259 1.367 . S
C258 C266 1.378 . S
C259 C258 1.367 . S
C259 C267 1.433 . S
C260 H256 0.929 . S
C260 C262 1.378 . S
C260 C264 1.350 . S
C261 C264 1.463 . S
C261 C266 1.350 . S
C261 N269 1.427 . S
C262 H253 0.930 . S
C262 C260 1.378 . S
C262 C263 1.367 . S
C263 C262 1.367 . S
C263 C265 1.433 . S
C264 C260 1.350 . S
C264 C261 1.463 . S
C264 N268 1.427 . S
C265 H255 0.929 . S
C265 C263 1.433 . S
C265 N268 1.384 . S
C266 H257 0.929 . S
C266 C258 1.378 . S
C266 C261 1.350 . S
C267 H254 0.929 . S
C267 C259 1.433 . S
C267 N269 1.384 . S
N268 C264 1.427 . S
N268 C265 1.384 . S
N269 C261 1.427 . S
N269 C267 1.384 . S
H270 C276 0.930 . S
H271 C280 0.930 . S
H272 C285 0.929 . S
H273 C283 0.929 . S
H274 C278 0.929 . S
H275 C284 0.929 . S
C276 H270 0.930 . S
C276 C277 1.367 . S
C276 C284 1.378 . S
C277 C276 1.367 . S
C277 C285 1.433 . S
C278 H274 0.929 . S
C278 C280 1.378 . S
C278 C282 1.350 . S
C279 C282 1.463 . S
C279 C284 1.350 . S
C279 N287 1.427 . S
C280 H271 0.930 . S
C280 C278 1.378 . S
C280 C281 1.367 . S
C281 C280 1.367 . S
C281 C283 1.433 . S
C282 C278 1.350 . S
C282 C279 1.463 . S
C282 N286 1.427 . S
C283 H273 0.929 . S
C283 C281 1.433 . S
C283 N286 1.384 . S
C284 H275 0.929 . S
C284 C276 1.378 . S
C284 C279 1.350 . S
C285 H272 0.929 . S
C285 C277 1.433 . S
C285 N287 1.384 . S
N286 C282 1.427 . S
N286 C283 1.384 . S
N287 C279 1.427 . S
N287 C285 1.384 . S
H288 C294 0.930 . S
H289 C298 0.930 . S
H290 C303 0.929 . S
H291 C301 0.929 . S
H292 C296 0.929 . S
H293 C302 0.929 . S
C294 H288 0.930 . S
C294 C295 1.367 . S
C294 C302 1.378 . S
C295 C294 1.367 . S
C295 C303 1.433 . S
C296 H292 0.929 . S
C296 C298 1.378 . S
C296 C300 1.350 . S
C297 C300 1.463 . S
C297 C302 1.350 . S
C297 N305 1.427 . S
C298 H289 0.930 . S
C298 C296 1.378 . S
C298 C299 1.367 . S
C299 C298 1.367 . S
C299 C301 1.433 . S
C300 C296 1.350 . S
C300 C297 1.463 . S
C300 N304 1.427 . S
C301 H291 0.929 . S
C301 C299 1.433 . S
C301 N304 1.384 . S
C302 H293 0.929 . S
C302 C294 1.378 . S
C302 C297 1.350 . S
C303 H290 0.929 . S
C303 C295 1.433 . S
C303 N305 1.384 . S
N304 C300 1.427 . S
N304 C301 1.384 . S
N305 C297 1.427 . S
N305 C303 1.384 . S
H306 C312 0.930 . S
H307 C316 0.930 . S
H308 C321 0.929 . S
H309 C319 0.929 . S
H310 C314 0.929 . S
H311 C320 0.929 . S
C312 H306 0.930 . S
C312 C313 1.367 . S
C312 C320 1.378 . S
C313 C312 1.367 . S
C313 C321 1.433 . S
C314 H310 0.929 . S
C314 C316 1.378 . S
C314 C318 1.350 . S
C315 C318 1.463 . S
C315 C320 1.350 . S
C315 N323 1.427 . S
C316 H307 0.930 . S
C316 C314 1.378 . S
C316 C317 1.367 . S
C317 C316 1.367 . S
C317 C319 1.433 . S
C318 C314 1.350 . S
C318 C315 1.463 . S
C318 N322 1.427 . S
C319 H309 0.929 . S
C319 C317 1.433 . S
C319 N322 1.384 . S
C320 H311 0.929 . S
C320 C312 1.378 . S
C320 C315 1.350 . S
C321 H308 0.929 . S
C321 C313 1.433 . S
C321 N323 1.384 . S
N322 C318 1.427 . S
N322 C319 1.384 . S
N323 C315 1.427 . S
N323 C321 1.384 . S
H324 C330 0.930 . S
H325 C334 0.930 . S
H326 C339 0.929 . S
H327 C337 0.929 . S
H328 C332 0.929 . S
H329 C338 0.929 . S
C330 H324 0.930 . S
C330 C331 1.367 . S
C330 C338 1.378 . S
C331 C330 1.367 . S
C331 C339 1.433 . S
C332 H328 0.929 . S
C332 C334 1.378 . S
C332 C336 1.350 . S
C333 C336 1.463 . S
C333 C338 1.350 . S
C333 N341 1.427 . S
C334 H325 0.930 . S
C334 C332 1.378 . S
C334 C335 1.367 . S
C335 C334 1.367 . S
C335 C337 1.433 . S
C336 C332 1.350 . S
C336 C333 1.463 . S
C336 N340 1.427 . S
C337 H327 0.929 . S
C337 C335 1.433 . S
C337 N340 1.384 . S
C338 H329 0.929 . S
C338 C330 1.378 . S
C338 C333 1.350 . S
C339 H326 0.929 . S
C339 C331 1.433 . S
C339 N341 1.384 . S
N340 C336 1.427 . S
N340 C337 1.384 . S
N341 C333 1.427 . S
N341 C339 1.384 . S
H342 C348 0.930 . S
H343 C352 0.930 . S
H344 C357 0.929 . S
H345 C355 0.929 . S
H346 C350 0.929 . S
H347 C356 0.929 . S
C348 H342 0.930 . S
C348 C349 1.367 . S
C348 C356 1.378 . S
C349 C348 1.367 . S
C349 C357 1.433 . S
C350 H346 0.929 . S
C350 C352 1.378 . S
C350 C354 1.350 . S
C351 C354 1.463 . S
C351 C356 1.350 . S
C351 N359 1.427 . S
C352 H343 0.930 . S
C352 C350 1.378 . S
C352 C353 1.367 . S
C353 C352 1.367 . S
C353 C355 1.433 . S
C354 C350 1.350 . S
C354 C351 1.463 . S
C354 N358 1.427 . S
C355 H345 0.929 . S
C355 C353 1.433 . S
C355 N358 1.384 . S
C356 H347 0.929 . S
C356 C348 1.378 . S
C356 C351 1.350 . S
C357 H344 0.929 . S
C357 C349 1.433 . S
C357 N359 1.384 . S
N358 C354 1.427 . S
N358 C355 1.384 . S
N359 C351 1.427 . S
N359 C357 1.384 . S
H360 C366 0.930 . S
H361 C370 0.930 . S
H362 C375 0.929 . S
H363 C373 0.929 . S
H364 C368 0.929 1_554 S
H365 C374 0.929 1_556 S
C366 H360 0.930 . S
C366 C367 1.367 . S
C366 C374 1.378 . S
C367 C366 1.367 . S
C367 C375 1.433 . S
C368 H364 0.929 1_556 S
C368 C370 1.378 . S
C368 C372 1.350 . S
C369 C372 1.463 1_654 S
C369 C374 1.350 . S
C369 N377 1.427 1_655 S
C370 H361 0.930 . S
C370 C368 1.378 . S
C370 C371 1.367 . S
C371 C370 1.367 . S
C371 C373 1.433 . S
C372 C368 1.350 . S
C372 C369 1.463 1_456 S
C372 N376 1.427 1_455 S
C373 H363 0.929 . S
C373 C371 1.433 . S
C373 N376 1.384 1_455 S
C374 H365 0.929 1_554 S
C374 C366 1.378 . S
C374 C369 1.350 . S
C375 H362 0.929 . S
C375 C367 1.433 . S
C375 N377 1.384 1_655 S
N376 C372 1.427 1_655 S
N376 C373 1.384 1_655 S
N377 C369 1.427 1_455 S
N377 C375 1.384 1_455 S
H378 C384 0.930 . S
H379 C388 0.930 . S
H380 C393 0.929 . S
H381 C391 0.929 . S
H382 C386 0.929 . S
H383 C392 0.929 . S
C384 H378 0.930 . S
C384 C385 1.367 . S
C384 C392 1.378 . S
C385 C384 1.367 . S
C385 C393 1.433 . S
C386 H382 0.929 . S
C386 C388 1.378 . S
C386 C390 1.350 . S
C387 C390 1.463 1_554 S
C387 C392 1.350 . S
C387 N395 1.427 . S
C388 H379 0.930 . S
C388 C386 1.378 . S
C388 C389 1.367 . S
C389 C388 1.367 . S
C389 C391 1.433 . S
C390 C386 1.350 . S
C390 C387 1.463 1_556 S
C390 N394 1.427 . S
C391 H381 0.929 . S
C391 C389 1.433 . S
C391 N394 1.384 . S
C392 H383 0.929 . S
C392 C384 1.378 . S
C392 C387 1.350 . S
C393 H380 0.929 . S
C393 C385 1.433 . S
C393 N395 1.384 . S
N394 C390 1.427 . S
N394 C391 1.384 . S
N395 C387 1.427 . S
N395 C393 1.384 . S
H396 C402 0.930 . S
H397 C406 0.930 . S
H398 C411 0.929 . S
H399 C409 0.929 . S
H400 C404 0.929 1_554 S
H401 C410 0.929 1_556 S
C402 H396 0.930 . S
C402 C403 1.367 . S
C402 C410 1.378 . S
C403 C402 1.367 . S
C403 C411 1.433 . S
C404 H400 0.929 1_556 S
C404 C406 1.378 . S
C404 C408 1.350 . S
C405 C408 1.463 1_544 S
C405 C410 1.350 . S
C405 N413 1.427 1_545 S
C406 H397 0.930 . S
C406 C404 1.378 . S
C406 C407 1.367 . S
C407 C406 1.367 . S
C407 C409 1.433 . S
C408 C404 1.350 . S
C408 C405 1.463 1_566 S
C408 N412 1.427 1_565 S
C409 H399 0.929 . S
C409 C407 1.433 . S
C409 N412 1.384 1_565 S
C410 H401 0.929 1_554 S
C410 C402 1.378 . S
C410 C405 1.350 . S
C411 H398 0.929 . S
C411 C403 1.433 . S
C411 N413 1.384 1_545 S
N412 C408 1.427 1_545 S
N412 C409 1.384 1_545 S
N413 C405 1.427 1_565 S
N413 C411 1.384 1_565 S
H414 C420 0.930 . S
H415 C424 0.930 . S
H416 C429 0.929 . S
H417 C427 0.929 . S
H418 C422 0.929 . S
H419 C428 0.929 . S
C420 H414 0.930 . S
C420 C421 1.367 . S
C420 C428 1.378 . S
C421 C420 1.367 . S
C421 C429 1.433 . S
C422 H418 0.929 . S
C422 C424 1.378 . S
C422 C426 1.350 . S
C423 C426 1.463 . S
C423 C428 1.350 . S
C423 N431 1.427 . S
C424 H415 0.930 . S
C424 C422 1.378 . S
C424 C425 1.367 . S
C425 C424 1.367 . S
C425 C427 1.433 . S
C426 C422 1.350 . S
C426 C423 1.463 . S
C426 N430 1.427 . S
C427 H417 0.929 . S
C427 C425 1.433 . S
C427 N430 1.384 . S
C428 H419 0.929 . S
C428 C420 1.378 . S
C428 C423 1.350 . S
C429 H416 0.929 . S
C429 C421 1.433 . S
C429 N431 1.384 . S
N430 C426 1.427 . S
N430 C427 1.384 . S
N431 C423 1.427 . S
N431 C429 1.384 . S
H432 C438 0.930 . S
H433 C442 0.930 . S
H434 C447 0.929 . S
H435 C445 0.929 . S
H436 C440 0.929 . S
H437 C446 0.929 . S
C438 H432 0.930 . S
C438 C439 1.367 . S
C438 C446 1.378 . S
C439 C438 1.367 . S
C439 C447 1.433 . S
C440 H436 0.929 . S
C440 C442 1.378 . S
C440 C444 1.350 . S
C441 C444 1.463 . S
C441 C446 1.350 . S
C441 N449 1.427 . S
C442 H433 0.930 . S
C442 C440 1.378 . S
C442 C443 1.367 . S
C443 C442 1.367 . S
C443 C445 1.433 . S
C444 C440 1.350 . S
C444 C441 1.463 . S
C444 N448 1.427 . S
C445 H435 0.929 . S
C445 C443 1.433 . S
C445 N448 1.384 . S
C446 H437 0.929 . S
C446 C438 1.378 . S
C446 C441 1.350 . S
C447 H434 0.929 . S
C447 C439 1.433 . S
C447 N449 1.384 . S
N448 C444 1.427 . S
N448 C445 1.384 . S
N449 C441 1.427 . S
N449 C447 1.384 . S
H450 C456 0.930 . S
H451 C460 0.930 . S
H452 C465 0.929 . S
H453 C463 0.929 . S
H454 C458 0.929 . S
H455 C464 0.929 . S
C456 H450 0.930 . S
C456 C457 1.367 . S
C456 C464 1.378 . S
C457 C456 1.367 . S
C457 C465 1.433 . S
C458 H454 0.929 . S
C458 C460 1.378 . S
C458 C462 1.350 . S
C459 C462 1.463 . S
C459 C464 1.350 . S
C459 N467 1.427 . S
C460 H451 0.930 . S
C460 C458 1.378 . S
C460 C461 1.367 . S
C461 C460 1.367 . S
C461 C463 1.433 . S
C462 C458 1.350 . S
C462 C459 1.463 . S
C462 N466 1.427 . S
C463 H453 0.929 . S
C463 C461 1.433 . S
C463 N466 1.384 . S
C464 H455 0.929 . S
C464 C456 1.378 . S
C464 C459 1.350 . S
C465 H452 0.929 . S
C465 C457 1.433 . S
C465 N467 1.384 . S
N466 C462 1.427 . S
N466 C463 1.384 . S
N467 C459 1.427 . S
N467 C465 1.384 . S
H468 C474 0.930 . S
H469 C478 0.930 . S
H470 C483 0.929 . S
H471 C481 0.929 . S
H472 C476 0.929 . S
H473 C482 0.929 . S
C474 H468 0.930 . S
C474 C475 1.367 . S
C474 C482 1.378 . S
C475 C474 1.367 . S
C475 C483 1.433 . S
C476 H472 0.929 . S
C476 C478 1.378 . S
C476 C480 1.350 . S
C477 C480 1.463 . S
C477 C482 1.350 . S
C477 N485 1.427 . S
C478 H469 0.930 . S
C478 C476 1.378 . S
C478 C479 1.367 . S
C479 C478 1.367 . S
C479 C481 1.433 . S
C480 C476 1.350 . S
C480 C477 1.463 . S
C480 N484 1.427 . S
C481 H471 0.929 . S
C481 C479 1.433 . S
C481 N484 1.384 . S
C482 H473 0.929 . S
C482 C474 1.378 . S
C482 C477 1.350 . S
C483 H470 0.929 . S
C483 C475 1.433 . S
C483 N485 1.384 . S
N484 C480 1.427 . S
N484 C481 1.384 . S
N485 C477 1.427 . S
N485 C483 1.384 . S
H486 C492 0.930 . S
H487 C496 0.930 . S
H488 C501 0.929 . S
H489 C499 0.929 . S
H490 C494 0.929 . S
H491 C500 0.929 . S
C492 H486 0.930 . S
C492 C493 1.367 . S
C492 C500 1.378 . S
C493 C492 1.367 . S
C493 C501 1.433 . S
C494 H490 0.929 . S
C494 C496 1.378 . S
C494 C498 1.350 . S
C495 C498 1.463 . S
C495 C500 1.350 . S
C495 N503 1.427 . S
C496 H487 0.930 . S
C496 C494 1.378 . S
C496 C497 1.367 . S
C497 C496 1.367 . S
C497 C499 1.433 . S
C498 C494 1.350 . S
C498 C495 1.463 . S
C498 N502 1.427 . S
C499 H489 0.929 . S
C499 C497 1.433 . S
C499 N502 1.384 . S
C500 H491 0.929 . S
C500 C492 1.378 . S
C500 C495 1.350 . S
C501 H488 0.929 . S
C501 C493 1.433 . S
C501 N503 1.384 . S
N502 C498 1.427 . S
N502 C499 1.384 . S
N503 C495 1.427 . S
N503 C501 1.384 . S
H504 C510 0.930 . S
H505 C514 0.930 . S
H506 C519 0.929 . S
H507 C517 0.929 . S
H508 C512 0.929 . S
H509 C518 0.929 . S
C510 H504 0.930 . S
C510 C511 1.367 . S
C510 C518 1.378 . S
C511 C510 1.367 . S
C511 C519 1.433 . S
C512 H508 0.929 . S
C512 C514 1.378 . S
C512 C516 1.350 . S
C513 C516 1.463 . S
C513 C518 1.350 . S
C513 N521 1.427 . S
C514 H505 0.930 . S
C514 C512 1.378 . S
C514 C515 1.367 . S
C515 C514 1.367 . S
C515 C517 1.433 . S
C516 C512 1.350 . S
C516 C513 1.463 . S
C516 N520 1.427 . S
C517 H507 0.929 . S
C517 C515 1.433 . S
C517 N520 1.384 . S
C518 H509 0.929 . S
C518 C510 1.378 . S
C518 C513 1.350 . S
C519 H506 0.929 . S
C519 C511 1.433 . S
C519 N521 1.384 . S
N520 C516 1.427 . S
N520 C517 1.384 . S
N521 C513 1.427 . S
N521 C519 1.384 . S
H522 C528 0.930 . S
H523 C532 0.930 . S
H524 C537 0.929 . S
H525 C535 0.929 . S
H526 C530 0.929 . S
H527 C536 0.929 . S
C528 H522 0.930 . S
C528 C529 1.367 . S
C528 C536 1.378 . S
C529 C528 1.367 . S
C529 C537 1.433 . S
C530 H526 0.929 . S
C530 C532 1.378 . S
C530 C534 1.350 . S
C531 C534 1.463 1_655 S
C531 C536 1.350 . S
C531 N539 1.427 1_655 S
C532 H523 0.930 . S
C532 C530 1.378 . S
C532 C533 1.367 . S
C533 C532 1.367 . S
C533 C535 1.433 . S
C534 C530 1.350 . S
C534 C531 1.463 1_455 S
C534 N538 1.427 1_455 S
C535 H525 0.929 . S
C535 C533 1.433 . S
C535 N538 1.384 1_455 S
C536 H527 0.929 . S
C536 C528 1.378 . S
C536 C531 1.350 . S
C537 H524 0.929 . S
C537 C529 1.433 . S
C537 N539 1.384 1_655 S
N538 C534 1.427 1_655 S
N538 C535 1.384 1_655 S
N539 C531 1.427 1_455 S
N539 C537 1.384 1_455 S
H540 C546 0.930 . S
H541 C550 0.930 . S
H542 C555 0.929 . S
H543 C553 0.929 . S
H544 C548 0.929 . S
H545 C554 0.929 . S
C546 H540 0.930 . S
C546 C547 1.367 . S
C546 C554 1.378 . S
C547 C546 1.367 . S
C547 C555 1.433 . S
C548 H544 0.929 . S
C548 C550 1.378 . S
C548 C552 1.350 . S
C549 C552 1.463 . S
C549 C554 1.350 . S
C549 N557 1.427 . S
C550 H541 0.930 . S
C550 C548 1.378 . S
C550 C551 1.367 . S
C551 C550 1.367 . S
C551 C553 1.433 . S
C552 C548 1.350 . S
C552 C549 1.463 . S
C552 N556 1.427 . S
C553 H543 0.929 . S
C553 C551 1.433 . S
C553 N556 1.384 . S
C554 H545 0.929 . S
C554 C546 1.378 . S
C554 C549 1.350 . S
C555 H542 0.929 . S
C555 C547 1.433 . S
C555 N557 1.384 . S
N556 C552 1.427 . S
N556 C553 1.384 . S
N557 C549 1.427 . S
N557 C555 1.384 . S
H558 C564 0.930 . S
H559 C568 0.930 . S
H560 C573 0.929 . S
H561 C571 0.929 . S
H562 C566 0.929 . S
H563 C572 0.929 . S
C564 H558 0.930 . S
C564 C565 1.367 . S
C564 C572 1.378 . S
C565 C564 1.367 . S
C565 C573 1.433 . S
C566 H562 0.929 . S
C566 C568 1.378 . S
C566 C570 1.350 . S
C567 C570 1.463 1_565 S
C567 C572 1.350 . S
C567 N575 1.427 1_565 S
C568 H559 0.930 . S
C568 C566 1.378 . S
C568 C569 1.367 . S
C569 C568 1.367 . S
C569 C571 1.433 . S
C570 C566 1.350 . S
C570 C567 1.463 1_545 S
C570 N574 1.427 1_545 S
C571 H561 0.929 . S
C571 C569 1.433 . S
C571 N574 1.384 1_545 S
C572 H563 0.929 . S
C572 C564 1.378 . S
C572 C567 1.350 . S
C573 H560 0.929 . S
C573 C565 1.433 . S
C573 N575 1.384 1_565 S
N574 C570 1.427 1_565 S
N574 C571 1.384 1_565 S
N575 C567 1.427 1_545 S
N575 C573 1.384 1_545 S
H576 C582 0.930 . S
H577 C586 0.930 . S
H578 C591 0.929 . S
H579 C589 0.929 . S
H580 C584 0.929 . S
H581 C590 0.929 . S
C582 H576 0.930 . S
C582 C583 1.367 . S
C582 C590 1.378 1_554 S
C583 C582 1.367 . S
C583 C591 1.433 . S
C584 H580 0.929 . S
C584 C586 1.378 1_554 S
C584 C588 1.350 1_554 S
C585 C588 1.463 1_554 S
C585 C590 1.350 1_554 S
C585 N593 1.427 . S
C586 H577 0.930 . S
C586 C584 1.378 1_556 S
C586 C587 1.367 . S
C587 C586 1.367 . S
C587 C589 1.433 . S
C588 C584 1.350 1_556 S
C588 C585 1.463 1_556 S
C588 N592 1.427 . S
C589 H579 0.929 . S
C589 C587 1.433 . S
C589 N592 1.384 . S
C590 H581 0.929 . S
C590 C582 1.378 1_556 S
C590 C585 1.350 1_556 S
C591 H578 0.929 . S
C591 C583 1.433 . S
C591 N593 1.384 . S
N592 C588 1.427 . S
N592 C589 1.384 . S
N593 C585 1.427 . S
N593 C591 1.384 . S
H594 C600 0.930 . S
H595 C604 0.930 . S
H596 C609 0.929 . S
H597 C607 0.929 . S
H598 C602 0.929 . S
H599 C608 0.929 . S
C600 H594 0.930 . S
C600 C601 1.367 . S
C600 C608 1.378 . S
C601 C600 1.367 . S
C601 C609 1.433 1_556 S
C602 H598 0.929 . S
C602 C604 1.378 . S
C602 C606 1.350 . S
C603 C606 1.463 1_546 S
C603 C608 1.350 . S
C603 N611 1.427 1_556 S
C604 H595 0.930 . S
C604 C602 1.378 . S
C604 C605 1.367 . S
C605 C604 1.367 . S
C605 C607 1.433 1_554 S
C606 C602 1.350 . S
C606 C603 1.463 1_564 S
C606 N610 1.427 1_554 S
C607 H597 0.929 . S
C607 C605 1.433 1_556 S
C607 N610 1.384 . S
C608 H599 0.929 . S
C608 C600 1.378 . S
C608 C603 1.350 . S
C609 H596 0.929 . S
C609 C601 1.433 1_554 S
C609 N611 1.384 . S
N610 C606 1.427 1_556 S
N610 C607 1.384 . S
N611 C603 1.427 1_554 S
N611 C609 1.384 . S
H612 C618 0.930 . S
H613 C622 0.930 . S
H614 C627 0.929 . S
H615 C625 0.929 . S
H616 C620 0.929 . S
H617 C626 0.929 . S
C618 H612 0.930 . S
C618 C619 1.367 . S
C618 C626 1.378 . S
C619 C618 1.367 . S
C619 C627 1.433 . S
C620 H616 0.929 . S
C620 C622 1.378 . S
C620 C624 1.350 . S
C621 C624 1.463 1_656 S
C621 C626 1.350 . S
C621 N629 1.427 . S
C622 H613 0.930 . S
C622 C620 1.378 . S
C622 C623 1.367 . S
C623 C622 1.367 . S
C623 C625 1.433 . S
C624 C620 1.350 . S
C624 C621 1.463 1_454 S
C624 N628 1.427 . S
C625 H615 0.929 . S
C625 C623 1.433 . S
C625 N628 1.384 . S
C626 H617 0.929 . S
C626 C618 1.378 . S
C626 C621 1.350 . S
C627 H614 0.929 . S
C627 C619 1.433 . S
C627 N629 1.384 . S
N628 C624 1.427 . S
N628 C625 1.384 . S
N629 C621 1.427 . S
N629 C627 1.384 . S
H630 C636 0.930 . S
H631 C640 0.930 . S
H632 C645 0.929 . S
H633 C643 0.929 . S
H634 C638 0.929 . S
H635 C644 0.929 . S
C636 H630 0.930 . S
C636 C637 1.367 1_554 S
C636 C644 1.378 . S
C637 C636 1.367 1_556 S
C637 C645 1.433 . S
C638 H634 0.929 . S
C638 C640 1.378 . S
C638 C642 1.350 1_556 S
C639 C642 1.463 1_556 S
C639 C644 1.350 1_556 S
C639 N647 1.427 . S
C640 H631 0.930 . S
C640 C638 1.378 . S
C640 C641 1.367 1_556 S
C641 C640 1.367 1_554 S
C641 C643 1.433 . S
C642 C638 1.350 1_554 S
C642 C639 1.463 1_554 S
C642 N646 1.427 . S
C643 H633 0.929 . S
C643 C641 1.433 . S
C643 N646 1.384 . S
C644 H635 0.929 . S
C644 C636 1.378 . S
C644 C639 1.350 1_554 S
C645 H632 0.929 . S
C645 C637 1.433 . S
C645 N647 1.384 . S
N646 C642 1.427 . S
N646 C643 1.384 . S
N647 C639 1.427 . S
N647 C645 1.384 . S
H648 C654 0.930 . S
H649 C658 0.930 . S
H650 C663 0.929 . S
H651 C661 0.929 . S
H652 C656 0.929 . S
H653 C662 0.929 . S
C654 H648 0.930 . S
C654 C655 1.367 1_556 S
C654 C662 1.378 . S
C655 C654 1.367 1_554 S
C655 C663 1.433 . S
C656 H652 0.929 . S
C656 C658 1.378 . S
C656 C660 1.350 1_554 S
C657 C660 1.463 1_564 S
C657 C662 1.350 1_554 S
C657 N665 1.427 . S
C658 H649 0.930 . S
C658 C656 1.378 . S
C658 C659 1.367 1_554 S
C659 C658 1.367 1_556 S
C659 C661 1.433 . S
C660 C656 1.350 1_556 S
C660 C657 1.463 1_546 S
C660 N664 1.427 . S
C661 H651 0.929 . S
C661 C659 1.433 . S
C661 N664 1.384 . S
C662 H653 0.929 . S
C662 C654 1.378 . S
C662 C657 1.350 1_556 S
C663 H650 0.929 . S
C663 C655 1.433 . S
C663 N665 1.384 . S
N664 C660 1.427 . S
N664 C661 1.384 . S
N665 C657 1.427 . S
N665 C663 1.384 . S
H666 C672 0.930 . S
H667 C676 0.930 . S
H668 C681 0.929 . S
H669 C679 0.929 . S
H670 C674 0.929 . S
H671 C680 0.929 . S
C672 H666 0.930 . S
C672 C673 1.367 . S
C672 C680 1.378 . S
C673 C672 1.367 . S
C673 C681 1.433 1_556 S
C674 H670 0.929 . S
C674 C676 1.378 . S
C674 C678 1.350 . S
C675 C678 1.463 1_656 S
C675 C680 1.350 . S
C675 N683 1.427 1_556 S
C676 H667 0.930 . S
C676 C674 1.378 . S
C676 C677 1.367 . S
C677 C676 1.367 . S
C677 C679 1.433 1_554 S
C678 C674 1.350 . S
C678 C675 1.463 1_454 S
C678 N682 1.427 1_554 S
C679 H669 0.929 . S
C679 C677 1.433 1_556 S
C679 N682 1.384 . S
C680 H671 0.929 . S
C680 C672 1.378 . S
C680 C675 1.350 . S
C681 H668 0.929 . S
C681 C673 1.433 1_554 S
C681 N683 1.384 . S
N682 C678 1.427 1_556 S
N682 C679 1.384 . S
N683 C675 1.427 1_554 S
N683 C681 1.384 . S
H684 C690 0.930 . S
H685 C694 0.930 . S
H686 C699 0.929 . S
H687 C697 0.929 . S
H688 C692 0.929 . S
H689 C698 0.929 . S
C690 H684 0.930 . S
C690 C691 1.367 . S
C690 C698 1.378 . S
C691 C690 1.367 . S
C691 C699 1.433 . S
C692 H688 0.929 . S
C692 C694 1.378 . S
C692 C696 1.350 . S
C693 C696 1.463 . S
C693 C698 1.350 . S
C693 N701 1.427 . S
C694 H685 0.930 . S
C694 C692 1.378 . S
C694 C695 1.367 . S
C695 C694 1.367 . S
C695 C697 1.433 . S
C696 C692 1.350 . S
C696 C693 1.463 . S
C696 N700 1.427 . S
C697 H687 0.929 . S
C697 C695 1.433 . S
C697 N700 1.384 . S
C698 H689 0.929 . S
C698 C690 1.378 . S
C698 C693 1.350 . S
C699 H686 0.929 . S
C699 C691 1.433 . S
C699 N701 1.384 . S
N700 C696 1.427 . S
N700 C697 1.384 . S
N701 C693 1.427 . S
N701 C699 1.384 . S
H702 C708 0.930 . S
H703 C712 0.930 . S
H704 C717 0.929 . S
H705 C715 0.929 . S
H706 C710 0.929 . S
H707 C716 0.929 . S
C708 H702 0.930 . S
C708 C709 1.367 . S
C708 C716 1.378 . S
C709 C708 1.367 . S
C709 C717 1.433 . S
C710 H706 0.929 . S
C710 C712 1.378 . S
C710 C714 1.350 . S
C711 C714 1.463 . S
C711 C716 1.350 . S
C711 N719 1.427 . S
C712 H703 0.930 . S
C712 C710 1.378 . S
C712 C713 1.367 . S
C713 C712 1.367 . S
C713 C715 1.433 . S
C714 C710 1.350 . S
C714 C711 1.463 . S
C714 N718 1.427 . S
C715 H705 0.929 . S
C715 C713 1.433 . S
C715 N718 1.384 . S
C716 H707 0.929 . S
C716 C708 1.378 . S
C716 C711 1.350 . S
C717 H704 0.929 . S
C717 C709 1.433 . S
C717 N719 1.384 . S
N718 C714 1.427 . S
N718 C715 1.384 . S
N719 C711 1.427 . S
N719 C717 1.384 . S
H720 C726 0.930 . S
H721 C730 0.930 . S
H722 C735 0.929 . S
H723 C733 0.929 . S
H724 C728 0.929 . S
H725 C734 0.929 . S
C726 H720 0.930 . S
C726 C727 1.367 . S
C726 C734 1.378 . S
C727 C726 1.367 . S
C727 C735 1.433 . S
C728 H724 0.929 . S
C728 C730 1.378 . S
C728 C732 1.350 . S
C729 C732 1.463 . S
C729 C734 1.350 . S
C729 N737 1.427 . S
C730 H721 0.930 . S
C730 C728 1.378 . S
C730 C731 1.367 . S
C731 C730 1.367 . S
C731 C733 1.433 . S
C732 C728 1.350 . S
C732 C729 1.463 . S
C732 N736 1.427 . S
C733 H723 0.929 . S
C733 C731 1.433 . S
C733 N736 1.384 . S
C734 H725 0.929 . S
C734 C726 1.378 . S
C734 C729 1.350 . S
C735 H722 0.929 . S
C735 C727 1.433 . S
C735 N737 1.384 . S
N736 C732 1.427 . S
N736 C733 1.384 . S
N737 C729 1.427 . S
N737 C735 1.384 . S
H738 C744 0.930 . S
H739 C748 0.930 . S
H740 C753 0.929 . S
H741 C751 0.929 . S
H742 C746 0.929 . S
H743 C752 0.929 . S
C744 H738 0.930 . S
C744 C745 1.367 . S
C744 C752 1.378 . S
C745 C744 1.367 . S
C745 C753 1.433 . S
C746 H742 0.929 . S
C746 C748 1.378 . S
C746 C750 1.350 . S
C747 C750 1.463 . S
C747 C752 1.350 . S
C747 N755 1.427 . S
C748 H739 0.930 . S
C748 C746 1.378 . S
C748 C749 1.367 . S
C749 C748 1.367 . S
C749 C751 1.433 . S
C750 C746 1.350 . S
C750 C747 1.463 . S
C750 N754 1.427 . S
C751 H741 0.929 . S
C751 C749 1.433 . S
C751 N754 1.384 . S
C752 H743 0.929 . S
C752 C744 1.378 . S
C752 C747 1.350 . S
C753 H740 0.929 . S
C753 C745 1.433 . S
C753 N755 1.384 . S
N754 C750 1.427 . S
N754 C751 1.384 . S
N755 C747 1.427 . S
N755 C753 1.384 . S
H756 C762 0.930 . S
H757 C766 0.930 . S
H758 C771 0.929 . S
H759 C769 0.929 . S
H760 C764 0.929 . S
H761 C770 0.929 . S
C762 H756 0.930 . S
C762 C763 1.367 . S
C762 C770 1.378 . S
C763 C762 1.367 . S
C763 C771 1.433 . S
C764 H760 0.929 . S
C764 C766 1.378 . S
C764 C768 1.350 . S
C765 C768 1.463 . S
C765 C770 1.350 . S
C765 N773 1.427 . S
C766 H757 0.930 . S
C766 C764 1.378 . S
C766 C767 1.367 . S
C767 C766 1.367 . S
C767 C769 1.433 . S
C768 C764 1.350 . S
C768 C765 1.463 . S
C768 N772 1.427 . S
C769 H759 0.929 . S
C769 C767 1.433 . S
C769 N772 1.384 . S
C770 H761 0.929 . S
C770 C762 1.378 . S
C770 C765 1.350 . S
C771 H758 0.929 . S
C771 C763 1.433 . S
C771 N773 1.384 . S
N772 C768 1.427 . S
N772 C769 1.384 . S
N773 C765 1.427 . S
N773 C771 1.384 . S
H774 C780 0.930 . S
H775 C784 0.930 . S
H776 C789 0.929 . S
H777 C787 0.929 . S
H778 C782 0.929 . S
H779 C788 0.929 . S
C780 H774 0.930 . S
C780 C781 1.367 . S
C780 C788 1.378 . S
C781 C780 1.367 . S
C781 C789 1.433 . S
C782 H778 0.929 . S
C782 C784 1.378 . S
C782 C786 1.350 . S
C783 C786 1.463 . S
C783 C788 1.350 . S
C783 N791 1.427 . S
C784 H775 0.930 . S
C784 C782 1.378 . S
C784 C785 1.367 . S
C785 C784 1.367 . S
C785 C787 1.433 . S
C786 C782 1.350 . S
C786 C783 1.463 . S
C786 N790 1.427 . S
C787 H777 0.929 . S
C787 C785 1.433 . S
C787 N790 1.384 . S
C788 H779 0.929 . S
C788 C780 1.378 . S
C788 C783 1.350 . S
C789 H776 0.929 . S
C789 C781 1.433 . S
C789 N791 1.384 . S
N790 C786 1.427 . S
N790 C787 1.384 . S
N791 C783 1.427 . S
N791 C789 1.384 . S
H792 C798 0.930 . S
H793 C802 0.930 . S
H794 C807 0.929 . S
H795 C805 0.929 . S
H796 C800 0.929 . S
H797 C806 0.929 . S
C798 H792 0.930 . S
C798 C799 1.367 . S
C798 C806 1.378 . S
C799 C798 1.367 . S
C799 C807 1.433 . S
C800 H796 0.929 . S
C800 C802 1.378 . S
C800 C804 1.350 . S
C801 C804 1.463 . S
C801 C806 1.350 . S
C801 N809 1.427 . S
C802 H793 0.930 . S
C802 C800 1.378 . S
C802 C803 1.367 . S
C803 C802 1.367 . S
C803 C805 1.433 . S
C804 C800 1.350 . S
C804 C801 1.463 . S
C804 N808 1.427 . S
C805 H795 0.929 . S
C805 C803 1.433 . S
C805 N808 1.384 . S
C806 H797 0.929 . S
C806 C798 1.378 . S
C806 C801 1.350 . S
C807 H794 0.929 . S
C807 C799 1.433 . S
C807 N809 1.384 . S
N808 C804 1.427 . S
N808 C805 1.384 . S
N809 C801 1.427 . S
N809 C807 1.384 . S
H810 C816 0.930 . S
H811 C820 0.930 . S
H812 C825 0.929 . S
H813 C823 0.929 . S
H814 C818 0.929 . S
H815 C824 0.929 . S
C816 H810 0.930 . S
C816 C817 1.367 . S
C816 C824 1.378 . S
C817 C816 1.367 . S
C817 C825 1.433 . S
C818 H814 0.929 . S
C818 C820 1.378 . S
C818 C822 1.350 . S
C819 C822 1.463 . S
C819 C824 1.350 . S
C819 N827 1.427 . S
C820 H811 0.930 . S
C820 C818 1.378 . S
C820 C821 1.367 . S
C821 C820 1.367 . S
C821 C823 1.433 . S
C822 C818 1.350 . S
C822 C819 1.463 . S
C822 N826 1.427 . S
C823 H813 0.929 . S
C823 C821 1.433 . S
C823 N826 1.384 . S
C824 H815 0.929 . S
C824 C816 1.378 . S
C824 C819 1.350 . S
C825 H812 0.929 . S
C825 C817 1.433 . S
C825 N827 1.384 . S
N826 C822 1.427 . S
N826 C823 1.384 . S
N827 C819 1.427 . S
N827 C825 1.384 . S
H828 C834 0.930 . S
H829 C838 0.930 . S
H830 C843 0.929 . S
H831 C841 0.929 . S
H832 C836 0.929 . S
H833 C842 0.929 . S
C834 H828 0.930 . S
C834 C835 1.367 . S
C834 C842 1.378 . S
C835 C834 1.367 . S
C835 C843 1.433 . S
C836 H832 0.929 . S
C836 C838 1.378 . S
C836 C840 1.350 . S
C837 C840 1.463 . S
C837 C842 1.350 . S
C837 N845 1.427 . S
C838 H829 0.930 . S
C838 C836 1.378 . S
C838 C839 1.367 . S
C839 C838 1.367 . S
C839 C841 1.433 . S
C840 C836 1.350 . S
C840 C837 1.463 . S
C840 N844 1.427 . S
C841 H831 0.929 . S
C841 C839 1.433 . S
C841 N844 1.384 . S
C842 H833 0.929 . S
C842 C834 1.378 . S
C842 C837 1.350 . S
C843 H830 0.929 . S
C843 C835 1.433 . S
C843 N845 1.384 . S
N844 C840 1.427 . S
N844 C841 1.384 . S
N845 C837 1.427 . S
N845 C843 1.384 . S
H846 C852 0.930 . S
H847 C856 0.930 . S
H848 C861 0.929 . S
H849 C859 0.929 . S
H850 C854 0.929 . S
H851 C860 0.929 . S
C852 H846 0.930 . S
C852 C853 1.367 . S
C852 C860 1.378 . S
C853 C852 1.367 . S
C853 C861 1.433 . S
C854 H850 0.929 . S
C854 C856 1.378 . S
C854 C858 1.350 . S
C855 C858 1.463 . S
C855 C860 1.350 . S
C855 N863 1.427 . S
C856 H847 0.930 . S
C856 C854 1.378 . S
C856 C857 1.367 . S
C857 C856 1.367 . S
C857 C859 1.433 . S
C858 C854 1.350 . S
C858 C855 1.463 . S
C858 N862 1.427 . S
C859 H849 0.929 . S
C859 C857 1.433 . S
C859 N862 1.384 . S
C860 H851 0.929 . S
C860 C852 1.378 . S
C860 C855 1.350 . S
C861 H848 0.929 . S
C861 C853 1.433 . S
C861 N863 1.384 . S
N862 C858 1.427 . S
N862 C859 1.384 . S
N863 C855 1.427 . S
N863 C861 1.384 . S
H864 C870 0.930 . S
H865 C874 0.930 . S
H866 C879 0.929 . S
H867 C877 0.929 . S
H868 C872 0.929 . S
H869 C878 0.929 . S
C870 H864 0.930 . S
C870 C871 1.367 . S
C870 C878 1.378 . S
C871 C870 1.367 . S
C871 C879 1.433 . S
C872 H868 0.929 . S
C872 C874 1.378 . S
C872 C876 1.350 . S
C873 C876 1.463 . S
C873 C878 1.350 . S
C873 N881 1.427 . S
C874 H865 0.930 . S
C874 C872 1.378 . S
C874 C875 1.367 . S
C875 C874 1.367 . S
C875 C877 1.433 . S
C876 C872 1.350 . S
C876 C873 1.463 . S
C876 N880 1.427 . S
C877 H867 0.929 . S
C877 C875 1.433 . S
C877 N880 1.384 . S
C878 H869 0.929 . S
C878 C870 1.378 . S
C878 C873 1.350 . S
C879 H866 0.929 . S
C879 C871 1.433 . S
C879 N881 1.384 . S
N880 C876 1.427 . S
N880 C877 1.384 . S
N881 C873 1.427 . S
N881 C879 1.384 . S
H882 C888 0.930 . S
H883 C892 0.930 . S
H884 C897 0.929 . S
H885 C895 0.929 . S
H886 C890 0.929 . S
H887 C896 0.929 . S
C888 H882 0.930 . S
C888 C889 1.367 . S
C888 C896 1.378 . S
C889 C888 1.367 . S
C889 C897 1.433 . S
C890 H886 0.929 . S
C890 C892 1.378 . S
C890 C894 1.350 . S
C891 C894 1.463 . S
C891 C896 1.350 . S
C891 N899 1.427 . S
C892 H883 0.930 . S
C892 C890 1.378 . S
C892 C893 1.367 . S
C893 C892 1.367 . S
C893 C895 1.433 . S
C894 C890 1.350 . S
C894 C891 1.463 . S
C894 N898 1.427 . S
C895 H885 0.929 . S
C895 C893 1.433 . S
C895 N898 1.384 . S
C896 H887 0.929 . S
C896 C888 1.378 . S
C896 C891 1.350 . S
C897 H884 0.929 . S
C897 C889 1.433 . S
C897 N899 1.384 . S
N898 C894 1.427 . S
N898 C895 1.384 . S
N899 C891 1.427 . S
N899 C897 1.384 . S
C259 C249 1.667 . S
C263 C11 1.666 . S
C277 C221 1.666 . S
C281 C25 1.667 . S
C295 C235 1.664 . S
C299 C39 1.668 . S
C313 C109 1.665 . S
C317 C53 1.668 . S
C331 C123 1.667 . S
C335 C67 1.665 . S
C349 C81 1.668 . S
C353 C95 1.664 . S
C367 C137 1.667 . S
C371 C193 1.666 . S
C385 C151 1.665 . S
C389 C207 1.668 . S
C403 C165 1.667 . S
C407 C179 1.666 . S
C421 C8 1.111 . S
C425 C246 1.114 . S
C439 C218 1.103 . S
C443 C22 1.114 . S
C457 C36 1.099 . S
C461 C232 1.111 . S
C475 C106 1.098 . S
C479 C50 1.100 . S
C493 C64 1.114 . S
C497 C120 1.109 . S
C511 C78 1.109 . S
C515 C92 1.114 . S
C529 C134 1.102 . S
C533 C190 1.097 . S
C547 C204 1.097 . S
C551 C148 1.100 . S
C565 C176 1.099 . S
C569 C162 1.099 . S
C583 C13 1.398 . S
C587 C55 1.388 . S
C601 C69 1.401 . S
C605 C27 1.408 . S
C619 C83 1.393 . S
C623 C41 1.404 . S
C637 C77 1.464 . S
C641 C21 1.465 . S
C655 C35 1.467 . S
C659 C49 1.464 . S
C673 C63 1.468 . S
C677 C7 1.471 . S
C691 C97 1.397 . S
C695 C139 1.407 . S
C709 C153 1.401 . S
C713 C111 1.408 . S
C727 C167 1.401 . S
C731 C125 1.408 . S
C745 C161 1.470 . S
C749 C105 1.469 . S
C763 C119 1.469 . S
C767 C133 1.465 . S
C781 C147 1.471 . S
C785 C91 1.469 . S
C799 C223 1.408 . S
C803 C181 1.406 . S
C817 C237 1.396 . S
C821 C195 1.387 . S
C835 C209 1.387 . S
C839 C251 1.388 . S
C853 C245 1.464 . S
C857 C189 1.465 . S
C871 C203 1.471 . S
C875 C217 1.469 . S
C889 C231 1.464 . S
C893 C175 1.466 . S
