# Generated by pormake.
# Topology uog, (4)-cn, num edge types: 1
# Building blocks:
#     Node 0, Type 0, BuildingBlock: CEKHIL_clean_sbu_0, # of connection points: 4
#     Node 1, Type 0, BuildingBlock: CEKHIL_clean_sbu_0, # of connection points: 4
#     Node 2, Type 0, BuildingBlock: CEKHIL_clean_sbu_0, # of connection points: 4
#     Node 3, Type 0, BuildingBlock: CEKHIL_clean_sbu_0, # of connection points: 4
#     Node 4, Type 0, BuildingBlock: CEKHIL_clean_sbu_0, # of connection points: 4
#     Node 5, Type 0, BuildingBlock: CEKHIL_clean_sbu_0, # of connection points: 4
#     Edge 6, Type (0, 0), BuildingBlock: ZUJKAS_clean_linker_0, # of connection points: 2
#     Edge 7, Type (0, 0), BuildingBlock: ZUJKAS_clean_linker_0, # of connection points: 2
#     Edge 8, Type (0, 0), BuildingBlock: ZUJKAS_clean_linker_0, # of connection points: 2
#     Edge 9, Type (0, 0), BuildingBlock: ZUJKAS_clean_linker_0, # of connection points: 2
#     Edge 10, Type (0, 0), BuildingBlock: ZUJKAS_clean_linker_0, # of connection points: 2
#     Edge 11, Type (0, 0), BuildingBlock: ZUJKAS_clean_linker_0, # of connection points: 2
#     Edge 12, Type (0, 0), BuildingBlock: ZUJKAS_clean_linker_0, # of connection points: 2
#     Edge 13, Type (0, 0), BuildingBlock: ZUJKAS_clean_linker_0, # of connection points: 2
#     Edge 14, Type (0, 0), BuildingBlock: ZUJKAS_clean_linker_0, # of connection points: 2
#     Edge 15, Type (0, 0), BuildingBlock: ZUJKAS_clean_linker_0, # of connection points: 2
#     Edge 16, Type (0, 0), BuildingBlock: ZUJKAS_clean_linker_0, # of connection points: 2
#     Edge 17, Type (0, 0), BuildingBlock: ZUJKAS_clean_linker_0, # of connection points: 2
# Relax obj value: 0.072
# Max RMSD: 0.170
# Mean RMSD: 0.170
data_MOF--net-uog--node1-CEKHIL_clean_sbu_0--edge1-ZUJKAS_clean_linker_0
_symmetry_space_group_name_H-M    P1
_symmetry_Int_Tables_number       1
_symmetry_cell_setting            triclinic
loop_
_symmetry_equiv_pos_as_xyz
'x, y, z'
_cell_length_a     36.778532
_cell_length_b     36.82694
_cell_length_c     55.385821
_cell_angle_alpha  90.026309
_cell_angle_beta   89.861332
_cell_angle_gamma 120.09802
loop_
_atom_site_label
_atom_site_type_symbol
_atom_site_fract_x
_atom_site_fract_y
_atom_site_fract_z
_atom_type_partial_charge
Co0 Co 0.59102 0.28006 0.15609 0.0
O1 O 0.60113 0.23402 0.15547 0.0
O2 O 0.54651 0.23307 0.13821 0.0
C3 C 0.60369 0.29289 0.19577 0.0
O4 O 0.57107 0.32308 0.15444 0.0
Co5 Co 0.66591 0.36754 0.168 0.0
O6 O 0.62037 0.38019 0.17404 0.0
C7 C 0.65779 0.33523 0.11876 0.0
C8 C 0.56679 0.21341 0.14326 0.0
C9 C 0.58422 0.35932 0.16436 0.0
O10 O 0.62365 0.30247 0.12538 0.0
O11 O 0.68096 0.36502 0.13326 0.0
O12 O 0.56709 0.26417 0.18814 0.0
O13 O 0.6327 0.31008 0.17939 0.0
Co14 Co 0.30899 0.59287 0.49086 0.0
O15 O 0.36411 0.60166 0.48532 0.0
O16 O 0.30564 0.54499 0.47361 0.0
C17 C 0.31867 0.61119 0.53001 0.0
O18 O 0.24667 0.57495 0.49431 0.0
Co19 Co 0.30424 0.67249 0.50214 0.0
O20 O 0.24512 0.63064 0.51002 0.0
C21 C 0.31763 0.65631 0.45226 0.0
C22 C 0.3466 0.56573 0.47453 0.0
C23 C 0.22665 0.59236 0.50329 0.0
O24 O 0.31195 0.62073 0.45938 0.0
O25 O 0.31942 0.68419 0.4668 0.0
O26 O 0.30853 0.57352 0.52333 0.0
O27 O 0.32741 0.63796 0.51264 0.0
Co28 Co 0.72062 0.31037 0.82609 0.0
O29 O 0.76929 0.36496 0.82463 0.0
O30 O 0.7675 0.30745 0.8113 0.0
C31 C 0.70436 0.31515 0.86471 0.0
O32 O 0.67374 0.24851 0.82551 0.0
Co33 Co 0.63679 0.30918 0.83211 0.0
O34 O 0.61365 0.24789 0.83473 0.0
C35 C 0.67642 0.32801 0.78463 0.0
C36 C 0.78865 0.34809 0.81421 0.0
C37 C 0.63377 0.22893 0.82982 0.0
O38 O 0.7036 0.31965 0.79341 0.0
O39 O 0.64801 0.32894 0.79755 0.0
O40 O 0.73158 0.30373 0.85945 0.0
O41 O 0.69141 0.32793 0.84662 0.0
Co42 Co 0.4173 0.71891 0.15874 0.0
O43 O 0.41164 0.76771 0.15835 0.0
O44 O 0.46476 0.76461 0.14167 0.0
C45 C 0.40151 0.70529 0.19817 0.0
O46 O 0.43292 0.67268 0.15698 0.0
Co47 Co 0.33808 0.63378 0.16924 0.0
O48 O 0.37989 0.61592 0.17493 0.0
C49 C 0.35087 0.66878 0.1204 0.0
C50 C 0.44676 0.78656 0.14661 0.0
C51 C 0.41678 0.63536 0.16595 0.0
O52 O 0.38599 0.69964 0.12751 0.0
O53 O 0.32553 0.63927 0.13447 0.0
O54 O 0.43949 0.73202 0.19125 0.0
O55 O 0.3735 0.69044 0.18124 0.0
Co56 Co 0.69674 0.42121 0.4906 0.0
O57 O 0.64119 0.41294 0.49088 0.0
O58 O 0.69591 0.46805 0.47453 0.0
C59 C 0.69743 0.40499 0.52964 0.0
O60 O 0.75911 0.43878 0.48805 0.0
Co61 Co 0.70242 0.34118 0.49836 0.0
O62 O 0.76356 0.38149 0.4976 0.0
C63 C 0.67698 0.35529 0.45111 0.0
C64 C 0.65568 0.44789 0.4792 0.0
C65 C 0.78042 0.42012 0.49182 0.0
O66 O 0.6849 0.39133 0.45886 0.0
O67 O 0.67876 0.32809 0.46466 0.0
O68 O 0.70626 0.44247 0.52329 0.0
O69 O 0.68367 0.3773 0.51251 0.0
Co70 Co 0.29048 0.69457 0.82739 0.0
O71 O 0.2432 0.63905 0.82652 0.0
O72 O 0.24211 0.69471 0.81271 0.0
C73 C 0.30728 0.69124 0.86598 0.0
O74 O 0.33547 0.75719 0.82654 0.0
Co75 Co 0.37651 0.70075 0.83367 0.0
O76 O 0.39512 0.76057 0.83944 0.0
C77 C 0.3376 0.68034 0.78599 0.0
C78 C 0.22213 0.65421 0.81635 0.0
C79 C 0.37432 0.77826 0.8333 0.0
O80 O 0.30835 0.68577 0.79472 0.0
O81 O 0.36724 0.68214 0.79893 0.0
O82 O 0.27898 0.70111 0.86068 0.0
O83 O 0.32122 0.67915 0.84799 0.0
H84 H 0.51336 0.16612 0.10631 0.0
H85 H 0.49383 0.09376 0.09512 0.0
H86 H 0.5674 0.08967 0.15455 0.0
H87 H 0.58799 0.16135 0.16501 0.0
H88 H 0.58158 0.05757 0.11519 0.0
H89 H 0.40901 0.98778 0.12825 0.0
H90 H 0.43325 0.02865 0.10603 0.0
H91 H 0.44589 0.04071 0.13741 0.0
C92 C 0.52507 0.1495 0.11695 0.0
C93 C 0.55214 0.16934 0.13652 0.0
C94 C 0.51389 0.1082 0.11059 0.0
C95 C 0.52896 0.08606 0.12408 0.0
C96 C 0.55565 0.10604 0.14369 0.0
H97 H 0.43801 0.84405 0.1717 0.0
H98 H 0.45947 0.91572 0.16032 0.0
C99 C 0.56725 0.1471 0.14974 0.0
C100 C 0.51697 0.04181 0.11876 0.0
H101 H 0.43423 0.94163 0.12213 0.0
C102 C 0.54928 0.03213 0.11632 0.0
C103 C 0.4748 0.00867 0.12008 0.0
C104 C 0.43866 0.0167 0.12324 0.0
C105 C 0.54099 0.99052 0.11732 0.0
C106 C 0.49902 0.95753 0.12001 0.0
C107 C 0.46643 0.96702 0.12024 0.0
C108 C 0.48845 0.91413 0.12656 0.0
C109 C 0.57746 0.98257 0.11736 0.0
C110 C 0.49851 0.88936 0.11167 0.0
C111 C 0.48692 0.84815 0.11851 0.0
C112 C 0.46444 0.83113 0.14004 0.0
C113 C 0.45513 0.85627 0.15494 0.0
C114 C 0.4672 0.89723 0.14837 0.0
H115 H 0.60813 0.01202 0.11936 0.0
H116 H 0.57412 0.96094 0.13226 0.0
H117 H 0.57798 0.96766 0.10006 0.0
H118 H 0.51436 0.90145 0.09458 0.0
H119 H 0.49397 0.82916 0.10659 0.0
H120 H 0.33513 0.48609 0.4762 0.0
H121 H 0.38971 0.46736 0.46848 0.0
H122 H 0.47341 0.5929 0.4427 0.0
H123 H 0.41981 0.61187 0.45099 0.0
H124 H 0.44251 0.47241 0.42836 0.0
H125 H 0.53356 0.58273 0.50235 0.0
H126 H 0.47908 0.56598 0.4968 0.0
H127 H 0.51951 0.60562 0.4781 0.0
C128 C 0.36476 0.50917 0.46825 0.0
C129 C 0.37357 0.55047 0.46441 0.0
C130 C 0.39595 0.49858 0.46394 0.0
C131 C 0.43596 0.52913 0.45561 0.0
C132 C 0.44316 0.56918 0.44967 0.0
H133 H 0.67361 0.52455 0.46004 0.0
H134 H 0.62251 0.54686 0.44977 0.0
C135 C 0.41243 0.57988 0.45429 0.0
C136 C 0.47139 0.52067 0.45533 0.0
H137 H 0.5655 0.54956 0.48236 0.0
C138 C 0.4695 0.48938 0.44006 0.0
C139 C 0.50674 0.54307 0.47054 0.0
C140 C 0.50988 0.57599 0.48804 0.0
C141 C 0.50185 0.47958 0.43979 0.0
C142 C 0.53661 0.5012 0.45548 0.0
C143 C 0.53906 0.53333 0.47019 0.0
C144 C 0.56782 0.48746 0.45927 0.0
C145 C 0.49838 0.44593 0.42283 0.0
C146 C 0.55406 0.44705 0.46817 0.0
C147 C 0.58287 0.43453 0.47414 0.0
C148 C 0.62635 0.46217 0.4715 0.0
C149 C 0.64035 0.50259 0.46222 0.0
C150 C 0.61122 0.51527 0.45633 0.0
H151 H 0.47879 0.44286 0.40687 0.0
H152 H 0.52981 0.45258 0.41651 0.0
H153 H 0.48308 0.41533 0.43241 0.0
H154 H 0.52091 0.42544 0.47122 0.0
H155 H 0.57085 0.40312 0.4812 0.0
H156 H 0.82005 0.42567 0.79597 0.0
H157 H 0.89342 0.47773 0.78862 0.0
H158 H 0.92968 0.38654 0.80716 0.0
H159 H 0.85534 0.33352 0.81401 0.0
H160 H 0.95087 0.50525 0.82422 0.0
H161 H 0.00398 0.44426 0.74859 0.0
H162 H 0.94908 0.42417 0.75537 0.0
H163 H 0.97925 0.40755 0.77287 0.0
C164 C 0.84356 0.41637 0.79795 0.0
C165 C 0.83213 0.37565 0.80566 0.0
C166 C 0.8855 0.4462 0.79375 0.0
C167 C 0.91715 0.43619 0.79731 0.0
C168 C 0.90574 0.39484 0.80388 0.0
H169 H 0.1808 0.56949 0.81864 0.0
H170 H 0.10718 0.52037 0.81109 0.0
C171 C 0.86334 0.36456 0.80783 0.0
C172 C 0.96183 0.47041 0.79673 0.0
H173 H 0.05742 0.50185 0.77078 0.0
C174 C 0.97409 0.50474 0.81232 0.0
C175 C 0.99205 0.46977 0.7812 0.0
C176 C 0.98046 0.43467 0.76338 0.0
C177 C 0.01593 0.53767 0.81344 0.0
C178 C 0.04637 0.53668 0.79825 0.0
C179 C 0.03398 0.50277 0.78228 0.0
C180 C 0.09188 0.56773 0.80076 0.0
C181 C 0.02749 0.57223 0.83168 0.0
C182 C 0.10826 0.61104 0.79706 0.0
C183 C 0.15091 0.63974 0.80155 0.0
C184 C 0.17763 0.62537 0.80975 0.0
C185 C 0.16118 0.58188 0.81256 0.0
C186 C 0.11897 0.55352 0.80811 0.0
H187 H 1.00199 0.56414 0.84506 0.0
H188 H 0.0565 0.57905 0.84154 0.0
H189 H 0.03358 0.60126 0.82217 0.0
H190 H 0.08799 0.62266 0.791 0.0
H191 H 0.16271 0.67297 0.79907 0.0
H192 H 0.17663 0.61362 0.52872 0.0
H193 H 0.10088 0.58339 0.52565 0.0
H194 H 0.0942 0.48923 0.4767 0.0
H195 H 0.17075 0.51961 0.47952 0.0
H196 H 0.05849 0.57591 0.48001 0.0
H197 H 0.99922 0.4239 0.52824 0.0
H198 H 0.05174 0.46761 0.5326 0.0
H199 H 0.03909 0.43665 0.50563 0.0
C200 C 0.15919 0.58615 0.51748 0.0
C201 C 0.17997 0.56923 0.50421 0.0
C202 C 0.1158 0.56898 0.51574 0.0
C203 C 0.09197 0.53424 0.5009 0.0
C204 C 0.11208 0.51595 0.4884 0.0
H205 H 0.82651 0.39078 0.47056 0.0
H206 H 0.90262 0.42161 0.47092 0.0
C207 C 0.15579 0.53325 0.49008 0.0
C208 C 0.0465 0.51891 0.49772 0.0
H209 H 0.94882 0.43683 0.51028 0.0
C210 C 0.0344 0.54546 0.48657 0.0
C211 C 0.01532 0.47931 0.50636 0.0
C212 C 0.02672 0.45016 0.51904 0.0
C213 C 0.99181 0.53316 0.48346 0.0
C214 C 0.9605 0.49362 0.49229 0.0
C215 C 0.97276 0.46715 0.5035 0.0
C216 C 0.91476 0.47818 0.48963 0.0
C217 C 0.98087 0.5622 0.47024 0.0
C218 C 0.89605 0.50026 0.4994 0.0
C219 C 0.85222 0.48288 0.4988 0.0
C220 C 0.82659 0.44286 0.48888 0.0
C221 C 0.84555 0.42165 0.47842 0.0
C222 C 0.88906 0.43917 0.47868 0.0
H223 H 0.00743 0.58517 0.45888 0.0
H224 H 0.95293 0.54434 0.45855 0.0
H225 H 0.97357 0.58012 0.4836 0.0
H226 H 0.91509 0.53005 0.50838 0.0
H227 H 0.83831 0.49956 0.50728 0.0
H228 H 0.34804 0.83295 0.81763 0.0
H229 H 0.39063 0.91011 0.81534 0.0
H230 H 0.49612 0.90591 0.84582 0.0
H231 H 0.4546 0.83006 0.84844 0.0
H232 H 0.44039 0.97008 0.85706 0.0
H233 H 0.53839 0.97288 0.77972 0.0
H234 H 0.48672 0.92875 0.78583 0.0
H235 H 0.5308 0.93682 0.80371 0.0
C236 C 0.3802 0.84851 0.82398 0.0
C237 C 0.39779 0.82502 0.83304 0.0
C238 C 0.4045 0.89252 0.82259 0.0
C239 C 0.44672 0.91351 0.83003 0.0
C240 C 0.46386 0.89027 0.8396 0.0
H241 H 0.65931 0.17023 0.835 0.0
H242 H 0.614 0.09323 0.83498 0.0
C243 C 0.4398 0.84671 0.84113 0.0
C244 C 0.47346 0.95978 0.82826 0.0
H245 H 0.56129 0.03715 0.80038 0.0
C246 C 0.46653 0.98488 0.8445 0.0
C247 C 0.508 0.97878 0.81217 0.0
C248 C 0.51646 0.95308 0.79421 0.0
C249 C 0.49375 0.02854 0.84539 0.0
C250 C 0.52824 0.04773 0.82915 0.0
C251 C 0.53501 0.02251 0.81285 0.0
C252 C 0.55643 0.09405 0.82822 0.0
C253 C 0.48597 0.05349 0.86425 0.0
C254 C 0.53941 0.1199 0.82367 0.0
C255 C 0.56492 0.16342 0.8239 0.0
C256 C 0.6084 0.18243 0.82828 0.0
C257 C 0.62596 0.15658 0.83171 0.0
C258 C 0.6001 0.11265 0.83173 0.0
H259 H 0.46731 0.03342 0.87966 0.0
H260 H 0.51596 0.07964 0.8713 0.0
H261 H 0.46785 0.06699 0.85605 0.0
H262 H 0.50616 0.10639 0.8201 0.0
H263 H 0.55035 0.18224 0.82063 0.0
H264 H 0.47697 0.64392 0.13301 0.0
H265 H 0.50472 0.59593 0.1275 0.0
H266 H 0.43509 0.52534 0.19001 0.0
H267 H 0.40706 0.57228 0.19539 0.0
H268 H 0.55037 0.57239 0.15664 0.0
H269 H 0.39413 0.43486 0.13838 0.0
H270 H 0.40348 0.4879 0.13826 0.0
H271 H 0.3946 0.45983 0.16628 0.0
C272 C 0.46812 0.6185 0.14573 0.0
C273 C 0.43944 0.61159 0.16445 0.0
C274 C 0.48371 0.59094 0.14247 0.0
C275 C 0.47082 0.55621 0.15788 0.0
C276 C 0.4443 0.55098 0.17739 0.0
H277 H 0.58186 0.41194 0.19757 0.0
H278 H 0.5528 0.4582 0.19287 0.0
C279 C 0.4286 0.57813 0.18056 0.0
C280 C 0.48498 0.52527 0.15402 0.0
H281 H 0.4482 0.41975 0.15043 0.0
C282 C 0.52808 0.5391 0.1549 0.0
C283 C 0.45598 0.48183 0.15118 0.0
C284 C 0.4095 0.46526 0.1482 0.0
C285 C 0.54274 0.51046 0.15459 0.0
C286 C 0.51346 0.4668 0.15392 0.0
C287 C 0.47057 0.45313 0.15142 0.0
C288 C 0.52678 0.43516 0.15744 0.0
C289 C 0.58952 0.52727 0.15534 0.0
C290 C 0.51925 0.4047 0.13979 0.0
C291 C 0.53532 0.37747 0.14264 0.0
C292 C 0.55913 0.38053 0.16316 0.0
C293 C 0.56408 0.40919 0.18142 0.0
C294 C 0.54784 0.43595 0.17866 0.0
H295 H 0.60725 0.55967 0.14796 0.0
H296 H 0.59941 0.52837 0.17437 0.0
H297 H 0.59826 0.50697 0.14496 0.0
H298 H 0.50251 0.40317 0.12341 0.0
H299 H 0.53123 0.35584 0.12823 0.0
H300 H 0.66731 0.35823 0.88308 0.0
H301 H 0.66122 0.37195 0.92598 0.0
H302 H 0.7146 0.29546 0.94618 0.0
H303 H 0.72119 0.28214 0.90379 0.0
H304 H 0.61993 0.31801 0.96468 0.0
H305 H 0.79144 0.40653 0.98025 0.0
H306 H 0.76886 0.39512 0.95037 0.0
H307 H 0.77484 0.35628 0.96682 0.0
C308 C 0.67734 0.3441 0.89674 0.0
C309 C 0.69516 0.31952 0.89013 0.0
C310 C 0.67406 0.35211 0.92116 0.0
C311 C 0.68866 0.33573 0.93916 0.0
C312 C 0.7044 0.30949 0.93254 0.0
H313 H 0.62961 0.27233 0.0857 0.0
H314 H 0.63863 0.27868 0.04207 0.0
C315 C 0.70781 0.30163 0.9083 0.0
C316 C 0.68715 0.34511 0.96501 0.0
H317 H 0.74788 0.37807 0.01573 0.0
C318 C 0.64795 0.33181 0.9758 0.0
C319 C 0.72386 0.36398 0.97941 0.0
C320 C 0.76717 0.38172 0.96857 0.0
C321 C 0.64418 0.33425 0.00088 0.0
C322 C 0.6805 0.3496 0.0155 0.0
C323 C 0.72001 0.36561 0.00454 0.0
C324 C 0.6776 0.34634 0.04215 0.0
C325 C 0.60122 0.31962 0.01152 0.0
C326 C 0.6986 0.38212 0.05681 0.0
C327 C 0.69399 0.37856 0.08197 0.0
C328 C 0.66832 0.33914 0.09274 0.0
C329 C 0.64913 0.30326 0.07798 0.0
C330 C 0.65394 0.30683 0.053 0.0
H331 H 0.58006 0.32215 -0.00181 0.0
H332 H 0.58683 0.28613 0.01679 0.0
H333 H 0.60311 0.33809 0.02781 0.0
H334 H 0.71754 0.41286 0.04876 0.0
H335 H 0.70912 0.40677 0.09284 0.0
H336 H 0.45542 0.73445 0.23605 0.0
H337 H 0.43816 0.72667 0.27896 0.0
H338 H 0.30641 0.65116 0.26201 0.0
H339 H 0.32344 0.65923 0.21873 0.0
H340 H 0.32632 0.71661 0.29653 0.0
H341 H 0.39857 0.62018 0.31981 0.0
H342 H 0.43296 0.66765 0.30376 0.0
H343 H 0.38675 0.62716 0.28913 0.0
C344 C 0.42276 0.71585 0.2414 0.0
C345 C 0.39075 0.69732 0.22403 0.0
C346 C 0.41299 0.7114 0.26594 0.0
C347 C 0.37109 0.6881 0.27362 0.0
C348 C 0.33897 0.66924 0.25638 0.0
H349 H 0.28953 0.59737 0.41708 0.0
H350 H 0.30038 0.60769 0.3738 0.0
C351 C 0.34874 0.67366 0.23172 0.0
C352 C 0.36107 0.68407 0.29969 0.0
H353 H 0.37838 0.64784 0.35254 0.0
C354 C 0.33746 0.70141 0.30882 0.0
C355 C 0.3756 0.66411 0.31556 0.0
C356 C 0.39956 0.64336 0.3066 0.0
C357 C 0.32828 0.6996 0.33359 0.0
C358 C 0.34361 0.68041 0.34951 0.0
C359 C 0.36701 0.66291 0.34029 0.0
C360 C 0.33372 0.67548 0.37563 0.0
C361 C 0.30162 0.7174 0.34246 0.0
C362 C 0.34826 0.71033 0.39107 0.0
C363 C 0.34188 0.70455 0.41609 0.0
C364 C 0.32144 0.66384 0.4259 0.0
C365 C 0.30592 0.6292 0.4102 0.0
C366 C 0.31197 0.63498 0.3854 0.0
H367 H 0.28514 0.72307 0.32742 0.0
H368 H 0.27789 0.6959 0.35573 0.0
H369 H 0.32201 0.74777 0.35162 0.0
H370 H 0.36568 0.7419 0.38388 0.0
H371 H 0.35425 0.73178 0.42774 0.0
H372 H 0.62922 0.35196 0.75737 0.0
H373 H 0.63248 0.36227 0.71347 0.0
H374 H 0.72914 0.3289 0.70841 0.0
H375 H 0.72705 0.31969 0.75184 0.0
H376 H 0.74948 0.39804 0.68309 0.0
H377 H 0.58703 0.27382 0.66069 0.0
H378 H 0.58949 0.3112 0.6824 0.0
H379 H 0.6102 0.2776 0.68994 0.0
C380 C 0.65112 0.34681 0.74688 0.0
C381 C 0.67782 0.33499 0.7582 0.0
C382 C 0.6527 0.35236 0.72179 0.0
C383 C 0.68059 0.34566 0.70765 0.0
C384 C 0.70729 0.33408 0.71894 0.0
H385 H 0.67694 0.3287 0.54964 0.0
H386 H 0.67482 0.31242 0.59287 0.0
C387 C 0.706 0.32887 0.74387 0.0
C388 C 0.68352 0.35213 0.68116 0.0
H389 H 0.62716 0.32025 0.62884 0.0
C390 C 0.72275 0.38088 0.67123 0.0
C391 C 0.64885 0.32909 0.66567 0.0
C392 C 0.6066 0.29588 0.67514 0.0
C393 C 0.72812 0.38788 0.64628 0.0
C394 C 0.69302 0.36636 0.63089 0.0
C395 C 0.65396 0.33688 0.64072 0.0
C396 C 0.69573 0.3759 0.60477 0.0
C397 C 0.77149 0.41801 0.63668 0.0
C398 C 0.70801 0.41678 0.59725 0.0
C399 C 0.70959 0.42613 0.57279 0.0
C400 C 0.69827 0.39462 0.55528 0.0
C401 C 0.68599 0.35359 0.56275 0.0
C402 C 0.68464 0.34427 0.58738 0.0
H403 H 0.79632 0.4208 0.6492 0.0
H404 H 0.77674 0.40799 0.61872 0.0
H405 H 0.77502 0.44962 0.6348 0.0
H406 H 0.71571 0.44144 0.61035 0.0
H407 H 0.71891 0.45801 0.56766 0.0
H408 H 0.34294 0.64746 0.8849 0.0
H409 H 0.34907 0.63509 0.92797 0.0
H410 H 0.30025 0.71614 0.94702 0.0
H411 H 0.29335 0.72787 0.90441 0.0
H412 H 0.39143 0.68807 0.96608 0.0
H413 H 0.21999 0.60784 0.98204 0.0
H414 H 0.24254 0.61811 0.9521 0.0
H415 H 0.23913 0.6585 0.96855 0.0
C416 C 0.33399 0.66292 0.89834 0.0
C417 C 0.31718 0.68817 0.89139 0.0
C418 C 0.33729 0.65569 0.92287 0.0
C419 C 0.32384 0.67367 0.94061 0.0
C420 C 0.30946 0.70084 0.93361 0.0
H421 H 0.3847 0.73289 0.08796 0.0
H422 H 0.37662 0.72856 0.04426 0.0
C423 C 0.30588 0.70779 0.90925 0.0
C424 C 0.32475 0.66457 0.96655 0.0
H425 H 0.26378 0.6344 0.01736 0.0
C426 C 0.36345 0.67574 0.97726 0.0
C427 C 0.28803 0.64751 0.98102 0.0
C428 C 0.24502 0.63187 0.97028 0.0
C429 C 0.36683 0.67279 0.00232 0.0
C430 C 0.3307 0.65923 0.017 0.0
C431 C 0.29157 0.64551 0.00612 0.0
C432 C 0.33341 0.66155 0.04367 0.0
C433 C 0.40919 0.68472 0.01283 0.0
C434 C 0.30983 0.62568 0.05796 0.0
C435 C 0.31385 0.62814 0.08313 0.0
C436 C 0.34154 0.66655 0.0943 0.0
C437 C 0.36354 0.70268 0.07992 0.0
C438 C 0.35927 0.70023 0.0549 0.0
H439 H 0.42938 0.68068 -0.0006 0.0
H440 H 0.42546 0.71828 0.01815 0.0
H441 H 0.40601 0.66562 0.02906 0.0
H442 H 0.28921 0.59562 0.04961 0.0
H443 H 0.29654 0.59975 0.09372 0.0
H444 H 0.65529 0.28255 0.42589 0.0
H445 H 0.6425 0.27098 0.38235 0.0
H446 H 0.66607 0.39743 0.37395 0.0
H447 H 0.67762 0.40891 0.41704 0.0
H448 H 0.59753 0.34259 0.34973 0.0
H449 H 0.73016 0.31604 0.32888 0.0
H450 H 0.69417 0.28105 0.35122 0.0
H451 H 0.72498 0.33626 0.35758 0.0
C452 C 0.65762 0.3078 0.41476 0.0
C453 C 0.6676 0.34666 0.42503 0.0
C454 C 0.65066 0.30127 0.38986 0.0
C455 C 0.65407 0.33362 0.37486 0.0
C456 C 0.66343 0.37208 0.38515 0.0
H457 H 0.67686 0.35082 0.21785 0.0
H458 H 0.68956 0.36243 0.26147 0.0
C459 C 0.67003 0.37853 0.40989 0.0
C460 C 0.64721 0.32778 0.34846 0.0
H461 H 0.68369 0.30648 0.29672 0.0
C462 C 0.61639 0.33471 0.33814 0.0
C463 C 0.67239 0.31828 0.33334 0.0
C464 C 0.70757 0.31286 0.34323 0.0
C465 C 0.60981 0.33212 0.31314 0.0
C466 C 0.63397 0.3212 0.29809 0.0
C467 C 0.66509 0.31466 0.30834 0.0
C468 C 0.62644 0.31514 0.27177 0.0
C469 C 0.57756 0.34191 0.30307 0.0
C470 C 0.58693 0.28465 0.26321 0.0
C471 C 0.57957 0.27828 0.2385 0.0
C472 C 0.61177 0.30186 0.22179 0.0
C473 C 0.65146 0.33233 0.23032 0.0
C474 C 0.65876 0.33887 0.25518 0.0
H475 H 0.5715 0.36184 0.31562 0.0
H476 H 0.58778 0.35822 0.28539 0.0
H477 H 0.54746 0.31218 0.30041 0.0
H478 H 0.56185 0.26534 0.27569 0.0
H479 H 0.54872 0.25431 0.23252 0.0
H480 H 0.28142 0.67845 0.75325 0.0
H481 H 0.28119 0.66989 0.70977 0.0
H482 H 0.39188 0.65825 0.71473 0.0
H483 H 0.39306 0.66772 0.75865 0.0
H484 H 0.39518 0.71183 0.67717 0.0
H485 H 0.24597 0.55933 0.67533 0.0
H486 H 0.24156 0.59996 0.69058 0.0
H487 H 0.27486 0.58175 0.70281 0.0
C488 C 0.30575 0.67389 0.74527 0.0
C489 C 0.33716 0.67348 0.75958 0.0
C490 C 0.30543 0.66889 0.72033 0.0
C491 C 0.33611 0.66284 0.7091 0.0
C492 C 0.3678 0.66273 0.72315 0.0
H493 H 0.31721 0.5631 0.56721 0.0
H494 H 0.32394 0.57918 0.61004 0.0
C495 C 0.3683 0.66793 0.74822 0.0
C496 C 0.33474 0.65657 0.68265 0.0
H497 H 0.27208 0.59311 0.63759 0.0
C498 C 0.36843 0.68578 0.66845 0.0
C499 C 0.29984 0.62244 0.67143 0.0
C500 C 0.26368 0.58885 0.68582 0.0
C501 C 0.36799 0.68188 0.64319 0.0
C502 C 0.33257 0.64831 0.63195 0.0
C503 C 0.299 0.61911 0.64623 0.0
C504 C 0.33068 0.64063 0.6056 0.0
C505 C 0.40577 0.71306 0.62885 0.0
C506 C 0.3323 0.66997 0.58874 0.0
C507 C 0.32878 0.66095 0.56396 0.0
C508 C 0.32303 0.62226 0.55586 0.0
C509 C 0.32139 0.59313 0.57284 0.0
C510 C 0.32529 0.60227 0.59738 0.0
H511 H 0.43382 0.7309 0.64049 0.0
H512 H 0.41355 0.69704 0.61446 0.0
H513 H 0.39863 0.73587 0.62009 0.0
H514 H 0.33559 0.69946 0.59475 0.0
H515 H 0.32994 0.68384 0.55124 0.0
loop_
_geom_bond_atom_site_label_1
_geom_bond_atom_site_label_2
_geom_bond_distance
_geom_bond_site_symmetry_2
_ccdc_geom_bond_type
Co0 O1 2.216 . S
Co0 O2 2.091 . S
Co0 O4 2.004 . S
Co0 O10 2.021 . S
Co0 O12 2.137 . S
Co0 O13 2.244 . S
O1 Co0 2.216 . S
O1 C8 1.247 . S
O2 Co0 2.091 . S
O2 C8 1.261 . S
C3 O12 1.247 . S
C3 O13 1.272 . S
O4 Co0 2.004 . S
O4 C9 1.259 . S
Co5 O6 2.061 . S
Co5 O11 2.052 . S
Co5 O13 2.135 . S
O6 Co5 2.061 . S
O6 C9 1.235 . S
C7 O10 1.238 . S
C7 O11 1.241 . S
C8 O1 1.247 . S
C8 O2 1.261 . S
C9 O4 1.259 . S
C9 O6 1.235 . S
O10 Co0 2.021 . S
O10 C7 1.238 . S
O11 Co5 2.052 . S
O11 C7 1.241 . S
O12 Co0 2.137 . S
O12 C3 1.247 . S
O13 Co0 2.244 . S
O13 C3 1.272 . S
O13 Co5 2.135 . S
Co14 O15 2.216 . S
Co14 O16 2.091 . S
Co14 O18 2.004 . S
Co14 O24 2.021 . S
Co14 O26 2.137 . S
Co14 O27 2.244 . S
O15 Co14 2.216 . S
O15 C22 1.247 . S
O16 Co14 2.091 . S
O16 C22 1.261 . S
C17 O26 1.247 . S
C17 O27 1.272 . S
O18 Co14 2.004 . S
O18 C23 1.259 . S
Co19 O20 2.061 . S
Co19 O25 2.052 . S
Co19 O27 2.135 . S
O20 Co19 2.061 . S
O20 C23 1.235 . S
C21 O24 1.238 . S
C21 O25 1.241 . S
C22 O15 1.247 . S
C22 O16 1.261 . S
C23 O18 1.259 . S
C23 O20 1.235 . S
O24 Co14 2.021 . S
O24 C21 1.238 . S
O25 Co19 2.052 . S
O25 C21 1.241 . S
O26 Co14 2.137 . S
O26 C17 1.247 . S
O27 Co14 2.244 . S
O27 C17 1.272 . S
O27 Co19 2.135 . S
Co28 O29 2.216 . S
Co28 O30 2.091 . S
Co28 O32 2.004 . S
Co28 O38 2.021 . S
Co28 O40 2.137 . S
Co28 O41 2.244 . S
O29 Co28 2.216 . S
O29 C36 1.247 . S
O30 Co28 2.091 . S
O30 C36 1.261 . S
C31 O40 1.247 . S
C31 O41 1.272 . S
O32 Co28 2.004 . S
O32 C37 1.259 . S
Co33 O34 2.061 . S
Co33 O39 2.052 . S
Co33 O41 2.135 . S
O34 Co33 2.061 . S
O34 C37 1.235 . S
C35 O38 1.238 . S
C35 O39 1.241 . S
C36 O29 1.247 . S
C36 O30 1.261 . S
C37 O32 1.259 . S
C37 O34 1.235 . S
O38 Co28 2.021 . S
O38 C35 1.238 . S
O39 Co33 2.052 . S
O39 C35 1.241 . S
O40 Co28 2.137 . S
O40 C31 1.247 . S
O41 Co28 2.244 . S
O41 C31 1.272 . S
O41 Co33 2.135 . S
Co42 O43 2.216 . S
Co42 O44 2.091 . S
Co42 O46 2.004 . S
Co42 O52 2.021 . S
Co42 O54 2.137 . S
Co42 O55 2.244 . S
O43 Co42 2.216 . S
O43 C50 1.247 . S
O44 Co42 2.091 . S
O44 C50 1.261 . S
C45 O54 1.247 . S
C45 O55 1.272 . S
O46 Co42 2.004 . S
O46 C51 1.259 . S
Co47 O48 2.061 . S
Co47 O53 2.052 . S
Co47 O55 2.135 . S
O48 Co47 2.061 . S
O48 C51 1.235 . S
C49 O52 1.238 . S
C49 O53 1.241 . S
C50 O43 1.247 . S
C50 O44 1.261 . S
C51 O46 1.259 . S
C51 O48 1.235 . S
O52 Co42 2.021 . S
O52 C49 1.238 . S
O53 Co47 2.052 . S
O53 C49 1.241 . S
O54 Co42 2.137 . S
O54 C45 1.247 . S
O55 Co42 2.244 . S
O55 C45 1.272 . S
O55 Co47 2.135 . S
Co56 O57 2.216 . S
Co56 O58 2.091 . S
Co56 O60 2.004 . S
Co56 O66 2.021 . S
Co56 O68 2.137 . S
Co56 O69 2.244 . S
O57 Co56 2.216 . S
O57 C64 1.247 . S
O58 Co56 2.091 . S
O58 C64 1.261 . S
C59 O68 1.247 . S
C59 O69 1.272 . S
O60 Co56 2.004 . S
O60 C65 1.259 . S
Co61 O62 2.061 . S
Co61 O67 2.052 . S
Co61 O69 2.135 . S
O62 Co61 2.061 . S
O62 C65 1.235 . S
C63 O66 1.238 . S
C63 O67 1.241 . S
C64 O57 1.247 . S
C64 O58 1.261 . S
C65 O60 1.259 . S
C65 O62 1.235 . S
O66 Co56 2.021 . S
O66 C63 1.238 . S
O67 Co61 2.052 . S
O67 C63 1.241 . S
O68 Co56 2.137 . S
O68 C59 1.247 . S
O69 Co56 2.244 . S
O69 C59 1.272 . S
O69 Co61 2.135 . S
Co70 O71 2.216 . S
Co70 O72 2.091 . S
Co70 O74 2.004 . S
Co70 O80 2.021 . S
Co70 O82 2.137 . S
Co70 O83 2.244 . S
O71 Co70 2.216 . S
O71 C78 1.247 . S
O72 Co70 2.091 . S
O72 C78 1.261 . S
C73 O82 1.247 . S
C73 O83 1.272 . S
O74 Co70 2.004 . S
O74 C79 1.259 . S
Co75 O76 2.061 . S
Co75 O81 2.052 . S
Co75 O83 2.135 . S
O76 Co75 2.061 . S
O76 C79 1.235 . S
C77 O80 1.238 . S
C77 O81 1.241 . S
C78 O71 1.247 . S
C78 O72 1.261 . S
C79 O74 1.259 . S
C79 O76 1.235 . S
O80 Co70 2.021 . S
O80 C77 1.238 . S
O81 Co75 2.052 . S
O81 C77 1.241 . S
O82 Co70 2.137 . S
O82 C73 1.247 . S
O83 Co70 2.244 . S
O83 C73 1.272 . S
O83 Co75 2.135 . S
H84 C92 0.929 . S
H85 C94 0.930 . S
H86 C96 0.930 . S
H87 C99 0.929 . S
H88 C102 0.930 . S
H89 C104 0.960 1_565 S
H90 C104 0.960 . S
H91 C104 0.960 . S
C92 H84 0.929 . S
C92 C93 1.377 . S
C92 C94 1.384 . S
C93 C92 1.377 . S
C93 C99 1.390 . S
C94 H85 0.930 . S
C94 C92 1.384 . S
C94 C95 1.372 . S
C95 C94 1.372 . S
C95 C96 1.400 . S
C95 C100 1.490 . S
C96 H86 0.930 . S
C96 C95 1.400 . S
C96 C99 1.386 . S
H97 C113 0.930 . S
H98 C114 0.931 . S
C99 H87 0.929 . S
C99 C93 1.390 . S
C99 C96 1.386 . S
C100 C95 1.490 . S
C100 C102 1.395 . S
C100 C103 1.403 . S
H101 C107 0.930 . S
C102 H88 0.930 . S
C102 C100 1.395 . S
C102 C105 1.403 1_545 S
C103 C100 1.403 . S
C103 C104 1.524 . S
C103 C107 1.400 1_545 S
C104 H89 0.960 1_545 S
C104 H90 0.960 . S
C104 H91 0.960 . S
C104 C103 1.524 . S
C105 C102 1.403 1_565 S
C105 C106 1.392 . S
C105 C109 1.495 . S
C106 C105 1.392 . S
C106 C107 1.385 . S
C106 C108 1.478 . S
C107 H101 0.930 . S
C107 C103 1.400 1_565 S
C107 C106 1.385 . S
C108 C106 1.478 . S
C108 C110 1.381 . S
C108 C114 1.383 . S
C109 C105 1.495 . S
C109 H115 0.959 1_565 S
C109 H116 0.961 . S
C109 H117 0.960 . S
C110 C108 1.381 . S
C110 C111 1.394 . S
C110 H118 0.930 . S
C111 C110 1.394 . S
C111 C112 1.383 . S
C111 H119 0.929 . S
C112 C111 1.383 . S
C112 C113 1.377 . S
C113 H97 0.930 . S
C113 C112 1.377 . S
C113 C114 1.379 . S
C114 H98 0.931 . S
C114 C108 1.383 . S
C114 C113 1.379 . S
H115 C109 0.959 1_545 S
H116 C109 0.961 . S
H117 C109 0.960 . S
H118 C110 0.930 . S
H119 C111 0.929 . S
H120 C128 0.929 . S
H121 C130 0.930 . S
H122 C132 0.930 . S
H123 C135 0.929 . S
H124 C138 0.930 . S
H125 C140 0.960 . S
H126 C140 0.960 . S
H127 C140 0.960 . S
C128 H120 0.929 . S
C128 C129 1.377 . S
C128 C130 1.384 . S
C129 C128 1.377 . S
C129 C135 1.390 . S
C130 H121 0.930 . S
C130 C128 1.384 . S
C130 C131 1.372 . S
C131 C130 1.372 . S
C131 C132 1.400 . S
C131 C136 1.490 . S
C132 H122 0.930 . S
C132 C131 1.400 . S
C132 C135 1.386 . S
H133 C149 0.930 . S
H134 C150 0.931 . S
C135 H123 0.929 . S
C135 C129 1.390 . S
C135 C132 1.386 . S
C136 C131 1.490 . S
C136 C138 1.395 . S
C136 C139 1.403 . S
H137 C143 0.930 . S
C138 H124 0.930 . S
C138 C136 1.395 . S
C138 C141 1.403 . S
C139 C136 1.403 . S
C139 C140 1.524 . S
C139 C143 1.400 . S
C140 H125 0.960 . S
C140 H126 0.960 . S
C140 H127 0.960 . S
C140 C139 1.524 . S
C141 C138 1.403 . S
C141 C142 1.392 . S
C141 C145 1.495 . S
C142 C141 1.392 . S
C142 C143 1.385 . S
C142 C144 1.478 . S
C143 H137 0.930 . S
C143 C139 1.400 . S
C143 C142 1.385 . S
C144 C142 1.478 . S
C144 C146 1.381 . S
C144 C150 1.383 . S
C145 C141 1.495 . S
C145 H151 0.959 . S
C145 H152 0.961 . S
C145 H153 0.960 . S
C146 C144 1.381 . S
C146 C147 1.394 . S
C146 H154 0.930 . S
C147 C146 1.394 . S
C147 C148 1.383 . S
C147 H155 0.929 . S
C148 C147 1.383 . S
C148 C149 1.377 . S
C149 H133 0.930 . S
C149 C148 1.377 . S
C149 C150 1.379 . S
C150 H134 0.931 . S
C150 C144 1.383 . S
C150 C149 1.379 . S
H151 C145 0.959 . S
H152 C145 0.961 . S
H153 C145 0.960 . S
H154 C146 0.930 . S
H155 C147 0.929 . S
H156 C164 0.929 . S
H157 C166 0.930 . S
H158 C168 0.930 . S
H159 C171 0.929 . S
H160 C174 0.930 . S
H161 C176 0.960 1_455 S
H162 C176 0.960 . S
H163 C176 0.960 . S
C164 H156 0.929 . S
C164 C165 1.377 . S
C164 C166 1.384 . S
C165 C164 1.377 . S
C165 C171 1.390 . S
C166 H157 0.930 . S
C166 C164 1.384 . S
C166 C167 1.372 . S
C167 C166 1.372 . S
C167 C168 1.400 . S
C167 C172 1.490 . S
C168 H158 0.930 . S
C168 C167 1.400 . S
C168 C171 1.386 . S
H169 C185 0.930 . S
H170 C186 0.931 . S
C171 H159 0.929 . S
C171 C165 1.390 . S
C171 C168 1.386 . S
C172 C167 1.490 . S
C172 C174 1.395 . S
C172 C175 1.403 . S
H173 C179 0.930 . S
C174 H160 0.930 . S
C174 C172 1.395 . S
C174 C177 1.403 1_655 S
C175 C172 1.403 . S
C175 C176 1.524 . S
C175 C179 1.400 1_655 S
C176 H161 0.960 1_655 S
C176 H162 0.960 . S
C176 H163 0.960 . S
C176 C175 1.524 . S
C177 C174 1.403 1_455 S
C177 C178 1.392 . S
C177 C181 1.495 . S
C178 C177 1.392 . S
C178 C179 1.385 . S
C178 C180 1.478 . S
C179 H173 0.930 . S
C179 C175 1.400 1_455 S
C179 C178 1.385 . S
C180 C178 1.478 . S
C180 C182 1.381 . S
C180 C186 1.383 . S
C181 C177 1.495 . S
C181 H187 0.959 1_455 S
C181 H188 0.961 . S
C181 H189 0.960 . S
C182 C180 1.381 . S
C182 C183 1.394 . S
C182 H190 0.930 . S
C183 C182 1.394 . S
C183 C184 1.383 . S
C183 H191 0.929 . S
C184 C183 1.383 . S
C184 C185 1.377 . S
C185 H169 0.930 . S
C185 C184 1.377 . S
C185 C186 1.379 . S
C186 H170 0.931 . S
C186 C180 1.383 . S
C186 C185 1.379 . S
H187 C181 0.959 1_655 S
H188 C181 0.961 . S
H189 C181 0.960 . S
H190 C182 0.930 . S
H191 C183 0.929 . S
H192 C200 0.929 . S
H193 C202 0.930 . S
H194 C204 0.930 . S
H195 C207 0.929 . S
H196 C210 0.930 . S
H197 C212 0.960 1_655 S
H198 C212 0.960 . S
H199 C212 0.960 . S
C200 H192 0.929 . S
C200 C201 1.377 . S
C200 C202 1.384 . S
C201 C200 1.377 . S
C201 C207 1.390 . S
C202 H193 0.930 . S
C202 C200 1.384 . S
C202 C203 1.372 . S
C203 C202 1.372 . S
C203 C204 1.400 . S
C203 C208 1.490 . S
C204 H194 0.930 . S
C204 C203 1.400 . S
C204 C207 1.386 . S
H205 C221 0.930 . S
H206 C222 0.931 . S
C207 H195 0.929 . S
C207 C201 1.390 . S
C207 C204 1.386 . S
C208 C203 1.490 . S
C208 C210 1.395 . S
C208 C211 1.403 . S
H209 C215 0.930 . S
C210 H196 0.930 . S
C210 C208 1.395 . S
C210 C213 1.403 1_455 S
C211 C208 1.403 . S
C211 C212 1.524 . S
C211 C215 1.400 1_455 S
C212 H197 0.960 1_455 S
C212 H198 0.960 . S
C212 H199 0.960 . S
C212 C211 1.524 . S
C213 C210 1.403 1_655 S
C213 C214 1.392 . S
C213 C217 1.495 . S
C214 C213 1.392 . S
C214 C215 1.385 . S
C214 C216 1.478 . S
C215 H209 0.930 . S
C215 C211 1.400 1_655 S
C215 C214 1.385 . S
C216 C214 1.478 . S
C216 C218 1.381 . S
C216 C222 1.383 . S
C217 C213 1.495 . S
C217 H223 0.959 1_655 S
C217 H224 0.961 . S
C217 H225 0.960 . S
C218 C216 1.381 . S
C218 C219 1.394 . S
C218 H226 0.930 . S
C219 C218 1.394 . S
C219 C220 1.383 . S
C219 H227 0.929 . S
C220 C219 1.383 . S
C220 C221 1.377 . S
C221 H205 0.930 . S
C221 C220 1.377 . S
C221 C222 1.379 . S
C222 H206 0.931 . S
C222 C216 1.383 . S
C222 C221 1.379 . S
H223 C217 0.959 1_455 S
H224 C217 0.961 . S
H225 C217 0.960 . S
H226 C218 0.930 . S
H227 C219 0.929 . S
H228 C236 0.929 . S
H229 C238 0.930 . S
H230 C240 0.930 . S
H231 C243 0.929 . S
H232 C246 0.930 . S
H233 C248 0.960 . S
H234 C248 0.960 . S
H235 C248 0.960 . S
C236 H228 0.929 . S
C236 C237 1.377 . S
C236 C238 1.384 . S
C237 C236 1.377 . S
C237 C243 1.390 . S
C238 H229 0.930 . S
C238 C236 1.384 . S
C238 C239 1.372 . S
C239 C238 1.372 . S
C239 C240 1.400 . S
C239 C244 1.490 . S
C240 H230 0.930 . S
C240 C239 1.400 . S
C240 C243 1.386 . S
H241 C257 0.930 . S
H242 C258 0.931 . S
C243 H231 0.929 . S
C243 C237 1.390 . S
C243 C240 1.386 . S
C244 C239 1.490 . S
C244 C246 1.395 . S
C244 C247 1.403 . S
H245 C251 0.930 . S
C246 H232 0.930 . S
C246 C244 1.395 . S
C246 C249 1.403 1_565 S
C247 C244 1.403 . S
C247 C248 1.524 . S
C247 C251 1.400 1_565 S
C248 H233 0.960 . S
C248 H234 0.960 . S
C248 H235 0.960 . S
C248 C247 1.524 . S
C249 C246 1.403 1_545 S
C249 C250 1.392 . S
C249 C253 1.495 . S
C250 C249 1.392 . S
C250 C251 1.385 . S
C250 C252 1.478 . S
C251 H245 0.930 . S
C251 C247 1.400 1_545 S
C251 C250 1.385 . S
C252 C250 1.478 . S
C252 C254 1.381 . S
C252 C258 1.383 . S
C253 C249 1.495 . S
C253 H259 0.959 . S
C253 H260 0.961 . S
C253 H261 0.960 . S
C254 C252 1.381 . S
C254 C255 1.394 . S
C254 H262 0.930 . S
C255 C254 1.394 . S
C255 C256 1.383 . S
C255 H263 0.929 . S
C256 C255 1.383 . S
C256 C257 1.377 . S
C257 H241 0.930 . S
C257 C256 1.377 . S
C257 C258 1.379 . S
C258 H242 0.931 . S
C258 C252 1.383 . S
C258 C257 1.379 . S
H259 C253 0.959 . S
H260 C253 0.961 . S
H261 C253 0.960 . S
H262 C254 0.930 . S
H263 C255 0.929 . S
H264 C272 0.929 . S
H265 C274 0.930 . S
H266 C276 0.930 . S
H267 C279 0.929 . S
H268 C282 0.930 . S
H269 C284 0.960 . S
H270 C284 0.960 . S
H271 C284 0.960 . S
C272 H264 0.929 . S
C272 C273 1.377 . S
C272 C274 1.384 . S
C273 C272 1.377 . S
C273 C279 1.390 . S
C274 H265 0.930 . S
C274 C272 1.384 . S
C274 C275 1.372 . S
C275 C274 1.372 . S
C275 C276 1.400 . S
C275 C280 1.490 . S
C276 H266 0.930 . S
C276 C275 1.400 . S
C276 C279 1.386 . S
H277 C293 0.930 . S
H278 C294 0.931 . S
C279 H267 0.929 . S
C279 C273 1.390 . S
C279 C276 1.386 . S
C280 C275 1.490 . S
C280 C282 1.395 . S
C280 C283 1.403 . S
H281 C287 0.930 . S
C282 H268 0.930 . S
C282 C280 1.395 . S
C282 C285 1.403 . S
C283 C280 1.403 . S
C283 C284 1.524 . S
C283 C287 1.400 . S
C284 H269 0.960 . S
C284 H270 0.960 . S
C284 H271 0.960 . S
C284 C283 1.524 . S
C285 C282 1.403 . S
C285 C286 1.392 . S
C285 C289 1.495 . S
C286 C285 1.392 . S
C286 C287 1.385 . S
C286 C288 1.478 . S
C287 H281 0.930 . S
C287 C283 1.400 . S
C287 C286 1.385 . S
C288 C286 1.478 . S
C288 C290 1.381 . S
C288 C294 1.383 . S
C289 C285 1.495 . S
C289 H295 0.959 . S
C289 H296 0.961 . S
C289 H297 0.960 . S
C290 C288 1.381 . S
C290 C291 1.394 . S
C290 H298 0.930 . S
C291 C290 1.394 . S
C291 C292 1.383 . S
C291 H299 0.929 . S
C292 C291 1.383 . S
C292 C293 1.377 . S
C293 H277 0.930 . S
C293 C292 1.377 . S
C293 C294 1.379 . S
C294 H278 0.931 . S
C294 C288 1.383 . S
C294 C293 1.379 . S
H295 C289 0.959 . S
H296 C289 0.961 . S
H297 C289 0.960 . S
H298 C290 0.930 . S
H299 C291 0.929 . S
H300 C308 0.929 . S
H301 C310 0.930 . S
H302 C312 0.930 . S
H303 C315 0.929 . S
H304 C318 0.930 . S
H305 C320 0.960 . S
H306 C320 0.960 . S
H307 C320 0.960 . S
C308 H300 0.929 . S
C308 C309 1.377 . S
C308 C310 1.384 . S
C309 C308 1.377 . S
C309 C315 1.390 . S
C310 H301 0.930 . S
C310 C308 1.384 . S
C310 C311 1.372 . S
C311 C310 1.372 . S
C311 C312 1.400 . S
C311 C316 1.490 . S
C312 H302 0.930 . S
C312 C311 1.400 . S
C312 C315 1.386 . S
H313 C329 0.930 . S
H314 C330 0.931 . S
C315 H303 0.929 . S
C315 C309 1.390 . S
C315 C312 1.386 . S
C316 C311 1.490 . S
C316 C318 1.395 . S
C316 C319 1.403 . S
H317 C323 0.930 . S
C318 H304 0.930 . S
C318 C316 1.395 . S
C318 C321 1.403 1_556 S
C319 C316 1.403 . S
C319 C320 1.524 . S
C319 C323 1.400 1_556 S
C320 H305 0.960 . S
C320 H306 0.960 . S
C320 H307 0.960 . S
C320 C319 1.524 . S
C321 C318 1.403 1_554 S
C321 C322 1.392 . S
C321 C325 1.495 . S
C322 C321 1.392 . S
C322 C323 1.385 . S
C322 C324 1.478 . S
C323 H317 0.930 . S
C323 C319 1.400 1_554 S
C323 C322 1.385 . S
C324 C322 1.478 . S
C324 C326 1.381 . S
C324 C330 1.383 . S
C325 C321 1.495 . S
C325 H331 0.959 . S
C325 H332 0.961 . S
C325 H333 0.960 . S
C326 C324 1.381 . S
C326 C327 1.394 . S
C326 H334 0.930 . S
C327 C326 1.394 . S
C327 C328 1.383 . S
C327 H335 0.929 . S
C328 C327 1.383 . S
C328 C329 1.377 . S
C329 H313 0.930 . S
C329 C328 1.377 . S
C329 C330 1.379 . S
C330 H314 0.931 . S
C330 C324 1.383 . S
C330 C329 1.379 . S
H331 C325 0.959 . S
H332 C325 0.961 . S
H333 C325 0.960 . S
H334 C326 0.930 . S
H335 C327 0.929 . S
H336 C344 0.929 . S
H337 C346 0.930 . S
H338 C348 0.930 . S
H339 C351 0.929 . S
H340 C354 0.930 . S
H341 C356 0.960 . S
H342 C356 0.960 . S
H343 C356 0.960 . S
C344 H336 0.929 . S
C344 C345 1.377 . S
C344 C346 1.384 . S
C345 C344 1.377 . S
C345 C351 1.390 . S
C346 H337 0.930 . S
C346 C344 1.384 . S
C346 C347 1.372 . S
C347 C346 1.372 . S
C347 C348 1.400 . S
C347 C352 1.490 . S
C348 H338 0.930 . S
C348 C347 1.400 . S
C348 C351 1.386 . S
H349 C365 0.930 . S
H350 C366 0.931 . S
C351 H339 0.929 . S
C351 C345 1.390 . S
C351 C348 1.386 . S
C352 C347 1.490 . S
C352 C354 1.395 . S
C352 C355 1.403 . S
H353 C359 0.930 . S
C354 H340 0.930 . S
C354 C352 1.395 . S
C354 C357 1.403 . S
C355 C352 1.403 . S
C355 C356 1.524 . S
C355 C359 1.400 . S
C356 H341 0.960 . S
C356 H342 0.960 . S
C356 H343 0.960 . S
C356 C355 1.524 . S
C357 C354 1.403 . S
C357 C358 1.392 . S
C357 C361 1.495 . S
C358 C357 1.392 . S
C358 C359 1.385 . S
C358 C360 1.478 . S
C359 H353 0.930 . S
C359 C355 1.400 . S
C359 C358 1.385 . S
C360 C358 1.478 . S
C360 C362 1.381 . S
C360 C366 1.383 . S
C361 C357 1.495 . S
C361 H367 0.959 . S
C361 H368 0.961 . S
C361 H369 0.960 . S
C362 C360 1.381 . S
C362 C363 1.394 . S
C362 H370 0.930 . S
C363 C362 1.394 . S
C363 C364 1.383 . S
C363 H371 0.929 . S
C364 C363 1.383 . S
C364 C365 1.377 . S
C365 H349 0.930 . S
C365 C364 1.377 . S
C365 C366 1.379 . S
C366 H350 0.931 . S
C366 C360 1.383 . S
C366 C365 1.379 . S
H367 C361 0.959 . S
H368 C361 0.961 . S
H369 C361 0.960 . S
H370 C362 0.930 . S
H371 C363 0.929 . S
H372 C380 0.929 . S
H373 C382 0.930 . S
H374 C384 0.930 . S
H375 C387 0.929 . S
H376 C390 0.930 . S
H377 C392 0.960 . S
H378 C392 0.960 . S
H379 C392 0.960 . S
C380 H372 0.929 . S
C380 C381 1.377 . S
C380 C382 1.384 . S
C381 C380 1.377 . S
C381 C387 1.390 . S
C382 H373 0.930 . S
C382 C380 1.384 . S
C382 C383 1.372 . S
C383 C382 1.372 . S
C383 C384 1.400 . S
C383 C388 1.490 . S
C384 H374 0.930 . S
C384 C383 1.400 . S
C384 C387 1.386 . S
H385 C401 0.930 . S
H386 C402 0.931 . S
C387 H375 0.929 . S
C387 C381 1.390 . S
C387 C384 1.386 . S
C388 C383 1.490 . S
C388 C390 1.395 . S
C388 C391 1.403 . S
H389 C395 0.930 . S
C390 H376 0.930 . S
C390 C388 1.395 . S
C390 C393 1.403 . S
C391 C388 1.403 . S
C391 C392 1.524 . S
C391 C395 1.400 . S
C392 H377 0.960 . S
C392 H378 0.960 . S
C392 H379 0.960 . S
C392 C391 1.524 . S
C393 C390 1.403 . S
C393 C394 1.392 . S
C393 C397 1.495 . S
C394 C393 1.392 . S
C394 C395 1.385 . S
C394 C396 1.478 . S
C395 H389 0.930 . S
C395 C391 1.400 . S
C395 C394 1.385 . S
C396 C394 1.478 . S
C396 C398 1.381 . S
C396 C402 1.383 . S
C397 C393 1.495 . S
C397 H403 0.959 . S
C397 H404 0.961 . S
C397 H405 0.960 . S
C398 C396 1.381 . S
C398 C399 1.394 . S
C398 H406 0.930 . S
C399 C398 1.394 . S
C399 C400 1.383 . S
C399 H407 0.929 . S
C400 C399 1.383 . S
C400 C401 1.377 . S
C401 H385 0.930 . S
C401 C400 1.377 . S
C401 C402 1.379 . S
C402 H386 0.931 . S
C402 C396 1.383 . S
C402 C401 1.379 . S
H403 C397 0.959 . S
H404 C397 0.961 . S
H405 C397 0.960 . S
H406 C398 0.930 . S
H407 C399 0.929 . S
H408 C416 0.929 . S
H409 C418 0.930 . S
H410 C420 0.930 . S
H411 C423 0.929 . S
H412 C426 0.930 . S
H413 C428 0.960 . S
H414 C428 0.960 . S
H415 C428 0.960 . S
C416 H408 0.929 . S
C416 C417 1.377 . S
C416 C418 1.384 . S
C417 C416 1.377 . S
C417 C423 1.390 . S
C418 H409 0.930 . S
C418 C416 1.384 . S
C418 C419 1.372 . S
C419 C418 1.372 . S
C419 C420 1.400 . S
C419 C424 1.490 . S
C420 H410 0.930 . S
C420 C419 1.400 . S
C420 C423 1.386 . S
H421 C437 0.930 . S
H422 C438 0.931 . S
C423 H411 0.929 . S
C423 C417 1.390 . S
C423 C420 1.386 . S
C424 C419 1.490 . S
C424 C426 1.395 . S
C424 C427 1.403 . S
H425 C431 0.930 . S
C426 H412 0.930 . S
C426 C424 1.395 . S
C426 C429 1.403 1_556 S
C427 C424 1.403 . S
C427 C428 1.524 . S
C427 C431 1.400 1_556 S
C428 H413 0.960 . S
C428 H414 0.960 . S
C428 H415 0.960 . S
C428 C427 1.524 . S
C429 C426 1.403 1_554 S
C429 C430 1.392 . S
C429 C433 1.495 . S
C430 C429 1.392 . S
C430 C431 1.385 . S
C430 C432 1.478 . S
C431 H425 0.930 . S
C431 C427 1.400 1_554 S
C431 C430 1.385 . S
C432 C430 1.478 . S
C432 C434 1.381 . S
C432 C438 1.383 . S
C433 C429 1.495 . S
C433 H439 0.959 . S
C433 H440 0.961 . S
C433 H441 0.960 . S
C434 C432 1.381 . S
C434 C435 1.394 . S
C434 H442 0.930 . S
C435 C434 1.394 . S
C435 C436 1.383 . S
C435 H443 0.929 . S
C436 C435 1.383 . S
C436 C437 1.377 . S
C437 H421 0.930 . S
C437 C436 1.377 . S
C437 C438 1.379 . S
C438 H422 0.931 . S
C438 C432 1.383 . S
C438 C437 1.379 . S
H439 C433 0.959 . S
H440 C433 0.961 . S
H441 C433 0.960 . S
H442 C434 0.930 . S
H443 C435 0.929 . S
H444 C452 0.929 . S
H445 C454 0.930 . S
H446 C456 0.930 . S
H447 C459 0.929 . S
H448 C462 0.930 . S
H449 C464 0.960 . S
H450 C464 0.960 . S
H451 C464 0.960 . S
C452 H444 0.929 . S
C452 C453 1.377 . S
C452 C454 1.384 . S
C453 C452 1.377 . S
C453 C459 1.390 . S
C454 H445 0.930 . S
C454 C452 1.384 . S
C454 C455 1.372 . S
C455 C454 1.372 . S
C455 C456 1.400 . S
C455 C460 1.490 . S
C456 H446 0.930 . S
C456 C455 1.400 . S
C456 C459 1.386 . S
H457 C473 0.930 . S
H458 C474 0.931 . S
C459 H447 0.929 . S
C459 C453 1.390 . S
C459 C456 1.386 . S
C460 C455 1.490 . S
C460 C462 1.395 . S
C460 C463 1.403 . S
H461 C467 0.930 . S
C462 H448 0.930 . S
C462 C460 1.395 . S
C462 C465 1.403 . S
C463 C460 1.403 . S
C463 C464 1.524 . S
C463 C467 1.400 . S
C464 H449 0.960 . S
C464 H450 0.960 . S
C464 H451 0.960 . S
C464 C463 1.524 . S
C465 C462 1.403 . S
C465 C466 1.392 . S
C465 C469 1.495 . S
C466 C465 1.392 . S
C466 C467 1.385 . S
C466 C468 1.478 . S
C467 H461 0.930 . S
C467 C463 1.400 . S
C467 C466 1.385 . S
C468 C466 1.478 . S
C468 C470 1.381 . S
C468 C474 1.383 . S
C469 C465 1.495 . S
C469 H475 0.959 . S
C469 H476 0.961 . S
C469 H477 0.960 . S
C470 C468 1.381 . S
C470 C471 1.394 . S
C470 H478 0.930 . S
C471 C470 1.394 . S
C471 C472 1.383 . S
C471 H479 0.929 . S
C472 C471 1.383 . S
C472 C473 1.377 . S
C473 H457 0.930 . S
C473 C472 1.377 . S
C473 C474 1.379 . S
C474 H458 0.931 . S
C474 C468 1.383 . S
C474 C473 1.379 . S
H475 C469 0.959 . S
H476 C469 0.961 . S
H477 C469 0.960 . S
H478 C470 0.930 . S
H479 C471 0.929 . S
H480 C488 0.929 . S
H481 C490 0.930 . S
H482 C492 0.930 . S
H483 C495 0.929 . S
H484 C498 0.930 . S
H485 C500 0.960 . S
H486 C500 0.960 . S
H487 C500 0.960 . S
C488 H480 0.929 . S
C488 C489 1.377 . S
C488 C490 1.384 . S
C489 C488 1.377 . S
C489 C495 1.390 . S
C490 H481 0.930 . S
C490 C488 1.384 . S
C490 C491 1.372 . S
C491 C490 1.372 . S
C491 C492 1.400 . S
C491 C496 1.490 . S
C492 H482 0.930 . S
C492 C491 1.400 . S
C492 C495 1.386 . S
H493 C509 0.930 . S
H494 C510 0.931 . S
C495 H483 0.929 . S
C495 C489 1.390 . S
C495 C492 1.386 . S
C496 C491 1.490 . S
C496 C498 1.395 . S
C496 C499 1.403 . S
H497 C503 0.930 . S
C498 H484 0.930 . S
C498 C496 1.395 . S
C498 C501 1.403 . S
C499 C496 1.403 . S
C499 C500 1.524 . S
C499 C503 1.400 . S
C500 H485 0.960 . S
C500 H486 0.960 . S
C500 H487 0.960 . S
C500 C499 1.524 . S
C501 C498 1.403 . S
C501 C502 1.392 . S
C501 C505 1.495 . S
C502 C501 1.392 . S
C502 C503 1.385 . S
C502 C504 1.478 . S
C503 H497 0.930 . S
C503 C499 1.400 . S
C503 C502 1.385 . S
C504 C502 1.478 . S
C504 C506 1.381 . S
C504 C510 1.383 . S
C505 C501 1.495 . S
C505 H511 0.959 . S
C505 H512 0.961 . S
C505 H513 0.960 . S
C506 C504 1.381 . S
C506 C507 1.394 . S
C506 H514 0.930 . S
C507 C506 1.394 . S
C507 C508 1.383 . S
C507 H515 0.929 . S
C508 C507 1.383 . S
C508 C509 1.377 . S
C509 H493 0.930 . S
C509 C508 1.377 . S
C509 C510 1.379 . S
C510 H494 0.931 . S
C510 C504 1.383 . S
C510 C509 1.379 . S
H511 C505 0.959 . S
H512 C505 0.961 . S
H513 C505 0.960 . S
H514 C506 0.930 . S
H515 C507 0.929 . S
C93 C8 1.388 . S
C112 C50 1.386 . S
C129 C22 1.387 . S
C148 C64 1.382 . S
C165 C36 1.388 . S
C184 C78 1.386 . S
C201 C23 1.466 . S
C220 C65 1.481 . S
C237 C79 1.467 . S
C256 C37 1.446 . S
C273 C51 1.466 . S
C292 C9 1.446 . S
C309 C31 1.108 . S
C328 C7 1.114 . S
C345 C45 1.098 . S
C364 C21 1.116 . S
C381 C35 1.120 . S
C400 C59 1.069 . S
C417 C73 1.101 . S
C436 C49 1.098 . S
C453 C63 1.124 . S
C472 C3 1.083 . S
C489 C77 1.125 . S
C508 C17 1.135 . S
