# Generated by pormake.
# Topology umq, (4)-cn, num edge types: 1
# Building blocks:
#     Node 0, Type 0, BuildingBlock: QUQFOY_clean_sbu_1, # of connection points: 4
#     Node 1, Type 0, BuildingBlock: QUQFOY_clean_sbu_1, # of connection points: 4
#     Node 2, Type 0, BuildingBlock: QUQFOY_clean_sbu_1, # of connection points: 4
#     Node 3, Type 0, BuildingBlock: QUQFOY_clean_sbu_1, # of connection points: 4
#     Node 4, Type 0, BuildingBlock: QUQFOY_clean_sbu_1, # of connection points: 4
#     Node 5, Type 0, BuildingBlock: QUQFOY_clean_sbu_1, # of connection points: 4
#     Node 6, Type 0, BuildingBlock: QUQFOY_clean_sbu_1, # of connection points: 4
#     Node 7, Type 0, BuildingBlock: QUQFOY_clean_sbu_1, # of connection points: 4
#     Node 8, Type 0, BuildingBlock: QUQFOY_clean_sbu_1, # of connection points: 4
#     Node 9, Type 0, BuildingBlock: QUQFOY_clean_sbu_1, # of connection points: 4
#     Node 10, Type 0, BuildingBlock: QUQFOY_clean_sbu_1, # of connection points: 4
#     Node 11, Type 0, BuildingBlock: QUQFOY_clean_sbu_1, # of connection points: 4
#     Node 12, Type 0, BuildingBlock: QUQFOY_clean_sbu_1, # of connection points: 4
#     Node 13, Type 0, BuildingBlock: QUQFOY_clean_sbu_1, # of connection points: 4
#     Node 14, Type 0, BuildingBlock: QUQFOY_clean_sbu_1, # of connection points: 4
#     Node 15, Type 0, BuildingBlock: QUQFOY_clean_sbu_1, # of connection points: 4
#     Node 16, Type 0, BuildingBlock: QUQFOY_clean_sbu_1, # of connection points: 4
#     Node 17, Type 0, BuildingBlock: QUQFOY_clean_sbu_1, # of connection points: 4
#     Node 18, Type 0, BuildingBlock: QUQFOY_clean_sbu_1, # of connection points: 4
#     Node 19, Type 0, BuildingBlock: QUQFOY_clean_sbu_1, # of connection points: 4
#     Node 20, Type 0, BuildingBlock: QUQFOY_clean_sbu_1, # of connection points: 4
#     Node 21, Type 0, BuildingBlock: QUQFOY_clean_sbu_1, # of connection points: 4
#     Node 22, Type 0, BuildingBlock: QUQFOY_clean_sbu_1, # of connection points: 4
#     Node 23, Type 0, BuildingBlock: QUQFOY_clean_sbu_1, # of connection points: 4
#     Node 24, Type 0, BuildingBlock: QUQFOY_clean_sbu_1, # of connection points: 4
#     Node 25, Type 0, BuildingBlock: QUQFOY_clean_sbu_1, # of connection points: 4
#     Node 26, Type 0, BuildingBlock: QUQFOY_clean_sbu_1, # of connection points: 4
#     Node 27, Type 0, BuildingBlock: QUQFOY_clean_sbu_1, # of connection points: 4
#     Node 28, Type 0, BuildingBlock: QUQFOY_clean_sbu_1, # of connection points: 4
#     Node 29, Type 0, BuildingBlock: QUQFOY_clean_sbu_1, # of connection points: 4
#     Node 30, Type 0, BuildingBlock: QUQFOY_clean_sbu_1, # of connection points: 4
#     Node 31, Type 0, BuildingBlock: QUQFOY_clean_sbu_1, # of connection points: 4
#     Edge 32, Type (0, 0), BuildingBlock: AJUNOK_clean_linker_0, # of connection points: 2
#     Edge 33, Type (0, 0), BuildingBlock: AJUNOK_clean_linker_0, # of connection points: 2
#     Edge 34, Type (0, 0), BuildingBlock: AJUNOK_clean_linker_0, # of connection points: 2
#     Edge 35, Type (0, 0), BuildingBlock: AJUNOK_clean_linker_0, # of connection points: 2
#     Edge 36, Type (0, 0), BuildingBlock: AJUNOK_clean_linker_0, # of connection points: 2
#     Edge 37, Type (0, 0), BuildingBlock: AJUNOK_clean_linker_0, # of connection points: 2
#     Edge 38, Type (0, 0), BuildingBlock: AJUNOK_clean_linker_0, # of connection points: 2
#     Edge 39, Type (0, 0), BuildingBlock: AJUNOK_clean_linker_0, # of connection points: 2
#     Edge 40, Type (0, 0), BuildingBlock: AJUNOK_clean_linker_0, # of connection points: 2
#     Edge 41, Type (0, 0), BuildingBlock: AJUNOK_clean_linker_0, # of connection points: 2
#     Edge 42, Type (0, 0), BuildingBlock: AJUNOK_clean_linker_0, # of connection points: 2
#     Edge 43, Type (0, 0), BuildingBlock: AJUNOK_clean_linker_0, # of connection points: 2
#     Edge 44, Type (0, 0), BuildingBlock: AJUNOK_clean_linker_0, # of connection points: 2
#     Edge 45, Type (0, 0), BuildingBlock: AJUNOK_clean_linker_0, # of connection points: 2
#     Edge 46, Type (0, 0), BuildingBlock: AJUNOK_clean_linker_0, # of connection points: 2
#     Edge 47, Type (0, 0), BuildingBlock: AJUNOK_clean_linker_0, # of connection points: 2
#     Edge 48, Type (0, 0), BuildingBlock: AJUNOK_clean_linker_0, # of connection points: 2
#     Edge 49, Type (0, 0), BuildingBlock: AJUNOK_clean_linker_0, # of connection points: 2
#     Edge 50, Type (0, 0), BuildingBlock: AJUNOK_clean_linker_0, # of connection points: 2
#     Edge 51, Type (0, 0), BuildingBlock: AJUNOK_clean_linker_0, # of connection points: 2
#     Edge 52, Type (0, 0), BuildingBlock: AJUNOK_clean_linker_0, # of connection points: 2
#     Edge 53, Type (0, 0), BuildingBlock: AJUNOK_clean_linker_0, # of connection points: 2
#     Edge 54, Type (0, 0), BuildingBlock: AJUNOK_clean_linker_0, # of connection points: 2
#     Edge 55, Type (0, 0), BuildingBlock: AJUNOK_clean_linker_0, # of connection points: 2
#     Edge 56, Type (0, 0), BuildingBlock: AJUNOK_clean_linker_0, # of connection points: 2
#     Edge 57, Type (0, 0), BuildingBlock: AJUNOK_clean_linker_0, # of connection points: 2
#     Edge 58, Type (0, 0), BuildingBlock: AJUNOK_clean_linker_0, # of connection points: 2
#     Edge 59, Type (0, 0), BuildingBlock: AJUNOK_clean_linker_0, # of connection points: 2
#     Edge 60, Type (0, 0), BuildingBlock: AJUNOK_clean_linker_0, # of connection points: 2
#     Edge 61, Type (0, 0), BuildingBlock: AJUNOK_clean_linker_0, # of connection points: 2
#     Edge 62, Type (0, 0), BuildingBlock: AJUNOK_clean_linker_0, # of connection points: 2
#     Edge 63, Type (0, 0), BuildingBlock: AJUNOK_clean_linker_0, # of connection points: 2
#     Edge 64, Type (0, 0), BuildingBlock: AJUNOK_clean_linker_0, # of connection points: 2
#     Edge 65, Type (0, 0), BuildingBlock: AJUNOK_clean_linker_0, # of connection points: 2
#     Edge 66, Type (0, 0), BuildingBlock: AJUNOK_clean_linker_0, # of connection points: 2
#     Edge 67, Type (0, 0), BuildingBlock: AJUNOK_clean_linker_0, # of connection points: 2
#     Edge 68, Type (0, 0), BuildingBlock: AJUNOK_clean_linker_0, # of connection points: 2
#     Edge 69, Type (0, 0), BuildingBlock: AJUNOK_clean_linker_0, # of connection points: 2
#     Edge 70, Type (0, 0), BuildingBlock: AJUNOK_clean_linker_0, # of connection points: 2
#     Edge 71, Type (0, 0), BuildingBlock: AJUNOK_clean_linker_0, # of connection points: 2
#     Edge 72, Type (0, 0), BuildingBlock: AJUNOK_clean_linker_0, # of connection points: 2
#     Edge 73, Type (0, 0), BuildingBlock: AJUNOK_clean_linker_0, # of connection points: 2
#     Edge 74, Type (0, 0), BuildingBlock: AJUNOK_clean_linker_0, # of connection points: 2
#     Edge 75, Type (0, 0), BuildingBlock: AJUNOK_clean_linker_0, # of connection points: 2
#     Edge 76, Type (0, 0), BuildingBlock: AJUNOK_clean_linker_0, # of connection points: 2
#     Edge 77, Type (0, 0), BuildingBlock: AJUNOK_clean_linker_0, # of connection points: 2
#     Edge 78, Type (0, 0), BuildingBlock: AJUNOK_clean_linker_0, # of connection points: 2
#     Edge 79, Type (0, 0), BuildingBlock: AJUNOK_clean_linker_0, # of connection points: 2
#     Edge 80, Type (0, 0), BuildingBlock: AJUNOK_clean_linker_0, # of connection points: 2
#     Edge 81, Type (0, 0), BuildingBlock: AJUNOK_clean_linker_0, # of connection points: 2
#     Edge 82, Type (0, 0), BuildingBlock: AJUNOK_clean_linker_0, # of connection points: 2
#     Edge 83, Type (0, 0), BuildingBlock: AJUNOK_clean_linker_0, # of connection points: 2
#     Edge 84, Type (0, 0), BuildingBlock: AJUNOK_clean_linker_0, # of connection points: 2
#     Edge 85, Type (0, 0), BuildingBlock: AJUNOK_clean_linker_0, # of connection points: 2
#     Edge 86, Type (0, 0), BuildingBlock: AJUNOK_clean_linker_0, # of connection points: 2
#     Edge 87, Type (0, 0), BuildingBlock: AJUNOK_clean_linker_0, # of connection points: 2
#     Edge 88, Type (0, 0), BuildingBlock: AJUNOK_clean_linker_0, # of connection points: 2
#     Edge 89, Type (0, 0), BuildingBlock: AJUNOK_clean_linker_0, # of connection points: 2
#     Edge 90, Type (0, 0), BuildingBlock: AJUNOK_clean_linker_0, # of connection points: 2
#     Edge 91, Type (0, 0), BuildingBlock: AJUNOK_clean_linker_0, # of connection points: 2
#     Edge 92, Type (0, 0), BuildingBlock: AJUNOK_clean_linker_0, # of connection points: 2
#     Edge 93, Type (0, 0), BuildingBlock: AJUNOK_clean_linker_0, # of connection points: 2
#     Edge 94, Type (0, 0), BuildingBlock: AJUNOK_clean_linker_0, # of connection points: 2
#     Edge 95, Type (0, 0), BuildingBlock: AJUNOK_clean_linker_0, # of connection points: 2
# Relax obj value: 0.031
# Max RMSD: 0.084
# Mean RMSD: 0.084
data_MOF--net-umq--node1-QUQFOY_clean_sbu_1--edge1-AJUNOK_clean_linker_0
_symmetry_space_group_name_H-M    P1
_symmetry_Int_Tables_number       1
_symmetry_cell_setting            triclinic
loop_
_symmetry_equiv_pos_as_xyz
'x, y, z'
_cell_length_a     49.638515
_cell_length_b     49.656993
_cell_length_c     37.956355
_cell_angle_alpha  89.996826
_cell_angle_beta   90.005103
_cell_angle_gamma 89.998536
loop_
_atom_site_label
_atom_site_type_symbol
_atom_site_fract_x
_atom_site_fract_y
_atom_site_fract_z
_atom_type_partial_charge
O0 O 0.2094 0.11149 0.23276 0.0
Cd1 Cd 0.24183 0.09171 0.21141 0.0
Cd2 Cd 0.2192 0.116 0.14923 0.0
O3 O 0.18887 0.12549 0.18463 0.0
O4 O 0.25422 0.07002 0.25244 0.0
O5 O 0.23979 0.05177 0.20285 0.0
C6 C 0.24838 0.04871 0.23474 0.0
C7 C 0.20777 0.10811 0.08984 0.0
C8 C 0.18967 0.1232 0.21799 0.0
C9 C 0.27538 0.13277 0.17437 0.0
O10 O 0.25521 0.13654 0.1543 0.0
O11 O 0.27475 0.11456 0.19784 0.0
O12 O 0.20527 0.13143 0.10423 0.0
O13 O 0.21577 0.08858 0.10969 0.0
O14 O 0.88011 0.21104 0.2329 0.0
Cd15 Cd 0.89897 0.24328 0.20983 0.0
Cd16 Cd 0.87479 0.21905 0.14888 0.0
O17 O 0.86602 0.18942 0.18562 0.0
O18 O 0.92235 0.25648 0.24874 0.0
O19 O 0.93838 0.24095 0.19835 0.0
C20 C 0.94284 0.25031 0.22958 0.0
C21 C 0.88187 0.20606 0.08993 0.0
C22 C 0.86872 0.19082 0.21891 0.0
C23 C 0.85753 0.27563 0.17193 0.0
O24 O 0.85408 0.25503 0.15258 0.0
O25 O 0.87552 0.27567 0.19573 0.0
O26 O 0.85879 0.2038 0.105 0.0
O27 O 0.90163 0.21491 0.10878 0.0
O28 O 0.78266 0.87963 0.23039 0.0
Cd29 Cd 0.75015 0.89907 0.20869 0.0
Cd30 Cd 0.77311 0.87522 0.14622 0.0
O31 O 0.80302 0.86555 0.18217 0.0
O32 O 0.73779 0.92219 0.24838 0.0
O33 O 0.75242 0.93859 0.19773 0.0
C34 C 0.7436 0.94282 0.22928 0.0
C35 C 0.78587 0.88207 0.08708 0.0
C36 C 0.80232 0.86788 0.21553 0.0
C37 C 0.71668 0.85841 0.17076 0.0
O38 O 0.7368 0.85512 0.1505 0.0
O39 O 0.71737 0.87595 0.19512 0.0
O40 O 0.78764 0.85893 0.10209 0.0
O41 O 0.77754 0.90198 0.10603 0.0
O42 O 0.11124 0.781 0.23158 0.0
Cd43 Cd 0.09252 0.74825 0.20957 0.0
Cd44 Cd 0.11608 0.77254 0.14811 0.0
O45 O 0.1247 0.80274 0.18408 0.0
O46 O 0.07105 0.73497 0.25028 0.0
O47 O 0.05257 0.74952 0.20088 0.0
C48 C 0.04965 0.74066 0.23266 0.0
C49 C 0.10751 0.78412 0.08899 0.0
C50 C 0.12223 0.80135 0.2174 0.0
C51 C 0.13445 0.71647 0.17167 0.0
O52 O 0.13764 0.7371 0.15229 0.0
O53 O 0.11631 0.71615 0.19528 0.0
O54 O 0.13081 0.78736 0.10322 0.0
O55 O 0.08833 0.77537 0.10892 0.0
O56 O 0.20863 0.87868 0.29371 0.0
Cd57 Cd 0.24111 0.89767 0.31608 0.0
Cd58 Cd 0.21738 0.87433 0.37741 0.0
O59 O 0.18719 0.86545 0.34153 0.0
O60 O 0.25396 0.921 0.27692 0.0
O61 O 0.23897 0.93708 0.32757 0.0
C62 C 0.24807 0.94151 0.2962 0.0
C63 C 0.20585 0.88248 0.43666 0.0
C64 C 0.18843 0.86756 0.30816 0.0
C65 C 0.27351 0.85624 0.35367 0.0
O66 O 0.253 0.85304 0.37324 0.0
O67 O 0.27358 0.87421 0.32985 0.0
O68 O 0.20278 0.85925 0.42222 0.0
O69 O 0.21435 0.90184 0.41687 0.0
O70 O 0.11193 0.21034 0.29332 0.0
Cd71 Cd 0.09275 0.24299 0.31488 0.0
Cd72 Cd 0.1168 0.21927 0.37704 0.0
O73 O 0.126 0.18924 0.34103 0.0
O74 O 0.07131 0.25582 0.27389 0.0
O75 O 0.05279 0.24141 0.32333 0.0
C76 C 0.04991 0.2501 0.29147 0.0
C77 C 0.10903 0.20738 0.43628 0.0
C78 C 0.12337 0.19032 0.30771 0.0
C79 C 0.13388 0.27573 0.35301 0.0
O80 O 0.13731 0.25533 0.37273 0.0
O81 O 0.11603 0.27549 0.32903 0.0
O82 O 0.13231 0.2049 0.42174 0.0
O83 O 0.08945 0.21555 0.41661 0.0
O84 O 0.78284 0.11232 0.29427 0.0
Cd85 Cd 0.75037 0.09257 0.31552 0.0
Cd86 Cd 0.7738 0.116 0.37823 0.0
O87 O 0.80385 0.1255 0.34245 0.0
O88 O 0.73767 0.07111 0.27443 0.0
O89 O 0.75234 0.05258 0.32372 0.0
C90 C 0.74359 0.04969 0.29188 0.0
C91 C 0.78612 0.10878 0.43746 0.0
C92 C 0.80278 0.12365 0.30905 0.0
C93 C 0.71746 0.13335 0.35401 0.0
O94 O 0.73781 0.13661 0.37387 0.0
O95 O 0.71772 0.11561 0.3299 0.0
O96 O 0.78834 0.13193 0.42258 0.0
O97 O 0.77766 0.08904 0.4183 0.0
O98 O 0.88004 0.78072 0.29126 0.0
Cd99 Cd 0.89874 0.74829 0.31417 0.0
Cd100 Cd 0.87531 0.77258 0.37493 0.0
O101 O 0.86643 0.80249 0.33865 0.0
O102 O 0.92199 0.73496 0.27519 0.0
O103 O 0.93818 0.75026 0.32562 0.0
C104 C 0.94255 0.7409 0.29437 0.0
C105 C 0.88406 0.78459 0.43385 0.0
C106 C 0.86888 0.80103 0.30533 0.0
C107 C 0.857 0.71639 0.35203 0.0
O108 O 0.85384 0.73703 0.37137 0.0
O109 O 0.87502 0.7161 0.32826 0.0
O110 O 0.8607 0.78766 0.41971 0.0
O111 O 0.90319 0.77577 0.41392 0.0
O112 O 0.78174 0.87915 0.79192 0.0
Cd113 Cd 0.74942 0.89778 0.81517 0.0
Cd114 Cd 0.77401 0.87375 0.87575 0.0
O115 O 0.80372 0.86524 0.839 0.0
O116 O 0.73604 0.92114 0.77633 0.0
O117 O 0.75152 0.93718 0.82675 0.0
C118 C 0.74212 0.94163 0.79554 0.0
C119 C 0.7867 0.8814 0.9347 0.0
C120 C 0.80212 0.86792 0.80572 0.0
C121 C 0.71757 0.85592 0.85293 0.0
O122 O 0.73831 0.85256 0.87207 0.0
O123 O 0.71723 0.87407 0.82935 0.0
O124 O 0.78938 0.85827 0.91988 0.0
O125 O 0.77765 0.9009 0.91556 0.0
O126 O 0.11097 0.78055 0.79397 0.0
Cd127 Cd 0.09165 0.74825 0.81625 0.0
Cd128 Cd 0.11616 0.77211 0.87721 0.0
O129 O 0.1249 0.80224 0.84124 0.0
O130 O 0.07044 0.73508 0.77522 0.0
O131 O 0.0516 0.75005 0.82414 0.0
C132 C 0.04892 0.74111 0.79236 0.0
C133 C 0.10762 0.78375 0.9363 0.0
C134 C 0.12231 0.80079 0.80795 0.0
C135 C 0.1335 0.71583 0.85355 0.0
O136 O 0.13742 0.73648 0.8727 0.0
O137 O 0.11484 0.71575 0.83066 0.0
O138 O 0.13097 0.78678 0.92213 0.0
O139 O 0.08841 0.77511 0.91636 0.0
O140 O 0.20976 0.11151 0.79424 0.0
Cd141 Cd 0.24202 0.0918 0.81609 0.0
Cd142 Cd 0.21898 0.11629 0.87765 0.0
O143 O 0.1887 0.12541 0.842 0.0
O144 O 0.25467 0.07016 0.77518 0.0
O145 O 0.23984 0.05185 0.82452 0.0
C146 C 0.24861 0.04884 0.79271 0.0
C147 C 0.20757 0.10824 0.93699 0.0
C148 C 0.18981 0.12307 0.80865 0.0
C149 C 0.27525 0.1331 0.85307 0.0
O150 O 0.25487 0.13707 0.8727 0.0
O151 O 0.27488 0.11463 0.82995 0.0
O152 O 0.20484 0.13155 0.92263 0.0
O153 O 0.21575 0.0888 0.91711 0.0
O154 O 0.88045 0.20859 0.79508 0.0
Cd155 Cd 0.89946 0.24088 0.81785 0.0
Cd156 Cd 0.8738 0.21792 0.87843 0.0
O157 O 0.86494 0.18793 0.8423 0.0
O158 O 0.92246 0.25366 0.7783 0.0
O159 O 0.93905 0.23881 0.82869 0.0
C160 C 0.94317 0.24784 0.79723 0.0
C161 C 0.88121 0.20565 0.93756 0.0
C162 C 0.86831 0.18883 0.80909 0.0
C163 C 0.85756 0.27423 0.85374 0.0
O164 O 0.85332 0.25397 0.87347 0.0
O165 O 0.87622 0.27365 0.83086 0.0
O166 O 0.858 0.20335 0.92281 0.0
O167 O 0.90088 0.21422 0.91832 0.0
O168 O 0.78193 0.11116 0.73279 0.0
Cd169 Cd 0.74946 0.09177 0.71096 0.0
Cd170 Cd 0.77274 0.11619 0.64898 0.0
O171 O 0.80278 0.12525 0.68495 0.0
O172 O 0.73656 0.07017 0.7518 0.0
O173 O 0.75118 0.05183 0.70237 0.0
C174 C 0.74234 0.04882 0.73415 0.0
C175 C 0.78527 0.10897 0.58985 0.0
C176 C 0.80181 0.12278 0.71828 0.0
C177 C 0.71646 0.13318 0.6735 0.0
O178 O 0.73675 0.13686 0.65362 0.0
O179 O 0.71686 0.11497 0.69698 0.0
O180 O 0.78745 0.13212 0.60474 0.0
O181 O 0.77662 0.08925 0.60892 0.0
O182 O 0.87997 0.78204 0.72931 0.0
Cd183 Cd 0.89908 0.74948 0.70732 0.0
Cd184 Cd 0.87577 0.77296 0.64557 0.0
O185 O 0.8664 0.80306 0.68134 0.0
O186 O 0.92175 0.73656 0.74712 0.0
O187 O 0.9387 0.75125 0.69682 0.0
C188 C 0.9426 0.74219 0.72833 0.0
C189 C 0.88427 0.78475 0.58649 0.0
C190 C 0.86857 0.80202 0.71471 0.0
C191 C 0.85784 0.71686 0.66942 0.0
O192 O 0.85469 0.73721 0.64953 0.0
O193 O 0.87563 0.71705 0.69347 0.0
O194 O 0.86089 0.78756 0.60065 0.0
O195 O 0.90355 0.77629 0.60645 0.0
O196 O 0.20839 0.87899 0.73205 0.0
Cd197 Cd 0.24095 0.89816 0.7101 0.0
Cd198 Cd 0.21863 0.87356 0.64864 0.0
O199 O 0.18831 0.86413 0.68406 0.0
O200 O 0.25328 0.92128 0.74977 0.0
O201 O 0.239 0.93766 0.69894 0.0
C202 C 0.24774 0.9419 0.73053 0.0
C203 C 0.20705 0.88183 0.58942 0.0
C204 C 0.18883 0.86695 0.71736 0.0
C205 C 0.27466 0.85674 0.674 0.0
O206 O 0.25466 0.85299 0.65364 0.0
O207 O 0.27382 0.87494 0.69747 0.0
O208 O 0.20458 0.85842 0.60356 0.0
O209 O 0.21519 0.90122 0.60942 0.0
O210 O 0.11174 0.20899 0.73157 0.0
Cd211 Cd 0.09238 0.24141 0.70967 0.0
Cd212 Cd 0.11762 0.21823 0.64842 0.0
O213 O 0.1266 0.18801 0.68422 0.0
O214 O 0.07115 0.25414 0.7509 0.0
O215 O 0.05233 0.23966 0.70172 0.0
C216 C 0.04964 0.24831 0.73362 0.0
C217 C 0.10952 0.20686 0.58911 0.0
C218 C 0.12356 0.18908 0.71748 0.0
C219 C 0.13408 0.27455 0.67307 0.0
O220 O 0.13824 0.25418 0.65351 0.0
O221 O 0.11544 0.27416 0.69597 0.0
O222 O 0.13286 0.20414 0.60342 0.0
O223 O 0.09008 0.21501 0.60904 0.0
O224 O 0.71059 0.61171 0.73095 0.0
Cd225 Cd 0.74301 0.59279 0.70834 0.0
Cd226 Cd 0.71894 0.61604 0.64704 0.0
O227 O 0.68901 0.625 0.68327 0.0
O228 O 0.75622 0.56981 0.74763 0.0
O229 O 0.74101 0.5533 0.69733 0.0
C230 C 0.75031 0.54914 0.72866 0.0
C231 C 0.70678 0.60768 0.58805 0.0
C232 C 0.69035 0.62285 0.71663 0.0
C233 C 0.77522 0.63413 0.67017 0.0
O234 O 0.75465 0.63727 0.65064 0.0
O235 O 0.77531 0.6163 0.69415 0.0
O236 O 0.70394 0.63098 0.60237 0.0
O237 O 0.71547 0.58839 0.60781 0.0
O238 O 0.38031 0.70849 0.73241 0.0
Cd239 Cd 0.39951 0.74096 0.71031 0.0
Cd240 Cd 0.37517 0.71844 0.64904 0.0
O241 O 0.36585 0.68809 0.68444 0.0
O242 O 0.42278 0.7534 0.74979 0.0
O243 O 0.43899 0.73887 0.69901 0.0
C244 C 0.44335 0.7477 0.73052 0.0
C245 C 0.38352 0.70697 0.58982 0.0
C246 C 0.36846 0.6888 0.71777 0.0
C247 C 0.35793 0.77436 0.67413 0.0
O248 O 0.35428 0.75426 0.65394 0.0
O249 O 0.37622 0.77376 0.69751 0.0
O250 O 0.36013 0.70427 0.60398 0.0
O251 O 0.40287 0.71523 0.60982 0.0
O252 O 0.28282 0.37891 0.732 0.0
Cd253 Cd 0.25032 0.3985 0.71057 0.0
Cd254 Cd 0.27323 0.37384 0.64827 0.0
O255 O 0.30336 0.36458 0.68406 0.0
O256 O 0.23767 0.41975 0.75185 0.0
O257 O 0.25204 0.43853 0.70259 0.0
C258 C 0.24339 0.44125 0.73449 0.0
C259 C 0.28546 0.381 0.589 0.0
C260 C 0.30255 0.36712 0.71739 0.0
C261 C 0.21691 0.35732 0.67326 0.0
O262 O 0.23709 0.35349 0.65323 0.0
O263 O 0.21755 0.37552 0.69674 0.0
O264 O 0.28756 0.35783 0.60385 0.0
O265 O 0.27711 0.40077 0.60819 0.0
O266 O 0.61269 0.28291 0.73083 0.0
Cd267 Cd 0.5931 0.25029 0.70974 0.0
Cd268 Cd 0.61773 0.27272 0.64741 0.0
O269 O 0.62719 0.3031 0.68272 0.0
O270 O 0.57196 0.23784 0.75122 0.0
O271 O 0.55303 0.25187 0.70188 0.0
C272 C 0.5504 0.24337 0.73386 0.0
C273 C 0.60969 0.28414 0.58808 0.0
C274 C 0.62458 0.30251 0.71604 0.0
C275 C 0.63424 0.21658 0.6728 0.0
O276 O 0.63814 0.23663 0.6526 0.0
O277 O 0.61603 0.21741 0.69626 0.0
O278 O 0.63307 0.28657 0.60235 0.0
O279 O 0.59019 0.27616 0.60802 0.0
O280 O 0.71086 0.38054 0.79271 0.0
Cd281 Cd 0.7432 0.39972 0.8151 0.0
Cd282 Cd 0.71925 0.37522 0.87607 0.0
O283 O 0.6892 0.36646 0.83994 0.0
O284 O 0.75647 0.42103 0.77423 0.0
O285 O 0.74156 0.43971 0.82329 0.0
C286 C 0.75055 0.44249 0.79156 0.0
C287 C 0.70747 0.38367 0.93515 0.0
C288 C 0.69064 0.36914 0.80665 0.0
C289 C 0.77555 0.35784 0.85242 0.0
O290 O 0.75493 0.35402 0.87166 0.0
O291 O 0.77562 0.37642 0.82942 0.0
O292 O 0.70453 0.36034 0.92093 0.0
O293 O 0.71608 0.40292 0.91526 0.0
O294 O 0.61246 0.7085 0.79381 0.0
Cd295 Cd 0.59329 0.74097 0.81585 0.0
Cd296 Cd 0.61721 0.71692 0.87713 0.0
O297 O 0.62615 0.68678 0.84121 0.0
O298 O 0.57175 0.75402 0.77506 0.0
O299 O 0.55334 0.73922 0.82437 0.0
C300 C 0.55038 0.74807 0.79259 0.0
C301 C 0.60848 0.70561 0.93628 0.0
C302 C 0.62368 0.68824 0.80789 0.0
C303 C 0.63492 0.77319 0.85365 0.0
O304 O 0.63845 0.75254 0.87288 0.0
O305 O 0.61666 0.77337 0.83019 0.0
O306 O 0.63185 0.70242 0.92223 0.0
O307 O 0.58932 0.71408 0.91612 0.0
O308 O 0.28206 0.61069 0.79463 0.0
Cd309 Cd 0.2499 0.59169 0.81777 0.0
Cd310 Cd 0.27335 0.61706 0.8781 0.0
O311 O 0.30321 0.62577 0.84171 0.0
O312 O 0.23694 0.56851 0.77849 0.0
O313 O 0.25219 0.55217 0.82884 0.0
C314 C 0.243 0.54791 0.79748 0.0
C315 C 0.28599 0.60956 0.93708 0.0
C316 C 0.30203 0.62259 0.80849 0.0
C317 C 0.21691 0.6336 0.85411 0.0
O318 O 0.23737 0.63775 0.87354 0.0
O319 O 0.21722 0.61494 0.83123 0.0
O320 O 0.28832 0.63275 0.92233 0.0
O321 O 0.27714 0.58996 0.91794 0.0
O322 O 0.38086 0.28113 0.7945 0.0
Cd323 Cd 0.39999 0.24899 0.81746 0.0
Cd324 Cd 0.37471 0.27222 0.87766 0.0
O325 O 0.36592 0.30232 0.84163 0.0
O326 O 0.42319 0.23628 0.77809 0.0
O327 O 0.43951 0.25139 0.82852 0.0
C328 C 0.44379 0.24236 0.7971 0.0
C329 C 0.3828 0.28374 0.93691 0.0
C330 C 0.36901 0.30111 0.80838 0.0
C331 C 0.35805 0.21592 0.85335 0.0
O332 O 0.35388 0.23637 0.87277 0.0
O333 O 0.37683 0.2162 0.83063 0.0
O334 O 0.3595 0.28657 0.92252 0.0
O335 O 0.40222 0.2754 0.91709 0.0
O336 O 0.28209 0.37919 0.29301 0.0
Cd337 Cd 0.2496 0.3989 0.31425 0.0
Cd338 Cd 0.27303 0.3753 0.3772 0.0
O339 O 0.30298 0.36584 0.34121 0.0
O340 O 0.237 0.42059 0.27332 0.0
O341 O 0.25165 0.43882 0.32283 0.0
C342 C 0.24294 0.44189 0.291 0.0
C343 C 0.28555 0.3819 0.43649 0.0
C344 C 0.30199 0.36781 0.30782 0.0
C345 C 0.2165 0.35836 0.3529 0.0
O346 O 0.23681 0.35508 0.37284 0.0
O347 O 0.2169 0.37595 0.32859 0.0
O348 O 0.2875 0.35886 0.42128 0.0
O349 O 0.27727 0.40189 0.41764 0.0
O350 O 0.61307 0.28115 0.29252 0.0
Cd351 Cd 0.59388 0.24867 0.3145 0.0
Cd352 Cd 0.61766 0.27282 0.37616 0.0
O353 O 0.62661 0.30283 0.34003 0.0
O354 O 0.57227 0.23563 0.27379 0.0
O355 O 0.55396 0.25056 0.32312 0.0
C356 C 0.55094 0.24166 0.29137 0.0
C357 C 0.60949 0.2846 0.43531 0.0
C358 C 0.6242 0.30143 0.3067 0.0
C359 C 0.6351 0.21633 0.3529 0.0
O360 O 0.63856 0.23697 0.37216 0.0
O361 O 0.6171 0.21623 0.32911 0.0
O362 O 0.63279 0.28744 0.42093 0.0
O363 O 0.5901 0.27619 0.41549 0.0
O364 O 0.70862 0.61298 0.29247 0.0
Cd365 Cd 0.7411 0.59333 0.31386 0.0
Cd366 Cd 0.71762 0.61638 0.3762 0.0
O367 O 0.68742 0.6259 0.34062 0.0
O368 O 0.7539 0.57181 0.27291 0.0
O369 O 0.73919 0.55339 0.32227 0.0
C370 C 0.74802 0.55044 0.29047 0.0
C371 C 0.70601 0.60789 0.43536 0.0
C372 C 0.68857 0.62414 0.30722 0.0
C373 C 0.77385 0.63415 0.35238 0.0
O374 O 0.75342 0.63738 0.37212 0.0
O375 O 0.77369 0.61637 0.32832 0.0
O376 O 0.70322 0.63127 0.42124 0.0
O377 O 0.71432 0.5886 0.41532 0.0
O378 O 0.38064 0.70955 0.29446 0.0
Cd379 Cd 0.39901 0.7423 0.31702 0.0
Cd380 Cd 0.37534 0.71815 0.37796 0.0
O381 O 0.36673 0.68802 0.34191 0.0
O382 O 0.4219 0.75565 0.27768 0.0
O383 O 0.43856 0.74094 0.32814 0.0
C384 C 0.44264 0.75013 0.29675 0.0
C385 C 0.38377 0.70652 0.4371 0.0
C386 C 0.36943 0.68929 0.30861 0.0
C387 C 0.35683 0.7741 0.35426 0.0
O388 O 0.35373 0.75356 0.37381 0.0
O389 O 0.37496 0.77437 0.33064 0.0
O390 O 0.36051 0.7033 0.42276 0.0
O391 O 0.403 0.71527 0.41727 0.0
O392 O 0.28279 0.61202 0.23245 0.0
Cd393 Cd 0.25032 0.59305 0.20994 0.0
Cd394 Cd 0.27411 0.61659 0.14845 0.0
O395 O 0.30409 0.62546 0.18463 0.0
O396 O 0.23738 0.56966 0.24901 0.0
O397 O 0.25249 0.55364 0.19839 0.0
C398 C 0.24332 0.54917 0.22972 0.0
C399 C 0.28666 0.60917 0.0894 0.0
C400 C 0.30292 0.62324 0.21798 0.0
C401 C 0.21785 0.63441 0.17209 0.0
O402 O 0.23832 0.63761 0.15242 0.0
O403 O 0.21789 0.61654 0.19604 0.0
O404 O 0.28916 0.63229 0.10427 0.0
O405 O 0.2778 0.58956 0.10848 0.0
O406 O 0.38092 0.28149 0.23223 0.0
Cd407 Cd 0.39992 0.24909 0.20967 0.0
Cd408 Cd 0.3747 0.27185 0.14898 0.0
O409 O 0.36562 0.30202 0.18478 0.0
O410 O 0.42327 0.23651 0.24898 0.0
O411 O 0.43939 0.25115 0.19821 0.0
C412 C 0.4438 0.24224 0.22966 0.0
C413 C 0.38274 0.2834 0.08971 0.0
C414 C 0.36884 0.30121 0.21803 0.0
C415 C 0.35809 0.21569 0.17392 0.0
O416 O 0.35408 0.23588 0.15399 0.0
O417 O 0.37661 0.21628 0.19698 0.0
O418 O 0.3594 0.28602 0.10406 0.0
O419 O 0.40221 0.27521 0.10957 0.0
O420 O 0.70986 0.38003 0.23086 0.0
Cd421 Cd 0.74215 0.39947 0.20866 0.0
Cd422 Cd 0.71883 0.37604 0.1471 0.0
O423 O 0.68877 0.36653 0.18291 0.0
O424 O 0.75466 0.42285 0.24797 0.0
O425 O 0.73965 0.43889 0.1973 0.0
C426 C 0.74863 0.44334 0.22872 0.0
C427 C 0.70707 0.38416 0.0879 0.0
C428 C 0.6899 0.36859 0.21629 0.0
C429 C 0.77509 0.35849 0.17105 0.0
O430 O 0.75472 0.35521 0.15124 0.0
O431 O 0.77487 0.37633 0.19503 0.0
O432 O 0.7044 0.36085 0.10225 0.0
O433 O 0.71532 0.40359 0.10774 0.0
O434 O 0.61119 0.71152 0.23193 0.0
Cd435 Cd 0.59211 0.74419 0.21026 0.0
Cd436 Cd 0.61567 0.72004 0.14805 0.0
O437 O 0.62476 0.69011 0.18422 0.0
O438 O 0.57081 0.75726 0.25125 0.0
O439 O 0.55212 0.74262 0.20203 0.0
C440 C 0.54934 0.75143 0.23386 0.0
C441 C 0.60775 0.70774 0.08899 0.0
C442 C 0.62235 0.69134 0.21756 0.0
C443 C 0.63331 0.77647 0.17157 0.0
O444 O 0.63648 0.75597 0.15195 0.0
O445 O 0.61555 0.77647 0.19568 0.0
O446 O 0.63103 0.70525 0.1035 0.0
O447 O 0.58825 0.71622 0.10856 0.0
C448 C 0.31797 0.1928 0.14766 0.0
C449 C 0.33947 0.19228 0.17183 0.0
C450 C 0.29809 0.17284 0.14774 0.0
C451 C 0.29875 0.15141 0.17202 0.0
H452 H 0.31588 0.20925 0.1291 0.0
H453 H 0.28158 0.17483 0.12926 0.0
S454 S 0.35253 0.13875 0.2381 0.0
N455 N 0.36158 0.16708 0.21869 0.0
N456 N 0.32418 0.12954 0.21885 0.0
C457 C 0.32095 0.14975 0.19507 0.0
C458 C 0.34128 0.17016 0.19497 0.0
C459 C 0.83697 0.31784 0.19602 0.0
C460 C 0.83887 0.29885 0.1686 0.0
C461 C 0.81707 0.33786 0.1958 0.0
C462 C 0.79827 0.33972 0.16813 0.0
H463 H 0.85021 0.31661 0.21865 0.0
H464 H 0.81579 0.35125 0.21826 0.0
S465 S 0.79729 0.29762 0.08722 0.0
N466 N 0.82218 0.28516 0.11099 0.0
N467 N 0.78485 0.32275 0.11055 0.0
C468 C 0.80103 0.32194 0.13944 0.0
C469 C 0.82129 0.30154 0.13968 0.0
C470 C 0.65458 0.81821 0.19605 0.0
C471 C 0.65214 0.79957 0.16828 0.0
C472 C 0.67472 0.83799 0.19586 0.0
C473 C 0.69324 0.83996 0.16788 0.0
H474 H 0.64158 0.81686 0.21891 0.0
H475 H 0.67641 0.85108 0.21857 0.0
S476 S 0.69277 0.79885 0.08609 0.0
N477 N 0.668 0.7864 0.11008 0.0
N478 N 0.70579 0.82353 0.1097 0.0
C479 C 0.68992 0.82257 0.13888 0.0
C480 C 0.66942 0.80241 0.13909 0.0
C481 C 0.17535 0.65459 0.19597 0.0
C482 C 0.19467 0.65317 0.16888 0.0
C483 C 0.15521 0.67437 0.19586 0.0
C484 C 0.15356 0.69357 0.16865 0.0
H485 H 0.17633 0.64098 0.21824 0.0
H486 H 0.14152 0.6752 0.21805 0.0
S487 S 0.19676 0.69615 0.08878 0.0
N488 N 0.20903 0.67093 0.1121 0.0
N489 N 0.17125 0.70806 0.1119 0.0
C490 C 0.17175 0.69139 0.14032 0.0
C491 C 0.19226 0.67123 0.14043 0.0
C492 C 0.31596 0.83596 0.32979 0.0
C493 C 0.29663 0.83741 0.35686 0.0
C494 C 0.33607 0.81616 0.32994 0.0
C495 C 0.33769 0.79697 0.35717 0.0
H496 H 0.31501 0.84957 0.30752 0.0
H497 H 0.3498 0.81531 0.30778 0.0
S498 S 0.2944 0.79445 0.43697 0.0
N499 N 0.28219 0.81968 0.41362 0.0
N500 N 0.31992 0.78251 0.4139 0.0
C501 C 0.31946 0.79917 0.38547 0.0
C502 C 0.29898 0.81935 0.38532 0.0
C503 C 0.1746 0.33756 0.32817 0.0
C504 C 0.19319 0.33979 0.35604 0.0
C505 C 0.15465 0.31759 0.32819 0.0
C506 C 0.15248 0.29902 0.35607 0.0
H507 H 0.17612 0.35059 0.30536 0.0
H508 H 0.14161 0.31604 0.3054 0.0
S509 S 0.19335 0.29896 0.43808 0.0
N510 N 0.20606 0.32369 0.41426 0.0
N511 N 0.16863 0.28619 0.41427 0.0
C512 C 0.16981 0.30212 0.38517 0.0
C513 C 0.19012 0.32247 0.38516 0.0
C514 C 0.67537 0.15388 0.32938 0.0
C515 C 0.69428 0.15214 0.35694 0.0
C516 C 0.65551 0.17394 0.32909 0.0
C517 C 0.65375 0.19309 0.35633 0.0
H518 H 0.67654 0.14036 0.30704 0.0
H519 H 0.64218 0.17505 0.30654 0.0
S520 S 0.69568 0.19475 0.43739 0.0
N521 N 0.70797 0.16945 0.41424 0.0
N522 N 0.67071 0.2071 0.41367 0.0
C523 C 0.67144 0.19054 0.38515 0.0
C524 C 0.69166 0.1701 0.38547 0.0
C525 C 0.81627 0.65429 0.32828 0.0
C526 C 0.79706 0.65288 0.35549 0.0
C527 C 0.83634 0.67414 0.32818 0.0
C528 C 0.83801 0.69341 0.35529 0.0
H529 H 0.81524 0.64065 0.30605 0.0
H530 H 0.84994 0.67498 0.30589 0.0
S531 S 0.79516 0.69598 0.43549 0.0
N532 N 0.78288 0.67067 0.41234 0.0
N533 N 0.82053 0.70793 0.41215 0.0
C534 C 0.81996 0.69121 0.38378 0.0
C535 C 0.79952 0.67098 0.38389 0.0
C536 C 0.67513 0.83549 0.82928 0.0
C537 C 0.69453 0.83702 0.85627 0.0
C538 C 0.65517 0.81553 0.82947 0.0
C539 C 0.65378 0.79628 0.85664 0.0
H540 H 0.67594 0.84912 0.80703 0.0
H541 H 0.64142 0.81459 0.80734 0.0
S542 S 0.69721 0.79404 0.93634 0.0
N543 N 0.7092 0.81938 0.91297 0.0
N544 N 0.67175 0.78192 0.91332 0.0
C545 C 0.67203 0.7986 0.8849 0.0
C546 C 0.69237 0.81893 0.88471 0.0
C547 C 0.17481 0.69447 0.87886 0.0
C548 C 0.15243 0.69271 0.85619 0.0
C549 C 0.19488 0.6747 0.87898 0.0
C550 C 0.19352 0.65222 0.85645 0.0
H551 H 0.17745 0.71174 0.89594 0.0
H552 H 0.21206 0.67763 0.89616 0.0
S553 S 0.13736 0.63613 0.79524 0.0
N554 N 0.12879 0.66524 0.81295 0.0
N555 N 0.16654 0.62804 0.81319 0.0
C556 C 0.17049 0.64936 0.83506 0.0
C557 C 0.14997 0.66957 0.83493 0.0
C558 C 0.31748 0.19354 0.87915 0.0
C559 C 0.33937 0.19259 0.85559 0.0
C560 C 0.29757 0.17361 0.8791 0.0
C561 C 0.29859 0.15178 0.85548 0.0
H562 H 0.31512 0.2103 0.89716 0.0
H563 H 0.28078 0.17593 0.89707 0.0
S564 S 0.3534 0.13792 0.79131 0.0
N565 N 0.36218 0.16657 0.81012 0.0
N566 N 0.32473 0.12907 0.81002 0.0
C567 C 0.32115 0.1497 0.8331 0.0
C568 C 0.34151 0.17008 0.83316 0.0
C569 C 0.81695 0.29693 0.87897 0.0
C570 C 0.83905 0.29772 0.85576 0.0
C571 C 0.79723 0.31705 0.87866 0.0
C572 C 0.79867 0.33892 0.85512 0.0
H573 H 0.81427 0.28016 0.89688 0.0
H574 H 0.78024 0.31487 0.89635 0.0
S575 S 0.85421 0.35238 0.79187 0.0
N576 N 0.86254 0.32361 0.81073 0.0
N577 N 0.82544 0.36145 0.81015 0.0
C578 C 0.82145 0.34082 0.8331 0.0
C579 C 0.84161 0.32025 0.83342 0.0
C580 C 0.67436 0.19356 0.64671 0.0
C581 C 0.65271 0.19305 0.67064 0.0
C582 C 0.69414 0.17348 0.64686 0.0
C583 C 0.69319 0.15195 0.67097 0.0
H584 H 0.67667 0.21008 0.62833 0.0
H585 H 0.71079 0.17546 0.6286 0.0
S586 S 0.63887 0.13925 0.73626 0.0
N587 N 0.63012 0.16773 0.71699 0.0
N588 N 0.66731 0.12998 0.71729 0.0
C589 C 0.67082 0.1503 0.69373 0.0
C590 C 0.65061 0.17082 0.69357 0.0
C591 C 0.81734 0.65488 0.69424 0.0
C592 C 0.7983 0.65297 0.66686 0.0
C593 C 0.83729 0.67484 0.69405 0.0
C594 C 0.83903 0.69372 0.66647 0.0
H595 H 0.81623 0.64156 0.7168 0.0
H596 H 0.85073 0.67609 0.71648 0.0
S597 S 0.79672 0.6948 0.58572 0.0
N598 N 0.78441 0.66979 0.6094 0.0
N599 N 0.82186 0.70726 0.60904 0.0
C600 C 0.82118 0.69099 0.63784 0.0
C601 C 0.80085 0.67065 0.63804 0.0
C602 C 0.29781 0.81688 0.64746 0.0
C603 C 0.29812 0.83819 0.67192 0.0
C604 C 0.31785 0.79708 0.64748 0.0
C605 C 0.33915 0.79763 0.67197 0.0
H606 H 0.28148 0.81489 0.62871 0.0
H607 H 0.31604 0.78072 0.62875 0.0
S608 S 0.35122 0.85087 0.73894 0.0
N609 N 0.32297 0.85998 0.71935 0.0
N610 N 0.36065 0.82272 0.71939 0.0
C611 C 0.34059 0.81963 0.69535 0.0
C612 C 0.32011 0.83988 0.69532 0.0
C613 C 0.17424 0.29731 0.6467 0.0
C614 C 0.1527 0.29795 0.67082 0.0
C615 C 0.19415 0.31723 0.64673 0.0
C616 C 0.19349 0.33874 0.67088 0.0
H617 H 0.17633 0.28079 0.62826 0.0
H618 H 0.2107 0.31515 0.62832 0.0
S619 S 0.13961 0.35174 0.7367 0.0
N620 N 0.13055 0.32336 0.71743 0.0
N621 N 0.16802 0.36083 0.71749 0.0
C622 C 0.17124 0.34053 0.69384 0.0
C623 C 0.15087 0.32016 0.6938 0.0
C624 C 0.1933 0.12691 0.0319 0.0
C625 C 0.20375 0.10507 0.05119 0.0
C626 C 0.19324 0.12693 0.99504 0.0
C627 C 0.20364 0.10513 0.97565 0.0
H628 H 0.18598 0.14472 0.04532 0.0
H629 H 0.18589 0.14477 0.98171 0.0
S630 S 0.2303 0.04146 0.01328 0.0
N631 N 0.22244 0.05984 0.04806 0.0
N632 N 0.22235 0.05989 0.97858 0.0
C633 C 0.2125 0.08234 0.99448 0.0
C634 C 0.21256 0.08231 0.03226 0.0
C635 C 0.90515 0.21348 0.995 0.0
C636 C 0.88417 0.20105 0.97605 0.0
C637 C 0.90532 0.21356 0.03207 0.0
C638 C 0.88452 0.20121 0.05145 0.0
H639 H 0.92074 0.22453 0.98122 0.0
H640 H 0.92103 0.22468 0.04552 0.0
S641 S 0.82779 0.16155 0.01434 0.0
N642 N 0.84415 0.1729 0.97952 0.0
N643 N 0.84447 0.17305 0.04882 0.0
C644 C 0.86465 0.18691 0.03276 0.0
C645 C 0.86448 0.18683 0.99516 0.0
C646 C 0.77882 0.90537 0.99211 0.0
C647 C 0.79124 0.88435 0.97321 0.0
C648 C 0.77861 0.90553 0.02919 0.0
C649 C 0.7908 0.88467 0.04863 0.0
H650 H 0.76787 0.921 0.97828 0.0
H651 H 0.76751 0.92128 0.04258 0.0
S652 S 0.83035 0.8278 1.01177 0.0
N653 N 0.81922 0.84422 0.97687 0.0
N654 N 0.81878 0.84451 0.04617 0.0
C655 C 0.80508 0.86476 0.03002 0.0
C656 C 0.80532 0.8646 0.99242 0.0
C657 C 0.12555 0.79936 0.99418 0.0
C658 C 0.10425 0.78788 0.97487 0.0
C659 C 0.12552 0.79947 0.03104 0.0
C660 C 0.10418 0.78808 0.05038 0.0
H661 H 0.14305 0.80744 0.98079 0.0
H662 H 0.143 0.80761 0.04441 0.0
S663 S 0.04185 0.75848 0.01266 0.0
N664 N 0.0599 0.76714 0.97791 0.0
N665 N 0.05984 0.76733 0.04739 0.0
C666 C 0.08183 0.7782 0.03152 0.0
C667 C 0.08186 0.7781 0.99375 0.0
C668 C 0.19146 0.8638 0.49468 0.0
C669 C 0.20209 0.88553 0.47535 0.0
C670 C 0.1918 0.86361 0.53153 0.0
C671 C 0.20277 0.88516 0.55087 0.0
H672 H 0.18373 0.84615 0.48128 0.0
H673 H 0.1843 0.84585 0.54488 0.0
S674 S 0.23008 0.94854 0.51321 0.0
N675 N 0.22156 0.93043 0.47845 0.0
N676 N 0.22218 0.9301 0.54792 0.0
C677 C 0.21179 0.90789 0.53204 0.0
C678 C 0.21145 0.90807 0.49427 0.0
C679 C 0.12819 0.19278 0.53094 0.0
C680 C 0.10635 0.20298 0.55045 0.0
C681 C 0.12807 0.1929 0.49408 0.0
C682 C 0.1061 0.20322 0.47492 0.0
H683 H 0.14613 0.18556 0.54417 0.0
H684 H 0.14592 0.18577 0.48057 0.0
S685 S 0.04234 0.22917 0.51317 0.0
N686 N 0.06093 0.22131 0.54776 0.0
N687 N 0.06071 0.22154 0.47829 0.0
C688 C 0.08331 0.21181 0.49397 0.0
C689 C 0.08343 0.21169 0.53174 0.0
C690 C 0.77784 0.08524 0.53216 0.0
C691 C 0.79014 0.10614 0.5514 0.0
C692 C 0.77806 0.08518 0.49509 0.0
C693 C 0.79061 0.10602 0.47599 0.0
H694 H 0.76665 0.06963 0.54571 0.0
H695 H 0.76704 0.06954 0.48139 0.0
S696 S 0.83004 0.16256 0.51396 0.0
N697 N 0.81838 0.14612 0.54853 0.0
N698 N 0.8188 0.14601 0.47923 0.0
C699 C 0.80477 0.12581 0.49499 0.0
C700 C 0.80454 0.12587 0.53259 0.0
C701 C 0.86616 0.80014 0.52861 0.0
C702 C 0.88758 0.78885 0.54791 0.0
C703 C 0.86612 0.80011 0.49175 0.0
C704 C 0.88748 0.78878 0.4724 0.0
H705 H 0.84864 0.80814 0.54201 0.0
H706 H 0.84855 0.80808 0.4784 0.0
S707 S 0.95012 0.75977 0.51007 0.0
N708 N 0.93208 0.76843 0.54483 0.0
N709 N 0.93198 0.76836 0.47536 0.0
C710 C 0.90995 0.77913 0.49124 0.0
C711 C 0.91 0.77917 0.52901 0.0
C712 C 0.69136 0.62603 0.5303 0.0
C713 C 0.70246 0.60446 0.54949 0.0
C714 C 0.69117 0.62608 0.49344 0.0
C715 C 0.70207 0.60456 0.47397 0.0
H716 H 0.68368 0.64366 0.54378 0.0
H717 H 0.68336 0.64374 0.48017 0.0
S718 S 0.73042 0.54154 0.51135 0.0
N719 N 0.72223 0.55969 0.5462 0.0
N720 N 0.72188 0.55979 0.47672 0.0
C721 C 0.71152 0.58197 0.49271 0.0
C722 C 0.71172 0.58192 0.53049 0.0
C723 C 0.36542 0.69159 0.49506 0.0
C724 C 0.38698 0.70258 0.47573 0.0
C725 C 0.36535 0.69173 0.53191 0.0
C726 C 0.38684 0.70284 0.55124 0.0
H727 H 0.34781 0.68374 0.48168 0.0
H728 H 0.3477 0.68397 0.54528 0.0
S729 S 0.44982 0.73103 0.51353 0.0
N730 N 0.4317 0.72251 0.47878 0.0
N731 N 0.43157 0.72274 0.54826 0.0
C732 C 0.40942 0.7122 0.5324 0.0
C733 C 0.40949 0.71207 0.49462 0.0
C734 C 0.27817 0.40531 0.49443 0.0
C735 C 0.29018 0.38431 0.47505 0.0
C736 C 0.27813 0.40507 0.53151 0.0
C737 C 0.2901 0.38383 0.55049 0.0
H738 H 0.26743 0.42126 0.48096 0.0
H739 H 0.26737 0.42087 0.54527 0.0
S740 S 0.32853 0.32672 0.51223 0.0
N741 N 0.31749 0.34368 0.47774 0.0
N742 N 0.31742 0.34324 0.54704 0.0
C743 C 0.30395 0.36387 0.53138 0.0
C744 C 0.304 0.36411 0.49378 0.0
C745 C 0.62822 0.29895 0.53016 0.0
C746 C 0.60651 0.28826 0.54948 0.0
C747 C 0.62815 0.2991 0.4933 0.0
C748 C 0.60638 0.28855 0.47396 0.0
H749 H 0.64601 0.30637 0.54353 0.0
H750 H 0.64591 0.30661 0.47993 0.0
S751 S 0.54301 0.26128 0.51172 0.0
N752 N 0.56141 0.2692 0.54646 0.0
N753 N 0.56129 0.26947 0.47699 0.0
C754 C 0.5837 0.27947 0.49284 0.0
C755 C 0.58376 0.27933 0.53061 0.0
C756 C 0.69243 0.36542 0.99314 0.0
C757 C 0.7033 0.387 0.97374 0.0
C758 C 0.69232 0.36555 0.03 0.0
C759 C 0.70306 0.38725 0.04926 0.0
H760 H 0.68487 0.34766 0.97983 0.0
H761 H 0.68468 0.34788 0.04343 0.0
S762 S 0.73078 0.45034 1.01128 0.0
N763 N 0.72269 0.43195 0.9766 0.0
N764 N 0.72247 0.43218 0.04608 0.0
C765 C 0.71229 0.40983 0.0303 0.0
C766 C 0.71241 0.4097 0.99253 0.0
C767 C 0.62643 0.69201 0.03157 0.0
C768 C 0.60472 0.70315 0.05045 0.0
C769 C 0.62659 0.69146 0.99472 0.0
C770 C 0.60506 0.70203 0.97495 0.0
H771 H 0.64407 0.68456 0.04527 0.0
H772 H 0.64435 0.68363 0.98168 0.0
S773 S 0.54174 0.73037 1.01152 0.0
N774 N 0.55985 0.72263 0.0466 0.0
N775 N 0.56015 0.72161 0.97714 0.0
C776 C 0.58236 0.71155 0.99341 0.0
C777 C 0.58219 0.7121 0.03118 0.0
C778 C 0.27843 0.5857 0.03174 0.0
C779 C 0.29124 0.60634 0.0509 0.0
C780 C 0.27825 0.5858 0.99466 0.0
C781 C 0.29086 0.60656 0.9755 0.0
H782 H 0.26715 0.5702 0.04537 0.0
H783 H 0.26685 0.57039 0.98106 0.0
S784 S 0.33156 0.66232 0.01313 0.0
N785 N 0.32005 0.6459 0.0478 0.0
N786 N 0.31969 0.64611 0.9785 0.0
C787 C 0.30555 0.62604 0.99437 0.0
C788 C 0.30574 0.62593 0.03197 0.0
C789 C 0.36413 0.29818 0.99492 0.0
C790 C 0.38591 0.28768 0.97557 0.0
C791 C 0.36411 0.29809 0.03178 0.0
C792 C 0.38587 0.2875 0.05109 0.0
H793 H 0.34633 0.30562 0.98157 0.0
H794 H 0.3463 0.30547 0.04517 0.0
S795 S 0.44944 0.26071 0.01329 0.0
N796 N 0.43108 0.26878 0.97856 0.0
N797 N 0.43104 0.26861 0.04804 0.0
C798 C 0.40863 0.27862 0.0322 0.0
C799 C 0.40865 0.27871 0.99443 0.0
C800 C 0.25042 -0.00145 0.22986 0.0
C801 C 0.25024 0.0217 0.25114 0.0
C802 C 0.25059 0.97275 0.24479 0.0
C803 C 0.25012 0.96907 0.28158 0.0
H804 H 0.25021 0.00033 0.20142 0.0
H805 H 0.25031 0.95555 0.22723 0.0
S806 S 0.25041 0.0231 0.34904 0.0
N807 N 0.25049 0.0393 0.31106 0.0
N808 N 0.25035 0.99076 0.33898 0.0
C809 C 0.25039 0.99203 0.3032 0.0
C810 C 0.2506 0.01834 0.28802 0.0
C811 C 0.97401 0.25341 0.28102 0.0
C812 C 0.97042 0.25229 0.24423 0.0
C813 C -0.00022 0.25311 0.29607 0.0
C814 C 0.02297 0.25214 0.27491 0.0
H815 H 0.95677 0.25376 0.2985 0.0
H816 H 0.00149 0.25342 0.32452 0.0
S817 S 0.02465 0.25021 0.17706 0.0
N818 N 0.99227 0.25095 0.18696 0.0
N819 N 0.04075 0.25081 0.21512 0.0
C820 C 0.01972 0.25181 0.23802 0.0
C821 C 0.99344 0.25174 0.22272 0.0
C822 C 0.74177 -0.00052 0.29625 0.0
C823 C 0.74165 0.02277 0.27522 0.0
C824 C 0.74155 0.97376 0.28106 0.0
C825 C 0.74168 0.97031 0.24423 0.0
H826 H 0.74224 0.00108 0.32471 0.0
H827 H 0.74204 0.95646 0.29843 0.0
S828 S 0.74056 0.02475 0.17734 0.0
N829 N 0.74079 0.04071 0.21549 0.0
N830 N 0.74084 0.99235 0.18708 0.0
C831 C 0.74114 0.99339 0.22286 0.0
C832 C 0.74098 0.01962 0.23832 0.0
C833 C -0.0005 0.73792 0.22793 0.0
C834 C 0.02269 0.73853 0.24914 0.0
C835 C 0.97372 0.73775 0.24294 0.0
C836 C 0.9701 0.73867 0.27973 0.0
H837 H 0.00124 0.73784 0.19948 0.0
H838 H 0.95648 0.73773 0.22543 0.0
S839 S 0.02429 0.73961 0.34702 0.0
N840 N 0.04041 0.73916 0.30899 0.0
N841 N 0.99192 0.73929 0.33706 0.0
C842 C 0.99311 0.73878 0.30129 0.0
C843 C 0.0194 0.73857 0.28603 0.0
C844 C 0.7396 0.97288 0.74415 0.0
C845 C 0.74005 0.9692 0.78095 0.0
C846 C 0.73992 -0.00132 0.72924 0.0
C847 C 0.74021 0.02183 0.75052 0.0
H848 H 0.73982 0.95568 0.7266 0.0
H849 H 0.74017 0.00047 0.70079 0.0
S850 S 0.73997 0.0232 0.84843 0.0
N851 N 0.73988 0.99087 0.83835 0.0
N852 N 0.74 0.03941 0.81045 0.0
C853 C 0.73979 0.01846 0.7874 0.0
C854 C 0.73986 0.99214 0.80257 0.0
C855 C 0.97309 0.73929 0.78049 0.0
C856 C 0.96994 0.73986 0.74361 0.0
C857 C -0.00132 0.73923 0.79605 0.0
C858 C 0.02214 0.73926 0.77534 0.0
H859 H 0.95564 0.73968 0.79762 0.0
H860 H 6e-05 0.73942 0.82453 0.0
S861 S 0.02495 0.73927 0.67749 0.0
N862 N 0.99246 0.73955 0.68676 0.0
N863 N 0.0406 0.73899 0.71587 0.0
C864 C 0.0193 0.73898 0.73838 0.0
C865 C 0.9932 0.73942 0.72256 0.0
C866 C 0.25002 0.9729 0.78219 0.0
C867 C 0.24987 0.96938 0.74536 0.0
C868 C 0.25003 -0.00136 0.79728 0.0
C869 C 0.25035 0.02188 0.77617 0.0
H870 H 0.24938 0.95564 0.79962 0.0
H871 H 0.24957 0.00031 0.82574 0.0
S872 S 0.25148 0.02366 0.67828 0.0
N873 N 0.25092 0.99129 0.68813 0.0
N874 N 0.25139 0.0397 0.71637 0.0
C875 C 0.25101 0.01866 0.73927 0.0
C876 C 0.25062 0.99241 0.7239 0.0
C877 C 0.97382 0.25083 0.74525 0.0
C878 C 0.97058 0.24991 0.78211 0.0
C879 C -0.00056 0.25072 0.72979 0.0
C880 C 0.02284 0.25015 0.75058 0.0
H881 H 0.9564 0.25088 0.72805 0.0
H882 H 0.00087 0.25087 0.70131 0.0
S883 S 0.02546 0.24886 0.84842 0.0
N884 N 0.99299 0.24918 0.83904 0.0
N885 N 0.04119 0.2494 0.81011 0.0
C886 C 0.01994 0.25001 0.78753 0.0
C887 C 0.99381 0.24975 0.80326 0.0
C888 C 0.75319 0.51833 0.78047 0.0
C889 C 0.75249 0.5217 0.74363 0.0
C890 C 0.75301 0.49265 0.79576 0.0
C891 C 0.75262 0.46934 0.77481 0.0
H892 H 0.75306 0.53566 0.79778 0.0
H893 H 0.75294 0.4911 0.82423 0.0
S894 S 0.75215 0.46711 0.67693 0.0
N895 N 0.7523 0.49954 0.68654 0.0
N896 N 0.75242 0.45124 0.71515 0.0
C897 C 0.75279 0.47239 0.73788 0.0
C898 C 0.75258 0.49857 0.72233 0.0
C899 C 0.50021 0.75041 0.79716 0.0
C900 C 0.52344 0.74997 0.77603 0.0
C901 C 0.47445 0.75053 0.78208 0.0
C902 C 0.4709 0.74974 0.74527 0.0
H903 H 0.50189 0.75045 0.82562 0.0
H904 H 0.45719 0.75049 0.79954 0.0
S905 S 0.52521 0.74907 0.67815 0.0
N906 N 0.54126 0.74949 0.71624 0.0
N907 N 0.49282 0.74928 0.68801 0.0
C908 C 0.49394 0.74971 0.72379 0.0
C909 C 0.52021 0.74997 0.73913 0.0
C910 C 0.24083 0.49142 0.73036 0.0
C911 C 0.24132 0.46809 0.75129 0.0
C912 C 0.24048 0.51708 0.74566 0.0
C913 C 0.24109 0.52045 0.78251 0.0
H914 H 0.24093 0.48989 0.70189 0.0
H915 H 0.24052 0.53443 0.72835 0.0
S916 S 0.24168 0.46584 0.84917 0.0
N917 N 0.24156 0.44998 0.81095 0.0
N918 N 0.24137 0.49827 0.83958 0.0
C919 C 0.24115 0.49731 0.80379 0.0
C920 C 0.24112 0.47113 0.78822 0.0
C921 C 0.47457 0.24009 0.74521 0.0
C922 C 0.47126 0.24065 0.78206 0.0
C923 C 0.50022 0.24059 0.72985 0.0
C924 C 0.52358 0.24121 0.75073 0.0
H925 H 0.4572 0.24002 0.72794 0.0
H926 H 0.50171 0.2407 0.70137 0.0
S927 S 0.52596 0.24154 0.8486 0.0
N928 N 0.49352 0.24104 0.83908 0.0
N929 N 0.54178 0.24154 0.81034 0.0
C930 C 0.52059 0.24098 0.78767 0.0
C931 C 0.49443 0.24084 0.80329 0.0
C932 C 0.24066 0.51787 0.28106 0.0
C933 C 0.24124 0.52158 0.24427 0.0
C934 C 0.24081 0.49205 0.29594 0.0
C935 C 0.24106 0.46892 0.27463 0.0
H936 H 0.24087 0.53505 0.29864 0.0
H937 H 0.24095 0.49024 0.32438 0.0
S938 S 0.24121 0.46761 0.17673 0.0
N939 N 0.2412 0.49994 0.18684 0.0
N940 N 0.24102 0.45138 0.21468 0.0
C941 C 0.24081 0.47232 0.23775 0.0
C942 C 0.24105 0.49865 0.22261 0.0
C943 C 0.50077 0.23951 0.29611 0.0
C944 C 0.52396 0.23981 0.2749 0.0
C945 C 0.47499 0.23944 0.28111 0.0
C946 C 0.47137 0.24014 0.24431 0.0
H947 H 0.50251 0.23954 0.32456 0.0
H948 H 0.45776 0.2396 0.29863 0.0
S949 S 0.52553 0.24041 0.17701 0.0
N950 N 0.54167 0.24004 0.21504 0.0
N951 N 0.49316 0.24035 0.18698 0.0
C952 C 0.49436 0.24003 0.22275 0.0
C953 C 0.52066 0.23971 0.23801 0.0
C954 C 0.75028 0.50029 0.29522 0.0
C955 C 0.7501 0.52347 0.27401 0.0
C956 C 0.75067 0.47451 0.28023 0.0
C957 C 0.75041 0.47089 0.24343 0.0
H958 H 0.74992 0.50201 0.32367 0.0
H959 H 0.7504 0.45728 0.29774 0.0
S960 S 0.75076 0.52504 0.17611 0.0
N961 N 0.75055 0.54117 0.21414 0.0
N962 N 0.75082 0.49268 0.18609 0.0
C963 C 0.75066 0.49388 0.22187 0.0
C964 C 0.75066 0.52017 0.23713 0.0
C965 C 0.47346 0.75353 0.24498 0.0
C966 C 0.47008 0.75264 0.28181 0.0
C967 C 0.49914 0.75363 0.22969 0.0
C968 C 0.52247 0.75331 0.25064 0.0
H969 H 0.45612 0.75334 0.22765 0.0
H970 H 0.50069 0.75368 0.20122 0.0
S971 S 0.5247 0.7524 0.34851 0.0
N972 N 0.49227 0.75235 0.3389 0.0
N973 N 0.54058 0.75297 0.3103 0.0
C974 C 0.51942 0.75329 0.28757 0.0
C975 C 0.49322 0.75281 0.30312 0.0
C976 C 0.17239 0.13663 0.2774 0.0
C977 C 0.1692 0.13673 0.24047 0.0
C978 C 0.15634 0.15277 0.29919 0.0
C979 C 0.13643 0.16973 0.28502 0.0
H980 H 0.18824 0.12493 0.28964 0.0
H981 H 0.1606 0.15293 0.32719 0.0
S982 S 0.11654 0.17389 0.19076 0.0
N983 N 0.14212 0.15266 0.19122 0.0
N984 N 0.11191 0.18292 0.23217 0.0
C985 C 0.13156 0.16847 0.24845 0.0
C986 C 0.14793 0.15199 0.22621 0.0
C987 C 0.83635 0.15282 0.2278 0.0
C988 C 0.8558 0.17034 0.2419 0.0
C989 C 0.82041 0.13664 0.24967 0.0
C990 C 0.82324 0.13726 0.28663 0.0
H991 H 0.83237 0.15251 0.19973 0.0
H992 H 0.80492 0.12447 0.23743 0.0
S993 S 0.8746 0.17615 0.33639 0.0
N994 N 0.87949 0.18471 0.29487 0.0
N995 N 0.84948 0.15437 0.33597 0.0
C996 C 0.84406 0.15311 0.3009 0.0
C997 C 0.86032 0.16964 0.27858 0.0
C998 C 0.83642 0.83901 0.29663 0.0
C999 C 0.85584 0.8215 0.28242 0.0
C1000 C 0.8203 0.85507 0.27484 0.0
C1001 C 0.82292 0.85436 0.23786 0.0
H1002 H 0.8326 0.83936 0.32474 0.0
H1003 H 0.80483 0.86722 0.28717 0.0
S1004 S 0.87414 0.81552 0.18779 0.0
N1005 N 0.87929 0.80707 0.2293 0.0
N1006 N 0.84895 0.83721 0.18835 0.0
C1007 C 0.84372 0.83854 0.22346 0.0
C1008 C 0.86016 0.82212 0.2457 0.0
C1009 C 0.17119 0.85477 0.24849 0.0
C1010 C 0.16787 0.85444 0.28539 0.0
C1011 C 0.15514 0.83886 0.22641 0.0
C1012 C 0.13509 0.82191 0.24028 0.0
H1013 H 0.18718 0.86643 0.23649 0.0
H1014 H 0.15953 0.83881 0.19845 0.0
S1015 S 0.11473 0.81735 0.33431 0.0
N1016 N 0.14044 0.83844 0.33427 0.0
N1017 N 0.11023 0.8086 0.29278 0.0
C1018 C 0.13004 0.82303 0.27681 0.0
C1019 C 0.14641 0.83928 0.29933 0.0
C1020 C 0.85611 0.81966 0.77429 0.0
C1021 C 0.85523 0.82252 0.73734 0.0
C1022 C 0.84012 0.83561 0.79638 0.0
C1023 C 0.82252 0.8551 0.78252 0.0
H1024 H 0.86833 0.80412 0.78635 0.0
H1025 H 0.8406 0.83159 0.82444 0.0
S1026 S 0.81614 0.87404 0.68815 0.0
N1027 N 0.83785 0.84887 0.68826 0.0
N1028 N 0.80786 0.8789 0.72978 0.0
C1029 C 0.823 0.85967 0.74585 0.0
C1030 C 0.83934 0.84341 0.7233 0.0
C1031 C 0.17104 0.85447 0.77686 0.0
C1032 C 0.16823 0.85367 0.7399 0.0
C1033 C 0.15493 0.83856 0.79887 0.0
C1034 C 0.13533 0.82114 0.78488 0.0
H1035 H 0.18665 0.86654 0.78901 0.0
H1036 H 0.1589 0.83895 0.82693 0.0
S1037 S 0.11648 0.81509 0.69044 0.0
N1038 N 0.14183 0.83659 0.69068 0.0
N1039 N 0.1115 0.80677 0.73203 0.0
C1040 C 0.13082 0.82172 0.7482 0.0
C1041 C 0.14726 0.83796 0.72575 0.0
C1042 C 0.15683 0.15191 0.72676 0.0
C1043 C 0.13661 0.16871 0.7405 0.0
C1044 C 0.17288 0.13607 0.74891 0.0
C1045 C 0.16939 0.13632 0.7858 0.0
H1046 H 0.16132 0.15199 0.69882 0.0
H1047 H 0.18896 0.12449 0.73699 0.0
S1048 S 0.11591 0.17309 0.83444 0.0
N1049 N 0.1115 0.18185 0.79289 0.0
N1050 N 0.14174 0.15216 0.83453 0.0
C1051 C 0.14784 0.15139 0.79962 0.0
C1052 C 0.13145 0.16756 0.77701 0.0
C1053 C 0.83514 0.15156 0.79996 0.0
C1054 C 0.85523 0.16846 0.78609 0.0
C1055 C 0.81904 0.13568 0.77791 0.0
C1056 C 0.82233 0.13601 0.74101 0.0
H1057 H 0.8308 0.15155 0.82793 0.0
H1058 H 0.80306 0.12403 0.78994 0.0
S1059 S 0.8754 0.17308 0.69197 0.0
N1060 N 0.88 0.1818 0.7335 0.0
N1061 N 0.84967 0.15203 0.69207 0.0
C1062 C 0.84376 0.15118 0.72703 0.0
C1063 C 0.8602 0.16739 0.74953 0.0
C1064 C 0.67322 0.63547 0.77642 0.0
C1065 C 0.66979 0.63583 0.73953 0.0
C1066 C 0.65703 0.65115 0.79861 0.0
C1067 C 0.63676 0.6679 0.78489 0.0
H1068 H 0.68935 0.62394 0.78832 0.0
H1069 H 0.66148 0.65119 0.82656 0.0
S1070 S 0.61619 0.67249 0.69093 0.0
N1071 N 0.64211 0.65168 0.6908 0.0
N1072 N 0.61167 0.68109 0.73252 0.0
C1073 C 0.63167 0.66683 0.74836 0.0
C1074 C 0.64816 0.65082 0.72572 0.0
C1075 C 0.33985 0.65515 0.7993 0.0
C1076 C 0.32239 0.63556 0.78535 0.0
C1077 C 0.35584 0.67116 0.77729 0.0
C1078 C 0.3551 0.66827 0.74034 0.0
H1079 H 0.34023 0.65917 0.82735 0.0
H1080 H 0.36794 0.68675 0.78941 0.0
S1081 S 0.31642 0.61656 0.69095 0.0
N1082 N 0.30802 0.61168 0.73253 0.0
N1083 N 0.33802 0.64183 0.69117 0.0
C1084 C 0.33934 0.64732 0.72622 0.0
C1085 C 0.32301 0.63098 0.74869 0.0
C1086 C 0.33618 0.33868 0.79908 0.0
C1087 C 0.35596 0.32141 0.78522 0.0
C1088 C 0.32009 0.35454 0.77699 0.0
C1089 C 0.32308 0.35383 0.74005 0.0
H1090 H 0.33207 0.33902 0.82711 0.0
H1091 H 0.30436 0.36651 0.78905 0.0
S1092 S 0.37526 0.31561 0.6909 0.0
N1093 N 0.38011 0.30725 0.73251 0.0
N1094 N 0.34979 0.33697 0.691 0.0
C1095 C 0.3442 0.33825 0.72603 0.0
C1096 C 0.36063 0.32207 0.74857 0.0
C1097 C 0.63699 0.3204 0.77551 0.0
C1098 C 0.63788 0.32313 0.73854 0.0
C1099 C 0.65286 0.33654 0.79752 0.0
C1100 C 0.67032 0.3561 0.78354 0.0
H1101 H 0.62487 0.30484 0.78767 0.0
H1102 H 0.6524 0.33263 0.8256 0.0
S1103 S 0.67661 0.37473 0.68904 0.0
N1104 N 0.65509 0.3494 0.68929 0.0
N1105 N 0.68483 0.37981 0.73065 0.0
C1106 C 0.66983 0.36053 0.74683 0.0
C1107 C 0.65364 0.34405 0.72437 0.0
C1108 C 0.33575 0.33864 0.22667 0.0
C1109 C 0.35565 0.32166 0.24084 0.0
C1110 C 0.31956 0.35463 0.24846 0.0
C1111 C 0.32257 0.35437 0.2854 0.0
H1112 H 0.33163 0.33865 0.19863 0.0
H1113 H 0.30376 0.36638 0.23618 0.0
S1114 S 0.37501 0.317 0.33525 0.0
N1115 N 0.37989 0.30822 0.2938 0.0
N1116 N 0.34941 0.33821 0.33475 0.0
C1117 C 0.3438 0.33907 0.29971 0.0
C1118 C 0.36032 0.32274 0.27747 0.0
C1119 C 0.65683 0.33922 0.29781 0.0
C1120 C 0.63708 0.32199 0.28381 0.0
C1121 C 0.67272 0.35539 0.27585 0.0
C1122 C 0.66952 0.35505 0.23892 0.0
H1123 H 0.66108 0.33927 0.32581 0.0
H1124 H 0.68846 0.36732 0.28796 0.0
S1125 S 0.61726 0.31704 0.1896 0.0
N1126 N 0.6127 0.30824 0.2311 0.0
N1127 N 0.64261 0.33855 0.18984 0.0
C1128 C 0.6484 0.3395 0.22482 0.0
C1129 C 0.6322 0.32299 0.24723 0.0
C1130 C 0.67125 0.63757 0.24783 0.0
C1131 C 0.66807 0.63766 0.28476 0.0
C1132 C 0.65522 0.65373 0.22605 0.0
C1133 C 0.63534 0.67072 0.24023 0.0
H1134 H 0.68708 0.62585 0.23558 0.0
H1135 H 0.65948 0.65389 0.19805 0.0
S1136 S 0.61548 0.67489 0.33447 0.0
N1137 N 0.64102 0.65361 0.33402 0.0
N1138 N 0.61085 0.68393 0.29307 0.0
C1139 C 0.63047 0.66945 0.27679 0.0
C1140 C 0.64682 0.65294 0.29902 0.0
C1141 C 0.32029 0.63599 0.27761 0.0
C1142 C 0.32353 0.63634 0.2407 0.0
C1143 C 0.33644 0.65185 0.29964 0.0
C1144 C 0.35649 0.66877 0.28572 0.0
H1145 H 0.30431 0.62435 0.28966 0.0
H1146 H 0.33211 0.65187 0.32762 0.0
S1147 S 0.37659 0.67339 0.19161 0.0
N1148 N 0.35086 0.65235 0.19173 0.0
N1149 N 0.38122 0.6821 0.23313 0.0
C1150 C 0.36144 0.66769 0.24917 0.0
C1151 C 0.34498 0.65149 0.2267 0.0
loop_
_geom_bond_atom_site_label_1
_geom_bond_atom_site_label_2
_geom_bond_distance
_geom_bond_site_symmetry_2
_ccdc_geom_bond_type
O0 Cd1 2.223 . S
O0 C8 1.315 . S
Cd1 O0 2.223 . S
Cd1 O4 2.297 . S
Cd1 O5 2.439 . S
Cd1 O11 2.240 . S
Cd2 O3 2.240 . S
Cd2 O10 2.223 . S
Cd2 O12 2.297 . S
Cd2 O13 2.439 . S
O3 Cd2 2.240 . S
O3 C8 1.279 . S
O4 Cd1 2.297 . S
O4 C6 1.247 . S
O5 Cd1 2.439 . S
O5 C6 1.208 . S
C6 O4 1.247 . S
C6 O5 1.208 . S
C7 O12 1.247 . S
C7 O13 1.208 . S
C8 O0 1.315 . S
C8 O3 1.279 . S
C9 O10 1.315 . S
C9 O11 1.279 . S
O10 Cd2 2.223 . S
O10 C9 1.315 . S
O11 Cd1 2.240 . S
O11 C9 1.279 . S
O12 Cd2 2.297 . S
O12 C7 1.247 . S
O13 Cd2 2.439 . S
O13 C7 1.208 . S
O14 Cd15 2.223 . S
O14 C22 1.315 . S
Cd15 O14 2.223 . S
Cd15 O18 2.297 . S
Cd15 O19 2.439 . S
Cd15 O25 2.240 . S
Cd16 O17 2.240 . S
Cd16 O24 2.223 . S
Cd16 O26 2.297 . S
Cd16 O27 2.439 . S
O17 Cd16 2.240 . S
O17 C22 1.279 . S
O18 Cd15 2.297 . S
O18 C20 1.247 . S
O19 Cd15 2.439 . S
O19 C20 1.208 . S
C20 O18 1.247 . S
C20 O19 1.208 . S
C21 O26 1.247 . S
C21 O27 1.208 . S
C22 O14 1.315 . S
C22 O17 1.279 . S
C23 O24 1.315 . S
C23 O25 1.279 . S
O24 Cd16 2.223 . S
O24 C23 1.315 . S
O25 Cd15 2.240 . S
O25 C23 1.279 . S
O26 Cd16 2.297 . S
O26 C21 1.247 . S
O27 Cd16 2.439 . S
O27 C21 1.208 . S
O28 Cd29 2.223 . S
O28 C36 1.315 . S
Cd29 O28 2.223 . S
Cd29 O32 2.297 . S
Cd29 O33 2.439 . S
Cd29 O39 2.240 . S
Cd30 O31 2.240 . S
Cd30 O38 2.223 . S
Cd30 O40 2.297 . S
Cd30 O41 2.439 . S
O31 Cd30 2.240 . S
O31 C36 1.279 . S
O32 Cd29 2.297 . S
O32 C34 1.247 . S
O33 Cd29 2.439 . S
O33 C34 1.208 . S
C34 O32 1.247 . S
C34 O33 1.208 . S
C35 O40 1.247 . S
C35 O41 1.208 . S
C36 O28 1.315 . S
C36 O31 1.279 . S
C37 O38 1.315 . S
C37 O39 1.279 . S
O38 Cd30 2.223 . S
O38 C37 1.315 . S
O39 Cd29 2.240 . S
O39 C37 1.279 . S
O40 Cd30 2.297 . S
O40 C35 1.247 . S
O41 Cd30 2.439 . S
O41 C35 1.208 . S
O42 Cd43 2.223 . S
O42 C50 1.315 . S
Cd43 O42 2.223 . S
Cd43 O46 2.297 . S
Cd43 O47 2.439 . S
Cd43 O53 2.240 . S
Cd44 O45 2.240 . S
Cd44 O52 2.223 . S
Cd44 O54 2.297 . S
Cd44 O55 2.439 . S
O45 Cd44 2.240 . S
O45 C50 1.279 . S
O46 Cd43 2.297 . S
O46 C48 1.247 . S
O47 Cd43 2.439 . S
O47 C48 1.208 . S
C48 O46 1.247 . S
C48 O47 1.208 . S
C49 O54 1.247 . S
C49 O55 1.208 . S
C50 O42 1.315 . S
C50 O45 1.279 . S
C51 O52 1.315 . S
C51 O53 1.279 . S
O52 Cd44 2.223 . S
O52 C51 1.315 . S
O53 Cd43 2.240 . S
O53 C51 1.279 . S
O54 Cd44 2.297 . S
O54 C49 1.247 . S
O55 Cd44 2.439 . S
O55 C49 1.208 . S
O56 Cd57 2.223 . S
O56 C64 1.315 . S
Cd57 O56 2.223 . S
Cd57 O60 2.297 . S
Cd57 O61 2.439 . S
Cd57 O67 2.240 . S
Cd58 O59 2.240 . S
Cd58 O66 2.223 . S
Cd58 O68 2.297 . S
Cd58 O69 2.439 . S
O59 Cd58 2.240 . S
O59 C64 1.279 . S
O60 Cd57 2.297 . S
O60 C62 1.247 . S
O61 Cd57 2.439 . S
O61 C62 1.208 . S
C62 O60 1.247 . S
C62 O61 1.208 . S
C63 O68 1.247 . S
C63 O69 1.208 . S
C64 O56 1.315 . S
C64 O59 1.279 . S
C65 O66 1.315 . S
C65 O67 1.279 . S
O66 Cd58 2.223 . S
O66 C65 1.315 . S
O67 Cd57 2.240 . S
O67 C65 1.279 . S
O68 Cd58 2.297 . S
O68 C63 1.247 . S
O69 Cd58 2.439 . S
O69 C63 1.208 . S
O70 Cd71 2.223 . S
O70 C78 1.315 . S
Cd71 O70 2.223 . S
Cd71 O74 2.297 . S
Cd71 O75 2.439 . S
Cd71 O81 2.240 . S
Cd72 O73 2.240 . S
Cd72 O80 2.223 . S
Cd72 O82 2.297 . S
Cd72 O83 2.439 . S
O73 Cd72 2.240 . S
O73 C78 1.279 . S
O74 Cd71 2.297 . S
O74 C76 1.247 . S
O75 Cd71 2.439 . S
O75 C76 1.208 . S
C76 O74 1.247 . S
C76 O75 1.208 . S
C77 O82 1.247 . S
C77 O83 1.208 . S
C78 O70 1.315 . S
C78 O73 1.279 . S
C79 O80 1.315 . S
C79 O81 1.279 . S
O80 Cd72 2.223 . S
O80 C79 1.315 . S
O81 Cd71 2.240 . S
O81 C79 1.279 . S
O82 Cd72 2.297 . S
O82 C77 1.247 . S
O83 Cd72 2.439 . S
O83 C77 1.208 . S
O84 Cd85 2.223 . S
O84 C92 1.315 . S
Cd85 O84 2.223 . S
Cd85 O88 2.297 . S
Cd85 O89 2.439 . S
Cd85 O95 2.240 . S
Cd86 O87 2.240 . S
Cd86 O94 2.223 . S
Cd86 O96 2.297 . S
Cd86 O97 2.439 . S
O87 Cd86 2.240 . S
O87 C92 1.279 . S
O88 Cd85 2.297 . S
O88 C90 1.247 . S
O89 Cd85 2.439 . S
O89 C90 1.208 . S
C90 O88 1.247 . S
C90 O89 1.208 . S
C91 O96 1.247 . S
C91 O97 1.208 . S
C92 O84 1.315 . S
C92 O87 1.279 . S
C93 O94 1.315 . S
C93 O95 1.279 . S
O94 Cd86 2.223 . S
O94 C93 1.315 . S
O95 Cd85 2.240 . S
O95 C93 1.279 . S
O96 Cd86 2.297 . S
O96 C91 1.247 . S
O97 Cd86 2.439 . S
O97 C91 1.208 . S
O98 Cd99 2.223 . S
O98 C106 1.315 . S
Cd99 O98 2.223 . S
Cd99 O102 2.297 . S
Cd99 O103 2.439 . S
Cd99 O109 2.240 . S
Cd100 O101 2.240 . S
Cd100 O108 2.223 . S
Cd100 O110 2.297 . S
Cd100 O111 2.439 . S
O101 Cd100 2.240 . S
O101 C106 1.279 . S
O102 Cd99 2.297 . S
O102 C104 1.247 . S
O103 Cd99 2.439 . S
O103 C104 1.208 . S
C104 O102 1.247 . S
C104 O103 1.208 . S
C105 O110 1.247 . S
C105 O111 1.208 . S
C106 O98 1.315 . S
C106 O101 1.279 . S
C107 O108 1.315 . S
C107 O109 1.279 . S
O108 Cd100 2.223 . S
O108 C107 1.315 . S
O109 Cd99 2.240 . S
O109 C107 1.279 . S
O110 Cd100 2.297 . S
O110 C105 1.247 . S
O111 Cd100 2.439 . S
O111 C105 1.208 . S
O112 Cd113 2.223 . S
O112 C120 1.315 . S
Cd113 O112 2.223 . S
Cd113 O116 2.297 . S
Cd113 O117 2.439 . S
Cd113 O123 2.240 . S
Cd114 O115 2.240 . S
Cd114 O122 2.223 . S
Cd114 O124 2.297 . S
Cd114 O125 2.439 . S
O115 Cd114 2.240 . S
O115 C120 1.279 . S
O116 Cd113 2.297 . S
O116 C118 1.247 . S
O117 Cd113 2.439 . S
O117 C118 1.208 . S
C118 O116 1.247 . S
C118 O117 1.208 . S
C119 O124 1.247 . S
C119 O125 1.208 . S
C120 O112 1.315 . S
C120 O115 1.279 . S
C121 O122 1.315 . S
C121 O123 1.279 . S
O122 Cd114 2.223 . S
O122 C121 1.315 . S
O123 Cd113 2.240 . S
O123 C121 1.279 . S
O124 Cd114 2.297 . S
O124 C119 1.247 . S
O125 Cd114 2.439 . S
O125 C119 1.208 . S
O126 Cd127 2.223 . S
O126 C134 1.315 . S
Cd127 O126 2.223 . S
Cd127 O130 2.297 . S
Cd127 O131 2.439 . S
Cd127 O137 2.240 . S
Cd128 O129 2.240 . S
Cd128 O136 2.223 . S
Cd128 O138 2.297 . S
Cd128 O139 2.439 . S
O129 Cd128 2.240 . S
O129 C134 1.279 . S
O130 Cd127 2.297 . S
O130 C132 1.247 . S
O131 Cd127 2.439 . S
O131 C132 1.208 . S
C132 O130 1.247 . S
C132 O131 1.208 . S
C133 O138 1.247 . S
C133 O139 1.208 . S
C134 O126 1.315 . S
C134 O129 1.279 . S
C135 O136 1.315 . S
C135 O137 1.279 . S
O136 Cd128 2.223 . S
O136 C135 1.315 . S
O137 Cd127 2.240 . S
O137 C135 1.279 . S
O138 Cd128 2.297 . S
O138 C133 1.247 . S
O139 Cd128 2.439 . S
O139 C133 1.208 . S
O140 Cd141 2.223 . S
O140 C148 1.315 . S
Cd141 O140 2.223 . S
Cd141 O144 2.297 . S
Cd141 O145 2.439 . S
Cd141 O151 2.240 . S
Cd142 O143 2.240 . S
Cd142 O150 2.223 . S
Cd142 O152 2.297 . S
Cd142 O153 2.439 . S
O143 Cd142 2.240 . S
O143 C148 1.279 . S
O144 Cd141 2.297 . S
O144 C146 1.247 . S
O145 Cd141 2.439 . S
O145 C146 1.208 . S
C146 O144 1.247 . S
C146 O145 1.208 . S
C147 O152 1.247 . S
C147 O153 1.208 . S
C148 O140 1.315 . S
C148 O143 1.279 . S
C149 O150 1.315 . S
C149 O151 1.279 . S
O150 Cd142 2.223 . S
O150 C149 1.315 . S
O151 Cd141 2.240 . S
O151 C149 1.279 . S
O152 Cd142 2.297 . S
O152 C147 1.247 . S
O153 Cd142 2.439 . S
O153 C147 1.208 . S
O154 Cd155 2.223 . S
O154 C162 1.315 . S
Cd155 O154 2.223 . S
Cd155 O158 2.297 . S
Cd155 O159 2.439 . S
Cd155 O165 2.240 . S
Cd156 O157 2.240 . S
Cd156 O164 2.223 . S
Cd156 O166 2.297 . S
Cd156 O167 2.439 . S
O157 Cd156 2.240 . S
O157 C162 1.279 . S
O158 Cd155 2.297 . S
O158 C160 1.247 . S
O159 Cd155 2.439 . S
O159 C160 1.208 . S
C160 O158 1.247 . S
C160 O159 1.208 . S
C161 O166 1.247 . S
C161 O167 1.208 . S
C162 O154 1.315 . S
C162 O157 1.279 . S
C163 O164 1.315 . S
C163 O165 1.279 . S
O164 Cd156 2.223 . S
O164 C163 1.315 . S
O165 Cd155 2.240 . S
O165 C163 1.279 . S
O166 Cd156 2.297 . S
O166 C161 1.247 . S
O167 Cd156 2.439 . S
O167 C161 1.208 . S
O168 Cd169 2.223 . S
O168 C176 1.315 . S
Cd169 O168 2.223 . S
Cd169 O172 2.297 . S
Cd169 O173 2.439 . S
Cd169 O179 2.240 . S
Cd170 O171 2.240 . S
Cd170 O178 2.223 . S
Cd170 O180 2.297 . S
Cd170 O181 2.439 . S
O171 Cd170 2.240 . S
O171 C176 1.279 . S
O172 Cd169 2.297 . S
O172 C174 1.247 . S
O173 Cd169 2.439 . S
O173 C174 1.208 . S
C174 O172 1.247 . S
C174 O173 1.208 . S
C175 O180 1.247 . S
C175 O181 1.208 . S
C176 O168 1.315 . S
C176 O171 1.279 . S
C177 O178 1.315 . S
C177 O179 1.279 . S
O178 Cd170 2.223 . S
O178 C177 1.315 . S
O179 Cd169 2.240 . S
O179 C177 1.279 . S
O180 Cd170 2.297 . S
O180 C175 1.247 . S
O181 Cd170 2.439 . S
O181 C175 1.208 . S
O182 Cd183 2.223 . S
O182 C190 1.315 . S
Cd183 O182 2.223 . S
Cd183 O186 2.297 . S
Cd183 O187 2.439 . S
Cd183 O193 2.240 . S
Cd184 O185 2.240 . S
Cd184 O192 2.223 . S
Cd184 O194 2.297 . S
Cd184 O195 2.439 . S
O185 Cd184 2.240 . S
O185 C190 1.279 . S
O186 Cd183 2.297 . S
O186 C188 1.247 . S
O187 Cd183 2.439 . S
O187 C188 1.208 . S
C188 O186 1.247 . S
C188 O187 1.208 . S
C189 O194 1.247 . S
C189 O195 1.208 . S
C190 O182 1.315 . S
C190 O185 1.279 . S
C191 O192 1.315 . S
C191 O193 1.279 . S
O192 Cd184 2.223 . S
O192 C191 1.315 . S
O193 Cd183 2.240 . S
O193 C191 1.279 . S
O194 Cd184 2.297 . S
O194 C189 1.247 . S
O195 Cd184 2.439 . S
O195 C189 1.208 . S
O196 Cd197 2.223 . S
O196 C204 1.315 . S
Cd197 O196 2.223 . S
Cd197 O200 2.297 . S
Cd197 O201 2.439 . S
Cd197 O207 2.240 . S
Cd198 O199 2.240 . S
Cd198 O206 2.223 . S
Cd198 O208 2.297 . S
Cd198 O209 2.439 . S
O199 Cd198 2.240 . S
O199 C204 1.279 . S
O200 Cd197 2.297 . S
O200 C202 1.247 . S
O201 Cd197 2.439 . S
O201 C202 1.208 . S
C202 O200 1.247 . S
C202 O201 1.208 . S
C203 O208 1.247 . S
C203 O209 1.208 . S
C204 O196 1.315 . S
C204 O199 1.279 . S
C205 O206 1.315 . S
C205 O207 1.279 . S
O206 Cd198 2.223 . S
O206 C205 1.315 . S
O207 Cd197 2.240 . S
O207 C205 1.279 . S
O208 Cd198 2.297 . S
O208 C203 1.247 . S
O209 Cd198 2.439 . S
O209 C203 1.208 . S
O210 Cd211 2.223 . S
O210 C218 1.315 . S
Cd211 O210 2.223 . S
Cd211 O214 2.297 . S
Cd211 O215 2.439 . S
Cd211 O221 2.240 . S
Cd212 O213 2.240 . S
Cd212 O220 2.223 . S
Cd212 O222 2.297 . S
Cd212 O223 2.439 . S
O213 Cd212 2.240 . S
O213 C218 1.279 . S
O214 Cd211 2.297 . S
O214 C216 1.247 . S
O215 Cd211 2.439 . S
O215 C216 1.208 . S
C216 O214 1.247 . S
C216 O215 1.208 . S
C217 O222 1.247 . S
C217 O223 1.208 . S
C218 O210 1.315 . S
C218 O213 1.279 . S
C219 O220 1.315 . S
C219 O221 1.279 . S
O220 Cd212 2.223 . S
O220 C219 1.315 . S
O221 Cd211 2.240 . S
O221 C219 1.279 . S
O222 Cd212 2.297 . S
O222 C217 1.247 . S
O223 Cd212 2.439 . S
O223 C217 1.208 . S
O224 Cd225 2.223 . S
O224 C232 1.315 . S
Cd225 O224 2.223 . S
Cd225 O228 2.297 . S
Cd225 O229 2.439 . S
Cd225 O235 2.240 . S
Cd226 O227 2.240 . S
Cd226 O234 2.223 . S
Cd226 O236 2.297 . S
Cd226 O237 2.439 . S
O227 Cd226 2.240 . S
O227 C232 1.279 . S
O228 Cd225 2.297 . S
O228 C230 1.247 . S
O229 Cd225 2.439 . S
O229 C230 1.208 . S
C230 O228 1.247 . S
C230 O229 1.208 . S
C231 O236 1.247 . S
C231 O237 1.208 . S
C232 O224 1.315 . S
C232 O227 1.279 . S
C233 O234 1.315 . S
C233 O235 1.279 . S
O234 Cd226 2.223 . S
O234 C233 1.315 . S
O235 Cd225 2.240 . S
O235 C233 1.279 . S
O236 Cd226 2.297 . S
O236 C231 1.247 . S
O237 Cd226 2.439 . S
O237 C231 1.208 . S
O238 Cd239 2.223 . S
O238 C246 1.315 . S
Cd239 O238 2.223 . S
Cd239 O242 2.297 . S
Cd239 O243 2.439 . S
Cd239 O249 2.240 . S
Cd240 O241 2.240 . S
Cd240 O248 2.223 . S
Cd240 O250 2.297 . S
Cd240 O251 2.439 . S
O241 Cd240 2.240 . S
O241 C246 1.279 . S
O242 Cd239 2.297 . S
O242 C244 1.247 . S
O243 Cd239 2.439 . S
O243 C244 1.208 . S
C244 O242 1.247 . S
C244 O243 1.208 . S
C245 O250 1.247 . S
C245 O251 1.208 . S
C246 O238 1.315 . S
C246 O241 1.279 . S
C247 O248 1.315 . S
C247 O249 1.279 . S
O248 Cd240 2.223 . S
O248 C247 1.315 . S
O249 Cd239 2.240 . S
O249 C247 1.279 . S
O250 Cd240 2.297 . S
O250 C245 1.247 . S
O251 Cd240 2.439 . S
O251 C245 1.208 . S
O252 Cd253 2.223 . S
O252 C260 1.315 . S
Cd253 O252 2.223 . S
Cd253 O256 2.297 . S
Cd253 O257 2.439 . S
Cd253 O263 2.240 . S
Cd254 O255 2.240 . S
Cd254 O262 2.223 . S
Cd254 O264 2.297 . S
Cd254 O265 2.439 . S
O255 Cd254 2.240 . S
O255 C260 1.279 . S
O256 Cd253 2.297 . S
O256 C258 1.247 . S
O257 Cd253 2.439 . S
O257 C258 1.208 . S
C258 O256 1.247 . S
C258 O257 1.208 . S
C259 O264 1.247 . S
C259 O265 1.208 . S
C260 O252 1.315 . S
C260 O255 1.279 . S
C261 O262 1.315 . S
C261 O263 1.279 . S
O262 Cd254 2.223 . S
O262 C261 1.315 . S
O263 Cd253 2.240 . S
O263 C261 1.279 . S
O264 Cd254 2.297 . S
O264 C259 1.247 . S
O265 Cd254 2.439 . S
O265 C259 1.208 . S
O266 Cd267 2.223 . S
O266 C274 1.315 . S
Cd267 O266 2.223 . S
Cd267 O270 2.297 . S
Cd267 O271 2.439 . S
Cd267 O277 2.240 . S
Cd268 O269 2.240 . S
Cd268 O276 2.223 . S
Cd268 O278 2.297 . S
Cd268 O279 2.439 . S
O269 Cd268 2.240 . S
O269 C274 1.279 . S
O270 Cd267 2.297 . S
O270 C272 1.247 . S
O271 Cd267 2.439 . S
O271 C272 1.208 . S
C272 O270 1.247 . S
C272 O271 1.208 . S
C273 O278 1.247 . S
C273 O279 1.208 . S
C274 O266 1.315 . S
C274 O269 1.279 . S
C275 O276 1.315 . S
C275 O277 1.279 . S
O276 Cd268 2.223 . S
O276 C275 1.315 . S
O277 Cd267 2.240 . S
O277 C275 1.279 . S
O278 Cd268 2.297 . S
O278 C273 1.247 . S
O279 Cd268 2.439 . S
O279 C273 1.208 . S
O280 Cd281 2.223 . S
O280 C288 1.315 . S
Cd281 O280 2.223 . S
Cd281 O284 2.297 . S
Cd281 O285 2.439 . S
Cd281 O291 2.240 . S
Cd282 O283 2.240 . S
Cd282 O290 2.223 . S
Cd282 O292 2.297 . S
Cd282 O293 2.439 . S
O283 Cd282 2.240 . S
O283 C288 1.279 . S
O284 Cd281 2.297 . S
O284 C286 1.247 . S
O285 Cd281 2.439 . S
O285 C286 1.208 . S
C286 O284 1.247 . S
C286 O285 1.208 . S
C287 O292 1.247 . S
C287 O293 1.208 . S
C288 O280 1.315 . S
C288 O283 1.279 . S
C289 O290 1.315 . S
C289 O291 1.279 . S
O290 Cd282 2.223 . S
O290 C289 1.315 . S
O291 Cd281 2.240 . S
O291 C289 1.279 . S
O292 Cd282 2.297 . S
O292 C287 1.247 . S
O293 Cd282 2.439 . S
O293 C287 1.208 . S
O294 Cd295 2.223 . S
O294 C302 1.315 . S
Cd295 O294 2.223 . S
Cd295 O298 2.297 . S
Cd295 O299 2.439 . S
Cd295 O305 2.240 . S
Cd296 O297 2.240 . S
Cd296 O304 2.223 . S
Cd296 O306 2.297 . S
Cd296 O307 2.439 . S
O297 Cd296 2.240 . S
O297 C302 1.279 . S
O298 Cd295 2.297 . S
O298 C300 1.247 . S
O299 Cd295 2.439 . S
O299 C300 1.208 . S
C300 O298 1.247 . S
C300 O299 1.208 . S
C301 O306 1.247 . S
C301 O307 1.208 . S
C302 O294 1.315 . S
C302 O297 1.279 . S
C303 O304 1.315 . S
C303 O305 1.279 . S
O304 Cd296 2.223 . S
O304 C303 1.315 . S
O305 Cd295 2.240 . S
O305 C303 1.279 . S
O306 Cd296 2.297 . S
O306 C301 1.247 . S
O307 Cd296 2.439 . S
O307 C301 1.208 . S
O308 Cd309 2.223 . S
O308 C316 1.315 . S
Cd309 O308 2.223 . S
Cd309 O312 2.297 . S
Cd309 O313 2.439 . S
Cd309 O319 2.240 . S
Cd310 O311 2.240 . S
Cd310 O318 2.223 . S
Cd310 O320 2.297 . S
Cd310 O321 2.439 . S
O311 Cd310 2.240 . S
O311 C316 1.279 . S
O312 Cd309 2.297 . S
O312 C314 1.247 . S
O313 Cd309 2.439 . S
O313 C314 1.208 . S
C314 O312 1.247 . S
C314 O313 1.208 . S
C315 O320 1.247 . S
C315 O321 1.208 . S
C316 O308 1.315 . S
C316 O311 1.279 . S
C317 O318 1.315 . S
C317 O319 1.279 . S
O318 Cd310 2.223 . S
O318 C317 1.315 . S
O319 Cd309 2.240 . S
O319 C317 1.279 . S
O320 Cd310 2.297 . S
O320 C315 1.247 . S
O321 Cd310 2.439 . S
O321 C315 1.208 . S
O322 Cd323 2.223 . S
O322 C330 1.315 . S
Cd323 O322 2.223 . S
Cd323 O326 2.297 . S
Cd323 O327 2.439 . S
Cd323 O333 2.240 . S
Cd324 O325 2.240 . S
Cd324 O332 2.223 . S
Cd324 O334 2.297 . S
Cd324 O335 2.439 . S
O325 Cd324 2.240 . S
O325 C330 1.279 . S
O326 Cd323 2.297 . S
O326 C328 1.247 . S
O327 Cd323 2.439 . S
O327 C328 1.208 . S
C328 O326 1.247 . S
C328 O327 1.208 . S
C329 O334 1.247 . S
C329 O335 1.208 . S
C330 O322 1.315 . S
C330 O325 1.279 . S
C331 O332 1.315 . S
C331 O333 1.279 . S
O332 Cd324 2.223 . S
O332 C331 1.315 . S
O333 Cd323 2.240 . S
O333 C331 1.279 . S
O334 Cd324 2.297 . S
O334 C329 1.247 . S
O335 Cd324 2.439 . S
O335 C329 1.208 . S
O336 Cd337 2.223 . S
O336 C344 1.315 . S
Cd337 O336 2.223 . S
Cd337 O340 2.297 . S
Cd337 O341 2.439 . S
Cd337 O347 2.240 . S
Cd338 O339 2.240 . S
Cd338 O346 2.223 . S
Cd338 O348 2.297 . S
Cd338 O349 2.439 . S
O339 Cd338 2.240 . S
O339 C344 1.279 . S
O340 Cd337 2.297 . S
O340 C342 1.247 . S
O341 Cd337 2.439 . S
O341 C342 1.208 . S
C342 O340 1.247 . S
C342 O341 1.208 . S
C343 O348 1.247 . S
C343 O349 1.208 . S
C344 O336 1.315 . S
C344 O339 1.279 . S
C345 O346 1.315 . S
C345 O347 1.279 . S
O346 Cd338 2.223 . S
O346 C345 1.315 . S
O347 Cd337 2.240 . S
O347 C345 1.279 . S
O348 Cd338 2.297 . S
O348 C343 1.247 . S
O349 Cd338 2.439 . S
O349 C343 1.208 . S
O350 Cd351 2.223 . S
O350 C358 1.315 . S
Cd351 O350 2.223 . S
Cd351 O354 2.297 . S
Cd351 O355 2.439 . S
Cd351 O361 2.240 . S
Cd352 O353 2.240 . S
Cd352 O360 2.223 . S
Cd352 O362 2.297 . S
Cd352 O363 2.439 . S
O353 Cd352 2.240 . S
O353 C358 1.279 . S
O354 Cd351 2.297 . S
O354 C356 1.247 . S
O355 Cd351 2.439 . S
O355 C356 1.208 . S
C356 O354 1.247 . S
C356 O355 1.208 . S
C357 O362 1.247 . S
C357 O363 1.208 . S
C358 O350 1.315 . S
C358 O353 1.279 . S
C359 O360 1.315 . S
C359 O361 1.279 . S
O360 Cd352 2.223 . S
O360 C359 1.315 . S
O361 Cd351 2.240 . S
O361 C359 1.279 . S
O362 Cd352 2.297 . S
O362 C357 1.247 . S
O363 Cd352 2.439 . S
O363 C357 1.208 . S
O364 Cd365 2.223 . S
O364 C372 1.315 . S
Cd365 O364 2.223 . S
Cd365 O368 2.297 . S
Cd365 O369 2.439 . S
Cd365 O375 2.240 . S
Cd366 O367 2.240 . S
Cd366 O374 2.223 . S
Cd366 O376 2.297 . S
Cd366 O377 2.439 . S
O367 Cd366 2.240 . S
O367 C372 1.279 . S
O368 Cd365 2.297 . S
O368 C370 1.247 . S
O369 Cd365 2.439 . S
O369 C370 1.208 . S
C370 O368 1.247 . S
C370 O369 1.208 . S
C371 O376 1.247 . S
C371 O377 1.208 . S
C372 O364 1.315 . S
C372 O367 1.279 . S
C373 O374 1.315 . S
C373 O375 1.279 . S
O374 Cd366 2.223 . S
O374 C373 1.315 . S
O375 Cd365 2.240 . S
O375 C373 1.279 . S
O376 Cd366 2.297 . S
O376 C371 1.247 . S
O377 Cd366 2.439 . S
O377 C371 1.208 . S
O378 Cd379 2.223 . S
O378 C386 1.315 . S
Cd379 O378 2.223 . S
Cd379 O382 2.297 . S
Cd379 O383 2.439 . S
Cd379 O389 2.240 . S
Cd380 O381 2.240 . S
Cd380 O388 2.223 . S
Cd380 O390 2.297 . S
Cd380 O391 2.439 . S
O381 Cd380 2.240 . S
O381 C386 1.279 . S
O382 Cd379 2.297 . S
O382 C384 1.247 . S
O383 Cd379 2.439 . S
O383 C384 1.208 . S
C384 O382 1.247 . S
C384 O383 1.208 . S
C385 O390 1.247 . S
C385 O391 1.208 . S
C386 O378 1.315 . S
C386 O381 1.279 . S
C387 O388 1.315 . S
C387 O389 1.279 . S
O388 Cd380 2.223 . S
O388 C387 1.315 . S
O389 Cd379 2.240 . S
O389 C387 1.279 . S
O390 Cd380 2.297 . S
O390 C385 1.247 . S
O391 Cd380 2.439 . S
O391 C385 1.208 . S
O392 Cd393 2.223 . S
O392 C400 1.315 . S
Cd393 O392 2.223 . S
Cd393 O396 2.297 . S
Cd393 O397 2.439 . S
Cd393 O403 2.240 . S
Cd394 O395 2.240 . S
Cd394 O402 2.223 . S
Cd394 O404 2.297 . S
Cd394 O405 2.439 . S
O395 Cd394 2.240 . S
O395 C400 1.279 . S
O396 Cd393 2.297 . S
O396 C398 1.247 . S
O397 Cd393 2.439 . S
O397 C398 1.208 . S
C398 O396 1.247 . S
C398 O397 1.208 . S
C399 O404 1.247 . S
C399 O405 1.208 . S
C400 O392 1.315 . S
C400 O395 1.279 . S
C401 O402 1.315 . S
C401 O403 1.279 . S
O402 Cd394 2.223 . S
O402 C401 1.315 . S
O403 Cd393 2.240 . S
O403 C401 1.279 . S
O404 Cd394 2.297 . S
O404 C399 1.247 . S
O405 Cd394 2.439 . S
O405 C399 1.208 . S
O406 Cd407 2.223 . S
O406 C414 1.315 . S
Cd407 O406 2.223 . S
Cd407 O410 2.297 . S
Cd407 O411 2.439 . S
Cd407 O417 2.240 . S
Cd408 O409 2.240 . S
Cd408 O416 2.223 . S
Cd408 O418 2.297 . S
Cd408 O419 2.439 . S
O409 Cd408 2.240 . S
O409 C414 1.279 . S
O410 Cd407 2.297 . S
O410 C412 1.247 . S
O411 Cd407 2.439 . S
O411 C412 1.208 . S
C412 O410 1.247 . S
C412 O411 1.208 . S
C413 O418 1.247 . S
C413 O419 1.208 . S
C414 O406 1.315 . S
C414 O409 1.279 . S
C415 O416 1.315 . S
C415 O417 1.279 . S
O416 Cd408 2.223 . S
O416 C415 1.315 . S
O417 Cd407 2.240 . S
O417 C415 1.279 . S
O418 Cd408 2.297 . S
O418 C413 1.247 . S
O419 Cd408 2.439 . S
O419 C413 1.208 . S
O420 Cd421 2.223 . S
O420 C428 1.315 . S
Cd421 O420 2.223 . S
Cd421 O424 2.297 . S
Cd421 O425 2.439 . S
Cd421 O431 2.240 . S
Cd422 O423 2.240 . S
Cd422 O430 2.223 . S
Cd422 O432 2.297 . S
Cd422 O433 2.439 . S
O423 Cd422 2.240 . S
O423 C428 1.279 . S
O424 Cd421 2.297 . S
O424 C426 1.247 . S
O425 Cd421 2.439 . S
O425 C426 1.208 . S
C426 O424 1.247 . S
C426 O425 1.208 . S
C427 O432 1.247 . S
C427 O433 1.208 . S
C428 O420 1.315 . S
C428 O423 1.279 . S
C429 O430 1.315 . S
C429 O431 1.279 . S
O430 Cd422 2.223 . S
O430 C429 1.315 . S
O431 Cd421 2.240 . S
O431 C429 1.279 . S
O432 Cd422 2.297 . S
O432 C427 1.247 . S
O433 Cd422 2.439 . S
O433 C427 1.208 . S
O434 Cd435 2.223 . S
O434 C442 1.315 . S
Cd435 O434 2.223 . S
Cd435 O438 2.297 . S
Cd435 O439 2.439 . S
Cd435 O445 2.240 . S
Cd436 O437 2.240 . S
Cd436 O444 2.223 . S
Cd436 O446 2.297 . S
Cd436 O447 2.439 . S
O437 Cd436 2.240 . S
O437 C442 1.279 . S
O438 Cd435 2.297 . S
O438 C440 1.247 . S
O439 Cd435 2.439 . S
O439 C440 1.208 . S
C440 O438 1.247 . S
C440 O439 1.208 . S
C441 O446 1.247 . S
C441 O447 1.208 . S
C442 O434 1.315 . S
C442 O437 1.279 . S
C443 O444 1.315 . S
C443 O445 1.279 . S
O444 Cd436 2.223 . S
O444 C443 1.315 . S
O445 Cd435 2.240 . S
O445 C443 1.279 . S
O446 Cd436 2.297 . S
O446 C441 1.247 . S
O447 Cd436 2.439 . S
O447 C441 1.208 . S
C448 C449 1.369 . S
C448 C450 1.419 . S
C448 H452 0.930 . S
C449 C448 1.369 . S
C449 C458 1.429 . S
C450 C448 1.419 . S
C450 C451 1.363 . S
C450 H453 0.929 . S
C451 C450 1.363 . S
C451 C457 1.428 . S
H452 C448 0.930 . S
H453 C450 0.929 . S
S454 N455 1.613 . S
S454 N456 1.610 . S
N455 S454 1.613 . S
N455 C458 1.350 . S
N456 S454 1.610 . S
N456 C457 1.351 . S
C457 C451 1.428 . S
C457 N456 1.351 . S
C457 C458 1.434 . S
C458 C449 1.429 . S
C458 N455 1.350 . S
C458 C457 1.434 . S
C459 C460 1.369 . S
C459 C461 1.419 . S
C459 H463 0.930 . S
C460 C459 1.369 . S
C460 C469 1.429 . S
C461 C459 1.419 . S
C461 C462 1.363 . S
C461 H464 0.929 . S
C462 C461 1.363 . S
C462 C468 1.428 . S
H463 C459 0.930 . S
H464 C461 0.929 . S
S465 N466 1.613 . S
S465 N467 1.610 . S
N466 S465 1.613 . S
N466 C469 1.350 . S
N467 S465 1.610 . S
N467 C468 1.351 . S
C468 C462 1.428 . S
C468 N467 1.351 . S
C468 C469 1.434 . S
C469 C460 1.429 . S
C469 N466 1.350 . S
C469 C468 1.434 . S
C470 C471 1.369 . S
C470 C472 1.419 . S
C470 H474 0.930 . S
C471 C470 1.369 . S
C471 C480 1.429 . S
C472 C470 1.419 . S
C472 C473 1.363 . S
C472 H475 0.929 . S
C473 C472 1.363 . S
C473 C479 1.428 . S
H474 C470 0.930 . S
H475 C472 0.929 . S
S476 N477 1.613 . S
S476 N478 1.610 . S
N477 S476 1.613 . S
N477 C480 1.350 . S
N478 S476 1.610 . S
N478 C479 1.351 . S
C479 C473 1.428 . S
C479 N478 1.351 . S
C479 C480 1.434 . S
C480 C471 1.429 . S
C480 N477 1.350 . S
C480 C479 1.434 . S
C481 C482 1.369 . S
C481 C483 1.419 . S
C481 H485 0.930 . S
C482 C481 1.369 . S
C482 C491 1.429 . S
C483 C481 1.419 . S
C483 C484 1.363 . S
C483 H486 0.929 . S
C484 C483 1.363 . S
C484 C490 1.428 . S
H485 C481 0.930 . S
H486 C483 0.929 . S
S487 N488 1.613 . S
S487 N489 1.610 . S
N488 S487 1.613 . S
N488 C491 1.350 . S
N489 S487 1.610 . S
N489 C490 1.351 . S
C490 C484 1.428 . S
C490 N489 1.351 . S
C490 C491 1.434 . S
C491 C482 1.429 . S
C491 N488 1.350 . S
C491 C490 1.434 . S
C492 C493 1.369 . S
C492 C494 1.419 . S
C492 H496 0.930 . S
C493 C492 1.369 . S
C493 C502 1.429 . S
C494 C492 1.419 . S
C494 C495 1.363 . S
C494 H497 0.929 . S
C495 C494 1.363 . S
C495 C501 1.428 . S
H496 C492 0.930 . S
H497 C494 0.929 . S
S498 N499 1.613 . S
S498 N500 1.610 . S
N499 S498 1.613 . S
N499 C502 1.350 . S
N500 S498 1.610 . S
N500 C501 1.351 . S
C501 C495 1.428 . S
C501 N500 1.351 . S
C501 C502 1.434 . S
C502 C493 1.429 . S
C502 N499 1.350 . S
C502 C501 1.434 . S
C503 C504 1.369 . S
C503 C505 1.419 . S
C503 H507 0.930 . S
C504 C503 1.369 . S
C504 C513 1.429 . S
C505 C503 1.419 . S
C505 C506 1.363 . S
C505 H508 0.929 . S
C506 C505 1.363 . S
C506 C512 1.428 . S
H507 C503 0.930 . S
H508 C505 0.929 . S
S509 N510 1.613 . S
S509 N511 1.610 . S
N510 S509 1.613 . S
N510 C513 1.350 . S
N511 S509 1.610 . S
N511 C512 1.351 . S
C512 C506 1.428 . S
C512 N511 1.351 . S
C512 C513 1.434 . S
C513 C504 1.429 . S
C513 N510 1.350 . S
C513 C512 1.434 . S
C514 C515 1.369 . S
C514 C516 1.419 . S
C514 H518 0.930 . S
C515 C514 1.369 . S
C515 C524 1.429 . S
C516 C514 1.419 . S
C516 C517 1.363 . S
C516 H519 0.929 . S
C517 C516 1.363 . S
C517 C523 1.428 . S
H518 C514 0.930 . S
H519 C516 0.929 . S
S520 N521 1.613 . S
S520 N522 1.610 . S
N521 S520 1.613 . S
N521 C524 1.350 . S
N522 S520 1.610 . S
N522 C523 1.351 . S
C523 C517 1.428 . S
C523 N522 1.351 . S
C523 C524 1.434 . S
C524 C515 1.429 . S
C524 N521 1.350 . S
C524 C523 1.434 . S
C525 C526 1.369 . S
C525 C527 1.419 . S
C525 H529 0.930 . S
C526 C525 1.369 . S
C526 C535 1.429 . S
C527 C525 1.419 . S
C527 C528 1.363 . S
C527 H530 0.929 . S
C528 C527 1.363 . S
C528 C534 1.428 . S
H529 C525 0.930 . S
H530 C527 0.929 . S
S531 N532 1.613 . S
S531 N533 1.610 . S
N532 S531 1.613 . S
N532 C535 1.350 . S
N533 S531 1.610 . S
N533 C534 1.351 . S
C534 C528 1.428 . S
C534 N533 1.351 . S
C534 C535 1.434 . S
C535 C526 1.429 . S
C535 N532 1.350 . S
C535 C534 1.434 . S
C536 C537 1.369 . S
C536 C538 1.419 . S
C536 H540 0.930 . S
C537 C536 1.369 . S
C537 C546 1.429 . S
C538 C536 1.419 . S
C538 C539 1.363 . S
C538 H541 0.929 . S
C539 C538 1.363 . S
C539 C545 1.428 . S
H540 C536 0.930 . S
H541 C538 0.929 . S
S542 N543 1.613 . S
S542 N544 1.610 . S
N543 S542 1.613 . S
N543 C546 1.350 . S
N544 S542 1.610 . S
N544 C545 1.351 . S
C545 C539 1.428 . S
C545 N544 1.351 . S
C545 C546 1.434 . S
C546 C537 1.429 . S
C546 N543 1.350 . S
C546 C545 1.434 . S
C547 C548 1.369 . S
C547 C549 1.419 . S
C547 H551 0.930 . S
C548 C547 1.369 . S
C548 C557 1.429 . S
C549 C547 1.419 . S
C549 C550 1.363 . S
C549 H552 0.929 . S
C550 C549 1.363 . S
C550 C556 1.428 . S
H551 C547 0.930 . S
H552 C549 0.929 . S
S553 N554 1.613 . S
S553 N555 1.610 . S
N554 S553 1.613 . S
N554 C557 1.350 . S
N555 S553 1.610 . S
N555 C556 1.351 . S
C556 C550 1.428 . S
C556 N555 1.351 . S
C556 C557 1.434 . S
C557 C548 1.429 . S
C557 N554 1.350 . S
C557 C556 1.434 . S
C558 C559 1.369 . S
C558 C560 1.419 . S
C558 H562 0.930 . S
C559 C558 1.369 . S
C559 C568 1.429 . S
C560 C558 1.419 . S
C560 C561 1.363 . S
C560 H563 0.929 . S
C561 C560 1.363 . S
C561 C567 1.428 . S
H562 C558 0.930 . S
H563 C560 0.929 . S
S564 N565 1.613 . S
S564 N566 1.610 . S
N565 S564 1.613 . S
N565 C568 1.350 . S
N566 S564 1.610 . S
N566 C567 1.351 . S
C567 C561 1.428 . S
C567 N566 1.351 . S
C567 C568 1.434 . S
C568 C559 1.429 . S
C568 N565 1.350 . S
C568 C567 1.434 . S
C569 C570 1.369 . S
C569 C571 1.419 . S
C569 H573 0.930 . S
C570 C569 1.369 . S
C570 C579 1.429 . S
C571 C569 1.419 . S
C571 C572 1.363 . S
C571 H574 0.929 . S
C572 C571 1.363 . S
C572 C578 1.428 . S
H573 C569 0.930 . S
H574 C571 0.929 . S
S575 N576 1.613 . S
S575 N577 1.610 . S
N576 S575 1.613 . S
N576 C579 1.350 . S
N577 S575 1.610 . S
N577 C578 1.351 . S
C578 C572 1.428 . S
C578 N577 1.351 . S
C578 C579 1.434 . S
C579 C570 1.429 . S
C579 N576 1.350 . S
C579 C578 1.434 . S
C580 C581 1.369 . S
C580 C582 1.419 . S
C580 H584 0.930 . S
C581 C580 1.369 . S
C581 C590 1.429 . S
C582 C580 1.419 . S
C582 C583 1.363 . S
C582 H585 0.929 . S
C583 C582 1.363 . S
C583 C589 1.428 . S
H584 C580 0.930 . S
H585 C582 0.929 . S
S586 N587 1.613 . S
S586 N588 1.610 . S
N587 S586 1.613 . S
N587 C590 1.350 . S
N588 S586 1.610 . S
N588 C589 1.351 . S
C589 C583 1.428 . S
C589 N588 1.351 . S
C589 C590 1.434 . S
C590 C581 1.429 . S
C590 N587 1.350 . S
C590 C589 1.434 . S
C591 C592 1.369 . S
C591 C593 1.419 . S
C591 H595 0.930 . S
C592 C591 1.369 . S
C592 C601 1.429 . S
C593 C591 1.419 . S
C593 C594 1.363 . S
C593 H596 0.929 . S
C594 C593 1.363 . S
C594 C600 1.428 . S
H595 C591 0.930 . S
H596 C593 0.929 . S
S597 N598 1.613 . S
S597 N599 1.610 . S
N598 S597 1.613 . S
N598 C601 1.350 . S
N599 S597 1.610 . S
N599 C600 1.351 . S
C600 C594 1.428 . S
C600 N599 1.351 . S
C600 C601 1.434 . S
C601 C592 1.429 . S
C601 N598 1.350 . S
C601 C600 1.434 . S
C602 C603 1.369 . S
C602 C604 1.419 . S
C602 H606 0.930 . S
C603 C602 1.369 . S
C603 C612 1.429 . S
C604 C602 1.419 . S
C604 C605 1.363 . S
C604 H607 0.929 . S
C605 C604 1.363 . S
C605 C611 1.428 . S
H606 C602 0.930 . S
H607 C604 0.929 . S
S608 N609 1.613 . S
S608 N610 1.610 . S
N609 S608 1.613 . S
N609 C612 1.350 . S
N610 S608 1.610 . S
N610 C611 1.351 . S
C611 C605 1.428 . S
C611 N610 1.351 . S
C611 C612 1.434 . S
C612 C603 1.429 . S
C612 N609 1.350 . S
C612 C611 1.434 . S
C613 C614 1.369 . S
C613 C615 1.419 . S
C613 H617 0.930 . S
C614 C613 1.369 . S
C614 C623 1.429 . S
C615 C613 1.419 . S
C615 C616 1.363 . S
C615 H618 0.929 . S
C616 C615 1.363 . S
C616 C622 1.428 . S
H617 C613 0.930 . S
H618 C615 0.929 . S
S619 N620 1.613 . S
S619 N621 1.610 . S
N620 S619 1.613 . S
N620 C623 1.350 . S
N621 S619 1.610 . S
N621 C622 1.351 . S
C622 C616 1.428 . S
C622 N621 1.351 . S
C622 C623 1.434 . S
C623 C614 1.429 . S
C623 N620 1.350 . S
C623 C622 1.434 . S
C624 C625 1.369 . S
C624 C626 1.419 1_554 S
C624 H628 0.930 . S
C625 C624 1.369 . S
C625 C634 1.429 . S
C626 C624 1.419 1_556 S
C626 C627 1.363 . S
C626 H629 0.929 . S
C627 C626 1.363 . S
C627 C633 1.428 . S
H628 C624 0.930 . S
H629 C626 0.929 . S
S630 N631 1.615 1_556 S
S630 N632 1.608 . S
N631 S630 1.615 1_554 S
N631 C634 1.350 . S
N632 S630 1.608 . S
N632 C633 1.351 . S
C633 C627 1.428 . S
C633 N632 1.351 . S
C633 C634 1.434 1_556 S
C634 C625 1.429 . S
C634 N631 1.350 . S
C634 C633 1.434 1_554 S
C635 C636 1.369 . S
C635 C637 1.419 1_556 S
C635 H639 0.930 . S
C636 C635 1.369 . S
C636 C645 1.429 . S
C637 C635 1.419 1_554 S
C637 C638 1.363 . S
C637 H640 0.929 . S
C638 C637 1.363 . S
C638 C644 1.428 . S
H639 C635 0.930 . S
H640 C637 0.929 . S
S641 N642 1.615 1_554 S
S641 N643 1.608 . S
N642 S641 1.615 1_556 S
N642 C645 1.350 . S
N643 S641 1.608 . S
N643 C644 1.351 . S
C644 C638 1.428 . S
C644 N643 1.351 . S
C644 C645 1.434 1_554 S
C645 C636 1.429 . S
C645 N642 1.350 . S
C645 C644 1.434 1_556 S
C646 C647 1.369 . S
C646 C648 1.419 1_556 S
C646 H650 0.930 . S
C647 C646 1.369 . S
C647 C656 1.429 . S
C648 C646 1.419 1_554 S
C648 C649 1.363 . S
C648 H651 0.929 . S
C649 C648 1.363 . S
C649 C655 1.428 . S
H650 C646 0.930 . S
H651 C648 0.929 . S
S652 N653 1.615 1_554 S
S652 N654 1.608 . S
N653 S652 1.615 1_556 S
N653 C656 1.350 . S
N654 S652 1.608 . S
N654 C655 1.351 . S
C655 C649 1.428 . S
C655 N654 1.351 . S
C655 C656 1.434 1_554 S
C656 C647 1.429 . S
C656 N653 1.350 . S
C656 C655 1.434 1_556 S
C657 C658 1.369 . S
C657 C659 1.419 1_556 S
C657 H661 0.930 . S
C658 C657 1.369 . S
C658 C667 1.429 . S
C659 C657 1.419 1_554 S
C659 C660 1.363 . S
C659 H662 0.929 . S
C660 C659 1.363 . S
C660 C666 1.428 . S
H661 C657 0.930 . S
H662 C659 0.929 . S
S663 N664 1.615 1_554 S
S663 N665 1.608 . S
N664 S663 1.615 1_556 S
N664 C667 1.350 . S
N665 S663 1.608 . S
N665 C666 1.351 . S
C666 C660 1.428 . S
C666 N665 1.351 . S
C666 C667 1.434 1_554 S
C667 C658 1.429 . S
C667 N664 1.350 . S
C667 C666 1.434 1_556 S
C668 C669 1.369 . S
C668 C670 1.419 . S
C668 H672 0.930 . S
C669 C668 1.369 . S
C669 C678 1.429 . S
C670 C668 1.419 . S
C670 C671 1.363 . S
C670 H673 0.929 . S
C671 C670 1.363 . S
C671 C677 1.428 . S
H672 C668 0.930 . S
H673 C670 0.929 . S
S674 N675 1.613 . S
S674 N676 1.610 . S
N675 S674 1.613 . S
N675 C678 1.350 . S
N676 S674 1.610 . S
N676 C677 1.351 . S
C677 C671 1.428 . S
C677 N676 1.351 . S
C677 C678 1.434 . S
C678 C669 1.429 . S
C678 N675 1.350 . S
C678 C677 1.434 . S
C679 C680 1.369 . S
C679 C681 1.419 . S
C679 H683 0.930 . S
C680 C679 1.369 . S
C680 C689 1.429 . S
C681 C679 1.419 . S
C681 C682 1.363 . S
C681 H684 0.929 . S
C682 C681 1.363 . S
C682 C688 1.428 . S
H683 C679 0.930 . S
H684 C681 0.929 . S
S685 N686 1.613 . S
S685 N687 1.610 . S
N686 S685 1.613 . S
N686 C689 1.350 . S
N687 S685 1.610 . S
N687 C688 1.351 . S
C688 C682 1.428 . S
C688 N687 1.351 . S
C688 C689 1.434 . S
C689 C680 1.429 . S
C689 N686 1.350 . S
C689 C688 1.434 . S
C690 C691 1.369 . S
C690 C692 1.419 . S
C690 H694 0.930 . S
C691 C690 1.369 . S
C691 C700 1.429 . S
C692 C690 1.419 . S
C692 C693 1.363 . S
C692 H695 0.929 . S
C693 C692 1.363 . S
C693 C699 1.428 . S
H694 C690 0.930 . S
H695 C692 0.929 . S
S696 N697 1.613 . S
S696 N698 1.610 . S
N697 S696 1.613 . S
N697 C700 1.350 . S
N698 S696 1.610 . S
N698 C699 1.351 . S
C699 C693 1.428 . S
C699 N698 1.351 . S
C699 C700 1.434 . S
C700 C691 1.429 . S
C700 N697 1.350 . S
C700 C699 1.434 . S
C701 C702 1.369 . S
C701 C703 1.419 . S
C701 H705 0.930 . S
C702 C701 1.369 . S
C702 C711 1.429 . S
C703 C701 1.419 . S
C703 C704 1.363 . S
C703 H706 0.929 . S
C704 C703 1.363 . S
C704 C710 1.428 . S
H705 C701 0.930 . S
H706 C703 0.929 . S
S707 N708 1.613 . S
S707 N709 1.610 . S
N708 S707 1.613 . S
N708 C711 1.350 . S
N709 S707 1.610 . S
N709 C710 1.351 . S
C710 C704 1.428 . S
C710 N709 1.351 . S
C710 C711 1.434 . S
C711 C702 1.429 . S
C711 N708 1.350 . S
C711 C710 1.434 . S
C712 C713 1.369 . S
C712 C714 1.419 . S
C712 H716 0.930 . S
C713 C712 1.369 . S
C713 C722 1.429 . S
C714 C712 1.419 . S
C714 C715 1.363 . S
C714 H717 0.929 . S
C715 C714 1.363 . S
C715 C721 1.428 . S
H716 C712 0.930 . S
H717 C714 0.929 . S
S718 N719 1.613 . S
S718 N720 1.610 . S
N719 S718 1.613 . S
N719 C722 1.350 . S
N720 S718 1.610 . S
N720 C721 1.351 . S
C721 C715 1.428 . S
C721 N720 1.351 . S
C721 C722 1.434 . S
C722 C713 1.429 . S
C722 N719 1.350 . S
C722 C721 1.434 . S
C723 C724 1.369 . S
C723 C725 1.419 . S
C723 H727 0.930 . S
C724 C723 1.369 . S
C724 C733 1.429 . S
C725 C723 1.419 . S
C725 C726 1.363 . S
C725 H728 0.929 . S
C726 C725 1.363 . S
C726 C732 1.428 . S
H727 C723 0.930 . S
H728 C725 0.929 . S
S729 N730 1.613 . S
S729 N731 1.610 . S
N730 S729 1.613 . S
N730 C733 1.350 . S
N731 S729 1.610 . S
N731 C732 1.351 . S
C732 C726 1.428 . S
C732 N731 1.351 . S
C732 C733 1.434 . S
C733 C724 1.429 . S
C733 N730 1.350 . S
C733 C732 1.434 . S
C734 C735 1.369 . S
C734 C736 1.419 . S
C734 H738 0.930 . S
C735 C734 1.369 . S
C735 C744 1.429 . S
C736 C734 1.419 . S
C736 C737 1.363 . S
C736 H739 0.929 . S
C737 C736 1.363 . S
C737 C743 1.428 . S
H738 C734 0.930 . S
H739 C736 0.929 . S
S740 N741 1.613 . S
S740 N742 1.610 . S
N741 S740 1.613 . S
N741 C744 1.350 . S
N742 S740 1.610 . S
N742 C743 1.351 . S
C743 C737 1.428 . S
C743 N742 1.351 . S
C743 C744 1.434 . S
C744 C735 1.429 . S
C744 N741 1.350 . S
C744 C743 1.434 . S
C745 C746 1.369 . S
C745 C747 1.419 . S
C745 H749 0.930 . S
C746 C745 1.369 . S
C746 C755 1.429 . S
C747 C745 1.419 . S
C747 C748 1.363 . S
C747 H750 0.929 . S
C748 C747 1.363 . S
C748 C754 1.428 . S
H749 C745 0.930 . S
H750 C747 0.929 . S
S751 N752 1.613 . S
S751 N753 1.610 . S
N752 S751 1.613 . S
N752 C755 1.350 . S
N753 S751 1.610 . S
N753 C754 1.351 . S
C754 C748 1.428 . S
C754 N753 1.351 . S
C754 C755 1.434 . S
C755 C746 1.429 . S
C755 N752 1.350 . S
C755 C754 1.434 . S
C756 C757 1.369 . S
C756 C758 1.419 1_556 S
C756 H760 0.930 . S
C757 C756 1.369 . S
C757 C766 1.429 . S
C758 C756 1.419 1_554 S
C758 C759 1.363 . S
C758 H761 0.929 . S
C759 C758 1.363 . S
C759 C765 1.428 . S
H760 C756 0.930 . S
H761 C758 0.929 . S
S762 N763 1.615 1_554 S
S762 N764 1.608 . S
N763 S762 1.615 1_556 S
N763 C766 1.350 . S
N764 S762 1.608 . S
N764 C765 1.351 . S
C765 C759 1.428 . S
C765 N764 1.351 . S
C765 C766 1.434 1_554 S
C766 C757 1.429 . S
C766 N763 1.350 . S
C766 C765 1.434 1_556 S
C767 C768 1.369 . S
C767 C769 1.419 1_554 S
C767 H771 0.930 . S
C768 C767 1.369 . S
C768 C777 1.429 . S
C769 C767 1.419 1_556 S
C769 C770 1.363 . S
C769 H772 0.929 . S
C770 C769 1.363 . S
C770 C776 1.428 . S
H771 C767 0.930 . S
H772 C769 0.929 . S
S773 N774 1.615 1_556 S
S773 N775 1.608 . S
N774 S773 1.615 1_554 S
N774 C777 1.350 . S
N775 S773 1.608 . S
N775 C776 1.351 . S
C776 C770 1.428 . S
C776 N775 1.351 . S
C776 C777 1.434 1_556 S
C777 C768 1.429 . S
C777 N774 1.350 . S
C777 C776 1.434 1_554 S
C778 C779 1.369 . S
C778 C780 1.419 1_554 S
C778 H782 0.930 . S
C779 C778 1.369 . S
C779 C788 1.429 . S
C780 C778 1.419 1_556 S
C780 C781 1.363 . S
C780 H783 0.929 . S
C781 C780 1.363 . S
C781 C787 1.428 . S
H782 C778 0.930 . S
H783 C780 0.929 . S
S784 N785 1.615 1_556 S
S784 N786 1.608 . S
N785 S784 1.615 1_554 S
N785 C788 1.350 . S
N786 S784 1.608 . S
N786 C787 1.351 . S
C787 C781 1.428 . S
C787 N786 1.351 . S
C787 C788 1.434 1_556 S
C788 C779 1.429 . S
C788 N785 1.350 . S
C788 C787 1.434 1_554 S
C789 C790 1.369 . S
C789 C791 1.419 1_556 S
C789 H793 0.930 . S
C790 C789 1.369 . S
C790 C799 1.429 . S
C791 C789 1.419 1_554 S
C791 C792 1.363 . S
C791 H794 0.929 . S
C792 C791 1.363 . S
C792 C798 1.428 . S
H793 C789 0.930 . S
H794 C791 0.929 . S
S795 N796 1.615 1_554 S
S795 N797 1.608 . S
N796 S795 1.615 1_556 S
N796 C799 1.350 . S
N797 S795 1.608 . S
N797 C798 1.351 . S
C798 C792 1.428 . S
C798 N797 1.351 . S
C798 C799 1.434 1_554 S
C799 C790 1.429 . S
C799 N796 1.350 . S
C799 C798 1.434 1_556 S
C800 C801 1.369 . S
C800 C802 1.419 1_545 S
C800 H804 0.930 . S
C801 C800 1.369 . S
C801 C810 1.429 . S
C802 C800 1.419 1_565 S
C802 C803 1.363 . S
C802 H805 0.929 . S
C803 C802 1.363 . S
C803 C809 1.428 . S
H804 C800 0.930 . S
H805 C802 0.929 . S
S806 N807 1.613 . S
S806 N808 1.610 1_545 S
N807 S806 1.613 . S
N807 C810 1.350 . S
N808 S806 1.610 1_565 S
N808 C809 1.351 . S
C809 C803 1.428 . S
C809 N808 1.351 . S
C809 C810 1.434 1_565 S
C810 C801 1.429 . S
C810 N807 1.350 . S
C810 C809 1.434 1_545 S
C811 C812 1.369 . S
C811 C813 1.419 1_655 S
C811 H815 0.930 . S
C812 C811 1.369 . S
C812 C821 1.429 . S
C813 C811 1.419 1_455 S
C813 C814 1.363 . S
C813 H816 0.929 . S
C814 C813 1.363 . S
C814 C820 1.428 . S
H815 C811 0.930 . S
H816 C813 0.929 . S
S817 N818 1.613 1_455 S
S817 N819 1.610 . S
N818 S817 1.613 1_655 S
N818 C821 1.350 . S
N819 S817 1.610 . S
N819 C820 1.351 . S
C820 C814 1.428 . S
C820 N819 1.351 . S
C820 C821 1.434 1_455 S
C821 C812 1.429 . S
C821 N818 1.350 . S
C821 C820 1.434 1_655 S
C822 C823 1.369 . S
C822 C824 1.419 1_545 S
C822 H826 0.930 . S
C823 C822 1.369 . S
C823 C832 1.429 . S
C824 C822 1.419 1_565 S
C824 C825 1.363 . S
C824 H827 0.929 . S
C825 C824 1.363 . S
C825 C831 1.428 . S
H826 C822 0.930 . S
H827 C824 0.929 . S
S828 N829 1.613 . S
S828 N830 1.610 1_545 S
N829 S828 1.613 . S
N829 C832 1.350 . S
N830 S828 1.610 1_565 S
N830 C831 1.351 . S
C831 C825 1.428 . S
C831 N830 1.351 . S
C831 C832 1.434 1_565 S
C832 C823 1.429 . S
C832 N829 1.350 . S
C832 C831 1.434 1_545 S
C833 C834 1.369 1_655 S
C833 C835 1.419 . S
C833 H837 0.930 . S
C834 C833 1.369 1_455 S
C834 C843 1.429 . S
C835 C833 1.419 . S
C835 C836 1.363 . S
C835 H838 0.929 . S
C836 C835 1.363 . S
C836 C842 1.428 1_655 S
H837 C833 0.930 . S
H838 C835 0.929 . S
S839 N840 1.613 . S
S839 N841 1.610 . S
N840 S839 1.613 . S
N840 C843 1.350 . S
N841 S839 1.610 . S
N841 C842 1.351 . S
C842 C836 1.428 1_455 S
C842 N841 1.351 . S
C842 C843 1.434 . S
C843 C834 1.429 . S
C843 N840 1.350 . S
C843 C842 1.434 . S
C844 C845 1.369 . S
C844 C846 1.419 . S
C844 H848 0.930 . S
C845 C844 1.369 . S
C845 C854 1.429 1_565 S
C846 C844 1.419 . S
C846 C847 1.363 1_565 S
C846 H849 0.929 . S
C847 C846 1.363 1_545 S
C847 C853 1.428 . S
H848 C844 0.930 . S
H849 C846 0.929 . S
S850 N851 1.613 . S
S850 N852 1.610 . S
N851 S850 1.613 . S
N851 C854 1.350 . S
N852 S850 1.610 . S
N852 C853 1.351 . S
C853 C847 1.428 . S
C853 N852 1.351 . S
C853 C854 1.434 . S
C854 C845 1.429 1_545 S
C854 N851 1.350 . S
C854 C853 1.434 . S
C855 C856 1.369 . S
C855 C857 1.419 . S
C855 H859 0.930 . S
C856 C855 1.369 . S
C856 C865 1.429 1_655 S
C857 C855 1.419 . S
C857 C858 1.363 1_655 S
C857 H860 0.929 . S
C858 C857 1.363 1_455 S
C858 C864 1.428 . S
H859 C855 0.930 . S
H860 C857 0.929 . S
S861 N862 1.613 . S
S861 N863 1.610 . S
N862 S861 1.613 . S
N862 C865 1.350 . S
N863 S861 1.610 . S
N863 C864 1.351 . S
C864 C858 1.428 . S
C864 N863 1.351 . S
C864 C865 1.434 . S
C865 C856 1.429 1_455 S
C865 N862 1.350 . S
C865 C864 1.434 . S
C866 C867 1.369 . S
C866 C868 1.419 . S
C866 H870 0.930 . S
C867 C866 1.369 . S
C867 C876 1.429 1_565 S
C868 C866 1.419 . S
C868 C869 1.363 1_565 S
C868 H871 0.929 . S
C869 C868 1.363 1_545 S
C869 C875 1.428 . S
H870 C866 0.930 . S
H871 C868 0.929 . S
S872 N873 1.613 . S
S872 N874 1.610 . S
N873 S872 1.613 . S
N873 C876 1.350 . S
N874 S872 1.610 . S
N874 C875 1.351 . S
C875 C869 1.428 . S
C875 N874 1.351 . S
C875 C876 1.434 . S
C876 C867 1.429 1_545 S
C876 N873 1.350 . S
C876 C875 1.434 . S
C877 C878 1.369 . S
C877 C879 1.419 . S
C877 H881 0.930 . S
C878 C877 1.369 . S
C878 C887 1.429 1_655 S
C879 C877 1.419 . S
C879 C880 1.363 1_655 S
C879 H882 0.929 . S
C880 C879 1.363 1_455 S
C880 C886 1.428 . S
H881 C877 0.930 . S
H882 C879 0.929 . S
S883 N884 1.613 . S
S883 N885 1.610 . S
N884 S883 1.613 . S
N884 C887 1.350 . S
N885 S883 1.610 . S
N885 C886 1.351 . S
C886 C880 1.428 . S
C886 N885 1.351 . S
C886 C887 1.434 . S
C887 C878 1.429 1_455 S
C887 N884 1.350 . S
C887 C886 1.434 . S
C888 C889 1.369 . S
C888 C890 1.419 . S
C888 H892 0.930 . S
C889 C888 1.369 . S
C889 C898 1.429 . S
C890 C888 1.419 . S
C890 C891 1.363 . S
C890 H893 0.929 . S
C891 C890 1.363 . S
C891 C897 1.428 . S
H892 C888 0.930 . S
H893 C890 0.929 . S
S894 N895 1.613 . S
S894 N896 1.610 . S
N895 S894 1.613 . S
N895 C898 1.350 . S
N896 S894 1.610 . S
N896 C897 1.351 . S
C897 C891 1.428 . S
C897 N896 1.351 . S
C897 C898 1.434 . S
C898 C889 1.429 . S
C898 N895 1.350 . S
C898 C897 1.434 . S
C899 C900 1.369 . S
C899 C901 1.419 . S
C899 H903 0.930 . S
C900 C899 1.369 . S
C900 C909 1.429 . S
C901 C899 1.419 . S
C901 C902 1.363 . S
C901 H904 0.929 . S
C902 C901 1.363 . S
C902 C908 1.428 . S
H903 C899 0.930 . S
H904 C901 0.929 . S
S905 N906 1.613 . S
S905 N907 1.610 . S
N906 S905 1.613 . S
N906 C909 1.350 . S
N907 S905 1.610 . S
N907 C908 1.351 . S
C908 C902 1.428 . S
C908 N907 1.351 . S
C908 C909 1.434 . S
C909 C900 1.429 . S
C909 N906 1.350 . S
C909 C908 1.434 . S
C910 C911 1.369 . S
C910 C912 1.419 . S
C910 H914 0.930 . S
C911 C910 1.369 . S
C911 C920 1.429 . S
C912 C910 1.419 . S
C912 C913 1.363 . S
C912 H915 0.929 . S
C913 C912 1.363 . S
C913 C919 1.428 . S
H914 C910 0.930 . S
H915 C912 0.929 . S
S916 N917 1.613 . S
S916 N918 1.610 . S
N917 S916 1.613 . S
N917 C920 1.350 . S
N918 S916 1.610 . S
N918 C919 1.351 . S
C919 C913 1.428 . S
C919 N918 1.351 . S
C919 C920 1.434 . S
C920 C911 1.429 . S
C920 N917 1.350 . S
C920 C919 1.434 . S
C921 C922 1.369 . S
C921 C923 1.419 . S
C921 H925 0.930 . S
C922 C921 1.369 . S
C922 C931 1.429 . S
C923 C921 1.419 . S
C923 C924 1.363 . S
C923 H926 0.929 . S
C924 C923 1.363 . S
C924 C930 1.428 . S
H925 C921 0.930 . S
H926 C923 0.929 . S
S927 N928 1.613 . S
S927 N929 1.610 . S
N928 S927 1.613 . S
N928 C931 1.350 . S
N929 S927 1.610 . S
N929 C930 1.351 . S
C930 C924 1.428 . S
C930 N929 1.351 . S
C930 C931 1.434 . S
C931 C922 1.429 . S
C931 N928 1.350 . S
C931 C930 1.434 . S
C932 C933 1.369 . S
C932 C934 1.419 . S
C932 H936 0.930 . S
C933 C932 1.369 . S
C933 C942 1.429 . S
C934 C932 1.419 . S
C934 C935 1.363 . S
C934 H937 0.929 . S
C935 C934 1.363 . S
C935 C941 1.428 . S
H936 C932 0.930 . S
H937 C934 0.929 . S
S938 N939 1.613 . S
S938 N940 1.610 . S
N939 S938 1.613 . S
N939 C942 1.350 . S
N940 S938 1.610 . S
N940 C941 1.351 . S
C941 C935 1.428 . S
C941 N940 1.351 . S
C941 C942 1.434 . S
C942 C933 1.429 . S
C942 N939 1.350 . S
C942 C941 1.434 . S
C943 C944 1.369 . S
C943 C945 1.419 . S
C943 H947 0.930 . S
C944 C943 1.369 . S
C944 C953 1.429 . S
C945 C943 1.419 . S
C945 C946 1.363 . S
C945 H948 0.929 . S
C946 C945 1.363 . S
C946 C952 1.428 . S
H947 C943 0.930 . S
H948 C945 0.929 . S
S949 N950 1.613 . S
S949 N951 1.610 . S
N950 S949 1.613 . S
N950 C953 1.350 . S
N951 S949 1.610 . S
N951 C952 1.351 . S
C952 C946 1.428 . S
C952 N951 1.351 . S
C952 C953 1.434 . S
C953 C944 1.429 . S
C953 N950 1.350 . S
C953 C952 1.434 . S
C954 C955 1.369 . S
C954 C956 1.419 . S
C954 H958 0.930 . S
C955 C954 1.369 . S
C955 C964 1.429 . S
C956 C954 1.419 . S
C956 C957 1.363 . S
C956 H959 0.929 . S
C957 C956 1.363 . S
C957 C963 1.428 . S
H958 C954 0.930 . S
H959 C956 0.929 . S
S960 N961 1.613 . S
S960 N962 1.610 . S
N961 S960 1.613 . S
N961 C964 1.350 . S
N962 S960 1.610 . S
N962 C963 1.351 . S
C963 C957 1.428 . S
C963 N962 1.351 . S
C963 C964 1.434 . S
C964 C955 1.429 . S
C964 N961 1.350 . S
C964 C963 1.434 . S
C965 C966 1.369 . S
C965 C967 1.419 . S
C965 H969 0.930 . S
C966 C965 1.369 . S
C966 C975 1.429 . S
C967 C965 1.419 . S
C967 C968 1.363 . S
C967 H970 0.929 . S
C968 C967 1.363 . S
C968 C974 1.428 . S
H969 C965 0.930 . S
H970 C967 0.929 . S
S971 N972 1.613 . S
S971 N973 1.610 . S
N972 S971 1.613 . S
N972 C975 1.350 . S
N973 S971 1.610 . S
N973 C974 1.351 . S
C974 C968 1.428 . S
C974 N973 1.351 . S
C974 C975 1.434 . S
C975 C966 1.429 . S
C975 N972 1.350 . S
C975 C974 1.434 . S
C976 C977 1.369 . S
C976 C978 1.419 . S
C976 H980 0.930 . S
C977 C976 1.369 . S
C977 C986 1.429 . S
C978 C976 1.419 . S
C978 C979 1.363 . S
C978 H981 0.929 . S
C979 C978 1.363 . S
C979 C985 1.428 . S
H980 C976 0.930 . S
H981 C978 0.929 . S
S982 N983 1.613 . S
S982 N984 1.610 . S
N983 S982 1.613 . S
N983 C986 1.350 . S
N984 S982 1.610 . S
N984 C985 1.351 . S
C985 C979 1.428 . S
C985 N984 1.351 . S
C985 C986 1.434 . S
C986 C977 1.429 . S
C986 N983 1.350 . S
C986 C985 1.434 . S
C987 C988 1.369 . S
C987 C989 1.419 . S
C987 H991 0.930 . S
C988 C987 1.369 . S
C988 C997 1.429 . S
C989 C987 1.419 . S
C989 C990 1.363 . S
C989 H992 0.929 . S
C990 C989 1.363 . S
C990 C996 1.428 . S
H991 C987 0.930 . S
H992 C989 0.929 . S
S993 N994 1.613 . S
S993 N995 1.610 . S
N994 S993 1.613 . S
N994 C997 1.350 . S
N995 S993 1.610 . S
N995 C996 1.351 . S
C996 C990 1.428 . S
C996 N995 1.351 . S
C996 C997 1.434 . S
C997 C988 1.429 . S
C997 N994 1.350 . S
C997 C996 1.434 . S
C998 C999 1.369 . S
C998 C1000 1.419 . S
C998 H1002 0.930 . S
C999 C998 1.369 . S
C999 C1008 1.429 . S
C1000 C998 1.419 . S
C1000 C1001 1.363 . S
C1000 H1003 0.929 . S
C1001 C1000 1.363 . S
C1001 C1007 1.428 . S
H1002 C998 0.930 . S
H1003 C1000 0.929 . S
S1004 N1005 1.613 . S
S1004 N1006 1.610 . S
N1005 S1004 1.613 . S
N1005 C1008 1.350 . S
N1006 S1004 1.610 . S
N1006 C1007 1.351 . S
C1007 C1001 1.428 . S
C1007 N1006 1.351 . S
C1007 C1008 1.434 . S
C1008 C999 1.429 . S
C1008 N1005 1.350 . S
C1008 C1007 1.434 . S
C1009 C1010 1.369 . S
C1009 C1011 1.419 . S
C1009 H1013 0.930 . S
C1010 C1009 1.369 . S
C1010 C1019 1.429 . S
C1011 C1009 1.419 . S
C1011 C1012 1.363 . S
C1011 H1014 0.929 . S
C1012 C1011 1.363 . S
C1012 C1018 1.428 . S
H1013 C1009 0.930 . S
H1014 C1011 0.929 . S
S1015 N1016 1.613 . S
S1015 N1017 1.610 . S
N1016 S1015 1.613 . S
N1016 C1019 1.350 . S
N1017 S1015 1.610 . S
N1017 C1018 1.351 . S
C1018 C1012 1.428 . S
C1018 N1017 1.351 . S
C1018 C1019 1.434 . S
C1019 C1010 1.429 . S
C1019 N1016 1.350 . S
C1019 C1018 1.434 . S
C1020 C1021 1.369 . S
C1020 C1022 1.419 . S
C1020 H1024 0.930 . S
C1021 C1020 1.369 . S
C1021 C1030 1.429 . S
C1022 C1020 1.419 . S
C1022 C1023 1.363 . S
C1022 H1025 0.929 . S
C1023 C1022 1.363 . S
C1023 C1029 1.428 . S
H1024 C1020 0.930 . S
H1025 C1022 0.929 . S
S1026 N1027 1.613 . S
S1026 N1028 1.610 . S
N1027 S1026 1.613 . S
N1027 C1030 1.350 . S
N1028 S1026 1.610 . S
N1028 C1029 1.351 . S
C1029 C1023 1.428 . S
C1029 N1028 1.351 . S
C1029 C1030 1.434 . S
C1030 C1021 1.429 . S
C1030 N1027 1.350 . S
C1030 C1029 1.434 . S
C1031 C1032 1.369 . S
C1031 C1033 1.419 . S
C1031 H1035 0.930 . S
C1032 C1031 1.369 . S
C1032 C1041 1.429 . S
C1033 C1031 1.419 . S
C1033 C1034 1.363 . S
C1033 H1036 0.929 . S
C1034 C1033 1.363 . S
C1034 C1040 1.428 . S
H1035 C1031 0.930 . S
H1036 C1033 0.929 . S
S1037 N1038 1.613 . S
S1037 N1039 1.610 . S
N1038 S1037 1.613 . S
N1038 C1041 1.350 . S
N1039 S1037 1.610 . S
N1039 C1040 1.351 . S
C1040 C1034 1.428 . S
C1040 N1039 1.351 . S
C1040 C1041 1.434 . S
C1041 C1032 1.429 . S
C1041 N1038 1.350 . S
C1041 C1040 1.434 . S
C1042 C1043 1.369 . S
C1042 C1044 1.419 . S
C1042 H1046 0.930 . S
C1043 C1042 1.369 . S
C1043 C1052 1.429 . S
C1044 C1042 1.419 . S
C1044 C1045 1.363 . S
C1044 H1047 0.929 . S
C1045 C1044 1.363 . S
C1045 C1051 1.428 . S
H1046 C1042 0.930 . S
H1047 C1044 0.929 . S
S1048 N1049 1.613 . S
S1048 N1050 1.610 . S
N1049 S1048 1.613 . S
N1049 C1052 1.350 . S
N1050 S1048 1.610 . S
N1050 C1051 1.351 . S
C1051 C1045 1.428 . S
C1051 N1050 1.351 . S
C1051 C1052 1.434 . S
C1052 C1043 1.429 . S
C1052 N1049 1.350 . S
C1052 C1051 1.434 . S
C1053 C1054 1.369 . S
C1053 C1055 1.419 . S
C1053 H1057 0.930 . S
C1054 C1053 1.369 . S
C1054 C1063 1.429 . S
C1055 C1053 1.419 . S
C1055 C1056 1.363 . S
C1055 H1058 0.929 . S
C1056 C1055 1.363 . S
C1056 C1062 1.428 . S
H1057 C1053 0.930 . S
H1058 C1055 0.929 . S
S1059 N1060 1.613 . S
S1059 N1061 1.610 . S
N1060 S1059 1.613 . S
N1060 C1063 1.350 . S
N1061 S1059 1.610 . S
N1061 C1062 1.351 . S
C1062 C1056 1.428 . S
C1062 N1061 1.351 . S
C1062 C1063 1.434 . S
C1063 C1054 1.429 . S
C1063 N1060 1.350 . S
C1063 C1062 1.434 . S
C1064 C1065 1.369 . S
C1064 C1066 1.419 . S
C1064 H1068 0.930 . S
C1065 C1064 1.369 . S
C1065 C1074 1.429 . S
C1066 C1064 1.419 . S
C1066 C1067 1.363 . S
C1066 H1069 0.929 . S
C1067 C1066 1.363 . S
C1067 C1073 1.428 . S
H1068 C1064 0.930 . S
H1069 C1066 0.929 . S
S1070 N1071 1.613 . S
S1070 N1072 1.610 . S
N1071 S1070 1.613 . S
N1071 C1074 1.350 . S
N1072 S1070 1.610 . S
N1072 C1073 1.351 . S
C1073 C1067 1.428 . S
C1073 N1072 1.351 . S
C1073 C1074 1.434 . S
C1074 C1065 1.429 . S
C1074 N1071 1.350 . S
C1074 C1073 1.434 . S
C1075 C1076 1.369 . S
C1075 C1077 1.419 . S
C1075 H1079 0.930 . S
C1076 C1075 1.369 . S
C1076 C1085 1.429 . S
C1077 C1075 1.419 . S
C1077 C1078 1.363 . S
C1077 H1080 0.929 . S
C1078 C1077 1.363 . S
C1078 C1084 1.428 . S
H1079 C1075 0.930 . S
H1080 C1077 0.929 . S
S1081 N1082 1.613 . S
S1081 N1083 1.610 . S
N1082 S1081 1.613 . S
N1082 C1085 1.350 . S
N1083 S1081 1.610 . S
N1083 C1084 1.351 . S
C1084 C1078 1.428 . S
C1084 N1083 1.351 . S
C1084 C1085 1.434 . S
C1085 C1076 1.429 . S
C1085 N1082 1.350 . S
C1085 C1084 1.434 . S
C1086 C1087 1.369 . S
C1086 C1088 1.419 . S
C1086 H1090 0.930 . S
C1087 C1086 1.369 . S
C1087 C1096 1.429 . S
C1088 C1086 1.419 . S
C1088 C1089 1.363 . S
C1088 H1091 0.929 . S
C1089 C1088 1.363 . S
C1089 C1095 1.428 . S
H1090 C1086 0.930 . S
H1091 C1088 0.929 . S
S1092 N1093 1.613 . S
S1092 N1094 1.610 . S
N1093 S1092 1.613 . S
N1093 C1096 1.350 . S
N1094 S1092 1.610 . S
N1094 C1095 1.351 . S
C1095 C1089 1.428 . S
C1095 N1094 1.351 . S
C1095 C1096 1.434 . S
C1096 C1087 1.429 . S
C1096 N1093 1.350 . S
C1096 C1095 1.434 . S
C1097 C1098 1.369 . S
C1097 C1099 1.419 . S
C1097 H1101 0.930 . S
C1098 C1097 1.369 . S
C1098 C1107 1.429 . S
C1099 C1097 1.419 . S
C1099 C1100 1.363 . S
C1099 H1102 0.929 . S
C1100 C1099 1.363 . S
C1100 C1106 1.428 . S
H1101 C1097 0.930 . S
H1102 C1099 0.929 . S
S1103 N1104 1.613 . S
S1103 N1105 1.610 . S
N1104 S1103 1.613 . S
N1104 C1107 1.350 . S
N1105 S1103 1.610 . S
N1105 C1106 1.351 . S
C1106 C1100 1.428 . S
C1106 N1105 1.351 . S
C1106 C1107 1.434 . S
C1107 C1098 1.429 . S
C1107 N1104 1.350 . S
C1107 C1106 1.434 . S
C1108 C1109 1.369 . S
C1108 C1110 1.419 . S
C1108 H1112 0.930 . S
C1109 C1108 1.369 . S
C1109 C1118 1.429 . S
C1110 C1108 1.419 . S
C1110 C1111 1.363 . S
C1110 H1113 0.929 . S
C1111 C1110 1.363 . S
C1111 C1117 1.428 . S
H1112 C1108 0.930 . S
H1113 C1110 0.929 . S
S1114 N1115 1.613 . S
S1114 N1116 1.610 . S
N1115 S1114 1.613 . S
N1115 C1118 1.350 . S
N1116 S1114 1.610 . S
N1116 C1117 1.351 . S
C1117 C1111 1.428 . S
C1117 N1116 1.351 . S
C1117 C1118 1.434 . S
C1118 C1109 1.429 . S
C1118 N1115 1.350 . S
C1118 C1117 1.434 . S
C1119 C1120 1.369 . S
C1119 C1121 1.419 . S
C1119 H1123 0.930 . S
C1120 C1119 1.369 . S
C1120 C1129 1.429 . S
C1121 C1119 1.419 . S
C1121 C1122 1.363 . S
C1121 H1124 0.929 . S
C1122 C1121 1.363 . S
C1122 C1128 1.428 . S
H1123 C1119 0.930 . S
H1124 C1121 0.929 . S
S1125 N1126 1.613 . S
S1125 N1127 1.610 . S
N1126 S1125 1.613 . S
N1126 C1129 1.350 . S
N1127 S1125 1.610 . S
N1127 C1128 1.351 . S
C1128 C1122 1.428 . S
C1128 N1127 1.351 . S
C1128 C1129 1.434 . S
C1129 C1120 1.429 . S
C1129 N1126 1.350 . S
C1129 C1128 1.434 . S
C1130 C1131 1.369 . S
C1130 C1132 1.419 . S
C1130 H1134 0.930 . S
C1131 C1130 1.369 . S
C1131 C1140 1.429 . S
C1132 C1130 1.419 . S
C1132 C1133 1.363 . S
C1132 H1135 0.929 . S
C1133 C1132 1.363 . S
C1133 C1139 1.428 . S
H1134 C1130 0.930 . S
H1135 C1132 0.929 . S
S1136 N1137 1.613 . S
S1136 N1138 1.610 . S
N1137 S1136 1.613 . S
N1137 C1140 1.350 . S
N1138 S1136 1.610 . S
N1138 C1139 1.351 . S
C1139 C1133 1.428 . S
C1139 N1138 1.351 . S
C1139 C1140 1.434 . S
C1140 C1131 1.429 . S
C1140 N1137 1.350 . S
C1140 C1139 1.434 . S
C1141 C1142 1.369 . S
C1141 C1143 1.419 . S
C1141 H1145 0.930 . S
C1142 C1141 1.369 . S
C1142 C1151 1.429 . S
C1143 C1141 1.419 . S
C1143 C1144 1.363 . S
C1143 H1146 0.929 . S
C1144 C1143 1.363 . S
C1144 C1150 1.428 . S
H1145 C1141 0.930 . S
H1146 C1143 0.929 . S
S1147 N1148 1.613 . S
S1147 N1149 1.610 . S
N1148 S1147 1.613 . S
N1148 C1151 1.350 . S
N1149 S1147 1.610 . S
N1149 C1150 1.351 . S
C1150 C1144 1.428 . S
C1150 N1149 1.351 . S
C1150 C1151 1.434 . S
C1151 C1142 1.429 . S
C1151 N1148 1.350 . S
C1151 C1150 1.434 . S
C449 C415 1.615 . S
C451 C9 1.614 . S
C460 C23 1.612 . S
C462 C429 1.612 . S
C471 C443 1.611 . S
C473 C37 1.611 . S
C482 C401 1.611 . S
C484 C51 1.612 . S
C493 C65 1.611 . S
C495 C387 1.612 . S
C504 C345 1.610 . S
C506 C79 1.611 . S
C515 C93 1.612 . S
C517 C359 1.612 . S
C526 C373 1.614 . S
C528 C107 1.614 . S
C537 C121 1.613 . S
C539 C303 1.613 . S
C548 C135 1.612 . S
C550 C317 1.612 . S
C559 C331 1.615 . S
C561 C149 1.615 . S
C570 C163 1.614 . S
C572 C289 1.614 . S
C581 C275 1.615 . S
C583 C177 1.614 . S
C592 C233 1.611 . S
C594 C191 1.611 . S
C603 C205 1.615 . S
C605 C247 1.614 . S
C614 C219 1.612 . S
C616 C261 1.613 . S
C625 C7 1.440 . S
C627 C147 1.439 . S
C636 C161 1.434 . S
C638 C21 1.435 . S
C647 C119 1.434 . S
C649 C35 1.434 . S
C658 C133 1.439 . S
C660 C49 1.438 . S
C669 C63 1.441 . S
C671 C203 1.440 . S
C680 C217 1.437 . S
C682 C77 1.438 . S
C691 C175 1.433 . S
C693 C91 1.434 . S
C702 C189 1.441 . S
C704 C105 1.440 . S
C713 C231 1.439 . S
C715 C371 1.439 . S
C724 C385 1.437 . S
C726 C245 1.437 . S
C735 C343 1.433 . S
C737 C259 1.434 . S
C746 C273 1.441 . S
C748 C357 1.440 . S
C757 C287 1.441 . S
C759 C427 1.440 . S
C768 C441 1.440 . S
C770 C301 1.440 . S
C779 C399 1.434 . S
C781 C315 1.434 . S
C790 C329 1.441 . S
C792 C413 1.440 . S
C801 C6 1.537 . S
C803 C62 1.542 . S
C812 C20 1.542 . S
C814 C76 1.540 . S
C823 C90 1.536 . S
C825 C34 1.537 . S
C834 C48 1.534 . S
C836 C104 1.540 . S
C845 C118 1.540 . S
C847 C174 1.535 . S
C856 C188 1.542 . S
C858 C132 1.536 . S
C867 C202 1.540 . S
C869 C146 1.535 . S
C878 C160 1.541 . S
C880 C216 1.536 . S
C889 C230 1.542 . S
C891 C286 1.536 . S
C900 C300 1.539 . S
C902 C244 1.542 . S
C911 C258 1.537 . S
C913 C314 1.542 . S
C922 C328 1.543 . S
C924 C272 1.536 . S
C933 C398 1.543 . S
C935 C342 1.538 . S
C944 C356 1.541 . S
C946 C412 1.542 . S
C955 C370 1.535 . S
C957 C426 1.541 . S
C966 C384 1.540 . S
C968 C440 1.535 . S
C977 C8 1.426 . S
C979 C78 1.424 . S
C988 C22 1.424 . S
C990 C92 1.425 . S
C999 C106 1.423 . S
C1001 C36 1.426 . S
C1010 C64 1.427 . S
C1012 C50 1.423 . S
C1021 C190 1.426 . S
C1023 C120 1.424 . S
C1032 C204 1.426 . S
C1034 C134 1.424 . S
C1043 C218 1.424 . S
C1045 C148 1.425 . S
C1054 C162 1.423 . S
C1056 C176 1.426 . S
C1065 C232 1.427 . S
C1067 C302 1.423 . S
C1076 C316 1.423 . S
C1078 C246 1.426 . S
C1087 C330 1.423 . S
C1089 C260 1.426 . S
C1098 C274 1.426 . S
C1100 C288 1.424 . S
C1109 C414 1.423 . S
C1111 C344 1.426 . S
C1120 C358 1.425 . S
C1122 C428 1.425 . S
C1131 C372 1.426 . S
C1133 C442 1.424 . S
C1142 C400 1.427 . S
C1144 C386 1.423 . S
