# Generated by pormake.
# Topology wir, (6)-cn, num edge types: 1
# Building blocks:
#     Node 0, Type 0, BuildingBlock: CUWYAW_clean_sbu_0, # of connection points: 6
#     Node 1, Type 0, BuildingBlock: CUWYAW_clean_sbu_0, # of connection points: 6
#     Node 2, Type 0, BuildingBlock: CUWYAW_clean_sbu_0, # of connection points: 6
#     Node 3, Type 0, BuildingBlock: CUWYAW_clean_sbu_0, # of connection points: 6
#     Node 4, Type 0, BuildingBlock: CUWYAW_clean_sbu_0, # of connection points: 6
#     Node 5, Type 0, BuildingBlock: CUWYAW_clean_sbu_0, # of connection points: 6
#     Node 6, Type 0, BuildingBlock: CUWYAW_clean_sbu_0, # of connection points: 6
#     Node 7, Type 0, BuildingBlock: CUWYAW_clean_sbu_0, # of connection points: 6
#     Node 8, Type 0, BuildingBlock: CUWYAW_clean_sbu_0, # of connection points: 6
#     Node 9, Type 0, BuildingBlock: CUWYAW_clean_sbu_0, # of connection points: 6
#     Node 10, Type 0, BuildingBlock: CUWYAW_clean_sbu_0, # of connection points: 6
#     Node 11, Type 0, BuildingBlock: CUWYAW_clean_sbu_0, # of connection points: 6
#     Node 12, Type 0, BuildingBlock: CUWYAW_clean_sbu_0, # of connection points: 6
#     Node 13, Type 0, BuildingBlock: CUWYAW_clean_sbu_0, # of connection points: 6
#     Node 14, Type 0, BuildingBlock: CUWYAW_clean_sbu_0, # of connection points: 6
#     Node 15, Type 0, BuildingBlock: CUWYAW_clean_sbu_0, # of connection points: 6
#     Node 16, Type 0, BuildingBlock: CUWYAW_clean_sbu_0, # of connection points: 6
#     Node 17, Type 0, BuildingBlock: CUWYAW_clean_sbu_0, # of connection points: 6
#     Node 18, Type 0, BuildingBlock: CUWYAW_clean_sbu_0, # of connection points: 6
#     Node 19, Type 0, BuildingBlock: CUWYAW_clean_sbu_0, # of connection points: 6
#     Node 20, Type 0, BuildingBlock: CUWYAW_clean_sbu_0, # of connection points: 6
#     Node 21, Type 0, BuildingBlock: CUWYAW_clean_sbu_0, # of connection points: 6
#     Node 22, Type 0, BuildingBlock: CUWYAW_clean_sbu_0, # of connection points: 6
#     Node 23, Type 0, BuildingBlock: CUWYAW_clean_sbu_0, # of connection points: 6
#     Node 24, Type 0, BuildingBlock: CUWYAW_clean_sbu_0, # of connection points: 6
#     Node 25, Type 0, BuildingBlock: CUWYAW_clean_sbu_0, # of connection points: 6
#     Node 26, Type 0, BuildingBlock: CUWYAW_clean_sbu_0, # of connection points: 6
#     Node 27, Type 0, BuildingBlock: CUWYAW_clean_sbu_0, # of connection points: 6
#     Node 28, Type 0, BuildingBlock: CUWYAW_clean_sbu_0, # of connection points: 6
#     Node 29, Type 0, BuildingBlock: CUWYAW_clean_sbu_0, # of connection points: 6
#     Node 30, Type 0, BuildingBlock: CUWYAW_clean_sbu_0, # of connection points: 6
#     Node 31, Type 0, BuildingBlock: CUWYAW_clean_sbu_0, # of connection points: 6
#     Edge 32, Type (0, 0), BuildingBlock: EZIPEK_clean_linker_0, # of connection points: 2
#     Edge 33, Type (0, 0), BuildingBlock: EZIPEK_clean_linker_0, # of connection points: 2
#     Edge 34, Type (0, 0), BuildingBlock: EZIPEK_clean_linker_0, # of connection points: 2
#     Edge 35, Type (0, 0), BuildingBlock: EZIPEK_clean_linker_0, # of connection points: 2
#     Edge 36, Type (0, 0), BuildingBlock: EZIPEK_clean_linker_0, # of connection points: 2
#     Edge 37, Type (0, 0), BuildingBlock: EZIPEK_clean_linker_0, # of connection points: 2
#     Edge 38, Type (0, 0), BuildingBlock: EZIPEK_clean_linker_0, # of connection points: 2
#     Edge 39, Type (0, 0), BuildingBlock: EZIPEK_clean_linker_0, # of connection points: 2
#     Edge 40, Type (0, 0), BuildingBlock: EZIPEK_clean_linker_0, # of connection points: 2
#     Edge 41, Type (0, 0), BuildingBlock: EZIPEK_clean_linker_0, # of connection points: 2
#     Edge 42, Type (0, 0), BuildingBlock: EZIPEK_clean_linker_0, # of connection points: 2
#     Edge 43, Type (0, 0), BuildingBlock: EZIPEK_clean_linker_0, # of connection points: 2
#     Edge 44, Type (0, 0), BuildingBlock: EZIPEK_clean_linker_0, # of connection points: 2
#     Edge 45, Type (0, 0), BuildingBlock: EZIPEK_clean_linker_0, # of connection points: 2
#     Edge 46, Type (0, 0), BuildingBlock: EZIPEK_clean_linker_0, # of connection points: 2
#     Edge 47, Type (0, 0), BuildingBlock: EZIPEK_clean_linker_0, # of connection points: 2
#     Edge 48, Type (0, 0), BuildingBlock: EZIPEK_clean_linker_0, # of connection points: 2
#     Edge 49, Type (0, 0), BuildingBlock: EZIPEK_clean_linker_0, # of connection points: 2
#     Edge 50, Type (0, 0), BuildingBlock: EZIPEK_clean_linker_0, # of connection points: 2
#     Edge 51, Type (0, 0), BuildingBlock: EZIPEK_clean_linker_0, # of connection points: 2
#     Edge 52, Type (0, 0), BuildingBlock: EZIPEK_clean_linker_0, # of connection points: 2
#     Edge 53, Type (0, 0), BuildingBlock: EZIPEK_clean_linker_0, # of connection points: 2
#     Edge 54, Type (0, 0), BuildingBlock: EZIPEK_clean_linker_0, # of connection points: 2
#     Edge 55, Type (0, 0), BuildingBlock: EZIPEK_clean_linker_0, # of connection points: 2
#     Edge 56, Type (0, 0), BuildingBlock: EZIPEK_clean_linker_0, # of connection points: 2
#     Edge 57, Type (0, 0), BuildingBlock: EZIPEK_clean_linker_0, # of connection points: 2
#     Edge 58, Type (0, 0), BuildingBlock: EZIPEK_clean_linker_0, # of connection points: 2
#     Edge 59, Type (0, 0), BuildingBlock: EZIPEK_clean_linker_0, # of connection points: 2
#     Edge 60, Type (0, 0), BuildingBlock: EZIPEK_clean_linker_0, # of connection points: 2
#     Edge 61, Type (0, 0), BuildingBlock: EZIPEK_clean_linker_0, # of connection points: 2
#     Edge 62, Type (0, 0), BuildingBlock: EZIPEK_clean_linker_0, # of connection points: 2
#     Edge 63, Type (0, 0), BuildingBlock: EZIPEK_clean_linker_0, # of connection points: 2
#     Edge 64, Type (0, 0), BuildingBlock: EZIPEK_clean_linker_0, # of connection points: 2
#     Edge 65, Type (0, 0), BuildingBlock: EZIPEK_clean_linker_0, # of connection points: 2
#     Edge 66, Type (0, 0), BuildingBlock: EZIPEK_clean_linker_0, # of connection points: 2
#     Edge 67, Type (0, 0), BuildingBlock: EZIPEK_clean_linker_0, # of connection points: 2
#     Edge 68, Type (0, 0), BuildingBlock: EZIPEK_clean_linker_0, # of connection points: 2
#     Edge 69, Type (0, 0), BuildingBlock: EZIPEK_clean_linker_0, # of connection points: 2
#     Edge 70, Type (0, 0), BuildingBlock: EZIPEK_clean_linker_0, # of connection points: 2
#     Edge 71, Type (0, 0), BuildingBlock: EZIPEK_clean_linker_0, # of connection points: 2
#     Edge 72, Type (0, 0), BuildingBlock: EZIPEK_clean_linker_0, # of connection points: 2
#     Edge 73, Type (0, 0), BuildingBlock: EZIPEK_clean_linker_0, # of connection points: 2
#     Edge 74, Type (0, 0), BuildingBlock: EZIPEK_clean_linker_0, # of connection points: 2
#     Edge 75, Type (0, 0), BuildingBlock: EZIPEK_clean_linker_0, # of connection points: 2
#     Edge 76, Type (0, 0), BuildingBlock: EZIPEK_clean_linker_0, # of connection points: 2
#     Edge 77, Type (0, 0), BuildingBlock: EZIPEK_clean_linker_0, # of connection points: 2
#     Edge 78, Type (0, 0), BuildingBlock: EZIPEK_clean_linker_0, # of connection points: 2
#     Edge 79, Type (0, 0), BuildingBlock: EZIPEK_clean_linker_0, # of connection points: 2
#     Edge 80, Type (0, 0), BuildingBlock: EZIPEK_clean_linker_0, # of connection points: 2
#     Edge 81, Type (0, 0), BuildingBlock: EZIPEK_clean_linker_0, # of connection points: 2
#     Edge 82, Type (0, 0), BuildingBlock: EZIPEK_clean_linker_0, # of connection points: 2
#     Edge 83, Type (0, 0), BuildingBlock: EZIPEK_clean_linker_0, # of connection points: 2
#     Edge 84, Type (0, 0), BuildingBlock: EZIPEK_clean_linker_0, # of connection points: 2
#     Edge 85, Type (0, 0), BuildingBlock: EZIPEK_clean_linker_0, # of connection points: 2
#     Edge 86, Type (0, 0), BuildingBlock: EZIPEK_clean_linker_0, # of connection points: 2
#     Edge 87, Type (0, 0), BuildingBlock: EZIPEK_clean_linker_0, # of connection points: 2
#     Edge 88, Type (0, 0), BuildingBlock: EZIPEK_clean_linker_0, # of connection points: 2
#     Edge 89, Type (0, 0), BuildingBlock: EZIPEK_clean_linker_0, # of connection points: 2
#     Edge 90, Type (0, 0), BuildingBlock: EZIPEK_clean_linker_0, # of connection points: 2
#     Edge 91, Type (0, 0), BuildingBlock: EZIPEK_clean_linker_0, # of connection points: 2
#     Edge 92, Type (0, 0), BuildingBlock: EZIPEK_clean_linker_0, # of connection points: 2
#     Edge 93, Type (0, 0), BuildingBlock: EZIPEK_clean_linker_0, # of connection points: 2
#     Edge 94, Type (0, 0), BuildingBlock: EZIPEK_clean_linker_0, # of connection points: 2
#     Edge 95, Type (0, 0), BuildingBlock: EZIPEK_clean_linker_0, # of connection points: 2
#     Edge 96, Type (0, 0), BuildingBlock: EZIPEK_clean_linker_0, # of connection points: 2
#     Edge 97, Type (0, 0), BuildingBlock: EZIPEK_clean_linker_0, # of connection points: 2
#     Edge 98, Type (0, 0), BuildingBlock: EZIPEK_clean_linker_0, # of connection points: 2
#     Edge 99, Type (0, 0), BuildingBlock: EZIPEK_clean_linker_0, # of connection points: 2
#     Edge 100, Type (0, 0), BuildingBlock: EZIPEK_clean_linker_0, # of connection points: 2
#     Edge 101, Type (0, 0), BuildingBlock: EZIPEK_clean_linker_0, # of connection points: 2
#     Edge 102, Type (0, 0), BuildingBlock: EZIPEK_clean_linker_0, # of connection points: 2
#     Edge 103, Type (0, 0), BuildingBlock: EZIPEK_clean_linker_0, # of connection points: 2
#     Edge 104, Type (0, 0), BuildingBlock: EZIPEK_clean_linker_0, # of connection points: 2
#     Edge 105, Type (0, 0), BuildingBlock: EZIPEK_clean_linker_0, # of connection points: 2
#     Edge 106, Type (0, 0), BuildingBlock: EZIPEK_clean_linker_0, # of connection points: 2
#     Edge 107, Type (0, 0), BuildingBlock: EZIPEK_clean_linker_0, # of connection points: 2
#     Edge 108, Type (0, 0), BuildingBlock: EZIPEK_clean_linker_0, # of connection points: 2
#     Edge 109, Type (0, 0), BuildingBlock: EZIPEK_clean_linker_0, # of connection points: 2
#     Edge 110, Type (0, 0), BuildingBlock: EZIPEK_clean_linker_0, # of connection points: 2
#     Edge 111, Type (0, 0), BuildingBlock: EZIPEK_clean_linker_0, # of connection points: 2
#     Edge 112, Type (0, 0), BuildingBlock: EZIPEK_clean_linker_0, # of connection points: 2
#     Edge 113, Type (0, 0), BuildingBlock: EZIPEK_clean_linker_0, # of connection points: 2
#     Edge 114, Type (0, 0), BuildingBlock: EZIPEK_clean_linker_0, # of connection points: 2
#     Edge 115, Type (0, 0), BuildingBlock: EZIPEK_clean_linker_0, # of connection points: 2
#     Edge 116, Type (0, 0), BuildingBlock: EZIPEK_clean_linker_0, # of connection points: 2
#     Edge 117, Type (0, 0), BuildingBlock: EZIPEK_clean_linker_0, # of connection points: 2
#     Edge 118, Type (0, 0), BuildingBlock: EZIPEK_clean_linker_0, # of connection points: 2
#     Edge 119, Type (0, 0), BuildingBlock: EZIPEK_clean_linker_0, # of connection points: 2
#     Edge 120, Type (0, 0), BuildingBlock: EZIPEK_clean_linker_0, # of connection points: 2
#     Edge 121, Type (0, 0), BuildingBlock: EZIPEK_clean_linker_0, # of connection points: 2
#     Edge 122, Type (0, 0), BuildingBlock: EZIPEK_clean_linker_0, # of connection points: 2
#     Edge 123, Type (0, 0), BuildingBlock: EZIPEK_clean_linker_0, # of connection points: 2
#     Edge 124, Type (0, 0), BuildingBlock: EZIPEK_clean_linker_0, # of connection points: 2
#     Edge 125, Type (0, 0), BuildingBlock: EZIPEK_clean_linker_0, # of connection points: 2
#     Edge 126, Type (0, 0), BuildingBlock: EZIPEK_clean_linker_0, # of connection points: 2
#     Edge 127, Type (0, 0), BuildingBlock: EZIPEK_clean_linker_0, # of connection points: 2
# Relax obj value: 0.593
# Max RMSD: 0.195
# Mean RMSD: 0.195
data_MOF--net-wir--node1-CUWYAW_clean_sbu_0--edge1-EZIPEK_clean_linker_0
_symmetry_space_group_name_H-M    P1
_symmetry_Int_Tables_number       1
_symmetry_cell_setting            triclinic
loop_
_symmetry_equiv_pos_as_xyz
'x, y, z'
_cell_length_a     29.707907
_cell_length_b     29.802669
_cell_length_c     82.885804
_cell_angle_alpha  90.034617
_cell_angle_beta   90.360127
_cell_angle_gamma 90.040871
loop_
_atom_site_label
_atom_site_type_symbol
_atom_site_fract_x
_atom_site_fract_y
_atom_site_fract_z
_atom_type_partial_charge
C0 C 0.21608 0.14824 0.4069 0.0
Eu1 Eu 0.22352 0.22442 0.42199 0.0
C2 C 0.23248 0.10264 0.40924 0.0
C3 C 0.212 0.06772 0.40077 0.0
C4 C 0.23007 1.0248 0.40155 0.0
C5 C 0.26863 1.01578 0.41111 0.0
C6 C 0.28674 1.05049 0.42059 0.0
C7 C 0.2695 0.09387 0.4193 0.0
C8 C 0.14087 0.27407 0.42377 0.0
C9 C 0.2651 0.27291 0.38944 0.0
C10 C 0.30562 0.33754 0.43381 0.0
Eu11 Eu 0.25806 0.26582 0.42785 0.0
C12 C 0.28708 0.38297 0.43418 0.0
C13 C 0.29867 0.41105 0.44713 0.0
C14 C 0.26577 0.43866 0.45387 0.0
C15 C 0.22156 0.43706 0.44773 0.0
C16 C 0.21332 0.41704 0.43274 0.0
C17 C 0.24632 0.3902 0.42586 0.0
C18 C 0.29773 0.19853 0.45505 0.0
C19 C 0.20291 0.2462 0.45658 0.0
O20 O 0.18686 0.16236 0.4174 0.0
O21 O 0.24682 0.17819 0.40359 0.0
O22 O 0.14642 0.23119 0.42598 0.0
O23 O 0.18199 0.28977 0.42118 0.0
O24 O 0.22609 0.25837 0.39515 0.0
O25 O 0.29247 0.27278 0.40192 0.0
O26 O 0.30527 0.31767 0.41982 0.0
O27 O 0.28927 0.31183 0.445 0.0
O28 O 0.2904 0.20099 0.43913 0.0
O29 O 0.28924 0.2026 0.43893 0.0
O30 O 0.2182 0.28254 0.45001 0.0
O31 O 0.20431 0.21047 0.4476 0.0
H32 H 0.18335 0.07407 0.39294 0.0
H33 H 0.21528 0.99943 0.39381 0.0
H34 H 0.31523 1.04491 0.42848 0.0
H35 H 0.2861 0.12082 0.42568 0.0
H36 H 0.33012 0.40625 0.45358 0.0
H37 H 0.27264 0.4546 0.46537 0.0
H38 H 0.1796 0.41639 0.42769 0.0
H39 H 0.23704 0.36955 0.4156 0.0
C40 C 0.21525 0.93883 0.66313 0.0
Eu41 Eu 0.13919 0.97644 0.67139 0.0
C42 C 0.26274 0.95058 0.66443 0.0
C43 C 0.29158 0.93851 0.65193 0.0
C44 C 0.33426 0.95749 0.65109 0.0
C45 C 0.34868 0.98868 0.66282 0.0
C46 C 0.32149 0.99648 0.67625 0.0
C47 C 0.27838 0.9782 0.67698 0.0
C48 C 0.09095 0.88331 0.67612 0.0
C49 C 0.09073 1.01792 0.63878 0.0
C50 C 1.02268 1.04785 0.6835 0.0
Eu51 Eu 0.09427 1.00096 0.67744 0.0
C52 C 0.97562 1.03354 0.68262 0.0
C53 C 0.95154 1.03823 0.69695 0.0
C54 C 0.92748 1.00174 0.70274 0.0
C55 C 0.92421 0.96231 0.69356 0.0
C56 C 0.93842 0.9624 0.67751 0.0
C57 C 0.96443 0.99824 0.67199 0.0
C58 C 0.1629 1.04787 0.70356 0.0
C59 C 0.11333 0.9495 0.70619 0.0
O60 O 0.19474 0.93094 0.67659 0.0
O61 O 0.19153 0.96418 0.65356 0.0
O62 O 0.08343 0.92242 0.66893 0.0
O63 O 0.0845 0.92331 0.66911 0.0
O64 O 0.1319 1.01259 0.64493 0.0
O65 O 0.06358 1.00963 0.6508 0.0
O66 O 1.04467 1.05136 0.66996 0.0
O67 O 1.04532 1.02564 0.69442 0.0
O68 O 0.15707 1.04248 0.68754 0.0
O69 O 0.15608 1.04157 0.68748 0.0
O70 O 0.07633 0.95977 0.69891 0.0
O71 O 0.14978 0.95723 0.69788 0.0
H72 H 0.27995 0.91702 0.6422 0.0
H73 H 0.35431 0.95073 0.6405 0.0
H74 H 0.33228 1.01892 0.68558 0.0
H75 H 0.2565 0.98771 0.68682 0.0
H76 H 0.95936 0.06535 0.70524 0.0
H77 H 0.91775 1.00187 0.71529 0.0
H78 H 0.93515 0.9325 0.67017 0.0
H79 H 0.98157 0.99451 0.66059 0.0
C80 C 0.39873 0.97119 0.91168 0.0
Eu81 Eu 0.37137 0.89477 0.92357 0.0
C82 C 0.37821 1.01566 0.91142 0.0
C83 C 0.38622 1.04289 0.89805 0.0
C84 C 0.35442 0.07475 0.89353 0.0
C85 C 0.31405 0.07895 0.90217 0.0
C86 C 0.30972 0.0571 0.917 0.0
C87 C 0.34181 1.02523 0.92162 0.0
C88 C 0.46116 0.8412 0.91675 0.0
C89 C 0.33567 0.85677 0.88906 0.0
C90 C 0.29722 0.78944 0.92811 0.0
Eu91 Eu 0.34394 0.86369 0.92727 0.0
C92 C 0.31268 0.74369 0.93064 0.0
C93 C 0.29676 0.72192 0.94436 0.0
C94 C 0.32524 0.69353 0.95276 0.0
C95 C 0.3689 0.68518 0.94704 0.0
C96 C 0.38091 0.6993 0.93156 0.0
C97 C 0.35297 0.72929 0.92341 0.0
C98 C 0.29816 0.92358 0.95594 0.0
C99 C 0.38975 0.87362 0.95818 0.0
O100 O 0.41196 0.95588 0.92559 0.0
O101 O 0.37587 0.94149 0.90354 0.0
O102 O 0.42858 0.84424 0.92736 0.0
O103 O 0.42678 0.8455 0.9272 0.0
O104 O 0.37419 0.85969 0.89683 0.0
O105 O 0.30828 0.8678 0.90079 0.0
O106 O 0.30961 0.80846 0.91481 0.0
O107 O 0.30372 0.81545 0.94051 0.0
O108 O 0.30489 0.92279 0.93995 0.0
O109 O 0.30634 0.92105 0.93974 0.0
O110 O 0.37264 0.83898 0.95101 0.0
O111 O 0.39088 0.90949 0.94925 0.0
H112 H 0.41429 1.03619 0.89012 0.0
H113 H 0.3592 0.09265 0.88233 0.0
H114 H 0.27965 0.06156 0.92407 0.0
H115 H 0.33588 1.00509 0.93224 0.0
H116 H 0.26547 0.73217 0.94992 0.0
H117 H 0.31471 0.68165 0.9645 0.0
H118 H 0.41377 0.69144 0.92673 0.0
H119 H 0.3655 0.74514 0.91256 0.0
C120 C 0.39909 0.09952 0.14955 0.0
Eu121 Eu 0.46441 0.10937 0.17043 0.0
C122 C 0.40049 0.0905 0.13199 0.0
C123 C 0.3926 0.12467 0.1207 0.0
C124 C 0.39682 0.11587 0.1042 0.0
C125 C 0.4094 0.07296 1.09879 0.0
C126 C 0.41776 1.03904 0.11001 0.0
C127 C 0.4123 1.04735 0.12639 0.0
C128 C 0.50807 0.19525 0.17253 0.0
C129 C 0.51642 0.06968 0.13925 0.0
C130 C 0.56955 1.02864 0.18275 0.0
Eu131 Eu 0.49955 0.07863 0.17675 0.0
C132 C 0.61564 1.0437 0.18512 0.0
C133 C 0.63448 1.03416 0.2002 0.0
C134 C 0.65828 0.06743 0.20819 0.0
C135 C 0.66613 0.10894 0.20065 0.0
C136 C 0.65641 0.1141 0.18424 0.0
C137 C 0.6304 0.08161 0.17647 0.0
C138 C 0.43055 1.04411 0.20454 0.0
C139 C 0.4792 0.13822 0.2044 0.0
O140 O 0.41516 0.06724 0.15839 0.0
O141 O 0.41193 0.1389 0.1548 0.0
O142 O 0.46466 0.18701 0.17307 0.0
O143 O 0.52626 0.15462 0.17137 0.0
O144 O 0.51166 0.10897 0.14637 0.0
O145 O 0.5022 1.04275 0.15065 0.0
O146 O 0.55267 1.03333 0.16837 0.0
O147 O 0.54259 1.04378 0.19376 0.0
O148 O 0.43597 1.04618 0.18856 0.0
O149 O 0.43798 1.04774 0.18844 0.0
O150 O 0.51589 0.12077 0.19869 0.0
O151 O 0.44439 0.1363 0.19475 0.0
H152 H 0.3834 0.15809 0.12462 0.0
H153 H 0.39014 0.14249 1.09562 0.0
H154 H 0.42736 1.0058 0.10602 0.0
H155 H 0.41819 1.01985 0.13466 0.0
H156 H 0.62391 1.00484 0.20693 0.0
H157 H 0.66715 0.06215 0.22076 0.0
H158 H 0.66468 0.14496 0.17806 0.0
H159 H 0.61685 0.08921 0.16461 0.0
C160 C 0.26187 0.9435 0.30915 0.0
Eu161 Eu 0.24598 0.88204 0.28745 0.0
C162 C 0.27067 0.94105 0.3267 0.0
C163 C 0.24034 0.95959 0.33773 0.0
C164 C 0.24955 0.95759 0.35427 0.0
C165 C 0.28874 0.93629 0.36 0.0
C166 C 0.31804 0.91612 0.3491 0.0
C167 C 0.31003 0.91998 0.33261 0.0
C168 C 0.15985 0.84018 0.28562 0.0
C169 C 0.28317 0.82547 0.31799 0.0
C170 C 0.32048 0.77331 0.27322 0.0
Eu171 Eu 0.27555 0.84605 0.28033 0.0
C172 C 0.30172 0.72784 0.27334 0.0
C173 C 0.31001 0.70021 0.26001 0.0
C174 C 0.27506 0.67408 0.2537 0.0
C175 C 0.23207 0.67654 0.26065 0.0
C176 C 0.22729 0.69561 0.27598 0.0
C177 C 0.26248 0.72091 0.28245 0.0
C178 C 0.31423 0.9116 0.25279 0.0
C179 C 0.21334 0.87783 0.25395 0.0
O180 O 0.29278 0.92512 0.30027 0.0
O181 O 0.22125 0.93465 0.30383 0.0
O182 O 0.16768 0.88355 0.2859 0.0
O183 O 0.1999 0.82075 0.28574 0.0
O184 O 0.24398 0.83316 0.31099 0.0
O185 O 0.31107 0.83856 0.30665 0.0
O186 O 0.32342 0.79321 0.28713 0.0
O187 O 0.30192 0.79925 0.2625 0.0
O188 O 0.30798 0.90981 0.26871 0.0
O189 O 0.30673 0.90806 0.26892 0.0
O190 O 0.23011 0.83936 0.25841 0.0
O191 O 0.21733 0.90992 0.26452 0.0
H192 H 0.21003 0.97623 0.33355 0.0
H193 H 0.2265 0.97336 0.36262 0.0
H194 H 0.34825 0.89936 0.35332 0.0
H195 H 0.33499 0.90628 0.32455 0.0
H196 H 0.34019 0.70476 0.25292 0.0
H197 H 0.27931 0.65892 0.24192 0.0
H198 H 0.19446 0.69746 0.28156 0.0
H199 H 0.25564 0.74137 0.29297 0.0
C200 C 0.38854 1.01905 0.55861 0.0
Eu201 Eu 0.45288 1.00572 0.53809 0.0
C202 C 0.39088 1.0254 0.57628 0.0
C203 C 0.38004 0.99043 0.58686 0.0
C204 C 0.38596 0.99611 0.60347 0.0
C205 C 0.40322 1.03658 0.60969 0.0
C206 C 0.41451 0.07127 0.59918 0.0
C207 C 0.40728 0.06623 0.58269 0.0
C208 C 0.49674 0.92064 0.53743 0.0
C209 C 0.50976 1.04423 0.56893 0.0
C210 C 0.56026 0.08398 0.52306 0.0
Eu211 Eu 0.49067 1.03618 0.53127 0.0
C212 C 0.60581 0.06865 0.52008 0.0
C213 C 0.62541 0.08249 0.50564 0.0
C214 C 0.65256 0.05286 0.49724 0.0
C215 C 0.66121 1.01 0.50355 0.0
C216 C 0.64854 0.99954 0.51932 0.0
C217 C 0.62035 1.02881 0.52759 0.0
C218 C 0.41907 0.069 0.50357 0.0
C219 C 0.46816 0.97181 0.50499 0.0
O220 O 0.40795 1.05092 0.55046 0.0
O221 O 0.3973 0.97922 0.55271 0.0
O222 O 0.45321 0.92795 0.53621 0.0
O223 O 0.51528 0.96111 0.53827 0.0
O224 O 0.49815 1.00503 0.56274 0.0
O225 O 0.5006 0.07215 0.5571 0.0
O226 O 0.546 0.08143 0.53783 0.0
O227 O 0.53151 0.06726 0.51285 0.0
O228 O 0.42614 0.06824 0.51954 0.0
O229 O 0.42805 0.06673 0.51964 0.0
O230 O 0.50528 0.98821 0.51094 0.0
O231 O 0.43268 0.97711 0.514 0.0
H232 H 0.36738 0.95874 0.58231 0.0
H233 H 0.37702 0.96892 0.61151 0.0
H234 H 0.42783 0.10262 0.6038 0.0
H235 H 0.41552 0.09427 0.57496 0.0
H236 H 0.61439 0.11303 0.49972 0.0
H237 H 0.66317 0.0617 0.48517 0.0
H238 H 0.65636 0.96705 0.52446 0.0
H239 H 0.60542 1.01755 0.53877 0.0
C240 C 0.36587 0.14615 0.807 0.0
Eu241 Eu 0.35601 0.21261 0.78646 0.0
C242 C 0.33458 0.12578 0.81837 0.0
C243 C 0.35214 0.10314 0.83172 0.0
C244 C 0.32508 0.0955 0.84506 0.0
C245 C 0.28067 0.11159 0.84535 0.0
C246 C 0.2616 0.13001 0.83136 0.0
C247 C 0.28846 0.13647 0.81777 0.0
C248 C 0.45418 0.25259 0.78936 0.0
C249 C 0.31926 0.25855 0.81772 0.0
C250 C 0.30002 0.31625 0.7748 0.0
Eu251 Eu 0.3353 0.23669 0.78028 0.0
C252 C 0.32009 0.3607 0.77576 0.0
C253 C 0.304 0.39373 0.76526 0.0
C254 C 0.33381 0.4255 0.75925 0.0
C255 C 0.3795 0.42315 0.76357 0.0
C256 C 0.393 0.39672 0.77669 0.0
C257 C 0.36304 0.36514 0.78281 0.0
C258 C 0.28734 0.17708 0.75243 0.0
C259 C 0.39081 0.18754 0.75573 0.0
O260 O 0.35722 0.14063 0.79182 0.0
O261 O 0.37608 0.18737 0.81022 0.0
O262 O 0.41895 0.25309 0.77957 0.0
O263 O 0.41742 0.25219 0.77981 0.0
O264 O 0.35609 0.26336 0.80948 0.0
O265 O 0.29704 0.23469 0.80683 0.0
O266 O 0.29609 0.29506 0.78826 0.0
O267 O 0.31717 0.29078 0.76377 0.0
O268 O 0.28985 0.18196 0.76844 0.0
O269 O 0.29202 0.18401 0.76869 0.0
O270 O 0.36819 0.22495 0.75577 0.0
O271 O 0.39511 0.16958 0.76975 0.0
H272 H 0.38753 0.09445 0.83233 0.0
H273 H 0.33994 0.08032 0.85567 0.0
H274 H 0.22726 0.14221 0.83137 0.0
H275 H 0.27414 0.15289 0.80729 0.0
H276 H 0.27078 0.39088 0.75988 0.0
H277 H 0.32302 0.44636 0.74924 0.0
H278 H 0.42818 0.39486 0.78015 0.0
H279 H 0.37575 0.33992 0.79107 0.0
C280 C 0.22663 0.1576 1.04552 0.0
Eu281 Eu 0.14987 0.11933 1.03833 0.0
C282 C 0.27382 0.14764 1.04255 0.0
C283 C 0.30578 0.16342 1.05354 0.0
C284 C 0.34844 0.14449 1.05389 0.0
C285 C 0.35951 0.10922 1.04328 0.0
C286 C 0.32959 0.09857 1.03066 0.0
C287 C 0.28642 0.11715 1.03047 0.0
C288 C 0.09667 0.20925 1.0322 0.0
C289 C 0.10162 0.08042 1.07145 0.0
C290 C 1.03134 1.04707 1.0258 0.0
Eu291 Eu 0.1039 0.09269 1.03218 0.0
C292 C 0.98469 0.06231 1.0268 0.0
C293 C 0.95569 1.05043 1.01414 0.0
C294 C 0.92425 0.08147 1.00857 0.0
C295 C 0.92255 0.12434 1.01556 0.0
C296 C 0.9439 0.13197 1.03042 0.0
C297 C 0.97534 0.1008 1.03604 0.0
C298 C 0.17462 1.05 1.00597 0.0
C299 C 0.12299 0.14543 1.00357 0.0
O300 O 0.20252 0.16794 1.03299 0.0
O301 O 0.20614 0.12932 1.05494 0.0
O302 O 0.09267 0.17152 1.04053 0.0
O303 O 0.09388 0.17058 1.04032 0.0
O304 O 0.14171 0.09382 1.06622 0.0
O305 O 0.07539 0.07743 1.0587 0.0
O306 O 1.0535 1.04296 1.03938 0.0
O307 O 1.05419 0.06892 1.01497 0.0
O308 O 0.16712 0.0526 1.02196 0.0
O309 O 0.16591 0.05373 1.02204 0.0
O310 O 0.08621 0.13437 1.01073 0.0
O311 O 0.15963 0.13867 1.01199 0.0
H312 H 0.29653 0.18728 1.06282 0.0
H313 H 0.37065 0.15386 1.06375 0.0
H314 H 0.33791 0.07315 1.02185 0.0
H315 H 0.262 0.10521 1.02169 0.0
H316 H 0.96212 1.0207 1.00699 0.0
H317 H 0.90715 0.07488 0.99722 0.0
H318 H 0.94242 0.16476 1.03604 0.0
H319 H 0.99713 0.1104 1.04598 0.0
C320 C 0.80678 0.78288 0.77369 0.0
Eu321 Eu 0.84797 0.8582 0.77943 0.0
C322 C 0.82738 0.73843 0.77454 0.0
C323 C 0.81509 0.70705 0.76273 0.0
C324 C 0.84791 0.67931 0.75607 0.0
C325 C 0.89296 0.68375 0.76107 0.0
C326 C 0.90322 0.70859 0.77495 0.0
C327 C 0.87013 0.73544 0.78187 0.0
C328 C 0.80336 0.933 0.75442 0.0
C329 C 0.89804 0.88009 0.75048 0.0
C330 C 0.90114 0.98545 0.79371 0.0
Eu331 Eu 0.8712 0.90611 0.78561 0.0
C332 C 0.87551 1.02669 0.79628 0.0
C333 C 0.88525 1.0519 0.81008 0.0
C334 C 0.85167 0.07766 0.8171 0.0
C335 C 0.80813 0.07864 0.81032 0.0
C336 C 0.80073 0.05966 0.79507 0.0
C337 C 0.83425 1.03314 0.78814 0.0
C338 C 0.96458 0.85539 0.77967 0.0
C339 C 0.83093 0.85759 0.81804 0.0
O340 O 0.80215 0.80474 0.78726 0.0
O341 O 0.82517 0.80748 0.76256 0.0
O342 O 0.80324 0.9195 0.76995 0.0
O343 O 0.8046 0.91843 0.76989 0.0
O344 O 0.88769 0.84273 0.75736 0.0
O345 O 0.89185 0.91599 0.75924 0.0
O346 O 0.90249 0.97007 0.77907 0.0
O347 O 0.89176 0.95407 0.80404 0.0
O348 O 0.92663 0.85161 0.78792 0.0
O349 O 0.92586 0.8527 0.78768 0.0
O350 O 0.83401 0.89854 0.81173 0.0
O351 O 0.84061 0.82966 0.80635 0.0
H352 H 0.78233 0.70885 0.75694 0.0
H353 H 0.83956 0.65991 0.7454 0.0
H354 H 0.93781 0.71221 0.77897 0.0
H355 H 0.88029 0.75929 0.79106 0.0
H356 H 0.91681 1.04734 0.8165 0.0
H357 H 0.85836 0.09274 0.82877 0.0
H358 H 0.76784 0.0614 0.78939 0.0
H359 H 0.82617 1.0141 0.77737 0.0
C360 C 0.09077 1.03889 0.51729 0.0
Eu361 Eu 1.01844 0.07975 0.5273 0.0
C362 C 0.1363 0.05756 0.5163 0.0
C363 C 0.15906 0.05322 0.50161 0.0
C364 C 0.18429 0.08923 0.49581 0.0
C365 C 0.1865 0.12919 0.50476 0.0
C366 C 0.17262 0.12925 0.52087 0.0
C367 C 0.1474 0.09334 0.52667 0.0
C368 C 0.94567 1.03874 0.5023 0.0
C369 C 0.98855 0.14287 0.50083 0.0
C370 C 0.88731 0.11331 0.54793 0.0
Eu371 Eu 0.96685 0.11053 0.5349 0.0
C372 C 0.86498 0.07727 0.55682 0.0
C373 C 0.83651 0.08793 0.5696 0.0
C374 C 0.82349 0.0546 0.58039 0.0
C375 C 0.83867 1.01019 0.5785 0.0
C376 C 0.86433 0.99883 0.56501 0.0
C377 C 0.87815 1.0324 0.5544 0.0
C378 C 1.0151 0.1952 0.53386 0.0
C379 C 1.02411 0.06719 0.56657 0.0
O380 O 0.07431 1.03319 0.53169 0.0
O381 O 0.06233 0.05917 0.50778 0.0
O382 O 0.95377 1.04192 0.51816 0.0
O383 O 0.9552 1.04316 0.51831 0.0
O384 O 1.02636 0.1269 0.50628 0.0
O385 O 0.9537 0.13848 0.51015 0.0
O386 O 0.89355 0.10625 0.53263 0.0
O387 O 0.92335 0.12869 0.55496 0.0
O388 O 0.9724 0.18802 0.5313 0.0
O389 O 1.03218 0.15479 0.53629 0.0
O390 O 0.98942 0.09302 0.56247 0.0
O391 O 1.04296 0.05322 0.55314 0.0
H392 H 0.15115 1.02576 0.49349 0.0
H393 H 0.1955 0.08858 0.48339 0.0
H394 H 0.17516 0.15951 0.52806 0.0
H395 H 0.13063 0.09724 0.53816 0.0
H396 H 0.82657 0.12237 0.57178 0.0
H397 H 0.8033 0.0639 0.59071 0.0
H398 H 0.87582 0.96471 0.56325 0.0
H399 H 0.90123 1.0237 0.54486 0.0
C400 C 0.80091 0.33824 0.273 0.0
Eu401 Eu 0.76098 0.26398 0.28181 0.0
C402 C 0.78245 0.38361 0.27295 0.0
C403 C 0.79166 0.41084 0.25963 0.0
C404 C 0.75734 0.43727 0.25315 0.0
C405 C 0.71433 0.4357 0.26006 0.0
C406 C 0.70905 0.41768 0.27552 0.0
C407 C 0.74337 0.39138 0.28202 0.0
C408 C 0.80755 0.19894 0.25631 0.0
C409 C 0.70514 0.21249 0.25598 0.0
C410 C 0.7344 0.15093 0.30729 0.0
Eu411 Eu 0.73142 0.2229 0.28974 0.0
C412 C 0.74969 0.10533 0.3041 0.0
C413 C 0.73478 0.07065 0.31395 0.0
C414 C 0.75087 1.02746 0.31156 0.0
C415 C 0.78262 1.01826 0.29943 0.0
C416 C 0.79426 0.05239 0.28861 0.0
C417 C 0.77809 0.09583 0.29105 0.0
C418 C 0.6457 0.26966 0.28692 0.0
C419 C 0.76871 0.27592 0.32095 0.0
O420 O 0.80691 0.31977 0.28704 0.0
O421 O 0.78008 0.31139 0.26313 0.0
O422 O 0.80061 0.20218 0.27218 0.0
O423 O 0.79901 0.20395 0.27243 0.0
O424 O 0.72088 0.25332 0.25822 0.0
O425 O 0.70453 0.18762 0.26861 0.0
O426 O 0.699 0.16309 0.29907 0.0
O427 O 0.76567 0.18185 0.30778 0.0
O428 O 0.6532 0.22669 0.28596 0.0
O429 O 0.68638 0.2871 0.28856 0.0
O430 O 0.73049 0.25841 0.31585 0.0
O431 O 0.79507 0.27628 0.30815 0.0
H432 H 0.82197 0.40573 0.25266 0.0
H433 H 0.762 0.45198 0.24133 0.0
H434 H 0.67631 0.41735 0.28119 0.0
H435 H 0.73616 0.37134 0.2926 0.0
H436 H 0.71176 0.07717 0.32377 0.0
H437 H 0.74008 1.00167 0.31979 0.0
H438 H 0.81696 1.04602 0.27872 0.0
H439 H 0.7887 0.12214 0.28305 0.0
C440 C 0.51349 1.04641 1.02385 0.0
Eu441 Eu 0.58869 1.0044 1.02959 0.0
C442 C 0.46777 1.02839 1.02551 0.0
C443 C 0.43725 1.03656 1.01292 0.0
C444 C 0.40918 1.00191 1.00764 0.0
C445 C 0.41288 0.95919 1.01475 0.0
C446 C 0.43369 0.95551 1.02988 0.0
C447 C 0.46158 0.99023 1.03528 0.0
C448 C 0.66133 1.05011 1.00443 0.0
C449 C 0.61579 0.95344 1.00132 0.0
C450 C 0.7125 0.94723 1.04476 0.0
Eu451 Eu 0.63524 0.98144 1.03613 0.0
C452 C 0.75877 0.96307 1.04404 0.0
C453 C 0.78753 0.95238 1.05681 0.0
C454 C 0.82788 0.97521 1.05859 0.0
C455 C 0.84018 1.00882 1.04754 0.0
C456 C 0.81363 1.0161 1.03375 0.0
C457 C 0.77253 0.99369 1.03212 0.0
C458 C 0.58717 0.88694 1.03091 0.0
C459 C 0.5869 1.02158 1.06818 0.0
O460 O 0.53673 0.0521 1.03712 0.0
O461 O 0.53669 1.02585 1.01278 0.0
O462 O 0.64978 1.04901 1.02014 0.0
O463 O 0.64864 1.04766 1.02011 0.0
O464 O 0.57759 0.9632 1.0076 0.0
O465 O 0.65075 0.96167 1.01035 0.0
O466 O 0.69309 0.93909 1.03102 0.0
O467 O 0.68662 0.96958 1.0545 0.0
O468 O 0.5802 0.92611 1.03818 0.0
O469 O 0.58124 0.92694 1.038 0.0
O470 O 0.62808 1.01874 1.06216 0.0
O471 O 0.55951 1.01142 1.0563 0.0
H472 H 0.44066 0.06623 1.00547 0.0
H473 H 0.39195 1.00581 0.99616 0.0
H474 H 0.4352 0.92337 1.03586 0.0
H475 H 0.48367 0.98367 1.04541 0.0
H476 H 0.77729 0.92884 1.06605 0.0
H477 H 0.84787 0.96902 1.06934 0.0
H478 H 0.82312 1.04102 1.0249 0.0
H479 H 0.75048 1.00217 1.02212 0.0
C480 C 0.79559 0.32442 0.93398 0.0
Eu481 Eu 0.83288 0.24617 0.92996 0.0
C482 C 0.81823 0.36787 0.93244 0.0
C483 C 0.80747 0.40095 0.94377 0.0
C484 C 0.84184 0.42674 0.95062 0.0
C485 C 0.88675 0.4191 0.94615 0.0
C486 C 0.89583 0.39329 0.93244 0.0
C487 C 0.86131 0.36804 0.92544 0.0
C488 C 0.7797 0.18133 0.95595 0.0
C489 C 0.87762 0.21335 0.95902 0.0
C490 C 0.869 0.13136 0.90829 0.0
Eu491 Eu 0.84881 0.20459 0.92384 0.0
C492 C 0.83926 0.10657 0.89733 0.0
C493 C 0.85773 0.08707 0.88353 0.0
C494 C 0.83075 0.08009 0.86995 0.0
C495 C 0.78524 0.09286 0.87004 0.0
C496 C 0.76553 0.10744 0.88441 0.0
C497 C 0.79253 0.1142 0.89805 0.0
C498 C 0.94162 0.2596 0.91639 0.0
C499 C 0.81756 0.25556 0.89204 0.0
O500 O 0.78989 0.30082 0.92087 0.0
O501 O 0.81259 0.30057 0.94566 0.0
O502 O 0.78402 0.18861 0.93993 0.0
O503 O 0.78494 0.18937 0.93997 0.0
O504 O 0.8691 0.2533 0.95368 0.0
O505 O 0.86983 0.18068 0.94884 0.0
O506 O 0.85815 0.13164 0.92347 0.0
O507 O 0.87825 0.17137 0.90306 0.0
O508 O 0.91315 0.24878 0.92789 0.0
O509 O 0.91239 0.2484 0.92787 0.0
O510 O 0.79975 0.22325 0.9008 0.0
O511 O 0.84719 0.27107 0.90239 0.0
H512 H 0.7745 0.40149 0.94929 0.0
H513 H 0.83434 0.44696 0.96113 0.0
H514 H 0.93027 0.38711 0.92882 0.0
H515 H 0.87041 0.34305 0.91659 0.0
H516 H 0.89369 0.08159 0.88268 0.0
H517 H 0.8463 0.06859 0.8589 0.0
H518 H 0.73049 0.11739 0.88462 0.0
H519 H 0.77776 0.12985 0.90857 0.0
C520 C 0.54214 1.03252 0.68272 0.0
Eu521 Eu 0.60713 0.08951 0.67743 0.0
C522 C 0.49362 1.03653 0.68339 0.0
C523 C 0.47301 1.01547 0.69644 0.0
C524 C 0.44063 1.03875 0.705 0.0
C525 C 0.42811 0.082 0.69998 0.0
C526 C 0.4396 0.09679 0.6845 0.0
C527 C 0.4734 0.07424 0.67623 0.0
C528 C 0.67227 1.0519 0.70531 0.0
C529 C 0.62293 0.15009 0.70547 0.0
C530 C 0.71924 0.12279 0.65469 0.0
Eu531 Eu 0.64538 0.12331 0.67163 0.0
C532 C 0.75314 0.08837 0.65143 0.0
C533 C 0.78421 0.09648 0.6392 0.0
C534 C 0.80396 0.06054 0.63116 0.0
C535 C 0.79285 1.01614 0.63531 0.0
C536 C 0.76652 1.00809 0.64893 0.0
C537 C 0.74619 1.04412 0.65681 0.0
C538 C 0.59787 0.20647 0.67269 0.0
C539 C 0.59143 0.08578 0.63946 0.0
O540 O 0.56063 1.03785 0.66869 0.0
O541 O 0.56273 0.05527 0.69397 0.0
O542 O 0.67168 0.05919 0.68941 0.0
O543 O 0.67008 0.06026 0.68916 0.0
O544 O 0.58784 0.13012 0.6993 0.0
O545 O 0.65842 0.15048 0.69635 0.0
O546 O 0.71719 0.1401 0.66912 0.0
O547 O 0.6798 0.11202 0.6491 0.0
O548 O 0.64142 0.20096 0.6733 0.0
O549 O 0.58069 0.16547 0.67197 0.0
O550 O 0.60425 0.12447 0.6459 0.0
O551 O 0.59805 0.0569 0.65114 0.0
H552 H 0.48779 0.98575 0.70183 0.0
H553 H 0.4309 1.02602 0.71671 0.0
H554 H 0.42883 0.12946 0.68026 0.0
H555 H 0.48848 0.09032 0.66585 0.0
H556 H 0.78957 0.13022 0.63472 0.0
H557 H 0.82473 0.06738 0.62075 0.0
H558 H 0.75809 0.9741 0.65242 0.0
H559 H 0.72144 1.03689 0.66589 0.0
C560 C 0.81456 0.7697 0.4396 0.0
Eu561 Eu 0.77763 0.84334 0.42856 0.0
C562 C 0.79562 0.72449 0.43934 0.0
C563 C 0.80231 0.69766 0.453 0.0
C564 C 0.76622 0.67303 0.45904 0.0
C565 C 0.7239 0.67634 0.45146 0.0
C566 C 0.7209 0.69386 0.43582 0.0
C567 C 0.75724 0.71766 0.42963 0.0
C568 C 0.81967 0.91024 0.45473 0.0
C569 C 0.71711 0.90383 0.45009 0.0
C570 C 0.78099 0.93657 0.39713 0.0
Eu571 Eu 0.75291 0.88139 0.41917 0.0
C572 C 0.79107 0.93356 0.37976 0.0
C573 C 0.76349 0.95526 0.3685 0.0
C574 C 0.77364 0.9531 0.35214 0.0
C575 C 0.81124 0.92888 0.34669 0.0
C576 C 0.83796 0.90582 0.35785 0.0
C577 C 0.82888 0.9094 0.37428 0.0
C578 C 0.66367 0.84198 0.42155 0.0
C579 C 0.78533 0.82034 0.38985 0.0
O580 O 0.82431 0.78698 0.42569 0.0
O581 O 0.79162 0.79755 0.44835 0.0
O582 O 0.81715 0.90455 0.43877 0.0
O583 O 0.81543 0.9027 0.43857 0.0
O584 O 0.73114 0.86185 0.44968 0.0
O585 O 0.7218 0.9261 0.43686 0.0
O586 O 0.80764 0.91318 0.40645 0.0
O587 O 0.73878 0.93484 0.40166 0.0
O588 O 0.67386 0.88466 0.42002 0.0
O589 O 0.70302 0.82141 0.42223 0.0
O590 O 0.74771 0.83949 0.39445 0.0
O591 O 0.8116 0.82369 0.40276 0.0
H592 H 0.83198 0.70208 0.4605 0.0
H593 H 0.7691 0.65882 0.47104 0.0
H594 H 0.68864 0.69598 0.4297 0.0
H595 H 0.75188 0.73755 0.41884 0.0
H596 H 0.73444 0.97434 0.37236 0.0
H597 H 0.75216 0.97078 0.34376 0.0
H598 H 0.86662 0.88634 0.35389 0.0
H599 H 0.85154 0.89306 0.38267 0.0
C600 C 0.07951 0.07792 0.18961 0.0
Eu601 Eu 1.00615 1.03551 0.181 0.0
C602 C 0.12487 0.05903 0.19075 0.0
C603 C 0.14907 0.0662 0.20507 0.0
C604 C 0.17588 1.03188 0.21129 0.0
C605 C 0.1784 0.9907 0.20311 0.0
C606 C 0.16212 0.98739 0.18727 0.0
C607 C 0.13519 1.02164 0.18107 0.0
C608 C 0.93825 0.0735 0.20865 0.0
C609 C 0.97664 0.97082 0.20673 0.0
C610 C 0.90684 1.02574 0.15225 0.0
Eu611 Eu 0.96819 1.00719 0.17381 0.0
C612 C 0.90861 1.03233 0.13455 0.0
C613 C 0.8887 1.00125 0.124 0.0
C614 C 0.88984 1.00849 0.10734 0.0
C615 C 0.91113 1.0467 1.10101 0.0
C616 C 0.9322 0.07709 0.11142 0.0
C617 C 0.93015 0.0705 0.12803 0.0
C618 C 1.0084 0.92018 0.17426 0.0
C619 C 1.02715 1.04152 0.14321 0.0
O620 O 0.06198 0.08084 0.17523 0.0
O621 O 1.05162 0.05995 0.19973 0.0
O622 O 0.94288 0.06993 0.19263 0.0
O623 O 0.94464 0.06854 0.19247 0.0
O624 O 1.01499 0.98598 0.20151 0.0
O625 O 0.94259 0.97809 0.19708 0.0
O626 O 0.92858 0.0559 0.1606 0.0
O627 O 0.91233 0.98523 0.15807 0.0
O628 O 0.96511 0.92929 0.17474 0.0
O629 O 1.02863 0.95986 0.17421 0.0
O630 O 1.01604 1.00308 0.15001 0.0
O631 O 1.01682 0.07016 0.15473 0.0
H632 H 0.14163 0.09484 0.21266 0.0
H633 H 0.18874 1.03493 0.2235 0.0
H634 H 0.16441 0.95597 0.18075 0.0
H635 H 0.11705 1.0155 0.1699 0.0
H636 H 0.87179 0.97178 0.12863 0.0
H637 H 0.8734 0.98467 1.09936 0.0
H638 H 0.94883 0.10663 0.10671 0.0
H639 H 0.94544 0.09568 0.13573 0.0
C640 C 0.78481 0.67218 0.89599 0.0
Eu641 Eu 0.75313 0.72387 0.9185 0.0
C642 C 0.79535 0.67661 0.87866 0.0
C643 C 0.76633 0.65846 0.86702 0.0
C644 C 0.77713 0.66123 0.85072 0.0
C645 C 0.81739 0.68174 0.84568 0.0
C646 C 0.84504 0.7024 0.85721 0.0
C647 C 0.83486 0.69871 0.87359 0.0
C648 C 0.66419 0.76413 0.92058 0.0
C649 C 0.78493 0.78577 0.88943 0.0
C650 C 0.81389 0.83134 0.94089 0.0
Eu651 Eu 0.77682 0.7599 0.92828 0.0
C652 C 0.79769 0.87733 0.94041 0.0
C653 C 0.80167 0.90168 0.95475 0.0
C654 C 0.76476 0.92573 0.96023 0.0
C655 C 0.72491 0.92656 0.95103 0.0
C656 C 0.72504 0.9108 0.93513 0.0
C657 C 0.76201 0.88657 0.92968 0.0
C658 C 0.81721 0.69437 0.95497 0.0
C659 C 0.71531 0.69518 0.94803 0.0
O660 O 0.81012 0.69595 0.90572 0.0
O661 O 0.74237 0.67149 0.90033 0.0
O662 O 0.67396 0.72164 0.91831 0.0
O663 O 0.70352 0.78428 0.92195 0.0
O664 O 0.74756 0.76569 0.89378 0.0
O665 O 0.81069 0.78241 0.90254 0.0
O666 O 0.82656 0.81413 0.92726 0.0
O667 O 0.78689 0.80473 0.94859 0.0
O668 O 0.81481 0.69843 0.93894 0.0
O669 O 0.81314 0.70032 0.9387 0.0
O670 O 0.72859 0.73746 0.94848 0.0
O671 O 0.72072 0.67514 0.9344 0.0
H672 H 0.73555 0.64164 0.8705 0.0
H673 H 0.75399 0.64683 0.84204 0.0
H674 H 0.87514 0.72022 0.85361 0.0
H675 H 0.85803 0.71331 0.88225 0.0
H676 H 0.82901 0.89486 0.96312 0.0
H677 H 0.76472 0.93648 0.9727 0.0
H678 H 0.69445 0.91116 0.92793 0.0
H679 H 0.75874 0.8682 0.91844 0.0
C680 C 0.70452 0.49045 0.15231 0.0
Eu681 Eu 0.6377 0.48299 0.17257 0.0
C682 C 0.7043 0.50037 0.1348 0.0
C683 C 0.71453 0.46708 0.12343 0.0
C684 C 0.71079 0.47631 0.10692 0.0
C685 C 0.69557 0.5185 1.10157 0.0
C686 C 0.68497 0.55149 0.1129 0.0
C687 C 0.69112 0.54321 0.12926 0.0
C688 C 0.595 0.3973 0.17323 0.0
C689 C 0.58919 0.5205 0.14035 0.0
C690 C 0.53616 0.56728 0.18056 0.0
Eu691 Eu 0.60545 0.51401 0.17747 0.0
C692 C 0.48966 0.55254 0.17895 0.0
C693 C 0.45697 0.5734 0.1884 0.0
C694 C 0.4252 0.54693 0.19627 0.0
C695 C 0.43116 0.5 0.19637 0.0
C696 C 0.45706 0.48046 0.1842 0.0
C697 C 0.48405 0.50739 0.17464 0.0
C698 C 0.66482 0.55482 0.20696 0.0
C699 C 0.61586 0.45624 0.2059 0.0
O700 O 0.69009 0.52296 0.1613 0.0
O701 O 0.68902 0.45173 0.15709 0.0
O702 O 0.63784 0.40545 0.17606 0.0
O703 O 0.57718 0.43789 0.17142 0.0
O704 O 0.58675 0.48376 0.14915 0.0
O705 O 0.6094 0.5466 0.15086 0.0
O706 O 0.55991 0.56522 0.16753 0.0
O707 O 0.55686 0.54848 0.19265 0.0
O708 O 0.66797 0.54304 0.19146 0.0
O709 O 0.66638 0.54207 0.19119 0.0
O710 O 0.58122 0.47443 0.1989 0.0
O711 O 0.65258 0.4568 0.1974 0.0
H712 H 0.72509 0.434 0.12731 0.0
H713 H 0.7193 0.45038 1.0983 0.0
H714 H 0.67311 0.58415 0.10902 0.0
H715 H 0.68415 0.57035 0.13755 0.0
H716 H 0.4602 0.60841 0.19171 0.0
H717 H 0.4034 0.56281 0.20502 0.0
H718 H 0.46202 0.44466 0.18373 0.0
H719 H 0.50796 0.49116 0.16676 0.0
C720 C 0.82965 0.46268 0.40105 0.0
Eu721 Eu 0.85231 0.40227 0.42232 0.0
C722 C 0.81945 0.46164 0.38357 0.0
C723 C 0.85121 0.47615 0.37229 0.0
C724 C 0.84196 0.47254 0.3558 0.0
C725 C 0.80103 0.45405 0.35036 0.0
C726 C 0.76905 0.44011 0.36156 0.0
C727 C 0.77772 0.44479 0.37801 0.0
C728 C 0.93974 0.35921 0.42439 0.0
C729 C 0.8154 0.34468 0.3926 0.0
C730 C 0.78989 0.28867 0.44167 0.0
Eu731 Eu 0.82604 0.36327 0.43135 0.0
C732 C 0.8099 0.24392 0.44079 0.0
C733 C 0.80326 0.21444 0.4537 0.0
C734 C 0.83827 0.18615 0.45852 0.0
C735 C 0.87998 0.18849 0.45064 0.0
C736 C 0.88304 0.21099 0.43588 0.0
C737 C 0.84767 0.2384 0.43083 0.0
C738 C 0.78842 0.43405 0.45762 0.0
C739 C 0.88866 0.41506 0.4547 0.0
O740 O 0.80107 0.44073 0.40994 0.0
O741 O 0.87137 0.45673 0.40582 0.0
O742 O 0.93108 0.40242 0.42409 0.0
O743 O 0.89956 0.34026 0.42381 0.0
O744 O 0.85426 0.36113 0.39739 0.0
O745 O 0.78946 0.34837 0.40547 0.0
O746 O 0.77901 0.30722 0.42801 0.0
O747 O 0.81275 0.316 0.45076 0.0
O748 O 0.78854 0.42578 0.44176 0.0
O749 O 0.79037 0.42381 0.44159 0.0
O750 O 0.87156 0.37464 0.45323 0.0
O751 O 0.88606 0.43933 0.4418 0.0
H752 H 0.88331 0.48973 0.37619 0.0
H753 H 0.86708 0.4835 0.34724 0.0
H754 H 0.73738 0.42576 0.35756 0.0
H755 H 0.75194 0.43421 0.38635 0.0
H756 H 0.77429 0.21814 0.46146 0.0
H757 H 0.8354 0.16854 0.4699 0.0
H758 H 0.91485 0.21269 0.42961 0.0
H759 H 0.85307 0.26055 0.42066 0.0
C760 C 0.9028 0.58114 0.65179 0.0
Eu761 Eu 0.96801 0.59736 0.67192 0.0
C762 C 0.90308 0.57741 0.634 0.0
C763 C 0.88837 0.61292 0.62423 0.0
C764 C 0.89198 0.60982 0.60746 0.0
C765 C 0.91082 0.57148 0.60028 0.0
C766 C 0.92611 0.53635 0.60998 0.0
C767 C 0.92109 0.53872 0.62663 0.0
C768 C 1.0092 0.68373 0.67241 0.0
C769 C 1.02557 0.56291 0.64054 0.0
C770 C 0.08268 0.52582 0.68674 0.0
Eu771 Eu 1.00907 0.5686 0.67898 0.0
C772 C 0.12806 0.54461 0.68719 0.0
C773 C 0.15499 0.53462 0.70062 0.0
C774 C 0.18122 0.56841 0.70753 0.0
C775 C 0.1801 0.61184 0.70095 0.0
C776 C 0.16134 0.6186 0.68562 0.0
C777 C 0.1354 0.58473 0.67865 0.0
C778 C 0.9383 0.53337 0.70652 0.0
C779 C 0.98162 0.63184 0.70534 0.0
O780 O 0.92595 0.54999 0.65913 0.0
O781 O 0.90887 0.62084 0.65828 0.0
O782 O 0.96603 0.67511 0.67375 0.0
O783 O 1.02925 0.6441 0.67151 0.0
O784 O 1.00916 0.60068 0.64648 0.0
O785 O 1.02202 0.53487 0.65277 0.0
O786 O 0.06374 0.52266 0.6726 0.0
O787 O 0.05606 0.54435 0.69718 0.0
O788 O 0.94615 0.53323 0.6906 0.0
O789 O 0.94803 0.53493 0.69051 0.0
O790 O 1.01961 0.61677 0.69976 0.0
O791 O 0.9467 0.6254 0.69597 0.0
H792 H 0.87436 0.64303 0.62952 0.0
H793 H 0.87996 0.63732 0.60006 0.0
H794 H 0.94072 0.50664 0.6046 0.0
H795 H 0.93204 0.51028 0.63374 0.0
H796 H 0.14988 0.5038 0.70729 0.0
H797 H 0.19605 0.56267 0.71932 0.0
H798 H 0.16097 0.65174 0.68027 0.0
H799 H 0.1152 0.5929 0.66812 0.0
C800 C 0.73545 0.45621 0.80368 0.0
Eu801 Eu 0.74024 0.38138 0.78778 0.0
C802 C 0.7517 0.50191 0.80166 0.0
C803 C 0.7519 0.52976 0.81513 0.0
C804 C 0.77116 0.57194 0.81419 0.0
C805 C 0.79038 0.58722 0.79976 0.0
C806 C 0.78892 0.55999 0.78599 0.0
C807 C 0.76942 0.5172 0.78694 0.0
C808 C 0.65587 0.33344 0.78446 0.0
C809 C 0.77624 0.32723 0.82013 0.0
C810 C 0.81205 0.26256 0.77396 0.0
Eu811 Eu 0.77183 0.33763 0.78122 0.0
C812 C 0.79003 0.21855 0.77418 0.0
C813 C 0.79801 0.18909 0.76135 0.0
C814 C 0.76225 0.16425 0.75494 0.0
C815 C 0.71876 0.16988 0.76124 0.0
C816 C 0.71357 0.19072 0.77624 0.0
C817 C 0.74937 0.21515 0.78274 0.0
C818 C 0.82015 0.40142 0.75561 0.0
C819 C 0.7181 0.37447 0.75287 0.0
O820 O 0.70477 0.443 0.79345 0.0
O821 O 0.76645 0.42598 0.80638 0.0
O822 O 0.66336 0.376 0.78228 0.0
O823 O 0.69609 0.31721 0.78801 0.0
O824 O 0.73969 0.34767 0.81457 0.0
O825 O 0.80324 0.32401 0.80763 0.0
O826 O 0.81691 0.2823 0.78786 0.0
O827 O 0.79493 0.28958 0.76326 0.0
O828 O 0.80974 0.40073 0.77127 0.0
O829 O 0.80851 0.39928 0.77151 0.0
O830 O 0.73067 0.33496 0.75802 0.0
O831 O 0.72116 0.40639 0.76338 0.0
H832 H 0.73851 0.5183 0.82656 0.0
H833 H 0.77293 0.59198 0.82501 0.0
H834 H 0.80382 0.57123 0.7748 0.0
H835 H 0.76916 0.49569 0.7764 0.0
H836 H 0.82915 0.19104 0.75465 0.0
H837 H 0.76681 0.14763 0.74343 0.0
H838 H 0.68037 0.19487 0.78136 0.0
H839 H 0.74272 0.23712 0.79287 0.0
C840 C 0.88636 0.4612 1.0477 0.0
Eu841 Eu 0.96142 0.49742 1.03782 0.0
C842 C 0.83861 0.47043 1.04563 0.0
C843 C 0.80818 0.449 1.05575 0.0
C844 C 0.7636 0.46283 1.056 0.0
C845 C 0.74881 0.49867 1.04615 0.0
C846 C 0.77851 0.51634 1.03466 0.0
C847 C 0.82345 0.50264 1.03452 0.0
C848 C 1.0118 0.40524 1.03178 0.0
C849 C 1.01426 0.5376 1.06939 0.0
C850 C 0.07482 0.57018 1.02349 0.0
Eu851 Eu 1.00586 0.52066 1.03055 0.0
C852 C 0.12312 0.56345 1.02448 0.0
C853 C 0.1465 0.57815 1.01095 0.0
C854 C 0.17481 0.54827 1.00323 0.0
C855 C 0.18231 0.50541 1.00986 0.0
C856 C 0.16958 0.49697 1.02582 0.0
C857 C 0.13895 0.52597 1.03312 0.0
C858 C 0.93749 0.56646 1.00481 0.0
C859 C 0.97617 0.46635 1.00302 0.0
O860 O 0.90726 0.44903 1.03477 0.0
O861 O 0.90909 0.49063 1.05604 0.0
O862 O 1.01771 0.44361 1.03968 0.0
O863 O 1.01653 0.44435 1.03945 0.0
O864 O 0.97227 0.53351 1.06397 0.0
O865 O 1.03967 0.5284 1.0569 0.0
O866 O 1.05298 0.57416 1.03702 0.0
O867 O 1.05529 0.54262 1.01334 0.0
O868 O 0.94313 0.56202 1.02084 0.0
O869 O 0.94413 0.56109 1.02092 0.0
O870 O 1.01562 0.47676 1.00872 0.0
O871 O 0.94259 0.47631 1.01239 0.0
H872 H 0.81947 0.42362 1.06422 0.0
H873 H 0.74205 0.4482 1.06508 0.0
H874 H 0.76798 0.54285 1.02663 0.0
H875 H 0.8468 0.51882 1.02638 0.0
H876 H 0.13558 0.6078 1.00444 0.0
H877 H 0.18594 0.55654 0.99117 0.0
H878 H 0.17708 0.46499 1.03143 0.0
H879 H 0.12204 0.51487 1.04395 0.0
C880 C 0.90801 0.62597 0.29336 0.0
Eu881 Eu 0.87045 0.70243 0.28595 0.0
C882 C 0.89315 0.57947 0.292 0.0
C883 C 0.90417 0.55019 0.3045 0.0
C884 C 0.88066 0.51029 0.30618 0.0
C885 C 0.84586 0.49879 0.29527 0.0
C886 C 0.83895 0.52553 0.28154 0.0
C887 C 0.862 0.56623 0.28005 0.0
C888 C 0.96014 0.75876 0.27934 0.0
C889 C 0.82996 0.74953 0.31861 0.0
C890 C 0.79992 0.82232 0.27374 0.0
Eu891 Eu 0.84398 0.74887 0.27974 0.0
C892 C 0.81858 0.86761 0.27463 0.0
C893 C 0.80689 0.89766 0.26234 0.0
C894 C 0.83972 0.92592 0.256 0.0
C895 C 0.8842 0.92309 0.26177 0.0
C896 C 0.89309 0.90037 0.27622 0.0
C897 C 0.85993 0.87295 0.2828 0.0
C898 C 0.79888 0.67413 0.25507 0.0
C899 C 0.89288 0.72519 0.25062 0.0
O900 O 0.91531 0.64706 0.27995 0.0
O901 O 0.88508 0.65006 0.30351 0.0
O902 O 0.92286 0.76001 0.28811 0.0
O903 O 0.92201 0.75877 0.28785 0.0
O904 O 0.83986 0.70894 0.31302 0.0
O905 O 0.83187 0.77723 0.30637 0.0
O906 O 0.79603 0.80058 0.28734 0.0
O907 O 0.8194 0.79825 0.26269 0.0
O908 O 0.80143 0.68563 0.27078 0.0
O909 O 0.8027 0.68683 0.27076 0.0
O910 O 0.8829 0.76297 0.25733 0.0
O911 O 0.88768 0.68985 0.25965 0.0
H912 H 0.92811 0.55997 0.31378 0.0
H913 H 0.88704 0.49055 0.31691 0.0
H914 H 0.8138 0.51665 0.2726 0.0
H915 H 0.85333 0.58856 0.2702 0.0
H916 H 0.77511 0.8942 0.25597 0.0
H917 H 0.83233 0.94386 0.24493 0.0
H918 H 0.92716 0.89813 0.28088 0.0
H919 H 0.86951 0.85033 0.29244 0.0
C920 C 0.71097 0.66975 0.54666 0.0
Eu921 Eu 0.63566 0.63165 0.53753 0.0
C922 C 0.75884 0.65937 0.54559 0.0
C923 C 0.78637 0.6702 0.55871 0.0
C924 C 0.82936 0.65227 0.55983 0.0
C925 C 0.84563 0.6234 0.54774 0.0
C926 C 0.8198 0.61667 0.53371 0.0
C927 C 0.77617 0.63406 0.53273 0.0
C928 C 0.58451 0.72337 0.53259 0.0
C929 C 0.58635 0.58874 0.56915 0.0
C930 C 0.51936 0.5601 0.52232 0.0
Eu931 Eu 0.59048 0.60581 0.53043 0.0
C932 C 0.47247 0.57476 0.52237 0.0
C933 C 0.45023 0.57248 0.50747 0.0
C934 C 0.42626 0.60962 0.50212 0.0
C935 C 0.42115 0.64704 0.51221 0.0
C936 C 0.4334 0.64405 0.52848 0.0
C937 C 0.45984 0.608 0.53355 0.0
C938 C 0.66037 0.5602 0.5053 0.0
C939 C 0.61512 0.66015 0.50276 0.0
O940 O 0.69032 0.67893 0.53323 0.0
O941 O 0.68773 0.64283 0.55574 0.0
O942 O 0.57801 0.6837 0.53945 0.0
O943 O 0.57908 0.68282 0.5393 0.0
O944 O 0.62725 0.60016 0.56432 0.0
O945 O 0.55985 0.59029 0.55646 0.0
O946 O 0.53936 0.55543 0.5363 0.0
O947 O 0.54366 0.58291 0.51215 0.0
O948 O 0.65423 0.56554 0.52124 0.0
O949 O 0.65319 0.56646 0.52134 0.0
O950 O 0.57687 0.64849 0.50875 0.0
O951 O 0.65014 0.65223 0.51185 0.0
H952 H 0.77345 0.68981 0.56868 0.0
H953 H 0.84841 0.65797 0.57083 0.0
H954 H 0.83202 0.59589 0.52398 0.0
H955 H 0.75526 0.62568 0.5224 0.0
H956 H 0.45929 0.54699 0.49874 0.0
H957 H 0.4176 0.61165 0.48944 0.0
H958 H 0.42836 0.67222 0.53649 0.0
H959 H 0.47601 0.61014 0.54527 0.0
C960 C 0.29218 0.28481 0.26879 0.0
Eu961 Eu 0.32916 0.35879 0.27952 0.0
C962 C 0.31203 0.24001 0.26859 0.0
C963 C 0.30247 0.21205 0.25545 0.0
C964 C 0.33572 0.18327 0.24972 0.0
C965 C 0.37852 0.18313 0.25704 0.0
C966 C 0.38488 0.20467 0.27189 0.0
C967 C 0.35134 0.23284 0.27777 0.0
C968 C 0.29194 0.43017 0.25335 0.0
C969 C 0.39233 0.41067 0.25662 0.0
C970 C 0.33697 0.45713 0.31043 0.0
Eu971 Eu 0.35579 0.39684 0.28874 0.0
C972 C 0.32949 0.45508 0.32803 0.0
C973 C 0.36372 0.46704 0.33894 0.0
C974 C 0.35679 0.46288 0.35552 0.0
C975 C 0.31574 0.44639 0.36142 0.0
C976 C 0.28166 0.43418 0.35059 0.0
C977 C 0.28804 0.4395 0.33407 0.0
C978 C 0.44319 0.35337 0.28658 0.0
C979 C 0.31611 0.34001 0.31805 0.0
O980 O 0.28366 0.30167 0.28289 0.0
O981 O 0.31351 0.31318 0.25975 0.0
O982 O 0.29181 0.42154 0.26918 0.0
O983 O 0.29366 0.41954 0.26935 0.0
O984 O 0.37487 0.37034 0.25781 0.0
O985 O 0.38945 0.43448 0.26959 0.0
O986 O 0.30675 0.43637 0.30171 0.0
O987 O 0.37782 0.45062 0.30509 0.0
O988 O 0.4346 0.39651 0.28721 0.0
O989 O 0.40286 0.33468 0.28689 0.0
O990 O 0.35579 0.35465 0.3135 0.0
O991 O 0.29075 0.34513 0.30499 0.0
H992 H 0.27236 0.21724 0.24824 0.0
H993 H 0.33047 0.16705 0.23816 0.0
H994 H 0.41771 0.20481 0.27765 0.0
H995 H 0.35905 0.25398 0.28806 0.0
H996 H 0.3958 0.47941 0.33467 0.0
H997 H 0.38348 0.47258 0.36378 0.0
H998 H 0.24981 0.42149 0.35496 0.0
H999 H 0.26057 0.43073 0.32603 0.0
C1000 C 0.56894 0.52707 1.02203 0.0
Eu1001 Eu 0.49767 0.57229 1.03053 0.0
C1002 C 0.61616 0.53834 1.02104 0.0
C1003 C 0.63983 0.51865 1.0084 0.0
C1004 C 0.66998 0.54458 0.99978 0.0
C1005 C 0.67672 0.58961 1.00413 0.0
C1006 C 0.66127 0.60534 1.01904 0.0
C1007 C 0.63046 0.57949 1.02755 0.0
C1008 C 0.43537 0.52986 1.00324 0.0
C1009 C 0.4516 0.63262 1.00544 0.0
C1010 C 0.39778 0.58296 1.05934 0.0
Eu1011 Eu 0.45984 0.60019 1.03821 0.0
C1012 C 0.39893 0.57736 1.07702 0.0
C1013 C 0.38555 0.61226 1.08725 0.0
C1014 C 0.38987 0.60753 0.10393 0.0
C1015 C 0.40819 0.56815 0.1106 0.0
C1016 C 0.42173 0.53341 1.10044 0.0
C1017 C 0.41576 0.53736 1.08384 0.0
C1018 C 0.50298 0.68694 1.03606 0.0
C1019 C 0.51581 0.56419 1.06885 0.0
O1020 O 0.55175 0.52505 1.03636 0.0
O1021 O 0.54406 0.55018 1.01214 0.0
O1022 O 0.43603 0.53584 1.0192 0.0
O1023 O 0.4378 0.53729 1.01944 0.0
O1024 O 0.49219 0.61671 1.00816 0.0
O1025 O 0.42433 0.63028 1.0175 0.0
O1026 O 0.41954 0.55222 1.05135 0.0
O1027 O 0.40435 0.62321 1.05348 0.0
O1028 O 0.45963 0.67854 1.03605 0.0
O1029 O 0.52215 0.64687 1.03659 0.0
O1030 O 0.50186 0.60309 1.06323 0.0
O1031 O 0.5098 0.53693 1.0565 0.0
H1032 H 0.62938 0.48657 1.00347 0.0
H1033 H 0.6826 0.5316 0.98846 0.0
H1034 H 0.66719 0.63978 1.02268 0.0
H1035 H 0.6126 0.59473 1.03751 0.0
H1036 H 0.37216 0.64325 1.08237 0.0
H1037 H 0.37919 0.63479 0.11166 0.0
H1038 H 0.43604 0.50293 0.1054 0.0
H1039 H 0.42525 0.50928 1.07633 0.0
C1040 C 0.30228 0.84801 0.76887 0.0
Eu1041 Eu 0.27509 0.76976 0.77857 0.0
C1042 C 0.27755 0.88984 0.77142 0.0
C1043 C 0.27745 0.92139 0.75896 0.0
C1044 C 0.23728 0.94286 0.75491 0.0
C1045 C 0.19749 0.93118 0.76301 0.0
C1046 C 0.20044 0.90905 0.77786 0.0
C1047 C 0.24097 0.88848 0.78217 0.0
C1048 C 0.31654 0.69452 0.75388 0.0
C1049 C 0.21663 0.72232 0.75406 0.0
C1050 C 0.25139 0.64981 0.80512 0.0
Eu1051 Eu 0.25661 0.7224 0.78773 0.0
C1052 C 0.26326 0.64728 0.82251 0.0
C1053 C 0.23201 0.63241 0.83392 0.0
C1054 C 0.24186 0.63588 0.85044 0.0
C1055 C 0.28241 0.65566 0.85575 0.0
C1056 C 0.3131 0.67136 0.84438 0.0
C1057 C 0.30473 0.6651 0.82801 0.0
C1058 C 0.16003 0.76802 0.78012 0.0
C1059 C 0.2942 0.78315 0.81777 0.0
O1060 O 0.31817 0.82871 0.7818 0.0
O1061 O 0.28078 0.81978 0.75959 0.0
O1062 O 0.32096 0.71102 0.7689 0.0
O1063 O 0.31902 0.71232 0.76893 0.0
O1064 O 0.22914 0.76339 0.75701 0.0
O1065 O 0.22505 0.69309 0.76539 0.0
O1066 O 0.28499 0.65883 0.79573 0.0
O1067 O 0.2159 0.67306 0.80111 0.0
O1068 O 0.19802 0.77455 0.78833 0.0
O1069 O 0.19885 0.7734 0.7881 0.0
O1070 O 0.275 0.74461 0.81469 0.0
O1071 O 0.30143 0.80278 0.80376 0.0
H1072 H 0.30553 0.92347 0.75072 0.0
H1073 H 0.23558 0.96107 0.7436 0.0
H1074 H 0.17017 0.90028 0.78438 0.0
H1075 H 0.24067 0.8648 0.79207 0.0
H1076 H 0.1999 0.61872 0.83008 0.0
H1077 H 0.21764 0.62357 0.85909 0.0
H1078 H 0.34415 0.6874 0.84821 0.0
H1079 H 0.32993 0.67694 0.81963 0.0
C1080 C 1.03474 0.56359 0.52859 0.0
Eu1081 Eu 0.10473 0.51167 0.53016 0.0
C1082 C 0.98852 0.55136 0.53252 0.0
C1083 C 0.95409 0.5737 0.52422 0.0
C1084 C 0.92047 0.54846 0.51663 0.0
C1085 C 0.92552 0.50148 0.51594 0.0
C1086 C 0.95244 0.48058 0.52764 0.0
C1087 C 0.98206 0.50624 0.53677 0.0
C1088 C 0.16972 0.56037 0.50327 0.0
C1089 C 0.11983 0.46305 0.50099 0.0
C1090 C 0.22573 0.45581 0.54514 0.0
Eu1091 Eu 0.14796 0.48895 0.53588 0.0
C1092 C 0.26962 0.47696 0.54803 0.0
C1093 C 0.29072 0.46999 0.56294 0.0
C1094 C 0.32155 0.50132 0.56873 0.0
C1095 C 0.33095 0.54018 0.55978 0.0
C1096 C 0.3154 0.54351 0.54386 0.0
C1097 C 0.28482 0.51167 0.53796 0.0
C1098 C 0.10222 0.39347 0.53055 0.0
C1099 C 0.10075 0.52352 0.56878 0.0
O1100 O 0.06331 0.56501 0.54061 0.0
O1101 O 1.05013 0.54081 0.51629 0.0
O1102 O 0.16658 0.5532 0.5193 0.0
O1103 O 0.16578 0.55248 0.5194 0.0
O1104 O 0.08299 0.47529 0.50788 0.0
O1105 O 0.15645 0.46827 0.50961 0.0
O1106 O 0.2112 0.4547 0.53035 0.0
O1107 O 0.19448 0.46883 0.55497 0.0
O1108 O 0.09376 0.43278 0.53743 0.0
O1109 O 0.0947 0.43359 0.53729 0.0
O1110 O 0.13974 0.53077 0.56141 0.0
O1111 O 0.0764 0.50528 0.55735 0.0
H1112 H 0.95753 0.60883 0.52113 0.0
H1113 H 0.89784 0.56541 0.50835 0.0
H1114 H 0.95659 0.44458 0.52788 0.0
H1115 H 1.00699 0.48835 0.54372 0.0
H1116 H 0.27997 0.443 0.57079 0.0
H1117 H 0.33455 0.49746 0.58087 0.0
H1118 H 0.32363 0.57262 0.53667 0.0
H1119 H 0.27006 0.5162 0.52613 0.0
C1120 C 0.29926 0.82841 0.43415 0.0
Eu1121 Eu 0.34409 0.7551 0.4286 0.0
C1122 C 0.31661 0.8743 0.43385 0.0
C1123 C 0.30292 0.9031 0.44622 0.0
C1124 C 0.33426 0.93177 0.45339 0.0
C1125 C 0.37923 0.93097 0.44826 0.0
C1126 C 0.38999 0.90974 0.4337 0.0
C1127 C 0.35839 0.88154 0.42638 0.0
C1128 C 0.30051 0.68102 0.45406 0.0
C1129 C 0.39408 0.73713 0.45793 0.0
C1130 C 0.4088 0.63239 0.41622 0.0
Eu1131 Eu 0.37036 0.70908 0.42288 0.0
C1132 C 0.39753 0.58509 0.41818 0.0
C1133 C 0.41137 0.55523 0.40626 0.0
C1134 C 0.39191 0.51298 0.40525 0.0
C1135 C 0.35831 0.49991 0.41623 0.0
C1136 C 0.34902 0.52774 0.42948 0.0
C1137 C 0.36801 0.57063 0.43031 0.0
C1138 C 0.4626 0.76017 0.42792 0.0
C1139 C 0.32901 0.75564 0.38969 0.0
O1140 O 0.29689 0.80709 0.4204 0.0
O1141 O 0.31843 0.80437 0.44535 0.0
O1142 O 0.30184 0.69238 0.4383 0.0
O1143 O 0.3032 0.69364 0.43831 0.0
O1144 O 0.38402 0.77368 0.45048 0.0
O1145 O 0.38794 0.70047 0.4496 0.0
O1146 O 0.4165 0.655 0.42932 0.0
O1147 O 0.38326 0.65426 0.40614 0.0
O1148 O 0.42341 0.76569 0.42041 0.0
O1149 O 0.42244 0.76459 0.42059 0.0
O1150 O 0.34132 0.71558 0.39529 0.0
O1151 O 0.32878 0.78299 0.40206 0.0
H1152 H 0.27082 0.89807 0.45209 0.0
H1153 H 0.3254 0.94802 0.46462 0.0
H1154 H 0.42446 0.90913 0.42953 0.0
H1155 H 0.36947 0.85983 0.41671 0.0
H1156 H 0.43432 0.5659 0.39689 0.0
H1157 H 0.39998 0.49244 0.39488 0.0
H1158 H 0.32483 0.51783 0.4385 0.0
H1159 H 0.35742 0.59336 0.43976 0.0
C1160 C 1.02143 0.55714 0.18648 0.0
Eu1161 Eu 0.09358 0.60277 0.1798 0.0
C1162 C 0.97414 0.56979 0.18455 0.0
C1163 C 0.94754 0.56441 0.19825 0.0
C1164 C 0.92102 0.60006 0.2033 0.0
C1165 C 0.91945 0.63981 0.19417 0.0
C1166 C 0.93588 0.63957 0.17841 0.0
C1167 C 0.96348 0.60424 0.17354 0.0
C1168 C 0.16295 0.55535 0.20515 0.0
C1169 C 0.12297 0.65403 0.20794 0.0
C1170 C 0.21383 0.66261 0.16324 0.0
Eu1171 Eu 0.13842 0.62641 0.17278 0.0
C1172 C 0.26141 0.65116 0.16442 0.0
C1173 C 0.2892 0.66205 0.15152 0.0
C1174 C 0.33236 0.64453 0.15082 0.0
C1175 C 0.34855 0.61591 0.16307 0.0
C1176 C 0.32213 0.60861 0.1768 0.0
C1177 C 0.27841 0.62579 0.17739 0.0
C1178 C 0.091 0.72014 0.17807 0.0
C1179 C 0.0869 0.58573 0.14095 0.0
O1180 O 1.04459 0.55081 0.17334 0.0
O1181 O 1.04276 0.58239 0.19691 0.0
O1182 O 0.15633 0.56051 0.18918 0.0
O1183 O 0.15534 0.56143 0.1891 0.0
O1184 O 0.08381 0.64363 0.20218 0.0
O1185 O 0.1567 0.64619 0.19838 0.0
O1186 O 0.19413 0.67269 0.17666 0.0
O1187 O 0.18946 0.63605 0.15427 0.0
O1188 O 0.08251 0.6807 0.17121 0.0
O1189 O 0.08354 0.67989 0.17137 0.0
O1190 O 0.12868 0.59033 0.14653 0.0
O1191 O 0.06107 0.59467 0.15332 0.0
H1192 H 0.95464 0.53767 0.20675 0.0
H1193 H 0.909 0.59954 0.2156 0.0
H1194 H 0.93372 0.66941 0.17102 0.0
H1195 H 0.98221 0.60819 0.1625 0.0
H1196 H 0.27654 0.68174 0.14148 0.0
H1197 H 0.35173 0.65062 0.14001 0.0
H1198 H 0.33414 0.58785 0.18661 0.0
H1199 H 0.25726 0.6175 0.18757 0.0
C1200 C 0.29081 0.26631 0.93325 0.0
Eu1201 Eu 0.26051 0.34666 0.92706 0.0
C1202 C 0.26485 0.22497 0.93197 0.0
C1203 C 0.27231 0.19131 0.94338 0.0
C1204 C 0.23569 0.16704 0.9491 0.0
C1205 C 0.19207 0.17865 0.9439 0.0
C1206 C 0.18645 0.20392 0.92983 0.0
C1207 C 0.22339 0.22686 0.92367 0.0
C1208 C 0.3125 0.40585 0.95332 0.0
C1209 C 0.2132 0.40044 0.95357 0.0
C1210 C 0.21887 0.45511 0.90435 0.0
Eu1211 Eu 0.23761 0.38219 0.92018 0.0
C1212 C 0.23346 0.50152 0.90624 0.0
C1213 C 0.21085 0.53544 0.89796 0.0
C1214 C 0.22615 0.57948 0.89902 0.0
C1215 C 0.26452 0.59046 0.90846 0.0
C1216 C 0.28466 0.55643 0.91775 0.0
C1217 C 0.26957 0.51224 0.91649 0.0
C1218 C 0.14624 0.32873 0.91495 0.0
C1219 C 0.27249 0.33244 0.88832 0.0
O1220 O 0.29775 0.28689 0.91972 0.0
O1221 O 0.27629 0.29361 0.9443 0.0
O1222 O 0.30699 0.40296 0.93736 0.0
O1223 O 0.3053 0.40141 0.93713 0.0
O1224 O 0.22801 0.35921 0.95184 0.0
O1225 O 0.21293 0.42347 0.94044 0.0
O1226 O 0.19458 0.43999 0.91616 0.0
O1227 O 0.24985 0.42665 0.89979 0.0
O1228 O 0.17847 0.33462 0.92578 0.0
O1229 O 0.17948 0.33531 0.9256 0.0
O1230 O 0.23534 0.35146 0.89321 0.0
O1231 O 0.29764 0.33185 0.90146 0.0
H1232 H 0.30434 0.18883 0.94964 0.0
H1233 H 0.2404 0.14641 0.95974 0.0
H1234 H 0.15304 0.21253 0.92552 0.0
H1235 H 0.21755 0.25193 0.91443 0.0
H1236 H 0.18242 0.52764 0.8902 0.0
H1237 H 0.2095 0.60413 0.8915 0.0
H1238 H 0.31348 0.56318 0.92533 0.0
H1239 H 0.28704 0.48618 0.92309 0.0
C1240 C 0.58238 0.55011 0.68134 0.0
Eu1241 Eu 0.50005 0.52257 0.67726 0.0
C1242 C 0.62101 0.52081 0.6839 0.0
C1243 C 0.64358 0.52421 0.69863 0.0
C1244 C 0.66606 0.48725 0.70473 0.0
C1245 C 0.66784 0.4469 0.69588 0.0
C1246 C 0.65028 0.44528 0.68022 0.0
C1247 C 0.6264 0.48206 0.67428 0.0
C1248 C 0.44186 0.57385 0.7045 0.0
C1249 C 0.46508 0.47507 0.70586 0.0
C1250 C 0.39636 0.49153 0.65365 0.0
Eu1251 Eu 0.46884 0.50181 0.67148 0.0
C1252 C 0.37508 0.52488 0.64318 0.0
C1253 C 0.34837 0.51018 0.6303 0.0
C1254 C 0.34139 0.53816 0.61707 0.0
C1255 C 0.36179 0.58073 0.61644 0.0
C1256 C 0.38432 0.59732 0.63008 0.0
C1257 C 0.39088 0.56943 0.64345 0.0
C1258 C 0.5233 0.40906 0.66706 0.0
C1259 C 0.51407 0.53969 0.63948 0.0
O1260 O 0.5634 0.54739 0.66727 0.0
O1261 O 0.55304 0.5488 0.69289 0.0
O1262 O 0.44568 0.56952 0.68854 0.0
O1263 O 0.44725 0.56777 0.68831 0.0
O1264 O 0.50462 0.48992 0.70195 0.0
O1265 O 0.43576 0.47709 0.69418 0.0
O1266 O 0.39515 0.49872 0.66905 0.0
O1267 O 0.43642 0.48096 0.64907 0.0
O1268 O 0.50713 0.43697 0.67794 0.0
O1269 O 0.50634 0.43905 0.67748 0.0
O1270 O 0.50973 0.50033 0.64615 0.0
O1271 O 0.50206 0.56477 0.65181 0.0
H1272 H 0.63956 0.55355 0.70623 0.0
H1273 H 0.67987 0.48943 0.71683 0.0
H1274 H 0.65234 0.41483 0.67312 0.0
H1275 H 0.60906 0.47858 0.66281 0.0
H1276 H 0.33624 0.4759 0.62984 0.0
H1277 H 0.32303 0.52516 0.60677 0.0
H1278 H 0.39958 0.63032 0.62992 0.0
H1279 H 0.41169 0.58124 0.65335 0.0
C1280 C 0.15472 0.47746 0.45935 0.0
C1281 C 0.18382 0.43976 0.45918 0.0
C1282 C 0.14336 0.40678 0.48183 0.0
C1283 C 0.12262 0.44822 0.48422 0.0
N1284 N 0.09152 0.51448 0.47247 0.0
N1285 N 0.20384 0.36616 0.46954 0.0
C1286 C 0.12261 0.48093 0.47196 0.0
C1287 C 0.17699 0.40325 0.47003 0.0
N1288 N 0.15976 0.51063 0.44814 0.0
N1289 N 0.13002 0.37104 0.49089 0.0
H1290 H 0.22756 0.36076 0.46061 0.0
H1291 H 0.20408 0.34173 0.4785 0.0
H1292 H 0.10337 0.37405 0.49896 0.0
H1293 H 0.14106 0.33827 0.48909 0.0
H1294 H 0.14199 0.54066 0.44827 0.0
H1295 H 0.18301 0.50846 0.43879 0.0
H1296 H 0.08649 0.53756 0.46323 0.0
H1297 H 0.06784 0.51632 0.4817 0.0
C1298 C 0.87409 0.90819 0.70731 0.0
C1299 C 0.91777 0.92007 0.70248 0.0
C1300 C 0.95015 0.88974 0.72717 0.0
C1301 C 0.90606 0.88304 0.733 0.0
N1302 N 0.82793 0.86853 0.72658 0.0
N1303 N 0.99671 0.90318 0.70382 0.0
C1304 C 0.86856 0.88596 0.72229 0.0
C1305 C 0.95562 0.9036 0.71101 0.0
N1306 N 0.83818 0.92098 0.69806 0.0
N1307 N 0.98636 0.88573 0.73727 0.0
H1308 H 1.00097 0.91375 0.69195 0.0
H1309 H 1.02494 0.88799 0.70896 0.0
H1310 H 0.9832 0.87545 0.74919 0.0
H1311 H 1.01895 0.89488 0.73408 0.0
H1312 H 0.80483 0.91814 0.70171 0.0
H1313 H 0.8425 0.93599 0.68678 0.0
H1314 H 0.8002 0.86715 0.71885 0.0
H1315 H 0.82318 0.85194 0.73746 0.0
C1316 C 0.38746 0.62605 0.96609 0.0
C1317 C 0.40169 0.66539 0.95838 0.0
C1318 C 0.45681 0.67776 0.98003 0.0
C1319 C 0.43498 0.64415 0.98921 0.0
N1320 N 0.36799 0.59663 0.99184 0.0
N1321 N 0.44674 0.73333 0.9592 0.0
C1322 C 0.39713 0.62087 0.98257 0.0
C1323 C 0.43635 0.69219 0.96541 0.0
N1324 N 0.36081 0.5961 0.95802 0.0
N1325 N 0.49519 0.69787 0.98563 0.0
H1326 H 0.43296 0.74603 0.94859 0.0
H1327 H 0.46665 0.75648 0.96539 0.0
H1328 H 0.50893 0.69148 0.997 0.0
H1329 H 0.5147 0.71913 0.97853 0.0
H1330 H 0.34958 0.56616 0.96306 0.0
H1331 H 0.35323 0.60004 0.94581 0.0
H1332 H 0.33751 0.58448 0.98734 0.0
H1333 H 0.37065 0.59206 1.0042 0.0
C1334 C 0.72345 0.15215 0.23574 0.0
C1335 C 0.69845 0.19151 0.23997 0.0
C1336 C 0.65358 0.18185 0.21542 0.0
C1337 C 0.6827 0.14629 0.21071 0.0
N1338 N 0.75319 0.10834 0.21373 0.0
N1339 N 0.64264 0.24687 0.23259 0.0
C1340 C 0.72137 0.13673 0.21978 0.0
C1341 C 0.66526 0.20818 0.22917 0.0
N1342 N 0.74594 0.12658 0.24686 0.0
N1343 N 0.61295 0.18768 0.2079 0.0
H1344 H 0.64785 0.26515 0.24316 0.0
H1345 H 0.62047 0.26199 0.22447 0.0
H1346 H 0.60221 0.16811 0.19822 0.0
H1347 H 0.5883 0.20957 0.21207 0.0
H1348 H 0.75944 0.09523 0.24411 0.0
H1349 H 0.74806 0.13315 0.25908 0.0
H1350 H 0.78211 0.09915 0.22006 0.0
H1351 H 0.75186 0.0968 0.20183 0.0
C1352 C 0.18829 0.71341 0.23868 0.0
C1353 C 0.19268 0.67695 0.24966 0.0
C1354 C 0.1268 0.64122 0.23749 0.0
C1355 C 0.13107 0.67096 0.22434 0.0
N1356 N 0.15453 0.74177 0.214 0.0
N1357 N 0.16217 0.60992 0.26154 0.0
C1358 C 0.15779 0.70964 0.22566 0.0
C1359 C 0.16004 0.64232 0.24992 0.0
N1360 N 0.21299 0.75159 0.24085 0.0
N1361 N 0.09119 0.61241 0.23792 0.0
H1362 H 0.1864 0.61024 0.27071 0.0
H1363 H 0.14087 0.58227 0.26191 0.0
H1364 H 0.06648 0.61232 0.22892 0.0
H1365 H 0.08385 0.59199 0.24773 0.0
H1366 H 0.20907 0.78044 0.23397 0.0
H1367 H 0.23471 0.75608 0.25057 0.0
H1368 H 0.1766 0.76858 0.21262 0.0
H1369 H 0.12835 0.74105 0.20561 0.0
C1370 C 0.72908 0.96641 0.47002 0.0
C1371 C 0.70464 0.9273 0.46506 0.0
C1372 C 0.65096 0.94068 0.48661 0.0
C1373 C 0.67913 0.97557 0.49263 0.0
N1374 N 0.75101 1.0124 0.49276 0.0
N1375 N 0.64605 0.87302 0.47057 0.0
C1376 C 0.72064 0.98461 0.48535 0.0
C1377 C 0.66737 0.91241 0.47421 0.0
N1378 N 0.7583 0.98833 0.46006 0.0
N1379 N 0.60721 0.93726 0.49146 0.0
H1380 H 0.6549 0.85284 0.46083 0.0
H1381 H 0.62148 0.85908 0.47798 0.0
H1382 H 0.59263 0.95928 0.49966 0.0
H1383 H 0.58419 0.91526 0.48615 0.0
H1384 H 0.77224 1.01944 0.46297 0.0
H1385 H 0.76606 0.97875 0.44839 0.0
H1386 H 0.78306 1.01847 0.48822 0.0
H1387 H 0.74554 1.02577 0.50423 0.0
C1388 C 0.45955 0.48459 0.73591 0.0
C1389 C 0.45347 0.45749 0.72187 0.0
C1390 C 0.41475 0.4012 0.7379 0.0
C1391 C 0.41215 0.43244 0.75076 0.0
N1392 N 0.43102 0.5038 0.76243 0.0
N1393 N 0.42145 0.39101 0.70929 0.0
C1394 C 0.43486 0.47393 0.75001 0.0
C1395 C 0.43047 0.41584 0.72282 0.0
N1396 N 0.48791 0.5207 0.73579 0.0
N1397 N 0.40151 0.35763 0.74 0.0
H1398 H 0.43358 0.39866 0.69787 0.0
H1399 H 0.39929 0.36389 0.70918 0.0
H1400 H 0.38873 0.34537 0.75079 0.0
H1401 H 0.40767 0.33246 0.73156 0.0
H1402 H 0.49641 0.53875 0.74613 0.0
H1403 H 0.50621 0.53063 0.72577 0.0
H1404 H 0.44186 0.53699 0.76177 0.0
H1405 H 0.4145 0.4959 0.77314 0.0
C1406 C 0.94916 0.17295 0.99346 0.0
C1407 C 0.91446 0.16227 1.00448 0.0
C1408 C 0.86175 0.20582 0.98831 0.0
C1409 C 0.89308 0.20476 0.97549 0.0
N1410 N 0.96744 0.18823 0.96565 0.0
N1411 N 0.83827 0.17126 1.01337 0.0
C1412 C 0.93737 0.18931 0.97806 0.0
C1413 C 0.87095 0.18024 1.00236 0.0
N1414 N 0.99313 0.16691 0.99767 0.0
N1415 N 0.82361 0.23103 0.98705 0.0
H1416 H 0.84546 0.15476 1.02416 0.0
H1417 H 0.80437 0.17875 1.01149 0.0
H1418 H 0.8165 0.25064 0.97694 0.0
H1419 H 0.80169 0.23601 0.99664 0.0
H1420 H 1.01961 0.17834 0.99061 0.0
H1421 H 1.00286 0.15551 1.00903 0.0
H1422 H 0.99871 0.17256 0.96646 0.0
H1423 H 0.95995 0.20055 0.95417 0.0
C1424 C 0.9547 0.6362 0.74954 0.0
C1425 C 0.92853 0.67578 0.74903 0.0
C1426 C 0.96021 0.69526 0.72282 0.0
C1427 C 0.97677 0.65118 0.72163 0.0
N1428 N 0.99872 0.58198 0.73444 0.0
N1429 N 0.9102 0.74666 0.73635 0.0
C1430 C 0.978 0.62278 0.73537 0.0
C1431 C 0.93316 0.7069 0.73613 0.0
N1432 N 0.95595 0.61122 0.76335 0.0
N1433 N 0.97131 0.72587 0.71128 0.0
H1434 H 0.89217 0.7577 0.74632 0.0
H1435 H 0.90772 0.76818 0.7265 0.0
H1436 H 0.99345 0.71772 0.70206 0.0
H1437 H 0.96331 0.75983 0.71186 0.0
H1438 H 0.97631 0.58321 0.765 0.0
H1439 H 0.93838 0.62046 0.77369 0.0
H1440 H 0.99658 0.55723 0.74323 0.0
H1441 H 1.01782 0.57247 0.72452 0.0
C1442 C 0.22676 0.19888 0.49556 0.0
C1443 C 0.18729 0.17223 0.49591 0.0
C1444 C 0.15019 0.22289 0.47678 0.0
C1445 C 0.19224 0.24183 0.47368 0.0
N1446 N 0.26479 0.26326 0.48366 0.0
N1447 N 0.10904 0.16137 0.48843 0.0
C1448 C 0.22857 0.23529 0.48449 0.0
C1449 C 0.14785 0.18561 0.48724 0.0
N1450 N 0.2629 0.18752 0.50497 0.0
N1451 N 0.11333 0.23991 0.46901 0.0
H1452 H 0.10534 0.13489 0.49646 0.0
H1453 H 0.08096 0.16653 0.48112 0.0
H1454 H 0.11625 0.26725 0.46118 0.0
H1455 H 0.08035 0.23004 0.47126 0.0
H1456 H 0.29395 0.20358 0.50458 0.0
H1457 H 0.26198 0.16093 0.51315 0.0
H1458 H 0.2917 0.26272 0.49173 0.0
H1459 H 0.26591 0.28957 0.47538 0.0
C1460 C 0.6388 0.40072 0.22557 0.0
C1461 C 0.61712 0.44172 0.22275 0.0
C1462 C 0.64642 0.47302 0.24788 0.0
C1463 C 0.67523 0.43537 0.24901 0.0
N1464 N 0.69338 0.35908 0.24126 0.0
N1465 N 0.58383 0.50822 0.23366 0.0
C1466 C 0.66916 0.39742 0.23869 0.0
C1467 C 0.61511 0.47494 0.23488 0.0
N1468 N 0.63089 0.36601 0.21516 0.0
N1469 N 0.65101 0.50761 0.25859 0.0
H1470 H 0.56028 0.50883 0.2243 0.0
H1471 H 0.57831 0.53223 0.24255 0.0
H1472 H 0.67342 0.50638 0.26832 0.0
H1473 H 0.63382 0.53789 0.25764 0.0
H1474 H 0.64603 0.33468 0.21581 0.0
H1475 H 0.60665 0.36865 0.20603 0.0
H1476 H 0.69384 0.33166 0.23353 0.0
H1477 H 0.713 0.35414 0.25152 0.0
C1478 C 0.38116 0.86092 0.98786 0.0
C1479 C 0.40809 0.87439 0.97462 0.0
C1480 C 0.4521 0.92155 0.99232 0.0
C1481 C 0.4163 0.92075 1.00348 0.0
N1482 N 0.35357 0.88118 1.01463 0.0
N1483 N 0.47457 0.91154 0.96469 0.0
C1484 C 0.38308 0.8871 1.00228 0.0
C1485 C 0.44615 0.90176 0.97715 0.0
N1486 N 0.35372 0.82444 0.9864 0.0
N1487 N 0.49162 0.94152 0.99631 0.0
H1488 H 0.47201 0.89623 0.95343 0.0
H1489 H 0.49882 0.93678 0.96512 0.0
H1490 H 0.49758 0.9527 1.00798 0.0
H1491 H 0.51958 0.94114 0.98884 0.0
H1492 H 0.33403 0.81205 0.99573 0.0
H1493 H 0.35384 0.80421 0.97614 0.0
H1494 H 0.32773 0.85763 1.01452 0.0
H1495 H 0.35533 0.90039 1.02515 0.0
C1496 C 0.91946 0.39343 0.97207 0.0
C1497 C 0.92168 0.42334 0.95883 0.0
C1498 C 0.98062 0.46557 0.97278 0.0
C1499 C 0.96795 0.44412 0.98735 0.0
N1500 N 0.92766 0.38449 1.0008 0.0
N1501 N 0.95747 0.48528 0.94549 0.0
C1502 C 0.93868 0.40653 0.98692 0.0
C1503 C 0.95387 0.45826 0.95871 0.0
N1504 N 0.89885 0.35265 0.9704 0.0
N1505 N 1.01758 0.49272 0.9724 0.0
H1506 H 0.9387 0.47982 0.93498 0.0
H1507 H 0.97745 0.51396 0.94519 0.0
H1508 H 1.03821 0.49791 0.98243 0.0
H1509 H 1.03017 0.50657 0.96182 0.0
H1510 H 0.89993 0.32777 0.97922 0.0
H1511 H 0.88497 0.34184 0.95951 0.0
H1512 H 0.90182 0.36092 1.00148 0.0
H1513 H 0.9431 0.39117 1.01184 0.0
C1514 C 0.4426 0.15111 0.7167 0.0
C1515 C 0.41425 0.11418 0.71251 0.0
C1516 C 0.37606 0.12139 0.73813 0.0
C1517 C 0.39942 0.16233 0.74102 0.0
N1518 N 0.44899 0.22068 0.73145 0.0
N1519 N 0.34705 0.07164 0.71773 0.0
C1520 C 0.43006 0.17917 0.72962 0.0
C1521 C 0.37845 0.10208 0.72271 0.0
N1522 N 0.48387 0.15676 0.70983 0.0
N1523 N 0.35252 0.09995 0.74998 0.0
H1524 H 0.34758 0.05825 0.70619 0.0
H1525 H 0.31839 0.06363 0.72432 0.0
H1526 H 0.3484 0.11215 0.76159 0.0
H1527 H 0.3397 0.0676 0.74857 0.0
H1528 H 0.5073 0.17953 0.71441 0.0
H1529 H 0.49745 0.1352 0.70131 0.0
H1530 H 0.46835 0.23555 0.72246 0.0
H1531 H 0.44275 0.24138 0.74134 0.0
C1532 C 0.68088 0.7168 0.47265 0.0
C1533 C 0.68398 0.67952 0.46191 0.0
C1534 C 0.61554 0.64792 0.47333 0.0
C1535 C 0.62102 0.67769 0.48643 0.0
N1536 N 0.64586 0.74837 0.4965 0.0
N1537 N 0.6494 0.6151 0.44939 0.0
C1538 C 0.64907 0.71534 0.48517 0.0
C1539 C 0.64917 0.64706 0.4612 0.0
N1540 N 0.70728 0.75383 0.47046 0.0
N1541 N 0.57877 0.62053 0.47287 0.0
H1542 H 0.67423 0.61372 0.44056 0.0
H1543 H 0.62553 0.58976 0.44833 0.0
H1544 H 0.55368 0.62261 0.48159 0.0
H1545 H 0.57115 0.59895 0.46338 0.0
H1546 H 0.70563 0.78289 0.47737 0.0
H1547 H 0.7284 0.75722 0.46063 0.0
H1548 H 0.66806 0.77515 0.49776 0.0
H1549 H 0.61939 0.74856 0.50468 0.0
C1550 C 0.22788 0.88994 0.22482 0.0
C1551 C 0.19653 0.88748 0.23759 0.0
C1552 C 0.14621 0.93748 0.22299 0.0
C1553 C 0.18271 0.94958 0.2129 0.0
N1554 N 0.25704 0.93497 0.20284 0.0
N1555 N 0.12282 0.90266 0.24791 0.0
C1556 C 0.22291 0.92435 0.21311 0.0
C1557 C 0.1542 0.90846 0.23614 0.0
N1558 N 0.26235 0.8599 0.22401 0.0
N1559 N 0.10412 0.95397 0.22003 0.0
H1560 H 0.12727 0.87936 0.25713 0.0
H1561 H 0.09348 0.92157 0.24883 0.0
H1562 H 0.09733 0.97662 0.21078 0.0
H1563 H 0.07542 0.94165 0.22565 0.0
H1564 H 0.28305 0.85699 0.21397 0.0
H1565 H 0.26713 0.83489 0.23261 0.0
H1566 H 0.28909 0.92097 0.20364 0.0
H1567 H 0.25376 0.95961 0.19397 0.0
C1568 C 0.63632 0.89766 0.98136 0.0
C1569 C 0.62086 0.94109 0.9844 0.0
C1570 C 0.65724 0.96924 0.96014 0.0
C1571 C 0.68209 0.92881 0.95978 0.0
N1572 N 0.69299 0.85215 0.9687 0.0
N1573 N 0.60381 1.01521 0.97501 0.0
C1574 C 0.67005 0.89175 0.9697 0.0
C1575 C 0.62637 0.97577 0.97295 0.0
N1576 N 0.61891 0.86269 0.98991 0.0
N1577 N 0.66507 1.00156 0.94882 0.0
H1578 H 0.57986 1.01904 0.98405 0.0
H1579 H 0.60804 1.04355 0.96787 0.0
H1580 H 0.68801 0.99698 0.93948 0.0
H1581 H 0.64805 1.03198 0.9482 0.0
H1582 H 0.62649 0.82916 0.98766 0.0
H1583 H 0.59292 0.86768 0.99813 0.0
H1584 H 0.68978 0.82619 0.97702 0.0
H1585 H 0.71585 0.8454 0.95955 0.0
C1586 C 0.40953 0.4062 0.22668 0.0
C1587 C 0.40637 0.43159 0.24119 0.0
C1588 C 0.4347 0.49532 0.22643 0.0
C1589 C 0.42357 0.47473 0.21154 0.0
N1590 N 0.39224 0.40918 0.19821 0.0
N1591 N 0.39986 0.50886 0.25154 0.0
C1592 C 0.40869 0.42949 0.21176 0.0
C1593 C 0.41441 0.47871 0.24031 0.0
N1594 N 0.4151 0.36091 0.22691 0.0
N1595 N 0.46498 0.5296 0.22762 0.0
H1596 H 0.37471 0.5022 0.25986 0.0
H1597 H 0.40624 0.54317 0.25035 0.0
H1598 H 0.48538 0.53921 0.21804 0.0
H1599 H 0.47395 0.54352 0.23876 0.0
H1600 H 0.4203 0.34272 0.21633 0.0
H1601 H 0.42171 0.34327 0.23751 0.0
H1602 H 0.37884 0.37681 0.1984 0.0
H1603 H 0.38706 0.42652 0.18743 0.0
C1604 C 0.96338 0.20623 0.48446 0.0
C1605 C 0.98312 0.16359 0.48485 0.0
C1606 C 0.94874 0.14442 0.45893 0.0
C1607 C 0.92127 0.18297 0.46047 0.0
N1608 N 0.90563 0.25399 0.47342 0.0
N1609 N 1.01252 0.10231 0.46956 0.0
C1610 C 0.93049 0.21559 0.4726 0.0
C1611 C 0.98177 0.13589 0.47105 0.0
N1612 N 0.97726 0.23771 0.49535 0.0
N1613 N 0.94107 0.11479 0.44665 0.0
H1614 H 1.0367 0.09614 0.47845 0.0
H1615 H 1.01673 0.08373 0.45904 0.0
H1616 H 0.91734 0.12083 0.43757 0.0
H1617 H 0.95692 0.08378 0.44575 0.0
H1618 H 0.96674 0.27103 0.49522 0.0
H1619 H 1.00355 0.23095 0.50338 0.0
H1620 H 0.90396 0.27347 0.4838 0.0
H1621 H 0.88475 0.26496 0.46407 0.0
C1622 C 0.2201 0.68029 0.71164 0.0
C1623 C 0.18344 0.65021 0.71214 0.0
C1624 C 0.16001 0.6794 0.73822 0.0
C1625 C 0.19839 0.70757 0.73836 0.0
N1626 N 0.25533 0.7466 0.72289 0.0
N1627 N 0.109 0.63446 0.72222 0.0
C1628 C 0.22497 0.71239 0.72421 0.0
C1629 C 0.15008 0.65442 0.7242 0.0
N1630 N 0.25157 0.67633 0.69978 0.0
N1631 N 0.13425 0.67473 0.75173 0.0
H1632 H 0.10057 0.61606 0.71195 0.0
H1633 H 0.08194 0.64017 0.72988 0.0
H1634 H 0.13923 0.69385 0.7621 0.0
H1635 H 0.10942 0.65028 0.75292 0.0
H1636 H 0.28219 0.69335 0.69993 0.0
H1637 H 0.2483 0.65353 0.69029 0.0
H1638 H 0.27286 0.7534 0.71233 0.0
H1639 H 0.2596 0.77129 0.73161 0.0
C1640 C 0.65333 0.20534 0.72444 0.0
C1641 C 0.62644 0.1668 0.72215 0.0
C1642 C 0.64832 0.13771 0.74862 0.0
C1643 C 0.68087 0.17225 0.74959 0.0
N1644 N 0.70746 0.24497 0.74107 0.0
N1645 N 0.58321 0.10765 0.73427 0.0
C1646 C 0.68037 0.20859 0.73846 0.0
C1647 C 0.61856 0.13682 0.73509 0.0
N1648 N 0.65401 0.23753 0.7127 0.0
N1649 N 0.64753 0.10502 0.76015 0.0
H1650 H 0.5599 0.10842 0.72484 0.0
H1651 H 0.57415 0.08617 0.74359 0.0
H1652 H 0.66878 0.10564 0.77022 0.0
H1653 H 0.62695 0.07683 0.75961 0.0
H1654 H 0.67406 0.26607 0.71278 0.0
H1655 H 0.63312 0.23572 0.70261 0.0
H1656 H 0.71293 0.27071 0.73288 0.0
H1657 H 0.72428 0.25016 0.75192 0.0
C1658 C 0.23377 0.46261 0.97302 0.0
C1659 C 0.20826 0.42306 0.96938 0.0
C1660 C 0.16713 0.4333 0.99453 0.0
C1661 C 0.19671 0.46923 0.99879 0.0
N1662 N 0.26648 0.50757 0.99433 0.0
N1663 N 0.15541 0.36678 0.97833 0.0
C1664 C 0.23356 0.47921 0.9889 0.0
C1665 C 0.17735 0.40643 0.98088 0.0
N1666 N 0.25619 0.48646 0.96149 0.0
N1667 N 0.12696 0.42746 1.00221 0.0
H1668 H 0.15857 0.34833 0.96775 0.0
H1669 H 0.13625 0.35108 0.9872 0.0
H1670 H 0.11586 0.44707 1.01174 0.0
H1671 H 0.1023 0.40551 0.99798 0.0
H1672 H 0.26977 0.51816 0.96369 0.0
H1673 H 0.2589 0.47746 0.94949 0.0
H1674 H 0.29474 0.51568 0.98756 0.0
H1675 H 0.26713 0.51965 1.00616 0.0
C1676 C 0.94706 0.90787 0.22309 0.0
C1677 C 0.97071 0.94891 0.22257 0.0
C1678 C 0.95081 0.96494 0.25055 0.0
C1679 C 0.92078 0.92823 0.24992 0.0
N1680 N 0.90403 0.85506 0.23891 0.0
N1681 N 1.01223 1.00458 0.23764 0.0
C1682 C 0.92356 0.89632 0.23724 0.0
C1683 C 0.97855 0.97352 0.23697 0.0
N1684 N 0.94664 0.88058 0.20988 0.0
N1685 N 0.95129 0.9923 0.26376 0.0
H1686 H 1.03248 1.01205 0.22781 0.0
H1687 H 1.02261 1.02026 0.24825 0.0
H1688 H 0.93188 0.98575 0.27392 0.0
H1689 H 0.97005 1.02167 0.26461 0.0
H1690 H 0.92525 0.85321 0.20837 0.0
H1691 H 0.96875 0.88567 0.2004 0.0
H1692 H 0.90764 0.82889 0.23071 0.0
H1693 H 0.8872 0.8456 0.24933 0.0
C1694 C 0.45301 0.70914 0.49636 0.0
C1695 C 0.41515 0.69091 0.50435 0.0
C1696 C 0.36514 0.72991 0.48589 0.0
C1697 C 0.40231 0.73571 0.47542 0.0
N1698 N 0.48207 0.74137 0.47162 0.0
N1699 N 0.33621 0.69197 0.50969 0.0
C1700 C 0.44664 0.72971 0.48115 0.0
C1701 C 0.37141 0.70503 0.50029 0.0
N1702 N 0.49472 0.70487 0.50314 0.0
N1703 N 0.32422 0.74731 0.4818 0.0
H1704 H 0.34139 0.67501 0.52056 0.0
H1705 H 0.30253 0.69705 0.5067 0.0
H1706 H 0.3197 0.76637 0.47142 0.0
H1707 H 0.29601 0.74601 0.48915 0.0
H1708 H 0.52356 0.71988 0.49853 0.0
H1709 H 0.49948 0.6893 0.51426 0.0
H1710 H 0.51544 0.7332 0.47414 0.0
H1711 H 0.47743 0.75925 0.46092 0.0
C1712 C 0.44134 0.13408 0.24703 0.0
C1713 C 0.41791 0.1754 0.24664 0.0
C1714 C 0.46022 0.19875 0.22296 0.0
C1715 C 0.47454 0.15433 0.22107 0.0
N1716 N 0.48982 0.08197 0.23259 0.0
N1717 N 0.40679 0.24898 0.23497 0.0
C1718 C 0.46949 0.12288 0.23376 0.0
C1719 C 0.42879 0.20879 0.23507 0.0
N1720 N 0.43512 0.10545 0.25969 0.0
N1721 N 0.47726 0.23117 0.21313 0.0
H1722 H 0.38653 0.26001 0.24439 0.0
H1723 H 0.4065 0.26984 0.22492 0.0
H1724 H 0.50195 0.22366 0.20465 0.0
H1725 H 0.47091 0.2653 0.21463 0.0
H1726 H 0.452 0.07516 0.26112 0.0
H1727 H 0.41401 0.11323 0.26931 0.0
H1728 H 0.48476 0.05555 0.24056 0.0
H1729 H 0.51242 0.07462 0.22339 0.0
C1730 C 0.65671 0.65255 0.98537 0.0
C1731 C 0.68901 0.62127 0.99128 0.0
C1732 C 0.73268 0.63135 0.96697 0.0
C1733 C 0.7053 0.66904 0.96267 0.0
N1734 N 0.6434 0.71826 0.96913 0.0
N1735 N 0.76199 0.58709 0.98907 0.0
C1736 C 0.66863 0.6812 0.97252 0.0
C1737 C 0.72869 0.61319 0.98259 0.0
N1738 N 0.61317 0.65162 0.99058 0.0
N1739 N 0.761 0.61115 0.95624 0.0
H1740 H 0.76032 0.5744 1.00077 0.0
H1741 H 0.7927 0.58148 0.98343 0.0
H1742 H 0.76644 0.62172 0.9445 0.0
H1743 H 0.77685 0.58067 0.95865 0.0
H1744 H 0.58781 0.67082 0.98528 0.0
H1745 H 0.60092 0.62819 0.99876 0.0
H1746 H 0.61921 0.73075 0.97701 0.0
H1747 H 0.64842 0.73756 0.95886 0.0
C1748 C 0.15969 0.88792 0.7416 0.0
C1749 C 0.15747 0.92393 0.75269 0.0
C1750 C 0.10073 0.95984 0.73584 0.0
C1751 C 0.1154 0.93244 0.72287 0.0
N1752 N 0.15183 0.86515 0.71378 0.0
N1753 N 0.11892 0.98856 0.76268 0.0
C1754 C 0.14192 0.89413 0.72598 0.0
C1755 C 0.12498 0.95786 0.75068 0.0
N1756 N 0.18037 0.84886 0.7459 0.0
N1757 N 0.06472 0.98768 0.73384 0.0
H1758 H 0.13619 0.98619 0.77366 0.0
H1759 H 0.09745 1.016 0.76177 0.0
H1760 H 1.04532 0.98772 0.72334 0.0
H1761 H 1.05134 1.00715 0.74306 0.0
H1762 H 0.18154 0.82062 0.73853 0.0
H1763 H 0.19196 0.84326 0.75759 0.0
H1764 H 0.17579 0.83976 0.7146 0.0
H1765 H 0.13648 0.86784 0.70254 0.0
C1766 C 0.9267 0.49958 0.48573 0.0
C1767 C 0.91679 0.47772 0.50047 0.0
C1768 C 0.90455 0.40969 0.48477 0.0
C1769 C 0.90098 0.43568 0.47042 0.0
N1770 N 0.89075 0.51303 0.46064 0.0
N1771 N 0.88669 0.41087 0.51313 0.0
C1772 C 0.90674 0.48299 0.47171 0.0
C1773 C 0.90284 0.43221 0.49983 0.0
N1774 N 0.95644 0.53433 0.48471 0.0
N1775 N 0.91147 0.3646 0.48427 0.0
H1776 H 0.88102 0.42764 0.52399 0.0
H1777 H 0.87402 0.37823 0.51263 0.0
H1778 H 0.91909 0.34783 0.4736 0.0
H1779 H 0.91666 0.34589 0.49475 0.0
H1780 H 0.96424 0.54919 0.47367 0.0
H1781 H 0.97787 0.54316 0.49419 0.0
H1782 H 0.89548 0.54752 0.46215 0.0
H1783 H 0.86617 0.50546 0.45208 0.0
C1784 C 0.47013 0.98108 0.47523 0.0
C1785 C 0.46443 0.95255 0.48871 0.0
C1786 C 0.41844 0.90172 0.47268 0.0
C1787 C 0.4147 0.93582 0.46073 0.0
N1788 N 0.44029 1.0055 0.44939 0.0
N1789 N 0.44311 0.88137 0.49963 0.0
C1790 C 0.44237 0.97441 0.46144 0.0
C1791 C 0.44224 0.91101 0.48709 0.0
N1792 N 0.50173 1.01432 0.47571 0.0
N1793 N 0.39892 0.86077 0.47019 0.0
H1794 H 0.46488 0.8858 0.50938 0.0
H1795 H 0.42301 0.85287 0.50046 0.0
H1796 H 0.38124 0.85301 0.45972 0.0
H1797 H 0.40263 0.83344 0.47787 0.0
H1798 H 0.50954 1.03455 0.46589 0.0
H1799 H 0.52388 1.01826 0.48539 0.0
H1800 H 0.45524 1.03704 0.45007 0.0
H1801 H 0.42177 1.00016 0.43887 0.0
C1802 C 0.94724 0.70367 0.22939 0.0
C1803 C 0.90456 0.72092 0.23351 0.0
C1804 C 0.87572 0.70244 0.20657 0.0
C1805 C 0.91743 0.68226 0.2033 0.0
N1806 N 0.99731 0.68558 0.20763 0.0
N1807 N 0.83262 0.75002 0.22445 0.0
C1808 C 0.95486 0.69138 0.21329 0.0
C1809 C 0.87046 0.72566 0.22144 0.0
N1810 N 0.97914 0.69525 0.24093 0.0
N1811 N 0.84079 0.69651 0.19603 0.0
H1812 H 0.82764 0.76673 0.23529 0.0
H1813 H 0.80817 0.75682 0.21574 0.0
H1814 H 0.84527 0.68045 0.18495 0.0
H1815 H 0.80774 0.70575 0.19848 0.0
H1816 H 1.00905 0.67835 0.23848 0.0
H1817 H 0.97428 0.70208 0.25312 0.0
H1818 H 1.02556 0.69588 0.21418 0.0
H1819 H 1.00327 0.6759 0.19574 0.0
C1820 C 0.16572 0.21351 0.96899 0.0
C1821 C 0.15773 0.18188 0.95657 0.0
C1822 C 0.1056 0.14155 0.97378 0.0
C1823 C 0.12454 0.16491 0.98724 0.0
N1824 N 0.16797 0.22727 0.99765 0.0
N1825 N 0.11499 0.12105 0.94552 0.0
C1826 C 0.15242 0.20286 0.9848 0.0
C1827 C 0.12497 0.14822 0.95832 0.0
N1828 N 0.18763 0.25269 0.96565 0.0
N1829 N 0.07147 0.11144 0.97582 0.0
H1830 H 0.1282 0.12682 0.93406 0.0
H1831 H 0.09521 0.09232 0.94627 0.0
H1832 H 0.05717 0.10452 0.98693 0.0
H1833 H 1.05447 0.09601 0.96631 0.0
H1834 H 0.19299 0.27815 0.97403 0.0
H1835 H 0.19656 0.26166 0.95398 0.0
H1836 H 0.19338 0.25122 0.99691 0.0
H1837 H 0.1566 0.22241 1.00936 0.0
C1838 C 0.65749 0.37836 0.71239 0.0
C1839 C 0.68713 0.40722 0.70395 0.0
C1840 C 0.73454 0.41437 0.72695 0.0
C1841 C 0.70731 0.38391 0.73582 0.0
N1842 N 0.64519 0.33135 0.7359 0.0
N1843 N 0.76237 0.43327 0.70053 0.0
C1844 C 0.67011 0.36293 0.72804 0.0
C1845 C 0.73017 0.41497 0.71013 0.0
N1846 N 0.61596 0.36954 0.70614 0.0
N1847 N 0.75783 0.44831 0.73421 0.0
H1848 H 0.75707 0.43705 0.68813 0.0
H1849 H 0.79443 0.44129 0.70484 0.0
H1850 H 0.75559 0.45591 0.74641 0.0
H1851 H 0.77416 0.47319 0.72759 0.0
H1852 H 0.59052 0.35381 0.71261 0.0
H1853 H 0.60685 0.37983 0.69457 0.0
H1854 H 0.61941 0.31315 0.73038 0.0
H1855 H 0.65206 0.32137 0.7477 0.0
C1856 C 1.05131 0.27793 0.41503 0.0
C1857 C 0.09007 0.29821 0.42308 0.0
C1858 C 1.03117 0.35839 0.43154 0.0
C1859 C 0.99168 0.33678 0.42423 0.0
N1860 N 0.96954 0.26937 0.41034 0.0
N1861 N 0.11011 0.35711 0.4413 0.0
C1862 C 1.00383 0.29467 0.4165 0.0
C1863 C 0.07763 0.33851 0.43173 0.0
N1864 N 0.06007 0.24312 0.40481 0.0
N1865 N 1.02475 0.39894 0.43881 0.0
H1866 H 0.14295 0.34478 0.44169 0.0
H1867 H 0.1038 0.38202 0.44976 0.0
H1868 H 0.99306 0.41165 0.44145 0.0
H1869 H 1.05086 0.42082 0.44177 0.0
H1870 H 1.03641 0.22938 0.39692 0.0
H1871 H 0.09251 0.23102 0.4029 0.0
H1872 H 0.97321 0.2361 0.40676 0.0
H1873 H 0.93641 0.28056 0.40988 0.0
C1874 C 1.00738 0.77436 0.66512 0.0
C1875 C 1.0307 0.73535 0.67191 0.0
C1876 C 0.09312 0.79342 0.67779 0.0
C1877 C 0.06805 0.83326 0.67291 0.0
N1878 N 0.99556 0.85647 0.66314 0.0
N1879 N 0.095 0.71624 0.68817 0.0
C1880 C 1.02361 0.82187 0.66691 0.0
C1881 C 0.07331 0.74774 0.67909 0.0
N1882 N 0.96993 0.7662 0.65599 0.0
N1883 N 0.13819 0.79836 0.68059 0.0
H1884 H 0.08247 0.6839 0.68972 0.0
H1885 H 0.12268 0.72364 0.69548 0.0
H1886 H 0.15491 0.82883 0.67908 0.0
H1887 H 0.15983 0.77133 0.68247 0.0
H1888 H 0.95357 0.79076 0.64922 0.0
H1889 H 0.95814 0.73388 0.6537 0.0
H1890 H 0.96134 0.85236 0.66079 0.0
H1891 H 1.00612 0.88977 0.66356 0.0
C1892 C 0.53903 0.8144 0.93371 0.0
C1893 C 0.51192 0.81789 0.9191 0.0
C1894 C 0.58352 0.78356 0.90575 0.0
C1895 C 0.61223 0.78541 0.91991 0.0
N1896 N 0.61353 0.81293 0.94704 0.0
N1897 N 0.51707 0.80854 0.8903 0.0
C1898 C 0.58843 0.80392 0.93367 0.0
C1899 C 0.53722 0.80317 0.90502 0.0
N1900 N 0.51762 0.81917 0.94807 0.0
N1901 N 0.60036 0.76238 0.8925 0.0
H1902 H 0.48399 0.81966 0.8889 0.0
H1903 H 0.53408 0.80504 0.87942 0.0
H1904 H 0.63338 0.7506 0.89201 0.0
H1905 H 0.58081 0.75366 0.88251 0.0
H1906 H 0.53308 0.81342 0.95919 0.0
H1907 H 0.48291 0.82299 0.94872 0.0
H1908 H 0.60111 0.8301 0.957 0.0
H1909 H 0.64808 0.80702 0.94727 0.0
C1910 C 0.57891 0.25741 0.17084 0.0
C1911 C 0.53108 0.24729 0.17241 0.0
C1912 C 0.52447 0.33528 0.17252 0.0
C1913 C 0.57219 0.34544 0.17217 0.0
N1914 N 0.64202 0.30891 0.16544 0.0
N1915 N 0.4617 0.28595 0.17935 0.0
C1916 C 0.59826 0.30411 0.17009 0.0
C1917 C 0.50533 0.28905 0.17442 0.0
N1918 N 0.60762 0.2218 0.17052 0.0
N1919 N 0.49565 0.37 0.16977 0.0
H1920 H 0.44548 0.256 0.18182 0.0
H1921 H 0.44316 0.3136 0.18319 0.0
H1922 H 0.50696 0.40221 0.16724 0.0
H1923 H 0.46128 0.36573 0.16769 0.0
H1924 H 0.64208 0.2245 0.17264 0.0
H1925 H 0.5967 0.18885 0.16945 0.0
H1926 H 0.66231 0.28257 0.16165 0.0
H1927 H 0.65672 0.33982 0.16309 0.0
C1928 C 1.02915 0.80148 0.29722 0.0
C1929 C 1.00927 0.78428 0.28238 0.0
C1930 C 0.08942 0.79728 0.27088 0.0
C1931 C 0.10857 0.81782 0.28511 0.0
N1932 N 0.0885 0.84493 0.31141 0.0
N1933 N 1.02335 0.78262 0.25385 0.0
C1934 C 0.07562 0.82151 0.29803 0.0
C1935 C 1.04074 0.78691 0.26905 0.0
N1936 N 1.00443 0.7979 0.31094 0.0
N1937 N 0.11795 0.78729 0.25861 0.0
H1938 H 0.98882 0.77992 0.25171 0.0
H1939 H 1.04202 0.78807 0.24344 0.0
H1940 H 0.15217 0.79474 0.25923 0.0
H1941 H 0.10837 0.76815 0.24864 0.0
H1942 H 1.01735 0.80444 0.3224 0.0
H1943 H 0.97178 0.78522 0.31092 0.0
H1944 H 0.06632 0.85435 0.32048 0.0
H1945 H 0.12104 0.85762 0.31282 0.0
C1946 C 0.56514 0.85933 0.53239 0.0
C1947 C 0.52 0.86949 0.53776 0.0
C1948 C 0.51426 0.78205 0.54074 0.0
C1949 C 0.56016 0.77254 0.53614 0.0
N1950 N 0.63089 0.80936 0.53126 0.0
N1951 N 0.45681 0.83436 0.55091 0.0
C1952 C 0.58538 0.81356 0.53302 0.0
C1953 C 0.49631 0.82878 0.54286 0.0
N1954 N 0.58947 0.89352 0.5259 0.0
N1955 N 0.48643 0.74628 0.54284 0.0
H1956 H 0.44394 0.86582 0.55377 0.0
H1957 H 0.43969 0.80824 0.55652 0.0
H1958 H 0.49813 0.71339 0.54234 0.0
H1959 H 0.45165 0.74919 0.54389 0.0
H1960 H 0.61949 0.88872 0.51972 0.0
H1961 H 0.57772 0.92633 0.52543 0.0
H1962 H 0.65291 0.83654 0.53114 0.0
H1963 H 0.64744 0.77853 0.5317 0.0
C1964 C 0.59063 0.27376 0.79484 0.0
C1965 C 0.60434 0.31056 0.78457 0.0
C1966 C 0.52009 0.30688 0.77475 0.0
C1967 C 0.50564 0.27332 0.78629 0.0
N1968 N 0.53245 0.23088 0.80914 0.0
N1969 N 0.57424 0.36325 0.76509 0.0
C1970 C 0.54284 0.25892 0.79667 0.0
C1971 C 0.5665 0.32702 0.77474 0.0
N1972 N 0.62365 0.25149 0.80306 0.0
N1973 N 0.48981 0.31965 0.76322 0.0
H1974 H 0.60618 0.37593 0.76287 0.0
H1975 H 0.54869 0.38226 0.75984 0.0
H1976 H 0.4567 0.30847 0.76307 0.0
H1977 H 0.49823 0.33831 0.75306 0.0
H1978 H 0.61856 0.22086 0.80881 0.0
H1979 H 0.6572 0.26142 0.80296 0.0
H1980 H 0.55454 0.2238 0.8186 0.0
H1981 H 0.50042 0.21745 0.81085 0.0
C1982 C 0.06513 0.2845 1.04861 0.0
C1983 C 0.06979 0.25735 1.03412 0.0
C1984 C 1.04323 0.3293 1.01942 0.0
C1985 C 1.0381 0.35676 1.03373 0.0
N1986 N 1.03799 0.35286 1.06265 0.0
N1987 N 0.06592 0.26087 1.00524 0.0
C1988 C 1.04773 0.33196 1.04847 0.0
C1989 C 0.05916 0.28226 1.01959 0.0
N1990 N 0.0795 0.26575 1.06272 0.0
N1991 N 1.03091 0.34807 1.00502 0.0
H1992 H 0.07131 0.22648 1.00446 0.0
H1993 H 0.06836 0.27705 0.99416 0.0
H1994 H 1.02513 0.38228 1.00364 0.0
H1995 H 1.02445 0.3299 0.99454 0.0
H1996 H 0.08282 0.2834 1.07349 0.0
H1997 H 0.09082 0.23267 1.06331 0.0
H1998 H 1.03835 0.33688 1.0738 0.0
H1999 H 1.02655 0.3859 1.06302 0.0
C2000 C 0.07923 0.79038 0.76842 0.0
C2001 C 0.11071 0.79334 0.78187 0.0
C2002 C 1.04426 0.8351 0.79554 0.0
C2003 C 1.01202 0.82787 0.7825 0.0
N2004 N 1.00203 0.78785 0.75771 0.0
N2005 N 0.11521 0.81557 0.80975 0.0
C2006 C 1.03101 0.80244 0.76943 0.0
C2007 C 0.09068 0.815 0.79582 0.0
N2008 N 0.09592 0.77771 0.7538 0.0
N2009 N 1.03113 0.86271 0.80773 0.0
H2010 H 0.14766 0.80252 0.81043 0.0
H2011 H 0.10221 0.82573 0.8208 0.0
H2012 H 0.9987 0.87608 0.80819 0.0
H2013 H 1.05292 0.87444 0.81667 0.0
H2014 H 0.07766 0.78003 0.74306 0.0
H2015 H 0.12965 0.76986 0.75205 0.0
H2016 H 1.01101 0.76492 0.74881 0.0
H2017 H 0.96764 0.79481 0.75802 0.0
C2018 C 1.0146 0.2866 0.54018 0.0
C2019 C 1.03827 0.24638 0.53468 0.0
C2020 C 0.10284 0.3031 0.52946 0.0
C2021 C 0.07789 0.34375 0.53341 0.0
N2022 N 1.00438 0.36904 0.54097 0.0
N2023 N 0.10633 0.22324 0.52191 0.0
C2024 C 1.0323 0.3336 0.53838 0.0
C2025 C 0.08279 0.25712 0.52891 0.0
N2026 N 0.97519 0.28012 0.5482 0.0
N2027 N 0.14782 0.30797 0.52654 0.0
H2028 H 0.09407 0.19057 0.52115 0.0
H2029 H 0.13617 0.2283 0.51573 0.0
H2030 H 0.16393 0.33905 0.52629 0.0
H2031 H 0.17026 0.28123 0.52592 0.0
H2032 H 0.95806 0.3056 0.55417 0.0
H2033 H 0.96226 0.2483 0.55052 0.0
H2034 H 0.96973 0.36592 0.54241 0.0
H2035 H 1.01565 0.40205 0.54036 0.0
C2036 C 0.58096 0.33344 0.27915 0.0
C2037 C 0.59411 0.29269 0.28745 0.0
C2038 C 0.50783 0.28821 0.2938 0.0
C2039 C 0.4952 0.33091 0.28654 0.0
N2040 N 0.52779 0.39432 0.27272 0.0
N2041 N 0.56462 0.23678 0.30541 0.0
C2042 C 0.53446 0.35318 0.27953 0.0
C2043 C 0.55555 0.2718 0.2953 0.0
N2044 N 0.61276 0.35269 0.26965 0.0
N2045 N 0.47379 0.26194 0.29942 0.0
H2046 H 0.59717 0.22503 0.30746 0.0
H2047 H 0.54103 0.22268 0.31313 0.0
H2048 H 0.44047 0.27262 0.29969 0.0
H2049 H 0.47792 0.22842 0.30262 0.0
H2050 H 0.60562 0.37781 0.26134 0.0
H2051 H 0.64559 0.34056 0.2691 0.0
H2052 H 0.55381 0.41656 0.27013 0.0
H2053 H 0.49603 0.4071 0.27009 0.0
C2054 C 0.58684 0.79664 1.02822 0.0
C2055 C 0.56382 0.8367 1.03409 0.0
C2056 C 0.50456 0.77794 1.04348 0.0
C2057 C 0.5255 0.73859 1.03602 0.0
N2058 N 0.58746 0.71779 1.01924 0.0
N2059 N 0.49512 0.86016 1.04652 0.0
C2060 C 0.56693 0.75055 1.02799 0.0
C2061 C 0.5212 0.82538 1.04151 0.0
N2062 N 0.63026 0.80199 1.02321 0.0
N2063 N 0.4693 0.77003 1.05355 0.0
H2064 H 0.50598 0.89332 1.04592 0.0
H2065 H 0.46182 0.85654 1.05012 0.0
H2066 H 0.45752 0.73783 1.05597 0.0
H2067 H 0.45502 0.79441 1.0609 0.0
H2068 H 0.65193 0.77532 1.02093 0.0
H2069 H 0.64639 0.83305 1.02284 0.0
H2070 H 0.61353 0.72397 1.01121 0.0
H2071 H 0.57574 0.68488 1.01894 0.0
C2072 C 0.07046 0.29823 0.93233 0.0
C2073 C 0.09452 0.30895 0.91753 0.0
C2074 C 1.01857 0.28919 0.90368 0.0
C2075 C 0.9942 0.27805 0.91825 0.0
N2076 N 0.99963 0.28509 0.94717 0.0
N2077 N 0.08798 0.30347 0.88866 0.0
C2078 C 1.02131 0.28589 0.93273 0.0
C2079 C 0.06697 0.30136 0.90329 0.0
N2080 N 0.09487 0.29752 0.94628 0.0
N2081 N 0.99427 0.29109 0.88963 0.0
H2082 H 0.12146 0.31306 0.88725 0.0
H2083 H 0.07381 0.29145 0.87798 0.0
H2084 H 0.96038 0.28243 0.88883 0.0
H2085 H 1.00608 0.30571 0.87907 0.0
H2086 H 0.08295 0.28466 0.95712 0.0
H2087 H 0.12882 0.30562 0.94661 0.0
H2088 H 1.0143 0.29508 0.95802 0.0
H2089 H 0.96524 0.27937 0.94808 0.0
C2090 C 0.53415 0.32694 0.68376 0.0
C2091 C 0.54161 0.35662 0.67005 0.0
C2092 C 0.57964 0.28574 0.6576 0.0
C2093 C 0.57391 0.25681 0.67143 0.0
N2094 N 0.54663 0.25559 0.69849 0.0
N2095 N 0.58042 0.36013 0.64469 0.0
C2096 C 0.55096 0.27941 0.68457 0.0
C2097 C 0.56663 0.33414 0.65731 0.0
N2098 N 0.51112 0.34402 0.69649 0.0
N2099 N 0.59636 0.26619 0.644 0.0
H2100 H 0.57208 0.39397 0.64354 0.0
H2101 H 0.60355 0.34963 0.63611 0.0
H2102 H 0.60616 0.23258 0.64365 0.0
H2103 H 0.59646 0.28151 0.63272 0.0
H2104 H 0.49721 0.32467 0.70563 0.0
H2105 H 0.50638 0.37826 0.69792 0.0
H2106 H 0.53706 0.26935 0.70948 0.0
H2107 H 0.55571 0.22188 0.69916 0.0
C2108 C 0.59838 0.78248 0.43154 0.0
C2109 C 0.61125 0.82098 0.42205 0.0
C2110 C 0.52421 0.82465 0.41615 0.0
C2111 C 0.51268 0.78348 0.42451 0.0
N2112 N 0.54747 0.71997 0.43758 0.0
N2113 N 0.58018 0.87359 0.4029 0.0
C2114 C 0.55256 0.76212 0.43135 0.0
C2115 C 0.572 0.84045 0.41383 0.0
N2116 N 0.62952 0.76596 0.44203 0.0
N2117 N 0.48941 0.8504 0.41073 0.0
H2118 H 0.61256 0.88492 0.4004 0.0
H2119 H 0.55572 0.88642 0.39514 0.0
H2120 H 0.45599 0.84044 0.41193 0.0
H2121 H 0.49339 0.88294 0.40641 0.0
H2122 H 0.6208 0.74381 0.45116 0.0
H2123 H 0.66219 0.77841 0.44281 0.0
H2124 H 0.57458 0.69947 0.44068 0.0
H2125 H 0.51652 0.70356 0.43821 0.0
C2126 C 1.00538 0.82841 0.16824 0.0
C2127 C 1.02983 0.86821 0.17395 0.0
C2128 C 0.09346 0.81031 0.17883 0.0
C2129 C 0.06753 0.77009 0.17502 0.0
N2130 N 0.99294 0.74623 0.16798 0.0
N2131 N 0.09803 0.88871 0.1878 0.0
C2132 C 1.02192 0.78107 0.17025 0.0
C2133 C 0.07404 0.85628 0.17999 0.0
N2134 N 0.96642 0.83539 0.15983 0.0
N2135 N 0.13885 0.80528 0.18081 0.0
H2136 H 0.08634 0.92137 0.18906 0.0
H2137 H 0.12719 0.88204 0.19441 0.0
H2138 H 0.155 0.77434 0.17987 0.0
H2139 H 0.1611 0.83224 0.1816 0.0
H2140 H 0.94902 0.80993 0.15386 0.0
H2141 H 0.95437 0.86731 0.15714 0.0
H2142 H 0.95829 0.75033 0.16669 0.0
H2143 H 1.00345 0.71297 0.16874 0.0
C2144 C 0.24689 0.31315 0.36032 0.0
C2145 C 0.27751 0.28865 0.37078 0.0
C2146 C 0.33268 0.29663 0.34667 0.0
C2147 C 0.30197 0.32132 0.33623 0.0
N2148 N 0.22385 0.34231 0.33379 0.0
N2149 N 0.35351 0.26137 0.37259 0.0
C2150 C 0.25757 0.32606 0.34337 0.0
C2151 C 0.32129 0.28188 0.36341 0.0
N2152 N 0.20772 0.32793 0.367 0.0
N2153 N 0.37246 0.28318 0.34006 0.0
H2154 H 0.34637 0.24508 0.38337 0.0
H2155 H 0.38772 0.26218 0.37001 0.0
H2156 H 0.38143 0.29043 0.32823 0.0
H2157 H 0.3948 0.26096 0.34551 0.0
H2158 H 0.18642 0.35108 0.36147 0.0
H2159 H 0.19874 0.32091 0.37885 0.0
H2160 H 0.18994 0.3406 0.33683 0.0
H2161 H 0.22912 0.35443 0.32221 0.0
C2162 C 0.08711 1.0404 0.58931 0.0
C2163 C 1.04154 0.05477 0.5852 0.0
C2164 C 1.03108 1.05179 0.61624 0.0
C2165 C 0.07456 1.03173 0.62013 0.0
N2166 N 0.13936 0.99966 0.60719 0.0
N2167 N 0.96835 0.0635 0.59723 0.0
C2168 C 0.10088 1.02423 0.60567 0.0
C2169 C 1.01345 0.05734 0.59946 0.0
N2170 N 0.11934 1.04422 0.57775 0.0
N2171 N 1.00629 0.06844 0.62867 0.0
H2172 H 0.95341 0.06537 0.58586 0.0
H2173 H 0.94509 0.06124 0.60655 0.0
H2174 H 1.01763 0.06834 0.64055 0.0
H2175 H 0.97737 0.08766 0.62696 0.0
H2176 H 0.1535 1.03949 0.5801 0.0
H2177 H 0.11297 0.05756 0.56638 0.0
H2178 H 0.15744 0.98794 0.59731 0.0
H2179 H 0.15052 0.98687 0.61819 0.0
C2180 C 0.28045 0.82359 0.86493 0.0
C2181 C 0.32465 0.83855 0.87049 0.0
C2182 C 0.34949 0.81441 0.84176 0.0
C2183 C 0.30498 0.80306 0.83594 0.0
N2184 N 0.22692 0.80557 0.84293 0.0
N2185 N 0.39936 0.85434 0.86068 0.0
C2186 C 0.27055 0.81015 0.84793 0.0
C2187 C 0.35832 0.83526 0.85783 0.0
N2188 N 0.24701 0.82017 0.87607 0.0
N2189 N 0.38474 0.80366 0.83203 0.0
H2190 H 0.4074 0.87092 0.87135 0.0
H2191 H 0.42376 0.85822 0.85183 0.0
H2192 H 0.38011 0.7897 0.82059 0.0
H2193 H 0.4182 0.80462 0.83584 0.0
H2194 H 0.21564 0.80609 0.87367 0.0
H2195 H 0.25156 0.82734 0.88822 0.0
H2196 H 0.19938 0.81573 0.84972 0.0
H2197 H 0.21831 0.79559 0.83125 0.0
C2198 C 0.52766 1.01453 0.11283 0.0
C2199 C 0.53622 0.05697 0.12105 0.0
C2200 C 0.58395 0.07361 1.09546 0.0
C2201 C 0.57094 1.03356 1.08672 0.0
N2202 N 0.52233 0.96921 1.0881 0.0
N2203 N 0.57316 0.12847 0.11729 0.0
C2204 C 0.54037 1.00558 1.09579 0.0
C2205 C 0.56456 0.08656 0.11141 0.0
N2206 N 0.50832 0.98056 0.12138 0.0
N2207 N 0.61583 0.10018 1.08853 0.0
H2208 H 0.56468 0.13858 0.12886 0.0
H2209 H 0.58657 0.15428 0.11036 0.0
H2210 H 0.62854 0.09381 1.07706 0.0
H2211 H 0.63214 0.1263 1.09452 0.0
H2212 H 0.50711 0.94752 0.11729 0.0
H2213 H 0.49671 0.98392 0.13307 0.0
H2214 H 0.49485 0.95141 1.09252 0.0
H2215 H 0.53271 0.95862 1.07674 0.0
C2216 C 0.34981 0.77581 0.35839 0.0
C2217 C 0.31668 0.77066 0.37096 0.0
C2218 C 0.26184 0.80322 0.34945 0.0
C2219 C 0.29452 0.80573 0.33641 0.0
N2220 N 0.36979 0.78176 0.32975 0.0
N2221 N 0.23766 0.77477 0.37609 0.0
C2222 C 0.33841 0.78864 0.34143 0.0
C2223 C 0.27191 0.7831 0.36562 0.0
N2224 N 0.39375 0.76963 0.3627 0.0
N2225 N 0.22059 0.82211 0.34682 0.0
H2226 H 0.24336 0.7619 0.38763 0.0
H2227 H 0.20373 0.77676 0.373 0.0
H2228 H 0.21204 0.83892 0.33628 0.0
H2229 H 0.196 0.82537 0.35562 0.0
H2230 H 0.42066 0.77834 0.35534 0.0
H2231 H 0.40327 0.75931 0.37426 0.0
H2232 H 0.39996 0.76487 0.33179 0.0
H2233 H 0.36372 0.78807 0.31761 0.0
C2234 C 0.54301 0.1064 0.61219 0.0
C2235 C 0.57143 0.07548 0.62111 0.0
C2236 C 0.55978 1.02421 0.59599 0.0
C2237 C 0.53136 0.05534 0.58705 0.0
N2238 N 0.50655 0.13248 0.58726 0.0
N2239 N 0.60195 1.00078 0.62029 0.0
C2240 C 0.52644 0.09801 0.59544 0.0
C2241 C 0.578 1.03342 0.61253 0.0
N2242 N 0.52809 0.14344 0.62024 0.0
N2243 N 0.57343 0.98647 0.58805 0.0
H2244 H 0.62082 1.00683 0.63068 0.0
H2245 H 0.60171 0.96716 0.61691 0.0
H2246 H 0.56364 0.979 0.57629 0.0
H2247 H 0.59812 0.96468 0.59228 0.0
H2248 H 0.50258 0.16425 0.61594 0.0
H2249 H 0.5375 0.1508 0.63207 0.0
H2250 H 0.50814 0.16575 0.59106 0.0
H2251 H 0.49115 0.12874 0.57607 0.0
C2252 C 0.34039 0.28967 0.84793 0.0
C2253 C 0.3067 0.27726 0.83593 0.0
C2254 C 0.25088 0.29644 0.85878 0.0
C2255 C 0.28435 0.31364 0.87006 0.0
N2256 N 0.36278 0.33333 0.87183 0.0
N2257 N 0.22675 0.27861 0.83105 0.0
C2258 C 0.32941 0.31185 0.8635 0.0
C2259 C 0.26127 0.28367 0.84181 0.0
N2260 N 0.38404 0.2782 0.84502 0.0
N2261 N 0.20852 0.28923 0.86446 0.0
H2262 H 0.23185 0.26974 0.81905 0.0
H2263 H 0.19366 0.28755 0.83361 0.0
H2264 H 0.19961 0.2956 0.87637 0.0
H2265 H 0.1838 0.27209 0.85796 0.0
H2266 H 0.40949 0.281 0.85366 0.0
H2267 H 0.39399 0.2609 0.83474 0.0
H2268 H 0.39485 0.33854 0.86717 0.0
H2269 H 0.35705 0.35044 0.88258 0.0
C2270 C 0.07951 0.10422 1.10246 0.0
C2271 C 0.08542 0.07004 1.09024 0.0
C2272 C 1.05122 1.01764 0.11202 0.0
C2273 C 1.0481 1.05126 0.1248 0.0
N2274 N 0.07237 0.12689 0.13084 0.0
N2275 N 0.08251 0.99062 1.08619 0.0
C2276 C 0.06584 0.09446 0.11945 0.0
C2277 C 0.0729 1.02598 1.09603 0.0
N2278 N 0.08578 0.14761 1.09776 0.0
N2279 N 1.03098 0.97715 0.11455 0.0
H2280 H 0.09649 0.99494 1.07477 0.0
H2281 H 0.08054 0.95725 1.08983 0.0
H2282 H 1.01354 0.9693 0.12498 0.0
H2283 H 1.02684 0.95298 0.1056 0.0
H2284 H 0.07663 0.17508 0.10478 0.0
H2285 H 0.09656 0.15602 1.08619 0.0
H2286 H 0.08961 0.15665 0.12861 0.0
H2287 H 0.0654 0.12216 0.14298 0.0
C2288 C 0.84268 0.81549 0.86539 0.0
C2289 C 0.79721 0.80658 0.87121 0.0
C2290 C 0.77382 0.83456 0.84252 0.0
C2291 C 0.819 0.8426 0.83678 0.0
N2292 N 0.89663 0.83258 0.84359 0.0
N2293 N 0.71949 0.82085 0.86426 0.0
C2294 C 0.85299 0.83094 0.84863 0.0
C2295 C 0.76319 0.81947 0.85929 0.0
N2296 N 0.8774 0.81088 0.87611 0.0
N2297 N 0.73991 0.83915 0.83146 0.0
H2298 H 0.70973 0.81344 0.87597 0.0
H2299 H 0.69333 0.83439 0.85744 0.0
H2300 H 0.74557 0.851 0.8198 0.0
H2301 H 0.70725 0.82762 0.83325 0.0
H2302 H 0.90968 0.82313 0.87413 0.0
H2303 H 0.87369 0.79765 0.88759 0.0
H2304 H 0.92354 0.81873 0.84994 0.0
H2305 H 0.90561 0.84503 0.8323 0.0
C2306 C 0.75844 0.32885 0.3668 0.0
C2307 C 0.80266 0.32553 0.37432 0.0
C2308 C 0.82439 0.28695 0.34729 0.0
C2309 C 0.78078 0.29266 0.33954 0.0
N2310 N 0.7098 0.33007 0.34266 0.0
N2311 N 0.87456 0.28976 0.37115 0.0
C2312 C 0.749 0.31612 0.34972 0.0
C2313 C 0.83461 0.30187 0.36416 0.0
N2314 N 0.72367 0.34332 0.37612 0.0
N2315 N 0.85749 0.26758 0.33833 0.0
H2316 H 0.88271 0.2972 0.38308 0.0
H2317 H 0.89797 0.2685 0.36588 0.0
H2318 H 0.85127 0.25237 0.32723 0.0
H2319 H 0.8915 0.26852 0.34135 0.0
H2320 H 0.69002 0.34047 0.37269 0.0
H2321 H 0.72788 0.35492 0.38785 0.0
H2322 H 0.68759 0.35241 0.34807 0.0
H2323 H 0.70173 0.32343 0.33065 0.0
C2324 C 0.752 0.29282 0.8498 0.0
C2325 C 0.78641 0.30893 0.83878 0.0
C2326 C 0.84076 0.28519 0.86193 0.0
C2327 C 0.80627 0.27344 0.87348 0.0
N2328 N 0.72628 0.2744 0.87729 0.0
N2329 N 0.86559 0.32626 0.83785 0.0
C2330 C 0.76132 0.27971 0.86693 0.0
C2331 C 0.83115 0.30632 0.84596 0.0
N2332 N 0.70961 0.28725 0.84372 0.0
N2333 N 0.88396 0.27387 0.86579 0.0
H2334 H 0.86097 0.34294 0.82694 0.0
H2335 H 0.89761 0.33073 0.84278 0.0
H2336 H 0.89225 0.25778 0.87656 0.0
H2337 H 0.91049 0.27569 0.85766 0.0
H2338 H 0.684 0.27098 0.84993 0.0
H2339 H 0.70127 0.29453 0.83178 0.0
H2340 H 0.69331 0.28344 0.87447 0.0
H2341 H 0.73099 0.26481 0.88928 0.0
C2342 C 0.84254 0.79067 0.36579 0.0
C2343 C 0.79719 0.79962 0.37169 0.0
C2344 C 0.77356 0.77577 0.34267 0.0
C2345 C 0.81828 0.76463 0.33724 0.0
N2346 N 0.8945 0.75617 0.34618 0.0
N2347 N 0.71925 0.78708 0.36451 0.0
C2348 C 0.85207 0.77059 0.34966 0.0
C2349 C 0.76301 0.78853 0.35963 0.0
N2350 N 0.87805 0.80313 0.3753 0.0
N2351 N 0.73992 0.77472 0.3314 0.0
H2352 H 0.70958 0.79252 0.37638 0.0
H2353 H 0.69306 0.77493 0.35734 0.0
H2354 H 0.74529 0.76414 0.31956 0.0
H2355 H 0.70797 0.78795 0.33335 0.0
H2356 H 0.9111 0.80442 0.37124 0.0
H2357 H 0.87456 0.81611 0.38683 0.0
H2358 H 0.92002 0.75305 0.35477 0.0
H2359 H 0.90304 0.74344 0.33488 0.0
C2360 C 0.55283 0.49807 0.11083 0.0
C2361 C 0.56991 0.53188 0.12193 0.0
C2362 C 0.55575 0.58595 1.09773 0.0
C2363 C 0.53585 0.55251 1.0871 0.0
N2364 N 0.5113 0.47537 1.08648 0.0
N2365 N 0.58784 0.6107 0.12376 0.0
C2366 C 0.53366 0.50849 1.0946 0.0
C2367 C 0.57086 0.5764 0.11463 0.0
N2368 N 0.5578 0.45409 0.11509 0.0
N2369 N 0.55967 0.62844 1.09175 0.0
H2370 H 0.5925 0.60867 0.13613 0.0
H2371 H 0.59804 0.64156 0.11927 0.0
H2372 H 0.55724 0.63564 1.0795 0.0
H2373 H 0.56508 0.65701 1.09867 0.0
H2374 H 0.55326 0.42751 0.10709 0.0
H2375 H 0.57166 0.4437 0.12598 0.0
H2376 H 0.50109 0.4455 1.09184 0.0
H2377 H 0.49894 0.47898 1.07481 0.0
C2378 C 0.06837 0.58663 0.61205 0.0
C2379 C 1.04637 0.55292 0.6221 0.0
C2380 C 0.0629 0.50031 0.59766 0.0
C2381 C 0.08352 0.5341 0.5875 0.0
N2382 N 0.10762 0.61059 0.58704 0.0
N2383 N 1.01961 0.47662 0.62142 0.0
C2384 C 0.0864 0.57744 0.59544 0.0
C2385 C 1.04351 0.50963 0.61395 0.0
N2386 N 0.07201 0.62877 0.61838 0.0
N2387 N 0.06412 0.45719 0.59209 0.0
H2388 H 1.00628 0.48012 0.63291 0.0
H2389 H 1.00922 0.44717 0.61578 0.0
H2390 H 0.0771 0.44876 0.58083 0.0
H2391 H 0.05651 0.42922 0.59906 0.0
H2392 H 0.08168 0.65705 0.61196 0.0
H2393 H 0.06439 0.63606 0.63032 0.0
H2394 H 0.11581 0.64202 0.5916 0.0
H2395 H 0.11901 0.60585 0.57528 0.0
C2396 C 1.02778 0.54722 0.11918 0.0
C2397 C 0.06904 0.57224 0.12246 0.0
C2398 C 0.0739 0.57562 1.09114 0.0
C2399 C 1.03251 0.55079 1.08786 0.0
N2400 N 0.97611 0.50628 1.10092 0.0
N2401 N 0.12571 0.6164 0.1094 0.0
C2402 C 1.01114 0.53566 1.1026 0.0
C2403 C 0.09052 0.58723 0.10772 0.0
N2404 N 1.00312 0.53398 0.13216 0.0
N2405 N 0.09875 0.58849 1.07816 0.0
H2406 H 0.13844 0.62618 0.12059 0.0
H2407 H 0.13983 0.63429 1.09993 0.0
H2408 H 0.08658 0.58715 1.06639 0.0
H2409 H 0.13221 0.59865 1.07891 0.0
H2410 H 0.96964 0.52385 0.13144 0.0
H2411 H 1.01557 0.53478 0.14389 0.0
H2412 H 0.96208 0.48831 0.11039 0.0
H2413 H 0.96349 0.49634 1.08974 0.0
C2414 C 0.55589 0.59429 0.61746 0.0
C2415 C 0.53273 0.55269 0.62128 0.0
C2416 C 0.54823 0.53319 0.59125 0.0
C2417 C 0.56996 0.57534 0.58746 0.0
N2418 N 0.58561 0.64879 0.59781 0.0
N2419 N 0.50899 0.48207 0.60994 0.0
C2420 C 0.57138 0.60615 0.60094 0.0
C2421 C 0.52983 0.52233 0.60752 0.0
N2422 N 0.56593 0.6225 0.62995 0.0
N2423 N 0.54373 0.50326 0.57884 0.0
H2424 H 0.49033 0.47499 0.62019 0.0
H2425 H 0.50987 0.45515 0.60199 0.0
H2426 H 0.55824 0.50855 0.56758 0.0
H2427 H 0.52499 0.47387 0.57924 0.0
H2428 H 0.58728 0.65003 0.62893 0.0
H2429 H 0.55648 0.61615 0.64178 0.0
H2430 H 0.58191 0.67542 0.60582 0.0
H2431 H 0.59767 0.65847 0.58654 0.0
C2432 C 0.32786 0.11469 0.46773 0.0
C2433 C 0.33125 0.16327 0.4662 0.0
C2434 C 0.38364 0.15196 0.49216 0.0
C2435 C 0.3844 0.10301 0.49236 0.0
N2436 N 0.35867 1.04121 0.47599 0.0
N2437 N 0.37007 0.22511 0.47862 0.0
C2438 C 0.35711 0.08621 0.47875 0.0
C2439 C 0.36118 0.18023 0.47909 0.0
N2440 N 0.29358 0.09475 0.45945 0.0
N2441 N 0.40458 0.17267 0.5048 0.0
H2442 H 0.35575 0.24622 0.46996 0.0
H2443 H 0.39441 0.24079 0.48573 0.0
H2444 H 0.42167 0.15461 0.51369 0.0
H2445 H 0.4017 0.20677 0.50727 0.0
H2446 H 0.28492 0.0611 0.46084 0.0
H2447 H 0.27069 0.11356 0.45269 0.0
H2448 H 0.34588 1.0267 0.46548 0.0
H2449 H 0.37577 1.01916 0.48363 0.0
C2450 C 0.25967 0.14162 0.72268 0.0
C2451 C 0.25405 0.14297 0.74045 0.0
C2452 C 0.18783 0.08806 0.73265 0.0
C2453 C 0.19591 0.08332 0.71513 0.0
N2454 N 0.2505 0.10564 0.69564 0.0
N2455 N 0.21167 0.10503 0.7608 0.0
C2456 C 0.23493 0.11047 0.71096 0.0
C2457 C 0.21781 0.11244 0.74475 0.0
N2458 N 0.28941 0.17179 0.71644 0.0
N2459 N 0.14838 0.07065 0.73811 0.0
H2460 H 0.23064 0.12158 0.76958 0.0
H2461 H 0.19106 0.07966 0.76525 0.0
H2462 H 0.1258 0.05379 0.73059 0.0
H2463 H 0.13568 0.07772 0.74951 0.0
H2464 H 0.29245 0.17811 0.70415 0.0
H2465 H 0.30867 0.1932 0.72366 0.0
H2466 H 0.28123 0.11839 0.69178 0.0
H2467 H 0.23425 0.08509 0.68724 0.0
C2468 C 0.23725 0.97851 0.99796 0.0
C2469 C 0.20808 1.01619 0.99398 0.0
C2470 C 0.23828 0.99696 0.96421 0.0
C2471 C 0.26503 0.95742 0.96807 0.0
N2472 N 0.27444 0.90739 0.99063 0.0
N2473 N 0.17861 0.05222 0.97018 0.0
C2474 C 0.25997 0.94833 0.98556 0.0
C2475 C 0.20886 1.02224 0.97621 0.0
N2476 N 0.24463 0.97088 1.01395 0.0
N2477 N 0.24047 1.01159 0.9487 0.0
H2478 H 0.15794 0.0711 0.97762 0.0
H2479 H 0.17078 0.0551 0.95798 0.0
H2480 H 0.25736 0.99355 0.93985 0.0
H2481 H 0.2283 1.0426 0.94491 0.0
H2482 H 0.26897 0.94861 1.01822 0.0
H2483 H 0.22912 0.99015 1.02283 0.0
H2484 H 0.26641 0.89434 1.0019 0.0
H2485 H 0.28891 0.88431 0.98278 0.0
C2486 C 0.36961 0.93151 0.22685 0.0
C2487 C 0.34621 0.9473 0.24143 0.0
C2488 C 0.37133 1.02551 0.22966 0.0
C2489 C 0.39675 1.00946 0.21559 0.0
N2490 N 0.42301 0.94087 0.20408 0.0
N2491 N 0.33188 1.01517 0.25589 0.0
C2492 C 0.39598 0.96066 0.21524 0.0
C2493 C 0.34954 0.99601 0.24241 0.0
N2494 N 0.36697 0.88661 0.22382 0.0
N2495 N 0.36554 0.0708 0.23052 0.0
H2496 H 0.31509 0.99625 0.26456 0.0
H2497 H 0.3369 1.04851 0.25916 0.0
H2498 H 0.37905 0.09261 0.22197 0.0
H2499 H 0.34413 0.08645 0.23863 0.0
H2500 H 0.37565 0.87214 0.21284 0.0
H2501 H 0.35341 0.86394 0.23205 0.0
H2502 H 0.43046 0.90677 0.20393 0.0
H2503 H 0.4409 0.95955 0.19563 0.0
C2504 C 0.78394 0.98941 0.72867 0.0
C2505 C 0.76769 0.96612 0.74322 0.0
C2506 C 0.69101 0.99977 0.73255 0.0
C2507 C 0.70693 1.01954 0.71722 0.0
N2508 N 0.77431 1.02496 0.70172 0.0
N2509 N 0.69855 0.94909 0.75641 0.0
C2510 C 0.75497 1.01149 0.71577 0.0
C2511 C 0.71914 0.97185 0.74427 0.0
N2512 N 0.82941 0.99371 0.72749 0.0
N2513 N 0.64713 1.00798 0.73627 0.0
H2514 H 0.71688 0.9308 0.76493 0.0
H2515 H 0.66384 0.94556 0.75742 0.0
H2516 H 0.62518 1.02439 0.72839 0.0
H2517 H 0.63305 1.00105 0.74745 0.0
H2518 H 0.84433 1.01602 0.71951 0.0
H2519 H 0.85175 0.97945 0.73578 0.0
H2520 H 0.80667 1.01576 0.69827 0.0
H2521 H 0.75633 1.04254 0.69295 0.0
C2522 C 0.87262 0.97799 0.49544 0.0
C2523 C 0.91304 1.00263 0.49114 0.0
C2524 C 0.89139 0.9721 0.46185 0.0
C2525 C 0.85341 0.94412 0.46636 0.0
N2526 N 0.8161 0.91845 0.49045 0.0
N2527 N 0.96354 1.00871 0.46869 0.0
C2528 C 0.84713 0.94697 0.48403 0.0
C2529 C 0.92218 0.99549 0.47385 0.0
N2530 N 0.8565 0.98527 0.51055 0.0
N2531 N 0.89879 0.97753 0.44578 0.0
H2532 H 0.97598 1.00134 0.45727 0.0
H2533 H 0.98765 1.02169 0.47659 0.0
H2534 H 0.87921 0.96146 0.43706 0.0
H2535 H 0.92127 1.00105 0.44119 0.0
H2536 H 0.82516 0.9741 0.51443 0.0
H2537 H 0.87309 1.00631 0.51868 0.0
H2538 H 0.81248 0.91334 0.5028 0.0
H2539 H 0.79631 0.89708 0.48341 0.0
C2540 C 0.90888 0.11022 0.23791 0.0
C2541 C 0.90365 0.10744 0.22016 0.0
C2542 C 0.84117 0.16754 0.22697 0.0
C2543 C 0.84246 0.16544 0.24485 0.0
N2544 N 0.88111 0.12484 0.26566 0.0
N2545 N 0.85476 0.13611 0.19955 0.0
C2546 C 0.87721 0.13356 0.2496 0.0
C2547 C 0.86692 0.13716 0.21541 0.0
N2548 N 0.94779 0.09299 0.24402 0.0
N2549 N 0.81506 0.20067 0.22049 0.0
H2550 H 0.87174 0.11644 0.19117 0.0
H2551 H 0.82574 0.15124 0.19502 0.0
H2552 H 0.79555 0.22213 0.2275 0.0
H2553 H 0.81561 0.20942 0.20834 0.0
H2554 H 0.95833 0.09799 0.25589 0.0
H2555 H 0.97236 0.07937 0.2366 0.0
H2556 H 0.90031 0.09847 0.27025 0.0
H2557 H 0.86223 0.14205 0.27421 0.0
C2558 C 0.69153 0.13538 0.99255 0.0
C2559 C 0.69377 0.08655 0.99337 0.0
C2560 C 0.74368 0.09892 0.96701 0.0
C2561 C 0.744 0.14774 0.9668 0.0
N2562 N 0.71859 0.20956 0.983 0.0
N2563 N 0.73278 1.02587 0.98061 0.0
C2564 C 0.71805 0.16428 0.98075 0.0
C2565 C 0.72251 0.07034 0.98016 0.0
N2566 N 0.66199 0.15525 1.00281 0.0
N2567 N 0.76363 0.07854 0.95419 0.0
H2568 H 0.71933 1.00403 0.98915 0.0
H2569 H 0.75855 1.01212 0.9738 0.0
H2570 H 0.7795 0.09697 0.94515 0.0
H2571 H 0.76081 1.0444 0.95171 0.0
H2572 H 0.65286 0.18891 1.00215 0.0
H2573 H 0.6441 0.13672 1.01132 0.0
H2574 H 0.70736 0.22513 0.99348 0.0
H2575 H 0.73292 0.23141 0.97465 0.0
C2576 C 0.88361 0.62765 0.9631 0.0
C2577 C 0.84922 0.66029 0.96721 0.0
C2578 C 0.86814 0.63088 0.99701 0.0
C2579 C 0.90548 0.60151 0.99297 0.0
N2580 N 0.95115 0.5833 0.96996 0.0
N2581 N 0.81567 0.69326 0.99087 0.0
C2582 C 0.91296 0.60348 0.97537 0.0
C2583 C 0.84419 0.66143 0.98498 0.0
N2584 N 0.88832 0.61791 0.94715 0.0
N2585 N 0.85332 0.6287 1.01251 0.0
H2586 H 0.79654 0.71412 0.98342 0.0
H2587 H 0.81347 0.70134 1.00306 0.0
H2588 H 0.86922 0.60866 1.02113 0.0
H2589 H 0.82336 0.64312 1.01639 0.0
H2590 H 0.90737 0.59105 0.94295 0.0
H2591 H 0.86953 0.63411 0.93825 0.0
H2592 H 0.9633 0.58737 0.9583 0.0
H2593 H 0.97355 0.56697 0.97767 0.0
C2594 C 0.74964 0.58946 0.21795 0.0
C2595 C 0.70102 0.58534 0.21895 0.0
C2596 C 0.71528 0.63173 0.2462 0.0
C2597 C 0.76341 0.63935 0.24437 0.0
N2598 N 0.82221 0.62418 0.22537 0.0
N2599 N 0.63984 0.61105 0.23544 0.0
C2600 C 0.77838 0.61763 0.22932 0.0
C2601 C 0.68539 0.6087 0.23364 0.0
N2602 N 0.77005 0.56403 0.20645 0.0
N2603 N 0.69708 0.64628 0.2603 0.0
H2604 H 0.61747 0.59625 0.22727 0.0
H2605 H 0.62397 0.63073 0.24406 0.0
H2606 H 0.71625 0.66337 0.26892 0.0
H2607 H 0.66478 0.63813 0.26409 0.0
H2608 H 0.80467 0.55895 0.20591 0.0
H2609 H 0.75174 0.54447 0.19831 0.0
H2610 H 0.83423 0.61793 0.21385 0.0
H2611 H 0.84552 0.6387 0.23324 0.0
C2612 C 0.71346 0.4922 0.46495 0.0
C2613 C 0.75399 0.46736 0.46925 0.0
C2614 C 0.73637 0.50355 0.49812 0.0
C2615 C 0.69383 0.52503 0.49412 0.0
N2616 N 0.64041 0.52613 0.47218 0.0
N2617 N 0.79395 0.44535 0.4934 0.0
C2618 C 0.68294 0.51537 0.47704 0.0
C2619 C 0.76195 0.47256 0.48682 0.0
N2620 N 0.70327 0.49479 0.44894 0.0
N2621 N 0.75422 0.51345 0.51286 0.0
H2622 H 0.81195 0.42234 0.48653 0.0
H2623 H 0.79886 0.44196 0.50579 0.0
H2624 H 0.73744 0.53393 0.52107 0.0
H2625 H 0.78688 0.50477 0.51625 0.0
H2626 H 0.67853 0.51599 0.4443 0.0
H2627 H 0.72251 0.4787 0.44021 0.0
H2628 H 0.62653 0.51552 0.46126 0.0
H2629 H 0.61721 0.54098 0.4799 0.0
C2630 C 0.86624 0.42337 0.72747 0.0
C2631 C 0.8528 0.43659 0.74399 0.0
C2632 C 0.88773 0.51293 0.73397 0.0
C2633 C 0.90519 0.49856 0.71812 0.0
N2634 N 0.91257 0.43111 0.70269 0.0
N2635 N 0.86308 0.49832 0.76212 0.0
C2636 C 0.89442 0.45123 0.71589 0.0
C2637 C 0.86746 0.4826 0.7468 0.0
N2638 N 0.85075 0.38275 0.72223 0.0
N2639 N 0.88755 0.558 0.73666 0.0
H2640 H 0.8496 0.47853 0.77126 0.0
H2641 H 0.87713 0.52849 0.76602 0.0
H2642 H 0.89813 0.58075 0.72791 0.0
H2643 H 0.87181 0.57287 0.7465 0.0
H2644 H 0.85228 0.37242 0.71025 0.0
H2645 H 0.83278 0.36082 0.72959 0.0
H2646 H 0.91242 0.39655 0.70085 0.0
H2647 H 0.93124 0.44898 0.69425 0.0
C2648 C 0.21549 0.48619 0.24555 0.0
C2649 C 0.25721 0.46317 0.24157 0.0
C2650 C 0.2399 0.50021 0.21275 0.0
C2651 C 0.19639 0.51994 0.21638 0.0
N2652 N 0.14157 0.51758 0.23759 0.0
N2653 N 0.29941 0.44403 0.21777 0.0
C2654 C 0.18484 0.50888 0.23324 0.0
C2655 C 0.26599 0.46963 0.22414 0.0
N2656 N 0.20417 0.48725 0.26143 0.0
N2657 N 0.25811 0.51142 0.19827 0.0
H2658 H 0.31787 0.42138 0.2247 0.0
H2659 H 0.30523 0.44153 0.20543 0.0
H2660 H 0.24083 0.53133 0.18995 0.0
H2661 H 0.29129 0.5043 0.19521 0.0
H2662 H 0.17824 0.50699 0.26595 0.0
H2663 H 0.2235 0.47137 0.27026 0.0
H2664 H 0.12752 0.50652 0.24836 0.0
H2665 H 0.11813 0.53101 0.22952 0.0
C2666 C 0.3683 0.46391 0.99523 0.0
C2667 C 0.40251 0.49672 0.99107 0.0
C2668 C 0.37812 0.47358 0.96116 0.0
C2669 C 0.34622 0.43856 0.96532 0.0
N2670 N 0.31963 0.39887 0.98877 0.0
N2671 N 0.44238 0.52338 0.96768 0.0
C2672 C 0.34446 0.43394 0.98306 0.0
C2673 C 0.40747 0.49822 0.97334 0.0
N2674 N 0.35643 0.46183 1.01106 0.0
N2675 N 0.38017 0.48508 0.94528 0.0
H2676 H 0.46326 0.54237 0.9752 0.0
H2677 H 0.45301 0.52265 0.95575 0.0
H2678 H 0.3617 0.46813 0.93646 0.0
H2679 H 0.39688 0.51342 0.94106 0.0
H2680 H 0.32826 0.44462 1.01518 0.0
H2681 H 0.37242 0.48101 1.01989 0.0
H2682 H 0.32039 0.3884 1.00075 0.0
H2683 H 0.30101 0.37761 0.98129 0.0
C2684 C 0.42801 0.63636 0.72917 0.0
C2685 C 0.40957 0.60964 0.71567 0.0
C2686 C 0.33375 0.63199 0.72987 0.0
C2687 C 0.35184 0.66251 0.74233 0.0
N2688 N 0.42203 0.69528 0.75036 0.0
N2689 N 0.33865 0.58818 0.70433 0.0
C2690 C 0.40065 0.66457 0.74086 0.0
C2691 C 0.36066 0.60983 0.71653 0.0
N2692 N 0.47351 0.63445 0.73125 0.0
N2693 N 0.28938 0.6211 0.73133 0.0
H2694 H 0.35597 0.57135 0.69523 0.0
H2695 H 0.30405 0.59017 0.7024 0.0
H2696 H 0.26921 0.63419 0.74045 0.0
H2697 H 0.2737 0.59583 0.7247 0.0
H2698 H 0.48997 0.64655 0.7415 0.0
H2699 H 0.49448 0.61788 0.72315 0.0
H2700 H 0.45576 0.70394 0.74904 0.0
H2701 H 0.40466 0.71464 0.75876 0.0
C2702 C 0.18747 0.61571 0.47637 0.0
C2703 C 0.20349 0.59517 0.49167 0.0
C2704 C 0.28069 0.62437 0.47995 0.0
C2705 C 0.26471 0.64756 0.46525 0.0
N2706 N 0.19495 0.66706 0.45265 0.0
N2707 N 0.27033 0.59476 0.50771 0.0
C2708 C 0.21578 0.64309 0.46451 0.0
C2709 C 0.25153 0.60398 0.49311 0.0
N2710 N 0.14293 0.60979 0.47302 0.0
N2711 N 0.32603 0.61914 0.48123 0.0
H2712 H 0.25055 0.58431 0.51734 0.0
H2713 H 0.30333 0.60306 0.51077 0.0
H2714 H 0.34836 0.63231 0.47279 0.0
H2715 H 0.34054 0.59719 0.48951 0.0
H2716 H 0.12828 0.61683 0.46187 0.0
H2717 H 0.12085 0.59593 0.48138 0.0
H2718 H 0.16029 0.67167 0.45189 0.0
H2719 H 0.21325 0.68525 0.44416 0.0
C2720 C 0.2677 0.93574 0.40433 0.0
C2721 C 0.29409 0.97359 0.40817 0.0
C2722 C 0.33458 0.96708 0.38308 0.0
C2723 C 0.29985 0.93816 0.3774 0.0
N2724 N 0.24171 0.88459 0.38393 0.0
N2725 N 0.37075 0.99829 0.40684 0.0
C2726 C 0.27023 0.91788 0.38862 0.0
C2727 C 0.3343 0.97942 0.39954 0.0
N2728 N 0.23457 0.92202 0.4144 0.0
N2729 N 0.36494 0.98594 0.3728 0.0
H2730 H 0.37042 1.00579 0.41909 0.0
H2731 H 0.40202 1.00107 0.40129 0.0
H2732 H 0.36608 0.97881 0.36053 0.0
H2733 H 0.38739 1.01097 0.37639 0.0
H2734 H 0.22953 0.93675 0.42568 0.0
H2735 H 0.22953 0.93675 0.42568 0.0
H2736 H 0.21892 0.86964 0.39182 0.0
H2737 H 0.24209 0.87192 0.37224 0.0
C2738 C 0.37115 0.06136 0.65249 0.0
C2739 C 0.38577 1.01973 0.6586 0.0
C2740 C 0.43663 1.01267 0.63592 0.0
C2741 C 0.40776 1.04221 0.62732 0.0
N2742 N 0.35032 0.1001 0.62805 0.0
N2743 N 0.44391 0.96474 0.6596 0.0
C2744 C 0.3769 0.0696 0.63586 0.0
C2745 C 0.42422 0.99984 0.65177 0.0
N2746 N 0.34924 0.09085 0.66223 0.0
N2747 N 0.47367 0.99544 0.62853 0.0
H2748 H 0.43305 0.95519 0.67107 0.0
H2749 H 0.46962 0.94528 0.65479 0.0
H2750 H 0.48209 1.00448 0.61676 0.0
H2751 H 0.49733 0.97533 0.63436 0.0
H2752 H 0.33988 0.12292 0.65849 0.0
H2753 H 0.34568 0.08493 0.67454 0.0
H2754 H 0.32388 0.1168 0.63366 0.0
H2755 H 0.35282 0.10702 0.61579 0.0
C2756 C 0.24053 0.07635 0.86809 0.0
C2757 C 0.25876 0.11552 0.86122 0.0
C2758 C 0.28012 0.14256 0.88799 0.0
C2759 C 0.27485 0.09832 0.89358 0.0
N2760 N 0.23357 1.02882 0.89135 0.0
N2761 N 0.28537 0.19097 0.86455 0.0
C2762 C 0.24804 0.06787 0.88459 0.0
C2763 C 0.27315 0.15122 0.87133 0.0
N2764 N 0.21948 1.04501 0.85881 0.0
N2765 N 0.29655 0.17412 0.89836 0.0
H2766 H 0.28015 0.1972 0.85231 0.0
H2767 H 0.30092 0.21695 0.87082 0.0
H2768 H 0.3042 0.16576 0.91031 0.0
H2769 H 0.30021 0.20794 0.89554 0.0
H2770 H 0.21349 1.04939 0.84648 0.0
H2771 H 0.21349 1.04939 0.84648 0.0
H2772 H 0.21555 1.00477 0.88479 0.0
H2773 H 0.23791 1.02195 0.90359 0.0
C2774 C 0.37573 1.03884 1.05656 0.0
C2775 C 0.39402 0.07668 1.04884 0.0
C2776 C 0.44381 0.08822 1.07186 0.0
C2777 C 0.41232 0.06385 1.08128 0.0
N2778 N 0.34977 1.01129 1.08218 0.0
N2779 N 0.45722 0.12512 1.04604 0.0
C2780 C 0.37965 1.03628 1.07352 0.0
C2781 C 0.43382 0.09546 1.05526 0.0
N2782 N 0.35183 1.00803 1.04791 0.0
N2783 N 0.48124 0.10599 1.07901 0.0
H2784 H 0.448 0.13071 1.03402 0.0
H2785 H 0.48451 0.14387 1.05017 0.0
H2786 H 0.48798 0.10144 1.09127 0.0
H2787 H 0.50661 0.12241 1.07274 0.0
H2788 H 0.33979 0.97827 1.05289 0.0
H2789 H 0.34895 1.01009 1.0354 0.0
H2790 H 0.32248 0.9948 1.07689 0.0
H2791 H 0.35011 1.00931 1.09471 0.0
C2792 C 0.74964 0.05596 0.82961 0.0
C2793 C 0.77068 0.09132 0.82109 0.0
C2794 C 0.77098 0.13744 0.84531 0.0
C2795 C 0.76205 0.09803 0.85434 0.0
N2796 N 0.73021 1.02355 0.85501 0.0
N2797 N 0.78389 0.16991 0.81873 0.0
C2798 C 0.74594 0.05918 0.8465 0.0
C2799 C 0.77376 0.13409 0.82826 0.0
N2800 N 0.73683 1.01767 0.82185 0.0
N2801 N 0.78182 0.17619 0.85317 0.0
H2802 H 0.7888 0.1657 0.80637 0.0
H2803 H 0.78484 0.20302 0.82272 0.0
H2804 H 0.77889 0.17937 0.86565 0.0
H2805 H 0.79438 0.20452 0.84745 0.0
H2806 H 0.72315 0.99025 0.82794 0.0
H2807 H 0.73784 1.01455 0.80934 0.0
H2808 H 0.72691 1.02384 0.86755 0.0
H2809 H 0.72691 1.02384 0.86755 0.0
C2810 C 0.84895 0.97304 0.62027 0.0
C2811 C 0.80307 0.9804 0.6235 0.0
C2812 C 0.78456 0.96891 0.59514 0.0
C2813 C 0.83004 0.97796 0.59169 0.0
N2814 N 0.90765 0.9732 0.59996 0.0
N2815 N 0.72574 0.97068 0.61536 0.0
C2816 C 0.86319 0.97332 0.60395 0.0
C2817 C 0.77025 0.97162 0.6114 0.0
N2818 N 0.87834 0.96999 0.63293 0.0
N2819 N 0.75539 0.96148 0.58264 0.0
H2820 H 0.71507 0.9712 0.62731 0.0
H2821 H 0.69956 0.96898 0.60699 0.0
H2822 H 0.76673 0.96054 0.57073 0.0
H2823 H 0.72154 0.9535 0.58403 0.0
H2824 H 0.91269 0.9642 0.63179 0.0
H2825 H 0.86686 0.97083 0.64482 0.0
H2826 H 0.9339 0.97313 0.60832 0.0
H2827 H 0.91826 0.9725 0.58801 0.0
C2828 C 0.85639 0.95901 0.32361 0.0
C2829 C 0.8221 0.92988 0.32928 0.0
C2830 C 0.7827 0.9371 0.30361 0.0
C2831 C 0.80857 0.97588 0.30062 0.0
N2832 N 0.8827 1.00806 0.30263 0.0
N2833 N 0.76083 0.88021 0.32257 0.0
C2834 C 0.85056 0.98001 0.30852 0.0
C2835 C 0.78911 0.91402 0.31828 0.0
N2836 N 0.893 0.97016 0.3327 0.0
N2837 N 0.74699 0.9268 0.294 0.0
H2838 H 0.76398 0.86417 0.3337 0.0
H2839 H 0.73539 0.86842 0.31492 0.0
H2840 H 0.73955 0.9448 0.2835 0.0
H2841 H 0.73955 0.9448 0.2835 0.0
H2842 H 0.89993 0.95683 0.34406 0.0
H2843 H 0.89993 0.95683 0.34406 0.0
H2844 H 0.91335 1.01344 0.30856 0.0
H2845 H 0.87934 1.02345 0.29142 0.0
C2846 C 0.87461 0.08394 1.07728 0.0
C2847 C 0.90874 0.05538 1.08345 0.0
C2848 C 0.91699 1.01986 1.05712 0.0
C2849 C 0.87607 1.04016 1.05259 0.0
N2850 N 0.83087 0.10662 1.05382 0.0
N2851 N 0.97232 1.00796 1.07834 0.0
C2852 C 0.86097 0.07839 1.061 0.0
C2853 C 0.93405 1.02801 1.07286 0.0
N2854 N 0.85266 0.113 1.08725 0.0
N2855 N 0.93487 0.98809 1.0472 0.0
H2856 H 0.98357 1.01311 1.09009 0.0
H2857 H 0.99372 0.98887 1.07121 0.0
H2858 H 0.92059 0.98164 1.03588 0.0
H2859 H 0.96282 0.96856 1.05002 0.0
H2860 H 0.82394 0.13075 1.08389 0.0
H2861 H 0.86226 0.11824 1.09922 0.0
H2862 H 0.82045 0.13681 1.05889 0.0
H2863 H 0.81965 0.10141 1.04205 0.0
C2864 C 0.7971 0.69465 0.81699 0.0
C2865 C 0.82958 0.67937 0.82832 0.0
C2866 C 0.85735 0.62654 0.80827 0.0
C2867 C 0.81542 0.62994 0.80045 0.0
N2868 N 0.75269 0.67547 0.79313 0.0
N2869 N 0.89959 0.63774 0.83236 0.0
C2870 C 0.78892 0.66843 0.80296 0.0
C2871 C 0.86348 0.64904 0.82307 0.0
N2872 N 0.77221 0.73167 0.82052 0.0
N2873 N 0.88813 0.59629 0.80289 0.0
H2874 H 0.90673 0.6518 0.8436 0.0
H2875 H 0.90673 0.6518 0.8436 0.0
H2876 H 0.88265 0.57819 0.79226 0.0
H2877 H 0.91889 0.59096 0.80875 0.0
H2878 H 0.74884 0.74599 0.81267 0.0
H2879 H 0.77769 0.74939 0.83121 0.0
H2880 H 0.72905 0.70075 0.79484 0.0
H2881 H 0.74692 0.65493 0.7831 0.0
C2882 C 0.71949 0.56362 1.05975 0.0
C2883 C 0.70843 0.52423 1.0513 0.0
C2884 C 0.66374 0.50012 1.07415 0.0
C2885 C 0.69156 0.52795 1.08405 0.0
N2886 N 0.74593 0.58917 1.08562 0.0
N2887 N 0.65452 0.4661 1.04752 0.0
C2888 C 0.71831 0.56193 1.07674 0.0
C2889 C 0.67281 0.49806 1.05732 0.0
N2890 N 0.73519 0.60011 1.05169 0.0
N2891 N 0.6312 0.47418 1.08096 0.0
H2892 H 0.66462 0.46331 1.03551 0.0
H2893 H 0.63097 0.44243 1.0512 0.0
H2894 H 0.62579 0.47402 1.09336 0.0
H2895 H 0.60831 0.45496 1.07439 0.0
H2896 H 0.74194 0.63061 1.05739 0.0
H2897 H 0.73662 0.60072 1.03913 0.0
H2898 H 0.76874 0.61123 1.08034 0.0
H2899 H 0.74933 0.58715 1.0981 0.0
C2900 C 0.76531 0.47788 0.3241 0.0
C2901 C 0.79354 0.448 0.33284 0.0
C2902 C 0.8304 0.42643 0.30785 0.0
C2903 C 0.81218 0.46531 0.30067 0.0
N2904 N 0.74543 0.51068 0.29849 0.0
N2905 N 0.84453 0.385 0.3322 0.0
C2906 C 0.77291 0.48386 0.30747 0.0
C2907 C 0.82208 0.41829 0.32431 0.0
N2908 N 0.73313 0.50321 0.33133 0.0
N2909 N 0.86193 0.4019 0.30001 0.0
H2910 H 0.84026 0.37926 0.34451 0.0
H2911 H 0.86663 0.36332 0.32632 0.0
H2912 H 0.87118 0.40866 0.28811 0.0
H2913 H 0.87118 0.40866 0.28811 0.0
H2914 H 0.72573 0.50177 0.3436 0.0
H2915 H 0.72573 0.50177 0.3436 0.0
H2916 H 0.71721 0.52648 0.30334 0.0
H2917 H 0.74942 0.51409 0.28607 0.0
C2918 C 0.87223 0.55121 0.55771 0.0
C2919 C 0.88416 0.59416 0.55205 0.0
C2920 C 0.9383 0.6008 0.57406 0.0
C2921 C 0.91267 0.56845 0.58251 0.0
N2922 N 0.8582 0.50781 0.58169 0.0
N2923 N 0.93828 0.65345 0.55164 0.0
C2924 C 0.88165 0.54082 0.574 0.0
C2925 C 0.9222 0.61564 0.55883 0.0
N2926 N 0.84946 0.52221 0.54792 0.0
N2927 N 0.97593 0.61858 0.58108 0.0
H2928 H 0.92517 0.6644 0.5406 0.0
H2929 H 0.96307 0.67394 0.55667 0.0
H2930 H 0.98718 0.60787 0.5924 0.0
H2931 H 0.99751 0.6407 0.57524 0.0
H2932 H 0.84228 0.48923 0.55119 0.0
H2933 H 0.84277 0.52976 0.53589 0.0
H2934 H 0.83142 0.49068 0.57633 0.0
H2935 H 0.86371 0.49906 0.59369 0.0
C2936 C 0.28676 0.48008 0.40388 0.0
C2937 C 0.32679 0.46406 0.411 0.0
C2938 C 0.33726 0.41401 0.38815 0.0
C2939 C 0.30905 0.44311 0.37905 0.0
N2940 N 0.25206 0.5014 0.37866 0.0
N2941 N 0.37934 0.40411 0.41329 0.0
C2942 C 0.28094 0.4744 0.38708 0.0
C2943 C 0.34683 0.42529 0.40448 0.0
N2944 N 0.25646 0.50305 0.41296 0.0
N2945 N 0.3566 0.37792 0.38084 0.0
H2946 H 0.38645 0.41416 0.42512 0.0
H2947 H 0.39877 0.37762 0.40906 0.0
H2948 H 0.35057 0.37053 0.36872 0.0
H2949 H 0.3762 0.35426 0.38686 0.0
H2950 H 0.22523 0.51339 0.40854 0.0
H2951 H 0.26069 0.50671 0.42537 0.0
H2952 H 0.23495 0.52812 0.38392 0.0
H2953 H 0.24706 0.49901 0.36625 0.0
C2954 C 0.38385 0.53519 0.13709 0.0
C2955 C 0.41257 0.56434 0.12832 0.0
C2956 C 0.42484 0.61 0.15234 0.0
C2957 C 0.38798 0.5875 0.1593 0.0
N2958 N 0.3567 0.51429 0.16357 0.0
N2959 N 0.47349 0.6176 0.12904 0.0
C2960 C 0.37692 0.54437 0.1536 0.0
C2961 C 0.43854 0.59707 0.13665 0.0
N2962 N 0.35986 0.50208 0.12955 0.0
N2963 N 0.44097 0.64763 0.15973 0.0
H2964 H 0.48215 0.60935 0.11724 0.0
H2965 H 0.49524 0.64019 0.13466 0.0
H2966 H 0.42863 0.65769 0.17094 0.0
H2967 H 0.46499 0.66887 0.15476 0.0
H2968 H 0.33476 0.48373 0.13529 0.0
H2969 H 0.36294 0.49451 0.11736 0.0
H2970 H 0.35018 0.48118 0.16023 0.0
H2971 H 0.3514 0.52142 0.1757 0.0
C2972 C 0.32883 0.63322 0.88015 0.0
C2973 C 0.29276 0.65845 0.87326 0.0
C2974 C 0.26171 0.66945 0.90015 0.0
C2975 C 0.2888 0.63343 0.90533 0.0
N2976 N 0.36698 0.61393 0.90518 0.0
N2977 N 0.2332 0.71244 0.87773 0.0
C2978 C 0.32947 0.62747 0.89707 0.0
C2979 C 0.26273 0.68159 0.88367 0.0
N2980 N 0.35957 0.61144 0.87082 0.0
N2981 N 0.22991 0.68672 0.91004 0.0
H2982 H 0.23343 0.72236 0.86565 0.0
H2983 H 0.20975 0.72847 0.88508 0.0
H2984 H 0.22667 0.6763 0.92202 0.0
H2985 H 0.22667 0.6763 0.92202 0.0
H2986 H 0.38339 0.58949 0.87565 0.0
H2987 H 0.35945 0.61238 0.85828 0.0
H2988 H 0.39836 0.61119 0.89971 0.0
H2989 H 0.36699 0.61064 0.9177 0.0
C2990 C 0.31701 0.60676 0.57654 0.0
C2991 C 0.34902 0.57931 0.56867 0.0
C2992 C 0.40155 0.59192 0.59079 0.0
C2993 C 0.36437 0.60316 0.60054 0.0
N2994 N 0.29015 0.63342 0.60254 0.0
N2995 N 0.42503 0.55359 0.56639 0.0
C2996 C 0.32355 0.61623 0.59318 0.0
C2997 C 0.39313 0.57612 0.57493 0.0
N2998 N 0.27943 0.62046 0.56842 0.0
N2999 N 0.44396 0.59402 0.59702 0.0
H3000 H 0.41849 0.54188 0.55473 0.0
H3001 H 0.45673 0.54558 0.57098 0.0
H3002 H 0.45017 0.60507 0.60877 0.0
H3003 H 0.47251 0.58987 0.58999 0.0
H3004 H 0.2554 0.64183 0.5733 0.0
H3005 H 0.27466 0.61346 0.5562 0.0
H3006 H 0.25753 0.63946 0.59844 0.0
H3007 H 0.29574 0.64071 0.61472 0.0
loop_
_geom_bond_atom_site_label_1
_geom_bond_atom_site_label_2
_geom_bond_distance
_geom_bond_site_symmetry_2
_ccdc_geom_bond_type
C0 Eu1 2.835 . S
C0 C2 1.500 . S
C0 O20 1.257 . S
C0 O21 1.260 . S
Eu1 C0 2.835 . S
Eu1 O20 2.473 . S
Eu1 O21 2.480 . S
Eu1 O22 2.430 . S
Eu1 O23 2.670 . S
Eu1 O24 2.394 . S
Eu1 O29 2.355 . S
Eu1 O31 2.374 . S
C2 C0 1.500 . S
C2 C3 1.377 . S
C2 C7 1.377 . S
C3 C2 1.377 . S
C3 C4 1.395 . S
C3 H32 0.931 . S
C4 C3 1.395 . S
C4 C5 1.383 . S
C4 H33 0.931 . S
C5 C4 1.383 . S
C5 C6 1.394 . S
C6 C5 1.394 . S
C6 C7 1.378 . S
C6 H34 0.931 . S
C7 C2 1.377 . S
C7 C6 1.378 . S
C7 H35 0.931 . S
C8 O22 1.259 . S
C8 O23 1.270 . S
C9 O24 1.251 . S
C9 O25 1.251 . S
C10 Eu11 2.835 . S
C10 C12 1.500 . S
C10 O26 1.257 . S
C10 O27 1.260 . S
Eu11 C10 2.835 . S
Eu11 O23 2.355 . S
Eu11 O25 2.374 . S
Eu11 O26 2.473 . S
Eu11 O27 2.480 . S
Eu11 O28 2.430 . S
Eu11 O29 2.670 . S
Eu11 O30 2.394 . S
C12 C10 1.500 . S
C12 C13 1.377 . S
C12 C17 1.377 . S
C13 C12 1.377 . S
C13 C14 1.395 . S
C13 H36 0.931 . S
C14 C13 1.395 . S
C14 C15 1.383 . S
C14 H37 0.931 . S
C15 C14 1.383 . S
C15 C16 1.394 . S
C16 C15 1.394 . S
C16 C17 1.378 . S
C16 H38 0.931 . S
C17 C12 1.377 . S
C17 C16 1.378 . S
C17 H39 0.931 . S
C18 O28 1.259 . S
C18 O29 1.270 . S
C19 O30 1.251 . S
C19 O31 1.251 . S
O20 C0 1.257 . S
O20 Eu1 2.473 . S
O21 C0 1.260 . S
O21 Eu1 2.480 . S
O22 Eu1 2.430 . S
O22 C8 1.259 . S
O23 Eu1 2.670 . S
O23 C8 1.270 . S
O23 Eu11 2.355 . S
O24 Eu1 2.394 . S
O24 C9 1.251 . S
O25 C9 1.251 . S
O25 Eu11 2.374 . S
O26 C10 1.257 . S
O26 Eu11 2.473 . S
O27 C10 1.260 . S
O27 Eu11 2.480 . S
O28 Eu11 2.430 . S
O28 C18 1.259 . S
O29 Eu1 2.355 . S
O29 Eu11 2.670 . S
O29 C18 1.270 . S
O30 Eu11 2.394 . S
O30 C19 1.251 . S
O31 Eu1 2.374 . S
O31 C19 1.251 . S
H32 C3 0.931 . S
H33 C4 0.931 . S
H34 C6 0.931 . S
H35 C7 0.931 . S
H36 C13 0.931 . S
H37 C14 0.931 . S
H38 C16 0.931 . S
H39 C17 0.931 . S
C40 Eu41 2.835 . S
C40 C42 1.500 . S
C40 O60 1.257 . S
C40 O61 1.260 . S
Eu41 C40 2.835 . S
Eu41 O60 2.473 . S
Eu41 O61 2.480 . S
Eu41 O62 2.430 . S
Eu41 O63 2.670 . S
Eu41 O64 2.394 . S
Eu41 O69 2.355 . S
Eu41 O71 2.374 . S
C42 C40 1.500 . S
C42 C43 1.377 . S
C42 C47 1.377 1_565 S
C43 C42 1.377 . S
C43 C44 1.395 . S
C43 H72 0.931 . S
C44 C43 1.395 . S
C44 C45 1.383 . S
C44 H73 0.931 . S
C45 C44 1.383 . S
C45 C46 1.394 1_565 S
C46 C45 1.394 1_545 S
C46 C47 1.378 . S
C46 H74 0.931 . S
C47 C42 1.377 1_545 S
C47 C46 1.378 . S
C47 H75 0.931 . S
C48 O62 1.259 . S
C48 O63 1.270 . S
C49 O64 1.251 . S
C49 O65 1.251 1_455 S
C50 Eu51 2.835 . S
C50 C52 1.500 . S
C50 O66 1.257 . S
C50 O67 1.260 . S
Eu51 C50 2.835 . S
Eu51 O63 2.355 1_655 S
Eu51 O65 2.374 . S
Eu51 O66 2.473 . S
Eu51 O67 2.480 . S
Eu51 O68 2.430 1_665 S
Eu51 O69 2.670 1_655 S
Eu51 O70 2.394 1_655 S
C52 C50 1.500 . S
C52 C53 1.377 . S
C52 C57 1.377 . S
C53 C52 1.377 . S
C53 C54 1.395 . S
C53 H76 0.931 . S
C54 C53 1.395 . S
C54 C55 1.383 . S
C54 H77 0.931 . S
C55 C54 1.383 . S
C55 C56 1.394 . S
C56 C55 1.394 . S
C56 C57 1.378 . S
C56 H78 0.931 . S
C57 C52 1.377 . S
C57 C56 1.378 . S
C57 H79 0.931 . S
C58 O68 1.259 . S
C58 O69 1.270 1_545 S
C59 O70 1.251 . S
C59 O71 1.251 . S
O60 C40 1.257 . S
O60 Eu41 2.473 . S
O61 C40 1.260 . S
O61 Eu41 2.480 . S
O62 Eu41 2.430 . S
O62 C48 1.259 . S
O63 Eu41 2.670 . S
O63 C48 1.270 . S
O63 Eu51 2.355 1_455 S
O64 Eu41 2.394 . S
O64 C49 1.251 . S
O65 C49 1.251 1_655 S
O65 Eu51 2.374 . S
O66 C50 1.257 . S
O66 Eu51 2.473 . S
O67 C50 1.260 . S
O67 Eu51 2.480 . S
O68 Eu51 2.430 1_445 S
O68 C58 1.259 . S
O69 Eu41 2.355 . S
O69 Eu51 2.670 1_455 S
O69 C58 1.270 1_565 S
O70 Eu51 2.394 1_455 S
O70 C59 1.251 . S
O71 Eu41 2.374 . S
O71 C59 1.251 . S
H72 C43 0.931 . S
H73 C44 0.931 . S
H74 C46 0.931 . S
H75 C47 0.931 . S
H76 C53 0.931 . S
H77 C54 0.931 . S
H78 C56 0.931 . S
H79 C57 0.931 . S
C80 Eu81 2.835 . S
C80 C82 1.500 . S
C80 O100 1.257 . S
C80 O101 1.260 . S
Eu81 C80 2.835 . S
Eu81 O100 2.473 . S
Eu81 O101 2.480 . S
Eu81 O102 2.430 . S
Eu81 O103 2.670 . S
Eu81 O104 2.394 . S
Eu81 O109 2.355 . S
Eu81 O111 2.374 . S
C82 C80 1.500 . S
C82 C83 1.377 . S
C82 C87 1.377 . S
C83 C82 1.377 . S
C83 C84 1.395 . S
C83 H112 0.931 . S
C84 C83 1.395 . S
C84 C85 1.383 . S
C84 H113 0.931 . S
C85 C84 1.383 . S
C85 C86 1.394 . S
C86 C85 1.394 . S
C86 C87 1.378 . S
C86 H114 0.931 . S
C87 C82 1.377 . S
C87 C86 1.378 . S
C87 H115 0.931 . S
C88 O102 1.259 . S
C88 O103 1.270 . S
C89 O104 1.251 . S
C89 O105 1.251 . S
C90 Eu91 2.835 . S
C90 C92 1.500 . S
C90 O106 1.257 . S
C90 O107 1.260 . S
Eu91 C90 2.835 . S
Eu91 O103 2.355 . S
Eu91 O105 2.374 . S
Eu91 O106 2.473 . S
Eu91 O107 2.480 . S
Eu91 O108 2.430 . S
Eu91 O109 2.670 . S
Eu91 O110 2.394 . S
C92 C90 1.500 . S
C92 C93 1.377 . S
C92 C97 1.377 . S
C93 C92 1.377 . S
C93 C94 1.395 . S
C93 H116 0.931 . S
C94 C93 1.395 . S
C94 C95 1.383 . S
C94 H117 0.931 . S
C95 C94 1.383 . S
C95 C96 1.394 . S
C96 C95 1.394 . S
C96 C97 1.378 . S
C96 H118 0.931 . S
C97 C92 1.377 . S
C97 C96 1.378 . S
C97 H119 0.931 . S
C98 O108 1.259 . S
C98 O109 1.270 . S
C99 O110 1.251 . S
C99 O111 1.251 . S
O100 C80 1.257 . S
O100 Eu81 2.473 . S
O101 C80 1.260 . S
O101 Eu81 2.480 . S
O102 Eu81 2.430 . S
O102 C88 1.259 . S
O103 Eu81 2.670 . S
O103 C88 1.270 . S
O103 Eu91 2.355 . S
O104 Eu81 2.394 . S
O104 C89 1.251 . S
O105 C89 1.251 . S
O105 Eu91 2.374 . S
O106 C90 1.257 . S
O106 Eu91 2.473 . S
O107 C90 1.260 . S
O107 Eu91 2.480 . S
O108 Eu91 2.430 . S
O108 C98 1.259 . S
O109 Eu81 2.355 . S
O109 Eu91 2.670 . S
O109 C98 1.270 . S
O110 Eu91 2.394 . S
O110 C99 1.251 . S
O111 Eu81 2.374 . S
O111 C99 1.251 . S
H112 C83 0.931 . S
H113 C84 0.931 . S
H114 C86 0.931 . S
H115 C87 0.931 . S
H116 C93 0.931 . S
H117 C94 0.931 . S
H118 C96 0.931 . S
H119 C97 0.931 . S
C120 Eu121 2.835 . S
C120 C122 1.500 . S
C120 O140 1.257 . S
C120 O141 1.260 . S
Eu121 C120 2.835 . S
Eu121 O140 2.473 . S
Eu121 O141 2.480 . S
Eu121 O142 2.430 . S
Eu121 O143 2.670 . S
Eu121 O144 2.394 . S
Eu121 O149 2.355 . S
Eu121 O151 2.374 . S
C122 C120 1.500 . S
C122 C123 1.377 . S
C122 C127 1.377 1_545 S
C123 C122 1.377 . S
C123 C124 1.395 . S
C123 H152 0.931 . S
C124 C123 1.395 . S
C124 C125 1.383 . S
C124 H153 0.931 . S
C125 C124 1.383 . S
C125 C126 1.394 1_545 S
C126 C125 1.394 1_565 S
C126 C127 1.378 . S
C126 H154 0.931 . S
C127 C122 1.377 1_565 S
C127 C126 1.378 . S
C127 H155 0.931 . S
C128 O142 1.259 . S
C128 O143 1.270 . S
C129 O144 1.251 . S
C129 O145 1.251 . S
C130 Eu131 2.835 . S
C130 C132 1.500 . S
C130 O146 1.257 . S
C130 O147 1.260 . S
Eu131 C130 2.835 . S
Eu131 O143 2.355 . S
Eu131 O145 2.374 . S
Eu131 O146 2.473 . S
Eu131 O147 2.480 . S
Eu131 O148 2.430 1_545 S
Eu131 O149 2.670 . S
Eu131 O150 2.394 . S
C132 C130 1.500 . S
C132 C133 1.377 . S
C132 C137 1.377 . S
C133 C132 1.377 . S
C133 C134 1.395 . S
C133 H156 0.931 . S
C134 C133 1.395 . S
C134 C135 1.383 . S
C134 H157 0.931 . S
C135 C134 1.383 . S
C135 C136 1.394 . S
C136 C135 1.394 . S
C136 C137 1.378 . S
C136 H158 0.931 . S
C137 C132 1.377 . S
C137 C136 1.378 . S
C137 H159 0.931 . S
C138 O148 1.259 . S
C138 O149 1.270 1_565 S
C139 O150 1.251 . S
C139 O151 1.251 . S
O140 C120 1.257 . S
O140 Eu121 2.473 . S
O141 C120 1.260 . S
O141 Eu121 2.480 . S
O142 Eu121 2.430 . S
O142 C128 1.259 . S
O143 Eu121 2.670 . S
O143 C128 1.270 . S
O143 Eu131 2.355 . S
O144 Eu121 2.394 . S
O144 C129 1.251 . S
O145 C129 1.251 . S
O145 Eu131 2.374 . S
O146 C130 1.257 . S
O146 Eu131 2.473 . S
O147 C130 1.260 . S
O147 Eu131 2.480 . S
O148 Eu131 2.430 1_565 S
O148 C138 1.259 . S
O149 Eu121 2.355 . S
O149 Eu131 2.670 . S
O149 C138 1.270 1_545 S
O150 Eu131 2.394 . S
O150 C139 1.251 . S
O151 Eu121 2.374 . S
O151 C139 1.251 . S
H152 C123 0.931 . S
H153 C124 0.931 . S
H154 C126 0.931 . S
H155 C127 0.931 . S
H156 C133 0.931 . S
H157 C134 0.931 . S
H158 C136 0.931 . S
H159 C137 0.931 . S
C160 Eu161 2.835 . S
C160 C162 1.500 . S
C160 O180 1.257 . S
C160 O181 1.260 . S
Eu161 C160 2.835 . S
Eu161 O180 2.473 . S
Eu161 O181 2.480 . S
Eu161 O182 2.430 . S
Eu161 O183 2.670 . S
Eu161 O184 2.394 . S
Eu161 O189 2.355 . S
Eu161 O191 2.374 . S
C162 C160 1.500 . S
C162 C163 1.377 . S
C162 C167 1.377 . S
C163 C162 1.377 . S
C163 C164 1.395 . S
C163 H192 0.931 . S
C164 C163 1.395 . S
C164 C165 1.383 . S
C164 H193 0.931 . S
C165 C164 1.383 . S
C165 C166 1.394 . S
C166 C165 1.394 . S
C166 C167 1.378 . S
C166 H194 0.931 . S
C167 C162 1.377 . S
C167 C166 1.378 . S
C167 H195 0.931 . S
C168 O182 1.259 . S
C168 O183 1.270 . S
C169 O184 1.251 . S
C169 O185 1.251 . S
C170 Eu171 2.835 . S
C170 C172 1.500 . S
C170 O186 1.257 . S
C170 O187 1.260 . S
Eu171 C170 2.835 . S
Eu171 O183 2.355 . S
Eu171 O185 2.374 . S
Eu171 O186 2.473 . S
Eu171 O187 2.480 . S
Eu171 O188 2.430 . S
Eu171 O189 2.670 . S
Eu171 O190 2.394 . S
C172 C170 1.500 . S
C172 C173 1.377 . S
C172 C177 1.377 . S
C173 C172 1.377 . S
C173 C174 1.395 . S
C173 H196 0.931 . S
C174 C173 1.395 . S
C174 C175 1.383 . S
C174 H197 0.931 . S
C175 C174 1.383 . S
C175 C176 1.394 . S
C176 C175 1.394 . S
C176 C177 1.378 . S
C176 H198 0.931 . S
C177 C172 1.377 . S
C177 C176 1.378 . S
C177 H199 0.931 . S
C178 O188 1.259 . S
C178 O189 1.270 . S
C179 O190 1.251 . S
C179 O191 1.251 . S
O180 C160 1.257 . S
O180 Eu161 2.473 . S
O181 C160 1.260 . S
O181 Eu161 2.480 . S
O182 Eu161 2.430 . S
O182 C168 1.259 . S
O183 Eu161 2.670 . S
O183 C168 1.270 . S
O183 Eu171 2.355 . S
O184 Eu161 2.394 . S
O184 C169 1.251 . S
O185 C169 1.251 . S
O185 Eu171 2.374 . S
O186 C170 1.257 . S
O186 Eu171 2.473 . S
O187 C170 1.260 . S
O187 Eu171 2.480 . S
O188 Eu171 2.430 . S
O188 C178 1.259 . S
O189 Eu161 2.355 . S
O189 Eu171 2.670 . S
O189 C178 1.270 . S
O190 Eu171 2.394 . S
O190 C179 1.251 . S
O191 Eu161 2.374 . S
O191 C179 1.251 . S
H192 C163 0.931 . S
H193 C164 0.931 . S
H194 C166 0.931 . S
H195 C167 0.931 . S
H196 C173 0.931 . S
H197 C174 0.931 . S
H198 C176 0.931 . S
H199 C177 0.931 . S
C200 Eu201 2.835 . S
C200 C202 1.500 . S
C200 O220 1.257 . S
C200 O221 1.260 . S
Eu201 C200 2.835 . S
Eu201 O220 2.473 . S
Eu201 O221 2.480 . S
Eu201 O222 2.430 . S
Eu201 O223 2.670 . S
Eu201 O224 2.394 . S
Eu201 O229 2.355 . S
Eu201 O231 2.374 . S
C202 C200 1.500 . S
C202 C203 1.377 . S
C202 C207 1.377 1_565 S
C203 C202 1.377 . S
C203 C204 1.395 . S
C203 H232 0.931 . S
C204 C203 1.395 . S
C204 C205 1.383 . S
C204 H233 0.931 . S
C205 C204 1.383 . S
C205 C206 1.394 1_565 S
C206 C205 1.394 1_545 S
C206 C207 1.378 . S
C206 H234 0.931 . S
C207 C202 1.377 1_545 S
C207 C206 1.378 . S
C207 H235 0.931 . S
C208 O222 1.259 . S
C208 O223 1.270 . S
C209 O224 1.251 . S
C209 O225 1.251 . S
C210 Eu211 2.835 . S
C210 C212 1.500 . S
C210 O226 1.257 . S
C210 O227 1.260 . S
Eu211 C210 2.835 . S
Eu211 O223 2.355 . S
Eu211 O225 2.374 . S
Eu211 O226 2.473 . S
Eu211 O227 2.480 . S
Eu211 O228 2.430 1_565 S
Eu211 O229 2.670 . S
Eu211 O230 2.394 . S
C212 C210 1.500 . S
C212 C213 1.377 . S
C212 C217 1.377 . S
C213 C212 1.377 . S
C213 C214 1.395 . S
C213 H236 0.931 . S
C214 C213 1.395 . S
C214 C215 1.383 . S
C214 H237 0.931 . S
C215 C214 1.383 . S
C215 C216 1.394 . S
C216 C215 1.394 . S
C216 C217 1.378 . S
C216 H238 0.931 . S
C217 C212 1.377 . S
C217 C216 1.378 . S
C217 H239 0.931 . S
C218 O228 1.259 . S
C218 O229 1.270 1_545 S
C219 O230 1.251 . S
C219 O231 1.251 . S
O220 C200 1.257 . S
O220 Eu201 2.473 . S
O221 C200 1.260 . S
O221 Eu201 2.480 . S
O222 Eu201 2.430 . S
O222 C208 1.259 . S
O223 Eu201 2.670 . S
O223 C208 1.270 . S
O223 Eu211 2.355 . S
O224 Eu201 2.394 . S
O224 C209 1.251 . S
O225 C209 1.251 . S
O225 Eu211 2.374 . S
O226 C210 1.257 . S
O226 Eu211 2.473 . S
O227 C210 1.260 . S
O227 Eu211 2.480 . S
O228 Eu211 2.430 1_545 S
O228 C218 1.259 . S
O229 Eu201 2.355 . S
O229 Eu211 2.670 . S
O229 C218 1.270 1_565 S
O230 Eu211 2.394 . S
O230 C219 1.251 . S
O231 Eu201 2.374 . S
O231 C219 1.251 . S
H232 C203 0.931 . S
H233 C204 0.931 . S
H234 C206 0.931 . S
H235 C207 0.931 . S
H236 C213 0.931 . S
H237 C214 0.931 . S
H238 C216 0.931 . S
H239 C217 0.931 . S
C240 Eu241 2.835 . S
C240 C242 1.500 . S
C240 O260 1.257 . S
C240 O261 1.260 . S
Eu241 C240 2.835 . S
Eu241 O260 2.473 . S
Eu241 O261 2.480 . S
Eu241 O262 2.430 . S
Eu241 O263 2.670 . S
Eu241 O264 2.394 . S
Eu241 O269 2.355 . S
Eu241 O271 2.374 . S
C242 C240 1.500 . S
C242 C243 1.377 . S
C242 C247 1.377 . S
C243 C242 1.377 . S
C243 C244 1.395 . S
C243 H272 0.931 . S
C244 C243 1.395 . S
C244 C245 1.383 . S
C244 H273 0.931 . S
C245 C244 1.383 . S
C245 C246 1.394 . S
C246 C245 1.394 . S
C246 C247 1.378 . S
C246 H274 0.931 . S
C247 C242 1.377 . S
C247 C246 1.378 . S
C247 H275 0.931 . S
C248 O262 1.259 . S
C248 O263 1.270 . S
C249 O264 1.251 . S
C249 O265 1.251 . S
C250 Eu251 2.835 . S
C250 C252 1.500 . S
C250 O266 1.257 . S
C250 O267 1.260 . S
Eu251 C250 2.835 . S
Eu251 O263 2.355 . S
Eu251 O265 2.374 . S
Eu251 O266 2.473 . S
Eu251 O267 2.480 . S
Eu251 O268 2.430 . S
Eu251 O269 2.670 . S
Eu251 O270 2.394 . S
C252 C250 1.500 . S
C252 C253 1.377 . S
C252 C257 1.377 . S
C253 C252 1.377 . S
C253 C254 1.395 . S
C253 H276 0.931 . S
C254 C253 1.395 . S
C254 C255 1.383 . S
C254 H277 0.931 . S
C255 C254 1.383 . S
C255 C256 1.394 . S
C256 C255 1.394 . S
C256 C257 1.378 . S
C256 H278 0.931 . S
C257 C252 1.377 . S
C257 C256 1.378 . S
C257 H279 0.931 . S
C258 O268 1.259 . S
C258 O269 1.270 . S
C259 O270 1.251 . S
C259 O271 1.251 . S
O260 C240 1.257 . S
O260 Eu241 2.473 . S
O261 C240 1.260 . S
O261 Eu241 2.480 . S
O262 Eu241 2.430 . S
O262 C248 1.259 . S
O263 Eu241 2.670 . S
O263 C248 1.270 . S
O263 Eu251 2.355 . S
O264 Eu241 2.394 . S
O264 C249 1.251 . S
O265 C249 1.251 . S
O265 Eu251 2.374 . S
O266 C250 1.257 . S
O266 Eu251 2.473 . S
O267 C250 1.260 . S
O267 Eu251 2.480 . S
O268 Eu251 2.430 . S
O268 C258 1.259 . S
O269 Eu241 2.355 . S
O269 Eu251 2.670 . S
O269 C258 1.270 . S
O270 Eu251 2.394 . S
O270 C259 1.251 . S
O271 Eu241 2.374 . S
O271 C259 1.251 . S
H272 C243 0.931 . S
H273 C244 0.931 . S
H274 C246 0.931 . S
H275 C247 0.931 . S
H276 C253 0.931 . S
H277 C254 0.931 . S
H278 C256 0.931 . S
H279 C257 0.931 . S
C280 Eu281 2.835 . S
C280 C282 1.500 . S
C280 O300 1.257 . S
C280 O301 1.260 . S
Eu281 C280 2.835 . S
Eu281 O300 2.473 . S
Eu281 O301 2.480 . S
Eu281 O302 2.430 . S
Eu281 O303 2.670 . S
Eu281 O304 2.394 . S
Eu281 O309 2.355 . S
Eu281 O311 2.374 . S
C282 C280 1.500 . S
C282 C283 1.377 . S
C282 C287 1.377 1_545 S
C283 C282 1.377 . S
C283 C284 1.395 . S
C283 H312 0.931 . S
C284 C283 1.395 . S
C284 C285 1.383 . S
C284 H313 0.931 . S
C285 C284 1.383 . S
C285 C286 1.394 1_545 S
C286 C285 1.394 1_565 S
C286 C287 1.378 . S
C286 H314 0.931 . S
C287 C282 1.377 1_565 S
C287 C286 1.378 . S
C287 H315 0.931 . S
C288 O302 1.259 . S
C288 O303 1.270 . S
C289 O304 1.251 . S
C289 O305 1.251 1_455 S
C290 Eu291 2.835 . S
C290 C292 1.500 . S
C290 O306 1.257 . S
C290 O307 1.260 . S
Eu291 C290 2.835 . S
Eu291 O303 2.355 1_655 S
Eu291 O305 2.374 . S
Eu291 O306 2.473 . S
Eu291 O307 2.480 . S
Eu291 O308 2.430 1_645 S
Eu291 O309 2.670 1_655 S
Eu291 O310 2.394 1_655 S
C292 C290 1.500 . S
C292 C293 1.377 . S
C292 C297 1.377 . S
C293 C292 1.377 . S
C293 C294 1.395 . S
C293 H316 0.931 . S
C294 C293 1.395 . S
C294 C295 1.383 . S
C294 H317 0.931 . S
C295 C294 1.383 . S
C295 C296 1.394 . S
C296 C295 1.394 . S
C296 C297 1.378 . S
C296 H318 0.931 . S
C297 C292 1.377 . S
C297 C296 1.378 . S
C297 H319 0.931 . S
C298 O308 1.259 . S
C298 O309 1.270 1_565 S
C299 O310 1.251 . S
C299 O311 1.251 . S
O300 C280 1.257 . S
O300 Eu281 2.473 . S
O301 C280 1.260 . S
O301 Eu281 2.480 . S
O302 Eu281 2.430 . S
O302 C288 1.259 . S
O303 Eu281 2.670 . S
O303 C288 1.270 . S
O303 Eu291 2.355 1_455 S
O304 Eu281 2.394 . S
O304 C289 1.251 . S
O305 C289 1.251 1_655 S
O305 Eu291 2.374 . S
O306 C290 1.257 . S
O306 Eu291 2.473 . S
O307 C290 1.260 . S
O307 Eu291 2.480 . S
O308 Eu291 2.430 1_465 S
O308 C298 1.259 . S
O309 Eu281 2.355 . S
O309 Eu291 2.670 1_455 S
O309 C298 1.270 1_545 S
O310 Eu291 2.394 1_455 S
O310 C299 1.251 . S
O311 Eu281 2.374 . S
O311 C299 1.251 . S
H312 C283 0.931 . S
H313 C284 0.931 . S
H314 C286 0.931 . S
H315 C287 0.931 . S
H316 C293 0.931 . S
H317 C294 0.931 . S
H318 C296 0.931 . S
H319 C297 0.931 . S
C320 Eu321 2.835 . S
C320 C322 1.500 . S
C320 O340 1.257 . S
C320 O341 1.260 . S
Eu321 C320 2.835 . S
Eu321 O340 2.473 . S
Eu321 O341 2.480 . S
Eu321 O342 2.430 . S
Eu321 O343 2.670 . S
Eu321 O344 2.394 . S
Eu321 O349 2.355 . S
Eu321 O351 2.374 . S
C322 C320 1.500 . S
C322 C323 1.377 . S
C322 C327 1.377 . S
C323 C322 1.377 . S
C323 C324 1.395 . S
C323 H352 0.931 . S
C324 C323 1.395 . S
C324 C325 1.383 . S
C324 H353 0.931 . S
C325 C324 1.383 . S
C325 C326 1.394 . S
C326 C325 1.394 . S
C326 C327 1.378 . S
C326 H354 0.931 . S
C327 C322 1.377 . S
C327 C326 1.378 . S
C327 H355 0.931 . S
C328 O342 1.259 . S
C328 O343 1.270 . S
C329 O344 1.251 . S
C329 O345 1.251 . S
C330 Eu331 2.835 . S
C330 C332 1.500 . S
C330 O346 1.257 . S
C330 O347 1.260 . S
Eu331 C330 2.835 . S
Eu331 O343 2.355 . S
Eu331 O345 2.374 . S
Eu331 O346 2.473 . S
Eu331 O347 2.480 . S
Eu331 O348 2.430 . S
Eu331 O349 2.670 . S
Eu331 O350 2.394 . S
C332 C330 1.500 . S
C332 C333 1.377 . S
C332 C337 1.377 . S
C333 C332 1.377 . S
C333 C334 1.395 . S
C333 H356 0.931 . S
C334 C333 1.395 . S
C334 C335 1.383 . S
C334 H357 0.931 . S
C335 C334 1.383 . S
C335 C336 1.394 . S
C336 C335 1.394 . S
C336 C337 1.378 . S
C336 H358 0.931 . S
C337 C332 1.377 . S
C337 C336 1.378 . S
C337 H359 0.931 . S
C338 O348 1.259 . S
C338 O349 1.270 . S
C339 O350 1.251 . S
C339 O351 1.251 . S
O340 C320 1.257 . S
O340 Eu321 2.473 . S
O341 C320 1.260 . S
O341 Eu321 2.480 . S
O342 Eu321 2.430 . S
O342 C328 1.259 . S
O343 Eu321 2.670 . S
O343 C328 1.270 . S
O343 Eu331 2.355 . S
O344 Eu321 2.394 . S
O344 C329 1.251 . S
O345 C329 1.251 . S
O345 Eu331 2.374 . S
O346 C330 1.257 . S
O346 Eu331 2.473 . S
O347 C330 1.260 . S
O347 Eu331 2.480 . S
O348 Eu331 2.430 . S
O348 C338 1.259 . S
O349 Eu321 2.355 . S
O349 Eu331 2.670 . S
O349 C338 1.270 . S
O350 Eu331 2.394 . S
O350 C339 1.251 . S
O351 Eu321 2.374 . S
O351 C339 1.251 . S
H352 C323 0.931 . S
H353 C324 0.931 . S
H354 C326 0.931 . S
H355 C327 0.931 . S
H356 C333 0.931 . S
H357 C334 0.931 . S
H358 C336 0.931 . S
H359 C337 0.931 . S
C360 Eu361 2.835 . S
C360 C362 1.500 . S
C360 O380 1.257 . S
C360 O381 1.260 . S
Eu361 C360 2.835 . S
Eu361 O380 2.473 . S
Eu361 O381 2.480 . S
Eu361 O382 2.430 1_445 S
Eu361 O383 2.670 1_455 S
Eu361 O384 2.394 1_455 S
Eu361 O389 2.355 1_455 S
Eu361 O391 2.374 . S
C362 C360 1.500 . S
C362 C363 1.377 . S
C362 C367 1.377 . S
C363 C362 1.377 . S
C363 C364 1.395 . S
C363 H392 0.931 . S
C364 C363 1.395 . S
C364 C365 1.383 . S
C364 H393 0.931 . S
C365 C364 1.383 . S
C365 C366 1.394 . S
C366 C365 1.394 . S
C366 C367 1.378 . S
C366 H394 0.931 . S
C367 C362 1.377 . S
C367 C366 1.378 . S
C367 H395 0.931 . S
C368 O382 1.259 . S
C368 O383 1.270 1_565 S
C369 O384 1.251 . S
C369 O385 1.251 . S
C370 Eu371 2.835 . S
C370 C372 1.500 . S
C370 O386 1.257 . S
C370 O387 1.260 . S
Eu371 C370 2.835 . S
Eu371 O383 2.355 . S
Eu371 O385 2.374 . S
Eu371 O386 2.473 . S
Eu371 O387 2.480 . S
Eu371 O388 2.430 . S
Eu371 O389 2.670 . S
Eu371 O390 2.394 . S
C372 C370 1.500 . S
C372 C373 1.377 . S
C372 C377 1.377 1_545 S
C373 C372 1.377 . S
C373 C374 1.395 . S
C373 H396 0.931 . S
C374 C373 1.395 . S
C374 C375 1.383 . S
C374 H397 0.931 . S
C375 C374 1.383 . S
C375 C376 1.394 1_545 S
C376 C375 1.394 1_565 S
C376 C377 1.378 . S
C376 H398 0.931 . S
C377 C372 1.377 1_565 S
C377 C376 1.378 . S
C377 H399 0.931 . S
C378 O388 1.259 . S
C378 O389 1.270 . S
C379 O390 1.251 . S
C379 O391 1.251 1_655 S
O380 C360 1.257 . S
O380 Eu361 2.473 . S
O381 C360 1.260 . S
O381 Eu361 2.480 . S
O382 Eu361 2.430 1_665 S
O382 C368 1.259 . S
O383 Eu361 2.670 1_655 S
O383 C368 1.270 1_545 S
O383 Eu371 2.355 . S
O384 Eu361 2.394 1_655 S
O384 C369 1.251 . S
O385 C369 1.251 . S
O385 Eu371 2.374 . S
O386 C370 1.257 . S
O386 Eu371 2.473 . S
O387 C370 1.260 . S
O387 Eu371 2.480 . S
O388 Eu371 2.430 . S
O388 C378 1.259 . S
O389 Eu361 2.355 1_655 S
O389 Eu371 2.670 . S
O389 C378 1.270 . S
O390 Eu371 2.394 . S
O390 C379 1.251 . S
O391 Eu361 2.374 . S
O391 C379 1.251 1_455 S
H392 C363 0.931 . S
H393 C364 0.931 . S
H394 C366 0.931 . S
H395 C367 0.931 . S
H396 C373 0.931 . S
H397 C374 0.931 . S
H398 C376 0.931 . S
H399 C377 0.931 . S
C400 Eu401 2.835 . S
C400 C402 1.500 . S
C400 O420 1.257 . S
C400 O421 1.260 . S
Eu401 C400 2.835 . S
Eu401 O420 2.473 . S
Eu401 O421 2.480 . S
Eu401 O422 2.430 . S
Eu401 O423 2.670 . S
Eu401 O424 2.394 . S
Eu401 O429 2.355 . S
Eu401 O431 2.374 . S
C402 C400 1.500 . S
C402 C403 1.377 . S
C402 C407 1.377 . S
C403 C402 1.377 . S
C403 C404 1.395 . S
C403 H432 0.931 . S
C404 C403 1.395 . S
C404 C405 1.383 . S
C404 H433 0.931 . S
C405 C404 1.383 . S
C405 C406 1.394 . S
C406 C405 1.394 . S
C406 C407 1.378 . S
C406 H434 0.931 . S
C407 C402 1.377 . S
C407 C406 1.378 . S
C407 H435 0.931 . S
C408 O422 1.259 . S
C408 O423 1.270 . S
C409 O424 1.251 . S
C409 O425 1.251 . S
C410 Eu411 2.835 . S
C410 C412 1.500 . S
C410 O426 1.257 . S
C410 O427 1.260 . S
Eu411 C410 2.835 . S
Eu411 O423 2.355 . S
Eu411 O425 2.374 . S
Eu411 O426 2.473 . S
Eu411 O427 2.480 . S
Eu411 O428 2.430 . S
Eu411 O429 2.670 . S
Eu411 O430 2.394 . S
C412 C410 1.500 . S
C412 C413 1.377 . S
C412 C417 1.377 . S
C413 C412 1.377 . S
C413 C414 1.395 . S
C413 H436 0.931 . S
C414 C413 1.395 . S
C414 C415 1.383 . S
C414 H437 0.931 . S
C415 C414 1.383 . S
C415 C416 1.394 . S
C416 C415 1.394 . S
C416 C417 1.378 . S
C416 H438 0.931 . S
C417 C412 1.377 . S
C417 C416 1.378 . S
C417 H439 0.931 . S
C418 O428 1.259 . S
C418 O429 1.270 . S
C419 O430 1.251 . S
C419 O431 1.251 . S
O420 C400 1.257 . S
O420 Eu401 2.473 . S
O421 C400 1.260 . S
O421 Eu401 2.480 . S
O422 Eu401 2.430 . S
O422 C408 1.259 . S
O423 Eu401 2.670 . S
O423 C408 1.270 . S
O423 Eu411 2.355 . S
O424 Eu401 2.394 . S
O424 C409 1.251 . S
O425 C409 1.251 . S
O425 Eu411 2.374 . S
O426 C410 1.257 . S
O426 Eu411 2.473 . S
O427 C410 1.260 . S
O427 Eu411 2.480 . S
O428 Eu411 2.430 . S
O428 C418 1.259 . S
O429 Eu401 2.355 . S
O429 Eu411 2.670 . S
O429 C418 1.270 . S
O430 Eu411 2.394 . S
O430 C419 1.251 . S
O431 Eu401 2.374 . S
O431 C419 1.251 . S
H432 C403 0.931 . S
H433 C404 0.931 . S
H434 C406 0.931 . S
H435 C407 0.931 . S
H436 C413 0.931 . S
H437 C414 0.931 . S
H438 C416 0.931 . S
H439 C417 0.931 . S
C440 Eu441 2.835 . S
C440 C442 1.500 . S
C440 O460 1.257 . S
C440 O461 1.260 . S
Eu441 C440 2.835 . S
Eu441 O460 2.473 . S
Eu441 O461 2.480 . S
Eu441 O462 2.430 1_565 S
Eu441 O463 2.670 . S
Eu441 O464 2.394 . S
Eu441 O469 2.355 . S
Eu441 O471 2.374 . S
C442 C440 1.500 . S
C442 C443 1.377 . S
C442 C447 1.377 . S
C443 C442 1.377 . S
C443 C444 1.395 . S
C443 H472 0.931 . S
C444 C443 1.395 . S
C444 C445 1.383 . S
C444 H473 0.931 . S
C445 C444 1.383 . S
C445 C446 1.394 . S
C446 C445 1.394 . S
C446 C447 1.378 . S
C446 H474 0.931 . S
C447 C442 1.377 . S
C447 C446 1.378 . S
C447 H475 0.931 . S
C448 O462 1.259 . S
C448 O463 1.270 1_545 S
C449 O464 1.251 . S
C449 O465 1.251 . S
C450 Eu451 2.835 . S
C450 C452 1.500 . S
C450 O466 1.257 . S
C450 O467 1.260 . S
Eu451 C450 2.835 . S
Eu451 O463 2.355 . S
Eu451 O465 2.374 . S
Eu451 O466 2.473 . S
Eu451 O467 2.480 . S
Eu451 O468 2.430 . S
Eu451 O469 2.670 . S
Eu451 O470 2.394 . S
C452 C450 1.500 . S
C452 C453 1.377 . S
C452 C457 1.377 1_565 S
C453 C452 1.377 . S
C453 C454 1.395 . S
C453 H476 0.931 . S
C454 C453 1.395 . S
C454 C455 1.383 . S
C454 H477 0.931 . S
C455 C454 1.383 . S
C455 C456 1.394 1_565 S
C456 C455 1.394 1_545 S
C456 C457 1.378 . S
C456 H478 0.931 . S
C457 C452 1.377 1_545 S
C457 C456 1.378 . S
C457 H479 0.931 . S
C458 O468 1.259 . S
C458 O469 1.270 . S
C459 O470 1.251 . S
C459 O471 1.251 . S
O460 C440 1.257 . S
O460 Eu441 2.473 . S
O461 C440 1.260 . S
O461 Eu441 2.480 . S
O462 Eu441 2.430 1_545 S
O462 C448 1.259 . S
O463 Eu441 2.670 . S
O463 C448 1.270 1_565 S
O463 Eu451 2.355 . S
O464 Eu441 2.394 . S
O464 C449 1.251 . S
O465 C449 1.251 . S
O465 Eu451 2.374 . S
O466 C450 1.257 . S
O466 Eu451 2.473 . S
O467 C450 1.260 . S
O467 Eu451 2.480 . S
O468 Eu451 2.430 . S
O468 C458 1.259 . S
O469 Eu441 2.355 . S
O469 Eu451 2.670 . S
O469 C458 1.270 . S
O470 Eu451 2.394 . S
O470 C459 1.251 . S
O471 Eu441 2.374 . S
O471 C459 1.251 . S
H472 C443 0.931 . S
H473 C444 0.931 . S
H474 C446 0.931 . S
H475 C447 0.931 . S
H476 C453 0.931 . S
H477 C454 0.931 . S
H478 C456 0.931 . S
H479 C457 0.931 . S
C480 Eu481 2.835 . S
C480 C482 1.500 . S
C480 O500 1.257 . S
C480 O501 1.260 . S
Eu481 C480 2.835 . S
Eu481 O500 2.473 . S
Eu481 O501 2.480 . S
Eu481 O502 2.430 . S
Eu481 O503 2.670 . S
Eu481 O504 2.394 . S
Eu481 O509 2.355 . S
Eu481 O511 2.374 . S
C482 C480 1.500 . S
C482 C483 1.377 . S
C482 C487 1.377 . S
C483 C482 1.377 . S
C483 C484 1.395 . S
C483 H512 0.931 . S
C484 C483 1.395 . S
C484 C485 1.383 . S
C484 H513 0.931 . S
C485 C484 1.383 . S
C485 C486 1.394 . S
C486 C485 1.394 . S
C486 C487 1.378 . S
C486 H514 0.931 . S
C487 C482 1.377 . S
C487 C486 1.378 . S
C487 H515 0.931 . S
C488 O502 1.259 . S
C488 O503 1.270 . S
C489 O504 1.251 . S
C489 O505 1.251 . S
C490 Eu491 2.835 . S
C490 C492 1.500 . S
C490 O506 1.257 . S
C490 O507 1.260 . S
Eu491 C490 2.835 . S
Eu491 O503 2.355 . S
Eu491 O505 2.374 . S
Eu491 O506 2.473 . S
Eu491 O507 2.480 . S
Eu491 O508 2.430 . S
Eu491 O509 2.670 . S
Eu491 O510 2.394 . S
C492 C490 1.500 . S
C492 C493 1.377 . S
C492 C497 1.377 . S
C493 C492 1.377 . S
C493 C494 1.395 . S
C493 H516 0.931 . S
C494 C493 1.395 . S
C494 C495 1.383 . S
C494 H517 0.931 . S
C495 C494 1.383 . S
C495 C496 1.394 . S
C496 C495 1.394 . S
C496 C497 1.378 . S
C496 H518 0.931 . S
C497 C492 1.377 . S
C497 C496 1.378 . S
C497 H519 0.931 . S
C498 O508 1.259 . S
C498 O509 1.270 . S
C499 O510 1.251 . S
C499 O511 1.251 . S
O500 C480 1.257 . S
O500 Eu481 2.473 . S
O501 C480 1.260 . S
O501 Eu481 2.480 . S
O502 Eu481 2.430 . S
O502 C488 1.259 . S
O503 Eu481 2.670 . S
O503 C488 1.270 . S
O503 Eu491 2.355 . S
O504 Eu481 2.394 . S
O504 C489 1.251 . S
O505 C489 1.251 . S
O505 Eu491 2.374 . S
O506 C490 1.257 . S
O506 Eu491 2.473 . S
O507 C490 1.260 . S
O507 Eu491 2.480 . S
O508 Eu491 2.430 . S
O508 C498 1.259 . S
O509 Eu481 2.355 . S
O509 Eu491 2.670 . S
O509 C498 1.270 . S
O510 Eu491 2.394 . S
O510 C499 1.251 . S
O511 Eu481 2.374 . S
O511 C499 1.251 . S
H512 C483 0.931 . S
H513 C484 0.931 . S
H514 C486 0.931 . S
H515 C487 0.931 . S
H516 C493 0.931 . S
H517 C494 0.931 . S
H518 C496 0.931 . S
H519 C497 0.931 . S
C520 Eu521 2.835 . S
C520 C522 1.500 . S
C520 O540 1.257 . S
C520 O541 1.260 . S
Eu521 C520 2.835 . S
Eu521 O540 2.473 . S
Eu521 O541 2.480 . S
Eu521 O542 2.430 1_545 S
Eu521 O543 2.670 . S
Eu521 O544 2.394 . S
Eu521 O549 2.355 . S
Eu521 O551 2.374 . S
C522 C520 1.500 . S
C522 C523 1.377 . S
C522 C527 1.377 . S
C523 C522 1.377 . S
C523 C524 1.395 . S
C523 H552 0.931 . S
C524 C523 1.395 . S
C524 C525 1.383 . S
C524 H553 0.931 . S
C525 C524 1.383 . S
C525 C526 1.394 . S
C526 C525 1.394 . S
C526 C527 1.378 . S
C526 H554 0.931 . S
C527 C522 1.377 . S
C527 C526 1.378 . S
C527 H555 0.931 . S
C528 O542 1.259 . S
C528 O543 1.270 1_565 S
C529 O544 1.251 . S
C529 O545 1.251 . S
C530 Eu531 2.835 . S
C530 C532 1.500 . S
C530 O546 1.257 . S
C530 O547 1.260 . S
Eu531 C530 2.835 . S
Eu531 O543 2.355 . S
Eu531 O545 2.374 . S
Eu531 O546 2.473 . S
Eu531 O547 2.480 . S
Eu531 O548 2.430 . S
Eu531 O549 2.670 . S
Eu531 O550 2.394 . S
C532 C530 1.500 . S
C532 C533 1.377 . S
C532 C537 1.377 1_545 S
C533 C532 1.377 . S
C533 C534 1.395 . S
C533 H556 0.931 . S
C534 C533 1.395 . S
C534 C535 1.383 . S
C534 H557 0.931 . S
C535 C534 1.383 . S
C535 C536 1.394 1_545 S
C536 C535 1.394 1_565 S
C536 C537 1.378 . S
C536 H558 0.931 . S
C537 C532 1.377 1_565 S
C537 C536 1.378 . S
C537 H559 0.931 . S
C538 O548 1.259 . S
C538 O549 1.270 . S
C539 O550 1.251 . S
C539 O551 1.251 . S
O540 C520 1.257 . S
O540 Eu521 2.473 . S
O541 C520 1.260 . S
O541 Eu521 2.480 . S
O542 Eu521 2.430 1_565 S
O542 C528 1.259 . S
O543 Eu521 2.670 . S
O543 C528 1.270 1_545 S
O543 Eu531 2.355 . S
O544 Eu521 2.394 . S
O544 C529 1.251 . S
O545 C529 1.251 . S
O545 Eu531 2.374 . S
O546 C530 1.257 . S
O546 Eu531 2.473 . S
O547 C530 1.260 . S
O547 Eu531 2.480 . S
O548 Eu531 2.430 . S
O548 C538 1.259 . S
O549 Eu521 2.355 . S
O549 Eu531 2.670 . S
O549 C538 1.270 . S
O550 Eu531 2.394 . S
O550 C539 1.251 . S
O551 Eu521 2.374 . S
O551 C539 1.251 . S
H552 C523 0.931 . S
H553 C524 0.931 . S
H554 C526 0.931 . S
H555 C527 0.931 . S
H556 C533 0.931 . S
H557 C534 0.931 . S
H558 C536 0.931 . S
H559 C537 0.931 . S
C560 Eu561 2.835 . S
C560 C562 1.500 . S
C560 O580 1.257 . S
C560 O581 1.260 . S
Eu561 C560 2.835 . S
Eu561 O580 2.473 . S
Eu561 O581 2.480 . S
Eu561 O582 2.430 . S
Eu561 O583 2.670 . S
Eu561 O584 2.394 . S
Eu561 O589 2.355 . S
Eu561 O591 2.374 . S
C562 C560 1.500 . S
C562 C563 1.377 . S
C562 C567 1.377 . S
C563 C562 1.377 . S
C563 C564 1.395 . S
C563 H592 0.931 . S
C564 C563 1.395 . S
C564 C565 1.383 . S
C564 H593 0.931 . S
C565 C564 1.383 . S
C565 C566 1.394 . S
C566 C565 1.394 . S
C566 C567 1.378 . S
C566 H594 0.931 . S
C567 C562 1.377 . S
C567 C566 1.378 . S
C567 H595 0.931 . S
C568 O582 1.259 . S
C568 O583 1.270 . S
C569 O584 1.251 . S
C569 O585 1.251 . S
C570 Eu571 2.835 . S
C570 C572 1.500 . S
C570 O586 1.257 . S
C570 O587 1.260 . S
Eu571 C570 2.835 . S
Eu571 O583 2.355 . S
Eu571 O585 2.374 . S
Eu571 O586 2.473 . S
Eu571 O587 2.480 . S
Eu571 O588 2.430 . S
Eu571 O589 2.670 . S
Eu571 O590 2.394 . S
C572 C570 1.500 . S
C572 C573 1.377 . S
C572 C577 1.377 . S
C573 C572 1.377 . S
C573 C574 1.395 . S
C573 H596 0.931 . S
C574 C573 1.395 . S
C574 C575 1.383 . S
C574 H597 0.931 . S
C575 C574 1.383 . S
C575 C576 1.394 . S
C576 C575 1.394 . S
C576 C577 1.378 . S
C576 H598 0.931 . S
C577 C572 1.377 . S
C577 C576 1.378 . S
C577 H599 0.931 . S
C578 O588 1.259 . S
C578 O589 1.270 . S
C579 O590 1.251 . S
C579 O591 1.251 . S
O580 C560 1.257 . S
O580 Eu561 2.473 . S
O581 C560 1.260 . S
O581 Eu561 2.480 . S
O582 Eu561 2.430 . S
O582 C568 1.259 . S
O583 Eu561 2.670 . S
O583 C568 1.270 . S
O583 Eu571 2.355 . S
O584 Eu561 2.394 . S
O584 C569 1.251 . S
O585 C569 1.251 . S
O585 Eu571 2.374 . S
O586 C570 1.257 . S
O586 Eu571 2.473 . S
O587 C570 1.260 . S
O587 Eu571 2.480 . S
O588 Eu571 2.430 . S
O588 C578 1.259 . S
O589 Eu561 2.355 . S
O589 Eu571 2.670 . S
O589 C578 1.270 . S
O590 Eu571 2.394 . S
O590 C579 1.251 . S
O591 Eu561 2.374 . S
O591 C579 1.251 . S
H592 C563 0.931 . S
H593 C564 0.931 . S
H594 C566 0.931 . S
H595 C567 0.931 . S
H596 C573 0.931 . S
H597 C574 0.931 . S
H598 C576 0.931 . S
H599 C577 0.931 . S
C600 Eu601 2.835 . S
C600 C602 1.500 . S
C600 O620 1.257 . S
C600 O621 1.260 . S
Eu601 C600 2.835 . S
Eu601 O620 2.473 . S
Eu601 O621 2.480 . S
Eu601 O622 2.430 1_465 S
Eu601 O623 2.670 1_455 S
Eu601 O624 2.394 1_455 S
Eu601 O629 2.355 1_455 S
Eu601 O631 2.374 . S
C602 C600 1.500 . S
C602 C603 1.377 . S
C602 C607 1.377 . S
C603 C602 1.377 . S
C603 C604 1.395 . S
C603 H632 0.931 . S
C604 C603 1.395 . S
C604 C605 1.383 . S
C604 H633 0.931 . S
C605 C604 1.383 . S
C605 C606 1.394 . S
C606 C605 1.394 . S
C606 C607 1.378 . S
C606 H634 0.931 . S
C607 C602 1.377 . S
C607 C606 1.378 . S
C607 H635 0.931 . S
C608 O622 1.259 . S
C608 O623 1.270 1_545 S
C609 O624 1.251 . S
C609 O625 1.251 . S
C610 Eu611 2.835 . S
C610 C612 1.500 . S
C610 O626 1.257 . S
C610 O627 1.260 . S
Eu611 C610 2.835 . S
Eu611 O623 2.355 . S
Eu611 O625 2.374 . S
Eu611 O626 2.473 . S
Eu611 O627 2.480 . S
Eu611 O628 2.430 . S
Eu611 O629 2.670 . S
Eu611 O630 2.394 . S
C612 C610 1.500 . S
C612 C613 1.377 . S
C612 C617 1.377 1_565 S
C613 C612 1.377 . S
C613 C614 1.395 . S
C613 H636 0.931 . S
C614 C613 1.395 . S
C614 C615 1.383 . S
C614 H637 0.931 . S
C615 C614 1.383 . S
C615 C616 1.394 1_565 S
C616 C615 1.394 1_545 S
C616 C617 1.378 . S
C616 H638 0.931 . S
C617 C612 1.377 1_545 S
C617 C616 1.378 . S
C617 H639 0.931 . S
C618 O628 1.259 . S
C618 O629 1.270 . S
C619 O630 1.251 . S
C619 O631 1.251 1_655 S
O620 C600 1.257 . S
O620 Eu601 2.473 . S
O621 C600 1.260 . S
O621 Eu601 2.480 . S
O622 Eu601 2.430 1_645 S
O622 C608 1.259 . S
O623 Eu601 2.670 1_655 S
O623 C608 1.270 1_565 S
O623 Eu611 2.355 . S
O624 Eu601 2.394 1_655 S
O624 C609 1.251 . S
O625 C609 1.251 . S
O625 Eu611 2.374 . S
O626 C610 1.257 . S
O626 Eu611 2.473 . S
O627 C610 1.260 . S
O627 Eu611 2.480 . S
O628 Eu611 2.430 . S
O628 C618 1.259 . S
O629 Eu601 2.355 1_655 S
O629 Eu611 2.670 . S
O629 C618 1.270 . S
O630 Eu611 2.394 . S
O630 C619 1.251 . S
O631 Eu601 2.374 . S
O631 C619 1.251 1_455 S
H632 C603 0.931 . S
H633 C604 0.931 . S
H634 C606 0.931 . S
H635 C607 0.931 . S
H636 C613 0.931 . S
H637 C614 0.931 . S
H638 C616 0.931 . S
H639 C617 0.931 . S
C640 Eu641 2.835 . S
C640 C642 1.500 . S
C640 O660 1.257 . S
C640 O661 1.260 . S
Eu641 C640 2.835 . S
Eu641 O660 2.473 . S
Eu641 O661 2.480 . S
Eu641 O662 2.430 . S
Eu641 O663 2.670 . S
Eu641 O664 2.394 . S
Eu641 O669 2.355 . S
Eu641 O671 2.374 . S
C642 C640 1.500 . S
C642 C643 1.377 . S
C642 C647 1.377 . S
C643 C642 1.377 . S
C643 C644 1.395 . S
C643 H672 0.931 . S
C644 C643 1.395 . S
C644 C645 1.383 . S
C644 H673 0.931 . S
C645 C644 1.383 . S
C645 C646 1.394 . S
C646 C645 1.394 . S
C646 C647 1.378 . S
C646 H674 0.931 . S
C647 C642 1.377 . S
C647 C646 1.378 . S
C647 H675 0.931 . S
C648 O662 1.259 . S
C648 O663 1.270 . S
C649 O664 1.251 . S
C649 O665 1.251 . S
C650 Eu651 2.835 . S
C650 C652 1.500 . S
C650 O666 1.257 . S
C650 O667 1.260 . S
Eu651 C650 2.835 . S
Eu651 O663 2.355 . S
Eu651 O665 2.374 . S
Eu651 O666 2.473 . S
Eu651 O667 2.480 . S
Eu651 O668 2.430 . S
Eu651 O669 2.670 . S
Eu651 O670 2.394 . S
C652 C650 1.500 . S
C652 C653 1.377 . S
C652 C657 1.377 . S
C653 C652 1.377 . S
C653 C654 1.395 . S
C653 H676 0.931 . S
C654 C653 1.395 . S
C654 C655 1.383 . S
C654 H677 0.931 . S
C655 C654 1.383 . S
C655 C656 1.394 . S
C656 C655 1.394 . S
C656 C657 1.378 . S
C656 H678 0.931 . S
C657 C652 1.377 . S
C657 C656 1.378 . S
C657 H679 0.931 . S
C658 O668 1.259 . S
C658 O669 1.270 . S
C659 O670 1.251 . S
C659 O671 1.251 . S
O660 C640 1.257 . S
O660 Eu641 2.473 . S
O661 C640 1.260 . S
O661 Eu641 2.480 . S
O662 Eu641 2.430 . S
O662 C648 1.259 . S
O663 Eu641 2.670 . S
O663 C648 1.270 . S
O663 Eu651 2.355 . S
O664 Eu641 2.394 . S
O664 C649 1.251 . S
O665 C649 1.251 . S
O665 Eu651 2.374 . S
O666 C650 1.257 . S
O666 Eu651 2.473 . S
O667 C650 1.260 . S
O667 Eu651 2.480 . S
O668 Eu651 2.430 . S
O668 C658 1.259 . S
O669 Eu641 2.355 . S
O669 Eu651 2.670 . S
O669 C658 1.270 . S
O670 Eu651 2.394 . S
O670 C659 1.251 . S
O671 Eu641 2.374 . S
O671 C659 1.251 . S
H672 C643 0.931 . S
H673 C644 0.931 . S
H674 C646 0.931 . S
H675 C647 0.931 . S
H676 C653 0.931 . S
H677 C654 0.931 . S
H678 C656 0.931 . S
H679 C657 0.931 . S
C680 Eu681 2.835 . S
C680 C682 1.500 . S
C680 O700 1.257 . S
C680 O701 1.260 . S
Eu681 C680 2.835 . S
Eu681 O700 2.473 . S
Eu681 O701 2.480 . S
Eu681 O702 2.430 . S
Eu681 O703 2.670 . S
Eu681 O704 2.394 . S
Eu681 O709 2.355 . S
Eu681 O711 2.374 . S
C682 C680 1.500 . S
C682 C683 1.377 . S
C682 C687 1.377 . S
C683 C682 1.377 . S
C683 C684 1.395 . S
C683 H712 0.931 . S
C684 C683 1.395 . S
C684 C685 1.383 . S
C684 H713 0.931 . S
C685 C684 1.383 . S
C685 C686 1.394 . S
C686 C685 1.394 . S
C686 C687 1.378 . S
C686 H714 0.931 . S
C687 C682 1.377 . S
C687 C686 1.378 . S
C687 H715 0.931 . S
C688 O702 1.259 . S
C688 O703 1.270 . S
C689 O704 1.251 . S
C689 O705 1.251 . S
C690 Eu691 2.835 . S
C690 C692 1.500 . S
C690 O706 1.257 . S
C690 O707 1.260 . S
Eu691 C690 2.835 . S
Eu691 O703 2.355 . S
Eu691 O705 2.374 . S
Eu691 O706 2.473 . S
Eu691 O707 2.480 . S
Eu691 O708 2.430 . S
Eu691 O709 2.670 . S
Eu691 O710 2.394 . S
C692 C690 1.500 . S
C692 C693 1.377 . S
C692 C697 1.377 . S
C693 C692 1.377 . S
C693 C694 1.395 . S
C693 H716 0.931 . S
C694 C693 1.395 . S
C694 C695 1.383 . S
C694 H717 0.931 . S
C695 C694 1.383 . S
C695 C696 1.394 . S
C696 C695 1.394 . S
C696 C697 1.378 . S
C696 H718 0.931 . S
C697 C692 1.377 . S
C697 C696 1.378 . S
C697 H719 0.931 . S
C698 O708 1.259 . S
C698 O709 1.270 . S
C699 O710 1.251 . S
C699 O711 1.251 . S
O700 C680 1.257 . S
O700 Eu681 2.473 . S
O701 C680 1.260 . S
O701 Eu681 2.480 . S
O702 Eu681 2.430 . S
O702 C688 1.259 . S
O703 Eu681 2.670 . S
O703 C688 1.270 . S
O703 Eu691 2.355 . S
O704 Eu681 2.394 . S
O704 C689 1.251 . S
O705 C689 1.251 . S
O705 Eu691 2.374 . S
O706 C690 1.257 . S
O706 Eu691 2.473 . S
O707 C690 1.260 . S
O707 Eu691 2.480 . S
O708 Eu691 2.430 . S
O708 C698 1.259 . S
O709 Eu681 2.355 . S
O709 Eu691 2.670 . S
O709 C698 1.270 . S
O710 Eu691 2.394 . S
O710 C699 1.251 . S
O711 Eu681 2.374 . S
O711 C699 1.251 . S
H712 C683 0.931 . S
H713 C684 0.931 . S
H714 C686 0.931 . S
H715 C687 0.931 . S
H716 C693 0.931 . S
H717 C694 0.931 . S
H718 C696 0.931 . S
H719 C697 0.931 . S
C720 Eu721 2.835 . S
C720 C722 1.500 . S
C720 O740 1.257 . S
C720 O741 1.260 . S
Eu721 C720 2.835 . S
Eu721 O740 2.473 . S
Eu721 O741 2.480 . S
Eu721 O742 2.430 . S
Eu721 O743 2.670 . S
Eu721 O744 2.394 . S
Eu721 O749 2.355 . S
Eu721 O751 2.374 . S
C722 C720 1.500 . S
C722 C723 1.377 . S
C722 C727 1.377 . S
C723 C722 1.377 . S
C723 C724 1.395 . S
C723 H752 0.931 . S
C724 C723 1.395 . S
C724 C725 1.383 . S
C724 H753 0.931 . S
C725 C724 1.383 . S
C725 C726 1.394 . S
C726 C725 1.394 . S
C726 C727 1.378 . S
C726 H754 0.931 . S
C727 C722 1.377 . S
C727 C726 1.378 . S
C727 H755 0.931 . S
C728 O742 1.259 . S
C728 O743 1.270 . S
C729 O744 1.251 . S
C729 O745 1.251 . S
C730 Eu731 2.835 . S
C730 C732 1.500 . S
C730 O746 1.257 . S
C730 O747 1.260 . S
Eu731 C730 2.835 . S
Eu731 O743 2.355 . S
Eu731 O745 2.374 . S
Eu731 O746 2.473 . S
Eu731 O747 2.480 . S
Eu731 O748 2.430 . S
Eu731 O749 2.670 . S
Eu731 O750 2.394 . S
C732 C730 1.500 . S
C732 C733 1.377 . S
C732 C737 1.377 . S
C733 C732 1.377 . S
C733 C734 1.395 . S
C733 H756 0.931 . S
C734 C733 1.395 . S
C734 C735 1.383 . S
C734 H757 0.931 . S
C735 C734 1.383 . S
C735 C736 1.394 . S
C736 C735 1.394 . S
C736 C737 1.378 . S
C736 H758 0.931 . S
C737 C732 1.377 . S
C737 C736 1.378 . S
C737 H759 0.931 . S
C738 O748 1.259 . S
C738 O749 1.270 . S
C739 O750 1.251 . S
C739 O751 1.251 . S
O740 C720 1.257 . S
O740 Eu721 2.473 . S
O741 C720 1.260 . S
O741 Eu721 2.480 . S
O742 Eu721 2.430 . S
O742 C728 1.259 . S
O743 Eu721 2.670 . S
O743 C728 1.270 . S
O743 Eu731 2.355 . S
O744 Eu721 2.394 . S
O744 C729 1.251 . S
O745 C729 1.251 . S
O745 Eu731 2.374 . S
O746 C730 1.257 . S
O746 Eu731 2.473 . S
O747 C730 1.260 . S
O747 Eu731 2.480 . S
O748 Eu731 2.430 . S
O748 C738 1.259 . S
O749 Eu721 2.355 . S
O749 Eu731 2.670 . S
O749 C738 1.270 . S
O750 Eu731 2.394 . S
O750 C739 1.251 . S
O751 Eu721 2.374 . S
O751 C739 1.251 . S
H752 C723 0.931 . S
H753 C724 0.931 . S
H754 C726 0.931 . S
H755 C727 0.931 . S
H756 C733 0.931 . S
H757 C734 0.931 . S
H758 C736 0.931 . S
H759 C737 0.931 . S
C760 Eu761 2.835 . S
C760 C762 1.500 . S
C760 O780 1.257 . S
C760 O781 1.260 . S
Eu761 C760 2.835 . S
Eu761 O780 2.473 . S
Eu761 O781 2.480 . S
Eu761 O782 2.430 . S
Eu761 O783 2.670 . S
Eu761 O784 2.394 . S
Eu761 O789 2.355 . S
Eu761 O791 2.374 . S
C762 C760 1.500 . S
C762 C763 1.377 . S
C762 C767 1.377 . S
C763 C762 1.377 . S
C763 C764 1.395 . S
C763 H792 0.931 . S
C764 C763 1.395 . S
C764 C765 1.383 . S
C764 H793 0.931 . S
C765 C764 1.383 . S
C765 C766 1.394 . S
C766 C765 1.394 . S
C766 C767 1.378 . S
C766 H794 0.931 . S
C767 C762 1.377 . S
C767 C766 1.378 . S
C767 H795 0.931 . S
C768 O782 1.259 . S
C768 O783 1.270 . S
C769 O784 1.251 . S
C769 O785 1.251 1_655 S
C770 Eu771 2.835 . S
C770 C772 1.500 . S
C770 O786 1.257 . S
C770 O787 1.260 . S
Eu771 C770 2.835 . S
Eu771 O783 2.355 1_455 S
Eu771 O785 2.374 . S
Eu771 O786 2.473 . S
Eu771 O787 2.480 . S
Eu771 O788 2.430 1_455 S
Eu771 O789 2.670 1_455 S
Eu771 O790 2.394 1_455 S
C772 C770 1.500 . S
C772 C773 1.377 . S
C772 C777 1.377 . S
C773 C772 1.377 . S
C773 C774 1.395 . S
C773 H796 0.931 . S
C774 C773 1.395 . S
C774 C775 1.383 . S
C774 H797 0.931 . S
C775 C774 1.383 . S
C775 C776 1.394 . S
C776 C775 1.394 . S
C776 C777 1.378 . S
C776 H798 0.931 . S
C777 C772 1.377 . S
C777 C776 1.378 . S
C777 H799 0.931 . S
C778 O788 1.259 . S
C778 O789 1.270 . S
C779 O790 1.251 . S
C779 O791 1.251 . S
O780 C760 1.257 . S
O780 Eu761 2.473 . S
O781 C760 1.260 . S
O781 Eu761 2.480 . S
O782 Eu761 2.430 . S
O782 C768 1.259 . S
O783 Eu761 2.670 . S
O783 C768 1.270 . S
O783 Eu771 2.355 1_655 S
O784 Eu761 2.394 . S
O784 C769 1.251 . S
O785 C769 1.251 1_455 S
O785 Eu771 2.374 . S
O786 C770 1.257 . S
O786 Eu771 2.473 . S
O787 C770 1.260 . S
O787 Eu771 2.480 . S
O788 Eu771 2.430 1_655 S
O788 C778 1.259 . S
O789 Eu761 2.355 . S
O789 Eu771 2.670 1_655 S
O789 C778 1.270 . S
O790 Eu771 2.394 1_655 S
O790 C779 1.251 . S
O791 Eu761 2.374 . S
O791 C779 1.251 . S
H792 C763 0.931 . S
H793 C764 0.931 . S
H794 C766 0.931 . S
H795 C767 0.931 . S
H796 C773 0.931 . S
H797 C774 0.931 . S
H798 C776 0.931 . S
H799 C777 0.931 . S
C800 Eu801 2.835 . S
C800 C802 1.500 . S
C800 O820 1.257 . S
C800 O821 1.260 . S
Eu801 C800 2.835 . S
Eu801 O820 2.473 . S
Eu801 O821 2.480 . S
Eu801 O822 2.430 . S
Eu801 O823 2.670 . S
Eu801 O824 2.394 . S
Eu801 O829 2.355 . S
Eu801 O831 2.374 . S
C802 C800 1.500 . S
C802 C803 1.377 . S
C802 C807 1.377 . S
C803 C802 1.377 . S
C803 C804 1.395 . S
C803 H832 0.931 . S
C804 C803 1.395 . S
C804 C805 1.383 . S
C804 H833 0.931 . S
C805 C804 1.383 . S
C805 C806 1.394 . S
C806 C805 1.394 . S
C806 C807 1.378 . S
C806 H834 0.931 . S
C807 C802 1.377 . S
C807 C806 1.378 . S
C807 H835 0.931 . S
C808 O822 1.259 . S
C808 O823 1.270 . S
C809 O824 1.251 . S
C809 O825 1.251 . S
C810 Eu811 2.835 . S
C810 C812 1.500 . S
C810 O826 1.257 . S
C810 O827 1.260 . S
Eu811 C810 2.835 . S
Eu811 O823 2.355 . S
Eu811 O825 2.374 . S
Eu811 O826 2.473 . S
Eu811 O827 2.480 . S
Eu811 O828 2.430 . S
Eu811 O829 2.670 . S
Eu811 O830 2.394 . S
C812 C810 1.500 . S
C812 C813 1.377 . S
C812 C817 1.377 . S
C813 C812 1.377 . S
C813 C814 1.395 . S
C813 H836 0.931 . S
C814 C813 1.395 . S
C814 C815 1.383 . S
C814 H837 0.931 . S
C815 C814 1.383 . S
C815 C816 1.394 . S
C816 C815 1.394 . S
C816 C817 1.378 . S
C816 H838 0.931 . S
C817 C812 1.377 . S
C817 C816 1.378 . S
C817 H839 0.931 . S
C818 O828 1.259 . S
C818 O829 1.270 . S
C819 O830 1.251 . S
C819 O831 1.251 . S
O820 C800 1.257 . S
O820 Eu801 2.473 . S
O821 C800 1.260 . S
O821 Eu801 2.480 . S
O822 Eu801 2.430 . S
O822 C808 1.259 . S
O823 Eu801 2.670 . S
O823 C808 1.270 . S
O823 Eu811 2.355 . S
O824 Eu801 2.394 . S
O824 C809 1.251 . S
O825 C809 1.251 . S
O825 Eu811 2.374 . S
O826 C810 1.257 . S
O826 Eu811 2.473 . S
O827 C810 1.260 . S
O827 Eu811 2.480 . S
O828 Eu811 2.430 . S
O828 C818 1.259 . S
O829 Eu801 2.355 . S
O829 Eu811 2.670 . S
O829 C818 1.270 . S
O830 Eu811 2.394 . S
O830 C819 1.251 . S
O831 Eu801 2.374 . S
O831 C819 1.251 . S
H832 C803 0.931 . S
H833 C804 0.931 . S
H834 C806 0.931 . S
H835 C807 0.931 . S
H836 C813 0.931 . S
H837 C814 0.931 . S
H838 C816 0.931 . S
H839 C817 0.931 . S
C840 Eu841 2.835 . S
C840 C842 1.500 . S
C840 O860 1.257 . S
C840 O861 1.260 . S
Eu841 C840 2.835 . S
Eu841 O860 2.473 . S
Eu841 O861 2.480 . S
Eu841 O862 2.430 . S
Eu841 O863 2.670 . S
Eu841 O864 2.394 . S
Eu841 O869 2.355 . S
Eu841 O871 2.374 . S
C842 C840 1.500 . S
C842 C843 1.377 . S
C842 C847 1.377 . S
C843 C842 1.377 . S
C843 C844 1.395 . S
C843 H872 0.931 . S
C844 C843 1.395 . S
C844 C845 1.383 . S
C844 H873 0.931 . S
C845 C844 1.383 . S
C845 C846 1.394 . S
C846 C845 1.394 . S
C846 C847 1.378 . S
C846 H874 0.931 . S
C847 C842 1.377 . S
C847 C846 1.378 . S
C847 H875 0.931 . S
C848 O862 1.259 . S
C848 O863 1.270 . S
C849 O864 1.251 . S
C849 O865 1.251 1_655 S
C850 Eu851 2.835 . S
C850 C852 1.500 . S
C850 O866 1.257 . S
C850 O867 1.260 . S
Eu851 C850 2.835 . S
Eu851 O863 2.355 1_455 S
Eu851 O865 2.374 . S
Eu851 O866 2.473 . S
Eu851 O867 2.480 . S
Eu851 O868 2.430 1_455 S
Eu851 O869 2.670 1_455 S
Eu851 O870 2.394 1_455 S
C852 C850 1.500 . S
C852 C853 1.377 . S
C852 C857 1.377 . S
C853 C852 1.377 . S
C853 C854 1.395 . S
C853 H876 0.931 . S
C854 C853 1.395 . S
C854 C855 1.383 . S
C854 H877 0.931 . S
C855 C854 1.383 . S
C855 C856 1.394 . S
C856 C855 1.394 . S
C856 C857 1.378 . S
C856 H878 0.931 . S
C857 C852 1.377 . S
C857 C856 1.378 . S
C857 H879 0.931 . S
C858 O868 1.259 . S
C858 O869 1.270 . S
C859 O870 1.251 . S
C859 O871 1.251 . S
O860 C840 1.257 . S
O860 Eu841 2.473 . S
O861 C840 1.260 . S
O861 Eu841 2.480 . S
O862 Eu841 2.430 . S
O862 C848 1.259 . S
O863 Eu841 2.670 . S
O863 C848 1.270 . S
O863 Eu851 2.355 1_655 S
O864 Eu841 2.394 . S
O864 C849 1.251 . S
O865 C849 1.251 1_455 S
O865 Eu851 2.374 . S
O866 C850 1.257 . S
O866 Eu851 2.473 . S
O867 C850 1.260 . S
O867 Eu851 2.480 . S
O868 Eu851 2.430 1_655 S
O868 C858 1.259 . S
O869 Eu841 2.355 . S
O869 Eu851 2.670 1_655 S
O869 C858 1.270 . S
O870 Eu851 2.394 1_655 S
O870 C859 1.251 . S
O871 Eu841 2.374 . S
O871 C859 1.251 . S
H872 C843 0.931 . S
H873 C844 0.931 . S
H874 C846 0.931 . S
H875 C847 0.931 . S
H876 C853 0.931 . S
H877 C854 0.931 . S
H878 C856 0.931 . S
H879 C857 0.931 . S
C880 Eu881 2.835 . S
C880 C882 1.500 . S
C880 O900 1.257 . S
C880 O901 1.260 . S
Eu881 C880 2.835 . S
Eu881 O900 2.473 . S
Eu881 O901 2.480 . S
Eu881 O902 2.430 . S
Eu881 O903 2.670 . S
Eu881 O904 2.394 . S
Eu881 O909 2.355 . S
Eu881 O911 2.374 . S
C882 C880 1.500 . S
C882 C883 1.377 . S
C882 C887 1.377 . S
C883 C882 1.377 . S
C883 C884 1.395 . S
C883 H912 0.931 . S
C884 C883 1.395 . S
C884 C885 1.383 . S
C884 H913 0.931 . S
C885 C884 1.383 . S
C885 C886 1.394 . S
C886 C885 1.394 . S
C886 C887 1.378 . S
C886 H914 0.931 . S
C887 C882 1.377 . S
C887 C886 1.378 . S
C887 H915 0.931 . S
C888 O902 1.259 . S
C888 O903 1.270 . S
C889 O904 1.251 . S
C889 O905 1.251 . S
C890 Eu891 2.835 . S
C890 C892 1.500 . S
C890 O906 1.257 . S
C890 O907 1.260 . S
Eu891 C890 2.835 . S
Eu891 O903 2.355 . S
Eu891 O905 2.374 . S
Eu891 O906 2.473 . S
Eu891 O907 2.480 . S
Eu891 O908 2.430 . S
Eu891 O909 2.670 . S
Eu891 O910 2.394 . S
C892 C890 1.500 . S
C892 C893 1.377 . S
C892 C897 1.377 . S
C893 C892 1.377 . S
C893 C894 1.395 . S
C893 H916 0.931 . S
C894 C893 1.395 . S
C894 C895 1.383 . S
C894 H917 0.931 . S
C895 C894 1.383 . S
C895 C896 1.394 . S
C896 C895 1.394 . S
C896 C897 1.378 . S
C896 H918 0.931 . S
C897 C892 1.377 . S
C897 C896 1.378 . S
C897 H919 0.931 . S
C898 O908 1.259 . S
C898 O909 1.270 . S
C899 O910 1.251 . S
C899 O911 1.251 . S
O900 C880 1.257 . S
O900 Eu881 2.473 . S
O901 C880 1.260 . S
O901 Eu881 2.480 . S
O902 Eu881 2.430 . S
O902 C888 1.259 . S
O903 Eu881 2.670 . S
O903 C888 1.270 . S
O903 Eu891 2.355 . S
O904 Eu881 2.394 . S
O904 C889 1.251 . S
O905 C889 1.251 . S
O905 Eu891 2.374 . S
O906 C890 1.257 . S
O906 Eu891 2.473 . S
O907 C890 1.260 . S
O907 Eu891 2.480 . S
O908 Eu891 2.430 . S
O908 C898 1.259 . S
O909 Eu881 2.355 . S
O909 Eu891 2.670 . S
O909 C898 1.270 . S
O910 Eu891 2.394 . S
O910 C899 1.251 . S
O911 Eu881 2.374 . S
O911 C899 1.251 . S
H912 C883 0.931 . S
H913 C884 0.931 . S
H914 C886 0.931 . S
H915 C887 0.931 . S
H916 C893 0.931 . S
H917 C894 0.931 . S
H918 C896 0.931 . S
H919 C897 0.931 . S
C920 Eu921 2.835 . S
C920 C922 1.500 . S
C920 O940 1.257 . S
C920 O941 1.260 . S
Eu921 C920 2.835 . S
Eu921 O940 2.473 . S
Eu921 O941 2.480 . S
Eu921 O942 2.430 . S
Eu921 O943 2.670 . S
Eu921 O944 2.394 . S
Eu921 O949 2.355 . S
Eu921 O951 2.374 . S
C922 C920 1.500 . S
C922 C923 1.377 . S
C922 C927 1.377 . S
C923 C922 1.377 . S
C923 C924 1.395 . S
C923 H952 0.931 . S
C924 C923 1.395 . S
C924 C925 1.383 . S
C924 H953 0.931 . S
C925 C924 1.383 . S
C925 C926 1.394 . S
C926 C925 1.394 . S
C926 C927 1.378 . S
C926 H954 0.931 . S
C927 C922 1.377 . S
C927 C926 1.378 . S
C927 H955 0.931 . S
C928 O942 1.259 . S
C928 O943 1.270 . S
C929 O944 1.251 . S
C929 O945 1.251 . S
C930 Eu931 2.835 . S
C930 C932 1.500 . S
C930 O946 1.257 . S
C930 O947 1.260 . S
Eu931 C930 2.835 . S
Eu931 O943 2.355 . S
Eu931 O945 2.374 . S
Eu931 O946 2.473 . S
Eu931 O947 2.480 . S
Eu931 O948 2.430 . S
Eu931 O949 2.670 . S
Eu931 O950 2.394 . S
C932 C930 1.500 . S
C932 C933 1.377 . S
C932 C937 1.377 . S
C933 C932 1.377 . S
C933 C934 1.395 . S
C933 H956 0.931 . S
C934 C933 1.395 . S
C934 C935 1.383 . S
C934 H957 0.931 . S
C935 C934 1.383 . S
C935 C936 1.394 . S
C936 C935 1.394 . S
C936 C937 1.378 . S
C936 H958 0.931 . S
C937 C932 1.377 . S
C937 C936 1.378 . S
C937 H959 0.931 . S
C938 O948 1.259 . S
C938 O949 1.270 . S
C939 O950 1.251 . S
C939 O951 1.251 . S
O940 C920 1.257 . S
O940 Eu921 2.473 . S
O941 C920 1.260 . S
O941 Eu921 2.480 . S
O942 Eu921 2.430 . S
O942 C928 1.259 . S
O943 Eu921 2.670 . S
O943 C928 1.270 . S
O943 Eu931 2.355 . S
O944 Eu921 2.394 . S
O944 C929 1.251 . S
O945 C929 1.251 . S
O945 Eu931 2.374 . S
O946 C930 1.257 . S
O946 Eu931 2.473 . S
O947 C930 1.260 . S
O947 Eu931 2.480 . S
O948 Eu931 2.430 . S
O948 C938 1.259 . S
O949 Eu921 2.355 . S
O949 Eu931 2.670 . S
O949 C938 1.270 . S
O950 Eu931 2.394 . S
O950 C939 1.251 . S
O951 Eu921 2.374 . S
O951 C939 1.251 . S
H952 C923 0.931 . S
H953 C924 0.931 . S
H954 C926 0.931 . S
H955 C927 0.931 . S
H956 C933 0.931 . S
H957 C934 0.931 . S
H958 C936 0.931 . S
H959 C937 0.931 . S
C960 Eu961 2.835 . S
C960 C962 1.500 . S
C960 O980 1.257 . S
C960 O981 1.260 . S
Eu961 C960 2.835 . S
Eu961 O980 2.473 . S
Eu961 O981 2.480 . S
Eu961 O982 2.430 . S
Eu961 O983 2.670 . S
Eu961 O984 2.394 . S
Eu961 O989 2.355 . S
Eu961 O991 2.374 . S
C962 C960 1.500 . S
C962 C963 1.377 . S
C962 C967 1.377 . S
C963 C962 1.377 . S
C963 C964 1.395 . S
C963 H992 0.931 . S
C964 C963 1.395 . S
C964 C965 1.383 . S
C964 H993 0.931 . S
C965 C964 1.383 . S
C965 C966 1.394 . S
C966 C965 1.394 . S
C966 C967 1.378 . S
C966 H994 0.931 . S
C967 C962 1.377 . S
C967 C966 1.378 . S
C967 H995 0.931 . S
C968 O982 1.259 . S
C968 O983 1.270 . S
C969 O984 1.251 . S
C969 O985 1.251 . S
C970 Eu971 2.835 . S
C970 C972 1.500 . S
C970 O986 1.257 . S
C970 O987 1.260 . S
Eu971 C970 2.835 . S
Eu971 O983 2.355 . S
Eu971 O985 2.374 . S
Eu971 O986 2.473 . S
Eu971 O987 2.480 . S
Eu971 O988 2.430 . S
Eu971 O989 2.670 . S
Eu971 O990 2.394 . S
C972 C970 1.500 . S
C972 C973 1.377 . S
C972 C977 1.377 . S
C973 C972 1.377 . S
C973 C974 1.395 . S
C973 H996 0.931 . S
C974 C973 1.395 . S
C974 C975 1.383 . S
C974 H997 0.931 . S
C975 C974 1.383 . S
C975 C976 1.394 . S
C976 C975 1.394 . S
C976 C977 1.378 . S
C976 H998 0.931 . S
C977 C972 1.377 . S
C977 C976 1.378 . S
C977 H999 0.931 . S
C978 O988 1.259 . S
C978 O989 1.270 . S
C979 O990 1.251 . S
C979 O991 1.251 . S
O980 C960 1.257 . S
O980 Eu961 2.473 . S
O981 C960 1.260 . S
O981 Eu961 2.480 . S
O982 Eu961 2.430 . S
O982 C968 1.259 . S
O983 Eu961 2.670 . S
O983 C968 1.270 . S
O983 Eu971 2.355 . S
O984 Eu961 2.394 . S
O984 C969 1.251 . S
O985 C969 1.251 . S
O985 Eu971 2.374 . S
O986 C970 1.257 . S
O986 Eu971 2.473 . S
O987 C970 1.260 . S
O987 Eu971 2.480 . S
O988 Eu971 2.430 . S
O988 C978 1.259 . S
O989 Eu961 2.355 . S
O989 Eu971 2.670 . S
O989 C978 1.270 . S
O990 Eu971 2.394 . S
O990 C979 1.251 . S
O991 Eu961 2.374 . S
O991 C979 1.251 . S
H992 C963 0.931 . S
H993 C964 0.931 . S
H994 C966 0.931 . S
H995 C967 0.931 . S
H996 C973 0.931 . S
H997 C974 0.931 . S
H998 C976 0.931 . S
H999 C977 0.931 . S
C1000 Eu1001 2.835 . S
C1000 C1002 1.500 . S
C1000 O1020 1.257 . S
C1000 O1021 1.260 . S
Eu1001 C1000 2.835 . S
Eu1001 O1020 2.473 . S
Eu1001 O1021 2.480 . S
Eu1001 O1022 2.430 . S
Eu1001 O1023 2.670 . S
Eu1001 O1024 2.394 . S
Eu1001 O1029 2.355 . S
Eu1001 O1031 2.374 . S
C1002 C1000 1.500 . S
C1002 C1003 1.377 . S
C1002 C1007 1.377 . S
C1003 C1002 1.377 . S
C1003 C1004 1.395 . S
C1003 H1032 0.931 . S
C1004 C1003 1.395 . S
C1004 C1005 1.383 . S
C1004 H1033 0.931 . S
C1005 C1004 1.383 . S
C1005 C1006 1.394 . S
C1006 C1005 1.394 . S
C1006 C1007 1.378 . S
C1006 H1034 0.931 . S
C1007 C1002 1.377 . S
C1007 C1006 1.378 . S
C1007 H1035 0.931 . S
C1008 O1022 1.259 . S
C1008 O1023 1.270 . S
C1009 O1024 1.251 . S
C1009 O1025 1.251 . S
C1010 Eu1011 2.835 . S
C1010 C1012 1.500 . S
C1010 O1026 1.257 . S
C1010 O1027 1.260 . S
Eu1011 C1010 2.835 . S
Eu1011 O1023 2.355 . S
Eu1011 O1025 2.374 . S
Eu1011 O1026 2.473 . S
Eu1011 O1027 2.480 . S
Eu1011 O1028 2.430 . S
Eu1011 O1029 2.670 . S
Eu1011 O1030 2.394 . S
C1012 C1010 1.500 . S
C1012 C1013 1.377 . S
C1012 C1017 1.377 . S
C1013 C1012 1.377 . S
C1013 C1014 1.395 . S
C1013 H1036 0.931 . S
C1014 C1013 1.395 . S
C1014 C1015 1.383 . S
C1014 H1037 0.931 . S
C1015 C1014 1.383 . S
C1015 C1016 1.394 . S
C1016 C1015 1.394 . S
C1016 C1017 1.378 . S
C1016 H1038 0.931 . S
C1017 C1012 1.377 . S
C1017 C1016 1.378 . S
C1017 H1039 0.931 . S
C1018 O1028 1.259 . S
C1018 O1029 1.270 . S
C1019 O1030 1.251 . S
C1019 O1031 1.251 . S
O1020 C1000 1.257 . S
O1020 Eu1001 2.473 . S
O1021 C1000 1.260 . S
O1021 Eu1001 2.480 . S
O1022 Eu1001 2.430 . S
O1022 C1008 1.259 . S
O1023 Eu1001 2.670 . S
O1023 C1008 1.270 . S
O1023 Eu1011 2.355 . S
O1024 Eu1001 2.394 . S
O1024 C1009 1.251 . S
O1025 C1009 1.251 . S
O1025 Eu1011 2.374 . S
O1026 C1010 1.257 . S
O1026 Eu1011 2.473 . S
O1027 C1010 1.260 . S
O1027 Eu1011 2.480 . S
O1028 Eu1011 2.430 . S
O1028 C1018 1.259 . S
O1029 Eu1001 2.355 . S
O1029 Eu1011 2.670 . S
O1029 C1018 1.270 . S
O1030 Eu1011 2.394 . S
O1030 C1019 1.251 . S
O1031 Eu1001 2.374 . S
O1031 C1019 1.251 . S
H1032 C1003 0.931 . S
H1033 C1004 0.931 . S
H1034 C1006 0.931 . S
H1035 C1007 0.931 . S
H1036 C1013 0.931 . S
H1037 C1014 0.931 . S
H1038 C1016 0.931 . S
H1039 C1017 0.931 . S
C1040 Eu1041 2.835 . S
C1040 C1042 1.500 . S
C1040 O1060 1.257 . S
C1040 O1061 1.260 . S
Eu1041 C1040 2.835 . S
Eu1041 O1060 2.473 . S
Eu1041 O1061 2.480 . S
Eu1041 O1062 2.430 . S
Eu1041 O1063 2.670 . S
Eu1041 O1064 2.394 . S
Eu1041 O1069 2.355 . S
Eu1041 O1071 2.374 . S
C1042 C1040 1.500 . S
C1042 C1043 1.377 . S
C1042 C1047 1.377 . S
C1043 C1042 1.377 . S
C1043 C1044 1.395 . S
C1043 H1072 0.931 . S
C1044 C1043 1.395 . S
C1044 C1045 1.383 . S
C1044 H1073 0.931 . S
C1045 C1044 1.383 . S
C1045 C1046 1.394 . S
C1046 C1045 1.394 . S
C1046 C1047 1.378 . S
C1046 H1074 0.931 . S
C1047 C1042 1.377 . S
C1047 C1046 1.378 . S
C1047 H1075 0.931 . S
C1048 O1062 1.259 . S
C1048 O1063 1.270 . S
C1049 O1064 1.251 . S
C1049 O1065 1.251 . S
C1050 Eu1051 2.835 . S
C1050 C1052 1.500 . S
C1050 O1066 1.257 . S
C1050 O1067 1.260 . S
Eu1051 C1050 2.835 . S
Eu1051 O1063 2.355 . S
Eu1051 O1065 2.374 . S
Eu1051 O1066 2.473 . S
Eu1051 O1067 2.480 . S
Eu1051 O1068 2.430 . S
Eu1051 O1069 2.670 . S
Eu1051 O1070 2.394 . S
C1052 C1050 1.500 . S
C1052 C1053 1.377 . S
C1052 C1057 1.377 . S
C1053 C1052 1.377 . S
C1053 C1054 1.395 . S
C1053 H1076 0.931 . S
C1054 C1053 1.395 . S
C1054 C1055 1.383 . S
C1054 H1077 0.931 . S
C1055 C1054 1.383 . S
C1055 C1056 1.394 . S
C1056 C1055 1.394 . S
C1056 C1057 1.378 . S
C1056 H1078 0.931 . S
C1057 C1052 1.377 . S
C1057 C1056 1.378 . S
C1057 H1079 0.931 . S
C1058 O1068 1.259 . S
C1058 O1069 1.270 . S
C1059 O1070 1.251 . S
C1059 O1071 1.251 . S
O1060 C1040 1.257 . S
O1060 Eu1041 2.473 . S
O1061 C1040 1.260 . S
O1061 Eu1041 2.480 . S
O1062 Eu1041 2.430 . S
O1062 C1048 1.259 . S
O1063 Eu1041 2.670 . S
O1063 C1048 1.270 . S
O1063 Eu1051 2.355 . S
O1064 Eu1041 2.394 . S
O1064 C1049 1.251 . S
O1065 C1049 1.251 . S
O1065 Eu1051 2.374 . S
O1066 C1050 1.257 . S
O1066 Eu1051 2.473 . S
O1067 C1050 1.260 . S
O1067 Eu1051 2.480 . S
O1068 Eu1051 2.430 . S
O1068 C1058 1.259 . S
O1069 Eu1041 2.355 . S
O1069 Eu1051 2.670 . S
O1069 C1058 1.270 . S
O1070 Eu1051 2.394 . S
O1070 C1059 1.251 . S
O1071 Eu1041 2.374 . S
O1071 C1059 1.251 . S
H1072 C1043 0.931 . S
H1073 C1044 0.931 . S
H1074 C1046 0.931 . S
H1075 C1047 0.931 . S
H1076 C1053 0.931 . S
H1077 C1054 0.931 . S
H1078 C1056 0.931 . S
H1079 C1057 0.931 . S
C1080 Eu1081 2.835 . S
C1080 C1082 1.500 . S
C1080 O1100 1.257 . S
C1080 O1101 1.260 . S
Eu1081 C1080 2.835 . S
Eu1081 O1100 2.473 . S
Eu1081 O1101 2.480 . S
Eu1081 O1102 2.430 1_655 S
Eu1081 O1103 2.670 1_655 S
Eu1081 O1104 2.394 1_655 S
Eu1081 O1109 2.355 1_655 S
Eu1081 O1111 2.374 . S
C1082 C1080 1.500 . S
C1082 C1083 1.377 . S
C1082 C1087 1.377 . S
C1083 C1082 1.377 . S
C1083 C1084 1.395 . S
C1083 H1112 0.931 . S
C1084 C1083 1.395 . S
C1084 C1085 1.383 . S
C1084 H1113 0.931 . S
C1085 C1084 1.383 . S
C1085 C1086 1.394 . S
C1086 C1085 1.394 . S
C1086 C1087 1.378 . S
C1086 H1114 0.931 . S
C1087 C1082 1.377 . S
C1087 C1086 1.378 . S
C1087 H1115 0.931 . S
C1088 O1102 1.259 . S
C1088 O1103 1.270 . S
C1089 O1104 1.251 . S
C1089 O1105 1.251 . S
C1090 Eu1091 2.835 . S
C1090 C1092 1.500 . S
C1090 O1106 1.257 . S
C1090 O1107 1.260 . S
Eu1091 C1090 2.835 . S
Eu1091 O1103 2.355 . S
Eu1091 O1105 2.374 . S
Eu1091 O1106 2.473 . S
Eu1091 O1107 2.480 . S
Eu1091 O1108 2.430 . S
Eu1091 O1109 2.670 . S
Eu1091 O1110 2.394 . S
C1092 C1090 1.500 . S
C1092 C1093 1.377 . S
C1092 C1097 1.377 . S
C1093 C1092 1.377 . S
C1093 C1094 1.395 . S
C1093 H1116 0.931 . S
C1094 C1093 1.395 . S
C1094 C1095 1.383 . S
C1094 H1117 0.931 . S
C1095 C1094 1.383 . S
C1095 C1096 1.394 . S
C1096 C1095 1.394 . S
C1096 C1097 1.378 . S
C1096 H1118 0.931 . S
C1097 C1092 1.377 . S
C1097 C1096 1.378 . S
C1097 H1119 0.931 . S
C1098 O1108 1.259 . S
C1098 O1109 1.270 . S
C1099 O1110 1.251 . S
C1099 O1111 1.251 1_455 S
O1100 C1080 1.257 . S
O1100 Eu1081 2.473 . S
O1101 C1080 1.260 . S
O1101 Eu1081 2.480 . S
O1102 Eu1081 2.430 1_455 S
O1102 C1088 1.259 . S
O1103 Eu1081 2.670 1_455 S
O1103 C1088 1.270 . S
O1103 Eu1091 2.355 . S
O1104 Eu1081 2.394 1_455 S
O1104 C1089 1.251 . S
O1105 C1089 1.251 . S
O1105 Eu1091 2.374 . S
O1106 C1090 1.257 . S
O1106 Eu1091 2.473 . S
O1107 C1090 1.260 . S
O1107 Eu1091 2.480 . S
O1108 Eu1091 2.430 . S
O1108 C1098 1.259 . S
O1109 Eu1081 2.355 1_455 S
O1109 Eu1091 2.670 . S
O1109 C1098 1.270 . S
O1110 Eu1091 2.394 . S
O1110 C1099 1.251 . S
O1111 Eu1081 2.374 . S
O1111 C1099 1.251 1_655 S
H1112 C1083 0.931 . S
H1113 C1084 0.931 . S
H1114 C1086 0.931 . S
H1115 C1087 0.931 . S
H1116 C1093 0.931 . S
H1117 C1094 0.931 . S
H1118 C1096 0.931 . S
H1119 C1097 0.931 . S
C1120 Eu1121 2.835 . S
C1120 C1122 1.500 . S
C1120 O1140 1.257 . S
C1120 O1141 1.260 . S
Eu1121 C1120 2.835 . S
Eu1121 O1140 2.473 . S
Eu1121 O1141 2.480 . S
Eu1121 O1142 2.430 . S
Eu1121 O1143 2.670 . S
Eu1121 O1144 2.394 . S
Eu1121 O1149 2.355 . S
Eu1121 O1151 2.374 . S
C1122 C1120 1.500 . S
C1122 C1123 1.377 . S
C1122 C1127 1.377 . S
C1123 C1122 1.377 . S
C1123 C1124 1.395 . S
C1123 H1152 0.931 . S
C1124 C1123 1.395 . S
C1124 C1125 1.383 . S
C1124 H1153 0.931 . S
C1125 C1124 1.383 . S
C1125 C1126 1.394 . S
C1126 C1125 1.394 . S
C1126 C1127 1.378 . S
C1126 H1154 0.931 . S
C1127 C1122 1.377 . S
C1127 C1126 1.378 . S
C1127 H1155 0.931 . S
C1128 O1142 1.259 . S
C1128 O1143 1.270 . S
C1129 O1144 1.251 . S
C1129 O1145 1.251 . S
C1130 Eu1131 2.835 . S
C1130 C1132 1.500 . S
C1130 O1146 1.257 . S
C1130 O1147 1.260 . S
Eu1131 C1130 2.835 . S
Eu1131 O1143 2.355 . S
Eu1131 O1145 2.374 . S
Eu1131 O1146 2.473 . S
Eu1131 O1147 2.480 . S
Eu1131 O1148 2.430 . S
Eu1131 O1149 2.670 . S
Eu1131 O1150 2.394 . S
C1132 C1130 1.500 . S
C1132 C1133 1.377 . S
C1132 C1137 1.377 . S
C1133 C1132 1.377 . S
C1133 C1134 1.395 . S
C1133 H1156 0.931 . S
C1134 C1133 1.395 . S
C1134 C1135 1.383 . S
C1134 H1157 0.931 . S
C1135 C1134 1.383 . S
C1135 C1136 1.394 . S
C1136 C1135 1.394 . S
C1136 C1137 1.378 . S
C1136 H1158 0.931 . S
C1137 C1132 1.377 . S
C1137 C1136 1.378 . S
C1137 H1159 0.931 . S
C1138 O1148 1.259 . S
C1138 O1149 1.270 . S
C1139 O1150 1.251 . S
C1139 O1151 1.251 . S
O1140 C1120 1.257 . S
O1140 Eu1121 2.473 . S
O1141 C1120 1.260 . S
O1141 Eu1121 2.480 . S
O1142 Eu1121 2.430 . S
O1142 C1128 1.259 . S
O1143 Eu1121 2.670 . S
O1143 C1128 1.270 . S
O1143 Eu1131 2.355 . S
O1144 Eu1121 2.394 . S
O1144 C1129 1.251 . S
O1145 C1129 1.251 . S
O1145 Eu1131 2.374 . S
O1146 C1130 1.257 . S
O1146 Eu1131 2.473 . S
O1147 C1130 1.260 . S
O1147 Eu1131 2.480 . S
O1148 Eu1131 2.430 . S
O1148 C1138 1.259 . S
O1149 Eu1121 2.355 . S
O1149 Eu1131 2.670 . S
O1149 C1138 1.270 . S
O1150 Eu1131 2.394 . S
O1150 C1139 1.251 . S
O1151 Eu1121 2.374 . S
O1151 C1139 1.251 . S
H1152 C1123 0.931 . S
H1153 C1124 0.931 . S
H1154 C1126 0.931 . S
H1155 C1127 0.931 . S
H1156 C1133 0.931 . S
H1157 C1134 0.931 . S
H1158 C1136 0.931 . S
H1159 C1137 0.931 . S
C1160 Eu1161 2.835 . S
C1160 C1162 1.500 . S
C1160 O1180 1.257 . S
C1160 O1181 1.260 . S
Eu1161 C1160 2.835 . S
Eu1161 O1180 2.473 . S
Eu1161 O1181 2.480 . S
Eu1161 O1182 2.430 1_655 S
Eu1161 O1183 2.670 1_655 S
Eu1161 O1184 2.394 1_655 S
Eu1161 O1189 2.355 1_655 S
Eu1161 O1191 2.374 . S
C1162 C1160 1.500 . S
C1162 C1163 1.377 . S
C1162 C1167 1.377 . S
C1163 C1162 1.377 . S
C1163 C1164 1.395 . S
C1163 H1192 0.931 . S
C1164 C1163 1.395 . S
C1164 C1165 1.383 . S
C1164 H1193 0.931 . S
C1165 C1164 1.383 . S
C1165 C1166 1.394 . S
C1166 C1165 1.394 . S
C1166 C1167 1.378 . S
C1166 H1194 0.931 . S
C1167 C1162 1.377 . S
C1167 C1166 1.378 . S
C1167 H1195 0.931 . S
C1168 O1182 1.259 . S
C1168 O1183 1.270 . S
C1169 O1184 1.251 . S
C1169 O1185 1.251 . S
C1170 Eu1171 2.835 . S
C1170 C1172 1.500 . S
C1170 O1186 1.257 . S
C1170 O1187 1.260 . S
Eu1171 C1170 2.835 . S
Eu1171 O1183 2.355 . S
Eu1171 O1185 2.374 . S
Eu1171 O1186 2.473 . S
Eu1171 O1187 2.480 . S
Eu1171 O1188 2.430 . S
Eu1171 O1189 2.670 . S
Eu1171 O1190 2.394 . S
C1172 C1170 1.500 . S
C1172 C1173 1.377 . S
C1172 C1177 1.377 . S
C1173 C1172 1.377 . S
C1173 C1174 1.395 . S
C1173 H1196 0.931 . S
C1174 C1173 1.395 . S
C1174 C1175 1.383 . S
C1174 H1197 0.931 . S
C1175 C1174 1.383 . S
C1175 C1176 1.394 . S
C1176 C1175 1.394 . S
C1176 C1177 1.378 . S
C1176 H1198 0.931 . S
C1177 C1172 1.377 . S
C1177 C1176 1.378 . S
C1177 H1199 0.931 . S
C1178 O1188 1.259 . S
C1178 O1189 1.270 . S
C1179 O1190 1.251 . S
C1179 O1191 1.251 1_455 S
O1180 C1160 1.257 . S
O1180 Eu1161 2.473 . S
O1181 C1160 1.260 . S
O1181 Eu1161 2.480 . S
O1182 Eu1161 2.430 1_455 S
O1182 C1168 1.259 . S
O1183 Eu1161 2.670 1_455 S
O1183 C1168 1.270 . S
O1183 Eu1171 2.355 . S
O1184 Eu1161 2.394 1_455 S
O1184 C1169 1.251 . S
O1185 C1169 1.251 . S
O1185 Eu1171 2.374 . S
O1186 C1170 1.257 . S
O1186 Eu1171 2.473 . S
O1187 C1170 1.260 . S
O1187 Eu1171 2.480 . S
O1188 Eu1171 2.430 . S
O1188 C1178 1.259 . S
O1189 Eu1161 2.355 1_455 S
O1189 Eu1171 2.670 . S
O1189 C1178 1.270 . S
O1190 Eu1171 2.394 . S
O1190 C1179 1.251 . S
O1191 Eu1161 2.374 . S
O1191 C1179 1.251 1_655 S
H1192 C1163 0.931 . S
H1193 C1164 0.931 . S
H1194 C1166 0.931 . S
H1195 C1167 0.931 . S
H1196 C1173 0.931 . S
H1197 C1174 0.931 . S
H1198 C1176 0.931 . S
H1199 C1177 0.931 . S
C1200 Eu1201 2.835 . S
C1200 C1202 1.500 . S
C1200 O1220 1.257 . S
C1200 O1221 1.260 . S
Eu1201 C1200 2.835 . S
Eu1201 O1220 2.473 . S
Eu1201 O1221 2.480 . S
Eu1201 O1222 2.430 . S
Eu1201 O1223 2.670 . S
Eu1201 O1224 2.394 . S
Eu1201 O1229 2.355 . S
Eu1201 O1231 2.374 . S
C1202 C1200 1.500 . S
C1202 C1203 1.377 . S
C1202 C1207 1.377 . S
C1203 C1202 1.377 . S
C1203 C1204 1.395 . S
C1203 H1232 0.931 . S
C1204 C1203 1.395 . S
C1204 C1205 1.383 . S
C1204 H1233 0.931 . S
C1205 C1204 1.383 . S
C1205 C1206 1.394 . S
C1206 C1205 1.394 . S
C1206 C1207 1.378 . S
C1206 H1234 0.931 . S
C1207 C1202 1.377 . S
C1207 C1206 1.378 . S
C1207 H1235 0.931 . S
C1208 O1222 1.259 . S
C1208 O1223 1.270 . S
C1209 O1224 1.251 . S
C1209 O1225 1.251 . S
C1210 Eu1211 2.835 . S
C1210 C1212 1.500 . S
C1210 O1226 1.257 . S
C1210 O1227 1.260 . S
Eu1211 C1210 2.835 . S
Eu1211 O1223 2.355 . S
Eu1211 O1225 2.374 . S
Eu1211 O1226 2.473 . S
Eu1211 O1227 2.480 . S
Eu1211 O1228 2.430 . S
Eu1211 O1229 2.670 . S
Eu1211 O1230 2.394 . S
C1212 C1210 1.500 . S
C1212 C1213 1.377 . S
C1212 C1217 1.377 . S
C1213 C1212 1.377 . S
C1213 C1214 1.395 . S
C1213 H1236 0.931 . S
C1214 C1213 1.395 . S
C1214 C1215 1.383 . S
C1214 H1237 0.931 . S
C1215 C1214 1.383 . S
C1215 C1216 1.394 . S
C1216 C1215 1.394 . S
C1216 C1217 1.378 . S
C1216 H1238 0.931 . S
C1217 C1212 1.377 . S
C1217 C1216 1.378 . S
C1217 H1239 0.931 . S
C1218 O1228 1.259 . S
C1218 O1229 1.270 . S
C1219 O1230 1.251 . S
C1219 O1231 1.251 . S
O1220 C1200 1.257 . S
O1220 Eu1201 2.473 . S
O1221 C1200 1.260 . S
O1221 Eu1201 2.480 . S
O1222 Eu1201 2.430 . S
O1222 C1208 1.259 . S
O1223 Eu1201 2.670 . S
O1223 C1208 1.270 . S
O1223 Eu1211 2.355 . S
O1224 Eu1201 2.394 . S
O1224 C1209 1.251 . S
O1225 C1209 1.251 . S
O1225 Eu1211 2.374 . S
O1226 C1210 1.257 . S
O1226 Eu1211 2.473 . S
O1227 C1210 1.260 . S
O1227 Eu1211 2.480 . S
O1228 Eu1211 2.430 . S
O1228 C1218 1.259 . S
O1229 Eu1201 2.355 . S
O1229 Eu1211 2.670 . S
O1229 C1218 1.270 . S
O1230 Eu1211 2.394 . S
O1230 C1219 1.251 . S
O1231 Eu1201 2.374 . S
O1231 C1219 1.251 . S
H1232 C1203 0.931 . S
H1233 C1204 0.931 . S
H1234 C1206 0.931 . S
H1235 C1207 0.931 . S
H1236 C1213 0.931 . S
H1237 C1214 0.931 . S
H1238 C1216 0.931 . S
H1239 C1217 0.931 . S
C1240 Eu1241 2.835 . S
C1240 C1242 1.500 . S
C1240 O1260 1.257 . S
C1240 O1261 1.260 . S
Eu1241 C1240 2.835 . S
Eu1241 O1260 2.473 . S
Eu1241 O1261 2.480 . S
Eu1241 O1262 2.430 . S
Eu1241 O1263 2.670 . S
Eu1241 O1264 2.394 . S
Eu1241 O1269 2.355 . S
Eu1241 O1271 2.374 . S
C1242 C1240 1.500 . S
C1242 C1243 1.377 . S
C1242 C1247 1.377 . S
C1243 C1242 1.377 . S
C1243 C1244 1.395 . S
C1243 H1272 0.931 . S
C1244 C1243 1.395 . S
C1244 C1245 1.383 . S
C1244 H1273 0.931 . S
C1245 C1244 1.383 . S
C1245 C1246 1.394 . S
C1246 C1245 1.394 . S
C1246 C1247 1.378 . S
C1246 H1274 0.931 . S
C1247 C1242 1.377 . S
C1247 C1246 1.378 . S
C1247 H1275 0.931 . S
C1248 O1262 1.259 . S
C1248 O1263 1.270 . S
C1249 O1264 1.251 . S
C1249 O1265 1.251 . S
C1250 Eu1251 2.835 . S
C1250 C1252 1.500 . S
C1250 O1266 1.257 . S
C1250 O1267 1.260 . S
Eu1251 C1250 2.835 . S
Eu1251 O1263 2.355 . S
Eu1251 O1265 2.374 . S
Eu1251 O1266 2.473 . S
Eu1251 O1267 2.480 . S
Eu1251 O1268 2.430 . S
Eu1251 O1269 2.670 . S
Eu1251 O1270 2.394 . S
C1252 C1250 1.500 . S
C1252 C1253 1.377 . S
C1252 C1257 1.377 . S
C1253 C1252 1.377 . S
C1253 C1254 1.395 . S
C1253 H1276 0.931 . S
C1254 C1253 1.395 . S
C1254 C1255 1.383 . S
C1254 H1277 0.931 . S
C1255 C1254 1.383 . S
C1255 C1256 1.394 . S
C1256 C1255 1.394 . S
C1256 C1257 1.378 . S
C1256 H1278 0.931 . S
C1257 C1252 1.377 . S
C1257 C1256 1.378 . S
C1257 H1279 0.931 . S
C1258 O1268 1.259 . S
C1258 O1269 1.270 . S
C1259 O1270 1.251 . S
C1259 O1271 1.251 . S
O1260 C1240 1.257 . S
O1260 Eu1241 2.473 . S
O1261 C1240 1.260 . S
O1261 Eu1241 2.480 . S
O1262 Eu1241 2.430 . S
O1262 C1248 1.259 . S
O1263 Eu1241 2.670 . S
O1263 C1248 1.270 . S
O1263 Eu1251 2.355 . S
O1264 Eu1241 2.394 . S
O1264 C1249 1.251 . S
O1265 C1249 1.251 . S
O1265 Eu1251 2.374 . S
O1266 C1250 1.257 . S
O1266 Eu1251 2.473 . S
O1267 C1250 1.260 . S
O1267 Eu1251 2.480 . S
O1268 Eu1251 2.430 . S
O1268 C1258 1.259 . S
O1269 Eu1241 2.355 . S
O1269 Eu1251 2.670 . S
O1269 C1258 1.270 . S
O1270 Eu1251 2.394 . S
O1270 C1259 1.251 . S
O1271 Eu1241 2.374 . S
O1271 C1259 1.251 . S
H1272 C1243 0.931 . S
H1273 C1244 0.931 . S
H1274 C1246 0.931 . S
H1275 C1247 0.931 . S
H1276 C1253 0.931 . S
H1277 C1254 0.931 . S
H1278 C1256 0.931 . S
H1279 C1257 0.931 . S
C1280 C1281 1.363 . S
C1280 C1286 1.379 . S
C1280 N1288 1.356 . S
C1281 C1280 1.363 . S
C1281 C1287 1.363 . S
C1282 C1283 1.363 . S
C1282 C1287 1.379 . S
C1282 N1289 1.356 . S
C1283 C1282 1.363 . S
C1283 C1286 1.363 . S
N1284 C1286 1.356 . S
N1284 H1296 0.984 . S
N1284 H1297 0.985 . S
N1285 C1287 1.356 . S
N1285 H1290 0.984 . S
N1285 H1291 0.985 . S
C1286 C1280 1.379 . S
C1286 C1283 1.363 . S
C1286 N1284 1.356 . S
C1287 C1281 1.363 . S
C1287 C1282 1.379 . S
C1287 N1285 1.356 . S
N1288 C1280 1.356 . S
N1288 H1294 0.984 . S
N1288 H1295 0.984 . S
N1289 C1282 1.356 . S
N1289 H1292 0.984 . S
N1289 H1293 0.985 . S
H1290 N1285 0.984 . S
H1291 N1285 0.985 . S
H1292 N1289 0.984 . S
H1293 N1289 0.985 . S
H1294 N1288 0.984 . S
H1295 N1288 0.984 . S
H1296 N1284 0.984 . S
H1297 N1284 0.985 . S
C1298 C1299 1.363 . S
C1298 C1304 1.379 . S
C1298 N1306 1.356 . S
C1299 C1298 1.363 . S
C1299 C1305 1.363 . S
C1300 C1301 1.363 . S
C1300 C1305 1.379 . S
C1300 N1307 1.356 . S
C1301 C1300 1.363 . S
C1301 C1304 1.363 . S
N1302 C1304 1.356 . S
N1302 H1314 0.984 . S
N1302 H1315 0.985 . S
N1303 C1305 1.356 . S
N1303 H1308 0.984 . S
N1303 H1309 0.985 . S
C1304 C1298 1.379 . S
C1304 C1301 1.363 . S
C1304 N1302 1.356 . S
C1305 C1299 1.363 . S
C1305 C1300 1.379 . S
C1305 N1303 1.356 . S
N1306 C1298 1.356 . S
N1306 H1312 0.984 . S
N1306 H1313 0.984 . S
N1307 C1300 1.356 . S
N1307 H1310 0.984 . S
N1307 H1311 0.985 . S
H1308 N1303 0.984 . S
H1309 N1303 0.985 . S
H1310 N1307 0.984 . S
H1311 N1307 0.985 . S
H1312 N1306 0.984 . S
H1313 N1306 0.984 . S
H1314 N1302 0.984 . S
H1315 N1302 0.985 . S
C1316 C1317 1.363 . S
C1316 C1322 1.379 . S
C1316 N1324 1.356 . S
C1317 C1316 1.363 . S
C1317 C1323 1.363 . S
C1318 C1319 1.363 . S
C1318 C1323 1.379 . S
C1318 N1325 1.356 . S
C1319 C1318 1.363 . S
C1319 C1322 1.363 . S
N1320 C1322 1.356 . S
N1320 H1332 0.984 . S
N1320 H1333 0.985 . S
N1321 C1323 1.356 . S
N1321 H1326 0.984 . S
N1321 H1327 0.985 . S
C1322 C1316 1.379 . S
C1322 C1319 1.363 . S
C1322 N1320 1.356 . S
C1323 C1317 1.363 . S
C1323 C1318 1.379 . S
C1323 N1321 1.356 . S
N1324 C1316 1.356 . S
N1324 H1330 0.984 . S
N1324 H1331 0.984 . S
N1325 C1318 1.356 . S
N1325 H1328 0.984 . S
N1325 H1329 0.985 . S
H1326 N1321 0.984 . S
H1327 N1321 0.985 . S
H1328 N1325 0.984 . S
H1329 N1325 0.985 . S
H1330 N1324 0.984 . S
H1331 N1324 0.984 . S
H1332 N1320 0.984 . S
H1333 N1320 0.985 . S
C1334 C1335 1.363 . S
C1334 C1340 1.379 . S
C1334 N1342 1.356 . S
C1335 C1334 1.363 . S
C1335 C1341 1.363 . S
C1336 C1337 1.363 . S
C1336 C1341 1.379 . S
C1336 N1343 1.356 . S
C1337 C1336 1.363 . S
C1337 C1340 1.363 . S
N1338 C1340 1.356 . S
N1338 H1350 0.984 . S
N1338 H1351 0.985 . S
N1339 C1341 1.356 . S
N1339 H1344 0.984 . S
N1339 H1345 0.985 . S
C1340 C1334 1.379 . S
C1340 C1337 1.363 . S
C1340 N1338 1.356 . S
C1341 C1335 1.363 . S
C1341 C1336 1.379 . S
C1341 N1339 1.356 . S
N1342 C1334 1.356 . S
N1342 H1348 0.984 . S
N1342 H1349 0.984 . S
N1343 C1336 1.356 . S
N1343 H1346 0.984 . S
N1343 H1347 0.985 . S
H1344 N1339 0.984 . S
H1345 N1339 0.985 . S
H1346 N1343 0.984 . S
H1347 N1343 0.985 . S
H1348 N1342 0.984 . S
H1349 N1342 0.984 . S
H1350 N1338 0.984 . S
H1351 N1338 0.985 . S
C1352 C1353 1.363 . S
C1352 C1358 1.379 . S
C1352 N1360 1.356 . S
C1353 C1352 1.363 . S
C1353 C1359 1.363 . S
C1354 C1355 1.363 . S
C1354 C1359 1.379 . S
C1354 N1361 1.356 . S
C1355 C1354 1.363 . S
C1355 C1358 1.363 . S
N1356 C1358 1.356 . S
N1356 H1368 0.984 . S
N1356 H1369 0.985 . S
N1357 C1359 1.356 . S
N1357 H1362 0.984 . S
N1357 H1363 0.985 . S
C1358 C1352 1.379 . S
C1358 C1355 1.363 . S
C1358 N1356 1.356 . S
C1359 C1353 1.363 . S
C1359 C1354 1.379 . S
C1359 N1357 1.356 . S
N1360 C1352 1.356 . S
N1360 H1366 0.984 . S
N1360 H1367 0.984 . S
N1361 C1354 1.356 . S
N1361 H1364 0.984 . S
N1361 H1365 0.985 . S
H1362 N1357 0.984 . S
H1363 N1357 0.985 . S
H1364 N1361 0.984 . S
H1365 N1361 0.985 . S
H1366 N1360 0.984 . S
H1367 N1360 0.984 . S
H1368 N1356 0.984 . S
H1369 N1356 0.985 . S
C1370 C1371 1.363 . S
C1370 C1376 1.379 . S
C1370 N1378 1.356 . S
C1371 C1370 1.363 . S
C1371 C1377 1.363 . S
C1372 C1373 1.363 . S
C1372 C1377 1.379 . S
C1372 N1379 1.356 . S
C1373 C1372 1.363 . S
C1373 C1376 1.363 . S
N1374 C1376 1.356 . S
N1374 H1386 0.984 . S
N1374 H1387 0.985 . S
N1375 C1377 1.356 . S
N1375 H1380 0.984 . S
N1375 H1381 0.985 . S
C1376 C1370 1.379 . S
C1376 C1373 1.363 . S
C1376 N1374 1.356 . S
C1377 C1371 1.363 . S
C1377 C1372 1.379 . S
C1377 N1375 1.356 . S
N1378 C1370 1.356 . S
N1378 H1384 0.984 . S
N1378 H1385 0.984 . S
N1379 C1372 1.356 . S
N1379 H1382 0.984 . S
N1379 H1383 0.985 . S
H1380 N1375 0.984 . S
H1381 N1375 0.985 . S
H1382 N1379 0.984 . S
H1383 N1379 0.985 . S
H1384 N1378 0.984 . S
H1385 N1378 0.984 . S
H1386 N1374 0.984 . S
H1387 N1374 0.985 . S
C1388 C1389 1.363 . S
C1388 C1394 1.379 . S
C1388 N1396 1.356 . S
C1389 C1388 1.363 . S
C1389 C1395 1.363 . S
C1390 C1391 1.363 . S
C1390 C1395 1.379 . S
C1390 N1397 1.356 . S
C1391 C1390 1.363 . S
C1391 C1394 1.363 . S
N1392 C1394 1.356 . S
N1392 H1404 0.984 . S
N1392 H1405 0.985 . S
N1393 C1395 1.356 . S
N1393 H1398 0.984 . S
N1393 H1399 0.985 . S
C1394 C1388 1.379 . S
C1394 C1391 1.363 . S
C1394 N1392 1.356 . S
C1395 C1389 1.363 . S
C1395 C1390 1.379 . S
C1395 N1393 1.356 . S
N1396 C1388 1.356 . S
N1396 H1402 0.984 . S
N1396 H1403 0.984 . S
N1397 C1390 1.356 . S
N1397 H1400 0.984 . S
N1397 H1401 0.985 . S
H1398 N1393 0.984 . S
H1399 N1393 0.985 . S
H1400 N1397 0.984 . S
H1401 N1397 0.985 . S
H1402 N1396 0.984 . S
H1403 N1396 0.984 . S
H1404 N1392 0.984 . S
H1405 N1392 0.985 . S
C1406 C1407 1.363 . S
C1406 C1412 1.379 . S
C1406 N1414 1.356 . S
C1407 C1406 1.363 . S
C1407 C1413 1.363 . S
C1408 C1409 1.363 . S
C1408 C1413 1.379 . S
C1408 N1415 1.356 . S
C1409 C1408 1.363 . S
C1409 C1412 1.363 . S
N1410 C1412 1.356 . S
N1410 H1422 0.984 . S
N1410 H1423 0.985 . S
N1411 C1413 1.356 . S
N1411 H1416 0.984 . S
N1411 H1417 0.985 . S
C1412 C1406 1.379 . S
C1412 C1409 1.363 . S
C1412 N1410 1.356 . S
C1413 C1407 1.363 . S
C1413 C1408 1.379 . S
C1413 N1411 1.356 . S
N1414 C1406 1.356 . S
N1414 H1420 0.984 . S
N1414 H1421 0.984 . S
N1415 C1408 1.356 . S
N1415 H1418 0.984 . S
N1415 H1419 0.985 . S
H1416 N1411 0.984 . S
H1417 N1411 0.985 . S
H1418 N1415 0.984 . S
H1419 N1415 0.985 . S
H1420 N1414 0.984 . S
H1421 N1414 0.984 . S
H1422 N1410 0.984 . S
H1423 N1410 0.985 . S
C1424 C1425 1.363 . S
C1424 C1430 1.379 . S
C1424 N1432 1.356 . S
C1425 C1424 1.363 . S
C1425 C1431 1.363 . S
C1426 C1427 1.363 . S
C1426 C1431 1.379 . S
C1426 N1433 1.356 . S
C1427 C1426 1.363 . S
C1427 C1430 1.363 . S
N1428 C1430 1.356 . S
N1428 H1440 0.984 . S
N1428 H1441 0.985 . S
N1429 C1431 1.356 . S
N1429 H1434 0.984 . S
N1429 H1435 0.985 . S
C1430 C1424 1.379 . S
C1430 C1427 1.363 . S
C1430 N1428 1.356 . S
C1431 C1425 1.363 . S
C1431 C1426 1.379 . S
C1431 N1429 1.356 . S
N1432 C1424 1.356 . S
N1432 H1438 0.984 . S
N1432 H1439 0.984 . S
N1433 C1426 1.356 . S
N1433 H1436 0.984 . S
N1433 H1437 0.985 . S
H1434 N1429 0.984 . S
H1435 N1429 0.985 . S
H1436 N1433 0.984 . S
H1437 N1433 0.985 . S
H1438 N1432 0.984 . S
H1439 N1432 0.984 . S
H1440 N1428 0.984 . S
H1441 N1428 0.985 . S
C1442 C1443 1.363 . S
C1442 C1448 1.379 . S
C1442 N1450 1.356 . S
C1443 C1442 1.363 . S
C1443 C1449 1.363 . S
C1444 C1445 1.363 . S
C1444 C1449 1.379 . S
C1444 N1451 1.356 . S
C1445 C1444 1.363 . S
C1445 C1448 1.363 . S
N1446 C1448 1.356 . S
N1446 H1458 0.984 . S
N1446 H1459 0.985 . S
N1447 C1449 1.356 . S
N1447 H1452 0.984 . S
N1447 H1453 0.985 . S
C1448 C1442 1.379 . S
C1448 C1445 1.363 . S
C1448 N1446 1.356 . S
C1449 C1443 1.363 . S
C1449 C1444 1.379 . S
C1449 N1447 1.356 . S
N1450 C1442 1.356 . S
N1450 H1456 0.984 . S
N1450 H1457 0.984 . S
N1451 C1444 1.356 . S
N1451 H1454 0.984 . S
N1451 H1455 0.985 . S
H1452 N1447 0.984 . S
H1453 N1447 0.985 . S
H1454 N1451 0.984 . S
H1455 N1451 0.985 . S
H1456 N1450 0.984 . S
H1457 N1450 0.984 . S
H1458 N1446 0.984 . S
H1459 N1446 0.985 . S
C1460 C1461 1.363 . S
C1460 C1466 1.379 . S
C1460 N1468 1.356 . S
C1461 C1460 1.363 . S
C1461 C1467 1.363 . S
C1462 C1463 1.363 . S
C1462 C1467 1.379 . S
C1462 N1469 1.356 . S
C1463 C1462 1.363 . S
C1463 C1466 1.363 . S
N1464 C1466 1.356 . S
N1464 H1476 0.984 . S
N1464 H1477 0.985 . S
N1465 C1467 1.356 . S
N1465 H1470 0.984 . S
N1465 H1471 0.985 . S
C1466 C1460 1.379 . S
C1466 C1463 1.363 . S
C1466 N1464 1.356 . S
C1467 C1461 1.363 . S
C1467 C1462 1.379 . S
C1467 N1465 1.356 . S
N1468 C1460 1.356 . S
N1468 H1474 0.984 . S
N1468 H1475 0.984 . S
N1469 C1462 1.356 . S
N1469 H1472 0.984 . S
N1469 H1473 0.985 . S
H1470 N1465 0.984 . S
H1471 N1465 0.985 . S
H1472 N1469 0.984 . S
H1473 N1469 0.985 . S
H1474 N1468 0.984 . S
H1475 N1468 0.984 . S
H1476 N1464 0.984 . S
H1477 N1464 0.985 . S
C1478 C1479 1.363 . S
C1478 C1484 1.379 . S
C1478 N1486 1.356 . S
C1479 C1478 1.363 . S
C1479 C1485 1.363 . S
C1480 C1481 1.363 . S
C1480 C1485 1.379 . S
C1480 N1487 1.356 . S
C1481 C1480 1.363 . S
C1481 C1484 1.363 . S
N1482 C1484 1.356 . S
N1482 H1494 0.984 . S
N1482 H1495 0.985 . S
N1483 C1485 1.356 . S
N1483 H1488 0.984 . S
N1483 H1489 0.985 . S
C1484 C1478 1.379 . S
C1484 C1481 1.363 . S
C1484 N1482 1.356 . S
C1485 C1479 1.363 . S
C1485 C1480 1.379 . S
C1485 N1483 1.356 . S
N1486 C1478 1.356 . S
N1486 H1492 0.984 . S
N1486 H1493 0.984 . S
N1487 C1480 1.356 . S
N1487 H1490 0.984 . S
N1487 H1491 0.985 . S
H1488 N1483 0.984 . S
H1489 N1483 0.985 . S
H1490 N1487 0.984 . S
H1491 N1487 0.985 . S
H1492 N1486 0.984 . S
H1493 N1486 0.984 . S
H1494 N1482 0.984 . S
H1495 N1482 0.985 . S
C1496 C1497 1.363 . S
C1496 C1502 1.379 . S
C1496 N1504 1.356 . S
C1497 C1496 1.363 . S
C1497 C1503 1.363 . S
C1498 C1499 1.363 . S
C1498 C1503 1.379 . S
C1498 N1505 1.356 . S
C1499 C1498 1.363 . S
C1499 C1502 1.363 . S
N1500 C1502 1.356 . S
N1500 H1512 0.984 . S
N1500 H1513 0.985 . S
N1501 C1503 1.356 . S
N1501 H1506 0.984 . S
N1501 H1507 0.985 . S
C1502 C1496 1.379 . S
C1502 C1499 1.363 . S
C1502 N1500 1.356 . S
C1503 C1497 1.363 . S
C1503 C1498 1.379 . S
C1503 N1501 1.356 . S
N1504 C1496 1.356 . S
N1504 H1510 0.984 . S
N1504 H1511 0.984 . S
N1505 C1498 1.356 . S
N1505 H1508 0.984 . S
N1505 H1509 0.985 . S
H1506 N1501 0.984 . S
H1507 N1501 0.985 . S
H1508 N1505 0.984 . S
H1509 N1505 0.985 . S
H1510 N1504 0.984 . S
H1511 N1504 0.984 . S
H1512 N1500 0.984 . S
H1513 N1500 0.985 . S
C1514 C1515 1.363 . S
C1514 C1520 1.379 . S
C1514 N1522 1.356 . S
C1515 C1514 1.363 . S
C1515 C1521 1.363 . S
C1516 C1517 1.363 . S
C1516 C1521 1.379 . S
C1516 N1523 1.356 . S
C1517 C1516 1.363 . S
C1517 C1520 1.363 . S
N1518 C1520 1.356 . S
N1518 H1530 0.984 . S
N1518 H1531 0.985 . S
N1519 C1521 1.356 . S
N1519 H1524 0.984 . S
N1519 H1525 0.985 . S
C1520 C1514 1.379 . S
C1520 C1517 1.363 . S
C1520 N1518 1.356 . S
C1521 C1515 1.363 . S
C1521 C1516 1.379 . S
C1521 N1519 1.356 . S
N1522 C1514 1.356 . S
N1522 H1528 0.984 . S
N1522 H1529 0.984 . S
N1523 C1516 1.356 . S
N1523 H1526 0.984 . S
N1523 H1527 0.985 . S
H1524 N1519 0.984 . S
H1525 N1519 0.985 . S
H1526 N1523 0.984 . S
H1527 N1523 0.985 . S
H1528 N1522 0.984 . S
H1529 N1522 0.984 . S
H1530 N1518 0.984 . S
H1531 N1518 0.985 . S
C1532 C1533 1.363 . S
C1532 C1538 1.379 . S
C1532 N1540 1.356 . S
C1533 C1532 1.363 . S
C1533 C1539 1.363 . S
C1534 C1535 1.363 . S
C1534 C1539 1.379 . S
C1534 N1541 1.356 . S
C1535 C1534 1.363 . S
C1535 C1538 1.363 . S
N1536 C1538 1.356 . S
N1536 H1548 0.984 . S
N1536 H1549 0.985 . S
N1537 C1539 1.356 . S
N1537 H1542 0.984 . S
N1537 H1543 0.985 . S
C1538 C1532 1.379 . S
C1538 C1535 1.363 . S
C1538 N1536 1.356 . S
C1539 C1533 1.363 . S
C1539 C1534 1.379 . S
C1539 N1537 1.356 . S
N1540 C1532 1.356 . S
N1540 H1546 0.984 . S
N1540 H1547 0.984 . S
N1541 C1534 1.356 . S
N1541 H1544 0.984 . S
N1541 H1545 0.985 . S
H1542 N1537 0.984 . S
H1543 N1537 0.985 . S
H1544 N1541 0.984 . S
H1545 N1541 0.985 . S
H1546 N1540 0.984 . S
H1547 N1540 0.984 . S
H1548 N1536 0.984 . S
H1549 N1536 0.985 . S
C1550 C1551 1.363 . S
C1550 C1556 1.379 . S
C1550 N1558 1.356 . S
C1551 C1550 1.363 . S
C1551 C1557 1.363 . S
C1552 C1553 1.363 . S
C1552 C1557 1.379 . S
C1552 N1559 1.356 . S
C1553 C1552 1.363 . S
C1553 C1556 1.363 . S
N1554 C1556 1.356 . S
N1554 H1566 0.984 . S
N1554 H1567 0.985 . S
N1555 C1557 1.356 . S
N1555 H1560 0.984 . S
N1555 H1561 0.985 . S
C1556 C1550 1.379 . S
C1556 C1553 1.363 . S
C1556 N1554 1.356 . S
C1557 C1551 1.363 . S
C1557 C1552 1.379 . S
C1557 N1555 1.356 . S
N1558 C1550 1.356 . S
N1558 H1564 0.984 . S
N1558 H1565 0.984 . S
N1559 C1552 1.356 . S
N1559 H1562 0.984 . S
N1559 H1563 0.985 . S
H1560 N1555 0.984 . S
H1561 N1555 0.985 . S
H1562 N1559 0.984 . S
H1563 N1559 0.985 . S
H1564 N1558 0.984 . S
H1565 N1558 0.984 . S
H1566 N1554 0.984 . S
H1567 N1554 0.985 . S
C1568 C1569 1.363 . S
C1568 C1574 1.379 . S
C1568 N1576 1.356 . S
C1569 C1568 1.363 . S
C1569 C1575 1.363 . S
C1570 C1571 1.363 . S
C1570 C1575 1.379 . S
C1570 N1577 1.356 . S
C1571 C1570 1.363 . S
C1571 C1574 1.363 . S
N1572 C1574 1.356 . S
N1572 H1584 0.984 . S
N1572 H1585 0.985 . S
N1573 C1575 1.356 . S
N1573 H1578 0.984 . S
N1573 H1579 0.985 . S
C1574 C1568 1.379 . S
C1574 C1571 1.363 . S
C1574 N1572 1.356 . S
C1575 C1569 1.363 . S
C1575 C1570 1.379 . S
C1575 N1573 1.356 . S
N1576 C1568 1.356 . S
N1576 H1582 0.984 . S
N1576 H1583 0.984 . S
N1577 C1570 1.356 . S
N1577 H1580 0.984 . S
N1577 H1581 0.985 . S
H1578 N1573 0.984 . S
H1579 N1573 0.985 . S
H1580 N1577 0.984 . S
H1581 N1577 0.985 . S
H1582 N1576 0.984 . S
H1583 N1576 0.984 . S
H1584 N1572 0.984 . S
H1585 N1572 0.985 . S
C1586 C1587 1.363 . S
C1586 C1592 1.379 . S
C1586 N1594 1.356 . S
C1587 C1586 1.363 . S
C1587 C1593 1.363 . S
C1588 C1589 1.363 . S
C1588 C1593 1.379 . S
C1588 N1595 1.356 . S
C1589 C1588 1.363 . S
C1589 C1592 1.363 . S
N1590 C1592 1.356 . S
N1590 H1602 0.984 . S
N1590 H1603 0.985 . S
N1591 C1593 1.356 . S
N1591 H1596 0.984 . S
N1591 H1597 0.985 . S
C1592 C1586 1.379 . S
C1592 C1589 1.363 . S
C1592 N1590 1.356 . S
C1593 C1587 1.363 . S
C1593 C1588 1.379 . S
C1593 N1591 1.356 . S
N1594 C1586 1.356 . S
N1594 H1600 0.984 . S
N1594 H1601 0.984 . S
N1595 C1588 1.356 . S
N1595 H1598 0.984 . S
N1595 H1599 0.985 . S
H1596 N1591 0.984 . S
H1597 N1591 0.985 . S
H1598 N1595 0.984 . S
H1599 N1595 0.985 . S
H1600 N1594 0.984 . S
H1601 N1594 0.984 . S
H1602 N1590 0.984 . S
H1603 N1590 0.985 . S
C1604 C1605 1.363 . S
C1604 C1610 1.379 . S
C1604 N1612 1.356 . S
C1605 C1604 1.363 . S
C1605 C1611 1.363 . S
C1606 C1607 1.363 . S
C1606 C1611 1.379 . S
C1606 N1613 1.356 . S
C1607 C1606 1.363 . S
C1607 C1610 1.363 . S
N1608 C1610 1.356 . S
N1608 H1620 0.984 . S
N1608 H1621 0.985 . S
N1609 C1611 1.356 . S
N1609 H1614 0.984 . S
N1609 H1615 0.985 1_545 S
C1610 C1604 1.379 . S
C1610 C1607 1.363 . S
C1610 N1608 1.356 . S
C1611 C1605 1.363 . S
C1611 C1606 1.379 . S
C1611 N1609 1.356 . S
N1612 C1604 1.356 . S
N1612 H1618 0.984 . S
N1612 H1619 0.984 . S
N1613 C1606 1.356 . S
N1613 H1616 0.984 . S
N1613 H1617 0.985 . S
H1614 N1609 0.984 . S
H1615 N1609 0.985 1_565 S
H1616 N1613 0.984 . S
H1617 N1613 0.985 . S
H1618 N1612 0.984 . S
H1619 N1612 0.984 . S
H1620 N1608 0.984 . S
H1621 N1608 0.985 . S
C1622 C1623 1.363 . S
C1622 C1628 1.379 . S
C1622 N1630 1.356 . S
C1623 C1622 1.363 . S
C1623 C1629 1.363 . S
C1624 C1625 1.363 . S
C1624 C1629 1.379 . S
C1624 N1631 1.356 . S
C1625 C1624 1.363 . S
C1625 C1628 1.363 . S
N1626 C1628 1.356 . S
N1626 H1638 0.984 . S
N1626 H1639 0.985 . S
N1627 C1629 1.356 . S
N1627 H1632 0.984 . S
N1627 H1633 0.985 . S
C1628 C1622 1.379 . S
C1628 C1625 1.363 . S
C1628 N1626 1.356 . S
C1629 C1623 1.363 . S
C1629 C1624 1.379 . S
C1629 N1627 1.356 . S
N1630 C1622 1.356 . S
N1630 H1636 0.984 . S
N1630 H1637 0.984 . S
N1631 C1624 1.356 . S
N1631 H1634 0.984 . S
N1631 H1635 0.985 . S
H1632 N1627 0.984 . S
H1633 N1627 0.985 . S
H1634 N1631 0.984 . S
H1635 N1631 0.985 . S
H1636 N1630 0.984 . S
H1637 N1630 0.984 . S
H1638 N1626 0.984 . S
H1639 N1626 0.985 . S
C1640 C1641 1.363 . S
C1640 C1646 1.379 . S
C1640 N1648 1.356 . S
C1641 C1640 1.363 . S
C1641 C1647 1.363 . S
C1642 C1643 1.363 . S
C1642 C1647 1.379 . S
C1642 N1649 1.356 . S
C1643 C1642 1.363 . S
C1643 C1646 1.363 . S
N1644 C1646 1.356 . S
N1644 H1656 0.984 . S
N1644 H1657 0.985 . S
N1645 C1647 1.356 . S
N1645 H1650 0.984 . S
N1645 H1651 0.985 . S
C1646 C1640 1.379 . S
C1646 C1643 1.363 . S
C1646 N1644 1.356 . S
C1647 C1641 1.363 . S
C1647 C1642 1.379 . S
C1647 N1645 1.356 . S
N1648 C1640 1.356 . S
N1648 H1654 0.984 . S
N1648 H1655 0.984 . S
N1649 C1642 1.356 . S
N1649 H1652 0.984 . S
N1649 H1653 0.985 . S
H1650 N1645 0.984 . S
H1651 N1645 0.985 . S
H1652 N1649 0.984 . S
H1653 N1649 0.985 . S
H1654 N1648 0.984 . S
H1655 N1648 0.984 . S
H1656 N1644 0.984 . S
H1657 N1644 0.985 . S
C1658 C1659 1.363 . S
C1658 C1664 1.379 . S
C1658 N1666 1.356 . S
C1659 C1658 1.363 . S
C1659 C1665 1.363 . S
C1660 C1661 1.363 . S
C1660 C1665 1.379 . S
C1660 N1667 1.356 . S
C1661 C1660 1.363 . S
C1661 C1664 1.363 . S
N1662 C1664 1.356 . S
N1662 H1674 0.984 . S
N1662 H1675 0.985 . S
N1663 C1665 1.356 . S
N1663 H1668 0.984 . S
N1663 H1669 0.985 . S
C1664 C1658 1.379 . S
C1664 C1661 1.363 . S
C1664 N1662 1.356 . S
C1665 C1659 1.363 . S
C1665 C1660 1.379 . S
C1665 N1663 1.356 . S
N1666 C1658 1.356 . S
N1666 H1672 0.984 . S
N1666 H1673 0.984 . S
N1667 C1660 1.356 . S
N1667 H1670 0.984 . S
N1667 H1671 0.985 . S
H1668 N1663 0.984 . S
H1669 N1663 0.985 . S
H1670 N1667 0.984 . S
H1671 N1667 0.985 . S
H1672 N1666 0.984 . S
H1673 N1666 0.984 . S
H1674 N1662 0.984 . S
H1675 N1662 0.985 . S
C1676 C1677 1.363 . S
C1676 C1682 1.379 . S
C1676 N1684 1.356 . S
C1677 C1676 1.363 . S
C1677 C1683 1.363 . S
C1678 C1679 1.363 . S
C1678 C1683 1.379 . S
C1678 N1685 1.356 . S
C1679 C1678 1.363 . S
C1679 C1682 1.363 . S
N1680 C1682 1.356 . S
N1680 H1692 0.984 . S
N1680 H1693 0.985 . S
N1681 C1683 1.356 . S
N1681 H1686 0.984 . S
N1681 H1687 0.985 . S
C1682 C1676 1.379 . S
C1682 C1679 1.363 . S
C1682 N1680 1.356 . S
C1683 C1677 1.363 . S
C1683 C1678 1.379 . S
C1683 N1681 1.356 . S
N1684 C1676 1.356 . S
N1684 H1690 0.984 . S
N1684 H1691 0.984 . S
N1685 C1678 1.356 . S
N1685 H1688 0.984 . S
N1685 H1689 0.985 . S
H1686 N1681 0.984 . S
H1687 N1681 0.985 . S
H1688 N1685 0.984 . S
H1689 N1685 0.985 . S
H1690 N1684 0.984 . S
H1691 N1684 0.984 . S
H1692 N1680 0.984 . S
H1693 N1680 0.985 . S
C1694 C1695 1.363 . S
C1694 C1700 1.379 . S
C1694 N1702 1.356 . S
C1695 C1694 1.363 . S
C1695 C1701 1.363 . S
C1696 C1697 1.363 . S
C1696 C1701 1.379 . S
C1696 N1703 1.356 . S
C1697 C1696 1.363 . S
C1697 C1700 1.363 . S
N1698 C1700 1.356 . S
N1698 H1710 0.984 . S
N1698 H1711 0.985 . S
N1699 C1701 1.356 . S
N1699 H1704 0.984 . S
N1699 H1705 0.985 . S
C1700 C1694 1.379 . S
C1700 C1697 1.363 . S
C1700 N1698 1.356 . S
C1701 C1695 1.363 . S
C1701 C1696 1.379 . S
C1701 N1699 1.356 . S
N1702 C1694 1.356 . S
N1702 H1708 0.984 . S
N1702 H1709 0.984 . S
N1703 C1696 1.356 . S
N1703 H1706 0.984 . S
N1703 H1707 0.985 . S
H1704 N1699 0.984 . S
H1705 N1699 0.985 . S
H1706 N1703 0.984 . S
H1707 N1703 0.985 . S
H1708 N1702 0.984 . S
H1709 N1702 0.984 . S
H1710 N1698 0.984 . S
H1711 N1698 0.985 . S
C1712 C1713 1.363 . S
C1712 C1718 1.379 . S
C1712 N1720 1.356 . S
C1713 C1712 1.363 . S
C1713 C1719 1.363 . S
C1714 C1715 1.363 . S
C1714 C1719 1.379 . S
C1714 N1721 1.356 . S
C1715 C1714 1.363 . S
C1715 C1718 1.363 . S
N1716 C1718 1.356 . S
N1716 H1728 0.984 . S
N1716 H1729 0.985 . S
N1717 C1719 1.356 . S
N1717 H1722 0.984 . S
N1717 H1723 0.985 . S
C1718 C1712 1.379 . S
C1718 C1715 1.363 . S
C1718 N1716 1.356 . S
C1719 C1713 1.363 . S
C1719 C1714 1.379 . S
C1719 N1717 1.356 . S
N1720 C1712 1.356 . S
N1720 H1726 0.984 . S
N1720 H1727 0.984 . S
N1721 C1714 1.356 . S
N1721 H1724 0.984 . S
N1721 H1725 0.985 . S
H1722 N1717 0.984 . S
H1723 N1717 0.985 . S
H1724 N1721 0.984 . S
H1725 N1721 0.985 . S
H1726 N1720 0.984 . S
H1727 N1720 0.984 . S
H1728 N1716 0.984 . S
H1729 N1716 0.985 . S
C1730 C1731 1.363 . S
C1730 C1736 1.379 . S
C1730 N1738 1.356 . S
C1731 C1730 1.363 . S
C1731 C1737 1.363 . S
C1732 C1733 1.363 . S
C1732 C1737 1.379 . S
C1732 N1739 1.356 . S
C1733 C1732 1.363 . S
C1733 C1736 1.363 . S
N1734 C1736 1.356 . S
N1734 H1746 0.984 . S
N1734 H1747 0.985 . S
N1735 C1737 1.356 . S
N1735 H1740 0.984 . S
N1735 H1741 0.985 . S
C1736 C1730 1.379 . S
C1736 C1733 1.363 . S
C1736 N1734 1.356 . S
C1737 C1731 1.363 . S
C1737 C1732 1.379 . S
C1737 N1735 1.356 . S
N1738 C1730 1.356 . S
N1738 H1744 0.984 . S
N1738 H1745 0.984 . S
N1739 C1732 1.356 . S
N1739 H1742 0.984 . S
N1739 H1743 0.985 . S
H1740 N1735 0.984 . S
H1741 N1735 0.985 . S
H1742 N1739 0.984 . S
H1743 N1739 0.985 . S
H1744 N1738 0.984 . S
H1745 N1738 0.984 . S
H1746 N1734 0.984 . S
H1747 N1734 0.985 . S
C1748 C1749 1.363 . S
C1748 C1754 1.379 . S
C1748 N1756 1.356 . S
C1749 C1748 1.363 . S
C1749 C1755 1.363 . S
C1750 C1751 1.363 . S
C1750 C1755 1.379 . S
C1750 N1757 1.356 . S
C1751 C1750 1.363 . S
C1751 C1754 1.363 . S
N1752 C1754 1.356 . S
N1752 H1764 0.984 . S
N1752 H1765 0.985 . S
N1753 C1755 1.356 . S
N1753 H1758 0.984 . S
N1753 H1759 0.985 . S
C1754 C1748 1.379 . S
C1754 C1751 1.363 . S
C1754 N1752 1.356 . S
C1755 C1749 1.363 . S
C1755 C1750 1.379 . S
C1755 N1753 1.356 . S
N1756 C1748 1.356 . S
N1756 H1762 0.984 . S
N1756 H1763 0.984 . S
N1757 C1750 1.356 . S
N1757 H1760 0.984 . S
N1757 H1761 0.985 . S
H1758 N1753 0.984 . S
H1759 N1753 0.985 . S
H1760 N1757 0.984 . S
H1761 N1757 0.985 . S
H1762 N1756 0.984 . S
H1763 N1756 0.984 . S
H1764 N1752 0.984 . S
H1765 N1752 0.985 . S
C1766 C1767 1.363 . S
C1766 C1772 1.379 . S
C1766 N1774 1.356 . S
C1767 C1766 1.363 . S
C1767 C1773 1.363 . S
C1768 C1769 1.363 . S
C1768 C1773 1.379 . S
C1768 N1775 1.356 . S
C1769 C1768 1.363 . S
C1769 C1772 1.363 . S
N1770 C1772 1.356 . S
N1770 H1782 0.984 . S
N1770 H1783 0.985 . S
N1771 C1773 1.356 . S
N1771 H1776 0.984 . S
N1771 H1777 0.985 . S
C1772 C1766 1.379 . S
C1772 C1769 1.363 . S
C1772 N1770 1.356 . S
C1773 C1767 1.363 . S
C1773 C1768 1.379 . S
C1773 N1771 1.356 . S
N1774 C1766 1.356 . S
N1774 H1780 0.984 . S
N1774 H1781 0.984 . S
N1775 C1768 1.356 . S
N1775 H1778 0.984 . S
N1775 H1779 0.985 . S
H1776 N1771 0.984 . S
H1777 N1771 0.985 . S
H1778 N1775 0.984 . S
H1779 N1775 0.985 . S
H1780 N1774 0.984 . S
H1781 N1774 0.984 . S
H1782 N1770 0.984 . S
H1783 N1770 0.985 . S
C1784 C1785 1.363 . S
C1784 C1790 1.379 . S
C1784 N1792 1.356 . S
C1785 C1784 1.363 . S
C1785 C1791 1.363 . S
C1786 C1787 1.363 . S
C1786 C1791 1.379 . S
C1786 N1793 1.356 . S
C1787 C1786 1.363 . S
C1787 C1790 1.363 . S
N1788 C1790 1.356 . S
N1788 H1800 0.984 . S
N1788 H1801 0.985 . S
N1789 C1791 1.356 . S
N1789 H1794 0.984 . S
N1789 H1795 0.985 . S
C1790 C1784 1.379 . S
C1790 C1787 1.363 . S
C1790 N1788 1.356 . S
C1791 C1785 1.363 . S
C1791 C1786 1.379 . S
C1791 N1789 1.356 . S
N1792 C1784 1.356 . S
N1792 H1798 0.984 . S
N1792 H1799 0.984 . S
N1793 C1786 1.356 . S
N1793 H1796 0.984 . S
N1793 H1797 0.985 . S
H1794 N1789 0.984 . S
H1795 N1789 0.985 . S
H1796 N1793 0.984 . S
H1797 N1793 0.985 . S
H1798 N1792 0.984 . S
H1799 N1792 0.984 . S
H1800 N1788 0.984 . S
H1801 N1788 0.985 . S
C1802 C1803 1.363 . S
C1802 C1808 1.379 . S
C1802 N1810 1.356 . S
C1803 C1802 1.363 . S
C1803 C1809 1.363 . S
C1804 C1805 1.363 . S
C1804 C1809 1.379 . S
C1804 N1811 1.356 . S
C1805 C1804 1.363 . S
C1805 C1808 1.363 . S
N1806 C1808 1.356 . S
N1806 H1818 0.984 . S
N1806 H1819 0.985 . S
N1807 C1809 1.356 . S
N1807 H1812 0.984 . S
N1807 H1813 0.985 . S
C1808 C1802 1.379 . S
C1808 C1805 1.363 . S
C1808 N1806 1.356 . S
C1809 C1803 1.363 . S
C1809 C1804 1.379 . S
C1809 N1807 1.356 . S
N1810 C1802 1.356 . S
N1810 H1816 0.984 . S
N1810 H1817 0.984 . S
N1811 C1804 1.356 . S
N1811 H1814 0.984 . S
N1811 H1815 0.985 . S
H1812 N1807 0.984 . S
H1813 N1807 0.985 . S
H1814 N1811 0.984 . S
H1815 N1811 0.985 . S
H1816 N1810 0.984 . S
H1817 N1810 0.984 . S
H1818 N1806 0.984 . S
H1819 N1806 0.985 . S
C1820 C1821 1.363 . S
C1820 C1826 1.379 . S
C1820 N1828 1.356 . S
C1821 C1820 1.363 . S
C1821 C1827 1.363 . S
C1822 C1823 1.363 . S
C1822 C1827 1.379 . S
C1822 N1829 1.356 . S
C1823 C1822 1.363 . S
C1823 C1826 1.363 . S
N1824 C1826 1.356 . S
N1824 H1836 0.984 . S
N1824 H1837 0.985 . S
N1825 C1827 1.356 . S
N1825 H1830 0.984 . S
N1825 H1831 0.985 . S
C1826 C1820 1.379 . S
C1826 C1823 1.363 . S
C1826 N1824 1.356 . S
C1827 C1821 1.363 . S
C1827 C1822 1.379 . S
C1827 N1825 1.356 . S
N1828 C1820 1.356 . S
N1828 H1834 0.984 . S
N1828 H1835 0.984 . S
N1829 C1822 1.356 . S
N1829 H1832 0.984 . S
N1829 H1833 0.985 . S
H1830 N1825 0.984 . S
H1831 N1825 0.985 . S
H1832 N1829 0.984 . S
H1833 N1829 0.985 . S
H1834 N1828 0.984 . S
H1835 N1828 0.984 . S
H1836 N1824 0.984 . S
H1837 N1824 0.985 . S
C1838 C1839 1.363 . S
C1838 C1844 1.379 . S
C1838 N1846 1.356 . S
C1839 C1838 1.363 . S
C1839 C1845 1.363 . S
C1840 C1841 1.363 . S
C1840 C1845 1.379 . S
C1840 N1847 1.356 . S
C1841 C1840 1.363 . S
C1841 C1844 1.363 . S
N1842 C1844 1.356 . S
N1842 H1854 0.984 . S
N1842 H1855 0.985 . S
N1843 C1845 1.356 . S
N1843 H1848 0.984 . S
N1843 H1849 0.985 . S
C1844 C1838 1.379 . S
C1844 C1841 1.363 . S
C1844 N1842 1.356 . S
C1845 C1839 1.363 . S
C1845 C1840 1.379 . S
C1845 N1843 1.356 . S
N1846 C1838 1.356 . S
N1846 H1852 0.984 . S
N1846 H1853 0.984 . S
N1847 C1840 1.356 . S
N1847 H1850 0.984 . S
N1847 H1851 0.985 . S
H1848 N1843 0.984 . S
H1849 N1843 0.985 . S
H1850 N1847 0.984 . S
H1851 N1847 0.985 . S
H1852 N1846 0.984 . S
H1853 N1846 0.984 . S
H1854 N1842 0.984 . S
H1855 N1842 0.985 . S
C1856 C1857 1.363 . S
C1856 C1862 1.379 1_455 S
C1856 N1864 1.356 . S
C1857 C1856 1.363 . S
C1857 C1863 1.363 . S
C1858 C1859 1.363 . S
C1858 C1863 1.379 1_655 S
C1858 N1865 1.356 . S
C1859 C1858 1.363 . S
C1859 C1862 1.363 . S
N1860 C1862 1.356 . S
N1860 H1872 0.984 . S
N1860 H1873 0.985 . S
N1861 C1863 1.356 . S
N1861 H1866 0.984 . S
N1861 H1867 0.985 . S
C1862 C1856 1.379 1_655 S
C1862 C1859 1.363 . S
C1862 N1860 1.356 . S
C1863 C1857 1.363 . S
C1863 C1858 1.379 1_455 S
C1863 N1861 1.356 . S
N1864 C1856 1.356 . S
N1864 H1870 0.984 . S
N1864 H1871 0.984 . S
N1865 C1858 1.356 . S
N1865 H1868 0.984 . S
N1865 H1869 0.985 . S
H1866 N1861 0.984 . S
H1867 N1861 0.985 . S
H1868 N1865 0.984 . S
H1869 N1865 0.985 . S
H1870 N1864 0.984 . S
H1871 N1864 0.984 . S
H1872 N1860 0.984 . S
H1873 N1860 0.985 . S
C1874 C1875 1.363 1_655 S
C1874 C1880 1.379 . S
C1874 N1882 1.356 . S
C1875 C1874 1.363 1_455 S
C1875 C1881 1.363 . S
C1876 C1877 1.363 1_455 S
C1876 C1881 1.379 . S
C1876 N1883 1.356 . S
C1877 C1876 1.363 1_655 S
C1877 C1880 1.363 . S
N1878 C1880 1.356 . S
N1878 H1890 0.984 . S
N1878 H1891 0.985 . S
N1879 C1881 1.356 . S
N1879 H1884 0.984 . S
N1879 H1885 0.985 . S
C1880 C1874 1.379 . S
C1880 C1877 1.363 . S
C1880 N1878 1.356 . S
C1881 C1875 1.363 . S
C1881 C1876 1.379 . S
C1881 N1879 1.356 . S
N1882 C1874 1.356 . S
N1882 H1888 0.984 . S
N1882 H1889 0.984 . S
N1883 C1876 1.356 . S
N1883 H1886 0.984 . S
N1883 H1887 0.985 . S
H1884 N1879 0.984 . S
H1885 N1879 0.985 . S
H1886 N1883 0.984 . S
H1887 N1883 0.985 . S
H1888 N1882 0.984 . S
H1889 N1882 0.984 . S
H1890 N1878 0.984 . S
H1891 N1878 0.985 . S
C1892 C1893 1.363 . S
C1892 C1898 1.379 . S
C1892 N1900 1.356 . S
C1893 C1892 1.363 . S
C1893 C1899 1.363 . S
C1894 C1895 1.363 . S
C1894 C1899 1.379 . S
C1894 N1901 1.356 . S
C1895 C1894 1.363 . S
C1895 C1898 1.363 . S
N1896 C1898 1.356 . S
N1896 H1908 0.984 . S
N1896 H1909 0.985 . S
N1897 C1899 1.356 . S
N1897 H1902 0.984 . S
N1897 H1903 0.985 . S
C1898 C1892 1.379 . S
C1898 C1895 1.363 . S
C1898 N1896 1.356 . S
C1899 C1893 1.363 . S
C1899 C1894 1.379 . S
C1899 N1897 1.356 . S
N1900 C1892 1.356 . S
N1900 H1906 0.984 . S
N1900 H1907 0.984 . S
N1901 C1894 1.356 . S
N1901 H1904 0.984 . S
N1901 H1905 0.985 . S
H1902 N1897 0.984 . S
H1903 N1897 0.985 . S
H1904 N1901 0.984 . S
H1905 N1901 0.985 . S
H1906 N1900 0.984 . S
H1907 N1900 0.984 . S
H1908 N1896 0.984 . S
H1909 N1896 0.985 . S
C1910 C1911 1.363 . S
C1910 C1916 1.379 . S
C1910 N1918 1.356 . S
C1911 C1910 1.363 . S
C1911 C1917 1.363 . S
C1912 C1913 1.363 . S
C1912 C1917 1.379 . S
C1912 N1919 1.356 . S
C1913 C1912 1.363 . S
C1913 C1916 1.363 . S
N1914 C1916 1.356 . S
N1914 H1926 0.984 . S
N1914 H1927 0.985 . S
N1915 C1917 1.356 . S
N1915 H1920 0.984 . S
N1915 H1921 0.985 . S
C1916 C1910 1.379 . S
C1916 C1913 1.363 . S
C1916 N1914 1.356 . S
C1917 C1911 1.363 . S
C1917 C1912 1.379 . S
C1917 N1915 1.356 . S
N1918 C1910 1.356 . S
N1918 H1924 0.984 . S
N1918 H1925 0.984 . S
N1919 C1912 1.356 . S
N1919 H1922 0.984 . S
N1919 H1923 0.985 . S
H1920 N1915 0.984 . S
H1921 N1915 0.985 . S
H1922 N1919 0.984 . S
H1923 N1919 0.985 . S
H1924 N1918 0.984 . S
H1925 N1918 0.984 . S
H1926 N1914 0.984 . S
H1927 N1914 0.985 . S
C1928 C1929 1.363 . S
C1928 C1934 1.379 1_655 S
C1928 N1936 1.356 . S
C1929 C1928 1.363 . S
C1929 C1935 1.363 . S
C1930 C1931 1.363 . S
C1930 C1935 1.379 1_455 S
C1930 N1937 1.356 . S
C1931 C1930 1.363 . S
C1931 C1934 1.363 . S
N1932 C1934 1.356 . S
N1932 H1944 0.984 . S
N1932 H1945 0.985 . S
N1933 C1935 1.356 . S
N1933 H1938 0.984 . S
N1933 H1939 0.985 . S
C1934 C1928 1.379 1_455 S
C1934 C1931 1.363 . S
C1934 N1932 1.356 . S
C1935 C1929 1.363 . S
C1935 C1930 1.379 1_655 S
C1935 N1933 1.356 . S
N1936 C1928 1.356 . S
N1936 H1942 0.984 . S
N1936 H1943 0.984 . S
N1937 C1930 1.356 . S
N1937 H1940 0.984 . S
N1937 H1941 0.985 . S
H1938 N1933 0.984 . S
H1939 N1933 0.985 . S
H1940 N1937 0.984 . S
H1941 N1937 0.985 . S
H1942 N1936 0.984 . S
H1943 N1936 0.984 . S
H1944 N1932 0.984 . S
H1945 N1932 0.985 . S
C1946 C1947 1.363 . S
C1946 C1952 1.379 . S
C1946 N1954 1.356 . S
C1947 C1946 1.363 . S
C1947 C1953 1.363 . S
C1948 C1949 1.363 . S
C1948 C1953 1.379 . S
C1948 N1955 1.356 . S
C1949 C1948 1.363 . S
C1949 C1952 1.363 . S
N1950 C1952 1.356 . S
N1950 H1962 0.984 . S
N1950 H1963 0.985 . S
N1951 C1953 1.356 . S
N1951 H1956 0.984 . S
N1951 H1957 0.985 . S
C1952 C1946 1.379 . S
C1952 C1949 1.363 . S
C1952 N1950 1.356 . S
C1953 C1947 1.363 . S
C1953 C1948 1.379 . S
C1953 N1951 1.356 . S
N1954 C1946 1.356 . S
N1954 H1960 0.984 . S
N1954 H1961 0.984 . S
N1955 C1948 1.356 . S
N1955 H1958 0.984 . S
N1955 H1959 0.985 . S
H1956 N1951 0.984 . S
H1957 N1951 0.985 . S
H1958 N1955 0.984 . S
H1959 N1955 0.985 . S
H1960 N1954 0.984 . S
H1961 N1954 0.984 . S
H1962 N1950 0.984 . S
H1963 N1950 0.985 . S
C1964 C1965 1.363 . S
C1964 C1970 1.379 . S
C1964 N1972 1.356 . S
C1965 C1964 1.363 . S
C1965 C1971 1.363 . S
C1966 C1967 1.363 . S
C1966 C1971 1.379 . S
C1966 N1973 1.356 . S
C1967 C1966 1.363 . S
C1967 C1970 1.363 . S
N1968 C1970 1.356 . S
N1968 H1980 0.984 . S
N1968 H1981 0.985 . S
N1969 C1971 1.356 . S
N1969 H1974 0.984 . S
N1969 H1975 0.985 . S
C1970 C1964 1.379 . S
C1970 C1967 1.363 . S
C1970 N1968 1.356 . S
C1971 C1965 1.363 . S
C1971 C1966 1.379 . S
C1971 N1969 1.356 . S
N1972 C1964 1.356 . S
N1972 H1978 0.984 . S
N1972 H1979 0.984 . S
N1973 C1966 1.356 . S
N1973 H1976 0.984 . S
N1973 H1977 0.985 . S
H1974 N1969 0.984 . S
H1975 N1969 0.985 . S
H1976 N1973 0.984 . S
H1977 N1973 0.985 . S
H1978 N1972 0.984 . S
H1979 N1972 0.984 . S
H1980 N1968 0.984 . S
H1981 N1968 0.985 . S
C1982 C1983 1.363 . S
C1982 C1988 1.379 . S
C1982 N1990 1.356 . S
C1983 C1982 1.363 . S
C1983 C1989 1.363 1_655 S
C1984 C1985 1.363 . S
C1984 C1989 1.379 . S
C1984 N1991 1.356 . S
C1985 C1984 1.363 . S
C1985 C1988 1.363 1_455 S
N1986 C1988 1.356 . S
N1986 H1998 0.984 . S
N1986 H1999 0.985 . S
N1987 C1989 1.356 . S
N1987 H1992 0.984 . S
N1987 H1993 0.985 . S
C1988 C1982 1.379 . S
C1988 C1985 1.363 1_655 S
C1988 N1986 1.356 . S
C1989 C1983 1.363 1_455 S
C1989 C1984 1.379 . S
C1989 N1987 1.356 . S
N1990 C1982 1.356 . S
N1990 H1996 0.984 . S
N1990 H1997 0.984 . S
N1991 C1984 1.356 . S
N1991 H1994 0.984 . S
N1991 H1995 0.985 . S
H1992 N1987 0.984 . S
H1993 N1987 0.985 . S
H1994 N1991 0.984 . S
H1995 N1991 0.985 . S
H1996 N1990 0.984 . S
H1997 N1990 0.984 . S
H1998 N1986 0.984 . S
H1999 N1986 0.985 . S
C2000 C2001 1.363 . S
C2000 C2006 1.379 1_455 S
C2000 N2008 1.356 . S
C2001 C2000 1.363 . S
C2001 C2007 1.363 . S
C2002 C2003 1.363 . S
C2002 C2007 1.379 1_655 S
C2002 N2009 1.356 . S
C2003 C2002 1.363 . S
C2003 C2006 1.363 . S
N2004 C2006 1.356 . S
N2004 H2016 0.984 . S
N2004 H2017 0.985 . S
N2005 C2007 1.356 . S
N2005 H2010 0.984 . S
N2005 H2011 0.985 . S
C2006 C2000 1.379 1_655 S
C2006 C2003 1.363 . S
C2006 N2004 1.356 . S
C2007 C2001 1.363 . S
C2007 C2002 1.379 1_455 S
C2007 N2005 1.356 . S
N2008 C2000 1.356 . S
N2008 H2014 0.984 . S
N2008 H2015 0.984 . S
N2009 C2002 1.356 . S
N2009 H2012 0.984 . S
N2009 H2013 0.985 . S
H2010 N2005 0.984 . S
H2011 N2005 0.985 . S
H2012 N2009 0.984 . S
H2013 N2009 0.985 . S
H2014 N2008 0.984 . S
H2015 N2008 0.984 . S
H2016 N2004 0.984 . S
H2017 N2004 0.985 . S
C2018 C2019 1.363 1_655 S
C2018 C2024 1.379 . S
C2018 N2026 1.356 . S
C2019 C2018 1.363 1_455 S
C2019 C2025 1.363 . S
C2020 C2021 1.363 1_455 S
C2020 C2025 1.379 . S
C2020 N2027 1.356 . S
C2021 C2020 1.363 1_655 S
C2021 C2024 1.363 . S
N2022 C2024 1.356 . S
N2022 H2034 0.984 . S
N2022 H2035 0.985 . S
N2023 C2025 1.356 . S
N2023 H2028 0.984 . S
N2023 H2029 0.985 . S
C2024 C2018 1.379 . S
C2024 C2021 1.363 . S
C2024 N2022 1.356 . S
C2025 C2019 1.363 . S
C2025 C2020 1.379 . S
C2025 N2023 1.356 . S
N2026 C2018 1.356 . S
N2026 H2032 0.984 . S
N2026 H2033 0.984 . S
N2027 C2020 1.356 . S
N2027 H2030 0.984 . S
N2027 H2031 0.985 . S
H2028 N2023 0.984 . S
H2029 N2023 0.985 . S
H2030 N2027 0.984 . S
H2031 N2027 0.985 . S
H2032 N2026 0.984 . S
H2033 N2026 0.984 . S
H2034 N2022 0.984 . S
H2035 N2022 0.985 . S
C2036 C2037 1.363 . S
C2036 C2042 1.379 . S
C2036 N2044 1.356 . S
C2037 C2036 1.363 . S
C2037 C2043 1.363 . S
C2038 C2039 1.363 . S
C2038 C2043 1.379 . S
C2038 N2045 1.356 . S
C2039 C2038 1.363 . S
C2039 C2042 1.363 . S
N2040 C2042 1.356 . S
N2040 H2052 0.984 . S
N2040 H2053 0.985 . S
N2041 C2043 1.356 . S
N2041 H2046 0.984 . S
N2041 H2047 0.985 . S
C2042 C2036 1.379 . S
C2042 C2039 1.363 . S
C2042 N2040 1.356 . S
C2043 C2037 1.363 . S
C2043 C2038 1.379 . S
C2043 N2041 1.356 . S
N2044 C2036 1.356 . S
N2044 H2050 0.984 . S
N2044 H2051 0.984 . S
N2045 C2038 1.356 . S
N2045 H2048 0.984 . S
N2045 H2049 0.985 . S
H2046 N2041 0.984 . S
H2047 N2041 0.985 . S
H2048 N2045 0.984 . S
H2049 N2045 0.985 . S
H2050 N2044 0.984 . S
H2051 N2044 0.984 . S
H2052 N2040 0.984 . S
H2053 N2040 0.985 . S
C2054 C2055 1.363 . S
C2054 C2060 1.379 . S
C2054 N2062 1.356 . S
C2055 C2054 1.363 . S
C2055 C2061 1.363 . S
C2056 C2057 1.363 . S
C2056 C2061 1.379 . S
C2056 N2063 1.356 . S
C2057 C2056 1.363 . S
C2057 C2060 1.363 . S
N2058 C2060 1.356 . S
N2058 H2070 0.984 . S
N2058 H2071 0.985 . S
N2059 C2061 1.356 . S
N2059 H2064 0.984 . S
N2059 H2065 0.985 . S
C2060 C2054 1.379 . S
C2060 C2057 1.363 . S
C2060 N2058 1.356 . S
C2061 C2055 1.363 . S
C2061 C2056 1.379 . S
C2061 N2059 1.356 . S
N2062 C2054 1.356 . S
N2062 H2068 0.984 . S
N2062 H2069 0.984 . S
N2063 C2056 1.356 . S
N2063 H2066 0.984 . S
N2063 H2067 0.985 . S
H2064 N2059 0.984 . S
H2065 N2059 0.985 . S
H2066 N2063 0.984 . S
H2067 N2063 0.985 . S
H2068 N2062 0.984 . S
H2069 N2062 0.984 . S
H2070 N2058 0.984 . S
H2071 N2058 0.985 . S
C2072 C2073 1.363 . S
C2072 C2078 1.379 1_455 S
C2072 N2080 1.356 . S
C2073 C2072 1.363 . S
C2073 C2079 1.363 . S
C2074 C2075 1.363 . S
C2074 C2079 1.379 1_655 S
C2074 N2081 1.356 . S
C2075 C2074 1.363 . S
C2075 C2078 1.363 . S
N2076 C2078 1.356 . S
N2076 H2088 0.984 . S
N2076 H2089 0.985 . S
N2077 C2079 1.356 . S
N2077 H2082 0.984 . S
N2077 H2083 0.985 . S
C2078 C2072 1.379 1_655 S
C2078 C2075 1.363 . S
C2078 N2076 1.356 . S
C2079 C2073 1.363 . S
C2079 C2074 1.379 1_455 S
C2079 N2077 1.356 . S
N2080 C2072 1.356 . S
N2080 H2086 0.984 . S
N2080 H2087 0.984 . S
N2081 C2074 1.356 . S
N2081 H2084 0.984 . S
N2081 H2085 0.985 . S
H2082 N2077 0.984 . S
H2083 N2077 0.985 . S
H2084 N2081 0.984 . S
H2085 N2081 0.985 . S
H2086 N2080 0.984 . S
H2087 N2080 0.984 . S
H2088 N2076 0.984 . S
H2089 N2076 0.985 . S
C2090 C2091 1.363 . S
C2090 C2096 1.379 . S
C2090 N2098 1.356 . S
C2091 C2090 1.363 . S
C2091 C2097 1.363 . S
C2092 C2093 1.363 . S
C2092 C2097 1.379 . S
C2092 N2099 1.356 . S
C2093 C2092 1.363 . S
C2093 C2096 1.363 . S
N2094 C2096 1.356 . S
N2094 H2106 0.984 . S
N2094 H2107 0.985 . S
N2095 C2097 1.356 . S
N2095 H2100 0.984 . S
N2095 H2101 0.985 . S
C2096 C2090 1.379 . S
C2096 C2093 1.363 . S
C2096 N2094 1.356 . S
C2097 C2091 1.363 . S
C2097 C2092 1.379 . S
C2097 N2095 1.356 . S
N2098 C2090 1.356 . S
N2098 H2104 0.984 . S
N2098 H2105 0.984 . S
N2099 C2092 1.356 . S
N2099 H2102 0.984 . S
N2099 H2103 0.985 . S
H2100 N2095 0.984 . S
H2101 N2095 0.985 . S
H2102 N2099 0.984 . S
H2103 N2099 0.985 . S
H2104 N2098 0.984 . S
H2105 N2098 0.984 . S
H2106 N2094 0.984 . S
H2107 N2094 0.985 . S
C2108 C2109 1.363 . S
C2108 C2114 1.379 . S
C2108 N2116 1.356 . S
C2109 C2108 1.363 . S
C2109 C2115 1.363 . S
C2110 C2111 1.363 . S
C2110 C2115 1.379 . S
C2110 N2117 1.356 . S
C2111 C2110 1.363 . S
C2111 C2114 1.363 . S
N2112 C2114 1.356 . S
N2112 H2124 0.984 . S
N2112 H2125 0.985 . S
N2113 C2115 1.356 . S
N2113 H2118 0.984 . S
N2113 H2119 0.985 . S
C2114 C2108 1.379 . S
C2114 C2111 1.363 . S
C2114 N2112 1.356 . S
C2115 C2109 1.363 . S
C2115 C2110 1.379 . S
C2115 N2113 1.356 . S
N2116 C2108 1.356 . S
N2116 H2122 0.984 . S
N2116 H2123 0.984 . S
N2117 C2110 1.356 . S
N2117 H2120 0.984 . S
N2117 H2121 0.985 . S
H2118 N2113 0.984 . S
H2119 N2113 0.985 . S
H2120 N2117 0.984 . S
H2121 N2117 0.985 . S
H2122 N2116 0.984 . S
H2123 N2116 0.984 . S
H2124 N2112 0.984 . S
H2125 N2112 0.985 . S
C2126 C2127 1.363 1_655 S
C2126 C2132 1.379 . S
C2126 N2134 1.356 . S
C2127 C2126 1.363 1_455 S
C2127 C2133 1.363 . S
C2128 C2129 1.363 1_455 S
C2128 C2133 1.379 . S
C2128 N2135 1.356 . S
C2129 C2128 1.363 1_655 S
C2129 C2132 1.363 . S
N2130 C2132 1.356 . S
N2130 H2142 0.984 . S
N2130 H2143 0.985 . S
N2131 C2133 1.356 . S
N2131 H2136 0.984 . S
N2131 H2137 0.985 . S
C2132 C2126 1.379 . S
C2132 C2129 1.363 . S
C2132 N2130 1.356 . S
C2133 C2127 1.363 . S
C2133 C2128 1.379 . S
C2133 N2131 1.356 . S
N2134 C2126 1.356 . S
N2134 H2140 0.984 . S
N2134 H2141 0.984 . S
N2135 C2128 1.356 . S
N2135 H2138 0.984 . S
N2135 H2139 0.985 . S
H2136 N2131 0.984 . S
H2137 N2131 0.985 . S
H2138 N2135 0.984 . S
H2139 N2135 0.985 . S
H2140 N2134 0.984 . S
H2141 N2134 0.984 . S
H2142 N2130 0.984 . S
H2143 N2130 0.985 . S
C2144 C2145 1.363 . S
C2144 C2150 1.379 . S
C2144 N2152 1.356 . S
C2145 C2144 1.363 . S
C2145 C2151 1.363 . S
C2146 C2147 1.363 . S
C2146 C2151 1.379 . S
C2146 N2153 1.356 . S
C2147 C2146 1.363 . S
C2147 C2150 1.363 . S
N2148 C2150 1.356 . S
N2148 H2160 0.984 . S
N2148 H2161 0.985 . S
N2149 C2151 1.356 . S
N2149 H2154 0.984 . S
N2149 H2155 0.985 . S
C2150 C2144 1.379 . S
C2150 C2147 1.363 . S
C2150 N2148 1.356 . S
C2151 C2145 1.363 . S
C2151 C2146 1.379 . S
C2151 N2149 1.356 . S
N2152 C2144 1.356 . S
N2152 H2158 0.984 . S
N2152 H2159 0.984 . S
N2153 C2146 1.356 . S
N2153 H2156 0.984 . S
N2153 H2157 0.985 . S
H2154 N2149 0.984 . S
H2155 N2149 0.985 . S
H2156 N2153 0.984 . S
H2157 N2153 0.985 . S
H2158 N2152 0.984 . S
H2159 N2152 0.984 . S
H2160 N2148 0.984 . S
H2161 N2148 0.985 . S
C2162 C2163 1.361 . S
C2162 C2168 1.379 . S
C2162 N2170 1.356 . S
C2163 C2162 1.361 . S
C2163 C2169 1.365 1_665 S
C2164 C2165 1.361 . S
C2164 C2169 1.379 . S
C2164 N2171 1.356 . S
C2165 C2164 1.361 . S
C2165 C2168 1.365 1_445 S
N2166 C2168 1.356 . S
N2166 H2178 0.984 . S
N2166 H2179 0.985 . S
N2167 C2169 1.356 . S
N2167 H2172 0.984 . S
N2167 H2173 0.985 . S
C2168 C2162 1.379 . S
C2168 C2165 1.365 1_665 S
C2168 N2166 1.356 . S
C2169 C2163 1.365 1_445 S
C2169 C2164 1.379 . S
C2169 N2167 1.356 . S
N2170 C2162 1.356 . S
N2170 H2176 0.984 . S
N2170 H2177 0.984 . S
N2171 C2164 1.356 . S
N2171 H2174 0.984 . S
N2171 H2175 0.985 . S
H2172 N2167 0.984 . S
H2173 N2167 0.985 . S
H2174 N2171 0.984 . S
H2175 N2171 0.985 . S
H2176 N2170 0.984 . S
H2177 N2170 0.984 . S
H2178 N2166 0.984 . S
H2179 N2166 0.985 . S
C2180 C2181 1.363 . S
C2180 C2186 1.379 . S
C2180 N2188 1.356 . S
C2181 C2180 1.363 . S
C2181 C2187 1.363 . S
C2182 C2183 1.363 . S
C2182 C2187 1.379 . S
C2182 N2189 1.356 . S
C2183 C2182 1.363 . S
C2183 C2186 1.363 . S
N2184 C2186 1.356 . S
N2184 H2196 0.984 . S
N2184 H2197 0.985 . S
N2185 C2187 1.356 . S
N2185 H2190 0.984 . S
N2185 H2191 0.985 . S
C2186 C2180 1.379 . S
C2186 C2183 1.363 . S
C2186 N2184 1.356 . S
C2187 C2181 1.363 . S
C2187 C2182 1.379 . S
C2187 N2185 1.356 . S
N2188 C2180 1.356 . S
N2188 H2194 0.984 . S
N2188 H2195 0.984 . S
N2189 C2182 1.356 . S
N2189 H2192 0.984 . S
N2189 H2193 0.985 . S
H2190 N2185 0.984 . S
H2191 N2185 0.985 . S
H2192 N2189 0.984 . S
H2193 N2189 0.985 . S
H2194 N2188 0.984 . S
H2195 N2188 0.984 . S
H2196 N2184 0.984 . S
H2197 N2184 0.985 . S
C2198 C2199 1.361 . S
C2198 C2204 1.379 1_554 S
C2198 N2206 1.356 . S
C2199 C2198 1.361 . S
C2199 C2205 1.365 1_565 S
C2200 C2201 1.361 . S
C2200 C2205 1.379 1_556 S
C2200 N2207 1.356 . S
C2201 C2200 1.361 . S
C2201 C2204 1.365 1_545 S
N2202 C2204 1.356 . S
N2202 H2214 0.984 . S
N2202 H2215 0.985 . S
N2203 C2205 1.356 . S
N2203 H2208 0.984 . S
N2203 H2209 0.985 . S
C2204 C2198 1.379 1_556 S
C2204 C2201 1.365 1_565 S
C2204 N2202 1.356 . S
C2205 C2199 1.365 1_545 S
C2205 C2200 1.379 1_554 S
C2205 N2203 1.356 . S
N2206 C2198 1.356 . S
N2206 H2212 0.984 . S
N2206 H2213 0.984 . S
N2207 C2200 1.356 . S
N2207 H2210 0.984 . S
N2207 H2211 0.985 . S
H2208 N2203 0.984 . S
H2209 N2203 0.985 . S
H2210 N2207 0.984 . S
H2211 N2207 0.985 . S
H2212 N2206 0.984 . S
H2213 N2206 0.984 . S
H2214 N2202 0.984 . S
H2215 N2202 0.985 . S
C2216 C2217 1.363 . S
C2216 C2222 1.379 . S
C2216 N2224 1.356 . S
C2217 C2216 1.363 . S
C2217 C2223 1.363 . S
C2218 C2219 1.363 . S
C2218 C2223 1.379 . S
C2218 N2225 1.356 . S
C2219 C2218 1.363 . S
C2219 C2222 1.363 . S
N2220 C2222 1.356 . S
N2220 H2232 0.984 . S
N2220 H2233 0.985 . S
N2221 C2223 1.356 . S
N2221 H2226 0.984 . S
N2221 H2227 0.985 . S
C2222 C2216 1.379 . S
C2222 C2219 1.363 . S
C2222 N2220 1.356 . S
C2223 C2217 1.363 . S
C2223 C2218 1.379 . S
C2223 N2221 1.356 . S
N2224 C2216 1.356 . S
N2224 H2230 0.984 . S
N2224 H2231 0.984 . S
N2225 C2218 1.356 . S
N2225 H2228 0.984 . S
N2225 H2229 0.985 . S
H2226 N2221 0.984 . S
H2227 N2221 0.985 . S
H2228 N2225 0.984 . S
H2229 N2225 0.985 . S
H2230 N2224 0.984 . S
H2231 N2224 0.984 . S
H2232 N2220 0.984 . S
H2233 N2220 0.985 . S
C2234 C2235 1.365 1_545 S
C2234 C2240 1.379 . S
C2234 N2242 1.356 . S
C2235 C2234 1.365 1_565 S
C2235 C2241 1.361 . S
C2236 C2237 1.365 1_565 S
C2236 C2241 1.379 . S
C2236 N2243 1.356 . S
C2237 C2236 1.365 1_545 S
C2237 C2240 1.361 . S
N2238 C2240 1.356 . S
N2238 H2250 0.984 . S
N2238 H2251 0.985 . S
N2239 C2241 1.356 . S
N2239 H2244 0.984 . S
N2239 H2245 0.985 . S
C2240 C2234 1.379 . S
C2240 C2237 1.361 . S
C2240 N2238 1.356 . S
C2241 C2235 1.361 . S
C2241 C2236 1.379 . S
C2241 N2239 1.356 . S
N2242 C2234 1.356 . S
N2242 H2248 0.984 . S
N2242 H2249 0.984 . S
N2243 C2236 1.356 . S
N2243 H2246 0.984 . S
N2243 H2247 0.985 . S
H2244 N2239 0.984 . S
H2245 N2239 0.985 . S
H2246 N2243 0.984 . S
H2247 N2243 0.985 . S
H2248 N2242 0.984 . S
H2249 N2242 0.984 . S
H2250 N2238 0.984 . S
H2251 N2238 0.985 . S
C2252 C2253 1.363 . S
C2252 C2258 1.379 . S
C2252 N2260 1.356 . S
C2253 C2252 1.363 . S
C2253 C2259 1.363 . S
C2254 C2255 1.363 . S
C2254 C2259 1.379 . S
C2254 N2261 1.356 . S
C2255 C2254 1.363 . S
C2255 C2258 1.363 . S
N2256 C2258 1.356 . S
N2256 H2268 0.984 . S
N2256 H2269 0.985 . S
N2257 C2259 1.356 . S
N2257 H2262 0.984 . S
N2257 H2263 0.985 . S
C2258 C2252 1.379 . S
C2258 C2255 1.363 . S
C2258 N2256 1.356 . S
C2259 C2253 1.363 . S
C2259 C2254 1.379 . S
C2259 N2257 1.356 . S
N2260 C2252 1.356 . S
N2260 H2266 0.984 . S
N2260 H2267 0.984 . S
N2261 C2254 1.356 . S
N2261 H2264 0.984 . S
N2261 H2265 0.985 . S
H2262 N2257 0.984 . S
H2263 N2257 0.985 . S
H2264 N2261 0.984 . S
H2265 N2261 0.985 . S
H2266 N2260 0.984 . S
H2267 N2260 0.984 . S
H2268 N2256 0.984 . S
H2269 N2256 0.985 . S
C2270 C2271 1.365 1_545 S
C2270 C2276 1.379 1_556 S
C2270 N2278 1.356 . S
C2271 C2270 1.365 1_565 S
C2271 C2277 1.361 1_455 S
C2272 C2273 1.365 1_565 S
C2272 C2277 1.379 1_554 S
C2272 N2279 1.356 . S
C2273 C2272 1.365 1_545 S
C2273 C2276 1.361 1_655 S
N2274 C2276 1.356 . S
N2274 H2286 0.984 . S
N2274 H2287 0.985 . S
N2275 C2277 1.356 . S
N2275 H2280 0.984 . S
N2275 H2281 0.985 . S
C2276 C2270 1.379 1_554 S
C2276 C2273 1.361 1_455 S
C2276 N2274 1.356 . S
C2277 C2271 1.361 1_655 S
C2277 C2272 1.379 1_556 S
C2277 N2275 1.356 . S
N2278 C2270 1.356 . S
N2278 H2284 0.984 . S
N2278 H2285 0.984 . S
N2279 C2272 1.356 . S
N2279 H2282 0.984 . S
N2279 H2283 0.985 . S
H2280 N2275 0.984 . S
H2281 N2275 0.985 . S
H2282 N2279 0.984 . S
H2283 N2279 0.985 . S
H2284 N2278 0.984 . S
H2285 N2278 0.984 . S
H2286 N2274 0.984 . S
H2287 N2274 0.985 . S
C2288 C2289 1.363 . S
C2288 C2294 1.379 . S
C2288 N2296 1.356 . S
C2289 C2288 1.363 . S
C2289 C2295 1.363 . S
C2290 C2291 1.363 . S
C2290 C2295 1.379 . S
C2290 N2297 1.356 . S
C2291 C2290 1.363 . S
C2291 C2294 1.363 . S
N2292 C2294 1.356 . S
N2292 H2304 0.984 . S
N2292 H2305 0.985 . S
N2293 C2295 1.356 . S
N2293 H2298 0.984 . S
N2293 H2299 0.985 . S
C2294 C2288 1.379 . S
C2294 C2291 1.363 . S
C2294 N2292 1.356 . S
C2295 C2289 1.363 . S
C2295 C2290 1.379 . S
C2295 N2293 1.356 . S
N2296 C2288 1.356 . S
N2296 H2302 0.984 . S
N2296 H2303 0.984 . S
N2297 C2290 1.356 . S
N2297 H2300 0.984 . S
N2297 H2301 0.985 . S
H2298 N2293 0.984 . S
H2299 N2293 0.985 . S
H2300 N2297 0.984 . S
H2301 N2297 0.985 . S
H2302 N2296 0.984 . S
H2303 N2296 0.984 . S
H2304 N2292 0.984 . S
H2305 N2292 0.985 . S
C2306 C2307 1.363 . S
C2306 C2312 1.379 . S
C2306 N2314 1.356 . S
C2307 C2306 1.363 . S
C2307 C2313 1.363 . S
C2308 C2309 1.363 . S
C2308 C2313 1.379 . S
C2308 N2315 1.356 . S
C2309 C2308 1.363 . S
C2309 C2312 1.363 . S
N2310 C2312 1.356 . S
N2310 H2322 0.984 . S
N2310 H2323 0.985 . S
N2311 C2313 1.356 . S
N2311 H2316 0.984 . S
N2311 H2317 0.985 . S
C2312 C2306 1.379 . S
C2312 C2309 1.363 . S
C2312 N2310 1.356 . S
C2313 C2307 1.363 . S
C2313 C2308 1.379 . S
C2313 N2311 1.356 . S
N2314 C2306 1.356 . S
N2314 H2320 0.984 . S
N2314 H2321 0.984 . S
N2315 C2308 1.356 . S
N2315 H2318 0.984 . S
N2315 H2319 0.985 . S
H2316 N2311 0.984 . S
H2317 N2311 0.985 . S
H2318 N2315 0.984 . S
H2319 N2315 0.985 . S
H2320 N2314 0.984 . S
H2321 N2314 0.984 . S
H2322 N2310 0.984 . S
H2323 N2310 0.985 . S
C2324 C2325 1.363 . S
C2324 C2330 1.379 . S
C2324 N2332 1.356 . S
C2325 C2324 1.363 . S
C2325 C2331 1.363 . S
C2326 C2327 1.363 . S
C2326 C2331 1.379 . S
C2326 N2333 1.356 . S
C2327 C2326 1.363 . S
C2327 C2330 1.363 . S
N2328 C2330 1.356 . S
N2328 H2340 0.984 . S
N2328 H2341 0.985 . S
N2329 C2331 1.356 . S
N2329 H2334 0.984 . S
N2329 H2335 0.985 . S
C2330 C2324 1.379 . S
C2330 C2327 1.363 . S
C2330 N2328 1.356 . S
C2331 C2325 1.363 . S
C2331 C2326 1.379 . S
C2331 N2329 1.356 . S
N2332 C2324 1.356 . S
N2332 H2338 0.984 . S
N2332 H2339 0.984 . S
N2333 C2326 1.356 . S
N2333 H2336 0.984 . S
N2333 H2337 0.985 . S
H2334 N2329 0.984 . S
H2335 N2329 0.985 . S
H2336 N2333 0.984 . S
H2337 N2333 0.985 . S
H2338 N2332 0.984 . S
H2339 N2332 0.984 . S
H2340 N2328 0.984 . S
H2341 N2328 0.985 . S
C2342 C2343 1.363 . S
C2342 C2348 1.379 . S
C2342 N2350 1.356 . S
C2343 C2342 1.363 . S
C2343 C2349 1.363 . S
C2344 C2345 1.363 . S
C2344 C2349 1.379 . S
C2344 N2351 1.356 . S
C2345 C2344 1.363 . S
C2345 C2348 1.363 . S
N2346 C2348 1.356 . S
N2346 H2358 0.984 . S
N2346 H2359 0.985 . S
N2347 C2349 1.356 . S
N2347 H2352 0.984 . S
N2347 H2353 0.985 . S
C2348 C2342 1.379 . S
C2348 C2345 1.363 . S
C2348 N2346 1.356 . S
C2349 C2343 1.363 . S
C2349 C2344 1.379 . S
C2349 N2347 1.356 . S
N2350 C2342 1.356 . S
N2350 H2356 0.984 . S
N2350 H2357 0.984 . S
N2351 C2344 1.356 . S
N2351 H2354 0.984 . S
N2351 H2355 0.985 . S
H2352 N2347 0.984 . S
H2353 N2347 0.985 . S
H2354 N2351 0.984 . S
H2355 N2351 0.985 . S
H2356 N2350 0.984 . S
H2357 N2350 0.984 . S
H2358 N2346 0.984 . S
H2359 N2346 0.985 . S
C2360 C2361 1.363 . S
C2360 C2366 1.379 1_554 S
C2360 N2368 1.356 . S
C2361 C2360 1.363 . S
C2361 C2367 1.363 . S
C2362 C2363 1.363 . S
C2362 C2367 1.379 1_556 S
C2362 N2369 1.356 . S
C2363 C2362 1.363 . S
C2363 C2366 1.363 . S
N2364 C2366 1.356 . S
N2364 H2376 0.984 . S
N2364 H2377 0.985 . S
N2365 C2367 1.356 . S
N2365 H2370 0.984 . S
N2365 H2371 0.985 . S
C2366 C2360 1.379 1_556 S
C2366 C2363 1.363 . S
C2366 N2364 1.356 . S
C2367 C2361 1.363 . S
C2367 C2362 1.379 1_554 S
C2367 N2365 1.356 . S
N2368 C2360 1.356 . S
N2368 H2374 0.984 . S
N2368 H2375 0.984 . S
N2369 C2362 1.356 . S
N2369 H2372 0.984 . S
N2369 H2373 0.985 . S
H2370 N2365 0.984 . S
H2371 N2365 0.985 . S
H2372 N2369 0.984 . S
H2373 N2369 0.985 . S
H2374 N2368 0.984 . S
H2375 N2368 0.984 . S
H2376 N2364 0.984 . S
H2377 N2364 0.985 . S
C2378 C2379 1.363 . S
C2378 C2384 1.379 . S
C2378 N2386 1.356 . S
C2379 C2378 1.363 . S
C2379 C2385 1.363 1_655 S
C2380 C2381 1.363 . S
C2380 C2385 1.379 . S
C2380 N2387 1.356 . S
C2381 C2380 1.363 . S
C2381 C2384 1.363 1_455 S
N2382 C2384 1.356 . S
N2382 H2394 0.984 . S
N2382 H2395 0.985 . S
N2383 C2385 1.356 . S
N2383 H2388 0.984 . S
N2383 H2389 0.985 . S
C2384 C2378 1.379 . S
C2384 C2381 1.363 1_655 S
C2384 N2382 1.356 . S
C2385 C2379 1.363 1_455 S
C2385 C2380 1.379 . S
C2385 N2383 1.356 . S
N2386 C2378 1.356 . S
N2386 H2392 0.984 . S
N2386 H2393 0.984 . S
N2387 C2380 1.356 . S
N2387 H2390 0.984 . S
N2387 H2391 0.985 . S
H2388 N2383 0.984 . S
H2389 N2383 0.985 . S
H2390 N2387 0.984 . S
H2391 N2387 0.985 . S
H2392 N2386 0.984 . S
H2393 N2386 0.984 . S
H2394 N2382 0.984 . S
H2395 N2382 0.985 . S
C2396 C2397 1.363 . S
C2396 C2402 1.379 1_554 S
C2396 N2404 1.356 . S
C2397 C2396 1.363 . S
C2397 C2403 1.363 1_455 S
C2398 C2399 1.363 . S
C2398 C2403 1.379 1_556 S
C2398 N2405 1.356 . S
C2399 C2398 1.363 . S
C2399 C2402 1.363 1_655 S
N2400 C2402 1.356 . S
N2400 H2412 0.984 . S
N2400 H2413 0.985 . S
N2401 C2403 1.356 . S
N2401 H2406 0.984 . S
N2401 H2407 0.985 . S
C2402 C2396 1.379 1_556 S
C2402 C2399 1.363 1_455 S
C2402 N2400 1.356 . S
C2403 C2397 1.363 1_655 S
C2403 C2398 1.379 1_554 S
C2403 N2401 1.356 . S
N2404 C2396 1.356 . S
N2404 H2410 0.984 . S
N2404 H2411 0.984 . S
N2405 C2398 1.356 . S
N2405 H2408 0.984 . S
N2405 H2409 0.985 . S
H2406 N2401 0.984 . S
H2407 N2401 0.985 . S
H2408 N2405 0.984 . S
H2409 N2405 0.985 . S
H2410 N2404 0.984 . S
H2411 N2404 0.984 . S
H2412 N2400 0.984 . S
H2413 N2400 0.985 . S
C2414 C2415 1.363 . S
C2414 C2420 1.379 . S
C2414 N2422 1.356 . S
C2415 C2414 1.363 . S
C2415 C2421 1.363 . S
C2416 C2417 1.363 . S
C2416 C2421 1.379 . S
C2416 N2423 1.356 . S
C2417 C2416 1.363 . S
C2417 C2420 1.363 . S
N2418 C2420 1.356 . S
N2418 H2430 0.984 . S
N2418 H2431 0.985 . S
N2419 C2421 1.356 . S
N2419 H2424 0.984 . S
N2419 H2425 0.985 . S
C2420 C2414 1.379 . S
C2420 C2417 1.363 . S
C2420 N2418 1.356 . S
C2421 C2415 1.363 . S
C2421 C2416 1.379 . S
C2421 N2419 1.356 . S
N2422 C2414 1.356 . S
N2422 H2428 0.984 . S
N2422 H2429 0.984 . S
N2423 C2416 1.356 . S
N2423 H2426 0.984 . S
N2423 H2427 0.985 . S
H2424 N2419 0.984 . S
H2425 N2419 0.985 . S
H2426 N2423 0.984 . S
H2427 N2423 0.985 . S
H2428 N2422 0.984 . S
H2429 N2422 0.984 . S
H2430 N2418 0.984 . S
H2431 N2418 0.985 . S
C2432 C2433 1.363 . S
C2432 C2438 1.379 . S
C2432 N2440 1.356 . S
C2433 C2432 1.363 . S
C2433 C2439 1.363 . S
C2434 C2435 1.363 . S
C2434 C2439 1.379 . S
C2434 N2441 1.356 . S
C2435 C2434 1.363 . S
C2435 C2438 1.363 . S
N2436 C2438 1.356 . S
N2436 H2448 0.984 . S
N2436 H2449 0.985 . S
N2437 C2439 1.356 . S
N2437 H2442 0.984 . S
N2437 H2443 0.985 . S
C2438 C2432 1.379 . S
C2438 C2435 1.363 . S
C2438 N2436 1.356 . S
C2439 C2433 1.363 . S
C2439 C2434 1.379 . S
C2439 N2437 1.356 . S
N2440 C2432 1.356 . S
N2440 H2446 0.984 . S
N2440 H2447 0.984 . S
N2441 C2434 1.356 . S
N2441 H2444 0.984 . S
N2441 H2445 0.985 . S
H2442 N2437 0.984 . S
H2443 N2437 0.985 . S
H2444 N2441 0.984 . S
H2445 N2441 0.985 . S
H2446 N2440 0.984 . S
H2447 N2440 0.984 . S
H2448 N2436 0.984 . S
H2449 N2436 0.985 . S
C2450 C2451 1.363 . S
C2450 C2456 1.379 . S
C2450 N2458 1.356 . S
C2451 C2450 1.363 . S
C2451 C2457 1.363 . S
C2452 C2453 1.363 . S
C2452 C2457 1.379 . S
C2452 N2459 1.356 . S
C2453 C2452 1.363 . S
C2453 C2456 1.363 . S
N2454 C2456 1.356 . S
N2454 H2466 0.984 . S
N2454 H2467 0.985 . S
N2455 C2457 1.356 . S
N2455 H2460 0.984 . S
N2455 H2461 0.985 . S
C2456 C2450 1.379 . S
C2456 C2453 1.363 . S
C2456 N2454 1.356 . S
C2457 C2451 1.363 . S
C2457 C2452 1.379 . S
C2457 N2455 1.356 . S
N2458 C2450 1.356 . S
N2458 H2464 0.984 . S
N2458 H2465 0.984 . S
N2459 C2452 1.356 . S
N2459 H2462 0.984 . S
N2459 H2463 0.985 . S
H2460 N2455 0.984 . S
H2461 N2455 0.985 . S
H2462 N2459 0.984 . S
H2463 N2459 0.985 . S
H2464 N2458 0.984 . S
H2465 N2458 0.984 . S
H2466 N2454 0.984 . S
H2467 N2454 0.985 . S
C2468 C2469 1.363 . S
C2468 C2474 1.379 . S
C2468 N2476 1.356 . S
C2469 C2468 1.363 . S
C2469 C2475 1.363 . S
C2470 C2471 1.363 . S
C2470 C2475 1.379 . S
C2470 N2477 1.356 . S
C2471 C2470 1.363 . S
C2471 C2474 1.363 . S
N2472 C2474 1.356 . S
N2472 H2484 0.984 . S
N2472 H2485 0.985 . S
N2473 C2475 1.356 . S
N2473 H2478 0.984 . S
N2473 H2479 0.985 . S
C2474 C2468 1.379 . S
C2474 C2471 1.363 . S
C2474 N2472 1.356 . S
C2475 C2469 1.363 . S
C2475 C2470 1.379 . S
C2475 N2473 1.356 . S
N2476 C2468 1.356 . S
N2476 H2482 0.984 . S
N2476 H2483 0.984 . S
N2477 C2470 1.356 . S
N2477 H2480 0.984 . S
N2477 H2481 0.985 . S
H2478 N2473 0.984 . S
H2479 N2473 0.985 . S
H2480 N2477 0.984 . S
H2481 N2477 0.985 . S
H2482 N2476 0.984 . S
H2483 N2476 0.984 . S
H2484 N2472 0.984 . S
H2485 N2472 0.985 . S
C2486 C2487 1.363 . S
C2486 C2492 1.379 . S
C2486 N2494 1.356 . S
C2487 C2486 1.363 . S
C2487 C2493 1.363 . S
C2488 C2489 1.363 . S
C2488 C2493 1.379 . S
C2488 N2495 1.356 . S
C2489 C2488 1.363 . S
C2489 C2492 1.363 . S
N2490 C2492 1.356 . S
N2490 H2502 0.984 . S
N2490 H2503 0.985 . S
N2491 C2493 1.356 . S
N2491 H2496 0.984 . S
N2491 H2497 0.985 . S
C2492 C2486 1.379 . S
C2492 C2489 1.363 . S
C2492 N2490 1.356 . S
C2493 C2487 1.363 . S
C2493 C2488 1.379 . S
C2493 N2491 1.356 . S
N2494 C2486 1.356 . S
N2494 H2500 0.984 . S
N2494 H2501 0.984 . S
N2495 C2488 1.356 . S
N2495 H2498 0.984 . S
N2495 H2499 0.985 . S
H2496 N2491 0.984 . S
H2497 N2491 0.985 . S
H2498 N2495 0.984 . S
H2499 N2495 0.985 . S
H2500 N2494 0.984 . S
H2501 N2494 0.984 . S
H2502 N2490 0.984 . S
H2503 N2490 0.985 . S
C2504 C2505 1.363 . S
C2504 C2510 1.379 . S
C2504 N2512 1.356 . S
C2505 C2504 1.363 . S
C2505 C2511 1.363 . S
C2506 C2507 1.363 . S
C2506 C2511 1.379 . S
C2506 N2513 1.356 . S
C2507 C2506 1.363 . S
C2507 C2510 1.363 . S
N2508 C2510 1.356 . S
N2508 H2520 0.984 . S
N2508 H2521 0.985 . S
N2509 C2511 1.356 . S
N2509 H2514 0.984 . S
N2509 H2515 0.985 . S
C2510 C2504 1.379 . S
C2510 C2507 1.363 . S
C2510 N2508 1.356 . S
C2511 C2505 1.363 . S
C2511 C2506 1.379 . S
C2511 N2509 1.356 . S
N2512 C2504 1.356 . S
N2512 H2518 0.984 . S
N2512 H2519 0.984 . S
N2513 C2506 1.356 . S
N2513 H2516 0.984 . S
N2513 H2517 0.985 . S
H2514 N2509 0.984 . S
H2515 N2509 0.985 . S
H2516 N2513 0.984 . S
H2517 N2513 0.985 . S
H2518 N2512 0.984 . S
H2519 N2512 0.984 . S
H2520 N2508 0.984 . S
H2521 N2508 0.985 . S
C2522 C2523 1.363 . S
C2522 C2528 1.379 . S
C2522 N2530 1.356 . S
C2523 C2522 1.363 . S
C2523 C2529 1.363 . S
C2524 C2525 1.363 . S
C2524 C2529 1.379 . S
C2524 N2531 1.356 . S
C2525 C2524 1.363 . S
C2525 C2528 1.363 . S
N2526 C2528 1.356 . S
N2526 H2538 0.984 . S
N2526 H2539 0.985 . S
N2527 C2529 1.356 . S
N2527 H2532 0.984 . S
N2527 H2533 0.985 . S
C2528 C2522 1.379 . S
C2528 C2525 1.363 . S
C2528 N2526 1.356 . S
C2529 C2523 1.363 . S
C2529 C2524 1.379 . S
C2529 N2527 1.356 . S
N2530 C2522 1.356 . S
N2530 H2536 0.984 . S
N2530 H2537 0.984 . S
N2531 C2524 1.356 . S
N2531 H2534 0.984 . S
N2531 H2535 0.985 . S
H2532 N2527 0.984 . S
H2533 N2527 0.985 . S
H2534 N2531 0.984 . S
H2535 N2531 0.985 . S
H2536 N2530 0.984 . S
H2537 N2530 0.984 . S
H2538 N2526 0.984 . S
H2539 N2526 0.985 . S
C2540 C2541 1.363 . S
C2540 C2546 1.379 . S
C2540 N2548 1.356 . S
C2541 C2540 1.363 . S
C2541 C2547 1.363 . S
C2542 C2543 1.363 . S
C2542 C2547 1.379 . S
C2542 N2549 1.356 . S
C2543 C2542 1.363 . S
C2543 C2546 1.363 . S
N2544 C2546 1.356 . S
N2544 H2556 0.984 . S
N2544 H2557 0.985 . S
N2545 C2547 1.356 . S
N2545 H2550 0.984 . S
N2545 H2551 0.985 . S
C2546 C2540 1.379 . S
C2546 C2543 1.363 . S
C2546 N2544 1.356 . S
C2547 C2541 1.363 . S
C2547 C2542 1.379 . S
C2547 N2545 1.356 . S
N2548 C2540 1.356 . S
N2548 H2554 0.984 . S
N2548 H2555 0.984 . S
N2549 C2542 1.356 . S
N2549 H2552 0.984 . S
N2549 H2553 0.985 . S
H2550 N2545 0.984 . S
H2551 N2545 0.985 . S
H2552 N2549 0.984 . S
H2553 N2549 0.985 . S
H2554 N2548 0.984 . S
H2555 N2548 0.984 . S
H2556 N2544 0.984 . S
H2557 N2544 0.985 . S
C2558 C2559 1.363 . S
C2558 C2564 1.379 . S
C2558 N2566 1.356 . S
C2559 C2558 1.363 . S
C2559 C2565 1.363 . S
C2560 C2561 1.363 . S
C2560 C2565 1.379 . S
C2560 N2567 1.356 . S
C2561 C2560 1.363 . S
C2561 C2564 1.363 . S
N2562 C2564 1.356 . S
N2562 H2574 0.984 . S
N2562 H2575 0.985 . S
N2563 C2565 1.356 . S
N2563 H2568 0.984 . S
N2563 H2569 0.985 . S
C2564 C2558 1.379 . S
C2564 C2561 1.363 . S
C2564 N2562 1.356 . S
C2565 C2559 1.363 . S
C2565 C2560 1.379 . S
C2565 N2563 1.356 . S
N2566 C2558 1.356 . S
N2566 H2572 0.984 . S
N2566 H2573 0.984 . S
N2567 C2560 1.356 . S
N2567 H2570 0.984 . S
N2567 H2571 0.985 . S
H2568 N2563 0.984 . S
H2569 N2563 0.985 . S
H2570 N2567 0.984 . S
H2571 N2567 0.985 . S
H2572 N2566 0.984 . S
H2573 N2566 0.984 . S
H2574 N2562 0.984 . S
H2575 N2562 0.985 . S
C2576 C2577 1.363 . S
C2576 C2582 1.379 . S
C2576 N2584 1.356 . S
C2577 C2576 1.363 . S
C2577 C2583 1.363 . S
C2578 C2579 1.363 . S
C2578 C2583 1.379 . S
C2578 N2585 1.356 . S
C2579 C2578 1.363 . S
C2579 C2582 1.363 . S
N2580 C2582 1.356 . S
N2580 H2592 0.984 . S
N2580 H2593 0.985 . S
N2581 C2583 1.356 . S
N2581 H2586 0.984 . S
N2581 H2587 0.985 . S
C2582 C2576 1.379 . S
C2582 C2579 1.363 . S
C2582 N2580 1.356 . S
C2583 C2577 1.363 . S
C2583 C2578 1.379 . S
C2583 N2581 1.356 . S
N2584 C2576 1.356 . S
N2584 H2590 0.984 . S
N2584 H2591 0.984 . S
N2585 C2578 1.356 . S
N2585 H2588 0.984 . S
N2585 H2589 0.985 . S
H2586 N2581 0.984 . S
H2587 N2581 0.985 . S
H2588 N2585 0.984 . S
H2589 N2585 0.985 . S
H2590 N2584 0.984 . S
H2591 N2584 0.984 . S
H2592 N2580 0.984 . S
H2593 N2580 0.985 . S
C2594 C2595 1.363 . S
C2594 C2600 1.379 . S
C2594 N2602 1.356 . S
C2595 C2594 1.363 . S
C2595 C2601 1.363 . S
C2596 C2597 1.363 . S
C2596 C2601 1.379 . S
C2596 N2603 1.356 . S
C2597 C2596 1.363 . S
C2597 C2600 1.363 . S
N2598 C2600 1.356 . S
N2598 H2610 0.984 . S
N2598 H2611 0.985 . S
N2599 C2601 1.356 . S
N2599 H2604 0.984 . S
N2599 H2605 0.985 . S
C2600 C2594 1.379 . S
C2600 C2597 1.363 . S
C2600 N2598 1.356 . S
C2601 C2595 1.363 . S
C2601 C2596 1.379 . S
C2601 N2599 1.356 . S
N2602 C2594 1.356 . S
N2602 H2608 0.984 . S
N2602 H2609 0.984 . S
N2603 C2596 1.356 . S
N2603 H2606 0.984 . S
N2603 H2607 0.985 . S
H2604 N2599 0.984 . S
H2605 N2599 0.985 . S
H2606 N2603 0.984 . S
H2607 N2603 0.985 . S
H2608 N2602 0.984 . S
H2609 N2602 0.984 . S
H2610 N2598 0.984 . S
H2611 N2598 0.985 . S
C2612 C2613 1.363 . S
C2612 C2618 1.379 . S
C2612 N2620 1.356 . S
C2613 C2612 1.363 . S
C2613 C2619 1.363 . S
C2614 C2615 1.363 . S
C2614 C2619 1.379 . S
C2614 N2621 1.356 . S
C2615 C2614 1.363 . S
C2615 C2618 1.363 . S
N2616 C2618 1.356 . S
N2616 H2628 0.984 . S
N2616 H2629 0.985 . S
N2617 C2619 1.356 . S
N2617 H2622 0.984 . S
N2617 H2623 0.985 . S
C2618 C2612 1.379 . S
C2618 C2615 1.363 . S
C2618 N2616 1.356 . S
C2619 C2613 1.363 . S
C2619 C2614 1.379 . S
C2619 N2617 1.356 . S
N2620 C2612 1.356 . S
N2620 H2626 0.984 . S
N2620 H2627 0.984 . S
N2621 C2614 1.356 . S
N2621 H2624 0.984 . S
N2621 H2625 0.985 . S
H2622 N2617 0.984 . S
H2623 N2617 0.985 . S
H2624 N2621 0.984 . S
H2625 N2621 0.985 . S
H2626 N2620 0.984 . S
H2627 N2620 0.984 . S
H2628 N2616 0.984 . S
H2629 N2616 0.985 . S
C2630 C2631 1.363 . S
C2630 C2636 1.379 . S
C2630 N2638 1.356 . S
C2631 C2630 1.363 . S
C2631 C2637 1.363 . S
C2632 C2633 1.363 . S
C2632 C2637 1.379 . S
C2632 N2639 1.356 . S
C2633 C2632 1.363 . S
C2633 C2636 1.363 . S
N2634 C2636 1.356 . S
N2634 H2646 0.984 . S
N2634 H2647 0.985 . S
N2635 C2637 1.356 . S
N2635 H2640 0.984 . S
N2635 H2641 0.985 . S
C2636 C2630 1.379 . S
C2636 C2633 1.363 . S
C2636 N2634 1.356 . S
C2637 C2631 1.363 . S
C2637 C2632 1.379 . S
C2637 N2635 1.356 . S
N2638 C2630 1.356 . S
N2638 H2644 0.984 . S
N2638 H2645 0.984 . S
N2639 C2632 1.356 . S
N2639 H2642 0.984 . S
N2639 H2643 0.985 . S
H2640 N2635 0.984 . S
H2641 N2635 0.985 . S
H2642 N2639 0.984 . S
H2643 N2639 0.985 . S
H2644 N2638 0.984 . S
H2645 N2638 0.984 . S
H2646 N2634 0.984 . S
H2647 N2634 0.985 . S
C2648 C2649 1.363 . S
C2648 C2654 1.379 . S
C2648 N2656 1.356 . S
C2649 C2648 1.363 . S
C2649 C2655 1.363 . S
C2650 C2651 1.363 . S
C2650 C2655 1.379 . S
C2650 N2657 1.356 . S
C2651 C2650 1.363 . S
C2651 C2654 1.363 . S
N2652 C2654 1.356 . S
N2652 H2664 0.984 . S
N2652 H2665 0.985 . S
N2653 C2655 1.356 . S
N2653 H2658 0.984 . S
N2653 H2659 0.985 . S
C2654 C2648 1.379 . S
C2654 C2651 1.363 . S
C2654 N2652 1.356 . S
C2655 C2649 1.363 . S
C2655 C2650 1.379 . S
C2655 N2653 1.356 . S
N2656 C2648 1.356 . S
N2656 H2662 0.984 . S
N2656 H2663 0.984 . S
N2657 C2650 1.356 . S
N2657 H2660 0.984 . S
N2657 H2661 0.985 . S
H2658 N2653 0.984 . S
H2659 N2653 0.985 . S
H2660 N2657 0.984 . S
H2661 N2657 0.985 . S
H2662 N2656 0.984 . S
H2663 N2656 0.984 . S
H2664 N2652 0.984 . S
H2665 N2652 0.985 . S
C2666 C2667 1.363 . S
C2666 C2672 1.379 . S
C2666 N2674 1.356 . S
C2667 C2666 1.363 . S
C2667 C2673 1.363 . S
C2668 C2669 1.363 . S
C2668 C2673 1.379 . S
C2668 N2675 1.356 . S
C2669 C2668 1.363 . S
C2669 C2672 1.363 . S
N2670 C2672 1.356 . S
N2670 H2682 0.984 . S
N2670 H2683 0.985 . S
N2671 C2673 1.356 . S
N2671 H2676 0.984 . S
N2671 H2677 0.985 . S
C2672 C2666 1.379 . S
C2672 C2669 1.363 . S
C2672 N2670 1.356 . S
C2673 C2667 1.363 . S
C2673 C2668 1.379 . S
C2673 N2671 1.356 . S
N2674 C2666 1.356 . S
N2674 H2680 0.984 . S
N2674 H2681 0.984 . S
N2675 C2668 1.356 . S
N2675 H2678 0.984 . S
N2675 H2679 0.985 . S
H2676 N2671 0.984 . S
H2677 N2671 0.985 . S
H2678 N2675 0.984 . S
H2679 N2675 0.985 . S
H2680 N2674 0.984 . S
H2681 N2674 0.984 . S
H2682 N2670 0.984 . S
H2683 N2670 0.985 . S
C2684 C2685 1.363 . S
C2684 C2690 1.379 . S
C2684 N2692 1.356 . S
C2685 C2684 1.363 . S
C2685 C2691 1.363 . S
C2686 C2687 1.363 . S
C2686 C2691 1.379 . S
C2686 N2693 1.356 . S
C2687 C2686 1.363 . S
C2687 C2690 1.363 . S
N2688 C2690 1.356 . S
N2688 H2700 0.984 . S
N2688 H2701 0.985 . S
N2689 C2691 1.356 . S
N2689 H2694 0.984 . S
N2689 H2695 0.985 . S
C2690 C2684 1.379 . S
C2690 C2687 1.363 . S
C2690 N2688 1.356 . S
C2691 C2685 1.363 . S
C2691 C2686 1.379 . S
C2691 N2689 1.356 . S
N2692 C2684 1.356 . S
N2692 H2698 0.984 . S
N2692 H2699 0.984 . S
N2693 C2686 1.356 . S
N2693 H2696 0.984 . S
N2693 H2697 0.985 . S
H2694 N2689 0.984 . S
H2695 N2689 0.985 . S
H2696 N2693 0.984 . S
H2697 N2693 0.985 . S
H2698 N2692 0.984 . S
H2699 N2692 0.984 . S
H2700 N2688 0.984 . S
H2701 N2688 0.985 . S
C2702 C2703 1.363 . S
C2702 C2708 1.379 . S
C2702 N2710 1.356 . S
C2703 C2702 1.363 . S
C2703 C2709 1.363 . S
C2704 C2705 1.363 . S
C2704 C2709 1.379 . S
C2704 N2711 1.356 . S
C2705 C2704 1.363 . S
C2705 C2708 1.363 . S
N2706 C2708 1.356 . S
N2706 H2718 0.984 . S
N2706 H2719 0.985 . S
N2707 C2709 1.356 . S
N2707 H2712 0.984 . S
N2707 H2713 0.985 . S
C2708 C2702 1.379 . S
C2708 C2705 1.363 . S
C2708 N2706 1.356 . S
C2709 C2703 1.363 . S
C2709 C2704 1.379 . S
C2709 N2707 1.356 . S
N2710 C2702 1.356 . S
N2710 H2716 0.984 . S
N2710 H2717 0.984 . S
N2711 C2704 1.356 . S
N2711 H2714 0.984 . S
N2711 H2715 0.985 . S
H2712 N2707 0.984 . S
H2713 N2707 0.985 . S
H2714 N2711 0.984 . S
H2715 N2711 0.985 . S
H2716 N2710 0.984 . S
H2717 N2710 0.984 . S
H2718 N2706 0.984 . S
H2719 N2706 0.985 . S
C2720 C2721 1.363 . S
C2720 C2726 1.379 1_545 S
C2720 N2728 1.356 . S
C2721 C2720 1.363 . S
C2721 C2727 1.363 . S
C2722 C2723 1.363 . S
C2722 C2727 1.379 1_565 S
C2722 N2729 1.356 . S
C2723 C2722 1.363 . S
C2723 C2726 1.363 . S
N2724 C2726 1.356 . S
N2724 H2736 0.984 . S
N2724 H2737 0.985 . S
N2725 C2727 1.356 . S
N2725 H2730 0.984 . S
N2725 H2731 0.985 . S
C2726 C2720 1.379 1_565 S
C2726 C2723 1.363 . S
C2726 N2724 1.356 . S
C2727 C2721 1.363 . S
C2727 C2722 1.379 1_545 S
C2727 N2725 1.356 . S
N2728 C2720 1.356 . S
N2728 H2734 0.984 . S
N2728 H2735 0.984 . S
N2729 C2722 1.356 . S
N2729 H2732 0.984 . S
N2729 H2733 0.985 . S
H2730 N2725 0.984 . S
H2731 N2725 0.985 . S
H2732 N2729 0.984 . S
H2733 N2729 0.985 . S
H2734 N2728 0.984 . S
H2735 N2728 0.984 . S
H2736 N2724 0.984 . S
H2737 N2724 0.985 . S
C2738 C2739 1.363 . S
C2738 C2744 1.379 . S
C2738 N2746 1.356 . S
C2739 C2738 1.363 . S
C2739 C2745 1.363 1_545 S
C2740 C2741 1.363 1_565 S
C2740 C2745 1.379 . S
C2740 N2747 1.356 . S
C2741 C2740 1.363 1_545 S
C2741 C2744 1.363 . S
N2742 C2744 1.356 . S
N2742 H2754 0.984 . S
N2742 H2755 0.985 . S
N2743 C2745 1.356 . S
N2743 H2748 0.984 . S
N2743 H2749 0.985 . S
C2744 C2738 1.379 . S
C2744 C2741 1.363 . S
C2744 N2742 1.356 . S
C2745 C2739 1.363 1_565 S
C2745 C2740 1.379 . S
C2745 N2743 1.356 . S
N2746 C2738 1.356 . S
N2746 H2752 0.984 . S
N2746 H2753 0.984 . S
N2747 C2740 1.356 . S
N2747 H2750 0.984 . S
N2747 H2751 0.985 . S
H2748 N2743 0.984 . S
H2749 N2743 0.985 . S
H2750 N2747 0.984 . S
H2751 N2747 0.985 . S
H2752 N2746 0.984 . S
H2753 N2746 0.984 . S
H2754 N2742 0.984 . S
H2755 N2742 0.985 . S
C2756 C2757 1.363 . S
C2756 C2762 1.379 1_545 S
C2756 N2764 1.356 . S
C2757 C2756 1.363 . S
C2757 C2763 1.363 . S
C2758 C2759 1.363 . S
C2758 C2763 1.379 1_565 S
C2758 N2765 1.356 . S
C2759 C2758 1.363 . S
C2759 C2762 1.363 . S
N2760 C2762 1.356 . S
N2760 H2772 0.984 . S
N2760 H2773 0.985 . S
N2761 C2763 1.356 . S
N2761 H2766 0.984 . S
N2761 H2767 0.985 . S
C2762 C2756 1.379 1_565 S
C2762 C2759 1.363 . S
C2762 N2760 1.356 . S
C2763 C2757 1.363 . S
C2763 C2758 1.379 1_545 S
C2763 N2761 1.356 . S
N2764 C2756 1.356 . S
N2764 H2770 0.984 . S
N2764 H2771 0.984 . S
N2765 C2758 1.356 . S
N2765 H2768 0.984 . S
N2765 H2769 0.985 . S
H2766 N2761 0.984 . S
H2767 N2761 0.985 . S
H2768 N2765 0.984 . S
H2769 N2765 0.985 . S
H2770 N2764 0.984 . S
H2771 N2764 0.984 . S
H2772 N2760 0.984 . S
H2773 N2760 0.985 . S
C2774 C2775 1.363 1_554 S
C2774 C2780 1.379 . S
C2774 N2782 1.356 . S
C2775 C2774 1.363 1_556 S
C2775 C2781 1.363 1_565 S
C2776 C2777 1.363 1_546 S
C2776 C2781 1.379 . S
C2776 N2783 1.356 . S
C2777 C2776 1.363 1_564 S
C2777 C2780 1.363 . S
N2778 C2780 1.356 . S
N2778 H2790 0.984 . S
N2778 H2791 0.985 . S
N2779 C2781 1.356 . S
N2779 H2784 0.984 . S
N2779 H2785 0.985 . S
C2780 C2774 1.379 . S
C2780 C2777 1.363 . S
C2780 N2778 1.356 . S
C2781 C2775 1.363 1_545 S
C2781 C2776 1.379 . S
C2781 N2779 1.356 . S
N2782 C2774 1.356 . S
N2782 H2788 0.984 . S
N2782 H2789 0.984 . S
N2783 C2776 1.356 . S
N2783 H2786 0.984 . S
N2783 H2787 0.985 . S
H2784 N2779 0.984 . S
H2785 N2779 0.985 . S
H2786 N2783 0.984 . S
H2787 N2783 0.985 . S
H2788 N2782 0.984 . S
H2789 N2782 0.984 . S
H2790 N2778 0.984 . S
H2791 N2778 0.985 . S
C2792 C2793 1.363 . S
C2792 C2798 1.379 1_565 S
C2792 N2800 1.356 . S
C2793 C2792 1.363 . S
C2793 C2799 1.363 . S
C2794 C2795 1.363 . S
C2794 C2799 1.379 1_545 S
C2794 N2801 1.356 . S
C2795 C2794 1.363 . S
C2795 C2798 1.363 . S
N2796 C2798 1.356 . S
N2796 H2808 0.984 . S
N2796 H2809 0.985 . S
N2797 C2799 1.356 . S
N2797 H2802 0.984 . S
N2797 H2803 0.985 . S
C2798 C2792 1.379 1_545 S
C2798 C2795 1.363 . S
C2798 N2796 1.356 . S
C2799 C2793 1.363 . S
C2799 C2794 1.379 1_565 S
C2799 N2797 1.356 . S
N2800 C2792 1.356 . S
N2800 H2806 0.984 . S
N2800 H2807 0.984 . S
N2801 C2794 1.356 . S
N2801 H2804 0.984 . S
N2801 H2805 0.985 . S
H2802 N2797 0.984 . S
H2803 N2797 0.985 . S
H2804 N2801 0.984 . S
H2805 N2801 0.985 . S
H2806 N2800 0.984 . S
H2807 N2800 0.984 . S
H2808 N2796 0.984 . S
H2809 N2796 0.985 . S
C2810 C2811 1.363 . S
C2810 C2816 1.379 . S
C2810 N2818 1.356 . S
C2811 C2810 1.363 . S
C2811 C2817 1.363 1_565 S
C2812 C2813 1.363 1_545 S
C2812 C2817 1.379 . S
C2812 N2819 1.356 . S
C2813 C2812 1.363 1_565 S
C2813 C2816 1.363 . S
N2814 C2816 1.356 . S
N2814 H2826 0.984 . S
N2814 H2827 0.985 . S
N2815 C2817 1.356 . S
N2815 H2820 0.984 . S
N2815 H2821 0.985 . S
C2816 C2810 1.379 . S
C2816 C2813 1.363 . S
C2816 N2814 1.356 . S
C2817 C2811 1.363 1_545 S
C2817 C2812 1.379 . S
C2817 N2815 1.356 . S
N2818 C2810 1.356 . S
N2818 H2824 0.984 . S
N2818 H2825 0.984 . S
N2819 C2812 1.356 . S
N2819 H2822 0.984 . S
N2819 H2823 0.985 . S
H2820 N2815 0.984 . S
H2821 N2815 0.985 . S
H2822 N2819 0.984 . S
H2823 N2819 0.985 . S
H2824 N2818 0.984 . S
H2825 N2818 0.984 . S
H2826 N2814 0.984 . S
H2827 N2814 0.985 . S
C2828 C2829 1.363 . S
C2828 C2834 1.379 1_565 S
C2828 N2836 1.356 . S
C2829 C2828 1.363 . S
C2829 C2835 1.363 . S
C2830 C2831 1.363 . S
C2830 C2835 1.379 1_545 S
C2830 N2837 1.356 . S
C2831 C2830 1.363 . S
C2831 C2834 1.363 . S
N2832 C2834 1.356 . S
N2832 H2844 0.984 . S
N2832 H2845 0.985 . S
N2833 C2835 1.356 . S
N2833 H2838 0.984 . S
N2833 H2839 0.985 . S
C2834 C2828 1.379 1_545 S
C2834 C2831 1.363 . S
C2834 N2832 1.356 . S
C2835 C2829 1.363 . S
C2835 C2830 1.379 1_565 S
C2835 N2833 1.356 . S
N2836 C2828 1.356 . S
N2836 H2842 0.984 . S
N2836 H2843 0.984 . S
N2837 C2830 1.356 . S
N2837 H2840 0.984 . S
N2837 H2841 0.985 . S
H2838 N2833 0.984 . S
H2839 N2833 0.985 . S
H2840 N2837 0.984 . S
H2841 N2837 0.985 . S
H2842 N2836 0.984 . S
H2843 N2836 0.984 . S
H2844 N2832 0.984 . S
H2845 N2832 0.985 . S
C2846 C2847 1.363 . S
C2846 C2852 1.379 . S
C2846 N2854 1.356 . S
C2847 C2846 1.363 . S
C2847 C2853 1.363 1_544 S
C2848 C2849 1.363 1_565 S
C2848 C2853 1.379 . S
C2848 N2855 1.356 . S
C2849 C2848 1.363 1_545 S
C2849 C2852 1.363 1_556 S
N2850 C2852 1.356 . S
N2850 H2862 0.984 . S
N2850 H2863 0.985 . S
N2851 C2853 1.356 . S
N2851 H2856 0.984 . S
N2851 H2857 0.985 . S
C2852 C2846 1.379 . S
C2852 C2849 1.363 1_554 S
C2852 N2850 1.356 . S
C2853 C2847 1.363 1_566 S
C2853 C2848 1.379 . S
C2853 N2851 1.356 . S
N2854 C2846 1.356 . S
N2854 H2860 0.984 . S
N2854 H2861 0.984 . S
N2855 C2848 1.356 . S
N2855 H2858 0.984 . S
N2855 H2859 0.985 . S
H2856 N2851 0.984 . S
H2857 N2851 0.985 . S
H2858 N2855 0.984 . S
H2859 N2855 0.985 . S
H2860 N2854 0.984 . S
H2861 N2854 0.984 . S
H2862 N2850 0.984 . S
H2863 N2850 0.985 . S
C2864 C2865 1.363 . S
C2864 C2870 1.379 . S
C2864 N2872 1.356 . S
C2865 C2864 1.363 . S
C2865 C2871 1.363 . S
C2866 C2867 1.363 . S
C2866 C2871 1.379 . S
C2866 N2873 1.356 . S
C2867 C2866 1.363 . S
C2867 C2870 1.363 . S
N2868 C2870 1.356 . S
N2868 H2880 0.984 . S
N2868 H2881 0.985 . S
N2869 C2871 1.356 . S
N2869 H2874 0.984 . S
N2869 H2875 0.985 . S
C2870 C2864 1.379 . S
C2870 C2867 1.363 . S
C2870 N2868 1.356 . S
C2871 C2865 1.363 . S
C2871 C2866 1.379 . S
C2871 N2869 1.356 . S
N2872 C2864 1.356 . S
N2872 H2878 0.984 . S
N2872 H2879 0.984 . S
N2873 C2866 1.356 . S
N2873 H2876 0.984 . S
N2873 H2877 0.985 . S
H2874 N2869 0.984 . S
H2875 N2869 0.985 . S
H2876 N2873 0.984 . S
H2877 N2873 0.985 . S
H2878 N2872 0.984 . S
H2879 N2872 0.984 . S
H2880 N2868 0.984 . S
H2881 N2868 0.985 . S
C2882 C2883 1.363 1_554 S
C2882 C2888 1.379 . S
C2882 N2890 1.356 . S
C2883 C2882 1.363 1_556 S
C2883 C2889 1.363 . S
C2884 C2885 1.363 1_556 S
C2884 C2889 1.379 . S
C2884 N2891 1.356 . S
C2885 C2884 1.363 1_554 S
C2885 C2888 1.363 . S
N2886 C2888 1.356 . S
N2886 H2898 0.984 . S
N2886 H2899 0.985 . S
N2887 C2889 1.356 . S
N2887 H2892 0.984 . S
N2887 H2893 0.985 . S
C2888 C2882 1.379 . S
C2888 C2885 1.363 . S
C2888 N2886 1.356 . S
C2889 C2883 1.363 . S
C2889 C2884 1.379 . S
C2889 N2887 1.356 . S
N2890 C2882 1.356 . S
N2890 H2896 0.984 . S
N2890 H2897 0.984 . S
N2891 C2884 1.356 . S
N2891 H2894 0.984 . S
N2891 H2895 0.985 . S
H2892 N2887 0.984 . S
H2893 N2887 0.985 . S
H2894 N2891 0.984 . S
H2895 N2891 0.985 . S
H2896 N2890 0.984 . S
H2897 N2890 0.984 . S
H2898 N2886 0.984 . S
H2899 N2886 0.985 . S
C2900 C2901 1.363 . S
C2900 C2906 1.379 . S
C2900 N2908 1.356 . S
C2901 C2900 1.363 . S
C2901 C2907 1.363 . S
C2902 C2903 1.363 . S
C2902 C2907 1.379 . S
C2902 N2909 1.356 . S
C2903 C2902 1.363 . S
C2903 C2906 1.363 . S
N2904 C2906 1.356 . S
N2904 H2916 0.984 . S
N2904 H2917 0.985 . S
N2905 C2907 1.356 . S
N2905 H2910 0.984 . S
N2905 H2911 0.985 . S
C2906 C2900 1.379 . S
C2906 C2903 1.363 . S
C2906 N2904 1.356 . S
C2907 C2901 1.363 . S
C2907 C2902 1.379 . S
C2907 N2905 1.356 . S
N2908 C2900 1.356 . S
N2908 H2914 0.984 . S
N2908 H2915 0.984 . S
N2909 C2902 1.356 . S
N2909 H2912 0.984 . S
N2909 H2913 0.985 . S
H2910 N2905 0.984 . S
H2911 N2905 0.985 . S
H2912 N2909 0.984 . S
H2913 N2909 0.985 . S
H2914 N2908 0.984 . S
H2915 N2908 0.984 . S
H2916 N2904 0.984 . S
H2917 N2904 0.985 . S
C2918 C2919 1.363 . S
C2918 C2924 1.379 . S
C2918 N2926 1.356 . S
C2919 C2918 1.363 . S
C2919 C2925 1.363 . S
C2920 C2921 1.363 . S
C2920 C2925 1.379 . S
C2920 N2927 1.356 . S
C2921 C2920 1.363 . S
C2921 C2924 1.363 . S
N2922 C2924 1.356 . S
N2922 H2934 0.984 . S
N2922 H2935 0.985 . S
N2923 C2925 1.356 . S
N2923 H2928 0.984 . S
N2923 H2929 0.985 . S
C2924 C2918 1.379 . S
C2924 C2921 1.363 . S
C2924 N2922 1.356 . S
C2925 C2919 1.363 . S
C2925 C2920 1.379 . S
C2925 N2923 1.356 . S
N2926 C2918 1.356 . S
N2926 H2932 0.984 . S
N2926 H2933 0.984 . S
N2927 C2920 1.356 . S
N2927 H2930 0.984 . S
N2927 H2931 0.985 . S
H2928 N2923 0.984 . S
H2929 N2923 0.985 . S
H2930 N2927 0.984 . S
H2931 N2927 0.985 . S
H2932 N2926 0.984 . S
H2933 N2926 0.984 . S
H2934 N2922 0.984 . S
H2935 N2922 0.985 . S
C2936 C2937 1.363 . S
C2936 C2942 1.379 . S
C2936 N2944 1.356 . S
C2937 C2936 1.363 . S
C2937 C2943 1.363 . S
C2938 C2939 1.363 . S
C2938 C2943 1.379 . S
C2938 N2945 1.356 . S
C2939 C2938 1.363 . S
C2939 C2942 1.363 . S
N2940 C2942 1.356 . S
N2940 H2952 0.984 . S
N2940 H2953 0.985 . S
N2941 C2943 1.356 . S
N2941 H2946 0.984 . S
N2941 H2947 0.985 . S
C2942 C2936 1.379 . S
C2942 C2939 1.363 . S
C2942 N2940 1.356 . S
C2943 C2937 1.363 . S
C2943 C2938 1.379 . S
C2943 N2941 1.356 . S
N2944 C2936 1.356 . S
N2944 H2950 0.984 . S
N2944 H2951 0.984 . S
N2945 C2938 1.356 . S
N2945 H2948 0.984 . S
N2945 H2949 0.985 . S
H2946 N2941 0.984 . S
H2947 N2941 0.985 . S
H2948 N2945 0.984 . S
H2949 N2945 0.985 . S
H2950 N2944 0.984 . S
H2951 N2944 0.984 . S
H2952 N2940 0.984 . S
H2953 N2940 0.985 . S
C2954 C2955 1.363 . S
C2954 C2960 1.379 . S
C2954 N2962 1.356 . S
C2955 C2954 1.363 . S
C2955 C2961 1.363 1_556 S
C2956 C2957 1.363 . S
C2956 C2961 1.379 . S
C2956 N2963 1.356 . S
C2957 C2956 1.363 . S
C2957 C2960 1.363 1_554 S
N2958 C2960 1.356 . S
N2958 H2970 0.984 . S
N2958 H2971 0.985 . S
N2959 C2961 1.356 . S
N2959 H2964 0.984 . S
N2959 H2965 0.985 . S
C2960 C2954 1.379 . S
C2960 C2957 1.363 1_556 S
C2960 N2958 1.356 . S
C2961 C2955 1.363 1_554 S
C2961 C2956 1.379 . S
C2961 N2959 1.356 . S
N2962 C2954 1.356 . S
N2962 H2968 0.984 . S
N2962 H2969 0.984 . S
N2963 C2956 1.356 . S
N2963 H2966 0.984 . S
N2963 H2967 0.985 . S
H2964 N2959 0.984 . S
H2965 N2959 0.985 . S
H2966 N2963 0.984 . S
H2967 N2963 0.985 . S
H2968 N2962 0.984 . S
H2969 N2962 0.984 . S
H2970 N2958 0.984 . S
H2971 N2958 0.985 . S
C2972 C2973 1.363 . S
C2972 C2978 1.379 . S
C2972 N2980 1.356 . S
C2973 C2972 1.363 . S
C2973 C2979 1.363 . S
C2974 C2975 1.363 . S
C2974 C2979 1.379 . S
C2974 N2981 1.356 . S
C2975 C2974 1.363 . S
C2975 C2978 1.363 . S
N2976 C2978 1.356 . S
N2976 H2988 0.984 . S
N2976 H2989 0.985 . S
N2977 C2979 1.356 . S
N2977 H2982 0.984 . S
N2977 H2983 0.985 . S
C2978 C2972 1.379 . S
C2978 C2975 1.363 . S
C2978 N2976 1.356 . S
C2979 C2973 1.363 . S
C2979 C2974 1.379 . S
C2979 N2977 1.356 . S
N2980 C2972 1.356 . S
N2980 H2986 0.984 . S
N2980 H2987 0.984 . S
N2981 C2974 1.356 . S
N2981 H2984 0.984 . S
N2981 H2985 0.985 . S
H2982 N2977 0.984 . S
H2983 N2977 0.985 . S
H2984 N2981 0.984 . S
H2985 N2981 0.985 . S
H2986 N2980 0.984 . S
H2987 N2980 0.984 . S
H2988 N2976 0.984 . S
H2989 N2976 0.985 . S
C2990 C2991 1.363 . S
C2990 C2996 1.379 . S
C2990 N2998 1.356 . S
C2991 C2990 1.363 . S
C2991 C2997 1.363 . S
C2992 C2993 1.363 . S
C2992 C2997 1.379 . S
C2992 N2999 1.356 . S
C2993 C2992 1.363 . S
C2993 C2996 1.363 . S
N2994 C2996 1.356 . S
N2994 H3006 0.984 . S
N2994 H3007 0.985 . S
N2995 C2997 1.356 . S
N2995 H3000 0.984 . S
N2995 H3001 0.985 . S
C2996 C2990 1.379 . S
C2996 C2993 1.363 . S
C2996 N2994 1.356 . S
C2997 C2991 1.363 . S
C2997 C2992 1.379 . S
C2997 N2995 1.356 . S
N2998 C2990 1.356 . S
N2998 H3004 0.984 . S
N2998 H3005 0.984 . S
N2999 C2992 1.356 . S
N2999 H3002 0.984 . S
N2999 H3003 0.985 . S
H3000 N2995 0.984 . S
H3001 N2995 0.985 . S
H3002 N2999 0.984 . S
H3003 N2999 0.985 . S
H3004 N2998 0.984 . S
H3005 N2998 0.984 . S
H3006 N2994 0.984 . S
H3007 N2994 0.985 . S
C1281 C15 0.927 . S
C1283 C1089 0.895 . S
C1299 C55 0.927 . S
C1301 C329 0.895 . S
C1317 C95 0.927 . S
C1319 C1009 0.895 . S
C1335 C409 0.895 . S
C1337 C135 0.927 . S
C1353 C175 0.927 . S
C1355 C1169 0.895 . S
C1371 C569 0.895 . S
C1373 C215 0.927 . S
C1389 C1249 0.895 . S
C1391 C255 0.927 . S
C1407 C295 0.927 . S
C1409 C489 0.895 . S
C1425 C325 0.927 . S
C1427 C779 0.895 . S
C1443 C365 0.927 . S
C1445 C19 0.895 . S
C1461 C699 0.895 . S
C1463 C405 0.927 . S
C1479 C99 0.895 . S
C1481 C445 0.927 . S
C1497 C485 0.927 . S
C1499 C859 0.895 . S
C1515 C525 0.927 . S
C1517 C259 0.895 . S
C1533 C565 0.927 . S
C1535 C939 0.895 . S
C1551 C179 0.895 . S
C1553 C605 0.927 . S
C1569 C449 0.895 . S
C1571 C655 0.927 . S
C1587 C969 0.895 . S
C1589 C695 0.927 . S
C1605 C369 0.895 . S
C1607 C735 0.927 . S
C1623 C775 0.927 . S
C1625 C1049 0.895 . S
C1641 C529 0.895 . S
C1643 C815 0.927 . S
C1659 C1209 0.895 . S
C1661 C855 0.927 . S
C1677 C609 0.895 . S
C1679 C895 0.927 . S
C1695 C935 0.927 . S
C1697 C1129 0.895 . S
C1713 C965 0.927 . S
C1715 C139 0.895 . S
C1731 C1005 0.927 . S
C1733 C659 0.895 . S
C1749 C1045 0.927 . S
C1751 C59 0.895 . S
C1767 C1085 0.927 . S
C1769 C739 0.895 . S
C1785 C219 0.895 . S
C1787 C1125 0.927 . S
C1803 C899 0.895 . S
C1805 C1165 0.927 . S
C1821 C1205 0.927 . S
C1823 C299 0.895 . S
C1839 C1245 0.927 . S
C1841 C819 0.895 . S
C1857 C8 3.092 . S
C1859 C728 3.092 . S
C1875 C768 3.092 1_455 S
C1877 C48 3.092 1_655 S
C1893 C88 3.092 . S
C1895 C648 3.092 . S
C1911 C128 3.092 . S
C1913 C688 3.092 . S
C1929 C888 3.092 . S
C1931 C168 3.092 . S
C1947 C208 3.092 . S
C1949 C928 3.092 . S
C1965 C808 3.092 . S
C1967 C248 3.092 . S
C1983 C288 3.092 1_655 S
C1985 C848 3.092 1_455 S
C2001 C1058 3.092 . S
C2003 C338 3.092 . S
C2019 C378 3.092 1_455 S
C2021 C1098 3.092 1_655 S
C2037 C418 3.092 . S
C2039 C978 3.092 . S
C2055 C458 3.092 . S
C2057 C1018 3.092 . S
C2073 C1218 3.092 . S
C2075 C498 3.092 . S
C2091 C1258 3.092 . S
C2093 C538 3.092 . S
C2109 C578 3.092 . S
C2111 C1138 3.092 . S
C2127 C618 3.092 1_455 S
C2129 C1178 3.092 1_655 S
C2145 C9 3.425 . S
C2147 C979 3.425 . S
C2163 C379 3.425 1_565 S
C2165 C49 3.425 1_545 S
C2181 C89 3.425 . S
C2183 C1059 3.425 . S
C2199 C129 3.425 1_565 S
C2201 C459 3.425 1_545 S
C2217 C1139 3.425 . S
C2219 C169 3.425 . S
C2235 C539 3.425 1_565 S
C2237 C209 3.425 1_545 S
C2253 C249 3.425 . S
C2255 C1219 3.425 . S
C2271 C289 3.425 1_565 S
C2273 C619 3.425 1_545 S
C2289 C649 3.425 . S
C2291 C339 3.425 . S
C2307 C729 3.425 . S
C2309 C419 3.425 . S
C2325 C809 3.425 . S
C2327 C499 3.425 . S
C2343 C579 3.425 . S
C2345 C889 3.425 . S
C2361 C689 3.425 . S
C2363 C1019 3.425 . S
C2379 C769 3.425 . S
C2381 C1099 3.425 . S
C2397 C1179 3.425 . S
C2399 C849 3.425 . S
C2415 C1259 3.425 . S
C2417 C929 3.425 . S
C2433 C18 4.571 . S
C2435 C218 4.571 . S
C2451 C258 4.571 . S
C2453 C58 4.571 . S
C2469 C298 4.571 . S
C2471 C98 4.571 . S
C2487 C178 4.571 . S
C2489 C138 4.571 . S
C2505 C328 4.571 . S
C2507 C528 4.571 . S
C2523 C368 4.571 . S
C2525 C568 4.571 . S
C2541 C608 4.571 . S
C2543 C408 4.571 . S
C2559 C448 4.571 . S
C2561 C488 4.571 . S
C2577 C658 4.571 . S
C2579 C858 4.571 . S
C2595 C698 4.571 . S
C2597 C898 4.571 . S
C2613 C738 4.571 . S
C2615 C938 4.571 . S
C2631 C818 4.571 . S
C2633 C778 4.571 . S
C2649 C968 4.571 . S
C2651 C1168 4.571 . S
C2667 C1008 4.571 . S
C2669 C1208 4.571 . S
C2685 C1248 4.571 . S
C2687 C1048 4.571 . S
C2703 C1088 4.571 . S
C2705 C1128 4.571 . S
C2721 C5 0.586 . S
C2723 C165 0.586 . S
C2739 C45 0.586 1_545 S
C2741 C205 0.586 1_545 S
C2757 C245 0.586 . S
C2759 C85 0.586 . S
C2775 C285 0.586 1_565 S
C2777 C125 0.586 1_565 S
C2793 C335 0.586 . S
C2795 C495 0.586 . S
C2811 C535 0.586 1_565 S
C2813 C375 0.586 1_565 S
C2829 C575 0.586 . S
C2831 C415 0.586 . S
C2847 C615 0.586 1_545 S
C2849 C455 0.586 1_545 S
C2865 C645 0.586 . S
C2867 C805 0.586 . S
C2883 C845 0.586 . S
C2885 C685 0.586 . S
C2901 C725 0.586 . S
C2903 C885 0.586 . S
C2919 C925 0.586 . S
C2921 C765 0.586 . S
C2937 C1135 0.586 . S
C2939 C975 0.586 . S
C2955 C1015 0.586 . S
C2957 C1175 0.586 . S
C2973 C1055 0.586 . S
C2975 C1215 0.586 . S
C2991 C1095 0.586 . S
C2993 C1255 0.586 . S
