# Generated by pormake.
# Topology ukw, (4)-cn, num edge types: 1
# Building blocks:
#     Node 0, Type 0, BuildingBlock: NAWXER_clean_sbu_0, # of connection points: 4
#     Node 1, Type 0, BuildingBlock: NAWXER_clean_sbu_0, # of connection points: 4
#     Node 2, Type 0, BuildingBlock: NAWXER_clean_sbu_0, # of connection points: 4
#     Node 3, Type 0, BuildingBlock: NAWXER_clean_sbu_0, # of connection points: 4
#     Node 4, Type 0, BuildingBlock: NAWXER_clean_sbu_0, # of connection points: 4
#     Node 5, Type 0, BuildingBlock: NAWXER_clean_sbu_0, # of connection points: 4
#     Node 6, Type 0, BuildingBlock: NAWXER_clean_sbu_0, # of connection points: 4
#     Node 7, Type 0, BuildingBlock: NAWXER_clean_sbu_0, # of connection points: 4
#     Node 8, Type 0, BuildingBlock: NAWXER_clean_sbu_0, # of connection points: 4
#     Node 9, Type 0, BuildingBlock: NAWXER_clean_sbu_0, # of connection points: 4
#     Node 10, Type 0, BuildingBlock: NAWXER_clean_sbu_0, # of connection points: 4
#     Node 11, Type 0, BuildingBlock: NAWXER_clean_sbu_0, # of connection points: 4
#     Node 12, Type 0, BuildingBlock: NAWXER_clean_sbu_0, # of connection points: 4
#     Node 13, Type 0, BuildingBlock: NAWXER_clean_sbu_0, # of connection points: 4
#     Node 14, Type 0, BuildingBlock: NAWXER_clean_sbu_0, # of connection points: 4
#     Node 15, Type 0, BuildingBlock: NAWXER_clean_sbu_0, # of connection points: 4
#     Node 16, Type 0, BuildingBlock: NAWXER_clean_sbu_0, # of connection points: 4
#     Node 17, Type 0, BuildingBlock: NAWXER_clean_sbu_0, # of connection points: 4
#     Node 18, Type 0, BuildingBlock: NAWXER_clean_sbu_0, # of connection points: 4
#     Node 19, Type 0, BuildingBlock: NAWXER_clean_sbu_0, # of connection points: 4
#     Node 20, Type 0, BuildingBlock: NAWXER_clean_sbu_0, # of connection points: 4
#     Node 21, Type 0, BuildingBlock: NAWXER_clean_sbu_0, # of connection points: 4
#     Node 22, Type 0, BuildingBlock: NAWXER_clean_sbu_0, # of connection points: 4
#     Node 23, Type 0, BuildingBlock: NAWXER_clean_sbu_0, # of connection points: 4
#     Node 24, Type 0, BuildingBlock: NAWXER_clean_sbu_0, # of connection points: 4
#     Node 25, Type 0, BuildingBlock: NAWXER_clean_sbu_0, # of connection points: 4
#     Node 26, Type 0, BuildingBlock: NAWXER_clean_sbu_0, # of connection points: 4
#     Node 27, Type 0, BuildingBlock: NAWXER_clean_sbu_0, # of connection points: 4
#     Node 28, Type 0, BuildingBlock: NAWXER_clean_sbu_0, # of connection points: 4
#     Node 29, Type 0, BuildingBlock: NAWXER_clean_sbu_0, # of connection points: 4
#     Node 30, Type 0, BuildingBlock: NAWXER_clean_sbu_0, # of connection points: 4
#     Node 31, Type 0, BuildingBlock: NAWXER_clean_sbu_0, # of connection points: 4
#     Node 32, Type 0, BuildingBlock: NAWXER_clean_sbu_0, # of connection points: 4
#     Node 33, Type 0, BuildingBlock: NAWXER_clean_sbu_0, # of connection points: 4
#     Node 34, Type 0, BuildingBlock: NAWXER_clean_sbu_0, # of connection points: 4
#     Node 35, Type 0, BuildingBlock: NAWXER_clean_sbu_0, # of connection points: 4
#     Node 36, Type 0, BuildingBlock: NAWXER_clean_sbu_0, # of connection points: 4
#     Node 37, Type 0, BuildingBlock: NAWXER_clean_sbu_0, # of connection points: 4
#     Node 38, Type 0, BuildingBlock: NAWXER_clean_sbu_0, # of connection points: 4
#     Node 39, Type 0, BuildingBlock: NAWXER_clean_sbu_0, # of connection points: 4
#     Node 40, Type 0, BuildingBlock: NAWXER_clean_sbu_0, # of connection points: 4
#     Node 41, Type 0, BuildingBlock: NAWXER_clean_sbu_0, # of connection points: 4
#     Node 42, Type 0, BuildingBlock: NAWXER_clean_sbu_0, # of connection points: 4
#     Node 43, Type 0, BuildingBlock: NAWXER_clean_sbu_0, # of connection points: 4
#     Node 44, Type 0, BuildingBlock: NAWXER_clean_sbu_0, # of connection points: 4
#     Node 45, Type 0, BuildingBlock: NAWXER_clean_sbu_0, # of connection points: 4
#     Node 46, Type 0, BuildingBlock: NAWXER_clean_sbu_0, # of connection points: 4
#     Node 47, Type 0, BuildingBlock: NAWXER_clean_sbu_0, # of connection points: 4
#     Node 48, Type 0, BuildingBlock: NAWXER_clean_sbu_0, # of connection points: 4
#     Node 49, Type 0, BuildingBlock: NAWXER_clean_sbu_0, # of connection points: 4
#     Node 50, Type 0, BuildingBlock: NAWXER_clean_sbu_0, # of connection points: 4
#     Node 51, Type 0, BuildingBlock: NAWXER_clean_sbu_0, # of connection points: 4
#     Node 52, Type 0, BuildingBlock: NAWXER_clean_sbu_0, # of connection points: 4
#     Node 53, Type 0, BuildingBlock: NAWXER_clean_sbu_0, # of connection points: 4
#     Node 54, Type 0, BuildingBlock: NAWXER_clean_sbu_0, # of connection points: 4
#     Node 55, Type 0, BuildingBlock: NAWXER_clean_sbu_0, # of connection points: 4
#     Node 56, Type 0, BuildingBlock: NAWXER_clean_sbu_0, # of connection points: 4
#     Node 57, Type 0, BuildingBlock: NAWXER_clean_sbu_0, # of connection points: 4
#     Node 58, Type 0, BuildingBlock: NAWXER_clean_sbu_0, # of connection points: 4
#     Node 59, Type 0, BuildingBlock: NAWXER_clean_sbu_0, # of connection points: 4
#     Node 60, Type 0, BuildingBlock: NAWXER_clean_sbu_0, # of connection points: 4
#     Node 61, Type 0, BuildingBlock: NAWXER_clean_sbu_0, # of connection points: 4
#     Node 62, Type 0, BuildingBlock: NAWXER_clean_sbu_0, # of connection points: 4
#     Node 63, Type 0, BuildingBlock: NAWXER_clean_sbu_0, # of connection points: 4
#     Node 64, Type 0, BuildingBlock: NAWXER_clean_sbu_0, # of connection points: 4
#     Node 65, Type 0, BuildingBlock: NAWXER_clean_sbu_0, # of connection points: 4
#     Node 66, Type 0, BuildingBlock: NAWXER_clean_sbu_0, # of connection points: 4
#     Node 67, Type 0, BuildingBlock: NAWXER_clean_sbu_0, # of connection points: 4
#     Node 68, Type 0, BuildingBlock: NAWXER_clean_sbu_0, # of connection points: 4
#     Node 69, Type 0, BuildingBlock: NAWXER_clean_sbu_0, # of connection points: 4
#     Node 70, Type 0, BuildingBlock: NAWXER_clean_sbu_0, # of connection points: 4
#     Node 71, Type 0, BuildingBlock: NAWXER_clean_sbu_0, # of connection points: 4
#     Node 72, Type 0, BuildingBlock: NAWXER_clean_sbu_0, # of connection points: 4
#     Node 73, Type 0, BuildingBlock: NAWXER_clean_sbu_0, # of connection points: 4
#     Node 74, Type 0, BuildingBlock: NAWXER_clean_sbu_0, # of connection points: 4
#     Node 75, Type 0, BuildingBlock: NAWXER_clean_sbu_0, # of connection points: 4
#     Node 76, Type 0, BuildingBlock: NAWXER_clean_sbu_0, # of connection points: 4
#     Node 77, Type 0, BuildingBlock: NAWXER_clean_sbu_0, # of connection points: 4
#     Node 78, Type 0, BuildingBlock: NAWXER_clean_sbu_0, # of connection points: 4
#     Node 79, Type 0, BuildingBlock: NAWXER_clean_sbu_0, # of connection points: 4
#     Node 80, Type 0, BuildingBlock: NAWXER_clean_sbu_0, # of connection points: 4
#     Node 81, Type 0, BuildingBlock: NAWXER_clean_sbu_0, # of connection points: 4
#     Node 82, Type 0, BuildingBlock: NAWXER_clean_sbu_0, # of connection points: 4
#     Node 83, Type 0, BuildingBlock: NAWXER_clean_sbu_0, # of connection points: 4
#     Node 84, Type 0, BuildingBlock: NAWXER_clean_sbu_0, # of connection points: 4
#     Node 85, Type 0, BuildingBlock: NAWXER_clean_sbu_0, # of connection points: 4
#     Node 86, Type 0, BuildingBlock: NAWXER_clean_sbu_0, # of connection points: 4
#     Node 87, Type 0, BuildingBlock: NAWXER_clean_sbu_0, # of connection points: 4
#     Node 88, Type 0, BuildingBlock: NAWXER_clean_sbu_0, # of connection points: 4
#     Node 89, Type 0, BuildingBlock: NAWXER_clean_sbu_0, # of connection points: 4
#     Node 90, Type 0, BuildingBlock: NAWXER_clean_sbu_0, # of connection points: 4
#     Node 91, Type 0, BuildingBlock: NAWXER_clean_sbu_0, # of connection points: 4
#     Node 92, Type 0, BuildingBlock: NAWXER_clean_sbu_0, # of connection points: 4
#     Node 93, Type 0, BuildingBlock: NAWXER_clean_sbu_0, # of connection points: 4
#     Node 94, Type 0, BuildingBlock: NAWXER_clean_sbu_0, # of connection points: 4
#     Node 95, Type 0, BuildingBlock: NAWXER_clean_sbu_0, # of connection points: 4
#     Edge 96, Type (0, 0), BuildingBlock: AJUNOK_clean_linker_0, # of connection points: 2
#     Edge 97, Type (0, 0), BuildingBlock: AJUNOK_clean_linker_0, # of connection points: 2
#     Edge 98, Type (0, 0), BuildingBlock: AJUNOK_clean_linker_0, # of connection points: 2
#     Edge 99, Type (0, 0), BuildingBlock: AJUNOK_clean_linker_0, # of connection points: 2
#     Edge 100, Type (0, 0), BuildingBlock: AJUNOK_clean_linker_0, # of connection points: 2
#     Edge 101, Type (0, 0), BuildingBlock: AJUNOK_clean_linker_0, # of connection points: 2
#     Edge 102, Type (0, 0), BuildingBlock: AJUNOK_clean_linker_0, # of connection points: 2
#     Edge 103, Type (0, 0), BuildingBlock: AJUNOK_clean_linker_0, # of connection points: 2
#     Edge 104, Type (0, 0), BuildingBlock: AJUNOK_clean_linker_0, # of connection points: 2
#     Edge 105, Type (0, 0), BuildingBlock: AJUNOK_clean_linker_0, # of connection points: 2
#     Edge 106, Type (0, 0), BuildingBlock: AJUNOK_clean_linker_0, # of connection points: 2
#     Edge 107, Type (0, 0), BuildingBlock: AJUNOK_clean_linker_0, # of connection points: 2
#     Edge 108, Type (0, 0), BuildingBlock: AJUNOK_clean_linker_0, # of connection points: 2
#     Edge 109, Type (0, 0), BuildingBlock: AJUNOK_clean_linker_0, # of connection points: 2
#     Edge 110, Type (0, 0), BuildingBlock: AJUNOK_clean_linker_0, # of connection points: 2
#     Edge 111, Type (0, 0), BuildingBlock: AJUNOK_clean_linker_0, # of connection points: 2
#     Edge 112, Type (0, 0), BuildingBlock: AJUNOK_clean_linker_0, # of connection points: 2
#     Edge 113, Type (0, 0), BuildingBlock: AJUNOK_clean_linker_0, # of connection points: 2
#     Edge 114, Type (0, 0), BuildingBlock: AJUNOK_clean_linker_0, # of connection points: 2
#     Edge 115, Type (0, 0), BuildingBlock: AJUNOK_clean_linker_0, # of connection points: 2
#     Edge 116, Type (0, 0), BuildingBlock: AJUNOK_clean_linker_0, # of connection points: 2
#     Edge 117, Type (0, 0), BuildingBlock: AJUNOK_clean_linker_0, # of connection points: 2
#     Edge 118, Type (0, 0), BuildingBlock: AJUNOK_clean_linker_0, # of connection points: 2
#     Edge 119, Type (0, 0), BuildingBlock: AJUNOK_clean_linker_0, # of connection points: 2
#     Edge 120, Type (0, 0), BuildingBlock: AJUNOK_clean_linker_0, # of connection points: 2
#     Edge 121, Type (0, 0), BuildingBlock: AJUNOK_clean_linker_0, # of connection points: 2
#     Edge 122, Type (0, 0), BuildingBlock: AJUNOK_clean_linker_0, # of connection points: 2
#     Edge 123, Type (0, 0), BuildingBlock: AJUNOK_clean_linker_0, # of connection points: 2
#     Edge 124, Type (0, 0), BuildingBlock: AJUNOK_clean_linker_0, # of connection points: 2
#     Edge 125, Type (0, 0), BuildingBlock: AJUNOK_clean_linker_0, # of connection points: 2
#     Edge 126, Type (0, 0), BuildingBlock: AJUNOK_clean_linker_0, # of connection points: 2
#     Edge 127, Type (0, 0), BuildingBlock: AJUNOK_clean_linker_0, # of connection points: 2
#     Edge 128, Type (0, 0), BuildingBlock: AJUNOK_clean_linker_0, # of connection points: 2
#     Edge 129, Type (0, 0), BuildingBlock: AJUNOK_clean_linker_0, # of connection points: 2
#     Edge 130, Type (0, 0), BuildingBlock: AJUNOK_clean_linker_0, # of connection points: 2
#     Edge 131, Type (0, 0), BuildingBlock: AJUNOK_clean_linker_0, # of connection points: 2
#     Edge 132, Type (0, 0), BuildingBlock: AJUNOK_clean_linker_0, # of connection points: 2
#     Edge 133, Type (0, 0), BuildingBlock: AJUNOK_clean_linker_0, # of connection points: 2
#     Edge 134, Type (0, 0), BuildingBlock: AJUNOK_clean_linker_0, # of connection points: 2
#     Edge 135, Type (0, 0), BuildingBlock: AJUNOK_clean_linker_0, # of connection points: 2
#     Edge 136, Type (0, 0), BuildingBlock: AJUNOK_clean_linker_0, # of connection points: 2
#     Edge 137, Type (0, 0), BuildingBlock: AJUNOK_clean_linker_0, # of connection points: 2
#     Edge 138, Type (0, 0), BuildingBlock: AJUNOK_clean_linker_0, # of connection points: 2
#     Edge 139, Type (0, 0), BuildingBlock: AJUNOK_clean_linker_0, # of connection points: 2
#     Edge 140, Type (0, 0), BuildingBlock: AJUNOK_clean_linker_0, # of connection points: 2
#     Edge 141, Type (0, 0), BuildingBlock: AJUNOK_clean_linker_0, # of connection points: 2
#     Edge 142, Type (0, 0), BuildingBlock: AJUNOK_clean_linker_0, # of connection points: 2
#     Edge 143, Type (0, 0), BuildingBlock: AJUNOK_clean_linker_0, # of connection points: 2
#     Edge 144, Type (0, 0), BuildingBlock: AJUNOK_clean_linker_0, # of connection points: 2
#     Edge 145, Type (0, 0), BuildingBlock: AJUNOK_clean_linker_0, # of connection points: 2
#     Edge 146, Type (0, 0), BuildingBlock: AJUNOK_clean_linker_0, # of connection points: 2
#     Edge 147, Type (0, 0), BuildingBlock: AJUNOK_clean_linker_0, # of connection points: 2
#     Edge 148, Type (0, 0), BuildingBlock: AJUNOK_clean_linker_0, # of connection points: 2
#     Edge 149, Type (0, 0), BuildingBlock: AJUNOK_clean_linker_0, # of connection points: 2
#     Edge 150, Type (0, 0), BuildingBlock: AJUNOK_clean_linker_0, # of connection points: 2
#     Edge 151, Type (0, 0), BuildingBlock: AJUNOK_clean_linker_0, # of connection points: 2
#     Edge 152, Type (0, 0), BuildingBlock: AJUNOK_clean_linker_0, # of connection points: 2
#     Edge 153, Type (0, 0), BuildingBlock: AJUNOK_clean_linker_0, # of connection points: 2
#     Edge 154, Type (0, 0), BuildingBlock: AJUNOK_clean_linker_0, # of connection points: 2
#     Edge 155, Type (0, 0), BuildingBlock: AJUNOK_clean_linker_0, # of connection points: 2
#     Edge 156, Type (0, 0), BuildingBlock: AJUNOK_clean_linker_0, # of connection points: 2
#     Edge 157, Type (0, 0), BuildingBlock: AJUNOK_clean_linker_0, # of connection points: 2
#     Edge 158, Type (0, 0), BuildingBlock: AJUNOK_clean_linker_0, # of connection points: 2
#     Edge 159, Type (0, 0), BuildingBlock: AJUNOK_clean_linker_0, # of connection points: 2
#     Edge 160, Type (0, 0), BuildingBlock: AJUNOK_clean_linker_0, # of connection points: 2
#     Edge 161, Type (0, 0), BuildingBlock: AJUNOK_clean_linker_0, # of connection points: 2
#     Edge 162, Type (0, 0), BuildingBlock: AJUNOK_clean_linker_0, # of connection points: 2
#     Edge 163, Type (0, 0), BuildingBlock: AJUNOK_clean_linker_0, # of connection points: 2
#     Edge 164, Type (0, 0), BuildingBlock: AJUNOK_clean_linker_0, # of connection points: 2
#     Edge 165, Type (0, 0), BuildingBlock: AJUNOK_clean_linker_0, # of connection points: 2
#     Edge 166, Type (0, 0), BuildingBlock: AJUNOK_clean_linker_0, # of connection points: 2
#     Edge 167, Type (0, 0), BuildingBlock: AJUNOK_clean_linker_0, # of connection points: 2
#     Edge 168, Type (0, 0), BuildingBlock: AJUNOK_clean_linker_0, # of connection points: 2
#     Edge 169, Type (0, 0), BuildingBlock: AJUNOK_clean_linker_0, # of connection points: 2
#     Edge 170, Type (0, 0), BuildingBlock: AJUNOK_clean_linker_0, # of connection points: 2
#     Edge 171, Type (0, 0), BuildingBlock: AJUNOK_clean_linker_0, # of connection points: 2
#     Edge 172, Type (0, 0), BuildingBlock: AJUNOK_clean_linker_0, # of connection points: 2
#     Edge 173, Type (0, 0), BuildingBlock: AJUNOK_clean_linker_0, # of connection points: 2
#     Edge 174, Type (0, 0), BuildingBlock: AJUNOK_clean_linker_0, # of connection points: 2
#     Edge 175, Type (0, 0), BuildingBlock: AJUNOK_clean_linker_0, # of connection points: 2
#     Edge 176, Type (0, 0), BuildingBlock: AJUNOK_clean_linker_0, # of connection points: 2
#     Edge 177, Type (0, 0), BuildingBlock: AJUNOK_clean_linker_0, # of connection points: 2
#     Edge 178, Type (0, 0), BuildingBlock: AJUNOK_clean_linker_0, # of connection points: 2
#     Edge 179, Type (0, 0), BuildingBlock: AJUNOK_clean_linker_0, # of connection points: 2
#     Edge 180, Type (0, 0), BuildingBlock: AJUNOK_clean_linker_0, # of connection points: 2
#     Edge 181, Type (0, 0), BuildingBlock: AJUNOK_clean_linker_0, # of connection points: 2
#     Edge 182, Type (0, 0), BuildingBlock: AJUNOK_clean_linker_0, # of connection points: 2
#     Edge 183, Type (0, 0), BuildingBlock: AJUNOK_clean_linker_0, # of connection points: 2
#     Edge 184, Type (0, 0), BuildingBlock: AJUNOK_clean_linker_0, # of connection points: 2
#     Edge 185, Type (0, 0), BuildingBlock: AJUNOK_clean_linker_0, # of connection points: 2
#     Edge 186, Type (0, 0), BuildingBlock: AJUNOK_clean_linker_0, # of connection points: 2
#     Edge 187, Type (0, 0), BuildingBlock: AJUNOK_clean_linker_0, # of connection points: 2
#     Edge 188, Type (0, 0), BuildingBlock: AJUNOK_clean_linker_0, # of connection points: 2
#     Edge 189, Type (0, 0), BuildingBlock: AJUNOK_clean_linker_0, # of connection points: 2
#     Edge 190, Type (0, 0), BuildingBlock: AJUNOK_clean_linker_0, # of connection points: 2
#     Edge 191, Type (0, 0), BuildingBlock: AJUNOK_clean_linker_0, # of connection points: 2
#     Edge 192, Type (0, 0), BuildingBlock: AJUNOK_clean_linker_0, # of connection points: 2
#     Edge 193, Type (0, 0), BuildingBlock: AJUNOK_clean_linker_0, # of connection points: 2
#     Edge 194, Type (0, 0), BuildingBlock: AJUNOK_clean_linker_0, # of connection points: 2
#     Edge 195, Type (0, 0), BuildingBlock: AJUNOK_clean_linker_0, # of connection points: 2
#     Edge 196, Type (0, 0), BuildingBlock: AJUNOK_clean_linker_0, # of connection points: 2
#     Edge 197, Type (0, 0), BuildingBlock: AJUNOK_clean_linker_0, # of connection points: 2
#     Edge 198, Type (0, 0), BuildingBlock: AJUNOK_clean_linker_0, # of connection points: 2
#     Edge 199, Type (0, 0), BuildingBlock: AJUNOK_clean_linker_0, # of connection points: 2
#     Edge 200, Type (0, 0), BuildingBlock: AJUNOK_clean_linker_0, # of connection points: 2
#     Edge 201, Type (0, 0), BuildingBlock: AJUNOK_clean_linker_0, # of connection points: 2
#     Edge 202, Type (0, 0), BuildingBlock: AJUNOK_clean_linker_0, # of connection points: 2
#     Edge 203, Type (0, 0), BuildingBlock: AJUNOK_clean_linker_0, # of connection points: 2
#     Edge 204, Type (0, 0), BuildingBlock: AJUNOK_clean_linker_0, # of connection points: 2
#     Edge 205, Type (0, 0), BuildingBlock: AJUNOK_clean_linker_0, # of connection points: 2
#     Edge 206, Type (0, 0), BuildingBlock: AJUNOK_clean_linker_0, # of connection points: 2
#     Edge 207, Type (0, 0), BuildingBlock: AJUNOK_clean_linker_0, # of connection points: 2
#     Edge 208, Type (0, 0), BuildingBlock: AJUNOK_clean_linker_0, # of connection points: 2
#     Edge 209, Type (0, 0), BuildingBlock: AJUNOK_clean_linker_0, # of connection points: 2
#     Edge 210, Type (0, 0), BuildingBlock: AJUNOK_clean_linker_0, # of connection points: 2
#     Edge 211, Type (0, 0), BuildingBlock: AJUNOK_clean_linker_0, # of connection points: 2
#     Edge 212, Type (0, 0), BuildingBlock: AJUNOK_clean_linker_0, # of connection points: 2
#     Edge 213, Type (0, 0), BuildingBlock: AJUNOK_clean_linker_0, # of connection points: 2
#     Edge 214, Type (0, 0), BuildingBlock: AJUNOK_clean_linker_0, # of connection points: 2
#     Edge 215, Type (0, 0), BuildingBlock: AJUNOK_clean_linker_0, # of connection points: 2
#     Edge 216, Type (0, 0), BuildingBlock: AJUNOK_clean_linker_0, # of connection points: 2
#     Edge 217, Type (0, 0), BuildingBlock: AJUNOK_clean_linker_0, # of connection points: 2
#     Edge 218, Type (0, 0), BuildingBlock: AJUNOK_clean_linker_0, # of connection points: 2
#     Edge 219, Type (0, 0), BuildingBlock: AJUNOK_clean_linker_0, # of connection points: 2
#     Edge 220, Type (0, 0), BuildingBlock: AJUNOK_clean_linker_0, # of connection points: 2
#     Edge 221, Type (0, 0), BuildingBlock: AJUNOK_clean_linker_0, # of connection points: 2
#     Edge 222, Type (0, 0), BuildingBlock: AJUNOK_clean_linker_0, # of connection points: 2
#     Edge 223, Type (0, 0), BuildingBlock: AJUNOK_clean_linker_0, # of connection points: 2
#     Edge 224, Type (0, 0), BuildingBlock: AJUNOK_clean_linker_0, # of connection points: 2
#     Edge 225, Type (0, 0), BuildingBlock: AJUNOK_clean_linker_0, # of connection points: 2
#     Edge 226, Type (0, 0), BuildingBlock: AJUNOK_clean_linker_0, # of connection points: 2
#     Edge 227, Type (0, 0), BuildingBlock: AJUNOK_clean_linker_0, # of connection points: 2
#     Edge 228, Type (0, 0), BuildingBlock: AJUNOK_clean_linker_0, # of connection points: 2
#     Edge 229, Type (0, 0), BuildingBlock: AJUNOK_clean_linker_0, # of connection points: 2
#     Edge 230, Type (0, 0), BuildingBlock: AJUNOK_clean_linker_0, # of connection points: 2
#     Edge 231, Type (0, 0), BuildingBlock: AJUNOK_clean_linker_0, # of connection points: 2
#     Edge 232, Type (0, 0), BuildingBlock: AJUNOK_clean_linker_0, # of connection points: 2
#     Edge 233, Type (0, 0), BuildingBlock: AJUNOK_clean_linker_0, # of connection points: 2
#     Edge 234, Type (0, 0), BuildingBlock: AJUNOK_clean_linker_0, # of connection points: 2
#     Edge 235, Type (0, 0), BuildingBlock: AJUNOK_clean_linker_0, # of connection points: 2
#     Edge 236, Type (0, 0), BuildingBlock: AJUNOK_clean_linker_0, # of connection points: 2
#     Edge 237, Type (0, 0), BuildingBlock: AJUNOK_clean_linker_0, # of connection points: 2
#     Edge 238, Type (0, 0), BuildingBlock: AJUNOK_clean_linker_0, # of connection points: 2
#     Edge 239, Type (0, 0), BuildingBlock: AJUNOK_clean_linker_0, # of connection points: 2
#     Edge 240, Type (0, 0), BuildingBlock: AJUNOK_clean_linker_0, # of connection points: 2
#     Edge 241, Type (0, 0), BuildingBlock: AJUNOK_clean_linker_0, # of connection points: 2
#     Edge 242, Type (0, 0), BuildingBlock: AJUNOK_clean_linker_0, # of connection points: 2
#     Edge 243, Type (0, 0), BuildingBlock: AJUNOK_clean_linker_0, # of connection points: 2
#     Edge 244, Type (0, 0), BuildingBlock: AJUNOK_clean_linker_0, # of connection points: 2
#     Edge 245, Type (0, 0), BuildingBlock: AJUNOK_clean_linker_0, # of connection points: 2
#     Edge 246, Type (0, 0), BuildingBlock: AJUNOK_clean_linker_0, # of connection points: 2
#     Edge 247, Type (0, 0), BuildingBlock: AJUNOK_clean_linker_0, # of connection points: 2
#     Edge 248, Type (0, 0), BuildingBlock: AJUNOK_clean_linker_0, # of connection points: 2
#     Edge 249, Type (0, 0), BuildingBlock: AJUNOK_clean_linker_0, # of connection points: 2
#     Edge 250, Type (0, 0), BuildingBlock: AJUNOK_clean_linker_0, # of connection points: 2
#     Edge 251, Type (0, 0), BuildingBlock: AJUNOK_clean_linker_0, # of connection points: 2
#     Edge 252, Type (0, 0), BuildingBlock: AJUNOK_clean_linker_0, # of connection points: 2
#     Edge 253, Type (0, 0), BuildingBlock: AJUNOK_clean_linker_0, # of connection points: 2
#     Edge 254, Type (0, 0), BuildingBlock: AJUNOK_clean_linker_0, # of connection points: 2
#     Edge 255, Type (0, 0), BuildingBlock: AJUNOK_clean_linker_0, # of connection points: 2
#     Edge 256, Type (0, 0), BuildingBlock: AJUNOK_clean_linker_0, # of connection points: 2
#     Edge 257, Type (0, 0), BuildingBlock: AJUNOK_clean_linker_0, # of connection points: 2
#     Edge 258, Type (0, 0), BuildingBlock: AJUNOK_clean_linker_0, # of connection points: 2
#     Edge 259, Type (0, 0), BuildingBlock: AJUNOK_clean_linker_0, # of connection points: 2
#     Edge 260, Type (0, 0), BuildingBlock: AJUNOK_clean_linker_0, # of connection points: 2
#     Edge 261, Type (0, 0), BuildingBlock: AJUNOK_clean_linker_0, # of connection points: 2
#     Edge 262, Type (0, 0), BuildingBlock: AJUNOK_clean_linker_0, # of connection points: 2
#     Edge 263, Type (0, 0), BuildingBlock: AJUNOK_clean_linker_0, # of connection points: 2
#     Edge 264, Type (0, 0), BuildingBlock: AJUNOK_clean_linker_0, # of connection points: 2
#     Edge 265, Type (0, 0), BuildingBlock: AJUNOK_clean_linker_0, # of connection points: 2
#     Edge 266, Type (0, 0), BuildingBlock: AJUNOK_clean_linker_0, # of connection points: 2
#     Edge 267, Type (0, 0), BuildingBlock: AJUNOK_clean_linker_0, # of connection points: 2
#     Edge 268, Type (0, 0), BuildingBlock: AJUNOK_clean_linker_0, # of connection points: 2
#     Edge 269, Type (0, 0), BuildingBlock: AJUNOK_clean_linker_0, # of connection points: 2
#     Edge 270, Type (0, 0), BuildingBlock: AJUNOK_clean_linker_0, # of connection points: 2
#     Edge 271, Type (0, 0), BuildingBlock: AJUNOK_clean_linker_0, # of connection points: 2
#     Edge 272, Type (0, 0), BuildingBlock: AJUNOK_clean_linker_0, # of connection points: 2
#     Edge 273, Type (0, 0), BuildingBlock: AJUNOK_clean_linker_0, # of connection points: 2
#     Edge 274, Type (0, 0), BuildingBlock: AJUNOK_clean_linker_0, # of connection points: 2
#     Edge 275, Type (0, 0), BuildingBlock: AJUNOK_clean_linker_0, # of connection points: 2
#     Edge 276, Type (0, 0), BuildingBlock: AJUNOK_clean_linker_0, # of connection points: 2
#     Edge 277, Type (0, 0), BuildingBlock: AJUNOK_clean_linker_0, # of connection points: 2
#     Edge 278, Type (0, 0), BuildingBlock: AJUNOK_clean_linker_0, # of connection points: 2
#     Edge 279, Type (0, 0), BuildingBlock: AJUNOK_clean_linker_0, # of connection points: 2
#     Edge 280, Type (0, 0), BuildingBlock: AJUNOK_clean_linker_0, # of connection points: 2
#     Edge 281, Type (0, 0), BuildingBlock: AJUNOK_clean_linker_0, # of connection points: 2
#     Edge 282, Type (0, 0), BuildingBlock: AJUNOK_clean_linker_0, # of connection points: 2
#     Edge 283, Type (0, 0), BuildingBlock: AJUNOK_clean_linker_0, # of connection points: 2
#     Edge 284, Type (0, 0), BuildingBlock: AJUNOK_clean_linker_0, # of connection points: 2
#     Edge 285, Type (0, 0), BuildingBlock: AJUNOK_clean_linker_0, # of connection points: 2
#     Edge 286, Type (0, 0), BuildingBlock: AJUNOK_clean_linker_0, # of connection points: 2
#     Edge 287, Type (0, 0), BuildingBlock: AJUNOK_clean_linker_0, # of connection points: 2
# Relax obj value: 0.131
# Max RMSD: 0.268
# Mean RMSD: 0.268
data_MOF--net-ukw--node1-NAWXER_clean_sbu_0--edge1-AJUNOK_clean_linker_0
_symmetry_space_group_name_H-M    P1
_symmetry_Int_Tables_number       1
_symmetry_cell_setting            triclinic
loop_
_symmetry_equiv_pos_as_xyz
'x, y, z'
_cell_length_a     55.844713
_cell_length_b     55.849755
_cell_length_c     55.859608
_cell_angle_alpha  89.98902
_cell_angle_beta   90.0014
_cell_angle_gamma 89.998529
loop_
_atom_site_label
_atom_site_type_symbol
_atom_site_fract_x
_atom_site_fract_y
_atom_site_fract_z
_atom_type_partial_charge
C0 C 0.99462 0.07272 0.36612 0.0
C1 C 0.07618 0.08639 0.33979 0.0
O2 O 0.99923 0.09526 0.36492 0.0
Zn3 Zn 0.02984 0.11717 0.35396 0.0
O4 O 0.01056 0.05764 0.36019 0.0
Zn5 Zn 0.0347 0.08025 0.35194 0.0
O6 O 0.04298 0.09632 0.38642 0.0
O7 O 0.03707 0.13521 0.38214 0.0
O8 O 0.06496 0.06685 0.34244 0.0
O9 O 0.06521 0.10629 0.34304 0.0
O10 O 0.01753 0.13512 0.3274 0.0
O11 O 0.01895 0.09645 0.32022 0.0
C12 C 0.04331 0.11761 0.39508 0.0
C13 C 0.01319 0.11769 0.31352 0.0
C14 C 0.17719 0.74338 0.61396 0.0
C15 C 0.15989 0.82507 0.58992 0.0
O16 O 0.15454 0.7475 0.61423 0.0
Zn17 Zn 0.13126 0.7775 0.60472 0.0
O18 O 0.19147 0.75956 0.6068 0.0
Zn19 Zn 0.16773 0.78312 0.59979 0.0
O20 O 0.15362 0.79114 0.6356 0.0
O21 O 0.11478 0.78325 0.63393 0.0
O22 O 0.17948 0.81369 0.58863 0.0
O23 O 0.14068 0.81381 0.5955 0.0
O24 O 0.11193 0.76538 0.5789 0.0
O25 O 0.15005 0.76671 0.56947 0.0
C26 C 0.13289 0.79046 0.64561 0.0
C27 C 0.12848 0.7609 0.56406 0.0
C28 C 0.46651 0.88524 0.89749 0.0
C29 C 0.49416 0.88603 0.81531 0.0
O30 O 0.46619 0.90664 0.88909 0.0
Zn31 Zn 0.47311 0.92308 0.85439 0.0
O32 O 0.47238 0.86788 0.88411 0.0
Zn33 Zn 0.47848 0.88631 0.85602 0.0
O34 O 0.50909 0.90865 0.86639 0.0
O35 O 0.497 0.94609 0.86205 0.0
O36 O 0.49036 0.86856 0.82928 0.0
O37 O 0.48835 0.90722 0.82217 0.0
O38 O 0.44249 0.93615 0.84565 0.0
O39 O 0.44274 0.89672 0.84569 0.0
C40 C 0.51331 0.93127 0.86757 0.0
C41 C 0.43149 0.91653 0.8428 0.0
C42 C 0.32351 0.26029 0.11728 0.0
C43 C 0.33688 0.17805 0.09393 0.0
O44 O 0.34605 0.25599 0.1152 0.0
Zn45 Zn 0.36789 0.22509 0.10452 0.0
O46 O 0.30841 0.24388 0.1129 0.0
Zn47 Zn 0.33109 0.22003 0.10452 0.0
O48 O 0.34895 0.21357 0.13866 0.0
O49 O 0.38743 0.21982 0.13204 0.0
O50 O 0.31751 0.18947 0.09671 0.0
O51 O 0.35694 0.18906 0.09581 0.0
O52 O 0.38448 0.23654 0.07681 0.0
O53 O 0.34546 0.23559 0.07175 0.0
C54 C 0.37068 0.21399 0.14621 0.0
C55 C 0.36637 0.24117 0.06394 0.0
C56 C 0.99308 0.93181 0.13851 0.0
C57 C 0.07478 0.91137 0.15961 0.0
O58 O 0.99624 0.90903 0.13854 0.0
Zn59 Zn 0.0254 0.88469 0.14692 0.0
O60 O 0.01021 0.94555 0.14436 0.0
Zn61 Zn 0.03307 0.92088 0.15111 0.0
O62 O 0.03991 0.90562 0.11544 0.0
O63 O 0.02819 0.86784 0.11749 0.0
O64 O 0.0643 0.93144 0.16126 0.0
O65 O 0.06254 0.89258 0.15465 0.0
O66 O 0.0137 0.86626 0.17348 0.0
O67 O 0.017 0.90442 0.18232 0.0
C68 C 0.0369 0.88506 0.10548 0.0
C69 C 0.01058 0.88317 0.18826 0.0
C70 C 0.36941 0.79192 0.3577 0.0
C71 C 0.36883 0.76177 0.4392 0.0
O72 O 0.34817 0.79253 0.36655 0.0
Zn73 Zn 0.33194 0.7843 0.40128 0.0
O74 O 0.38683 0.78444 0.37026 0.0
Zn75 Zn 0.36876 0.77836 0.39852 0.0
O76 O 0.34598 0.74858 0.38767 0.0
O77 O 0.30866 0.76069 0.39279 0.0
O78 O 0.38638 0.76602 0.42544 0.0
O79 O 0.34774 0.76784 0.43244 0.0
O80 O 0.31982 0.81491 0.41204 0.0
O81 O 0.35902 0.81443 0.40765 0.0
C82 C 0.32335 0.74448 0.38657 0.0
C83 C 0.33968 0.82591 0.41218 0.0
C84 C 0.46235 0.1165 0.60743 0.0
C85 C 0.49094 0.11671 0.68959 0.0
O86 O 0.46112 0.09546 0.61658 0.0
Zn87 Zn 0.47005 0.0791 0.65067 0.0
O88 O 0.47049 0.13369 0.61984 0.0
Zn89 Zn 0.47533 0.11592 0.64888 0.0
O90 O 0.50634 0.09397 0.64003 0.0
O91 O 0.494 0.0564 0.64129 0.0
O92 O 0.48642 0.13404 0.67565 0.0
O93 O 0.4857 0.0953 0.68284 0.0
O94 O 0.43991 0.06566 0.66002 0.0
O95 O 0.43923 0.10514 0.65849 0.0
C96 C 0.51055 0.0715 0.6376 0.0
C97 C 0.42838 0.08513 0.66172 0.0
C98 C 0.1638 0.17723 0.90812 0.0
C99 C 0.18257 0.25929 0.88732 0.0
O100 O 0.14471 0.18935 0.90423 0.0
Zn101 Zn 0.13602 0.22626 0.8972 0.0
O102 O 0.1838 0.1879 0.90907 0.0
Zn103 Zn 0.17252 0.21926 0.89988 0.0
O104 O 0.15709 0.23502 0.93167 0.0
O105 O 0.11853 0.23775 0.92462 0.0
O106 O 0.19664 0.24226 0.89269 0.0
O107 O 0.1598 0.25594 0.88792 0.0
O108 O 0.11792 0.2224 0.86859 0.0
O109 O 0.15632 0.21336 0.8646 0.0
C110 C 0.13609 0.24129 0.93855 0.0
C111 C 0.13516 0.2151 0.85569 0.0
C112 C 0.31539 0.01112 0.11785 0.0
C113 C 0.39756 0.03924 0.11727 0.0
O114 O 0.32161 0.01735 0.09657 0.0
Zn115 Zn 0.3534 0.03335 0.08036 0.0
O116 O 0.32982 0.01469 0.13498 0.0
Zn117 Zn 0.35613 0.02683 0.11683 0.0
O118 O 0.34605 0.06316 0.10757 0.0
O119 O 0.34393 0.06397 0.06816 0.0
O120 O 0.385 0.03128 0.13443 0.0
O121 O 0.38827 0.04118 0.09631 0.0
O122 O 0.36104 0.00999 0.05662 0.0
O123 O 0.36557 0.99693 0.09365 0.0
C124 C 0.34234 0.07473 0.08806 0.0
C125 C 0.36636 0.9932 0.07097 0.0
C126 C 0.2613 0.11649 0.32079 0.0
C127 C 0.17941 0.09165 0.33424 0.0
O128 O 0.25663 0.1153 0.34327 0.0
Zn129 Zn 0.22601 0.10524 0.36516 0.0
O130 O 0.24529 0.11094 0.30567 0.0
Zn131 Zn 0.22097 0.10284 0.32833 0.0
O132 O 0.21215 0.13736 0.34432 0.0
O133 O 0.22068 0.13404 0.38279 0.0
O134 O 0.191 0.09331 0.31482 0.0
O135 O 0.19009 0.09518 0.35428 0.0
O136 O 0.23781 0.07867 0.38339 0.0
O137 O 0.23643 0.07113 0.3448 0.0
C138 C 0.21308 0.14651 0.3654 0.0
C139 C 0.2421 0.0646 0.36611 0.0
C140 C 0.13866 0.01203 0.5726 0.0
C141 C 0.15923 0.92909 0.58846 0.0
O142 O 0.14029 0.00803 0.59517 0.0
Zn143 Zn 0.14761 0.9773 0.61783 0.0
O144 O 0.1424 0.99521 0.55779 0.0
Zn145 Zn 0.15051 0.97125 0.58112 0.0
O146 O 0.11556 0.96383 0.59694 0.0
O147 O 0.11811 0.9743 0.635 0.0
O148 O 0.16014 0.94047 0.56884 0.0
O149 O 0.15481 0.94046 0.60794 0.0
O150 O 0.17473 0.98744 0.63625 0.0
O151 O 0.18246 0.98619 0.59768 0.0
C152 C 0.10592 0.96602 0.61771 0.0
C153 C 0.18906 0.99138 0.61911 0.0
C154 C 0.32829 0.91127 0.83515 0.0
C155 C 0.24582 0.88809 0.82169 0.0
O156 O 0.31716 0.90905 0.85512 0.0
Zn157 Zn 0.28105 0.90025 0.86587 0.0
O158 O 0.31703 0.90862 0.81564 0.0
Zn159 Zn 0.28652 0.9002 0.82902 0.0
O160 O 0.27073 0.93312 0.84359 0.0
O161 O 0.2701 0.92786 0.88267 0.0
O162 O 0.26254 0.89045 0.80649 0.0
O163 O 0.25005 0.89121 0.84406 0.0
O164 O 0.28512 0.87199 0.88488 0.0
O165 O 0.29422 0.86656 0.84686 0.0
C166 C 0.26539 0.94083 0.86463 0.0
C167 C 0.29255 0.85841 0.86827 0.0
C168 C 0.31424 0.99217 0.3829 0.0
C169 C 0.39686 0.96568 0.38334 0.0
O170 O 0.32114 0.98735 0.40432 0.0
Zn171 Zn 0.35301 0.97183 0.42058 0.0
O172 O 0.32802 0.98727 0.36556 0.0
Zn173 Zn 0.35521 0.9768 0.38364 0.0
O174 O 0.34734 0.94071 0.3943 0.0
O175 O 0.34316 0.94124 0.43349 0.0
O176 O 0.3839 0.97192 0.36576 0.0
O177 O 0.38797 0.96486 0.40453 0.0
O178 O 0.36152 0.99583 0.44342 0.0
O179 O 0.36378 0.0079 0.40571 0.0
C180 C 0.34314 0.92968 0.41397 0.0
C181 C 0.36558 0.01224 0.42823 0.0
C182 C 0.29048 0.14489 0.6326 0.0
C183 C 0.26243 0.06269 0.63454 0.0
O184 O 0.29034 0.13677 0.65412 0.0
Zn185 Zn 0.28307 0.10242 0.67106 0.0
O186 O 0.28475 0.13127 0.61536 0.0
Zn187 Zn 0.2785 0.10333 0.63408 0.0
O188 O 0.24748 0.11405 0.6555 0.0
O189 O 0.25854 0.11053 0.69335 0.0
O190 O 0.26688 0.0761 0.61676 0.0
O191 O 0.26791 0.07004 0.65564 0.0
O192 O 0.31354 0.09395 0.6848 0.0
O193 O 0.31407 0.09353 0.64538 0.0
C194 C 0.24263 0.11566 0.67795 0.0
C195 C 0.32496 0.09102 0.66543 0.0
C196 C 0.14019 0.99196 0.93032 0.0
C197 C 0.1619 0.07324 0.90914 0.0
O198 O 0.13969 0.99494 0.90753 0.0
Zn199 Zn 0.14779 0.02384 0.88281 0.0
O200 O 0.14665 0.00914 0.9437 0.0
Zn201 Zn 0.15307 0.03182 0.91888 0.0
O202 O 0.11736 0.03941 0.90458 0.0
O203 O 0.11772 0.02737 0.86688 0.0
O204 O 0.16374 0.06284 0.92923 0.0
O205 O 0.15647 0.06098 0.89046 0.0
O206 O 0.17388 0.01157 0.86375 0.0
O207 O 0.18377 0.01601 0.90152 0.0
C208 C 0.10665 0.03676 0.88438 0.0
C209 C 0.18921 0.00911 0.8803 0.0
C210 C 0.26123 0.88993 0.18123 0.0
C211 C 0.1788 0.9095 0.16199 0.0
O212 O 0.25786 0.891 0.15854 0.0
Zn213 Zn 0.22807 0.89769 0.13466 0.0
O214 O 0.24396 0.89366 0.19553 0.0
Zn215 Zn 0.22065 0.90115 0.17126 0.0
O216 O 0.21396 0.86599 0.15597 0.0
O217 O 0.22558 0.86766 0.11819 0.0
O218 O 0.18932 0.91084 0.18206 0.0
O219 O 0.19104 0.90508 0.14306 0.0
O220 O 0.23921 0.92466 0.1163 0.0
O221 O 0.23627 0.93267 0.15473 0.0
C222 C 0.21677 0.85587 0.13553 0.0
C223 C 0.24263 0.93903 0.13356 0.0
C224 C 0.07416 0.36431 0.99432 0.0
C225 C 0.0912 0.34109 0.07622 0.0
O226 O 0.09684 0.36375 0.99826 0.0
Zn227 Zn 0.11998 0.35373 0.0282 0.0
O228 O 0.05973 0.35785 0.01066 0.0
Zn229 Zn 0.08341 0.35022 0.03408 0.0
O230 O 0.09896 0.38568 0.0413 0.0
O231 O 0.13764 0.38237 0.03316 0.0
O232 O 0.07152 0.34001 0.06497 0.0
O233 O 0.1105 0.34582 0.06473 0.0
O234 O 0.1382 0.32697 0.01651 0.0
O235 O 0.09973 0.3191 0.01775 0.0
C236 C 0.12006 0.39489 0.04031 0.0
C237 C 0.12108 0.31279 0.01206 0.0
C238 C 0.57267 0.13677 0.00991 0.0
C239 C 0.58628 0.16121 0.92764 0.0
O240 O 0.59499 0.14026 0.00568 0.0
Zn241 Zn 0.61685 0.15007 0.97511 0.0
O242 O 0.55738 0.13931 0.99328 0.0
Zn243 Zn 0.5798 0.14974 0.96934 0.0
O244 O 0.59802 0.11665 0.96136 0.0
O245 O 0.63607 0.12175 0.97066 0.0
O246 O 0.56667 0.15814 0.93864 0.0
O247 O 0.60615 0.15916 0.93902 0.0
O248 O 0.63301 0.17799 0.9868 0.0
O249 O 0.59388 0.18257 0.98539 0.0
C250 C 0.61941 0.10845 0.96277 0.0
C251 C 0.61465 0.19058 0.99132 0.0
C252 C 0.06597 0.37556 0.24297 0.0
C253 C 0.14782 0.37252 0.21456 0.0
O254 O 0.07185 0.35395 0.23779 0.0
Zn255 Zn 0.10286 0.33655 0.22227 0.0
O256 O 0.0806 0.39223 0.23835 0.0
Zn257 Zn 0.10684 0.37314 0.22712 0.0
O258 O 0.09816 0.3626 0.19091 0.0
O259 O 0.09222 0.32365 0.19204 0.0
O260 O 0.13553 0.39035 0.22141 0.0
O261 O 0.13846 0.35147 0.21415 0.0
O262 O 0.11005 0.3135 0.24635 0.0
O263 O 0.11652 0.35079 0.25782 0.0
C264 C 0.09308 0.34295 0.18016 0.0
C265 C 0.11665 0.32821 0.26236 0.0
C266 C 0.91388 0.8425 0.43063 0.0
C267 C 0.93167 0.86462 0.51271 0.0
O268 O 0.89469 0.84775 0.44214 0.0
Zn269 Zn 0.88558 0.8559 0.47898 0.0
O270 O 0.93361 0.84115 0.44178 0.0
Zn271 Zn 0.92215 0.85146 0.47257 0.0
O272 O 0.90504 0.82053 0.48807 0.0
O273 O 0.86683 0.82929 0.49067 0.0
O274 O 0.94603 0.85821 0.4963 0.0
O275 O 0.90903 0.86453 0.50871 0.0
O276 O 0.86919 0.88571 0.47543 0.0
O277 O 0.90747 0.88708 0.46527 0.0
C278 C 0.88374 0.81455 0.49418 0.0
C279 C 0.88698 0.89739 0.46738 0.0
C280 C 0.94086 0.1335 0.24107 0.0
C281 C 0.85797 0.13285 0.21527 0.0
O282 O 0.93387 0.1548 0.23585 0.0
Zn283 Zn 0.90169 0.17053 0.2203 0.0
O284 O 0.92702 0.11606 0.23678 0.0
Zn285 Zn 0.89962 0.13382 0.22639 0.0
O286 O 0.9065 0.14347 0.18974 0.0
O287 O 0.91082 0.18263 0.1891 0.0
O288 O 0.87099 0.11564 0.22239 0.0
O289 O 0.86673 0.15408 0.21388 0.0
O290 O 0.89331 0.19403 0.24375 0.0
O291 O 0.89126 0.15673 0.257 0.0
C292 C 0.91016 0.16285 0.17802 0.0
C293 C 0.88939 0.17937 0.26068 0.0
C294 C 0.38355 0.689 0.51141 0.0
C295 C 0.38368 0.60698 0.53968 0.0
O296 O 0.4048 0.68249 0.51724 0.0
Zn297 Zn 0.4208 0.65117 0.5335 0.0
O298 O 0.36625 0.67492 0.51551 0.0
Zn299 Zn 0.38419 0.64814 0.52738 0.0
O300 O 0.39353 0.65679 0.56375 0.0
O301 O 0.43265 0.6616 0.56427 0.0
O302 O 0.36628 0.61969 0.53244 0.0
O303 O 0.40486 0.61597 0.5408 0.0
O304 O 0.44447 0.64336 0.51016 0.0
O305 O 0.40735 0.63804 0.49753 0.0
C306 C 0.41281 0.66146 0.57528 0.0
C307 C 0.43004 0.63723 0.4937 0.0
C308 C 0.11656 0.68147 0.243 0.0
C309 C 0.0935 0.66637 0.32519 0.0
O310 O 0.11559 0.65888 0.24721 0.0
Zn311 Zn 0.10634 0.63641 0.27778 0.0
O312 O 0.11155 0.69621 0.25953 0.0
Zn313 Zn 0.10414 0.67306 0.28356 0.0
O314 O 0.13893 0.65691 0.29102 0.0
O315 O 0.1351 0.61859 0.28209 0.0
O316 O 0.09527 0.68601 0.31399 0.0
O317 O 0.09677 0.64655 0.31403 0.0
O318 O 0.07963 0.61828 0.26656 0.0
O319 O 0.07192 0.65683 0.2687 0.0
C320 C 0.14799 0.63583 0.28933 0.0
C321 C 0.0653 0.63551 0.2631 0.0
C322 C 0.39055 0.32164 0.74439 0.0
C323 C 0.41074 0.34089 0.82652 0.0
O324 O 0.39047 0.34438 0.7478 0.0
Zn325 Zn 0.39849 0.36841 0.77745 0.0
O326 O 0.39615 0.3077 0.76144 0.0
Zn327 Zn 0.40239 0.33211 0.7846 0.0
O328 O 0.36664 0.34725 0.79085 0.0
O329 O 0.36899 0.38524 0.77992 0.0
O330 O 0.4121 0.32103 0.81563 0.0
O331 O 0.40582 0.35997 0.81466 0.0
O332 O 0.42531 0.38692 0.7661 0.0
O333 O 0.43379 0.34869 0.76918 0.0
C334 C 0.35674 0.36785 0.78792 0.0
C335 C 0.43996 0.3699 0.76289 0.0
C336 C 0.01094 0.93057 0.64038 0.0
C337 C 0.92937 0.91072 0.66324 0.0
O338 O 0.99434 0.94463 0.64705 0.0
Zn339 Zn 0.97109 0.92024 0.65428 0.0
O340 O 0.00739 0.90787 0.64065 0.0
Zn341 Zn 0.97845 0.88378 0.6498 0.0
O342 O 0.97484 0.86721 0.62018 0.0
O343 O 0.96368 0.90521 0.61882 0.0
O344 O 0.9416 0.89194 0.65817 0.0
O345 O 0.93986 0.93081 0.66478 0.0
O346 O 0.98733 0.9035 0.68504 0.0
O347 O 0.9908 0.86537 0.67619 0.0
C348 C 0.96609 0.88472 0.60859 0.0
C349 C 0.99403 0.88233 0.69091 0.0
C350 C 0.83965 0.17864 0.40885 0.0
C351 C 0.82473 0.2616 0.38729 0.0
O352 O 0.81977 0.1896 0.40837 0.0
Zn353 Zn 0.83226 0.22071 0.39913 0.0
O354 O 0.85911 0.19033 0.40557 0.0
Zn355 Zn 0.8694 0.2264 0.39789 0.0
O356 O 0.88658 0.23709 0.42567 0.0
O357 O 0.84763 0.23589 0.4314 0.0
O358 O 0.84721 0.25725 0.3894 0.0
O359 O 0.8095 0.24502 0.39049 0.0
O360 O 0.84913 0.21386 0.36476 0.0
O361 O 0.88773 0.22147 0.36934 0.0
C362 C 0.86864 0.24139 0.43894 0.0
C363 C 0.87045 0.21474 0.3562 0.0
C364 C 0.49346 0.07345 0.1383 0.0
C365 C 0.57519 0.09145 0.16146 0.0
O366 O 0.51015 0.05934 0.14453 0.0
Zn367 Zn 0.53342 0.08327 0.15154 0.0
O368 O 0.49718 0.09617 0.13826 0.0
Zn369 Zn 0.52712 0.11967 0.14753 0.0
O370 O 0.53216 0.13693 0.11874 0.0
O371 O 0.54084 0.09835 0.11595 0.0
O372 O 0.56362 0.11062 0.15638 0.0
O373 O 0.56418 0.07163 0.16214 0.0
O374 O 0.51743 0.10014 0.18259 0.0
O375 O 0.51538 0.13839 0.17377 0.0
C376 C 0.53969 0.11933 0.10651 0.0
C377 C 0.51155 0.12157 0.18847 0.0
C378 C 0.63654 0.79103 0.85734 0.0
C379 C 0.63398 0.76224 0.9394 0.0
O380 O 0.61916 0.78205 0.86893 0.0
Zn381 Zn 0.63576 0.77794 0.89857 0.0
O382 O 0.65714 0.79304 0.86738 0.0
Zn383 Zn 0.67236 0.78451 0.90236 0.0
O384 O 0.69618 0.76119 0.89369 0.0
O385 O 0.65901 0.74802 0.89035 0.0
O386 O 0.65544 0.76803 0.93343 0.0
O387 O 0.61703 0.76643 0.9249 0.0
O388 O 0.64486 0.81443 0.90726 0.0
O389 O 0.68388 0.81526 0.91318 0.0
C390 C 0.68165 0.74438 0.88892 0.0
C391 C 0.66399 0.82618 0.9121 0.0
C392 C 0.0121 0.07493 0.86413 0.0
C393 C 0.9309 0.09543 0.84098 0.0
O394 O 0.9953 0.06123 0.8573 0.0
Zn395 Zn 0.97231 0.08586 0.85054 0.0
O396 O 0.0088 0.09768 0.86434 0.0
Zn397 Zn 0.97989 0.1221 0.85566 0.0
O398 O 0.97603 0.13819 0.88554 0.0
O399 O 0.96443 0.10033 0.88616 0.0
O400 O 0.943 0.11417 0.84653 0.0
O401 O 0.9414 0.07535 0.8395 0.0
O402 O 0.98843 0.10318 0.82 0.0
O403 O 0.99239 0.14106 0.82969 0.0
C404 C 0.96689 0.12064 0.89674 0.0
C405 C 0.99524 0.12442 0.81453 0.0
C406 C 0.67818 0.25969 0.61295 0.0
C407 C 0.66077 0.17796 0.58895 0.0
O408 O 0.69252 0.24366 0.60557 0.0
Zn409 Zn 0.66874 0.2197 0.59885 0.0
O410 O 0.65561 0.25537 0.61347 0.0
Zn411 Zn 0.63236 0.22554 0.60457 0.0
O412 O 0.61674 0.22082 0.63436 0.0
O413 O 0.65509 0.21083 0.63475 0.0
O414 O 0.64167 0.18914 0.59514 0.0
O415 O 0.68034 0.18934 0.58717 0.0
O416 O 0.65029 0.23579 0.56884 0.0
O417 O 0.61243 0.23748 0.57922 0.0
C418 C 0.63473 0.21241 0.64543 0.0
C419 C 0.62861 0.24162 0.56389 0.0
C420 C 0.53857 0.88691 0.39791 0.0
C421 C 0.51211 0.88562 0.31508 0.0
O422 O 0.52973 0.86971 0.38596 0.0
Zn423 Zn 0.52671 0.88655 0.35631 0.0
O424 O 0.54115 0.90753 0.38807 0.0
Zn425 Zn 0.53398 0.92319 0.35311 0.0
O426 O 0.51052 0.94721 0.36113 0.0
O427 O 0.49694 0.91013 0.36378 0.0
O428 O 0.51833 0.90681 0.3215 0.0
O429 O 0.5155 0.86836 0.32943 0.0
O430 O 0.56353 0.89514 0.34855 0.0
O431 O 0.56526 0.93423 0.34323 0.0
C432 C 0.4934 0.93279 0.36518 0.0
C433 C 0.57574 0.9141 0.34419 0.0
C434 C 0.86822 0.76346 0.06501 0.0
C435 C 0.86935 0.78803 0.14821 0.0
O436 O 0.88583 0.76718 0.07884 0.0
Zn437 Zn 0.86826 0.77768 0.10613 0.0
O438 O 0.84701 0.76897 0.07212 0.0
Zn439 Zn 0.83153 0.78407 0.10481 0.0
O440 O 0.8193 0.8152 0.09648 0.0
O441 O 0.85867 0.81427 0.09801 0.0
O442 O 0.84831 0.79045 0.13928 0.0
O443 O 0.88633 0.7806 0.13509 0.0
O444 O 0.84549 0.74706 0.11388 0.0
O445 O 0.80817 0.76028 0.1132 0.0
C446 C 0.83918 0.82607 0.09502 0.0
C447 C 0.82293 0.74326 0.11616 0.0
C448 C 0.60936 0.96598 0.88648 0.0
C449 C 0.69176 0.99341 0.88138 0.0
O450 O 0.62067 0.97421 0.86855 0.0
Zn451 Zn 0.65058 0.97834 0.88436 0.0
O452 O 0.61989 0.96428 0.90689 0.0
Zn453 Zn 0.65577 0.97222 0.92093 0.0
O454 O 0.64932 0.99646 0.94458 0.0
O455 O 0.6422 0.00816 0.90749 0.0
O456 O 0.68637 0.98761 0.90295 0.0
O457 O 0.6766 0.98969 0.86493 0.0
O458 O 0.6589 0.94186 0.89361 0.0
O459 O 0.66625 0.94127 0.93239 0.0
C460 C 0.64253 0.01257 0.93003 0.0
C461 C 0.66417 0.93019 0.91267 0.0
C462 C 0.74205 0.88804 0.67753 0.0
C463 C 0.82528 0.90893 0.66341 0.0
O464 O 0.75841 0.89184 0.69287 0.0
Zn465 Zn 0.78274 0.90037 0.67019 0.0
O466 O 0.74662 0.88995 0.65506 0.0
Zn467 Zn 0.77776 0.89852 0.63315 0.0
O468 O 0.78233 0.86985 0.61508 0.0
O469 O 0.78919 0.86553 0.65386 0.0
O470 O 0.81395 0.90544 0.64379 0.0
O471 O 0.81381 0.90936 0.68299 0.0
O472 O 0.76752 0.9325 0.65426 0.0
O473 O 0.76755 0.92608 0.61542 0.0
C474 C 0.78839 0.85673 0.63263 0.0
C475 C 0.7627 0.93967 0.63294 0.0
C476 C 0.84326 0.07484 0.41365 0.0
C477 C 0.86771 0.99376 0.43387 0.0
O478 O 0.84247 0.06471 0.43397 0.0
Zn479 Zn 0.85351 0.03357 0.42359 0.0
O480 O 0.84831 0.06245 0.395 0.0
Zn481 Zn 0.85753 0.02589 0.38708 0.0
O482 O 0.83108 0.01303 0.36913 0.0
O483 O 0.82274 0.01681 0.40737 0.0
O484 O 0.86713 0.99723 0.41118 0.0
O485 O 0.86127 0.0104 0.44797 0.0
O486 O 0.88861 0.04159 0.40805 0.0
O487 O 0.88691 0.03002 0.37021 0.0
C488 C 0.81666 0.00981 0.38637 0.0
C489 C 0.89858 0.0392 0.38744 0.0
C490 C 0.67906 0.09421 0.16472 0.0
C491 C 0.76148 0.11598 0.18148 0.0
O492 O 0.69018 0.09344 0.18451 0.0
Zn493 Zn 0.72087 0.1039 0.17263 0.0
O494 O 0.69055 0.09903 0.14543 0.0
Zn495 Zn 0.72719 0.10722 0.13594 0.0
O496 O 0.73809 0.08047 0.11736 0.0
O497 O 0.73662 0.07242 0.15588 0.0
O498 O 0.75759 0.1146 0.15889 0.0
O499 O 0.74461 0.11213 0.19621 0.0
O500 O 0.71277 0.13881 0.15715 0.0
O501 O 0.7236 0.13688 0.11916 0.0
C502 C 0.74221 0.06612 0.13447 0.0
C503 C 0.71485 0.14871 0.13649 0.0
C504 C 0.60686 0.03845 0.61847 0.0
C505 C 0.68946 0.01134 0.6176 0.0
O506 O 0.61997 0.03209 0.63592 0.0
Zn507 Zn 0.64842 0.02679 0.61765 0.0
O508 O 0.61551 0.03899 0.59717 0.0
Zn509 Zn 0.65012 0.03176 0.58062 0.0
O510 O 0.64125 0.00753 0.55805 0.0
O511 O 0.63909 0.99577 0.59581 0.0
O512 O 0.68219 0.01641 0.59638 0.0
O513 O 0.67595 0.01606 0.63522 0.0
O514 O 0.65609 0.06288 0.60684 0.0
O515 O 0.65958 0.06249 0.56759 0.0
C516 C 0.63699 0.99124 0.57334 0.0
C517 C 0.65979 0.07402 0.58713 0.0
C518 C 0.76116 0.88657 0.32336 0.0
C519 C 0.67971 0.91055 0.34219 0.0
O520 O 0.74473 0.89319 0.30909 0.0
Zn521 Zn 0.72134 0.90087 0.33315 0.0
O522 O 0.75739 0.88704 0.34602 0.0
Zn523 Zn 0.72825 0.89655 0.36969 0.0
O524 O 0.72405 0.86713 0.38643 0.0
O525 O 0.71319 0.86561 0.34836 0.0
O526 O 0.69167 0.90543 0.36111 0.0
O527 O 0.69038 0.91176 0.32218 0.0
O528 O 0.73784 0.93159 0.34983 0.0
O529 O 0.74051 0.92287 0.38809 0.0
C530 C 0.71524 0.85553 0.36896 0.0
C531 C 0.74416 0.93747 0.37112 0.0
C532 C 0.89709 0.96609 0.11857 0.0
C533 C 0.81469 0.99376 0.11856 0.0
O534 O 0.88454 0.97391 0.13582 0.0
Zn535 Zn 0.85555 0.97787 0.11816 0.0
O536 O 0.88774 0.96399 0.09765 0.0
Zn537 Zn 0.85288 0.97141 0.08157 0.0
O538 O 0.8607 0.99484 0.05785 0.0
O539 O 0.86531 0.00765 0.09496 0.0
O540 O 0.82122 0.98741 0.09745 0.0
O541 O 0.82878 0.99001 0.13596 0.0
O542 O 0.84658 0.94123 0.10892 0.0
O543 O 0.84359 0.94065 0.06953 0.0
C544 C 0.86639 0.01143 0.07231 0.0
C545 C 0.84274 0.92975 0.0894 0.0
C546 C 0.74398 0.11604 0.81836 0.0
C547 C 0.82694 0.0966 0.83647 0.0
O548 O 0.76108 0.11271 0.80373 0.0
Zn549 Zn 0.78488 0.10466 0.82749 0.0
O550 O 0.74769 0.1143 0.84095 0.0
Zn551 Zn 0.77773 0.10714 0.86427 0.0
O552 O 0.7802 0.13668 0.88151 0.0
O553 O 0.79139 0.13943 0.84366 0.0
O554 O 0.81464 0.10037 0.85549 0.0
O555 O 0.81644 0.09564 0.81635 0.0
O556 O 0.76976 0.07256 0.84336 0.0
O557 O 0.76721 0.07967 0.882 0.0
C558 C 0.78875 0.14897 0.8644 0.0
C559 C 0.76379 0.06566 0.86446 0.0
C560 C 0.9332 0.64037 0.01293 0.0
C561 C 0.91494 0.66241 0.93087 0.0
O562 O 0.94739 0.64654 0.99628 0.0
Zn563 Zn 0.9234 0.65331 0.97265 0.0
O564 O 0.91053 0.6403 0.00908 0.0
Zn565 Zn 0.88696 0.64879 0.97936 0.0
O566 O 0.87057 0.61914 0.97574 0.0
O567 O 0.9087 0.61775 0.96506 0.0
O568 O 0.89584 0.65711 0.94251 0.0
O569 O 0.93476 0.66377 0.94186 0.0
O570 O 0.90614 0.68426 0.9881 0.0
O571 O 0.868 0.67517 0.99092 0.0
C572 C 0.88818 0.60753 0.96727 0.0
C573 C 0.88478 0.69009 0.99422 0.0
C574 C 0.43419 0.86539 0.99386 0.0
C575 C 0.41619 0.84329 0.07595 0.0
O576 O 0.44872 0.86177 0.01097 0.0
Zn577 Zn 0.42488 0.85302 0.03429 0.0
O578 O 0.41158 0.86327 0.99731 0.0
Zn579 Zn 0.38821 0.85512 0.02718 0.0
O580 O 0.37046 0.88417 0.02997 0.0
O581 O 0.40823 0.88765 0.04125 0.0
O582 O 0.39706 0.84754 0.06397 0.0
O583 O 0.43628 0.84314 0.06536 0.0
O584 O 0.40944 0.82099 0.01845 0.0
O585 O 0.37073 0.82778 0.01612 0.0
C586 C 0.38734 0.89685 0.03838 0.0
C587 C 0.38838 0.81397 0.01245 0.0
C588 C 0.85704 0.63798 0.78997 0.0
C589 C 0.93954 0.63712 0.76286 0.0
O590 O 0.86937 0.62077 0.78171 0.0
Zn591 Zn 0.89849 0.63799 0.77835 0.0
O592 O 0.86663 0.65876 0.79255 0.0
Zn593 Zn 0.90195 0.67443 0.78533 0.0
O594 O 0.89476 0.69857 0.762 0.0
O595 O 0.88951 0.66168 0.74878 0.0
O596 O 0.9332 0.65825 0.76923 0.0
O597 O 0.92527 0.61985 0.76649 0.0
O598 O 0.90667 0.64663 0.81522 0.0
O599 O 0.91233 0.68566 0.8162 0.0
C600 C 0.88912 0.68438 0.74516 0.0
C601 C 0.91158 0.66572 0.82702 0.0
C602 C 0.08593 0.16289 0.5737 0.0
C603 C 0.07562 0.13738 0.49146 0.0
O604 O 0.06689 0.15959 0.56185 0.0
Zn605 Zn 0.08145 0.15082 0.53187 0.0
O606 O 0.10628 0.16054 0.56336 0.0
Zn607 Zn 0.11854 0.15043 0.52827 0.0
O608 O 0.13612 0.17757 0.51737 0.0
O609 O 0.09713 0.18337 0.51653 0.0
O610 O 0.09792 0.14028 0.49644 0.0
O611 O 0.0598 0.14114 0.50733 0.0
O612 O 0.09838 0.11686 0.53987 0.0
O613 O 0.13722 0.12243 0.53517 0.0
C614 C 0.11847 0.19082 0.51204 0.0
C615 C 0.11987 0.10878 0.54047 0.0
C616 C 0.14925 0.87057 0.78867 0.0
C617 C 0.06618 0.86786 0.76358 0.0
O618 O 0.13576 0.88763 0.78208 0.0
Zn619 Zn 0.1075 0.86886 0.77788 0.0
O620 O 0.14103 0.84911 0.78963 0.0
Zn621 Zn 0.10669 0.83178 0.78331 0.0
O622 O 0.1154 0.80919 0.75892 0.0
O623 O 0.11596 0.84694 0.74685 0.0
O624 O 0.07396 0.84678 0.7685 0.0
O625 O 0.07938 0.8858 0.76798 0.0
O626 O 0.10102 0.85838 0.81414 0.0
O627 O 0.09828 0.81905 0.81455 0.0
C628 C 0.1183 0.8245 0.74234 0.0
C629 C 0.09817 0.83881 0.82574 0.0
C630 C 0.57076 0.36868 0.51194 0.0
C631 C 0.58346 0.34359 0.42963 0.0
O632 O 0.55542 0.36629 0.49535 0.0
Zn633 Zn 0.57754 0.35575 0.47115 0.0
O634 O 0.593 0.36483 0.50764 0.0
Zn635 Zn 0.61447 0.35492 0.47672 0.0
O636 O 0.63405 0.38274 0.47208 0.0
O637 O 0.59612 0.38873 0.46287 0.0
O638 O 0.60343 0.34551 0.44083 0.0
O639 O 0.56398 0.34723 0.44069 0.0
O640 O 0.59154 0.32253 0.48662 0.0
O641 O 0.63071 0.32708 0.48788 0.0
C642 C 0.61769 0.39648 0.4644 0.0
C643 C 0.61237 0.31437 0.49214 0.0
C644 C 0.85848 0.36736 0.71506 0.0
C645 C 0.9412 0.36647 0.74181 0.0
O646 O 0.8714 0.3849 0.72158 0.0
Zn647 Zn 0.90024 0.36691 0.72609 0.0
O648 O 0.86745 0.34623 0.71387 0.0
Zn649 Zn 0.90221 0.32987 0.72014 0.0
O650 O 0.89343 0.30663 0.74391 0.0
O651 O 0.89131 0.34421 0.75646 0.0
O652 O 0.93401 0.34538 0.73613 0.0
O653 O 0.92781 0.38424 0.73721 0.0
O654 O 0.90748 0.35727 0.68979 0.0
O655 O 0.91149 0.31807 0.68874 0.0
C656 C 0.88929 0.32166 0.76049 0.0
C657 C 0.9111 0.33801 0.67789 0.0
C658 C 0.64617 0.63737 0.21167 0.0
C659 C 0.56478 0.63998 0.24192 0.0
O660 O 0.63285 0.62029 0.21851 0.0
Zn661 Zn 0.60502 0.63914 0.22494 0.0
O662 O 0.63805 0.65887 0.21144 0.0
Zn663 Zn 0.60393 0.67593 0.21917 0.0
O664 O 0.61263 0.699 0.24261 0.0
O665 O 0.61594 0.66162 0.25523 0.0
O666 O 0.57195 0.66094 0.2357 0.0
O667 O 0.57802 0.62208 0.23749 0.0
O668 O 0.59458 0.64931 0.18921 0.0
O669 O 0.59468 0.68874 0.18857 0.0
C670 C 0.6175 0.68426 0.25921 0.0
C671 C 0.59177 0.66901 0.17776 0.0
C672 C 0.57532 0.59189 0.84217 0.0
C673 C 0.4939 0.57099 0.86409 0.0
O674 O 0.56293 0.61053 0.84733 0.0
Zn675 Zn 0.52594 0.61823 0.85558 0.0
O676 O 0.565 0.57175 0.84031 0.0
Zn677 Zn 0.53372 0.58195 0.85083 0.0
O678 O 0.51721 0.59872 0.82019 0.0
O679 O 0.51353 0.63678 0.82928 0.0
O680 O 0.51084 0.55724 0.85769 0.0
O681 O 0.49713 0.59374 0.86424 0.0
O682 O 0.52929 0.63453 0.88537 0.0
O683 O 0.54096 0.59668 0.88643 0.0
C684 C 0.51031 0.61987 0.81449 0.0
C685 C 0.53831 0.61706 0.8968 0.0
C686 C 0.6343 0.28958 0.14775 0.0
C687 C 0.62953 0.26178 0.06544 0.0
O688 O 0.65493 0.29054 0.13755 0.0
Zn689 Zn 0.66883 0.28362 0.10138 0.0
O690 O 0.61606 0.28277 0.13601 0.0
Zn691 Zn 0.63237 0.27768 0.10649 0.0
O692 O 0.6559 0.24778 0.11545 0.0
O693 O 0.69276 0.25999 0.10779 0.0
O694 O 0.61305 0.26591 0.08046 0.0
O695 O 0.65109 0.26767 0.07083 0.0
O696 O 0.68025 0.31476 0.09118 0.0
O697 O 0.64151 0.31421 0.09836 0.0
C698 C 0.67856 0.24373 0.11497 0.0
C699 C 0.66058 0.32591 0.09326 0.0
C700 C 0.01288 0.43091 0.36795 0.0
C701 C 0.93 0.4212 0.3434 0.0
O702 O 0.00769 0.40878 0.36433 0.0
Zn703 Zn 0.97577 0.38847 0.35414 0.0
O704 O 0.99688 0.44691 0.36573 0.0
Zn705 Zn 0.97194 0.42565 0.35566 0.0
O706 O 0.96465 0.40721 0.38883 0.0
O707 O 0.96934 0.36866 0.38154 0.0
O708 O 0.9416 0.4402 0.34777 0.0
O709 O 0.94063 0.40091 0.34468 0.0
O710 O 0.98671 0.37231 0.32605 0.0
O711 O 0.98702 0.41158 0.32238 0.0
C712 C 0.96426 0.38541 0.396 0.0
C713 C 0.99194 0.39076 0.31385 0.0
C714 C 0.86843 0.7165 0.64853 0.0
C715 C 0.86783 0.74085 0.56511 0.0
O716 O 0.84758 0.7135 0.63927 0.0
Zn717 Zn 0.83113 0.7196 0.60429 0.0
O718 O 0.8854 0.72454 0.63572 0.0
Zn719 Zn 0.86772 0.72656 0.6065 0.0
O720 O 0.84431 0.75673 0.61386 0.0
O721 O 0.8072 0.74294 0.61244 0.0
O722 O 0.88537 0.73695 0.57898 0.0
O723 O 0.84664 0.73522 0.57208 0.0
O724 O 0.81971 0.68824 0.59522 0.0
O725 O 0.85883 0.68949 0.60014 0.0
C726 C 0.82166 0.76017 0.61573 0.0
C727 C 0.83965 0.67745 0.59627 0.0
C728 C 0.51334 0.38645 0.69181 0.0
C729 C 0.54052 0.3875 0.60934 0.0
O730 O 0.51894 0.40782 0.68535 0.0
Zn731 Zn 0.5343 0.42427 0.65345 0.0
O732 O 0.51743 0.36925 0.67759 0.0
Zn733 Zn 0.52897 0.38756 0.65104 0.0
O734 O 0.56491 0.39765 0.66088 0.0
O735 O 0.56502 0.43706 0.66224 0.0
O736 O 0.53466 0.36984 0.62235 0.0
O737 O 0.54091 0.40869 0.61827 0.0
O738 O 0.5104 0.44748 0.64653 0.0
O739 O 0.49813 0.41014 0.64179 0.0
C740 C 0.57617 0.4174 0.66406 0.0
C741 C 0.49387 0.43278 0.64132 0.0
C742 C 0.83562 0.32693 0.9112 0.0
C743 C 0.82114 0.24516 0.88603 0.0
O744 O 0.85538 0.31552 0.90876 0.0
Zn745 Zn 0.86583 0.27987 0.89881 0.0
O746 O 0.81597 0.31608 0.90799 0.0
Zn747 Zn 0.82892 0.28527 0.89949 0.0
O748 O 0.84377 0.26941 0.93183 0.0
O749 O 0.88269 0.2677 0.92604 0.0
O750 O 0.80604 0.26137 0.89117 0.0
O751 O 0.84369 0.24948 0.88782 0.0
O752 O 0.88486 0.28582 0.87104 0.0
O753 O 0.8462 0.29194 0.86519 0.0
C754 C 0.86472 0.26343 0.93925 0.0
C755 C 0.86777 0.29155 0.85722 0.0
C756 C 0.9293 0.58908 0.16483 0.0
C757 C 0.01127 0.57373 0.14061 0.0
O758 O 0.94056 0.60881 0.16129 0.0
Zn759 Zn 0.97665 0.61883 0.1512 0.0
O760 O 0.9403 0.56936 0.16274 0.0
Zn761 Zn 0.97081 0.58207 0.15347 0.0
O762 O 0.98615 0.59832 0.18537 0.0
O763 O 0.9885 0.63688 0.17778 0.0
O764 O 0.99495 0.55886 0.14602 0.0
O765 O 0.00694 0.59629 0.14164 0.0
O766 O 0.97218 0.63651 0.12234 0.0
O767 O 0.96324 0.59816 0.11868 0.0
C768 C 0.99218 0.61952 0.19194 0.0
C769 C 0.96495 0.61921 0.10955 0.0
C770 C 0.63114 0.74142 0.4395 0.0
C771 C 0.63504 0.71513 0.35679 0.0
O772 O 0.65267 0.73577 0.43379 0.0
Zn773 Zn 0.67006 0.72012 0.40287 0.0
O774 O 0.6145 0.73743 0.42463 0.0
Zn775 Zn 0.63365 0.72615 0.39832 0.0
O776 O 0.64297 0.68936 0.40617 0.0
O777 O 0.68179 0.68944 0.41317 0.0
O778 O 0.61725 0.72267 0.36876 0.0
O779 O 0.65561 0.71295 0.36693 0.0
O780 O 0.69392 0.74382 0.39627 0.0
O781 O 0.65693 0.75619 0.38974 0.0
C782 C 0.66224 0.67804 0.41151 0.0
C783 C 0.67958 0.76022 0.38976 0.0
C784 C 0.86404 0.49185 0.57494 0.0
C785 C 0.84127 0.57336 0.59506 0.0
O786 O 0.86423 0.49537 0.59765 0.0
Zn787 Zn 0.85546 0.52437 0.62187 0.0
O788 O 0.85709 0.50848 0.56107 0.0
Zn789 Zn 0.85023 0.53169 0.58556 0.0
O790 O 0.88589 0.53957 0.59987 0.0
O791 O 0.8854 0.52829 0.63784 0.0
O792 O 0.83938 0.56277 0.57506 0.0
O793 O 0.84671 0.56123 0.6138 0.0
O794 O 0.82947 0.51194 0.64089 0.0
O795 O 0.8198 0.51541 0.60296 0.0
C796 C 0.89652 0.53729 0.62016 0.0
C797 C 0.81438 0.50871 0.62425 0.0
C798 C 0.76125 0.61653 0.82402 0.0
C799 C 0.67935 0.59452 0.84208 0.0
O800 O 0.75759 0.61654 0.84675 0.0
Zn801 Zn 0.72766 0.60734 0.87033 0.0
O802 O 0.74456 0.61024 0.80994 0.0
Zn803 Zn 0.72137 0.60331 0.83391 0.0
O804 O 0.71454 0.63905 0.84889 0.0
O805 O 0.72292 0.63627 0.88756 0.0
O806 O 0.69039 0.59319 0.82232 0.0
O807 O 0.69105 0.59928 0.86124 0.0
O808 O 0.73916 0.58087 0.88902 0.0
O809 O 0.73735 0.57222 0.85073 0.0
C810 C 0.71586 0.64857 0.86981 0.0
C811 C 0.74312 0.56625 0.87216 0.0
C812 C 0.69007 0.49374 0.12416 0.0
C813 C 0.60728 0.46731 0.12151 0.0
O814 O 0.68411 0.48763 0.10283 0.0
Zn815 Zn 0.65294 0.47219 0.08585 0.0
O816 O 0.67527 0.49033 0.14101 0.0
Zn817 Zn 0.6487 0.47882 0.1223 0.0
O818 O 0.6563 0.44188 0.11328 0.0
O819 O 0.6629 0.44114 0.07439 0.0
O820 O 0.61926 0.47544 0.13905 0.0
O821 O 0.61727 0.46494 0.10089 0.0
O822 O 0.64609 0.49593 0.0619 0.0
O823 O 0.63981 0.50848 0.09884 0.0
C824 C 0.66112 0.4301 0.09414 0.0
C825 C 0.63962 0.51238 0.0762 0.0
C826 C 0.74508 0.38688 0.32336 0.0
C827 C 0.82705 0.41331 0.33572 0.0
O828 O 0.74959 0.3902 0.34568 0.0
Zn829 Zn 0.78073 0.40056 0.36701 0.0
O830 O 0.76144 0.38987 0.30786 0.0
Zn831 Zn 0.78565 0.39999 0.32993 0.0
O832 O 0.79342 0.3666 0.34783 0.0
O833 O 0.78727 0.37279 0.38632 0.0
O834 O 0.81614 0.40891 0.31632 0.0
O835 O 0.81592 0.41119 0.35567 0.0
O836 O 0.76887 0.42806 0.38351 0.0
O837 O 0.76964 0.43273 0.34435 0.0
C838 C 0.79347 0.35891 0.36946 0.0
C839 C 0.76406 0.44068 0.36523 0.0
C840 C 0.81517 0.49366 0.88856 0.0
C841 C 0.89724 0.46514 0.88786 0.0
O842 O 0.82191 0.48749 0.90967 0.0
Zn843 Zn 0.85373 0.47149 0.92539 0.0
O844 O 0.82905 0.48971 0.87105 0.0
Zn845 Zn 0.85581 0.47745 0.88868 0.0
O846 O 0.84586 0.44125 0.89864 0.0
O847 O 0.84428 0.44113 0.93811 0.0
O848 O 0.8845 0.47281 0.87068 0.0
O849 O 0.88821 0.46341 0.90894 0.0
O850 O 0.86208 0.49515 0.94864 0.0
O851 O 0.86617 0.50744 0.91129 0.0
C852 C 0.84244 0.43004 0.91842 0.0
C853 C 0.86765 0.51149 0.93387 0.0
C854 C 0.74304 0.61785 0.18058 0.0
C855 C 0.82606 0.59434 0.17106 0.0
O856 O 0.74829 0.61452 0.15842 0.0
Zn857 Zn 0.78034 0.60458 0.13817 0.0
O858 O 0.75893 0.6152 0.19662 0.0
Zn859 Zn 0.78384 0.60541 0.17536 0.0
O860 O 0.79098 0.63895 0.15743 0.0
O861 O 0.78654 0.63228 0.11874 0.0
O862 O 0.81415 0.59782 0.19004 0.0
O863 O 0.81561 0.5958 0.15069 0.0
O864 O 0.76991 0.5766 0.12156 0.0
O865 O 0.76891 0.57224 0.16074 0.0
C866 C 0.79143 0.64649 0.13576 0.0
C867 C 0.76449 0.56402 0.13967 0.0
C868 C 0.64117 0.49187 0.43051 0.0
C869 C 0.66211 0.57406 0.41234 0.0
O870 O 0.6404 0.49579 0.40787 0.0
Zn871 Zn 0.64829 0.52568 0.38425 0.0
O872 O 0.64769 0.50847 0.44459 0.0
Zn873 Zn 0.65367 0.53212 0.42052 0.0
O874 O 0.61765 0.53975 0.40661 0.0
O875 O 0.61834 0.52922 0.36842 0.0
O876 O 0.66419 0.56281 0.43194 0.0
O877 O 0.65644 0.5626 0.39324 0.0
O878 O 0.67424 0.51438 0.36463 0.0
O879 O 0.68433 0.51684 0.40251 0.0
C880 C 0.60704 0.53764 0.38627 0.0
C881 C 0.6896 0.51093 0.38094 0.0
C882 C 0.67925 0.40879 0.66979 0.0
C883 C 0.7613 0.38389 0.68334 0.0
O884 O 0.69044 0.4062 0.64989 0.0
Zn885 Zn 0.72628 0.39612 0.6391 0.0
O886 O 0.69022 0.40552 0.68939 0.0
Zn887 Zn 0.72056 0.39649 0.67601 0.0
O888 O 0.73617 0.42928 0.66103 0.0
O889 O 0.73752 0.42345 0.62202 0.0
O890 O 0.74458 0.38657 0.69847 0.0
O891 O 0.75714 0.38702 0.66096 0.0
O892 O 0.72138 0.36761 0.62043 0.0
O893 O 0.7118 0.36312 0.65844 0.0
C894 C 0.74164 0.43678 0.63994 0.0
C895 C 0.71313 0.35464 0.63714 0.0
C896 C 0.58405 0.84005 0.57605 0.0
C897 C 0.57076 0.86593 0.49435 0.0
O898 O 0.604 0.84278 0.56504 0.0
Zn899 Zn 0.61503 0.85318 0.52964 0.0
O900 O 0.56456 0.84307 0.56485 0.0
Zn901 Zn 0.57805 0.85202 0.53444 0.0
O902 O 0.59348 0.81997 0.51856 0.0
O903 O 0.63234 0.82617 0.51743 0.0
O904 O 0.55552 0.86046 0.51032 0.0
O905 O 0.59327 0.86433 0.49897 0.0
O906 O 0.63369 0.8811 0.53645 0.0
O907 O 0.59484 0.88635 0.54203 0.0
C908 C 0.61458 0.8128 0.51283 0.0
C909 C 0.61632 0.89454 0.54223 0.0
C910 C 0.07008 0.63559 0.5102 0.0
C911 C 0.08489 0.66003 0.4282 0.0
O912 O 0.09247 0.6387 0.50616 0.0
Zn913 Zn 0.11474 0.64783 0.4758 0.0
O914 O 0.055 0.63813 0.49338 0.0
Zn915 Zn 0.07775 0.64809 0.46949 0.0
O916 O 0.09546 0.61482 0.46123 0.0
O917 O 0.13341 0.61924 0.47127 0.0
O918 O 0.06504 0.65691 0.43877 0.0
O919 O 0.10455 0.65758 0.43983 0.0
O920 O 0.13137 0.67536 0.48751 0.0
O921 O 0.09236 0.68081 0.48531 0.0
C922 C 0.11672 0.60632 0.46286 0.0
C923 C 0.11321 0.68845 0.49145 0.0
C924 C 0.61688 0.82458 0.76097 0.0
C925 C 0.59082 0.83592 0.67917 0.0
O926 O 0.61566 0.84705 0.75598 0.0
Zn927 Zn 0.60481 0.86818 0.72457 0.0
O928 O 0.61129 0.80925 0.74517 0.0
Zn929 Zn 0.603 0.83134 0.72076 0.0
O930 O 0.6375 0.84745 0.71184 0.0
O931 O 0.63271 0.88636 0.71711 0.0
O932 O 0.59336 0.81687 0.69118 0.0
O933 O 0.594 0.85626 0.68935 0.0
O934 O 0.57838 0.88655 0.73613 0.0
O935 O 0.57121 0.84785 0.73635 0.0
C936 C 0.64583 0.86888 0.71101 0.0
C937 C 0.56455 0.86933 0.74127 0.0
C938 C 0.43268 0.3645 0.01217 0.0
C939 C 0.4128 0.34319 0.93047 0.0
O940 O 0.40993 0.36514 0.00884 0.0
Zn941 Zn 0.38566 0.35725 0.97936 0.0
O942 O 0.4463 0.35798 0.9952 0.0
Zn943 Zn 0.42173 0.35178 0.97221 0.0
O944 O 0.40779 0.38777 0.9648 0.0
O945 O 0.36983 0.38723 0.97611 0.0
O946 O 0.43258 0.34116 0.94141 0.0
O947 O 0.39389 0.34897 0.94222 0.0
O948 O 0.36613 0.33138 0.99099 0.0
O949 O 0.40395 0.32114 0.98791 0.0
C950 C 0.38755 0.39845 0.96734 0.0
C951 C 0.38244 0.31593 0.99413 0.0
C952 C 0.43764 0.63626 0.74252 0.0
C953 C 0.35512 0.63773 0.71515 0.0
O954 O 0.43127 0.65763 0.73685 0.0
Zn955 Zn 0.39984 0.67408 0.7208 0.0
O956 O 0.42336 0.61908 0.73849 0.0
Zn957 Zn 0.39655 0.63737 0.72731 0.0
O958 O 0.40476 0.64659 0.69068 0.0
O959 O 0.41033 0.68568 0.68999 0.0
O960 O 0.36702 0.62039 0.7238 0.0
O961 O 0.36497 0.65839 0.71293 0.0
O962 O 0.39125 0.69778 0.74427 0.0
O963 O 0.38846 0.66052 0.75732 0.0
C964 C 0.40961 0.6658 0.67905 0.0
C965 C 0.38686 0.68313 0.76108 0.0
C966 C 0.88067 0.18964 0.01008 0.0
C967 C 0.88573 0.10723 0.03734 0.0
O968 O 0.90216 0.1844 0.01632 0.0
Zn969 Zn 0.91999 0.15386 0.03207 0.0
O970 O 0.86429 0.17429 0.01332 0.0
Zn971 Zn 0.8837 0.14842 0.02506 0.0
O972 O 0.89204 0.15679 0.06192 0.0
O973 O 0.93074 0.16444 0.06318 0.0
O974 O 0.86792 0.11841 0.02867 0.0
O975 O 0.906 0.11793 0.03963 0.0
O976 O 0.94432 0.14745 0.00859 0.0
O977 O 0.90768 0.14021 0.9957 0.0
C978 C 0.91084 0.16228 0.07393 0.0
C979 C 0.93037 0.14059 0.992 0.0
C980 C 0.56372 0.13347 0.7615 0.0
C981 C 0.64631 0.13339 0.78839 0.0
O982 O 0.57061 0.15477 0.76684 0.0
Zn983 Zn 0.60277 0.17084 0.78197 0.0
O984 O 0.57756 0.11606 0.76601 0.0
Zn985 Zn 0.60451 0.13403 0.77745 0.0
O986 O 0.59512 0.14506 0.81338 0.0
O987 O 0.59439 0.18446 0.81241 0.0
O988 O 0.63289 0.11581 0.78326 0.0
O989 O 0.63773 0.15473 0.78851 0.0
O990 O 0.61032 0.19352 0.7578 0.0
O991 O 0.61469 0.1559 0.74629 0.0
C992 C 0.59237 0.16517 0.82414 0.0
C993 C 0.61585 0.17846 0.74171 0.0
C994 C 0.93955 0.86745 0.26199 0.0
C995 C 0.85704 0.86546 0.28954 0.0
O996 O 0.93347 0.84633 0.26862 0.0
Zn997 Zn 0.90265 0.82984 0.28494 0.0
O998 O 0.92513 0.88461 0.26558 0.0
Zn999 Zn 0.89846 0.86629 0.27778 0.0
O1000 O 0.90659 0.85794 0.31477 0.0
O1001 O 0.91313 0.81905 0.31593 0.0
O1002 O 0.86881 0.88294 0.281 0.0
O1003 O 0.86716 0.84492 0.29205 0.0
O1004 O 0.89581 0.80547 0.26176 0.0
O1005 O 0.88976 0.84226 0.2485 0.0
C1006 C 0.9118 0.83899 0.32668 0.0
C1007 C 0.88978 0.81955 0.24496 0.0
C1008 C 0.43029 0.41045 0.16202 0.0
C1009 C 0.51195 0.43114 0.14141 0.0
O1010 O 0.44095 0.43035 0.16428 0.0
Zn1011 Zn 0.47208 0.41978 0.15396 0.0
O1012 O 0.44241 0.39166 0.15668 0.0
Zn1013 Zn 0.47967 0.38379 0.14904 0.0
O1014 O 0.49131 0.36468 0.17512 0.0
O1015 O 0.48821 0.40261 0.18486 0.0
O1016 O 0.50892 0.40834 0.14103 0.0
O1017 O 0.49475 0.44463 0.1476 0.0
O1018 O 0.46525 0.40525 0.11791 0.0
O1019 O 0.47695 0.36744 0.11939 0.0
C1020 C 0.49457 0.38119 0.19029 0.0
C1021 C 0.46829 0.38485 0.10763 0.0
C1022 C 0.36881 0.71608 0.85749 0.0
C1023 C 0.3721 0.74191 0.94015 0.0
O1024 O 0.38679 0.72244 0.86982 0.0
Zn1025 Zn 0.36987 0.72707 0.8989 0.0
O1026 O 0.3479 0.71505 0.86709 0.0
Zn1027 Zn 0.33324 0.72157 0.90299 0.0
O1028 O 0.30982 0.74566 0.89675 0.0
O1029 O 0.347 0.75764 0.8903 0.0
O1030 O 0.35057 0.73659 0.93416 0.0
O1031 O 0.38887 0.73786 0.92544 0.0
O1032 O 0.36008 0.6906 0.90664 0.0
O1033 O 0.32114 0.69065 0.91279 0.0
C1034 C 0.32439 0.762 0.89061 0.0
C1035 C 0.34073 0.67926 0.91152 0.0
C1036 C 0.07431 0.59135 0.66023 0.0
C1037 C 0.992 0.57361 0.6391 0.0
O1038 O 0.06336 0.57151 0.66158 0.0
Zn1039 Zn 0.03213 0.58313 0.65205 0.0
O1040 O 0.06245 0.6105 0.65587 0.0
Zn1041 Zn 0.0258 0.61967 0.64848 0.0
O1042 O 0.01472 0.63803 0.67529 0.0
O1043 O 0.01667 0.59964 0.68352 0.0
O1044 O 0.99582 0.59631 0.63941 0.0
O1045 O 0.00859 0.5593 0.64519 0.0
O1046 O 0.03859 0.59857 0.61641 0.0
O1047 O 0.0301 0.63716 0.61966 0.0
C1048 C 0.01099 0.621 0.68979 0.0
C1049 C 0.03726 0.61961 0.60712 0.0
C1050 C 0.16891 0.32477 0.41314 0.0
C1051 C 0.1813 0.24302 0.38709 0.0
O1052 O 0.18816 0.31289 0.41153 0.0
Zn1053 Zn 0.1742 0.2833 0.40146 0.0
O1054 O 0.14873 0.31443 0.40933 0.0
Zn1055 Zn 0.13736 0.27874 0.39867 0.0
O1056 O 0.11872 0.26689 0.42495 0.0
O1057 O 0.15724 0.26786 0.43292 0.0
O1058 O 0.15885 0.24793 0.38819 0.0
O1059 O 0.19653 0.25875 0.39309 0.0
O1060 O 0.15856 0.29318 0.36707 0.0
O1061 O 0.11997 0.28493 0.3699 0.0
C1062 C 0.13579 0.26242 0.43922 0.0
C1063 C 0.13752 0.29275 0.35778 0.0
C1064 C 0.4943 0.62338 0.31621 0.0
C1065 C 0.46563 0.61806 0.39811 0.0
O1066 O 0.49046 0.63968 0.33148 0.0
Zn1067 Zn 0.47845 0.62012 0.35717 0.0
O1068 O 0.48826 0.6018 0.32133 0.0
Zn1069 Zn 0.47209 0.58385 0.35163 0.0
O1070 O 0.44154 0.57256 0.34046 0.0
O1071 O 0.4417 0.61125 0.34824 0.0
O1072 O 0.4637 0.59775 0.38744 0.0
O1073 O 0.47424 0.63595 0.38702 0.0
O1074 O 0.50801 0.59644 0.36602 0.0
O1075 O 0.4955 0.55972 0.35851 0.0
C1076 C 0.43029 0.59218 0.34233 0.0
C1077 C 0.51185 0.57377 0.36571 0.0
C1078 C 0.18435 0.75906 0.11636 0.0
C1079 C 0.16941 0.67699 0.09236 0.0
O1080 O 0.19931 0.74267 0.11144 0.0
Zn1081 Zn 0.17627 0.71862 0.1033 0.0
O1082 O 0.16181 0.75477 0.11475 0.0
Zn1083 Zn 0.13946 0.72445 0.10475 0.0
O1084 O 0.12113 0.72002 0.13319 0.0
O1085 O 0.15939 0.71101 0.13767 0.0
O1086 O 0.14962 0.68827 0.09532 0.0
O1087 O 0.1891 0.68808 0.09438 0.0
O1088 O 0.16084 0.73423 0.07115 0.0
O1089 O 0.12207 0.73622 0.0777 0.0
C1090 C 0.13814 0.71267 0.14633 0.0
C1091 C 0.13979 0.74023 0.06409 0.0
C1092 C 0.07487 0.41147 0.84453 0.0
C1093 C 0.99311 0.43144 0.86629 0.0
O1094 O 0.0643 0.4315 0.84279 0.0
Zn1095 Zn 0.03318 0.42081 0.85321 0.0
O1096 O 0.06272 0.39267 0.8497 0.0
Zn1097 Zn 0.02577 0.38456 0.85805 0.0
O1098 O 0.01395 0.36566 0.83186 0.0
O1099 O 0.01734 0.40365 0.8223 0.0
O1100 O 0.99654 0.4087 0.86643 0.0
O1101 O 0.01003 0.44526 0.86001 0.0
O1102 O 0.04077 0.40614 0.88885 0.0
O1103 O 0.02929 0.36825 0.8878 0.0
C1104 C 0.01095 0.38228 0.81672 0.0
C1105 C 0.03831 0.38572 0.89921 0.0
C1106 C 0.32238 0.24218 0.61649 0.0
C1107 C 0.33996 0.32483 0.59615 0.0
O1108 O 0.30771 0.25936 0.61388 0.0
Zn1109 Zn 0.33132 0.28312 0.60547 0.0
O1110 O 0.34494 0.24584 0.61435 0.0
Zn1111 Zn 0.36814 0.2759 0.60691 0.0
O1112 O 0.38612 0.27846 0.63595 0.0
O1113 O 0.34842 0.28979 0.6398 0.0
O1114 O 0.35911 0.31267 0.59971 0.0
O1115 O 0.31979 0.31438 0.59623 0.0
O1116 O 0.34642 0.26801 0.57301 0.0
O1117 O 0.38524 0.26523 0.57914 0.0
C1118 C 0.36939 0.28694 0.64879 0.0
C1119 C 0.36731 0.26191 0.56559 0.0
C1120 C 0.11045 0.46138 0.38572 0.0
C1121 C 0.19211 0.49141 0.38774 0.0
O1122 O 0.12388 0.46751 0.36845 0.0
Zn1123 Zn 0.15178 0.4744 0.38713 0.0
O1124 O 0.11859 0.46177 0.40722 0.0
Zn1125 Zn 0.15279 0.46976 0.42415 0.0
O1126 O 0.14421 0.4941 0.44648 0.0
O1127 O 0.14061 0.50517 0.40863 0.0
O1128 O 0.18483 0.48571 0.4088 0.0
O1129 O 0.17891 0.48659 0.36991 0.0
O1130 O 0.16206 0.439 0.39837 0.0
O1131 O 0.16183 0.43942 0.43779 0.0
C1132 C 0.13895 0.50998 0.43109 0.0
C1133 C 0.16477 0.42809 0.41837 0.0
C1134 C 0.24361 0.39006 0.17929 0.0
C1135 C 0.32618 0.41077 0.16163 0.0
O1136 O 0.26042 0.39463 0.19391 0.0
Zn1137 Zn 0.28408 0.40242 0.17004 0.0
O1138 O 0.24753 0.39087 0.15667 0.0
Zn1139 Zn 0.27767 0.39809 0.13344 0.0
O1140 O 0.28106 0.36809 0.1174 0.0
O1141 O 0.29178 0.36707 0.15549 0.0
O1142 O 0.3144 0.40593 0.14252 0.0
O1143 O 0.31512 0.41263 0.18139 0.0
O1144 O 0.26808 0.43339 0.15257 0.0
O1145 O 0.26656 0.42432 0.11431 0.0
C1146 C 0.28967 0.35669 0.13509 0.0
C1147 C 0.26229 0.43906 0.13102 0.0
C1148 C 0.34343 0.57534 0.91372 0.0
C1149 C 0.3671 0.49387 0.93212 0.0
O1150 O 0.34286 0.56446 0.93362 0.0
Zn1151 Zn 0.35321 0.53362 0.92228 0.0
O1152 O 0.34823 0.56362 0.89455 0.0
Zn1153 Zn 0.35626 0.52674 0.88579 0.0
O1154 O 0.32924 0.51465 0.86814 0.0
O1155 O 0.32188 0.51717 0.90664 0.0
O1156 O 0.36607 0.49739 0.90942 0.0
O1157 O 0.36109 0.51053 0.94638 0.0
O1158 O 0.38837 0.54066 0.90613 0.0
O1159 O 0.38516 0.53001 0.86811 0.0
C1160 C 0.31526 0.51083 0.8856 0.0
C1161 C 0.39776 0.53801 0.88526 0.0
C1162 C 0.17834 0.59291 0.66079 0.0
C1163 C 0.25974 0.61654 0.67991 0.0
O1164 O 0.18908 0.59139 0.68075 0.0
Zn1165 Zn 0.21995 0.60243 0.66982 0.0
O1166 O 0.19028 0.59823 0.6419 0.0
Zn1167 Zn 0.22691 0.60726 0.63342 0.0
O1168 O 0.23934 0.58125 0.61463 0.0
O1169 O 0.23643 0.57189 0.65269 0.0
O1170 O 0.25603 0.61643 0.65724 0.0
O1171 O 0.24327 0.60974 0.69404 0.0
O1172 O 0.21162 0.63791 0.65511 0.0
O1173 O 0.22264 0.63692 0.61708 0.0
C1174 C 0.24292 0.56636 0.63136 0.0
C1175 C 0.21368 0.64825 0.63463 0.0
C1176 C 0.10713 0.54019 0.11869 0.0
C1177 C 0.18913 0.51104 0.11574 0.0
O1178 O 0.12 0.53196 0.1355 0.0
Zn1179 Zn 0.14859 0.52692 0.11693 0.0
O1180 O 0.11567 0.54143 0.09742 0.0
Zn1181 Zn 0.14889 0.53264 0.07988 0.0
O1182 O 0.13886 0.5085 0.05749 0.0
O1183 O 0.13934 0.49622 0.09512 0.0
O1184 O 0.18154 0.51694 0.0948 0.0
O1185 O 0.17602 0.51523 0.13382 0.0
O1186 O 0.15876 0.56267 0.10609 0.0
O1187 O 0.15799 0.563 0.06658 0.0
C1188 C 0.13623 0.4919 0.07278 0.0
C1189 C 0.16131 0.57391 0.08621 0.0
C1190 C 0.21681 0.35538 0.86791 0.0
C1191 C 0.24326 0.43805 0.87013 0.0
O1192 O 0.22535 0.36735 0.88524 0.0
Zn1193 Zn 0.22826 0.3968 0.8685 0.0
O1194 O 0.21389 0.36541 0.84737 0.0
Zn1195 Zn 0.22065 0.40113 0.83229 0.0
O1196 O 0.24353 0.39432 0.80764 0.0
O1197 O 0.25738 0.38826 0.84416 0.0
O1198 O 0.23684 0.4322 0.84886 0.0
O1199 O 0.24004 0.42326 0.88701 0.0
O1200 O 0.19119 0.40453 0.86064 0.0
O1201 O 0.18934 0.41129 0.82182 0.0
C1202 C 0.26057 0.38823 0.8214 0.0
C1203 C 0.17889 0.40952 0.84189 0.0
C1204 C 0.39736 0.46563 0.62085 0.0
C1205 C 0.31472 0.49283 0.6178 0.0
O1206 O 0.38454 0.47439 0.63745 0.0
Zn1207 Zn 0.35568 0.47749 0.61925 0.0
O1208 O 0.38847 0.46284 0.59984 0.0
Zn1209 Zn 0.35434 0.47001 0.58248 0.0
O1210 O 0.36363 0.49329 0.55871 0.0
O1211 O 0.36424 0.50705 0.59583 0.0
O1212 O 0.32218 0.48631 0.59706 0.0
O1213 O 0.32795 0.48915 0.63591 0.0
O1214 O 0.34788 0.44083 0.61058 0.0
O1215 O 0.34453 0.43878 0.57129 0.0
C1216 C 0.36669 0.51048 0.57327 0.0
C1217 C 0.34424 0.42852 0.59155 0.0
C1218 C 0.32626 0.59314 0.34068 0.0
C1219 C 0.24427 0.61473 0.32207 0.0
O1220 O 0.31513 0.59124 0.321 0.0
Zn1221 Zn 0.28436 0.60183 0.33222 0.0
O1222 O 0.31468 0.59875 0.35973 0.0
Zn1223 Zn 0.27774 0.607 0.3685 0.0
O1224 O 0.26615 0.5809 0.38784 0.0
O1225 O 0.26861 0.57115 0.34986 0.0
O1226 O 0.24803 0.61521 0.34475 0.0
O1227 O 0.26093 0.60824 0.30805 0.0
O1228 O 0.29196 0.63773 0.34632 0.0
O1229 O 0.28127 0.63692 0.38446 0.0
C1230 C 0.26259 0.56573 0.37136 0.0
C1231 C 0.28972 0.64828 0.36667 0.0
C1232 C 0.38272 0.10785 0.464 0.0
C1233 C 0.38132 0.18953 0.49315 0.0
O1234 O 0.36514 0.12016 0.47149 0.0
Zn1235 Zn 0.38269 0.14868 0.47733 0.0
O1236 O 0.40384 0.11703 0.46345 0.0
Zn1237 Zn 0.41941 0.15222 0.47161 0.0
O1238 O 0.44268 0.14457 0.49557 0.0
O1239 O 0.40541 0.13862 0.5074 0.0
O1240 O 0.40271 0.18334 0.48745 0.0
O1241 O 0.36428 0.17515 0.48903 0.0
O1242 O 0.3925 0.15758 0.44121 0.0
O1243 O 0.4316 0.16278 0.44089 0.0
C1244 C 0.42801 0.13813 0.51171 0.0
C1245 C 0.41183 0.16219 0.42974 0.0
C1246 C 0.88332 0.31471 0.51043 0.0
C1247 C 0.88573 0.39716 0.53786 0.0
O1248 O 0.86638 0.32941 0.51389 0.0
Zn1249 Zn 0.88505 0.35576 0.52523 0.0
O1250 O 0.9047 0.32068 0.5165 0.0
Zn1251 Zn 0.92157 0.35199 0.5324 0.0
O1252 O 0.93272 0.34137 0.56335 0.0
O1253 O 0.89368 0.34705 0.56194 0.0
O1254 O 0.90624 0.38702 0.54035 0.0
O1255 O 0.86847 0.38557 0.52869 0.0
O1256 O 0.90865 0.36314 0.49539 0.0
O1257 O 0.94565 0.36005 0.50908 0.0
C1258 C 0.91265 0.34217 0.57395 0.0
C1259 C 0.93133 0.36433 0.49196 0.0
C1260 C 0.35774 0.13765 0.28859 0.0
C1261 C 0.44054 0.13749 0.26206 0.0
O1262 O 0.36991 0.12054 0.27987 0.0
Zn1263 Zn 0.39941 0.13772 0.27689 0.0
O1264 O 0.36734 0.15839 0.29112 0.0
Zn1265 Zn 0.40203 0.17453 0.284 0.0
O1266 O 0.3937 0.19832 0.26036 0.0
O1267 O 0.39183 0.16106 0.24703 0.0
O1268 O 0.43378 0.15858 0.26825 0.0
O1269 O 0.4266 0.11993 0.26576 0.0
O1270 O 0.40706 0.14658 0.31359 0.0
O1271 O 0.41179 0.18574 0.31529 0.0
C1272 C 0.39016 0.18366 0.24335 0.0
C1273 C 0.41114 0.1656 0.32579 0.0
C1274 C 0.58617 0.66243 0.07453 0.0
C1275 C 0.57182 0.63703 0.993 0.0
O1276 O 0.56663 0.66065 0.06315 0.0
Zn1277 Zn 0.57987 0.65103 0.0331 0.0
O1278 O 0.60612 0.65895 0.06364 0.0
Zn1279 Zn 0.61664 0.64876 0.02759 0.0
O1280 O 0.63453 0.67545 0.01543 0.0
O1281 O 0.59591 0.68276 0.01724 0.0
O1282 O 0.59437 0.6384 0.99729 0.0
O1283 O 0.55693 0.64259 0.00922 0.0
O1284 O 0.59617 0.6167 0.042 0.0
O1285 O 0.63452 0.62002 0.03294 0.0
C1286 C 0.61711 0.68941 0.01128 0.0
C1287 C 0.61726 0.60758 0.04092 0.0
C1288 C 0.64787 0.36765 0.29281 0.0
C1289 C 0.5659 0.36526 0.26377 0.0
O1290 O 0.63432 0.3849 0.28692 0.0
Zn1291 Zn 0.60613 0.3662 0.28036 0.0
O1292 O 0.63967 0.34621 0.29285 0.0
Zn1293 Zn 0.60588 0.32909 0.28538 0.0
O1294 O 0.61553 0.30673 0.26123 0.0
O1295 O 0.61609 0.34453 0.24934 0.0
O1296 O 0.57341 0.34423 0.26944 0.0
O1297 O 0.57897 0.38327 0.2684 0.0
O1298 O 0.59527 0.35524 0.31555 0.0
O1299 O 0.59684 0.31584 0.31603 0.0
C1300 C 0.61897 0.32214 0.24487 0.0
C1301 C 0.59281 0.3354 0.32681 0.0
C1302 C 0.07355 0.86349 0.01069 0.0
C1303 C 0.0954 0.84136 0.92962 0.0
O1304 O 0.06022 0.85703 0.99346 0.0
Zn1305 Zn 0.08525 0.85051 0.97094 0.0
O1306 O 0.09637 0.86384 0.00784 0.0
Zn1307 Zn 0.12122 0.85555 0.97909 0.0
O1308 O 0.1375 0.88522 0.97595 0.0
O1309 O 0.09984 0.88638 0.96374 0.0
O1310 O 0.11392 0.84689 0.94205 0.0
O1311 O 0.07516 0.83972 0.93978 0.0
O1312 O 0.10239 0.81971 0.98714 0.0
O1313 O 0.14021 0.82968 0.99122 0.0
C1314 C 0.12017 0.89678 0.96688 0.0
C1315 C 0.12371 0.81436 0.99385 0.0
C1316 C 0.35767 0.87315 0.21511 0.0
C1317 C 0.44017 0.87108 0.24215 0.0
O1318 O 0.37101 0.89025 0.22187 0.0
Zn1319 Zn 0.39924 0.87161 0.22678 0.0
O1320 O 0.36602 0.85172 0.21432 0.0
Zn1321 Zn 0.4004 0.83464 0.22158 0.0
O1322 O 0.39126 0.81195 0.24557 0.0
O1323 O 0.39011 0.84965 0.25776 0.0
O1324 O 0.43268 0.84991 0.23716 0.0
O1325 O 0.42689 0.88887 0.23743 0.0
O1326 O 0.40713 0.86094 0.1907 0.0
O1327 O 0.41007 0.82162 0.19101 0.0
C1328 C 0.38778 0.82717 0.26209 0.0
C1329 C 0.41082 0.84121 0.17959 0.0
C1330 C 0.14637 0.13796 0.70997 0.0
C1331 C 0.06469 0.14031 0.73948 0.0
O1332 O 0.13351 0.12111 0.71811 0.0
Zn1333 Zn 0.10504 0.13961 0.72335 0.0
O1334 O 0.13786 0.15925 0.70885 0.0
Zn1335 Zn 0.1045 0.17664 0.71796 0.0
O1336 O 0.11468 0.19892 0.74216 0.0
O1337 O 0.11445 0.1612 0.75419 0.0
O1338 O 0.07205 0.16145 0.73401 0.0
O1339 O 0.07791 0.12243 0.73487 0.0
O1340 O 0.09465 0.15055 0.68778 0.0
O1341 O 0.09503 0.19005 0.6877 0.0
C1342 C 0.11751 0.18353 0.75864 0.0
C1343 C 0.09181 0.17047 0.67669 0.0
C1344 C 0.11677 0.06997 0.34862 0.0
C1345 C 0.10232 0.08629 0.33592 0.0
C1346 C 0.14185 0.07152 0.34781 0.0
C1347 C 0.1532 0.08887 0.33362 0.0
H1348 H 0.10864 0.05661 0.3601 0.0
H1349 H 0.1524 0.05923 0.35849 0.0
S1350 S 0.12356 0.13512 0.29635 0.0
N1351 N 0.10121 0.12013 0.30863 0.0
N1352 N 0.14833 0.12231 0.30622 0.0
C1353 C 0.13899 0.10472 0.32021 0.0
C1354 C 0.11352 0.10361 0.32159 0.0
C1355 C 0.14482 0.88974 0.60362 0.0
C1356 C 0.16034 0.90265 0.58857 0.0
C1357 C 0.14428 0.86466 0.60324 0.0
C1358 C 0.15965 0.85151 0.58822 0.0
H1359 H 0.13266 0.89909 0.6155 0.0
H1360 H 0.1321 0.8555 0.61526 0.0
S1361 S 0.20374 0.87681 0.54551 0.0
N1362 N 0.19117 0.90052 0.55796 0.0
N1363 N 0.19088 0.85325 0.55796 0.0
C1364 C 0.17539 0.86418 0.57321 0.0
C1365 C 0.17552 0.88978 0.57316 0.0
C1366 C 0.39066 0.9325 0.85132 0.0
C1367 C 0.40539 0.91645 0.83863 0.0
C1368 C 0.36561 0.93103 0.84987 0.0
C1369 C 0.35454 0.91405 0.835 0.0
H1370 H 0.39853 0.94561 0.86326 0.0
H1371 H 0.35484 0.9431 0.86057 0.0
S1372 S 0.38505 0.86864 0.79739 0.0
N1373 N 0.40711 0.8833 0.81056 0.0
N1374 N 0.36006 0.88125 0.80695 0.0
C1375 C 0.36906 0.89849 0.82157 0.0
C1376 C 0.3945 0.8995 0.82362 0.0
C1377 C 0.35069 0.14051 0.07394 0.0
C1378 C 0.33644 0.1518 0.0913 0.0
C1379 C 0.35158 0.11545 0.07234 0.0
C1380 C 0.33892 0.10091 0.0886 0.0
H1381 H 0.36128 0.15112 0.06163 0.0
H1382 H 0.363 0.10741 0.05888 0.0
S1383 S 0.29932 0.12184 0.13749 0.0
N1384 N 0.30909 0.14669 0.12477 0.0
N1385 N 0.3117 0.09958 0.12245 0.0
C1386 C 0.32462 0.112 0.106 0.0
C1387 C 0.32313 0.13748 0.10716 0.0
C1388 C 0.11411 0.92523 0.17621 0.0
C1389 C 0.10121 0.91017 0.16068 0.0
C1390 C 0.13927 0.925 0.17657 0.0
C1391 C 0.15235 0.91034 0.16081 0.0
H1392 H 0.10469 0.9371 0.18831 0.0
H1393 H 0.14854 0.93657 0.18908 0.0
S1394 S 0.127 0.86802 0.11626 0.0
N1395 N 0.10336 0.88022 0.12916 0.0
N1396 N 0.1505 0.88039 0.12924 0.0
C1397 C 0.13962 0.89544 0.14498 0.0
C1398 C 0.11409 0.89518 0.14509 0.0
C1399 C 0.35634 0.89007 0.39878 0.0
C1400 C 0.34131 0.90332 0.41401 0.0
C1401 C 0.35611 0.86503 0.39898 0.0
C1402 C 0.34039 0.85227 0.41396 0.0
H1403 H 0.36871 0.89913 0.38689 0.0
H1404 H 0.36798 0.85559 0.38687 0.0
S1405 S 0.29719 0.87853 0.45695 0.0
N1406 N 0.31049 0.90196 0.44469 0.0
N1407 N 0.30927 0.85468 0.44427 0.0
C1408 C 0.32506 0.86526 0.4291 0.0
C1409 C 0.32576 0.89085 0.42937 0.0
C1410 C 0.39052 0.09954 0.68078 0.0
C1411 C 0.4021 0.08467 0.66415 0.0
C1412 C 0.36541 0.10051 0.68191 0.0
C1413 C 0.35114 0.0873 0.66585 0.0
H1414 H 0.40093 0.1106 0.69285 0.0
H1415 H 0.35714 0.11247 0.69475 0.0
S1416 S 0.37293 0.04592 0.61882 0.0
N1417 N 0.39756 0.05612 0.63164 0.0
N1418 N 0.35043 0.05884 0.63301 0.0
C1419 C 0.36255 0.07233 0.64922 0.0
C1420 C 0.38804 0.07078 0.64857 0.0
C1421 C 0.17847 0.1125 0.92316 0.0
C1422 C 0.16307 0.09966 0.9079 0.0
C1423 C 0.17867 0.13766 0.92321 0.0
C1424 C 0.16286 0.15078 0.90863 0.0
H1425 H 0.19054 0.10304 0.93504 0.0
H1426 H 0.19104 0.1469 0.93494 0.0
S1427 S 0.1188 0.12563 0.8657 0.0
N1428 N 0.13178 0.10195 0.87771 0.0
N1429 N 0.13154 0.14908 0.87842 0.0
C1430 C 0.14724 0.13813 0.89347 0.0
C1431 C 0.14752 0.1126 0.89293 0.0
C1432 C 0.10659 0.3572 0.14018 0.0
C1433 C 0.0914 0.34241 0.15375 0.0
C1434 C 0.10687 0.356 0.11514 0.0
C1435 C 0.09153 0.34039 0.10267 0.0
H1436 H 0.11878 0.36947 0.14899 0.0
H1437 H 0.11886 0.36779 0.10546 0.0
S1438 S 0.04803 0.29822 0.12979 0.0
N1439 N 0.06076 0.31151 0.15295 0.0
N1440 N 0.06054 0.31001 0.10571 0.0
C1441 C 0.07601 0.32572 0.11598 0.0
C1442 C 0.07617 0.3265 0.14156 0.0
C1443 C 0.57203 0.14935 0.88702 0.0
C1444 C 0.58641 0.16426 0.90139 0.0
C1445 C 0.5738 0.14986 0.86194 0.0
C1446 C 0.5894 0.16589 0.85041 0.0
H1447 H 0.56005 0.13649 0.89525 0.0
H1448 H 0.56301 0.13757 0.85151 0.0
S1449 S 0.63031 0.2091 0.87994 0.0
N1450 N 0.61663 0.19547 0.90234 0.0
N1451 N 0.61918 0.19729 0.85522 0.0
C1452 C 0.6033 0.1814 0.86458 0.0
C1453 C 0.60203 0.18035 0.89008 0.0
C1454 C 0.8983 0.85547 0.36589 0.0
C1455 C 0.91345 0.83994 0.35309 0.0
C1456 C 0.89809 0.85561 0.39099 0.0
C1457 C 0.91343 0.84063 0.40422 0.0
H1458 H 0.88611 0.86725 0.35645 0.0
H1459 H 0.88616 0.86791 0.40009 0.0
S1460 S 0.95677 0.79696 0.37926 0.0
N1461 N 0.94405 0.8091 0.35547 0.0
N1462 N 0.94431 0.81001 0.4027 0.0
C1463 C 0.92888 0.82523 0.39166 0.0
C1464 C 0.92869 0.82469 0.36608 0.0
C1465 C 0.92527 0.17823 0.13858 0.0
C1466 C 0.91062 0.16236 0.15154 0.0
C1467 C 0.92524 0.17827 0.1134 0.0
C1468 C 0.9099 0.16306 0.1004 0.0
H1469 H 0.93707 0.19045 0.14795 0.0
H1470 H 0.93715 0.19039 0.10405 0.0
S1471 S 0.86747 0.11875 0.12599 0.0
N1472 N 0.88026 0.13121 0.14954 0.0
N1473 N 0.87955 0.13189 0.10244 0.0
C1474 C 0.89486 0.14745 0.11322 0.0
C1475 C 0.8954 0.14693 0.13874 0.0
C1476 C 0.39579 0.65 0.63982 0.0
C1477 C 0.41136 0.66502 0.65269 0.0
C1478 C 0.39595 0.6496 0.61476 0.0
C1479 C 0.41212 0.66376 0.60163 0.0
H1480 H 0.38304 0.63875 0.64918 0.0
H1481 H 0.38366 0.63769 0.60562 0.0
S1482 S 0.45666 0.70605 0.62683 0.0
N1483 N 0.44309 0.6947 0.65054 0.0
N1484 N 0.44413 0.69321 0.60331 0.0
C1485 C 0.42793 0.67873 0.61426 0.0
C1486 C 0.42733 0.67959 0.63982 0.0
C1487 C 0.07147 0.64923 0.38705 0.0
C1488 C 0.08558 0.66373 0.40208 0.0
C1489 C 0.07392 0.65027 0.36206 0.0
C1490 C 0.08996 0.66641 0.35134 0.0
H1491 H 0.05919 0.63629 0.39468 0.0
H1492 H 0.06331 0.63832 0.35107 0.0
S1493 S 0.13042 0.70863 0.38281 0.0
N1494 N 0.11601 0.69465 0.40454 0.0
N1495 N 0.11985 0.69744 0.35756 0.0
C1496 C 0.10361 0.6815 0.36617 0.0
C1497 C 0.10162 0.67993 0.39157 0.0
C1498 C 0.39773 0.3575 0.8659 0.0
C1499 C 0.41232 0.34157 0.85294 0.0
C1500 C 0.39743 0.35732 0.891 0.0
C1501 C 0.41213 0.34158 0.90407 0.0
H1502 H 0.38604 0.36987 0.85657 0.0
H1503 H 0.38598 0.36996 0.90024 0.0
S1504 S 0.45396 0.29669 0.8787 0.0
N1505 N 0.44179 0.30961 0.85503 0.0
N1506 N 0.44187 0.30987 0.90225 0.0
C1507 C 0.42704 0.32579 0.89136 0.0
C1508 C 0.42695 0.3256 0.86579 0.0
C1509 C 0.8897 0.92455 0.67932 0.0
C1510 C 0.90292 0.90944 0.66408 0.0
C1511 C 0.86451 0.92425 0.67926 0.0
C1512 C 0.85177 0.9095 0.66331 0.0
H1513 H 0.89889 0.93655 0.69148 0.0
H1514 H 0.85496 0.93592 0.69146 0.0
S1515 S 0.87795 0.86687 0.61955 0.0
N1516 N 0.90132 0.8792 0.63278 0.0
N1517 N 0.85422 0.87928 0.63206 0.0
C1518 C 0.8648 0.89447 0.64787 0.0
C1519 C 0.89032 0.89428 0.64841 0.0
C1520 C 0.82502 0.13944 0.42539 0.0
C1521 C 0.84046 0.15224 0.41016 0.0
C1522 C 0.82589 0.11429 0.42652 0.0
C1523 C 0.84159 0.10119 0.41179 0.0
H1524 H 0.81253 0.14894 0.43679 0.0
H1525 H 0.81409 0.10504 0.43883 0.0
S1526 S 0.88508 0.12634 0.36826 0.0
N1527 N 0.87172 0.14998 0.37993 0.0
N1528 N 0.87275 0.10292 0.38141 0.0
C1529 C 0.85675 0.11383 0.39616 0.0
C1530 C 0.85634 0.13932 0.39551 0.0
C1531 C 0.63971 0.10811 0.1492 0.0
C1532 C 0.65267 0.09258 0.16421 0.0
C1533 C 0.61464 0.1081 0.1491 0.0
C1534 C 0.60157 0.09214 0.16357 0.0
H1535 H 0.64902 0.1207 0.13774 0.0
H1536 H 0.60543 0.12032 0.13717 0.0
S1537 S 0.62702 0.04784 0.20597 0.0
N1538 N 0.65068 0.06115 0.19421 0.0
N1539 N 0.60342 0.06041 0.1933 0.0
C1540 C 0.61429 0.0764 0.17854 0.0
C1541 C 0.63988 0.07684 0.17908 0.0
C1542 C 0.67968 0.89066 0.92742 0.0
C1543 C 0.66451 0.90373 0.91214 0.0
C1544 C 0.67941 0.86548 0.92752 0.0
C1545 C 0.66331 0.85263 0.91301 0.0
H1546 H 0.69205 0.89994 0.93914 0.0
H1547 H 0.69173 0.85603 0.93914 0.0
S1548 S 0.61936 0.87852 0.87036 0.0
N1549 N 0.63294 0.90194 0.88218 0.0
N1550 N 0.63169 0.85489 0.88312 0.0
C1551 C 0.64775 0.86555 0.898 0.0
C1552 C 0.64855 0.89104 0.89736 0.0
C1553 C 0.86689 0.08171 0.82225 0.0
C1554 C 0.85339 0.0962 0.83782 0.0
C1555 C 0.89204 0.08162 0.8232 0.0
C1556 C 0.90451 0.09667 0.8391 0.0
H1557 H 0.85794 0.0701 0.80955 0.0
H1558 H 0.9018 0.06981 0.8113 0.0
S1559 S 0.87749 0.13858 0.88301 0.0
N1560 N 0.85437 0.12607 0.8695 0.0
N1561 N 0.90147 0.1266 0.87057 0.0
C1562 C 0.8912 0.11159 0.85439 0.0
C1563 C 0.86568 0.11116 0.85393 0.0
C1564 C 0.64653 0.13839 0.60346 0.0
C1565 C 0.66052 0.15157 0.5872 0.0
C1566 C 0.64702 0.11334 0.60362 0.0
C1567 C 0.66106 0.10046 0.58715 0.0
H1568 H 0.6355 0.14752 0.61656 0.0
H1569 H 0.63593 0.10398 0.61651 0.0
S1570 S 0.70066 0.1265 0.54067 0.0
N1571 N 0.68901 0.15 0.55436 0.0
N1572 N 0.68914 0.10271 0.55399 0.0
C1573 C 0.67491 0.11338 0.57057 0.0
C1574 C 0.67488 0.13899 0.57081 0.0
C1575 C 0.61537 0.92806 0.32824 0.0
C1576 C 0.60217 0.91279 0.3433 0.0
C1577 C 0.64054 0.92735 0.32791 0.0
C1578 C 0.65329 0.912 0.3433 0.0
H1579 H 0.60619 0.9404 0.31642 0.0
H1580 H 0.65008 0.93905 0.31573 0.0
S1581 S 0.62705 0.86896 0.38665 0.0
N1582 N 0.6037 0.88192 0.37399 0.0
N1583 N 0.6508 0.88128 0.37408 0.0
C1584 C 0.64025 0.89695 0.35872 0.0
C1585 C 0.61473 0.89716 0.35853 0.0
C1586 C 0.82011 0.86651 0.09919 0.0
C1587 C 0.8398 0.85245 0.09191 0.0
C1588 C 0.821 0.89164 0.09836 0.0
C1589 C 0.84138 0.90346 0.08969 0.0
H1590 H 0.80413 0.85808 0.10626 0.0
H1591 H 0.80573 0.90186 0.10456 0.0
S1592 S 0.89738 0.8754 0.0679 0.0
N1593 N 0.8802 0.85257 0.07555 0.0
N1594 N 0.88147 0.89971 0.07342 0.0
C1595 C 0.86094 0.88976 0.08191 0.0
C1596 C 0.86026 0.86426 0.08315 0.0
C1597 C 0.89919 0.64877 0.89147 0.0
C1598 C 0.91425 0.66419 0.90449 0.0
C1599 C 0.89909 0.64889 0.86639 0.0
C1600 C 0.91362 0.66484 0.85339 0.0
H1601 H 0.8877 0.63617 0.90073 0.0
H1602 H 0.88712 0.63676 0.85711 0.0
S1603 S 0.95617 0.70891 0.87899 0.0
N1604 N 0.94435 0.69556 0.90259 0.0
N1605 N 0.94346 0.69646 0.85536 0.0
C1606 C 0.92864 0.68048 0.86617 0.0
C1607 C 0.92916 0.67995 0.89175 0.0
C1608 C 0.3996 0.85711 0.11479 0.0
C1609 C 0.415 0.84163 0.10228 0.0
C1610 C 0.39891 0.85717 0.13984 0.0
C1611 C 0.41311 0.84131 0.15327 0.0
H1612 H 0.38836 0.86966 0.10517 0.0
H1613 H 0.38681 0.86946 0.14874 0.0
S1614 S 0.45609 0.79691 0.12906 0.0
N1615 N 0.44493 0.81017 0.10507 0.0
N1616 N 0.44282 0.80953 0.1523 0.0
C1617 C 0.42833 0.82548 0.14101 0.0
C1618 C 0.42953 0.82587 0.11545 0.0
C1619 C 0.10152 0.18532 0.63577 0.0
C1620 C 0.08765 0.17042 0.65062 0.0
C1621 C 0.10047 0.18324 0.61076 0.0
C1622 C 0.08491 0.16678 0.5998 0.0
H1623 H 0.11414 0.19783 0.64355 0.0
H1624 H 0.11215 0.19431 0.59993 0.0
S1625 S 0.04408 0.12453 0.63075 0.0
N1626 N 0.05765 0.13903 0.65266 0.0
N1627 N 0.05483 0.13585 0.60563 0.0
C1628 C 0.07023 0.1525 0.61445 0.0
C1629 C 0.07183 0.15412 0.63989 0.0
C1630 C 0.08314 0.82327 0.86514 0.0
C1631 C 0.09758 0.83932 0.85218 0.0
C1632 C 0.08257 0.82383 0.89031 0.0
C1633 C 0.09709 0.83985 0.90326 0.0
H1634 H 0.07187 0.81056 0.85578 0.0
H1635 H 0.0708 0.81159 0.89968 0.0
S1636 S 0.1387 0.8849 0.8777 0.0
N1637 N 0.12696 0.87142 0.85416 0.0
N1638 N 0.12642 0.87196 0.90126 0.0
C1639 C 0.11197 0.85559 0.89047 0.0
C1640 C 0.11208 0.85546 0.86497 0.0
C1641 C 0.59905 0.32287 0.39316 0.0
C1642 C 0.58343 0.33967 0.40349 0.0
C1643 C 0.60091 0.3206 0.36819 0.0
C1644 C 0.58782 0.33563 0.35277 0.0
H1645 H 0.61015 0.31165 0.40445 0.0
H1646 H 0.61355 0.3078 0.36093 0.0
S1647 S 0.54429 0.38231 0.37093 0.0
N1648 N 0.55405 0.37101 0.39646 0.0
N1649 N 0.55835 0.36745 0.34958 0.0
C1650 C 0.5719 0.35224 0.3629 0.0
C1651 C 0.56948 0.35407 0.38827 0.0
C1652 C 0.92695 0.3242 0.63813 0.0
C1653 C 0.91155 0.339 0.65146 0.0
C1654 C 0.92723 0.32517 0.61296 0.0
C1655 C 0.91149 0.34032 0.60035 0.0
H1656 H 0.93914 0.31214 0.64721 0.0
H1657 H 0.93971 0.31389 0.6033 0.0
S1658 S 0.86703 0.3819 0.62704 0.0
N1659 N 0.87999 0.36899 0.65024 0.0
N1660 N 0.87992 0.37019 0.60316 0.0
C1661 C 0.89567 0.35479 0.61354 0.0
C1662 C 0.89586 0.35429 0.63904 0.0
C1663 C 0.60087 0.68466 0.13692 0.0
C1664 C 0.58806 0.66863 0.15159 0.0
C1665 C 0.60007 0.68279 0.11187 0.0
C1666 C 0.58578 0.66538 0.10073 0.0
H1667 H 0.6124 0.69809 0.14486 0.0
H1668 H 0.61078 0.69491 0.10115 0.0
S1669 S 0.54826 0.61972 0.13099 0.0
N1670 N 0.56061 0.63494 0.15313 0.0
N1671 N 0.55821 0.63214 0.10606 0.0
C1672 C 0.5723 0.64977 0.11515 0.0
C1673 C 0.57368 0.65121 0.14061 0.0
C1674 C 0.61513 0.57795 0.82669 0.0
C1675 C 0.60177 0.59332 0.84153 0.0
C1676 C 0.64029 0.57835 0.82691 0.0
C1677 C 0.6529 0.59349 0.84261 0.0
H1678 H 0.60607 0.56569 0.8147 0.0
H1679 H 0.64994 0.56653 0.81494 0.0
S1680 S 0.6263 0.63686 0.88537 0.0
N1681 N 0.60305 0.62417 0.87226 0.0
N1682 N 0.65016 0.62428 0.87327 0.0
C1683 C 0.63973 0.60872 0.85771 0.0
C1684 C 0.61421 0.60881 0.85701 0.0
C1685 C 0.67645 0.39066 0.07893 0.0
C1686 C 0.66152 0.4036 0.09458 0.0
C1687 C 0.67608 0.36548 0.07847 0.0
C1688 C 0.66016 0.35244 0.09301 0.0
H1689 H 0.68865 0.40006 0.06714 0.0
H1690 H 0.68816 0.35617 0.06648 0.0
S1691 S 0.61695 0.37791 0.13667 0.0
N1692 N 0.63032 0.40148 0.12488 0.0
N1693 N 0.62913 0.35441 0.12353 0.0
C1694 C 0.64494 0.36522 0.1085 0.0
C1695 C 0.64576 0.39074 0.10942 0.0
C1696 C 0.86822 0.40499 0.32049 0.0
C1697 C 0.85306 0.4182 0.33566 0.0
C1698 C 0.89322 0.40656 0.32258 0.0
C1699 C 0.90387 0.42201 0.33935 0.0
H1700 H 0.86073 0.39241 0.30775 0.0
H1701 H 0.90429 0.3953 0.31131 0.0
S1702 S 0.87205 0.46156 0.38215 0.0
N1703 N 0.85043 0.44774 0.36745 0.0
N1704 N 0.8974 0.4515 0.37069 0.0
C1705 C 0.88891 0.43617 0.35381 0.0
C1706 C 0.86349 0.43404 0.35216 0.0
C1707 C 0.82486 0.63794 0.58086 0.0
C1708 C 0.84046 0.65098 0.59573 0.0
C1709 C 0.82505 0.61277 0.58078 0.0
C1710 C 0.84022 0.59983 0.5962 0.0
H1711 H 0.81267 0.64725 0.56899 0.0
H1712 H 0.81313 0.60337 0.56871 0.0
S1713 S 0.88391 0.62563 0.63915 0.0
N1714 N 0.87134 0.64913 0.62636 0.0
N1715 N 0.87111 0.60201 0.62684 0.0
C1716 C 0.85558 0.61271 0.61144 0.0
C1717 C 0.85586 0.63825 0.61104 0.0
C1718 C 0.61322 0.40076 0.68281 0.0
C1719 C 0.6024 0.41721 0.66716 0.0
C1720 C 0.63824 0.39902 0.68441 0.0
C1721 C 0.65319 0.41307 0.66978 0.0
H1722 H 0.60227 0.38904 0.69372 0.0
H1723 H 0.64592 0.38587 0.69643 0.0
S1724 S 0.63367 0.45863 0.62572 0.0
N1725 N 0.60847 0.44813 0.63712 0.0
N1726 N 0.65548 0.44401 0.63935 0.0
C1727 C 0.6426 0.42962 0.65415 0.0
C1728 C 0.61718 0.43192 0.65305 0.0
C1729 C 0.82042 0.36796 0.90209 0.0
C1730 C 0.83594 0.35304 0.91523 0.0
C1731 C 0.82237 0.393 0.90333 0.0
C1732 C 0.83932 0.40385 0.91839 0.0
H1733 H 0.80737 0.36023 0.88999 0.0
H1734 H 0.81068 0.40392 0.89236 0.0
S1735 S 0.88348 0.37282 0.95706 0.0
N1736 N 0.8686 0.35094 0.94386 0.0
N1737 N 0.87154 0.39796 0.94703 0.0
C1738 C 0.85436 0.38916 0.9322 0.0
C1739 C 0.85286 0.36373 0.93041 0.0
C1740 C 0.88863 0.57262 0.15665 0.0
C1741 C 0.90317 0.58922 0.16883 0.0
C1742 C 0.86357 0.57398 0.15789 0.0
C1743 C 0.85227 0.59142 0.17204 0.0
H1744 H 0.89664 0.55915 0.14523 0.0
H1745 H 0.85296 0.56151 0.14748 0.0
S1746 S 0.88224 0.63828 0.20827 0.0
N1747 N 0.90449 0.62333 0.19576 0.0
N1748 N 0.85739 0.6252 0.19898 0.0
C1749 C 0.8666 0.60751 0.18504 0.0
C1750 C 0.89208 0.6066 0.1832 0.0
C1751 C 0.64736 0.6134 0.39741 0.0
C1752 C 0.66324 0.60049 0.41209 0.0
C1753 C 0.64665 0.63848 0.398 0.0
C1754 C 0.66216 0.6516 0.41288 0.0
H1755 H 0.63501 0.60406 0.38573 0.0
H1756 H 0.63419 0.64766 0.38629 0.0
S1757 S 0.70719 0.6263 0.45463 0.0
N1758 N 0.69461 0.6026 0.44216 0.0
N1759 N 0.6939 0.64984 0.44261 0.0
C1760 C 0.67827 0.63892 0.42751 0.0
C1761 C 0.67862 0.61334 0.42731 0.0
C1762 C 0.56889 0.85054 0.61667 0.0
C1763 C 0.58392 0.8364 0.60219 0.0
C1764 C 0.57082 0.85001 0.64172 0.0
C1765 C 0.58723 0.83469 0.65306 0.0
H1766 H 0.55638 0.86295 0.60856 0.0
H1767 H 0.55965 0.86185 0.65226 0.0
S1768 S 0.62978 0.79335 0.62322 0.0
N1769 N 0.6154 0.80646 0.60094 0.0
N1770 N 0.61826 0.80458 0.64804 0.0
C1771 C 0.60165 0.81977 0.6388 0.0
C1772 C 0.6002 0.82086 0.61333 0.0
C1773 C 0.39082 0.42468 0.17798 0.0
C1774 C 0.40382 0.40962 0.16252 0.0
C1775 C 0.36566 0.42509 0.17759 0.0
C1776 C 0.35269 0.41109 0.16115 0.0
H1777 H 0.40016 0.4361 0.19057 0.0
H1778 H 0.35632 0.43662 0.19007 0.0
S1779 S 0.37838 0.3691 0.11643 0.0
N1780 N 0.40189 0.38041 0.13032 0.0
N1781 N 0.35481 0.38177 0.12898 0.0
C1782 C 0.36554 0.39619 0.14539 0.0
C1783 C 0.39105 0.39528 0.14625 0.0
C1784 C 0.35634 0.63989 0.89767 0.0
C1785 C 0.341 0.65283 0.91288 0.0
C1786 C 0.35633 0.6148 0.89751 0.0
C1787 C 0.34141 0.60172 0.91301 0.0
H1788 H 0.3682 0.64921 0.88546 0.0
H1789 H 0.36854 0.6056 0.88557 0.0
S1790 S 0.29805 0.62705 0.95643 0.0
N1791 N 0.31023 0.65075 0.94357 0.0
N1792 N 0.31092 0.60349 0.944 0.0
C1793 C 0.32611 0.61441 0.92845 0.0
C1794 C 0.32568 0.63999 0.92817 0.0
C1795 C 0.13906 0.57683 0.67557 0.0
C1796 C 0.1519 0.59177 0.65985 0.0
C1797 C 0.11388 0.57665 0.67564 0.0
C1798 C 0.10077 0.59204 0.66063 0.0
H1799 H 0.14853 0.56509 0.68777 0.0
H1800 H 0.10463 0.56465 0.68776 0.0
S1801 S 0.12587 0.63482 0.61637 0.0
N1802 N 0.14955 0.62219 0.62875 0.0
N1803 N 0.10245 0.62245 0.6295 0.0
C1804 C 0.11341 0.6072 0.64499 0.0
C1805 C 0.13893 0.60689 0.64444 0.0
C1806 C 0.15486 0.38763 0.43451 0.0
C1807 C 0.16831 0.4019 0.41865 0.0
C1808 C 0.15533 0.36253 0.43295 0.0
C1809 C 0.16991 0.35096 0.41607 0.0
H1810 H 0.14305 0.39592 0.44747 0.0
H1811 H 0.14407 0.35214 0.44485 0.0
S1812 S 0.20916 0.38011 0.37114 0.0
N1813 N 0.19673 0.40262 0.38575 0.0
N1814 N 0.1985 0.35548 0.38358 0.0
C1815 C 0.18408 0.365 0.40072 0.0
C1816 C 0.18305 0.39049 0.40181 0.0
C1817 C 0.39072 0.60758 0.35607 0.0
C1818 C 0.40385 0.5925 0.34075 0.0
C1819 C 0.36563 0.60704 0.35644 0.0
C1820 C 0.35271 0.59178 0.34112 0.0
H1821 H 0.3999 0.61955 0.36827 0.0
H1822 H 0.35629 0.61906 0.36847 0.0
S1823 S 0.37858 0.54903 0.29741 0.0
N1824 N 0.40211 0.56175 0.31002 0.0
N1825 N 0.35487 0.56136 0.31009 0.0
C1826 C 0.36559 0.5768 0.32553 0.0
C1827 C 0.39118 0.57697 0.32553 0.0
C1828 C 0.15163 0.61492 0.0715 0.0
C1829 C 0.16551 0.59997 0.08631 0.0
C1830 C 0.15319 0.63994 0.07324 0.0
C1831 C 0.16927 0.65077 0.08926 0.0
H1832 H 0.13874 0.60722 0.05921 0.0
H1833 H 0.14162 0.65088 0.06215 0.0
S1834 S 0.21008 0.61956 0.13135 0.0
N1835 N 0.19587 0.59773 0.11733 0.0
N1836 N 0.19963 0.64474 0.11986 0.0
C1837 C 0.1838 0.63602 0.10358 0.0
C1838 C 0.18169 0.61059 0.10231 0.0
C1839 C 0.13938 0.42572 0.82804 0.0
C1840 C 0.15246 0.41041 0.84318 0.0
C1841 C 0.11422 0.42596 0.82846 0.0
C1842 C 0.10132 0.4103 0.8434 0.0
H1843 H 0.14865 0.43776 0.81599 0.0
H1844 H 0.1048 0.43832 0.81684 0.0
S1845 S 0.12719 0.36627 0.88596 0.0
N1846 N 0.15067 0.37915 0.87345 0.0
N1847 N 0.10354 0.37903 0.87365 0.0
C1848 C 0.11423 0.39468 0.85835 0.0
C1849 C 0.13976 0.39489 0.8584 0.0
C1850 C 0.32733 0.38919 0.57797 0.0
C1851 C 0.34269 0.40218 0.59313 0.0
C1852 C 0.32632 0.36406 0.57907 0.0
C1853 C 0.34128 0.35118 0.59472 0.0
H1854 H 0.31585 0.39852 0.56542 0.0
H1855 H 0.31403 0.35464 0.56738 0.0
S1856 S 0.38498 0.37683 0.63768 0.0
N1857 N 0.37314 0.40033 0.6242 0.0
N1858 N 0.37179 0.35324 0.6257 0.0
C1859 C 0.35688 0.36399 0.60972 0.0
C1860 C 0.35745 0.38948 0.60907 0.0
C1861 C 0.42642 0.17929 0.39078 0.0
C1862 C 0.41134 0.16348 0.40332 0.0
C1863 C 0.42635 0.18 0.3656 0.0
C1864 C 0.41189 0.16429 0.35222 0.0
H1865 H 0.43808 0.19137 0.40048 0.0
H1866 H 0.43787 0.19272 0.35655 0.0
S1867 S 0.36978 0.119 0.37663 0.0
N1868 N 0.38169 0.13171 0.4005 0.0
N1869 N 0.38223 0.13241 0.35343 0.0
C1870 C 0.39706 0.14815 0.36462 0.0
C1871 C 0.39661 0.14791 0.39011 0.0
C1872 C 0.99059 0.14491 0.28583 0.0
C1873 C 0.99864 0.12166 0.29149 0.0
C1874 C 0.97315 0.14879 0.26817 0.0
C1875 C 0.96295 0.12959 0.25545 0.0
H1876 H 0.99687 0.16022 0.29594 0.0
H1877 H 0.96662 0.16687 0.26555 0.0
S1878 S 0.98072 0.06568 0.26036 0.0
N1879 N 0.99723 0.07947 0.28061 0.0
N1880 N 0.96449 0.08678 0.24751 0.0
C1881 C 0.97222 0.10648 0.25953 0.0
C1882 C 0.99005 0.10252 0.27749 0.0
C1883 C 0.14272 0.73672 0.52905 0.0
C1884 C 0.12352 0.74616 0.54238 0.0
C1885 C 0.13902 0.7192 0.51144 0.0
C1886 C 0.11594 0.71045 0.50626 0.0
H1887 H 0.16098 0.74192 0.53305 0.0
H1888 H 0.15457 0.7117 0.50261 0.0
S1889 S 0.05916 0.73163 0.53367 0.0
N1890 N 0.08022 0.74721 0.54735 0.0
N1891 N 0.07328 0.71443 0.51424 0.0
C1892 C 0.09638 0.72104 0.51815 0.0
C1893 C 0.10016 0.73882 0.53621 0.0
C1894 C 0.53214 0.85463 0.76853 0.0
C1895 C 0.54287 0.87375 0.75612 0.0
C1896 C 0.51515 0.85873 0.78656 0.0
C1897 C 0.50811 0.88212 0.79293 0.0
H1898 H 0.53788 0.83638 0.76535 0.0
H1899 H 0.50844 0.84342 0.79639 0.0
S1900 S 0.52766 0.93816 0.76292 0.0
N1901 N 0.54282 0.9168 0.74926 0.0
N1902 N 0.51096 0.92449 0.78311 0.0
C1903 C 0.51717 0.90127 0.77926 0.0
C1904 C 0.53453 0.89709 0.7609 0.0
C1905 C 0.39647 0.28008 0.01714 0.0
C1906 C 0.37736 0.29362 0.00783 0.0
C1907 C 0.39256 0.26189 0.034 0.0
C1908 C 0.36935 0.25634 0.04221 0.0
H1909 H 0.41479 0.28441 0.01246 0.0
H1910 H 0.40803 0.25296 0.04155 0.0
S1911 S 0.31278 0.28374 0.02043 0.0
N1912 N 0.33405 0.29814 0.0058 0.0
N1913 N 0.3267 0.26398 0.03743 0.0
C1914 C 0.34991 0.26835 0.03153 0.0
C1915 C 0.35391 0.28699 0.0144 0.0
C1916 C 0.98483 0.89831 0.22172 0.0
C1917 C 0.99647 0.879 0.21046 0.0
C1918 C 0.96755 0.8945 0.23955 0.0
C1919 C 0.96131 0.87122 0.24702 0.0
H1920 H 0.98799 0.9165 0.21575 0.0
H1921 H 0.95819 0.90992 0.24668 0.0
S1922 S 0.98942 0.81471 0.2259 0.0
N1923 N 0.00264 0.83589 0.21008 0.0
N1924 N 0.97036 0.82868 0.24363 0.0
C1925 C 0.97425 0.85186 0.23728 0.0
C1926 C 0.99174 0.85575 0.21899 0.0
C1927 C 0.39913 0.72159 0.48488 0.0
C1928 C 0.37969 0.71098 0.4969 0.0
C1929 C 0.39555 0.73917 0.46731 0.0
C1930 C 0.37238 0.74699 0.4611 0.0
H1931 H 0.41722 0.71532 0.48801 0.0
H1932 H 0.41106 0.74579 0.45773 0.0
S1933 S 0.31571 0.72788 0.49029 0.0
N1934 N 0.33665 0.71178 0.50356 0.0
N1935 N 0.32988 0.74486 0.47068 0.0
C1936 C 0.35293 0.73796 0.47441 0.0
C1937 C 0.35658 0.71995 0.49223 0.0
C1938 C 0.51815 0.10186 0.72206 0.0
C1939 C 0.50546 0.12093 0.71156 0.0
C1940 C 0.53585 0.10599 0.73942 0.0
C1941 C 0.5416 0.12935 0.74709 0.0
H1942 H 0.51546 0.08369 0.71584 0.0
H1943 H 0.54593 0.09074 0.74592 0.0
S1944 S 0.51063 0.18512 0.72827 0.0
N1945 N 0.49768 0.1638 0.71242 0.0
N1946 N 0.53088 0.17153 0.74497 0.0
C1947 C 0.52766 0.14838 0.73819 0.0
C1948 C 0.50964 0.14418 0.72045 0.0
C1949 C 0.10948 0.26265 0.96774 0.0
C1950 C 0.13271 0.25564 0.96078 0.0
C1951 C 0.10584 0.27991 0.98562 0.0
C1952 C 0.12525 0.29104 0.99722 0.0
H1953 H 0.09393 0.25561 0.95853 0.0
H1954 H 0.08764 0.28553 0.98933 0.0
S1955 S 0.18956 0.27649 0.98835 0.0
N1956 N 0.17537 0.25922 0.96903 0.0
N1957 N 0.16851 0.29166 0.00249 0.0
C1958 C 0.1485 0.28289 0.99175 0.0
C1959 C 0.15222 0.2652 0.9736 0.0
C1960 C 0.28218 0.98498 0.10267 0.0
C1961 C 0.29333 0.99674 0.12197 0.0
C1962 C 0.26457 0.96745 0.10651 0.0
C1963 C 0.25724 0.96104 0.12979 0.0
H1964 H 0.28806 0.98826 0.08448 0.0
H1965 H 0.25753 0.95804 0.09108 0.0
S1966 S 0.27821 0.98921 0.1863 0.0
N1967 N 0.29374 0.00273 0.16511 0.0
N1968 N 0.26068 0.96998 0.17232 0.0
C1969 C 0.26688 0.97405 0.14914 0.0
C1970 C 0.28491 0.99181 0.14523 0.0
C1971 C 0.28207 0.01962 0.39775 0.0
C1972 C 0.2923 0.00667 0.37871 0.0
C1973 C 0.26465 0.03723 0.39364 0.0
C1974 C 0.25663 0.04262 0.37032 0.0
H1975 H 0.28855 0.0172 0.41587 0.0
H1976 H 0.25837 0.04753 0.40882 0.0
S1977 S 0.27476 0.01098 0.31471 0.0
N1978 N 0.29092 0.99833 0.33598 0.0
N1979 N 0.25819 0.03135 0.32825 0.0
C1980 C 0.26529 0.02845 0.35134 0.0
C1981 C 0.28312 0.01053 0.35553 0.0
C1982 C 0.22289 0.01664 0.60403 0.0
C1983 C 0.21139 0.0053 0.62336 0.0
C1984 C 0.24067 0.03397 0.60779 0.0
C1985 C 0.24778 0.04067 0.63106 0.0
H1986 H 0.21717 0.01323 0.58581 0.0
H1987 H 0.24795 0.04308 0.59229 0.0
S1988 S 0.22632 0.01316 0.68769 0.0
N1989 N 0.21071 0.99963 0.66656 0.0
N1990 N 0.24409 0.03214 0.67365 0.0
C1991 C 0.23792 0.02795 0.65048 0.0
C1992 C 0.21974 0.01031 0.64664 0.0
C1993 C 0.2352 0.96997 0.84885 0.0
C1994 C 0.25001 0.96233 0.86775 0.0
C1995 C 0.21645 0.98625 0.85277 0.0
C1996 C 0.21184 0.99571 0.87571 0.0
H1997 H 0.23702 0.96215 0.8312 0.0
H1998 H 0.20475 0.99046 0.83789 0.0
S1999 S 0.24825 0.9847 0.93031 0.0
N2000 N 0.26081 0.96783 0.90955 0.0
N2001 N 0.22582 0.99852 0.91692 0.0
C2002 C 0.22784 0.98977 0.89431 0.0
C2003 C 0.24684 0.97307 0.89032 0.0
C2004 C 0.64369 0.23871 0.02959 0.0
C2005 C 0.62453 0.24735 0.04352 0.0
C2006 C 0.64008 0.22153 0.01161 0.0
C2007 C 0.61713 0.2123 0.00664 0.0
H2008 H 0.66188 0.2443 0.03335 0.0
H2009 H 0.65563 0.21465 0.00229 0.0
S2010 S 0.56042 0.23119 0.03582 0.0
N2011 N 0.58133 0.24704 0.04941 0.0
N2012 N 0.57458 0.21488 0.01567 0.0
C2013 C 0.59757 0.22205 0.01923 0.0
C2014 C 0.60125 0.23949 0.03765 0.0
C2015 C 0.0121 0.36512 0.28307 0.0
C2016 C 0.00705 0.38815 0.29205 0.0
C2017 C 0.03011 0.36141 0.26597 0.0
C2018 C 0.04393 0.38056 0.25714 0.0
H2019 H 0.00289 0.34959 0.29014 0.0
H2020 H 0.03402 0.34318 0.26062 0.0
S2021 S 0.03567 0.44484 0.27229 0.0
N2022 N 0.01567 0.43074 0.28883 0.0
N2023 N 0.04944 0.42382 0.25675 0.0
C2024 C 0.03785 0.40391 0.26461 0.0
C2025 C 0.01944 0.40768 0.28201 0.0
C2026 C 0.85233 0.7692 0.53404 0.0
C2027 C 0.87142 0.75552 0.54318 0.0
C2028 C 0.85624 0.78724 0.51697 0.0
C2029 C 0.87938 0.79227 0.50824 0.0
H2030 H 0.83443 0.76708 0.5412 0.0
H2031 H 0.84112 0.79812 0.51157 0.0
S2032 S 0.93477 0.75859 0.52329 0.0
N2033 N 0.9138 0.74608 0.53994 0.0
N2034 N 0.92117 0.77977 0.50781 0.0
C2035 C 0.89829 0.77731 0.51574 0.0
C2036 C 0.8943 0.75903 0.53322 0.0
C2037 C 0.01427 0.64675 0.21992 0.0
C2038 C 0.00661 0.62344 0.214 0.0
C2039 C 0.032 0.65068 0.23725 0.0
C2040 C 0.04289 0.63145 0.24933 0.0
H2041 H 0.0075 0.6621 0.21017 0.0
H2042 H 0.03824 0.66883 0.24003 0.0
S2043 S 0.0262 0.56731 0.24384 0.0
N2044 N 0.00898 0.58111 0.22418 0.0
N2045 N 0.0423 0.58851 0.25668 0.0
C2046 C 0.03393 0.60824 0.24515 0.0
C2047 C 0.01578 0.60424 0.22754 0.0
C2048 C 0.46812 0.39738 0.74121 0.0
C2049 C 0.46227 0.37404 0.74884 0.0
C2050 C 0.48603 0.40143 0.72406 0.0
C2051 C 0.49876 0.3823 0.71371 0.0
H2052 H 0.45797 0.41263 0.74758 0.0
H2053 H 0.48881 0.41959 0.71782 0.0
S2054 S 0.49326 0.31815 0.73035 0.0
N2055 N 0.47292 0.33181 0.74687 0.0
N2056 N 0.50644 0.33944 0.71464 0.0
C2057 C 0.49447 0.35909 0.72258 0.0
C2058 C 0.47629 0.35496 0.74014 0.0
C2059 C 0.01792 0.85534 0.71766 0.0
C2060 C 0.00844 0.87825 0.71297 0.0
C2061 C 0.03531 0.85178 0.73542 0.0
C2062 C 0.04404 0.871 0.74917 0.0
H2063 H 0.01285 0.84016 0.7067 0.0
H2064 H 0.04302 0.83408 0.73727 0.0
S2065 S 0.02225 0.93376 0.74694 0.0
N2066 N 0.00692 0.91989 0.72582 0.0
N2067 N 0.03966 0.91318 0.75905 0.0
C2068 C 0.03337 0.89361 0.74601 0.0
C2069 C 0.01555 0.89724 0.72799 0.0
C2070 C 0.89489 0.26259 0.46852 0.0
C2071 C 0.87172 0.25611 0.46094 0.0
C2072 C 0.89846 0.28039 0.48586 0.0
C2073 C 0.879 0.29256 0.49628 0.0
H2074 H 0.91052 0.25475 0.46013 0.0
H2075 H 0.91668 0.28557 0.49004 0.0
S2076 S 0.81461 0.27984 0.48547 0.0
N2077 N 0.82892 0.26137 0.4674 0.0
N2078 N 0.83563 0.29481 0.49987 0.0
C2079 C 0.85571 0.28497 0.49026 0.0
C2080 C 0.85207 0.26674 0.47266 0.0
C2081 C 0.46951 0.11073 0.24067 0.0
C2082 C 0.4624 0.13403 0.24722 0.0
C2083 C 0.48672 0.10686 0.22279 0.0
C2084 C 0.49743 0.12613 0.21058 0.0
H2085 H 0.46088 0.09525 0.24856 0.0
H2086 H 0.49056 0.08857 0.2176 0.0
S2087 S 0.48781 0.1907 0.22335 0.0
N2088 N 0.46958 0.17671 0.24193 0.0
N2089 N 0.50175 0.16944 0.20831 0.0
C2090 C 0.49185 0.14953 0.2182 0.0
C2091 C 0.47442 0.15347 0.23653 0.0
C2092 C 0.64444 0.71772 0.98962 0.0
C2093 C 0.62105 0.71144 0.99673 0.0
C2094 C 0.64856 0.73543 0.97228 0.0
C2095 C 0.62946 0.74756 0.96119 0.0
H2096 H 0.65976 0.7081 0.99664 0.0
H2097 H 0.66683 0.73858 0.96657 0.0
S2098 S 0.56498 0.74069 0.97605 0.0
N2099 N 0.57864 0.72096 0.99331 0.0
N2100 N 0.58638 0.75413 0.96073 0.0
C2101 C 0.60609 0.74278 0.96942 0.0
C2102 C 0.60188 0.72479 0.98718 0.0
C2103 C 0.03498 0.15592 0.76916 0.0
C2104 C 0.0431 0.13699 0.75465 0.0
C2105 C 0.01836 0.15197 0.78758 0.0
C2106 C 0.00903 0.12897 0.79215 0.0
H2107 H 0.04264 0.17365 0.76734 0.0
H2108 H 0.01375 0.16691 0.79906 0.0
S2109 S 0.02131 0.07422 0.7564 0.0
N2110 N 0.03824 0.09505 0.74405 0.0
N2111 N 0.0069 0.08762 0.77845 0.0
C2112 C 0.01549 0.11031 0.77644 0.0
C2113 C 0.03254 0.11432 0.75778 0.0
C2114 C 0.63819 0.28296 0.51094 0.0
C2115 C 0.6151 0.29211 0.50652 0.0
C2116 C 0.64215 0.26533 0.52835 0.0
C2117 C 0.62321 0.25615 0.5422 0.0
H2118 H 0.6536 0.2903 0.50172 0.0
H2119 H 0.66045 0.2599 0.53185 0.0
S2120 S 0.5588 0.27131 0.53512 0.0
N2121 N 0.57261 0.28855 0.5155 0.0
N2122 N 0.58002 0.25542 0.54818 0.0
C2123 C 0.59976 0.26371 0.53663 0.0
C2124 C 0.59573 0.28166 0.5188 0.0
C2125 C 0.48892 0.85872 0.28765 0.0
C2126 C 0.49781 0.88175 0.29291 0.0
C2127 C 0.47152 0.85516 0.26991 0.0
C2128 C 0.46219 0.8745 0.25672 0.0
H2129 H 0.49448 0.8434 0.29816 0.0
H2130 H 0.46432 0.8373 0.26761 0.0
S2131 S 0.48227 0.93776 0.26054 0.0
N2132 N 0.49809 0.92375 0.2812 0.0
N2133 N 0.46537 0.91704 0.24796 0.0
C2134 C 0.47227 0.89731 0.26043 0.0
C2135 C 0.49008 0.90094 0.27846 0.0
C2136 C 0.85287 0.73523 0.0338 0.0
C2137 C 0.87183 0.74909 0.04293 0.0
C2138 C 0.85698 0.71723 0.01677 0.0
C2139 C 0.88018 0.71242 0.00807 0.0
H2140 H 0.83497 0.73715 0.04101 0.0
H2141 H 0.84198 0.70617 0.0114 0.0
S2142 S 0.93519 0.74678 0.02292 0.0
N2143 N 0.91409 0.75907 0.03956 0.0
N2144 N 0.92181 0.7254 0.00751 0.0
C2145 C 0.89892 0.72762 0.01546 0.0
C2146 C 0.89474 0.74588 0.0329 0.0
C2147 C 0.74367 0.03595 0.89138 0.0
C2148 C 0.74954 0.04341 0.86801 0.0
C2149 C 0.72621 0.01838 0.89548 0.0
C2150 C 0.71373 0.00764 0.8764 0.0
H2151 H 0.75173 0.0446 0.90675 0.0
H2152 H 0.72148 0.01432 0.91385 0.0
S2153 S 0.72503 0.0179 0.81168 0.0
N2154 N 0.74352 0.03642 0.82541 0.0
N2155 N 0.71068 0.00352 0.83314 0.0
C2156 C 0.72079 0.01349 0.85291 0.0
C2157 C 0.7387 0.03131 0.84871 0.0
C2158 C 0.73531 0.97164 0.64835 0.0
C2159 C 0.74804 0.96159 0.62906 0.0
C2160 C 0.71749 0.98893 0.64459 0.0
C2161 C 0.71164 0.99698 0.6214 0.0
H2162 H 0.73807 0.96512 0.6664 0.0
H2163 H 0.70739 0.99507 0.65997 0.0
S2164 S 0.74255 0.97935 0.56521 0.0
N2165 N 0.75568 0.96322 0.58621 0.0
N2166 N 0.72225 0.99569 0.57915 0.0
C2167 C 0.72558 0.9885 0.60216 0.0
C2168 C 0.74372 0.97083 0.60599 0.0
C2169 C 0.77067 0.9702 0.35584 0.0
C2170 C 0.75876 0.95933 0.37522 0.0
C2171 C 0.78833 0.98766 0.35954 0.0
C2172 C 0.7947 0.99514 0.38276 0.0
H2173 H 0.76739 0.96421 0.33769 0.0
H2174 H 0.79782 0.9945 0.34407 0.0
S2175 S 0.766 0.97514 0.43937 0.0
N2176 N 0.75249 0.95942 0.4183 0.0
N2177 N 0.7855 0.99232 0.4253 0.0
C2178 C 0.78153 0.98583 0.40218 0.0
C2179 C 0.76365 0.96791 0.3984 0.0
C2180 C 0.76892 0.0334 0.14949 0.0
C2181 C 0.75674 0.04419 0.13024 0.0
C2182 C 0.78656 0.01594 0.14561 0.0
C2183 C 0.79269 0.00839 0.12232 0.0
H2184 H 0.7659 0.03946 0.16766 0.0
H2185 H 0.79625 0.00921 0.161 0.0
S2186 S 0.76332 0.02823 0.06603 0.0
N2187 N 0.75001 0.04396 0.08722 0.0
N2188 N 0.78302 0.01112 0.07991 0.0
C2189 C 0.77929 0.01765 0.10305 0.0
C2190 C 0.76139 0.03555 0.10701 0.0
C2191 C 0.3576 0.76706 0.97427 0.0
C2192 C 0.37681 0.75605 0.96222 0.0
C2193 C 0.36156 0.78459 0.99177 0.0
C2194 C 0.3849 0.7918 0.99809 0.0
H2195 H 0.33928 0.76321 0.96917 0.0
H2196 H 0.34612 0.79342 0.9995 0.0
S2197 S 0.44142 0.76547 0.97491 0.0
N2198 N 0.42008 0.75135 0.96013 0.0
N2199 N 0.42754 0.78424 0.99303 0.0
C2200 C 0.40428 0.77944 0.9877 0.0
C2201 C 0.40023 0.76162 0.96976 0.0
C2202 C 0.96776 0.60998 0.74091 0.0
C2203 C 0.96148 0.6333 0.7482 0.0
C2204 C 0.98516 0.60605 0.72323 0.0
C2205 C 0.99692 0.6253 0.71198 0.0
H2206 H 0.95832 0.5946 0.74801 0.0
H2207 H 0.9883 0.58783 0.71736 0.0
S2208 S 0.99001 0.68965 0.72725 0.0
N2209 N 0.97072 0.67579 0.74483 0.0
N2210 N 0.00328 0.66839 0.71159 0.0
C2211 C 0.99223 0.64859 0.72044 0.0
C2212 C 0.97459 0.65259 0.73855 0.0
C2213 C 0.10362 0.22221 0.48366 0.0
C2214 C 0.12246 0.21275 0.49745 0.0
C2215 C 0.10789 0.23948 0.46593 0.0
C2216 C 0.13117 0.24808 0.46125 0.0
H2217 H 0.08562 0.21521 0.48552 0.0
H2218 H 0.09292 0.24516 0.45498 0.0
S2219 S 0.18602 0.23229 0.49539 0.0
N2220 N 0.16478 0.21565 0.50746 0.0
N2221 N 0.17279 0.24806 0.47418 0.0
C2222 C 0.14983 0.24024 0.47629 0.0
C2223 C 0.14548 0.22261 0.49434 0.0
C2224 C 0.96995 0.39313 0.76367 0.0
C2225 C 0.96282 0.36985 0.75706 0.0
C2226 C 0.98683 0.39697 0.78187 0.0
C2227 C 0.99721 0.37769 0.79436 0.0
H2228 H 0.96155 0.40863 0.75558 0.0
H2229 H 0.99066 0.41526 0.78708 0.0
S2230 S 0.98769 0.31315 0.78145 0.0
N2231 N 0.9698 0.32716 0.76256 0.0
N2232 N 1.00139 0.3344 0.79676 0.0
C2233 C 0.99168 0.35431 0.78668 0.0
C2234 C 0.97456 0.35039 0.76804 0.0
C2235 C 0.53496 0.6136 0.26263 0.0
C2236 C 0.5432 0.63684 0.25728 0.0
C2237 C 0.51792 0.60957 0.28063 0.0
C2238 C 0.50847 0.62859 0.29421 0.0
H2239 H 0.54253 0.5982 0.25359 0.0
H2240 H 0.51313 0.59123 0.28474 0.0
S2241 S 0.52161 0.69321 0.2852 0.0
N2242 N 0.53866 0.67941 0.2654 0.0
N2243 N 0.50672 0.67187 0.29921 0.0
C2244 C 0.51525 0.65208 0.2879 0.0
C2245 C 0.53256 0.65619 0.26945 0.0
C2246 C 0.48774 0.64727 0.78698 0.0
C2247 C 0.49563 0.62397 0.7926 0.0
C2248 C 0.47019 0.65126 0.76945 0.0
C2249 C 0.45966 0.63211 0.75691 0.0
H2250 H 0.49429 0.66253 0.79699 0.0
H2251 H 0.46385 0.6694 0.7668 0.0
S2252 S 0.47658 0.56801 0.76206 0.0
N2253 N 0.49353 0.58172 0.78201 0.0
N2254 N 0.46051 0.58924 0.74924 0.0
C2255 C 0.46866 0.60892 0.76103 0.0
C2256 C 0.48665 0.60485 0.77879 0.0
C2257 C 0.89491 0.22484 0.98625 0.0
C2258 C 0.87573 0.21179 0.9961 0.0
C2259 C 0.89103 0.24274 0.96908 0.0
C2260 C 0.8678 0.24848 0.9611 0.0
H2261 H 0.91323 0.22031 0.99075 0.0
H2262 H 0.90653 0.2513 0.96115 0.0
S2263 S 0.81114 0.22241 0.98422 0.0
N2264 N 0.8324 0.20797 0.99882 0.0
N2265 N 0.82511 0.24161 0.96663 0.0
C2266 C 0.84833 0.23699 0.97228 0.0
C2267 C 0.85229 0.21864 0.98972 0.0
C2268 C 0.64545 0.76641 0.4739 0.0
C2269 C 0.6263 0.75565 0.46153 0.0
C2270 C 0.64142 0.78372 0.49164 0.0
C2271 C 0.61807 0.79096 0.49789 0.0
H2272 H 0.66379 0.76248 0.46896 0.0
H2273 H 0.65685 0.79231 0.49966 0.0
S2274 S 0.56162 0.7654 0.47369 0.0
N2275 N 0.58301 0.75135 0.45891 0.0
N2276 N 0.57544 0.78379 0.49223 0.0
C2277 C 0.59872 0.77893 0.48705 0.0
C2278 C 0.60284 0.76133 0.46889 0.0
C2279 C 0.77039 0.46736 0.65565 0.0
C2280 C 0.75612 0.45887 0.63671 0.0
C2281 C 0.78817 0.4847 0.65177 0.0
C2282 C 0.79236 0.49434 0.62882 0.0
H2283 H 0.76892 0.4595 0.67332 0.0
H2284 H 0.79954 0.4896 0.6667 0.0
S2285 S 0.75683 0.48122 0.57412 0.0
N2286 N 0.74517 0.46369 0.59485 0.0
N2287 N 0.7784 0.4963 0.58755 0.0
C2288 C 0.7768 0.48747 0.61017 0.0
C2289 C 0.75877 0.46972 0.61412 0.0
C2290 C 0.78659 0.51522 0.8615 0.0
C2291 C 0.79318 0.5083 0.88486 0.0
C2292 C 0.76907 0.53277 0.8575 0.0
C2293 C 0.75748 0.54426 0.87668 0.0
H2294 H 0.79584 0.5079 0.84611 0.0
H2295 H 0.76568 0.53831 0.83922 0.0
S2296 S 0.7652 0.52995 0.94117 0.0
N2297 N 0.78443 0.51227 0.92737 0.0
N2298 N 0.75161 0.54525 0.91984 0.0
C2299 C 0.76249 0.53618 0.90005 0.0
C2300 C 0.78028 0.5182 0.90414 0.0
C2301 C 0.71669 0.51737 0.15156 0.0
C2302 C 0.7124 0.50765 0.12866 0.0
C2303 C 0.73489 0.53426 0.15541 0.0
C2304 C 0.74952 0.54223 0.1365 0.0
H2305 H 0.70511 0.51291 0.16646 0.0
H2306 H 0.73643 0.54222 0.17302 0.0
S2307 S 0.74853 0.5194 0.07407 0.0
N2308 N 0.72648 0.50501 0.0875 0.0
N2309 N 0.76055 0.53678 0.09473 0.0
C2310 C 0.7467 0.53126 0.11397 0.0
C2311 C 0.7282 0.51399 0.11006 0.0
C2312 C 0.74364 0.47107 0.39112 0.0
C2313 C 0.74886 0.46241 0.36801 0.0
C2314 C 0.72557 0.48807 0.39494 0.0
C2315 C 0.71182 0.4971 0.37584 0.0
H2316 H 0.75276 0.4638 0.40662 0.0
H2317 H 0.7215 0.49312 0.41322 0.0
S2318 S 0.72074 0.48312 0.31141 0.0
N2319 N 0.74063 0.46633 0.3254 0.0
N2320 N 0.70671 0.49825 0.33257 0.0
C2321 C 0.71812 0.49003 0.35243 0.0
C2322 C 0.73662 0.47274 0.34853 0.0
C2323 C 0.53626 0.39173 0.24287 0.0
C2324 C 0.54403 0.36846 0.24881 0.0
C2325 C 0.51895 0.39562 0.22508 0.0
C2326 C 0.50874 0.37641 0.21237 0.0
H2327 H 0.54443 0.40723 0.25117 0.0
H2328 H 0.51462 0.41393 0.22037 0.0
S2329 S 0.52002 0.3118 0.22358 0.0
N2330 N 0.53797 0.32578 0.24244 0.0
N2331 N 0.50551 0.33307 0.20906 0.0
C2332 C 0.51495 0.35298 0.21941 0.0
C2333 C 0.53254 0.34901 0.23761 0.0
C2334 C 0.11307 0.76153 0.03505 0.0
C2335 C 0.13639 0.75511 0.04224 0.0
C2336 C 0.10914 0.77956 0.01803 0.0
C2337 C 0.12837 0.79203 0.00758 0.0
H2338 H 0.0976 0.75347 0.04353 0.0
H2339 H 0.09083 0.7847 0.01418 0.0
S2340 S 0.19298 0.77935 0.01704 0.0
N2341 N 0.17906 0.76059 0.03514 0.0
N2342 N 0.17166 0.79448 0.00324 0.0
C2343 C 0.15179 0.78445 0.01309 0.0
C2344 C 0.1558 0.76597 0.03036 0.0
C2345 C 0.39663 0.22367 0.51783 0.0
C2346 C 0.37708 0.21152 0.50755 0.0
C2347 C 0.39323 0.24125 0.53541 0.0
C2348 C 0.37013 0.24756 0.54334 0.0
H2349 H 0.41481 0.21862 0.51335 0.0
H2350 H 0.40893 0.24906 0.54368 0.0
S2351 S 0.31278 0.22388 0.51934 0.0
N2352 N 0.33366 0.20915 0.5045 0.0
N2353 N 0.32727 0.24222 0.5374 0.0
C2354 C 0.35037 0.23701 0.53175 0.0
C2355 C 0.35383 0.21898 0.51392 0.0
C2356 C 0.22122 0.5128 0.36108 0.0
C2357 C 0.21376 0.50666 0.38439 0.0
C2358 C 0.23828 0.53081 0.35711 0.0
C2359 C 0.24855 0.54358 0.37626 0.0
H2360 H 0.213 0.50445 0.34563 0.0
H2361 H 0.2424 0.53561 0.33877 0.0
S2362 S 0.23802 0.532 0.4409 0.0
N2363 N 0.22018 0.51296 0.42703 0.0
N2364 N 0.25213 0.54679 0.41956 0.0
C2365 C 0.24263 0.5364 0.39971 0.0
C2366 C 0.22531 0.51795 0.40377 0.0
C2367 C 0.21951 0.49074 0.14184 0.0
C2368 C 0.2112 0.49634 0.11868 0.0
C2369 C 0.23727 0.47337 0.14555 0.0
C2370 C 0.24744 0.46071 0.12627 0.0
H2371 H 0.21147 0.49906 0.1574 0.0
H2372 H 0.24207 0.46896 0.16381 0.0
S2373 S 0.23419 0.47061 0.06182 0.0
N2374 N 0.21628 0.48938 0.07597 0.0
N2375 N 0.24957 0.45677 0.08292 0.0
C2376 C 0.24049 0.46728 0.1029 0.0
C2377 C 0.22244 0.48506 0.09912 0.0
C2378 C 0.28674 0.48889 0.85875 0.0
C2379 C 0.2933 0.49613 0.88202 0.0
C2380 C 0.2692 0.47132 0.85499 0.0
C2381 C 0.25758 0.4601 0.87433 0.0
H2382 H 0.29604 0.49598 0.84328 0.0
H2383 H 0.26583 0.4655 0.8368 0.0
S2384 S 0.26522 0.47526 0.9386 0.0
N2385 N 0.28447 0.49275 0.92458 0.0
N2386 N 0.25166 0.45968 0.91747 0.0
C2387 C 0.26258 0.46848 0.89758 0.0
C2388 C 0.28036 0.4865 0.90142 0.0
C2389 C 0.28429 0.51377 0.64326 0.0
C2390 C 0.29284 0.50785 0.62029 0.0
C2391 C 0.2669 0.5316 0.64653 0.0
C2392 C 0.25744 0.54442 0.62699 0.0
H2393 H 0.29186 0.50536 0.659 0.0
H2394 H 0.26186 0.53621 0.66468 0.0
S2395 S 0.27143 0.5337 0.56285 0.0
N2396 N 0.2886 0.51458 0.57743 0.0
N2397 N 0.2561 0.54813 0.58359 0.0
C2398 C 0.26458 0.53753 0.60379 0.0
C2399 C 0.2822 0.51923 0.60045 0.0
C2400 C 0.06775 0.14067 0.42438 0.0
C2401 C 0.05176 0.12179 0.4197 0.0
C2402 C 0.07614 0.14503 0.44763 0.0
C2403 C 0.06819 0.13111 0.467 0.0
H2404 H 0.07398 0.15201 0.40992 0.0
H2405 H 0.08837 0.1598 0.45058 0.0
S2406 S 0.02638 0.07968 0.46426 0.0
N2407 N 0.02871 0.08878 0.4362 0.0
N2408 N 0.04363 0.09772 0.48015 0.0
C2409 C 0.05218 0.11225 0.46261 0.0
C2410 C 0.04419 0.10736 0.43885 0.0
C2411 C 0.13879 0.7978 0.71277 0.0
C2412 C 0.12261 0.81651 0.71758 0.0
C2413 C 0.14259 0.78975 0.68925 0.0
C2414 C 0.12968 0.79963 0.67006 0.0
H2415 H 0.14869 0.7895 0.72725 0.0
H2416 H 0.15523 0.77538 0.68612 0.0
S2417 S 0.08504 0.84863 0.67323 0.0
N2418 N 0.09381 0.84476 0.70121 0.0
N2419 N 0.10025 0.82896 0.65721 0.0
C2420 C 0.11339 0.81819 0.67465 0.0
C2421 C 0.11003 0.82683 0.6984 0.0
C2422 C 0.43406 0.85779 0.95009 0.0
C2423 C 0.4431 0.87075 0.96966 0.0
C2424 C 0.44213 0.86235 0.9268 0.0
C2425 C 0.45889 0.88055 0.92226 0.0
H2426 H 0.4209 0.8438 0.95286 0.0
H2427 H 0.43488 0.85186 0.91218 0.0
S2428 S 0.48779 0.91972 0.9673 0.0
N2429 N 0.46992 0.90223 0.98314 0.0
N2430 N 0.48429 0.9116 0.93906 0.0
C2431 C 0.46788 0.89382 0.94161 0.0
C2432 C 0.46021 0.88868 0.96544 0.0
C2433 C 0.3609 0.21345 0.18992 0.0
C2434 C 0.37627 0.20692 0.17104 0.0
C2435 C 0.36584 0.20655 0.2136 0.0
C2436 C 0.38588 0.19232 0.2189 0.0
H2437 H 0.34506 0.22408 0.18637 0.0
H2438 H 0.35363 0.21182 0.22771 0.0
S2439 S 0.43152 0.17033 0.1761 0.0
N2440 N 0.41255 0.18574 0.15944 0.0
N2441 N 0.42118 0.17202 0.20375 0.0
C2442 C 0.4013 0.18563 0.20026 0.0
C2443 C 0.39668 0.19315 0.17634 0.0
C2444 C 0.06607 0.89145 0.07221 0.0
C2445 C 0.04482 0.8809 0.08061 0.0
C2446 C 0.07518 0.88584 0.04948 0.0
C2447 C 0.06303 0.86994 0.03414 0.0
H2448 H 0.07619 0.90347 0.0836 0.0
H2449 H 0.0919 0.89395 0.04392 0.0
S2450 S 0.00596 0.83855 0.04738 0.0
N2451 N 0.01152 0.85435 0.07173 0.0
N2452 N 0.02822 0.84429 0.02878 0.0
C2453 C 0.04135 0.85987 0.04209 0.0
C2454 C 0.03237 0.86521 0.0654 0.0
C2455 C 0.36098 0.79239 0.31385 0.0
C2456 C 0.37388 0.80128 0.33353 0.0
C2457 C 0.36561 0.8008 0.29061 0.0
C2458 C 0.38261 0.81894 0.28658 0.0
H2459 H 0.34766 0.77852 0.31638 0.0
H2460 H 0.3557 0.79324 0.27575 0.0
S2461 S 0.42043 0.84857 0.33236 0.0
N2462 N 0.40416 0.82914 0.34763 0.0
N2463 N 0.41212 0.84568 0.30412 0.0
C2464 C 0.39519 0.82831 0.30622 0.0
C2465 C 0.391 0.81927 0.32969 0.0
C2466 C 0.45775 0.14225 0.54482 0.0
C2467 C 0.43689 0.1314 0.53574 0.0
C2468 C 0.46587 0.13733 0.56806 0.0
C2469 C 0.4538 0.12088 0.5828 0.0
H2470 H 0.46756 0.15512 0.53413 0.0
H2471 H 0.48177 0.14639 0.5745 0.0
S2472 S 0.39867 0.08723 0.56737 0.0
N2473 N 0.40441 0.1034 0.54328 0.0
N2474 N 0.42014 0.09357 0.5867 0.0
C2475 C 0.43323 0.10952 0.57379 0.0
C2476 C 0.42463 0.11496 0.55034 0.0
C2477 C 0.14112 0.20699 0.78856 0.0
C2478 C 0.12213 0.19132 0.78335 0.0
C2479 C 0.14554 0.21441 0.81218 0.0
C2480 C 0.13052 0.20711 0.83102 0.0
H2481 H 0.15279 0.21322 0.77438 0.0
H2482 H 0.16052 0.22625 0.81567 0.0
S2483 S 0.0781 0.16661 0.8264 0.0
N2484 N 0.08838 0.16863 0.79875 0.0
N2485 N 0.0959 0.18354 0.84288 0.0
C2486 C 0.11129 0.19174 0.8259 0.0
C2487 C 0.10729 0.18359 0.80209 0.0
C2488 C 0.45488 0.0757 0.11553 0.0
C2489 C 0.46955 0.06381 0.13222 0.0
C2490 C 0.43185 0.06716 0.11011 0.0
C2491 C 0.4225 0.04685 0.12171 0.0
H2492 H 0.46125 0.09168 0.10657 0.0
H2493 H 0.42104 0.07694 0.09731 0.0
S2494 S 0.4537 0.00922 0.16666 0.0
N2495 N 0.47321 0.03038 0.15991 0.0
N2496 N 0.42976 0.01482 0.15024 0.0
C2497 C 0.43702 0.03476 0.13831 0.0
C2498 C 0.4606 0.04311 0.14343 0.0
C2499 C 0.21769 0.1858 0.38596 0.0
C2500 C 0.20515 0.17136 0.36962 0.0
C2501 C 0.21016 0.2092 0.39095 0.0
C2502 C 0.18943 0.21876 0.3803 0.0
H2503 H 0.23351 0.179 0.39489 0.0
H2504 H 0.22033 0.21965 0.40375 0.0
S2505 S 0.15018 0.18808 0.33638 0.0
N2506 N 0.17124 0.16825 0.34253 0.0
N2507 N 0.15656 0.21202 0.35255 0.0
C2508 C 0.17669 0.20448 0.36394 0.0
C2509 C 0.18472 0.18083 0.3584 0.0
C2510 C 0.04323 0.96143 0.64336 0.0
C2511 C 0.03455 0.94011 0.63312 0.0
C2512 C 0.0663 0.96986 0.6381 0.0
C2513 C 0.08121 0.95764 0.62192 0.0
H2514 H 0.03242 0.97127 0.65611 0.0
H2515 H 0.07254 0.98603 0.64682 0.0
S2516 S 0.0667 0.90145 0.58966 0.0
N2517 N 0.04257 0.90717 0.60576 0.0
N2518 N 0.08563 0.92343 0.59541 0.0
C2519 C 0.07252 0.93669 0.61104 0.0
C2520 C 0.04927 0.92781 0.61679 0.0
C2521 C 0.32707 0.79993 0.86698 0.0
C2522 C 0.31548 0.78617 0.8846 0.0
C2523 C 0.31915 0.8231 0.86136 0.0
C2524 C 0.2998 0.83355 0.87366 0.0
H2525 H 0.34228 0.79267 0.85736 0.0
H2526 H 0.3286 0.83312 0.84769 0.0
S2527 S 0.26348 0.80503 0.92138 0.0
N2528 N 0.28349 0.78453 0.91409 0.0
N2529 N 0.26909 0.82833 0.90405 0.0
C2530 C 0.2881 0.82 0.89133 0.0
C2531 C 0.2958 0.79623 0.89665 0.0
C2532 C 0.44934 0.93055 0.35935 0.0
C2533 C 0.4691 0.94178 0.37018 0.0
C2534 C 0.42599 0.93872 0.36345 0.0
C2535 C 0.42161 0.95789 0.3791 0.0
H2536 H 0.45198 0.91556 0.3473 0.0
H2537 H 0.41122 0.92974 0.35463 0.0
S2538 S 0.46698 0.99299 0.41233 0.0
N2539 N 0.48277 0.97314 0.39709 0.0
N2540 N 0.43862 0.98778 0.40566 0.0
C2541 C 0.44109 0.96907 0.39033 0.0
C2542 C 0.46496 0.96121 0.38561 0.0
C2543 C 0.29121 0.18831 0.64347 0.0
C2544 C 0.29807 0.16974 0.62787 0.0
C2545 C 0.29858 0.21201 0.63939 0.0
C2546 C 0.31365 0.21762 0.62007 0.0
H2547 H 0.27992 0.18451 0.65878 0.0
H2548 H 0.29294 0.22589 0.65171 0.0
S2549 S 0.33673 0.17566 0.57417 0.0
N2550 N 0.32042 0.15874 0.59215 0.0
N2551 N 0.33503 0.20307 0.58514 0.0
C2552 C 0.32069 0.19927 0.60444 0.0
C2553 C 0.31268 0.17534 0.60817 0.0
C2554 C 0.06646 0.03423 0.86496 0.0
C2555 C 0.08204 0.04585 0.88094 0.0
C2556 C 0.04356 0.04336 0.86022 0.0
C2557 C 0.03567 0.06482 0.8708 0.0
H2558 H 0.07204 0.01797 0.85596 0.0
H2559 H 0.03225 0.03392 0.84761 0.0
S2560 S 0.06966 0.10209 0.91405 0.0
N2561 N 0.08784 0.07963 0.90778 0.0
N2562 N 0.04512 0.09725 0.89829 0.0
C2563 C 0.05103 0.07655 0.88695 0.0
C2564 C 0.07413 0.06693 0.8922 0.0
C2565 C 0.22174 0.8157 0.11658 0.0
C2566 C 0.20882 0.83094 0.13188 0.0
C2567 C 0.21407 0.79219 0.11227 0.0
C2568 C 0.19284 0.78334 0.12256 0.0
H2569 H 0.23793 0.82197 0.10793 0.0
H2570 H 0.22449 0.7811 0.10024 0.0
S2571 S 0.15241 0.81623 0.16372 0.0
N2572 N 0.17398 0.83551 0.15758 0.0
N2573 N 0.15908 0.7916 0.14878 0.0
C2574 C 0.17973 0.79842 0.13786 0.0
C2575 C 0.18787 0.82215 0.14273 0.0
C2576 C 0.10869 0.43815 0.04185 0.0
C2577 C 0.1242 0.41953 0.04871 0.0
C2578 C 0.11277 0.46177 0.04946 0.0
C2579 C 0.13193 0.4672 0.06483 0.0
H2580 H 0.09362 0.4345 0.03019 0.0
H2581 H 0.10072 0.47579 0.04357 0.0
S2582 S 0.17729 0.42483 0.08827 0.0
N2583 N 0.15945 0.40813 0.07159 0.0
N2584 N 0.16644 0.45229 0.08669 0.0
C2585 C 0.14729 0.4487 0.0721 0.0
C2586 C 0.14359 0.42488 0.06382 0.0
C2587 C 0.64733 0.04663 0.95869 0.0
C2588 C 0.63567 0.03658 0.93876 0.0
C2589 C 0.64213 0.07001 0.9663 0.0
C2590 C 0.62464 0.08385 0.95462 0.0
H2591 H 0.661 0.03659 0.96811 0.0
H2592 H 0.65173 0.07722 0.98153 0.0
S2593 S 0.58859 0.06557 0.90191 0.0
N2594 N 0.60576 0.04218 0.90761 0.0
N2595 N 0.59552 0.08581 0.92231 0.0
C2596 C 0.61253 0.07384 0.93496 0.0
C2597 C 0.61819 0.05028 0.92691 0.0
C2598 C 0.19181 0.36418 0.21484 0.0
C2599 C 0.1721 0.37653 0.20524 0.0
C2600 C 0.21514 0.36885 0.20662 0.0
C2601 C 0.21921 0.38536 0.18804 0.0
H2602 H 0.18922 0.35128 0.22909 0.0
H2603 H 0.23002 0.35929 0.2146 0.0
S2604 S 0.17342 0.42182 0.15674 0.0
N2605 N 0.15807 0.4059 0.17638 0.0
N2606 N 0.2017 0.4139 0.16026 0.0
C2607 C 0.19956 0.39744 0.17806 0.0
C2608 C 0.17602 0.39321 0.18686 0.0
C2609 C 0.86772 0.93751 0.47186 0.0
C2610 C 0.88378 0.92246 0.45962 0.0
C2611 C 0.86339 0.96097 0.46401 0.0
C2612 C 0.8745 0.96996 0.44327 0.0
H2613 H 0.85834 0.93106 0.48757 0.0
H2614 H 0.8506 0.97183 0.47375 0.0
S2615 S 0.91828 0.93781 0.40501 0.0
N2616 N 0.91129 0.91836 0.42615 0.0
N2617 N 0.90268 0.96221 0.41099 0.0
C2618 C 0.89082 0.95518 0.43105 0.0
C2619 C 0.8956 0.93149 0.43934 0.0
C2620 C 0.81445 0.14326 0.21396 0.0
C2621 C 0.83336 0.12815 0.20702 0.0
C2622 C 0.79096 0.13902 0.20601 0.0
C2623 C 0.78596 0.12011 0.19019 0.0
H2624 H 0.81779 0.15823 0.22584 0.0
H2625 H 0.77673 0.15082 0.21188 0.0
S2626 S 0.82922 0.07588 0.16628 0.0
N2627 N 0.84548 0.09351 0.18361 0.0
N2628 N 0.80159 0.08631 0.16777 0.0
C2629 C 0.80474 0.10513 0.18288 0.0
C2630 C 0.82842 0.10895 0.19154 0.0
C2631 C 0.39423 0.56347 0.54097 0.0
C2632 C 0.3792 0.5824 0.54806 0.0
C2633 C 0.38985 0.53993 0.54872 0.0
C2634 C 0.37084 0.53491 0.56442 0.0
H2635 H 0.40921 0.56684 0.52911 0.0
H2636 H 0.40163 0.5257 0.54282 0.0
S2637 S 0.3267 0.5782 0.58852 0.0
N2638 N 0.34453 0.5945 0.57144 0.0
N2639 N 0.33698 0.55053 0.58679 0.0
C2640 C 0.35591 0.55371 0.57181 0.0
C2641 C 0.35991 0.57743 0.56342 0.0
C2642 C 0.20603 0.63788 0.32442 0.0
C2643 C 0.22036 0.6209 0.31255 0.0
C2644 C 0.18288 0.64328 0.31628 0.0
C2645 C 0.17306 0.63137 0.2964 0.0
H2646 H 0.21275 0.64706 0.34013 0.0
H2647 H 0.17233 0.6563 0.32607 0.0
S2648 S 0.2033 0.58572 0.25886 0.0
N2649 N 0.22328 0.59271 0.2795 0.0
N2650 N 0.17953 0.60232 0.26467 0.0
C2651 C 0.18725 0.61452 0.28427 0.0
C2652 C 0.21098 0.60943 0.2922 0.0
C2653 C 0.29916 0.36568 0.82372 0.0
C2654 C 0.28431 0.38195 0.81148 0.0
C2655 C 0.32228 0.36043 0.81541 0.0
C2656 C 0.33155 0.37175 0.79493 0.0
H2657 H 0.29293 0.35702 0.83992 0.0
H2658 H 0.33327 0.34808 0.82557 0.0
S2659 S 0.29975 0.41527 0.75613 0.0
N2660 N 0.28026 0.40872 0.77737 0.0
N2661 N 0.32394 0.39937 0.76218 0.0
C2662 C 0.31679 0.38779 0.78235 0.0
C2663 C 0.29309 0.39274 0.7905 0.0
C2664 C 0.96182 0.86038 0.54543 0.0
C2665 C 0.94084 0.87119 0.53664 0.0
C2666 C 0.97 0.86503 0.56869 0.0
C2667 C 0.95785 0.88114 0.58374 0.0
H2668 H 0.97162 0.84768 0.53452 0.0
H2669 H 0.98594 0.85591 0.57496 0.0
S2670 S 0.90257 0.91485 0.56895 0.0
N2671 N 0.9083 0.89902 0.54465 0.0
N2672 N 0.92414 0.90834 0.5881 0.0
C2673 C 0.93725 0.8926 0.57495 0.0
C2674 C 0.9286 0.88745 0.55147 0.0
C2675 C 0.89279 0.18892 0.32762 0.0
C2676 C 0.87506 0.20632 0.33168 0.0
C2677 C 0.89689 0.17981 0.30459 0.0
C2678 C 0.8839 0.1884 0.28482 0.0
H2679 H 0.90325 0.18199 0.34243 0.0
H2680 H 0.91063 0.16633 0.30215 0.0
S2681 S 0.83569 0.23397 0.28604 0.0
N2682 N 0.84414 0.23145 0.31428 0.0
N2683 N 0.85269 0.21522 0.27071 0.0
C2684 C 0.86632 0.20597 0.28862 0.0
C2685 C 0.86165 0.21468 0.31216 0.0
C2686 C 0.54111 0.10868 0.06306 0.0
C2687 C 0.54849 0.12347 0.08203 0.0
C2688 C 0.54879 0.11315 0.03952 0.0
C2689 C 0.56474 0.13198 0.03454 0.0
H2690 H 0.52893 0.09394 0.06635 0.0
H2691 H 0.54246 0.1017 0.02521 0.0
S2692 S 0.58979 0.17533 0.07808 0.0
N2693 N 0.57256 0.1576 0.09432 0.0
N2694 N 0.58778 0.16531 0.05034 0.0
C2695 C 0.57259 0.14655 0.05344 0.0
C2696 C 0.56425 0.14246 0.07717 0.0
C2697 C 0.61704 0.78714 0.81747 0.0
C2698 C 0.63278 0.79957 0.83262 0.0
C2699 C 0.6125 0.79517 0.79417 0.0
C2700 C 0.623 0.81633 0.78536 0.0
H2701 H 0.60824 0.77098 0.82362 0.0
H2702 H 0.6002 0.78499 0.78316 0.0
S2703 S 0.66528 0.85566 0.81812 0.0
N2704 N 0.65912 0.83394 0.83723 0.0
N2705 N 0.64982 0.8496 0.79364 0.0
C2706 C 0.63868 0.82905 0.80038 0.0
C2707 C 0.6438 0.8205 0.82394 0.0
C2708 C 0.96141 0.14456 0.96001 0.0
C2709 C 0.94006 0.13401 0.96823 0.0
C2710 C 0.97011 0.13992 0.93693 0.0
C2711 C 0.95815 0.12406 0.92147 0.0
H2712 H 0.9711 0.15708 0.97121 0.0
H2713 H 0.98632 0.14888 0.93112 0.0
S2714 S 0.90206 0.09104 0.93465 0.0
N2715 N 0.90738 0.10664 0.9592 0.0
N2716 N 0.92419 0.09737 0.9161 0.0
C2717 C 0.93718 0.11283 0.92969 0.0
C2718 C 0.92801 0.11797 0.95298 0.0
C2719 C 0.61195 0.20849 0.70902 0.0
C2720 C 0.62216 0.18707 0.71749 0.0
C2721 C 0.61643 0.21667 0.68576 0.0
C2722 C 0.63177 0.20409 0.67031 0.0
H2723 H 0.59985 0.21872 0.72021 0.0
H2724 H 0.60774 0.23297 0.67981 0.0
S2725 S 0.66373 0.14754 0.68403 0.0
N2726 N 0.64863 0.15362 0.70873 0.0
N2727 N 0.6576 0.16945 0.66512 0.0
C2728 C 0.64265 0.18301 0.6787 0.0
C2729 C 0.63766 0.17435 0.70226 0.0
C2730 C 0.53402 0.86671 0.43743 0.0
C2731 C 0.54653 0.88289 0.42278 0.0
C2732 C 0.54167 0.86189 0.46081 0.0
C2733 C 0.56249 0.87256 0.47015 0.0
H2734 H 0.51815 0.85775 0.4308 0.0
H2735 H 0.53155 0.84919 0.47143 0.0
S2736 S 0.6017 0.91616 0.43901 0.0
N2737 N 0.58051 0.90992 0.41934 0.0
N2738 N 0.59539 0.90016 0.46307 0.0
C2739 C 0.57519 0.88877 0.4557 0.0
C2740 C 0.56706 0.89414 0.43207 0.0
C2741 C 0.8662 0.82152 0.20709 0.0
C2742 C 0.8838 0.81012 0.22102 0.0
C2743 C 0.86112 0.81374 0.18378 0.0
C2744 C 0.87395 0.79475 0.17336 0.0
H2745 H 0.8563 0.83659 0.21426 0.0
H2746 H 0.84754 0.82314 0.17361 0.0
S2747 S 0.9218 0.75896 0.2024 0.0
N2748 N 0.91378 0.77863 0.22296 0.0
N2749 N 0.90475 0.76446 0.17887 0.0
C2750 C 0.89152 0.78313 0.18715 0.0
C2751 C 0.8963 0.79069 0.21108 0.0
C2752 C 0.56931 0.96942 0.86718 0.0
C2753 C 0.58447 0.9576 0.88341 0.0
C2754 C 0.5461 0.96108 0.86272 0.0
C2755 C 0.53742 0.9402 0.87382 0.0
H2756 H 0.57546 0.98525 0.85779 0.0
H2757 H 0.53511 0.97069 0.84994 0.0
S2758 S 0.56993 0.90276 0.91797 0.0
N2759 N 0.589 0.92433 0.91114 0.0
N2760 N 0.54558 0.90808 0.90203 0.0
C2761 C 0.55233 0.92823 0.89017 0.0
C2762 C 0.57579 0.9371 0.8952 0.0
C2763 C 0.82119 0.80366 0.60654 0.0
C2764 C 0.81259 0.78445 0.62033 0.0
C2765 C 0.81274 0.82698 0.61028 0.0
C2766 C 0.79602 0.8319 0.62842 0.0
H2767 H 0.8343 0.80058 0.59257 0.0
H2768 H 0.81974 0.84134 0.59926 0.0
S2769 S 0.76847 0.78791 0.66973 0.0
N2770 N 0.78639 0.77172 0.65262 0.0
N2771 N 0.77135 0.81587 0.66045 0.0
C2772 C 0.78754 0.81291 0.64254 0.0
C2773 C 0.79559 0.78905 0.63825 0.0
C2774 C 0.93831 0.03497 0.36762 0.0
C2775 C 0.92334 0.04756 0.38344 0.0
C2776 C 0.96155 0.04297 0.36268 0.0
C2777 C 0.97047 0.06422 0.37287 0.0
H2778 H 0.93202 0.01876 0.35902 0.0
H2779 H 0.97239 0.03273 0.35027 0.0
S2780 S 0.93833 0.1038 0.41541 0.0
N2781 N 0.91911 0.08208 0.40962 0.0
N2782 N 0.9626 0.09761 0.39966 0.0
C2783 C 0.95569 0.077 0.38873 0.0
C2784 C 0.93219 0.06852 0.39422 0.0
C2785 C 0.70903 0.21127 0.11086 0.0
C2786 C 0.68804 0.21995 0.12177 0.0
C2787 C 0.7177 0.18826 0.11588 0.0
C2788 C 0.70606 0.17333 0.13247 0.0
H2789 H 0.71849 0.22208 0.09783 0.0
H2790 H 0.73364 0.1821 0.10668 0.0
S2791 S 0.65091 0.18782 0.16653 0.0
N2792 N 0.65603 0.21193 0.15018 0.0
N2793 N 0.6727 0.1689 0.16008 0.0
C2794 C 0.68541 0.18198 0.14397 0.0
C2795 C 0.67628 0.20522 0.13848 0.0
C2796 C 0.57768 0.06353 0.64088 0.0
C2797 C 0.58218 0.04653 0.62288 0.0
C2798 C 0.55444 0.07202 0.64507 0.0
C2799 C 0.5349 0.06319 0.63191 0.0
H2800 H 0.59229 0.07058 0.65152 0.0
H2801 H 0.55165 0.08519 0.65905 0.0
S2802 S 0.53725 0.0184 0.58303 0.0
N2803 N 0.56542 0.02146 0.59156 0.0
N2804 N 0.52146 0.03654 0.60027 0.0
C2805 C 0.53913 0.04602 0.61405 0.0
C2806 C 0.56289 0.03793 0.60928 0.0
C2807 C 0.71005 0.79264 0.39376 0.0
C2808 C 0.68886 0.78411 0.38314 0.0
C2809 C 0.71857 0.81573 0.38889 0.0
C2810 C 0.70658 0.83086 0.37275 0.0
H2811 H 0.71979 0.78166 0.40644 0.0
H2812 H 0.73468 0.82179 0.39786 0.0
S2813 S 0.65082 0.81678 0.33955 0.0
N2814 N 0.65625 0.79247 0.35551 0.0
N2815 N 0.67275 0.83561 0.34578 0.0
C2816 C 0.68574 0.82235 0.36151 0.0
C2817 C 0.67673 0.79904 0.36689 0.0
C2818 C 0.95435 0.92979 0.11621 0.0
C2819 C 0.96929 0.94177 0.13258 0.0
C2820 C 0.93126 0.93827 0.11114 0.0
C2821 C 0.92208 0.95861 0.12278 0.0
H2822 H 0.96054 0.91373 0.10726 0.0
H2823 H 0.92025 0.92839 0.09858 0.0
S2824 S 0.95405 0.9966 0.16684 0.0
N2825 N 0.97347 0.97541 0.15992 0.0
N2826 N 0.9298 0.99087 0.15092 0.0
C2827 C 0.93687 0.97085 0.13903 0.0
C2828 C 0.96056 0.96256 0.14377 0.0
C2829 C 0.79191 0.21169 0.88995 0.0
C2830 C 0.81272 0.22106 0.87929 0.0
C2831 C 0.78421 0.18834 0.88498 0.0
C2832 C 0.79667 0.17381 0.86866 0.0
H2833 H 0.78185 0.22225 0.90275 0.0
H2834 H 0.76836 0.18163 0.89394 0.0
S2835 S 0.8518 0.1902 0.83539 0.0
N2836 N 0.84555 0.21415 0.85158 0.0
N2837 N 0.83059 0.17052 0.84154 0.0
C2838 C 0.81718 0.18316 0.85743 0.0
C2839 C 0.82536 0.20672 0.86295 0.0
C2840 C 0.86912 0.5675 0.97198 0.0
C2841 C 0.88467 0.58264 0.95923 0.0
C2842 C 0.86437 0.54421 0.96401 0.0
C2843 C 0.87447 0.53547 0.94267 0.0
H2844 H 0.86052 0.57373 0.98821 0.0
H2845 H 0.85209 0.53324 0.97428 0.0
S2846 S 0.91642 0.56806 0.90279 0.0
N2847 N 0.91053 0.58722 0.92454 0.0
N2848 N 0.90102 0.54361 0.90913 0.0
C2849 C 0.89016 0.55039 0.92982 0.0
C2850 C 0.89544 0.57393 0.93824 0.0
C2851 C 0.39381 0.93125 0.06617 0.0
C2852 C 0.3827 0.92183 0.04563 0.0
C2853 C 0.38848 0.95443 0.07426 0.0
C2854 C 0.37239 0.96918 0.06169 0.0
H2855 H 0.40618 0.9204 0.07645 0.0
H2856 H 0.39705 0.96085 0.09043 0.0
S2857 S 0.33928 0.95316 0.00637 0.0
N2858 N 0.35519 0.92905 0.01271 0.0
N2859 N 0.34571 0.97284 0.02746 0.0
C2860 C 0.36163 0.96015 0.0408 0.0
C2861 C 0.36664 0.93639 0.03289 0.0
C2862 C 0.79989 0.63913 0.82661 0.0
C2863 C 0.78508 0.62286 0.81434 0.0
C2864 C 0.82289 0.64469 0.81811 0.0
C2865 C 0.83204 0.63368 0.7974 0.0
H2866 H 0.79368 0.64762 0.84291 0.0
H2867 H 0.83385 0.65708 0.82824 0.0
S2868 S 0.80036 0.59019 0.75852 0.0
N2869 N 0.78103 0.59632 0.78003 0.0
N2870 N 0.82442 0.6063 0.76449 0.0
C2871 C 0.81735 0.61758 0.78486 0.0
C2872 C 0.79381 0.61231 0.7932 0.0
C2873 C 0.14275 0.07913 0.56467 0.0
C2874 C 0.12445 0.08395 0.54807 0.0
C2875 C 0.14695 0.05576 0.57281 0.0
C2876 C 0.13352 0.03639 0.564 0.0
H2877 H 0.15356 0.09359 0.57176 0.0
H2878 H 0.16103 0.05276 0.58582 0.0
S2879 S 0.08403 0.03948 0.51993 0.0
N2880 N 0.09274 0.06757 0.52319 0.0
N2881 N 0.10146 0.02341 0.53765 0.0
C2882 C 0.11548 0.0409 0.5471 0.0
C2883 C 0.1107 0.06478 0.53937 0.0
C2884 C 0.21627 0.86493 0.79745 0.0
C2885 C 0.2212 0.88363 0.81354 0.0
C2886 C 0.19281 0.86064 0.78954 0.0
C2887 C 0.17383 0.87552 0.79675 0.0
H2888 H 0.23056 0.85335 0.79129 0.0
H2889 H 0.18953 0.84581 0.77747 0.0
S2890 S 0.17772 0.92728 0.83815 0.0
N2891 N 0.20541 0.91703 0.83646 0.0
N2892 N 0.16153 0.90976 0.82065 0.0
C2893 C 0.17866 0.89452 0.81249 0.0
C2894 C 0.20234 0.89837 0.82114 0.0
C2895 C 0.61728 0.45413 0.4286 0.0
C2896 C 0.63497 0.46797 0.43998 0.0
C2897 C 0.6114 0.4312 0.43699 0.0
C2898 C 0.62349 0.42107 0.45662 0.0
H2899 H 0.60779 0.46113 0.4132 0.0
H2900 H 0.59767 0.42113 0.42769 0.0
S2901 S 0.67131 0.44988 0.49256 0.0
N2902 N 0.66432 0.47003 0.47207 0.0
N2903 N 0.65379 0.42664 0.48735 0.0
C2904 C 0.64126 0.43468 0.4681 0.0
C2905 C 0.64685 0.45823 0.45992 0.0
C2906 C 0.80489 0.3928 0.68254 0.0
C2907 C 0.78586 0.37898 0.69152 0.0
C2908 C 0.82835 0.38929 0.69074 0.0
C2909 C 0.83357 0.37137 0.70759 0.0
H2910 H 0.80155 0.40672 0.66944 0.0
H2911 H 0.84256 0.40036 0.68351 0.0
S2912 S 0.79024 0.33002 0.73608 0.0
N2913 N 0.7737 0.34684 0.7182 0.0
N2914 N 0.81808 0.33945 0.73273 0.0
C2915 C 0.8148 0.35717 0.71639 0.0
C2916 C 0.79082 0.36122 0.7086 0.0
C2917 C 0.71334 0.64209 0.20348 0.0
C2918 C 0.71825 0.62322 0.18758 0.0
C2919 C 0.68982 0.64691 0.21088 0.0
C2920 C 0.67068 0.63243 0.20329 0.0
H2921 H 0.72776 0.65329 0.21006 0.0
H2922 H 0.68664 0.66171 0.22301 0.0
S2923 S 0.67433 0.58065 0.16188 0.0
N2924 N 0.70222 0.59021 0.16425 0.0
N2925 N 0.65814 0.59857 0.17897 0.0
C2926 C 0.67543 0.6134 0.18754 0.0
C2927 C 0.69922 0.60898 0.17945 0.0
C2928 C 0.53373 0.63594 0.93694 0.0
C2929 C 0.54649 0.62057 0.92166 0.0
C2930 C 0.54172 0.64055 0.96025 0.0
C2931 C 0.56314 0.63048 0.96888 0.0
H2932 H 0.51741 0.64449 0.93082 0.0
H2933 H 0.53139 0.65266 0.97133 0.0
S2934 S 0.6032 0.58906 0.93586 0.0
N2935 N 0.58132 0.5949 0.91685 0.0
N2936 N 0.59687 0.60427 0.96042 0.0
C2937 C 0.57607 0.61503 0.9538 0.0
C2938 C 0.56759 0.60986 0.93025 0.0
C2939 C 0.61401 0.31535 0.17776 0.0
C2940 C 0.63138 0.29791 0.17255 0.0
C2941 C 0.61072 0.32367 0.20119 0.0
C2942 C 0.62418 0.31425 0.22026 0.0
H2943 H 0.60303 0.32274 0.16358 0.0
H2944 H 0.59708 0.33707 0.20452 0.0
S2945 S 0.67185 0.26829 0.21594 0.0
N2946 N 0.66257 0.27189 0.18807 0.0
N2947 N 0.65558 0.2867 0.23244 0.0
C2948 C 0.64154 0.29675 0.2153 0.0
C2949 C 0.64539 0.2888 0.19131 0.0
C2950 C 0.93962 0.36198 0.42482 0.0
C2951 C 0.95687 0.37982 0.42068 0.0
C2952 C 0.93129 0.35726 0.44802 0.0
C2953 C 0.94055 0.36966 0.46786 0.0
H2954 H 0.93207 0.35205 0.40996 0.0
H2955 H 0.91767 0.34365 0.45049 0.0
S2956 S 0.98651 0.41748 0.46656 0.0
N2957 N 0.98296 0.40991 0.43818 0.0
N2958 N 0.96813 0.40016 0.482 0.0
C2959 C 0.95819 0.38714 0.46402 0.0
C2960 C 0.96613 0.39247 0.44033 0.0
C2961 C 0.8665 0.68154 0.70667 0.0
C2962 C 0.88309 0.69375 0.72116 0.0
C2963 C 0.86128 0.68949 0.68343 0.0
C2964 C 0.87297 0.70954 0.67364 0.0
H2965 H 0.85749 0.66571 0.71334 0.0
H2966 H 0.84855 0.67943 0.67279 0.0
S2967 S 0.91796 0.74767 0.70416 0.0
N2968 N 0.91094 0.72708 0.72419 0.0
N2969 N 0.90165 0.74159 0.68026 0.0
C2970 C 0.88955 0.72193 0.68795 0.0
C2971 C 0.89446 0.71417 0.71179 0.0
C2972 C 0.56406 0.36473 0.57917 0.0
C2973 C 0.548 0.38339 0.58438 0.0
C2974 C 0.57173 0.36048 0.55566 0.0
C2975 C 0.56298 0.37426 0.53651 0.0
H2976 H 0.571 0.35353 0.59341 0.0
H2977 H 0.58422 0.34599 0.55238 0.0
S2978 S 0.5203 0.4249 0.54067 0.0
N2979 N 0.52376 0.41589 0.56864 0.0
N2980 N 0.53732 0.40715 0.52419 0.0
C2981 C 0.54669 0.39278 0.54143 0.0
C2982 C 0.53944 0.39757 0.56547 0.0
C2983 C 0.89711 0.32171 0.80421 0.0
C2984 C 0.88349 0.31338 0.78478 0.0
C2985 C 0.89214 0.31414 0.82759 0.0
C2986 C 0.8729 0.29864 0.83235 0.0
H2987 H 0.91191 0.33392 0.80125 0.0
H2988 H 0.90314 0.32084 0.8421 0.0
S2989 S 0.83169 0.27208 0.78764 0.0
N2990 N 0.85025 0.28865 0.77161 0.0
N2991 N 0.84016 0.27521 0.81582 0.0
C2992 C 0.85898 0.29039 0.8131 0.0
C2993 C 0.8645 0.29755 0.7892 0.0
C2994 C 0.9295 0.61829 0.05173 0.0
C2995 C 0.94251 0.63402 0.03692 0.0
C2996 C 0.93735 0.61287 0.07497 0.0
C2997 C 0.95809 0.62351 0.08441 0.0
H2998 H 0.9131 0.61014 0.04533 0.0
H2999 H 0.92669 0.60088 0.08589 0.0
S3000 S 0.99896 0.66525 0.05288 0.0
N3001 N 0.9777 0.65944 0.03317 0.0
N3002 N 0.99197 0.64978 0.0771 0.0
C3003 C 0.97142 0.639 0.06976 0.0
C3004 C 0.96376 0.6441 0.04593 0.0
C3005 C 0.63885 0.68047 0.29849 0.0
C3006 C 0.62307 0.69316 0.28349 0.0
C3007 C 0.64339 0.6882 0.32199 0.0
C3008 C 0.63175 0.70844 0.33144 0.0
H3009 H 0.64771 0.66447 0.29202 0.0
H3010 H 0.65547 0.67781 0.33307 0.0
S3011 S 0.58889 0.74785 0.29953 0.0
N3012 N 0.59614 0.72719 0.27968 0.0
N3013 N 0.60417 0.74123 0.32395 0.0
C3014 C 0.61607 0.72132 0.31659 0.0
C3015 C 0.61187 0.71381 0.29257 0.0
C3016 C 0.93685 0.53408 0.63903 0.0
C3017 C 0.92124 0.54609 0.62338 0.0
C3018 C 0.95997 0.54277 0.64343 0.0
C3019 C 0.96807 0.56416 0.63285 0.0
H3020 H 0.93115 0.51784 0.64798 0.0
H3021 H 0.97133 0.53301 0.65576 0.0
S3022 S 0.93403 0.60233 0.59045 0.0
N3023 N 0.91555 0.58015 0.59687 0.0
N3024 N 0.95875 0.59697 0.60577 0.0
C3025 C 0.95265 0.5763 0.61708 0.0
C3026 C 0.9293 0.56713 0.61215 0.0
C3027 C 0.68028 0.70032 0.89465 0.0
C3028 C 0.69057 0.72024 0.88323 0.0
C3029 C 0.68882 0.67715 0.89029 0.0
C3030 C 0.70735 0.67312 0.87378 0.0
H3031 H 0.66589 0.70271 0.90745 0.0
H3032 H 0.68072 0.66226 0.89973 0.0
S3033 S 0.73963 0.71906 0.83856 0.0
N3034 N 0.72018 0.73448 0.85469 0.0
N3035 N 0.73544 0.69063 0.84562 0.0
C3036 C 0.71743 0.69276 0.86184 0.0
C3037 C 0.70925 0.71645 0.86682 0.0
C3038 C 0.5741 0.43817 0.11469 0.0
C3039 C 0.58235 0.45945 0.12529 0.0
C3040 C 0.55121 0.42918 0.11989 0.0
C3041 C 0.5356 0.44149 0.13539 0.0
H3042 H 0.58569 0.42797 0.10294 0.0
H3043 H 0.54575 0.41244 0.11176 0.0
S3044 S 0.54843 0.49874 0.16663 0.0
N3045 N 0.5731 0.49296 0.1514 0.0
N3046 N 0.52986 0.47651 0.16068 0.0
C3047 C 0.54344 0.46321 0.14548 0.0
C3048 C 0.56689 0.47206 0.14058 0.0
C3049 C 0.79498 0.31548 0.3588 0.0
C3050 C 0.80113 0.33412 0.37461 0.0
C3051 C 0.8023 0.29182 0.36318 0.0
C3052 C 0.81665 0.28629 0.38305 0.0
H3053 H 0.78421 0.31916 0.34308 0.0
H3054 H 0.79709 0.27788 0.35074 0.0
S3055 S 0.83788 0.32842 0.42967 0.0
N3056 N 0.82216 0.34527 0.41109 0.0
N3057 N 0.83672 0.30099 0.41868 0.0
C3058 C 0.82308 0.30471 0.39887 0.0
C3059 C 0.81509 0.32862 0.39482 0.0
C3060 C 0.9309 0.43631 0.89329 0.0
C3061 C 0.92217 0.45772 0.8834 0.0
C3062 C 0.95397 0.42803 0.88779 0.0
C3063 C 0.96932 0.44121 0.87273 0.0
H3064 H 0.91956 0.42551 0.90475 0.0
H3065 H 0.9598 0.41115 0.89536 0.0
S3066 S 0.95528 0.49938 0.84377 0.0
N3067 N 0.9307 0.49242 0.85865 0.0
N3068 N 0.97433 0.47734 0.84886 0.0
C3069 C 0.96101 0.46311 0.86344 0.0
C3070 C 0.93734 0.47123 0.86861 0.0
C3071 C 0.81502 0.67613 0.11223 0.0
C3072 C 0.79855 0.67136 0.13065 0.0
C3073 C 0.82306 0.69951 0.10787 0.0
C3074 C 0.81427 0.71891 0.12127 0.0
H3075 H 0.82218 0.66163 0.10152 0.0
H3076 H 0.83603 0.70248 0.09374 0.0
S3077 S 0.7704 0.71595 0.17093 0.0
N3078 N 0.77371 0.68783 0.16233 0.0
N3079 N 0.78799 0.73198 0.15335 0.0
C3080 C 0.79742 0.71445 0.13937 0.0
C3081 C 0.78979 0.69058 0.14429 0.0
C3082 C 0.54382 0.54271 0.36232 0.0
C3083 C 0.53554 0.56414 0.37265 0.0
C3084 C 0.56686 0.53403 0.36718 0.0
C3085 C 0.58222 0.54611 0.38304 0.0
H3086 H 0.53272 0.53293 0.34977 0.0
H3087 H 0.57275 0.51781 0.35832 0.0
S3088 S 0.56885 0.60239 0.41559 0.0
N3089 N 0.54437 0.59696 0.39991 0.0
N3090 N 0.58746 0.58024 0.4095 0.0
C3091 C 0.57393 0.56712 0.3941 0.0
C3092 C 0.55066 0.57626 0.38876 0.0
C3093 C 0.70764 0.29315 0.6088 0.0
C3094 C 0.68731 0.2835 0.62014 0.0
C3095 C 0.71587 0.31622 0.61437 0.0
C3096 C 0.70447 0.33018 0.63195 0.0
H3097 H 0.71691 0.28304 0.59509 0.0
H3098 H 0.73136 0.32311 0.60494 0.0
S3099 S 0.65096 0.31293 0.66732 0.0
N3100 N 0.6561 0.28961 0.64988 0.0
N3101 N 0.67201 0.33266 0.66084 0.0
C3102 C 0.68444 0.32056 0.64378 0.0
C3103 C 0.67573 0.29731 0.63772 0.0
C3104 C 0.63596 0.92356 0.56964 0.0
C3105 C 0.62094 0.91926 0.54995 0.0
C3106 C 0.64056 0.94696 0.57746 0.0
C3107 C 0.63086 0.96681 0.56536 0.0
H3108 H 0.644 0.90871 0.57921 0.0
H3109 H 0.65222 0.94955 0.59276 0.0
S3110 S 0.5906 0.96484 0.51258 0.0
N3111 N 0.59612 0.93642 0.5187 0.0
N3112 N 0.60556 0.98057 0.53269 0.0
C3113 C 0.61595 0.96269 0.54549 0.0
C3114 C 0.61075 0.93883 0.53798 0.0
C3115 C 0.13808 0.56735 0.46724 0.0
C3116 C 0.12176 0.58174 0.45463 0.0
C3117 C 0.14305 0.54391 0.45978 0.0
C3118 C 0.13239 0.53431 0.43907 0.0
H3119 H 0.14687 0.57415 0.48314 0.0
H3120 H 0.15576 0.53342 0.47002 0.0
S3121 S 0.08883 0.56499 0.39945 0.0
N3122 N 0.09493 0.58486 0.42049 0.0
N3123 N 0.10491 0.54104 0.406 0.0
C3124 C 0.11622 0.54862 0.42616 0.0
C3125 C 0.11071 0.57228 0.43409 0.0
C3126 C 0.68978 0.86047 0.711 0.0
C3127 C 0.67018 0.87342 0.70198 0.0
C3128 C 0.71318 0.8654 0.70316 0.0
C3129 C 0.71747 0.88279 0.68547 0.0
H3130 H 0.68707 0.84688 0.72458 0.0
H3131 H 0.72795 0.85539 0.71078 0.0
S3132 S 0.6721 0.92096 0.65565 0.0
N3133 N 0.65652 0.90423 0.67444 0.0
N3134 N 0.70031 0.91272 0.65897 0.0
C3135 C 0.69795 0.89544 0.67597 0.0
C3136 C 0.67431 0.89096 0.68443 0.0
C3137 C 0.36413 0.4619 0.96316 0.0
C3138 C 0.37408 0.47016 0.94155 0.0
C3139 C 0.36892 0.43876 0.97159 0.0
C3140 C 0.38432 0.42331 0.95905 0.0
H3141 H 0.35191 0.47309 0.97325 0.0
H3142 H 0.36036 0.43287 0.98797 0.0
S3143 S 0.41576 0.43666 0.90212 0.0
N3144 N 0.40047 0.46127 0.90806 0.0
N3145 N 0.40996 0.41797 0.9243 0.0
C3146 C 0.39501 0.43158 0.93783 0.0
C3147 C 0.38973 0.45496 0.92896 0.0
C3148 C 0.31529 0.6178 0.71893 0.0
C3149 C 0.33041 0.63378 0.70669 0.0
C3150 C 0.29211 0.61297 0.71058 0.0
C3151 C 0.28349 0.62345 0.68936 0.0
H3152 H 0.32143 0.60895 0.73506 0.0
H3153 H 0.28115 0.60036 0.72045 0.0
S3154 S 0.31618 0.66651 0.6507 0.0
N3155 N 0.33512 0.66035 0.67255 0.0
N3156 N 0.2918 0.65079 0.65647 0.0
C3157 C 0.29842 0.63956 0.67703 0.0
C3158 C 0.32181 0.64487 0.68581 0.0
C3159 C 0.86717 0.06687 0.03327 0.0
C3160 C 0.88264 0.08236 0.04568 0.0
C3161 C 0.86267 0.04365 0.04163 0.0
C3162 C 0.87294 0.03534 0.06308 0.0
H3163 H 0.8584 0.07277 0.017 0.0
H3164 H 0.85044 0.03241 0.03161 0.0
S3165 S 0.91484 0.06893 0.10217 0.0
N3166 N 0.90873 0.08765 0.08011 0.0
N3167 N 0.89957 0.04428 0.09635 0.0
C3168 C 0.88857 0.05061 0.07559 0.0
C3169 C 0.89363 0.07405 0.06673 0.0
C3170 C 0.70051 0.10689 0.81904 0.0
C3171 C 0.7195 0.1205 0.80971 0.0
C3172 C 0.67689 0.11087 0.81159 0.0
C3173 C 0.67143 0.12912 0.79517 0.0
H3174 H 0.70397 0.0929 0.83205 0.0
H3175 H 0.66274 0.09994 0.81914 0.0
S3176 S 0.71471 0.16974 0.76552 0.0
N3177 N 0.73146 0.15255 0.78285 0.0
N3178 N 0.6868 0.16081 0.76963 0.0
C3179 C 0.69022 0.14296 0.7858 0.0
C3180 C 0.71437 0.13841 0.79284 0.0
C3181 C 0.81713 0.88508 0.28501 0.0
C3182 C 0.8321 0.86914 0.29749 0.0
C3183 C 0.79383 0.88992 0.29301 0.0
C3184 C 0.78493 0.87948 0.31412 0.0
H3185 H 0.82352 0.89396 0.26898 0.0
H3186 H 0.78302 0.90255 0.28301 0.0
S3187 S 0.81699 0.83631 0.35319 0.0
N3188 N 0.83627 0.8425 0.33164 0.0
N3189 N 0.79272 0.85206 0.34707 0.0
C3190 C 0.79965 0.86331 0.32663 0.0
C3191 C 0.82318 0.85799 0.3182 0.0
C3192 C 0.43944 0.39172 0.07414 0.0
C3193 C 0.4606 0.38106 0.08263 0.0
C3194 C 0.43056 0.38637 0.05125 0.0
C3195 C 0.44286 0.37063 0.03587 0.0
H3196 H 0.42922 0.40362 0.08557 0.0
H3197 H 0.41391 0.39457 0.0456 0.0
S3198 S 0.49977 0.33903 0.04935 0.0
N3199 N 0.49397 0.35459 0.0738 0.0
N3200 N 0.4777 0.345 0.03061 0.0
C3201 C 0.46444 0.36045 0.04394 0.0
C3202 C 0.4732 0.36553 0.06738 0.0
C3203 C 0.3922 0.68056 0.80512 0.0
C3204 C 0.38144 0.69184 0.78536 0.0
C3205 C 0.38806 0.68872 0.82844 0.0
C3206 C 0.37246 0.70794 0.83279 0.0
H3207 H 0.40431 0.66562 0.8025 0.0
H3208 H 0.39695 0.6798 0.8432 0.0
S3209 S 0.33925 0.74305 0.78744 0.0
N3210 N 0.35449 0.72317 0.77166 0.0
N3211 N 0.34589 0.73784 0.8158 0.0
C3212 C 0.36119 0.71909 0.81333 0.0
C3213 C 0.36594 0.71123 0.78949 0.0
C3214 C 0.04651 0.61224 0.54025 0.0
C3215 C 0.06185 0.63143 0.53483 0.0
C3216 C 0.03882 0.60819 0.56386 0.0
C3217 C 0.04555 0.62378 0.58245 0.0
H3218 H 0.04075 0.60011 0.52625 0.0
H3219 H 0.02724 0.59307 0.56753 0.0
S3220 S 0.085 0.67696 0.57716 0.0
N3221 N 0.08357 0.66602 0.54974 0.0
N3222 N 0.06824 0.65917 0.59382 0.0
C3223 C 0.06059 0.64323 0.5771 0.0
C3224 C 0.06898 0.64686 0.55331 0.0
C3225 C 0.1172 0.28975 0.31823 0.0
C3226 C 0.13349 0.30164 0.33324 0.0
C3227 C 0.11235 0.29822 0.29513 0.0
C3228 C 0.12313 0.31927 0.28643 0.0
H3229 H 0.10817 0.2737 0.32435 0.0
H3230 H 0.09961 0.28848 0.28423 0.0
S3231 S 0.16691 0.3572 0.31895 0.0
N3232 N 0.16059 0.33537 0.33788 0.0
N3233 N 0.15091 0.35179 0.29466 0.0
C3234 C 0.13943 0.3314 0.30131 0.0
C3235 C 0.14479 0.32242 0.32466 0.0
C3236 C 0.46962 0.63613 0.43865 0.0
C3237 C 0.45706 0.62108 0.42289 0.0
C3238 C 0.4611 0.64057 0.46181 0.0
C3239 C 0.43937 0.63064 0.46981 0.0
H3240 H 0.48613 0.64462 0.433 0.0
H3241 H 0.47126 0.65249 0.47324 0.0
S3242 S 0.39977 0.58993 0.43533 0.0
N3243 N 0.42213 0.59585 0.41689 0.0
N3244 N 0.40567 0.60474 0.46024 0.0
C3245 C 0.42671 0.6154 0.45426 0.0
C3246 C 0.43569 0.61045 0.43084 0.0
C3247 C 0.14442 0.6853 0.18114 0.0
C3248 C 0.13332 0.70566 0.17132 0.0
C3249 C 0.13888 0.67751 0.20438 0.0
C3250 C 0.1226 0.69024 0.21879 0.0
H3251 H 0.15697 0.67495 0.17055 0.0
H3252 H 0.14747 0.66149 0.21115 0.0
S3253 S 0.08955 0.74528 0.20165 0.0
N3254 N 0.10567 0.73861 0.17779 0.0
N3255 N 0.09583 0.72447 0.2217 0.0
C3256 C 0.11187 0.71097 0.20935 0.0
C3257 C 0.11707 0.71854 0.18553 0.0
C3258 C 0.04331 0.36119 0.96219 0.0
C3259 C 0.06484 0.37127 0.97053 0.0
C3260 C 0.0347 0.36623 0.93918 0.0
C3261 C 0.04694 0.38204 0.92392 0.0
H3262 H 0.03335 0.34874 0.97325 0.0
H3263 H 0.01835 0.35761 0.93327 0.0
S3264 S 0.10365 0.41384 0.93744 0.0
N3265 N 0.09805 0.39807 0.96182 0.0
N3266 N 0.08139 0.40815 0.91882 0.0
C3267 C 0.06813 0.39279 0.93224 0.0
C3268 C 0.07722 0.38721 0.95547 0.0
C3269 C 0.36264 0.31499 0.68288 0.0
C3270 C 0.37433 0.29471 0.67357 0.0
C3271 C 0.36801 0.32361 0.70583 0.0
C3272 C 0.38477 0.31187 0.7205 0.0
H3273 H 0.34971 0.32465 0.67211 0.0
H3274 H 0.35889 0.33951 0.71217 0.0
S3275 S 0.41988 0.25775 0.70469 0.0
N3276 N 0.40332 0.26306 0.68077 0.0
N3277 N 0.4129 0.27884 0.72419 0.0
C3278 C 0.39624 0.29131 0.71158 0.0
C3279 C 0.39117 0.28286 0.68802 0.0
C3280 C 0.06701 0.4603 0.39641 0.0
C3281 C 0.08572 0.45329 0.38107 0.0
C3282 C 0.04332 0.45308 0.39205 0.0
C3283 C 0.03781 0.43793 0.37274 0.0
H3284 H 0.07064 0.47183 0.41158 0.0
H3285 H 0.02928 0.45917 0.40396 0.0
S3286 S 0.0803 0.41413 0.32769 0.0
N3287 N 0.09709 0.43043 0.34579 0.0
N3288 N 0.05274 0.41607 0.33826 0.0
C3289 C 0.05638 0.43046 0.35755 0.0
C3290 C 0.08032 0.43836 0.36154 0.0
C3291 C 0.28553 0.31635 0.11663 0.0
C3292 C 0.29809 0.3319 0.13187 0.0
C3293 C 0.29363 0.29298 0.11256 0.0
C3294 C 0.31495 0.28459 0.12305 0.0
H3295 H 0.26927 0.32226 0.10784 0.0
H3296 H 0.28343 0.28162 0.1006 0.0
S3297 S 0.35459 0.31849 0.16411 0.0
N3298 N 0.3327 0.33733 0.15773 0.0
N3299 N 0.34846 0.29362 0.1493 0.0
C3300 C 0.32775 0.3 0.13825 0.0
C3301 C 0.31915 0.3236 0.1429 0.0
C3302 C 0.43254 0.5651 0.89255 0.0
C3303 C 0.42288 0.54499 0.88091 0.0
C3304 C 0.45569 0.57322 0.8872 0.0
C3305 C 0.47019 0.56115 0.87051 0.0
H3306 H 0.42186 0.5751 0.90528 0.0
H3307 H 0.46224 0.58916 0.89612 0.0
S3308 S 0.45366 0.50676 0.83617 0.0
N3309 N 0.42974 0.51274 0.85251 0.0
N3310 N 0.47349 0.52762 0.84293 0.0
C3311 C 0.46102 0.54054 0.85936 0.0
C3312 C 0.43728 0.53258 0.86442 0.0
C3313 C 0.21681 0.68827 0.61515 0.0
C3314 C 0.20481 0.6729 0.63105 0.0
C3315 C 0.20806 0.71128 0.61031 0.0
C3316 C 0.18663 0.71954 0.62069 0.0
H3317 H 0.23309 0.68246 0.60634 0.0
H3318 H 0.21784 0.72241 0.59779 0.0
S3319 S 0.14844 0.6861 0.66357 0.0
N3320 N 0.1707 0.66759 0.65755 0.0
N3321 N 0.15376 0.71058 0.64783 0.0
C3322 C 0.17449 0.70435 0.63671 0.0
C3323 C 0.18373 0.68111 0.64208 0.0
C3324 C 0.06825 0.53686 0.14052 0.0
C3325 C 0.08261 0.54874 0.12361 0.0
C3326 C 0.04492 0.54473 0.14546 0.0
C3327 C 0.03542 0.56514 0.13416 0.0
H3328 H 0.07501 0.52124 0.14984 0.0
H3329 H 0.03445 0.53507 0.15864 0.0
S3330 S 0.06593 0.60277 0.08874 0.0
N3331 N 0.08569 0.58181 0.09544 0.0
N3332 N 0.04212 0.59705 0.10533 0.0
C3333 C 0.04966 0.57727 0.11734 0.0
C3334 C 0.07318 0.56893 0.11188 0.0
C3335 C 0.18855 0.32151 0.86061 0.0
C3336 C 0.20931 0.33035 0.87178 0.0
C3337 C 0.18001 0.29841 0.86564 0.0
C3338 C 0.19231 0.2832 0.88152 0.0
H3339 H 0.17841 0.33277 0.8485 0.0
H3340 H 0.16367 0.29243 0.85705 0.0
S3341 S 0.24799 0.29769 0.91475 0.0
N3342 N 0.24213 0.3221 0.89913 0.0
N3343 N 0.2265 0.27852 0.9081 0.0
C3344 C 0.21342 0.29166 0.89232 0.0
C3345 C 0.2218 0.3153 0.88759 0.0
C3346 C 0.43164 0.4376 0.61439 0.0
C3347 C 0.42217 0.45795 0.62585 0.0
C3348 C 0.45484 0.42942 0.61957 0.0
C3349 C 0.46956 0.44171 0.63587 0.0
H3350 H 0.42085 0.42761 0.60173 0.0
H3351 H 0.46136 0.41351 0.6106 0.0
S3352 S 0.45328 0.49616 0.67033 0.0
N3353 N 0.42924 0.49016 0.65421 0.0
N3354 N 0.47302 0.47525 0.66344 0.0
C3355 C 0.4604 0.46228 0.64718 0.0
C3356 C 0.43664 0.47026 0.64231 0.0
C3357 C 0.28471 0.68874 0.38474 0.0
C3358 C 0.29776 0.67323 0.36984 0.0
C3359 C 0.29273 0.71206 0.38931 0.0
C3360 C 0.31444 0.7205 0.37968 0.0
H3361 H 0.26821 0.68276 0.39302 0.0
H3362 H 0.28222 0.72328 0.40114 0.0
S3363 S 0.35523 0.68677 0.33951 0.0
N3364 N 0.33314 0.66792 0.34509 0.0
N3365 N 0.34865 0.71157 0.35424 0.0
C3366 C 0.32758 0.70519 0.36459 0.0
C3367 C 0.3191 0.68161 0.3595 0.0
C3368 C 0.39385 0.06464 0.46065 0.0
C3369 C 0.3785 0.08363 0.4545 0.0
C3370 C 0.38959 0.04138 0.45213 0.0
C3371 C 0.37042 0.03671 0.43651 0.0
H3372 H 0.40888 0.0677 0.47254 0.0
H3373 H 0.40141 0.02701 0.45761 0.0
S3374 S 0.32568 0.08035 0.41435 0.0
N3375 N 0.3435 0.09622 0.43184 0.0
N3376 N 0.33628 0.05275 0.41492 0.0
C3377 C 0.35535 0.05561 0.42978 0.0
C3378 C 0.35919 0.07905 0.43903 0.0
C3379 C 0.86577 0.43707 0.53479 0.0
C3380 C 0.88176 0.42175 0.54677 0.0
C3381 C 0.86073 0.46003 0.54364 0.0
C3382 C 0.871 0.46823 0.56513 0.0
H3383 H 0.85705 0.43125 0.51847 0.0
H3384 H 0.84815 0.47114 0.53392 0.0
S3385 S 0.914 0.43488 0.60331 0.0
N3386 N 0.90815 0.41645 0.58096 0.0
N3387 N 0.89814 0.45928 0.59801 0.0
C3388 C 0.88711 0.45309 0.57722 0.0
C3389 C 0.89265 0.42994 0.56792 0.0
C3390 C 0.3181 0.11768 0.28374 0.0
C3391 C 0.33293 0.13343 0.29658 0.0
C3392 C 0.2947 0.11285 0.29139 0.0
C3393 C 0.28555 0.12305 0.31252 0.0
H3394 H 0.3246 0.10911 0.2676 0.0
H3395 H 0.28392 0.10053 0.28098 0.0
S3396 S 0.31738 0.16523 0.35276 0.0
N3397 N 0.33683 0.15944 0.33126 0.0
N3398 N 0.29313 0.14963 0.34616 0.0
C3399 C 0.30024 0.13877 0.32558 0.0
C3400 C 0.32386 0.14417 0.31746 0.0
C3401 C 0.63879 0.56851 0.038 0.0
C3402 C 0.62169 0.58296 0.04952 0.0
C3403 C 0.64396 0.5454 0.04634 0.0
C3404 C 0.63272 0.53619 0.06691 0.0
H3405 H 0.64821 0.57509 0.02237 0.0
H3406 H 0.65736 0.53493 0.037 0.0
S3407 S 0.58661 0.5669 0.10357 0.0
N3408 N 0.59323 0.58633 0.08227 0.0
N3409 N 0.60349 0.54317 0.09842 0.0
C3410 C 0.61555 0.55045 0.07857 0.0
C3411 C 0.60987 0.57376 0.06974 0.0
C3412 C 0.67792 0.39121 0.31592 0.0
C3413 C 0.67278 0.37223 0.30021 0.0
C3414 C 0.70138 0.39543 0.32382 0.0
C3415 C 0.72052 0.38127 0.31564 0.0
H3416 H 0.66365 0.40261 0.32247 0.0
H3417 H 0.70466 0.41017 0.33601 0.0
S3418 S 0.71658 0.32983 0.27397 0.0
N3419 N 0.68864 0.33912 0.27686 0.0
N3420 N 0.73295 0.34781 0.29083 0.0
C3421 C 0.71569 0.3625 0.29967 0.0
C3422 C 0.69172 0.35775 0.29219 0.0
C3423 C 0.11849 0.95278 0.92858 0.0
C3424 C 0.1341 0.96838 0.94077 0.0
C3425 C 0.11327 0.92993 0.93765 0.0
C3426 C 0.12393 0.9217 0.95892 0.0
H3427 H 0.11031 0.95821 0.91185 0.0
H3428 H 0.10147 0.91834 0.92751 0.0
S3429 S 0.16568 0.95562 0.99784 0.0
N3430 N 0.15964 0.97413 0.97559 0.0
N3431 N 0.15027 0.93102 0.99225 0.0
C3432 C 0.13933 0.93718 0.9714 0.0
C3433 C 0.14429 0.96057 0.96244 0.0
C3434 C 0.31425 0.86243 0.21332 0.0
C3435 C 0.33301 0.87804 0.20706 0.0
C3436 C 0.29074 0.86668 0.20544 0.0
C3437 C 0.28556 0.88618 0.19045 0.0
H3438 H 0.31774 0.84698 0.22452 0.0
H3439 H 0.27668 0.85436 0.21063 0.0
S3440 S 0.32823 0.93203 0.16864 0.0
N3441 N 0.3447 0.91388 0.18522 0.0
N3442 N 0.30073 0.92119 0.16964 0.0
C3443 C 0.30412 0.90178 0.18395 0.0
C3444 C 0.32784 0.89789 0.19248 0.0
C3445 C 0.18524 0.11641 0.71406 0.0
C3446 C 0.17095 0.13301 0.70168 0.0
C3447 C 0.20863 0.11135 0.70651 0.0
C3448 C 0.21829 0.12219 0.68593 0.0
H3449 H 0.17839 0.10745 0.72984 0.0
H3450 H 0.21904 0.09845 0.71659 0.0
S3451 S 0.18795 0.16657 0.64696 0.0
N3452 N 0.16804 0.16035 0.66793 0.0
N3453 N 0.21177 0.15019 0.65325 0.0
C3454 C 0.2041 0.13866 0.67326 0.0
C3455 C 0.18049 0.14426 0.68129 0.0
loop_
_geom_bond_atom_site_label_1
_geom_bond_atom_site_label_2
_geom_bond_distance
_geom_bond_site_symmetry_2
_ccdc_geom_bond_type
C0 O2 1.247 . S
C0 O4 1.238 1_655 S
C1 O8 1.247 . S
C1 O9 1.258 . S
O2 C0 1.247 . S
O2 Zn3 2.028 1_655 S
Zn3 O2 2.028 1_455 S
Zn3 O7 2.035 . S
Zn3 O9 2.035 . S
Zn3 O10 2.028 . S
O4 C0 1.238 1_455 S
O4 Zn5 2.067 . S
Zn5 O4 2.067 . S
Zn5 O6 2.028 . S
Zn5 O8 2.028 . S
Zn5 O11 2.035 . S
O6 Zn5 2.028 . S
O6 C12 1.247 . S
O7 Zn3 2.035 . S
O7 C12 1.258 . S
O8 C1 1.247 . S
O8 Zn5 2.028 . S
O9 C1 1.258 . S
O9 Zn3 2.035 . S
O10 Zn3 2.028 . S
O10 C13 1.247 . S
O11 Zn5 2.035 . S
O11 C13 1.258 . S
C12 O6 1.247 . S
C12 O7 1.258 . S
C13 O10 1.247 . S
C13 O11 1.258 . S
C14 O16 1.247 . S
C14 O18 1.258 . S
C15 O22 1.247 . S
C15 O23 1.258 . S
O16 C14 1.247 . S
O16 Zn17 2.028 . S
Zn17 O16 2.028 . S
Zn17 O21 2.035 . S
Zn17 O23 2.035 . S
Zn17 O24 2.028 . S
O18 C14 1.258 . S
O18 Zn19 2.035 . S
Zn19 O18 2.035 . S
Zn19 O20 2.028 . S
Zn19 O22 2.028 . S
Zn19 O25 2.035 . S
O20 Zn19 2.028 . S
O20 C26 1.247 . S
O21 Zn17 2.035 . S
O21 C26 1.258 . S
O22 C15 1.247 . S
O22 Zn19 2.028 . S
O23 C15 1.258 . S
O23 Zn17 2.035 . S
O24 Zn17 2.028 . S
O24 C27 1.247 . S
O25 Zn19 2.035 . S
O25 C27 1.258 . S
C26 O20 1.247 . S
C26 O21 1.258 . S
C27 O24 1.247 . S
C27 O25 1.258 . S
C28 O30 1.247 . S
C28 O32 1.258 . S
C29 O36 1.247 . S
C29 O37 1.258 . S
O30 C28 1.247 . S
O30 Zn31 2.028 . S
Zn31 O30 2.028 . S
Zn31 O35 2.035 . S
Zn31 O37 2.035 . S
Zn31 O38 2.028 . S
O32 C28 1.258 . S
O32 Zn33 2.035 . S
Zn33 O32 2.035 . S
Zn33 O34 2.028 . S
Zn33 O36 2.028 . S
Zn33 O39 2.035 . S
O34 Zn33 2.028 . S
O34 C40 1.247 . S
O35 Zn31 2.035 . S
O35 C40 1.258 . S
O36 C29 1.247 . S
O36 Zn33 2.028 . S
O37 C29 1.258 . S
O37 Zn31 2.035 . S
O38 Zn31 2.028 . S
O38 C41 1.247 . S
O39 Zn33 2.035 . S
O39 C41 1.258 . S
C40 O34 1.247 . S
C40 O35 1.258 . S
C41 O38 1.247 . S
C41 O39 1.258 . S
C42 O44 1.247 . S
C42 O46 1.258 . S
C43 O50 1.247 . S
C43 O51 1.258 . S
O44 C42 1.247 . S
O44 Zn45 2.028 . S
Zn45 O44 2.028 . S
Zn45 O49 2.035 . S
Zn45 O51 2.035 . S
Zn45 O52 2.028 . S
O46 C42 1.258 . S
O46 Zn47 2.035 . S
Zn47 O46 2.035 . S
Zn47 O48 2.028 . S
Zn47 O50 2.028 . S
Zn47 O53 2.035 . S
O48 Zn47 2.028 . S
O48 C54 1.247 . S
O49 Zn45 2.035 . S
O49 C54 1.258 . S
O50 C43 1.247 . S
O50 Zn47 2.028 . S
O51 C43 1.258 . S
O51 Zn45 2.035 . S
O52 Zn45 2.028 . S
O52 C55 1.247 . S
O53 Zn47 2.035 . S
O53 C55 1.258 . S
C54 O48 1.247 . S
C54 O49 1.258 . S
C55 O52 1.247 . S
C55 O53 1.258 . S
C56 O58 1.247 . S
C56 O60 1.238 1_655 S
C57 O64 1.247 . S
C57 O65 1.258 . S
O58 C56 1.247 . S
O58 Zn59 2.028 1_655 S
Zn59 O58 2.028 1_455 S
Zn59 O63 2.035 . S
Zn59 O65 2.035 . S
Zn59 O66 2.028 . S
O60 C56 1.238 1_455 S
O60 Zn61 2.067 . S
Zn61 O60 2.067 . S
Zn61 O62 2.028 . S
Zn61 O64 2.028 . S
Zn61 O67 2.035 . S
O62 Zn61 2.028 . S
O62 C68 1.247 . S
O63 Zn59 2.035 . S
O63 C68 1.258 . S
O64 C57 1.247 . S
O64 Zn61 2.028 . S
O65 C57 1.258 . S
O65 Zn59 2.035 . S
O66 Zn59 2.028 . S
O66 C69 1.247 . S
O67 Zn61 2.035 . S
O67 C69 1.258 . S
C68 O62 1.247 . S
C68 O63 1.258 . S
C69 O66 1.247 . S
C69 O67 1.258 . S
C70 O72 1.247 . S
C70 O74 1.258 . S
C71 O78 1.247 . S
C71 O79 1.258 . S
O72 C70 1.247 . S
O72 Zn73 2.028 . S
Zn73 O72 2.028 . S
Zn73 O77 2.035 . S
Zn73 O79 2.035 . S
Zn73 O80 2.028 . S
O74 C70 1.258 . S
O74 Zn75 2.035 . S
Zn75 O74 2.035 . S
Zn75 O76 2.028 . S
Zn75 O78 2.028 . S
Zn75 O81 2.035 . S
O76 Zn75 2.028 . S
O76 C82 1.247 . S
O77 Zn73 2.035 . S
O77 C82 1.258 . S
O78 C71 1.247 . S
O78 Zn75 2.028 . S
O79 C71 1.258 . S
O79 Zn73 2.035 . S
O80 Zn73 2.028 . S
O80 C83 1.247 . S
O81 Zn75 2.035 . S
O81 C83 1.258 . S
C82 O76 1.247 . S
C82 O77 1.258 . S
C83 O80 1.247 . S
C83 O81 1.258 . S
C84 O86 1.247 . S
C84 O88 1.258 . S
C85 O92 1.247 . S
C85 O93 1.258 . S
O86 C84 1.247 . S
O86 Zn87 2.028 . S
Zn87 O86 2.028 . S
Zn87 O91 2.035 . S
Zn87 O93 2.035 . S
Zn87 O94 2.028 . S
O88 C84 1.258 . S
O88 Zn89 2.035 . S
Zn89 O88 2.035 . S
Zn89 O90 2.028 . S
Zn89 O92 2.028 . S
Zn89 O95 2.035 . S
O90 Zn89 2.028 . S
O90 C96 1.247 . S
O91 Zn87 2.035 . S
O91 C96 1.258 . S
O92 C85 1.247 . S
O92 Zn89 2.028 . S
O93 C85 1.258 . S
O93 Zn87 2.035 . S
O94 Zn87 2.028 . S
O94 C97 1.247 . S
O95 Zn89 2.035 . S
O95 C97 1.258 . S
C96 O90 1.247 . S
C96 O91 1.258 . S
C97 O94 1.247 . S
C97 O95 1.258 . S
C98 O100 1.247 . S
C98 O102 1.258 . S
C99 O106 1.247 . S
C99 O107 1.258 . S
O100 C98 1.247 . S
O100 Zn101 2.028 . S
Zn101 O100 2.028 . S
Zn101 O105 2.035 . S
Zn101 O107 2.035 . S
Zn101 O108 2.028 . S
O102 C98 1.258 . S
O102 Zn103 2.035 . S
Zn103 O102 2.035 . S
Zn103 O104 2.028 . S
Zn103 O106 2.028 . S
Zn103 O109 2.035 . S
O104 Zn103 2.028 . S
O104 C110 1.247 . S
O105 Zn101 2.035 . S
O105 C110 1.258 . S
O106 C99 1.247 . S
O106 Zn103 2.028 . S
O107 C99 1.258 . S
O107 Zn101 2.035 . S
O108 Zn101 2.028 . S
O108 C111 1.247 . S
O109 Zn103 2.035 . S
O109 C111 1.258 . S
C110 O104 1.247 . S
C110 O105 1.258 . S
C111 O108 1.247 . S
C111 O109 1.258 . S
C112 O114 1.247 . S
C112 O116 1.258 . S
C113 O120 1.247 . S
C113 O121 1.258 . S
O114 C112 1.247 . S
O114 Zn115 2.028 . S
Zn115 O114 2.028 . S
Zn115 O119 2.035 . S
Zn115 O121 2.035 . S
Zn115 O122 2.057 . S
O116 C112 1.258 . S
O116 Zn117 2.035 . S
Zn117 O116 2.035 . S
Zn117 O118 2.028 . S
Zn117 O120 2.028 . S
Zn117 O123 2.035 1_545 S
O118 Zn117 2.028 . S
O118 C124 1.247 . S
O119 Zn115 2.035 . S
O119 C124 1.258 . S
O120 C113 1.247 . S
O120 Zn117 2.028 . S
O121 C113 1.258 . S
O121 Zn115 2.035 . S
O122 Zn115 2.057 . S
O122 C125 1.228 1_545 S
O123 Zn117 2.035 1_565 S
O123 C125 1.258 . S
C124 O118 1.247 . S
C124 O119 1.258 . S
C125 O122 1.228 1_565 S
C125 O123 1.258 . S
C126 O128 1.247 . S
C126 O130 1.258 . S
C127 O134 1.247 . S
C127 O135 1.258 . S
O128 C126 1.247 . S
O128 Zn129 2.028 . S
Zn129 O128 2.028 . S
Zn129 O133 2.035 . S
Zn129 O135 2.035 . S
Zn129 O136 2.028 . S
O130 C126 1.258 . S
O130 Zn131 2.035 . S
Zn131 O130 2.035 . S
Zn131 O132 2.028 . S
Zn131 O134 2.028 . S
Zn131 O137 2.035 . S
O132 Zn131 2.028 . S
O132 C138 1.247 . S
O133 Zn129 2.035 . S
O133 C138 1.258 . S
O134 C127 1.247 . S
O134 Zn131 2.028 . S
O135 C127 1.258 . S
O135 Zn129 2.035 . S
O136 Zn129 2.028 . S
O136 C139 1.247 . S
O137 Zn131 2.035 . S
O137 C139 1.258 . S
C138 O132 1.247 . S
C138 O133 1.258 . S
C139 O136 1.247 . S
C139 O137 1.258 . S
C140 O142 1.247 . S
C140 O144 1.238 1_545 S
C141 O148 1.247 . S
C141 O149 1.258 . S
O142 C140 1.247 . S
O142 Zn143 2.028 1_545 S
Zn143 O142 2.028 1_565 S
Zn143 O147 2.035 . S
Zn143 O149 2.035 . S
Zn143 O150 2.028 . S
O144 C140 1.238 1_565 S
O144 Zn145 2.067 . S
Zn145 O144 2.067 . S
Zn145 O146 2.028 . S
Zn145 O148 2.028 . S
Zn145 O151 2.035 . S
O146 Zn145 2.028 . S
O146 C152 1.247 . S
O147 Zn143 2.035 . S
O147 C152 1.258 . S
O148 C141 1.247 . S
O148 Zn145 2.028 . S
O149 C141 1.258 . S
O149 Zn143 2.035 . S
O150 Zn143 2.028 . S
O150 C153 1.247 . S
O151 Zn145 2.035 . S
O151 C153 1.258 . S
C152 O146 1.247 . S
C152 O147 1.258 . S
C153 O150 1.247 . S
C153 O151 1.258 . S
C154 O156 1.247 . S
C154 O158 1.258 . S
C155 O162 1.247 . S
C155 O163 1.258 . S
O156 C154 1.247 . S
O156 Zn157 2.028 . S
Zn157 O156 2.028 . S
Zn157 O161 2.035 . S
Zn157 O163 2.035 . S
Zn157 O164 2.028 . S
O158 C154 1.258 . S
O158 Zn159 2.035 . S
Zn159 O158 2.035 . S
Zn159 O160 2.028 . S
Zn159 O162 2.028 . S
Zn159 O165 2.035 . S
O160 Zn159 2.028 . S
O160 C166 1.247 . S
O161 Zn157 2.035 . S
O161 C166 1.258 . S
O162 C155 1.247 . S
O162 Zn159 2.028 . S
O163 C155 1.258 . S
O163 Zn157 2.035 . S
O164 Zn157 2.028 . S
O164 C167 1.247 . S
O165 Zn159 2.035 . S
O165 C167 1.258 . S
C166 O160 1.247 . S
C166 O161 1.258 . S
C167 O164 1.247 . S
C167 O165 1.258 . S
C168 O170 1.247 . S
C168 O172 1.258 . S
C169 O176 1.247 . S
C169 O177 1.258 . S
O170 C168 1.247 . S
O170 Zn171 2.028 . S
Zn171 O170 2.028 . S
Zn171 O175 2.035 . S
Zn171 O177 2.035 . S
Zn171 O178 2.057 . S
O172 C168 1.258 . S
O172 Zn173 2.035 . S
Zn173 O172 2.035 . S
Zn173 O174 2.028 . S
Zn173 O176 2.028 . S
Zn173 O179 2.035 1_565 S
O174 Zn173 2.028 . S
O174 C180 1.247 . S
O175 Zn171 2.035 . S
O175 C180 1.258 . S
O176 C169 1.247 . S
O176 Zn173 2.028 . S
O177 C169 1.258 . S
O177 Zn171 2.035 . S
O178 Zn171 2.057 . S
O178 C181 1.228 1_565 S
O179 Zn173 2.035 1_545 S
O179 C181 1.258 . S
C180 O174 1.247 . S
C180 O175 1.258 . S
C181 O178 1.228 1_545 S
C181 O179 1.258 . S
C182 O184 1.247 . S
C182 O186 1.258 . S
C183 O190 1.247 . S
C183 O191 1.258 . S
O184 C182 1.247 . S
O184 Zn185 2.028 . S
Zn185 O184 2.028 . S
Zn185 O189 2.035 . S
Zn185 O191 2.035 . S
Zn185 O192 2.028 . S
O186 C182 1.258 . S
O186 Zn187 2.035 . S
Zn187 O186 2.035 . S
Zn187 O188 2.028 . S
Zn187 O190 2.028 . S
Zn187 O193 2.035 . S
O188 Zn187 2.028 . S
O188 C194 1.247 . S
O189 Zn185 2.035 . S
O189 C194 1.258 . S
O190 C183 1.247 . S
O190 Zn187 2.028 . S
O191 C183 1.258 . S
O191 Zn185 2.035 . S
O192 Zn185 2.028 . S
O192 C195 1.247 . S
O193 Zn187 2.035 . S
O193 C195 1.258 . S
C194 O188 1.247 . S
C194 O189 1.258 . S
C195 O192 1.247 . S
C195 O193 1.258 . S
C196 O198 1.247 . S
C196 O200 1.238 1_565 S
C197 O204 1.247 . S
C197 O205 1.258 . S
O198 C196 1.247 . S
O198 Zn199 2.028 1_565 S
Zn199 O198 2.028 1_545 S
Zn199 O203 2.035 . S
Zn199 O205 2.035 . S
Zn199 O206 2.028 . S
O200 C196 1.238 1_545 S
O200 Zn201 2.067 . S
Zn201 O200 2.067 . S
Zn201 O202 2.028 . S
Zn201 O204 2.028 . S
Zn201 O207 2.035 . S
O202 Zn201 2.028 . S
O202 C208 1.247 . S
O203 Zn199 2.035 . S
O203 C208 1.258 . S
O204 C197 1.247 . S
O204 Zn201 2.028 . S
O205 C197 1.258 . S
O205 Zn199 2.035 . S
O206 Zn199 2.028 . S
O206 C209 1.247 . S
O207 Zn201 2.035 . S
O207 C209 1.258 . S
C208 O202 1.247 . S
C208 O203 1.258 . S
C209 O206 1.247 . S
C209 O207 1.258 . S
C210 O212 1.247 . S
C210 O214 1.258 . S
C211 O218 1.247 . S
C211 O219 1.258 . S
O212 C210 1.247 . S
O212 Zn213 2.028 . S
Zn213 O212 2.028 . S
Zn213 O217 2.035 . S
Zn213 O219 2.035 . S
Zn213 O220 2.028 . S
O214 C210 1.258 . S
O214 Zn215 2.035 . S
Zn215 O214 2.035 . S
Zn215 O216 2.028 . S
Zn215 O218 2.028 . S
Zn215 O221 2.035 . S
O216 Zn215 2.028 . S
O216 C222 1.247 . S
O217 Zn213 2.035 . S
O217 C222 1.258 . S
O218 C211 1.247 . S
O218 Zn215 2.028 . S
O219 C211 1.258 . S
O219 Zn213 2.035 . S
O220 Zn213 2.028 . S
O220 C223 1.247 . S
O221 Zn215 2.035 . S
O221 C223 1.258 . S
C222 O216 1.247 . S
C222 O217 1.258 . S
C223 O220 1.247 . S
C223 O221 1.258 . S
C224 O226 1.247 . S
C224 O228 1.238 1_556 S
C225 O232 1.247 . S
C225 O233 1.258 . S
O226 C224 1.247 . S
O226 Zn227 2.028 1_556 S
Zn227 O226 2.028 1_554 S
Zn227 O231 2.035 . S
Zn227 O233 2.035 . S
Zn227 O234 2.028 . S
O228 C224 1.238 1_554 S
O228 Zn229 2.067 . S
Zn229 O228 2.067 . S
Zn229 O230 2.028 . S
Zn229 O232 2.028 . S
Zn229 O235 2.035 . S
O230 Zn229 2.028 . S
O230 C236 1.247 . S
O231 Zn227 2.035 . S
O231 C236 1.258 . S
O232 C225 1.247 . S
O232 Zn229 2.028 . S
O233 C225 1.258 . S
O233 Zn227 2.035 . S
O234 Zn227 2.028 . S
O234 C237 1.247 . S
O235 Zn229 2.035 . S
O235 C237 1.258 . S
C236 O230 1.247 . S
C236 O231 1.258 . S
C237 O234 1.247 . S
C237 O235 1.258 . S
C238 O240 1.247 . S
C238 O242 1.238 1_554 S
C239 O246 1.247 . S
C239 O247 1.258 . S
O240 C238 1.247 . S
O240 Zn241 2.028 1_554 S
Zn241 O240 2.028 1_556 S
Zn241 O245 2.035 . S
Zn241 O247 2.035 . S
Zn241 O248 2.028 . S
O242 C238 1.238 1_556 S
O242 Zn243 2.067 . S
Zn243 O242 2.067 . S
Zn243 O244 2.028 . S
Zn243 O246 2.028 . S
Zn243 O249 2.035 . S
O244 Zn243 2.028 . S
O244 C250 1.247 . S
O245 Zn241 2.035 . S
O245 C250 1.258 . S
O246 C239 1.247 . S
O246 Zn243 2.028 . S
O247 C239 1.258 . S
O247 Zn241 2.035 . S
O248 Zn241 2.028 . S
O248 C251 1.247 . S
O249 Zn243 2.035 . S
O249 C251 1.258 . S
C250 O244 1.247 . S
C250 O245 1.258 . S
C251 O248 1.247 . S
C251 O249 1.258 . S
C252 O254 1.247 . S
C252 O256 1.258 . S
C253 O260 1.247 . S
C253 O261 1.258 . S
O254 C252 1.247 . S
O254 Zn255 2.028 . S
Zn255 O254 2.028 . S
Zn255 O259 2.035 . S
Zn255 O261 2.035 . S
Zn255 O262 2.028 . S
O256 C252 1.258 . S
O256 Zn257 2.035 . S
Zn257 O256 2.035 . S
Zn257 O258 2.028 . S
Zn257 O260 2.028 . S
Zn257 O263 2.035 . S
O258 Zn257 2.028 . S
O258 C264 1.247 . S
O259 Zn255 2.035 . S
O259 C264 1.258 . S
O260 C253 1.247 . S
O260 Zn257 2.028 . S
O261 C253 1.258 . S
O261 Zn255 2.035 . S
O262 Zn255 2.028 . S
O262 C265 1.247 . S
O263 Zn257 2.035 . S
O263 C265 1.258 . S
C264 O258 1.247 . S
C264 O259 1.258 . S
C265 O262 1.247 . S
C265 O263 1.258 . S
C266 O268 1.247 . S
C266 O270 1.258 . S
C267 O274 1.247 . S
C267 O275 1.258 . S
O268 C266 1.247 . S
O268 Zn269 2.028 . S
Zn269 O268 2.028 . S
Zn269 O273 2.035 . S
Zn269 O275 2.035 . S
Zn269 O276 2.028 . S
O270 C266 1.258 . S
O270 Zn271 2.035 . S
Zn271 O270 2.035 . S
Zn271 O272 2.028 . S
Zn271 O274 2.028 . S
Zn271 O277 2.035 . S
O272 Zn271 2.028 . S
O272 C278 1.247 . S
O273 Zn269 2.035 . S
O273 C278 1.258 . S
O274 C267 1.247 . S
O274 Zn271 2.028 . S
O275 C267 1.258 . S
O275 Zn269 2.035 . S
O276 Zn269 2.028 . S
O276 C279 1.247 . S
O277 Zn271 2.035 . S
O277 C279 1.258 . S
C278 O272 1.247 . S
C278 O273 1.258 . S
C279 O276 1.247 . S
C279 O277 1.258 . S
C280 O282 1.247 . S
C280 O284 1.258 . S
C281 O288 1.247 . S
C281 O289 1.258 . S
O282 C280 1.247 . S
O282 Zn283 2.028 . S
Zn283 O282 2.028 . S
Zn283 O287 2.035 . S
Zn283 O289 2.035 . S
Zn283 O290 2.028 . S
O284 C280 1.258 . S
O284 Zn285 2.035 . S
Zn285 O284 2.035 . S
Zn285 O286 2.028 . S
Zn285 O288 2.028 . S
Zn285 O291 2.035 . S
O286 Zn285 2.028 . S
O286 C292 1.247 . S
O287 Zn283 2.035 . S
O287 C292 1.258 . S
O288 C281 1.247 . S
O288 Zn285 2.028 . S
O289 C281 1.258 . S
O289 Zn283 2.035 . S
O290 Zn283 2.028 . S
O290 C293 1.247 . S
O291 Zn285 2.035 . S
O291 C293 1.258 . S
C292 O286 1.247 . S
C292 O287 1.258 . S
C293 O290 1.247 . S
C293 O291 1.258 . S
C294 O296 1.247 . S
C294 O298 1.258 . S
C295 O302 1.247 . S
C295 O303 1.258 . S
O296 C294 1.247 . S
O296 Zn297 2.028 . S
Zn297 O296 2.028 . S
Zn297 O301 2.035 . S
Zn297 O303 2.035 . S
Zn297 O304 2.028 . S
O298 C294 1.258 . S
O298 Zn299 2.035 . S
Zn299 O298 2.035 . S
Zn299 O300 2.028 . S
Zn299 O302 2.028 . S
Zn299 O305 2.035 . S
O300 Zn299 2.028 . S
O300 C306 1.247 . S
O301 Zn297 2.035 . S
O301 C306 1.258 . S
O302 C295 1.247 . S
O302 Zn299 2.028 . S
O303 C295 1.258 . S
O303 Zn297 2.035 . S
O304 Zn297 2.028 . S
O304 C307 1.247 . S
O305 Zn299 2.035 . S
O305 C307 1.258 . S
C306 O300 1.247 . S
C306 O301 1.258 . S
C307 O304 1.247 . S
C307 O305 1.258 . S
C308 O310 1.247 . S
C308 O312 1.258 . S
C309 O316 1.247 . S
C309 O317 1.258 . S
O310 C308 1.247 . S
O310 Zn311 2.028 . S
Zn311 O310 2.028 . S
Zn311 O315 2.035 . S
Zn311 O317 2.035 . S
Zn311 O318 2.028 . S
O312 C308 1.258 . S
O312 Zn313 2.035 . S
Zn313 O312 2.035 . S
Zn313 O314 2.028 . S
Zn313 O316 2.028 . S
Zn313 O319 2.035 . S
O314 Zn313 2.028 . S
O314 C320 1.247 . S
O315 Zn311 2.035 . S
O315 C320 1.258 . S
O316 C309 1.247 . S
O316 Zn313 2.028 . S
O317 C309 1.258 . S
O317 Zn311 2.035 . S
O318 Zn311 2.028 . S
O318 C321 1.247 . S
O319 Zn313 2.035 . S
O319 C321 1.258 . S
C320 O314 1.247 . S
C320 O315 1.258 . S
C321 O318 1.247 . S
C321 O319 1.258 . S
C322 O324 1.247 . S
C322 O326 1.258 . S
C323 O330 1.247 . S
C323 O331 1.258 . S
O324 C322 1.247 . S
O324 Zn325 2.028 . S
Zn325 O324 2.028 . S
Zn325 O329 2.035 . S
Zn325 O331 2.035 . S
Zn325 O332 2.028 . S
O326 C322 1.258 . S
O326 Zn327 2.035 . S
Zn327 O326 2.035 . S
Zn327 O328 2.028 . S
Zn327 O330 2.028 . S
Zn327 O333 2.035 . S
O328 Zn327 2.028 . S
O328 C334 1.247 . S
O329 Zn325 2.035 . S
O329 C334 1.258 . S
O330 C323 1.247 . S
O330 Zn327 2.028 . S
O331 C323 1.258 . S
O331 Zn325 2.035 . S
O332 Zn325 2.028 . S
O332 C335 1.247 . S
O333 Zn327 2.035 . S
O333 C335 1.258 . S
C334 O328 1.247 . S
C334 O329 1.258 . S
C335 O332 1.247 . S
C335 O333 1.258 . S
C336 O338 1.228 1_455 S
C336 O340 1.258 . S
C337 O344 1.247 . S
C337 O345 1.258 . S
O338 C336 1.228 1_655 S
O338 Zn339 2.057 . S
Zn339 O338 2.057 . S
Zn339 O343 2.035 . S
Zn339 O345 2.035 . S
Zn339 O346 2.028 . S
O340 C336 1.258 . S
O340 Zn341 2.035 1_455 S
Zn341 O340 2.035 1_655 S
Zn341 O342 2.028 . S
Zn341 O344 2.028 . S
Zn341 O347 2.035 . S
O342 Zn341 2.028 . S
O342 C348 1.247 . S
O343 Zn339 2.035 . S
O343 C348 1.258 . S
O344 C337 1.247 . S
O344 Zn341 2.028 . S
O345 C337 1.258 . S
O345 Zn339 2.035 . S
O346 Zn339 2.028 . S
O346 C349 1.247 . S
O347 Zn341 2.035 . S
O347 C349 1.258 . S
C348 O342 1.247 . S
C348 O343 1.258 . S
C349 O346 1.247 . S
C349 O347 1.258 . S
C350 O352 1.247 . S
C350 O354 1.258 . S
C351 O358 1.247 . S
C351 O359 1.258 . S
O352 C350 1.247 . S
O352 Zn353 2.028 . S
Zn353 O352 2.028 . S
Zn353 O357 2.035 . S
Zn353 O359 2.035 . S
Zn353 O360 2.028 . S
O354 C350 1.258 . S
O354 Zn355 2.035 . S
Zn355 O354 2.035 . S
Zn355 O356 2.028 . S
Zn355 O358 2.028 . S
Zn355 O361 2.035 . S
O356 Zn355 2.028 . S
O356 C362 1.247 . S
O357 Zn353 2.035 . S
O357 C362 1.258 . S
O358 C351 1.247 . S
O358 Zn355 2.028 . S
O359 C351 1.258 . S
O359 Zn353 2.035 . S
O360 Zn353 2.028 . S
O360 C363 1.247 . S
O361 Zn355 2.035 . S
O361 C363 1.258 . S
C362 O356 1.247 . S
C362 O357 1.258 . S
C363 O360 1.247 . S
C363 O361 1.258 . S
C364 O366 1.247 . S
C364 O368 1.258 . S
C365 O372 1.247 . S
C365 O373 1.258 . S
O366 C364 1.247 . S
O366 Zn367 2.028 . S
Zn367 O366 2.028 . S
Zn367 O371 2.035 . S
Zn367 O373 2.035 . S
Zn367 O374 2.028 . S
O368 C364 1.258 . S
O368 Zn369 2.035 . S
Zn369 O368 2.035 . S
Zn369 O370 2.028 . S
Zn369 O372 2.028 . S
Zn369 O375 2.035 . S
O370 Zn369 2.028 . S
O370 C376 1.247 . S
O371 Zn367 2.035 . S
O371 C376 1.258 . S
O372 C365 1.247 . S
O372 Zn369 2.028 . S
O373 C365 1.258 . S
O373 Zn367 2.035 . S
O374 Zn367 2.028 . S
O374 C377 1.247 . S
O375 Zn369 2.035 . S
O375 C377 1.258 . S
C376 O370 1.247 . S
C376 O371 1.258 . S
C377 O374 1.247 . S
C377 O375 1.258 . S
C378 O380 1.247 . S
C378 O382 1.258 . S
C379 O386 1.247 . S
C379 O387 1.258 . S
O380 C378 1.247 . S
O380 Zn381 2.028 . S
Zn381 O380 2.028 . S
Zn381 O385 2.035 . S
Zn381 O387 2.035 . S
Zn381 O388 2.028 . S
O382 C378 1.258 . S
O382 Zn383 2.035 . S
Zn383 O382 2.035 . S
Zn383 O384 2.028 . S
Zn383 O386 2.028 . S
Zn383 O389 2.035 . S
O384 Zn383 2.028 . S
O384 C390 1.247 . S
O385 Zn381 2.035 . S
O385 C390 1.258 . S
O386 C379 1.247 . S
O386 Zn383 2.028 . S
O387 C379 1.258 . S
O387 Zn381 2.035 . S
O388 Zn381 2.028 . S
O388 C391 1.247 . S
O389 Zn383 2.035 . S
O389 C391 1.258 . S
C390 O384 1.247 . S
C390 O385 1.258 . S
C391 O388 1.247 . S
C391 O389 1.258 . S
C392 O394 1.228 1_455 S
C392 O396 1.258 . S
C393 O400 1.247 . S
C393 O401 1.258 . S
O394 C392 1.228 1_655 S
O394 Zn395 2.057 . S
Zn395 O394 2.057 . S
Zn395 O399 2.035 . S
Zn395 O401 2.035 . S
Zn395 O402 2.028 . S
O396 C392 1.258 . S
O396 Zn397 2.035 1_455 S
Zn397 O396 2.035 1_655 S
Zn397 O398 2.028 . S
Zn397 O400 2.028 . S
Zn397 O403 2.035 . S
O398 Zn397 2.028 . S
O398 C404 1.247 . S
O399 Zn395 2.035 . S
O399 C404 1.258 . S
O400 C393 1.247 . S
O400 Zn397 2.028 . S
O401 C393 1.258 . S
O401 Zn395 2.035 . S
O402 Zn395 2.028 . S
O402 C405 1.247 . S
O403 Zn397 2.035 . S
O403 C405 1.258 . S
C404 O398 1.247 . S
C404 O399 1.258 . S
C405 O402 1.247 . S
C405 O403 1.258 . S
C406 O408 1.247 . S
C406 O410 1.258 . S
C407 O414 1.247 . S
C407 O415 1.258 . S
O408 C406 1.247 . S
O408 Zn409 2.028 . S
Zn409 O408 2.028 . S
Zn409 O413 2.035 . S
Zn409 O415 2.035 . S
Zn409 O416 2.028 . S
O410 C406 1.258 . S
O410 Zn411 2.035 . S
Zn411 O410 2.035 . S
Zn411 O412 2.028 . S
Zn411 O414 2.028 . S
Zn411 O417 2.035 . S
O412 Zn411 2.028 . S
O412 C418 1.247 . S
O413 Zn409 2.035 . S
O413 C418 1.258 . S
O414 C407 1.247 . S
O414 Zn411 2.028 . S
O415 C407 1.258 . S
O415 Zn409 2.035 . S
O416 Zn409 2.028 . S
O416 C419 1.247 . S
O417 Zn411 2.035 . S
O417 C419 1.258 . S
C418 O412 1.247 . S
C418 O413 1.258 . S
C419 O416 1.247 . S
C419 O417 1.258 . S
C420 O422 1.247 . S
C420 O424 1.258 . S
C421 O428 1.247 . S
C421 O429 1.258 . S
O422 C420 1.247 . S
O422 Zn423 2.028 . S
Zn423 O422 2.028 . S
Zn423 O427 2.035 . S
Zn423 O429 2.035 . S
Zn423 O430 2.028 . S
O424 C420 1.258 . S
O424 Zn425 2.035 . S
Zn425 O424 2.035 . S
Zn425 O426 2.028 . S
Zn425 O428 2.028 . S
Zn425 O431 2.035 . S
O426 Zn425 2.028 . S
O426 C432 1.247 . S
O427 Zn423 2.035 . S
O427 C432 1.258 . S
O428 C421 1.247 . S
O428 Zn425 2.028 . S
O429 C421 1.258 . S
O429 Zn423 2.035 . S
O430 Zn423 2.028 . S
O430 C433 1.247 . S
O431 Zn425 2.035 . S
O431 C433 1.258 . S
C432 O426 1.247 . S
C432 O427 1.258 . S
C433 O430 1.247 . S
C433 O431 1.258 . S
C434 O436 1.247 . S
C434 O438 1.258 . S
C435 O442 1.247 . S
C435 O443 1.258 . S
O436 C434 1.247 . S
O436 Zn437 2.028 . S
Zn437 O436 2.028 . S
Zn437 O441 2.035 . S
Zn437 O443 2.035 . S
Zn437 O444 2.028 . S
O438 C434 1.258 . S
O438 Zn439 2.035 . S
Zn439 O438 2.035 . S
Zn439 O440 2.028 . S
Zn439 O442 2.028 . S
Zn439 O445 2.035 . S
O440 Zn439 2.028 . S
O440 C446 1.247 . S
O441 Zn437 2.035 . S
O441 C446 1.258 . S
O442 C435 1.247 . S
O442 Zn439 2.028 . S
O443 C435 1.258 . S
O443 Zn437 2.035 . S
O444 Zn437 2.028 . S
O444 C447 1.247 . S
O445 Zn439 2.035 . S
O445 C447 1.258 . S
C446 O440 1.247 . S
C446 O441 1.258 . S
C447 O444 1.247 . S
C447 O445 1.258 . S
C448 O450 1.247 . S
C448 O452 1.258 . S
C449 O456 1.247 . S
C449 O457 1.258 . S
O450 C448 1.247 . S
O450 Zn451 2.028 . S
Zn451 O450 2.028 . S
Zn451 O455 2.035 1_565 S
Zn451 O457 2.035 . S
Zn451 O458 2.028 . S
O452 C448 1.258 . S
O452 Zn453 2.035 . S
Zn453 O452 2.035 . S
Zn453 O454 2.057 . S
Zn453 O456 2.028 . S
Zn453 O459 2.035 . S
O454 Zn453 2.057 . S
O454 C460 1.228 1_565 S
O455 Zn451 2.035 1_545 S
O455 C460 1.258 . S
O456 C449 1.247 . S
O456 Zn453 2.028 . S
O457 C449 1.258 . S
O457 Zn451 2.035 . S
O458 Zn451 2.028 . S
O458 C461 1.247 . S
O459 Zn453 2.035 . S
O459 C461 1.258 . S
C460 O454 1.228 1_545 S
C460 O455 1.258 . S
C461 O458 1.247 . S
C461 O459 1.258 . S
C462 O464 1.247 . S
C462 O466 1.258 . S
C463 O470 1.247 . S
C463 O471 1.258 . S
O464 C462 1.247 . S
O464 Zn465 2.028 . S
Zn465 O464 2.028 . S
Zn465 O469 2.035 . S
Zn465 O471 2.035 . S
Zn465 O472 2.028 . S
O466 C462 1.258 . S
O466 Zn467 2.035 . S
Zn467 O466 2.035 . S
Zn467 O468 2.028 . S
Zn467 O470 2.028 . S
Zn467 O473 2.035 . S
O468 Zn467 2.028 . S
O468 C474 1.247 . S
O469 Zn465 2.035 . S
O469 C474 1.258 . S
O470 C463 1.247 . S
O470 Zn467 2.028 . S
O471 C463 1.258 . S
O471 Zn465 2.035 . S
O472 Zn465 2.028 . S
O472 C475 1.247 . S
O473 Zn467 2.035 . S
O473 C475 1.258 . S
C474 O468 1.247 . S
C474 O469 1.258 . S
C475 O472 1.247 . S
C475 O473 1.258 . S
C476 O478 1.247 . S
C476 O480 1.258 . S
C477 O484 1.247 . S
C477 O485 1.238 1_565 S
O478 C476 1.247 . S
O478 Zn479 2.028 . S
Zn479 O478 2.028 . S
Zn479 O483 2.035 . S
Zn479 O485 2.067 . S
Zn479 O486 2.028 . S
O480 C476 1.258 . S
O480 Zn481 2.035 . S
Zn481 O480 2.035 . S
Zn481 O482 2.028 . S
Zn481 O484 2.028 1_545 S
Zn481 O487 2.035 . S
O482 Zn481 2.028 . S
O482 C488 1.247 . S
O483 Zn479 2.035 . S
O483 C488 1.258 . S
O484 C477 1.247 . S
O484 Zn481 2.028 1_565 S
O485 C477 1.238 1_545 S
O485 Zn479 2.067 . S
O486 Zn479 2.028 . S
O486 C489 1.247 . S
O487 Zn481 2.035 . S
O487 C489 1.258 . S
C488 O482 1.247 . S
C488 O483 1.258 . S
C489 O486 1.247 . S
C489 O487 1.258 . S
C490 O492 1.247 . S
C490 O494 1.258 . S
C491 O498 1.247 . S
C491 O499 1.258 . S
O492 C490 1.247 . S
O492 Zn493 2.028 . S
Zn493 O492 2.028 . S
Zn493 O497 2.035 . S
Zn493 O499 2.035 . S
Zn493 O500 2.028 . S
O494 C490 1.258 . S
O494 Zn495 2.035 . S
Zn495 O494 2.035 . S
Zn495 O496 2.028 . S
Zn495 O498 2.028 . S
Zn495 O501 2.035 . S
O496 Zn495 2.028 . S
O496 C502 1.247 . S
O497 Zn493 2.035 . S
O497 C502 1.258 . S
O498 C491 1.247 . S
O498 Zn495 2.028 . S
O499 C491 1.258 . S
O499 Zn493 2.035 . S
O500 Zn493 2.028 . S
O500 C503 1.247 . S
O501 Zn495 2.035 . S
O501 C503 1.258 . S
C502 O496 1.247 . S
C502 O497 1.258 . S
C503 O500 1.247 . S
C503 O501 1.258 . S
C504 O506 1.247 . S
C504 O508 1.258 . S
C505 O512 1.247 . S
C505 O513 1.258 . S
O506 C504 1.247 . S
O506 Zn507 2.028 . S
Zn507 O506 2.028 . S
Zn507 O511 2.035 1_545 S
Zn507 O513 2.035 . S
Zn507 O514 2.028 . S
O508 C504 1.258 . S
O508 Zn509 2.035 . S
Zn509 O508 2.035 . S
Zn509 O510 2.057 . S
Zn509 O512 2.028 . S
Zn509 O515 2.035 . S
O510 Zn509 2.057 . S
O510 C516 1.228 1_545 S
O511 Zn507 2.035 1_565 S
O511 C516 1.258 . S
O512 C505 1.247 . S
O512 Zn509 2.028 . S
O513 C505 1.258 . S
O513 Zn507 2.035 . S
O514 Zn507 2.028 . S
O514 C517 1.247 . S
O515 Zn509 2.035 . S
O515 C517 1.258 . S
C516 O510 1.228 1_565 S
C516 O511 1.258 . S
C517 O514 1.247 . S
C517 O515 1.258 . S
C518 O520 1.247 . S
C518 O522 1.258 . S
C519 O526 1.247 . S
C519 O527 1.258 . S
O520 C518 1.247 . S
O520 Zn521 2.028 . S
Zn521 O520 2.028 . S
Zn521 O525 2.035 . S
Zn521 O527 2.035 . S
Zn521 O528 2.028 . S
O522 C518 1.258 . S
O522 Zn523 2.035 . S
Zn523 O522 2.035 . S
Zn523 O524 2.028 . S
Zn523 O526 2.028 . S
Zn523 O529 2.035 . S
O524 Zn523 2.028 . S
O524 C530 1.247 . S
O525 Zn521 2.035 . S
O525 C530 1.258 . S
O526 C519 1.247 . S
O526 Zn523 2.028 . S
O527 C519 1.258 . S
O527 Zn521 2.035 . S
O528 Zn521 2.028 . S
O528 C531 1.247 . S
O529 Zn523 2.035 . S
O529 C531 1.258 . S
C530 O524 1.247 . S
C530 O525 1.258 . S
C531 O528 1.247 . S
C531 O529 1.258 . S
C532 O534 1.247 . S
C532 O536 1.258 . S
C533 O540 1.247 . S
C533 O541 1.258 . S
O534 C532 1.247 . S
O534 Zn535 2.028 . S
Zn535 O534 2.028 . S
Zn535 O539 2.035 1_565 S
Zn535 O541 2.035 . S
Zn535 O542 2.028 . S
O536 C532 1.258 . S
O536 Zn537 2.035 . S
Zn537 O536 2.035 . S
Zn537 O538 2.057 . S
Zn537 O540 2.028 . S
Zn537 O543 2.035 . S
O538 Zn537 2.057 . S
O538 C544 1.228 1_565 S
O539 Zn535 2.035 1_545 S
O539 C544 1.258 . S
O540 C533 1.247 . S
O540 Zn537 2.028 . S
O541 C533 1.258 . S
O541 Zn535 2.035 . S
O542 Zn535 2.028 . S
O542 C545 1.247 . S
O543 Zn537 2.035 . S
O543 C545 1.258 . S
C544 O538 1.228 1_545 S
C544 O539 1.258 . S
C545 O542 1.247 . S
C545 O543 1.258 . S
C546 O548 1.247 . S
C546 O550 1.258 . S
C547 O554 1.247 . S
C547 O555 1.258 . S
O548 C546 1.247 . S
O548 Zn549 2.028 . S
Zn549 O548 2.028 . S
Zn549 O553 2.035 . S
Zn549 O555 2.035 . S
Zn549 O556 2.028 . S
O550 C546 1.258 . S
O550 Zn551 2.035 . S
Zn551 O550 2.035 . S
Zn551 O552 2.028 . S
Zn551 O554 2.028 . S
Zn551 O557 2.035 . S
O552 Zn551 2.028 . S
O552 C558 1.247 . S
O553 Zn549 2.035 . S
O553 C558 1.258 . S
O554 C547 1.247 . S
O554 Zn551 2.028 . S
O555 C547 1.258 . S
O555 Zn549 2.035 . S
O556 Zn549 2.028 . S
O556 C559 1.247 . S
O557 Zn551 2.035 . S
O557 C559 1.258 . S
C558 O552 1.247 . S
C558 O553 1.258 . S
C559 O556 1.247 . S
C559 O557 1.258 . S
C560 O562 1.228 1_554 S
C560 O564 1.258 . S
C561 O568 1.247 . S
C561 O569 1.258 . S
O562 C560 1.228 1_556 S
O562 Zn563 2.057 . S
Zn563 O562 2.057 . S
Zn563 O567 2.035 . S
Zn563 O569 2.035 . S
Zn563 O570 2.028 . S
O564 C560 1.258 . S
O564 Zn565 2.035 1_554 S
Zn565 O564 2.035 1_556 S
Zn565 O566 2.028 . S
Zn565 O568 2.028 . S
Zn565 O571 2.035 . S
O566 Zn565 2.028 . S
O566 C572 1.247 . S
O567 Zn563 2.035 . S
O567 C572 1.258 . S
O568 C561 1.247 . S
O568 Zn565 2.028 . S
O569 C561 1.258 . S
O569 Zn563 2.035 . S
O570 Zn563 2.028 . S
O570 C573 1.247 . S
O571 Zn565 2.035 . S
O571 C573 1.258 . S
C572 O566 1.247 . S
C572 O567 1.258 . S
C573 O570 1.247 . S
C573 O571 1.258 . S
C574 O576 1.228 1_556 S
C574 O578 1.258 . S
C575 O582 1.247 . S
C575 O583 1.258 . S
O576 C574 1.228 1_554 S
O576 Zn577 2.057 . S
Zn577 O576 2.057 . S
Zn577 O581 2.035 . S
Zn577 O583 2.035 . S
Zn577 O584 2.028 . S
O578 C574 1.258 . S
O578 Zn579 2.035 1_556 S
Zn579 O578 2.035 1_554 S
Zn579 O580 2.028 . S
Zn579 O582 2.028 . S
Zn579 O585 2.035 . S
O580 Zn579 2.028 . S
O580 C586 1.247 . S
O581 Zn577 2.035 . S
O581 C586 1.258 . S
O582 C575 1.247 . S
O582 Zn579 2.028 . S
O583 C575 1.258 . S
O583 Zn577 2.035 . S
O584 Zn577 2.028 . S
O584 C587 1.247 . S
O585 Zn579 2.035 . S
O585 C587 1.258 . S
C586 O580 1.247 . S
C586 O581 1.258 . S
C587 O584 1.247 . S
C587 O585 1.258 . S
C588 O590 1.247 . S
C588 O592 1.258 . S
C589 O596 1.247 . S
C589 O597 1.258 . S
O590 C588 1.247 . S
O590 Zn591 2.028 . S
Zn591 O590 2.028 . S
Zn591 O595 2.035 . S
Zn591 O597 2.035 . S
Zn591 O598 2.028 . S
O592 C588 1.258 . S
O592 Zn593 2.035 . S
Zn593 O592 2.035 . S
Zn593 O594 2.028 . S
Zn593 O596 2.028 . S
Zn593 O599 2.035 . S
O594 Zn593 2.028 . S
O594 C600 1.247 . S
O595 Zn591 2.035 . S
O595 C600 1.258 . S
O596 C589 1.247 . S
O596 Zn593 2.028 . S
O597 C589 1.258 . S
O597 Zn591 2.035 . S
O598 Zn591 2.028 . S
O598 C601 1.247 . S
O599 Zn593 2.035 . S
O599 C601 1.258 . S
C600 O594 1.247 . S
C600 O595 1.258 . S
C601 O598 1.247 . S
C601 O599 1.258 . S
C602 O604 1.247 . S
C602 O606 1.258 . S
C603 O610 1.247 . S
C603 O611 1.258 . S
O604 C602 1.247 . S
O604 Zn605 2.028 . S
Zn605 O604 2.028 . S
Zn605 O609 2.035 . S
Zn605 O611 2.035 . S
Zn605 O612 2.028 . S
O606 C602 1.258 . S
O606 Zn607 2.035 . S
Zn607 O606 2.035 . S
Zn607 O608 2.028 . S
Zn607 O610 2.028 . S
Zn607 O613 2.035 . S
O608 Zn607 2.028 . S
O608 C614 1.247 . S
O609 Zn605 2.035 . S
O609 C614 1.258 . S
O610 C603 1.247 . S
O610 Zn607 2.028 . S
O611 C603 1.258 . S
O611 Zn605 2.035 . S
O612 Zn605 2.028 . S
O612 C615 1.247 . S
O613 Zn607 2.035 . S
O613 C615 1.258 . S
C614 O608 1.247 . S
C614 O609 1.258 . S
C615 O612 1.247 . S
C615 O613 1.258 . S
C616 O618 1.247 . S
C616 O620 1.258 . S
C617 O624 1.247 . S
C617 O625 1.258 . S
O618 C616 1.247 . S
O618 Zn619 2.028 . S
Zn619 O618 2.028 . S
Zn619 O623 2.035 . S
Zn619 O625 2.035 . S
Zn619 O626 2.028 . S
O620 C616 1.258 . S
O620 Zn621 2.035 . S
Zn621 O620 2.035 . S
Zn621 O622 2.028 . S
Zn621 O624 2.028 . S
Zn621 O627 2.035 . S
O622 Zn621 2.028 . S
O622 C628 1.247 . S
O623 Zn619 2.035 . S
O623 C628 1.258 . S
O624 C617 1.247 . S
O624 Zn621 2.028 . S
O625 C617 1.258 . S
O625 Zn619 2.035 . S
O626 Zn619 2.028 . S
O626 C629 1.247 . S
O627 Zn621 2.035 . S
O627 C629 1.258 . S
C628 O622 1.247 . S
C628 O623 1.258 . S
C629 O626 1.247 . S
C629 O627 1.258 . S
C630 O632 1.247 . S
C630 O634 1.258 . S
C631 O638 1.247 . S
C631 O639 1.258 . S
O632 C630 1.247 . S
O632 Zn633 2.028 . S
Zn633 O632 2.028 . S
Zn633 O637 2.035 . S
Zn633 O639 2.035 . S
Zn633 O640 2.028 . S
O634 C630 1.258 . S
O634 Zn635 2.035 . S
Zn635 O634 2.035 . S
Zn635 O636 2.028 . S
Zn635 O638 2.028 . S
Zn635 O641 2.035 . S
O636 Zn635 2.028 . S
O636 C642 1.247 . S
O637 Zn633 2.035 . S
O637 C642 1.258 . S
O638 C631 1.247 . S
O638 Zn635 2.028 . S
O639 C631 1.258 . S
O639 Zn633 2.035 . S
O640 Zn633 2.028 . S
O640 C643 1.247 . S
O641 Zn635 2.035 . S
O641 C643 1.258 . S
C642 O636 1.247 . S
C642 O637 1.258 . S
C643 O640 1.247 . S
C643 O641 1.258 . S
C644 O646 1.247 . S
C644 O648 1.258 . S
C645 O652 1.247 . S
C645 O653 1.258 . S
O646 C644 1.247 . S
O646 Zn647 2.028 . S
Zn647 O646 2.028 . S
Zn647 O651 2.035 . S
Zn647 O653 2.035 . S
Zn647 O654 2.028 . S
O648 C644 1.258 . S
O648 Zn649 2.035 . S
Zn649 O648 2.035 . S
Zn649 O650 2.028 . S
Zn649 O652 2.028 . S
Zn649 O655 2.035 . S
O650 Zn649 2.028 . S
O650 C656 1.247 . S
O651 Zn647 2.035 . S
O651 C656 1.258 . S
O652 C645 1.247 . S
O652 Zn649 2.028 . S
O653 C645 1.258 . S
O653 Zn647 2.035 . S
O654 Zn647 2.028 . S
O654 C657 1.247 . S
O655 Zn649 2.035 . S
O655 C657 1.258 . S
C656 O650 1.247 . S
C656 O651 1.258 . S
C657 O654 1.247 . S
C657 O655 1.258 . S
C658 O660 1.247 . S
C658 O662 1.258 . S
C659 O666 1.247 . S
C659 O667 1.258 . S
O660 C658 1.247 . S
O660 Zn661 2.028 . S
Zn661 O660 2.028 . S
Zn661 O665 2.035 . S
Zn661 O667 2.035 . S
Zn661 O668 2.028 . S
O662 C658 1.258 . S
O662 Zn663 2.035 . S
Zn663 O662 2.035 . S
Zn663 O664 2.028 . S
Zn663 O666 2.028 . S
Zn663 O669 2.035 . S
O664 Zn663 2.028 . S
O664 C670 1.247 . S
O665 Zn661 2.035 . S
O665 C670 1.258 . S
O666 C659 1.247 . S
O666 Zn663 2.028 . S
O667 C659 1.258 . S
O667 Zn661 2.035 . S
O668 Zn661 2.028 . S
O668 C671 1.247 . S
O669 Zn663 2.035 . S
O669 C671 1.258 . S
C670 O664 1.247 . S
C670 O665 1.258 . S
C671 O668 1.247 . S
C671 O669 1.258 . S
C672 O674 1.247 . S
C672 O676 1.258 . S
C673 O680 1.247 . S
C673 O681 1.258 . S
O674 C672 1.247 . S
O674 Zn675 2.028 . S
Zn675 O674 2.028 . S
Zn675 O679 2.035 . S
Zn675 O681 2.035 . S
Zn675 O682 2.028 . S
O676 C672 1.258 . S
O676 Zn677 2.035 . S
Zn677 O676 2.035 . S
Zn677 O678 2.028 . S
Zn677 O680 2.028 . S
Zn677 O683 2.035 . S
O678 Zn677 2.028 . S
O678 C684 1.247 . S
O679 Zn675 2.035 . S
O679 C684 1.258 . S
O680 C673 1.247 . S
O680 Zn677 2.028 . S
O681 C673 1.258 . S
O681 Zn675 2.035 . S
O682 Zn675 2.028 . S
O682 C685 1.247 . S
O683 Zn677 2.035 . S
O683 C685 1.258 . S
C684 O678 1.247 . S
C684 O679 1.258 . S
C685 O682 1.247 . S
C685 O683 1.258 . S
C686 O688 1.247 . S
C686 O690 1.258 . S
C687 O694 1.247 . S
C687 O695 1.258 . S
O688 C686 1.247 . S
O688 Zn689 2.028 . S
Zn689 O688 2.028 . S
Zn689 O693 2.035 . S
Zn689 O695 2.035 . S
Zn689 O696 2.028 . S
O690 C686 1.258 . S
O690 Zn691 2.035 . S
Zn691 O690 2.035 . S
Zn691 O692 2.028 . S
Zn691 O694 2.028 . S
Zn691 O697 2.035 . S
O692 Zn691 2.028 . S
O692 C698 1.247 . S
O693 Zn689 2.035 . S
O693 C698 1.258 . S
O694 C687 1.247 . S
O694 Zn691 2.028 . S
O695 C687 1.258 . S
O695 Zn689 2.035 . S
O696 Zn689 2.028 . S
O696 C699 1.247 . S
O697 Zn691 2.035 . S
O697 C699 1.258 . S
C698 O692 1.247 . S
C698 O693 1.258 . S
C699 O696 1.247 . S
C699 O697 1.258 . S
C700 O702 1.247 . S
C700 O704 1.238 1_455 S
C701 O708 1.247 . S
C701 O709 1.258 . S
O702 C700 1.247 . S
O702 Zn703 2.028 1_455 S
Zn703 O702 2.028 1_655 S
Zn703 O707 2.035 . S
Zn703 O709 2.035 . S
Zn703 O710 2.028 . S
O704 C700 1.238 1_655 S
O704 Zn705 2.067 . S
Zn705 O704 2.067 . S
Zn705 O706 2.028 . S
Zn705 O708 2.028 . S
Zn705 O711 2.035 . S
O706 Zn705 2.028 . S
O706 C712 1.247 . S
O707 Zn703 2.035 . S
O707 C712 1.258 . S
O708 C701 1.247 . S
O708 Zn705 2.028 . S
O709 C701 1.258 . S
O709 Zn703 2.035 . S
O710 Zn703 2.028 . S
O710 C713 1.247 . S
O711 Zn705 2.035 . S
O711 C713 1.258 . S
C712 O706 1.247 . S
C712 O707 1.258 . S
C713 O710 1.247 . S
C713 O711 1.258 . S
C714 O716 1.247 . S
C714 O718 1.258 . S
C715 O722 1.247 . S
C715 O723 1.258 . S
O716 C714 1.247 . S
O716 Zn717 2.028 . S
Zn717 O716 2.028 . S
Zn717 O721 2.035 . S
Zn717 O723 2.035 . S
Zn717 O724 2.028 . S
O718 C714 1.258 . S
O718 Zn719 2.035 . S
Zn719 O718 2.035 . S
Zn719 O720 2.028 . S
Zn719 O722 2.028 . S
Zn719 O725 2.035 . S
O720 Zn719 2.028 . S
O720 C726 1.247 . S
O721 Zn717 2.035 . S
O721 C726 1.258 . S
O722 C715 1.247 . S
O722 Zn719 2.028 . S
O723 C715 1.258 . S
O723 Zn717 2.035 . S
O724 Zn717 2.028 . S
O724 C727 1.247 . S
O725 Zn719 2.035 . S
O725 C727 1.258 . S
C726 O720 1.247 . S
C726 O721 1.258 . S
C727 O724 1.247 . S
C727 O725 1.258 . S
C728 O730 1.247 . S
C728 O732 1.258 . S
C729 O736 1.247 . S
C729 O737 1.258 . S
O730 C728 1.247 . S
O730 Zn731 2.028 . S
Zn731 O730 2.028 . S
Zn731 O735 2.035 . S
Zn731 O737 2.035 . S
Zn731 O738 2.028 . S
O732 C728 1.258 . S
O732 Zn733 2.035 . S
Zn733 O732 2.035 . S
Zn733 O734 2.028 . S
Zn733 O736 2.028 . S
Zn733 O739 2.035 . S
O734 Zn733 2.028 . S
O734 C740 1.247 . S
O735 Zn731 2.035 . S
O735 C740 1.258 . S
O736 C729 1.247 . S
O736 Zn733 2.028 . S
O737 C729 1.258 . S
O737 Zn731 2.035 . S
O738 Zn731 2.028 . S
O738 C741 1.247 . S
O739 Zn733 2.035 . S
O739 C741 1.258 . S
C740 O734 1.247 . S
C740 O735 1.258 . S
C741 O738 1.247 . S
C741 O739 1.258 . S
C742 O744 1.247 . S
C742 O746 1.258 . S
C743 O750 1.247 . S
C743 O751 1.258 . S
O744 C742 1.247 . S
O744 Zn745 2.028 . S
Zn745 O744 2.028 . S
Zn745 O749 2.035 . S
Zn745 O751 2.035 . S
Zn745 O752 2.028 . S
O746 C742 1.258 . S
O746 Zn747 2.035 . S
Zn747 O746 2.035 . S
Zn747 O748 2.028 . S
Zn747 O750 2.028 . S
Zn747 O753 2.035 . S
O748 Zn747 2.028 . S
O748 C754 1.247 . S
O749 Zn745 2.035 . S
O749 C754 1.258 . S
O750 C743 1.247 . S
O750 Zn747 2.028 . S
O751 C743 1.258 . S
O751 Zn745 2.035 . S
O752 Zn745 2.028 . S
O752 C755 1.247 . S
O753 Zn747 2.035 . S
O753 C755 1.258 . S
C754 O748 1.247 . S
C754 O749 1.258 . S
C755 O752 1.247 . S
C755 O753 1.258 . S
C756 O758 1.247 . S
C756 O760 1.258 . S
C757 O764 1.228 1_455 S
C757 O765 1.258 . S
O758 C756 1.247 . S
O758 Zn759 2.028 . S
Zn759 O758 2.028 . S
Zn759 O763 2.035 . S
Zn759 O765 2.035 1_655 S
Zn759 O766 2.028 . S
O760 C756 1.258 . S
O760 Zn761 2.035 . S
Zn761 O760 2.035 . S
Zn761 O762 2.028 . S
Zn761 O764 2.057 . S
Zn761 O767 2.035 . S
O762 Zn761 2.028 . S
O762 C768 1.247 . S
O763 Zn759 2.035 . S
O763 C768 1.258 . S
O764 C757 1.228 1_655 S
O764 Zn761 2.057 . S
O765 C757 1.258 . S
O765 Zn759 2.035 1_455 S
O766 Zn759 2.028 . S
O766 C769 1.247 . S
O767 Zn761 2.035 . S
O767 C769 1.258 . S
C768 O762 1.247 . S
C768 O763 1.258 . S
C769 O766 1.247 . S
C769 O767 1.258 . S
C770 O772 1.247 . S
C770 O774 1.258 . S
C771 O778 1.247 . S
C771 O779 1.258 . S
O772 C770 1.247 . S
O772 Zn773 2.028 . S
Zn773 O772 2.028 . S
Zn773 O777 2.035 . S
Zn773 O779 2.035 . S
Zn773 O780 2.028 . S
O774 C770 1.258 . S
O774 Zn775 2.035 . S
Zn775 O774 2.035 . S
Zn775 O776 2.028 . S
Zn775 O778 2.028 . S
Zn775 O781 2.035 . S
O776 Zn775 2.028 . S
O776 C782 1.247 . S
O777 Zn773 2.035 . S
O777 C782 1.258 . S
O778 C771 1.247 . S
O778 Zn775 2.028 . S
O779 C771 1.258 . S
O779 Zn773 2.035 . S
O780 Zn773 2.028 . S
O780 C783 1.247 . S
O781 Zn775 2.035 . S
O781 C783 1.258 . S
C782 O776 1.247 . S
C782 O777 1.258 . S
C783 O780 1.247 . S
C783 O781 1.258 . S
C784 O786 1.247 . S
C784 O788 1.258 . S
C785 O792 1.247 . S
C785 O793 1.258 . S
O786 C784 1.247 . S
O786 Zn787 2.028 . S
Zn787 O786 2.028 . S
Zn787 O791 2.035 . S
Zn787 O793 2.035 . S
Zn787 O794 2.028 . S
O788 C784 1.258 . S
O788 Zn789 2.035 . S
Zn789 O788 2.035 . S
Zn789 O790 2.028 . S
Zn789 O792 2.028 . S
Zn789 O795 2.035 . S
O790 Zn789 2.028 . S
O790 C796 1.247 . S
O791 Zn787 2.035 . S
O791 C796 1.258 . S
O792 C785 1.247 . S
O792 Zn789 2.028 . S
O793 C785 1.258 . S
O793 Zn787 2.035 . S
O794 Zn787 2.028 . S
O794 C797 1.247 . S
O795 Zn789 2.035 . S
O795 C797 1.258 . S
C796 O790 1.247 . S
C796 O791 1.258 . S
C797 O794 1.247 . S
C797 O795 1.258 . S
C798 O800 1.247 . S
C798 O802 1.258 . S
C799 O806 1.247 . S
C799 O807 1.258 . S
O800 C798 1.247 . S
O800 Zn801 2.028 . S
Zn801 O800 2.028 . S
Zn801 O805 2.035 . S
Zn801 O807 2.035 . S
Zn801 O808 2.028 . S
O802 C798 1.258 . S
O802 Zn803 2.035 . S
Zn803 O802 2.035 . S
Zn803 O804 2.028 . S
Zn803 O806 2.028 . S
Zn803 O809 2.035 . S
O804 Zn803 2.028 . S
O804 C810 1.247 . S
O805 Zn801 2.035 . S
O805 C810 1.258 . S
O806 C799 1.247 . S
O806 Zn803 2.028 . S
O807 C799 1.258 . S
O807 Zn801 2.035 . S
O808 Zn801 2.028 . S
O808 C811 1.247 . S
O809 Zn803 2.035 . S
O809 C811 1.258 . S
C810 O804 1.247 . S
C810 O805 1.258 . S
C811 O808 1.247 . S
C811 O809 1.258 . S
C812 O814 1.247 . S
C812 O816 1.258 . S
C813 O820 1.247 . S
C813 O821 1.258 . S
O814 C812 1.247 . S
O814 Zn815 2.028 . S
Zn815 O814 2.028 . S
Zn815 O819 2.035 . S
Zn815 O821 2.035 . S
Zn815 O822 2.028 . S
O816 C812 1.258 . S
O816 Zn817 2.035 . S
Zn817 O816 2.035 . S
Zn817 O818 2.028 . S
Zn817 O820 2.028 . S
Zn817 O823 2.035 . S
O818 Zn817 2.028 . S
O818 C824 1.247 . S
O819 Zn815 2.035 . S
O819 C824 1.258 . S
O820 C813 1.247 . S
O820 Zn817 2.028 . S
O821 C813 1.258 . S
O821 Zn815 2.035 . S
O822 Zn815 2.028 . S
O822 C825 1.247 . S
O823 Zn817 2.035 . S
O823 C825 1.258 . S
C824 O818 1.247 . S
C824 O819 1.258 . S
C825 O822 1.247 . S
C825 O823 1.258 . S
C826 O828 1.247 . S
C826 O830 1.258 . S
C827 O834 1.247 . S
C827 O835 1.258 . S
O828 C826 1.247 . S
O828 Zn829 2.028 . S
Zn829 O828 2.028 . S
Zn829 O833 2.035 . S
Zn829 O835 2.035 . S
Zn829 O836 2.028 . S
O830 C826 1.258 . S
O830 Zn831 2.035 . S
Zn831 O830 2.035 . S
Zn831 O832 2.028 . S
Zn831 O834 2.028 . S
Zn831 O837 2.035 . S
O832 Zn831 2.028 . S
O832 C838 1.247 . S
O833 Zn829 2.035 . S
O833 C838 1.258 . S
O834 C827 1.247 . S
O834 Zn831 2.028 . S
O835 C827 1.258 . S
O835 Zn829 2.035 . S
O836 Zn829 2.028 . S
O836 C839 1.247 . S
O837 Zn831 2.035 . S
O837 C839 1.258 . S
C838 O832 1.247 . S
C838 O833 1.258 . S
C839 O836 1.247 . S
C839 O837 1.258 . S
C840 O842 1.247 . S
C840 O844 1.258 . S
C841 O848 1.247 . S
C841 O849 1.258 . S
O842 C840 1.247 . S
O842 Zn843 2.028 . S
Zn843 O842 2.028 . S
Zn843 O847 2.035 . S
Zn843 O849 2.035 . S
Zn843 O850 2.028 . S
O844 C840 1.258 . S
O844 Zn845 2.035 . S
Zn845 O844 2.035 . S
Zn845 O846 2.028 . S
Zn845 O848 2.028 . S
Zn845 O851 2.035 . S
O846 Zn845 2.028 . S
O846 C852 1.247 . S
O847 Zn843 2.035 . S
O847 C852 1.258 . S
O848 C841 1.247 . S
O848 Zn845 2.028 . S
O849 C841 1.258 . S
O849 Zn843 2.035 . S
O850 Zn843 2.028 . S
O850 C853 1.247 . S
O851 Zn845 2.035 . S
O851 C853 1.258 . S
C852 O846 1.247 . S
C852 O847 1.258 . S
C853 O850 1.247 . S
C853 O851 1.258 . S
C854 O856 1.247 . S
C854 O858 1.258 . S
C855 O862 1.247 . S
C855 O863 1.258 . S
O856 C854 1.247 . S
O856 Zn857 2.028 . S
Zn857 O856 2.028 . S
Zn857 O861 2.035 . S
Zn857 O863 2.035 . S
Zn857 O864 2.028 . S
O858 C854 1.258 . S
O858 Zn859 2.035 . S
Zn859 O858 2.035 . S
Zn859 O860 2.028 . S
Zn859 O862 2.028 . S
Zn859 O865 2.035 . S
O860 Zn859 2.028 . S
O860 C866 1.247 . S
O861 Zn857 2.035 . S
O861 C866 1.258 . S
O862 C855 1.247 . S
O862 Zn859 2.028 . S
O863 C855 1.258 . S
O863 Zn857 2.035 . S
O864 Zn857 2.028 . S
O864 C867 1.247 . S
O865 Zn859 2.035 . S
O865 C867 1.258 . S
C866 O860 1.247 . S
C866 O861 1.258 . S
C867 O864 1.247 . S
C867 O865 1.258 . S
C868 O870 1.247 . S
C868 O872 1.258 . S
C869 O876 1.247 . S
C869 O877 1.258 . S
O870 C868 1.247 . S
O870 Zn871 2.028 . S
Zn871 O870 2.028 . S
Zn871 O875 2.035 . S
Zn871 O877 2.035 . S
Zn871 O878 2.028 . S
O872 C868 1.258 . S
O872 Zn873 2.035 . S
Zn873 O872 2.035 . S
Zn873 O874 2.028 . S
Zn873 O876 2.028 . S
Zn873 O879 2.035 . S
O874 Zn873 2.028 . S
O874 C880 1.247 . S
O875 Zn871 2.035 . S
O875 C880 1.258 . S
O876 C869 1.247 . S
O876 Zn873 2.028 . S
O877 C869 1.258 . S
O877 Zn871 2.035 . S
O878 Zn871 2.028 . S
O878 C881 1.247 . S
O879 Zn873 2.035 . S
O879 C881 1.258 . S
C880 O874 1.247 . S
C880 O875 1.258 . S
C881 O878 1.247 . S
C881 O879 1.258 . S
C882 O884 1.247 . S
C882 O886 1.258 . S
C883 O890 1.247 . S
C883 O891 1.258 . S
O884 C882 1.247 . S
O884 Zn885 2.028 . S
Zn885 O884 2.028 . S
Zn885 O889 2.035 . S
Zn885 O891 2.035 . S
Zn885 O892 2.028 . S
O886 C882 1.258 . S
O886 Zn887 2.035 . S
Zn887 O886 2.035 . S
Zn887 O888 2.028 . S
Zn887 O890 2.028 . S
Zn887 O893 2.035 . S
O888 Zn887 2.028 . S
O888 C894 1.247 . S
O889 Zn885 2.035 . S
O889 C894 1.258 . S
O890 C883 1.247 . S
O890 Zn887 2.028 . S
O891 C883 1.258 . S
O891 Zn885 2.035 . S
O892 Zn885 2.028 . S
O892 C895 1.247 . S
O893 Zn887 2.035 . S
O893 C895 1.258 . S
C894 O888 1.247 . S
C894 O889 1.258 . S
C895 O892 1.247 . S
C895 O893 1.258 . S
C896 O898 1.247 . S
C896 O900 1.258 . S
C897 O904 1.247 . S
C897 O905 1.258 . S
O898 C896 1.247 . S
O898 Zn899 2.028 . S
Zn899 O898 2.028 . S
Zn899 O903 2.035 . S
Zn899 O905 2.035 . S
Zn899 O906 2.028 . S
O900 C896 1.258 . S
O900 Zn901 2.035 . S
Zn901 O900 2.035 . S
Zn901 O902 2.028 . S
Zn901 O904 2.028 . S
Zn901 O907 2.035 . S
O902 Zn901 2.028 . S
O902 C908 1.247 . S
O903 Zn899 2.035 . S
O903 C908 1.258 . S
O904 C897 1.247 . S
O904 Zn901 2.028 . S
O905 C897 1.258 . S
O905 Zn899 2.035 . S
O906 Zn899 2.028 . S
O906 C909 1.247 . S
O907 Zn901 2.035 . S
O907 C909 1.258 . S
C908 O902 1.247 . S
C908 O903 1.258 . S
C909 O906 1.247 . S
C909 O907 1.258 . S
C910 O912 1.247 . S
C910 O914 1.258 . S
C911 O918 1.247 . S
C911 O919 1.258 . S
O912 C910 1.247 . S
O912 Zn913 2.028 . S
Zn913 O912 2.028 . S
Zn913 O917 2.035 . S
Zn913 O919 2.035 . S
Zn913 O920 2.028 . S
O914 C910 1.258 . S
O914 Zn915 2.035 . S
Zn915 O914 2.035 . S
Zn915 O916 2.028 . S
Zn915 O918 2.028 . S
Zn915 O921 2.035 . S
O916 Zn915 2.028 . S
O916 C922 1.247 . S
O917 Zn913 2.035 . S
O917 C922 1.258 . S
O918 C911 1.247 . S
O918 Zn915 2.028 . S
O919 C911 1.258 . S
O919 Zn913 2.035 . S
O920 Zn913 2.028 . S
O920 C923 1.247 . S
O921 Zn915 2.035 . S
O921 C923 1.258 . S
C922 O916 1.247 . S
C922 O917 1.258 . S
C923 O920 1.247 . S
C923 O921 1.258 . S
C924 O926 1.247 . S
C924 O928 1.258 . S
C925 O932 1.247 . S
C925 O933 1.258 . S
O926 C924 1.247 . S
O926 Zn927 2.028 . S
Zn927 O926 2.028 . S
Zn927 O931 2.035 . S
Zn927 O933 2.035 . S
Zn927 O934 2.028 . S
O928 C924 1.258 . S
O928 Zn929 2.035 . S
Zn929 O928 2.035 . S
Zn929 O930 2.028 . S
Zn929 O932 2.028 . S
Zn929 O935 2.035 . S
O930 Zn929 2.028 . S
O930 C936 1.247 . S
O931 Zn927 2.035 . S
O931 C936 1.258 . S
O932 C925 1.247 . S
O932 Zn929 2.028 . S
O933 C925 1.258 . S
O933 Zn927 2.035 . S
O934 Zn927 2.028 . S
O934 C937 1.247 . S
O935 Zn929 2.035 . S
O935 C937 1.258 . S
C936 O930 1.247 . S
C936 O931 1.258 . S
C937 O934 1.247 . S
C937 O935 1.258 . S
C938 O940 1.247 . S
C938 O942 1.238 1_554 S
C939 O946 1.247 . S
C939 O947 1.258 . S
O940 C938 1.247 . S
O940 Zn941 2.028 1_554 S
Zn941 O940 2.028 1_556 S
Zn941 O945 2.035 . S
Zn941 O947 2.035 . S
Zn941 O948 2.028 . S
O942 C938 1.238 1_556 S
O942 Zn943 2.067 . S
Zn943 O942 2.067 . S
Zn943 O944 2.028 . S
Zn943 O946 2.028 . S
Zn943 O949 2.035 . S
O944 Zn943 2.028 . S
O944 C950 1.247 . S
O945 Zn941 2.035 . S
O945 C950 1.258 . S
O946 C939 1.247 . S
O946 Zn943 2.028 . S
O947 C939 1.258 . S
O947 Zn941 2.035 . S
O948 Zn941 2.028 . S
O948 C951 1.247 . S
O949 Zn943 2.035 . S
O949 C951 1.258 . S
C950 O944 1.247 . S
C950 O945 1.258 . S
C951 O948 1.247 . S
C951 O949 1.258 . S
C952 O954 1.247 . S
C952 O956 1.258 . S
C953 O960 1.247 . S
C953 O961 1.258 . S
O954 C952 1.247 . S
O954 Zn955 2.028 . S
Zn955 O954 2.028 . S
Zn955 O959 2.035 . S
Zn955 O961 2.035 . S
Zn955 O962 2.028 . S
O956 C952 1.258 . S
O956 Zn957 2.035 . S
Zn957 O956 2.035 . S
Zn957 O958 2.028 . S
Zn957 O960 2.028 . S
Zn957 O963 2.035 . S
O958 Zn957 2.028 . S
O958 C964 1.247 . S
O959 Zn955 2.035 . S
O959 C964 1.258 . S
O960 C953 1.247 . S
O960 Zn957 2.028 . S
O961 C953 1.258 . S
O961 Zn955 2.035 . S
O962 Zn955 2.028 . S
O962 C965 1.247 . S
O963 Zn957 2.035 . S
O963 C965 1.258 . S
C964 O958 1.247 . S
C964 O959 1.258 . S
C965 O962 1.247 . S
C965 O963 1.258 . S
C966 O968 1.247 . S
C966 O970 1.258 . S
C967 O974 1.247 . S
C967 O975 1.258 . S
O968 C966 1.247 . S
O968 Zn969 2.028 . S
Zn969 O968 2.028 . S
Zn969 O973 2.035 . S
Zn969 O975 2.035 . S
Zn969 O976 2.057 . S
O970 C966 1.258 . S
O970 Zn971 2.035 . S
Zn971 O970 2.035 . S
Zn971 O972 2.028 . S
Zn971 O974 2.028 . S
Zn971 O977 2.035 1_554 S
O972 Zn971 2.028 . S
O972 C978 1.247 . S
O973 Zn969 2.035 . S
O973 C978 1.258 . S
O974 C967 1.247 . S
O974 Zn971 2.028 . S
O975 C967 1.258 . S
O975 Zn969 2.035 . S
O976 Zn969 2.057 . S
O976 C979 1.228 1_554 S
O977 Zn971 2.035 1_556 S
O977 C979 1.258 . S
C978 O972 1.247 . S
C978 O973 1.258 . S
C979 O976 1.228 1_556 S
C979 O977 1.258 . S
C980 O982 1.247 . S
C980 O984 1.258 . S
C981 O988 1.247 . S
C981 O989 1.258 . S
O982 C980 1.247 . S
O982 Zn983 2.028 . S
Zn983 O982 2.028 . S
Zn983 O987 2.035 . S
Zn983 O989 2.035 . S
Zn983 O990 2.028 . S
O984 C980 1.258 . S
O984 Zn985 2.035 . S
Zn985 O984 2.035 . S
Zn985 O986 2.028 . S
Zn985 O988 2.028 . S
Zn985 O991 2.035 . S
O986 Zn985 2.028 . S
O986 C992 1.247 . S
O987 Zn983 2.035 . S
O987 C992 1.258 . S
O988 C981 1.247 . S
O988 Zn985 2.028 . S
O989 C981 1.258 . S
O989 Zn983 2.035 . S
O990 Zn983 2.028 . S
O990 C993 1.247 . S
O991 Zn985 2.035 . S
O991 C993 1.258 . S
C992 O986 1.247 . S
C992 O987 1.258 . S
C993 O990 1.247 . S
C993 O991 1.258 . S
C994 O996 1.247 . S
C994 O998 1.258 . S
C995 O1002 1.247 . S
C995 O1003 1.258 . S
O996 C994 1.247 . S
O996 Zn997 2.028 . S
Zn997 O996 2.028 . S
Zn997 O1001 2.035 . S
Zn997 O1003 2.035 . S
Zn997 O1004 2.028 . S
O998 C994 1.258 . S
O998 Zn999 2.035 . S
Zn999 O998 2.035 . S
Zn999 O1000 2.028 . S
Zn999 O1002 2.028 . S
Zn999 O1005 2.035 . S
O1000 Zn999 2.028 . S
O1000 C1006 1.247 . S
O1001 Zn997 2.035 . S
O1001 C1006 1.258 . S
O1002 C995 1.247 . S
O1002 Zn999 2.028 . S
O1003 C995 1.258 . S
O1003 Zn997 2.035 . S
O1004 Zn997 2.028 . S
O1004 C1007 1.247 . S
O1005 Zn999 2.035 . S
O1005 C1007 1.258 . S
C1006 O1000 1.247 . S
C1006 O1001 1.258 . S
C1007 O1004 1.247 . S
C1007 O1005 1.258 . S
C1008 O1010 1.247 . S
C1008 O1012 1.258 . S
C1009 O1016 1.247 . S
C1009 O1017 1.258 . S
O1010 C1008 1.247 . S
O1010 Zn1011 2.028 . S
Zn1011 O1010 2.028 . S
Zn1011 O1015 2.035 . S
Zn1011 O1017 2.035 . S
Zn1011 O1018 2.028 . S
O1012 C1008 1.258 . S
O1012 Zn1013 2.035 . S
Zn1013 O1012 2.035 . S
Zn1013 O1014 2.028 . S
Zn1013 O1016 2.028 . S
Zn1013 O1019 2.035 . S
O1014 Zn1013 2.028 . S
O1014 C1020 1.247 . S
O1015 Zn1011 2.035 . S
O1015 C1020 1.258 . S
O1016 C1009 1.247 . S
O1016 Zn1013 2.028 . S
O1017 C1009 1.258 . S
O1017 Zn1011 2.035 . S
O1018 Zn1011 2.028 . S
O1018 C1021 1.247 . S
O1019 Zn1013 2.035 . S
O1019 C1021 1.258 . S
C1020 O1014 1.247 . S
C1020 O1015 1.258 . S
C1021 O1018 1.247 . S
C1021 O1019 1.258 . S
C1022 O1024 1.247 . S
C1022 O1026 1.258 . S
C1023 O1030 1.247 . S
C1023 O1031 1.258 . S
O1024 C1022 1.247 . S
O1024 Zn1025 2.028 . S
Zn1025 O1024 2.028 . S
Zn1025 O1029 2.035 . S
Zn1025 O1031 2.035 . S
Zn1025 O1032 2.028 . S
O1026 C1022 1.258 . S
O1026 Zn1027 2.035 . S
Zn1027 O1026 2.035 . S
Zn1027 O1028 2.028 . S
Zn1027 O1030 2.028 . S
Zn1027 O1033 2.035 . S
O1028 Zn1027 2.028 . S
O1028 C1034 1.247 . S
O1029 Zn1025 2.035 . S
O1029 C1034 1.258 . S
O1030 C1023 1.247 . S
O1030 Zn1027 2.028 . S
O1031 C1023 1.258 . S
O1031 Zn1025 2.035 . S
O1032 Zn1025 2.028 . S
O1032 C1035 1.247 . S
O1033 Zn1027 2.035 . S
O1033 C1035 1.258 . S
C1034 O1028 1.247 . S
C1034 O1029 1.258 . S
C1035 O1032 1.247 . S
C1035 O1033 1.258 . S
C1036 O1038 1.247 . S
C1036 O1040 1.258 . S
C1037 O1044 1.247 . S
C1037 O1045 1.238 1_655 S
O1038 C1036 1.247 . S
O1038 Zn1039 2.028 . S
Zn1039 O1038 2.028 . S
Zn1039 O1043 2.035 . S
Zn1039 O1045 2.067 . S
Zn1039 O1046 2.028 . S
O1040 C1036 1.258 . S
O1040 Zn1041 2.035 . S
Zn1041 O1040 2.035 . S
Zn1041 O1042 2.028 . S
Zn1041 O1044 2.028 1_455 S
Zn1041 O1047 2.035 . S
O1042 Zn1041 2.028 . S
O1042 C1048 1.247 . S
O1043 Zn1039 2.035 . S
O1043 C1048 1.258 . S
O1044 C1037 1.247 . S
O1044 Zn1041 2.028 1_655 S
O1045 C1037 1.238 1_455 S
O1045 Zn1039 2.067 . S
O1046 Zn1039 2.028 . S
O1046 C1049 1.247 . S
O1047 Zn1041 2.035 . S
O1047 C1049 1.258 . S
C1048 O1042 1.247 . S
C1048 O1043 1.258 . S
C1049 O1046 1.247 . S
C1049 O1047 1.258 . S
C1050 O1052 1.247 . S
C1050 O1054 1.258 . S
C1051 O1058 1.247 . S
C1051 O1059 1.258 . S
O1052 C1050 1.247 . S
O1052 Zn1053 2.028 . S
Zn1053 O1052 2.028 . S
Zn1053 O1057 2.035 . S
Zn1053 O1059 2.035 . S
Zn1053 O1060 2.028 . S
O1054 C1050 1.258 . S
O1054 Zn1055 2.035 . S
Zn1055 O1054 2.035 . S
Zn1055 O1056 2.028 . S
Zn1055 O1058 2.028 . S
Zn1055 O1061 2.035 . S
O1056 Zn1055 2.028 . S
O1056 C1062 1.247 . S
O1057 Zn1053 2.035 . S
O1057 C1062 1.258 . S
O1058 C1051 1.247 . S
O1058 Zn1055 2.028 . S
O1059 C1051 1.258 . S
O1059 Zn1053 2.035 . S
O1060 Zn1053 2.028 . S
O1060 C1063 1.247 . S
O1061 Zn1055 2.035 . S
O1061 C1063 1.258 . S
C1062 O1056 1.247 . S
C1062 O1057 1.258 . S
C1063 O1060 1.247 . S
C1063 O1061 1.258 . S
C1064 O1066 1.247 . S
C1064 O1068 1.258 . S
C1065 O1072 1.247 . S
C1065 O1073 1.258 . S
O1066 C1064 1.247 . S
O1066 Zn1067 2.028 . S
Zn1067 O1066 2.028 . S
Zn1067 O1071 2.035 . S
Zn1067 O1073 2.035 . S
Zn1067 O1074 2.028 . S
O1068 C1064 1.258 . S
O1068 Zn1069 2.035 . S
Zn1069 O1068 2.035 . S
Zn1069 O1070 2.028 . S
Zn1069 O1072 2.028 . S
Zn1069 O1075 2.035 . S
O1070 Zn1069 2.028 . S
O1070 C1076 1.247 . S
O1071 Zn1067 2.035 . S
O1071 C1076 1.258 . S
O1072 C1065 1.247 . S
O1072 Zn1069 2.028 . S
O1073 C1065 1.258 . S
O1073 Zn1067 2.035 . S
O1074 Zn1067 2.028 . S
O1074 C1077 1.247 . S
O1075 Zn1069 2.035 . S
O1075 C1077 1.258 . S
C1076 O1070 1.247 . S
C1076 O1071 1.258 . S
C1077 O1074 1.247 . S
C1077 O1075 1.258 . S
C1078 O1080 1.247 . S
C1078 O1082 1.258 . S
C1079 O1086 1.247 . S
C1079 O1087 1.258 . S
O1080 C1078 1.247 . S
O1080 Zn1081 2.028 . S
Zn1081 O1080 2.028 . S
Zn1081 O1085 2.035 . S
Zn1081 O1087 2.035 . S
Zn1081 O1088 2.028 . S
O1082 C1078 1.258 . S
O1082 Zn1083 2.035 . S
Zn1083 O1082 2.035 . S
Zn1083 O1084 2.028 . S
Zn1083 O1086 2.028 . S
Zn1083 O1089 2.035 . S
O1084 Zn1083 2.028 . S
O1084 C1090 1.247 . S
O1085 Zn1081 2.035 . S
O1085 C1090 1.258 . S
O1086 C1079 1.247 . S
O1086 Zn1083 2.028 . S
O1087 C1079 1.258 . S
O1087 Zn1081 2.035 . S
O1088 Zn1081 2.028 . S
O1088 C1091 1.247 . S
O1089 Zn1083 2.035 . S
O1089 C1091 1.258 . S
C1090 O1084 1.247 . S
C1090 O1085 1.258 . S
C1091 O1088 1.247 . S
C1091 O1089 1.258 . S
C1092 O1094 1.247 . S
C1092 O1096 1.258 . S
C1093 O1100 1.247 . S
C1093 O1101 1.238 1_655 S
O1094 C1092 1.247 . S
O1094 Zn1095 2.028 . S
Zn1095 O1094 2.028 . S
Zn1095 O1099 2.035 . S
Zn1095 O1101 2.067 . S
Zn1095 O1102 2.028 . S
O1096 C1092 1.258 . S
O1096 Zn1097 2.035 . S
Zn1097 O1096 2.035 . S
Zn1097 O1098 2.028 . S
Zn1097 O1100 2.028 1_455 S
Zn1097 O1103 2.035 . S
O1098 Zn1097 2.028 . S
O1098 C1104 1.247 . S
O1099 Zn1095 2.035 . S
O1099 C1104 1.258 . S
O1100 C1093 1.247 . S
O1100 Zn1097 2.028 1_655 S
O1101 C1093 1.238 1_455 S
O1101 Zn1095 2.067 . S
O1102 Zn1095 2.028 . S
O1102 C1105 1.247 . S
O1103 Zn1097 2.035 . S
O1103 C1105 1.258 . S
C1104 O1098 1.247 . S
C1104 O1099 1.258 . S
C1105 O1102 1.247 . S
C1105 O1103 1.258 . S
C1106 O1108 1.247 . S
C1106 O1110 1.258 . S
C1107 O1114 1.247 . S
C1107 O1115 1.258 . S
O1108 C1106 1.247 . S
O1108 Zn1109 2.028 . S
Zn1109 O1108 2.028 . S
Zn1109 O1113 2.035 . S
Zn1109 O1115 2.035 . S
Zn1109 O1116 2.028 . S
O1110 C1106 1.258 . S
O1110 Zn1111 2.035 . S
Zn1111 O1110 2.035 . S
Zn1111 O1112 2.028 . S
Zn1111 O1114 2.028 . S
Zn1111 O1117 2.035 . S
O1112 Zn1111 2.028 . S
O1112 C1118 1.247 . S
O1113 Zn1109 2.035 . S
O1113 C1118 1.258 . S
O1114 C1107 1.247 . S
O1114 Zn1111 2.028 . S
O1115 C1107 1.258 . S
O1115 Zn1109 2.035 . S
O1116 Zn1109 2.028 . S
O1116 C1119 1.247 . S
O1117 Zn1111 2.035 . S
O1117 C1119 1.258 . S
C1118 O1112 1.247 . S
C1118 O1113 1.258 . S
C1119 O1116 1.247 . S
C1119 O1117 1.258 . S
C1120 O1122 1.247 . S
C1120 O1124 1.258 . S
C1121 O1128 1.247 . S
C1121 O1129 1.258 . S
O1122 C1120 1.247 . S
O1122 Zn1123 2.028 . S
Zn1123 O1122 2.028 . S
Zn1123 O1127 2.035 . S
Zn1123 O1129 2.035 . S
Zn1123 O1130 2.028 . S
O1124 C1120 1.258 . S
O1124 Zn1125 2.035 . S
Zn1125 O1124 2.035 . S
Zn1125 O1126 2.028 . S
Zn1125 O1128 2.028 . S
Zn1125 O1131 2.035 . S
O1126 Zn1125 2.028 . S
O1126 C1132 1.247 . S
O1127 Zn1123 2.035 . S
O1127 C1132 1.258 . S
O1128 C1121 1.247 . S
O1128 Zn1125 2.028 . S
O1129 C1121 1.258 . S
O1129 Zn1123 2.035 . S
O1130 Zn1123 2.028 . S
O1130 C1133 1.247 . S
O1131 Zn1125 2.035 . S
O1131 C1133 1.258 . S
C1132 O1126 1.247 . S
C1132 O1127 1.258 . S
C1133 O1130 1.247 . S
C1133 O1131 1.258 . S
C1134 O1136 1.247 . S
C1134 O1138 1.258 . S
C1135 O1142 1.247 . S
C1135 O1143 1.258 . S
O1136 C1134 1.247 . S
O1136 Zn1137 2.028 . S
Zn1137 O1136 2.028 . S
Zn1137 O1141 2.035 . S
Zn1137 O1143 2.035 . S
Zn1137 O1144 2.028 . S
O1138 C1134 1.258 . S
O1138 Zn1139 2.035 . S
Zn1139 O1138 2.035 . S
Zn1139 O1140 2.028 . S
Zn1139 O1142 2.028 . S
Zn1139 O1145 2.035 . S
O1140 Zn1139 2.028 . S
O1140 C1146 1.247 . S
O1141 Zn1137 2.035 . S
O1141 C1146 1.258 . S
O1142 C1135 1.247 . S
O1142 Zn1139 2.028 . S
O1143 C1135 1.258 . S
O1143 Zn1137 2.035 . S
O1144 Zn1137 2.028 . S
O1144 C1147 1.247 . S
O1145 Zn1139 2.035 . S
O1145 C1147 1.258 . S
C1146 O1140 1.247 . S
C1146 O1141 1.258 . S
C1147 O1144 1.247 . S
C1147 O1145 1.258 . S
C1148 O1150 1.247 . S
C1148 O1152 1.258 . S
C1149 O1156 1.247 . S
C1149 O1157 1.258 . S
O1150 C1148 1.247 . S
O1150 Zn1151 2.028 . S
Zn1151 O1150 2.028 . S
Zn1151 O1155 2.035 . S
Zn1151 O1157 2.035 . S
Zn1151 O1158 2.028 . S
O1152 C1148 1.258 . S
O1152 Zn1153 2.035 . S
Zn1153 O1152 2.035 . S
Zn1153 O1154 2.028 . S
Zn1153 O1156 2.028 . S
Zn1153 O1159 2.035 . S
O1154 Zn1153 2.028 . S
O1154 C1160 1.247 . S
O1155 Zn1151 2.035 . S
O1155 C1160 1.258 . S
O1156 C1149 1.247 . S
O1156 Zn1153 2.028 . S
O1157 C1149 1.258 . S
O1157 Zn1151 2.035 . S
O1158 Zn1151 2.028 . S
O1158 C1161 1.247 . S
O1159 Zn1153 2.035 . S
O1159 C1161 1.258 . S
C1160 O1154 1.247 . S
C1160 O1155 1.258 . S
C1161 O1158 1.247 . S
C1161 O1159 1.258 . S
C1162 O1164 1.247 . S
C1162 O1166 1.258 . S
C1163 O1170 1.247 . S
C1163 O1171 1.258 . S
O1164 C1162 1.247 . S
O1164 Zn1165 2.028 . S
Zn1165 O1164 2.028 . S
Zn1165 O1169 2.035 . S
Zn1165 O1171 2.035 . S
Zn1165 O1172 2.028 . S
O1166 C1162 1.258 . S
O1166 Zn1167 2.035 . S
Zn1167 O1166 2.035 . S
Zn1167 O1168 2.028 . S
Zn1167 O1170 2.028 . S
Zn1167 O1173 2.035 . S
O1168 Zn1167 2.028 . S
O1168 C1174 1.247 . S
O1169 Zn1165 2.035 . S
O1169 C1174 1.258 . S
O1170 C1163 1.247 . S
O1170 Zn1167 2.028 . S
O1171 C1163 1.258 . S
O1171 Zn1165 2.035 . S
O1172 Zn1165 2.028 . S
O1172 C1175 1.247 . S
O1173 Zn1167 2.035 . S
O1173 C1175 1.258 . S
C1174 O1168 1.247 . S
C1174 O1169 1.258 . S
C1175 O1172 1.247 . S
C1175 O1173 1.258 . S
C1176 O1178 1.247 . S
C1176 O1180 1.258 . S
C1177 O1184 1.247 . S
C1177 O1185 1.258 . S
O1178 C1176 1.247 . S
O1178 Zn1179 2.028 . S
Zn1179 O1178 2.028 . S
Zn1179 O1183 2.035 . S
Zn1179 O1185 2.035 . S
Zn1179 O1186 2.028 . S
O1180 C1176 1.258 . S
O1180 Zn1181 2.035 . S
Zn1181 O1180 2.035 . S
Zn1181 O1182 2.028 . S
Zn1181 O1184 2.028 . S
Zn1181 O1187 2.035 . S
O1182 Zn1181 2.028 . S
O1182 C1188 1.247 . S
O1183 Zn1179 2.035 . S
O1183 C1188 1.258 . S
O1184 C1177 1.247 . S
O1184 Zn1181 2.028 . S
O1185 C1177 1.258 . S
O1185 Zn1179 2.035 . S
O1186 Zn1179 2.028 . S
O1186 C1189 1.247 . S
O1187 Zn1181 2.035 . S
O1187 C1189 1.258 . S
C1188 O1182 1.247 . S
C1188 O1183 1.258 . S
C1189 O1186 1.247 . S
C1189 O1187 1.258 . S
C1190 O1192 1.247 . S
C1190 O1194 1.258 . S
C1191 O1198 1.247 . S
C1191 O1199 1.258 . S
O1192 C1190 1.247 . S
O1192 Zn1193 2.028 . S
Zn1193 O1192 2.028 . S
Zn1193 O1197 2.035 . S
Zn1193 O1199 2.035 . S
Zn1193 O1200 2.028 . S
O1194 C1190 1.258 . S
O1194 Zn1195 2.035 . S
Zn1195 O1194 2.035 . S
Zn1195 O1196 2.028 . S
Zn1195 O1198 2.028 . S
Zn1195 O1201 2.035 . S
O1196 Zn1195 2.028 . S
O1196 C1202 1.247 . S
O1197 Zn1193 2.035 . S
O1197 C1202 1.258 . S
O1198 C1191 1.247 . S
O1198 Zn1195 2.028 . S
O1199 C1191 1.258 . S
O1199 Zn1193 2.035 . S
O1200 Zn1193 2.028 . S
O1200 C1203 1.247 . S
O1201 Zn1195 2.035 . S
O1201 C1203 1.258 . S
C1202 O1196 1.247 . S
C1202 O1197 1.258 . S
C1203 O1200 1.247 . S
C1203 O1201 1.258 . S
C1204 O1206 1.247 . S
C1204 O1208 1.258 . S
C1205 O1212 1.247 . S
C1205 O1213 1.258 . S
O1206 C1204 1.247 . S
O1206 Zn1207 2.028 . S
Zn1207 O1206 2.028 . S
Zn1207 O1211 2.035 . S
Zn1207 O1213 2.035 . S
Zn1207 O1214 2.028 . S
O1208 C1204 1.258 . S
O1208 Zn1209 2.035 . S
Zn1209 O1208 2.035 . S
Zn1209 O1210 2.028 . S
Zn1209 O1212 2.028 . S
Zn1209 O1215 2.035 . S
O1210 Zn1209 2.028 . S
O1210 C1216 1.247 . S
O1211 Zn1207 2.035 . S
O1211 C1216 1.258 . S
O1212 C1205 1.247 . S
O1212 Zn1209 2.028 . S
O1213 C1205 1.258 . S
O1213 Zn1207 2.035 . S
O1214 Zn1207 2.028 . S
O1214 C1217 1.247 . S
O1215 Zn1209 2.035 . S
O1215 C1217 1.258 . S
C1216 O1210 1.247 . S
C1216 O1211 1.258 . S
C1217 O1214 1.247 . S
C1217 O1215 1.258 . S
C1218 O1220 1.247 . S
C1218 O1222 1.258 . S
C1219 O1226 1.247 . S
C1219 O1227 1.258 . S
O1220 C1218 1.247 . S
O1220 Zn1221 2.028 . S
Zn1221 O1220 2.028 . S
Zn1221 O1225 2.035 . S
Zn1221 O1227 2.035 . S
Zn1221 O1228 2.028 . S
O1222 C1218 1.258 . S
O1222 Zn1223 2.035 . S
Zn1223 O1222 2.035 . S
Zn1223 O1224 2.028 . S
Zn1223 O1226 2.028 . S
Zn1223 O1229 2.035 . S
O1224 Zn1223 2.028 . S
O1224 C1230 1.247 . S
O1225 Zn1221 2.035 . S
O1225 C1230 1.258 . S
O1226 C1219 1.247 . S
O1226 Zn1223 2.028 . S
O1227 C1219 1.258 . S
O1227 Zn1221 2.035 . S
O1228 Zn1221 2.028 . S
O1228 C1231 1.247 . S
O1229 Zn1223 2.035 . S
O1229 C1231 1.258 . S
C1230 O1224 1.247 . S
C1230 O1225 1.258 . S
C1231 O1228 1.247 . S
C1231 O1229 1.258 . S
C1232 O1234 1.247 . S
C1232 O1236 1.258 . S
C1233 O1240 1.247 . S
C1233 O1241 1.258 . S
O1234 C1232 1.247 . S
O1234 Zn1235 2.028 . S
Zn1235 O1234 2.028 . S
Zn1235 O1239 2.035 . S
Zn1235 O1241 2.035 . S
Zn1235 O1242 2.028 . S
O1236 C1232 1.258 . S
O1236 Zn1237 2.035 . S
Zn1237 O1236 2.035 . S
Zn1237 O1238 2.028 . S
Zn1237 O1240 2.028 . S
Zn1237 O1243 2.035 . S
O1238 Zn1237 2.028 . S
O1238 C1244 1.247 . S
O1239 Zn1235 2.035 . S
O1239 C1244 1.258 . S
O1240 C1233 1.247 . S
O1240 Zn1237 2.028 . S
O1241 C1233 1.258 . S
O1241 Zn1235 2.035 . S
O1242 Zn1235 2.028 . S
O1242 C1245 1.247 . S
O1243 Zn1237 2.035 . S
O1243 C1245 1.258 . S
C1244 O1238 1.247 . S
C1244 O1239 1.258 . S
C1245 O1242 1.247 . S
C1245 O1243 1.258 . S
C1246 O1248 1.247 . S
C1246 O1250 1.258 . S
C1247 O1254 1.247 . S
C1247 O1255 1.258 . S
O1248 C1246 1.247 . S
O1248 Zn1249 2.028 . S
Zn1249 O1248 2.028 . S
Zn1249 O1253 2.035 . S
Zn1249 O1255 2.035 . S
Zn1249 O1256 2.028 . S
O1250 C1246 1.258 . S
O1250 Zn1251 2.035 . S
Zn1251 O1250 2.035 . S
Zn1251 O1252 2.028 . S
Zn1251 O1254 2.028 . S
Zn1251 O1257 2.035 . S
O1252 Zn1251 2.028 . S
O1252 C1258 1.247 . S
O1253 Zn1249 2.035 . S
O1253 C1258 1.258 . S
O1254 C1247 1.247 . S
O1254 Zn1251 2.028 . S
O1255 C1247 1.258 . S
O1255 Zn1249 2.035 . S
O1256 Zn1249 2.028 . S
O1256 C1259 1.247 . S
O1257 Zn1251 2.035 . S
O1257 C1259 1.258 . S
C1258 O1252 1.247 . S
C1258 O1253 1.258 . S
C1259 O1256 1.247 . S
C1259 O1257 1.258 . S
C1260 O1262 1.247 . S
C1260 O1264 1.258 . S
C1261 O1268 1.247 . S
C1261 O1269 1.258 . S
O1262 C1260 1.247 . S
O1262 Zn1263 2.028 . S
Zn1263 O1262 2.028 . S
Zn1263 O1267 2.035 . S
Zn1263 O1269 2.035 . S
Zn1263 O1270 2.028 . S
O1264 C1260 1.258 . S
O1264 Zn1265 2.035 . S
Zn1265 O1264 2.035 . S
Zn1265 O1266 2.028 . S
Zn1265 O1268 2.028 . S
Zn1265 O1271 2.035 . S
O1266 Zn1265 2.028 . S
O1266 C1272 1.247 . S
O1267 Zn1263 2.035 . S
O1267 C1272 1.258 . S
O1268 C1261 1.247 . S
O1268 Zn1265 2.028 . S
O1269 C1261 1.258 . S
O1269 Zn1263 2.035 . S
O1270 Zn1263 2.028 . S
O1270 C1273 1.247 . S
O1271 Zn1265 2.035 . S
O1271 C1273 1.258 . S
C1272 O1266 1.247 . S
C1272 O1267 1.258 . S
C1273 O1270 1.247 . S
C1273 O1271 1.258 . S
C1274 O1276 1.247 . S
C1274 O1278 1.258 . S
C1275 O1282 1.247 . S
C1275 O1283 1.238 1_556 S
O1276 C1274 1.247 . S
O1276 Zn1277 2.028 . S
Zn1277 O1276 2.028 . S
Zn1277 O1281 2.035 . S
Zn1277 O1283 2.067 . S
Zn1277 O1284 2.028 . S
O1278 C1274 1.258 . S
O1278 Zn1279 2.035 . S
Zn1279 O1278 2.035 . S
Zn1279 O1280 2.028 . S
Zn1279 O1282 2.028 1_554 S
Zn1279 O1285 2.035 . S
O1280 Zn1279 2.028 . S
O1280 C1286 1.247 . S
O1281 Zn1277 2.035 . S
O1281 C1286 1.258 . S
O1282 C1275 1.247 . S
O1282 Zn1279 2.028 1_556 S
O1283 C1275 1.238 1_554 S
O1283 Zn1277 2.067 . S
O1284 Zn1277 2.028 . S
O1284 C1287 1.247 . S
O1285 Zn1279 2.035 . S
O1285 C1287 1.258 . S
C1286 O1280 1.247 . S
C1286 O1281 1.258 . S
C1287 O1284 1.247 . S
C1287 O1285 1.258 . S
C1288 O1290 1.247 . S
C1288 O1292 1.258 . S
C1289 O1296 1.247 . S
C1289 O1297 1.258 . S
O1290 C1288 1.247 . S
O1290 Zn1291 2.028 . S
Zn1291 O1290 2.028 . S
Zn1291 O1295 2.035 . S
Zn1291 O1297 2.035 . S
Zn1291 O1298 2.028 . S
O1292 C1288 1.258 . S
O1292 Zn1293 2.035 . S
Zn1293 O1292 2.035 . S
Zn1293 O1294 2.028 . S
Zn1293 O1296 2.028 . S
Zn1293 O1299 2.035 . S
O1294 Zn1293 2.028 . S
O1294 C1300 1.247 . S
O1295 Zn1291 2.035 . S
O1295 C1300 1.258 . S
O1296 C1289 1.247 . S
O1296 Zn1293 2.028 . S
O1297 C1289 1.258 . S
O1297 Zn1291 2.035 . S
O1298 Zn1291 2.028 . S
O1298 C1301 1.247 . S
O1299 Zn1293 2.035 . S
O1299 C1301 1.258 . S
C1300 O1294 1.247 . S
C1300 O1295 1.258 . S
C1301 O1298 1.247 . S
C1301 O1299 1.258 . S
C1302 O1304 1.228 1_554 S
C1302 O1306 1.258 . S
C1303 O1310 1.247 . S
C1303 O1311 1.258 . S
O1304 C1302 1.228 1_556 S
O1304 Zn1305 2.057 . S
Zn1305 O1304 2.057 . S
Zn1305 O1309 2.035 . S
Zn1305 O1311 2.035 . S
Zn1305 O1312 2.028 . S
O1306 C1302 1.258 . S
O1306 Zn1307 2.035 1_554 S
Zn1307 O1306 2.035 1_556 S
Zn1307 O1308 2.028 . S
Zn1307 O1310 2.028 . S
Zn1307 O1313 2.035 . S
O1308 Zn1307 2.028 . S
O1308 C1314 1.247 . S
O1309 Zn1305 2.035 . S
O1309 C1314 1.258 . S
O1310 C1303 1.247 . S
O1310 Zn1307 2.028 . S
O1311 C1303 1.258 . S
O1311 Zn1305 2.035 . S
O1312 Zn1305 2.028 . S
O1312 C1315 1.247 . S
O1313 Zn1307 2.035 . S
O1313 C1315 1.258 . S
C1314 O1308 1.247 . S
C1314 O1309 1.258 . S
C1315 O1312 1.247 . S
C1315 O1313 1.258 . S
C1316 O1318 1.247 . S
C1316 O1320 1.258 . S
C1317 O1324 1.247 . S
C1317 O1325 1.258 . S
O1318 C1316 1.247 . S
O1318 Zn1319 2.028 . S
Zn1319 O1318 2.028 . S
Zn1319 O1323 2.035 . S
Zn1319 O1325 2.035 . S
Zn1319 O1326 2.028 . S
O1320 C1316 1.258 . S
O1320 Zn1321 2.035 . S
Zn1321 O1320 2.035 . S
Zn1321 O1322 2.028 . S
Zn1321 O1324 2.028 . S
Zn1321 O1327 2.035 . S
O1322 Zn1321 2.028 . S
O1322 C1328 1.247 . S
O1323 Zn1319 2.035 . S
O1323 C1328 1.258 . S
O1324 C1317 1.247 . S
O1324 Zn1321 2.028 . S
O1325 C1317 1.258 . S
O1325 Zn1319 2.035 . S
O1326 Zn1319 2.028 . S
O1326 C1329 1.247 . S
O1327 Zn1321 2.035 . S
O1327 C1329 1.258 . S
C1328 O1322 1.247 . S
C1328 O1323 1.258 . S
C1329 O1326 1.247 . S
C1329 O1327 1.258 . S
C1330 O1332 1.247 . S
C1330 O1334 1.258 . S
C1331 O1338 1.247 . S
C1331 O1339 1.258 . S
O1332 C1330 1.247 . S
O1332 Zn1333 2.028 . S
Zn1333 O1332 2.028 . S
Zn1333 O1337 2.035 . S
Zn1333 O1339 2.035 . S
Zn1333 O1340 2.028 . S
O1334 C1330 1.258 . S
O1334 Zn1335 2.035 . S
Zn1335 O1334 2.035 . S
Zn1335 O1336 2.028 . S
Zn1335 O1338 2.028 . S
Zn1335 O1341 2.035 . S
O1336 Zn1335 2.028 . S
O1336 C1342 1.247 . S
O1337 Zn1333 2.035 . S
O1337 C1342 1.258 . S
O1338 C1331 1.247 . S
O1338 Zn1335 2.028 . S
O1339 C1331 1.258 . S
O1339 Zn1333 2.035 . S
O1340 Zn1333 2.028 . S
O1340 C1343 1.247 . S
O1341 Zn1335 2.035 . S
O1341 C1343 1.258 . S
C1342 O1336 1.247 . S
C1342 O1337 1.258 . S
C1343 O1340 1.247 . S
C1343 O1341 1.258 . S
C1344 C1345 1.369 . S
C1344 C1346 1.419 . S
C1344 H1348 0.930 . S
C1345 C1344 1.369 . S
C1345 C1354 1.429 . S
C1346 C1344 1.419 . S
C1346 C1347 1.363 . S
C1346 H1349 0.929 . S
C1347 C1346 1.363 . S
C1347 C1353 1.428 . S
H1348 C1344 0.930 . S
H1349 C1346 0.929 . S
S1350 N1351 1.613 . S
S1350 N1352 1.610 . S
N1351 S1350 1.613 . S
N1351 C1354 1.350 . S
N1352 S1350 1.610 . S
N1352 C1353 1.351 . S
C1353 C1347 1.428 . S
C1353 N1352 1.351 . S
C1353 C1354 1.434 . S
C1354 C1345 1.429 . S
C1354 N1351 1.350 . S
C1354 C1353 1.434 . S
C1355 C1356 1.369 . S
C1355 C1357 1.419 . S
C1355 H1359 0.930 . S
C1356 C1355 1.369 . S
C1356 C1365 1.429 . S
C1357 C1355 1.419 . S
C1357 C1358 1.363 . S
C1357 H1360 0.929 . S
C1358 C1357 1.363 . S
C1358 C1364 1.428 . S
H1359 C1355 0.930 . S
H1360 C1357 0.929 . S
S1361 N1362 1.613 . S
S1361 N1363 1.610 . S
N1362 S1361 1.613 . S
N1362 C1365 1.350 . S
N1363 S1361 1.610 . S
N1363 C1364 1.351 . S
C1364 C1358 1.428 . S
C1364 N1363 1.351 . S
C1364 C1365 1.434 . S
C1365 C1356 1.429 . S
C1365 N1362 1.350 . S
C1365 C1364 1.434 . S
C1366 C1367 1.369 . S
C1366 C1368 1.419 . S
C1366 H1370 0.930 . S
C1367 C1366 1.369 . S
C1367 C1376 1.429 . S
C1368 C1366 1.419 . S
C1368 C1369 1.363 . S
C1368 H1371 0.929 . S
C1369 C1368 1.363 . S
C1369 C1375 1.428 . S
H1370 C1366 0.930 . S
H1371 C1368 0.929 . S
S1372 N1373 1.613 . S
S1372 N1374 1.610 . S
N1373 S1372 1.613 . S
N1373 C1376 1.350 . S
N1374 S1372 1.610 . S
N1374 C1375 1.351 . S
C1375 C1369 1.428 . S
C1375 N1374 1.351 . S
C1375 C1376 1.434 . S
C1376 C1367 1.429 . S
C1376 N1373 1.350 . S
C1376 C1375 1.434 . S
C1377 C1378 1.369 . S
C1377 C1379 1.419 . S
C1377 H1381 0.930 . S
C1378 C1377 1.369 . S
C1378 C1387 1.429 . S
C1379 C1377 1.419 . S
C1379 C1380 1.363 . S
C1379 H1382 0.929 . S
C1380 C1379 1.363 . S
C1380 C1386 1.428 . S
H1381 C1377 0.930 . S
H1382 C1379 0.929 . S
S1383 N1384 1.613 . S
S1383 N1385 1.610 . S
N1384 S1383 1.613 . S
N1384 C1387 1.350 . S
N1385 S1383 1.610 . S
N1385 C1386 1.351 . S
C1386 C1380 1.428 . S
C1386 N1385 1.351 . S
C1386 C1387 1.434 . S
C1387 C1378 1.429 . S
C1387 N1384 1.350 . S
C1387 C1386 1.434 . S
C1388 C1389 1.369 . S
C1388 C1390 1.419 . S
C1388 H1392 0.930 . S
C1389 C1388 1.369 . S
C1389 C1398 1.429 . S
C1390 C1388 1.419 . S
C1390 C1391 1.363 . S
C1390 H1393 0.929 . S
C1391 C1390 1.363 . S
C1391 C1397 1.428 . S
H1392 C1388 0.930 . S
H1393 C1390 0.929 . S
S1394 N1395 1.613 . S
S1394 N1396 1.610 . S
N1395 S1394 1.613 . S
N1395 C1398 1.350 . S
N1396 S1394 1.610 . S
N1396 C1397 1.351 . S
C1397 C1391 1.428 . S
C1397 N1396 1.351 . S
C1397 C1398 1.434 . S
C1398 C1389 1.429 . S
C1398 N1395 1.350 . S
C1398 C1397 1.434 . S
C1399 C1400 1.369 . S
C1399 C1401 1.419 . S
C1399 H1403 0.930 . S
C1400 C1399 1.369 . S
C1400 C1409 1.429 . S
C1401 C1399 1.419 . S
C1401 C1402 1.363 . S
C1401 H1404 0.929 . S
C1402 C1401 1.363 . S
C1402 C1408 1.428 . S
H1403 C1399 0.930 . S
H1404 C1401 0.929 . S
S1405 N1406 1.613 . S
S1405 N1407 1.610 . S
N1406 S1405 1.613 . S
N1406 C1409 1.350 . S
N1407 S1405 1.610 . S
N1407 C1408 1.351 . S
C1408 C1402 1.428 . S
C1408 N1407 1.351 . S
C1408 C1409 1.434 . S
C1409 C1400 1.429 . S
C1409 N1406 1.350 . S
C1409 C1408 1.434 . S
C1410 C1411 1.369 . S
C1410 C1412 1.419 . S
C1410 H1414 0.930 . S
C1411 C1410 1.369 . S
C1411 C1420 1.429 . S
C1412 C1410 1.419 . S
C1412 C1413 1.363 . S
C1412 H1415 0.929 . S
C1413 C1412 1.363 . S
C1413 C1419 1.428 . S
H1414 C1410 0.930 . S
H1415 C1412 0.929 . S
S1416 N1417 1.613 . S
S1416 N1418 1.610 . S
N1417 S1416 1.613 . S
N1417 C1420 1.350 . S
N1418 S1416 1.610 . S
N1418 C1419 1.351 . S
C1419 C1413 1.428 . S
C1419 N1418 1.351 . S
C1419 C1420 1.434 . S
C1420 C1411 1.429 . S
C1420 N1417 1.350 . S
C1420 C1419 1.434 . S
C1421 C1422 1.369 . S
C1421 C1423 1.419 . S
C1421 H1425 0.930 . S
C1422 C1421 1.369 . S
C1422 C1431 1.429 . S
C1423 C1421 1.419 . S
C1423 C1424 1.363 . S
C1423 H1426 0.929 . S
C1424 C1423 1.363 . S
C1424 C1430 1.428 . S
H1425 C1421 0.930 . S
H1426 C1423 0.929 . S
S1427 N1428 1.613 . S
S1427 N1429 1.610 . S
N1428 S1427 1.613 . S
N1428 C1431 1.350 . S
N1429 S1427 1.610 . S
N1429 C1430 1.351 . S
C1430 C1424 1.428 . S
C1430 N1429 1.351 . S
C1430 C1431 1.434 . S
C1431 C1422 1.429 . S
C1431 N1428 1.350 . S
C1431 C1430 1.434 . S
C1432 C1433 1.369 . S
C1432 C1434 1.419 . S
C1432 H1436 0.930 . S
C1433 C1432 1.369 . S
C1433 C1442 1.429 . S
C1434 C1432 1.419 . S
C1434 C1435 1.363 . S
C1434 H1437 0.929 . S
C1435 C1434 1.363 . S
C1435 C1441 1.428 . S
H1436 C1432 0.930 . S
H1437 C1434 0.929 . S
S1438 N1439 1.613 . S
S1438 N1440 1.610 . S
N1439 S1438 1.613 . S
N1439 C1442 1.350 . S
N1440 S1438 1.610 . S
N1440 C1441 1.351 . S
C1441 C1435 1.428 . S
C1441 N1440 1.351 . S
C1441 C1442 1.434 . S
C1442 C1433 1.429 . S
C1442 N1439 1.350 . S
C1442 C1441 1.434 . S
C1443 C1444 1.369 . S
C1443 C1445 1.419 . S
C1443 H1447 0.930 . S
C1444 C1443 1.369 . S
C1444 C1453 1.429 . S
C1445 C1443 1.419 . S
C1445 C1446 1.363 . S
C1445 H1448 0.929 . S
C1446 C1445 1.363 . S
C1446 C1452 1.428 . S
H1447 C1443 0.930 . S
H1448 C1445 0.929 . S
S1449 N1450 1.613 . S
S1449 N1451 1.610 . S
N1450 S1449 1.613 . S
N1450 C1453 1.350 . S
N1451 S1449 1.610 . S
N1451 C1452 1.351 . S
C1452 C1446 1.428 . S
C1452 N1451 1.351 . S
C1452 C1453 1.434 . S
C1453 C1444 1.429 . S
C1453 N1450 1.350 . S
C1453 C1452 1.434 . S
C1454 C1455 1.369 . S
C1454 C1456 1.419 . S
C1454 H1458 0.930 . S
C1455 C1454 1.369 . S
C1455 C1464 1.429 . S
C1456 C1454 1.419 . S
C1456 C1457 1.363 . S
C1456 H1459 0.929 . S
C1457 C1456 1.363 . S
C1457 C1463 1.428 . S
H1458 C1454 0.930 . S
H1459 C1456 0.929 . S
S1460 N1461 1.613 . S
S1460 N1462 1.610 . S
N1461 S1460 1.613 . S
N1461 C1464 1.350 . S
N1462 S1460 1.610 . S
N1462 C1463 1.351 . S
C1463 C1457 1.428 . S
C1463 N1462 1.351 . S
C1463 C1464 1.434 . S
C1464 C1455 1.429 . S
C1464 N1461 1.350 . S
C1464 C1463 1.434 . S
C1465 C1466 1.369 . S
C1465 C1467 1.419 . S
C1465 H1469 0.930 . S
C1466 C1465 1.369 . S
C1466 C1475 1.429 . S
C1467 C1465 1.419 . S
C1467 C1468 1.363 . S
C1467 H1470 0.929 . S
C1468 C1467 1.363 . S
C1468 C1474 1.428 . S
H1469 C1465 0.930 . S
H1470 C1467 0.929 . S
S1471 N1472 1.613 . S
S1471 N1473 1.610 . S
N1472 S1471 1.613 . S
N1472 C1475 1.350 . S
N1473 S1471 1.610 . S
N1473 C1474 1.351 . S
C1474 C1468 1.428 . S
C1474 N1473 1.351 . S
C1474 C1475 1.434 . S
C1475 C1466 1.429 . S
C1475 N1472 1.350 . S
C1475 C1474 1.434 . S
C1476 C1477 1.369 . S
C1476 C1478 1.419 . S
C1476 H1480 0.930 . S
C1477 C1476 1.369 . S
C1477 C1486 1.429 . S
C1478 C1476 1.419 . S
C1478 C1479 1.363 . S
C1478 H1481 0.929 . S
C1479 C1478 1.363 . S
C1479 C1485 1.428 . S
H1480 C1476 0.930 . S
H1481 C1478 0.929 . S
S1482 N1483 1.613 . S
S1482 N1484 1.610 . S
N1483 S1482 1.613 . S
N1483 C1486 1.350 . S
N1484 S1482 1.610 . S
N1484 C1485 1.351 . S
C1485 C1479 1.428 . S
C1485 N1484 1.351 . S
C1485 C1486 1.434 . S
C1486 C1477 1.429 . S
C1486 N1483 1.350 . S
C1486 C1485 1.434 . S
C1487 C1488 1.369 . S
C1487 C1489 1.419 . S
C1487 H1491 0.930 . S
C1488 C1487 1.369 . S
C1488 C1497 1.429 . S
C1489 C1487 1.419 . S
C1489 C1490 1.363 . S
C1489 H1492 0.929 . S
C1490 C1489 1.363 . S
C1490 C1496 1.428 . S
H1491 C1487 0.930 . S
H1492 C1489 0.929 . S
S1493 N1494 1.613 . S
S1493 N1495 1.610 . S
N1494 S1493 1.613 . S
N1494 C1497 1.350 . S
N1495 S1493 1.610 . S
N1495 C1496 1.351 . S
C1496 C1490 1.428 . S
C1496 N1495 1.351 . S
C1496 C1497 1.434 . S
C1497 C1488 1.429 . S
C1497 N1494 1.350 . S
C1497 C1496 1.434 . S
C1498 C1499 1.369 . S
C1498 C1500 1.419 . S
C1498 H1502 0.930 . S
C1499 C1498 1.369 . S
C1499 C1508 1.429 . S
C1500 C1498 1.419 . S
C1500 C1501 1.363 . S
C1500 H1503 0.929 . S
C1501 C1500 1.363 . S
C1501 C1507 1.428 . S
H1502 C1498 0.930 . S
H1503 C1500 0.929 . S
S1504 N1505 1.613 . S
S1504 N1506 1.610 . S
N1505 S1504 1.613 . S
N1505 C1508 1.350 . S
N1506 S1504 1.610 . S
N1506 C1507 1.351 . S
C1507 C1501 1.428 . S
C1507 N1506 1.351 . S
C1507 C1508 1.434 . S
C1508 C1499 1.429 . S
C1508 N1505 1.350 . S
C1508 C1507 1.434 . S
C1509 C1510 1.369 . S
C1509 C1511 1.419 . S
C1509 H1513 0.930 . S
C1510 C1509 1.369 . S
C1510 C1519 1.429 . S
C1511 C1509 1.419 . S
C1511 C1512 1.363 . S
C1511 H1514 0.929 . S
C1512 C1511 1.363 . S
C1512 C1518 1.428 . S
H1513 C1509 0.930 . S
H1514 C1511 0.929 . S
S1515 N1516 1.613 . S
S1515 N1517 1.610 . S
N1516 S1515 1.613 . S
N1516 C1519 1.350 . S
N1517 S1515 1.610 . S
N1517 C1518 1.351 . S
C1518 C1512 1.428 . S
C1518 N1517 1.351 . S
C1518 C1519 1.434 . S
C1519 C1510 1.429 . S
C1519 N1516 1.350 . S
C1519 C1518 1.434 . S
C1520 C1521 1.369 . S
C1520 C1522 1.419 . S
C1520 H1524 0.930 . S
C1521 C1520 1.369 . S
C1521 C1530 1.429 . S
C1522 C1520 1.419 . S
C1522 C1523 1.363 . S
C1522 H1525 0.929 . S
C1523 C1522 1.363 . S
C1523 C1529 1.428 . S
H1524 C1520 0.930 . S
H1525 C1522 0.929 . S
S1526 N1527 1.613 . S
S1526 N1528 1.610 . S
N1527 S1526 1.613 . S
N1527 C1530 1.350 . S
N1528 S1526 1.610 . S
N1528 C1529 1.351 . S
C1529 C1523 1.428 . S
C1529 N1528 1.351 . S
C1529 C1530 1.434 . S
C1530 C1521 1.429 . S
C1530 N1527 1.350 . S
C1530 C1529 1.434 . S
C1531 C1532 1.369 . S
C1531 C1533 1.419 . S
C1531 H1535 0.930 . S
C1532 C1531 1.369 . S
C1532 C1541 1.429 . S
C1533 C1531 1.419 . S
C1533 C1534 1.363 . S
C1533 H1536 0.929 . S
C1534 C1533 1.363 . S
C1534 C1540 1.428 . S
H1535 C1531 0.930 . S
H1536 C1533 0.929 . S
S1537 N1538 1.613 . S
S1537 N1539 1.610 . S
N1538 S1537 1.613 . S
N1538 C1541 1.350 . S
N1539 S1537 1.610 . S
N1539 C1540 1.351 . S
C1540 C1534 1.428 . S
C1540 N1539 1.351 . S
C1540 C1541 1.434 . S
C1541 C1532 1.429 . S
C1541 N1538 1.350 . S
C1541 C1540 1.434 . S
C1542 C1543 1.369 . S
C1542 C1544 1.419 . S
C1542 H1546 0.930 . S
C1543 C1542 1.369 . S
C1543 C1552 1.429 . S
C1544 C1542 1.419 . S
C1544 C1545 1.363 . S
C1544 H1547 0.929 . S
C1545 C1544 1.363 . S
C1545 C1551 1.428 . S
H1546 C1542 0.930 . S
H1547 C1544 0.929 . S
S1548 N1549 1.613 . S
S1548 N1550 1.610 . S
N1549 S1548 1.613 . S
N1549 C1552 1.350 . S
N1550 S1548 1.610 . S
N1550 C1551 1.351 . S
C1551 C1545 1.428 . S
C1551 N1550 1.351 . S
C1551 C1552 1.434 . S
C1552 C1543 1.429 . S
C1552 N1549 1.350 . S
C1552 C1551 1.434 . S
C1553 C1554 1.369 . S
C1553 C1555 1.419 . S
C1553 H1557 0.930 . S
C1554 C1553 1.369 . S
C1554 C1563 1.429 . S
C1555 C1553 1.419 . S
C1555 C1556 1.363 . S
C1555 H1558 0.929 . S
C1556 C1555 1.363 . S
C1556 C1562 1.428 . S
H1557 C1553 0.930 . S
H1558 C1555 0.929 . S
S1559 N1560 1.613 . S
S1559 N1561 1.610 . S
N1560 S1559 1.613 . S
N1560 C1563 1.350 . S
N1561 S1559 1.610 . S
N1561 C1562 1.351 . S
C1562 C1556 1.428 . S
C1562 N1561 1.351 . S
C1562 C1563 1.434 . S
C1563 C1554 1.429 . S
C1563 N1560 1.350 . S
C1563 C1562 1.434 . S
C1564 C1565 1.369 . S
C1564 C1566 1.419 . S
C1564 H1568 0.930 . S
C1565 C1564 1.369 . S
C1565 C1574 1.429 . S
C1566 C1564 1.419 . S
C1566 C1567 1.363 . S
C1566 H1569 0.929 . S
C1567 C1566 1.363 . S
C1567 C1573 1.428 . S
H1568 C1564 0.930 . S
H1569 C1566 0.929 . S
S1570 N1571 1.613 . S
S1570 N1572 1.610 . S
N1571 S1570 1.613 . S
N1571 C1574 1.350 . S
N1572 S1570 1.610 . S
N1572 C1573 1.351 . S
C1573 C1567 1.428 . S
C1573 N1572 1.351 . S
C1573 C1574 1.434 . S
C1574 C1565 1.429 . S
C1574 N1571 1.350 . S
C1574 C1573 1.434 . S
C1575 C1576 1.369 . S
C1575 C1577 1.419 . S
C1575 H1579 0.930 . S
C1576 C1575 1.369 . S
C1576 C1585 1.429 . S
C1577 C1575 1.419 . S
C1577 C1578 1.363 . S
C1577 H1580 0.929 . S
C1578 C1577 1.363 . S
C1578 C1584 1.428 . S
H1579 C1575 0.930 . S
H1580 C1577 0.929 . S
S1581 N1582 1.613 . S
S1581 N1583 1.610 . S
N1582 S1581 1.613 . S
N1582 C1585 1.350 . S
N1583 S1581 1.610 . S
N1583 C1584 1.351 . S
C1584 C1578 1.428 . S
C1584 N1583 1.351 . S
C1584 C1585 1.434 . S
C1585 C1576 1.429 . S
C1585 N1582 1.350 . S
C1585 C1584 1.434 . S
C1586 C1587 1.369 . S
C1586 C1588 1.419 . S
C1586 H1590 0.930 . S
C1587 C1586 1.369 . S
C1587 C1596 1.429 . S
C1588 C1586 1.419 . S
C1588 C1589 1.363 . S
C1588 H1591 0.929 . S
C1589 C1588 1.363 . S
C1589 C1595 1.428 . S
H1590 C1586 0.930 . S
H1591 C1588 0.929 . S
S1592 N1593 1.613 . S
S1592 N1594 1.610 . S
N1593 S1592 1.613 . S
N1593 C1596 1.350 . S
N1594 S1592 1.610 . S
N1594 C1595 1.351 . S
C1595 C1589 1.428 . S
C1595 N1594 1.351 . S
C1595 C1596 1.434 . S
C1596 C1587 1.429 . S
C1596 N1593 1.350 . S
C1596 C1595 1.434 . S
C1597 C1598 1.369 . S
C1597 C1599 1.419 . S
C1597 H1601 0.930 . S
C1598 C1597 1.369 . S
C1598 C1607 1.429 . S
C1599 C1597 1.419 . S
C1599 C1600 1.363 . S
C1599 H1602 0.929 . S
C1600 C1599 1.363 . S
C1600 C1606 1.428 . S
H1601 C1597 0.930 . S
H1602 C1599 0.929 . S
S1603 N1604 1.613 . S
S1603 N1605 1.610 . S
N1604 S1603 1.613 . S
N1604 C1607 1.350 . S
N1605 S1603 1.610 . S
N1605 C1606 1.351 . S
C1606 C1600 1.428 . S
C1606 N1605 1.351 . S
C1606 C1607 1.434 . S
C1607 C1598 1.429 . S
C1607 N1604 1.350 . S
C1607 C1606 1.434 . S
C1608 C1609 1.369 . S
C1608 C1610 1.419 . S
C1608 H1612 0.930 . S
C1609 C1608 1.369 . S
C1609 C1618 1.429 . S
C1610 C1608 1.419 . S
C1610 C1611 1.363 . S
C1610 H1613 0.929 . S
C1611 C1610 1.363 . S
C1611 C1617 1.428 . S
H1612 C1608 0.930 . S
H1613 C1610 0.929 . S
S1614 N1615 1.613 . S
S1614 N1616 1.610 . S
N1615 S1614 1.613 . S
N1615 C1618 1.350 . S
N1616 S1614 1.610 . S
N1616 C1617 1.351 . S
C1617 C1611 1.428 . S
C1617 N1616 1.351 . S
C1617 C1618 1.434 . S
C1618 C1609 1.429 . S
C1618 N1615 1.350 . S
C1618 C1617 1.434 . S
C1619 C1620 1.369 . S
C1619 C1621 1.419 . S
C1619 H1623 0.930 . S
C1620 C1619 1.369 . S
C1620 C1629 1.429 . S
C1621 C1619 1.419 . S
C1621 C1622 1.363 . S
C1621 H1624 0.929 . S
C1622 C1621 1.363 . S
C1622 C1628 1.428 . S
H1623 C1619 0.930 . S
H1624 C1621 0.929 . S
S1625 N1626 1.613 . S
S1625 N1627 1.610 . S
N1626 S1625 1.613 . S
N1626 C1629 1.350 . S
N1627 S1625 1.610 . S
N1627 C1628 1.351 . S
C1628 C1622 1.428 . S
C1628 N1627 1.351 . S
C1628 C1629 1.434 . S
C1629 C1620 1.429 . S
C1629 N1626 1.350 . S
C1629 C1628 1.434 . S
C1630 C1631 1.369 . S
C1630 C1632 1.419 . S
C1630 H1634 0.930 . S
C1631 C1630 1.369 . S
C1631 C1640 1.429 . S
C1632 C1630 1.419 . S
C1632 C1633 1.363 . S
C1632 H1635 0.929 . S
C1633 C1632 1.363 . S
C1633 C1639 1.428 . S
H1634 C1630 0.930 . S
H1635 C1632 0.929 . S
S1636 N1637 1.613 . S
S1636 N1638 1.610 . S
N1637 S1636 1.613 . S
N1637 C1640 1.350 . S
N1638 S1636 1.610 . S
N1638 C1639 1.351 . S
C1639 C1633 1.428 . S
C1639 N1638 1.351 . S
C1639 C1640 1.434 . S
C1640 C1631 1.429 . S
C1640 N1637 1.350 . S
C1640 C1639 1.434 . S
C1641 C1642 1.369 . S
C1641 C1643 1.419 . S
C1641 H1645 0.930 . S
C1642 C1641 1.369 . S
C1642 C1651 1.429 . S
C1643 C1641 1.419 . S
C1643 C1644 1.363 . S
C1643 H1646 0.929 . S
C1644 C1643 1.363 . S
C1644 C1650 1.428 . S
H1645 C1641 0.930 . S
H1646 C1643 0.929 . S
S1647 N1648 1.613 . S
S1647 N1649 1.610 . S
N1648 S1647 1.613 . S
N1648 C1651 1.350 . S
N1649 S1647 1.610 . S
N1649 C1650 1.351 . S
C1650 C1644 1.428 . S
C1650 N1649 1.351 . S
C1650 C1651 1.434 . S
C1651 C1642 1.429 . S
C1651 N1648 1.350 . S
C1651 C1650 1.434 . S
C1652 C1653 1.369 . S
C1652 C1654 1.419 . S
C1652 H1656 0.930 . S
C1653 C1652 1.369 . S
C1653 C1662 1.429 . S
C1654 C1652 1.419 . S
C1654 C1655 1.363 . S
C1654 H1657 0.929 . S
C1655 C1654 1.363 . S
C1655 C1661 1.428 . S
H1656 C1652 0.930 . S
H1657 C1654 0.929 . S
S1658 N1659 1.613 . S
S1658 N1660 1.610 . S
N1659 S1658 1.613 . S
N1659 C1662 1.350 . S
N1660 S1658 1.610 . S
N1660 C1661 1.351 . S
C1661 C1655 1.428 . S
C1661 N1660 1.351 . S
C1661 C1662 1.434 . S
C1662 C1653 1.429 . S
C1662 N1659 1.350 . S
C1662 C1661 1.434 . S
C1663 C1664 1.369 . S
C1663 C1665 1.419 . S
C1663 H1667 0.930 . S
C1664 C1663 1.369 . S
C1664 C1673 1.429 . S
C1665 C1663 1.419 . S
C1665 C1666 1.363 . S
C1665 H1668 0.929 . S
C1666 C1665 1.363 . S
C1666 C1672 1.428 . S
H1667 C1663 0.930 . S
H1668 C1665 0.929 . S
S1669 N1670 1.613 . S
S1669 N1671 1.610 . S
N1670 S1669 1.613 . S
N1670 C1673 1.350 . S
N1671 S1669 1.610 . S
N1671 C1672 1.351 . S
C1672 C1666 1.428 . S
C1672 N1671 1.351 . S
C1672 C1673 1.434 . S
C1673 C1664 1.429 . S
C1673 N1670 1.350 . S
C1673 C1672 1.434 . S
C1674 C1675 1.369 . S
C1674 C1676 1.419 . S
C1674 H1678 0.930 . S
C1675 C1674 1.369 . S
C1675 C1684 1.429 . S
C1676 C1674 1.419 . S
C1676 C1677 1.363 . S
C1676 H1679 0.929 . S
C1677 C1676 1.363 . S
C1677 C1683 1.428 . S
H1678 C1674 0.930 . S
H1679 C1676 0.929 . S
S1680 N1681 1.613 . S
S1680 N1682 1.610 . S
N1681 S1680 1.613 . S
N1681 C1684 1.350 . S
N1682 S1680 1.610 . S
N1682 C1683 1.351 . S
C1683 C1677 1.428 . S
C1683 N1682 1.351 . S
C1683 C1684 1.434 . S
C1684 C1675 1.429 . S
C1684 N1681 1.350 . S
C1684 C1683 1.434 . S
C1685 C1686 1.369 . S
C1685 C1687 1.419 . S
C1685 H1689 0.930 . S
C1686 C1685 1.369 . S
C1686 C1695 1.429 . S
C1687 C1685 1.419 . S
C1687 C1688 1.363 . S
C1687 H1690 0.929 . S
C1688 C1687 1.363 . S
C1688 C1694 1.428 . S
H1689 C1685 0.930 . S
H1690 C1687 0.929 . S
S1691 N1692 1.613 . S
S1691 N1693 1.610 . S
N1692 S1691 1.613 . S
N1692 C1695 1.350 . S
N1693 S1691 1.610 . S
N1693 C1694 1.351 . S
C1694 C1688 1.428 . S
C1694 N1693 1.351 . S
C1694 C1695 1.434 . S
C1695 C1686 1.429 . S
C1695 N1692 1.350 . S
C1695 C1694 1.434 . S
C1696 C1697 1.369 . S
C1696 C1698 1.419 . S
C1696 H1700 0.930 . S
C1697 C1696 1.369 . S
C1697 C1706 1.429 . S
C1698 C1696 1.419 . S
C1698 C1699 1.363 . S
C1698 H1701 0.929 . S
C1699 C1698 1.363 . S
C1699 C1705 1.428 . S
H1700 C1696 0.930 . S
H1701 C1698 0.929 . S
S1702 N1703 1.613 . S
S1702 N1704 1.610 . S
N1703 S1702 1.613 . S
N1703 C1706 1.350 . S
N1704 S1702 1.610 . S
N1704 C1705 1.351 . S
C1705 C1699 1.428 . S
C1705 N1704 1.351 . S
C1705 C1706 1.434 . S
C1706 C1697 1.429 . S
C1706 N1703 1.350 . S
C1706 C1705 1.434 . S
C1707 C1708 1.369 . S
C1707 C1709 1.419 . S
C1707 H1711 0.930 . S
C1708 C1707 1.369 . S
C1708 C1717 1.429 . S
C1709 C1707 1.419 . S
C1709 C1710 1.363 . S
C1709 H1712 0.929 . S
C1710 C1709 1.363 . S
C1710 C1716 1.428 . S
H1711 C1707 0.930 . S
H1712 C1709 0.929 . S
S1713 N1714 1.613 . S
S1713 N1715 1.610 . S
N1714 S1713 1.613 . S
N1714 C1717 1.350 . S
N1715 S1713 1.610 . S
N1715 C1716 1.351 . S
C1716 C1710 1.428 . S
C1716 N1715 1.351 . S
C1716 C1717 1.434 . S
C1717 C1708 1.429 . S
C1717 N1714 1.350 . S
C1717 C1716 1.434 . S
C1718 C1719 1.369 . S
C1718 C1720 1.419 . S
C1718 H1722 0.930 . S
C1719 C1718 1.369 . S
C1719 C1728 1.429 . S
C1720 C1718 1.419 . S
C1720 C1721 1.363 . S
C1720 H1723 0.929 . S
C1721 C1720 1.363 . S
C1721 C1727 1.428 . S
H1722 C1718 0.930 . S
H1723 C1720 0.929 . S
S1724 N1725 1.613 . S
S1724 N1726 1.610 . S
N1725 S1724 1.613 . S
N1725 C1728 1.350 . S
N1726 S1724 1.610 . S
N1726 C1727 1.351 . S
C1727 C1721 1.428 . S
C1727 N1726 1.351 . S
C1727 C1728 1.434 . S
C1728 C1719 1.429 . S
C1728 N1725 1.350 . S
C1728 C1727 1.434 . S
C1729 C1730 1.369 . S
C1729 C1731 1.419 . S
C1729 H1733 0.930 . S
C1730 C1729 1.369 . S
C1730 C1739 1.429 . S
C1731 C1729 1.419 . S
C1731 C1732 1.363 . S
C1731 H1734 0.929 . S
C1732 C1731 1.363 . S
C1732 C1738 1.428 . S
H1733 C1729 0.930 . S
H1734 C1731 0.929 . S
S1735 N1736 1.613 . S
S1735 N1737 1.610 . S
N1736 S1735 1.613 . S
N1736 C1739 1.350 . S
N1737 S1735 1.610 . S
N1737 C1738 1.351 . S
C1738 C1732 1.428 . S
C1738 N1737 1.351 . S
C1738 C1739 1.434 . S
C1739 C1730 1.429 . S
C1739 N1736 1.350 . S
C1739 C1738 1.434 . S
C1740 C1741 1.369 . S
C1740 C1742 1.419 . S
C1740 H1744 0.930 . S
C1741 C1740 1.369 . S
C1741 C1750 1.429 . S
C1742 C1740 1.419 . S
C1742 C1743 1.363 . S
C1742 H1745 0.929 . S
C1743 C1742 1.363 . S
C1743 C1749 1.428 . S
H1744 C1740 0.930 . S
H1745 C1742 0.929 . S
S1746 N1747 1.613 . S
S1746 N1748 1.610 . S
N1747 S1746 1.613 . S
N1747 C1750 1.350 . S
N1748 S1746 1.610 . S
N1748 C1749 1.351 . S
C1749 C1743 1.428 . S
C1749 N1748 1.351 . S
C1749 C1750 1.434 . S
C1750 C1741 1.429 . S
C1750 N1747 1.350 . S
C1750 C1749 1.434 . S
C1751 C1752 1.369 . S
C1751 C1753 1.419 . S
C1751 H1755 0.930 . S
C1752 C1751 1.369 . S
C1752 C1761 1.429 . S
C1753 C1751 1.419 . S
C1753 C1754 1.363 . S
C1753 H1756 0.929 . S
C1754 C1753 1.363 . S
C1754 C1760 1.428 . S
H1755 C1751 0.930 . S
H1756 C1753 0.929 . S
S1757 N1758 1.613 . S
S1757 N1759 1.610 . S
N1758 S1757 1.613 . S
N1758 C1761 1.350 . S
N1759 S1757 1.610 . S
N1759 C1760 1.351 . S
C1760 C1754 1.428 . S
C1760 N1759 1.351 . S
C1760 C1761 1.434 . S
C1761 C1752 1.429 . S
C1761 N1758 1.350 . S
C1761 C1760 1.434 . S
C1762 C1763 1.369 . S
C1762 C1764 1.419 . S
C1762 H1766 0.930 . S
C1763 C1762 1.369 . S
C1763 C1772 1.429 . S
C1764 C1762 1.419 . S
C1764 C1765 1.363 . S
C1764 H1767 0.929 . S
C1765 C1764 1.363 . S
C1765 C1771 1.428 . S
H1766 C1762 0.930 . S
H1767 C1764 0.929 . S
S1768 N1769 1.613 . S
S1768 N1770 1.610 . S
N1769 S1768 1.613 . S
N1769 C1772 1.350 . S
N1770 S1768 1.610 . S
N1770 C1771 1.351 . S
C1771 C1765 1.428 . S
C1771 N1770 1.351 . S
C1771 C1772 1.434 . S
C1772 C1763 1.429 . S
C1772 N1769 1.350 . S
C1772 C1771 1.434 . S
C1773 C1774 1.369 . S
C1773 C1775 1.419 . S
C1773 H1777 0.930 . S
C1774 C1773 1.369 . S
C1774 C1783 1.429 . S
C1775 C1773 1.419 . S
C1775 C1776 1.363 . S
C1775 H1778 0.929 . S
C1776 C1775 1.363 . S
C1776 C1782 1.428 . S
H1777 C1773 0.930 . S
H1778 C1775 0.929 . S
S1779 N1780 1.613 . S
S1779 N1781 1.610 . S
N1780 S1779 1.613 . S
N1780 C1783 1.350 . S
N1781 S1779 1.610 . S
N1781 C1782 1.351 . S
C1782 C1776 1.428 . S
C1782 N1781 1.351 . S
C1782 C1783 1.434 . S
C1783 C1774 1.429 . S
C1783 N1780 1.350 . S
C1783 C1782 1.434 . S
C1784 C1785 1.369 . S
C1784 C1786 1.419 . S
C1784 H1788 0.930 . S
C1785 C1784 1.369 . S
C1785 C1794 1.429 . S
C1786 C1784 1.419 . S
C1786 C1787 1.363 . S
C1786 H1789 0.929 . S
C1787 C1786 1.363 . S
C1787 C1793 1.428 . S
H1788 C1784 0.930 . S
H1789 C1786 0.929 . S
S1790 N1791 1.613 . S
S1790 N1792 1.610 . S
N1791 S1790 1.613 . S
N1791 C1794 1.350 . S
N1792 S1790 1.610 . S
N1792 C1793 1.351 . S
C1793 C1787 1.428 . S
C1793 N1792 1.351 . S
C1793 C1794 1.434 . S
C1794 C1785 1.429 . S
C1794 N1791 1.350 . S
C1794 C1793 1.434 . S
C1795 C1796 1.369 . S
C1795 C1797 1.419 . S
C1795 H1799 0.930 . S
C1796 C1795 1.369 . S
C1796 C1805 1.429 . S
C1797 C1795 1.419 . S
C1797 C1798 1.363 . S
C1797 H1800 0.929 . S
C1798 C1797 1.363 . S
C1798 C1804 1.428 . S
H1799 C1795 0.930 . S
H1800 C1797 0.929 . S
S1801 N1802 1.613 . S
S1801 N1803 1.610 . S
N1802 S1801 1.613 . S
N1802 C1805 1.350 . S
N1803 S1801 1.610 . S
N1803 C1804 1.351 . S
C1804 C1798 1.428 . S
C1804 N1803 1.351 . S
C1804 C1805 1.434 . S
C1805 C1796 1.429 . S
C1805 N1802 1.350 . S
C1805 C1804 1.434 . S
C1806 C1807 1.369 . S
C1806 C1808 1.419 . S
C1806 H1810 0.930 . S
C1807 C1806 1.369 . S
C1807 C1816 1.429 . S
C1808 C1806 1.419 . S
C1808 C1809 1.363 . S
C1808 H1811 0.929 . S
C1809 C1808 1.363 . S
C1809 C1815 1.428 . S
H1810 C1806 0.930 . S
H1811 C1808 0.929 . S
S1812 N1813 1.613 . S
S1812 N1814 1.610 . S
N1813 S1812 1.613 . S
N1813 C1816 1.350 . S
N1814 S1812 1.610 . S
N1814 C1815 1.351 . S
C1815 C1809 1.428 . S
C1815 N1814 1.351 . S
C1815 C1816 1.434 . S
C1816 C1807 1.429 . S
C1816 N1813 1.350 . S
C1816 C1815 1.434 . S
C1817 C1818 1.369 . S
C1817 C1819 1.419 . S
C1817 H1821 0.930 . S
C1818 C1817 1.369 . S
C1818 C1827 1.429 . S
C1819 C1817 1.419 . S
C1819 C1820 1.363 . S
C1819 H1822 0.929 . S
C1820 C1819 1.363 . S
C1820 C1826 1.428 . S
H1821 C1817 0.930 . S
H1822 C1819 0.929 . S
S1823 N1824 1.613 . S
S1823 N1825 1.610 . S
N1824 S1823 1.613 . S
N1824 C1827 1.350 . S
N1825 S1823 1.610 . S
N1825 C1826 1.351 . S
C1826 C1820 1.428 . S
C1826 N1825 1.351 . S
C1826 C1827 1.434 . S
C1827 C1818 1.429 . S
C1827 N1824 1.350 . S
C1827 C1826 1.434 . S
C1828 C1829 1.369 . S
C1828 C1830 1.419 . S
C1828 H1832 0.930 . S
C1829 C1828 1.369 . S
C1829 C1838 1.429 . S
C1830 C1828 1.419 . S
C1830 C1831 1.363 . S
C1830 H1833 0.929 . S
C1831 C1830 1.363 . S
C1831 C1837 1.428 . S
H1832 C1828 0.930 . S
H1833 C1830 0.929 . S
S1834 N1835 1.613 . S
S1834 N1836 1.610 . S
N1835 S1834 1.613 . S
N1835 C1838 1.350 . S
N1836 S1834 1.610 . S
N1836 C1837 1.351 . S
C1837 C1831 1.428 . S
C1837 N1836 1.351 . S
C1837 C1838 1.434 . S
C1838 C1829 1.429 . S
C1838 N1835 1.350 . S
C1838 C1837 1.434 . S
C1839 C1840 1.369 . S
C1839 C1841 1.419 . S
C1839 H1843 0.930 . S
C1840 C1839 1.369 . S
C1840 C1849 1.429 . S
C1841 C1839 1.419 . S
C1841 C1842 1.363 . S
C1841 H1844 0.929 . S
C1842 C1841 1.363 . S
C1842 C1848 1.428 . S
H1843 C1839 0.930 . S
H1844 C1841 0.929 . S
S1845 N1846 1.613 . S
S1845 N1847 1.610 . S
N1846 S1845 1.613 . S
N1846 C1849 1.350 . S
N1847 S1845 1.610 . S
N1847 C1848 1.351 . S
C1848 C1842 1.428 . S
C1848 N1847 1.351 . S
C1848 C1849 1.434 . S
C1849 C1840 1.429 . S
C1849 N1846 1.350 . S
C1849 C1848 1.434 . S
C1850 C1851 1.369 . S
C1850 C1852 1.419 . S
C1850 H1854 0.930 . S
C1851 C1850 1.369 . S
C1851 C1860 1.429 . S
C1852 C1850 1.419 . S
C1852 C1853 1.363 . S
C1852 H1855 0.929 . S
C1853 C1852 1.363 . S
C1853 C1859 1.428 . S
H1854 C1850 0.930 . S
H1855 C1852 0.929 . S
S1856 N1857 1.613 . S
S1856 N1858 1.610 . S
N1857 S1856 1.613 . S
N1857 C1860 1.350 . S
N1858 S1856 1.610 . S
N1858 C1859 1.351 . S
C1859 C1853 1.428 . S
C1859 N1858 1.351 . S
C1859 C1860 1.434 . S
C1860 C1851 1.429 . S
C1860 N1857 1.350 . S
C1860 C1859 1.434 . S
C1861 C1862 1.369 . S
C1861 C1863 1.419 . S
C1861 H1865 0.930 . S
C1862 C1861 1.369 . S
C1862 C1871 1.429 . S
C1863 C1861 1.419 . S
C1863 C1864 1.363 . S
C1863 H1866 0.929 . S
C1864 C1863 1.363 . S
C1864 C1870 1.428 . S
H1865 C1861 0.930 . S
H1866 C1863 0.929 . S
S1867 N1868 1.613 . S
S1867 N1869 1.610 . S
N1868 S1867 1.613 . S
N1868 C1871 1.350 . S
N1869 S1867 1.610 . S
N1869 C1870 1.351 . S
C1870 C1864 1.428 . S
C1870 N1869 1.351 . S
C1870 C1871 1.434 . S
C1871 C1862 1.429 . S
C1871 N1868 1.350 . S
C1871 C1870 1.434 . S
C1872 C1873 1.369 . S
C1872 C1874 1.419 . S
C1872 H1876 0.930 . S
C1873 C1872 1.369 . S
C1873 C1882 1.429 . S
C1874 C1872 1.419 . S
C1874 C1875 1.363 . S
C1874 H1877 0.929 . S
C1875 C1874 1.363 . S
C1875 C1881 1.428 . S
H1876 C1872 0.930 . S
H1877 C1874 0.929 . S
S1878 N1879 1.613 1_655 S
S1878 N1880 1.610 . S
N1879 S1878 1.613 1_455 S
N1879 C1882 1.350 1_455 S
N1880 S1878 1.610 . S
N1880 C1881 1.351 . S
C1881 C1875 1.428 . S
C1881 N1880 1.351 . S
C1881 C1882 1.434 . S
C1882 C1873 1.429 . S
C1882 N1879 1.350 1_655 S
C1882 C1881 1.434 . S
C1883 C1884 1.369 . S
C1883 C1885 1.419 . S
C1883 H1887 0.930 . S
C1884 C1883 1.369 . S
C1884 C1893 1.429 . S
C1885 C1883 1.419 . S
C1885 C1886 1.363 . S
C1885 H1888 0.929 . S
C1886 C1885 1.363 . S
C1886 C1892 1.428 . S
H1887 C1883 0.930 . S
H1888 C1885 0.929 . S
S1889 N1890 1.613 . S
S1889 N1891 1.610 . S
N1890 S1889 1.613 . S
N1890 C1893 1.350 . S
N1891 S1889 1.610 . S
N1891 C1892 1.351 . S
C1892 C1886 1.428 . S
C1892 N1891 1.351 . S
C1892 C1893 1.434 . S
C1893 C1884 1.429 . S
C1893 N1890 1.350 . S
C1893 C1892 1.434 . S
C1894 C1895 1.369 . S
C1894 C1896 1.419 . S
C1894 H1898 0.930 . S
C1895 C1894 1.369 . S
C1895 C1904 1.429 . S
C1896 C1894 1.419 . S
C1896 C1897 1.363 . S
C1896 H1899 0.929 . S
C1897 C1896 1.363 . S
C1897 C1903 1.428 . S
H1898 C1894 0.930 . S
H1899 C1896 0.929 . S
S1900 N1901 1.613 . S
S1900 N1902 1.610 . S
N1901 S1900 1.613 . S
N1901 C1904 1.350 . S
N1902 S1900 1.610 . S
N1902 C1903 1.351 . S
C1903 C1897 1.428 . S
C1903 N1902 1.351 . S
C1903 C1904 1.434 . S
C1904 C1895 1.429 . S
C1904 N1901 1.350 . S
C1904 C1903 1.434 . S
C1905 C1906 1.369 . S
C1905 C1907 1.419 . S
C1905 H1909 0.930 . S
C1906 C1905 1.369 . S
C1906 C1915 1.429 . S
C1907 C1905 1.419 . S
C1907 C1908 1.363 . S
C1907 H1910 0.929 . S
C1908 C1907 1.363 . S
C1908 C1914 1.428 . S
H1909 C1905 0.930 . S
H1910 C1907 0.929 . S
S1911 N1912 1.613 . S
S1911 N1913 1.610 . S
N1912 S1911 1.613 . S
N1912 C1915 1.350 . S
N1913 S1911 1.610 . S
N1913 C1914 1.351 . S
C1914 C1908 1.428 . S
C1914 N1913 1.351 . S
C1914 C1915 1.434 . S
C1915 C1906 1.429 . S
C1915 N1912 1.350 . S
C1915 C1914 1.434 . S
C1916 C1917 1.369 . S
C1916 C1918 1.419 . S
C1916 H1920 0.930 . S
C1917 C1916 1.369 . S
C1917 C1926 1.429 . S
C1918 C1916 1.419 . S
C1918 C1919 1.363 . S
C1918 H1921 0.929 . S
C1919 C1918 1.363 . S
C1919 C1925 1.428 . S
H1920 C1916 0.930 . S
H1921 C1918 0.929 . S
S1922 N1923 1.613 . S
S1922 N1924 1.610 . S
N1923 S1922 1.613 . S
N1923 C1926 1.350 . S
N1924 S1922 1.610 . S
N1924 C1925 1.351 . S
C1925 C1919 1.428 . S
C1925 N1924 1.351 . S
C1925 C1926 1.434 . S
C1926 C1917 1.429 . S
C1926 N1923 1.350 . S
C1926 C1925 1.434 . S
C1927 C1928 1.369 . S
C1927 C1929 1.419 . S
C1927 H1931 0.930 . S
C1928 C1927 1.369 . S
C1928 C1937 1.429 . S
C1929 C1927 1.419 . S
C1929 C1930 1.363 . S
C1929 H1932 0.929 . S
C1930 C1929 1.363 . S
C1930 C1936 1.428 . S
H1931 C1927 0.930 . S
H1932 C1929 0.929 . S
S1933 N1934 1.613 . S
S1933 N1935 1.610 . S
N1934 S1933 1.613 . S
N1934 C1937 1.350 . S
N1935 S1933 1.610 . S
N1935 C1936 1.351 . S
C1936 C1930 1.428 . S
C1936 N1935 1.351 . S
C1936 C1937 1.434 . S
C1937 C1928 1.429 . S
C1937 N1934 1.350 . S
C1937 C1936 1.434 . S
C1938 C1939 1.369 . S
C1938 C1940 1.419 . S
C1938 H1942 0.930 . S
C1939 C1938 1.369 . S
C1939 C1948 1.429 . S
C1940 C1938 1.419 . S
C1940 C1941 1.363 . S
C1940 H1943 0.929 . S
C1941 C1940 1.363 . S
C1941 C1947 1.428 . S
H1942 C1938 0.930 . S
H1943 C1940 0.929 . S
S1944 N1945 1.613 . S
S1944 N1946 1.610 . S
N1945 S1944 1.613 . S
N1945 C1948 1.350 . S
N1946 S1944 1.610 . S
N1946 C1947 1.351 . S
C1947 C1941 1.428 . S
C1947 N1946 1.351 . S
C1947 C1948 1.434 . S
C1948 C1939 1.429 . S
C1948 N1945 1.350 . S
C1948 C1947 1.434 . S
C1949 C1950 1.369 . S
C1949 C1951 1.419 . S
C1949 H1953 0.930 . S
C1950 C1949 1.369 . S
C1950 C1959 1.429 . S
C1951 C1949 1.419 . S
C1951 C1952 1.363 . S
C1951 H1954 0.929 . S
C1952 C1951 1.363 . S
C1952 C1958 1.428 . S
H1953 C1949 0.930 . S
H1954 C1951 0.929 . S
S1955 N1956 1.613 1_554 S
S1955 N1957 1.610 . S
N1956 S1955 1.613 1_556 S
N1956 C1959 1.350 . S
N1957 S1955 1.610 . S
N1957 C1958 1.351 1_554 S
C1958 C1952 1.428 . S
C1958 N1957 1.351 1_556 S
C1958 C1959 1.434 . S
C1959 C1950 1.429 . S
C1959 N1956 1.350 . S
C1959 C1958 1.434 . S
C1960 C1961 1.369 . S
C1960 C1962 1.419 . S
C1960 H1964 0.930 . S
C1961 C1960 1.369 . S
C1961 C1970 1.429 1_565 S
C1962 C1960 1.419 . S
C1962 C1963 1.363 . S
C1962 H1965 0.929 . S
C1963 C1962 1.363 . S
C1963 C1969 1.428 . S
H1964 C1960 0.930 . S
H1965 C1962 0.929 . S
S1966 N1967 1.613 . S
S1966 N1968 1.610 . S
N1967 S1966 1.613 . S
N1967 C1970 1.350 . S
N1968 S1966 1.610 . S
N1968 C1969 1.351 1_545 S
C1969 C1963 1.428 . S
C1969 N1968 1.351 1_565 S
C1969 C1970 1.434 1_565 S
C1970 C1961 1.429 1_545 S
C1970 N1967 1.350 . S
C1970 C1969 1.434 1_545 S
C1971 C1972 1.369 . S
C1971 C1973 1.419 . S
C1971 H1975 0.930 . S
C1972 C1971 1.369 . S
C1972 C1981 1.429 . S
C1973 C1971 1.419 . S
C1973 C1974 1.363 . S
C1973 H1976 0.929 . S
C1974 C1973 1.363 . S
C1974 C1980 1.428 . S
H1975 C1971 0.930 . S
H1976 C1973 0.929 . S
S1977 N1978 1.613 . S
S1977 N1979 1.610 . S
N1978 S1977 1.613 . S
N1978 C1981 1.350 . S
N1979 S1977 1.610 . S
N1979 C1980 1.351 . S
C1980 C1974 1.428 . S
C1980 N1979 1.351 . S
C1980 C1981 1.434 . S
C1981 C1972 1.429 . S
C1981 N1978 1.350 . S
C1981 C1980 1.434 . S
C1982 C1983 1.369 . S
C1982 C1984 1.419 . S
C1982 H1986 0.930 . S
C1983 C1982 1.369 . S
C1983 C1992 1.429 . S
C1984 C1982 1.419 . S
C1984 C1985 1.363 . S
C1984 H1987 0.929 . S
C1985 C1984 1.363 . S
C1985 C1991 1.428 . S
H1986 C1982 0.930 . S
H1987 C1984 0.929 . S
S1988 N1989 1.613 . S
S1988 N1990 1.610 . S
N1989 S1988 1.613 . S
N1989 C1992 1.350 . S
N1990 S1988 1.610 . S
N1990 C1991 1.351 . S
C1991 C1985 1.428 . S
C1991 N1990 1.351 . S
C1991 C1992 1.434 . S
C1992 C1983 1.429 . S
C1992 N1989 1.350 . S
C1992 C1991 1.434 . S
C1993 C1994 1.369 . S
C1993 C1995 1.419 . S
C1993 H1997 0.930 . S
C1994 C1993 1.369 . S
C1994 C2003 1.429 . S
C1995 C1993 1.419 . S
C1995 C1996 1.363 . S
C1995 H1998 0.929 . S
C1996 C1995 1.363 . S
C1996 C2002 1.428 . S
H1997 C1993 0.930 . S
H1998 C1995 0.929 . S
S1999 N2000 1.613 . S
S1999 N2001 1.610 . S
N2000 S1999 1.613 . S
N2000 C2003 1.350 . S
N2001 S1999 1.610 . S
N2001 C2002 1.351 . S
C2002 C1996 1.428 . S
C2002 N2001 1.351 . S
C2002 C2003 1.434 . S
C2003 C1994 1.429 . S
C2003 N2000 1.350 . S
C2003 C2002 1.434 . S
C2004 C2005 1.369 . S
C2004 C2006 1.419 . S
C2004 H2008 0.930 . S
C2005 C2004 1.369 . S
C2005 C2014 1.429 . S
C2006 C2004 1.419 . S
C2006 C2007 1.363 . S
C2006 H2009 0.929 1_554 S
C2007 C2006 1.363 . S
C2007 C2013 1.428 . S
H2008 C2004 0.930 . S
H2009 C2006 0.929 1_556 S
S2010 N2011 1.613 . S
S2010 N2012 1.610 . S
N2011 S2010 1.613 . S
N2011 C2014 1.350 . S
N2012 S2010 1.610 . S
N2012 C2013 1.351 . S
C2013 C2007 1.428 . S
C2013 N2012 1.351 . S
C2013 C2014 1.434 . S
C2014 C2005 1.429 . S
C2014 N2011 1.350 . S
C2014 C2013 1.434 . S
C2015 C2016 1.369 . S
C2015 C2017 1.419 . S
C2015 H2019 0.930 . S
C2016 C2015 1.369 . S
C2016 C2025 1.429 . S
C2017 C2015 1.419 . S
C2017 C2018 1.363 . S
C2017 H2020 0.929 . S
C2018 C2017 1.363 . S
C2018 C2024 1.428 . S
H2019 C2015 0.930 . S
H2020 C2017 0.929 . S
S2021 N2022 1.613 . S
S2021 N2023 1.610 . S
N2022 S2021 1.613 . S
N2022 C2025 1.350 . S
N2023 S2021 1.610 . S
N2023 C2024 1.351 . S
C2024 C2018 1.428 . S
C2024 N2023 1.351 . S
C2024 C2025 1.434 . S
C2025 C2016 1.429 . S
C2025 N2022 1.350 . S
C2025 C2024 1.434 . S
C2026 C2027 1.369 . S
C2026 C2028 1.419 . S
C2026 H2030 0.930 . S
C2027 C2026 1.369 . S
C2027 C2036 1.429 . S
C2028 C2026 1.419 . S
C2028 C2029 1.363 . S
C2028 H2031 0.929 . S
C2029 C2028 1.363 . S
C2029 C2035 1.428 . S
H2030 C2026 0.930 . S
H2031 C2028 0.929 . S
S2032 N2033 1.613 . S
S2032 N2034 1.610 . S
N2033 S2032 1.613 . S
N2033 C2036 1.350 . S
N2034 S2032 1.610 . S
N2034 C2035 1.351 . S
C2035 C2029 1.428 . S
C2035 N2034 1.351 . S
C2035 C2036 1.434 . S
C2036 C2027 1.429 . S
C2036 N2033 1.350 . S
C2036 C2035 1.434 . S
C2037 C2038 1.369 . S
C2037 C2039 1.419 . S
C2037 H2041 0.930 1_455 S
C2038 C2037 1.369 . S
C2038 C2047 1.429 . S
C2039 C2037 1.419 . S
C2039 C2040 1.363 . S
C2039 H2042 0.929 . S
C2040 C2039 1.363 . S
C2040 C2046 1.428 . S
H2041 C2037 0.930 1_655 S
H2042 C2039 0.929 . S
S2043 N2044 1.613 . S
S2043 N2045 1.610 . S
N2044 S2043 1.613 . S
N2044 C2047 1.350 . S
N2045 S2043 1.610 . S
N2045 C2046 1.351 . S
C2046 C2040 1.428 . S
C2046 N2045 1.351 . S
C2046 C2047 1.434 . S
C2047 C2038 1.429 . S
C2047 N2044 1.350 . S
C2047 C2046 1.434 . S
C2048 C2049 1.369 . S
C2048 C2050 1.419 . S
C2048 H2052 0.930 . S
C2049 C2048 1.369 . S
C2049 C2058 1.429 . S
C2050 C2048 1.419 . S
C2050 C2051 1.363 . S
C2050 H2053 0.929 . S
C2051 C2050 1.363 . S
C2051 C2057 1.428 . S
H2052 C2048 0.930 . S
H2053 C2050 0.929 . S
S2054 N2055 1.613 . S
S2054 N2056 1.610 . S
N2055 S2054 1.613 . S
N2055 C2058 1.350 . S
N2056 S2054 1.610 . S
N2056 C2057 1.351 . S
C2057 C2051 1.428 . S
C2057 N2056 1.351 . S
C2057 C2058 1.434 . S
C2058 C2049 1.429 . S
C2058 N2055 1.350 . S
C2058 C2057 1.434 . S
C2059 C2060 1.369 . S
C2059 C2061 1.419 . S
C2059 H2063 0.930 . S
C2060 C2059 1.369 . S
C2060 C2069 1.429 . S
C2061 C2059 1.419 . S
C2061 C2062 1.363 . S
C2061 H2064 0.929 . S
C2062 C2061 1.363 . S
C2062 C2068 1.428 . S
H2063 C2059 0.930 . S
H2064 C2061 0.929 . S
S2065 N2066 1.613 . S
S2065 N2067 1.610 1_655 S
N2066 S2065 1.613 . S
N2066 C2069 1.350 1_655 S
N2067 S2065 1.610 1_455 S
N2067 C2068 1.351 . S
C2068 C2062 1.428 . S
C2068 N2067 1.351 . S
C2068 C2069 1.434 . S
C2069 C2060 1.429 . S
C2069 N2066 1.350 1_455 S
C2069 C2068 1.434 . S
C2070 C2071 1.369 . S
C2070 C2072 1.419 . S
C2070 H2074 0.930 . S
C2071 C2070 1.369 . S
C2071 C2080 1.429 . S
C2072 C2070 1.419 . S
C2072 C2073 1.363 . S
C2072 H2075 0.929 . S
C2073 C2072 1.363 . S
C2073 C2079 1.428 . S
H2074 C2070 0.930 . S
H2075 C2072 0.929 . S
S2076 N2077 1.613 . S
S2076 N2078 1.610 . S
N2077 S2076 1.613 . S
N2077 C2080 1.350 . S
N2078 S2076 1.610 . S
N2078 C2079 1.351 . S
C2079 C2073 1.428 . S
C2079 N2078 1.351 . S
C2079 C2080 1.434 . S
C2080 C2071 1.429 . S
C2080 N2077 1.350 . S
C2080 C2079 1.434 . S
C2081 C2082 1.369 . S
C2081 C2083 1.419 . S
C2081 H2085 0.930 . S
C2082 C2081 1.369 . S
C2082 C2091 1.429 . S
C2083 C2081 1.419 . S
C2083 C2084 1.363 . S
C2083 H2086 0.929 . S
C2084 C2083 1.363 . S
C2084 C2090 1.428 . S
H2085 C2081 0.930 . S
H2086 C2083 0.929 . S
S2087 N2088 1.613 . S
S2087 N2089 1.610 . S
N2088 S2087 1.613 . S
N2088 C2091 1.350 . S
N2089 S2087 1.610 . S
N2089 C2090 1.351 . S
C2090 C2084 1.428 . S
C2090 N2089 1.351 . S
C2090 C2091 1.434 . S
C2091 C2082 1.429 . S
C2091 N2088 1.350 . S
C2091 C2090 1.434 . S
C2092 C2093 1.369 . S
C2092 C2094 1.419 . S
C2092 H2096 0.930 . S
C2093 C2092 1.369 . S
C2093 C2102 1.429 . S
C2094 C2092 1.419 . S
C2094 C2095 1.363 . S
C2094 H2097 0.929 . S
C2095 C2094 1.363 . S
C2095 C2101 1.428 . S
H2096 C2092 0.930 . S
H2097 C2094 0.929 . S
S2098 N2099 1.613 . S
S2098 N2100 1.610 . S
N2099 S2098 1.613 . S
N2099 C2102 1.350 . S
N2100 S2098 1.610 . S
N2100 C2101 1.351 . S
C2101 C2095 1.428 . S
C2101 N2100 1.351 . S
C2101 C2102 1.434 . S
C2102 C2093 1.429 . S
C2102 N2099 1.350 . S
C2102 C2101 1.434 . S
C2103 C2104 1.369 . S
C2103 C2105 1.419 . S
C2103 H2107 0.930 . S
C2104 C2103 1.369 . S
C2104 C2113 1.429 . S
C2105 C2103 1.419 . S
C2105 C2106 1.363 . S
C2105 H2108 0.929 1_455 S
C2106 C2105 1.363 . S
C2106 C2112 1.428 . S
H2107 C2103 0.930 . S
H2108 C2105 0.929 1_655 S
S2109 N2110 1.613 . S
S2109 N2111 1.610 . S
N2110 S2109 1.613 . S
N2110 C2113 1.350 . S
N2111 S2109 1.610 . S
N2111 C2112 1.351 . S
C2112 C2106 1.428 . S
C2112 N2111 1.351 . S
C2112 C2113 1.434 . S
C2113 C2104 1.429 . S
C2113 N2110 1.350 . S
C2113 C2112 1.434 . S
C2114 C2115 1.369 . S
C2114 C2116 1.419 . S
C2114 H2118 0.930 . S
C2115 C2114 1.369 . S
C2115 C2124 1.429 . S
C2116 C2114 1.419 . S
C2116 C2117 1.363 . S
C2116 H2119 0.929 . S
C2117 C2116 1.363 . S
C2117 C2123 1.428 . S
H2118 C2114 0.930 . S
H2119 C2116 0.929 . S
S2120 N2121 1.613 . S
S2120 N2122 1.610 . S
N2121 S2120 1.613 . S
N2121 C2124 1.350 . S
N2122 S2120 1.610 . S
N2122 C2123 1.351 . S
C2123 C2117 1.428 . S
C2123 N2122 1.351 . S
C2123 C2124 1.434 . S
C2124 C2115 1.429 . S
C2124 N2121 1.350 . S
C2124 C2123 1.434 . S
C2125 C2126 1.369 . S
C2125 C2127 1.419 . S
C2125 H2129 0.930 . S
C2126 C2125 1.369 . S
C2126 C2135 1.429 . S
C2127 C2125 1.419 . S
C2127 C2128 1.363 . S
C2127 H2130 0.929 . S
C2128 C2127 1.363 . S
C2128 C2134 1.428 . S
H2129 C2125 0.930 . S
H2130 C2127 0.929 . S
S2131 N2132 1.613 . S
S2131 N2133 1.610 . S
N2132 S2131 1.613 . S
N2132 C2135 1.350 . S
N2133 S2131 1.610 . S
N2133 C2134 1.351 . S
C2134 C2128 1.428 . S
C2134 N2133 1.351 . S
C2134 C2135 1.434 . S
C2135 C2126 1.429 . S
C2135 N2132 1.350 . S
C2135 C2134 1.434 . S
C2136 C2137 1.369 . S
C2136 C2138 1.419 . S
C2136 H2140 0.930 . S
C2137 C2136 1.369 . S
C2137 C2146 1.429 . S
C2138 C2136 1.419 . S
C2138 C2139 1.363 . S
C2138 H2141 0.929 1_554 S
C2139 C2138 1.363 . S
C2139 C2145 1.428 . S
H2140 C2136 0.930 . S
H2141 C2138 0.929 1_556 S
S2142 N2143 1.613 . S
S2142 N2144 1.610 . S
N2143 S2142 1.613 . S
N2143 C2146 1.350 . S
N2144 S2142 1.610 . S
N2144 C2145 1.351 . S
C2145 C2139 1.428 . S
C2145 N2144 1.351 . S
C2145 C2146 1.434 . S
C2146 C2137 1.429 . S
C2146 N2143 1.350 . S
C2146 C2145 1.434 . S
C2147 C2148 1.369 . S
C2147 C2149 1.419 . S
C2147 H2151 0.930 . S
C2148 C2147 1.369 . S
C2148 C2157 1.429 . S
C2149 C2147 1.419 . S
C2149 C2150 1.363 . S
C2149 H2152 0.929 . S
C2150 C2149 1.363 . S
C2150 C2156 1.435 . S
H2151 C2147 0.930 . S
H2152 C2149 0.929 . S
S2153 N2154 1.613 1_565 S
S2153 N2155 1.610 . S
N2154 S2153 1.613 1_545 S
N2154 C2157 1.350 . S
N2155 S2153 1.610 . S
N2155 C2156 1.336 1_565 S
C2156 C2150 1.435 . S
C2156 N2155 1.336 1_545 S
C2156 C2157 1.443 . S
C2157 C2148 1.429 . S
C2157 N2154 1.350 . S
C2157 C2156 1.443 . S
C2158 C2159 1.369 . S
C2158 C2160 1.419 . S
C2158 H2162 0.930 . S
C2159 C2158 1.369 . S
C2159 C2168 1.429 . S
C2160 C2158 1.419 . S
C2160 C2161 1.363 . S
C2160 H2163 0.929 1_565 S
C2161 C2160 1.363 . S
C2161 C2167 1.428 . S
H2162 C2158 0.930 . S
H2163 C2160 0.929 1_545 S
S2164 N2165 1.613 . S
S2164 N2166 1.610 . S
N2165 S2164 1.613 . S
N2165 C2168 1.350 . S
N2166 S2164 1.610 . S
N2166 C2167 1.351 . S
C2167 C2161 1.428 . S
C2167 N2166 1.351 . S
C2167 C2168 1.434 . S
C2168 C2159 1.429 . S
C2168 N2165 1.350 . S
C2168 C2167 1.434 . S
C2169 C2170 1.369 . S
C2169 C2171 1.419 . S
C2169 H2173 0.930 . S
C2170 C2169 1.369 . S
C2170 C2179 1.429 . S
C2171 C2169 1.419 . S
C2171 C2172 1.363 . S
C2171 H2174 0.929 . S
C2172 C2171 1.363 . S
C2172 C2178 1.428 . S
H2173 C2169 0.930 . S
H2174 C2171 0.929 . S
S2175 N2176 1.613 . S
S2175 N2177 1.610 . S
N2176 S2175 1.613 . S
N2176 C2179 1.350 . S
N2177 S2175 1.610 . S
N2177 C2178 1.351 . S
C2178 C2172 1.428 . S
C2178 N2177 1.351 . S
C2178 C2179 1.434 . S
C2179 C2170 1.429 . S
C2179 N2176 1.350 . S
C2179 C2178 1.434 . S
C2180 C2181 1.369 . S
C2180 C2182 1.419 . S
C2180 H2184 0.930 . S
C2181 C2180 1.369 . S
C2181 C2190 1.429 . S
C2182 C2180 1.419 . S
C2182 C2183 1.363 . S
C2182 H2185 0.929 1_545 S
C2183 C2182 1.363 . S
C2183 C2189 1.428 . S
H2184 C2180 0.930 . S
H2185 C2182 0.929 1_565 S
S2186 N2187 1.613 . S
S2186 N2188 1.610 . S
N2187 S2186 1.613 . S
N2187 C2190 1.350 . S
N2188 S2186 1.610 . S
N2188 C2189 1.351 . S
C2189 C2183 1.428 . S
C2189 N2188 1.351 . S
C2189 C2190 1.434 . S
C2190 C2181 1.429 . S
C2190 N2187 1.350 . S
C2190 C2189 1.434 . S
C2191 C2192 1.369 . S
C2191 C2193 1.419 . S
C2191 H2195 0.930 . S
C2192 C2191 1.369 . S
C2192 C2201 1.429 . S
C2193 C2191 1.419 . S
C2193 C2194 1.363 . S
C2193 H2196 0.929 . S
C2194 C2193 1.363 . S
C2194 C2200 1.428 . S
H2195 C2191 0.930 . S
H2196 C2193 0.929 . S
S2197 N2198 1.613 . S
S2197 N2199 1.610 . S
N2198 S2197 1.613 . S
N2198 C2201 1.350 . S
N2199 S2197 1.610 . S
N2199 C2200 1.351 . S
C2200 C2194 1.428 . S
C2200 N2199 1.351 . S
C2200 C2201 1.434 . S
C2201 C2192 1.429 . S
C2201 N2198 1.350 . S
C2201 C2200 1.434 . S
C2202 C2203 1.369 . S
C2202 C2204 1.419 . S
C2202 H2206 0.930 . S
C2203 C2202 1.369 . S
C2203 C2212 1.429 . S
C2204 C2202 1.419 . S
C2204 C2205 1.363 . S
C2204 H2207 0.929 . S
C2205 C2204 1.363 . S
C2205 C2211 1.419 1_655 S
H2206 C2202 0.930 . S
H2207 C2204 0.929 . S
S2208 N2209 1.611 . S
S2208 N2210 1.610 . S
N2209 S2208 1.611 . S
N2209 C2212 1.351 1_455 S
N2210 S2208 1.610 . S
N2210 C2211 1.372 . S
C2211 C2205 1.419 1_455 S
C2211 N2210 1.372 . S
C2211 C2212 1.423 1_455 S
C2212 C2203 1.429 . S
C2212 N2209 1.351 1_655 S
C2212 C2211 1.423 1_655 S
C2213 C2214 1.369 . S
C2213 C2215 1.419 . S
C2213 H2217 0.930 . S
C2214 C2213 1.369 . S
C2214 C2223 1.429 . S
C2215 C2213 1.419 . S
C2215 C2216 1.363 . S
C2215 H2218 0.929 . S
C2216 C2215 1.363 . S
C2216 C2222 1.428 . S
H2217 C2213 0.930 . S
H2218 C2215 0.929 . S
S2219 N2220 1.613 . S
S2219 N2221 1.610 . S
N2220 S2219 1.613 . S
N2220 C2223 1.350 . S
N2221 S2219 1.610 . S
N2221 C2222 1.351 . S
C2222 C2216 1.428 . S
C2222 N2221 1.351 . S
C2222 C2223 1.434 . S
C2223 C2214 1.429 . S
C2223 N2220 1.350 . S
C2223 C2222 1.434 . S
C2224 C2225 1.369 . S
C2224 C2226 1.419 . S
C2224 H2228 0.930 . S
C2225 C2224 1.369 . S
C2225 C2234 1.429 . S
C2226 C2224 1.419 . S
C2226 C2227 1.363 . S
C2226 H2229 0.929 . S
C2227 C2226 1.363 . S
C2227 C2233 1.428 1_655 S
H2228 C2224 0.930 . S
H2229 C2226 0.929 . S
S2230 N2231 1.613 . S
S2230 N2232 1.610 . S
N2231 S2230 1.613 . S
N2231 C2234 1.350 1_455 S
N2232 S2230 1.610 . S
N2232 C2233 1.351 . S
C2233 C2227 1.428 1_455 S
C2233 N2232 1.351 . S
C2233 C2234 1.434 1_455 S
C2234 C2225 1.429 . S
C2234 N2231 1.350 1_655 S
C2234 C2233 1.434 1_655 S
C2235 C2236 1.369 . S
C2235 C2237 1.419 . S
C2235 H2239 0.930 . S
C2236 C2235 1.369 . S
C2236 C2245 1.429 . S
C2237 C2235 1.419 . S
C2237 C2238 1.363 . S
C2237 H2240 0.929 . S
C2238 C2237 1.363 . S
C2238 C2244 1.428 . S
H2239 C2235 0.930 . S
H2240 C2237 0.929 . S
S2241 N2242 1.613 . S
S2241 N2243 1.610 . S
N2242 S2241 1.613 . S
N2242 C2245 1.350 . S
N2243 S2241 1.610 . S
N2243 C2244 1.351 . S
C2244 C2238 1.428 . S
C2244 N2243 1.351 . S
C2244 C2245 1.434 . S
C2245 C2236 1.429 . S
C2245 N2242 1.350 . S
C2245 C2244 1.434 . S
C2246 C2247 1.369 . S
C2246 C2248 1.419 . S
C2246 H2250 0.930 . S
C2247 C2246 1.369 . S
C2247 C2256 1.429 . S
C2248 C2246 1.419 . S
C2248 C2249 1.363 . S
C2248 H2251 0.929 . S
C2249 C2248 1.363 . S
C2249 C2255 1.428 . S
H2250 C2246 0.930 . S
H2251 C2248 0.929 . S
S2252 N2253 1.613 . S
S2252 N2254 1.610 . S
N2253 S2252 1.613 . S
N2253 C2256 1.350 . S
N2254 S2252 1.610 . S
N2254 C2255 1.351 . S
C2255 C2249 1.428 . S
C2255 N2254 1.351 . S
C2255 C2256 1.434 . S
C2256 C2247 1.429 . S
C2256 N2253 1.350 . S
C2256 C2255 1.434 . S
C2257 C2258 1.369 . S
C2257 C2259 1.419 . S
C2257 H2261 0.930 . S
C2258 C2257 1.369 . S
C2258 C2267 1.429 . S
C2259 C2257 1.419 . S
C2259 C2260 1.363 . S
C2259 H2262 0.929 . S
C2260 C2259 1.363 . S
C2260 C2266 1.428 . S
H2261 C2257 0.930 . S
H2262 C2259 0.929 . S
S2263 N2264 1.613 . S
S2263 N2265 1.610 . S
N2264 S2263 1.613 . S
N2264 C2267 1.350 . S
N2265 S2263 1.610 . S
N2265 C2266 1.351 . S
C2266 C2260 1.428 . S
C2266 N2265 1.351 . S
C2266 C2267 1.434 . S
C2267 C2258 1.429 . S
C2267 N2264 1.350 . S
C2267 C2266 1.434 . S
C2268 C2269 1.369 . S
C2268 C2270 1.419 . S
C2268 H2272 0.930 . S
C2269 C2268 1.369 . S
C2269 C2278 1.429 . S
C2270 C2268 1.419 . S
C2270 C2271 1.363 . S
C2270 H2273 0.929 . S
C2271 C2270 1.363 . S
C2271 C2277 1.428 . S
H2272 C2268 0.930 . S
H2273 C2270 0.929 . S
S2274 N2275 1.613 . S
S2274 N2276 1.610 . S
N2275 S2274 1.613 . S
N2275 C2278 1.350 . S
N2276 S2274 1.610 . S
N2276 C2277 1.351 . S
C2277 C2271 1.428 . S
C2277 N2276 1.351 . S
C2277 C2278 1.434 . S
C2278 C2269 1.429 . S
C2278 N2275 1.350 . S
C2278 C2277 1.434 . S
C2279 C2280 1.369 . S
C2279 C2281 1.419 . S
C2279 H2283 0.930 . S
C2280 C2279 1.369 . S
C2280 C2289 1.429 . S
C2281 C2279 1.419 . S
C2281 C2282 1.363 . S
C2281 H2284 0.929 . S
C2282 C2281 1.363 . S
C2282 C2288 1.428 . S
H2283 C2279 0.930 . S
H2284 C2281 0.929 . S
S2285 N2286 1.613 . S
S2285 N2287 1.610 . S
N2286 S2285 1.613 . S
N2286 C2289 1.350 . S
N2287 S2285 1.610 . S
N2287 C2288 1.351 . S
C2288 C2282 1.428 . S
C2288 N2287 1.351 . S
C2288 C2289 1.434 . S
C2289 C2280 1.429 . S
C2289 N2286 1.350 . S
C2289 C2288 1.434 . S
C2290 C2291 1.369 . S
C2290 C2292 1.419 . S
C2290 H2294 0.930 . S
C2291 C2290 1.369 . S
C2291 C2300 1.429 . S
C2292 C2290 1.419 . S
C2292 C2293 1.363 . S
C2292 H2295 0.929 . S
C2293 C2292 1.363 . S
C2293 C2299 1.428 . S
H2294 C2290 0.930 . S
H2295 C2292 0.929 . S
S2296 N2297 1.613 . S
S2296 N2298 1.610 . S
N2297 S2296 1.613 . S
N2297 C2300 1.350 . S
N2298 S2296 1.610 . S
N2298 C2299 1.351 . S
C2299 C2293 1.428 . S
C2299 N2298 1.351 . S
C2299 C2300 1.434 . S
C2300 C2291 1.429 . S
C2300 N2297 1.350 . S
C2300 C2299 1.434 . S
C2301 C2302 1.369 . S
C2301 C2303 1.419 . S
C2301 H2305 0.930 . S
C2302 C2301 1.369 . S
C2302 C2311 1.429 . S
C2303 C2301 1.419 . S
C2303 C2304 1.363 . S
C2303 H2306 0.929 . S
C2304 C2303 1.363 . S
C2304 C2310 1.428 . S
H2305 C2301 0.930 . S
H2306 C2303 0.929 . S
S2307 N2308 1.613 . S
S2307 N2309 1.610 . S
N2308 S2307 1.613 . S
N2308 C2311 1.350 . S
N2309 S2307 1.610 . S
N2309 C2310 1.351 . S
C2310 C2304 1.428 . S
C2310 N2309 1.351 . S
C2310 C2311 1.434 . S
C2311 C2302 1.429 . S
C2311 N2308 1.350 . S
C2311 C2310 1.434 . S
C2312 C2313 1.369 . S
C2312 C2314 1.419 . S
C2312 H2316 0.930 . S
C2313 C2312 1.369 . S
C2313 C2322 1.429 . S
C2314 C2312 1.419 . S
C2314 C2315 1.363 . S
C2314 H2317 0.929 . S
C2315 C2314 1.363 . S
C2315 C2321 1.428 . S
H2316 C2312 0.930 . S
H2317 C2314 0.929 . S
S2318 N2319 1.613 . S
S2318 N2320 1.610 . S
N2319 S2318 1.613 . S
N2319 C2322 1.350 . S
N2320 S2318 1.610 . S
N2320 C2321 1.351 . S
C2321 C2315 1.428 . S
C2321 N2320 1.351 . S
C2321 C2322 1.434 . S
C2322 C2313 1.429 . S
C2322 N2319 1.350 . S
C2322 C2321 1.434 . S
C2323 C2324 1.369 . S
C2323 C2325 1.419 . S
C2323 H2327 0.930 . S
C2324 C2323 1.369 . S
C2324 C2333 1.429 . S
C2325 C2323 1.419 . S
C2325 C2326 1.363 . S
C2325 H2328 0.929 . S
C2326 C2325 1.363 . S
C2326 C2332 1.428 . S
H2327 C2323 0.930 . S
H2328 C2325 0.929 . S
S2329 N2330 1.613 . S
S2329 N2331 1.610 . S
N2330 S2329 1.613 . S
N2330 C2333 1.350 . S
N2331 S2329 1.610 . S
N2331 C2332 1.351 . S
C2332 C2326 1.428 . S
C2332 N2331 1.351 . S
C2332 C2333 1.434 . S
C2333 C2324 1.429 . S
C2333 N2330 1.350 . S
C2333 C2332 1.434 . S
C2334 C2335 1.369 . S
C2334 C2336 1.419 . S
C2334 H2338 0.930 . S
C2335 C2334 1.369 . S
C2335 C2344 1.429 . S
C2336 C2334 1.419 . S
C2336 C2337 1.363 . S
C2336 H2339 0.929 . S
C2337 C2336 1.363 . S
C2337 C2343 1.428 . S
H2338 C2334 0.930 . S
H2339 C2336 0.929 . S
S2340 N2341 1.613 1_556 S
S2340 N2342 1.610 . S
N2341 S2340 1.613 1_554 S
N2341 C2344 1.350 . S
N2342 S2340 1.610 . S
N2342 C2343 1.351 1_556 S
C2343 C2337 1.428 . S
C2343 N2342 1.351 1_554 S
C2343 C2344 1.434 . S
C2344 C2335 1.429 . S
C2344 N2341 1.350 . S
C2344 C2343 1.434 . S
C2345 C2346 1.369 . S
C2345 C2347 1.419 . S
C2345 H2349 0.930 . S
C2346 C2345 1.369 . S
C2346 C2355 1.429 . S
C2347 C2345 1.419 . S
C2347 C2348 1.363 . S
C2347 H2350 0.929 . S
C2348 C2347 1.363 . S
C2348 C2354 1.428 . S
H2349 C2345 0.930 . S
H2350 C2347 0.929 . S
S2351 N2352 1.613 . S
S2351 N2353 1.610 . S
N2352 S2351 1.613 . S
N2352 C2355 1.350 . S
N2353 S2351 1.610 . S
N2353 C2354 1.351 . S
C2354 C2348 1.428 . S
C2354 N2353 1.351 . S
C2354 C2355 1.434 . S
C2355 C2346 1.429 . S
C2355 N2352 1.350 . S
C2355 C2354 1.434 . S
C2356 C2357 1.369 . S
C2356 C2358 1.419 . S
C2356 H2360 0.930 . S
C2357 C2356 1.369 . S
C2357 C2366 1.429 . S
C2358 C2356 1.419 . S
C2358 C2359 1.363 . S
C2358 H2361 0.929 . S
C2359 C2358 1.363 . S
C2359 C2365 1.428 . S
H2360 C2356 0.930 . S
H2361 C2358 0.929 . S
S2362 N2363 1.613 . S
S2362 N2364 1.610 . S
N2363 S2362 1.613 . S
N2363 C2366 1.350 . S
N2364 S2362 1.610 . S
N2364 C2365 1.351 . S
C2365 C2359 1.428 . S
C2365 N2364 1.351 . S
C2365 C2366 1.434 . S
C2366 C2357 1.429 . S
C2366 N2363 1.350 . S
C2366 C2365 1.434 . S
C2367 C2368 1.369 . S
C2367 C2369 1.419 . S
C2367 H2371 0.930 . S
C2368 C2367 1.369 . S
C2368 C2377 1.429 . S
C2369 C2367 1.419 . S
C2369 C2370 1.363 . S
C2369 H2372 0.929 . S
C2370 C2369 1.363 . S
C2370 C2376 1.428 . S
H2371 C2367 0.930 . S
H2372 C2369 0.929 . S
S2373 N2374 1.613 . S
S2373 N2375 1.610 . S
N2374 S2373 1.613 . S
N2374 C2377 1.350 . S
N2375 S2373 1.610 . S
N2375 C2376 1.351 . S
C2376 C2370 1.428 . S
C2376 N2375 1.351 . S
C2376 C2377 1.434 . S
C2377 C2368 1.429 . S
C2377 N2374 1.350 . S
C2377 C2376 1.434 . S
C2378 C2379 1.369 . S
C2378 C2380 1.419 . S
C2378 H2382 0.930 . S
C2379 C2378 1.369 . S
C2379 C2388 1.429 . S
C2380 C2378 1.419 . S
C2380 C2381 1.363 . S
C2380 H2383 0.929 . S
C2381 C2380 1.363 . S
C2381 C2387 1.428 . S
H2382 C2378 0.930 . S
H2383 C2380 0.929 . S
S2384 N2385 1.613 . S
S2384 N2386 1.610 . S
N2385 S2384 1.613 . S
N2385 C2388 1.350 . S
N2386 S2384 1.610 . S
N2386 C2387 1.351 . S
C2387 C2381 1.428 . S
C2387 N2386 1.351 . S
C2387 C2388 1.434 . S
C2388 C2379 1.429 . S
C2388 N2385 1.350 . S
C2388 C2387 1.434 . S
C2389 C2390 1.369 . S
C2389 C2391 1.419 . S
C2389 H2393 0.930 . S
C2390 C2389 1.369 . S
C2390 C2399 1.429 . S
C2391 C2389 1.419 . S
C2391 C2392 1.363 . S
C2391 H2394 0.929 . S
C2392 C2391 1.363 . S
C2392 C2398 1.428 . S
H2393 C2389 0.930 . S
H2394 C2391 0.929 . S
S2395 N2396 1.613 . S
S2395 N2397 1.610 . S
N2396 S2395 1.613 . S
N2396 C2399 1.350 . S
N2397 S2395 1.610 . S
N2397 C2398 1.351 . S
C2398 C2392 1.428 . S
C2398 N2397 1.351 . S
C2398 C2399 1.434 . S
C2399 C2390 1.429 . S
C2399 N2396 1.350 . S
C2399 C2398 1.434 . S
C2400 C2401 1.369 . S
C2400 C2402 1.419 . S
C2400 H2404 0.930 . S
C2401 C2400 1.369 . S
C2401 C2410 1.429 . S
C2402 C2400 1.419 . S
C2402 C2403 1.363 . S
C2402 H2405 0.929 . S
C2403 C2402 1.363 . S
C2403 C2409 1.428 . S
H2404 C2400 0.930 . S
H2405 C2402 0.929 . S
S2406 N2407 1.613 . S
S2406 N2408 1.610 . S
N2407 S2406 1.613 . S
N2407 C2410 1.350 . S
N2408 S2406 1.610 . S
N2408 C2409 1.351 . S
C2409 C2403 1.428 . S
C2409 N2408 1.351 . S
C2409 C2410 1.434 . S
C2410 C2401 1.429 . S
C2410 N2407 1.350 . S
C2410 C2409 1.434 . S
C2411 C2412 1.369 . S
C2411 C2413 1.419 . S
C2411 H2415 0.930 . S
C2412 C2411 1.369 . S
C2412 C2421 1.429 . S
C2413 C2411 1.419 . S
C2413 C2414 1.363 . S
C2413 H2416 0.929 . S
C2414 C2413 1.363 . S
C2414 C2420 1.428 . S
H2415 C2411 0.930 . S
H2416 C2413 0.929 . S
S2417 N2418 1.613 . S
S2417 N2419 1.610 . S
N2418 S2417 1.613 . S
N2418 C2421 1.350 . S
N2419 S2417 1.610 . S
N2419 C2420 1.351 . S
C2420 C2414 1.428 . S
C2420 N2419 1.351 . S
C2420 C2421 1.434 . S
C2421 C2412 1.429 . S
C2421 N2418 1.350 . S
C2421 C2420 1.434 . S
C2422 C2423 1.369 . S
C2422 C2424 1.419 . S
C2422 H2426 0.930 . S
C2423 C2422 1.369 . S
C2423 C2432 1.429 . S
C2424 C2422 1.419 . S
C2424 C2425 1.363 . S
C2424 H2427 0.929 . S
C2425 C2424 1.363 . S
C2425 C2431 1.428 . S
H2426 C2422 0.930 . S
H2427 C2424 0.929 . S
S2428 N2429 1.613 . S
S2428 N2430 1.610 . S
N2429 S2428 1.613 . S
N2429 C2432 1.350 . S
N2430 S2428 1.610 . S
N2430 C2431 1.351 . S
C2431 C2425 1.428 . S
C2431 N2430 1.351 . S
C2431 C2432 1.434 . S
C2432 C2423 1.429 . S
C2432 N2429 1.350 . S
C2432 C2431 1.434 . S
C2433 C2434 1.369 . S
C2433 C2435 1.419 . S
C2433 H2437 0.930 . S
C2434 C2433 1.369 . S
C2434 C2443 1.429 . S
C2435 C2433 1.419 . S
C2435 C2436 1.363 . S
C2435 H2438 0.929 . S
C2436 C2435 1.363 . S
C2436 C2442 1.428 . S
H2437 C2433 0.930 . S
H2438 C2435 0.929 . S
S2439 N2440 1.613 . S
S2439 N2441 1.610 . S
N2440 S2439 1.613 . S
N2440 C2443 1.350 . S
N2441 S2439 1.610 . S
N2441 C2442 1.351 . S
C2442 C2436 1.428 . S
C2442 N2441 1.351 . S
C2442 C2443 1.434 . S
C2443 C2434 1.429 . S
C2443 N2440 1.350 . S
C2443 C2442 1.434 . S
C2444 C2445 1.369 . S
C2444 C2446 1.419 . S
C2444 H2448 0.930 . S
C2445 C2444 1.369 . S
C2445 C2454 1.429 . S
C2446 C2444 1.419 . S
C2446 C2447 1.363 . S
C2446 H2449 0.929 . S
C2447 C2446 1.363 . S
C2447 C2453 1.428 . S
H2448 C2444 0.930 . S
H2449 C2446 0.929 . S
S2450 N2451 1.613 . S
S2450 N2452 1.610 . S
N2451 S2450 1.613 . S
N2451 C2454 1.350 . S
N2452 S2450 1.610 . S
N2452 C2453 1.351 . S
C2453 C2447 1.428 . S
C2453 N2452 1.351 . S
C2453 C2454 1.434 . S
C2454 C2445 1.429 . S
C2454 N2451 1.350 . S
C2454 C2453 1.434 . S
C2455 C2456 1.369 . S
C2455 C2457 1.419 . S
C2455 H2459 0.930 . S
C2456 C2455 1.369 . S
C2456 C2465 1.429 . S
C2457 C2455 1.419 . S
C2457 C2458 1.363 . S
C2457 H2460 0.929 . S
C2458 C2457 1.363 . S
C2458 C2464 1.428 . S
H2459 C2455 0.930 . S
H2460 C2457 0.929 . S
S2461 N2462 1.613 . S
S2461 N2463 1.610 . S
N2462 S2461 1.613 . S
N2462 C2465 1.350 . S
N2463 S2461 1.610 . S
N2463 C2464 1.351 . S
C2464 C2458 1.428 . S
C2464 N2463 1.351 . S
C2464 C2465 1.434 . S
C2465 C2456 1.429 . S
C2465 N2462 1.350 . S
C2465 C2464 1.434 . S
C2466 C2467 1.369 . S
C2466 C2468 1.419 . S
C2466 H2470 0.930 . S
C2467 C2466 1.369 . S
C2467 C2476 1.429 . S
C2468 C2466 1.419 . S
C2468 C2469 1.363 . S
C2468 H2471 0.929 . S
C2469 C2468 1.363 . S
C2469 C2475 1.428 . S
H2470 C2466 0.930 . S
H2471 C2468 0.929 . S
S2472 N2473 1.613 . S
S2472 N2474 1.610 . S
N2473 S2472 1.613 . S
N2473 C2476 1.350 . S
N2474 S2472 1.610 . S
N2474 C2475 1.351 . S
C2475 C2469 1.428 . S
C2475 N2474 1.351 . S
C2475 C2476 1.434 . S
C2476 C2467 1.429 . S
C2476 N2473 1.350 . S
C2476 C2475 1.434 . S
C2477 C2478 1.369 . S
C2477 C2479 1.419 . S
C2477 H2481 0.930 . S
C2478 C2477 1.369 . S
C2478 C2487 1.429 . S
C2479 C2477 1.419 . S
C2479 C2480 1.363 . S
C2479 H2482 0.929 . S
C2480 C2479 1.363 . S
C2480 C2486 1.428 . S
H2481 C2477 0.930 . S
H2482 C2479 0.929 . S
S2483 N2484 1.613 . S
S2483 N2485 1.610 . S
N2484 S2483 1.613 . S
N2484 C2487 1.350 . S
N2485 S2483 1.610 . S
N2485 C2486 1.351 . S
C2486 C2480 1.428 . S
C2486 N2485 1.351 . S
C2486 C2487 1.434 . S
C2487 C2478 1.429 . S
C2487 N2484 1.350 . S
C2487 C2486 1.434 . S
C2488 C2489 1.369 . S
C2488 C2490 1.419 . S
C2488 H2492 0.930 . S
C2489 C2488 1.369 . S
C2489 C2498 1.429 . S
C2490 C2488 1.419 . S
C2490 C2491 1.363 . S
C2490 H2493 0.929 . S
C2491 C2490 1.363 . S
C2491 C2497 1.428 . S
H2492 C2488 0.930 . S
H2493 C2490 0.929 . S
S2494 N2495 1.613 . S
S2494 N2496 1.610 . S
N2495 S2494 1.613 . S
N2495 C2498 1.350 . S
N2496 S2494 1.610 . S
N2496 C2497 1.351 . S
C2497 C2491 1.428 . S
C2497 N2496 1.351 . S
C2497 C2498 1.434 . S
C2498 C2489 1.429 . S
C2498 N2495 1.350 . S
C2498 C2497 1.434 . S
C2499 C2500 1.369 . S
C2499 C2501 1.419 . S
C2499 H2503 0.930 . S
C2500 C2499 1.369 . S
C2500 C2509 1.429 . S
C2501 C2499 1.419 . S
C2501 C2502 1.363 . S
C2501 H2504 0.929 . S
C2502 C2501 1.363 . S
C2502 C2508 1.428 . S
H2503 C2499 0.930 . S
H2504 C2501 0.929 . S
S2505 N2506 1.613 . S
S2505 N2507 1.610 . S
N2506 S2505 1.613 . S
N2506 C2509 1.350 . S
N2507 S2505 1.610 . S
N2507 C2508 1.351 . S
C2508 C2502 1.428 . S
C2508 N2507 1.351 . S
C2508 C2509 1.434 . S
C2509 C2500 1.429 . S
C2509 N2506 1.350 . S
C2509 C2508 1.434 . S
C2510 C2511 1.369 . S
C2510 C2512 1.419 . S
C2510 H2514 0.930 . S
C2511 C2510 1.369 . S
C2511 C2520 1.429 . S
C2512 C2510 1.419 . S
C2512 C2513 1.363 . S
C2512 H2515 0.929 . S
C2513 C2512 1.363 . S
C2513 C2519 1.428 . S
H2514 C2510 0.930 . S
H2515 C2512 0.929 . S
S2516 N2517 1.613 . S
S2516 N2518 1.610 . S
N2517 S2516 1.613 . S
N2517 C2520 1.350 . S
N2518 S2516 1.610 . S
N2518 C2519 1.351 . S
C2519 C2513 1.428 . S
C2519 N2518 1.351 . S
C2519 C2520 1.434 . S
C2520 C2511 1.429 . S
C2520 N2517 1.350 . S
C2520 C2519 1.434 . S
C2521 C2522 1.369 . S
C2521 C2523 1.419 . S
C2521 H2525 0.930 . S
C2522 C2521 1.369 . S
C2522 C2531 1.429 . S
C2523 C2521 1.419 . S
C2523 C2524 1.363 . S
C2523 H2526 0.929 . S
C2524 C2523 1.363 . S
C2524 C2530 1.428 . S
H2525 C2521 0.930 . S
H2526 C2523 0.929 . S
S2527 N2528 1.613 . S
S2527 N2529 1.610 . S
N2528 S2527 1.613 . S
N2528 C2531 1.350 . S
N2529 S2527 1.610 . S
N2529 C2530 1.351 . S
C2530 C2524 1.428 . S
C2530 N2529 1.351 . S
C2530 C2531 1.434 . S
C2531 C2522 1.429 . S
C2531 N2528 1.350 . S
C2531 C2530 1.434 . S
C2532 C2533 1.369 . S
C2532 C2534 1.419 . S
C2532 H2536 0.930 . S
C2533 C2532 1.369 . S
C2533 C2542 1.429 . S
C2534 C2532 1.419 . S
C2534 C2535 1.363 . S
C2534 H2537 0.929 . S
C2535 C2534 1.363 . S
C2535 C2541 1.428 . S
H2536 C2532 0.930 . S
H2537 C2534 0.929 . S
S2538 N2539 1.613 . S
S2538 N2540 1.610 . S
N2539 S2538 1.613 . S
N2539 C2542 1.350 . S
N2540 S2538 1.610 . S
N2540 C2541 1.351 . S
C2541 C2535 1.428 . S
C2541 N2540 1.351 . S
C2541 C2542 1.434 . S
C2542 C2533 1.429 . S
C2542 N2539 1.350 . S
C2542 C2541 1.434 . S
C2543 C2544 1.369 . S
C2543 C2545 1.419 . S
C2543 H2547 0.930 . S
C2544 C2543 1.369 . S
C2544 C2553 1.429 . S
C2545 C2543 1.419 . S
C2545 C2546 1.363 . S
C2545 H2548 0.929 . S
C2546 C2545 1.363 . S
C2546 C2552 1.428 . S
H2547 C2543 0.930 . S
H2548 C2545 0.929 . S
S2549 N2550 1.613 . S
S2549 N2551 1.610 . S
N2550 S2549 1.613 . S
N2550 C2553 1.350 . S
N2551 S2549 1.610 . S
N2551 C2552 1.351 . S
C2552 C2546 1.428 . S
C2552 N2551 1.351 . S
C2552 C2553 1.434 . S
C2553 C2544 1.429 . S
C2553 N2550 1.350 . S
C2553 C2552 1.434 . S
C2554 C2555 1.369 . S
C2554 C2556 1.419 . S
C2554 H2558 0.930 . S
C2555 C2554 1.369 . S
C2555 C2564 1.429 . S
C2556 C2554 1.419 . S
C2556 C2557 1.363 . S
C2556 H2559 0.929 . S
C2557 C2556 1.363 . S
C2557 C2563 1.428 . S
H2558 C2554 0.930 . S
H2559 C2556 0.929 . S
S2560 N2561 1.613 . S
S2560 N2562 1.610 . S
N2561 S2560 1.613 . S
N2561 C2564 1.350 . S
N2562 S2560 1.610 . S
N2562 C2563 1.351 . S
C2563 C2557 1.428 . S
C2563 N2562 1.351 . S
C2563 C2564 1.434 . S
C2564 C2555 1.429 . S
C2564 N2561 1.350 . S
C2564 C2563 1.434 . S
C2565 C2566 1.369 . S
C2565 C2567 1.419 . S
C2565 H2569 0.930 . S
C2566 C2565 1.369 . S
C2566 C2575 1.429 . S
C2567 C2565 1.419 . S
C2567 C2568 1.363 . S
C2567 H2570 0.929 . S
C2568 C2567 1.363 . S
C2568 C2574 1.428 . S
H2569 C2565 0.930 . S
H2570 C2567 0.929 . S
S2571 N2572 1.613 . S
S2571 N2573 1.610 . S
N2572 S2571 1.613 . S
N2572 C2575 1.350 . S
N2573 S2571 1.610 . S
N2573 C2574 1.351 . S
C2574 C2568 1.428 . S
C2574 N2573 1.351 . S
C2574 C2575 1.434 . S
C2575 C2566 1.429 . S
C2575 N2572 1.350 . S
C2575 C2574 1.434 . S
C2576 C2577 1.369 . S
C2576 C2578 1.419 . S
C2576 H2580 0.930 . S
C2577 C2576 1.369 . S
C2577 C2586 1.429 . S
C2578 C2576 1.419 . S
C2578 C2579 1.363 . S
C2578 H2581 0.929 . S
C2579 C2578 1.363 . S
C2579 C2585 1.428 . S
H2580 C2576 0.930 . S
H2581 C2578 0.929 . S
S2582 N2583 1.613 . S
S2582 N2584 1.610 . S
N2583 S2582 1.613 . S
N2583 C2586 1.350 . S
N2584 S2582 1.610 . S
N2584 C2585 1.351 . S
C2585 C2579 1.428 . S
C2585 N2584 1.351 . S
C2585 C2586 1.434 . S
C2586 C2577 1.429 . S
C2586 N2583 1.350 . S
C2586 C2585 1.434 . S
C2587 C2588 1.369 . S
C2587 C2589 1.419 . S
C2587 H2591 0.930 . S
C2588 C2587 1.369 . S
C2588 C2597 1.429 . S
C2589 C2587 1.419 . S
C2589 C2590 1.363 . S
C2589 H2592 0.929 . S
C2590 C2589 1.363 . S
C2590 C2596 1.428 . S
H2591 C2587 0.930 . S
H2592 C2589 0.929 . S
S2593 N2594 1.613 . S
S2593 N2595 1.610 . S
N2594 S2593 1.613 . S
N2594 C2597 1.350 . S
N2595 S2593 1.610 . S
N2595 C2596 1.351 . S
C2596 C2590 1.428 . S
C2596 N2595 1.351 . S
C2596 C2597 1.434 . S
C2597 C2588 1.429 . S
C2597 N2594 1.350 . S
C2597 C2596 1.434 . S
C2598 C2599 1.369 . S
C2598 C2600 1.419 . S
C2598 H2602 0.930 . S
C2599 C2598 1.369 . S
C2599 C2608 1.429 . S
C2600 C2598 1.419 . S
C2600 C2601 1.363 . S
C2600 H2603 0.929 . S
C2601 C2600 1.363 . S
C2601 C2607 1.428 . S
H2602 C2598 0.930 . S
H2603 C2600 0.929 . S
S2604 N2605 1.613 . S
S2604 N2606 1.610 . S
N2605 S2604 1.613 . S
N2605 C2608 1.350 . S
N2606 S2604 1.610 . S
N2606 C2607 1.351 . S
C2607 C2601 1.428 . S
C2607 N2606 1.351 . S
C2607 C2608 1.434 . S
C2608 C2599 1.429 . S
C2608 N2605 1.350 . S
C2608 C2607 1.434 . S
C2609 C2610 1.369 . S
C2609 C2611 1.419 . S
C2609 H2613 0.930 . S
C2610 C2609 1.369 . S
C2610 C2619 1.429 . S
C2611 C2609 1.419 . S
C2611 C2612 1.363 . S
C2611 H2614 0.929 . S
C2612 C2611 1.363 . S
C2612 C2618 1.428 . S
H2613 C2609 0.930 . S
H2614 C2611 0.929 . S
S2615 N2616 1.613 . S
S2615 N2617 1.610 . S
N2616 S2615 1.613 . S
N2616 C2619 1.350 . S
N2617 S2615 1.610 . S
N2617 C2618 1.351 . S
C2618 C2612 1.428 . S
C2618 N2617 1.351 . S
C2618 C2619 1.434 . S
C2619 C2610 1.429 . S
C2619 N2616 1.350 . S
C2619 C2618 1.434 . S
C2620 C2621 1.369 . S
C2620 C2622 1.419 . S
C2620 H2624 0.930 . S
C2621 C2620 1.369 . S
C2621 C2630 1.429 . S
C2622 C2620 1.419 . S
C2622 C2623 1.363 . S
C2622 H2625 0.929 . S
C2623 C2622 1.363 . S
C2623 C2629 1.428 . S
H2624 C2620 0.930 . S
H2625 C2622 0.929 . S
S2626 N2627 1.613 . S
S2626 N2628 1.610 . S
N2627 S2626 1.613 . S
N2627 C2630 1.350 . S
N2628 S2626 1.610 . S
N2628 C2629 1.351 . S
C2629 C2623 1.428 . S
C2629 N2628 1.351 . S
C2629 C2630 1.434 . S
C2630 C2621 1.429 . S
C2630 N2627 1.350 . S
C2630 C2629 1.434 . S
C2631 C2632 1.369 . S
C2631 C2633 1.419 . S
C2631 H2635 0.930 . S
C2632 C2631 1.369 . S
C2632 C2641 1.429 . S
C2633 C2631 1.419 . S
C2633 C2634 1.363 . S
C2633 H2636 0.929 . S
C2634 C2633 1.363 . S
C2634 C2640 1.428 . S
H2635 C2631 0.930 . S
H2636 C2633 0.929 . S
S2637 N2638 1.613 . S
S2637 N2639 1.610 . S
N2638 S2637 1.613 . S
N2638 C2641 1.350 . S
N2639 S2637 1.610 . S
N2639 C2640 1.351 . S
C2640 C2634 1.428 . S
C2640 N2639 1.351 . S
C2640 C2641 1.434 . S
C2641 C2632 1.429 . S
C2641 N2638 1.350 . S
C2641 C2640 1.434 . S
C2642 C2643 1.369 . S
C2642 C2644 1.419 . S
C2642 H2646 0.930 . S
C2643 C2642 1.369 . S
C2643 C2652 1.429 . S
C2644 C2642 1.419 . S
C2644 C2645 1.363 . S
C2644 H2647 0.929 . S
C2645 C2644 1.363 . S
C2645 C2651 1.428 . S
H2646 C2642 0.930 . S
H2647 C2644 0.929 . S
S2648 N2649 1.613 . S
S2648 N2650 1.610 . S
N2649 S2648 1.613 . S
N2649 C2652 1.350 . S
N2650 S2648 1.610 . S
N2650 C2651 1.351 . S
C2651 C2645 1.428 . S
C2651 N2650 1.351 . S
C2651 C2652 1.434 . S
C2652 C2643 1.429 . S
C2652 N2649 1.350 . S
C2652 C2651 1.434 . S
C2653 C2654 1.369 . S
C2653 C2655 1.419 . S
C2653 H2657 0.930 . S
C2654 C2653 1.369 . S
C2654 C2663 1.429 . S
C2655 C2653 1.419 . S
C2655 C2656 1.363 . S
C2655 H2658 0.929 . S
C2656 C2655 1.363 . S
C2656 C2662 1.428 . S
H2657 C2653 0.930 . S
H2658 C2655 0.929 . S
S2659 N2660 1.613 . S
S2659 N2661 1.610 . S
N2660 S2659 1.613 . S
N2660 C2663 1.350 . S
N2661 S2659 1.610 . S
N2661 C2662 1.351 . S
C2662 C2656 1.428 . S
C2662 N2661 1.351 . S
C2662 C2663 1.434 . S
C2663 C2654 1.429 . S
C2663 N2660 1.350 . S
C2663 C2662 1.434 . S
C2664 C2665 1.369 . S
C2664 C2666 1.419 . S
C2664 H2668 0.930 . S
C2665 C2664 1.369 . S
C2665 C2674 1.429 . S
C2666 C2664 1.419 . S
C2666 C2667 1.363 . S
C2666 H2669 0.929 . S
C2667 C2666 1.363 . S
C2667 C2673 1.428 . S
H2668 C2664 0.930 . S
H2669 C2666 0.929 . S
S2670 N2671 1.613 . S
S2670 N2672 1.610 . S
N2671 S2670 1.613 . S
N2671 C2674 1.350 . S
N2672 S2670 1.610 . S
N2672 C2673 1.351 . S
C2673 C2667 1.428 . S
C2673 N2672 1.351 . S
C2673 C2674 1.434 . S
C2674 C2665 1.429 . S
C2674 N2671 1.350 . S
C2674 C2673 1.434 . S
C2675 C2676 1.369 . S
C2675 C2677 1.419 . S
C2675 H2679 0.930 . S
C2676 C2675 1.369 . S
C2676 C2685 1.429 . S
C2677 C2675 1.419 . S
C2677 C2678 1.363 . S
C2677 H2680 0.929 . S
C2678 C2677 1.363 . S
C2678 C2684 1.428 . S
H2679 C2675 0.930 . S
H2680 C2677 0.929 . S
S2681 N2682 1.613 . S
S2681 N2683 1.610 . S
N2682 S2681 1.613 . S
N2682 C2685 1.350 . S
N2683 S2681 1.610 . S
N2683 C2684 1.351 . S
C2684 C2678 1.428 . S
C2684 N2683 1.351 . S
C2684 C2685 1.434 . S
C2685 C2676 1.429 . S
C2685 N2682 1.350 . S
C2685 C2684 1.434 . S
C2686 C2687 1.369 . S
C2686 C2688 1.419 . S
C2686 H2690 0.930 . S
C2687 C2686 1.369 . S
C2687 C2696 1.429 . S
C2688 C2686 1.419 . S
C2688 C2689 1.363 . S
C2688 H2691 0.929 . S
C2689 C2688 1.363 . S
C2689 C2695 1.428 . S
H2690 C2686 0.930 . S
H2691 C2688 0.929 . S
S2692 N2693 1.613 . S
S2692 N2694 1.610 . S
N2693 S2692 1.613 . S
N2693 C2696 1.350 . S
N2694 S2692 1.610 . S
N2694 C2695 1.351 . S
C2695 C2689 1.428 . S
C2695 N2694 1.351 . S
C2695 C2696 1.434 . S
C2696 C2687 1.429 . S
C2696 N2693 1.350 . S
C2696 C2695 1.434 . S
C2697 C2698 1.369 . S
C2697 C2699 1.419 . S
C2697 H2701 0.930 . S
C2698 C2697 1.369 . S
C2698 C2707 1.429 . S
C2699 C2697 1.419 . S
C2699 C2700 1.363 . S
C2699 H2702 0.929 . S
C2700 C2699 1.363 . S
C2700 C2706 1.428 . S
H2701 C2697 0.930 . S
H2702 C2699 0.929 . S
S2703 N2704 1.613 . S
S2703 N2705 1.610 . S
N2704 S2703 1.613 . S
N2704 C2707 1.350 . S
N2705 S2703 1.610 . S
N2705 C2706 1.351 . S
C2706 C2700 1.428 . S
C2706 N2705 1.351 . S
C2706 C2707 1.434 . S
C2707 C2698 1.429 . S
C2707 N2704 1.350 . S
C2707 C2706 1.434 . S
C2708 C2709 1.369 . S
C2708 C2710 1.419 . S
C2708 H2712 0.930 . S
C2709 C2708 1.369 . S
C2709 C2718 1.429 . S
C2710 C2708 1.419 . S
C2710 C2711 1.363 . S
C2710 H2713 0.929 . S
C2711 C2710 1.363 . S
C2711 C2717 1.428 . S
H2712 C2708 0.930 . S
H2713 C2710 0.929 . S
S2714 N2715 1.613 . S
S2714 N2716 1.610 . S
N2715 S2714 1.613 . S
N2715 C2718 1.350 . S
N2716 S2714 1.610 . S
N2716 C2717 1.351 . S
C2717 C2711 1.428 . S
C2717 N2716 1.351 . S
C2717 C2718 1.434 . S
C2718 C2709 1.429 . S
C2718 N2715 1.350 . S
C2718 C2717 1.434 . S
C2719 C2720 1.369 . S
C2719 C2721 1.419 . S
C2719 H2723 0.930 . S
C2720 C2719 1.369 . S
C2720 C2729 1.429 . S
C2721 C2719 1.419 . S
C2721 C2722 1.363 . S
C2721 H2724 0.929 . S
C2722 C2721 1.363 . S
C2722 C2728 1.428 . S
H2723 C2719 0.930 . S
H2724 C2721 0.929 . S
S2725 N2726 1.613 . S
S2725 N2727 1.610 . S
N2726 S2725 1.613 . S
N2726 C2729 1.350 . S
N2727 S2725 1.610 . S
N2727 C2728 1.351 . S
C2728 C2722 1.428 . S
C2728 N2727 1.351 . S
C2728 C2729 1.434 . S
C2729 C2720 1.429 . S
C2729 N2726 1.350 . S
C2729 C2728 1.434 . S
C2730 C2731 1.369 . S
C2730 C2732 1.419 . S
C2730 H2734 0.930 . S
C2731 C2730 1.369 . S
C2731 C2740 1.429 . S
C2732 C2730 1.419 . S
C2732 C2733 1.363 . S
C2732 H2735 0.929 . S
C2733 C2732 1.363 . S
C2733 C2739 1.428 . S
H2734 C2730 0.930 . S
H2735 C2732 0.929 . S
S2736 N2737 1.613 . S
S2736 N2738 1.610 . S
N2737 S2736 1.613 . S
N2737 C2740 1.350 . S
N2738 S2736 1.610 . S
N2738 C2739 1.351 . S
C2739 C2733 1.428 . S
C2739 N2738 1.351 . S
C2739 C2740 1.434 . S
C2740 C2731 1.429 . S
C2740 N2737 1.350 . S
C2740 C2739 1.434 . S
C2741 C2742 1.369 . S
C2741 C2743 1.419 . S
C2741 H2745 0.930 . S
C2742 C2741 1.369 . S
C2742 C2751 1.429 . S
C2743 C2741 1.419 . S
C2743 C2744 1.363 . S
C2743 H2746 0.929 . S
C2744 C2743 1.363 . S
C2744 C2750 1.428 . S
H2745 C2741 0.930 . S
H2746 C2743 0.929 . S
S2747 N2748 1.613 . S
S2747 N2749 1.610 . S
N2748 S2747 1.613 . S
N2748 C2751 1.350 . S
N2749 S2747 1.610 . S
N2749 C2750 1.351 . S
C2750 C2744 1.428 . S
C2750 N2749 1.351 . S
C2750 C2751 1.434 . S
C2751 C2742 1.429 . S
C2751 N2748 1.350 . S
C2751 C2750 1.434 . S
C2752 C2753 1.369 . S
C2752 C2754 1.419 . S
C2752 H2756 0.930 . S
C2753 C2752 1.369 . S
C2753 C2762 1.429 . S
C2754 C2752 1.419 . S
C2754 C2755 1.363 . S
C2754 H2757 0.929 . S
C2755 C2754 1.363 . S
C2755 C2761 1.428 . S
H2756 C2752 0.930 . S
H2757 C2754 0.929 . S
S2758 N2759 1.613 . S
S2758 N2760 1.610 . S
N2759 S2758 1.613 . S
N2759 C2762 1.350 . S
N2760 S2758 1.610 . S
N2760 C2761 1.351 . S
C2761 C2755 1.428 . S
C2761 N2760 1.351 . S
C2761 C2762 1.434 . S
C2762 C2753 1.429 . S
C2762 N2759 1.350 . S
C2762 C2761 1.434 . S
C2763 C2764 1.369 . S
C2763 C2765 1.419 . S
C2763 H2767 0.930 . S
C2764 C2763 1.369 . S
C2764 C2773 1.429 . S
C2765 C2763 1.419 . S
C2765 C2766 1.363 . S
C2765 H2768 0.929 . S
C2766 C2765 1.363 . S
C2766 C2772 1.428 . S
H2767 C2763 0.930 . S
H2768 C2765 0.929 . S
S2769 N2770 1.613 . S
S2769 N2771 1.610 . S
N2770 S2769 1.613 . S
N2770 C2773 1.350 . S
N2771 S2769 1.610 . S
N2771 C2772 1.351 . S
C2772 C2766 1.428 . S
C2772 N2771 1.351 . S
C2772 C2773 1.434 . S
C2773 C2764 1.429 . S
C2773 N2770 1.350 . S
C2773 C2772 1.434 . S
C2774 C2775 1.369 . S
C2774 C2776 1.419 . S
C2774 H2778 0.930 . S
C2775 C2774 1.369 . S
C2775 C2784 1.429 . S
C2776 C2774 1.419 . S
C2776 C2777 1.363 . S
C2776 H2779 0.929 . S
C2777 C2776 1.363 . S
C2777 C2783 1.428 . S
H2778 C2774 0.930 . S
H2779 C2776 0.929 . S
S2780 N2781 1.613 . S
S2780 N2782 1.610 . S
N2781 S2780 1.613 . S
N2781 C2784 1.350 . S
N2782 S2780 1.610 . S
N2782 C2783 1.351 . S
C2783 C2777 1.428 . S
C2783 N2782 1.351 . S
C2783 C2784 1.434 . S
C2784 C2775 1.429 . S
C2784 N2781 1.350 . S
C2784 C2783 1.434 . S
C2785 C2786 1.369 . S
C2785 C2787 1.419 . S
C2785 H2789 0.930 . S
C2786 C2785 1.369 . S
C2786 C2795 1.429 . S
C2787 C2785 1.419 . S
C2787 C2788 1.363 . S
C2787 H2790 0.929 . S
C2788 C2787 1.363 . S
C2788 C2794 1.428 . S
H2789 C2785 0.930 . S
H2790 C2787 0.929 . S
S2791 N2792 1.613 . S
S2791 N2793 1.610 . S
N2792 S2791 1.613 . S
N2792 C2795 1.350 . S
N2793 S2791 1.610 . S
N2793 C2794 1.351 . S
C2794 C2788 1.428 . S
C2794 N2793 1.351 . S
C2794 C2795 1.434 . S
C2795 C2786 1.429 . S
C2795 N2792 1.350 . S
C2795 C2794 1.434 . S
C2796 C2797 1.369 . S
C2796 C2798 1.419 . S
C2796 H2800 0.930 . S
C2797 C2796 1.369 . S
C2797 C2806 1.429 . S
C2798 C2796 1.419 . S
C2798 C2799 1.363 . S
C2798 H2801 0.929 . S
C2799 C2798 1.363 . S
C2799 C2805 1.428 . S
H2800 C2796 0.930 . S
H2801 C2798 0.929 . S
S2802 N2803 1.613 . S
S2802 N2804 1.610 . S
N2803 S2802 1.613 . S
N2803 C2806 1.350 . S
N2804 S2802 1.610 . S
N2804 C2805 1.351 . S
C2805 C2799 1.428 . S
C2805 N2804 1.351 . S
C2805 C2806 1.434 . S
C2806 C2797 1.429 . S
C2806 N2803 1.350 . S
C2806 C2805 1.434 . S
C2807 C2808 1.369 . S
C2807 C2809 1.419 . S
C2807 H2811 0.930 . S
C2808 C2807 1.369 . S
C2808 C2817 1.429 . S
C2809 C2807 1.419 . S
C2809 C2810 1.363 . S
C2809 H2812 0.929 . S
C2810 C2809 1.363 . S
C2810 C2816 1.428 . S
H2811 C2807 0.930 . S
H2812 C2809 0.929 . S
S2813 N2814 1.613 . S
S2813 N2815 1.610 . S
N2814 S2813 1.613 . S
N2814 C2817 1.350 . S
N2815 S2813 1.610 . S
N2815 C2816 1.351 . S
C2816 C2810 1.428 . S
C2816 N2815 1.351 . S
C2816 C2817 1.434 . S
C2817 C2808 1.429 . S
C2817 N2814 1.350 . S
C2817 C2816 1.434 . S
C2818 C2819 1.369 . S
C2818 C2820 1.419 . S
C2818 H2822 0.930 . S
C2819 C2818 1.369 . S
C2819 C2828 1.429 . S
C2820 C2818 1.419 . S
C2820 C2821 1.363 . S
C2820 H2823 0.929 . S
C2821 C2820 1.363 . S
C2821 C2827 1.428 . S
H2822 C2818 0.930 . S
H2823 C2820 0.929 . S
S2824 N2825 1.613 . S
S2824 N2826 1.610 . S
N2825 S2824 1.613 . S
N2825 C2828 1.350 . S
N2826 S2824 1.610 . S
N2826 C2827 1.351 . S
C2827 C2821 1.428 . S
C2827 N2826 1.351 . S
C2827 C2828 1.434 . S
C2828 C2819 1.429 . S
C2828 N2825 1.350 . S
C2828 C2827 1.434 . S
C2829 C2830 1.369 . S
C2829 C2831 1.419 . S
C2829 H2833 0.930 . S
C2830 C2829 1.369 . S
C2830 C2839 1.429 . S
C2831 C2829 1.419 . S
C2831 C2832 1.363 . S
C2831 H2834 0.929 . S
C2832 C2831 1.363 . S
C2832 C2838 1.428 . S
H2833 C2829 0.930 . S
H2834 C2831 0.929 . S
S2835 N2836 1.613 . S
S2835 N2837 1.610 . S
N2836 S2835 1.613 . S
N2836 C2839 1.350 . S
N2837 S2835 1.610 . S
N2837 C2838 1.351 . S
C2838 C2832 1.428 . S
C2838 N2837 1.351 . S
C2838 C2839 1.434 . S
C2839 C2830 1.429 . S
C2839 N2836 1.350 . S
C2839 C2838 1.434 . S
C2840 C2841 1.369 . S
C2840 C2842 1.419 . S
C2840 H2844 0.930 . S
C2841 C2840 1.369 . S
C2841 C2850 1.429 . S
C2842 C2840 1.419 . S
C2842 C2843 1.363 . S
C2842 H2845 0.929 . S
C2843 C2842 1.363 . S
C2843 C2849 1.428 . S
H2844 C2840 0.930 . S
H2845 C2842 0.929 . S
S2846 N2847 1.613 . S
S2846 N2848 1.610 . S
N2847 S2846 1.613 . S
N2847 C2850 1.350 . S
N2848 S2846 1.610 . S
N2848 C2849 1.351 . S
C2849 C2843 1.428 . S
C2849 N2848 1.351 . S
C2849 C2850 1.434 . S
C2850 C2841 1.429 . S
C2850 N2847 1.350 . S
C2850 C2849 1.434 . S
C2851 C2852 1.369 . S
C2851 C2853 1.419 . S
C2851 H2855 0.930 . S
C2852 C2851 1.369 . S
C2852 C2861 1.429 . S
C2853 C2851 1.419 . S
C2853 C2854 1.363 . S
C2853 H2856 0.929 . S
C2854 C2853 1.363 . S
C2854 C2860 1.428 . S
H2855 C2851 0.930 . S
H2856 C2853 0.929 . S
S2857 N2858 1.613 . S
S2857 N2859 1.610 . S
N2858 S2857 1.613 . S
N2858 C2861 1.350 . S
N2859 S2857 1.610 . S
N2859 C2860 1.351 . S
C2860 C2854 1.428 . S
C2860 N2859 1.351 . S
C2860 C2861 1.434 . S
C2861 C2852 1.429 . S
C2861 N2858 1.350 . S
C2861 C2860 1.434 . S
C2862 C2863 1.369 . S
C2862 C2864 1.419 . S
C2862 H2866 0.930 . S
C2863 C2862 1.369 . S
C2863 C2872 1.429 . S
C2864 C2862 1.419 . S
C2864 C2865 1.363 . S
C2864 H2867 0.929 . S
C2865 C2864 1.363 . S
C2865 C2871 1.428 . S
H2866 C2862 0.930 . S
H2867 C2864 0.929 . S
S2868 N2869 1.613 . S
S2868 N2870 1.610 . S
N2869 S2868 1.613 . S
N2869 C2872 1.350 . S
N2870 S2868 1.610 . S
N2870 C2871 1.351 . S
C2871 C2865 1.428 . S
C2871 N2870 1.351 . S
C2871 C2872 1.434 . S
C2872 C2863 1.429 . S
C2872 N2869 1.350 . S
C2872 C2871 1.434 . S
C2873 C2874 1.369 . S
C2873 C2875 1.419 . S
C2873 H2877 0.930 . S
C2874 C2873 1.369 . S
C2874 C2883 1.429 . S
C2875 C2873 1.419 . S
C2875 C2876 1.363 . S
C2875 H2878 0.929 . S
C2876 C2875 1.363 . S
C2876 C2882 1.428 . S
H2877 C2873 0.930 . S
H2878 C2875 0.929 . S
S2879 N2880 1.613 . S
S2879 N2881 1.610 . S
N2880 S2879 1.613 . S
N2880 C2883 1.350 . S
N2881 S2879 1.610 . S
N2881 C2882 1.351 . S
C2882 C2876 1.428 . S
C2882 N2881 1.351 . S
C2882 C2883 1.434 . S
C2883 C2874 1.429 . S
C2883 N2880 1.350 . S
C2883 C2882 1.434 . S
C2884 C2885 1.369 . S
C2884 C2886 1.419 . S
C2884 H2888 0.930 . S
C2885 C2884 1.369 . S
C2885 C2894 1.429 . S
C2886 C2884 1.419 . S
C2886 C2887 1.363 . S
C2886 H2889 0.929 . S
C2887 C2886 1.363 . S
C2887 C2893 1.428 . S
H2888 C2884 0.930 . S
H2889 C2886 0.929 . S
S2890 N2891 1.613 . S
S2890 N2892 1.610 . S
N2891 S2890 1.613 . S
N2891 C2894 1.350 . S
N2892 S2890 1.610 . S
N2892 C2893 1.351 . S
C2893 C2887 1.428 . S
C2893 N2892 1.351 . S
C2893 C2894 1.434 . S
C2894 C2885 1.429 . S
C2894 N2891 1.350 . S
C2894 C2893 1.434 . S
C2895 C2896 1.369 . S
C2895 C2897 1.419 . S
C2895 H2899 0.930 . S
C2896 C2895 1.369 . S
C2896 C2905 1.429 . S
C2897 C2895 1.419 . S
C2897 C2898 1.363 . S
C2897 H2900 0.929 . S
C2898 C2897 1.363 . S
C2898 C2904 1.428 . S
H2899 C2895 0.930 . S
H2900 C2897 0.929 . S
S2901 N2902 1.613 . S
S2901 N2903 1.610 . S
N2902 S2901 1.613 . S
N2902 C2905 1.350 . S
N2903 S2901 1.610 . S
N2903 C2904 1.351 . S
C2904 C2898 1.428 . S
C2904 N2903 1.351 . S
C2904 C2905 1.434 . S
C2905 C2896 1.429 . S
C2905 N2902 1.350 . S
C2905 C2904 1.434 . S
C2906 C2907 1.369 . S
C2906 C2908 1.419 . S
C2906 H2910 0.930 . S
C2907 C2906 1.369 . S
C2907 C2916 1.429 . S
C2908 C2906 1.419 . S
C2908 C2909 1.363 . S
C2908 H2911 0.929 . S
C2909 C2908 1.363 . S
C2909 C2915 1.428 . S
H2910 C2906 0.930 . S
H2911 C2908 0.929 . S
S2912 N2913 1.613 . S
S2912 N2914 1.610 . S
N2913 S2912 1.613 . S
N2913 C2916 1.350 . S
N2914 S2912 1.610 . S
N2914 C2915 1.351 . S
C2915 C2909 1.428 . S
C2915 N2914 1.351 . S
C2915 C2916 1.434 . S
C2916 C2907 1.429 . S
C2916 N2913 1.350 . S
C2916 C2915 1.434 . S
C2917 C2918 1.369 . S
C2917 C2919 1.419 . S
C2917 H2921 0.930 . S
C2918 C2917 1.369 . S
C2918 C2927 1.429 . S
C2919 C2917 1.419 . S
C2919 C2920 1.363 . S
C2919 H2922 0.929 . S
C2920 C2919 1.363 . S
C2920 C2926 1.428 . S
H2921 C2917 0.930 . S
H2922 C2919 0.929 . S
S2923 N2924 1.613 . S
S2923 N2925 1.610 . S
N2924 S2923 1.613 . S
N2924 C2927 1.350 . S
N2925 S2923 1.610 . S
N2925 C2926 1.351 . S
C2926 C2920 1.428 . S
C2926 N2925 1.351 . S
C2926 C2927 1.434 . S
C2927 C2918 1.429 . S
C2927 N2924 1.350 . S
C2927 C2926 1.434 . S
C2928 C2929 1.369 . S
C2928 C2930 1.419 . S
C2928 H2932 0.930 . S
C2929 C2928 1.369 . S
C2929 C2938 1.429 . S
C2930 C2928 1.419 . S
C2930 C2931 1.363 . S
C2930 H2933 0.929 . S
C2931 C2930 1.363 . S
C2931 C2937 1.428 . S
H2932 C2928 0.930 . S
H2933 C2930 0.929 . S
S2934 N2935 1.613 . S
S2934 N2936 1.610 . S
N2935 S2934 1.613 . S
N2935 C2938 1.350 . S
N2936 S2934 1.610 . S
N2936 C2937 1.351 . S
C2937 C2931 1.428 . S
C2937 N2936 1.351 . S
C2937 C2938 1.434 . S
C2938 C2929 1.429 . S
C2938 N2935 1.350 . S
C2938 C2937 1.434 . S
C2939 C2940 1.369 . S
C2939 C2941 1.419 . S
C2939 H2943 0.930 . S
C2940 C2939 1.369 . S
C2940 C2949 1.429 . S
C2941 C2939 1.419 . S
C2941 C2942 1.363 . S
C2941 H2944 0.929 . S
C2942 C2941 1.363 . S
C2942 C2948 1.428 . S
H2943 C2939 0.930 . S
H2944 C2941 0.929 . S
S2945 N2946 1.613 . S
S2945 N2947 1.610 . S
N2946 S2945 1.613 . S
N2946 C2949 1.350 . S
N2947 S2945 1.610 . S
N2947 C2948 1.351 . S
C2948 C2942 1.428 . S
C2948 N2947 1.351 . S
C2948 C2949 1.434 . S
C2949 C2940 1.429 . S
C2949 N2946 1.350 . S
C2949 C2948 1.434 . S
C2950 C2951 1.369 . S
C2950 C2952 1.419 . S
C2950 H2954 0.930 . S
C2951 C2950 1.369 . S
C2951 C2960 1.429 . S
C2952 C2950 1.419 . S
C2952 C2953 1.363 . S
C2952 H2955 0.929 . S
C2953 C2952 1.363 . S
C2953 C2959 1.428 . S
H2954 C2950 0.930 . S
H2955 C2952 0.929 . S
S2956 N2957 1.613 . S
S2956 N2958 1.610 . S
N2957 S2956 1.613 . S
N2957 C2960 1.350 . S
N2958 S2956 1.610 . S
N2958 C2959 1.351 . S
C2959 C2953 1.428 . S
C2959 N2958 1.351 . S
C2959 C2960 1.434 . S
C2960 C2951 1.429 . S
C2960 N2957 1.350 . S
C2960 C2959 1.434 . S
C2961 C2962 1.369 . S
C2961 C2963 1.419 . S
C2961 H2965 0.930 . S
C2962 C2961 1.369 . S
C2962 C2971 1.429 . S
C2963 C2961 1.419 . S
C2963 C2964 1.363 . S
C2963 H2966 0.929 . S
C2964 C2963 1.363 . S
C2964 C2970 1.428 . S
H2965 C2961 0.930 . S
H2966 C2963 0.929 . S
S2967 N2968 1.613 . S
S2967 N2969 1.610 . S
N2968 S2967 1.613 . S
N2968 C2971 1.350 . S
N2969 S2967 1.610 . S
N2969 C2970 1.351 . S
C2970 C2964 1.428 . S
C2970 N2969 1.351 . S
C2970 C2971 1.434 . S
C2971 C2962 1.429 . S
C2971 N2968 1.350 . S
C2971 C2970 1.434 . S
C2972 C2973 1.369 . S
C2972 C2974 1.419 . S
C2972 H2976 0.930 . S
C2973 C2972 1.369 . S
C2973 C2982 1.429 . S
C2974 C2972 1.419 . S
C2974 C2975 1.363 . S
C2974 H2977 0.929 . S
C2975 C2974 1.363 . S
C2975 C2981 1.428 . S
H2976 C2972 0.930 . S
H2977 C2974 0.929 . S
S2978 N2979 1.613 . S
S2978 N2980 1.610 . S
N2979 S2978 1.613 . S
N2979 C2982 1.350 . S
N2980 S2978 1.610 . S
N2980 C2981 1.351 . S
C2981 C2975 1.428 . S
C2981 N2980 1.351 . S
C2981 C2982 1.434 . S
C2982 C2973 1.429 . S
C2982 N2979 1.350 . S
C2982 C2981 1.434 . S
C2983 C2984 1.369 . S
C2983 C2985 1.419 . S
C2983 H2987 0.930 . S
C2984 C2983 1.369 . S
C2984 C2993 1.429 . S
C2985 C2983 1.419 . S
C2985 C2986 1.363 . S
C2985 H2988 0.929 . S
C2986 C2985 1.363 . S
C2986 C2992 1.428 . S
H2987 C2983 0.930 . S
H2988 C2985 0.929 . S
S2989 N2990 1.613 . S
S2989 N2991 1.610 . S
N2990 S2989 1.613 . S
N2990 C2993 1.350 . S
N2991 S2989 1.610 . S
N2991 C2992 1.351 . S
C2992 C2986 1.428 . S
C2992 N2991 1.351 . S
C2992 C2993 1.434 . S
C2993 C2984 1.429 . S
C2993 N2990 1.350 . S
C2993 C2992 1.434 . S
C2994 C2995 1.369 . S
C2994 C2996 1.419 . S
C2994 H2998 0.930 . S
C2995 C2994 1.369 . S
C2995 C3004 1.429 . S
C2996 C2994 1.419 . S
C2996 C2997 1.363 . S
C2996 H2999 0.929 . S
C2997 C2996 1.363 . S
C2997 C3003 1.428 . S
H2998 C2994 0.930 . S
H2999 C2996 0.929 . S
S3000 N3001 1.613 . S
S3000 N3002 1.610 . S
N3001 S3000 1.613 . S
N3001 C3004 1.350 . S
N3002 S3000 1.610 . S
N3002 C3003 1.351 . S
C3003 C2997 1.428 . S
C3003 N3002 1.351 . S
C3003 C3004 1.434 . S
C3004 C2995 1.429 . S
C3004 N3001 1.350 . S
C3004 C3003 1.434 . S
C3005 C3006 1.369 . S
C3005 C3007 1.419 . S
C3005 H3009 0.930 . S
C3006 C3005 1.369 . S
C3006 C3015 1.429 . S
C3007 C3005 1.419 . S
C3007 C3008 1.363 . S
C3007 H3010 0.929 . S
C3008 C3007 1.363 . S
C3008 C3014 1.428 . S
H3009 C3005 0.930 . S
H3010 C3007 0.929 . S
S3011 N3012 1.613 . S
S3011 N3013 1.610 . S
N3012 S3011 1.613 . S
N3012 C3015 1.350 . S
N3013 S3011 1.610 . S
N3013 C3014 1.351 . S
C3014 C3008 1.428 . S
C3014 N3013 1.351 . S
C3014 C3015 1.434 . S
C3015 C3006 1.429 . S
C3015 N3012 1.350 . S
C3015 C3014 1.434 . S
C3016 C3017 1.369 . S
C3016 C3018 1.419 . S
C3016 H3020 0.930 . S
C3017 C3016 1.369 . S
C3017 C3026 1.429 . S
C3018 C3016 1.419 . S
C3018 C3019 1.363 . S
C3018 H3021 0.929 . S
C3019 C3018 1.363 . S
C3019 C3025 1.428 . S
H3020 C3016 0.930 . S
H3021 C3018 0.929 . S
S3022 N3023 1.613 . S
S3022 N3024 1.610 . S
N3023 S3022 1.613 . S
N3023 C3026 1.350 . S
N3024 S3022 1.610 . S
N3024 C3025 1.351 . S
C3025 C3019 1.428 . S
C3025 N3024 1.351 . S
C3025 C3026 1.434 . S
C3026 C3017 1.429 . S
C3026 N3023 1.350 . S
C3026 C3025 1.434 . S
C3027 C3028 1.369 . S
C3027 C3029 1.419 . S
C3027 H3031 0.930 . S
C3028 C3027 1.369 . S
C3028 C3037 1.429 . S
C3029 C3027 1.419 . S
C3029 C3030 1.363 . S
C3029 H3032 0.929 . S
C3030 C3029 1.363 . S
C3030 C3036 1.428 . S
H3031 C3027 0.930 . S
H3032 C3029 0.929 . S
S3033 N3034 1.613 . S
S3033 N3035 1.610 . S
N3034 S3033 1.613 . S
N3034 C3037 1.350 . S
N3035 S3033 1.610 . S
N3035 C3036 1.351 . S
C3036 C3030 1.428 . S
C3036 N3035 1.351 . S
C3036 C3037 1.434 . S
C3037 C3028 1.429 . S
C3037 N3034 1.350 . S
C3037 C3036 1.434 . S
C3038 C3039 1.369 . S
C3038 C3040 1.419 . S
C3038 H3042 0.930 . S
C3039 C3038 1.369 . S
C3039 C3048 1.429 . S
C3040 C3038 1.419 . S
C3040 C3041 1.363 . S
C3040 H3043 0.929 . S
C3041 C3040 1.363 . S
C3041 C3047 1.428 . S
H3042 C3038 0.930 . S
H3043 C3040 0.929 . S
S3044 N3045 1.613 . S
S3044 N3046 1.610 . S
N3045 S3044 1.613 . S
N3045 C3048 1.350 . S
N3046 S3044 1.610 . S
N3046 C3047 1.351 . S
C3047 C3041 1.428 . S
C3047 N3046 1.351 . S
C3047 C3048 1.434 . S
C3048 C3039 1.429 . S
C3048 N3045 1.350 . S
C3048 C3047 1.434 . S
C3049 C3050 1.369 . S
C3049 C3051 1.419 . S
C3049 H3053 0.930 . S
C3050 C3049 1.369 . S
C3050 C3059 1.429 . S
C3051 C3049 1.419 . S
C3051 C3052 1.363 . S
C3051 H3054 0.929 . S
C3052 C3051 1.363 . S
C3052 C3058 1.428 . S
H3053 C3049 0.930 . S
H3054 C3051 0.929 . S
S3055 N3056 1.613 . S
S3055 N3057 1.610 . S
N3056 S3055 1.613 . S
N3056 C3059 1.350 . S
N3057 S3055 1.610 . S
N3057 C3058 1.351 . S
C3058 C3052 1.428 . S
C3058 N3057 1.351 . S
C3058 C3059 1.434 . S
C3059 C3050 1.429 . S
C3059 N3056 1.350 . S
C3059 C3058 1.434 . S
C3060 C3061 1.369 . S
C3060 C3062 1.419 . S
C3060 H3064 0.930 . S
C3061 C3060 1.369 . S
C3061 C3070 1.429 . S
C3062 C3060 1.419 . S
C3062 C3063 1.363 . S
C3062 H3065 0.929 . S
C3063 C3062 1.363 . S
C3063 C3069 1.428 . S
H3064 C3060 0.930 . S
H3065 C3062 0.929 . S
S3066 N3067 1.613 . S
S3066 N3068 1.610 . S
N3067 S3066 1.613 . S
N3067 C3070 1.350 . S
N3068 S3066 1.610 . S
N3068 C3069 1.351 . S
C3069 C3063 1.428 . S
C3069 N3068 1.351 . S
C3069 C3070 1.434 . S
C3070 C3061 1.429 . S
C3070 N3067 1.350 . S
C3070 C3069 1.434 . S
C3071 C3072 1.369 . S
C3071 C3073 1.419 . S
C3071 H3075 0.930 . S
C3072 C3071 1.369 . S
C3072 C3081 1.429 . S
C3073 C3071 1.419 . S
C3073 C3074 1.363 . S
C3073 H3076 0.929 . S
C3074 C3073 1.363 . S
C3074 C3080 1.428 . S
H3075 C3071 0.930 . S
H3076 C3073 0.929 . S
S3077 N3078 1.613 . S
S3077 N3079 1.610 . S
N3078 S3077 1.613 . S
N3078 C3081 1.350 . S
N3079 S3077 1.610 . S
N3079 C3080 1.351 . S
C3080 C3074 1.428 . S
C3080 N3079 1.351 . S
C3080 C3081 1.434 . S
C3081 C3072 1.429 . S
C3081 N3078 1.350 . S
C3081 C3080 1.434 . S
C3082 C3083 1.369 . S
C3082 C3084 1.419 . S
C3082 H3086 0.930 . S
C3083 C3082 1.369 . S
C3083 C3092 1.429 . S
C3084 C3082 1.419 . S
C3084 C3085 1.363 . S
C3084 H3087 0.929 . S
C3085 C3084 1.363 . S
C3085 C3091 1.428 . S
H3086 C3082 0.930 . S
H3087 C3084 0.929 . S
S3088 N3089 1.613 . S
S3088 N3090 1.610 . S
N3089 S3088 1.613 . S
N3089 C3092 1.350 . S
N3090 S3088 1.610 . S
N3090 C3091 1.351 . S
C3091 C3085 1.428 . S
C3091 N3090 1.351 . S
C3091 C3092 1.434 . S
C3092 C3083 1.429 . S
C3092 N3089 1.350 . S
C3092 C3091 1.434 . S
C3093 C3094 1.369 . S
C3093 C3095 1.419 . S
C3093 H3097 0.930 . S
C3094 C3093 1.369 . S
C3094 C3103 1.429 . S
C3095 C3093 1.419 . S
C3095 C3096 1.363 . S
C3095 H3098 0.929 . S
C3096 C3095 1.363 . S
C3096 C3102 1.428 . S
H3097 C3093 0.930 . S
H3098 C3095 0.929 . S
S3099 N3100 1.613 . S
S3099 N3101 1.610 . S
N3100 S3099 1.613 . S
N3100 C3103 1.350 . S
N3101 S3099 1.610 . S
N3101 C3102 1.351 . S
C3102 C3096 1.428 . S
C3102 N3101 1.351 . S
C3102 C3103 1.434 . S
C3103 C3094 1.429 . S
C3103 N3100 1.350 . S
C3103 C3102 1.434 . S
C3104 C3105 1.369 . S
C3104 C3106 1.419 . S
C3104 H3108 0.930 . S
C3105 C3104 1.369 . S
C3105 C3114 1.429 . S
C3106 C3104 1.419 . S
C3106 C3107 1.363 . S
C3106 H3109 0.929 . S
C3107 C3106 1.363 . S
C3107 C3113 1.428 . S
H3108 C3104 0.930 . S
H3109 C3106 0.929 . S
S3110 N3111 1.613 . S
S3110 N3112 1.610 . S
N3111 S3110 1.613 . S
N3111 C3114 1.350 . S
N3112 S3110 1.610 . S
N3112 C3113 1.351 . S
C3113 C3107 1.428 . S
C3113 N3112 1.351 . S
C3113 C3114 1.434 . S
C3114 C3105 1.429 . S
C3114 N3111 1.350 . S
C3114 C3113 1.434 . S
C3115 C3116 1.369 . S
C3115 C3117 1.419 . S
C3115 H3119 0.930 . S
C3116 C3115 1.369 . S
C3116 C3125 1.429 . S
C3117 C3115 1.419 . S
C3117 C3118 1.363 . S
C3117 H3120 0.929 . S
C3118 C3117 1.363 . S
C3118 C3124 1.428 . S
H3119 C3115 0.930 . S
H3120 C3117 0.929 . S
S3121 N3122 1.613 . S
S3121 N3123 1.610 . S
N3122 S3121 1.613 . S
N3122 C3125 1.350 . S
N3123 S3121 1.610 . S
N3123 C3124 1.351 . S
C3124 C3118 1.428 . S
C3124 N3123 1.351 . S
C3124 C3125 1.434 . S
C3125 C3116 1.429 . S
C3125 N3122 1.350 . S
C3125 C3124 1.434 . S
C3126 C3127 1.369 . S
C3126 C3128 1.419 . S
C3126 H3130 0.930 . S
C3127 C3126 1.369 . S
C3127 C3136 1.429 . S
C3128 C3126 1.419 . S
C3128 C3129 1.363 . S
C3128 H3131 0.929 . S
C3129 C3128 1.363 . S
C3129 C3135 1.428 . S
H3130 C3126 0.930 . S
H3131 C3128 0.929 . S
S3132 N3133 1.613 . S
S3132 N3134 1.610 . S
N3133 S3132 1.613 . S
N3133 C3136 1.350 . S
N3134 S3132 1.610 . S
N3134 C3135 1.351 . S
C3135 C3129 1.428 . S
C3135 N3134 1.351 . S
C3135 C3136 1.434 . S
C3136 C3127 1.429 . S
C3136 N3133 1.350 . S
C3136 C3135 1.434 . S
C3137 C3138 1.369 . S
C3137 C3139 1.419 . S
C3137 H3141 0.930 . S
C3138 C3137 1.369 . S
C3138 C3147 1.429 . S
C3139 C3137 1.419 . S
C3139 C3140 1.363 . S
C3139 H3142 0.929 . S
C3140 C3139 1.363 . S
C3140 C3146 1.428 . S
H3141 C3137 0.930 . S
H3142 C3139 0.929 . S
S3143 N3144 1.613 . S
S3143 N3145 1.610 . S
N3144 S3143 1.613 . S
N3144 C3147 1.350 . S
N3145 S3143 1.610 . S
N3145 C3146 1.351 . S
C3146 C3140 1.428 . S
C3146 N3145 1.351 . S
C3146 C3147 1.434 . S
C3147 C3138 1.429 . S
C3147 N3144 1.350 . S
C3147 C3146 1.434 . S
C3148 C3149 1.369 . S
C3148 C3150 1.419 . S
C3148 H3152 0.930 . S
C3149 C3148 1.369 . S
C3149 C3158 1.429 . S
C3150 C3148 1.419 . S
C3150 C3151 1.363 . S
C3150 H3153 0.929 . S
C3151 C3150 1.363 . S
C3151 C3157 1.428 . S
H3152 C3148 0.930 . S
H3153 C3150 0.929 . S
S3154 N3155 1.613 . S
S3154 N3156 1.610 . S
N3155 S3154 1.613 . S
N3155 C3158 1.350 . S
N3156 S3154 1.610 . S
N3156 C3157 1.351 . S
C3157 C3151 1.428 . S
C3157 N3156 1.351 . S
C3157 C3158 1.434 . S
C3158 C3149 1.429 . S
C3158 N3155 1.350 . S
C3158 C3157 1.434 . S
C3159 C3160 1.369 . S
C3159 C3161 1.419 . S
C3159 H3163 0.930 . S
C3160 C3159 1.369 . S
C3160 C3169 1.429 . S
C3161 C3159 1.419 . S
C3161 C3162 1.363 . S
C3161 H3164 0.929 . S
C3162 C3161 1.363 . S
C3162 C3168 1.428 . S
H3163 C3159 0.930 . S
H3164 C3161 0.929 . S
S3165 N3166 1.613 . S
S3165 N3167 1.610 . S
N3166 S3165 1.613 . S
N3166 C3169 1.350 . S
N3167 S3165 1.610 . S
N3167 C3168 1.351 . S
C3168 C3162 1.428 . S
C3168 N3167 1.351 . S
C3168 C3169 1.434 . S
C3169 C3160 1.429 . S
C3169 N3166 1.350 . S
C3169 C3168 1.434 . S
C3170 C3171 1.369 . S
C3170 C3172 1.419 . S
C3170 H3174 0.930 . S
C3171 C3170 1.369 . S
C3171 C3180 1.429 . S
C3172 C3170 1.419 . S
C3172 C3173 1.363 . S
C3172 H3175 0.929 . S
C3173 C3172 1.363 . S
C3173 C3179 1.428 . S
H3174 C3170 0.930 . S
H3175 C3172 0.929 . S
S3176 N3177 1.613 . S
S3176 N3178 1.610 . S
N3177 S3176 1.613 . S
N3177 C3180 1.350 . S
N3178 S3176 1.610 . S
N3178 C3179 1.351 . S
C3179 C3173 1.428 . S
C3179 N3178 1.351 . S
C3179 C3180 1.434 . S
C3180 C3171 1.429 . S
C3180 N3177 1.350 . S
C3180 C3179 1.434 . S
C3181 C3182 1.369 . S
C3181 C3183 1.419 . S
C3181 H3185 0.930 . S
C3182 C3181 1.369 . S
C3182 C3191 1.429 . S
C3183 C3181 1.419 . S
C3183 C3184 1.363 . S
C3183 H3186 0.929 . S
C3184 C3183 1.363 . S
C3184 C3190 1.428 . S
H3185 C3181 0.930 . S
H3186 C3183 0.929 . S
S3187 N3188 1.613 . S
S3187 N3189 1.610 . S
N3188 S3187 1.613 . S
N3188 C3191 1.350 . S
N3189 S3187 1.610 . S
N3189 C3190 1.351 . S
C3190 C3184 1.428 . S
C3190 N3189 1.351 . S
C3190 C3191 1.434 . S
C3191 C3182 1.429 . S
C3191 N3188 1.350 . S
C3191 C3190 1.434 . S
C3192 C3193 1.369 . S
C3192 C3194 1.419 . S
C3192 H3196 0.930 . S
C3193 C3192 1.369 . S
C3193 C3202 1.429 . S
C3194 C3192 1.419 . S
C3194 C3195 1.363 . S
C3194 H3197 0.929 . S
C3195 C3194 1.363 . S
C3195 C3201 1.428 . S
H3196 C3192 0.930 . S
H3197 C3194 0.929 . S
S3198 N3199 1.613 . S
S3198 N3200 1.610 . S
N3199 S3198 1.613 . S
N3199 C3202 1.350 . S
N3200 S3198 1.610 . S
N3200 C3201 1.351 . S
C3201 C3195 1.428 . S
C3201 N3200 1.351 . S
C3201 C3202 1.434 . S
C3202 C3193 1.429 . S
C3202 N3199 1.350 . S
C3202 C3201 1.434 . S
C3203 C3204 1.369 . S
C3203 C3205 1.419 . S
C3203 H3207 0.930 . S
C3204 C3203 1.369 . S
C3204 C3213 1.429 . S
C3205 C3203 1.419 . S
C3205 C3206 1.363 . S
C3205 H3208 0.929 . S
C3206 C3205 1.363 . S
C3206 C3212 1.428 . S
H3207 C3203 0.930 . S
H3208 C3205 0.929 . S
S3209 N3210 1.613 . S
S3209 N3211 1.610 . S
N3210 S3209 1.613 . S
N3210 C3213 1.350 . S
N3211 S3209 1.610 . S
N3211 C3212 1.351 . S
C3212 C3206 1.428 . S
C3212 N3211 1.351 . S
C3212 C3213 1.434 . S
C3213 C3204 1.429 . S
C3213 N3210 1.350 . S
C3213 C3212 1.434 . S
C3214 C3215 1.369 . S
C3214 C3216 1.419 . S
C3214 H3218 0.930 . S
C3215 C3214 1.369 . S
C3215 C3224 1.429 . S
C3216 C3214 1.419 . S
C3216 C3217 1.363 . S
C3216 H3219 0.929 . S
C3217 C3216 1.363 . S
C3217 C3223 1.428 . S
H3218 C3214 0.930 . S
H3219 C3216 0.929 . S
S3220 N3221 1.613 . S
S3220 N3222 1.610 . S
N3221 S3220 1.613 . S
N3221 C3224 1.350 . S
N3222 S3220 1.610 . S
N3222 C3223 1.351 . S
C3223 C3217 1.428 . S
C3223 N3222 1.351 . S
C3223 C3224 1.434 . S
C3224 C3215 1.429 . S
C3224 N3221 1.350 . S
C3224 C3223 1.434 . S
C3225 C3226 1.369 . S
C3225 C3227 1.419 . S
C3225 H3229 0.930 . S
C3226 C3225 1.369 . S
C3226 C3235 1.429 . S
C3227 C3225 1.419 . S
C3227 C3228 1.363 . S
C3227 H3230 0.929 . S
C3228 C3227 1.363 . S
C3228 C3234 1.428 . S
H3229 C3225 0.930 . S
H3230 C3227 0.929 . S
S3231 N3232 1.613 . S
S3231 N3233 1.610 . S
N3232 S3231 1.613 . S
N3232 C3235 1.350 . S
N3233 S3231 1.610 . S
N3233 C3234 1.351 . S
C3234 C3228 1.428 . S
C3234 N3233 1.351 . S
C3234 C3235 1.434 . S
C3235 C3226 1.429 . S
C3235 N3232 1.350 . S
C3235 C3234 1.434 . S
C3236 C3237 1.369 . S
C3236 C3238 1.419 . S
C3236 H3240 0.930 . S
C3237 C3236 1.369 . S
C3237 C3246 1.429 . S
C3238 C3236 1.419 . S
C3238 C3239 1.363 . S
C3238 H3241 0.929 . S
C3239 C3238 1.363 . S
C3239 C3245 1.428 . S
H3240 C3236 0.930 . S
H3241 C3238 0.929 . S
S3242 N3243 1.613 . S
S3242 N3244 1.610 . S
N3243 S3242 1.613 . S
N3243 C3246 1.350 . S
N3244 S3242 1.610 . S
N3244 C3245 1.351 . S
C3245 C3239 1.428 . S
C3245 N3244 1.351 . S
C3245 C3246 1.434 . S
C3246 C3237 1.429 . S
C3246 N3243 1.350 . S
C3246 C3245 1.434 . S
C3247 C3248 1.369 . S
C3247 C3249 1.419 . S
C3247 H3251 0.930 . S
C3248 C3247 1.369 . S
C3248 C3257 1.429 . S
C3249 C3247 1.419 . S
C3249 C3250 1.363 . S
C3249 H3252 0.929 . S
C3250 C3249 1.363 . S
C3250 C3256 1.428 . S
H3251 C3247 0.930 . S
H3252 C3249 0.929 . S
S3253 N3254 1.613 . S
S3253 N3255 1.610 . S
N3254 S3253 1.613 . S
N3254 C3257 1.350 . S
N3255 S3253 1.610 . S
N3255 C3256 1.351 . S
C3256 C3250 1.428 . S
C3256 N3255 1.351 . S
C3256 C3257 1.434 . S
C3257 C3248 1.429 . S
C3257 N3254 1.350 . S
C3257 C3256 1.434 . S
C3258 C3259 1.369 . S
C3258 C3260 1.419 . S
C3258 H3262 0.930 . S
C3259 C3258 1.369 . S
C3259 C3268 1.429 . S
C3260 C3258 1.419 . S
C3260 C3261 1.363 . S
C3260 H3263 0.929 . S
C3261 C3260 1.363 . S
C3261 C3267 1.428 . S
H3262 C3258 0.930 . S
H3263 C3260 0.929 . S
S3264 N3265 1.613 . S
S3264 N3266 1.610 . S
N3265 S3264 1.613 . S
N3265 C3268 1.350 . S
N3266 S3264 1.610 . S
N3266 C3267 1.351 . S
C3267 C3261 1.428 . S
C3267 N3266 1.351 . S
C3267 C3268 1.434 . S
C3268 C3259 1.429 . S
C3268 N3265 1.350 . S
C3268 C3267 1.434 . S
C3269 C3270 1.369 . S
C3269 C3271 1.419 . S
C3269 H3273 0.930 . S
C3270 C3269 1.369 . S
C3270 C3279 1.429 . S
C3271 C3269 1.419 . S
C3271 C3272 1.363 . S
C3271 H3274 0.929 . S
C3272 C3271 1.363 . S
C3272 C3278 1.428 . S
H3273 C3269 0.930 . S
H3274 C3271 0.929 . S
S3275 N3276 1.613 . S
S3275 N3277 1.610 . S
N3276 S3275 1.613 . S
N3276 C3279 1.350 . S
N3277 S3275 1.610 . S
N3277 C3278 1.351 . S
C3278 C3272 1.428 . S
C3278 N3277 1.351 . S
C3278 C3279 1.434 . S
C3279 C3270 1.429 . S
C3279 N3276 1.350 . S
C3279 C3278 1.434 . S
C3280 C3281 1.369 . S
C3280 C3282 1.419 . S
C3280 H3284 0.930 . S
C3281 C3280 1.369 . S
C3281 C3290 1.429 . S
C3282 C3280 1.419 . S
C3282 C3283 1.363 . S
C3282 H3285 0.929 . S
C3283 C3282 1.363 . S
C3283 C3289 1.428 . S
H3284 C3280 0.930 . S
H3285 C3282 0.929 . S
S3286 N3287 1.613 . S
S3286 N3288 1.610 . S
N3287 S3286 1.613 . S
N3287 C3290 1.350 . S
N3288 S3286 1.610 . S
N3288 C3289 1.351 . S
C3289 C3283 1.428 . S
C3289 N3288 1.351 . S
C3289 C3290 1.434 . S
C3290 C3281 1.429 . S
C3290 N3287 1.350 . S
C3290 C3289 1.434 . S
C3291 C3292 1.369 . S
C3291 C3293 1.419 . S
C3291 H3295 0.930 . S
C3292 C3291 1.369 . S
C3292 C3301 1.429 . S
C3293 C3291 1.419 . S
C3293 C3294 1.363 . S
C3293 H3296 0.929 . S
C3294 C3293 1.363 . S
C3294 C3300 1.428 . S
H3295 C3291 0.930 . S
H3296 C3293 0.929 . S
S3297 N3298 1.613 . S
S3297 N3299 1.610 . S
N3298 S3297 1.613 . S
N3298 C3301 1.350 . S
N3299 S3297 1.610 . S
N3299 C3300 1.351 . S
C3300 C3294 1.428 . S
C3300 N3299 1.351 . S
C3300 C3301 1.434 . S
C3301 C3292 1.429 . S
C3301 N3298 1.350 . S
C3301 C3300 1.434 . S
C3302 C3303 1.369 . S
C3302 C3304 1.419 . S
C3302 H3306 0.930 . S
C3303 C3302 1.369 . S
C3303 C3312 1.429 . S
C3304 C3302 1.419 . S
C3304 C3305 1.363 . S
C3304 H3307 0.929 . S
C3305 C3304 1.363 . S
C3305 C3311 1.428 . S
H3306 C3302 0.930 . S
H3307 C3304 0.929 . S
S3308 N3309 1.613 . S
S3308 N3310 1.610 . S
N3309 S3308 1.613 . S
N3309 C3312 1.350 . S
N3310 S3308 1.610 . S
N3310 C3311 1.351 . S
C3311 C3305 1.428 . S
C3311 N3310 1.351 . S
C3311 C3312 1.434 . S
C3312 C3303 1.429 . S
C3312 N3309 1.350 . S
C3312 C3311 1.434 . S
C3313 C3314 1.369 . S
C3313 C3315 1.419 . S
C3313 H3317 0.930 . S
C3314 C3313 1.369 . S
C3314 C3323 1.429 . S
C3315 C3313 1.419 . S
C3315 C3316 1.363 . S
C3315 H3318 0.929 . S
C3316 C3315 1.363 . S
C3316 C3322 1.428 . S
H3317 C3313 0.930 . S
H3318 C3315 0.929 . S
S3319 N3320 1.613 . S
S3319 N3321 1.610 . S
N3320 S3319 1.613 . S
N3320 C3323 1.350 . S
N3321 S3319 1.610 . S
N3321 C3322 1.351 . S
C3322 C3316 1.428 . S
C3322 N3321 1.351 . S
C3322 C3323 1.434 . S
C3323 C3314 1.429 . S
C3323 N3320 1.350 . S
C3323 C3322 1.434 . S
C3324 C3325 1.369 . S
C3324 C3326 1.419 . S
C3324 H3328 0.930 . S
C3325 C3324 1.369 . S
C3325 C3334 1.429 . S
C3326 C3324 1.419 . S
C3326 C3327 1.363 . S
C3326 H3329 0.929 . S
C3327 C3326 1.363 . S
C3327 C3333 1.428 . S
H3328 C3324 0.930 . S
H3329 C3326 0.929 . S
S3330 N3331 1.613 . S
S3330 N3332 1.610 . S
N3331 S3330 1.613 . S
N3331 C3334 1.350 . S
N3332 S3330 1.610 . S
N3332 C3333 1.351 . S
C3333 C3327 1.428 . S
C3333 N3332 1.351 . S
C3333 C3334 1.434 . S
C3334 C3325 1.429 . S
C3334 N3331 1.350 . S
C3334 C3333 1.434 . S
C3335 C3336 1.369 . S
C3335 C3337 1.419 . S
C3335 H3339 0.930 . S
C3336 C3335 1.369 . S
C3336 C3345 1.429 . S
C3337 C3335 1.419 . S
C3337 C3338 1.363 . S
C3337 H3340 0.929 . S
C3338 C3337 1.363 . S
C3338 C3344 1.428 . S
H3339 C3335 0.930 . S
H3340 C3337 0.929 . S
S3341 N3342 1.613 . S
S3341 N3343 1.610 . S
N3342 S3341 1.613 . S
N3342 C3345 1.350 . S
N3343 S3341 1.610 . S
N3343 C3344 1.351 . S
C3344 C3338 1.428 . S
C3344 N3343 1.351 . S
C3344 C3345 1.434 . S
C3345 C3336 1.429 . S
C3345 N3342 1.350 . S
C3345 C3344 1.434 . S
C3346 C3347 1.369 . S
C3346 C3348 1.419 . S
C3346 H3350 0.930 . S
C3347 C3346 1.369 . S
C3347 C3356 1.429 . S
C3348 C3346 1.419 . S
C3348 C3349 1.363 . S
C3348 H3351 0.929 . S
C3349 C3348 1.363 . S
C3349 C3355 1.428 . S
H3350 C3346 0.930 . S
H3351 C3348 0.929 . S
S3352 N3353 1.613 . S
S3352 N3354 1.610 . S
N3353 S3352 1.613 . S
N3353 C3356 1.350 . S
N3354 S3352 1.610 . S
N3354 C3355 1.351 . S
C3355 C3349 1.428 . S
C3355 N3354 1.351 . S
C3355 C3356 1.434 . S
C3356 C3347 1.429 . S
C3356 N3353 1.350 . S
C3356 C3355 1.434 . S
C3357 C3358 1.369 . S
C3357 C3359 1.419 . S
C3357 H3361 0.930 . S
C3358 C3357 1.369 . S
C3358 C3367 1.429 . S
C3359 C3357 1.419 . S
C3359 C3360 1.363 . S
C3359 H3362 0.929 . S
C3360 C3359 1.363 . S
C3360 C3366 1.428 . S
H3361 C3357 0.930 . S
H3362 C3359 0.929 . S
S3363 N3364 1.613 . S
S3363 N3365 1.610 . S
N3364 S3363 1.613 . S
N3364 C3367 1.350 . S
N3365 S3363 1.610 . S
N3365 C3366 1.351 . S
C3366 C3360 1.428 . S
C3366 N3365 1.351 . S
C3366 C3367 1.434 . S
C3367 C3358 1.429 . S
C3367 N3364 1.350 . S
C3367 C3366 1.434 . S
C3368 C3369 1.369 . S
C3368 C3370 1.419 . S
C3368 H3372 0.930 . S
C3369 C3368 1.369 . S
C3369 C3378 1.429 . S
C3370 C3368 1.419 . S
C3370 C3371 1.363 . S
C3370 H3373 0.929 . S
C3371 C3370 1.363 . S
C3371 C3377 1.428 . S
H3372 C3368 0.930 . S
H3373 C3370 0.929 . S
S3374 N3375 1.613 . S
S3374 N3376 1.610 . S
N3375 S3374 1.613 . S
N3375 C3378 1.350 . S
N3376 S3374 1.610 . S
N3376 C3377 1.351 . S
C3377 C3371 1.428 . S
C3377 N3376 1.351 . S
C3377 C3378 1.434 . S
C3378 C3369 1.429 . S
C3378 N3375 1.350 . S
C3378 C3377 1.434 . S
C3379 C3380 1.369 . S
C3379 C3381 1.419 . S
C3379 H3383 0.930 . S
C3380 C3379 1.369 . S
C3380 C3389 1.429 . S
C3381 C3379 1.419 . S
C3381 C3382 1.363 . S
C3381 H3384 0.929 . S
C3382 C3381 1.363 . S
C3382 C3388 1.428 . S
H3383 C3379 0.930 . S
H3384 C3381 0.929 . S
S3385 N3386 1.613 . S
S3385 N3387 1.610 . S
N3386 S3385 1.613 . S
N3386 C3389 1.350 . S
N3387 S3385 1.610 . S
N3387 C3388 1.351 . S
C3388 C3382 1.428 . S
C3388 N3387 1.351 . S
C3388 C3389 1.434 . S
C3389 C3380 1.429 . S
C3389 N3386 1.350 . S
C3389 C3388 1.434 . S
C3390 C3391 1.369 . S
C3390 C3392 1.419 . S
C3390 H3394 0.930 . S
C3391 C3390 1.369 . S
C3391 C3400 1.429 . S
C3392 C3390 1.419 . S
C3392 C3393 1.363 . S
C3392 H3395 0.929 . S
C3393 C3392 1.363 . S
C3393 C3399 1.428 . S
H3394 C3390 0.930 . S
H3395 C3392 0.929 . S
S3396 N3397 1.613 . S
S3396 N3398 1.610 . S
N3397 S3396 1.613 . S
N3397 C3400 1.350 . S
N3398 S3396 1.610 . S
N3398 C3399 1.351 . S
C3399 C3393 1.428 . S
C3399 N3398 1.351 . S
C3399 C3400 1.434 . S
C3400 C3391 1.429 . S
C3400 N3397 1.350 . S
C3400 C3399 1.434 . S
C3401 C3402 1.369 . S
C3401 C3403 1.419 . S
C3401 H3405 0.930 . S
C3402 C3401 1.369 . S
C3402 C3411 1.429 . S
C3403 C3401 1.419 . S
C3403 C3404 1.363 . S
C3403 H3406 0.929 . S
C3404 C3403 1.363 . S
C3404 C3410 1.428 . S
H3405 C3401 0.930 . S
H3406 C3403 0.929 . S
S3407 N3408 1.613 . S
S3407 N3409 1.610 . S
N3408 S3407 1.613 . S
N3408 C3411 1.350 . S
N3409 S3407 1.610 . S
N3409 C3410 1.351 . S
C3410 C3404 1.428 . S
C3410 N3409 1.351 . S
C3410 C3411 1.434 . S
C3411 C3402 1.429 . S
C3411 N3408 1.350 . S
C3411 C3410 1.434 . S
C3412 C3413 1.369 . S
C3412 C3414 1.419 . S
C3412 H3416 0.930 . S
C3413 C3412 1.369 . S
C3413 C3422 1.429 . S
C3414 C3412 1.419 . S
C3414 C3415 1.363 . S
C3414 H3417 0.929 . S
C3415 C3414 1.363 . S
C3415 C3421 1.428 . S
H3416 C3412 0.930 . S
H3417 C3414 0.929 . S
S3418 N3419 1.613 . S
S3418 N3420 1.610 . S
N3419 S3418 1.613 . S
N3419 C3422 1.350 . S
N3420 S3418 1.610 . S
N3420 C3421 1.351 . S
C3421 C3415 1.428 . S
C3421 N3420 1.351 . S
C3421 C3422 1.434 . S
C3422 C3413 1.429 . S
C3422 N3419 1.350 . S
C3422 C3421 1.434 . S
C3423 C3424 1.369 . S
C3423 C3425 1.419 . S
C3423 H3427 0.930 . S
C3424 C3423 1.369 . S
C3424 C3433 1.429 . S
C3425 C3423 1.419 . S
C3425 C3426 1.363 . S
C3425 H3428 0.929 . S
C3426 C3425 1.363 . S
C3426 C3432 1.428 . S
H3427 C3423 0.930 . S
H3428 C3425 0.929 . S
S3429 N3430 1.613 . S
S3429 N3431 1.610 . S
N3430 S3429 1.613 . S
N3430 C3433 1.350 . S
N3431 S3429 1.610 . S
N3431 C3432 1.351 . S
C3432 C3426 1.428 . S
C3432 N3431 1.351 . S
C3432 C3433 1.434 . S
C3433 C3424 1.429 . S
C3433 N3430 1.350 . S
C3433 C3432 1.434 . S
C3434 C3435 1.369 . S
C3434 C3436 1.419 . S
C3434 H3438 0.930 . S
C3435 C3434 1.369 . S
C3435 C3444 1.429 . S
C3436 C3434 1.419 . S
C3436 C3437 1.363 . S
C3436 H3439 0.929 . S
C3437 C3436 1.363 . S
C3437 C3443 1.428 . S
H3438 C3434 0.930 . S
H3439 C3436 0.929 . S
S3440 N3441 1.613 . S
S3440 N3442 1.610 . S
N3441 S3440 1.613 . S
N3441 C3444 1.350 . S
N3442 S3440 1.610 . S
N3442 C3443 1.351 . S
C3443 C3437 1.428 . S
C3443 N3442 1.351 . S
C3443 C3444 1.434 . S
C3444 C3435 1.429 . S
C3444 N3441 1.350 . S
C3444 C3443 1.434 . S
C3445 C3446 1.369 . S
C3445 C3447 1.419 . S
C3445 H3449 0.930 . S
C3446 C3445 1.369 . S
C3446 C3455 1.429 . S
C3447 C3445 1.419 . S
C3447 C3448 1.363 . S
C3447 H3450 0.929 . S
C3448 C3447 1.363 . S
C3448 C3454 1.428 . S
H3449 C3445 0.930 . S
H3450 C3447 0.929 . S
S3451 N3452 1.613 . S
S3451 N3453 1.610 . S
N3452 S3451 1.613 . S
N3452 C3455 1.350 . S
N3453 S3451 1.610 . S
N3453 C3454 1.351 . S
C3454 C3448 1.428 . S
C3454 N3453 1.351 . S
C3454 C3455 1.434 . S
C3455 C3446 1.429 . S
C3455 N3452 1.350 . S
C3455 C3454 1.434 . S
C1345 C1 1.566 . S
C1347 C127 1.560 . S
C1356 C141 1.562 . S
C1358 C15 1.563 . S
C1367 C41 1.565 . S
C1369 C154 1.562 . S
C1378 C43 1.560 . S
C1380 C124 1.567 . S
C1389 C57 1.562 . S
C1391 C211 1.563 . S
C1400 C180 1.563 . S
C1402 C83 1.563 . S
C1411 C97 1.559 . S
C1413 C195 1.566 . S
C1422 C197 1.563 . S
C1424 C98 1.565 . S
C1433 C264 1.563 . S
C1435 C225 1.563 . S
C1444 C239 1.567 . S
C1446 C992 1.561 . S
C1455 C1006 1.561 . S
C1457 C266 1.567 . S
C1466 C292 1.567 . S
C1468 C978 1.563 . S
C1477 C964 1.562 . S
C1479 C306 1.566 . S
C1488 C911 1.566 . S
C1490 C309 1.560 . S
C1499 C323 1.564 . S
C1501 C939 1.562 . S
C1510 C337 1.560 . S
C1512 C463 1.567 . S
C1521 C350 1.561 . S
C1523 C476 1.564 . S
C1532 C490 1.566 . S
C1534 C365 1.562 . S
C1543 C461 1.565 . S
C1545 C391 1.563 . S
C1554 C547 1.564 . S
C1556 C393 1.564 . S
C1565 C407 1.567 . S
C1567 C517 1.562 . S
C1576 C433 1.563 . S
C1578 C519 1.565 . S
C1587 C446 1.564 . S
C1589 C545 1.563 . S
C1598 C561 1.567 . S
C1600 C601 1.562 . S
C1609 C575 1.567 . S
C1611 C1329 1.563 . S
C1620 C1343 1.567 . S
C1622 C602 1.561 . S
C1631 C629 1.561 . S
C1633 C1303 1.567 . S
C1642 C631 1.561 . S
C1644 C1301 1.567 . S
C1653 C657 1.560 . S
C1655 C1258 1.566 . S
C1664 C671 1.568 . S
C1666 C1274 1.560 . S
C1675 C672 1.567 . S
C1677 C799 1.561 . S
C1686 C824 1.567 . S
C1688 C699 1.561 . S
C1697 C827 1.567 . S
C1699 C701 1.560 . S
C1708 C727 1.562 . S
C1710 C785 1.563 . S
C1719 C740 1.561 . S
C1721 C882 1.567 . S
C1730 C742 1.568 . S
C1732 C852 1.561 . S
C1741 C756 1.568 . S
C1743 C855 1.560 . S
C1752 C869 1.561 . S
C1754 C782 1.565 . S
C1763 C896 1.567 . S
C1765 C925 1.560 . S
C1774 C1008 1.559 . S
C1776 C1135 1.567 . S
C1785 C1035 1.567 . S
C1787 C1148 1.560 . S
C1796 C1162 1.564 . S
C1798 C1036 1.561 . S
C1807 C1133 1.568 . S
C1809 C1050 1.560 . S
C1818 C1076 1.565 . S
C1820 C1218 1.561 . S
C1829 C1189 1.568 . S
C1831 C1079 1.561 . S
C1840 C1203 1.562 . S
C1842 C1092 1.564 . S
C1851 C1217 1.566 . S
C1853 C1107 1.563 . S
C1862 C1245 1.563 . S
C1864 C1273 1.565 . S
C1873 C13 2.152 1_655 S
C1875 C280 2.155 . S
C1884 C27 2.145 . S
C1886 C923 2.152 . S
C1895 C937 2.149 . S
C1897 C29 2.148 . S
C1906 C951 2.146 1_554 S
C1908 C55 2.151 . S
C1917 C69 2.146 1_655 S
C1919 C994 2.156 . S
C1928 C294 2.150 . S
C1930 C71 2.153 . S
C1939 C85 2.147 . S
C1941 C980 2.154 . S
C1950 C110 2.158 . S
C1952 C237 2.148 1_556 S
C1961 C112 2.152 1_565 S
C1963 C223 2.153 . S
C1972 C168 2.152 1_545 S
C1974 C139 2.149 . S
C1983 C153 2.146 1_545 S
C1985 C183 2.151 . S
C1994 C166 2.152 . S
C1996 C209 2.153 1_565 S
C2005 C687 2.146 . S
C2007 C251 2.151 1_554 S
C2016 C713 2.153 1_455 S
C2018 C252 2.154 . S
C2027 C715 2.149 . S
C2029 C278 2.157 . S
C2038 C768 2.156 1_455 S
C2040 C321 2.147 . S
C2049 C335 2.153 . S
C2051 C728 2.151 . S
C2060 C349 2.158 1_455 S
C2062 C617 2.154 . S
C2071 C362 2.153 . S
C2073 C1246 2.149 . S
C2082 C1261 2.157 . S
C2084 C377 2.151 . S
C2093 C1286 2.153 1_556 S
C2095 C379 2.151 . S
C2104 C1331 2.151 . S
C2106 C405 2.157 1_455 S
C2115 C643 2.154 . S
C2117 C419 2.153 . S
C2126 C421 2.155 . S
C2128 C1317 2.152 . S
C2137 C434 2.147 . S
C2139 C573 2.158 1_554 S
C2148 C559 2.158 . S
C2150 C449 2.152 1_545 S
C2159 C475 2.153 . S
C2161 C505 2.153 1_565 S
C2170 C531 2.153 . S
C2172 C488 2.153 1_565 S
C2181 C502 2.146 . S
C2183 C533 2.158 1_545 S
C2192 C1023 2.154 . S
C2194 C587 2.157 1_556 S
C2203 C589 2.159 . S
C2205 C1048 2.147 1_655 S
C2214 C614 2.148 . S
C2216 C1062 2.153 . S
C2225 C645 2.158 . S
C2227 C1104 2.148 1_655 S
C2236 C659 2.152 . S
C2238 C1064 2.149 . S
C2247 C684 2.159 . S
C2249 C952 2.152 . S
C2258 C966 2.151 1_556 S
C2260 C754 2.155 . S
C2269 C770 2.153 . S
C2271 C908 2.153 . S
C2280 C894 2.150 . S
C2282 C797 2.153 . S
C2291 C840 2.157 . S
C2293 C811 2.147 . S
C2302 C812 2.156 . S
C2304 C867 2.150 . S
C2313 C839 2.153 . S
C2315 C881 2.149 . S
C2324 C1289 2.159 . S
C2326 C1020 2.147 . S
C2335 C1091 2.158 . S
C2337 C1315 2.151 1_554 S
C2346 C1233 2.152 . S
C2348 C1119 2.158 . S
C2357 C1121 2.152 . S
C2359 C1230 2.149 . S
C2368 C1177 2.154 . S
C2370 C1147 2.152 . S
C2379 C1160 2.153 . S
C2381 C1191 2.154 . S
C2390 C1205 2.159 . S
C2392 C1174 2.148 . S
C2401 C12 1.558 . S
C2403 C603 1.619 . S
C2412 C628 1.624 . S
C2414 C26 1.554 . S
C2423 C574 1.618 . S
C2425 C28 1.560 . S
C2434 C54 1.554 . S
C2436 C1272 1.624 . S
C2445 C68 1.552 . S
C2447 C1302 1.624 . S
C2456 C70 1.553 . S
C2458 C1328 1.624 . S
C2467 C1244 1.619 . S
C2469 C84 1.561 . S
C2478 C1342 1.624 . S
C2480 C111 1.549 . S
C2489 C364 1.624 . S
C2491 C113 1.549 . S
C2500 C138 1.561 . S
C2502 C1051 1.620 . S
C2511 C336 1.624 . S
C2513 C152 1.556 . S
C2522 C1034 1.623 . S
C2524 C167 1.549 . S
C2533 C432 1.619 . S
C2535 C169 1.554 . S
C2544 C182 1.553 . S
C2546 C1106 1.624 . S
C2555 C208 1.562 . S
C2557 C392 1.620 . S
C2566 C222 1.562 . S
C2568 C1078 1.619 . S
C2577 C236 1.554 . S
C2579 C1188 1.624 . S
C2588 C460 1.619 . S
C2590 C250 1.561 . S
C2599 C253 1.550 . S
C2601 C1134 1.624 . S
C2610 C279 1.557 . S
C2612 C477 1.619 . S
C2621 C281 1.550 . S
C2623 C491 1.623 . S
C2632 C295 1.551 . S
C2634 C1216 1.623 . S
C2643 C1219 1.621 . S
C2645 C320 1.555 . S
C2654 C1202 1.624 . S
C2656 C334 1.553 . S
C2665 C267 1.618 . S
C2667 C348 1.556 . S
C2676 C363 1.560 . S
C2678 C293 1.619 . S
C2687 C376 1.548 . S
C2689 C238 1.624 . S
C2698 C378 1.558 . S
C2700 C924 1.619 . S
C2709 C979 1.618 . S
C2711 C404 1.556 . S
C2720 C993 1.619 . S
C2722 C418 1.555 . S
C2731 C420 1.555 . S
C2733 C897 1.621 . S
C2742 C1007 1.624 . S
C2744 C435 1.552 . S
C2753 C448 1.558 . S
C2755 C40 1.619 . S
C2764 C726 1.619 . S
C2766 C474 1.555 . S
C2775 C489 1.560 . S
C2777 C0 1.620 . S
C2786 C698 1.618 . S
C2788 C503 1.561 . S
C2797 C504 1.556 . S
C2799 C96 1.619 . S
C2808 C783 1.618 . S
C2810 C530 1.556 . S
C2819 C56 1.623 . S
C2821 C532 1.550 . S
C2830 C743 1.618 . S
C2832 C558 1.557 . S
C2841 C572 1.558 . S
C2843 C853 1.620 . S
C2852 C586 1.550 . S
C2854 C125 1.622 . S
C2863 C798 1.621 . S
C2865 C588 1.551 . S
C2874 C615 1.561 . S
C2876 C140 1.619 . S
C2885 C155 1.623 . S
C2887 C616 1.552 . S
C2896 C868 1.622 . S
C2898 C642 1.550 . S
C2907 C883 1.619 . S
C2909 C644 1.554 . S
C2918 C854 1.622 . S
C2920 C658 1.554 . S
C2929 C685 1.558 . S
C2931 C1275 1.619 . S
C2940 C686 1.555 . S
C2942 C1300 1.621 . S
C2951 C712 1.554 . S
C2953 C1259 1.621 . S
C2962 C600 1.623 . S
C2964 C714 1.553 . S
C2973 C729 1.551 . S
C2975 C630 1.621 . S
C2984 C656 1.619 . S
C2986 C755 1.555 . S
C2995 C560 1.620 . S
C2997 C769 1.552 . S
C3006 C670 1.624 . S
C3008 C771 1.549 . S
C3017 C796 1.561 . S
C3019 C1037 1.619 . S
C3028 C390 1.618 . S
C3030 C810 1.559 . S
C3039 C813 1.548 . S
C3041 C1009 1.623 . S
C3050 C838 1.553 . S
C3052 C351 1.623 . S
C3061 C841 1.549 . S
C3063 C1093 1.622 . S
C3072 C866 1.559 . S
C3074 C447 1.619 . S
C3083 C1077 1.620 . S
C3085 C880 1.560 . S
C3094 C406 1.624 . S
C3096 C895 1.552 . S
C3105 C909 1.551 . S
C3107 C516 1.621 . S
C3116 C922 1.556 . S
C3118 C1132 1.623 . S
C3127 C936 1.555 . S
C3129 C462 1.623 . S
C3138 C1149 1.623 . S
C3140 C950 1.557 . S
C3149 C953 1.558 . S
C3151 C1163 1.619 . S
C3160 C967 1.557 . S
C3162 C544 1.621 . S
C3171 C546 1.618 . S
C3173 C981 1.556 . S
C3182 C995 1.555 . S
C3184 C518 1.622 . S
C3193 C1021 1.552 . S
C3195 C938 1.623 . S
C3204 C965 1.620 . S
C3206 C1022 1.553 . S
C3215 C910 1.624 . S
C3217 C1049 1.555 . S
C3226 C1063 1.561 . S
C3228 C265 1.620 . S
C3237 C1065 1.555 . S
C3239 C307 1.623 . S
C3248 C1090 1.551 . S
C3250 C308 1.621 . S
C3259 C224 1.618 . S
C3261 C1105 1.559 . S
C3270 C1118 1.548 . S
C3272 C322 1.623 . S
C3281 C1120 1.551 . S
C3283 C700 1.623 . S
C3292 C1146 1.552 . S
C3294 C42 1.622 . S
C3303 C1161 1.553 . S
C3305 C673 1.622 . S
C3314 C1175 1.554 . S
C3316 C14 1.623 . S
C3325 C1176 1.558 . S
C3327 C757 1.620 . S
C3336 C1190 1.548 . S
C3338 C99 1.623 . S
C3347 C1204 1.548 . S
C3349 C741 1.623 . S
C3358 C1231 1.554 . S
C3360 C82 1.623 . S
C3369 C1232 1.548 . S
C3371 C181 1.624 . S
C3380 C1247 1.561 . S
C3382 C784 1.620 . S
C3391 C1260 1.555 . S
C3393 C126 1.621 . S
C3402 C1287 1.562 . S
C3404 C825 1.619 . S
C3413 C1288 1.557 . S
C3415 C826 1.619 . S
C3424 C196 1.622 . S
C3426 C1314 1.550 . S
C3435 C1316 1.548 . S
C3437 C210 1.624 . S
C3446 C1330 1.558 . S
C3448 C194 1.619 . S
