# Generated by pormake.
# Topology zni, (4)-cn, num edge types: 1
# Building blocks:
#     Node 0, Type 0, BuildingBlock: QUQFOY_clean_sbu_1, # of connection points: 4
#     Node 1, Type 0, BuildingBlock: QUQFOY_clean_sbu_1, # of connection points: 4
#     Node 2, Type 0, BuildingBlock: QUQFOY_clean_sbu_1, # of connection points: 4
#     Node 3, Type 0, BuildingBlock: QUQFOY_clean_sbu_1, # of connection points: 4
#     Node 4, Type 0, BuildingBlock: QUQFOY_clean_sbu_1, # of connection points: 4
#     Node 5, Type 0, BuildingBlock: QUQFOY_clean_sbu_1, # of connection points: 4
#     Node 6, Type 0, BuildingBlock: QUQFOY_clean_sbu_1, # of connection points: 4
#     Node 7, Type 0, BuildingBlock: QUQFOY_clean_sbu_1, # of connection points: 4
#     Node 8, Type 0, BuildingBlock: QUQFOY_clean_sbu_1, # of connection points: 4
#     Node 9, Type 0, BuildingBlock: QUQFOY_clean_sbu_1, # of connection points: 4
#     Node 10, Type 0, BuildingBlock: QUQFOY_clean_sbu_1, # of connection points: 4
#     Node 11, Type 0, BuildingBlock: QUQFOY_clean_sbu_1, # of connection points: 4
#     Node 12, Type 0, BuildingBlock: QUQFOY_clean_sbu_1, # of connection points: 4
#     Node 13, Type 0, BuildingBlock: QUQFOY_clean_sbu_1, # of connection points: 4
#     Node 14, Type 0, BuildingBlock: QUQFOY_clean_sbu_1, # of connection points: 4
#     Node 15, Type 0, BuildingBlock: QUQFOY_clean_sbu_1, # of connection points: 4
#     Node 16, Type 0, BuildingBlock: QUQFOY_clean_sbu_1, # of connection points: 4
#     Node 17, Type 0, BuildingBlock: QUQFOY_clean_sbu_1, # of connection points: 4
#     Node 18, Type 0, BuildingBlock: QUQFOY_clean_sbu_1, # of connection points: 4
#     Node 19, Type 0, BuildingBlock: QUQFOY_clean_sbu_1, # of connection points: 4
#     Node 20, Type 0, BuildingBlock: QUQFOY_clean_sbu_1, # of connection points: 4
#     Node 21, Type 0, BuildingBlock: QUQFOY_clean_sbu_1, # of connection points: 4
#     Node 22, Type 0, BuildingBlock: QUQFOY_clean_sbu_1, # of connection points: 4
#     Node 23, Type 0, BuildingBlock: QUQFOY_clean_sbu_1, # of connection points: 4
#     Node 24, Type 0, BuildingBlock: QUQFOY_clean_sbu_1, # of connection points: 4
#     Node 25, Type 0, BuildingBlock: QUQFOY_clean_sbu_1, # of connection points: 4
#     Node 26, Type 0, BuildingBlock: QUQFOY_clean_sbu_1, # of connection points: 4
#     Node 27, Type 0, BuildingBlock: QUQFOY_clean_sbu_1, # of connection points: 4
#     Node 28, Type 0, BuildingBlock: QUQFOY_clean_sbu_1, # of connection points: 4
#     Node 29, Type 0, BuildingBlock: QUQFOY_clean_sbu_1, # of connection points: 4
#     Node 30, Type 0, BuildingBlock: QUQFOY_clean_sbu_1, # of connection points: 4
#     Node 31, Type 0, BuildingBlock: QUQFOY_clean_sbu_1, # of connection points: 4
#     Edge 32, Type (0, 0), BuildingBlock: EZIPEK_clean_linker_0, # of connection points: 2
#     Edge 33, Type (0, 0), BuildingBlock: EZIPEK_clean_linker_0, # of connection points: 2
#     Edge 34, Type (0, 0), BuildingBlock: EZIPEK_clean_linker_0, # of connection points: 2
#     Edge 35, Type (0, 0), BuildingBlock: EZIPEK_clean_linker_0, # of connection points: 2
#     Edge 36, Type (0, 0), BuildingBlock: EZIPEK_clean_linker_0, # of connection points: 2
#     Edge 37, Type (0, 0), BuildingBlock: EZIPEK_clean_linker_0, # of connection points: 2
#     Edge 38, Type (0, 0), BuildingBlock: EZIPEK_clean_linker_0, # of connection points: 2
#     Edge 39, Type (0, 0), BuildingBlock: EZIPEK_clean_linker_0, # of connection points: 2
#     Edge 40, Type (0, 0), BuildingBlock: EZIPEK_clean_linker_0, # of connection points: 2
#     Edge 41, Type (0, 0), BuildingBlock: EZIPEK_clean_linker_0, # of connection points: 2
#     Edge 42, Type (0, 0), BuildingBlock: EZIPEK_clean_linker_0, # of connection points: 2
#     Edge 43, Type (0, 0), BuildingBlock: EZIPEK_clean_linker_0, # of connection points: 2
#     Edge 44, Type (0, 0), BuildingBlock: EZIPEK_clean_linker_0, # of connection points: 2
#     Edge 45, Type (0, 0), BuildingBlock: EZIPEK_clean_linker_0, # of connection points: 2
#     Edge 46, Type (0, 0), BuildingBlock: EZIPEK_clean_linker_0, # of connection points: 2
#     Edge 47, Type (0, 0), BuildingBlock: EZIPEK_clean_linker_0, # of connection points: 2
#     Edge 48, Type (0, 0), BuildingBlock: EZIPEK_clean_linker_0, # of connection points: 2
#     Edge 49, Type (0, 0), BuildingBlock: EZIPEK_clean_linker_0, # of connection points: 2
#     Edge 50, Type (0, 0), BuildingBlock: EZIPEK_clean_linker_0, # of connection points: 2
#     Edge 51, Type (0, 0), BuildingBlock: EZIPEK_clean_linker_0, # of connection points: 2
#     Edge 52, Type (0, 0), BuildingBlock: EZIPEK_clean_linker_0, # of connection points: 2
#     Edge 53, Type (0, 0), BuildingBlock: EZIPEK_clean_linker_0, # of connection points: 2
#     Edge 54, Type (0, 0), BuildingBlock: EZIPEK_clean_linker_0, # of connection points: 2
#     Edge 55, Type (0, 0), BuildingBlock: EZIPEK_clean_linker_0, # of connection points: 2
#     Edge 56, Type (0, 0), BuildingBlock: EZIPEK_clean_linker_0, # of connection points: 2
#     Edge 57, Type (0, 0), BuildingBlock: EZIPEK_clean_linker_0, # of connection points: 2
#     Edge 58, Type (0, 0), BuildingBlock: EZIPEK_clean_linker_0, # of connection points: 2
#     Edge 59, Type (0, 0), BuildingBlock: EZIPEK_clean_linker_0, # of connection points: 2
#     Edge 60, Type (0, 0), BuildingBlock: EZIPEK_clean_linker_0, # of connection points: 2
#     Edge 61, Type (0, 0), BuildingBlock: EZIPEK_clean_linker_0, # of connection points: 2
#     Edge 62, Type (0, 0), BuildingBlock: EZIPEK_clean_linker_0, # of connection points: 2
#     Edge 63, Type (0, 0), BuildingBlock: EZIPEK_clean_linker_0, # of connection points: 2
#     Edge 64, Type (0, 0), BuildingBlock: EZIPEK_clean_linker_0, # of connection points: 2
#     Edge 65, Type (0, 0), BuildingBlock: EZIPEK_clean_linker_0, # of connection points: 2
#     Edge 66, Type (0, 0), BuildingBlock: EZIPEK_clean_linker_0, # of connection points: 2
#     Edge 67, Type (0, 0), BuildingBlock: EZIPEK_clean_linker_0, # of connection points: 2
#     Edge 68, Type (0, 0), BuildingBlock: EZIPEK_clean_linker_0, # of connection points: 2
#     Edge 69, Type (0, 0), BuildingBlock: EZIPEK_clean_linker_0, # of connection points: 2
#     Edge 70, Type (0, 0), BuildingBlock: EZIPEK_clean_linker_0, # of connection points: 2
#     Edge 71, Type (0, 0), BuildingBlock: EZIPEK_clean_linker_0, # of connection points: 2
#     Edge 72, Type (0, 0), BuildingBlock: EZIPEK_clean_linker_0, # of connection points: 2
#     Edge 73, Type (0, 0), BuildingBlock: EZIPEK_clean_linker_0, # of connection points: 2
#     Edge 74, Type (0, 0), BuildingBlock: EZIPEK_clean_linker_0, # of connection points: 2
#     Edge 75, Type (0, 0), BuildingBlock: EZIPEK_clean_linker_0, # of connection points: 2
#     Edge 76, Type (0, 0), BuildingBlock: EZIPEK_clean_linker_0, # of connection points: 2
#     Edge 77, Type (0, 0), BuildingBlock: EZIPEK_clean_linker_0, # of connection points: 2
#     Edge 78, Type (0, 0), BuildingBlock: EZIPEK_clean_linker_0, # of connection points: 2
#     Edge 79, Type (0, 0), BuildingBlock: EZIPEK_clean_linker_0, # of connection points: 2
#     Edge 80, Type (0, 0), BuildingBlock: EZIPEK_clean_linker_0, # of connection points: 2
#     Edge 81, Type (0, 0), BuildingBlock: EZIPEK_clean_linker_0, # of connection points: 2
#     Edge 82, Type (0, 0), BuildingBlock: EZIPEK_clean_linker_0, # of connection points: 2
#     Edge 83, Type (0, 0), BuildingBlock: EZIPEK_clean_linker_0, # of connection points: 2
#     Edge 84, Type (0, 0), BuildingBlock: EZIPEK_clean_linker_0, # of connection points: 2
#     Edge 85, Type (0, 0), BuildingBlock: EZIPEK_clean_linker_0, # of connection points: 2
#     Edge 86, Type (0, 0), BuildingBlock: EZIPEK_clean_linker_0, # of connection points: 2
#     Edge 87, Type (0, 0), BuildingBlock: EZIPEK_clean_linker_0, # of connection points: 2
#     Edge 88, Type (0, 0), BuildingBlock: EZIPEK_clean_linker_0, # of connection points: 2
#     Edge 89, Type (0, 0), BuildingBlock: EZIPEK_clean_linker_0, # of connection points: 2
#     Edge 90, Type (0, 0), BuildingBlock: EZIPEK_clean_linker_0, # of connection points: 2
#     Edge 91, Type (0, 0), BuildingBlock: EZIPEK_clean_linker_0, # of connection points: 2
#     Edge 92, Type (0, 0), BuildingBlock: EZIPEK_clean_linker_0, # of connection points: 2
#     Edge 93, Type (0, 0), BuildingBlock: EZIPEK_clean_linker_0, # of connection points: 2
#     Edge 94, Type (0, 0), BuildingBlock: EZIPEK_clean_linker_0, # of connection points: 2
#     Edge 95, Type (0, 0), BuildingBlock: EZIPEK_clean_linker_0, # of connection points: 2
# Relax obj value: 0.190
# Max RMSD: 0.170
# Mean RMSD: 0.170
data_MOF--net-zni--node1-QUQFOY_clean_sbu_1--edge1-EZIPEK_clean_linker_0
_symmetry_space_group_name_H-M    P1
_symmetry_Int_Tables_number       1
_symmetry_cell_setting            triclinic
loop_
_symmetry_equiv_pos_as_xyz
'x, y, z'
_cell_length_a     44.412965
_cell_length_b     44.398426
_cell_length_c     25.978988
_cell_angle_alpha  90.030505
_cell_angle_beta   89.984729
_cell_angle_gamma 90.014033
loop_
_atom_site_label
_atom_site_type_symbol
_atom_site_fract_x
_atom_site_fract_y
_atom_site_fract_z
_atom_type_partial_charge
O0 O 0.05344 0.10622 0.36056 0.0
Cd1 Cd 0.09953 0.10217 0.34747 0.0
Cd2 Cd 0.09848 0.11455 0.44808 0.0
O3 O 0.05427 0.1019 0.44499 0.0
O4 O 0.10098 0.0795 0.28149 0.0
O5 O 0.12101 0.06241 0.3535 0.0
C6 C 0.11461 0.05807 0.30555 0.0
C7 C 0.12378 0.10497 0.52499 0.0
C8 C 0.03968 0.10357 0.40321 0.0
C9 C 0.12083 0.16219 0.37403 0.0
O10 O 0.1081 0.15602 0.41651 0.0
O11 O 0.12421 0.14158 0.34063 0.0
O12 O 0.10262 0.12458 0.52204 0.0
O13 O 0.13081 0.09 0.48416 0.0
O14 O 0.14576 0.79491 0.60984 0.0
Cd15 Cd 0.15274 0.83968 0.59087 0.0
Cd16 Cd 0.14057 0.84516 0.69465 0.0
O17 O 0.14659 0.79922 0.69453 0.0
O18 O 0.17275 0.83742 0.52236 0.0
O19 O 0.19488 0.85649 0.59161 0.0
C20 C 0.19627 0.84899 0.5436 0.0
C21 C 0.15383 0.87138 0.76907 0.0
C22 C 0.14531 0.78302 0.65432 0.0
C23 C 0.09521 0.86871 0.61739 0.0
O24 O 0.10091 0.86026 0.66299 0.0
O25 O 0.1147 0.86589 0.5819 0.0
O26 O 0.13175 0.85272 0.76824 0.0
O27 O 0.16947 0.87496 0.72768 0.0
O28 O 0.45157 0.89663 0.85206 0.0
Cd29 Cd 0.40733 0.90073 0.82923 0.0
Cd30 Cd 0.39719 0.88657 0.93054 0.0
O31 O 0.44317 0.89272 0.93559 0.0
O32 O 0.40864 0.92577 0.76599 0.0
O33 O 0.38635 0.94041 0.83839 0.0
C34 C 0.39448 0.9462 0.79164 0.0
C35 C 0.36985 0.89705 0.00522 0.0
C36 C 0.46127 0.89436 0.89786 0.0
C37 C 0.37946 0.84172 0.84699 0.0
O38 O 0.38324 0.84772 0.89429 0.0
O39 O 0.3858 0.8609 0.81241 0.0
O40 O 0.38819 0.87479 0.00239 0.0
O41 O 0.36691 0.91427 0.96557 0.0
O42 O 0.3565 0.19244 0.11162 0.0
Cd43 Cd 0.34951 0.14598 0.10785 0.0
Cd44 Cd 0.35841 0.15459 0.20506 0.0
O45 O 0.34349 0.19747 0.19291 0.0
O46 O 0.33239 0.13917 0.03815 0.0
O47 O 0.30665 0.13163 0.11024 0.0
C48 C 0.30733 0.1325 0.06051 0.0
C49 C 0.34726 0.12902 0.28066 0.0
C50 C 0.34963 0.20914 0.14967 0.0
C51 C 0.40741 0.12678 0.14479 0.0
O52 O 0.40135 0.14623 0.179 0.0
O53 O 0.38646 0.11769 0.11547 0.0
O54 O 0.36425 0.15247 0.28044 0.0
O55 O 0.33495 0.12058 0.238 0.0
O56 O 0.05552 0.90104 0.12921 0.0
Cd57 Cd 0.10083 0.90308 0.1472 0.0
Cd58 Cd 0.10445 0.8895 0.04343 0.0
O59 O 0.05889 0.89839 0.04458 0.0
O60 O 0.10011 0.92573 0.21324 0.0
O61 O 0.12428 0.9419 0.14443 0.0
C62 C 0.1157 0.94657 0.19126 0.0
C63 C 0.13019 0.89993 0.96729 0.0
C64 C 0.04312 0.90018 0.08521 0.0
C65 C 0.12547 0.84324 0.12239 0.0
O66 O 0.11829 0.84966 0.07641 0.0
O67 O 0.12271 0.86256 0.15821 0.0
O68 O 0.11041 0.87892 0.97012 0.0
O69 O 0.13523 0.91614 0.0076 0.0
O70 O 0.35579 0.79376 0.36143 0.0
Cd71 Cd 0.34996 0.83907 0.37811 0.0
Cd72 Cd 0.36296 0.84223 0.27512 0.0
O73 O 0.35589 0.79643 0.27656 0.0
O74 O 0.33056 0.838 0.4472 0.0
O75 O 0.3078 0.85587 0.37769 0.0
C76 C 0.30678 0.84901 0.42598 0.0
C77 C 0.34801 0.86887 0.2024 0.0
C78 C 0.35609 0.78099 0.31764 0.0
C79 C 0.40816 0.86717 0.35052 0.0
O80 O 0.403 0.85727 0.30557 0.0
O81 O 0.38815 0.86549 0.38541 0.0
O82 O 0.36994 0.85002 0.20115 0.0
O83 O 0.33346 0.87235 0.245 0.0
O84 O 0.45114 0.11225 0.6366 0.0
Cd85 Cd 0.40506 0.10555 0.64611 0.0
Cd86 Cd 0.40861 0.11388 0.54791 0.0
O87 O 0.45212 0.09944 0.55475 0.0
O88 O 0.40097 0.08611 0.71458 0.0
O89 O 0.39063 0.06287 0.64095 0.0
C90 C 0.39361 0.0618 0.69042 0.0
C91 C 0.38048 0.10139 0.47555 0.0
C92 C 0.46587 0.10542 0.59626 0.0
C93 C 0.38367 0.16338 0.61185 0.0
O94 O 0.40056 0.15696 0.57402 0.0
O95 O 0.37691 0.14283 0.64378 0.0
O96 O 0.40338 0.11904 0.47282 0.0
O97 O 0.37391 0.08941 0.5194 0.0
O98 O 0.15292 0.18948 0.89387 0.0
Cd99 Cd 0.15176 0.14353 0.90672 0.0
Cd100 Cd 0.12736 0.14641 0.80863 0.0
O101 O 0.12995 0.19222 0.81912 0.0
O102 O 0.1743 0.14142 0.97278 0.0
O103 O 0.19128 0.1215 0.90019 0.0
C104 C 0.19558 0.12814 0.94804 0.0
C105 C 0.14127 0.12593 0.72988 0.0
C106 C 0.14191 0.20513 0.85761 0.0
C107 C 0.089 0.119 0.89076 0.0
O108 O 0.09173 0.12615 0.8438 0.0
O109 O 0.11045 0.12317 0.92249 0.0
O110 O 0.11722 0.1418 0.73492 0.0
O111 O 0.15824 0.12189 0.76962 0.0
O112 O 0.95442 0.89344 0.64283 0.0
Cd113 Cd 0.90834 0.90068 0.65135 0.0
Cd114 Cd 0.91169 0.89057 0.55143 0.0
O115 O 0.95597 0.90216 0.55942 0.0
O116 O 0.90421 0.92179 0.71851 0.0
O117 O 0.89299 0.94291 0.64342 0.0
C118 C 0.89583 0.94516 0.6928 0.0
C119 C 0.88782 0.90378 0.47487 0.0
C120 C 0.96939 0.8978 0.60178 0.0
C121 C 0.88484 0.84272 0.61883 0.0
O122 O 0.90028 0.84852 0.57892 0.0
O123 O 0.88018 0.86343 0.65156 0.0
O124 O 0.90872 0.88381 0.47624 0.0
O125 O 0.8804 0.91714 0.51713 0.0
O126 O 0.8613 0.20298 0.38961 0.0
Cd127 Cd 0.85523 0.15826 0.40997 0.0
Cd128 Cd 0.86807 0.15135 0.30809 0.0
O129 O 0.86069 0.19708 0.30526 0.0
O130 O 0.83365 0.16045 0.47697 0.0
O131 O 0.81349 0.14072 0.40647 0.0
C132 C 0.81078 0.14854 0.45417 0.0
C133 C 0.8547 0.12307 0.23617 0.0
C134 C 0.8614 0.21408 0.34453 0.0
C135 C 0.91343 0.12983 0.38675 0.0
O136 O 0.90802 0.13761 0.3407 0.0
O137 O 0.89353 0.13279 0.42152 0.0
O138 O 0.87648 0.14208 0.23504 0.0
O139 O 0.83941 0.1203 0.27814 0.0
O140 O 0.55344 0.10397 0.16274 0.0
Cd141 Cd 0.60024 0.10255 0.16656 0.0
Cd142 Cd 0.59097 0.12081 0.06676 0.0
O143 O 0.54642 0.11367 0.08069 0.0
O144 O 0.60628 0.08247 0.23419 0.0
O145 O 0.61786 0.0609 0.15986 0.0
C146 C 0.61478 0.05889 0.2092 0.0
C147 C 0.61172 0.10848 0.98733 0.0
C148 C 0.53575 0.10817 0.12497 0.0
C149 C 0.62193 0.16398 0.13817 0.0
O150 O 0.60721 0.15975 0.09702 0.0
O151 O 0.62518 0.14254 0.17016 0.0
O152 O 0.59238 0.12983 0.99214 0.0
O153 O 0.61872 0.09287 0.02748 0.0
O154 O 0.64263 0.80452 0.9142 0.0
Cd155 Cd 0.64736 0.85022 0.92693 0.0
Cd156 Cd 0.63466 0.84884 0.82133 0.0
O157 O 0.6547 0.80739 0.83213 0.0
O158 O 0.6682 0.85403 0.9942 0.0
O159 O 0.68893 0.86745 0.91995 0.0
C160 C 0.69138 0.86359 0.96911 0.0
C161 C 0.63006 0.86401 0.7346 0.0
C162 C 0.64998 0.79181 0.87226 0.0
C163 C 0.58788 0.87064 0.89801 0.0
O164 O 0.59359 0.85709 0.8561 0.0
O165 O 0.6083 0.87494 0.93134 0.0
O166 O 0.64492 0.8804 0.76669 0.0
O167 O 0.6201 0.83876 0.75135 0.0
O168 O 0.94887 0.10313 0.87886 0.0
Cd169 Cd 0.90303 0.09502 0.86762 0.0
Cd170 Cd 0.90652 0.10241 0.96711 0.0
O171 O 0.94967 0.08708 0.9589 0.0
O172 O 0.90032 0.07981 0.79572 0.0
O173 O 0.89043 0.05164 0.86418 0.0
C174 C 0.89366 0.05386 0.81487 0.0
C175 C 0.88 0.09088 0.04162 0.0
C176 C 0.96355 0.09493 0.9185 0.0
C177 C 0.87978 0.15137 0.90526 0.0
O178 O 0.89816 0.14559 0.94129 0.0
O179 O 0.8728 0.13049 0.87415 0.0
O180 O 0.90309 0.10832 0.04226 0.0
O181 O 0.87229 0.07852 0.99861 0.0
O182 O 0.6452 0.20379 0.61775 0.0
Cd183 Cd 0.65111 0.1585 0.60157 0.0
Cd184 Cd 0.63226 0.15572 0.7048 0.0
O185 O 0.64052 0.20131 0.70234 0.0
O186 O 0.67364 0.15957 0.53533 0.0
O187 O 0.69277 0.14081 0.6073 0.0
C188 C 0.69611 0.14789 0.55942 0.0
C189 C 0.63872 0.13171 0.78391 0.0
C190 C 0.6428 0.21662 0.66128 0.0
C191 C 0.59134 0.13156 0.62048 0.0
O192 O 0.59464 0.14083 0.66633 0.0
O193 O 0.61283 0.13316 0.58829 0.0
O194 O 0.61751 0.15082 0.77634 0.0
O195 O 0.65727 0.12634 0.7468 0.0
O196 O 0.54993 0.88907 0.33713 0.0
Cd197 Cd 0.59632 0.89596 0.33822 0.0
Cd198 Cd 0.58385 0.88846 0.43439 0.0
O199 O 0.54469 0.90964 0.41321 0.0
O200 O 0.6069 0.91988 0.2762 0.0
O201 O 0.61032 0.93735 0.35633 0.0
C202 C 0.61189 0.94208 0.30723 0.0
C203 C 0.59819 0.88927 0.52159 0.0
C204 C 0.53304 0.90022 0.37171 0.0
C205 C 0.61134 0.83812 0.37694 0.0
O206 O 0.58984 0.84517 0.40682 0.0
O207 O 0.62326 0.85845 0.34925 0.0
O208 O 0.57201 0.88073 0.50674 0.0
O209 O 0.61587 0.90005 0.48683 0.0
O210 O 0.86005 0.8103 0.10913 0.0
Cd211 Cd 0.85588 0.85575 0.09337 0.0
Cd212 Cd 0.87393 0.86001 0.19337 0.0
O213 O 0.86478 0.81451 0.19338 0.0
O214 O 0.82881 0.85728 0.03261 0.0
O215 O 0.81634 0.8756 0.10928 0.0
C216 C 0.80896 0.86939 0.06231 0.0
C217 C 0.86501 0.88499 0.27089 0.0
C218 C 0.86203 0.79832 0.15338 0.0
C219 C 0.91633 0.88102 0.1086 0.0
O220 O 0.91245 0.87363 0.15535 0.0
O221 O 0.89501 0.87873 0.07623 0.0
O222 O 0.88672 0.86614 0.26568 0.0
O223 O 0.84775 0.89002 0.23189 0.0
O224 O 0.55489 0.61155 0.86742 0.0
Cd225 Cd 0.60049 0.60602 0.8537 0.0
Cd226 Cd 0.60135 0.62075 0.95778 0.0
O227 O 0.55583 0.61287 0.95241 0.0
O228 O 0.60088 0.5849 0.78611 0.0
O229 O 0.6175 0.56407 0.85827 0.0
C230 C 0.61144 0.56172 0.80979 0.0
C231 C 0.62393 0.61034 0.03677 0.0
C232 C 0.54128 0.61215 0.91041 0.0
C233 C 0.62704 0.66494 0.88007 0.0
O234 O 0.61685 0.65992 0.92488 0.0
O235 O 0.62621 0.64462 0.84561 0.0
O236 O 0.60518 0.63209 0.0312 0.0
O237 O 0.62985 0.59356 0.9975 0.0
O238 O 0.65103 0.30734 0.11419 0.0
Cd239 Cd 0.64844 0.35289 0.09671 0.0
Cd240 Cd 0.62171 0.351 0.19295 0.0
O241 O 0.62523 0.30511 0.18614 0.0
O242 O 0.66958 0.35262 0.0292 0.0
O243 O 0.68821 0.37515 0.09809 0.0
C244 C 0.69158 0.36648 0.051 0.0
C245 C 0.63719 0.37338 0.26908 0.0
C246 C 0.63928 0.29193 0.1501 0.0
C247 C 0.5843 0.37576 0.10777 0.0
O248 O 0.58603 0.36956 0.15527 0.0
O249 O 0.60677 0.37188 0.07805 0.0
O250 O 0.61266 0.35802 0.26648 0.0
O251 O 0.65345 0.37623 0.22815 0.0
O252 O 0.94959 0.3967 0.34149 0.0
Cd253 Cd 0.90407 0.40138 0.32719 0.0
Cd254 Cd 0.90368 0.38657 0.43189 0.0
O255 O 0.94501 0.4075 0.42376 0.0
O256 O 0.90079 0.42761 0.26549 0.0
O257 O 0.88511 0.44124 0.34337 0.0
C258 C 0.88988 0.44798 0.29562 0.0
C259 C 0.88935 0.37909 0.51874 0.0
C260 C 0.96144 0.40342 0.38442 0.0
C261 C 0.88359 0.34114 0.35039 0.0
O262 O 0.89566 0.34637 0.3938 0.0
O263 O 0.88017 0.36206 0.31757 0.0
O264 O 0.91449 0.3701 0.5002 0.0
O265 O 0.87237 0.39441 0.4883 0.0
O266 O 0.85194 0.69838 0.60407 0.0
Cd267 Cd 0.85036 0.65183 0.596 0.0
Cd268 Cd 0.8736 0.65721 0.69507 0.0
O269 O 0.87186 0.70261 0.68116 0.0
O270 O 0.82912 0.64805 0.52886 0.0
O271 O 0.80923 0.63286 0.60254 0.0
C272 C 0.80638 0.63747 0.5537 0.0
C273 C 0.85885 0.63855 0.77463 0.0
C274 C 0.86197 0.71476 0.64034 0.0
C275 C 0.91164 0.62505 0.61759 0.0
O276 O 0.90921 0.63553 0.66274 0.0
O277 O 0.89019 0.62757 0.5854 0.0
O278 O 0.88296 0.65428 0.76933 0.0
O279 O 0.84217 0.6338 0.73475 0.0
O280 O 0.55077 0.40008 0.63662 0.0
Cd281 Cd 0.59536 0.40355 0.65864 0.0
Cd282 Cd 0.60326 0.38759 0.55446 0.0
O283 O 0.55787 0.39688 0.55266 0.0
O284 O 0.59324 0.42554 0.72524 0.0
O285 O 0.61545 0.4442 0.65576 0.0
C286 C 0.60689 0.44758 0.70296 0.0
C287 C 0.62728 0.39519 0.47553 0.0
C288 C 0.54038 0.39887 0.59112 0.0
C289 C 0.62179 0.34356 0.63915 0.0
O290 O 0.61643 0.34878 0.59198 0.0
O291 O 0.61767 0.36373 0.67314 0.0
O292 O 0.60863 0.37352 0.48266 0.0
O293 O 0.63293 0.41303 0.51352 0.0
O294 O 0.85219 0.2972 0.92241 0.0
Cd295 Cd 0.85279 0.3439 0.92082 0.0
Cd296 Cd 0.87347 0.3327 0.8217 0.0
O297 O 0.86375 0.28911 0.84148 0.0
O298 O 0.82933 0.35409 0.98358 0.0
O299 O 0.81332 0.36396 0.90453 0.0
C300 C 0.80829 0.36349 0.95352 0.0
C301 C 0.87118 0.34613 0.73377 0.0
C302 C 0.85701 0.27899 0.88565 0.0
C303 C 0.91563 0.36316 0.89498 0.0
O304 O 0.91229 0.34891 0.85311 0.0
O305 O 0.89388 0.36628 0.92647 0.0
O306 O 0.85568 0.36071 0.76748 0.0
O307 O 0.88581 0.32319 0.75016 0.0
O308 O 0.94882 0.61755 0.14594 0.0
Cd309 Cd 0.90361 0.61134 0.16162 0.0
Cd310 Cd 0.89969 0.62614 0.05915 0.0
O311 O 0.94511 0.61709 0.06114 0.0
O312 O 0.90258 0.58889 0.22777 0.0
O313 O 0.88682 0.56944 0.154 0.0
C314 C 0.8924 0.56606 0.20248 0.0
C315 C 0.8755 0.61758 0.98069 0.0
C316 C 0.96102 0.61746 0.10171 0.0
C317 C 0.87794 0.67063 0.13974 0.0
O318 O 0.8865 0.66562 0.09397 0.0
O319 O 0.87909 0.65009 0.17366 0.0
O320 O 0.89505 0.6386 0.98634 0.0
O321 O 0.8695 0.6006 0.01963 0.0
O322 O 0.6403 0.69405 0.41316 0.0
Cd323 Cd 0.64379 0.64749 0.42107 0.0
Cd324 Cd 0.62525 0.6512 0.32124 0.0
O325 O 0.62817 0.69669 0.3312 0.0
O326 O 0.66817 0.64308 0.4848 0.0
O327 O 0.68468 0.62986 0.40739 0.0
C328 C 0.68973 0.63343 0.45601 0.0
C329 C 0.63983 0.6307 0.24272 0.0
C330 C 0.63398 0.70965 0.37356 0.0
C331 C 0.58425 0.61996 0.39672 0.0
O332 O 0.5881 0.63173 0.35276 0.0
O333 O 0.60512 0.62122 0.43014 0.0
O334 O 0.61618 0.64719 0.24698 0.0
O335 O 0.65615 0.62611 0.28306 0.0
O336 O 0.44547 0.39498 0.12388 0.0
Cd337 Cd 0.39986 0.39609 0.14071 0.0
Cd338 Cd 0.39711 0.37944 0.03831 0.0
O339 O 0.44249 0.38893 0.03973 0.0
O340 O 0.39873 0.41943 0.20606 0.0
O341 O 0.37563 0.43437 0.13525 0.0
C342 C 0.38303 0.43958 0.18252 0.0
C343 C 0.37245 0.38936 0.96102 0.0
C344 C 0.45807 0.39269 0.08015 0.0
C345 C 0.37639 0.33488 0.11971 0.0
O346 O 0.3835 0.34005 0.07322 0.0
O347 O 0.37887 0.35528 0.1538 0.0
O348 O 0.39166 0.36791 0.96534 0.0
O349 O 0.36697 0.40589 0.0008 0.0
O350 O 0.3595 0.70358 0.88014 0.0
Cd351 Cd 0.35485 0.65871 0.89962 0.0
Cd352 Cd 0.37111 0.65166 0.79924 0.0
O353 O 0.36322 0.69731 0.79612 0.0
O354 O 0.32945 0.65935 0.96251 0.0
O355 O 0.31477 0.63866 0.88883 0.0
C356 C 0.30885 0.64612 0.93585 0.0
C357 C 0.36009 0.62548 0.72378 0.0
C358 C 0.36132 0.71444 0.83506 0.0
C359 C 0.41468 0.63234 0.88324 0.0
O360 O 0.41005 0.63825 0.8361 0.0
O361 O 0.39405 0.63601 0.91652 0.0
O362 O 0.38253 0.64363 0.72688 0.0
O363 O 0.34344 0.62165 0.76395 0.0
O364 O 0.04819 0.60326 0.65421 0.0
Cd365 Cd 0.09354 0.59789 0.66917 0.0
Cd366 Cd 0.09555 0.61097 0.56471 0.0
O367 O 0.05302 0.59253 0.57195 0.0
O368 O 0.09645 0.57234 0.73161 0.0
O369 O 0.11216 0.55778 0.65418 0.0
C370 C 0.10749 0.55168 0.70221 0.0
C371 C 0.11175 0.61512 0.47834 0.0
C372 C 0.03646 0.59702 0.61098 0.0
C373 C 0.11653 0.65708 0.64434 0.0
O374 O 0.10513 0.65164 0.60047 0.0
O375 O 0.11829 0.63662 0.67831 0.0
O376 O 0.08693 0.62619 0.49476 0.0
O377 O 0.12728 0.59966 0.5108 0.0
O378 O 0.14892 0.3073 0.38739 0.0
Cd379 Cd 0.14902 0.35379 0.39717 0.0
Cd380 Cd 0.12621 0.34858 0.29936 0.0
O381 O 0.12832 0.30306 0.31096 0.0
O382 O 0.16915 0.35697 0.46529 0.0
O383 O 0.18984 0.37367 0.39325 0.0
C384 C 0.19207 0.36827 0.44194 0.0
C385 C 0.14321 0.36934 0.22297 0.0
C386 C 0.13898 0.29086 0.35113 0.0
C387 C 0.08701 0.37907 0.37631 0.0
O388 O 0.08972 0.36901 0.33095 0.0
O389 O 0.10855 0.37688 0.40838 0.0
O390 O 0.11912 0.35328 0.22482 0.0
O391 O 0.15862 0.37318 0.26461 0.0
O392 O 0.44272 0.58403 0.37108 0.0
Cd393 Cd 0.39872 0.59077 0.34607 0.0
Cd394 Cd 0.3984 0.62023 0.43997 0.0
O395 O 0.44429 0.61668 0.43437 0.0
O396 O 0.40099 0.56716 0.28102 0.0
O397 O 0.3698 0.55546 0.34382 0.0
C398 C 0.38118 0.54898 0.29946 0.0
C399 C 0.37628 0.60792 0.51807 0.0
C400 C 0.45775 0.59882 0.40405 0.0
C401 C 0.37771 0.65608 0.35045 0.0
O402 O 0.37998 0.65458 0.39899 0.0
O403 O 0.38433 0.63353 0.32228 0.0
O404 O 0.39158 0.6323 0.51229 0.0
O405 O 0.37316 0.59009 0.47914 0.0
O406 O 0.14216 0.70447 0.08567 0.0
Cd407 Cd 0.14702 0.65903 0.07162 0.0
Cd408 Cd 0.13877 0.65929 0.17703 0.0
O409 O 0.15806 0.70106 0.16559 0.0
O410 O 0.168 0.65627 0.00439 0.0
O411 O 0.18838 0.64153 0.07837 0.0
C412 C 0.19103 0.64634 0.02948 0.0
C413 C 0.13746 0.64392 0.26417 0.0
C414 C 0.15141 0.71692 0.12666 0.0
C415 C 0.08872 0.63873 0.10515 0.0
O416 O 0.09631 0.65166 0.1468 0.0
O417 O 0.10772 0.63471 0.06929 0.0
O418 O 0.1504 0.62727 0.23012 0.0
O419 O 0.12752 0.66941 0.24871 0.0
O420 O 0.05443 0.38377 0.86007 0.0
Cd421 Cd 0.09997 0.39128 0.84575 0.0
Cd422 Cd 0.10045 0.38222 0.94536 0.0
O423 O 0.05667 0.39615 0.94203 0.0
O424 O 0.10172 0.41128 0.77748 0.0
O425 O 0.11403 0.43411 0.85055 0.0
C426 C 0.10966 0.43549 0.80139 0.0
C427 C 0.12673 0.39243 0.0209 0.0
C428 C 0.04133 0.39005 0.90227 0.0
C429 C 0.12363 0.33371 0.87599 0.0
O430 O 0.10881 0.33983 0.91642 0.0
O431 O 0.1285 0.3544 0.84339 0.0
O432 O 0.10474 0.37368 0.01966 0.0
O433 O 0.13391 0.40638 0.97912 0.0
O434 O 0.35229 0.30748 0.58994 0.0
Cd435 Cd 0.35215 0.35384 0.58046 0.0
Cd436 Cd 0.37447 0.3504 0.67769 0.0
O437 O 0.37236 0.30466 0.66708 0.0
O438 O 0.32832 0.35796 0.51617 0.0
O439 O 0.31261 0.37505 0.59171 0.0
C440 C 0.30746 0.37018 0.54348 0.0
C441 C 0.35847 0.37062 0.7554 0.0
C442 C 0.36222 0.29177 0.62708 0.0
C443 C 0.41409 0.3788 0.59837 0.0
O444 O 0.41087 0.37059 0.64473 0.0
O445 O 0.39285 0.37555 0.56598 0.0
O446 O 0.38277 0.35499 0.75202 0.0
O447 O 0.34249 0.37468 0.71448 0.0
C448 C 0.11927 0.0007 0.30299 0.0
C449 C 0.12148 0.02923 0.27823 0.0
C450 C 0.12228 0.00378 0.19455 0.0
C451 C 0.1222 0.97521 0.21949 0.0
N452 N 0.13364 0.94832 0.29799 0.0
N453 N 0.13798 0.05568 0.20194 0.0
C454 C 0.12509 0.97427 0.27391 0.0
C455 C 0.12732 0.03004 0.2245 0.0
N456 N 0.10956 0.99807 0.35268 0.0
N457 N 0.11544 0.00667 0.14354 0.0
H458 H 0.1439 0.07473 0.22322 0.0
H459 H 0.14454 0.05648 0.16341 0.0
H460 H 0.10889 0.9889 0.12003 0.0
H461 H 0.1128 0.02762 0.12596 0.0
H462 H 0.10532 0.97723 0.36972 0.0
H463 H 0.10226 0.01606 0.37502 0.0
H464 H 0.13805 0.94735 0.33739 0.0
H465 H 0.14008 0.92908 0.27769 0.0
C466 C 0.23693 0.87755 0.49672 0.0
C467 C 0.22505 0.84986 0.51494 0.0
C468 C 0.2648 0.82208 0.46996 0.0
C469 C 0.27811 0.84979 0.45506 0.0
N470 N 0.27936 0.90398 0.45847 0.0
N471 N 0.2303 0.79624 0.52702 0.0
C472 C 0.26483 0.87762 0.46947 0.0
C473 C 0.23974 0.82225 0.50383 0.0
N474 N 0.22109 0.90358 0.5042 0.0
N475 N 0.27538 0.79556 0.45006 0.0
H476 H 0.21197 0.79537 0.55209 0.0
H477 H 0.24217 0.77605 0.52515 0.0
H478 H 0.29353 0.79439 0.42464 0.0
H479 H 0.26452 0.77496 0.45486 0.0
H480 H 0.22674 0.92404 0.48724 0.0
H481 H 0.20094 0.90429 0.52485 0.0
H482 H 0.27261 0.92488 0.47251 0.0
H483 H 0.29955 0.90475 0.43796 0.0
C484 C 0.36618 0.01455 0.71716 0.0
C485 C 0.3925 0.03271 0.71832 0.0
C486 C 0.4169 0.99658 0.77607 0.0
C487 C 0.39205 0.9769 0.77024 0.0
N488 N 0.344 0.96527 0.73233 0.0
N489 N 0.44518 0.03806 0.74033 0.0
C490 C 0.36687 0.98536 0.74001 0.0
C491 C 0.41844 0.02306 0.74577 0.0
N492 N 0.34034 0.02559 0.69573 0.0
N493 N 0.43907 0.98999 0.81083 0.0
H494 H 0.44786 0.05694 0.71696 0.0
H495 H 0.46553 0.03004 0.75477 0.0
H496 H 0.43892 0.97054 0.83333 0.0
H497 H 0.45607 0.00507 0.82081 0.0
H498 H 0.31962 0.01472 0.69806 0.0
H499 H 0.33907 0.04694 0.67912 0.0
H500 H 0.3266 0.96867 0.70611 0.0
H501 H 0.3434 0.94422 0.75018 0.0
C502 C 0.24545 0.15122 0.96501 0.0
C503 C 0.22579 0.12639 0.9716 0.0
C504 C 0.26146 0.10336 0.03202 0.0
C505 C 0.27937 0.12983 0.02975 0.0
N506 N 0.28495 0.18159 0.00234 0.0
N507 N 0.21308 0.07994 0.01406 0.0
C508 C 0.27059 0.15441 0.99815 0.0
C509 C 0.23323 0.10269 0.00586 0.0
N510 N 0.23999 0.17198 0.92725 0.0
N511 N 0.27184 0.07863 0.05779 0.0
H512 H 0.19288 0.07823 0.99373 0.0
H513 H 0.21555 0.06379 0.04279 0.0
H514 H 0.29248 0.07836 0.07696 0.0
H515 H 0.26127 0.05771 0.05676 0.0
H516 H 0.25535 0.18866 0.91696 0.0
H517 H 0.22133 0.17098 0.90294 0.0
H518 H 0.27733 0.20118 0.98457 0.0
H519 H 0.30263 0.18558 0.02784 0.0
C520 C 0.91726 0.99524 0.71596 0.0
C521 C 0.89304 0.97453 0.71926 0.0
C522 C 0.86711 0.00792 0.78022 0.0
C523 C 0.8929 0.02681 0.78135 0.0
N524 N 0.94497 0.03514 0.75794 0.0
N525 N 0.84596 0.95928 0.7572 0.0
C526 C 0.91857 0.01976 0.75093 0.0
C527 C 0.86823 0.98032 0.75222 0.0
N528 N 0.93928 0.99135 0.67973 0.0
N529 N 0.84125 0.01688 0.80431 0.0
H530 H 0.84531 0.93961 0.73522 0.0
H531 H 0.82911 0.96046 0.785 0.0
H532 H 0.83954 0.03714 0.82445 0.0
H533 H 0.8208 0.00562 0.80072 0.0
H534 H 0.95557 0.00755 0.67168 0.0
H535 H 0.93985 0.97309 0.65452 0.0
H536 H 0.9653 0.02869 0.74127 0.0
H537 H 0.94752 0.05253 0.78451 0.0
C538 C 0.76734 0.11964 0.49261 0.0
C539 C 0.78126 0.14757 0.48064 0.0
C540 C 0.74128 0.17472 0.52615 0.0
C541 C 0.72603 0.14708 0.53445 0.0
N542 N 0.72224 0.09353 0.52145 0.0
N543 N 0.77881 0.20187 0.47719 0.0
C544 C 0.73845 0.11955 0.51664 0.0
C545 C 0.76752 0.17517 0.49509 0.0
N546 N 0.78219 0.09333 0.48254 0.0
N547 N 0.73109 0.2005 0.5492 0.0
H548 H 0.7978 0.20329 0.45371 0.0
H549 H 0.76781 0.22243 0.48151 0.0
H550 H 0.71182 0.20118 0.57212 0.0
H551 H 0.74315 0.22062 0.5495 0.0
H552 H 0.77479 0.07233 0.49505 0.0
H553 H 0.80321 0.09267 0.46464 0.0
H554 H 0.72843 0.07323 0.50441 0.0
H555 H 0.70137 0.0927 0.53987 0.0
C556 C 0.58944 0.99254 0.29036 0.0
C557 C 0.61461 0.97301 0.28645 0.0
C558 C 0.64164 0.01115 0.23569 0.0
C559 C 0.61532 0.02926 0.2355 0.0
N560 N 0.56193 0.03376 0.25217 0.0
N561 N 0.66376 0.96198 0.25203 0.0
C562 C 0.58866 0.01915 0.2603 0.0
C563 C 0.64048 0.98179 0.25801 0.0
N564 N 0.56594 0.98561 0.32229 0.0
N565 N 0.66789 0.02239 0.21608 0.0
H566 H 0.66427 0.94102 0.27019 0.0
H567 H 0.68174 0.96556 0.22706 0.0
H568 H 0.66939 0.04377 0.19964 0.0
H569 H 0.6886 0.01161 0.21953 0.0
H570 H 0.54888 0.00081 0.33136 0.0
H571 H 0.56453 0.96564 0.34317 0.0
H572 H 0.54122 0.0254 0.26438 0.0
H573 H 0.55975 0.05252 0.22836 0.0
C574 C 0.73822 0.89352 0.99023 0.0
C575 C 0.72082 0.86683 0.99557 0.0
C576 C 0.75807 0.84666 0.05582 0.0
C577 C 0.77736 0.87119 0.04477 0.0
N578 N 0.78739 0.91707 0.99854 0.0
N579 N 0.71808 0.81497 0.0241 0.0
C580 C 0.7679 0.89443 0.01109 0.0
C581 C 0.73164 0.84262 0.02617 0.0
N582 N 0.72605 0.91827 0.96693 0.0
N583 N 0.76511 0.82697 0.09439 0.0
H584 H 0.6999 0.81009 0.00015 0.0
H585 H 0.72704 0.79585 0.04155 0.0
H586 H 0.78433 0.82922 0.11706 0.0
H587 H 0.75036 0.81034 0.10729 0.0
H588 H 0.73659 0.93922 0.96615 0.0
H589 H 0.70416 0.91863 0.95242 0.0
H590 H 0.78312 0.93279 0.96972 0.0
H591 H 0.80869 0.91905 0.01518 0.0
C592 C 0.58183 0.49185 0.74353 0.0
C593 C 0.60893 0.47714 0.72919 0.0
C594 C 0.63836 0.51887 0.76572 0.0
C595 C 0.61128 0.53207 0.78384 0.0
N596 N 0.5577 0.52873 0.79827 0.0
N597 N 0.66311 0.47438 0.73121 0.0
C598 C 0.58315 0.51783 0.77514 0.0
C599 C 0.63731 0.49008 0.74135 0.0
N600 N 0.5548 0.4818 0.72491 0.0
N601 N 0.66488 0.53422 0.77072 0.0
H602 H 0.66307 0.45338 0.71318 0.0
H603 H 0.68433 0.48107 0.74379 0.0
H604 H 0.66636 0.55497 0.78943 0.0
H605 H 0.68494 0.52746 0.75351 0.0
H606 H 0.53468 0.49354 0.72938 0.0
H607 H 0.55278 0.46324 0.70054 0.0
H608 H 0.53722 0.5173 0.79836 0.0
H609 H 0.5576 0.54795 0.82136 0.0
C610 C 0.76043 0.33915 0.97892 0.0
C611 C 0.77736 0.36602 0.97392 0.0
C612 C 0.73683 0.39448 0.01597 0.0
C613 C 0.72142 0.36701 0.02547 0.0
N614 N 0.72238 0.31252 0.02707 0.0
N615 N 0.78378 0.41884 0.99137 0.0
C616 C 0.73419 0.33915 0.00977 0.0
C617 C 0.76617 0.39366 0.99348 0.0
N618 N 0.76937 0.31351 0.95398 0.0
N619 N 0.72307 0.42125 0.02693 0.0
H620 H 0.80482 0.419 0.97345 0.0
H621 H 0.77839 0.43897 0.00975 0.0
H622 H 0.70167 0.42251 0.04335 0.0
H623 H 0.73182 0.44211 0.01639 0.0
H624 H 0.75605 0.29424 0.95161 0.0
H625 H 0.78879 0.3123 0.9315 0.0
H626 H 0.73274 0.29175 0.02132 0.0
H627 H 0.70408 0.31126 0.05211 0.0
C628 C 0.86384 0.48843 0.24417 0.0
C629 C 0.88761 0.47943 0.27717 0.0
C630 C 0.91514 0.52557 0.25707 0.0
C631 C 0.89027 0.53612 0.22782 0.0
N632 N 0.83848 0.52994 0.2016 0.0
N633 N 0.93221 0.49272 0.32511 0.0
C634 C 0.86385 0.51819 0.2235 0.0
C635 C 0.91194 0.49918 0.28713 0.0
N636 N 0.84146 0.4685 0.2323 0.0
N637 N 0.9426 0.53938 0.25336 0.0
H638 H 0.93065 0.47359 0.34818 0.0
H639 H 0.9487 0.50788 0.33713 0.0
H640 H 0.94687 0.55739 0.22869 0.0
H641 H 0.9621 0.53066 0.26997 0.0
H642 H 0.82536 0.47251 0.20398 0.0
H643 H 0.8401 0.44713 0.24885 0.0
H644 H 0.81776 0.51895 0.20174 0.0
H645 H 0.83739 0.55188 0.18747 0.0
C646 C 0.73799 0.65932 0.47475 0.0
C647 C 0.72066 0.63256 0.47682 0.0
C648 C 0.76082 0.60754 0.52564 0.0
C649 C 0.7767 0.63528 0.52788 0.0
N650 N 0.77707 0.68918 0.51447 0.0
N651 N 0.71349 0.582 0.50778 0.0
C652 C 0.76448 0.66159 0.50486 0.0
C653 C 0.73148 0.60683 0.5033 0.0
N654 N 0.72913 0.68269 0.44396 0.0
N655 N 0.77418 0.58181 0.54327 0.0
H656 H 0.69246 0.58047 0.49007 0.0
H657 H 0.71858 0.56371 0.5313 0.0
H658 H 0.79562 0.58163 0.55965 0.0
H659 H 0.76509 0.5604 0.53818 0.0
H660 H 0.74266 0.70134 0.43639 0.0
H661 H 0.70938 0.68236 0.42224 0.0
H662 H 0.76718 0.70943 0.50337 0.0
H663 H 0.79571 0.69228 0.53829 0.0
C664 C 0.36744 0.4665 0.26289 0.0
C665 C 0.37481 0.46799 0.20978 0.0
C666 C 0.37223 0.52297 0.21559 0.0
C667 C 0.37322 0.52121 0.2701 0.0
N668 N 0.37502 0.48926 0.34605 0.0
N669 N 0.38802 0.49941 0.13657 0.0
C670 C 0.37118 0.49249 0.29417 0.0
C671 C 0.37776 0.49668 0.18593 0.0
N672 N 0.3567 0.44032 0.28347 0.0
N673 N 0.36605 0.54977 0.19211 0.0
H674 H 0.3943 0.48129 0.11363 0.0
H675 H 0.3933 0.52017 0.12014 0.0
H676 H 0.36064 0.56916 0.21291 0.0
H677 H 0.36275 0.5517 0.15251 0.0
H678 H 0.3487 0.43881 0.32113 0.0
H679 H 0.3524 0.42127 0.26107 0.0
H680 H 0.37691 0.46826 0.36369 0.0
H681 H 0.37924 0.50702 0.37109 0.0
C682 C 0.23671 0.61762 0.99916 0.0
C683 C 0.22085 0.64523 0.00414 0.0
C684 C 0.26062 0.67153 0.9568 0.0
C685 C 0.27783 0.64467 0.95618 0.0
N686 N 0.2842 0.59269 0.97999 0.0
N687 N 0.22017 0.6995 0.99656 0.0
C688 C 0.26639 0.61776 0.97812 0.0
C689 C 0.23339 0.67246 0.98513 0.0
N690 N 0.22304 0.59128 0.01314 0.0
N691 N 0.27011 0.6961 0.92948 0.0
H692 H 0.2005 0.70148 0.01819 0.0
H693 H 0.23019 0.72023 0.98891 0.0
H694 H 0.29018 0.69642 0.90865 0.0
H695 H 0.25688 0.71516 0.92359 0.0
H696 H 0.23211 0.57008 0.00589 0.0
H697 H 0.20141 0.59053 0.02876 0.0
H698 H 0.27858 0.57329 0.00031 0.0
H699 H 0.30563 0.59197 0.96355 0.0
C700 C 0.13631 0.48363 0.77682 0.0
C701 C 0.1106 0.46468 0.77364 0.0
C702 C 0.08695 0.50004 0.71364 0.0
C703 C 0.11073 0.52069 0.72215 0.0
N704 N 0.157 0.53382 0.76491 0.0
N705 N 0.05856 0.45832 0.74809 0.0
C706 C 0.13516 0.51298 0.7547 0.0
C707 C 0.08519 0.47367 0.74417 0.0
N708 N 0.16212 0.47322 0.79923 0.0
N709 N 0.06583 0.50569 0.67661 0.0
H710 H 0.05546 0.43986 0.77227 0.0
H711 H 0.03852 0.4659 0.7318 0.0
H712 H 0.0661 0.52496 0.65375 0.0
H713 H 0.04978 0.48991 0.66521 0.0
H714 H 0.18247 0.48487 0.79836 0.0
H715 H 0.16396 0.45163 0.81474 0.0
H716 H 0.17352 0.53085 0.79289 0.0
H717 H 0.15753 0.55493 0.7473 0.0
C718 C 0.2331 0.34345 0.49172 0.0
C719 C 0.22139 0.37007 0.46896 0.0
C720 C 0.26644 0.39794 0.49619 0.0
C721 C 0.27668 0.37186 0.52232 0.0
N722 N 0.26705 0.32175 0.55424 0.0
N723 N 0.22447 0.42368 0.45532 0.0
C724 C 0.25904 0.34531 0.52319 0.0
C725 C 0.2374 0.39768 0.47271 0.0
N726 N 0.22066 0.316 0.48059 0.0
N727 N 0.28473 0.42262 0.49301 0.0
H728 H 0.20324 0.42418 0.43816 0.0
H729 H 0.23366 0.44496 0.46137 0.0
H730 H 0.30556 0.42374 0.5115 0.0
H731 H 0.28009 0.44117 0.46984 0.0
H732 H 0.23031 0.29563 0.49168 0.0
H733 H 0.20257 0.31317 0.45548 0.0
H734 H 0.25321 0.30318 0.56068 0.0
H735 H 0.28622 0.32196 0.57743 0.0
C736 C 0.13029 0.20804 0.31598 0.0
C737 C 0.13114 0.19385 0.36514 0.0
C738 C 0.13622 0.24324 0.40553 0.0
C739 C 0.13864 0.25728 0.35644 0.0
N740 N 0.15019 0.24939 0.26617 0.0
N741 N 0.1489 0.19844 0.45293 0.0
C742 C 0.13961 0.23858 0.31192 0.0
C743 C 0.13887 0.21159 0.40866 0.0
N744 N 0.11913 0.19366 0.27361 0.0
N745 N 0.12912 0.25916 0.44888 0.0
H746 H 0.15352 0.17545 0.45534 0.0
H747 H 0.15635 0.21102 0.4844 0.0
H748 H 0.12245 0.28162 0.44861 0.0
H749 H 0.1255 0.24869 0.48429 0.0
H750 H 0.11604 0.2047 0.23857 0.0
H751 H 0.10979 0.17221 0.27426 0.0
H752 H 0.15302 0.23567 0.23392 0.0
H753 H 0.15996 0.27064 0.26253 0.0
C754 C 0.02206 0.9131 0.6253 0.0
C755 C 0.00223 0.89237 0.60139 0.0
C756 C 0.04487 0.86031 0.57683 0.0
C757 C 0.06433 0.87924 0.60574 0.0
N758 N 0.07214 0.9231 0.65882 0.0
N759 N 0.99364 0.84441 0.56002 0.0
C760 C 0.05311 0.90559 0.6302 0.0
C761 C 0.01335 0.86568 0.57803 0.0
N762 N 0.01125 0.94019 0.64217 0.0
N763 N 0.05635 0.83682 0.54893 0.0
H764 H 0.97032 0.84713 0.56048 0.0
H765 H 1.00006 0.82289 0.54856 0.0
H766 H 0.07893 0.83056 0.54954 0.0
H767 H 0.04387 0.82473 0.52201 0.0
H768 H 0.02482 0.95763 0.6555 0.0
H769 H 0.98859 0.94613 0.63929 0.0
H770 H 0.06495 0.94041 0.68288 0.0
H771 H 0.09534 0.91948 0.66014 0.0
C772 C 0.3982 0.79093 0.82227 0.0
C773 C 0.37339 0.81012 0.83285 0.0
C774 C 0.33957 0.76659 0.83801 0.0
C775 C 0.36452 0.74738 0.82861 0.0
N776 N 0.41627 0.74079 0.8022 0.0
N777 N 0.32015 0.81785 0.84218 0.0
C778 C 0.39336 0.75946 0.8172 0.0
C779 C 0.34388 0.7984 0.83792 0.0
N780 N 0.42672 0.80264 0.82049 0.0
N781 N 0.31194 0.75425 0.84773 0.0
H782 H 0.32294 0.8412 0.84194 0.0
H783 H 0.29768 0.81126 0.84237 0.0
H784 H 0.30776 0.73122 0.84422 0.0
H785 H 0.29337 0.76642 0.86046 0.0
H786 H 0.44619 0.78959 0.82017 0.0
H787 H 0.43127 0.82565 0.82244 0.0
H788 H 0.43663 0.74845 0.78731 0.0
H789 H 0.41441 0.7174 0.80121 0.0
C790 C 0.4526 0.10874 0.09181 0.0
C791 C 0.43905 0.11576 0.14004 0.0
C792 C 0.48895 0.11764 0.17942 0.0
C793 C 0.50238 0.10794 0.13248 0.0
N794 N 0.49384 0.08239 0.05133 0.0
N795 N 0.44474 0.11312 0.23262 0.0
C796 C 0.48323 0.09958 0.09097 0.0
C797 C 0.45734 0.1155 0.18486 0.0
N798 N 0.43754 0.11247 0.04643 0.0
N799 N 0.50537 0.13109 0.21749 0.0
H800 H 0.42177 0.10935 0.23803 0.0
H801 H 0.45768 0.11095 0.26593 0.0
H802 H 0.52789 0.13712 0.21374 0.0
H803 H 0.49534 0.14014 0.25036 0.0
H804 H 0.44809 0.10992 0.01082 0.0
H805 H 0.41596 0.12133 0.04354 0.0
H806 H 0.47988 0.07422 0.02221 0.0
H807 H 0.51537 0.07302 0.05137 0.0
C808 C 0.16909 0.76982 0.11179 0.0
C809 C 0.14764 0.74977 0.13299 0.0
C810 C 0.11632 0.79234 0.16066 0.0
C811 C 0.13568 0.81214 0.13337 0.0
N812 N 0.18058 0.82066 0.08329 0.0
N813 N 0.09986 0.74093 0.17464 0.0
C814 C 0.16227 0.80114 0.10934 0.0
C815 C 0.12121 0.76076 0.1574 0.0
N816 N 0.19609 0.75885 0.0948 0.0
N817 N 0.09291 0.80362 0.18896 0.0
H818 H 0.10263 0.71761 0.17382 0.0
H819 H 0.07841 0.7473 0.18655 0.0
H820 H 0.08735 0.82639 0.19017 0.0
H821 H 0.08025 0.79075 0.21452 0.0
H822 H 0.21392 0.77233 0.08281 0.0
H823 H 0.20155 0.73601 0.09643 0.0
H824 H 0.19822 0.8139 0.05959 0.0
H825 H 0.17742 0.84395 0.08395 0.0
C826 C 0.48888 0.869 0.398 0.0
C827 C 0.50027 0.89415 0.37032 0.0
C828 C 0.45014 0.90389 0.33433 0.0
C829 C 0.43872 0.8788 0.36224 0.0
N830 N 0.44575 0.84016 0.4267 0.0
N831 N 0.49193 0.93815 0.31839 0.0
C832 C 0.45758 0.86241 0.39636 0.0
C833 C 0.48091 0.91241 0.34029 0.0
N834 N 0.50834 0.85025 0.42339 0.0
N835 N 0.43154 0.91927 0.30164 0.0
H836 H 0.51445 0.94454 0.32152 0.0
H837 H 0.4787 0.95417 0.29994 0.0
H838 H 0.40843 0.91522 0.29955 0.0
H839 H 0.4389 0.93535 0.2754 0.0
H840 H 0.50227 0.8294 0.43843 0.0
H841 H 0.53135 0.85435 0.42651 0.0
H842 H 0.45729 0.83036 0.45726 0.0
H843 H 0.42365 0.83254 0.4239 0.0
C844 C 0.36994 0.20956 0.66604 0.0
C845 C 0.37262 0.19498 0.61739 0.0
C846 C 0.36923 0.24392 0.57487 0.0
C847 C 0.36343 0.25824 0.62288 0.0
N848 N 0.34724 0.25139 0.71114 0.0
N849 N 0.3618 0.19831 0.52625 0.0
C850 C 0.3602 0.24004 0.66759 0.0
C851 C 0.36784 0.21215 0.57204 0.0
N852 N 0.37833 0.19555 0.71057 0.0
N853 N 0.37837 0.25988 0.53271 0.0
H854 H 0.35851 0.17512 0.52326 0.0
H855 H 0.35626 0.21034 0.49308 0.0
H856 H 0.38371 0.28269 0.53361 0.0
H857 H 0.38476 0.2494 0.49845 0.0
H858 H 0.37907 0.20678 0.74581 0.0
H859 H 0.38775 0.17413 0.71202 0.0
H860 H 0.34255 0.23808 0.74321 0.0
H861 H 0.33768 0.27283 0.71269 0.0
C862 C 0.04634 0.08251 0.8868 0.0
C863 C 0.05895 0.10897 0.90849 0.0
C864 C 0.0102 0.12173 0.94719 0.0
C865 C 0.99675 0.09775 0.91921 0.0
N866 N 0.0012 0.05494 0.86276 0.0
N867 N 0.05282 0.15535 0.95606 0.0
C868 C 0.01465 0.07786 0.88936 0.0
C869 C 0.04105 0.1287 0.93877 0.0
N870 N 0.06491 0.06174 0.86438 0.0
N871 N 0.99339 0.13828 0.98107 0.0
H872 H 0.0753 0.16146 0.95133 0.0
H873 H 0.03991 0.17253 0.97208 0.0
H874 H 0.97027 0.13548 0.98593 0.0
H875 H 0.00269 0.15343 0.00722 0.0
H876 H 0.05777 0.04074 0.85142 0.0
H877 H 0.08823 0.06455 0.86274 0.0
H878 H 0.01221 0.04179 0.83544 0.0
H879 H 0.97838 0.04981 0.86646 0.0
C880 C 0.868 0.762 0.58562 0.0
C881 C 0.86328 0.74828 0.6345 0.0
C882 C 0.8717 0.79732 0.67547 0.0
C883 C 0.8733 0.81137 0.62624 0.0
N884 N 0.8596 0.8072 0.53633 0.0
N885 N 0.84881 0.75672 0.7233 0.0
C886 C 0.8669 0.79378 0.58192 0.0
C887 C 0.86127 0.76713 0.67867 0.0
N888 N 0.87582 0.74552 0.54325 0.0
N889 N 0.88174 0.81144 0.71892 0.0
H890 H 0.8385 0.73568 0.72604 0.0
H891 H 0.84516 0.77059 0.75511 0.0
H892 H 0.89197 0.8325 0.71914 0.0
H893 H 0.88308 0.80046 0.75433 0.0
H894 H 0.88134 0.75561 0.50823 0.0
H895 H 0.88104 0.7227 0.54434 0.0
H896 H 0.85297 0.79487 0.50406 0.0
H897 H 0.85635 0.83039 0.533 0.0
C898 C 0.96332 0.13935 0.42821 0.0
C899 C 0.94431 0.11979 0.39968 0.0
C900 C 0.98723 0.08636 0.38221 0.0
C901 C 0.00666 0.10789 0.40499 0.0
N902 N 0.01411 0.15688 0.44359 0.0
N903 N 0.93747 0.075 0.34853 0.0
C904 C 0.99494 0.13471 0.42711 0.0
C905 C 0.95607 0.09325 0.3766 0.0
N906 N 0.95132 0.16281 0.45552 0.0
N907 N 0.99855 0.05914 0.36698 0.0
H908 H 0.91422 0.07826 0.34669 0.0
H909 H 0.94506 0.05742 0.32543 0.0
H910 H 0.02128 0.05356 0.37062 0.0
H911 H 0.98528 0.04125 0.3545 0.0
H912 H 0.96356 0.17538 0.48211 0.0
H913 H 0.92857 0.16846 0.45496 0.0
H914 H 0.00707 0.17841 0.45392 0.0
H915 H 0.03749 0.15492 0.44274 0.0
C916 C 0.64071 0.24144 0.1954 0.0
C917 C 0.64074 0.25827 0.14872 0.0
C918 C 0.64402 0.21067 0.10191 0.0
C919 C 0.63491 0.19463 0.14638 0.0
N920 N 0.62231 0.19659 0.23738 0.0
N921 N 0.63558 0.25643 0.05528 0.0
C922 C 0.63297 0.21032 0.19404 0.0
C923 C 0.64099 0.24234 0.10112 0.0
N924 N 0.64885 0.25472 0.24073 0.0
N925 N 0.65474 0.19561 0.05991 0.0
H926 H 0.62871 0.27874 0.05209 0.0
H927 H 0.63365 0.24463 0.02072 0.0
H928 H 0.65823 0.17235 0.06018 0.0
H929 H 0.66338 0.20671 0.02773 0.0
H930 H 0.65123 0.24263 0.27489 0.0
H931 H 0.65703 0.27671 0.24273 0.0
H932 H 0.61757 0.20849 0.27104 0.0
H933 H 0.61597 0.17408 0.23904 0.0
C934 C 0.54548 0.90724 0.88752 0.0
C935 C 0.55652 0.87984 0.90817 0.0
C936 C 0.50519 0.86297 0.92641 0.0
C937 C 0.49401 0.89063 0.90649 0.0
N938 N 0.50326 0.94162 0.8792 0.0
N939 N 0.54824 0.83497 0.95815 0.0
C940 C 0.51414 0.9136 0.8905 0.0
C941 C 0.53676 0.85891 0.93154 0.0
N942 N 0.56485 0.92666 0.86366 0.0
N943 N 0.48587 0.83975 0.93685 0.0
H944 H 0.57132 0.83113 0.9618 0.0
H945 H 0.53511 0.82059 0.98048 0.0
H946 H 0.46259 0.84128 0.93256 0.0
H947 H 0.49302 0.81801 0.94558 0.0
H948 H 0.55783 0.94524 0.84236 0.0
H949 H 0.5881 0.92328 0.86297 0.0
H950 H 0.51692 0.96015 0.87164 0.0
H951 H 0.48046 0.947 0.88206 0.0
C952 C 0.85022 0.22637 0.85149 0.0
C953 C 0.85664 0.2456 0.89389 0.0
C954 C 0.86471 0.20036 0.94575 0.0
C955 C 0.86741 0.18259 0.90052 0.0
N956 N 0.86673 0.18196 0.80669 0.0
N957 N 0.87646 0.24878 0.98143 0.0
C958 C 0.86096 0.19626 0.85218 0.0
C959 C 0.86534 0.23216 0.94145 0.0
N960 N 0.83356 0.23651 0.8109 0.0
N961 N 0.86135 0.18709 0.9928 0.0
H962 H 0.88103 0.2717 0.97956 0.0
H963 H 0.88497 0.23878 0.01472 0.0
H964 H 0.85851 0.16389 0.99712 0.0
H965 H 0.85739 0.1995 0.02624 0.0
H966 H 0.82679 0.22245 0.78088 0.0
H967 H 0.82323 0.25762 0.81087 0.0
H968 H 0.86449 0.19275 0.77124 0.0
H969 H 0.87698 0.16099 0.80379 0.0
C970 C 0.54345 0.13847 0.5711 0.0
C971 C 0.56116 0.12065 0.60489 0.0
C972 C 0.51731 0.0887 0.62362 0.0
C973 C 0.49896 0.10901 0.59566 0.0
N974 N 0.49346 0.15477 0.54636 0.0
N975 N 0.56584 0.07868 0.66313 0.0
C976 C 0.51178 0.13403 0.56957 0.0
C977 C 0.54835 0.09554 0.63082 0.0
N978 N 0.55671 0.1601 0.54125 0.0
N979 N 0.50507 0.06264 0.64232 0.0
H980 H 0.58909 0.08164 0.66615 0.0
H981 H 0.55735 0.06253 0.68826 0.0
H982 H 0.48243 0.05707 0.63725 0.0
H983 H 0.51756 0.04548 0.65922 0.0
H984 H 0.54563 0.1712 0.51148 0.0
H985 H 0.57949 0.16551 0.54314 0.0
H986 H 0.50098 0.17545 0.53255 0.0
H987 H 0.47012 0.15258 0.5443 0.0
C988 C 0.62089 0.75791 0.4212 0.0
C989 C 0.63228 0.74319 0.37661 0.0
C990 C 0.63075 0.79135 0.33042 0.0
C991 C 0.6222 0.80634 0.37654 0.0
N992 N 0.62165 0.80422 0.46964 0.0
N993 N 0.65841 0.74923 0.2954 0.0
C994 C 0.62142 0.78975 0.42323 0.0
C995 C 0.64056 0.76094 0.33325 0.0
N996 N 0.60755 0.74216 0.4602 0.0
N997 N 0.62799 0.80502 0.28358 0.0
H998 H 0.66804 0.72786 0.29789 0.0
H999 H 0.66671 0.76221 0.26511 0.0
H1000 H 0.61902 0.82646 0.27854 0.0
H1001 H 0.63153 0.79356 0.24906 0.0
H1002 H 0.59704 0.75281 0.49116 0.0
H1003 H 0.60331 0.71913 0.45874 0.0
H1004 H 0.62314 0.79269 0.50453 0.0
H1005 H 0.62432 0.82749 0.47291 0.0
C1006 C 0.96053 0.91616 0.11128 0.0
C1007 C 0.94708 0.88947 0.09187 0.0
C1008 C 0.99636 0.87115 0.06312 0.0
C1009 C 0.00985 0.89798 0.08214 0.0
N1010 N 0.00455 0.94865 0.11386 0.0
N1011 N 0.95074 0.84476 0.03919 0.0
C1012 C 0.9918 0.92135 0.10296 0.0
C1013 C 0.9645 0.86822 0.06393 0.0
N1014 N 0.94347 0.93614 0.13874 0.0
N1015 N 0.014 0.84742 0.04818 0.0
H1016 H 0.92766 0.84074 0.04088 0.0
H1017 H 0.96185 0.83068 0.01335 0.0
H1018 H 0.03745 0.84807 0.04786 0.0
H1019 H 0.00557 0.82603 0.04029 0.0
H1020 H 0.95244 0.95411 0.15943 0.0
H1021 H 0.92019 0.93392 0.14268 0.0
H1022 H 0.99227 0.96757 0.12476 0.0
H1023 H 0.02733 0.95313 0.10762 0.0
C1024 C 0.66779 0.73976 0.89445 0.0
C1025 C 0.64746 0.75868 0.86764 0.0
C1026 C 0.62007 0.71444 0.83564 0.0
C1027 C 0.63769 0.69583 0.86829 0.0
N1028 N 0.6785 0.68994 0.92852 0.0
N1029 N 0.60201 0.76475 0.81756 0.0
C1030 C 0.6618 0.70827 0.89734 0.0
C1031 C 0.6233 0.74622 0.83877 0.0
N1032 N 0.69301 0.75193 0.91633 0.0
N1033 N 0.59971 0.7019 0.80245 0.0
H1034 H 0.60295 0.78818 0.81952 0.0
H1035 H 0.58188 0.75704 0.80181 0.0
H1036 H 0.59523 0.67892 0.80061 0.0
H1037 H 0.58898 0.71402 0.77347 0.0
H1038 H 0.71025 0.73923 0.93257 0.0
H1039 H 0.69786 0.77492 0.91474 0.0
H1040 H 0.69387 0.69781 0.95562 0.0
H1041 H 0.67616 0.66655 0.92853 0.0
C1042 C 0.50557 0.36447 0.05932 0.0
C1043 C 0.4914 0.3912 0.0773 0.0
C1044 C 0.54034 0.41109 0.10504 0.0
C1045 C 0.55436 0.38433 0.08723 0.0
N1046 N 0.55182 0.33933 0.03516 0.0
N1047 N 0.49563 0.44264 0.1058 0.0
C1048 C 0.53749 0.36249 0.05972 0.0
C1049 C 0.50896 0.41543 0.09652 0.0
N1050 N 0.4886 0.33995 0.04596 0.0
N1051 N 0.55698 0.43192 0.13135 0.0
H1052 H 0.47276 0.44649 0.09932 0.0
H1053 H 0.50751 0.46203 0.11554 0.0
H1054 H 0.58032 0.43024 0.13515 0.0
H1055 H 0.54765 0.45011 0.15099 0.0
H1056 H 0.4977 0.31874 0.03883 0.0
H1057 H 0.46515 0.33973 0.04654 0.0
H1058 H 0.54095 0.32469 0.00991 0.0
H1059 H 0.57507 0.33633 0.03589 0.0
C1060 C 0.89022 0.25933 0.31344 0.0
C1061 C 0.86434 0.24713 0.33806 0.0
C1062 C 0.84847 0.2978 0.36404 0.0
C1063 C 0.87413 0.30992 0.33896 0.0
N1064 N 0.9155 0.30366 0.28001 0.0
N1065 N 0.81538 0.2548 0.37573 0.0
C1066 C 0.89355 0.29112 0.31003 0.0
C1067 C 0.84236 0.26643 0.35999 0.0
N1068 N 0.91271 0.24068 0.2967 0.0
N1069 N 0.83042 0.3162 0.39284 0.0
H1070 H 0.81005 0.23201 0.37209 0.0
H1071 H 0.79732 0.26794 0.38787 0.0
H1072 H 0.83326 0.33952 0.39418 0.0
H1073 H 0.81362 0.30828 0.4173 0.0
H1074 H 0.93358 0.24838 0.28405 0.0
H1075 H 0.91171 0.21728 0.29942 0.0
H1076 H 0.92837 0.29138 0.25388 0.0
H1077 H 0.91906 0.32685 0.27778 0.0
C1078 C 0.95242 0.58735 0.63298 0.0
C1079 C 0.941 0.61158 0.60314 0.0
C1080 C 0.99185 0.62376 0.57345 0.0
C1081 C 0.00345 0.59991 0.60413 0.0
N1082 N 0.99484 0.55499 0.65373 0.0
N1083 N 0.94833 0.64709 0.53394 0.0
C1084 C 0.98368 0.58035 0.6309 0.0
C1085 C 0.96019 0.62761 0.56925 0.0
N1086 N 0.93335 0.57169 0.66446 0.0
N1087 N 0.011 0.64431 0.5517 0.0
H1088 H 0.92536 0.65119 0.53038 0.0
H1089 H 0.96099 0.65694 0.50469 0.0
H1090 H 0.03436 0.64313 0.55477 0.0
H1091 H 0.00377 0.66419 0.53442 0.0
H1092 H 0.94051 0.55636 0.69216 0.0
H1093 H 0.91006 0.5749 0.66384 0.0
H1094 H 0.98146 0.53828 0.67004 0.0
H1095 H 0.01765 0.54946 0.65273 0.0
C1096 C 0.66313 0.26861 0.64645 0.0
C1097 C 0.6393 0.24977 0.6633 0.0
C1098 C 0.60738 0.29407 0.67774 0.0
C1099 C 0.62969 0.3124 0.65425 0.0
N1100 N 0.67842 0.31768 0.6145 0.0
N1101 N 0.58739 0.24378 0.68922 0.0
C1102 C 0.65757 0.29983 0.63833 0.0
C1103 C 0.6112 0.2623 0.67824 0.0
N1104 N 0.69121 0.25667 0.63947 0.0
N1105 N 0.58218 0.30689 0.69863 0.0
H1106 H 0.58886 0.22036 0.68939 0.0
H1107 H 0.56541 0.25142 0.69392 0.0
H1108 H 0.57743 0.32983 0.69654 0.0
H1109 H 0.56701 0.29515 0.72168 0.0
H1110 H 0.71027 0.26951 0.6316 0.0
H1111 H 0.69598 0.23399 0.64606 0.0
H1112 H 0.69757 0.30937 0.59626 0.0
H1113 H 0.67583 0.34095 0.61086 0.0
C1114 C 0.99622 0.36367 0.93873 0.0
C1115 C 0.0083 0.38669 0.90674 0.0
C1116 C 0.95785 0.39839 0.8744 0.0
C1117 C 0.94586 0.37539 0.90637 0.0
N1118 N 0.95196 0.34118 0.97759 0.0
N1119 N 0.00059 0.43022 0.85314 0.0
C1120 C 0.96451 0.35993 0.94179 0.0
C1121 C 0.98905 0.40542 0.87732 0.0
N1122 N 0.01505 0.34392 0.96319 0.0
N1123 N 0.93942 0.41291 0.84035 0.0
H1124 H 0.02332 0.43604 0.85512 0.0
H1125 H 0.98744 0.44638 0.83481 0.0
H1126 H 0.91613 0.40971 0.83977 0.0
H1127 H 0.9472 0.42714 0.81143 0.0
H1128 H 0.00761 0.32459 0.98196 0.0
H1129 H 0.03846 0.34519 0.96118 0.0
H1130 H 0.96404 0.33177 0.00793 0.0
H1131 H 0.92889 0.33712 0.97989 0.0
C1132 C 0.89044 0.75151 0.17704 0.0
C1133 C 0.86377 0.76509 0.15774 0.0
C1134 C 0.84397 0.71546 0.13372 0.0
C1135 C 0.87035 0.70194 0.15394 0.0
N1136 N 0.9156 0.70599 0.20498 0.0
N1137 N 0.81251 0.76003 0.12882 0.0
C1138 C 0.89238 0.71962 0.17946 0.0
C1139 C 0.83968 0.74703 0.13945 0.0
N1140 N 0.91485 0.76893 0.1893 0.0
N1141 N 0.82343 0.69817 0.10796 0.0
H1142 H 0.80862 0.78299 0.13379 0.0
H1143 H 0.79318 0.74786 0.11976 0.0
H1144 H 0.82507 0.67475 0.10579 0.0
H1145 H 0.80564 0.70706 0.08676 0.0
H1146 H 0.93604 0.76013 0.19748 0.0
H1147 H 0.91493 0.79235 0.18685 0.0
H1148 H 0.93036 0.71755 0.22907 0.0
H1149 H 0.91871 0.68274 0.20585 0.0
C1150 C 0.54038 0.59142 0.36388 0.0
C1151 C 0.55461 0.6052 0.40659 0.0
C1152 C 0.50676 0.60123 0.453 0.0
C1153 C 0.49135 0.59676 0.40555 0.0
N1154 N 0.49577 0.59288 0.31209 0.0
N1155 N 0.54977 0.62422 0.49395 0.0
C1156 C 0.50866 0.59266 0.35987 0.0
C1157 C 0.5376 0.60998 0.45229 0.0
N1158 N 0.55726 0.57817 0.32624 0.0
N1159 N 0.49224 0.59659 0.49866 0.0
H1160 H 0.57214 0.6309 0.49635 0.0
H1161 H 0.53681 0.63117 0.52524 0.0
H1162 H 0.47034 0.58815 0.50061 0.0
H1163 H 0.50323 0.59742 0.53409 0.0
H1164 H 0.54769 0.56615 0.29585 0.0
H1165 H 0.58065 0.57634 0.3291 0.0
H1166 H 0.50852 0.59231 0.27839 0.0
H1167 H 0.47325 0.59771 0.30512 0.0
C1168 C 0.38625 0.286 0.16483 0.0
C1169 C 0.36695 0.30395 0.13385 0.0
C1170 C 0.33366 0.26041 0.11971 0.0
C1171 C 0.35454 0.24201 0.14632 0.0
N1172 N 0.40217 0.23586 0.18973 0.0
N1173 N 0.32267 0.30895 0.08083 0.0
C1174 C 0.38104 0.25448 0.1683 0.0
C1175 C 0.34066 0.29134 0.11114 0.0
N1176 N 0.40992 0.29894 0.19032 0.0
N1177 N 0.30691 0.24835 0.10371 0.0
H1178 H 0.32578 0.33214 0.07697 0.0
H1179 H 0.30533 0.30063 0.05796 0.0
H1180 H 0.30138 0.22572 0.10911 0.0
H1181 H 0.28932 0.26091 0.08831 0.0
H1182 H 0.42229 0.28797 0.21871 0.0
H1183 H 0.41625 0.32136 0.18585 0.0
H1184 H 0.42364 0.24284 0.20046 0.0
H1185 H 0.39929 0.21265 0.19344 0.0
C1186 C 0.45857 0.5968 0.88435 0.0
C1187 C 0.44569 0.6247 0.89939 0.0
C1188 C 0.49531 0.64351 0.92543 0.0
C1189 C 0.50814 0.61545 0.91112 0.0
N1190 N 0.50187 0.5634 0.88764 0.0
N1191 N 0.45031 0.67254 0.94309 0.0
C1192 C 0.48969 0.59144 0.8938 0.0
C1193 C 0.46357 0.64725 0.92329 0.0
N1194 N 0.44114 0.57575 0.86009 0.0
N1195 N 0.51361 0.66727 0.93771 0.0
H1196 H 0.42739 0.67715 0.93982 0.0
H1197 H 0.46159 0.68798 0.96629 0.0
H1198 H 0.537 0.66566 0.93973 0.0
H1199 H 0.50594 0.68928 0.94203 0.0
H1200 H 0.44976 0.55651 0.84256 0.0
H1201 H 0.41795 0.57828 0.85535 0.0
H1202 H 0.48927 0.54422 0.8794 0.0
H1203 H 0.52446 0.5588 0.89533 0.0
C1204 C 0.10803 0.70767 0.68372 0.0
C1205 C 0.12695 0.68804 0.65538 0.0
C1206 C 0.16145 0.72987 0.63712 0.0
C1207 C 0.14034 0.75013 0.65898 0.0
N1208 N 0.09162 0.759 0.69773 0.0
N1209 N 0.17108 0.67982 0.60327 0.0
C1210 C 0.1133 0.73922 0.68162 0.0
C1211 C 0.15362 0.69894 0.63176 0.0
N1212 N 0.08474 0.69619 0.71202 0.0
N1213 N 0.18922 0.74014 0.62271 0.0
H1214 H 0.16694 0.65672 0.60097 0.0
H1215 H 0.18873 0.68698 0.57989 0.0
H1216 H 0.19573 0.76258 0.62713 0.0
H1217 H 0.20669 0.72616 0.61081 0.0
H1218 H 0.07218 0.70895 0.73792 0.0
H1219 H 0.07955 0.67329 0.71302 0.0
H1220 H 0.07006 0.75244 0.70876 0.0
H1221 H 0.09406 0.78233 0.696 0.0
C1222 C 0.04511 0.41548 0.36118 0.0
C1223 C 0.05734 0.39169 0.39109 0.0
C1224 C 0.00698 0.37802 0.42131 0.0
C1225 C 0.99455 0.40143 0.3906 0.0
N1226 N 0.00162 0.44625 0.33997 0.0
N1227 N 0.05129 0.35622 0.46074 0.0
C1228 C 0.01364 0.42145 0.36333 0.0
C1229 C 0.03875 0.37519 0.42531 0.0
N1230 N 0.06364 0.4317 0.32959 0.0
N1231 N 0.98856 0.35689 0.44324 0.0
H1232 H 0.07439 0.35287 0.46424 0.0
H1233 H 0.03901 0.34609 0.49018 0.0
H1234 H 0.96518 0.35723 0.44004 0.0
H1235 H 0.99646 0.33731 0.46063 0.0
H1236 H 0.056 0.44674 0.30181 0.0
H1237 H 0.08703 0.42931 0.33026 0.0
H1238 H 0.01438 0.46332 0.32334 0.0
H1239 H 0.97863 0.45087 0.34061 0.0
C1240 C 0.34069 0.6983 0.34283 0.0
C1241 C 0.36864 0.68542 0.3279 0.0
C1242 C 0.3865 0.73473 0.29829 0.0
C1243 C 0.35898 0.74779 0.31501 0.0
N1244 N 0.30748 0.74186 0.34181 0.0
N1245 N 0.41495 0.68942 0.27965 0.0
C1246 C 0.33525 0.72944 0.33362 0.0
C1247 C 0.39034 0.70296 0.30121 0.0
N1248 N 0.31975 0.68075 0.36711 0.0
N1249 N 0.40981 0.75287 0.28322 0.0
H1250 H 0.41928 0.66645 0.28248 0.0
H1251 H 0.42978 0.70045 0.255 0.0
H1252 H 0.40807 0.77622 0.2804 0.0
H1253 H 0.43164 0.74515 0.27705 0.0
H1254 H 0.30053 0.68917 0.38495 0.0
H1255 H 0.32217 0.65746 0.37077 0.0
H1256 H 0.28839 0.72947 0.35134 0.0
H1257 H 0.30293 0.76457 0.33497 0.0
C1258 C 0.00519 0.65049 0.08287 0.0
C1259 C 0.99393 0.62176 0.0974 0.0
C1260 C 0.04547 0.60254 0.10635 0.0
C1261 C 0.05654 0.63197 0.09679 0.0
N1262 N 0.04796 0.68444 0.07815 0.0
N1263 N 0.0023 0.57072 0.12535 0.0
C1264 C 0.03667 0.65603 0.08515 0.0
C1265 C 0.0138 0.59778 0.10959 0.0
N1266 N 0.98572 0.67254 0.0671 0.0
N1267 N 0.06534 0.57925 0.11201 0.0
H1268 H 0.97926 0.56614 0.12602 0.0
H1269 H 0.01528 0.55329 0.14025 0.0
H1270 H 0.08863 0.58225 0.11058 0.0
H1271 H 0.059 0.55674 0.11444 0.0
H1272 H 0.99254 0.69263 0.05012 0.0
H1273 H 0.96237 0.67026 0.06819 0.0
H1274 H 0.03476 0.70376 0.07639 0.0
H1275 H 0.07097 0.68908 0.07654 0.0
C1276 C 0.14298 0.25682 0.81652 0.0
C1277 C 0.14154 0.2387 0.8616 0.0
C1278 C 0.14117 0.28486 0.91271 0.0
C1279 C 0.13435 0.30215 0.86833 0.0
N1280 N 0.124 0.30184 0.77628 0.0
N1281 N 0.13103 0.23758 0.95366 0.0
C1282 C 0.13417 0.28757 0.81946 0.0
C1283 C 0.13863 0.25319 0.91024 0.0
N1284 N 0.1534 0.24516 0.77125 0.0
N1285 N 0.15003 0.29853 0.9573 0.0
H1286 H 0.12459 0.21504 0.95358 0.0
H1287 H 0.12686 0.24828 0.98871 0.0
H1288 H 0.1541 0.32164 0.95956 0.0
H1289 H 0.15696 0.28636 0.98953 0.0
H1290 H 0.15679 0.25837 0.73858 0.0
H1291 H 0.16233 0.22351 0.76835 0.0
H1292 H 0.12111 0.29061 0.74135 0.0
H1293 H 0.11537 0.32359 0.776 0.0
C1294 C 0.46296 0.36882 0.55464 0.0
C1295 C 0.44437 0.38908 0.58237 0.0
C1296 C 0.48849 0.42019 0.60261 0.0
C1297 C 0.50738 0.39703 0.58329 0.0
N1298 N 0.5127 0.34734 0.54599 0.0
N1299 N 0.43858 0.43445 0.63206 0.0
C1300 C 0.49471 0.37107 0.55967 0.0
C1301 C 0.4569 0.41512 0.60569 0.0
N1302 N 0.45035 0.34685 0.52472 0.0
N1303 N 0.50078 0.4471 0.61721 0.0
H1304 H 0.41517 0.43231 0.63203 0.0
H1305 H 0.44653 0.45177 0.65543 0.0
H1306 H 0.5238 0.45155 0.61452 0.0
H1307 H 0.48807 0.46584 0.6276 0.0
H1308 H 0.46277 0.33348 0.49951 0.0
H1309 H 0.4272 0.34385 0.52103 0.0
H1310 H 0.50432 0.32648 0.53454 0.0
H1311 H 0.53599 0.34723 0.55059 0.0
C1312 C 0.12688 0.08064 0.61071 0.0
C1313 C 0.13937 0.10091 0.57462 0.0
C1314 C 0.16537 0.12808 0.64352 0.0
C1315 C 0.14774 0.11197 0.67956 0.0
N1316 N 0.11593 0.07 0.70074 0.0
N1317 N 0.1746 0.13989 0.55329 0.0
C1318 C 0.13033 0.08678 0.66413 0.0
C1319 C 0.16055 0.12298 0.59007 0.0
N1320 N 0.11104 0.05628 0.59337 0.0
N1321 N 0.18578 0.14876 0.66083 0.0
H1322 H 0.17225 0.13519 0.51411 0.0
H1323 H 0.18842 0.15826 0.56094 0.0
H1324 H 0.18944 0.15246 0.70001 0.0
H1325 H 0.20028 0.16087 0.63721 0.0
H1326 H 0.10207 0.03966 0.61701 0.0
H1327 H 0.10865 0.05171 0.55415 0.0
H1328 H 0.10065 0.05288 0.69277 0.0
H1329 H 0.1193 0.07356 0.74005 0.0
C1330 C 0.13989 0.91339 0.82738 0.0
C1331 C 0.15926 0.88887 0.81642 0.0
C1332 C 0.17023 0.8824 0.90782 0.0
C1333 C 0.14721 0.90351 0.91894 0.0
N1334 N 0.11688 0.9454 0.89273 0.0
N1335 N 0.19953 0.85628 0.84217 0.0
C1336 C 0.13462 0.92149 0.87959 0.0
C1337 C 0.17705 0.87576 0.85553 0.0
N1338 N 0.12525 0.9274 0.7878 0.0
N1339 N 0.18394 0.86753 0.94745 0.0
H1340 H 0.20452 0.85151 0.80374 0.0
H1341 H 0.21443 0.84659 0.86821 0.0
H1342 H 0.17983 0.87309 0.98588 0.0
H1343 H 0.19895 0.84978 0.94276 0.0
H1344 H 0.10858 0.9436 0.79258 0.0
H1345 H 0.12986 0.92232 0.74934 0.0
H1346 H 0.10772 0.96049 0.86643 0.0
H1347 H 0.1131 0.95131 0.93111 0.0
C1348 C 0.32964 0.88034 0.06477 0.0
C1349 C 0.35264 0.90137 0.0532 0.0
C1350 C 0.36036 0.91152 0.14458 0.0
C1351 C 0.34148 0.88666 0.15584 0.0
N1352 N 0.30143 0.85357 0.13107 0.0
N1353 N 0.38305 0.94338 0.07871 0.0
C1354 C 0.32343 0.87346 0.11718 0.0
C1355 C 0.36534 0.91952 0.09225 0.0
N1356 N 0.31533 0.86588 0.02531 0.0
N1357 N 0.37483 0.92587 0.18399 0.0
H1358 H 0.38658 0.94922 0.04026 0.0
H1359 H 0.39255 0.95841 0.10477 0.0
H1360 H 0.37038 0.92075 0.22247 0.0
H1361 H 0.39101 0.94255 0.17911 0.0
H1362 H 0.29989 0.84849 0.03009 0.0
H1363 H 0.31915 0.87165 0.98689 0.0
H1364 H 0.28661 0.84338 0.10543 0.0
H1365 H 0.29689 0.84874 0.16964 0.0
C1366 C 0.33733 0.11751 0.42124 0.0
C1367 C 0.36158 0.09734 0.42937 0.0
C1368 C 0.36527 0.08753 0.33705 0.0
C1369 C 0.34467 0.11141 0.32861 0.0
N1370 N 0.30457 0.14264 0.3594 0.0
N1371 N 0.39219 0.05656 0.39938 0.0
C1372 C 0.32821 0.12397 0.36993 0.0
C1373 C 0.37312 0.07983 0.38846 0.0
N1374 N 0.32459 0.13174 0.4625 0.0
N1375 N 0.37866 0.07388 0.29583 0.0
H1376 H 0.39774 0.05088 0.43722 0.0
H1377 H 0.40072 0.04171 0.37206 0.0
H1378 H 0.37227 0.07851 0.258 0.0
H1379 H 0.39612 0.05838 0.29859 0.0
H1380 H 0.30877 0.14891 0.45973 0.0
H1381 H 0.33026 0.12623 0.50032 0.0
H1382 H 0.2905 0.15195 0.38717 0.0
H1383 H 0.29782 0.14713 0.32166 0.0
C1384 C 0.84149 0.88758 0.35763 0.0
C1385 C 0.86118 0.90037 0.32083 0.0
C1386 C 0.88775 0.92779 0.38877 0.0
C1387 C 0.87262 0.90981 0.42547 0.0
N1388 N 0.83245 0.87605 0.44792 0.0
N1389 N 0.89962 0.93608 0.29841 0.0
C1390 C 0.84804 0.89135 0.41087 0.0
C1391 C 0.88283 0.92218 0.33554 0.0
N1392 N 0.81733 0.87113 0.34125 0.0
N1393 N 0.90729 0.94948 0.40537 0.0
H1394 H 0.89528 0.9331 0.25922 0.0
H1395 H 0.91787 0.95009 0.3059 0.0
H1396 H 0.91077 0.95369 0.44447 0.0
H1397 H 0.91825 0.96461 0.38123 0.0
H1398 H 0.80096 0.86233 0.36561 0.0
H1399 H 0.81248 0.86825 0.30226 0.0
H1400 H 0.81631 0.85967 0.44031 0.0
H1401 H 0.83623 0.8796 0.48712 0.0
C1402 C 0.87551 0.07119 0.13061 0.0
C1403 C 0.8624 0.08729 0.08936 0.0
C1404 C 0.83219 0.11708 0.14927 0.0
C1405 C 0.84902 0.1045 0.19016 0.0
N1406 N 0.8791 0.06413 0.22344 0.0
N1407 N 0.82215 0.11802 0.0571 0.0
C1408 C 0.86783 0.07926 0.18193 0.0
C1409 C 0.8382 0.1074 0.09809 0.0
N1410 N 0.89655 0.04959 0.12016 0.0
N1411 N 0.8121 0.13958 0.15958 0.0
H1412 H 0.82653 0.11098 0.01951 0.0
H1413 H 0.80338 0.1319 0.06026 0.0
H1414 H 0.80688 0.14598 0.19723 0.0
H1415 H 0.80094 0.15205 0.13159 0.0
H1416 H 0.90923 0.03851 0.14796 0.0
H1417 H 0.90136 0.04289 0.08249 0.0
H1418 H 0.89223 0.0448 0.22096 0.0
H1419 H 0.87338 0.07007 0.2611 0.0
C1420 C 0.65926 0.12695 0.87309 0.0
C1421 C 0.64015 0.11587 0.83378 0.0
C1422 C 0.60904 0.08962 0.8972 0.0
C1423 C 0.62598 0.10357 0.93671 0.0
N1424 N 0.67156 0.12782 0.96441 0.0
N1425 N 0.60316 0.08007 0.80549 0.0
C1426 C 0.65286 0.11939 0.92521 0.0
C1427 C 0.61724 0.09469 0.84504 0.0
N1428 N 0.68215 0.14617 0.86062 0.0
N1429 N 0.58427 0.07292 0.90989 0.0
H1430 H 0.60921 0.08354 0.7671 0.0
H1431 H 0.58742 0.06297 0.81049 0.0
H1432 H 0.57884 0.06787 0.94803 0.0
H1433 H 0.56883 0.06469 0.88327 0.0
H1434 H 0.69502 0.15785 0.88748 0.0
H1435 H 0.68779 0.15108 0.82254 0.0
H1436 H 0.69249 0.13785 0.95899 0.0
H1437 H 0.66703 0.12248 0.00275 0.0
C1438 C 0.59304 0.86138 0.60509 0.0
C1439 C 0.6077 0.88421 0.57614 0.0
C1440 C 0.64078 0.89279 0.65061 0.0
C1441 C 0.62215 0.8738 0.68128 0.0
N1442 N 0.57227 0.85167 0.68843 0.0
N1443 N 0.64108 0.92755 0.57895 0.0
C1444 C 0.5956 0.86183 0.65891 0.0
C1445 C 0.63033 0.90179 0.60095 0.0
N1446 N 0.57813 0.83809 0.58203 0.0
N1447 N 0.66869 0.90131 0.66701 0.0
H1448 H 0.63241 0.93653 0.54506 0.0
H1449 H 0.65592 0.94194 0.59799 0.0
H1450 H 0.67825 0.89385 0.70125 0.0
H1451 H 0.68366 0.91307 0.6435 0.0
H1452 H 0.56854 0.8206 0.6033 0.0
H1453 H 0.57938 0.83369 0.54269 0.0
H1454 H 0.55216 0.84407 0.6722 0.0
H1455 H 0.57134 0.85496 0.72817 0.0
C1456 C 0.6247 0.58659 0.12364 0.0
C1457 C 0.63834 0.60606 0.08735 0.0
C1458 C 0.66361 0.63393 0.1561 0.0
C1459 C 0.64681 0.61709 0.19234 0.0
N1460 N 0.619 0.57247 0.21371 0.0
N1461 N 0.67716 0.64154 0.0662 0.0
C1462 C 0.63015 0.59144 0.17696 0.0
C1463 C 0.66029 0.62732 0.10285 0.0
N1464 N 0.60514 0.56493 0.10698 0.0
N1465 N 0.68112 0.6573 0.17274 0.0
H1466 H 0.67484 0.63665 0.02707 0.0
H1467 H 0.69479 0.65622 0.07433 0.0
H1468 H 0.68461 0.66162 0.21179 0.0
H1469 H 0.69163 0.67266 0.14844 0.0
H1470 H 0.59184 0.55187 0.13123 0.0
H1471 H 0.60181 0.56045 0.06795 0.0
H1472 H 0.60792 0.55236 0.2057 0.0
H1473 H 0.62302 0.57592 0.25288 0.0
C1474 C 0.62734 0.4188 0.38854 0.0
C1475 C 0.64092 0.39885 0.42415 0.0
C1476 C 0.66279 0.36932 0.35405 0.0
C1477 C 0.64592 0.38681 0.31881 0.0
N1478 N 0.62012 0.43279 0.29874 0.0
N1479 N 0.67853 0.36171 0.44289 0.0
C1480 C 0.63111 0.4134 0.33495 0.0
C1481 C 0.66133 0.37646 0.40734 0.0
N1482 N 0.60924 0.44144 0.40618 0.0
N1483 N 0.6785 0.34489 0.33664 0.0
H1484 H 0.67754 0.36703 0.48203 0.0
H1485 H 0.69524 0.34621 0.43364 0.0
H1486 H 0.68068 0.34005 0.29749 0.0
H1487 H 0.68875 0.32913 0.36051 0.0
H1488 H 0.59589 0.45489 0.38265 0.0
H1489 H 0.60711 0.44634 0.4453 0.0
H1490 H 0.61057 0.4536 0.30726 0.0
H1491 H 0.62286 0.42889 0.25937 0.0
C1492 C 0.89818 0.34408 0.64873 0.0
C1493 C 0.87399 0.35564 0.6786 0.0
C1494 C 0.86007 0.3866 0.60379 0.0
C1495 C 0.88087 0.37032 0.57248 0.0
N1496 N 0.90818 0.32299 0.56584 0.0
N1497 N 0.82595 0.38202 0.67581 0.0
C1498 C 0.89617 0.34558 0.59496 0.0
C1499 C 0.85299 0.37519 0.65376 0.0
N1500 N 0.92403 0.33342 0.67052 0.0
N1501 N 0.84791 0.41323 0.58789 0.0
H1502 H 0.81815 0.37197 0.70941 0.0
H1503 H 0.80955 0.39456 0.65668 0.0
H1504 H 0.85371 0.42386 0.55368 0.0
H1505 H 0.8346 0.42651 0.61199 0.0
H1506 H 0.94206 0.32585 0.64819 0.0
H1507 H 0.92947 0.33681 0.70911 0.0
H1508 H 0.9186 0.30431 0.58253 0.0
H1509 H 0.90378 0.32074 0.52658 0.0
C1510 C 0.84041 0.63775 0.91475 0.0
C1511 C 0.86022 0.61448 0.93053 0.0
C1512 C 0.86836 0.59944 0.84114 0.0
C1513 C 0.85209 0.6253 0.82539 0.0
N1514 N 0.81579 0.66383 0.84378 0.0
N1515 N 0.88575 0.56808 0.91207 0.0
C1516 C 0.83547 0.64252 0.86128 0.0
C1517 C 0.87143 0.59332 0.89464 0.0
N1518 N 0.82778 0.65605 0.95116 0.0
N1519 N 0.8822 0.58199 0.80481 0.0
H1520 H 0.88813 0.5635 0.95125 0.0
H1521 H 0.89326 0.55072 0.88845 0.0
H1522 H 0.87909 0.58549 0.76542 0.0
H1523 H 0.89702 0.56452 0.81313 0.0
H1524 H 0.81536 0.67531 0.94296 0.0
H1525 H 0.83015 0.65189 0.99052 0.0
H1526 H 0.80172 0.67649 0.86735 0.0
H1527 H 0.81207 0.66733 0.80455 0.0
C1528 C 0.36641 0.40964 0.82261 0.0
C1529 C 0.35037 0.38392 0.80552 0.0
C1530 C 0.33726 0.37084 0.89399 0.0
C1531 C 0.35719 0.39365 0.91114 0.0
N1532 N 0.38326 0.44007 0.89518 0.0
N1533 N 0.31358 0.34547 0.82128 0.0
C1534 C 0.36891 0.41517 0.87638 0.0
C1535 C 0.33306 0.36656 0.84021 0.0
N1536 N 0.38058 0.42748 0.78724 0.0
N1537 N 0.32389 0.35244 0.92943 0.0
H1538 H 0.31043 0.34237 0.7818 0.0
H1539 H 0.2992 0.33255 0.84387 0.0
H1540 H 0.32586 0.35627 0.96896 0.0
H1541 H 0.31115 0.33353 0.9203 0.0
H1542 H 0.39512 0.44503 0.7965 0.0
H1543 H 0.37787 0.42429 0.74768 0.0
H1544 H 0.39134 0.45757 0.87245 0.0
H1545 H 0.38515 0.44419 0.93459 0.0
C1546 C 0.33358 0.62279 0.63976 0.0
C1547 C 0.35446 0.60996 0.67449 0.0
C1548 C 0.3793 0.58328 0.60379 0.0
C1549 C 0.36294 0.60142 0.56887 0.0
N1550 N 0.32147 0.63438 0.55052 0.0
N1551 N 0.39352 0.57425 0.69301 0.0
C1552 C 0.33856 0.6194 0.58598 0.0
C1553 C 0.37575 0.58838 0.65751 0.0
N1554 N 0.30984 0.63898 0.65856 0.0
N1555 N 0.39885 0.56215 0.58519 0.0
H1556 H 0.39013 0.57692 0.73254 0.0
H1557 H 0.41154 0.56028 0.68392 0.0
H1558 H 0.4016 0.55835 0.54583 0.0
H1559 H 0.41076 0.54709 0.60807 0.0
H1560 H 0.2928 0.64801 0.63589 0.0
H1561 H 0.30609 0.64153 0.69797 0.0
H1562 H 0.30508 0.65023 0.55967 0.0
H1563 H 0.32413 0.63099 0.511 0.0
C1564 C 0.10942 0.6478 0.40047 0.0
C1565 C 0.12177 0.622 0.42466 0.0
C1566 C 0.15005 0.61263 0.34489 0.0
C1567 C 0.13206 0.63437 0.31863 0.0
N1568 N 0.08491 0.66232 0.32264 0.0
N1569 N 0.14987 0.57547 0.41291 0.0
C1570 C 0.10873 0.64887 0.3466 0.0
C1571 C 0.14104 0.60298 0.39508 0.0
N1572 N 0.09916 0.67185 0.42816 0.0
N1573 N 0.17612 0.60198 0.3239 0.0
H1574 H 0.14242 0.56632 0.44747 0.0
H1575 H 0.16188 0.56027 0.39019 0.0
H1576 H 0.18513 0.61001 0.2896 0.0
H1577 H 0.1907 0.58787 0.34408 0.0
H1578 H 0.09108 0.6913 0.41031 0.0
H1579 H 0.10287 0.67408 0.46763 0.0
H1580 H 0.06723 0.672 0.34337 0.0
H1581 H 0.08044 0.65962 0.28351 0.0
C1582 C 0.16746 0.3668 0.13677 0.0
C1583 C 0.15145 0.38375 0.1739 0.0
C1584 C 0.1308 0.41637 0.10695 0.0
C1585 C 0.14304 0.39661 0.06973 0.0
N1586 N 0.18019 0.35995 0.04629 0.0
N1587 N 0.12603 0.42937 0.1977 0.0
C1588 C 0.16422 0.37433 0.08389 0.0
C1589 C 0.13618 0.41049 0.15994 0.0
N1590 N 0.18404 0.34252 0.15221 0.0
N1591 N 0.11253 0.43935 0.0913 0.0
H1592 H 0.12996 0.42507 0.23664 0.0
H1593 H 0.11584 0.45006 0.19077 0.0
H1594 H 0.10942 0.44439 0.05241 0.0
H1595 H 0.10027 0.45303 0.11614 0.0
H1596 H 0.19399 0.3272 0.12714 0.0
H1597 H 0.18738 0.33752 0.19106 0.0
H1598 H 0.19706 0.34424 0.05336 0.0
H1599 H 0.17793 0.36575 0.00753 0.0
loop_
_geom_bond_atom_site_label_1
_geom_bond_atom_site_label_2
_geom_bond_distance
_geom_bond_site_symmetry_2
_ccdc_geom_bond_type
O0 Cd1 2.223 . S
O0 C8 1.315 . S
Cd1 O0 2.223 . S
Cd1 O4 2.297 . S
Cd1 O5 2.439 . S
Cd1 O11 2.240 . S
Cd2 O3 2.240 . S
Cd2 O10 2.223 . S
Cd2 O12 2.297 . S
Cd2 O13 2.439 . S
O3 Cd2 2.240 . S
O3 C8 1.279 . S
O4 Cd1 2.297 . S
O4 C6 1.247 . S
O5 Cd1 2.439 . S
O5 C6 1.208 . S
C6 O4 1.247 . S
C6 O5 1.208 . S
C7 O12 1.247 . S
C7 O13 1.208 . S
C8 O0 1.315 . S
C8 O3 1.279 . S
C9 O10 1.315 . S
C9 O11 1.279 . S
O10 Cd2 2.223 . S
O10 C9 1.315 . S
O11 Cd1 2.240 . S
O11 C9 1.279 . S
O12 Cd2 2.297 . S
O12 C7 1.247 . S
O13 Cd2 2.439 . S
O13 C7 1.208 . S
O14 Cd15 2.223 . S
O14 C22 1.315 . S
Cd15 O14 2.223 . S
Cd15 O18 2.297 . S
Cd15 O19 2.439 . S
Cd15 O25 2.240 . S
Cd16 O17 2.240 . S
Cd16 O24 2.223 . S
Cd16 O26 2.297 . S
Cd16 O27 2.439 . S
O17 Cd16 2.240 . S
O17 C22 1.279 . S
O18 Cd15 2.297 . S
O18 C20 1.247 . S
O19 Cd15 2.439 . S
O19 C20 1.208 . S
C20 O18 1.247 . S
C20 O19 1.208 . S
C21 O26 1.247 . S
C21 O27 1.208 . S
C22 O14 1.315 . S
C22 O17 1.279 . S
C23 O24 1.315 . S
C23 O25 1.279 . S
O24 Cd16 2.223 . S
O24 C23 1.315 . S
O25 Cd15 2.240 . S
O25 C23 1.279 . S
O26 Cd16 2.297 . S
O26 C21 1.247 . S
O27 Cd16 2.439 . S
O27 C21 1.208 . S
O28 Cd29 2.223 . S
O28 C36 1.315 . S
Cd29 O28 2.223 . S
Cd29 O32 2.297 . S
Cd29 O33 2.439 . S
Cd29 O39 2.240 . S
Cd30 O31 2.240 . S
Cd30 O38 2.223 . S
Cd30 O40 2.297 1_556 S
Cd30 O41 2.439 . S
O31 Cd30 2.240 . S
O31 C36 1.279 . S
O32 Cd29 2.297 . S
O32 C34 1.247 . S
O33 Cd29 2.439 . S
O33 C34 1.208 . S
C34 O32 1.247 . S
C34 O33 1.208 . S
C35 O40 1.247 . S
C35 O41 1.208 1_554 S
C36 O28 1.315 . S
C36 O31 1.279 . S
C37 O38 1.315 . S
C37 O39 1.279 . S
O38 Cd30 2.223 . S
O38 C37 1.315 . S
O39 Cd29 2.240 . S
O39 C37 1.279 . S
O40 Cd30 2.297 1_554 S
O40 C35 1.247 . S
O41 Cd30 2.439 . S
O41 C35 1.208 1_556 S
O42 Cd43 2.223 . S
O42 C50 1.315 . S
Cd43 O42 2.223 . S
Cd43 O46 2.297 . S
Cd43 O47 2.439 . S
Cd43 O53 2.240 . S
Cd44 O45 2.240 . S
Cd44 O52 2.223 . S
Cd44 O54 2.297 . S
Cd44 O55 2.439 . S
O45 Cd44 2.240 . S
O45 C50 1.279 . S
O46 Cd43 2.297 . S
O46 C48 1.247 . S
O47 Cd43 2.439 . S
O47 C48 1.208 . S
C48 O46 1.247 . S
C48 O47 1.208 . S
C49 O54 1.247 . S
C49 O55 1.208 . S
C50 O42 1.315 . S
C50 O45 1.279 . S
C51 O52 1.315 . S
C51 O53 1.279 . S
O52 Cd44 2.223 . S
O52 C51 1.315 . S
O53 Cd43 2.240 . S
O53 C51 1.279 . S
O54 Cd44 2.297 . S
O54 C49 1.247 . S
O55 Cd44 2.439 . S
O55 C49 1.208 . S
O56 Cd57 2.223 . S
O56 C64 1.315 . S
Cd57 O56 2.223 . S
Cd57 O60 2.297 . S
Cd57 O61 2.439 . S
Cd57 O67 2.240 . S
Cd58 O59 2.240 . S
Cd58 O66 2.223 . S
Cd58 O68 2.297 1_554 S
Cd58 O69 2.439 . S
O59 Cd58 2.240 . S
O59 C64 1.279 . S
O60 Cd57 2.297 . S
O60 C62 1.247 . S
O61 Cd57 2.439 . S
O61 C62 1.208 . S
C62 O60 1.247 . S
C62 O61 1.208 . S
C63 O68 1.247 . S
C63 O69 1.208 1_556 S
C64 O56 1.315 . S
C64 O59 1.279 . S
C65 O66 1.315 . S
C65 O67 1.279 . S
O66 Cd58 2.223 . S
O66 C65 1.315 . S
O67 Cd57 2.240 . S
O67 C65 1.279 . S
O68 Cd58 2.297 1_556 S
O68 C63 1.247 . S
O69 Cd58 2.439 . S
O69 C63 1.208 1_554 S
O70 Cd71 2.223 . S
O70 C78 1.315 . S
Cd71 O70 2.223 . S
Cd71 O74 2.297 . S
Cd71 O75 2.439 . S
Cd71 O81 2.240 . S
Cd72 O73 2.240 . S
Cd72 O80 2.223 . S
Cd72 O82 2.297 . S
Cd72 O83 2.439 . S
O73 Cd72 2.240 . S
O73 C78 1.279 . S
O74 Cd71 2.297 . S
O74 C76 1.247 . S
O75 Cd71 2.439 . S
O75 C76 1.208 . S
C76 O74 1.247 . S
C76 O75 1.208 . S
C77 O82 1.247 . S
C77 O83 1.208 . S
C78 O70 1.315 . S
C78 O73 1.279 . S
C79 O80 1.315 . S
C79 O81 1.279 . S
O80 Cd72 2.223 . S
O80 C79 1.315 . S
O81 Cd71 2.240 . S
O81 C79 1.279 . S
O82 Cd72 2.297 . S
O82 C77 1.247 . S
O83 Cd72 2.439 . S
O83 C77 1.208 . S
O84 Cd85 2.223 . S
O84 C92 1.315 . S
Cd85 O84 2.223 . S
Cd85 O88 2.297 . S
Cd85 O89 2.439 . S
Cd85 O95 2.240 . S
Cd86 O87 2.240 . S
Cd86 O94 2.223 . S
Cd86 O96 2.297 . S
Cd86 O97 2.439 . S
O87 Cd86 2.240 . S
O87 C92 1.279 . S
O88 Cd85 2.297 . S
O88 C90 1.247 . S
O89 Cd85 2.439 . S
O89 C90 1.208 . S
C90 O88 1.247 . S
C90 O89 1.208 . S
C91 O96 1.247 . S
C91 O97 1.208 . S
C92 O84 1.315 . S
C92 O87 1.279 . S
C93 O94 1.315 . S
C93 O95 1.279 . S
O94 Cd86 2.223 . S
O94 C93 1.315 . S
O95 Cd85 2.240 . S
O95 C93 1.279 . S
O96 Cd86 2.297 . S
O96 C91 1.247 . S
O97 Cd86 2.439 . S
O97 C91 1.208 . S
O98 Cd99 2.223 . S
O98 C106 1.315 . S
Cd99 O98 2.223 . S
Cd99 O102 2.297 . S
Cd99 O103 2.439 . S
Cd99 O109 2.240 . S
Cd100 O101 2.240 . S
Cd100 O108 2.223 . S
Cd100 O110 2.297 . S
Cd100 O111 2.439 . S
O101 Cd100 2.240 . S
O101 C106 1.279 . S
O102 Cd99 2.297 . S
O102 C104 1.247 . S
O103 Cd99 2.439 . S
O103 C104 1.208 . S
C104 O102 1.247 . S
C104 O103 1.208 . S
C105 O110 1.247 . S
C105 O111 1.208 . S
C106 O98 1.315 . S
C106 O101 1.279 . S
C107 O108 1.315 . S
C107 O109 1.279 . S
O108 Cd100 2.223 . S
O108 C107 1.315 . S
O109 Cd99 2.240 . S
O109 C107 1.279 . S
O110 Cd100 2.297 . S
O110 C105 1.247 . S
O111 Cd100 2.439 . S
O111 C105 1.208 . S
O112 Cd113 2.223 . S
O112 C120 1.315 . S
Cd113 O112 2.223 . S
Cd113 O116 2.297 . S
Cd113 O117 2.439 . S
Cd113 O123 2.240 . S
Cd114 O115 2.240 . S
Cd114 O122 2.223 . S
Cd114 O124 2.297 . S
Cd114 O125 2.439 . S
O115 Cd114 2.240 . S
O115 C120 1.279 . S
O116 Cd113 2.297 . S
O116 C118 1.247 . S
O117 Cd113 2.439 . S
O117 C118 1.208 . S
C118 O116 1.247 . S
C118 O117 1.208 . S
C119 O124 1.247 . S
C119 O125 1.208 . S
C120 O112 1.315 . S
C120 O115 1.279 . S
C121 O122 1.315 . S
C121 O123 1.279 . S
O122 Cd114 2.223 . S
O122 C121 1.315 . S
O123 Cd113 2.240 . S
O123 C121 1.279 . S
O124 Cd114 2.297 . S
O124 C119 1.247 . S
O125 Cd114 2.439 . S
O125 C119 1.208 . S
O126 Cd127 2.223 . S
O126 C134 1.315 . S
Cd127 O126 2.223 . S
Cd127 O130 2.297 . S
Cd127 O131 2.439 . S
Cd127 O137 2.240 . S
Cd128 O129 2.240 . S
Cd128 O136 2.223 . S
Cd128 O138 2.297 . S
Cd128 O139 2.439 . S
O129 Cd128 2.240 . S
O129 C134 1.279 . S
O130 Cd127 2.297 . S
O130 C132 1.247 . S
O131 Cd127 2.439 . S
O131 C132 1.208 . S
C132 O130 1.247 . S
C132 O131 1.208 . S
C133 O138 1.247 . S
C133 O139 1.208 . S
C134 O126 1.315 . S
C134 O129 1.279 . S
C135 O136 1.315 . S
C135 O137 1.279 . S
O136 Cd128 2.223 . S
O136 C135 1.315 . S
O137 Cd127 2.240 . S
O137 C135 1.279 . S
O138 Cd128 2.297 . S
O138 C133 1.247 . S
O139 Cd128 2.439 . S
O139 C133 1.208 . S
O140 Cd141 2.223 . S
O140 C148 1.315 . S
Cd141 O140 2.223 . S
Cd141 O144 2.297 . S
Cd141 O145 2.439 . S
Cd141 O151 2.240 . S
Cd142 O143 2.240 . S
Cd142 O150 2.223 . S
Cd142 O152 2.297 1_554 S
Cd142 O153 2.439 . S
O143 Cd142 2.240 . S
O143 C148 1.279 . S
O144 Cd141 2.297 . S
O144 C146 1.247 . S
O145 Cd141 2.439 . S
O145 C146 1.208 . S
C146 O144 1.247 . S
C146 O145 1.208 . S
C147 O152 1.247 . S
C147 O153 1.208 1_556 S
C148 O140 1.315 . S
C148 O143 1.279 . S
C149 O150 1.315 . S
C149 O151 1.279 . S
O150 Cd142 2.223 . S
O150 C149 1.315 . S
O151 Cd141 2.240 . S
O151 C149 1.279 . S
O152 Cd142 2.297 1_556 S
O152 C147 1.247 . S
O153 Cd142 2.439 . S
O153 C147 1.208 1_554 S
O154 Cd155 2.223 . S
O154 C162 1.315 . S
Cd155 O154 2.223 . S
Cd155 O158 2.297 . S
Cd155 O159 2.439 . S
Cd155 O165 2.240 . S
Cd156 O157 2.240 . S
Cd156 O164 2.223 . S
Cd156 O166 2.297 . S
Cd156 O167 2.439 . S
O157 Cd156 2.240 . S
O157 C162 1.279 . S
O158 Cd155 2.297 . S
O158 C160 1.247 . S
O159 Cd155 2.439 . S
O159 C160 1.208 . S
C160 O158 1.247 . S
C160 O159 1.208 . S
C161 O166 1.247 . S
C161 O167 1.208 . S
C162 O154 1.315 . S
C162 O157 1.279 . S
C163 O164 1.315 . S
C163 O165 1.279 . S
O164 Cd156 2.223 . S
O164 C163 1.315 . S
O165 Cd155 2.240 . S
O165 C163 1.279 . S
O166 Cd156 2.297 . S
O166 C161 1.247 . S
O167 Cd156 2.439 . S
O167 C161 1.208 . S
O168 Cd169 2.223 . S
O168 C176 1.315 . S
Cd169 O168 2.223 . S
Cd169 O172 2.297 . S
Cd169 O173 2.439 . S
Cd169 O179 2.240 . S
Cd170 O171 2.240 . S
Cd170 O178 2.223 . S
Cd170 O180 2.297 1_556 S
Cd170 O181 2.439 . S
O171 Cd170 2.240 . S
O171 C176 1.279 . S
O172 Cd169 2.297 . S
O172 C174 1.247 . S
O173 Cd169 2.439 . S
O173 C174 1.208 . S
C174 O172 1.247 . S
C174 O173 1.208 . S
C175 O180 1.247 . S
C175 O181 1.208 1_554 S
C176 O168 1.315 . S
C176 O171 1.279 . S
C177 O178 1.315 . S
C177 O179 1.279 . S
O178 Cd170 2.223 . S
O178 C177 1.315 . S
O179 Cd169 2.240 . S
O179 C177 1.279 . S
O180 Cd170 2.297 1_554 S
O180 C175 1.247 . S
O181 Cd170 2.439 . S
O181 C175 1.208 1_556 S
O182 Cd183 2.223 . S
O182 C190 1.315 . S
Cd183 O182 2.223 . S
Cd183 O186 2.297 . S
Cd183 O187 2.439 . S
Cd183 O193 2.240 . S
Cd184 O185 2.240 . S
Cd184 O192 2.223 . S
Cd184 O194 2.297 . S
Cd184 O195 2.439 . S
O185 Cd184 2.240 . S
O185 C190 1.279 . S
O186 Cd183 2.297 . S
O186 C188 1.247 . S
O187 Cd183 2.439 . S
O187 C188 1.208 . S
C188 O186 1.247 . S
C188 O187 1.208 . S
C189 O194 1.247 . S
C189 O195 1.208 . S
C190 O182 1.315 . S
C190 O185 1.279 . S
C191 O192 1.315 . S
C191 O193 1.279 . S
O192 Cd184 2.223 . S
O192 C191 1.315 . S
O193 Cd183 2.240 . S
O193 C191 1.279 . S
O194 Cd184 2.297 . S
O194 C189 1.247 . S
O195 Cd184 2.439 . S
O195 C189 1.208 . S
O196 Cd197 2.223 . S
O196 C204 1.315 . S
Cd197 O196 2.223 . S
Cd197 O200 2.297 . S
Cd197 O201 2.439 . S
Cd197 O207 2.240 . S
Cd198 O199 2.240 . S
Cd198 O206 2.223 . S
Cd198 O208 2.297 . S
Cd198 O209 2.439 . S
O199 Cd198 2.240 . S
O199 C204 1.279 . S
O200 Cd197 2.297 . S
O200 C202 1.247 . S
O201 Cd197 2.439 . S
O201 C202 1.208 . S
C202 O200 1.247 . S
C202 O201 1.208 . S
C203 O208 1.247 . S
C203 O209 1.208 . S
C204 O196 1.315 . S
C204 O199 1.279 . S
C205 O206 1.315 . S
C205 O207 1.279 . S
O206 Cd198 2.223 . S
O206 C205 1.315 . S
O207 Cd197 2.240 . S
O207 C205 1.279 . S
O208 Cd198 2.297 . S
O208 C203 1.247 . S
O209 Cd198 2.439 . S
O209 C203 1.208 . S
O210 Cd211 2.223 . S
O210 C218 1.315 . S
Cd211 O210 2.223 . S
Cd211 O214 2.297 . S
Cd211 O215 2.439 . S
Cd211 O221 2.240 . S
Cd212 O213 2.240 . S
Cd212 O220 2.223 . S
Cd212 O222 2.297 . S
Cd212 O223 2.439 . S
O213 Cd212 2.240 . S
O213 C218 1.279 . S
O214 Cd211 2.297 . S
O214 C216 1.247 . S
O215 Cd211 2.439 . S
O215 C216 1.208 . S
C216 O214 1.247 . S
C216 O215 1.208 . S
C217 O222 1.247 . S
C217 O223 1.208 . S
C218 O210 1.315 . S
C218 O213 1.279 . S
C219 O220 1.315 . S
C219 O221 1.279 . S
O220 Cd212 2.223 . S
O220 C219 1.315 . S
O221 Cd211 2.240 . S
O221 C219 1.279 . S
O222 Cd212 2.297 . S
O222 C217 1.247 . S
O223 Cd212 2.439 . S
O223 C217 1.208 . S
O224 Cd225 2.223 . S
O224 C232 1.315 . S
Cd225 O224 2.223 . S
Cd225 O228 2.297 . S
Cd225 O229 2.439 . S
Cd225 O235 2.240 . S
Cd226 O227 2.240 . S
Cd226 O234 2.223 . S
Cd226 O236 2.297 1_556 S
Cd226 O237 2.439 . S
O227 Cd226 2.240 . S
O227 C232 1.279 . S
O228 Cd225 2.297 . S
O228 C230 1.247 . S
O229 Cd225 2.439 . S
O229 C230 1.208 . S
C230 O228 1.247 . S
C230 O229 1.208 . S
C231 O236 1.247 . S
C231 O237 1.208 1_554 S
C232 O224 1.315 . S
C232 O227 1.279 . S
C233 O234 1.315 . S
C233 O235 1.279 . S
O234 Cd226 2.223 . S
O234 C233 1.315 . S
O235 Cd225 2.240 . S
O235 C233 1.279 . S
O236 Cd226 2.297 1_554 S
O236 C231 1.247 . S
O237 Cd226 2.439 . S
O237 C231 1.208 1_556 S
O238 Cd239 2.223 . S
O238 C246 1.315 . S
Cd239 O238 2.223 . S
Cd239 O242 2.297 . S
Cd239 O243 2.439 . S
Cd239 O249 2.240 . S
Cd240 O241 2.240 . S
Cd240 O248 2.223 . S
Cd240 O250 2.297 . S
Cd240 O251 2.439 . S
O241 Cd240 2.240 . S
O241 C246 1.279 . S
O242 Cd239 2.297 . S
O242 C244 1.247 . S
O243 Cd239 2.439 . S
O243 C244 1.208 . S
C244 O242 1.247 . S
C244 O243 1.208 . S
C245 O250 1.247 . S
C245 O251 1.208 . S
C246 O238 1.315 . S
C246 O241 1.279 . S
C247 O248 1.315 . S
C247 O249 1.279 . S
O248 Cd240 2.223 . S
O248 C247 1.315 . S
O249 Cd239 2.240 . S
O249 C247 1.279 . S
O250 Cd240 2.297 . S
O250 C245 1.247 . S
O251 Cd240 2.439 . S
O251 C245 1.208 . S
O252 Cd253 2.223 . S
O252 C260 1.315 . S
Cd253 O252 2.223 . S
Cd253 O256 2.297 . S
Cd253 O257 2.439 . S
Cd253 O263 2.240 . S
Cd254 O255 2.240 . S
Cd254 O262 2.223 . S
Cd254 O264 2.297 . S
Cd254 O265 2.439 . S
O255 Cd254 2.240 . S
O255 C260 1.279 . S
O256 Cd253 2.297 . S
O256 C258 1.247 . S
O257 Cd253 2.439 . S
O257 C258 1.208 . S
C258 O256 1.247 . S
C258 O257 1.208 . S
C259 O264 1.247 . S
C259 O265 1.208 . S
C260 O252 1.315 . S
C260 O255 1.279 . S
C261 O262 1.315 . S
C261 O263 1.279 . S
O262 Cd254 2.223 . S
O262 C261 1.315 . S
O263 Cd253 2.240 . S
O263 C261 1.279 . S
O264 Cd254 2.297 . S
O264 C259 1.247 . S
O265 Cd254 2.439 . S
O265 C259 1.208 . S
O266 Cd267 2.223 . S
O266 C274 1.315 . S
Cd267 O266 2.223 . S
Cd267 O270 2.297 . S
Cd267 O271 2.439 . S
Cd267 O277 2.240 . S
Cd268 O269 2.240 . S
Cd268 O276 2.223 . S
Cd268 O278 2.297 . S
Cd268 O279 2.439 . S
O269 Cd268 2.240 . S
O269 C274 1.279 . S
O270 Cd267 2.297 . S
O270 C272 1.247 . S
O271 Cd267 2.439 . S
O271 C272 1.208 . S
C272 O270 1.247 . S
C272 O271 1.208 . S
C273 O278 1.247 . S
C273 O279 1.208 . S
C274 O266 1.315 . S
C274 O269 1.279 . S
C275 O276 1.315 . S
C275 O277 1.279 . S
O276 Cd268 2.223 . S
O276 C275 1.315 . S
O277 Cd267 2.240 . S
O277 C275 1.279 . S
O278 Cd268 2.297 . S
O278 C273 1.247 . S
O279 Cd268 2.439 . S
O279 C273 1.208 . S
O280 Cd281 2.223 . S
O280 C288 1.315 . S
Cd281 O280 2.223 . S
Cd281 O284 2.297 . S
Cd281 O285 2.439 . S
Cd281 O291 2.240 . S
Cd282 O283 2.240 . S
Cd282 O290 2.223 . S
Cd282 O292 2.297 . S
Cd282 O293 2.439 . S
O283 Cd282 2.240 . S
O283 C288 1.279 . S
O284 Cd281 2.297 . S
O284 C286 1.247 . S
O285 Cd281 2.439 . S
O285 C286 1.208 . S
C286 O284 1.247 . S
C286 O285 1.208 . S
C287 O292 1.247 . S
C287 O293 1.208 . S
C288 O280 1.315 . S
C288 O283 1.279 . S
C289 O290 1.315 . S
C289 O291 1.279 . S
O290 Cd282 2.223 . S
O290 C289 1.315 . S
O291 Cd281 2.240 . S
O291 C289 1.279 . S
O292 Cd282 2.297 . S
O292 C287 1.247 . S
O293 Cd282 2.439 . S
O293 C287 1.208 . S
O294 Cd295 2.223 . S
O294 C302 1.315 . S
Cd295 O294 2.223 . S
Cd295 O298 2.297 . S
Cd295 O299 2.439 . S
Cd295 O305 2.240 . S
Cd296 O297 2.240 . S
Cd296 O304 2.223 . S
Cd296 O306 2.297 . S
Cd296 O307 2.439 . S
O297 Cd296 2.240 . S
O297 C302 1.279 . S
O298 Cd295 2.297 . S
O298 C300 1.247 . S
O299 Cd295 2.439 . S
O299 C300 1.208 . S
C300 O298 1.247 . S
C300 O299 1.208 . S
C301 O306 1.247 . S
C301 O307 1.208 . S
C302 O294 1.315 . S
C302 O297 1.279 . S
C303 O304 1.315 . S
C303 O305 1.279 . S
O304 Cd296 2.223 . S
O304 C303 1.315 . S
O305 Cd295 2.240 . S
O305 C303 1.279 . S
O306 Cd296 2.297 . S
O306 C301 1.247 . S
O307 Cd296 2.439 . S
O307 C301 1.208 . S
O308 Cd309 2.223 . S
O308 C316 1.315 . S
Cd309 O308 2.223 . S
Cd309 O312 2.297 . S
Cd309 O313 2.439 . S
Cd309 O319 2.240 . S
Cd310 O311 2.240 . S
Cd310 O318 2.223 . S
Cd310 O320 2.297 1_554 S
Cd310 O321 2.439 . S
O311 Cd310 2.240 . S
O311 C316 1.279 . S
O312 Cd309 2.297 . S
O312 C314 1.247 . S
O313 Cd309 2.439 . S
O313 C314 1.208 . S
C314 O312 1.247 . S
C314 O313 1.208 . S
C315 O320 1.247 . S
C315 O321 1.208 1_556 S
C316 O308 1.315 . S
C316 O311 1.279 . S
C317 O318 1.315 . S
C317 O319 1.279 . S
O318 Cd310 2.223 . S
O318 C317 1.315 . S
O319 Cd309 2.240 . S
O319 C317 1.279 . S
O320 Cd310 2.297 1_556 S
O320 C315 1.247 . S
O321 Cd310 2.439 . S
O321 C315 1.208 1_554 S
O322 Cd323 2.223 . S
O322 C330 1.315 . S
Cd323 O322 2.223 . S
Cd323 O326 2.297 . S
Cd323 O327 2.439 . S
Cd323 O333 2.240 . S
Cd324 O325 2.240 . S
Cd324 O332 2.223 . S
Cd324 O334 2.297 . S
Cd324 O335 2.439 . S
O325 Cd324 2.240 . S
O325 C330 1.279 . S
O326 Cd323 2.297 . S
O326 C328 1.247 . S
O327 Cd323 2.439 . S
O327 C328 1.208 . S
C328 O326 1.247 . S
C328 O327 1.208 . S
C329 O334 1.247 . S
C329 O335 1.208 . S
C330 O322 1.315 . S
C330 O325 1.279 . S
C331 O332 1.315 . S
C331 O333 1.279 . S
O332 Cd324 2.223 . S
O332 C331 1.315 . S
O333 Cd323 2.240 . S
O333 C331 1.279 . S
O334 Cd324 2.297 . S
O334 C329 1.247 . S
O335 Cd324 2.439 . S
O335 C329 1.208 . S
O336 Cd337 2.223 . S
O336 C344 1.315 . S
Cd337 O336 2.223 . S
Cd337 O340 2.297 . S
Cd337 O341 2.439 . S
Cd337 O347 2.240 . S
Cd338 O339 2.240 . S
Cd338 O346 2.223 . S
Cd338 O348 2.297 1_554 S
Cd338 O349 2.439 . S
O339 Cd338 2.240 . S
O339 C344 1.279 . S
O340 Cd337 2.297 . S
O340 C342 1.247 . S
O341 Cd337 2.439 . S
O341 C342 1.208 . S
C342 O340 1.247 . S
C342 O341 1.208 . S
C343 O348 1.247 . S
C343 O349 1.208 1_556 S
C344 O336 1.315 . S
C344 O339 1.279 . S
C345 O346 1.315 . S
C345 O347 1.279 . S
O346 Cd338 2.223 . S
O346 C345 1.315 . S
O347 Cd337 2.240 . S
O347 C345 1.279 . S
O348 Cd338 2.297 1_556 S
O348 C343 1.247 . S
O349 Cd338 2.439 . S
O349 C343 1.208 1_554 S
O350 Cd351 2.223 . S
O350 C358 1.315 . S
Cd351 O350 2.223 . S
Cd351 O354 2.297 . S
Cd351 O355 2.439 . S
Cd351 O361 2.240 . S
Cd352 O353 2.240 . S
Cd352 O360 2.223 . S
Cd352 O362 2.297 . S
Cd352 O363 2.439 . S
O353 Cd352 2.240 . S
O353 C358 1.279 . S
O354 Cd351 2.297 . S
O354 C356 1.247 . S
O355 Cd351 2.439 . S
O355 C356 1.208 . S
C356 O354 1.247 . S
C356 O355 1.208 . S
C357 O362 1.247 . S
C357 O363 1.208 . S
C358 O350 1.315 . S
C358 O353 1.279 . S
C359 O360 1.315 . S
C359 O361 1.279 . S
O360 Cd352 2.223 . S
O360 C359 1.315 . S
O361 Cd351 2.240 . S
O361 C359 1.279 . S
O362 Cd352 2.297 . S
O362 C357 1.247 . S
O363 Cd352 2.439 . S
O363 C357 1.208 . S
O364 Cd365 2.223 . S
O364 C372 1.315 . S
Cd365 O364 2.223 . S
Cd365 O368 2.297 . S
Cd365 O369 2.439 . S
Cd365 O375 2.240 . S
Cd366 O367 2.240 . S
Cd366 O374 2.223 . S
Cd366 O376 2.297 . S
Cd366 O377 2.439 . S
O367 Cd366 2.240 . S
O367 C372 1.279 . S
O368 Cd365 2.297 . S
O368 C370 1.247 . S
O369 Cd365 2.439 . S
O369 C370 1.208 . S
C370 O368 1.247 . S
C370 O369 1.208 . S
C371 O376 1.247 . S
C371 O377 1.208 . S
C372 O364 1.315 . S
C372 O367 1.279 . S
C373 O374 1.315 . S
C373 O375 1.279 . S
O374 Cd366 2.223 . S
O374 C373 1.315 . S
O375 Cd365 2.240 . S
O375 C373 1.279 . S
O376 Cd366 2.297 . S
O376 C371 1.247 . S
O377 Cd366 2.439 . S
O377 C371 1.208 . S
O378 Cd379 2.223 . S
O378 C386 1.315 . S
Cd379 O378 2.223 . S
Cd379 O382 2.297 . S
Cd379 O383 2.439 . S
Cd379 O389 2.240 . S
Cd380 O381 2.240 . S
Cd380 O388 2.223 . S
Cd380 O390 2.297 . S
Cd380 O391 2.439 . S
O381 Cd380 2.240 . S
O381 C386 1.279 . S
O382 Cd379 2.297 . S
O382 C384 1.247 . S
O383 Cd379 2.439 . S
O383 C384 1.208 . S
C384 O382 1.247 . S
C384 O383 1.208 . S
C385 O390 1.247 . S
C385 O391 1.208 . S
C386 O378 1.315 . S
C386 O381 1.279 . S
C387 O388 1.315 . S
C387 O389 1.279 . S
O388 Cd380 2.223 . S
O388 C387 1.315 . S
O389 Cd379 2.240 . S
O389 C387 1.279 . S
O390 Cd380 2.297 . S
O390 C385 1.247 . S
O391 Cd380 2.439 . S
O391 C385 1.208 . S
O392 Cd393 2.223 . S
O392 C400 1.315 . S
Cd393 O392 2.223 . S
Cd393 O396 2.297 . S
Cd393 O397 2.439 . S
Cd393 O403 2.240 . S
Cd394 O395 2.240 . S
Cd394 O402 2.223 . S
Cd394 O404 2.297 . S
Cd394 O405 2.439 . S
O395 Cd394 2.240 . S
O395 C400 1.279 . S
O396 Cd393 2.297 . S
O396 C398 1.247 . S
O397 Cd393 2.439 . S
O397 C398 1.208 . S
C398 O396 1.247 . S
C398 O397 1.208 . S
C399 O404 1.247 . S
C399 O405 1.208 . S
C400 O392 1.315 . S
C400 O395 1.279 . S
C401 O402 1.315 . S
C401 O403 1.279 . S
O402 Cd394 2.223 . S
O402 C401 1.315 . S
O403 Cd393 2.240 . S
O403 C401 1.279 . S
O404 Cd394 2.297 . S
O404 C399 1.247 . S
O405 Cd394 2.439 . S
O405 C399 1.208 . S
O406 Cd407 2.223 . S
O406 C414 1.315 . S
Cd407 O406 2.223 . S
Cd407 O410 2.297 . S
Cd407 O411 2.439 . S
Cd407 O417 2.240 . S
Cd408 O409 2.240 . S
Cd408 O416 2.223 . S
Cd408 O418 2.297 . S
Cd408 O419 2.439 . S
O409 Cd408 2.240 . S
O409 C414 1.279 . S
O410 Cd407 2.297 . S
O410 C412 1.247 . S
O411 Cd407 2.439 . S
O411 C412 1.208 . S
C412 O410 1.247 . S
C412 O411 1.208 . S
C413 O418 1.247 . S
C413 O419 1.208 . S
C414 O406 1.315 . S
C414 O409 1.279 . S
C415 O416 1.315 . S
C415 O417 1.279 . S
O416 Cd408 2.223 . S
O416 C415 1.315 . S
O417 Cd407 2.240 . S
O417 C415 1.279 . S
O418 Cd408 2.297 . S
O418 C413 1.247 . S
O419 Cd408 2.439 . S
O419 C413 1.208 . S
O420 Cd421 2.223 . S
O420 C428 1.315 . S
Cd421 O420 2.223 . S
Cd421 O424 2.297 . S
Cd421 O425 2.439 . S
Cd421 O431 2.240 . S
Cd422 O423 2.240 . S
Cd422 O430 2.223 . S
Cd422 O432 2.297 1_556 S
Cd422 O433 2.439 . S
O423 Cd422 2.240 . S
O423 C428 1.279 . S
O424 Cd421 2.297 . S
O424 C426 1.247 . S
O425 Cd421 2.439 . S
O425 C426 1.208 . S
C426 O424 1.247 . S
C426 O425 1.208 . S
C427 O432 1.247 . S
C427 O433 1.208 1_554 S
C428 O420 1.315 . S
C428 O423 1.279 . S
C429 O430 1.315 . S
C429 O431 1.279 . S
O430 Cd422 2.223 . S
O430 C429 1.315 . S
O431 Cd421 2.240 . S
O431 C429 1.279 . S
O432 Cd422 2.297 1_554 S
O432 C427 1.247 . S
O433 Cd422 2.439 . S
O433 C427 1.208 1_556 S
O434 Cd435 2.223 . S
O434 C442 1.315 . S
Cd435 O434 2.223 . S
Cd435 O438 2.297 . S
Cd435 O439 2.439 . S
Cd435 O445 2.240 . S
Cd436 O437 2.240 . S
Cd436 O444 2.223 . S
Cd436 O446 2.297 . S
Cd436 O447 2.439 . S
O437 Cd436 2.240 . S
O437 C442 1.279 . S
O438 Cd435 2.297 . S
O438 C440 1.247 . S
O439 Cd435 2.439 . S
O439 C440 1.208 . S
C440 O438 1.247 . S
C440 O439 1.208 . S
C441 O446 1.247 . S
C441 O447 1.208 . S
C442 O434 1.315 . S
C442 O437 1.279 . S
C443 O444 1.315 . S
C443 O445 1.279 . S
O444 Cd436 2.223 . S
O444 C443 1.315 . S
O445 Cd435 2.240 . S
O445 C443 1.279 . S
O446 Cd436 2.297 . S
O446 C441 1.247 . S
O447 Cd436 2.439 . S
O447 C441 1.208 . S
C448 C449 1.363 1_565 S
C448 C454 1.379 . S
C448 N456 1.356 . S
C449 C448 1.363 1_545 S
C449 C455 1.363 . S
C450 C451 1.363 1_545 S
C450 C455 1.379 . S
C450 N457 1.356 . S
C451 C450 1.363 1_565 S
C451 C454 1.363 . S
N452 C454 1.356 . S
N452 H464 0.984 . S
N452 H465 0.985 . S
N453 C455 1.356 . S
N453 H458 0.984 . S
N453 H459 0.985 . S
C454 C448 1.379 . S
C454 C451 1.363 . S
C454 N452 1.356 . S
C455 C449 1.363 . S
C455 C450 1.379 . S
C455 N453 1.356 . S
N456 C448 1.356 . S
N456 H462 0.984 . S
N456 H463 0.984 1_565 S
N457 C450 1.356 . S
N457 H460 0.984 1_545 S
N457 H461 0.985 . S
H458 N453 0.984 . S
H459 N453 0.985 . S
H460 N457 0.984 1_565 S
H461 N457 0.985 . S
H462 N456 0.984 . S
H463 N456 0.984 1_545 S
H464 N452 0.984 . S
H465 N452 0.985 . S
C466 C467 1.363 . S
C466 C472 1.379 . S
C466 N474 1.356 . S
C467 C466 1.363 . S
C467 C473 1.363 . S
C468 C469 1.363 . S
C468 C473 1.379 . S
C468 N475 1.356 . S
C469 C468 1.363 . S
C469 C472 1.363 . S
N470 C472 1.356 . S
N470 H482 0.984 . S
N470 H483 0.985 . S
N471 C473 1.356 . S
N471 H476 0.984 . S
N471 H477 0.985 . S
C472 C466 1.379 . S
C472 C469 1.363 . S
C472 N470 1.356 . S
C473 C467 1.363 . S
C473 C468 1.379 . S
C473 N471 1.356 . S
N474 C466 1.356 . S
N474 H480 0.984 . S
N474 H481 0.984 . S
N475 C468 1.356 . S
N475 H478 0.984 . S
N475 H479 0.985 . S
H476 N471 0.984 . S
H477 N471 0.985 . S
H478 N475 0.984 . S
H479 N475 0.985 . S
H480 N474 0.984 . S
H481 N474 0.984 . S
H482 N470 0.984 . S
H483 N470 0.985 . S
C484 C485 1.363 1_565 S
C484 C490 1.379 . S
C484 N492 1.356 . S
C485 C484 1.363 1_545 S
C485 C491 1.363 . S
C486 C487 1.363 1_545 S
C486 C491 1.379 . S
C486 N493 1.356 . S
C487 C486 1.363 1_565 S
C487 C490 1.363 . S
N488 C490 1.356 . S
N488 H500 0.984 . S
N488 H501 0.985 . S
N489 C491 1.356 . S
N489 H494 0.984 . S
N489 H495 0.985 . S
C490 C484 1.379 . S
C490 C487 1.363 . S
C490 N488 1.356 . S
C491 C485 1.363 . S
C491 C486 1.379 . S
C491 N489 1.356 . S
N492 C484 1.356 . S
N492 H498 0.984 . S
N492 H499 0.984 1_565 S
N493 C486 1.356 . S
N493 H496 0.984 1_545 S
N493 H497 0.985 . S
H494 N489 0.984 . S
H495 N489 0.985 . S
H496 N493 0.984 1_565 S
H497 N493 0.985 . S
H498 N492 0.984 . S
H499 N492 0.984 1_545 S
H500 N488 0.984 . S
H501 N488 0.985 . S
C502 C503 1.363 . S
C502 C508 1.379 1_556 S
C502 N510 1.356 . S
C503 C502 1.363 . S
C503 C509 1.363 . S
C504 C505 1.363 . S
C504 C509 1.379 1_554 S
C504 N511 1.356 . S
C505 C504 1.363 . S
C505 C508 1.363 . S
N506 C508 1.356 . S
N506 H518 0.984 . S
N506 H519 0.985 . S
N507 C509 1.356 . S
N507 H512 0.984 . S
N507 H513 0.985 . S
C508 C502 1.379 1_554 S
C508 C505 1.363 . S
C508 N506 1.356 . S
C509 C503 1.363 . S
C509 C504 1.379 1_556 S
C509 N507 1.356 . S
N510 C502 1.356 . S
N510 H516 0.984 . S
N510 H517 0.984 . S
N511 C504 1.356 . S
N511 H514 0.984 . S
N511 H515 0.985 . S
H512 N507 0.984 . S
H513 N507 0.985 . S
H514 N511 0.984 . S
H515 N511 0.985 . S
H516 N510 0.984 . S
H517 N510 0.984 . S
H518 N506 0.984 . S
H519 N506 0.985 . S
C520 C521 1.363 1_545 S
C520 C526 1.379 . S
C520 N528 1.356 . S
C521 C520 1.363 1_565 S
C521 C527 1.363 . S
C522 C523 1.363 1_565 S
C522 C527 1.379 . S
C522 N529 1.356 . S
C523 C522 1.363 1_545 S
C523 C526 1.363 . S
N524 C526 1.356 . S
N524 H536 0.984 . S
N524 H537 0.985 . S
N525 C527 1.356 . S
N525 H530 0.984 . S
N525 H531 0.985 . S
C526 C520 1.379 . S
C526 C523 1.363 . S
C526 N524 1.356 . S
C527 C521 1.363 . S
C527 C522 1.379 . S
C527 N525 1.356 . S
N528 C520 1.356 . S
N528 H534 0.984 . S
N528 H535 0.984 1_545 S
N529 C522 1.356 . S
N529 H532 0.984 1_565 S
N529 H533 0.985 . S
H530 N525 0.984 . S
H531 N525 0.985 . S
H532 N529 0.984 1_545 S
H533 N529 0.985 . S
H534 N528 0.984 . S
H535 N528 0.984 1_565 S
H536 N524 0.984 . S
H537 N524 0.985 . S
C538 C539 1.363 . S
C538 C544 1.379 . S
C538 N546 1.356 . S
C539 C538 1.363 . S
C539 C545 1.363 . S
C540 C541 1.363 . S
C540 C545 1.379 . S
C540 N547 1.356 . S
C541 C540 1.363 . S
C541 C544 1.363 . S
N542 C544 1.356 . S
N542 H554 0.984 . S
N542 H555 0.985 . S
N543 C545 1.356 . S
N543 H548 0.984 . S
N543 H549 0.985 . S
C544 C538 1.379 . S
C544 C541 1.363 . S
C544 N542 1.356 . S
C545 C539 1.363 . S
C545 C540 1.379 . S
C545 N543 1.356 . S
N546 C538 1.356 . S
N546 H552 0.984 . S
N546 H553 0.984 . S
N547 C540 1.356 . S
N547 H550 0.984 . S
N547 H551 0.985 . S
H548 N543 0.984 . S
H549 N543 0.985 . S
H550 N547 0.984 . S
H551 N547 0.985 . S
H552 N546 0.984 . S
H553 N546 0.984 . S
H554 N542 0.984 . S
H555 N542 0.985 . S
C556 C557 1.363 1_545 S
C556 C562 1.379 . S
C556 N564 1.356 . S
C557 C556 1.363 1_565 S
C557 C563 1.363 . S
C558 C559 1.363 1_565 S
C558 C563 1.379 . S
C558 N565 1.356 . S
C559 C558 1.363 1_545 S
C559 C562 1.363 . S
N560 C562 1.356 . S
N560 H572 0.984 . S
N560 H573 0.985 . S
N561 C563 1.356 . S
N561 H566 0.984 . S
N561 H567 0.985 . S
C562 C556 1.379 . S
C562 C559 1.363 . S
C562 N560 1.356 . S
C563 C557 1.363 . S
C563 C558 1.379 . S
C563 N561 1.356 . S
N564 C556 1.356 . S
N564 H570 0.984 . S
N564 H571 0.984 1_545 S
N565 C558 1.356 . S
N565 H568 0.984 1_565 S
N565 H569 0.985 . S
H566 N561 0.984 . S
H567 N561 0.985 . S
H568 N565 0.984 1_545 S
H569 N565 0.985 . S
H570 N564 0.984 . S
H571 N564 0.984 1_565 S
H572 N560 0.984 . S
H573 N560 0.985 . S
C574 C575 1.363 . S
C574 C580 1.379 1_556 S
C574 N582 1.356 . S
C575 C574 1.363 . S
C575 C581 1.363 . S
C576 C577 1.363 . S
C576 C581 1.379 1_554 S
C576 N583 1.356 . S
C577 C576 1.363 . S
C577 C580 1.363 . S
N578 C580 1.356 . S
N578 H590 0.984 . S
N578 H591 0.985 . S
N579 C581 1.356 . S
N579 H584 0.984 . S
N579 H585 0.985 . S
C580 C574 1.379 1_554 S
C580 C577 1.363 . S
C580 N578 1.356 . S
C581 C575 1.363 . S
C581 C576 1.379 1_556 S
C581 N579 1.356 . S
N582 C574 1.356 . S
N582 H588 0.984 . S
N582 H589 0.984 . S
N583 C576 1.356 . S
N583 H586 0.984 . S
N583 H587 0.985 . S
H584 N579 0.984 . S
H585 N579 0.985 . S
H586 N583 0.984 . S
H587 N583 0.985 . S
H588 N582 0.984 . S
H589 N582 0.984 . S
H590 N578 0.984 . S
H591 N578 0.985 . S
C592 C593 1.363 . S
C592 C598 1.379 . S
C592 N600 1.356 . S
C593 C592 1.363 . S
C593 C599 1.363 . S
C594 C595 1.363 . S
C594 C599 1.379 . S
C594 N601 1.356 . S
C595 C594 1.363 . S
C595 C598 1.363 . S
N596 C598 1.356 . S
N596 H608 0.984 . S
N596 H609 0.985 . S
N597 C599 1.356 . S
N597 H602 0.984 . S
N597 H603 0.985 . S
C598 C592 1.379 . S
C598 C595 1.363 . S
C598 N596 1.356 . S
C599 C593 1.363 . S
C599 C594 1.379 . S
C599 N597 1.356 . S
N600 C592 1.356 . S
N600 H606 0.984 . S
N600 H607 0.984 . S
N601 C594 1.356 . S
N601 H604 0.984 . S
N601 H605 0.985 . S
H602 N597 0.984 . S
H603 N597 0.985 . S
H604 N601 0.984 . S
H605 N601 0.985 . S
H606 N600 0.984 . S
H607 N600 0.984 . S
H608 N596 0.984 . S
H609 N596 0.985 . S
C610 C611 1.363 . S
C610 C616 1.379 1_556 S
C610 N618 1.356 . S
C611 C610 1.363 . S
C611 C617 1.363 . S
C612 C613 1.363 . S
C612 C617 1.379 1_554 S
C612 N619 1.356 . S
C613 C612 1.363 . S
C613 C616 1.363 . S
N614 C616 1.356 . S
N614 H626 0.984 . S
N614 H627 0.985 . S
N615 C617 1.356 . S
N615 H620 0.984 . S
N615 H621 0.985 . S
C616 C610 1.379 1_554 S
C616 C613 1.363 . S
C616 N614 1.356 . S
C617 C611 1.363 . S
C617 C612 1.379 1_556 S
C617 N615 1.356 . S
N618 C610 1.356 . S
N618 H624 0.984 . S
N618 H625 0.984 . S
N619 C612 1.356 . S
N619 H622 0.984 . S
N619 H623 0.985 . S
H620 N615 0.984 . S
H621 N615 0.985 . S
H622 N619 0.984 . S
H623 N619 0.985 . S
H624 N618 0.984 . S
H625 N618 0.984 . S
H626 N614 0.984 . S
H627 N614 0.985 . S
C628 C629 1.363 . S
C628 C634 1.379 . S
C628 N636 1.356 . S
C629 C628 1.363 . S
C629 C635 1.363 . S
C630 C631 1.363 . S
C630 C635 1.379 . S
C630 N637 1.356 . S
C631 C630 1.363 . S
C631 C634 1.363 . S
N632 C634 1.356 . S
N632 H644 0.984 . S
N632 H645 0.985 . S
N633 C635 1.356 . S
N633 H638 0.984 . S
N633 H639 0.985 . S
C634 C628 1.379 . S
C634 C631 1.363 . S
C634 N632 1.356 . S
C635 C629 1.363 . S
C635 C630 1.379 . S
C635 N633 1.356 . S
N636 C628 1.356 . S
N636 H642 0.984 . S
N636 H643 0.984 . S
N637 C630 1.356 . S
N637 H640 0.984 . S
N637 H641 0.985 . S
H638 N633 0.984 . S
H639 N633 0.985 . S
H640 N637 0.984 . S
H641 N637 0.985 . S
H642 N636 0.984 . S
H643 N636 0.984 . S
H644 N632 0.984 . S
H645 N632 0.985 . S
C646 C647 1.363 . S
C646 C652 1.379 . S
C646 N654 1.356 . S
C647 C646 1.363 . S
C647 C653 1.363 . S
C648 C649 1.363 . S
C648 C653 1.379 . S
C648 N655 1.356 . S
C649 C648 1.363 . S
C649 C652 1.363 . S
N650 C652 1.356 . S
N650 H662 0.984 . S
N650 H663 0.985 . S
N651 C653 1.356 . S
N651 H656 0.984 . S
N651 H657 0.985 . S
C652 C646 1.379 . S
C652 C649 1.363 . S
C652 N650 1.356 . S
C653 C647 1.363 . S
C653 C648 1.379 . S
C653 N651 1.356 . S
N654 C646 1.356 . S
N654 H660 0.984 . S
N654 H661 0.984 . S
N655 C648 1.356 . S
N655 H658 0.984 . S
N655 H659 0.985 . S
H656 N651 0.984 . S
H657 N651 0.985 . S
H658 N655 0.984 . S
H659 N655 0.985 . S
H660 N654 0.984 . S
H661 N654 0.984 . S
H662 N650 0.984 . S
H663 N650 0.985 . S
C664 C665 1.363 . S
C664 C670 1.379 . S
C664 N672 1.356 . S
C665 C664 1.363 . S
C665 C671 1.363 . S
C666 C667 1.363 . S
C666 C671 1.379 . S
C666 N673 1.356 . S
C667 C666 1.363 . S
C667 C670 1.363 . S
N668 C670 1.356 . S
N668 H680 0.984 . S
N668 H681 0.985 . S
N669 C671 1.356 . S
N669 H674 0.984 . S
N669 H675 0.985 . S
C670 C664 1.379 . S
C670 C667 1.363 . S
C670 N668 1.356 . S
C671 C665 1.363 . S
C671 C666 1.379 . S
C671 N669 1.356 . S
N672 C664 1.356 . S
N672 H678 0.984 . S
N672 H679 0.984 . S
N673 C666 1.356 . S
N673 H676 0.984 . S
N673 H677 0.985 . S
H674 N669 0.984 . S
H675 N669 0.985 . S
H676 N673 0.984 . S
H677 N673 0.985 . S
H678 N672 0.984 . S
H679 N672 0.984 . S
H680 N668 0.984 . S
H681 N668 0.985 . S
C682 C683 1.363 . S
C682 C688 1.379 1_554 S
C682 N690 1.356 . S
C683 C682 1.363 . S
C683 C689 1.363 . S
C684 C685 1.363 . S
C684 C689 1.379 1_556 S
C684 N691 1.356 . S
C685 C684 1.363 . S
C685 C688 1.363 . S
N686 C688 1.356 . S
N686 H698 0.984 . S
N686 H699 0.985 . S
N687 C689 1.356 . S
N687 H692 0.984 . S
N687 H693 0.985 . S
C688 C682 1.379 1_556 S
C688 C685 1.363 . S
C688 N686 1.356 . S
C689 C683 1.363 . S
C689 C684 1.379 1_554 S
C689 N687 1.356 . S
N690 C682 1.356 . S
N690 H696 0.984 . S
N690 H697 0.984 . S
N691 C684 1.356 . S
N691 H694 0.984 . S
N691 H695 0.985 . S
H692 N687 0.984 . S
H693 N687 0.985 . S
H694 N691 0.984 . S
H695 N691 0.985 . S
H696 N690 0.984 . S
H697 N690 0.984 . S
H698 N686 0.984 . S
H699 N686 0.985 . S
C700 C701 1.363 . S
C700 C706 1.379 . S
C700 N708 1.356 . S
C701 C700 1.363 . S
C701 C707 1.363 . S
C702 C703 1.363 . S
C702 C707 1.379 . S
C702 N709 1.356 . S
C703 C702 1.363 . S
C703 C706 1.363 . S
N704 C706 1.356 . S
N704 H716 0.984 . S
N704 H717 0.985 . S
N705 C707 1.356 . S
N705 H710 0.984 . S
N705 H711 0.985 . S
C706 C700 1.379 . S
C706 C703 1.363 . S
C706 N704 1.356 . S
C707 C701 1.363 . S
C707 C702 1.379 . S
C707 N705 1.356 . S
N708 C700 1.356 . S
N708 H714 0.984 . S
N708 H715 0.984 . S
N709 C702 1.356 . S
N709 H712 0.984 . S
N709 H713 0.985 . S
H710 N705 0.984 . S
H711 N705 0.985 . S
H712 N709 0.984 . S
H713 N709 0.985 . S
H714 N708 0.984 . S
H715 N708 0.984 . S
H716 N704 0.984 . S
H717 N704 0.985 . S
C718 C719 1.363 . S
C718 C724 1.379 . S
C718 N726 1.356 . S
C719 C718 1.363 . S
C719 C725 1.363 . S
C720 C721 1.363 . S
C720 C725 1.379 . S
C720 N727 1.356 . S
C721 C720 1.363 . S
C721 C724 1.363 . S
N722 C724 1.356 . S
N722 H734 0.984 . S
N722 H735 0.985 . S
N723 C725 1.356 . S
N723 H728 0.984 . S
N723 H729 0.985 . S
C724 C718 1.379 . S
C724 C721 1.363 . S
C724 N722 1.356 . S
C725 C719 1.363 . S
C725 C720 1.379 . S
C725 N723 1.356 . S
N726 C718 1.356 . S
N726 H732 0.984 . S
N726 H733 0.984 . S
N727 C720 1.356 . S
N727 H730 0.984 . S
N727 H731 0.985 . S
H728 N723 0.984 . S
H729 N723 0.985 . S
H730 N727 0.984 . S
H731 N727 0.985 . S
H732 N726 0.984 . S
H733 N726 0.984 . S
H734 N722 0.984 . S
H735 N722 0.985 . S
C736 C737 1.363 . S
C736 C742 1.379 . S
C736 N744 1.356 . S
C737 C736 1.363 . S
C737 C743 1.363 . S
C738 C739 1.363 . S
C738 C743 1.379 . S
C738 N745 1.356 . S
C739 C738 1.363 . S
C739 C742 1.363 . S
N740 C742 1.356 . S
N740 H752 0.984 . S
N740 H753 0.985 . S
N741 C743 1.356 . S
N741 H746 0.984 . S
N741 H747 0.985 . S
C742 C736 1.379 . S
C742 C739 1.363 . S
C742 N740 1.356 . S
C743 C737 1.363 . S
C743 C738 1.379 . S
C743 N741 1.356 . S
N744 C736 1.356 . S
N744 H750 0.984 . S
N744 H751 0.984 . S
N745 C738 1.356 . S
N745 H748 0.984 . S
N745 H749 0.985 . S
H746 N741 0.984 . S
H747 N741 0.985 . S
H748 N745 0.984 . S
H749 N745 0.985 . S
H750 N744 0.984 . S
H751 N744 0.984 . S
H752 N740 0.984 . S
H753 N740 0.985 . S
C754 C755 1.363 1_455 S
C754 C760 1.379 . S
C754 N762 1.356 1_455 S
C755 C754 1.363 1_655 S
C755 C761 1.365 . S
C756 C757 1.363 . S
C756 C761 1.374 1_455 S
C756 N763 1.356 . S
C757 C756 1.363 . S
C757 C760 1.363 . S
N758 C760 1.356 . S
N758 H770 0.984 . S
N758 H771 0.985 . S
N759 C761 1.360 . S
N759 H764 0.984 . S
N759 H765 0.985 . S
C760 C754 1.379 . S
C760 C757 1.363 . S
C760 N758 1.356 . S
C761 C755 1.365 . S
C761 C756 1.374 1_655 S
C761 N759 1.360 . S
N762 C754 1.356 1_655 S
N762 H768 0.984 . S
N762 H769 0.984 . S
N763 C756 1.356 . S
N763 H766 0.984 . S
N763 H767 0.985 . S
H764 N759 0.984 . S
H765 N759 0.985 . S
H766 N763 0.984 . S
H767 N763 0.985 . S
H768 N762 0.984 . S
H769 N762 0.984 . S
H770 N758 0.984 . S
H771 N758 0.985 . S
C772 C773 1.363 . S
C772 C778 1.379 . S
C772 N780 1.356 . S
C773 C772 1.363 . S
C773 C779 1.363 . S
C774 C775 1.363 . S
C774 C779 1.379 . S
C774 N781 1.356 . S
C775 C774 1.363 . S
C775 C778 1.363 . S
N776 C778 1.356 . S
N776 H788 0.984 . S
N776 H789 0.985 . S
N777 C779 1.356 . S
N777 H782 0.984 . S
N777 H783 0.985 . S
C778 C772 1.379 . S
C778 C775 1.363 . S
C778 N776 1.356 . S
C779 C773 1.363 . S
C779 C774 1.379 . S
C779 N777 1.356 . S
N780 C772 1.356 . S
N780 H786 0.984 . S
N780 H787 0.984 . S
N781 C774 1.356 . S
N781 H784 0.984 . S
N781 H785 0.985 . S
H782 N777 0.984 . S
H783 N777 0.985 . S
H784 N781 0.984 . S
H785 N781 0.985 . S
H786 N780 0.984 . S
H787 N780 0.984 . S
H788 N776 0.984 . S
H789 N776 0.985 . S
C790 C791 1.363 . S
C790 C796 1.379 . S
C790 N798 1.356 . S
C791 C790 1.363 . S
C791 C797 1.363 . S
C792 C793 1.363 . S
C792 C797 1.379 . S
C792 N799 1.356 . S
C793 C792 1.363 . S
C793 C796 1.363 . S
N794 C796 1.356 . S
N794 H806 0.984 . S
N794 H807 0.985 . S
N795 C797 1.356 . S
N795 H800 0.984 . S
N795 H801 0.985 . S
C796 C790 1.379 . S
C796 C793 1.363 . S
C796 N794 1.356 . S
C797 C791 1.363 . S
C797 C792 1.379 . S
C797 N795 1.356 . S
N798 C790 1.356 . S
N798 H804 0.984 . S
N798 H805 0.984 . S
N799 C792 1.356 . S
N799 H802 0.984 . S
N799 H803 0.985 . S
H800 N795 0.984 . S
H801 N795 0.985 . S
H802 N799 0.984 . S
H803 N799 0.985 . S
H804 N798 0.984 . S
H805 N798 0.984 . S
H806 N794 0.984 . S
H807 N794 0.985 . S
C808 C809 1.363 . S
C808 C814 1.379 . S
C808 N816 1.356 . S
C809 C808 1.363 . S
C809 C815 1.363 . S
C810 C811 1.363 . S
C810 C815 1.379 . S
C810 N817 1.356 . S
C811 C810 1.363 . S
C811 C814 1.363 . S
N812 C814 1.356 . S
N812 H824 0.984 . S
N812 H825 0.985 . S
N813 C815 1.356 . S
N813 H818 0.984 . S
N813 H819 0.985 . S
C814 C808 1.379 . S
C814 C811 1.363 . S
C814 N812 1.356 . S
C815 C809 1.363 . S
C815 C810 1.379 . S
C815 N813 1.356 . S
N816 C808 1.356 . S
N816 H822 0.984 . S
N816 H823 0.984 . S
N817 C810 1.356 . S
N817 H820 0.984 . S
N817 H821 0.985 . S
H818 N813 0.984 . S
H819 N813 0.985 . S
H820 N817 0.984 . S
H821 N817 0.985 . S
H822 N816 0.984 . S
H823 N816 0.984 . S
H824 N812 0.984 . S
H825 N812 0.985 . S
C826 C827 1.363 . S
C826 C832 1.379 . S
C826 N834 1.356 . S
C827 C826 1.363 . S
C827 C833 1.363 . S
C828 C829 1.363 . S
C828 C833 1.379 . S
C828 N835 1.356 . S
C829 C828 1.363 . S
C829 C832 1.363 . S
N830 C832 1.356 . S
N830 H842 0.984 . S
N830 H843 0.985 . S
N831 C833 1.356 . S
N831 H836 0.984 . S
N831 H837 0.985 . S
C832 C826 1.379 . S
C832 C829 1.363 . S
C832 N830 1.356 . S
C833 C827 1.363 . S
C833 C828 1.379 . S
C833 N831 1.356 . S
N834 C826 1.356 . S
N834 H840 0.984 . S
N834 H841 0.984 . S
N835 C828 1.356 . S
N835 H838 0.984 . S
N835 H839 0.985 . S
H836 N831 0.984 . S
H837 N831 0.985 . S
H838 N835 0.984 . S
H839 N835 0.985 . S
H840 N834 0.984 . S
H841 N834 0.984 . S
H842 N830 0.984 . S
H843 N830 0.985 . S
C844 C845 1.363 . S
C844 C850 1.379 . S
C844 N852 1.356 . S
C845 C844 1.363 . S
C845 C851 1.363 . S
C846 C847 1.363 . S
C846 C851 1.379 . S
C846 N853 1.356 . S
C847 C846 1.363 . S
C847 C850 1.363 . S
N848 C850 1.356 . S
N848 H860 0.984 . S
N848 H861 0.985 . S
N849 C851 1.356 . S
N849 H854 0.984 . S
N849 H855 0.985 . S
C850 C844 1.379 . S
C850 C847 1.363 . S
C850 N848 1.356 . S
C851 C845 1.363 . S
C851 C846 1.379 . S
C851 N849 1.356 . S
N852 C844 1.356 . S
N852 H858 0.984 . S
N852 H859 0.984 . S
N853 C846 1.356 . S
N853 H856 0.984 . S
N853 H857 0.985 . S
H854 N849 0.984 . S
H855 N849 0.985 . S
H856 N853 0.984 . S
H857 N853 0.985 . S
H858 N852 0.984 . S
H859 N852 0.984 . S
H860 N848 0.984 . S
H861 N848 0.985 . S
C862 C863 1.363 . S
C862 C868 1.379 . S
C862 N870 1.356 . S
C863 C862 1.363 . S
C863 C869 1.363 . S
C864 C865 1.363 1_455 S
C864 C869 1.379 . S
C864 N871 1.356 1_455 S
C865 C864 1.363 1_655 S
C865 C868 1.363 1_655 S
N866 C868 1.356 1_655 S
N866 H878 0.984 . S
N866 H879 0.985 . S
N867 C869 1.356 . S
N867 H872 0.984 . S
N867 H873 0.985 . S
C868 C862 1.379 . S
C868 C865 1.363 1_455 S
C868 N866 1.356 1_455 S
C869 C863 1.363 . S
C869 C864 1.379 . S
C869 N867 1.356 . S
N870 C862 1.356 . S
N870 H876 0.984 . S
N870 H877 0.984 . S
N871 C864 1.356 1_655 S
N871 H874 0.984 . S
N871 H875 0.985 . S
H872 N867 0.984 . S
H873 N867 0.985 . S
H874 N871 0.984 . S
H875 N871 0.985 . S
H876 N870 0.984 . S
H877 N870 0.984 . S
H878 N866 0.984 . S
H879 N866 0.985 . S
C880 C881 1.363 . S
C880 C886 1.379 . S
C880 N888 1.356 . S
C881 C880 1.363 . S
C881 C887 1.363 . S
C882 C883 1.363 . S
C882 C887 1.379 . S
C882 N889 1.356 . S
C883 C882 1.363 . S
C883 C886 1.363 . S
N884 C886 1.356 . S
N884 H896 0.984 . S
N884 H897 0.985 . S
N885 C887 1.356 . S
N885 H890 0.984 . S
N885 H891 0.985 . S
C886 C880 1.379 . S
C886 C883 1.363 . S
C886 N884 1.356 . S
C887 C881 1.363 . S
C887 C882 1.379 . S
C887 N885 1.356 . S
N888 C880 1.356 . S
N888 H894 0.984 . S
N888 H895 0.984 . S
N889 C882 1.356 . S
N889 H892 0.984 . S
N889 H893 0.985 . S
H890 N885 0.984 . S
H891 N885 0.985 . S
H892 N889 0.984 . S
H893 N889 0.985 . S
H894 N888 0.984 . S
H895 N888 0.984 . S
H896 N884 0.984 . S
H897 N884 0.985 . S
C898 C899 1.363 . S
C898 C904 1.383 1_655 S
C898 N906 1.356 . S
C899 C898 1.363 . S
C899 C905 1.363 . S
C900 C901 1.363 1_655 S
C900 C905 1.379 . S
C900 N907 1.356 1_655 S
C901 C900 1.363 1_455 S
C901 C904 1.361 . S
N902 C904 1.353 . S
N902 H914 0.984 . S
N902 H915 0.985 . S
N903 C905 1.356 . S
N903 H908 0.984 . S
N903 H909 0.985 . S
C904 C898 1.383 1_455 S
C904 C901 1.361 . S
C904 N902 1.353 . S
C905 C899 1.363 . S
C905 C900 1.379 . S
C905 N903 1.356 . S
N906 C898 1.356 . S
N906 H912 0.984 . S
N906 H913 0.984 . S
N907 C900 1.356 1_455 S
N907 H910 0.984 . S
N907 H911 0.985 . S
H908 N903 0.984 . S
H909 N903 0.985 . S
H910 N907 0.984 . S
H911 N907 0.985 . S
H912 N906 0.984 . S
H913 N906 0.984 . S
H914 N902 0.984 . S
H915 N902 0.985 . S
C916 C917 1.363 . S
C916 C922 1.379 . S
C916 N924 1.356 . S
C917 C916 1.363 . S
C917 C923 1.363 . S
C918 C919 1.363 . S
C918 C923 1.379 . S
C918 N925 1.356 . S
C919 C918 1.363 . S
C919 C922 1.363 . S
N920 C922 1.356 . S
N920 H932 0.984 . S
N920 H933 0.985 . S
N921 C923 1.356 . S
N921 H926 0.984 . S
N921 H927 0.985 . S
C922 C916 1.379 . S
C922 C919 1.363 . S
C922 N920 1.356 . S
C923 C917 1.363 . S
C923 C918 1.379 . S
C923 N921 1.356 . S
N924 C916 1.356 . S
N924 H930 0.984 . S
N924 H931 0.984 . S
N925 C918 1.356 . S
N925 H928 0.984 . S
N925 H929 0.985 . S
H926 N921 0.984 . S
H927 N921 0.985 . S
H928 N925 0.984 . S
H929 N925 0.985 . S
H930 N924 0.984 . S
H931 N924 0.984 . S
H932 N920 0.984 . S
H933 N920 0.985 . S
C934 C935 1.363 . S
C934 C940 1.379 . S
C934 N942 1.356 . S
C935 C934 1.363 . S
C935 C941 1.363 . S
C936 C937 1.363 . S
C936 C941 1.379 . S
C936 N943 1.356 . S
C937 C936 1.363 . S
C937 C940 1.363 . S
N938 C940 1.356 . S
N938 H950 0.984 . S
N938 H951 0.985 . S
N939 C941 1.356 . S
N939 H944 0.984 . S
N939 H945 0.985 . S
C940 C934 1.379 . S
C940 C937 1.363 . S
C940 N938 1.356 . S
C941 C935 1.363 . S
C941 C936 1.379 . S
C941 N939 1.356 . S
N942 C934 1.356 . S
N942 H948 0.984 . S
N942 H949 0.984 . S
N943 C936 1.356 . S
N943 H946 0.984 . S
N943 H947 0.985 . S
H944 N939 0.984 . S
H945 N939 0.985 . S
H946 N943 0.984 . S
H947 N943 0.985 . S
H948 N942 0.984 . S
H949 N942 0.984 . S
H950 N938 0.984 . S
H951 N938 0.985 . S
C952 C953 1.363 . S
C952 C958 1.379 . S
C952 N960 1.356 . S
C953 C952 1.363 . S
C953 C959 1.363 . S
C954 C955 1.363 . S
C954 C959 1.379 . S
C954 N961 1.356 . S
C955 C954 1.363 . S
C955 C958 1.363 . S
N956 C958 1.356 . S
N956 H968 0.984 . S
N956 H969 0.985 . S
N957 C959 1.356 . S
N957 H962 0.984 . S
N957 H963 0.985 . S
C958 C952 1.379 . S
C958 C955 1.363 . S
C958 N956 1.356 . S
C959 C953 1.363 . S
C959 C954 1.379 . S
C959 N957 1.356 . S
N960 C952 1.356 . S
N960 H966 0.984 . S
N960 H967 0.984 . S
N961 C954 1.356 . S
N961 H964 0.984 . S
N961 H965 0.985 . S
H962 N957 0.984 . S
H963 N957 0.985 . S
H964 N961 0.984 . S
H965 N961 0.985 . S
H966 N960 0.984 . S
H967 N960 0.984 . S
H968 N956 0.984 . S
H969 N956 0.985 . S
C970 C971 1.363 . S
C970 C976 1.379 . S
C970 N978 1.356 . S
C971 C970 1.363 . S
C971 C977 1.363 . S
C972 C973 1.363 . S
C972 C977 1.379 . S
C972 N979 1.356 . S
C973 C972 1.363 . S
C973 C976 1.363 . S
N974 C976 1.356 . S
N974 H986 0.984 . S
N974 H987 0.985 . S
N975 C977 1.356 . S
N975 H980 0.984 . S
N975 H981 0.985 . S
C976 C970 1.379 . S
C976 C973 1.363 . S
C976 N974 1.356 . S
C977 C971 1.363 . S
C977 C972 1.379 . S
C977 N975 1.356 . S
N978 C970 1.356 . S
N978 H984 0.984 . S
N978 H985 0.984 . S
N979 C972 1.356 . S
N979 H982 0.984 . S
N979 H983 0.985 . S
H980 N975 0.984 . S
H981 N975 0.985 . S
H982 N979 0.984 . S
H983 N979 0.985 . S
H984 N978 0.984 . S
H985 N978 0.984 . S
H986 N974 0.984 . S
H987 N974 0.985 . S
C988 C989 1.363 . S
C988 C994 1.379 . S
C988 N996 1.356 . S
C989 C988 1.363 . S
C989 C995 1.363 . S
C990 C991 1.363 . S
C990 C995 1.379 . S
C990 N997 1.356 . S
C991 C990 1.363 . S
C991 C994 1.363 . S
N992 C994 1.356 . S
N992 H1004 0.984 . S
N992 H1005 0.985 . S
N993 C995 1.356 . S
N993 H998 0.984 . S
N993 H999 0.985 . S
C994 C988 1.379 . S
C994 C991 1.363 . S
C994 N992 1.356 . S
C995 C989 1.363 . S
C995 C990 1.379 . S
C995 N993 1.356 . S
N996 C988 1.356 . S
N996 H1002 0.984 . S
N996 H1003 0.984 . S
N997 C990 1.356 . S
N997 H1000 0.984 . S
N997 H1001 0.985 . S
H998 N993 0.984 . S
H999 N993 0.985 . S
H1000 N997 0.984 . S
H1001 N997 0.985 . S
H1002 N996 0.984 . S
H1003 N996 0.984 . S
H1004 N992 0.984 . S
H1005 N992 0.985 . S
C1006 C1007 1.363 . S
C1006 C1012 1.379 . S
C1006 N1014 1.356 . S
C1007 C1006 1.363 . S
C1007 C1013 1.363 . S
C1008 C1009 1.366 . S
C1008 C1013 1.373 1_455 S
C1008 N1015 1.361 . S
C1009 C1008 1.366 . S
C1009 C1012 1.363 1_455 S
N1010 C1012 1.356 1_455 S
N1010 H1022 0.984 . S
N1010 H1023 0.985 . S
N1011 C1013 1.356 . S
N1011 H1016 0.984 . S
N1011 H1017 0.985 . S
C1012 C1006 1.379 . S
C1012 C1009 1.363 1_655 S
C1012 N1010 1.356 1_655 S
C1013 C1007 1.363 . S
C1013 C1008 1.373 1_655 S
C1013 N1011 1.356 . S
N1014 C1006 1.356 . S
N1014 H1020 0.984 . S
N1014 H1021 0.984 . S
N1015 C1008 1.361 . S
N1015 H1018 0.984 . S
N1015 H1019 0.985 . S
H1016 N1011 0.984 . S
H1017 N1011 0.985 . S
H1018 N1015 0.984 . S
H1019 N1015 0.985 . S
H1020 N1014 0.984 . S
H1021 N1014 0.984 . S
H1022 N1010 0.984 . S
H1023 N1010 0.985 . S
C1024 C1025 1.363 . S
C1024 C1030 1.379 . S
C1024 N1032 1.356 . S
C1025 C1024 1.363 . S
C1025 C1031 1.363 . S
C1026 C1027 1.363 . S
C1026 C1031 1.379 . S
C1026 N1033 1.356 . S
C1027 C1026 1.363 . S
C1027 C1030 1.363 . S
N1028 C1030 1.356 . S
N1028 H1040 0.984 . S
N1028 H1041 0.985 . S
N1029 C1031 1.356 . S
N1029 H1034 0.984 . S
N1029 H1035 0.985 . S
C1030 C1024 1.379 . S
C1030 C1027 1.363 . S
C1030 N1028 1.356 . S
C1031 C1025 1.363 . S
C1031 C1026 1.379 . S
C1031 N1029 1.356 . S
N1032 C1024 1.356 . S
N1032 H1038 0.984 . S
N1032 H1039 0.984 . S
N1033 C1026 1.356 . S
N1033 H1036 0.984 . S
N1033 H1037 0.985 . S
H1034 N1029 0.984 . S
H1035 N1029 0.985 . S
H1036 N1033 0.984 . S
H1037 N1033 0.985 . S
H1038 N1032 0.984 . S
H1039 N1032 0.984 . S
H1040 N1028 0.984 . S
H1041 N1028 0.985 . S
C1042 C1043 1.363 . S
C1042 C1048 1.379 . S
C1042 N1050 1.356 . S
C1043 C1042 1.363 . S
C1043 C1049 1.363 . S
C1044 C1045 1.363 . S
C1044 C1049 1.379 . S
C1044 N1051 1.356 . S
C1045 C1044 1.363 . S
C1045 C1048 1.363 . S
N1046 C1048 1.356 . S
N1046 H1058 0.984 . S
N1046 H1059 0.985 . S
N1047 C1049 1.356 . S
N1047 H1052 0.984 . S
N1047 H1053 0.985 . S
C1048 C1042 1.379 . S
C1048 C1045 1.363 . S
C1048 N1046 1.356 . S
C1049 C1043 1.363 . S
C1049 C1044 1.379 . S
C1049 N1047 1.356 . S
N1050 C1042 1.356 . S
N1050 H1056 0.984 . S
N1050 H1057 0.984 . S
N1051 C1044 1.356 . S
N1051 H1054 0.984 . S
N1051 H1055 0.985 . S
H1052 N1047 0.984 . S
H1053 N1047 0.985 . S
H1054 N1051 0.984 . S
H1055 N1051 0.985 . S
H1056 N1050 0.984 . S
H1057 N1050 0.984 . S
H1058 N1046 0.984 . S
H1059 N1046 0.985 . S
C1060 C1061 1.363 . S
C1060 C1066 1.379 . S
C1060 N1068 1.356 . S
C1061 C1060 1.363 . S
C1061 C1067 1.363 . S
C1062 C1063 1.363 . S
C1062 C1067 1.379 . S
C1062 N1069 1.356 . S
C1063 C1062 1.363 . S
C1063 C1066 1.363 . S
N1064 C1066 1.356 . S
N1064 H1076 0.984 . S
N1064 H1077 0.985 . S
N1065 C1067 1.356 . S
N1065 H1070 0.984 . S
N1065 H1071 0.985 . S
C1066 C1060 1.379 . S
C1066 C1063 1.363 . S
C1066 N1064 1.356 . S
C1067 C1061 1.363 . S
C1067 C1062 1.379 . S
C1067 N1065 1.356 . S
N1068 C1060 1.356 . S
N1068 H1074 0.984 . S
N1068 H1075 0.984 . S
N1069 C1062 1.356 . S
N1069 H1072 0.984 . S
N1069 H1073 0.985 . S
H1070 N1065 0.984 . S
H1071 N1065 0.985 . S
H1072 N1069 0.984 . S
H1073 N1069 0.985 . S
H1074 N1068 0.984 . S
H1075 N1068 0.984 . S
H1076 N1064 0.984 . S
H1077 N1064 0.985 . S
C1078 C1079 1.363 . S
C1078 C1084 1.379 . S
C1078 N1086 1.356 . S
C1079 C1078 1.363 . S
C1079 C1085 1.363 . S
C1080 C1081 1.373 . S
C1080 C1085 1.356 1_455 S
C1080 N1087 1.375 . S
C1081 C1080 1.373 . S
C1081 C1084 1.363 1_455 S
N1082 C1084 1.356 1_455 S
N1082 H1094 0.984 . S
N1082 H1095 0.985 . S
N1083 C1085 1.356 . S
N1083 H1088 0.984 . S
N1083 H1089 0.985 . S
C1084 C1078 1.379 . S
C1084 C1081 1.363 1_655 S
C1084 N1082 1.356 1_655 S
C1085 C1079 1.363 . S
C1085 C1080 1.356 1_655 S
C1085 N1083 1.356 . S
N1086 C1078 1.356 . S
N1086 H1092 0.984 . S
N1086 H1093 0.984 . S
N1087 C1080 1.375 . S
N1087 H1090 0.984 . S
N1087 H1091 0.985 . S
H1088 N1083 0.984 . S
H1089 N1083 0.985 . S
H1090 N1087 0.984 . S
H1091 N1087 0.985 . S
H1092 N1086 0.984 . S
H1093 N1086 0.984 . S
H1094 N1082 0.984 . S
H1095 N1082 0.985 . S
C1096 C1097 1.363 . S
C1096 C1102 1.379 . S
C1096 N1104 1.356 . S
C1097 C1096 1.363 . S
C1097 C1103 1.363 . S
C1098 C1099 1.363 . S
C1098 C1103 1.379 . S
C1098 N1105 1.356 . S
C1099 C1098 1.363 . S
C1099 C1102 1.363 . S
N1100 C1102 1.356 . S
N1100 H1112 0.984 . S
N1100 H1113 0.985 . S
N1101 C1103 1.356 . S
N1101 H1106 0.984 . S
N1101 H1107 0.985 . S
C1102 C1096 1.379 . S
C1102 C1099 1.363 . S
C1102 N1100 1.356 . S
C1103 C1097 1.363 . S
C1103 C1098 1.379 . S
C1103 N1101 1.356 . S
N1104 C1096 1.356 . S
N1104 H1110 0.984 . S
N1104 H1111 0.984 . S
N1105 C1098 1.356 . S
N1105 H1108 0.984 . S
N1105 H1109 0.985 . S
H1106 N1101 0.984 . S
H1107 N1101 0.985 . S
H1108 N1105 0.984 . S
H1109 N1105 0.985 . S
H1110 N1104 0.984 . S
H1111 N1104 0.984 . S
H1112 N1100 0.984 . S
H1113 N1100 0.985 . S
C1114 C1115 1.370 . S
C1114 C1120 1.363 1_455 S
C1114 N1122 1.369 . S
C1115 C1114 1.370 . S
C1115 C1121 1.363 1_455 S
C1116 C1117 1.363 . S
C1116 C1121 1.379 . S
C1116 N1123 1.356 . S
C1117 C1116 1.363 . S
C1117 C1120 1.363 . S
N1118 C1120 1.356 . S
N1118 H1130 0.984 . S
N1118 H1131 0.985 . S
N1119 C1121 1.356 1_455 S
N1119 H1124 0.984 . S
N1119 H1125 0.985 . S
C1120 C1114 1.363 1_655 S
C1120 C1117 1.363 . S
C1120 N1118 1.356 . S
C1121 C1115 1.363 1_655 S
C1121 C1116 1.379 . S
C1121 N1119 1.356 1_655 S
N1122 C1114 1.369 . S
N1122 H1128 0.984 . S
N1122 H1129 0.984 . S
N1123 C1116 1.356 . S
N1123 H1126 0.984 . S
N1123 H1127 0.985 . S
H1124 N1119 0.984 . S
H1125 N1119 0.985 . S
H1126 N1123 0.984 . S
H1127 N1123 0.985 . S
H1128 N1122 0.984 . S
H1129 N1122 0.984 . S
H1130 N1118 0.984 . S
H1131 N1118 0.985 . S
C1132 C1133 1.363 . S
C1132 C1138 1.379 . S
C1132 N1140 1.356 . S
C1133 C1132 1.363 . S
C1133 C1139 1.363 . S
C1134 C1135 1.363 . S
C1134 C1139 1.379 . S
C1134 N1141 1.356 . S
C1135 C1134 1.363 . S
C1135 C1138 1.363 . S
N1136 C1138 1.356 . S
N1136 H1148 0.984 . S
N1136 H1149 0.985 . S
N1137 C1139 1.356 . S
N1137 H1142 0.984 . S
N1137 H1143 0.985 . S
C1138 C1132 1.379 . S
C1138 C1135 1.363 . S
C1138 N1136 1.356 . S
C1139 C1133 1.363 . S
C1139 C1134 1.379 . S
C1139 N1137 1.356 . S
N1140 C1132 1.356 . S
N1140 H1146 0.984 . S
N1140 H1147 0.984 . S
N1141 C1134 1.356 . S
N1141 H1144 0.984 . S
N1141 H1145 0.985 . S
H1142 N1137 0.984 . S
H1143 N1137 0.985 . S
H1144 N1141 0.984 . S
H1145 N1141 0.985 . S
H1146 N1140 0.984 . S
H1147 N1140 0.984 . S
H1148 N1136 0.984 . S
H1149 N1136 0.985 . S
C1150 C1151 1.363 . S
C1150 C1156 1.379 . S
C1150 N1158 1.356 . S
C1151 C1150 1.363 . S
C1151 C1157 1.363 . S
C1152 C1153 1.363 . S
C1152 C1157 1.379 . S
C1152 N1159 1.356 . S
C1153 C1152 1.363 . S
C1153 C1156 1.363 . S
N1154 C1156 1.356 . S
N1154 H1166 0.984 . S
N1154 H1167 0.985 . S
N1155 C1157 1.356 . S
N1155 H1160 0.984 . S
N1155 H1161 0.985 . S
C1156 C1150 1.379 . S
C1156 C1153 1.363 . S
C1156 N1154 1.356 . S
C1157 C1151 1.363 . S
C1157 C1152 1.379 . S
C1157 N1155 1.356 . S
N1158 C1150 1.356 . S
N1158 H1164 0.984 . S
N1158 H1165 0.984 . S
N1159 C1152 1.356 . S
N1159 H1162 0.984 . S
N1159 H1163 0.985 . S
H1160 N1155 0.984 . S
H1161 N1155 0.985 . S
H1162 N1159 0.984 . S
H1163 N1159 0.985 . S
H1164 N1158 0.984 . S
H1165 N1158 0.984 . S
H1166 N1154 0.984 . S
H1167 N1154 0.985 . S
C1168 C1169 1.363 . S
C1168 C1174 1.379 . S
C1168 N1176 1.356 . S
C1169 C1168 1.363 . S
C1169 C1175 1.363 . S
C1170 C1171 1.363 . S
C1170 C1175 1.379 . S
C1170 N1177 1.356 . S
C1171 C1170 1.363 . S
C1171 C1174 1.363 . S
N1172 C1174 1.356 . S
N1172 H1184 0.984 . S
N1172 H1185 0.985 . S
N1173 C1175 1.356 . S
N1173 H1178 0.984 . S
N1173 H1179 0.985 . S
C1174 C1168 1.379 . S
C1174 C1171 1.363 . S
C1174 N1172 1.356 . S
C1175 C1169 1.363 . S
C1175 C1170 1.379 . S
C1175 N1173 1.356 . S
N1176 C1168 1.356 . S
N1176 H1182 0.984 . S
N1176 H1183 0.984 . S
N1177 C1170 1.356 . S
N1177 H1180 0.984 . S
N1177 H1181 0.985 . S
H1178 N1173 0.984 . S
H1179 N1173 0.985 . S
H1180 N1177 0.984 . S
H1181 N1177 0.985 . S
H1182 N1176 0.984 . S
H1183 N1176 0.984 . S
H1184 N1172 0.984 . S
H1185 N1172 0.985 . S
C1186 C1187 1.363 . S
C1186 C1192 1.379 . S
C1186 N1194 1.356 . S
C1187 C1186 1.363 . S
C1187 C1193 1.363 . S
C1188 C1189 1.363 . S
C1188 C1193 1.379 . S
C1188 N1195 1.356 . S
C1189 C1188 1.363 . S
C1189 C1192 1.363 . S
N1190 C1192 1.356 . S
N1190 H1202 0.984 . S
N1190 H1203 0.985 . S
N1191 C1193 1.356 . S
N1191 H1196 0.984 . S
N1191 H1197 0.985 . S
C1192 C1186 1.379 . S
C1192 C1189 1.363 . S
C1192 N1190 1.356 . S
C1193 C1187 1.363 . S
C1193 C1188 1.379 . S
C1193 N1191 1.356 . S
N1194 C1186 1.356 . S
N1194 H1200 0.984 . S
N1194 H1201 0.984 . S
N1195 C1188 1.356 . S
N1195 H1198 0.984 . S
N1195 H1199 0.985 . S
H1196 N1191 0.984 . S
H1197 N1191 0.985 . S
H1198 N1195 0.984 . S
H1199 N1195 0.985 . S
H1200 N1194 0.984 . S
H1201 N1194 0.984 . S
H1202 N1190 0.984 . S
H1203 N1190 0.985 . S
C1204 C1205 1.363 . S
C1204 C1210 1.379 . S
C1204 N1212 1.356 . S
C1205 C1204 1.363 . S
C1205 C1211 1.363 . S
C1206 C1207 1.363 . S
C1206 C1211 1.379 . S
C1206 N1213 1.356 . S
C1207 C1206 1.363 . S
C1207 C1210 1.363 . S
N1208 C1210 1.356 . S
N1208 H1220 0.984 . S
N1208 H1221 0.985 . S
N1209 C1211 1.356 . S
N1209 H1214 0.984 . S
N1209 H1215 0.985 . S
C1210 C1204 1.379 . S
C1210 C1207 1.363 . S
C1210 N1208 1.356 . S
C1211 C1205 1.363 . S
C1211 C1206 1.379 . S
C1211 N1209 1.356 . S
N1212 C1204 1.356 . S
N1212 H1218 0.984 . S
N1212 H1219 0.984 . S
N1213 C1206 1.356 . S
N1213 H1216 0.984 . S
N1213 H1217 0.985 . S
H1214 N1209 0.984 . S
H1215 N1209 0.985 . S
H1216 N1213 0.984 . S
H1217 N1213 0.985 . S
H1218 N1212 0.984 . S
H1219 N1212 0.984 . S
H1220 N1208 0.984 . S
H1221 N1208 0.985 . S
C1222 C1223 1.363 . S
C1222 C1228 1.379 . S
C1222 N1230 1.356 . S
C1223 C1222 1.363 . S
C1223 C1229 1.363 . S
C1224 C1225 1.354 1_455 S
C1224 C1229 1.397 . S
C1224 N1231 1.342 1_455 S
C1225 C1224 1.354 1_655 S
C1225 C1228 1.363 1_655 S
N1226 C1228 1.356 1_655 S
N1226 H1238 0.984 . S
N1226 H1239 0.985 . S
N1227 C1229 1.356 . S
N1227 H1232 0.984 . S
N1227 H1233 0.985 . S
C1228 C1222 1.379 . S
C1228 C1225 1.363 1_455 S
C1228 N1226 1.356 1_455 S
C1229 C1223 1.363 . S
C1229 C1224 1.397 . S
C1229 N1227 1.356 . S
N1230 C1222 1.356 . S
N1230 H1236 0.984 . S
N1230 H1237 0.984 . S
N1231 C1224 1.342 1_655 S
N1231 H1234 0.984 . S
N1231 H1235 0.985 . S
H1232 N1227 0.984 . S
H1233 N1227 0.985 . S
H1234 N1231 0.984 . S
H1235 N1231 0.985 . S
H1236 N1230 0.984 . S
H1237 N1230 0.984 . S
H1238 N1226 0.984 . S
H1239 N1226 0.985 . S
C1240 C1241 1.363 . S
C1240 C1246 1.379 . S
C1240 N1248 1.356 . S
C1241 C1240 1.363 . S
C1241 C1247 1.363 . S
C1242 C1243 1.363 . S
C1242 C1247 1.379 . S
C1242 N1249 1.356 . S
C1243 C1242 1.363 . S
C1243 C1246 1.363 . S
N1244 C1246 1.356 . S
N1244 H1256 0.984 . S
N1244 H1257 0.985 . S
N1245 C1247 1.356 . S
N1245 H1250 0.984 . S
N1245 H1251 0.985 . S
C1246 C1240 1.379 . S
C1246 C1243 1.363 . S
C1246 N1244 1.356 . S
C1247 C1241 1.363 . S
C1247 C1242 1.379 . S
C1247 N1245 1.356 . S
N1248 C1240 1.356 . S
N1248 H1254 0.984 . S
N1248 H1255 0.984 . S
N1249 C1242 1.356 . S
N1249 H1252 0.984 . S
N1249 H1253 0.985 . S
H1250 N1245 0.984 . S
H1251 N1245 0.985 . S
H1252 N1249 0.984 . S
H1253 N1249 0.985 . S
H1254 N1248 0.984 . S
H1255 N1248 0.984 . S
H1256 N1244 0.984 . S
H1257 N1244 0.985 . S
C1258 C1259 1.356 1_455 S
C1258 C1264 1.394 . S
C1258 N1266 1.345 1_455 S
C1259 C1258 1.356 1_655 S
C1259 C1265 1.363 1_655 S
C1260 C1261 1.363 . S
C1260 C1265 1.379 . S
C1260 N1267 1.356 . S
C1261 C1260 1.363 . S
C1261 C1264 1.363 . S
N1262 C1264 1.356 . S
N1262 H1274 0.984 . S
N1262 H1275 0.985 . S
N1263 C1265 1.356 1_655 S
N1263 H1268 0.984 . S
N1263 H1269 0.985 . S
C1264 C1258 1.394 . S
C1264 C1261 1.363 . S
C1264 N1262 1.356 . S
C1265 C1259 1.363 1_455 S
C1265 C1260 1.379 . S
C1265 N1263 1.356 1_455 S
N1266 C1258 1.345 1_655 S
N1266 H1272 0.984 . S
N1266 H1273 0.984 . S
N1267 C1260 1.356 . S
N1267 H1270 0.984 . S
N1267 H1271 0.985 . S
H1268 N1263 0.984 . S
H1269 N1263 0.985 . S
H1270 N1267 0.984 . S
H1271 N1267 0.985 . S
H1272 N1266 0.984 . S
H1273 N1266 0.984 . S
H1274 N1262 0.984 . S
H1275 N1262 0.985 . S
C1276 C1277 1.363 . S
C1276 C1282 1.379 . S
C1276 N1284 1.356 . S
C1277 C1276 1.363 . S
C1277 C1283 1.363 . S
C1278 C1279 1.363 . S
C1278 C1283 1.379 . S
C1278 N1285 1.356 . S
C1279 C1278 1.363 . S
C1279 C1282 1.363 . S
N1280 C1282 1.356 . S
N1280 H1292 0.984 . S
N1280 H1293 0.985 . S
N1281 C1283 1.356 . S
N1281 H1286 0.984 . S
N1281 H1287 0.985 . S
C1282 C1276 1.379 . S
C1282 C1279 1.363 . S
C1282 N1280 1.356 . S
C1283 C1277 1.363 . S
C1283 C1278 1.379 . S
C1283 N1281 1.356 . S
N1284 C1276 1.356 . S
N1284 H1290 0.984 . S
N1284 H1291 0.984 . S
N1285 C1278 1.356 . S
N1285 H1288 0.984 . S
N1285 H1289 0.985 . S
H1286 N1281 0.984 . S
H1287 N1281 0.985 . S
H1288 N1285 0.984 . S
H1289 N1285 0.985 . S
H1290 N1284 0.984 . S
H1291 N1284 0.984 . S
H1292 N1280 0.984 . S
H1293 N1280 0.985 . S
C1294 C1295 1.363 . S
C1294 C1300 1.379 . S
C1294 N1302 1.356 . S
C1295 C1294 1.363 . S
C1295 C1301 1.363 . S
C1296 C1297 1.363 . S
C1296 C1301 1.379 . S
C1296 N1303 1.356 . S
C1297 C1296 1.363 . S
C1297 C1300 1.363 . S
N1298 C1300 1.356 . S
N1298 H1310 0.984 . S
N1298 H1311 0.985 . S
N1299 C1301 1.356 . S
N1299 H1304 0.984 . S
N1299 H1305 0.985 . S
C1300 C1294 1.379 . S
C1300 C1297 1.363 . S
C1300 N1298 1.356 . S
C1301 C1295 1.363 . S
C1301 C1296 1.379 . S
C1301 N1299 1.356 . S
N1302 C1294 1.356 . S
N1302 H1308 0.984 . S
N1302 H1309 0.984 . S
N1303 C1296 1.356 . S
N1303 H1306 0.984 . S
N1303 H1307 0.985 . S
H1304 N1299 0.984 . S
H1305 N1299 0.985 . S
H1306 N1303 0.984 . S
H1307 N1303 0.985 . S
H1308 N1302 0.984 . S
H1309 N1302 0.984 . S
H1310 N1298 0.984 . S
H1311 N1298 0.985 . S
C1312 C1313 1.363 . S
C1312 C1318 1.379 . S
C1312 N1320 1.356 . S
C1313 C1312 1.363 . S
C1313 C1319 1.363 . S
C1314 C1315 1.363 . S
C1314 C1319 1.379 . S
C1314 N1321 1.356 . S
C1315 C1314 1.363 . S
C1315 C1318 1.363 . S
N1316 C1318 1.356 . S
N1316 H1328 0.984 . S
N1316 H1329 0.985 . S
N1317 C1319 1.356 . S
N1317 H1322 0.984 . S
N1317 H1323 0.985 . S
C1318 C1312 1.379 . S
C1318 C1315 1.363 . S
C1318 N1316 1.356 . S
C1319 C1313 1.363 . S
C1319 C1314 1.379 . S
C1319 N1317 1.356 . S
N1320 C1312 1.356 . S
N1320 H1326 0.984 . S
N1320 H1327 0.984 . S
N1321 C1314 1.356 . S
N1321 H1324 0.984 . S
N1321 H1325 0.985 . S
H1322 N1317 0.984 . S
H1323 N1317 0.985 . S
H1324 N1321 0.984 . S
H1325 N1321 0.985 . S
H1326 N1320 0.984 . S
H1327 N1320 0.984 . S
H1328 N1316 0.984 . S
H1329 N1316 0.985 . S
C1330 C1331 1.363 . S
C1330 C1336 1.379 . S
C1330 N1338 1.356 . S
C1331 C1330 1.363 . S
C1331 C1337 1.363 . S
C1332 C1333 1.363 . S
C1332 C1337 1.379 . S
C1332 N1339 1.356 . S
C1333 C1332 1.363 . S
C1333 C1336 1.363 . S
N1334 C1336 1.356 . S
N1334 H1346 0.984 . S
N1334 H1347 0.985 . S
N1335 C1337 1.356 . S
N1335 H1340 0.984 . S
N1335 H1341 0.985 . S
C1336 C1330 1.379 . S
C1336 C1333 1.363 . S
C1336 N1334 1.356 . S
C1337 C1331 1.363 . S
C1337 C1332 1.379 . S
C1337 N1335 1.356 . S
N1338 C1330 1.356 . S
N1338 H1344 0.984 . S
N1338 H1345 0.984 . S
N1339 C1332 1.356 . S
N1339 H1342 0.984 . S
N1339 H1343 0.985 . S
H1340 N1335 0.984 . S
H1341 N1335 0.985 . S
H1342 N1339 0.984 . S
H1343 N1339 0.985 . S
H1344 N1338 0.984 . S
H1345 N1338 0.984 . S
H1346 N1334 0.984 . S
H1347 N1334 0.985 . S
C1348 C1349 1.363 . S
C1348 C1354 1.379 . S
C1348 N1356 1.356 . S
C1349 C1348 1.363 . S
C1349 C1355 1.363 . S
C1350 C1351 1.363 . S
C1350 C1355 1.379 . S
C1350 N1357 1.356 . S
C1351 C1350 1.363 . S
C1351 C1354 1.363 . S
N1352 C1354 1.356 . S
N1352 H1364 0.984 . S
N1352 H1365 0.985 . S
N1353 C1355 1.356 . S
N1353 H1358 0.984 . S
N1353 H1359 0.985 . S
C1354 C1348 1.379 . S
C1354 C1351 1.363 . S
C1354 N1352 1.356 . S
C1355 C1349 1.363 . S
C1355 C1350 1.379 . S
C1355 N1353 1.356 . S
N1356 C1348 1.356 . S
N1356 H1362 0.984 . S
N1356 H1363 0.984 . S
N1357 C1350 1.356 . S
N1357 H1360 0.984 . S
N1357 H1361 0.985 . S
H1358 N1353 0.984 . S
H1359 N1353 0.985 . S
H1360 N1357 0.984 . S
H1361 N1357 0.985 . S
H1362 N1356 0.984 . S
H1363 N1356 0.984 . S
H1364 N1352 0.984 . S
H1365 N1352 0.985 . S
C1366 C1367 1.363 . S
C1366 C1372 1.379 . S
C1366 N1374 1.356 . S
C1367 C1366 1.363 . S
C1367 C1373 1.363 . S
C1368 C1369 1.363 . S
C1368 C1373 1.379 . S
C1368 N1375 1.356 . S
C1369 C1368 1.363 . S
C1369 C1372 1.363 . S
N1370 C1372 1.356 . S
N1370 H1382 0.984 . S
N1370 H1383 0.985 . S
N1371 C1373 1.356 . S
N1371 H1376 0.984 . S
N1371 H1377 0.985 . S
C1372 C1366 1.379 . S
C1372 C1369 1.363 . S
C1372 N1370 1.356 . S
C1373 C1367 1.363 . S
C1373 C1368 1.379 . S
C1373 N1371 1.356 . S
N1374 C1366 1.356 . S
N1374 H1380 0.984 . S
N1374 H1381 0.984 . S
N1375 C1368 1.356 . S
N1375 H1378 0.984 . S
N1375 H1379 0.985 . S
H1376 N1371 0.984 . S
H1377 N1371 0.985 . S
H1378 N1375 0.984 . S
H1379 N1375 0.985 . S
H1380 N1374 0.984 . S
H1381 N1374 0.984 . S
H1382 N1370 0.984 . S
H1383 N1370 0.985 . S
C1384 C1385 1.363 . S
C1384 C1390 1.379 . S
C1384 N1392 1.356 . S
C1385 C1384 1.363 . S
C1385 C1391 1.363 . S
C1386 C1387 1.363 . S
C1386 C1391 1.379 . S
C1386 N1393 1.356 . S
C1387 C1386 1.363 . S
C1387 C1390 1.363 . S
N1388 C1390 1.356 . S
N1388 H1400 0.984 . S
N1388 H1401 0.985 . S
N1389 C1391 1.356 . S
N1389 H1394 0.984 . S
N1389 H1395 0.985 . S
C1390 C1384 1.379 . S
C1390 C1387 1.363 . S
C1390 N1388 1.356 . S
C1391 C1385 1.363 . S
C1391 C1386 1.379 . S
C1391 N1389 1.356 . S
N1392 C1384 1.356 . S
N1392 H1398 0.984 . S
N1392 H1399 0.984 . S
N1393 C1386 1.356 . S
N1393 H1396 0.984 . S
N1393 H1397 0.985 . S
H1394 N1389 0.984 . S
H1395 N1389 0.985 . S
H1396 N1393 0.984 . S
H1397 N1393 0.985 . S
H1398 N1392 0.984 . S
H1399 N1392 0.984 . S
H1400 N1388 0.984 . S
H1401 N1388 0.985 . S
C1402 C1403 1.363 . S
C1402 C1408 1.379 . S
C1402 N1410 1.356 . S
C1403 C1402 1.363 . S
C1403 C1409 1.363 . S
C1404 C1405 1.363 . S
C1404 C1409 1.379 . S
C1404 N1411 1.356 . S
C1405 C1404 1.363 . S
C1405 C1408 1.363 . S
N1406 C1408 1.356 . S
N1406 H1418 0.984 . S
N1406 H1419 0.985 . S
N1407 C1409 1.356 . S
N1407 H1412 0.984 . S
N1407 H1413 0.985 . S
C1408 C1402 1.379 . S
C1408 C1405 1.363 . S
C1408 N1406 1.356 . S
C1409 C1403 1.363 . S
C1409 C1404 1.379 . S
C1409 N1407 1.356 . S
N1410 C1402 1.356 . S
N1410 H1416 0.984 . S
N1410 H1417 0.984 . S
N1411 C1404 1.356 . S
N1411 H1414 0.984 . S
N1411 H1415 0.985 . S
H1412 N1407 0.984 . S
H1413 N1407 0.985 . S
H1414 N1411 0.984 . S
H1415 N1411 0.985 . S
H1416 N1410 0.984 . S
H1417 N1410 0.984 . S
H1418 N1406 0.984 . S
H1419 N1406 0.985 . S
C1420 C1421 1.363 . S
C1420 C1426 1.379 . S
C1420 N1428 1.356 . S
C1421 C1420 1.363 . S
C1421 C1427 1.363 . S
C1422 C1423 1.363 . S
C1422 C1427 1.379 . S
C1422 N1429 1.356 . S
C1423 C1422 1.363 . S
C1423 C1426 1.363 . S
N1424 C1426 1.356 . S
N1424 H1436 0.984 . S
N1424 H1437 0.985 . S
N1425 C1427 1.356 . S
N1425 H1430 0.984 . S
N1425 H1431 0.985 . S
C1426 C1420 1.379 . S
C1426 C1423 1.363 . S
C1426 N1424 1.356 . S
C1427 C1421 1.363 . S
C1427 C1422 1.379 . S
C1427 N1425 1.356 . S
N1428 C1420 1.356 . S
N1428 H1434 0.984 . S
N1428 H1435 0.984 . S
N1429 C1422 1.356 . S
N1429 H1432 0.984 . S
N1429 H1433 0.985 . S
H1430 N1425 0.984 . S
H1431 N1425 0.985 . S
H1432 N1429 0.984 . S
H1433 N1429 0.985 . S
H1434 N1428 0.984 . S
H1435 N1428 0.984 . S
H1436 N1424 0.984 . S
H1437 N1424 0.985 . S
C1438 C1439 1.363 . S
C1438 C1444 1.379 . S
C1438 N1446 1.356 . S
C1439 C1438 1.363 . S
C1439 C1445 1.363 . S
C1440 C1441 1.363 . S
C1440 C1445 1.379 . S
C1440 N1447 1.356 . S
C1441 C1440 1.363 . S
C1441 C1444 1.363 . S
N1442 C1444 1.356 . S
N1442 H1454 0.984 . S
N1442 H1455 0.985 . S
N1443 C1445 1.356 . S
N1443 H1448 0.984 . S
N1443 H1449 0.985 . S
C1444 C1438 1.379 . S
C1444 C1441 1.363 . S
C1444 N1442 1.356 . S
C1445 C1439 1.363 . S
C1445 C1440 1.379 . S
C1445 N1443 1.356 . S
N1446 C1438 1.356 . S
N1446 H1452 0.984 . S
N1446 H1453 0.984 . S
N1447 C1440 1.356 . S
N1447 H1450 0.984 . S
N1447 H1451 0.985 . S
H1448 N1443 0.984 . S
H1449 N1443 0.985 . S
H1450 N1447 0.984 . S
H1451 N1447 0.985 . S
H1452 N1446 0.984 . S
H1453 N1446 0.984 . S
H1454 N1442 0.984 . S
H1455 N1442 0.985 . S
C1456 C1457 1.363 . S
C1456 C1462 1.379 . S
C1456 N1464 1.356 . S
C1457 C1456 1.363 . S
C1457 C1463 1.363 . S
C1458 C1459 1.363 . S
C1458 C1463 1.379 . S
C1458 N1465 1.356 . S
C1459 C1458 1.363 . S
C1459 C1462 1.363 . S
N1460 C1462 1.356 . S
N1460 H1472 0.984 . S
N1460 H1473 0.985 . S
N1461 C1463 1.356 . S
N1461 H1466 0.984 . S
N1461 H1467 0.985 . S
C1462 C1456 1.379 . S
C1462 C1459 1.363 . S
C1462 N1460 1.356 . S
C1463 C1457 1.363 . S
C1463 C1458 1.379 . S
C1463 N1461 1.356 . S
N1464 C1456 1.356 . S
N1464 H1470 0.984 . S
N1464 H1471 0.984 . S
N1465 C1458 1.356 . S
N1465 H1468 0.984 . S
N1465 H1469 0.985 . S
H1466 N1461 0.984 . S
H1467 N1461 0.985 . S
H1468 N1465 0.984 . S
H1469 N1465 0.985 . S
H1470 N1464 0.984 . S
H1471 N1464 0.984 . S
H1472 N1460 0.984 . S
H1473 N1460 0.985 . S
C1474 C1475 1.363 . S
C1474 C1480 1.379 . S
C1474 N1482 1.356 . S
C1475 C1474 1.363 . S
C1475 C1481 1.363 . S
C1476 C1477 1.363 . S
C1476 C1481 1.379 . S
C1476 N1483 1.356 . S
C1477 C1476 1.363 . S
C1477 C1480 1.363 . S
N1478 C1480 1.356 . S
N1478 H1490 0.984 . S
N1478 H1491 0.985 . S
N1479 C1481 1.356 . S
N1479 H1484 0.984 . S
N1479 H1485 0.985 . S
C1480 C1474 1.379 . S
C1480 C1477 1.363 . S
C1480 N1478 1.356 . S
C1481 C1475 1.363 . S
C1481 C1476 1.379 . S
C1481 N1479 1.356 . S
N1482 C1474 1.356 . S
N1482 H1488 0.984 . S
N1482 H1489 0.984 . S
N1483 C1476 1.356 . S
N1483 H1486 0.984 . S
N1483 H1487 0.985 . S
H1484 N1479 0.984 . S
H1485 N1479 0.985 . S
H1486 N1483 0.984 . S
H1487 N1483 0.985 . S
H1488 N1482 0.984 . S
H1489 N1482 0.984 . S
H1490 N1478 0.984 . S
H1491 N1478 0.985 . S
C1492 C1493 1.363 . S
C1492 C1498 1.379 . S
C1492 N1500 1.356 . S
C1493 C1492 1.363 . S
C1493 C1499 1.363 . S
C1494 C1495 1.363 . S
C1494 C1499 1.379 . S
C1494 N1501 1.356 . S
C1495 C1494 1.363 . S
C1495 C1498 1.363 . S
N1496 C1498 1.356 . S
N1496 H1508 0.984 . S
N1496 H1509 0.985 . S
N1497 C1499 1.356 . S
N1497 H1502 0.984 . S
N1497 H1503 0.985 . S
C1498 C1492 1.379 . S
C1498 C1495 1.363 . S
C1498 N1496 1.356 . S
C1499 C1493 1.363 . S
C1499 C1494 1.379 . S
C1499 N1497 1.356 . S
N1500 C1492 1.356 . S
N1500 H1506 0.984 . S
N1500 H1507 0.984 . S
N1501 C1494 1.356 . S
N1501 H1504 0.984 . S
N1501 H1505 0.985 . S
H1502 N1497 0.984 . S
H1503 N1497 0.985 . S
H1504 N1501 0.984 . S
H1505 N1501 0.985 . S
H1506 N1500 0.984 . S
H1507 N1500 0.984 . S
H1508 N1496 0.984 . S
H1509 N1496 0.985 . S
C1510 C1511 1.363 . S
C1510 C1516 1.379 . S
C1510 N1518 1.356 . S
C1511 C1510 1.363 . S
C1511 C1517 1.363 . S
C1512 C1513 1.363 . S
C1512 C1517 1.379 . S
C1512 N1519 1.356 . S
C1513 C1512 1.363 . S
C1513 C1516 1.363 . S
N1514 C1516 1.356 . S
N1514 H1526 0.984 . S
N1514 H1527 0.985 . S
N1515 C1517 1.356 . S
N1515 H1520 0.984 . S
N1515 H1521 0.985 . S
C1516 C1510 1.379 . S
C1516 C1513 1.363 . S
C1516 N1514 1.356 . S
C1517 C1511 1.363 . S
C1517 C1512 1.379 . S
C1517 N1515 1.356 . S
N1518 C1510 1.356 . S
N1518 H1524 0.984 . S
N1518 H1525 0.984 . S
N1519 C1512 1.356 . S
N1519 H1522 0.984 . S
N1519 H1523 0.985 . S
H1520 N1515 0.984 . S
H1521 N1515 0.985 . S
H1522 N1519 0.984 . S
H1523 N1519 0.985 . S
H1524 N1518 0.984 . S
H1525 N1518 0.984 . S
H1526 N1514 0.984 . S
H1527 N1514 0.985 . S
C1528 C1529 1.363 . S
C1528 C1534 1.379 . S
C1528 N1536 1.356 . S
C1529 C1528 1.363 . S
C1529 C1535 1.363 . S
C1530 C1531 1.363 . S
C1530 C1535 1.379 . S
C1530 N1537 1.356 . S
C1531 C1530 1.363 . S
C1531 C1534 1.363 . S
N1532 C1534 1.356 . S
N1532 H1544 0.984 . S
N1532 H1545 0.985 . S
N1533 C1535 1.356 . S
N1533 H1538 0.984 . S
N1533 H1539 0.985 . S
C1534 C1528 1.379 . S
C1534 C1531 1.363 . S
C1534 N1532 1.356 . S
C1535 C1529 1.363 . S
C1535 C1530 1.379 . S
C1535 N1533 1.356 . S
N1536 C1528 1.356 . S
N1536 H1542 0.984 . S
N1536 H1543 0.984 . S
N1537 C1530 1.356 . S
N1537 H1540 0.984 . S
N1537 H1541 0.985 . S
H1538 N1533 0.984 . S
H1539 N1533 0.985 . S
H1540 N1537 0.984 . S
H1541 N1537 0.985 . S
H1542 N1536 0.984 . S
H1543 N1536 0.984 . S
H1544 N1532 0.984 . S
H1545 N1532 0.985 . S
C1546 C1547 1.363 . S
C1546 C1552 1.379 . S
C1546 N1554 1.356 . S
C1547 C1546 1.363 . S
C1547 C1553 1.363 . S
C1548 C1549 1.363 . S
C1548 C1553 1.379 . S
C1548 N1555 1.356 . S
C1549 C1548 1.363 . S
C1549 C1552 1.363 . S
N1550 C1552 1.356 . S
N1550 H1562 0.984 . S
N1550 H1563 0.985 . S
N1551 C1553 1.356 . S
N1551 H1556 0.984 . S
N1551 H1557 0.985 . S
C1552 C1546 1.379 . S
C1552 C1549 1.363 . S
C1552 N1550 1.356 . S
C1553 C1547 1.363 . S
C1553 C1548 1.379 . S
C1553 N1551 1.356 . S
N1554 C1546 1.356 . S
N1554 H1560 0.984 . S
N1554 H1561 0.984 . S
N1555 C1548 1.356 . S
N1555 H1558 0.984 . S
N1555 H1559 0.985 . S
H1556 N1551 0.984 . S
H1557 N1551 0.985 . S
H1558 N1555 0.984 . S
H1559 N1555 0.985 . S
H1560 N1554 0.984 . S
H1561 N1554 0.984 . S
H1562 N1550 0.984 . S
H1563 N1550 0.985 . S
C1564 C1565 1.363 . S
C1564 C1570 1.379 . S
C1564 N1572 1.356 . S
C1565 C1564 1.363 . S
C1565 C1571 1.363 . S
C1566 C1567 1.363 . S
C1566 C1571 1.379 . S
C1566 N1573 1.356 . S
C1567 C1566 1.363 . S
C1567 C1570 1.363 . S
N1568 C1570 1.356 . S
N1568 H1580 0.984 . S
N1568 H1581 0.985 . S
N1569 C1571 1.356 . S
N1569 H1574 0.984 . S
N1569 H1575 0.985 . S
C1570 C1564 1.379 . S
C1570 C1567 1.363 . S
C1570 N1568 1.356 . S
C1571 C1565 1.363 . S
C1571 C1566 1.379 . S
C1571 N1569 1.356 . S
N1572 C1564 1.356 . S
N1572 H1578 0.984 . S
N1572 H1579 0.984 . S
N1573 C1566 1.356 . S
N1573 H1576 0.984 . S
N1573 H1577 0.985 . S
H1574 N1569 0.984 . S
H1575 N1569 0.985 . S
H1576 N1573 0.984 . S
H1577 N1573 0.985 . S
H1578 N1572 0.984 . S
H1579 N1572 0.984 . S
H1580 N1568 0.984 . S
H1581 N1568 0.985 . S
C1582 C1583 1.363 . S
C1582 C1588 1.379 . S
C1582 N1590 1.356 . S
C1583 C1582 1.363 . S
C1583 C1589 1.363 . S
C1584 C1585 1.363 . S
C1584 C1589 1.379 . S
C1584 N1591 1.356 . S
C1585 C1584 1.363 . S
C1585 C1588 1.363 . S
N1586 C1588 1.356 . S
N1586 H1598 0.984 . S
N1586 H1599 0.985 . S
N1587 C1589 1.356 . S
N1587 H1592 0.984 . S
N1587 H1593 0.985 . S
C1588 C1582 1.379 . S
C1588 C1585 1.363 . S
C1588 N1586 1.356 . S
C1589 C1583 1.363 . S
C1589 C1584 1.379 . S
C1589 N1587 1.356 . S
N1590 C1582 1.356 . S
N1590 H1596 0.984 . S
N1590 H1597 0.984 . S
N1591 C1584 1.356 . S
N1591 H1594 0.984 . S
N1591 H1595 0.985 . S
H1592 N1587 0.984 . S
H1593 N1587 0.985 . S
H1594 N1591 0.984 . S
H1595 N1591 0.985 . S
H1596 N1590 0.984 . S
H1597 N1590 0.984 . S
H1598 N1586 0.984 . S
H1599 N1586 0.985 . S
C449 C6 1.518 . S
C451 C62 1.518 . S
C467 C20 1.518 . S
C469 C76 1.518 . S
C485 C90 1.518 . S
C487 C34 1.518 . S
C503 C104 1.518 . S
C505 C48 1.518 . S
C521 C118 1.518 . S
C523 C174 1.518 . S
C539 C132 1.518 . S
C541 C188 1.518 . S
C557 C202 1.518 . S
C559 C146 1.518 . S
C575 C160 1.518 . S
C577 C216 1.518 . S
C593 C286 1.518 . S
C595 C230 1.518 . S
C611 C300 1.518 . S
C613 C244 1.518 . S
C629 C258 1.518 . S
C631 C314 1.518 . S
C647 C328 1.518 . S
C649 C272 1.518 . S
C665 C342 1.518 . S
C667 C398 1.518 . S
C683 C412 1.518 . S
C685 C356 1.518 . S
C701 C426 1.518 . S
C703 C370 1.518 . S
C719 C384 1.518 . S
C721 C440 1.518 . S
C737 C9 1.595 . S
C739 C386 1.653 . S
C755 C120 1.653 . S
C757 C23 1.595 . S
C773 C37 1.595 . S
C775 C358 1.653 . S
C791 C51 1.595 . S
C793 C148 1.653 . S
C809 C414 1.653 . S
C811 C65 1.595 . S
C827 C204 1.653 . S
C829 C79 1.595 . S
C845 C93 1.595 . S
C847 C442 1.653 . S
C863 C107 1.595 . S
C865 C176 1.653 . S
C881 C274 1.653 . S
C883 C121 1.595 . S
C899 C135 1.595 . S
C901 C8 1.653 . S
C917 C246 1.653 . S
C919 C149 1.595 . S
C935 C163 1.595 . S
C937 C36 1.653 . S
C953 C302 1.653 . S
C955 C177 1.595 . S
C971 C191 1.595 . S
C973 C92 1.653 . S
C989 C330 1.653 . S
C991 C205 1.595 . S
C1007 C219 1.595 . S
C1009 C64 1.653 . S
C1025 C162 1.653 . S
C1027 C233 1.595 . S
C1043 C344 1.653 . S
C1045 C247 1.595 . S
C1061 C134 1.653 . S
C1063 C261 1.595 . S
C1079 C275 1.595 . S
C1081 C372 1.653 . S
C1097 C190 1.653 . S
C1099 C289 1.595 . S
C1115 C428 1.653 . S
C1117 C303 1.595 . S
C1133 C218 1.653 . S
C1135 C317 1.595 . S
C1151 C331 1.595 . S
C1153 C400 1.653 . S
C1169 C345 1.595 . S
C1171 C50 1.653 . S
C1187 C359 1.595 . S
C1189 C232 1.653 . S
C1205 C373 1.595 . S
C1207 C22 1.653 . S
C1223 C387 1.595 . S
C1225 C260 1.653 . S
C1241 C401 1.595 . S
C1243 C78 1.653 . S
C1259 C316 1.653 . S
C1261 C415 1.595 . S
C1277 C106 1.653 . S
C1279 C429 1.595 . S
C1295 C443 1.595 . S
C1297 C288 1.653 . S
C1313 C7 1.230 . S
C1315 C105 1.230 . S
C1331 C21 1.230 . S
C1333 C63 1.230 . S
C1349 C35 1.230 . S
C1351 C77 1.230 . S
C1367 C91 1.230 . S
C1369 C49 1.230 . S
C1385 C217 1.230 . S
C1387 C119 1.230 . S
C1403 C175 1.230 . S
C1405 C133 1.230 . S
C1421 C189 1.230 . S
C1423 C147 1.230 . S
C1439 C203 1.230 . S
C1441 C161 1.230 . S
C1457 C231 1.230 . S
C1459 C329 1.230 . S
C1475 C287 1.230 . S
C1477 C245 1.230 . S
C1493 C301 1.230 . S
C1495 C259 1.230 . S
C1511 C315 1.230 . S
C1513 C273 1.230 . S
C1529 C441 1.230 . S
C1531 C343 1.230 . S
C1547 C357 1.230 . S
C1549 C399 1.230 . S
C1565 C371 1.230 . S
C1567 C413 1.230 . S
C1583 C385 1.230 . S
C1585 C427 1.230 . S
