# Generated by pormake.
# Topology umy, (4)-cn, num edge types: 1
# Building blocks:
#     Node 0, Type 0, BuildingBlock: ICAMEG_clean_sbu_1, # of connection points: 4
#     Node 1, Type 0, BuildingBlock: ICAMEG_clean_sbu_1, # of connection points: 4
#     Node 2, Type 0, BuildingBlock: ICAMEG_clean_sbu_1, # of connection points: 4
#     Node 3, Type 0, BuildingBlock: ICAMEG_clean_sbu_1, # of connection points: 4
#     Node 4, Type 0, BuildingBlock: ICAMEG_clean_sbu_1, # of connection points: 4
#     Node 5, Type 0, BuildingBlock: ICAMEG_clean_sbu_1, # of connection points: 4
#     Node 6, Type 0, BuildingBlock: ICAMEG_clean_sbu_1, # of connection points: 4
#     Node 7, Type 0, BuildingBlock: ICAMEG_clean_sbu_1, # of connection points: 4
#     Node 8, Type 0, BuildingBlock: ICAMEG_clean_sbu_1, # of connection points: 4
#     Node 9, Type 0, BuildingBlock: ICAMEG_clean_sbu_1, # of connection points: 4
#     Node 10, Type 0, BuildingBlock: ICAMEG_clean_sbu_1, # of connection points: 4
#     Node 11, Type 0, BuildingBlock: ICAMEG_clean_sbu_1, # of connection points: 4
#     Edge 12, Type (0, 0), BuildingBlock: XUDNAN_clean_linker_2, # of connection points: 2
#     Edge 13, Type (0, 0), BuildingBlock: XUDNAN_clean_linker_2, # of connection points: 2
#     Edge 14, Type (0, 0), BuildingBlock: XUDNAN_clean_linker_2, # of connection points: 2
#     Edge 15, Type (0, 0), BuildingBlock: XUDNAN_clean_linker_2, # of connection points: 2
#     Edge 16, Type (0, 0), BuildingBlock: XUDNAN_clean_linker_2, # of connection points: 2
#     Edge 17, Type (0, 0), BuildingBlock: XUDNAN_clean_linker_2, # of connection points: 2
#     Edge 18, Type (0, 0), BuildingBlock: XUDNAN_clean_linker_2, # of connection points: 2
#     Edge 19, Type (0, 0), BuildingBlock: XUDNAN_clean_linker_2, # of connection points: 2
#     Edge 20, Type (0, 0), BuildingBlock: XUDNAN_clean_linker_2, # of connection points: 2
#     Edge 21, Type (0, 0), BuildingBlock: XUDNAN_clean_linker_2, # of connection points: 2
#     Edge 22, Type (0, 0), BuildingBlock: XUDNAN_clean_linker_2, # of connection points: 2
#     Edge 23, Type (0, 0), BuildingBlock: XUDNAN_clean_linker_2, # of connection points: 2
#     Edge 24, Type (0, 0), BuildingBlock: XUDNAN_clean_linker_2, # of connection points: 2
#     Edge 25, Type (0, 0), BuildingBlock: XUDNAN_clean_linker_2, # of connection points: 2
#     Edge 26, Type (0, 0), BuildingBlock: XUDNAN_clean_linker_2, # of connection points: 2
#     Edge 27, Type (0, 0), BuildingBlock: XUDNAN_clean_linker_2, # of connection points: 2
#     Edge 28, Type (0, 0), BuildingBlock: XUDNAN_clean_linker_2, # of connection points: 2
#     Edge 29, Type (0, 0), BuildingBlock: XUDNAN_clean_linker_2, # of connection points: 2
#     Edge 30, Type (0, 0), BuildingBlock: XUDNAN_clean_linker_2, # of connection points: 2
#     Edge 31, Type (0, 0), BuildingBlock: XUDNAN_clean_linker_2, # of connection points: 2
#     Edge 32, Type (0, 0), BuildingBlock: XUDNAN_clean_linker_2, # of connection points: 2
#     Edge 33, Type (0, 0), BuildingBlock: XUDNAN_clean_linker_2, # of connection points: 2
#     Edge 34, Type (0, 0), BuildingBlock: XUDNAN_clean_linker_2, # of connection points: 2
#     Edge 35, Type (0, 0), BuildingBlock: XUDNAN_clean_linker_2, # of connection points: 2
# Relax obj value: 0.082
# Max RMSD: 0.107
# Mean RMSD: 0.107
data_MOF--net-umy--node1-ICAMEG_clean_sbu_1--edge1-XUDNAN_clean_linker_2
_symmetry_space_group_name_H-M    P1
_symmetry_Int_Tables_number       1
_symmetry_cell_setting            triclinic
loop_
_symmetry_equiv_pos_as_xyz
'x, y, z'
_cell_length_a     40.226467
_cell_length_b     40.280136
_cell_length_c     56.464772
_cell_angle_alpha  90.054168
_cell_angle_beta   89.977614
_cell_angle_gamma 119.97778
loop_
_atom_site_label
_atom_site_type_symbol
_atom_site_fract_x
_atom_site_fract_y
_atom_site_fract_z
_atom_type_partial_charge
Co0 Co 0.07763 0.31798 0.13874 0.0
Co1 Co 0.07042 0.38776 0.16961 0.0
O2 O 0.08375 0.36911 0.1411 0.0
C3 C 0.15441 0.33523 0.12087 0.0
O4 O 0.15789 0.31898 0.14014 0.0
C5 C 0.03232 0.40505 0.13041 0.0
O6 O 0.01873 0.3696 0.12319 0.0
O7 O 0.01776 0.34192 0.17021 0.0
O8 O 0.02968 0.29545 0.15863 0.0
H9 H 0.01687 0.3771 0.2515 0.0
H10 H 0.08678 0.36259 0.09512 0.0
O11 O 0.12516 0.33946 0.11825 0.0
H12 H 0.96232 0.24361 0.08618 0.0
H13 H 0.07795 0.20777 0.0965 0.0
H14 H 0.05889 0.25531 0.17291 0.0
H15 H 1.00227 0.25427 0.1216 0.0
H16 H 0.08442 0.27184 0.09941 0.0
O17 O 0.05251 0.41661 0.14918 0.0
H18 H 0.03477 0.35395 0.216 0.0
H19 H 0.07782 0.46273 0.18326 0.0
H20 H 0.05194 0.19098 0.17077 0.0
H21 H 0.04805 0.35293 0.05923 0.0
H22 H 0.06155 0.16684 0.13235 0.0
H23 H 0.98524 0.29314 0.05463 0.0
O24 O 0.10899 0.32766 0.16806 0.0
H25 H 0.18576 0.49871 0.13212 0.0
H26 H 0.13146 0.4268 0.20613 0.0
H27 H 0.19734 0.48201 0.20609 0.0
H28 H 0.22485 0.5185 0.16891 0.0
H29 H 0.12015 0.443 0.13288 0.0
H30 H 0.06023 0.48702 0.21839 0.0
H31 H 0.02957 0.4441 0.25286 0.0
O32 O 0.08832 0.35986 0.19057 0.0
C33 C 1.00806 0.30661 0.16818 0.0
C34 C 0.03022 0.39609 0.2366 0.0
C35 C 0.0545 0.45775 0.218 0.0
N36 N 0.05722 0.40689 0.19753 0.0
C37 C 0.04045 0.38314 0.21644 0.0
C38 C 0.06427 0.44379 0.19812 0.0
C39 C 0.03732 0.43367 0.23734 0.0
C40 C 0.05966 0.33633 0.09315 0.0
N41 N 0.04679 0.30902 0.11047 0.0
C42 C 0.03778 0.33109 0.07283 0.0
C43 C 1.00251 0.29758 0.07028 0.0
C44 C 0.9896 0.26981 0.08799 0.0
C45 C 1.01224 0.27608 0.10809 0.0
C46 C 0.07367 0.21796 0.11334 0.0
C47 C 0.063 0.24497 0.15612 0.0
C48 C 0.07733 0.25422 0.1151 0.0
N49 N 0.07199 0.2673 0.13631 0.0
C50 C 0.05907 0.20853 0.15502 0.0
C51 C 0.06447 0.19501 0.13346 0.0
C52 C 0.10571 0.34095 0.18789 0.0
C53 C 0.17405 0.48312 0.14845 0.0
C54 C 0.14327 0.44242 0.18985 0.0
C55 C 0.18057 0.47372 0.18996 0.0
C56 C 0.19598 0.49418 0.16909 0.0
N57 N 0.12188 0.43183 0.16955 0.0
C58 C 0.13686 0.45163 0.149 0.0
Co59 Co 0.7563 0.06122 0.3031 0.0
Co60 Co 0.69347 0.08255 0.33207 0.0
O61 O 0.7183 0.07824 0.3031 0.0
C62 C 0.80168 0.13537 0.27637 0.0
O63 O 0.79738 0.15423 0.29398 0.0
C64 C 0.63089 0.04998 0.29442 0.0
O65 O 0.65399 0.04734 0.27914 0.0
O66 O 0.67806 0.02905 0.34143 0.0
O67 O 0.72755 0.02264 0.32859 0.0
H68 H 0.66497 0.0689 0.41934 0.0
H69 H 0.72278 0.06366 0.25679 0.0
O70 O 0.78626 0.09896 0.27731 0.0
H71 H 0.68687 0.92842 0.26813 0.0
H72 H 0.84732 0.02535 0.26513 0.0
H73 H 0.7958 0.04238 0.34057 0.0
H74 H 0.7256 0.97704 0.2981 0.0
H75 H 0.79854 0.04534 0.26537 0.0
O76 O 0.64249 0.06288 0.31528 0.0
H77 H 0.69541 0.06386 0.38267 0.0
H78 H 0.63852 0.11004 0.34282 0.0
H79 H 0.84436 0.02206 0.34113 0.0
H80 H 0.68458 0.01606 0.22615 0.0
H81 H 0.87047 0.01344 0.30321 0.0
H82 H 0.66619 0.94784 0.23178 0.0
O83 O 0.7873 0.09998 0.32759 0.0
H84 H 0.7128 0.18789 0.27592 0.0
H85 H 0.73038 0.15705 0.35778 0.0
H86 H 0.75202 0.22406 0.34701 0.0
H87 H 0.74313 0.23986 0.30583 0.0
H88 H 0.69197 0.12142 0.28736 0.0
H89 H 0.60706 0.11519 0.37902 0.0
H90 H 0.62037 0.09472 0.41765 0.0
O91 O 0.74245 0.10186 0.3503 0.0
C92 C 0.69693 0.01135 0.34065 0.0
C93 C 0.65898 0.07799 0.40262 0.0
C94 C 0.62645 0.10392 0.37999 0.0
N95 N 0.66896 0.08682 0.36064 0.0
C96 C 0.67622 0.07527 0.3818 0.0
C97 C 0.64425 0.10081 0.35953 0.0
C98 C 0.63395 0.09245 0.40166 0.0
C99 C 0.71514 0.03408 0.25929 0.0
N100 N 0.72616 0.02314 0.27931 0.0
C101 C 0.69339 1.00723 0.24191 0.0
C102 C 0.68304 0.96896 0.2451 0.0
C103 C 0.69457 0.95803 0.26551 0.0
C104 C 0.71629 0.98567 0.2825 0.0
C105 C 0.83612 0.02895 0.28177 0.0
C106 C 0.80686 0.03847 0.32399 0.0
C107 C 0.80855 0.04035 0.28202 0.0
N108 N 0.79416 0.0448 0.30297 0.0
C109 C 0.83442 0.02706 0.32442 0.0
C110 C 0.84909 0.02226 0.30314 0.0
C111 C 0.77686 0.10971 0.34643 0.0
C112 C 0.71653 0.18133 0.29397 0.0
C113 C 0.72627 0.16359 0.33983 0.0
C114 C 0.73861 0.20164 0.33384 0.0
C115 C 0.73363 0.21049 0.31074 0.0
N116 N 0.70912 0.13503 0.32335 0.0
C117 C 0.7045 0.14359 0.30061 0.0
Co118 Co 0.70079 0.76773 0.47509 0.0
Co119 Co 0.63062 0.68961 0.50503 0.0
O120 O 0.64961 0.72272 0.47709 0.0
C121 C 0.68445 0.82843 0.45892 0.0
O122 O 0.70328 0.84814 0.4777 0.0
C123 C 0.61496 0.63628 0.4649 0.0
O124 O 0.65059 0.65881 0.45815 0.0
O125 O 0.67685 0.68332 0.5057 0.0
O126 O 0.72346 0.74152 0.49398 0.0
H127 H 0.63982 0.64421 0.58638 0.0
H128 H 0.6556 0.73445 0.43129 0.0
O129 O 0.67891 0.79458 0.45581 0.0
H130 H 0.77398 0.72823 0.42038 0.0
H131 H 0.81113 0.87922 0.43364 0.0
H132 H 0.76393 0.81026 0.50931 0.0
H133 H 0.76402 0.75628 0.45665 0.0
H134 H 0.74677 0.82189 0.43625 0.0
O135 O 0.60269 0.6437 0.48382 0.0
H136 H 0.6635 0.68658 0.55153 0.0
H137 H 0.55567 0.62099 0.51745 0.0
H138 H 0.82854 0.86738 0.50746 0.0
H139 H 0.66457 0.70668 0.39457 0.0
H140 H 0.85251 0.9023 0.46943 0.0
H141 H 0.72405 0.70328 0.38898 0.0
O142 O 0.69155 0.78829 0.50507 0.0
H143 H 0.51962 0.69389 0.46735 0.0
H144 H 0.5902 0.70957 0.54174 0.0
H145 H 0.53437 0.71934 0.54174 0.0
H146 H 0.49857 0.71134 0.50436 0.0
H147 H 0.57589 0.68483 0.46808 0.0
H148 H 0.53084 0.5778 0.55192 0.0
H149 H 0.57302 0.58932 0.58673 0.0
O150 O 0.65772 0.73462 0.52661 0.0
C151 C 0.71223 0.70877 0.50349 0.0
C152 C 0.62115 0.63888 0.57133 0.0
C153 C 0.56002 0.60158 0.55197 0.0
N154 N 0.61107 0.65622 0.53242 0.0
C155 C 0.6344 0.6628 0.55153 0.0
C156 C 0.57429 0.62605 0.53246 0.0
C157 C 0.58369 0.60808 0.5715 0.0
C158 C 0.68174 0.73346 0.42889 0.0
N159 N 0.70927 0.74698 0.44613 0.0
C160 C 0.68658 0.71754 0.4081 0.0
C161 C 0.71992 0.71556 0.40499 0.0
C162 C 0.74791 0.7295 0.42262 0.0
C163 C 0.74204 0.74515 0.4432 0.0
C164 C 0.80102 0.86424 0.45031 0.0
C165 C 0.77419 0.82525 0.49268 0.0
C166 C 0.7646 0.83177 0.4519 0.0
N167 N 0.75162 0.81272 0.47292 0.0
C168 C 0.81079 0.85759 0.49175 0.0
C169 C 0.82422 0.87718 0.4704 0.0
C170 C 0.67733 0.77095 0.52456 0.0
C171 C 0.53491 0.69733 0.48376 0.0
C172 C 0.57487 0.70618 0.52538 0.0
C173 C 0.54322 0.71167 0.52551 0.0
C174 C 0.52314 0.70716 0.50453 0.0
N175 N 0.58615 0.69639 0.50496 0.0
C176 C 0.56672 0.69211 0.4843 0.0
Co177 Co 0.96225 0.70279 0.63515 0.0
Co178 Co 0.93705 0.61696 0.66385 0.0
O179 O 0.94302 0.64727 0.6352 0.0
C180 C 0.88617 0.67556 0.61063 0.0
O181 O 0.86798 0.65247 0.62837 0.0
C182 C 0.97216 0.58824 0.62702 0.0
O183 O 0.97551 0.61415 0.61169 0.0
O184 O 0.98983 0.65511 0.67515 0.0
O185 O 1.00244 0.71126 0.65892 0.0
H186 H 0.94327 0.59897 0.75148 0.0
H187 H 0.95318 0.66446 0.58874 0.0
O188 O 0.92268 0.69613 0.6109 0.0
H189 H 0.09107 0.75932 0.59509 0.0
H190 H 0.99985 0.82965 0.59684 0.0
H191 H 0.98902 0.76308 0.67215 0.0
H192 H 0.04641 0.75269 0.62704 0.0
H193 H 0.97644 0.76022 0.59737 0.0
O194 O 0.9585 0.58681 0.64764 0.0
H195 H 0.95085 0.63566 0.715 0.0
H196 H 0.91042 0.53447 0.67372 0.0
H197 H 0.01281 0.8326 0.67241 0.0
H198 H 0.99676 0.67064 0.55616 0.0
H199 H 0.01832 0.86635 0.63456 0.0
H200 H 0.06629 0.71821 0.55927 0.0
O201 O 0.92692 0.69818 0.66146 0.0
H202 H 0.83647 0.53421 0.60401 0.0
H203 H 0.86076 0.57549 0.68744 0.0
H204 H 0.79479 0.53019 0.67453 0.0
H205 H 0.78228 0.50907 0.63253 0.0
H206 H 0.90179 0.57981 0.61759 0.0
H207 H 0.90292 0.49679 0.70975 0.0
H208 H 0.91918 0.529 0.749 0.0
O209 O 0.91562 0.64511 0.68124 0.0
C210 C 1.01071 0.69134 0.67262 0.0
C211 C 0.93602 0.58458 0.73449 0.0
C212 C 0.91343 0.52726 0.71106 0.0
N213 N 0.93093 0.58724 0.69225 0.0
C214 C 0.94016 0.6052 0.71377 0.0
C215 C 0.9179 0.54878 0.69071 0.0
C216 C 0.92253 0.54534 0.73308 0.0
C217 C 0.98333 0.68549 0.59013 0.0
N218 N 0.99721 0.70807 0.60982 0.0
C219 C 1.0079 0.68874 0.57167 0.0
C220 C 0.04692 0.71539 0.57344 0.0
C221 C 0.06085 0.73842 0.59355 0.0
C222 C 0.03543 0.73436 0.61166 0.0
C223 C 0.99755 0.81527 0.61345 0.0
C224 C 0.99141 0.77756 0.6556 0.0
C225 C 0.98418 0.77591 0.61387 0.0
N226 N 0.98132 0.75757 0.63478 0.0
C227 C 1.00487 0.81693 0.65586 0.0
C228 C 1.00793 0.83585 0.63462 0.0
C229 C 0.91262 0.67495 0.67882 0.0
C230 C 0.84158 0.54299 0.62239 0.0
C231 C 0.85564 0.56653 0.66914 0.0
C232 C 0.81817 0.54079 0.66194 0.0
C233 C 0.81118 0.52895 0.63839 0.0
N234 N 0.88544 0.57997 0.65341 0.0
C235 C 0.87868 0.56868 0.63025 0.0
Co236 Co 0.26167 0.94408 0.80486 0.0
Co237 Co 0.32594 0.92969 0.83823 0.0
O238 O 0.30037 0.92848 0.8085 0.0
C239 C 0.1949 0.87177 0.78682 0.0
O240 O 0.17506 0.87386 0.80466 0.0
C241 C 0.39054 0.97389 0.80384 0.0
O242 O 0.37056 0.98735 0.79343 0.0
O243 O 0.3356 0.98234 0.84592 0.0
O244 O 0.29255 0.99061 0.82495 0.0
H245 H 0.35059 0.95082 0.9257 0.0
H246 H 0.2927 0.92607 0.76211 0.0
O247 O 0.23034 0.8971 0.78454 0.0
H248 H 0.32647 0.06109 0.7529 0.0
H249 H 0.1669 0.96535 0.7585 0.0
H250 H 0.22529 0.97512 0.83684 0.0
H251 H 0.29003 0.02386 0.78778 0.0
H252 H 0.21588 0.94621 0.76385 0.0
O253 O 0.37697 0.95187 0.82176 0.0
H254 H 0.31898 0.94912 0.88797 0.0
H255 H 0.3871 0.91183 0.85181 0.0
H256 H 0.17649 0.99467 0.83228 0.0
H257 H 0.32875 0.9621 0.72681 0.0
H258 H 0.14692 0.9898 0.79288 0.0
H259 H 0.34601 0.03017 0.72209 0.0
O260 O 0.23364 0.91519 0.83394 0.0
H261 H 0.32288 0.82712 0.78594 0.0
H262 H 0.29482 0.85692 0.86565 0.0
H263 H 0.28101 0.79132 0.85665 0.0
H264 H 0.2952 0.7761 0.81656 0.0
H265 H 0.33579 0.89223 0.79563 0.0
H266 H 0.41965 0.91337 0.88913 0.0
H267 H 0.40135 0.93285 0.92645 0.0
O268 O 0.27626 0.90715 0.85533 0.0
C269 C 0.31973 1.00183 0.84005 0.0
C270 C 0.35884 0.94229 0.90956 0.0
C271 C 0.39763 0.92133 0.88903 0.0
N272 N 0.35124 0.93052 0.86768 0.0
C273 C 0.34103 0.94128 0.88814 0.0
C274 C 0.37921 0.92068 0.86792 0.0
C275 C 0.38732 0.93223 0.90996 0.0
C276 C 0.29968 0.95553 0.76004 0.0
N277 N 0.28912 0.97278 0.77695 0.0
C278 C 0.32028 0.97585 0.74007 0.0
C279 C 0.33002 0.01406 0.73746 0.0
C280 C 0.3191 0.03144 0.75476 0.0
C281 C 0.29859 0.01026 0.77451 0.0
C282 C 0.17956 0.96759 0.77576 0.0
C283 C 0.21257 0.97295 0.81964 0.0
C284 C 0.20727 0.95676 0.7789 0.0
N285 N 0.22338 0.9595 0.80065 0.0
C286 C 0.18495 0.98405 0.81717 0.0
C287 C 0.16837 0.98131 0.79506 0.0
C288 C 0.24317 0.90326 0.85222 0.0
C289 C 0.31664 0.83341 0.80349 0.0
C290 C 0.30082 0.85046 0.84812 0.0
C291 C 0.29308 0.8133 0.84316 0.0
C292 C 0.30107 0.80479 0.82067 0.0
N293 N 0.31618 0.87841 0.8312 0.0
C294 C 0.324 0.87026 0.8091 0.0
Co295 Co 0.32677 0.25707 0.97326 0.0
Co296 Co 0.40582 0.327 1.00329 0.0
O297 O 0.38056 0.29722 0.97484 0.0
C298 C 0.33505 0.1922 0.95426 0.0
O299 O 0.31844 0.1731 0.97365 0.0
C300 C 0.42256 0.38541 0.96614 0.0
O301 O 0.38595 0.36628 0.96068 0.0
O302 O 0.36392 0.33915 0.00864 0.0
O303 O 0.31115 0.28727 0.9943 0.0
H304 H 0.4141 0.36761 0.08837 0.0
H305 H 0.37079 0.28874 0.92883 0.0
O306 O 0.34188 0.2266 0.95174 0.0
H307 H 0.26287 0.31382 0.92433 0.0
H308 H 0.20778 0.15621 0.93202 0.0
H309 H 0.26382 0.21934 0.00823 0.0
H310 H 0.26987 0.2801 0.95872 0.0
H311 H 0.2753 0.20804 0.93432 0.0
O312 O 0.43517 0.37415 0.98321 0.0
H313 H 0.38225 0.32897 0.05294 0.0
H314 H 0.48558 0.38943 0.01364 0.0
H315 H 0.19612 0.16778 1.00671 0.0
H316 H 0.36466 0.32217 0.89398 0.0
H317 H 0.1677 0.13581 0.9684 0.0
H318 H 0.31045 0.33503 0.89162 0.0
O319 O 0.33306 0.23171 1.00189 0.0
H320 H 0.5036 0.31276 0.95568 0.0
H321 H 0.44473 0.29722 0.03449 0.0
H322 H 0.49517 0.28018 0.02877 0.0
H323 H 0.52507 0.28808 0.98915 0.0
H324 H 0.45277 0.32907 0.96212 0.0
H325 H 0.51862 0.42882 0.04863 0.0
H326 H 0.48285 0.41803 0.08635 0.0
O327 O 0.37718 0.28083 0.02374 0.0
C328 C 0.32757 0.31873 1.00593 0.0
C329 C 0.42998 0.37269 0.07201 0.0
C330 C 0.48862 0.40706 0.04971 0.0
N331 N 0.43179 0.35719 0.03114 0.0
C332 C 0.41202 0.35094 0.05187 0.0
C333 C 0.46968 0.38477 0.02991 0.0
C334 C 0.46854 0.40096 0.07087 0.0
C335 C 0.3469 0.29386 0.92781 0.0
N336 N 0.32064 0.28236 0.94575 0.0
C337 C 0.34367 0.31296 0.90808 0.0
C338 C 0.31329 0.32023 0.90679 0.0
C339 C 0.28661 0.30838 0.92515 0.0
C340 C 0.29079 0.28942 0.94462 0.0
C341 C 0.21983 0.16995 0.94881 0.0
C342 C 0.2516 0.20568 0.99148 0.0
C343 C 0.25804 0.19928 0.95023 0.0
N344 N 0.27344 0.21677 0.97138 0.0
C345 C 0.21327 0.17645 0.99073 0.0
C346 C 0.19735 0.15852 0.96923 0.0
C347 C 0.35163 0.24577 0.02105 0.0
C348 C 0.49087 0.30931 0.97304 0.0
C349 C 0.4575 0.3006 0.01717 0.0
C350 C 0.48611 0.29098 0.01406 0.0
C351 C 0.50288 0.29542 0.99182 0.0
N352 N 0.446 0.31437 0.99869 0.0
C353 C 0.46217 0.31862 0.97681 0.0
Co354 Co 0.71552 0.95073 0.71356 0.0
Co355 Co 0.63436 0.94235 0.68806 0.0
O356 O 0.66315 0.94092 0.71545 0.0
C357 C 0.67433 0.87557 0.73716 0.0
O358 O 0.64889 0.86634 0.7202 0.0
C359 C 0.59968 0.98824 0.70723 0.0
O360 O 0.60684 1.0072 0.68721 0.0
O361 O 0.67608 0.99555 0.68018 0.0
O362 O 0.72831 0.99102 0.68871 0.0
H363 H 0.61665 0.96977 0.60364 0.0
H364 H 0.68306 0.95158 0.76048 0.0
O365 O 0.70333 0.90939 0.73787 0.0
H366 H 0.79586 0.08057 0.75085 0.0
H367 H 0.83844 0.96666 0.7473 0.0
H368 H 0.77005 0.96438 0.67432 0.0
H369 H 0.7781 0.03165 0.71961 0.0
H370 H 0.77255 0.95602 0.7492 0.0
O371 O 0.60947 0.96287 0.71005 0.0
H372 H 0.65313 0.96815 0.63826 0.0
H373 H 0.55194 0.91911 0.68019 0.0
H374 H 0.83602 0.97547 0.67162 0.0
H375 H 0.69992 0.99951 0.79226 0.0
H376 H 0.87067 0.97664 0.7083 0.0
H377 H 0.75669 0.06454 0.78753 0.0
O378 O 0.70102 0.91234 0.68793 0.0
H379 H 0.54301 0.83689 0.74222 0.0
H380 H 0.5912 0.86978 0.66036 0.0
H381 H 0.54222 0.80333 0.66995 0.0
H382 H 0.51771 0.78652 0.71112 0.0
H383 H 0.59239 0.90288 0.73199 0.0
H384 H 0.51435 0.92022 0.64601 0.0
H385 H 0.54673 0.94571 0.60739 0.0
O386 O 0.65917 0.92125 0.66636 0.0
C387 C 0.71194 1.00723 0.67829 0.0
C388 C 0.60223 0.95869 0.62039 0.0
C389 C 0.5448 0.93084 0.64416 0.0
N390 N 0.60476 0.94375 0.66127 0.0
C391 C 0.62275 0.95775 0.64007 0.0
C392 C 0.56624 0.93029 0.66345 0.0
C393 C 0.56299 0.94515 0.6225 0.0
C394 C 0.70793 0.97975 0.75839 0.0
N395 N 0.72973 0.98877 0.73833 0.0
C396 C 0.71728 1.0068 0.7764 0.0
C397 C 0.74911 0.04329 0.77372 0.0
C398 C 0.7711 0.05232 0.75314 0.0
C399 C 0.76086 0.02455 0.73549 0.0
C400 C 0.82369 0.96633 0.7312 0.0
C401 C 0.78505 0.96518 0.69037 0.0
C402 C 0.78636 0.96027 0.73216 0.0
N403 N 0.76763 0.95997 0.71191 0.0
C404 C 0.82235 0.97133 0.68873 0.0
C405 C 0.84176 0.97193 0.70931 0.0
C406 C 0.68166 0.90768 0.66911 0.0
C407 C 0.55334 0.8439 0.72419 0.0
C408 C 0.58085 0.86273 0.67835 0.0
C409 C 0.55299 0.82504 0.68365 0.0
C410 C 0.53922 0.81564 0.70675 0.0
N411 N 0.59456 0.89035 0.69555 0.0
C412 C 0.58115 0.88131 0.71824 0.0
Co413 Co 0.77256 0.70523 0.87284 0.0
Co414 Co 0.7034 0.62174 0.84549 0.0
O415 O 0.73352 0.65046 0.87316 0.0
C416 C 0.81495 0.66731 0.88994 0.0
O417 O 0.79927 0.64334 0.8722 0.0
C418 C 0.64648 0.59487 0.88645 0.0
O419 O 0.67249 0.61919 0.90114 0.0
O420 O 0.69007 0.6622 0.83839 0.0
O421 O 0.73898 0.71725 0.85256 0.0
H422 H 0.66263 0.60812 0.76027 0.0
H423 H 0.74983 0.66614 0.91949 0.0
O424 O 0.80741 0.69427 0.89294 0.0
H425 H 0.71498 0.76731 0.92278 0.0
H426 H 0.87434 0.82797 0.90992 0.0
H427 H 0.80338 0.76684 0.83661 0.0
H428 H 0.74505 0.75874 0.887 0.0
H429 H 0.825 0.75944 0.90948 0.0
O430 O 0.65475 0.59341 0.86479 0.0
H431 H 0.69973 0.64275 0.79565 0.0
H432 H 0.64285 0.54053 0.83628 0.0
H433 H 0.85211 0.83552 0.83632 0.0
H434 H 0.72037 0.67412 0.95576 0.0
H435 H 0.88804 0.86653 0.87317 0.0
H436 H 0.70257 0.7249 0.95753 0.0
O437 O 0.79699 0.6994 0.8436 0.0
H438 H 0.72492 0.53314 0.89805 0.0
H439 H 0.73016 0.57806 0.81625 0.0
H440 H 0.74946 0.52998 0.82436 0.0
H441 H 0.74677 0.50706 0.86552 0.0
H442 H 0.70652 0.58155 0.8892 0.0
H443 H 0.60481 0.50493 0.8014 0.0
H444 H 0.61476 0.53871 0.76301 0.0
O445 O 0.74988 0.64827 0.82487 0.0
C446 C 0.70786 0.69863 0.84079 0.0
C447 C 0.65812 0.59306 0.77688 0.0
C448 C 0.62563 0.53516 0.79997 0.0
N449 N 0.6737 0.59364 0.81797 0.0
C450 C 0.67913 0.61249 0.79696 0.0
C451 C 0.64716 0.55551 0.81969 0.0
C452 C 0.63124 0.55412 0.77844 0.0
C453 C 0.74251 0.68854 0.92019 0.0
N454 N 0.74909 0.71187 0.90112 0.0
C455 C 0.72567 0.69281 0.94075 0.0
C456 C 0.71563 0.72126 0.94172 0.0
C457 C 0.72253 0.74502 0.92221 0.0
C458 C 0.73938 0.73989 0.90195 0.0
C459 C 0.85885 0.81479 0.89376 0.0
C460 C 0.8187 0.78016 0.85275 0.0
C461 C 0.83095 0.77598 0.89338 0.0
N462 N 0.81116 0.7592 0.87306 0.0
C463 C 0.84635 0.81905 0.85246 0.0
C464 C 0.86651 0.83642 0.87314 0.0
C465 C 0.78388 0.67682 0.82588 0.0
C466 C 0.72596 0.5427 0.88001 0.0
C467 C 0.72894 0.56832 0.8342 0.0
C468 C 0.73984 0.541 0.83869 0.0
C469 C 0.73831 0.52814 0.86177 0.0
N470 N 0.71665 0.58237 0.85215 0.0
C471 C 0.71524 0.56996 0.87485 0.0
Co472 Co 0.06014 0.75685 0.04106 0.0
Co473 Co 0.08478 0.69375 0.01576 0.0
O474 O 0.07832 0.71983 0.04325 0.0
C475 C 0.13405 0.80393 0.06756 0.0
O476 O 0.15276 0.79877 0.05021 0.0
C477 C 0.05035 0.63268 0.05422 0.0
O478 O 0.04768 0.65627 0.06906 0.0
O479 O 0.03183 0.67765 1.00446 0.0
O480 O 0.02231 0.72572 0.01578 0.0
H481 H 0.07789 0.66232 0.92911 0.0
H482 H 0.06322 0.72746 0.08876 0.0
O483 O 0.09765 0.78907 0.06647 0.0
H484 H 0.92704 0.6873 0.07569 0.0
H485 H 0.02112 0.84814 0.07476 0.0
H486 H 0.03841 0.79119 1.00176 0.0
H487 H 0.97553 0.72431 0.04527 0.0
H488 H 0.04375 0.80149 0.07673 0.0
O489 O 0.06388 0.64364 0.03344 0.0
H490 H 0.06997 0.69393 0.96433 0.0
H491 H 0.11268 0.63822 0.00842 0.0
H492 H 0.0153 0.83735 0.999 0.0
H493 H 0.01573 0.69099 0.11981 0.0
H494 H 1.00656 0.86623 0.03569 0.0
H495 H 0.94704 0.67049 0.11333 0.0
O496 O 0.09834 0.78666 0.01593 0.0
H497 H 0.18618 0.71756 0.07647 0.0
H498 H 0.16105 0.72766 0.99215 0.0
H499 H 0.22728 0.75016 1.00536 0.0
H500 H 0.24022 0.74503 0.04781 0.0
H501 H 0.12058 0.69593 0.06256 0.0
H502 H 0.1205 0.60556 0.9737 0.0
H503 H 0.10328 0.61773 0.93368 0.0
O504 O 0.10547 0.74176 0.99673 0.0
C505 C 0.01284 0.69528 1.0039 0.0
C506 C 0.08558 0.65685 0.94645 0.0
C507 C 0.10944 0.62496 0.97148 0.0
N508 N 0.0911 0.66817 0.9884 0.0
C509 C 0.08128 0.67477 0.96646 0.0
C510 C 0.1048 0.64342 0.99109 0.0
C511 C 0.0998 0.63181 0.94903 0.0
C512 C 0.03344 0.71893 0.08587 0.0
N513 N 0.02219 0.72791 0.06517 0.0
C514 C 1.00665 0.69815 0.10349 0.0
C515 C 0.96811 0.68661 0.09983 0.0
C516 C 0.95686 0.69597 0.0787 0.0
C517 C 0.98445 0.71676 0.06147 0.0
C518 C 0.02482 0.83576 0.05865 0.0
C519 C 0.03452 0.80347 0.01782 0.0
C520 C 0.03775 0.80942 0.05965 0.0
N521 N 0.04229 0.79351 0.03938 0.0
C522 C 0.02151 0.82967 0.01614 0.0
C523 C 0.01663 0.84588 0.03673 0.0
C524 C 0.11068 0.77558 0.99856 0.0
C525 C 0.18088 0.71969 0.0579 0.0
C526 C 0.16635 0.72531 0.01064 0.0
C527 C 0.20397 0.73807 0.01802 0.0
C528 C 0.2112 0.73518 0.04182 0.0
N529 N 0.13664 0.70981 0.02645 0.0
C530 C 0.14363 0.70719 0.04986 0.0
Co531 Co 0.30902 0.0671 0.21276 0.0
Co532 Co 0.38335 0.06877 0.18102 0.0
O533 O 0.36172 0.07711 0.21008 0.0
C534 C 0.3541 0.148 0.22928 0.0
O535 O 0.37656 0.15506 0.21084 0.0
C536 C 0.40057 0.02817 0.21875 0.0
O537 O 0.36491 0.01361 0.22588 0.0
O538 O 0.33885 0.01554 0.17725 0.0
O539 O 0.2897 0.01988 0.19277 0.0
H540 H 0.38039 0.02851 0.09642 0.0
H541 H 0.3553 0.07982 0.25607 0.0
O542 O 0.32651 0.11413 0.23295 0.0
H543 H 0.24248 0.95076 0.26522 0.0
H544 H 0.19618 0.06069 0.25568 0.0
H545 H 0.24419 0.04243 0.1792 0.0
H546 H 0.24949 0.98981 0.22994 0.0
H547 H 0.26207 0.07177 0.25219 0.0
O548 O 0.41206 0.04939 0.20042 0.0
H549 H 0.35342 0.03915 0.13295 0.0
H550 H 0.46061 0.0812 0.16784 0.0
H551 H 0.17794 0.03059 0.18196 0.0
H552 H 0.34931 0.04198 0.29179 0.0
H553 H 0.15355 0.03977 0.22041 0.0
H554 H 0.29263 0.97689 0.29648 0.0
O555 O 0.31549 0.09806 0.18382 0.0
H556 H 0.48853 0.17997 0.22533 0.0
H557 H 0.42367 0.13524 0.1482 0.0
H558 H 0.47702 0.20166 0.15222 0.0
H559 H 0.50991 0.2244 0.19099 0.0
H560 H 0.43478 0.11388 0.2206 0.0
H561 H 0.48869 0.07075 0.13172 0.0
H562 H 0.44852 0.04436 0.09565 0.0
O563 O 0.35605 0.0887 0.16116 0.0
C564 C 0.30302 1.00212 0.18088 0.0
C565 C 0.39821 0.04007 0.11201 0.0
C566 C 0.45897 0.06372 0.13184 0.0
N567 N 0.4054 0.0608 0.15251 0.0
C568 C 0.38311 0.0462 0.13275 0.0
C569 C 0.44287 0.06944 0.15227 0.0
C570 C 0.43642 0.04894 0.1116 0.0
C571 C 0.33041 0.05164 0.25809 0.0
N572 N 0.30281 0.03697 0.24091 0.0
C573 C 0.32723 0.0303 0.27831 0.0
C574 C 0.29546 0.99375 0.28091 0.0
C575 C 0.26734 0.97906 0.26336 0.0
C576 C 0.27154 1.0012 0.24336 0.0
C577 C 0.20644 0.05652 0.23884 0.0
C578 C 0.23369 0.0462 0.19604 0.0
C579 C 0.24376 0.06284 0.23674 0.0
N580 N 0.25688 0.0575 0.21555 0.0
C581 C 0.19619 0.03958 0.19747 0.0
C582 C 0.18254 0.04477 0.21904 0.0
C583 C 0.33289 0.10128 0.1643 0.0
C584 C 0.47452 0.17035 0.20832 0.0
C585 C 0.43775 0.14492 0.16515 0.0
C586 C 0.46801 0.18256 0.1673 0.0
C587 C 0.48646 0.19529 0.18906 0.0
N588 N 0.42624 0.1206 0.18412 0.0
C589 C 0.44416 0.1329 0.20551 0.0
Co590 Co 0.26533 0.31552 0.37331 0.0
Co591 Co 0.32969 0.3996 0.34566 0.0
O592 O 0.3034 0.37037 0.37417 0.0
C593 C 0.21979 0.34455 0.39954 0.0
O594 O 0.22358 0.36665 0.38146 0.0
C595 C 0.39015 0.42921 0.38446 0.0
O596 O 0.36669 0.40261 0.39914 0.0
O597 O 0.3462 0.36194 0.33762 0.0
O598 O 0.29459 0.30606 0.34773 0.0
H599 H 0.36404 0.41408 0.25925 0.0
H600 H 0.29743 0.3496 0.4203 0.0
O601 O 0.23503 0.32332 0.39902 0.0
H602 H 0.33294 0.25007 0.40802 0.0
H603 H 0.17273 0.18797 0.4096 0.0
H604 H 0.22701 0.25821 0.33509 0.0
H605 H 0.29562 0.2616 0.37784 0.0
H606 H 0.22133 0.25674 0.41023 0.0
O607 O 0.37942 0.43118 0.36349 0.0
H608 H 0.3315 0.37866 0.2955 0.0
H609 H 0.38441 0.48209 0.33524 0.0
H610 H 0.17883 0.18939 0.33366 0.0
H611 H 0.33424 0.33857 0.45112 0.0
H612 H 0.15131 0.15379 0.37111 0.0
H613 H 0.35242 0.28862 0.44502 0.0
O614 O 0.2354 0.32433 0.34867 0.0
H615 H 0.30625 0.48496 0.40001 0.0
H616 H 0.29375 0.43674 0.31832 0.0
H617 H 0.27087 0.48164 0.32792 0.0
H618 H 0.27718 0.5062 0.369 0.0
H619 H 0.32838 0.43979 0.38971 0.0
H620 H 0.4179 0.51857 0.29945 0.0
H621 H 0.40763 0.48457 0.26108 0.0
O622 O 0.28191 0.36981 0.32631 0.0
C623 C 0.32655 0.32542 0.33689 0.0
C624 C 0.36866 0.42925 0.27584 0.0
C625 C 0.39892 0.48788 0.29842 0.0
N626 N 0.35577 0.42831 0.31743 0.0
C627 C 0.35022 0.40936 0.29642 0.0
C628 C 0.37996 0.46705 0.31863 0.0
C629 C 0.39314 0.46879 0.27689 0.0
C630 C 0.30497 0.32762 0.41758 0.0
N631 N 0.29458 0.30648 0.39721 0.0
C632 C 0.32594 0.3216 0.43507 0.0
C633 C 0.33618 0.29361 0.43162 0.0
C634 C 0.32532 0.27202 0.41084 0.0
C635 C 0.30438 0.27886 0.39374 0.0
C636 C 0.18455 0.20315 0.39317 0.0
C637 C 0.21536 0.24288 0.35147 0.0
C638 C 0.21202 0.24211 0.39341 0.0
N639 N 0.22722 0.26141 0.37272 0.0
C640 C 0.188 0.20393 0.35055 0.0
C641 C 0.17256 0.18399 0.37157 0.0
C642 C 0.24702 0.34413 0.32975 0.0
C643 C 0.30361 0.4747 0.382 0.0
C644 C 0.29672 0.44734 0.33624 0.0
C645 C 0.28369 0.47278 0.34156 0.0
C646 C 0.28723 0.48654 0.36461 0.0
N647 N 0.3131 0.43612 0.35334 0.0
C648 C 0.31636 0.44926 0.37602 0.0
Co649 Co 0.95113 0.24468 0.53725 0.0
Co650 Co 0.94952 0.32149 0.51094 0.0
O651 O 0.93925 0.28639 0.5379 0.0
C652 C 0.8744 0.209 0.56463 0.0
O653 O 0.87148 0.24002 0.56439 0.0
C654 C 0.98487 0.37411 0.55215 0.0
O655 O 0.9999 0.3532 0.55875 0.0
O656 O 1.0041 0.33353 0.50845 0.0
O657 O 0.9998 0.27794 0.51947 0.0
H658 H 0.99824 0.37595 0.42995 0.0
H659 H 0.93723 0.2739 0.58271 0.0
O660 O 0.90281 0.20853 0.55491 0.0
H661 H 0.0631 0.28278 0.59222 0.0
H662 H 0.95925 0.13263 0.57016 0.0
H663 H 0.98107 0.21431 0.50024 0.0
H664 H 0.02617 0.25741 0.55536 0.0
H665 H 0.9456 0.18583 0.57181 0.0
O666 O 0.96463 0.36556 0.53341 0.0
H667 H 0.9847 0.33159 0.46331 0.0
H668 H 0.93455 0.38591 0.50207 0.0
H669 H 0.99556 0.1617 0.49794 0.0
H670 H 0.97271 0.29874 0.61998 0.0
H671 H 0.9846 0.1204 0.53307 0.0
H672 H 0.03629 0.3035 0.62496 0.0
O673 O 0.92231 0.22507 0.50694 0.0
H674 H 0.83121 0.30332 0.55273 0.0
H675 H 0.88626 0.29781 0.47578 0.0
H676 H 0.81849 0.28129 0.47792 0.0
H677 H 0.79056 0.28412 0.5166 0.0
H678 H 0.89874 0.31913 0.54984 0.0
H679 H 0.94765 0.43095 0.46914 0.0
H680 H 0.97968 0.42613 0.43273 0.0
O681 O 0.93453 0.27889 0.48774 0.0
C682 C 0.01812 0.31134 0.51033 0.0
C683 C 0.9843 0.37839 0.44573 0.0
C684 C 0.95595 0.40928 0.46773 0.0
N685 N 0.9591 0.35627 0.48471 0.0
C686 C 0.97658 0.35335 0.4647 0.0
C687 C 0.94875 0.38377 0.48637 0.0
C688 C 0.9739 0.40653 0.4473 0.0
C689 C 0.9644 0.27511 0.58477 0.0
N690 N 0.97922 0.26364 0.56685 0.0
C691 C 0.9846 0.28956 0.60592 0.0
C692 C 0.0203 0.29233 0.60868 0.0
C693 C 0.03537 0.28076 0.59032 0.0
C694 C 0.01437 0.26653 0.56942 0.0
C695 C 0.96421 0.15048 0.55475 0.0
C696 C 0.97652 0.19667 0.51567 0.0
C697 C 0.95642 0.18058 0.55555 0.0
N698 N 0.9628 0.20338 0.53618 0.0
C699 C 0.98465 0.16683 0.51423 0.0
C700 C 0.97845 0.14364 0.53394 0.0
C701 C 0.92201 0.24297 0.48842 0.0
C702 C 0.84307 0.30207 0.53577 0.0
C703 C 0.87429 0.2989 0.4927 0.0
C704 C 0.83591 0.28963 0.49379 0.0
C705 C 0.82027 0.29125 0.51549 0.0
N706 N 0.89648 0.3095 0.51267 0.0
C707 C 0.88133 0.31112 0.53401 0.0
H708 H 0.05438 0.6088 0.09917 0.0
H709 H 0.02606 0.56907 0.02662 0.0
H710 H 0.01361 0.50492 0.03882 0.0
H711 H 0.10609 0.56066 0.11088 0.0
H712 H 0.09085 0.54967 0.14129 0.0
H713 H 0.09355 0.59116 0.12741 0.0
H714 H 0.02229 0.56657 0.13794 0.0
H715 H 0.01939 0.52498 0.15189 0.0
H716 H 0.98613 0.51923 0.1287 0.0
H717 H 1.00613 0.44551 0.05873 0.0
H718 H 1.00883 0.397 0.08415 0.0
H719 H 0.0457 0.47652 0.14329 0.0
C720 C 0.04481 0.58635 0.08597 0.0
C721 C 0.0406 0.59371 0.062 0.0
C722 C 0.02917 0.56394 0.0451 0.0
C723 C 0.02194 0.5274 0.05188 0.0
C724 C 0.02673 0.52114 0.07559 0.0
C725 C 0.03821 0.54988 0.09236 0.0
C726 C 0.04422 0.53655 0.11627 0.0
C727 C 0.08617 0.56096 0.12443 0.0
C728 C 0.01634 0.53685 0.13479 0.0
C729 C 0.03452 0.49597 0.11031 0.0
C730 C 0.02399 0.48745 0.08684 0.0
C731 C 0.01422 0.45184 0.07716 0.0
C732 C 0.01573 0.4244 0.09177 0.0
C733 C 0.02742 0.43286 0.11573 0.0
C734 C 0.0366 0.4691 0.12506 0.0
H735 H 0.60639 0.0543 0.24974 0.0
H736 H 0.56757 0.02623 0.32245 0.0
H737 H 0.50293 0.01304 0.31045 0.0
H738 H 0.55653 0.10483 0.2381 0.0
H739 H 0.54566 0.08931 0.20773 0.0
H740 H 0.5877 0.0931 0.22162 0.0
H741 H 0.56444 0.02214 0.21121 0.0
H742 H 0.52228 0.01814 0.1973 0.0
H743 H 0.51742 0.98538 0.22055 0.0
H744 H 0.44253 1.00376 0.29048 0.0
H745 H 0.39309 1.00478 0.265 0.0
H746 H 0.47256 0.04288 0.20581 0.0
C747 C 0.58409 0.04477 0.26305 0.0
C748 C 0.59182 0.04072 0.28698 0.0
C749 C 0.56219 0.02926 0.304 0.0
C750 C 0.52537 0.02159 0.29733 0.0
C751 C 0.51872 0.02605 0.27361 0.0
C752 C 0.54739 0.03779 0.25678 0.0
C753 C 0.53361 0.04319 0.23285 0.0
C754 C 0.55728 0.08509 0.2246 0.0
C755 C 0.53449 0.01556 0.21439 0.0
C756 C 0.49276 0.03269 0.23884 0.0
C757 C 0.48454 0.02238 0.26236 0.0
C758 C 0.44867 0.01176 0.27203 0.0
C759 C 0.42068 0.01227 0.25738 0.0
C760 C 0.42885 0.02384 0.23339 0.0
C761 C 0.46535 0.03384 0.22406 0.0
H762 H 0.54346 0.57703 0.47652 0.0
H763 H 0.6243 0.62397 0.41822 0.0
H764 H 0.5765 0.57428 0.39162 0.0
H765 H 0.50197 0.47615 0.4594 0.0
H766 H 0.45435 0.46405 0.46869 0.0
H767 H 0.49563 0.50217 0.48331 0.0
H768 H 0.47061 0.54888 0.47421 0.0
H769 H 0.42937 0.511 0.45949 0.0
H770 H 0.46013 0.55504 0.44402 0.0
H771 H 0.51761 0.5232 0.37058 0.0
H772 H 0.454 0.47143 0.35741 0.0
H773 H 0.41281 0.4554 0.42984 0.0
C774 C 0.55132 0.5766 0.45822 0.0
C775 C 0.5877 0.60441 0.44947 0.0
C776 C 0.59676 0.60284 0.42539 0.0
C777 C 0.56974 0.57478 0.41012 0.0
C778 C 0.53395 0.54816 0.41925 0.0
C779 C 0.52489 0.54851 0.44282 0.0
C780 C 0.48422 0.51707 0.44812 0.0
C781 C 0.48405 0.48814 0.46594 0.0
C782 C 0.45964 0.53402 0.45698 0.0
C783 C 0.47154 0.49931 0.42376 0.0
C784 C 0.50058 0.51781 0.40732 0.0
C785 C 0.4949 0.50811 0.38337 0.0
C786 C 0.45865 0.47875 0.37604 0.0
C787 C 0.42865 0.45906 0.39263 0.0
C788 C 0.43542 0.46939 0.41682 0.0
H789 H 0.96798 0.55929 0.58236 0.0
H790 H 0.99333 0.547 0.6554 0.0
H791 H 1.00336 0.49338 0.64383 0.0
H792 H 0.91324 0.4594 0.57075 0.0
H793 H 0.92912 0.46296 0.54053 0.0
H794 H 0.92767 0.50268 0.5541 0.0
H795 H 0.99959 0.54723 0.54423 0.0
H796 H 1.00122 0.50762 0.53057 0.0
H797 H 0.03431 0.53435 0.55401 0.0
H798 H 1.0094 0.43993 0.62424 0.0
H799 H 1.00628 0.3883 0.59887 0.0
H800 H 0.97292 0.43301 0.53917 0.0
C801 C 0.97637 0.54578 0.59583 0.0
C802 C 0.98049 0.55772 0.61973 0.0
C803 C 0.99034 0.53853 0.63696 0.0
C804 C 0.99615 0.50809 0.63054 0.0
C805 C 0.9915 0.49675 0.60686 0.0
C806 C 0.9815 0.51482 0.5898 0.0
C807 C 0.97547 0.49528 0.56594 0.0
C808 C 0.93391 0.47912 0.55733 0.0
C809 C 1.00438 0.52276 0.54761 0.0
C810 C 0.98355 0.46339 0.57223 0.0
C811 C 0.99325 0.46501 0.59584 0.0
C812 C 1.00186 0.43844 0.60572 0.0
C813 C 1.00012 0.40926 0.59115 0.0
C814 C 0.98932 0.40652 0.56704 0.0
C815 C 0.98118 0.4342 0.55754 0.0
H816 H 0.54385 0.00851 0.70227 0.0
H817 H 0.60123 0.97547 0.75433 0.0
H818 H 0.55753 0.9745 0.78529 0.0
H819 H 0.52109 0.06802 0.74239 0.0
H820 H 0.47462 0.05146 0.72918 0.0
H821 H 0.51346 0.05454 0.71156 0.0
H822 H 0.47152 0.98298 0.70016 0.0
H823 H 0.43269 0.97964 0.7178 0.0
H824 H 0.45076 0.94744 0.72323 0.0
H825 H 0.5047 0.9711 0.80976 0.0
H826 H 0.4453 0.96484 0.82642 0.0
H827 H 0.42007 0.99902 0.75893 0.0
C828 C 0.54785 1.00219 0.72033 0.0
C829 C 0.5763 0.99256 0.72597 0.0
C830 C 0.57984 0.98318 0.74965 0.0
C831 C 0.55519 0.98263 0.76738 0.0
C832 C 0.52692 0.99139 0.76119 0.0
C833 C 0.52305 1.00106 0.73828 0.0
C834 C 0.48811 1.00604 0.73612 0.0
C835 C 0.50005 0.04749 0.72942 0.0
C836 C 0.45906 0.97731 0.71827 0.0
C837 C 0.47262 0.99691 0.76126 0.0
C838 C 0.49577 0.98892 0.77542 0.0
C839 C 0.48658 0.97772 0.79894 0.0
C840 C 0.45264 0.97413 0.80822 0.0
C841 C 0.42803 0.98162 0.79406 0.0
C842 C 0.43856 0.99371 0.77033 0.0
H843 H 0.49675 0.43996 0.97702 0.0
H844 H 0.41065 0.40487 0.92175 0.0
H845 H 0.45772 0.45674 0.89604 0.0
H846 H 0.54175 0.54322 0.96604 0.0
H847 H 0.58934 0.55181 0.97234 0.0
H848 H 0.54839 0.51293 0.98671 0.0
H849 H 0.56881 0.46522 0.97119 0.0
H850 H 0.60976 0.50389 0.95675 0.0
H851 H 0.57599 0.46276 0.93986 0.0
H852 H 0.51592 0.50872 0.87506 0.0
H853 H 0.57954 0.55976 0.8614 0.0
H854 H 0.62681 0.56379 0.93107 0.0
C855 C 0.48765 0.44342 0.9596 0.0
C856 C 0.44994 0.41832 0.95141 0.0
C857 C 0.43924 0.42385 0.92849 0.0
C858 C 0.46584 0.4532 0.91372 0.0
C859 C 0.50288 0.47715 0.92224 0.0
C860 C 0.51366 0.47289 0.94475 0.0
C861 C 0.5554 0.50216 0.94952 0.0
C862 C 0.55891 0.52913 0.96986 0.0
C863 C 0.57886 0.48232 0.95463 0.0
C864 C 0.56664 0.52315 0.92602 0.0
C865 C 0.53596 0.50814 0.91048 0.0
C866 C 0.53995 0.52111 0.88721 0.0
C867 C 0.57619 0.55006 0.87959 0.0
C868 C 0.60794 0.56614 0.89527 0.0
C869 C 0.60287 0.55267 0.91885 0.0
H870 H 0.22403 0.33761 0.12089 0.0
H871 H 0.14284 0.34624 0.07436 0.0
H872 H 0.18125 0.34827 0.03971 0.0
H873 H 0.31095 0.40122 0.08572 0.0
H874 H 0.33307 0.37278 0.09199 0.0
H875 H 0.30098 0.37533 0.11325 0.0
H876 H 0.25946 0.30122 0.11305 0.0
H877 H 0.29131 0.29849 0.09177 0.0
H878 H 0.24078 0.27649 0.08536 0.0
H879 H 0.22384 0.34031 0.00979 0.0
H880 H 0.2705 0.32905 0.98755 0.0
H881 H 0.32604 0.33007 0.05341 0.0
C882 C 0.21474 0.34074 0.10346 0.0
C883 C 0.1804 0.3419 0.10043 0.0
C884 C 0.16917 0.34568 0.07724 0.0
C885 C 0.19077 0.34672 0.05739 0.0
C886 C 0.22397 0.34463 0.06096 0.0
C887 C 0.23628 0.34238 0.08346 0.0
C888 C 0.27229 0.33921 0.08243 0.0
C889 C 0.30634 0.37423 0.09404 0.0
C890 C 0.26553 0.30162 0.09382 0.0
C891 C 0.27773 0.33901 0.05587 0.0
C892 C 0.24951 0.34202 0.04375 0.0
C893 C 0.24663 0.33894 0.0191 0.0
C894 C 0.27316 0.3325 1.0066 0.0
C895 C 0.30254 0.32988 0.01871 0.0
C896 C 0.30492 0.33354 0.04362 0.0
H897 H 0.84758 0.21385 0.26947 0.0
H898 H 0.81321 0.10369 0.2367 0.0
H899 H 0.85826 0.13627 0.20402 0.0
H900 H 0.86125 0.26712 0.21337 0.0
H901 H 0.90256 0.30989 0.22432 0.0
H902 H 0.86538 0.27842 0.24452 0.0
H903 H 0.91593 0.27253 0.26978 0.0
H904 H 0.95313 0.30389 0.24964 0.0
H905 H 0.94622 0.25698 0.25591 0.0
H906 H 0.91128 0.17922 0.17719 0.0
H907 H 0.96757 0.23051 0.15689 0.0
H908 H 0.96645 0.31437 0.20475 0.0
C909 C 0.84906 0.19664 0.25522 0.0
C910 C 0.82668 0.15606 0.25579 0.0
C911 C 0.82991 0.1347 0.23683 0.0
C912 C 0.85543 0.15297 0.21808 0.0
C913 C 0.87747 0.19278 0.21825 0.0
C914 C 0.87442 0.21451 0.23616 0.0
C915 C 0.90281 0.25688 0.23236 0.0
C916 C 0.88173 0.2794 0.22841 0.0
C917 C 0.9312 0.27353 0.25316 0.0
C918 C 0.92278 0.25531 0.20986 0.0
C919 C 0.90757 0.21798 0.20209 0.0
C920 C 0.92295 0.20867 0.18281 0.0
C921 C 0.95502 0.23814 0.17134 0.0
C922 C 0.97136 0.27675 0.17889 0.0
C923 C 0.95439 0.28536 0.1982 0.0
H924 H 0.69826 0.90262 0.45769 0.0
H925 H 0.6522 0.79861 0.41564 0.0
H926 H 0.6451 0.83295 0.3816 0.0
H927 H 0.63781 0.93886 0.43184 0.0
H928 H 0.67621 0.98798 0.43275 0.0
H929 H 0.67404 0.95428 0.45456 0.0
H930 H 0.74302 0.97047 0.44334 0.0
H931 H 0.74531 1.00411 0.42156 0.0
H932 H 0.75387 0.96592 0.41293 0.0
H933 H 0.65005 0.88053 0.35068 0.0
H934 H 0.66399 0.93712 0.32615 0.0
H935 H 0.70499 0.00945 0.38839 0.0
C936 C 0.68589 0.88677 0.4415 0.0
C937 C 0.67563 0.84774 0.43947 0.0
C938 C 0.66006 0.82837 0.41778 0.0
C939 C 0.65594 0.84768 0.39829 0.0
C940 C 0.66716 0.88633 0.40074 0.0
C941 C 0.68146 0.90559 0.42189 0.0
C942 C 0.69334 0.94761 0.41951 0.0
C943 C 0.66888 0.95777 0.43563 0.0
C944 C 0.73643 0.97354 0.42463 0.0
C945 C 0.68432 0.94918 0.39361 0.0
C946 C 0.66911 0.9135 0.38309 0.0
C947 C 0.66114 0.90839 0.35886 0.0
C948 C 0.6691 0.94057 0.34506 0.0
C949 C 0.68446 0.97718 0.35558 0.0
C950 C 0.69193 0.98145 0.38014 0.0
H951 H 0.70515 0.66084 0.54069 0.0
H952 H 0.78781 0.74262 0.49102 0.0
H953 H 0.83953 0.73797 0.51109 0.0
H954 H 0.76422 0.7 0.59068 0.0
H955 H 0.74878 0.65498 0.60549 0.0
H956 H 0.71692 0.65992 0.58527 0.0
H957 H 0.7095 0.60211 0.56097 0.0
H958 H 0.74124 0.59682 0.58116 0.0
H959 H 0.75167 0.60237 0.5499 0.0
H960 H 0.88311 0.72875 0.53783 0.0
H961 H 0.91659 0.7172 0.57035 0.0
H962 H 0.80733 0.64399 0.60497 0.0
C963 C 0.73395 0.6771 0.5337 0.0
C964 C 0.74214 0.70176 0.51396 0.0
C965 C 0.78053 0.72319 0.50582 0.0
C966 C 0.81022 0.72077 0.51716 0.0
C967 C 0.80137 0.69708 0.53688 0.0
C968 C 0.76424 0.67564 0.54518 0.0
C969 C 0.76329 0.65524 0.56806 0.0
C970 C 0.74736 0.66833 0.58859 0.0
C971 C 0.74004 0.61153 0.56482 0.0
C972 C 0.80576 0.66903 0.57142 0.0
C973 C 0.82699 0.69274 0.553 0.0
C974 C 0.8668 0.71005 0.55229 0.0
C975 C 0.88558 0.70334 0.57097 0.0
C976 C 0.86476 0.6797 0.59037 0.0
C977 C 0.82415 0.662 0.59038 0.0
H978 H 0.0133 0.70325 0.72018 0.0
H979 H 0.08489 0.73058 0.65783 0.0
H980 H 0.14171 0.77549 0.68149 0.0
H981 H 0.05522 0.79718 0.74058 0.0
H982 H 0.0515 0.78573 0.77167 0.0
H983 H 0.01801 0.75118 0.75101 0.0
H984 H 0.03603 0.70112 0.76529 0.0
H985 H 0.0694 0.73542 0.7862 0.0
H986 H 0.0856 0.71304 0.76504 0.0
H987 H 0.18952 0.82128 0.71125 0.0
H988 H 0.22401 0.8662 0.74395 0.0
H989 H 0.12038 0.81163 0.78659 0.0
C990 C 0.04128 0.71764 0.71183 0.0
C991 C 0.04523 0.71262 0.68744 0.0
C992 C 0.08172 0.73338 0.67666 0.0
C993 C 0.11403 0.75896 0.68996 0.0
C994 C 0.10919 0.76388 0.71394 0.0
C995 C 0.07368 0.74384 0.72478 0.0
C996 C 0.07537 0.75737 0.75007 0.0
C997 C 0.04844 0.77384 0.75352 0.0
C998 C 0.06605 0.72479 0.76769 0.0
C999 C 0.11719 0.7885 0.75169 0.0
C1000 C 0.13633 0.79143 0.73078 0.0
C1001 C 0.17488 0.81899 0.72777 0.0
C1002 C 0.19427 0.84442 0.74649 0.0
C1003 C 0.17506 0.84253 0.76794 0.0
C1004 C 0.13606 0.81381 0.77052 0.0
H1005 H 0.33041 0.01458 0.88771 0.0
H1006 H 0.33091 0.06938 0.82163 0.0
H1007 H 0.34159 0.12706 0.84373 0.0
H1008 H 0.27551 0.04559 0.91857 0.0
H1009 H 0.29923 0.05178 0.94665 0.0
H1010 H 0.29778 0.01752 0.92559 0.0
H1011 H 0.37191 0.05037 0.92664 0.0
H1012 H 0.37365 0.08471 0.94782 0.0
H1013 H 0.40042 0.10096 0.92059 0.0
H1014 H 0.34874 0.17738 0.87329 0.0
H1015 H 0.34618 0.21399 0.90765 0.0
H1016 H 0.33587 0.12418 0.95472 0.0
C1017 C 0.33399 0.0392 0.87787 0.0
C1018 C 0.33081 0.03796 0.85291 0.0
C1019 C 0.33387 0.07005 0.84071 0.0
C1020 C 0.33999 0.10291 0.85313 0.0
C1021 C 0.34234 0.10299 0.8778 0.0
C1022 C 0.33913 0.07182 0.89005 0.0
C1023 C 0.3384 0.07743 0.91659 0.0
C1024 C 0.30048 0.04624 0.92748 0.0
C1025 C 0.37317 0.07844 0.92862 0.0
C1026 C 0.34126 0.11644 0.91739 0.0
C1027 C 0.34425 0.131 0.89483 0.0
C1028 C 0.34657 0.1663 0.89103 0.0
C1029 C 0.3452 0.18697 0.9107 0.0
C1030 C 0.34086 0.17206 0.93395 0.0
C1031 C 0.33928 0.13645 0.93722 0.0
H1032 H 0.74579 0.77601 0.83104 0.0
H1033 H 0.63722 0.67118 0.81998 0.0
H1034 H 0.61529 0.70658 0.79484 0.0
H1035 H 0.7082 0.84269 0.83125 0.0
H1036 H 0.74893 0.8791 0.81527 0.0
H1037 H 0.75458 0.84651 0.83446 0.0
H1038 H 0.78297 0.82686 0.79963 0.0
H1039 H 0.7773 0.85919 0.78029 0.0
H1040 H 0.75584 0.80922 0.77259 0.0
H1041 H 0.60677 0.75203 0.76866 0.0
H1042 H 0.61246 0.80386 0.7428 0.0
H1043 H 0.72723 0.87926 0.76988 0.0
C1044 C 0.71709 0.76057 0.82376 0.0
C1045 C 0.69314 0.72072 0.82772 0.0
C1046 C 0.65607 0.70165 0.81738 0.0
C1047 C 0.64332 0.72155 0.80307 0.0
C1048 C 0.66794 0.76057 0.79916 0.0
C1049 C 0.70404 0.77992 0.80921 0.0
C1050 C 0.72588 0.82125 0.80085 0.0
C1051 C 0.73492 0.84903 0.8217 0.0
C1052 C 0.76266 0.8296 0.78755 0.0
C1053 C 0.6966 0.82198 0.78423 0.0
C1054 C 0.66327 0.78674 0.78372 0.0
C1055 C 0.63261 0.77982 0.76907 0.0
C1056 C 0.63618 0.8095 0.75438 0.0
C1057 C 0.67026 0.84575 0.75428 0.0
C1058 C 0.70065 0.85206 0.76968 0.0
H1059 H 0.85636 0.71449 0.92703 0.0
H1060 H 0.8343 0.611 0.88986 0.0
H1061 H 0.87985 0.60488 0.91626 0.0
H1062 H 0.95665 0.75192 0.93537 0.0
H1063 H 0.95789 0.77111 0.96441 0.0
H1064 H 0.92233 0.76643 0.94324 0.0
H1065 H 0.86845 0.72577 0.9733 0.0
H1066 H 0.90392 0.73029 0.99453 0.0
H1067 H 0.86588 0.68346 0.98594 0.0
H1068 H 0.93023 0.61158 0.94573 0.0
H1069 H 0.98144 0.63088 0.97565 0.0
H1070 H 0.96971 0.72932 0.99396 0.0
C1071 C 0.86087 0.69037 0.92452 0.0
C1072 C 0.84166 0.66323 0.90629 0.0
C1073 C 0.84863 0.63223 0.90361 0.0
C1074 C 0.87443 0.62843 0.91858 0.0
C1075 C 0.89304 0.65578 0.93624 0.0
C1076 C 0.88654 0.68613 0.9393 0.0
C1077 C 0.911 0.71216 0.95922 0.0
C1078 C 0.9386 0.7528 0.95 0.0
C1079 C 0.8858 0.71295 0.97945 0.0
C1080 C 0.93253 0.69194 0.96672 0.0
C1081 C 0.92171 0.65942 0.95331 0.0
C1082 C 0.93869 0.63684 0.95647 0.0
C1083 C 0.96777 0.64803 0.97356 0.0
C1084 C 0.97967 0.68154 0.98737 0.0
C1085 C 0.96126 0.70336 0.98395 0.0
H1086 H 0.31194 0.96801 0.14055 0.0
H1087 H 0.22879 0.95439 0.19426 0.0
H1088 H 0.17847 0.8993 0.17256 0.0
H1089 H 0.25074 0.95015 0.09228 0.0
H1090 H 0.26795 0.92439 0.07478 0.0
H1091 H 0.2992 0.95954 0.096 0.0
H1092 H 0.3109 0.90877 0.11638 0.0
H1093 H 0.27987 0.87341 0.09511 0.0
H1094 H 0.2705 0.86439 0.12635 0.0
H1095 H 0.13564 0.85011 0.14365 0.0
H1096 H 0.10286 0.80877 0.1094 0.0
H1097 H 0.21224 0.85354 0.07316 0.0
C1098 C 0.28341 0.9528 0.14808 0.0
C1099 C 0.27461 0.9655 0.16936 0.0
C1100 C 0.23654 0.94524 0.1782 0.0
C1101 C 0.20762 0.9138 0.16595 0.0
C1102 C 0.21694 0.90277 0.14474 0.0
C1103 C 0.25389 0.92143 0.13586 0.0
C1104 C 0.25528 0.90543 0.11169 0.0
C1105 C 0.26911 0.93674 0.09256 0.0
C1106 C 0.28064 0.88689 0.11243 0.0
C1107 C 0.21324 0.87545 0.10827 0.0
C1108 C 0.19182 0.87432 0.1277 0.0
C1109 C 0.15215 0.8504 0.12844 0.0
C1110 C 0.13376 0.82708 0.1088 0.0
C1111 C 0.15487 0.82769 0.08853 0.0
C1112 C 0.19529 0.85203 0.08844 0.0
H1113 H 0.30642 0.14505 0.26514 0.0
H1114 H 0.41276 0.22286 0.2292 0.0
H1115 H 0.41924 0.27608 0.25435 0.0
H1116 H 0.27125 0.20981 0.26959 0.0
H1117 H 0.24985 0.19343 0.29836 0.0
H1118 H 0.25492 0.16113 0.27861 0.0
H1119 H 0.29257 0.14789 0.31091 0.0
H1120 H 0.2876 0.18021 0.33075 0.0
H1121 H 0.33458 0.18748 0.32399 0.0
H1122 H 0.4124 0.32158 0.28229 0.0
H1123 H 0.3926 0.35562 0.31024 0.0
H1124 H 0.29061 0.24782 0.32784 0.0
C1125 C 0.33135 0.17315 0.2627 0.0
C1126 C 0.35919 0.17966 0.24519 0.0
C1127 C 0.39109 0.21707 0.24248 0.0
C1128 C 0.39505 0.2475 0.25672 0.0
C1129 C 0.36689 0.24013 0.27363 0.0
C1130 C 0.33567 0.20384 0.27669 0.0
C1131 C 0.30861 0.20378 0.29543 0.0
C1132 C 0.26881 0.19131 0.28486 0.0
C1133 C 0.30568 0.17833 0.31652 0.0
C1134 C 0.32928 0.24578 0.30231 0.0
C1135 C 0.36292 0.26625 0.28963 0.0
C1136 C 0.38625 0.30575 0.29243 0.0
C1137 C 0.37473 0.32485 0.30841 0.0
C1138 C 0.34009 0.30454 0.32144 0.0
C1139 C 0.3174 0.26434 0.31839 0.0
H1140 H 0.16776 0.37032 0.40369 0.0
H1141 H 0.21843 0.31383 0.44281 0.0
H1142 H 0.17736 0.30652 0.47703 0.0
H1143 H 0.15458 0.4204 0.45496 0.0
H1144 H 0.109 0.41279 0.44439 0.0
H1145 H 0.14511 0.41743 0.42359 0.0
H1146 H 0.09671 0.352 0.40495 0.0
H1147 H 0.06056 0.34731 0.42564 0.0
H1148 H 0.07306 0.31022 0.42363 0.0
H1149 H 0.12738 0.29971 0.50555 0.0
H1150 H 0.07026 0.29224 0.52623 0.0
H1151 H 0.05131 0.35393 0.46984 0.0
C1152 C 0.17072 0.35709 0.41963 0.0
C1153 C 0.19659 0.34284 0.42054 0.0
C1154 C 0.19897 0.32503 0.4416 0.0
C1155 C 0.17584 0.32088 0.46122 0.0
C1156 C 0.15035 0.33472 0.45966 0.0
C1157 C 0.14757 0.35249 0.43945 0.0
C1158 C 0.11574 0.36224 0.44197 0.0
C1159 C 0.1321 0.40581 0.44118 0.0
C1160 C 0.08468 0.34171 0.42292 0.0
C1161 C 0.10058 0.34636 0.46651 0.0
C1162 C 0.12131 0.33096 0.47641 0.0
C1163 C 0.11129 0.31216 0.49813 0.0
C1164 C 0.07867 0.30803 0.50978 0.0
C1165 C 0.05628 0.32269 0.49985 0.0
C1166 C 0.06812 0.34304 0.47817 0.0
H1167 H 0.8258 0.20176 0.60196 0.0
H1168 H 0.85969 0.13661 0.55658 0.0
H1169 H 0.81872 0.07845 0.57949 0.0
H1170 H 0.82636 0.15648 0.65547 0.0
H1171 H 0.78492 0.15555 0.66841 0.0
H1172 H 0.81387 0.19212 0.64723 0.0
H1173 H 0.75394 0.17243 0.62114 0.0
H1174 H 0.72473 0.13592 0.64233 0.0
H1175 H 0.72516 0.12326 0.61175 0.0
H1176 H 0.77975 0.02891 0.60842 0.0
H1177 H 0.74192 0.98882 0.64192 0.0
H1178 H 0.73024 0.08294 0.66969 0.0
C1179 C 0.82383 0.17503 0.59657 0.0
C1180 C 0.84595 0.17383 0.57734 0.0
C1181 C 0.84318 0.13842 0.57119 0.0
C1182 C 0.81987 0.10509 0.58407 0.0
C1183 C 0.79923 0.10732 0.60318 0.0
C1184 C 0.8006 0.14115 0.60944 0.0
C1185 C 0.7768 0.13542 0.63168 0.0
C1186 C 0.802 0.16144 0.65189 0.0
C1187 C 0.74316 0.14216 0.6264 0.0
C1188 C 0.7626 0.09338 0.63706 0.0
C1189 C 0.77599 0.07798 0.6202 0.0
C1190 C 0.76878 0.04048 0.62161 0.0
C1191 C 0.74747 0.01802 0.64078 0.0
C1192 C 0.73333 0.03283 0.65835 0.0
C1193 C 0.74051 0.0709 0.65636 0.0
H1194 H 0.26241 0.36859 0.2836 0.0
H1195 H 0.16837 0.30284 0.33228 0.0
H1196 H 0.12204 0.29141 0.30024 0.0
H1197 H 0.21957 0.4142 0.25277 0.0
H1198 H 0.23839 0.41179 0.22425 0.0
H1199 H 0.26403 0.41364 0.2508 0.0
H1200 H 0.26276 0.35113 0.23833 0.0
H1201 H 0.23693 0.34893 0.21175 0.0
H1202 H 0.21747 0.30886 0.23187 0.0
H1203 H 0.08617 0.29133 0.26394 0.0
H1204 H 0.06309 0.30081 0.2253 0.0
H1205 H 0.18006 0.36317 0.19949 0.0
C1206 C 0.23209 0.35167 0.28758 0.0
C1207 C 0.21905 0.33671 0.31054 0.0
C1208 C 0.17908 0.31457 0.31486 0.0
C1209 C 0.15255 0.30789 0.29677 0.0
C1210 C 0.16642 0.32312 0.27439 0.0
C1211 C 0.20524 0.34433 0.26968 0.0
C1212 C 0.21266 0.35795 0.24419 0.0
C1213 C 0.23497 0.40201 0.24294 0.0
C1214 C 0.2337 0.34067 0.23074 0.0
C1215 C 0.17187 0.34164 0.23536 0.0
C1216 C 0.14566 0.32169 0.25311 0.0
C1217 C 0.10635 0.30625 0.24979 0.0
C1218 C 0.09351 0.3117 0.22786 0.0
C1219 C 0.11984 0.33189 0.20949 0.0
C1220 C 0.15944 0.34665 0.21314 0.0
H1221 H 0.84885 0.1873 0.47756 0.0
H1222 H 0.96351 0.2536 0.4487 0.0
H1223 H 0.93966 0.22371 0.40939 0.0
H1224 H 0.81688 0.09994 0.44148 0.0
H1225 H 0.7692 0.09265 0.4377 0.0
H1226 H 0.79613 0.1156 0.4641 0.0
H1227 H 0.78707 0.17396 0.45606 0.0
H1228 H 0.76038 0.15128 0.42958 0.0
H1229 H 0.80211 0.19847 0.42803 0.0
H1230 H 0.9028 0.18831 0.37297 0.0
H1231 H 0.85509 0.15278 0.34158 0.0
H1232 H 0.76379 0.11324 0.39372 0.0
C1233 C 0.86892 0.19459 0.46304 0.0
C1234 C 0.90806 0.22189 0.46604 0.0
C1235 C 0.93351 0.23214 0.44661 0.0
C1236 C 0.92023 0.21536 0.42431 0.0
C1237 C 0.8813 0.18885 0.42172 0.0
C1238 C 0.85594 0.17865 0.44052 0.0
C1239 C 0.81506 0.152 0.43251 0.0
C1240 C 0.79834 0.11272 0.44467 0.0
C1241 C 0.78967 0.17002 0.4368 0.0
C1242 C 0.82138 0.14916 0.40631 0.0
C1243 C 0.85982 0.17012 0.40049 0.0
C1244 C 0.8726 0.17176 0.37732 0.0
C1245 C 0.84533 0.15151 0.35962 0.0
C1246 C 0.80572 0.13047 0.36514 0.0
C1247 C 0.79381 0.12934 0.38885 0.0
H1248 H 0.65861 0.90329 0.62265 0.0
H1249 H 0.71564 0.86355 0.67077 0.0
H1250 H 0.72422 0.82801 0.63812 0.0
H1251 H 0.60781 0.81688 0.58935 0.0
H1252 H 0.61367 0.84055 0.56131 0.0
H1253 H 0.61289 0.86394 0.58833 0.0
H1254 H 0.67883 0.92245 0.57763 0.0
H1255 H 0.67995 0.89915 0.55061 0.0
H1256 H 0.71892 0.91549 0.5715 0.0
H1257 H 0.72316 0.79362 0.6015 0.0
H1258 H 0.71332 0.76287 0.56227 0.0
H1259 H 0.66012 0.82675 0.53676 0.0
C1260 C 0.67291 0.88712 0.62632 0.0
C1261 C 0.68634 0.88616 0.64934 0.0
C1262 C 0.70511 0.86482 0.65333 0.0
C1263 C 0.71021 0.84456 0.63488 0.0
C1264 C 0.69675 0.84618 0.61246 0.0
C1265 C 0.67862 0.86698 0.60802 0.0
C1266 C 0.66643 0.86335 0.58227 0.0
C1267 C 0.6226 0.84508 0.5802 0.0
C1268 C 0.68729 0.90244 0.56977 0.0
C1269 C 0.67994 0.83667 0.57308 0.0
C1270 C 0.69737 0.82722 0.59088 0.0
C1271 C 0.71012 0.80122 0.58731 0.0
C1272 C 0.70445 0.78395 0.56505 0.0
C1273 C 0.68666 0.79311 0.54661 0.0
C1274 C 0.6747 0.82017 0.55051 0.0
H1275 H 0.85527 0.62421 0.70767 0.0
H1276 H 0.92853 0.74586 0.69475 0.0
H1277 H 0.9044 0.76013 0.73151 0.0
H1278 H 0.77407 0.63061 0.73159 0.0
H1279 H 0.76239 0.59278 0.75269 0.0
H1280 H 0.78441 0.59292 0.72487 0.0
H1281 H 0.83894 0.58995 0.74748 0.0
H1282 H 0.81746 0.59042 0.77537 0.0
H1283 H 0.86653 0.62617 0.76923 0.0
H1284 H 0.87651 0.76028 0.77213 0.0
H1285 H 0.84017 0.74675 0.80967 0.0
H1286 H 0.78294 0.62509 0.79411 0.0
C1287 C 0.86586 0.65387 0.71234 0.0
C1288 C 0.89388 0.68392 0.69838 0.0
C1289 C 0.90687 0.72238 0.70508 0.0
C1290 C 0.89353 0.73073 0.72603 0.0
C1291 C 0.86675 0.70028 0.73978 0.0
C1292 C 0.85243 0.66264 0.73287 0.0
C1293 C 0.82371 0.63502 0.75058 0.0
C1294 C 0.78378 0.61145 0.73925 0.0
C1295 C 0.8375 0.60886 0.76129 0.0
C1296 C 0.82436 0.66294 0.76875 0.0
C1297 C 0.84967 0.70044 0.76241 0.0
C1298 C 0.85623 0.73104 0.77707 0.0
C1299 C 0.83568 0.72307 0.79844 0.0
C1300 C 0.80849 0.68488 0.80473 0.0
C1301 C 0.80316 0.65458 0.78969 0.0
H1302 H 0.23106 0.84234 0.87908 0.0
H1303 H 0.19483 0.92642 0.87033 0.0
H1304 H 0.15781 0.90434 0.90778 0.0
H1305 H 0.14025 0.76684 0.90386 0.0
H1306 H 0.16418 0.75017 0.92343 0.0
H1307 H 0.18573 0.77172 0.89548 0.0
H1308 H 0.24754 0.82083 0.91749 0.0
H1309 H 0.22595 0.79996 0.94555 0.0
H1310 H 0.24447 0.85036 0.94042 0.0
H1311 H 0.12986 0.87637 0.94856 0.0
H1312 H 0.10521 0.83855 0.98543 0.0
H1313 H 0.15805 0.77143 0.96551 0.0
C1314 C 0.21484 0.85569 0.88486 0.0
C1315 C 0.21572 0.88603 0.87192 0.0
C1316 C 0.19409 0.90279 0.87992 0.0
C1317 C 0.17333 0.89067 0.90125 0.0
C1318 C 0.1741 0.86141 0.91403 0.0
C1319 C 0.19359 0.84355 0.90578 0.0
C1320 C 0.18984 0.81264 0.92255 0.0
C1321 C 0.16874 0.773 0.91062 0.0
C1322 C 0.2293 0.8215 0.93206 0.0
C1323 C 0.1657 0.81621 0.94179 0.0
C1324 C 0.15715 0.84468 0.93678 0.0
C1325 C 0.13603 0.8537 0.95249 0.0
C1326 C 0.12239 0.83227 0.97348 0.0
C1327 C 0.12952 0.80187 0.97837 0.0
C1328 C 0.15193 0.79432 0.96235 0.0
H1329 H 0.3602 0.10877 0.1189 0.0
H1330 H 0.29273 0.14005 0.16414 0.0
H1331 H 0.28639 0.17667 0.13111 0.0
H1332 H 0.41269 0.19742 0.0902 0.0
H1333 H 0.41297 0.17736 0.0617 0.0
H1334 H 0.40975 0.15134 0.08831 0.0
H1335 H 0.34729 0.09284 0.07286 0.0
H1336 H 0.35026 0.11864 0.04614 0.0
H1337 H 0.30752 0.09885 0.06409 0.0
H1338 H 0.29194 0.21414 0.09434 0.0
H1339 H 0.30785 0.24861 0.05603 0.0
H1340 H 0.37018 0.19171 0.03447 0.0
C1341 C 0.34371 0.12295 0.1219 0.0
C1342 C 0.32698 0.12149 0.14422 0.0
C1343 C 0.30575 0.14061 0.14724 0.0
C1344 C 0.30195 0.16147 0.12857 0.0
C1345 C 0.31922 0.16263 0.10693 0.0
C1346 C 0.33948 0.14368 0.10347 0.0
C1347 C 0.35653 0.1506 0.0788 0.0
C1348 C 0.40059 0.17036 0.07983 0.0
C1349 C 0.33936 0.11299 0.06464 0.0
C1350 C 0.34341 0.17716 0.06903 0.0
C1351 C 0.32175 0.18357 0.08554 0.0
C1352 C 0.30825 0.20881 0.08116 0.0
C1353 C 0.31735 0.22818 0.05943 0.0
C1354 C 0.33946 0.22199 0.04241 0.0
C1355 C 0.35243 0.19602 0.04712 0.0
loop_
_geom_bond_atom_site_label_1
_geom_bond_atom_site_label_2
_geom_bond_distance
_geom_bond_site_symmetry_2
_ccdc_geom_bond_type
Co0 O2 2.143 . S
Co0 O8 2.074 . S
Co0 O11 2.093 . S
Co0 O24 2.097 . S
Co0 N41 2.151 . S
Co0 N49 2.214 . S
Co1 O2 2.160 . S
Co1 O7 2.058 . S
Co1 O17 2.057 . S
Co1 O32 2.037 . S
Co1 N36 2.145 . S
Co1 N57 2.257 . S
O2 Co0 2.143 . S
O2 Co1 2.160 . S
C3 O4 1.278 . S
C3 O11 1.224 . S
O4 C3 1.278 . S
C5 O6 1.245 . S
C5 O17 1.232 . S
O6 C5 1.245 . S
O7 Co1 2.058 . S
O7 C33 1.269 . S
O8 Co0 2.074 . S
O8 C33 1.257 . S
H9 C34 0.930 . S
H10 C40 0.930 . S
O11 Co0 2.093 . S
O11 C3 1.224 . S
H12 C44 0.929 . S
H13 C46 0.930 . S
H14 C47 0.930 . S
H15 C45 0.929 . S
H16 C48 0.928 . S
O17 Co1 2.057 . S
O17 C5 1.232 . S
H18 C37 0.929 . S
H19 C38 0.929 . S
H20 C50 0.931 . S
H21 C42 0.929 . S
H22 C51 0.930 . S
H23 C43 0.931 . S
O24 Co0 2.097 . S
O24 C52 1.214 . S
H25 C53 0.929 . S
H26 C54 0.929 . S
H27 C55 0.930 . S
H28 C56 0.929 . S
H29 C58 0.930 . S
H30 C35 0.930 . S
H31 C39 0.930 . S
O32 Co1 2.037 . S
O32 C52 1.234 . S
C33 O7 1.269 . S
C33 O8 1.257 . S
C34 H9 0.930 . S
C34 C37 1.388 . S
C34 C39 1.418 . S
C35 H30 0.930 . S
C35 C38 1.404 . S
C35 C39 1.353 . S
N36 Co1 2.145 . S
N36 C37 1.397 . S
N36 C38 1.334 . S
C37 H18 0.929 . S
C37 C34 1.388 . S
C37 N36 1.397 . S
C38 H19 0.929 . S
C38 C35 1.404 . S
C38 N36 1.334 . S
C39 H31 0.930 . S
C39 C34 1.418 . S
C39 C35 1.353 . S
C40 H10 0.930 . S
C40 N41 1.330 . S
C40 C42 1.446 . S
N41 Co0 2.151 . S
N41 C40 1.330 . S
N41 C45 1.418 1_455 S
C42 H21 0.929 . S
C42 C40 1.446 . S
C42 C43 1.332 1_455 S
C43 H23 0.931 . S
C43 C42 1.332 1_655 S
C43 C44 1.267 . S
C44 H12 0.929 . S
C44 C43 1.267 . S
C44 C45 1.251 . S
C45 H15 0.929 . S
C45 N41 1.418 1_655 S
C45 C44 1.251 . S
C46 H13 0.930 . S
C46 C48 1.406 . S
C46 C51 1.261 . S
C47 H14 0.930 . S
C47 N49 1.325 . S
C47 C50 1.357 . S
C48 H16 0.928 . S
C48 C46 1.406 . S
C48 N49 1.261 . S
N49 Co0 2.214 . S
N49 C47 1.325 . S
N49 C48 1.261 . S
C50 H20 0.931 . S
C50 C47 1.357 . S
C50 C51 1.312 . S
C51 H22 0.930 . S
C51 C46 1.261 . S
C51 C50 1.312 . S
C52 O24 1.214 . S
C52 O32 1.234 . S
C53 H25 0.929 . S
C53 C56 1.391 . S
C53 C58 1.391 . S
C54 H26 0.929 . S
C54 C55 1.390 . S
C54 N57 1.391 . S
C55 H27 0.930 . S
C55 C54 1.390 . S
C55 C56 1.392 . S
C56 H28 0.929 . S
C56 C53 1.391 . S
C56 C55 1.392 . S
N57 Co1 2.257 . S
N57 C54 1.391 . S
N57 C58 1.388 . S
C58 H29 0.930 . S
C58 C53 1.391 . S
C58 N57 1.388 . S
Co59 O61 2.143 . S
Co59 O67 2.074 . S
Co59 O70 2.093 . S
Co59 O83 2.097 . S
Co59 N100 2.151 . S
Co59 N108 2.214 . S
Co60 O61 2.160 . S
Co60 O66 2.058 . S
Co60 O76 2.057 . S
Co60 O91 2.037 . S
Co60 N95 2.145 . S
Co60 N116 2.257 . S
O61 Co59 2.143 . S
O61 Co60 2.160 . S
C62 O63 1.278 . S
C62 O70 1.224 . S
O63 C62 1.278 . S
C64 O65 1.245 . S
C64 O76 1.232 . S
O65 C64 1.245 . S
O66 Co60 2.058 . S
O66 C92 1.269 . S
O67 Co59 2.074 . S
O67 C92 1.257 . S
H68 C93 0.930 . S
H69 C99 0.930 . S
O70 Co59 2.093 . S
O70 C62 1.224 . S
H71 C103 0.929 . S
H72 C105 0.930 . S
H73 C106 0.930 . S
H74 C104 0.929 . S
H75 C107 0.928 . S
O76 Co60 2.057 . S
O76 C64 1.232 . S
H77 C96 0.929 . S
H78 C97 0.929 . S
H79 C109 0.931 . S
H80 C101 0.929 . S
H81 C110 0.930 . S
H82 C102 0.931 . S
O83 Co59 2.097 . S
O83 C111 1.214 . S
H84 C112 0.929 . S
H85 C113 0.929 . S
H86 C114 0.930 . S
H87 C115 0.929 . S
H88 C117 0.930 . S
H89 C94 0.930 . S
H90 C98 0.930 . S
O91 Co60 2.037 . S
O91 C111 1.234 . S
C92 O66 1.269 . S
C92 O67 1.257 . S
C93 H68 0.930 . S
C93 C96 1.388 . S
C93 C98 1.418 . S
C94 H89 0.930 . S
C94 C97 1.404 . S
C94 C98 1.353 . S
N95 Co60 2.145 . S
N95 C96 1.397 . S
N95 C97 1.334 . S
C96 H77 0.929 . S
C96 C93 1.388 . S
C96 N95 1.397 . S
C97 H78 0.929 . S
C97 C94 1.404 . S
C97 N95 1.334 . S
C98 H90 0.930 . S
C98 C93 1.418 . S
C98 C94 1.353 . S
C99 H69 0.930 . S
C99 N100 1.330 . S
C99 C101 1.446 . S
N100 Co59 2.151 . S
N100 C99 1.330 . S
N100 C104 1.418 1_545 S
C101 H80 0.929 . S
C101 C99 1.446 . S
C101 C102 1.332 1_545 S
C102 H82 0.931 . S
C102 C101 1.332 1_565 S
C102 C103 1.267 . S
C103 H71 0.929 . S
C103 C102 1.267 . S
C103 C104 1.251 . S
C104 H74 0.929 . S
C104 N100 1.418 1_565 S
C104 C103 1.251 . S
C105 H72 0.930 . S
C105 C107 1.406 . S
C105 C110 1.261 . S
C106 H73 0.930 . S
C106 N108 1.325 . S
C106 C109 1.357 . S
C107 H75 0.928 . S
C107 C105 1.406 . S
C107 N108 1.261 . S
N108 Co59 2.214 . S
N108 C106 1.325 . S
N108 C107 1.261 . S
C109 H79 0.931 . S
C109 C106 1.357 . S
C109 C110 1.312 . S
C110 H81 0.930 . S
C110 C105 1.261 . S
C110 C109 1.312 . S
C111 O83 1.214 . S
C111 O91 1.234 . S
C112 H84 0.929 . S
C112 C115 1.391 . S
C112 C117 1.391 . S
C113 H85 0.929 . S
C113 C114 1.390 . S
C113 N116 1.391 . S
C114 H86 0.930 . S
C114 C113 1.390 . S
C114 C115 1.392 . S
C115 H87 0.929 . S
C115 C112 1.391 . S
C115 C114 1.392 . S
N116 Co60 2.257 . S
N116 C113 1.391 . S
N116 C117 1.388 . S
C117 H88 0.930 . S
C117 C112 1.391 . S
C117 N116 1.388 . S
Co118 O120 2.143 . S
Co118 O126 2.074 . S
Co118 O129 2.093 . S
Co118 O142 2.097 . S
Co118 N159 2.151 . S
Co118 N167 2.214 . S
Co119 O120 2.160 . S
Co119 O125 2.058 . S
Co119 O135 2.057 . S
Co119 O150 2.037 . S
Co119 N154 2.145 . S
Co119 N175 2.257 . S
O120 Co118 2.143 . S
O120 Co119 2.160 . S
C121 O122 1.278 . S
C121 O129 1.224 . S
O122 C121 1.278 . S
C123 O124 1.245 . S
C123 O135 1.232 . S
O124 C123 1.245 . S
O125 Co119 2.058 . S
O125 C151 1.269 . S
O126 Co118 2.074 . S
O126 C151 1.257 . S
H127 C152 0.930 . S
H128 C158 0.930 . S
O129 Co118 2.093 . S
O129 C121 1.224 . S
H130 C162 0.929 . S
H131 C164 0.930 . S
H132 C165 0.930 . S
H133 C163 0.929 . S
H134 C166 0.928 . S
O135 Co119 2.057 . S
O135 C123 1.232 . S
H136 C155 0.929 . S
H137 C156 0.929 . S
H138 C168 0.931 . S
H139 C160 0.929 . S
H140 C169 0.930 . S
H141 C161 0.931 . S
O142 Co118 2.097 . S
O142 C170 1.214 . S
H143 C171 0.929 . S
H144 C172 0.929 . S
H145 C173 0.930 . S
H146 C174 0.929 . S
H147 C176 0.930 . S
H148 C153 0.930 . S
H149 C157 0.930 . S
O150 Co119 2.037 . S
O150 C170 1.234 . S
C151 O125 1.269 . S
C151 O126 1.257 . S
C152 H127 0.930 . S
C152 C155 1.388 . S
C152 C157 1.418 . S
C153 H148 0.930 . S
C153 C156 1.404 . S
C153 C157 1.353 . S
N154 Co119 2.145 . S
N154 C155 1.397 . S
N154 C156 1.334 . S
C155 H136 0.929 . S
C155 C152 1.388 . S
C155 N154 1.397 . S
C156 H137 0.929 . S
C156 C153 1.404 . S
C156 N154 1.334 . S
C157 H149 0.930 . S
C157 C152 1.418 . S
C157 C153 1.353 . S
C158 H128 0.930 . S
C158 N159 1.330 . S
C158 C160 1.446 . S
N159 Co118 2.151 . S
N159 C158 1.330 . S
N159 C163 1.418 . S
C160 H139 0.929 . S
C160 C158 1.446 . S
C160 C161 1.332 . S
C161 H141 0.931 . S
C161 C160 1.332 . S
C161 C162 1.267 . S
C162 H130 0.929 . S
C162 C161 1.267 . S
C162 C163 1.251 . S
C163 H133 0.929 . S
C163 N159 1.418 . S
C163 C162 1.251 . S
C164 H131 0.930 . S
C164 C166 1.406 . S
C164 C169 1.261 . S
C165 H132 0.930 . S
C165 N167 1.325 . S
C165 C168 1.357 . S
C166 H134 0.928 . S
C166 C164 1.406 . S
C166 N167 1.261 . S
N167 Co118 2.214 . S
N167 C165 1.325 . S
N167 C166 1.261 . S
C168 H138 0.931 . S
C168 C165 1.357 . S
C168 C169 1.312 . S
C169 H140 0.930 . S
C169 C164 1.261 . S
C169 C168 1.312 . S
C170 O142 1.214 . S
C170 O150 1.234 . S
C171 H143 0.929 . S
C171 C174 1.391 . S
C171 C176 1.391 . S
C172 H144 0.929 . S
C172 C173 1.390 . S
C172 N175 1.391 . S
C173 H145 0.930 . S
C173 C172 1.390 . S
C173 C174 1.392 . S
C174 H146 0.929 . S
C174 C171 1.391 . S
C174 C173 1.392 . S
N175 Co119 2.257 . S
N175 C172 1.391 . S
N175 C176 1.388 . S
C176 H147 0.930 . S
C176 C171 1.391 . S
C176 N175 1.388 . S
Co177 O179 2.143 . S
Co177 O185 2.074 . S
Co177 O188 2.093 . S
Co177 O201 2.097 . S
Co177 N218 2.151 . S
Co177 N226 2.214 . S
Co178 O179 2.160 . S
Co178 O184 2.058 . S
Co178 O194 2.057 . S
Co178 O209 2.037 . S
Co178 N213 2.145 . S
Co178 N234 2.257 . S
O179 Co177 2.143 . S
O179 Co178 2.160 . S
C180 O181 1.278 . S
C180 O188 1.224 . S
O181 C180 1.278 . S
C182 O183 1.245 . S
C182 O194 1.232 . S
O183 C182 1.245 . S
O184 Co178 2.058 . S
O184 C210 1.269 . S
O185 Co177 2.074 . S
O185 C210 1.257 . S
H186 C211 0.930 . S
H187 C217 0.930 . S
O188 Co177 2.093 . S
O188 C180 1.224 . S
H189 C221 0.929 . S
H190 C223 0.930 . S
H191 C224 0.930 . S
H192 C222 0.929 . S
H193 C225 0.928 . S
O194 Co178 2.057 . S
O194 C182 1.232 . S
H195 C214 0.929 . S
H196 C215 0.929 . S
H197 C227 0.931 . S
H198 C219 0.929 . S
H199 C228 0.930 . S
H200 C220 0.931 . S
O201 Co177 2.097 . S
O201 C229 1.214 . S
H202 C230 0.929 . S
H203 C231 0.929 . S
H204 C232 0.930 . S
H205 C233 0.929 . S
H206 C235 0.930 . S
H207 C212 0.930 . S
H208 C216 0.930 . S
O209 Co178 2.037 . S
O209 C229 1.234 . S
C210 O184 1.269 . S
C210 O185 1.257 . S
C211 H186 0.930 . S
C211 C214 1.388 . S
C211 C216 1.418 . S
C212 H207 0.930 . S
C212 C215 1.404 . S
C212 C216 1.353 . S
N213 Co178 2.145 . S
N213 C214 1.397 . S
N213 C215 1.334 . S
C214 H195 0.929 . S
C214 C211 1.388 . S
C214 N213 1.397 . S
C215 H196 0.929 . S
C215 C212 1.404 . S
C215 N213 1.334 . S
C216 H208 0.930 . S
C216 C211 1.418 . S
C216 C212 1.353 . S
C217 H187 0.930 . S
C217 N218 1.330 . S
C217 C219 1.446 . S
N218 Co177 2.151 . S
N218 C217 1.330 . S
N218 C222 1.418 1_655 S
C219 H198 0.929 . S
C219 C217 1.446 . S
C219 C220 1.332 1_655 S
C220 H200 0.931 . S
C220 C219 1.332 1_455 S
C220 C221 1.267 . S
C221 H189 0.929 . S
C221 C220 1.267 . S
C221 C222 1.251 . S
C222 H192 0.929 . S
C222 N218 1.418 1_455 S
C222 C221 1.251 . S
C223 H190 0.930 . S
C223 C225 1.406 . S
C223 C228 1.261 . S
C224 H191 0.930 . S
C224 N226 1.325 . S
C224 C227 1.357 . S
C225 H193 0.928 . S
C225 C223 1.406 . S
C225 N226 1.261 . S
N226 Co177 2.214 . S
N226 C224 1.325 . S
N226 C225 1.261 . S
C227 H197 0.931 . S
C227 C224 1.357 . S
C227 C228 1.312 . S
C228 H199 0.930 . S
C228 C223 1.261 . S
C228 C227 1.312 . S
C229 O201 1.214 . S
C229 O209 1.234 . S
C230 H202 0.929 . S
C230 C233 1.391 . S
C230 C235 1.391 . S
C231 H203 0.929 . S
C231 C232 1.390 . S
C231 N234 1.391 . S
C232 H204 0.930 . S
C232 C231 1.390 . S
C232 C233 1.392 . S
C233 H205 0.929 . S
C233 C230 1.391 . S
C233 C232 1.392 . S
N234 Co178 2.257 . S
N234 C231 1.391 . S
N234 C235 1.388 . S
C235 H206 0.930 . S
C235 C230 1.391 . S
C235 N234 1.388 . S
Co236 O238 2.143 . S
Co236 O244 2.074 . S
Co236 O247 2.093 . S
Co236 O260 2.097 . S
Co236 N277 2.151 . S
Co236 N285 2.214 . S
Co237 O238 2.160 . S
Co237 O243 2.058 . S
Co237 O253 2.057 . S
Co237 O268 2.037 . S
Co237 N272 2.145 . S
Co237 N293 2.257 . S
O238 Co236 2.143 . S
O238 Co237 2.160 . S
C239 O240 1.278 . S
C239 O247 1.224 . S
O240 C239 1.278 . S
C241 O242 1.245 . S
C241 O253 1.232 . S
O242 C241 1.245 . S
O243 Co237 2.058 . S
O243 C269 1.269 . S
O244 Co236 2.074 . S
O244 C269 1.257 . S
H245 C270 0.930 . S
H246 C276 0.930 . S
O247 Co236 2.093 . S
O247 C239 1.224 . S
H248 C280 0.929 . S
H249 C282 0.930 . S
H250 C283 0.930 . S
H251 C281 0.929 . S
H252 C284 0.928 . S
O253 Co237 2.057 . S
O253 C241 1.232 . S
H254 C273 0.929 . S
H255 C274 0.929 . S
H256 C286 0.931 . S
H257 C278 0.929 . S
H258 C287 0.930 . S
H259 C279 0.931 . S
O260 Co236 2.097 . S
O260 C288 1.214 . S
H261 C289 0.929 . S
H262 C290 0.929 . S
H263 C291 0.930 . S
H264 C292 0.929 . S
H265 C294 0.930 . S
H266 C271 0.930 . S
H267 C275 0.930 . S
O268 Co237 2.037 . S
O268 C288 1.234 . S
C269 O243 1.269 . S
C269 O244 1.257 . S
C270 H245 0.930 . S
C270 C273 1.388 . S
C270 C275 1.418 . S
C271 H266 0.930 . S
C271 C274 1.404 . S
C271 C275 1.353 . S
N272 Co237 2.145 . S
N272 C273 1.397 . S
N272 C274 1.334 . S
C273 H254 0.929 . S
C273 C270 1.388 . S
C273 N272 1.397 . S
C274 H255 0.929 . S
C274 C271 1.404 . S
C274 N272 1.334 . S
C275 H267 0.930 . S
C275 C270 1.418 . S
C275 C271 1.353 . S
C276 H246 0.930 . S
C276 N277 1.330 . S
C276 C278 1.446 . S
N277 Co236 2.151 . S
N277 C276 1.330 . S
N277 C281 1.418 1_565 S
C278 H257 0.929 . S
C278 C276 1.446 . S
C278 C279 1.332 1_565 S
C279 H259 0.931 . S
C279 C278 1.332 1_545 S
C279 C280 1.267 . S
C280 H248 0.929 . S
C280 C279 1.267 . S
C280 C281 1.251 . S
C281 H251 0.929 . S
C281 N277 1.418 1_545 S
C281 C280 1.251 . S
C282 H249 0.930 . S
C282 C284 1.406 . S
C282 C287 1.261 . S
C283 H250 0.930 . S
C283 N285 1.325 . S
C283 C286 1.357 . S
C284 H252 0.928 . S
C284 C282 1.406 . S
C284 N285 1.261 . S
N285 Co236 2.214 . S
N285 C283 1.325 . S
N285 C284 1.261 . S
C286 H256 0.931 . S
C286 C283 1.357 . S
C286 C287 1.312 . S
C287 H258 0.930 . S
C287 C282 1.261 . S
C287 C286 1.312 . S
C288 O260 1.214 . S
C288 O268 1.234 . S
C289 H261 0.929 . S
C289 C292 1.391 . S
C289 C294 1.391 . S
C290 H262 0.929 . S
C290 C291 1.390 . S
C290 N293 1.391 . S
C291 H263 0.930 . S
C291 C290 1.390 . S
C291 C292 1.392 . S
C292 H264 0.929 . S
C292 C289 1.391 . S
C292 C291 1.392 . S
N293 Co237 2.257 . S
N293 C290 1.391 . S
N293 C294 1.388 . S
C294 H265 0.930 . S
C294 C289 1.391 . S
C294 N293 1.388 . S
Co295 O297 2.143 . S
Co295 O303 2.074 . S
Co295 O306 2.093 . S
Co295 O319 2.097 . S
Co295 N336 2.151 . S
Co295 N344 2.214 . S
Co296 O297 2.160 . S
Co296 O302 2.058 . S
Co296 O312 2.057 . S
Co296 O327 2.037 1_556 S
Co296 N331 2.145 1_556 S
Co296 N352 2.257 . S
O297 Co295 2.143 . S
O297 Co296 2.160 . S
C298 O299 1.278 . S
C298 O306 1.224 . S
O299 C298 1.278 . S
C300 O301 1.245 . S
C300 O312 1.232 . S
O301 C300 1.245 . S
O302 Co296 2.058 . S
O302 C328 1.269 . S
O303 Co295 2.074 . S
O303 C328 1.257 . S
H304 C329 0.930 . S
H305 C335 0.930 . S
O306 Co295 2.093 . S
O306 C298 1.224 . S
H307 C339 0.929 . S
H308 C341 0.930 . S
H309 C342 0.930 1_554 S
H310 C340 0.929 . S
H311 C343 0.928 . S
O312 Co296 2.057 . S
O312 C300 1.232 . S
H313 C332 0.929 . S
H314 C333 0.929 1_556 S
H315 C345 0.931 . S
H316 C337 0.929 . S
H317 C346 0.945 . S
H318 C338 0.931 . S
O319 Co295 2.097 . S
O319 C347 1.214 1_556 S
H320 C348 0.929 . S
H321 C349 0.899 1_554 S
H322 C350 0.930 1_554 S
H323 C351 0.929 . S
H324 C353 0.930 . S
H325 C330 0.930 . S
H326 C334 0.930 . S
O327 Co296 2.037 1_554 S
O327 C347 1.234 . S
C328 O302 1.269 . S
C328 O303 1.257 . S
C329 H304 0.930 . S
C329 C332 1.388 . S
C329 C334 1.418 . S
C330 H325 0.930 . S
C330 C333 1.404 . S
C330 C334 1.353 . S
N331 Co296 2.145 1_554 S
N331 C332 1.397 . S
N331 C333 1.334 . S
C332 H313 0.929 . S
C332 C329 1.388 . S
C332 N331 1.397 . S
C333 H314 0.929 1_554 S
C333 C330 1.404 . S
C333 N331 1.334 . S
C334 H326 0.930 . S
C334 C329 1.418 . S
C334 C330 1.353 . S
C335 H305 0.930 . S
C335 N336 1.330 . S
C335 C337 1.446 . S
N336 Co295 2.151 . S
N336 C335 1.330 . S
N336 C340 1.418 . S
C337 H316 0.929 . S
C337 C335 1.446 . S
C337 C338 1.332 . S
C338 H318 0.931 . S
C338 C337 1.332 . S
C338 C339 1.267 . S
C339 H307 0.929 . S
C339 C338 1.267 . S
C339 C340 1.251 . S
C340 H310 0.929 . S
C340 N336 1.418 . S
C340 C339 1.251 . S
C341 H308 0.930 . S
C341 C343 1.406 . S
C341 C346 1.261 . S
C342 H309 0.930 1_556 S
C342 N344 1.325 . S
C342 C345 1.357 1_556 S
C343 H311 0.928 . S
C343 C341 1.406 . S
C343 N344 1.261 . S
N344 Co295 2.214 . S
N344 C342 1.325 . S
N344 C343 1.261 . S
C345 H315 0.931 . S
C345 C342 1.357 1_554 S
C345 C346 1.312 1_554 S
C346 H317 0.945 . S
C346 C341 1.261 . S
C346 C345 1.312 1_556 S
C347 O319 1.214 1_554 S
C347 O327 1.234 . S
C348 H320 0.929 . S
C348 C351 1.391 . S
C348 C353 1.391 . S
C349 H321 0.899 1_556 S
C349 C350 1.395 . S
C349 N352 1.417 . S
C350 H322 0.930 1_556 S
C350 C349 1.395 . S
C350 C351 1.392 . S
C351 H323 0.929 . S
C351 C348 1.391 . S
C351 C350 1.392 . S
N352 Co296 2.257 . S
N352 C349 1.417 . S
N352 C353 1.388 . S
C353 H324 0.930 . S
C353 C348 1.391 . S
C353 N352 1.388 . S
Co354 O356 2.143 . S
Co354 O362 2.074 . S
Co354 O365 2.093 . S
Co354 O378 2.097 . S
Co354 N395 2.151 . S
Co354 N403 2.214 . S
Co355 O356 2.160 . S
Co355 O361 2.058 . S
Co355 O371 2.057 . S
Co355 O386 2.037 . S
Co355 N390 2.145 . S
Co355 N411 2.257 . S
O356 Co354 2.143 . S
O356 Co355 2.160 . S
C357 O358 1.278 . S
C357 O365 1.224 . S
O358 C357 1.278 . S
C359 O360 1.245 . S
C359 O371 1.232 . S
O360 C359 1.245 . S
O361 Co355 2.058 . S
O361 C387 1.269 . S
O362 Co354 2.074 . S
O362 C387 1.257 . S
H363 C388 0.930 . S
H364 C394 0.930 . S
O365 Co354 2.093 . S
O365 C357 1.224 . S
H366 C398 0.929 . S
H367 C400 0.930 . S
H368 C401 0.930 . S
H369 C399 0.929 . S
H370 C402 0.928 . S
O371 Co355 2.057 . S
O371 C359 1.232 . S
H372 C391 0.929 . S
H373 C392 0.929 . S
H374 C404 0.931 . S
H375 C396 0.929 . S
H376 C405 0.930 . S
H377 C397 0.931 . S
O378 Co354 2.097 . S
O378 C406 1.214 . S
H379 C407 0.929 . S
H380 C408 0.929 . S
H381 C409 0.930 . S
H382 C410 0.929 . S
H383 C412 0.930 . S
H384 C389 0.930 . S
H385 C393 0.930 . S
O386 Co355 2.037 . S
O386 C406 1.234 . S
C387 O361 1.269 . S
C387 O362 1.257 . S
C388 H363 0.930 . S
C388 C391 1.388 . S
C388 C393 1.418 . S
C389 H384 0.930 . S
C389 C392 1.404 . S
C389 C393 1.353 . S
N390 Co355 2.145 . S
N390 C391 1.397 . S
N390 C392 1.334 . S
C391 H372 0.929 . S
C391 C388 1.388 . S
C391 N390 1.397 . S
C392 H373 0.929 . S
C392 C389 1.404 . S
C392 N390 1.334 . S
C393 H385 0.930 . S
C393 C388 1.418 . S
C393 C389 1.353 . S
C394 H364 0.930 . S
C394 N395 1.330 . S
C394 C396 1.446 . S
N395 Co354 2.151 . S
N395 C394 1.330 . S
N395 C399 1.418 1_565 S
C396 H375 0.929 . S
C396 C394 1.446 . S
C396 C397 1.332 1_565 S
C397 H377 0.931 . S
C397 C396 1.332 1_545 S
C397 C398 1.267 . S
C398 H366 0.929 . S
C398 C397 1.267 . S
C398 C399 1.251 . S
C399 H369 0.929 . S
C399 N395 1.418 1_545 S
C399 C398 1.251 . S
C400 H367 0.930 . S
C400 C402 1.406 . S
C400 C405 1.261 . S
C401 H368 0.930 . S
C401 N403 1.325 . S
C401 C404 1.357 . S
C402 H370 0.928 . S
C402 C400 1.406 . S
C402 N403 1.261 . S
N403 Co354 2.214 . S
N403 C401 1.325 . S
N403 C402 1.261 . S
C404 H374 0.931 . S
C404 C401 1.357 . S
C404 C405 1.312 . S
C405 H376 0.930 . S
C405 C400 1.261 . S
C405 C404 1.312 . S
C406 O378 1.214 . S
C406 O386 1.234 . S
C407 H379 0.929 . S
C407 C410 1.391 . S
C407 C412 1.391 . S
C408 H380 0.929 . S
C408 C409 1.390 . S
C408 N411 1.391 . S
C409 H381 0.930 . S
C409 C408 1.390 . S
C409 C410 1.392 . S
C410 H382 0.929 . S
C410 C407 1.391 . S
C410 C409 1.392 . S
N411 Co355 2.257 . S
N411 C408 1.391 . S
N411 C412 1.388 . S
C412 H383 0.930 . S
C412 C407 1.391 . S
C412 N411 1.388 . S
Co413 O415 2.143 . S
Co413 O421 2.074 . S
Co413 O424 2.093 . S
Co413 O437 2.097 . S
Co413 N454 2.151 . S
Co413 N462 2.214 . S
Co414 O415 2.160 . S
Co414 O420 2.058 . S
Co414 O430 2.057 . S
Co414 O445 2.037 . S
Co414 N449 2.145 . S
Co414 N470 2.257 . S
O415 Co413 2.143 . S
O415 Co414 2.160 . S
C416 O417 1.278 . S
C416 O424 1.224 . S
O417 C416 1.278 . S
C418 O419 1.245 . S
C418 O430 1.232 . S
O419 C418 1.245 . S
O420 Co414 2.058 . S
O420 C446 1.269 . S
O421 Co413 2.074 . S
O421 C446 1.257 . S
H422 C447 0.930 . S
H423 C453 0.930 . S
O424 Co413 2.093 . S
O424 C416 1.224 . S
H425 C457 0.929 . S
H426 C459 0.930 . S
H427 C460 0.930 . S
H428 C458 0.929 . S
H429 C461 0.928 . S
O430 Co414 2.057 . S
O430 C418 1.232 . S
H431 C450 0.929 . S
H432 C451 0.929 . S
H433 C463 0.931 . S
H434 C455 0.929 . S
H435 C464 0.930 . S
H436 C456 0.931 . S
O437 Co413 2.097 . S
O437 C465 1.214 . S
H438 C466 0.929 . S
H439 C467 0.929 . S
H440 C468 0.930 . S
H441 C469 0.929 . S
H442 C471 0.930 . S
H443 C448 0.930 . S
H444 C452 0.930 . S
O445 Co414 2.037 . S
O445 C465 1.234 . S
C446 O420 1.269 . S
C446 O421 1.257 . S
C447 H422 0.930 . S
C447 C450 1.388 . S
C447 C452 1.418 . S
C448 H443 0.930 . S
C448 C451 1.404 . S
C448 C452 1.353 . S
N449 Co414 2.145 . S
N449 C450 1.397 . S
N449 C451 1.334 . S
C450 H431 0.929 . S
C450 C447 1.388 . S
C450 N449 1.397 . S
C451 H432 0.929 . S
C451 C448 1.404 . S
C451 N449 1.334 . S
C452 H444 0.930 . S
C452 C447 1.418 . S
C452 C448 1.353 . S
C453 H423 0.930 . S
C453 N454 1.330 . S
C453 C455 1.446 . S
N454 Co413 2.151 . S
N454 C453 1.330 . S
N454 C458 1.418 . S
C455 H434 0.929 . S
C455 C453 1.446 . S
C455 C456 1.332 . S
C456 H436 0.931 . S
C456 C455 1.332 . S
C456 C457 1.267 . S
C457 H425 0.929 . S
C457 C456 1.267 . S
C457 C458 1.251 . S
C458 H428 0.929 . S
C458 N454 1.418 . S
C458 C457 1.251 . S
C459 H426 0.930 . S
C459 C461 1.406 . S
C459 C464 1.261 . S
C460 H427 0.930 . S
C460 N462 1.325 . S
C460 C463 1.357 . S
C461 H429 0.928 . S
C461 C459 1.406 . S
C461 N462 1.261 . S
N462 Co413 2.214 . S
N462 C460 1.325 . S
N462 C461 1.261 . S
C463 H433 0.931 . S
C463 C460 1.357 . S
C463 C464 1.312 . S
C464 H435 0.930 . S
C464 C459 1.261 . S
C464 C463 1.312 . S
C465 O437 1.214 . S
C465 O445 1.234 . S
C466 H438 0.929 . S
C466 C469 1.391 . S
C466 C471 1.391 . S
C467 H439 0.929 . S
C467 C468 1.390 . S
C467 N470 1.391 . S
C468 H440 0.930 . S
C468 C467 1.390 . S
C468 C469 1.392 . S
C469 H441 0.929 . S
C469 C466 1.391 . S
C469 C468 1.392 . S
N470 Co414 2.257 . S
N470 C467 1.391 . S
N470 C471 1.388 . S
C471 H442 0.930 . S
C471 C466 1.391 . S
C471 N470 1.388 . S
Co472 O474 2.143 . S
Co472 O480 2.074 . S
Co472 O483 2.093 . S
Co472 O496 2.097 . S
Co472 N513 2.151 . S
Co472 N521 2.214 . S
Co473 O474 2.160 . S
Co473 O479 2.058 . S
Co473 O489 2.057 . S
Co473 O504 2.037 1_554 S
Co473 N508 2.145 1_554 S
Co473 N529 2.257 . S
O474 Co472 2.143 . S
O474 Co473 2.160 . S
C475 O476 1.278 . S
C475 O483 1.224 . S
O476 C475 1.278 . S
C477 O478 1.245 . S
C477 O489 1.232 . S
O478 C477 1.245 . S
O479 Co473 2.058 . S
O479 C505 1.269 . S
O480 Co472 2.074 . S
O480 C505 1.257 . S
H481 C506 0.930 . S
H482 C512 0.930 . S
O483 Co472 2.093 . S
O483 C475 1.224 . S
H484 C516 0.929 . S
H485 C518 0.930 . S
H486 C519 0.930 1_556 S
H487 C517 0.929 . S
H488 C520 0.928 . S
O489 Co473 2.057 . S
O489 C477 1.232 . S
H490 C509 0.929 . S
H491 C510 0.929 1_554 S
H492 C522 0.931 . S
H493 C514 0.929 . S
H494 C523 0.945 . S
H495 C515 0.931 . S
O496 Co472 2.097 . S
O496 C524 1.214 1_554 S
H497 C525 0.929 . S
H498 C526 0.899 1_556 S
H499 C527 0.930 1_556 S
H500 C528 0.929 . S
H501 C530 0.930 . S
H502 C507 0.930 . S
H503 C511 0.930 . S
O504 Co473 2.037 1_556 S
O504 C524 1.234 . S
C505 O479 1.269 . S
C505 O480 1.257 . S
C506 H481 0.930 . S
C506 C509 1.388 . S
C506 C511 1.418 . S
C507 H502 0.930 . S
C507 C510 1.404 . S
C507 C511 1.353 . S
N508 Co473 2.145 1_556 S
N508 C509 1.397 . S
N508 C510 1.334 . S
C509 H490 0.929 . S
C509 C506 1.388 . S
C509 N508 1.397 . S
C510 H491 0.929 1_556 S
C510 C507 1.404 . S
C510 N508 1.334 . S
C511 H503 0.930 . S
C511 C506 1.418 . S
C511 C507 1.353 . S
C512 H482 0.930 . S
C512 N513 1.330 . S
C512 C514 1.446 . S
N513 Co472 2.151 . S
N513 C512 1.330 . S
N513 C517 1.418 1_455 S
C514 H493 0.929 . S
C514 C512 1.446 . S
C514 C515 1.332 1_455 S
C515 H495 0.931 . S
C515 C514 1.332 1_655 S
C515 C516 1.267 . S
C516 H484 0.929 . S
C516 C515 1.267 . S
C516 C517 1.251 . S
C517 H487 0.929 . S
C517 N513 1.418 1_655 S
C517 C516 1.251 . S
C518 H485 0.930 . S
C518 C520 1.406 . S
C518 C523 1.261 . S
C519 H486 0.930 1_554 S
C519 N521 1.325 . S
C519 C522 1.357 1_554 S
C520 H488 0.928 . S
C520 C518 1.406 . S
C520 N521 1.261 . S
N521 Co472 2.214 . S
N521 C519 1.325 . S
N521 C520 1.261 . S
C522 H492 0.931 . S
C522 C519 1.357 1_556 S
C522 C523 1.312 1_556 S
C523 H494 0.945 . S
C523 C518 1.261 . S
C523 C522 1.312 1_554 S
C524 O496 1.214 1_556 S
C524 O504 1.234 . S
C525 H497 0.929 . S
C525 C528 1.391 . S
C525 C530 1.391 . S
C526 H498 0.899 1_554 S
C526 C527 1.395 . S
C526 N529 1.417 . S
C527 H499 0.930 1_554 S
C527 C526 1.395 . S
C527 C528 1.392 . S
C528 H500 0.929 . S
C528 C525 1.391 . S
C528 C527 1.392 . S
N529 Co473 2.257 . S
N529 C526 1.417 . S
N529 C530 1.388 . S
C530 H501 0.930 . S
C530 C525 1.391 . S
C530 N529 1.388 . S
Co531 O533 2.143 . S
Co531 O539 2.074 . S
Co531 O542 2.093 . S
Co531 O555 2.097 . S
Co531 N572 2.151 . S
Co531 N580 2.214 . S
Co532 O533 2.160 . S
Co532 O538 2.058 . S
Co532 O548 2.057 . S
Co532 O563 2.037 . S
Co532 N567 2.145 . S
Co532 N588 2.257 . S
O533 Co531 2.143 . S
O533 Co532 2.160 . S
C534 O535 1.278 . S
C534 O542 1.224 . S
O535 C534 1.278 . S
C536 O537 1.245 . S
C536 O548 1.232 . S
O537 C536 1.245 . S
O538 Co532 2.058 . S
O538 C564 1.269 . S
O539 Co531 2.074 . S
O539 C564 1.257 . S
H540 C565 0.930 . S
H541 C571 0.930 . S
O542 Co531 2.093 . S
O542 C534 1.224 . S
H543 C575 0.929 . S
H544 C577 0.930 . S
H545 C578 0.930 . S
H546 C576 0.929 . S
H547 C579 0.928 . S
O548 Co532 2.057 . S
O548 C536 1.232 . S
H549 C568 0.929 . S
H550 C569 0.929 . S
H551 C581 0.931 . S
H552 C573 0.929 . S
H553 C582 0.930 . S
H554 C574 0.931 . S
O555 Co531 2.097 . S
O555 C583 1.214 . S
H556 C584 0.929 . S
H557 C585 0.929 . S
H558 C586 0.930 . S
H559 C587 0.929 . S
H560 C589 0.930 . S
H561 C566 0.930 . S
H562 C570 0.930 . S
O563 Co532 2.037 . S
O563 C583 1.234 . S
C564 O538 1.269 . S
C564 O539 1.257 . S
C565 H540 0.930 . S
C565 C568 1.388 . S
C565 C570 1.418 . S
C566 H561 0.930 . S
C566 C569 1.404 . S
C566 C570 1.353 . S
N567 Co532 2.145 . S
N567 C568 1.397 . S
N567 C569 1.334 . S
C568 H549 0.929 . S
C568 C565 1.388 . S
C568 N567 1.397 . S
C569 H550 0.929 . S
C569 C566 1.404 . S
C569 N567 1.334 . S
C570 H562 0.930 . S
C570 C565 1.418 . S
C570 C566 1.353 . S
C571 H541 0.930 . S
C571 N572 1.330 . S
C571 C573 1.446 . S
N572 Co531 2.151 . S
N572 C571 1.330 . S
N572 C576 1.418 1_545 S
C573 H552 0.929 . S
C573 C571 1.446 . S
C573 C574 1.332 1_545 S
C574 H554 0.931 . S
C574 C573 1.332 1_565 S
C574 C575 1.267 . S
C575 H543 0.929 . S
C575 C574 1.267 . S
C575 C576 1.251 . S
C576 H546 0.929 . S
C576 N572 1.418 1_565 S
C576 C575 1.251 . S
C577 H544 0.930 . S
C577 C579 1.406 . S
C577 C582 1.261 . S
C578 H545 0.930 . S
C578 N580 1.325 . S
C578 C581 1.357 . S
C579 H547 0.928 . S
C579 C577 1.406 . S
C579 N580 1.261 . S
N580 Co531 2.214 . S
N580 C578 1.325 . S
N580 C579 1.261 . S
C581 H551 0.931 . S
C581 C578 1.357 . S
C581 C582 1.312 . S
C582 H553 0.930 . S
C582 C577 1.261 . S
C582 C581 1.312 . S
C583 O555 1.214 . S
C583 O563 1.234 . S
C584 H556 0.929 . S
C584 C587 1.391 . S
C584 C589 1.391 . S
C585 H557 0.929 . S
C585 C586 1.390 . S
C585 N588 1.391 . S
C586 H558 0.930 . S
C586 C585 1.390 . S
C586 C587 1.392 . S
C587 H559 0.929 . S
C587 C584 1.391 . S
C587 C586 1.392 . S
N588 Co532 2.257 . S
N588 C585 1.391 . S
N588 C589 1.388 . S
C589 H560 0.930 . S
C589 C584 1.391 . S
C589 N588 1.388 . S
Co590 O592 2.143 . S
Co590 O598 2.074 . S
Co590 O601 2.093 . S
Co590 O614 2.097 . S
Co590 N631 2.151 . S
Co590 N639 2.214 . S
Co591 O592 2.160 . S
Co591 O597 2.058 . S
Co591 O607 2.057 . S
Co591 O622 2.037 . S
Co591 N626 2.145 . S
Co591 N647 2.257 . S
O592 Co590 2.143 . S
O592 Co591 2.160 . S
C593 O594 1.278 . S
C593 O601 1.224 . S
O594 C593 1.278 . S
C595 O596 1.245 . S
C595 O607 1.232 . S
O596 C595 1.245 . S
O597 Co591 2.058 . S
O597 C623 1.269 . S
O598 Co590 2.074 . S
O598 C623 1.257 . S
H599 C624 0.930 . S
H600 C630 0.930 . S
O601 Co590 2.093 . S
O601 C593 1.224 . S
H602 C634 0.929 . S
H603 C636 0.930 . S
H604 C637 0.930 . S
H605 C635 0.929 . S
H606 C638 0.928 . S
O607 Co591 2.057 . S
O607 C595 1.232 . S
H608 C627 0.929 . S
H609 C628 0.929 . S
H610 C640 0.931 . S
H611 C632 0.929 . S
H612 C641 0.930 . S
H613 C633 0.931 . S
O614 Co590 2.097 . S
O614 C642 1.214 . S
H615 C643 0.929 . S
H616 C644 0.929 . S
H617 C645 0.930 . S
H618 C646 0.929 . S
H619 C648 0.930 . S
H620 C625 0.930 . S
H621 C629 0.930 . S
O622 Co591 2.037 . S
O622 C642 1.234 . S
C623 O597 1.269 . S
C623 O598 1.257 . S
C624 H599 0.930 . S
C624 C627 1.388 . S
C624 C629 1.418 . S
C625 H620 0.930 . S
C625 C628 1.404 . S
C625 C629 1.353 . S
N626 Co591 2.145 . S
N626 C627 1.397 . S
N626 C628 1.334 . S
C627 H608 0.929 . S
C627 C624 1.388 . S
C627 N626 1.397 . S
C628 H609 0.929 . S
C628 C625 1.404 . S
C628 N626 1.334 . S
C629 H621 0.930 . S
C629 C624 1.418 . S
C629 C625 1.353 . S
C630 H600 0.930 . S
C630 N631 1.330 . S
C630 C632 1.446 . S
N631 Co590 2.151 . S
N631 C630 1.330 . S
N631 C635 1.418 . S
C632 H611 0.929 . S
C632 C630 1.446 . S
C632 C633 1.332 . S
C633 H613 0.931 . S
C633 C632 1.332 . S
C633 C634 1.267 . S
C634 H602 0.929 . S
C634 C633 1.267 . S
C634 C635 1.251 . S
C635 H605 0.929 . S
C635 N631 1.418 . S
C635 C634 1.251 . S
C636 H603 0.930 . S
C636 C638 1.406 . S
C636 C641 1.261 . S
C637 H604 0.930 . S
C637 N639 1.325 . S
C637 C640 1.357 . S
C638 H606 0.928 . S
C638 C636 1.406 . S
C638 N639 1.261 . S
N639 Co590 2.214 . S
N639 C637 1.325 . S
N639 C638 1.261 . S
C640 H610 0.931 . S
C640 C637 1.357 . S
C640 C641 1.312 . S
C641 H612 0.930 . S
C641 C636 1.261 . S
C641 C640 1.312 . S
C642 O614 1.214 . S
C642 O622 1.234 . S
C643 H615 0.929 . S
C643 C646 1.391 . S
C643 C648 1.391 . S
C644 H616 0.929 . S
C644 C645 1.390 . S
C644 N647 1.391 . S
C645 H617 0.930 . S
C645 C644 1.390 . S
C645 C646 1.392 . S
C646 H618 0.929 . S
C646 C643 1.391 . S
C646 C645 1.392 . S
N647 Co591 2.257 . S
N647 C644 1.391 . S
N647 C648 1.388 . S
C648 H619 0.930 . S
C648 C643 1.391 . S
C648 N647 1.388 . S
Co649 O651 2.143 . S
Co649 O657 2.074 . S
Co649 O660 2.093 . S
Co649 O673 2.097 . S
Co649 N690 2.151 . S
Co649 N698 2.214 . S
Co650 O651 2.160 . S
Co650 O656 2.058 . S
Co650 O666 2.057 . S
Co650 O681 2.037 . S
Co650 N685 2.145 . S
Co650 N706 2.257 . S
O651 Co649 2.143 . S
O651 Co650 2.160 . S
C652 O653 1.278 . S
C652 O660 1.224 . S
O653 C652 1.278 . S
C654 O655 1.245 . S
C654 O666 1.232 . S
O655 C654 1.245 . S
O656 Co650 2.058 . S
O656 C682 1.269 . S
O657 Co649 2.074 . S
O657 C682 1.257 . S
H658 C683 0.930 . S
H659 C689 0.930 . S
O660 Co649 2.093 . S
O660 C652 1.224 . S
H661 C693 0.929 . S
H662 C695 0.930 . S
H663 C696 0.930 . S
H664 C694 0.929 . S
H665 C697 0.928 . S
O666 Co650 2.057 . S
O666 C654 1.232 . S
H667 C686 0.929 . S
H668 C687 0.929 . S
H669 C699 0.931 . S
H670 C691 0.929 . S
H671 C700 0.930 . S
H672 C692 0.931 . S
O673 Co649 2.097 . S
O673 C701 1.214 . S
H674 C702 0.929 . S
H675 C703 0.929 . S
H676 C704 0.930 . S
H677 C705 0.929 . S
H678 C707 0.930 . S
H679 C684 0.930 . S
H680 C688 0.930 . S
O681 Co650 2.037 . S
O681 C701 1.234 . S
C682 O656 1.269 . S
C682 O657 1.257 . S
C683 H658 0.930 . S
C683 C686 1.388 . S
C683 C688 1.418 . S
C684 H679 0.930 . S
C684 C687 1.404 . S
C684 C688 1.353 . S
N685 Co650 2.145 . S
N685 C686 1.397 . S
N685 C687 1.334 . S
C686 H667 0.929 . S
C686 C683 1.388 . S
C686 N685 1.397 . S
C687 H668 0.929 . S
C687 C684 1.404 . S
C687 N685 1.334 . S
C688 H680 0.930 . S
C688 C683 1.418 . S
C688 C684 1.353 . S
C689 H659 0.930 . S
C689 N690 1.330 . S
C689 C691 1.446 . S
N690 Co649 2.151 . S
N690 C689 1.330 . S
N690 C694 1.418 1_655 S
C691 H670 0.929 . S
C691 C689 1.446 . S
C691 C692 1.332 1_655 S
C692 H672 0.931 . S
C692 C691 1.332 1_455 S
C692 C693 1.267 . S
C693 H661 0.929 . S
C693 C692 1.267 . S
C693 C694 1.251 . S
C694 H664 0.929 . S
C694 N690 1.418 1_455 S
C694 C693 1.251 . S
C695 H662 0.930 . S
C695 C697 1.406 . S
C695 C700 1.261 . S
C696 H663 0.930 . S
C696 N698 1.325 . S
C696 C699 1.357 . S
C697 H665 0.928 . S
C697 C695 1.406 . S
C697 N698 1.261 . S
N698 Co649 2.214 . S
N698 C696 1.325 . S
N698 C697 1.261 . S
C699 H669 0.931 . S
C699 C696 1.357 . S
C699 C700 1.312 . S
C700 H671 0.930 . S
C700 C695 1.261 . S
C700 C699 1.312 . S
C701 O673 1.214 . S
C701 O681 1.234 . S
C702 H674 0.929 . S
C702 C705 1.391 . S
C702 C707 1.391 . S
C703 H675 0.929 . S
C703 C704 1.390 . S
C703 N706 1.391 . S
C704 H676 0.930 . S
C704 C703 1.390 . S
C704 C705 1.392 . S
C705 H677 0.929 . S
C705 C702 1.391 . S
C705 C704 1.392 . S
N706 Co650 2.257 . S
N706 C703 1.391 . S
N706 C707 1.388 . S
C707 H678 0.930 . S
C707 C702 1.391 . S
C707 N706 1.388 . S
H708 C720 0.930 . S
H709 C722 0.930 . S
H710 C723 0.930 . S
H711 C727 0.959 . S
H712 C727 0.959 . S
H713 C727 0.961 . S
H714 C728 0.960 . S
H715 C728 0.961 . S
H716 C728 0.959 . S
H717 C731 0.929 . S
H718 C732 0.931 . S
H719 C734 0.930 . S
C720 H708 0.930 . S
C720 C721 1.399 . S
C720 C725 1.399 . S
C721 C720 1.399 . S
C721 C722 1.376 . S
C722 H709 0.930 . S
C722 C721 1.376 . S
C722 C723 1.388 . S
C723 H710 0.930 . S
C723 C722 1.388 . S
C723 C724 1.390 . S
C724 C723 1.390 . S
C724 C725 1.394 . S
C724 C730 1.465 . S
C725 C720 1.399 . S
C725 C724 1.394 . S
C725 C726 1.516 . S
C726 C725 1.516 . S
C726 C727 1.502 . S
C726 C728 1.561 . S
C726 C729 1.526 . S
C727 H711 0.959 . S
C727 H712 0.959 . S
C727 H713 0.961 . S
C727 C726 1.502 . S
C728 H714 0.960 . S
C728 H715 0.961 . S
C728 H716 0.959 . S
C728 C726 1.561 . S
C729 C726 1.526 . S
C729 C730 1.396 . S
C729 C734 1.390 . S
C730 C724 1.465 . S
C730 C729 1.396 . S
C730 C731 1.399 . S
C731 H717 0.929 . S
C731 C730 1.399 . S
C731 C732 1.385 . S
C732 H718 0.931 . S
C732 C731 1.385 . S
C732 C733 1.389 . S
C733 C732 1.389 . S
C733 C734 1.387 . S
C734 H719 0.930 . S
C734 C729 1.390 . S
C734 C733 1.387 . S
H735 C747 0.930 . S
H736 C749 0.930 . S
H737 C750 0.930 . S
H738 C754 0.939 1_545 S
H739 C754 0.965 . S
H740 C754 0.987 . S
H741 C755 0.960 . S
H742 C755 0.961 . S
H743 C755 0.959 . S
H744 C758 0.929 . S
H745 C759 0.931 . S
H746 C761 0.930 . S
C747 H735 0.930 . S
C747 C748 1.399 . S
C747 C752 1.399 . S
C748 C747 1.399 . S
C748 C749 1.376 . S
C749 H736 0.930 . S
C749 C748 1.376 . S
C749 C750 1.388 . S
C750 H737 0.930 . S
C750 C749 1.388 . S
C750 C751 1.390 . S
C751 C750 1.390 . S
C751 C752 1.394 . S
C751 C757 1.465 . S
C752 C747 1.399 . S
C752 C751 1.394 . S
C752 C753 1.516 . S
C753 C752 1.516 . S
C753 C754 1.490 1_545 S
C753 C755 1.561 1_545 S
C753 C756 1.526 . S
C754 H738 0.939 1_565 S
C754 H739 0.965 . S
C754 H740 0.987 . S
C754 C753 1.490 1_565 S
C755 H741 0.960 . S
C755 H742 0.961 . S
C755 H743 0.959 . S
C755 C753 1.561 1_565 S
C756 C753 1.526 . S
C756 C757 1.396 . S
C756 C761 1.390 . S
C757 C751 1.465 . S
C757 C756 1.396 . S
C757 C758 1.399 . S
C758 H744 0.929 . S
C758 C757 1.399 . S
C758 C759 1.385 . S
C759 H745 0.931 . S
C759 C758 1.385 . S
C759 C760 1.389 . S
C760 C759 1.389 . S
C760 C761 1.387 . S
C761 H746 0.930 . S
C761 C756 1.390 . S
C761 C760 1.387 . S
H762 C774 0.930 . S
H763 C776 0.930 . S
H764 C777 0.930 . S
H765 C781 0.959 . S
H766 C781 0.959 . S
H767 C781 0.961 . S
H768 C782 0.960 . S
H769 C782 0.961 . S
H770 C782 0.959 . S
H771 C785 0.929 . S
H772 C786 0.931 . S
H773 C788 0.930 . S
C774 H762 0.930 . S
C774 C775 1.399 . S
C774 C779 1.399 . S
C775 C774 1.399 . S
C775 C776 1.376 . S
C776 H763 0.930 . S
C776 C775 1.376 . S
C776 C777 1.388 . S
C777 H764 0.930 . S
C777 C776 1.388 . S
C777 C778 1.390 . S
C778 C777 1.390 . S
C778 C779 1.394 . S
C778 C784 1.465 . S
C779 C774 1.399 . S
C779 C778 1.394 . S
C779 C780 1.516 . S
C780 C779 1.516 . S
C780 C781 1.502 . S
C780 C782 1.561 . S
C780 C783 1.526 . S
C781 H765 0.959 . S
C781 H766 0.959 . S
C781 H767 0.961 . S
C781 C780 1.502 . S
C782 H768 0.960 . S
C782 H769 0.961 . S
C782 H770 0.959 . S
C782 C780 1.561 . S
C783 C780 1.526 . S
C783 C784 1.396 . S
C783 C788 1.390 . S
C784 C778 1.465 . S
C784 C783 1.396 . S
C784 C785 1.399 . S
C785 H771 0.929 . S
C785 C784 1.399 . S
C785 C786 1.385 . S
C786 H772 0.931 . S
C786 C785 1.385 . S
C786 C787 1.389 . S
C787 C786 1.389 . S
C787 C788 1.387 . S
C788 H773 0.930 . S
C788 C783 1.390 . S
C788 C787 1.387 . S
H789 C801 0.930 . S
H790 C803 0.930 . S
H791 C804 0.930 . S
H792 C808 0.959 . S
H793 C808 0.959 . S
H794 C808 0.961 . S
H795 C809 0.960 . S
H796 C809 0.961 . S
H797 C809 0.959 . S
H798 C812 0.929 . S
H799 C813 0.931 . S
H800 C815 0.930 . S
C801 H789 0.930 . S
C801 C802 1.399 . S
C801 C806 1.399 . S
C802 C801 1.399 . S
C802 C803 1.376 . S
C803 H790 0.930 . S
C803 C802 1.376 . S
C803 C804 1.388 . S
C804 H791 0.930 . S
C804 C803 1.388 . S
C804 C805 1.390 . S
C805 C804 1.390 . S
C805 C806 1.394 . S
C805 C811 1.465 . S
C806 C801 1.399 . S
C806 C805 1.394 . S
C806 C807 1.516 . S
C807 C806 1.516 . S
C807 C808 1.502 . S
C807 C809 1.561 . S
C807 C810 1.526 . S
C808 H792 0.959 . S
C808 H793 0.959 . S
C808 H794 0.961 . S
C808 C807 1.502 . S
C809 H795 0.960 . S
C809 H796 0.961 . S
C809 H797 0.959 . S
C809 C807 1.561 . S
C810 C807 1.526 . S
C810 C811 1.396 . S
C810 C815 1.390 . S
C811 C805 1.465 . S
C811 C810 1.396 . S
C811 C812 1.399 . S
C812 H798 0.929 . S
C812 C811 1.399 . S
C812 C813 1.385 . S
C813 H799 0.931 . S
C813 C812 1.385 . S
C813 C814 1.389 . S
C814 C813 1.389 . S
C814 C815 1.387 . S
C815 H800 0.930 . S
C815 C810 1.390 . S
C815 C814 1.387 . S
H816 C828 0.930 . S
H817 C830 0.930 . S
H818 C831 0.930 . S
H819 C835 0.959 . S
H820 C835 0.959 . S
H821 C835 0.961 . S
H822 C836 0.960 . S
H823 C836 0.961 . S
H824 C836 0.959 1_565 S
H825 C839 0.929 . S
H826 C840 0.931 . S
H827 C842 0.930 . S
C828 H816 0.930 . S
C828 C829 1.399 . S
C828 C833 1.399 . S
C829 C828 1.399 . S
C829 C830 1.376 . S
C830 H817 0.930 . S
C830 C829 1.376 . S
C830 C831 1.388 . S
C831 H818 0.930 . S
C831 C830 1.388 . S
C831 C832 1.390 . S
C832 C831 1.390 . S
C832 C833 1.394 . S
C832 C838 1.465 . S
C833 C828 1.399 . S
C833 C832 1.394 . S
C833 C834 1.516 . S
C834 C833 1.516 . S
C834 C835 1.502 1_565 S
C834 C836 1.561 1_565 S
C834 C837 1.526 . S
C835 H819 0.959 . S
C835 H820 0.959 . S
C835 H821 0.961 . S
C835 C834 1.502 1_545 S
C836 H822 0.960 . S
C836 H823 0.961 . S
C836 H824 0.959 1_545 S
C836 C834 1.561 1_545 S
C837 C834 1.526 . S
C837 C838 1.396 . S
C837 C842 1.390 . S
C838 C832 1.465 . S
C838 C837 1.396 . S
C838 C839 1.399 . S
C839 H825 0.929 . S
C839 C838 1.399 . S
C839 C840 1.385 . S
C840 H826 0.931 . S
C840 C839 1.385 . S
C840 C841 1.389 . S
C841 C840 1.389 . S
C841 C842 1.387 . S
C842 H827 0.930 . S
C842 C837 1.390 . S
C842 C841 1.387 . S
H843 C855 0.930 . S
H844 C857 0.930 . S
H845 C858 0.930 . S
H846 C862 0.959 . S
H847 C862 0.959 . S
H848 C862 0.961 . S
H849 C863 0.960 . S
H850 C863 0.961 . S
H851 C863 0.959 . S
H852 C866 0.929 . S
H853 C867 0.931 . S
H854 C869 0.930 . S
C855 H843 0.930 . S
C855 C856 1.399 . S
C855 C860 1.399 . S
C856 C855 1.399 . S
C856 C857 1.376 . S
C857 H844 0.930 . S
C857 C856 1.376 . S
C857 C858 1.388 . S
C858 H845 0.930 . S
C858 C857 1.388 . S
C858 C859 1.390 . S
C859 C858 1.390 . S
C859 C860 1.394 . S
C859 C865 1.465 . S
C860 C855 1.399 . S
C860 C859 1.394 . S
C860 C861 1.516 . S
C861 C860 1.516 . S
C861 C862 1.502 . S
C861 C863 1.561 . S
C861 C864 1.526 . S
C862 H846 0.959 . S
C862 H847 0.959 . S
C862 H848 0.961 . S
C862 C861 1.502 . S
C863 H849 0.960 . S
C863 H850 0.961 . S
C863 H851 0.959 . S
C863 C861 1.561 . S
C864 C861 1.526 . S
C864 C865 1.396 . S
C864 C869 1.390 . S
C865 C859 1.465 . S
C865 C864 1.396 . S
C865 C866 1.399 . S
C866 H852 0.929 . S
C866 C865 1.399 . S
C866 C867 1.385 . S
C867 H853 0.931 . S
C867 C866 1.385 . S
C867 C868 1.389 . S
C868 C867 1.389 . S
C868 C869 1.387 . S
C869 H854 0.930 . S
C869 C864 1.390 . S
C869 C868 1.387 . S
H870 C882 0.930 . S
H871 C884 0.930 . S
H872 C885 0.930 . S
H873 C889 0.959 . S
H874 C889 0.959 . S
H875 C889 0.961 . S
H876 C890 0.960 . S
H877 C890 0.961 . S
H878 C890 0.959 . S
H879 C893 0.929 . S
H880 C894 0.931 . S
H881 C896 0.930 . S
C882 H870 0.930 . S
C882 C883 1.399 . S
C882 C887 1.399 . S
C883 C882 1.399 . S
C883 C884 1.376 . S
C884 H871 0.930 . S
C884 C883 1.376 . S
C884 C885 1.388 . S
C885 H872 0.930 . S
C885 C884 1.388 . S
C885 C886 1.390 . S
C886 C885 1.390 . S
C886 C887 1.394 . S
C886 C892 1.465 . S
C887 C882 1.399 . S
C887 C886 1.394 . S
C887 C888 1.516 . S
C888 C887 1.516 . S
C888 C889 1.502 . S
C888 C890 1.561 . S
C888 C891 1.526 . S
C889 H873 0.959 . S
C889 H874 0.959 . S
C889 H875 0.961 . S
C889 C888 1.502 . S
C890 H876 0.960 . S
C890 H877 0.961 . S
C890 H878 0.959 . S
C890 C888 1.561 . S
C891 C888 1.526 . S
C891 C892 1.396 . S
C891 C896 1.390 . S
C892 C886 1.465 . S
C892 C891 1.396 . S
C892 C893 1.399 . S
C893 H879 0.929 . S
C893 C892 1.399 . S
C893 C894 1.385 . S
C894 H880 0.931 . S
C894 C893 1.385 . S
C894 C895 1.389 . S
C895 C894 1.389 . S
C895 C896 1.387 . S
C896 H881 0.930 . S
C896 C891 1.390 . S
C896 C895 1.387 . S
H897 C909 0.930 . S
H898 C911 0.930 . S
H899 C912 0.930 . S
H900 C916 0.959 . S
H901 C916 0.959 . S
H902 C916 0.961 . S
H903 C917 0.960 . S
H904 C917 0.961 . S
H905 C917 0.959 . S
H906 C920 0.929 . S
H907 C921 0.931 1_455 S
H908 C923 0.930 . S
C909 H897 0.930 . S
C909 C910 1.399 . S
C909 C914 1.399 . S
C910 C909 1.399 . S
C910 C911 1.376 . S
C911 H898 0.930 . S
C911 C910 1.376 . S
C911 C912 1.388 . S
C912 H899 0.930 . S
C912 C911 1.388 . S
C912 C913 1.390 . S
C913 C912 1.390 . S
C913 C914 1.394 . S
C913 C919 1.465 . S
C914 C909 1.399 . S
C914 C913 1.394 . S
C914 C915 1.516 . S
C915 C914 1.516 . S
C915 C916 1.502 . S
C915 C917 1.561 . S
C915 C918 1.526 . S
C916 H900 0.959 . S
C916 H901 0.959 . S
C916 H902 0.961 . S
C916 C915 1.502 . S
C917 H903 0.960 . S
C917 H904 0.961 . S
C917 H905 0.959 . S
C917 C915 1.561 . S
C918 C915 1.526 . S
C918 C919 1.396 . S
C918 C923 1.390 . S
C919 C913 1.465 . S
C919 C918 1.396 . S
C919 C920 1.399 . S
C920 H906 0.929 . S
C920 C919 1.399 . S
C920 C921 1.385 . S
C921 H907 0.931 1_655 S
C921 C920 1.385 . S
C921 C922 1.389 . S
C922 C921 1.389 . S
C922 C923 1.387 . S
C923 H908 0.930 . S
C923 C918 1.390 . S
C923 C922 1.387 . S
H924 C936 0.930 . S
H925 C938 0.930 . S
H926 C939 0.930 . S
H927 C943 0.959 . S
H928 C943 0.959 . S
H929 C943 0.961 . S
H930 C944 0.960 . S
H931 C944 0.961 . S
H932 C944 0.959 . S
H933 C947 0.929 . S
H934 C948 0.931 . S
H935 C950 0.930 . S
C936 H924 0.930 . S
C936 C937 1.399 . S
C936 C941 1.399 . S
C937 C936 1.399 . S
C937 C938 1.376 . S
C938 H925 0.930 . S
C938 C937 1.376 . S
C938 C939 1.388 . S
C939 H926 0.930 . S
C939 C938 1.388 . S
C939 C940 1.390 . S
C940 C939 1.390 . S
C940 C941 1.394 . S
C940 C946 1.465 . S
C941 C936 1.399 . S
C941 C940 1.394 . S
C941 C942 1.516 . S
C942 C941 1.516 . S
C942 C943 1.502 . S
C942 C944 1.561 . S
C942 C945 1.526 . S
C943 H927 0.959 . S
C943 H928 0.959 . S
C943 H929 0.961 . S
C943 C942 1.502 . S
C944 H930 0.960 . S
C944 H931 0.961 . S
C944 H932 0.959 . S
C944 C942 1.561 . S
C945 C942 1.526 . S
C945 C946 1.396 . S
C945 C950 1.390 . S
C946 C940 1.465 . S
C946 C945 1.396 . S
C946 C947 1.399 . S
C947 H933 0.929 . S
C947 C946 1.399 . S
C947 C948 1.385 . S
C948 H934 0.931 . S
C948 C947 1.385 . S
C948 C949 1.389 . S
C949 C948 1.389 . S
C949 C950 1.387 . S
C950 H935 0.930 . S
C950 C945 1.390 . S
C950 C949 1.387 . S
H951 C963 0.930 . S
H952 C965 0.930 . S
H953 C966 0.930 . S
H954 C970 0.959 . S
H955 C970 0.959 . S
H956 C970 0.961 . S
H957 C971 0.960 . S
H958 C971 0.961 . S
H959 C971 0.959 . S
H960 C974 0.929 . S
H961 C975 0.931 . S
H962 C977 0.930 . S
C963 H951 0.930 . S
C963 C964 1.399 . S
C963 C968 1.399 . S
C964 C963 1.399 . S
C964 C965 1.376 . S
C965 H952 0.930 . S
C965 C964 1.376 . S
C965 C966 1.388 . S
C966 H953 0.930 . S
C966 C965 1.388 . S
C966 C967 1.390 . S
C967 C966 1.390 . S
C967 C968 1.394 . S
C967 C973 1.465 . S
C968 C963 1.399 . S
C968 C967 1.394 . S
C968 C969 1.516 . S
C969 C968 1.516 . S
C969 C970 1.502 . S
C969 C971 1.561 . S
C969 C972 1.526 . S
C970 H954 0.959 . S
C970 H955 0.959 . S
C970 H956 0.961 . S
C970 C969 1.502 . S
C971 H957 0.960 . S
C971 H958 0.961 . S
C971 H959 0.959 . S
C971 C969 1.561 . S
C972 C969 1.526 . S
C972 C973 1.396 . S
C972 C977 1.390 . S
C973 C967 1.465 . S
C973 C972 1.396 . S
C973 C974 1.399 . S
C974 H960 0.929 . S
C974 C973 1.399 . S
C974 C975 1.385 . S
C975 H961 0.931 . S
C975 C974 1.385 . S
C975 C976 1.389 . S
C976 C975 1.389 . S
C976 C977 1.387 . S
C977 H962 0.930 . S
C977 C972 1.390 . S
C977 C976 1.387 . S
H978 C990 0.930 . S
H979 C992 0.930 . S
H980 C993 0.930 . S
H981 C997 0.959 . S
H982 C997 0.959 . S
H983 C997 0.961 . S
H984 C998 0.960 . S
H985 C998 0.961 . S
H986 C998 0.959 . S
H987 C1001 0.929 . S
H988 C1002 0.931 . S
H989 C1004 0.930 . S
C990 H978 0.930 . S
C990 C991 1.399 . S
C990 C995 1.399 . S
C991 C990 1.399 . S
C991 C992 1.376 . S
C992 H979 0.930 . S
C992 C991 1.376 . S
C992 C993 1.388 . S
C993 H980 0.930 . S
C993 C992 1.388 . S
C993 C994 1.390 . S
C994 C993 1.390 . S
C994 C995 1.394 . S
C994 C1000 1.465 . S
C995 C990 1.399 . S
C995 C994 1.394 . S
C995 C996 1.516 . S
C996 C995 1.516 . S
C996 C997 1.502 . S
C996 C998 1.561 . S
C996 C999 1.526 . S
C997 H981 0.959 . S
C997 H982 0.959 . S
C997 H983 0.961 . S
C997 C996 1.502 . S
C998 H984 0.960 . S
C998 H985 0.961 . S
C998 H986 0.959 . S
C998 C996 1.561 . S
C999 C996 1.526 . S
C999 C1000 1.396 . S
C999 C1004 1.390 . S
C1000 C994 1.465 . S
C1000 C999 1.396 . S
C1000 C1001 1.399 . S
C1001 H987 0.929 . S
C1001 C1000 1.399 . S
C1001 C1002 1.385 . S
C1002 H988 0.931 . S
C1002 C1001 1.385 . S
C1002 C1003 1.389 . S
C1003 C1002 1.389 . S
C1003 C1004 1.387 . S
C1004 H989 0.930 . S
C1004 C999 1.390 . S
C1004 C1003 1.387 . S
H1005 C1017 0.930 . S
H1006 C1019 0.930 . S
H1007 C1020 0.930 . S
H1008 C1024 0.959 . S
H1009 C1024 0.959 . S
H1010 C1024 0.961 . S
H1011 C1025 0.960 . S
H1012 C1025 0.961 . S
H1013 C1025 0.959 . S
H1014 C1028 0.929 . S
H1015 C1029 0.931 . S
H1016 C1031 0.930 . S
C1017 H1005 0.930 . S
C1017 C1018 1.399 . S
C1017 C1022 1.399 . S
C1018 C1017 1.399 . S
C1018 C1019 1.376 . S
C1019 H1006 0.930 . S
C1019 C1018 1.376 . S
C1019 C1020 1.388 . S
C1020 H1007 0.930 . S
C1020 C1019 1.388 . S
C1020 C1021 1.390 . S
C1021 C1020 1.390 . S
C1021 C1022 1.394 . S
C1021 C1027 1.465 . S
C1022 C1017 1.399 . S
C1022 C1021 1.394 . S
C1022 C1023 1.516 . S
C1023 C1022 1.516 . S
C1023 C1024 1.502 . S
C1023 C1025 1.561 . S
C1023 C1026 1.526 . S
C1024 H1008 0.959 . S
C1024 H1009 0.959 . S
C1024 H1010 0.961 . S
C1024 C1023 1.502 . S
C1025 H1011 0.960 . S
C1025 H1012 0.961 . S
C1025 H1013 0.959 . S
C1025 C1023 1.561 . S
C1026 C1023 1.526 . S
C1026 C1027 1.396 . S
C1026 C1031 1.390 . S
C1027 C1021 1.465 . S
C1027 C1026 1.396 . S
C1027 C1028 1.399 . S
C1028 H1014 0.929 . S
C1028 C1027 1.399 . S
C1028 C1029 1.385 . S
C1029 H1015 0.931 . S
C1029 C1028 1.385 . S
C1029 C1030 1.389 . S
C1030 C1029 1.389 . S
C1030 C1031 1.387 . S
C1031 H1016 0.930 . S
C1031 C1026 1.390 . S
C1031 C1030 1.387 . S
H1032 C1044 0.930 . S
H1033 C1046 0.930 . S
H1034 C1047 0.930 . S
H1035 C1051 0.959 . S
H1036 C1051 0.959 . S
H1037 C1051 0.961 . S
H1038 C1052 0.960 . S
H1039 C1052 0.961 . S
H1040 C1052 0.959 . S
H1041 C1055 0.929 . S
H1042 C1056 0.931 . S
H1043 C1058 0.930 . S
C1044 H1032 0.930 . S
C1044 C1045 1.399 . S
C1044 C1049 1.399 . S
C1045 C1044 1.399 . S
C1045 C1046 1.376 . S
C1046 H1033 0.930 . S
C1046 C1045 1.376 . S
C1046 C1047 1.388 . S
C1047 H1034 0.930 . S
C1047 C1046 1.388 . S
C1047 C1048 1.390 . S
C1048 C1047 1.390 . S
C1048 C1049 1.394 . S
C1048 C1054 1.465 . S
C1049 C1044 1.399 . S
C1049 C1048 1.394 . S
C1049 C1050 1.516 . S
C1050 C1049 1.516 . S
C1050 C1051 1.502 . S
C1050 C1052 1.561 . S
C1050 C1053 1.526 . S
C1051 H1035 0.959 . S
C1051 H1036 0.959 . S
C1051 H1037 0.961 . S
C1051 C1050 1.502 . S
C1052 H1038 0.960 . S
C1052 H1039 0.961 . S
C1052 H1040 0.959 . S
C1052 C1050 1.561 . S
C1053 C1050 1.526 . S
C1053 C1054 1.396 . S
C1053 C1058 1.390 . S
C1054 C1048 1.465 . S
C1054 C1053 1.396 . S
C1054 C1055 1.399 . S
C1055 H1041 0.929 . S
C1055 C1054 1.399 . S
C1055 C1056 1.385 . S
C1056 H1042 0.931 . S
C1056 C1055 1.385 . S
C1056 C1057 1.389 . S
C1057 C1056 1.389 . S
C1057 C1058 1.387 . S
C1058 H1043 0.930 . S
C1058 C1053 1.390 . S
C1058 C1057 1.387 . S
H1059 C1071 0.930 . S
H1060 C1073 0.930 . S
H1061 C1074 0.930 . S
H1062 C1078 0.959 . S
H1063 C1078 0.959 1_554 S
H1064 C1078 0.961 . S
H1065 C1079 0.960 . S
H1066 C1079 0.961 1_554 S
H1067 C1079 0.959 . S
H1068 C1082 0.929 . S
H1069 C1083 0.931 1_455 S
H1070 C1085 0.930 1_554 S
C1071 H1059 0.930 . S
C1071 C1072 1.399 . S
C1071 C1076 1.399 . S
C1072 C1071 1.399 . S
C1072 C1073 1.376 . S
C1073 H1060 0.930 . S
C1073 C1072 1.376 . S
C1073 C1074 1.388 . S
C1074 H1061 0.930 . S
C1074 C1073 1.388 . S
C1074 C1075 1.390 . S
C1075 C1074 1.390 . S
C1075 C1076 1.394 . S
C1075 C1081 1.465 . S
C1076 C1071 1.399 . S
C1076 C1075 1.394 . S
C1076 C1077 1.516 . S
C1077 C1076 1.516 . S
C1077 C1078 1.502 . S
C1077 C1079 1.561 . S
C1077 C1080 1.526 . S
C1078 H1062 0.959 . S
C1078 H1063 0.959 1_556 S
C1078 H1064 0.961 . S
C1078 C1077 1.502 . S
C1079 H1065 0.960 . S
C1079 H1066 0.961 1_556 S
C1079 H1067 0.959 . S
C1079 C1077 1.561 . S
C1080 C1077 1.526 . S
C1080 C1081 1.396 . S
C1080 C1085 1.390 . S
C1081 C1075 1.465 . S
C1081 C1080 1.396 . S
C1081 C1082 1.399 . S
C1082 H1068 0.929 . S
C1082 C1081 1.399 . S
C1082 C1083 1.385 . S
C1083 H1069 0.931 1_655 S
C1083 C1082 1.385 . S
C1083 C1084 1.389 . S
C1084 C1083 1.389 . S
C1084 C1085 1.387 . S
C1085 H1070 0.930 1_556 S
C1085 C1080 1.390 . S
C1085 C1084 1.387 . S
H1086 C1098 0.930 . S
H1087 C1100 0.930 1_545 S
H1088 C1101 0.930 . S
H1089 C1105 0.959 . S
H1090 C1105 0.959 . S
H1091 C1105 0.961 . S
H1092 C1106 0.960 . S
H1093 C1106 0.961 . S
H1094 C1106 0.959 . S
H1095 C1109 0.929 . S
H1096 C1110 0.931 . S
H1097 C1112 0.930 . S
C1098 H1086 0.930 . S
C1098 C1099 1.399 . S
C1098 C1103 1.399 . S
C1099 C1098 1.399 . S
C1099 C1100 1.376 . S
C1100 H1087 0.930 1_565 S
C1100 C1099 1.376 . S
C1100 C1101 1.388 . S
C1101 H1088 0.930 . S
C1101 C1100 1.388 . S
C1101 C1102 1.390 . S
C1102 C1101 1.390 . S
C1102 C1103 1.394 . S
C1102 C1108 1.465 . S
C1103 C1098 1.399 . S
C1103 C1102 1.394 . S
C1103 C1104 1.516 . S
C1104 C1103 1.516 . S
C1104 C1105 1.502 . S
C1104 C1106 1.561 . S
C1104 C1107 1.526 . S
C1105 H1089 0.959 . S
C1105 H1090 0.959 . S
C1105 H1091 0.961 . S
C1105 C1104 1.502 . S
C1106 H1092 0.960 . S
C1106 H1093 0.961 . S
C1106 H1094 0.959 . S
C1106 C1104 1.561 . S
C1107 C1104 1.526 . S
C1107 C1108 1.396 . S
C1107 C1112 1.390 . S
C1108 C1102 1.465 . S
C1108 C1107 1.396 . S
C1108 C1109 1.399 . S
C1109 H1095 0.929 . S
C1109 C1108 1.399 . S
C1109 C1110 1.385 . S
C1110 H1096 0.931 . S
C1110 C1109 1.385 . S
C1110 C1111 1.389 . S
C1111 C1110 1.389 . S
C1111 C1112 1.387 . S
C1112 H1097 0.930 . S
C1112 C1107 1.390 . S
C1112 C1111 1.387 . S
H1113 C1125 0.930 . S
H1114 C1127 0.930 . S
H1115 C1128 0.930 . S
H1116 C1132 0.959 . S
H1117 C1132 0.959 . S
H1118 C1132 0.961 . S
H1119 C1133 0.960 . S
H1120 C1133 0.961 . S
H1121 C1133 0.959 . S
H1122 C1136 0.929 . S
H1123 C1137 0.931 . S
H1124 C1139 0.930 . S
C1125 H1113 0.930 . S
C1125 C1126 1.399 . S
C1125 C1130 1.399 . S
C1126 C1125 1.399 . S
C1126 C1127 1.376 . S
C1127 H1114 0.930 . S
C1127 C1126 1.376 . S
C1127 C1128 1.388 . S
C1128 H1115 0.930 . S
C1128 C1127 1.388 . S
C1128 C1129 1.390 . S
C1129 C1128 1.390 . S
C1129 C1130 1.394 . S
C1129 C1135 1.465 . S
C1130 C1125 1.399 . S
C1130 C1129 1.394 . S
C1130 C1131 1.516 . S
C1131 C1130 1.516 . S
C1131 C1132 1.502 . S
C1131 C1133 1.561 . S
C1131 C1134 1.526 . S
C1132 H1116 0.959 . S
C1132 H1117 0.959 . S
C1132 H1118 0.961 . S
C1132 C1131 1.502 . S
C1133 H1119 0.960 . S
C1133 H1120 0.961 . S
C1133 H1121 0.959 . S
C1133 C1131 1.561 . S
C1134 C1131 1.526 . S
C1134 C1135 1.396 . S
C1134 C1139 1.390 . S
C1135 C1129 1.465 . S
C1135 C1134 1.396 . S
C1135 C1136 1.399 . S
C1136 H1122 0.929 . S
C1136 C1135 1.399 . S
C1136 C1137 1.385 . S
C1137 H1123 0.931 . S
C1137 C1136 1.385 . S
C1137 C1138 1.389 . S
C1138 C1137 1.389 . S
C1138 C1139 1.387 . S
C1139 H1124 0.930 . S
C1139 C1134 1.390 . S
C1139 C1138 1.387 . S
H1140 C1152 0.930 . S
H1141 C1154 0.930 . S
H1142 C1155 0.930 . S
H1143 C1159 0.959 . S
H1144 C1159 0.959 . S
H1145 C1159 0.961 . S
H1146 C1160 0.960 . S
H1147 C1160 0.961 . S
H1148 C1160 0.959 . S
H1149 C1163 0.929 . S
H1150 C1164 0.931 1_655 S
H1151 C1166 0.930 . S
C1152 H1140 0.930 . S
C1152 C1153 1.399 . S
C1152 C1157 1.399 . S
C1153 C1152 1.399 . S
C1153 C1154 1.376 . S
C1154 H1141 0.930 . S
C1154 C1153 1.376 . S
C1154 C1155 1.388 . S
C1155 H1142 0.930 . S
C1155 C1154 1.388 . S
C1155 C1156 1.390 . S
C1156 C1155 1.390 . S
C1156 C1157 1.394 . S
C1156 C1162 1.465 . S
C1157 C1152 1.399 . S
C1157 C1156 1.394 . S
C1157 C1158 1.516 . S
C1158 C1157 1.516 . S
C1158 C1159 1.502 . S
C1158 C1160 1.561 . S
C1158 C1161 1.526 . S
C1159 H1143 0.959 . S
C1159 H1144 0.959 . S
C1159 H1145 0.961 . S
C1159 C1158 1.502 . S
C1160 H1146 0.960 . S
C1160 H1147 0.961 . S
C1160 H1148 0.959 . S
C1160 C1158 1.561 . S
C1161 C1158 1.526 . S
C1161 C1162 1.396 . S
C1161 C1166 1.390 . S
C1162 C1156 1.465 . S
C1162 C1161 1.396 . S
C1162 C1163 1.399 . S
C1163 H1149 0.929 . S
C1163 C1162 1.399 . S
C1163 C1164 1.385 . S
C1164 H1150 0.931 1_455 S
C1164 C1163 1.385 . S
C1164 C1165 1.389 . S
C1165 C1164 1.389 . S
C1165 C1166 1.387 . S
C1166 H1151 0.930 . S
C1166 C1161 1.390 . S
C1166 C1165 1.387 . S
H1167 C1179 0.930 . S
H1168 C1181 0.930 . S
H1169 C1182 0.930 . S
H1170 C1186 0.959 . S
H1171 C1186 0.959 . S
H1172 C1186 0.961 . S
H1173 C1187 0.960 . S
H1174 C1187 0.961 . S
H1175 C1187 0.959 . S
H1176 C1190 0.929 . S
H1177 C1191 0.931 1_565 S
H1178 C1193 0.930 . S
C1179 H1167 0.930 . S
C1179 C1180 1.399 . S
C1179 C1184 1.399 . S
C1180 C1179 1.399 . S
C1180 C1181 1.376 . S
C1181 H1168 0.930 . S
C1181 C1180 1.376 . S
C1181 C1182 1.388 . S
C1182 H1169 0.930 . S
C1182 C1181 1.388 . S
C1182 C1183 1.390 . S
C1183 C1182 1.390 . S
C1183 C1184 1.394 . S
C1183 C1189 1.465 . S
C1184 C1179 1.399 . S
C1184 C1183 1.394 . S
C1184 C1185 1.516 . S
C1185 C1184 1.516 . S
C1185 C1186 1.502 . S
C1185 C1187 1.561 . S
C1185 C1188 1.526 . S
C1186 H1170 0.959 . S
C1186 H1171 0.959 . S
C1186 H1172 0.961 . S
C1186 C1185 1.502 . S
C1187 H1173 0.960 . S
C1187 H1174 0.961 . S
C1187 H1175 0.959 . S
C1187 C1185 1.561 . S
C1188 C1185 1.526 . S
C1188 C1189 1.396 . S
C1188 C1193 1.390 . S
C1189 C1183 1.465 . S
C1189 C1188 1.396 . S
C1189 C1190 1.399 . S
C1190 H1176 0.929 . S
C1190 C1189 1.399 . S
C1190 C1191 1.385 . S
C1191 H1177 0.931 1_545 S
C1191 C1190 1.385 . S
C1191 C1192 1.389 . S
C1192 C1191 1.389 . S
C1192 C1193 1.387 . S
C1193 H1178 0.930 . S
C1193 C1188 1.390 . S
C1193 C1192 1.387 . S
H1194 C1206 0.930 . S
H1195 C1208 0.930 . S
H1196 C1209 0.930 . S
H1197 C1213 0.959 . S
H1198 C1213 0.959 . S
H1199 C1213 0.961 . S
H1200 C1214 0.960 . S
H1201 C1214 0.961 . S
H1202 C1214 0.959 . S
H1203 C1217 0.929 . S
H1204 C1218 0.931 . S
H1205 C1220 0.930 . S
C1206 H1194 0.930 . S
C1206 C1207 1.399 . S
C1206 C1211 1.399 . S
C1207 C1206 1.399 . S
C1207 C1208 1.376 . S
C1208 H1195 0.930 . S
C1208 C1207 1.376 . S
C1208 C1209 1.388 . S
C1209 H1196 0.930 . S
C1209 C1208 1.388 . S
C1209 C1210 1.390 . S
C1210 C1209 1.390 . S
C1210 C1211 1.394 . S
C1210 C1216 1.465 . S
C1211 C1206 1.399 . S
C1211 C1210 1.394 . S
C1211 C1212 1.516 . S
C1212 C1211 1.516 . S
C1212 C1213 1.502 . S
C1212 C1214 1.561 . S
C1212 C1215 1.526 . S
C1213 H1197 0.959 . S
C1213 H1198 0.959 . S
C1213 H1199 0.961 . S
C1213 C1212 1.502 . S
C1214 H1200 0.960 . S
C1214 H1201 0.961 . S
C1214 H1202 0.959 . S
C1214 C1212 1.561 . S
C1215 C1212 1.526 . S
C1215 C1216 1.396 . S
C1215 C1220 1.390 . S
C1216 C1210 1.465 . S
C1216 C1215 1.396 . S
C1216 C1217 1.399 . S
C1217 H1203 0.929 . S
C1217 C1216 1.399 . S
C1217 C1218 1.385 . S
C1218 H1204 0.931 . S
C1218 C1217 1.385 . S
C1218 C1219 1.389 . S
C1219 C1218 1.389 . S
C1219 C1220 1.387 . S
C1220 H1205 0.930 . S
C1220 C1215 1.390 . S
C1220 C1219 1.387 . S
H1221 C1233 0.930 . S
H1222 C1235 0.930 . S
H1223 C1236 0.930 . S
H1224 C1240 0.959 . S
H1225 C1240 0.959 . S
H1226 C1240 0.961 . S
H1227 C1241 0.960 . S
H1228 C1241 0.961 . S
H1229 C1241 0.959 . S
H1230 C1244 0.929 . S
H1231 C1245 0.931 . S
H1232 C1247 0.930 . S
C1233 H1221 0.930 . S
C1233 C1234 1.399 . S
C1233 C1238 1.399 . S
C1234 C1233 1.399 . S
C1234 C1235 1.376 . S
C1235 H1222 0.930 . S
C1235 C1234 1.376 . S
C1235 C1236 1.388 . S
C1236 H1223 0.930 . S
C1236 C1235 1.388 . S
C1236 C1237 1.390 . S
C1237 C1236 1.390 . S
C1237 C1238 1.394 . S
C1237 C1243 1.465 . S
C1238 C1233 1.399 . S
C1238 C1237 1.394 . S
C1238 C1239 1.516 . S
C1239 C1238 1.516 . S
C1239 C1240 1.502 . S
C1239 C1241 1.561 . S
C1239 C1242 1.526 . S
C1240 H1224 0.959 . S
C1240 H1225 0.959 . S
C1240 H1226 0.961 . S
C1240 C1239 1.502 . S
C1241 H1227 0.960 . S
C1241 H1228 0.961 . S
C1241 H1229 0.959 . S
C1241 C1239 1.561 . S
C1242 C1239 1.526 . S
C1242 C1243 1.396 . S
C1242 C1247 1.390 . S
C1243 C1237 1.465 . S
C1243 C1242 1.396 . S
C1243 C1244 1.399 . S
C1244 H1230 0.929 . S
C1244 C1243 1.399 . S
C1244 C1245 1.385 . S
C1245 H1231 0.931 . S
C1245 C1244 1.385 . S
C1245 C1246 1.389 . S
C1246 C1245 1.389 . S
C1246 C1247 1.387 . S
C1247 H1232 0.930 . S
C1247 C1242 1.390 . S
C1247 C1246 1.387 . S
H1248 C1260 0.930 . S
H1249 C1262 0.930 . S
H1250 C1263 0.930 . S
H1251 C1267 0.959 . S
H1252 C1267 0.959 . S
H1253 C1267 0.961 . S
H1254 C1268 0.960 . S
H1255 C1268 0.961 . S
H1256 C1268 0.959 . S
H1257 C1271 0.929 . S
H1258 C1272 0.931 . S
H1259 C1274 0.930 . S
C1260 H1248 0.930 . S
C1260 C1261 1.399 . S
C1260 C1265 1.399 . S
C1261 C1260 1.399 . S
C1261 C1262 1.376 . S
C1262 H1249 0.930 . S
C1262 C1261 1.376 . S
C1262 C1263 1.388 . S
C1263 H1250 0.930 . S
C1263 C1262 1.388 . S
C1263 C1264 1.390 . S
C1264 C1263 1.390 . S
C1264 C1265 1.394 . S
C1264 C1270 1.465 . S
C1265 C1260 1.399 . S
C1265 C1264 1.394 . S
C1265 C1266 1.516 . S
C1266 C1265 1.516 . S
C1266 C1267 1.502 . S
C1266 C1268 1.561 . S
C1266 C1269 1.526 . S
C1267 H1251 0.959 . S
C1267 H1252 0.959 . S
C1267 H1253 0.961 . S
C1267 C1266 1.502 . S
C1268 H1254 0.960 . S
C1268 H1255 0.961 . S
C1268 H1256 0.959 . S
C1268 C1266 1.561 . S
C1269 C1266 1.526 . S
C1269 C1270 1.396 . S
C1269 C1274 1.390 . S
C1270 C1264 1.465 . S
C1270 C1269 1.396 . S
C1270 C1271 1.399 . S
C1271 H1257 0.929 . S
C1271 C1270 1.399 . S
C1271 C1272 1.385 . S
C1272 H1258 0.931 . S
C1272 C1271 1.385 . S
C1272 C1273 1.389 . S
C1273 C1272 1.389 . S
C1273 C1274 1.387 . S
C1274 H1259 0.930 . S
C1274 C1269 1.390 . S
C1274 C1273 1.387 . S
H1275 C1287 0.930 . S
H1276 C1289 0.930 . S
H1277 C1290 0.930 . S
H1278 C1294 0.959 . S
H1279 C1294 0.959 . S
H1280 C1294 0.961 . S
H1281 C1295 0.960 . S
H1282 C1295 0.961 . S
H1283 C1295 0.959 . S
H1284 C1298 0.929 . S
H1285 C1299 0.931 . S
H1286 C1301 0.930 . S
C1287 H1275 0.930 . S
C1287 C1288 1.399 . S
C1287 C1292 1.399 . S
C1288 C1287 1.399 . S
C1288 C1289 1.376 . S
C1289 H1276 0.930 . S
C1289 C1288 1.376 . S
C1289 C1290 1.388 . S
C1290 H1277 0.930 . S
C1290 C1289 1.388 . S
C1290 C1291 1.390 . S
C1291 C1290 1.390 . S
C1291 C1292 1.394 . S
C1291 C1297 1.465 . S
C1292 C1287 1.399 . S
C1292 C1291 1.394 . S
C1292 C1293 1.516 . S
C1293 C1292 1.516 . S
C1293 C1294 1.502 . S
C1293 C1295 1.561 . S
C1293 C1296 1.526 . S
C1294 H1278 0.959 . S
C1294 H1279 0.959 . S
C1294 H1280 0.961 . S
C1294 C1293 1.502 . S
C1295 H1281 0.960 . S
C1295 H1282 0.961 . S
C1295 H1283 0.959 . S
C1295 C1293 1.561 . S
C1296 C1293 1.526 . S
C1296 C1297 1.396 . S
C1296 C1301 1.390 . S
C1297 C1291 1.465 . S
C1297 C1296 1.396 . S
C1297 C1298 1.399 . S
C1298 H1284 0.929 . S
C1298 C1297 1.399 . S
C1298 C1299 1.385 . S
C1299 H1285 0.931 . S
C1299 C1298 1.385 . S
C1299 C1300 1.389 . S
C1300 C1299 1.389 . S
C1300 C1301 1.387 . S
C1301 H1286 0.930 . S
C1301 C1296 1.390 . S
C1301 C1300 1.387 . S
H1302 C1314 0.930 . S
H1303 C1316 0.930 . S
H1304 C1317 0.930 . S
H1305 C1321 0.959 . S
H1306 C1321 0.959 . S
H1307 C1321 0.961 . S
H1308 C1322 0.960 . S
H1309 C1322 0.961 . S
H1310 C1322 0.959 . S
H1311 C1325 0.929 . S
H1312 C1326 0.931 . S
H1313 C1328 0.930 . S
C1314 H1302 0.930 . S
C1314 C1315 1.399 . S
C1314 C1319 1.399 . S
C1315 C1314 1.399 . S
C1315 C1316 1.376 . S
C1316 H1303 0.930 . S
C1316 C1315 1.376 . S
C1316 C1317 1.388 . S
C1317 H1304 0.930 . S
C1317 C1316 1.388 . S
C1317 C1318 1.390 . S
C1318 C1317 1.390 . S
C1318 C1319 1.394 . S
C1318 C1324 1.465 . S
C1319 C1314 1.399 . S
C1319 C1318 1.394 . S
C1319 C1320 1.516 . S
C1320 C1319 1.516 . S
C1320 C1321 1.502 . S
C1320 C1322 1.561 . S
C1320 C1323 1.526 . S
C1321 H1305 0.959 . S
C1321 H1306 0.959 . S
C1321 H1307 0.961 . S
C1321 C1320 1.502 . S
C1322 H1308 0.960 . S
C1322 H1309 0.961 . S
C1322 H1310 0.959 . S
C1322 C1320 1.561 . S
C1323 C1320 1.526 . S
C1323 C1324 1.396 . S
C1323 C1328 1.390 . S
C1324 C1318 1.465 . S
C1324 C1323 1.396 . S
C1324 C1325 1.399 . S
C1325 H1311 0.929 . S
C1325 C1324 1.399 . S
C1325 C1326 1.385 . S
C1326 H1312 0.931 . S
C1326 C1325 1.385 . S
C1326 C1327 1.389 . S
C1327 C1326 1.389 . S
C1327 C1328 1.387 . S
C1328 H1313 0.930 . S
C1328 C1323 1.390 . S
C1328 C1327 1.387 . S
H1329 C1341 0.930 . S
H1330 C1343 0.930 . S
H1331 C1344 0.930 . S
H1332 C1348 0.959 . S
H1333 C1348 0.959 . S
H1334 C1348 0.961 . S
H1335 C1349 0.960 . S
H1336 C1349 0.961 . S
H1337 C1349 0.959 . S
H1338 C1352 0.929 . S
H1339 C1353 0.931 . S
H1340 C1355 0.930 . S
C1341 H1329 0.930 . S
C1341 C1342 1.399 . S
C1341 C1346 1.399 . S
C1342 C1341 1.399 . S
C1342 C1343 1.376 . S
C1343 H1330 0.930 . S
C1343 C1342 1.376 . S
C1343 C1344 1.388 . S
C1344 H1331 0.930 . S
C1344 C1343 1.388 . S
C1344 C1345 1.390 . S
C1345 C1344 1.390 . S
C1345 C1346 1.394 . S
C1345 C1351 1.465 . S
C1346 C1341 1.399 . S
C1346 C1345 1.394 . S
C1346 C1347 1.516 . S
C1347 C1346 1.516 . S
C1347 C1348 1.502 . S
C1347 C1349 1.561 . S
C1347 C1350 1.526 . S
C1348 H1332 0.959 . S
C1348 H1333 0.959 . S
C1348 H1334 0.961 . S
C1348 C1347 1.502 . S
C1349 H1335 0.960 . S
C1349 H1336 0.961 . S
C1349 H1337 0.959 . S
C1349 C1347 1.561 . S
C1350 C1347 1.526 . S
C1350 C1351 1.396 . S
C1350 C1355 1.390 . S
C1351 C1345 1.465 . S
C1351 C1350 1.396 . S
C1351 C1352 1.399 . S
C1352 H1338 0.929 . S
C1352 C1351 1.399 . S
C1352 C1353 1.385 . S
C1353 H1339 0.931 . S
C1353 C1352 1.385 . S
C1353 C1354 1.389 . S
C1354 C1353 1.389 . S
C1354 C1355 1.387 . S
C1355 H1340 0.930 . S
C1355 C1350 1.390 . S
C1355 C1354 1.387 . S
C721 C477 1.492 . S
C733 C5 1.518 . S
C748 C64 1.482 . S
C760 C536 1.503 . S
C775 C123 1.510 . S
C787 C595 1.483 . S
C802 C182 1.499 . S
C814 C654 1.517 . S
C829 C359 1.485 . S
C841 C241 1.496 . S
C856 C300 1.503 . S
C868 C418 1.483 . S
C883 C3 1.572 . S
C895 C328 1.578 1_554 S
C910 C62 1.567 . S
C922 C33 1.581 1_655 S
C937 C121 1.606 . S
C949 C92 1.601 1_565 S
C964 C151 1.584 . S
C976 C180 1.587 . S
C991 C210 1.593 1_455 S
C1003 C239 1.598 . S
C1018 C269 1.588 1_545 S
C1030 C298 1.592 . S
C1045 C446 1.615 . S
C1057 C357 1.608 . S
C1072 C416 1.573 . S
C1084 C505 1.592 1_656 S
C1099 C564 1.581 1_565 S
C1111 C475 1.583 . S
C1126 C534 1.586 . S
C1138 C623 1.604 . S
C1153 C593 1.570 . S
C1165 C682 1.578 1_455 S
C1180 C652 1.568 . S
C1192 C387 1.578 1_545 S
C1207 C642 1.460 . S
C1219 C52 1.458 . S
C1234 C701 1.456 . S
C1246 C111 1.457 . S
C1261 C406 1.463 . S
C1273 C170 1.460 . S
C1288 C229 1.469 . S
C1300 C465 1.471 . S
C1315 C288 1.463 . S
C1327 C524 1.466 . S
C1342 C583 1.458 . S
C1354 C347 1.457 . S
