# Generated by pormake.
# Topology rkf, (6)-cn, num edge types: 1
# Building blocks:
#     Node 0, Type 0, BuildingBlock: BETDEL_clean_sbu_0, # of connection points: 6
#     Node 1, Type 0, BuildingBlock: BETDEL_clean_sbu_0, # of connection points: 6
#     Node 2, Type 0, BuildingBlock: BETDEL_clean_sbu_0, # of connection points: 6
#     Node 3, Type 0, BuildingBlock: BETDEL_clean_sbu_0, # of connection points: 6
#     Node 4, Type 0, BuildingBlock: BETDEL_clean_sbu_0, # of connection points: 6
#     Node 5, Type 0, BuildingBlock: BETDEL_clean_sbu_0, # of connection points: 6
#     Edge 6, Type (0, 0), BuildingBlock: CIFDUS_clean_linker_0, # of connection points: 2
#     Edge 7, Type (0, 0), BuildingBlock: CIFDUS_clean_linker_0, # of connection points: 2
#     Edge 8, Type (0, 0), BuildingBlock: CIFDUS_clean_linker_0, # of connection points: 2
#     Edge 9, Type (0, 0), BuildingBlock: CIFDUS_clean_linker_0, # of connection points: 2
#     Edge 10, Type (0, 0), BuildingBlock: CIFDUS_clean_linker_0, # of connection points: 2
#     Edge 11, Type (0, 0), BuildingBlock: CIFDUS_clean_linker_0, # of connection points: 2
#     Edge 12, Type (0, 0), BuildingBlock: CIFDUS_clean_linker_0, # of connection points: 2
#     Edge 13, Type (0, 0), BuildingBlock: CIFDUS_clean_linker_0, # of connection points: 2
#     Edge 14, Type (0, 0), BuildingBlock: CIFDUS_clean_linker_0, # of connection points: 2
#     Edge 15, Type (0, 0), BuildingBlock: CIFDUS_clean_linker_0, # of connection points: 2
#     Edge 16, Type (0, 0), BuildingBlock: CIFDUS_clean_linker_0, # of connection points: 2
#     Edge 17, Type (0, 0), BuildingBlock: CIFDUS_clean_linker_0, # of connection points: 2
#     Edge 18, Type (0, 0), BuildingBlock: CIFDUS_clean_linker_0, # of connection points: 2
#     Edge 19, Type (0, 0), BuildingBlock: CIFDUS_clean_linker_0, # of connection points: 2
#     Edge 20, Type (0, 0), BuildingBlock: CIFDUS_clean_linker_0, # of connection points: 2
#     Edge 21, Type (0, 0), BuildingBlock: CIFDUS_clean_linker_0, # of connection points: 2
#     Edge 22, Type (0, 0), BuildingBlock: CIFDUS_clean_linker_0, # of connection points: 2
#     Edge 23, Type (0, 0), BuildingBlock: CIFDUS_clean_linker_0, # of connection points: 2
# Relax obj value: 0.386
# Max RMSD: 0.269
# Mean RMSD: 0.269
data_MOF--net-rkf--node1-BETDEL_clean_sbu_0--edge1-CIFDUS_clean_linker_0
_symmetry_space_group_name_H-M    P1
_symmetry_Int_Tables_number       1
_symmetry_cell_setting            triclinic
loop_
_symmetry_equiv_pos_as_xyz
'x, y, z'
_cell_length_a     22.267337
_cell_length_b     22.142851
_cell_length_c     34.849882
_cell_angle_alpha  90.005688
_cell_angle_beta   90.479983
_cell_angle_gamma 120.56079
loop_
_atom_site_label
_atom_site_type_symbol
_atom_site_fract_x
_atom_site_fract_y
_atom_site_fract_z
_atom_type_partial_charge
Dy0 Dy 0.20211 -0.02746 0.10199 0.0
C1 C 0.30405 0.22065 1.0081 0.0
C2 C 0.13765 0.85702 0.14862 0.0
Dy3 Dy 0.29137 0.12126 1.06038 0.0
O4 O 0.11112 0.86761 0.11787 0.0
O5 O 0.20168 0.90853 0.15303 0.0
O6 O 0.10498 -0.03258 0.07976 0.0
O7 O 0.19478 0.06415 0.09094 0.0
C8 C 0.13509 0.03481 0.07647 0.0
C9 C 0.35962 0.0578 0.08376 0.0
O10 O 0.30288 0.16002 0.12087 0.0
O11 O 0.25616 0.05016 0.1506 0.0
O12 O 0.33545 0.18458 1.00602 0.0
O13 O 0.27137 0.20662 1.04048 0.0
O14 O 0.39087 0.12606 0.07976 0.0
O15 O 0.29856 0.02884 1.07075 0.0
O16 O 0.208 0.93752 1.04247 0.0
O17 O 0.23012 0.04193 1.01408 0.0
C18 C 0.28854 0.12009 0.15196 0.0
C19 C 0.21061 -0.02546 1.01175 0.0
Dy20 Dy 0.24644 0.26779 0.43145 0.0
C21 C 0.09187 0.35353 0.33715 0.0
C22 C 0.26879 0.18773 0.48399 0.0
Dy23 Dy 0.17828 0.34335 0.39017 0.0
O24 O 0.2219 0.16457 0.45704 0.0
O25 O 0.30755 0.25594 0.48094 0.0
O26 O 0.18795 0.1855 0.38811 0.0
O27 O 0.14172 0.23819 0.41149 0.0
C28 C 0.13176 0.18903 0.38914 0.0
C29 C 0.2977 0.42775 0.42675 0.0
O30 O 0.13268 0.33477 0.44808 0.0
O31 O 0.207 0.30563 0.47962 0.0
O32 O 0.15899 0.39615 0.33993 0.0
O33 O 0.07207 0.30757 0.36442 0.0
O34 O 0.2517 0.4465 0.41946 0.0
O35 O 0.28083 0.37134 0.40959 0.0
O36 O 0.30945 0.29317 0.37808 0.0
O37 O 0.23198 0.31586 0.34393 0.0
C38 C 0.15872 0.32379 0.47992 0.0
C39 C 0.28498 0.30382 0.34527 0.0
Dy40 Dy 0.00993 0.2596 0.78433 0.0
C41 C 0.79582 0.09241 0.67142 0.0
C42 C 0.10853 0.30507 0.84267 0.0
Dy43 Dy 0.87681 0.18844 0.72779 0.0
O44 O 0.11068 0.27694 0.81046 0.0
O45 O 0.05419 0.31278 0.84203 0.0
O46 O 0.02876 0.1732 0.76518 0.0
O47 O 0.9284 0.15631 0.76797 0.0
C48 C -0.03656 0.12971 0.75861 0.0
C49 C 0.91261 0.31533 0.75329 0.0
O50 O 0.82229 0.15579 0.7839 0.0
O51 O 0.91807 0.2295 0.82337 0.0
O52 O 0.79477 0.07961 0.70786 0.0
O53 O 0.83748 0.15937 0.66619 0.0
O54 O 0.8499 0.27088 0.74013 0.0
O55 O -0.04558 0.2941 0.74625 0.0
O56 O 0.05999 0.31212 0.72887 0.0
O57 O -0.02796 0.2228 0.69174 0.0
C58 C 0.84997 0.18514 0.8177 0.0
C59 C 0.03519 0.27913 0.69543 0.0
Dy60 Dy 0.77412 0.0811 0.10774 0.0
C61 C 0.7175 0.85143 1.00143 0.0
C62 C 0.83119 0.18231 0.16357 0.0
Dy63 Dy 0.71963 0.93841 1.05912 0.0
O64 O 0.86532 0.16462 0.14067 0.0
O65 O 0.76453 0.1456 0.15541 0.0
O66 O 0.85564 0.13954 1.0643 0.0
O67 O 0.81883 0.03185 0.0734 0.0
C68 C 0.85433 0.08381 1.05163 0.0
C69 C 0.62742 0.94191 0.1065 0.0
O70 O 0.75362 0.90951 0.1133 0.0
O71 O 0.76465 0.00156 0.15122 0.0
O72 O 0.67658 0.87729 1.00372 0.0
O73 O 0.75808 0.87118 1.03157 0.0
O74 O 0.61858 0.88304 0.09252 0.0
O75 O 0.67664 -0.0082 0.08912 0.0
O76 O 0.72573 0.10645 1.05852 0.0
O77 O 0.71913 0.01755 1.0185 0.0
C78 C 0.76166 0.94051 0.14716 0.0
C79 C 0.71725 0.07626 1.02414 0.0
Dy80 Dy 0.7754 0.76065 0.44632 0.0
C81 C 0.92147 0.68833 0.33656 0.0
C82 C 0.74693 0.84607 0.49081 0.0
Dy83 Dy 0.83028 0.69026 0.38812 0.0
O84 O 0.78966 0.86551 0.46219 0.0
O85 O 0.7155 0.77775 0.49398 0.0
O86 O 0.87915 0.80143 0.47528 0.0
O87 O 0.87133 0.79003 0.41674 0.0
C88 C 0.91407 0.81101 0.4442 0.0
C89 C 0.69806 0.61117 0.40853 0.0
O90 O 0.84853 0.65716 0.44567 0.0
O91 O 0.76588 0.66994 0.47999 0.0
O92 O 0.85446 0.65997 0.33089 0.0
O93 O 0.93726 0.7135 0.37131 0.0
O94 O 0.73559 0.58451 0.39718 0.0
O95 O 0.73006 0.67665 0.40392 0.0
O96 O 0.75416 0.79623 0.38894 0.0
O97 O 0.80986 0.75625 0.34844 0.0
C98 C 0.80977 0.64605 0.47668 0.0
C99 C 0.77688 0.79097 0.35439 0.0
Dy100 Dy 0.93135 0.73237 0.76399 0.0
C101 C 0.143 0.89777 0.64925 0.0
C102 C 0.84838 0.71728 0.82549 0.0
Dy103 Dy 0.06583 0.81269 0.70947 0.0
O104 O 0.86894 0.76517 0.79926 0.0
O105 O 0.87113 0.67449 0.81745 0.0
O106 O 0.87134 0.7538 0.72022 0.0
O107 O -0.0208 0.82429 0.72703 0.0
C108 C 0.9261 0.808 0.70625 0.0
C109 C 0.06581 0.71586 0.75558 0.0
O110 O 0.10635 0.87795 0.76313 0.0
O111 O 0.02135 0.79527 0.80335 0.0
O112 O 0.10884 0.82946 0.64912 0.0
O113 O 0.13681 0.9194 0.68285 0.0
O114 O 0.12248 0.76417 0.73877 0.0
O115 O 0.01484 0.71872 0.74209 0.0
O116 O 0.89474 0.64884 0.71952 0.0
O117 O -0.02182 0.72437 0.67456 0.0
C118 C 0.08172 0.85328 0.79774 0.0
C119 C 0.92032 0.66422 0.68404 0.0
H120 H -0.01626 0.1901 1.04412 0.0
H121 H 0.83909 -0.01347 0.9981 0.0
H122 H 0.93356 0.96228 0.98857 0.0
H123 H 0.03981 -0.02028 1.02022 0.0
H124 H 0.16811 0.16951 0.08487 0.0
H125 H 0.10134 0.22041 1.06001 0.0
C126 C -0.02607 0.14194 1.03025 0.0
C127 C 0.90542 0.08725 1.02479 0.0
C128 C 0.02664 0.12583 1.02969 0.0
C129 C 0.89198 0.02662 1.00504 0.0
C130 C -0.05414 0.01301 0.9998 0.0
C131 C 0.05388 0.03291 1.02783 0.0
C132 C 0.10708 0.07075 1.05466 0.0
C133 C 0.01098 0.0586 1.01666 0.0
C134 C 0.12693 0.13995 1.06407 0.0
C135 C 0.08848 0.16875 1.05008 0.0
H136 H -0.02592 0.87292 0.37786 0.0
H137 H 8e-05 0.89864 0.50076 0.0
H138 H 0.05422 0.02543 0.49392 0.0
H139 H 0.07773 0.12489 0.45392 0.0
H140 H 0.05798 0.10132 0.33094 0.0
H141 H 0.00567 -0.02591 0.33723 0.0
C142 C -0.00662 0.90657 0.40307 0.0
C143 C -0.02045 0.87706 0.43985 0.0
C144 C 0.01811 -0.02215 0.39914 0.0
C145 C 0.00824 0.92064 0.47219 0.0
C146 C 0.0368 -0.00741 0.46842 0.0
C147 C 0.05916 0.09129 0.42865 0.0
C148 C 0.06995 0.12103 0.39209 0.0
C149 C 0.0374 0.02068 0.43231 0.0
C150 C 0.04786 0.07831 0.35931 0.0
C151 C 0.02088 0.00647 0.36287 0.0
H152 H 0.81758 0.8273 0.70036 0.0
H153 H 0.02243 0.90249 0.65604 0.0
H154 H 0.0492 0.02381 0.66154 0.0
H155 H 0.02967 0.10201 0.70328 0.0
H156 H 0.83351 0.0195 0.76166 0.0
H157 H 0.78757 0.90791 0.72812 0.0
C158 C 0.8668 0.87036 0.6902 0.0
C159 C 0.92116 0.85861 0.68177 0.0
C160 C 0.88403 0.9388 0.69844 0.0
C161 C -0.01749 0.91257 0.66577 0.0
C162 C -0.00214 -0.01841 0.66946 0.0
C163 C -0.02338 0.05965 0.70796 0.0
C164 C 0.9352 0.06701 0.73524 0.0
C165 C -0.0479 -0.00519 0.69018 0.0
C166 C 0.86611 0.01347 0.74091 0.0
C167 C 0.83976 0.95012 0.72162 0.0
H168 H 0.21858 0.27585 1.00562 0.0
H169 H 0.34987 0.23239 0.93454 0.0
H170 H 0.30582 0.26153 0.8772 0.0
H171 H 0.22067 0.28693 0.84659 0.0
H172 H 0.08756 0.32829 0.91729 0.0
H173 H 0.14158 0.3129 0.97516 0.0
C174 C 0.23871 0.27425 0.97766 0.0
C175 C 0.28773 0.25196 0.97453 0.0
C176 C 0.2121 0.29005 0.94457 0.0
C177 C 0.31266 0.24973 0.93794 0.0
C178 C 0.28702 0.26595 0.90504 0.0
C179 C 0.20447 0.29406 0.87466 0.0
C180 C 0.14997 0.3088 0.87747 0.0
C181 C 0.23542 0.2844 0.90788 0.0
C182 C 0.12955 0.31746 0.91416 0.0
C183 C 0.16022 0.3082 0.94733 0.0
H184 H -0.04988 0.27752 0.33007 0.0
H185 H 0.13744 0.40878 0.26641 0.0
H186 H 0.07059 0.3736 0.20638 0.0
H187 H -0.03776 0.29213 0.17157 0.0
H188 H 0.77361 0.16389 0.23456 0.0
H189 H 0.83697 0.21199 0.29524 0.0
C190 C -0.02412 0.29976 0.30311 0.0
C191 C 0.04878 0.34514 0.30265 0.0
C192 C 0.93689 0.27934 0.26857 0.0
C193 C 0.08147 0.37384 0.26757 0.0
C194 C 0.0433 0.35334 0.23317 0.0
C195 C 0.93466 0.27637 0.19859 0.0
C196 C 0.86352 0.22443 0.19871 0.0
C197 C -0.02851 0.30424 0.23323 0.0
C198 C 0.82821 0.20428 0.23378 0.0
C199 C 0.86467 0.23125 0.26847 0.0
H200 H 0.81545 0.10967 0.59376 0.0
H201 H 0.71794 0.95035 0.68021 0.0
H202 H 0.68873 0.85889 0.63201 0.0
H203 H 0.69883 0.82396 0.56548 0.0
H204 H 0.79857 -0.01525 0.47984 0.0
H205 H 0.81765 0.07455 0.52683 0.0
C206 C 0.78654 0.05489 0.60192 0.0
C207 C 0.76887 0.03722 0.64071 0.0
C208 C 0.77032 0.00226 0.57394 0.0
C209 C 0.73211 -0.03425 0.65066 0.0
C210 C 0.71553 0.91321 0.62303 0.0
C211 C 0.72332 0.87845 0.55695 0.0
C212 C 0.74688 0.8972 0.51892 0.0
C213 C 0.73536 0.93071 0.58458 0.0
C214 C 0.7796 -0.03154 0.50872 0.0
C215 C 0.79088 0.02016 0.53571 0.0
H216 H 0.78494 0.77648 0.99387 0.0
H217 H 0.67166 0.85357 0.92944 0.0
H218 H 0.69767 0.81429 0.86973 0.0
H219 H 0.76077 0.76697 0.83497 0.0
H220 H 0.86805 0.68239 0.89825 0.0
H221 H 0.83553 0.71425 0.95894 0.0
C222 C 0.76508 0.78362 0.96679 0.0
C223 C 0.7266 0.8184 0.96626 0.0
C224 C 0.77927 0.75952 0.93223 0.0
C225 C 0.70113 0.82693 0.93086 0.0
C226 C 0.71624 0.80466 0.89657 0.0
C227 C 0.77568 0.75404 0.86209 0.0
C228 C 0.81667 0.72215 0.86203 0.0
C229 C 0.75627 0.77204 0.89679 0.0
C230 C 0.83576 0.70601 0.89742 0.0
C231 C 0.81772 0.72495 0.93216 0.0
H232 H 0.89719 0.65994 0.26004 0.0
H233 H 0.06305 0.76423 0.34352 0.0
H234 H 0.1478 0.81936 0.29213 0.0
H235 H 0.17208 0.85086 0.22357 0.0
H236 H 0.00506 0.74841 0.14053 0.0
H237 H 0.92426 0.67928 0.19122 0.0
C238 C -0.04787 0.69331 0.26695 0.0
C239 C -0.0264 0.70821 0.30559 0.0
C240 C 0.00054 0.72597 0.23717 0.0
C241 C 0.04502 0.75183 0.31404 0.0
C242 C 0.09357 0.7838 0.28461 0.0
C243 C 0.11847 0.81205 0.21651 0.0
C244 C 0.09459 0.80519 0.17832 0.0
C245 C 0.07163 0.77319 0.24606 0.0
C246 C 0.0248 0.75495 0.16968 0.0
C247 C -0.02165 0.71555 0.19872 0.0
H248 H 0.23047 0.0408 0.64549 0.0
H249 H 0.11646 0.85623 0.57459 0.0
H250 H 0.14891 0.92913 0.51718 0.0
H251 H 0.20304 0.04576 0.48719 0.0
H252 H 0.32178 0.23102 0.55679 0.0
H253 H 0.29556 0.15793 0.61424 0.0
C254 C 0.21373 0.01656 0.6174 0.0
C255 C 0.17094 0.94288 0.61448 0.0
C256 C 0.23364 0.05909 0.58415 0.0
C257 C 0.14969 0.9125 0.5778 0.0
C258 C 0.16806 0.9543 0.54487 0.0
C259 C 0.22447 0.07015 0.51482 0.0
C260 C 0.26468 0.14395 0.51757 0.0
C261 C 0.20922 0.02767 0.54769 0.0
C262 C 0.29152 0.1745 0.55369 0.0
C263 C 0.27592 0.1326 0.58664 0.0
H264 H 0.47343 0.10007 0.12955 0.0
H265 H 0.31812 0.92449 1.0633 0.0
H266 H 0.37992 0.86145 0.07365 0.0
H267 H 0.48957 0.86681 0.09068 0.0
H268 H 0.64414 0.04033 0.15769 0.0
H269 H 0.57031 0.09251 0.15948 0.0
C270 C 0.45293 0.04767 0.11793 0.0
C271 C 0.39293 0.01777 0.09477 0.0
C272 C 0.48836 0.01123 0.12434 0.0
C273 C 0.3652 0.94905 0.08069 0.0
C274 C 0.40033 0.91278 0.08666 0.0
C275 C 0.50538 0.91415 0.10725 0.0
C276 C 0.57262 0.95128 0.12306 0.0
C277 C 0.46345 0.94455 0.10708 0.0
C278 C 0.59295 0.01239 0.14452 0.0
C279 C 0.55108 0.0424 0.14522 0.0
H280 H 0.38995 0.38987 0.44528 0.0
H281 H 0.36783 0.57133 0.43282 0.0
H282 H 0.4951 0.64747 0.43198 0.0
H283 H 0.60961 0.65824 0.42215 0.0
H284 H 0.62798 0.47354 0.42739 0.0
H285 H 0.50469 0.40214 0.44351 0.0
C286 C 0.41313 0.44633 0.44334 0.0
C287 C 0.37033 0.47523 0.43832 0.0
C288 C 0.48533 0.4886 0.44061 0.0
C289 C 0.40024 0.54821 0.43647 0.0
C290 C 0.47279 0.59146 0.43552 0.0
C291 C 0.58663 0.60251 0.42737 0.0
C292 C 0.62673 0.57045 0.42281 0.0
C293 C 0.51545 0.56167 0.43545 0.0
C294 C 0.59729 0.49868 0.43007 0.0
C295 C 0.52708 0.45805 0.43939 0.0
H296 H 0.04449 0.42619 0.75973 0.0
H297 H 0.82874 0.36301 0.777 0.0
H298 H 0.86174 0.48466 0.78935 0.0
H299 H -0.05164 0.60882 0.78376 0.0
H300 H 0.1621 0.6737 0.75888 0.0
H301 H 0.1344 0.55171 0.76262 0.0
C302 C 0.00501 0.43911 0.76691 0.0
C303 C 0.93423 0.38643 0.76671 0.0
C304 C 0.02416 0.5094 0.77261 0.0
C305 C 0.88342 0.40323 0.77635 0.0
C306 C 0.90226 0.47261 0.78347 0.0
C307 C -0.01077 0.59637 0.78012 0.0
C308 C 0.05665 0.64946 0.77019 0.0
C309 C -0.02801 0.52624 0.78 0.0
C310 C 0.10961 0.63332 0.76623 0.0
C311 C 0.09357 0.56356 0.76792 0.0
H312 H 0.30939 0.2489 0.17144 0.0
H313 H 0.30203 0.06571 0.21954 0.0
H314 H 0.31266 0.11283 0.28414 0.0
H315 H 0.30955 0.19919 0.3274 0.0
H316 H 0.30646 0.37686 0.27938 0.0
H317 H 0.31607 0.34 0.21467 0.0
C318 C 0.31146 0.21991 0.196 0.0
C319 C 0.3044 0.1536 0.19055 0.0
C320 C 0.31572 0.24649 0.23328 0.0
C321 C 0.30664 0.11656 0.22282 0.0
C322 C 0.31282 0.14351 0.25986 0.0
C323 C 0.31335 0.23095 0.30281 0.0
C324 C 0.30814 0.29104 0.30809 0.0
C325 C 0.3155 0.20754 0.26553 0.0
C326 C 0.31102 0.33071 0.27595 0.0
C327 C 0.31592 0.30932 0.23894 0.0
H328 H 0.22239 0.34511 0.54975 0.0
H329 H 0.03307 0.31173 0.49506 0.0
H330 H -0.01898 0.302 0.55785 0.0
H331 H -0.01506 0.29072 0.62762 0.0
H332 H 0.1736 0.32559 0.68322 0.0
H333 H 0.23107 0.34806 0.62059 0.0
C334 C 0.16999 0.33649 0.55158 0.0
C335 C 0.13122 0.32816 0.51772 0.0
C336 C 0.14043 0.33106 0.58783 0.0
C337 C 0.06393 0.31819 0.52058 0.0
C338 C 0.03403 0.31231 0.55648 0.0
C339 C 0.03908 0.30439 0.62602 0.0
C340 C 0.07507 0.30595 0.65972 0.0
C341 C 0.07117 0.31688 0.59017 0.0
C342 C 0.14521 0.32443 0.65757 0.0
C343 C 0.17768 0.33665 0.62179 0.0
H344 H 0.86963 0.25708 0.88451 0.0
H345 H 0.72645 0.06333 0.82654 0.0
H346 H 0.66015 0.01767 0.8854 0.0
H347 H 0.656 0.025 0.95539 0.0
H348 H 0.80013 0.21705 1.01403 0.0
H349 H 0.85095 0.27228 0.95273 0.0
C350 C 0.82324 0.20532 0.88466 0.0
C351 C 0.8039 0.16303 0.85147 0.0
C352 C 0.78524 0.17928 0.91869 0.0
C353 C 0.74285 0.09672 0.85178 0.0
C354 C 0.70489 0.07048 0.88546 0.0
C355 C 0.69659 0.07989 0.95454 0.0
C356 C 0.7248 0.11668 0.9891 0.0
C357 C 0.72723 0.11025 0.91939 0.0
C358 C 0.77717 0.18775 0.98778 0.0
C359 C 0.80718 0.21893 0.95275 0.0
H360 H 0.74757 -0.02938 0.22164 0.0
H361 H 0.78148 0.82864 0.1527 0.0
H362 H 0.78598 0.76912 0.21062 0.0
H363 H 0.78226 0.75823 0.28021 0.0
H364 H 0.7475 0.89805 0.35039 0.0
H365 H 0.74027 0.95703 0.2923 0.0
C366 C 0.75618 0.92678 0.21921 0.0
C367 C 0.76471 0.90457 0.18262 0.0
C368 C 0.75805 0.89217 0.25277 0.0
C369 C 0.77489 0.84707 0.18024 0.0
C370 C 0.77742 0.81293 0.21341 0.0
C371 C 0.77299 0.8016 0.28306 0.0
C372 C 0.76587 0.82392 0.31984 0.0
C373 C 0.76928 0.83515 0.24974 0.0
C374 C 0.75291 0.87956 0.32258 0.0
C375 C 0.74921 0.91352 0.28934 0.0
H376 H 0.73456 0.60062 0.54255 0.0
H377 H 0.92092 0.62826 0.48875 0.0
H378 H -0.0344 0.61739 0.55065 0.0
H379 H -0.03574 0.63015 0.62043 0.0
H380 H 0.78054 0.60662 0.67474 0.0
H381 H 0.72139 0.58347 0.61246 0.0
C382 C 0.78406 0.60231 0.54423 0.0
C383 C 0.82541 0.61776 0.5113 0.0
C384 C 0.81021 0.59729 0.58013 0.0
C385 C 0.88851 0.6178 0.51373 0.0
C386 C 0.91439 0.61189 0.54921 0.0
C387 C 0.91018 0.61683 0.61867 0.0
C388 C 0.87703 0.62121 0.65171 0.0
C389 C 0.87761 0.60604 0.58273 0.0
C390 C 0.80694 0.60343 0.64952 0.0
C391 C 0.77353 0.5913 0.61383 0.0
H392 H 0.08287 0.79015 0.86317 0.0
H393 H 0.17099 -0.00591 0.81093 0.0
H394 H 0.22265 0.04982 0.87301 0.0
H395 H 0.23343 0.03959 0.94274 0.0
H396 H 0.14343 0.83455 0.99437 0.0
H397 H 0.10155 0.77981 0.9314 0.0
C398 C 0.11388 0.8469 0.86526 0.0
C399 C 0.1225 0.8882 0.83273 0.0
C400 C 0.14239 0.87804 0.90083 0.0
C401 C 0.16383 0.9614 0.8356 0.0
C402 C 0.1928 -0.00692 0.8711 0.0
C403 C 0.20499 -0.01714 0.94029 0.0
C404 C 0.19077 0.94109 0.97338 0.0
C405 C 0.18094 0.95182 0.90403 0.0
C406 C 0.15481 0.86783 0.96948 0.0
C407 C 0.13076 0.83654 0.9335 0.0
loop_
_geom_bond_atom_site_label_1
_geom_bond_atom_site_label_2
_geom_bond_distance
_geom_bond_site_symmetry_2
_ccdc_geom_bond_type
Dy0 O4 2.398 . S
Dy0 O5 2.491 . S
Dy0 O6 2.404 1_565 S
Dy0 O7 2.666 1_564 S
Dy0 O11 2.328 1_565 S
Dy0 O15 2.310 1_565 S
Dy0 O16 2.351 1_554 S
C1 O12 1.185 . S
C1 O13 1.355 . S
C2 O4 1.185 . S
C2 O5 1.355 . S
Dy3 O7 2.310 . S
Dy3 O10 2.351 1_556 S
Dy3 O12 2.398 . S
Dy3 O13 2.491 . S
Dy3 O14 2.403 . S
Dy3 O15 2.664 1_556 S
Dy3 O17 2.326 . S
O4 Dy0 2.398 . S
O4 C2 1.185 . S
O5 Dy0 2.491 . S
O5 C2 1.355 . S
O6 Dy0 2.404 1_545 S
O6 C8 1.254 . S
O7 Dy0 2.666 1_546 S
O7 Dy3 2.310 . S
O7 C8 1.268 1_556 S
C8 O6 1.254 . S
C8 O7 1.268 1_554 S
C9 O14 1.254 1_554 S
C9 O15 1.268 . S
O10 Dy3 2.351 1_554 S
O10 C18 1.249 . S
O11 Dy0 2.328 1_545 S
O11 C18 1.267 . S
O12 C1 1.185 . S
O12 Dy3 2.398 . S
O13 C1 1.355 . S
O13 Dy3 2.491 . S
O14 Dy3 2.403 . S
O14 C9 1.254 1_556 S
O15 Dy0 2.310 1_545 S
O15 Dy3 2.664 1_554 S
O15 C9 1.268 . S
O16 Dy0 2.351 1_556 S
O16 C19 1.249 1_565 S
O17 Dy3 2.326 . S
O17 C19 1.267 . S
C18 O10 1.249 . S
C18 O11 1.267 . S
C19 O16 1.249 1_545 S
C19 O17 1.267 . S
Dy20 O24 2.398 . S
Dy20 O25 2.491 . S
Dy20 O26 2.403 . S
Dy20 O27 2.664 . S
Dy20 O31 2.326 . S
Dy20 O35 2.310 . S
Dy20 O36 2.351 . S
C21 O32 1.185 . S
C21 O33 1.355 . S
C22 O24 1.185 . S
C22 O25 1.355 . S
Dy23 O27 2.310 . S
Dy23 O30 2.351 . S
Dy23 O32 2.398 . S
Dy23 O33 2.491 . S
Dy23 O34 2.403 . S
Dy23 O35 2.664 . S
Dy23 O37 2.326 . S
O24 Dy20 2.398 . S
O24 C22 1.185 . S
O25 Dy20 2.491 . S
O25 C22 1.355 . S
O26 Dy20 2.403 . S
O26 C28 1.254 . S
O27 Dy20 2.664 . S
O27 Dy23 2.310 . S
O27 C28 1.268 . S
C28 O26 1.254 . S
C28 O27 1.268 . S
C29 O34 1.254 . S
C29 O35 1.268 . S
O30 Dy23 2.351 . S
O30 C38 1.249 . S
O31 Dy20 2.326 . S
O31 C38 1.267 . S
O32 C21 1.185 . S
O32 Dy23 2.398 . S
O33 C21 1.355 . S
O33 Dy23 2.491 . S
O34 Dy23 2.403 . S
O34 C29 1.254 . S
O35 Dy20 2.310 . S
O35 Dy23 2.664 . S
O35 C29 1.268 . S
O36 Dy20 2.351 . S
O36 C39 1.249 . S
O37 Dy23 2.326 . S
O37 C39 1.267 . S
C38 O30 1.249 . S
C38 O31 1.267 . S
C39 O36 1.249 . S
C39 O37 1.267 . S
Dy40 O44 2.398 . S
Dy40 O45 2.491 . S
Dy40 O46 2.403 . S
Dy40 O47 2.664 1_455 S
Dy40 O51 2.326 1_455 S
Dy40 O55 2.310 . S
Dy40 O56 2.351 . S
C41 O52 1.185 . S
C41 O53 1.355 . S
C42 O44 1.185 . S
C42 O45 1.355 . S
Dy43 O47 2.310 . S
Dy43 O50 2.351 . S
Dy43 O52 2.398 . S
Dy43 O53 2.491 . S
Dy43 O54 2.403 . S
Dy43 O55 2.664 1_655 S
Dy43 O57 2.326 1_655 S
O44 Dy40 2.398 . S
O44 C42 1.185 . S
O45 Dy40 2.491 . S
O45 C42 1.355 . S
O46 Dy40 2.403 . S
O46 C48 1.254 . S
O47 Dy40 2.664 1_655 S
O47 Dy43 2.310 . S
O47 C48 1.268 1_655 S
C48 O46 1.254 . S
C48 O47 1.268 1_455 S
C49 O54 1.254 . S
C49 O55 1.268 1_655 S
O50 Dy43 2.351 . S
O50 C58 1.249 . S
O51 Dy40 2.326 1_655 S
O51 C58 1.267 . S
O52 C41 1.185 . S
O52 Dy43 2.398 . S
O53 C41 1.355 . S
O53 Dy43 2.491 . S
O54 Dy43 2.403 . S
O54 C49 1.254 . S
O55 Dy40 2.310 . S
O55 Dy43 2.664 1_455 S
O55 C49 1.268 1_455 S
O56 Dy40 2.351 . S
O56 C59 1.249 . S
O57 Dy43 2.326 1_455 S
O57 C59 1.267 . S
C58 O50 1.249 . S
C58 O51 1.267 . S
C59 O56 1.249 . S
C59 O57 1.267 . S
Dy60 O64 2.398 . S
Dy60 O65 2.491 . S
Dy60 O66 2.403 . S
Dy60 O67 2.664 1_544 S
Dy60 O71 2.326 1_545 S
Dy60 O75 2.310 . S
Dy60 O76 2.351 1_554 S
C61 O72 1.185 . S
C61 O73 1.355 . S
C62 O64 1.185 . S
C62 O65 1.355 . S
Dy63 O67 2.310 . S
Dy63 O70 2.351 1_556 S
Dy63 O72 2.398 . S
Dy63 O73 2.491 . S
Dy63 O74 2.403 . S
Dy63 O75 2.664 1_566 S
Dy63 O77 2.326 1_565 S
O64 Dy60 2.398 . S
O64 C62 1.185 . S
O65 Dy60 2.491 . S
O65 C62 1.355 . S
O66 Dy60 2.403 . S
O66 C68 1.254 . S
O67 Dy60 2.664 1_566 S
O67 Dy63 2.310 . S
O67 C68 1.268 1_566 S
C68 O66 1.254 . S
C68 O67 1.268 1_544 S
C69 O74 1.254 1_554 S
C69 O75 1.268 1_565 S
O70 Dy63 2.351 1_554 S
O70 C78 1.249 . S
O71 Dy60 2.326 1_565 S
O71 C78 1.267 . S
O72 C61 1.185 . S
O72 Dy63 2.398 . S
O73 C61 1.355 . S
O73 Dy63 2.491 . S
O74 Dy63 2.403 . S
O74 C69 1.254 1_556 S
O75 Dy60 2.310 . S
O75 Dy63 2.664 1_544 S
O75 C69 1.268 1_545 S
O76 Dy60 2.351 1_556 S
O76 C79 1.249 . S
O77 Dy63 2.326 1_545 S
O77 C79 1.267 . S
C78 O70 1.249 . S
C78 O71 1.267 . S
C79 O76 1.249 . S
C79 O77 1.267 . S
Dy80 O84 2.398 . S
Dy80 O85 2.491 . S
Dy80 O86 2.403 . S
Dy80 O87 2.664 . S
Dy80 O91 2.326 . S
Dy80 O95 2.310 . S
Dy80 O96 2.351 . S
C81 O92 1.185 . S
C81 O93 1.355 . S
C82 O84 1.185 . S
C82 O85 1.355 . S
Dy83 O87 2.310 . S
Dy83 O90 2.351 . S
Dy83 O92 2.398 . S
Dy83 O93 2.491 . S
Dy83 O94 2.403 . S
Dy83 O95 2.664 . S
Dy83 O97 2.326 . S
O84 Dy80 2.398 . S
O84 C82 1.185 . S
O85 Dy80 2.491 . S
O85 C82 1.355 . S
O86 Dy80 2.403 . S
O86 C88 1.254 . S
O87 Dy80 2.664 . S
O87 Dy83 2.310 . S
O87 C88 1.268 . S
C88 O86 1.254 . S
C88 O87 1.268 . S
C89 O94 1.254 . S
C89 O95 1.268 . S
O90 Dy83 2.351 . S
O90 C98 1.249 . S
O91 Dy80 2.326 . S
O91 C98 1.267 . S
O92 C81 1.185 . S
O92 Dy83 2.398 . S
O93 C81 1.355 . S
O93 Dy83 2.491 . S
O94 Dy83 2.403 . S
O94 C89 1.254 . S
O95 Dy80 2.310 . S
O95 Dy83 2.664 . S
O95 C89 1.268 . S
O96 Dy80 2.351 . S
O96 C99 1.249 . S
O97 Dy83 2.326 . S
O97 C99 1.267 . S
C98 O90 1.249 . S
C98 O91 1.267 . S
C99 O96 1.249 . S
C99 O97 1.267 . S
Dy100 O104 2.397 . S
Dy100 O105 2.492 . S
Dy100 O106 2.403 1_655 S
Dy100 O107 2.665 1_655 S
Dy100 O111 2.327 1_655 S
Dy100 O115 2.311 1_655 S
Dy100 O116 2.351 . S
C101 O112 1.185 . S
C101 O113 1.355 . S
C102 O104 1.185 . S
C102 O105 1.355 . S
Dy103 O107 2.310 . S
Dy103 O110 2.351 . S
Dy103 O112 2.398 . S
Dy103 O113 2.491 . S
Dy103 O114 2.403 . S
Dy103 O115 2.664 . S
Dy103 O117 2.326 . S
O104 Dy100 2.397 . S
O104 C102 1.185 . S
O105 Dy100 2.492 . S
O105 C102 1.355 . S
O106 Dy100 2.403 1_455 S
O106 C108 1.254 . S
O107 Dy100 2.665 1_455 S
O107 Dy103 2.310 . S
O107 C108 1.268 . S
C108 O106 1.254 . S
C108 O107 1.268 . S
C109 O114 1.254 . S
C109 O115 1.268 . S
O110 Dy103 2.351 . S
O110 C118 1.249 . S
O111 Dy100 2.327 1_455 S
O111 C118 1.267 . S
O112 C101 1.185 . S
O112 Dy103 2.398 . S
O113 C101 1.355 . S
O113 Dy103 2.491 . S
O114 Dy103 2.403 . S
O114 C109 1.254 . S
O115 Dy100 2.311 1_455 S
O115 Dy103 2.664 . S
O115 C109 1.268 . S
O116 Dy100 2.351 . S
O116 C119 1.249 1_655 S
O117 Dy103 2.326 . S
O117 C119 1.267 . S
C118 O110 1.249 . S
C118 O111 1.267 . S
C119 O116 1.249 1_455 S
C119 O117 1.267 . S
H120 C126 0.930 . S
H121 C129 0.930 . S
H122 C130 0.930 . S
H123 C131 0.930 . S
H124 C134 0.930 . S
H125 C135 0.930 . S
C126 H120 0.930 . S
C126 C127 1.355 1_545 S
C126 C128 1.415 1_655 S
C127 C126 1.355 1_565 S
C127 C129 1.419 1_554 S
C128 C126 1.415 1_455 S
C128 C133 1.425 1_554 S
C128 C135 1.409 . S
C129 H121 0.930 . S
C129 C127 1.419 1_556 S
C129 C130 1.362 1_655 S
C130 H122 0.930 . S
C130 C129 1.362 1_455 S
C130 C133 1.409 1_565 S
C131 H123 0.930 . S
C131 C132 1.355 1_556 S
C131 C133 1.415 . S
C132 C131 1.355 1_554 S
C132 C134 1.419 . S
C133 C128 1.425 1_556 S
C133 C130 1.409 1_545 S
C133 C131 1.415 . S
C134 H124 0.930 . S
C134 C132 1.419 . S
C134 C135 1.362 . S
C135 H125 0.930 . S
C135 C128 1.409 . S
C135 C134 1.362 . S
H136 C142 0.930 . S
H137 C145 0.930 . S
H138 C146 0.930 . S
H139 C147 0.930 . S
H140 C150 0.930 . S
H141 C151 0.930 . S
C142 H136 0.930 . S
C142 C143 1.355 1_455 S
C142 C144 1.415 1_565 S
C143 C142 1.355 1_655 S
C143 C145 1.419 . S
C144 C142 1.415 1_545 S
C144 C149 1.425 . S
C144 C151 1.409 . S
C145 H137 0.930 . S
C145 C143 1.419 . S
C145 C146 1.362 1_665 S
C146 H138 0.930 . S
C146 C145 1.362 1_445 S
C146 C149 1.409 . S
C147 H139 0.930 . S
C147 C148 1.355 . S
C147 C149 1.415 . S
C148 C147 1.355 . S
C148 C150 1.419 . S
C149 C144 1.425 . S
C149 C146 1.409 . S
C149 C147 1.415 . S
C150 H140 0.930 . S
C150 C148 1.419 . S
C150 C151 1.362 . S
C151 H141 0.930 . S
C151 C144 1.409 . S
C151 C150 1.362 . S
H152 C158 0.930 . S
H153 C161 0.930 . S
H154 C162 0.930 . S
H155 C163 0.930 . S
H156 C166 0.930 . S
H157 C167 0.930 . S
C158 H152 0.930 . S
C158 C159 1.355 . S
C158 C160 1.415 1_565 S
C159 C158 1.355 . S
C159 C161 1.419 1_565 S
C160 C158 1.415 1_545 S
C160 C165 1.425 . S
C160 C167 1.409 1_445 S
C161 H153 0.930 . S
C161 C159 1.419 1_545 S
C161 C162 1.362 . S
C162 H154 0.930 . S
C162 C161 1.362 . S
C162 C165 1.409 . S
C163 H155 0.930 . S
C163 C164 1.355 1_455 S
C163 C165 1.415 . S
C164 C163 1.355 1_655 S
C164 C166 1.419 . S
C165 C160 1.425 . S
C165 C162 1.409 . S
C165 C163 1.415 . S
C166 H156 0.930 . S
C166 C164 1.419 . S
C166 C167 1.362 1_545 S
C167 H157 0.930 . S
C167 C160 1.409 1_665 S
C167 C166 1.362 1_565 S
H168 C174 0.930 . S
H169 C177 0.930 . S
H170 C178 0.930 . S
H171 C179 0.930 . S
H172 C182 0.930 . S
H173 C183 0.930 . S
C174 H168 0.930 . S
C174 C175 1.355 . S
C174 C176 1.415 . S
C175 C174 1.355 . S
C175 C177 1.419 . S
C176 C174 1.415 . S
C176 C181 1.425 . S
C176 C183 1.409 . S
C177 H169 0.930 . S
C177 C175 1.419 . S
C177 C178 1.362 . S
C178 H170 0.930 . S
C178 C177 1.362 . S
C178 C181 1.409 . S
C179 H171 0.930 . S
C179 C180 1.355 . S
C179 C181 1.415 . S
C180 C179 1.355 . S
C180 C182 1.419 . S
C181 C176 1.425 . S
C181 C178 1.409 . S
C181 C179 1.415 . S
C182 H172 0.930 . S
C182 C180 1.419 . S
C182 C183 1.362 . S
C183 H173 0.930 . S
C183 C176 1.409 . S
C183 C182 1.362 . S
H184 C190 0.930 . S
H185 C193 0.930 . S
H186 C194 0.930 . S
H187 C195 0.930 . S
H188 C198 0.930 . S
H189 C199 0.930 . S
C190 H184 0.930 . S
C190 C191 1.355 . S
C190 C192 1.415 1_455 S
C191 C190 1.355 . S
C191 C193 1.419 . S
C192 C190 1.415 1_655 S
C192 C197 1.425 1_655 S
C192 C199 1.409 . S
C193 H185 0.930 . S
C193 C191 1.419 . S
C193 C194 1.362 . S
C194 H186 0.930 . S
C194 C193 1.362 . S
C194 C197 1.409 . S
C195 H187 0.930 . S
C195 C196 1.355 . S
C195 C197 1.415 1_655 S
C196 C195 1.355 . S
C196 C198 1.419 . S
C197 C192 1.425 1_455 S
C197 C194 1.409 . S
C197 C195 1.415 1_455 S
C198 H188 0.930 . S
C198 C196 1.419 . S
C198 C199 1.362 . S
C199 H189 0.930 . S
C199 C192 1.409 . S
C199 C198 1.362 . S
H200 C206 0.930 . S
H201 C209 0.930 . S
H202 C210 0.930 . S
H203 C211 0.930 . S
H204 C214 0.930 . S
H205 C215 0.930 . S
C206 H200 0.930 . S
C206 C207 1.355 . S
C206 C208 1.415 . S
C207 C206 1.355 . S
C207 C209 1.419 . S
C208 C206 1.415 . S
C208 C213 1.425 1_545 S
C208 C215 1.409 . S
C209 H201 0.930 . S
C209 C207 1.419 . S
C209 C210 1.362 1_545 S
C210 H202 0.930 . S
C210 C209 1.362 1_565 S
C210 C213 1.409 . S
C211 H203 0.930 . S
C211 C212 1.355 . S
C211 C213 1.415 . S
C212 C211 1.355 . S
C212 C214 1.419 . S
C213 C208 1.425 1_565 S
C213 C210 1.409 . S
C213 C211 1.415 . S
C214 H204 0.930 . S
C214 C212 1.419 . S
C214 C215 1.362 1_565 S
C215 H205 0.930 . S
C215 C208 1.409 . S
C215 C214 1.362 1_545 S
H216 C222 0.930 . S
H217 C225 0.930 . S
H218 C226 0.930 . S
H219 C227 0.930 . S
H220 C230 0.930 1_455 S
H221 C231 0.930 . S
C222 H216 0.930 . S
C222 C223 1.355 . S
C222 C224 1.415 . S
C223 C222 1.355 . S
C223 C225 1.419 . S
C224 C222 1.415 . S
C224 C229 1.425 . S
C224 C231 1.409 . S
C225 H217 0.930 . S
C225 C223 1.419 . S
C225 C226 1.362 . S
C226 H218 0.930 . S
C226 C225 1.362 . S
C226 C229 1.409 . S
C227 H219 0.930 . S
C227 C228 1.355 . S
C227 C229 1.415 . S
C228 C227 1.355 . S
C228 C230 1.419 . S
C229 C224 1.425 . S
C229 C226 1.409 . S
C229 C227 1.415 . S
C230 H220 0.930 1_655 S
C230 C228 1.419 . S
C230 C231 1.362 . S
C231 H221 0.930 . S
C231 C224 1.409 . S
C231 C230 1.362 . S
H232 C238 0.930 . S
H233 C241 0.930 . S
H234 C242 0.930 . S
H235 C243 0.930 . S
H236 C246 0.930 . S
H237 C247 0.930 . S
C238 H232 0.930 . S
C238 C239 1.355 . S
C238 C240 1.415 1_655 S
C239 C238 1.355 . S
C239 C241 1.419 1_655 S
C240 C238 1.415 1_455 S
C240 C245 1.425 . S
C240 C247 1.409 . S
C241 H233 0.930 . S
C241 C239 1.419 1_455 S
C241 C242 1.362 . S
C242 H234 0.930 . S
C242 C241 1.362 . S
C242 C245 1.409 . S
C243 H235 0.930 . S
C243 C244 1.355 . S
C243 C245 1.415 . S
C244 C243 1.355 . S
C244 C246 1.419 . S
C245 C240 1.425 . S
C245 C242 1.409 . S
C245 C243 1.415 . S
C246 H236 0.930 . S
C246 C244 1.419 . S
C246 C247 1.362 . S
C247 H237 0.930 . S
C247 C240 1.409 . S
C247 C246 1.362 . S
H248 C254 0.930 . S
H249 C257 0.930 . S
H250 C258 0.930 1_565 S
H251 C259 0.930 . S
H252 C262 0.930 . S
H253 C263 0.930 . S
C254 H248 0.930 . S
C254 C255 1.355 1_545 S
C254 C256 1.415 . S
C255 C254 1.355 1_565 S
C255 C257 1.419 . S
C256 C254 1.415 . S
C256 C261 1.425 . S
C256 C263 1.409 . S
C257 H249 0.930 . S
C257 C255 1.419 . S
C257 C258 1.362 1_565 S
C258 H250 0.930 1_545 S
C258 C257 1.362 1_545 S
C258 C261 1.409 . S
C259 H251 0.930 . S
C259 C260 1.355 . S
C259 C261 1.415 . S
C260 C259 1.355 . S
C260 C262 1.419 . S
C261 C256 1.425 . S
C261 C258 1.409 . S
C261 C259 1.415 . S
C262 H252 0.930 . S
C262 C260 1.419 . S
C262 C263 1.362 . S
C263 H253 0.930 . S
C263 C256 1.409 . S
C263 C262 1.362 . S
H264 C270 0.930 . S
H265 C273 0.930 . S
H266 C274 0.930 . S
H267 C275 0.930 . S
H268 C278 0.930 . S
H269 C279 0.930 . S
C270 H264 0.930 . S
C270 C271 1.355 . S
C270 C272 1.415 . S
C271 C270 1.355 . S
C271 C273 1.419 1_554 S
C272 C270 1.415 . S
C272 C277 1.425 . S
C272 C279 1.409 . S
C273 H265 0.930 . S
C273 C271 1.419 1_556 S
C273 C274 1.362 1_545 S
C274 H266 0.930 . S
C274 C273 1.362 1_565 S
C274 C277 1.409 1_566 S
C275 H267 0.930 . S
C275 C276 1.355 1_566 S
C275 C277 1.415 1_566 S
C276 C275 1.355 1_544 S
C276 C278 1.419 . S
C277 C272 1.425 . S
C277 C274 1.409 1_544 S
C277 C275 1.415 1_544 S
C278 H268 0.930 . S
C278 C276 1.419 . S
C278 C279 1.362 . S
C279 H269 0.930 . S
C279 C272 1.409 . S
C279 C278 1.362 . S
H280 C286 0.930 . S
H281 C289 0.930 . S
H282 C290 0.930 . S
H283 C291 0.930 . S
H284 C294 0.930 . S
H285 C295 0.930 . S
C286 H280 0.930 . S
C286 C287 1.355 . S
C286 C288 1.415 . S
C287 C286 1.355 . S
C287 C289 1.419 . S
C288 C286 1.415 . S
C288 C293 1.425 . S
C288 C295 1.409 . S
C289 H281 0.930 . S
C289 C287 1.419 . S
C289 C290 1.362 . S
C290 H282 0.930 . S
C290 C289 1.362 . S
C290 C293 1.409 . S
C291 H283 0.930 . S
C291 C292 1.355 . S
C291 C293 1.415 . S
C292 C291 1.355 . S
C292 C294 1.419 . S
C293 C288 1.425 . S
C293 C290 1.409 . S
C293 C291 1.415 . S
C294 H284 0.930 . S
C294 C292 1.419 . S
C294 C295 1.362 . S
C295 H285 0.930 . S
C295 C288 1.409 . S
C295 C294 1.362 . S
H296 C302 0.930 . S
H297 C305 0.930 . S
H298 C306 0.930 . S
H299 C307 0.930 . S
H300 C310 0.930 . S
H301 C311 0.930 . S
C302 H296 0.930 . S
C302 C303 1.355 1_455 S
C302 C304 1.415 . S
C303 C302 1.355 1_655 S
C303 C305 1.419 . S
C304 C302 1.415 . S
C304 C309 1.425 . S
C304 C311 1.409 . S
C305 H297 0.930 . S
C305 C303 1.419 . S
C305 C306 1.362 . S
C306 H298 0.930 . S
C306 C305 1.362 . S
C306 C309 1.409 1_655 S
C307 H299 0.930 . S
C307 C308 1.355 . S
C307 C309 1.415 . S
C308 C307 1.355 . S
C308 C310 1.419 . S
C309 C304 1.425 . S
C309 C306 1.409 1_455 S
C309 C307 1.415 . S
C310 H300 0.930 . S
C310 C308 1.419 . S
C310 C311 1.362 . S
C311 H301 0.930 . S
C311 C304 1.409 . S
C311 C310 1.362 . S
H312 C318 0.930 . S
H313 C321 0.930 . S
H314 C322 0.930 . S
H315 C323 0.930 . S
H316 C326 0.930 . S
H317 C327 0.930 . S
C318 H312 0.930 . S
C318 C319 1.355 . S
C318 C320 1.415 . S
C319 C318 1.355 . S
C319 C321 1.419 . S
C320 C318 1.415 . S
C320 C325 1.425 . S
C320 C327 1.409 . S
C321 H313 0.930 . S
C321 C319 1.419 . S
C321 C322 1.362 . S
C322 H314 0.930 . S
C322 C321 1.362 . S
C322 C325 1.409 . S
C323 H315 0.930 . S
C323 C324 1.355 . S
C323 C325 1.415 . S
C324 C323 1.355 . S
C324 C326 1.419 . S
C325 C320 1.425 . S
C325 C322 1.409 . S
C325 C323 1.415 . S
C326 H316 0.930 . S
C326 C324 1.419 . S
C326 C327 1.362 . S
C327 H317 0.930 . S
C327 C320 1.409 . S
C327 C326 1.362 . S
H328 C334 0.930 . S
H329 C337 0.930 . S
H330 C338 0.930 . S
H331 C339 0.930 . S
H332 C342 0.930 . S
H333 C343 0.930 . S
C334 H328 0.930 . S
C334 C335 1.355 . S
C334 C336 1.415 . S
C335 C334 1.355 . S
C335 C337 1.419 . S
C336 C334 1.415 . S
C336 C341 1.425 . S
C336 C343 1.409 . S
C337 H329 0.930 . S
C337 C335 1.419 . S
C337 C338 1.362 . S
C338 H330 0.930 . S
C338 C337 1.362 . S
C338 C341 1.409 . S
C339 H331 0.930 . S
C339 C340 1.355 . S
C339 C341 1.415 . S
C340 C339 1.355 . S
C340 C342 1.419 . S
C341 C336 1.425 . S
C341 C338 1.409 . S
C341 C339 1.415 . S
C342 H332 0.930 . S
C342 C340 1.419 . S
C342 C343 1.362 . S
C343 H333 0.930 . S
C343 C336 1.409 . S
C343 C342 1.362 . S
H344 C350 0.930 . S
H345 C353 0.930 . S
H346 C354 0.930 . S
H347 C355 0.930 . S
H348 C358 0.930 . S
H349 C359 0.930 1_455 S
C350 H344 0.930 . S
C350 C351 1.355 . S
C350 C352 1.415 . S
C351 C350 1.355 . S
C351 C353 1.419 . S
C352 C350 1.415 . S
C352 C357 1.425 . S
C352 C359 1.409 . S
C353 H345 0.930 . S
C353 C351 1.419 . S
C353 C354 1.362 . S
C354 H346 0.930 . S
C354 C353 1.362 . S
C354 C357 1.409 . S
C355 H347 0.930 . S
C355 C356 1.355 . S
C355 C357 1.415 . S
C356 C355 1.355 . S
C356 C358 1.419 . S
C357 C352 1.425 . S
C357 C354 1.409 . S
C357 C355 1.415 . S
C358 H348 0.930 . S
C358 C356 1.419 . S
C358 C359 1.362 . S
C359 H349 0.930 1_655 S
C359 C352 1.409 . S
C359 C358 1.362 . S
H360 C366 0.930 . S
H361 C369 0.930 . S
H362 C370 0.930 . S
H363 C371 0.930 . S
H364 C374 0.930 . S
H365 C375 0.930 1_545 S
C366 H360 0.930 . S
C366 C367 1.355 . S
C366 C368 1.415 . S
C367 C366 1.355 . S
C367 C369 1.419 . S
C368 C366 1.415 . S
C368 C373 1.425 . S
C368 C375 1.409 . S
C369 H361 0.930 . S
C369 C367 1.419 . S
C369 C370 1.362 . S
C370 H362 0.930 . S
C370 C369 1.362 . S
C370 C373 1.409 . S
C371 H363 0.930 . S
C371 C372 1.355 . S
C371 C373 1.415 . S
C372 C371 1.355 . S
C372 C374 1.419 . S
C373 C368 1.425 . S
C373 C370 1.409 . S
C373 C371 1.415 . S
C374 H364 0.930 . S
C374 C372 1.419 . S
C374 C375 1.362 . S
C375 H365 0.930 1_565 S
C375 C368 1.409 . S
C375 C374 1.362 . S
H376 C382 0.930 . S
H377 C385 0.930 . S
H378 C386 0.930 . S
H379 C387 0.930 . S
H380 C390 0.930 . S
H381 C391 0.930 . S
C382 H376 0.930 . S
C382 C383 1.355 . S
C382 C384 1.415 . S
C383 C382 1.355 . S
C383 C385 1.419 . S
C384 C382 1.415 . S
C384 C389 1.425 . S
C384 C391 1.409 . S
C385 H377 0.930 . S
C385 C383 1.419 . S
C385 C386 1.362 . S
C386 H378 0.930 . S
C386 C385 1.362 . S
C386 C389 1.409 . S
C387 H379 0.930 . S
C387 C388 1.355 . S
C387 C389 1.415 . S
C388 C387 1.355 . S
C388 C390 1.419 1_655 S
C389 C384 1.425 . S
C389 C386 1.409 . S
C389 C387 1.415 . S
C390 H380 0.930 . S
C390 C388 1.419 1_455 S
C390 C391 1.362 1_455 S
C391 H381 0.930 . S
C391 C384 1.409 . S
C391 C390 1.362 1_655 S
H392 C398 0.930 . S
H393 C401 0.930 . S
H394 C402 0.930 . S
H395 C403 0.930 . S
H396 C406 0.930 . S
H397 C407 0.930 . S
C398 H392 0.930 . S
C398 C399 1.355 . S
C398 C400 1.415 . S
C399 C398 1.355 . S
C399 C401 1.419 . S
C400 C398 1.415 . S
C400 C405 1.425 . S
C400 C407 1.409 1_565 S
C401 H393 0.930 . S
C401 C399 1.419 . S
C401 C402 1.362 . S
C402 H394 0.930 . S
C402 C401 1.362 . S
C402 C405 1.409 . S
C403 H395 0.930 . S
C403 C404 1.355 . S
C403 C405 1.415 . S
C404 C403 1.355 . S
C404 C406 1.419 1_565 S
C405 C400 1.425 . S
C405 C402 1.409 . S
C405 C403 1.415 . S
C406 H396 0.930 . S
C406 C404 1.419 1_545 S
C406 C407 1.362 . S
C407 H397 0.930 . S
C407 C400 1.409 1_545 S
C407 C406 1.362 . S
C127 C68 1.114 1_565 S
C132 C8 1.084 . S
C143 C88 1.038 . S
C148 C28 1.083 . S
C159 C108 1.113 . S
C164 C48 1.082 1_655 S
C175 C1 1.379 . S
C180 C42 1.359 . S
C191 C21 1.445 . S
C196 C62 1.433 . S
C207 C41 1.398 . S
C212 C82 1.335 . S
C223 C61 1.463 . S
C228 C102 1.434 . S
C239 C81 1.377 . S
C244 C2 1.332 . S
C255 C101 1.463 . S
C260 C22 1.435 . S
C271 C9 1.172 . S
C276 C69 1.208 1_545 S
C287 C29 1.170 . S
C292 C89 1.202 . S
C303 C49 1.207 . S
C308 C109 1.168 . S
C319 C18 1.944 . S
C324 C39 1.962 . S
C335 C38 1.964 . S
C340 C59 1.981 . S
C351 C58 1.958 . S
C356 C79 1.988 . S
C367 C78 1.942 . S
C372 C99 1.990 . S
C383 C98 1.922 . S
C388 C119 1.960 1_655 S
C399 C118 1.928 . S
C404 C19 1.959 1_565 S
