# Generated by pormake.
# Topology uof, (4)-cn, num edge types: 1
# Building blocks:
#     Node 0, Type 0, BuildingBlock: ICAMEG_clean_sbu_1, # of connection points: 4
#     Node 1, Type 0, BuildingBlock: ICAMEG_clean_sbu_1, # of connection points: 4
#     Node 2, Type 0, BuildingBlock: ICAMEG_clean_sbu_1, # of connection points: 4
#     Node 3, Type 0, BuildingBlock: ICAMEG_clean_sbu_1, # of connection points: 4
#     Node 4, Type 0, BuildingBlock: ICAMEG_clean_sbu_1, # of connection points: 4
#     Node 5, Type 0, BuildingBlock: ICAMEG_clean_sbu_1, # of connection points: 4
#     Node 6, Type 0, BuildingBlock: ICAMEG_clean_sbu_1, # of connection points: 4
#     Node 7, Type 0, BuildingBlock: ICAMEG_clean_sbu_1, # of connection points: 4
#     Node 8, Type 0, BuildingBlock: ICAMEG_clean_sbu_1, # of connection points: 4
#     Node 9, Type 0, BuildingBlock: ICAMEG_clean_sbu_1, # of connection points: 4
#     Node 10, Type 0, BuildingBlock: ICAMEG_clean_sbu_1, # of connection points: 4
#     Node 11, Type 0, BuildingBlock: ICAMEG_clean_sbu_1, # of connection points: 4
#     Edge 12, Type (0, 0), BuildingBlock: XIVTED_clean_linker_0, # of connection points: 2
#     Edge 13, Type (0, 0), BuildingBlock: XIVTED_clean_linker_0, # of connection points: 2
#     Edge 14, Type (0, 0), BuildingBlock: XIVTED_clean_linker_0, # of connection points: 2
#     Edge 15, Type (0, 0), BuildingBlock: XIVTED_clean_linker_0, # of connection points: 2
#     Edge 16, Type (0, 0), BuildingBlock: XIVTED_clean_linker_0, # of connection points: 2
#     Edge 17, Type (0, 0), BuildingBlock: XIVTED_clean_linker_0, # of connection points: 2
#     Edge 18, Type (0, 0), BuildingBlock: XIVTED_clean_linker_0, # of connection points: 2
#     Edge 19, Type (0, 0), BuildingBlock: XIVTED_clean_linker_0, # of connection points: 2
#     Edge 20, Type (0, 0), BuildingBlock: XIVTED_clean_linker_0, # of connection points: 2
#     Edge 21, Type (0, 0), BuildingBlock: XIVTED_clean_linker_0, # of connection points: 2
#     Edge 22, Type (0, 0), BuildingBlock: XIVTED_clean_linker_0, # of connection points: 2
#     Edge 23, Type (0, 0), BuildingBlock: XIVTED_clean_linker_0, # of connection points: 2
#     Edge 24, Type (0, 0), BuildingBlock: XIVTED_clean_linker_0, # of connection points: 2
#     Edge 25, Type (0, 0), BuildingBlock: XIVTED_clean_linker_0, # of connection points: 2
#     Edge 26, Type (0, 0), BuildingBlock: XIVTED_clean_linker_0, # of connection points: 2
#     Edge 27, Type (0, 0), BuildingBlock: XIVTED_clean_linker_0, # of connection points: 2
#     Edge 28, Type (0, 0), BuildingBlock: XIVTED_clean_linker_0, # of connection points: 2
#     Edge 29, Type (0, 0), BuildingBlock: XIVTED_clean_linker_0, # of connection points: 2
#     Edge 30, Type (0, 0), BuildingBlock: XIVTED_clean_linker_0, # of connection points: 2
#     Edge 31, Type (0, 0), BuildingBlock: XIVTED_clean_linker_0, # of connection points: 2
#     Edge 32, Type (0, 0), BuildingBlock: XIVTED_clean_linker_0, # of connection points: 2
#     Edge 33, Type (0, 0), BuildingBlock: XIVTED_clean_linker_0, # of connection points: 2
#     Edge 34, Type (0, 0), BuildingBlock: XIVTED_clean_linker_0, # of connection points: 2
#     Edge 35, Type (0, 0), BuildingBlock: XIVTED_clean_linker_0, # of connection points: 2
# Relax obj value: 0.218
# Max RMSD: 0.166
# Mean RMSD: 0.166
data_MOF--net-uof--node1-ICAMEG_clean_sbu_1--edge1-XIVTED_clean_linker_0
_symmetry_space_group_name_H-M    P1
_symmetry_Int_Tables_number       1
_symmetry_cell_setting            triclinic
loop_
_symmetry_equiv_pos_as_xyz
'x, y, z'
_cell_length_a     33.146938
_cell_length_b     33.145835
_cell_length_c     72.450702
_cell_angle_alpha  89.971729
_cell_angle_beta   89.979576
_cell_angle_gamma 120.08165
loop_
_atom_site_label
_atom_site_type_symbol
_atom_site_fract_x
_atom_site_fract_y
_atom_site_fract_z
_atom_type_partial_charge
Co0 Co 0.24787 0.31353 0.21497 0.0
Co1 Co 0.18469 0.22356 0.24422 0.0
O2 O 0.23269 0.2888 0.24008 0.0
C3 C 0.34435 0.34908 0.22967 0.0
O4 O 0.33402 0.30609 0.2332 0.0
C5 C 0.19239 0.27458 0.27937 0.0
O6 O 0.21855 0.31564 0.27178 0.0
O7 O 0.13834 0.23583 0.23147 0.0
O8 O 0.18176 0.27128 0.20652 0.0
H9 H 0.04823 0.07 0.22472 0.0
H10 H 0.27196 0.38014 0.24589 0.0
O11 O 0.3139 0.35735 0.22274 0.0
H12 H 0.16764 0.40708 0.20575 0.0
H13 H 0.32722 0.43951 0.16707 0.0
H14 H 0.22564 0.27082 0.17776 0.0
H15 H 0.18911 0.3481 0.19753 0.0
H16 H 0.30592 0.40845 0.19872 0.0
O17 O 0.16862 0.23895 0.26918 0.0
H18 H 0.11183 0.15084 0.2203 0.0
H19 H 0.15197 0.15776 0.27638 0.0
H20 H 0.24575 0.30043 0.14587 0.0
H21 H 0.25167 0.43975 0.25458 0.0
H22 H 0.29688 0.38536 0.14037 0.0
H23 H 0.19908 0.45347 0.23444 0.0
O24 O 0.26412 0.26482 0.20884 0.0
H25 H 0.32809 0.26409 0.28226 0.0
H26 H 0.20277 0.14374 0.24406 0.0
H27 H 0.26094 0.12784 0.25791 0.0
H28 H 0.32397 0.18797 0.27742 0.0
H29 H 0.27026 0.27911 0.26779 0.0
H30 H 0.08833 0.07718 0.28148 0.0
H31 H 0.03604 0.03259 0.2555 0.0
O32 O 0.19934 0.20452 0.22015 0.0
C33 C 0.14215 0.24859 0.21456 0.0
C34 C 0.07075 0.08907 0.23616 0.0
C35 C 0.09316 0.09314 0.26802 0.0
N36 N 0.13555 0.1593 0.2481 0.0
C37 C 0.1069 0.13492 0.23374 0.0
C38 C 0.1289 0.13896 0.2651 0.0
C39 C 0.06389 0.06812 0.25343 0.0
C40 C 0.2491 0.38595 0.23706 0.0
N41 N 0.2316 0.36051 0.22128 0.0
C42 C 0.23772 0.41973 0.24205 0.0
C43 C 0.20819 0.4274 0.23075 0.0
C44 C 0.19051 0.40136 0.21466 0.0
C45 C 0.20264 0.36786 0.21012 0.0
C46 C 0.30484 0.40245 0.16929 0.0
C47 C 0.2477 0.30784 0.17546 0.0
C48 C 0.29273 0.38464 0.18718 0.0
N49 N 0.26424 0.3379 0.19006 0.0
C50 C 0.25907 0.32439 0.15738 0.0
C51 C 0.28779 0.37204 0.15431 0.0
C52 C 0.23734 0.22112 0.21113 0.0
C53 C 0.30026 0.2372 0.2741 0.0
C54 C 0.22958 0.17009 0.25266 0.0
C55 C 0.26267 0.16086 0.26042 0.0
C56 C 0.29805 0.1946 0.27132 0.0
N57 N 0.231 0.21151 0.25582 0.0
C58 C 0.26665 0.24525 0.26604 0.0
Co59 Co 0.9138 0.24229 0.55714 0.0
Co60 Co 0.99047 0.20526 0.56795 0.0
O61 O 0.95624 0.23714 0.57457 0.0
C62 C 0.97428 0.3393 0.56919 0.0
O63 O 0.00929 0.33217 0.56624 0.0
C64 C 0.95738 0.17485 0.60669 0.0
O65 O 0.9163 0.16909 0.60249 0.0
O66 O 0.93071 0.14748 0.56175 0.0
O67 O 0.89467 0.17912 0.54631 0.0
H68 H 0.02847 0.10506 0.52782 0.0
H69 H 0.90617 0.25905 0.59679 0.0
O70 O 0.93255 0.30595 0.56704 0.0
H71 H 0.75297 0.12598 0.57976 0.0
H72 H 0.79426 0.28564 0.53828 0.0
H73 H 0.89247 0.22166 0.51734 0.0
H74 H 0.81555 0.16347 0.55655 0.0
H75 H 0.84682 0.27718 0.56002 0.0
O76 O 0.988 0.18523 0.5942 0.0
H77 H 0.987 0.14665 0.53635 0.0
H78 H 0.06572 0.19434 0.58586 0.0
H79 H 0.8401 0.22907 0.49517 0.0
H80 H 0.84439 0.22297 0.6204 0.0
H81 H 0.79051 0.26127 0.50561 0.0
H82 H 0.76718 0.15584 0.61193 0.0
O83 O 0.96442 0.27175 0.53853 0.0
H84 H 0.09655 0.34556 0.60619 0.0
H85 H 0.08221 0.25942 0.54881 0.0
H86 H 0.15554 0.33211 0.5554 0.0
H87 H 0.16313 0.37567 0.5843 0.0
H88 H 0.02356 0.27311 0.59892 0.0
H89 H 0.10777 0.15293 0.57791 0.0
H90 H 0.08937 0.10803 0.54867 0.0
O91 O 0.9962 0.22616 0.54178 0.0
C92 C 0.90066 0.1447 0.54998 0.0
C93 C 0.03684 0.12455 0.54059 0.0
C94 C 0.08129 0.15135 0.56872 0.0
N95 N 0.02391 0.17299 0.56158 0.0
C96 C 0.0135 0.14824 0.54549 0.0
C97 C 0.05721 0.17459 0.57318 0.0
C98 C 0.07098 0.1262 0.5523 0.0
C99 C 0.87251 0.23013 0.59298 0.0
N100 N 0.86442 0.21345 0.57533 0.0
C101 C 0.83774 0.20972 0.60642 0.0
C102 C 0.79445 0.17201 0.60166 0.0
C103 C 0.78647 0.1552 0.58362 0.0
C104 C 0.82209 0.17644 0.57056 0.0
C105 C 0.81556 0.2714 0.53358 0.0
C106 C 0.87068 0.23529 0.52202 0.0
C107 C 0.84541 0.26656 0.54582 0.0
N108 N 0.8722 0.24835 0.54001 0.0
C109 C 0.84124 0.23959 0.50939 0.0
C110 C 0.81347 0.25771 0.51525 0.0
C111 C 0.99111 0.25686 0.5332 0.0
C112 C 0.09372 0.32683 0.59358 0.0
C113 C 0.08512 0.27825 0.56138 0.0
C114 C 0.12681 0.31934 0.56506 0.0
C115 C 0.13104 0.34374 0.58128 0.0
N116 N 0.0486 0.26189 0.57349 0.0
C117 C 0.05253 0.28564 0.58943 0.0
Co118 Co 0.68102 0.92933 0.8805 0.0
Co119 Co 0.77929 0.96736 0.90578 0.0
O120 O 0.71271 0.9473 0.90438 0.0
C121 C 0.6459 0.99087 0.89479 0.0
O122 O 0.68905 0.02498 0.89678 0.0
C123 C 0.73848 0.93006 0.94334 0.0
O124 O 0.69576 0.91139 0.93701 0.0
O125 O 0.76513 0.90536 0.89589 0.0
O126 O 0.72282 0.90515 0.87174 0.0
H127 H 0.92866 0.98337 0.88123 0.0
H128 H 0.62353 0.89446 0.91437 0.0
O129 O 0.63751 0.95138 0.88868 0.0
H130 H 0.5918 0.75363 0.87966 0.0
H131 H 0.54212 0.86419 0.83806 0.0
H132 H 0.71338 0.93984 0.84177 0.0
H133 H 0.64569 0.83186 0.86724 0.0
H134 H 0.58181 0.88456 0.86824 0.0
O135 O 0.77283 0.94548 0.93218 0.0
H136 H 0.84601 0.96174 0.87992 0.0
H137 H 0.85406 0.01286 0.93435 0.0
H138 H 0.67509 0.9197 0.81129 0.0
H139 H 0.56908 0.81687 0.92724 0.0
H140 H 0.58884 0.88157 0.80931 0.0
H141 H 0.55299 0.74576 0.90985 0.0
O142 O 0.72586 0.99295 0.87098 0.0
H143 H 0.74902 0.07932 0.94225 0.0
H144 H 0.85344 0.0651 0.89765 0.0
H145 H 0.8705 0.14295 0.90768 0.0
H146 H 0.81836 0.15055 0.93029 0.0
H147 H 0.73256 1.00234 0.93155 0.0
H148 H 0.93675 0.0346 0.9363 0.0
H149 H 0.97468 0.02001 0.90958 0.0
O150 O 0.78948 0.99168 0.87999 0.0
C151 C 0.74865 0.89171 0.87964 0.0
C152 C 0.91253 0.98985 0.89297 0.0
C153 C 0.91703 0.01851 0.92389 0.0
N154 N 0.84494 0.9857 0.90708 0.0
C155 C 0.86565 0.97766 0.89232 0.0
C156 C 0.87006 0.00581 0.92275 0.0
C157 C 0.93831 0.01038 0.90888 0.0
C158 C 0.61665 0.86369 0.90671 0.0
N159 N 0.63797 0.86774 0.89013 0.0
C160 C 0.58581 0.81984 0.91407 0.0
C161 C 0.57682 0.77996 0.90432 0.0
C162 C 0.59862 0.78435 0.88738 0.0
C163 C 0.62927 0.82877 0.88046 0.0
C164 C 0.57972 0.88072 0.83874 0.0
C165 C 0.67583 0.92304 0.84101 0.0
C166 C 0.6024 0.89243 0.85579 0.0
N167 N 0.64986 0.91304 0.85676 0.0
C168 C 0.65435 0.91182 0.82372 0.0
C169 C 0.60595 0.89046 0.82262 0.0
C170 C 0.7699 0.01017 0.87102 0.0
C171 C 0.77241 0.07647 0.93261 0.0
C172 C 0.83069 0.06786 0.90761 0.0
C173 C 0.84051 0.11218 0.9132 0.0
C174 C 0.81123 0.11642 0.92585 0.0
N175 N 0.7929 0.02863 0.91449 0.0
C176 C 0.76358 0.03271 0.92665 0.0
Co177 Co 0.7678 0.66678 0.21985 0.0
Co178 Co 0.79474 0.7761 0.23566 0.0
O179 O 0.76811 0.70866 0.23913 0.0
C180 C 0.66866 0.62375 0.23005 0.0
O181 O 0.6745 0.66582 0.22859 0.0
C182 C 0.8142 0.76287 0.27523 0.0
O183 O 0.80451 0.72009 0.27184 0.0
O184 O 0.85516 0.78269 0.22679 0.0
O185 O 0.83186 0.71546 0.21147 0.0
H186 H 0.88016 0.92597 0.19994 0.0
H187 H 0.74371 0.62926 0.25793 0.0
O188 O 0.70318 0.61745 0.22749 0.0
H189 H 0.88476 0.62266 0.24168 0.0
H190 H 0.73416 0.51162 0.19443 0.0
H191 H 0.79777 0.67846 0.18068 0.0
H192 H 0.84982 0.65255 0.21941 0.0
H193 H 0.73563 0.56518 0.2184 0.0
O194 O 0.81768 0.78977 0.26199 0.0
H195 H 0.84567 0.84149 0.20502 0.0
H196 H 0.80039 0.85413 0.25847 0.0
H197 H 0.79736 0.62622 0.15636 0.0
H198 H 0.77702 0.59835 0.28054 0.0
H199 H 0.76537 0.54214 0.16317 0.0
H200 H 0.84821 0.59513 0.27249 0.0
O201 O 0.73982 0.69059 0.20164 0.0
H202 H 0.651 0.71515 0.27556 0.0
H203 H 0.73475 0.8129 0.22189 0.0
H204 H 0.65954 0.80473 0.23111 0.0
H205 H 0.61719 0.75582 0.25821 0.0
H206 H 0.72561 0.72341 0.26568 0.0
H207 H 0.83487 0.93881 0.25403 0.0
H208 H 0.87498 0.97529 0.22457 0.0
O209 O 0.77149 0.76578 0.20992 0.0
C210 C 0.86259 0.75747 0.21542 0.0
C211 C 0.86283 0.91051 0.21285 0.0
C212 C 0.83749 0.91772 0.24322 0.0
N213 N 0.82125 0.8428 0.23206 0.0
C214 C 0.8432 0.86265 0.21581 0.0
C215 C 0.81828 0.86974 0.24569 0.0
C216 C 0.85994 0.93816 0.22667 0.0
C217 C 0.77449 0.62764 0.25428 0.0
N218 N 0.79498 0.64301 0.23742 0.0
C219 C 0.79329 0.61027 0.26716 0.0
C220 C 0.83327 0.60853 0.26265 0.0
C221 C 0.85384 0.62406 0.24538 0.0
C222 C 0.83409 0.64126 0.23286 0.0
C223 C 0.74827 0.54821 0.19131 0.0
C224 C 0.78407 0.64197 0.18379 0.0
C225 C 0.74911 0.57868 0.20481 0.0
N226 N 0.7671 0.62496 0.20098 0.0
C227 C 0.7838 0.61253 0.16994 0.0
C228 C 0.7658 0.56535 0.17377 0.0
C229 C 0.74762 0.73184 0.19911 0.0
C230 C 0.66939 0.73705 0.26387 0.0
C231 C 0.71681 0.79174 0.23377 0.0
C232 C 0.67411 0.7872 0.23891 0.0
C233 C 0.65037 0.75975 0.2541 0.0
N234 N 0.73566 0.76987 0.24355 0.0
C235 C 0.71215 0.74238 0.25832 0.0
Co236 Co 0.09935 0.76411 0.55119 0.0
Co237 Co 0.03252 0.80731 0.56872 0.0
O238 O 0.06529 0.77216 0.57166 0.0
C239 C 0.04014 0.66791 0.56487 0.0
O240 O 0.00516 0.67587 0.56416 0.0
C241 C 0.06976 0.82411 0.60756 0.0
O242 O 0.10098 0.81264 0.60301 0.0
O243 O 0.09149 0.86289 0.56002 0.0
O244 O 0.11796 0.8278 0.54105 0.0
H245 H 0.99042 0.91349 0.53486 0.0
H246 H 0.12113 0.74577 0.58891 0.0
O247 O 0.08108 0.7001 0.56054 0.0
H248 H 0.26897 0.8746 0.56478 0.0
H249 H 0.20334 0.71153 0.52221 0.0
H250 H 0.10679 0.78377 0.51102 0.0
H251 H 0.19782 0.84001 0.54572 0.0
H252 H 0.1618 0.72385 0.54789 0.0
O253 O 0.04551 0.8292 0.59512 0.0
H254 H 0.02925 0.86724 0.53902 0.0
H255 H 0.96794 0.82411 0.59213 0.0
H256 H 0.14803 0.77249 0.48497 0.0
H257 H 0.19166 0.77886 0.60834 0.0
H258 H 0.19675 0.73613 0.49049 0.0
H259 H 0.26622 0.8439 0.59632 0.0
O260 O 0.04231 0.73658 0.53579 0.0
H261 H 0.93453 0.6674 0.60888 0.0
H262 H 0.93414 0.75927 0.55543 0.0
H263 H 0.86093 0.6899 0.56504 0.0
H264 H 0.8607 0.64354 0.59203 0.0
H265 H 0.007 0.73637 0.59863 0.0
H266 H 0.92882 0.87024 0.58859 0.0
H267 H 0.93979 0.91523 0.55976 0.0
O268 O 0.0159 0.78532 0.54269 0.0
C269 C 0.11652 0.86386 0.54639 0.0
C270 C 0.98531 0.89399 0.54748 0.0
C271 C 0.95081 0.86978 0.57764 0.0
N272 N 1.00088 0.84289 0.56578 0.0
C273 C 0.00716 0.86765 0.54991 0.0
C274 C 0.97324 0.84387 0.5796 0.0
C275 C 0.95695 0.89498 0.56146 0.0
C276 C 0.15352 0.77385 0.58354 0.0
N277 N 0.15525 0.7911 0.56625 0.0
C278 C 0.19331 0.79255 0.59463 0.0
C279 C 0.23511 0.82908 0.58788 0.0
C280 C 0.23665 0.84638 0.5702 0.0
C281 C 0.19616 0.82684 0.55951 0.0
C282 C 0.18235 0.72756 0.51964 0.0
C283 C 0.12821 0.76828 0.51355 0.0
C284 C 0.15871 0.73457 0.53412 0.0
N285 N 0.13234 0.75501 0.53098 0.0
C286 C 0.15136 0.76182 0.49874 0.0
C287 C 0.17864 0.74137 0.50185 0.0
C288 C 0.01541 0.75294 0.53306 0.0
C289 C 0.93407 0.68757 0.59721 0.0
C290 C 0.93443 0.73943 0.56722 0.0
C291 C 0.89279 0.70013 0.5726 0.0
C292 C 0.89269 0.67413 0.58773 0.0
N293 N 0.97488 0.75273 0.57669 0.0
C294 C 0.97504 0.72706 0.59143 0.0
Co295 Co 0.33804 0.10456 0.88625 0.0
Co296 Co 0.23158 0.04237 0.90795 0.0
O297 O 0.30006 0.07607 0.90845 0.0
C298 C 0.3778 0.04889 0.90101 0.0
O299 O 0.3347 0.01445 0.90266 0.0
C300 C 0.25911 0.0879 0.94542 0.0
O301 O 0.30288 0.11293 0.94038 0.0
O302 O 0.23231 0.0977 0.89642 0.0
O303 O 0.29125 0.12065 0.87624 0.0
H304 H 0.07643 0.98882 0.87771 0.0
H305 H 0.38537 0.13527 0.92247 0.0
O306 O 0.38567 0.08852 0.89524 0.0
H307 H 0.39967 0.27676 0.89372 0.0
H308 H 0.48878 0.20073 0.85186 0.0
H309 H 0.3182 0.10213 0.84621 0.0
H310 H 0.35967 0.20136 0.87743 0.0
H311 H 0.43992 0.16586 0.87948 0.0
O312 O 0.22773 0.06457 0.93348 0.0
H313 H 0.16221 0.02832 0.87917 0.0
H314 H 0.15529 0.98695 0.93515 0.0
H315 H 0.36562 0.13658 0.81823 0.0
H316 H 0.4262 0.21011 0.93916 0.0
H317 H 0.45162 0.18632 0.82096 0.0
H318 H 0.43341 0.2815 0.9248 0.0
O319 O 0.30523 0.04404 0.87307 0.0
H320 H 0.28476 0.95893 0.95128 0.0
H321 H 0.17707 0.94015 0.90081 0.0
H322 H 0.17508 0.87075 0.91402 0.0
H323 H 0.22896 0.87977 0.93955 0.0
H324 H 0.28624 0.02726 0.93751 0.0
H325 H 0.06949 0.94747 0.93432 0.0
H326 H 0.02946 0.94811 0.90544 0.0
O327 O 0.23173 0.0166 0.88305 0.0
C328 C 0.25425 0.11969 0.88188 0.0
C329 C 0.09346 0.98824 0.89037 0.0
C330 C 0.08957 0.96511 0.92215 0.0
N331 N 0.16385 0.00989 0.9072 0.0
C332 C 0.14205 0.01045 0.89127 0.0
C333 C 0.13822 0.98773 0.92255 0.0
C334 C 0.06713 0.96544 0.90594 0.0
C335 C 0.38857 0.16624 0.9161 0.0
N336 N 0.36992 0.16387 0.89906 0.0
C337 C 0.41163 0.20849 0.92563 0.0
C338 C 0.41561 0.24852 0.91757 0.0
C339 C 0.39663 0.24587 0.90015 0.0
C340 C 0.37377 0.203 0.89104 0.0
C341 C 0.45134 0.17924 0.85049 0.0
C342 C 0.3555 0.12398 0.84752 0.0
C343 C 0.42349 0.15934 0.86608 0.0
N344 N 0.37616 0.13235 0.86447 0.0
C345 C 0.38222 0.14329 0.83162 0.0
C346 C 0.43047 0.17114 0.83316 0.0
C347 C 0.26169 0.01509 0.87248 0.0
C348 C 0.26065 0.95445 0.94033 0.0
C349 C 0.20045 0.94453 0.91201 0.0
C350 C 0.19921 0.905 0.91941 0.0
C351 C 0.22945 0.91008 0.93371 0.0
N352 N 0.23063 0.988 0.91875 0.0
C353 C 0.2609 0.99318 0.93259 0.0
Co354 Co 0.69128 0.76468 0.46201 0.0
Co355 Co 0.77539 0.82691 0.4301 0.0
O356 O 0.71013 0.78184 0.43618 0.0
C357 C 0.64423 0.67047 0.44423 0.0
O358 O 0.68374 0.68052 0.43625 0.0
C359 C 0.72053 0.82927 0.39767 0.0
O360 O 0.68 0.80034 0.40513 0.0
O361 O 0.77198 0.87414 0.44632 0.0
O362 O 0.73952 0.82831 0.47094 0.0
H363 H 0.93911 0.95043 0.44617 0.0
H364 H 0.61946 0.74989 0.43438 0.0
O365 O 0.64164 0.70053 0.45432 0.0
H366 H 0.61308 0.85528 0.48081 0.0
H367 H 0.57623 0.68813 0.51387 0.0
H368 H 0.74268 0.77823 0.49706 0.0
H369 H 0.66833 0.82649 0.48429 0.0
H370 H 0.59999 0.71186 0.4816 0.0
O371 O 0.75658 0.85052 0.40786 0.0
H372 H 0.85744 0.89122 0.4527 0.0
H373 H 0.83209 0.86178 0.39547 0.0
H374 H 0.72047 0.75559 0.52952 0.0
H375 H 0.56338 0.77757 0.43042 0.0
H376 H 0.6367 0.7102 0.53811 0.0
H377 H 0.56001 0.83071 0.45375 0.0
O378 O 0.73717 0.74297 0.46425 0.0
H379 H 0.71347 0.68756 0.38723 0.0
H380 H 0.84936 0.80235 0.42269 0.0
H381 H 0.85577 0.74421 0.40401 0.0
H382 H 0.78777 0.68655 0.38578 0.0
H383 H 0.70807 0.74515 0.40644 0.0
H384 H 0.91315 0.92124 0.38831 0.0
H385 H 0.96742 0.96568 0.41376 0.0
O386 O 0.79788 0.80505 0.45133 0.0
C387 C 0.76307 0.86862 0.46362 0.0
C388 C 0.91577 0.93123 0.43496 0.0
C389 C 0.90118 0.91497 0.40248 0.0
N390 N 0.83981 0.87305 0.42448 0.0
C391 C 0.86946 0.89758 0.43856 0.0
C392 C 0.85513 0.88164 0.4066 0.0
C393 C 0.93163 0.93987 0.41678 0.0
C394 C 0.61806 0.77288 0.44461 0.0
N395 N 0.6471 0.78653 0.45953 0.0
C396 C 0.5863 0.78849 0.44228 0.0
C397 C 0.58444 0.81834 0.45537 0.0
C398 C 0.61423 0.83216 0.47055 0.0
C399 C 0.64556 0.81586 0.47241 0.0
C400 C 0.61285 0.70798 0.51031 0.0
C401 C 0.70616 0.75871 0.5007 0.0
C402 C 0.62652 0.72142 0.49205 0.0
N403 N 0.6727 0.7467 0.48746 0.0
C404 C 0.69379 0.74589 0.5191 0.0
C405 C 0.64679 0.72038 0.5239 0.0
C406 C 0.78055 0.76723 0.46057 0.0
C407 C 0.74376 0.71323 0.39473 0.0
C408 C 0.8196 0.77807 0.4147 0.0
C409 C 0.82346 0.74488 0.40417 0.0
C410 C 0.78533 0.71252 0.39399 0.0
N411 N 0.77924 0.77994 0.41488 0.0
C412 C 0.74121 0.74687 0.40546 0.0
Co413 Co 0.92892 0.6876 0.79365 0.0
Co414 Co 0.95826 0.77963 0.76497 0.0
O415 O 0.93871 0.71376 0.76874 0.0
C416 C 0.98742 0.65091 0.77767 0.0
O417 O 0.02018 0.69385 0.77406 0.0
C418 C 0.90969 0.73085 0.73001 0.0
O419 O 0.89716 0.68945 0.73675 0.0
O420 O 0.90187 0.76997 0.77881 0.0
O421 O 0.90737 0.73088 0.80299 0.0
H422 H 0.9857 0.93607 0.78585 0.0
H423 H 0.88443 0.62303 0.76224 0.0
O424 O 0.94925 0.64291 0.7851 0.0
H425 H 0.7549 0.59814 0.8031 0.0
H426 H 0.87908 0.55811 0.84013 0.0
H427 H 0.95129 0.72795 0.8313 0.0
H428 H 0.83618 0.65484 0.81139 0.0
H429 H 0.88923 0.59137 0.80887 0.0
O430 O 0.92378 0.76579 0.74076 0.0
H431 H 0.9651 0.85409 0.78974 0.0
H432 H 0.98903 0.84503 0.73268 0.0
H433 H 0.94148 0.69615 0.86281 0.0
H434 H 0.80365 0.56569 0.75348 0.0
H435 H 0.90513 0.61063 0.86738 0.0
H436 H 0.7382 0.553 0.77398 0.0
O437 O 0.99434 0.73456 0.80003 0.0
H438 H 0.05226 0.73387 0.72382 0.0
H439 H 0.0576 0.85655 0.76375 0.0
H440 H 0.12898 0.86968 0.74822 0.0
H441 H 0.12668 0.80837 0.72783 0.0
H442 H 0.98221 0.72162 0.73993 0.0
H443 H 0.00924 0.92673 0.72814 0.0
H444 H 0.00792 0.97296 0.75488 0.0
O445 O 0.99499 0.79738 0.78837 0.0
C446 C 0.89259 0.75602 0.79555 0.0
C447 C 0.98647 0.91632 0.7741 0.0
C448 C 0.99956 0.91104 0.74171 0.0
N449 N 0.97585 0.84464 0.76147 0.0
C450 C 0.97492 0.86985 0.77622 0.0
C451 C 0.98775 0.86465 0.74434 0.0
C452 C 0.99888 0.93697 0.75672 0.0
C453 C 0.85614 0.61765 0.77124 0.0
N454 N 0.86503 0.64238 0.78726 0.0
C455 C 0.81047 0.58516 0.7662 0.0
C456 C 0.77376 0.57808 0.7777 0.0
C457 C 0.7831 0.60342 0.79404 0.0
C458 C 0.82921 0.63563 0.79862 0.0
C459 C 0.89486 0.59542 0.83832 0.0
C460 C 0.93518 0.69069 0.83318 0.0
C461 C 0.90078 0.61447 0.82065 0.0
N462 N 0.92044 0.66154 0.81828 0.0
C463 C 0.92984 0.67289 0.85105 0.0
C464 C 0.90948 0.62491 0.85361 0.0
C465 C 0.01319 0.77858 0.79809 0.0
C466 C 0.05356 0.76128 0.73236 0.0
C467 C 0.05578 0.82971 0.75481 0.0
C468 C 0.0966 0.83736 0.74608 0.0
C469 C 0.09532 0.80297 0.73467 0.0
N470 N 0.0144 0.78925 0.7521 0.0
C471 C 0.01348 0.75484 0.74137 0.0
Co472 Co 0.23612 0.89799 0.12489 0.0
Co473 Co 0.20701 0.9779 0.1076 0.0
O474 O 0.2331 0.93647 0.10484 0.0
C475 C 0.33448 0.95467 0.11336 0.0
O476 O 0.32786 0.99051 0.11391 0.0
C477 C 0.17938 0.9363 0.06947 0.0
O478 O 0.19132 0.90505 0.07332 0.0
O479 O 0.14852 0.92639 0.119 0.0
O480 O 0.17234 0.8821 0.13372 0.0
H481 H 0.12914 0.05061 0.14295 0.0
H482 H 0.25795 0.88095 0.08699 0.0
O483 O 0.30063 0.91389 0.11681 0.0
H484 H 0.12043 0.73327 0.10628 0.0
H485 H 0.27524 0.78219 0.15231 0.0
H486 H 0.2091 0.8838 0.16442 0.0
H487 H 0.15576 0.80082 0.1273 0.0
H488 H 0.27062 0.83061 0.12746 0.0
O489 O 0.17839 0.96237 0.08217 0.0
H490 H 0.16252 0.99947 0.13862 0.0
H491 H 0.19638 0.04464 0.08298 0.0
H492 H 0.21266 0.83565 0.18963 0.0
H493 H 0.22426 0.81401 0.06563 0.0
H494 H 0.24594 0.78439 0.18365 0.0
H495 H 0.15484 0.73957 0.07521 0.0
O496 O 0.26451 0.95197 0.14215 0.0
H497 H 0.34221 0.05079 0.06303 0.0
H498 H 0.26948 0.07764 0.11743 0.0
H499 H 0.34253 0.14224 0.105 0.0
H500 H 0.3793 0.12919 0.07751 0.0
H501 H 0.26989 0.98705 0.07608 0.0
H502 H 0.16285 0.0958 0.08667 0.0
H503 H 0.12906 0.09917 0.11685 0.0
O504 O 0.23562 0.99677 0.13232 0.0
C505 C 0.14178 0.89392 0.13035 0.0
C506 C 0.14372 0.04942 0.12973 0.0
C507 C 0.16257 0.07472 0.09814 0.0
N508 N 0.18125 0.01885 0.11056 0.0
C509 C 0.16273 0.02055 0.1272 0.0
C510 C 0.18128 0.04544 0.09611 0.0
C511 C 0.14367 0.07663 0.11508 0.0
C512 C 0.22797 0.84856 0.09131 0.0
N513 N 0.20865 0.84491 0.10832 0.0
C514 C 0.20894 0.81083 0.07913 0.0
C515 C 0.16995 0.7691 0.0845 0.0
C516 C 0.15057 0.76557 0.10192 0.0
C517 C 0.17052 0.80405 0.11372 0.0
C518 C 0.26059 0.80432 0.15508 0.0
C519 C 0.22336 0.86136 0.16168 0.0
C520 C 0.25797 0.83189 0.14108 0.0
N521 N 0.2393 0.85974 0.14446 0.0
C522 C 0.22541 0.83428 0.17602 0.0
C523 C 0.24413 0.80556 0.17266 0.0
C524 C 0.25905 0.98718 0.14354 0.0
C525 C 0.32622 0.0571 0.07487 0.0
C526 C 0.28496 0.07159 0.10539 0.0
C527 C 0.32646 0.10838 0.09844 0.0
C528 C 0.34708 0.10103 0.08303 0.0
N529 N 0.26422 0.02867 0.09717 0.0
C530 C 0.28474 0.02113 0.08221 0.0
Co531 Co 0.3174 0.25384 0.46237 0.0
Co532 Co 0.23114 0.18617 0.43218 0.0
O533 O 0.29605 0.23574 0.43676 0.0
C534 C 0.37297 0.34272 0.43969 0.0
O535 O 0.35323 0.32136 0.42426 0.0
C536 C 0.28499 0.19 0.39822 0.0
O537 O 0.32538 0.21873 0.40579 0.0
O538 O 0.24344 0.14216 0.44669 0.0
O539 O 0.2743 0.18811 0.47135 0.0
H540 H 0.07679 0.05081 0.45177 0.0
H541 H 0.38696 0.27044 0.43271 0.0
O542 O 0.36197 0.3207 0.45501 0.0
H543 H 0.41034 0.17744 0.48003 0.0
H544 H 0.43399 0.33793 0.51303 0.0
H545 H 0.26792 0.23414 0.49819 0.0
H546 H 0.35055 0.19995 0.48426 0.0
H547 H 0.40908 0.31381 0.4809 0.0
O548 O 0.24906 0.16732 0.40839 0.0
H549 H 0.15709 0.11534 0.45636 0.0
H550 H 0.1682 0.14877 0.39931 0.0
H551 H 0.29136 0.25703 0.53053 0.0
H552 H 0.44735 0.24916 0.42802 0.0
H553 H 0.37495 0.3093 0.53812 0.0
H554 H 0.45947 0.20225 0.45179 0.0
O555 O 0.26777 0.27024 0.46564 0.0
H556 H 0.26907 0.3208 0.38897 0.0
H557 H 0.15054 0.2027 0.43014 0.0
H558 H 0.13337 0.25721 0.4138 0.0
H559 H 0.19263 0.31664 0.39281 0.0
H560 H 0.28503 0.26646 0.40589 0.0
H561 H 0.08825 0.08411 0.39405 0.0
H562 H 0.04184 0.03488 0.42045 0.0
O563 O 0.20941 0.2031 0.4551 0.0
C564 C 0.25376 0.14773 0.46386 0.0
C565 C 0.09671 0.07202 0.44016 0.0
C566 C 0.10318 0.09062 0.40776 0.0
N567 N 0.16762 0.13575 0.42809 0.0
C568 C 0.14226 0.10867 0.44266 0.0
C569 C 0.14864 0.12694 0.41078 0.0
C570 C 0.07712 0.06304 0.42257 0.0
C571 C 0.3922 0.25066 0.44324 0.0
N572 N 0.36558 0.23732 0.45887 0.0
C573 C 0.4264 0.23841 0.44046 0.0
C574 C 0.43313 0.21203 0.45377 0.0
C575 C 0.40559 0.1981 0.46961 0.0
C576 C 0.37173 0.21099 0.47191 0.0
C577 C 0.39748 0.31506 0.5099 0.0
C578 C 0.30439 0.25664 0.5014 0.0
C579 C 0.38314 0.30137 0.49173 0.0
N580 N 0.33711 0.27223 0.48769 0.0
C581 C 0.31744 0.2696 0.51973 0.0
C582 C 0.36434 0.29897 0.52398 0.0
C583 C 0.22442 0.24218 0.46317 0.0
C584 C 0.24269 0.29474 0.39791 0.0
C585 C 0.17669 0.22823 0.42109 0.0
C586 C 0.16667 0.25914 0.41184 0.0
C587 C 0.19989 0.29246 0.40009 0.0
N588 N 0.21847 0.22988 0.41866 0.0
C589 C 0.25148 0.26334 0.40747 0.0
Co590 Co 0.09679 0.33975 0.79084 0.0
Co591 Co 0.02451 0.22684 0.77814 0.0
O592 O 0.0575 0.29361 0.77225 0.0
C593 C 0.03832 0.37782 0.77758 0.0
O594 O 1.00256 0.33559 0.77969 0.0
C595 C 0.05875 0.23254 0.73923 0.0
O596 O 0.09898 0.26929 0.74334 0.0
O597 O 0.08506 0.23085 0.78437 0.0
O598 O 0.11504 0.29512 0.80194 0.0
H599 H 0.98876 0.08715 0.81708 0.0
H600 H 0.11076 0.36777 0.75152 0.0
O601 O 0.07947 0.3855 0.78063 0.0
H602 H 0.26176 0.38911 0.7725 0.0
H603 H 0.21156 0.50108 0.81336 0.0
H604 H 0.11139 0.33627 0.83105 0.0
H605 H 0.19532 0.36087 0.79401 0.0
H606 H 0.16333 0.44222 0.79008 0.0
O607 O 0.02847 0.21125 0.75175 0.0
H608 H 0.02851 0.17073 0.80931 0.0
H609 H 0.9519 0.14044 0.75928 0.0
H610 H 0.15937 0.39386 0.85475 0.0
H611 H 0.17646 0.39663 0.72959 0.0
H612 H 0.20993 0.47696 0.84595 0.0
H613 H 0.25258 0.40734 0.74004 0.0
O614 O 0.04272 0.31589 0.80796 0.0
H615 H 0.91714 0.25973 0.74026 0.0
H616 H 0.93135 0.18394 0.7965 0.0
H617 H 0.85692 0.18065 0.78972 0.0
H618 H 0.8494 0.21866 0.76139 0.0
H619 H 0.99116 0.26268 0.7477 0.0
H620 H 0.91176 0.05646 0.76642 0.0
H621 H 0.92993 0.0293 0.79555 0.0
O622 O 0.01712 0.23963 0.80449 0.0
C623 C 0.11224 0.25658 0.79721 0.0
C624 C 0.98053 0.09854 0.80435 0.0
C625 C 0.93738 0.08132 0.77591 0.0
N626 N 0.99263 0.16062 0.78385 0.0
C627 C 1.00291 0.14589 0.79987 0.0
C628 C 0.96043 0.12895 0.77189 0.0
C629 C 0.94755 0.06611 0.79226 0.0
C630 C 0.14391 0.37274 0.7562 0.0
N631 N 0.14925 0.36275 0.77401 0.0
C632 C 0.18092 0.38891 0.7437 0.0
C633 C 0.2236 0.39484 0.74957 0.0
C634 C 0.22876 0.38457 0.76778 0.0
C635 C 0.19097 0.36842 0.77988 0.0
C636 C 0.1898 0.46495 0.81736 0.0
C637 C 0.1336 0.37228 0.82709 0.0
C638 C 0.16237 0.43149 0.80424 0.0
N639 N 0.13501 0.38576 0.80917 0.0
C640 C 0.16056 0.40477 0.84058 0.0
C641 C 0.18887 0.4514 0.83564 0.0
C642 C 0.01752 0.27361 0.81286 0.0
C643 C 0.91995 0.24296 0.75262 0.0
C644 C 0.92846 0.20073 0.78418 0.0
C645 C 0.88615 0.19863 0.78039 0.0
C646 C 0.88197 0.21995 0.7645 0.0
N647 N 0.96562 0.22348 0.7725 0.0
C648 C 0.96173 0.24437 0.75687 0.0
Co649 Co 0.75609 0.06845 0.12943 0.0
Co650 Co 0.82144 0.0464 0.0995 0.0
O651 O 0.7727 0.06224 0.10411 0.0
C652 C 0.66022 0.00816 0.11392 0.0
O653 O 0.67104 0.97615 0.10983 0.0
C654 C 0.81567 0.09417 0.06525 0.0
O655 O 0.78743 0.10623 0.07296 0.0
O656 O 0.86661 0.10353 0.11337 0.0
O657 O 0.82193 0.09206 0.13824 0.0
H658 H 0.95768 0.02851 0.11833 0.0
H659 H 0.73292 0.11404 0.09939 0.0
O660 O 0.69024 0.04639 0.12137 0.0
H661 H 0.83432 0.24105 0.14184 0.0
H662 H 0.67345 0.10795 0.17834 0.0
H663 H 0.77684 0.0439 0.16616 0.0
H664 H 0.81323 0.15987 0.14855 0.0
H665 H 0.69652 0.10234 0.14649 0.0
O666 O 0.83886 0.08135 0.07529 0.0
H667 H 0.89328 0.04417 0.12325 0.0
H668 H 0.85675 0.01877 0.06655 0.0
H669 H 0.75495 0.04923 0.19824 0.0
H670 H 0.75287 0.19472 0.09221 0.0
H671 H 0.70291 0.08147 0.20448 0.0
H672 H 0.80399 0.25891 0.11351 0.0
O673 O 0.74032 1.003 0.13434 0.0
H674 H 0.68081 0.94737 0.05943 0.0
H675 H 0.80436 0.94896 0.09765 0.0
H676 H 0.74762 0.87645 0.08231 0.0
H677 H 0.68549 0.87528 0.06279 0.0
H678 H 0.73723 0.0186 0.07535 0.0
H679 H 0.92121 0.00348 0.06096 0.0
H680 H 0.97209 0.00805 0.08699 0.0
O681 O 0.8057 0.00943 0.12281 0.0
C682 C 0.86192 0.11031 0.13044 0.0
C683 C 0.93576 0.02641 0.10687 0.0
C684 C 0.91538 0.0125 0.07467 0.0
N685 N 0.87125 0.03261 0.09519 0.0
C686 C 0.89915 0.03522 0.10957 0.0
C687 C 0.87914 0.02158 0.07789 0.0
C688 C 0.94386 0.01499 0.08928 0.0
C689 C 0.75513 0.14178 0.10874 0.0
N690 N 0.77201 0.13225 0.12432 0.0
C691 C 0.76633 0.1874 0.1046 0.0
C692 C 0.79503 0.22339 0.11655 0.0
C693 C 0.81209 0.2134 0.13244 0.0
C694 C 0.80017 0.16737 0.13612 0.0
C695 C 0.69623 0.09392 0.17579 0.0
C696 C 0.75438 0.0582 0.16878 0.0
C697 C 0.70933 0.09057 0.15779 0.0
N698 N 0.73833 0.07317 0.1545 0.0
C699 C 0.74201 0.06102 0.18697 0.0
C700 C 0.71278 0.07907 0.19046 0.0
C701 C 0.76753 0.98682 0.13165 0.0
C702 C 0.70828 0.94762 0.06759 0.0
C703 C 0.77796 0.94927 0.08906 0.0
C704 C 0.74566 0.90782 0.08045 0.0
C705 C 0.7108 0.90716 0.06953 0.0
N706 N 0.77626 0.98939 0.08672 0.0
C707 C 0.74109 0.98837 0.07648 0.0
H708 H 0.95504 0.15539 0.12054 0.0
H709 H 0.04919 0.19617 0.22461 0.0
H710 H 0.8649 0.12208 0.16799 0.0
H711 H 0.13798 0.26279 0.17752 0.0
H712 H 0.98109 0.1655 0.20416 0.0
H713 H 0.0227 0.19176 0.14119 0.0
C714 C 0.94937 0.15595 0.13524 0.0
C715 C 0.90396 0.13552 0.14243 0.0
C716 C 0.01553 0.1871 0.19836 0.0
C717 C 0.98146 0.17664 0.16625 0.0
C718 C 0.05446 0.2047 0.21006 0.0
C719 C 0.09964 0.23218 0.20288 0.0
C720 C 0.02174 0.19656 0.1793 0.0
C721 C 0.10405 0.24176 0.1838 0.0
C722 C 0.98806 0.17671 0.14704 0.0
C723 C 0.89906 0.13727 0.1617 0.0
N724 N 0.0658 0.22376 0.17272 0.0
N725 N 0.93715 0.15707 0.17288 0.0
H726 H 0.852 0.13401 0.51798 0.0
H727 H 0.77896 0.869 0.50058 0.0
H728 H 0.89465 0.05895 0.55432 0.0
H729 H 0.79352 0.96143 0.45586 0.0
H730 H 0.81085 0.93495 0.52181 0.0
H731 H 0.81944 0.06788 0.49679 0.0
C732 C 0.85411 0.10349 0.52168 0.0
C733 C 0.8762 0.10231 0.53811 0.0
C734 C 0.80715 0.94087 0.50736 0.0
C735 C 0.8386 0.02606 0.51367 0.0
C736 C 0.78872 0.90317 0.49518 0.0
C737 C 0.78334 0.9095 0.47631 0.0
C738 C 0.81966 0.98545 0.50083 0.0
C739 C 0.79708 0.95485 0.47024 0.0
C740 C 0.83576 0.06584 0.50943 0.0
C741 C 0.87791 0.06158 0.54191 0.0
N742 N 0.81422 0.99102 0.48249 0.0
N743 N 0.85922 0.02509 0.52985 0.0
H744 H 0.80608 0.85698 0.88958 0.0
H745 H 0.84745 0.80392 0.7858 0.0
H746 H 0.73104 0.8686 0.84307 0.0
H747 H 0.8811 0.74697 0.83308 0.0
H748 H 0.80972 0.83359 0.80655 0.0
H749 H 0.8388 0.82153 0.86913 0.0
C750 C 0.79609 0.85173 0.87517 0.0
C751 C 0.76567 0.86594 0.86814 0.0
C752 C 0.82518 0.81435 0.81233 0.0
C753 C 0.80375 0.82617 0.84456 0.0
C754 C 0.84677 0.79743 0.80048 0.0
C755 C 0.8675 0.77274 0.80761 0.0
C756 C 0.82488 0.80721 0.8315 0.0
C757 C 0.86557 0.76564 0.82685 0.0
C758 C 0.81487 0.83158 0.86348 0.0
C759 C 0.75432 0.85838 0.84923 0.0
N760 N 0.84504 0.78304 0.83808 0.0
N761 N 0.77362 0.8395 0.83813 0.0
H762 H 0.92539 0.85066 0.20901 0.0
H763 H 0.10237 0.80974 0.1484 0.0
H764 H 0.90087 0.71283 0.19658 0.0
H765 H 0.08244 0.92709 0.13889 0.0
H766 H 0.03616 0.77715 0.1697 0.0
H767 H 0.99178 0.88334 0.18758 0.0
C768 C 0.9342 0.82725 0.20203 0.0
C769 C 0.90712 0.77875 0.20467 0.0
C770 C 0.04613 0.8099 0.16287 0.0
C771 C 0.98348 0.81618 0.18015 0.0
C772 C 0.0839 0.82854 0.15062 0.0
C773 C 0.09813 0.87125 0.14164 0.0
C774 C 0.02283 0.83456 0.16664 0.0
C775 C 0.07275 0.894 0.14532 0.0
C776 C 0.97192 0.84597 0.18966 0.0
C777 C 0.9205 0.75036 0.19508 0.0
N778 N 0.03677 0.87569 0.15767 0.0
N779 N 0.95768 0.76944 0.18337 0.0
H780 H 0.24879 0.14558 0.50162 0.0
H781 H 0.15607 0.87344 0.51222 0.0
H782 H 0.2188 0.05506 0.45456 0.0
H783 H 0.13239 0.95253 0.55382 0.0
H784 H 0.19046 0.94197 0.49222 0.0
H785 H 0.21756 0.07773 0.52193 0.0
C786 C 0.23596 0.1115 0.4955 0.0
C787 C 0.23657 0.10627 0.47623 0.0
C788 C 0.1779 0.94437 0.50575 0.0
C789 C 0.20085 0.02807 0.49968 0.0
C790 C 0.15845 0.90528 0.51729 0.0
C791 C 0.14117 0.90693 0.53487 0.0
C792 C 0.18099 0.986 0.51181 0.0
C793 C 0.14522 0.94943 0.54046 0.0
C794 C 0.21789 0.07271 0.50717 0.0
C795 C 0.2191 0.06094 0.46927 0.0
N796 N 0.16483 0.98724 0.52902 0.0
N797 N 0.2022 0.02367 0.48098 0.0
H798 H 0.19584 0.1534 0.89144 0.0
H799 H 0.13882 0.19221 0.78842 0.0
H800 H 0.266 0.13529 0.84474 0.0
H801 H 0.13844 0.27753 0.8333 0.0
H802 H 0.17402 0.15958 0.80919 0.0
H803 H 0.16243 0.18788 0.87065 0.0
C804 C 0.2043 0.15672 0.87688 0.0
C805 C 0.23422 0.14184 0.86991 0.0
C806 C 0.16639 0.18566 0.8144 0.0
C807 C 0.19522 0.18007 0.84603 0.0
C808 C 0.14635 0.20428 0.80257 0.0
C809 C 0.13615 0.23813 0.80902 0.0
C810 C 0.17504 0.19994 0.83296 0.0
C811 C 0.14631 0.25209 0.8276 0.0
C812 C 0.18531 0.17644 0.86504 0.0
C813 C 0.24368 0.1468 0.85083 0.0
N814 N 0.16469 0.23265 0.83893 0.0
N815 N 0.22398 0.16502 0.83957 0.0
H816 H 0.58714 0.62458 0.23452 0.0
H817 H 0.42442 0.34632 0.23709 0.0
H818 H 0.64183 0.53072 0.2323 0.0
H819 H 0.37361 0.44213 0.2289 0.0
H820 H 0.50396 0.41297 0.23955 0.0
H821 H 0.5085 0.55763 0.2368 0.0
C822 C 0.5827 0.58989 0.23463 0.0
C823 C 0.62124 0.58334 0.23305 0.0
C824 C 0.4753 0.41931 0.23732 0.0
C825 C 0.53089 0.50623 0.23563 0.0
C826 C 0.42988 0.3813 0.23597 0.0
C827 C 0.39227 0.38858 0.23265 0.0
C828 C 0.48307 0.46489 0.23548 0.0
C829 C 0.40149 0.43473 0.23131 0.0
C830 C 0.53768 0.55161 0.2359 0.0
C831 C 0.61316 0.53746 0.23339 0.0
N832 N 0.44584 0.47099 0.23269 0.0
N833 N 0.56887 0.50065 0.23456 0.0
H834 H 0.10408 0.63876 0.56755 0.0
H835 H 0.91067 0.36856 0.57367 0.0
H836 H 0.95647 0.58869 0.57168 0.0
H837 H 0.05876 0.41961 0.57219 0.0
H838 H 0.92687 0.44896 0.57559 0.0
H839 H 0.08838 0.55908 0.57176 0.0
C840 C 0.06837 0.61108 0.56948 0.0
C841 C 0.0315 0.62046 0.56909 0.0
C842 C 0.95583 0.44256 0.57502 0.0
C843 C 0.01323 0.52887 0.57383 0.0
C844 C 0.94661 0.3966 0.57396 0.0
C845 C 0.98341 0.38725 0.5726 0.0
C846 C 1.00218 0.47953 0.57464 0.0
C847 C 0.02925 0.42508 0.57309 0.0
C848 C 0.05942 0.56552 0.57189 0.0
C849 C 0.98598 0.58313 0.57177 0.0
N850 N 0.0373 0.4695 0.5739 0.0
N851 N 0.97811 0.53897 0.57387 0.0
H852 H 0.37451 0.96945 0.91374 0.0
H853 H 0.55357 0.92499 0.89614 0.0
H854 H 0.47109 0.10879 0.89478 0.0
H855 H 0.64702 0.07307 0.90209 0.0
H856 H 0.48769 0.937 0.90019 0.0
H857 H 0.43854 0.95337 0.91543 0.0
C858 C 0.4092 0.99668 0.90989 0.0
C859 C 0.41719 0.04029 0.90381 0.0
C860 C 0.52245 0.9669 0.90111 0.0
C861 C 0.49082 0.02161 0.90511 0.0
C862 C 0.5603 0.96009 0.89857 0.0
C863 C 0.60606 0.9981 0.89875 0.0
C864 C 0.53012 0.01217 0.90389 0.0
C865 C 0.6124 0.04273 0.90189 0.0
C866 C 0.4458 0.98729 0.91066 0.0
C867 C 0.46314 0.07447 0.89935 0.0
N868 N 0.57482 0.04858 0.90414 0.0
N869 N 0.49813 0.0643 0.89998 0.0
H870 H 0.56746 0.63062 0.4665 0.0
H871 H 0.42702 0.39314 0.41022 0.0
H872 H 0.62652 0.60208 0.41859 0.0
H873 H 0.40668 0.40439 0.46842 0.0
H874 H 0.49276 0.47362 0.41054 0.0
H875 H 0.50058 0.5518 0.46476 0.0
C876 C 0.56628 0.60791 0.45552 0.0
C877 C 0.60284 0.62305 0.44269 0.0
C878 C 0.47375 0.45838 0.4232 0.0
C879 C 0.52586 0.53254 0.44059 0.0
C880 C 0.43609 0.41262 0.42302 0.0
C881 C 0.41128 0.39199 0.43932 0.0
C882 C 0.48607 0.48396 0.43971 0.0
C883 C 0.42484 0.41879 0.45553 0.0
C884 C 0.52812 0.56278 0.45461 0.0
C885 C 0.59927 0.59179 0.42882 0.0
N886 N 0.46109 0.46339 0.45529 0.0
N887 N 0.56134 0.54802 0.42808 0.0
H888 H 0.06939 0.65345 0.76873 0.0
H889 H 0.95501 0.37553 0.77361 0.0
H890 H 0.92351 0.55777 0.77919 0.0
H891 H 0.10366 0.4706 0.77341 0.0
H892 H 0.94249 0.44188 0.77096 0.0
H893 H 0.08203 0.58685 0.76589 0.0
C894 C 0.03995 0.6185 0.77026 0.0
C895 C 0.99539 0.61127 0.77435 0.0
C896 C 0.97787 0.44825 0.77137 0.0
C897 C 0.00961 0.53496 0.7711 0.0
C898 C 0.98508 0.41031 0.77283 0.0
C899 C 0.03048 0.41742 0.7739 0.0
C900 C 0.0163 0.49379 0.77093 0.0
C901 C 0.06802 0.4634 0.77274 0.0
C902 C 0.04723 0.58051 0.76869 0.0
C903 C 0.95856 0.56513 0.77618 0.0
N904 N 0.0601 0.49983 0.77143 0.0
N905 N 0.96653 0.52886 0.7746 0.0
H906 H 0.41554 0.03762 0.10857 0.0
H907 H 0.58069 0.92519 0.1059 0.0
H908 H 0.36241 0.88929 0.11161 0.0
H909 H 0.63004 0.07117 0.1154 0.0
H910 H 0.5009 0.91145 0.10349 0.0
H911 H 0.49457 0.05035 0.10644 0.0
C912 C 0.42039 0.00764 0.10865 0.0
C913 C 0.38216 0.9623 0.11042 0.0
C914 C 0.52929 0.94649 0.106 0.0
C915 C 0.47296 0.97675 0.108 0.0
C916 C 0.57486 0.9544 0.10731 0.0
C917 C 0.61215 0.99936 0.11098 0.0
C918 C 0.52101 0.98388 0.10819 0.0
C919 C 0.60242 0.03586 0.1127 0.0
C920 C 0.46564 0.01498 0.10749 0.0
C921 C 0.3908 0.92487 0.11036 0.0
N922 N 0.55792 0.0273 0.11132 0.0
N923 N 0.43527 0.93293 0.10925 0.0
H924 H 0.33023 0.07597 0.14241 0.0
H925 H 0.18421 0.12657 0.21151 0.0
H926 H 0.22913 0.97173 0.17889 0.0
H927 H 0.31801 0.23828 0.19313 0.0
H928 H 0.20504 0.07044 0.2009 0.0
H929 H 0.33546 0.13699 0.16293 0.0
C930 C 0.311 0.06605 0.15529 0.0
C931 C 0.27903 0.01912 0.15906 0.0
C932 C 0.23025 0.10718 0.19936 0.0
C933 C 0.28318 0.08811 0.182 0.0
C934 C 0.21822 0.13949 0.20529 0.0
C935 C 0.24948 0.18746 0.20328 0.0
C936 C 0.27342 0.12252 0.19079 0.0
C937 C 0.29273 0.20165 0.19485 0.0
C938 C 0.3136 0.10082 0.16688 0.0
C939 C 0.25429 0.00767 0.17565 0.0
N940 N 0.30326 0.1692 0.18868 0.0
N941 N 0.25592 0.04207 0.18632 0.0
H942 H 0.07538 0.33481 0.53006 0.0
H943 H 0.13011 0.18714 0.46187 0.0
H944 H 0.97137 0.21707 0.49958 0.0
H945 H 0.23821 0.32218 0.48075 0.0
H946 H 0.07189 0.20491 0.47243 0.0
H947 H 0.13498 0.34119 0.50837 0.0
C948 C 0.06482 0.31199 0.51815 0.0
C949 C 0.01882 0.27525 0.51649 0.0
C950 C 0.10825 0.23111 0.47412 0.0
C951 C 0.08634 0.281 0.49223 0.0
C952 C 0.1418 0.22087 0.46812 0.0
C953 C 0.18939 0.25328 0.47035 0.0
C954 C 0.12193 0.27359 0.48301 0.0
C955 C 0.20192 0.29605 0.47885 0.0
C956 C 0.09887 0.31519 0.50593 0.0
C957 C 0.00664 0.24591 0.50118 0.0
N958 N 0.16829 0.30477 0.48513 0.0
N959 N 0.04045 0.24875 0.48983 0.0
H960 H 0.935 0.27205 0.81377 0.0
H961 H 0.85329 0.03343 0.85625 0.0
H962 H 0.02537 0.24093 0.8458 0.0
H963 H 0.75887 0.08607 0.86414 0.0
H964 H 0.91397 0.11075 0.84718 0.0
H965 H 0.86735 0.20968 0.83004 0.0
C966 C 0.94076 0.25413 0.82508 0.0
C967 C 0.98543 0.26088 0.82841 0.0
C968 C 0.87998 0.10548 0.85088 0.0
C969 C 0.90914 0.18941 0.84633 0.0
C970 C 0.84511 0.06124 0.85577 0.0
C971 C 0.80116 0.05352 0.86109 0.0
C972 C 0.87096 0.14247 0.85104 0.0
C973 C 0.79236 0.09075 0.86002 0.0
C974 C 0.90215 0.21818 0.83414 0.0
C975 C 0.9913 0.23641 0.84286 0.0
N976 N 0.82725 0.13411 0.8551 0.0
N977 N 0.95337 0.20064 0.85093 0.0
H978 H 0.82116 0.94615 0.12999 0.0
H979 H 0.67273 0.74336 0.19787 0.0
H980 H 0.68767 0.92168 0.14973 0.0
H981 H 0.78434 0.75114 0.16483 0.0
H982 H 0.66776 0.79901 0.17716 0.0
H983 H 0.80187 0.86933 0.14021 0.0
C984 C 0.78752 0.92455 0.13642 0.0
C985 C 0.75596 0.94063 0.13898 0.0
C986 C 0.69205 0.78717 0.17396 0.0
C987 C 0.7338 0.85183 0.15108 0.0
C988 C 0.69446 0.75499 0.18563 0.0
C989 C 0.72909 0.74311 0.18294 0.0
C990 C 0.72514 0.80784 0.15981 0.0
C991 C 0.75705 0.75945 0.16721 0.0
C992 C 0.77638 0.88027 0.14217 0.0
C993 C 0.71319 0.91087 0.14761 0.0
N994 N 0.75527 0.79199 0.15643 0.0
N995 N 0.70355 0.86796 0.15358 0.0
H996 H 0.87315 0.80732 0.453 0.0
H997 H 0.92584 0.68279 0.53416 0.0
H998 H 0.76385 0.69659 0.48513 0.0
H999 H 0.02962 0.7866 0.49834 0.0
H1000 H 0.86477 0.6743 0.51276 0.0
H1001 H 0.92866 0.78835 0.46575 0.0
C1002 C 0.86049 0.77847 0.46258 0.0
C1003 C 0.8135 0.75358 0.46799 0.0
C1004 C 0.90094 0.69781 0.50925 0.0
C1005 C 0.87809 0.73245 0.48325 0.0
C1006 C 0.93569 0.70236 0.52137 0.0
C1007 C 0.98236 0.73541 0.51783 0.0
C1008 C 0.9134 0.72705 0.49373 0.0
C1009 C 0.99384 0.76054 0.50135 0.0
C1010 C 0.89251 0.76765 0.46992 0.0
C1011 C 0.79977 0.71691 0.48066 0.0
N1012 N 0.95945 0.75636 0.49001 0.0
N1013 N 0.83215 0.7079 0.48812 0.0
H1014 H 0.25316 0.02607 0.83596 0.0
H1015 H 0.06374 0.75686 0.82245 0.0
H1016 H 0.22617 0.92235 0.87742 0.0
H1017 H 0.06379 0.8731 0.79535 0.0
H1018 H 0.1372 0.81236 0.8378 0.0
H1019 H 0.20061 0.96419 0.81491 0.0
C1020 C 0.23739 0.99005 0.84035 0.0
C1021 C 0.24333 0.9789 0.85835 0.0
C1022 C 0.12118 0.82525 0.82823 0.0
C1023 C 0.18235 0.90852 0.83484 0.0
C1024 C 0.07926 0.79376 0.81958 0.0
C1025 C 0.05747 0.81023 0.80757 0.0
C1026 C 0.14148 0.87318 0.82456 0.0
C1027 C 0.07921 0.85845 0.80433 0.0
C1028 C 0.20704 0.95484 0.82847 0.0
C1029 C 0.22167 0.93195 0.86363 0.0
N1030 N 0.11986 0.88805 0.81275 0.0
N1031 N 0.19136 0.89827 0.85199 0.0
H1032 H 0.21104 0.13238 0.37622 0.0
H1033 H 0.26986 0.33026 0.30021 0.0
H1034 H 0.33812 0.2657 0.37602 0.0
H1035 H 0.14117 0.1984 0.30154 0.0
H1036 H 0.29529 0.30769 0.32804 0.0
H1037 H 0.18684 0.15442 0.3479 0.0
C1038 C 0.23423 0.16601 0.37006 0.0
C1039 C 0.27636 0.19745 0.37872 0.0
C1040 C 0.26136 0.28377 0.32232 0.0
C1041 C 0.24862 0.22324 0.34632 0.0
C1042 C 0.24647 0.29692 0.30654 0.0
C1043 C 0.2034 0.26598 0.29835 0.0
C1044 C 0.23297 0.2394 0.33007 0.0
C1045 C 0.17495 0.22306 0.30716 0.0
C1046 C 0.22023 0.17873 0.35394 0.0
C1047 C 0.30533 0.24025 0.36989 0.0
N1048 N 0.19036 0.21092 0.32242 0.0
N1049 N 0.29066 0.25211 0.35433 0.0
H1050 H 0.04503 0.20396 0.6199 0.0
H1051 H 0.97192 0.17071 0.72618 0.0
H1052 H 0.90336 0.15178 0.63818 0.0
H1053 H 0.11279 0.26346 0.70769 0.0
H1054 H 0.94698 0.15263 0.69416 0.0
H1055 H 0.07037 0.21472 0.652 0.0
C1056 C 0.01902 0.19416 0.63064 0.0
C1057 C 0.97179 0.17685 0.62625 0.0
C1058 C 0.98338 0.17673 0.6971 0.0
C1059 C 1.00103 0.18936 0.66319 0.0
C1060 C 0.99787 0.18696 0.71541 0.0
C1061 C 0.04474 0.21877 0.71973 0.0
C1062 C 0.01592 0.19798 0.68284 0.0
C1063 C 0.07639 0.23881 0.70506 0.0
C1064 C 0.03372 0.20066 0.64899 0.0
C1065 C 0.94003 0.16518 0.64087 0.0
N1066 N 0.06141 0.22805 0.68727 0.0
N1067 N 0.95522 0.17164 0.65868 0.0
H1068 H 0.73963 0.07165 0.04349 0.0
H1069 H 0.82018 0.96262 0.96261 0.0
H1070 H 0.87304 0.0784 0.04283 0.0
H1071 H 0.68075 0.94043 0.9676 0.0
H1072 H 0.84116 0.00676 0.99146 0.0
H1073 H 0.71993 0.02889 0.01435 0.0
C1074 C 0.76528 0.06513 0.03702 0.0
C1075 C 0.80801 0.07844 0.04573 0.0
C1076 C 0.80585 0.99188 0.98634 0.0
C1077 C 0.78513 0.02841 0.01248 0.0
C1078 C 0.79374 0.96638 0.96991 0.0
C1079 C 0.74862 0.94777 0.96259 0.0
C1080 C 0.77274 0.99922 0.99552 0.0
C1081 C 0.71585 0.95379 0.97273 0.0
C1082 C 0.75368 0.04003 0.02049 0.0
C1083 C 0.83951 0.0684 0.03673 0.0
N1084 N 0.72868 0.97934 0.98855 0.0
N1085 N 0.82734 0.04376 0.02069 0.0
H1086 H 0.84418 0.85017 0.2894 0.0
H1087 H 0.67052 0.75357 0.37533 0.0
H1088 H 0.76394 0.70419 0.30347 0.0
H1089 H 0.79049 0.89221 0.37517 0.0
H1090 H 0.69568 0.73846 0.34568 0.0
H1091 H 0.81893 0.86914 0.31836 0.0
C1092 C 0.8219 0.82217 0.29871 0.0
C1093 C 0.80649 0.77552 0.29404 0.0
C1094 C 0.71622 0.77237 0.35205 0.0
C1095 C 0.77619 0.79694 0.32683 0.0
C1096 C 0.7015 0.78132 0.36885 0.0
C1097 C 0.72868 0.82414 0.37787 0.0
C1098 C 0.75788 0.80679 0.34395 0.0
C1099 C 0.76872 0.85856 0.36879 0.0
C1100 C 0.80729 0.83303 0.31516 0.0
C1101 C 0.77722 0.74066 0.30656 0.0
N1102 N 0.78226 0.8491 0.35237 0.0
N1103 N 0.76261 0.75203 0.32225 0.0
H1104 H 0.07952 0.77243 0.63483 0.0
H1105 H 0.92003 0.80412 0.70895 0.0
H1106 H 0.01685 0.85683 0.62362 0.0
H1107 H 0.93626 0.68293 0.70699 0.0
H1108 H 0.96144 0.8301 0.67941 0.0
H1109 H 0.03653 0.74786 0.66398 0.0
C1110 C 0.05759 0.78668 0.63867 0.0
C1111 C 0.05189 0.81686 0.62675 0.0
C1112 C 0.95533 0.79751 0.68535 0.0
C1113 C 1.00197 0.78819 0.65998 0.0
C1114 C 0.93142 0.78249 0.70212 0.0
C1115 C 0.92445 0.74118 0.71043 0.0
C1116 C 0.97322 0.77152 0.67701 0.0
C1117 C 0.94033 0.71472 0.70103 0.0
C1118 C 0.03251 0.77206 0.65519 0.0
C1119 C 0.02231 0.83354 0.63239 0.0
N1120 N 0.96456 0.73068 0.68497 0.0
N1121 N 0.99844 0.81899 0.64859 0.0
H1122 H 0.13677 0.98093 0.05404 0.0
H1123 H 0.31624 0.0843 0.97166 0.0
H1124 H 0.23234 0.93212 0.04155 0.0
H1125 H 0.17525 0.05511 0.96324 0.0
H1126 H 0.2928 0.04446 1.0015 0.0
H1127 H 0.15514 0.021 0.02397 0.0
C1128 C 0.16084 0.97786 0.04482 0.0
C1129 C 0.18261 0.95264 0.0502 0.0
C1130 C 0.26721 0.04738 0.9932 0.0
C1131 C 0.20526 1.00005 0.01639 0.0
C1132 C 0.28067 0.07071 0.9763 0.0
C1133 C 0.2477 0.0733 0.96497 0.0
C1134 C 0.22072 0.02735 0.99904 0.0
C1135 C 0.20179 0.05407 0.97159 0.0
C1136 C 0.17148 1.00093 0.02779 0.0
C1137 C 0.21416 0.95047 0.03787 0.0
N1138 N 0.18962 0.03198 0.98824 0.0
N1139 N 0.22512 0.97452 0.0217 0.0
loop_
_geom_bond_atom_site_label_1
_geom_bond_atom_site_label_2
_geom_bond_distance
_geom_bond_site_symmetry_2
_ccdc_geom_bond_type
Co0 O2 2.143 . S
Co0 O8 2.074 . S
Co0 O11 2.093 . S
Co0 O24 2.097 . S
Co0 N41 2.151 . S
Co0 N49 2.214 . S
Co1 O2 2.160 . S
Co1 O7 2.058 . S
Co1 O17 2.057 . S
Co1 O32 2.037 . S
Co1 N36 2.145 . S
Co1 N57 2.257 . S
O2 Co0 2.143 . S
O2 Co1 2.160 . S
C3 O4 1.278 . S
C3 O11 1.224 . S
O4 C3 1.278 . S
C5 O6 1.245 . S
C5 O17 1.232 . S
O6 C5 1.245 . S
O7 Co1 2.058 . S
O7 C33 1.269 . S
O8 Co0 2.074 . S
O8 C33 1.257 . S
H9 C34 0.930 . S
H10 C40 0.930 . S
O11 Co0 2.093 . S
O11 C3 1.224 . S
H12 C44 0.929 . S
H13 C46 0.930 . S
H14 C47 0.930 . S
H15 C45 0.929 . S
H16 C48 0.928 . S
O17 Co1 2.057 . S
O17 C5 1.232 . S
H18 C37 0.929 . S
H19 C38 0.929 . S
H20 C50 0.931 . S
H21 C42 0.929 . S
H22 C51 0.930 . S
H23 C43 0.931 . S
O24 Co0 2.097 . S
O24 C52 1.214 . S
H25 C53 0.929 . S
H26 C54 0.929 . S
H27 C55 0.930 . S
H28 C56 0.929 . S
H29 C58 0.930 . S
H30 C35 0.930 . S
H31 C39 0.930 . S
O32 Co1 2.037 . S
O32 C52 1.234 . S
C33 O7 1.269 . S
C33 O8 1.257 . S
C34 H9 0.930 . S
C34 C37 1.388 . S
C34 C39 1.418 . S
C35 H30 0.930 . S
C35 C38 1.404 . S
C35 C39 1.353 . S
N36 Co1 2.145 . S
N36 C37 1.397 . S
N36 C38 1.334 . S
C37 H18 0.929 . S
C37 C34 1.388 . S
C37 N36 1.397 . S
C38 H19 0.929 . S
C38 C35 1.404 . S
C38 N36 1.334 . S
C39 H31 0.930 . S
C39 C34 1.418 . S
C39 C35 1.353 . S
C40 H10 0.930 . S
C40 N41 1.330 . S
C40 C42 1.446 . S
N41 Co0 2.151 . S
N41 C40 1.330 . S
N41 C45 1.418 . S
C42 H21 0.929 . S
C42 C40 1.446 . S
C42 C43 1.332 . S
C43 H23 0.931 . S
C43 C42 1.332 . S
C43 C44 1.267 . S
C44 H12 0.929 . S
C44 C43 1.267 . S
C44 C45 1.251 . S
C45 H15 0.929 . S
C45 N41 1.418 . S
C45 C44 1.251 . S
C46 H13 0.930 . S
C46 C48 1.406 . S
C46 C51 1.261 . S
C47 H14 0.930 . S
C47 N49 1.325 . S
C47 C50 1.357 . S
C48 H16 0.928 . S
C48 C46 1.406 . S
C48 N49 1.261 . S
N49 Co0 2.214 . S
N49 C47 1.325 . S
N49 C48 1.261 . S
C50 H20 0.931 . S
C50 C47 1.357 . S
C50 C51 1.312 . S
C51 H22 0.930 . S
C51 C46 1.261 . S
C51 C50 1.312 . S
C52 O24 1.214 . S
C52 O32 1.234 . S
C53 H25 0.929 . S
C53 C56 1.391 . S
C53 C58 1.391 . S
C54 H26 0.929 . S
C54 C55 1.390 . S
C54 N57 1.391 . S
C55 H27 0.930 . S
C55 C54 1.390 . S
C55 C56 1.392 . S
C56 H28 0.929 . S
C56 C53 1.391 . S
C56 C55 1.392 . S
N57 Co1 2.257 . S
N57 C54 1.391 . S
N57 C58 1.388 . S
C58 H29 0.930 . S
C58 C53 1.391 . S
C58 N57 1.388 . S
Co59 O61 2.143 . S
Co59 O67 2.074 . S
Co59 O70 2.093 . S
Co59 O83 2.097 1_655 S
Co59 N100 2.151 . S
Co59 N108 2.214 . S
Co60 O61 2.160 1_455 S
Co60 O66 2.058 1_455 S
Co60 O76 2.057 1_455 S
Co60 O91 2.037 . S
Co60 N95 2.145 . S
Co60 N116 2.257 . S
O61 Co59 2.143 . S
O61 Co60 2.160 1_655 S
C62 O63 1.278 1_655 S
C62 O70 1.224 . S
O63 C62 1.278 1_455 S
C64 O65 1.245 . S
C64 O76 1.232 . S
O65 C64 1.245 . S
O66 Co60 2.058 1_655 S
O66 C92 1.269 . S
O67 Co59 2.074 . S
O67 C92 1.257 . S
H68 C93 0.930 . S
H69 C99 0.930 . S
O70 Co59 2.093 . S
O70 C62 1.224 . S
H71 C103 0.929 . S
H72 C105 0.930 . S
H73 C106 0.930 . S
H74 C104 0.929 . S
H75 C107 0.928 . S
O76 Co60 2.057 1_655 S
O76 C64 1.232 . S
H77 C96 0.929 . S
H78 C97 0.929 . S
H79 C109 0.931 . S
H80 C101 0.929 . S
H81 C110 0.930 . S
H82 C102 0.931 . S
O83 Co59 2.097 1_455 S
O83 C111 1.214 . S
H84 C112 0.929 . S
H85 C113 0.929 . S
H86 C114 0.930 . S
H87 C115 0.929 . S
H88 C117 0.930 . S
H89 C94 0.930 . S
H90 C98 0.930 . S
O91 Co60 2.037 . S
O91 C111 1.234 . S
C92 O66 1.269 . S
C92 O67 1.257 . S
C93 H68 0.930 . S
C93 C96 1.388 . S
C93 C98 1.418 . S
C94 H89 0.930 . S
C94 C97 1.404 . S
C94 C98 1.353 . S
N95 Co60 2.145 . S
N95 C96 1.397 . S
N95 C97 1.334 . S
C96 H77 0.929 . S
C96 C93 1.388 . S
C96 N95 1.397 . S
C97 H78 0.929 . S
C97 C94 1.404 . S
C97 N95 1.334 . S
C98 H90 0.930 . S
C98 C93 1.418 . S
C98 C94 1.353 . S
C99 H69 0.930 . S
C99 N100 1.330 . S
C99 C101 1.446 . S
N100 Co59 2.151 . S
N100 C99 1.330 . S
N100 C104 1.418 . S
C101 H80 0.929 . S
C101 C99 1.446 . S
C101 C102 1.332 . S
C102 H82 0.931 . S
C102 C101 1.332 . S
C102 C103 1.267 . S
C103 H71 0.929 . S
C103 C102 1.267 . S
C103 C104 1.251 . S
C104 H74 0.929 . S
C104 N100 1.418 . S
C104 C103 1.251 . S
C105 H72 0.930 . S
C105 C107 1.406 . S
C105 C110 1.261 . S
C106 H73 0.930 . S
C106 N108 1.325 . S
C106 C109 1.357 . S
C107 H75 0.928 . S
C107 C105 1.406 . S
C107 N108 1.261 . S
N108 Co59 2.214 . S
N108 C106 1.325 . S
N108 C107 1.261 . S
C109 H79 0.931 . S
C109 C106 1.357 . S
C109 C110 1.312 . S
C110 H81 0.930 . S
C110 C105 1.261 . S
C110 C109 1.312 . S
C111 O83 1.214 . S
C111 O91 1.234 . S
C112 H84 0.929 . S
C112 C115 1.391 . S
C112 C117 1.391 . S
C113 H85 0.929 . S
C113 C114 1.390 . S
C113 N116 1.391 . S
C114 H86 0.930 . S
C114 C113 1.390 . S
C114 C115 1.392 . S
C115 H87 0.929 . S
C115 C112 1.391 . S
C115 C114 1.392 . S
N116 Co60 2.257 . S
N116 C113 1.391 . S
N116 C117 1.388 . S
C117 H88 0.930 . S
C117 C112 1.391 . S
C117 N116 1.388 . S
Co118 O120 2.143 . S
Co118 O126 2.074 . S
Co118 O129 2.093 . S
Co118 O142 2.097 1_565 S
Co118 N159 2.151 . S
Co118 N167 2.214 . S
Co119 O120 2.160 1_545 S
Co119 O125 2.058 1_545 S
Co119 O135 2.057 1_545 S
Co119 O150 2.037 . S
Co119 N154 2.145 . S
Co119 N175 2.257 . S
O120 Co118 2.143 . S
O120 Co119 2.160 1_565 S
C121 O122 1.278 1_565 S
C121 O129 1.224 . S
O122 C121 1.278 1_545 S
C123 O124 1.245 . S
C123 O135 1.232 . S
O124 C123 1.245 . S
O125 Co119 2.058 1_565 S
O125 C151 1.269 . S
O126 Co118 2.074 . S
O126 C151 1.257 . S
H127 C152 0.930 . S
H128 C158 0.930 . S
O129 Co118 2.093 . S
O129 C121 1.224 . S
H130 C162 0.929 . S
H131 C164 0.930 . S
H132 C165 0.930 . S
H133 C163 0.929 . S
H134 C166 0.928 . S
O135 Co119 2.057 1_565 S
O135 C123 1.232 . S
H136 C155 0.929 . S
H137 C156 0.929 . S
H138 C168 0.931 . S
H139 C160 0.929 . S
H140 C169 0.930 . S
H141 C161 0.931 . S
O142 Co118 2.097 1_545 S
O142 C170 1.214 . S
H143 C171 0.929 . S
H144 C172 0.929 . S
H145 C173 0.930 . S
H146 C174 0.929 . S
H147 C176 0.930 . S
H148 C153 0.930 . S
H149 C157 0.930 . S
O150 Co119 2.037 . S
O150 C170 1.234 . S
C151 O125 1.269 . S
C151 O126 1.257 . S
C152 H127 0.930 . S
C152 C155 1.388 . S
C152 C157 1.418 . S
C153 H148 0.930 . S
C153 C156 1.404 . S
C153 C157 1.353 . S
N154 Co119 2.145 . S
N154 C155 1.397 . S
N154 C156 1.334 . S
C155 H136 0.929 . S
C155 C152 1.388 . S
C155 N154 1.397 . S
C156 H137 0.929 . S
C156 C153 1.404 . S
C156 N154 1.334 . S
C157 H149 0.930 . S
C157 C152 1.418 . S
C157 C153 1.353 . S
C158 H128 0.930 . S
C158 N159 1.330 . S
C158 C160 1.446 . S
N159 Co118 2.151 . S
N159 C158 1.330 . S
N159 C163 1.418 . S
C160 H139 0.929 . S
C160 C158 1.446 . S
C160 C161 1.332 . S
C161 H141 0.931 . S
C161 C160 1.332 . S
C161 C162 1.267 . S
C162 H130 0.929 . S
C162 C161 1.267 . S
C162 C163 1.251 . S
C163 H133 0.929 . S
C163 N159 1.418 . S
C163 C162 1.251 . S
C164 H131 0.930 . S
C164 C166 1.406 . S
C164 C169 1.261 . S
C165 H132 0.930 . S
C165 N167 1.325 . S
C165 C168 1.357 . S
C166 H134 0.928 . S
C166 C164 1.406 . S
C166 N167 1.261 . S
N167 Co118 2.214 . S
N167 C165 1.325 . S
N167 C166 1.261 . S
C168 H138 0.931 . S
C168 C165 1.357 . S
C168 C169 1.312 . S
C169 H140 0.930 . S
C169 C164 1.261 . S
C169 C168 1.312 . S
C170 O142 1.214 . S
C170 O150 1.234 . S
C171 H143 0.929 . S
C171 C174 1.391 . S
C171 C176 1.391 . S
C172 H144 0.929 . S
C172 C173 1.390 . S
C172 N175 1.391 . S
C173 H145 0.930 . S
C173 C172 1.390 . S
C173 C174 1.392 . S
C174 H146 0.929 . S
C174 C171 1.391 . S
C174 C173 1.392 . S
N175 Co119 2.257 . S
N175 C172 1.391 . S
N175 C176 1.388 . S
C176 H147 0.930 . S
C176 C171 1.391 . S
C176 N175 1.388 . S
Co177 O179 2.143 . S
Co177 O185 2.074 . S
Co177 O188 2.093 . S
Co177 O201 2.097 . S
Co177 N218 2.151 . S
Co177 N226 2.214 . S
Co178 O179 2.160 . S
Co178 O184 2.058 . S
Co178 O194 2.057 . S
Co178 O209 2.037 . S
Co178 N213 2.145 . S
Co178 N234 2.257 . S
O179 Co177 2.143 . S
O179 Co178 2.160 . S
C180 O181 1.278 . S
C180 O188 1.224 . S
O181 C180 1.278 . S
C182 O183 1.245 . S
C182 O194 1.232 . S
O183 C182 1.245 . S
O184 Co178 2.058 . S
O184 C210 1.269 . S
O185 Co177 2.074 . S
O185 C210 1.257 . S
H186 C211 0.930 . S
H187 C217 0.930 . S
O188 Co177 2.093 . S
O188 C180 1.224 . S
H189 C221 0.929 . S
H190 C223 0.930 . S
H191 C224 0.930 . S
H192 C222 0.929 . S
H193 C225 0.928 . S
O194 Co178 2.057 . S
O194 C182 1.232 . S
H195 C214 0.929 . S
H196 C215 0.929 . S
H197 C227 0.931 . S
H198 C219 0.929 . S
H199 C228 0.930 . S
H200 C220 0.931 . S
O201 Co177 2.097 . S
O201 C229 1.214 . S
H202 C230 0.929 . S
H203 C231 0.929 . S
H204 C232 0.930 . S
H205 C233 0.929 . S
H206 C235 0.930 . S
H207 C212 0.930 . S
H208 C216 0.930 . S
O209 Co178 2.037 . S
O209 C229 1.234 . S
C210 O184 1.269 . S
C210 O185 1.257 . S
C211 H186 0.930 . S
C211 C214 1.388 . S
C211 C216 1.418 . S
C212 H207 0.930 . S
C212 C215 1.404 . S
C212 C216 1.353 . S
N213 Co178 2.145 . S
N213 C214 1.397 . S
N213 C215 1.334 . S
C214 H195 0.929 . S
C214 C211 1.388 . S
C214 N213 1.397 . S
C215 H196 0.929 . S
C215 C212 1.404 . S
C215 N213 1.334 . S
C216 H208 0.930 . S
C216 C211 1.418 . S
C216 C212 1.353 . S
C217 H187 0.930 . S
C217 N218 1.330 . S
C217 C219 1.446 . S
N218 Co177 2.151 . S
N218 C217 1.330 . S
N218 C222 1.418 . S
C219 H198 0.929 . S
C219 C217 1.446 . S
C219 C220 1.332 . S
C220 H200 0.931 . S
C220 C219 1.332 . S
C220 C221 1.267 . S
C221 H189 0.929 . S
C221 C220 1.267 . S
C221 C222 1.251 . S
C222 H192 0.929 . S
C222 N218 1.418 . S
C222 C221 1.251 . S
C223 H190 0.930 . S
C223 C225 1.406 . S
C223 C228 1.261 . S
C224 H191 0.930 . S
C224 N226 1.325 . S
C224 C227 1.357 . S
C225 H193 0.928 . S
C225 C223 1.406 . S
C225 N226 1.261 . S
N226 Co177 2.214 . S
N226 C224 1.325 . S
N226 C225 1.261 . S
C227 H197 0.931 . S
C227 C224 1.357 . S
C227 C228 1.312 . S
C228 H199 0.930 . S
C228 C223 1.261 . S
C228 C227 1.312 . S
C229 O201 1.214 . S
C229 O209 1.234 . S
C230 H202 0.929 . S
C230 C233 1.391 . S
C230 C235 1.391 . S
C231 H203 0.929 . S
C231 C232 1.390 . S
C231 N234 1.391 . S
C232 H204 0.930 . S
C232 C231 1.390 . S
C232 C233 1.392 . S
C233 H205 0.929 . S
C233 C230 1.391 . S
C233 C232 1.392 . S
N234 Co178 2.257 . S
N234 C231 1.391 . S
N234 C235 1.388 . S
C235 H206 0.930 . S
C235 C230 1.391 . S
C235 N234 1.388 . S
Co236 O238 2.143 . S
Co236 O244 2.074 . S
Co236 O247 2.093 . S
Co236 O260 2.097 1_455 S
Co236 N277 2.151 . S
Co236 N285 2.214 . S
Co237 O238 2.160 1_655 S
Co237 O243 2.058 1_655 S
Co237 O253 2.057 1_655 S
Co237 O268 2.037 . S
Co237 N272 2.145 . S
Co237 N293 2.257 . S
O238 Co236 2.143 . S
O238 Co237 2.160 1_455 S
C239 O240 1.278 1_455 S
C239 O247 1.224 . S
O240 C239 1.278 1_655 S
C241 O242 1.245 . S
C241 O253 1.232 . S
O242 C241 1.245 . S
O243 Co237 2.058 1_455 S
O243 C269 1.269 . S
O244 Co236 2.074 . S
O244 C269 1.257 . S
H245 C270 0.930 . S
H246 C276 0.930 . S
O247 Co236 2.093 . S
O247 C239 1.224 . S
H248 C280 0.929 . S
H249 C282 0.930 . S
H250 C283 0.930 . S
H251 C281 0.929 . S
H252 C284 0.928 . S
O253 Co237 2.057 1_455 S
O253 C241 1.232 . S
H254 C273 0.929 . S
H255 C274 0.929 . S
H256 C286 0.931 . S
H257 C278 0.929 . S
H258 C287 0.930 . S
H259 C279 0.931 . S
O260 Co236 2.097 1_655 S
O260 C288 1.214 . S
H261 C289 0.929 . S
H262 C290 0.929 . S
H263 C291 0.930 . S
H264 C292 0.929 . S
H265 C294 0.930 . S
H266 C271 0.930 . S
H267 C275 0.930 . S
O268 Co237 2.037 . S
O268 C288 1.234 . S
C269 O243 1.269 . S
C269 O244 1.257 . S
C270 H245 0.930 . S
C270 C273 1.388 . S
C270 C275 1.418 . S
C271 H266 0.930 . S
C271 C274 1.404 . S
C271 C275 1.353 . S
N272 Co237 2.145 . S
N272 C273 1.397 . S
N272 C274 1.334 . S
C273 H254 0.929 . S
C273 C270 1.388 . S
C273 N272 1.397 . S
C274 H255 0.929 . S
C274 C271 1.404 . S
C274 N272 1.334 . S
C275 H267 0.930 . S
C275 C270 1.418 . S
C275 C271 1.353 . S
C276 H246 0.930 . S
C276 N277 1.330 . S
C276 C278 1.446 . S
N277 Co236 2.151 . S
N277 C276 1.330 . S
N277 C281 1.418 . S
C278 H257 0.929 . S
C278 C276 1.446 . S
C278 C279 1.332 . S
C279 H259 0.931 . S
C279 C278 1.332 . S
C279 C280 1.267 . S
C280 H248 0.929 . S
C280 C279 1.267 . S
C280 C281 1.251 . S
C281 H251 0.929 . S
C281 N277 1.418 . S
C281 C280 1.251 . S
C282 H249 0.930 . S
C282 C284 1.406 . S
C282 C287 1.261 . S
C283 H250 0.930 . S
C283 N285 1.325 . S
C283 C286 1.357 . S
C284 H252 0.928 . S
C284 C282 1.406 . S
C284 N285 1.261 . S
N285 Co236 2.214 . S
N285 C283 1.325 . S
N285 C284 1.261 . S
C286 H256 0.931 . S
C286 C283 1.357 . S
C286 C287 1.312 . S
C287 H258 0.930 . S
C287 C282 1.261 . S
C287 C286 1.312 . S
C288 O260 1.214 . S
C288 O268 1.234 . S
C289 H261 0.929 . S
C289 C292 1.391 . S
C289 C294 1.391 . S
C290 H262 0.929 . S
C290 C291 1.390 . S
C290 N293 1.391 . S
C291 H263 0.930 . S
C291 C290 1.390 . S
C291 C292 1.392 . S
C292 H264 0.929 . S
C292 C289 1.391 . S
C292 C291 1.392 . S
N293 Co237 2.257 . S
N293 C290 1.391 . S
N293 C294 1.388 . S
C294 H265 0.930 . S
C294 C289 1.391 . S
C294 N293 1.388 . S
Co295 O297 2.143 . S
Co295 O303 2.074 . S
Co295 O306 2.093 . S
Co295 O319 2.097 1_545 S
Co295 N336 2.151 . S
Co295 N344 2.214 . S
Co296 O297 2.160 1_565 S
Co296 O302 2.058 1_565 S
Co296 O312 2.057 1_565 S
Co296 O327 2.037 . S
Co296 N331 2.145 . S
Co296 N352 2.257 . S
O297 Co295 2.143 . S
O297 Co296 2.160 1_545 S
C298 O299 1.278 1_545 S
C298 O306 1.224 . S
O299 C298 1.278 1_565 S
C300 O301 1.245 . S
C300 O312 1.232 . S
O301 C300 1.245 . S
O302 Co296 2.058 1_545 S
O302 C328 1.269 . S
O303 Co295 2.074 . S
O303 C328 1.257 . S
H304 C329 0.930 . S
H305 C335 0.930 . S
O306 Co295 2.093 . S
O306 C298 1.224 . S
H307 C339 0.929 . S
H308 C341 0.930 . S
H309 C342 0.930 . S
H310 C340 0.929 . S
H311 C343 0.928 . S
O312 Co296 2.057 1_545 S
O312 C300 1.232 . S
H313 C332 0.929 . S
H314 C333 0.929 . S
H315 C345 0.931 . S
H316 C337 0.929 . S
H317 C346 0.930 . S
H318 C338 0.931 . S
O319 Co295 2.097 1_565 S
O319 C347 1.214 . S
H320 C348 0.929 . S
H321 C349 0.929 . S
H322 C350 0.930 . S
H323 C351 0.929 . S
H324 C353 0.930 . S
H325 C330 0.930 . S
H326 C334 0.930 . S
O327 Co296 2.037 . S
O327 C347 1.234 . S
C328 O302 1.269 . S
C328 O303 1.257 . S
C329 H304 0.930 . S
C329 C332 1.388 . S
C329 C334 1.418 . S
C330 H325 0.930 . S
C330 C333 1.404 . S
C330 C334 1.353 . S
N331 Co296 2.145 . S
N331 C332 1.397 . S
N331 C333 1.334 . S
C332 H313 0.929 . S
C332 C329 1.388 . S
C332 N331 1.397 . S
C333 H314 0.929 . S
C333 C330 1.404 . S
C333 N331 1.334 . S
C334 H326 0.930 . S
C334 C329 1.418 . S
C334 C330 1.353 . S
C335 H305 0.930 . S
C335 N336 1.330 . S
C335 C337 1.446 . S
N336 Co295 2.151 . S
N336 C335 1.330 . S
N336 C340 1.418 . S
C337 H316 0.929 . S
C337 C335 1.446 . S
C337 C338 1.332 . S
C338 H318 0.931 . S
C338 C337 1.332 . S
C338 C339 1.267 . S
C339 H307 0.929 . S
C339 C338 1.267 . S
C339 C340 1.251 . S
C340 H310 0.929 . S
C340 N336 1.418 . S
C340 C339 1.251 . S
C341 H308 0.930 . S
C341 C343 1.406 . S
C341 C346 1.261 . S
C342 H309 0.930 . S
C342 N344 1.325 . S
C342 C345 1.357 . S
C343 H311 0.928 . S
C343 C341 1.406 . S
C343 N344 1.261 . S
N344 Co295 2.214 . S
N344 C342 1.325 . S
N344 C343 1.261 . S
C345 H315 0.931 . S
C345 C342 1.357 . S
C345 C346 1.312 . S
C346 H317 0.930 . S
C346 C341 1.261 . S
C346 C345 1.312 . S
C347 O319 1.214 . S
C347 O327 1.234 . S
C348 H320 0.929 . S
C348 C351 1.391 . S
C348 C353 1.391 . S
C349 H321 0.929 . S
C349 C350 1.390 . S
C349 N352 1.391 . S
C350 H322 0.930 . S
C350 C349 1.390 . S
C350 C351 1.392 . S
C351 H323 0.929 . S
C351 C348 1.391 . S
C351 C350 1.392 . S
N352 Co296 2.257 . S
N352 C349 1.391 . S
N352 C353 1.388 . S
C353 H324 0.930 . S
C353 C348 1.391 . S
C353 N352 1.388 . S
Co354 O356 2.143 . S
Co354 O362 2.074 . S
Co354 O365 2.093 . S
Co354 O378 2.097 . S
Co354 N395 2.151 . S
Co354 N403 2.214 . S
Co355 O356 2.160 . S
Co355 O361 2.058 . S
Co355 O371 2.057 . S
Co355 O386 2.037 . S
Co355 N390 2.145 . S
Co355 N411 2.257 . S
O356 Co354 2.143 . S
O356 Co355 2.160 . S
C357 O358 1.278 . S
C357 O365 1.224 . S
O358 C357 1.278 . S
C359 O360 1.245 . S
C359 O371 1.232 . S
O360 C359 1.245 . S
O361 Co355 2.058 . S
O361 C387 1.269 . S
O362 Co354 2.074 . S
O362 C387 1.257 . S
H363 C388 0.930 . S
H364 C394 0.930 . S
O365 Co354 2.093 . S
O365 C357 1.224 . S
H366 C398 0.929 . S
H367 C400 0.930 . S
H368 C401 0.930 . S
H369 C399 0.929 . S
H370 C402 0.928 . S
O371 Co355 2.057 . S
O371 C359 1.232 . S
H372 C391 0.929 . S
H373 C392 0.929 . S
H374 C404 0.931 . S
H375 C396 0.929 . S
H376 C405 0.930 . S
H377 C397 0.931 . S
O378 Co354 2.097 . S
O378 C406 1.214 . S
H379 C407 0.929 . S
H380 C408 0.929 . S
H381 C409 0.930 . S
H382 C410 0.929 . S
H383 C412 0.930 . S
H384 C389 0.930 . S
H385 C393 0.930 . S
O386 Co355 2.037 . S
O386 C406 1.234 . S
C387 O361 1.269 . S
C387 O362 1.257 . S
C388 H363 0.930 . S
C388 C391 1.388 . S
C388 C393 1.418 . S
C389 H384 0.930 . S
C389 C392 1.404 . S
C389 C393 1.353 . S
N390 Co355 2.145 . S
N390 C391 1.397 . S
N390 C392 1.334 . S
C391 H372 0.929 . S
C391 C388 1.388 . S
C391 N390 1.397 . S
C392 H373 0.929 . S
C392 C389 1.404 . S
C392 N390 1.334 . S
C393 H385 0.930 . S
C393 C388 1.418 . S
C393 C389 1.353 . S
C394 H364 0.930 . S
C394 N395 1.330 . S
C394 C396 1.446 . S
N395 Co354 2.151 . S
N395 C394 1.330 . S
N395 C399 1.418 . S
C396 H375 0.929 . S
C396 C394 1.446 . S
C396 C397 1.332 . S
C397 H377 0.931 . S
C397 C396 1.332 . S
C397 C398 1.267 . S
C398 H366 0.929 . S
C398 C397 1.267 . S
C398 C399 1.251 . S
C399 H369 0.929 . S
C399 N395 1.418 . S
C399 C398 1.251 . S
C400 H367 0.930 . S
C400 C402 1.406 . S
C400 C405 1.261 . S
C401 H368 0.930 . S
C401 N403 1.325 . S
C401 C404 1.357 . S
C402 H370 0.928 . S
C402 C400 1.406 . S
C402 N403 1.261 . S
N403 Co354 2.214 . S
N403 C401 1.325 . S
N403 C402 1.261 . S
C404 H374 0.931 . S
C404 C401 1.357 . S
C404 C405 1.312 . S
C405 H376 0.930 . S
C405 C400 1.261 . S
C405 C404 1.312 . S
C406 O378 1.214 . S
C406 O386 1.234 . S
C407 H379 0.929 . S
C407 C410 1.391 . S
C407 C412 1.391 . S
C408 H380 0.929 . S
C408 C409 1.390 . S
C408 N411 1.391 . S
C409 H381 0.930 . S
C409 C408 1.390 . S
C409 C410 1.392 . S
C410 H382 0.929 . S
C410 C407 1.391 . S
C410 C409 1.392 . S
N411 Co355 2.257 . S
N411 C408 1.391 . S
N411 C412 1.388 . S
C412 H383 0.930 . S
C412 C407 1.391 . S
C412 N411 1.388 . S
Co413 O415 2.143 . S
Co413 O421 2.074 . S
Co413 O424 2.093 . S
Co413 O437 2.097 1_655 S
Co413 N454 2.151 . S
Co413 N462 2.214 . S
Co414 O415 2.160 1_455 S
Co414 O420 2.058 1_455 S
Co414 O430 2.057 1_455 S
Co414 O445 2.037 . S
Co414 N449 2.145 . S
Co414 N470 2.257 . S
O415 Co413 2.143 . S
O415 Co414 2.160 1_655 S
C416 O417 1.278 1_655 S
C416 O424 1.224 . S
O417 C416 1.278 1_455 S
C418 O419 1.245 . S
C418 O430 1.232 . S
O419 C418 1.245 . S
O420 Co414 2.058 1_655 S
O420 C446 1.269 . S
O421 Co413 2.074 . S
O421 C446 1.257 . S
H422 C447 0.930 . S
H423 C453 0.930 . S
O424 Co413 2.093 . S
O424 C416 1.224 . S
H425 C457 0.929 . S
H426 C459 0.930 . S
H427 C460 0.930 . S
H428 C458 0.929 . S
H429 C461 0.928 . S
O430 Co414 2.057 1_655 S
O430 C418 1.232 . S
H431 C450 0.929 . S
H432 C451 0.929 . S
H433 C463 0.931 . S
H434 C455 0.929 . S
H435 C464 0.930 . S
H436 C456 0.931 . S
O437 Co413 2.097 1_455 S
O437 C465 1.214 . S
H438 C466 0.929 . S
H439 C467 0.929 . S
H440 C468 0.930 . S
H441 C469 0.929 . S
H442 C471 0.930 . S
H443 C448 0.930 . S
H444 C452 0.930 . S
O445 Co414 2.037 . S
O445 C465 1.234 . S
C446 O420 1.269 . S
C446 O421 1.257 . S
C447 H422 0.930 . S
C447 C450 1.388 . S
C447 C452 1.418 . S
C448 H443 0.930 . S
C448 C451 1.404 . S
C448 C452 1.353 . S
N449 Co414 2.145 . S
N449 C450 1.397 . S
N449 C451 1.334 . S
C450 H431 0.929 . S
C450 C447 1.388 . S
C450 N449 1.397 . S
C451 H432 0.929 . S
C451 C448 1.404 . S
C451 N449 1.334 . S
C452 H444 0.930 . S
C452 C447 1.418 . S
C452 C448 1.353 . S
C453 H423 0.930 . S
C453 N454 1.330 . S
C453 C455 1.446 . S
N454 Co413 2.151 . S
N454 C453 1.330 . S
N454 C458 1.418 . S
C455 H434 0.929 . S
C455 C453 1.446 . S
C455 C456 1.332 . S
C456 H436 0.931 . S
C456 C455 1.332 . S
C456 C457 1.267 . S
C457 H425 0.929 . S
C457 C456 1.267 . S
C457 C458 1.251 . S
C458 H428 0.929 . S
C458 N454 1.418 . S
C458 C457 1.251 . S
C459 H426 0.930 . S
C459 C461 1.406 . S
C459 C464 1.261 . S
C460 H427 0.930 . S
C460 N462 1.325 . S
C460 C463 1.357 . S
C461 H429 0.928 . S
C461 C459 1.406 . S
C461 N462 1.261 . S
N462 Co413 2.214 . S
N462 C460 1.325 . S
N462 C461 1.261 . S
C463 H433 0.931 . S
C463 C460 1.357 . S
C463 C464 1.312 . S
C464 H435 0.930 . S
C464 C459 1.261 . S
C464 C463 1.312 . S
C465 O437 1.214 . S
C465 O445 1.234 . S
C466 H438 0.929 . S
C466 C469 1.391 . S
C466 C471 1.391 . S
C467 H439 0.929 . S
C467 C468 1.390 . S
C467 N470 1.391 . S
C468 H440 0.930 . S
C468 C467 1.390 . S
C468 C469 1.392 . S
C469 H441 0.929 . S
C469 C466 1.391 . S
C469 C468 1.392 . S
N470 Co414 2.257 . S
N470 C467 1.391 . S
N470 C471 1.388 . S
C471 H442 0.930 . S
C471 C466 1.391 . S
C471 N470 1.388 . S
Co472 O474 2.143 . S
Co472 O480 2.074 . S
Co472 O483 2.093 . S
Co472 O496 2.097 1_565 S
Co472 N513 2.151 . S
Co472 N521 2.214 . S
Co473 O474 2.160 1_545 S
Co473 O479 2.058 1_545 S
Co473 O489 2.057 1_545 S
Co473 O504 2.037 . S
Co473 N508 2.145 . S
Co473 N529 2.257 . S
O474 Co472 2.143 . S
O474 Co473 2.160 1_565 S
C475 O476 1.278 1_565 S
C475 O483 1.224 . S
O476 C475 1.278 1_545 S
C477 O478 1.245 . S
C477 O489 1.232 . S
O478 C477 1.245 . S
O479 Co473 2.058 1_565 S
O479 C505 1.269 . S
O480 Co472 2.074 . S
O480 C505 1.257 . S
H481 C506 0.930 . S
H482 C512 0.930 . S
O483 Co472 2.093 . S
O483 C475 1.224 . S
H484 C516 0.929 . S
H485 C518 0.930 . S
H486 C519 0.930 . S
H487 C517 0.929 . S
H488 C520 0.928 . S
O489 Co473 2.057 1_565 S
O489 C477 1.232 . S
H490 C509 0.929 . S
H491 C510 0.929 . S
H492 C522 0.931 . S
H493 C514 0.929 . S
H494 C523 0.930 . S
H495 C515 0.931 . S
O496 Co472 2.097 1_545 S
O496 C524 1.214 . S
H497 C525 0.929 . S
H498 C526 0.929 . S
H499 C527 0.930 . S
H500 C528 0.929 . S
H501 C530 0.930 . S
H502 C507 0.930 . S
H503 C511 0.930 . S
O504 Co473 2.037 . S
O504 C524 1.234 . S
C505 O479 1.269 . S
C505 O480 1.257 . S
C506 H481 0.930 . S
C506 C509 1.388 . S
C506 C511 1.418 . S
C507 H502 0.930 . S
C507 C510 1.404 . S
C507 C511 1.353 . S
N508 Co473 2.145 . S
N508 C509 1.397 . S
N508 C510 1.334 . S
C509 H490 0.929 . S
C509 C506 1.388 . S
C509 N508 1.397 . S
C510 H491 0.929 . S
C510 C507 1.404 . S
C510 N508 1.334 . S
C511 H503 0.930 . S
C511 C506 1.418 . S
C511 C507 1.353 . S
C512 H482 0.930 . S
C512 N513 1.330 . S
C512 C514 1.446 . S
N513 Co472 2.151 . S
N513 C512 1.330 . S
N513 C517 1.418 . S
C514 H493 0.929 . S
C514 C512 1.446 . S
C514 C515 1.332 . S
C515 H495 0.931 . S
C515 C514 1.332 . S
C515 C516 1.267 . S
C516 H484 0.929 . S
C516 C515 1.267 . S
C516 C517 1.251 . S
C517 H487 0.929 . S
C517 N513 1.418 . S
C517 C516 1.251 . S
C518 H485 0.930 . S
C518 C520 1.406 . S
C518 C523 1.261 . S
C519 H486 0.930 . S
C519 N521 1.325 . S
C519 C522 1.357 . S
C520 H488 0.928 . S
C520 C518 1.406 . S
C520 N521 1.261 . S
N521 Co472 2.214 . S
N521 C519 1.325 . S
N521 C520 1.261 . S
C522 H492 0.931 . S
C522 C519 1.357 . S
C522 C523 1.312 . S
C523 H494 0.930 . S
C523 C518 1.261 . S
C523 C522 1.312 . S
C524 O496 1.214 . S
C524 O504 1.234 . S
C525 H497 0.929 . S
C525 C528 1.391 . S
C525 C530 1.391 . S
C526 H498 0.929 . S
C526 C527 1.390 . S
C526 N529 1.391 . S
C527 H499 0.930 . S
C527 C526 1.390 . S
C527 C528 1.392 . S
C528 H500 0.929 . S
C528 C525 1.391 . S
C528 C527 1.392 . S
N529 Co473 2.257 . S
N529 C526 1.391 . S
N529 C530 1.388 . S
C530 H501 0.930 . S
C530 C525 1.391 . S
C530 N529 1.388 . S
Co531 O533 2.143 . S
Co531 O539 2.074 . S
Co531 O542 2.093 . S
Co531 O555 2.097 . S
Co531 N572 2.151 . S
Co531 N580 2.214 . S
Co532 O533 2.160 . S
Co532 O538 2.058 . S
Co532 O548 2.057 . S
Co532 O563 2.037 . S
Co532 N567 2.145 . S
Co532 N588 2.257 . S
O533 Co531 2.143 . S
O533 Co532 2.160 . S
C534 O535 1.278 . S
C534 O542 1.224 . S
O535 C534 1.278 . S
C536 O537 1.245 . S
C536 O548 1.232 . S
O537 C536 1.245 . S
O538 Co532 2.058 . S
O538 C564 1.269 . S
O539 Co531 2.074 . S
O539 C564 1.257 . S
H540 C565 0.930 . S
H541 C571 0.930 . S
O542 Co531 2.093 . S
O542 C534 1.224 . S
H543 C575 0.929 . S
H544 C577 0.930 . S
H545 C578 0.930 . S
H546 C576 0.929 . S
H547 C579 0.928 . S
O548 Co532 2.057 . S
O548 C536 1.232 . S
H549 C568 0.929 . S
H550 C569 0.929 . S
H551 C581 0.931 . S
H552 C573 0.929 . S
H553 C582 0.930 . S
H554 C574 0.931 . S
O555 Co531 2.097 . S
O555 C583 1.214 . S
H556 C584 0.929 . S
H557 C585 0.929 . S
H558 C586 0.930 . S
H559 C587 0.929 . S
H560 C589 0.930 . S
H561 C566 0.930 . S
H562 C570 0.930 . S
O563 Co532 2.037 . S
O563 C583 1.234 . S
C564 O538 1.269 . S
C564 O539 1.257 . S
C565 H540 0.930 . S
C565 C568 1.388 . S
C565 C570 1.418 . S
C566 H561 0.930 . S
C566 C569 1.404 . S
C566 C570 1.353 . S
N567 Co532 2.145 . S
N567 C568 1.397 . S
N567 C569 1.334 . S
C568 H549 0.929 . S
C568 C565 1.388 . S
C568 N567 1.397 . S
C569 H550 0.929 . S
C569 C566 1.404 . S
C569 N567 1.334 . S
C570 H562 0.930 . S
C570 C565 1.418 . S
C570 C566 1.353 . S
C571 H541 0.930 . S
C571 N572 1.330 . S
C571 C573 1.446 . S
N572 Co531 2.151 . S
N572 C571 1.330 . S
N572 C576 1.418 . S
C573 H552 0.929 . S
C573 C571 1.446 . S
C573 C574 1.332 . S
C574 H554 0.931 . S
C574 C573 1.332 . S
C574 C575 1.267 . S
C575 H543 0.929 . S
C575 C574 1.267 . S
C575 C576 1.251 . S
C576 H546 0.929 . S
C576 N572 1.418 . S
C576 C575 1.251 . S
C577 H544 0.930 . S
C577 C579 1.406 . S
C577 C582 1.261 . S
C578 H545 0.930 . S
C578 N580 1.325 . S
C578 C581 1.357 . S
C579 H547 0.928 . S
C579 C577 1.406 . S
C579 N580 1.261 . S
N580 Co531 2.214 . S
N580 C578 1.325 . S
N580 C579 1.261 . S
C581 H551 0.931 . S
C581 C578 1.357 . S
C581 C582 1.312 . S
C582 H553 0.930 . S
C582 C577 1.261 . S
C582 C581 1.312 . S
C583 O555 1.214 . S
C583 O563 1.234 . S
C584 H556 0.929 . S
C584 C587 1.391 . S
C584 C589 1.391 . S
C585 H557 0.929 . S
C585 C586 1.390 . S
C585 N588 1.391 . S
C586 H558 0.930 . S
C586 C585 1.390 . S
C586 C587 1.392 . S
C587 H559 0.929 . S
C587 C584 1.391 . S
C587 C586 1.392 . S
N588 Co532 2.257 . S
N588 C585 1.391 . S
N588 C589 1.388 . S
C589 H560 0.930 . S
C589 C584 1.391 . S
C589 N588 1.388 . S
Co590 O592 2.143 . S
Co590 O598 2.074 . S
Co590 O601 2.093 . S
Co590 O614 2.097 1_455 S
Co590 N631 2.151 . S
Co590 N639 2.214 . S
Co591 O592 2.160 1_655 S
Co591 O597 2.058 1_655 S
Co591 O607 2.057 1_655 S
Co591 O622 2.037 . S
Co591 N626 2.145 . S
Co591 N647 2.257 . S
O592 Co590 2.143 . S
O592 Co591 2.160 1_455 S
C593 O594 1.278 1_455 S
C593 O601 1.224 . S
O594 C593 1.278 1_655 S
C595 O596 1.245 . S
C595 O607 1.232 . S
O596 C595 1.245 . S
O597 Co591 2.058 1_455 S
O597 C623 1.269 . S
O598 Co590 2.074 . S
O598 C623 1.257 . S
H599 C624 0.930 . S
H600 C630 0.930 . S
O601 Co590 2.093 . S
O601 C593 1.224 . S
H602 C634 0.929 . S
H603 C636 0.930 . S
H604 C637 0.930 . S
H605 C635 0.929 . S
H606 C638 0.928 . S
O607 Co591 2.057 1_455 S
O607 C595 1.232 . S
H608 C627 0.929 . S
H609 C628 0.929 . S
H610 C640 0.931 . S
H611 C632 0.929 . S
H612 C641 0.930 . S
H613 C633 0.931 . S
O614 Co590 2.097 1_655 S
O614 C642 1.214 . S
H615 C643 0.929 . S
H616 C644 0.929 . S
H617 C645 0.930 . S
H618 C646 0.929 . S
H619 C648 0.930 . S
H620 C625 0.930 . S
H621 C629 0.930 . S
O622 Co591 2.037 . S
O622 C642 1.234 . S
C623 O597 1.269 . S
C623 O598 1.257 . S
C624 H599 0.930 . S
C624 C627 1.388 . S
C624 C629 1.418 . S
C625 H620 0.930 . S
C625 C628 1.404 . S
C625 C629 1.353 . S
N626 Co591 2.145 . S
N626 C627 1.397 . S
N626 C628 1.334 . S
C627 H608 0.929 . S
C627 C624 1.388 . S
C627 N626 1.397 . S
C628 H609 0.929 . S
C628 C625 1.404 . S
C628 N626 1.334 . S
C629 H621 0.930 . S
C629 C624 1.418 . S
C629 C625 1.353 . S
C630 H600 0.930 . S
C630 N631 1.330 . S
C630 C632 1.446 . S
N631 Co590 2.151 . S
N631 C630 1.330 . S
N631 C635 1.418 . S
C632 H611 0.929 . S
C632 C630 1.446 . S
C632 C633 1.332 . S
C633 H613 0.931 . S
C633 C632 1.332 . S
C633 C634 1.267 . S
C634 H602 0.929 . S
C634 C633 1.267 . S
C634 C635 1.251 . S
C635 H605 0.929 . S
C635 N631 1.418 . S
C635 C634 1.251 . S
C636 H603 0.930 . S
C636 C638 1.406 . S
C636 C641 1.261 . S
C637 H604 0.930 . S
C637 N639 1.325 . S
C637 C640 1.357 . S
C638 H606 0.928 . S
C638 C636 1.406 . S
C638 N639 1.261 . S
N639 Co590 2.214 . S
N639 C637 1.325 . S
N639 C638 1.261 . S
C640 H610 0.931 . S
C640 C637 1.357 . S
C640 C641 1.312 . S
C641 H612 0.930 . S
C641 C636 1.261 . S
C641 C640 1.312 . S
C642 O614 1.214 . S
C642 O622 1.234 . S
C643 H615 0.929 . S
C643 C646 1.391 . S
C643 C648 1.391 . S
C644 H616 0.929 . S
C644 C645 1.390 . S
C644 N647 1.391 . S
C645 H617 0.930 . S
C645 C644 1.390 . S
C645 C646 1.392 . S
C646 H618 0.929 . S
C646 C643 1.391 . S
C646 C645 1.392 . S
N647 Co591 2.257 . S
N647 C644 1.391 . S
N647 C648 1.388 . S
C648 H619 0.930 . S
C648 C643 1.391 . S
C648 N647 1.388 . S
Co649 O651 2.143 . S
Co649 O657 2.074 . S
Co649 O660 2.093 . S
Co649 O673 2.097 1_545 S
Co649 N690 2.151 . S
Co649 N698 2.214 . S
Co650 O651 2.160 1_565 S
Co650 O656 2.058 1_565 S
Co650 O666 2.057 1_565 S
Co650 O681 2.037 . S
Co650 N685 2.145 . S
Co650 N706 2.257 . S
O651 Co649 2.143 . S
O651 Co650 2.160 1_545 S
C652 O653 1.278 1_545 S
C652 O660 1.224 . S
O653 C652 1.278 1_565 S
C654 O655 1.245 . S
C654 O666 1.232 . S
O655 C654 1.245 . S
O656 Co650 2.058 1_545 S
O656 C682 1.269 . S
O657 Co649 2.074 . S
O657 C682 1.257 . S
H658 C683 0.930 . S
H659 C689 0.930 . S
O660 Co649 2.093 . S
O660 C652 1.224 . S
H661 C693 0.929 . S
H662 C695 0.930 . S
H663 C696 0.930 . S
H664 C694 0.929 . S
H665 C697 0.928 . S
O666 Co650 2.057 1_545 S
O666 C654 1.232 . S
H667 C686 0.929 . S
H668 C687 0.929 . S
H669 C699 0.931 . S
H670 C691 0.929 . S
H671 C700 0.930 . S
H672 C692 0.931 . S
O673 Co649 2.097 1_565 S
O673 C701 1.214 . S
H674 C702 0.929 . S
H675 C703 0.929 . S
H676 C704 0.930 . S
H677 C705 0.929 . S
H678 C707 0.930 . S
H679 C684 0.930 . S
H680 C688 0.930 . S
O681 Co650 2.037 . S
O681 C701 1.234 . S
C682 O656 1.269 . S
C682 O657 1.257 . S
C683 H658 0.930 . S
C683 C686 1.388 . S
C683 C688 1.418 . S
C684 H679 0.930 . S
C684 C687 1.404 . S
C684 C688 1.353 . S
N685 Co650 2.145 . S
N685 C686 1.397 . S
N685 C687 1.334 . S
C686 H667 0.929 . S
C686 C683 1.388 . S
C686 N685 1.397 . S
C687 H668 0.929 . S
C687 C684 1.404 . S
C687 N685 1.334 . S
C688 H680 0.930 . S
C688 C683 1.418 . S
C688 C684 1.353 . S
C689 H659 0.930 . S
C689 N690 1.330 . S
C689 C691 1.446 . S
N690 Co649 2.151 . S
N690 C689 1.330 . S
N690 C694 1.418 . S
C691 H670 0.929 . S
C691 C689 1.446 . S
C691 C692 1.332 . S
C692 H672 0.931 . S
C692 C691 1.332 . S
C692 C693 1.267 . S
C693 H661 0.929 . S
C693 C692 1.267 . S
C693 C694 1.251 . S
C694 H664 0.929 . S
C694 N690 1.418 . S
C694 C693 1.251 . S
C695 H662 0.930 . S
C695 C697 1.406 . S
C695 C700 1.261 . S
C696 H663 0.930 . S
C696 N698 1.325 . S
C696 C699 1.357 . S
C697 H665 0.928 . S
C697 C695 1.406 . S
C697 N698 1.261 . S
N698 Co649 2.214 . S
N698 C696 1.325 . S
N698 C697 1.261 . S
C699 H669 0.931 . S
C699 C696 1.357 . S
C699 C700 1.312 . S
C700 H671 0.930 . S
C700 C695 1.261 . S
C700 C699 1.312 . S
C701 O673 1.214 . S
C701 O681 1.234 . S
C702 H674 0.929 . S
C702 C705 1.391 . S
C702 C707 1.391 . S
C703 H675 0.929 . S
C703 C704 1.390 . S
C703 N706 1.391 . S
C704 H676 0.930 . S
C704 C703 1.390 . S
C704 C705 1.392 . S
C705 H677 0.929 . S
C705 C702 1.391 . S
C705 C704 1.392 . S
N706 Co650 2.257 . S
N706 C703 1.391 . S
N706 C707 1.388 . S
C707 H678 0.930 . S
C707 C702 1.391 . S
C707 N706 1.388 . S
H708 C714 0.930 . S
H709 C718 0.930 . S
H710 C723 0.929 . S
H711 C721 0.929 . S
H712 C716 0.929 . S
H713 C722 0.929 . S
C714 H708 0.930 . S
C714 C715 1.367 . S
C714 C722 1.378 . S
C715 C714 1.367 . S
C715 C723 1.433 . S
C716 H712 0.929 . S
C716 C718 1.378 . S
C716 C720 1.350 . S
C717 C720 1.463 1_655 S
C717 C722 1.350 . S
C717 N725 1.427 . S
C718 H709 0.930 . S
C718 C716 1.378 . S
C718 C719 1.367 . S
C719 C718 1.367 . S
C719 C721 1.433 . S
C720 C716 1.350 . S
C720 C717 1.463 1_455 S
C720 N724 1.427 . S
C721 H711 0.929 . S
C721 C719 1.433 . S
C721 N724 1.384 . S
C722 H713 0.929 . S
C722 C714 1.378 . S
C722 C717 1.350 . S
C723 H710 0.929 . S
C723 C715 1.433 . S
C723 N725 1.384 . S
N724 C720 1.427 . S
N724 C721 1.384 . S
N725 C717 1.427 . S
N725 C723 1.384 . S
H726 C732 0.930 . S
H727 C736 0.930 . S
H728 C741 0.929 . S
H729 C739 0.929 . S
H730 C734 0.929 . S
H731 C740 0.929 . S
C732 H726 0.930 . S
C732 C733 1.367 . S
C732 C740 1.378 . S
C733 C732 1.367 . S
C733 C741 1.433 . S
C734 H730 0.929 . S
C734 C736 1.378 . S
C734 C738 1.350 . S
C735 C738 1.463 1_545 S
C735 C740 1.350 . S
C735 N743 1.427 . S
C736 H727 0.930 . S
C736 C734 1.378 . S
C736 C737 1.367 . S
C737 C736 1.367 . S
C737 C739 1.433 . S
C738 C734 1.350 . S
C738 C735 1.463 1_565 S
C738 N742 1.427 . S
C739 H729 0.929 . S
C739 C737 1.433 . S
C739 N742 1.384 . S
C740 H731 0.929 . S
C740 C732 1.378 . S
C740 C735 1.350 . S
C741 H728 0.929 . S
C741 C733 1.433 . S
C741 N743 1.384 . S
N742 C738 1.427 . S
N742 C739 1.384 . S
N743 C735 1.427 . S
N743 C741 1.384 . S
H744 C750 0.930 . S
H745 C754 0.930 . S
H746 C759 0.929 . S
H747 C757 0.929 . S
H748 C752 0.929 . S
H749 C758 0.929 . S
C750 H744 0.930 . S
C750 C751 1.367 . S
C750 C758 1.378 . S
C751 C750 1.367 . S
C751 C759 1.433 . S
C752 H748 0.929 . S
C752 C754 1.378 . S
C752 C756 1.350 . S
C753 C756 1.463 . S
C753 C758 1.350 . S
C753 N761 1.427 . S
C754 H745 0.930 . S
C754 C752 1.378 . S
C754 C755 1.367 . S
C755 C754 1.367 . S
C755 C757 1.433 . S
C756 C752 1.350 . S
C756 C753 1.463 . S
C756 N760 1.427 . S
C757 H747 0.929 . S
C757 C755 1.433 . S
C757 N760 1.384 . S
C758 H749 0.929 . S
C758 C750 1.378 . S
C758 C753 1.350 . S
C759 H746 0.929 . S
C759 C751 1.433 . S
C759 N761 1.384 . S
N760 C756 1.427 . S
N760 C757 1.384 . S
N761 C753 1.427 . S
N761 C759 1.384 . S
H762 C768 0.930 . S
H763 C772 0.930 . S
H764 C777 0.929 . S
H765 C775 0.929 . S
H766 C770 0.929 . S
H767 C776 0.929 . S
C768 H762 0.930 . S
C768 C769 1.367 . S
C768 C776 1.378 . S
C769 C768 1.367 . S
C769 C777 1.433 . S
C770 H766 0.929 . S
C770 C772 1.378 . S
C770 C774 1.350 . S
C771 C774 1.463 1_655 S
C771 C776 1.350 . S
C771 N779 1.427 . S
C772 H763 0.930 . S
C772 C770 1.378 . S
C772 C773 1.367 . S
C773 C772 1.367 . S
C773 C775 1.433 . S
C774 C770 1.350 . S
C774 C771 1.463 1_455 S
C774 N778 1.427 . S
C775 H765 0.929 . S
C775 C773 1.433 . S
C775 N778 1.384 . S
C776 H767 0.929 . S
C776 C768 1.378 . S
C776 C771 1.350 . S
C777 H764 0.929 . S
C777 C769 1.433 . S
C777 N779 1.384 . S
N778 C774 1.427 . S
N778 C775 1.384 . S
N779 C771 1.427 . S
N779 C777 1.384 . S
H780 C786 0.930 . S
H781 C790 0.930 . S
H782 C795 0.929 . S
H783 C793 0.929 . S
H784 C788 0.929 . S
H785 C794 0.929 . S
C786 H780 0.930 . S
C786 C787 1.367 . S
C786 C794 1.378 . S
C787 C786 1.367 . S
C787 C795 1.433 . S
C788 H784 0.929 . S
C788 C790 1.378 . S
C788 C792 1.350 . S
C789 C792 1.463 1_545 S
C789 C794 1.350 . S
C789 N797 1.427 . S
C790 H781 0.930 . S
C790 C788 1.378 . S
C790 C791 1.367 . S
C791 C790 1.367 . S
C791 C793 1.433 . S
C792 C788 1.350 . S
C792 C789 1.463 1_565 S
C792 N796 1.427 . S
C793 H783 0.929 . S
C793 C791 1.433 . S
C793 N796 1.384 . S
C794 H785 0.929 . S
C794 C786 1.378 . S
C794 C789 1.350 . S
C795 H782 0.929 . S
C795 C787 1.433 . S
C795 N797 1.384 . S
N796 C792 1.427 . S
N796 C793 1.384 . S
N797 C789 1.427 . S
N797 C795 1.384 . S
H798 C804 0.930 . S
H799 C808 0.930 . S
H800 C813 0.929 . S
H801 C811 0.929 . S
H802 C806 0.929 . S
H803 C812 0.929 . S
C804 H798 0.930 . S
C804 C805 1.367 . S
C804 C812 1.378 . S
C805 C804 1.367 . S
C805 C813 1.433 . S
C806 H802 0.929 . S
C806 C808 1.378 . S
C806 C810 1.350 . S
C807 C810 1.463 . S
C807 C812 1.350 . S
C807 N815 1.427 . S
C808 H799 0.930 . S
C808 C806 1.378 . S
C808 C809 1.367 . S
C809 C808 1.367 . S
C809 C811 1.433 . S
C810 C806 1.350 . S
C810 C807 1.463 . S
C810 N814 1.427 . S
C811 H801 0.929 . S
C811 C809 1.433 . S
C811 N814 1.384 . S
C812 H803 0.929 . S
C812 C804 1.378 . S
C812 C807 1.350 . S
C813 H800 0.929 . S
C813 C805 1.433 . S
C813 N815 1.384 . S
N814 C810 1.427 . S
N814 C811 1.384 . S
N815 C807 1.427 . S
N815 C813 1.384 . S
H816 C822 0.930 . S
H817 C826 0.930 . S
H818 C831 0.929 . S
H819 C829 0.929 . S
H820 C824 0.929 . S
H821 C830 0.929 . S
C822 H816 0.930 . S
C822 C823 1.367 . S
C822 C830 1.378 . S
C823 C822 1.367 . S
C823 C831 1.433 . S
C824 H820 0.929 . S
C824 C826 1.378 . S
C824 C828 1.350 . S
C825 C828 1.463 . S
C825 C830 1.350 . S
C825 N833 1.427 . S
C826 H817 0.930 . S
C826 C824 1.378 . S
C826 C827 1.367 . S
C827 C826 1.367 . S
C827 C829 1.433 . S
C828 C824 1.350 . S
C828 C825 1.463 . S
C828 N832 1.427 . S
C829 H819 0.929 . S
C829 C827 1.433 . S
C829 N832 1.384 . S
C830 H821 0.929 . S
C830 C822 1.378 . S
C830 C825 1.350 . S
C831 H818 0.929 . S
C831 C823 1.433 . S
C831 N833 1.384 . S
N832 C828 1.427 . S
N832 C829 1.384 . S
N833 C825 1.427 . S
N833 C831 1.384 . S
H834 C840 0.930 . S
H835 C844 0.930 . S
H836 C849 0.929 . S
H837 C847 0.929 . S
H838 C842 0.929 . S
H839 C848 0.929 . S
C840 H834 0.930 . S
C840 C841 1.367 . S
C840 C848 1.378 . S
C841 C840 1.367 . S
C841 C849 1.433 1_455 S
C842 H838 0.929 . S
C842 C844 1.378 . S
C842 C846 1.350 . S
C843 C846 1.463 1_455 S
C843 C848 1.350 . S
C843 N851 1.427 1_455 S
C844 H835 0.930 . S
C844 C842 1.378 . S
C844 C845 1.367 . S
C845 C844 1.367 . S
C845 C847 1.433 1_655 S
C846 C842 1.350 . S
C846 C843 1.463 1_655 S
C846 N850 1.427 1_655 S
C847 H837 0.929 . S
C847 C845 1.433 1_455 S
C847 N850 1.384 . S
C848 H839 0.929 . S
C848 C840 1.378 . S
C848 C843 1.350 . S
C849 H836 0.929 . S
C849 C841 1.433 1_655 S
C849 N851 1.384 . S
N850 C846 1.427 1_455 S
N850 C847 1.384 . S
N851 C843 1.427 1_655 S
N851 C849 1.384 . S
H852 C858 0.930 . S
H853 C862 0.930 . S
H854 C867 0.929 . S
H855 C865 0.929 . S
H856 C860 0.929 . S
H857 C866 0.929 . S
C858 H852 0.930 . S
C858 C859 1.367 . S
C858 C866 1.378 . S
C859 C858 1.367 . S
C859 C867 1.433 . S
C860 H856 0.929 . S
C860 C862 1.378 . S
C860 C864 1.350 . S
C861 C864 1.463 1_545 S
C861 C866 1.350 . S
C861 N869 1.427 . S
C862 H853 0.930 . S
C862 C860 1.378 . S
C862 C863 1.367 . S
C863 C862 1.367 . S
C863 C865 1.433 . S
C864 C860 1.350 . S
C864 C861 1.463 1_565 S
C864 N868 1.427 . S
C865 H855 0.929 . S
C865 C863 1.433 . S
C865 N868 1.384 . S
C866 H857 0.929 . S
C866 C858 1.378 . S
C866 C861 1.350 . S
C867 H854 0.929 . S
C867 C859 1.433 . S
C867 N869 1.384 . S
N868 C864 1.427 . S
N868 C865 1.384 . S
N869 C861 1.427 . S
N869 C867 1.384 . S
H870 C876 0.930 . S
H871 C880 0.930 . S
H872 C885 0.929 . S
H873 C883 0.929 . S
H874 C878 0.929 . S
H875 C884 0.929 . S
C876 H870 0.930 . S
C876 C877 1.367 . S
C876 C884 1.378 . S
C877 C876 1.367 . S
C877 C885 1.433 . S
C878 H874 0.929 . S
C878 C880 1.378 . S
C878 C882 1.350 . S
C879 C882 1.463 . S
C879 C884 1.350 . S
C879 N887 1.427 . S
C880 H871 0.930 . S
C880 C878 1.378 . S
C880 C881 1.367 . S
C881 C880 1.367 . S
C881 C883 1.433 . S
C882 C878 1.350 . S
C882 C879 1.463 . S
C882 N886 1.427 . S
C883 H873 0.929 . S
C883 C881 1.433 . S
C883 N886 1.384 . S
C884 H875 0.929 . S
C884 C876 1.378 . S
C884 C879 1.350 . S
C885 H872 0.929 . S
C885 C877 1.433 . S
C885 N887 1.384 . S
N886 C882 1.427 . S
N886 C883 1.384 . S
N887 C879 1.427 . S
N887 C885 1.384 . S
H888 C894 0.930 . S
H889 C898 0.930 . S
H890 C903 0.929 . S
H891 C901 0.929 . S
H892 C896 0.929 . S
H893 C902 0.929 . S
C894 H888 0.930 . S
C894 C895 1.367 1_455 S
C894 C902 1.378 . S
C895 C894 1.367 1_655 S
C895 C903 1.433 . S
C896 H892 0.929 . S
C896 C898 1.378 . S
C896 C900 1.350 1_655 S
C897 C900 1.463 1_655 S
C897 C902 1.350 1_655 S
C897 N905 1.427 . S
C898 H889 0.930 . S
C898 C896 1.378 . S
C898 C899 1.367 1_655 S
C899 C898 1.367 1_455 S
C899 C901 1.433 . S
C900 C896 1.350 1_455 S
C900 C897 1.463 1_455 S
C900 N904 1.427 . S
C901 H891 0.929 . S
C901 C899 1.433 . S
C901 N904 1.384 . S
C902 H893 0.929 . S
C902 C894 1.378 . S
C902 C897 1.350 1_455 S
C903 H890 0.929 . S
C903 C895 1.433 . S
C903 N905 1.384 . S
N904 C900 1.427 . S
N904 C901 1.384 . S
N905 C897 1.427 . S
N905 C903 1.384 . S
H906 C912 0.930 . S
H907 C916 0.930 . S
H908 C921 0.929 . S
H909 C919 0.929 . S
H910 C914 0.929 . S
H911 C920 0.929 . S
C912 H906 0.930 . S
C912 C913 1.367 1_545 S
C912 C920 1.378 . S
C913 C912 1.367 1_565 S
C913 C921 1.433 . S
C914 H910 0.929 . S
C914 C916 1.378 . S
C914 C918 1.350 1_565 S
C915 C918 1.463 1_565 S
C915 C920 1.350 1_565 S
C915 N923 1.427 . S
C916 H907 0.930 . S
C916 C914 1.378 . S
C916 C917 1.367 1_565 S
C917 C916 1.367 1_545 S
C917 C919 1.433 . S
C918 C914 1.350 1_545 S
C918 C915 1.463 1_545 S
C918 N922 1.427 . S
C919 H909 0.929 . S
C919 C917 1.433 . S
C919 N922 1.384 . S
C920 H911 0.929 . S
C920 C912 1.378 . S
C920 C915 1.350 1_545 S
C921 H908 0.929 . S
C921 C913 1.433 . S
C921 N923 1.384 . S
N922 C918 1.427 . S
N922 C919 1.384 . S
N923 C915 1.427 . S
N923 C921 1.384 . S
H924 C930 0.930 . S
H925 C934 0.930 . S
H926 C939 0.929 . S
H927 C937 0.929 . S
H928 C932 0.929 . S
H929 C938 0.929 . S
C930 H924 0.930 . S
C930 C931 1.367 . S
C930 C938 1.378 . S
C931 C930 1.367 . S
C931 C939 1.433 . S
C932 H928 0.929 . S
C932 C934 1.378 . S
C932 C936 1.350 . S
C933 C936 1.463 . S
C933 C938 1.350 . S
C933 N941 1.427 . S
C934 H925 0.930 . S
C934 C932 1.378 . S
C934 C935 1.367 . S
C935 C934 1.367 . S
C935 C937 1.433 . S
C936 C932 1.350 . S
C936 C933 1.463 . S
C936 N940 1.427 . S
C937 H927 0.929 . S
C937 C935 1.433 . S
C937 N940 1.384 . S
C938 H929 0.929 . S
C938 C930 1.378 . S
C938 C933 1.350 . S
C939 H926 0.929 . S
C939 C931 1.433 . S
C939 N941 1.384 . S
N940 C936 1.427 . S
N940 C937 1.384 . S
N941 C933 1.427 . S
N941 C939 1.384 . S
H942 C948 0.930 . S
H943 C952 0.930 . S
H944 C957 0.929 1_655 S
H945 C955 0.929 . S
H946 C950 0.929 . S
H947 C956 0.929 . S
C948 H942 0.930 . S
C948 C949 1.367 . S
C948 C956 1.378 . S
C949 C948 1.367 . S
C949 C957 1.433 . S
C950 H946 0.929 . S
C950 C952 1.378 . S
C950 C954 1.350 . S
C951 C954 1.463 . S
C951 C956 1.350 . S
C951 N959 1.427 . S
C952 H943 0.930 . S
C952 C950 1.378 . S
C952 C953 1.367 . S
C953 C952 1.367 . S
C953 C955 1.433 . S
C954 C950 1.350 . S
C954 C951 1.463 . S
C954 N958 1.427 . S
C955 H945 0.929 . S
C955 C953 1.433 . S
C955 N958 1.384 . S
C956 H947 0.929 . S
C956 C948 1.378 . S
C956 C951 1.350 . S
C957 H944 0.929 1_455 S
C957 C949 1.433 . S
C957 N959 1.384 . S
N958 C954 1.427 . S
N958 C955 1.384 . S
N959 C951 1.427 . S
N959 C957 1.384 . S
H960 C966 0.930 . S
H961 C970 0.930 1_565 S
H962 C975 0.929 . S
H963 C973 0.929 . S
H964 C968 0.929 . S
H965 C974 0.929 . S
C966 H960 0.930 . S
C966 C967 1.367 . S
C966 C974 1.378 . S
C967 C966 1.367 . S
C967 C975 1.433 . S
C968 H964 0.929 . S
C968 C970 1.378 . S
C968 C972 1.350 . S
C969 C972 1.463 . S
C969 C974 1.350 . S
C969 N977 1.427 . S
C970 H961 0.930 1_545 S
C970 C968 1.378 . S
C970 C971 1.367 . S
C971 C970 1.367 . S
C971 C973 1.433 . S
C972 C968 1.350 . S
C972 C969 1.463 . S
C972 N976 1.427 . S
C973 H963 0.929 . S
C973 C971 1.433 . S
C973 N976 1.384 . S
C974 H965 0.929 . S
C974 C966 1.378 . S
C974 C969 1.350 . S
C975 H962 0.929 . S
C975 C967 1.433 . S
C975 N977 1.384 . S
N976 C972 1.427 . S
N976 C973 1.384 . S
N977 C969 1.427 . S
N977 C975 1.384 . S
H978 C984 0.930 1_545 S
H979 C988 0.930 . S
H980 C993 0.929 . S
H981 C991 0.929 . S
H982 C986 0.929 . S
H983 C992 0.929 . S
C984 H978 0.930 1_565 S
C984 C985 1.367 . S
C984 C992 1.378 . S
C985 C984 1.367 . S
C985 C993 1.433 . S
C986 H982 0.929 . S
C986 C988 1.378 . S
C986 C990 1.350 . S
C987 C990 1.463 . S
C987 C992 1.350 . S
C987 N995 1.427 . S
C988 H979 0.930 . S
C988 C986 1.378 . S
C988 C989 1.367 . S
C989 C988 1.367 . S
C989 C991 1.433 . S
C990 C986 1.350 . S
C990 C987 1.463 . S
C990 N994 1.427 . S
C991 H981 0.929 . S
C991 C989 1.433 . S
C991 N994 1.384 . S
C992 H983 0.929 . S
C992 C984 1.378 . S
C992 C987 1.350 . S
C993 H980 0.929 . S
C993 C985 1.433 . S
C993 N995 1.384 . S
N994 C990 1.427 . S
N994 C991 1.384 . S
N995 C987 1.427 . S
N995 C993 1.384 . S
H996 C1002 0.930 . S
H997 C1006 0.930 . S
H998 C1011 0.929 . S
H999 C1009 0.929 . S
H1000 C1004 0.929 . S
H1001 C1010 0.929 . S
C1002 H996 0.930 . S
C1002 C1003 1.367 . S
C1002 C1010 1.378 . S
C1003 C1002 1.367 . S
C1003 C1011 1.433 . S
C1004 H1000 0.929 . S
C1004 C1006 1.378 . S
C1004 C1008 1.350 . S
C1005 C1008 1.463 . S
C1005 C1010 1.350 . S
C1005 N1013 1.427 . S
C1006 H997 0.930 . S
C1006 C1004 1.378 . S
C1006 C1007 1.367 . S
C1007 C1006 1.367 . S
C1007 C1009 1.433 . S
C1008 C1004 1.350 . S
C1008 C1005 1.463 . S
C1008 N1012 1.427 . S
C1009 H999 0.929 . S
C1009 C1007 1.433 . S
C1009 N1012 1.384 . S
C1010 H1001 0.929 . S
C1010 C1002 1.378 . S
C1010 C1005 1.350 . S
C1011 H998 0.929 . S
C1011 C1003 1.433 . S
C1011 N1013 1.384 . S
N1012 C1008 1.427 . S
N1012 C1009 1.384 . S
N1013 C1005 1.427 . S
N1013 C1011 1.384 . S
H1014 C1020 0.944 . S
H1015 C1024 0.930 . S
H1016 C1029 0.929 . S
H1017 C1027 0.929 . S
H1018 C1022 0.929 . S
H1019 C1028 0.929 . S
C1020 H1014 0.944 . S
C1020 C1021 1.367 . S
C1020 C1028 1.378 . S
C1021 C1020 1.367 . S
C1021 C1029 1.433 . S
C1022 H1018 0.929 . S
C1022 C1024 1.378 . S
C1022 C1026 1.350 . S
C1023 C1026 1.463 . S
C1023 C1028 1.350 . S
C1023 N1031 1.427 . S
C1024 H1015 0.930 . S
C1024 C1022 1.378 . S
C1024 C1025 1.367 . S
C1025 C1024 1.367 . S
C1025 C1027 1.433 . S
C1026 C1022 1.350 . S
C1026 C1023 1.463 . S
C1026 N1030 1.427 . S
C1027 H1017 0.929 . S
C1027 C1025 1.433 . S
C1027 N1030 1.384 . S
C1028 H1019 0.929 . S
C1028 C1020 1.378 . S
C1028 C1023 1.350 . S
C1029 H1016 0.929 . S
C1029 C1021 1.433 . S
C1029 N1031 1.384 . S
N1030 C1026 1.427 . S
N1030 C1027 1.384 . S
N1031 C1023 1.427 . S
N1031 C1029 1.384 . S
H1032 C1038 0.930 . S
H1033 C1042 0.930 . S
H1034 C1047 0.929 . S
H1035 C1045 0.929 . S
H1036 C1040 0.929 . S
H1037 C1046 0.929 . S
C1038 H1032 0.930 . S
C1038 C1039 1.367 . S
C1038 C1046 1.378 . S
C1039 C1038 1.367 . S
C1039 C1047 1.433 . S
C1040 H1036 0.929 . S
C1040 C1042 1.378 . S
C1040 C1044 1.350 . S
C1041 C1044 1.463 . S
C1041 C1046 1.350 . S
C1041 N1049 1.427 . S
C1042 H1033 0.930 . S
C1042 C1040 1.378 . S
C1042 C1043 1.367 . S
C1043 C1042 1.367 . S
C1043 C1045 1.433 . S
C1044 C1040 1.350 . S
C1044 C1041 1.463 . S
C1044 N1048 1.427 . S
C1045 H1035 0.929 . S
C1045 C1043 1.433 . S
C1045 N1048 1.384 . S
C1046 H1037 0.929 . S
C1046 C1038 1.378 . S
C1046 C1041 1.350 . S
C1047 H1034 0.929 . S
C1047 C1039 1.433 . S
C1047 N1049 1.384 . S
N1048 C1044 1.427 . S
N1048 C1045 1.384 . S
N1049 C1041 1.427 . S
N1049 C1047 1.384 . S
H1050 C1056 0.930 . S
H1051 C1060 0.930 . S
H1052 C1065 0.929 . S
H1053 C1063 0.929 . S
H1054 C1058 0.929 . S
H1055 C1064 0.929 . S
C1056 H1050 0.930 . S
C1056 C1057 1.367 1_455 S
C1056 C1064 1.378 . S
C1057 C1056 1.367 1_655 S
C1057 C1065 1.433 . S
C1058 H1054 0.929 . S
C1058 C1060 1.378 . S
C1058 C1062 1.350 1_655 S
C1059 C1062 1.463 1_655 S
C1059 C1064 1.350 1_655 S
C1059 N1067 1.427 . S
C1060 H1051 0.930 . S
C1060 C1058 1.378 . S
C1060 C1061 1.367 1_655 S
C1061 C1060 1.367 1_455 S
C1061 C1063 1.433 . S
C1062 C1058 1.350 1_455 S
C1062 C1059 1.463 1_455 S
C1062 N1066 1.427 . S
C1063 H1053 0.929 . S
C1063 C1061 1.433 . S
C1063 N1066 1.384 . S
C1064 H1055 0.929 . S
C1064 C1056 1.378 . S
C1064 C1059 1.350 1_455 S
C1065 H1052 0.929 . S
C1065 C1057 1.433 . S
C1065 N1067 1.384 . S
N1066 C1062 1.427 . S
N1066 C1063 1.384 . S
N1067 C1059 1.427 . S
N1067 C1065 1.384 . S
H1068 C1074 0.930 1_565 S
H1069 C1078 0.930 1_545 S
H1070 C1083 0.929 . S
H1071 C1081 0.929 . S
H1072 C1076 0.929 . S
H1073 C1082 0.929 . S
C1074 H1068 0.930 1_545 S
C1074 C1075 1.367 . S
C1074 C1082 1.378 1_545 S
C1075 C1074 1.367 . S
C1075 C1083 1.433 . S
C1076 H1072 0.929 . S
C1076 C1078 1.378 1_545 S
C1076 C1080 1.350 1_545 S
C1077 C1080 1.463 1_544 S
C1077 C1082 1.350 1_545 S
C1077 N1085 1.427 . S
C1078 H1069 0.930 1_565 S
C1078 C1076 1.378 1_565 S
C1078 C1079 1.367 . S
C1079 C1078 1.367 . S
C1079 C1081 1.433 . S
C1080 C1076 1.350 1_565 S
C1080 C1077 1.463 1_566 S
C1080 N1084 1.427 . S
C1081 H1071 0.929 . S
C1081 C1079 1.433 . S
C1081 N1084 1.384 . S
C1082 H1073 0.929 . S
C1082 C1074 1.378 1_565 S
C1082 C1077 1.350 1_565 S
C1083 H1070 0.929 . S
C1083 C1075 1.433 . S
C1083 N1085 1.384 . S
N1084 C1080 1.427 . S
N1084 C1081 1.384 . S
N1085 C1077 1.427 . S
N1085 C1083 1.384 . S
H1086 C1092 0.930 . S
H1087 C1096 0.930 . S
H1088 C1101 0.929 . S
H1089 C1099 0.929 . S
H1090 C1094 0.929 . S
H1091 C1100 0.929 . S
C1092 H1086 0.930 . S
C1092 C1093 1.367 . S
C1092 C1100 1.378 . S
C1093 C1092 1.367 . S
C1093 C1101 1.433 . S
C1094 H1090 0.929 . S
C1094 C1096 1.378 . S
C1094 C1098 1.350 . S
C1095 C1098 1.463 . S
C1095 C1100 1.350 . S
C1095 N1103 1.427 . S
C1096 H1087 0.930 . S
C1096 C1094 1.378 . S
C1096 C1097 1.367 . S
C1097 C1096 1.367 . S
C1097 C1099 1.433 . S
C1098 C1094 1.350 . S
C1098 C1095 1.463 . S
C1098 N1102 1.427 . S
C1099 H1089 0.929 . S
C1099 C1097 1.433 . S
C1099 N1102 1.384 . S
C1100 H1091 0.929 . S
C1100 C1092 1.378 . S
C1100 C1095 1.350 . S
C1101 H1088 0.929 . S
C1101 C1093 1.433 . S
C1101 N1103 1.384 . S
N1102 C1098 1.427 . S
N1102 C1099 1.384 . S
N1103 C1095 1.427 . S
N1103 C1101 1.384 . S
H1104 C1110 0.930 . S
H1105 C1114 0.930 . S
H1106 C1119 0.929 . S
H1107 C1117 0.929 . S
H1108 C1112 0.929 . S
H1109 C1118 0.929 . S
C1110 H1104 0.930 . S
C1110 C1111 1.367 . S
C1110 C1118 1.378 . S
C1111 C1110 1.367 . S
C1111 C1119 1.433 . S
C1112 H1108 0.929 . S
C1112 C1114 1.378 . S
C1112 C1116 1.350 . S
C1113 C1116 1.463 1_455 S
C1113 C1118 1.350 . S
C1113 N1121 1.427 . S
C1114 H1105 0.930 . S
C1114 C1112 1.378 . S
C1114 C1115 1.367 . S
C1115 C1114 1.367 . S
C1115 C1117 1.433 . S
C1116 C1112 1.350 . S
C1116 C1113 1.463 1_655 S
C1116 N1120 1.427 . S
C1117 H1107 0.929 . S
C1117 C1115 1.433 . S
C1117 N1120 1.384 . S
C1118 H1109 0.929 . S
C1118 C1110 1.378 . S
C1118 C1113 1.350 . S
C1119 H1106 0.929 . S
C1119 C1111 1.433 . S
C1119 N1121 1.384 . S
N1120 C1116 1.427 . S
N1120 C1117 1.384 . S
N1121 C1113 1.427 . S
N1121 C1119 1.384 . S
H1122 C1128 0.930 1_545 S
H1123 C1132 0.930 1_565 S
H1124 C1137 0.929 . S
H1125 C1135 0.929 . S
H1126 C1130 0.929 . S
H1127 C1136 0.929 . S
C1128 H1122 0.930 1_565 S
C1128 C1129 1.367 . S
C1128 C1136 1.378 1_565 S
C1129 C1128 1.367 . S
C1129 C1137 1.433 . S
C1130 H1126 0.929 . S
C1130 C1132 1.378 1_565 S
C1130 C1134 1.350 1_565 S
C1131 C1134 1.463 1_564 S
C1131 C1136 1.350 1_565 S
C1131 N1139 1.427 . S
C1132 H1123 0.930 1_545 S
C1132 C1130 1.378 1_545 S
C1132 C1133 1.367 . S
C1133 C1132 1.367 . S
C1133 C1135 1.433 . S
C1134 C1130 1.350 1_545 S
C1134 C1131 1.463 1_546 S
C1134 N1138 1.427 . S
C1135 H1125 0.929 . S
C1135 C1133 1.433 . S
C1135 N1138 1.384 . S
C1136 H1127 0.929 . S
C1136 C1128 1.378 1_545 S
C1136 C1131 1.350 1_545 S
C1137 H1124 0.929 . S
C1137 C1129 1.433 . S
C1137 N1139 1.384 . S
N1138 C1134 1.427 . S
N1138 C1135 1.384 . S
N1139 C1131 1.427 . S
N1139 C1137 1.384 . S
C715 C682 1.866 . S
C719 C33 1.869 . S
C733 C92 1.862 . S
C737 C387 1.862 . S
C751 C151 1.869 . S
C755 C446 1.870 . S
C769 C210 1.862 . S
C773 C505 1.866 . S
C787 C564 1.861 . S
C791 C269 1.863 . S
C805 C328 1.870 . S
C809 C623 1.868 . S
C823 C180 1.393 . S
C827 C3 1.390 . S
C841 C239 1.391 . S
C845 C62 1.394 . S
C859 C298 1.393 . S
C863 C121 1.390 . S
C877 C357 1.390 . S
C881 C534 1.393 . S
C895 C416 1.389 . S
C899 C593 1.390 . S
C913 C475 1.391 . S
C917 C652 1.389 . S
C931 C524 0.315 . S
C935 C52 0.312 . S
C949 C111 0.290 . S
C953 C583 0.286 . S
C967 C642 0.317 . S
C971 C170 0.315 . S
C985 C701 0.312 . S
C989 C229 0.315 . S
C1003 C406 0.273 . S
C1007 C288 0.273 . S
C1021 C347 0.317 . S
C1025 C465 0.318 . S
C1039 C536 1.639 . S
C1043 C5 1.638 . S
C1057 C64 1.633 . S
C1061 C595 1.634 . S
C1075 C654 1.634 . S
C1079 C123 1.635 . S
C1093 C182 1.635 . S
C1097 C359 1.634 . S
C1111 C241 1.637 . S
C1115 C418 1.638 . S
C1129 C477 1.635 . S
C1133 C300 1.634 . S
