# Generated by pormake.
# Topology bcg, (8)-cn, num edge types: 1
# Building blocks:
#     Node 0, Type 0, BuildingBlock: HISSIN_clean_sbu_1, # of connection points: 8
#     Node 1, Type 0, BuildingBlock: HISSIN_clean_sbu_1, # of connection points: 8
#     Node 2, Type 0, BuildingBlock: HISSIN_clean_sbu_1, # of connection points: 8
#     Node 3, Type 0, BuildingBlock: HISSIN_clean_sbu_1, # of connection points: 8
#     Edge 4, Type (0, 0), BuildingBlock: ZUJKAS_clean_linker_0, # of connection points: 2
#     Edge 5, Type (0, 0), BuildingBlock: ZUJKAS_clean_linker_0, # of connection points: 2
#     Edge 6, Type (0, 0), BuildingBlock: ZUJKAS_clean_linker_0, # of connection points: 2
#     Edge 7, Type (0, 0), BuildingBlock: ZUJKAS_clean_linker_0, # of connection points: 2
#     Edge 8, Type (0, 0), BuildingBlock: ZUJKAS_clean_linker_0, # of connection points: 2
#     Edge 9, Type (0, 0), BuildingBlock: ZUJKAS_clean_linker_0, # of connection points: 2
#     Edge 10, Type (0, 0), BuildingBlock: ZUJKAS_clean_linker_0, # of connection points: 2
#     Edge 11, Type (0, 0), BuildingBlock: ZUJKAS_clean_linker_0, # of connection points: 2
#     Edge 12, Type (0, 0), BuildingBlock: ZUJKAS_clean_linker_0, # of connection points: 2
#     Edge 13, Type (0, 0), BuildingBlock: ZUJKAS_clean_linker_0, # of connection points: 2
#     Edge 14, Type (0, 0), BuildingBlock: ZUJKAS_clean_linker_0, # of connection points: 2
#     Edge 15, Type (0, 0), BuildingBlock: ZUJKAS_clean_linker_0, # of connection points: 2
#     Edge 16, Type (0, 0), BuildingBlock: ZUJKAS_clean_linker_0, # of connection points: 2
#     Edge 17, Type (0, 0), BuildingBlock: ZUJKAS_clean_linker_0, # of connection points: 2
#     Edge 18, Type (0, 0), BuildingBlock: ZUJKAS_clean_linker_0, # of connection points: 2
#     Edge 19, Type (0, 0), BuildingBlock: ZUJKAS_clean_linker_0, # of connection points: 2
# Relax obj value: 0.149
# Max RMSD: 0.213
# Mean RMSD: 0.213
data_MOF--net-bcg--node1-HISSIN_clean_sbu_1--edge1-ZUJKAS_clean_linker_0
_symmetry_space_group_name_H-M    P1
_symmetry_Int_Tables_number       1
_symmetry_cell_setting            triclinic
loop_
_symmetry_equiv_pos_as_xyz
'x, y, z'
_cell_length_a     26.996581
_cell_length_b     26.409551
_cell_length_c     40.94269
_cell_angle_alpha  80.972807
_cell_angle_beta   90.077276
_cell_angle_gamma 90.361882
loop_
_atom_site_label
_atom_site_type_symbol
_atom_site_fract_x
_atom_site_fract_y
_atom_site_fract_z
_atom_type_partial_charge
Eu0 Eu 0.33456 0.21693 0.01207 0.0
C1 C 0.30138 0.33266 0.9845 0.0
O2 O 0.38544 0.21523 0.05562 0.0
C3 C 0.09662 0.31118 0.03918 0.0
C4 C 1.00615 0.29384 0.0721 0.0
C5 C 0.05401 0.30081 0.02151 0.0
C6 C 1.0084 0.29309 0.038 0.0
C7 C 0.09374 0.31248 0.07324 0.0
C8 C 0.04859 0.30321 0.08992 0.0
Eu9 Eu 0.1948 0.30588 0.9713 0.0
O10 O 0.26236 0.17219 0.02002 0.0
O11 O 0.14801 0.30369 0.92601 0.0
O12 O 0.26448 0.35452 0.96677 0.0
O13 O 0.23399 0.22943 0.9779 0.0
C14 C 0.16269 0.27603 0.90384 0.0
O15 O 0.20488 0.2514 0.90845 0.0
O16 O 0.17134 0.27883 0.02173 0.0
C17 C 0.14501 0.31992 0.02318 0.0
C18 C 0.38013 0.18083 0.08223 0.0
O19 O 0.34576 0.14527 0.08275 0.0
O20 O 0.14787 0.35445 0.99632 0.0
O21 O 0.29037 0.2897 0.00397 0.0
C22 C 0.37772 0.19704 0.95917 0.0
O23 O 0.37333 0.24383 0.9661 0.0
C24 C 0.42564 0.18348 0.94635 0.0
C25 C 0.51555 0.1574 0.91993 0.0
C26 C 0.47003 0.18932 0.96337 0.0
C27 C 0.51533 0.17608 0.95018 0.0
C28 C 0.42653 0.16479 0.91614 0.0
C29 C 0.47151 0.15181 0.90265 0.0
C30 C 0.2246 0.19061 0.00149 0.0
O31 O 0.35626 0.16166 0.98084 0.0
H32 H 0.97081 0.28778 0.08476 0.0
H33 H 0.05614 0.29981 0.99517 0.0
H34 H 0.12677 0.32005 0.08684 0.0
H35 H 0.55063 0.14978 0.90884 0.0
H36 H 0.46926 0.20413 0.98661 0.0
H37 H 0.39217 0.16082 0.90299 0.0
Eu38 Eu 0.81055 0.72489 0.02172 0.0
C39 C 0.81386 0.84586 0.00121 0.0
O40 O 0.84742 0.70544 0.07143 0.0
C41 C 0.60899 0.78789 0.04277 0.0
C42 C 0.52221 0.75378 0.07726 0.0
C43 C 0.5655 0.77822 0.02526 0.0
C44 C 0.52188 0.76088 0.04262 0.0
C45 C 0.60774 0.78148 0.07751 0.0
C46 C 0.56439 0.76474 0.09489 0.0
Eu47 Eu 0.71568 0.79361 0.97888 0.0
O48 O 0.74033 0.67667 0.02473 0.0
O49 O 0.67712 0.8141 0.92989 0.0
O50 O 0.78491 0.84334 0.97555 0.0
O51 O 0.71486 0.71035 0.9728 0.0
C52 C 0.69498 0.79846 0.90338 0.0
O53 O 0.73733 0.77391 0.90553 0.0
O54 O 0.69517 0.77934 0.03112 0.0
C55 C 0.65534 0.80804 0.02591 0.0
C56 C 0.8328 0.72763 0.09631 0.0
O57 O 0.79393 0.75767 0.0924 0.0
O58 O 0.65186 0.83249 0.99545 0.0
O59 O 0.81369 0.80868 0.02663 0.0
C60 C 0.87129 0.70647 0.97585 0.0
O61 O 0.83268 0.73677 0.96978 0.0
C62 C 0.9185 0.72362 0.95893 0.0
C63 C 1.00662 0.75161 0.92427 0.0
C64 C 0.96284 0.73038 0.97636 0.0
C65 C 1.0071 0.74479 0.95891 0.0
C66 C 0.91945 0.73006 0.92416 0.0
C67 C 0.96344 0.74381 0.90668 0.0
C68 C 0.71293 0.67362 -0.00157 0.0
O69 O 0.87354 0.68313 0.00664 0.0
H70 H 0.48814 0.74277 0.09061 0.0
H71 H 0.56539 0.78451 -0.00153 0.0
H72 H 0.64037 0.79045 0.09105 0.0
H73 H 0.04108 0.7604 0.91093 0.0
H74 H 0.96306 0.72432 0.00315 0.0
H75 H 0.88597 0.72363 0.91069 0.0
Eu76 Eu 0.31253 0.77885 0.47874 0.0
C77 C 0.30207 0.65975 0.50058 0.0
O78 O 0.35687 0.79114 0.43168 0.0
C79 C 0.10292 0.72095 0.45787 0.0
C80 C 0.01614 0.75175 0.42279 0.0
C81 C 0.05891 0.72879 0.47506 0.0
C82 C 0.0153 0.7444 0.45743 0.0
C83 C 0.10241 0.72776 0.42308 0.0
C84 C 0.05902 0.74292 0.40537 0.0
Eu85 Eu 0.20828 0.71398 0.52343 0.0
O86 O 0.24444 0.82808 0.47413 0.0
O87 O 0.1664 0.7017 0.57158 0.0
O88 O 0.27509 0.66314 0.52686 0.0
O89 O 0.2225 0.79667 0.52693 0.0
C90 C 0.18206 0.72309 0.59663 0.0
O91 O 0.22407 0.74878 0.59385 0.0
O92 O 0.18829 0.73173 0.47117 0.0
C93 C 0.14895 0.70175 0.47515 0.0
C94 C 0.33753 0.78051 0.40408 0.0
O95 O 0.29122 0.76489 0.40405 0.0
O96 O 0.14483 0.67575 0.50517 0.0
O97 O 0.30065 0.69576 0.47456 0.0
C98 C 0.36942 0.79368 0.52769 0.0
O99 O 0.33434 0.75844 0.5306 0.0
C100 C 0.41761 0.77981 0.5437 0.0
C101 C 0.5097 0.76188 0.57483 0.0
C102 C 0.45856 0.76531 0.52583 0.0
C103 C 0.5047 0.75579 0.54165 0.0
C104 C 0.42364 0.78582 0.57704 0.0
C105 C 0.47001 0.77811 0.59248 0.0
C106 C 0.21803 0.83152 0.50059 0.0
O107 O 0.37063 0.82249 0.49845 0.0
H108 H 0.98201 0.7613 0.40927 0.0
H109 H 0.05833 0.72223 0.50186 0.0
H110 H 0.13561 0.72026 0.40978 0.0
H111 H 0.54559 0.75572 0.58674 0.0
H112 H 0.45475 0.76213 0.49988 0.0
H113 H 0.39283 0.79884 0.59047 0.0
Eu114 Eu 0.80742 0.27542 0.4748 0.0
C115 C 0.798 0.15766 0.49607 0.0
O116 O 0.84442 0.28549 0.42521 0.0
C117 C 0.60446 0.22561 0.45058 0.0
C118 C 0.5198 0.25983 0.41413 0.0
C119 C 0.56037 0.23529 0.46709 0.0
C120 C 0.51774 0.25263 0.44879 0.0
C121 C 0.60517 0.23241 0.41589 0.0
C122 C 0.56285 0.249 0.3975 0.0
Eu123 Eu 0.70614 0.21315 0.51839 0.0
O124 O 0.74236 0.32848 0.47294 0.0
O125 O 0.66181 0.19538 0.56503 0.0
O126 O 0.77233 0.16147 0.52274 0.0
O127 O 0.71719 0.2952 0.52515 0.0
C128 C 0.66563 0.15131 0.58474 0.0
O129 O 0.69724 0.11704 0.57761 0.0
O130 O 0.68933 0.23332 0.46579 0.0
C131 C 0.64927 0.20433 0.46839 0.0
C132 C 0.86526 0.3286 0.41135 0.0
O133 O 0.86338 0.36922 0.42616 0.0
O134 O 0.64326 0.17715 0.49789 0.0
O135 O 0.79386 0.1931 0.47002 0.0
C136 C 0.87055 0.28553 0.52127 0.0
O137 O 0.8301 0.25731 0.52647 0.0
C138 C 0.91662 0.26499 0.53786 0.0
C139 C 1.00392 0.23451 0.57241 0.0
C140 C 0.96096 0.25962 0.52039 0.0
C141 C 1.00484 0.24394 0.53773 0.0
C142 C 0.91689 0.25525 0.57259 0.0
C143 C 0.96053 0.24067 0.59011 0.0
C144 C 0.7167 0.33225 0.49971 0.0
O145 O 0.87397 0.31099 0.49107 0.0
H146 H 0.48643 0.27052 0.39999 0.0
H147 H 0.55895 0.22871 0.49387 0.0
H148 H 0.63844 0.22344 0.40316 0.0
H149 H 0.03827 0.22548 0.58575 0.0
H150 H 0.96158 0.26819 0.49363 0.0
H151 H 0.88321 0.26054 0.58603 0.0
H152 H 0.54599 0.26129 0.97532 0.0
H153 H 0.63078 0.28128 0.99094 0.0
H154 H 0.67823 0.13175 0.97424 0.0
H155 H 0.5935 0.11088 0.95999 0.0
H156 H 0.72413 0.16054 0.02716 0.0
H157 H 0.7348 0.31705 0.91958 0.0
H158 H 0.68627 0.32484 0.94827 0.0
H159 H 0.68394 0.27193 0.92546 0.0
C160 C 0.57427 0.23224 0.9759 0.0
C161 C 0.5634 0.18481 0.96598 0.0
C162 C 0.62279 0.24395 0.98433 0.0
C163 C 0.66104 0.20857 0.98267 0.0
C164 C 0.64943 0.15986 0.97522 0.0
H165 H 0.98423 0.21469 0.00444 0.0
H166 H 0.90037 0.19299 0.98705 0.0
C167 C 0.60105 0.14804 0.96702 0.0
C168 C 0.71356 0.2227 0.98702 0.0
H169 H 0.80428 0.30706 0.95543 0.0
C170 C 0.74173 0.19243 0.01141 0.0
C171 C 0.73654 0.26398 0.96611 0.0
C172 C 0.70903 0.29606 0.93817 0.0
C173 C 0.79201 0.20311 0.01603 0.0
C174 C 0.81468 0.24483 0.99547 0.0
C175 C 0.78669 0.2749 0.97095 0.0
C176 C 0.86626 0.26046 0.00104 0.0
C177 C 0.82017 0.17062 0.04346 0.0
C178 C 0.87488 0.30657 0.01302 0.0
C179 C 0.92229 0.31884 0.02283 0.0
C180 C 0.9619 0.28542 0.02051 0.0
C181 C 0.95411 0.241 0.0063 0.0
C182 C 0.90635 0.22846 0.99668 0.0
H183 H 0.79519 0.14558 0.06059 0.0
H184 H 0.8465 0.14578 0.03258 0.0
H185 H 0.84199 0.19519 0.05792 0.0
H186 H 0.84444 0.33179 0.01641 0.0
H187 H 0.92764 0.35325 0.0338 0.0
H188 H 0.07 0.8266 0.95008 0.0
H189 H 0.15779 0.82728 0.96501 0.0
H190 H 0.14318 0.67373 0.01852 0.0
H191 H 0.05508 0.67276 0.00314 0.0
H192 H 0.21155 0.813 0.0236 0.0
H193 H 0.25017 0.65813 0.9499 0.0
H194 H 0.19188 0.69158 0.94759 0.0
H195 H 0.20478 0.64224 0.98198 0.0
C196 C 0.08526 0.79346 0.96574 0.0
C197 C 0.0557 0.7496 0.97545 0.0
C198 C 0.13551 0.79377 0.97411 0.0
C199 C 0.15754 0.7501 0.99217 0.0
C200 C 0.12732 0.70749 0.00392 0.0
H201 H 0.46103 0.67714 0.05143 0.0
H202 H 0.37322 0.67444 0.03671 0.0
C203 C 0.0768 0.70723 0.99561 0.0
C204 C 0.21238 0.74879 -0.00286 0.0
H205 H 0.31781 0.68778 0.97854 0.0
C206 C 0.23477 0.78564 0.01373 0.0
C207 C 0.24285 0.7133 0.98406 0.0
C208 C 0.22142 0.67431 0.96462 0.0
C209 C 0.28647 0.78741 0.01812 0.0
C210 C 0.31697 0.75207 0.00493 0.0
C211 C 0.29458 0.71508 0.98845 0.0
C212 C 0.37189 0.75151 0.00941 0.0
C213 C 0.30785 0.82637 0.03761 0.0
C214 C 0.40126 0.79465 -0.00258 0.0
C215 C 0.45173 0.79611 0.00563 0.0
C216 C 0.47368 0.75441 0.02595 0.0
C217 C 0.44509 0.70985 0.03573 0.0
C218 C 0.39482 0.70836 0.02745 0.0
H219 H 0.27917 0.84203 0.05264 0.0
H220 H 0.3378 0.80929 0.05435 0.0
H221 H 0.3239 0.8588 0.02025 0.0
H222 H 0.38471 0.828 0.9828 0.0
H223 H 0.47267 0.83108 -0.00201 0.0
H224 H 0.56069 0.6697 0.5532 0.0
H225 H 0.64788 0.66277 0.5379 0.0
H226 H 0.6408 0.81225 0.47805 0.0
H227 H 0.5532 0.81872 0.49287 0.0
H228 H 0.70151 0.74364 0.45079 0.0
H229 H 0.74806 0.74609 0.58272 0.0
H230 H 0.7075 0.6947 0.57578 0.0
H231 H 0.68674 0.75991 0.56627 0.0
C232 C 0.57734 0.70015 0.53577 0.0
C233 C 0.55029 0.74463 0.52403 0.0
C234 C 0.6273 0.69654 0.52744 0.0
C235 C 0.6513 0.73767 0.50766 0.0
C236 C 0.62318 0.78023 0.49361 0.0
H237 H 0.95149 0.82471 0.44766 0.0
H238 H 0.86356 0.82312 0.46227 0.0
C239 C 0.57302 0.78371 0.50176 0.0
C240 C 0.70614 0.73809 0.50368 0.0
H241 H 0.81492 0.73671 0.54694 0.0
C242 C 0.72628 0.74212 0.4718 0.0
C243 C 0.73856 0.73629 0.53114 0.0
C244 C 0.71927 0.73448 0.5659 0.0
C245 C 0.77781 0.74382 0.46666 0.0
C246 C 0.81017 0.74238 0.49408 0.0
C247 C 0.79011 0.73784 0.52598 0.0
C248 C 0.86487 0.74623 0.48982 0.0
C249 C 0.79725 0.74647 0.43188 0.0
C250 C 0.89559 0.70494 0.50242 0.0
C251 C 0.94619 0.70607 0.49446 0.0
C252 C 0.9667 0.74856 0.47381 0.0
C253 C 0.93659 0.79138 0.4635 0.0
C254 C 0.88626 0.79031 0.47155 0.0
H255 H 0.76881 0.73429 0.41502 0.0
H256 H 0.8081 0.7866 0.42216 0.0
H257 H 0.83044 0.72196 0.43142 0.0
H258 H 0.87992 0.67072 0.51686 0.0
H259 H 0.96837 0.67234 0.50243 0.0
H260 H 0.049 0.31724 0.49192 0.0
H261 H 0.13622 0.32025 0.47451 0.0
H262 H 0.1586 0.16985 0.53076 0.0
H263 H 0.07175 0.16635 0.54749 0.0
H264 H 0.21527 0.31768 0.51711 0.0
H265 H 0.22996 0.15648 0.44617 0.0
H266 H 0.17111 0.18275 0.45569 0.0
H267 H 0.20242 0.13737 0.48607 0.0
C268 C 0.07216 0.28415 0.49954 0.0
C269 C 0.05351 0.24149 0.52097 0.0
C270 C 0.12213 0.2861 0.48991 0.0
C271 C 0.15411 0.24518 0.50119 0.0
C272 C 0.13474 0.20156 0.52122 0.0
H273 H 0.46997 0.18346 0.49514 0.0
H274 H 0.38226 0.18452 0.51079 0.0
C275 C 0.08504 0.19967 0.53089 0.0
C276 C 0.20843 0.24953 0.49458 0.0
H277 H 0.30611 0.18854 0.46504 0.0
C278 C 0.23507 0.28973 0.50541 0.0
C279 C 0.23444 0.2129 0.47955 0.0
C280 C 0.20796 0.17025 0.46591 0.0
C281 C 0.28696 0.29355 0.50237 0.0
C282 C 0.313 0.2565 0.48774 0.0
C283 C 0.28631 0.2166 0.47664 0.0
C284 C 0.36765 0.25924 0.48245 0.0
C285 C 0.31354 0.33654 0.51559 0.0
C286 C 0.38906 0.30147 0.46215 0.0
C287 C 0.43914 0.30106 0.45345 0.0
C288 C 0.4689 0.25826 0.46466 0.0
C289 C 0.4482 0.21724 0.4865 0.0
C290 C 0.39795 0.21761 0.49515 0.0
H291 H 0.29089 0.35216 0.5343 0.0
H292 H 0.34957 0.32352 0.52694 0.0
H293 H 0.32092 0.36821 0.49492 0.0
H294 H 0.3665 0.3337 0.4516 0.0
H295 H 0.45405 0.33317 0.43651 0.0
H296 H 0.65706 0.6532 0.94629 0.0
H297 H 0.59369 0.58702 0.94589 0.0
H298 H 0.62356 0.5301 0.04849 0.0
H299 H 0.68714 0.59678 0.04925 0.0
H300 H 0.59886 0.47883 0.9602 0.0
H301 H 0.47337 0.55895 0.04661 0.0
H302 H 0.52492 0.59482 0.02646 0.0
H303 H 0.53542 0.54574 0.06137 0.0
C304 C 0.6505 0.62652 0.96881 0.0
C305 C 0.67719 0.63058 -0.00212 0.0
C306 C 0.6142 0.58857 0.96848 0.0
C307 C 0.60335 0.55394 -0.00277 0.0
C308 C 0.63076 0.55689 0.02612 0.0
H309 H 0.37469 0.31364 0.03074 0.0
H310 H 0.45177 0.36227 0.03402 0.0
C311 C 0.66733 0.59484 0.02645 0.0
C312 C 0.56256 0.51575 0.99686 0.0
H313 H 0.44733 0.48277 0.02815 0.0
C314 C 0.56586 0.47953 0.97519 0.0
C315 C 0.5193 0.51684 0.01628 0.0
C316 C 0.51256 0.55636 0.03882 0.0
C317 C 0.52707 0.44457 0.97239 0.0
C318 C 0.48379 0.44608 0.99155 0.0
C319 C 0.48074 0.4816 0.01361 0.0
C320 C 0.4401 0.41293 0.98784 0.0
C321 C 0.53228 0.40623 0.94895 0.0
C322 C 0.40836 0.42482 0.96056 0.0
C323 C 0.36422 0.39721 0.9587 0.0
C324 C 0.35124 0.35685 0.98394 0.0
C325 C 0.38407 0.34382 0.01061 0.0
C326 C 0.42794 0.37183 0.01266 0.0
H327 H 0.57064 0.40508 0.93931 0.0
H328 H 0.52172 0.3673 0.96152 0.0
H329 H 0.50675 0.41657 0.92771 0.0
H330 H 0.41692 0.45665 0.94127 0.0
H331 H 0.33961 0.40839 0.93794 0.0
H332 H 0.67889 0.39571 0.44652 0.0
H333 H 0.60887 0.45424 0.44683 0.0
H334 H 0.60275 0.41985 0.55326 0.0
H335 H 0.67248 0.3615 0.55326 0.0
H336 H 0.51435 0.41606 0.47635 0.0
H337 H 0.59188 0.57924 0.53141 0.0
H338 H 0.63017 0.53722 0.51151 0.0
H339 H 0.60708 0.51635 0.55254 0.0
C340 C 0.66345 0.40167 0.47001 0.0
C341 C 0.68094 0.37399 0.49986 0.0
C342 C 0.62341 0.43484 0.47012 0.0
C343 C 0.60106 0.4413 0.50008 0.0
C344 C 0.62003 0.41571 0.52997 0.0
H345 H 0.33923 0.59707 0.55438 0.0
H346 H 0.4092 0.53818 0.55494 0.0
C347 C 0.65969 0.38229 0.52988 0.0
C348 C 0.55496 0.47066 0.50011 0.0
H349 H 0.50461 0.5755 0.52599 0.0
C350 C 0.51215 0.45112 0.48698 0.0
C351 C 0.55248 0.51586 0.5144 0.0
C352 C 0.59787 0.53879 0.52808 0.0
C353 C 0.46646 0.4756 0.48805 0.0
C354 C 0.46404 0.52092 0.50222 0.0
C355 C 0.50681 0.54038 0.51543 0.0
C356 C 0.41815 0.55071 0.50178 0.0
C357 C 0.42103 0.45261 0.47446 0.0
C358 C 0.39998 0.57629 0.47166 0.0
C359 C 0.36045 0.60996 0.47125 0.0
C360 C 0.33847 0.61846 0.501 0.0
C361 C 0.35528 0.59096 0.53109 0.0
C362 C 0.39524 0.55755 0.53148 0.0
H363 H 0.42678 0.4119 0.47167 0.0
H364 H 0.38856 0.45491 0.49078 0.0
H365 H 0.41224 0.47449 0.44975 0.0
H366 H 0.41773 0.57186 0.44856 0.0
H367 H 0.3482 0.6306 0.44768 0.0
H368 H 0.14203 0.21472 0.96355 0.0
H369 H 0.0643 0.16658 0.96448 0.0
H370 H 0.11565 0.0625 0.04925 0.0
H371 H 0.19401 0.11024 0.04809 0.0
H372 H 0.06629 0.05338 0.96028 0.0
H373 H 0.96582 0.10393 0.06879 0.0
H374 H 0.01497 0.14336 0.04818 0.0
H375 H 0.02961 0.08584 0.07588 0.0
C376 C 0.13665 0.18213 0.98264 0.0
C377 C 0.1746 0.16623 0.00547 0.0
C378 C 0.09209 0.15459 0.98316 0.0
C379 C 0.08417 0.11093 0.0069 0.0
C380 C 0.12086 0.09632 0.03083 0.0
H381 H 0.87905 0.86053 0.05004 0.0
H382 H 0.9406 0.92847 0.04967 0.0
C383 C 0.16569 0.12363 0.03009 0.0
C384 C 0.03986 0.07788 0.00476 0.0
H385 H 0.93409 0.03311 0.04541 0.0
C386 C 0.03703 0.04931 0.97865 0.0
C387 C 1.00192 0.0726 0.02882 0.0
C388 C 1.00275 0.1033 0.05691 0.0
C389 C 0.99831 0.01401 0.97664 0.0
C390 C 0.96053 0.00809 0.00097 0.0
C391 C 0.96283 0.0377 0.02668 0.0
C392 C 0.92041 0.96883 0.00143 0.0
C393 C 0.99955 0.98168 0.94935 0.0
C394 C 0.88759 0.96917 0.97467 0.0
C395 C 0.85221 0.92994 0.97468 0.0
C396 C 0.84869 0.88978 0.00161 0.0
C397 C 0.88059 0.89062 0.02879 0.0
C398 C 0.91589 0.92963 0.02869 0.0
H399 H 0.03665 0.98233 0.93757 0.0
H400 H 0.98944 0.94125 0.95889 0.0
H401 H 0.97237 0.99684 0.92996 0.0
H402 H 0.88962 -0.00046 0.95361 0.0
H403 H 0.82815 0.93072 0.95343 0.0
H404 H 0.83192 0.09007 0.54892 0.0
H405 H 0.90448 0.03434 0.54985 0.0
H406 H 0.92518 0.08338 0.44523 0.0
H407 H 0.85327 0.13893 0.44394 0.0
H408 H 0.92516 0.95407 0.50837 0.0
H409 H 0.05856 0.11777 0.48986 0.0
H410 H 0.99682 0.12324 0.50593 0.0
H411 H 1.006 0.1227 0.46258 0.0
C412 C 0.85157 0.08842 0.52607 0.0
C413 C 0.8372 0.11911 0.49643 0.0
C414 C 0.89298 0.05683 0.52668 0.0
C415 C 0.9204 0.05582 0.49772 0.0
C416 C 0.90484 0.08458 0.4679 0.0
H417 H 0.18391 0.89862 0.44751 0.0
H418 H 0.11155 0.95469 0.4465 0.0
C419 C 0.86362 0.11604 0.46723 0.0
C420 C 0.96578 0.0252 0.4985 0.0
H421 H 0.09097 0.03536 0.48799 0.0
C422 C 0.96148 0.97167 0.50411 0.0
C423 C 0.01281 0.04872 0.49273 0.0
C424 C 0.01919 0.10627 0.48767 0.0
C425 C 1.00331 0.94072 0.50364 0.0
C426 C 0.05033 0.96424 0.49784 0.0
C427 C 0.05464 0.01777 0.49223 0.0
C428 C 0.09566 0.93354 0.49865 0.0
C429 C 0.99694 0.88318 0.50883 0.0
C430 C 0.1111 0.90477 0.5285 0.0
C431 C 0.15215 0.87309 0.52921 0.0
C432 C 0.17855 0.86981 0.50003 0.0
C433 C 0.16426 0.90042 0.47035 0.0
C434 C 0.12299 0.93224 0.4697 0.0
H435 H 0.9576 0.87167 0.50648 0.0
H436 H 0.01952 0.86605 0.49075 0.0
H437 H 1.00984 0.86692 0.53401 0.0
H438 H 0.0908 0.90615 0.55116 0.0
H439 H 0.16244 0.85029 0.55255 0.0
H440 H 0.59414 0.17446 0.36327 0.0
H441 H 0.57527 0.16713 0.30578 0.0
H442 H 0.50651 0.31594 0.2927 0.0
H443 H 0.52506 0.32334 0.3503 0.0
H444 H 0.44486 0.24037 0.278 0.0
H445 H 0.62501 0.23116 0.21437 0.0
H446 H 0.61998 0.18736 0.2525 0.0
H447 H 0.6192 0.25527 0.25311 0.0
C448 C 0.57654 0.20637 0.34781 0.0
C449 C 0.56088 0.24941 0.36126 0.0
C450 C 0.5658 0.20214 0.31494 0.0
C451 C 0.53971 0.2411 0.29491 0.0
C452 C 0.52672 0.28546 0.30774 0.0
H453 H 0.4487 0.25445 0.09029 0.0
H454 H 0.49008 0.26755 0.14147 0.0
C455 C 0.53726 0.28962 0.34061 0.0
C456 C 0.52022 0.23275 0.26232 0.0
H457 H 0.55342 0.20491 0.18668 0.0
C458 C 0.46865 0.233 0.25795 0.0
C459 C 0.55131 0.2233 0.2362 0.0
C460 C 0.60698 0.22469 0.23907 0.0
C461 C 0.44721 0.22333 0.22836 0.0
C462 C 0.47817 0.21209 0.20264 0.0
C463 C 0.52981 0.21281 0.20667 0.0
C464 C 0.45719 0.20085 0.17113 0.0
C465 C 0.39157 0.22583 0.22475 0.0
C466 C 0.42614 0.15813 0.17071 0.0
C467 C 0.40223 0.15059 0.14154 0.0
C468 C 0.40924 0.18554 0.11226 0.0
C469 C 0.44229 0.22693 0.11245 0.0
C470 C 0.46608 0.23446 0.14164 0.0
H471 H 0.37437 0.24687 0.24326 0.0
H472 H 0.38086 0.24485 0.19963 0.0
H473 H 0.3761 0.18632 0.22854 0.0
H474 H 0.4195 0.13128 0.19315 0.0
H475 H 0.37736 0.11811 0.14217 0.0
H476 H 0.59188 0.8394 0.13058 0.0
H477 H 0.56892 0.84494 0.18782 0.0
H478 H 0.50197 0.69461 0.19741 0.0
H479 H 0.52552 0.68857 0.14055 0.0
H480 H 0.47068 0.84309 0.20673 0.0
H481 H 0.57325 0.68933 0.28586 0.0
H482 H 0.59154 0.71364 0.24385 0.0
H483 H 0.54238 0.66705 0.2519 0.0
C484 C 0.57388 0.80682 0.14532 0.0
C485 C 0.5604 0.76357 0.13114 0.0
C486 C 0.56048 0.81016 0.17792 0.0
C487 C 0.534 0.77007 0.19695 0.0
C488 C 0.52314 0.72563 0.18343 0.0
H489 H 0.30765 0.76724 0.34216 0.0
H490 H 0.359 0.76901 0.29285 0.0
C491 C 0.53631 0.72235 0.15087 0.0
C492 C 0.512 0.77707 0.2291 0.0
H493 H 0.50009 0.72049 0.30964 0.0
C494 C 0.47773 0.81678 0.22936 0.0
C495 C 0.5214 0.74294 0.25864 0.0
C496 C 0.55953 0.70114 0.26021 0.0
C497 C 0.45092 0.82182 0.25799 0.0
C498 C 0.4582 0.78587 0.28699 0.0
C499 C 0.49418 0.74765 0.28723 0.0
C500 C 0.42725 0.786 0.31682 0.0
C501 C 0.41452 0.86518 0.25687 0.0
C502 C 0.44875 0.7943 0.34674 0.0
C503 C 0.41947 0.7934 0.375 0.0
C504 C 0.36824 0.78357 0.37388 0.0
C505 C 0.34691 0.77513 0.34384 0.0
C506 C 0.37616 0.77632 0.3156 0.0
H507 H 0.42273 0.89668 0.2362 0.0
H508 H 0.37665 0.85057 0.25308 0.0
H509 H 0.41481 0.881 0.28044 0.0
H510 H 0.48817 0.80156 0.3482 0.0
H511 H 0.43711 0.79977 0.39779 0.0
H512 H 0.54364 0.83731 0.61158 0.0
H513 H 0.56747 0.84686 0.66779 0.0
H514 H 0.44089 0.75612 0.70604 0.0
H515 H 0.41726 0.74554 0.64938 0.0
H516 H 0.52095 0.8841 0.7204 0.0
H517 H 0.56024 0.675 0.74905 0.0
H518 H 0.54897 0.70691 0.70747 0.0
H519 H 0.49829 0.69248 0.73584 0.0
C520 C 0.52062 0.81971 0.63195 0.0
C521 C 0.47913 0.78986 0.62623 0.0
C522 C 0.5341 0.82549 0.66403 0.0
C523 C 0.50646 0.80151 0.69111 0.0
C524 C 0.46316 0.77427 0.68546 0.0
H525 H 0.60139 0.83725 0.89265 0.0
H526 H 0.55091 0.84002 0.84267 0.0
C527 C 0.44951 0.76853 0.65316 0.0
C528 C 0.52597 0.80196 0.72495 0.0
H529 H 0.58147 0.72522 0.78936 0.0
C530 C 0.53356 0.84934 0.73577 0.0
C531 C 0.54303 0.75658 0.74466 0.0
C532 C 0.53768 0.70481 0.73373 0.0
C533 C 0.55896 0.85268 0.76537 0.0
C534 C 0.57674 0.80733 0.78474 0.0
C535 C 0.56777 0.75988 0.77442 0.0
C536 C 0.60756 0.8082 0.81468 0.0
C537 C 0.56856 0.9048 0.77488 0.0
C538 C 0.65602 0.78906 0.81563 0.0
C539 C 0.68483 0.78712 0.84415 0.0
C540 C 0.66569 0.80418 0.8724 0.0
C541 C 0.61737 0.82411 0.87124 0.0
C542 C 0.58849 0.82591 0.84266 0.0
H543 H 0.5614 0.93623 0.75405 0.0
H544 H 0.54375 0.91023 0.79562 0.0
H545 H 0.60741 0.90805 0.78328 0.0
H546 H 0.67145 0.77517 0.7943 0.0
H547 H 0.72184 0.77152 0.84419 0.0
H548 H 0.52669 0.07575 0.88275 0.0
H549 H 0.54564 0.06546 0.82575 0.0
H550 H 0.44084 0.18388 0.78999 0.0
H551 H 0.4228 0.19557 0.84685 0.0
H552 H 0.49051 0.04937 0.76676 0.0
H553 H 0.57902 0.24194 0.75812 0.0
H554 H 0.56004 0.2051 0.797 0.0
H555 H 0.5148 0.23882 0.76974 0.0
C556 C 0.50706 0.09897 0.86273 0.0
C557 C 0.47399 0.13715 0.8692 0.0
C558 C 0.51764 0.09276 0.83025 0.0
C559 C 0.49526 0.12456 0.8038 0.0
C560 C 0.45886 0.15941 0.81019 0.0
H561 H 0.5861 0.20576 0.60009 0.0
H562 H 0.53926 0.19401 0.65164 0.0
C563 C 0.44836 0.16579 0.84269 0.0
C564 C 0.51496 0.12618 0.77002 0.0
H565 H 0.58168 0.20235 0.71073 0.0
C566 C 0.5102 0.08283 0.75431 0.0
C567 C 0.54113 0.16974 0.75419 0.0
C568 C 0.54956 0.21644 0.77064 0.0
C569 C 0.53043 0.08228 0.72275 0.0
C570 C 0.55667 0.12589 0.70701 0.0
C571 C 0.56122 0.16913 0.72279 0.0
C572 C 0.58076 0.1279 0.6744 0.0
C573 C 0.52299 0.03555 0.7063 0.0
C574 C 0.61939 0.09428 0.66999 0.0
C575 C 0.64618 0.10074 0.64039 0.0
C576 C 0.63521 0.14147 0.61503 0.0
C577 C 0.59573 0.17425 0.61927 0.0
C578 C 0.56876 0.16747 0.64865 0.0
H579 H 0.49257 0.01059 0.71804 0.0
H580 H 0.51459 0.0468 0.6796 0.0
H581 H 0.55753 0.01273 0.70842 0.0
H582 H 0.63011 0.06431 0.68986 0.0
H583 H 0.67653 0.07501 0.63786 0.0
H584 H 0.09153 0.67171 0.36856 0.0
H585 H 0.07 0.66654 0.31096 0.0
H586 H 0.99406 0.81114 0.30351 0.0
H587 H 0.01687 0.81728 0.36039 0.0
H588 H 0.9763 0.65895 0.29055 0.0
H589 H 0.06185 0.82873 0.21546 0.0
H590 H 0.08074 0.80608 0.25752 0.0
H591 H 0.02742 0.84681 0.24915 0.0
C592 C 0.07192 0.70329 0.35419 0.0
C593 C 0.05577 0.74486 0.36898 0.0
C594 C 0.05928 0.7001 0.32138 0.0
C595 C 0.0307 0.73861 0.30277 0.0
C596 C 0.01701 0.78147 0.31701 0.0
H597 H 0.8195 0.77883 0.14857 0.0
H598 H 0.87222 0.77684 0.19734 0.0
C599 C 0.02969 0.78473 0.34967 0.0
C600 C 1.00971 0.7314 0.27023 0.0
H601 H 0.98887 0.79395 0.19192 0.0
C602 C 0.98002 0.68789 0.26875 0.0
C603 C 0.01449 0.76915 0.24175 0.0
C604 C 0.04831 0.81501 0.24095 0.0
C605 C 0.95281 0.68264 0.2402 0.0
C606 C 0.95539 0.72185 0.21254 0.0
C607 C 0.9867 0.76419 0.21339 0.0
C608 C 0.92324 0.72125 0.18335 0.0
C609 C 0.91958 0.63653 0.24017 0.0
C610 C 0.93444 0.69026 0.15954 0.0
C611 C 0.90442 0.69135 0.13152 0.0
C612 C 0.86266 0.72336 0.12699 0.0
C613 C 0.85122 0.75363 0.1513 0.0
C614 C 0.88139 0.75272 0.17913 0.0
H615 H 0.92004 0.61043 0.26426 0.0
H616 H 0.88093 0.64914 0.23449 0.0
H617 H 0.93167 0.61478 0.22052 0.0
H618 H 0.96671 0.66579 0.16244 0.0
H619 H 0.91431 0.66766 0.11323 0.0
H620 H 0.91595 0.40935 0.37557 0.0
H621 H 0.9572 0.41087 0.32194 0.0
H622 H 0.91456 0.25331 0.32193 0.0
H623 H 0.87352 0.25118 0.37507 0.0
H624 H 0.03508 0.33246 0.30328 0.0
H625 H 0.85642 0.3448 0.23475 0.0
H626 H 0.86304 0.36464 0.27482 0.0
H627 H 0.85898 0.29773 0.27157 0.0
C628 C 0.91548 0.37504 0.36415 0.0
C629 C 0.8911 0.3303 0.37942 0.0
C630 C 0.93922 0.37594 0.33368 0.0
C631 C 0.93855 0.33226 0.31815 0.0
C632 C 0.91515 0.28741 0.3336 0.0
H633 H 1.00491 0.23236 0.13636 0.0
H634 H 0.98539 0.24121 0.19347 0.0
C635 C 0.89163 0.28639 0.36394 0.0
C636 C 0.96023 0.3334 0.28504 0.0
H637 H 0.9277 0.325 0.20567 0.0
C638 C 1.01188 0.33154 0.28173 0.0
C639 C 0.92955 0.33211 0.25725 0.0
C640 C 0.87389 0.33531 0.25953 0.0
C641 C 0.03364 0.32618 0.2513 0.0
C642 C 1.00274 0.32326 0.22376 0.0
C643 C 0.95121 0.32687 0.22697 0.0
C644 C 0.02228 0.31463 0.19143 0.0
C645 C 0.08913 0.32159 0.24908 0.0
C646 C 0.05068 0.35237 0.17179 0.0
C647 C 0.062 0.3473 0.13913 0.0
C648 C 0.04448 0.30472 0.12574 0.0
C649 C 0.01835 0.26579 0.14606 0.0
C650 C 1.00733 0.27073 0.17862 0.0
H651 H 0.10684 0.31502 0.27388 0.0
H652 H 0.09912 0.28967 0.23567 0.0
H653 H 0.10456 0.35756 0.23501 0.0
H654 H 0.06187 0.38688 0.18111 0.0
H655 H 0.08187 0.37798 0.12381 0.0
H656 H 0.07932 0.33001 0.88252 0.0
H657 H 0.0289 0.32167 0.83372 0.0
H658 H 0.12473 0.20176 0.81131 0.0
H659 H 0.17539 0.20991 0.8597 0.0
H660 H 0.06908 0.33257 0.76628 0.0
H661 H 0.98034 0.14307 0.80714 0.0
H662 H 1.0053 0.18218 0.83582 0.0
H663 H 0.04603 0.14548 0.8141 0.0
C664 C 0.08947 0.30167 0.8673 0.0
C665 C 0.13142 0.27073 0.87489 0.0
C666 C 0.06058 0.2969 0.83953 0.0
C667 C 0.07276 0.2606 0.8193 0.0
C668 C 0.11428 0.22938 0.82699 0.0
H669 H 1.00995 0.17008 0.63434 0.0
H670 H 0.02864 0.17568 0.69203 0.0
C671 C 0.1434 0.23441 0.85451 0.0
C672 C 0.0445 0.25758 0.78871 0.0
H673 H 0.97693 0.17556 0.7494 0.0
C674 C 0.04815 0.29869 0.76265 0.0
C675 C 0.01763 0.21312 0.78422 0.0
C676 C 1.01161 0.16852 0.81186 0.0
C677 C 0.0278 0.29552 0.73149 0.0
C678 C 1.00179 0.2505 0.72666 0.0
C679 C 0.99665 0.21008 0.75318 0.0
C680 C 0.98386 0.24297 0.6935 0.0
C681 C 0.03691 0.33924 0.70359 0.0
C682 C 0.9506 0.27746 0.67564 0.0
C683 C 0.94052 0.27491 0.64243 0.0
C684 C 0.96304 0.23732 0.62668 0.0
C685 C 0.9929 0.20017 0.64554 0.0
C686 C 1.00334 0.20309 0.67859 0.0
H687 H 0.0669 0.36529 0.70958 0.0
H688 H 0.04705 0.32465 0.6805 0.0
H689 H 1.00261 0.36214 0.69884 0.0
H690 H 0.93417 0.30776 0.68695 0.0
H691 H 0.91743 0.30419 0.62867 0.0
H692 H 0.19839 0.77345 0.64902 0.0
H693 H 0.14575 0.77397 0.6975 0.0
H694 H 0.04312 0.67052 0.66086 0.0
H695 H 0.09544 0.66989 0.61194 0.0
H696 H 0.02945 0.7973 0.69265 0.0
H697 H 0.08992 0.60906 0.76209 0.0
H698 H 0.13047 0.64697 0.73265 0.0
H699 H 0.07749 0.61568 0.71832 0.0
C700 C 0.16478 0.75057 0.65126 0.0
C701 C 0.15118 0.72151 0.62664 0.0
C702 C 0.13468 0.75111 0.67891 0.0
C703 C 0.09071 0.72233 0.68262 0.0
C704 C 0.07704 0.69292 0.65834 0.0
H705 H 0.92649 0.67481 0.86934 0.0
H706 H 0.94568 0.67032 0.81135 0.0
C707 C 0.10701 0.69258 0.63049 0.0
C708 C 0.05944 0.72338 0.71209 0.0
H709 H 0.03786 0.65922 0.78973 0.0
C710 C 0.03065 0.76689 0.71378 0.0
C711 C 0.06076 0.68335 0.7393 0.0
C712 C 0.09128 0.63596 0.73834 0.0
C713 C 1.00426 0.77217 0.74258 0.0
C714 C 1.00796 0.73349 0.77062 0.0
C715 C 0.03499 0.68888 0.76827 0.0
C716 C 0.98876 0.74058 0.80357 0.0
C717 C 0.97312 0.81935 0.74273 0.0
C718 C 1.00551 0.78218 0.81821 0.0
C719 C 0.99419 0.78507 0.8511 0.0
C720 C 0.96646 0.74603 0.87025 0.0
C721 C 0.94748 0.70574 0.85512 0.0
C722 C 0.95874 0.70294 0.82208 0.0
H723 H 0.95939 0.8344 0.71749 0.0
H724 H 0.94088 0.81139 0.7596 0.0
H725 H 0.99615 0.84983 0.7511 0.0
H726 H 0.02961 0.81111 0.80477 0.0
H727 H 1.0091 0.81672 0.86204 0.0
loop_
_geom_bond_atom_site_label_1
_geom_bond_atom_site_label_2
_geom_bond_distance
_geom_bond_site_symmetry_2
_ccdc_geom_bond_type
Eu0 O2 2.323 . S
Eu0 O10 2.328 . S
Eu0 O21 2.316 . S
Eu0 C22 2.837 1_554 S
Eu0 O23 2.488 1_554 S
Eu0 O31 2.461 . S
C1 O12 1.251 1_554 S
C1 O21 1.237 . S
O2 Eu0 2.323 . S
O2 C18 1.279 . S
C3 C5 1.383 . S
C3 C7 1.388 . S
C3 C17 1.491 . S
C4 C6 1.403 . S
C4 C8 1.385 . S
C4 H32 0.931 1_455 S
C5 C3 1.383 . S
C5 C6 1.393 . S
C5 H33 0.930 . S
C6 C4 1.403 . S
C6 C5 1.393 . S
C7 C3 1.388 . S
C7 C8 1.394 . S
C7 H34 0.930 . S
C8 C4 1.385 . S
C8 C7 1.394 . S
Eu9 O11 2.323 . S
Eu9 O12 2.328 . S
Eu9 O13 2.316 . S
Eu9 O16 2.488 1_556 S
Eu9 C17 2.837 1_556 S
Eu9 O20 2.461 . S
O10 Eu0 2.328 . S
O10 C30 1.251 1_554 S
O11 Eu9 2.323 . S
O11 C14 1.279 . S
O12 C1 1.251 1_556 S
O12 Eu9 2.328 . S
O13 Eu9 2.316 . S
O13 C30 1.237 . S
C14 O11 1.279 . S
C14 O15 1.244 . S
O15 C14 1.244 . S
O16 Eu9 2.488 1_554 S
O16 C17 1.271 . S
C17 C3 1.491 . S
C17 Eu9 2.837 1_554 S
C17 O16 1.271 . S
C17 O20 1.261 1_554 S
C18 O2 1.279 . S
C18 O19 1.244 . S
O19 C18 1.244 . S
O20 Eu9 2.461 . S
O20 C17 1.261 1_556 S
O21 Eu0 2.316 . S
O21 C1 1.237 . S
C22 Eu0 2.837 1_556 S
C22 O23 1.271 . S
C22 C24 1.491 . S
C22 O31 1.261 1_556 S
O23 Eu0 2.488 1_556 S
O23 C22 1.271 . S
C24 C22 1.491 . S
C24 C26 1.383 . S
C24 C28 1.388 . S
C25 C27 1.403 . S
C25 C29 1.385 . S
C25 H35 0.931 . S
C26 C24 1.383 . S
C26 C27 1.393 . S
C26 H36 0.930 . S
C27 C25 1.403 . S
C27 C26 1.393 . S
C28 C24 1.388 . S
C28 C29 1.394 . S
C28 H37 0.930 . S
C29 C25 1.385 . S
C29 C28 1.394 . S
C30 O10 1.251 1_556 S
C30 O13 1.237 . S
O31 Eu0 2.461 . S
O31 C22 1.261 1_554 S
H32 C4 0.931 1_655 S
H33 C5 0.930 . S
H34 C7 0.930 . S
H35 C25 0.931 . S
H36 C26 0.930 . S
H37 C28 0.930 . S
Eu38 O40 2.323 . S
Eu38 O48 2.328 . S
Eu38 O59 2.316 . S
Eu38 C60 2.837 1_554 S
Eu38 O61 2.488 1_554 S
Eu38 O69 2.461 . S
C39 O50 1.251 1_554 S
C39 O59 1.237 . S
O40 Eu38 2.323 . S
O40 C56 1.279 . S
C41 C43 1.383 . S
C41 C45 1.388 . S
C41 C55 1.491 . S
C42 C44 1.403 . S
C42 C46 1.385 . S
C42 H70 0.931 . S
C43 C41 1.383 . S
C43 C44 1.393 . S
C43 H71 0.930 . S
C44 C42 1.403 . S
C44 C43 1.393 . S
C45 C41 1.388 . S
C45 C46 1.394 . S
C45 H72 0.930 . S
C46 C42 1.385 . S
C46 C45 1.394 . S
Eu47 O49 2.323 . S
Eu47 O50 2.328 . S
Eu47 O51 2.316 . S
Eu47 O54 2.488 1_556 S
Eu47 C55 2.837 1_556 S
Eu47 O58 2.461 . S
O48 Eu38 2.328 . S
O48 C68 1.251 1_554 S
O49 Eu47 2.323 . S
O49 C52 1.279 . S
O50 C39 1.251 1_556 S
O50 Eu47 2.328 . S
O51 Eu47 2.316 . S
O51 C68 1.237 . S
C52 O49 1.279 . S
C52 O53 1.244 . S
O53 C52 1.244 . S
O54 Eu47 2.488 1_554 S
O54 C55 1.271 . S
C55 C41 1.491 . S
C55 Eu47 2.837 1_554 S
C55 O54 1.271 . S
C55 O58 1.261 1_554 S
C56 O40 1.279 . S
C56 O57 1.244 . S
O57 C56 1.244 . S
O58 Eu47 2.461 . S
O58 C55 1.261 1_556 S
O59 Eu38 2.316 . S
O59 C39 1.237 . S
C60 Eu38 2.837 1_556 S
C60 O61 1.271 . S
C60 C62 1.491 . S
C60 O69 1.261 1_556 S
O61 Eu38 2.488 1_556 S
O61 C60 1.271 . S
C62 C60 1.491 . S
C62 C64 1.383 . S
C62 C66 1.388 . S
C63 C65 1.403 . S
C63 C67 1.385 . S
C63 H73 0.931 1_655 S
C64 C62 1.383 . S
C64 C65 1.393 . S
C64 H74 0.930 . S
C65 C63 1.403 . S
C65 C64 1.393 . S
C66 C62 1.388 . S
C66 C67 1.394 . S
C66 H75 0.930 . S
C67 C63 1.385 . S
C67 C66 1.394 . S
C68 O48 1.251 1_556 S
C68 O51 1.237 . S
O69 Eu38 2.461 . S
O69 C60 1.261 1_554 S
H70 C42 0.931 . S
H71 C43 0.930 . S
H72 C45 0.930 . S
H73 C63 0.931 1_455 S
H74 C64 0.930 . S
H75 C66 0.930 . S
Eu76 O78 2.323 . S
Eu76 O86 2.328 . S
Eu76 O97 2.316 . S
Eu76 C98 2.837 . S
Eu76 O99 2.488 . S
Eu76 O107 2.461 . S
C77 O88 1.251 . S
C77 O97 1.237 . S
O78 Eu76 2.323 . S
O78 C94 1.279 . S
C79 C81 1.383 . S
C79 C83 1.388 . S
C79 C93 1.491 . S
C80 C82 1.403 . S
C80 C84 1.385 . S
C80 H108 0.931 1_455 S
C81 C79 1.383 . S
C81 C82 1.393 . S
C81 H109 0.930 . S
C82 C80 1.403 . S
C82 C81 1.393 . S
C83 C79 1.388 . S
C83 C84 1.394 . S
C83 H110 0.930 . S
C84 C80 1.385 . S
C84 C83 1.394 . S
Eu85 O87 2.323 . S
Eu85 O88 2.328 . S
Eu85 O89 2.316 . S
Eu85 O92 2.488 . S
Eu85 C93 2.837 . S
Eu85 O96 2.461 . S
O86 Eu76 2.328 . S
O86 C106 1.251 . S
O87 Eu85 2.323 . S
O87 C90 1.279 . S
O88 C77 1.251 . S
O88 Eu85 2.328 . S
O89 Eu85 2.316 . S
O89 C106 1.237 . S
C90 O87 1.279 . S
C90 O91 1.244 . S
O91 C90 1.244 . S
O92 Eu85 2.488 . S
O92 C93 1.271 . S
C93 C79 1.491 . S
C93 Eu85 2.837 . S
C93 O92 1.271 . S
C93 O96 1.261 . S
C94 O78 1.279 . S
C94 O95 1.244 . S
O95 C94 1.244 . S
O96 Eu85 2.461 . S
O96 C93 1.261 . S
O97 Eu76 2.316 . S
O97 C77 1.237 . S
C98 Eu76 2.837 . S
C98 O99 1.271 . S
C98 C100 1.491 . S
C98 O107 1.261 . S
O99 Eu76 2.488 . S
O99 C98 1.271 . S
C100 C98 1.491 . S
C100 C102 1.383 . S
C100 C104 1.388 . S
C101 C103 1.403 . S
C101 C105 1.385 . S
C101 H111 0.931 . S
C102 C100 1.383 . S
C102 C103 1.393 . S
C102 H112 0.930 . S
C103 C101 1.403 . S
C103 C102 1.393 . S
C104 C100 1.388 . S
C104 C105 1.394 . S
C104 H113 0.930 . S
C105 C101 1.385 . S
C105 C104 1.394 . S
C106 O86 1.251 . S
C106 O89 1.237 . S
O107 Eu76 2.461 . S
O107 C98 1.261 . S
H108 C80 0.931 1_655 S
H109 C81 0.930 . S
H110 C83 0.930 . S
H111 C101 0.931 . S
H112 C102 0.930 . S
H113 C104 0.930 . S
Eu114 O116 2.323 . S
Eu114 O124 2.328 . S
Eu114 O135 2.316 . S
Eu114 C136 2.837 . S
Eu114 O137 2.488 . S
Eu114 O145 2.461 . S
C115 O126 1.251 . S
C115 O135 1.237 . S
O116 Eu114 2.323 . S
O116 C132 1.279 . S
C117 C119 1.383 . S
C117 C121 1.388 . S
C117 C131 1.491 . S
C118 C120 1.403 . S
C118 C122 1.385 . S
C118 H146 0.931 . S
C119 C117 1.383 . S
C119 C120 1.393 . S
C119 H147 0.930 . S
C120 C118 1.403 . S
C120 C119 1.393 . S
C121 C117 1.388 . S
C121 C122 1.394 . S
C121 H148 0.930 . S
C122 C118 1.385 . S
C122 C121 1.394 . S
Eu123 O125 2.323 . S
Eu123 O126 2.328 . S
Eu123 O127 2.316 . S
Eu123 O130 2.488 . S
Eu123 C131 2.837 . S
Eu123 O134 2.461 . S
O124 Eu114 2.328 . S
O124 C144 1.251 . S
O125 Eu123 2.323 . S
O125 C128 1.279 . S
O126 C115 1.251 . S
O126 Eu123 2.328 . S
O127 Eu123 2.316 . S
O127 C144 1.237 . S
C128 O125 1.279 . S
C128 O129 1.244 . S
O129 C128 1.244 . S
O130 Eu123 2.488 . S
O130 C131 1.271 . S
C131 C117 1.491 . S
C131 Eu123 2.837 . S
C131 O130 1.271 . S
C131 O134 1.261 . S
C132 O116 1.279 . S
C132 O133 1.244 . S
O133 C132 1.244 . S
O134 Eu123 2.461 . S
O134 C131 1.261 . S
O135 Eu114 2.316 . S
O135 C115 1.237 . S
C136 Eu114 2.837 . S
C136 O137 1.271 . S
C136 C138 1.491 . S
C136 O145 1.261 . S
O137 Eu114 2.488 . S
O137 C136 1.271 . S
C138 C136 1.491 . S
C138 C140 1.383 . S
C138 C142 1.388 . S
C139 C141 1.403 . S
C139 C143 1.385 . S
C139 H149 0.931 1_655 S
C140 C138 1.383 . S
C140 C141 1.393 . S
C140 H150 0.930 . S
C141 C139 1.403 . S
C141 C140 1.393 . S
C142 C138 1.388 . S
C142 C143 1.394 . S
C142 H151 0.930 . S
C143 C139 1.385 . S
C143 C142 1.394 . S
C144 O124 1.251 . S
C144 O127 1.237 . S
O145 Eu114 2.461 . S
O145 C136 1.261 . S
H146 C118 0.931 . S
H147 C119 0.930 . S
H148 C121 0.930 . S
H149 C139 0.931 1_455 S
H150 C140 0.930 . S
H151 C142 0.930 . S
H152 C160 0.929 1_554 S
H153 C162 0.960 . S
H154 C164 0.930 . S
H155 C167 0.929 . S
H156 C170 0.930 . S
H157 C172 0.960 . S
H158 C172 0.960 . S
H159 C172 0.960 . S
C160 H152 0.929 1_556 S
C160 C161 1.377 . S
C160 C162 1.373 1_556 S
C161 C160 1.377 . S
C161 C167 1.390 . S
C162 H153 0.960 . S
C162 C160 1.373 1_554 S
C162 C163 1.353 1_554 S
C163 C162 1.353 1_556 S
C163 C164 1.400 . S
C163 C168 1.490 . S
C164 H154 0.930 . S
C164 C163 1.400 . S
C164 C167 1.386 . S
H165 C181 0.930 1_556 S
H166 C182 0.931 1_556 S
C167 H155 0.929 . S
C167 C161 1.390 . S
C167 C164 1.386 . S
C168 C163 1.490 . S
C168 C170 1.395 1_556 S
C168 C171 1.403 . S
H169 C175 0.930 . S
C170 H156 0.930 . S
C170 C168 1.395 1_554 S
C170 C173 1.403 . S
C171 C168 1.403 . S
C171 C172 1.524 . S
C171 C175 1.400 . S
C172 H157 0.960 . S
C172 H158 0.960 . S
C172 H159 0.960 . S
C172 C171 1.524 . S
C173 C170 1.403 . S
C173 C174 1.392 . S
C173 C177 1.495 . S
C174 C173 1.392 . S
C174 C175 1.385 1_554 S
C174 C176 1.478 . S
C175 H169 0.930 . S
C175 C171 1.400 . S
C175 C174 1.385 1_556 S
C176 C174 1.478 . S
C176 C178 1.381 . S
C176 C182 1.383 . S
C177 C173 1.495 . S
C177 H183 0.959 . S
C177 H184 0.961 . S
C177 H185 0.960 . S
C178 C176 1.381 . S
C178 C179 1.394 . S
C178 H186 0.930 . S
C179 C178 1.394 . S
C179 C180 1.383 . S
C179 H187 0.929 . S
C180 C179 1.383 . S
C180 C181 1.377 . S
C181 H165 0.930 1_554 S
C181 C180 1.377 . S
C181 C182 1.379 . S
C182 H166 0.931 1_554 S
C182 C176 1.383 . S
C182 C181 1.379 . S
H183 C177 0.959 . S
H184 C177 0.961 . S
H185 C177 0.960 . S
H186 C178 0.930 . S
H187 C179 0.929 . S
H188 C196 0.929 . S
H189 C198 0.930 . S
H190 C200 0.930 . S
H191 C203 0.929 . S
H192 C206 0.930 . S
H193 C208 0.960 . S
H194 C208 0.960 . S
H195 C208 0.960 . S
C196 H188 0.929 . S
C196 C197 1.377 . S
C196 C198 1.384 . S
C197 C196 1.377 . S
C197 C203 1.390 . S
C198 H189 0.930 . S
C198 C196 1.384 . S
C198 C199 1.372 . S
C199 C198 1.372 . S
C199 C200 1.400 . S
C199 C204 1.490 . S
C200 H190 0.930 . S
C200 C199 1.400 . S
C200 C203 1.386 . S
H201 C217 0.930 . S
H202 C218 0.931 . S
C203 H191 0.929 . S
C203 C197 1.390 . S
C203 C200 1.386 . S
C204 C199 1.490 . S
C204 C206 1.395 1_556 S
C204 C207 1.403 . S
H205 C211 0.930 . S
C206 H192 0.930 . S
C206 C204 1.395 1_554 S
C206 C209 1.403 . S
C207 C204 1.403 . S
C207 C208 1.524 . S
C207 C211 1.400 . S
C208 H193 0.960 . S
C208 H194 0.960 . S
C208 H195 0.960 . S
C208 C207 1.524 . S
C209 C206 1.403 . S
C209 C210 1.392 . S
C209 C213 1.495 . S
C210 C209 1.392 . S
C210 C211 1.385 1_554 S
C210 C212 1.478 . S
C211 H205 0.930 . S
C211 C207 1.400 . S
C211 C210 1.385 1_556 S
C212 C210 1.478 . S
C212 C214 1.381 . S
C212 C218 1.383 . S
C213 C209 1.495 . S
C213 H219 0.959 . S
C213 H220 0.961 . S
C213 H221 0.960 . S
C214 C212 1.381 . S
C214 C215 1.394 . S
C214 H222 0.930 . S
C215 C214 1.394 . S
C215 C216 1.383 . S
C215 H223 0.929 . S
C216 C215 1.383 . S
C216 C217 1.377 . S
C217 H201 0.930 . S
C217 C216 1.377 . S
C217 C218 1.379 . S
C218 H202 0.931 . S
C218 C212 1.383 . S
C218 C217 1.379 . S
H219 C213 0.959 . S
H220 C213 0.961 . S
H221 C213 0.960 . S
H222 C214 0.930 . S
H223 C215 0.929 . S
H224 C232 0.929 . S
H225 C234 0.930 . S
H226 C236 0.930 . S
H227 C239 0.929 . S
H228 C242 0.930 . S
H229 C244 0.960 . S
H230 C244 0.960 . S
H231 C244 0.960 . S
C232 H224 0.929 . S
C232 C233 1.377 . S
C232 C234 1.384 . S
C233 C232 1.377 . S
C233 C239 1.390 . S
C234 H225 0.930 . S
C234 C232 1.384 . S
C234 C235 1.372 . S
C235 C234 1.372 . S
C235 C236 1.400 . S
C235 C240 1.490 . S
C236 H226 0.930 . S
C236 C235 1.400 . S
C236 C239 1.386 . S
H237 C253 0.930 . S
H238 C254 0.931 . S
C239 H227 0.929 . S
C239 C233 1.390 . S
C239 C236 1.386 . S
C240 C235 1.490 . S
C240 C242 1.395 . S
C240 C243 1.403 . S
H241 C247 0.930 . S
C242 H228 0.930 . S
C242 C240 1.395 . S
C242 C245 1.403 . S
C243 C240 1.403 . S
C243 C244 1.524 . S
C243 C247 1.400 . S
C244 H229 0.960 . S
C244 H230 0.960 . S
C244 H231 0.960 . S
C244 C243 1.524 . S
C245 C242 1.403 . S
C245 C246 1.392 . S
C245 C249 1.495 . S
C246 C245 1.392 . S
C246 C247 1.385 . S
C246 C248 1.478 . S
C247 H241 0.930 . S
C247 C243 1.400 . S
C247 C246 1.385 . S
C248 C246 1.478 . S
C248 C250 1.381 . S
C248 C254 1.383 . S
C249 C245 1.495 . S
C249 H255 0.959 . S
C249 H256 0.961 . S
C249 H257 0.960 . S
C250 C248 1.381 . S
C250 C251 1.394 . S
C250 H258 0.930 . S
C251 C250 1.394 . S
C251 C252 1.383 . S
C251 H259 0.929 . S
C252 C251 1.383 . S
C252 C253 1.377 . S
C253 H237 0.930 . S
C253 C252 1.377 . S
C253 C254 1.379 . S
C254 H238 0.931 . S
C254 C248 1.383 . S
C254 C253 1.379 . S
H255 C249 0.959 . S
H256 C249 0.961 . S
H257 C249 0.960 . S
H258 C250 0.930 . S
H259 C251 0.929 . S
H260 C268 0.929 . S
H261 C270 0.930 . S
H262 C272 0.930 . S
H263 C275 0.929 . S
H264 C278 0.930 . S
H265 C280 0.960 . S
H266 C280 0.960 . S
H267 C280 0.960 . S
C268 H260 0.929 . S
C268 C269 1.377 . S
C268 C270 1.384 . S
C269 C268 1.377 . S
C269 C275 1.390 . S
C270 H261 0.930 . S
C270 C268 1.384 . S
C270 C271 1.372 . S
C271 C270 1.372 . S
C271 C272 1.400 . S
C271 C276 1.490 . S
C272 H262 0.930 . S
C272 C271 1.400 . S
C272 C275 1.386 . S
H273 C289 0.930 . S
H274 C290 0.931 . S
C275 H263 0.929 . S
C275 C269 1.390 . S
C275 C272 1.386 . S
C276 C271 1.490 . S
C276 C278 1.395 . S
C276 C279 1.403 . S
H277 C283 0.930 . S
C278 H264 0.930 . S
C278 C276 1.395 . S
C278 C281 1.403 . S
C279 C276 1.403 . S
C279 C280 1.524 . S
C279 C283 1.400 . S
C280 H265 0.960 . S
C280 H266 0.960 . S
C280 H267 0.960 . S
C280 C279 1.524 . S
C281 C278 1.403 . S
C281 C282 1.392 . S
C281 C285 1.495 . S
C282 C281 1.392 . S
C282 C283 1.385 . S
C282 C284 1.478 . S
C283 H277 0.930 . S
C283 C279 1.400 . S
C283 C282 1.385 . S
C284 C282 1.478 . S
C284 C286 1.381 . S
C284 C290 1.383 . S
C285 C281 1.495 . S
C285 H291 0.959 . S
C285 H292 0.961 . S
C285 H293 0.960 . S
C286 C284 1.381 . S
C286 C287 1.394 . S
C286 H294 0.930 . S
C287 C286 1.394 . S
C287 C288 1.383 . S
C287 H295 0.929 . S
C288 C287 1.383 . S
C288 C289 1.377 . S
C289 H273 0.930 . S
C289 C288 1.377 . S
C289 C290 1.379 . S
C290 H274 0.931 . S
C290 C284 1.383 . S
C290 C289 1.379 . S
H291 C285 0.959 . S
H292 C285 0.961 . S
H293 C285 0.960 . S
H294 C286 0.930 . S
H295 C287 0.929 . S
H296 C304 0.929 . S
H297 C306 0.930 . S
H298 C308 0.930 . S
H299 C311 0.929 . S
H300 C314 0.930 . S
H301 C316 0.960 . S
H302 C316 0.960 . S
H303 C316 0.960 1_554 S
C304 H296 0.929 . S
C304 C305 1.377 . S
C304 C306 1.384 . S
C305 C304 1.377 . S
C305 C311 1.390 1_556 S
C306 H297 0.930 . S
C306 C304 1.384 . S
C306 C307 1.372 . S
C307 C306 1.372 . S
C307 C308 1.400 1_556 S
C307 C312 1.490 . S
C308 H298 0.930 . S
C308 C307 1.400 1_554 S
C308 C311 1.386 . S
H309 C325 0.930 . S
H310 C326 0.931 . S
C311 H299 0.929 . S
C311 C305 1.390 1_554 S
C311 C308 1.386 . S
C312 C307 1.490 . S
C312 C314 1.395 1_556 S
C312 C315 1.403 . S
H313 C319 0.930 . S
C314 H300 0.930 . S
C314 C312 1.395 1_554 S
C314 C317 1.403 . S
C315 C312 1.403 . S
C315 C316 1.524 . S
C315 C319 1.400 . S
C316 H301 0.960 . S
C316 H302 0.960 . S
C316 H303 0.960 1_556 S
C316 C315 1.524 . S
C317 C314 1.403 . S
C317 C318 1.395 . S
C317 C321 1.495 . S
C318 C317 1.395 . S
C318 C319 1.385 1_554 S
C318 C320 1.476 . S
C319 H313 0.930 . S
C319 C315 1.400 . S
C319 C318 1.385 1_556 S
C320 C318 1.476 . S
C320 C322 1.381 1_554 S
C320 C326 1.383 . S
C321 C317 1.495 . S
C321 H327 0.959 . S
C321 H328 0.961 . S
C321 H329 0.960 1_554 S
C322 C320 1.381 1_556 S
C322 C323 1.394 . S
C322 H330 0.930 . S
C323 C322 1.394 . S
C323 C324 1.383 1_556 S
C323 H331 0.929 . S
C324 C323 1.383 1_554 S
C324 C325 1.377 . S
C325 H309 0.930 . S
C325 C324 1.377 . S
C325 C326 1.379 . S
C326 H310 0.931 . S
C326 C320 1.383 . S
C326 C325 1.379 . S
H327 C321 0.959 . S
H328 C321 0.961 . S
H329 C321 0.960 1_556 S
H330 C322 0.930 . S
H331 C323 0.929 . S
H332 C340 0.929 . S
H333 C342 0.930 . S
H334 C344 0.930 . S
H335 C347 0.929 . S
H336 C350 0.930 . S
H337 C352 0.960 . S
H338 C352 0.960 . S
H339 C352 0.960 . S
C340 H332 0.929 . S
C340 C341 1.377 . S
C340 C342 1.384 . S
C341 C340 1.377 . S
C341 C347 1.390 . S
C342 H333 0.930 . S
C342 C340 1.384 . S
C342 C343 1.372 . S
C343 C342 1.372 . S
C343 C344 1.400 . S
C343 C348 1.490 . S
C344 H334 0.930 . S
C344 C343 1.400 . S
C344 C347 1.386 . S
H345 C361 0.930 . S
H346 C362 0.931 . S
C347 H335 0.929 . S
C347 C341 1.390 . S
C347 C344 1.386 . S
C348 C343 1.490 . S
C348 C350 1.395 . S
C348 C351 1.403 . S
H349 C355 0.930 . S
C350 H336 0.930 . S
C350 C348 1.395 . S
C350 C353 1.403 . S
C351 C348 1.403 . S
C351 C352 1.524 . S
C351 C355 1.400 . S
C352 H337 0.960 . S
C352 H338 0.960 . S
C352 H339 0.960 . S
C352 C351 1.524 . S
C353 C350 1.403 . S
C353 C354 1.392 . S
C353 C357 1.495 . S
C354 C353 1.392 . S
C354 C355 1.385 . S
C354 C356 1.478 . S
C355 H349 0.930 . S
C355 C351 1.400 . S
C355 C354 1.385 . S
C356 C354 1.478 . S
C356 C358 1.381 . S
C356 C362 1.383 . S
C357 C353 1.495 . S
C357 H363 0.959 . S
C357 H364 0.961 . S
C357 H365 0.960 . S
C358 C356 1.381 . S
C358 C359 1.394 . S
C358 H366 0.930 . S
C359 C358 1.394 . S
C359 C360 1.383 . S
C359 H367 0.929 . S
C360 C359 1.383 . S
C360 C361 1.377 . S
C361 H345 0.930 . S
C361 C360 1.377 . S
C361 C362 1.379 . S
C362 H346 0.931 . S
C362 C356 1.383 . S
C362 C361 1.379 . S
H363 C357 0.959 . S
H364 C357 0.961 . S
H365 C357 0.960 . S
H366 C358 0.930 . S
H367 C359 0.929 . S
H368 C376 0.929 . S
H369 C378 0.930 . S
H370 C380 0.930 . S
H371 C383 0.929 . S
H372 C386 0.930 . S
H373 C388 0.960 . S
H374 C388 0.960 1_556 S
H375 C388 0.960 . S
C376 H368 0.929 . S
C376 C377 1.377 . S
C376 C378 1.384 . S
C377 C376 1.377 . S
C377 C383 1.390 1_556 S
C378 H369 0.930 . S
C378 C376 1.384 . S
C378 C379 1.372 . S
C379 C378 1.372 . S
C379 C380 1.400 1_556 S
C379 C384 1.490 . S
C380 H370 0.930 . S
C380 C379 1.400 1_554 S
C380 C383 1.386 . S
H381 C397 0.930 . S
H382 C398 0.931 . S
C383 H371 0.929 . S
C383 C377 1.390 1_554 S
C383 C380 1.386 . S
C384 C379 1.490 . S
C384 C386 1.395 1_545 S
C384 C387 1.403 1_456 S
H385 C391 0.930 . S
C386 H372 0.930 . S
C386 C384 1.395 1_565 S
C386 C389 1.403 . S
C387 C384 1.403 1_654 S
C387 C388 1.524 . S
C387 C391 1.400 . S
C388 H373 0.960 . S
C388 H374 0.960 1_554 S
C388 H375 0.960 . S
C388 C387 1.524 . S
C389 C386 1.403 . S
C389 C390 1.392 1_455 S
C389 C393 1.495 . S
C390 C389 1.392 1_655 S
C390 C391 1.385 1_566 S
C390 C392 1.476 . S
C391 H385 0.930 . S
C391 C387 1.400 . S
C391 C390 1.385 1_544 S
C392 C390 1.476 . S
C392 C394 1.398 . S
C392 C398 1.366 1_556 S
C393 C389 1.495 . S
C393 H399 0.959 . S
C393 H400 0.962 . S
C393 H401 0.960 . S
C394 C392 1.398 . S
C394 C395 1.394 . S
C394 H402 0.930 . S
C395 C394 1.394 . S
C395 C396 1.383 1_556 S
C395 H403 0.929 . S
C396 C395 1.383 1_554 S
C396 C397 1.377 . S
C397 H381 0.930 . S
C397 C396 1.377 . S
C397 C398 1.379 . S
C398 H382 0.931 . S
C398 C392 1.366 1_554 S
C398 C397 1.379 . S
H399 C393 0.959 . S
H400 C393 0.962 . S
H401 C393 0.960 . S
H402 C394 0.930 . S
H403 C395 0.929 . S
H404 C412 0.929 . S
H405 C414 0.930 . S
H406 C416 0.930 . S
H407 C419 0.929 . S
H408 C422 0.930 . S
H409 C424 0.960 . S
H410 C424 0.960 . S
H411 C424 0.960 . S
C412 H404 0.929 . S
C412 C413 1.377 . S
C412 C414 1.384 . S
C413 C412 1.377 . S
C413 C419 1.390 . S
C414 H405 0.930 . S
C414 C412 1.384 . S
C414 C415 1.372 . S
C415 C414 1.372 . S
C415 C416 1.400 . S
C415 C420 1.490 . S
C416 H406 0.930 . S
C416 C415 1.400 . S
C416 C419 1.386 . S
H417 C433 0.930 . S
H418 C434 0.931 . S
C419 H407 0.929 . S
C419 C413 1.390 . S
C419 C416 1.386 . S
C420 C415 1.490 . S
C420 C422 1.395 . S
C420 C423 1.403 . S
H421 C427 0.930 . S
C422 H408 0.930 . S
C422 C420 1.395 . S
C422 C425 1.403 1_645 S
C423 C420 1.403 . S
C423 C424 1.524 . S
C423 C427 1.400 1_645 S
C424 H409 0.960 . S
C424 H410 0.960 . S
C424 H411 0.960 . S
C424 C423 1.524 . S
C425 C422 1.403 1_465 S
C425 C426 1.392 . S
C425 C429 1.495 . S
C426 C425 1.392 . S
C426 C427 1.385 . S
C426 C428 1.478 . S
C427 H421 0.930 . S
C427 C423 1.400 1_465 S
C427 C426 1.385 . S
C428 C426 1.478 . S
C428 C430 1.381 . S
C428 C434 1.383 . S
C429 C425 1.495 . S
C429 H435 0.959 . S
C429 H436 0.961 . S
C429 H437 0.960 . S
C430 C428 1.381 . S
C430 C431 1.394 . S
C430 H438 0.930 . S
C431 C430 1.394 . S
C431 C432 1.383 . S
C431 H439 0.929 . S
C432 C431 1.383 . S
C432 C433 1.377 . S
C433 H417 0.930 . S
C433 C432 1.377 . S
C433 C434 1.379 . S
C434 H418 0.931 . S
C434 C428 1.383 . S
C434 C433 1.379 . S
H435 C429 0.959 . S
H436 C429 0.961 . S
H437 C429 0.960 . S
H438 C430 0.930 . S
H439 C431 0.929 . S
H440 C448 0.929 . S
H441 C450 0.930 . S
H442 C452 0.930 . S
H443 C455 0.929 . S
H444 C458 0.930 . S
H445 C460 0.960 . S
H446 C460 0.960 . S
H447 C460 0.960 . S
C448 H440 0.929 . S
C448 C449 1.377 . S
C448 C450 1.384 . S
C449 C448 1.377 . S
C449 C455 1.390 . S
C450 H441 0.930 . S
C450 C448 1.384 . S
C450 C451 1.372 . S
C451 C450 1.372 . S
C451 C452 1.400 . S
C451 C456 1.490 . S
C452 H442 0.930 . S
C452 C451 1.400 . S
C452 C455 1.386 . S
H453 C469 0.930 . S
H454 C470 0.931 . S
C455 H443 0.929 . S
C455 C449 1.390 . S
C455 C452 1.386 . S
C456 C451 1.490 . S
C456 C458 1.395 . S
C456 C459 1.403 . S
H457 C463 0.930 . S
C458 H444 0.930 . S
C458 C456 1.395 . S
C458 C461 1.403 . S
C459 C456 1.403 . S
C459 C460 1.524 . S
C459 C463 1.400 . S
C460 H445 0.960 . S
C460 H446 0.960 . S
C460 H447 0.960 . S
C460 C459 1.524 . S
C461 C458 1.403 . S
C461 C462 1.392 . S
C461 C465 1.495 . S
C462 C461 1.392 . S
C462 C463 1.385 . S
C462 C464 1.478 . S
C463 H457 0.930 . S
C463 C459 1.400 . S
C463 C462 1.385 . S
C464 C462 1.478 . S
C464 C466 1.381 . S
C464 C470 1.383 . S
C465 C461 1.495 . S
C465 H471 0.959 . S
C465 H472 0.961 . S
C465 H473 0.960 . S
C466 C464 1.381 . S
C466 C467 1.394 . S
C466 H474 0.930 . S
C467 C466 1.394 . S
C467 C468 1.383 . S
C467 H475 0.929 . S
C468 C467 1.383 . S
C468 C469 1.377 . S
C469 H453 0.930 . S
C469 C468 1.377 . S
C469 C470 1.379 . S
C470 H454 0.931 . S
C470 C464 1.383 . S
C470 C469 1.379 . S
H471 C465 0.959 . S
H472 C465 0.961 . S
H473 C465 0.960 . S
H474 C466 0.930 . S
H475 C467 0.929 . S
H476 C484 0.929 . S
H477 C486 0.930 . S
H478 C488 0.930 . S
H479 C491 0.929 . S
H480 C494 0.930 . S
H481 C496 0.960 . S
H482 C496 0.960 . S
H483 C496 0.960 . S
C484 H476 0.929 . S
C484 C485 1.377 . S
C484 C486 1.384 . S
C485 C484 1.377 . S
C485 C491 1.390 . S
C486 H477 0.930 . S
C486 C484 1.384 . S
C486 C487 1.372 . S
C487 C486 1.372 . S
C487 C488 1.400 . S
C487 C492 1.490 . S
C488 H478 0.930 . S
C488 C487 1.400 . S
C488 C491 1.386 . S
H489 C505 0.930 . S
H490 C506 0.931 . S
C491 H479 0.929 . S
C491 C485 1.390 . S
C491 C488 1.386 . S
C492 C487 1.490 . S
C492 C494 1.395 . S
C492 C495 1.403 . S
H493 C499 0.930 . S
C494 H480 0.930 . S
C494 C492 1.395 . S
C494 C497 1.403 . S
C495 C492 1.403 . S
C495 C496 1.524 . S
C495 C499 1.400 . S
C496 H481 0.960 . S
C496 H482 0.960 . S
C496 H483 0.960 . S
C496 C495 1.524 . S
C497 C494 1.403 . S
C497 C498 1.392 . S
C497 C501 1.495 . S
C498 C497 1.392 . S
C498 C499 1.385 . S
C498 C500 1.478 . S
C499 H493 0.930 . S
C499 C495 1.400 . S
C499 C498 1.385 . S
C500 C498 1.478 . S
C500 C502 1.381 . S
C500 C506 1.383 . S
C501 C497 1.495 . S
C501 H507 0.959 . S
C501 H508 0.961 . S
C501 H509 0.960 . S
C502 C500 1.381 . S
C502 C503 1.394 . S
C502 H510 0.930 . S
C503 C502 1.394 . S
C503 C504 1.383 . S
C503 H511 0.929 . S
C504 C503 1.383 . S
C504 C505 1.377 . S
C505 H489 0.930 . S
C505 C504 1.377 . S
C505 C506 1.379 . S
C506 H490 0.931 . S
C506 C500 1.383 . S
C506 C505 1.379 . S
H507 C501 0.959 . S
H508 C501 0.961 . S
H509 C501 0.960 . S
H510 C502 0.930 . S
H511 C503 0.929 . S
H512 C520 0.929 . S
H513 C522 0.930 . S
H514 C524 0.930 . S
H515 C527 0.929 . S
H516 C530 0.930 . S
H517 C532 0.960 . S
H518 C532 0.960 . S
H519 C532 0.960 . S
C520 H512 0.929 . S
C520 C521 1.377 . S
C520 C522 1.384 . S
C521 C520 1.377 . S
C521 C527 1.390 . S
C522 H513 0.930 . S
C522 C520 1.384 . S
C522 C523 1.372 . S
C523 C522 1.372 . S
C523 C524 1.400 . S
C523 C528 1.490 . S
C524 H514 0.930 . S
C524 C523 1.400 . S
C524 C527 1.386 . S
H525 C541 0.930 . S
H526 C542 0.931 . S
C527 H515 0.929 . S
C527 C521 1.390 . S
C527 C524 1.386 . S
C528 C523 1.490 . S
C528 C530 1.395 . S
C528 C531 1.403 . S
H529 C535 0.930 . S
C530 H516 0.930 . S
C530 C528 1.395 . S
C530 C533 1.403 . S
C531 C528 1.403 . S
C531 C532 1.524 . S
C531 C535 1.400 . S
C532 H517 0.960 . S
C532 H518 0.960 . S
C532 H519 0.960 . S
C532 C531 1.524 . S
C533 C530 1.403 . S
C533 C534 1.392 . S
C533 C537 1.495 . S
C534 C533 1.392 . S
C534 C535 1.385 . S
C534 C536 1.478 . S
C535 H529 0.930 . S
C535 C531 1.400 . S
C535 C534 1.385 . S
C536 C534 1.478 . S
C536 C538 1.381 . S
C536 C542 1.383 . S
C537 C533 1.495 . S
C537 H543 0.959 . S
C537 H544 0.961 . S
C537 H545 0.960 . S
C538 C536 1.381 . S
C538 C539 1.394 . S
C538 H546 0.930 . S
C539 C538 1.394 . S
C539 C540 1.383 . S
C539 H547 0.929 . S
C540 C539 1.383 . S
C540 C541 1.377 . S
C541 H525 0.930 . S
C541 C540 1.377 . S
C541 C542 1.379 . S
C542 H526 0.931 . S
C542 C536 1.383 . S
C542 C541 1.379 . S
H543 C537 0.959 . S
H544 C537 0.961 . S
H545 C537 0.960 . S
H546 C538 0.930 . S
H547 C539 0.929 . S
H548 C556 0.929 . S
H549 C558 0.930 . S
H550 C560 0.930 . S
H551 C563 0.929 . S
H552 C566 0.930 . S
H553 C568 0.960 . S
H554 C568 0.960 . S
H555 C568 0.960 . S
C556 H548 0.929 . S
C556 C557 1.377 . S
C556 C558 1.384 . S
C557 C556 1.377 . S
C557 C563 1.390 . S
C558 H549 0.930 . S
C558 C556 1.384 . S
C558 C559 1.372 . S
C559 C558 1.372 . S
C559 C560 1.400 . S
C559 C564 1.490 . S
C560 H550 0.930 . S
C560 C559 1.400 . S
C560 C563 1.386 . S
H561 C577 0.930 . S
H562 C578 0.931 . S
C563 H551 0.929 . S
C563 C557 1.390 . S
C563 C560 1.386 . S
C564 C559 1.490 . S
C564 C566 1.395 . S
C564 C567 1.403 . S
H565 C571 0.930 . S
C566 H552 0.930 . S
C566 C564 1.395 . S
C566 C569 1.403 . S
C567 C564 1.403 . S
C567 C568 1.524 . S
C567 C571 1.400 . S
C568 H553 0.960 . S
C568 H554 0.960 . S
C568 H555 0.960 . S
C568 C567 1.524 . S
C569 C566 1.403 . S
C569 C570 1.392 . S
C569 C573 1.495 . S
C570 C569 1.392 . S
C570 C571 1.385 . S
C570 C572 1.478 . S
C571 H565 0.930 . S
C571 C567 1.400 . S
C571 C570 1.385 . S
C572 C570 1.478 . S
C572 C574 1.381 . S
C572 C578 1.383 . S
C573 C569 1.495 . S
C573 H579 0.959 . S
C573 H580 0.961 . S
C573 H581 0.960 . S
C574 C572 1.381 . S
C574 C575 1.394 . S
C574 H582 0.930 . S
C575 C574 1.394 . S
C575 C576 1.383 . S
C575 H583 0.929 . S
C576 C575 1.383 . S
C576 C577 1.377 . S
C577 H561 0.930 . S
C577 C576 1.377 . S
C577 C578 1.379 . S
C578 H562 0.931 . S
C578 C572 1.383 . S
C578 C577 1.379 . S
H579 C573 0.959 . S
H580 C573 0.961 . S
H581 C573 0.960 . S
H582 C574 0.930 . S
H583 C575 0.929 . S
H584 C592 0.929 . S
H585 C594 0.930 . S
H586 C596 0.930 . S
H587 C599 0.929 . S
H588 C602 0.930 . S
H589 C604 0.960 . S
H590 C604 0.960 . S
H591 C604 0.960 . S
C592 H584 0.929 . S
C592 C593 1.377 . S
C592 C594 1.384 . S
C593 C592 1.377 . S
C593 C599 1.390 . S
C594 H585 0.930 . S
C594 C592 1.384 . S
C594 C595 1.372 . S
C595 C594 1.372 . S
C595 C596 1.400 . S
C595 C600 1.490 1_455 S
C596 H586 0.930 . S
C596 C595 1.400 . S
C596 C599 1.386 . S
H597 C613 0.930 . S
H598 C614 0.931 . S
C599 H587 0.929 . S
C599 C593 1.390 . S
C599 C596 1.386 . S
C600 C595 1.490 1_655 S
C600 C602 1.395 . S
C600 C603 1.403 1_655 S
H601 C607 0.930 . S
C602 H588 0.930 . S
C602 C600 1.395 . S
C602 C605 1.403 . S
C603 C600 1.403 1_455 S
C603 C604 1.524 . S
C603 C607 1.400 1_455 S
C604 H589 0.960 . S
C604 H590 0.960 . S
C604 H591 0.960 . S
C604 C603 1.524 . S
C605 C602 1.403 . S
C605 C606 1.392 . S
C605 C609 1.495 . S
C606 C605 1.392 . S
C606 C607 1.385 . S
C606 C608 1.478 . S
C607 H601 0.930 . S
C607 C603 1.400 1_655 S
C607 C606 1.385 . S
C608 C606 1.478 . S
C608 C610 1.381 . S
C608 C614 1.383 . S
C609 C605 1.495 . S
C609 H615 0.959 . S
C609 H616 0.961 . S
C609 H617 0.960 . S
C610 C608 1.381 . S
C610 C611 1.394 . S
C610 H618 0.930 . S
C611 C610 1.394 . S
C611 C612 1.383 . S
C611 H619 0.929 . S
C612 C611 1.383 . S
C612 C613 1.377 . S
C613 H597 0.930 . S
C613 C612 1.377 . S
C613 C614 1.379 . S
C614 H598 0.931 . S
C614 C608 1.383 . S
C614 C613 1.379 . S
H615 C609 0.959 . S
H616 C609 0.961 . S
H617 C609 0.960 . S
H618 C610 0.930 . S
H619 C611 0.929 . S
H620 C628 0.929 . S
H621 C630 0.930 . S
H622 C632 0.930 . S
H623 C635 0.929 . S
H624 C638 0.930 . S
H625 C640 0.960 . S
H626 C640 0.960 . S
H627 C640 0.960 . S
C628 H620 0.929 . S
C628 C629 1.377 . S
C628 C630 1.384 . S
C629 C628 1.377 . S
C629 C635 1.390 . S
C630 H621 0.930 . S
C630 C628 1.384 . S
C630 C631 1.372 . S
C631 C630 1.372 . S
C631 C632 1.400 . S
C631 C636 1.490 . S
C632 H622 0.930 . S
C632 C631 1.400 . S
C632 C635 1.386 . S
H633 C649 0.930 . S
H634 C650 0.931 . S
C635 H623 0.929 . S
C635 C629 1.390 . S
C635 C632 1.386 . S
C636 C631 1.490 . S
C636 C638 1.395 . S
C636 C639 1.403 . S
H637 C643 0.930 . S
C638 H624 0.930 . S
C638 C636 1.395 . S
C638 C641 1.403 1_655 S
C639 C636 1.403 . S
C639 C640 1.524 . S
C639 C643 1.400 . S
C640 H625 0.960 . S
C640 H626 0.960 . S
C640 H627 0.960 . S
C640 C639 1.524 . S
C641 C638 1.403 1_455 S
C641 C642 1.392 1_455 S
C641 C645 1.495 . S
C642 C641 1.392 1_655 S
C642 C643 1.385 . S
C642 C644 1.478 1_655 S
C643 H637 0.930 . S
C643 C639 1.400 . S
C643 C642 1.385 . S
C644 C642 1.478 1_455 S
C644 C646 1.381 . S
C644 C650 1.383 . S
C645 C641 1.495 . S
C645 H651 0.959 . S
C645 H652 0.961 . S
C645 H653 0.960 . S
C646 C644 1.381 . S
C646 C647 1.394 . S
C646 H654 0.930 . S
C647 C646 1.394 . S
C647 C648 1.383 . S
C647 H655 0.929 . S
C648 C647 1.383 . S
C648 C649 1.377 . S
C649 H633 0.930 . S
C649 C648 1.377 . S
C649 C650 1.379 . S
C650 H634 0.931 . S
C650 C644 1.383 . S
C650 C649 1.379 . S
H651 C645 0.959 . S
H652 C645 0.961 . S
H653 C645 0.960 . S
H654 C646 0.930 . S
H655 C647 0.929 . S
H656 C664 0.929 . S
H657 C666 0.930 . S
H658 C668 0.930 . S
H659 C671 0.929 . S
H660 C674 0.930 . S
H661 C676 0.960 . S
H662 C676 0.960 . S
H663 C676 0.960 . S
C664 H656 0.929 . S
C664 C665 1.377 . S
C664 C666 1.384 . S
C665 C664 1.377 . S
C665 C671 1.390 . S
C666 H657 0.930 . S
C666 C664 1.384 . S
C666 C667 1.372 . S
C667 C666 1.372 . S
C667 C668 1.400 . S
C667 C672 1.490 . S
C668 H658 0.930 . S
C668 C667 1.400 . S
C668 C671 1.386 . S
H669 C685 0.930 . S
H670 C686 0.931 . S
C671 H659 0.929 . S
C671 C665 1.390 . S
C671 C668 1.386 . S
C672 C667 1.490 . S
C672 C674 1.395 . S
C672 C675 1.403 . S
H673 C679 0.930 . S
C674 H660 0.930 . S
C674 C672 1.395 . S
C674 C677 1.403 . S
C675 C672 1.403 . S
C675 C676 1.524 . S
C675 C679 1.400 . S
C676 H661 0.960 . S
C676 H662 0.960 . S
C676 H663 0.960 . S
C676 C675 1.524 . S
C677 C674 1.403 . S
C677 C678 1.392 . S
C677 C681 1.495 . S
C678 C677 1.392 . S
C678 C679 1.385 . S
C678 C680 1.478 1_455 S
C679 H673 0.930 . S
C679 C675 1.400 . S
C679 C678 1.385 . S
C680 C678 1.478 1_655 S
C680 C682 1.381 . S
C680 C686 1.383 1_655 S
C681 C677 1.495 . S
C681 H687 0.959 . S
C681 H688 0.961 . S
C681 H689 0.960 1_455 S
C682 C680 1.381 . S
C682 C683 1.394 . S
C682 H690 0.930 . S
C683 C682 1.394 . S
C683 C684 1.383 . S
C683 H691 0.929 . S
C684 C683 1.383 . S
C684 C685 1.377 . S
C685 H669 0.930 . S
C685 C684 1.377 . S
C685 C686 1.379 1_655 S
C686 H670 0.931 . S
C686 C680 1.383 1_455 S
C686 C685 1.379 1_455 S
H687 C681 0.959 . S
H688 C681 0.961 . S
H689 C681 0.960 1_655 S
H690 C682 0.930 . S
H691 C683 0.929 . S
H692 C700 0.929 . S
H693 C702 0.930 . S
H694 C704 0.930 . S
H695 C707 0.929 . S
H696 C710 0.930 . S
H697 C712 0.960 . S
H698 C712 0.960 . S
H699 C712 0.960 . S
C700 H692 0.929 . S
C700 C701 1.377 . S
C700 C702 1.384 . S
C701 C700 1.377 . S
C701 C707 1.390 . S
C702 H693 0.930 . S
C702 C700 1.384 . S
C702 C703 1.372 . S
C703 C702 1.372 . S
C703 C704 1.400 . S
C703 C708 1.490 . S
C704 H694 0.930 . S
C704 C703 1.400 . S
C704 C707 1.386 . S
H705 C721 0.930 . S
H706 C722 0.931 . S
C707 H695 0.929 . S
C707 C701 1.390 . S
C707 C704 1.386 . S
C708 C703 1.490 . S
C708 C710 1.395 . S
C708 C711 1.403 . S
H709 C715 0.930 1_655 S
C710 H696 0.930 . S
C710 C708 1.395 . S
C710 C713 1.403 . S
C711 C708 1.403 . S
C711 C712 1.524 . S
C711 C715 1.400 . S
C712 H697 0.960 . S
C712 H698 0.960 . S
C712 H699 0.960 . S
C712 C711 1.524 . S
C713 C710 1.403 . S
C713 C714 1.392 . S
C713 C717 1.495 . S
C714 C713 1.392 . S
C714 C715 1.385 . S
C714 C716 1.478 1_455 S
C715 H709 0.930 1_455 S
C715 C711 1.400 . S
C715 C714 1.385 . S
C716 C714 1.478 1_655 S
C716 C718 1.381 1_655 S
C716 C722 1.383 . S
C717 C713 1.495 . S
C717 H723 0.959 . S
C717 H724 0.961 . S
C717 H725 0.960 . S
C718 C716 1.381 1_455 S
C718 C719 1.394 1_455 S
C718 H726 0.930 . S
C719 C718 1.394 1_655 S
C719 C720 1.383 . S
C719 H727 0.929 . S
C720 C719 1.383 . S
C720 C721 1.377 . S
C721 H705 0.930 . S
C721 C720 1.377 . S
C721 C722 1.379 . S
C722 H706 0.931 . S
C722 C716 1.383 . S
C722 C721 1.379 . S
H723 C717 0.959 . S
H724 C717 0.961 . S
H725 C717 0.960 . S
H726 C718 0.930 . S
H727 C719 0.929 . S
C161 C27 1.860 . S
C180 C6 1.859 1_655 S
C197 C65 1.860 1_455 S
C216 C44 1.860 . S
C233 C103 1.860 . S
C252 C82 1.860 1_655 S
C269 C141 1.859 1_455 S
C288 C120 1.852 . S
C305 C68 1.582 . S
C324 C1 1.576 . S
C341 C144 1.581 . S
C360 C77 1.581 . S
C377 C30 1.581 . S
C396 C39 1.575 . S
C413 C115 1.581 . S
C432 C106 1.581 . S
C449 C122 1.084 . S
C468 C18 1.091 . S
C485 C46 1.087 . S
C504 C94 1.078 . S
C521 C105 1.072 . S
C540 C52 1.080 . S
C557 C29 1.069 . S
C576 C128 1.095 . S
C593 C84 1.089 . S
C612 C56 1.074 . S
C629 C132 1.107 . S
C648 C8 1.118 . S
C665 C14 1.122 . S
C684 C143 1.076 . S
C701 C90 1.107 . S
C720 C67 1.071 . S
