# Generated by pormake.
# Topology fnd, (5)-cn, num edge types: 1
# Building blocks:
#     Node 0, Type 0, BuildingBlock: XOMCOT_clean_sbu_1, # of connection points: 5
#     Node 1, Type 0, BuildingBlock: XOMCOT_clean_sbu_1, # of connection points: 5
#     Node 2, Type 0, BuildingBlock: XOMCOT_clean_sbu_1, # of connection points: 5
#     Node 3, Type 0, BuildingBlock: XOMCOT_clean_sbu_1, # of connection points: 5
#     Node 4, Type 0, BuildingBlock: XOMCOT_clean_sbu_1, # of connection points: 5
#     Node 5, Type 0, BuildingBlock: XOMCOT_clean_sbu_1, # of connection points: 5
#     Node 6, Type 0, BuildingBlock: XOMCOT_clean_sbu_1, # of connection points: 5
#     Node 7, Type 0, BuildingBlock: XOMCOT_clean_sbu_1, # of connection points: 5
#     Node 8, Type 0, BuildingBlock: XOMCOT_clean_sbu_1, # of connection points: 5
#     Node 9, Type 0, BuildingBlock: XOMCOT_clean_sbu_1, # of connection points: 5
#     Node 10, Type 0, BuildingBlock: XOMCOT_clean_sbu_1, # of connection points: 5
#     Node 11, Type 0, BuildingBlock: XOMCOT_clean_sbu_1, # of connection points: 5
#     Node 12, Type 0, BuildingBlock: XOMCOT_clean_sbu_1, # of connection points: 5
#     Node 13, Type 0, BuildingBlock: XOMCOT_clean_sbu_1, # of connection points: 5
#     Node 14, Type 0, BuildingBlock: XOMCOT_clean_sbu_1, # of connection points: 5
#     Node 15, Type 0, BuildingBlock: XOMCOT_clean_sbu_1, # of connection points: 5
#     Node 16, Type 0, BuildingBlock: XOMCOT_clean_sbu_1, # of connection points: 5
#     Node 17, Type 0, BuildingBlock: XOMCOT_clean_sbu_1, # of connection points: 5
#     Edge 18, Type (0, 0), None
#     Edge 19, Type (0, 0), None
#     Edge 20, Type (0, 0), None
#     Edge 21, Type (0, 0), None
#     Edge 22, Type (0, 0), None
#     Edge 23, Type (0, 0), None
#     Edge 24, Type (0, 0), None
#     Edge 25, Type (0, 0), None
#     Edge 26, Type (0, 0), None
#     Edge 27, Type (0, 0), None
#     Edge 28, Type (0, 0), None
#     Edge 29, Type (0, 0), None
#     Edge 30, Type (0, 0), None
#     Edge 31, Type (0, 0), None
#     Edge 32, Type (0, 0), None
#     Edge 33, Type (0, 0), None
#     Edge 34, Type (0, 0), None
#     Edge 35, Type (0, 0), None
#     Edge 36, Type (0, 0), None
#     Edge 37, Type (0, 0), None
#     Edge 38, Type (0, 0), None
#     Edge 39, Type (0, 0), None
#     Edge 40, Type (0, 0), None
#     Edge 41, Type (0, 0), None
#     Edge 42, Type (0, 0), None
#     Edge 43, Type (0, 0), None
#     Edge 44, Type (0, 0), None
#     Edge 45, Type (0, 0), None
#     Edge 46, Type (0, 0), None
#     Edge 47, Type (0, 0), None
#     Edge 48, Type (0, 0), None
#     Edge 49, Type (0, 0), None
#     Edge 50, Type (0, 0), None
#     Edge 51, Type (0, 0), None
#     Edge 52, Type (0, 0), None
#     Edge 53, Type (0, 0), None
#     Edge 54, Type (0, 0), None
#     Edge 55, Type (0, 0), None
#     Edge 56, Type (0, 0), None
#     Edge 57, Type (0, 0), None
#     Edge 58, Type (0, 0), None
#     Edge 59, Type (0, 0), None
#     Edge 60, Type (0, 0), None
#     Edge 61, Type (0, 0), None
#     Edge 62, Type (0, 0), None
# Relax obj value: 0.040
# Max RMSD: 0.084
# Mean RMSD: 0.084
data_MOF--net-fnd--node1-XOMCOT_clean_sbu_1--edge1-none
_symmetry_space_group_name_H-M    P1
_symmetry_Int_Tables_number       1
_symmetry_cell_setting            triclinic
loop_
_symmetry_equiv_pos_as_xyz
'x, y, z'
_cell_length_a     40.326034
_cell_length_b     40.326793
_cell_length_c     9.3678237
_cell_angle_alpha  90.006792
_cell_angle_beta   89.987132
_cell_angle_gamma 120.00068
loop_
_atom_site_label
_atom_site_type_symbol
_atom_site_fract_x
_atom_site_fract_y
_atom_site_fract_z
_atom_type_partial_charge
C0 C 0.18359 0.28037 0.67905 0.0
C1 C 0.18109 0.27992 0.82614 0.0
N2 N 0.14708 0.27641 0.86101 0.0
N3 N 0.15116 0.27679 0.62242 0.0
C4 C 0.12984 0.27527 0.73651 0.0
H5 H 0.20636 0.28056 0.61736 0.0
Co6 Co 0.13617 0.26711 0.42986 0.0
C7 C 0.05332 0.21119 0.47453 0.0
O8 O 0.05608 0.1873 0.38672 0.0
N9 N 0.12197 0.25932 0.23465 0.0
C10 C 0.09335 0.25756 0.02832 0.0
C11 C 0.0888 0.25286 0.17393 0.0
C12 C 0.14669 0.26958 0.12324 0.0
N13 N 0.12983 0.26805 0.99746 0.0
O14 O 0.14316 0.31809 0.41098 0.0
H15 H 0.06355 0.248 0.23118 0.0
H16 H 0.17706 0.28039 0.13461 0.0
O17 O 0.08215 0.24468 0.49324 0.0
C18 C 0.17836 0.33771 0.37477 0.0
O19 O 0.19862 0.32039 0.37223 0.0
N20 N 0.13453 0.21878 0.44514 0.0
C21 C 0.15532 0.16327 0.5025 0.0
C22 C 0.13037 0.1679 0.59377 0.0
C23 C 0.12004 0.19557 0.56262 0.0
C24 C 0.15761 0.21323 0.35318 0.0
C25 C 0.16751 0.18516 0.37779 0.0
H26 H 0.10314 0.20049 0.64011 0.0
H27 H 0.17186 0.23277 0.26728 0.0
H28 H 0.10128 0.2711 0.72919 0.0
H29 H 0.2015 0.27973 0.90055 0.0
H30 H 0.07202 0.25506 0.95263 0.0
H31 H 0.12097 0.15207 0.693 0.0
H32 H 0.18792 0.1835 0.30714 0.0
C33 C 0.78211 0.91592 0.67921 0.0
C34 C 0.78256 0.91387 0.8263 0.0
N35 N 0.78606 0.88338 0.86111 0.0
N36 N 0.78569 0.88707 0.62254 0.0
C37 C 0.7872 0.86727 0.73659 0.0
H38 H 0.78193 0.93851 0.61756 0.0
Co39 Co 0.79536 0.88176 0.42995 0.0
C40 C 0.85127 0.85483 0.47455 0.0
O41 O 0.87517 0.88147 0.38675 0.0
N42 N 0.80315 0.87535 0.23472 0.0
C43 C 0.80491 0.8485 0.02835 0.0
C44 C 0.80962 0.84864 0.17395 0.0
C45 C 0.79288 0.8898 0.12335 0.0
N46 N 0.79441 0.87447 0.99754 0.0
O47 O 0.74437 0.83777 0.41107 0.0
H48 H 0.81449 0.82827 0.23116 0.0
H49 H 0.78207 0.90936 0.13477 0.0
O50 O 0.81779 0.85017 0.49326 0.0
C51 C 0.72476 0.85336 0.37491 0.0
O52 O 0.74209 0.89094 0.37243 0.0
N53 N 0.8437 0.92845 0.44522 0.0
C54 C 0.89922 1.00476 0.50255 0.0
C55 C 0.89458 0.97517 0.59382 0.0
C56 C 0.8669 0.93717 0.56268 0.0
C57 C 0.84925 0.95707 0.35326 0.0
C58 C 0.87732 0.99504 0.37786 0.0
H59 H 0.86198 0.91536 0.64017 0.0
H60 H 0.82971 0.95178 0.26738 0.0
H61 H 0.79136 0.84288 0.72923 0.0
H62 H 0.78275 0.93447 0.90075 0.0
H63 H 0.80742 0.82967 0.95262 0.0
H64 H 0.91041 0.98161 0.69304 0.0
H65 H 0.87899 1.01711 0.30722 0.0
C66 C 0.14654 0.87891 0.67914 0.0
C67 C 0.1486 0.88141 0.82624 0.0
N68 N 0.1791 0.91541 0.86105 0.0
N69 N 0.17539 0.91134 0.62247 0.0
C70 C 0.1952 0.93265 0.73652 0.0
H71 H 0.12395 0.85615 0.6175 0.0
Co72 Co 0.18071 0.92632 0.4299 0.0
C73 C 0.20764 1.00917 0.47456 0.0
O74 O 0.181 1.00642 0.38679 0.0
N75 N 0.18713 0.94052 0.23468 0.0
C76 C 0.21398 0.96914 0.02831 0.0
C77 C 0.21384 0.9737 0.17391 0.0
C78 C 0.17268 0.9158 0.1233 0.0
N79 N 0.18801 0.93266 0.99749 0.0
O80 O 0.2247 0.91933 0.41101 0.0
H81 H 0.23421 0.99894 0.23113 0.0
H82 H 0.15313 0.88543 0.1347 0.0
O83 O 0.21231 0.98034 0.49325 0.0
C84 C 0.20911 0.88412 0.37487 0.0
O85 O 0.17153 0.86387 0.37236 0.0
N86 N 0.13402 0.92797 0.44519 0.0
C87 C 0.05771 0.90718 0.50251 0.0
C88 C 0.08729 0.93213 0.5938 0.0
C89 C 0.1253 0.94245 0.56266 0.0
C90 C 0.1054 0.9049 0.35321 0.0
C91 C 0.06743 0.895 0.3778 0.0
H92 H 0.1471 0.95934 0.64017 0.0
H93 H 0.1107 0.89065 0.26732 0.0
H94 H 0.2196 0.9612 0.72917 0.0
H95 H 0.12799 0.861 0.90069 0.0
H96 H 0.2328 0.99048 0.95258 0.0
H97 H 0.08084 0.94151 0.69303 0.0
H98 H 0.04537 0.8746 0.30715 0.0
C99 C 0.29273 0.17124 0.37318 0.0
C100 C 0.29228 0.16874 0.22608 0.0
N101 N 0.28877 0.13474 0.19123 0.0
N102 N 0.28915 0.13881 0.42982 0.0
C103 C 0.28762 0.11749 0.31574 0.0
H104 H 0.29292 0.19401 0.43485 0.0
Co105 Co 0.27947 0.12382 0.62239 0.0
C106 C 0.22355 0.04098 0.5778 0.0
O107 O 0.19965 0.04372 0.66559 0.0
N108 N 0.27167 0.10962 0.81761 0.0
C109 C 0.26992 0.08101 1.02395 0.0
C110 C 0.26522 0.07645 0.87835 0.0
C111 C 0.28194 0.13434 0.929 0.0
N112 N 0.28041 0.11748 0.05479 0.0
O113 O 0.33045 0.13081 0.64127 0.0
H114 H 0.26036 0.05121 0.82111 0.0
H115 H 0.29274 0.16471 0.91761 0.0
O116 O 0.25704 0.0698 0.55904 0.0
C117 C 0.35006 0.16602 0.67746 0.0
O118 O 0.33274 0.18627 0.67998 0.0
N119 N 0.23113 0.12218 0.60711 0.0
C120 C 0.17563 0.14297 0.54975 0.0
C121 C 0.18026 0.11801 0.45849 0.0
C122 C 0.20793 0.10768 0.48965 0.0
C123 C 0.22558 0.14526 0.69906 0.0
C124 C 0.19751 0.15516 0.67445 0.0
H125 H 0.21285 0.09079 0.41217 0.0
H126 H 0.24512 0.15951 0.78495 0.0
H127 H 0.28346 0.08894 0.32307 0.0
H128 H 0.29209 0.18915 0.15166 0.0
H129 H 0.26742 0.05967 0.09965 0.0
H130 H 0.16443 0.10862 0.35927 0.0
H131 H 0.19585 0.17557 0.74509 0.0
C132 C 0.89125 0.13419 0.37323 0.0
C133 C 0.89375 0.13624 0.22613 0.0
N134 N 0.92775 0.16674 0.19129 0.0
N135 N 0.92368 0.16304 0.42987 0.0
C136 C 0.945 0.18284 0.3158 0.0
H137 H 0.86848 0.1116 0.43489 0.0
Co138 Co 0.93866 0.16835 0.62243 0.0
C139 C 1.02151 0.19528 0.57777 0.0
O140 O 1.01877 0.16863 0.66553 0.0
N141 N 0.95286 0.17477 0.81764 0.0
C142 C 0.98148 0.20162 1.02398 0.0
C143 C 0.98604 0.20148 0.87837 0.0
C144 C 0.92814 0.16032 0.92904 0.0
N145 N 0.94501 0.17565 0.05483 0.0
O146 O 0.93167 0.21234 0.64131 0.0
H147 H 1.01128 0.22185 0.82114 0.0
H148 H 0.89777 0.14075 0.91766 0.0
O149 O 0.99269 0.19994 0.55905 0.0
C150 C 0.89647 0.19676 0.67749 0.0
O151 O 0.87621 0.15918 0.68003 0.0
N152 N 0.94031 0.12166 0.60714 0.0
C153 C 0.91952 0.04536 0.54979 0.0
C154 C 0.94448 0.07494 0.45851 0.0
C155 C 0.9548 0.11295 0.48966 0.0
C156 C 0.91723 0.09304 0.69911 0.0
C157 C 0.90733 0.05507 0.67451 0.0
H158 H 0.9717 0.13476 0.41216 0.0
H159 H 0.90298 0.09834 0.78501 0.0
H160 H 0.97355 0.20723 0.32312 0.0
H161 H 0.87334 0.11564 0.1517 0.0
H162 H 1.00282 0.22045 0.09969 0.0
H163 H 0.95387 0.0685 0.35928 0.0
H164 H 0.88692 0.033 0.74516 0.0
C165 C 0.92828 0.76977 0.37307 0.0
C166 C 0.92623 0.77022 0.22598 0.0
N167 N 0.89573 0.77371 0.19119 0.0
N168 N 0.89943 0.77335 0.42976 0.0
C169 C 0.87963 0.77486 0.31572 0.0
H170 H 0.95087 0.76959 0.43471 0.0
Co171 Co 0.89411 0.78301 0.62235 0.0
C172 C 0.86718 0.83892 0.57778 0.0
O173 O 0.89382 0.86283 0.66554 0.0
N174 N 0.8877 0.7908 0.81758 0.0
C175 C 0.86084 0.79255 1.02397 0.0
C176 C 0.86098 0.79726 0.87836 0.0
C177 C 0.90215 0.78052 0.92894 0.0
N178 N 0.88682 0.78206 0.05476 0.0
O179 O 0.85012 0.73203 0.64123 0.0
H180 H 0.84061 0.80213 0.82116 0.0
H181 H 0.92171 0.76971 0.91752 0.0
O182 O 0.86252 0.80544 0.55904 0.0
C183 C 0.86571 0.71241 0.67736 0.0
O184 O 0.90329 0.72974 0.67985 0.0
N185 N 0.9408 0.83135 0.60707 0.0
C186 C 1.01711 0.88687 0.54975 0.0
C187 C 0.98752 0.88224 0.45848 0.0
C188 C 0.94952 0.85456 0.48961 0.0
C189 C 0.96942 0.8369 0.69903 0.0
C190 C 1.00739 0.86498 0.67444 0.0
H191 H 0.92771 0.84964 0.41212 0.0
H192 H 0.96412 0.81735 0.7849 0.0
H193 H 0.85523 0.77901 0.32309 0.0
H194 H 0.94683 0.77041 0.15153 0.0
H195 H 0.84201 0.79507 0.0997 0.0
H196 H 0.99397 0.89808 0.35925 0.0
H197 H 1.02946 0.86664 0.74508 0.0
C198 C 0.85025 0.6137 1.01239 0.0
C199 C 0.84775 0.61325 0.15948 0.0
N200 N 0.81375 0.60974 0.19435 0.0
N201 N 0.81782 0.61012 0.95576 0.0
C202 C 0.79651 0.6086 0.06984 0.0
H203 H 0.87302 0.61388 0.9507 0.0
Co204 Co 0.80284 0.60044 0.7632 0.0
C205 C 0.71999 0.54452 0.80787 0.0
O206 O 0.72274 0.52063 0.72006 0.0
N207 N 0.78864 0.59265 0.56799 0.0
C208 C 0.76002 0.59089 0.36166 0.0
C209 C 0.75546 0.58619 0.50726 0.0
C210 C 0.81336 0.60292 0.45658 0.0
N211 N 0.79649 0.60139 0.3308 0.0
O212 O 0.80983 0.65142 0.74432 0.0
H213 H 0.73022 0.58133 0.56451 0.0
H214 H 0.84373 0.61372 0.46795 0.0
O215 O 0.74881 0.57801 0.82658 0.0
C216 C 0.84503 0.67104 0.70814 0.0
O217 O 0.86529 0.65372 0.70558 0.0
N218 N 0.80119 0.55211 0.77848 0.0
C219 C 0.82198 0.49659 0.83583 0.0
C220 C 0.79703 0.50123 0.9271 0.0
C221 C 0.7867 0.5289 0.89595 0.0
C222 C 0.82427 0.54656 0.68651 0.0
C223 C 0.83417 0.51849 0.71112 0.0
H224 H 0.7698 0.53382 0.97345 0.0
H225 H 0.83852 0.5661 0.60061 0.0
H226 H 0.76795 0.60444 0.06253 0.0
H227 H 0.86817 0.61306 0.23389 0.0
H228 H 0.73869 0.58839 0.28597 0.0
H229 H 0.78764 0.4854 0.02634 0.0
H230 H 0.85458 0.51682 0.64047 0.0
C231 C 0.44877 0.24926 1.01254 0.0
C232 C 0.44923 0.24721 0.15963 0.0
N233 N 0.45273 0.21671 0.19445 0.0
N234 N 0.45236 0.22041 0.95587 0.0
C235 C 0.45387 0.20061 0.06992 0.0
H236 H 0.44859 0.27184 0.95089 0.0
Co237 Co 0.46203 0.2151 0.76328 0.0
C238 C 0.51794 0.18816 0.80788 0.0
O239 O 0.54184 0.21481 0.72009 0.0
N240 N 0.46982 0.20869 0.56805 0.0
C241 C 0.47158 0.18183 0.36168 0.0
C242 C 0.47629 0.18198 0.50728 0.0
C243 C 0.45955 0.22314 0.45668 0.0
N244 N 0.46108 0.20781 0.33087 0.0
O245 O 0.41104 0.17111 0.7444 0.0
H246 H 0.48116 0.16161 0.56449 0.0
H247 H 0.44874 0.2427 0.4681 0.0
O248 O 0.48446 0.1835 0.82659 0.0
C249 C 0.39143 0.1867 0.70827 0.0
O250 O 0.40876 0.22428 0.70577 0.0
N251 N 0.51037 0.26178 0.77855 0.0
C252 C 0.56589 0.33809 0.83588 0.0
C253 C 0.56125 0.30851 0.92715 0.0
C254 C 0.53357 0.2705 0.89601 0.0
C255 C 0.51592 0.29041 0.68659 0.0
C256 C 0.54399 0.32838 0.71119 0.0
H257 H 0.52865 0.24869 0.9735 0.0
H258 H 0.49638 0.28511 0.60071 0.0
H259 H 0.45803 0.17621 0.06256 0.0
H260 H 0.44941 0.26781 0.23408 0.0
H261 H 0.47409 0.16301 0.28595 0.0
H262 H 0.57708 0.31495 0.02637 0.0
H263 H 0.54566 0.35045 0.64055 0.0
C264 C 0.81321 0.21224 1.01249 0.0
C265 C 0.81526 0.21473 0.15958 0.0
N266 N 0.84576 0.24873 0.19439 0.0
N267 N 0.84206 0.24466 0.95581 0.0
C268 C 0.86186 0.26598 0.06986 0.0
H269 H 0.79062 0.18947 0.95084 0.0
Co270 Co 0.84738 0.25964 0.76324 0.0
C271 C 0.87431 0.34249 0.80789 0.0
O272 O 0.84766 0.33974 0.72011 0.0
N273 N 0.8538 0.27384 0.56803 0.0
C274 C 0.88065 0.30246 0.36165 0.0
C275 C 0.88051 0.30702 0.50726 0.0
C276 C 0.83935 0.24912 0.45664 0.0
N277 N 0.85468 0.26599 0.33083 0.0
O278 O 0.89137 0.25265 0.74436 0.0
H279 H 0.90087 0.33227 0.56447 0.0
H280 H 0.81979 0.21875 0.46804 0.0
O281 O 0.87897 0.31367 0.82659 0.0
C282 C 0.87578 0.21745 0.70824 0.0
O283 O 0.8382 0.19719 0.70571 0.0
N284 N 0.80069 0.26129 0.77852 0.0
C285 C 0.72437 0.24051 0.83584 0.0
C286 C 0.75396 0.26545 0.92712 0.0
C287 C 0.79196 0.27578 0.89599 0.0
C288 C 0.77207 0.23822 0.68655 0.0
C289 C 0.7341 0.22832 0.71113 0.0
H290 H 0.81377 0.29267 0.9735 0.0
H291 H 0.77737 0.22397 0.60066 0.0
H292 H 0.88626 0.29453 0.06251 0.0
H293 H 0.79466 0.19432 0.23403 0.0
H294 H 0.89947 0.3238 0.28592 0.0
H295 H 0.74751 0.27484 0.02636 0.0
H296 H 0.71203 0.20792 0.64048 0.0
C297 C 0.95939 0.50456 0.70651 0.0
C298 C 0.95894 0.50206 0.55942 0.0
N299 N 0.95542 0.46806 0.52457 0.0
N300 N 0.9558 0.47213 0.76315 0.0
C301 C 0.95428 0.45082 0.64908 0.0
H302 H 0.95957 0.52733 0.76819 0.0
Co303 Co 0.94613 0.45715 0.95573 0.0
C304 C 0.89021 0.3743 0.91113 0.0
O305 O 0.8663 0.37704 0.99891 0.0
N306 N 0.93833 0.44295 0.15094 0.0
C307 C 0.93658 0.41433 0.35729 0.0
C308 C 0.93187 0.40977 0.21169 0.0
C309 C 0.94859 0.46767 0.26234 0.0
N310 N 0.94707 0.4508 0.38813 0.0
O311 O 0.99711 0.46414 0.9746 0.0
H312 H 0.92701 0.38453 0.15445 0.0
H313 H 0.9594 0.49804 0.25095 0.0
O314 O 0.9237 0.40312 0.89238 0.0
C315 C 1.01672 0.49934 1.0108 0.0
O316 O 0.9994 0.5196 1.01331 0.0
N317 N 0.89779 0.4555 0.94045 0.0
C318 C 0.84228 0.4763 0.88308 0.0
C319 C 0.84692 0.45134 0.79182 0.0
C320 C 0.87459 0.44101 0.82298 0.0
C321 C 0.89224 0.47858 0.0324 0.0
C322 C 0.86417 0.48848 1.00779 0.0
H323 H 0.87951 0.42411 0.7455 0.0
H324 H 0.91178 0.49283 0.11829 0.0
H325 H 0.95012 0.42226 0.6564 0.0
H326 H 0.95875 0.52248 0.485 0.0
H327 H 0.93408 0.393 0.43299 0.0
H328 H 0.83109 0.44195 0.6926 0.0
H329 H 0.86251 0.50889 0.07842 0.0
C330 C 0.55792 0.46753 0.70656 0.0
C331 C 0.56042 0.46958 0.55947 0.0
N332 N 0.59442 0.50007 0.52462 0.0
N333 N 0.59035 0.49637 0.7632 0.0
C334 C 0.61166 0.51617 0.64913 0.0
H335 H 0.53515 0.44494 0.76823 0.0
Co336 Co 0.60533 0.50169 0.95576 0.0
C337 C 0.68818 0.52862 0.91111 0.0
O338 O 0.68543 0.50197 0.99888 0.0
N339 N 0.61953 0.5081 0.15097 0.0
C340 C 0.64815 0.53496 0.35732 0.0
C341 C 0.6527 0.53482 0.21171 0.0
C342 C 0.59481 0.49365 0.26238 0.0
N343 N 0.61167 0.50898 0.38817 0.0
O344 O 0.59834 0.54568 0.97465 0.0
H345 H 0.67795 0.55519 0.15447 0.0
H346 H 0.56444 0.47409 0.251 0.0
O347 O 0.65935 0.53328 0.89239 0.0
C348 C 0.56313 0.5301 1.01083 0.0
O349 O 0.54288 0.49252 1.01337 0.0
N350 N 0.60698 0.455 0.94047 0.0
C351 C 0.58618 0.3787 0.88313 0.0
C352 C 0.61114 0.40828 0.79185 0.0
C353 C 0.62147 0.44628 0.823 0.0
C354 C 0.5839 0.42638 0.03244 0.0
C355 C 0.574 0.38841 1.00784 0.0
H356 H 0.63836 0.46809 0.7455 0.0
H357 H 0.56964 0.43167 0.11834 0.0
H358 H 0.64021 0.54057 0.65646 0.0
H359 H 0.54 0.44897 0.48504 0.0
H360 H 0.66948 0.55378 0.43302 0.0
H361 H 0.62053 0.40184 0.69261 0.0
H362 H 0.55359 0.36633 0.07849 0.0
C363 C 0.59494 0.1031 0.7064 0.0
C364 C 0.59289 0.10354 0.55931 0.0
N365 N 0.56239 0.10704 0.52451 0.0
N366 N 0.56609 0.10668 0.76309 0.0
C367 C 0.54629 0.10819 0.64905 0.0
H368 H 0.61753 0.10292 0.76803 0.0
Co369 Co 0.56077 0.11634 0.95567 0.0
C370 C 0.53384 0.17226 0.91111 0.0
O371 O 0.56049 0.19616 0.99888 0.0
N372 N 0.55436 0.12412 0.1509 0.0
C373 C 0.5275 0.12588 0.35729 0.0
C374 C 0.52765 0.13059 0.21168 0.0
C375 C 0.56881 0.11385 0.26227 0.0
N376 N 0.55348 0.11539 0.38808 0.0
O377 O 0.51678 0.06536 0.97455 0.0
H378 H 0.50727 0.13546 0.15448 0.0
H379 H 0.58837 0.10304 0.25084 0.0
O380 O 0.52918 0.13877 0.89236 0.0
C381 C 0.53237 0.04574 1.01068 0.0
O382 O 0.56995 0.06307 1.01317 0.0
N383 N 0.60746 0.16468 0.94039 0.0
C384 C 0.68377 0.2202 0.88307 0.0
C385 C 0.65419 0.21557 0.7918 0.0
C386 C 0.61619 0.18789 0.82294 0.0
C387 C 0.63608 0.17023 0.03235 0.0
C388 C 0.67405 0.1983 1.00777 0.0
H389 H 0.59438 0.18297 0.74545 0.0
H390 H 0.63079 0.15068 0.11823 0.0
H391 H 0.52189 0.11234 0.65642 0.0
H392 H 0.61349 0.10373 0.48485 0.0
H393 H 0.50868 0.1284 0.43302 0.0
H394 H 0.66064 0.2314 0.69258 0.0
H395 H 0.69612 0.19997 0.07841 0.0
C396 C 0.51691 0.94703 0.3457 0.0
C397 C 0.51441 0.94658 0.4928 0.0
N398 N 0.48041 0.94307 0.52766 0.0
N399 N 0.48448 0.94345 0.28908 0.0
C400 C 0.46317 0.94193 0.40316 0.0
H401 H 0.53968 0.94722 0.28402 0.0
Co402 Co 0.4695 0.93377 0.09652 0.0
C403 C 0.38665 0.87785 0.14119 0.0
O404 O 0.3894 0.85396 0.05338 0.0
N405 N 0.4553 0.92598 0.90131 0.0
C406 C 0.42668 0.92422 0.69498 0.0
C407 C 0.42212 0.91952 0.84058 0.0
C408 C 0.48002 0.93625 0.7899 0.0
N409 N 0.46315 0.93471 0.66412 0.0
O410 O 0.47649 0.98475 0.07764 0.0
H411 H 0.39688 0.91465 0.89783 0.0
H412 H 0.51039 0.94705 0.80127 0.0
O413 O 0.41547 0.91134 0.1599 0.0
C414 C 0.51169 1.00437 0.04145 0.0
O415 O 0.53195 0.98705 0.03889 0.0
N416 N 0.46785 0.88544 0.1118 0.0
C417 C 0.48865 0.82993 0.16916 0.0
C418 C 0.46369 0.83456 0.26043 0.0
C419 C 0.45336 0.86224 0.22927 0.0
C420 C 0.49093 0.87989 1.01983 0.0
C421 C 0.50084 0.85182 0.04444 0.0
H422 H 0.43647 0.86715 0.30677 0.0
H423 H 0.50518 0.89943 0.93393 0.0
H424 H 0.43461 0.93776 0.39585 0.0
H425 H 0.53483 0.94639 0.56721 0.0
H426 H 0.40535 0.92172 0.61928 0.0
H427 H 0.4543 0.81874 0.35966 0.0
H428 H 0.52125 0.85016 0.9738 0.0
C429 C 0.11543 0.58258 0.34587 0.0
C430 C 0.11588 0.58053 0.49297 0.0
N431 N 0.11939 0.55004 0.52778 0.0
N432 N 0.11901 0.55374 0.2892 0.0
C433 C 0.12053 0.53394 0.40325 0.0
H434 H 0.11525 0.60517 0.28423 0.0
Co435 Co 0.12869 0.54843 0.09661 0.0
C436 C 0.18461 0.5215 0.14121 0.0
O437 O 0.2085 0.54814 0.05341 0.0
N438 N 0.13648 0.54202 0.90139 0.0
C439 C 0.13824 0.51516 0.69501 0.0
C440 C 0.14294 0.51531 0.84061 0.0
C441 C 0.12621 0.55647 0.79001 0.0
N442 N 0.12774 0.54114 0.66421 0.0
O443 O 0.0777 0.50444 0.07774 0.0
H444 H 0.14782 0.49494 0.89782 0.0
H445 H 0.1154 0.57603 0.80143 0.0
O446 O 0.15112 0.51683 0.15993 0.0
C447 C 0.05809 0.52002 0.0416 0.0
O448 O 0.07541 0.5576 0.0391 0.0
N449 N 0.17702 0.59511 0.11188 0.0
C450 C 0.23254 0.67142 0.1692 0.0
C451 C 0.2279 0.64184 0.26047 0.0
C452 C 0.20023 0.60383 0.22934 0.0
C453 C 0.18258 0.62374 1.01992 0.0
C454 C 0.21065 0.66171 0.04451 0.0
H455 H 0.19531 0.58202 0.30683 0.0
H456 H 0.16303 0.61844 0.93405 0.0
H457 H 0.12469 0.50954 0.3959 0.0
H458 H 0.11607 0.60114 0.56741 0.0
H459 H 0.14075 0.49634 0.61928 0.0
H460 H 0.24373 0.64828 0.3597 0.0
H461 H 0.21231 0.68378 0.97387 0.0
C462 C 0.47988 0.54558 0.34582 0.0
C463 C 0.48193 0.54807 0.49291 0.0
N464 N 0.51243 0.58207 0.52772 0.0
N465 N 0.50872 0.578 0.28915 0.0
C466 C 0.52853 0.59931 0.4032 0.0
H467 H 0.45729 0.52281 0.28417 0.0
Co468 Co 0.51405 0.59298 0.09657 0.0
C469 C 0.54098 0.67583 0.14123 0.0
O470 O 0.51433 0.67308 0.05345 0.0
N471 N 0.52046 0.60718 0.90136 0.0
C472 C 0.54731 0.6358 0.69498 0.0
C473 C 0.54717 0.64036 0.84059 0.0
C474 C 0.50602 0.58246 0.78997 0.0
N475 N 0.52134 0.59933 0.66417 0.0
O476 O 0.55804 0.58599 0.07769 0.0
H477 H 0.56754 0.66561 0.8978 0.0
H478 H 0.48646 0.55209 0.80138 0.0
O479 O 0.54564 0.64701 0.15992 0.0
C480 C 0.54245 0.55078 0.04157 0.0
O481 O 0.50487 0.53053 0.03904 0.0
N482 N 0.46736 0.59463 0.11186 0.0
C483 C 0.39104 0.57385 0.16917 0.0
C484 C 0.42063 0.59879 0.26046 0.0
C485 C 0.45863 0.60912 0.22933 0.0
C486 C 0.43874 0.57156 1.01988 0.0
C487 C 0.40077 0.56167 0.04447 0.0
H488 H 0.48044 0.62601 0.30683 0.0
H489 H 0.44404 0.55731 0.93399 0.0
H490 H 0.55293 0.62786 0.39584 0.0
H491 H 0.46133 0.52766 0.56736 0.0
H492 H 0.56613 0.65714 0.61925 0.0
H493 H 0.41418 0.60818 0.3597 0.0
H494 H 0.3787 0.54126 0.97381 0.0
C495 C 0.62606 0.8379 0.03984 0.0
C496 C 0.62561 0.8354 0.89275 0.0
N497 N 0.6221 0.8014 0.8579 0.0
N498 N 0.62247 0.80547 0.09648 0.0
C499 C 0.62095 0.78416 0.98241 0.0
H500 H 0.62624 0.86067 0.10152 0.0
Co501 Co 0.6128 0.79049 0.28906 0.0
C502 C 0.55688 0.70764 0.24447 0.0
O503 O 0.53298 0.71038 0.33226 0.0
N504 N 0.605 0.77629 0.48427 0.0
C505 C 0.60325 0.74767 0.69062 0.0
C506 C 0.59855 0.74311 0.54501 0.0
C507 C 0.61527 0.80101 0.59567 0.0
N508 N 0.61374 0.78414 0.72146 0.0
O509 O 0.66378 0.79748 0.30793 0.0
H510 H 0.59369 0.71787 0.48778 0.0
H511 H 0.62607 0.83137 0.58428 0.0
O512 O 0.59037 0.73646 0.22571 0.0
C513 C 0.6834 0.83268 0.34411 0.0
O514 O 0.66607 0.85294 0.34664 0.0
N515 N 0.56446 0.78884 0.27378 0.0
C516 C 0.50895 0.80963 0.21641 0.0
C517 C 0.51359 0.78467 0.12516 0.0
C518 C 0.54126 0.77435 0.15632 0.0
C519 C 0.55891 0.81192 0.36573 0.0
C520 C 0.53084 0.82182 0.34112 0.0
H521 H 0.54618 0.75745 0.07884 0.0
H522 H 0.57845 0.82617 0.45162 0.0
H523 H 0.61679 0.7556 0.98973 0.0
H524 H 0.62542 0.85582 0.81833 0.0
H525 H 0.60075 0.72634 0.76632 0.0
H526 H 0.49776 0.77528 1.02593 0.0
H527 H 0.52918 0.84223 0.41175 0.0
C528 C 0.22458 0.80086 0.03987 0.0
C529 C 0.22708 0.80291 0.89278 0.0
N530 N 0.26108 0.83341 0.85793 0.0
N531 N 0.25701 0.82971 0.09651 0.0
C532 C 0.27832 0.84951 0.98244 0.0
H533 H 0.20181 0.77827 0.10154 0.0
Co534 Co 0.27199 0.83502 0.28908 0.0
C535 C 0.35484 0.86195 0.24443 0.0
O536 O 0.35209 0.8353 0.33219 0.0
N537 N 0.28619 0.84144 0.48428 0.0
C538 C 0.31481 0.86829 0.69063 0.0
C539 C 0.31937 0.86815 0.54502 0.0
C540 C 0.26147 0.82699 0.59569 0.0
N541 N 0.27833 0.84232 0.72148 0.0
O542 O 0.265 0.87902 0.30796 0.0
H543 H 0.34461 0.88852 0.48779 0.0
H544 H 0.2311 0.80743 0.58431 0.0
O545 O 0.32602 0.86661 0.2257 0.0
C546 C 0.2298 0.86343 0.34412 0.0
O547 O 0.20954 0.82585 0.34668 0.0
N548 N 0.27363 0.78833 0.27379 0.0
C549 C 0.25284 0.71203 0.21645 0.0
C550 C 0.2778 0.74161 0.12516 0.0
C551 C 0.28812 0.77961 0.15631 0.0
C552 C 0.25056 0.75971 0.36576 0.0
C553 C 0.24065 0.72174 0.34116 0.0
H554 H 0.30502 0.80142 0.07882 0.0
H555 H 0.2363 0.76501 0.45166 0.0
H556 H 0.30688 0.8739 0.98977 0.0
H557 H 0.20666 0.78231 0.81835 0.0
H558 H 0.33615 0.88712 0.76634 0.0
H559 H 0.28719 0.73517 1.02593 0.0
H560 H 0.22025 0.69967 0.41181 0.0
C561 C 0.26161 0.43644 0.03973 0.0
C562 C 0.25956 0.43688 0.89264 0.0
N563 N 0.22906 0.44038 0.85784 0.0
N564 N 0.23276 0.44002 0.09642 0.0
C565 C 0.21296 0.44152 0.98238 0.0
H566 H 0.2842 0.43626 0.10137 0.0
Co567 Co 0.22744 0.44968 0.289 0.0
C568 C 0.20051 0.50559 0.24444 0.0
O569 O 0.22715 0.5295 0.3322 0.0
N570 N 0.22103 0.45746 0.48423 0.0
C571 C 0.19417 0.45922 0.69062 0.0
C572 C 0.19431 0.46393 0.54502 0.0
C573 C 0.23548 0.44719 0.5956 0.0
N574 N 0.22015 0.44873 0.72142 0.0
O575 O 0.18345 0.39869 0.30788 0.0
H576 H 0.17394 0.4688 0.48782 0.0
H577 H 0.25504 0.43638 0.58418 0.0
O578 O 0.19585 0.47211 0.2257 0.0
C579 C 0.19904 0.37908 0.344 0.0
O580 O 0.23662 0.39641 0.3465 0.0
N581 N 0.27413 0.49802 0.27373 0.0
C582 C 0.35044 0.55354 0.21641 0.0
C583 C 0.32086 0.54891 0.12513 0.0
C584 C 0.28285 0.52123 0.15627 0.0
C585 C 0.30275 0.50357 0.36569 0.0
C586 C 0.34072 0.53164 0.34111 0.0
H587 H 0.26104 0.51631 0.07878 0.0
H588 H 0.29745 0.48402 0.45157 0.0
H589 H 0.18856 0.44568 0.98975 0.0
H590 H 0.28016 0.43707 0.81818 0.0
H591 H 0.17535 0.46174 0.76636 0.0
H592 H 0.3273 0.56474 1.02591 0.0
H593 H 0.36279 0.53331 0.41175 0.0
loop_
_geom_bond_atom_site_label_1
_geom_bond_atom_site_label_2
_geom_bond_distance
_geom_bond_site_symmetry_2
_ccdc_geom_bond_type
C0 C1 1.351 . S
C0 N3 1.368 . S
C0 H5 0.931 . S
C1 C0 1.351 . S
C1 N2 1.373 . S
C1 H29 0.930 . S
N2 C1 1.373 . S
N2 C4 1.340 . S
N3 C0 1.368 . S
N3 C4 1.321 . S
N3 Co6 2.135 . S
C4 N2 1.340 . S
C4 N3 1.321 . S
C4 H28 0.930 . S
H5 C0 0.931 . S
Co6 N3 2.135 . S
Co6 N9 2.121 . S
Co6 O14 2.055 . S
Co6 O17 2.039 . S
Co6 N20 2.140 . S
C7 O8 1.227 . S
C7 O17 1.265 . S
O8 C7 1.227 . S
N9 Co6 2.121 . S
N9 C11 1.375 . S
N9 C12 1.313 . S
C10 C11 1.338 . S
C10 N13 1.377 . S
C10 H30 0.930 1_554 S
C11 N9 1.375 . S
C11 C10 1.338 . S
C11 H15 0.931 . S
C12 N9 1.313 . S
C12 N13 1.344 . S
C12 H16 0.930 . S
N13 C10 1.377 . S
N13 C12 1.344 . S
O14 Co6 2.055 . S
O14 C18 1.253 . S
H15 C11 0.931 . S
H16 C12 0.930 . S
O17 Co6 2.039 . S
O17 C7 1.265 . S
C18 O14 1.253 . S
C18 O19 1.227 . S
O19 C18 1.227 . S
N20 Co6 2.140 . S
N20 C23 1.346 . S
N20 C24 1.345 . S
C21 C22 1.387 . S
C21 C25 1.391 . S
C22 C21 1.387 . S
C22 C23 1.369 . S
C22 H31 0.929 . S
C23 N20 1.346 . S
C23 C22 1.369 . S
C23 H26 0.928 . S
C24 N20 1.345 . S
C24 C25 1.371 . S
C24 H27 0.931 . S
C25 C21 1.391 . S
C25 C24 1.371 . S
C25 H32 0.930 . S
H26 C23 0.928 . S
H27 C24 0.931 . S
H28 C4 0.930 . S
H29 C1 0.930 . S
H30 C10 0.930 1_556 S
H31 C22 0.929 . S
H32 C25 0.930 . S
C33 C34 1.351 . S
C33 N36 1.368 . S
C33 H38 0.931 . S
C34 C33 1.351 . S
C34 N35 1.373 . S
C34 H62 0.930 . S
N35 C34 1.373 . S
N35 C37 1.340 . S
N36 C33 1.368 . S
N36 C37 1.321 . S
N36 Co39 2.135 . S
C37 N35 1.340 . S
C37 N36 1.321 . S
C37 H61 0.930 . S
H38 C33 0.931 . S
Co39 N36 2.135 . S
Co39 N42 2.121 . S
Co39 O47 2.055 . S
Co39 O50 2.039 . S
Co39 N53 2.140 . S
C40 O41 1.227 . S
C40 O50 1.265 . S
O41 C40 1.227 . S
N42 Co39 2.121 . S
N42 C44 1.375 . S
N42 C45 1.313 . S
C43 C44 1.338 . S
C43 N46 1.377 . S
C43 H63 0.930 1_554 S
C44 N42 1.375 . S
C44 C43 1.338 . S
C44 H48 0.931 . S
C45 N42 1.313 . S
C45 N46 1.344 . S
C45 H49 0.930 . S
N46 C43 1.377 . S
N46 C45 1.344 . S
O47 Co39 2.055 . S
O47 C51 1.253 . S
H48 C44 0.931 . S
H49 C45 0.930 . S
O50 Co39 2.039 . S
O50 C40 1.265 . S
C51 O47 1.253 . S
C51 O52 1.227 . S
O52 C51 1.227 . S
N53 Co39 2.140 . S
N53 C56 1.346 . S
N53 C57 1.345 . S
C54 C55 1.387 . S
C54 C58 1.391 . S
C55 C54 1.387 . S
C55 C56 1.369 . S
C55 H64 0.929 . S
C56 N53 1.346 . S
C56 C55 1.369 . S
C56 H59 0.928 . S
C57 N53 1.345 . S
C57 C58 1.371 . S
C57 H60 0.931 . S
C58 C54 1.391 . S
C58 C57 1.371 . S
C58 H65 0.930 . S
H59 C56 0.928 . S
H60 C57 0.931 . S
H61 C37 0.930 . S
H62 C34 0.930 . S
H63 C43 0.930 1_556 S
H64 C55 0.929 . S
H65 C58 0.930 . S
C66 C67 1.351 . S
C66 N69 1.368 . S
C66 H71 0.931 . S
C67 C66 1.351 . S
C67 N68 1.373 . S
C67 H95 0.930 . S
N68 C67 1.373 . S
N68 C70 1.340 . S
N69 C66 1.368 . S
N69 C70 1.321 . S
N69 Co72 2.135 . S
C70 N68 1.340 . S
C70 N69 1.321 . S
C70 H94 0.930 . S
H71 C66 0.931 . S
Co72 N69 2.135 . S
Co72 N75 2.121 . S
Co72 O80 2.055 . S
Co72 O83 2.039 . S
Co72 N86 2.140 . S
C73 O74 1.227 . S
C73 O83 1.265 . S
O74 C73 1.227 . S
N75 Co72 2.121 . S
N75 C77 1.375 . S
N75 C78 1.313 . S
C76 C77 1.338 . S
C76 N79 1.377 . S
C76 H96 0.930 1_554 S
C77 N75 1.375 . S
C77 C76 1.338 . S
C77 H81 0.931 . S
C78 N75 1.313 . S
C78 N79 1.344 . S
C78 H82 0.930 . S
N79 C76 1.377 . S
N79 C78 1.344 . S
O80 Co72 2.055 . S
O80 C84 1.253 . S
H81 C77 0.931 . S
H82 C78 0.930 . S
O83 Co72 2.039 . S
O83 C73 1.265 . S
C84 O80 1.253 . S
C84 O85 1.227 . S
O85 C84 1.227 . S
N86 Co72 2.140 . S
N86 C89 1.346 . S
N86 C90 1.345 . S
C87 C88 1.387 . S
C87 C91 1.391 . S
C88 C87 1.387 . S
C88 C89 1.369 . S
C88 H97 0.929 . S
C89 N86 1.346 . S
C89 C88 1.369 . S
C89 H92 0.928 . S
C90 N86 1.345 . S
C90 C91 1.371 . S
C90 H93 0.931 . S
C91 C87 1.391 . S
C91 C90 1.371 . S
C91 H98 0.930 . S
H92 C89 0.928 . S
H93 C90 0.931 . S
H94 C70 0.930 . S
H95 C67 0.930 . S
H96 C76 0.930 1_556 S
H97 C88 0.929 . S
H98 C91 0.930 . S
C99 C100 1.351 . S
C99 N102 1.368 . S
C99 H104 0.931 . S
C100 C99 1.351 . S
C100 N101 1.373 . S
C100 H128 0.930 . S
N101 C100 1.373 . S
N101 C103 1.340 . S
N102 C99 1.368 . S
N102 C103 1.321 . S
N102 Co105 2.135 . S
C103 N101 1.340 . S
C103 N102 1.321 . S
C103 H127 0.930 . S
H104 C99 0.931 . S
Co105 N102 2.135 . S
Co105 N108 2.121 . S
Co105 O113 2.055 . S
Co105 O116 2.039 . S
Co105 N119 2.140 . S
C106 O107 1.227 . S
C106 O116 1.265 . S
O107 C106 1.227 . S
N108 Co105 2.121 . S
N108 C110 1.375 . S
N108 C111 1.313 . S
C109 C110 1.338 . S
C109 N112 1.377 . S
C109 H129 0.930 1_556 S
C110 N108 1.375 . S
C110 C109 1.338 . S
C110 H114 0.931 . S
C111 N108 1.313 . S
C111 N112 1.344 . S
C111 H115 0.930 . S
N112 C109 1.377 . S
N112 C111 1.344 . S
O113 Co105 2.055 . S
O113 C117 1.253 . S
H114 C110 0.931 . S
H115 C111 0.930 . S
O116 Co105 2.039 . S
O116 C106 1.265 . S
C117 O113 1.253 . S
C117 O118 1.227 . S
O118 C117 1.227 . S
N119 Co105 2.140 . S
N119 C122 1.346 . S
N119 C123 1.345 . S
C120 C121 1.387 . S
C120 C124 1.391 . S
C121 C120 1.387 . S
C121 C122 1.369 . S
C121 H130 0.929 . S
C122 N119 1.346 . S
C122 C121 1.369 . S
C122 H125 0.928 . S
C123 N119 1.345 . S
C123 C124 1.371 . S
C123 H126 0.931 . S
C124 C120 1.391 . S
C124 C123 1.371 . S
C124 H131 0.930 . S
H125 C122 0.928 . S
H126 C123 0.931 . S
H127 C103 0.930 . S
H128 C100 0.930 . S
H129 C109 0.930 1_554 S
H130 C121 0.929 . S
H131 C124 0.930 . S
C132 C133 1.351 . S
C132 N135 1.368 . S
C132 H137 0.931 . S
C133 C132 1.351 . S
C133 N134 1.373 . S
C133 H161 0.930 . S
N134 C133 1.373 . S
N134 C136 1.340 . S
N135 C132 1.368 . S
N135 C136 1.321 . S
N135 Co138 2.135 . S
C136 N134 1.340 . S
C136 N135 1.321 . S
C136 H160 0.930 . S
H137 C132 0.931 . S
Co138 N135 2.135 . S
Co138 N141 2.121 . S
Co138 O146 2.055 . S
Co138 O149 2.039 . S
Co138 N152 2.140 . S
C139 O140 1.227 . S
C139 O149 1.265 . S
O140 C139 1.227 . S
N141 Co138 2.121 . S
N141 C143 1.375 . S
N141 C144 1.313 . S
C142 C143 1.338 . S
C142 N145 1.377 . S
C142 H162 0.930 1_556 S
C143 N141 1.375 . S
C143 C142 1.338 . S
C143 H147 0.931 . S
C144 N141 1.313 . S
C144 N145 1.344 . S
C144 H148 0.930 . S
N145 C142 1.377 . S
N145 C144 1.344 . S
O146 Co138 2.055 . S
O146 C150 1.253 . S
H147 C143 0.931 . S
H148 C144 0.930 . S
O149 Co138 2.039 . S
O149 C139 1.265 . S
C150 O146 1.253 . S
C150 O151 1.227 . S
O151 C150 1.227 . S
N152 Co138 2.140 . S
N152 C155 1.346 . S
N152 C156 1.345 . S
C153 C154 1.387 . S
C153 C157 1.391 . S
C154 C153 1.387 . S
C154 C155 1.369 . S
C154 H163 0.929 . S
C155 N152 1.346 . S
C155 C154 1.369 . S
C155 H158 0.928 . S
C156 N152 1.345 . S
C156 C157 1.371 . S
C156 H159 0.931 . S
C157 C153 1.391 . S
C157 C156 1.371 . S
C157 H164 0.930 . S
H158 C155 0.928 . S
H159 C156 0.931 . S
H160 C136 0.930 . S
H161 C133 0.930 . S
H162 C142 0.930 1_554 S
H163 C154 0.929 . S
H164 C157 0.930 . S
C165 C166 1.351 . S
C165 N168 1.368 . S
C165 H170 0.931 . S
C166 C165 1.351 . S
C166 N167 1.373 . S
C166 H194 0.930 . S
N167 C166 1.373 . S
N167 C169 1.340 . S
N168 C165 1.368 . S
N168 C169 1.321 . S
N168 Co171 2.135 . S
C169 N167 1.340 . S
C169 N168 1.321 . S
C169 H193 0.930 . S
H170 C165 0.931 . S
Co171 N168 2.135 . S
Co171 N174 2.121 . S
Co171 O179 2.055 . S
Co171 O182 2.039 . S
Co171 N185 2.140 . S
C172 O173 1.227 . S
C172 O182 1.265 . S
O173 C172 1.227 . S
N174 Co171 2.121 . S
N174 C176 1.375 . S
N174 C177 1.313 . S
C175 C176 1.338 . S
C175 N178 1.377 . S
C175 H195 0.930 1_556 S
C176 N174 1.375 . S
C176 C175 1.338 . S
C176 H180 0.931 . S
C177 N174 1.313 . S
C177 N178 1.344 . S
C177 H181 0.930 . S
N178 C175 1.377 . S
N178 C177 1.344 . S
O179 Co171 2.055 . S
O179 C183 1.253 . S
H180 C176 0.931 . S
H181 C177 0.930 . S
O182 Co171 2.039 . S
O182 C172 1.265 . S
C183 O179 1.253 . S
C183 O184 1.227 . S
O184 C183 1.227 . S
N185 Co171 2.140 . S
N185 C188 1.346 . S
N185 C189 1.345 . S
C186 C187 1.387 . S
C186 C190 1.391 . S
C187 C186 1.387 . S
C187 C188 1.369 . S
C187 H196 0.929 . S
C188 N185 1.346 . S
C188 C187 1.369 . S
C188 H191 0.928 . S
C189 N185 1.345 . S
C189 C190 1.371 . S
C189 H192 0.931 . S
C190 C186 1.391 . S
C190 C189 1.371 . S
C190 H197 0.930 . S
H191 C188 0.928 . S
H192 C189 0.931 . S
H193 C169 0.930 . S
H194 C166 0.930 . S
H195 C175 0.930 1_554 S
H196 C187 0.929 . S
H197 C190 0.930 . S
C198 C199 1.351 . S
C198 N201 1.368 1_554 S
C198 H203 0.931 1_554 S
C199 C198 1.351 . S
C199 N200 1.373 . S
C199 H227 0.930 . S
N200 C199 1.373 . S
N200 C202 1.340 . S
N201 C198 1.368 1_556 S
N201 C202 1.321 1_556 S
N201 Co204 2.135 . S
C202 N200 1.340 . S
C202 N201 1.321 1_554 S
C202 H226 0.930 . S
H203 C198 0.931 1_556 S
Co204 N201 2.135 . S
Co204 N207 2.121 . S
Co204 O212 2.055 . S
Co204 O215 2.039 . S
Co204 N218 2.140 . S
C205 O206 1.227 . S
C205 O215 1.265 . S
O206 C205 1.227 . S
N207 Co204 2.121 . S
N207 C209 1.375 . S
N207 C210 1.313 . S
C208 C209 1.338 . S
C208 N211 1.377 . S
C208 H228 0.930 . S
C209 N207 1.375 . S
C209 C208 1.338 . S
C209 H213 0.931 . S
C210 N207 1.313 . S
C210 N211 1.344 . S
C210 H214 0.930 . S
N211 C208 1.377 . S
N211 C210 1.344 . S
O212 Co204 2.055 . S
O212 C216 1.253 . S
H213 C209 0.931 . S
H214 C210 0.930 . S
O215 Co204 2.039 . S
O215 C205 1.265 . S
C216 O212 1.253 . S
C216 O217 1.227 . S
O217 C216 1.227 . S
N218 Co204 2.140 . S
N218 C221 1.346 . S
N218 C222 1.345 . S
C219 C220 1.387 . S
C219 C223 1.391 . S
C220 C219 1.387 . S
C220 C221 1.369 . S
C220 H229 0.929 . S
C221 N218 1.346 . S
C221 C220 1.369 . S
C221 H224 0.928 . S
C222 N218 1.345 . S
C222 C223 1.371 . S
C222 H225 0.931 . S
C223 C219 1.391 . S
C223 C222 1.371 . S
C223 H230 0.930 . S
H224 C221 0.928 . S
H225 C222 0.931 . S
H226 C202 0.930 . S
H227 C199 0.930 . S
H228 C208 0.930 . S
H229 C220 0.929 . S
H230 C223 0.930 . S
C231 C232 1.351 . S
C231 N234 1.368 1_554 S
C231 H236 0.931 1_554 S
C232 C231 1.351 . S
C232 N233 1.373 . S
C232 H260 0.930 . S
N233 C232 1.373 . S
N233 C235 1.340 . S
N234 C231 1.368 1_556 S
N234 C235 1.321 1_556 S
N234 Co237 2.135 . S
C235 N233 1.340 . S
C235 N234 1.321 1_554 S
C235 H259 0.930 . S
H236 C231 0.931 1_556 S
Co237 N234 2.135 . S
Co237 N240 2.121 . S
Co237 O245 2.055 . S
Co237 O248 2.039 . S
Co237 N251 2.140 . S
C238 O239 1.227 . S
C238 O248 1.265 . S
O239 C238 1.227 . S
N240 Co237 2.121 . S
N240 C242 1.375 . S
N240 C243 1.313 . S
C241 C242 1.338 . S
C241 N244 1.377 . S
C241 H261 0.930 . S
C242 N240 1.375 . S
C242 C241 1.338 . S
C242 H246 0.931 . S
C243 N240 1.313 . S
C243 N244 1.344 . S
C243 H247 0.930 . S
N244 C241 1.377 . S
N244 C243 1.344 . S
O245 Co237 2.055 . S
O245 C249 1.253 . S
H246 C242 0.931 . S
H247 C243 0.930 . S
O248 Co237 2.039 . S
O248 C238 1.265 . S
C249 O245 1.253 . S
C249 O250 1.227 . S
O250 C249 1.227 . S
N251 Co237 2.140 . S
N251 C254 1.346 . S
N251 C255 1.345 . S
C252 C253 1.387 . S
C252 C256 1.391 . S
C253 C252 1.387 . S
C253 C254 1.369 . S
C253 H262 0.929 . S
C254 N251 1.346 . S
C254 C253 1.369 . S
C254 H257 0.928 . S
C255 N251 1.345 . S
C255 C256 1.371 . S
C255 H258 0.931 . S
C256 C252 1.391 . S
C256 C255 1.371 . S
C256 H263 0.930 . S
H257 C254 0.928 . S
H258 C255 0.931 . S
H259 C235 0.930 . S
H260 C232 0.930 . S
H261 C241 0.930 . S
H262 C253 0.929 . S
H263 C256 0.930 . S
C264 C265 1.351 . S
C264 N267 1.368 1_554 S
C264 H269 0.931 1_554 S
C265 C264 1.351 . S
C265 N266 1.373 . S
C265 H293 0.930 . S
N266 C265 1.373 . S
N266 C268 1.340 . S
N267 C264 1.368 1_556 S
N267 C268 1.321 1_556 S
N267 Co270 2.135 . S
C268 N266 1.340 . S
C268 N267 1.321 1_554 S
C268 H292 0.930 . S
H269 C264 0.931 1_556 S
Co270 N267 2.135 . S
Co270 N273 2.121 . S
Co270 O278 2.055 . S
Co270 O281 2.039 . S
Co270 N284 2.140 . S
C271 O272 1.227 . S
C271 O281 1.265 . S
O272 C271 1.227 . S
N273 Co270 2.121 . S
N273 C275 1.375 . S
N273 C276 1.313 . S
C274 C275 1.338 . S
C274 N277 1.377 . S
C274 H294 0.930 . S
C275 N273 1.375 . S
C275 C274 1.338 . S
C275 H279 0.931 . S
C276 N273 1.313 . S
C276 N277 1.344 . S
C276 H280 0.930 . S
N277 C274 1.377 . S
N277 C276 1.344 . S
O278 Co270 2.055 . S
O278 C282 1.253 . S
H279 C275 0.931 . S
H280 C276 0.930 . S
O281 Co270 2.039 . S
O281 C271 1.265 . S
C282 O278 1.253 . S
C282 O283 1.227 . S
O283 C282 1.227 . S
N284 Co270 2.140 . S
N284 C287 1.346 . S
N284 C288 1.345 . S
C285 C286 1.387 . S
C285 C289 1.391 . S
C286 C285 1.387 . S
C286 C287 1.369 . S
C286 H295 0.929 . S
C287 N284 1.346 . S
C287 C286 1.369 . S
C287 H290 0.928 . S
C288 N284 1.345 . S
C288 C289 1.371 . S
C288 H291 0.931 . S
C289 C285 1.391 . S
C289 C288 1.371 . S
C289 H296 0.930 . S
H290 C287 0.928 . S
H291 C288 0.931 . S
H292 C268 0.930 . S
H293 C265 0.930 . S
H294 C274 0.930 . S
H295 C286 0.929 . S
H296 C289 0.930 . S
C297 C298 1.351 . S
C297 N300 1.368 . S
C297 H302 0.931 . S
C298 C297 1.351 . S
C298 N299 1.373 . S
C298 H326 0.930 . S
N299 C298 1.373 . S
N299 C301 1.340 . S
N300 C297 1.368 . S
N300 C301 1.321 . S
N300 Co303 2.135 . S
C301 N299 1.340 . S
C301 N300 1.321 . S
C301 H325 0.930 . S
H302 C297 0.931 . S
Co303 N300 2.135 . S
Co303 N306 2.121 1_556 S
Co303 O311 2.055 . S
Co303 O314 2.039 . S
Co303 N317 2.140 . S
C304 O305 1.227 . S
C304 O314 1.265 . S
O305 C304 1.227 . S
N306 Co303 2.121 1_554 S
N306 C308 1.375 . S
N306 C309 1.313 . S
C307 C308 1.338 . S
C307 N310 1.377 . S
C307 H327 0.930 . S
C308 N306 1.375 . S
C308 C307 1.338 . S
C308 H312 0.931 . S
C309 N306 1.313 . S
C309 N310 1.344 . S
C309 H313 0.930 . S
N310 C307 1.377 . S
N310 C309 1.344 . S
O311 Co303 2.055 . S
O311 C315 1.253 . S
H312 C308 0.931 . S
H313 C309 0.930 . S
O314 Co303 2.039 . S
O314 C304 1.265 . S
C315 O311 1.253 . S
C315 O316 1.227 . S
O316 C315 1.227 . S
N317 Co303 2.140 . S
N317 C320 1.346 . S
N317 C321 1.345 . S
C318 C319 1.387 . S
C318 C322 1.391 . S
C319 C318 1.387 . S
C319 C320 1.369 . S
C319 H328 0.929 . S
C320 N317 1.346 . S
C320 C319 1.369 . S
C320 H323 0.928 . S
C321 N317 1.345 . S
C321 C322 1.371 . S
C321 H324 0.931 1_556 S
C322 C318 1.391 . S
C322 C321 1.371 . S
C322 H329 0.930 1_556 S
H323 C320 0.928 . S
H324 C321 0.931 1_554 S
H325 C301 0.930 . S
H326 C298 0.930 . S
H327 C307 0.930 . S
H328 C319 0.929 . S
H329 C322 0.930 1_554 S
C330 C331 1.351 . S
C330 N333 1.368 . S
C330 H335 0.931 . S
C331 C330 1.351 . S
C331 N332 1.373 . S
C331 H359 0.930 . S
N332 C331 1.373 . S
N332 C334 1.340 . S
N333 C330 1.368 . S
N333 C334 1.321 . S
N333 Co336 2.135 . S
C334 N332 1.340 . S
C334 N333 1.321 . S
C334 H358 0.930 . S
H335 C330 0.931 . S
Co336 N333 2.135 . S
Co336 N339 2.121 1_556 S
Co336 O344 2.055 . S
Co336 O347 2.039 . S
Co336 N350 2.140 . S
C337 O338 1.227 . S
C337 O347 1.265 . S
O338 C337 1.227 . S
N339 Co336 2.121 1_554 S
N339 C341 1.375 . S
N339 C342 1.313 . S
C340 C341 1.338 . S
C340 N343 1.377 . S
C340 H360 0.930 . S
C341 N339 1.375 . S
C341 C340 1.338 . S
C341 H345 0.931 . S
C342 N339 1.313 . S
C342 N343 1.344 . S
C342 H346 0.930 . S
N343 C340 1.377 . S
N343 C342 1.344 . S
O344 Co336 2.055 . S
O344 C348 1.253 . S
H345 C341 0.931 . S
H346 C342 0.930 . S
O347 Co336 2.039 . S
O347 C337 1.265 . S
C348 O344 1.253 . S
C348 O349 1.227 . S
O349 C348 1.227 . S
N350 Co336 2.140 . S
N350 C353 1.346 . S
N350 C354 1.345 . S
C351 C352 1.387 . S
C351 C355 1.391 . S
C352 C351 1.387 . S
C352 C353 1.369 . S
C352 H361 0.929 . S
C353 N350 1.346 . S
C353 C352 1.369 . S
C353 H356 0.928 . S
C354 N350 1.345 . S
C354 C355 1.371 . S
C354 H357 0.931 1_556 S
C355 C351 1.391 . S
C355 C354 1.371 . S
C355 H362 0.930 1_556 S
H356 C353 0.928 . S
H357 C354 0.931 1_554 S
H358 C334 0.930 . S
H359 C331 0.930 . S
H360 C340 0.930 . S
H361 C352 0.929 . S
H362 C355 0.930 1_554 S
C363 C364 1.351 . S
C363 N366 1.368 . S
C363 H368 0.931 . S
C364 C363 1.351 . S
C364 N365 1.373 . S
C364 H392 0.930 . S
N365 C364 1.373 . S
N365 C367 1.340 . S
N366 C363 1.368 . S
N366 C367 1.321 . S
N366 Co369 2.135 . S
C367 N365 1.340 . S
C367 N366 1.321 . S
C367 H391 0.930 . S
H368 C363 0.931 . S
Co369 N366 2.135 . S
Co369 N372 2.121 1_556 S
Co369 O377 2.055 . S
Co369 O380 2.039 . S
Co369 N383 2.140 . S
C370 O371 1.227 . S
C370 O380 1.265 . S
O371 C370 1.227 . S
N372 Co369 2.121 1_554 S
N372 C374 1.375 . S
N372 C375 1.313 . S
C373 C374 1.338 . S
C373 N376 1.377 . S
C373 H393 0.930 . S
C374 N372 1.375 . S
C374 C373 1.338 . S
C374 H378 0.931 . S
C375 N372 1.313 . S
C375 N376 1.344 . S
C375 H379 0.930 . S
N376 C373 1.377 . S
N376 C375 1.344 . S
O377 Co369 2.055 . S
O377 C381 1.253 . S
H378 C374 0.931 . S
H379 C375 0.930 . S
O380 Co369 2.039 . S
O380 C370 1.265 . S
C381 O377 1.253 . S
C381 O382 1.227 . S
O382 C381 1.227 . S
N383 Co369 2.140 . S
N383 C386 1.346 . S
N383 C387 1.345 . S
C384 C385 1.387 . S
C384 C388 1.391 . S
C385 C384 1.387 . S
C385 C386 1.369 . S
C385 H394 0.929 . S
C386 N383 1.346 . S
C386 C385 1.369 . S
C386 H389 0.928 . S
C387 N383 1.345 . S
C387 C388 1.371 . S
C387 H390 0.931 1_556 S
C388 C384 1.391 . S
C388 C387 1.371 . S
C388 H395 0.930 1_556 S
H389 C386 0.928 . S
H390 C387 0.931 1_554 S
H391 C367 0.930 . S
H392 C364 0.930 . S
H393 C373 0.930 . S
H394 C385 0.929 . S
H395 C388 0.930 1_554 S
C396 C397 1.351 . S
C396 N399 1.368 . S
C396 H401 0.931 . S
C397 C396 1.351 . S
C397 N398 1.373 . S
C397 H425 0.930 . S
N398 C397 1.373 . S
N398 C400 1.340 . S
N399 C396 1.368 . S
N399 C400 1.321 . S
N399 Co402 2.135 . S
C400 N398 1.340 . S
C400 N399 1.321 . S
C400 H424 0.930 . S
H401 C396 0.931 . S
Co402 N399 2.135 . S
Co402 N405 2.121 1_554 S
Co402 O410 2.055 . S
Co402 O413 2.039 . S
Co402 N416 2.140 . S
C403 O404 1.227 . S
C403 O413 1.265 . S
O404 C403 1.227 . S
N405 Co402 2.121 1_556 S
N405 C407 1.375 . S
N405 C408 1.313 . S
C406 C407 1.338 . S
C406 N409 1.377 . S
C406 H426 0.930 . S
C407 N405 1.375 . S
C407 C406 1.338 . S
C407 H411 0.931 . S
C408 N405 1.313 . S
C408 N409 1.344 . S
C408 H412 0.930 . S
N409 C406 1.377 . S
N409 C408 1.344 . S
O410 Co402 2.055 . S
O410 C414 1.253 . S
H411 C407 0.931 . S
H412 C408 0.930 . S
O413 Co402 2.039 . S
O413 C403 1.265 . S
C414 O410 1.253 . S
C414 O415 1.227 . S
O415 C414 1.227 . S
N416 Co402 2.140 . S
N416 C419 1.346 . S
N416 C420 1.345 . S
C417 C418 1.387 . S
C417 C421 1.391 . S
C418 C417 1.387 . S
C418 C419 1.369 . S
C418 H427 0.929 . S
C419 N416 1.346 . S
C419 C418 1.369 . S
C419 H422 0.928 . S
C420 N416 1.345 . S
C420 C421 1.371 . S
C420 H423 0.931 1_554 S
C421 C417 1.391 . S
C421 C420 1.371 . S
C421 H428 0.930 1_554 S
H422 C419 0.928 . S
H423 C420 0.931 1_556 S
H424 C400 0.930 . S
H425 C397 0.930 . S
H426 C406 0.930 . S
H427 C418 0.929 . S
H428 C421 0.930 1_556 S
C429 C430 1.351 . S
C429 N432 1.368 . S
C429 H434 0.931 . S
C430 C429 1.351 . S
C430 N431 1.373 . S
C430 H458 0.930 . S
N431 C430 1.373 . S
N431 C433 1.340 . S
N432 C429 1.368 . S
N432 C433 1.321 . S
N432 Co435 2.135 . S
C433 N431 1.340 . S
C433 N432 1.321 . S
C433 H457 0.930 . S
H434 C429 0.931 . S
Co435 N432 2.135 . S
Co435 N438 2.121 1_554 S
Co435 O443 2.055 . S
Co435 O446 2.039 . S
Co435 N449 2.140 . S
C436 O437 1.227 . S
C436 O446 1.265 . S
O437 C436 1.227 . S
N438 Co435 2.121 1_556 S
N438 C440 1.375 . S
N438 C441 1.313 . S
C439 C440 1.338 . S
C439 N442 1.377 . S
C439 H459 0.930 . S
C440 N438 1.375 . S
C440 C439 1.338 . S
C440 H444 0.931 . S
C441 N438 1.313 . S
C441 N442 1.344 . S
C441 H445 0.930 . S
N442 C439 1.377 . S
N442 C441 1.344 . S
O443 Co435 2.055 . S
O443 C447 1.253 . S
H444 C440 0.931 . S
H445 C441 0.930 . S
O446 Co435 2.039 . S
O446 C436 1.265 . S
C447 O443 1.253 . S
C447 O448 1.227 . S
O448 C447 1.227 . S
N449 Co435 2.140 . S
N449 C452 1.346 . S
N449 C453 1.345 . S
C450 C451 1.387 . S
C450 C454 1.391 . S
C451 C450 1.387 . S
C451 C452 1.369 . S
C451 H460 0.929 . S
C452 N449 1.346 . S
C452 C451 1.369 . S
C452 H455 0.928 . S
C453 N449 1.345 . S
C453 C454 1.371 . S
C453 H456 0.931 1_554 S
C454 C450 1.391 . S
C454 C453 1.371 . S
C454 H461 0.930 1_554 S
H455 C452 0.928 . S
H456 C453 0.931 1_556 S
H457 C433 0.930 . S
H458 C430 0.930 . S
H459 C439 0.930 . S
H460 C451 0.929 . S
H461 C454 0.930 1_556 S
C462 C463 1.351 . S
C462 N465 1.368 . S
C462 H467 0.931 . S
C463 C462 1.351 . S
C463 N464 1.373 . S
C463 H491 0.930 . S
N464 C463 1.373 . S
N464 C466 1.340 . S
N465 C462 1.368 . S
N465 C466 1.321 . S
N465 Co468 2.135 . S
C466 N464 1.340 . S
C466 N465 1.321 . S
C466 H490 0.930 . S
H467 C462 0.931 . S
Co468 N465 2.135 . S
Co468 N471 2.121 1_554 S
Co468 O476 2.055 . S
Co468 O479 2.039 . S
Co468 N482 2.140 . S
C469 O470 1.227 . S
C469 O479 1.265 . S
O470 C469 1.227 . S
N471 Co468 2.121 1_556 S
N471 C473 1.375 . S
N471 C474 1.313 . S
C472 C473 1.338 . S
C472 N475 1.377 . S
C472 H492 0.930 . S
C473 N471 1.375 . S
C473 C472 1.338 . S
C473 H477 0.931 . S
C474 N471 1.313 . S
C474 N475 1.344 . S
C474 H478 0.930 . S
N475 C472 1.377 . S
N475 C474 1.344 . S
O476 Co468 2.055 . S
O476 C480 1.253 . S
H477 C473 0.931 . S
H478 C474 0.930 . S
O479 Co468 2.039 . S
O479 C469 1.265 . S
C480 O476 1.253 . S
C480 O481 1.227 . S
O481 C480 1.227 . S
N482 Co468 2.140 . S
N482 C485 1.346 . S
N482 C486 1.345 . S
C483 C484 1.387 . S
C483 C487 1.391 . S
C484 C483 1.387 . S
C484 C485 1.369 . S
C484 H493 0.929 . S
C485 N482 1.346 . S
C485 C484 1.369 . S
C485 H488 0.928 . S
C486 N482 1.345 . S
C486 C487 1.371 . S
C486 H489 0.931 1_554 S
C487 C483 1.391 . S
C487 C486 1.371 . S
C487 H494 0.930 1_554 S
H488 C485 0.928 . S
H489 C486 0.931 1_556 S
H490 C466 0.930 . S
H491 C463 0.930 . S
H492 C472 0.930 . S
H493 C484 0.929 . S
H494 C487 0.930 1_556 S
C495 C496 1.351 . S
C495 N498 1.368 1_556 S
C495 H500 0.931 1_556 S
C496 C495 1.351 . S
C496 N497 1.373 . S
C496 H524 0.930 . S
N497 C496 1.373 . S
N497 C499 1.340 . S
N498 C495 1.368 1_554 S
N498 C499 1.321 1_554 S
N498 Co501 2.135 . S
C499 N497 1.340 . S
C499 N498 1.321 1_556 S
C499 H523 0.930 . S
H500 C495 0.931 1_554 S
Co501 N498 2.135 . S
Co501 N504 2.121 . S
Co501 O509 2.055 . S
Co501 O512 2.039 . S
Co501 N515 2.140 . S
C502 O503 1.227 . S
C502 O512 1.265 . S
O503 C502 1.227 . S
N504 Co501 2.121 . S
N504 C506 1.375 . S
N504 C507 1.313 . S
C505 C506 1.338 . S
C505 N508 1.377 . S
C505 H525 0.930 . S
C506 N504 1.375 . S
C506 C505 1.338 . S
C506 H510 0.931 . S
C507 N504 1.313 . S
C507 N508 1.344 . S
C507 H511 0.930 . S
N508 C505 1.377 . S
N508 C507 1.344 . S
O509 Co501 2.055 . S
O509 C513 1.253 . S
H510 C506 0.931 . S
H511 C507 0.930 . S
O512 Co501 2.039 . S
O512 C502 1.265 . S
C513 O509 1.253 . S
C513 O514 1.227 . S
O514 C513 1.227 . S
N515 Co501 2.140 . S
N515 C518 1.346 . S
N515 C519 1.345 . S
C516 C517 1.387 . S
C516 C520 1.391 . S
C517 C516 1.387 . S
C517 C518 1.369 . S
C517 H526 0.929 . S
C518 N515 1.346 . S
C518 C517 1.369 . S
C518 H521 0.928 . S
C519 N515 1.345 . S
C519 C520 1.371 . S
C519 H522 0.931 . S
C520 C516 1.391 . S
C520 C519 1.371 . S
C520 H527 0.930 . S
H521 C518 0.928 . S
H522 C519 0.931 . S
H523 C499 0.930 . S
H524 C496 0.930 . S
H525 C505 0.930 . S
H526 C517 0.929 . S
H527 C520 0.930 . S
C528 C529 1.351 . S
C528 N531 1.368 1_556 S
C528 H533 0.931 1_556 S
C529 C528 1.351 . S
C529 N530 1.373 . S
C529 H557 0.930 . S
N530 C529 1.373 . S
N530 C532 1.340 . S
N531 C528 1.368 1_554 S
N531 C532 1.321 1_554 S
N531 Co534 2.135 . S
C532 N530 1.340 . S
C532 N531 1.321 1_556 S
C532 H556 0.930 . S
H533 C528 0.931 1_554 S
Co534 N531 2.135 . S
Co534 N537 2.121 . S
Co534 O542 2.055 . S
Co534 O545 2.039 . S
Co534 N548 2.140 . S
C535 O536 1.227 . S
C535 O545 1.265 . S
O536 C535 1.227 . S
N537 Co534 2.121 . S
N537 C539 1.375 . S
N537 C540 1.313 . S
C538 C539 1.338 . S
C538 N541 1.377 . S
C538 H558 0.930 . S
C539 N537 1.375 . S
C539 C538 1.338 . S
C539 H543 0.931 . S
C540 N537 1.313 . S
C540 N541 1.344 . S
C540 H544 0.930 . S
N541 C538 1.377 . S
N541 C540 1.344 . S
O542 Co534 2.055 . S
O542 C546 1.253 . S
H543 C539 0.931 . S
H544 C540 0.930 . S
O545 Co534 2.039 . S
O545 C535 1.265 . S
C546 O542 1.253 . S
C546 O547 1.227 . S
O547 C546 1.227 . S
N548 Co534 2.140 . S
N548 C551 1.346 . S
N548 C552 1.345 . S
C549 C550 1.387 . S
C549 C553 1.391 . S
C550 C549 1.387 . S
C550 C551 1.369 . S
C550 H559 0.929 . S
C551 N548 1.346 . S
C551 C550 1.369 . S
C551 H554 0.928 . S
C552 N548 1.345 . S
C552 C553 1.371 . S
C552 H555 0.931 . S
C553 C549 1.391 . S
C553 C552 1.371 . S
C553 H560 0.930 . S
H554 C551 0.928 . S
H555 C552 0.931 . S
H556 C532 0.930 . S
H557 C529 0.930 . S
H558 C538 0.930 . S
H559 C550 0.929 . S
H560 C553 0.930 . S
C561 C562 1.351 . S
C561 N564 1.368 1_556 S
C561 H566 0.931 1_556 S
C562 C561 1.351 . S
C562 N563 1.373 . S
C562 H590 0.930 . S
N563 C562 1.373 . S
N563 C565 1.340 . S
N564 C561 1.368 1_554 S
N564 C565 1.321 1_554 S
N564 Co567 2.135 . S
C565 N563 1.340 . S
C565 N564 1.321 1_556 S
C565 H589 0.930 . S
H566 C561 0.931 1_554 S
Co567 N564 2.135 . S
Co567 N570 2.121 . S
Co567 O575 2.055 . S
Co567 O578 2.039 . S
Co567 N581 2.140 . S
C568 O569 1.227 . S
C568 O578 1.265 . S
O569 C568 1.227 . S
N570 Co567 2.121 . S
N570 C572 1.375 . S
N570 C573 1.313 . S
C571 C572 1.338 . S
C571 N574 1.377 . S
C571 H591 0.930 . S
C572 N570 1.375 . S
C572 C571 1.338 . S
C572 H576 0.931 . S
C573 N570 1.313 . S
C573 N574 1.344 . S
C573 H577 0.930 . S
N574 C571 1.377 . S
N574 C573 1.344 . S
O575 Co567 2.055 . S
O575 C579 1.253 . S
H576 C572 0.931 . S
H577 C573 0.930 . S
O578 Co567 2.039 . S
O578 C568 1.265 . S
C579 O575 1.253 . S
C579 O580 1.227 . S
O580 C579 1.227 . S
N581 Co567 2.140 . S
N581 C584 1.346 . S
N581 C585 1.345 . S
C582 C583 1.387 . S
C582 C586 1.391 . S
C583 C582 1.387 . S
C583 C584 1.369 . S
C583 H592 0.929 . S
C584 N581 1.346 . S
C584 C583 1.369 . S
C584 H587 0.928 . S
C585 N581 1.345 . S
C585 C586 1.371 . S
C585 H588 0.931 . S
C586 C582 1.391 . S
C586 C585 1.371 . S
C586 H593 0.930 . S
H587 C584 0.928 . S
H588 C585 0.931 . S
H589 C565 0.930 . S
H590 C562 0.930 . S
H591 C571 0.930 . S
H592 C583 0.929 . S
H593 C586 0.930 . S
C120 C21 1.536 . S
C153 C54 1.535 1_545 S
C186 C87 1.535 1_655 S
C40 C172 1.453 . S
C106 C73 1.452 1_545 S
C139 C7 1.452 1_655 S
C318 C219 1.535 . S
C252 C351 1.535 . S
C285 C384 1.535 . S
C238 C370 1.452 . S
C271 C304 1.453 . S
C337 C205 1.453 . S
C417 C516 1.534 . S
C549 C450 1.535 . S
C483 C582 1.535 . S
C436 C568 1.452 . S
C502 C469 1.453 . S
C403 C535 1.453 . S
C18 C579 1.586 . S
C513 C51 1.586 . S
C546 C84 1.586 . S
C249 C117 1.586 . S
C282 C150 1.586 . S
C216 C183 1.586 . S
C447 C315 1.585 1_454 S
C480 C348 1.585 1_554 S
C381 C414 1.586 1_546 S
N2 N13 1.662 1_556 S
N35 N46 1.662 1_556 S
N68 N79 1.662 1_556 S
N112 N101 1.662 1_556 S
N145 N134 1.662 1_556 S
N167 N178 1.662 1_554 S
N200 N211 1.662 . S
N244 N233 1.662 . S
N277 N266 1.662 . S
N299 N310 1.662 . S
N332 N343 1.662 . S
N365 N376 1.662 . S
N398 N409 1.662 . S
N431 N442 1.662 . S
N475 N464 1.662 . S
N497 N508 1.662 . S
N541 N530 1.662 . S
N574 N563 1.662 . S
