# Generated by pormake.
# Topology mer, (4)-cn, num edge types: 1
# Building blocks:
#     Node 0, Type 0, BuildingBlock: KUFVIS_clean_sbu_0, # of connection points: 4
#     Node 1, Type 0, BuildingBlock: KUFVIS_clean_sbu_0, # of connection points: 4
#     Node 2, Type 0, BuildingBlock: KUFVIS_clean_sbu_0, # of connection points: 4
#     Node 3, Type 0, BuildingBlock: KUFVIS_clean_sbu_0, # of connection points: 4
#     Node 4, Type 0, BuildingBlock: KUFVIS_clean_sbu_0, # of connection points: 4
#     Node 5, Type 0, BuildingBlock: KUFVIS_clean_sbu_0, # of connection points: 4
#     Node 6, Type 0, BuildingBlock: KUFVIS_clean_sbu_0, # of connection points: 4
#     Node 7, Type 0, BuildingBlock: KUFVIS_clean_sbu_0, # of connection points: 4
#     Node 8, Type 0, BuildingBlock: KUFVIS_clean_sbu_0, # of connection points: 4
#     Node 9, Type 0, BuildingBlock: KUFVIS_clean_sbu_0, # of connection points: 4
#     Node 10, Type 0, BuildingBlock: KUFVIS_clean_sbu_0, # of connection points: 4
#     Node 11, Type 0, BuildingBlock: KUFVIS_clean_sbu_0, # of connection points: 4
#     Node 12, Type 0, BuildingBlock: KUFVIS_clean_sbu_0, # of connection points: 4
#     Node 13, Type 0, BuildingBlock: KUFVIS_clean_sbu_0, # of connection points: 4
#     Node 14, Type 0, BuildingBlock: KUFVIS_clean_sbu_0, # of connection points: 4
#     Node 15, Type 0, BuildingBlock: KUFVIS_clean_sbu_0, # of connection points: 4
#     Node 16, Type 0, BuildingBlock: KUFVIS_clean_sbu_0, # of connection points: 4
#     Node 17, Type 0, BuildingBlock: KUFVIS_clean_sbu_0, # of connection points: 4
#     Node 18, Type 0, BuildingBlock: KUFVIS_clean_sbu_0, # of connection points: 4
#     Node 19, Type 0, BuildingBlock: KUFVIS_clean_sbu_0, # of connection points: 4
#     Node 20, Type 0, BuildingBlock: KUFVIS_clean_sbu_0, # of connection points: 4
#     Node 21, Type 0, BuildingBlock: KUFVIS_clean_sbu_0, # of connection points: 4
#     Node 22, Type 0, BuildingBlock: KUFVIS_clean_sbu_0, # of connection points: 4
#     Node 23, Type 0, BuildingBlock: KUFVIS_clean_sbu_0, # of connection points: 4
#     Node 24, Type 0, BuildingBlock: KUFVIS_clean_sbu_0, # of connection points: 4
#     Node 25, Type 0, BuildingBlock: KUFVIS_clean_sbu_0, # of connection points: 4
#     Node 26, Type 0, BuildingBlock: KUFVIS_clean_sbu_0, # of connection points: 4
#     Node 27, Type 0, BuildingBlock: KUFVIS_clean_sbu_0, # of connection points: 4
#     Node 28, Type 0, BuildingBlock: KUFVIS_clean_sbu_0, # of connection points: 4
#     Node 29, Type 0, BuildingBlock: KUFVIS_clean_sbu_0, # of connection points: 4
#     Node 30, Type 0, BuildingBlock: KUFVIS_clean_sbu_0, # of connection points: 4
#     Node 31, Type 0, BuildingBlock: KUFVIS_clean_sbu_0, # of connection points: 4
#     Edge 32, Type (0, 0), BuildingBlock: OJICUG_clean_linker_0, # of connection points: 2
#     Edge 33, Type (0, 0), BuildingBlock: OJICUG_clean_linker_0, # of connection points: 2
#     Edge 34, Type (0, 0), BuildingBlock: OJICUG_clean_linker_0, # of connection points: 2
#     Edge 35, Type (0, 0), BuildingBlock: OJICUG_clean_linker_0, # of connection points: 2
#     Edge 36, Type (0, 0), BuildingBlock: OJICUG_clean_linker_0, # of connection points: 2
#     Edge 37, Type (0, 0), BuildingBlock: OJICUG_clean_linker_0, # of connection points: 2
#     Edge 38, Type (0, 0), BuildingBlock: OJICUG_clean_linker_0, # of connection points: 2
#     Edge 39, Type (0, 0), BuildingBlock: OJICUG_clean_linker_0, # of connection points: 2
#     Edge 40, Type (0, 0), BuildingBlock: OJICUG_clean_linker_0, # of connection points: 2
#     Edge 41, Type (0, 0), BuildingBlock: OJICUG_clean_linker_0, # of connection points: 2
#     Edge 42, Type (0, 0), BuildingBlock: OJICUG_clean_linker_0, # of connection points: 2
#     Edge 43, Type (0, 0), BuildingBlock: OJICUG_clean_linker_0, # of connection points: 2
#     Edge 44, Type (0, 0), BuildingBlock: OJICUG_clean_linker_0, # of connection points: 2
#     Edge 45, Type (0, 0), BuildingBlock: OJICUG_clean_linker_0, # of connection points: 2
#     Edge 46, Type (0, 0), BuildingBlock: OJICUG_clean_linker_0, # of connection points: 2
#     Edge 47, Type (0, 0), BuildingBlock: OJICUG_clean_linker_0, # of connection points: 2
#     Edge 48, Type (0, 0), BuildingBlock: OJICUG_clean_linker_0, # of connection points: 2
#     Edge 49, Type (0, 0), BuildingBlock: OJICUG_clean_linker_0, # of connection points: 2
#     Edge 50, Type (0, 0), BuildingBlock: OJICUG_clean_linker_0, # of connection points: 2
#     Edge 51, Type (0, 0), BuildingBlock: OJICUG_clean_linker_0, # of connection points: 2
#     Edge 52, Type (0, 0), BuildingBlock: OJICUG_clean_linker_0, # of connection points: 2
#     Edge 53, Type (0, 0), BuildingBlock: OJICUG_clean_linker_0, # of connection points: 2
#     Edge 54, Type (0, 0), BuildingBlock: OJICUG_clean_linker_0, # of connection points: 2
#     Edge 55, Type (0, 0), BuildingBlock: OJICUG_clean_linker_0, # of connection points: 2
#     Edge 56, Type (0, 0), BuildingBlock: OJICUG_clean_linker_0, # of connection points: 2
#     Edge 57, Type (0, 0), BuildingBlock: OJICUG_clean_linker_0, # of connection points: 2
#     Edge 58, Type (0, 0), BuildingBlock: OJICUG_clean_linker_0, # of connection points: 2
#     Edge 59, Type (0, 0), BuildingBlock: OJICUG_clean_linker_0, # of connection points: 2
#     Edge 60, Type (0, 0), BuildingBlock: OJICUG_clean_linker_0, # of connection points: 2
#     Edge 61, Type (0, 0), BuildingBlock: OJICUG_clean_linker_0, # of connection points: 2
#     Edge 62, Type (0, 0), BuildingBlock: OJICUG_clean_linker_0, # of connection points: 2
#     Edge 63, Type (0, 0), BuildingBlock: OJICUG_clean_linker_0, # of connection points: 2
#     Edge 64, Type (0, 0), BuildingBlock: OJICUG_clean_linker_0, # of connection points: 2
#     Edge 65, Type (0, 0), BuildingBlock: OJICUG_clean_linker_0, # of connection points: 2
#     Edge 66, Type (0, 0), BuildingBlock: OJICUG_clean_linker_0, # of connection points: 2
#     Edge 67, Type (0, 0), BuildingBlock: OJICUG_clean_linker_0, # of connection points: 2
#     Edge 68, Type (0, 0), BuildingBlock: OJICUG_clean_linker_0, # of connection points: 2
#     Edge 69, Type (0, 0), BuildingBlock: OJICUG_clean_linker_0, # of connection points: 2
#     Edge 70, Type (0, 0), BuildingBlock: OJICUG_clean_linker_0, # of connection points: 2
#     Edge 71, Type (0, 0), BuildingBlock: OJICUG_clean_linker_0, # of connection points: 2
#     Edge 72, Type (0, 0), BuildingBlock: OJICUG_clean_linker_0, # of connection points: 2
#     Edge 73, Type (0, 0), BuildingBlock: OJICUG_clean_linker_0, # of connection points: 2
#     Edge 74, Type (0, 0), BuildingBlock: OJICUG_clean_linker_0, # of connection points: 2
#     Edge 75, Type (0, 0), BuildingBlock: OJICUG_clean_linker_0, # of connection points: 2
#     Edge 76, Type (0, 0), BuildingBlock: OJICUG_clean_linker_0, # of connection points: 2
#     Edge 77, Type (0, 0), BuildingBlock: OJICUG_clean_linker_0, # of connection points: 2
#     Edge 78, Type (0, 0), BuildingBlock: OJICUG_clean_linker_0, # of connection points: 2
#     Edge 79, Type (0, 0), BuildingBlock: OJICUG_clean_linker_0, # of connection points: 2
#     Edge 80, Type (0, 0), BuildingBlock: OJICUG_clean_linker_0, # of connection points: 2
#     Edge 81, Type (0, 0), BuildingBlock: OJICUG_clean_linker_0, # of connection points: 2
#     Edge 82, Type (0, 0), BuildingBlock: OJICUG_clean_linker_0, # of connection points: 2
#     Edge 83, Type (0, 0), BuildingBlock: OJICUG_clean_linker_0, # of connection points: 2
#     Edge 84, Type (0, 0), BuildingBlock: OJICUG_clean_linker_0, # of connection points: 2
#     Edge 85, Type (0, 0), BuildingBlock: OJICUG_clean_linker_0, # of connection points: 2
#     Edge 86, Type (0, 0), BuildingBlock: OJICUG_clean_linker_0, # of connection points: 2
#     Edge 87, Type (0, 0), BuildingBlock: OJICUG_clean_linker_0, # of connection points: 2
#     Edge 88, Type (0, 0), BuildingBlock: OJICUG_clean_linker_0, # of connection points: 2
#     Edge 89, Type (0, 0), BuildingBlock: OJICUG_clean_linker_0, # of connection points: 2
#     Edge 90, Type (0, 0), BuildingBlock: OJICUG_clean_linker_0, # of connection points: 2
#     Edge 91, Type (0, 0), BuildingBlock: OJICUG_clean_linker_0, # of connection points: 2
#     Edge 92, Type (0, 0), BuildingBlock: OJICUG_clean_linker_0, # of connection points: 2
#     Edge 93, Type (0, 0), BuildingBlock: OJICUG_clean_linker_0, # of connection points: 2
#     Edge 94, Type (0, 0), BuildingBlock: OJICUG_clean_linker_0, # of connection points: 2
#     Edge 95, Type (0, 0), BuildingBlock: OJICUG_clean_linker_0, # of connection points: 2
# Relax obj value: 0.090
# Max RMSD: 0.141
# Mean RMSD: 0.136
data_MOF--net-mer--node1-KUFVIS_clean_sbu_0--edge1-OJICUG_clean_linker_0
_symmetry_space_group_name_H-M    P1
_symmetry_Int_Tables_number       1
_symmetry_cell_setting            triclinic
loop_
_symmetry_equiv_pos_as_xyz
'x, y, z'
_cell_length_a     46.605986
_cell_length_b     46.150742
_cell_length_c     37.699458
_cell_angle_alpha  89.999219
_cell_angle_beta   90.001338
_cell_angle_gamma 90.001653
loop_
_atom_site_label
_atom_site_type_symbol
_atom_site_fract_x
_atom_site_fract_y
_atom_site_fract_z
_atom_type_partial_charge
Mn0 Mn 0.11207 0.29848 0.37726 0.0
Mn1 Mn 0.17147 0.33893 0.38826 0.0
C2 C 0.13023 0.30549 0.43488 0.0
C3 C 0.06199 0.29742 0.36974 0.0
C4 C 0.1731 0.27563 0.36507 0.0
O5 O 0.11736 0.31795 0.32835 0.0
O6 O 0.154 0.34729 0.3421 0.0
C7 C 0.14147 0.39546 0.39186 0.0
N8 N 0.1599 0.37579 0.40627 0.0
C9 C 0.16569 0.40488 0.4586 0.0
C10 C 0.14742 0.42584 0.44396 0.0
C11 C 0.13518 0.42105 0.41043 0.0
C12 C 0.17155 0.38005 0.43853 0.0
H13 H 0.1313 0.39147 0.36665 0.0
C14 C 0.13479 0.33837 0.32078 0.0
O15 O 0.07814 0.27624 0.35888 0.0
O16 O 0.07497 0.31912 0.38451 0.0
N17 N 0.19113 0.33391 0.43169 0.0
C18 C 0.20775 0.3112 0.44213 0.0
C19 C 0.22012 0.31172 0.47585 0.0
C20 C 0.21546 0.33575 0.49775 0.0
C21 C 0.20003 0.3597 0.48558 0.0
C22 C 0.1883 0.35799 0.45177 0.0
H23 H 0.21077 0.29247 0.42542 0.0
O24 O 0.11171 0.28528 0.42815 0.0
O25 O 0.13633 0.32216 0.40791 0.0
O26 O 0.14604 0.27087 0.36693 0.0
O27 O 0.18436 0.30059 0.37063 0.0
C28 C 0.19462 0.38451 0.50625 0.0
C29 C 0.1776 0.40719 0.49276 0.0
H30 H 0.14223 0.44541 0.45848 0.0
H31 H 0.12065 0.43685 0.39916 0.0
H32 H 0.23233 0.29336 0.48539 0.0
H33 H 0.22282 0.33511 0.52423 0.0
H34 H 0.20297 0.38618 0.53272 0.0
H35 H 0.17336 0.426 0.50914 0.0
Mn36 Mn 0.72401 0.12539 0.34173 0.0
Mn37 Mn 0.79395 0.10864 0.3556 0.0
C38 C 0.7584 0.16148 0.33978 0.0
C39 C 0.68522 0.13105 0.30338 0.0
C40 C 0.75137 0.11792 0.41547 0.0
O41 O 0.72375 0.08122 0.33791 0.0
O42 O 0.77069 0.07307 0.34725 0.0
C43 C 0.80455 0.08785 0.28243 0.0
N44 N 0.81154 0.1057 0.30989 0.0
C45 C 0.84971 0.12741 0.2761 0.0
C46 C 0.84309 0.10906 0.2476 0.0
C47 C 0.82035 0.08926 0.25076 0.0
C48 C 0.8331 0.12513 0.30692 0.0
H49 H 0.78699 0.07271 0.28459 0.0
C50 C 0.74518 0.06417 0.34096 0.0
O51 O 0.68115 0.12772 0.3372 0.0
O52 O 0.71137 0.12965 0.29186 0.0
N53 N 0.82021 0.1399 0.36375 0.0
C54 C 0.82494 0.15495 0.3943 0.0
C55 C 0.84734 0.17527 0.39584 0.0
C56 C 0.86509 0.17949 0.36622 0.0
C57 C 0.86058 0.16295 0.33553 0.0
C58 C 0.83803 0.14286 0.33567 0.0
H59 H 0.81135 0.15194 0.41706 0.0
O60 O 0.73153 0.16766 0.34389 0.0
O61 O 0.7646 0.13417 0.33522 0.0
O62 O 0.72939 0.12226 0.39579 0.0
O63 O 0.77659 0.11273 0.40335 0.0
C64 C 0.87764 0.16555 0.30485 0.0
C65 C 0.87211 0.1479 0.27508 0.0
H66 H 0.85527 0.11005 0.22316 0.0
H67 H 0.81499 0.07514 0.22882 0.0
H68 H 0.85079 0.18777 0.41975 0.0
H69 H 0.88219 0.19535 0.36739 0.0
H70 H 0.89507 0.18106 0.30387 0.0
H71 H 0.88532 0.15015 0.2516 0.0
Mn72 Mn 0.90289 0.71408 0.37621 0.0
Mn73 Mn 0.84351 0.67354 0.3868 0.0
C74 C 0.88465 0.70681 0.43372 0.0
C75 C 0.95298 0.71521 0.36883 0.0
C76 C 0.84186 0.73693 0.36398 0.0
O77 O 0.8977 0.69481 0.32717 0.0
O78 O 0.86106 0.66538 0.34063 0.0
C79 C 0.87356 0.61703 0.39012 0.0
N80 N 0.85508 0.63661 0.40461 0.0
C81 C 0.84926 0.6073 0.45675 0.0
C82 C 0.86757 0.58642 0.44201 0.0
C83 C 0.87985 0.59137 0.40855 0.0
C84 C 0.8434 0.63221 0.43682 0.0
H85 H 0.88377 0.62114 0.36497 0.0
C86 C 0.88031 0.6744 0.31943 0.0
O87 O 0.93684 0.73642 0.35806 0.0
O88 O 0.93999 0.69344 0.38344 0.0
N89 N 0.82379 0.67835 0.43021 0.0
C90 C 0.80714 0.70101 0.44077 0.0
C91 C 0.79474 0.70034 0.47447 0.0
C92 C 0.79939 0.67623 0.49623 0.0
C93 C 0.81485 0.65234 0.48394 0.0
C94 C 0.82661 0.6542 0.45016 0.0
H95 H 0.80413 0.71981 0.42417 0.0
O96 O 0.90315 0.72707 0.42717 0.0
O97 O 0.8786 0.69025 0.40664 0.0
O98 O 0.86892 0.7417 0.36594 0.0
O99 O 0.83061 0.71194 0.36938 0.0
C100 C 0.82026 0.62745 0.50447 0.0
C101 C 0.83732 0.60484 0.49087 0.0
H102 H 0.87276 0.5668 0.45643 0.0
H103 H 0.89442 0.57563 0.39721 0.0
H104 H 0.7825 0.71866 0.4841 0.0
H105 H 0.79201 0.67676 0.52271 0.0
H106 H 0.81189 0.62567 0.53092 0.0
H107 H 0.84156 0.58597 0.50714 0.0
Mn108 Mn 0.29095 0.88728 0.34103 0.0
Mn109 Mn 0.22103 0.90402 0.35504 0.0
C110 C 0.25653 0.85122 0.33881 0.0
C111 C 0.3297 0.88182 0.30258 0.0
C112 C 0.26358 0.89432 0.41484 0.0
O113 O 0.29125 0.93147 0.33762 0.0
O114 O 0.24433 0.9396 0.34704 0.0
C115 C 0.2105 0.92526 0.28205 0.0
N116 N 0.20346 0.90725 0.30934 0.0
C117 C 0.16528 0.8858 0.27532 0.0
C118 C 0.17195 0.90431 0.247 0.0
C119 C 0.19473 0.92405 0.25035 0.0
C120 C 0.18189 0.88787 0.30618 0.0
H121 H 0.22809 0.94035 0.28437 0.0
C122 C 0.26984 0.94852 0.34083 0.0
O123 O 0.33381 0.88493 0.33643 0.0
O124 O 0.30355 0.88333 0.2911 0.0
N125 N 0.1947 0.87275 0.3629 0.0
C126 C 0.18989 0.85756 0.39333 0.0
C127 C 0.16745 0.83728 0.39467 0.0
C128 C 0.14973 0.83326 0.36498 0.0
C129 C 0.1543 0.84995 0.33443 0.0
C130 C 0.1769 0.86998 0.33476 0.0
H131 H 0.20345 0.86044 0.41614 0.0
O132 O 0.2834 0.845 0.34281 0.0
O133 O 0.25034 0.87856 0.33448 0.0
O134 O 0.28557 0.89008 0.39513 0.0
O135 O 0.23837 0.89961 0.40277 0.0
C136 C 0.13727 0.84755 0.30371 0.0
C137 C 0.14285 0.86536 0.2741 0.0
H138 H 0.15979 0.90349 0.22253 0.0
H139 H 0.20012 0.9383 0.22855 0.0
H140 H 0.16394 0.82467 0.41848 0.0
H141 H 0.13259 0.81743 0.366 0.0
H142 H 0.1198 0.83208 0.30258 0.0
H143 H 0.12965 0.86327 0.25058 0.0
Mn144 Mn 0.11195 0.71359 0.624 0.0
Mn145 Mn 0.17139 0.6732 0.61304 0.0
C146 C 0.13014 0.7066 0.5664 0.0
C147 C 0.06186 0.71459 0.63146 0.0
C148 C 0.17295 0.73649 0.63625 0.0
O149 O 0.11723 0.69412 0.67291 0.0
O150 O 0.1539 0.6648 0.65918 0.0
C151 C 0.14145 0.61664 0.60939 0.0
N152 N 0.15987 0.63632 0.595 0.0
C153 C 0.16572 0.60725 0.54266 0.0
C154 C 0.14746 0.58627 0.55728 0.0
C155 C 0.1352 0.59104 0.59079 0.0
C156 C 0.17154 0.63209 0.56275 0.0
H157 H 0.13126 0.62061 0.63459 0.0
C158 C 0.13467 0.6737 0.68048 0.0
O159 O 0.07798 0.73578 0.64234 0.0
O160 O 0.07487 0.69291 0.6167 0.0
N161 N 0.19107 0.67824 0.56964 0.0
C162 C 0.20768 0.70097 0.55922 0.0
C163 C 0.22008 0.70047 0.52552 0.0
C164 C 0.21546 0.67645 0.50361 0.0
C165 C 0.20004 0.65248 0.51574 0.0
C166 C 0.18828 0.65417 0.54954 0.0
H167 H 0.21068 0.7197 0.57595 0.0
O168 O 0.11161 0.72679 0.57311 0.0
O169 O 0.13625 0.68994 0.59336 0.0
O170 O 0.14588 0.74123 0.63436 0.0
O171 O 0.18423 0.71154 0.6307 0.0
C172 C 0.19467 0.62766 0.49506 0.0
C173 C 0.17766 0.60496 0.50852 0.0
H174 H 0.14231 0.5667 0.54275 0.0
H175 H 0.12068 0.57522 0.60205 0.0
H176 H 0.23229 0.71885 0.516 0.0
H177 H 0.22286 0.67709 0.47714 0.0
H178 H 0.20305 0.62601 0.46861 0.0
H179 H 0.17345 0.58615 0.49213 0.0
Mn180 Mn 0.29082 0.12486 0.66033 0.0
Mn181 Mn 0.2209 0.10819 0.64618 0.0
C182 C 0.25643 0.16095 0.66251 0.0
C183 C 0.32953 0.13026 0.69886 0.0
C184 C 0.26354 0.11785 0.58646 0.0
O185 O 0.29107 0.08067 0.66372 0.0
O186 O 0.24415 0.07258 0.65424 0.0
C187 C 0.21023 0.08696 0.71914 0.0
N188 N 0.20326 0.10497 0.69183 0.0
C189 C 0.16504 0.12645 0.72576 0.0
C190 C 0.17164 0.10793 0.75409 0.0
C191 C 0.1944 0.08817 0.75079 0.0
C192 C 0.18169 0.12437 0.69494 0.0
H193 H 0.22781 0.07185 0.71687 0.0
C194 C 0.26965 0.06364 0.66047 0.0
O195 O 0.33367 0.12717 0.66501 0.0
O196 O 0.30336 0.12878 0.71028 0.0
N197 N 0.19462 0.13948 0.63826 0.0
C198 C 0.18989 0.15469 0.60782 0.0
C199 C 0.16748 0.17499 0.60642 0.0
C200 C 0.1497 0.17903 0.63606 0.0
C201 C 0.1542 0.16232 0.66662 0.0
C202 C 0.17677 0.14226 0.66634 0.0
H203 H 0.20349 0.15181 0.58505 0.0
O204 O 0.28331 0.16714 0.65856 0.0
O205 O 0.25021 0.13361 0.66681 0.0
O206 O 0.28551 0.12208 0.60622 0.0
O207 O 0.23832 0.11257 0.59849 0.0
C208 C 0.13711 0.16474 0.69729 0.0
C209 C 0.14262 0.14691 0.72692 0.0
H210 H 0.15944 0.10876 0.77853 0.0
H211 H 0.19974 0.07391 0.77261 0.0
H212 H 0.16403 0.18762 0.58261 0.0
H213 H 0.13258 0.19488 0.635 0.0
H214 H 0.11966 0.18022 0.69838 0.0
H215 H 0.12938 0.14901 0.75039 0.0
Mn216 Mn 0.90287 0.29788 0.62475 0.0
Mn217 Mn 0.84347 0.33838 0.61407 0.0
C218 C 0.88466 0.30513 0.56721 0.0
C219 C 0.95296 0.29681 0.6322 0.0
C220 C 0.84184 0.275 0.63693 0.0
O221 O 0.89763 0.31716 0.67377 0.0
O222 O 0.86098 0.34657 0.66026 0.0
C223 C 0.87348 0.39491 0.61076 0.0
N224 N 0.85503 0.37532 0.59626 0.0
C225 C 0.84922 0.40461 0.5441 0.0
C226 C 0.8675 0.4255 0.55885 0.0
C227 C 0.87977 0.42057 0.59233 0.0
C228 C 0.84336 0.3797 0.56404 0.0
H229 H 0.88368 0.39082 0.63593 0.0
C230 C 0.88021 0.33756 0.68148 0.0
O231 O 0.93682 0.27558 0.64296 0.0
O232 O 0.93996 0.31855 0.61755 0.0
N233 N 0.82378 0.33354 0.57064 0.0
C234 C 0.80715 0.31087 0.56007 0.0
C235 C 0.79476 0.31153 0.52636 0.0
C236 C 0.79941 0.33564 0.5046 0.0
C237 C 0.81485 0.35954 0.51689 0.0
C238 C 0.82659 0.35769 0.55069 0.0
H239 H 0.80414 0.29208 0.57668 0.0
O240 O 0.90317 0.28488 0.57379 0.0
O241 O 0.87858 0.32169 0.59428 0.0
O242 O 0.86891 0.27024 0.635 0.0
O243 O 0.83058 0.29998 0.6315 0.0
C244 C 0.82026 0.38443 0.49636 0.0
C245 C 0.83729 0.40706 0.50997 0.0
H246 H 0.87269 0.44512 0.54444 0.0
H247 H 0.89432 0.43632 0.60368 0.0
H248 H 0.78254 0.2932 0.51672 0.0
H249 H 0.79204 0.3351 0.47812 0.0
H250 H 0.8119 0.3862 0.46991 0.0
H251 H 0.84153 0.42593 0.4937 0.0
Mn252 Mn 0.72392 0.88652 0.65929 0.0
Mn253 Mn 0.79387 0.90325 0.64545 0.0
C254 C 0.7583 0.85041 0.66125 0.0
C255 C 0.68514 0.88089 0.69764 0.0
C256 C 0.7513 0.89398 0.58556 0.0
O257 O 0.72369 0.9307 0.66312 0.0
O258 O 0.77063 0.93882 0.65378 0.0
C259 C 0.80448 0.92403 0.71862 0.0
N260 N 0.81146 0.90618 0.69116 0.0
C261 C 0.84962 0.88446 0.72496 0.0
C262 C 0.84301 0.90281 0.75345 0.0
C263 C 0.82027 0.92262 0.75029 0.0
C264 C 0.83301 0.88674 0.69414 0.0
H265 H 0.78692 0.93917 0.71645 0.0
C266 C 0.74512 0.94773 0.66006 0.0
O267 O 0.68106 0.88422 0.66382 0.0
O268 O 0.71128 0.88227 0.70917 0.0
N269 N 0.82012 0.87197 0.6373 0.0
C270 C 0.82485 0.85692 0.60676 0.0
C271 C 0.84724 0.83659 0.60522 0.0
C272 C 0.86499 0.83237 0.63485 0.0
C273 C 0.86049 0.84892 0.66553 0.0
C274 C 0.83794 0.86901 0.66539 0.0
H275 H 0.81127 0.85993 0.58399 0.0
O276 O 0.73143 0.84425 0.65714 0.0
O277 O 0.76451 0.87772 0.66582 0.0
O278 O 0.72931 0.88965 0.60524 0.0
O279 O 0.77652 0.89916 0.59769 0.0
C280 C 0.87754 0.84631 0.69622 0.0
C281 C 0.87202 0.86396 0.72598 0.0
H282 H 0.85518 0.90182 0.7779 0.0
H283 H 0.81492 0.93675 0.77222 0.0
H284 H 0.85069 0.82408 0.58132 0.0
H285 H 0.88208 0.8165 0.63368 0.0
H286 H 0.89496 0.83079 0.6972 0.0
H287 H 0.88522 0.86171 0.74947 0.0
Mn288 Mn 0.88689 0.71864 0.63767 0.0
Mn289 Mn 0.82208 0.68569 0.63465 0.0
C290 C 0.86485 0.71178 0.58212 0.0
C291 C 0.93732 0.71688 0.63933 0.0
C292 C 0.82949 0.74954 0.6501 0.0
O293 O 0.88444 0.70148 0.68766 0.0
O294 O 0.84119 0.68177 0.68083 0.0
C295 C 0.84617 0.62654 0.64065 0.0
N296 N 0.82734 0.64545 0.62564 0.0
C297 C 0.80013 0.60677 0.59967 0.0
C298 C 0.8191 0.5867 0.61491 0.0
C299 C 0.84253 0.59667 0.63501 0.0
C300 C 0.80597 0.63625 0.60447 0.0
H301 H 0.86351 0.63426 0.65714 0.0
C302 C 0.86326 0.68711 0.69942 0.0
O303 O 0.92321 0.73913 0.65115 0.0
O304 O 0.92213 0.69554 0.62712 0.0
N305 N 0.79729 0.68532 0.59426 0.0
C306 C 0.78001 0.70741 0.5833 0.0
C307 C 0.75403 0.70133 0.56585 0.0
C308 C 0.74568 0.67245 0.56019 0.0
C309 C 0.76362 0.64991 0.57166 0.0
C310 C 0.7892 0.65737 0.5891 0.0
H311 H 0.78534 0.72948 0.58924 0.0
O312 O 0.88457 0.73098 0.58767 0.0
O313 O 0.85856 0.69524 0.6094 0.0
O314 O 0.85687 0.74968 0.65076 0.0
O315 O 0.81447 0.72707 0.64351 0.0
C316 C 0.75686 0.62035 0.5671 0.0
C317 C 0.77538 0.59878 0.58056 0.0
H318 H 0.81578 0.56363 0.61154 0.0
H319 H 0.85725 0.58136 0.6469 0.0
H320 H 0.74026 0.71888 0.55732 0.0
H321 H 0.72559 0.66784 0.54688 0.0
H322 H 0.73748 0.61398 0.5533 0.0
H323 H 0.77011 0.57615 0.57665 0.0
Mn324 Mn 0.27855 0.89137 0.62736 0.0
Mn325 Mn 0.31235 0.83518 0.58799 0.0
C326 C 0.27499 0.88588 0.56688 0.0
C327 C 0.28033 0.93934 0.64813 0.0
C328 C 0.25612 0.82876 0.62821 0.0
O329 O 0.30611 0.87704 0.66512 0.0
O330 O 0.32999 0.84208 0.63566 0.0
C331 C 0.3692 0.86229 0.57719 0.0
N332 N 0.34564 0.84882 0.56363 0.0
C333 C 0.36521 0.85024 0.50459 0.0
C334 C 0.38981 0.86394 0.51795 0.0
C335 C 0.39177 0.87004 0.5544 0.0
C336 C 0.34349 0.8429 0.52861 0.0
H337 H 0.37072 0.86709 0.60516 0.0
C338 C 0.32557 0.85762 0.66334 0.0
O339 O 0.26153 0.92098 0.66017 0.0
O340 O 0.29862 0.9295 0.62526 0.0
N341 N 0.29782 0.82568 0.54194 0.0
C342 C 0.27203 0.81377 0.53306 0.0
C343 C 0.26629 0.80704 0.49743 0.0
C344 C 0.28719 0.81235 0.47138 0.0
C345 C 0.31367 0.82433 0.48121 0.0
C346 C 0.31826 0.83039 0.51717 0.0
H347 H 0.25591 0.80958 0.55298 0.0
O348 O 0.25667 0.90162 0.58414 0.0
O349 O 0.29561 0.87427 0.58555 0.0
O350 O 0.25226 0.85562 0.63546 0.0
O351 O 0.2781 0.81923 0.61163 0.0
C352 C 0.33545 0.83107 0.45664 0.0
C353 C 0.36118 0.84407 0.46832 0.0
H354 H 0.4072 0.87009 0.50044 0.0
H355 H 0.41062 0.88075 0.56487 0.0
H356 H 0.2458 0.79779 0.49004 0.0
H357 H 0.28265 0.80726 0.44392 0.0
H358 H 0.33247 0.82674 0.42864 0.0
H359 H 0.37761 0.84951 0.44912 0.0
Mn360 Mn 0.12791 0.29278 0.63876 0.0
Mn361 Mn 0.19272 0.32573 0.63601 0.0
C362 C 0.15002 0.2998 0.58329 0.0
C363 C 0.07748 0.29451 0.6403 0.0
C364 C 0.18528 0.26185 0.65124 0.0
O365 O 0.13027 0.30986 0.68881 0.0
O366 O 0.17354 0.32956 0.68216 0.0
C367 C 0.16865 0.38489 0.64216 0.0
N368 N 0.1875 0.366 0.62715 0.0
C369 C 0.21482 0.40473 0.60147 0.0
C370 C 0.19585 0.42477 0.61673 0.0
C371 C 0.17235 0.41477 0.63668 0.0
C372 C 0.20894 0.37524 0.60611 0.0
H373 H 0.15124 0.37713 0.65852 0.0
C374 C 0.15144 0.32419 0.70067 0.0
O375 O 0.09158 0.27225 0.65209 0.0
O376 O 0.09268 0.31589 0.62819 0.0
N377 N 0.21756 0.32619 0.59567 0.0
C378 C 0.23479 0.30411 0.58458 0.0
C379 C 0.26079 0.3102 0.56719 0.0
C380 C 0.26921 0.33909 0.56172 0.0
C381 C 0.25131 0.36163 0.57331 0.0
C382 C 0.22571 0.35415 0.59069 0.0
H383 H 0.22939 0.28203 0.59036 0.0
O384 O 0.13032 0.28055 0.58873 0.0
O385 O 0.15627 0.31627 0.61064 0.0
O386 O 0.15791 0.26172 0.65186 0.0
O387 O 0.20031 0.28433 0.64473 0.0
C388 C 0.25812 0.39119 0.56893 0.0
C389 C 0.23962 0.41275 0.58246 0.0
H390 H 0.1992 0.44785 0.61348 0.0
H391 H 0.15761 0.43006 0.64858 0.0
H392 H 0.27452 0.29266 0.55855 0.0
H393 H 0.28931 0.34371 0.54846 0.0
H394 H 0.27753 0.39758 0.55519 0.0
H395 H 0.24493 0.43538 0.57868 0.0
Mn396 Mn 0.73623 0.1201 0.62799 0.0
Mn397 Mn 0.7024 0.17634 0.58877 0.0
C398 C 0.7398 0.12571 0.56753 0.0
C399 C 0.73444 0.07208 0.64859 0.0
C400 C 0.75865 0.18272 0.62895 0.0
O401 O 0.70867 0.13435 0.6658 0.0
O402 O 0.6848 0.16937 0.63644 0.0
C403 C 0.64555 0.14921 0.57798 0.0
N404 N 0.66909 0.16271 0.56442 0.0
C405 C 0.64946 0.16136 0.50541 0.0
C406 C 0.62489 0.14762 0.51878 0.0
C407 C 0.62297 0.14146 0.55521 0.0
C408 C 0.6712 0.16869 0.52942 0.0
H409 H 0.64407 0.14436 0.60595 0.0
C410 C 0.68922 0.15378 0.66408 0.0
O411 O 0.75325 0.09041 0.6607 0.0
O412 O 0.71615 0.08199 0.62576 0.0
N413 N 0.71687 0.18593 0.54271 0.0
C414 C 0.74264 0.19787 0.53382 0.0
C415 C 0.74834 0.20465 0.49819 0.0
C416 C 0.72742 0.19936 0.47217 0.0
C417 C 0.70096 0.18735 0.48201 0.0
C418 C 0.69641 0.18123 0.51796 0.0
H419 H 0.75878 0.20204 0.55372 0.0
O420 O 0.75812 0.10994 0.58476 0.0
O421 O 0.71917 0.13728 0.58622 0.0
O422 O 0.76251 0.15586 0.63618 0.0
O423 O 0.73667 0.19227 0.61238 0.0
C424 C 0.67916 0.18063 0.45746 0.0
C425 C 0.65345 0.16759 0.46914 0.0
H426 H 0.60749 0.14148 0.50128 0.0
H427 H 0.60414 0.13073 0.56569 0.0
H428 H 0.76882 0.21392 0.49079 0.0
H429 H 0.73193 0.20448 0.44471 0.0
H430 H 0.68211 0.185 0.42946 0.0
H431 H 0.63701 0.16217 0.44995 0.0
Mn432 Mn 0.88703 0.29324 0.36329 0.0
Mn433 Mn 0.82222 0.32619 0.3662 0.0
C434 C 0.86495 0.30013 0.4188 0.0
C435 C 0.93746 0.29503 0.36168 0.0
C436 C 0.82965 0.26233 0.35081 0.0
O437 O 0.88461 0.31037 0.31328 0.0
O438 O 0.84136 0.3301 0.32005 0.0
C439 C 0.84631 0.38534 0.36021 0.0
N440 N 0.82747 0.36643 0.3752 0.0
C441 C 0.80024 0.40511 0.40113 0.0
C442 C 0.81922 0.42518 0.38591 0.0
C443 C 0.84266 0.41521 0.36584 0.0
C444 C 0.80608 0.37563 0.39635 0.0
H445 H 0.86367 0.37762 0.34374 0.0
C446 C 0.86344 0.32474 0.30148 0.0
O447 O 0.92337 0.27277 0.34987 0.0
O448 O 0.92225 0.31637 0.37386 0.0
N449 N 0.79739 0.32656 0.40656 0.0
C450 C 0.78009 0.30448 0.41748 0.0
C451 C 0.7541 0.31056 0.4349 0.0
C452 C 0.74575 0.33944 0.44055 0.0
C453 C 0.76371 0.36198 0.42911 0.0
C454 C 0.7893 0.35452 0.4117 0.0
H455 H 0.78542 0.28241 0.41154 0.0
O456 O 0.88468 0.28094 0.41329 0.0
O457 O 0.85868 0.31665 0.3915 0.0
O458 O 0.85703 0.26218 0.35019 0.0
O459 O 0.81462 0.28481 0.35734 0.0
C460 C 0.75695 0.39154 0.43365 0.0
C461 C 0.77548 0.41311 0.42021 0.0
H462 H 0.8159 0.44825 0.38927 0.0
H463 H 0.8574 0.43052 0.35396 0.0
H464 H 0.74032 0.29301 0.4434 0.0
H465 H 0.72565 0.34405 0.45383 0.0
H466 H 0.73755 0.39791 0.44742 0.0
H467 H 0.7702 0.43574 0.4241 0.0
Mn468 Mn 0.73624 0.89181 0.37304 0.0
Mn469 Mn 0.7024 0.83556 0.41222 0.0
C470 C 0.73979 0.88619 0.4335 0.0
C471 C 0.73447 0.93983 0.35245 0.0
C472 C 0.75866 0.82919 0.37206 0.0
O473 O 0.70871 0.87756 0.3352 0.0
O474 O 0.68482 0.84254 0.36454 0.0
C475 C 0.64555 0.86269 0.42297 0.0
N476 N 0.66909 0.84918 0.43654 0.0
C477 C 0.64943 0.85051 0.49554 0.0
C478 C 0.62486 0.86425 0.48216 0.0
C479 C 0.62296 0.87042 0.44573 0.0
C480 C 0.67118 0.84319 0.47155 0.0
H481 H 0.64408 0.86754 0.395 0.0
C482 C 0.68926 0.85813 0.33691 0.0
O483 O 0.75328 0.92151 0.34034 0.0
O484 O 0.71617 0.92992 0.37526 0.0
N485 N 0.71685 0.82596 0.45827 0.0
C486 C 0.74262 0.81402 0.46718 0.0
C487 C 0.74831 0.80722 0.50281 0.0
C488 C 0.72738 0.81251 0.52882 0.0
C489 C 0.70092 0.82451 0.51897 0.0
C490 C 0.69638 0.83065 0.48301 0.0
H491 H 0.75877 0.80985 0.44729 0.0
O492 O 0.75811 0.90196 0.41628 0.0
O493 O 0.71917 0.87462 0.41479 0.0
O494 O 0.76253 0.85606 0.36485 0.0
O495 O 0.73668 0.81964 0.38861 0.0
C496 C 0.6791 0.83123 0.5435 0.0
C497 C 0.6534 0.84427 0.53181 0.0
H498 H 0.60745 0.87038 0.49965 0.0
H499 H 0.60413 0.88115 0.43524 0.0
H500 H 0.76878 0.79795 0.51022 0.0
H501 H 0.73187 0.80737 0.55628 0.0
H502 H 0.68205 0.82685 0.5715 0.0
H503 H 0.63695 0.84968 0.55099 0.0
Mn504 Mn 0.12794 0.71943 0.36256 0.0
Mn505 Mn 0.19275 0.68649 0.36531 0.0
C506 C 0.15004 0.7124 0.41803 0.0
C507 C 0.07751 0.71767 0.36098 0.0
C508 C 0.1853 0.75037 0.35009 0.0
O509 O 0.13031 0.70238 0.31251 0.0
O510 O 0.17357 0.68265 0.31916 0.0
C511 C 0.16871 0.62732 0.35916 0.0
N512 N 0.18754 0.64622 0.37418 0.0
C513 C 0.2149 0.60751 0.39984 0.0
C514 C 0.19594 0.58745 0.38458 0.0
C515 C 0.17243 0.59744 0.36463 0.0
C516 C 0.209 0.637 0.39522 0.0
H517 H 0.1513 0.63506 0.34279 0.0
C518 C 0.15147 0.68804 0.30065 0.0
O519 O 0.0916 0.73995 0.34923 0.0
O520 O 0.09272 0.6963 0.37309 0.0
N521 N 0.21758 0.68605 0.40566 0.0
C522 C 0.23479 0.70814 0.41676 0.0
C523 C 0.26079 0.70207 0.43416 0.0
C524 C 0.26923 0.67319 0.43962 0.0
C525 C 0.25135 0.65064 0.42802 0.0
C526 C 0.22575 0.6581 0.41064 0.0
H527 H 0.22936 0.73022 0.41099 0.0
O528 O 0.13034 0.73164 0.41259 0.0
O529 O 0.15629 0.69594 0.39067 0.0
O530 O 0.15793 0.75051 0.3495 0.0
O531 O 0.20033 0.72789 0.35657 0.0
C532 C 0.25819 0.62108 0.43239 0.0
C533 C 0.2397 0.59951 0.41885 0.0
H534 H 0.19931 0.56438 0.38782 0.0
H535 H 0.1577 0.58214 0.35273 0.0
H536 H 0.2745 0.71963 0.44281 0.0
H537 H 0.28934 0.66859 0.45289 0.0
H538 H 0.2776 0.61471 0.44613 0.0
H539 H 0.24504 0.57688 0.42263 0.0
Mn540 Mn 0.27875 0.12078 0.37398 0.0
Mn541 Mn 0.31251 0.17697 0.41341 0.0
C542 C 0.27514 0.12626 0.43445 0.0
C543 C 0.28055 0.07282 0.35319 0.0
C544 C 0.2563 0.18339 0.37314 0.0
O545 O 0.30633 0.13513 0.33625 0.0
O546 O 0.33017 0.1701 0.36575 0.0
C547 C 0.36937 0.14987 0.42423 0.0
N548 N 0.3458 0.16332 0.43778 0.0
C549 C 0.36535 0.16188 0.49682 0.0
C550 C 0.38995 0.14819 0.48347 0.0
C551 C 0.39193 0.14211 0.44702 0.0
C552 C 0.34364 0.16923 0.4728 0.0
H553 H 0.37089 0.14508 0.39625 0.0
C554 C 0.32577 0.15456 0.33806 0.0
O555 O 0.26176 0.09117 0.34113 0.0
O556 O 0.29883 0.08266 0.37608 0.0
N557 N 0.29797 0.18645 0.45946 0.0
C558 C 0.27218 0.19835 0.46833 0.0
C559 C 0.26642 0.20507 0.50397 0.0
C560 C 0.28731 0.19975 0.53002 0.0
C561 C 0.3138 0.18778 0.5202 0.0
C562 C 0.3184 0.18173 0.48424 0.0
H563 H 0.25607 0.20255 0.44841 0.0
O564 O 0.25684 0.11052 0.41716 0.0
O565 O 0.29578 0.13788 0.41582 0.0
O566 O 0.25246 0.15653 0.36586 0.0
O567 O 0.27827 0.19292 0.38976 0.0
C568 C 0.33558 0.18103 0.54477 0.0
C569 C 0.36131 0.16804 0.5331 0.0
H570 H 0.40734 0.14204 0.50099 0.0
H571 H 0.41078 0.13141 0.43655 0.0
H572 H 0.24593 0.21431 0.51135 0.0
H573 H 0.28277 0.20482 0.55748 0.0
H574 H 0.33258 0.18534 0.57277 0.0
H575 H 0.37773 0.16259 0.55231 0.0
Mn576 Mn 0.61192 0.79786 0.87626 0.0
Mn577 Mn 0.67134 0.83835 0.88687 0.0
C578 C 0.63017 0.80511 0.93378 0.0
C579 C 0.56182 0.7968 0.86888 0.0
C580 C 0.67293 0.77496 0.86402 0.0
O581 O 0.61712 0.81714 0.82723 0.0
O582 O 0.65379 0.84654 0.84069 0.0
C583 C 0.64133 0.89489 0.8902 0.0
N584 N 0.6598 0.87529 0.90468 0.0
C585 C 0.66565 0.90459 0.95683 0.0
C586 C 0.64736 0.92548 0.94211 0.0
C587 C 0.63507 0.92055 0.90864 0.0
C588 C 0.67149 0.87967 0.93689 0.0
H589 H 0.63111 0.89079 0.86505 0.0
C590 C 0.63453 0.83753 0.8195 0.0
O591 O 0.57794 0.77557 0.85811 0.0
O592 O 0.57484 0.81855 0.8835 0.0
N593 N 0.69106 0.83351 0.93027 0.0
C594 C 0.7077 0.81084 0.94082 0.0
C595 C 0.72011 0.81149 0.97451 0.0
C596 C 0.71548 0.83561 0.99628 0.0
C597 C 0.70003 0.85951 0.98401 0.0
C598 C 0.68826 0.85766 0.95023 0.0
H599 H 0.71069 0.79205 0.92421 0.0
O600 O 0.61165 0.78487 0.92722 0.0
O601 O 0.63623 0.82167 0.9067 0.0
O602 O 0.64586 0.77021 0.86599 0.0
O603 O 0.6842 0.79994 0.86943 0.0
C604 C 0.69464 0.8844 0.00454 0.0
C605 C 0.6776 0.90703 0.99096 0.0
H606 H 0.64218 0.9451 0.95652 0.0
H607 H 0.62051 0.9363 0.89731 0.0
H608 H 0.73234 0.79317 0.98414 0.0
H609 H 0.72287 0.83507 0.02275 0.0
H610 H 0.70302 0.88617 0.03098 0.0
H611 H 0.67338 0.9259 0.00723 0.0
Mn612 Mn 0.22392 0.62492 0.84098 0.0
Mn613 Mn 0.29385 0.60824 0.85507 0.0
C614 C 0.25831 0.66101 0.83876 0.0
C615 C 0.18518 0.63031 0.80247 0.0
C616 C 0.25124 0.61792 0.91481 0.0
O617 O 0.22366 0.58072 0.83759 0.0
O618 O 0.27058 0.57263 0.84704 0.0
C619 C 0.30446 0.587 0.7821 0.0
N620 N 0.31145 0.60502 0.80939 0.0
C621 C 0.34966 0.62648 0.77543 0.0
C622 C 0.34303 0.60797 0.7471 0.0
C623 C 0.32027 0.58821 0.75043 0.0
C624 C 0.33302 0.62442 0.80626 0.0
H625 H 0.28688 0.5719 0.78439 0.0
C626 C 0.24508 0.5637 0.84082 0.0
O627 O 0.18106 0.62722 0.83632 0.0
O628 O 0.21134 0.62883 0.79103 0.0
N629 N 0.32013 0.63954 0.86295 0.0
C630 C 0.32489 0.65475 0.89338 0.0
C631 C 0.34731 0.67505 0.89475 0.0
C632 C 0.36507 0.67907 0.8651 0.0
C633 C 0.36055 0.66236 0.83455 0.0
C634 C 0.33796 0.64231 0.83485 0.0
H635 H 0.3113 0.65188 0.91617 0.0
O636 O 0.23142 0.6672 0.84273 0.0
O637 O 0.26452 0.63367 0.83445 0.0
O638 O 0.22926 0.62215 0.89508 0.0
O639 O 0.27646 0.61264 0.90277 0.0
C640 C 0.37762 0.66477 0.80386 0.0
C641 C 0.37208 0.64694 0.77425 0.0
H642 H 0.35522 0.60879 0.72266 0.0
H643 H 0.31491 0.57395 0.72862 0.0
H644 H 0.35078 0.68767 0.91856 0.0
H645 H 0.38219 0.69492 0.86615 0.0
H646 H 0.39507 0.68024 0.80276 0.0
H647 H 0.38531 0.64903 0.75076 0.0
Mn648 Mn 0.40276 0.21362 0.8773 0.0
Mn649 Mn 0.34332 0.17325 0.88834 0.0
C650 C 0.3846 0.20666 0.93492 0.0
C651 C 0.45285 0.21462 0.86977 0.0
C652 C 0.34176 0.23654 0.86507 0.0
O653 O 0.39745 0.19413 0.82841 0.0
O654 O 0.36079 0.16483 0.84219 0.0
C655 C 0.37324 0.11668 0.89201 0.0
N656 N 0.35483 0.13638 0.90639 0.0
C657 C 0.34897 0.10733 0.95874 0.0
C658 C 0.36721 0.08634 0.94413 0.0
C659 C 0.37947 0.09109 0.91061 0.0
C660 C 0.34316 0.13217 0.93865 0.0
H661 H 0.38342 0.12064 0.8668 0.0
C662 C 0.38 0.17371 0.82086 0.0
O663 O 0.43672 0.23581 0.8589 0.0
O664 O 0.43985 0.19294 0.88457 0.0
N665 N 0.32366 0.17833 0.93175 0.0
C666 C 0.30707 0.20107 0.94216 0.0
C667 C 0.29467 0.20059 0.97586 0.0
C668 C 0.29928 0.17656 0.99778 0.0
C669 C 0.31468 0.15258 0.98566 0.0
C670 C 0.32644 0.15426 0.95186 0.0
H671 H 0.30408 0.2198 0.92543 0.0
O672 O 0.40314 0.22684 0.92817 0.0
O673 O 0.37848 0.18999 0.90796 0.0
O674 O 0.36883 0.24127 0.86695 0.0
O675 O 0.33048 0.21159 0.87065 0.0
C676 C 0.32004 0.12777 0.00635 0.0
C677 C 0.33704 0.10506 0.99289 0.0
H678 H 0.37236 0.06677 0.95867 0.0
H679 H 0.39398 0.07526 0.89936 0.0
H680 H 0.28247 0.21897 0.98538 0.0
H681 H 0.29188 0.17722 0.02425 0.0
H682 H 0.31166 0.12612 0.0328 0.0
H683 H 0.34123 0.08625 0.00928 0.0
Mn684 Mn 0.79081 0.38648 0.84172 0.0
Mn685 Mn 0.72086 0.40319 0.85562 0.0
C686 C 0.75643 0.35037 0.83978 0.0
C687 C 0.82958 0.38086 0.80336 0.0
C688 C 0.76347 0.39394 0.91547 0.0
O689 O 0.79103 0.43065 0.8379 0.0
O690 O 0.74409 0.43878 0.84725 0.0
C691 C 0.7102 0.42397 0.78246 0.0
N692 N 0.70324 0.40611 0.80992 0.0
C693 C 0.66505 0.38439 0.77617 0.0
C694 C 0.67165 0.40274 0.74767 0.0
C695 C 0.69439 0.42254 0.7508 0.0
C696 C 0.68169 0.38667 0.80698 0.0
H697 H 0.72776 0.43911 0.7846 0.0
C698 C 0.7696 0.44769 0.84096 0.0
O699 O 0.83366 0.38419 0.83718 0.0
O700 O 0.80343 0.38224 0.79184 0.0
N701 N 0.69462 0.37191 0.8638 0.0
C702 C 0.68993 0.35685 0.89435 0.0
C703 C 0.66755 0.33651 0.89591 0.0
C704 C 0.64977 0.33229 0.8663 0.0
C705 C 0.65424 0.34884 0.83562 0.0
C706 C 0.67678 0.36894 0.83573 0.0
H707 H 0.70353 0.35986 0.91709 0.0
O708 O 0.78331 0.34421 0.84388 0.0
O709 O 0.75021 0.37768 0.83522 0.0
O710 O 0.78544 0.3896 0.89578 0.0
O711 O 0.73824 0.39912 0.90337 0.0
C712 C 0.63717 0.34623 0.80495 0.0
C713 C 0.64266 0.36388 0.77518 0.0
H714 H 0.65946 0.40174 0.72323 0.0
H715 H 0.69972 0.43667 0.72886 0.0
H716 H 0.66412 0.324 0.91982 0.0
H717 H 0.63268 0.31642 0.8675 0.0
H718 H 0.61974 0.33071 0.80399 0.0
H719 H 0.62944 0.36163 0.75171 0.0
Mn720 Mn 0.61198 0.21406 0.12476 0.0
Mn721 Mn 0.67134 0.1735 0.11409 0.0
C722 C 0.63018 0.20678 0.06722 0.0
C723 C 0.56189 0.21519 0.13221 0.0
C724 C 0.67303 0.23689 0.13693 0.0
O725 O 0.6172 0.19478 0.17379 0.0
O726 O 0.65383 0.16535 0.16029 0.0
C727 C 0.64127 0.117 0.11083 0.0
N728 N 0.65974 0.13657 0.09631 0.0
C729 C 0.6655 0.10725 0.04416 0.0
C730 C 0.6472 0.08638 0.05893 0.0
C731 C 0.63495 0.09134 0.09241 0.0
C732 C 0.67139 0.13216 0.06409 0.0
H733 H 0.63108 0.12111 0.136 0.0
C734 C 0.6346 0.17438 0.18151 0.0
O735 O 0.57806 0.2364 0.14296 0.0
O736 O 0.57486 0.19343 0.11757 0.0
N737 N 0.69103 0.1783 0.07065 0.0
C738 C 0.70768 0.20095 0.06007 0.0
C739 C 0.72005 0.20027 0.02636 0.0
C740 C 0.71536 0.17616 0.00461 0.0
C741 C 0.69991 0.15228 0.01692 0.0
C742 C 0.68818 0.15415 0.05072 0.0
H743 H 0.71072 0.21974 0.07667 0.0
O744 O 0.61169 0.22705 0.0738 0.0
O745 O 0.63624 0.19022 0.0943 0.0
O746 O 0.64597 0.24167 0.135 0.0
O747 O 0.68427 0.2119 0.1315 0.0
C748 C 0.69446 0.12739 0.9964 0.0
C749 C 0.67741 0.10479 0.01002 0.0
H750 H 0.64198 0.06677 0.04453 0.0
H751 H 0.62038 0.07561 0.10377 0.0
H752 H 0.73229 0.21858 0.0167 0.0
H753 H 0.72272 0.17669 0.97812 0.0
H754 H 0.70281 0.1256 0.96994 0.0
H755 H 0.67314 0.08592 0.99376 0.0
Mn756 Mn 0.79092 0.62536 0.15925 0.0
Mn757 Mn 0.72098 0.6086 0.14544 0.0
C758 C 0.75653 0.66145 0.16121 0.0
C759 C 0.82972 0.63102 0.19759 0.0
C760 C 0.76353 0.61787 0.08553 0.0
O761 O 0.79117 0.58118 0.16309 0.0
O762 O 0.74423 0.57304 0.15377 0.0
C763 C 0.7104 0.58782 0.21861 0.0
N764 N 0.7034 0.60568 0.19116 0.0
C765 C 0.66525 0.62739 0.22497 0.0
C766 C 0.67188 0.60904 0.25346 0.0
C767 C 0.69462 0.58924 0.2503 0.0
C768 C 0.68185 0.62511 0.19414 0.0
H769 H 0.72796 0.57269 0.21644 0.0
C770 C 0.76974 0.56414 0.16005 0.0
O771 O 0.83378 0.62768 0.16376 0.0
O772 O 0.80358 0.62962 0.20912 0.0
N773 N 0.69471 0.63987 0.13729 0.0
C774 C 0.68997 0.65492 0.10675 0.0
C775 C 0.66757 0.67524 0.10522 0.0
C776 C 0.64984 0.67946 0.13485 0.0
C777 C 0.65435 0.66292 0.16554 0.0
C778 C 0.6769 0.64283 0.16539 0.0
H779 H 0.70354 0.6519 0.08397 0.0
O780 O 0.7834 0.66762 0.15708 0.0
O781 O 0.75033 0.63414 0.16579 0.0
O782 O 0.78552 0.62222 0.1052 0.0
O783 O 0.73832 0.61269 0.09767 0.0
C784 C 0.63731 0.66553 0.19623 0.0
C785 C 0.64285 0.64788 0.226 0.0
H786 H 0.65972 0.61004 0.27792 0.0
H787 H 0.69998 0.57512 0.27223 0.0
H788 H 0.66411 0.68774 0.08131 0.0
H789 H 0.63273 0.69533 0.13369 0.0
H790 H 0.61989 0.68104 0.19722 0.0
H791 H 0.62965 0.65014 0.24949 0.0
Mn792 Mn 0.40287 0.79851 0.12409 0.0
Mn793 Mn 0.34348 0.83897 0.11315 0.0
C794 C 0.38469 0.80554 0.06649 0.0
C795 C 0.45297 0.79744 0.13155 0.0
C796 C 0.34184 0.77567 0.13632 0.0
O797 O 0.39762 0.81796 0.17301 0.0
O798 O 0.36098 0.84732 0.15931 0.0
C799 C 0.37349 0.8955 0.10956 0.0
N800 N 0.35505 0.87584 0.09515 0.0
C801 C 0.34926 0.90495 0.04283 0.0
C802 C 0.36753 0.92589 0.05747 0.0
C803 C 0.37978 0.92109 0.09099 0.0
C804 C 0.34339 0.88011 0.0629 0.0
H805 H 0.38367 0.8915 0.13476 0.0
C806 C 0.3802 0.83839 0.1806 0.0
O807 O 0.43682 0.77626 0.14242 0.0
O808 O 0.43998 0.81915 0.1168 0.0
N809 N 0.3238 0.83398 0.06974 0.0
C810 C 0.30717 0.81127 0.0593 0.0
C811 C 0.29479 0.8118 0.02559 0.0
C812 C 0.29945 0.83583 0.0037 0.0
C813 C 0.31489 0.85978 0.01586 0.0
C814 C 0.32663 0.85805 0.04966 0.0
H815 H 0.30415 0.79254 0.07601 0.0
O816 O 0.4032 0.78533 0.0732 0.0
O817 O 0.3786 0.8222 0.09347 0.0
O818 O 0.36891 0.7709 0.13443 0.0
O819 O 0.33059 0.80063 0.13077 0.0
C820 C 0.3203 0.88459 0.99519 0.0
C821 C 0.33734 0.90726 0.00867 0.0
H822 H 0.37272 0.94546 0.04296 0.0
H823 H 0.39432 0.93689 0.10226 0.0
H824 H 0.28257 0.79344 0.01605 0.0
H825 H 0.29209 0.83519 0.97721 0.0
H826 H 0.31194 0.88626 0.96873 0.0
H827 H 0.34158 0.92608 0.99231 0.0
Mn828 Mn 0.22398 0.38734 0.1603 0.0
Mn829 Mn 0.29389 0.4041 0.14623 0.0
C830 C 0.25841 0.35129 0.16251 0.0
C831 C 0.18525 0.38187 0.1988 0.0
C832 C 0.2513 0.39438 0.08647 0.0
O833 O 0.22366 0.43154 0.16371 0.0
O834 O 0.27058 0.43967 0.15424 0.0
C835 C 0.30444 0.42535 0.21921 0.0
N836 N 0.31147 0.40734 0.19192 0.0
C837 C 0.34966 0.3859 0.22593 0.0
C838 C 0.343 0.40441 0.25425 0.0
C839 C 0.32023 0.42415 0.2509 0.0
C840 C 0.33305 0.38796 0.19508 0.0
H841 H 0.28685 0.44044 0.2169 0.0
C842 C 0.24507 0.44858 0.16047 0.0
O843 O 0.18112 0.38497 0.16495 0.0
O844 O 0.21141 0.38339 0.21024 0.0
N845 N 0.32022 0.37283 0.13837 0.0
C846 C 0.32502 0.35765 0.10794 0.0
C847 C 0.34746 0.33737 0.10659 0.0
C848 C 0.36519 0.33335 0.13627 0.0
C849 C 0.36062 0.35004 0.16682 0.0
C850 C 0.33802 0.37007 0.1665 0.0
H851 H 0.31146 0.36053 0.08513 0.0
O852 O 0.23154 0.34507 0.15853 0.0
O853 O 0.26459 0.37864 0.16683 0.0
O854 O 0.22932 0.39014 0.1062 0.0
O855 O 0.27652 0.39968 0.09852 0.0
C856 C 0.37767 0.34764 0.19754 0.0
C857 C 0.3721 0.36546 0.22715 0.0
H858 H 0.35517 0.4036 0.27872 0.0
H859 H 0.31485 0.43841 0.27271 0.0
H860 H 0.35097 0.32476 0.08278 0.0
H861 H 0.38233 0.31752 0.13524 0.0
H862 H 0.39513 0.33218 0.19866 0.0
H863 H 0.3853 0.36338 0.25065 0.0
Mn864 Mn 0.38694 0.21946 0.13877 0.0
Mn865 Mn 0.32211 0.18656 0.13607 0.0
C866 C 0.3648 0.21244 0.08331 0.0
C867 C 0.43737 0.21767 0.14028 0.0
C868 C 0.32961 0.25044 0.15128 0.0
O869 O 0.38459 0.20241 0.18882 0.0
O870 O 0.34131 0.1827 0.18219 0.0
C871 C 0.3461 0.12738 0.14218 0.0
N872 N 0.32727 0.14629 0.12719 0.0
C873 C 0.29986 0.10761 0.10155 0.0
C874 C 0.31881 0.08753 0.11679 0.0
C875 C 0.34235 0.0975 0.13671 0.0
C876 C 0.30579 0.13709 0.10617 0.0
H877 H 0.36353 0.1351 0.15852 0.0
C878 C 0.36343 0.18807 0.20069 0.0
O879 O 0.4233 0.23995 0.15206 0.0
O880 O 0.42215 0.19631 0.12819 0.0
N881 N 0.29725 0.18615 0.09574 0.0
C882 C 0.28005 0.20826 0.08467 0.0
C883 C 0.25403 0.20221 0.06731 0.0
C884 C 0.24555 0.17333 0.06186 0.0
C885 C 0.26342 0.15077 0.07343 0.0
C886 C 0.28905 0.1582 0.09077 0.0
H887 H 0.28549 0.23033 0.09044 0.0
O888 O 0.38453 0.23167 0.08873 0.0
O889 O 0.35856 0.19599 0.11068 0.0
O890 O 0.35699 0.25056 0.15185 0.0
O891 O 0.31456 0.22797 0.14482 0.0
C892 C 0.25655 0.12122 0.06906 0.0
C893 C 0.27503 0.09963 0.08258 0.0
H894 H 0.31542 0.06446 0.11355 0.0
H895 H 0.35707 0.08219 0.14859 0.0
H896 H 0.24032 0.21978 0.05868 0.0
H897 H 0.22543 0.16875 0.04861 0.0
H898 H 0.23712 0.11487 0.05535 0.0
H899 H 0.26967 0.07701 0.07881 0.0
Mn900 Mn 0.77866 0.39177 0.12798 0.0
Mn901 Mn 0.8125 0.33554 0.08875 0.0
C902 C 0.77508 0.38617 0.06753 0.0
C903 C 0.78044 0.43979 0.14858 0.0
C904 C 0.75625 0.32915 0.12893 0.0
O905 O 0.80622 0.37752 0.16579 0.0
O906 O 0.83009 0.3425 0.13643 0.0
C907 C 0.86934 0.36269 0.07799 0.0
N908 N 0.8458 0.34918 0.06442 0.0
C909 C 0.86544 0.35054 0.00541 0.0
C910 C 0.89001 0.36428 0.01879 0.0
C911 C 0.89192 0.37043 0.05522 0.0
C912 C 0.8437 0.3432 0.02941 0.0
H913 H 0.87082 0.36753 0.10596 0.0
C914 C 0.82567 0.35809 0.16407 0.0
O915 O 0.76164 0.42146 0.1607 0.0
O916 O 0.79873 0.42989 0.12576 0.0
N917 N 0.79803 0.32596 0.0427 0.0
C918 C 0.77227 0.31401 0.03379 0.0
C919 C 0.76657 0.30723 0.99816 0.0
C920 C 0.78749 0.31253 0.97215 0.0
C921 C 0.81395 0.32454 0.98199 0.0
C922 C 0.81849 0.33066 0.01795 0.0
H923 H 0.75613 0.30983 0.05369 0.0
O924 O 0.75677 0.40193 0.08476 0.0
O925 O 0.79572 0.3746 0.08621 0.0
O926 O 0.75239 0.35601 0.13617 0.0
O927 O 0.77823 0.31961 0.11236 0.0
C928 C 0.83575 0.33127 0.95745 0.0
C929 C 0.86146 0.34431 0.96914 0.0
H930 H 0.90741 0.37042 0.00129 0.0
H931 H 0.91075 0.38117 0.06571 0.0
H932 H 0.74609 0.29796 0.99076 0.0
H933 H 0.78298 0.30741 0.94468 0.0
H934 H 0.8328 0.3269 0.92945 0.0
H935 H 0.8779 0.34974 0.94996 0.0
Mn936 Mn 0.62793 0.79322 0.1377 0.0
Mn937 Mn 0.69274 0.82616 0.13472 0.0
C938 C 0.64998 0.8001 0.08217 0.0
C939 C 0.5775 0.79501 0.13936 0.0
C940 C 0.68531 0.7623 0.15014 0.0
O941 O 0.63038 0.81036 0.1877 0.0
O942 O 0.67362 0.83009 0.18089 0.0
C943 C 0.66867 0.88532 0.1407 0.0
N944 N 0.68749 0.86641 0.1257 0.0
C945 C 0.71472 0.90507 0.09975 0.0
C946 C 0.69576 0.92515 0.11497 0.0
C947 C 0.67232 0.91519 0.13506 0.0
C948 C 0.70888 0.8756 0.10454 0.0
H949 H 0.65132 0.87761 0.15719 0.0
C950 C 0.65155 0.82474 0.19947 0.0
O951 O 0.5916 0.77275 0.15116 0.0
O952 O 0.5927 0.81635 0.12716 0.0
N953 N 0.71754 0.82652 0.09434 0.0
C954 C 0.73482 0.80443 0.08339 0.0
C955 C 0.76081 0.8105 0.06596 0.0
C956 C 0.76917 0.83938 0.0603 0.0
C957 C 0.75123 0.86192 0.07175 0.0
C958 C 0.72565 0.85447 0.08918 0.0
H959 H 0.72949 0.78236 0.08934 0.0
O960 O 0.63025 0.7809 0.0877 0.0
O961 O 0.65627 0.81662 0.10945 0.0
O962 O 0.65793 0.76216 0.15078 0.0
O963 O 0.70034 0.78478 0.14359 0.0
C964 C 0.758 0.89148 0.0672 0.0
C965 C 0.73948 0.91306 0.08065 0.0
H966 H 0.69909 0.94822 0.11161 0.0
H967 H 0.6576 0.9305 0.14695 0.0
H968 H 0.77458 0.79294 0.05744 0.0
H969 H 0.78926 0.84398 0.047 0.0
H970 H 0.77739 0.89784 0.05342 0.0
H971 H 0.74477 0.93569 0.07675 0.0
Mn972 Mn 0.23617 0.62084 0.12731 0.0
Mn973 Mn 0.20241 0.67706 0.08793 0.0
C974 C 0.23975 0.62634 0.06684 0.0
C975 C 0.23436 0.57288 0.14808 0.0
C976 C 0.25862 0.68345 0.12819 0.0
O977 O 0.2086 0.63519 0.16506 0.0
O978 O 0.18475 0.67016 0.13559 0.0
C979 C 0.14554 0.64998 0.07709 0.0
N980 N 0.16912 0.66343 0.06355 0.0
C981 C 0.14956 0.66203 0.0045 0.0
C982 C 0.12496 0.64835 0.01785 0.0
C983 C 0.12298 0.64224 0.05428 0.0
C984 C 0.17128 0.66937 0.02854 0.0
H985 H 0.14402 0.64517 0.10506 0.0
C986 C 0.18915 0.65461 0.16326 0.0
O987 O 0.25316 0.59123 0.16014 0.0
O988 O 0.21608 0.58272 0.1252 0.0
N989 N 0.21695 0.68656 0.04189 0.0
C990 C 0.24275 0.69846 0.03303 0.0
C991 C 0.2485 0.70521 0.9974 0.0
C992 C 0.22761 0.69991 0.97135 0.0
C993 C 0.20112 0.68794 0.98116 0.0
C994 C 0.19652 0.68186 0.01711 0.0
H995 H 0.25886 0.70264 0.05296 0.0
O996 O 0.25806 0.6106 0.08411 0.0
O997 O 0.21913 0.63796 0.08549 0.0
O998 O 0.26247 0.65659 0.13544 0.0
O999 O 0.23665 0.69299 0.11159 0.0
C1000 C 0.17934 0.68121 0.95657 0.0
C1001 C 0.15361 0.66822 0.96823 0.0
H1002 H 0.10757 0.64221 1.00032 0.0
H1003 H 0.10412 0.63154 0.06475 0.0
H1004 H 0.269 0.71445 0.99003 0.0
H1005 H 0.23216 0.70501 0.94389 0.0
H1006 H 0.18234 0.68554 0.92858 0.0
H1007 H 0.13718 0.66279 0.94902 0.0
Mn1008 Mn 0.38686 0.7928 0.8626 0.0
Mn1009 Mn 0.32207 0.82578 0.86542 0.0
C1010 C 0.36478 0.79983 0.9181 0.0
C1011 C 0.43729 0.79451 0.86101 0.0
C1012 C 0.32947 0.7619 0.85016 0.0
O1013 O 0.38448 0.80988 0.81256 0.0
O1014 O 0.34122 0.82959 0.81925 0.0
C1015 C 0.34615 0.88493 0.85924 0.0
N1016 N 0.32731 0.86605 0.87428 0.0
C1017 C 0.30002 0.90478 0.89998 0.0
C1018 C 0.31899 0.92482 0.8847 0.0
C1019 C 0.34247 0.91481 0.86472 0.0
C1020 C 0.30588 0.87529 0.89534 0.0
H1021 H 0.36354 0.87717 0.84285 0.0
C1022 C 0.36331 0.82422 0.80072 0.0
O1023 O 0.42317 0.77226 0.84924 0.0
O1024 O 0.42211 0.81589 0.87315 0.0
N1025 N 0.29726 0.82624 0.90579 0.0
C1026 C 0.28004 0.80417 0.91691 0.0
C1027 C 0.25406 0.81026 0.93434 0.0
C1028 C 0.24565 0.83916 0.93981 0.0
C1029 C 0.26354 0.86168 0.92819 0.0
C1030 C 0.28912 0.85421 0.91078 0.0
H1031 H 0.28544 0.78208 0.91114 0.0
O1032 O 0.38447 0.78057 0.91263 0.0
O1033 O 0.35854 0.8163 0.89075 0.0
O1034 O 0.35684 0.76175 0.84953 0.0
O1035 O 0.31445 0.78438 0.8567 0.0
C1036 C 0.25674 0.89125 0.93258 0.0
C1037 C 0.27524 0.9128 0.91902 0.0
H1038 H 0.31564 0.94789 0.88795 0.0
H1039 H 0.3572 0.93009 0.85281 0.0
H1040 H 0.24034 0.79272 0.943 0.0
H1041 H 0.22556 0.84378 0.95311 0.0
H1042 H 0.23735 0.89764 0.94634 0.0
H1043 H 0.26993 0.93544 0.92281 0.0
Mn1044 Mn 0.23619 0.39143 0.87397 0.0
Mn1045 Mn 0.20241 0.33524 0.91338 0.0
C1046 C 0.23978 0.38595 0.93445 0.0
C1047 C 0.2344 0.43939 0.85319 0.0
C1048 C 0.25862 0.32882 0.87312 0.0
O1049 O 0.20861 0.37708 0.83623 0.0
O1050 O 0.18475 0.34213 0.86573 0.0
C1051 C 0.14556 0.36235 0.92422 0.0
N1052 N 0.16913 0.34889 0.93776 0.0
C1053 C 0.14959 0.35034 0.99681 0.0
C1054 C 0.12499 0.36403 0.98346 0.0
C1055 C 0.123 0.37012 0.94702 0.0
C1056 C 0.1713 0.34298 0.97278 0.0
H1057 H 0.14403 0.36714 0.89624 0.0
C1058 C 0.18916 0.35766 0.83804 0.0
O1059 O 0.25319 0.42104 0.84113 0.0
O1060 O 0.21612 0.42956 0.87607 0.0
N1061 N 0.21696 0.32575 0.95943 0.0
C1062 C 0.24275 0.31385 0.9683 0.0
C1063 C 0.24851 0.30713 0.00393 0.0
C1064 C 0.22763 0.31246 0.02999 0.0
C1065 C 0.20114 0.32443 0.02017 0.0
C1066 C 0.19653 0.33048 0.98422 0.0
H1067 H 0.25886 0.30965 0.94837 0.0
O1068 O 0.25809 0.40168 0.91716 0.0
O1069 O 0.21915 0.37433 0.9158 0.0
O1070 O 0.26247 0.35568 0.86586 0.0
O1071 O 0.23665 0.31929 0.88973 0.0
C1072 C 0.17937 0.33118 0.04475 0.0
C1073 C 0.15363 0.34417 0.03309 0.0
H1074 H 0.1076 0.37019 0.00098 0.0
H1075 H 0.10416 0.38082 0.93655 0.0
H1076 H 0.269 0.29788 0.01131 0.0
H1077 H 0.23218 0.30738 0.05745 0.0
H1078 H 0.18237 0.32686 0.07276 0.0
H1079 H 0.13722 0.34962 0.0523 0.0
Mn1080 Mn 0.62781 0.21861 0.86328 0.0
Mn1081 Mn 0.69261 0.18564 0.86622 0.0
C1082 C 0.64988 0.21173 0.9188 0.0
C1083 C 0.57738 0.21686 0.86166 0.0
C1084 C 0.68521 0.2495 0.85082 0.0
O1085 O 0.63023 0.20147 0.81327 0.0
O1086 O 0.67347 0.18174 0.82006 0.0
C1087 C 0.66847 0.1265 0.86021 0.0
N1088 N 0.68732 0.14539 0.87521 0.0
C1089 C 0.7145 0.10668 0.90116 0.0
C1090 C 0.69551 0.08663 0.88593 0.0
C1091 C 0.67209 0.09663 0.86584 0.0
C1092 C 0.70869 0.13617 0.89637 0.0
H1093 H 0.65113 0.13424 0.84373 0.0
C1094 C 0.6514 0.1871 0.80148 0.0
O1095 O 0.59149 0.23911 0.84984 0.0
O1096 O 0.59257 0.19551 0.87385 0.0
N1097 N 0.71742 0.18524 0.90659 0.0
C1098 C 0.73474 0.2073 0.91753 0.0
C1099 C 0.76072 0.20119 0.93496 0.0
C1100 C 0.76904 0.1723 0.94062 0.0
C1101 C 0.75107 0.14978 0.92916 0.0
C1102 C 0.72549 0.15727 0.91174 0.0
H1103 H 0.72943 0.22938 0.91159 0.0
O1104 O 0.63016 0.23093 0.91327 0.0
O1105 O 0.65615 0.19519 0.89151 0.0
O1106 O 0.65784 0.24965 0.85018 0.0
O1107 O 0.70023 0.22702 0.85738 0.0
C1108 C 0.75779 0.12022 0.93371 0.0
C1109 C 0.73925 0.09866 0.92026 0.0
H1110 H 0.69881 0.06356 0.88929 0.0
H1111 H 0.65734 0.08134 0.85395 0.0
H1112 H 0.77451 0.21873 0.94347 0.0
H1113 H 0.78912 0.16767 0.95391 0.0
H1114 H 0.77718 0.11382 0.94749 0.0
H1115 H 0.7445 0.07603 0.92415 0.0
Mn1116 Mn 0.77852 0.62006 0.873 0.0
Mn1117 Mn 0.81238 0.6763 0.91217 0.0
C1118 C 0.77499 0.62567 0.93346 0.0
C1119 C 0.78028 0.57204 0.85241 0.0
C1120 C 0.7561 0.68268 0.87204 0.0
O1121 O 0.80605 0.63431 0.83515 0.0
O1122 O 0.82994 0.66933 0.86448 0.0
C1123 C 0.86923 0.64917 0.9229 0.0
N1124 N 0.8457 0.66268 0.93648 0.0
C1125 C 0.86537 0.66134 0.99547 0.0
C1126 C 0.88993 0.6476 0.98208 0.0
C1127 C 0.89183 0.64143 0.94565 0.0
C1128 C 0.84361 0.66866 0.97149 0.0
H1129 H 0.87069 0.64432 0.89493 0.0
C1130 C 0.8255 0.65373 0.83685 0.0
O1131 O 0.76147 0.59036 0.84031 0.0
O1132 O 0.79859 0.58194 0.8752 0.0
N1133 N 0.79794 0.68589 0.95823 0.0
C1134 C 0.77217 0.69783 0.96715 0.0
C1135 C 0.76649 0.70462 0.00279 0.0
C1136 C 0.78743 0.69934 0.02879 0.0
C1137 C 0.81389 0.68733 0.01892 0.0
C1138 C 0.81842 0.6812 0.98296 0.0
H1139 H 0.75602 0.702 0.94727 0.0
O1140 O 0.75666 0.6099 0.91625 0.0
O1141 O 0.79561 0.63724 0.91474 0.0
O1142 O 0.75223 0.65581 0.86482 0.0
O1143 O 0.77809 0.69223 0.88858 0.0
C1144 C 0.83571 0.68061 0.04345 0.0
C1145 C 0.86141 0.66758 0.03174 0.0
H1146 H 0.90735 0.64146 0.99956 0.0
H1147 H 0.91065 0.6307 0.93515 0.0
H1148 H 0.74602 0.7139 0.01021 0.0
H1149 H 0.78295 0.70447 0.05625 0.0
H1150 H 0.83278 0.68499 0.07145 0.0
H1151 H 0.87787 0.66215 0.05091 0.0
C1152 C 0.20462 0.1992 0.36584 0.0
C1153 C 0.23415 0.20529 0.36378 0.0
H1154 H 0.16187 0.21668 0.36786 0.0
C1155 C 0.24278 0.23396 0.3572 0.0
H1156 H 0.19732 0.17734 0.37108 0.0
C1157 C 0.2227 0.25632 0.35514 0.0
C1158 C 0.19326 0.25081 0.35994 0.0
H1159 H 0.26535 0.23938 0.35507 0.0
H1160 H 0.23052 0.27822 0.35147 0.0
C1161 C 0.18434 0.22179 0.36405 0.0
C1162 C 0.77962 0.20148 0.37393 0.0
C1163 C 0.77946 0.18497 0.34282 0.0
H1164 H 0.7977 0.23727 0.40165 0.0
C1165 C 0.79672 0.19343 0.31405 0.0
H1166 H 0.76634 0.19536 0.39629 0.0
C1167 C 0.81415 0.21818 0.31672 0.0
C1168 C 0.8141 0.23468 0.34803 0.0
H1169 H 0.79626 0.18129 0.28946 0.0
H1170 H 0.82697 0.22484 0.29418 0.0
C1171 C 0.79722 0.22569 0.37677 0.0
C1172 C 0.83063 0.79078 0.36306 0.0
C1173 C 0.82171 0.76176 0.35889 0.0
H1174 H 0.81766 0.83523 0.37012 0.0
C1175 C 0.79227 0.75626 0.35403 0.0
H1176 H 0.85309 0.79588 0.3669 0.0
C1177 C 0.77219 0.77862 0.35608 0.0
C1178 C 0.78082 0.80729 0.3627 0.0
H1179 H 0.78446 0.73436 0.35032 0.0
H1180 H 0.74963 0.77322 0.3539 0.0
C1181 C 0.81035 0.81337 0.36483 0.0
C1182 C 0.21782 0.78699 0.37593 0.0
C1183 C 0.20084 0.77802 0.34726 0.0
H1184 H 0.24875 0.81732 0.39533 0.0
C1185 C 0.2007 0.79454 0.31596 0.0
H1186 H 0.21743 0.7754 0.40079 0.0
C1187 C 0.21813 0.8193 0.31323 0.0
C1188 C 0.23547 0.82774 0.34193 0.0
H1189 H 0.18782 0.78789 0.29348 0.0
H1190 H 0.21852 0.83144 0.28865 0.0
C1191 C 0.2354 0.81121 0.37303 0.0
C1192 C 0.22253 0.75583 0.64626 0.0
C1193 C 0.19309 0.76132 0.6414 0.0
H1194 H 0.26517 0.77279 0.64637 0.0
C1195 C 0.18416 0.79034 0.63724 0.0
H1196 H 0.23035 0.73394 0.64997 0.0
C1197 C 0.20444 0.81293 0.63546 0.0
C1198 C 0.23397 0.80686 0.63757 0.0
H1199 H 0.1617 0.79543 0.63339 0.0
H1200 H 0.19713 0.83479 0.63018 0.0
C1201 C 0.24261 0.77819 0.6442 0.0
C1202 C 0.21802 0.19287 0.68807 0.0
C1203 C 0.23539 0.18445 0.6594 0.0
H1204 H 0.1877 0.22427 0.7078 0.0
C1205 C 0.23539 0.20101 0.62832 0.0
H1206 H 0.21836 0.1807 0.71263 0.0
C1207 C 0.21783 0.22525 0.62543 0.0
C1208 C 0.20082 0.2342 0.65407 0.0
H1209 H 0.24876 0.19492 0.60604 0.0
H1210 H 0.21748 0.23687 0.60058 0.0
C1211 C 0.20061 0.21764 0.68534 0.0
C1212 C 0.81034 0.19855 0.63614 0.0
C1213 C 0.78081 0.20462 0.63829 0.0
H1214 H 0.85308 0.21605 0.63402 0.0
C1215 C 0.77218 0.2333 0.64491 0.0
H1216 H 0.81764 0.17669 0.63086 0.0
C1217 C 0.79226 0.25566 0.64692 0.0
C1218 C 0.82169 0.25017 0.64204 0.0
H1219 H 0.74962 0.2387 0.6471 0.0
H1220 H 0.78444 0.27756 0.65063 0.0
C1221 C 0.83062 0.22115 0.63788 0.0
C1222 C 0.81403 0.79368 0.68423 0.0
C1223 C 0.81395 0.77719 0.65291 0.0
H1224 H 0.79617 0.83057 0.71153 0.0
C1225 C 0.79705 0.78619 0.62419 0.0
H1226 H 0.82686 0.78701 0.70675 0.0
C1227 C 0.77946 0.81041 0.62706 0.0
C1228 C 0.77934 0.82692 0.65818 0.0
H1229 H 0.7975 0.77462 0.59932 0.0
H1230 H 0.76617 0.81655 0.60472 0.0
C1231 C 0.79661 0.81844 0.68693 0.0
C1232 C 0.68414 0.72111 0.86311 0.0
C1233 C 0.69307 0.75013 0.85892 0.0
H1234 H 0.6971 0.67666 0.87017 0.0
C1235 C 0.7225 0.75561 0.85401 0.0
H1236 H 0.66167 0.71602 0.86699 0.0
C1237 C 0.74257 0.73324 0.85604 0.0
C1238 C 0.73394 0.70458 0.8627 0.0
H1239 H 0.73032 0.7775 0.85028 0.0
H1240 H 0.76513 0.73864 0.85384 0.0
C1241 C 0.70441 0.69851 0.86487 0.0
C1242 C 0.27933 0.70106 0.87299 0.0
C1243 C 0.27934 0.6845 0.84191 0.0
H1244 H 0.29722 0.7369 0.90077 0.0
C1245 C 0.29672 0.69295 0.81325 0.0
H1246 H 0.26595 0.69494 0.89526 0.0
C1247 C 0.31413 0.71772 0.81602 0.0
C1248 C 0.31391 0.73426 0.8473 0.0
H1249 H 0.29639 0.68079 0.78868 0.0
H1250 H 0.32706 0.72436 0.79357 0.0
C1251 C 0.29689 0.72529 0.87592 0.0
C1252 C 0.29219 0.25588 0.85507 0.0
C1253 C 0.32163 0.26137 0.85992 0.0
H1254 H 0.24955 0.27285 0.85497 0.0
C1255 C 0.33057 0.29038 0.86408 0.0
H1256 H 0.28436 0.23399 0.85138 0.0
C1257 C 0.31029 0.31299 0.86586 0.0
C1258 C 0.28076 0.30692 0.86376 0.0
H1259 H 0.35303 0.29547 0.86792 0.0
H1260 H 0.31761 0.33484 0.87113 0.0
C1261 C 0.27212 0.27825 0.85713 0.0
C1262 C 0.71768 0.28611 0.87676 0.0
C1263 C 0.70077 0.27714 0.84804 0.0
H1264 H 0.74857 0.31644 0.89627 0.0
C1265 C 0.70069 0.29366 0.81674 0.0
H1266 H 0.71722 0.27452 0.90163 0.0
C1267 C 0.71811 0.31842 0.81407 0.0
C1268 C 0.73539 0.32687 0.84282 0.0
H1269 H 0.68785 0.28701 0.79422 0.0
H1270 H 0.71855 0.33057 0.78949 0.0
C1271 C 0.73527 0.31033 0.87392 0.0
C1272 C 0.72263 0.2562 0.14685 0.0
C1273 C 0.69319 0.26171 0.14202 0.0
H1274 H 0.76527 0.27315 0.14699 0.0
C1275 C 0.68427 0.29073 0.1379 0.0
H1276 H 0.73044 0.2343 0.15053 0.0
C1277 C 0.70456 0.31333 0.13616 0.0
C1278 C 0.73409 0.30724 0.13826 0.0
H1279 H 0.66181 0.29584 0.13408 0.0
H1280 H 0.69726 0.33519 0.13092 0.0
C1281 C 0.74271 0.27856 0.14484 0.0
C1282 C 0.73532 0.70144 0.12704 0.0
C1283 C 0.73548 0.68494 0.15816 0.0
H1284 H 0.71724 0.73723 0.09931 0.0
C1285 C 0.71823 0.69341 0.18693 0.0
H1286 H 0.74859 0.69531 0.10468 0.0
C1287 C 0.7008 0.71817 0.18425 0.0
C1288 C 0.70085 0.73466 0.15294 0.0
H1289 H 0.7187 0.68129 0.21153 0.0
H1290 H 0.688 0.72484 0.20679 0.0
C1291 C 0.71773 0.72566 0.12419 0.0
C1292 C 0.27216 0.73401 0.14418 0.0
C1293 C 0.28078 0.70534 0.13757 0.0
H1294 H 0.28444 0.77826 0.14994 0.0
C1295 C 0.31031 0.69924 0.13549 0.0
H1296 H 0.2496 0.73942 0.14631 0.0
C1297 C 0.3306 0.72183 0.13729 0.0
C1298 C 0.32168 0.75085 0.14144 0.0
H1299 H 0.31761 0.67738 0.13023 0.0
H1300 H 0.35306 0.71672 0.13347 0.0
C1301 C 0.29225 0.75636 0.14626 0.0
C1302 C 0.2968 0.31938 0.18811 0.0
C1303 C 0.27947 0.32782 0.1594 0.0
H1304 H 0.3271 0.28797 0.20788 0.0
C1305 C 0.27955 0.3113 0.1283 0.0
H1306 H 0.29641 0.33153 0.21269 0.0
C1307 C 0.29714 0.28708 0.12541 0.0
C1308 C 0.31409 0.2781 0.15409 0.0
H1309 H 0.26621 0.31741 0.10599 0.0
H1310 H 0.29754 0.27548 0.10055 0.0
C1311 C 0.31423 0.29462 0.18539 0.0
C1312 C 0.98574 0.27227 0.34993 0.0
C1313 C 0.96936 0.29583 0.3623 0.0
H1314 H 0.0278 0.25424 0.34244 0.0
C1315 C 0.98379 0.32003 0.37624 0.0
H1316 H 0.97532 0.25328 0.33904 0.0
C1317 C 0.01377 0.32056 0.37821 0.0
C1318 C 0.03019 0.29691 0.36628 0.0
H1319 H 0.97191 0.33855 0.38601 0.0
H1320 H 0.02407 0.3395 0.38942 0.0
C1321 C 0.01583 0.27281 0.35187 0.0
C1322 C 0.71471 0.01964 0.34938 0.0
C1323 C 0.74076 0.03231 0.33882 0.0
H1324 H 0.69234 0.98037 0.36214 0.0
C1325 C 0.76364 0.01403 0.32907 0.0
H1326 H 0.69672 0.03308 0.35714 0.0
C1327 C 0.76098 0.98385 0.33131 0.0
C1328 C 0.73557 0.97125 0.34403 0.0
H1329 H 0.78396 0.02308 0.32058 0.0
H1330 H 0.77936 0.9705 0.32481 0.0
C1331 C 0.71225 0.98944 0.35232 0.0
C1332 C 0.02924 0.74045 0.34927 0.0
C1333 C 0.04561 0.71687 0.36157 0.0
H1334 H 0.98718 0.75849 0.34178 0.0
C1335 C 0.03118 0.69262 0.3754 0.0
H1336 H 0.03966 0.75948 0.33847 0.0
C1337 C 1.00119 0.69208 0.37732 0.0
C1338 C 0.98479 0.71575 0.36545 0.0
H1339 H 0.04306 0.67408 0.38511 0.0
H1340 H 0.99089 0.6731 0.38843 0.0
C1341 C 0.99915 0.73989 0.35117 0.0
C1342 C 0.3003 0.99301 0.3497 0.0
C1343 C 0.27427 0.98039 0.33895 0.0
H1344 H 0.32265 0.03222 0.36281 0.0
C1345 C 0.25142 0.99872 0.32926 0.0
H1346 H 0.31827 0.97953 0.35742 0.0
C1347 C 0.25408 0.02888 0.33172 0.0
C1348 C 0.27946 0.04143 0.34461 0.0
H1349 H 0.23112 0.98972 0.32063 0.0
H1350 H 0.23572 0.04227 0.32524 0.0
C1351 C 0.30276 0.0232 0.35286 0.0
C1352 C 0.01367 0.69142 0.6229 0.0
C1353 C 0.03005 0.71508 0.63488 0.0
H1354 H 0.97182 0.67339 0.61502 0.0
C1355 C 0.01566 0.73915 0.64927 0.0
H1356 H 0.02399 0.67249 0.61169 0.0
C1357 C 0.98557 0.73967 0.65118 0.0
C1358 C 0.96923 0.71611 0.63876 0.0
H1359 H 0.02761 0.75773 0.65874 0.0
H1360 H 0.97513 0.75865 0.66206 0.0
C1361 C 0.98368 0.69192 0.62483 0.0
C1362 C 0.25383 0.98328 0.66954 0.0
C1363 C 0.27923 0.97073 0.65671 0.0
H1364 H 0.23088 0.02245 0.68058 0.0
C1365 C 0.30255 0.98895 0.64851 0.0
H1366 H 0.23547 0.9699 0.67598 0.0
C1367 C 0.3001 0.01914 0.65167 0.0
C1368 C 0.27406 0.03177 0.66236 0.0
H1369 H 0.32245 0.97992 0.63861 0.0
H1370 H 0.31809 0.03261 0.64398 0.0
C1371 C 0.25118 0.01344 0.672 0.0
C1372 C 0.03113 0.3195 0.62578 0.0
C1373 C 0.04558 0.29528 0.63965 0.0
H1374 H 0.99084 0.33896 0.61264 0.0
C1375 C 0.02922 0.27168 0.65194 0.0
H1376 H 0.043 0.33805 0.61607 0.0
C1377 C 0.99913 0.27219 0.64997 0.0
C1378 C 0.98476 0.29631 0.63564 0.0
H1379 H 0.03965 0.25267 0.66277 0.0
H1380 H 0.98717 0.25359 0.65935 0.0
C1381 C 1.00115 0.32 0.62379 0.0
C1382 C 0.71222 0.02248 0.64872 0.0
C1383 C 0.73554 0.04066 0.657 0.0
H1384 H 0.69667 0.97884 0.64389 0.0
C1385 C 0.76095 0.02805 0.66971 0.0
H1386 H 0.69231 0.03155 0.6389 0.0
C1387 C 0.76361 0.99788 0.67195 0.0
C1388 C 0.74072 0.9796 0.66221 0.0
H1389 H 0.77933 0.0414 0.67621 0.0
H1390 H 0.78392 0.98882 0.68044 0.0
C1391 C 0.71467 0.99228 0.65165 0.0
C1392 C 0.51562 0.77218 0.8512 0.0
C1393 C 0.53002 0.7963 0.8655 0.0
H1394 H 0.47509 0.75266 0.83848 0.0
C1395 C 0.51364 0.81999 0.87738 0.0
H1396 H 0.52757 0.75358 0.84181 0.0
C1397 C 0.48366 0.81949 0.87545 0.0
C1398 C 0.46919 0.79527 0.86161 0.0
H1399 H 0.52397 0.83895 0.8885 0.0
H1400 H 0.4718 0.83805 0.88517 0.0
C1401 C 0.48554 0.77167 0.84929 0.0
C1402 C 0.26089 0.48333 0.83175 0.0
C1403 C 0.23549 0.47078 0.84461 0.0
H1404 H 0.28384 0.52251 0.82069 0.0
C1405 C 0.21218 0.48901 0.85282 0.0
H1406 H 0.27925 0.46995 0.8253 0.0
C1407 C 0.21463 0.5192 0.84966 0.0
C1408 C 0.24067 0.53182 0.83895 0.0
H1409 H 0.19228 0.47998 0.86274 0.0
H1410 H 0.19665 0.53267 0.85735 0.0
C1411 C 0.26354 0.51349 0.82929 0.0
C1412 C 0.50104 0.19143 0.87824 0.0
C1413 C 0.48465 0.21509 0.8663 0.0
H1414 H 0.54289 0.17339 0.88604 0.0
C1415 C 0.49903 0.23916 0.85187 0.0
H1416 H 0.49073 0.1725 0.88947 0.0
C1417 C 0.52912 0.23966 0.8499 0.0
C1418 C 0.54547 0.2161 0.86229 0.0
H1419 H 0.48708 0.25774 0.84242 0.0
H1420 H 0.53956 0.25864 0.839 0.0
C1421 C 0.53103 0.19192 0.87626 0.0
C1422 C 0.80005 0.49223 0.84933 0.0
C1423 C 0.774 0.47955 0.83881 0.0
H1424 H 0.82243 0.53151 0.86205 0.0
C1425 C 0.7511 0.49783 0.82908 0.0
H1426 H 0.81806 0.4788 0.85707 0.0
C1427 C 0.75376 0.528 0.83131 0.0
C1428 C 0.77918 0.54062 0.844 0.0
H1429 H 0.73078 0.48877 0.82062 0.0
H1430 H 0.73538 0.54135 0.82484 0.0
C1431 C 0.80251 0.52243 0.85226 0.0
C1432 C 0.48368 0.19262 0.12578 0.0
C1433 C 0.46928 0.21686 0.13964 0.0
H1434 H 0.52395 0.17309 0.11266 0.0
C1435 C 0.48567 0.24044 0.15192 0.0
H1436 H 0.47179 0.17407 0.11608 0.0
C1437 C 0.51575 0.23988 0.14996 0.0
C1438 C 0.53009 0.21574 0.13565 0.0
H1439 H 0.47526 0.25946 0.16274 0.0
H1440 H 0.52774 0.25847 0.15933 0.0
C1441 C 0.51367 0.19207 0.1238 0.0
C1442 C 0.75128 0.51399 0.17195 0.0
C1443 C 0.77416 0.53227 0.1622 0.0
H1444 H 0.73556 0.47046 0.17622 0.0
C1445 C 0.8002 0.5196 0.15164 0.0
H1446 H 0.73096 0.52304 0.18045 0.0
C1447 C 0.80266 0.4894 0.1487 0.0
C1448 C 0.77934 0.47121 0.15699 0.0
H1449 H 0.8182 0.53304 0.14387 0.0
H1450 H 0.82257 0.48033 0.13888 0.0
C1451 C 0.75393 0.48382 0.16972 0.0
C1452 C 0.50118 0.82057 0.12298 0.0
C1453 C 0.48477 0.79692 0.13495 0.0
H1454 H 0.54304 0.83855 0.1151 0.0
C1455 C 0.49914 0.77282 0.14932 0.0
H1456 H 0.49087 0.83951 0.1118 0.0
C1457 C 0.52923 0.77227 0.15121 0.0
C1458 C 0.54559 0.79582 0.1388 0.0
H1459 H 0.48717 0.75425 0.15878 0.0
H1460 H 0.53965 0.75327 0.16207 0.0
C1461 C 0.53116 0.82003 0.1249 0.0
C1462 C 0.26349 0.49879 0.17204 0.0
C1463 C 0.24064 0.48045 0.16234 0.0
H1464 H 0.27919 0.54234 0.17605 0.0
C1465 C 0.21461 0.49307 0.15159 0.0
H1466 H 0.28379 0.48979 0.18067 0.0
C1467 C 0.21215 0.52326 0.14842 0.0
C1468 C 0.23545 0.54149 0.15667 0.0
H1469 H 0.19664 0.47959 0.14386 0.0
H1470 H 0.19227 0.53228 0.13846 0.0
C1471 C 0.26083 0.52895 0.16957 0.0
C1472 C 0.15586 0.28379 0.48675 0.0
C1473 C 0.14237 0.30798 0.47146 0.0
H1474 H 0.17131 0.26343 0.53417 0.0
C1475 C 0.13646 0.33198 0.49337 0.0
H1476 H 0.16004 0.26469 0.47086 0.0
C1477 C 0.14331 0.3314 0.5299 0.0
C1478 C 0.15579 0.30662 0.54539 0.0
H1479 H 0.12516 0.35053 0.48269 0.0
H1480 H 0.13636 0.34919 0.54655 0.0
C1481 C 0.1628 0.28329 0.52298 0.0
C1482 C 0.76845 0.12967 0.5126 0.0
C1483 C 0.74153 0.12621 0.52859 0.0
H1484 H 0.7928 0.12905 0.46487 0.0
C1485 C 0.71789 0.11866 0.50748 0.0
H1486 H 0.78721 0.13445 0.52855 0.0
C1487 C 0.72085 0.11635 0.47058 0.0
C1488 C 0.74783 0.12019 0.45446 0.0
H1489 H 0.69729 0.11416 0.51955 0.0
H1490 H 0.70217 0.11097 0.45481 0.0
C1491 C 0.77161 0.12652 0.47605 0.0
C1492 C 0.85896 0.72822 0.48573 0.0
C1493 C 0.87248 0.70413 0.47027 0.0
H1494 H 0.84347 0.74833 0.53328 0.0
C1495 C 0.87841 0.68003 0.49201 0.0
H1496 H 0.85475 0.74739 0.46998 0.0
C1497 C 0.87155 0.68042 0.52853 0.0
C1498 C 0.85905 0.70511 0.5442 0.0
H1499 H 0.88974 0.66154 0.4812 0.0
H1500 H 0.87853 0.66256 0.54506 0.0
C1501 C 0.852 0.72854 0.52195 0.0
C1502 C 0.24642 0.88211 0.51187 0.0
C1503 C 0.27331 0.88549 0.52792 0.0
H1504 H 0.22211 0.88295 0.46411 0.0
C1505 C 0.29698 0.89309 0.5069 0.0
H1506 H 0.22763 0.87729 0.52776 0.0
C1507 C 0.29407 0.89555 0.47001 0.0
C1508 C 0.2671 0.89182 0.45382 0.0
H1509 H 0.31758 0.89753 0.51903 0.0
H1510 H 0.31277 0.90097 0.4543 0.0
C1511 C 0.24329 0.88541 0.47533 0.0
C1512 C 0.16277 0.72887 0.47835 0.0
C1513 C 0.15579 0.70554 0.45592 0.0
H1514 H 0.15996 0.74745 0.53047 0.0
C1515 C 0.14333 0.68074 0.47138 0.0
H1516 H 0.17127 0.74874 0.46718 0.0
C1517 C 0.13645 0.68015 0.5079 0.0
C1518 C 0.14232 0.70415 0.52983 0.0
H1519 H 0.1364 0.66295 0.45471 0.0
H1520 H 0.12516 0.66158 0.51856 0.0
C1521 C 0.1558 0.72835 0.51457 0.0
C1522 C 0.2465 0.13004 0.4894 0.0
C1523 C 0.27341 0.12665 0.4734 0.0
H1524 H 0.22214 0.12921 0.53711 0.0
C1525 C 0.29706 0.11905 0.49448 0.0
H1526 H 0.22774 0.13486 0.47347 0.0
C1527 C 0.2941 0.11661 0.53137 0.0
C1528 C 0.26711 0.12034 0.54749 0.0
H1529 H 0.31767 0.11462 0.48239 0.0
H1530 H 0.31278 0.11118 0.54711 0.0
C1531 C 0.24333 0.12675 0.52593 0.0
C1532 C 0.85208 0.28338 0.47895 0.0
C1533 C 0.85912 0.30682 0.45671 0.0
H1534 H 0.85481 0.26452 0.53092 0.0
C1535 C 0.87161 0.33151 0.47239 0.0
H1536 H 0.84356 0.26359 0.4676 0.0
C1537 C 0.87845 0.3319 0.50892 0.0
C1538 C 0.87252 0.3078 0.53065 0.0
H1539 H 0.87858 0.34938 0.45587 0.0
H1540 H 0.88976 0.35039 0.51974 0.0
C1541 C 0.85901 0.2837 0.51518 0.0
C1542 C 0.72079 0.89553 0.53043 0.0
C1543 C 0.74777 0.8917 0.54657 0.0
H1544 H 0.69726 0.89772 0.48145 0.0
C1545 C 0.77156 0.88537 0.525 0.0
H1546 H 0.70211 0.9009 0.5462 0.0
C1547 C 0.76841 0.88222 0.48844 0.0
C1548 C 0.74151 0.88568 0.47244 0.0
H1549 H 0.79275 0.88285 0.53619 0.0
H1550 H 0.78718 0.87745 0.47251 0.0
C1551 C 0.71786 0.89323 0.49353 0.0
C1552 C 0.6433 0.83147 0.02859 0.0
C1553 C 0.65579 0.80678 0.04425 0.0
H1554 H 0.62512 0.85037 0.98127 0.0
C1555 C 0.66282 0.78334 0.02199 0.0
H1556 H 0.63634 0.84934 0.04513 0.0
C1557 C 0.65586 0.78367 0.98577 0.0
C1558 C 0.64235 0.80778 0.97032 0.0
H1559 H 0.67135 0.76355 0.03332 0.0
H1560 H 0.66005 0.7645 0.97001 0.0
C1561 C 0.63644 0.83188 0.99207 0.0
C1562 C 0.22071 0.61671 0.96995 0.0
C1563 C 0.2477 0.62043 0.95379 0.0
H1564 H 0.19718 0.61473 0.01895 0.0
C1565 C 0.2715 0.62682 0.97532 0.0
H1566 H 0.20202 0.61129 0.95422 0.0
C1567 C 0.26836 0.63012 0.01186 0.0
C1568 C 0.24145 0.62674 0.02789 0.0
H1569 H 0.29268 0.62927 0.96412 0.0
H1570 H 0.28713 0.63493 0.02777 0.0
C1571 C 0.21779 0.61916 0.00684 0.0
C1572 C 0.35205 0.22894 0.023 0.0
C1573 C 0.35903 0.20559 0.04542 0.0
H1574 H 0.35484 0.24752 0.97088 0.0
C1575 C 0.37146 0.18079 0.02994 0.0
H1576 H 0.34357 0.2488 0.03419 0.0
C1577 C 0.37832 0.1802 0.99342 0.0
C1578 C 0.37245 0.20421 0.9715 0.0
H1579 H 0.37839 0.16299 0.0466 0.0
H1580 H 0.38959 0.16163 0.98275 0.0
C1581 C 0.359 0.22841 0.98678 0.0
C1582 C 0.79697 0.39322 0.00747 0.0
C1583 C 0.77334 0.38566 0.02858 0.0
H1584 H 0.81268 0.4009 0.95479 0.0
C1585 C 0.74642 0.38219 0.01261 0.0
H1586 H 0.81758 0.39772 0.01953 0.0
C1587 C 0.74324 0.38534 0.97606 0.0
C1588 C 0.76702 0.39167 0.95446 0.0
H1589 H 0.72766 0.37741 0.02857 0.0
H1590 H 0.72205 0.3828 0.96489 0.0
C1591 C 0.79401 0.39552 0.97057 0.0
C1592 C 0.65584 0.22818 0.01518 0.0
C1593 C 0.64231 0.20409 0.03066 0.0
H1594 H 0.67131 0.24827 0.96761 0.0
C1595 C 0.63636 0.17999 0.00893 0.0
H1596 H 0.66007 0.24735 0.03093 0.0
C1597 C 0.64319 0.18038 0.9724 0.0
C1598 C 0.6557 0.20505 0.95672 0.0
H1599 H 0.62502 0.16151 0.01975 0.0
H1600 H 0.63619 0.16252 0.95588 0.0
C1601 C 0.66277 0.22849 0.97895 0.0
C1602 C 0.79402 0.61632 0.03039 0.0
C1603 C 0.76704 0.62015 0.04654 0.0
H1604 H 0.81754 0.61413 0.9814 0.0
C1605 C 0.74325 0.62648 0.02497 0.0
H1606 H 0.81271 0.61095 0.04615 0.0
C1607 C 0.74638 0.62963 0.98842 0.0
C1608 C 0.77329 0.62618 0.97241 0.0
H1609 H 0.72207 0.629 0.03617 0.0
H1610 H 0.72761 0.6344 0.97249 0.0
C1611 C 0.79694 0.61863 0.99349 0.0
C1612 C 0.35206 0.78333 0.97842 0.0
C1613 C 0.35906 0.80667 0.956 0.0
H1614 H 0.35484 0.76474 0.03053 0.0
C1615 C 0.37155 0.83145 0.97148 0.0
H1616 H 0.34353 0.76348 0.96723 0.0
C1617 C 0.37842 0.83202 0.008 0.0
C1618 C 0.37252 0.80802 0.02992 0.0
H1619 H 0.37849 0.84924 0.95482 0.0
H1620 H 0.38973 0.85058 0.01867 0.0
C1621 C 0.35902 0.78384 0.01464 0.0
C1622 C 0.21784 0.39317 0.99445 0.0
C1623 C 0.2415 0.38556 0.9734 0.0
H1624 H 0.20209 0.40105 0.04707 0.0
C1625 C 0.2684 0.38217 0.98942 0.0
H1626 H 0.19724 0.39761 0.98234 0.0
C1627 C 0.27155 0.38547 0.02596 0.0
C1628 C 0.24776 0.39188 0.04749 0.0
H1629 H 0.28717 0.37735 0.97351 0.0
H1630 H 0.29273 0.383 0.03716 0.0
C1631 C 0.22077 0.39562 0.03134 0.0
C1632 C 0.15649 0.39207 0.25231 0.0
C1633 C 0.1622 0.37385 0.22356 0.0
H1634 H 0.14133 0.39516 0.30548 0.0
C1635 C 0.15171 0.34526 0.22402 0.0
H1636 H 0.16463 0.41407 0.25263 0.0
C1637 C 0.13862 0.33411 0.25472 0.0
C1638 C 0.13593 0.35157 0.28505 0.0
H1639 H 0.15639 0.33071 0.20222 0.0
H1640 H 0.1337 0.3112 0.256 0.0
C1641 C 0.14313 0.38114 0.28258 0.0
C1642 C 0.63877 0.17895 0.24747 0.0
C1643 C 0.6357 0.16135 0.21733 0.0
H1644 H 0.65692 0.18249 0.29975 0.0
C1645 C 0.6426 0.13171 0.21998 0.0
H1646 H 0.6341 0.20192 0.24601 0.0
C1647 C 0.65602 0.12082 0.25023 0.0
C1648 C 0.66212 0.13915 0.27876 0.0
H1649 H 0.64051 0.11759 0.19722 0.0
H1650 H 0.66393 0.09873 0.25003 0.0
C1651 C 0.65194 0.16785 0.27813 0.0
C1652 C 0.86297 0.66785 0.22281 0.0
C1653 C 0.85283 0.63914 0.2222 0.0
H1654 H 0.88077 0.70195 0.25491 0.0
C1655 C 0.85895 0.62082 0.25073 0.0
H1656 H 0.85796 0.68248 0.2012 0.0
C1657 C 0.87238 0.63173 0.28096 0.0
C1658 C 0.87923 0.66138 0.28361 0.0
H1659 H 0.85107 0.59873 0.25093 0.0
H1660 H 0.87448 0.61762 0.30373 0.0
C1661 C 0.87614 0.67898 0.25346 0.0
C1662 C 0.37633 0.83407 0.24666 0.0
C1663 C 0.37906 0.85155 0.21635 0.0
H1664 H 0.35851 0.83063 0.29911 0.0
C1665 C 0.3719 0.88113 0.21885 0.0
H1666 H 0.38122 0.81115 0.24533 0.0
C1667 C 0.35853 0.89205 0.24912 0.0
C1668 C 0.35277 0.8738 0.27784 0.0
H1669 H 0.37374 0.89517 0.19597 0.0
H1670 H 0.35041 0.91405 0.24882 0.0
C1671 C 0.36322 0.84521 0.27735 0.0
C1672 C 0.15159 0.66686 0.77724 0.0
C1673 C 0.16212 0.63829 0.77771 0.0
H1674 H 0.13353 0.70089 0.74526 0.0
C1675 C 0.15643 0.62005 0.74896 0.0
H1676 H 0.15625 0.68142 0.79904 0.0
C1677 C 0.14305 0.63096 0.71869 0.0
C1678 C 0.13581 0.66052 0.71622 0.0
H1679 H 0.16461 0.59807 0.74864 0.0
H1680 H 0.14127 0.61693 0.69579 0.0
C1681 C 0.13847 0.67798 0.74655 0.0
C1682 C 0.35821 0.12003 0.75242 0.0
C1683 C 0.35257 0.13824 0.72364 0.0
H1684 H 0.37332 0.11693 0.80562 0.0
C1685 C 0.36314 0.1668 0.72409 0.0
H1686 H 0.35001 0.09805 0.75276 0.0
C1687 C 0.37624 0.17794 0.75479 0.0
C1688 C 0.37885 0.1605 0.78514 0.0
H1689 H 0.35852 0.18135 0.70226 0.0
H1690 H 0.38122 0.20084 0.75606 0.0
C1691 C 0.37158 0.13094 0.7827 0.0
C1692 C 0.87608 0.333 0.74745 0.0
C1693 C 0.87911 0.3506 0.71729 0.0
H1694 H 0.85796 0.32946 0.79973 0.0
C1695 C 0.87217 0.38022 0.71994 0.0
H1696 H 0.88078 0.31004 0.746 0.0
C1697 C 0.85874 0.39111 0.75018 0.0
C1698 C 0.85269 0.37278 0.77873 0.0
H1699 H 0.87423 0.39434 0.69716 0.0
H1700 H 0.8508 0.41318 0.74998 0.0
C1701 C 0.8629 0.3441 0.77811 0.0
C1702 C 0.65185 0.84409 0.72287 0.0
C1703 C 0.66203 0.87279 0.72226 0.0
H1704 H 0.63401 0.81001 0.75497 0.0
C1705 C 0.65594 0.89111 0.7508 0.0
H1706 H 0.65683 0.82946 0.70125 0.0
C1707 C 0.64251 0.8802 0.78104 0.0
C1708 C 0.63561 0.85057 0.78368 0.0
H1709 H 0.66385 0.91319 0.75101 0.0
H1710 H 0.64043 0.89432 0.80381 0.0
C1711 C 0.63867 0.83297 0.75353 0.0
C1712 C 0.86606 0.69489 0.76522 0.0
C1713 C 0.86236 0.67619 0.73622 0.0
H1714 H 0.85723 0.70244 0.82037 0.0
C1715 C 0.85098 0.64842 0.74213 0.0
H1716 H 0.87441 0.71656 0.76125 0.0
C1717 C 0.84102 0.64039 0.77556 0.0
C1718 C 0.84202 0.66002 0.804 0.0
H1719 H 0.84787 0.63354 0.72025 0.0
H1720 H 0.83093 0.61938 0.77852 0.0
C1721 C 0.85597 0.68684 0.79896 0.0
C1722 C 0.35123 0.86293 0.75796 0.0
C1723 C 0.36247 0.8351 0.76391 0.0
H1724 H 0.33129 0.89203 0.72156 0.0
C1725 C 0.36603 0.81634 0.73493 0.0
H1726 H 0.34823 0.87785 0.77982 0.0
C1727 C 0.35594 0.82441 0.70119 0.0
C1728 C 0.34212 0.8513 0.69614 0.0
H1729 H 0.37426 0.79463 0.73892 0.0
H1730 H 0.35707 0.80877 0.67982 0.0
C1731 C 0.34127 0.87097 0.72454 0.0
C1732 C 0.16346 0.36292 0.74341 0.0
C1733 C 0.15226 0.33508 0.73748 0.0
H1734 H 0.18338 0.39205 0.77981 0.0
C1735 C 0.14872 0.31632 0.76646 0.0
H1736 H 0.16645 0.37784 0.72155 0.0
C1737 C 0.15881 0.32441 0.8002 0.0
C1738 C 0.1726 0.35132 0.80524 0.0
H1739 H 0.14052 0.2946 0.76248 0.0
H1740 H 0.1577 0.30878 0.82158 0.0
C1741 C 0.17342 0.37098 0.77683 0.0
C1742 C 0.67361 0.14041 0.72532 0.0
C1743 C 0.67267 0.16006 0.6969 0.0
H1744 H 0.66669 0.13352 0.78061 0.0
C1745 C 0.65876 0.1869 0.70195 0.0
H1746 H 0.68366 0.11938 0.72234 0.0
C1747 C 0.64865 0.19494 0.73569 0.0
C1748 C 0.65229 0.1762 0.76467 0.0
H1749 H 0.65755 0.20252 0.68057 0.0
H1750 H 0.64033 0.21662 0.73967 0.0
C1751 C 0.66362 0.14842 0.75874 0.0
C1752 C 0.84127 0.37146 0.22531 0.0
C1753 C 0.84222 0.35181 0.1969 0.0
H1754 H 0.84817 0.37834 0.28061 0.0
C1755 C 0.85612 0.32496 0.20195 0.0
H1756 H 0.83123 0.39249 0.22233 0.0
C1757 C 0.86621 0.31691 0.23569 0.0
C1758 C 0.86257 0.33565 0.26468 0.0
H1759 H 0.85733 0.30934 0.18056 0.0
H1760 H 0.87452 0.29523 0.23967 0.0
C1761 C 0.85124 0.36344 0.25874 0.0
C1762 C 0.64873 0.81695 0.26527 0.0
C1763 C 0.65243 0.83566 0.23627 0.0
H1764 H 0.65755 0.80941 0.32042 0.0
C1765 C 0.66379 0.86344 0.24218 0.0
H1766 H 0.64039 0.79528 0.26129 0.0
C1767 C 0.67374 0.87147 0.27562 0.0
C1768 C 0.67274 0.85185 0.30406 0.0
H1769 H 0.6669 0.87832 0.2203 0.0
H1770 H 0.68381 0.89249 0.27859 0.0
C1771 C 0.6588 0.82501 0.29901 0.0
C1772 C 0.16348 0.64931 0.25789 0.0
C1773 C 0.15228 0.67715 0.26383 0.0
H1774 H 0.18339 0.62019 0.22147 0.0
C1775 C 0.14874 0.69592 0.23486 0.0
H1776 H 0.16647 0.63439 0.27974 0.0
C1777 C 0.15882 0.68785 0.20112 0.0
C1778 C 0.1726 0.66094 0.19607 0.0
H1779 H 0.14054 0.71764 0.23886 0.0
H1780 H 0.1577 0.70349 0.17975 0.0
C1781 C 0.17343 0.64127 0.22446 0.0
C1782 C 0.34151 0.14125 0.27686 0.0
C1783 C 0.34233 0.16092 0.30526 0.0
H1784 H 0.34847 0.13439 0.22158 0.0
C1785 C 0.35609 0.18784 0.30021 0.0
H1786 H 0.33157 0.12017 0.27984 0.0
C1787 C 0.36616 0.19593 0.26648 0.0
C1788 C 0.36263 0.17717 0.2375 0.0
H1789 H 0.35719 0.20347 0.32159 0.0
H1790 H 0.37434 0.21766 0.26249 0.0
C1791 C 0.35146 0.14931 0.24344 0.0
loop_
_geom_bond_atom_site_label_1
_geom_bond_atom_site_label_2
_geom_bond_distance
_geom_bond_site_symmetry_2
_ccdc_geom_bond_type
Mn0 O5 2.095 . S
Mn0 O15 2.162 . S
Mn0 O16 2.297 . S
Mn0 O24 2.385 . S
Mn0 O25 2.209 . S
Mn0 O26 2.094 . S
Mn1 O6 2.121 . S
Mn1 N8 2.257 . S
Mn1 N17 2.282 . S
Mn1 O25 2.215 . S
Mn1 O27 2.117 . S
C2 O24 1.234 . S
C2 O25 1.283 . S
C3 O15 1.281 . S
C3 O16 1.236 . S
C4 O26 1.240 . S
C4 O27 1.264 . S
O5 Mn0 2.095 . S
O5 C14 1.250 . S
O6 Mn1 2.121 . S
O6 C14 1.258 . S
C7 N8 1.326 . S
C7 C11 1.460 . S
C7 H13 0.929 . S
N8 Mn1 2.257 . S
N8 C7 1.326 . S
N8 C12 1.362 . S
C9 C10 1.258 . S
C9 C12 1.431 . S
C9 C29 1.449 . S
C10 C9 1.258 . S
C10 C11 1.477 . S
C10 H30 0.931 . S
C11 C7 1.460 . S
C11 C10 1.477 . S
C11 H31 0.930 . S
C12 N8 1.362 . S
C12 C9 1.431 . S
C12 C22 1.476 . S
H13 C7 0.929 . S
C14 O5 1.250 . S
C14 O6 1.258 . S
O15 Mn0 2.162 . S
O15 C3 1.281 . S
O16 Mn0 2.297 . S
O16 C3 1.236 . S
N17 Mn1 2.282 . S
N17 C18 1.328 . S
N17 C22 1.318 . S
C18 N17 1.328 . S
C18 C19 1.457 . S
C18 H23 0.929 . S
C19 C18 1.457 . S
C19 C20 1.291 . S
C19 H32 0.931 . S
C20 C19 1.291 . S
C20 C21 1.373 . S
C20 H33 0.929 . S
C21 C20 1.373 . S
C21 C22 1.396 . S
C21 C28 1.403 . S
C22 C12 1.476 . S
C22 N17 1.318 . S
C22 C21 1.396 . S
H23 C18 0.929 . S
O24 Mn0 2.385 . S
O24 C2 1.234 . S
O25 Mn0 2.209 . S
O25 Mn1 2.215 . S
O25 C2 1.283 . S
O26 Mn0 2.094 . S
O26 C4 1.240 . S
O27 Mn1 2.117 . S
O27 C4 1.264 . S
C28 C21 1.403 . S
C28 C29 1.399 . S
C28 H34 0.929 . S
C29 C9 1.449 . S
C29 C28 1.399 . S
C29 H35 0.930 . S
H30 C10 0.931 . S
H31 C11 0.930 . S
H32 C19 0.931 . S
H33 C20 0.929 . S
H34 C28 0.929 . S
H35 C29 0.930 . S
Mn36 O41 2.095 . S
Mn36 O51 2.162 . S
Mn36 O52 2.297 . S
Mn36 O60 2.385 . S
Mn36 O61 2.209 . S
Mn36 O62 2.094 . S
Mn37 O42 2.121 . S
Mn37 N44 2.257 . S
Mn37 N53 2.282 . S
Mn37 O61 2.215 . S
Mn37 O63 2.117 . S
C38 O60 1.234 . S
C38 O61 1.283 . S
C39 O51 1.281 . S
C39 O52 1.236 . S
C40 O62 1.240 . S
C40 O63 1.264 . S
O41 Mn36 2.095 . S
O41 C50 1.250 . S
O42 Mn37 2.121 . S
O42 C50 1.258 . S
C43 N44 1.326 . S
C43 C47 1.460 . S
C43 H49 0.929 . S
N44 Mn37 2.257 . S
N44 C43 1.326 . S
N44 C48 1.362 . S
C45 C46 1.258 . S
C45 C48 1.431 . S
C45 C65 1.449 . S
C46 C45 1.258 . S
C46 C47 1.477 . S
C46 H66 0.931 . S
C47 C43 1.460 . S
C47 C46 1.477 . S
C47 H67 0.930 . S
C48 N44 1.362 . S
C48 C45 1.431 . S
C48 C58 1.476 . S
H49 C43 0.929 . S
C50 O41 1.250 . S
C50 O42 1.258 . S
O51 Mn36 2.162 . S
O51 C39 1.281 . S
O52 Mn36 2.297 . S
O52 C39 1.236 . S
N53 Mn37 2.282 . S
N53 C54 1.328 . S
N53 C58 1.318 . S
C54 N53 1.328 . S
C54 C55 1.457 . S
C54 H59 0.929 . S
C55 C54 1.457 . S
C55 C56 1.291 . S
C55 H68 0.931 . S
C56 C55 1.291 . S
C56 C57 1.373 . S
C56 H69 0.929 . S
C57 C56 1.373 . S
C57 C58 1.396 . S
C57 C64 1.403 . S
C58 C48 1.476 . S
C58 N53 1.318 . S
C58 C57 1.396 . S
H59 C54 0.929 . S
O60 Mn36 2.385 . S
O60 C38 1.234 . S
O61 Mn36 2.209 . S
O61 Mn37 2.215 . S
O61 C38 1.283 . S
O62 Mn36 2.094 . S
O62 C40 1.240 . S
O63 Mn37 2.117 . S
O63 C40 1.264 . S
C64 C57 1.403 . S
C64 C65 1.399 . S
C64 H70 0.929 . S
C65 C45 1.449 . S
C65 C64 1.399 . S
C65 H71 0.930 . S
H66 C46 0.931 . S
H67 C47 0.930 . S
H68 C55 0.931 . S
H69 C56 0.929 . S
H70 C64 0.929 . S
H71 C65 0.930 . S
Mn72 O77 2.095 . S
Mn72 O87 2.162 . S
Mn72 O88 2.297 . S
Mn72 O96 2.385 . S
Mn72 O97 2.209 . S
Mn72 O98 2.094 . S
Mn73 O78 2.121 . S
Mn73 N80 2.257 . S
Mn73 N89 2.282 . S
Mn73 O97 2.215 . S
Mn73 O99 2.117 . S
C74 O96 1.234 . S
C74 O97 1.283 . S
C75 O87 1.281 . S
C75 O88 1.236 . S
C76 O98 1.240 . S
C76 O99 1.264 . S
O77 Mn72 2.095 . S
O77 C86 1.250 . S
O78 Mn73 2.121 . S
O78 C86 1.258 . S
C79 N80 1.326 . S
C79 C83 1.460 . S
C79 H85 0.929 . S
N80 Mn73 2.257 . S
N80 C79 1.326 . S
N80 C84 1.362 . S
C81 C82 1.258 . S
C81 C84 1.431 . S
C81 C101 1.449 . S
C82 C81 1.258 . S
C82 C83 1.477 . S
C82 H102 0.931 . S
C83 C79 1.460 . S
C83 C82 1.477 . S
C83 H103 0.930 . S
C84 N80 1.362 . S
C84 C81 1.431 . S
C84 C94 1.476 . S
H85 C79 0.929 . S
C86 O77 1.250 . S
C86 O78 1.258 . S
O87 Mn72 2.162 . S
O87 C75 1.281 . S
O88 Mn72 2.297 . S
O88 C75 1.236 . S
N89 Mn73 2.282 . S
N89 C90 1.328 . S
N89 C94 1.318 . S
C90 N89 1.328 . S
C90 C91 1.457 . S
C90 H95 0.929 . S
C91 C90 1.457 . S
C91 C92 1.291 . S
C91 H104 0.931 . S
C92 C91 1.291 . S
C92 C93 1.373 . S
C92 H105 0.929 . S
C93 C92 1.373 . S
C93 C94 1.396 . S
C93 C100 1.403 . S
C94 C84 1.476 . S
C94 N89 1.318 . S
C94 C93 1.396 . S
H95 C90 0.929 . S
O96 Mn72 2.385 . S
O96 C74 1.234 . S
O97 Mn72 2.209 . S
O97 Mn73 2.215 . S
O97 C74 1.283 . S
O98 Mn72 2.094 . S
O98 C76 1.240 . S
O99 Mn73 2.117 . S
O99 C76 1.264 . S
C100 C93 1.403 . S
C100 C101 1.399 . S
C100 H106 0.929 . S
C101 C81 1.449 . S
C101 C100 1.399 . S
C101 H107 0.930 . S
H102 C82 0.931 . S
H103 C83 0.930 . S
H104 C91 0.931 . S
H105 C92 0.929 . S
H106 C100 0.929 . S
H107 C101 0.930 . S
Mn108 O113 2.095 . S
Mn108 O123 2.162 . S
Mn108 O124 2.297 . S
Mn108 O132 2.385 . S
Mn108 O133 2.209 . S
Mn108 O134 2.094 . S
Mn109 O114 2.121 . S
Mn109 N116 2.257 . S
Mn109 N125 2.282 . S
Mn109 O133 2.215 . S
Mn109 O135 2.117 . S
C110 O132 1.234 . S
C110 O133 1.283 . S
C111 O123 1.281 . S
C111 O124 1.236 . S
C112 O134 1.240 . S
C112 O135 1.264 . S
O113 Mn108 2.095 . S
O113 C122 1.250 . S
O114 Mn109 2.121 . S
O114 C122 1.258 . S
C115 N116 1.326 . S
C115 C119 1.460 . S
C115 H121 0.929 . S
N116 Mn109 2.257 . S
N116 C115 1.326 . S
N116 C120 1.362 . S
C117 C118 1.258 . S
C117 C120 1.431 . S
C117 C137 1.449 . S
C118 C117 1.258 . S
C118 C119 1.477 . S
C118 H138 0.931 . S
C119 C115 1.460 . S
C119 C118 1.477 . S
C119 H139 0.930 . S
C120 N116 1.362 . S
C120 C117 1.431 . S
C120 C130 1.476 . S
H121 C115 0.929 . S
C122 O113 1.250 . S
C122 O114 1.258 . S
O123 Mn108 2.162 . S
O123 C111 1.281 . S
O124 Mn108 2.297 . S
O124 C111 1.236 . S
N125 Mn109 2.282 . S
N125 C126 1.328 . S
N125 C130 1.318 . S
C126 N125 1.328 . S
C126 C127 1.457 . S
C126 H131 0.929 . S
C127 C126 1.457 . S
C127 C128 1.291 . S
C127 H140 0.931 . S
C128 C127 1.291 . S
C128 C129 1.373 . S
C128 H141 0.929 . S
C129 C128 1.373 . S
C129 C130 1.396 . S
C129 C136 1.403 . S
C130 C120 1.476 . S
C130 N125 1.318 . S
C130 C129 1.396 . S
H131 C126 0.929 . S
O132 Mn108 2.385 . S
O132 C110 1.234 . S
O133 Mn108 2.209 . S
O133 Mn109 2.215 . S
O133 C110 1.283 . S
O134 Mn108 2.094 . S
O134 C112 1.240 . S
O135 Mn109 2.117 . S
O135 C112 1.264 . S
C136 C129 1.403 . S
C136 C137 1.399 . S
C136 H142 0.929 . S
C137 C117 1.449 . S
C137 C136 1.399 . S
C137 H143 0.930 . S
H138 C118 0.931 . S
H139 C119 0.930 . S
H140 C127 0.931 . S
H141 C128 0.929 . S
H142 C136 0.929 . S
H143 C137 0.930 . S
Mn144 O149 2.095 . S
Mn144 O159 2.162 . S
Mn144 O160 2.297 . S
Mn144 O168 2.385 . S
Mn144 O169 2.209 . S
Mn144 O170 2.094 . S
Mn145 O150 2.121 . S
Mn145 N152 2.257 . S
Mn145 N161 2.282 . S
Mn145 O169 2.215 . S
Mn145 O171 2.117 . S
C146 O168 1.234 . S
C146 O169 1.283 . S
C147 O159 1.281 . S
C147 O160 1.236 . S
C148 O170 1.240 . S
C148 O171 1.264 . S
O149 Mn144 2.095 . S
O149 C158 1.250 . S
O150 Mn145 2.121 . S
O150 C158 1.258 . S
C151 N152 1.326 . S
C151 C155 1.460 . S
C151 H157 0.929 . S
N152 Mn145 2.257 . S
N152 C151 1.326 . S
N152 C156 1.362 . S
C153 C154 1.258 . S
C153 C156 1.431 . S
C153 C173 1.449 . S
C154 C153 1.258 . S
C154 C155 1.477 . S
C154 H174 0.931 . S
C155 C151 1.460 . S
C155 C154 1.477 . S
C155 H175 0.930 . S
C156 N152 1.362 . S
C156 C153 1.431 . S
C156 C166 1.476 . S
H157 C151 0.929 . S
C158 O149 1.250 . S
C158 O150 1.258 . S
O159 Mn144 2.162 . S
O159 C147 1.281 . S
O160 Mn144 2.297 . S
O160 C147 1.236 . S
N161 Mn145 2.282 . S
N161 C162 1.328 . S
N161 C166 1.318 . S
C162 N161 1.328 . S
C162 C163 1.457 . S
C162 H167 0.929 . S
C163 C162 1.457 . S
C163 C164 1.291 . S
C163 H176 0.931 . S
C164 C163 1.291 . S
C164 C165 1.373 . S
C164 H177 0.929 . S
C165 C164 1.373 . S
C165 C166 1.396 . S
C165 C172 1.403 . S
C166 C156 1.476 . S
C166 N161 1.318 . S
C166 C165 1.396 . S
H167 C162 0.929 . S
O168 Mn144 2.385 . S
O168 C146 1.234 . S
O169 Mn144 2.209 . S
O169 Mn145 2.215 . S
O169 C146 1.283 . S
O170 Mn144 2.094 . S
O170 C148 1.240 . S
O171 Mn145 2.117 . S
O171 C148 1.264 . S
C172 C165 1.403 . S
C172 C173 1.399 . S
C172 H178 0.929 . S
C173 C153 1.449 . S
C173 C172 1.399 . S
C173 H179 0.930 . S
H174 C154 0.931 . S
H175 C155 0.930 . S
H176 C163 0.931 . S
H177 C164 0.929 . S
H178 C172 0.929 . S
H179 C173 0.930 . S
Mn180 O185 2.095 . S
Mn180 O195 2.162 . S
Mn180 O196 2.297 . S
Mn180 O204 2.385 . S
Mn180 O205 2.209 . S
Mn180 O206 2.094 . S
Mn181 O186 2.121 . S
Mn181 N188 2.257 . S
Mn181 N197 2.282 . S
Mn181 O205 2.215 . S
Mn181 O207 2.117 . S
C182 O204 1.234 . S
C182 O205 1.283 . S
C183 O195 1.281 . S
C183 O196 1.236 . S
C184 O206 1.240 . S
C184 O207 1.264 . S
O185 Mn180 2.095 . S
O185 C194 1.250 . S
O186 Mn181 2.121 . S
O186 C194 1.258 . S
C187 N188 1.326 . S
C187 C191 1.460 . S
C187 H193 0.929 . S
N188 Mn181 2.257 . S
N188 C187 1.326 . S
N188 C192 1.362 . S
C189 C190 1.258 . S
C189 C192 1.431 . S
C189 C209 1.449 . S
C190 C189 1.258 . S
C190 C191 1.477 . S
C190 H210 0.931 . S
C191 C187 1.460 . S
C191 C190 1.477 . S
C191 H211 0.930 . S
C192 N188 1.362 . S
C192 C189 1.431 . S
C192 C202 1.476 . S
H193 C187 0.929 . S
C194 O185 1.250 . S
C194 O186 1.258 . S
O195 Mn180 2.162 . S
O195 C183 1.281 . S
O196 Mn180 2.297 . S
O196 C183 1.236 . S
N197 Mn181 2.282 . S
N197 C198 1.328 . S
N197 C202 1.318 . S
C198 N197 1.328 . S
C198 C199 1.457 . S
C198 H203 0.929 . S
C199 C198 1.457 . S
C199 C200 1.291 . S
C199 H212 0.931 . S
C200 C199 1.291 . S
C200 C201 1.373 . S
C200 H213 0.929 . S
C201 C200 1.373 . S
C201 C202 1.396 . S
C201 C208 1.403 . S
C202 C192 1.476 . S
C202 N197 1.318 . S
C202 C201 1.396 . S
H203 C198 0.929 . S
O204 Mn180 2.385 . S
O204 C182 1.234 . S
O205 Mn180 2.209 . S
O205 Mn181 2.215 . S
O205 C182 1.283 . S
O206 Mn180 2.094 . S
O206 C184 1.240 . S
O207 Mn181 2.117 . S
O207 C184 1.264 . S
C208 C201 1.403 . S
C208 C209 1.399 . S
C208 H214 0.929 . S
C209 C189 1.449 . S
C209 C208 1.399 . S
C209 H215 0.930 . S
H210 C190 0.931 . S
H211 C191 0.930 . S
H212 C199 0.931 . S
H213 C200 0.929 . S
H214 C208 0.929 . S
H215 C209 0.930 . S
Mn216 O221 2.095 . S
Mn216 O231 2.162 . S
Mn216 O232 2.297 . S
Mn216 O240 2.385 . S
Mn216 O241 2.209 . S
Mn216 O242 2.094 . S
Mn217 O222 2.121 . S
Mn217 N224 2.257 . S
Mn217 N233 2.282 . S
Mn217 O241 2.215 . S
Mn217 O243 2.117 . S
C218 O240 1.234 . S
C218 O241 1.283 . S
C219 O231 1.281 . S
C219 O232 1.236 . S
C220 O242 1.240 . S
C220 O243 1.264 . S
O221 Mn216 2.095 . S
O221 C230 1.250 . S
O222 Mn217 2.121 . S
O222 C230 1.258 . S
C223 N224 1.326 . S
C223 C227 1.460 . S
C223 H229 0.929 . S
N224 Mn217 2.257 . S
N224 C223 1.326 . S
N224 C228 1.362 . S
C225 C226 1.258 . S
C225 C228 1.431 . S
C225 C245 1.449 . S
C226 C225 1.258 . S
C226 C227 1.477 . S
C226 H246 0.931 . S
C227 C223 1.460 . S
C227 C226 1.477 . S
C227 H247 0.930 . S
C228 N224 1.362 . S
C228 C225 1.431 . S
C228 C238 1.476 . S
H229 C223 0.929 . S
C230 O221 1.250 . S
C230 O222 1.258 . S
O231 Mn216 2.162 . S
O231 C219 1.281 . S
O232 Mn216 2.297 . S
O232 C219 1.236 . S
N233 Mn217 2.282 . S
N233 C234 1.328 . S
N233 C238 1.318 . S
C234 N233 1.328 . S
C234 C235 1.457 . S
C234 H239 0.929 . S
C235 C234 1.457 . S
C235 C236 1.291 . S
C235 H248 0.931 . S
C236 C235 1.291 . S
C236 C237 1.373 . S
C236 H249 0.929 . S
C237 C236 1.373 . S
C237 C238 1.396 . S
C237 C244 1.403 . S
C238 C228 1.476 . S
C238 N233 1.318 . S
C238 C237 1.396 . S
H239 C234 0.929 . S
O240 Mn216 2.385 . S
O240 C218 1.234 . S
O241 Mn216 2.209 . S
O241 Mn217 2.215 . S
O241 C218 1.283 . S
O242 Mn216 2.094 . S
O242 C220 1.240 . S
O243 Mn217 2.117 . S
O243 C220 1.264 . S
C244 C237 1.403 . S
C244 C245 1.399 . S
C244 H250 0.929 . S
C245 C225 1.449 . S
C245 C244 1.399 . S
C245 H251 0.930 . S
H246 C226 0.931 . S
H247 C227 0.930 . S
H248 C235 0.931 . S
H249 C236 0.929 . S
H250 C244 0.929 . S
H251 C245 0.930 . S
Mn252 O257 2.095 . S
Mn252 O267 2.162 . S
Mn252 O268 2.297 . S
Mn252 O276 2.385 . S
Mn252 O277 2.209 . S
Mn252 O278 2.094 . S
Mn253 O258 2.121 . S
Mn253 N260 2.257 . S
Mn253 N269 2.282 . S
Mn253 O277 2.215 . S
Mn253 O279 2.117 . S
C254 O276 1.234 . S
C254 O277 1.283 . S
C255 O267 1.281 . S
C255 O268 1.236 . S
C256 O278 1.240 . S
C256 O279 1.264 . S
O257 Mn252 2.095 . S
O257 C266 1.250 . S
O258 Mn253 2.121 . S
O258 C266 1.258 . S
C259 N260 1.326 . S
C259 C263 1.460 . S
C259 H265 0.929 . S
N260 Mn253 2.257 . S
N260 C259 1.326 . S
N260 C264 1.362 . S
C261 C262 1.258 . S
C261 C264 1.431 . S
C261 C281 1.449 . S
C262 C261 1.258 . S
C262 C263 1.477 . S
C262 H282 0.931 . S
C263 C259 1.460 . S
C263 C262 1.477 . S
C263 H283 0.930 . S
C264 N260 1.362 . S
C264 C261 1.431 . S
C264 C274 1.476 . S
H265 C259 0.929 . S
C266 O257 1.250 . S
C266 O258 1.258 . S
O267 Mn252 2.162 . S
O267 C255 1.281 . S
O268 Mn252 2.297 . S
O268 C255 1.236 . S
N269 Mn253 2.282 . S
N269 C270 1.328 . S
N269 C274 1.318 . S
C270 N269 1.328 . S
C270 C271 1.457 . S
C270 H275 0.929 . S
C271 C270 1.457 . S
C271 C272 1.291 . S
C271 H284 0.931 . S
C272 C271 1.291 . S
C272 C273 1.373 . S
C272 H285 0.929 . S
C273 C272 1.373 . S
C273 C274 1.396 . S
C273 C280 1.403 . S
C274 C264 1.476 . S
C274 N269 1.318 . S
C274 C273 1.396 . S
H275 C270 0.929 . S
O276 Mn252 2.385 . S
O276 C254 1.234 . S
O277 Mn252 2.209 . S
O277 Mn253 2.215 . S
O277 C254 1.283 . S
O278 Mn252 2.094 . S
O278 C256 1.240 . S
O279 Mn253 2.117 . S
O279 C256 1.264 . S
C280 C273 1.403 . S
C280 C281 1.399 . S
C280 H286 0.929 . S
C281 C261 1.449 . S
C281 C280 1.399 . S
C281 H287 0.930 . S
H282 C262 0.931 . S
H283 C263 0.930 . S
H284 C271 0.931 . S
H285 C272 0.929 . S
H286 C280 0.929 . S
H287 C281 0.930 . S
Mn288 O293 2.095 . S
Mn288 O303 2.162 . S
Mn288 O304 2.297 . S
Mn288 O312 2.385 . S
Mn288 O313 2.209 . S
Mn288 O314 2.094 . S
Mn289 O294 2.121 . S
Mn289 N296 2.257 . S
Mn289 N305 2.282 . S
Mn289 O313 2.215 . S
Mn289 O315 2.117 . S
C290 O312 1.234 . S
C290 O313 1.283 . S
C291 O303 1.281 . S
C291 O304 1.236 . S
C292 O314 1.240 . S
C292 O315 1.264 . S
O293 Mn288 2.095 . S
O293 C302 1.250 . S
O294 Mn289 2.121 . S
O294 C302 1.258 . S
C295 N296 1.326 . S
C295 C299 1.460 . S
C295 H301 0.929 . S
N296 Mn289 2.257 . S
N296 C295 1.326 . S
N296 C300 1.362 . S
C297 C298 1.258 . S
C297 C300 1.431 . S
C297 C317 1.449 . S
C298 C297 1.258 . S
C298 C299 1.477 . S
C298 H318 0.931 . S
C299 C295 1.460 . S
C299 C298 1.477 . S
C299 H319 0.930 . S
C300 N296 1.362 . S
C300 C297 1.431 . S
C300 C310 1.476 . S
H301 C295 0.929 . S
C302 O293 1.250 . S
C302 O294 1.258 . S
O303 Mn288 2.162 . S
O303 C291 1.281 . S
O304 Mn288 2.297 . S
O304 C291 1.236 . S
N305 Mn289 2.282 . S
N305 C306 1.328 . S
N305 C310 1.318 . S
C306 N305 1.328 . S
C306 C307 1.457 . S
C306 H311 0.929 . S
C307 C306 1.457 . S
C307 C308 1.291 . S
C307 H320 0.931 . S
C308 C307 1.291 . S
C308 C309 1.373 . S
C308 H321 0.929 . S
C309 C308 1.373 . S
C309 C310 1.396 . S
C309 C316 1.403 . S
C310 C300 1.476 . S
C310 N305 1.318 . S
C310 C309 1.396 . S
H311 C306 0.929 . S
O312 Mn288 2.385 . S
O312 C290 1.234 . S
O313 Mn288 2.209 . S
O313 Mn289 2.215 . S
O313 C290 1.283 . S
O314 Mn288 2.094 . S
O314 C292 1.240 . S
O315 Mn289 2.117 . S
O315 C292 1.264 . S
C316 C309 1.403 . S
C316 C317 1.399 . S
C316 H322 0.929 . S
C317 C297 1.449 . S
C317 C316 1.399 . S
C317 H323 0.930 . S
H318 C298 0.931 . S
H319 C299 0.930 . S
H320 C307 0.931 . S
H321 C308 0.929 . S
H322 C316 0.929 . S
H323 C317 0.930 . S
Mn324 O329 2.095 . S
Mn324 O339 2.162 . S
Mn324 O340 2.297 . S
Mn324 O348 2.385 . S
Mn324 O349 2.209 . S
Mn324 O350 2.094 . S
Mn325 O330 2.121 . S
Mn325 N332 2.257 . S
Mn325 N341 2.282 . S
Mn325 O349 2.215 . S
Mn325 O351 2.117 . S
C326 O348 1.234 . S
C326 O349 1.283 . S
C327 O339 1.281 . S
C327 O340 1.236 . S
C328 O350 1.240 . S
C328 O351 1.264 . S
O329 Mn324 2.095 . S
O329 C338 1.250 . S
O330 Mn325 2.121 . S
O330 C338 1.258 . S
C331 N332 1.326 . S
C331 C335 1.460 . S
C331 H337 0.929 . S
N332 Mn325 2.257 . S
N332 C331 1.326 . S
N332 C336 1.362 . S
C333 C334 1.258 . S
C333 C336 1.431 . S
C333 C353 1.449 . S
C334 C333 1.258 . S
C334 C335 1.477 . S
C334 H354 0.931 . S
C335 C331 1.460 . S
C335 C334 1.477 . S
C335 H355 0.930 . S
C336 N332 1.362 . S
C336 C333 1.431 . S
C336 C346 1.476 . S
H337 C331 0.929 . S
C338 O329 1.250 . S
C338 O330 1.258 . S
O339 Mn324 2.162 . S
O339 C327 1.281 . S
O340 Mn324 2.297 . S
O340 C327 1.236 . S
N341 Mn325 2.282 . S
N341 C342 1.328 . S
N341 C346 1.318 . S
C342 N341 1.328 . S
C342 C343 1.457 . S
C342 H347 0.929 . S
C343 C342 1.457 . S
C343 C344 1.291 . S
C343 H356 0.931 . S
C344 C343 1.291 . S
C344 C345 1.373 . S
C344 H357 0.929 . S
C345 C344 1.373 . S
C345 C346 1.396 . S
C345 C352 1.403 . S
C346 C336 1.476 . S
C346 N341 1.318 . S
C346 C345 1.396 . S
H347 C342 0.929 . S
O348 Mn324 2.385 . S
O348 C326 1.234 . S
O349 Mn324 2.209 . S
O349 Mn325 2.215 . S
O349 C326 1.283 . S
O350 Mn324 2.094 . S
O350 C328 1.240 . S
O351 Mn325 2.117 . S
O351 C328 1.264 . S
C352 C345 1.403 . S
C352 C353 1.399 . S
C352 H358 0.929 . S
C353 C333 1.449 . S
C353 C352 1.399 . S
C353 H359 0.930 . S
H354 C334 0.931 . S
H355 C335 0.930 . S
H356 C343 0.931 . S
H357 C344 0.929 . S
H358 C352 0.929 . S
H359 C353 0.930 . S
Mn360 O365 2.095 . S
Mn360 O375 2.162 . S
Mn360 O376 2.297 . S
Mn360 O384 2.385 . S
Mn360 O385 2.209 . S
Mn360 O386 2.094 . S
Mn361 O366 2.121 . S
Mn361 N368 2.257 . S
Mn361 N377 2.282 . S
Mn361 O385 2.215 . S
Mn361 O387 2.117 . S
C362 O384 1.234 . S
C362 O385 1.283 . S
C363 O375 1.281 . S
C363 O376 1.236 . S
C364 O386 1.240 . S
C364 O387 1.264 . S
O365 Mn360 2.095 . S
O365 C374 1.250 . S
O366 Mn361 2.121 . S
O366 C374 1.258 . S
C367 N368 1.326 . S
C367 C371 1.460 . S
C367 H373 0.929 . S
N368 Mn361 2.257 . S
N368 C367 1.326 . S
N368 C372 1.362 . S
C369 C370 1.258 . S
C369 C372 1.431 . S
C369 C389 1.449 . S
C370 C369 1.258 . S
C370 C371 1.477 . S
C370 H390 0.931 . S
C371 C367 1.460 . S
C371 C370 1.477 . S
C371 H391 0.930 . S
C372 N368 1.362 . S
C372 C369 1.431 . S
C372 C382 1.476 . S
H373 C367 0.929 . S
C374 O365 1.250 . S
C374 O366 1.258 . S
O375 Mn360 2.162 . S
O375 C363 1.281 . S
O376 Mn360 2.297 . S
O376 C363 1.236 . S
N377 Mn361 2.282 . S
N377 C378 1.328 . S
N377 C382 1.318 . S
C378 N377 1.328 . S
C378 C379 1.457 . S
C378 H383 0.929 . S
C379 C378 1.457 . S
C379 C380 1.291 . S
C379 H392 0.931 . S
C380 C379 1.291 . S
C380 C381 1.373 . S
C380 H393 0.929 . S
C381 C380 1.373 . S
C381 C382 1.396 . S
C381 C388 1.403 . S
C382 C372 1.476 . S
C382 N377 1.318 . S
C382 C381 1.396 . S
H383 C378 0.929 . S
O384 Mn360 2.385 . S
O384 C362 1.234 . S
O385 Mn360 2.209 . S
O385 Mn361 2.215 . S
O385 C362 1.283 . S
O386 Mn360 2.094 . S
O386 C364 1.240 . S
O387 Mn361 2.117 . S
O387 C364 1.264 . S
C388 C381 1.403 . S
C388 C389 1.399 . S
C388 H394 0.929 . S
C389 C369 1.449 . S
C389 C388 1.399 . S
C389 H395 0.930 . S
H390 C370 0.931 . S
H391 C371 0.930 . S
H392 C379 0.931 . S
H393 C380 0.929 . S
H394 C388 0.929 . S
H395 C389 0.930 . S
Mn396 O401 2.095 . S
Mn396 O411 2.162 . S
Mn396 O412 2.297 . S
Mn396 O420 2.385 . S
Mn396 O421 2.209 . S
Mn396 O422 2.094 . S
Mn397 O402 2.121 . S
Mn397 N404 2.257 . S
Mn397 N413 2.282 . S
Mn397 O421 2.215 . S
Mn397 O423 2.117 . S
C398 O420 1.234 . S
C398 O421 1.283 . S
C399 O411 1.281 . S
C399 O412 1.236 . S
C400 O422 1.240 . S
C400 O423 1.264 . S
O401 Mn396 2.095 . S
O401 C410 1.250 . S
O402 Mn397 2.121 . S
O402 C410 1.258 . S
C403 N404 1.326 . S
C403 C407 1.460 . S
C403 H409 0.929 . S
N404 Mn397 2.257 . S
N404 C403 1.326 . S
N404 C408 1.362 . S
C405 C406 1.258 . S
C405 C408 1.431 . S
C405 C425 1.449 . S
C406 C405 1.258 . S
C406 C407 1.477 . S
C406 H426 0.931 . S
C407 C403 1.460 . S
C407 C406 1.477 . S
C407 H427 0.930 . S
C408 N404 1.362 . S
C408 C405 1.431 . S
C408 C418 1.476 . S
H409 C403 0.929 . S
C410 O401 1.250 . S
C410 O402 1.258 . S
O411 Mn396 2.162 . S
O411 C399 1.281 . S
O412 Mn396 2.297 . S
O412 C399 1.236 . S
N413 Mn397 2.282 . S
N413 C414 1.328 . S
N413 C418 1.318 . S
C414 N413 1.328 . S
C414 C415 1.457 . S
C414 H419 0.929 . S
C415 C414 1.457 . S
C415 C416 1.291 . S
C415 H428 0.931 . S
C416 C415 1.291 . S
C416 C417 1.373 . S
C416 H429 0.929 . S
C417 C416 1.373 . S
C417 C418 1.396 . S
C417 C424 1.403 . S
C418 C408 1.476 . S
C418 N413 1.318 . S
C418 C417 1.396 . S
H419 C414 0.929 . S
O420 Mn396 2.385 . S
O420 C398 1.234 . S
O421 Mn396 2.209 . S
O421 Mn397 2.215 . S
O421 C398 1.283 . S
O422 Mn396 2.094 . S
O422 C400 1.240 . S
O423 Mn397 2.117 . S
O423 C400 1.264 . S
C424 C417 1.403 . S
C424 C425 1.399 . S
C424 H430 0.929 . S
C425 C405 1.449 . S
C425 C424 1.399 . S
C425 H431 0.930 . S
H426 C406 0.931 . S
H427 C407 0.930 . S
H428 C415 0.931 . S
H429 C416 0.929 . S
H430 C424 0.929 . S
H431 C425 0.930 . S
Mn432 O437 2.095 . S
Mn432 O447 2.162 . S
Mn432 O448 2.297 . S
Mn432 O456 2.385 . S
Mn432 O457 2.209 . S
Mn432 O458 2.094 . S
Mn433 O438 2.121 . S
Mn433 N440 2.257 . S
Mn433 N449 2.282 . S
Mn433 O457 2.215 . S
Mn433 O459 2.117 . S
C434 O456 1.234 . S
C434 O457 1.283 . S
C435 O447 1.281 . S
C435 O448 1.236 . S
C436 O458 1.240 . S
C436 O459 1.264 . S
O437 Mn432 2.095 . S
O437 C446 1.250 . S
O438 Mn433 2.121 . S
O438 C446 1.258 . S
C439 N440 1.326 . S
C439 C443 1.460 . S
C439 H445 0.929 . S
N440 Mn433 2.257 . S
N440 C439 1.326 . S
N440 C444 1.362 . S
C441 C442 1.258 . S
C441 C444 1.431 . S
C441 C461 1.449 . S
C442 C441 1.258 . S
C442 C443 1.477 . S
C442 H462 0.931 . S
C443 C439 1.460 . S
C443 C442 1.477 . S
C443 H463 0.930 . S
C444 N440 1.362 . S
C444 C441 1.431 . S
C444 C454 1.476 . S
H445 C439 0.929 . S
C446 O437 1.250 . S
C446 O438 1.258 . S
O447 Mn432 2.162 . S
O447 C435 1.281 . S
O448 Mn432 2.297 . S
O448 C435 1.236 . S
N449 Mn433 2.282 . S
N449 C450 1.328 . S
N449 C454 1.318 . S
C450 N449 1.328 . S
C450 C451 1.457 . S
C450 H455 0.929 . S
C451 C450 1.457 . S
C451 C452 1.291 . S
C451 H464 0.931 . S
C452 C451 1.291 . S
C452 C453 1.373 . S
C452 H465 0.929 . S
C453 C452 1.373 . S
C453 C454 1.396 . S
C453 C460 1.403 . S
C454 C444 1.476 . S
C454 N449 1.318 . S
C454 C453 1.396 . S
H455 C450 0.929 . S
O456 Mn432 2.385 . S
O456 C434 1.234 . S
O457 Mn432 2.209 . S
O457 Mn433 2.215 . S
O457 C434 1.283 . S
O458 Mn432 2.094 . S
O458 C436 1.240 . S
O459 Mn433 2.117 . S
O459 C436 1.264 . S
C460 C453 1.403 . S
C460 C461 1.399 . S
C460 H466 0.929 . S
C461 C441 1.449 . S
C461 C460 1.399 . S
C461 H467 0.930 . S
H462 C442 0.931 . S
H463 C443 0.930 . S
H464 C451 0.931 . S
H465 C452 0.929 . S
H466 C460 0.929 . S
H467 C461 0.930 . S
Mn468 O473 2.095 . S
Mn468 O483 2.162 . S
Mn468 O484 2.297 . S
Mn468 O492 2.385 . S
Mn468 O493 2.209 . S
Mn468 O494 2.094 . S
Mn469 O474 2.121 . S
Mn469 N476 2.257 . S
Mn469 N485 2.282 . S
Mn469 O493 2.215 . S
Mn469 O495 2.117 . S
C470 O492 1.234 . S
C470 O493 1.283 . S
C471 O483 1.281 . S
C471 O484 1.236 . S
C472 O494 1.240 . S
C472 O495 1.264 . S
O473 Mn468 2.095 . S
O473 C482 1.250 . S
O474 Mn469 2.121 . S
O474 C482 1.258 . S
C475 N476 1.326 . S
C475 C479 1.460 . S
C475 H481 0.929 . S
N476 Mn469 2.257 . S
N476 C475 1.326 . S
N476 C480 1.362 . S
C477 C478 1.258 . S
C477 C480 1.431 . S
C477 C497 1.449 . S
C478 C477 1.258 . S
C478 C479 1.477 . S
C478 H498 0.931 . S
C479 C475 1.460 . S
C479 C478 1.477 . S
C479 H499 0.930 . S
C480 N476 1.362 . S
C480 C477 1.431 . S
C480 C490 1.476 . S
H481 C475 0.929 . S
C482 O473 1.250 . S
C482 O474 1.258 . S
O483 Mn468 2.162 . S
O483 C471 1.281 . S
O484 Mn468 2.297 . S
O484 C471 1.236 . S
N485 Mn469 2.282 . S
N485 C486 1.328 . S
N485 C490 1.318 . S
C486 N485 1.328 . S
C486 C487 1.457 . S
C486 H491 0.929 . S
C487 C486 1.457 . S
C487 C488 1.291 . S
C487 H500 0.931 . S
C488 C487 1.291 . S
C488 C489 1.373 . S
C488 H501 0.929 . S
C489 C488 1.373 . S
C489 C490 1.396 . S
C489 C496 1.403 . S
C490 C480 1.476 . S
C490 N485 1.318 . S
C490 C489 1.396 . S
H491 C486 0.929 . S
O492 Mn468 2.385 . S
O492 C470 1.234 . S
O493 Mn468 2.209 . S
O493 Mn469 2.215 . S
O493 C470 1.283 . S
O494 Mn468 2.094 . S
O494 C472 1.240 . S
O495 Mn469 2.117 . S
O495 C472 1.264 . S
C496 C489 1.403 . S
C496 C497 1.399 . S
C496 H502 0.929 . S
C497 C477 1.449 . S
C497 C496 1.399 . S
C497 H503 0.930 . S
H498 C478 0.931 . S
H499 C479 0.930 . S
H500 C487 0.931 . S
H501 C488 0.929 . S
H502 C496 0.929 . S
H503 C497 0.930 . S
Mn504 O509 2.095 . S
Mn504 O519 2.162 . S
Mn504 O520 2.297 . S
Mn504 O528 2.385 . S
Mn504 O529 2.209 . S
Mn504 O530 2.094 . S
Mn505 O510 2.121 . S
Mn505 N512 2.257 . S
Mn505 N521 2.282 . S
Mn505 O529 2.215 . S
Mn505 O531 2.117 . S
C506 O528 1.234 . S
C506 O529 1.283 . S
C507 O519 1.281 . S
C507 O520 1.236 . S
C508 O530 1.240 . S
C508 O531 1.264 . S
O509 Mn504 2.095 . S
O509 C518 1.250 . S
O510 Mn505 2.121 . S
O510 C518 1.258 . S
C511 N512 1.326 . S
C511 C515 1.460 . S
C511 H517 0.929 . S
N512 Mn505 2.257 . S
N512 C511 1.326 . S
N512 C516 1.362 . S
C513 C514 1.258 . S
C513 C516 1.431 . S
C513 C533 1.449 . S
C514 C513 1.258 . S
C514 C515 1.477 . S
C514 H534 0.931 . S
C515 C511 1.460 . S
C515 C514 1.477 . S
C515 H535 0.930 . S
C516 N512 1.362 . S
C516 C513 1.431 . S
C516 C526 1.476 . S
H517 C511 0.929 . S
C518 O509 1.250 . S
C518 O510 1.258 . S
O519 Mn504 2.162 . S
O519 C507 1.281 . S
O520 Mn504 2.297 . S
O520 C507 1.236 . S
N521 Mn505 2.282 . S
N521 C522 1.328 . S
N521 C526 1.318 . S
C522 N521 1.328 . S
C522 C523 1.457 . S
C522 H527 0.929 . S
C523 C522 1.457 . S
C523 C524 1.291 . S
C523 H536 0.931 . S
C524 C523 1.291 . S
C524 C525 1.373 . S
C524 H537 0.929 . S
C525 C524 1.373 . S
C525 C526 1.396 . S
C525 C532 1.403 . S
C526 C516 1.476 . S
C526 N521 1.318 . S
C526 C525 1.396 . S
H527 C522 0.929 . S
O528 Mn504 2.385 . S
O528 C506 1.234 . S
O529 Mn504 2.209 . S
O529 Mn505 2.215 . S
O529 C506 1.283 . S
O530 Mn504 2.094 . S
O530 C508 1.240 . S
O531 Mn505 2.117 . S
O531 C508 1.264 . S
C532 C525 1.403 . S
C532 C533 1.399 . S
C532 H538 0.929 . S
C533 C513 1.449 . S
C533 C532 1.399 . S
C533 H539 0.930 . S
H534 C514 0.931 . S
H535 C515 0.930 . S
H536 C523 0.931 . S
H537 C524 0.929 . S
H538 C532 0.929 . S
H539 C533 0.930 . S
Mn540 O545 2.095 . S
Mn540 O555 2.162 . S
Mn540 O556 2.297 . S
Mn540 O564 2.385 . S
Mn540 O565 2.209 . S
Mn540 O566 2.094 . S
Mn541 O546 2.121 . S
Mn541 N548 2.257 . S
Mn541 N557 2.282 . S
Mn541 O565 2.215 . S
Mn541 O567 2.117 . S
C542 O564 1.234 . S
C542 O565 1.283 . S
C543 O555 1.281 . S
C543 O556 1.236 . S
C544 O566 1.240 . S
C544 O567 1.264 . S
O545 Mn540 2.095 . S
O545 C554 1.250 . S
O546 Mn541 2.121 . S
O546 C554 1.258 . S
C547 N548 1.326 . S
C547 C551 1.460 . S
C547 H553 0.929 . S
N548 Mn541 2.257 . S
N548 C547 1.326 . S
N548 C552 1.362 . S
C549 C550 1.258 . S
C549 C552 1.431 . S
C549 C569 1.449 . S
C550 C549 1.258 . S
C550 C551 1.477 . S
C550 H570 0.931 . S
C551 C547 1.460 . S
C551 C550 1.477 . S
C551 H571 0.930 . S
C552 N548 1.362 . S
C552 C549 1.431 . S
C552 C562 1.476 . S
H553 C547 0.929 . S
C554 O545 1.250 . S
C554 O546 1.258 . S
O555 Mn540 2.162 . S
O555 C543 1.281 . S
O556 Mn540 2.297 . S
O556 C543 1.236 . S
N557 Mn541 2.282 . S
N557 C558 1.328 . S
N557 C562 1.318 . S
C558 N557 1.328 . S
C558 C559 1.457 . S
C558 H563 0.929 . S
C559 C558 1.457 . S
C559 C560 1.291 . S
C559 H572 0.931 . S
C560 C559 1.291 . S
C560 C561 1.373 . S
C560 H573 0.929 . S
C561 C560 1.373 . S
C561 C562 1.396 . S
C561 C568 1.403 . S
C562 C552 1.476 . S
C562 N557 1.318 . S
C562 C561 1.396 . S
H563 C558 0.929 . S
O564 Mn540 2.385 . S
O564 C542 1.234 . S
O565 Mn540 2.209 . S
O565 Mn541 2.215 . S
O565 C542 1.283 . S
O566 Mn540 2.094 . S
O566 C544 1.240 . S
O567 Mn541 2.117 . S
O567 C544 1.264 . S
C568 C561 1.403 . S
C568 C569 1.399 . S
C568 H574 0.929 . S
C569 C549 1.449 . S
C569 C568 1.399 . S
C569 H575 0.930 . S
H570 C550 0.931 . S
H571 C551 0.930 . S
H572 C559 0.931 . S
H573 C560 0.929 . S
H574 C568 0.929 . S
H575 C569 0.930 . S
Mn576 O581 2.095 . S
Mn576 O591 2.162 . S
Mn576 O592 2.297 . S
Mn576 O600 2.385 . S
Mn576 O601 2.209 . S
Mn576 O602 2.094 . S
Mn577 O582 2.121 . S
Mn577 N584 2.257 . S
Mn577 N593 2.282 . S
Mn577 O601 2.215 . S
Mn577 O603 2.117 . S
C578 O600 1.234 . S
C578 O601 1.283 . S
C579 O591 1.281 . S
C579 O592 1.236 . S
C580 O602 1.240 . S
C580 O603 1.264 . S
O581 Mn576 2.095 . S
O581 C590 1.250 . S
O582 Mn577 2.121 . S
O582 C590 1.258 . S
C583 N584 1.326 . S
C583 C587 1.460 . S
C583 H589 0.929 . S
N584 Mn577 2.257 . S
N584 C583 1.326 . S
N584 C588 1.362 . S
C585 C586 1.258 . S
C585 C588 1.431 . S
C585 C605 1.449 . S
C586 C585 1.258 . S
C586 C587 1.477 . S
C586 H606 0.931 . S
C587 C583 1.460 . S
C587 C586 1.477 . S
C587 H607 0.930 . S
C588 N584 1.362 . S
C588 C585 1.431 . S
C588 C598 1.476 . S
H589 C583 0.929 . S
C590 O581 1.250 . S
C590 O582 1.258 . S
O591 Mn576 2.162 . S
O591 C579 1.281 . S
O592 Mn576 2.297 . S
O592 C579 1.236 . S
N593 Mn577 2.282 . S
N593 C594 1.328 . S
N593 C598 1.318 . S
C594 N593 1.328 . S
C594 C595 1.457 . S
C594 H599 0.929 . S
C595 C594 1.457 . S
C595 C596 1.291 1_556 S
C595 H608 0.931 . S
C596 C595 1.291 1_554 S
C596 C597 1.373 1_554 S
C596 H609 0.929 . S
C597 C596 1.373 1_556 S
C597 C598 1.396 . S
C597 C604 1.403 1_556 S
C598 C588 1.476 . S
C598 N593 1.318 . S
C598 C597 1.396 . S
H599 C594 0.929 . S
O600 Mn576 2.385 . S
O600 C578 1.234 . S
O601 Mn576 2.209 . S
O601 Mn577 2.215 . S
O601 C578 1.283 . S
O602 Mn576 2.094 . S
O602 C580 1.240 . S
O603 Mn577 2.117 . S
O603 C580 1.264 . S
C604 C597 1.403 1_554 S
C604 C605 1.399 1_554 S
C604 H610 0.929 . S
C605 C585 1.449 . S
C605 C604 1.399 1_556 S
C605 H611 0.930 1_556 S
H606 C586 0.931 . S
H607 C587 0.930 . S
H608 C595 0.931 . S
H609 C596 0.929 . S
H610 C604 0.929 . S
H611 C605 0.930 1_554 S
Mn612 O617 2.095 . S
Mn612 O627 2.162 . S
Mn612 O628 2.297 . S
Mn612 O636 2.385 . S
Mn612 O637 2.209 . S
Mn612 O638 2.094 . S
Mn613 O618 2.121 . S
Mn613 N620 2.257 . S
Mn613 N629 2.282 . S
Mn613 O637 2.215 . S
Mn613 O639 2.117 . S
C614 O636 1.234 . S
C614 O637 1.283 . S
C615 O627 1.281 . S
C615 O628 1.236 . S
C616 O638 1.240 . S
C616 O639 1.264 . S
O617 Mn612 2.095 . S
O617 C626 1.250 . S
O618 Mn613 2.121 . S
O618 C626 1.258 . S
C619 N620 1.326 . S
C619 C623 1.460 . S
C619 H625 0.929 . S
N620 Mn613 2.257 . S
N620 C619 1.326 . S
N620 C624 1.362 . S
C621 C622 1.258 . S
C621 C624 1.431 . S
C621 C641 1.449 . S
C622 C621 1.258 . S
C622 C623 1.477 . S
C622 H642 0.931 . S
C623 C619 1.460 . S
C623 C622 1.477 . S
C623 H643 0.930 . S
C624 N620 1.362 . S
C624 C621 1.431 . S
C624 C634 1.476 . S
H625 C619 0.929 . S
C626 O617 1.250 . S
C626 O618 1.258 . S
O627 Mn612 2.162 . S
O627 C615 1.281 . S
O628 Mn612 2.297 . S
O628 C615 1.236 . S
N629 Mn613 2.282 . S
N629 C630 1.328 . S
N629 C634 1.318 . S
C630 N629 1.328 . S
C630 C631 1.457 . S
C630 H635 0.929 . S
C631 C630 1.457 . S
C631 C632 1.291 . S
C631 H644 0.931 . S
C632 C631 1.291 . S
C632 C633 1.373 . S
C632 H645 0.929 . S
C633 C632 1.373 . S
C633 C634 1.396 . S
C633 C640 1.403 . S
C634 C624 1.476 . S
C634 N629 1.318 . S
C634 C633 1.396 . S
H635 C630 0.929 . S
O636 Mn612 2.385 . S
O636 C614 1.234 . S
O637 Mn612 2.209 . S
O637 Mn613 2.215 . S
O637 C614 1.283 . S
O638 Mn612 2.094 . S
O638 C616 1.240 . S
O639 Mn613 2.117 . S
O639 C616 1.264 . S
C640 C633 1.403 . S
C640 C641 1.399 . S
C640 H646 0.929 . S
C641 C621 1.449 . S
C641 C640 1.399 . S
C641 H647 0.930 . S
H642 C622 0.931 . S
H643 C623 0.930 . S
H644 C631 0.931 . S
H645 C632 0.929 . S
H646 C640 0.929 . S
H647 C641 0.930 . S
Mn648 O653 2.095 . S
Mn648 O663 2.162 . S
Mn648 O664 2.297 . S
Mn648 O672 2.385 . S
Mn648 O673 2.209 . S
Mn648 O674 2.094 . S
Mn649 O654 2.121 . S
Mn649 N656 2.257 . S
Mn649 N665 2.282 . S
Mn649 O673 2.215 . S
Mn649 O675 2.117 . S
C650 O672 1.234 . S
C650 O673 1.283 . S
C651 O663 1.281 . S
C651 O664 1.236 . S
C652 O674 1.240 . S
C652 O675 1.264 . S
O653 Mn648 2.095 . S
O653 C662 1.250 . S
O654 Mn649 2.121 . S
O654 C662 1.258 . S
C655 N656 1.326 . S
C655 C659 1.460 . S
C655 H661 0.929 . S
N656 Mn649 2.257 . S
N656 C655 1.326 . S
N656 C660 1.362 . S
C657 C658 1.258 . S
C657 C660 1.431 . S
C657 C677 1.449 . S
C658 C657 1.258 . S
C658 C659 1.477 . S
C658 H678 0.931 . S
C659 C655 1.460 . S
C659 C658 1.477 . S
C659 H679 0.930 . S
C660 N656 1.362 . S
C660 C657 1.431 . S
C660 C670 1.476 . S
H661 C655 0.929 . S
C662 O653 1.250 . S
C662 O654 1.258 . S
O663 Mn648 2.162 . S
O663 C651 1.281 . S
O664 Mn648 2.297 . S
O664 C651 1.236 . S
N665 Mn649 2.282 . S
N665 C666 1.328 . S
N665 C670 1.318 . S
C666 N665 1.328 . S
C666 C667 1.457 . S
C666 H671 0.929 . S
C667 C666 1.457 . S
C667 C668 1.291 1_556 S
C667 H680 0.931 . S
C668 C667 1.291 1_554 S
C668 C669 1.373 1_554 S
C668 H681 0.929 . S
C669 C668 1.373 1_556 S
C669 C670 1.396 . S
C669 C676 1.403 1_556 S
C670 C660 1.476 . S
C670 N665 1.318 . S
C670 C669 1.396 . S
H671 C666 0.929 . S
O672 Mn648 2.385 . S
O672 C650 1.234 . S
O673 Mn648 2.209 . S
O673 Mn649 2.215 . S
O673 C650 1.283 . S
O674 Mn648 2.094 . S
O674 C652 1.240 . S
O675 Mn649 2.117 . S
O675 C652 1.264 . S
C676 C669 1.403 1_554 S
C676 C677 1.399 1_554 S
C676 H682 0.929 . S
C677 C657 1.449 . S
C677 C676 1.399 1_556 S
C677 H683 0.930 1_556 S
H678 C658 0.931 . S
H679 C659 0.930 . S
H680 C667 0.931 . S
H681 C668 0.929 . S
H682 C676 0.929 . S
H683 C677 0.930 1_554 S
Mn684 O689 2.095 . S
Mn684 O699 2.162 . S
Mn684 O700 2.297 . S
Mn684 O708 2.385 . S
Mn684 O709 2.209 . S
Mn684 O710 2.094 . S
Mn685 O690 2.121 . S
Mn685 N692 2.257 . S
Mn685 N701 2.282 . S
Mn685 O709 2.215 . S
Mn685 O711 2.117 . S
C686 O708 1.234 . S
C686 O709 1.283 . S
C687 O699 1.281 . S
C687 O700 1.236 . S
C688 O710 1.240 . S
C688 O711 1.264 . S
O689 Mn684 2.095 . S
O689 C698 1.250 . S
O690 Mn685 2.121 . S
O690 C698 1.258 . S
C691 N692 1.326 . S
C691 C695 1.460 . S
C691 H697 0.929 . S
N692 Mn685 2.257 . S
N692 C691 1.326 . S
N692 C696 1.362 . S
C693 C694 1.258 . S
C693 C696 1.431 . S
C693 C713 1.449 . S
C694 C693 1.258 . S
C694 C695 1.477 . S
C694 H714 0.931 . S
C695 C691 1.460 . S
C695 C694 1.477 . S
C695 H715 0.930 . S
C696 N692 1.362 . S
C696 C693 1.431 . S
C696 C706 1.476 . S
H697 C691 0.929 . S
C698 O689 1.250 . S
C698 O690 1.258 . S
O699 Mn684 2.162 . S
O699 C687 1.281 . S
O700 Mn684 2.297 . S
O700 C687 1.236 . S
N701 Mn685 2.282 . S
N701 C702 1.328 . S
N701 C706 1.318 . S
C702 N701 1.328 . S
C702 C703 1.457 . S
C702 H707 0.929 . S
C703 C702 1.457 . S
C703 C704 1.291 . S
C703 H716 0.931 . S
C704 C703 1.291 . S
C704 C705 1.373 . S
C704 H717 0.929 . S
C705 C704 1.373 . S
C705 C706 1.396 . S
C705 C712 1.403 . S
C706 C696 1.476 . S
C706 N701 1.318 . S
C706 C705 1.396 . S
H707 C702 0.929 . S
O708 Mn684 2.385 . S
O708 C686 1.234 . S
O709 Mn684 2.209 . S
O709 Mn685 2.215 . S
O709 C686 1.283 . S
O710 Mn684 2.094 . S
O710 C688 1.240 . S
O711 Mn685 2.117 . S
O711 C688 1.264 . S
C712 C705 1.403 . S
C712 C713 1.399 . S
C712 H718 0.929 . S
C713 C693 1.449 . S
C713 C712 1.399 . S
C713 H719 0.930 . S
H714 C694 0.931 . S
H715 C695 0.930 . S
H716 C703 0.931 . S
H717 C704 0.929 . S
H718 C712 0.929 . S
H719 C713 0.930 . S
Mn720 O725 2.095 . S
Mn720 O735 2.162 . S
Mn720 O736 2.297 . S
Mn720 O744 2.385 . S
Mn720 O745 2.209 . S
Mn720 O746 2.094 . S
Mn721 O726 2.121 . S
Mn721 N728 2.257 . S
Mn721 N737 2.282 . S
Mn721 O745 2.215 . S
Mn721 O747 2.117 . S
C722 O744 1.234 . S
C722 O745 1.283 . S
C723 O735 1.281 . S
C723 O736 1.236 . S
C724 O746 1.240 . S
C724 O747 1.264 . S
O725 Mn720 2.095 . S
O725 C734 1.250 . S
O726 Mn721 2.121 . S
O726 C734 1.258 . S
C727 N728 1.326 . S
C727 C731 1.460 . S
C727 H733 0.929 . S
N728 Mn721 2.257 . S
N728 C727 1.326 . S
N728 C732 1.362 . S
C729 C730 1.258 . S
C729 C732 1.431 . S
C729 C749 1.449 . S
C730 C729 1.258 . S
C730 C731 1.477 . S
C730 H750 0.931 . S
C731 C727 1.460 . S
C731 C730 1.477 . S
C731 H751 0.930 . S
C732 N728 1.362 . S
C732 C729 1.431 . S
C732 C742 1.476 . S
H733 C727 0.929 . S
C734 O725 1.250 . S
C734 O726 1.258 . S
O735 Mn720 2.162 . S
O735 C723 1.281 . S
O736 Mn720 2.297 . S
O736 C723 1.236 . S
N737 Mn721 2.282 . S
N737 C738 1.328 . S
N737 C742 1.318 . S
C738 N737 1.328 . S
C738 C739 1.457 . S
C738 H743 0.929 . S
C739 C738 1.457 . S
C739 C740 1.291 1_554 S
C739 H752 0.931 . S
C740 C739 1.291 1_556 S
C740 C741 1.373 1_556 S
C740 H753 0.929 . S
C741 C740 1.373 1_554 S
C741 C742 1.396 . S
C741 C748 1.403 1_554 S
C742 C732 1.476 . S
C742 N737 1.318 . S
C742 C741 1.396 . S
H743 C738 0.929 . S
O744 Mn720 2.385 . S
O744 C722 1.234 . S
O745 Mn720 2.209 . S
O745 Mn721 2.215 . S
O745 C722 1.283 . S
O746 Mn720 2.094 . S
O746 C724 1.240 . S
O747 Mn721 2.117 . S
O747 C724 1.264 . S
C748 C741 1.403 1_556 S
C748 C749 1.399 1_556 S
C748 H754 0.929 . S
C749 C729 1.449 . S
C749 C748 1.399 1_554 S
C749 H755 0.930 1_554 S
H750 C730 0.931 . S
H751 C731 0.930 . S
H752 C739 0.931 . S
H753 C740 0.929 . S
H754 C748 0.929 . S
H755 C749 0.930 1_556 S
Mn756 O761 2.095 . S
Mn756 O771 2.162 . S
Mn756 O772 2.297 . S
Mn756 O780 2.385 . S
Mn756 O781 2.209 . S
Mn756 O782 2.094 . S
Mn757 O762 2.121 . S
Mn757 N764 2.257 . S
Mn757 N773 2.282 . S
Mn757 O781 2.215 . S
Mn757 O783 2.117 . S
C758 O780 1.234 . S
C758 O781 1.283 . S
C759 O771 1.281 . S
C759 O772 1.236 . S
C760 O782 1.240 . S
C760 O783 1.264 . S
O761 Mn756 2.095 . S
O761 C770 1.250 . S
O762 Mn757 2.121 . S
O762 C770 1.258 . S
C763 N764 1.326 . S
C763 C767 1.460 . S
C763 H769 0.929 . S
N764 Mn757 2.257 . S
N764 C763 1.326 . S
N764 C768 1.362 . S
C765 C766 1.258 . S
C765 C768 1.431 . S
C765 C785 1.449 . S
C766 C765 1.258 . S
C766 C767 1.477 . S
C766 H786 0.931 . S
C767 C763 1.460 . S
C767 C766 1.477 . S
C767 H787 0.930 . S
C768 N764 1.362 . S
C768 C765 1.431 . S
C768 C778 1.476 . S
H769 C763 0.929 . S
C770 O761 1.250 . S
C770 O762 1.258 . S
O771 Mn756 2.162 . S
O771 C759 1.281 . S
O772 Mn756 2.297 . S
O772 C759 1.236 . S
N773 Mn757 2.282 . S
N773 C774 1.328 . S
N773 C778 1.318 . S
C774 N773 1.328 . S
C774 C775 1.457 . S
C774 H779 0.929 . S
C775 C774 1.457 . S
C775 C776 1.291 . S
C775 H788 0.931 . S
C776 C775 1.291 . S
C776 C777 1.373 . S
C776 H789 0.929 . S
C777 C776 1.373 . S
C777 C778 1.396 . S
C777 C784 1.403 . S
C778 C768 1.476 . S
C778 N773 1.318 . S
C778 C777 1.396 . S
H779 C774 0.929 . S
O780 Mn756 2.385 . S
O780 C758 1.234 . S
O781 Mn756 2.209 . S
O781 Mn757 2.215 . S
O781 C758 1.283 . S
O782 Mn756 2.094 . S
O782 C760 1.240 . S
O783 Mn757 2.117 . S
O783 C760 1.264 . S
C784 C777 1.403 . S
C784 C785 1.399 . S
C784 H790 0.929 . S
C785 C765 1.449 . S
C785 C784 1.399 . S
C785 H791 0.930 . S
H786 C766 0.931 . S
H787 C767 0.930 . S
H788 C775 0.931 . S
H789 C776 0.929 . S
H790 C784 0.929 . S
H791 C785 0.930 . S
Mn792 O797 2.095 . S
Mn792 O807 2.162 . S
Mn792 O808 2.297 . S
Mn792 O816 2.385 . S
Mn792 O817 2.209 . S
Mn792 O818 2.094 . S
Mn793 O798 2.121 . S
Mn793 N800 2.257 . S
Mn793 N809 2.282 . S
Mn793 O817 2.215 . S
Mn793 O819 2.117 . S
C794 O816 1.234 . S
C794 O817 1.283 . S
C795 O807 1.281 . S
C795 O808 1.236 . S
C796 O818 1.240 . S
C796 O819 1.264 . S
O797 Mn792 2.095 . S
O797 C806 1.250 . S
O798 Mn793 2.121 . S
O798 C806 1.258 . S
C799 N800 1.326 . S
C799 C803 1.460 . S
C799 H805 0.929 . S
N800 Mn793 2.257 . S
N800 C799 1.326 . S
N800 C804 1.362 . S
C801 C802 1.258 . S
C801 C804 1.431 . S
C801 C821 1.449 . S
C802 C801 1.258 . S
C802 C803 1.477 . S
C802 H822 0.931 . S
C803 C799 1.460 . S
C803 C802 1.477 . S
C803 H823 0.930 . S
C804 N800 1.362 . S
C804 C801 1.431 . S
C804 C814 1.476 . S
H805 C799 0.929 . S
C806 O797 1.250 . S
C806 O798 1.258 . S
O807 Mn792 2.162 . S
O807 C795 1.281 . S
O808 Mn792 2.297 . S
O808 C795 1.236 . S
N809 Mn793 2.282 . S
N809 C810 1.328 . S
N809 C814 1.318 . S
C810 N809 1.328 . S
C810 C811 1.457 . S
C810 H815 0.929 . S
C811 C810 1.457 . S
C811 C812 1.291 1_554 S
C811 H824 0.931 . S
C812 C811 1.291 1_556 S
C812 C813 1.373 1_556 S
C812 H825 0.929 . S
C813 C812 1.373 1_554 S
C813 C814 1.396 . S
C813 C820 1.403 1_554 S
C814 C804 1.476 . S
C814 N809 1.318 . S
C814 C813 1.396 . S
H815 C810 0.929 . S
O816 Mn792 2.385 . S
O816 C794 1.234 . S
O817 Mn792 2.209 . S
O817 Mn793 2.215 . S
O817 C794 1.283 . S
O818 Mn792 2.094 . S
O818 C796 1.240 . S
O819 Mn793 2.117 . S
O819 C796 1.264 . S
C820 C813 1.403 1_556 S
C820 C821 1.399 1_556 S
C820 H826 0.929 . S
C821 C801 1.449 . S
C821 C820 1.399 1_554 S
C821 H827 0.930 1_554 S
H822 C802 0.931 . S
H823 C803 0.930 . S
H824 C811 0.931 . S
H825 C812 0.929 . S
H826 C820 0.929 . S
H827 C821 0.930 1_556 S
Mn828 O833 2.095 . S
Mn828 O843 2.162 . S
Mn828 O844 2.297 . S
Mn828 O852 2.385 . S
Mn828 O853 2.209 . S
Mn828 O854 2.094 . S
Mn829 O834 2.121 . S
Mn829 N836 2.257 . S
Mn829 N845 2.282 . S
Mn829 O853 2.215 . S
Mn829 O855 2.117 . S
C830 O852 1.234 . S
C830 O853 1.283 . S
C831 O843 1.281 . S
C831 O844 1.236 . S
C832 O854 1.240 . S
C832 O855 1.264 . S
O833 Mn828 2.095 . S
O833 C842 1.250 . S
O834 Mn829 2.121 . S
O834 C842 1.258 . S
C835 N836 1.326 . S
C835 C839 1.460 . S
C835 H841 0.929 . S
N836 Mn829 2.257 . S
N836 C835 1.326 . S
N836 C840 1.362 . S
C837 C838 1.258 . S
C837 C840 1.431 . S
C837 C857 1.449 . S
C838 C837 1.258 . S
C838 C839 1.477 . S
C838 H858 0.931 . S
C839 C835 1.460 . S
C839 C838 1.477 . S
C839 H859 0.930 . S
C840 N836 1.362 . S
C840 C837 1.431 . S
C840 C850 1.476 . S
H841 C835 0.929 . S
C842 O833 1.250 . S
C842 O834 1.258 . S
O843 Mn828 2.162 . S
O843 C831 1.281 . S
O844 Mn828 2.297 . S
O844 C831 1.236 . S
N845 Mn829 2.282 . S
N845 C846 1.328 . S
N845 C850 1.318 . S
C846 N845 1.328 . S
C846 C847 1.457 . S
C846 H851 0.929 . S
C847 C846 1.457 . S
C847 C848 1.291 . S
C847 H860 0.931 . S
C848 C847 1.291 . S
C848 C849 1.373 . S
C848 H861 0.929 . S
C849 C848 1.373 . S
C849 C850 1.396 . S
C849 C856 1.403 . S
C850 C840 1.476 . S
C850 N845 1.318 . S
C850 C849 1.396 . S
H851 C846 0.929 . S
O852 Mn828 2.385 . S
O852 C830 1.234 . S
O853 Mn828 2.209 . S
O853 Mn829 2.215 . S
O853 C830 1.283 . S
O854 Mn828 2.094 . S
O854 C832 1.240 . S
O855 Mn829 2.117 . S
O855 C832 1.264 . S
C856 C849 1.403 . S
C856 C857 1.399 . S
C856 H862 0.929 . S
C857 C837 1.449 . S
C857 C856 1.399 . S
C857 H863 0.930 . S
H858 C838 0.931 . S
H859 C839 0.930 . S
H860 C847 0.931 . S
H861 C848 0.929 . S
H862 C856 0.929 . S
H863 C857 0.930 . S
Mn864 O869 2.095 . S
Mn864 O879 2.162 . S
Mn864 O880 2.297 . S
Mn864 O888 2.385 . S
Mn864 O889 2.209 . S
Mn864 O890 2.094 . S
Mn865 O870 2.121 . S
Mn865 N872 2.257 . S
Mn865 N881 2.282 . S
Mn865 O889 2.215 . S
Mn865 O891 2.117 . S
C866 O888 1.234 . S
C866 O889 1.283 . S
C867 O879 1.281 . S
C867 O880 1.236 . S
C868 O890 1.240 . S
C868 O891 1.264 . S
O869 Mn864 2.095 . S
O869 C878 1.250 . S
O870 Mn865 2.121 . S
O870 C878 1.258 . S
C871 N872 1.326 . S
C871 C875 1.460 . S
C871 H877 0.929 . S
N872 Mn865 2.257 . S
N872 C871 1.326 . S
N872 C876 1.362 . S
C873 C874 1.258 . S
C873 C876 1.431 . S
C873 C893 1.449 1_554 S
C874 C873 1.258 . S
C874 C875 1.477 . S
C874 H894 0.931 . S
C875 C871 1.460 . S
C875 C874 1.477 . S
C875 H895 0.930 . S
C876 N872 1.362 . S
C876 C873 1.431 . S
C876 C886 1.476 . S
H877 C871 0.929 . S
C878 O869 1.250 . S
C878 O870 1.258 . S
O879 Mn864 2.162 . S
O879 C867 1.281 . S
O880 Mn864 2.297 . S
O880 C867 1.236 . S
N881 Mn865 2.282 . S
N881 C882 1.328 . S
N881 C886 1.318 . S
C882 N881 1.328 . S
C882 C883 1.457 . S
C882 H887 0.929 . S
C883 C882 1.457 . S
C883 C884 1.291 1_554 S
C883 H896 0.931 1_554 S
C884 C883 1.291 1_556 S
C884 C885 1.373 . S
C884 H897 0.929 . S
C885 C884 1.373 . S
C885 C886 1.396 1_556 S
C885 C892 1.403 . S
C886 C876 1.476 . S
C886 N881 1.318 . S
C886 C885 1.396 1_554 S
H887 C882 0.929 . S
O888 Mn864 2.385 . S
O888 C866 1.234 . S
O889 Mn864 2.209 . S
O889 Mn865 2.215 . S
O889 C866 1.283 . S
O890 Mn864 2.094 . S
O890 C868 1.240 . S
O891 Mn865 2.117 . S
O891 C868 1.264 . S
C892 C885 1.403 . S
C892 C893 1.399 . S
C892 H898 0.929 . S
C893 C873 1.449 1_556 S
C893 C892 1.399 . S
C893 H899 0.930 . S
H894 C874 0.931 . S
H895 C875 0.930 . S
H896 C883 0.931 1_556 S
H897 C884 0.929 . S
H898 C892 0.929 . S
H899 C893 0.930 . S
Mn900 O905 2.095 . S
Mn900 O915 2.162 . S
Mn900 O916 2.297 . S
Mn900 O924 2.385 . S
Mn900 O925 2.209 . S
Mn900 O926 2.094 . S
Mn901 O906 2.121 . S
Mn901 N908 2.257 . S
Mn901 N917 2.282 . S
Mn901 O925 2.215 . S
Mn901 O927 2.117 . S
C902 O924 1.234 . S
C902 O925 1.283 . S
C903 O915 1.281 . S
C903 O916 1.236 . S
C904 O926 1.240 . S
C904 O927 1.264 . S
O905 Mn900 2.095 . S
O905 C914 1.250 . S
O906 Mn901 2.121 . S
O906 C914 1.258 . S
C907 N908 1.326 . S
C907 C911 1.460 . S
C907 H913 0.929 . S
N908 Mn901 2.257 . S
N908 C907 1.326 . S
N908 C912 1.362 . S
C909 C910 1.258 . S
C909 C912 1.431 . S
C909 C929 1.449 . S
C910 C909 1.258 . S
C910 C911 1.477 . S
C910 H930 0.931 . S
C911 C907 1.460 . S
C911 C910 1.477 . S
C911 H931 0.930 . S
C912 N908 1.362 . S
C912 C909 1.431 . S
C912 C922 1.476 . S
H913 C907 0.929 . S
C914 O905 1.250 . S
C914 O906 1.258 . S
O915 Mn900 2.162 . S
O915 C903 1.281 . S
O916 Mn900 2.297 . S
O916 C903 1.236 . S
N917 Mn901 2.282 . S
N917 C918 1.328 . S
N917 C922 1.318 . S
C918 N917 1.328 . S
C918 C919 1.457 . S
C918 H923 0.929 . S
C919 C918 1.457 . S
C919 C920 1.291 . S
C919 H932 0.931 . S
C920 C919 1.291 . S
C920 C921 1.373 . S
C920 H933 0.929 1_554 S
C921 C920 1.373 . S
C921 C922 1.396 . S
C921 C928 1.401 . S
C922 C912 1.476 . S
C922 N917 1.318 . S
C922 C921 1.396 . S
H923 C918 0.929 . S
O924 Mn900 2.385 . S
O924 C902 1.234 . S
O925 Mn900 2.209 . S
O925 Mn901 2.215 . S
O925 C902 1.283 . S
O926 Mn900 2.094 . S
O926 C904 1.240 . S
O927 Mn901 2.117 . S
O927 C904 1.264 . S
C928 C921 1.401 . S
C928 C929 1.398 . S
C928 H934 0.932 1_554 S
C929 C909 1.449 . S
C929 C928 1.398 . S
C929 H935 0.930 . S
H930 C910 0.931 . S
H931 C911 0.930 . S
H932 C919 0.931 . S
H933 C920 0.929 1_556 S
H934 C928 0.932 1_556 S
H935 C929 0.930 . S
Mn936 O941 2.095 . S
Mn936 O951 2.162 . S
Mn936 O952 2.297 . S
Mn936 O960 2.385 . S
Mn936 O961 2.209 . S
Mn936 O962 2.094 . S
Mn937 O942 2.121 . S
Mn937 N944 2.257 . S
Mn937 N953 2.282 . S
Mn937 O961 2.215 . S
Mn937 O963 2.117 . S
C938 O960 1.234 . S
C938 O961 1.283 . S
C939 O951 1.281 . S
C939 O952 1.236 . S
C940 O962 1.240 . S
C940 O963 1.264 . S
O941 Mn936 2.095 . S
O941 C950 1.250 . S
O942 Mn937 2.121 . S
O942 C950 1.258 . S
C943 N944 1.326 . S
C943 C947 1.460 . S
C943 H949 0.929 . S
N944 Mn937 2.257 . S
N944 C943 1.326 . S
N944 C948 1.362 . S
C945 C946 1.258 . S
C945 C948 1.431 . S
C945 C965 1.449 1_554 S
C946 C945 1.258 . S
C946 C947 1.477 . S
C946 H966 0.931 . S
C947 C943 1.460 . S
C947 C946 1.477 . S
C947 H967 0.930 . S
C948 N944 1.362 . S
C948 C945 1.431 . S
C948 C958 1.476 . S
H949 C943 0.929 . S
C950 O941 1.250 . S
C950 O942 1.258 . S
O951 Mn936 2.162 . S
O951 C939 1.281 . S
O952 Mn936 2.297 . S
O952 C939 1.236 . S
N953 Mn937 2.282 . S
N953 C954 1.328 . S
N953 C958 1.318 . S
C954 N953 1.328 . S
C954 C955 1.457 . S
C954 H959 0.929 . S
C955 C954 1.457 . S
C955 C956 1.291 1_554 S
C955 H968 0.931 1_554 S
C956 C955 1.291 1_556 S
C956 C957 1.373 . S
C956 H969 0.929 . S
C957 C956 1.373 . S
C957 C958 1.396 1_556 S
C957 C964 1.403 . S
C958 C948 1.476 . S
C958 N953 1.318 . S
C958 C957 1.396 1_554 S
H959 C954 0.929 . S
O960 Mn936 2.385 . S
O960 C938 1.234 . S
O961 Mn936 2.209 . S
O961 Mn937 2.215 . S
O961 C938 1.283 . S
O962 Mn936 2.094 . S
O962 C940 1.240 . S
O963 Mn937 2.117 . S
O963 C940 1.264 . S
C964 C957 1.403 . S
C964 C965 1.399 . S
C964 H970 0.929 . S
C965 C945 1.449 1_556 S
C965 C964 1.399 . S
C965 H971 0.930 . S
H966 C946 0.931 . S
H967 C947 0.930 . S
H968 C955 0.931 1_556 S
H969 C956 0.929 . S
H970 C964 0.929 . S
H971 C965 0.930 . S
Mn972 O977 2.095 . S
Mn972 O987 2.162 . S
Mn972 O988 2.297 . S
Mn972 O996 2.385 . S
Mn972 O997 2.209 . S
Mn972 O998 2.094 . S
Mn973 O978 2.121 . S
Mn973 N980 2.257 . S
Mn973 N989 2.282 . S
Mn973 O997 2.215 . S
Mn973 O999 2.117 . S
C974 O996 1.234 . S
C974 O997 1.283 . S
C975 O987 1.281 . S
C975 O988 1.236 . S
C976 O998 1.240 . S
C976 O999 1.264 . S
O977 Mn972 2.095 . S
O977 C986 1.250 . S
O978 Mn973 2.121 . S
O978 C986 1.258 . S
C979 N980 1.326 . S
C979 C983 1.460 . S
C979 H985 0.929 . S
N980 Mn973 2.257 . S
N980 C979 1.326 . S
N980 C984 1.362 . S
C981 C982 1.258 . S
C981 C984 1.431 . S
C981 C1001 1.449 . S
C982 C981 1.258 . S
C982 C983 1.477 . S
C982 H1002 0.931 . S
C983 C979 1.460 . S
C983 C982 1.477 . S
C983 H1003 0.930 . S
C984 N980 1.362 . S
C984 C981 1.431 . S
C984 C994 1.476 . S
H985 C979 0.929 . S
C986 O977 1.250 . S
C986 O978 1.258 . S
O987 Mn972 2.162 . S
O987 C975 1.281 . S
O988 Mn972 2.297 . S
O988 C975 1.236 . S
N989 Mn973 2.282 . S
N989 C990 1.328 . S
N989 C994 1.318 . S
C990 N989 1.328 . S
C990 C991 1.457 . S
C990 H995 0.929 . S
C991 C990 1.457 . S
C991 C992 1.291 . S
C991 H1004 0.931 . S
C992 C991 1.291 . S
C992 C993 1.373 . S
C992 H1005 0.929 1_554 S
C993 C992 1.373 . S
C993 C994 1.396 . S
C993 C1000 1.401 . S
C994 C984 1.476 . S
C994 N989 1.318 . S
C994 C993 1.396 . S
H995 C990 0.929 . S
O996 Mn972 2.385 . S
O996 C974 1.234 . S
O997 Mn972 2.209 . S
O997 Mn973 2.215 . S
O997 C974 1.283 . S
O998 Mn972 2.094 . S
O998 C976 1.240 . S
O999 Mn973 2.117 . S
O999 C976 1.264 . S
C1000 C993 1.401 . S
C1000 C1001 1.398 . S
C1000 H1006 0.932 1_554 S
C1001 C981 1.449 . S
C1001 C1000 1.398 . S
C1001 H1007 0.930 . S
H1002 C982 0.931 . S
H1003 C983 0.930 . S
H1004 C991 0.931 . S
H1005 C992 0.929 1_556 S
H1006 C1000 0.932 1_556 S
H1007 C1001 0.930 . S
Mn1008 O1013 2.095 . S
Mn1008 O1023 2.162 . S
Mn1008 O1024 2.297 . S
Mn1008 O1032 2.385 . S
Mn1008 O1033 2.209 . S
Mn1008 O1034 2.094 . S
Mn1009 O1014 2.121 . S
Mn1009 N1016 2.257 . S
Mn1009 N1025 2.282 . S
Mn1009 O1033 2.215 . S
Mn1009 O1035 2.117 . S
C1010 O1032 1.234 . S
C1010 O1033 1.283 . S
C1011 O1023 1.281 . S
C1011 O1024 1.236 . S
C1012 O1034 1.240 . S
C1012 O1035 1.264 . S
O1013 Mn1008 2.095 . S
O1013 C1022 1.250 . S
O1014 Mn1009 2.121 . S
O1014 C1022 1.258 . S
C1015 N1016 1.326 . S
C1015 C1019 1.460 . S
C1015 H1021 0.929 . S
N1016 Mn1009 2.257 . S
N1016 C1015 1.326 . S
N1016 C1020 1.362 . S
C1017 C1018 1.258 . S
C1017 C1020 1.431 . S
C1017 C1037 1.449 1_556 S
C1018 C1017 1.258 . S
C1018 C1019 1.477 . S
C1018 H1038 0.931 . S
C1019 C1015 1.460 . S
C1019 C1018 1.477 . S
C1019 H1039 0.930 . S
C1020 N1016 1.362 . S
C1020 C1017 1.431 . S
C1020 C1030 1.476 . S
H1021 C1015 0.929 . S
C1022 O1013 1.250 . S
C1022 O1014 1.258 . S
O1023 Mn1008 2.162 . S
O1023 C1011 1.281 . S
O1024 Mn1008 2.297 . S
O1024 C1011 1.236 . S
N1025 Mn1009 2.282 . S
N1025 C1026 1.328 . S
N1025 C1030 1.318 . S
C1026 N1025 1.328 . S
C1026 C1027 1.457 . S
C1026 H1031 0.929 . S
C1027 C1026 1.457 . S
C1027 C1028 1.291 1_556 S
C1027 H1040 0.931 1_556 S
C1028 C1027 1.291 1_554 S
C1028 C1029 1.373 . S
C1028 H1041 0.929 . S
C1029 C1028 1.373 . S
C1029 C1030 1.396 1_554 S
C1029 C1036 1.403 . S
C1030 C1020 1.476 . S
C1030 N1025 1.318 . S
C1030 C1029 1.396 1_556 S
H1031 C1026 0.929 . S
O1032 Mn1008 2.385 . S
O1032 C1010 1.234 . S
O1033 Mn1008 2.209 . S
O1033 Mn1009 2.215 . S
O1033 C1010 1.283 . S
O1034 Mn1008 2.094 . S
O1034 C1012 1.240 . S
O1035 Mn1009 2.117 . S
O1035 C1012 1.264 . S
C1036 C1029 1.403 . S
C1036 C1037 1.399 . S
C1036 H1042 0.929 . S
C1037 C1017 1.449 1_554 S
C1037 C1036 1.399 . S
C1037 H1043 0.930 . S
H1038 C1018 0.931 . S
H1039 C1019 0.930 . S
H1040 C1027 0.931 1_554 S
H1041 C1028 0.929 . S
H1042 C1036 0.929 . S
H1043 C1037 0.930 . S
Mn1044 O1049 2.095 . S
Mn1044 O1059 2.162 . S
Mn1044 O1060 2.297 . S
Mn1044 O1068 2.385 . S
Mn1044 O1069 2.209 . S
Mn1044 O1070 2.094 . S
Mn1045 O1050 2.121 . S
Mn1045 N1052 2.257 . S
Mn1045 N1061 2.282 . S
Mn1045 O1069 2.215 . S
Mn1045 O1071 2.117 . S
C1046 O1068 1.234 . S
C1046 O1069 1.283 . S
C1047 O1059 1.281 . S
C1047 O1060 1.236 . S
C1048 O1070 1.240 . S
C1048 O1071 1.264 . S
O1049 Mn1044 2.095 . S
O1049 C1058 1.250 . S
O1050 Mn1045 2.121 . S
O1050 C1058 1.258 . S
C1051 N1052 1.326 . S
C1051 C1055 1.460 . S
C1051 H1057 0.929 . S
N1052 Mn1045 2.257 . S
N1052 C1051 1.326 . S
N1052 C1056 1.362 . S
C1053 C1054 1.258 . S
C1053 C1056 1.431 . S
C1053 C1073 1.449 . S
C1054 C1053 1.258 . S
C1054 C1055 1.477 . S
C1054 H1074 0.931 . S
C1055 C1051 1.460 . S
C1055 C1054 1.477 . S
C1055 H1075 0.930 . S
C1056 N1052 1.362 . S
C1056 C1053 1.431 . S
C1056 C1066 1.476 . S
H1057 C1051 0.929 . S
C1058 O1049 1.250 . S
C1058 O1050 1.258 . S
O1059 Mn1044 2.162 . S
O1059 C1047 1.281 . S
O1060 Mn1044 2.297 . S
O1060 C1047 1.236 . S
N1061 Mn1045 2.282 . S
N1061 C1062 1.328 . S
N1061 C1066 1.318 . S
C1062 N1061 1.328 . S
C1062 C1063 1.457 . S
C1062 H1067 0.929 . S
C1063 C1062 1.457 . S
C1063 C1064 1.291 . S
C1063 H1076 0.931 . S
C1064 C1063 1.291 . S
C1064 C1065 1.373 . S
C1064 H1077 0.929 1_556 S
C1065 C1064 1.373 . S
C1065 C1066 1.396 . S
C1065 C1072 1.401 . S
C1066 C1056 1.476 . S
C1066 N1061 1.318 . S
C1066 C1065 1.396 . S
H1067 C1062 0.929 . S
O1068 Mn1044 2.385 . S
O1068 C1046 1.234 . S
O1069 Mn1044 2.209 . S
O1069 Mn1045 2.215 . S
O1069 C1046 1.283 . S
O1070 Mn1044 2.094 . S
O1070 C1048 1.240 . S
O1071 Mn1045 2.117 . S
O1071 C1048 1.264 . S
C1072 C1065 1.401 . S
C1072 C1073 1.398 . S
C1072 H1078 0.932 1_556 S
C1073 C1053 1.449 . S
C1073 C1072 1.398 . S
C1073 H1079 0.930 . S
H1074 C1054 0.931 . S
H1075 C1055 0.930 . S
H1076 C1063 0.931 . S
H1077 C1064 0.929 1_554 S
H1078 C1072 0.932 1_554 S
H1079 C1073 0.930 . S
Mn1080 O1085 2.095 . S
Mn1080 O1095 2.162 . S
Mn1080 O1096 2.297 . S
Mn1080 O1104 2.385 . S
Mn1080 O1105 2.209 . S
Mn1080 O1106 2.094 . S
Mn1081 O1086 2.121 . S
Mn1081 N1088 2.257 . S
Mn1081 N1097 2.282 . S
Mn1081 O1105 2.215 . S
Mn1081 O1107 2.117 . S
C1082 O1104 1.234 . S
C1082 O1105 1.283 . S
C1083 O1095 1.281 . S
C1083 O1096 1.236 . S
C1084 O1106 1.240 . S
C1084 O1107 1.264 . S
O1085 Mn1080 2.095 . S
O1085 C1094 1.250 . S
O1086 Mn1081 2.121 . S
O1086 C1094 1.258 . S
C1087 N1088 1.326 . S
C1087 C1091 1.460 . S
C1087 H1093 0.929 . S
N1088 Mn1081 2.257 . S
N1088 C1087 1.326 . S
N1088 C1092 1.362 . S
C1089 C1090 1.258 . S
C1089 C1092 1.431 . S
C1089 C1109 1.449 1_556 S
C1090 C1089 1.258 . S
C1090 C1091 1.477 . S
C1090 H1110 0.931 . S
C1091 C1087 1.460 . S
C1091 C1090 1.477 . S
C1091 H1111 0.930 . S
C1092 N1088 1.362 . S
C1092 C1089 1.431 . S
C1092 C1102 1.476 . S
H1093 C1087 0.929 . S
C1094 O1085 1.250 . S
C1094 O1086 1.258 . S
O1095 Mn1080 2.162 . S
O1095 C1083 1.281 . S
O1096 Mn1080 2.297 . S
O1096 C1083 1.236 . S
N1097 Mn1081 2.282 . S
N1097 C1098 1.328 . S
N1097 C1102 1.318 . S
C1098 N1097 1.328 . S
C1098 C1099 1.457 . S
C1098 H1103 0.929 . S
C1099 C1098 1.457 . S
C1099 C1100 1.291 1_556 S
C1099 H1112 0.931 1_556 S
C1100 C1099 1.291 1_554 S
C1100 C1101 1.373 . S
C1100 H1113 0.929 . S
C1101 C1100 1.373 . S
C1101 C1102 1.396 1_554 S
C1101 C1108 1.403 . S
C1102 C1092 1.476 . S
C1102 N1097 1.318 . S
C1102 C1101 1.396 1_556 S
H1103 C1098 0.929 . S
O1104 Mn1080 2.385 . S
O1104 C1082 1.234 . S
O1105 Mn1080 2.209 . S
O1105 Mn1081 2.215 . S
O1105 C1082 1.283 . S
O1106 Mn1080 2.094 . S
O1106 C1084 1.240 . S
O1107 Mn1081 2.117 . S
O1107 C1084 1.264 . S
C1108 C1101 1.403 . S
C1108 C1109 1.399 . S
C1108 H1114 0.929 . S
C1109 C1089 1.449 1_554 S
C1109 C1108 1.399 . S
C1109 H1115 0.930 . S
H1110 C1090 0.931 . S
H1111 C1091 0.930 . S
H1112 C1099 0.931 1_554 S
H1113 C1100 0.929 . S
H1114 C1108 0.929 . S
H1115 C1109 0.930 . S
Mn1116 O1121 2.095 . S
Mn1116 O1131 2.162 . S
Mn1116 O1132 2.297 . S
Mn1116 O1140 2.385 . S
Mn1116 O1141 2.209 . S
Mn1116 O1142 2.094 . S
Mn1117 O1122 2.121 . S
Mn1117 N1124 2.257 . S
Mn1117 N1133 2.282 . S
Mn1117 O1141 2.215 . S
Mn1117 O1143 2.117 . S
C1118 O1140 1.234 . S
C1118 O1141 1.283 . S
C1119 O1131 1.281 . S
C1119 O1132 1.236 . S
C1120 O1142 1.240 . S
C1120 O1143 1.264 . S
O1121 Mn1116 2.095 . S
O1121 C1130 1.250 . S
O1122 Mn1117 2.121 . S
O1122 C1130 1.258 . S
C1123 N1124 1.326 . S
C1123 C1127 1.460 . S
C1123 H1129 0.929 . S
N1124 Mn1117 2.257 . S
N1124 C1123 1.326 . S
N1124 C1128 1.362 . S
C1125 C1126 1.258 . S
C1125 C1128 1.431 . S
C1125 C1145 1.449 . S
C1126 C1125 1.258 . S
C1126 C1127 1.477 . S
C1126 H1146 0.931 . S
C1127 C1123 1.460 . S
C1127 C1126 1.477 . S
C1127 H1147 0.930 . S
C1128 N1124 1.362 . S
C1128 C1125 1.431 . S
C1128 C1138 1.476 . S
H1129 C1123 0.929 . S
C1130 O1121 1.250 . S
C1130 O1122 1.258 . S
O1131 Mn1116 2.162 . S
O1131 C1119 1.281 . S
O1132 Mn1116 2.297 . S
O1132 C1119 1.236 . S
N1133 Mn1117 2.282 . S
N1133 C1134 1.328 . S
N1133 C1138 1.318 . S
C1134 N1133 1.328 . S
C1134 C1135 1.457 . S
C1134 H1139 0.929 . S
C1135 C1134 1.457 . S
C1135 C1136 1.291 . S
C1135 H1148 0.931 . S
C1136 C1135 1.291 . S
C1136 C1137 1.373 . S
C1136 H1149 0.929 1_556 S
C1137 C1136 1.373 . S
C1137 C1138 1.396 . S
C1137 C1144 1.401 . S
C1138 C1128 1.476 . S
C1138 N1133 1.318 . S
C1138 C1137 1.396 . S
H1139 C1134 0.929 . S
O1140 Mn1116 2.385 . S
O1140 C1118 1.234 . S
O1141 Mn1116 2.209 . S
O1141 Mn1117 2.215 . S
O1141 C1118 1.283 . S
O1142 Mn1116 2.094 . S
O1142 C1120 1.240 . S
O1143 Mn1117 2.117 . S
O1143 C1120 1.264 . S
C1144 C1137 1.401 . S
C1144 C1145 1.398 . S
C1144 H1150 0.932 1_556 S
C1145 C1125 1.449 . S
C1145 C1144 1.398 . S
C1145 H1151 0.930 . S
H1146 C1126 0.931 . S
H1147 C1127 0.930 . S
H1148 C1135 0.931 . S
H1149 C1136 0.929 1_554 S
H1150 C1144 0.932 1_554 S
H1151 C1145 0.930 . S
C1152 C1153 1.387 . S
C1152 H1156 0.950 . S
C1152 C1161 1.390 . S
C1153 C1152 1.387 . S
C1153 C1155 1.387 . S
H1154 C1161 0.950 . S
C1155 C1153 1.387 . S
C1155 C1157 1.390 . S
C1155 H1159 0.950 . S
H1156 C1152 0.950 . S
C1157 C1155 1.390 . S
C1157 C1158 1.387 . S
C1157 H1160 0.950 . S
C1158 C1157 1.387 . S
C1158 C1161 1.387 . S
H1159 C1155 0.950 . S
H1160 C1157 0.950 . S
C1161 C1152 1.390 . S
C1161 H1154 0.950 . S
C1161 C1158 1.387 . S
C1162 C1163 1.387 . S
C1162 H1166 0.950 . S
C1162 C1171 1.390 . S
C1163 C1162 1.387 . S
C1163 C1165 1.387 . S
H1164 C1171 0.950 . S
C1165 C1163 1.387 . S
C1165 C1167 1.390 . S
C1165 H1169 0.950 . S
H1166 C1162 0.950 . S
C1167 C1165 1.390 . S
C1167 C1168 1.387 . S
C1167 H1170 0.950 . S
C1168 C1167 1.387 . S
C1168 C1171 1.387 . S
H1169 C1165 0.950 . S
H1170 C1167 0.950 . S
C1171 C1162 1.390 . S
C1171 H1164 0.950 . S
C1171 C1168 1.387 . S
C1172 C1173 1.387 . S
C1172 H1176 0.950 . S
C1172 C1181 1.390 . S
C1173 C1172 1.387 . S
C1173 C1175 1.387 . S
H1174 C1181 0.950 . S
C1175 C1173 1.387 . S
C1175 C1177 1.390 . S
C1175 H1179 0.950 . S
H1176 C1172 0.950 . S
C1177 C1175 1.390 . S
C1177 C1178 1.387 . S
C1177 H1180 0.950 . S
C1178 C1177 1.387 . S
C1178 C1181 1.387 . S
H1179 C1175 0.950 . S
H1180 C1177 0.950 . S
C1181 C1172 1.390 . S
C1181 H1174 0.950 . S
C1181 C1178 1.387 . S
C1182 C1183 1.387 . S
C1182 H1186 0.950 . S
C1182 C1191 1.390 . S
C1183 C1182 1.387 . S
C1183 C1185 1.387 . S
H1184 C1191 0.950 . S
C1185 C1183 1.387 . S
C1185 C1187 1.390 . S
C1185 H1189 0.950 . S
H1186 C1182 0.950 . S
C1187 C1185 1.390 . S
C1187 C1188 1.387 . S
C1187 H1190 0.950 . S
C1188 C1187 1.387 . S
C1188 C1191 1.387 . S
H1189 C1185 0.950 . S
H1190 C1187 0.950 . S
C1191 C1182 1.390 . S
C1191 H1184 0.950 . S
C1191 C1188 1.387 . S
C1192 C1193 1.387 . S
C1192 H1196 0.950 . S
C1192 C1201 1.390 . S
C1193 C1192 1.387 . S
C1193 C1195 1.387 . S
H1194 C1201 0.950 . S
C1195 C1193 1.387 . S
C1195 C1197 1.390 . S
C1195 H1199 0.950 . S
H1196 C1192 0.950 . S
C1197 C1195 1.390 . S
C1197 C1198 1.387 . S
C1197 H1200 0.950 . S
C1198 C1197 1.387 . S
C1198 C1201 1.387 . S
H1199 C1195 0.950 . S
H1200 C1197 0.950 . S
C1201 C1192 1.390 . S
C1201 H1194 0.950 . S
C1201 C1198 1.387 . S
C1202 C1203 1.387 . S
C1202 H1206 0.950 . S
C1202 C1211 1.390 . S
C1203 C1202 1.387 . S
C1203 C1205 1.387 . S
H1204 C1211 0.950 . S
C1205 C1203 1.387 . S
C1205 C1207 1.390 . S
C1205 H1209 0.950 . S
H1206 C1202 0.950 . S
C1207 C1205 1.390 . S
C1207 C1208 1.387 . S
C1207 H1210 0.950 . S
C1208 C1207 1.387 . S
C1208 C1211 1.387 . S
H1209 C1205 0.950 . S
H1210 C1207 0.950 . S
C1211 C1202 1.390 . S
C1211 H1204 0.950 . S
C1211 C1208 1.387 . S
C1212 C1213 1.387 . S
C1212 H1216 0.950 . S
C1212 C1221 1.390 . S
C1213 C1212 1.387 . S
C1213 C1215 1.387 . S
H1214 C1221 0.950 . S
C1215 C1213 1.387 . S
C1215 C1217 1.390 . S
C1215 H1219 0.950 . S
H1216 C1212 0.950 . S
C1217 C1215 1.390 . S
C1217 C1218 1.387 . S
C1217 H1220 0.950 . S
C1218 C1217 1.387 . S
C1218 C1221 1.387 . S
H1219 C1215 0.950 . S
H1220 C1217 0.950 . S
C1221 C1212 1.390 . S
C1221 H1214 0.950 . S
C1221 C1218 1.387 . S
C1222 C1223 1.387 . S
C1222 H1226 0.950 . S
C1222 C1231 1.390 . S
C1223 C1222 1.387 . S
C1223 C1225 1.387 . S
H1224 C1231 0.950 . S
C1225 C1223 1.387 . S
C1225 C1227 1.390 . S
C1225 H1229 0.950 . S
H1226 C1222 0.950 . S
C1227 C1225 1.390 . S
C1227 C1228 1.387 . S
C1227 H1230 0.950 . S
C1228 C1227 1.387 . S
C1228 C1231 1.387 . S
H1229 C1225 0.950 . S
H1230 C1227 0.950 . S
C1231 C1222 1.390 . S
C1231 H1224 0.950 . S
C1231 C1228 1.387 . S
C1232 C1233 1.387 . S
C1232 H1236 0.950 . S
C1232 C1241 1.390 . S
C1233 C1232 1.387 . S
C1233 C1235 1.387 . S
H1234 C1241 0.950 . S
C1235 C1233 1.387 . S
C1235 C1237 1.390 . S
C1235 H1239 0.950 . S
H1236 C1232 0.950 . S
C1237 C1235 1.390 . S
C1237 C1238 1.387 . S
C1237 H1240 0.950 . S
C1238 C1237 1.387 . S
C1238 C1241 1.387 . S
H1239 C1235 0.950 . S
H1240 C1237 0.950 . S
C1241 C1232 1.390 . S
C1241 H1234 0.950 . S
C1241 C1238 1.387 . S
C1242 C1243 1.387 . S
C1242 H1246 0.950 . S
C1242 C1251 1.390 . S
C1243 C1242 1.387 . S
C1243 C1245 1.387 . S
H1244 C1251 0.950 . S
C1245 C1243 1.387 . S
C1245 C1247 1.390 . S
C1245 H1249 0.950 . S
H1246 C1242 0.950 . S
C1247 C1245 1.390 . S
C1247 C1248 1.387 . S
C1247 H1250 0.950 . S
C1248 C1247 1.387 . S
C1248 C1251 1.387 . S
H1249 C1245 0.950 . S
H1250 C1247 0.950 . S
C1251 C1242 1.390 . S
C1251 H1244 0.950 . S
C1251 C1248 1.387 . S
C1252 C1253 1.387 . S
C1252 H1256 0.950 . S
C1252 C1261 1.390 . S
C1253 C1252 1.387 . S
C1253 C1255 1.387 . S
H1254 C1261 0.950 . S
C1255 C1253 1.387 . S
C1255 C1257 1.390 . S
C1255 H1259 0.950 . S
H1256 C1252 0.950 . S
C1257 C1255 1.390 . S
C1257 C1258 1.387 . S
C1257 H1260 0.950 . S
C1258 C1257 1.387 . S
C1258 C1261 1.387 . S
H1259 C1255 0.950 . S
H1260 C1257 0.950 . S
C1261 C1252 1.390 . S
C1261 H1254 0.950 . S
C1261 C1258 1.387 . S
C1262 C1263 1.387 . S
C1262 H1266 0.950 . S
C1262 C1271 1.390 . S
C1263 C1262 1.387 . S
C1263 C1265 1.387 . S
H1264 C1271 0.950 . S
C1265 C1263 1.387 . S
C1265 C1267 1.390 . S
C1265 H1269 0.950 . S
H1266 C1262 0.950 . S
C1267 C1265 1.390 . S
C1267 C1268 1.387 . S
C1267 H1270 0.950 . S
C1268 C1267 1.387 . S
C1268 C1271 1.387 . S
H1269 C1265 0.950 . S
H1270 C1267 0.950 . S
C1271 C1262 1.390 . S
C1271 H1264 0.950 . S
C1271 C1268 1.387 . S
C1272 C1273 1.387 . S
C1272 H1276 0.950 . S
C1272 C1281 1.390 . S
C1273 C1272 1.387 . S
C1273 C1275 1.387 . S
H1274 C1281 0.950 . S
C1275 C1273 1.387 . S
C1275 C1277 1.390 . S
C1275 H1279 0.950 . S
H1276 C1272 0.950 . S
C1277 C1275 1.390 . S
C1277 C1278 1.387 . S
C1277 H1280 0.950 . S
C1278 C1277 1.387 . S
C1278 C1281 1.387 . S
H1279 C1275 0.950 . S
H1280 C1277 0.950 . S
C1281 C1272 1.390 . S
C1281 H1274 0.950 . S
C1281 C1278 1.387 . S
C1282 C1283 1.387 . S
C1282 H1286 0.950 . S
C1282 C1291 1.390 . S
C1283 C1282 1.387 . S
C1283 C1285 1.387 . S
H1284 C1291 0.950 . S
C1285 C1283 1.387 . S
C1285 C1287 1.390 . S
C1285 H1289 0.950 . S
H1286 C1282 0.950 . S
C1287 C1285 1.390 . S
C1287 C1288 1.387 . S
C1287 H1290 0.950 . S
C1288 C1287 1.387 . S
C1288 C1291 1.387 . S
H1289 C1285 0.950 . S
H1290 C1287 0.950 . S
C1291 C1282 1.390 . S
C1291 H1284 0.950 . S
C1291 C1288 1.387 . S
C1292 C1293 1.387 . S
C1292 H1296 0.950 . S
C1292 C1301 1.390 . S
C1293 C1292 1.387 . S
C1293 C1295 1.387 . S
H1294 C1301 0.950 . S
C1295 C1293 1.387 . S
C1295 C1297 1.390 . S
C1295 H1299 0.950 . S
H1296 C1292 0.950 . S
C1297 C1295 1.390 . S
C1297 C1298 1.387 . S
C1297 H1300 0.950 . S
C1298 C1297 1.387 . S
C1298 C1301 1.387 . S
H1299 C1295 0.950 . S
H1300 C1297 0.950 . S
C1301 C1292 1.390 . S
C1301 H1294 0.950 . S
C1301 C1298 1.387 . S
C1302 C1303 1.387 . S
C1302 H1306 0.950 . S
C1302 C1311 1.390 . S
C1303 C1302 1.387 . S
C1303 C1305 1.387 . S
H1304 C1311 0.950 . S
C1305 C1303 1.387 . S
C1305 C1307 1.390 . S
C1305 H1309 0.950 . S
H1306 C1302 0.950 . S
C1307 C1305 1.390 . S
C1307 C1308 1.387 . S
C1307 H1310 0.950 . S
C1308 C1307 1.387 . S
C1308 C1311 1.387 . S
H1309 C1305 0.950 . S
H1310 C1307 0.950 . S
C1311 C1302 1.390 . S
C1311 H1304 0.950 . S
C1311 C1308 1.387 . S
C1312 C1313 1.387 . S
C1312 H1316 0.950 . S
C1312 C1321 1.390 1_655 S
C1313 C1312 1.387 . S
C1313 C1315 1.387 . S
H1314 C1321 0.950 . S
C1315 C1313 1.387 . S
C1315 C1317 1.390 1_655 S
C1315 H1319 0.950 . S
H1316 C1312 0.950 . S
C1317 C1315 1.390 1_455 S
C1317 C1318 1.387 . S
C1317 H1320 0.950 . S
C1318 C1317 1.387 . S
C1318 C1321 1.387 . S
H1319 C1315 0.950 . S
H1320 C1317 0.950 . S
C1321 C1312 1.390 1_455 S
C1321 H1314 0.950 . S
C1321 C1318 1.387 . S
C1322 C1323 1.387 . S
C1322 H1326 0.950 . S
C1322 C1331 1.390 1_545 S
C1323 C1322 1.387 . S
C1323 C1325 1.387 . S
H1324 C1331 0.950 . S
C1325 C1323 1.387 . S
C1325 C1327 1.390 1_545 S
C1325 H1329 0.950 . S
H1326 C1322 0.950 . S
C1327 C1325 1.390 1_565 S
C1327 C1328 1.387 . S
C1327 H1330 0.950 . S
C1328 C1327 1.387 . S
C1328 C1331 1.387 . S
H1329 C1325 0.950 . S
H1330 C1327 0.950 . S
C1331 C1322 1.390 1_565 S
C1331 H1324 0.950 . S
C1331 C1328 1.387 . S
C1332 C1333 1.387 . S
C1332 H1336 0.950 . S
C1332 C1341 1.390 1_455 S
C1333 C1332 1.387 . S
C1333 C1335 1.387 . S
H1334 C1341 0.950 . S
C1335 C1333 1.387 . S
C1335 C1337 1.390 1_455 S
C1335 H1339 0.950 . S
H1336 C1332 0.950 . S
C1337 C1335 1.390 1_655 S
C1337 C1338 1.387 . S
C1337 H1340 0.950 . S
C1338 C1337 1.387 . S
C1338 C1341 1.387 . S
H1339 C1335 0.950 . S
H1340 C1337 0.950 . S
C1341 C1332 1.390 1_655 S
C1341 H1334 0.950 . S
C1341 C1338 1.387 . S
C1342 C1343 1.387 . S
C1342 H1346 0.950 . S
C1342 C1351 1.390 1_565 S
C1343 C1342 1.387 . S
C1343 C1345 1.387 . S
H1344 C1351 0.950 . S
C1345 C1343 1.387 . S
C1345 C1347 1.390 1_565 S
C1345 H1349 0.950 . S
H1346 C1342 0.950 . S
C1347 C1345 1.390 1_545 S
C1347 C1348 1.387 . S
C1347 H1350 0.950 . S
C1348 C1347 1.387 . S
C1348 C1351 1.387 . S
H1349 C1345 0.950 . S
H1350 C1347 0.950 . S
C1351 C1342 1.390 1_545 S
C1351 H1344 0.950 . S
C1351 C1348 1.387 . S
C1352 C1353 1.387 . S
C1352 H1356 0.950 . S
C1352 C1361 1.390 1_455 S
C1353 C1352 1.387 . S
C1353 C1355 1.387 . S
H1354 C1361 0.950 . S
C1355 C1353 1.387 . S
C1355 C1357 1.390 1_455 S
C1355 H1359 0.950 . S
H1356 C1352 0.950 . S
C1357 C1355 1.390 1_655 S
C1357 C1358 1.387 . S
C1357 H1360 0.950 . S
C1358 C1357 1.387 . S
C1358 C1361 1.387 . S
H1359 C1355 0.950 . S
H1360 C1357 0.950 . S
C1361 C1352 1.390 1_655 S
C1361 H1354 0.950 . S
C1361 C1358 1.387 . S
C1362 C1363 1.387 . S
C1362 H1366 0.950 . S
C1362 C1371 1.390 1_565 S
C1363 C1362 1.387 . S
C1363 C1365 1.387 . S
H1364 C1371 0.950 . S
C1365 C1363 1.387 . S
C1365 C1367 1.390 1_565 S
C1365 H1369 0.950 . S
H1366 C1362 0.950 . S
C1367 C1365 1.390 1_545 S
C1367 C1368 1.387 . S
C1367 H1370 0.950 . S
C1368 C1367 1.387 . S
C1368 C1371 1.387 . S
H1369 C1365 0.950 . S
H1370 C1367 0.950 . S
C1371 C1362 1.390 1_545 S
C1371 H1364 0.950 . S
C1371 C1368 1.387 . S
C1372 C1373 1.387 . S
C1372 H1376 0.950 . S
C1372 C1381 1.390 1_455 S
C1373 C1372 1.387 . S
C1373 C1375 1.387 . S
H1374 C1381 0.950 . S
C1375 C1373 1.387 . S
C1375 C1377 1.390 1_455 S
C1375 H1379 0.950 . S
H1376 C1372 0.950 . S
C1377 C1375 1.390 1_655 S
C1377 C1378 1.387 . S
C1377 H1380 0.950 . S
C1378 C1377 1.387 . S
C1378 C1381 1.387 . S
H1379 C1375 0.950 . S
H1380 C1377 0.950 . S
C1381 C1372 1.390 1_655 S
C1381 H1374 0.950 . S
C1381 C1378 1.387 . S
C1382 C1383 1.387 . S
C1382 H1386 0.950 . S
C1382 C1391 1.390 1_545 S
C1383 C1382 1.387 . S
C1383 C1385 1.387 . S
H1384 C1391 0.950 . S
C1385 C1383 1.387 . S
C1385 C1387 1.390 1_545 S
C1385 H1389 0.950 . S
H1386 C1382 0.950 . S
C1387 C1385 1.390 1_565 S
C1387 C1388 1.387 . S
C1387 H1390 0.950 . S
C1388 C1387 1.387 . S
C1388 C1391 1.387 . S
H1389 C1385 0.950 . S
H1390 C1387 0.950 . S
C1391 C1382 1.390 1_565 S
C1391 H1384 0.950 . S
C1391 C1388 1.387 . S
C1392 C1393 1.387 . S
C1392 H1396 0.950 . S
C1392 C1401 1.390 . S
C1393 C1392 1.387 . S
C1393 C1395 1.387 . S
H1394 C1401 0.950 . S
C1395 C1393 1.387 . S
C1395 C1397 1.390 . S
C1395 H1399 0.950 . S
H1396 C1392 0.950 . S
C1397 C1395 1.390 . S
C1397 C1398 1.387 . S
C1397 H1400 0.950 . S
C1398 C1397 1.387 . S
C1398 C1401 1.387 . S
H1399 C1395 0.950 . S
H1400 C1397 0.950 . S
C1401 C1392 1.390 . S
C1401 H1394 0.950 . S
C1401 C1398 1.387 . S
C1402 C1403 1.387 . S
C1402 H1406 0.950 . S
C1402 C1411 1.390 . S
C1403 C1402 1.387 . S
C1403 C1405 1.387 . S
H1404 C1411 0.950 . S
C1405 C1403 1.387 . S
C1405 C1407 1.390 . S
C1405 H1409 0.950 . S
H1406 C1402 0.950 . S
C1407 C1405 1.390 . S
C1407 C1408 1.387 . S
C1407 H1410 0.950 . S
C1408 C1407 1.387 . S
C1408 C1411 1.387 . S
H1409 C1405 0.950 . S
H1410 C1407 0.950 . S
C1411 C1402 1.390 . S
C1411 H1404 0.950 . S
C1411 C1408 1.387 . S
C1412 C1413 1.387 . S
C1412 H1416 0.950 . S
C1412 C1421 1.390 . S
C1413 C1412 1.387 . S
C1413 C1415 1.387 . S
H1414 C1421 0.950 . S
C1415 C1413 1.387 . S
C1415 C1417 1.390 . S
C1415 H1419 0.950 . S
H1416 C1412 0.950 . S
C1417 C1415 1.390 . S
C1417 C1418 1.387 . S
C1417 H1420 0.950 . S
C1418 C1417 1.387 . S
C1418 C1421 1.387 . S
H1419 C1415 0.950 . S
H1420 C1417 0.950 . S
C1421 C1412 1.390 . S
C1421 H1414 0.950 . S
C1421 C1418 1.387 . S
C1422 C1423 1.387 . S
C1422 H1426 0.950 . S
C1422 C1431 1.390 . S
C1423 C1422 1.387 . S
C1423 C1425 1.387 . S
H1424 C1431 0.950 . S
C1425 C1423 1.387 . S
C1425 C1427 1.390 . S
C1425 H1429 0.950 . S
H1426 C1422 0.950 . S
C1427 C1425 1.390 . S
C1427 C1428 1.387 . S
C1427 H1430 0.950 . S
C1428 C1427 1.387 . S
C1428 C1431 1.387 . S
H1429 C1425 0.950 . S
H1430 C1427 0.950 . S
C1431 C1422 1.390 . S
C1431 H1424 0.950 . S
C1431 C1428 1.387 . S
C1432 C1433 1.387 . S
C1432 H1436 0.950 . S
C1432 C1441 1.390 . S
C1433 C1432 1.387 . S
C1433 C1435 1.387 . S
H1434 C1441 0.950 . S
C1435 C1433 1.387 . S
C1435 C1437 1.390 . S
C1435 H1439 0.950 . S
H1436 C1432 0.950 . S
C1437 C1435 1.390 . S
C1437 C1438 1.387 . S
C1437 H1440 0.950 . S
C1438 C1437 1.387 . S
C1438 C1441 1.387 . S
H1439 C1435 0.950 . S
H1440 C1437 0.950 . S
C1441 C1432 1.390 . S
C1441 H1434 0.950 . S
C1441 C1438 1.387 . S
C1442 C1443 1.387 . S
C1442 H1446 0.950 . S
C1442 C1451 1.390 . S
C1443 C1442 1.387 . S
C1443 C1445 1.387 . S
H1444 C1451 0.950 . S
C1445 C1443 1.387 . S
C1445 C1447 1.390 . S
C1445 H1449 0.950 . S
H1446 C1442 0.950 . S
C1447 C1445 1.390 . S
C1447 C1448 1.387 . S
C1447 H1450 0.950 . S
C1448 C1447 1.387 . S
C1448 C1451 1.387 . S
H1449 C1445 0.950 . S
H1450 C1447 0.950 . S
C1451 C1442 1.390 . S
C1451 H1444 0.950 . S
C1451 C1448 1.387 . S
C1452 C1453 1.387 . S
C1452 H1456 0.950 . S
C1452 C1461 1.390 . S
C1453 C1452 1.387 . S
C1453 C1455 1.387 . S
H1454 C1461 0.950 . S
C1455 C1453 1.387 . S
C1455 C1457 1.390 . S
C1455 H1459 0.950 . S
H1456 C1452 0.950 . S
C1457 C1455 1.390 . S
C1457 C1458 1.387 . S
C1457 H1460 0.950 . S
C1458 C1457 1.387 . S
C1458 C1461 1.387 . S
H1459 C1455 0.950 . S
H1460 C1457 0.950 . S
C1461 C1452 1.390 . S
C1461 H1454 0.950 . S
C1461 C1458 1.387 . S
C1462 C1463 1.387 . S
C1462 H1466 0.950 . S
C1462 C1471 1.390 . S
C1463 C1462 1.387 . S
C1463 C1465 1.387 . S
H1464 C1471 0.950 . S
C1465 C1463 1.387 . S
C1465 C1467 1.390 . S
C1465 H1469 0.950 . S
H1466 C1462 0.950 . S
C1467 C1465 1.390 . S
C1467 C1468 1.387 . S
C1467 H1470 0.950 . S
C1468 C1467 1.387 . S
C1468 C1471 1.387 . S
H1469 C1465 0.950 . S
H1470 C1467 0.950 . S
C1471 C1462 1.390 . S
C1471 H1464 0.950 . S
C1471 C1468 1.387 . S
C1472 C1473 1.387 . S
C1472 H1476 0.950 . S
C1472 C1481 1.390 . S
C1473 C1472 1.387 . S
C1473 C1475 1.387 . S
H1474 C1481 0.950 . S
C1475 C1473 1.387 . S
C1475 C1477 1.390 . S
C1475 H1479 0.950 . S
H1476 C1472 0.950 . S
C1477 C1475 1.390 . S
C1477 C1478 1.387 . S
C1477 H1480 0.950 . S
C1478 C1477 1.387 . S
C1478 C1481 1.387 . S
H1479 C1475 0.950 . S
H1480 C1477 0.950 . S
C1481 C1472 1.390 . S
C1481 H1474 0.950 . S
C1481 C1478 1.387 . S
C1482 C1483 1.387 . S
C1482 H1486 0.950 . S
C1482 C1491 1.390 . S
C1483 C1482 1.387 . S
C1483 C1485 1.387 . S
H1484 C1491 0.950 . S
C1485 C1483 1.387 . S
C1485 C1487 1.390 . S
C1485 H1489 0.950 . S
H1486 C1482 0.950 . S
C1487 C1485 1.390 . S
C1487 C1488 1.387 . S
C1487 H1490 0.950 . S
C1488 C1487 1.387 . S
C1488 C1491 1.387 . S
H1489 C1485 0.950 . S
H1490 C1487 0.950 . S
C1491 C1482 1.390 . S
C1491 H1484 0.950 . S
C1491 C1488 1.387 . S
C1492 C1493 1.387 . S
C1492 H1496 0.950 . S
C1492 C1501 1.390 . S
C1493 C1492 1.387 . S
C1493 C1495 1.387 . S
H1494 C1501 0.950 . S
C1495 C1493 1.387 . S
C1495 C1497 1.390 . S
C1495 H1499 0.950 . S
H1496 C1492 0.950 . S
C1497 C1495 1.390 . S
C1497 C1498 1.387 . S
C1497 H1500 0.950 . S
C1498 C1497 1.387 . S
C1498 C1501 1.387 . S
H1499 C1495 0.950 . S
H1500 C1497 0.950 . S
C1501 C1492 1.390 . S
C1501 H1494 0.950 . S
C1501 C1498 1.387 . S
C1502 C1503 1.387 . S
C1502 H1506 0.950 . S
C1502 C1511 1.390 . S
C1503 C1502 1.387 . S
C1503 C1505 1.387 . S
H1504 C1511 0.950 . S
C1505 C1503 1.387 . S
C1505 C1507 1.390 . S
C1505 H1509 0.950 . S
H1506 C1502 0.950 . S
C1507 C1505 1.390 . S
C1507 C1508 1.387 . S
C1507 H1510 0.950 . S
C1508 C1507 1.387 . S
C1508 C1511 1.387 . S
H1509 C1505 0.950 . S
H1510 C1507 0.950 . S
C1511 C1502 1.390 . S
C1511 H1504 0.950 . S
C1511 C1508 1.387 . S
C1512 C1513 1.387 . S
C1512 H1516 0.950 . S
C1512 C1521 1.390 . S
C1513 C1512 1.387 . S
C1513 C1515 1.387 . S
H1514 C1521 0.950 . S
C1515 C1513 1.387 . S
C1515 C1517 1.390 . S
C1515 H1519 0.950 . S
H1516 C1512 0.950 . S
C1517 C1515 1.390 . S
C1517 C1518 1.387 . S
C1517 H1520 0.950 . S
C1518 C1517 1.387 . S
C1518 C1521 1.387 . S
H1519 C1515 0.950 . S
H1520 C1517 0.950 . S
C1521 C1512 1.390 . S
C1521 H1514 0.950 . S
C1521 C1518 1.387 . S
C1522 C1523 1.387 . S
C1522 H1526 0.950 . S
C1522 C1531 1.390 . S
C1523 C1522 1.387 . S
C1523 C1525 1.387 . S
H1524 C1531 0.950 . S
C1525 C1523 1.387 . S
C1525 C1527 1.390 . S
C1525 H1529 0.950 . S
H1526 C1522 0.950 . S
C1527 C1525 1.390 . S
C1527 C1528 1.387 . S
C1527 H1530 0.950 . S
C1528 C1527 1.387 . S
C1528 C1531 1.387 . S
H1529 C1525 0.950 . S
H1530 C1527 0.950 . S
C1531 C1522 1.390 . S
C1531 H1524 0.950 . S
C1531 C1528 1.387 . S
C1532 C1533 1.387 . S
C1532 H1536 0.950 . S
C1532 C1541 1.390 . S
C1533 C1532 1.387 . S
C1533 C1535 1.387 . S
H1534 C1541 0.950 . S
C1535 C1533 1.387 . S
C1535 C1537 1.390 . S
C1535 H1539 0.950 . S
H1536 C1532 0.950 . S
C1537 C1535 1.390 . S
C1537 C1538 1.387 . S
C1537 H1540 0.950 . S
C1538 C1537 1.387 . S
C1538 C1541 1.387 . S
H1539 C1535 0.950 . S
H1540 C1537 0.950 . S
C1541 C1532 1.390 . S
C1541 H1534 0.950 . S
C1541 C1538 1.387 . S
C1542 C1543 1.387 . S
C1542 H1546 0.950 . S
C1542 C1551 1.390 . S
C1543 C1542 1.387 . S
C1543 C1545 1.387 . S
H1544 C1551 0.950 . S
C1545 C1543 1.387 . S
C1545 C1547 1.390 . S
C1545 H1549 0.950 . S
H1546 C1542 0.950 . S
C1547 C1545 1.390 . S
C1547 C1548 1.387 . S
C1547 H1550 0.950 . S
C1548 C1547 1.387 . S
C1548 C1551 1.387 . S
H1549 C1545 0.950 . S
H1550 C1547 0.950 . S
C1551 C1542 1.390 . S
C1551 H1544 0.950 . S
C1551 C1548 1.387 . S
C1552 C1553 1.387 . S
C1552 H1556 0.950 . S
C1552 C1561 1.390 1_554 S
C1553 C1552 1.387 . S
C1553 C1555 1.387 . S
H1554 C1561 0.950 . S
C1555 C1553 1.387 . S
C1555 C1557 1.390 1_554 S
C1555 H1559 0.950 . S
H1556 C1552 0.950 . S
C1557 C1555 1.390 1_556 S
C1557 C1558 1.387 . S
C1557 H1560 0.950 . S
C1558 C1557 1.387 . S
C1558 C1561 1.387 . S
H1559 C1555 0.950 . S
H1560 C1557 0.950 . S
C1561 C1552 1.390 1_556 S
C1561 H1554 0.950 . S
C1561 C1558 1.387 . S
C1562 C1563 1.387 . S
C1562 H1566 0.950 . S
C1562 C1571 1.390 1_556 S
C1563 C1562 1.387 . S
C1563 C1565 1.387 . S
H1564 C1571 0.950 . S
C1565 C1563 1.387 . S
C1565 C1567 1.390 1_556 S
C1565 H1569 0.950 . S
H1566 C1562 0.950 . S
C1567 C1565 1.390 1_554 S
C1567 C1568 1.387 . S
C1567 H1570 0.950 . S
C1568 C1567 1.387 . S
C1568 C1571 1.387 . S
H1569 C1565 0.950 . S
H1570 C1567 0.950 . S
C1571 C1562 1.390 1_554 S
C1571 H1564 0.950 . S
C1571 C1568 1.387 . S
C1572 C1573 1.387 . S
C1572 H1576 0.950 . S
C1572 C1581 1.390 1_554 S
C1573 C1572 1.387 . S
C1573 C1575 1.387 . S
H1574 C1581 0.950 . S
C1575 C1573 1.387 . S
C1575 C1577 1.390 1_554 S
C1575 H1579 0.950 . S
H1576 C1572 0.950 . S
C1577 C1575 1.390 1_556 S
C1577 C1578 1.387 . S
C1577 H1580 0.950 . S
C1578 C1577 1.387 . S
C1578 C1581 1.387 . S
H1579 C1575 0.950 . S
H1580 C1577 0.950 . S
C1581 C1572 1.390 1_556 S
C1581 H1574 0.950 . S
C1581 C1578 1.387 . S
C1582 C1583 1.387 . S
C1582 H1586 0.950 . S
C1582 C1591 1.390 1_554 S
C1583 C1582 1.387 . S
C1583 C1585 1.387 . S
H1584 C1591 0.950 . S
C1585 C1583 1.387 . S
C1585 C1587 1.390 1_554 S
C1585 H1589 0.950 . S
H1586 C1582 0.950 . S
C1587 C1585 1.390 1_556 S
C1587 C1588 1.387 . S
C1587 H1590 0.950 . S
C1588 C1587 1.387 . S
C1588 C1591 1.387 . S
H1589 C1585 0.950 . S
H1590 C1587 0.950 . S
C1591 C1582 1.390 1_556 S
C1591 H1584 0.950 . S
C1591 C1588 1.387 . S
C1592 C1593 1.387 . S
C1592 H1596 0.950 . S
C1592 C1601 1.390 1_554 S
C1593 C1592 1.387 . S
C1593 C1595 1.387 . S
H1594 C1601 0.950 . S
C1595 C1593 1.387 . S
C1595 C1597 1.390 1_554 S
C1595 H1599 0.950 . S
H1596 C1592 0.950 . S
C1597 C1595 1.390 1_556 S
C1597 C1598 1.387 . S
C1597 H1600 0.950 . S
C1598 C1597 1.387 . S
C1598 C1601 1.387 . S
H1599 C1595 0.950 . S
H1600 C1597 0.950 . S
C1601 C1592 1.390 1_556 S
C1601 H1594 0.950 . S
C1601 C1598 1.387 . S
C1602 C1603 1.386 . S
C1602 H1606 0.949 . S
C1602 C1611 1.393 1_554 S
C1603 C1602 1.386 . S
C1603 C1605 1.387 . S
H1604 C1611 0.950 . S
C1605 C1603 1.387 . S
C1605 C1607 1.390 1_554 S
C1605 H1609 0.950 . S
H1606 C1602 0.949 . S
C1607 C1605 1.390 1_556 S
C1607 C1608 1.387 . S
C1607 H1610 0.950 . S
C1608 C1607 1.387 . S
C1608 C1611 1.387 . S
H1609 C1605 0.950 . S
H1610 C1607 0.950 . S
C1611 C1602 1.393 1_556 S
C1611 H1604 0.950 . S
C1611 C1608 1.387 . S
C1612 C1613 1.387 . S
C1612 H1616 0.950 . S
C1612 C1621 1.390 1_556 S
C1613 C1612 1.387 . S
C1613 C1615 1.387 . S
H1614 C1621 0.950 . S
C1615 C1613 1.387 . S
C1615 C1617 1.390 1_556 S
C1615 H1619 0.950 . S
H1616 C1612 0.950 . S
C1617 C1615 1.390 1_554 S
C1617 C1618 1.387 . S
C1617 H1620 0.950 . S
C1618 C1617 1.387 . S
C1618 C1621 1.387 . S
H1619 C1615 0.950 . S
H1620 C1617 0.950 . S
C1621 C1612 1.390 1_554 S
C1621 H1614 0.950 . S
C1621 C1618 1.387 . S
C1622 C1623 1.387 . S
C1622 H1626 0.950 . S
C1622 C1631 1.390 1_556 S
C1623 C1622 1.387 . S
C1623 C1625 1.387 . S
H1624 C1631 0.950 . S
C1625 C1623 1.387 . S
C1625 C1627 1.390 1_556 S
C1625 H1629 0.950 . S
H1626 C1622 0.950 . S
C1627 C1625 1.390 1_554 S
C1627 C1628 1.387 . S
C1627 H1630 0.950 . S
C1628 C1627 1.387 . S
C1628 C1631 1.387 . S
H1629 C1625 0.950 . S
H1630 C1627 0.950 . S
C1631 C1622 1.390 1_554 S
C1631 H1624 0.950 . S
C1631 C1628 1.387 . S
C1632 C1633 1.387 . S
C1632 H1636 0.950 . S
C1632 C1641 1.390 . S
C1633 C1632 1.387 . S
C1633 C1635 1.387 . S
H1634 C1641 0.950 . S
C1635 C1633 1.387 . S
C1635 C1637 1.390 . S
C1635 H1639 0.950 . S
H1636 C1632 0.950 . S
C1637 C1635 1.390 . S
C1637 C1638 1.387 . S
C1637 H1640 0.950 . S
C1638 C1637 1.387 . S
C1638 C1641 1.387 . S
H1639 C1635 0.950 . S
H1640 C1637 0.950 . S
C1641 C1632 1.390 . S
C1641 H1634 0.950 . S
C1641 C1638 1.387 . S
C1642 C1643 1.387 . S
C1642 H1646 0.950 . S
C1642 C1651 1.390 . S
C1643 C1642 1.387 . S
C1643 C1645 1.387 . S
H1644 C1651 0.950 . S
C1645 C1643 1.387 . S
C1645 C1647 1.390 . S
C1645 H1649 0.950 . S
H1646 C1642 0.950 . S
C1647 C1645 1.390 . S
C1647 C1648 1.387 . S
C1647 H1650 0.950 . S
C1648 C1647 1.387 . S
C1648 C1651 1.387 . S
H1649 C1645 0.950 . S
H1650 C1647 0.950 . S
C1651 C1642 1.390 . S
C1651 H1644 0.950 . S
C1651 C1648 1.387 . S
C1652 C1653 1.387 . S
C1652 H1656 0.950 . S
C1652 C1661 1.390 . S
C1653 C1652 1.387 . S
C1653 C1655 1.387 . S
H1654 C1661 0.950 . S
C1655 C1653 1.387 . S
C1655 C1657 1.390 . S
C1655 H1659 0.950 . S
H1656 C1652 0.950 . S
C1657 C1655 1.390 . S
C1657 C1658 1.387 . S
C1657 H1660 0.950 . S
C1658 C1657 1.387 . S
C1658 C1661 1.387 . S
H1659 C1655 0.950 . S
H1660 C1657 0.950 . S
C1661 C1652 1.390 . S
C1661 H1654 0.950 . S
C1661 C1658 1.387 . S
C1662 C1663 1.387 . S
C1662 H1666 0.950 . S
C1662 C1671 1.390 . S
C1663 C1662 1.387 . S
C1663 C1665 1.387 . S
H1664 C1671 0.950 . S
C1665 C1663 1.387 . S
C1665 C1667 1.390 . S
C1665 H1669 0.950 . S
H1666 C1662 0.950 . S
C1667 C1665 1.390 . S
C1667 C1668 1.387 . S
C1667 H1670 0.950 . S
C1668 C1667 1.387 . S
C1668 C1671 1.387 . S
H1669 C1665 0.950 . S
H1670 C1667 0.950 . S
C1671 C1662 1.390 . S
C1671 H1664 0.950 . S
C1671 C1668 1.387 . S
C1672 C1673 1.387 . S
C1672 H1676 0.950 . S
C1672 C1681 1.390 . S
C1673 C1672 1.387 . S
C1673 C1675 1.387 . S
H1674 C1681 0.950 . S
C1675 C1673 1.387 . S
C1675 C1677 1.390 . S
C1675 H1679 0.950 . S
H1676 C1672 0.950 . S
C1677 C1675 1.390 . S
C1677 C1678 1.387 . S
C1677 H1680 0.950 . S
C1678 C1677 1.387 . S
C1678 C1681 1.387 . S
H1679 C1675 0.950 . S
H1680 C1677 0.950 . S
C1681 C1672 1.390 . S
C1681 H1674 0.950 . S
C1681 C1678 1.387 . S
C1682 C1683 1.387 . S
C1682 H1686 0.950 . S
C1682 C1691 1.390 . S
C1683 C1682 1.387 . S
C1683 C1685 1.387 . S
H1684 C1691 0.950 . S
C1685 C1683 1.387 . S
C1685 C1687 1.390 . S
C1685 H1689 0.950 . S
H1686 C1682 0.950 . S
C1687 C1685 1.390 . S
C1687 C1688 1.387 . S
C1687 H1690 0.950 . S
C1688 C1687 1.387 . S
C1688 C1691 1.387 . S
H1689 C1685 0.950 . S
H1690 C1687 0.950 . S
C1691 C1682 1.390 . S
C1691 H1684 0.950 . S
C1691 C1688 1.387 . S
C1692 C1693 1.387 . S
C1692 H1696 0.950 . S
C1692 C1701 1.390 . S
C1693 C1692 1.387 . S
C1693 C1695 1.387 . S
H1694 C1701 0.950 . S
C1695 C1693 1.387 . S
C1695 C1697 1.390 . S
C1695 H1699 0.950 . S
H1696 C1692 0.950 . S
C1697 C1695 1.390 . S
C1697 C1698 1.387 . S
C1697 H1700 0.950 . S
C1698 C1697 1.387 . S
C1698 C1701 1.387 . S
H1699 C1695 0.950 . S
H1700 C1697 0.950 . S
C1701 C1692 1.390 . S
C1701 H1694 0.950 . S
C1701 C1698 1.387 . S
C1702 C1703 1.387 . S
C1702 H1706 0.950 . S
C1702 C1711 1.390 . S
C1703 C1702 1.387 . S
C1703 C1705 1.387 . S
H1704 C1711 0.950 . S
C1705 C1703 1.387 . S
C1705 C1707 1.390 . S
C1705 H1709 0.950 . S
H1706 C1702 0.950 . S
C1707 C1705 1.390 . S
C1707 C1708 1.387 . S
C1707 H1710 0.950 . S
C1708 C1707 1.387 . S
C1708 C1711 1.387 . S
H1709 C1705 0.950 . S
H1710 C1707 0.950 . S
C1711 C1702 1.390 . S
C1711 H1704 0.950 . S
C1711 C1708 1.387 . S
C1712 C1713 1.387 . S
C1712 H1716 0.950 . S
C1712 C1721 1.390 . S
C1713 C1712 1.387 . S
C1713 C1715 1.387 . S
H1714 C1721 0.950 . S
C1715 C1713 1.387 . S
C1715 C1717 1.390 . S
C1715 H1719 0.950 . S
H1716 C1712 0.950 . S
C1717 C1715 1.390 . S
C1717 C1718 1.387 . S
C1717 H1720 0.950 . S
C1718 C1717 1.387 . S
C1718 C1721 1.387 . S
H1719 C1715 0.950 . S
H1720 C1717 0.950 . S
C1721 C1712 1.390 . S
C1721 H1714 0.950 . S
C1721 C1718 1.387 . S
C1722 C1723 1.387 . S
C1722 H1726 0.950 . S
C1722 C1731 1.390 . S
C1723 C1722 1.387 . S
C1723 C1725 1.387 . S
H1724 C1731 0.950 . S
C1725 C1723 1.387 . S
C1725 C1727 1.390 . S
C1725 H1729 0.950 . S
H1726 C1722 0.950 . S
C1727 C1725 1.390 . S
C1727 C1728 1.387 . S
C1727 H1730 0.950 . S
C1728 C1727 1.387 . S
C1728 C1731 1.387 . S
H1729 C1725 0.950 . S
H1730 C1727 0.950 . S
C1731 C1722 1.390 . S
C1731 H1724 0.950 . S
C1731 C1728 1.387 . S
C1732 C1733 1.387 . S
C1732 H1736 0.950 . S
C1732 C1741 1.390 . S
C1733 C1732 1.387 . S
C1733 C1735 1.387 . S
H1734 C1741 0.950 . S
C1735 C1733 1.387 . S
C1735 C1737 1.390 . S
C1735 H1739 0.950 . S
H1736 C1732 0.950 . S
C1737 C1735 1.390 . S
C1737 C1738 1.387 . S
C1737 H1740 0.950 . S
C1738 C1737 1.387 . S
C1738 C1741 1.387 . S
H1739 C1735 0.950 . S
H1740 C1737 0.950 . S
C1741 C1732 1.390 . S
C1741 H1734 0.950 . S
C1741 C1738 1.387 . S
C1742 C1743 1.387 . S
C1742 H1746 0.950 . S
C1742 C1751 1.390 . S
C1743 C1742 1.387 . S
C1743 C1745 1.387 . S
H1744 C1751 0.950 . S
C1745 C1743 1.387 . S
C1745 C1747 1.390 . S
C1745 H1749 0.950 . S
H1746 C1742 0.950 . S
C1747 C1745 1.390 . S
C1747 C1748 1.387 . S
C1747 H1750 0.950 . S
C1748 C1747 1.387 . S
C1748 C1751 1.387 . S
H1749 C1745 0.950 . S
H1750 C1747 0.950 . S
C1751 C1742 1.390 . S
C1751 H1744 0.950 . S
C1751 C1748 1.387 . S
C1752 C1753 1.387 . S
C1752 H1756 0.950 . S
C1752 C1761 1.390 . S
C1753 C1752 1.387 . S
C1753 C1755 1.387 . S
H1754 C1761 0.950 . S
C1755 C1753 1.387 . S
C1755 C1757 1.390 . S
C1755 H1759 0.950 . S
H1756 C1752 0.950 . S
C1757 C1755 1.390 . S
C1757 C1758 1.387 . S
C1757 H1760 0.950 . S
C1758 C1757 1.387 . S
C1758 C1761 1.387 . S
H1759 C1755 0.950 . S
H1760 C1757 0.950 . S
C1761 C1752 1.390 . S
C1761 H1754 0.950 . S
C1761 C1758 1.387 . S
C1762 C1763 1.387 . S
C1762 H1766 0.950 . S
C1762 C1771 1.390 . S
C1763 C1762 1.387 . S
C1763 C1765 1.387 . S
H1764 C1771 0.950 . S
C1765 C1763 1.387 . S
C1765 C1767 1.390 . S
C1765 H1769 0.950 . S
H1766 C1762 0.950 . S
C1767 C1765 1.390 . S
C1767 C1768 1.387 . S
C1767 H1770 0.950 . S
C1768 C1767 1.387 . S
C1768 C1771 1.387 . S
H1769 C1765 0.950 . S
H1770 C1767 0.950 . S
C1771 C1762 1.390 . S
C1771 H1764 0.950 . S
C1771 C1768 1.387 . S
C1772 C1773 1.387 . S
C1772 H1776 0.950 . S
C1772 C1781 1.390 . S
C1773 C1772 1.387 . S
C1773 C1775 1.387 . S
H1774 C1781 0.950 . S
C1775 C1773 1.387 . S
C1775 C1777 1.390 . S
C1775 H1779 0.950 . S
H1776 C1772 0.950 . S
C1777 C1775 1.390 . S
C1777 C1778 1.387 . S
C1777 H1780 0.950 . S
C1778 C1777 1.387 . S
C1778 C1781 1.387 . S
H1779 C1775 0.950 . S
H1780 C1777 0.950 . S
C1781 C1772 1.390 . S
C1781 H1774 0.950 . S
C1781 C1778 1.387 . S
C1782 C1783 1.387 . S
C1782 H1786 0.950 . S
C1782 C1791 1.390 . S
C1783 C1782 1.387 . S
C1783 C1785 1.387 . S
H1784 C1791 0.950 . S
C1785 C1783 1.387 . S
C1785 C1787 1.390 . S
C1785 H1789 0.950 . S
H1786 C1782 0.950 . S
C1787 C1785 1.390 . S
C1787 C1788 1.387 . S
C1787 H1790 0.950 . S
C1788 C1787 1.387 . S
C1788 C1791 1.387 . S
H1789 C1785 0.950 . S
H1790 C1787 0.950 . S
C1791 C1782 1.390 . S
C1791 H1784 0.950 . S
C1791 C1788 1.387 . S
C1153 C544 1.370 . S
C1158 C4 1.378 . S
C1163 C38 1.517 . S
C1168 C436 1.523 . S
C1173 C76 1.378 . S
C1178 C472 1.370 . S
C1183 C508 1.522 . S
C1188 C110 1.517 . S
C1193 C148 1.379 . S
C1198 C328 1.368 . S
C1203 C182 1.519 . S
C1208 C364 1.521 . S
C1213 C400 1.370 . S
C1218 C220 1.378 . S
C1223 C292 1.521 . S
C1228 C254 1.519 . S
C1233 C580 1.378 . S
C1238 C1120 1.370 . S
C1243 C614 1.517 . S
C1248 C1012 1.523 . S
C1253 C652 1.379 . S
C1258 C1048 1.368 . S
C1263 C1084 1.523 . S
C1268 C686 1.517 . S
C1273 C724 1.379 . S
C1278 C904 1.368 . S
C1283 C758 1.517 . S
C1288 C940 1.523 . S
C1293 C976 1.368 . S
C1298 C796 1.379 . S
C1303 C830 1.519 . S
C1308 C868 1.521 . S
C1313 C435 1.393 . S
C1318 C3 1.394 . S
C1323 C50 1.313 . S
C1328 C471 1.367 . S
C1333 C507 1.393 . S
C1338 C75 1.395 . S
C1343 C122 1.313 . S
C1348 C543 1.367 . S
C1353 C147 1.394 . S
C1358 C291 1.393 . S
C1363 C327 1.366 . S
C1368 C194 1.316 . S
C1373 C363 1.393 . S
C1378 C219 1.394 . S
C1383 C399 1.367 . S
C1388 C266 1.313 . S
C1393 C579 1.395 . S
C1398 C1011 1.393 . S
C1403 C1047 1.366 . S
C1408 C626 1.316 . S
C1413 C651 1.394 . S
C1418 C1083 1.393 . S
C1423 C698 1.314 . S
C1428 C1119 1.367 . S
C1433 C867 1.393 . S
C1438 C723 1.394 . S
C1443 C770 1.315 . S
C1448 C903 1.366 . S
C1453 C795 1.394 . S
C1458 C939 1.393 . S
C1463 C842 1.316 . S
C1468 C975 1.366 . S
C1473 C2 1.382 . S
C1478 C362 1.377 . S
C1483 C398 1.357 . S
C1488 C40 1.351 . S
C1493 C74 1.382 . S
C1498 C290 1.376 . S
C1503 C326 1.359 . S
C1508 C112 1.349 . S
C1513 C506 1.376 . S
C1518 C146 1.383 . S
C1523 C542 1.359 . S
C1528 C184 1.348 . S
C1533 C434 1.377 . S
C1538 C218 1.382 . S
C1543 C256 1.349 . S
C1548 C470 1.359 . S
C1553 C938 1.375 . S
C1558 C578 1.384 . S
C1563 C616 1.349 . S
C1568 C974 1.359 . S
C1573 C866 1.375 . S
C1578 C650 1.384 . S
C1583 C902 1.359 . S
C1588 C688 1.348 . S
C1593 C722 1.382 . S
C1598 C1082 1.377 . S
C1603 C760 1.349 . S
C1608 C1118 1.359 . S
C1613 C1010 1.377 . S
C1618 C794 1.382 . S
C1623 C1046 1.357 . S
C1628 C832 1.351 . S
C1633 C831 1.283 . S
C1638 C14 1.248 . S
C1643 C734 1.245 . S
C1648 C39 1.284 . S
C1653 C759 1.284 . S
C1658 C86 1.245 . S
C1663 C806 1.245 . S
C1668 C111 1.284 . S
C1673 C615 1.284 . S
C1678 C158 1.245 . S
C1683 C183 1.283 . S
C1688 C662 1.248 . S
C1693 C230 1.245 . S
C1698 C687 1.284 . S
C1703 C255 1.284 . S
C1708 C590 1.246 . S
C1713 C302 1.297 . S
C1718 C1130 1.276 . S
C1723 C1022 1.295 . S
C1728 C338 1.278 . S
C1733 C374 1.294 . S
C1738 C1058 1.279 . S
C1743 C410 1.279 . S
C1748 C1094 1.294 . S
C1753 C914 1.280 . S
C1758 C446 1.294 . S
C1763 C950 1.297 . S
C1768 C482 1.277 . S
C1773 C518 1.295 . S
C1778 C986 1.278 . S
C1783 C554 1.280 . S
C1788 C878 1.294 . S
