# Generated by pormake.
# Topology why, (6)-cn, num edge types: 1
# Building blocks:
#     Node 0, Type 0, BuildingBlock: UKALOJ_clean_sbu_0, # of connection points: 6
#     Node 1, Type 0, BuildingBlock: UKALOJ_clean_sbu_0, # of connection points: 6
#     Node 2, Type 0, BuildingBlock: UKALOJ_clean_sbu_0, # of connection points: 6
#     Node 3, Type 0, BuildingBlock: UKALOJ_clean_sbu_0, # of connection points: 6
#     Node 4, Type 0, BuildingBlock: UKALOJ_clean_sbu_0, # of connection points: 6
#     Node 5, Type 0, BuildingBlock: UKALOJ_clean_sbu_0, # of connection points: 6
#     Node 6, Type 0, BuildingBlock: UKALOJ_clean_sbu_0, # of connection points: 6
#     Node 7, Type 0, BuildingBlock: UKALOJ_clean_sbu_0, # of connection points: 6
#     Node 8, Type 0, BuildingBlock: UKALOJ_clean_sbu_0, # of connection points: 6
#     Node 9, Type 0, BuildingBlock: UKALOJ_clean_sbu_0, # of connection points: 6
#     Node 10, Type 0, BuildingBlock: UKALOJ_clean_sbu_0, # of connection points: 6
#     Node 11, Type 0, BuildingBlock: UKALOJ_clean_sbu_0, # of connection points: 6
#     Node 12, Type 0, BuildingBlock: UKALOJ_clean_sbu_0, # of connection points: 6
#     Node 13, Type 0, BuildingBlock: UKALOJ_clean_sbu_0, # of connection points: 6
#     Node 14, Type 0, BuildingBlock: UKALOJ_clean_sbu_0, # of connection points: 6
#     Node 15, Type 0, BuildingBlock: UKALOJ_clean_sbu_0, # of connection points: 6
#     Edge 16, Type (0, 0), BuildingBlock: CIFDUS_clean_linker_0, # of connection points: 2
#     Edge 17, Type (0, 0), BuildingBlock: CIFDUS_clean_linker_0, # of connection points: 2
#     Edge 18, Type (0, 0), BuildingBlock: CIFDUS_clean_linker_0, # of connection points: 2
#     Edge 19, Type (0, 0), BuildingBlock: CIFDUS_clean_linker_0, # of connection points: 2
#     Edge 20, Type (0, 0), BuildingBlock: CIFDUS_clean_linker_0, # of connection points: 2
#     Edge 21, Type (0, 0), BuildingBlock: CIFDUS_clean_linker_0, # of connection points: 2
#     Edge 22, Type (0, 0), BuildingBlock: CIFDUS_clean_linker_0, # of connection points: 2
#     Edge 23, Type (0, 0), BuildingBlock: CIFDUS_clean_linker_0, # of connection points: 2
#     Edge 24, Type (0, 0), BuildingBlock: CIFDUS_clean_linker_0, # of connection points: 2
#     Edge 25, Type (0, 0), BuildingBlock: CIFDUS_clean_linker_0, # of connection points: 2
#     Edge 26, Type (0, 0), BuildingBlock: CIFDUS_clean_linker_0, # of connection points: 2
#     Edge 27, Type (0, 0), BuildingBlock: CIFDUS_clean_linker_0, # of connection points: 2
#     Edge 28, Type (0, 0), BuildingBlock: CIFDUS_clean_linker_0, # of connection points: 2
#     Edge 29, Type (0, 0), BuildingBlock: CIFDUS_clean_linker_0, # of connection points: 2
#     Edge 30, Type (0, 0), BuildingBlock: CIFDUS_clean_linker_0, # of connection points: 2
#     Edge 31, Type (0, 0), BuildingBlock: CIFDUS_clean_linker_0, # of connection points: 2
#     Edge 32, Type (0, 0), BuildingBlock: CIFDUS_clean_linker_0, # of connection points: 2
#     Edge 33, Type (0, 0), BuildingBlock: CIFDUS_clean_linker_0, # of connection points: 2
#     Edge 34, Type (0, 0), BuildingBlock: CIFDUS_clean_linker_0, # of connection points: 2
#     Edge 35, Type (0, 0), BuildingBlock: CIFDUS_clean_linker_0, # of connection points: 2
#     Edge 36, Type (0, 0), BuildingBlock: CIFDUS_clean_linker_0, # of connection points: 2
#     Edge 37, Type (0, 0), BuildingBlock: CIFDUS_clean_linker_0, # of connection points: 2
#     Edge 38, Type (0, 0), BuildingBlock: CIFDUS_clean_linker_0, # of connection points: 2
#     Edge 39, Type (0, 0), BuildingBlock: CIFDUS_clean_linker_0, # of connection points: 2
#     Edge 40, Type (0, 0), BuildingBlock: CIFDUS_clean_linker_0, # of connection points: 2
#     Edge 41, Type (0, 0), BuildingBlock: CIFDUS_clean_linker_0, # of connection points: 2
#     Edge 42, Type (0, 0), BuildingBlock: CIFDUS_clean_linker_0, # of connection points: 2
#     Edge 43, Type (0, 0), BuildingBlock: CIFDUS_clean_linker_0, # of connection points: 2
#     Edge 44, Type (0, 0), BuildingBlock: CIFDUS_clean_linker_0, # of connection points: 2
#     Edge 45, Type (0, 0), BuildingBlock: CIFDUS_clean_linker_0, # of connection points: 2
#     Edge 46, Type (0, 0), BuildingBlock: CIFDUS_clean_linker_0, # of connection points: 2
#     Edge 47, Type (0, 0), BuildingBlock: CIFDUS_clean_linker_0, # of connection points: 2
#     Edge 48, Type (0, 0), BuildingBlock: CIFDUS_clean_linker_0, # of connection points: 2
#     Edge 49, Type (0, 0), BuildingBlock: CIFDUS_clean_linker_0, # of connection points: 2
#     Edge 50, Type (0, 0), BuildingBlock: CIFDUS_clean_linker_0, # of connection points: 2
#     Edge 51, Type (0, 0), BuildingBlock: CIFDUS_clean_linker_0, # of connection points: 2
#     Edge 52, Type (0, 0), BuildingBlock: CIFDUS_clean_linker_0, # of connection points: 2
#     Edge 53, Type (0, 0), BuildingBlock: CIFDUS_clean_linker_0, # of connection points: 2
#     Edge 54, Type (0, 0), BuildingBlock: CIFDUS_clean_linker_0, # of connection points: 2
#     Edge 55, Type (0, 0), BuildingBlock: CIFDUS_clean_linker_0, # of connection points: 2
#     Edge 56, Type (0, 0), BuildingBlock: CIFDUS_clean_linker_0, # of connection points: 2
#     Edge 57, Type (0, 0), BuildingBlock: CIFDUS_clean_linker_0, # of connection points: 2
#     Edge 58, Type (0, 0), BuildingBlock: CIFDUS_clean_linker_0, # of connection points: 2
#     Edge 59, Type (0, 0), BuildingBlock: CIFDUS_clean_linker_0, # of connection points: 2
#     Edge 60, Type (0, 0), BuildingBlock: CIFDUS_clean_linker_0, # of connection points: 2
#     Edge 61, Type (0, 0), BuildingBlock: CIFDUS_clean_linker_0, # of connection points: 2
#     Edge 62, Type (0, 0), BuildingBlock: CIFDUS_clean_linker_0, # of connection points: 2
#     Edge 63, Type (0, 0), BuildingBlock: CIFDUS_clean_linker_0, # of connection points: 2
# Relax obj value: 0.434
# Max RMSD: 0.169
# Mean RMSD: 0.169
data_MOF--net-why--node1-UKALOJ_clean_sbu_0--edge1-CIFDUS_clean_linker_0
_symmetry_space_group_name_H-M    P1
_symmetry_Int_Tables_number       1
_symmetry_cell_setting            triclinic
loop_
_symmetry_equiv_pos_as_xyz
'x, y, z'
_cell_length_a     46.632613
_cell_length_b     46.592356
_cell_length_c     22.748316
_cell_angle_alpha  89.739923
_cell_angle_beta   89.844666
_cell_angle_gamma 90.048163
loop_
_atom_site_label
_atom_site_type_symbol
_atom_site_fract_x
_atom_site_fract_y
_atom_site_fract_z
_atom_type_partial_charge
Zn0 Zn 0.32661 0.19415 0.04659 0.0
O1 O 0.32566 0.15313 0.0916 0.0
C2 C 0.30204 0.2259 0.15093 0.0
Zn3 Zn 0.36011 0.20937 0.10672 0.0
C4 C 0.34086 0.15059 0.13754 0.0
O5 O 0.35551 0.17178 0.15426 0.0
C6 C 0.35077 0.25238 1.01205 0.0
O7 O 0.39248 0.1882 0.05235 0.0
O8 O 0.3582 0.17711 0.99027 0.0
N9 N 0.38784 0.221 0.16951 0.0
C10 C 0.4134 0.23411 0.17073 0.0
C11 C 0.40224 0.22351 0.25944 0.0
N12 N 0.38084 0.21464 0.22459 0.0
N13 N 0.42273 0.23608 0.22672 0.0
C14 C 0.26915 0.1686 1.00462 0.0
C15 C 0.27411 0.16653 0.91156 0.0
N16 N 0.29506 0.17985 0.9915 0.0
N17 N 0.29816 0.17846 0.93365 0.0
N18 N 0.2556 0.16025 0.95532 0.0
H19 H 0.24388 0.14477 0.06786 0.0
H20 H 0.24425 0.18298 0.07783 0.0
H21 H 0.27484 0.16209 0.09851 0.0
C22 C 0.25759 0.16422 0.06572 0.0
C23 C 0.42973 0.24334 0.11702 0.0
H24 H 0.45273 0.23762 0.12141 0.0
H25 H 0.42816 0.26699 0.11221 0.0
H26 H 0.42085 0.23338 0.07691 0.0
O27 O 0.36588 0.24772 0.05763 0.0
O28 O 0.33093 0.23455 0.99882 0.0
C29 C 0.3846 0.17684 1.004 0.0
O30 O 0.29444 0.21216 0.10535 0.0
O31 O 0.32858 0.22918 0.16033 0.0
Zn32 Zn 0.54988 0.6055 0.34372 0.0
O33 O 0.56991 0.63806 0.28898 0.0
C34 C 0.50417 0.59626 0.25379 0.0
Zn35 Zn 0.56215 0.57177 0.28086 0.0
C36 C 0.57985 0.63051 0.23908 0.0
O37 O 0.57815 0.60432 0.22381 0.0
C38 C 0.53375 0.54669 0.38817 0.0
O39 O 0.60361 0.5706 0.32072 0.0
O40 O 0.5887 0.60099 0.38667 0.0
N41 N 0.5745 0.54108 0.22164 0.0
C42 C 0.59212 0.51834 0.22808 0.0
C43 C 0.57992 0.52027 0.13784 0.0
N44 N 0.56688 0.5422 0.16564 0.0
N45 N 0.59589 0.50497 0.17602 0.0
C46 C 0.52235 0.65691 0.40812 0.0
C47 C 0.53227 0.64653 0.49734 0.0
N48 N 0.53838 0.63304 0.4076 0.0
N49 N 0.5445 0.62657 0.46295 0.0
N50 N 0.51783 0.66556 0.4641 0.0
H51 H 0.52608 0.66631 0.31531 0.0
H52 H 0.51369 0.69587 0.35959 0.0
H53 H 0.49023 0.66612 0.34368 0.0
C54 C 0.51268 0.67227 0.35355 0.0
C55 C 0.60834 0.51177 0.28355 0.0
H56 H 0.6283 0.52466 0.28356 0.0
H57 H 0.61491 0.48913 0.28747 0.0
H58 H 0.59542 0.51734 0.32276 0.0
O59 O 0.54582 0.53879 0.34061 0.0
O60 O 0.53151 0.57333 0.39814 0.0
C61 C 0.60876 0.58606 0.36521 0.0
O62 O 0.51041 0.61133 0.29846 0.0
O63 O 0.52114 0.57615 0.23844 0.0
Zn64 Zn 0.14604 0.79726 0.5969 0.0
O65 O 0.11712 0.81861 0.53823 0.0
C66 C 0.15797 0.75182 0.50839 0.0
Zn67 Zn 0.1829 0.80842 0.54134 0.0
C68 C 0.12678 0.82865 0.48991 0.0
O69 O 0.15343 0.82635 0.47835 0.0
C70 C 0.20074 0.77726 0.65169 0.0
O71 O 0.18422 0.84954 0.58233 0.0
O72 O 0.15028 0.83556 0.64198 0.0
N73 N 0.21659 0.82057 0.48983 0.0
C74 C 0.24216 0.8318 0.505 0.0
C75 C 0.23955 0.83323 0.41146 0.0
N76 N 0.21499 0.82146 0.43172 0.0
N77 N 0.25695 0.83981 0.45663 0.0
C78 C 0.09206 0.76992 0.65086 0.0
C79 C 0.097 0.78171 0.74094 0.0
N80 N 0.11529 0.78674 0.65438 0.0
N81 N 0.11842 0.79402 0.71026 0.0
N82 N 0.08058 0.76605 0.70473 0.0
H83 H 0.08706 0.77201 0.55657 0.0
H84 H 0.05602 0.75892 0.5962 0.0
H85 H 0.08703 0.73641 0.58782 0.0
C86 C 0.07981 0.75883 0.59446 0.0
C87 C 0.25198 0.83662 0.56705 0.0
H88 H 0.23388 0.83854 0.59805 0.0
H89 H 0.26525 0.85634 0.56996 0.0
H90 H 0.26522 0.81809 0.58123 0.0
O91 O 0.21205 0.7897 0.60732 0.0
O92 O 0.17372 0.77676 0.65564 0.0
C93 C 0.16711 0.85504 0.62418 0.0
O94 O 0.14108 0.75864 0.54995 0.0
O95 O 0.17927 0.76805 0.49656 0.0
Zn96 Zn 0.96001 0.39762 0.85356 0.0
O97 O 0.93909 0.36531 0.79932 0.0
C98 C 1.00148 0.40978 0.75517 0.0
Zn99 Zn 0.94417 0.43116 0.79394 0.0
C100 C 0.92682 0.37334 0.75194 0.0
O101 O 0.92667 0.3998 0.73831 0.0
C102 C 0.9762 0.45583 0.89756 0.0
O103 O 0.90434 0.43016 0.84272 0.0
O104 O 0.92312 0.39942 0.90425 0.0
N105 N 0.92795 0.46252 0.74134 0.0
C106 C 0.91671 0.48818 0.75573 0.0
C107 C 0.91363 0.48412 0.66263 0.0
N108 N 0.92594 0.45995 0.6835 0.0
N109 N 0.90776 0.50211 0.70722 0.0
C110 C 0.99277 0.34621 0.90527 0.0
C111 C 0.98539 0.35212 0.99712 0.0
N112 N 0.9754 0.36892 0.91116 0.0
N113 N 0.97091 0.3727 0.96816 0.0
N114 N 0.99973 0.33566 0.95858 0.0
H115 H 1.001 0.30962 0.85017 0.0
H116 H 0.02368 0.34013 0.83685 0.0
H117 H 0.98712 0.34055 0.81162 0.0
C118 C 1.00144 0.3334 0.8475 0.0
C119 C 0.9131 0.49917 0.81727 0.0
H120 H 0.91148 0.48156 0.8497 0.0
H121 H 0.89363 0.51276 0.82065 0.0
H122 H 0.93191 0.51256 0.8287 0.0
O123 O 0.96252 0.46332 0.8517 0.0
O124 O 0.97936 0.42927 0.90775 0.0
C125 C 0.90177 0.41403 0.88766 0.0
O126 O 0.99754 0.39471 0.80117 0.0
O127 O 0.98312 0.42906 0.74208 0.0
Zn128 Zn 0.64821 0.79673 0.96085 0.0
O129 O 0.61571 0.8128 1.01728 0.0
C130 C 0.6604 0.75473 0.05807 0.0
Zn131 Zn 0.68128 0.8129 1.02169 0.0
C132 C 0.62206 0.82764 0.06227 0.0
O133 O 0.6483 0.83187 0.07509 0.0
C134 C 0.7062 0.7822 0.91608 0.0
O135 O 0.68262 0.8518 0.97326 0.0
O136 O 0.6486 0.83642 0.9155 0.0
N137 N 0.71229 0.8288 0.076 0.0
C138 C 0.73845 0.83947 0.06308 0.0
C139 C 0.73245 0.84366 0.15557 0.0
N140 N 0.70854 0.8315 0.13346 0.0
N141 N 0.75155 0.84878 0.11223 0.0
C142 C 0.59998 0.78983 0.86683 0.0
C143 C 0.59694 0.7443 0.86399 0.0
N144 N 0.6193 0.77928 0.90507 0.0
N145 N 0.6177 0.75096 0.90236 0.0
N146 N 0.58554 0.76831 0.84067 0.0
H147 H 0.61731 0.82788 0.8293 0.0
H148 H 0.57964 0.82491 0.81925 0.0
H149 H 0.59373 0.83375 0.89139 0.0
C150 C 0.59717 0.82091 0.85102 0.0
C151 C 0.75065 0.84228 1.00212 0.0
H152 H 0.76487 0.86134 0.99877 0.0
H153 H 0.76353 0.82291 0.99208 0.0
H154 H 0.73371 0.84417 0.96858 0.0
O155 O 0.71378 0.79345 0.96465 0.0
O156 O 0.67976 0.78093 0.90419 0.0
C157 C 0.66521 0.85649 0.9316 0.0
O158 O 0.64718 0.75778 1.00972 0.0
O159 O 0.67774 0.77431 0.07413 0.0
Zn160 Zn 0.45797 0.39925 0.71546 0.0
O161 O 0.43558 0.36888 0.772 0.0
C162 C 0.506 0.4049 0.80095 0.0
Zn163 Zn 0.44959 0.43347 0.77872 0.0
C164 C 0.42827 0.3766 0.82362 0.0
O165 O 0.43296 0.40237 0.83941 0.0
C166 C 0.47843 0.45586 0.66853 0.0
O167 O 0.40694 0.43712 0.74331 0.0
O168 O 0.41966 0.40769 0.67391 0.0
N169 N 0.43973 0.46584 0.83573 0.0
C170 C 0.42913 0.49215 0.82381 0.0
C171 C 0.42934 0.48729 0.91704 0.0
N172 N 0.43978 0.46281 0.8937 0.0
N173 N 0.42264 0.50597 0.8739 0.0
C174 C 0.46792 0.34198 0.65064 0.0
C175 C 0.46806 0.35665 0.56142 0.0
N176 N 0.46471 0.37052 0.65159 0.0
N177 N 0.46474 0.37962 0.59626 0.0
N178 N 0.46973 0.33281 0.59459 0.0
H179 H 0.47925 0.33616 0.74174 0.0
H180 H 0.4492 0.31524 0.71702 0.0
H181 H 0.48502 0.305 0.69604 0.0
C182 C 0.47069 0.32354 0.70451 0.0
C183 C 0.4233 0.50393 0.76339 0.0
H184 H 0.40426 0.51819 0.76392 0.0
H185 H 0.44202 0.51686 0.74888 0.0
H186 H 0.41962 0.48687 0.73085 0.0
O187 O 0.46688 0.46445 0.71602 0.0
O188 O 0.47925 0.42914 0.65904 0.0
C189 C 0.40059 0.42308 0.6975 0.0
O190 O 0.49678 0.38941 0.75909 0.0
O191 O 0.49178 0.42707 0.81643 0.0
Zn192 Zn 0.85812 0.21181 0.47049 0.0
O193 O 0.89072 0.19187 0.52537 0.0
C194 C 0.845 0.25317 0.5668 0.0
Zn195 Zn 0.82492 0.19508 0.53025 0.0
C196 C 0.88325 0.18001 0.57372 0.0
O197 O 0.85687 0.17921 0.58781 0.0
C198 C 0.79987 0.22574 0.42462 0.0
O199 O 0.82742 0.15515 0.48332 0.0
O200 O 0.85701 0.17497 0.42071 0.0
N201 N 0.79373 0.17861 0.58401 0.0
C202 C 0.772 0.16034 0.57261 0.0
C203 C 0.77051 0.16985 0.6642 0.0
N204 N 0.79276 0.18451 0.64087 0.0
N205 N 0.75715 0.15453 0.62229 0.0
C206 C 0.90958 0.2445 0.41756 0.0
C207 C 0.90331 0.23676 0.32603 0.0
N208 N 0.88646 0.22759 0.41243 0.0
N209 N 0.88242 0.22295 0.35561 0.0
N210 N 0.92021 0.2509 0.36394 0.0
H211 H 0.91451 0.24006 0.51183 0.0
H212 H 0.9464 0.25124 0.47274 0.0
H213 H 0.91748 0.27608 0.48348 0.0
C214 C 0.92271 0.25325 0.47489 0.0
C215 C 0.76757 0.14581 0.5145 0.0
H216 H 0.7823 0.12719 0.5117 0.0
H217 H 0.74561 0.13736 0.50905 0.0
H218 H 0.77242 0.1607 0.47773 0.0
O219 O 0.79235 0.21155 0.47015 0.0
O220 O 0.82634 0.23024 0.41608 0.0
C221 C 0.84321 0.15316 0.43793 0.0
O222 O 0.86038 0.24926 0.52141 0.0
O223 O 0.82581 0.23465 0.57987 0.0
Zn224 Zn 0.05081 0.6073 0.21657 0.0
O225 O 0.07306 0.63627 0.27466 0.0
C226 C 1.00256 0.59892 0.30281 0.0
Zn227 Zn 0.05974 0.5733 0.28015 0.0
C228 C 0.07928 0.62868 0.32688 0.0
O229 O 0.07399 0.60315 0.34331 0.0
C230 C 0.0328 0.55102 0.16822 0.0
O231 O 0.10293 0.57339 0.24492 0.0
O232 O 0.08903 0.60084 0.17269 0.0
N233 N 0.07005 0.54063 0.33656 0.0
C234 C 0.08843 0.51852 0.32994 0.0
C235 C 0.07391 0.51793 0.41894 0.0
N236 N 0.06093 0.54013 0.39173 0.0
N237 N 0.09129 0.50404 0.38119 0.0
C238 C 0.04112 0.66734 0.16424 0.0
C239 C 0.04053 0.65868 0.07213 0.0
N240 N 0.04313 0.6388 0.15783 0.0
N241 N 0.04274 0.63339 0.10066 0.0
N242 N 0.03999 0.6802 0.11125 0.0
H243 H 0.06048 0.6893 0.23637 0.0
H244 H 0.02525 0.70197 0.21792 0.0
H245 H 0.02941 0.66821 0.25612 0.0
C246 C 0.03879 0.68249 0.2221 0.0
C247 C 0.10612 0.51368 0.27554 0.0
H248 H 0.12638 0.526 0.27936 0.0
H249 H 0.11212 0.49104 0.26914 0.0
H250 H 0.09444 0.52091 0.23587 0.0
O251 O 0.04512 0.54284 0.21531 0.0
O252 O 0.03012 0.57778 0.15875 0.0
C253 C 0.10885 0.58714 0.19807 0.0
O254 O 0.01195 0.61531 0.26224 0.0
O255 O 0.01694 0.57664 0.31698 0.0
Zn256 Zn 0.82442 0.6942 0.53793 0.0
O257 O 0.82049 0.65457 0.58264 0.0
C258 C 0.79874 0.72527 0.64197 0.0
Zn259 Zn 0.85708 0.70909 0.60037 0.0
C260 C 0.83693 0.64967 0.62574 0.0
O261 O 0.85357 0.66939 0.64299 0.0
C262 C 0.84869 0.75251 0.50738 0.0
O263 O 0.89 0.69157 0.54586 0.0
O264 O 0.85761 0.67478 0.48499 0.0
N265 N 0.8843 0.72044 0.66429 0.0
C266 C 0.9121 0.72757 0.66464 0.0
C267 C 0.89774 0.72708 0.75402 0.0
N268 N 0.87535 0.72018 0.71971 0.0
N269 N 0.92096 0.73161 0.72028 0.0
C270 C 0.76736 0.67072 0.49088 0.0
C271 C 0.77463 0.66742 0.39857 0.0
N272 N 0.79398 0.68077 0.48013 0.0
N273 N 0.79853 0.67864 0.42278 0.0
N274 N 0.75481 0.66242 0.44053 0.0
H275 H 0.73952 0.64854 0.55215 0.0
H276 H 0.74113 0.68681 0.56059 0.0
H277 H 0.77019 0.6649 0.58566 0.0
C278 C 0.75402 0.66742 0.55078 0.0
C279 C 0.93021 0.7314 0.6106 0.0
H280 H 0.94001 0.7105 0.59886 0.0
H281 H 0.94769 0.74709 0.61844 0.0
H282 H 0.91697 0.73884 0.57314 0.0
O283 O 0.86177 0.74874 0.55584 0.0
O284 O 0.83073 0.73365 0.49028 0.0
C285 C 0.8838 0.67762 0.49962 0.0
O286 O 0.79137 0.71392 0.59348 0.0
O287 O 0.82507 0.72615 0.65447 0.0
Zn288 Zn 0.05074 0.10787 0.85113 0.0
O289 O 0.07242 0.13905 0.79583 0.0
C290 C 0.00583 0.10017 0.75894 0.0
Zn291 Zn 0.06251 0.07382 0.78923 0.0
C292 C 0.08262 0.13112 0.74647 0.0
O293 O 0.08049 0.10494 0.73158 0.0
C294 C 0.03154 0.05048 0.89611 0.0
O295 O 0.10358 0.07095 0.83079 0.0
O296 O 0.08913 0.10205 0.89574 0.0
N297 N 0.07471 0.04202 0.73341 0.0
C298 C 0.08509 0.01573 0.74591 0.0
C299 C 0.08674 0.0209 0.65277 0.0
N300 N 0.07581 0.04527 0.67553 0.0
N301 N 0.09261 1.00209 0.6962 0.0
C302 C 0.03605 0.16503 0.91202 0.0
C303 C 0.03425 0.15153 1.00191 0.0
N304 N 0.04082 0.1367 0.91314 0.0
N305 N 0.03971 0.12831 0.96889 0.0
N306 N 0.03218 0.1748 0.96715 0.0
H307 H 0.02639 0.16931 0.81978 0.0
H308 H 0.05535 0.19139 0.84571 0.0
H309 H 0.01888 0.2009 0.86309 0.0
C310 C 0.03387 0.18266 0.85692 0.0
C311 C 0.08951 1.00376 0.80668 0.0
H312 H 0.10861 0.98957 0.80783 0.0
H313 H 0.07053 0.99075 0.8192 0.0
H314 H 0.0923 0.02074 0.83977 0.0
O315 O 0.04373 0.04234 0.84896 0.0
O316 O 0.03034 0.07712 0.90644 0.0
C317 C 0.10886 0.08635 0.87532 0.0
O318 O 0.01192 0.11509 0.80403 0.0
O319 O 0.02235 0.0795 0.74457 0.0
Zn320 Zn 0.64913 0.29249 0.10144 0.0
O321 O 0.61725 0.30946 0.04254 0.0
C322 C 0.66019 0.24867 1.01292 0.0
Zn323 Zn 0.68149 0.30967 0.03933 0.0
C324 C 0.62344 0.32334 0.99591 0.0
O325 O 0.6496 0.32694 0.98198 0.0
C326 C 0.70688 0.28006 0.14799 0.0
O327 O 0.68176 0.35048 0.08217 0.0
O328 O 0.65069 0.33184 0.14309 0.0
N329 N 0.71306 0.32305 0.9821 0.0
C330 C 0.73524 0.34132 0.98975 0.0
C331 C 0.73546 0.32872 0.89976 0.0
N332 N 0.7133 0.31521 0.92622 0.0
N333 N 0.7496 0.34523 0.93862 0.0
C334 C 0.59137 0.27916 0.15997 0.0
C335 C 0.60255 0.28125 0.25089 0.0
N336 N 0.61993 0.28183 0.16279 0.0
N337 N 0.62693 0.28293 0.21923 0.0
N338 N 0.58008 0.27926 0.21439 0.0
H339 H 0.56744 0.29703 0.08848 0.0
H340 H 0.55514 0.2624 0.11252 0.0
H341 H 0.58785 0.2653 0.06999 0.0
C342 C 0.57455 0.27565 0.10438 0.0
C343 C 0.74048 0.35767 0.04549 0.0
H344 H 0.72599 0.37653 0.04642 0.0
H345 H 0.76253 0.36607 0.04902 0.0
H346 H 0.73593 0.34395 0.08432 0.0
O347 O 0.71411 0.29266 0.10021 0.0
O348 O 0.68047 0.27652 0.15867 0.0
C349 C 0.66521 0.35322 0.12611 0.0
O350 O 0.64623 0.25269 0.06016 0.0
O351 O 0.67729 0.26821 0.99422 0.0
Zn352 Zn 0.45694 0.89505 0.34887 0.0
O353 O 0.4327 0.86949 0.2891 0.0
C354 C 0.50406 0.9051 0.26163 0.0
Zn355 Zn 0.44899 0.93233 0.29343 0.0
C356 C 0.42608 0.87914 0.23864 0.0
O357 O 0.43237 0.90498 0.22568 0.0
C358 C 0.47902 0.94756 0.40666 0.0
O359 O 0.40672 0.93276 0.33133 0.0
O360 O 0.42055 0.90223 0.39843 0.0
N361 N 0.4394 0.96732 0.24197 0.0
C362 C 0.42079 0.98918 0.24965 0.0
C363 C 0.43585 0.99139 0.16116 0.0
N364 N 0.44888 0.9689 0.18715 0.0
N365 N 0.41802 0.00448 0.19926 0.0
C366 C 0.4506 0.83652 0.41134 0.0
C367 C 0.49162 0.83241 0.4514 0.0
N368 N 0.46575 0.86037 0.39846 0.0
N369 N 0.49109 0.85793 0.42384 0.0
N370 N 0.46652 0.81839 0.4444 0.0
H371 H 0.40828 0.85216 0.38915 0.0
H372 H 0.40869 0.81795 0.42594 0.0
H373 H 0.41951 0.8213 0.34972 0.0
C374 C 0.42001 0.83174 0.39343 0.0
C375 C 0.40311 0.99316 0.30426 0.0
H376 H 0.38276 0.98109 0.29953 0.0
H377 H 0.39741 0.01577 0.31219 0.0
H378 H 0.41485 0.98513 0.34329 0.0
O379 O 0.46574 0.95943 0.36395 0.0
O380 O 0.48061 0.92039 0.40835 0.0
C381 C 0.40106 0.91788 0.37682 0.0
O382 O 0.49378 0.88717 0.29821 0.0
O383 O 0.49119 0.92894 0.25356 0.0
Zn384 Zn 0.14987 0.29839 0.4682 0.0
O385 O 0.11777 0.32017 0.52229 0.0
C386 C 0.16053 0.25634 0.56459 0.0
Zn387 Zn 0.18308 0.31407 0.52833 0.0
C388 C 0.12535 0.33163 0.57068 0.0
O389 O 0.15162 0.33109 0.58524 0.0
C390 C 0.20782 0.2821 0.42404 0.0
O391 O 0.18249 0.3544 0.48166 0.0
O392 O 0.15348 0.33506 0.41796 0.0
N393 N 0.21457 0.32958 0.58182 0.0
C394 C 0.24003 0.34151 0.5677 0.0
C395 C 0.2358 0.34352 0.66093 0.0
N396 N 0.21191 0.33093 0.63975 0.0
N397 N 0.25378 0.35028 0.61651 0.0
C398 C 0.09297 0.27977 0.41126 0.0
C399 C 0.10597 0.27501 0.32164 0.0
N400 N 0.1212 0.28492 0.40876 0.0
N401 N 0.1293 0.28187 0.3532 0.0
N402 N 0.08296 0.27381 0.35716 0.0
H403 H 0.0891 0.27274 0.50458 0.0
H404 H 0.06734 0.30133 0.47538 0.0
H405 H 0.05711 0.26457 0.46299 0.0
C406 C 0.07563 0.27942 0.46684 0.0
C407 C 0.25087 0.34601 0.50606 0.0
H408 H 0.26405 0.36581 0.50309 0.0
H409 H 0.26447 0.32752 0.49345 0.0
H410 H 0.23327 0.34758 0.47397 0.0
O411 O 0.21529 0.2963 0.46915 0.0
O412 O 0.18133 0.27829 0.41499 0.0
C413 C 0.1675 0.3566 0.43532 0.0
O414 O 0.14511 0.26092 0.51949 0.0
O415 O 0.18027 0.27426 0.57753 0.0
Zn416 Zn 0.95786 0.90032 0.21934 0.0
O417 O 0.93799 0.86891 0.27636 0.0
C418 C 0.00421 0.90961 0.30755 0.0
Zn419 Zn 0.94606 0.9344 0.28175 0.0
C420 C 0.92846 0.87673 0.32634 0.0
O421 O 0.93018 0.90297 0.34096 0.0
C422 C 0.97427 0.95821 0.17246 0.0
O423 O 0.90419 0.9359 0.24322 0.0
O424 O 0.91853 0.90508 0.17767 0.0
N425 N 0.93472 0.96587 0.33985 0.0
C426 C 0.91731 0.98876 0.33312 0.0
C427 C 0.92964 0.98706 0.4233 0.0
N428 N 0.94246 0.96493 0.39579 0.0
N429 N 0.91373 1.00234 0.38499 0.0
C430 C 0.98134 0.84598 0.15804 0.0
C431 C 0.96775 0.85359 0.06972 0.0
N432 N 0.96743 0.87117 0.1573 0.0
N433 N 0.95912 0.87595 0.10244 0.0
N434 N 0.98202 0.83469 0.1035 0.0
H435 H 0.98951 0.8083 0.21084 0.0
H436 H 0.01606 0.83622 0.21596 0.0
H437 H 0.98219 0.84043 0.25248 0.0
C438 C 0.99272 0.83188 0.21261 0.0
C439 C 0.90109 0.9953 0.27764 0.0
H440 H 0.88054 0.98335 0.27868 0.0
H441 H 0.89565 0.0182 0.27269 0.0
H442 H 0.91352 0.98871 0.23848 0.0
O443 O 0.96244 0.96627 0.22017 0.0
O444 O 0.97629 0.93153 0.16249 0.0
C445 C 0.89872 0.92038 0.19897 0.0
O446 O 0.99777 0.89431 0.26329 0.0
O447 O 0.98734 0.92982 0.32278 0.0
Zn448 Zn 0.3257 0.69803 1.02163 0.0
O449 O 0.32545 0.65685 0.98051 0.0
C450 C 0.30724 0.72872 0.91149 0.0
Zn451 Zn 0.36261 0.7102 0.96643 0.0
C452 C 0.34316 0.65161 0.93951 0.0
O453 O 0.35951 0.67153 0.92175 0.0
C454 C 0.34951 0.75563 0.05435 0.0
O455 O 0.39197 0.6896 1.0252 0.0
O456 O 0.35558 0.68071 0.08441 0.0
N457 N 0.39286 0.72178 0.90823 0.0
C458 C 0.41582 0.73901 0.91153 0.0
C459 C 0.40973 0.72871 0.82101 0.0
N460 N 0.38904 0.71543 0.85207 0.0
N461 N 0.42646 0.74411 0.85718 0.0
C462 C 0.26847 0.66992 0.06029 0.0
C463 C 0.26682 0.67844 0.15227 0.0
N464 N 0.29197 0.68547 0.07369 0.0
N465 N 0.29091 0.69074 0.13084 0.0
N466 N 0.25246 0.6652 0.10885 0.0
H467 H 0.27233 0.63458 1.00143 0.0
H468 H 0.23985 0.65425 0.99223 0.0
H469 H 0.27299 0.66899 0.96544 0.0
C470 C 0.26301 0.65648 1.00143 0.0
C471 C 0.42853 0.74926 0.9682 0.0
H472 H 0.42158 0.73551 1.00545 0.0
H473 H 0.45229 0.7492 0.9657 0.0
H474 H 0.42125 0.77151 0.97673 0.0
O475 O 0.36667 0.74917 1.01301 0.0
O476 O 0.32866 0.73877 0.06615 0.0
C477 C 0.38233 0.67907 0.07314 0.0
O478 O 0.29605 0.71604 0.95571 0.0
O479 O 0.33425 0.72979 0.90787 0.0
Zn480 Zn 0.54543 0.11282 0.70526 0.0
O481 O 0.56811 0.1445 0.75334 0.0
C482 C 0.50675 0.10243 0.80829 0.0
Zn483 Zn 0.56237 0.07878 0.76271 0.0
C484 C 0.58284 0.13776 0.79838 0.0
O485 O 0.58365 0.11152 0.81472 0.0
C486 C 0.52558 0.05568 0.66386 0.0
O487 O 0.59997 0.07721 0.70976 0.0
O488 O 0.58129 0.10902 0.65037 0.0
N489 N 0.57903 0.04708 0.815 0.0
C490 C 0.58818 0.02052 0.80098 0.0
C491 C 0.59549 0.02608 0.89267 0.0
N492 N 0.58368 0.05055 0.87197 0.0
N493 N 0.59844 0.00692 0.84893 0.0
C494 C 0.51196 0.16369 0.65367 0.0
C495 C 0.51738 0.15647 0.56165 0.0
N496 N 0.5295 0.14114 0.6476 0.0
N497 N 0.53282 0.13657 0.59051 0.0
N498 N 0.50361 0.17326 0.60043 0.0
H499 H 0.52013 0.17131 0.74584 0.0
H500 H 0.50418 0.20108 0.70681 0.0
H501 H 0.48286 0.17019 0.72519 0.0
C502 C 0.50454 0.17735 0.71133 0.0
C503 C 0.58862 0.00838 0.73996 0.0
H504 H 0.59091 0.02541 0.70636 0.0
H505 H 0.60651 0.9929 0.73477 0.0
H506 H 0.56819 0.99685 0.73198 0.0
O507 O 0.5407 0.0465 0.70658 0.0
O508 O 0.52352 0.08245 0.65634 0.0
C509 C 0.60224 0.09321 0.66469 0.0
O510 O 0.50959 0.11741 0.76181 0.0
O511 O 0.52512 0.08285 0.81925 0.0
H512 H 0.44867 0.28569 0.20333 0.0
H513 H 0.45775 0.20563 0.29626 0.0
H514 H 0.50873 0.21535 0.31254 0.0
H515 H 0.55192 0.2419 0.28129 0.0
H516 H 0.54302 0.31981 0.18103 0.0
H517 H 0.4907 0.31616 0.18634 0.0
C518 C 0.46192 0.27072 0.22772 0.0
C519 C 0.45028 0.2447 0.24692 0.0
C520 C 0.49112 0.27601 0.23478 0.0
C521 C 0.46683 0.22565 0.28052 0.0
C522 C 0.49586 0.23111 0.28944 0.0
C523 C 0.53828 0.25837 0.26244 0.0
C524 C 0.55058 0.28065 0.22983 0.0
C525 C 0.50847 0.25548 0.26402 0.0
C526 C 0.53337 0.30224 0.20535 0.0
C527 C 0.50368 0.3001 0.20831 0.0
H528 H 0.46789 0.68688 0.4255 0.0
H529 H 0.53487 0.69987 0.55241 0.0
H530 H 0.51734 0.74846 0.57125 0.0
H531 H 0.49143 0.79011 0.53252 0.0
H532 H 0.4342 0.77841 0.38554 0.0
H533 H 0.43858 0.72726 0.39414 0.0
C534 C 0.47868 0.70048 0.45694 0.0
C535 C 0.50356 0.69076 0.48485 0.0
C536 C 0.47003 0.72892 0.46374 0.0
C537 C 0.51612 0.70748 0.52907 0.0
C538 C 0.50623 0.73524 0.53952 0.0
C539 C 0.47938 0.77629 0.50335 0.0
C540 C 0.46241 0.78855 0.45884 0.0
C541 C 0.48448 0.74674 0.50411 0.0
C542 C 0.44673 0.77031 0.42158 0.0
C543 C 0.44974 0.74067 0.42554 0.0
H544 H 0.03801 0.78754 0.76821 0.0
H545 H 0.06606 0.71209 0.67609 0.0
H546 H 0.01784 0.6915 0.68311 0.0
H547 H 0.96654 0.69962 0.69923 0.0
H548 H 0.93778 0.77638 0.7852 0.0
H549 H 0.98764 0.79189 0.79917 0.0
C550 C 0.03353 0.76628 0.75131 0.0
C551 C 0.05474 0.75154 0.72007 0.0
C552 C 0.00579 0.75515 0.75422 0.0
C553 C 0.04939 0.72393 0.69859 0.0
C554 C 0.02202 0.71224 0.70276 0.0
C555 C 0.97151 0.71939 0.72204 0.0
C556 C 0.94924 0.73738 0.73998 0.0
C557 C 0.99983 0.72836 0.72777 0.0
C558 C 0.9551 0.76264 0.77073 0.0
C559 C 0.98341 0.77147 0.77825 0.0
H560 H 0.98001 0.29306 1.02487 0.0
H561 H 0.05225 0.32058 0.92085 0.0
H562 H 0.07191 0.27184 0.92261 0.0
H563 H 0.06357 0.22046 0.93935 0.0
H564 H 0.98968 0.19249 0.03766 0.0
H565 H 0.97567 0.24251 0.05472 0.0
C566 C 1.00047 0.28836 1.00428 0.0
C567 C 0.01448 0.30965 0.97151 0.0
C568 C 0.01096 0.26033 1.00409 0.0
C569 C 0.041 0.30393 0.94498 0.0
C570 C 0.05212 0.27623 0.946 0.0
C571 C 0.04463 0.22558 0.96498 0.0
C572 C 0.02702 0.20345 0.98576 0.0
C573 C 0.03649 0.25407 0.97287 0.0
C574 C 1.00308 0.20965 1.02074 0.0
C575 C 0.9951 0.23806 1.03017 0.0
H576 H 0.5425 0.80298 0.87162 0.0
H577 H 0.56545 0.73358 0.75622 0.0
H578 H 0.51462 0.723 0.74025 0.0
H579 H 0.46561 0.72657 0.77984 0.0
H580 H 0.44362 0.79612 0.89547 0.0
H581 H 0.49254 0.81469 0.889 0.0
C582 C 0.53655 0.7868 0.83987 0.0
C583 C 0.5576 0.7691 0.81488 0.0
C584 C 0.5076 0.78053 0.83237 0.0
C585 C 0.5494 0.74737 0.77583 0.0
C586 C 0.52045 0.74122 0.76717 0.0
C587 C 0.47143 0.74629 0.80199 0.0
C588 C 0.45197 0.75916 0.84082 0.0
C589 C 0.49955 0.75652 0.7984 0.0
C590 C 0.45906 0.7851 0.86811 0.0
C591 C 0.48684 0.79578 0.864 0.0
H592 H 0.43862 0.28714 0.62398 0.0
H593 H 0.50965 0.31556 0.51761 0.0
H594 H 0.52315 0.26567 0.498 0.0
H595 H 0.52039 0.21527 0.52945 0.0
H596 H 0.45158 0.18735 0.64238 0.0
H597 H 0.431 0.2357 0.64133 0.0
C598 C 0.45677 0.28214 0.59596 0.0
C599 C 0.47387 0.30435 0.57382 0.0
C600 C 0.46479 0.2537 0.58687 0.0
C601 C 0.49669 0.29833 0.53568 0.0
C602 C 0.50441 0.26998 0.52481 0.0
C603 C 0.5004 0.21977 0.55206 0.0
C604 C 0.48777 0.19857 0.5873 0.0
C605 C 0.48949 0.24762 0.55277 0.0
C606 C 0.46181 0.20398 0.61636 0.0
C607 C 0.45017 0.23146 0.61576 0.0
H608 H 0.96196 0.22705 0.30201 0.0
H609 H 0.93834 0.30309 0.39715 0.0
H610 H 0.98824 0.31966 0.3954 0.0
H611 H 0.03903 0.30803 0.38095 0.0
H612 H 0.06302 0.2303 0.29227 0.0
H613 H 0.01234 0.21879 0.27527 0.0
C614 C 0.96781 0.24763 0.3206 0.0
C615 C 0.94718 0.26373 0.35065 0.0
C616 C 0.99644 0.2563 0.32108 0.0
C617 C 0.95441 0.29035 0.37485 0.0
C618 C 0.98276 0.29968 0.37393 0.0
C619 C 0.03291 0.28874 0.35762 0.0
C620 C 0.05405 0.26942 0.33948 0.0
C621 C 0.00405 0.2821 0.34971 0.0
C622 C 0.04661 0.24501 0.30724 0.0
C623 C 0.01783 0.23849 0.29779 0.0
H624 H 0.99867 0.70549 0.04998 0.0
H625 H 0.07631 0.72119 0.14625 0.0
H626 H 0.06726 0.77297 0.1438 0.0
H627 H 0.03337 0.81235 0.1272 0.0
H628 H 0.95369 0.79617 0.03833 0.0
H629 H 0.96753 0.74607 1.02253 0.0
C630 C 0.01382 0.72051 0.06881 0.0
C631 C 0.03775 0.71011 0.09901 0.0
C632 C 0.0079 0.74992 0.06885 0.0
C633 C 0.05754 0.72922 0.12361 0.0
C634 C 0.05233 0.75862 0.12228 0.0
C635 C 0.01924 0.79774 0.10422 0.0
C636 C 0.99229 0.80722 0.08564 0.0
C637 C 0.02694 0.76901 0.09732 0.0
C638 C 0.97441 0.78884 0.05361 0.0
C639 C 0.98224 0.76031 0.04493 0.0
H640 H 0.12655 0.12511 0.95509 0.0
H641 H 0.15831 0.06014 0.83698 0.0
H642 H 0.20744 0.07709 0.8527 0.0
H643 H 0.24079 0.11363 0.89317 0.0
H644 H 0.20715 0.18047 1.00378 0.0
H645 H 0.15918 0.15987 0.99715 0.0
C646 C 0.14419 0.1142 0.93351 0.0
C647 C 0.1387 0.09142 0.89474 0.0
C648 C 0.17201 0.12483 0.94061 0.0
C649 C 0.16192 0.07766 0.8672 0.0
C650 C 0.18998 0.08756 0.87566 0.0
C651 C 0.22284 0.1235 0.91569 0.0
C652 C 0.2274 0.14818 0.94974 0.0
C653 C 0.19517 0.11171 0.91085 0.0
C654 C 0.20415 0.16104 0.97865 0.0
C655 C 0.17676 0.14934 0.97465 0.0
H656 H 0.673 0.40612 0.076 0.0
H657 H 0.63956 0.36349 0.23062 0.0
H658 H 0.61446 0.40697 0.25916 0.0
H659 H 0.59658 0.45453 0.23294 0.0
H660 H 0.63234 0.49968 0.08457 0.0
H661 H 0.66074 0.45718 0.05848 0.0
C662 C 0.66102 0.40668 0.1169 0.0
C663 C 0.65791 0.38152 0.15078 0.0
C664 C 0.64627 0.43181 0.13295 0.0
C665 C 0.64212 0.38251 0.20351 0.0
C666 C 0.62751 0.40728 0.21965 0.0
C667 C 0.61167 0.45557 0.19669 0.0
C668 C 0.61326 0.48045 0.16204 0.0
C669 C 0.62863 0.43167 0.18366 0.0
C670 C 0.63114 0.48074 0.11224 0.0
C671 C 0.64747 0.45658 0.09764 0.0
H672 H 0.38331 0.88328 0.46503 0.0
H673 H 0.35154 0.94039 0.33021 0.0
H674 H 0.30297 0.92187 0.34561 0.0
H675 H 0.27076 0.88516 0.38933 0.0
H676 H 0.30498 0.82451 0.51418 0.0
H677 H 0.35163 0.84812 0.50968 0.0
C678 C 0.36576 0.89209 0.43949 0.0
C679 C 0.37115 0.913 0.39609 0.0
C680 C 0.33843 0.88014 0.44594 0.0
C681 C 0.34802 0.92433 0.36401 0.0
C682 C 0.32031 0.91345 0.37221 0.0
C683 C 0.28852 0.8773 0.41548 0.0
C684 C 0.28445 0.85356 0.45292 0.0
C685 C 0.3155 0.8906 0.41147 0.0
C686 C 0.30748 0.84328 0.48647 0.0
C687 C 0.33415 0.85667 0.48367 0.0
H688 H 0.87631 0.63196 0.70453 0.0
H689 H 0.80825 0.60084 0.5933 0.0
H690 H 0.82382 0.55141 0.61087 0.0
H691 H 0.86025 0.51755 0.64942 0.0
H692 H 0.92977 0.55 0.75412 0.0
H693 H 0.91044 0.59855 0.747 0.0
C694 C 0.86445 0.61439 0.68497 0.0
C695 C 0.84133 0.62009 0.64725 0.0
C696 C 0.87418 0.58631 0.69325 0.0
C697 C 0.82619 0.59702 0.62248 0.0
C698 C 0.83525 0.56879 0.632 0.0
C699 C 0.87092 0.53539 0.67065 0.0
C700 C 0.89608 0.53044 0.70278 0.0
C701 C 0.85983 0.56328 0.66564 0.0
C702 C 0.91001 0.55343 0.73028 0.0
C703 C 0.89904 0.58111 0.72601 0.0
H704 H 0.76648 0.89487 0.17575 0.0
H705 H 0.80026 0.82814 0.06497 0.0
H706 H 0.8484 0.84794 0.07421 0.0
H707 H 0.88112 0.88189 0.11862 0.0
H708 H 0.84915 0.94629 0.23779 0.0
H709 H 0.79998 0.93029 0.21941 0.0
C710 C 0.78448 0.88487 0.15365 0.0
C711 C 0.77985 0.86055 0.11857 0.0
C712 C 0.81229 0.89606 0.16035 0.0
C713 C 0.80322 0.84744 0.09049 0.0
C714 C 0.83075 0.85863 0.09614 0.0
C715 C 0.86345 0.89286 0.13996 0.0
C716 C 0.86889 0.91529 0.17959 0.0
C717 C 0.83554 0.88277 0.13124 0.0
C718 C 0.84561 0.92909 0.20685 0.0
C719 C 0.8175 0.91973 0.19682 0.0
H720 H 0.38548 0.63434 0.86685 0.0
H721 H 0.31698 0.60173 0.97645 0.0
H722 H 0.33593 0.553 0.96612 0.0
H723 H 0.3746 0.52025 0.93206 0.0
H724 H 0.44406 0.55449 0.82827 0.0
H725 H 0.42256 0.60229 0.83138 0.0
C726 C 0.37429 0.61658 0.88775 0.0
C727 C 0.34985 0.62175 0.92249 0.0
C728 C 0.38596 0.58903 0.88382 0.0
C729 C 0.33575 0.59837 0.94918 0.0
C730 C 0.34679 0.57055 0.94391 0.0
C731 C 0.38493 0.53836 0.91067 0.0
C732 C 0.41073 0.53416 0.87989 0.0
C733 C 0.37237 0.56577 0.91276 0.0
C734 C 0.42406 0.55746 0.85174 0.0
C735 C 0.41175 0.58464 0.85341 0.0
H736 H 0.65451 0.07892 0.70839 0.0
H737 H 0.61348 0.1217 0.5624 0.0
H738 H 0.65899 0.14368 0.53429 0.0
H739 H 0.70828 0.1567 0.56075 0.0
H740 H 0.74973 0.11424 0.70573 0.0
H741 H 0.70582 0.08691 0.72644 0.0
C742 C 0.6557 0.09231 0.66932 0.0
C743 C 0.63058 0.09889 0.63791 0.0
C744 C 0.68177 0.10561 0.65443 0.0
C745 C 0.63248 0.11641 0.58754 0.0
C746 C 0.65843 0.12923 0.57176 0.0
C747 C 0.70799 0.14059 0.59528 0.0
C748 C 0.73226 0.13684 0.63082 0.0
C749 C 0.68289 0.12489 0.60629 0.0
C750 C 0.73123 0.11716 0.67765 0.0
C751 C 0.70624 0.10153 0.68925 0.0
H752 H 0.17211 0.4094 0.48559 0.0
H753 H 0.14555 0.36639 0.32706 0.0
H754 H 0.11895 0.40875 0.29631 0.0
H755 H 0.09703 0.4546 0.32235 0.0
H756 H 0.1259 0.50008 0.47535 0.0
H757 H 0.15652 0.45936 0.50272 0.0
C758 C 0.16139 0.40971 0.44333 0.0
C759 C 0.16051 0.38469 0.40901 0.0
C760 C 0.14567 0.43407 0.4262 0.0
C761 C 0.14637 0.38533 0.35449 0.0
C762 C 0.13086 0.40941 0.33713 0.0
C763 C 0.11117 0.45625 0.35988 0.0
C764 C 0.11006 0.48062 0.39563 0.0
C765 C 0.12944 0.4334 0.37377 0.0
C766 C 0.12671 0.48151 0.44696 0.0
C767 C 0.14432 0.45839 0.46229 0.0
H768 H 0.62586 0.62791 0.43822 0.0
H769 H 0.65861 0.55926 0.33043 0.0
H770 H 0.70753 0.57698 0.34473 0.0
H771 H 0.74056 0.61458 0.38214 0.0
H772 H 0.7059 0.68505 0.48135 0.0
H773 H 0.6579 0.6644 0.47517 0.0
C774 C 0.64365 0.61639 0.41857 0.0
C775 C 0.63852 0.59223 0.38334 0.0
C776 C 0.67132 0.62747 0.42451 0.0
C777 C 0.66194 0.57781 0.35801 0.0
C778 C 0.68988 0.58813 0.36564 0.0
C779 C 0.72234 0.62529 0.40199 0.0
C780 C 0.72655 0.65095 0.43294 0.0
C781 C 0.69472 0.61342 0.39748 0.0
C782 C 0.70303 0.66493 0.45852 0.0
C783 C 0.67569 0.65316 0.4549 0.0
H784 H 0.14021 0.98704 0.63758 0.0
H785 H 0.07039 0.95391 0.74196 0.0
H786 H 0.09073 0.9057 0.73759 0.0
H787 H 0.12647 0.87293 0.69983 0.0
H788 H 0.19479 0.90424 0.58818 0.0
H789 H 0.17764 0.95349 0.60132 0.0
C790 C 0.12959 0.9691 0.65899 0.0
C791 C 0.1041 0.97375 0.69048 0.0
C792 C 0.14135 0.94139 0.65576 0.0
C793 C 0.0903 0.95065 0.71837 0.0
C794 C 0.1019 0.9232 0.71585 0.0
C795 C 0.13803 0.8905 0.67907 0.0
C796 C 0.16179 0.88488 0.64281 0.0
C797 C 0.12731 0.91834 0.68448 0.0
C798 C 0.17646 0.90799 0.61645 0.0
C799 C 0.16646 0.9361 0.62336 0.0
H800 H 0.79918 0.34723 0.99825 0.0
H801 H 0.75555 0.3816 0.84718 0.0
H802 H 0.79816 0.40993 0.82113 0.0
H803 H 0.84905 0.422 0.8384 0.0
H804 H 0.89115 0.38885 0.99323 0.0
H805 H 0.84718 0.36461 1.02326 0.0
C806 C 0.79856 0.36192 0.96121 0.0
C807 C 0.77403 0.36309 0.92573 0.0
C808 C 0.82275 0.37859 0.94761 0.0
C809 C 0.77419 0.38068 0.8754 0.0
C810 C 0.79845 0.39694 0.86076 0.0
C811 C 0.84831 0.41026 0.87967 0.0
C812 C 0.87342 0.40708 0.91326 0.0
C813 C 0.823 0.39585 0.89628 0.0
C814 C 0.87217 0.39154 0.96639 0.0
C815 C 0.84711 0.37742 0.98337 0.0
H816 H 0.40889 0.05336 0.25923 0.0
H817 H 0.38469 0.00754 0.1032 0.0
H818 H 0.35395 0.04759 0.07298 0.0
H819 H 0.33764 0.09753 0.08762 0.0
H820 H 0.35978 0.14115 0.24818 0.0
H821 H 0.38567 0.09899 0.28259 0.0
C822 C 0.39566 0.05138 0.22043 0.0
C823 C 0.39832 0.02715 0.18452 0.0
C824 C 0.3774 0.07399 0.20447 0.0
C825 C 0.38277 0.02599 0.13171 0.0
C826 C 0.36509 0.04876 0.11465 0.0
C827 C 0.34716 0.09737 0.13107 0.0
C828 C 0.34705 0.12251 0.165 0.0
C829 C 0.36256 0.07311 0.15032 0.0
C830 C 0.35973 0.12209 0.22105 0.0
C831 C 0.37483 0.0981 0.24054 0.0
H832 H 0.26871 0.39524 0.68364 0.0
H833 H 0.30194 0.33259 0.56256 0.0
H834 H 0.34937 0.35417 0.56805 0.0
H835 H 0.38189 0.38805 0.61217 0.0
H836 H 0.35156 0.44734 0.74365 0.0
H837 H 0.30228 0.43061 0.72796 0.0
C838 C 0.28644 0.38653 0.6585 0.0
C839 C 0.28176 0.36293 0.62138 0.0
C840 C 0.31399 0.3986 0.66338 0.0
C841 C 0.30481 0.35143 0.5895 0.0
C842 C 0.33197 0.36362 0.59302 0.0
C843 C 0.36454 0.39779 0.63688 0.0
C844 C 0.37046 0.41884 0.67926 0.0
C845 C 0.33681 0.38702 0.63009 0.0
C846 C 0.34759 0.43116 0.71062 0.0
C847 C 0.31948 0.42134 0.70216 0.0
H848 H 0.83555 0.0999 0.48606 0.0
H849 H 0.86913 0.14381 0.33305 0.0
H850 H 0.89446 0.10061 0.3034 0.0
H851 H 0.9126 0.05295 0.32858 0.0
H852 H 0.87695 0.00686 0.47587 0.0
H853 H 0.84808 0.04893 0.50243 0.0
C854 C 0.84764 0.09971 0.44526 0.0
C855 C 0.85072 0.12513 0.41222 0.0
C856 C 0.86256 0.07479 0.42867 0.0
C857 C 0.86659 0.12459 0.35956 0.0
C858 C 0.88134 0.09998 0.3428 0.0
C859 C 0.89745 0.05163 0.36468 0.0
C860 C 0.89605 0.02661 0.39899 0.0
C861 C 0.88028 0.07535 0.37811 0.0
C862 C 0.87804 0.02592 0.44856 0.0
C863 C 0.86145 0.04984 0.46342 0.0
H864 H 0.12643 0.62059 0.10787 0.0
H865 H 0.15874 0.56776 0.24927 0.0
H866 H 0.20714 0.58651 0.23184 0.0
H867 H 0.23926 0.62194 0.18253 0.0
H868 H 0.20465 0.67756 0.04889 0.0
H869 H 0.15796 0.65407 0.0576 0.0
C870 C 0.14407 0.61268 0.13438 0.0
C871 C 0.13887 0.5928 0.17996 0.0
C872 C 0.17137 0.6245 0.126 0.0
C873 C 0.16211 0.58291 0.21369 0.0
C874 C 0.18974 0.59389 0.20418 0.0
C875 C 0.22142 0.62859 0.15525 0.0
C876 C 0.22533 0.65083 0.11404 0.0
C877 C 0.19443 0.61536 0.16163 0.0
C878 C 0.20217 0.65982 0.0794 0.0
C879 C 0.17552 0.64653 0.08468 0.0
H880 H 0.64658 0.98975 0.9029 0.0
H881 H 0.57287 0.95931 0.80806 0.0
H882 H 0.58968 0.9099 0.81755 0.0
H883 H 0.62331 0.87549 0.85864 0.0
H884 H 0.69604 0.90477 0.95865 0.0
H885 H 0.68214 0.95459 0.94022 0.0
C886 C 0.63442 0.97218 0.88424 0.0
C887 C 0.6088 0.97801 0.85412 0.0
C888 C 0.64412 0.94376 0.8905 0.0
C889 C 0.59299 0.95527 0.83016 0.0
C890 C 0.60252 0.92706 0.83587 0.0
C891 C 0.63649 0.8926 0.87561 0.0
C892 C 0.66057 0.88623 0.91026 0.0
C893 C 0.62789 0.92106 0.86642 0.0
C894 C 0.67734 0.90898 0.93182 0.0
C895 C 0.66928 0.9375 0.92173 0.0
H896 H 0.43168 0.14285 1.02619 0.0
H897 H 0.38368 0.1827 0.88617 0.0
H898 H 0.41603 0.16201 0.81335 0.0
H899 H 0.45826 0.13325 0.78888 0.0
H900 H 0.5056 0.09104 0.92687 0.0
H901 H 0.47295 0.11119 1.00054 0.0
C902 C 0.42852 0.14707 0.97974 0.0
C903 C 0.40551 0.16458 0.96164 0.0
C904 C 0.44683 0.13431 0.93758 0.0
C905 C 0.40127 0.1694 0.90124 0.0
C906 C 0.41972 0.15751 0.8595 0.0
C907 C 0.46134 0.12822 0.83503 0.0
C908 C 0.48446 0.11068 0.85214 0.0
C909 C 0.44254 0.13993 0.87707 0.0
C910 C 0.48787 0.10425 0.91223 0.0
C911 C 0.46935 0.11603 0.95451 0.0
H912 H 0.61454 0.67608 0.26627 0.0
H913 H 0.57666 0.63129 0.1203 0.0
H914 H 0.59986 0.6643 0.05127 0.0
H915 H 0.62976 0.70668 1.03208 0.0
H916 H 0.66986 0.75055 0.17684 0.0
H917 H 0.64768 0.71683 0.24619 0.0
C918 C 0.61128 0.67374 0.21935 0.0
C919 C 0.59353 0.65153 0.19846 0.0
C920 C 0.62545 0.69238 0.17956 0.0
C921 C 0.59004 0.64831 0.1375 0.0
C922 C 0.60338 0.66713 0.09796 0.0
C923 C 0.63405 0.70865 0.07873 0.0
C924 C 0.65153 0.73122 0.09899 0.0
C925 C 0.62109 0.68927 0.11842 0.0
C926 C 0.65677 0.7333 0.15973 0.0
C927 C 0.6438 0.71417 0.19958 0.0
H928 H 0.04989 0.87501 0.28099 0.0
H929 H 0.01204 0.92318 0.42295 0.0
H930 H 0.04611 0.90209 0.49197 0.0
H931 H 0.08492 0.86752 0.51363 0.0
H932 H 0.12536 0.82225 0.37109 0.0
H933 H 0.09208 0.84436 0.30099 0.0
C934 C 0.0494 0.88127 0.32685 0.0
C935 C 0.02829 0.90068 0.34655 0.0
C936 C 0.06931 0.86919 0.36649 0.0
C937 C 0.0281 0.90853 0.40623 0.0
C938 C 0.04746 0.89624 0.44599 0.0
C939 C 0.08641 0.86258 0.46716 0.0
C940 C 0.10724 0.84296 0.44757 0.0
C941 C 0.06779 0.87612 0.42689 0.0
C942 C 0.10939 0.83718 0.38717 0.0
C943 C 0.09037 0.84983 0.34712 0.0
H944 H 0.87697 0.30043 0.54291 0.0
H945 H 0.83339 0.25691 0.68503 0.0
H946 H 0.85584 0.28933 0.75595 0.0
H947 H 0.89038 0.32873 0.77802 0.0
H948 H 0.93209 0.37262 0.63408 0.0
H949 H 0.90851 0.34103 0.56377 0.0
C950 C 0.87202 0.29824 0.58933 0.0
C951 C 0.85347 0.27621 0.60845 0.0
C952 C 0.88528 0.31668 0.62979 0.0
C953 C 0.84728 0.27385 0.66886 0.0
C954 C 0.86044 0.29218 0.70957 0.0
C955 C 0.8944 0.3311 0.73128 0.0
C956 C 0.91332 0.35264 0.71122 0.0
C957 C 0.87998 0.31332 0.69069 0.0
C958 C 0.91782 0.35604 0.65051 0.0
C959 C 0.90423 0.33808 0.61027 0.0
H960 H 0.61489 0.88186 0.1057 0.0
H961 H 0.57711 0.79738 0.10384 0.0
H962 H 0.5381 0.81384 0.16715 0.0
H963 H 0.51445 0.85203 0.222 0.0
H964 H 0.54833 0.93807 0.21703 0.0
H965 H 0.58906 0.92148 0.15711 0.0
C966 C 0.59812 0.86716 0.11954 0.0
C967 C 0.59891 0.83838 0.1008 0.0
C968 C 0.57509 0.8771 0.15439 0.0
C969 C 0.57688 0.81958 0.11789 0.0
C970 C 0.55461 0.82898 0.15407 0.0
C971 C 0.53085 0.86717 0.2081 0.0
C972 C 0.52867 0.89615 0.22462 0.0
C973 C 0.55348 0.85764 0.17246 0.0
C974 C 0.54965 0.91564 0.20506 0.0
C975 C 0.57292 0.90611 0.17093 0.0
H976 H 0.39122 0.33223 0.8005 0.0
H977 H 0.43492 0.37505 0.94206 0.0
H978 H 0.41381 0.3416 1.01305 0.0
H979 H 0.38411 0.29918 0.03505 0.0
H980 H 0.33776 0.25789 0.89506 0.0
H981 H 0.35812 0.29188 0.82397 0.0
C982 C 0.3961 0.33417 0.8469 0.0
C983 C 0.41491 0.35596 0.86582 0.0
C984 C 0.38314 0.31526 0.88799 0.0
C985 C 0.4206 0.35848 0.92624 0.0
C986 C 0.4085 0.33935 0.96694 0.0
C987 C 0.37809 0.29785 0.98912 0.0
C988 C 0.35932 0.27591 0.9707 0.0
C989 C 0.38981 0.31758 0.94839 0.0
C990 C 0.35186 0.27464 0.91084 0.0
C991 C 0.36375 0.29395 0.86994 0.0
H992 H 0.96275 0.13828 0.78184 0.0
H993 H 0.99676 0.0843 0.64475 0.0
H994 H 0.96306 0.10515 0.57445 0.0
H995 H 0.92476 0.14027 0.55056 0.0
H996 H 0.88874 0.19158 0.68938 0.0
H997 H 0.92247 0.17067 0.75984 0.0
C998 C 0.96257 0.13077 0.73678 0.0
C999 C 0.98236 0.10967 0.71888 0.0
C1000 C 0.94301 0.14281 0.69646 0.0
C1001 C 0.98169 0.10029 0.66014 0.0
C1002 C 0.96256 0.11242 0.61963 0.0
C1003 C 0.92454 0.14694 0.59619 0.0
C1004 C 0.9047 0.16779 0.6147 0.0
C1005 C 0.94338 0.13402 0.63701 0.0
C1006 C 0.90404 0.17576 0.67415 0.0
C1007 C 0.92324 0.16373 0.71445 0.0
H1008 H 0.1239 0.70617 0.53439 0.0
H1009 H 0.17311 0.74415 0.39332 0.0
H1010 H 0.15259 0.70985 0.32395 0.0
H1011 H 0.11814 0.67081 0.30222 0.0
H1012 H 0.07104 0.63151 0.44475 0.0
H1013 H 0.09282 0.66479 0.51444 0.0
C1014 C 0.13043 0.70671 0.48861 0.0
C1015 C 0.14994 0.72778 0.4691 0.0
C1016 C 0.11849 0.68697 0.44898 0.0
C1017 C 0.15834 0.72802 0.40968 0.0
C1018 C 0.14636 0.70859 0.36982 0.0
C1019 C 0.11267 0.66965 0.34855 0.0
C1020 C 0.09273 0.64903 0.3683 0.0
C1021 C 0.12595 0.68835 0.38873 0.0
C1022 C 0.08623 0.6473 0.42854 0.0
C1023 C 0.09872 0.66628 0.4684 0.0
H1024 H 0.89119 0.62318 0.45699 0.0
H1025 H 0.92896 0.70763 0.45787 0.0
H1026 H 0.96789 0.69102 0.39431 0.0
H1027 H 0.99162 0.65254 0.33955 0.0
H1028 H 0.95802 0.56647 0.34735 0.0
H1029 H 0.91714 0.58337 0.40643 0.0
C1030 C 0.90795 0.63785 0.44293 0.0
C1031 C 0.90711 0.66669 0.46141 0.0
C1032 C 0.93098 0.6278 0.40808 0.0
C1033 C 0.92917 0.68541 0.444 0.0
C1034 C 0.95139 0.67592 0.40765 0.0
C1035 C 0.97521 0.6375 0.35381 0.0
C1036 C 0.97752 0.60838 0.33825 0.0
C1037 C 0.95255 0.6472 0.38948 0.0
C1038 C 0.95657 0.58901 0.35841 0.0
C1039 C 0.93323 0.5987 0.39216 0.0
H1040 H 0.11733 0.17669 0.77315 0.0
H1041 H 0.0793 0.13156 0.62778 0.0
H1042 H 0.10153 0.16506 0.55843 0.0
H1043 H 0.13035 0.20815 0.53895 0.0
H1044 H 0.17107 0.25209 0.6828 0.0
H1045 H 0.14992 0.21783 0.75254 0.0
C1046 C 0.11392 0.17432 0.72628 0.0
C1047 C 0.09638 0.15191 0.70562 0.0
C1048 C 0.12756 0.19324 0.6863 0.0
C1049 C 0.0926 0.14869 0.64475 0.0
C1050 C 0.10535 0.16781 0.60505 0.0
C1051 C 0.13499 0.20999 0.58549 0.0
C1052 C 0.15231 0.2327 0.6055 0.0
C1053 C 0.12277 0.19023 0.62527 0.0
C1054 C 0.1581 0.23468 0.66601 0.0
C1055 C 0.14573 0.21525 0.70603 0.0
H1056 H 0.51628 0.35065 0.83593 0.0
H1057 H 0.55067 0.4363 0.84619 0.0
H1058 H 0.59119 0.41839 0.90482 0.0
H1059 H 0.61653 0.37794 0.95438 0.0
H1060 H 0.57815 0.29378 0.95344 0.0
H1061 H 0.53953 0.31132 0.89002 0.0
C1062 C 0.53279 0.36535 0.85066 0.0
C1063 C 0.53083 0.39467 0.83594 0.0
C1064 C 0.55525 0.35507 0.88616 0.0
C1065 C 0.55189 0.41363 0.85663 0.0
C1066 C 0.57501 0.40336 0.89012 0.0
C1067 C 0.59972 0.36353 0.93992 0.0
C1068 C 0.60028 0.33452 0.95776 0.0
C1069 C 0.57691 0.3741 0.90527 0.0
C1070 C 0.57814 0.31613 0.93997 0.0
C1071 C 0.55611 0.32615 0.90372 0.0
H1072 H 0.38225 0.80255 1.02847 0.0
H1073 H 0.33379 0.76309 0.16901 0.0
H1074 H 0.35295 0.79805 0.2385 0.0
H1075 H 0.38653 0.83757 0.26091 0.0
H1076 H 0.43291 0.8787 0.11963 0.0
H1077 H 0.41167 0.84538 0.04897 0.0
C1078 C 0.37553 0.80188 0.07413 0.0
C1079 C 0.35669 0.78008 0.09347 0.0
C1080 C 0.3866 0.82214 0.1139 0.0
C1081 C 0.34806 0.77969 0.15274 0.0
C1082 C 0.35924 0.79954 0.19269 0.0
C1083 C 0.39186 0.83926 0.21458 0.0
C1084 C 0.41158 0.86028 0.19556 0.0
C1085 C 0.37904 0.82044 0.17404 0.0
C1086 C 0.41787 0.86265 0.13531 0.0
C1087 C 0.40575 0.84358 0.09494 0.0
H1088 H 0.07917 0.36602 0.54431 0.0
H1089 H 0.12488 0.3275 0.68901 0.0
H1090 H 0.09198 0.34974 0.75891 0.0
H1091 H 0.0497 0.37928 0.77939 0.0
H1092 H 0.00476 0.42016 0.63642 0.0
H1093 H 0.03819 0.39872 0.56585 0.0
C1094 C 0.08174 0.36244 0.59114 0.0
C1095 C 0.10422 0.34481 0.61143 0.0
C1096 C 0.06315 0.37613 0.63153 0.0
C1097 C 0.10769 0.34084 0.67228 0.0
C1098 C 0.08893 0.35364 0.71233 0.0
C1099 C 0.04739 0.38382 0.73284 0.0
C1100 C 0.02467 0.40135 0.71342 0.0
C1101 C 0.06659 0.37131 0.69255 0.0
C1102 C 0.02219 0.40705 0.65284 0.0
C1103 C 0.04113 0.39449 0.61232 0.0
H1104 H 0.89291 0.83216 0.30012 0.0
H1105 H 0.93347 0.87537 0.44499 0.0
H1106 H 0.91108 0.84189 0.51444 0.0
H1107 H 0.88103 0.79949 0.53386 0.0
H1108 H 0.83795 0.75793 0.38973 0.0
H1109 H 0.85964 0.79188 0.32055 0.0
C1110 C 0.8969 0.83407 0.3469 0.0
C1111 C 0.91514 0.85588 0.36743 0.0
C1112 C 0.88319 0.81527 0.38682 0.0
C1113 C 0.91964 0.85861 0.42819 0.0
C1114 C 0.90679 0.83953 0.46791 0.0
C1115 C 0.87603 0.79809 0.48743 0.0
C1116 C 0.85786 0.77609 0.46721 0.0
C1117 C 0.88857 0.81774 0.44776 0.0
C1118 C 0.85165 0.77471 0.40677 0.0
C1119 C 0.86428 0.79399 0.36699 0.0
H1120 H 0.42437 0.64059 0.04823 0.0
H1121 H 0.38353 0.68446 0.19217 0.0
H1122 H 0.41647 0.66149 0.26178 0.0
H1123 H 0.45835 0.63039 0.28107 0.0
H1124 H 0.49682 0.58379 0.13764 0.0
H1125 H 0.46305 0.60571 0.06894 0.0
C1126 C 0.42276 0.64507 0.09488 0.0
C1127 C 0.4019 0.66455 0.11505 0.0
C1128 C 0.44116 0.63103 0.13483 0.0
C1129 C 0.39954 0.66969 0.17566 0.0
C1130 C 0.41835 0.65653 0.21543 0.0
C1131 C 0.45906 0.62467 0.23493 0.0
C1132 C 0.48023 0.60546 0.21472 0.0
C1133 C 0.4394 0.63729 0.1955 0.0
C1134 C 0.48069 0.59828 0.15471 0.0
C1135 C 0.46152 0.61105 0.11517 0.0
H1136 H 0.64624 0.24794 0.89734 0.0
H1137 H 0.65467 0.19327 0.04939 0.0
H1138 H 0.63291 0.15334 0.9957 0.0
H1139 H 0.60777 0.13507 0.90775 0.0
H1140 H 0.59561 0.19162 0.75913 0.0
H1141 H 0.62212 0.22944 0.80893 0.0
C1142 C 0.64405 0.22702 0.91801 0.0
C1143 C 0.65269 0.22334 0.97677 0.0
C1144 C 0.63019 0.20458 0.88776 0.0
C1145 C 0.64868 0.19644 1.00384 0.0
C1146 C 0.63597 0.1737 0.9733 0.0
C1147 C 0.61106 0.15561 0.88615 0.0
C1148 C 0.5995 0.16038 0.82971 0.0
C1149 C 0.626 0.17767 0.91563 0.0
C1150 C 0.60396 0.18727 0.80265 0.0
C1151 C 0.61929 0.20898 0.83104 0.0
H1152 H 0.31254 0.24906 0.25891 0.0
H1153 H 0.24329 0.22559 0.1431 0.0
H1154 H 0.20839 0.23993 0.21777 0.0
H1155 H 0.1974 0.25896 0.31611 0.0
H1156 H 0.2666 0.28265 0.43185 0.0
H1157 H 0.30154 0.26825 0.35721 0.0
C1158 C 0.28981 0.24722 0.24969 0.0
C1159 C 0.28066 0.23622 0.19505 0.0
C1160 C 0.26979 0.25539 0.29311 0.0
C1161 C 0.25106 0.23389 0.18447 0.0
C1162 C 0.23105 0.24207 0.22732 0.0
C1163 C 0.22013 0.26084 0.32533 0.0
C1164 C 0.22925 0.27187 0.37995 0.0
C1165 C 0.24015 0.25271 0.28191 0.0
C1166 C 0.25885 0.27428 0.3905 0.0
C1167 C 0.27888 0.26608 0.34767 0.0
H1168 H 0.51338 0.55822 0.49802 0.0
H1169 H 0.53233 0.4877 0.38187 0.0
H1170 H 0.51764 0.45358 0.45854 0.0
H1171 H 0.49934 0.44375 0.55874 0.0
H1172 H 0.48113 0.51457 0.67466 0.0
H1173 H 0.49579 0.54847 0.59803 0.0
C1174 C 0.5142 0.53539 0.48913 0.0
C1175 C 0.52384 0.52565 0.43373 0.0
C1176 C 0.506 0.51588 0.53367 0.0
C1177 C 0.52492 0.49591 0.42371 0.0
C1178 C 0.51658 0.47636 0.46771 0.0
C1179 C 0.49871 0.4666 0.56751 0.0
C1180 C 0.48905 0.47648 0.62283 0.0
C1181 C 0.50714 0.48609 0.52294 0.0
C1182 C 0.48836 0.50623 0.63285 0.0
C1183 C 0.49672 0.52568 0.58887 0.0
H1184 H 0.25702 0.78739 0.68142 0.0
H1185 H 0.18231 0.73882 0.73365 0.0
H1186 H 0.20753 0.72053 0.8196 0.0
H1187 H 0.25093 0.71833 0.88161 0.0
H1188 H 0.32555 0.76707 0.82934 0.0
H1189 H 0.30036 0.78521 0.74334 0.0
C1190 C 0.2464 0.77256 0.71123 0.0
C1191 C 0.21781 0.7645 0.70061 0.0
C1192 C 0.26095 0.76228 0.76154 0.0
C1193 C 0.20431 0.74549 0.74043 0.0
C1194 C 0.21869 0.73502 0.78995 0.0
C1195 C 0.26154 0.73315 0.85175 0.0
C1196 C 0.29011 0.74129 0.86241 0.0
C1197 C 0.24697 0.74342 0.80141 0.0
C1198 C 0.30357 0.76032 0.82256 0.0
C1199 C 0.2892 0.77072 0.77299 0.0
H1200 H 0.01036 0.56143 0.05884 0.0
H1201 H 0.03333 0.49242 0.17687 0.0
H1202 H 0.01875 0.45728 0.10345 0.0
H1203 H 0.99936 0.44587 1.00587 0.0
H1204 H 0.97648 0.51462 0.88729 0.0
H1205 H 0.99124 0.54993 0.96049 0.0
C1206 C 0.01208 0.5387 0.0687 0.0
C1207 C 0.02287 0.52972 0.12376 0.0
C1208 C 0.00378 0.51846 1.02593 0.0
C1209 C 0.02506 0.5001 0.13522 0.0
C1210 C 0.01676 0.47992 0.09309 0.0
C1211 C 0.99773 0.46857 0.99572 0.0
C1212 C 0.98674 0.47745 0.9408 0.0
C1213 C 0.00615 0.48882 0.03825 0.0
C1214 C 0.98472 0.50704 0.92899 0.0
C1215 C 0.99317 0.5273 0.97098 0.0
H1216 H 0.69518 0.76179 0.80638 0.0
H1217 H 0.76495 0.77968 0.92515 0.0
H1218 H 0.79939 0.76442 0.85017 0.0
H1219 H 0.80965 0.74608 0.75125 0.0
H1220 H 0.73995 0.72807 0.6324 0.0
H1221 H 0.70548 0.74351 0.70724 0.0
C1222 C 0.71792 0.76229 0.81618 0.0
C1223 C 0.72739 0.7719 0.87173 0.0
C1224 C 0.7376 0.75359 0.77271 0.0
C1225 C 0.75698 0.77244 0.88309 0.0
C1226 C 0.77669 0.76373 0.8401 0.0
C1227 C 0.78692 0.74561 0.74135 0.0
C1228 C 0.77748 0.7359 0.68586 0.0
C1229 C 0.76724 0.75436 0.78474 0.0
C1230 C 0.74789 0.73541 0.67441 0.0
C1231 C 0.72816 0.7442 0.71733 0.0
H1232 H 0.69637 0.25474 0.25418 0.0
H1233 H 0.76572 0.28505 0.14413 0.0
H1234 H 0.80025 0.27168 0.22049 0.0
H1235 H 0.81073 0.25151 0.31862 0.0
H1236 H 0.74119 0.22109 0.42807 0.0
H1237 H 0.70678 0.23466 0.35189 0.0
C1238 C 0.71905 0.25836 0.24653 0.0
C1239 C 0.72834 0.27084 0.19297 0.0
C1240 C 0.73876 0.25079 0.29082 0.0
C1241 C 0.75787 0.2754 0.18449 0.0
C1242 C 0.77764 0.26783 0.22834 0.0
C1243 C 0.78803 0.24797 0.32614 0.0
C1244 C 0.77865 0.23536 0.37954 0.0
C1245 C 0.76833 0.2556 0.28176 0.0
C1246 C 0.74911 0.23082 0.38785 0.0
C1247 C 0.7294 0.23851 0.34411 0.0
H1248 H 0.00971 0.06181 1.00518 0.0
H1249 H 0.02897 0.99176 0.88804 0.0
H1250 H 0.01364 0.95736 0.96328 0.0
H1251 H 0.99522 0.94702 0.06269 0.0
H1252 H 0.97557 0.01702 0.17971 0.0
H1253 H 0.99072 0.05147 0.10427 0.0
C1254 C 0.01042 0.03902 0.99581 0.0
C1255 C 0.02056 0.0295 0.94064 0.0
C1256 C 1.00166 0.01929 0.03953 0.0
C1257 C 0.02136 0.99982 0.92982 0.0
C1258 C 0.01261 0.98009 0.97299 0.0
C1259 C 0.99433 0.96981 0.07197 0.0
C1260 C 0.98436 0.9793 0.12727 0.0
C1261 C 1.00288 0.98955 1.02812 0.0
C1262 C 0.98323 0.00899 0.1379 0.0
C1263 C 0.99184 0.02874 0.09462 0.0
H1264 H 0.54006 1.00038 0.63149 0.0
H1265 H 0.48064 0.06896 0.59394 0.0
H1266 H 0.46201 0.0427 0.51015 0.0
H1267 H 0.46334 1.00098 0.44436 0.0
H1268 H 0.52152 0.9315 0.48214 0.0
H1269 H 0.53984 0.95727 0.56756 0.0
C1270 C 0.52268 0.00928 0.60565 0.0
C1271 C 0.51184 0.03667 0.6194 0.0
C1272 C 0.51208 0.99409 0.55644 0.0
C1273 C 0.48952 0.04797 0.58462 0.0
C1274 C 0.47888 0.03303 0.53627 0.0
C1275 C 0.48021 0.99161 0.47096 0.0
C1276 C 0.49121 0.96447 0.45622 0.0
C1277 C 0.49027 0.00629 0.52103 0.0
C1278 C 0.51271 0.95244 0.49209 0.0
C1279 C 0.52316 0.96712 0.54126 0.0
loop_
_geom_bond_atom_site_label_1
_geom_bond_atom_site_label_2
_geom_bond_distance
_geom_bond_site_symmetry_2
_ccdc_geom_bond_type
Zn0 O1 2.055 . S
Zn0 O8 2.046 1_554 S
Zn0 N16 2.036 1_554 S
Zn0 O28 2.053 1_554 S
Zn0 O30 2.066 . S
O1 Zn0 2.055 . S
O1 C4 1.259 . S
C2 O30 1.256 . S
C2 O31 1.244 . S
Zn3 O5 2.046 . S
Zn3 O7 2.055 . S
Zn3 N9 2.036 . S
Zn3 O27 2.066 . S
Zn3 O31 2.053 . S
C4 O1 1.259 . S
C4 O5 1.254 . S
O5 Zn3 2.046 . S
O5 C4 1.254 . S
C6 O27 1.256 1_556 S
C6 O28 1.244 . S
O7 Zn3 2.055 . S
O7 C29 1.259 1_554 S
O8 Zn0 2.046 1_556 S
O8 C29 1.254 . S
N9 Zn3 2.036 . S
N9 C10 1.298 . S
N9 N12 1.398 . S
C10 N9 1.298 . S
C10 N13 1.367 . S
C10 C23 1.481 . S
C11 N12 1.299 . S
C11 N13 1.379 . S
N12 N9 1.398 . S
N12 C11 1.299 . S
N13 C10 1.367 . S
N13 C11 1.379 . S
C14 N16 1.298 . S
C14 N18 1.367 . S
C14 C22 1.481 1_556 S
C15 N17 1.299 . S
C15 N18 1.379 . S
N16 Zn0 2.036 1_556 S
N16 C14 1.298 . S
N16 N17 1.398 . S
N17 C15 1.299 . S
N17 N16 1.398 . S
N18 C14 1.367 . S
N18 C15 1.379 . S
H19 C22 0.980 . S
H20 C22 0.981 . S
H21 C22 0.981 . S
C22 C14 1.481 1_554 S
C22 H19 0.980 . S
C22 H20 0.981 . S
C22 H21 0.981 . S
C23 C10 1.481 . S
C23 H24 0.980 . S
C23 H25 0.981 . S
C23 H26 0.981 . S
H24 C23 0.980 . S
H25 C23 0.981 . S
H26 C23 0.981 . S
O27 Zn3 2.066 . S
O27 C6 1.256 1_554 S
O28 Zn0 2.053 1_556 S
O28 C6 1.244 . S
C29 O7 1.259 1_556 S
C29 O8 1.254 . S
O30 Zn0 2.066 . S
O30 C2 1.256 . S
O31 C2 1.244 . S
O31 Zn3 2.053 . S
Zn32 O33 2.055 . S
Zn32 O40 2.046 . S
Zn32 N48 2.036 . S
Zn32 O60 2.053 . S
Zn32 O62 2.066 . S
O33 Zn32 2.055 . S
O33 C36 1.259 . S
C34 O62 1.256 . S
C34 O63 1.244 . S
Zn35 O37 2.046 . S
Zn35 O39 2.055 . S
Zn35 N41 2.036 . S
Zn35 O59 2.066 . S
Zn35 O63 2.053 . S
C36 O33 1.259 . S
C36 O37 1.254 . S
O37 Zn35 2.046 . S
O37 C36 1.254 . S
C38 O59 1.256 . S
C38 O60 1.244 . S
O39 Zn35 2.055 . S
O39 C61 1.259 . S
O40 Zn32 2.046 . S
O40 C61 1.254 . S
N41 Zn35 2.036 . S
N41 C42 1.298 . S
N41 N44 1.398 . S
C42 N41 1.298 . S
C42 N45 1.367 . S
C42 C55 1.481 . S
C43 N44 1.299 . S
C43 N45 1.379 . S
N44 N41 1.398 . S
N44 C43 1.299 . S
N45 C42 1.367 . S
N45 C43 1.379 . S
C46 N48 1.298 . S
C46 N50 1.367 . S
C46 C54 1.481 . S
C47 N49 1.299 . S
C47 N50 1.379 . S
N48 Zn32 2.036 . S
N48 C46 1.298 . S
N48 N49 1.398 . S
N49 C47 1.299 . S
N49 N48 1.398 . S
N50 C46 1.367 . S
N50 C47 1.379 . S
H51 C54 0.980 . S
H52 C54 0.981 . S
H53 C54 0.981 . S
C54 C46 1.481 . S
C54 H51 0.980 . S
C54 H52 0.981 . S
C54 H53 0.981 . S
C55 C42 1.481 . S
C55 H56 0.980 . S
C55 H57 0.981 . S
C55 H58 0.981 . S
H56 C55 0.980 . S
H57 C55 0.981 . S
H58 C55 0.981 . S
O59 Zn35 2.066 . S
O59 C38 1.256 . S
O60 Zn32 2.053 . S
O60 C38 1.244 . S
C61 O39 1.259 . S
C61 O40 1.254 . S
O62 Zn32 2.066 . S
O62 C34 1.256 . S
O63 C34 1.244 . S
O63 Zn35 2.053 . S
Zn64 O65 2.055 . S
Zn64 O72 2.046 . S
Zn64 N80 2.036 . S
Zn64 O92 2.053 . S
Zn64 O94 2.066 . S
O65 Zn64 2.055 . S
O65 C68 1.259 . S
C66 O94 1.256 . S
C66 O95 1.244 . S
Zn67 O69 2.046 . S
Zn67 O71 2.055 . S
Zn67 N73 2.036 . S
Zn67 O91 2.066 . S
Zn67 O95 2.053 . S
C68 O65 1.259 . S
C68 O69 1.254 . S
O69 Zn67 2.046 . S
O69 C68 1.254 . S
C70 O91 1.256 . S
C70 O92 1.244 . S
O71 Zn67 2.055 . S
O71 C93 1.259 . S
O72 Zn64 2.046 . S
O72 C93 1.254 . S
N73 Zn67 2.036 . S
N73 C74 1.298 . S
N73 N76 1.398 . S
C74 N73 1.298 . S
C74 N77 1.367 . S
C74 C87 1.481 . S
C75 N76 1.299 . S
C75 N77 1.379 . S
N76 N73 1.398 . S
N76 C75 1.299 . S
N77 C74 1.367 . S
N77 C75 1.379 . S
C78 N80 1.298 . S
C78 N82 1.367 . S
C78 C86 1.481 . S
C79 N81 1.299 . S
C79 N82 1.379 . S
N80 Zn64 2.036 . S
N80 C78 1.298 . S
N80 N81 1.398 . S
N81 C79 1.299 . S
N81 N80 1.398 . S
N82 C78 1.367 . S
N82 C79 1.379 . S
H83 C86 0.980 . S
H84 C86 0.981 . S
H85 C86 0.981 . S
C86 C78 1.481 . S
C86 H83 0.980 . S
C86 H84 0.981 . S
C86 H85 0.981 . S
C87 C74 1.481 . S
C87 H88 0.980 . S
C87 H89 0.981 . S
C87 H90 0.981 . S
H88 C87 0.980 . S
H89 C87 0.981 . S
H90 C87 0.981 . S
O91 Zn67 2.066 . S
O91 C70 1.256 . S
O92 Zn64 2.053 . S
O92 C70 1.244 . S
C93 O71 1.259 . S
C93 O72 1.254 . S
O94 Zn64 2.066 . S
O94 C66 1.256 . S
O95 C66 1.244 . S
O95 Zn67 2.053 . S
Zn96 O97 2.055 . S
Zn96 O104 2.046 . S
Zn96 N112 2.036 . S
Zn96 O124 2.053 . S
Zn96 O126 2.066 . S
O97 Zn96 2.055 . S
O97 C100 1.259 . S
C98 O126 1.256 . S
C98 O127 1.244 . S
Zn99 O101 2.046 . S
Zn99 O103 2.055 . S
Zn99 N105 2.036 . S
Zn99 O123 2.066 . S
Zn99 O127 2.053 . S
C100 O97 1.259 . S
C100 O101 1.254 . S
O101 Zn99 2.046 . S
O101 C100 1.254 . S
C102 O123 1.256 . S
C102 O124 1.244 . S
O103 Zn99 2.055 . S
O103 C125 1.259 . S
O104 Zn96 2.046 . S
O104 C125 1.254 . S
N105 Zn99 2.036 . S
N105 C106 1.298 . S
N105 N108 1.398 . S
C106 N105 1.298 . S
C106 N109 1.367 . S
C106 C119 1.481 . S
C107 N108 1.299 . S
C107 N109 1.379 . S
N108 N105 1.398 . S
N108 C107 1.299 . S
N109 C106 1.367 . S
N109 C107 1.379 . S
C110 N112 1.298 . S
C110 N114 1.367 . S
C110 C118 1.481 . S
C111 N113 1.299 . S
C111 N114 1.379 . S
N112 Zn96 2.036 . S
N112 C110 1.298 . S
N112 N113 1.398 . S
N113 C111 1.299 . S
N113 N112 1.398 . S
N114 C110 1.367 . S
N114 C111 1.379 . S
H115 C118 0.980 . S
H116 C118 0.981 . S
H117 C118 0.981 . S
C118 C110 1.481 . S
C118 H115 0.980 . S
C118 H116 0.981 . S
C118 H117 0.981 . S
C119 C106 1.481 . S
C119 H120 0.980 . S
C119 H121 0.981 . S
C119 H122 0.981 . S
H120 C119 0.980 . S
H121 C119 0.981 . S
H122 C119 0.981 . S
O123 Zn99 2.066 . S
O123 C102 1.256 . S
O124 Zn96 2.053 . S
O124 C102 1.244 . S
C125 O103 1.259 . S
C125 O104 1.254 . S
O126 Zn96 2.066 . S
O126 C98 1.256 . S
O127 C98 1.244 . S
O127 Zn99 2.053 . S
Zn128 O129 2.055 . S
Zn128 O136 2.046 . S
Zn128 N144 2.036 . S
Zn128 O156 2.053 . S
Zn128 O158 2.066 . S
O129 Zn128 2.055 . S
O129 C132 1.259 1_556 S
C130 O158 1.256 1_554 S
C130 O159 1.244 . S
Zn131 O133 2.046 1_556 S
Zn131 O135 2.055 . S
Zn131 N137 2.036 1_556 S
Zn131 O155 2.066 . S
Zn131 O159 2.053 1_556 S
C132 O129 1.259 1_554 S
C132 O133 1.254 . S
O133 Zn131 2.046 1_554 S
O133 C132 1.254 . S
C134 O155 1.256 . S
C134 O156 1.244 . S
O135 Zn131 2.055 . S
O135 C157 1.259 . S
O136 Zn128 2.046 . S
O136 C157 1.254 . S
N137 Zn131 2.036 1_554 S
N137 C138 1.298 . S
N137 N140 1.398 . S
C138 N137 1.298 . S
C138 N141 1.367 . S
C138 C151 1.481 1_554 S
C139 N140 1.299 . S
C139 N141 1.379 . S
N140 N137 1.398 . S
N140 C139 1.299 . S
N141 C138 1.367 . S
N141 C139 1.379 . S
C142 N144 1.298 . S
C142 N146 1.367 . S
C142 C150 1.481 . S
C143 N145 1.299 . S
C143 N146 1.379 . S
N144 Zn128 2.036 . S
N144 C142 1.298 . S
N144 N145 1.398 . S
N145 C143 1.299 . S
N145 N144 1.398 . S
N146 C142 1.367 . S
N146 C143 1.379 . S
H147 C150 0.980 . S
H148 C150 0.981 . S
H149 C150 0.981 . S
C150 C142 1.481 . S
C150 H147 0.980 . S
C150 H148 0.981 . S
C150 H149 0.981 . S
C151 C138 1.481 1_556 S
C151 H152 0.980 . S
C151 H153 0.981 . S
C151 H154 0.981 . S
H152 C151 0.980 . S
H153 C151 0.981 . S
H154 C151 0.981 . S
O155 Zn131 2.066 . S
O155 C134 1.256 . S
O156 Zn128 2.053 . S
O156 C134 1.244 . S
C157 O135 1.259 . S
C157 O136 1.254 . S
O158 Zn128 2.066 . S
O158 C130 1.256 1_556 S
O159 C130 1.244 . S
O159 Zn131 2.053 1_554 S
Zn160 O161 2.055 . S
Zn160 O168 2.046 . S
Zn160 N176 2.036 . S
Zn160 O188 2.053 . S
Zn160 O190 2.066 . S
O161 Zn160 2.055 . S
O161 C164 1.259 . S
C162 O190 1.256 . S
C162 O191 1.244 . S
Zn163 O165 2.046 . S
Zn163 O167 2.055 . S
Zn163 N169 2.036 . S
Zn163 O187 2.066 . S
Zn163 O191 2.053 . S
C164 O161 1.259 . S
C164 O165 1.254 . S
O165 Zn163 2.046 . S
O165 C164 1.254 . S
C166 O187 1.256 . S
C166 O188 1.244 . S
O167 Zn163 2.055 . S
O167 C189 1.259 . S
O168 Zn160 2.046 . S
O168 C189 1.254 . S
N169 Zn163 2.036 . S
N169 C170 1.298 . S
N169 N172 1.398 . S
C170 N169 1.298 . S
C170 N173 1.367 . S
C170 C183 1.481 . S
C171 N172 1.299 . S
C171 N173 1.379 . S
N172 N169 1.398 . S
N172 C171 1.299 . S
N173 C170 1.367 . S
N173 C171 1.379 . S
C174 N176 1.298 . S
C174 N178 1.367 . S
C174 C182 1.481 . S
C175 N177 1.299 . S
C175 N178 1.379 . S
N176 Zn160 2.036 . S
N176 C174 1.298 . S
N176 N177 1.398 . S
N177 C175 1.299 . S
N177 N176 1.398 . S
N178 C174 1.367 . S
N178 C175 1.379 . S
H179 C182 0.980 . S
H180 C182 0.981 . S
H181 C182 0.981 . S
C182 C174 1.481 . S
C182 H179 0.980 . S
C182 H180 0.981 . S
C182 H181 0.981 . S
C183 C170 1.481 . S
C183 H184 0.980 . S
C183 H185 0.981 . S
C183 H186 0.981 . S
H184 C183 0.980 . S
H185 C183 0.981 . S
H186 C183 0.981 . S
O187 Zn163 2.066 . S
O187 C166 1.256 . S
O188 Zn160 2.053 . S
O188 C166 1.244 . S
C189 O167 1.259 . S
C189 O168 1.254 . S
O190 Zn160 2.066 . S
O190 C162 1.256 . S
O191 C162 1.244 . S
O191 Zn163 2.053 . S
Zn192 O193 2.055 . S
Zn192 O200 2.046 . S
Zn192 N208 2.036 . S
Zn192 O220 2.053 . S
Zn192 O222 2.066 . S
O193 Zn192 2.055 . S
O193 C196 1.259 . S
C194 O222 1.256 . S
C194 O223 1.244 . S
Zn195 O197 2.046 . S
Zn195 O199 2.055 . S
Zn195 N201 2.036 . S
Zn195 O219 2.066 . S
Zn195 O223 2.053 . S
C196 O193 1.259 . S
C196 O197 1.254 . S
O197 Zn195 2.046 . S
O197 C196 1.254 . S
C198 O219 1.256 . S
C198 O220 1.244 . S
O199 Zn195 2.055 . S
O199 C221 1.259 . S
O200 Zn192 2.046 . S
O200 C221 1.254 . S
N201 Zn195 2.036 . S
N201 C202 1.298 . S
N201 N204 1.398 . S
C202 N201 1.298 . S
C202 N205 1.367 . S
C202 C215 1.481 . S
C203 N204 1.299 . S
C203 N205 1.379 . S
N204 N201 1.398 . S
N204 C203 1.299 . S
N205 C202 1.367 . S
N205 C203 1.379 . S
C206 N208 1.298 . S
C206 N210 1.367 . S
C206 C214 1.481 . S
C207 N209 1.299 . S
C207 N210 1.379 . S
N208 Zn192 2.036 . S
N208 C206 1.298 . S
N208 N209 1.398 . S
N209 C207 1.299 . S
N209 N208 1.398 . S
N210 C206 1.367 . S
N210 C207 1.379 . S
H211 C214 0.980 . S
H212 C214 0.981 . S
H213 C214 0.981 . S
C214 C206 1.481 . S
C214 H211 0.980 . S
C214 H212 0.981 . S
C214 H213 0.981 . S
C215 C202 1.481 . S
C215 H216 0.980 . S
C215 H217 0.981 . S
C215 H218 0.981 . S
H216 C215 0.980 . S
H217 C215 0.981 . S
H218 C215 0.981 . S
O219 Zn195 2.066 . S
O219 C198 1.256 . S
O220 Zn192 2.053 . S
O220 C198 1.244 . S
C221 O199 1.259 . S
C221 O200 1.254 . S
O222 Zn192 2.066 . S
O222 C194 1.256 . S
O223 C194 1.244 . S
O223 Zn195 2.053 . S
Zn224 O225 2.055 . S
Zn224 O232 2.046 . S
Zn224 N240 2.036 . S
Zn224 O252 2.053 . S
Zn224 O254 2.066 . S
O225 Zn224 2.055 . S
O225 C228 1.259 . S
C226 O254 1.256 . S
C226 O255 1.244 . S
Zn227 O229 2.046 . S
Zn227 O231 2.055 . S
Zn227 N233 2.036 . S
Zn227 O251 2.066 . S
Zn227 O255 2.053 . S
C228 O225 1.259 . S
C228 O229 1.254 . S
O229 Zn227 2.046 . S
O229 C228 1.254 . S
C230 O251 1.256 . S
C230 O252 1.244 . S
O231 Zn227 2.055 . S
O231 C253 1.259 . S
O232 Zn224 2.046 . S
O232 C253 1.254 . S
N233 Zn227 2.036 . S
N233 C234 1.298 . S
N233 N236 1.398 . S
C234 N233 1.298 . S
C234 N237 1.367 . S
C234 C247 1.481 . S
C235 N236 1.299 . S
C235 N237 1.379 . S
N236 N233 1.398 . S
N236 C235 1.299 . S
N237 C234 1.367 . S
N237 C235 1.379 . S
C238 N240 1.298 . S
C238 N242 1.367 . S
C238 C246 1.481 . S
C239 N241 1.299 . S
C239 N242 1.379 . S
N240 Zn224 2.036 . S
N240 C238 1.298 . S
N240 N241 1.398 . S
N241 C239 1.299 . S
N241 N240 1.398 . S
N242 C238 1.367 . S
N242 C239 1.379 . S
H243 C246 0.980 . S
H244 C246 0.981 . S
H245 C246 0.981 . S
C246 C238 1.481 . S
C246 H243 0.980 . S
C246 H244 0.981 . S
C246 H245 0.981 . S
C247 C234 1.481 . S
C247 H248 0.980 . S
C247 H249 0.981 . S
C247 H250 0.981 . S
H248 C247 0.980 . S
H249 C247 0.981 . S
H250 C247 0.981 . S
O251 Zn227 2.066 . S
O251 C230 1.256 . S
O252 Zn224 2.053 . S
O252 C230 1.244 . S
C253 O231 1.259 . S
C253 O232 1.254 . S
O254 Zn224 2.066 . S
O254 C226 1.256 . S
O255 C226 1.244 . S
O255 Zn227 2.053 . S
Zn256 O257 2.055 . S
Zn256 O264 2.046 . S
Zn256 N272 2.036 . S
Zn256 O284 2.053 . S
Zn256 O286 2.066 . S
O257 Zn256 2.055 . S
O257 C260 1.259 . S
C258 O286 1.256 . S
C258 O287 1.244 . S
Zn259 O261 2.046 . S
Zn259 O263 2.055 . S
Zn259 N265 2.036 . S
Zn259 O283 2.066 . S
Zn259 O287 2.053 . S
C260 O257 1.259 . S
C260 O261 1.254 . S
O261 Zn259 2.046 . S
O261 C260 1.254 . S
C262 O283 1.256 . S
C262 O284 1.244 . S
O263 Zn259 2.055 . S
O263 C285 1.259 . S
O264 Zn256 2.046 . S
O264 C285 1.254 . S
N265 Zn259 2.036 . S
N265 C266 1.298 . S
N265 N268 1.398 . S
C266 N265 1.298 . S
C266 N269 1.367 . S
C266 C279 1.481 . S
C267 N268 1.299 . S
C267 N269 1.379 . S
N268 N265 1.398 . S
N268 C267 1.299 . S
N269 C266 1.367 . S
N269 C267 1.379 . S
C270 N272 1.298 . S
C270 N274 1.367 . S
C270 C278 1.481 . S
C271 N273 1.299 . S
C271 N274 1.379 . S
N272 Zn256 2.036 . S
N272 C270 1.298 . S
N272 N273 1.398 . S
N273 C271 1.299 . S
N273 N272 1.398 . S
N274 C270 1.367 . S
N274 C271 1.379 . S
H275 C278 0.980 . S
H276 C278 0.981 . S
H277 C278 0.981 . S
C278 C270 1.481 . S
C278 H275 0.980 . S
C278 H276 0.981 . S
C278 H277 0.981 . S
C279 C266 1.481 . S
C279 H280 0.980 . S
C279 H281 0.981 . S
C279 H282 0.981 . S
H280 C279 0.980 . S
H281 C279 0.981 . S
H282 C279 0.981 . S
O283 Zn259 2.066 . S
O283 C262 1.256 . S
O284 Zn256 2.053 . S
O284 C262 1.244 . S
C285 O263 1.259 . S
C285 O264 1.254 . S
O286 Zn256 2.066 . S
O286 C258 1.256 . S
O287 C258 1.244 . S
O287 Zn259 2.053 . S
Zn288 O289 2.055 . S
Zn288 O296 2.046 . S
Zn288 N304 2.036 . S
Zn288 O316 2.053 . S
Zn288 O318 2.066 . S
O289 Zn288 2.055 . S
O289 C292 1.259 . S
C290 O318 1.256 . S
C290 O319 1.244 . S
Zn291 O293 2.046 . S
Zn291 O295 2.055 . S
Zn291 N297 2.036 . S
Zn291 O315 2.066 . S
Zn291 O319 2.053 . S
C292 O289 1.259 . S
C292 O293 1.254 . S
O293 Zn291 2.046 . S
O293 C292 1.254 . S
C294 O315 1.256 . S
C294 O316 1.244 . S
O295 Zn291 2.055 . S
O295 C317 1.259 . S
O296 Zn288 2.046 . S
O296 C317 1.254 . S
N297 Zn291 2.036 . S
N297 C298 1.298 . S
N297 N300 1.398 . S
C298 N297 1.298 . S
C298 N301 1.367 1_545 S
C298 C311 1.481 . S
C299 N300 1.299 1_565 S
C299 N301 1.379 . S
N300 N297 1.398 . S
N300 C299 1.299 1_545 S
N301 C298 1.367 1_565 S
N301 C299 1.379 . S
C302 N304 1.298 . S
C302 N306 1.367 . S
C302 C310 1.481 . S
C303 N305 1.299 . S
C303 N306 1.379 . S
N304 Zn288 2.036 . S
N304 C302 1.298 . S
N304 N305 1.398 . S
N305 C303 1.299 . S
N305 N304 1.398 . S
N306 C302 1.367 . S
N306 C303 1.379 . S
H307 C310 0.980 . S
H308 C310 0.981 . S
H309 C310 0.981 . S
C310 C302 1.481 . S
C310 H307 0.980 . S
C310 H308 0.981 . S
C310 H309 0.981 . S
C311 C298 1.481 . S
C311 H312 0.980 . S
C311 H313 0.967 1_545 S
C311 H314 0.978 1_545 S
H312 C311 0.980 . S
H313 C311 0.967 1_565 S
H314 C311 0.978 1_565 S
O315 Zn291 2.066 . S
O315 C294 1.256 . S
O316 Zn288 2.053 . S
O316 C294 1.244 . S
C317 O295 1.259 . S
C317 O296 1.254 . S
O318 Zn288 2.066 . S
O318 C290 1.256 . S
O319 C290 1.244 . S
O319 Zn291 2.053 . S
Zn320 O321 2.055 . S
Zn320 O328 2.046 . S
Zn320 N336 2.036 . S
Zn320 O348 2.053 . S
Zn320 O350 2.066 . S
O321 Zn320 2.055 . S
O321 C324 1.259 1_554 S
C322 O350 1.256 1_556 S
C322 O351 1.244 . S
Zn323 O325 2.046 1_554 S
Zn323 O327 2.055 . S
Zn323 N329 2.036 1_554 S
Zn323 O347 2.066 . S
Zn323 O351 2.053 1_554 S
C324 O321 1.259 1_556 S
C324 O325 1.254 . S
O325 Zn323 2.046 1_556 S
O325 C324 1.254 . S
C326 O347 1.256 . S
C326 O348 1.244 . S
O327 Zn323 2.055 . S
O327 C349 1.259 . S
O328 Zn320 2.046 . S
O328 C349 1.254 . S
N329 Zn323 2.036 1_556 S
N329 C330 1.298 . S
N329 N332 1.398 . S
C330 N329 1.298 . S
C330 N333 1.367 . S
C330 C343 1.481 1_556 S
C331 N332 1.299 . S
C331 N333 1.379 . S
N332 N329 1.398 . S
N332 C331 1.299 . S
N333 C330 1.367 . S
N333 C331 1.379 . S
C334 N336 1.298 . S
C334 N338 1.367 . S
C334 C342 1.481 . S
C335 N337 1.299 . S
C335 N338 1.379 . S
N336 Zn320 2.036 . S
N336 C334 1.298 . S
N336 N337 1.398 . S
N337 C335 1.299 . S
N337 N336 1.398 . S
N338 C334 1.367 . S
N338 C335 1.379 . S
H339 C342 0.980 . S
H340 C342 0.981 . S
H341 C342 0.981 . S
C342 C334 1.481 . S
C342 H339 0.980 . S
C342 H340 0.981 . S
C342 H341 0.981 . S
C343 C330 1.481 1_554 S
C343 H344 0.980 . S
C343 H345 0.981 . S
C343 H346 0.981 . S
H344 C343 0.980 . S
H345 C343 0.981 . S
H346 C343 0.981 . S
O347 Zn323 2.066 . S
O347 C326 1.256 . S
O348 Zn320 2.053 . S
O348 C326 1.244 . S
C349 O327 1.259 . S
C349 O328 1.254 . S
O350 Zn320 2.066 . S
O350 C322 1.256 1_554 S
O351 C322 1.244 . S
O351 Zn323 2.053 1_556 S
Zn352 O353 2.055 . S
Zn352 O360 2.046 . S
Zn352 N368 2.036 . S
Zn352 O380 2.053 . S
Zn352 O382 2.066 . S
O353 Zn352 2.055 . S
O353 C356 1.259 . S
C354 O382 1.256 . S
C354 O383 1.244 . S
Zn355 O357 2.046 . S
Zn355 O359 2.055 . S
Zn355 N361 2.036 . S
Zn355 O379 2.066 . S
Zn355 O383 2.053 . S
C356 O353 1.259 . S
C356 O357 1.254 . S
O357 Zn355 2.046 . S
O357 C356 1.254 . S
C358 O379 1.256 . S
C358 O380 1.244 . S
O359 Zn355 2.055 . S
O359 C381 1.259 . S
O360 Zn352 2.046 . S
O360 C381 1.254 . S
N361 Zn355 2.036 . S
N361 C362 1.298 . S
N361 N364 1.398 . S
C362 N361 1.298 . S
C362 N365 1.367 1_565 S
C362 C375 1.481 . S
C363 N364 1.299 1_545 S
C363 N365 1.379 . S
N364 N361 1.398 . S
N364 C363 1.299 1_565 S
N365 C362 1.367 1_545 S
N365 C363 1.379 . S
C366 N368 1.298 . S
C366 N370 1.367 . S
C366 C374 1.481 . S
C367 N369 1.299 . S
C367 N370 1.379 . S
N368 Zn352 2.036 . S
N368 C366 1.298 . S
N368 N369 1.398 . S
N369 C367 1.299 . S
N369 N368 1.398 . S
N370 C366 1.367 . S
N370 C367 1.379 . S
H371 C374 0.980 . S
H372 C374 0.981 . S
H373 C374 0.981 . S
C374 C366 1.481 . S
C374 H371 0.980 . S
C374 H372 0.981 . S
C374 H373 0.981 . S
C375 C362 1.481 . S
C375 H376 0.980 . S
C375 H377 0.967 1_565 S
C375 H378 0.978 1_565 S
H376 C375 0.980 . S
H377 C375 0.967 1_545 S
H378 C375 0.978 1_545 S
O379 Zn355 2.066 . S
O379 C358 1.256 . S
O380 Zn352 2.053 . S
O380 C358 1.244 . S
C381 O359 1.259 . S
C381 O360 1.254 . S
O382 Zn352 2.066 . S
O382 C354 1.256 . S
O383 C354 1.244 . S
O383 Zn355 2.053 . S
Zn384 O385 2.055 . S
Zn384 O392 2.046 . S
Zn384 N400 2.036 . S
Zn384 O412 2.053 . S
Zn384 O414 2.066 . S
O385 Zn384 2.055 . S
O385 C388 1.259 . S
C386 O414 1.256 . S
C386 O415 1.244 . S
Zn387 O389 2.046 . S
Zn387 O391 2.055 . S
Zn387 N393 2.036 . S
Zn387 O411 2.066 . S
Zn387 O415 2.053 . S
C388 O385 1.259 . S
C388 O389 1.254 . S
O389 Zn387 2.046 . S
O389 C388 1.254 . S
C390 O411 1.256 . S
C390 O412 1.244 . S
O391 Zn387 2.055 . S
O391 C413 1.259 . S
O392 Zn384 2.046 . S
O392 C413 1.254 . S
N393 Zn387 2.036 . S
N393 C394 1.298 . S
N393 N396 1.398 . S
C394 N393 1.298 . S
C394 N397 1.367 . S
C394 C407 1.481 . S
C395 N396 1.299 . S
C395 N397 1.379 . S
N396 N393 1.398 . S
N396 C395 1.299 . S
N397 C394 1.367 . S
N397 C395 1.379 . S
C398 N400 1.298 . S
C398 N402 1.367 . S
C398 C406 1.481 . S
C399 N401 1.299 . S
C399 N402 1.379 . S
N400 Zn384 2.036 . S
N400 C398 1.298 . S
N400 N401 1.398 . S
N401 C399 1.299 . S
N401 N400 1.398 . S
N402 C398 1.367 . S
N402 C399 1.379 . S
H403 C406 0.980 . S
H404 C406 0.981 . S
H405 C406 0.981 . S
C406 C398 1.481 . S
C406 H403 0.980 . S
C406 H404 0.981 . S
C406 H405 0.981 . S
C407 C394 1.481 . S
C407 H408 0.980 . S
C407 H409 0.981 . S
C407 H410 0.981 . S
H408 C407 0.980 . S
H409 C407 0.981 . S
H410 C407 0.981 . S
O411 Zn387 2.066 . S
O411 C390 1.256 . S
O412 Zn384 2.053 . S
O412 C390 1.244 . S
C413 O391 1.259 . S
C413 O392 1.254 . S
O414 Zn384 2.066 . S
O414 C386 1.256 . S
O415 C386 1.244 . S
O415 Zn387 2.053 . S
Zn416 O417 2.055 . S
Zn416 O424 2.046 . S
Zn416 N432 2.036 . S
Zn416 O444 2.053 . S
Zn416 O446 2.066 . S
O417 Zn416 2.055 . S
O417 C420 1.259 . S
C418 O446 1.256 . S
C418 O447 1.244 . S
Zn419 O421 2.046 . S
Zn419 O423 2.055 . S
Zn419 N425 2.036 . S
Zn419 O443 2.066 . S
Zn419 O447 2.053 . S
C420 O417 1.259 . S
C420 O421 1.254 . S
O421 Zn419 2.046 . S
O421 C420 1.254 . S
C422 O443 1.256 . S
C422 O444 1.244 . S
O423 Zn419 2.055 . S
O423 C445 1.259 . S
O424 Zn416 2.046 . S
O424 C445 1.254 . S
N425 Zn419 2.036 . S
N425 C426 1.298 . S
N425 N428 1.398 . S
C426 N425 1.298 . S
C426 N429 1.367 1_565 S
C426 C439 1.481 . S
C427 N428 1.299 1_545 S
C427 N429 1.379 . S
N428 N425 1.398 . S
N428 C427 1.299 1_565 S
N429 C426 1.367 1_545 S
N429 C427 1.379 . S
C430 N432 1.298 . S
C430 N434 1.367 . S
C430 C438 1.481 . S
C431 N433 1.299 . S
C431 N434 1.379 . S
N432 Zn416 2.036 . S
N432 C430 1.298 . S
N432 N433 1.398 . S
N433 C431 1.299 . S
N433 N432 1.398 . S
N434 C430 1.367 . S
N434 C431 1.379 . S
H435 C438 0.980 . S
H436 C438 0.981 . S
H437 C438 0.981 . S
C438 C430 1.481 . S
C438 H435 0.980 . S
C438 H436 0.981 . S
C438 H437 0.981 . S
C439 C426 1.481 . S
C439 H440 0.980 . S
C439 H441 0.967 1_565 S
C439 H442 0.978 1_565 S
H440 C439 0.980 . S
H441 C439 0.967 1_545 S
H442 C439 0.978 1_545 S
O443 Zn419 2.066 . S
O443 C422 1.256 . S
O444 Zn416 2.053 . S
O444 C422 1.244 . S
C445 O423 1.259 . S
C445 O424 1.254 . S
O446 Zn416 2.066 . S
O446 C418 1.256 . S
O447 C418 1.244 . S
O447 Zn419 2.053 . S
Zn448 O449 2.055 . S
Zn448 O456 2.046 1_556 S
Zn448 N464 2.036 1_556 S
Zn448 O476 2.053 1_556 S
Zn448 O478 2.066 . S
O449 Zn448 2.055 . S
O449 C452 1.259 . S
C450 O478 1.256 . S
C450 O479 1.244 . S
Zn451 O453 2.046 . S
Zn451 O455 2.055 . S
Zn451 N457 2.036 . S
Zn451 O475 2.066 . S
Zn451 O479 2.053 . S
C452 O449 1.259 . S
C452 O453 1.254 . S
O453 Zn451 2.046 . S
O453 C452 1.254 . S
C454 O475 1.256 1_554 S
C454 O476 1.244 . S
O455 Zn451 2.055 . S
O455 C477 1.259 1_556 S
O456 Zn448 2.046 1_554 S
O456 C477 1.254 . S
N457 Zn451 2.036 . S
N457 C458 1.298 . S
N457 N460 1.398 . S
C458 N457 1.298 . S
C458 N461 1.367 . S
C458 C471 1.481 . S
C459 N460 1.299 . S
C459 N461 1.379 . S
N460 N457 1.398 . S
N460 C459 1.299 . S
N461 C458 1.367 . S
N461 C459 1.379 . S
C462 N464 1.298 . S
C462 N466 1.367 . S
C462 C470 1.481 1_554 S
C463 N465 1.299 . S
C463 N466 1.379 . S
N464 Zn448 2.036 1_554 S
N464 C462 1.298 . S
N464 N465 1.398 . S
N465 C463 1.299 . S
N465 N464 1.398 . S
N466 C462 1.367 . S
N466 C463 1.379 . S
H467 C470 0.980 . S
H468 C470 0.981 . S
H469 C470 0.981 . S
C470 C462 1.481 1_556 S
C470 H467 0.980 . S
C470 H468 0.981 . S
C470 H469 0.981 . S
C471 C458 1.481 . S
C471 H472 0.980 . S
C471 H473 0.981 . S
C471 H474 0.981 . S
H472 C471 0.980 . S
H473 C471 0.981 . S
H474 C471 0.981 . S
O475 Zn451 2.066 . S
O475 C454 1.256 1_556 S
O476 Zn448 2.053 1_554 S
O476 C454 1.244 . S
C477 O455 1.259 1_554 S
C477 O456 1.254 . S
O478 Zn448 2.066 . S
O478 C450 1.256 . S
O479 C450 1.244 . S
O479 Zn451 2.053 . S
Zn480 O481 2.055 . S
Zn480 O488 2.046 . S
Zn480 N496 2.036 . S
Zn480 O508 2.053 . S
Zn480 O510 2.066 . S
O481 Zn480 2.055 . S
O481 C484 1.259 . S
C482 O510 1.256 . S
C482 O511 1.244 . S
Zn483 O485 2.046 . S
Zn483 O487 2.055 . S
Zn483 N489 2.036 . S
Zn483 O507 2.066 . S
Zn483 O511 2.053 . S
C484 O481 1.259 . S
C484 O485 1.254 . S
O485 Zn483 2.046 . S
O485 C484 1.254 . S
C486 O507 1.256 . S
C486 O508 1.244 . S
O487 Zn483 2.055 . S
O487 C509 1.259 . S
O488 Zn480 2.046 . S
O488 C509 1.254 . S
N489 Zn483 2.036 . S
N489 C490 1.298 . S
N489 N492 1.398 . S
C490 N489 1.298 . S
C490 N493 1.367 1_545 S
C490 C503 1.481 . S
C491 N492 1.299 1_565 S
C491 N493 1.379 . S
N492 N489 1.398 . S
N492 C491 1.299 1_545 S
N493 C490 1.367 1_565 S
N493 C491 1.379 . S
C494 N496 1.298 . S
C494 N498 1.367 . S
C494 C502 1.481 . S
C495 N497 1.299 . S
C495 N498 1.379 . S
N496 Zn480 2.036 . S
N496 C494 1.298 . S
N496 N497 1.398 . S
N497 C495 1.299 . S
N497 N496 1.398 . S
N498 C494 1.367 . S
N498 C495 1.379 . S
H499 C502 0.980 . S
H500 C502 0.981 . S
H501 C502 0.981 . S
C502 C494 1.481 . S
C502 H499 0.980 . S
C502 H500 0.981 . S
C502 H501 0.981 . S
C503 C490 1.481 . S
C503 H504 0.980 . S
C503 H505 0.967 1_545 S
C503 H506 0.978 1_545 S
H504 C503 0.980 . S
H505 C503 0.967 1_565 S
H506 C503 0.978 1_565 S
O507 Zn483 2.066 . S
O507 C486 1.256 . S
O508 Zn480 2.053 . S
O508 C486 1.244 . S
C509 O487 1.259 . S
C509 O488 1.254 . S
O510 Zn480 2.066 . S
O510 C482 1.256 . S
O511 C482 1.244 . S
O511 Zn483 2.053 . S
H512 C518 0.930 . S
H513 C521 0.930 . S
H514 C522 0.930 . S
H515 C523 0.930 . S
H516 C526 0.930 . S
H517 C527 0.930 . S
C518 H512 0.930 . S
C518 C519 1.355 . S
C518 C520 1.415 . S
C519 C518 1.355 . S
C519 C521 1.419 . S
C520 C518 1.415 . S
C520 C525 1.425 . S
C520 C527 1.409 . S
C521 H513 0.930 . S
C521 C519 1.419 . S
C521 C522 1.362 . S
C522 H514 0.930 . S
C522 C521 1.362 . S
C522 C525 1.409 . S
C523 H515 0.930 . S
C523 C524 1.355 . S
C523 C525 1.415 . S
C524 C523 1.355 . S
C524 C526 1.419 . S
C525 C520 1.425 . S
C525 C522 1.409 . S
C525 C523 1.415 . S
C526 H516 0.930 . S
C526 C524 1.419 . S
C526 C527 1.362 . S
C527 H517 0.930 . S
C527 C520 1.409 . S
C527 C526 1.362 . S
H528 C534 0.930 . S
H529 C537 0.930 . S
H530 C538 0.930 . S
H531 C539 0.930 . S
H532 C542 0.930 . S
H533 C543 0.930 . S
C534 H528 0.930 . S
C534 C535 1.355 . S
C534 C536 1.415 . S
C535 C534 1.355 . S
C535 C537 1.419 . S
C536 C534 1.415 . S
C536 C541 1.425 . S
C536 C543 1.409 . S
C537 H529 0.930 . S
C537 C535 1.419 . S
C537 C538 1.362 . S
C538 H530 0.930 . S
C538 C537 1.362 . S
C538 C541 1.409 . S
C539 H531 0.930 . S
C539 C540 1.355 . S
C539 C541 1.415 . S
C540 C539 1.355 . S
C540 C542 1.419 . S
C541 C536 1.425 . S
C541 C538 1.409 . S
C541 C539 1.415 . S
C542 H532 0.930 . S
C542 C540 1.419 . S
C542 C543 1.362 . S
C543 H533 0.930 . S
C543 C536 1.409 . S
C543 C542 1.362 . S
H544 C550 0.930 . S
H545 C553 0.930 . S
H546 C554 0.930 . S
H547 C555 0.930 . S
H548 C558 0.930 . S
H549 C559 0.930 . S
C550 H544 0.930 . S
C550 C551 1.355 . S
C550 C552 1.415 . S
C551 C550 1.355 . S
C551 C553 1.419 . S
C552 C550 1.415 . S
C552 C557 1.425 1_455 S
C552 C559 1.409 1_455 S
C553 H545 0.930 . S
C553 C551 1.419 . S
C553 C554 1.362 . S
C554 H546 0.930 . S
C554 C553 1.362 . S
C554 C557 1.409 1_455 S
C555 H547 0.930 . S
C555 C556 1.355 . S
C555 C557 1.415 . S
C556 C555 1.355 . S
C556 C558 1.419 . S
C557 C552 1.425 1_655 S
C557 C554 1.409 1_655 S
C557 C555 1.415 . S
C558 H548 0.930 . S
C558 C556 1.419 . S
C558 C559 1.362 . S
C559 H549 0.930 . S
C559 C552 1.409 1_655 S
C559 C558 1.362 . S
H560 C566 0.930 . S
H561 C569 0.930 . S
H562 C570 0.930 . S
H563 C571 0.930 . S
H564 C574 0.930 . S
H565 C575 0.930 . S
C566 H560 0.930 . S
C566 C567 1.355 . S
C566 C568 1.415 . S
C567 C566 1.355 . S
C567 C569 1.419 1_655 S
C568 C566 1.415 . S
C568 C573 1.425 1_655 S
C568 C575 1.409 . S
C569 H561 0.930 . S
C569 C567 1.419 1_455 S
C569 C570 1.362 . S
C570 H562 0.930 . S
C570 C569 1.362 . S
C570 C573 1.409 . S
C571 H563 0.930 . S
C571 C572 1.355 . S
C571 C573 1.415 . S
C572 C571 1.355 . S
C572 C574 1.419 1_455 S
C573 C568 1.425 1_455 S
C573 C570 1.409 . S
C573 C571 1.415 . S
C574 H564 0.930 . S
C574 C572 1.419 1_655 S
C574 C575 1.362 . S
C575 H565 0.930 . S
C575 C568 1.409 . S
C575 C574 1.362 . S
H576 C582 0.930 . S
H577 C585 0.930 . S
H578 C586 0.930 . S
H579 C587 0.930 . S
H580 C590 0.930 . S
H581 C591 0.930 . S
C582 H576 0.930 . S
C582 C583 1.355 . S
C582 C584 1.415 . S
C583 C582 1.355 . S
C583 C585 1.419 . S
C584 C582 1.415 . S
C584 C589 1.425 . S
C584 C591 1.409 . S
C585 H577 0.930 . S
C585 C583 1.419 . S
C585 C586 1.362 . S
C586 H578 0.930 . S
C586 C585 1.362 . S
C586 C589 1.409 . S
C587 H579 0.930 . S
C587 C588 1.355 . S
C587 C589 1.415 . S
C588 C587 1.355 . S
C588 C590 1.419 . S
C589 C584 1.425 . S
C589 C586 1.409 . S
C589 C587 1.415 . S
C590 H580 0.930 . S
C590 C588 1.419 . S
C590 C591 1.362 . S
C591 H581 0.930 . S
C591 C584 1.409 . S
C591 C590 1.362 . S
H592 C598 0.930 . S
H593 C601 0.930 . S
H594 C602 0.930 . S
H595 C603 0.930 . S
H596 C606 0.930 . S
H597 C607 0.930 . S
C598 H592 0.930 . S
C598 C599 1.355 . S
C598 C600 1.415 . S
C599 C598 1.355 . S
C599 C601 1.419 . S
C600 C598 1.415 . S
C600 C605 1.425 . S
C600 C607 1.409 . S
C601 H593 0.930 . S
C601 C599 1.419 . S
C601 C602 1.362 . S
C602 H594 0.930 . S
C602 C601 1.362 . S
C602 C605 1.409 . S
C603 H595 0.930 . S
C603 C604 1.355 . S
C603 C605 1.415 . S
C604 C603 1.355 . S
C604 C606 1.419 . S
C605 C600 1.425 . S
C605 C602 1.409 . S
C605 C603 1.415 . S
C606 H596 0.930 . S
C606 C604 1.419 . S
C606 C607 1.362 . S
C607 H597 0.930 . S
C607 C600 1.409 . S
C607 C606 1.362 . S
H608 C614 0.930 . S
H609 C617 0.930 . S
H610 C618 0.930 . S
H611 C619 0.930 . S
H612 C622 0.930 . S
H613 C623 0.930 . S
C614 H608 0.930 . S
C614 C615 1.355 . S
C614 C616 1.415 . S
C615 C614 1.355 . S
C615 C617 1.419 . S
C616 C614 1.415 . S
C616 C621 1.425 1_655 S
C616 C623 1.409 1_655 S
C617 H609 0.930 . S
C617 C615 1.419 . S
C617 C618 1.362 . S
C618 H610 0.930 . S
C618 C617 1.362 . S
C618 C621 1.409 1_655 S
C619 H611 0.930 . S
C619 C620 1.355 . S
C619 C621 1.415 . S
C620 C619 1.355 . S
C620 C622 1.419 . S
C621 C616 1.425 1_455 S
C621 C618 1.409 1_455 S
C621 C619 1.415 . S
C622 H612 0.930 . S
C622 C620 1.419 . S
C622 C623 1.362 . S
C623 H613 0.930 . S
C623 C616 1.409 1_455 S
C623 C622 1.362 . S
H624 C630 0.930 . S
H625 C633 0.930 . S
H626 C634 0.930 . S
H627 C635 0.930 . S
H628 C638 0.930 . S
H629 C639 0.930 . S
C630 H624 0.930 . S
C630 C631 1.355 1_655 S
C630 C632 1.415 . S
C631 C630 1.355 1_455 S
C631 C633 1.419 . S
C632 C630 1.415 . S
C632 C637 1.425 1_655 S
C632 C639 1.409 . S
C633 H625 0.930 . S
C633 C631 1.419 . S
C633 C634 1.362 . S
C634 H626 0.930 . S
C634 C633 1.362 . S
C634 C637 1.409 . S
C635 H627 0.930 . S
C635 C636 1.355 1_455 S
C635 C637 1.415 . S
C636 C635 1.355 1_655 S
C636 C638 1.419 . S
C637 C632 1.425 1_455 S
C637 C634 1.409 . S
C637 C635 1.415 . S
C638 H628 0.930 . S
C638 C636 1.419 . S
C638 C639 1.362 . S
C639 H629 0.930 . S
C639 C632 1.409 . S
C639 C638 1.362 . S
H640 C646 0.930 . S
H641 C649 0.930 . S
H642 C650 0.930 . S
H643 C651 0.930 . S
H644 C654 0.930 . S
H645 C655 0.930 . S
C646 H640 0.930 . S
C646 C647 1.355 . S
C646 C648 1.415 . S
C647 C646 1.355 . S
C647 C649 1.419 . S
C648 C646 1.415 . S
C648 C653 1.425 . S
C648 C655 1.409 . S
C649 H641 0.930 . S
C649 C647 1.419 . S
C649 C650 1.362 . S
C650 H642 0.930 . S
C650 C649 1.362 . S
C650 C653 1.409 . S
C651 H643 0.930 . S
C651 C652 1.355 . S
C651 C653 1.415 . S
C652 C651 1.355 . S
C652 C654 1.419 . S
C653 C648 1.425 . S
C653 C650 1.409 . S
C653 C651 1.415 . S
C654 H644 0.930 . S
C654 C652 1.419 . S
C654 C655 1.362 . S
C655 H645 0.930 . S
C655 C648 1.409 . S
C655 C654 1.362 . S
H656 C662 0.930 . S
H657 C665 0.930 . S
H658 C666 0.930 . S
H659 C667 0.930 . S
H660 C670 0.930 . S
H661 C671 0.930 . S
C662 H656 0.930 . S
C662 C663 1.355 . S
C662 C664 1.415 . S
C663 C662 1.355 . S
C663 C665 1.419 . S
C664 C662 1.415 . S
C664 C669 1.425 . S
C664 C671 1.409 . S
C665 H657 0.930 . S
C665 C663 1.419 . S
C665 C666 1.362 . S
C666 H658 0.930 . S
C666 C665 1.362 . S
C666 C669 1.409 . S
C667 H659 0.930 . S
C667 C668 1.355 . S
C667 C669 1.415 . S
C668 C667 1.355 . S
C668 C670 1.419 . S
C669 C664 1.425 . S
C669 C666 1.409 . S
C669 C667 1.415 . S
C670 H660 0.930 . S
C670 C668 1.419 . S
C670 C671 1.362 . S
C671 H661 0.930 . S
C671 C664 1.409 . S
C671 C670 1.362 . S
H672 C678 0.930 . S
H673 C681 0.930 . S
H674 C682 0.930 . S
H675 C683 0.930 . S
H676 C686 0.930 . S
H677 C687 0.930 . S
C678 H672 0.930 . S
C678 C679 1.355 . S
C678 C680 1.415 . S
C679 C678 1.355 . S
C679 C681 1.419 . S
C680 C678 1.415 . S
C680 C685 1.425 . S
C680 C687 1.409 . S
C681 H673 0.930 . S
C681 C679 1.419 . S
C681 C682 1.362 . S
C682 H674 0.930 . S
C682 C681 1.362 . S
C682 C685 1.409 . S
C683 H675 0.930 . S
C683 C684 1.355 . S
C683 C685 1.415 . S
C684 C683 1.355 . S
C684 C686 1.419 . S
C685 C680 1.425 . S
C685 C682 1.409 . S
C685 C683 1.415 . S
C686 H676 0.930 . S
C686 C684 1.419 . S
C686 C687 1.362 . S
C687 H677 0.930 . S
C687 C680 1.409 . S
C687 C686 1.362 . S
H688 C694 0.930 . S
H689 C697 0.930 . S
H690 C698 0.930 . S
H691 C699 0.930 . S
H692 C702 0.930 . S
H693 C703 0.930 . S
C694 H688 0.930 . S
C694 C695 1.355 . S
C694 C696 1.415 . S
C695 C694 1.355 . S
C695 C697 1.419 . S
C696 C694 1.415 . S
C696 C701 1.425 . S
C696 C703 1.409 . S
C697 H689 0.930 . S
C697 C695 1.419 . S
C697 C698 1.362 . S
C698 H690 0.930 . S
C698 C697 1.362 . S
C698 C701 1.409 . S
C699 H691 0.930 . S
C699 C700 1.355 . S
C699 C701 1.415 . S
C700 C699 1.355 . S
C700 C702 1.419 . S
C701 C696 1.425 . S
C701 C698 1.409 . S
C701 C699 1.415 . S
C702 H692 0.930 . S
C702 C700 1.419 . S
C702 C703 1.362 . S
C703 H693 0.930 . S
C703 C696 1.409 . S
C703 C702 1.362 . S
H704 C710 0.930 . S
H705 C713 0.930 . S
H706 C714 0.930 1_556 S
H707 C715 0.930 . S
H708 C718 0.930 . S
H709 C719 0.930 . S
C710 H704 0.930 . S
C710 C711 1.355 . S
C710 C712 1.415 . S
C711 C710 1.355 . S
C711 C713 1.419 1_554 S
C712 C710 1.415 . S
C712 C717 1.425 . S
C712 C719 1.409 . S
C713 H705 0.930 . S
C713 C711 1.419 1_556 S
C713 C714 1.362 1_556 S
C714 H706 0.930 1_554 S
C714 C713 1.362 1_554 S
C714 C717 1.409 . S
C715 H707 0.930 . S
C715 C716 1.355 . S
C715 C717 1.415 . S
C716 C715 1.355 . S
C716 C718 1.419 . S
C717 C712 1.425 . S
C717 C714 1.409 . S
C717 C715 1.415 . S
C718 H708 0.930 . S
C718 C716 1.419 . S
C718 C719 1.362 . S
C719 H709 0.930 . S
C719 C712 1.409 . S
C719 C718 1.362 . S
H720 C726 0.930 . S
H721 C729 0.930 . S
H722 C730 0.930 . S
H723 C731 0.930 . S
H724 C734 0.930 . S
H725 C735 0.930 . S
C726 H720 0.930 . S
C726 C727 1.355 . S
C726 C728 1.415 . S
C727 C726 1.355 . S
C727 C729 1.419 . S
C728 C726 1.415 . S
C728 C733 1.425 . S
C728 C735 1.409 . S
C729 H721 0.930 . S
C729 C727 1.419 . S
C729 C730 1.362 . S
C730 H722 0.930 . S
C730 C729 1.362 . S
C730 C733 1.409 . S
C731 H723 0.930 . S
C731 C732 1.355 . S
C731 C733 1.415 . S
C732 C731 1.355 . S
C732 C734 1.419 . S
C733 C728 1.425 . S
C733 C730 1.409 . S
C733 C731 1.415 . S
C734 H724 0.930 . S
C734 C732 1.419 . S
C734 C735 1.362 . S
C735 H725 0.930 . S
C735 C728 1.409 . S
C735 C734 1.362 . S
H736 C742 0.930 . S
H737 C745 0.930 . S
H738 C746 0.930 . S
H739 C747 0.930 . S
H740 C750 0.930 . S
H741 C751 0.930 . S
C742 H736 0.930 . S
C742 C743 1.355 . S
C742 C744 1.415 . S
C743 C742 1.355 . S
C743 C745 1.419 . S
C744 C742 1.415 . S
C744 C749 1.425 . S
C744 C751 1.409 . S
C745 H737 0.930 . S
C745 C743 1.419 . S
C745 C746 1.362 . S
C746 H738 0.930 . S
C746 C745 1.362 . S
C746 C749 1.409 . S
C747 H739 0.930 . S
C747 C748 1.355 . S
C747 C749 1.415 . S
C748 C747 1.355 . S
C748 C750 1.419 . S
C749 C744 1.425 . S
C749 C746 1.409 . S
C749 C747 1.415 . S
C750 H740 0.930 . S
C750 C748 1.419 . S
C750 C751 1.362 . S
C751 H741 0.930 . S
C751 C744 1.409 . S
C751 C750 1.362 . S
H752 C758 0.930 . S
H753 C761 0.930 . S
H754 C762 0.930 . S
H755 C763 0.930 . S
H756 C766 0.930 . S
H757 C767 0.930 . S
C758 H752 0.930 . S
C758 C759 1.355 . S
C758 C760 1.415 . S
C759 C758 1.355 . S
C759 C761 1.419 . S
C760 C758 1.415 . S
C760 C765 1.425 . S
C760 C767 1.409 . S
C761 H753 0.930 . S
C761 C759 1.419 . S
C761 C762 1.362 . S
C762 H754 0.930 . S
C762 C761 1.362 . S
C762 C765 1.409 . S
C763 H755 0.930 . S
C763 C764 1.355 . S
C763 C765 1.415 . S
C764 C763 1.355 . S
C764 C766 1.419 . S
C765 C760 1.425 . S
C765 C762 1.409 . S
C765 C763 1.415 . S
C766 H756 0.930 . S
C766 C764 1.419 . S
C766 C767 1.362 . S
C767 H757 0.930 . S
C767 C760 1.409 . S
C767 C766 1.362 . S
H768 C774 0.930 . S
H769 C777 0.930 . S
H770 C778 0.930 . S
H771 C779 0.930 . S
H772 C782 0.930 . S
H773 C783 0.930 . S
C774 H768 0.930 . S
C774 C775 1.355 . S
C774 C776 1.415 . S
C775 C774 1.355 . S
C775 C777 1.419 . S
C776 C774 1.415 . S
C776 C781 1.425 . S
C776 C783 1.409 . S
C777 H769 0.930 . S
C777 C775 1.419 . S
C777 C778 1.362 . S
C778 H770 0.930 . S
C778 C777 1.362 . S
C778 C781 1.409 . S
C779 H771 0.930 . S
C779 C780 1.355 . S
C779 C781 1.415 . S
C780 C779 1.355 . S
C780 C782 1.419 . S
C781 C776 1.425 . S
C781 C778 1.409 . S
C781 C779 1.415 . S
C782 H772 0.930 . S
C782 C780 1.419 . S
C782 C783 1.362 . S
C783 H773 0.930 . S
C783 C776 1.409 . S
C783 C782 1.362 . S
H784 C790 0.930 . S
H785 C793 0.930 . S
H786 C794 0.930 . S
H787 C795 0.930 . S
H788 C798 0.930 . S
H789 C799 0.930 . S
C790 H784 0.930 . S
C790 C791 1.355 . S
C790 C792 1.415 . S
C791 C790 1.355 . S
C791 C793 1.419 . S
C792 C790 1.415 . S
C792 C797 1.425 . S
C792 C799 1.409 . S
C793 H785 0.930 . S
C793 C791 1.419 . S
C793 C794 1.362 . S
C794 H786 0.930 . S
C794 C793 1.362 . S
C794 C797 1.409 . S
C795 H787 0.930 . S
C795 C796 1.355 . S
C795 C797 1.415 . S
C796 C795 1.355 . S
C796 C798 1.419 . S
C797 C792 1.425 . S
C797 C794 1.409 . S
C797 C795 1.415 . S
C798 H788 0.930 . S
C798 C796 1.419 . S
C798 C799 1.362 . S
C799 H789 0.930 . S
C799 C792 1.409 . S
C799 C798 1.362 . S
H800 C806 0.930 . S
H801 C809 0.930 . S
H802 C810 0.930 . S
H803 C811 0.930 . S
H804 C814 0.930 . S
H805 C815 0.930 . S
C806 H800 0.930 . S
C806 C807 1.355 . S
C806 C808 1.415 . S
C807 C806 1.355 . S
C807 C809 1.419 . S
C808 C806 1.415 . S
C808 C813 1.425 . S
C808 C815 1.409 . S
C809 H801 0.930 . S
C809 C807 1.419 . S
C809 C810 1.362 . S
C810 H802 0.930 . S
C810 C809 1.362 . S
C810 C813 1.409 . S
C811 H803 0.930 . S
C811 C812 1.355 . S
C811 C813 1.415 . S
C812 C811 1.355 . S
C812 C814 1.419 . S
C813 C808 1.425 . S
C813 C810 1.409 . S
C813 C811 1.415 . S
C814 H804 0.930 . S
C814 C812 1.419 . S
C814 C815 1.362 . S
C815 H805 0.930 . S
C815 C808 1.409 . S
C815 C814 1.362 . S
H816 C822 0.930 . S
H817 C825 0.930 . S
H818 C826 0.930 . S
H819 C827 0.930 . S
H820 C830 0.930 . S
H821 C831 0.930 . S
C822 H816 0.930 . S
C822 C823 1.355 . S
C822 C824 1.415 . S
C823 C822 1.355 . S
C823 C825 1.419 . S
C824 C822 1.415 . S
C824 C829 1.425 . S
C824 C831 1.409 . S
C825 H817 0.930 . S
C825 C823 1.419 . S
C825 C826 1.362 . S
C826 H818 0.930 . S
C826 C825 1.362 . S
C826 C829 1.409 . S
C827 H819 0.930 . S
C827 C828 1.355 . S
C827 C829 1.415 . S
C828 C827 1.355 . S
C828 C830 1.419 . S
C829 C824 1.425 . S
C829 C826 1.409 . S
C829 C827 1.415 . S
C830 H820 0.930 . S
C830 C828 1.419 . S
C830 C831 1.362 . S
C831 H821 0.930 . S
C831 C824 1.409 . S
C831 C830 1.362 . S
H832 C838 0.930 . S
H833 C841 0.930 . S
H834 C842 0.930 . S
H835 C843 0.930 . S
H836 C846 0.930 . S
H837 C847 0.930 . S
C838 H832 0.930 . S
C838 C839 1.355 . S
C838 C840 1.415 . S
C839 C838 1.355 . S
C839 C841 1.419 . S
C840 C838 1.415 . S
C840 C845 1.425 . S
C840 C847 1.409 . S
C841 H833 0.930 . S
C841 C839 1.419 . S
C841 C842 1.362 . S
C842 H834 0.930 . S
C842 C841 1.362 . S
C842 C845 1.409 . S
C843 H835 0.930 . S
C843 C844 1.355 . S
C843 C845 1.415 . S
C844 C843 1.355 . S
C844 C846 1.419 . S
C845 C840 1.425 . S
C845 C842 1.409 . S
C845 C843 1.415 . S
C846 H836 0.930 . S
C846 C844 1.419 . S
C846 C847 1.362 . S
C847 H837 0.930 . S
C847 C840 1.409 . S
C847 C846 1.362 . S
H848 C854 0.930 . S
H849 C857 0.930 . S
H850 C858 0.930 . S
H851 C859 0.930 . S
H852 C862 0.930 . S
H853 C863 0.930 . S
C854 H848 0.930 . S
C854 C855 1.355 . S
C854 C856 1.415 . S
C855 C854 1.355 . S
C855 C857 1.419 . S
C856 C854 1.415 . S
C856 C861 1.425 . S
C856 C863 1.409 . S
C857 H849 0.930 . S
C857 C855 1.419 . S
C857 C858 1.362 . S
C858 H850 0.930 . S
C858 C857 1.362 . S
C858 C861 1.409 . S
C859 H851 0.930 . S
C859 C860 1.355 . S
C859 C861 1.415 . S
C860 C859 1.355 . S
C860 C862 1.419 . S
C861 C856 1.425 . S
C861 C858 1.409 . S
C861 C859 1.415 . S
C862 H852 0.930 . S
C862 C860 1.419 . S
C862 C863 1.362 . S
C863 H853 0.930 . S
C863 C856 1.409 . S
C863 C862 1.362 . S
H864 C870 0.930 . S
H865 C873 0.930 . S
H866 C874 0.930 . S
H867 C875 0.930 . S
H868 C878 0.930 . S
H869 C879 0.930 1_556 S
C870 H864 0.930 . S
C870 C871 1.355 . S
C870 C872 1.415 . S
C871 C870 1.355 . S
C871 C873 1.419 . S
C872 C870 1.415 . S
C872 C877 1.425 . S
C872 C879 1.409 . S
C873 H865 0.930 . S
C873 C871 1.419 . S
C873 C874 1.362 . S
C874 H866 0.930 . S
C874 C873 1.362 . S
C874 C877 1.409 . S
C875 H867 0.930 . S
C875 C876 1.355 . S
C875 C877 1.415 . S
C876 C875 1.355 . S
C876 C878 1.419 1_554 S
C877 C872 1.425 . S
C877 C874 1.409 . S
C877 C875 1.415 . S
C878 H868 0.930 . S
C878 C876 1.419 1_556 S
C878 C879 1.362 1_556 S
C879 H869 0.930 1_554 S
C879 C872 1.409 . S
C879 C878 1.362 1_554 S
H880 C886 0.930 . S
H881 C889 0.930 . S
H882 C890 0.930 . S
H883 C891 0.930 . S
H884 C894 0.930 . S
H885 C895 0.930 . S
C886 H880 0.930 . S
C886 C887 1.355 . S
C886 C888 1.415 . S
C887 C886 1.355 . S
C887 C889 1.419 . S
C888 C886 1.415 . S
C888 C893 1.425 . S
C888 C895 1.409 . S
C889 H881 0.930 . S
C889 C887 1.419 . S
C889 C890 1.362 . S
C890 H882 0.930 . S
C890 C889 1.362 . S
C890 C893 1.409 . S
C891 H883 0.930 . S
C891 C892 1.355 . S
C891 C893 1.415 . S
C892 C891 1.355 . S
C892 C894 1.419 . S
C893 C888 1.425 . S
C893 C890 1.409 . S
C893 C891 1.415 . S
C894 H884 0.930 . S
C894 C892 1.419 . S
C894 C895 1.362 . S
C895 H885 0.930 . S
C895 C888 1.409 . S
C895 C894 1.362 . S
H896 C902 0.930 . S
H897 C905 0.930 . S
H898 C906 0.930 . S
H899 C907 0.930 . S
H900 C910 0.930 . S
H901 C911 0.930 . S
C902 H896 0.930 . S
C902 C903 1.355 . S
C902 C904 1.415 . S
C903 C902 1.355 . S
C903 C905 1.419 . S
C904 C902 1.415 . S
C904 C909 1.425 . S
C904 C911 1.409 . S
C905 H897 0.930 . S
C905 C903 1.419 . S
C905 C906 1.362 . S
C906 H898 0.930 . S
C906 C905 1.362 . S
C906 C909 1.409 . S
C907 H899 0.930 . S
C907 C908 1.355 . S
C907 C909 1.415 . S
C908 C907 1.355 . S
C908 C910 1.419 . S
C909 C904 1.425 . S
C909 C906 1.409 . S
C909 C907 1.415 . S
C910 H900 0.930 . S
C910 C908 1.419 . S
C910 C911 1.362 . S
C911 H901 0.930 . S
C911 C904 1.409 . S
C911 C910 1.362 . S
H912 C918 0.930 . S
H913 C921 0.930 . S
H914 C922 0.930 . S
H915 C923 0.930 . S
H916 C926 0.930 . S
H917 C927 0.930 . S
C918 H912 0.930 . S
C918 C919 1.355 . S
C918 C920 1.415 . S
C919 C918 1.355 . S
C919 C921 1.419 . S
C920 C918 1.415 . S
C920 C925 1.425 . S
C920 C927 1.409 . S
C921 H913 0.930 . S
C921 C919 1.419 . S
C921 C922 1.362 . S
C922 H914 0.930 . S
C922 C921 1.362 . S
C922 C925 1.409 . S
C923 H915 0.930 . S
C923 C924 1.355 . S
C923 C925 1.415 . S
C924 C923 1.355 . S
C924 C926 1.419 . S
C925 C920 1.425 . S
C925 C922 1.409 . S
C925 C923 1.415 . S
C926 H916 0.930 . S
C926 C924 1.419 . S
C926 C927 1.362 . S
C927 H917 0.930 . S
C927 C920 1.409 . S
C927 C926 1.362 . S
H928 C934 0.930 . S
H929 C937 0.930 1_655 S
H930 C938 0.930 . S
H931 C939 0.930 . S
H932 C942 0.930 . S
H933 C943 0.930 . S
C934 H928 0.930 . S
C934 C935 1.355 . S
C934 C936 1.415 . S
C935 C934 1.355 . S
C935 C937 1.419 . S
C936 C934 1.415 . S
C936 C941 1.425 . S
C936 C943 1.409 . S
C937 H929 0.930 1_455 S
C937 C935 1.419 . S
C937 C938 1.362 . S
C938 H930 0.930 . S
C938 C937 1.362 . S
C938 C941 1.409 . S
C939 H931 0.930 . S
C939 C940 1.355 . S
C939 C941 1.415 . S
C940 C939 1.355 . S
C940 C942 1.419 . S
C941 C936 1.425 . S
C941 C938 1.409 . S
C941 C939 1.415 . S
C942 H932 0.930 . S
C942 C940 1.419 . S
C942 C943 1.362 . S
C943 H933 0.930 . S
C943 C936 1.409 . S
C943 C942 1.362 . S
H944 C950 0.930 . S
H945 C953 0.930 . S
H946 C954 0.930 . S
H947 C955 0.930 . S
H948 C958 0.930 . S
H949 C959 0.930 . S
C950 H944 0.930 . S
C950 C951 1.355 . S
C950 C952 1.415 . S
C951 C950 1.355 . S
C951 C953 1.419 . S
C952 C950 1.415 . S
C952 C957 1.425 . S
C952 C959 1.409 . S
C953 H945 0.930 . S
C953 C951 1.419 . S
C953 C954 1.362 . S
C954 H946 0.930 . S
C954 C953 1.362 . S
C954 C957 1.409 . S
C955 H947 0.930 . S
C955 C956 1.355 . S
C955 C957 1.415 . S
C956 C955 1.355 . S
C956 C958 1.419 . S
C957 C952 1.425 . S
C957 C954 1.409 . S
C957 C955 1.415 . S
C958 H948 0.930 . S
C958 C956 1.419 . S
C958 C959 1.362 . S
C959 H949 0.930 . S
C959 C952 1.409 . S
C959 C958 1.362 . S
H960 C966 0.930 . S
H961 C969 0.930 . S
H962 C970 0.930 . S
H963 C971 0.930 . S
H964 C974 0.930 . S
H965 C975 0.930 . S
C966 H960 0.930 . S
C966 C967 1.355 . S
C966 C968 1.415 . S
C967 C966 1.355 . S
C967 C969 1.419 . S
C968 C966 1.415 . S
C968 C973 1.425 . S
C968 C975 1.409 . S
C969 H961 0.930 . S
C969 C967 1.419 . S
C969 C970 1.362 . S
C970 H962 0.930 . S
C970 C969 1.362 . S
C970 C973 1.409 . S
C971 H963 0.930 . S
C971 C972 1.355 . S
C971 C973 1.415 . S
C972 C971 1.355 . S
C972 C974 1.419 . S
C973 C968 1.425 . S
C973 C970 1.409 . S
C973 C971 1.415 . S
C974 H964 0.930 . S
C974 C972 1.419 . S
C974 C975 1.362 . S
C975 H965 0.930 . S
C975 C968 1.409 . S
C975 C974 1.362 . S
H976 C982 0.930 . S
H977 C985 0.930 . S
H978 C986 0.930 . S
H979 C987 0.930 . S
H980 C990 0.930 . S
H981 C991 0.930 . S
C982 H976 0.930 . S
C982 C983 1.355 . S
C982 C984 1.415 . S
C983 C982 1.355 . S
C983 C985 1.419 . S
C984 C982 1.415 . S
C984 C989 1.425 . S
C984 C991 1.409 . S
C985 H977 0.930 . S
C985 C983 1.419 . S
C985 C986 1.362 . S
C986 H978 0.930 . S
C986 C985 1.362 . S
C986 C989 1.409 . S
C987 H979 0.930 . S
C987 C988 1.355 . S
C987 C989 1.415 . S
C988 C987 1.355 . S
C988 C990 1.419 . S
C989 C984 1.425 . S
C989 C986 1.409 . S
C989 C987 1.415 . S
C990 H980 0.930 . S
C990 C988 1.419 . S
C990 C991 1.362 . S
C991 H981 0.930 . S
C991 C984 1.409 . S
C991 C990 1.362 . S
H992 C998 0.930 . S
H993 C1001 0.900 1_455 S
H994 C1002 0.930 . S
H995 C1003 0.930 . S
H996 C1006 0.930 . S
H997 C1007 0.930 . S
C998 H992 0.930 . S
C998 C999 1.355 . S
C998 C1000 1.415 . S
C999 C998 1.355 . S
C999 C1001 1.429 . S
C1000 C998 1.415 . S
C1000 C1005 1.425 . S
C1000 C1007 1.409 . S
C1001 H993 0.900 1_655 S
C1001 C999 1.429 . S
C1001 C1002 1.382 . S
C1002 H994 0.930 . S
C1002 C1001 1.382 . S
C1002 C1005 1.409 . S
C1003 H995 0.930 . S
C1003 C1004 1.355 . S
C1003 C1005 1.415 . S
C1004 C1003 1.355 . S
C1004 C1006 1.419 . S
C1005 C1000 1.425 . S
C1005 C1002 1.409 . S
C1005 C1003 1.415 . S
C1006 H996 0.930 . S
C1006 C1004 1.419 . S
C1006 C1007 1.362 . S
C1007 H997 0.930 . S
C1007 C1000 1.409 . S
C1007 C1006 1.362 . S
H1008 C1014 0.930 . S
H1009 C1017 0.930 . S
H1010 C1018 0.930 . S
H1011 C1019 0.930 . S
H1012 C1022 0.930 . S
H1013 C1023 0.930 . S
C1014 H1008 0.930 . S
C1014 C1015 1.355 . S
C1014 C1016 1.415 . S
C1015 C1014 1.355 . S
C1015 C1017 1.419 . S
C1016 C1014 1.415 . S
C1016 C1021 1.425 . S
C1016 C1023 1.409 . S
C1017 H1009 0.930 . S
C1017 C1015 1.419 . S
C1017 C1018 1.362 . S
C1018 H1010 0.930 . S
C1018 C1017 1.362 . S
C1018 C1021 1.409 . S
C1019 H1011 0.930 . S
C1019 C1020 1.355 . S
C1019 C1021 1.415 . S
C1020 C1019 1.355 . S
C1020 C1022 1.419 . S
C1021 C1016 1.425 . S
C1021 C1018 1.409 . S
C1021 C1019 1.415 . S
C1022 H1012 0.930 . S
C1022 C1020 1.419 . S
C1022 C1023 1.362 . S
C1023 H1013 0.930 . S
C1023 C1016 1.409 . S
C1023 C1022 1.362 . S
H1024 C1030 0.930 . S
H1025 C1033 0.930 . S
H1026 C1034 0.930 . S
H1027 C1035 0.930 1_455 S
H1028 C1038 0.930 . S
H1029 C1039 0.930 . S
C1030 H1024 0.930 . S
C1030 C1031 1.355 . S
C1030 C1032 1.415 . S
C1031 C1030 1.355 . S
C1031 C1033 1.419 . S
C1032 C1030 1.415 . S
C1032 C1037 1.425 . S
C1032 C1039 1.409 . S
C1033 H1025 0.930 . S
C1033 C1031 1.419 . S
C1033 C1034 1.362 . S
C1034 H1026 0.930 . S
C1034 C1033 1.362 . S
C1034 C1037 1.409 . S
C1035 H1027 0.930 1_655 S
C1035 C1036 1.355 . S
C1035 C1037 1.415 . S
C1036 C1035 1.355 . S
C1036 C1038 1.419 . S
C1037 C1032 1.425 . S
C1037 C1034 1.409 . S
C1037 C1035 1.415 . S
C1038 H1028 0.930 . S
C1038 C1036 1.419 . S
C1038 C1039 1.362 . S
C1039 H1029 0.930 . S
C1039 C1032 1.409 . S
C1039 C1038 1.362 . S
H1040 C1046 0.930 . S
H1041 C1049 0.930 . S
H1042 C1050 0.930 . S
H1043 C1051 0.930 . S
H1044 C1054 0.930 . S
H1045 C1055 0.930 . S
C1046 H1040 0.930 . S
C1046 C1047 1.355 . S
C1046 C1048 1.415 . S
C1047 C1046 1.355 . S
C1047 C1049 1.419 . S
C1048 C1046 1.415 . S
C1048 C1053 1.425 . S
C1048 C1055 1.409 . S
C1049 H1041 0.930 . S
C1049 C1047 1.419 . S
C1049 C1050 1.362 . S
C1050 H1042 0.930 . S
C1050 C1049 1.362 . S
C1050 C1053 1.409 . S
C1051 H1043 0.930 . S
C1051 C1052 1.355 . S
C1051 C1053 1.415 . S
C1052 C1051 1.355 . S
C1052 C1054 1.419 . S
C1053 C1048 1.425 . S
C1053 C1050 1.409 . S
C1053 C1051 1.415 . S
C1054 H1044 0.930 . S
C1054 C1052 1.419 . S
C1054 C1055 1.362 . S
C1055 H1045 0.930 . S
C1055 C1048 1.409 . S
C1055 C1054 1.362 . S
H1056 C1062 0.930 . S
H1057 C1065 0.930 . S
H1058 C1066 0.930 . S
H1059 C1067 0.930 . S
H1060 C1070 0.930 . S
H1061 C1071 0.930 . S
C1062 H1056 0.930 . S
C1062 C1063 1.355 . S
C1062 C1064 1.415 . S
C1063 C1062 1.355 . S
C1063 C1065 1.419 . S
C1064 C1062 1.415 . S
C1064 C1069 1.425 . S
C1064 C1071 1.409 . S
C1065 H1057 0.930 . S
C1065 C1063 1.419 . S
C1065 C1066 1.362 . S
C1066 H1058 0.930 . S
C1066 C1065 1.362 . S
C1066 C1069 1.409 . S
C1067 H1059 0.930 . S
C1067 C1068 1.355 . S
C1067 C1069 1.415 . S
C1068 C1067 1.355 . S
C1068 C1070 1.419 . S
C1069 C1064 1.425 . S
C1069 C1066 1.409 . S
C1069 C1067 1.415 . S
C1070 H1060 0.930 . S
C1070 C1068 1.419 . S
C1070 C1071 1.362 . S
C1071 H1061 0.930 . S
C1071 C1064 1.409 . S
C1071 C1070 1.362 . S
H1072 C1078 0.930 . S
H1073 C1081 0.930 . S
H1074 C1082 0.930 . S
H1075 C1083 0.930 . S
H1076 C1086 0.930 . S
H1077 C1087 0.930 . S
C1078 H1072 0.930 . S
C1078 C1079 1.355 . S
C1078 C1080 1.415 . S
C1079 C1078 1.355 . S
C1079 C1081 1.419 . S
C1080 C1078 1.415 . S
C1080 C1085 1.425 . S
C1080 C1087 1.409 . S
C1081 H1073 0.930 . S
C1081 C1079 1.419 . S
C1081 C1082 1.362 . S
C1082 H1074 0.930 . S
C1082 C1081 1.362 . S
C1082 C1085 1.409 . S
C1083 H1075 0.930 . S
C1083 C1084 1.355 . S
C1083 C1085 1.415 . S
C1084 C1083 1.355 . S
C1084 C1086 1.419 . S
C1085 C1080 1.425 . S
C1085 C1082 1.409 . S
C1085 C1083 1.415 . S
C1086 H1076 0.930 . S
C1086 C1084 1.419 . S
C1086 C1087 1.362 . S
C1087 H1077 0.930 . S
C1087 C1080 1.409 . S
C1087 C1086 1.362 . S
H1088 C1094 0.930 . S
H1089 C1097 0.930 . S
H1090 C1098 0.930 . S
H1091 C1099 0.930 . S
H1092 C1102 0.929 1_655 S
H1093 C1103 0.930 . S
C1094 H1088 0.930 . S
C1094 C1095 1.355 . S
C1094 C1096 1.415 . S
C1095 C1094 1.355 . S
C1095 C1097 1.419 . S
C1096 C1094 1.415 . S
C1096 C1101 1.425 . S
C1096 C1103 1.409 . S
C1097 H1089 0.930 . S
C1097 C1095 1.419 . S
C1097 C1098 1.362 . S
C1098 H1090 0.930 . S
C1098 C1097 1.362 . S
C1098 C1101 1.409 . S
C1099 H1091 0.930 . S
C1099 C1100 1.355 . S
C1099 C1101 1.415 . S
C1100 C1099 1.355 . S
C1100 C1102 1.419 . S
C1101 C1096 1.425 . S
C1101 C1098 1.409 . S
C1101 C1099 1.415 . S
C1102 H1092 0.929 1_455 S
C1102 C1100 1.419 . S
C1102 C1103 1.363 . S
C1103 H1093 0.930 . S
C1103 C1096 1.409 . S
C1103 C1102 1.363 . S
H1104 C1110 0.930 . S
H1105 C1113 0.930 . S
H1106 C1114 0.930 . S
H1107 C1115 0.930 . S
H1108 C1118 0.930 . S
H1109 C1119 0.930 . S
C1110 H1104 0.930 . S
C1110 C1111 1.355 . S
C1110 C1112 1.415 . S
C1111 C1110 1.355 . S
C1111 C1113 1.419 . S
C1112 C1110 1.415 . S
C1112 C1117 1.425 . S
C1112 C1119 1.409 . S
C1113 H1105 0.930 . S
C1113 C1111 1.419 . S
C1113 C1114 1.362 . S
C1114 H1106 0.930 . S
C1114 C1113 1.362 . S
C1114 C1117 1.409 . S
C1115 H1107 0.930 . S
C1115 C1116 1.355 . S
C1115 C1117 1.415 . S
C1116 C1115 1.355 . S
C1116 C1118 1.419 . S
C1117 C1112 1.425 . S
C1117 C1114 1.409 . S
C1117 C1115 1.415 . S
C1118 H1108 0.930 . S
C1118 C1116 1.419 . S
C1118 C1119 1.362 . S
C1119 H1109 0.930 . S
C1119 C1112 1.409 . S
C1119 C1118 1.362 . S
H1120 C1126 0.930 . S
H1121 C1129 0.930 . S
H1122 C1130 0.930 . S
H1123 C1131 0.930 . S
H1124 C1134 0.930 . S
H1125 C1135 0.930 . S
C1126 H1120 0.930 . S
C1126 C1127 1.355 . S
C1126 C1128 1.415 . S
C1127 C1126 1.355 . S
C1127 C1129 1.419 . S
C1128 C1126 1.415 . S
C1128 C1133 1.425 . S
C1128 C1135 1.409 . S
C1129 H1121 0.930 . S
C1129 C1127 1.419 . S
C1129 C1130 1.362 . S
C1130 H1122 0.930 . S
C1130 C1129 1.362 . S
C1130 C1133 1.409 . S
C1131 H1123 0.930 . S
C1131 C1132 1.355 . S
C1131 C1133 1.415 . S
C1132 C1131 1.355 . S
C1132 C1134 1.419 . S
C1133 C1128 1.425 . S
C1133 C1130 1.409 . S
C1133 C1131 1.415 . S
C1134 H1124 0.930 . S
C1134 C1132 1.419 . S
C1134 C1135 1.362 . S
C1135 H1125 0.930 . S
C1135 C1128 1.409 . S
C1135 C1134 1.362 . S
H1136 C1142 0.930 . S
H1137 C1145 0.930 1_554 S
H1138 C1146 0.930 . S
H1139 C1147 0.930 . S
H1140 C1150 0.930 . S
H1141 C1151 0.930 . S
C1142 H1136 0.930 . S
C1142 C1143 1.355 . S
C1142 C1144 1.415 . S
C1143 C1142 1.355 . S
C1143 C1145 1.419 . S
C1144 C1142 1.415 . S
C1144 C1149 1.425 . S
C1144 C1151 1.409 . S
C1145 H1137 0.930 1_556 S
C1145 C1143 1.419 . S
C1145 C1146 1.362 . S
C1146 H1138 0.930 . S
C1146 C1145 1.362 . S
C1146 C1149 1.409 . S
C1147 H1139 0.930 . S
C1147 C1148 1.355 . S
C1147 C1149 1.415 . S
C1148 C1147 1.355 . S
C1148 C1150 1.419 . S
C1149 C1144 1.425 . S
C1149 C1146 1.409 . S
C1149 C1147 1.415 . S
C1150 H1140 0.930 . S
C1150 C1148 1.419 . S
C1150 C1151 1.362 . S
C1151 H1141 0.930 . S
C1151 C1144 1.409 . S
C1151 C1150 1.362 . S
H1152 C1158 0.930 . S
H1153 C1161 0.930 . S
H1154 C1162 0.930 . S
H1155 C1163 0.930 . S
H1156 C1166 0.930 . S
H1157 C1167 0.930 . S
C1158 H1152 0.930 . S
C1158 C1159 1.355 . S
C1158 C1160 1.415 . S
C1159 C1158 1.355 . S
C1159 C1161 1.419 . S
C1160 C1158 1.415 . S
C1160 C1165 1.425 . S
C1160 C1167 1.409 . S
C1161 H1153 0.930 . S
C1161 C1159 1.419 . S
C1161 C1162 1.362 . S
C1162 H1154 0.930 . S
C1162 C1161 1.362 . S
C1162 C1165 1.409 . S
C1163 H1155 0.930 . S
C1163 C1164 1.355 . S
C1163 C1165 1.415 . S
C1164 C1163 1.355 . S
C1164 C1166 1.419 . S
C1165 C1160 1.425 . S
C1165 C1162 1.409 . S
C1165 C1163 1.415 . S
C1166 H1156 0.930 . S
C1166 C1164 1.419 . S
C1166 C1167 1.362 . S
C1167 H1157 0.930 . S
C1167 C1160 1.409 . S
C1167 C1166 1.362 . S
H1168 C1174 0.930 . S
H1169 C1177 0.930 . S
H1170 C1178 0.930 . S
H1171 C1179 0.930 . S
H1172 C1182 0.930 . S
H1173 C1183 0.930 . S
C1174 H1168 0.930 . S
C1174 C1175 1.355 . S
C1174 C1176 1.415 . S
C1175 C1174 1.355 . S
C1175 C1177 1.419 . S
C1176 C1174 1.415 . S
C1176 C1181 1.425 . S
C1176 C1183 1.409 . S
C1177 H1169 0.930 . S
C1177 C1175 1.419 . S
C1177 C1178 1.362 . S
C1178 H1170 0.930 . S
C1178 C1177 1.362 . S
C1178 C1181 1.409 . S
C1179 H1171 0.930 . S
C1179 C1180 1.355 . S
C1179 C1181 1.415 . S
C1180 C1179 1.355 . S
C1180 C1182 1.419 . S
C1181 C1176 1.425 . S
C1181 C1178 1.409 . S
C1181 C1179 1.415 . S
C1182 H1172 0.930 . S
C1182 C1180 1.419 . S
C1182 C1183 1.362 . S
C1183 H1173 0.930 . S
C1183 C1176 1.409 . S
C1183 C1182 1.362 . S
H1184 C1190 0.930 . S
H1185 C1193 0.930 . S
H1186 C1194 0.930 . S
H1187 C1195 0.930 . S
H1188 C1198 0.930 . S
H1189 C1199 0.930 . S
C1190 H1184 0.930 . S
C1190 C1191 1.355 . S
C1190 C1192 1.415 . S
C1191 C1190 1.355 . S
C1191 C1193 1.419 . S
C1192 C1190 1.415 . S
C1192 C1197 1.425 . S
C1192 C1199 1.409 . S
C1193 H1185 0.930 . S
C1193 C1191 1.419 . S
C1193 C1194 1.362 . S
C1194 H1186 0.930 . S
C1194 C1193 1.362 . S
C1194 C1197 1.409 . S
C1195 H1187 0.930 . S
C1195 C1196 1.355 . S
C1195 C1197 1.415 . S
C1196 C1195 1.355 . S
C1196 C1198 1.419 . S
C1197 C1192 1.425 . S
C1197 C1194 1.409 . S
C1197 C1195 1.415 . S
C1198 H1188 0.930 . S
C1198 C1196 1.419 . S
C1198 C1199 1.362 . S
C1199 H1189 0.930 . S
C1199 C1192 1.409 . S
C1199 C1198 1.362 . S
H1200 C1206 0.930 1_655 S
H1201 C1209 0.930 . S
H1202 C1210 0.930 . S
H1203 C1211 0.930 1_455 S
H1204 C1214 0.930 . S
H1205 C1215 0.930 . S
C1206 H1200 0.930 1_455 S
C1206 C1207 1.355 . S
C1206 C1208 1.415 1_455 S
C1207 C1206 1.355 . S
C1207 C1209 1.419 . S
C1208 C1206 1.415 1_655 S
C1208 C1213 1.425 1_654 S
C1208 C1215 1.409 1_554 S
C1209 H1201 0.930 . S
C1209 C1207 1.419 . S
C1209 C1210 1.362 . S
C1210 H1202 0.930 . S
C1210 C1209 1.362 . S
C1210 C1213 1.409 1_554 S
C1211 H1203 0.930 1_655 S
C1211 C1212 1.355 . S
C1211 C1213 1.415 1_655 S
C1212 C1211 1.355 . S
C1212 C1214 1.419 . S
C1213 C1208 1.425 1_456 S
C1213 C1210 1.409 1_556 S
C1213 C1211 1.415 1_455 S
C1214 H1204 0.930 . S
C1214 C1212 1.419 . S
C1214 C1215 1.362 . S
C1215 H1205 0.930 . S
C1215 C1208 1.409 1_556 S
C1215 C1214 1.362 . S
H1216 C1222 0.930 . S
H1217 C1225 0.930 . S
H1218 C1226 0.930 . S
H1219 C1227 0.930 . S
H1220 C1230 0.930 . S
H1221 C1231 0.930 . S
C1222 H1216 0.930 . S
C1222 C1223 1.355 . S
C1222 C1224 1.415 . S
C1223 C1222 1.355 . S
C1223 C1225 1.419 . S
C1224 C1222 1.415 . S
C1224 C1229 1.425 . S
C1224 C1231 1.409 . S
C1225 H1217 0.930 . S
C1225 C1223 1.419 . S
C1225 C1226 1.362 . S
C1226 H1218 0.930 . S
C1226 C1225 1.362 . S
C1226 C1229 1.409 . S
C1227 H1219 0.930 . S
C1227 C1228 1.355 . S
C1227 C1229 1.415 . S
C1228 C1227 1.355 . S
C1228 C1230 1.419 . S
C1229 C1224 1.425 . S
C1229 C1226 1.409 . S
C1229 C1227 1.415 . S
C1230 H1220 0.930 . S
C1230 C1228 1.419 . S
C1230 C1231 1.362 . S
C1231 H1221 0.930 . S
C1231 C1224 1.409 . S
C1231 C1230 1.362 . S
H1232 C1238 0.930 . S
H1233 C1241 0.930 . S
H1234 C1242 0.930 . S
H1235 C1243 0.930 . S
H1236 C1246 0.930 . S
H1237 C1247 0.930 . S
C1238 H1232 0.930 . S
C1238 C1239 1.355 . S
C1238 C1240 1.415 . S
C1239 C1238 1.355 . S
C1239 C1241 1.419 . S
C1240 C1238 1.415 . S
C1240 C1245 1.425 . S
C1240 C1247 1.409 . S
C1241 H1233 0.930 . S
C1241 C1239 1.419 . S
C1241 C1242 1.362 . S
C1242 H1234 0.930 . S
C1242 C1241 1.362 . S
C1242 C1245 1.409 . S
C1243 H1235 0.930 . S
C1243 C1244 1.355 . S
C1243 C1245 1.415 . S
C1244 C1243 1.355 . S
C1244 C1246 1.419 . S
C1245 C1240 1.425 . S
C1245 C1242 1.409 . S
C1245 C1243 1.415 . S
C1246 H1236 0.930 . S
C1246 C1244 1.419 . S
C1246 C1247 1.362 . S
C1247 H1237 0.930 . S
C1247 C1240 1.409 . S
C1247 C1246 1.362 . S
H1248 C1254 0.930 1_554 S
H1249 C1257 0.930 . S
H1250 C1258 0.926 1_655 S
H1251 C1259 0.930 1_556 S
H1252 C1262 0.930 . S
H1253 C1263 0.926 1_455 S
C1254 H1248 0.930 1_556 S
C1254 C1255 1.355 . S
C1254 C1256 1.415 1_556 S
C1255 C1254 1.355 . S
C1255 C1257 1.419 . S
C1256 C1254 1.415 1_554 S
C1256 C1261 1.425 1_444 S
C1256 C1263 1.409 1_455 S
C1257 H1249 0.930 . S
C1257 C1255 1.419 . S
C1257 C1258 1.362 1_545 S
C1258 H1250 0.926 1_455 S
C1258 C1257 1.362 1_565 S
C1258 C1261 1.409 1_455 S
C1259 H1251 0.930 1_554 S
C1259 C1260 1.355 . S
C1259 C1261 1.415 1_554 S
C1260 C1259 1.355 . S
C1260 C1262 1.419 . S
C1261 C1256 1.425 1_666 S
C1261 C1258 1.409 1_655 S
C1261 C1259 1.415 1_556 S
C1262 H1252 0.930 . S
C1262 C1260 1.419 . S
C1262 C1263 1.362 1_565 S
C1263 H1253 0.926 1_655 S
C1263 C1256 1.409 1_655 S
C1263 C1262 1.362 1_545 S
H1264 C1270 0.930 . S
H1265 C1273 0.930 . S
H1266 C1274 0.930 . S
H1267 C1275 0.930 . S
H1268 C1278 0.930 . S
H1269 C1279 0.930 . S
C1270 H1264 0.930 . S
C1270 C1271 1.355 . S
C1270 C1272 1.415 1_545 S
C1271 C1270 1.355 . S
C1271 C1273 1.419 . S
C1272 C1270 1.415 1_565 S
C1272 C1277 1.425 1_565 S
C1272 C1279 1.409 . S
C1273 H1265 0.930 . S
C1273 C1271 1.419 . S
C1273 C1274 1.362 . S
C1274 H1266 0.930 . S
C1274 C1273 1.362 . S
C1274 C1277 1.409 . S
C1275 H1267 0.930 . S
C1275 C1276 1.355 . S
C1275 C1277 1.415 1_565 S
C1276 C1275 1.355 . S
C1276 C1278 1.419 . S
C1277 C1272 1.425 1_545 S
C1277 C1274 1.409 . S
C1277 C1275 1.415 1_545 S
C1278 H1268 0.930 . S
C1278 C1276 1.419 . S
C1278 C1279 1.362 . S
C1279 H1269 0.930 . S
C1279 C1272 1.409 . S
C1279 C1278 1.362 . S
C519 N13 0.287 . S
C524 N338 0.322 . S
C535 N50 0.307 . S
C540 N370 0.355 . S
C551 N82 0.509 . S
C556 N269 0.513 . S
C567 N114 0.505 . S
C572 N306 0.478 . S
C583 N146 0.452 . S
C588 N461 0.490 . S
C599 N178 0.514 . S
C604 N498 0.506 . S
C615 N210 0.509 . S
C620 N402 0.485 . S
C631 N242 0.306 . S
C636 N434 0.281 . S
C647 C317 1.101 . S
C652 N18 1.080 . S
C663 C349 1.048 . S
C668 N45 1.043 . S
C679 C381 1.005 . S
C684 N77 1.082 . S
C695 C260 1.114 . S
C700 N109 1.051 . S
C711 N141 1.120 . S
C716 C445 1.015 . S
C727 C452 1.021 . S
C732 N173 1.121 . S
C743 C509 1.016 . S
C748 N205 1.068 . S
C759 C413 1.046 . S
C764 N237 1.044 . S
C775 C61 1.060 . S
C780 N274 1.112 . S
C791 N301 1.063 . S
C796 C93 1.111 . S
C807 N333 1.052 . S
C812 C125 1.035 . S
C823 N365 1.065 . S
C828 C4 1.019 . S
C839 N397 1.065 . S
C844 C189 1.019 . S
C855 C221 1.088 . S
C860 N429 1.030 . S
C871 C253 1.009 . S
C876 N466 1.118 . S
C887 N493 1.069 . S
C892 C157 1.109 . S
C903 C29 1.983 . S
C908 C482 1.970 . S
C919 C36 1.997 . S
C924 C130 1.983 . S
C935 C418 1.992 1_455 S
C940 C68 2.002 . S
C951 C194 2.002 . S
C956 C100 2.001 . S
C967 C132 1.978 . S
C972 C354 1.997 . S
C983 C164 2.003 . S
C988 C6 1.995 . S
C999 C290 1.993 1_655 S
C1004 C196 2.002 . S
C1015 C66 1.984 . S
C1020 C228 1.998 . S
C1031 C285 1.970 . S
C1036 C226 1.989 1_655 S
C1047 C292 1.982 . S
C1052 C386 1.970 . S
C1063 C162 2.004 . S
C1068 C324 1.991 . S
C1079 C454 1.990 . S
C1084 C356 2.001 . S
C1095 C388 1.990 . S
C1100 C98 1.975 1_455 S
C1111 C420 1.993 . S
C1116 C262 2.005 . S
C1127 C477 1.986 . S
C1132 C34 1.972 . S
C1143 C322 1.981 . S
C1148 C484 1.965 . S
C1159 C2 2.323 . S
C1164 C390 2.323 . S
C1175 C38 2.329 . S
C1180 C166 2.329 . S
C1191 C70 2.325 . S
C1196 C450 2.325 . S
C1207 C230 2.325 . S
C1212 C102 2.325 . S
C1223 C134 2.318 . S
C1228 C258 2.318 . S
C1239 C326 2.326 . S
C1244 C198 2.326 . S
C1255 C294 2.321 . S
C1260 C422 2.321 . S
C1271 C486 2.326 . S
C1276 C358 2.326 . S
