# Generated by pormake.
# Topology sop, (7)-cn, num edge types: 1
# Building blocks:
#     Node 0, Type 0, BuildingBlock: NUHQUE_clean_sbu_2, # of connection points: 7
#     Node 1, Type 0, BuildingBlock: NUHQUE_clean_sbu_2, # of connection points: 7
#     Node 2, Type 0, BuildingBlock: NUHQUE_clean_sbu_2, # of connection points: 7
#     Node 3, Type 0, BuildingBlock: NUHQUE_clean_sbu_2, # of connection points: 7
#     Node 4, Type 0, BuildingBlock: NUHQUE_clean_sbu_2, # of connection points: 7
#     Node 5, Type 0, BuildingBlock: NUHQUE_clean_sbu_2, # of connection points: 7
#     Node 6, Type 0, BuildingBlock: NUHQUE_clean_sbu_2, # of connection points: 7
#     Node 7, Type 0, BuildingBlock: NUHQUE_clean_sbu_2, # of connection points: 7
#     Node 8, Type 0, BuildingBlock: NUHQUE_clean_sbu_2, # of connection points: 7
#     Node 9, Type 0, BuildingBlock: NUHQUE_clean_sbu_2, # of connection points: 7
#     Node 10, Type 0, BuildingBlock: NUHQUE_clean_sbu_2, # of connection points: 7
#     Node 11, Type 0, BuildingBlock: NUHQUE_clean_sbu_2, # of connection points: 7
#     Node 12, Type 0, BuildingBlock: NUHQUE_clean_sbu_2, # of connection points: 7
#     Node 13, Type 0, BuildingBlock: NUHQUE_clean_sbu_2, # of connection points: 7
#     Node 14, Type 0, BuildingBlock: NUHQUE_clean_sbu_2, # of connection points: 7
#     Node 15, Type 0, BuildingBlock: NUHQUE_clean_sbu_2, # of connection points: 7
#     Node 16, Type 0, BuildingBlock: NUHQUE_clean_sbu_2, # of connection points: 7
#     Node 17, Type 0, BuildingBlock: NUHQUE_clean_sbu_2, # of connection points: 7
#     Node 18, Type 0, BuildingBlock: NUHQUE_clean_sbu_2, # of connection points: 7
#     Node 19, Type 0, BuildingBlock: NUHQUE_clean_sbu_2, # of connection points: 7
#     Node 20, Type 0, BuildingBlock: NUHQUE_clean_sbu_2, # of connection points: 7
#     Node 21, Type 0, BuildingBlock: NUHQUE_clean_sbu_2, # of connection points: 7
#     Node 22, Type 0, BuildingBlock: NUHQUE_clean_sbu_2, # of connection points: 7
#     Node 23, Type 0, BuildingBlock: NUHQUE_clean_sbu_2, # of connection points: 7
#     Node 24, Type 0, BuildingBlock: NUHQUE_clean_sbu_2, # of connection points: 7
#     Node 25, Type 0, BuildingBlock: NUHQUE_clean_sbu_2, # of connection points: 7
#     Node 26, Type 0, BuildingBlock: NUHQUE_clean_sbu_2, # of connection points: 7
#     Node 27, Type 0, BuildingBlock: NUHQUE_clean_sbu_2, # of connection points: 7
#     Node 28, Type 0, BuildingBlock: NUHQUE_clean_sbu_2, # of connection points: 7
#     Node 29, Type 0, BuildingBlock: NUHQUE_clean_sbu_2, # of connection points: 7
#     Node 30, Type 0, BuildingBlock: NUHQUE_clean_sbu_2, # of connection points: 7
#     Node 31, Type 0, BuildingBlock: NUHQUE_clean_sbu_2, # of connection points: 7
#     Edge 32, Type (0, 0), BuildingBlock: CIFDUS_clean_linker_0, # of connection points: 2
#     Edge 33, Type (0, 0), BuildingBlock: CIFDUS_clean_linker_0, # of connection points: 2
#     Edge 34, Type (0, 0), BuildingBlock: CIFDUS_clean_linker_0, # of connection points: 2
#     Edge 35, Type (0, 0), BuildingBlock: CIFDUS_clean_linker_0, # of connection points: 2
#     Edge 36, Type (0, 0), BuildingBlock: CIFDUS_clean_linker_0, # of connection points: 2
#     Edge 37, Type (0, 0), BuildingBlock: CIFDUS_clean_linker_0, # of connection points: 2
#     Edge 38, Type (0, 0), BuildingBlock: CIFDUS_clean_linker_0, # of connection points: 2
#     Edge 39, Type (0, 0), BuildingBlock: CIFDUS_clean_linker_0, # of connection points: 2
#     Edge 40, Type (0, 0), BuildingBlock: CIFDUS_clean_linker_0, # of connection points: 2
#     Edge 41, Type (0, 0), BuildingBlock: CIFDUS_clean_linker_0, # of connection points: 2
#     Edge 42, Type (0, 0), BuildingBlock: CIFDUS_clean_linker_0, # of connection points: 2
#     Edge 43, Type (0, 0), BuildingBlock: CIFDUS_clean_linker_0, # of connection points: 2
#     Edge 44, Type (0, 0), BuildingBlock: CIFDUS_clean_linker_0, # of connection points: 2
#     Edge 45, Type (0, 0), BuildingBlock: CIFDUS_clean_linker_0, # of connection points: 2
#     Edge 46, Type (0, 0), BuildingBlock: CIFDUS_clean_linker_0, # of connection points: 2
#     Edge 47, Type (0, 0), BuildingBlock: CIFDUS_clean_linker_0, # of connection points: 2
#     Edge 48, Type (0, 0), BuildingBlock: CIFDUS_clean_linker_0, # of connection points: 2
#     Edge 49, Type (0, 0), BuildingBlock: CIFDUS_clean_linker_0, # of connection points: 2
#     Edge 50, Type (0, 0), BuildingBlock: CIFDUS_clean_linker_0, # of connection points: 2
#     Edge 51, Type (0, 0), BuildingBlock: CIFDUS_clean_linker_0, # of connection points: 2
#     Edge 52, Type (0, 0), BuildingBlock: CIFDUS_clean_linker_0, # of connection points: 2
#     Edge 53, Type (0, 0), BuildingBlock: CIFDUS_clean_linker_0, # of connection points: 2
#     Edge 54, Type (0, 0), BuildingBlock: CIFDUS_clean_linker_0, # of connection points: 2
#     Edge 55, Type (0, 0), BuildingBlock: CIFDUS_clean_linker_0, # of connection points: 2
#     Edge 56, Type (0, 0), BuildingBlock: CIFDUS_clean_linker_0, # of connection points: 2
#     Edge 57, Type (0, 0), BuildingBlock: CIFDUS_clean_linker_0, # of connection points: 2
#     Edge 58, Type (0, 0), BuildingBlock: CIFDUS_clean_linker_0, # of connection points: 2
#     Edge 59, Type (0, 0), BuildingBlock: CIFDUS_clean_linker_0, # of connection points: 2
#     Edge 60, Type (0, 0), BuildingBlock: CIFDUS_clean_linker_0, # of connection points: 2
#     Edge 61, Type (0, 0), BuildingBlock: CIFDUS_clean_linker_0, # of connection points: 2
#     Edge 62, Type (0, 0), BuildingBlock: CIFDUS_clean_linker_0, # of connection points: 2
#     Edge 63, Type (0, 0), BuildingBlock: CIFDUS_clean_linker_0, # of connection points: 2
#     Edge 64, Type (0, 0), BuildingBlock: CIFDUS_clean_linker_0, # of connection points: 2
#     Edge 65, Type (0, 0), BuildingBlock: CIFDUS_clean_linker_0, # of connection points: 2
#     Edge 66, Type (0, 0), BuildingBlock: CIFDUS_clean_linker_0, # of connection points: 2
#     Edge 67, Type (0, 0), BuildingBlock: CIFDUS_clean_linker_0, # of connection points: 2
#     Edge 68, Type (0, 0), BuildingBlock: CIFDUS_clean_linker_0, # of connection points: 2
#     Edge 69, Type (0, 0), BuildingBlock: CIFDUS_clean_linker_0, # of connection points: 2
#     Edge 70, Type (0, 0), BuildingBlock: CIFDUS_clean_linker_0, # of connection points: 2
#     Edge 71, Type (0, 0), BuildingBlock: CIFDUS_clean_linker_0, # of connection points: 2
#     Edge 72, Type (0, 0), BuildingBlock: CIFDUS_clean_linker_0, # of connection points: 2
#     Edge 73, Type (0, 0), BuildingBlock: CIFDUS_clean_linker_0, # of connection points: 2
#     Edge 74, Type (0, 0), BuildingBlock: CIFDUS_clean_linker_0, # of connection points: 2
#     Edge 75, Type (0, 0), BuildingBlock: CIFDUS_clean_linker_0, # of connection points: 2
#     Edge 76, Type (0, 0), BuildingBlock: CIFDUS_clean_linker_0, # of connection points: 2
#     Edge 77, Type (0, 0), BuildingBlock: CIFDUS_clean_linker_0, # of connection points: 2
#     Edge 78, Type (0, 0), BuildingBlock: CIFDUS_clean_linker_0, # of connection points: 2
#     Edge 79, Type (0, 0), BuildingBlock: CIFDUS_clean_linker_0, # of connection points: 2
#     Edge 80, Type (0, 0), BuildingBlock: CIFDUS_clean_linker_0, # of connection points: 2
#     Edge 81, Type (0, 0), BuildingBlock: CIFDUS_clean_linker_0, # of connection points: 2
#     Edge 82, Type (0, 0), BuildingBlock: CIFDUS_clean_linker_0, # of connection points: 2
#     Edge 83, Type (0, 0), BuildingBlock: CIFDUS_clean_linker_0, # of connection points: 2
#     Edge 84, Type (0, 0), BuildingBlock: CIFDUS_clean_linker_0, # of connection points: 2
#     Edge 85, Type (0, 0), BuildingBlock: CIFDUS_clean_linker_0, # of connection points: 2
#     Edge 86, Type (0, 0), BuildingBlock: CIFDUS_clean_linker_0, # of connection points: 2
#     Edge 87, Type (0, 0), BuildingBlock: CIFDUS_clean_linker_0, # of connection points: 2
#     Edge 88, Type (0, 0), BuildingBlock: CIFDUS_clean_linker_0, # of connection points: 2
#     Edge 89, Type (0, 0), BuildingBlock: CIFDUS_clean_linker_0, # of connection points: 2
#     Edge 90, Type (0, 0), BuildingBlock: CIFDUS_clean_linker_0, # of connection points: 2
#     Edge 91, Type (0, 0), BuildingBlock: CIFDUS_clean_linker_0, # of connection points: 2
#     Edge 92, Type (0, 0), BuildingBlock: CIFDUS_clean_linker_0, # of connection points: 2
#     Edge 93, Type (0, 0), BuildingBlock: CIFDUS_clean_linker_0, # of connection points: 2
#     Edge 94, Type (0, 0), BuildingBlock: CIFDUS_clean_linker_0, # of connection points: 2
#     Edge 95, Type (0, 0), BuildingBlock: CIFDUS_clean_linker_0, # of connection points: 2
#     Edge 96, Type (0, 0), BuildingBlock: CIFDUS_clean_linker_0, # of connection points: 2
#     Edge 97, Type (0, 0), BuildingBlock: CIFDUS_clean_linker_0, # of connection points: 2
#     Edge 98, Type (0, 0), BuildingBlock: CIFDUS_clean_linker_0, # of connection points: 2
#     Edge 99, Type (0, 0), BuildingBlock: CIFDUS_clean_linker_0, # of connection points: 2
#     Edge 100, Type (0, 0), BuildingBlock: CIFDUS_clean_linker_0, # of connection points: 2
#     Edge 101, Type (0, 0), BuildingBlock: CIFDUS_clean_linker_0, # of connection points: 2
#     Edge 102, Type (0, 0), BuildingBlock: CIFDUS_clean_linker_0, # of connection points: 2
#     Edge 103, Type (0, 0), BuildingBlock: CIFDUS_clean_linker_0, # of connection points: 2
#     Edge 104, Type (0, 0), BuildingBlock: CIFDUS_clean_linker_0, # of connection points: 2
#     Edge 105, Type (0, 0), BuildingBlock: CIFDUS_clean_linker_0, # of connection points: 2
#     Edge 106, Type (0, 0), BuildingBlock: CIFDUS_clean_linker_0, # of connection points: 2
#     Edge 107, Type (0, 0), BuildingBlock: CIFDUS_clean_linker_0, # of connection points: 2
#     Edge 108, Type (0, 0), BuildingBlock: CIFDUS_clean_linker_0, # of connection points: 2
#     Edge 109, Type (0, 0), BuildingBlock: CIFDUS_clean_linker_0, # of connection points: 2
#     Edge 110, Type (0, 0), BuildingBlock: CIFDUS_clean_linker_0, # of connection points: 2
#     Edge 111, Type (0, 0), BuildingBlock: CIFDUS_clean_linker_0, # of connection points: 2
#     Edge 112, Type (0, 0), BuildingBlock: CIFDUS_clean_linker_0, # of connection points: 2
#     Edge 113, Type (0, 0), BuildingBlock: CIFDUS_clean_linker_0, # of connection points: 2
#     Edge 114, Type (0, 0), BuildingBlock: CIFDUS_clean_linker_0, # of connection points: 2
#     Edge 115, Type (0, 0), BuildingBlock: CIFDUS_clean_linker_0, # of connection points: 2
#     Edge 116, Type (0, 0), BuildingBlock: CIFDUS_clean_linker_0, # of connection points: 2
#     Edge 117, Type (0, 0), BuildingBlock: CIFDUS_clean_linker_0, # of connection points: 2
#     Edge 118, Type (0, 0), BuildingBlock: CIFDUS_clean_linker_0, # of connection points: 2
#     Edge 119, Type (0, 0), BuildingBlock: CIFDUS_clean_linker_0, # of connection points: 2
#     Edge 120, Type (0, 0), BuildingBlock: CIFDUS_clean_linker_0, # of connection points: 2
#     Edge 121, Type (0, 0), BuildingBlock: CIFDUS_clean_linker_0, # of connection points: 2
#     Edge 122, Type (0, 0), BuildingBlock: CIFDUS_clean_linker_0, # of connection points: 2
#     Edge 123, Type (0, 0), BuildingBlock: CIFDUS_clean_linker_0, # of connection points: 2
#     Edge 124, Type (0, 0), BuildingBlock: CIFDUS_clean_linker_0, # of connection points: 2
#     Edge 125, Type (0, 0), BuildingBlock: CIFDUS_clean_linker_0, # of connection points: 2
#     Edge 126, Type (0, 0), BuildingBlock: CIFDUS_clean_linker_0, # of connection points: 2
#     Edge 127, Type (0, 0), BuildingBlock: CIFDUS_clean_linker_0, # of connection points: 2
#     Edge 128, Type (0, 0), BuildingBlock: CIFDUS_clean_linker_0, # of connection points: 2
#     Edge 129, Type (0, 0), BuildingBlock: CIFDUS_clean_linker_0, # of connection points: 2
#     Edge 130, Type (0, 0), BuildingBlock: CIFDUS_clean_linker_0, # of connection points: 2
#     Edge 131, Type (0, 0), BuildingBlock: CIFDUS_clean_linker_0, # of connection points: 2
#     Edge 132, Type (0, 0), BuildingBlock: CIFDUS_clean_linker_0, # of connection points: 2
#     Edge 133, Type (0, 0), BuildingBlock: CIFDUS_clean_linker_0, # of connection points: 2
#     Edge 134, Type (0, 0), BuildingBlock: CIFDUS_clean_linker_0, # of connection points: 2
#     Edge 135, Type (0, 0), BuildingBlock: CIFDUS_clean_linker_0, # of connection points: 2
#     Edge 136, Type (0, 0), BuildingBlock: CIFDUS_clean_linker_0, # of connection points: 2
#     Edge 137, Type (0, 0), BuildingBlock: CIFDUS_clean_linker_0, # of connection points: 2
#     Edge 138, Type (0, 0), BuildingBlock: CIFDUS_clean_linker_0, # of connection points: 2
#     Edge 139, Type (0, 0), BuildingBlock: CIFDUS_clean_linker_0, # of connection points: 2
#     Edge 140, Type (0, 0), BuildingBlock: CIFDUS_clean_linker_0, # of connection points: 2
#     Edge 141, Type (0, 0), BuildingBlock: CIFDUS_clean_linker_0, # of connection points: 2
#     Edge 142, Type (0, 0), BuildingBlock: CIFDUS_clean_linker_0, # of connection points: 2
#     Edge 143, Type (0, 0), BuildingBlock: CIFDUS_clean_linker_0, # of connection points: 2
# Relax obj value: 0.265
# Max RMSD: 0.263
# Mean RMSD: 0.263
data_MOF--net-sop--node1-NUHQUE_clean_sbu_2--edge1-CIFDUS_clean_linker_0
_symmetry_space_group_name_H-M    P1
_symmetry_Int_Tables_number       1
_symmetry_cell_setting            triclinic
loop_
_symmetry_equiv_pos_as_xyz
'x, y, z'
_cell_length_a     106.42128
_cell_length_b     23.388855
_cell_length_c     54.960765
_cell_angle_alpha  89.844992
_cell_angle_beta   90.015998
_cell_angle_gamma 90.159654
loop_
_atom_site_label
_atom_site_type_symbol
_atom_site_fract_x
_atom_site_fract_y
_atom_site_fract_z
_atom_type_partial_charge
O0 O 0.13138 0.35969 0.10744 0.0
Tb1 Tb 0.11475 0.41199 0.1113 0.0
Eu2 Eu 0.08611 0.45313 0.09101 0.0
C3 C 0.13234 0.33212 0.08674 0.0
O4 O 0.12404 0.34281 0.06962 0.0
C5 C 0.09354 0.32828 0.11695 0.0
O6 O 0.0765 0.52734 0.1085 0.0
C7 C 0.07198 0.43849 0.0519 0.0
C8 C 0.07502 0.53566 0.13188 0.0
O9 O 0.07765 0.49468 0.14742 0.0
C10 C 0.11349 0.53237 0.08732 0.0
C11 C 0.06387 0.46261 1.03134 0.0
C12 C 0.0665 0.44897 1.00659 0.0
C13 C 0.05826 0.4654 0.98741 0.0
C14 C 0.04721 0.49545 0.99333 0.0
C15 C 0.04398 0.50871 1.01763 0.0
C16 C 0.05243 0.49206 1.03641 0.0
O17 O 0.10358 0.33639 0.10356 0.0
O18 O 0.08558 0.37239 0.11779 0.0
O19 O 0.11883 0.42018 0.1499 0.0
O20 O 0.10129 0.45031 0.13635 0.0
C21 C 0.10817 0.44401 0.15568 0.0
O22 O 0.1009 0.53008 0.08927 0.0
O23 O 0.12011 0.485 0.08904 0.0
O24 O 0.06772 0.44315 0.07426 0.0
O25 O 0.08442 0.43891 0.05103 0.0
H26 H 0.07475 0.42391 1.0023 0.0
H27 H 0.04074 0.50612 0.9788 0.0
H28 H 0.04998 0.50157 0.05509 0.0
O29 O 0.16691 0.99741 0.06038 0.0
Tb30 Tb 0.1507 0.97751 0.08261 0.0
Eu31 Eu 0.17735 0.92055 0.08699 0.0
C32 C 0.17017 1.04989 0.05437 0.0
O33 O 0.18085 0.05876 0.04303 0.0
C34 C 0.16727 1.04084 0.12026 0.0
O35 O 0.1852 0.84927 0.10985 0.0
C36 C 0.19293 0.92918 0.0494 0.0
C37 C 0.1802 0.83462 0.1308 0.0
O38 O 0.17184 0.86815 0.14097 0.0
C39 C 0.15078 0.8457 0.09092 0.0
C40 C 0.20237 0.90721 1.03086 0.0
C41 C 0.20054 0.91687 1.00551 0.0
C42 C 0.20996 0.90366 0.98786 0.0
C43 C 0.22139 0.87985 0.99652 0.0
C44 C 0.2236 0.86985 1.02165 0.0
C45 C 0.21392 0.88332 0.03842 0.0
O46 O 0.15564 1.03359 0.11252 0.0
O47 O 0.17643 1.00513 0.11231 0.0
O48 O 0.13695 0.96313 0.0537 0.0
O49 O 0.13405 1.02994 0.07863 0.0
C50 C 0.129 1.00224 0.06046 0.0
O51 O 0.16235 0.84728 0.08177 0.0
O52 O 0.14595 0.89413 0.09866 0.0
O53 O 0.19627 0.93347 0.07237 0.0
O54 O 0.18084 0.91947 0.04689 0.0
H55 H 0.19176 0.93566 0.99965 0.0
H56 H 0.22892 0.87169 0.98375 0.0
H57 H 0.21547 0.87597 0.05765 0.0
O58 O 0.12949 1.02676 0.23012 0.0
Tb59 Tb 0.11491 0.96908 0.218 0.0
Eu60 Eu 0.08681 0.91948 0.2368 0.0
C61 C 0.1277 1.04941 0.25167 0.0
O62 O 0.11838 1.02987 0.26504 0.0
C63 C 0.09238 1.0457 0.20981 0.0
O64 O 0.07604 0.84773 0.21979 0.0
C65 C 0.07373 0.93487 0.27719 0.0
C66 C 0.07619 0.83732 0.1964 0.0
O67 O 0.08134 0.87458 0.18151 0.0
C68 C 0.11424 0.84315 0.23873 0.0
C69 C 0.06486 0.90752 0.2957 0.0
C70 C 0.06669 0.91331 0.32133 0.0
C71 C 0.05746 0.89386 0.33836 0.0
C72 C 0.04613 0.87047 0.32898 0.0
C73 C 0.04396 0.86395 0.30381 0.0
C74 C 0.05349 0.882 0.28754 0.0
O75 O 0.1028 1.04342 0.2225 0.0
O76 O 0.08527 0.99853 0.20978 0.0
O77 O 0.12204 0.97337 0.18105 0.0
O78 O 0.10393 0.93747 0.18742 0.0
C79 C 0.11204 0.95165 0.17075 0.0
O80 O 0.10167 0.84389 0.23694 0.0
O81 O 0.12065 0.89151 0.2374 0.0
O82 O 0.06937 0.94008 0.25496 0.0
O83 O 0.08597 0.92554 0.27737 0.0
H84 H 0.07525 0.93293 0.32797 0.0
H85 H 0.03887 0.85666 0.3415 0.0
H86 H 0.05177 0.87818 0.2682 0.0
O87 O 0.16398 0.37801 0.27301 0.0
Tb88 Tb 0.14887 0.39501 0.24775 0.0
Eu89 Eu 0.17679 0.44792 0.24187 0.0
C90 C 0.16868 0.32684 0.27702 0.0
O91 O 0.17864 0.32152 0.29092 0.0
C92 C 0.16502 0.33279 0.20826 0.0
O93 O 0.18501 0.51685 0.21812 0.0
C94 C 0.19258 0.43897 0.27921 0.0
C95 C 0.17975 0.53209 0.1975 0.0
O96 O 0.17085 0.50002 0.18809 0.0
C97 C 0.15053 0.52746 0.23846 0.0
C98 C 0.20198 0.45845 0.29845 0.0
C99 C 0.19993 0.44476 0.32349 0.0
C100 C 0.20895 0.45821 0.34175 0.0
C101 C 0.22017 0.48545 0.33451 0.0
C102 C 0.22274 0.499 0.30986 0.0
C103 C 0.21355 0.48508 0.29202 0.0
O104 O 0.15362 0.34561 0.21582 0.0
O105 O 0.17499 0.36244 0.21708 0.0
O106 O 0.13274 0.40707 0.27182 0.0
O107 O 0.13315 0.33538 0.24902 0.0
C108 C 0.12624 0.36306 0.26457 0.0
O109 O 0.16241 0.52443 0.24621 0.0
O110 O 0.14474 0.4796 0.2326 0.0
O111 O 0.19591 0.43593 0.25619 0.0
O112 O 0.18052 0.44856 0.28179 0.0
H113 H 0.19143 0.42229 0.32871 0.0
H114 H 0.22722 0.49411 0.34826 0.0
H115 H 0.21541 0.49497 0.2731 0.0
O116 O 0.91004 0.77145 1.01555 0.0
Tb117 Tb 0.90069 0.72498 0.98638 0.0
Eu118 Eu 0.93025 0.68249 0.9879 0.0
C119 C 0.91135 0.82744 1.01342 0.0
O120 O 0.91745 0.8471 0.99443 0.0
C121 C 0.91898 0.78755 0.94899 0.0
O122 O 0.93847 0.61102 0.96546 0.0
C123 C 0.94632 0.69797 1.02421 0.0
C124 C 0.93374 0.5945 0.9445 0.0
O125 O 0.92502 0.62549 0.93395 0.0
C126 C 0.90563 0.59082 0.98818 0.0
C127 C 0.95476 0.67437 0.04451 0.0
C128 C 0.95211 0.68577 0.06952 0.0
C129 C 0.96049 0.66909 0.08858 0.0
C130 C 0.9717 0.64096 0.08196 0.0
C131 C 0.97488 0.62931 0.05748 0.0
C132 C 0.96633 0.64652 0.03897 0.0
O133 O 0.90735 0.77048 0.95377 0.0
O134 O 0.9287 0.76361 0.96109 0.0
O135 O 0.88426 0.71958 1.01018 0.0
O136 O 0.883 0.76711 0.9777 0.0
C137 C 0.87684 0.75108 0.99706 0.0
O138 O 0.91717 0.6035 0.99613 0.0
O139 O 0.89862 0.63223 0.97914 0.0
O140 O 0.94954 0.68893 1.00142 0.0
O141 O 0.934 0.70164 1.02686 0.0
H142 H 0.94356 0.7083 0.07412 0.0
H143 H 0.97838 0.63004 0.0961 0.0
H144 H 0.96874 0.63831 1.02016 0.0
O145 O 0.85765 0.11072 1.02917 0.0
Tb146 Tb 0.87061 0.13975 1.00092 0.0
Eu147 Eu 0.84174 0.19085 0.9867 0.0
C148 C 0.85812 0.0597 0.03967 0.0
O149 O 0.85061 1.04904 0.05809 0.0
C150 C 0.85371 0.07456 0.95872 0.0
O151 O 0.83407 0.25099 0.95806 0.0
C152 C 0.82637 0.1979 1.02404 0.0
C153 C 0.83728 0.24695 0.93504 0.0
O154 O 0.84374 0.20231 0.92784 0.0
C155 C 0.86684 0.2793 0.99228 0.0
C156 C 0.81677 0.20464 0.04445 0.0
C157 C 0.81963 0.19169 0.06922 0.0
C158 C 0.8108 0.20177 0.08829 0.0
C159 C 0.79894 0.22445 0.08191 0.0
C160 C 0.79559 0.23673 0.05752 0.0
C161 C 0.80467 0.2271 0.03911 0.0
O162 O 0.86485 0.09124 0.96717 0.0
O163 O 0.84333 0.10201 0.96608 0.0
O164 O 0.88475 0.07268 0.99879 0.0
O165 O 0.88793 0.14894 1.02143 0.0
C166 C 0.88296 0.12824 1.00113 0.0
O167 O 0.85511 0.26982 0.9849 0.0
O168 O 0.87363 0.23643 1.00095 0.0
O169 O 0.82276 0.19856 1.00111 0.0
O170 O 0.83858 0.19017 1.02694 0.0
H171 H 0.8288 0.17462 0.07371 0.0
H172 H 0.79214 0.23198 0.0962 0.0
H173 H 0.80224 0.23669 1.02041 0.0
O174 O 0.90155 0.09257 0.80039 0.0
Tb175 Tb 0.90949 0.15241 0.82577 0.0
Eu176 Eu 0.93431 0.20507 0.8354 0.0
C177 C 0.9096 0.06206 0.78789 0.0
O178 O 0.92143 0.0782 0.78772 0.0
C179 C 0.9266 0.0773 0.85963 0.0
O180 O 0.94272 0.28017 0.8554 0.0
C181 C 0.94827 0.18866 0.79636 0.0
C182 C 0.93919 0.29308 0.87766 0.0
O183 O 0.93259 0.2558 0.89023 0.0
C184 C 0.90975 0.28072 0.8177 0.0
C185 C 0.95665 0.21234 0.7762 0.0
C186 C 0.95366 0.20538 0.75098 0.0
C187 C 0.96232 0.22199 0.7324 0.0
C188 C 0.97411 0.24382 0.73954 0.0
C189 C 0.97754 0.24992 0.76415 0.0
C190 C 0.96865 0.23518 0.78222 0.0
O191 O 0.91846 0.07554 0.84153 0.0
O192 O 0.93321 0.12572 0.86244 0.0
O193 O 0.89349 0.16306 0.84957 0.0
O194 O 0.91206 0.19047 0.8608 0.0
C195 C 0.90025 0.18716 0.86668 0.0
O196 O 0.91954 0.27873 0.8326 0.0
O197 O 0.90677 0.23309 0.80625 0.0
O198 O 0.95254 0.19153 0.81882 0.0
O199 O 0.93587 0.19206 0.79538 0.0
H200 H 0.94468 0.18714 0.74585 0.0
H201 H 0.98081 0.25603 0.72558 0.0
H202 H 0.97138 0.23905 0.80112 0.0
O203 O 0.88744 0.74296 0.84864 0.0
Tb204 Tb 0.8704 0.69639 0.85645 0.0
Eu205 Eu 0.84264 0.65758 0.83939 0.0
C206 C 0.88862 0.75563 0.82543 0.0
O207 O 0.88038 0.73399 0.81018 0.0
C208 C 0.85022 0.7863 0.86723 0.0
O209 O 0.83561 0.59165 0.86674 0.0
C210 C 0.82703 0.65699 0.8021 0.0
C211 C 0.83318 0.53907 0.85942 0.0
O212 O 0.83332 0.52835 0.83596 0.0
C213 C 0.86946 0.58195 0.83 0.0
C214 C 0.81705 0.65376 0.78205 0.0
C215 C 0.81926 0.66696 0.75693 0.0
C216 C 0.80947 0.66138 0.73912 0.0
C217 C 0.79748 0.64266 0.74699 0.0
C218 C 0.79496 0.62971 0.77163 0.0
C219 C 0.80485 0.635 0.78864 0.0
O220 O 0.86147 0.77994 0.85779 0.0
O221 O 0.84177 0.74377 0.86372 0.0
O222 O 0.87417 0.66739 0.8934 0.0
O223 O 0.85607 0.65397 0.87776 0.0
C224 C 0.86288 0.6464 0.89708 0.0
O225 O 0.85718 0.58105 0.83496 0.0
O226 O 0.87523 0.63135 0.83021 0.0
O227 O 0.82389 0.64599 0.82479 0.0
O228 O 0.83896 0.67164 0.79948 0.0
H229 H 0.82844 0.68199 0.75131 0.0
H230 H 0.78992 0.63994 0.73382 0.0
H231 H 0.80299 0.62375 0.80743 0.0
O232 O 0.10755 0.86185 0.53363 0.0
Tb233 Tb 0.11903 0.88191 0.56546 0.0
Eu234 Eu 0.09022 0.94327 0.58556 0.0
C235 C 0.10892 0.81586 0.51986 0.0
O236 O 0.10071 0.80628 0.50252 0.0
C237 C 0.10169 0.81887 0.60913 0.0
O238 O 0.08105 1.00529 0.61187 0.0
C239 C 0.07521 0.93293 0.54744 0.0
C240 C 0.08787 1.02572 0.6299 0.0
O241 O 0.09927 1.00571 0.63282 0.0
C242 C 0.11627 1.02284 0.57683 0.0
C243 C 0.06664 0.95578 0.52737 0.0
C244 C 0.06964 0.94757 0.50229 0.0
C245 C 0.06089 0.96103 0.48353 0.0
C246 C 0.04906 0.98276 0.49018 0.0
C247 C 0.04561 0.9912 0.51473 0.0
C248 C 0.05456 0.97818 0.5331 0.0
O249 O 0.11154 0.8234 0.59444 0.0
O250 O 0.09268 0.85888 0.60905 0.0
O251 O 0.13246 0.81268 0.56997 0.0
O252 O 0.13751 0.89067 0.54916 0.0
C253 C 0.13133 0.8688 0.56802 0.0
O254 O 0.10425 1.01989 0.58336 0.0
O255 O 0.12241 0.97681 0.56949 0.0
O256 O 0.07138 0.93576 0.57017 0.0
O257 O 0.08757 0.93447 0.54561 0.0
H258 H 0.07863 0.92928 0.49739 0.0
H259 H 0.04243 0.99318 0.47587 0.0
H260 H 0.05185 0.98304 0.55197 0.0
O261 O 0.15293 0.5079 0.56108 0.0
Tb262 Tb 0.14614 0.4702 0.59497 0.0
Eu263 Eu 0.17554 0.42385 0.58798 0.0
C264 C 0.15486 0.56362 0.55949 0.0
O265 O 0.16214 0.58786 0.57579 0.0
C266 C 0.16621 0.53582 0.62645 0.0
O267 O 0.183 0.34709 0.60857 0.0
C268 C 0.19169 0.43876 0.55189 0.0
C269 C 0.17999 0.33282 0.63103 0.0
O270 O 0.17349 0.36834 0.64451 0.0
C271 C 0.15084 0.34025 0.59274 0.0
C272 C 0.20045 0.41455 0.53243 0.0
C273 C 0.19873 0.42693 0.50725 0.0
C274 C 0.20774 0.41056 0.48928 0.0
C275 C 0.21874 0.38188 0.49727 0.0
C276 C 0.22094 0.36954 0.52219 0.0
C277 C 0.21163 0.38577 0.53933 0.0
O278 O 0.15414 0.52445 0.62337 0.0
O279 O 0.17503 0.50562 0.61428 0.0
O280 O 0.12912 0.44368 0.57627 0.0
O281 O 0.1277 0.50541 0.60431 0.0
C282 C 0.12141 0.47572 0.5883 0.0
O283 O 0.16081 0.35182 0.57902 0.0
O284 O 0.14696 0.38109 0.60727 0.0
O285 O 0.19476 0.43077 0.57484 0.0
O286 O 0.17939 0.44153 0.5488 0.0
H287 H 0.19042 0.45015 0.50168 0.0
H288 H 0.22576 0.36987 0.48399 0.0
H289 H 0.21339 0.37794 0.55845 0.0
O290 O 0.11892 0.47195 0.72658 0.0
Tb291 Tb 0.10573 0.4153 0.7072 0.0
Eu292 Eu 0.09174 0.41821 0.74172 0.0
C293 C 0.11656 0.49784 0.74739 0.0
O294 O 0.10634 0.48555 0.75953 0.0
C295 C 0.09892 0.53254 0.70079 0.0
O296 O 0.09036 0.33225 0.72162 0.0
C297 C 0.07522 0.415 0.77724 0.0
C298 C 0.0805 0.30319 0.71382 0.0
O299 O 0.06915 0.32456 0.71574 0.0
C300 C 0.11571 0.32519 0.73986 0.0
C301 C 0.06537 0.41244 0.7973 0.0
C302 C 0.06826 0.42544 0.82205 0.0
C303 C 0.05925 0.41735 0.84098 0.0
C304 C 0.04722 0.39686 0.83453 0.0
C305 C 0.04387 0.38507 0.81016 0.0
C306 C 0.05309 0.39264 0.79184 0.0
O307 O 0.10758 0.49843 0.69227 0.0
O308 O 0.09178 0.51154 0.71956 0.0
O309 O 0.09967 0.3903 0.67142 0.0
O310 O 0.0858 0.41896 0.69766 0.0
C311 C 0.08766 0.40157 0.67522 0.0
O312 O 0.10847 0.35732 0.75451 0.0
O313 O 0.11575 0.33853 0.71671 0.0
O314 O 0.07242 0.40448 0.75428 0.0
O315 O 0.08699 0.4307 0.78072 0.0
H316 H 0.07759 0.4405 0.82668 0.0
H317 H 0.04031 0.39053 0.84876 0.0
H318 H 0.05066 0.38329 0.77313 0.0
O319 O 0.14014 0.84534 0.76849 0.0
Tb320 Tb 0.15295 0.90114 0.74882 0.0
Eu321 Eu 0.18104 0.94159 0.73872 0.0
C322 C 0.14484 0.80211 0.78083 0.0
O323 O 0.15687 0.80252 0.78617 0.0
C324 C 0.17054 0.81701 0.71976 0.0
O325 O 0.19045 1.01251 0.71727 0.0
C326 C 0.19442 0.92482 0.77847 0.0
C327 C 0.18603 1.02762 0.6958 0.0
O328 O 0.17803 0.99354 0.68482 0.0
C329 C 0.15747 1.02974 0.75276 0.0
C330 C 0.2031 0.95028 0.7976 0.0
C331 C 0.20191 0.93607 0.82278 0.0
C332 C 0.21128 0.95218 0.84004 0.0
C333 C 0.22201 0.98199 0.83152 0.0
C334 C 0.22345 0.99702 0.80671 0.0
C335 C 0.21383 0.98165 0.7902 0.0
O336 O 0.1635 0.82263 0.73947 0.0
O337 O 0.1778 0.86126 0.7137 0.0
O338 O 0.13773 0.91233 0.72316 0.0
O339 O 0.15672 0.9291 0.71207 0.0
C340 C 0.14502 0.92877 0.70541 0.0
O341 O 0.16744 1.01872 0.73907 0.0
O342 O 0.15247 0.98705 0.76533 0.0
O343 O 0.19881 0.92181 0.75609 0.0
O344 O 0.18215 0.93381 0.779 0.0
H345 H 0.19399 0.91048 0.82876 0.0
H346 H 0.22934 0.99317 0.84436 0.0
H347 H 0.21506 0.99163 0.77109 0.0
O348 O 0.91822 0.22914 0.5153 0.0
Tb349 Tb 0.90282 0.20857 0.49099 0.0
Eu350 Eu 0.93105 0.16048 0.48766 0.0
C351 C 0.92259 0.28106 0.51947 0.0
O352 O 0.93286 0.28685 0.53249 0.0
C353 C 0.91996 0.27866 0.45523 0.0
O354 O 0.93839 0.09504 0.4614 0.0
C355 C 0.94734 0.1565 0.52386 0.0
C356 C 0.93196 0.07818 0.44232 0.0
O357 O 0.92212 0.10767 0.43526 0.0
C358 C 0.90543 0.0755 0.48482 0.0
C359 C 0.95709 0.15341 0.54411 0.0
C360 C 0.95384 0.16231 0.569 0.0
C361 C 0.9628 0.15448 0.58795 0.0
C362 C 0.97507 0.13744 0.58165 0.0
C363 C 0.97871 0.12815 0.55723 0.0
C364 C 0.9696 0.13635 0.5387 0.0
O365 O 0.90825 0.26578 0.46127 0.0
O366 O 0.92959 0.24753 0.46443 0.0
O367 O 0.88968 0.20024 0.52131 0.0
O368 O 0.88495 0.2537 0.49198 0.0
C369 C 0.88075 0.23166 0.51226 0.0
O370 O 0.91726 0.08299 0.49208 0.0
O371 O 0.89882 0.12072 0.47841 0.0
O372 O 0.95053 0.15796 0.50072 0.0
O373 O 0.93516 0.16 0.52753 0.0
H374 H 0.94431 0.17405 0.57369 0.0
H375 H 0.98177 0.12996 0.59615 0.0
H376 H 0.97223 0.12897 0.51994 0.0
O377 O 0.88285 0.58579 0.47629 0.0
Tb378 Tb 0.86775 0.64244 0.46513 0.0
Eu379 Eu 0.83763 0.68686 0.48613 0.0
C380 C 0.88171 0.56076 0.49763 0.0
O381 O 0.873 0.57915 0.51261 0.0
C382 C 0.84551 0.56353 0.4626 0.0
O383 O 0.82681 0.75718 0.46775 0.0
C384 C 0.82512 0.67135 0.52733 0.0
C385 C 0.82851 0.77005 0.44475 0.0
O386 O 0.83511 0.73548 0.43102 0.0
C387 C 0.8648 0.77099 0.48369 0.0
C388 C 0.81687 0.69717 0.54723 0.0
C389 C 0.81896 0.68587 0.57245 0.0
C390 C 0.81019 0.70301 0.59084 0.0
C391 C 0.79907 0.7313 0.58307 0.0
C392 C 0.79664 0.74312 0.55818 0.0
C393 C 0.8057 0.72623 0.54075 0.0
O394 O 0.85499 0.57524 0.47702 0.0
O395 O 0.83726 0.60575 0.46028 0.0
O396 O 0.87372 0.62645 0.42791 0.0
O397 O 0.85579 0.66375 0.43417 0.0
C398 C 0.86346 0.64504 0.41766 0.0
O399 O 0.85231 0.76322 0.48588 0.0
O400 O 0.87248 0.72756 0.47944 0.0
O401 O 0.82026 0.66878 0.50537 0.0
O402 O 0.83743 0.67903 0.52669 0.0
H403 H 0.82736 0.66294 0.57766 0.0
H404 H 0.79213 0.74366 0.59645 0.0
H405 H 0.80374 0.73365 0.52167 0.0
O406 O 0.91733 0.61132 0.30621 0.0
Tb407 Tb 0.90089 0.63417 0.32716 0.0
Eu408 Eu 0.9277 0.68828 0.33472 0.0
C409 C 0.92081 0.55816 0.30234 0.0
O410 O 0.93163 0.5482 0.29174 0.0
C411 C 0.91582 0.57207 0.36788 0.0
O412 O 0.93584 0.75769 0.35818 0.0
C413 C 0.94338 0.68046 0.29723 0.0
C414 C 0.93051 0.77295 0.37869 0.0
O415 O 0.92164 0.74072 0.38813 0.0
C416 C 0.90139 0.76576 0.33708 0.0
C417 C 0.95283 0.70412 0.27894 0.0
C418 C 0.95133 0.69332 0.25359 0.0
C419 C 0.96064 0.70963 0.23632 0.0
C420 C 0.97168 0.73668 0.2449 0.0
C421 C 0.97367 0.74749 0.27 0.0
C422 C 0.96408 0.73116 0.28669 0.0
O423 O 0.90452 0.58395 0.35942 0.0
O424 O 0.92581 0.60277 0.35973 0.0
O425 O 0.8866 0.64899 0.29925 0.0
O426 O 0.88476 0.5784 0.32277 0.0
C427 C 0.87916 0.60714 0.30552 0.0
O428 O 0.91334 0.76422 0.32995 0.0
O429 O 0.89588 0.71711 0.34267 0.0
O430 O 0.94665 0.67489 0.3202 0.0
O431 O 0.93132 0.6908 0.29474 0.0
H432 H 0.94306 0.67054 0.24735 0.0
H433 H 0.97884 0.74864 0.23184 0.0
H434 H 0.96556 0.73762 0.30597 0.0
O435 O 0.88269 0.25086 0.36264 0.0
Tb436 Tb 0.8662 0.19667 0.36533 0.0
Eu437 Eu 0.83814 0.15965 0.33934 0.0
C438 C 0.88398 0.27635 0.34145 0.0
O439 O 0.87618 0.26216 0.32391 0.0
C440 C 0.84496 0.2836 0.36877 0.0
O441 O 0.82905 0.08265 0.3565 0.0
C442 C 0.82437 0.17452 0.2998 0.0
C443 C 0.82687 0.07349 0.37969 0.0
O444 O 0.82806 0.11526 0.39543 0.0
C445 C 0.86537 0.08072 0.33738 0.0
C446 C 0.81627 0.15192 0.27895 0.0
C447 C 0.81905 0.16565 0.25419 0.0
C448 C 0.81056 0.15193 0.23499 0.0
C449 C 0.79908 0.12529 0.241 0.0
C450 C 0.79566 0.11295 0.26533 0.0
C451 C 0.80448 0.1252 0.28398 0.0
O452 O 0.85632 0.27702 0.36001 0.0
O453 O 0.83669 0.24083 0.3655 0.0
O454 O 0.86958 0.17683 0.40348 0.0
O455 O 0.85134 0.1645 0.38882 0.0
C456 C 0.85805 0.16127 0.40854 0.0
O457 O 0.85277 0.08301 0.33741 0.0
O458 O 0.87197 0.12733 0.34157 0.0
O459 O 0.81994 0.16898 0.32202 0.0
O460 O 0.83681 0.17427 0.29923 0.0
H461 H 0.8276 0.18892 0.24994 0.0
H462 H 0.79249 0.11612 0.22648 0.0
H463 H 0.8018 0.11704 0.30267 0.0
O464 O 0.63035 0.35688 0.61138 0.0
Tb465 Tb 0.61543 0.41823 0.60624 0.0
Eu466 Eu 0.58811 0.45991 0.58406 0.0
C467 C 0.63215 0.31983 0.59379 0.0
O468 O 0.62792 0.33267 0.57198 0.0
C469 C 0.59419 0.33324 0.61034 0.0
O470 O 0.58369 0.54073 0.60442 0.0
C471 C 0.57251 0.46267 0.54691 0.0
C472 C 0.57852 0.54919 0.62578 0.0
O473 O 0.5745 0.50587 0.63892 0.0
C474 C 0.61656 0.53198 0.57868 0.0
C475 C 0.56274 0.46639 0.52651 0.0
C476 C 0.56563 0.45436 0.50164 0.0
C477 C 0.55656 0.46211 0.48268 0.0
C478 C 0.54442 0.48102 0.4894 0.0
C479 C 0.54111 0.49294 0.51378 0.0
C480 C 0.55041 0.48589 0.53199 0.0
O481 O 0.6045 0.34212 0.59784 0.0
O482 O 0.58603 0.37683 0.60997 0.0
O483 O 0.61815 0.44432 0.64381 0.0
O484 O 0.60032 0.45666 0.62742 0.0
C485 C 0.60679 0.46347 0.6472 0.0
O486 O 0.60395 0.53225 0.57995 0.0
O487 O 0.62257 0.48353 0.58201 0.0
O488 O 0.56933 0.47391 0.56957 0.0
O489 O 0.58434 0.44618 0.54442 0.0
H490 H 0.57501 0.44036 0.497 0.0
H491 H 0.53736 0.48634 0.47539 0.0
H492 H 0.54795 0.49514 0.55069 0.0
O493 O 0.63685 0.9701 0.63398 0.0
Tb494 Tb 0.65482 0.94407 0.61927 0.0
Eu495 Eu 0.68184 0.9184 0.58676 0.0
C496 C 0.62791 0.9842 0.6186 0.0
O497 O 0.62398 0.94491 0.60333 0.0
C498 C 0.67347 1.0433 0.61894 0.0
O499 O 0.6911 0.84843 0.60997 0.0
C500 C 0.69663 0.92856 0.54796 0.0
C501 C 0.69113 0.79483 0.60242 0.0
O502 O 0.68799 0.78429 0.57975 0.0
C503 C 0.65341 0.84582 0.58248 0.0
C504 C 0.70567 0.90211 0.5294 0.0
C505 C 0.70418 0.90841 0.50353 0.0
C506 C 0.71371 0.8899 0.4868 0.0
C507 C 0.72498 0.86746 0.49693 0.0
C508 C 0.72675 0.86002 0.5222 0.0
C509 C 0.71696 0.87684 0.53799 0.0
O510 O 0.66161 1.03035 0.61612 0.0
O511 O 0.6823 1.00607 0.61081 0.0
O512 O 0.65851 0.9015 0.65392 0.0
O513 O 0.67121 0.89115 0.62531 0.0
C514 C 0.66885 0.87565 0.64742 0.0
O515 O 0.66604 0.84604 0.58129 0.0
O516 O 0.6475 0.89196 0.58998 0.0
O517 O 0.70032 0.92958 0.57076 0.0
O518 O 0.6843 0.92443 0.54627 0.0
H519 H 0.69567 0.9276 0.4965 0.0
H520 H 0.73254 0.85491 0.48493 0.0
H521 H 0.71843 0.87237 0.55739 0.0
O522 O 0.6272 1.02085 0.73528 0.0
Tb523 Tb 0.61538 0.95448 0.71933 0.0
Eu524 Eu 0.58502 0.92858 0.73646 0.0
C525 C 0.6216 0.06376 0.7463 0.0
O526 O 0.60937 0.06101 0.74944 0.0
C527 C 0.59402 1.04081 0.69899 0.0
O528 O 0.574 0.86425 0.71485 0.0
C529 C 0.57229 0.94019 0.77753 0.0
C530 C 0.57774 0.85135 0.6928 0.0
O531 O 0.58625 0.88405 0.68238 0.0
C532 C 0.60949 0.83982 0.7428 0.0
C533 C 0.56367 0.91193 0.79625 0.0
C534 C 0.5656 0.91741 0.82195 0.0
C535 C 0.5565 0.89694 0.8391 0.0
C536 C 0.5452 0.87323 0.82971 0.0
C537 C 0.54302 0.8668 0.80456 0.0
C538 C 0.55241 0.88555 0.78821 0.0
O539 O 0.60571 1.02209 0.69858 0.0
O540 O 0.58524 1.01327 0.71224 0.0
O541 O 0.63128 0.92361 0.69923 0.0
O542 O 0.61316 0.88705 0.69228 0.0
C543 C 0.62513 0.88343 0.68774 0.0
O544 O 0.59769 0.84646 0.73529 0.0
O545 O 0.61587 0.88707 0.74729 0.0
O546 O 0.56767 0.94681 0.75551 0.0
O547 O 0.58453 0.93075 0.7771 0.0
H548 H 0.57412 0.9375 0.82851 0.0
H549 H 0.53796 0.85897 0.84219 0.0
H550 H 0.55064 0.88163 0.76888 0.0
O551 O 0.66319 0.38478 0.7656 0.0
Tb552 Tb 0.64947 0.40746 0.73795 0.0
Eu553 Eu 0.67824 0.45549 0.73707 0.0
C554 C 0.66633 0.3323 0.7722 0.0
O555 O 0.67577 0.32564 0.78732 0.0
C556 C 0.66775 0.33878 0.70391 0.0
O557 O 0.68516 0.51752 0.70798 0.0
C558 C 0.69449 0.44829 0.77366 0.0
C559 C 0.67906 0.52016 0.68713 0.0
O560 O 0.66977 0.48402 0.68356 0.0
C561 C 0.65255 0.54131 0.73643 0.0
C562 C 0.70381 0.46822 0.79306 0.0
C563 C 0.70225 0.45503 0.81838 0.0
C564 C 0.71196 0.46635 0.83576 0.0
C565 C 0.72337 0.49023 0.82716 0.0
C566 C 0.72532 0.50307 0.80226 0.0
C567 C 0.71536 0.49292 0.78572 0.0
O568 O 0.65609 0.35688 0.70709 0.0
O569 O 0.6772 0.36639 0.7153 0.0
O570 O 0.63307 0.41177 0.76194 0.0
O571 O 0.63297 0.35332 0.73304 0.0
C572 C 0.62628 0.37369 0.7508 0.0
O573 O 0.66432 0.53216 0.74408 0.0
O574 O 0.64607 0.49763 0.72776 0.0
O575 O 0.69755 0.45247 0.7505 0.0
O576 O 0.68226 0.44904 0.77695 0.0
H577 H 0.69375 0.43372 0.82437 0.0
H578 H 0.73103 0.4962 0.83991 0.0
H579 H 0.71677 0.50281 0.76666 0.0
O580 O 0.41313 0.7368 0.5154 0.0
Tb581 Tb 0.39855 0.71912 0.48876 0.0
Eu582 Eu 0.42619 0.65922 0.48935 0.0
C583 C 0.41817 0.78773 0.51909 0.0
O584 O 0.42801 0.79199 0.53341 0.0
C585 C 0.4179 0.78016 0.45433 0.0
O586 O 0.43312 0.58653 0.46587 0.0
C587 C 0.44245 0.65667 0.52586 0.0
C588 C 0.42798 0.56951 0.44535 0.0
O589 O 0.41914 0.60033 0.43508 0.0
C590 C 0.39903 0.58465 0.48709 0.0
C591 C 0.45242 0.65353 0.54595 0.0
C592 C 0.4497 0.66549 0.57093 0.0
C593 C 0.45897 0.65887 0.58967 0.0
C594 C 0.4711 0.64074 0.58251 0.0
C595 C 0.47423 0.62855 0.55805 0.0
C596 C 0.46475 0.63482 0.5401 0.0
O597 O 0.40588 0.77145 0.45908 0.0
O598 O 0.42668 0.74536 0.46454 0.0
O599 O 0.38257 0.71971 0.5139 0.0
O600 O 0.38229 0.7742 0.48342 0.0
C601 C 0.3758 0.75683 0.5021 0.0
O602 O 0.41067 0.58819 0.49605 0.0
O603 O 0.3941 0.63112 0.4773 0.0
O604 O 0.44548 0.65111 0.50279 0.0
O605 O 0.4304 0.66655 0.52927 0.0
H606 H 0.4403 0.67883 0.57582 0.0
H607 H 0.47833 0.63625 0.59623 0.0
H608 H 0.46706 0.62545 0.52134 0.0
O609 O 0.3784 0.09558 0.4703 0.0
Tb610 Tb 0.36237 0.15262 0.4693 0.0
Eu611 Eu 0.33446 0.1921 0.48657 0.0
C612 C 0.38024 0.07196 0.49173 0.0
O613 O 0.3738 0.09207 0.51021 0.0
C614 C 0.34197 0.0661 0.46078 0.0
O615 O 0.32564 0.26851 0.46816 0.0
C616 C 0.31997 0.17663 0.52525 0.0
C617 C 0.3233 0.27416 0.44481 0.0
O618 O 0.32471 0.2303 0.43021 0.0
C619 C 0.36196 0.26899 0.49508 0.0
C620 C 0.31141 0.20158 0.54492 0.0
C621 C 0.31306 0.18865 0.57016 0.0
C622 C 0.30389 0.20424 0.58791 0.0
C623 C 0.29287 0.23244 0.57987 0.0
C624 C 0.29084 0.24614 0.55505 0.0
C625 C 0.30028 0.23087 0.53803 0.0
O626 O 0.35167 0.07474 0.47492 0.0
O627 O 0.33402 0.11045 0.4594 0.0
O628 O 0.3652 0.17988 0.43171 0.0
O629 O 0.34841 0.20246 0.44973 0.0
C630 C 0.35457 0.20757 0.4295 0.0
O631 O 0.34948 0.26824 0.49108 0.0
O632 O 0.36815 0.22014 0.49415 0.0
O633 O 0.31602 0.17984 0.50262 0.0
O634 O 0.33237 0.17858 0.52667 0.0
H635 H 0.32119 0.16429 0.57584 0.0
H636 H 0.28576 0.24341 0.59316 0.0
H637 H 0.29863 0.23946 0.51894 0.0
O638 O 0.39051 0.12846 0.3729 0.0
Tb639 Tb 0.40408 0.19755 0.37399 0.0
Eu640 Eu 0.42865 0.18805 0.33295 0.0
C641 C 0.3916 0.09274 0.35459 0.0
O642 O 0.39869 0.10814 0.33611 0.0
C643 C 0.42169 0.09175 0.37747 0.0
O644 O 0.43765 0.26032 0.35426 0.0
C645 C 0.44345 0.17242 0.2949 0.0
C646 C 0.43681 0.26949 0.37781 0.0
O647 O 0.43322 0.22796 0.39232 0.0
C648 C 0.40338 0.2761 0.32904 0.0
C649 C 0.4527 0.19876 0.27677 0.0
C650 C 0.45119 0.1935 0.25095 0.0
C651 C 0.46074 0.21242 0.23439 0.0
C652 C 0.47203 0.23438 0.24456 0.0
C653 C 0.47384 0.24063 0.26985 0.0
C654 C 0.46401 0.22341 0.28556 0.0
O655 O 0.41775 0.1372 0.3893 0.0
O656 O 0.42469 0.09922 0.35389 0.0
O657 O 0.3953 0.24025 0.4045 0.0
O658 O 0.40913 0.28449 0.38436 0.0
C659 C 0.40092 0.28982 0.40175 0.0
O660 O 0.4157 0.26816 0.32597 0.0
O661 O 0.39696 0.23552 0.34012 0.0
O662 O 0.44704 0.16933 0.31781 0.0
O663 O 0.43122 0.18032 0.29286 0.0
H664 H 0.44264 0.17473 0.24382 0.0
H665 H 0.47974 0.24531 0.23256 0.0
H666 H 0.46528 0.2284 0.30498 0.0
O667 O 0.37706 0.73603 0.37534 0.0
Tb668 Tb 0.361 0.68113 0.36907 0.0
Eu669 Eu 0.33463 0.66031 0.33488 0.0
C670 C 0.38335 0.75456 0.35632 0.0
O671 O 0.38203 0.72725 0.33561 0.0
C672 C 0.3418 0.77934 0.36855 0.0
O673 O 0.32761 0.5797 0.35304 0.0
C674 C 0.31976 0.67481 0.29677 0.0
C675 C 0.32235 0.57293 0.37448 0.0
O676 O 0.31967 0.61752 0.38797 0.0
C677 C 0.36138 0.57443 0.33397 0.0
C678 C 0.31157 0.65289 0.27584 0.0
C679 C 0.31411 0.66731 0.251 0.0
C680 C 0.30552 0.65296 0.23196 0.0
C681 C 0.29425 0.62468 0.23826 0.0
C682 C 0.29122 0.61071 0.26261 0.0
C683 C 0.30001 0.62467 0.28106 0.0
O684 O 0.35358 0.76719 0.36371 0.0
O685 O 0.333 0.74155 0.36136 0.0
O686 O 0.36201 0.64892 0.40609 0.0
O687 O 0.34415 0.65754 0.38924 0.0
C688 C 0.34991 0.64249 0.40913 0.0
O689 O 0.34929 0.58519 0.32842 0.0
O690 O 0.36812 0.61232 0.34604 0.0
O691 O 0.31592 0.66486 0.31916 0.0
O692 O 0.33214 0.67884 0.29528 0.0
H693 H 0.32251 0.69138 0.24657 0.0
H694 H 0.28748 0.61587 0.224 0.0
H695 H 0.29769 0.61428 0.29974 0.0
O696 O 0.63383 0.85157 0.10065 0.0
Tb697 Tb 0.61849 0.91075 0.10768 0.0
Eu698 Eu 0.58921 0.94992 0.08802 0.0
C699 C 0.63359 0.82661 0.07921 0.0
O700 O 0.62562 0.84596 0.06288 0.0
C701 C 0.59711 0.82481 0.11214 0.0
O702 O 0.58182 1.00556 0.11792 0.0
C703 C 0.57416 0.95614 0.04997 0.0
C704 C 0.57797 0.05782 0.11333 0.0
O705 O 0.57691 0.0748 0.09061 0.0
C706 C 0.61606 1.03491 0.08664 0.0
C707 C 0.56478 0.96181 1.02901 0.0
C708 C 0.568 0.95034 1.00423 0.0
C709 C 0.5592 0.95945 0.98497 0.0
C710 C 0.54722 0.98083 0.99089 0.0
C711 C 0.54376 0.99436 1.01503 0.0
C712 C 0.55258 0.98378 1.03383 0.0
O713 O 0.60712 0.83598 0.09899 0.0
O714 O 0.58822 0.86475 0.11168 0.0
O715 O 0.62279 0.91651 0.14621 0.0
O716 O 0.60446 0.94017 0.13361 0.0
C717 C 0.61171 0.93539 0.15252 0.0
O718 O 0.60354 1.02759 0.08681 0.0
O719 O 0.62363 0.99053 0.08916 0.0
O720 O 0.57062 0.96497 0.07257 0.0
O721 O 0.58602 0.93998 0.04798 0.0
H722 H 0.57733 0.93512 0.99988 0.0
H723 H 0.54055 0.98779 0.97628 0.0
H724 H 0.55008 0.9949 0.05232 0.0
O725 O 0.67107 0.49745 0.0584 0.0
Tb726 Tb 0.65527 0.47298 0.08117 0.0
Eu727 Eu 0.68312 0.4212 0.08601 0.0
C728 C 0.67536 0.5501 0.0554 0.0
O729 O 0.68587 0.55765 0.04328 0.0
C730 C 0.67211 0.53883 0.1185 0.0
O731 O 0.69061 0.36193 0.1154 0.0
C732 C 0.69887 0.4161 0.04874 0.0
C733 C 0.68292 0.3393 0.13161 0.0
O734 O 0.67119 0.35636 0.13232 0.0
C735 C 0.65707 0.33832 0.08644 0.0
C736 C 0.70838 0.41204 1.02791 0.0
C737 C 0.70519 0.42424 1.00311 0.0
C738 C 0.71396 0.41597 0.98362 0.0
C739 C 0.72607 0.39548 0.98984 0.0
C740 C 0.72962 0.38305 1.01414 0.0
C741 C 0.72065 0.3915 1.03282 0.0
O742 O 0.6604 0.52524 0.11265 0.0
O743 O 0.68174 0.50913 0.10857 0.0
O744 O 0.6423 0.46868 0.05036 0.0
O745 O 0.63801 0.52238 0.07986 0.0
C746 C 0.63381 0.5027 0.05918 0.0
O747 O 0.66922 0.34441 0.08127 0.0
O748 O 0.65038 0.38417 0.09164 0.0
O749 O 0.70236 0.41516 0.07174 0.0
O750 O 0.6867 0.42242 0.04585 0.0
H751 H 0.6958 0.43911 0.99895 0.0
H752 H 0.73291 0.3893 0.97553 0.0
H753 H 0.72326 0.38201 0.05144 0.0
O754 O 0.63257 0.5216 0.21991 0.0
Tb755 Tb 0.61742 0.46355 0.2099 0.0
Eu756 Eu 0.58905 0.4222 0.23539 0.0
C757 C 0.632 0.54219 0.24215 0.0
O758 O 0.6238 0.51946 0.25726 0.0
C759 C 0.59561 0.54925 0.20904 0.0
O760 O 0.58051 0.36628 0.20614 0.0
C761 C 0.57343 0.41752 0.27256 0.0
C762 C 0.58758 0.33386 0.19226 0.0
O763 O 0.59984 0.33646 0.194 0.0
C764 C 0.61611 0.33995 0.23566 0.0
C765 C 0.56348 0.4121 0.29247 0.0
C766 C 0.56557 0.42557 0.31751 0.0
C767 C 0.55589 0.4177 0.3353 0.0
C768 C 0.5441 0.39621 0.32753 0.0
C769 C 0.54169 0.38301 0.30291 0.0
C770 C 0.55148 0.39084 0.28587 0.0
O771 O 0.60686 0.54115 0.21819 0.0
O772 O 0.58716 0.50745 0.21219 0.0
O773 O 0.62239 0.46205 0.17153 0.0
O774 O 0.60334 0.44701 0.18209 0.0
C775 C 0.61101 0.45111 0.16377 0.0
O776 O 0.60396 0.34895 0.24099 0.0
O777 O 0.62311 0.3808 0.22583 0.0
O778 O 0.57091 0.39967 0.25045 0.0
O779 O 0.58467 0.44113 0.27462 0.0
H780 H 0.57459 0.44267 0.32309 0.0
H781 H 0.53658 0.39165 0.34071 0.0
H782 H 0.54968 0.37982 0.26705 0.0
O783 O 0.66749 0.87455 0.26904 0.0
Tb784 Tb 0.65238 0.89787 0.24443 0.0
Eu785 Eu 0.68057 0.94453 0.23887 0.0
C786 C 0.67183 0.82222 0.27224 0.0
O787 O 0.68191 0.81495 0.28567 0.0
C788 C 0.66855 0.8328 0.20591 0.0
O789 O 0.68529 1.00352 0.20741 0.0
C790 C 0.69705 0.95108 0.27487 0.0
C791 C 0.69044 1.0543 0.21068 0.0
O792 O 0.69507 0.06742 0.2321 0.0
C793 C 0.65513 1.03217 0.2386 0.0
C794 C 0.70668 0.95502 0.29555 0.0
C795 C 0.7034 0.94622 0.3206 0.0
C796 C 0.71251 0.95122 0.33964 0.0
C797 C 0.72491 0.96641 0.33313 0.0
C798 C 0.7285 0.97709 0.30871 0.0
C799 C 0.71928 0.97076 0.29022 0.0
O800 O 0.65742 0.85516 0.21055 0.0
O801 O 0.67866 0.8551 0.21738 0.0
O802 O 0.63655 0.89903 0.26987 0.0
O803 O 0.63684 0.83752 0.24222 0.0
C804 C 0.63018 0.85745 0.26012 0.0
O805 O 0.66737 1.02417 0.24251 0.0
O806 O 0.64773 0.98742 0.23551 0.0
O807 O 0.70021 0.95102 0.25164 0.0
O808 O 0.68489 0.94587 0.27849 0.0
H809 H 0.6938 0.93528 0.32529 0.0
H810 H 0.73177 0.97188 0.34753 0.0
H811 H 0.72195 0.97822 0.27146 0.0
O812 O 0.41837 0.23364 1.01388 0.0
Tb813 Tb 0.40196 0.2142 0.99207 0.0
Eu814 Eu 0.42866 0.15584 0.98686 0.0
C815 C 0.42192 0.28612 1.01923 0.0
O816 O 0.43275 0.29443 1.0301 0.0
C817 C 0.41882 0.27914 0.9553 0.0
O818 O 0.43451 0.08709 0.96025 0.0
C819 C 0.44468 0.14901 1.02357 0.0
C820 C 0.42957 0.0822 0.93839 0.0
O821 O 0.42211 0.12257 0.93021 0.0
C822 C 0.40197 0.08309 0.9831 0.0
C823 C 0.45421 0.14441 0.04426 0.0
C824 C 0.45093 0.15538 0.06905 0.0
C825 C 0.45978 0.14788 0.0883 0.0
C826 C 0.47189 0.12792 0.08236 0.0
C827 C 0.47538 0.11438 0.05821 0.0
C828 C 0.46652 0.12404 0.03937 0.0
O829 O 0.40712 0.27079 0.96246 0.0
O830 O 0.42807 0.24397 0.96352 0.0
O831 O 0.3893 0.20049 1.02274 0.0
O832 O 0.38463 0.26228 0.9963 0.0
C833 C 0.38057 0.23589 1.01577 0.0
O834 O 0.41353 0.084 0.99215 0.0
O835 O 0.39713 0.13173 0.97564 0.0
O836 O 0.44804 0.14903 1.00049 0.0
O837 O 0.43252 0.15461 1.02683 0.0
H838 H 0.44151 0.16949 0.0734 0.0
H839 H 0.4786 0.12185 0.09696 0.0
H840 H 0.46902 0.11312 1.02086 0.0
O841 O 0.3841 0.5953 0.96231 0.0
Tb842 Tb 0.36753 0.6487 0.95981 0.0
Eu843 Eu 0.3391 0.68698 0.98393 0.0
C844 C 0.38618 0.57258 0.98383 0.0
O845 O 0.37904 0.58841 1.0021 0.0
C846 C 0.34705 0.56049 0.96129 0.0
O847 O 0.33212 0.74338 0.95375 0.0
C848 C 0.32347 0.6935 1.02099 0.0
C849 C 0.32833 0.79567 0.95839 0.0
O850 O 0.32731 0.8122 0.98113 0.0
C851 C 0.36627 0.76855 0.98512 0.0
C852 C 0.31363 0.69986 0.04104 0.0
C853 C 0.31604 0.68864 0.06616 0.0
C854 C 0.30672 0.69876 0.08449 0.0
C855 C 0.29485 0.7199 0.07688 0.0
C856 C 0.29206 0.73029 0.05207 0.0
C857 C 0.30159 0.72059 1.03466 0.0
O858 O 0.35736 0.57444 0.97288 0.0
O859 O 0.33801 0.59976 0.96168 0.0
O860 O 0.3701 0.65687 0.92068 0.0
O861 O 0.35215 0.67428 0.93587 0.0
C862 C 0.35857 0.67211 0.9158 0.0
O863 O 0.3537 0.76394 0.98631 0.0
O864 O 0.37329 0.72401 0.97987 0.0
O865 O 0.32036 0.70212 0.99812 0.0
O866 O 0.3353 0.67776 1.02393 0.0
H867 H 0.32521 0.67306 0.07148 0.0
H868 H 0.28752 0.72613 0.09029 0.0
H869 H 0.29963 0.73024 1.01576 0.0
O870 O 0.41611 0.61524 0.80784 0.0
Tb871 Tb 0.40011 0.63978 0.82968 0.0
Eu872 Eu 0.42749 0.6912 0.83652 0.0
C873 C 0.41954 0.56184 0.80441 0.0
O874 O 0.43023 0.5512 0.79341 0.0
C875 C 0.41538 0.57384 0.86894 0.0
O876 O 0.43475 0.76044 0.8616 0.0
C877 C 0.4431 0.68277 0.79895 0.0
C878 C 0.43055 0.76563 0.88401 0.0
O879 O 0.42339 0.72513 0.89318 0.0
C880 C 0.40182 0.77064 0.83899 0.0
C881 C 0.45234 0.70554 0.78008 0.0
C882 C 0.45076 0.69329 0.75479 0.0
C883 C 0.46014 0.70794 0.73731 0.0
C884 C 0.47121 0.73522 0.74568 0.0
C885 C 0.47312 0.74824 0.77058 0.0
C886 C 0.46355 0.73315 0.78743 0.0
O887 O 0.40405 0.58571 0.86062 0.0
O888 O 0.42537 0.60501 0.86105 0.0
O889 O 0.38668 0.65812 0.80066 0.0
O890 O 0.38253 0.59307 0.82595 0.0
C891 C 0.37801 0.62227 0.80766 0.0
O892 O 0.41349 0.76739 0.83059 0.0
O893 O 0.39636 0.72302 0.84613 0.0
O894 O 0.4465 0.67955 0.82197 0.0
O895 O 0.43099 0.69161 0.79652 0.0
H896 H 0.44249 0.67012 0.74886 0.0
H897 H 0.47843 0.74602 0.73255 0.0
H898 H 0.46506 0.74096 0.80662 0.0
O899 O 0.38266 0.25539 0.86721 0.0
Tb900 Tb 0.36623 0.20064 0.86893 0.0
Eu901 Eu 0.33929 0.16271 0.8364 0.0
C902 C 0.38516 0.27602 0.84549 0.0
O903 O 0.37853 0.25735 0.82696 0.0
C904 C 0.34553 0.28856 0.86383 0.0
O905 O 0.33075 0.10559 0.86542 0.0
C906 C 0.3238 0.15804 0.79898 0.0
C907 C 0.33775 0.07138 0.87872 0.0
O908 O 0.34999 0.07287 0.87673 0.0
C909 C 0.36695 0.08566 0.83731 0.0
C910 C 0.31386 0.15227 0.77904 0.0
C911 C 0.31583 0.1658 0.75393 0.0
C912 C 0.30627 0.15575 0.73589 0.0
C913 C 0.29466 0.13208 0.74396 0.0
C914 C 0.29251 0.11768 0.76863 0.0
C915 C 0.3021 0.12886 0.78567 0.0
O916 O 0.35707 0.27849 0.85684 0.0
O917 O 0.33691 0.24834 0.85909 0.0
O918 O 0.36847 0.18782 0.9079 0.0
O919 O 0.35013 0.18422 0.89251 0.0
C920 C 0.35654 0.18026 0.91254 0.0
O921 O 0.35495 0.09256 0.83037 0.0
O922 O 0.37299 0.12475 0.85004 0.0
O923 O 0.32143 0.13815 0.82086 0.0
O924 O 0.33488 0.1833 0.79721 0.0
H925 H 0.32487 0.18273 0.74843 0.0
H926 H 0.2872 0.12429 0.731 0.0
H927 H 0.30033 0.1188 0.80461 0.0
H928 H 0.05417 0.35287 0.88211 0.0
H929 H 0.07004 0.51464 0.86019 0.0
H930 H 0.07178 0.54322 0.903 0.0
H931 H 0.06731 0.5251 0.94721 0.0
H932 H 0.05231 0.36143 0.96871 0.0
H933 H 0.05171 0.33116 0.92607 0.0
C934 C 0.05813 0.39425 0.88663 0.0
C935 C 0.0619 0.43153 0.86752 0.0
C936 C 0.0592 0.41033 0.91151 0.0
C937 C 0.06712 0.48468 0.87416 0.0
C938 C 0.06804 0.50127 0.89879 0.0
C939 C 0.06416 0.48238 0.94258 0.0
C940 C 0.05999 0.44536 0.96144 0.0
C941 C 0.06393 0.46489 0.91771 0.0
C942 C 0.05576 0.39051 0.95484 0.0
C943 C 0.05533 0.37331 0.93033 0.0
H944 H 0.21947 0.84782 0.94675 0.0
H945 H 0.19665 0.99275 0.96659 0.0
H946 H 0.19432 1.018 0.92378 0.0
H947 H 0.19946 1.00243 0.87982 0.0
H948 H 0.22283 0.85986 0.86028 0.0
H949 H 0.22431 0.83142 0.90315 0.0
C950 C 0.21402 0.88523 0.94195 0.0
C951 C 0.20824 0.91778 0.96072 0.0
C952 C 0.2128 0.90041 0.91686 0.0
C953 C 0.20109 0.96556 0.95323 0.0
C954 C 0.19981 0.98061 0.92846 0.0
C955 C 0.20472 0.96466 0.88491 0.0
C956 C 0.21087 0.93289 0.86647 0.0
C957 C 0.20567 0.94869 0.90999 0.0
C958 C 0.21785 0.88474 0.87378 0.0
C959 C 0.21875 0.86858 0.89845 0.0
H960 H 0.0545 0.87003 0.45445 0.0
H961 H 0.07246 1.03483 0.45171 0.0
H962 H 0.07369 1.02892 0.40711 0.0
H963 H 0.06823 0.97921 0.368 0.0
H964 H 0.05083 0.81251 0.37196 0.0
H965 H 0.05086 0.817 0.4161 0.0
C966 C 0.05895 0.90408 0.44414 0.0
C967 C 0.06359 0.95243 0.45671 0.0
C968 C 0.05956 0.90047 0.4183 0.0
C969 C 0.06904 0.99663 0.44276 0.0
C970 C 0.06964 0.99339 0.41711 0.0
C971 C 0.06461 0.94344 0.37845 0.0
C972 C 0.05924 0.89606 0.36598 0.0
C973 C 0.06475 0.94585 0.40449 0.0
C974 C 0.05468 0.85045 0.38044 0.0
C975 C 0.05476 0.8527 0.40597 0.0
H976 H 0.2127 0.34555 0.44791 0.0
H977 H 0.1993 0.51179 0.46929 0.0
H978 H 0.19793 0.54046 0.42653 0.0
H979 H 0.2015 0.52055 0.38229 0.0
H980 H 0.2141 0.35331 0.36098 0.0
H981 H 0.21483 0.32346 0.40377 0.0
C982 C 0.20944 0.3881 0.44332 0.0
C983 C 0.20615 0.42624 0.46239 0.0
C984 C 0.20853 0.40443 0.41832 0.0
C985 C 0.20181 0.48091 0.45549 0.0
C986 C 0.20109 0.49761 0.43083 0.0
C987 C 0.20419 0.47724 0.38699 0.0
C988 C 0.20758 0.43904 0.36808 0.0
C989 C 0.20451 0.46003 0.41197 0.0
C990 C 0.21123 0.38342 0.37484 0.0
C991 C 0.21174 0.36641 0.39947 0.0
H992 H 0.96529 0.60298 0.12966 0.0
H993 H 0.95065 0.76773 0.10885 0.0
H994 H 0.94894 0.79434 0.15181 0.0
H995 H 0.95275 0.7732 0.19609 0.0
H996 H 0.96707 0.60775 0.2163 0.0
H997 H 0.96787 0.57985 0.17338 0.0
C998 C 0.9617 0.64483 0.13436 0.0
C999 C 0.95818 0.68318 0.11542 0.0
C1000 C 0.96075 0.66011 0.15939 0.0
C1001 C 0.95335 0.73672 0.12253 0.0
C1002 C 0.95246 0.75227 0.14731 0.0
C1003 C 0.95589 0.73078 0.1911 0.0
C1004 C 0.95977 0.69248 0.20973 0.0
C1005 C 0.95627 0.71469 0.16601 0.0
C1006 C 0.96391 0.63794 0.20263 0.0
C1007 C 0.96442 0.62202 0.17795 0.0
H1008 H 0.81949 0.09294 0.19458 0.0
H1009 H 0.80467 0.25605 0.21635 0.0
H1010 H 0.80375 0.28666 0.17372 0.0
H1011 H 0.80591 0.26553 0.12969 0.0
H1012 H 0.82149 0.10404 0.10746 0.0
H1013 H 0.82355 0.07521 0.15021 0.0
C1014 C 0.81635 0.13568 0.19002 0.0
C1015 C 0.81235 0.17246 0.209 0.0
C1016 C 0.81589 0.15332 0.16511 0.0
C1017 C 0.80804 0.22721 0.20243 0.0
C1018 C 0.80742 0.24459 0.17791 0.0
C1019 C 0.80986 0.22409 0.1341 0.0
C1020 C 0.81346 0.18706 0.11488 0.0
C1021 C 0.81113 0.20782 0.15899 0.0
C1022 C 0.81868 0.13388 0.12146 0.0
C1023 C 0.8198 0.11713 0.14609 0.0
H1024 H 0.95652 0.12765 0.70325 0.0
H1025 H 0.96282 0.3095 0.69984 0.0
H1026 H 0.96257 0.30632 0.65543 0.0
H1027 H 0.9625 0.25094 0.61687 0.0
H1028 H 0.95669 0.06897 0.61974 0.0
H1029 H 0.95472 0.07306 0.6642 0.0
C1030 C 0.95751 0.16677 0.6928 0.0
C1031 C 0.95959 0.21897 0.70527 0.0
C1032 C 0.95757 0.16454 0.6668 0.0
C1033 C 0.96112 0.2688 0.69105 0.0
C1034 C 0.96105 0.26698 0.66548 0.0
C1035 C 0.9605 0.21239 0.62718 0.0
C1036 C 0.95954 0.15974 0.61469 0.0
C1037 C 0.95956 0.21501 0.65303 0.0
C1038 C 0.95728 0.11016 0.62864 0.0
C1039 C 0.95623 0.11249 0.65421 0.0
H1040 H 0.81935 0.60231 0.6992 0.0
H1041 H 0.80174 0.76118 0.7187 0.0
H1042 H 0.80059 0.78866 0.67573 0.0
H1043 H 0.80371 0.76666 0.632 0.0
H1044 H 0.82111 0.60724 0.61197 0.0
H1045 H 0.82336 0.5821 0.65496 0.0
C1046 C 0.81552 0.6435 0.69409 0.0
C1047 C 0.81087 0.68009 0.71264 0.0
C1048 C 0.81475 0.65907 0.66888 0.0
C1049 C 0.80562 0.73254 0.70521 0.0
C1050 C 0.80488 0.74815 0.68045 0.0
C1051 C 0.80798 0.7262 0.63683 0.0
C1052 C 0.81218 0.68919 0.61797 0.0
C1053 C 0.80924 0.71157 0.66199 0.0
C1054 C 0.81788 0.6375 0.62543 0.0
C1055 C 0.81911 0.62271 0.6503 0.0
H1056 H 0.56817 0.36634 0.37487 0.0
H1057 H 0.54554 0.51189 0.35547 0.0
H1058 H 0.54427 0.53988 0.39823 0.0
H1059 H 0.54853 0.5212 0.44163 0.0
H1060 H 0.57076 0.37501 0.46219 0.0
H1061 H 0.57343 0.35035 0.41914 0.0
C1062 C 0.56318 0.40483 0.37997 0.0
C1063 C 0.5571 0.43741 0.36155 0.0
C1064 C 0.56233 0.42058 0.4051 0.0
C1065 C 0.55046 0.48638 0.3689 0.0
C1066 C 0.54966 0.50227 0.39352 0.0
C1067 C 0.55396 0.48371 0.4369 0.0
C1068 C 0.55931 0.44993 0.45579 0.0
C1069 C 0.55538 0.46934 0.41188 0.0
C1070 C 0.56654 0.40242 0.44856 0.0
C1071 C 0.56801 0.38795 0.42373 0.0
H1072 H 0.7022 0.9712 0.45505 0.0
H1073 H 0.72205 0.81041 0.45396 0.0
H1074 H 0.72331 0.81452 0.41001 0.0
H1075 H 0.72006 0.86524 0.37088 0.0
H1076 H 0.69875 1.02115 0.37002 0.0
H1077 H 0.69668 1.01684 0.41459 0.0
C1078 C 0.70667 0.93658 0.4453 0.0
C1079 C 0.71243 0.89147 0.4588 0.0
C1080 C 0.70713 0.93816 0.4191 0.0
C1081 C 0.71797 0.84718 0.44497 0.0
C1082 C 0.71862 0.84906 0.41943 0.0
C1083 C 0.71473 0.89779 0.38034 0.0
C1084 C 0.70946 0.94323 0.36663 0.0
C1085 C 0.71346 0.89469 0.40619 0.0
C1086 C 0.70276 0.98513 0.37967 0.0
C1087 C 0.70166 0.98284 0.40539 0.0
H1088 H 0.55288 0.8693 0.9551 0.0
H1089 H 0.57145 1.03279 0.95391 0.0
H1090 H 0.57293 1.02847 0.90932 0.0
H1091 H 0.56744 0.98084 0.86963 0.0
H1092 H 0.54982 0.81446 0.8722 0.0
H1093 H 0.54955 0.81751 0.91631 0.0
C1094 C 0.55755 0.90336 0.94515 0.0
C1095 C 0.56226 0.95089 0.95821 0.0
C1096 C 0.55835 0.90057 0.91928 0.0
C1097 C 0.56798 0.9951 0.94465 0.0
C1098 C 0.56872 0.99282 0.91897 0.0
C1099 C 0.56371 0.9448 0.87976 0.0
C1100 C 0.55831 0.89812 0.86682 0.0
C1101 C 0.56374 0.94615 0.90587 0.0
C1102 C 0.55365 0.85208 0.88096 0.0
C1103 C 0.55356 0.85345 0.90651 0.0
H1104 H 0.7004 0.51568 0.87669 0.0
H1105 H 0.72311 0.37244 0.85506 0.0
H1106 H 0.72529 0.3431 0.89761 0.0
H1107 H 0.72169 0.35953 0.94147 0.0
H1108 H 0.69931 0.50328 0.96412 0.0
H1109 H 0.69591 0.52956 0.92141 0.0
C1110 C 0.70562 0.47742 0.88124 0.0
C1111 C 0.71143 0.44591 0.86218 0.0
C1112 C 0.70698 0.46077 0.90628 0.0
C1113 C 0.71837 0.3972 0.86892 0.0
C1114 C 0.71969 0.38051 0.89345 0.0
C1115 C 0.71608 0.3969 0.93732 0.0
C1116 C 0.7109 0.42936 0.95679 0.0
C1117 C 0.71421 0.41226 0.9124 0.0
C1118 C 0.70342 0.47672 0.95015 0.0
C1119 C 0.70153 0.49217 0.92546 0.0
H1120 H 0.46857 0.60488 0.63096 0.0
H1121 H 0.44364 0.74189 0.61047 0.0
H1122 H 0.44105 0.76708 0.65344 0.0
H1123 H 0.44692 0.75425 0.69765 0.0
H1124 H 0.47252 0.61918 0.71686 0.0
H1125 H 0.47389 0.59046 0.67418 0.0
C1126 C 0.46261 0.6407 0.63561 0.0
C1127 C 0.45644 0.67152 0.61669 0.0
C1128 C 0.46131 0.65574 0.6606 0.0
C1129 C 0.4485 0.71661 0.62402 0.0
C1130 C 0.44709 0.73149 0.64884 0.0
C1131 C 0.45265 0.718 0.69253 0.0
C1132 C 0.45951 0.68854 0.71089 0.0
C1133 C 0.45355 0.70189 0.66742 0.0
C1134 C 0.46704 0.64236 0.70349 0.0
C1135 C 0.46787 0.626 0.67892 0.0
H1136 H 0.2966 0.10028 0.69487 0.0
H1137 H 0.32024 0.24317 0.7144 0.0
H1138 H 0.32232 0.26873 0.67137 0.0
H1139 H 0.31654 0.25401 0.62736 0.0
H1140 H 0.29239 0.11267 0.60879 0.0
H1141 H 0.29131 0.08428 0.65165 0.0
C1142 C 0.30215 0.13747 0.69001 0.0
C1143 C 0.30815 0.16967 0.70872 0.0
C1144 C 0.30322 0.15262 0.66491 0.0
C1145 C 0.31554 0.2167 0.70107 0.0
C1146 C 0.31667 0.23178 0.67619 0.0
C1147 C 0.31119 0.21649 0.63265 0.0
C1148 C 0.30468 0.1851 0.61441 0.0
C1149 C 0.31048 0.20047 0.65782 0.0
C1150 C 0.29763 0.13729 0.62205 0.0
C1151 C 0.29696 0.12114 0.64673 0.0
H1152 H 0.44919 0.13103 0.20327 0.0
H1153 H 0.46931 0.29158 0.20142 0.0
H1154 H 0.47055 0.28689 0.15743 0.0
H1155 H 0.46725 0.23527 0.11864 0.0
H1156 H 0.44591 0.07889 0.1188 0.0
H1157 H 0.44371 0.08444 0.16329 0.0
C1158 C 0.4537 0.16549 0.19333 0.0
C1159 C 0.45951 0.21077 0.20652 0.0
C1160 C 0.45419 0.16341 0.16722 0.0
C1161 C 0.46515 0.25484 0.19255 0.0
C1162 C 0.4658 0.25258 0.16705 0.0
C1163 C 0.46188 0.20299 0.12832 0.0
C1164 C 0.45662 0.15702 0.11501 0.0
C1165 C 0.46058 0.2067 0.15409 0.0
C1166 C 0.44989 0.11529 0.12824 0.0
C1167 C 0.44871 0.11828 0.15386 0.0
H1168 H 0.29938 0.76006 0.12547 0.0
H1169 H 0.3191 0.6067 0.10514 0.0
H1170 H 0.32128 0.58059 0.14813 0.0
H1171 H 0.3164 0.59782 0.19224 0.0
H1172 H 0.29709 0.75227 0.21214 0.0
H1173 H 0.29595 0.78077 0.16927 0.0
C1174 C 0.3042 0.72088 0.13031 0.0
C1175 C 0.30899 0.68548 0.11146 0.0
C1176 C 0.3055 0.70604 0.1554 0.0
C1177 C 0.31536 0.63541 0.11874 0.0
C1178 C 0.31655 0.62014 0.14354 0.0
C1179 C 0.31221 0.63836 0.18724 0.0
C1180 C 0.30704 0.67332 0.20581 0.0
C1181 C 0.31155 0.6547 0.16215 0.0
C1182 C 0.30138 0.72498 0.1986 0.0
C1183 C 0.30063 0.74112 0.17391 0.0
H1184 H 0.12941 0.24237 0.05691 0.0
H1185 H 0.15466 0.31286 0.11047 0.0
H1186 H 0.16888 0.23138 0.10498 0.0
H1187 H 0.17399 0.13954 0.08465 0.0
H1188 H 0.14798 0.06877 1.03272 0.0
H1189 H 0.13404 0.15085 1.03795 0.0
C1190 C 0.13806 0.24016 0.06732 0.0
C1191 C 0.14111 0.28388 0.08379 0.0
C1192 C 0.14593 0.19282 0.06454 0.0
C1193 C 0.1522 0.27983 0.09753 0.0
C1194 C 0.16029 0.23329 0.09442 0.0
C1195 C 0.16519 0.14223 0.07474 0.0
C1196 C 0.16174 0.09809 0.05878 0.0
C1197 C 0.15723 0.18943 0.078 0.0
C1198 C 0.15054 0.10189 0.04556 0.0
C1199 C 0.14266 0.14886 0.04841 0.0
H1200 H 0.15013 0.09094 0.23518 0.0
H1201 H 0.11927 0.12857 0.28352 0.0
H1202 H 0.12881 0.2199 0.29395 0.0
H1203 H 0.14613 0.28829 0.29036 0.0
H1204 H 0.17792 0.24901 0.24514 0.0
H1205 H 0.16788 0.15927 0.23231 0.0
C1206 C 0.14556 0.11911 0.24807 0.0
C1207 C 0.13408 0.10287 0.25869 0.0
C1208 C 0.15123 0.17134 0.25441 0.0
C1209 C 0.12822 0.13968 0.27535 0.0
C1210 C 0.13361 0.19211 0.28125 0.0
C1211 C 0.15071 0.26028 0.2774 0.0
C1212 C 0.16245 0.27537 0.26797 0.0
C1213 C 0.14511 0.20825 0.27098 0.0
C1214 C 0.16868 0.23823 0.25206 0.0
C1215 C 0.16299 0.18702 0.24488 0.0
H1216 H 0.87698 1.01042 0.06554 0.0
H1217 H 0.85775 1.00271 0.99681 0.0
H1218 H 0.87237 0.92921 0.9825 0.0
H1219 H 0.89142 0.87079 0.98908 0.0
H1220 H 0.90943 0.87078 0.05924 0.0
H1221 H 0.89458 0.94348 0.07369 0.0
C1222 C 0.87608 0.99269 0.0474 0.0
C1223 C 0.86683 1.01431 1.03155 0.0
C1224 C 0.88428 0.94894 0.03974 0.0
C1225 C 0.86532 0.98924 1.00859 0.0
C1226 C 0.87355 0.94661 1.00062 0.0
C1227 C 0.89188 0.88579 1.00771 0.0
C1228 C 0.9014 0.86515 1.02321 0.0
C1229 C 0.8832 0.9268 1.01591 0.0
C1230 C 0.90208 0.88561 0.04713 0.0
C1231 C 0.89365 0.92739 0.05531 0.0
H1232 H 0.88388 0.82389 0.78732 0.0
H1233 H 0.91014 0.7979 0.84617 0.0
H1234 H 0.92078 0.88776 0.83558 0.0
H1235 H 0.92054 0.97897 0.81337 0.0
H1236 H 0.89183 1.01107 0.75977 0.0
H1237 H 0.88422 0.91248 0.76408 0.0
C1238 C 0.89209 0.83721 0.79756 0.0
C1239 C 0.89628 0.80453 0.81747 0.0
C1240 C 0.89761 0.88998 0.79227 0.0
C1241 C 0.90679 0.82263 0.83079 0.0
C1242 C 0.91281 0.87391 0.82478 0.0
C1243 C 0.91285 0.96363 0.80217 0.0
C1244 C 0.90681 1.00115 0.78597 0.0
C1245 C 0.90803 0.90869 0.80607 0.0
C1246 C 0.89665 0.9821 0.77201 0.0
C1247 C 0.89228 0.92616 0.77466 0.0
H1248 H 0.15782 0.67053 0.54003 0.0
H1249 H 0.13008 0.53911 0.5518 0.0
H1250 H 0.11329 0.60603 0.54214 0.0
H1251 H 0.10638 0.70485 0.53306 0.0
H1252 H 0.13396 0.82991 0.51177 0.0
H1253 H 0.15097 0.76289 0.52169 0.0
C1254 C 0.14811 0.65633 0.54005 0.0
C1255 C 0.14518 0.60034 0.54775 0.0
C1256 C 0.1385 0.6944 0.53296 0.0
C1257 C 0.13258 0.58227 0.54694 0.0
C1258 C 0.12295 0.62062 0.54126 0.0
C1259 C 0.11614 0.7173 0.53069 0.0
C1260 C 0.11906 0.77372 0.52384 0.0
C1261 C 0.12578 0.6773 0.53491 0.0
C1262 C 0.13162 0.78813 0.519 0.0
C1263 C 0.14131 0.7495 0.52427 0.0
H1264 H 0.10823 0.59172 0.77081 0.0
H1265 H 0.14153 0.51769 0.73933 0.0
H1266 H 0.15354 0.60395 0.74956 0.0
H1267 H 0.15424 0.70181 0.76569 0.0
H1268 H 0.12033 0.7803 0.79222 0.0
H1269 H 0.10883 0.69036 0.78609 0.0
C1270 C 0.11817 0.59412 0.76655 0.0
C1271 C 0.12407 0.54812 0.75471 0.0
C1272 C 0.12485 0.64449 0.77169 0.0
C1273 C 0.13684 0.55242 0.74862 0.0
C1274 C 0.14369 0.60165 0.75446 0.0
C1275 C 0.14439 0.69876 0.77059 0.0
C1276 C 0.13815 0.74693 0.77994 0.0
C1277 C 0.13776 0.64805 0.76584 0.0
C1278 C 0.12531 0.74334 0.78538 0.0
C1279 C 0.11875 0.69212 0.78175 0.0
H1280 H 0.89881 0.313 0.52823 0.0
H1281 H 0.93282 0.36681 0.4926 0.0
H1282 H 0.92298 0.45758 0.48095 0.0
H1283 H 0.90485 0.52374 0.48287 0.0
H1284 H 0.87172 0.47197 0.52252 0.0
H1285 H 0.88087 0.37832 0.53028 0.0
C1286 C 0.90387 0.344 0.51728 0.0
C1287 C 0.91627 0.33276 0.51043 0.0
C1288 C 0.89834 0.39685 0.51169 0.0
C1289 C 0.92312 0.37449 0.49761 0.0
C1290 C 0.91753 0.42637 0.49107 0.0
C1291 C 0.89969 0.49188 0.49323 0.0
C1292 C 0.88772 0.50497 0.50238 0.0
C1293 C 0.90518 0.43843 0.49832 0.0
C1294 C 0.88107 0.46332 0.5157 0.0
C1295 C 0.88625 0.40958 0.52004 0.0
H1296 H 0.88083 0.36199 0.30951 0.0
H1297 H 0.90572 0.30304 0.36616 0.0
H1298 H 0.91957 0.38558 0.35893 0.0
H1299 H 0.92464 0.47416 0.33565 0.0
H1300 H 0.89886 0.53355 0.28077 0.0
H1301 H 0.8852 0.451 0.28811 0.0
C1302 C 0.88931 0.36699 0.32028 0.0
C1303 C 0.89239 0.32605 0.33804 0.0
C1304 C 0.89696 0.41487 0.31643 0.0
C1305 C 0.90323 0.33386 0.35224 0.0
C1306 C 0.91111 0.38106 0.34814 0.0
C1307 C 0.91593 0.46904 0.32563 0.0
C1308 C 0.91248 0.51007 0.30815 0.0
C1309 C 0.90807 0.42176 0.33021 0.0
C1310 C 0.90143 0.50289 0.29471 0.0
C1311 C 0.8937 0.45568 0.29881 0.0
H1312 H 0.6241 0.22691 0.56868 0.0
H1313 H 0.64294 0.27666 0.63492 0.0
H1314 H 0.64197 0.1778 0.64922 0.0
H1315 H 0.63654 0.07738 0.64303 0.0
H1316 H 0.61701 1.0283 0.57743 0.0
H1317 H 0.61767 0.12699 0.56301 0.0
C1318 C 0.6284 0.21598 0.58597 0.0
C1319 C 0.63383 0.25905 0.60047 0.0
C1320 C 0.62778 0.15924 0.59432 0.0
C1321 C 0.63897 0.24424 0.62314 0.0
C1322 C 0.63847 0.18777 0.63137 0.0
C1323 C 0.63242 0.08819 0.62556 0.0
C1324 C 0.62694 1.04512 0.61121 0.0
C1325 C 0.63292 0.14496 0.6172 0.0
C1326 C 0.62141 0.0603 0.58884 0.0
C1327 C 0.62185 0.11675 0.58046 0.0
H1328 H 0.6418 0.30712 0.77824 0.0
H1329 H 0.67637 0.23928 0.75033 0.0
H1330 H 0.66585 0.1487 0.74059 0.0
H1331 H 0.64657 0.08933 0.73947 0.0
H1332 H 0.61198 0.15887 0.76769 0.0
H1333 H 0.62256 0.24857 0.77696 0.0
C1334 C 0.64682 0.27343 0.76895 0.0
C1335 C 0.6596 0.28082 0.7637 0.0
C1336 C 0.64071 0.22158 0.76355 0.0
C1337 C 0.66639 0.23499 0.7538 0.0
C1338 C 0.6604 0.18313 0.7484 0.0
C1339 C 0.64136 0.12399 0.74774 0.0
C1340 C 0.62848 0.11697 0.75291 0.0
C1341 C 0.64752 0.17597 0.75308 0.0
C1342 C 0.6219 0.16266 0.76356 0.0
C1343 C 0.62793 0.21426 0.76882 0.0
H1344 H 0.40382 1.03346 0.47988 0.0
H1345 H 0.36797 0.9805 0.50888 0.0
H1346 H 0.37629 0.88595 0.51806 0.0
H1347 H 0.3943 0.82199 0.52218 0.0
H1348 H 0.43045 0.87334 0.49507 0.0
H1349 H 0.42175 0.96529 0.48157 0.0
C1350 C 0.39785 1.00073 0.48784 0.0
C1351 C 0.38536 1.01373 0.49388 0.0
C1352 C 0.40282 0.94656 0.49376 0.0
C1353 C 0.37767 0.97136 0.50433 0.0
C1354 C 0.3824 0.91734 0.50959 0.0
C1355 C 0.40006 0.85226 0.51225 0.0
C1356 C 0.41277 0.84024 0.50862 0.0
C1357 C 0.39502 0.90487 0.50491 0.0
C1358 C 0.42053 0.8816 0.49763 0.0
C1359 C 0.41557 0.93409 0.48996 0.0
H1360 H 0.40041 1.00332 0.32859 0.0
H1361 H 0.37588 1.04466 0.38851 0.0
H1362 H 0.37257 0.94269 0.39642 0.0
H1363 H 0.37634 0.84206 0.38579 0.0
H1364 H 0.40015 0.80169 0.32475 0.0
H1365 H 0.40444 0.90338 0.31841 0.0
C1366 C 0.39418 0.99021 0.3432 0.0
C1367 C 0.38827 1.03166 0.35775 0.0
C1368 C 0.39245 0.93173 0.34782 0.0
C1369 C 0.38042 1.01368 0.37685 0.0
C1370 C 0.37861 0.95539 0.38152 0.0
C1371 C 0.38262 0.85542 0.37136 0.0
C1372 C 0.38794 0.81433 0.35578 0.0
C1373 C 0.38461 0.91406 0.36718 0.0
C1374 C 0.39599 0.83245 0.33703 0.0
C1375 C 0.39834 0.89059 0.33325 0.0
H1376 H 0.65655 0.78841 0.09534 0.0
H1377 H 0.6239 0.73843 0.0539 0.0
H1378 H 0.63339 0.64625 0.04499 0.0
H1379 H 0.65166 0.58269 0.04585 0.0
H1380 H 0.68505 0.63377 0.08406 0.0
H1381 H 0.67485 0.72263 0.09695 0.0
C1382 C 0.65154 0.75713 0.08447 0.0
C1383 C 0.63962 0.77051 0.07506 0.0
C1384 C 0.65724 0.70444 0.0787 0.0
C1385 C 0.6332 0.7296 0.06099 0.0
C1386 C 0.63859 0.67671 0.05594 0.0
C1387 C 0.65646 0.61233 0.05779 0.0
C1388 C 0.6688 0.60074 0.06499 0.0
C1389 C 0.65067 0.66397 0.06433 0.0
C1390 C 0.67539 0.64145 0.07882 0.0
C1391 C 0.66958 0.69227 0.0861 0.0
H1392 H 0.65463 0.58636 0.22704 0.0
H1393 H 0.62213 0.62338 0.27113 0.0
H1394 H 0.63104 0.71553 0.28239 0.0
H1395 H 0.64858 0.78364 0.28191 0.0
H1396 H 0.68199 0.74447 0.2414 0.0
H1397 H 0.67242 0.65542 0.22673 0.0
C1398 C 0.64954 0.61475 0.23907 0.0
C1399 C 0.63781 0.59777 0.24843 0.0
C1400 C 0.6549 0.66742 0.24612 0.0
C1401 C 0.63129 0.63495 0.26401 0.0
C1402 C 0.63633 0.68786 0.2704 0.0
C1403 C 0.65356 0.75627 0.26929 0.0
C1404 C 0.66566 0.77155 0.26173 0.0
C1405 C 0.64818 0.70431 0.26181 0.0
C1406 C 0.67246 0.73412 0.24677 0.0
C1407 C 0.66702 0.68314 0.23852 0.0
H1408 H 0.42692 0.37657 0.98972 0.0
H1409 H 0.39921 0.30656 0.03856 0.0
H1410 H 0.38565 0.38934 1.03169 0.0
H1411 H 0.3819 0.48185 1.01242 0.0
H1412 H 0.40879 0.55116 0.9616 0.0
H1413 H 0.42259 0.46853 0.96855 0.0
C1414 C 0.41784 0.37953 0.99858 0.0
C1415 C 0.41379 0.33521 1.01405 0.0
C1416 C 0.41009 0.42711 0.99432 0.0
C1417 C 0.40221 0.33949 1.02593 0.0
C1418 C 0.39455 0.38695 1.02218 0.0
C1419 C 0.39081 0.47894 1.0029 0.0
C1420 C 0.39448 0.52275 0.98688 0.0
C1421 C 0.39841 0.43095 1.00647 0.0
C1422 C 0.40586 0.51799 0.97419 0.0
C1423 C 0.41372 0.47089 0.97818 0.0
H1424 H 0.42506 0.47517 0.83544 0.0
H1425 H 0.39621 0.54073 0.78812 0.0
H1426 H 0.38283 0.45824 0.79736 0.0
H1427 H 0.3798 0.36602 0.81742 0.0
H1428 H 0.40783 0.30132 0.86685 0.0
H1429 H 0.42121 0.38494 0.85837 0.0
C1430 C 0.41577 0.47138 0.82749 0.0
C1431 C 0.41139 0.51409 0.81159 0.0
C1432 C 0.40811 0.42412 0.83316 0.0
C1433 C 0.3995 0.50891 0.80097 0.0
C1434 C 0.39194 0.46165 0.80608 0.0
C1435 C 0.38884 0.37035 0.82638 0.0
C1436 C 0.39301 0.32737 0.84229 0.0
C1437 C 0.39621 0.41887 0.82195 0.0
C1438 C 0.40454 0.3339 0.85435 0.0
C1439 C 0.41214 0.38162 0.84953 0.0
H1440 H 0.07495 0.24677 0.13385 0.0
H1441 H 0.11376 0.29519 0.1435 0.0
H1442 H 0.11655 0.21859 0.17303 0.0
H1443 H 0.10856 0.1348 0.19629 0.0
H1444 H 0.07069 0.07648 0.18397 0.0
H1445 H 0.06713 0.15769 0.15628 0.0
C1446 C 0.084 0.24112 0.14253 0.0
C1447 C 0.09406 0.27936 0.13618 0.0
C1448 C 0.08581 0.19392 0.15941 0.0
C1449 C 0.10573 0.26829 0.1476 0.0
C1450 C 0.10738 0.22382 0.16476 0.0
C1451 C 0.09943 0.13966 0.18782 0.0
C1452 C 0.08989 0.09816 0.19302 0.0
C1453 C 0.09756 0.18595 0.17088 0.0
C1454 C 0.0783 0.10651 0.18095 0.0
C1455 C 0.07625 0.15354 0.16484 0.0
H1456 H 0.15142 0.13131 0.13208 0.0
H1457 H 0.18877 0.07171 0.14788 0.0
H1458 H 0.19203 0.15435 0.17502 0.0
H1459 H 0.18394 0.24587 0.19592 0.0
H1460 H 0.14662 0.30264 0.17674 0.0
H1461 H 0.14402 0.22136 0.15019 0.0
C1462 C 0.16035 0.1356 0.14138 0.0
C1463 C 0.16975 0.09294 0.13745 0.0
C1464 C 0.16228 0.18444 0.15686 0.0
C1465 C 0.18121 0.10213 0.15001 0.0
C1466 C 0.1831 0.1502 0.16575 0.0
C1467 C 0.1753 0.24134 0.1857 0.0
C1468 C 0.1655 0.28297 0.18919 0.0
C1469 C 0.17369 0.19231 0.16954 0.0
C1470 C 0.15444 0.27327 0.17535 0.0
C1471 C 0.15285 0.22581 0.15985 0.0
H1472 H 0.93655 0.88233 0.94389 0.0
H1473 H 0.90406 0.80732 0.90945 0.0
H1474 H 0.90356 0.88521 0.88003 0.0
H1475 H 0.9117 0.97758 0.86333 0.0
H1476 H 0.94359 0.05707 0.89775 0.0
H1477 H 0.94487 0.97686 0.92666 0.0
C1478 C 0.92946 0.88213 0.92976 0.0
C1479 C 0.92041 0.83624 0.92946 0.0
C1480 C 0.92903 0.9293 0.91236 0.0
C1481 C 0.91125 0.84001 0.9108 0.0
C1482 C 0.91092 0.88538 0.89364 0.0
C1483 C 0.91906 0.97774 0.87697 0.0
C1484 C 0.92762 1.02519 0.87752 0.0
C1485 C 0.91967 0.93077 0.89413 0.0
C1486 C 0.93684 1.02259 0.8961 0.0
C1487 C 0.93757 0.97597 0.91292 0.0
H1488 H 0.83428 0.99417 0.94222 0.0
H1489 H 0.87353 1.035 0.93215 0.0
H1490 H 0.87572 0.95528 0.90438 0.0
H1491 H 0.8672 0.87123 0.88228 0.0
H1492 H 0.82837 0.8244 0.89186 0.0
H1493 H 0.82555 0.90651 0.91937 0.0
C1494 C 0.84332 0.98631 0.93388 0.0
C1495 C 0.85371 1.02347 0.94004 0.0
C1496 C 0.84471 0.93785 0.9173 0.0
C1497 C 0.86524 1.00944 0.92857 0.0
C1498 C 0.86656 0.9629 0.91233 0.0
C1499 C 0.85799 0.87861 0.89006 0.0
C1500 C 0.84799 0.83985 0.88396 0.0
C1501 C 0.85644 0.92641 0.90643 0.0
C1502 C 0.83634 0.85207 0.8953 0.0
C1503 C 0.83472 0.89976 0.91137 0.0
H1504 H 0.08638 0.78265 0.65105 0.0
H1505 H 0.11674 0.72561 0.60483 0.0
H1506 H 0.11848 0.63873 0.62812 0.0
H1507 H 0.11211 0.57546 0.66144 0.0
H1508 H 0.08186 0.62439 0.70892 0.0
H1509 H 0.07959 0.71481 0.68593 0.0
C1510 C 0.09339 0.75143 0.64592 0.0
C1511 C 0.10146 0.7637 0.62547 0.0
C1512 C 0.0945 0.69859 0.65999 0.0
C1513 C 0.11036 0.72048 0.62002 0.0
C1514 C 0.11142 0.66947 0.63354 0.0
C1515 C 0.10499 0.60558 0.66718 0.0
C1516 C 0.09727 0.59125 0.68762 0.0
C1517 C 0.10366 0.65776 0.65362 0.0
C1518 C 0.0881 0.63254 0.69375 0.0
C1519 C 0.08677 0.68492 0.68033 0.0
H1520 H 0.15213 0.58801 0.66335 0.0
H1521 H 0.18799 0.60352 0.62768 0.0
H1522 H 0.19261 0.68972 0.65167 0.0
H1523 H 0.1863 0.76478 0.68306 0.0
H1524 H 0.15081 0.74234 0.71984 0.0
H1525 H 0.14652 0.6574 0.69585 0.0
C1526 C 0.16105 0.60962 0.66077 0.0
C1527 C 0.16964 0.58734 0.64315 0.0
C1528 C 0.1638 0.65956 0.67518 0.0
C1529 C 0.1811 0.61772 0.64081 0.0
C1530 C 0.18375 0.66792 0.65465 0.0
C1531 C 0.17763 0.74143 0.68599 0.0
C1532 C 0.16895 0.76209 0.70395 0.0
C1533 C 0.17516 0.69 0.67195 0.0
C1534 C 0.15785 0.7292 0.70682 0.0
C1535 C 0.1553 0.67987 0.6928 0.0
H1536 H 0.93569 0.49315 0.38351 0.0
H1537 H 0.89649 0.53194 0.39531 0.0
H1538 H 0.89435 0.44907 0.42127 0.0
H1539 H 0.90277 0.36217 0.44082 0.0
H1540 H 0.94183 0.32 0.43175 0.0
H1541 H 0.94461 0.40485 0.40556 0.0
C1542 C 0.9267 0.48431 0.39198 0.0
C1543 C 0.91627 0.52138 0.38661 0.0
C1544 C 0.92535 0.43425 0.4077 0.0
C1545 C 0.90481 0.50623 0.39819 0.0
C1546 C 0.90349 0.45783 0.41337 0.0
C1547 C 0.91197 0.37079 0.43317 0.0
C1548 C 0.92201 0.33231 0.43865 0.0
C1549 C 0.91358 0.42085 0.41816 0.0
C1550 C 0.93378 0.34703 0.42829 0.0
C1551 C 0.93539 0.39638 0.41312 0.0
H1552 H 0.82739 0.5084 0.4309 0.0
H1553 H 0.86568 0.49355 0.45612 0.0
H1554 H 0.86887 0.41164 0.42992 0.0
H1555 H 0.86142 0.34242 0.39895 0.0
H1556 H 0.82271 0.346 0.37643 0.0
H1557 H 0.81927 0.4316 0.40165 0.0
C1558 C 0.83644 0.48741 0.43079 0.0
C1559 C 0.8463 0.5098 0.44594 0.0
C1560 C 0.83826 0.43718 0.41568 0.0
C1561 C 0.8578 0.47949 0.44517 0.0
C1562 C 0.85972 0.43181 0.42989 0.0
C1563 C 0.85217 0.3617 0.39936 0.0
C1564 C 0.84241 0.33661 0.38502 0.0
C1565 C 0.8501 0.41017 0.41489 0.0
C1566 C 0.83051 0.36303 0.38679 0.0
C1567 C 0.82854 0.41264 0.40141 0.0
H1568 H 0.61033 0.1266 0.68263 0.0
H1569 H 0.57111 0.08194 0.67965 0.0
H1570 H 0.56715 0.16569 0.65341 0.0
H1571 H 0.57506 0.25329 0.62915 0.0
H1572 H 0.61427 0.29702 0.63612 0.0
H1573 H 0.61762 0.21527 0.66242 0.0
C1574 C 0.60083 0.13468 0.67645 0.0
C1575 C 0.59111 0.09567 0.6836 0.0
C1576 C 0.59852 0.18429 0.66146 0.0
C1577 C 0.57893 0.10956 0.675 0.0
C1578 C 0.57664 0.15816 0.6597 0.0
C1579 C 0.58435 0.24546 0.63645 0.0
C1580 C 0.59449 0.28299 0.62935 0.0
C1581 C 0.58638 0.19631 0.65246 0.0
C1582 C 0.60629 0.26983 0.63984 0.0
C1583 C 0.60827 0.22231 0.65527 0.0
H1584 H 0.6592 0.08934 0.65596 0.0
H1585 H 0.69334 0.12611 0.617 0.0
H1586 H 0.69527 0.21751 0.63929 0.0
H1587 H 0.6865 0.29196 0.6698 0.0
H1588 H 0.6518 0.2494 0.70638 0.0
H1589 H 0.65159 0.1567 0.68707 0.0
C1590 C 0.66718 0.11681 0.65215 0.0
C1591 C 0.67602 0.09888 0.63407 0.0
C1592 C 0.66827 0.16976 0.66531 0.0
C1593 C 0.68628 0.13671 0.63041 0.0
C1594 C 0.68734 0.18993 0.6433 0.0
C1595 C 0.67884 0.2627 0.67355 0.0
C1596 C 0.66915 0.28012 0.69038 0.0
C1597 C 0.67829 0.20793 0.66076 0.0
C1598 C 0.65945 0.23959 0.69409 0.0
C1599 C 0.65924 0.18566 0.6827 0.0
H1600 H 0.43752 0.98931 0.38249 0.0
H1601 H 0.40195 0.05878 0.40533 0.0
H1602 H 0.3975 0.97251 0.42839 0.0
H1603 H 0.40329 0.87647 0.44387 0.0
H1604 H 0.4398 0.80838 0.42714 0.0
H1605 H 0.44408 0.89224 0.40103 0.0
C1606 C 0.42869 0.98562 0.39217 0.0
C1607 C 0.41989 1.03241 0.39069 0.0
C1608 C 0.42631 0.9349 0.40719 0.0
C1609 C 0.40886 1.02498 0.40479 0.0
C1610 C 0.40628 0.97489 0.41846 0.0
C1611 C 0.41226 0.87917 0.43458 0.0
C1612 C 0.4211 0.83357 0.43798 0.0
C1613 C 0.41487 0.92933 0.42 0.0
C1614 C 0.43264 0.84094 0.42548 0.0
C1615 C 0.4351 0.88973 0.41027 0.0
H1616 H 0.32467 1.01659 0.42417 0.0
H1617 H 0.36001 0.98404 0.4604 0.0
H1618 H 0.36287 0.89854 0.43676 0.0
H1619 H 0.35631 0.83035 0.40479 0.0
H1620 H 0.32078 0.85363 0.36897 0.0
H1621 H 0.31729 0.94167 0.39269 0.0
C1622 C 0.33301 0.99104 0.42708 0.0
C1623 C 0.3421 1.01 0.44487 0.0
C1624 C 0.33476 0.93866 0.41293 0.0
C1625 C 0.35268 0.97356 0.4475 0.0
C1626 C 0.35444 0.92342 0.43365 0.0
C1627 C 0.3478 0.85459 0.40178 0.0
C1628 C 0.339 0.83389 0.38415 0.0
C1629 C 0.3457 0.90539 0.41608 0.0
C1630 C 0.3279 0.8668 0.38188 0.0
C1631 C 0.3259 0.91804 0.39565 0.0
H1632 H 0.578 0.75416 0.13504 0.0
H1633 H 0.61813 0.78071 0.13307 0.0
H1634 H 0.62106 0.70487 0.16279 0.0
H1635 H 0.6128 0.6276 0.18948 0.0
H1636 H 0.57311 0.59167 0.1895 0.0
H1637 H 0.56966 0.67218 0.16139 0.0
C1638 C 0.58741 0.74362 0.14105 0.0
C1639 C 0.59781 0.77521 0.13111 0.0
C1640 C 0.58921 0.69707 0.15828 0.0
C1641 C 0.60983 0.75862 0.13961 0.0
C1642 C 0.61157 0.71463 0.15697 0.0
C1643 C 0.60331 0.63731 0.18368 0.0
C1644 C 0.59324 0.60226 0.19247 0.0
C1645 C 0.6014 0.68312 0.1665 0.0
C1646 C 0.58114 0.61669 0.18372 0.0
C1647 C 0.57916 0.66326 0.16733 0.0
H1648 H 0.6546 0.61796 0.136 0.0
H1649 H 0.69426 0.58345 0.13968 0.0
H1650 H 0.69715 0.66781 0.16589 0.0
H1651 H 0.68829 0.75452 0.18897 0.0
H1652 H 0.6484 0.7855 0.18271 0.0
H1653 H 0.64609 0.70234 0.15728 0.0
C1654 C 0.66396 0.62809 0.1425 0.0
C1655 C 0.67414 0.59186 0.13543 0.0
C1656 C 0.66563 0.67792 0.1576 0.0
C1657 C 0.68609 0.60857 0.14439 0.0
C1658 C 0.68777 0.65769 0.15959 0.0
C1659 C 0.67908 0.74368 0.182 0.0
C1660 C 0.66857 0.77927 0.18858 0.0
C1661 C 0.67761 0.69338 0.16652 0.0
C1662 C 0.65684 0.76157 0.17876 0.0
C1663 C 0.65541 0.71282 0.16389 0.0
H1664 H 0.40211 0.36414 0.94129 0.0
H1665 H 0.44087 0.3179 0.93107 0.0
H1666 H 0.44385 0.40295 0.90495 0.0
H1667 H 0.43512 0.49285 0.88349 0.0
H1668 H 0.39626 0.5353 0.89709 0.0
H1669 H 0.394 0.45201 0.92268 0.0
C1670 C 0.4113 0.37179 0.93342 0.0
C1671 C 0.42119 0.33228 0.9386 0.0
C1672 C 0.41302 0.42184 0.91855 0.0
C1673 C 0.43293 0.34581 0.92789 0.0
C1674 C 0.43466 0.39528 0.91277 0.0
C1675 C 0.42619 0.48466 0.89226 0.0
C1676 C 0.41586 0.52283 0.88747 0.0
C1677 C 0.42476 0.43431 0.9078 0.0
C1678 C 0.40447 0.50861 0.89945 0.0
C1679 C 0.40307 0.45993 0.91437 0.0
H1680 H 0.32783 0.49768 0.9349 0.0
H1681 H 0.36798 0.5045 0.94617 0.0
H1682 H 0.3709 0.42734 0.91757 0.0
H1683 H 0.36273 0.35567 0.88882 0.0
H1684 H 0.3228 0.33929 0.87847 0.0
H1685 H 0.31935 0.42004 0.90641 0.0
C1686 C 0.33723 0.48233 0.93127 0.0
C1687 C 0.34764 0.509 0.94345 0.0
C1688 C 0.33901 0.43521 0.91446 0.0
C1689 C 0.35964 0.48657 0.93784 0.0
C1690 C 0.36141 0.44175 0.92112 0.0
C1691 C 0.35321 0.36963 0.89236 0.0
C1692 C 0.34308 0.34042 0.88069 0.0
C1693 C 0.35125 0.41554 0.9092 0.0
C1694 C 0.33089 0.36 0.88655 0.0
C1695 C 0.3289 0.40667 0.90279 0.0
H1696 H 0.09929 0.35319 0.17927 0.0
H1697 H 0.1062 0.53333 0.18736 0.0
H1698 H 0.10558 0.52298 0.23182 0.0
H1699 H 0.11168 0.45804 0.26471 0.0
H1700 H 0.10969 0.27642 0.25384 0.0
H1701 H 0.09882 0.29075 0.21529 0.0
C1702 C 0.10025 0.39026 0.19086 0.0
C1703 C 0.10322 0.44338 0.18049 0.0
C1704 C 0.10089 0.383 0.21608 0.0
C1705 C 0.10415 0.49185 0.19526 0.0
C1706 C 0.10388 0.48576 0.22059 0.0
C1707 C 0.10821 0.42157 0.25451 0.0
C1708 C 0.11258 0.36655 0.26049 0.0
C1709 C 0.10354 0.43079 0.23096 0.0
C1710 C 0.1071 0.31955 0.24864 0.0
C1711 C 0.10122 0.32782 0.22617 0.0
H1712 H 0.10785 0.88414 0.13103 0.0
H1713 H 0.10756 0.05811 0.1563 0.0
H1714 H 0.10483 0.09343 0.11496 0.0
H1715 H 0.10999 0.07534 0.07265 0.0
H1716 H 0.11538 0.90442 0.04785 0.0
H1717 H 0.10717 0.86625 0.0861 0.0
C1718 C 0.10683 0.92946 0.12734 0.0
C1719 C 0.10813 0.96894 0.14631 0.0
C1720 C 0.10607 0.94957 0.10325 0.0
C1721 C 0.10668 1.02753 0.1417 0.0
C1722 C 0.10509 1.04765 0.11809 0.0
C1723 C 0.1087 1.02967 0.07529 0.0
C1724 C 0.11528 0.99233 0.06005 0.0
C1725 C 0.10577 1.00936 0.09865 0.0
C1726 C 0.11185 0.93421 0.06126 0.0
C1727 C 0.10756 0.91216 0.08352 0.0
H1728 H 0.86426 0.65336 1.0055 0.0
H1729 H 0.85814 0.8284 0.98563 0.0
H1730 H 0.84699 0.79875 0.94904 0.0
H1731 H 0.84958 0.7299 0.91605 0.0
H1732 H 0.86378 0.56161 0.93166 0.0
H1733 H 0.86109 0.57865 0.97545 0.0
C1734 C 0.85983 0.68473 0.99371 0.0
C1735 C 0.86319 0.74249 0.99625 0.0
C1736 C 0.85565 0.6671 0.97075 0.0
C1737 C 0.85644 0.7832 0.9828 0.0
C1738 C 0.85041 0.76615 0.96143 0.0
C1739 C 0.8516 0.69631 0.92913 0.0
C1740 C 0.85717 0.64546 0.92117 0.0
C1741 C 0.85159 0.70909 0.9539 0.0
C1742 C 0.85975 0.60155 0.93776 0.0
C1743 C 0.8583 0.61152 0.96267 0.0
H1744 H 0.8717 0.18562 0.96319 0.0
H1745 H 0.90808 0.13237 0.98959 0.0
H1746 H 0.91736 0.15855 0.95026 0.0
H1747 H 0.91404 0.17877 0.90693 0.0
H1748 H 0.87683 0.2178 0.88052 0.0
H1749 H 0.8688 0.21599 0.92219 0.0
C1750 C 0.88169 0.17979 0.96078 0.0
C1751 C 0.88912 0.15554 0.97923 0.0
C1752 C 0.8867 0.19247 0.9382 0.0
C1753 C 0.90214 0.15054 0.97557 0.0
C1754 C 0.9074 0.16523 0.95315 0.0
C1755 C 0.90424 0.18836 0.91048 0.0
C1756 C 0.8959 0.1978 0.89113 0.0
C1757 C 0.89962 0.18366 0.93407 0.0
C1758 C 0.88325 0.2098 0.89545 0.0
C1759 C 0.87871 0.20855 0.9191 0.0
H1760 H 0.15965 0.92397 0.6657 0.0
H1761 H 0.12129 0.94357 0.68973 0.0
H1762 H 0.11395 0.93245 0.64813 0.0
H1763 H 0.11829 0.91497 0.60607 0.0
H1764 H 0.15606 0.8785 0.58221 0.0
H1765 H 0.16404 0.90499 0.62253 0.0
C1766 C 0.14973 0.9281 0.66158 0.0
C1767 C 0.14096 0.93483 0.6804 0.0
C1768 C 0.14556 0.92062 0.63773 0.0
C1769 C 0.12813 0.93883 0.67527 0.0
C1770 C 0.12395 0.93305 0.65153 0.0
C1771 C 0.12824 0.91091 0.60961 0.0
C1772 C 0.13651 0.89275 0.59136 0.0
C1773 C 0.13256 0.9228 0.63282 0.0
C1774 C 0.14949 0.89223 0.59606 0.0
C1775 C 0.15402 0.90702 0.61905 0.0
H1776 H 0.08158 0.34227 0.63403 0.0
H1777 H 0.0754 0.50287 0.66925 0.0
H1778 H 0.08478 0.55377 0.63511 0.0
H1779 H 0.10318 0.54322 0.60752 0.0
H1780 H 0.10934 0.38106 0.57238 0.0
H1781 H 0.09146 0.33993 0.59362 0.0
C1782 C 0.08143 0.38866 0.63331 0.0
C1783 C 0.07957 0.41901 0.65492 0.0
C1784 C 0.08749 0.41679 0.61406 0.0
C1785 C 0.078 0.47852 0.65329 0.0
C1786 C 0.08368 0.50777 0.63399 0.0
C1787 C 0.10012 0.49999 0.60343 0.0
C1788 C 0.10788 0.46404 0.58973 0.0
C1789 C 0.08988 0.47628 0.61597 0.0
C1790 C 0.10369 0.40883 0.58368 0.0
C1791 C 0.09347 0.38505 0.59592 0.0
H1792 H 0.85958 0.29182 0.49994 0.0
H1793 H 0.87102 0.1289 0.52803 0.0
H1794 H 0.86082 0.08041 0.49419 0.0
H1795 H 0.85856 0.09295 0.44899 0.0
H1796 H 0.84579 0.25536 0.42183 0.0
H1797 H 0.8469 0.29628 0.46244 0.0
C1798 C 0.8591 0.24547 0.49953 0.0
C1799 C 0.86746 0.21397 0.51398 0.0
C1800 C 0.85379 0.2185 0.47917 0.0
C1801 C 0.86565 0.1544 0.51528 0.0
C1802 C 0.86014 0.12647 0.49548 0.0
C1803 C 0.85529 0.13613 0.45229 0.0
C1804 C 0.85269 0.17231 0.43259 0.0
C1805 C 0.85571 0.15907 0.47587 0.0
C1806 C 0.8482 0.22772 0.43688 0.0
C1807 C 0.84883 0.25113 0.46012 0.0
H1808 H 0.85768 0.71361 0.37915 0.0
H1809 H 0.86049 0.53792 0.40194 0.0
H1810 H 0.85743 0.50536 0.36038 0.0
H1811 H 0.86122 0.52849 0.31794 0.0
H1812 H 0.86432 0.70275 0.29542 0.0
H1813 H 0.85627 0.73515 0.33464 0.0
C1814 C 0.85725 0.66837 0.37491 0.0
C1815 C 0.85947 0.62789 0.39325 0.0
C1816 C 0.8564 0.65017 0.3506 0.0
C1817 C 0.85888 0.56939 0.3879 0.0
C1818 C 0.8571 0.55082 0.36413 0.0
C1819 C 0.85947 0.57349 0.32134 0.0
C1820 C 0.86535 0.61383 0.30623 0.0
C1821 C 0.85681 0.59086 0.3452 0.0
C1822 C 0.86134 0.67087 0.30856 0.0
C1823 C 0.85714 0.68967 0.33135 0.0
H1824 H 0.59576 0.3763 0.66925 0.0
H1825 H 0.60618 0.55254 0.67918 0.0
H1826 H 0.60643 0.5389 0.72338 0.0
H1827 H 0.61269 0.46984 0.75416 0.0
H1828 H 0.60909 0.29019 0.73957 0.0
H1829 H 0.59627 0.31051 0.70389 0.0
C1830 C 0.59744 0.4122 0.68131 0.0
C1831 C 0.60117 0.46486 0.6714 0.0
C1832 C 0.59902 0.40224 0.70622 0.0
C1833 C 0.60341 0.51153 0.6867 0.0
C1834 C 0.6037 0.50345 0.71189 0.0
C1835 C 0.60845 0.43518 0.74391 0.0
C1836 C 0.61261 0.37901 0.74801 0.0
C1837 C 0.60287 0.4478 0.72143 0.0
C1838 C 0.60647 0.33412 0.73591 0.0
C1839 C 0.59943 0.3459 0.71505 0.0
H1840 H 0.66204 0.77506 0.62663 0.0
H1841 H 0.68154 0.83448 0.68924 0.0
H1842 H 0.66425 0.80403 0.71537 0.0
H1843 H 0.6422 0.82989 0.71367 0.0
H1844 H 0.62197 0.81899 0.64612 0.0
H1845 H 0.63918 0.76382 0.62829 0.0
C1846 C 0.66253 0.77892 0.64628 0.0
C1847 C 0.67143 0.81711 0.65603 0.0
C1848 C 0.65134 0.77389 0.65965 0.0
C1849 C 0.67359 0.81274 0.68109 0.0
C1850 C 0.66355 0.79637 0.69596 0.0
C1851 C 0.64131 0.8123 0.6955 0.0
C1852 C 0.63139 0.83047 0.68064 0.0
C1853 C 0.65181 0.78771 0.68478 0.0
C1854 C 0.6299 0.80711 0.6574 0.0
C1855 C 0.63978 0.77577 0.64726 0.0
H1856 H 0.36134 0.6652 0.51187 0.0
H1857 H 0.35938 0.83967 0.48726 0.0
H1858 H 0.3439 0.81314 0.45663 0.0
H1859 H 0.3401 0.73756 0.42687 0.0
H1860 H 0.34836 0.56295 0.44555 0.0
H1861 H 0.35124 0.59012 0.48818 0.0
C1862 C 0.35692 0.69789 0.50073 0.0
C1863 C 0.36202 0.75341 0.50055 0.0
C1864 C 0.34944 0.68077 0.48104 0.0
C1865 C 0.35591 0.79607 0.48702 0.0
C1866 C 0.34727 0.78055 0.46905 0.0
C1867 C 0.34187 0.70517 0.44063 0.0
C1868 C 0.34436 0.64887 0.4333 0.0
C1869 C 0.34531 0.72236 0.46411 0.0
C1870 C 0.3466 0.60675 0.45092 0.0
C1871 C 0.3485 0.62256 0.47514 0.0
H1872 H 0.35652 0.31282 0.44652 0.0
H1873 H 0.3519 0.21962 0.37993 0.0
H1874 H 0.36578 0.2867 0.359 0.0
H1875 H 0.38629 0.32453 0.36727 0.0
H1876 H 0.39693 0.36616 0.43982 0.0
H1877 H 0.37491 0.37354 0.45083 0.0
C1878 C 0.35812 0.30936 0.4271 0.0
C1879 C 0.35393 0.26008 0.41499 0.0
C1880 C 0.36816 0.33969 0.41686 0.0
C1881 C 0.35544 0.25639 0.38975 0.0
C1882 C 0.3636 0.29428 0.37798 0.0
C1883 C 0.38364 0.34008 0.38486 0.0
C1884 C 0.393 0.34089 0.40285 0.0
C1885 C 0.37129 0.3299 0.39225 0.0
C1886 C 0.38983 0.36189 0.42579 0.0
C1887 C 0.37716 0.36451 0.43229 0.0
H1888 H 0.60336 0.8441 0.17643 0.0
H1889 H 0.61042 1.02439 0.18417 0.0
H1890 H 0.60997 1.01477 0.22857 0.0
H1891 H 0.61522 0.95035 0.26203 0.0
H1892 H 0.61368 0.76884 0.25132 0.0
H1893 H 0.60284 0.7823 0.21267 0.0
C1894 C 0.60426 0.88141 0.18798 0.0
C1895 C 0.60718 0.93449 0.17754 0.0
C1896 C 0.60485 0.87461 0.21323 0.0
C1897 C 0.60832 0.98308 0.19219 0.0
C1898 C 0.60808 0.97744 0.2175 0.0
C1899 C 0.61186 0.91374 0.25178 0.0
C1900 C 0.61643 0.85912 0.25772 0.0
C1901 C 0.60747 0.92267 0.22803 0.0
C1902 C 0.61101 0.81178 0.24602 0.0
C1903 C 0.60518 0.81957 0.22347 0.0
H1904 H 0.60979 0.38191 0.12417 0.0
H1905 H 0.60312 0.55351 0.14886 0.0
H1906 H 0.60357 0.58913 0.1072 0.0
H1907 H 0.61388 0.57405 0.06793 0.0
H1908 H 0.6218 0.40446 0.04361 0.0
H1909 H 0.61161 0.36403 0.07948 0.0
C1910 C 0.60786 0.42649 0.12018 0.0
C1911 C 0.60684 0.46578 0.13923 0.0
C1912 C 0.60836 0.44666 0.09613 0.0
C1913 C 0.60416 0.52324 0.13422 0.0
C1914 C 0.6044 0.54353 0.1104 0.0
C1915 C 0.6126 0.52818 0.06977 0.0
C1916 C 0.62026 0.49189 0.05602 0.0
C1917 C 0.60765 0.50632 0.09155 0.0
C1918 C 0.61717 0.43336 0.05609 0.0
C1919 C 0.61167 0.41002 0.07701 0.0
H1920 H 0.35578 0.10896 0.9515 0.0
H1921 H 0.346 0.27811 0.92711 0.0
H1922 H 0.34753 0.31419 0.96855 0.0
H1923 H 0.35999 0.30218 1.00587 0.0
H1924 H 0.36989 0.13395 1.03019 0.0
H1925 H 0.35884 0.09159 0.99592 0.0
C1926 C 0.35326 0.15282 0.9556 0.0
C1927 C 0.35126 0.19159 0.93656 0.0
C1928 C 0.35427 0.17329 0.97949 0.0
C1929 C 0.3478 0.24809 0.94173 0.0
C1930 C 0.34872 0.26879 0.96541 0.0
C1931 C 0.35894 0.25611 1.00458 0.0
C1932 C 0.36712 0.22114 1.01797 0.0
C1933 C 0.35319 0.23279 0.98387 0.0
C1934 C 0.36463 0.16202 1.01825 0.0
C1935 C 0.35857 0.13757 0.99822 0.0
H1936 H 0.35752 0.55673 0.81944 0.0
H1937 H 0.36716 0.7262 0.7962 0.0
H1938 H 0.35779 0.76622 0.83278 0.0
H1939 H 0.35679 0.74561 0.87748 0.0
H1940 H 0.34812 0.57436 0.90099 0.0
H1941 H 0.34742 0.54171 0.859 0.0
C1942 C 0.35683 0.60271 0.8217 0.0
C1943 C 0.36458 0.63819 0.80754 0.0
C1944 C 0.3524 0.62434 0.84389 0.0
C1945 C 0.36237 0.69743 0.80861 0.0
C1946 C 0.35735 0.72045 0.82996 0.0
C1947 C 0.35409 0.702 0.87322 0.0
C1948 C 0.35289 0.66171 0.89199 0.0
C1949 C 0.3539 0.68339 0.84894 0.0
C1950 C 0.34925 0.6055 0.88659 0.0
C1951 C 0.34889 0.58681 0.86257 0.0
H1952 H 0.99256 0.65191 1.02109 0.0
H1953 H 0.98553 0.53872 0.08167 0.0
H1954 H 1.00599 0.49418 0.0759 0.0
H1955 H 0.02627 0.48621 0.05373 0.0
H1956 H 0.03329 0.59858 0.99291 0.0
H1957 H 0.01281 0.64337 0.99866 0.0
C1958 C 0.99541 0.61711 1.0329 0.0
C1959 C 0.98729 0.59949 0.05198 0.0
C1960 C 1.00741 0.5912 1.02952 0.0
C1961 C 0.99145 0.55434 0.06706 0.0
C1962 C 1.00324 0.52848 0.06374 0.0
C1963 C 0.02341 0.52091 0.04186 0.0
C1964 C 0.03155 0.53847 1.02282 0.0
C1965 C 0.0114 0.54668 0.04516 0.0
C1966 C 0.02737 0.58326 1.00757 0.0
C1967 C 0.01557 0.60919 1.01088 0.0
H1968 H 0.27591 0.80885 0.07349 0.0
H1969 H 0.27871 0.69559 1.01191 0.0
H1970 H 0.25837 0.72828 0.99708 0.0
H1971 H 0.23949 0.78912 1.00118 0.0
H1972 H 0.23666 0.90281 0.06262 0.0
H1973 H 0.25689 0.8693 0.07776 0.0
C1974 C 0.27206 0.79086 0.05693 0.0
C1975 C 0.27912 0.74986 0.04386 0.0
C1976 C 0.26016 0.80991 0.04834 0.0
C1977 C 0.2738 0.72785 1.02229 0.0
C1978 C 0.26204 0.74637 1.01377 0.0
C1979 C 0.24328 0.80696 1.01782 0.0
C1980 C 0.23626 0.84847 1.03067 0.0
C1981 C 0.25512 0.78765 1.02652 0.0
C1982 C 0.24152 0.87015 0.05238 0.0
C1983 C 0.25323 0.85122 0.06106 0.0
H1984 H 0.01961 0.87911 0.3208 0.0
H1985 H 0.04051 0.78955 0.26556 0.0
H1986 H 0.02108 0.74723 0.25021 0.0
H1987 H 0.99803 0.73333 0.25269 0.0
H1988 H 0.97709 0.82384 0.30764 0.0
H1989 H 0.9965 0.86624 0.32291 0.0
C1990 C 0.01999 0.85 0.30551 0.0
C1991 C 0.03174 0.83808 0.29448 0.0
C1992 C 0.00865 0.8253 0.29667 0.0
C1993 C 0.03176 0.80066 0.27439 0.0
C1994 C 0.02058 0.77595 0.26562 0.0
C1995 C 0.99761 0.7628 0.26784 0.0
C1996 C 0.98585 0.77461 0.2789 0.0
C1997 C 0.00894 0.78784 0.27657 0.0
C1998 C 0.98583 0.81256 0.29883 0.0
C1999 C 0.997 0.83737 0.30755 0.0
H2000 H 0.27503 0.63338 0.30092 0.0
H2001 H 0.27865 0.52625 0.23757 0.0
H2002 H 0.25798 0.48459 0.24556 0.0
H2003 H 0.23866 0.47702 0.27086 0.0
H2004 H 0.23516 0.5846 0.33411 0.0
H2005 H 0.25574 0.6264 0.32594 0.0
C2006 C 0.2714 0.60049 0.28895 0.0
C2007 C 0.27861 0.58343 0.26856 0.0
C2008 C 0.25936 0.57642 0.29363 0.0
C2009 C 0.27344 0.54115 0.25323 0.0
C2010 C 0.26155 0.51698 0.25784 0.0
C2011 C 0.24232 0.51003 0.28275 0.0
C2012 C 0.23518 0.52696 0.30326 0.0
C2013 C 0.25435 0.5343 0.27795 0.0
C2014 C 0.24033 0.56964 0.31842 0.0
C2015 C 0.25218 0.59392 0.31371 0.0
H2016 H 0.78803 0.31916 1.02392 0.0
H2017 H 0.77313 0.20232 0.07759 0.0
H2018 H 0.75195 0.23718 0.06971 0.0
H2019 H 0.73726 0.30043 0.04739 0.0
H2020 H 0.75207 0.41749 0.99374 0.0
H2021 H 0.77328 0.38254 1.00152 0.0
C2022 C 0.78017 0.30089 1.03381 0.0
C2023 C 0.78244 0.25811 0.05159 0.0
C2024 C 0.7678 0.32121 1.02912 0.0
C2025 C 0.77194 0.23585 0.06417 0.0
C2026 C 0.7597 0.25563 0.05956 0.0
C2027 C 0.7451 0.31881 1.0375 0.0
C2028 C 0.74281 0.36172 1.01979 0.0
C2029 C 0.75747 0.2985 0.04214 0.0
C2030 C 0.75329 0.38394 1.00714 0.0
C2031 C 0.76554 0.36409 1.01169 0.0
H2032 H 0.98529 0.32799 0.7989 0.0
H2033 H 0.99967 0.21443 0.74392 0.0
H2034 H 0.02107 0.2458 0.75274 0.0
H2035 H 0.03599 0.30532 0.77614 0.0
H2036 H 0.0216 0.42106 0.83037 0.0
H2037 H 1.00025 0.38859 0.82202 0.0
C2038 C 0.9931 0.30982 0.78894 0.0
C2039 C 0.99071 0.26895 0.7706 0.0
C2040 C 1.00554 0.32843 0.79403 0.0
C2041 C 1.00107 0.24647 0.75786 0.0
C2042 C 0.01339 0.26427 0.76297 0.0
C2043 C 0.02821 0.324 0.78602 0.0
C2044 C 0.03064 0.36556 0.8041 0.0
C2045 C 0.01578 0.30548 0.78094 0.0
C2046 C 0.02025 0.38829 0.81673 0.0
C2047 C 0.00793 0.36995 0.81185 0.0
H2048 H 0.77767 0.55759 0.74949 0.0
H2049 H 0.78258 0.66303 0.81309 0.0
H2050 H 0.76199 0.63374 0.82811 0.0
H2051 H 0.74231 0.57807 0.82356 0.0
H2052 H 0.73747 0.47188 0.76013 0.0
H2053 H 0.75791 0.50231 0.74482 0.0
C2054 C 0.77423 0.57462 0.76655 0.0
C2055 C 0.78193 0.61235 0.7801 0.0
C2056 C 0.76221 0.55758 0.77523 0.0
C2057 C 0.77714 0.63321 0.80231 0.0
C2058 C 0.76525 0.61668 0.81093 0.0
C2059 C 0.74571 0.56125 0.80644 0.0
C2060 C 0.73806 0.52289 0.79307 0.0
C2061 C 0.75768 0.57863 0.79766 0.0
C2062 C 0.74282 0.50233 0.77077 0.0
C2063 C 0.75465 0.51942 0.76199 0.0
H2064 H 0.987 1.04889 0.52336 0.0
H2065 H 1.0008 0.16431 0.57837 0.0
H2066 H 0.02223 0.13159 0.57119 0.0
H2067 H 0.03746 0.07027 0.54903 0.0
H2068 H 0.02355 0.95546 0.4939 0.0
H2069 H 1.00215 0.98801 0.50123 0.0
C2070 C 0.99468 0.06746 0.53365 0.0
C2071 C 0.99204 0.10917 0.55155 0.0
C2072 C 1.00716 1.04837 0.52939 0.0
C2073 C 1.0023 0.13167 0.56475 0.0
C2074 C 0.01467 0.11307 0.56058 0.0
C2075 C 0.02976 1.05202 0.53872 0.0
C2076 C 0.03235 1.01053 0.52069 0.0
C2077 C 0.01727 0.07119 0.54301 0.0
C2078 C 0.02207 0.98803 0.50756 0.0
C2079 C 0.00972 1.00653 0.51182 0.0
H2080 H 0.26628 0.23022 0.57135 0.0
H2081 H 0.28783 0.32784 0.51922 0.0
H2082 H 0.26861 0.37228 0.50417 0.0
H2083 H 0.24547 0.3852 0.50573 0.0
H2084 H 0.22394 0.28801 0.55802 0.0
H2085 H 0.24315 0.24332 0.57298 0.0
C2086 C 0.26686 0.26162 0.55686 0.0
C2087 C 0.27875 0.27488 0.54654 0.0
C2088 C 0.25562 0.28768 0.54817 0.0
C2089 C 0.27899 0.31545 0.52747 0.0
C2090 C 0.26792 0.34138 0.51885 0.0
C2091 C 0.2449 0.35387 0.52025 0.0
C2092 C 0.23302 0.34071 0.53063 0.0
C2093 C 0.25614 0.32783 0.52895 0.0
C2094 C 0.23278 0.30022 0.54972 0.0
C2095 C 0.24384 0.27418 0.5583 0.0
H2096 H 0.26768 0.14028 0.75587 0.0
H2097 H 0.29018 1.02832 0.80057 0.0
H2098 H 0.27125 0.98366 0.81679 0.0
H2099 H 0.24815 0.97522 0.81866 0.0
H2100 H 0.22543 0.08512 0.7736 0.0
H2101 H 0.24437 0.13058 0.75728 0.0
C2102 C 0.26847 0.10581 0.769 0.0
C2103 C 0.28052 0.08863 0.77707 0.0
C2104 C 0.25739 0.07961 0.77838 0.0
C2105 C 0.28116 1.04374 0.79424 0.0
C2106 C 0.27028 1.01776 0.80353 0.0
C2107 C 0.2473 1.00953 0.80546 0.0
C2108 C 0.23523 1.02648 0.79755 0.0
C2109 C 0.25832 1.03548 0.79592 0.0
C2110 C 0.23449 0.07054 0.78003 0.0
C2111 C 0.24538 0.0968 0.77066 0.0
H2112 H 0.75136 0.87808 0.50718 0.0
H2113 H 0.72967 0.78332 0.55999 0.0
H2114 H 0.74892 0.74115 0.57624 0.0
H2115 H 0.77213 0.72844 0.57503 0.0
H2116 H 0.79369 0.82408 0.52226 0.0
H2117 H 0.77449 0.86713 0.50656 0.0
C2118 C 0.75077 0.84792 0.52214 0.0
C2119 C 0.73885 0.83439 0.53217 0.0
C2120 C 0.762 0.82338 0.53152 0.0
C2121 C 0.73856 0.79562 0.55189 0.0
C2122 C 0.74963 0.77103 0.5612 0.0
C2123 C 0.77269 0.75917 0.56028 0.0
C2124 C 0.78457 0.7721 0.54987 0.0
C2125 C 0.76145 0.7844 0.55118 0.0
C2126 C 0.78484 0.81194 0.53054 0.0
C2127 C 0.77378 0.83704 0.52153 0.0
H2128 H 0.73694 0.05646 0.27478 0.0
H2129 H 0.75061 0.93932 0.3294 0.0
H2130 H 0.77213 0.9709 0.32167 0.0
H2131 H 0.78746 1.03199 0.29923 0.0
H2132 H 0.77358 0.14861 0.24458 0.0
H2133 H 0.75216 0.11659 0.25226 0.0
C2134 C 0.7446 1.0372 0.28487 0.0
C2135 C 0.74189 0.99539 0.30283 0.0
C2136 C 0.75713 0.05553 0.28026 0.0
C2137 C 0.75215 0.97208 0.31576 0.0
C2138 C 0.76457 0.99001 0.31125 0.0
C2139 C 0.77977 1.05063 0.28903 0.0
C2140 C 0.7824 0.09246 0.27102 0.0
C2141 C 0.76723 1.03195 0.2936 0.0
C2142 C 0.77211 0.11555 0.25813 0.0
C2143 C 0.75973 0.09746 0.26263 0.0
H2144 H 0.48226 0.54582 0.52521 0.0
H2145 H 0.49657 0.66968 0.5763 0.0
H2146 H 0.51798 0.63839 0.56815 0.0
H2147 H 0.53307 0.57602 0.54636 0.0
H2148 H 0.51881 0.45258 0.49507 0.0
H2149 H 0.49737 0.48384 0.5032 0.0
C2150 C 0.49004 0.56645 0.53444 0.0
C2151 C 0.48753 0.61008 0.55162 0.0
C2152 C 0.50255 0.54822 0.52959 0.0
C2153 C 0.49795 0.63542 0.56337 0.0
C2154 C 0.51032 0.61766 0.55861 0.0
C2155 C 0.52529 0.55551 0.53706 0.0
C2156 C 0.52781 0.51187 0.51991 0.0
C2157 C 0.51279 0.57386 0.54185 0.0
C2158 C 0.51741 0.48675 0.50803 0.0
C2159 C 0.50503 0.5045 0.51278 0.0
H2160 H 0.51866 0.88328 0.82073 0.0
H2161 H 0.53993 0.78993 0.76722 0.0
H2162 H 0.52059 0.74646 0.75189 0.0
H2163 H 0.49754 0.73278 0.75398 0.0
H2164 H 0.47623 0.82795 0.80695 0.0
H2165 H 0.49554 0.87123 0.82221 0.0
C2166 C 0.51912 0.85313 0.80582 0.0
C2167 C 0.53092 0.84028 0.79527 0.0
C2168 C 0.50785 0.82801 0.79695 0.0
C2169 C 0.5311 0.80155 0.77566 0.0
C2170 C 0.51999 0.77627 0.7669 0.0
C2171 C 0.49703 0.76347 0.76868 0.0
C2172 C 0.48521 0.77627 0.77924 0.0
C2173 C 0.50828 0.78907 0.77737 0.0
C2174 C 0.48503 0.81586 0.79857 0.0
C2175 C 0.49614 0.84116 0.80729 0.0
H2176 H 0.52545 0.30399 0.32402 0.0
H2177 H 0.5287 0.41798 0.26251 0.0
H2178 H 0.5084 0.3854 0.24725 0.0
H2179 H 0.48957 0.3243 0.25087 0.0
H2180 H 0.48645 0.20772 0.3116 0.0
H2181 H 0.50643 0.24236 0.32762 0.0
C2182 C 0.52169 0.32205 0.30737 0.0
C2183 C 0.52883 0.36334 0.29444 0.0
C2184 C 0.50987 0.30277 0.29846 0.0
C2185 C 0.52368 0.38561 0.27277 0.0
C2186 C 0.51196 0.36713 0.26402 0.0
C2187 C 0.49324 0.30587 0.26751 0.0
C2188 C 0.48622 0.26317 0.27986 0.0
C2189 C 0.50498 0.32543 0.27657 0.0
C2190 C 0.4913 0.24118 0.30169 0.0
C2191 C 0.50288 0.26073 0.31086 0.0
H2192 H 0.49175 0.13163 1.01938 0.0
H2193 H 0.4878 1.03393 0.08566 0.0
H2194 H 0.50824 0.99012 0.07887 0.0
H2195 H 0.52743 0.97758 0.05393 0.0
H2196 H 0.53142 0.07543 0.9877 0.0
H2197 H 0.511 0.11937 0.99451 0.0
C2198 C 0.49529 0.10052 1.03231 0.0
C2199 C 0.48806 0.08708 0.05322 0.0
C2200 C 0.5072 0.07476 1.02825 0.0
C2201 C 0.49307 1.04662 0.06967 0.0
C2202 C 0.50481 1.02097 0.06572 0.0
C2203 C 0.52391 1.00879 0.04102 0.0
C2204 C 0.53114 1.02216 1.0201 0.0
C2205 C 0.51202 1.03467 0.04511 0.0
C2206 C 0.52615 0.06276 1.00368 0.0
C2207 C 0.51442 0.08849 1.00765 0.0
H2208 H 0.07117 0.57329 0.17829 0.0
H2209 H 0.0737 0.63126 0.10373 0.0
H2210 H 0.0732 0.73006 0.11698 0.0
H2211 H 0.07417 0.80031 0.14979 0.0
H2212 H 0.0712 0.74342 0.22437 0.0
H2213 H 0.06954 0.64453 0.21098 0.0
C2214 C 0.07139 0.60754 0.16494 0.0
C2215 C 0.07262 0.59468 0.14013 0.0
C2216 C 0.07108 0.66474 0.17264 0.0
C2217 C 0.07281 0.63966 0.12302 0.0
C2218 C 0.07257 0.69642 0.13054 0.0
C2219 C 0.07295 0.76637 0.16308 0.0
C2220 C 0.07297 0.77923 0.18798 0.0
C2221 C 0.07202 0.70947 0.15532 0.0
C2222 C 0.07127 0.73479 0.20501 0.0
C2223 C 0.07037 0.67805 0.19742 0.0
H2224 H 0.18042 0.56899 0.15052 0.0
H2225 H 0.18283 0.62734 0.22471 0.0
H2226 H 0.18337 0.72663 0.21088 0.0
H2227 H 0.18199 0.79747 0.17761 0.0
H2228 H 0.18136 0.73902 0.10331 0.0
H2229 H 0.18138 0.63963 0.1171 0.0
C2230 C 0.18124 0.60355 0.16356 0.0
C2231 C 0.1816 0.59104 0.18853 0.0
C2232 C 0.18183 0.6606 0.15545 0.0
C2233 C 0.18269 0.63599 0.20534 0.0
C2234 C 0.18291 0.69281 0.19746 0.0
C2235 C 0.18202 0.76283 0.16452 0.0
C2236 C 0.18169 0.77534 0.13955 0.0
C2237 C 0.18233 0.7057 0.17257 0.0
C2238 C 0.18176 0.7303 0.12266 0.0
C2239 C 0.18169 0.67346 0.13052 0.0
H2240 H 0.93465 0.5581 0.89737 0.0
H2241 H 0.93888 0.50017 0.97146 0.0
H2242 H 0.94142 0.40185 0.95749 0.0
H2243 H 0.94121 0.33113 0.92426 0.0
H2244 H 0.93854 0.38957 0.84998 0.0
H2245 H 0.93673 0.4884 0.86383 0.0
C2246 C 0.93628 0.52395 0.91037 0.0
C2247 C 0.93657 0.53638 0.93538 0.0
C2248 C 0.938 0.46746 0.90216 0.0
C2249 C 0.93874 0.49181 0.95208 0.0
C2250 C 0.94012 0.43547 0.94412 0.0
C2251 C 0.94044 0.36568 0.91114 0.0
C2252 C 0.94003 0.35304 0.88616 0.0
C2253 C 0.93963 0.42264 0.91923 0.0
C2254 C 0.93904 0.39818 0.86932 0.0
C2255 C 0.9379 0.45474 0.87723 0.0
H2256 H 0.83376 0.35957 0.94611 0.0
H2257 H 0.8361 0.24295 0.88561 0.0
H2258 H 0.83406 0.32271 0.8571 0.0
H2259 H 0.83276 0.42552 0.84924 0.0
H2260 H 0.83195 0.54379 0.90935 0.0
H2261 H 0.8322 0.46356 0.9381 0.0
C2262 C 0.83364 0.35158 0.92669 0.0
C2263 C 0.83498 0.2952 0.918 0.0
C2264 C 0.83281 0.39801 0.91033 0.0
C2265 C 0.83505 0.28577 0.89277 0.0
C2266 C 0.8339 0.33142 0.87646 0.0
C2267 C 0.83248 0.43396 0.86862 0.0
C2268 C 0.83224 0.49082 0.87706 0.0
C2269 C 0.83293 0.38773 0.88501 0.0
C2270 C 0.83205 0.50059 0.90229 0.0
C2271 C 0.83223 0.45466 0.91876 0.0
H2272 H 0.06538 0.24679 0.68081 0.0
H2273 H 0.10074 0.23444 0.71895 0.0
H2274 H 0.10574 0.14712 0.69729 0.0
H2275 H 0.10065 0.0761 0.6666 0.0
H2276 H 0.06569 0.08645 0.62711 0.0
H2277 H 0.0599 0.17188 0.65036 0.0
C2278 C 0.07411 0.2246 0.68452 0.0
C2279 C 0.08272 0.24768 0.7014 0.0
C2280 C 0.07701 0.17392 0.67173 0.0
C2281 C 0.09402 0.21842 0.70586 0.0
C2282 C 0.09688 0.16815 0.69352 0.0
C2283 C 0.0917 0.09662 0.6631 0.0
C2284 C 0.08364 0.07473 0.64505 0.0
C2285 C 0.08854 0.14588 0.67624 0.0
C2286 C 0.07209 0.1022 0.6409 0.0
C2287 C 0.06879 0.15122 0.65416 0.0
H2288 H 0.18414 0.06666 0.6493 0.0
H2289 H 0.19052 0.12331 0.72286 0.0
H2290 H 0.18922 0.22302 0.70961 0.0
H2291 H 0.18493 0.29462 0.67726 0.0
H2292 H 0.17998 0.23716 0.60337 0.0
H2293 H 0.18205 0.1379 0.6165 0.0
C2294 C 0.18547 0.10087 0.66234 0.0
C2295 C 0.18744 0.08744 0.68701 0.0
C2296 C 0.18485 0.15822 0.65454 0.0
C2297 C 0.18915 0.13232 0.7037 0.0
C2298 C 0.18828 0.18946 0.69617 0.0
C2299 C 0.18443 0.2603 0.66406 0.0
C2300 C 0.18228 0.27332 0.63938 0.0
C2301 C 0.18593 0.203 0.67168 0.0
C2302 C 0.18173 0.22842 0.62244 0.0
C2303 C 0.18286 0.17153 0.62995 0.0
H2304 H 0.92815 1.03866 0.39634 0.0
H2305 H 0.93975 0.98596 0.46814 0.0
H2306 H 0.94031 0.88637 0.45511 0.0
H2307 H 0.93644 0.81305 0.42366 0.0
H2308 H 0.92693 0.86648 0.35091 0.0
H2309 H 0.92662 0.96651 0.36375 0.0
C2310 C 0.93097 1.00535 0.40897 0.0
C2311 C 0.93387 1.01956 0.43312 0.0
C2312 C 0.93158 0.94816 0.40119 0.0
C2313 C 0.93757 0.97614 0.44935 0.0
C2314 C 0.93781 0.91907 0.44198 0.0
C2315 C 0.93446 0.84685 0.41067 0.0
C2316 C 0.93169 0.83287 0.38648 0.0
C2317 C 0.93469 0.90443 0.41802 0.0
C2318 C 0.92917 0.87665 0.36964 0.0
C2319 C 0.92895 0.93375 0.37698 0.0
H2320 H 0.82873 0.80827 0.39812 0.0
H2321 H 0.8213 0.86237 0.47171 0.0
H2322 H 0.81927 0.96125 0.45799 0.0
H2323 H 0.82152 1.03372 0.42551 0.0
H2324 H 0.82866 0.97779 0.35194 0.0
H2325 H 0.82884 0.87888 0.36528 0.0
C2326 C 0.82647 0.84154 0.41111 0.0
C2327 C 0.82526 0.82793 0.43588 0.0
C2328 C 0.82536 0.89835 0.40315 0.0
C2329 C 0.82227 0.87156 0.45248 0.0
C2330 C 0.82117 0.92829 0.44468 0.0
C2331 C 0.82291 0.99983 0.41236 0.0
C2332 C 0.82515 1.01351 0.38781 0.0
C2333 C 0.82299 0.94241 0.42012 0.0
C2334 C 0.82691 0.96889 0.37099 0.0
C2335 C 0.82706 0.91203 0.37858 0.0
H2336 H 0.5684 0.59045 0.66851 0.0
H2337 H 0.58778 0.64329 0.60302 0.0
H2338 H 0.58826 0.7411 0.61708 0.0
H2339 H 0.58423 0.81175 0.64841 0.0
H2340 H 0.56505 0.76218 0.71433 0.0
H2341 H 0.56324 0.664 0.69946 0.0
C2342 C 0.57264 0.62346 0.65729 0.0
C2343 C 0.57806 0.60899 0.63477 0.0
C2344 C 0.57289 0.68063 0.66546 0.0
C2345 C 0.58351 0.65258 0.62046 0.0
C2346 C 0.58381 0.70893 0.62844 0.0
C2347 C 0.57949 0.77974 0.65943 0.0
C2348 C 0.57482 0.79441 0.68244 0.0
C2349 C 0.57864 0.72338 0.65095 0.0
C2350 C 0.5687 0.75222 0.69645 0.0
C2351 C 0.56774 0.69587 0.68803 0.0
H2352 H 0.68179 0.68775 0.59691 0.0
H2353 H 0.7017 0.79355 0.64824 0.0
H2354 H 0.70044 0.71693 0.67878 0.0
H2355 H 0.69244 0.62114 0.69168 0.0
H2356 H 0.67176 0.51921 0.63987 0.0
H2357 H 0.67456 0.59276 0.60896 0.0
C2358 C 0.68608 0.6939 0.61461 0.0
C2359 C 0.6919 0.74647 0.62016 0.0
C2360 C 0.68505 0.65025 0.6322 0.0
C2361 C 0.69723 0.75353 0.64339 0.0
C2362 C 0.69644 0.70974 0.66091 0.0
C2363 C 0.6887 0.61478 0.67353 0.0
C2364 C 0.6819 0.56434 0.66822 0.0
C2365 C 0.6902 0.65808 0.65567 0.0
C2366 C 0.677 0.55736 0.64462 0.0
C2367 C 0.6786 0.59951 0.62684 0.0
H2368 H 0.43759 0.30733 0.42491 0.0
H2369 H 0.43615 0.36726 0.35064 0.0
H2370 H 0.43298 0.46488 0.36465 0.0
H2371 H 0.4296 0.53356 0.39815 0.0
H2372 H 0.43272 0.47491 0.47232 0.0
H2373 H 0.43625 0.37723 0.4583 0.0
C2374 C 0.43679 0.34186 0.4118 0.0
C2375 C 0.43704 0.32957 0.38674 0.0
C2376 C 0.43517 0.39844 0.41999 0.0
C2377 C 0.43601 0.37511 0.37004 0.0
C2378 C 0.43413 0.43116 0.37803 0.0
C2379 C 0.43114 0.49936 0.41117 0.0
C2380 C 0.43088 0.51142 0.43621 0.0
C2381 C 0.43351 0.44331 0.40296 0.0
C2382 C 0.43298 0.46682 0.45292 0.0
C2383 C 0.43496 0.41085 0.44493 0.0
H2384 H 0.31801 0.53766 0.42134 0.0
H2385 H 0.32352 0.47454 0.34837 0.0
H2386 H 0.32346 0.3766 0.36336 0.0
H2387 H 0.32325 0.3086 0.39737 0.0
H2388 H 0.31814 0.37102 0.47052 0.0
H2389 H 0.31655 0.46873 0.45526 0.0
C2390 C 0.31898 0.50244 0.40868 0.0
C2391 C 0.32077 0.5137 0.38377 0.0
C2392 C 0.31907 0.44576 0.41745 0.0
C2393 C 0.32216 0.46738 0.36767 0.0
C2394 C 0.32214 0.41114 0.37621 0.0
C2395 C 0.32157 0.34341 0.40994 0.0
C2396 C 0.32081 0.33226 0.43504 0.0
C2397 C 0.3208 0.39979 0.40109 0.0
C2398 C 0.31878 0.37818 0.45107 0.0
C2399 C 0.31788 0.43425 0.44238 0.0
H2400 H 0.56835 0.1655 0.11207 0.0
H2401 H 0.58757 1.04561 0.15892 0.0
H2402 H 0.59128 0.12073 0.18862 0.0
H2403 H 0.59135 0.22254 0.19893 0.0
H2404 H 0.57188 0.34309 0.15326 0.0
H2405 H 0.56584 0.26562 0.1254 0.0
C2406 C 0.57313 0.15566 0.129 0.0
C2407 C 0.57782 0.1003 0.13312 0.0
C2408 C 0.57527 0.19921 0.14605 0.0
C2409 C 0.58388 0.08789 0.15524 0.0
C2410 C 0.58608 0.1309 0.17221 0.0
C2411 C 0.58558 0.2314 0.18308 0.0
C2412 C 0.58207 0.28778 0.17782 0.0
C2413 C 0.58217 0.18695 0.16742 0.0
C2414 C 0.57458 0.29955 0.15748 0.0
C2415 C 0.57122 0.25544 0.14158 0.0
H2416 H 0.66976 0.24222 0.1387 0.0
H2417 H 0.70478 0.32419 0.1571 0.0
H2418 H 0.71049 0.24233 0.18295 0.0
H2419 H 0.70498 0.14858 0.20155 0.0
H2420 H 0.67071 0.06416 0.17969 0.0
H2421 H 0.6653 0.14531 0.15377 0.0
C2422 C 0.67865 0.24205 0.14838 0.0
C2423 C 0.68676 0.28939 0.14641 0.0
C2424 C 0.68201 0.19421 0.16246 0.0
C2425 C 0.69837 0.28827 0.15853 0.0
C2426 C 0.70161 0.24152 0.17328 0.0
C2427 C 0.69643 0.14775 0.19082 0.0
C2428 C 0.68828 0.1003 0.19252 0.0
C2429 C 0.69346 0.19437 0.17554 0.0
C2430 C 0.67723 0.09971 0.17849 0.0
C2431 C 0.67406 0.14638 0.16382 0.0
H2432 H 0.4331 0.97509 0.95638 0.0
H2433 H 0.429 0.06831 0.88909 0.0
H2434 H 0.43012 0.97881 0.86614 0.0
H2435 H 0.43118 0.87335 0.86535 0.0
H2436 H 0.43302 0.77989 0.93295 0.0
H2437 H 0.43396 0.86981 0.95563 0.0
C2438 C 0.43265 0.97586 0.93667 0.0
C2439 C 0.43113 1.02839 0.92443 0.0
C2440 C 0.43286 0.92401 0.92367 0.0
C2441 C 0.43023 1.02851 0.89892 0.0
C2442 C 0.43086 0.97732 0.8858 0.0
C2443 C 0.43201 0.87278 0.88502 0.0
C2444 C 0.43224 0.82004 0.89746 0.0
C2445 C 0.43205 0.92472 0.89798 0.0
C2446 C 0.43293 0.81991 0.92298 0.0
C2447 C 0.43344 0.87133 0.93594 0.0
H2448 H 0.34018 0.95962 0.87125 0.0
H2449 H 0.32329 0.08239 0.91933 0.0
H2450 H 0.31747 1.00533 0.94772 0.0
H2451 H 0.31955 0.90466 0.96061 0.0
H2452 H 0.33656 0.78277 0.91181 0.0
H2453 H 0.33981 0.85774 0.88164 0.0
C2454 C 0.33499 0.96908 0.88774 0.0
C2455 C 0.33213 1.02591 0.89345 0.0
C2456 C 0.33179 0.92489 0.90379 0.0
C2457 C 0.32544 1.03849 0.91469 0.0
C2458 C 0.32222 0.9946 0.9309 0.0
C2459 C 0.32375 0.89435 0.94319 0.0
C2460 C 0.32795 0.83842 0.93861 0.0
C2461 C 0.32567 0.93784 0.92593 0.0
C2462 C 0.33327 0.82549 0.91587 0.0
C2463 C 0.3352 0.8684 0.89862 0.0
H2464 H 0.15534 0.73259 0.07381 0.0
H2465 H 0.12704 0.83282 0.10994 0.0
H2466 H 0.11293 0.75053 0.11074 0.0
H2467 H 0.10816 0.64696 0.10194 0.0
H2468 H 0.13671 0.54644 0.06666 0.0
H2469 H 0.15055 0.62955 0.06486 0.0
C2470 C 0.14611 0.73677 0.08193 0.0
C2471 C 0.14254 0.79082 0.09175 0.0
C2472 C 0.13776 0.68795 0.08245 0.0
C2473 C 0.13036 0.79324 0.10209 0.0
C2474 C 0.12213 0.74549 0.10257 0.0
C2475 C 0.11731 0.64314 0.09345 0.0
C2476 C 0.12104 0.58874 0.08417 0.0
C2477 C 0.12562 0.6922 0.09277 0.0
C2478 C 0.13324 0.58644 0.07389 0.0
C2479 C 0.14133 0.63457 0.0729 0.0
H2480 H 0.15559 0.64174 0.2552 0.0
H2481 H 0.12769 0.54317 0.21683 0.0
H2482 H 0.11392 0.62596 0.21489 0.0
H2483 H 0.10918 0.72892 0.22368 0.0
H2484 H 0.13743 0.82968 0.25999 0.0
H2485 H 0.15106 0.74608 0.26298 0.0
C2486 C 0.14653 0.63805 0.24632 0.0
C2487 C 0.14288 0.58389 0.23652 0.0
C2488 C 0.13839 0.68751 0.24494 0.0
C2489 C 0.13096 0.58243 0.22505 0.0
C2490 C 0.12295 0.63054 0.22383 0.0
C2491 C 0.11824 0.73279 0.23258 0.0
C2492 C 0.12192 0.78724 0.2419 0.0
C2493 C 0.12642 0.68363 0.23383 0.0
C2494 C 0.134 0.78958 0.25272 0.0
C2495 C 0.14196 0.74115 0.2544 0.0
H2496 H 0.89103 0.32214 1.00545 0.0
H2497 H 0.85612 0.37769 0.97344 0.0
H2498 H 0.86462 0.47419 0.96888 0.0
H2499 H 0.88202 0.54639 0.97405 0.0
H2500 H 0.91688 0.49198 1.00627 0.0
H2501 H 0.90853 0.39463 1.01036 0.0
C2502 C 0.88517 0.35516 0.99756 0.0
C2503 C 0.87265 0.34044 0.99005 0.0
C2504 C 0.89022 0.41246 0.99496 0.0
C2505 C 0.86561 0.38565 0.9797 0.0
C2506 C 0.87054 0.44182 0.97703 0.0
C2507 C 0.88783 0.51359 0.98214 0.0
C2508 C 0.90024 0.52885 0.99 0.0
C2509 C 0.88283 0.45632 0.98463 0.0
C2510 C 0.90739 0.48367 1.00005 0.0
C2511 C 0.90254 0.42713 1.00244 0.0
H2512 H 0.86483 0.46822 0.8123 0.0
H2513 H 0.8936 0.57295 0.84518 0.0
H2514 H 0.90817 0.49332 0.84449 0.0
H2515 H 0.91341 0.3924 0.83487 0.0
H2516 H 0.88554 0.28751 0.79963 0.0
H2517 H 0.87054 0.36665 0.80086 0.0
C2518 C 0.87427 0.47383 0.81931 0.0
C2519 C 0.87784 0.52829 0.82876 0.0
C2520 C 0.88306 0.42689 0.81836 0.0
C2521 C 0.89031 0.53296 0.83755 0.0
C2522 C 0.8988 0.48683 0.83724 0.0
C2523 C 0.90411 0.38666 0.82721 0.0
C2524 C 0.9009 0.33274 0.81699 0.0
C2525 C 0.89539 0.4334 0.82763 0.0
C2526 C 0.8886 0.32769 0.80741 0.0
C2527 C 0.87987 0.3734 0.80822 0.0
H2528 H 0.11059 0.13102 0.59803 0.0
H2529 H 0.13959 1.04506 0.55746 0.0
H2530 H 0.15252 0.13103 0.5583 0.0
H2531 H 0.15624 0.2331 0.57049 0.0
H2532 H 0.12749 0.31852 0.61187 0.0
H2533 H 0.1144 0.23294 0.6106 0.0
C2534 C 0.11969 0.13084 0.58919 0.0
C2535 C 0.12379 0.07972 0.5775 0.0
C2536 C 0.12743 0.18166 0.58989 0.0
C2537 C 0.13585 0.08226 0.56659 0.0
C2538 C 0.1434 0.13215 0.56705 0.0
C2539 C 0.14712 0.23334 0.57925 0.0
C2540 C 0.14314 0.28406 0.59134 0.0
C2541 C 0.13939 0.18251 0.57864 0.0
C2542 C 0.13114 0.28144 0.60251 0.0
C2543 C 0.12349 0.23184 0.60175 0.0
H2544 H 0.1381 0.08492 0.78031 0.0
H2545 H 0.16188 0.10893 0.71742 0.0
H2546 H 0.15176 0.19932 0.70869 0.0
H2547 H 0.13566 0.2723 0.71719 0.0
H2548 H 0.11228 0.25527 0.78069 0.0
H2549 H 0.1226 0.16398 0.79064 0.0
C2550 C 0.14116 0.10997 0.76479 0.0
C2551 C 0.15099 0.08825 0.74968 0.0
C2552 C 0.13527 0.16433 0.75979 0.0
C2553 C 0.15458 0.12293 0.72972 0.0
C2554 C 0.14869 0.17536 0.72452 0.0
C2555 C 0.13285 0.24927 0.73345 0.0
C2556 C 0.12308 0.27216 0.74813 0.0
C2557 C 0.13897 0.19661 0.73923 0.0
C2558 C 0.11977 0.24026 0.76903 0.0
C2559 C 0.12567 0.18731 0.77466 0.0
H2560 H 0.89009 0.80655 0.48716 0.0
H2561 H 0.85273 0.87612 0.48169 0.0
H2562 H 0.86152 0.97302 0.48052 0.0
H2563 H 0.88005 1.04071 0.48068 0.0
H2564 H 0.91722 0.97068 0.48842 0.0
H2565 H 0.90844 0.87396 0.48873 0.0
C2566 C 0.88377 0.84266 0.4859 0.0
C2567 C 0.87053 0.83206 0.4847 0.0
C2568 C 0.88898 0.89962 0.48546 0.0
C2569 C 0.86283 0.8811 0.48295 0.0
C2570 C 0.86793 0.93729 0.48215 0.0
C2571 C 0.88627 1.00449 0.48255 0.0
C2572 C 0.8995 1.01489 0.48451 0.0
C2573 C 0.88102 0.94755 0.48334 0.0
C2574 C 0.90714 0.96584 0.48683 0.0
C2575 C 0.90205 0.90974 0.48708 0.0
H2576 H 0.90704 0.88125 0.3238 0.0
H2577 H 0.87709 0.77716 0.35297 0.0
H2578 H 0.8633 0.85989 0.35417 0.0
H2579 H 0.85921 0.96464 0.34773 0.0
H2580 H 0.88929 0.0694 0.31966 0.0
H2581 H 0.90295 0.98601 0.31735 0.0
C2582 C 0.89753 0.87635 0.33054 0.0
C2583 C 0.89342 0.82107 0.33827 0.0
C2584 C 0.88935 0.92547 0.33131 0.0
C2585 C 0.88085 0.8177 0.34677 0.0
C2586 C 0.87279 0.86569 0.34747 0.0
C2587 C 0.86867 0.96938 0.34069 0.0
C2588 C 0.87289 1.02492 0.33359 0.0
C2589 C 0.87683 0.92019 0.33975 0.0
C2590 C 0.88546 1.02842 0.32516 0.0
C2591 C 0.89343 0.98014 0.32389 0.0
H2592 H 0.60997 0.65061 0.57721 0.0
H2593 H 0.64227 0.53968 0.57543 0.0
H2594 H 0.65622 0.62212 0.57561 0.0
H2595 H 0.65996 0.72804 0.57789 0.0
H2596 H 0.62771 0.83919 0.57845 0.0
H2597 H 0.61372 0.75684 0.57703 0.0
C2598 C 0.62004 0.64406 0.57648 0.0
C2599 C 0.62472 0.5869 0.57618 0.0
C2600 C 0.62836 0.69304 0.57645 0.0
C2601 C 0.638 0.58164 0.57557 0.0
C2602 C 0.64617 0.6295 0.57572 0.0
C2603 C 0.6499 0.73469 0.57722 0.0
C2604 C 0.64522 0.79178 0.57816 0.0
C2605 C 0.64157 0.68582 0.57632 0.0
C2606 C 0.63195 0.79722 0.57769 0.0
C2607 C 0.62377 0.74942 0.57693 0.0
H2608 H 0.62798 0.578 0.72425 0.0
H2609 H 0.6626 0.64325 0.75394 0.0
H2610 H 0.65289 0.73731 0.75919 0.0
H2611 H 0.63424 0.80381 0.75606 0.0
H2612 H 0.5998 0.73812 0.72555 0.0
H2613 H 0.60953 0.64457 0.72042 0.0
C2614 C 0.63349 0.61251 0.73191 0.0
C2615 C 0.64626 0.60131 0.73869 0.0
C2616 C 0.62771 0.66791 0.73507 0.0
C2617 C 0.6529 0.6485 0.74845 0.0
C2618 C 0.64726 0.70311 0.75157 0.0
C2619 C 0.62876 0.76915 0.74842 0.0
C2620 C 0.61599 0.78016 0.74144 0.0
C2621 C 0.6346 0.71378 0.74514 0.0
C2622 C 0.60945 0.73296 0.73144 0.0
C2623 C 0.61511 0.67855 0.72835 0.0
H2624 H 0.405 0.46795 0.49895 0.0
H2625 H 0.37365 0.5745 0.47931 0.0
H2626 H 0.35946 0.4925 0.48246 0.0
H2627 H 0.35538 0.38756 0.48957 0.0
H2628 H 0.38713 0.27976 0.50573 0.0
H2629 H 0.40099 0.36271 0.50547 0.0
C2630 C 0.39507 0.47379 0.49546 0.0
C2631 C 0.39069 0.52968 0.48902 0.0
C2632 C 0.38667 0.4249 0.49692 0.0
C2633 C 0.37762 0.53367 0.4844 0.0
C2634 C 0.36933 0.48614 0.48633 0.0
C2635 C 0.36527 0.3819 0.49359 0.0
C2636 C 0.36985 0.32513 0.4978 0.0
C2637 C 0.37363 0.43108 0.49264 0.0
C2638 C 0.38294 0.32116 0.50236 0.0
C2639 C 0.39107 0.36938 0.50211 0.0
H2640 H 0.37814 0.30904 0.31877 0.0
H2641 H 0.41473 0.38143 0.33253 0.0
H2642 H 0.40552 0.47683 0.33467 0.0
H2643 H 0.38683 0.54169 0.33542 0.0
H2644 H 0.35016 0.47109 0.32091 0.0
H2645 H 0.35948 0.37579 0.3165 0.0
C2646 C 0.3842 0.34567 0.3217 0.0
C2647 C 0.39739 0.33608 0.32545 0.0
C2648 C 0.3787 0.40206 0.32313 0.0
C2649 C 0.40474 0.38561 0.32939 0.0
C2650 C 0.39937 0.44093 0.33086 0.0
C2651 C 0.38079 0.50588 0.33093 0.0
C2652 C 0.36757 0.5157 0.32838 0.0
C2653 C 0.38632 0.45003 0.32818 0.0
C2654 C 0.36024 0.46692 0.32274 0.0
C2655 C 0.36564 0.41159 0.3203 0.0
H2656 H 0.63144 0.30456 0.0874 0.0
H2657 H 0.66873 0.23314 0.08573 0.0
H2658 H 0.65983 0.13673 0.08522 0.0
H2659 H 0.64143 0.06987 0.0852 0.0
H2660 H 0.60404 0.1403 0.08615 0.0
H2661 H 0.61289 0.23713 0.08679 0.0
C2662 C 0.63769 0.2681 0.08694 0.0
C2663 C 0.65098 0.27803 0.0866 0.0
C2664 C 0.6324 0.21119 0.08634 0.0
C2665 C 0.6586 0.22867 0.08591 0.0
C2666 C 0.65346 0.17273 0.08562 0.0
C2667 C 0.63512 0.10613 0.08534 0.0
C2668 C 0.62186 0.0958 0.08537 0.0
C2669 C 0.64036 0.16299 0.08573 0.0
C2670 C 0.61417 0.14504 0.08581 0.0
C2671 C 0.61929 0.2012 0.0863 0.0
H2672 H 0.63004 0.06993 0.24327 0.0
H2673 H 0.66751 0.13535 0.23216 0.0
H2674 H 0.65927 0.23289 0.23054 0.0
H2675 H 0.64129 0.30235 0.23198 0.0
H2676 H 0.60393 0.23727 0.24487 0.0
H2677 H 0.61216 0.13971 0.24614 0.0
C2678 C 0.63647 0.10531 0.24048 0.0
C2679 C 0.64959 0.09338 0.23778 0.0
C2680 C 0.63161 0.16283 0.24002 0.0
C2681 C 0.65749 0.14142 0.23438 0.0
C2682 C 0.65272 0.19799 0.23344 0.0
C2683 C 0.63488 0.26714 0.23534 0.0
C2684 C 0.6218 0.27926 0.23855 0.0
C2685 C 0.63978 0.20971 0.23628 0.0
C2686 C 0.61395 0.23128 0.24264 0.0
C2687 C 0.6187 0.17463 0.24324 0.0
H2688 H 0.36013 0.88245 0.97179 0.0
H2689 H 0.38924 0.78326 1.00624 0.0
H2690 H 0.40269 0.86768 1.0085 0.0
H2691 H 0.40695 0.97093 0.99979 0.0
H2692 H 0.37814 0.07018 0.96444 0.0
H2693 H 0.36433 0.98673 0.9635 0.0
C2694 C 0.3693 0.87935 0.98026 0.0
C2695 C 0.37337 0.82517 0.98919 0.0
C2696 C 0.37735 0.929 0.9811 0.0
C2697 C 0.38557 0.82335 0.99938 0.0
C2698 C 0.39341 0.8721 1.00058 0.0
C2699 C 0.39767 0.9746 0.99182 0.0
C2700 C 0.39384 1.02841 0.9822 0.0
C2701 C 0.38954 0.92534 0.99128 0.0
C2702 C 0.38162 1.03053 0.97206 0.0
C2703 C 0.37358 0.98222 0.97153 0.0
H2704 H 0.40778 0.88402 0.82353 0.0
H2705 H 0.37795 0.78513 0.85625 0.0
H2706 H 0.36437 0.86857 0.85629 0.0
H2707 H 0.36053 0.97213 0.84797 0.0
H2708 H 0.39059 0.07379 0.81818 0.0
H2709 H 0.40401 0.98894 0.81592 0.0
C2710 C 0.39833 0.88047 0.83071 0.0
C2711 C 0.3941 0.8264 0.83965 0.0
C2712 C 0.39032 0.93013 0.83099 0.0
C2713 C 0.3817 0.82465 0.84894 0.0
C2714 C 0.37379 0.873 0.849 0.0
C2715 C 0.3699 0.97566 0.84041 0.0
C2716 C 0.37422 1.03025 0.8325 0.0
C2717 C 0.37789 0.92621 0.83998 0.0
C2718 C 0.38672 1.033 0.82385 0.0
C2719 C 0.39452 0.98408 0.82275 0.0
loop_
_geom_bond_atom_site_label_1
_geom_bond_atom_site_label_2
_geom_bond_distance
_geom_bond_site_symmetry_2
_ccdc_geom_bond_type
O0 Tb1 2.292 . S
O0 C3 1.255 . S
Tb1 O0 2.292 . S
Tb1 O17 2.326 . S
Tb1 O19 2.500 . S
Tb1 O20 2.473 . S
Tb1 O23 2.324 . S
Eu2 O6 2.292 . S
Eu2 C7 2.852 . S
Eu2 O18 2.324 . S
Eu2 O22 2.326 . S
Eu2 O24 2.500 . S
Eu2 O25 2.473 . S
C3 O0 1.255 . S
C3 O4 1.247 . S
O4 C3 1.247 . S
C5 O17 1.242 . S
C5 O18 1.258 . S
O6 Eu2 2.292 . S
O6 C8 1.255 . S
C7 Eu2 2.852 . S
C7 C11 1.503 . S
C7 O24 1.273 . S
C7 O25 1.257 . S
C8 O6 1.255 . S
C8 O9 1.247 . S
O9 C8 1.247 . S
C10 O22 1.242 . S
C10 O23 1.258 . S
C11 C7 1.503 . S
C11 C12 1.379 1_554 S
C11 C16 1.392 1_554 S
C12 C11 1.379 1_556 S
C12 C13 1.404 . S
C12 H26 0.929 . S
C13 C12 1.404 . S
C13 C14 1.389 . S
C14 C13 1.389 . S
C14 C15 1.399 . S
C14 H27 0.931 . S
C15 C14 1.399 . S
C15 C16 1.390 . S
C16 C11 1.392 1_556 S
C16 C15 1.390 . S
C16 H28 0.929 1_556 S
O17 Tb1 2.326 . S
O17 C5 1.242 . S
O18 Eu2 2.324 . S
O18 C5 1.258 . S
O19 Tb1 2.500 . S
O19 C21 1.273 . S
O20 Tb1 2.473 . S
O20 C21 1.257 . S
C21 O19 1.273 . S
C21 O20 1.257 . S
O22 Eu2 2.326 . S
O22 C10 1.242 . S
O23 Tb1 2.324 . S
O23 C10 1.258 . S
O24 Eu2 2.500 . S
O24 C7 1.273 . S
O25 Eu2 2.473 . S
O25 C7 1.257 . S
H26 C12 0.929 . S
H27 C14 0.931 . S
H28 C16 0.929 1_554 S
O29 Tb30 2.292 . S
O29 C32 1.255 1_565 S
Tb30 O29 2.292 . S
Tb30 O46 2.326 . S
Tb30 O48 2.500 . S
Tb30 O49 2.473 . S
Tb30 O52 2.324 . S
Eu31 O35 2.292 . S
Eu31 C36 2.852 . S
Eu31 O47 2.324 . S
Eu31 O51 2.326 . S
Eu31 O53 2.500 . S
Eu31 O54 2.473 . S
C32 O29 1.255 1_545 S
C32 O33 1.247 . S
O33 C32 1.247 . S
C34 O46 1.242 . S
C34 O47 1.258 . S
O35 Eu31 2.292 . S
O35 C37 1.255 . S
C36 Eu31 2.852 . S
C36 C40 1.503 . S
C36 O53 1.273 . S
C36 O54 1.257 . S
C37 O35 1.255 . S
C37 O38 1.247 . S
O38 C37 1.247 . S
C39 O51 1.242 . S
C39 O52 1.258 . S
C40 C36 1.503 . S
C40 C41 1.379 1_554 S
C40 C45 1.392 1_554 S
C41 C40 1.379 1_556 S
C41 C42 1.404 . S
C41 H55 0.929 . S
C42 C41 1.404 . S
C42 C43 1.389 . S
C43 C42 1.389 . S
C43 C44 1.399 . S
C43 H56 0.931 . S
C44 C43 1.399 . S
C44 C45 1.390 . S
C45 C40 1.392 1_556 S
C45 C44 1.390 . S
C45 H57 0.929 1_556 S
O46 Tb30 2.326 . S
O46 C34 1.242 . S
O47 Eu31 2.324 . S
O47 C34 1.258 . S
O48 Tb30 2.500 . S
O48 C50 1.273 . S
O49 Tb30 2.473 . S
O49 C50 1.257 . S
C50 O48 1.273 . S
C50 O49 1.257 . S
O51 Eu31 2.326 . S
O51 C39 1.242 . S
O52 Tb30 2.324 . S
O52 C39 1.258 . S
O53 Eu31 2.500 . S
O53 C36 1.273 . S
O54 Eu31 2.473 . S
O54 C36 1.257 . S
H55 C41 0.929 . S
H56 C43 0.931 . S
H57 C45 0.929 1_554 S
O58 Tb59 2.292 . S
O58 C61 1.255 1_565 S
Tb59 O58 2.292 . S
Tb59 O75 2.326 . S
Tb59 O77 2.500 . S
Tb59 O78 2.473 . S
Tb59 O81 2.324 . S
Eu60 O64 2.292 . S
Eu60 C65 2.852 . S
Eu60 O76 2.324 . S
Eu60 O80 2.326 . S
Eu60 O82 2.500 . S
Eu60 O83 2.473 . S
C61 O58 1.255 1_545 S
C61 O62 1.247 . S
O62 C61 1.247 . S
C63 O75 1.242 . S
C63 O76 1.258 . S
O64 Eu60 2.292 . S
O64 C66 1.255 . S
C65 Eu60 2.852 . S
C65 C69 1.503 . S
C65 O82 1.273 . S
C65 O83 1.257 . S
C66 O64 1.255 . S
C66 O67 1.247 . S
O67 C66 1.247 . S
C68 O80 1.242 . S
C68 O81 1.258 . S
C69 C65 1.503 . S
C69 C70 1.379 . S
C69 C74 1.392 . S
C70 C69 1.379 . S
C70 C71 1.404 . S
C70 H84 0.929 . S
C71 C70 1.404 . S
C71 C72 1.389 . S
C72 C71 1.389 . S
C72 C73 1.399 . S
C72 H85 0.931 . S
C73 C72 1.399 . S
C73 C74 1.390 . S
C74 C69 1.392 . S
C74 C73 1.390 . S
C74 H86 0.929 . S
O75 Tb59 2.326 . S
O75 C63 1.242 . S
O76 Eu60 2.324 . S
O76 C63 1.258 . S
O77 Tb59 2.500 . S
O77 C79 1.273 . S
O78 Tb59 2.473 . S
O78 C79 1.257 . S
C79 O77 1.273 . S
C79 O78 1.257 . S
O80 Eu60 2.326 . S
O80 C68 1.242 . S
O81 Tb59 2.324 . S
O81 C68 1.258 . S
O82 Eu60 2.500 . S
O82 C65 1.273 . S
O83 Eu60 2.473 . S
O83 C65 1.257 . S
H84 C70 0.929 . S
H85 C72 0.931 . S
H86 C74 0.929 . S
O87 Tb88 2.292 . S
O87 C90 1.255 . S
Tb88 O87 2.292 . S
Tb88 O104 2.326 . S
Tb88 O106 2.500 . S
Tb88 O107 2.473 . S
Tb88 O110 2.324 . S
Eu89 O93 2.292 . S
Eu89 C94 2.852 . S
Eu89 O105 2.324 . S
Eu89 O109 2.326 . S
Eu89 O111 2.500 . S
Eu89 O112 2.473 . S
C90 O87 1.255 . S
C90 O91 1.247 . S
O91 C90 1.247 . S
C92 O104 1.242 . S
C92 O105 1.258 . S
O93 Eu89 2.292 . S
O93 C95 1.255 . S
C94 Eu89 2.852 . S
C94 C98 1.503 . S
C94 O111 1.273 . S
C94 O112 1.257 . S
C95 O93 1.255 . S
C95 O96 1.247 . S
O96 C95 1.247 . S
C97 O109 1.242 . S
C97 O110 1.258 . S
C98 C94 1.503 . S
C98 C99 1.379 . S
C98 C103 1.392 . S
C99 C98 1.379 . S
C99 C100 1.404 . S
C99 H113 0.929 . S
C100 C99 1.404 . S
C100 C101 1.389 . S
C101 C100 1.389 . S
C101 C102 1.399 . S
C101 H114 0.931 . S
C102 C101 1.399 . S
C102 C103 1.390 . S
C103 C98 1.392 . S
C103 C102 1.390 . S
C103 H115 0.929 . S
O104 Tb88 2.326 . S
O104 C92 1.242 . S
O105 Eu89 2.324 . S
O105 C92 1.258 . S
O106 Tb88 2.500 . S
O106 C108 1.273 . S
O107 Tb88 2.473 . S
O107 C108 1.257 . S
C108 O106 1.273 . S
C108 O107 1.257 . S
O109 Eu89 2.326 . S
O109 C97 1.242 . S
O110 Tb88 2.324 . S
O110 C97 1.258 . S
O111 Eu89 2.500 . S
O111 C94 1.273 . S
O112 Eu89 2.473 . S
O112 C94 1.257 . S
H113 C99 0.929 . S
H114 C101 0.931 . S
H115 C103 0.929 . S
O116 Tb117 2.292 . S
O116 C119 1.255 . S
Tb117 O116 2.292 . S
Tb117 O133 2.326 . S
Tb117 O135 2.500 . S
Tb117 O136 2.473 . S
Tb117 O139 2.324 . S
Eu118 O122 2.292 . S
Eu118 C123 2.852 . S
Eu118 O134 2.324 . S
Eu118 O138 2.326 . S
Eu118 O140 2.500 . S
Eu118 O141 2.473 . S
C119 O116 1.255 . S
C119 O120 1.247 . S
O120 C119 1.247 . S
C121 O133 1.242 . S
C121 O134 1.258 . S
O122 Eu118 2.292 . S
O122 C124 1.255 . S
C123 Eu118 2.852 . S
C123 C127 1.503 . S
C123 O140 1.273 . S
C123 O141 1.257 . S
C124 O122 1.255 . S
C124 O125 1.247 . S
O125 C124 1.247 . S
C126 O138 1.242 . S
C126 O139 1.258 . S
C127 C123 1.503 . S
C127 C128 1.379 1_556 S
C127 C132 1.392 1_556 S
C128 C127 1.379 1_554 S
C128 C129 1.404 . S
C128 H142 0.929 . S
C129 C128 1.404 . S
C129 C130 1.389 . S
C130 C129 1.389 . S
C130 C131 1.399 . S
C130 H143 0.931 . S
C131 C130 1.399 . S
C131 C132 1.390 . S
C132 C127 1.392 1_554 S
C132 C131 1.390 . S
C132 H144 0.929 1_554 S
O133 Tb117 2.326 . S
O133 C121 1.242 . S
O134 Eu118 2.324 . S
O134 C121 1.258 . S
O135 Tb117 2.500 . S
O135 C137 1.273 . S
O136 Tb117 2.473 . S
O136 C137 1.257 . S
C137 O135 1.273 . S
C137 O136 1.257 . S
O138 Eu118 2.326 . S
O138 C126 1.242 . S
O139 Tb117 2.324 . S
O139 C126 1.258 . S
O140 Eu118 2.500 . S
O140 C123 1.273 . S
O141 Eu118 2.473 . S
O141 C123 1.257 . S
H142 C128 0.929 . S
H143 C130 0.931 . S
H144 C132 0.929 1_556 S
O145 Tb146 2.292 . S
O145 C148 1.255 1_545 S
Tb146 O145 2.292 . S
Tb146 O162 2.326 . S
Tb146 O164 2.500 . S
Tb146 O165 2.473 . S
Tb146 O168 2.324 . S
Eu147 O151 2.292 . S
Eu147 C152 2.852 . S
Eu147 O163 2.324 . S
Eu147 O167 2.326 . S
Eu147 O169 2.500 . S
Eu147 O170 2.473 . S
C148 O145 1.255 1_565 S
C148 O149 1.247 . S
O149 C148 1.247 . S
C150 O162 1.242 . S
C150 O163 1.258 . S
O151 Eu147 2.292 . S
O151 C153 1.255 . S
C152 Eu147 2.852 . S
C152 C156 1.503 . S
C152 O169 1.273 . S
C152 O170 1.257 . S
C153 O151 1.255 . S
C153 O154 1.247 . S
O154 C153 1.247 . S
C155 O167 1.242 . S
C155 O168 1.258 . S
C156 C152 1.503 . S
C156 C157 1.379 1_556 S
C156 C161 1.392 1_556 S
C157 C156 1.379 1_554 S
C157 C158 1.404 . S
C157 H171 0.929 . S
C158 C157 1.404 . S
C158 C159 1.389 . S
C159 C158 1.389 . S
C159 C160 1.399 . S
C159 H172 0.931 . S
C160 C159 1.399 . S
C160 C161 1.390 . S
C161 C156 1.392 1_554 S
C161 C160 1.390 . S
C161 H173 0.929 1_554 S
O162 Tb146 2.326 . S
O162 C150 1.242 . S
O163 Eu147 2.324 . S
O163 C150 1.258 . S
O164 Tb146 2.500 . S
O164 C166 1.273 . S
O165 Tb146 2.473 . S
O165 C166 1.257 . S
C166 O164 1.273 . S
C166 O165 1.257 . S
O167 Eu147 2.326 . S
O167 C155 1.242 . S
O168 Tb146 2.324 . S
O168 C155 1.258 . S
O169 Eu147 2.500 . S
O169 C152 1.273 . S
O170 Eu147 2.473 . S
O170 C152 1.257 . S
H171 C157 0.929 . S
H172 C159 0.931 . S
H173 C161 0.929 1_556 S
O174 Tb175 2.292 . S
O174 C177 1.255 1_545 S
Tb175 O174 2.292 . S
Tb175 O191 2.326 . S
Tb175 O193 2.500 . S
Tb175 O194 2.473 . S
Tb175 O197 2.324 . S
Eu176 O180 2.292 . S
Eu176 C181 2.852 . S
Eu176 O192 2.324 . S
Eu176 O196 2.326 . S
Eu176 O198 2.500 . S
Eu176 O199 2.473 . S
C177 O174 1.255 1_565 S
C177 O178 1.247 . S
O178 C177 1.247 . S
C179 O191 1.242 . S
C179 O192 1.258 . S
O180 Eu176 2.292 . S
O180 C182 1.255 . S
C181 Eu176 2.852 . S
C181 C185 1.503 . S
C181 O198 1.273 . S
C181 O199 1.257 . S
C182 O180 1.255 . S
C182 O183 1.247 . S
O183 C182 1.247 . S
C184 O196 1.242 . S
C184 O197 1.258 . S
C185 C181 1.503 . S
C185 C186 1.379 . S
C185 C190 1.392 . S
C186 C185 1.379 . S
C186 C187 1.404 . S
C186 H200 0.929 . S
C187 C186 1.404 . S
C187 C188 1.389 . S
C188 C187 1.389 . S
C188 C189 1.399 . S
C188 H201 0.931 . S
C189 C188 1.399 . S
C189 C190 1.390 . S
C190 C185 1.392 . S
C190 C189 1.390 . S
C190 H202 0.929 . S
O191 Tb175 2.326 . S
O191 C179 1.242 . S
O192 Eu176 2.324 . S
O192 C179 1.258 . S
O193 Tb175 2.500 . S
O193 C195 1.273 . S
O194 Tb175 2.473 . S
O194 C195 1.257 . S
C195 O193 1.273 . S
C195 O194 1.257 . S
O196 Eu176 2.326 . S
O196 C184 1.242 . S
O197 Tb175 2.324 . S
O197 C184 1.258 . S
O198 Eu176 2.500 . S
O198 C181 1.273 . S
O199 Eu176 2.473 . S
O199 C181 1.257 . S
H200 C186 0.929 . S
H201 C188 0.931 . S
H202 C190 0.929 . S
O203 Tb204 2.292 . S
O203 C206 1.255 . S
Tb204 O203 2.292 . S
Tb204 O220 2.326 . S
Tb204 O222 2.500 . S
Tb204 O223 2.473 . S
Tb204 O226 2.324 . S
Eu205 O209 2.292 . S
Eu205 C210 2.852 . S
Eu205 O221 2.324 . S
Eu205 O225 2.326 . S
Eu205 O227 2.500 . S
Eu205 O228 2.473 . S
C206 O203 1.255 . S
C206 O207 1.247 . S
O207 C206 1.247 . S
C208 O220 1.242 . S
C208 O221 1.258 . S
O209 Eu205 2.292 . S
O209 C211 1.255 . S
C210 Eu205 2.852 . S
C210 C214 1.503 . S
C210 O227 1.273 . S
C210 O228 1.257 . S
C211 O209 1.255 . S
C211 O212 1.247 . S
O212 C211 1.247 . S
C213 O225 1.242 . S
C213 O226 1.258 . S
C214 C210 1.503 . S
C214 C215 1.379 . S
C214 C219 1.392 . S
C215 C214 1.379 . S
C215 C216 1.404 . S
C215 H229 0.929 . S
C216 C215 1.404 . S
C216 C217 1.389 . S
C217 C216 1.389 . S
C217 C218 1.399 . S
C217 H230 0.931 . S
C218 C217 1.399 . S
C218 C219 1.390 . S
C219 C214 1.392 . S
C219 C218 1.390 . S
C219 H231 0.929 . S
O220 Tb204 2.326 . S
O220 C208 1.242 . S
O221 Eu205 2.324 . S
O221 C208 1.258 . S
O222 Tb204 2.500 . S
O222 C224 1.273 . S
O223 Tb204 2.473 . S
O223 C224 1.257 . S
C224 O222 1.273 . S
C224 O223 1.257 . S
O225 Eu205 2.326 . S
O225 C213 1.242 . S
O226 Tb204 2.324 . S
O226 C213 1.258 . S
O227 Eu205 2.500 . S
O227 C210 1.273 . S
O228 Eu205 2.473 . S
O228 C210 1.257 . S
H229 C215 0.929 . S
H230 C217 0.931 . S
H231 C219 0.929 . S
O232 Tb233 2.292 . S
O232 C235 1.255 . S
Tb233 O232 2.292 . S
Tb233 O249 2.326 . S
Tb233 O251 2.500 . S
Tb233 O252 2.473 . S
Tb233 O255 2.324 . S
Eu234 O238 2.292 . S
Eu234 C239 2.852 . S
Eu234 O250 2.324 . S
Eu234 O254 2.326 . S
Eu234 O256 2.500 . S
Eu234 O257 2.473 . S
C235 O232 1.255 . S
C235 O236 1.247 . S
O236 C235 1.247 . S
C237 O249 1.242 . S
C237 O250 1.258 . S
O238 Eu234 2.292 . S
O238 C240 1.255 1_565 S
C239 Eu234 2.852 . S
C239 C243 1.503 . S
C239 O256 1.273 . S
C239 O257 1.257 . S
C240 O238 1.255 1_545 S
C240 O241 1.247 . S
O241 C240 1.247 . S
C242 O254 1.242 . S
C242 O255 1.258 . S
C243 C239 1.503 . S
C243 C244 1.379 . S
C243 C248 1.392 . S
C244 C243 1.379 . S
C244 C245 1.404 . S
C244 H258 0.929 . S
C245 C244 1.404 . S
C245 C246 1.389 . S
C246 C245 1.389 . S
C246 C247 1.399 . S
C246 H259 0.931 . S
C247 C246 1.399 . S
C247 C248 1.390 . S
C248 C243 1.392 . S
C248 C247 1.390 . S
C248 H260 0.929 . S
O249 Tb233 2.326 . S
O249 C237 1.242 . S
O250 Eu234 2.324 . S
O250 C237 1.258 . S
O251 Tb233 2.500 . S
O251 C253 1.273 . S
O252 Tb233 2.473 . S
O252 C253 1.257 . S
C253 O251 1.273 . S
C253 O252 1.257 . S
O254 Eu234 2.326 . S
O254 C242 1.242 . S
O255 Tb233 2.324 . S
O255 C242 1.258 . S
O256 Eu234 2.500 . S
O256 C239 1.273 . S
O257 Eu234 2.473 . S
O257 C239 1.257 . S
H258 C244 0.929 . S
H259 C246 0.931 . S
H260 C248 0.929 . S
O261 Tb262 2.292 . S
O261 C264 1.255 . S
Tb262 O261 2.292 . S
Tb262 O278 2.326 . S
Tb262 O280 2.500 . S
Tb262 O281 2.473 . S
Tb262 O284 2.324 . S
Eu263 O267 2.292 . S
Eu263 C268 2.852 . S
Eu263 O279 2.324 . S
Eu263 O283 2.326 . S
Eu263 O285 2.500 . S
Eu263 O286 2.473 . S
C264 O261 1.255 . S
C264 O265 1.247 . S
O265 C264 1.247 . S
C266 O278 1.242 . S
C266 O279 1.258 . S
O267 Eu263 2.292 . S
O267 C269 1.255 . S
C268 Eu263 2.852 . S
C268 C272 1.503 . S
C268 O285 1.273 . S
C268 O286 1.257 . S
C269 O267 1.255 . S
C269 O270 1.247 . S
O270 C269 1.247 . S
C271 O283 1.242 . S
C271 O284 1.258 . S
C272 C268 1.503 . S
C272 C273 1.379 . S
C272 C277 1.392 . S
C273 C272 1.379 . S
C273 C274 1.404 . S
C273 H287 0.929 . S
C274 C273 1.404 . S
C274 C275 1.389 . S
C275 C274 1.389 . S
C275 C276 1.399 . S
C275 H288 0.931 . S
C276 C275 1.399 . S
C276 C277 1.390 . S
C277 C272 1.392 . S
C277 C276 1.390 . S
C277 H289 0.929 . S
O278 Tb262 2.326 . S
O278 C266 1.242 . S
O279 Eu263 2.324 . S
O279 C266 1.258 . S
O280 Tb262 2.500 . S
O280 C282 1.273 . S
O281 Tb262 2.473 . S
O281 C282 1.257 . S
C282 O280 1.273 . S
C282 O281 1.257 . S
O283 Eu263 2.326 . S
O283 C271 1.242 . S
O284 Tb262 2.324 . S
O284 C271 1.258 . S
O285 Eu263 2.500 . S
O285 C268 1.273 . S
O286 Eu263 2.473 . S
O286 C268 1.257 . S
H287 C273 0.929 . S
H288 C275 0.931 . S
H289 C277 0.929 . S
O290 Tb291 2.292 . S
O290 C293 1.255 . S
Tb291 O290 2.292 . S
Tb291 O307 2.326 . S
Tb291 O309 2.500 . S
Tb291 O310 2.473 . S
Tb291 O313 2.324 . S
Eu292 O296 2.292 . S
Eu292 C297 2.852 . S
Eu292 O308 2.324 . S
Eu292 O312 2.326 . S
Eu292 O314 2.500 . S
Eu292 O315 2.473 . S
C293 O290 1.255 . S
C293 O294 1.247 . S
O294 C293 1.247 . S
C295 O307 1.242 . S
C295 O308 1.258 . S
O296 Eu292 2.292 . S
O296 C298 1.255 . S
C297 Eu292 2.852 . S
C297 C301 1.503 . S
C297 O314 1.273 . S
C297 O315 1.257 . S
C298 O296 1.255 . S
C298 O299 1.247 . S
O299 C298 1.247 . S
C300 O312 1.242 . S
C300 O313 1.258 . S
C301 C297 1.503 . S
C301 C302 1.379 . S
C301 C306 1.392 . S
C302 C301 1.379 . S
C302 C303 1.404 . S
C302 H316 0.929 . S
C303 C302 1.404 . S
C303 C304 1.389 . S
C304 C303 1.389 . S
C304 C305 1.399 . S
C304 H317 0.931 . S
C305 C304 1.399 . S
C305 C306 1.390 . S
C306 C301 1.392 . S
C306 C305 1.390 . S
C306 H318 0.929 . S
O307 Tb291 2.326 . S
O307 C295 1.242 . S
O308 Eu292 2.324 . S
O308 C295 1.258 . S
O309 Tb291 2.500 . S
O309 C311 1.273 . S
O310 Tb291 2.473 . S
O310 C311 1.257 . S
C311 O309 1.273 . S
C311 O310 1.257 . S
O312 Eu292 2.326 . S
O312 C300 1.242 . S
O313 Tb291 2.324 . S
O313 C300 1.258 . S
O314 Eu292 2.500 . S
O314 C297 1.273 . S
O315 Eu292 2.473 . S
O315 C297 1.257 . S
H316 C302 0.929 . S
H317 C304 0.931 . S
H318 C306 0.929 . S
O319 Tb320 2.292 . S
O319 C322 1.255 . S
Tb320 O319 2.292 . S
Tb320 O336 2.326 . S
Tb320 O338 2.500 . S
Tb320 O339 2.473 . S
Tb320 O342 2.324 . S
Eu321 O325 2.292 . S
Eu321 C326 2.852 . S
Eu321 O337 2.324 . S
Eu321 O341 2.326 . S
Eu321 O343 2.500 . S
Eu321 O344 2.473 . S
C322 O319 1.255 . S
C322 O323 1.247 . S
O323 C322 1.247 . S
C324 O336 1.242 . S
C324 O337 1.258 . S
O325 Eu321 2.292 . S
O325 C327 1.255 1_565 S
C326 Eu321 2.852 . S
C326 C330 1.503 . S
C326 O343 1.273 . S
C326 O344 1.257 . S
C327 O325 1.255 1_545 S
C327 O328 1.247 . S
O328 C327 1.247 . S
C329 O341 1.242 . S
C329 O342 1.258 . S
C330 C326 1.503 . S
C330 C331 1.379 . S
C330 C335 1.392 . S
C331 C330 1.379 . S
C331 C332 1.404 . S
C331 H345 0.929 . S
C332 C331 1.404 . S
C332 C333 1.389 . S
C333 C332 1.389 . S
C333 C334 1.399 . S
C333 H346 0.931 . S
C334 C333 1.399 . S
C334 C335 1.390 . S
C335 C330 1.392 . S
C335 C334 1.390 . S
C335 H347 0.929 . S
O336 Tb320 2.326 . S
O336 C324 1.242 . S
O337 Eu321 2.324 . S
O337 C324 1.258 . S
O338 Tb320 2.500 . S
O338 C340 1.273 . S
O339 Tb320 2.473 . S
O339 C340 1.257 . S
C340 O338 1.273 . S
C340 O339 1.257 . S
O341 Eu321 2.326 . S
O341 C329 1.242 . S
O342 Tb320 2.324 . S
O342 C329 1.258 . S
O343 Eu321 2.500 . S
O343 C326 1.273 . S
O344 Eu321 2.473 . S
O344 C326 1.257 . S
H345 C331 0.929 . S
H346 C333 0.931 . S
H347 C335 0.929 . S
O348 Tb349 2.292 . S
O348 C351 1.255 . S
Tb349 O348 2.292 . S
Tb349 O365 2.326 . S
Tb349 O367 2.500 . S
Tb349 O368 2.473 . S
Tb349 O371 2.324 . S
Eu350 O354 2.292 . S
Eu350 C355 2.852 . S
Eu350 O366 2.324 . S
Eu350 O370 2.326 . S
Eu350 O372 2.500 . S
Eu350 O373 2.473 . S
C351 O348 1.255 . S
C351 O352 1.247 . S
O352 C351 1.247 . S
C353 O365 1.242 . S
C353 O366 1.258 . S
O354 Eu350 2.292 . S
O354 C356 1.255 1_545 S
C355 Eu350 2.852 . S
C355 C359 1.503 . S
C355 O372 1.273 . S
C355 O373 1.257 . S
C356 O354 1.255 1_565 S
C356 O357 1.247 . S
O357 C356 1.247 . S
C358 O370 1.242 . S
C358 O371 1.258 . S
C359 C355 1.503 . S
C359 C360 1.379 . S
C359 C364 1.392 . S
C360 C359 1.379 . S
C360 C361 1.404 . S
C360 H374 0.929 . S
C361 C360 1.404 . S
C361 C362 1.389 . S
C362 C361 1.389 . S
C362 C363 1.399 . S
C362 H375 0.931 . S
C363 C362 1.399 . S
C363 C364 1.390 . S
C364 C359 1.392 . S
C364 C363 1.390 . S
C364 H376 0.929 . S
O365 Tb349 2.326 . S
O365 C353 1.242 . S
O366 Eu350 2.324 . S
O366 C353 1.258 . S
O367 Tb349 2.500 . S
O367 C369 1.273 . S
O368 Tb349 2.473 . S
O368 C369 1.257 . S
C369 O367 1.273 . S
C369 O368 1.257 . S
O370 Eu350 2.326 . S
O370 C358 1.242 . S
O371 Tb349 2.324 . S
O371 C358 1.258 . S
O372 Eu350 2.500 . S
O372 C355 1.273 . S
O373 Eu350 2.473 . S
O373 C355 1.257 . S
H374 C360 0.929 . S
H375 C362 0.931 . S
H376 C364 0.929 . S
O377 Tb378 2.292 . S
O377 C380 1.255 . S
Tb378 O377 2.292 . S
Tb378 O394 2.326 . S
Tb378 O396 2.500 . S
Tb378 O397 2.473 . S
Tb378 O400 2.324 . S
Eu379 O383 2.292 . S
Eu379 C384 2.852 . S
Eu379 O395 2.324 . S
Eu379 O399 2.326 . S
Eu379 O401 2.500 . S
Eu379 O402 2.473 . S
C380 O377 1.255 . S
C380 O381 1.247 . S
O381 C380 1.247 . S
C382 O394 1.242 . S
C382 O395 1.258 . S
O383 Eu379 2.292 . S
O383 C385 1.255 . S
C384 Eu379 2.852 . S
C384 C388 1.503 . S
C384 O401 1.273 . S
C384 O402 1.257 . S
C385 O383 1.255 . S
C385 O386 1.247 . S
O386 C385 1.247 . S
C387 O399 1.242 . S
C387 O400 1.258 . S
C388 C384 1.503 . S
C388 C389 1.379 . S
C388 C393 1.392 . S
C389 C388 1.379 . S
C389 C390 1.404 . S
C389 H403 0.929 . S
C390 C389 1.404 . S
C390 C391 1.389 . S
C391 C390 1.389 . S
C391 C392 1.399 . S
C391 H404 0.931 . S
C392 C391 1.399 . S
C392 C393 1.390 . S
C393 C388 1.392 . S
C393 C392 1.390 . S
C393 H405 0.929 . S
O394 Tb378 2.326 . S
O394 C382 1.242 . S
O395 Eu379 2.324 . S
O395 C382 1.258 . S
O396 Tb378 2.500 . S
O396 C398 1.273 . S
O397 Tb378 2.473 . S
O397 C398 1.257 . S
C398 O396 1.273 . S
C398 O397 1.257 . S
O399 Eu379 2.326 . S
O399 C387 1.242 . S
O400 Tb378 2.324 . S
O400 C387 1.258 . S
O401 Eu379 2.500 . S
O401 C384 1.273 . S
O402 Eu379 2.473 . S
O402 C384 1.257 . S
H403 C389 0.929 . S
H404 C391 0.931 . S
H405 C393 0.929 . S
O406 Tb407 2.292 . S
O406 C409 1.255 . S
Tb407 O406 2.292 . S
Tb407 O423 2.326 . S
Tb407 O425 2.500 . S
Tb407 O426 2.473 . S
Tb407 O429 2.324 . S
Eu408 O412 2.292 . S
Eu408 C413 2.852 . S
Eu408 O424 2.324 . S
Eu408 O428 2.326 . S
Eu408 O430 2.500 . S
Eu408 O431 2.473 . S
C409 O406 1.255 . S
C409 O410 1.247 . S
O410 C409 1.247 . S
C411 O423 1.242 . S
C411 O424 1.258 . S
O412 Eu408 2.292 . S
O412 C414 1.255 . S
C413 Eu408 2.852 . S
C413 C417 1.503 . S
C413 O430 1.273 . S
C413 O431 1.257 . S
C414 O412 1.255 . S
C414 O415 1.247 . S
O415 C414 1.247 . S
C416 O428 1.242 . S
C416 O429 1.258 . S
C417 C413 1.503 . S
C417 C418 1.379 . S
C417 C422 1.392 . S
C418 C417 1.379 . S
C418 C419 1.404 . S
C418 H432 0.929 . S
C419 C418 1.404 . S
C419 C420 1.389 . S
C420 C419 1.389 . S
C420 C421 1.399 . S
C420 H433 0.931 . S
C421 C420 1.399 . S
C421 C422 1.390 . S
C422 C417 1.392 . S
C422 C421 1.390 . S
C422 H434 0.929 . S
O423 Tb407 2.326 . S
O423 C411 1.242 . S
O424 Eu408 2.324 . S
O424 C411 1.258 . S
O425 Tb407 2.500 . S
O425 C427 1.273 . S
O426 Tb407 2.473 . S
O426 C427 1.257 . S
C427 O425 1.273 . S
C427 O426 1.257 . S
O428 Eu408 2.326 . S
O428 C416 1.242 . S
O429 Tb407 2.324 . S
O429 C416 1.258 . S
O430 Eu408 2.500 . S
O430 C413 1.273 . S
O431 Eu408 2.473 . S
O431 C413 1.257 . S
H432 C418 0.929 . S
H433 C420 0.931 . S
H434 C422 0.929 . S
O435 Tb436 2.292 . S
O435 C438 1.255 . S
Tb436 O435 2.292 . S
Tb436 O452 2.326 . S
Tb436 O454 2.500 . S
Tb436 O455 2.473 . S
Tb436 O458 2.324 . S
Eu437 O441 2.292 . S
Eu437 C442 2.852 . S
Eu437 O453 2.324 . S
Eu437 O457 2.326 . S
Eu437 O459 2.500 . S
Eu437 O460 2.473 . S
C438 O435 1.255 . S
C438 O439 1.247 . S
O439 C438 1.247 . S
C440 O452 1.242 . S
C440 O453 1.258 . S
O441 Eu437 2.292 . S
O441 C443 1.255 1_545 S
C442 Eu437 2.852 . S
C442 C446 1.503 . S
C442 O459 1.273 . S
C442 O460 1.257 . S
C443 O441 1.255 1_565 S
C443 O444 1.247 . S
O444 C443 1.247 . S
C445 O457 1.242 . S
C445 O458 1.258 . S
C446 C442 1.503 . S
C446 C447 1.379 . S
C446 C451 1.392 . S
C447 C446 1.379 . S
C447 C448 1.404 . S
C447 H461 0.929 . S
C448 C447 1.404 . S
C448 C449 1.389 . S
C449 C448 1.389 . S
C449 C450 1.399 . S
C449 H462 0.931 . S
C450 C449 1.399 . S
C450 C451 1.390 . S
C451 C446 1.392 . S
C451 C450 1.390 . S
C451 H463 0.929 . S
O452 Tb436 2.326 . S
O452 C440 1.242 . S
O453 Eu437 2.324 . S
O453 C440 1.258 . S
O454 Tb436 2.500 . S
O454 C456 1.273 . S
O455 Tb436 2.473 . S
O455 C456 1.257 . S
C456 O454 1.273 . S
C456 O455 1.257 . S
O457 Eu437 2.326 . S
O457 C445 1.242 . S
O458 Tb436 2.324 . S
O458 C445 1.258 . S
O459 Eu437 2.500 . S
O459 C442 1.273 . S
O460 Eu437 2.473 . S
O460 C442 1.257 . S
H461 C447 0.929 . S
H462 C449 0.931 . S
H463 C451 0.929 . S
O464 Tb465 2.292 . S
O464 C467 1.255 . S
Tb465 O464 2.292 . S
Tb465 O481 2.326 . S
Tb465 O483 2.500 . S
Tb465 O484 2.473 . S
Tb465 O487 2.324 . S
Eu466 O470 2.292 . S
Eu466 C471 2.852 . S
Eu466 O482 2.324 . S
Eu466 O486 2.326 . S
Eu466 O488 2.500 . S
Eu466 O489 2.473 . S
C467 O464 1.255 . S
C467 O468 1.247 . S
O468 C467 1.247 . S
C469 O481 1.242 . S
C469 O482 1.258 . S
O470 Eu466 2.292 . S
O470 C472 1.255 . S
C471 Eu466 2.852 . S
C471 C475 1.503 . S
C471 O488 1.273 . S
C471 O489 1.257 . S
C472 O470 1.255 . S
C472 O473 1.247 . S
O473 C472 1.247 . S
C474 O486 1.242 . S
C474 O487 1.258 . S
C475 C471 1.503 . S
C475 C476 1.379 . S
C475 C480 1.392 . S
C476 C475 1.379 . S
C476 C477 1.404 . S
C476 H490 0.929 . S
C477 C476 1.404 . S
C477 C478 1.389 . S
C478 C477 1.389 . S
C478 C479 1.399 . S
C478 H491 0.931 . S
C479 C478 1.399 . S
C479 C480 1.390 . S
C480 C475 1.392 . S
C480 C479 1.390 . S
C480 H492 0.929 . S
O481 Tb465 2.326 . S
O481 C469 1.242 . S
O482 Eu466 2.324 . S
O482 C469 1.258 . S
O483 Tb465 2.500 . S
O483 C485 1.273 . S
O484 Tb465 2.473 . S
O484 C485 1.257 . S
C485 O483 1.273 . S
C485 O484 1.257 . S
O486 Eu466 2.326 . S
O486 C474 1.242 . S
O487 Tb465 2.324 . S
O487 C474 1.258 . S
O488 Eu466 2.500 . S
O488 C471 1.273 . S
O489 Eu466 2.473 . S
O489 C471 1.257 . S
H490 C476 0.929 . S
H491 C478 0.931 . S
H492 C480 0.929 . S
O493 Tb494 2.292 . S
O493 C496 1.255 1_565 S
Tb494 O493 2.292 . S
Tb494 O510 2.326 . S
Tb494 O512 2.500 . S
Tb494 O513 2.473 . S
Tb494 O516 2.324 . S
Eu495 O499 2.292 . S
Eu495 C500 2.852 . S
Eu495 O511 2.324 . S
Eu495 O515 2.326 . S
Eu495 O517 2.500 . S
Eu495 O518 2.473 . S
C496 O493 1.255 1_545 S
C496 O497 1.247 . S
O497 C496 1.247 . S
C498 O510 1.242 . S
C498 O511 1.258 . S
O499 Eu495 2.292 . S
O499 C501 1.255 . S
C500 Eu495 2.852 . S
C500 C504 1.503 . S
C500 O517 1.273 . S
C500 O518 1.257 . S
C501 O499 1.255 . S
C501 O502 1.247 . S
O502 C501 1.247 . S
C503 O515 1.242 . S
C503 O516 1.258 . S
C504 C500 1.503 . S
C504 C505 1.379 . S
C504 C509 1.392 . S
C505 C504 1.379 . S
C505 C506 1.404 . S
C505 H519 0.929 . S
C506 C505 1.404 . S
C506 C507 1.389 . S
C507 C506 1.389 . S
C507 C508 1.399 . S
C507 H520 0.931 . S
C508 C507 1.399 . S
C508 C509 1.390 . S
C509 C504 1.392 . S
C509 C508 1.390 . S
C509 H521 0.929 . S
O510 Tb494 2.326 . S
O510 C498 1.242 . S
O511 Eu495 2.324 . S
O511 C498 1.258 . S
O512 Tb494 2.500 . S
O512 C514 1.273 . S
O513 Tb494 2.473 . S
O513 C514 1.257 . S
C514 O512 1.273 . S
C514 O513 1.257 . S
O515 Eu495 2.326 . S
O515 C503 1.242 . S
O516 Tb494 2.324 . S
O516 C503 1.258 . S
O517 Eu495 2.500 . S
O517 C500 1.273 . S
O518 Eu495 2.473 . S
O518 C500 1.257 . S
H519 C505 0.929 . S
H520 C507 0.931 . S
H521 C509 0.929 . S
O522 Tb523 2.292 . S
O522 C525 1.255 1_565 S
Tb523 O522 2.292 . S
Tb523 O539 2.326 . S
Tb523 O541 2.500 . S
Tb523 O542 2.473 . S
Tb523 O545 2.324 . S
Eu524 O528 2.292 . S
Eu524 C529 2.852 . S
Eu524 O540 2.324 . S
Eu524 O544 2.326 . S
Eu524 O546 2.500 . S
Eu524 O547 2.473 . S
C525 O522 1.255 1_545 S
C525 O526 1.247 . S
O526 C525 1.247 . S
C527 O539 1.242 . S
C527 O540 1.258 . S
O528 Eu524 2.292 . S
O528 C530 1.255 . S
C529 Eu524 2.852 . S
C529 C533 1.503 . S
C529 O546 1.273 . S
C529 O547 1.257 . S
C530 O528 1.255 . S
C530 O531 1.247 . S
O531 C530 1.247 . S
C532 O544 1.242 . S
C532 O545 1.258 . S
C533 C529 1.503 . S
C533 C534 1.379 . S
C533 C538 1.392 . S
C534 C533 1.379 . S
C534 C535 1.404 . S
C534 H548 0.929 . S
C535 C534 1.404 . S
C535 C536 1.389 . S
C536 C535 1.389 . S
C536 C537 1.399 . S
C536 H549 0.931 . S
C537 C536 1.399 . S
C537 C538 1.390 . S
C538 C533 1.392 . S
C538 C537 1.390 . S
C538 H550 0.929 . S
O539 Tb523 2.326 . S
O539 C527 1.242 . S
O540 Eu524 2.324 . S
O540 C527 1.258 . S
O541 Tb523 2.500 . S
O541 C543 1.273 . S
O542 Tb523 2.473 . S
O542 C543 1.257 . S
C543 O541 1.273 . S
C543 O542 1.257 . S
O544 Eu524 2.326 . S
O544 C532 1.242 . S
O545 Tb523 2.324 . S
O545 C532 1.258 . S
O546 Eu524 2.500 . S
O546 C529 1.273 . S
O547 Eu524 2.473 . S
O547 C529 1.257 . S
H548 C534 0.929 . S
H549 C536 0.931 . S
H550 C538 0.929 . S
O551 Tb552 2.292 . S
O551 C554 1.255 . S
Tb552 O551 2.292 . S
Tb552 O568 2.326 . S
Tb552 O570 2.500 . S
Tb552 O571 2.473 . S
Tb552 O574 2.324 . S
Eu553 O557 2.292 . S
Eu553 C558 2.852 . S
Eu553 O569 2.324 . S
Eu553 O573 2.326 . S
Eu553 O575 2.500 . S
Eu553 O576 2.473 . S
C554 O551 1.255 . S
C554 O555 1.247 . S
O555 C554 1.247 . S
C556 O568 1.242 . S
C556 O569 1.258 . S
O557 Eu553 2.292 . S
O557 C559 1.255 . S
C558 Eu553 2.852 . S
C558 C562 1.503 . S
C558 O575 1.273 . S
C558 O576 1.257 . S
C559 O557 1.255 . S
C559 O560 1.247 . S
O560 C559 1.247 . S
C561 O573 1.242 . S
C561 O574 1.258 . S
C562 C558 1.503 . S
C562 C563 1.379 . S
C562 C567 1.392 . S
C563 C562 1.379 . S
C563 C564 1.404 . S
C563 H577 0.929 . S
C564 C563 1.404 . S
C564 C565 1.389 . S
C565 C564 1.389 . S
C565 C566 1.399 . S
C565 H578 0.931 . S
C566 C565 1.399 . S
C566 C567 1.390 . S
C567 C562 1.392 . S
C567 C566 1.390 . S
C567 H579 0.929 . S
O568 Tb552 2.326 . S
O568 C556 1.242 . S
O569 Eu553 2.324 . S
O569 C556 1.258 . S
O570 Tb552 2.500 . S
O570 C572 1.273 . S
O571 Tb552 2.473 . S
O571 C572 1.257 . S
C572 O570 1.273 . S
C572 O571 1.257 . S
O573 Eu553 2.326 . S
O573 C561 1.242 . S
O574 Tb552 2.324 . S
O574 C561 1.258 . S
O575 Eu553 2.500 . S
O575 C558 1.273 . S
O576 Eu553 2.473 . S
O576 C558 1.257 . S
H577 C563 0.929 . S
H578 C565 0.931 . S
H579 C567 0.929 . S
O580 Tb581 2.292 . S
O580 C583 1.255 . S
Tb581 O580 2.292 . S
Tb581 O597 2.326 . S
Tb581 O599 2.500 . S
Tb581 O600 2.473 . S
Tb581 O603 2.324 . S
Eu582 O586 2.292 . S
Eu582 C587 2.852 . S
Eu582 O598 2.324 . S
Eu582 O602 2.326 . S
Eu582 O604 2.500 . S
Eu582 O605 2.473 . S
C583 O580 1.255 . S
C583 O584 1.247 . S
O584 C583 1.247 . S
C585 O597 1.242 . S
C585 O598 1.258 . S
O586 Eu582 2.292 . S
O586 C588 1.255 . S
C587 Eu582 2.852 . S
C587 C591 1.503 . S
C587 O604 1.273 . S
C587 O605 1.257 . S
C588 O586 1.255 . S
C588 O589 1.247 . S
O589 C588 1.247 . S
C590 O602 1.242 . S
C590 O603 1.258 . S
C591 C587 1.503 . S
C591 C592 1.379 . S
C591 C596 1.392 . S
C592 C591 1.379 . S
C592 C593 1.404 . S
C592 H606 0.929 . S
C593 C592 1.404 . S
C593 C594 1.389 . S
C594 C593 1.389 . S
C594 C595 1.399 . S
C594 H607 0.931 . S
C595 C594 1.399 . S
C595 C596 1.390 . S
C596 C591 1.392 . S
C596 C595 1.390 . S
C596 H608 0.929 . S
O597 Tb581 2.326 . S
O597 C585 1.242 . S
O598 Eu582 2.324 . S
O598 C585 1.258 . S
O599 Tb581 2.500 . S
O599 C601 1.273 . S
O600 Tb581 2.473 . S
O600 C601 1.257 . S
C601 O599 1.273 . S
C601 O600 1.257 . S
O602 Eu582 2.326 . S
O602 C590 1.242 . S
O603 Tb581 2.324 . S
O603 C590 1.258 . S
O604 Eu582 2.500 . S
O604 C587 1.273 . S
O605 Eu582 2.473 . S
O605 C587 1.257 . S
H606 C592 0.929 . S
H607 C594 0.931 . S
H608 C596 0.929 . S
O609 Tb610 2.292 . S
O609 C612 1.255 1_545 S
Tb610 O609 2.292 . S
Tb610 O626 2.326 . S
Tb610 O628 2.500 . S
Tb610 O629 2.473 . S
Tb610 O632 2.324 . S
Eu611 O615 2.292 . S
Eu611 C616 2.852 . S
Eu611 O627 2.324 . S
Eu611 O631 2.326 . S
Eu611 O633 2.500 . S
Eu611 O634 2.473 . S
C612 O609 1.255 1_565 S
C612 O613 1.247 . S
O613 C612 1.247 . S
C614 O626 1.242 . S
C614 O627 1.258 . S
O615 Eu611 2.292 . S
O615 C617 1.255 . S
C616 Eu611 2.852 . S
C616 C620 1.503 . S
C616 O633 1.273 . S
C616 O634 1.257 . S
C617 O615 1.255 . S
C617 O618 1.247 . S
O618 C617 1.247 . S
C619 O631 1.242 . S
C619 O632 1.258 . S
C620 C616 1.503 . S
C620 C621 1.379 . S
C620 C625 1.392 . S
C621 C620 1.379 . S
C621 C622 1.404 . S
C621 H635 0.929 . S
C622 C621 1.404 . S
C622 C623 1.389 . S
C623 C622 1.389 . S
C623 C624 1.399 . S
C623 H636 0.931 . S
C624 C623 1.399 . S
C624 C625 1.390 . S
C625 C620 1.392 . S
C625 C624 1.390 . S
C625 H637 0.929 . S
O626 Tb610 2.326 . S
O626 C614 1.242 . S
O627 Eu611 2.324 . S
O627 C614 1.258 . S
O628 Tb610 2.500 . S
O628 C630 1.273 . S
O629 Tb610 2.473 . S
O629 C630 1.257 . S
C630 O628 1.273 . S
C630 O629 1.257 . S
O631 Eu611 2.326 . S
O631 C619 1.242 . S
O632 Tb610 2.324 . S
O632 C619 1.258 . S
O633 Eu611 2.500 . S
O633 C616 1.273 . S
O634 Eu611 2.473 . S
O634 C616 1.257 . S
H635 C621 0.929 . S
H636 C623 0.931 . S
H637 C625 0.929 . S
O638 Tb639 2.292 . S
O638 C641 1.255 1_545 S
Tb639 O638 2.292 . S
Tb639 O655 2.326 . S
Tb639 O657 2.500 . S
Tb639 O658 2.473 . S
Tb639 O661 2.324 . S
Eu640 O644 2.292 . S
Eu640 C645 2.852 . S
Eu640 O656 2.324 . S
Eu640 O660 2.326 . S
Eu640 O662 2.500 . S
Eu640 O663 2.473 . S
C641 O638 1.255 1_565 S
C641 O642 1.247 . S
O642 C641 1.247 . S
C643 O655 1.242 . S
C643 O656 1.258 . S
O644 Eu640 2.292 . S
O644 C646 1.255 . S
C645 Eu640 2.852 . S
C645 C649 1.503 . S
C645 O662 1.273 . S
C645 O663 1.257 . S
C646 O644 1.255 . S
C646 O647 1.247 . S
O647 C646 1.247 . S
C648 O660 1.242 . S
C648 O661 1.258 . S
C649 C645 1.503 . S
C649 C650 1.379 . S
C649 C654 1.392 . S
C650 C649 1.379 . S
C650 C651 1.404 . S
C650 H664 0.929 . S
C651 C650 1.404 . S
C651 C652 1.389 . S
C652 C651 1.389 . S
C652 C653 1.399 . S
C652 H665 0.931 . S
C653 C652 1.399 . S
C653 C654 1.390 . S
C654 C649 1.392 . S
C654 C653 1.390 . S
C654 H666 0.929 . S
O655 Tb639 2.326 . S
O655 C643 1.242 . S
O656 Eu640 2.324 . S
O656 C643 1.258 . S
O657 Tb639 2.500 . S
O657 C659 1.273 . S
O658 Tb639 2.473 . S
O658 C659 1.257 . S
C659 O657 1.273 . S
C659 O658 1.257 . S
O660 Eu640 2.326 . S
O660 C648 1.242 . S
O661 Tb639 2.324 . S
O661 C648 1.258 . S
O662 Eu640 2.500 . S
O662 C645 1.273 . S
O663 Eu640 2.473 . S
O663 C645 1.257 . S
H664 C650 0.929 . S
H665 C652 0.931 . S
H666 C654 0.929 . S
O667 Tb668 2.292 . S
O667 C670 1.255 . S
Tb668 O667 2.292 . S
Tb668 O684 2.326 . S
Tb668 O686 2.500 . S
Tb668 O687 2.473 . S
Tb668 O690 2.324 . S
Eu669 O673 2.292 . S
Eu669 C674 2.852 . S
Eu669 O685 2.324 . S
Eu669 O689 2.326 . S
Eu669 O691 2.500 . S
Eu669 O692 2.473 . S
C670 O667 1.255 . S
C670 O671 1.247 . S
O671 C670 1.247 . S
C672 O684 1.242 . S
C672 O685 1.258 . S
O673 Eu669 2.292 . S
O673 C675 1.255 . S
C674 Eu669 2.852 . S
C674 C678 1.503 . S
C674 O691 1.273 . S
C674 O692 1.257 . S
C675 O673 1.255 . S
C675 O676 1.247 . S
O676 C675 1.247 . S
C677 O689 1.242 . S
C677 O690 1.258 . S
C678 C674 1.503 . S
C678 C679 1.379 . S
C678 C683 1.392 . S
C679 C678 1.379 . S
C679 C680 1.404 . S
C679 H693 0.929 . S
C680 C679 1.404 . S
C680 C681 1.389 . S
C681 C680 1.389 . S
C681 C682 1.399 . S
C681 H694 0.931 . S
C682 C681 1.399 . S
C682 C683 1.390 . S
C683 C678 1.392 . S
C683 C682 1.390 . S
C683 H695 0.929 . S
O684 Tb668 2.326 . S
O684 C672 1.242 . S
O685 Eu669 2.324 . S
O685 C672 1.258 . S
O686 Tb668 2.500 . S
O686 C688 1.273 . S
O687 Tb668 2.473 . S
O687 C688 1.257 . S
C688 O686 1.273 . S
C688 O687 1.257 . S
O689 Eu669 2.326 . S
O689 C677 1.242 . S
O690 Tb668 2.324 . S
O690 C677 1.258 . S
O691 Eu669 2.500 . S
O691 C674 1.273 . S
O692 Eu669 2.473 . S
O692 C674 1.257 . S
H693 C679 0.929 . S
H694 C681 0.931 . S
H695 C683 0.929 . S
O696 Tb697 2.292 . S
O696 C699 1.255 . S
Tb697 O696 2.292 . S
Tb697 O713 2.326 . S
Tb697 O715 2.500 . S
Tb697 O716 2.473 . S
Tb697 O719 2.324 . S
Eu698 O702 2.292 . S
Eu698 C703 2.852 . S
Eu698 O714 2.324 . S
Eu698 O718 2.326 . S
Eu698 O720 2.500 . S
Eu698 O721 2.473 . S
C699 O696 1.255 . S
C699 O700 1.247 . S
O700 C699 1.247 . S
C701 O713 1.242 . S
C701 O714 1.258 . S
O702 Eu698 2.292 . S
O702 C704 1.255 1_565 S
C703 Eu698 2.852 . S
C703 C707 1.503 . S
C703 O720 1.273 . S
C703 O721 1.257 . S
C704 O702 1.255 1_545 S
C704 O705 1.247 . S
O705 C704 1.247 . S
C706 O718 1.242 . S
C706 O719 1.258 . S
C707 C703 1.503 . S
C707 C708 1.379 1_554 S
C707 C712 1.392 1_554 S
C708 C707 1.379 1_556 S
C708 C709 1.404 . S
C708 H722 0.929 . S
C709 C708 1.404 . S
C709 C710 1.389 . S
C710 C709 1.389 . S
C710 C711 1.399 . S
C710 H723 0.931 . S
C711 C710 1.399 . S
C711 C712 1.390 . S
C712 C707 1.392 1_556 S
C712 C711 1.390 . S
C712 H724 0.929 1_556 S
O713 Tb697 2.326 . S
O713 C701 1.242 . S
O714 Eu698 2.324 . S
O714 C701 1.258 . S
O715 Tb697 2.500 . S
O715 C717 1.273 . S
O716 Tb697 2.473 . S
O716 C717 1.257 . S
C717 O715 1.273 . S
C717 O716 1.257 . S
O718 Eu698 2.326 . S
O718 C706 1.242 . S
O719 Tb697 2.324 . S
O719 C706 1.258 . S
O720 Eu698 2.500 . S
O720 C703 1.273 . S
O721 Eu698 2.473 . S
O721 C703 1.257 . S
H722 C708 0.929 . S
H723 C710 0.931 . S
H724 C712 0.929 1_554 S
O725 Tb726 2.292 . S
O725 C728 1.255 . S
Tb726 O725 2.292 . S
Tb726 O742 2.326 . S
Tb726 O744 2.500 . S
Tb726 O745 2.473 . S
Tb726 O748 2.324 . S
Eu727 O731 2.292 . S
Eu727 C732 2.852 . S
Eu727 O743 2.324 . S
Eu727 O747 2.326 . S
Eu727 O749 2.500 . S
Eu727 O750 2.473 . S
C728 O725 1.255 . S
C728 O729 1.247 . S
O729 C728 1.247 . S
C730 O742 1.242 . S
C730 O743 1.258 . S
O731 Eu727 2.292 . S
O731 C733 1.255 . S
C732 Eu727 2.852 . S
C732 C736 1.503 . S
C732 O749 1.273 . S
C732 O750 1.257 . S
C733 O731 1.255 . S
C733 O734 1.247 . S
O734 C733 1.247 . S
C735 O747 1.242 . S
C735 O748 1.258 . S
C736 C732 1.503 . S
C736 C737 1.379 1_554 S
C736 C741 1.392 1_554 S
C737 C736 1.379 1_556 S
C737 C738 1.404 . S
C737 H751 0.929 . S
C738 C737 1.404 . S
C738 C739 1.389 . S
C739 C738 1.389 . S
C739 C740 1.399 . S
C739 H752 0.931 . S
C740 C739 1.399 . S
C740 C741 1.390 . S
C741 C736 1.392 1_556 S
C741 C740 1.390 . S
C741 H753 0.929 1_556 S
O742 Tb726 2.326 . S
O742 C730 1.242 . S
O743 Eu727 2.324 . S
O743 C730 1.258 . S
O744 Tb726 2.500 . S
O744 C746 1.273 . S
O745 Tb726 2.473 . S
O745 C746 1.257 . S
C746 O744 1.273 . S
C746 O745 1.257 . S
O747 Eu727 2.326 . S
O747 C735 1.242 . S
O748 Tb726 2.324 . S
O748 C735 1.258 . S
O749 Eu727 2.500 . S
O749 C732 1.273 . S
O750 Eu727 2.473 . S
O750 C732 1.257 . S
H751 C737 0.929 . S
H752 C739 0.931 . S
H753 C741 0.929 1_554 S
O754 Tb755 2.292 . S
O754 C757 1.255 . S
Tb755 O754 2.292 . S
Tb755 O771 2.326 . S
Tb755 O773 2.500 . S
Tb755 O774 2.473 . S
Tb755 O777 2.324 . S
Eu756 O760 2.292 . S
Eu756 C761 2.852 . S
Eu756 O772 2.324 . S
Eu756 O776 2.326 . S
Eu756 O778 2.500 . S
Eu756 O779 2.473 . S
C757 O754 1.255 . S
C757 O758 1.247 . S
O758 C757 1.247 . S
C759 O771 1.242 . S
C759 O772 1.258 . S
O760 Eu756 2.292 . S
O760 C762 1.255 . S
C761 Eu756 2.852 . S
C761 C765 1.503 . S
C761 O778 1.273 . S
C761 O779 1.257 . S
C762 O760 1.255 . S
C762 O763 1.247 . S
O763 C762 1.247 . S
C764 O776 1.242 . S
C764 O777 1.258 . S
C765 C761 1.503 . S
C765 C766 1.379 . S
C765 C770 1.392 . S
C766 C765 1.379 . S
C766 C767 1.404 . S
C766 H780 0.929 . S
C767 C766 1.404 . S
C767 C768 1.389 . S
C768 C767 1.389 . S
C768 C769 1.399 . S
C768 H781 0.931 . S
C769 C768 1.399 . S
C769 C770 1.390 . S
C770 C765 1.392 . S
C770 C769 1.390 . S
C770 H782 0.929 . S
O771 Tb755 2.326 . S
O771 C759 1.242 . S
O772 Eu756 2.324 . S
O772 C759 1.258 . S
O773 Tb755 2.500 . S
O773 C775 1.273 . S
O774 Tb755 2.473 . S
O774 C775 1.257 . S
C775 O773 1.273 . S
C775 O774 1.257 . S
O776 Eu756 2.326 . S
O776 C764 1.242 . S
O777 Tb755 2.324 . S
O777 C764 1.258 . S
O778 Eu756 2.500 . S
O778 C761 1.273 . S
O779 Eu756 2.473 . S
O779 C761 1.257 . S
H780 C766 0.929 . S
H781 C768 0.931 . S
H782 C770 0.929 . S
O783 Tb784 2.292 . S
O783 C786 1.255 . S
Tb784 O783 2.292 . S
Tb784 O800 2.326 . S
Tb784 O802 2.500 . S
Tb784 O803 2.473 . S
Tb784 O806 2.324 . S
Eu785 O789 2.292 . S
Eu785 C790 2.852 . S
Eu785 O801 2.324 . S
Eu785 O805 2.326 . S
Eu785 O807 2.500 . S
Eu785 O808 2.473 . S
C786 O783 1.255 . S
C786 O787 1.247 . S
O787 C786 1.247 . S
C788 O800 1.242 . S
C788 O801 1.258 . S
O789 Eu785 2.292 . S
O789 C791 1.255 1_565 S
C790 Eu785 2.852 . S
C790 C794 1.503 . S
C790 O807 1.273 . S
C790 O808 1.257 . S
C791 O789 1.255 1_545 S
C791 O792 1.247 . S
O792 C791 1.247 . S
C793 O805 1.242 . S
C793 O806 1.258 . S
C794 C790 1.503 . S
C794 C795 1.379 . S
C794 C799 1.392 . S
C795 C794 1.379 . S
C795 C796 1.404 . S
C795 H809 0.929 . S
C796 C795 1.404 . S
C796 C797 1.389 . S
C797 C796 1.389 . S
C797 C798 1.399 . S
C797 H810 0.931 . S
C798 C797 1.399 . S
C798 C799 1.390 . S
C799 C794 1.392 . S
C799 C798 1.390 . S
C799 H811 0.929 . S
O800 Tb784 2.326 . S
O800 C788 1.242 . S
O801 Eu785 2.324 . S
O801 C788 1.258 . S
O802 Tb784 2.500 . S
O802 C804 1.273 . S
O803 Tb784 2.473 . S
O803 C804 1.257 . S
C804 O802 1.273 . S
C804 O803 1.257 . S
O805 Eu785 2.326 . S
O805 C793 1.242 . S
O806 Tb784 2.324 . S
O806 C793 1.258 . S
O807 Eu785 2.500 . S
O807 C790 1.273 . S
O808 Eu785 2.473 . S
O808 C790 1.257 . S
H809 C795 0.929 . S
H810 C797 0.931 . S
H811 C799 0.929 . S
O812 Tb813 2.292 . S
O812 C815 1.255 . S
Tb813 O812 2.292 . S
Tb813 O829 2.326 . S
Tb813 O831 2.500 . S
Tb813 O832 2.473 . S
Tb813 O835 2.324 . S
Eu814 O818 2.292 . S
Eu814 C819 2.852 . S
Eu814 O830 2.324 . S
Eu814 O834 2.326 . S
Eu814 O836 2.500 . S
Eu814 O837 2.473 . S
C815 O812 1.255 . S
C815 O816 1.247 . S
O816 C815 1.247 . S
C817 O829 1.242 . S
C817 O830 1.258 . S
O818 Eu814 2.292 . S
O818 C820 1.255 1_545 S
C819 Eu814 2.852 . S
C819 C823 1.503 . S
C819 O836 1.273 . S
C819 O837 1.257 . S
C820 O818 1.255 1_565 S
C820 O821 1.247 . S
O821 C820 1.247 . S
C822 O834 1.242 . S
C822 O835 1.258 . S
C823 C819 1.503 . S
C823 C824 1.379 1_556 S
C823 C828 1.392 1_556 S
C824 C823 1.379 1_554 S
C824 C825 1.404 . S
C824 H838 0.929 . S
C825 C824 1.404 . S
C825 C826 1.389 . S
C826 C825 1.389 . S
C826 C827 1.399 . S
C826 H839 0.931 . S
C827 C826 1.399 . S
C827 C828 1.390 . S
C828 C823 1.392 1_554 S
C828 C827 1.390 . S
C828 H840 0.929 1_554 S
O829 Tb813 2.326 . S
O829 C817 1.242 . S
O830 Eu814 2.324 . S
O830 C817 1.258 . S
O831 Tb813 2.500 . S
O831 C833 1.273 . S
O832 Tb813 2.473 . S
O832 C833 1.257 . S
C833 O831 1.273 . S
C833 O832 1.257 . S
O834 Eu814 2.326 . S
O834 C822 1.242 . S
O835 Tb813 2.324 . S
O835 C822 1.258 . S
O836 Eu814 2.500 . S
O836 C819 1.273 . S
O837 Eu814 2.473 . S
O837 C819 1.257 . S
H838 C824 0.929 . S
H839 C826 0.931 . S
H840 C828 0.929 1_556 S
O841 Tb842 2.292 . S
O841 C844 1.255 . S
Tb842 O841 2.292 . S
Tb842 O858 2.326 . S
Tb842 O860 2.500 . S
Tb842 O861 2.473 . S
Tb842 O864 2.324 . S
Eu843 O847 2.292 . S
Eu843 C848 2.852 . S
Eu843 O859 2.324 . S
Eu843 O863 2.326 . S
Eu843 O865 2.500 . S
Eu843 O866 2.473 . S
C844 O841 1.255 . S
C844 O845 1.247 . S
O845 C844 1.247 . S
C846 O858 1.242 . S
C846 O859 1.258 . S
O847 Eu843 2.292 . S
O847 C849 1.255 . S
C848 Eu843 2.852 . S
C848 C852 1.503 . S
C848 O865 1.273 . S
C848 O866 1.257 . S
C849 O847 1.255 . S
C849 O850 1.247 . S
O850 C849 1.247 . S
C851 O863 1.242 . S
C851 O864 1.258 . S
C852 C848 1.503 . S
C852 C853 1.379 1_556 S
C852 C857 1.392 1_556 S
C853 C852 1.379 1_554 S
C853 C854 1.404 . S
C853 H867 0.929 . S
C854 C853 1.404 . S
C854 C855 1.389 . S
C855 C854 1.389 . S
C855 C856 1.399 . S
C855 H868 0.931 . S
C856 C855 1.399 . S
C856 C857 1.390 . S
C857 C852 1.392 1_554 S
C857 C856 1.390 . S
C857 H869 0.929 1_554 S
O858 Tb842 2.326 . S
O858 C846 1.242 . S
O859 Eu843 2.324 . S
O859 C846 1.258 . S
O860 Tb842 2.500 . S
O860 C862 1.273 . S
O861 Tb842 2.473 . S
O861 C862 1.257 . S
C862 O860 1.273 . S
C862 O861 1.257 . S
O863 Eu843 2.326 . S
O863 C851 1.242 . S
O864 Tb842 2.324 . S
O864 C851 1.258 . S
O865 Eu843 2.500 . S
O865 C848 1.273 . S
O866 Eu843 2.473 . S
O866 C848 1.257 . S
H867 C853 0.929 . S
H868 C855 0.931 . S
H869 C857 0.929 1_556 S
O870 Tb871 2.292 . S
O870 C873 1.255 . S
Tb871 O870 2.292 . S
Tb871 O887 2.326 . S
Tb871 O889 2.500 . S
Tb871 O890 2.473 . S
Tb871 O893 2.324 . S
Eu872 O876 2.292 . S
Eu872 C877 2.852 . S
Eu872 O888 2.324 . S
Eu872 O892 2.326 . S
Eu872 O894 2.500 . S
Eu872 O895 2.473 . S
C873 O870 1.255 . S
C873 O874 1.247 . S
O874 C873 1.247 . S
C875 O887 1.242 . S
C875 O888 1.258 . S
O876 Eu872 2.292 . S
O876 C878 1.255 . S
C877 Eu872 2.852 . S
C877 C881 1.503 . S
C877 O894 1.273 . S
C877 O895 1.257 . S
C878 O876 1.255 . S
C878 O879 1.247 . S
O879 C878 1.247 . S
C880 O892 1.242 . S
C880 O893 1.258 . S
C881 C877 1.503 . S
C881 C882 1.379 . S
C881 C886 1.392 . S
C882 C881 1.379 . S
C882 C883 1.404 . S
C882 H896 0.929 . S
C883 C882 1.404 . S
C883 C884 1.389 . S
C884 C883 1.389 . S
C884 C885 1.399 . S
C884 H897 0.931 . S
C885 C884 1.399 . S
C885 C886 1.390 . S
C886 C881 1.392 . S
C886 C885 1.390 . S
C886 H898 0.929 . S
O887 Tb871 2.326 . S
O887 C875 1.242 . S
O888 Eu872 2.324 . S
O888 C875 1.258 . S
O889 Tb871 2.500 . S
O889 C891 1.273 . S
O890 Tb871 2.473 . S
O890 C891 1.257 . S
C891 O889 1.273 . S
C891 O890 1.257 . S
O892 Eu872 2.326 . S
O892 C880 1.242 . S
O893 Tb871 2.324 . S
O893 C880 1.258 . S
O894 Eu872 2.500 . S
O894 C877 1.273 . S
O895 Eu872 2.473 . S
O895 C877 1.257 . S
H896 C882 0.929 . S
H897 C884 0.931 . S
H898 C886 0.929 . S
O899 Tb900 2.292 . S
O899 C902 1.255 . S
Tb900 O899 2.292 . S
Tb900 O916 2.326 . S
Tb900 O918 2.500 . S
Tb900 O919 2.473 . S
Tb900 O922 2.324 . S
Eu901 O905 2.292 . S
Eu901 C906 2.852 . S
Eu901 O917 2.324 . S
Eu901 O921 2.326 . S
Eu901 O923 2.500 . S
Eu901 O924 2.473 . S
C902 O899 1.255 . S
C902 O903 1.247 . S
O903 C902 1.247 . S
C904 O916 1.242 . S
C904 O917 1.258 . S
O905 Eu901 2.292 . S
O905 C907 1.255 1_545 S
C906 Eu901 2.852 . S
C906 C910 1.503 . S
C906 O923 1.273 . S
C906 O924 1.257 . S
C907 O905 1.255 1_565 S
C907 O908 1.247 . S
O908 C907 1.247 . S
C909 O921 1.242 . S
C909 O922 1.258 . S
C910 C906 1.503 . S
C910 C911 1.379 . S
C910 C915 1.392 . S
C911 C910 1.379 . S
C911 C912 1.404 . S
C911 H925 0.929 . S
C912 C911 1.404 . S
C912 C913 1.389 . S
C913 C912 1.389 . S
C913 C914 1.399 . S
C913 H926 0.931 . S
C914 C913 1.399 . S
C914 C915 1.390 . S
C915 C910 1.392 . S
C915 C914 1.390 . S
C915 H927 0.929 . S
O916 Tb900 2.326 . S
O916 C904 1.242 . S
O917 Eu901 2.324 . S
O917 C904 1.258 . S
O918 Tb900 2.500 . S
O918 C920 1.273 . S
O919 Tb900 2.473 . S
O919 C920 1.257 . S
C920 O918 1.273 . S
C920 O919 1.257 . S
O921 Eu901 2.326 . S
O921 C909 1.242 . S
O922 Tb900 2.324 . S
O922 C909 1.258 . S
O923 Eu901 2.500 . S
O923 C906 1.273 . S
O924 Eu901 2.473 . S
O924 C906 1.257 . S
H925 C911 0.929 . S
H926 C913 0.931 . S
H927 C915 0.929 . S
H928 C934 0.930 . S
H929 C937 0.930 . S
H930 C938 0.930 . S
H931 C939 0.930 . S
H932 C942 0.930 . S
H933 C943 0.930 . S
C934 H928 0.930 . S
C934 C935 1.355 . S
C934 C936 1.415 . S
C935 C934 1.355 . S
C935 C937 1.419 . S
C936 C934 1.415 . S
C936 C941 1.425 . S
C936 C943 1.409 . S
C937 H929 0.930 . S
C937 C935 1.419 . S
C937 C938 1.362 . S
C938 H930 0.930 . S
C938 C937 1.362 . S
C938 C941 1.409 . S
C939 H931 0.930 . S
C939 C940 1.355 . S
C939 C941 1.415 . S
C940 C939 1.355 . S
C940 C942 1.419 . S
C941 C936 1.425 . S
C941 C938 1.409 . S
C941 C939 1.415 . S
C942 H932 0.930 . S
C942 C940 1.419 . S
C942 C943 1.362 . S
C943 H933 0.930 . S
C943 C936 1.409 . S
C943 C942 1.362 . S
H944 C950 0.930 . S
H945 C953 0.930 . S
H946 C954 0.930 . S
H947 C955 0.930 . S
H948 C958 0.930 . S
H949 C959 0.930 . S
C950 H944 0.930 . S
C950 C951 1.355 . S
C950 C952 1.415 . S
C951 C950 1.355 . S
C951 C953 1.419 . S
C952 C950 1.415 . S
C952 C957 1.425 . S
C952 C959 1.409 . S
C953 H945 0.930 . S
C953 C951 1.419 . S
C953 C954 1.362 . S
C954 H946 0.930 . S
C954 C953 1.362 . S
C954 C957 1.409 . S
C955 H947 0.930 . S
C955 C956 1.355 . S
C955 C957 1.415 . S
C956 C955 1.355 . S
C956 C958 1.419 . S
C957 C952 1.425 . S
C957 C954 1.409 . S
C957 C955 1.415 . S
C958 H948 0.930 . S
C958 C956 1.419 . S
C958 C959 1.362 . S
C959 H949 0.930 . S
C959 C952 1.409 . S
C959 C958 1.362 . S
H960 C966 0.930 . S
H961 C969 0.930 . S
H962 C970 0.930 . S
H963 C971 0.930 . S
H964 C974 0.930 . S
H965 C975 0.930 . S
C966 H960 0.930 . S
C966 C967 1.355 . S
C966 C968 1.415 . S
C967 C966 1.355 . S
C967 C969 1.419 . S
C968 C966 1.415 . S
C968 C973 1.425 . S
C968 C975 1.409 . S
C969 H961 0.930 . S
C969 C967 1.419 . S
C969 C970 1.362 . S
C970 H962 0.930 . S
C970 C969 1.362 . S
C970 C973 1.409 . S
C971 H963 0.930 . S
C971 C972 1.355 . S
C971 C973 1.415 . S
C972 C971 1.355 . S
C972 C974 1.419 . S
C973 C968 1.425 . S
C973 C970 1.409 . S
C973 C971 1.415 . S
C974 H964 0.930 . S
C974 C972 1.419 . S
C974 C975 1.362 . S
C975 H965 0.930 . S
C975 C968 1.409 . S
C975 C974 1.362 . S
H976 C982 0.930 . S
H977 C985 0.930 . S
H978 C986 0.930 . S
H979 C987 0.930 . S
H980 C990 0.930 . S
H981 C991 0.930 . S
C982 H976 0.930 . S
C982 C983 1.355 . S
C982 C984 1.415 . S
C983 C982 1.355 . S
C983 C985 1.419 . S
C984 C982 1.415 . S
C984 C989 1.425 . S
C984 C991 1.409 . S
C985 H977 0.930 . S
C985 C983 1.419 . S
C985 C986 1.362 . S
C986 H978 0.930 . S
C986 C985 1.362 . S
C986 C989 1.409 . S
C987 H979 0.930 . S
C987 C988 1.355 . S
C987 C989 1.415 . S
C988 C987 1.355 . S
C988 C990 1.419 . S
C989 C984 1.425 . S
C989 C986 1.409 . S
C989 C987 1.415 . S
C990 H980 0.930 . S
C990 C988 1.419 . S
C990 C991 1.362 . S
C991 H981 0.930 . S
C991 C984 1.409 . S
C991 C990 1.362 . S
H992 C998 0.930 . S
H993 C1001 0.930 . S
H994 C1002 0.930 . S
H995 C1003 0.930 . S
H996 C1006 0.930 . S
H997 C1007 0.930 . S
C998 H992 0.930 . S
C998 C999 1.355 . S
C998 C1000 1.415 . S
C999 C998 1.355 . S
C999 C1001 1.419 . S
C1000 C998 1.415 . S
C1000 C1005 1.425 . S
C1000 C1007 1.409 . S
C1001 H993 0.930 . S
C1001 C999 1.419 . S
C1001 C1002 1.362 . S
C1002 H994 0.930 . S
C1002 C1001 1.362 . S
C1002 C1005 1.409 . S
C1003 H995 0.930 . S
C1003 C1004 1.355 . S
C1003 C1005 1.415 . S
C1004 C1003 1.355 . S
C1004 C1006 1.419 . S
C1005 C1000 1.425 . S
C1005 C1002 1.409 . S
C1005 C1003 1.415 . S
C1006 H996 0.930 . S
C1006 C1004 1.419 . S
C1006 C1007 1.362 . S
C1007 H997 0.930 . S
C1007 C1000 1.409 . S
C1007 C1006 1.362 . S
H1008 C1014 0.930 . S
H1009 C1017 0.930 . S
H1010 C1018 0.930 . S
H1011 C1019 0.930 . S
H1012 C1022 0.930 . S
H1013 C1023 0.930 . S
C1014 H1008 0.930 . S
C1014 C1015 1.355 . S
C1014 C1016 1.415 . S
C1015 C1014 1.355 . S
C1015 C1017 1.419 . S
C1016 C1014 1.415 . S
C1016 C1021 1.425 . S
C1016 C1023 1.409 . S
C1017 H1009 0.930 . S
C1017 C1015 1.419 . S
C1017 C1018 1.362 . S
C1018 H1010 0.930 . S
C1018 C1017 1.362 . S
C1018 C1021 1.409 . S
C1019 H1011 0.930 . S
C1019 C1020 1.355 . S
C1019 C1021 1.415 . S
C1020 C1019 1.355 . S
C1020 C1022 1.419 . S
C1021 C1016 1.425 . S
C1021 C1018 1.409 . S
C1021 C1019 1.415 . S
C1022 H1012 0.930 . S
C1022 C1020 1.419 . S
C1022 C1023 1.362 . S
C1023 H1013 0.930 . S
C1023 C1016 1.409 . S
C1023 C1022 1.362 . S
H1024 C1030 0.930 . S
H1025 C1033 0.930 . S
H1026 C1034 0.930 . S
H1027 C1035 0.930 . S
H1028 C1038 0.930 . S
H1029 C1039 0.930 . S
C1030 H1024 0.930 . S
C1030 C1031 1.355 . S
C1030 C1032 1.415 . S
C1031 C1030 1.355 . S
C1031 C1033 1.419 . S
C1032 C1030 1.415 . S
C1032 C1037 1.425 . S
C1032 C1039 1.409 . S
C1033 H1025 0.930 . S
C1033 C1031 1.419 . S
C1033 C1034 1.362 . S
C1034 H1026 0.930 . S
C1034 C1033 1.362 . S
C1034 C1037 1.409 . S
C1035 H1027 0.930 . S
C1035 C1036 1.355 . S
C1035 C1037 1.415 . S
C1036 C1035 1.355 . S
C1036 C1038 1.419 . S
C1037 C1032 1.425 . S
C1037 C1034 1.409 . S
C1037 C1035 1.415 . S
C1038 H1028 0.930 . S
C1038 C1036 1.419 . S
C1038 C1039 1.362 . S
C1039 H1029 0.930 . S
C1039 C1032 1.409 . S
C1039 C1038 1.362 . S
H1040 C1046 0.930 . S
H1041 C1049 0.930 . S
H1042 C1050 0.930 . S
H1043 C1051 0.930 . S
H1044 C1054 0.930 . S
H1045 C1055 0.930 . S
C1046 H1040 0.930 . S
C1046 C1047 1.355 . S
C1046 C1048 1.415 . S
C1047 C1046 1.355 . S
C1047 C1049 1.419 . S
C1048 C1046 1.415 . S
C1048 C1053 1.425 . S
C1048 C1055 1.409 . S
C1049 H1041 0.930 . S
C1049 C1047 1.419 . S
C1049 C1050 1.362 . S
C1050 H1042 0.930 . S
C1050 C1049 1.362 . S
C1050 C1053 1.409 . S
C1051 H1043 0.930 . S
C1051 C1052 1.355 . S
C1051 C1053 1.415 . S
C1052 C1051 1.355 . S
C1052 C1054 1.419 . S
C1053 C1048 1.425 . S
C1053 C1050 1.409 . S
C1053 C1051 1.415 . S
C1054 H1044 0.930 . S
C1054 C1052 1.419 . S
C1054 C1055 1.362 . S
C1055 H1045 0.930 . S
C1055 C1048 1.409 . S
C1055 C1054 1.362 . S
H1056 C1062 0.930 . S
H1057 C1065 0.930 . S
H1058 C1066 0.930 . S
H1059 C1067 0.930 . S
H1060 C1070 0.930 . S
H1061 C1071 0.930 . S
C1062 H1056 0.930 . S
C1062 C1063 1.355 . S
C1062 C1064 1.415 . S
C1063 C1062 1.355 . S
C1063 C1065 1.419 . S
C1064 C1062 1.415 . S
C1064 C1069 1.425 . S
C1064 C1071 1.409 . S
C1065 H1057 0.930 . S
C1065 C1063 1.419 . S
C1065 C1066 1.362 . S
C1066 H1058 0.930 . S
C1066 C1065 1.362 . S
C1066 C1069 1.409 . S
C1067 H1059 0.930 . S
C1067 C1068 1.355 . S
C1067 C1069 1.415 . S
C1068 C1067 1.355 . S
C1068 C1070 1.419 . S
C1069 C1064 1.425 . S
C1069 C1066 1.409 . S
C1069 C1067 1.415 . S
C1070 H1060 0.930 . S
C1070 C1068 1.419 . S
C1070 C1071 1.362 . S
C1071 H1061 0.930 . S
C1071 C1064 1.409 . S
C1071 C1070 1.362 . S
H1072 C1078 0.930 . S
H1073 C1081 0.930 . S
H1074 C1082 0.930 . S
H1075 C1083 0.930 . S
H1076 C1086 0.930 . S
H1077 C1087 0.930 . S
C1078 H1072 0.930 . S
C1078 C1079 1.355 . S
C1078 C1080 1.415 . S
C1079 C1078 1.355 . S
C1079 C1081 1.419 . S
C1080 C1078 1.415 . S
C1080 C1085 1.425 . S
C1080 C1087 1.409 . S
C1081 H1073 0.930 . S
C1081 C1079 1.419 . S
C1081 C1082 1.362 . S
C1082 H1074 0.930 . S
C1082 C1081 1.362 . S
C1082 C1085 1.409 . S
C1083 H1075 0.930 . S
C1083 C1084 1.355 . S
C1083 C1085 1.415 . S
C1084 C1083 1.355 . S
C1084 C1086 1.419 . S
C1085 C1080 1.425 . S
C1085 C1082 1.409 . S
C1085 C1083 1.415 . S
C1086 H1076 0.930 . S
C1086 C1084 1.419 . S
C1086 C1087 1.362 . S
C1087 H1077 0.930 . S
C1087 C1080 1.409 . S
C1087 C1086 1.362 . S
H1088 C1094 0.930 . S
H1089 C1097 0.930 . S
H1090 C1098 0.930 . S
H1091 C1099 0.930 . S
H1092 C1102 0.930 . S
H1093 C1103 0.930 . S
C1094 H1088 0.930 . S
C1094 C1095 1.355 . S
C1094 C1096 1.415 . S
C1095 C1094 1.355 . S
C1095 C1097 1.419 . S
C1096 C1094 1.415 . S
C1096 C1101 1.425 . S
C1096 C1103 1.409 . S
C1097 H1089 0.930 . S
C1097 C1095 1.419 . S
C1097 C1098 1.362 . S
C1098 H1090 0.930 . S
C1098 C1097 1.362 . S
C1098 C1101 1.409 . S
C1099 H1091 0.930 . S
C1099 C1100 1.355 . S
C1099 C1101 1.415 . S
C1100 C1099 1.355 . S
C1100 C1102 1.419 . S
C1101 C1096 1.425 . S
C1101 C1098 1.409 . S
C1101 C1099 1.415 . S
C1102 H1092 0.930 . S
C1102 C1100 1.419 . S
C1102 C1103 1.362 . S
C1103 H1093 0.930 . S
C1103 C1096 1.409 . S
C1103 C1102 1.362 . S
H1104 C1110 0.930 . S
H1105 C1113 0.930 . S
H1106 C1114 0.930 . S
H1107 C1115 0.930 . S
H1108 C1118 0.930 . S
H1109 C1119 0.930 . S
C1110 H1104 0.930 . S
C1110 C1111 1.355 . S
C1110 C1112 1.415 . S
C1111 C1110 1.355 . S
C1111 C1113 1.419 . S
C1112 C1110 1.415 . S
C1112 C1117 1.425 . S
C1112 C1119 1.409 . S
C1113 H1105 0.930 . S
C1113 C1111 1.419 . S
C1113 C1114 1.362 . S
C1114 H1106 0.930 . S
C1114 C1113 1.362 . S
C1114 C1117 1.409 . S
C1115 H1107 0.930 . S
C1115 C1116 1.355 . S
C1115 C1117 1.415 . S
C1116 C1115 1.355 . S
C1116 C1118 1.419 . S
C1117 C1112 1.425 . S
C1117 C1114 1.409 . S
C1117 C1115 1.415 . S
C1118 H1108 0.930 . S
C1118 C1116 1.419 . S
C1118 C1119 1.362 . S
C1119 H1109 0.930 . S
C1119 C1112 1.409 . S
C1119 C1118 1.362 . S
H1120 C1126 0.930 . S
H1121 C1129 0.930 . S
H1122 C1130 0.930 . S
H1123 C1131 0.930 . S
H1124 C1134 0.930 . S
H1125 C1135 0.930 . S
C1126 H1120 0.930 . S
C1126 C1127 1.355 . S
C1126 C1128 1.415 . S
C1127 C1126 1.355 . S
C1127 C1129 1.419 . S
C1128 C1126 1.415 . S
C1128 C1133 1.425 . S
C1128 C1135 1.409 . S
C1129 H1121 0.930 . S
C1129 C1127 1.419 . S
C1129 C1130 1.362 . S
C1130 H1122 0.930 . S
C1130 C1129 1.362 . S
C1130 C1133 1.409 . S
C1131 H1123 0.930 . S
C1131 C1132 1.355 . S
C1131 C1133 1.415 . S
C1132 C1131 1.355 . S
C1132 C1134 1.419 . S
C1133 C1128 1.425 . S
C1133 C1130 1.409 . S
C1133 C1131 1.415 . S
C1134 H1124 0.930 . S
C1134 C1132 1.419 . S
C1134 C1135 1.362 . S
C1135 H1125 0.930 . S
C1135 C1128 1.409 . S
C1135 C1134 1.362 . S
H1136 C1142 0.930 . S
H1137 C1145 0.930 . S
H1138 C1146 0.930 . S
H1139 C1147 0.930 . S
H1140 C1150 0.930 . S
H1141 C1151 0.930 . S
C1142 H1136 0.930 . S
C1142 C1143 1.355 . S
C1142 C1144 1.415 . S
C1143 C1142 1.355 . S
C1143 C1145 1.419 . S
C1144 C1142 1.415 . S
C1144 C1149 1.425 . S
C1144 C1151 1.409 . S
C1145 H1137 0.930 . S
C1145 C1143 1.419 . S
C1145 C1146 1.362 . S
C1146 H1138 0.930 . S
C1146 C1145 1.362 . S
C1146 C1149 1.409 . S
C1147 H1139 0.930 . S
C1147 C1148 1.355 . S
C1147 C1149 1.415 . S
C1148 C1147 1.355 . S
C1148 C1150 1.419 . S
C1149 C1144 1.425 . S
C1149 C1146 1.409 . S
C1149 C1147 1.415 . S
C1150 H1140 0.930 . S
C1150 C1148 1.419 . S
C1150 C1151 1.362 . S
C1151 H1141 0.930 . S
C1151 C1144 1.409 . S
C1151 C1150 1.362 . S
H1152 C1158 0.930 . S
H1153 C1161 0.930 . S
H1154 C1162 0.930 . S
H1155 C1163 0.930 . S
H1156 C1166 0.930 . S
H1157 C1167 0.930 . S
C1158 H1152 0.930 . S
C1158 C1159 1.355 . S
C1158 C1160 1.415 . S
C1159 C1158 1.355 . S
C1159 C1161 1.419 . S
C1160 C1158 1.415 . S
C1160 C1165 1.425 . S
C1160 C1167 1.409 . S
C1161 H1153 0.930 . S
C1161 C1159 1.419 . S
C1161 C1162 1.362 . S
C1162 H1154 0.930 . S
C1162 C1161 1.362 . S
C1162 C1165 1.409 . S
C1163 H1155 0.930 . S
C1163 C1164 1.355 . S
C1163 C1165 1.415 . S
C1164 C1163 1.355 . S
C1164 C1166 1.419 . S
C1165 C1160 1.425 . S
C1165 C1162 1.409 . S
C1165 C1163 1.415 . S
C1166 H1156 0.930 . S
C1166 C1164 1.419 . S
C1166 C1167 1.362 . S
C1167 H1157 0.930 . S
C1167 C1160 1.409 . S
C1167 C1166 1.362 . S
H1168 C1174 0.930 . S
H1169 C1177 0.930 . S
H1170 C1178 0.930 . S
H1171 C1179 0.930 . S
H1172 C1182 0.930 . S
H1173 C1183 0.930 . S
C1174 H1168 0.930 . S
C1174 C1175 1.355 . S
C1174 C1176 1.415 . S
C1175 C1174 1.355 . S
C1175 C1177 1.419 . S
C1176 C1174 1.415 . S
C1176 C1181 1.425 . S
C1176 C1183 1.409 . S
C1177 H1169 0.930 . S
C1177 C1175 1.419 . S
C1177 C1178 1.362 . S
C1178 H1170 0.930 . S
C1178 C1177 1.362 . S
C1178 C1181 1.409 . S
C1179 H1171 0.930 . S
C1179 C1180 1.355 . S
C1179 C1181 1.415 . S
C1180 C1179 1.355 . S
C1180 C1182 1.419 . S
C1181 C1176 1.425 . S
C1181 C1178 1.409 . S
C1181 C1179 1.415 . S
C1182 H1172 0.930 . S
C1182 C1180 1.419 . S
C1182 C1183 1.362 . S
C1183 H1173 0.930 . S
C1183 C1176 1.409 . S
C1183 C1182 1.362 . S
H1184 C1190 0.930 . S
H1185 C1193 0.930 . S
H1186 C1194 0.931 . S
H1187 C1195 0.930 . S
H1188 C1198 0.930 . S
H1189 C1199 0.930 . S
C1190 H1184 0.930 . S
C1190 C1191 1.355 . S
C1190 C1192 1.415 . S
C1191 C1190 1.355 . S
C1191 C1193 1.419 . S
C1192 C1190 1.415 . S
C1192 C1197 1.425 . S
C1192 C1199 1.409 . S
C1193 H1185 0.930 . S
C1193 C1191 1.419 . S
C1193 C1194 1.362 . S
C1194 H1186 0.931 . S
C1194 C1193 1.362 . S
C1194 C1197 1.409 . S
C1195 H1187 0.930 . S
C1195 C1196 1.355 . S
C1195 C1197 1.415 . S
C1196 C1195 1.355 . S
C1196 C1198 1.419 . S
C1197 C1192 1.425 . S
C1197 C1194 1.409 . S
C1197 C1195 1.415 . S
C1198 H1188 0.930 . S
C1198 C1196 1.419 . S
C1198 C1199 1.362 . S
C1199 H1189 0.930 . S
C1199 C1192 1.409 . S
C1199 C1198 1.362 . S
H1200 C1206 0.930 . S
H1201 C1209 0.930 . S
H1202 C1210 0.930 . S
H1203 C1211 0.930 . S
H1204 C1214 0.930 . S
H1205 C1215 0.930 . S
C1206 H1200 0.930 . S
C1206 C1207 1.355 . S
C1206 C1208 1.415 . S
C1207 C1206 1.355 . S
C1207 C1209 1.419 . S
C1208 C1206 1.415 . S
C1208 C1213 1.425 . S
C1208 C1215 1.409 . S
C1209 H1201 0.930 . S
C1209 C1207 1.419 . S
C1209 C1210 1.362 . S
C1210 H1202 0.930 . S
C1210 C1209 1.362 . S
C1210 C1213 1.409 . S
C1211 H1203 0.930 . S
C1211 C1212 1.355 . S
C1211 C1213 1.415 . S
C1212 C1211 1.355 . S
C1212 C1214 1.419 . S
C1213 C1208 1.425 . S
C1213 C1210 1.409 . S
C1213 C1211 1.415 . S
C1214 H1204 0.930 . S
C1214 C1212 1.419 . S
C1214 C1215 1.362 . S
C1215 H1205 0.930 . S
C1215 C1208 1.409 . S
C1215 C1214 1.362 . S
H1216 C1222 0.930 . S
H1217 C1225 0.930 . S
H1218 C1226 0.930 . S
H1219 C1227 0.930 . S
H1220 C1230 0.930 . S
H1221 C1231 0.930 . S
C1222 H1216 0.930 . S
C1222 C1223 1.355 . S
C1222 C1224 1.415 . S
C1223 C1222 1.355 . S
C1223 C1225 1.419 . S
C1224 C1222 1.415 . S
C1224 C1229 1.425 . S
C1224 C1231 1.409 . S
C1225 H1217 0.930 . S
C1225 C1223 1.419 . S
C1225 C1226 1.362 . S
C1226 H1218 0.930 . S
C1226 C1225 1.362 . S
C1226 C1229 1.409 . S
C1227 H1219 0.930 . S
C1227 C1228 1.355 . S
C1227 C1229 1.415 . S
C1228 C1227 1.355 . S
C1228 C1230 1.419 . S
C1229 C1224 1.425 . S
C1229 C1226 1.409 . S
C1229 C1227 1.415 . S
C1230 H1220 0.930 . S
C1230 C1228 1.419 . S
C1230 C1231 1.362 . S
C1231 H1221 0.930 . S
C1231 C1224 1.409 . S
C1231 C1230 1.362 . S
H1232 C1238 0.930 . S
H1233 C1241 0.930 . S
H1234 C1242 0.930 . S
H1235 C1243 0.930 . S
H1236 C1246 0.930 1_545 S
H1237 C1247 0.930 . S
C1238 H1232 0.930 . S
C1238 C1239 1.355 . S
C1238 C1240 1.415 . S
C1239 C1238 1.355 . S
C1239 C1241 1.419 . S
C1240 C1238 1.415 . S
C1240 C1245 1.425 . S
C1240 C1247 1.409 . S
C1241 H1233 0.930 . S
C1241 C1239 1.419 . S
C1241 C1242 1.362 . S
C1242 H1234 0.930 . S
C1242 C1241 1.362 . S
C1242 C1245 1.409 . S
C1243 H1235 0.930 . S
C1243 C1244 1.355 . S
C1243 C1245 1.415 . S
C1244 C1243 1.355 . S
C1244 C1246 1.419 . S
C1245 C1240 1.425 . S
C1245 C1242 1.409 . S
C1245 C1243 1.415 . S
C1246 H1236 0.930 1_565 S
C1246 C1244 1.419 . S
C1246 C1247 1.362 . S
C1247 H1237 0.930 . S
C1247 C1240 1.409 . S
C1247 C1246 1.362 . S
H1248 C1254 0.930 . S
H1249 C1257 0.930 . S
H1250 C1258 0.930 . S
H1251 C1259 0.930 . S
H1252 C1262 0.930 . S
H1253 C1263 0.930 . S
C1254 H1248 0.930 . S
C1254 C1255 1.355 . S
C1254 C1256 1.415 . S
C1255 C1254 1.355 . S
C1255 C1257 1.419 . S
C1256 C1254 1.415 . S
C1256 C1261 1.425 . S
C1256 C1263 1.409 . S
C1257 H1249 0.930 . S
C1257 C1255 1.419 . S
C1257 C1258 1.362 . S
C1258 H1250 0.930 . S
C1258 C1257 1.362 . S
C1258 C1261 1.409 . S
C1259 H1251 0.930 . S
C1259 C1260 1.355 . S
C1259 C1261 1.415 . S
C1260 C1259 1.355 . S
C1260 C1262 1.419 . S
C1261 C1256 1.425 . S
C1261 C1258 1.409 . S
C1261 C1259 1.415 . S
C1262 H1252 0.930 . S
C1262 C1260 1.419 . S
C1262 C1263 1.362 . S
C1263 H1253 0.930 . S
C1263 C1256 1.409 . S
C1263 C1262 1.362 . S
H1264 C1270 0.930 . S
H1265 C1273 0.930 . S
H1266 C1274 0.930 . S
H1267 C1275 0.930 . S
H1268 C1278 0.930 . S
H1269 C1279 0.930 . S
C1270 H1264 0.930 . S
C1270 C1271 1.355 . S
C1270 C1272 1.415 . S
C1271 C1270 1.355 . S
C1271 C1273 1.419 . S
C1272 C1270 1.415 . S
C1272 C1277 1.425 . S
C1272 C1279 1.409 . S
C1273 H1265 0.930 . S
C1273 C1271 1.419 . S
C1273 C1274 1.362 . S
C1274 H1266 0.930 . S
C1274 C1273 1.362 . S
C1274 C1277 1.409 . S
C1275 H1267 0.930 . S
C1275 C1276 1.355 . S
C1275 C1277 1.415 . S
C1276 C1275 1.355 . S
C1276 C1278 1.419 . S
C1277 C1272 1.425 . S
C1277 C1274 1.409 . S
C1277 C1275 1.415 . S
C1278 H1268 0.930 . S
C1278 C1276 1.419 . S
C1278 C1279 1.362 . S
C1279 H1269 0.930 . S
C1279 C1272 1.409 . S
C1279 C1278 1.362 . S
H1280 C1286 0.930 . S
H1281 C1289 0.930 . S
H1282 C1290 0.930 . S
H1283 C1291 0.930 . S
H1284 C1294 0.930 . S
H1285 C1295 0.930 . S
C1286 H1280 0.930 . S
C1286 C1287 1.355 . S
C1286 C1288 1.415 . S
C1287 C1286 1.355 . S
C1287 C1289 1.419 . S
C1288 C1286 1.415 . S
C1288 C1293 1.425 . S
C1288 C1295 1.409 . S
C1289 H1281 0.930 . S
C1289 C1287 1.419 . S
C1289 C1290 1.362 . S
C1290 H1282 0.930 . S
C1290 C1289 1.362 . S
C1290 C1293 1.409 . S
C1291 H1283 0.930 . S
C1291 C1292 1.355 . S
C1291 C1293 1.415 . S
C1292 C1291 1.355 . S
C1292 C1294 1.419 . S
C1293 C1288 1.425 . S
C1293 C1290 1.409 . S
C1293 C1291 1.415 . S
C1294 H1284 0.930 . S
C1294 C1292 1.419 . S
C1294 C1295 1.362 . S
C1295 H1285 0.930 . S
C1295 C1288 1.409 . S
C1295 C1294 1.362 . S
H1296 C1302 0.930 . S
H1297 C1305 0.930 . S
H1298 C1306 0.930 . S
H1299 C1307 0.930 . S
H1300 C1310 0.930 . S
H1301 C1311 0.930 . S
C1302 H1296 0.930 . S
C1302 C1303 1.355 . S
C1302 C1304 1.415 . S
C1303 C1302 1.355 . S
C1303 C1305 1.419 . S
C1304 C1302 1.415 . S
C1304 C1309 1.425 . S
C1304 C1311 1.409 . S
C1305 H1297 0.930 . S
C1305 C1303 1.419 . S
C1305 C1306 1.362 . S
C1306 H1298 0.930 . S
C1306 C1305 1.362 . S
C1306 C1309 1.409 . S
C1307 H1299 0.930 . S
C1307 C1308 1.355 . S
C1307 C1309 1.415 . S
C1308 C1307 1.355 . S
C1308 C1310 1.419 . S
C1309 C1304 1.425 . S
C1309 C1306 1.409 . S
C1309 C1307 1.415 . S
C1310 H1300 0.930 . S
C1310 C1308 1.419 . S
C1310 C1311 1.362 . S
C1311 H1301 0.930 . S
C1311 C1304 1.409 . S
C1311 C1310 1.362 . S
H1312 C1318 0.930 . S
H1313 C1321 0.930 . S
H1314 C1322 0.930 . S
H1315 C1323 0.930 . S
H1316 C1326 0.930 1_565 S
H1317 C1327 0.930 . S
C1318 H1312 0.930 . S
C1318 C1319 1.355 . S
C1318 C1320 1.415 . S
C1319 C1318 1.355 . S
C1319 C1321 1.419 . S
C1320 C1318 1.415 . S
C1320 C1325 1.425 . S
C1320 C1327 1.409 . S
C1321 H1313 0.930 . S
C1321 C1319 1.419 . S
C1321 C1322 1.362 . S
C1322 H1314 0.930 . S
C1322 C1321 1.362 . S
C1322 C1325 1.409 . S
C1323 H1315 0.930 . S
C1323 C1324 1.355 . S
C1323 C1325 1.415 . S
C1324 C1323 1.355 . S
C1324 C1326 1.419 . S
C1325 C1320 1.425 . S
C1325 C1322 1.409 . S
C1325 C1323 1.415 . S
C1326 H1316 0.930 1_545 S
C1326 C1324 1.419 . S
C1326 C1327 1.362 . S
C1327 H1317 0.930 . S
C1327 C1320 1.409 . S
C1327 C1326 1.362 . S
H1328 C1334 0.930 . S
H1329 C1337 0.930 . S
H1330 C1338 0.930 . S
H1331 C1339 0.930 . S
H1332 C1342 0.930 . S
H1333 C1343 0.930 . S
C1334 H1328 0.930 . S
C1334 C1335 1.355 . S
C1334 C1336 1.415 . S
C1335 C1334 1.355 . S
C1335 C1337 1.419 . S
C1336 C1334 1.415 . S
C1336 C1341 1.425 . S
C1336 C1343 1.409 . S
C1337 H1329 0.930 . S
C1337 C1335 1.419 . S
C1337 C1338 1.362 . S
C1338 H1330 0.930 . S
C1338 C1337 1.362 . S
C1338 C1341 1.409 . S
C1339 H1331 0.930 . S
C1339 C1340 1.355 . S
C1339 C1341 1.415 . S
C1340 C1339 1.355 . S
C1340 C1342 1.419 . S
C1341 C1336 1.425 . S
C1341 C1338 1.409 . S
C1341 C1339 1.415 . S
C1342 H1332 0.930 . S
C1342 C1340 1.419 . S
C1342 C1343 1.362 . S
C1343 H1333 0.930 . S
C1343 C1336 1.409 . S
C1343 C1342 1.362 . S
H1344 C1350 0.930 . S
H1345 C1353 0.930 . S
H1346 C1354 0.930 . S
H1347 C1355 0.930 . S
H1348 C1358 0.930 . S
H1349 C1359 0.930 . S
C1350 H1344 0.930 . S
C1350 C1351 1.355 . S
C1350 C1352 1.415 . S
C1351 C1350 1.355 . S
C1351 C1353 1.419 . S
C1352 C1350 1.415 . S
C1352 C1357 1.425 . S
C1352 C1359 1.409 . S
C1353 H1345 0.930 . S
C1353 C1351 1.419 . S
C1353 C1354 1.362 . S
C1354 H1346 0.930 . S
C1354 C1353 1.362 . S
C1354 C1357 1.409 . S
C1355 H1347 0.930 . S
C1355 C1356 1.355 . S
C1355 C1357 1.415 . S
C1356 C1355 1.355 . S
C1356 C1358 1.419 . S
C1357 C1352 1.425 . S
C1357 C1354 1.409 . S
C1357 C1355 1.415 . S
C1358 H1348 0.930 . S
C1358 C1356 1.419 . S
C1358 C1359 1.362 . S
C1359 H1349 0.930 . S
C1359 C1352 1.409 . S
C1359 C1358 1.362 . S
H1360 C1366 0.930 . S
H1361 C1369 0.930 . S
H1362 C1370 0.930 . S
H1363 C1371 0.930 . S
H1364 C1374 0.930 . S
H1365 C1375 0.930 . S
C1366 H1360 0.930 . S
C1366 C1367 1.355 . S
C1366 C1368 1.415 . S
C1367 C1366 1.355 . S
C1367 C1369 1.419 . S
C1368 C1366 1.415 . S
C1368 C1373 1.425 . S
C1368 C1375 1.409 . S
C1369 H1361 0.930 . S
C1369 C1367 1.419 . S
C1369 C1370 1.362 . S
C1370 H1362 0.930 . S
C1370 C1369 1.362 . S
C1370 C1373 1.409 . S
C1371 H1363 0.930 . S
C1371 C1372 1.355 . S
C1371 C1373 1.415 . S
C1372 C1371 1.355 . S
C1372 C1374 1.419 . S
C1373 C1368 1.425 . S
C1373 C1370 1.409 . S
C1373 C1371 1.415 . S
C1374 H1364 0.930 . S
C1374 C1372 1.419 . S
C1374 C1375 1.362 . S
C1375 H1365 0.930 . S
C1375 C1368 1.409 . S
C1375 C1374 1.362 . S
H1376 C1382 0.930 . S
H1377 C1385 0.930 1_556 S
H1378 C1386 0.930 1_556 S
H1379 C1387 0.930 . S
H1380 C1390 0.930 . S
H1381 C1391 0.930 . S
C1382 H1376 0.930 . S
C1382 C1383 1.355 . S
C1382 C1384 1.415 . S
C1383 C1382 1.355 . S
C1383 C1385 1.419 . S
C1384 C1382 1.415 . S
C1384 C1389 1.425 . S
C1384 C1391 1.409 . S
C1385 H1377 0.930 1_554 S
C1385 C1383 1.419 . S
C1385 C1386 1.362 . S
C1386 H1378 0.930 1_554 S
C1386 C1385 1.362 . S
C1386 C1389 1.409 . S
C1387 H1379 0.930 . S
C1387 C1388 1.355 . S
C1387 C1389 1.415 . S
C1388 C1387 1.355 . S
C1388 C1390 1.419 . S
C1389 C1384 1.425 . S
C1389 C1386 1.409 . S
C1389 C1387 1.415 . S
C1390 H1380 0.930 . S
C1390 C1388 1.419 . S
C1390 C1391 1.362 . S
C1391 H1381 0.930 . S
C1391 C1384 1.409 . S
C1391 C1390 1.362 . S
H1392 C1398 0.930 . S
H1393 C1401 0.930 . S
H1394 C1402 0.930 . S
H1395 C1403 0.930 . S
H1396 C1406 0.930 . S
H1397 C1407 0.930 . S
C1398 H1392 0.930 . S
C1398 C1399 1.355 . S
C1398 C1400 1.415 . S
C1399 C1398 1.355 . S
C1399 C1401 1.419 . S
C1400 C1398 1.415 . S
C1400 C1405 1.425 . S
C1400 C1407 1.409 . S
C1401 H1393 0.930 . S
C1401 C1399 1.419 . S
C1401 C1402 1.362 . S
C1402 H1394 0.930 . S
C1402 C1401 1.362 . S
C1402 C1405 1.409 . S
C1403 H1395 0.930 . S
C1403 C1404 1.355 . S
C1403 C1405 1.415 . S
C1404 C1403 1.355 . S
C1404 C1406 1.419 . S
C1405 C1400 1.425 . S
C1405 C1402 1.409 . S
C1405 C1403 1.415 . S
C1406 H1396 0.930 . S
C1406 C1404 1.419 . S
C1406 C1407 1.362 . S
C1407 H1397 0.930 . S
C1407 C1400 1.409 . S
C1407 C1406 1.362 . S
H1408 C1414 0.930 . S
H1409 C1417 0.930 1_554 S
H1410 C1418 0.930 1_554 S
H1411 C1419 0.930 . S
H1412 C1422 0.930 . S
H1413 C1423 0.930 . S
C1414 H1408 0.930 . S
C1414 C1415 1.355 . S
C1414 C1416 1.415 . S
C1415 C1414 1.355 . S
C1415 C1417 1.419 . S
C1416 C1414 1.415 . S
C1416 C1421 1.425 . S
C1416 C1423 1.409 . S
C1417 H1409 0.930 1_556 S
C1417 C1415 1.419 . S
C1417 C1418 1.362 . S
C1418 H1410 0.930 1_556 S
C1418 C1417 1.362 . S
C1418 C1421 1.409 . S
C1419 H1411 0.930 . S
C1419 C1420 1.355 . S
C1419 C1421 1.415 . S
C1420 C1419 1.355 . S
C1420 C1422 1.419 . S
C1421 C1416 1.425 . S
C1421 C1418 1.409 . S
C1421 C1419 1.415 . S
C1422 H1412 0.930 . S
C1422 C1420 1.419 . S
C1422 C1423 1.362 . S
C1423 H1413 0.930 . S
C1423 C1416 1.409 . S
C1423 C1422 1.362 . S
H1424 C1430 0.930 . S
H1425 C1433 0.930 . S
H1426 C1434 0.930 . S
H1427 C1435 0.930 . S
H1428 C1438 0.930 . S
H1429 C1439 0.930 . S
C1430 H1424 0.930 . S
C1430 C1431 1.355 . S
C1430 C1432 1.415 . S
C1431 C1430 1.355 . S
C1431 C1433 1.419 . S
C1432 C1430 1.415 . S
C1432 C1437 1.425 . S
C1432 C1439 1.409 . S
C1433 H1425 0.930 . S
C1433 C1431 1.419 . S
C1433 C1434 1.362 . S
C1434 H1426 0.930 . S
C1434 C1433 1.362 . S
C1434 C1437 1.409 . S
C1435 H1427 0.930 . S
C1435 C1436 1.355 . S
C1435 C1437 1.415 . S
C1436 C1435 1.355 . S
C1436 C1438 1.419 . S
C1437 C1432 1.425 . S
C1437 C1434 1.409 . S
C1437 C1435 1.415 . S
C1438 H1428 0.930 . S
C1438 C1436 1.419 . S
C1438 C1439 1.362 . S
C1439 H1429 0.930 . S
C1439 C1432 1.409 . S
C1439 C1438 1.362 . S
H1440 C1446 0.930 . S
H1441 C1449 0.930 . S
H1442 C1450 0.930 . S
H1443 C1451 0.930 . S
H1444 C1454 0.930 . S
H1445 C1455 0.930 . S
C1446 H1440 0.930 . S
C1446 C1447 1.355 . S
C1446 C1448 1.415 . S
C1447 C1446 1.355 . S
C1447 C1449 1.419 . S
C1448 C1446 1.415 . S
C1448 C1453 1.425 . S
C1448 C1455 1.409 . S
C1449 H1441 0.930 . S
C1449 C1447 1.419 . S
C1449 C1450 1.362 . S
C1450 H1442 0.930 . S
C1450 C1449 1.362 . S
C1450 C1453 1.409 . S
C1451 H1443 0.930 . S
C1451 C1452 1.355 . S
C1451 C1453 1.415 . S
C1452 C1451 1.355 . S
C1452 C1454 1.419 . S
C1453 C1448 1.425 . S
C1453 C1450 1.409 . S
C1453 C1451 1.415 . S
C1454 H1444 0.930 . S
C1454 C1452 1.419 . S
C1454 C1455 1.362 . S
C1455 H1445 0.930 . S
C1455 C1448 1.409 . S
C1455 C1454 1.362 . S
H1456 C1462 0.930 . S
H1457 C1465 0.930 . S
H1458 C1466 0.930 . S
H1459 C1467 0.930 . S
H1460 C1470 0.930 . S
H1461 C1471 0.930 . S
C1462 H1456 0.930 . S
C1462 C1463 1.355 . S
C1462 C1464 1.415 . S
C1463 C1462 1.355 . S
C1463 C1465 1.419 . S
C1464 C1462 1.415 . S
C1464 C1469 1.425 . S
C1464 C1471 1.409 . S
C1465 H1457 0.930 . S
C1465 C1463 1.419 . S
C1465 C1466 1.362 . S
C1466 H1458 0.930 . S
C1466 C1465 1.362 . S
C1466 C1469 1.409 . S
C1467 H1459 0.930 . S
C1467 C1468 1.355 . S
C1467 C1469 1.415 . S
C1468 C1467 1.355 . S
C1468 C1470 1.419 . S
C1469 C1464 1.425 . S
C1469 C1466 1.409 . S
C1469 C1467 1.415 . S
C1470 H1460 0.930 . S
C1470 C1468 1.419 . S
C1470 C1471 1.362 . S
C1471 H1461 0.930 . S
C1471 C1464 1.409 . S
C1471 C1470 1.362 . S
H1472 C1478 0.930 . S
H1473 C1481 0.930 . S
H1474 C1482 0.930 . S
H1475 C1483 0.930 . S
H1476 C1486 0.930 . S
H1477 C1487 0.930 . S
C1478 H1472 0.930 . S
C1478 C1479 1.355 . S
C1478 C1480 1.415 . S
C1479 C1478 1.355 . S
C1479 C1481 1.419 . S
C1480 C1478 1.415 . S
C1480 C1485 1.425 . S
C1480 C1487 1.409 . S
C1481 H1473 0.930 . S
C1481 C1479 1.419 . S
C1481 C1482 1.362 . S
C1482 H1474 0.930 . S
C1482 C1481 1.362 . S
C1482 C1485 1.409 . S
C1483 H1475 0.930 . S
C1483 C1484 1.355 . S
C1483 C1485 1.415 . S
C1484 C1483 1.355 . S
C1484 C1486 1.419 . S
C1485 C1480 1.425 . S
C1485 C1482 1.409 . S
C1485 C1483 1.415 . S
C1486 H1476 0.930 . S
C1486 C1484 1.419 . S
C1486 C1487 1.362 . S
C1487 H1477 0.930 . S
C1487 C1480 1.409 . S
C1487 C1486 1.362 . S
H1488 C1494 0.930 . S
H1489 C1497 0.930 . S
H1490 C1498 0.930 . S
H1491 C1499 0.930 . S
H1492 C1502 0.930 . S
H1493 C1503 0.930 . S
C1494 H1488 0.930 . S
C1494 C1495 1.355 . S
C1494 C1496 1.415 . S
C1495 C1494 1.355 . S
C1495 C1497 1.419 . S
C1496 C1494 1.415 . S
C1496 C1501 1.425 . S
C1496 C1503 1.409 . S
C1497 H1489 0.930 . S
C1497 C1495 1.419 . S
C1497 C1498 1.362 . S
C1498 H1490 0.930 . S
C1498 C1497 1.362 . S
C1498 C1501 1.409 . S
C1499 H1491 0.930 . S
C1499 C1500 1.355 . S
C1499 C1501 1.415 . S
C1500 C1499 1.355 . S
C1500 C1502 1.419 . S
C1501 C1496 1.425 . S
C1501 C1498 1.409 . S
C1501 C1499 1.415 . S
C1502 H1492 0.930 . S
C1502 C1500 1.419 . S
C1502 C1503 1.362 . S
C1503 H1493 0.930 . S
C1503 C1496 1.409 . S
C1503 C1502 1.362 . S
H1504 C1510 0.930 . S
H1505 C1513 0.930 . S
H1506 C1514 0.930 . S
H1507 C1515 0.930 . S
H1508 C1518 0.930 . S
H1509 C1519 0.930 . S
C1510 H1504 0.930 . S
C1510 C1511 1.355 . S
C1510 C1512 1.415 . S
C1511 C1510 1.355 . S
C1511 C1513 1.419 . S
C1512 C1510 1.415 . S
C1512 C1517 1.425 . S
C1512 C1519 1.409 . S
C1513 H1505 0.930 . S
C1513 C1511 1.419 . S
C1513 C1514 1.362 . S
C1514 H1506 0.930 . S
C1514 C1513 1.362 . S
C1514 C1517 1.409 . S
C1515 H1507 0.930 . S
C1515 C1516 1.355 . S
C1515 C1517 1.415 . S
C1516 C1515 1.355 . S
C1516 C1518 1.419 . S
C1517 C1512 1.425 . S
C1517 C1514 1.409 . S
C1517 C1515 1.415 . S
C1518 H1508 0.930 . S
C1518 C1516 1.419 . S
C1518 C1519 1.362 . S
C1519 H1509 0.930 . S
C1519 C1512 1.409 . S
C1519 C1518 1.362 . S
H1520 C1526 0.930 . S
H1521 C1529 0.930 . S
H1522 C1530 0.930 . S
H1523 C1531 0.930 . S
H1524 C1534 0.930 . S
H1525 C1535 0.930 . S
C1526 H1520 0.930 . S
C1526 C1527 1.355 . S
C1526 C1528 1.415 . S
C1527 C1526 1.355 . S
C1527 C1529 1.419 . S
C1528 C1526 1.415 . S
C1528 C1533 1.425 . S
C1528 C1535 1.409 . S
C1529 H1521 0.930 . S
C1529 C1527 1.419 . S
C1529 C1530 1.362 . S
C1530 H1522 0.930 . S
C1530 C1529 1.362 . S
C1530 C1533 1.409 . S
C1531 H1523 0.930 . S
C1531 C1532 1.355 . S
C1531 C1533 1.415 . S
C1532 C1531 1.355 . S
C1532 C1534 1.419 . S
C1533 C1528 1.425 . S
C1533 C1530 1.409 . S
C1533 C1531 1.415 . S
C1534 H1524 0.930 . S
C1534 C1532 1.419 . S
C1534 C1535 1.362 . S
C1535 H1525 0.930 . S
C1535 C1528 1.409 . S
C1535 C1534 1.362 . S
H1536 C1542 0.930 . S
H1537 C1545 0.930 . S
H1538 C1546 0.930 . S
H1539 C1547 0.930 . S
H1540 C1550 0.930 . S
H1541 C1551 0.930 . S
C1542 H1536 0.930 . S
C1542 C1543 1.355 . S
C1542 C1544 1.415 . S
C1543 C1542 1.355 . S
C1543 C1545 1.419 . S
C1544 C1542 1.415 . S
C1544 C1549 1.425 . S
C1544 C1551 1.409 . S
C1545 H1537 0.930 . S
C1545 C1543 1.419 . S
C1545 C1546 1.362 . S
C1546 H1538 0.930 . S
C1546 C1545 1.362 . S
C1546 C1549 1.409 . S
C1547 H1539 0.930 . S
C1547 C1548 1.355 . S
C1547 C1549 1.415 . S
C1548 C1547 1.355 . S
C1548 C1550 1.419 . S
C1549 C1544 1.425 . S
C1549 C1546 1.409 . S
C1549 C1547 1.415 . S
C1550 H1540 0.930 . S
C1550 C1548 1.419 . S
C1550 C1551 1.362 . S
C1551 H1541 0.930 . S
C1551 C1544 1.409 . S
C1551 C1550 1.362 . S
H1552 C1558 0.930 . S
H1553 C1561 0.930 . S
H1554 C1562 0.930 . S
H1555 C1563 0.930 . S
H1556 C1566 0.930 . S
H1557 C1567 0.930 . S
C1558 H1552 0.930 . S
C1558 C1559 1.355 . S
C1558 C1560 1.415 . S
C1559 C1558 1.355 . S
C1559 C1561 1.419 . S
C1560 C1558 1.415 . S
C1560 C1565 1.425 . S
C1560 C1567 1.409 . S
C1561 H1553 0.930 . S
C1561 C1559 1.419 . S
C1561 C1562 1.362 . S
C1562 H1554 0.930 . S
C1562 C1561 1.362 . S
C1562 C1565 1.409 . S
C1563 H1555 0.930 . S
C1563 C1564 1.355 . S
C1563 C1565 1.415 . S
C1564 C1563 1.355 . S
C1564 C1566 1.419 . S
C1565 C1560 1.425 . S
C1565 C1562 1.409 . S
C1565 C1563 1.415 . S
C1566 H1556 0.930 . S
C1566 C1564 1.419 . S
C1566 C1567 1.362 . S
C1567 H1557 0.930 . S
C1567 C1560 1.409 . S
C1567 C1566 1.362 . S
H1568 C1574 0.930 . S
H1569 C1577 0.930 . S
H1570 C1578 0.930 . S
H1571 C1579 0.930 . S
H1572 C1582 0.930 . S
H1573 C1583 0.930 . S
C1574 H1568 0.930 . S
C1574 C1575 1.355 . S
C1574 C1576 1.415 . S
C1575 C1574 1.355 . S
C1575 C1577 1.419 . S
C1576 C1574 1.415 . S
C1576 C1581 1.425 . S
C1576 C1583 1.409 . S
C1577 H1569 0.930 . S
C1577 C1575 1.419 . S
C1577 C1578 1.362 . S
C1578 H1570 0.930 . S
C1578 C1577 1.362 . S
C1578 C1581 1.409 . S
C1579 H1571 0.930 . S
C1579 C1580 1.355 . S
C1579 C1581 1.415 . S
C1580 C1579 1.355 . S
C1580 C1582 1.419 . S
C1581 C1576 1.425 . S
C1581 C1578 1.409 . S
C1581 C1579 1.415 . S
C1582 H1572 0.930 . S
C1582 C1580 1.419 . S
C1582 C1583 1.362 . S
C1583 H1573 0.930 . S
C1583 C1576 1.409 . S
C1583 C1582 1.362 . S
H1584 C1590 0.930 . S
H1585 C1593 0.930 . S
H1586 C1594 0.930 . S
H1587 C1595 0.930 . S
H1588 C1598 0.930 . S
H1589 C1599 0.930 . S
C1590 H1584 0.930 . S
C1590 C1591 1.355 . S
C1590 C1592 1.415 . S
C1591 C1590 1.355 . S
C1591 C1593 1.419 . S
C1592 C1590 1.415 . S
C1592 C1597 1.425 . S
C1592 C1599 1.409 . S
C1593 H1585 0.930 . S
C1593 C1591 1.419 . S
C1593 C1594 1.362 . S
C1594 H1586 0.930 . S
C1594 C1593 1.362 . S
C1594 C1597 1.409 . S
C1595 H1587 0.930 . S
C1595 C1596 1.355 . S
C1595 C1597 1.415 . S
C1596 C1595 1.355 . S
C1596 C1598 1.419 . S
C1597 C1592 1.425 . S
C1597 C1594 1.409 . S
C1597 C1595 1.415 . S
C1598 H1588 0.930 . S
C1598 C1596 1.419 . S
C1598 C1599 1.362 . S
C1599 H1589 0.930 . S
C1599 C1592 1.409 . S
C1599 C1598 1.362 . S
H1600 C1606 0.930 . S
H1601 C1609 0.930 . S
H1602 C1610 0.930 . S
H1603 C1611 0.930 . S
H1604 C1614 0.930 . S
H1605 C1615 0.930 . S
C1606 H1600 0.930 . S
C1606 C1607 1.355 . S
C1606 C1608 1.415 . S
C1607 C1606 1.355 . S
C1607 C1609 1.419 . S
C1608 C1606 1.415 . S
C1608 C1613 1.425 . S
C1608 C1615 1.409 . S
C1609 H1601 0.930 . S
C1609 C1607 1.419 . S
C1609 C1610 1.362 . S
C1610 H1602 0.930 . S
C1610 C1609 1.362 . S
C1610 C1613 1.409 . S
C1611 H1603 0.930 . S
C1611 C1612 1.355 . S
C1611 C1613 1.415 . S
C1612 C1611 1.355 . S
C1612 C1614 1.419 . S
C1613 C1608 1.425 . S
C1613 C1610 1.409 . S
C1613 C1611 1.415 . S
C1614 H1604 0.930 . S
C1614 C1612 1.419 . S
C1614 C1615 1.362 . S
C1615 H1605 0.930 . S
C1615 C1608 1.409 . S
C1615 C1614 1.362 . S
H1616 C1622 0.930 . S
H1617 C1625 0.930 . S
H1618 C1626 0.930 . S
H1619 C1627 0.930 . S
H1620 C1630 0.930 . S
H1621 C1631 0.930 . S
C1622 H1616 0.930 . S
C1622 C1623 1.355 . S
C1622 C1624 1.415 . S
C1623 C1622 1.355 . S
C1623 C1625 1.419 . S
C1624 C1622 1.415 . S
C1624 C1629 1.425 . S
C1624 C1631 1.409 . S
C1625 H1617 0.930 . S
C1625 C1623 1.419 . S
C1625 C1626 1.362 . S
C1626 H1618 0.930 . S
C1626 C1625 1.362 . S
C1626 C1629 1.409 . S
C1627 H1619 0.930 . S
C1627 C1628 1.355 . S
C1627 C1629 1.415 . S
C1628 C1627 1.355 . S
C1628 C1630 1.419 . S
C1629 C1624 1.425 . S
C1629 C1626 1.409 . S
C1629 C1627 1.415 . S
C1630 H1620 0.930 . S
C1630 C1628 1.419 . S
C1630 C1631 1.362 . S
C1631 H1621 0.930 . S
C1631 C1624 1.409 . S
C1631 C1630 1.362 . S
H1632 C1638 0.930 . S
H1633 C1641 0.930 . S
H1634 C1642 0.930 . S
H1635 C1643 0.930 . S
H1636 C1646 0.930 . S
H1637 C1647 0.930 . S
C1638 H1632 0.930 . S
C1638 C1639 1.355 . S
C1638 C1640 1.415 . S
C1639 C1638 1.355 . S
C1639 C1641 1.419 . S
C1640 C1638 1.415 . S
C1640 C1645 1.425 . S
C1640 C1647 1.409 . S
C1641 H1633 0.930 . S
C1641 C1639 1.419 . S
C1641 C1642 1.362 . S
C1642 H1634 0.930 . S
C1642 C1641 1.362 . S
C1642 C1645 1.409 . S
C1643 H1635 0.930 . S
C1643 C1644 1.355 . S
C1643 C1645 1.415 . S
C1644 C1643 1.355 . S
C1644 C1646 1.419 . S
C1645 C1640 1.425 . S
C1645 C1642 1.409 . S
C1645 C1643 1.415 . S
C1646 H1636 0.930 . S
C1646 C1644 1.419 . S
C1646 C1647 1.362 . S
C1647 H1637 0.930 . S
C1647 C1640 1.409 . S
C1647 C1646 1.362 . S
H1648 C1654 0.930 . S
H1649 C1657 0.930 . S
H1650 C1658 0.930 . S
H1651 C1659 0.930 . S
H1652 C1662 0.930 . S
H1653 C1663 0.930 . S
C1654 H1648 0.930 . S
C1654 C1655 1.355 . S
C1654 C1656 1.415 . S
C1655 C1654 1.355 . S
C1655 C1657 1.419 . S
C1656 C1654 1.415 . S
C1656 C1661 1.425 . S
C1656 C1663 1.409 . S
C1657 H1649 0.930 . S
C1657 C1655 1.419 . S
C1657 C1658 1.362 . S
C1658 H1650 0.930 . S
C1658 C1657 1.362 . S
C1658 C1661 1.409 . S
C1659 H1651 0.930 . S
C1659 C1660 1.355 . S
C1659 C1661 1.415 . S
C1660 C1659 1.355 . S
C1660 C1662 1.419 . S
C1661 C1656 1.425 . S
C1661 C1658 1.409 . S
C1661 C1659 1.415 . S
C1662 H1652 0.930 . S
C1662 C1660 1.419 . S
C1662 C1663 1.362 . S
C1663 H1653 0.930 . S
C1663 C1656 1.409 . S
C1663 C1662 1.362 . S
H1664 C1670 0.930 . S
H1665 C1673 0.930 . S
H1666 C1674 0.930 . S
H1667 C1675 0.930 . S
H1668 C1678 0.930 . S
H1669 C1679 0.930 . S
C1670 H1664 0.930 . S
C1670 C1671 1.355 . S
C1670 C1672 1.415 . S
C1671 C1670 1.355 . S
C1671 C1673 1.419 . S
C1672 C1670 1.415 . S
C1672 C1677 1.425 . S
C1672 C1679 1.409 . S
C1673 H1665 0.930 . S
C1673 C1671 1.419 . S
C1673 C1674 1.362 . S
C1674 H1666 0.930 . S
C1674 C1673 1.362 . S
C1674 C1677 1.409 . S
C1675 H1667 0.930 . S
C1675 C1676 1.355 . S
C1675 C1677 1.415 . S
C1676 C1675 1.355 . S
C1676 C1678 1.419 . S
C1677 C1672 1.425 . S
C1677 C1674 1.409 . S
C1677 C1675 1.415 . S
C1678 H1668 0.930 . S
C1678 C1676 1.419 . S
C1678 C1679 1.362 . S
C1679 H1669 0.930 . S
C1679 C1672 1.409 . S
C1679 C1678 1.362 . S
H1680 C1686 0.930 . S
H1681 C1689 0.930 . S
H1682 C1690 0.930 . S
H1683 C1691 0.930 . S
H1684 C1694 0.930 . S
H1685 C1695 0.930 . S
C1686 H1680 0.930 . S
C1686 C1687 1.355 . S
C1686 C1688 1.415 . S
C1687 C1686 1.355 . S
C1687 C1689 1.419 . S
C1688 C1686 1.415 . S
C1688 C1693 1.425 . S
C1688 C1695 1.409 . S
C1689 H1681 0.930 . S
C1689 C1687 1.419 . S
C1689 C1690 1.362 . S
C1690 H1682 0.930 . S
C1690 C1689 1.362 . S
C1690 C1693 1.409 . S
C1691 H1683 0.930 . S
C1691 C1692 1.355 . S
C1691 C1693 1.415 . S
C1692 C1691 1.355 . S
C1692 C1694 1.419 . S
C1693 C1688 1.425 . S
C1693 C1690 1.409 . S
C1693 C1691 1.415 . S
C1694 H1684 0.930 . S
C1694 C1692 1.419 . S
C1694 C1695 1.362 . S
C1695 H1685 0.930 . S
C1695 C1688 1.409 . S
C1695 C1694 1.362 . S
H1696 C1702 0.930 . S
H1697 C1705 0.930 . S
H1698 C1706 0.930 . S
H1699 C1707 0.930 . S
H1700 C1710 0.930 . S
H1701 C1711 0.930 . S
C1702 H1696 0.930 . S
C1702 C1703 1.355 . S
C1702 C1704 1.415 . S
C1703 C1702 1.355 . S
C1703 C1705 1.419 . S
C1704 C1702 1.415 . S
C1704 C1709 1.425 . S
C1704 C1711 1.409 . S
C1705 H1697 0.930 . S
C1705 C1703 1.419 . S
C1705 C1706 1.362 . S
C1706 H1698 0.930 . S
C1706 C1705 1.362 . S
C1706 C1709 1.409 . S
C1707 H1699 0.930 . S
C1707 C1708 1.355 . S
C1707 C1709 1.415 . S
C1708 C1707 1.355 . S
C1708 C1710 1.419 . S
C1709 C1704 1.425 . S
C1709 C1706 1.409 . S
C1709 C1707 1.415 . S
C1710 H1700 0.930 . S
C1710 C1708 1.419 . S
C1710 C1711 1.362 . S
C1711 H1701 0.930 . S
C1711 C1704 1.409 . S
C1711 C1710 1.362 . S
H1712 C1718 0.930 . S
H1713 C1721 0.930 . S
H1714 C1722 0.930 . S
H1715 C1723 0.930 . S
H1716 C1726 0.930 . S
H1717 C1727 0.930 . S
C1718 H1712 0.930 . S
C1718 C1719 1.355 . S
C1718 C1720 1.415 . S
C1719 C1718 1.355 . S
C1719 C1721 1.419 . S
C1720 C1718 1.415 . S
C1720 C1725 1.425 . S
C1720 C1727 1.409 . S
C1721 H1713 0.930 . S
C1721 C1719 1.419 . S
C1721 C1722 1.362 . S
C1722 H1714 0.930 . S
C1722 C1721 1.362 . S
C1722 C1725 1.409 . S
C1723 H1715 0.930 . S
C1723 C1724 1.355 . S
C1723 C1725 1.415 . S
C1724 C1723 1.355 . S
C1724 C1726 1.419 . S
C1725 C1720 1.425 . S
C1725 C1722 1.409 . S
C1725 C1723 1.415 . S
C1726 H1716 0.930 . S
C1726 C1724 1.419 . S
C1726 C1727 1.362 . S
C1727 H1717 0.930 . S
C1727 C1720 1.409 . S
C1727 C1726 1.362 . S
H1728 C1734 0.930 . S
H1729 C1737 0.930 . S
H1730 C1738 0.930 . S
H1731 C1739 0.930 . S
H1732 C1742 0.930 . S
H1733 C1743 0.930 . S
C1734 H1728 0.930 . S
C1734 C1735 1.355 . S
C1734 C1736 1.415 . S
C1735 C1734 1.355 . S
C1735 C1737 1.419 . S
C1736 C1734 1.415 . S
C1736 C1741 1.425 . S
C1736 C1743 1.409 . S
C1737 H1729 0.930 . S
C1737 C1735 1.419 . S
C1737 C1738 1.362 . S
C1738 H1730 0.930 . S
C1738 C1737 1.362 . S
C1738 C1741 1.409 . S
C1739 H1731 0.930 . S
C1739 C1740 1.355 . S
C1739 C1741 1.415 . S
C1740 C1739 1.355 . S
C1740 C1742 1.419 . S
C1741 C1736 1.425 . S
C1741 C1738 1.409 . S
C1741 C1739 1.415 . S
C1742 H1732 0.930 . S
C1742 C1740 1.419 . S
C1742 C1743 1.362 . S
C1743 H1733 0.930 . S
C1743 C1736 1.409 . S
C1743 C1742 1.362 . S
H1744 C1750 0.930 . S
H1745 C1753 0.930 . S
H1746 C1754 0.930 . S
H1747 C1755 0.930 . S
H1748 C1758 0.930 . S
H1749 C1759 0.930 . S
C1750 H1744 0.930 . S
C1750 C1751 1.355 . S
C1750 C1752 1.415 . S
C1751 C1750 1.355 . S
C1751 C1753 1.419 . S
C1752 C1750 1.415 . S
C1752 C1757 1.425 . S
C1752 C1759 1.409 . S
C1753 H1745 0.930 . S
C1753 C1751 1.419 . S
C1753 C1754 1.362 . S
C1754 H1746 0.930 . S
C1754 C1753 1.362 . S
C1754 C1757 1.409 . S
C1755 H1747 0.930 . S
C1755 C1756 1.355 . S
C1755 C1757 1.415 . S
C1756 C1755 1.355 . S
C1756 C1758 1.419 . S
C1757 C1752 1.425 . S
C1757 C1754 1.409 . S
C1757 C1755 1.415 . S
C1758 H1748 0.930 . S
C1758 C1756 1.419 . S
C1758 C1759 1.362 . S
C1759 H1749 0.930 . S
C1759 C1752 1.409 . S
C1759 C1758 1.362 . S
H1760 C1766 0.930 . S
H1761 C1769 0.930 . S
H1762 C1770 0.930 . S
H1763 C1771 0.930 . S
H1764 C1774 0.930 . S
H1765 C1775 0.930 . S
C1766 H1760 0.930 . S
C1766 C1767 1.355 . S
C1766 C1768 1.415 . S
C1767 C1766 1.355 . S
C1767 C1769 1.419 . S
C1768 C1766 1.415 . S
C1768 C1773 1.425 . S
C1768 C1775 1.409 . S
C1769 H1761 0.930 . S
C1769 C1767 1.419 . S
C1769 C1770 1.362 . S
C1770 H1762 0.930 . S
C1770 C1769 1.362 . S
C1770 C1773 1.409 . S
C1771 H1763 0.930 . S
C1771 C1772 1.355 . S
C1771 C1773 1.415 . S
C1772 C1771 1.355 . S
C1772 C1774 1.419 . S
C1773 C1768 1.425 . S
C1773 C1770 1.409 . S
C1773 C1771 1.415 . S
C1774 H1764 0.930 . S
C1774 C1772 1.419 . S
C1774 C1775 1.362 . S
C1775 H1765 0.930 . S
C1775 C1768 1.409 . S
C1775 C1774 1.362 . S
H1776 C1782 0.930 . S
H1777 C1785 0.930 . S
H1778 C1786 0.930 . S
H1779 C1787 0.930 . S
H1780 C1790 0.930 . S
H1781 C1791 0.930 . S
C1782 H1776 0.930 . S
C1782 C1783 1.355 . S
C1782 C1784 1.415 . S
C1783 C1782 1.355 . S
C1783 C1785 1.419 . S
C1784 C1782 1.415 . S
C1784 C1789 1.425 . S
C1784 C1791 1.409 . S
C1785 H1777 0.930 . S
C1785 C1783 1.419 . S
C1785 C1786 1.362 . S
C1786 H1778 0.930 . S
C1786 C1785 1.362 . S
C1786 C1789 1.409 . S
C1787 H1779 0.930 . S
C1787 C1788 1.355 . S
C1787 C1789 1.415 . S
C1788 C1787 1.355 . S
C1788 C1790 1.419 . S
C1789 C1784 1.425 . S
C1789 C1786 1.409 . S
C1789 C1787 1.415 . S
C1790 H1780 0.930 . S
C1790 C1788 1.419 . S
C1790 C1791 1.362 . S
C1791 H1781 0.930 . S
C1791 C1784 1.409 . S
C1791 C1790 1.362 . S
H1792 C1798 0.930 . S
H1793 C1801 0.930 . S
H1794 C1802 0.930 . S
H1795 C1803 0.930 . S
H1796 C1806 0.930 . S
H1797 C1807 0.930 . S
C1798 H1792 0.930 . S
C1798 C1799 1.355 . S
C1798 C1800 1.415 . S
C1799 C1798 1.355 . S
C1799 C1801 1.419 . S
C1800 C1798 1.415 . S
C1800 C1805 1.425 . S
C1800 C1807 1.409 . S
C1801 H1793 0.930 . S
C1801 C1799 1.419 . S
C1801 C1802 1.362 . S
C1802 H1794 0.930 . S
C1802 C1801 1.362 . S
C1802 C1805 1.409 . S
C1803 H1795 0.930 . S
C1803 C1804 1.355 . S
C1803 C1805 1.415 . S
C1804 C1803 1.355 . S
C1804 C1806 1.419 . S
C1805 C1800 1.425 . S
C1805 C1802 1.409 . S
C1805 C1803 1.415 . S
C1806 H1796 0.930 . S
C1806 C1804 1.419 . S
C1806 C1807 1.362 . S
C1807 H1797 0.930 . S
C1807 C1800 1.409 . S
C1807 C1806 1.362 . S
H1808 C1814 0.930 . S
H1809 C1817 0.930 . S
H1810 C1818 0.930 . S
H1811 C1819 0.930 . S
H1812 C1822 0.930 . S
H1813 C1823 0.930 . S
C1814 H1808 0.930 . S
C1814 C1815 1.355 . S
C1814 C1816 1.415 . S
C1815 C1814 1.355 . S
C1815 C1817 1.419 . S
C1816 C1814 1.415 . S
C1816 C1821 1.425 . S
C1816 C1823 1.409 . S
C1817 H1809 0.930 . S
C1817 C1815 1.419 . S
C1817 C1818 1.362 . S
C1818 H1810 0.930 . S
C1818 C1817 1.362 . S
C1818 C1821 1.409 . S
C1819 H1811 0.930 . S
C1819 C1820 1.355 . S
C1819 C1821 1.415 . S
C1820 C1819 1.355 . S
C1820 C1822 1.419 . S
C1821 C1816 1.425 . S
C1821 C1818 1.409 . S
C1821 C1819 1.415 . S
C1822 H1812 0.930 . S
C1822 C1820 1.419 . S
C1822 C1823 1.362 . S
C1823 H1813 0.930 . S
C1823 C1816 1.409 . S
C1823 C1822 1.362 . S
H1824 C1830 0.930 . S
H1825 C1833 0.930 . S
H1826 C1834 0.930 . S
H1827 C1835 0.930 . S
H1828 C1838 0.930 . S
H1829 C1839 0.930 . S
C1830 H1824 0.930 . S
C1830 C1831 1.355 . S
C1830 C1832 1.415 . S
C1831 C1830 1.355 . S
C1831 C1833 1.419 . S
C1832 C1830 1.415 . S
C1832 C1837 1.425 . S
C1832 C1839 1.409 . S
C1833 H1825 0.930 . S
C1833 C1831 1.419 . S
C1833 C1834 1.362 . S
C1834 H1826 0.930 . S
C1834 C1833 1.362 . S
C1834 C1837 1.409 . S
C1835 H1827 0.930 . S
C1835 C1836 1.355 . S
C1835 C1837 1.415 . S
C1836 C1835 1.355 . S
C1836 C1838 1.419 . S
C1837 C1832 1.425 . S
C1837 C1834 1.409 . S
C1837 C1835 1.415 . S
C1838 H1828 0.930 . S
C1838 C1836 1.419 . S
C1838 C1839 1.362 . S
C1839 H1829 0.930 . S
C1839 C1832 1.409 . S
C1839 C1838 1.362 . S
H1840 C1846 0.930 . S
H1841 C1849 0.930 1_545 S
H1842 C1850 0.930 1_545 S
H1843 C1851 0.930 . S
H1844 C1854 0.930 . S
H1845 C1855 0.930 . S
C1846 H1840 0.930 . S
C1846 C1847 1.355 . S
C1846 C1848 1.415 . S
C1847 C1846 1.355 . S
C1847 C1849 1.419 . S
C1848 C1846 1.415 . S
C1848 C1853 1.425 . S
C1848 C1855 1.409 . S
C1849 H1841 0.930 1_565 S
C1849 C1847 1.419 . S
C1849 C1850 1.362 . S
C1850 H1842 0.930 1_565 S
C1850 C1849 1.362 . S
C1850 C1853 1.409 . S
C1851 H1843 0.930 . S
C1851 C1852 1.355 . S
C1851 C1853 1.415 . S
C1852 C1851 1.355 . S
C1852 C1854 1.419 . S
C1853 C1848 1.425 . S
C1853 C1850 1.409 . S
C1853 C1851 1.415 . S
C1854 H1844 0.930 . S
C1854 C1852 1.419 . S
C1854 C1855 1.362 . S
C1855 H1845 0.930 . S
C1855 C1848 1.409 . S
C1855 C1854 1.362 . S
H1856 C1862 0.930 . S
H1857 C1865 0.930 . S
H1858 C1866 0.930 . S
H1859 C1867 0.930 . S
H1860 C1870 0.930 . S
H1861 C1871 0.930 . S
C1862 H1856 0.930 . S
C1862 C1863 1.355 . S
C1862 C1864 1.415 . S
C1863 C1862 1.355 . S
C1863 C1865 1.419 . S
C1864 C1862 1.415 . S
C1864 C1869 1.425 . S
C1864 C1871 1.409 . S
C1865 H1857 0.930 . S
C1865 C1863 1.419 . S
C1865 C1866 1.362 . S
C1866 H1858 0.930 . S
C1866 C1865 1.362 . S
C1866 C1869 1.409 . S
C1867 H1859 0.930 . S
C1867 C1868 1.355 . S
C1867 C1869 1.415 . S
C1868 C1867 1.355 . S
C1868 C1870 1.419 . S
C1869 C1864 1.425 . S
C1869 C1866 1.409 . S
C1869 C1867 1.415 . S
C1870 H1860 0.930 . S
C1870 C1868 1.419 . S
C1870 C1871 1.362 . S
C1871 H1861 0.930 . S
C1871 C1864 1.409 . S
C1871 C1870 1.362 . S
H1872 C1878 0.930 . S
H1873 C1881 0.930 . S
H1874 C1882 0.930 . S
H1875 C1883 0.930 . S
H1876 C1886 0.930 . S
H1877 C1887 0.930 . S
C1878 H1872 0.930 . S
C1878 C1879 1.355 . S
C1878 C1880 1.415 . S
C1879 C1878 1.355 . S
C1879 C1881 1.419 . S
C1880 C1878 1.415 . S
C1880 C1885 1.425 . S
C1880 C1887 1.409 . S
C1881 H1873 0.930 . S
C1881 C1879 1.419 . S
C1881 C1882 1.362 . S
C1882 H1874 0.930 . S
C1882 C1881 1.362 . S
C1882 C1885 1.409 . S
C1883 H1875 0.930 . S
C1883 C1884 1.355 . S
C1883 C1885 1.415 . S
C1884 C1883 1.355 . S
C1884 C1886 1.419 . S
C1885 C1880 1.425 . S
C1885 C1882 1.409 . S
C1885 C1883 1.415 . S
C1886 H1876 0.930 . S
C1886 C1884 1.419 . S
C1886 C1887 1.362 . S
C1887 H1877 0.930 . S
C1887 C1880 1.409 . S
C1887 C1886 1.362 . S
H1888 C1894 0.930 . S
H1889 C1897 0.930 . S
H1890 C1898 0.930 . S
H1891 C1899 0.930 . S
H1892 C1902 0.930 . S
H1893 C1903 0.930 . S
C1894 H1888 0.930 . S
C1894 C1895 1.355 . S
C1894 C1896 1.415 . S
C1895 C1894 1.355 . S
C1895 C1897 1.419 . S
C1896 C1894 1.415 . S
C1896 C1901 1.425 . S
C1896 C1903 1.409 . S
C1897 H1889 0.930 . S
C1897 C1895 1.419 . S
C1897 C1898 1.362 . S
C1898 H1890 0.930 . S
C1898 C1897 1.362 . S
C1898 C1901 1.409 . S
C1899 H1891 0.930 . S
C1899 C1900 1.355 . S
C1899 C1901 1.415 . S
C1900 C1899 1.355 . S
C1900 C1902 1.419 . S
C1901 C1896 1.425 . S
C1901 C1898 1.409 . S
C1901 C1899 1.415 . S
C1902 H1892 0.930 . S
C1902 C1900 1.419 . S
C1902 C1903 1.362 . S
C1903 H1893 0.930 . S
C1903 C1896 1.409 . S
C1903 C1902 1.362 . S
H1904 C1910 0.930 . S
H1905 C1913 0.930 . S
H1906 C1914 0.930 . S
H1907 C1915 0.930 . S
H1908 C1918 0.930 . S
H1909 C1919 0.930 . S
C1910 H1904 0.930 . S
C1910 C1911 1.355 . S
C1910 C1912 1.415 . S
C1911 C1910 1.355 . S
C1911 C1913 1.419 . S
C1912 C1910 1.415 . S
C1912 C1917 1.425 . S
C1912 C1919 1.409 . S
C1913 H1905 0.930 . S
C1913 C1911 1.419 . S
C1913 C1914 1.362 . S
C1914 H1906 0.930 . S
C1914 C1913 1.362 . S
C1914 C1917 1.409 . S
C1915 H1907 0.930 . S
C1915 C1916 1.355 . S
C1915 C1917 1.415 . S
C1916 C1915 1.355 . S
C1916 C1918 1.419 . S
C1917 C1912 1.425 . S
C1917 C1914 1.409 . S
C1917 C1915 1.415 . S
C1918 H1908 0.930 . S
C1918 C1916 1.419 . S
C1918 C1919 1.362 . S
C1919 H1909 0.930 . S
C1919 C1912 1.409 . S
C1919 C1918 1.362 . S
H1920 C1926 0.930 . S
H1921 C1929 0.930 . S
H1922 C1930 0.930 . S
H1923 C1931 0.930 . S
H1924 C1934 0.930 . S
H1925 C1935 0.930 . S
C1926 H1920 0.930 . S
C1926 C1927 1.355 . S
C1926 C1928 1.415 . S
C1927 C1926 1.355 . S
C1927 C1929 1.419 . S
C1928 C1926 1.415 . S
C1928 C1933 1.425 . S
C1928 C1935 1.409 . S
C1929 H1921 0.930 . S
C1929 C1927 1.419 . S
C1929 C1930 1.362 . S
C1930 H1922 0.930 . S
C1930 C1929 1.362 . S
C1930 C1933 1.409 . S
C1931 H1923 0.930 . S
C1931 C1932 1.355 . S
C1931 C1933 1.415 . S
C1932 C1931 1.355 . S
C1932 C1934 1.419 . S
C1933 C1928 1.425 . S
C1933 C1930 1.409 . S
C1933 C1931 1.415 . S
C1934 H1924 0.930 . S
C1934 C1932 1.419 . S
C1934 C1935 1.362 . S
C1935 H1925 0.930 . S
C1935 C1928 1.409 . S
C1935 C1934 1.362 . S
H1936 C1942 0.930 . S
H1937 C1945 0.930 . S
H1938 C1946 0.930 . S
H1939 C1947 0.930 . S
H1940 C1950 0.930 . S
H1941 C1951 0.930 . S
C1942 H1936 0.930 . S
C1942 C1943 1.355 . S
C1942 C1944 1.415 . S
C1943 C1942 1.355 . S
C1943 C1945 1.419 . S
C1944 C1942 1.415 . S
C1944 C1949 1.425 . S
C1944 C1951 1.409 . S
C1945 H1937 0.930 . S
C1945 C1943 1.419 . S
C1945 C1946 1.362 . S
C1946 H1938 0.930 . S
C1946 C1945 1.362 . S
C1946 C1949 1.409 . S
C1947 H1939 0.930 . S
C1947 C1948 1.355 . S
C1947 C1949 1.415 . S
C1948 C1947 1.355 . S
C1948 C1950 1.419 . S
C1949 C1944 1.425 . S
C1949 C1946 1.409 . S
C1949 C1947 1.415 . S
C1950 H1940 0.930 . S
C1950 C1948 1.419 . S
C1950 C1951 1.362 . S
C1951 H1941 0.930 . S
C1951 C1944 1.409 . S
C1951 C1950 1.362 . S
H1952 C1958 0.930 . S
H1953 C1961 0.930 . S
H1954 C1962 0.930 1_455 S
H1955 C1963 0.930 . S
H1956 C1966 0.930 . S
H1957 C1967 0.930 1_655 S
C1958 H1952 0.930 . S
C1958 C1959 1.355 1_556 S
C1958 C1960 1.415 . S
C1959 C1958 1.355 1_554 S
C1959 C1961 1.419 . S
C1960 C1958 1.415 . S
C1960 C1965 1.425 1_656 S
C1960 C1967 1.409 1_655 S
C1961 H1953 0.930 . S
C1961 C1959 1.419 . S
C1961 C1962 1.362 . S
C1962 H1954 0.930 1_655 S
C1962 C1961 1.362 . S
C1962 C1965 1.409 1_655 S
C1963 H1955 0.930 . S
C1963 C1964 1.355 1_554 S
C1963 C1965 1.415 . S
C1964 C1963 1.355 1_556 S
C1964 C1966 1.419 . S
C1965 C1960 1.425 1_454 S
C1965 C1962 1.409 1_455 S
C1965 C1963 1.415 . S
C1966 H1956 0.930 . S
C1966 C1964 1.419 . S
C1966 C1967 1.362 . S
C1967 H1957 0.930 1_455 S
C1967 C1960 1.409 1_455 S
C1967 C1966 1.362 . S
H1968 C1974 0.930 . S
H1969 C1977 0.930 . S
H1970 C1978 0.930 . S
H1971 C1979 0.930 . S
H1972 C1982 0.930 . S
H1973 C1983 0.930 . S
C1974 H1968 0.930 . S
C1974 C1975 1.355 . S
C1974 C1976 1.415 . S
C1975 C1974 1.355 . S
C1975 C1977 1.419 1_554 S
C1976 C1974 1.415 . S
C1976 C1981 1.425 1_554 S
C1976 C1983 1.409 . S
C1977 H1969 0.930 . S
C1977 C1975 1.419 1_556 S
C1977 C1978 1.362 . S
C1978 H1970 0.930 . S
C1978 C1977 1.362 . S
C1978 C1981 1.409 . S
C1979 H1971 0.930 . S
C1979 C1980 1.355 . S
C1979 C1981 1.415 . S
C1980 C1979 1.355 . S
C1980 C1982 1.419 1_556 S
C1981 C1976 1.425 1_556 S
C1981 C1978 1.409 . S
C1981 C1979 1.415 . S
C1982 H1972 0.930 . S
C1982 C1980 1.419 1_554 S
C1982 C1983 1.362 . S
C1983 H1973 0.930 . S
C1983 C1976 1.409 . S
C1983 C1982 1.362 . S
H1984 C1990 0.930 . S
H1985 C1993 0.930 . S
H1986 C1994 0.930 . S
H1987 C1995 0.930 . S
H1988 C1998 0.930 . S
H1989 C1999 0.930 . S
C1990 H1984 0.930 . S
C1990 C1991 1.355 . S
C1990 C1992 1.394 1_455 S
C1991 C1990 1.355 . S
C1991 C1993 1.419 . S
C1992 C1990 1.394 1_655 S
C1992 C1997 1.424 1_655 S
C1992 C1999 1.431 . S
C1993 H1985 0.930 . S
C1993 C1991 1.419 . S
C1993 C1994 1.362 . S
C1994 H1986 0.930 . S
C1994 C1993 1.362 . S
C1994 C1997 1.431 . S
C1995 H1987 0.930 . S
C1995 C1996 1.355 . S
C1995 C1997 1.394 1_655 S
C1996 C1995 1.355 . S
C1996 C1998 1.419 . S
C1997 C1992 1.424 1_455 S
C1997 C1994 1.431 . S
C1997 C1995 1.394 1_455 S
C1998 H1988 0.930 . S
C1998 C1996 1.419 . S
C1998 C1999 1.362 . S
C1999 H1989 0.930 . S
C1999 C1992 1.431 . S
C1999 C1998 1.362 . S
H2000 C2006 0.930 . S
H2001 C2009 0.930 . S
H2002 C2010 0.930 . S
H2003 C2011 0.930 . S
H2004 C2014 0.930 . S
H2005 C2015 0.930 . S
C2006 H2000 0.930 . S
C2006 C2007 1.355 . S
C2006 C2008 1.415 . S
C2007 C2006 1.355 . S
C2007 C2009 1.419 . S
C2008 C2006 1.415 . S
C2008 C2013 1.425 . S
C2008 C2015 1.409 . S
C2009 H2001 0.930 . S
C2009 C2007 1.419 . S
C2009 C2010 1.362 . S
C2010 H2002 0.930 . S
C2010 C2009 1.362 . S
C2010 C2013 1.409 . S
C2011 H2003 0.930 . S
C2011 C2012 1.355 . S
C2011 C2013 1.415 . S
C2012 C2011 1.355 . S
C2012 C2014 1.419 . S
C2013 C2008 1.425 . S
C2013 C2010 1.409 . S
C2013 C2011 1.415 . S
C2014 H2004 0.930 . S
C2014 C2012 1.419 . S
C2014 C2015 1.362 . S
C2015 H2005 0.930 . S
C2015 C2008 1.409 . S
C2015 C2014 1.362 . S
H2016 C2022 0.930 . S
H2017 C2025 0.930 . S
H2018 C2026 0.930 . S
H2019 C2027 0.930 . S
H2020 C2030 0.930 . S
H2021 C2031 0.930 . S
C2022 H2016 0.930 . S
C2022 C2023 1.355 1_556 S
C2022 C2024 1.415 . S
C2023 C2022 1.355 1_554 S
C2023 C2025 1.419 . S
C2024 C2022 1.415 . S
C2024 C2029 1.425 1_556 S
C2024 C2031 1.409 . S
C2025 H2017 0.930 . S
C2025 C2023 1.419 . S
C2025 C2026 1.362 . S
C2026 H2018 0.930 . S
C2026 C2025 1.362 . S
C2026 C2029 1.409 . S
C2027 H2019 0.930 . S
C2027 C2028 1.355 1_554 S
C2027 C2029 1.415 . S
C2028 C2027 1.355 1_556 S
C2028 C2030 1.419 . S
C2029 C2024 1.425 1_554 S
C2029 C2026 1.409 . S
C2029 C2027 1.415 . S
C2030 H2020 0.930 . S
C2030 C2028 1.419 . S
C2030 C2031 1.362 . S
C2031 H2021 0.930 . S
C2031 C2024 1.409 . S
C2031 C2030 1.362 . S
H2032 C2038 0.930 . S
H2033 C2041 0.930 . S
H2034 C2042 0.937 1_455 S
H2035 C2043 0.930 . S
H2036 C2046 0.930 . S
H2037 C2047 0.937 1_655 S
C2038 H2032 0.930 . S
C2038 C2039 1.355 . S
C2038 C2040 1.415 . S
C2039 C2038 1.355 . S
C2039 C2041 1.419 . S
C2040 C2038 1.415 . S
C2040 C2045 1.425 1_655 S
C2040 C2047 1.413 1_655 S
C2041 H2033 0.930 . S
C2041 C2039 1.419 . S
C2041 C2042 1.352 . S
C2042 H2034 0.937 1_655 S
C2042 C2041 1.352 . S
C2042 C2045 1.413 1_655 S
C2043 H2035 0.930 . S
C2043 C2044 1.355 . S
C2043 C2045 1.415 . S
C2044 C2043 1.355 . S
C2044 C2046 1.419 . S
C2045 C2040 1.425 1_455 S
C2045 C2042 1.413 1_455 S
C2045 C2043 1.415 . S
C2046 H2036 0.930 . S
C2046 C2044 1.419 . S
C2046 C2047 1.352 . S
C2047 H2037 0.937 1_455 S
C2047 C2040 1.413 1_455 S
C2047 C2046 1.352 . S
H2048 C2054 0.930 . S
H2049 C2057 0.930 . S
H2050 C2058 0.930 . S
H2051 C2059 0.930 . S
H2052 C2062 0.930 . S
H2053 C2063 0.930 . S
C2054 H2048 0.930 . S
C2054 C2055 1.355 . S
C2054 C2056 1.415 . S
C2055 C2054 1.355 . S
C2055 C2057 1.419 . S
C2056 C2054 1.415 . S
C2056 C2061 1.425 . S
C2056 C2063 1.409 . S
C2057 H2049 0.930 . S
C2057 C2055 1.419 . S
C2057 C2058 1.362 . S
C2058 H2050 0.930 . S
C2058 C2057 1.362 . S
C2058 C2061 1.409 . S
C2059 H2051 0.930 . S
C2059 C2060 1.355 . S
C2059 C2061 1.415 . S
C2060 C2059 1.355 . S
C2060 C2062 1.419 . S
C2061 C2056 1.425 . S
C2061 C2058 1.409 . S
C2061 C2059 1.415 . S
C2062 H2052 0.930 . S
C2062 C2060 1.419 . S
C2062 C2063 1.362 . S
C2063 H2053 0.930 . S
C2063 C2056 1.409 . S
C2063 C2062 1.362 . S
H2064 C2070 0.930 . S
H2065 C2073 0.930 . S
H2066 C2074 0.903 1_455 S
H2067 C2075 0.930 . S
H2068 C2078 0.930 . S
H2069 C2079 0.903 1_655 S
C2070 H2064 0.930 . S
C2070 C2071 1.355 1_565 S
C2070 C2072 1.415 . S
C2071 C2070 1.355 1_545 S
C2071 C2073 1.419 . S
C2072 C2070 1.415 . S
C2072 C2077 1.425 1_665 S
C2072 C2079 1.394 1_655 S
C2073 H2065 0.930 . S
C2073 C2071 1.419 . S
C2073 C2074 1.405 . S
C2074 H2066 0.903 1_655 S
C2074 C2073 1.405 . S
C2074 C2077 1.394 1_655 S
C2075 H2067 0.930 . S
C2075 C2076 1.355 1_545 S
C2075 C2077 1.415 . S
C2076 C2075 1.355 1_565 S
C2076 C2078 1.419 . S
C2077 C2072 1.425 1_445 S
C2077 C2074 1.394 1_455 S
C2077 C2075 1.415 . S
C2078 H2068 0.930 . S
C2078 C2076 1.419 . S
C2078 C2079 1.405 . S
C2079 H2069 0.903 1_455 S
C2079 C2072 1.394 1_455 S
C2079 C2078 1.405 . S
H2080 C2086 0.930 . S
H2081 C2089 0.930 . S
H2082 C2090 0.930 . S
H2083 C2091 0.930 . S
H2084 C2094 0.930 . S
H2085 C2095 0.930 . S
C2086 H2080 0.930 . S
C2086 C2087 1.355 . S
C2086 C2088 1.415 . S
C2087 C2086 1.355 . S
C2087 C2089 1.419 . S
C2088 C2086 1.415 . S
C2088 C2093 1.425 . S
C2088 C2095 1.409 . S
C2089 H2081 0.930 . S
C2089 C2087 1.419 . S
C2089 C2090 1.362 . S
C2090 H2082 0.930 . S
C2090 C2089 1.362 . S
C2090 C2093 1.409 . S
C2091 H2083 0.930 . S
C2091 C2092 1.355 . S
C2091 C2093 1.415 . S
C2092 C2091 1.355 . S
C2092 C2094 1.419 . S
C2093 C2088 1.425 . S
C2093 C2090 1.409 . S
C2093 C2091 1.415 . S
C2094 H2084 0.930 . S
C2094 C2092 1.419 . S
C2094 C2095 1.362 . S
C2095 H2085 0.930 . S
C2095 C2088 1.409 . S
C2095 C2094 1.362 . S
H2096 C2102 0.930 . S
H2097 C2105 0.930 . S
H2098 C2106 0.930 . S
H2099 C2107 0.930 . S
H2100 C2110 0.930 . S
H2101 C2111 0.930 . S
C2102 H2096 0.930 . S
C2102 C2103 1.355 . S
C2102 C2104 1.415 . S
C2103 C2102 1.355 . S
C2103 C2105 1.419 . S
C2104 C2102 1.415 . S
C2104 C2109 1.425 1_545 S
C2104 C2111 1.409 . S
C2105 H2097 0.930 . S
C2105 C2103 1.419 . S
C2105 C2106 1.362 1_545 S
C2106 H2098 0.930 . S
C2106 C2105 1.362 1_565 S
C2106 C2109 1.409 . S
C2107 H2099 0.930 . S
C2107 C2108 1.355 . S
C2107 C2109 1.415 . S
C2108 C2107 1.355 . S
C2108 C2110 1.419 . S
C2109 C2104 1.425 1_565 S
C2109 C2106 1.409 . S
C2109 C2107 1.415 . S
C2110 H2100 0.930 . S
C2110 C2108 1.419 . S
C2110 C2111 1.362 1_565 S
C2111 H2101 0.930 . S
C2111 C2104 1.409 . S
C2111 C2110 1.362 1_545 S
H2112 C2118 0.930 . S
H2113 C2121 0.930 . S
H2114 C2122 0.930 . S
H2115 C2123 0.930 . S
H2116 C2126 0.930 . S
H2117 C2127 0.930 . S
C2118 H2112 0.930 . S
C2118 C2119 1.355 . S
C2118 C2120 1.415 . S
C2119 C2118 1.355 . S
C2119 C2121 1.419 . S
C2120 C2118 1.415 . S
C2120 C2125 1.425 . S
C2120 C2127 1.409 . S
C2121 H2113 0.930 . S
C2121 C2119 1.419 . S
C2121 C2122 1.362 . S
C2122 H2114 0.930 . S
C2122 C2121 1.362 . S
C2122 C2125 1.409 . S
C2123 H2115 0.930 . S
C2123 C2124 1.355 . S
C2123 C2125 1.415 . S
C2124 C2123 1.355 . S
C2124 C2126 1.419 . S
C2125 C2120 1.425 . S
C2125 C2122 1.409 . S
C2125 C2123 1.415 . S
C2126 H2116 0.930 . S
C2126 C2124 1.419 . S
C2126 C2127 1.362 . S
C2127 H2117 0.930 . S
C2127 C2120 1.409 . S
C2127 C2126 1.362 . S
H2128 C2134 0.930 . S
H2129 C2137 0.930 . S
H2130 C2138 0.930 . S
H2131 C2139 0.930 . S
H2132 C2142 0.930 . S
H2133 C2143 0.930 . S
C2134 H2128 0.930 . S
C2134 C2135 1.355 1_545 S
C2134 C2136 1.415 . S
C2135 C2134 1.355 1_565 S
C2135 C2137 1.419 . S
C2136 C2134 1.415 . S
C2136 C2141 1.425 1_545 S
C2136 C2143 1.409 . S
C2137 H2129 0.930 . S
C2137 C2135 1.419 . S
C2137 C2138 1.362 . S
C2138 H2130 0.930 . S
C2138 C2137 1.362 . S
C2138 C2141 1.409 . S
C2139 H2131 0.930 . S
C2139 C2140 1.355 1_565 S
C2139 C2141 1.415 . S
C2140 C2139 1.355 1_545 S
C2140 C2142 1.419 . S
C2141 C2136 1.425 1_565 S
C2141 C2138 1.409 . S
C2141 C2139 1.415 . S
C2142 H2132 0.930 . S
C2142 C2140 1.419 . S
C2142 C2143 1.362 . S
C2143 H2133 0.930 . S
C2143 C2136 1.409 . S
C2143 C2142 1.362 . S
H2144 C2150 0.930 . S
H2145 C2153 0.930 . S
H2146 C2154 0.930 . S
H2147 C2155 0.930 . S
H2148 C2158 0.930 . S
H2149 C2159 0.930 . S
C2150 H2144 0.930 . S
C2150 C2151 1.355 . S
C2150 C2152 1.415 . S
C2151 C2150 1.355 . S
C2151 C2153 1.419 . S
C2152 C2150 1.415 . S
C2152 C2157 1.425 . S
C2152 C2159 1.409 . S
C2153 H2145 0.930 . S
C2153 C2151 1.419 . S
C2153 C2154 1.362 . S
C2154 H2146 0.930 . S
C2154 C2153 1.362 . S
C2154 C2157 1.409 . S
C2155 H2147 0.930 . S
C2155 C2156 1.355 . S
C2155 C2157 1.415 . S
C2156 C2155 1.355 . S
C2156 C2158 1.419 . S
C2157 C2152 1.425 . S
C2157 C2154 1.409 . S
C2157 C2155 1.415 . S
C2158 H2148 0.930 . S
C2158 C2156 1.419 . S
C2158 C2159 1.362 . S
C2159 H2149 0.930 . S
C2159 C2152 1.409 . S
C2159 C2158 1.362 . S
H2160 C2166 0.930 . S
H2161 C2169 0.930 . S
H2162 C2170 0.930 . S
H2163 C2171 0.930 . S
H2164 C2174 0.930 . S
H2165 C2175 0.930 . S
C2166 H2160 0.930 . S
C2166 C2167 1.355 . S
C2166 C2168 1.415 . S
C2167 C2166 1.355 . S
C2167 C2169 1.419 . S
C2168 C2166 1.415 . S
C2168 C2173 1.425 . S
C2168 C2175 1.409 . S
C2169 H2161 0.930 . S
C2169 C2167 1.419 . S
C2169 C2170 1.362 . S
C2170 H2162 0.930 . S
C2170 C2169 1.362 . S
C2170 C2173 1.409 . S
C2171 H2163 0.930 . S
C2171 C2172 1.355 . S
C2171 C2173 1.415 . S
C2172 C2171 1.355 . S
C2172 C2174 1.419 . S
C2173 C2168 1.425 . S
C2173 C2170 1.409 . S
C2173 C2171 1.415 . S
C2174 H2164 0.930 . S
C2174 C2172 1.419 . S
C2174 C2175 1.362 . S
C2175 H2165 0.930 . S
C2175 C2168 1.409 . S
C2175 C2174 1.362 . S
H2176 C2182 0.930 . S
H2177 C2185 0.930 . S
H2178 C2186 0.930 . S
H2179 C2187 0.930 . S
H2180 C2190 0.930 . S
H2181 C2191 0.930 . S
C2182 H2176 0.930 . S
C2182 C2183 1.355 . S
C2182 C2184 1.415 . S
C2183 C2182 1.355 . S
C2183 C2185 1.419 . S
C2184 C2182 1.415 . S
C2184 C2189 1.425 . S
C2184 C2191 1.409 . S
C2185 H2177 0.930 . S
C2185 C2183 1.419 . S
C2185 C2186 1.362 . S
C2186 H2178 0.930 . S
C2186 C2185 1.362 . S
C2186 C2189 1.409 . S
C2187 H2179 0.930 . S
C2187 C2188 1.355 . S
C2187 C2189 1.415 . S
C2188 C2187 1.355 . S
C2188 C2190 1.419 . S
C2189 C2184 1.425 . S
C2189 C2186 1.409 . S
C2189 C2187 1.415 . S
C2190 H2180 0.930 . S
C2190 C2188 1.419 . S
C2190 C2191 1.362 . S
C2191 H2181 0.930 . S
C2191 C2184 1.409 . S
C2191 C2190 1.362 . S
H2192 C2198 0.930 . S
H2193 C2201 0.930 . S
H2194 C2202 0.930 . S
H2195 C2203 0.930 . S
H2196 C2206 0.930 . S
H2197 C2207 0.930 . S
C2198 H2192 0.930 . S
C2198 C2199 1.355 1_556 S
C2198 C2200 1.415 . S
C2199 C2198 1.355 1_554 S
C2199 C2201 1.419 1_545 S
C2200 C2198 1.415 . S
C2200 C2205 1.425 1_546 S
C2200 C2207 1.409 . S
C2201 H2193 0.930 . S
C2201 C2199 1.419 1_565 S
C2201 C2202 1.362 . S
C2202 H2194 0.930 . S
C2202 C2201 1.362 . S
C2202 C2205 1.409 . S
C2203 H2195 0.930 . S
C2203 C2204 1.355 1_554 S
C2203 C2205 1.415 . S
C2204 C2203 1.355 1_556 S
C2204 C2206 1.419 1_565 S
C2205 C2200 1.425 1_564 S
C2205 C2202 1.409 . S
C2205 C2203 1.415 . S
C2206 H2196 0.930 . S
C2206 C2204 1.419 1_545 S
C2206 C2207 1.362 . S
C2207 H2197 0.930 . S
C2207 C2200 1.409 . S
C2207 C2206 1.362 . S
H2208 C2214 0.930 . S
H2209 C2217 0.930 . S
H2210 C2218 0.930 . S
H2211 C2219 0.930 . S
H2212 C2222 0.930 . S
H2213 C2223 0.930 . S
C2214 H2208 0.930 . S
C2214 C2215 1.355 . S
C2214 C2216 1.415 . S
C2215 C2214 1.355 . S
C2215 C2217 1.419 . S
C2216 C2214 1.415 . S
C2216 C2221 1.425 . S
C2216 C2223 1.409 . S
C2217 H2209 0.930 . S
C2217 C2215 1.419 . S
C2217 C2218 1.362 . S
C2218 H2210 0.930 . S
C2218 C2217 1.362 . S
C2218 C2221 1.409 . S
C2219 H2211 0.930 . S
C2219 C2220 1.355 . S
C2219 C2221 1.415 . S
C2220 C2219 1.355 . S
C2220 C2222 1.419 . S
C2221 C2216 1.425 . S
C2221 C2218 1.409 . S
C2221 C2219 1.415 . S
C2222 H2212 0.930 . S
C2222 C2220 1.419 . S
C2222 C2223 1.362 . S
C2223 H2213 0.930 . S
C2223 C2216 1.409 . S
C2223 C2222 1.362 . S
H2224 C2230 0.930 . S
H2225 C2233 0.930 . S
H2226 C2234 0.930 . S
H2227 C2235 0.930 . S
H2228 C2238 0.930 . S
H2229 C2239 0.930 . S
C2230 H2224 0.930 . S
C2230 C2231 1.355 . S
C2230 C2232 1.415 . S
C2231 C2230 1.355 . S
C2231 C2233 1.419 . S
C2232 C2230 1.415 . S
C2232 C2237 1.425 . S
C2232 C2239 1.409 . S
C2233 H2225 0.930 . S
C2233 C2231 1.419 . S
C2233 C2234 1.362 . S
C2234 H2226 0.930 . S
C2234 C2233 1.362 . S
C2234 C2237 1.409 . S
C2235 H2227 0.930 . S
C2235 C2236 1.355 . S
C2235 C2237 1.415 . S
C2236 C2235 1.355 . S
C2236 C2238 1.419 . S
C2237 C2232 1.425 . S
C2237 C2234 1.409 . S
C2237 C2235 1.415 . S
C2238 H2228 0.930 . S
C2238 C2236 1.419 . S
C2238 C2239 1.362 . S
C2239 H2229 0.930 . S
C2239 C2232 1.409 . S
C2239 C2238 1.362 . S
H2240 C2246 0.930 . S
H2241 C2249 0.930 . S
H2242 C2250 0.930 . S
H2243 C2251 0.930 . S
H2244 C2254 0.930 . S
H2245 C2255 0.930 . S
C2246 H2240 0.930 . S
C2246 C2247 1.355 . S
C2246 C2248 1.415 . S
C2247 C2246 1.355 . S
C2247 C2249 1.419 . S
C2248 C2246 1.415 . S
C2248 C2253 1.425 . S
C2248 C2255 1.409 . S
C2249 H2241 0.930 . S
C2249 C2247 1.419 . S
C2249 C2250 1.362 . S
C2250 H2242 0.930 . S
C2250 C2249 1.362 . S
C2250 C2253 1.409 . S
C2251 H2243 0.930 . S
C2251 C2252 1.355 . S
C2251 C2253 1.415 . S
C2252 C2251 1.355 . S
C2252 C2254 1.419 . S
C2253 C2248 1.425 . S
C2253 C2250 1.409 . S
C2253 C2251 1.415 . S
C2254 H2244 0.930 . S
C2254 C2252 1.419 . S
C2254 C2255 1.362 . S
C2255 H2245 0.930 . S
C2255 C2248 1.409 . S
C2255 C2254 1.362 . S
H2256 C2262 0.930 . S
H2257 C2265 0.930 . S
H2258 C2266 0.930 . S
H2259 C2267 0.930 . S
H2260 C2270 0.930 . S
H2261 C2271 0.930 . S
C2262 H2256 0.930 . S
C2262 C2263 1.355 . S
C2262 C2264 1.415 . S
C2263 C2262 1.355 . S
C2263 C2265 1.419 . S
C2264 C2262 1.415 . S
C2264 C2269 1.425 . S
C2264 C2271 1.409 . S
C2265 H2257 0.930 . S
C2265 C2263 1.419 . S
C2265 C2266 1.362 . S
C2266 H2258 0.930 . S
C2266 C2265 1.362 . S
C2266 C2269 1.409 . S
C2267 H2259 0.930 . S
C2267 C2268 1.355 . S
C2267 C2269 1.415 . S
C2268 C2267 1.355 . S
C2268 C2270 1.419 . S
C2269 C2264 1.425 . S
C2269 C2266 1.409 . S
C2269 C2267 1.415 . S
C2270 H2260 0.930 . S
C2270 C2268 1.419 . S
C2270 C2271 1.362 . S
C2271 H2261 0.930 . S
C2271 C2264 1.409 . S
C2271 C2270 1.362 . S
H2272 C2278 0.930 . S
H2273 C2281 0.930 . S
H2274 C2282 0.930 . S
H2275 C2283 0.930 . S
H2276 C2286 0.930 . S
H2277 C2287 0.930 . S
C2278 H2272 0.930 . S
C2278 C2279 1.355 . S
C2278 C2280 1.415 . S
C2279 C2278 1.355 . S
C2279 C2281 1.419 . S
C2280 C2278 1.415 . S
C2280 C2285 1.425 . S
C2280 C2287 1.409 . S
C2281 H2273 0.930 . S
C2281 C2279 1.419 . S
C2281 C2282 1.362 . S
C2282 H2274 0.930 . S
C2282 C2281 1.362 . S
C2282 C2285 1.409 . S
C2283 H2275 0.930 . S
C2283 C2284 1.355 . S
C2283 C2285 1.415 . S
C2284 C2283 1.355 . S
C2284 C2286 1.419 . S
C2285 C2280 1.425 . S
C2285 C2282 1.409 . S
C2285 C2283 1.415 . S
C2286 H2276 0.930 . S
C2286 C2284 1.419 . S
C2286 C2287 1.362 . S
C2287 H2277 0.930 . S
C2287 C2280 1.409 . S
C2287 C2286 1.362 . S
H2288 C2294 0.930 . S
H2289 C2297 0.930 . S
H2290 C2298 0.930 . S
H2291 C2299 0.930 . S
H2292 C2302 0.930 . S
H2293 C2303 0.930 . S
C2294 H2288 0.930 . S
C2294 C2295 1.355 . S
C2294 C2296 1.415 . S
C2295 C2294 1.355 . S
C2295 C2297 1.419 . S
C2296 C2294 1.415 . S
C2296 C2301 1.425 . S
C2296 C2303 1.409 . S
C2297 H2289 0.930 . S
C2297 C2295 1.419 . S
C2297 C2298 1.362 . S
C2298 H2290 0.930 . S
C2298 C2297 1.362 . S
C2298 C2301 1.409 . S
C2299 H2291 0.930 . S
C2299 C2300 1.355 . S
C2299 C2301 1.415 . S
C2300 C2299 1.355 . S
C2300 C2302 1.419 . S
C2301 C2296 1.425 . S
C2301 C2298 1.409 . S
C2301 C2299 1.415 . S
C2302 H2292 0.930 . S
C2302 C2300 1.419 . S
C2302 C2303 1.362 . S
C2303 H2293 0.930 . S
C2303 C2296 1.409 . S
C2303 C2302 1.362 . S
H2304 C2310 0.930 . S
H2305 C2313 0.930 . S
H2306 C2314 0.930 . S
H2307 C2315 0.930 . S
H2308 C2318 0.930 . S
H2309 C2319 0.930 . S
C2310 H2304 0.930 . S
C2310 C2311 1.355 . S
C2310 C2312 1.415 . S
C2311 C2310 1.355 . S
C2311 C2313 1.419 . S
C2312 C2310 1.415 . S
C2312 C2317 1.425 . S
C2312 C2319 1.409 . S
C2313 H2305 0.930 . S
C2313 C2311 1.419 . S
C2313 C2314 1.362 . S
C2314 H2306 0.930 . S
C2314 C2313 1.362 . S
C2314 C2317 1.409 . S
C2315 H2307 0.930 . S
C2315 C2316 1.355 . S
C2315 C2317 1.415 . S
C2316 C2315 1.355 . S
C2316 C2318 1.419 . S
C2317 C2312 1.425 . S
C2317 C2314 1.409 . S
C2317 C2315 1.415 . S
C2318 H2308 0.930 . S
C2318 C2316 1.419 . S
C2318 C2319 1.362 . S
C2319 H2309 0.930 . S
C2319 C2312 1.409 . S
C2319 C2318 1.362 . S
H2320 C2326 0.930 . S
H2321 C2329 0.930 . S
H2322 C2330 0.930 . S
H2323 C2331 0.930 . S
H2324 C2334 0.930 . S
H2325 C2335 0.930 . S
C2326 H2320 0.930 . S
C2326 C2327 1.355 . S
C2326 C2328 1.415 . S
C2327 C2326 1.355 . S
C2327 C2329 1.419 . S
C2328 C2326 1.415 . S
C2328 C2333 1.425 . S
C2328 C2335 1.409 . S
C2329 H2321 0.930 . S
C2329 C2327 1.419 . S
C2329 C2330 1.362 . S
C2330 H2322 0.930 . S
C2330 C2329 1.362 . S
C2330 C2333 1.409 . S
C2331 H2323 0.930 . S
C2331 C2332 1.355 . S
C2331 C2333 1.415 . S
C2332 C2331 1.355 . S
C2332 C2334 1.419 . S
C2333 C2328 1.425 . S
C2333 C2330 1.409 . S
C2333 C2331 1.415 . S
C2334 H2324 0.930 . S
C2334 C2332 1.419 . S
C2334 C2335 1.362 . S
C2335 H2325 0.930 . S
C2335 C2328 1.409 . S
C2335 C2334 1.362 . S
H2336 C2342 0.930 . S
H2337 C2345 0.930 . S
H2338 C2346 0.930 . S
H2339 C2347 0.930 . S
H2340 C2350 0.930 . S
H2341 C2351 0.930 . S
C2342 H2336 0.930 . S
C2342 C2343 1.355 . S
C2342 C2344 1.415 . S
C2343 C2342 1.355 . S
C2343 C2345 1.419 . S
C2344 C2342 1.415 . S
C2344 C2349 1.425 . S
C2344 C2351 1.409 . S
C2345 H2337 0.930 . S
C2345 C2343 1.419 . S
C2345 C2346 1.362 . S
C2346 H2338 0.930 . S
C2346 C2345 1.362 . S
C2346 C2349 1.409 . S
C2347 H2339 0.930 . S
C2347 C2348 1.355 . S
C2347 C2349 1.415 . S
C2348 C2347 1.355 . S
C2348 C2350 1.419 . S
C2349 C2344 1.425 . S
C2349 C2346 1.409 . S
C2349 C2347 1.415 . S
C2350 H2340 0.930 . S
C2350 C2348 1.419 . S
C2350 C2351 1.362 . S
C2351 H2341 0.930 . S
C2351 C2344 1.409 . S
C2351 C2350 1.362 . S
H2352 C2358 0.930 . S
H2353 C2361 0.930 . S
H2354 C2362 0.930 . S
H2355 C2363 0.930 . S
H2356 C2366 0.930 . S
H2357 C2367 0.930 . S
C2358 H2352 0.930 . S
C2358 C2359 1.355 . S
C2358 C2360 1.415 . S
C2359 C2358 1.355 . S
C2359 C2361 1.419 . S
C2360 C2358 1.415 . S
C2360 C2365 1.425 . S
C2360 C2367 1.409 . S
C2361 H2353 0.930 . S
C2361 C2359 1.419 . S
C2361 C2362 1.362 . S
C2362 H2354 0.930 . S
C2362 C2361 1.362 . S
C2362 C2365 1.409 . S
C2363 H2355 0.930 . S
C2363 C2364 1.355 . S
C2363 C2365 1.415 . S
C2364 C2363 1.355 . S
C2364 C2366 1.419 . S
C2365 C2360 1.425 . S
C2365 C2362 1.409 . S
C2365 C2363 1.415 . S
C2366 H2356 0.930 . S
C2366 C2364 1.419 . S
C2366 C2367 1.362 . S
C2367 H2357 0.930 . S
C2367 C2360 1.409 . S
C2367 C2366 1.362 . S
H2368 C2374 0.930 . S
H2369 C2377 0.930 . S
H2370 C2378 0.930 . S
H2371 C2379 0.930 . S
H2372 C2382 0.930 . S
H2373 C2383 0.930 . S
C2374 H2368 0.930 . S
C2374 C2375 1.355 . S
C2374 C2376 1.415 . S
C2375 C2374 1.355 . S
C2375 C2377 1.419 . S
C2376 C2374 1.415 . S
C2376 C2381 1.425 . S
C2376 C2383 1.409 . S
C2377 H2369 0.930 . S
C2377 C2375 1.419 . S
C2377 C2378 1.362 . S
C2378 H2370 0.930 . S
C2378 C2377 1.362 . S
C2378 C2381 1.409 . S
C2379 H2371 0.930 . S
C2379 C2380 1.355 . S
C2379 C2381 1.415 . S
C2380 C2379 1.355 . S
C2380 C2382 1.419 . S
C2381 C2376 1.425 . S
C2381 C2378 1.409 . S
C2381 C2379 1.415 . S
C2382 H2372 0.930 . S
C2382 C2380 1.419 . S
C2382 C2383 1.362 . S
C2383 H2373 0.930 . S
C2383 C2376 1.409 . S
C2383 C2382 1.362 . S
H2384 C2390 0.930 . S
H2385 C2393 0.930 . S
H2386 C2394 0.930 . S
H2387 C2395 0.930 . S
H2388 C2398 0.930 . S
H2389 C2399 0.930 . S
C2390 H2384 0.930 . S
C2390 C2391 1.355 . S
C2390 C2392 1.415 . S
C2391 C2390 1.355 . S
C2391 C2393 1.419 . S
C2392 C2390 1.415 . S
C2392 C2397 1.425 . S
C2392 C2399 1.409 . S
C2393 H2385 0.930 . S
C2393 C2391 1.419 . S
C2393 C2394 1.362 . S
C2394 H2386 0.930 . S
C2394 C2393 1.362 . S
C2394 C2397 1.409 . S
C2395 H2387 0.930 . S
C2395 C2396 1.355 . S
C2395 C2397 1.415 . S
C2396 C2395 1.355 . S
C2396 C2398 1.419 . S
C2397 C2392 1.425 . S
C2397 C2394 1.409 . S
C2397 C2395 1.415 . S
C2398 H2388 0.930 . S
C2398 C2396 1.419 . S
C2398 C2399 1.362 . S
C2399 H2389 0.930 . S
C2399 C2392 1.409 . S
C2399 C2398 1.362 . S
H2400 C2406 0.930 . S
H2401 C2409 0.930 . S
H2402 C2410 0.930 . S
H2403 C2411 0.930 . S
H2404 C2414 0.930 . S
H2405 C2415 0.930 . S
C2406 H2400 0.930 . S
C2406 C2407 1.355 . S
C2406 C2408 1.415 . S
C2407 C2406 1.355 . S
C2407 C2409 1.419 . S
C2408 C2406 1.415 . S
C2408 C2413 1.425 . S
C2408 C2415 1.409 . S
C2409 H2401 0.930 . S
C2409 C2407 1.419 . S
C2409 C2410 1.362 . S
C2410 H2402 0.930 . S
C2410 C2409 1.362 . S
C2410 C2413 1.409 . S
C2411 H2403 0.930 . S
C2411 C2412 1.355 . S
C2411 C2413 1.415 . S
C2412 C2411 1.355 . S
C2412 C2414 1.419 . S
C2413 C2408 1.425 . S
C2413 C2410 1.409 . S
C2413 C2411 1.415 . S
C2414 H2404 0.930 . S
C2414 C2412 1.419 . S
C2414 C2415 1.362 . S
C2415 H2405 0.930 . S
C2415 C2408 1.409 . S
C2415 C2414 1.362 . S
H2416 C2422 0.930 . S
H2417 C2425 0.930 . S
H2418 C2426 0.930 . S
H2419 C2427 0.930 . S
H2420 C2430 0.930 . S
H2421 C2431 0.930 . S
C2422 H2416 0.930 . S
C2422 C2423 1.355 . S
C2422 C2424 1.415 . S
C2423 C2422 1.355 . S
C2423 C2425 1.419 . S
C2424 C2422 1.415 . S
C2424 C2429 1.425 . S
C2424 C2431 1.409 . S
C2425 H2417 0.930 . S
C2425 C2423 1.419 . S
C2425 C2426 1.362 . S
C2426 H2418 0.930 . S
C2426 C2425 1.362 . S
C2426 C2429 1.409 . S
C2427 H2419 0.930 . S
C2427 C2428 1.355 . S
C2427 C2429 1.415 . S
C2428 C2427 1.355 . S
C2428 C2430 1.419 . S
C2429 C2424 1.425 . S
C2429 C2426 1.409 . S
C2429 C2427 1.415 . S
C2430 H2420 0.930 . S
C2430 C2428 1.419 . S
C2430 C2431 1.362 . S
C2431 H2421 0.930 . S
C2431 C2424 1.409 . S
C2431 C2430 1.362 . S
H2432 C2438 0.930 . S
H2433 C2441 0.930 . S
H2434 C2442 0.930 . S
H2435 C2443 0.930 . S
H2436 C2446 0.930 . S
H2437 C2447 0.930 . S
C2438 H2432 0.930 . S
C2438 C2439 1.355 . S
C2438 C2440 1.415 . S
C2439 C2438 1.355 . S
C2439 C2441 1.419 . S
C2440 C2438 1.415 . S
C2440 C2445 1.425 . S
C2440 C2447 1.409 . S
C2441 H2433 0.930 . S
C2441 C2439 1.419 . S
C2441 C2442 1.362 . S
C2442 H2434 0.930 . S
C2442 C2441 1.362 . S
C2442 C2445 1.409 . S
C2443 H2435 0.930 . S
C2443 C2444 1.355 . S
C2443 C2445 1.415 . S
C2444 C2443 1.355 . S
C2444 C2446 1.419 . S
C2445 C2440 1.425 . S
C2445 C2442 1.409 . S
C2445 C2443 1.415 . S
C2446 H2436 0.930 . S
C2446 C2444 1.419 . S
C2446 C2447 1.362 . S
C2447 H2437 0.930 . S
C2447 C2440 1.409 . S
C2447 C2446 1.362 . S
H2448 C2454 0.930 . S
H2449 C2457 0.930 . S
H2450 C2458 0.930 . S
H2451 C2459 0.930 . S
H2452 C2462 0.930 . S
H2453 C2463 0.930 . S
C2454 H2448 0.930 . S
C2454 C2455 1.355 . S
C2454 C2456 1.415 . S
C2455 C2454 1.355 . S
C2455 C2457 1.419 . S
C2456 C2454 1.415 . S
C2456 C2461 1.425 . S
C2456 C2463 1.409 . S
C2457 H2449 0.930 . S
C2457 C2455 1.419 . S
C2457 C2458 1.362 . S
C2458 H2450 0.930 . S
C2458 C2457 1.362 . S
C2458 C2461 1.409 . S
C2459 H2451 0.930 . S
C2459 C2460 1.355 . S
C2459 C2461 1.415 . S
C2460 C2459 1.355 . S
C2460 C2462 1.419 . S
C2461 C2456 1.425 . S
C2461 C2458 1.409 . S
C2461 C2459 1.415 . S
C2462 H2452 0.930 . S
C2462 C2460 1.419 . S
C2462 C2463 1.362 . S
C2463 H2453 0.930 . S
C2463 C2456 1.409 . S
C2463 C2462 1.362 . S
H2464 C2470 0.930 . S
H2465 C2473 0.930 . S
H2466 C2474 0.930 . S
H2467 C2475 0.930 . S
H2468 C2478 0.930 . S
H2469 C2479 0.930 . S
C2470 H2464 0.930 . S
C2470 C2471 1.355 . S
C2470 C2472 1.415 . S
C2471 C2470 1.355 . S
C2471 C2473 1.419 . S
C2472 C2470 1.415 . S
C2472 C2477 1.425 . S
C2472 C2479 1.409 . S
C2473 H2465 0.930 . S
C2473 C2471 1.419 . S
C2473 C2474 1.362 . S
C2474 H2466 0.930 . S
C2474 C2473 1.362 . S
C2474 C2477 1.409 . S
C2475 H2467 0.930 . S
C2475 C2476 1.355 . S
C2475 C2477 1.415 . S
C2476 C2475 1.355 . S
C2476 C2478 1.419 . S
C2477 C2472 1.425 . S
C2477 C2474 1.409 . S
C2477 C2475 1.415 . S
C2478 H2468 0.930 . S
C2478 C2476 1.419 . S
C2478 C2479 1.362 . S
C2479 H2469 0.930 . S
C2479 C2472 1.409 . S
C2479 C2478 1.362 . S
H2480 C2486 0.930 . S
H2481 C2489 0.930 . S
H2482 C2490 0.930 . S
H2483 C2491 0.930 . S
H2484 C2494 0.930 . S
H2485 C2495 0.930 . S
C2486 H2480 0.930 . S
C2486 C2487 1.355 . S
C2486 C2488 1.415 . S
C2487 C2486 1.355 . S
C2487 C2489 1.419 . S
C2488 C2486 1.415 . S
C2488 C2493 1.425 . S
C2488 C2495 1.409 . S
C2489 H2481 0.930 . S
C2489 C2487 1.419 . S
C2489 C2490 1.362 . S
C2490 H2482 0.930 . S
C2490 C2489 1.362 . S
C2490 C2493 1.409 . S
C2491 H2483 0.930 . S
C2491 C2492 1.355 . S
C2491 C2493 1.415 . S
C2492 C2491 1.355 . S
C2492 C2494 1.419 . S
C2493 C2488 1.425 . S
C2493 C2490 1.409 . S
C2493 C2491 1.415 . S
C2494 H2484 0.930 . S
C2494 C2492 1.419 . S
C2494 C2495 1.362 . S
C2495 H2485 0.930 . S
C2495 C2488 1.409 . S
C2495 C2494 1.362 . S
H2496 C2502 0.930 . S
H2497 C2505 0.930 . S
H2498 C2506 0.930 . S
H2499 C2507 0.930 . S
H2500 C2510 0.930 . S
H2501 C2511 0.930 . S
C2502 H2496 0.930 . S
C2502 C2503 1.355 . S
C2502 C2504 1.415 . S
C2503 C2502 1.355 . S
C2503 C2505 1.419 . S
C2504 C2502 1.415 . S
C2504 C2509 1.425 . S
C2504 C2511 1.409 . S
C2505 H2497 0.930 . S
C2505 C2503 1.419 . S
C2505 C2506 1.362 . S
C2506 H2498 0.930 . S
C2506 C2505 1.362 . S
C2506 C2509 1.409 . S
C2507 H2499 0.930 . S
C2507 C2508 1.355 . S
C2507 C2509 1.415 . S
C2508 C2507 1.355 . S
C2508 C2510 1.419 . S
C2509 C2504 1.425 . S
C2509 C2506 1.409 . S
C2509 C2507 1.415 . S
C2510 H2500 0.930 . S
C2510 C2508 1.419 . S
C2510 C2511 1.362 . S
C2511 H2501 0.930 . S
C2511 C2504 1.409 . S
C2511 C2510 1.362 . S
H2512 C2518 0.930 . S
H2513 C2521 0.930 . S
H2514 C2522 0.930 . S
H2515 C2523 0.930 . S
H2516 C2526 0.930 . S
H2517 C2527 0.930 . S
C2518 H2512 0.930 . S
C2518 C2519 1.355 . S
C2518 C2520 1.415 . S
C2519 C2518 1.355 . S
C2519 C2521 1.419 . S
C2520 C2518 1.415 . S
C2520 C2525 1.425 . S
C2520 C2527 1.409 . S
C2521 H2513 0.930 . S
C2521 C2519 1.419 . S
C2521 C2522 1.362 . S
C2522 H2514 0.930 . S
C2522 C2521 1.362 . S
C2522 C2525 1.409 . S
C2523 H2515 0.930 . S
C2523 C2524 1.355 . S
C2523 C2525 1.415 . S
C2524 C2523 1.355 . S
C2524 C2526 1.419 . S
C2525 C2520 1.425 . S
C2525 C2522 1.409 . S
C2525 C2523 1.415 . S
C2526 H2516 0.930 . S
C2526 C2524 1.419 . S
C2526 C2527 1.362 . S
C2527 H2517 0.930 . S
C2527 C2520 1.409 . S
C2527 C2526 1.362 . S
H2528 C2534 0.930 . S
H2529 C2537 0.930 . S
H2530 C2538 0.930 . S
H2531 C2539 0.930 . S
H2532 C2542 0.930 . S
H2533 C2543 0.930 . S
C2534 H2528 0.930 . S
C2534 C2535 1.355 . S
C2534 C2536 1.415 . S
C2535 C2534 1.355 . S
C2535 C2537 1.419 . S
C2536 C2534 1.415 . S
C2536 C2541 1.425 . S
C2536 C2543 1.409 . S
C2537 H2529 0.930 . S
C2537 C2535 1.419 . S
C2537 C2538 1.362 . S
C2538 H2530 0.930 . S
C2538 C2537 1.362 . S
C2538 C2541 1.409 . S
C2539 H2531 0.930 . S
C2539 C2540 1.355 . S
C2539 C2541 1.415 . S
C2540 C2539 1.355 . S
C2540 C2542 1.419 . S
C2541 C2536 1.425 . S
C2541 C2538 1.409 . S
C2541 C2539 1.415 . S
C2542 H2532 0.930 . S
C2542 C2540 1.419 . S
C2542 C2543 1.362 . S
C2543 H2533 0.930 . S
C2543 C2536 1.409 . S
C2543 C2542 1.362 . S
H2544 C2550 0.930 . S
H2545 C2553 0.930 . S
H2546 C2554 0.930 . S
H2547 C2555 0.930 . S
H2548 C2558 0.930 . S
H2549 C2559 0.930 . S
C2550 H2544 0.930 . S
C2550 C2551 1.355 . S
C2550 C2552 1.415 . S
C2551 C2550 1.355 . S
C2551 C2553 1.419 . S
C2552 C2550 1.415 . S
C2552 C2557 1.425 . S
C2552 C2559 1.409 . S
C2553 H2545 0.930 . S
C2553 C2551 1.419 . S
C2553 C2554 1.362 . S
C2554 H2546 0.930 . S
C2554 C2553 1.362 . S
C2554 C2557 1.409 . S
C2555 H2547 0.930 . S
C2555 C2556 1.355 . S
C2555 C2557 1.415 . S
C2556 C2555 1.355 . S
C2556 C2558 1.419 . S
C2557 C2552 1.425 . S
C2557 C2554 1.409 . S
C2557 C2555 1.415 . S
C2558 H2548 0.930 . S
C2558 C2556 1.419 . S
C2558 C2559 1.362 . S
C2559 H2549 0.930 . S
C2559 C2552 1.409 . S
C2559 C2558 1.362 . S
H2560 C2566 0.930 . S
H2561 C2569 0.930 . S
H2562 C2570 0.930 . S
H2563 C2571 0.930 . S
H2564 C2574 0.930 . S
H2565 C2575 0.930 . S
C2566 H2560 0.930 . S
C2566 C2567 1.355 . S
C2566 C2568 1.415 . S
C2567 C2566 1.355 . S
C2567 C2569 1.419 . S
C2568 C2566 1.415 . S
C2568 C2573 1.425 . S
C2568 C2575 1.409 . S
C2569 H2561 0.930 . S
C2569 C2567 1.419 . S
C2569 C2570 1.362 . S
C2570 H2562 0.930 . S
C2570 C2569 1.362 . S
C2570 C2573 1.409 . S
C2571 H2563 0.930 . S
C2571 C2572 1.355 . S
C2571 C2573 1.415 . S
C2572 C2571 1.355 . S
C2572 C2574 1.419 . S
C2573 C2568 1.425 . S
C2573 C2570 1.409 . S
C2573 C2571 1.415 . S
C2574 H2564 0.930 . S
C2574 C2572 1.419 . S
C2574 C2575 1.362 . S
C2575 H2565 0.930 . S
C2575 C2568 1.409 . S
C2575 C2574 1.362 . S
H2576 C2582 0.930 . S
H2577 C2585 0.930 . S
H2578 C2586 0.930 . S
H2579 C2587 0.930 . S
H2580 C2590 0.930 1_545 S
H2581 C2591 0.930 . S
C2582 H2576 0.930 . S
C2582 C2583 1.355 . S
C2582 C2584 1.415 . S
C2583 C2582 1.355 . S
C2583 C2585 1.419 . S
C2584 C2582 1.415 . S
C2584 C2589 1.425 . S
C2584 C2591 1.409 . S
C2585 H2577 0.930 . S
C2585 C2583 1.419 . S
C2585 C2586 1.362 . S
C2586 H2578 0.930 . S
C2586 C2585 1.362 . S
C2586 C2589 1.409 . S
C2587 H2579 0.930 . S
C2587 C2588 1.355 . S
C2587 C2589 1.415 . S
C2588 C2587 1.355 . S
C2588 C2590 1.419 . S
C2589 C2584 1.425 . S
C2589 C2586 1.409 . S
C2589 C2587 1.415 . S
C2590 H2580 0.930 1_565 S
C2590 C2588 1.419 . S
C2590 C2591 1.362 . S
C2591 H2581 0.930 . S
C2591 C2584 1.409 . S
C2591 C2590 1.362 . S
H2592 C2598 0.930 . S
H2593 C2601 0.930 . S
H2594 C2602 0.930 . S
H2595 C2603 0.930 . S
H2596 C2606 0.930 . S
H2597 C2607 0.930 . S
C2598 H2592 0.930 . S
C2598 C2599 1.355 . S
C2598 C2600 1.415 . S
C2599 C2598 1.355 . S
C2599 C2601 1.419 . S
C2600 C2598 1.415 . S
C2600 C2605 1.425 . S
C2600 C2607 1.409 . S
C2601 H2593 0.930 . S
C2601 C2599 1.419 . S
C2601 C2602 1.362 . S
C2602 H2594 0.930 . S
C2602 C2601 1.362 . S
C2602 C2605 1.409 . S
C2603 H2595 0.930 . S
C2603 C2604 1.355 . S
C2603 C2605 1.415 . S
C2604 C2603 1.355 . S
C2604 C2606 1.419 . S
C2605 C2600 1.425 . S
C2605 C2602 1.409 . S
C2605 C2603 1.415 . S
C2606 H2596 0.930 . S
C2606 C2604 1.419 . S
C2606 C2607 1.362 . S
C2607 H2597 0.930 . S
C2607 C2600 1.409 . S
C2607 C2606 1.362 . S
H2608 C2614 0.930 . S
H2609 C2617 0.930 . S
H2610 C2618 0.930 . S
H2611 C2619 0.930 . S
H2612 C2622 0.930 . S
H2613 C2623 0.930 . S
C2614 H2608 0.930 . S
C2614 C2615 1.355 . S
C2614 C2616 1.415 . S
C2615 C2614 1.355 . S
C2615 C2617 1.419 . S
C2616 C2614 1.415 . S
C2616 C2621 1.425 . S
C2616 C2623 1.409 . S
C2617 H2609 0.930 . S
C2617 C2615 1.419 . S
C2617 C2618 1.362 . S
C2618 H2610 0.930 . S
C2618 C2617 1.362 . S
C2618 C2621 1.409 . S
C2619 H2611 0.930 . S
C2619 C2620 1.355 . S
C2619 C2621 1.415 . S
C2620 C2619 1.355 . S
C2620 C2622 1.419 . S
C2621 C2616 1.425 . S
C2621 C2618 1.409 . S
C2621 C2619 1.415 . S
C2622 H2612 0.930 . S
C2622 C2620 1.419 . S
C2622 C2623 1.362 . S
C2623 H2613 0.930 . S
C2623 C2616 1.409 . S
C2623 C2622 1.362 . S
H2624 C2630 0.930 . S
H2625 C2633 0.930 . S
H2626 C2634 0.930 . S
H2627 C2635 0.930 . S
H2628 C2638 0.930 . S
H2629 C2639 0.930 . S
C2630 H2624 0.930 . S
C2630 C2631 1.355 . S
C2630 C2632 1.415 . S
C2631 C2630 1.355 . S
C2631 C2633 1.419 . S
C2632 C2630 1.415 . S
C2632 C2637 1.425 . S
C2632 C2639 1.409 . S
C2633 H2625 0.930 . S
C2633 C2631 1.419 . S
C2633 C2634 1.362 . S
C2634 H2626 0.930 . S
C2634 C2633 1.362 . S
C2634 C2637 1.409 . S
C2635 H2627 0.930 . S
C2635 C2636 1.355 . S
C2635 C2637 1.415 . S
C2636 C2635 1.355 . S
C2636 C2638 1.419 . S
C2637 C2632 1.425 . S
C2637 C2634 1.409 . S
C2637 C2635 1.415 . S
C2638 H2628 0.930 . S
C2638 C2636 1.419 . S
C2638 C2639 1.362 . S
C2639 H2629 0.930 . S
C2639 C2632 1.409 . S
C2639 C2638 1.362 . S
H2640 C2646 0.930 . S
H2641 C2649 0.930 . S
H2642 C2650 0.930 . S
H2643 C2651 0.930 . S
H2644 C2654 0.930 . S
H2645 C2655 0.930 . S
C2646 H2640 0.930 . S
C2646 C2647 1.355 . S
C2646 C2648 1.415 . S
C2647 C2646 1.355 . S
C2647 C2649 1.419 . S
C2648 C2646 1.415 . S
C2648 C2653 1.425 . S
C2648 C2655 1.409 . S
C2649 H2641 0.930 . S
C2649 C2647 1.419 . S
C2649 C2650 1.362 . S
C2650 H2642 0.930 . S
C2650 C2649 1.362 . S
C2650 C2653 1.409 . S
C2651 H2643 0.930 . S
C2651 C2652 1.355 . S
C2651 C2653 1.415 . S
C2652 C2651 1.355 . S
C2652 C2654 1.419 . S
C2653 C2648 1.425 . S
C2653 C2650 1.409 . S
C2653 C2651 1.415 . S
C2654 H2644 0.930 . S
C2654 C2652 1.419 . S
C2654 C2655 1.362 . S
C2655 H2645 0.930 . S
C2655 C2648 1.409 . S
C2655 C2654 1.362 . S
H2656 C2662 0.930 . S
H2657 C2665 0.930 . S
H2658 C2666 0.930 . S
H2659 C2667 0.930 . S
H2660 C2670 0.930 . S
H2661 C2671 0.930 . S
C2662 H2656 0.930 . S
C2662 C2663 1.355 . S
C2662 C2664 1.415 . S
C2663 C2662 1.355 . S
C2663 C2665 1.419 . S
C2664 C2662 1.415 . S
C2664 C2669 1.425 . S
C2664 C2671 1.409 . S
C2665 H2657 0.930 . S
C2665 C2663 1.419 . S
C2665 C2666 1.362 . S
C2666 H2658 0.930 . S
C2666 C2665 1.362 . S
C2666 C2669 1.409 . S
C2667 H2659 0.930 . S
C2667 C2668 1.355 . S
C2667 C2669 1.415 . S
C2668 C2667 1.355 . S
C2668 C2670 1.419 . S
C2669 C2664 1.425 . S
C2669 C2666 1.409 . S
C2669 C2667 1.415 . S
C2670 H2660 0.930 . S
C2670 C2668 1.419 . S
C2670 C2671 1.362 . S
C2671 H2661 0.930 . S
C2671 C2664 1.409 . S
C2671 C2670 1.362 . S
H2672 C2678 0.930 . S
H2673 C2681 0.930 . S
H2674 C2682 0.930 . S
H2675 C2683 0.930 . S
H2676 C2686 0.930 . S
H2677 C2687 0.930 . S
C2678 H2672 0.930 . S
C2678 C2679 1.355 . S
C2678 C2680 1.415 . S
C2679 C2678 1.355 . S
C2679 C2681 1.419 . S
C2680 C2678 1.415 . S
C2680 C2685 1.425 . S
C2680 C2687 1.409 . S
C2681 H2673 0.930 . S
C2681 C2679 1.419 . S
C2681 C2682 1.362 . S
C2682 H2674 0.930 . S
C2682 C2681 1.362 . S
C2682 C2685 1.409 . S
C2683 H2675 0.930 . S
C2683 C2684 1.355 . S
C2683 C2685 1.415 . S
C2684 C2683 1.355 . S
C2684 C2686 1.419 . S
C2685 C2680 1.425 . S
C2685 C2682 1.409 . S
C2685 C2683 1.415 . S
C2686 H2676 0.930 . S
C2686 C2684 1.419 . S
C2686 C2687 1.362 . S
C2687 H2677 0.930 . S
C2687 C2680 1.409 . S
C2687 C2686 1.362 . S
H2688 C2694 0.930 . S
H2689 C2697 0.930 . S
H2690 C2698 0.930 . S
H2691 C2699 0.930 . S
H2692 C2702 0.930 . S
H2693 C2703 0.930 . S
C2694 H2688 0.930 . S
C2694 C2695 1.355 . S
C2694 C2696 1.415 . S
C2695 C2694 1.355 . S
C2695 C2697 1.419 . S
C2696 C2694 1.415 . S
C2696 C2701 1.425 . S
C2696 C2703 1.409 . S
C2697 H2689 0.930 . S
C2697 C2695 1.419 . S
C2697 C2698 1.362 . S
C2698 H2690 0.930 . S
C2698 C2697 1.362 . S
C2698 C2701 1.409 . S
C2699 H2691 0.930 . S
C2699 C2700 1.355 . S
C2699 C2701 1.415 . S
C2700 C2699 1.355 . S
C2700 C2702 1.419 . S
C2701 C2696 1.425 . S
C2701 C2698 1.409 . S
C2701 C2699 1.415 . S
C2702 H2692 0.930 . S
C2702 C2700 1.419 . S
C2702 C2703 1.362 . S
C2703 H2693 0.930 . S
C2703 C2696 1.409 . S
C2703 C2702 1.362 . S
H2704 C2710 0.930 . S
H2705 C2713 0.930 . S
H2706 C2714 0.930 . S
H2707 C2715 0.930 . S
H2708 C2718 0.930 1_545 S
H2709 C2719 0.930 . S
C2710 H2704 0.930 . S
C2710 C2711 1.355 . S
C2710 C2712 1.415 . S
C2711 C2710 1.355 . S
C2711 C2713 1.419 . S
C2712 C2710 1.415 . S
C2712 C2717 1.425 . S
C2712 C2719 1.409 . S
C2713 H2705 0.930 . S
C2713 C2711 1.419 . S
C2713 C2714 1.362 . S
C2714 H2706 0.930 . S
C2714 C2713 1.362 . S
C2714 C2717 1.409 . S
C2715 H2707 0.930 . S
C2715 C2716 1.355 . S
C2715 C2717 1.415 . S
C2716 C2715 1.355 . S
C2716 C2718 1.419 . S
C2717 C2712 1.425 . S
C2717 C2714 1.409 . S
C2717 C2715 1.415 . S
C2718 H2708 0.930 1_565 S
C2718 C2716 1.419 . S
C2718 C2719 1.362 . S
C2719 H2709 0.930 . S
C2719 C2712 1.409 . S
C2719 C2718 1.362 . S
C935 C303 3.062 . S
C940 C13 3.059 . S
C951 C42 3.039 . S
C956 C332 3.018 . S
C967 C245 3.007 . S
C972 C71 3.012 . S
C983 C274 3.062 . S
C988 C100 3.047 . S
C999 C129 3.052 . S
C1004 C419 3.031 . S
C1015 C448 3.025 . S
C1020 C158 3.047 . S
C1031 C187 3.009 . S
C1036 C361 3.026 . S
C1047 C216 3.057 . S
C1052 C390 3.062 . S
C1063 C767 3.015 . S
C1068 C477 3.036 . S
C1079 C506 3.026 . S
C1084 C796 3.009 . S
C1095 C709 3.007 . S
C1100 C535 3.014 . S
C1111 C564 3.034 . S
C1116 C738 3.055 . S
C1127 C593 3.060 . S
C1132 C883 3.042 . S
C1143 C912 3.042 . S
C1148 C622 3.021 . S
C1159 C651 3.007 . S
C1164 C825 3.015 . S
C1175 C854 3.061 . S
C1180 C680 3.046 . S
C1191 C3 0.831 . S
C1196 C32 0.828 . S
C1207 C61 0.915 . S
C1212 C90 0.910 . S
C1223 C148 0.921 . S
C1228 C119 0.921 . S
C1239 C206 0.826 . S
C1244 C177 0.826 . S
C1255 C264 0.832 . S
C1260 C235 0.837 . S
C1271 C293 0.827 . S
C1276 C322 0.831 . S
C1287 C351 0.880 . S
C1292 C380 0.889 . S
C1303 C438 0.837 . S
C1308 C409 0.832 . S
C1319 C467 0.826 . S
C1324 C496 0.828 . S
C1335 C554 0.889 . S
C1340 C525 0.879 . S
C1351 C612 0.920 . S
C1356 C583 0.916 . S
C1367 C641 0.870 . S
C1372 C670 0.860 . S
C1383 C699 0.889 . S
C1388 C728 0.880 . S
C1399 C757 0.915 . S
C1404 C786 0.910 . S
C1415 C815 0.870 . S
C1420 C844 0.860 . S
C1431 C873 0.827 . S
C1436 C902 0.831 . S
C1447 C5 2.500 . S
C1452 C63 2.502 1_545 S
C1463 C34 2.490 1_545 S
C1468 C92 2.488 . S
C1479 C121 2.491 . S
C1484 C179 2.494 1_565 S
C1495 C150 2.497 1_565 S
C1500 C208 2.500 . S
C1511 C237 2.483 . S
C1516 C295 2.485 . S
C1527 C266 2.501 . S
C1532 C324 2.499 . S
C1543 C411 2.501 . S
C1548 C353 2.503 . S
C1559 C382 2.506 . S
C1564 C440 2.507 . S
C1575 C527 2.508 1_545 S
C1580 C469 2.508 . S
C1591 C498 2.502 1_545 S
C1596 C556 2.500 . S
C1607 C643 2.491 1_565 S
C1612 C585 2.494 . S
C1623 C614 2.493 1_565 S
C1628 C672 2.495 . S
C1639 C701 2.505 . S
C1644 C759 2.506 . S
C1655 C730 2.507 . S
C1660 C788 2.507 . S
C1671 C817 2.480 . S
C1676 C875 2.480 . S
C1687 C846 2.506 . S
C1692 C904 2.507 . S
C1703 C21 0.640 . S
C1708 C108 0.657 . S
C1719 C79 0.597 . S
C1724 C50 0.607 . S
C1735 C137 0.657 . S
C1740 C224 0.640 . S
C1751 C166 0.607 . S
C1756 C195 0.597 . S
C1767 C340 0.597 . S
C1772 C253 0.607 . S
C1783 C311 0.597 . S
C1788 C282 0.607 . S
C1799 C369 0.592 . S
C1804 C456 0.589 . S
C1815 C398 0.726 . S
C1820 C427 0.729 . S
C1831 C485 0.668 . S
C1836 C572 0.684 . S
C1847 C514 0.657 . S
C1852 C543 0.640 . S
C1863 C601 0.657 . S
C1868 C688 0.640 . S
C1879 C630 0.727 . S
C1884 C659 0.722 . S
C1895 C717 0.591 . S
C1900 C804 0.597 . S
C1911 C775 0.589 . S
C1916 C746 0.592 . S
C1927 C920 0.727 . S
C1932 C833 0.722 . S
C1943 C891 0.668 . S
C1948 C862 0.684 . S
C1959 C131 2.844 . S
C1964 C15 2.844 . S
C1975 C856 2.781 . S
C1980 C44 2.781 . S
C1991 C73 2.816 . S
C1996 C421 2.816 . S
C2007 C682 2.841 . S
C2012 C102 2.841 . S
C2023 C160 2.836 . S
C2028 C740 2.836 . S
C2039 C189 2.831 . S
C2044 C305 2.831 . S
C2055 C218 2.781 . S
C2060 C566 2.781 . S
C2071 C363 2.818 . S
C2076 C247 2.818 . S
C2087 C624 2.821 . S
C2092 C276 2.821 . S
C2103 C914 2.790 . S
C2108 C334 2.790 . S
C2119 C508 2.813 . S
C2124 C392 2.813 . S
C2135 C798 2.784 . S
C2140 C450 2.784 . S
C2151 C595 2.790 . S
C2156 C479 2.790 . S
C2167 C537 2.814 . S
C2172 C885 2.814 . S
C2183 C769 2.803 . S
C2188 C653 2.803 . S
C2199 C827 2.844 . S
C2204 C711 2.844 . S
C2215 C8 0.851 . S
C2220 C66 0.926 . S
C2231 C95 0.855 . S
C2236 C37 0.926 . S
C2247 C124 0.823 . S
C2252 C182 0.918 . S
C2263 C153 0.770 . S
C2268 C211 0.813 . S
C2279 C298 0.927 . S
C2284 C240 0.864 . S
C2295 C327 0.809 . S
C2300 C269 0.771 . S
C2311 C356 0.922 . S
C2316 C414 0.888 . S
C2327 C385 0.927 . S
C2332 C443 0.861 . S
C2343 C472 0.851 . S
C2348 C530 0.926 . S
C2359 C501 0.789 . S
C2364 C559 0.784 . S
C2375 C646 0.838 . S
C2380 C588 0.923 . S
C2391 C675 0.911 . S
C2396 C617 0.906 . S
C2407 C704 0.769 . S
C2412 C762 0.860 . S
C2423 C733 0.878 . S
C2428 C791 0.777 . S
C2439 C820 0.883 . S
C2444 C878 0.780 . S
C2455 C907 0.919 . S
C2460 C849 0.826 . S
C2471 C39 3.293 . S
C2476 C10 3.277 . S
C2487 C97 3.277 . S
C2492 C68 3.268 . S
C2503 C155 3.300 . S
C2508 C126 3.285 . S
C2519 C213 3.277 . S
C2524 C184 3.293 . S
C2535 C242 3.293 1_545 S
C2540 C271 3.277 . S
C2551 C329 3.306 1_545 S
C2556 C300 3.293 . S
C2567 C387 3.309 . S
C2572 C358 3.300 1_565 S
C2583 C416 3.268 . S
C2588 C445 3.274 1_565 S
C2599 C474 3.268 . S
C2604 C503 3.274 . S
C2615 C561 3.306 . S
C2620 C532 3.293 . S
C2631 C590 3.274 . S
C2636 C619 3.268 . S
C2647 C648 3.300 . S
C2652 C677 3.284 . S
C2663 C735 3.285 . S
C2668 C706 3.300 1_545 S
C2679 C793 3.305 1_545 S
C2684 C764 3.309 . S
C2695 C851 3.277 . S
C2700 C822 3.293 1_565 S
C2711 C880 3.268 . S
C2716 C909 3.277 1_565 S
