# Generated by pormake.
# Topology lcy-a, (4)-cn, num edge types: 1
# Building blocks:
#     Node 0, Type 0, BuildingBlock: GALJAG_clean_sbu_0, # of connection points: 4
#     Node 1, Type 0, BuildingBlock: GALJAG_clean_sbu_0, # of connection points: 4
#     Node 2, Type 0, BuildingBlock: GALJAG_clean_sbu_0, # of connection points: 4
#     Node 3, Type 0, BuildingBlock: GALJAG_clean_sbu_0, # of connection points: 4
#     Node 4, Type 0, BuildingBlock: GALJAG_clean_sbu_0, # of connection points: 4
#     Node 5, Type 0, BuildingBlock: GALJAG_clean_sbu_0, # of connection points: 4
#     Node 6, Type 0, BuildingBlock: GALJAG_clean_sbu_0, # of connection points: 4
#     Node 7, Type 0, BuildingBlock: GALJAG_clean_sbu_0, # of connection points: 4
#     Node 8, Type 0, BuildingBlock: GALJAG_clean_sbu_0, # of connection points: 4
#     Node 9, Type 0, BuildingBlock: GALJAG_clean_sbu_0, # of connection points: 4
#     Node 10, Type 0, BuildingBlock: GALJAG_clean_sbu_0, # of connection points: 4
#     Node 11, Type 0, BuildingBlock: GALJAG_clean_sbu_0, # of connection points: 4
#     Node 12, Type 0, BuildingBlock: GALJAG_clean_sbu_0, # of connection points: 4
#     Node 13, Type 0, BuildingBlock: GALJAG_clean_sbu_0, # of connection points: 4
#     Node 14, Type 0, BuildingBlock: GALJAG_clean_sbu_0, # of connection points: 4
#     Node 15, Type 0, BuildingBlock: GALJAG_clean_sbu_0, # of connection points: 4
#     Node 16, Type 0, BuildingBlock: GALJAG_clean_sbu_0, # of connection points: 4
#     Node 17, Type 0, BuildingBlock: GALJAG_clean_sbu_0, # of connection points: 4
#     Node 18, Type 0, BuildingBlock: GALJAG_clean_sbu_0, # of connection points: 4
#     Node 19, Type 0, BuildingBlock: GALJAG_clean_sbu_0, # of connection points: 4
#     Node 20, Type 0, BuildingBlock: GALJAG_clean_sbu_0, # of connection points: 4
#     Node 21, Type 0, BuildingBlock: GALJAG_clean_sbu_0, # of connection points: 4
#     Node 22, Type 0, BuildingBlock: GALJAG_clean_sbu_0, # of connection points: 4
#     Node 23, Type 0, BuildingBlock: GALJAG_clean_sbu_0, # of connection points: 4
#     Edge 24, Type (0, 0), BuildingBlock: XUDNAN_clean_linker_2, # of connection points: 2
#     Edge 25, Type (0, 0), BuildingBlock: XUDNAN_clean_linker_2, # of connection points: 2
#     Edge 26, Type (0, 0), BuildingBlock: XUDNAN_clean_linker_2, # of connection points: 2
#     Edge 27, Type (0, 0), BuildingBlock: XUDNAN_clean_linker_2, # of connection points: 2
#     Edge 28, Type (0, 0), BuildingBlock: XUDNAN_clean_linker_2, # of connection points: 2
#     Edge 29, Type (0, 0), BuildingBlock: XUDNAN_clean_linker_2, # of connection points: 2
#     Edge 30, Type (0, 0), BuildingBlock: XUDNAN_clean_linker_2, # of connection points: 2
#     Edge 31, Type (0, 0), BuildingBlock: XUDNAN_clean_linker_2, # of connection points: 2
#     Edge 32, Type (0, 0), BuildingBlock: XUDNAN_clean_linker_2, # of connection points: 2
#     Edge 33, Type (0, 0), BuildingBlock: XUDNAN_clean_linker_2, # of connection points: 2
#     Edge 34, Type (0, 0), BuildingBlock: XUDNAN_clean_linker_2, # of connection points: 2
#     Edge 35, Type (0, 0), BuildingBlock: XUDNAN_clean_linker_2, # of connection points: 2
#     Edge 36, Type (0, 0), BuildingBlock: XUDNAN_clean_linker_2, # of connection points: 2
#     Edge 37, Type (0, 0), BuildingBlock: XUDNAN_clean_linker_2, # of connection points: 2
#     Edge 38, Type (0, 0), BuildingBlock: XUDNAN_clean_linker_2, # of connection points: 2
#     Edge 39, Type (0, 0), BuildingBlock: XUDNAN_clean_linker_2, # of connection points: 2
#     Edge 40, Type (0, 0), BuildingBlock: XUDNAN_clean_linker_2, # of connection points: 2
#     Edge 41, Type (0, 0), BuildingBlock: XUDNAN_clean_linker_2, # of connection points: 2
#     Edge 42, Type (0, 0), BuildingBlock: XUDNAN_clean_linker_2, # of connection points: 2
#     Edge 43, Type (0, 0), BuildingBlock: XUDNAN_clean_linker_2, # of connection points: 2
#     Edge 44, Type (0, 0), BuildingBlock: XUDNAN_clean_linker_2, # of connection points: 2
#     Edge 45, Type (0, 0), BuildingBlock: XUDNAN_clean_linker_2, # of connection points: 2
#     Edge 46, Type (0, 0), BuildingBlock: XUDNAN_clean_linker_2, # of connection points: 2
#     Edge 47, Type (0, 0), BuildingBlock: XUDNAN_clean_linker_2, # of connection points: 2
#     Edge 48, Type (0, 0), BuildingBlock: XUDNAN_clean_linker_2, # of connection points: 2
#     Edge 49, Type (0, 0), BuildingBlock: XUDNAN_clean_linker_2, # of connection points: 2
#     Edge 50, Type (0, 0), BuildingBlock: XUDNAN_clean_linker_2, # of connection points: 2
#     Edge 51, Type (0, 0), BuildingBlock: XUDNAN_clean_linker_2, # of connection points: 2
#     Edge 52, Type (0, 0), BuildingBlock: XUDNAN_clean_linker_2, # of connection points: 2
#     Edge 53, Type (0, 0), BuildingBlock: XUDNAN_clean_linker_2, # of connection points: 2
#     Edge 54, Type (0, 0), BuildingBlock: XUDNAN_clean_linker_2, # of connection points: 2
#     Edge 55, Type (0, 0), BuildingBlock: XUDNAN_clean_linker_2, # of connection points: 2
#     Edge 56, Type (0, 0), BuildingBlock: XUDNAN_clean_linker_2, # of connection points: 2
#     Edge 57, Type (0, 0), BuildingBlock: XUDNAN_clean_linker_2, # of connection points: 2
#     Edge 58, Type (0, 0), BuildingBlock: XUDNAN_clean_linker_2, # of connection points: 2
#     Edge 59, Type (0, 0), BuildingBlock: XUDNAN_clean_linker_2, # of connection points: 2
#     Edge 60, Type (0, 0), BuildingBlock: XUDNAN_clean_linker_2, # of connection points: 2
#     Edge 61, Type (0, 0), BuildingBlock: XUDNAN_clean_linker_2, # of connection points: 2
#     Edge 62, Type (0, 0), BuildingBlock: XUDNAN_clean_linker_2, # of connection points: 2
#     Edge 63, Type (0, 0), BuildingBlock: XUDNAN_clean_linker_2, # of connection points: 2
#     Edge 64, Type (0, 0), BuildingBlock: XUDNAN_clean_linker_2, # of connection points: 2
#     Edge 65, Type (0, 0), BuildingBlock: XUDNAN_clean_linker_2, # of connection points: 2
#     Edge 66, Type (0, 0), BuildingBlock: XUDNAN_clean_linker_2, # of connection points: 2
#     Edge 67, Type (0, 0), BuildingBlock: XUDNAN_clean_linker_2, # of connection points: 2
#     Edge 68, Type (0, 0), BuildingBlock: XUDNAN_clean_linker_2, # of connection points: 2
#     Edge 69, Type (0, 0), BuildingBlock: XUDNAN_clean_linker_2, # of connection points: 2
#     Edge 70, Type (0, 0), BuildingBlock: XUDNAN_clean_linker_2, # of connection points: 2
#     Edge 71, Type (0, 0), BuildingBlock: XUDNAN_clean_linker_2, # of connection points: 2
# Relax obj value: 0.436
# Max RMSD: 0.150
# Mean RMSD: 0.150
data_MOF--net-lcy-a--node1-GALJAG_clean_sbu_0--edge1-XUDNAN_clean_linker_2
_symmetry_space_group_name_H-M    P1
_symmetry_Int_Tables_number       1
_symmetry_cell_setting            triclinic
loop_
_symmetry_equiv_pos_as_xyz
'x, y, z'
_cell_length_a     56.056464
_cell_length_b     56.042196
_cell_length_c     56.051208
_cell_angle_alpha  90.013751
_cell_angle_beta   89.963178
_cell_angle_gamma 89.976084
loop_
_atom_site_label
_atom_site_type_symbol
_atom_site_fract_x
_atom_site_fract_y
_atom_site_fract_z
_atom_type_partial_charge
In0 In 0.18584 0.32263 0.39513 0.0
O1 O 0.19596 0.32104 0.43432 0.0
O2 O 0.18645 0.35482 0.41968 0.0
C3 C 0.22033 0.29053 0.38555 0.0
C4 C 0.14412 0.29915 0.39843 0.0
C5 C 0.19294 0.35622 0.36173 0.0
O6 O 0.2164 0.29812 0.40637 0.0
O7 O 0.20683 0.29904 0.36973 0.0
O8 O 0.17329 0.3453 0.36347 0.0
O9 O 0.20828 0.3506 0.37715 0.0
C10 C 0.1933 0.34316 0.4377 0.0
O11 O 0.14784 0.31865 0.40897 0.0
O12 O 0.16076 0.29257 0.3849 0.0
In13 In 0.98343 0.94709 0.64146 0.0
O14 O 0.99239 0.91353 0.66267 0.0
O15 O 0.01889 0.94041 0.65921 0.0
C16 C 0.95573 0.92946 0.60614 0.0
C17 C 0.95459 0.96475 0.67543 0.0
C18 C 0.01169 0.98118 0.62303 0.0
O19 O 0.97692 0.9225 0.6091 0.0
O20 O 0.94876 0.94463 0.62111 0.0
O21 O -0.00201 0.98463 0.64053 0.0
O22 O 0.01071 0.96048 0.61413 0.0
C23 C 0.01295 0.9208 0.66834 0.0
O24 O 0.96068 0.97655 0.65723 0.0
O25 O 0.9628 0.94379 0.67638 0.0
In26 In 0.29605 0.68 0.90271 0.0
O27 O 0.33611 0.68631 0.90385 0.0
O28 O 0.31672 0.69087 0.9359 0.0
C29 C 0.3002 0.67068 0.85598 0.0
C30 C 0.27384 0.6411 0.92061 0.0
C31 C 0.26891 0.71971 0.90165 0.0
O32 O 0.31231 0.65949 0.87139 0.0
O33 O 0.28632 0.68636 0.86426 0.0
O34 O 0.26086 0.6997 0.90817 0.0
O35 O 0.2906 0.71964 0.89572 0.0
C36 C 0.33643 0.69281 0.92533 0.0
O37 O 0.27556 0.66032 0.93215 0.0
O38 O 0.28409 0.64126 0.90065 0.0
In39 In 0.52615 0.00049 0.2067 0.0
O40 O 0.52036 0.03642 0.2234 0.0
O41 O 0.49854 0.00795 0.23584 0.0
C42 C 0.5506 0.017 0.16865 0.0
C43 C 0.56005 0.97942 0.23348 0.0
C44 C 0.48982 0.97797 0.18472 0.0
O45 O 0.53676 0.02994 0.18072 0.0
O46 O 0.5522 0.99574 0.1758 0.0
O47 O 0.50393 0.96732 0.19868 0.0
O48 O 0.49392 -9e-05 0.18212 0.0
C49 C 0.50348 0.02992 0.23675 0.0
O50 O 0.54514 0.96768 0.22139 0.0
O51 O 0.5574 0.00174 0.23262 0.0
In52 In 0.69573 0.17018 0.58655 0.0
O53 O 0.70486 0.16102 0.5482 0.0
O54 O 0.72928 0.15027 0.57524 0.0
C55 C 0.71978 0.21142 0.59334 0.0
C56 C 0.6502 0.17967 0.57471 0.0
C57 C 0.69264 0.13914 0.6231 0.0
O58 O 0.71177 0.2053 0.57326 0.0
O59 O 0.71586 0.19671 0.60988 0.0
O60 O 0.69189 0.16144 0.62586 0.0
O61 O 0.69425 0.13238 0.60171 0.0
C62 C 0.72414 0.1506 0.55329 0.0
O63 O 0.66159 0.16239 0.56599 0.0
O64 O 0.6615 0.19153 0.59006 0.0
In65 In 0.04368 0.44328 0.82547 0.0
O66 O 0.075 0.45483 0.80244 0.0
O67 O 0.06629 0.47622 0.8326 0.0
C68 C 0.00903 0.47447 0.83712 0.0
C69 C 0.02016 0.41881 0.79163 0.0
C70 C 0.06219 0.4145 0.85936 0.0
O71 O 0.01654 0.47209 0.81607 0.0
O72 O 0.01933 0.4615 0.85233 0.0
O73 O 0.04174 0.42366 0.86065 0.0
O74 O 0.07304 0.41867 0.84006 0.0
C75 C 0.07936 0.47335 0.81448 0.0
O76 O 0.03711 0.43273 0.78689 0.0
O77 O 0.0165 0.41564 0.81358 0.0
In78 In 0.77856 0.82013 0.0498 0.0
O79 O 0.8023 0.81236 0.01781 0.0
O80 O 0.80498 0.7898 0.04824 0.0
C81 C 0.7953 0.83744 0.0914 0.0
C82 C 0.76427 0.85386 0.0191 0.0
C83 C 0.74211 0.79116 0.06249 0.0
O84 O 0.80633 0.82168 0.07968 0.0
O85 O 0.77684 0.84536 0.08133 0.0
O86 O 0.7569 0.78569 0.04655 0.0
O87 O 0.74514 0.81154 0.07139 0.0
C88 C 0.81126 0.79387 0.02702 0.0
O89 O 0.75485 0.83345 0.01999 0.0
O90 O 0.78111 0.85734 0.03366 0.0
In91 In 0.49163 0.5396 0.36249 0.0
O92 O 0.52624 0.5536 0.34823 0.0
O93 O 0.49686 0.57771 0.34892 0.0
C94 C 0.45474 0.54014 0.39314 0.0
C95 C 0.47128 0.52341 0.32223 0.0
C96 C 0.525 0.51536 0.38643 0.0
O97 O 0.46788 0.55833 0.39052 0.0
O98 O 0.46034 0.52254 0.38039 0.0
O99 O 0.51707 0.50882 0.36636 0.0
O100 O 0.51589 0.53431 0.39469 0.0
C101 C 0.51827 0.57389 0.34282 0.0
O102 O 0.48089 0.50961 0.33721 0.0
O103 O 0.4721 0.54525 0.32749 0.0
In104 In 0.39967 0.21698 0.28665 0.0
O105 O 0.41318 0.24798 0.30938 0.0
O106 O 0.43624 0.21835 0.30392 0.0
C107 C 0.39389 0.24186 0.24587 0.0
C108 C 0.41186 0.17155 0.27688 0.0
C109 C 0.36014 0.21936 0.3137 0.0
O110 O 0.41206 0.244 0.25893 0.0
O111 O 0.37873 0.22694 0.25319 0.0
O112 O 0.35991 0.22292 0.29147 0.0
O113 O 0.3803 0.21417 0.32225 0.0
C114 C 0.43317 0.23847 0.31349 0.0
O115 O 0.39579 0.1766 0.29174 0.0
O116 O 0.42087 0.18924 0.26642 0.0
In117 In 0.04744 0.1635 0.53854 0.0
O118 O 0.0145 0.17935 0.55547 0.0
O119 O 0.04809 0.19487 0.5644 0.0
C120 C 0.0138 0.14403 0.51053 0.0
C121 C 0.07529 0.18552 0.50651 0.0
C122 C 0.06807 0.12929 0.56548 0.0
O123 O 0.0181 0.1661 0.51044 0.0
O124 O 0.02577 0.13209 0.52536 0.0
O125 O 0.07607 0.13501 0.54526 0.0
O126 O 0.051 0.14202 0.57259 0.0
C127 C 0.02568 0.19512 0.56704 0.0
O128 O 0.06792 0.1645 0.50378 0.0
O129 O 0.0701 0.19489 0.52631 0.0
In130 In 0.09031 0.80241 0.8274 0.0
O131 O 0.09375 0.84205 0.81844 0.0
O132 O 0.06035 0.82537 0.81318 0.0
C133 C 0.1325 0.80532 0.8502 0.0
C134 C 0.06364 0.78011 0.85998 0.0
C135 C 0.09269 0.77497 0.78767 0.0
O136 O 0.13022 0.81029 0.82839 0.0
O137 O 0.11344 0.79954 0.86062 0.0
O138 O 0.07354 0.77868 0.79874 0.0
O139 O 0.11076 0.7846 0.79689 0.0
C140 C 0.07279 0.84384 0.81063 0.0
O141 O 0.07647 0.76912 0.84501 0.0
O142 O 0.06466 0.80267 0.8589 0.0
In143 In 0.44688 0.85511 0.01997 0.0
O144 O 0.47777 0.82869 0.02222 0.0
O145 O 0.44859 0.82468 0.04637 0.0
C146 C 0.47007 0.88931 0.99583 0.0
C147 C 0.41971 0.82974 0.9899 0.0
C148 C 0.43586 0.88042 0.05896 0.0
O149 O 0.48043 0.87128 0.00451 0.0
O150 O 0.44783 0.8902 -0.00064 0.0
O151 O 0.42173 0.87957 0.04134 0.0
O152 O 0.45499 0.86885 0.05651 0.0
C153 C 0.46848 0.81703 0.03914 0.0
O154 O 0.41211 0.83605 0.01017 0.0
O155 O 0.43984 0.83795 0.98442 0.0
In156 In 0.87691 0.31567 0.67924 0.0
O157 O 0.88917 0.35427 0.67572 0.0
O158 O 0.88169 0.34097 0.71032 0.0
C159 C 0.83699 0.31923 0.65277 0.0
C160 C 0.913 0.29603 0.65436 0.0
C161 C 0.87197 0.28228 0.71353 0.0
O162 O 0.83695 0.32093 0.67519 0.0
O163 O 0.85743 0.31747 0.64352 0.0
O164 O 0.8547 0.29004 0.70141 0.0
O165 O 0.89183 0.29157 0.70859 0.0
C166 C 0.88972 0.3579 0.69791 0.0
O167 O 0.9147 0.31602 0.6645 0.0
O168 O 0.89289 0.28611 0.65632 0.0
In169 In 0.92912 0.63116 0.9526 0.0
O170 O 0.89414 0.64801 0.94125 0.0
O171 O 0.90116 0.64511 0.97833 0.0
C172 C 0.924 0.5967 0.91954 0.0
C173 C 0.95717 0.66784 0.93972 0.0
C174 C 0.95517 0.61089 0.98746 0.0
O175 O 0.92265 0.59263 0.94161 0.0
O176 O 0.92688 0.61832 0.91413 0.0
O177 O 0.96328 0.62621 0.97317 0.0
O178 O 0.93339 0.60588 0.9846 0.0
C179 C 0.8876 0.65293 0.96218 0.0
O180 O 0.95862 0.6475 0.93012 0.0
O181 O 0.94168 0.66962 0.95597 0.0
In182 In 0.58115 0.69227 0.17649 0.0
O183 O 0.55077 0.71614 0.16435 0.0
O184 O 0.56193 0.68782 0.14139 0.0
C185 C 0.59523 0.71162 0.21788 0.0
C186 C 0.56688 0.65173 0.19686 0.0
C187 C 0.61877 0.70415 0.14971 0.0
O188 O 0.57646 0.71866 0.20744 0.0
O189 O 0.60653 0.6953 0.20726 0.0
O190 O 0.60728 0.71894 0.16223 0.0
O191 O 0.61138 0.68281 0.15074 0.0
C192 C 0.54853 0.70568 0.14446 0.0
O193 O 0.58676 0.65338 0.18631 0.0
O194 O 0.55354 0.66974 0.19489 0.0
In195 In 0.54136 0.33946 0.47853 0.0
O196 O 0.54447 0.31345 0.44794 0.0
O197 O 0.51182 0.33264 0.45119 0.0
C198 C 0.50914 0.35805 0.50875 0.0
C199 C 0.5617 0.30225 0.50049 0.0
C200 C 0.56613 0.37738 0.46247 0.0
O201 O 0.53103 0.36321 0.50978 0.0
O202 O 0.50351 0.34363 0.49236 0.0
O203 O 0.56974 0.36883 0.48295 0.0
O204 O 0.55055 0.36666 0.45041 0.0
C205 C 0.5239 0.31737 0.43975 0.0
O206 O 0.57138 0.31268 0.48311 0.0
O207 O 0.54242 0.31124 0.50763 0.0
In208 In 0.31844 0.42614 0.19791 0.0
O209 O 0.34698 0.4316 0.22609 0.0
O210 O 0.34644 0.45549 0.19658 0.0
C211 C 0.28351 0.41945 0.23026 0.0
C212 C 0.29516 0.45375 0.16675 0.0
C213 C 0.33525 0.3836 0.18255 0.0
O214 O 0.30447 0.42515 0.23618 0.0
O215 O 0.28031 0.41695 0.20816 0.0
O216 O 0.31649 0.38582 0.19468 0.0
O217 O 0.3453 0.40303 0.17735 0.0
C218 C 0.35625 0.44941 0.2159 0.0
O219 O 0.30378 0.43373 0.16095 0.0
O220 O 0.29942 0.46023 0.18785 0.0
In221 In 0.8112 0.08752 0.7897 0.0
O222 O 0.83893 0.07575 0.76306 0.0
O223 O 0.83667 0.05595 0.79534 0.0
C224 C 0.77477 0.08377 0.75865 0.0
C225 C 0.78943 0.0795 0.83163 0.0
C226 C 0.82903 0.13194 0.78658 0.0
O227 O 0.79118 0.0684 0.75972 0.0
O228 O 0.77679 0.10079 0.77322 0.0
O229 O 0.80982 0.12557 0.77684 0.0
O230 O 0.83952 0.11581 0.79834 0.0
C231 C 0.84659 0.0585 0.77525 0.0
O232 O 0.80463 0.09587 0.82912 0.0
O233 O 0.78676 0.06631 0.81365 0.0
In234 In 0.13556 0.50124 0.02397 0.0
O235 O 0.14827 0.51377 0.98736 0.0
O236 O 0.16197 0.53155 0.01786 0.0
C237 C 0.12701 0.46014 0.00048 0.0
C238 C 0.16178 0.49317 0.06331 0.0
C239 C 0.09347 0.52285 0.03184 0.0
O240 O 0.11094 0.47118 0.01179 0.0
O241 O 0.14739 0.46958 0.00151 0.0
O242 O 0.0988 0.50332 0.04173 0.0
O243 O 0.10922 0.53116 0.01808 0.0
C244 C 0.162 0.52962 0.99547 0.0
O245 O 0.14831 0.51102 0.06139 0.0
O246 O 0.16094 0.47885 0.04605 0.0
In247 In 0.72502 0.845 0.29591 0.0
O248 O 0.69118 0.85835 0.27799 0.0
O249 O 0.71179 0.88332 0.2979 0.0
C250 C 0.75102 0.84373 0.25549 0.0
C251 C 0.75651 0.85761 0.32982 0.0
C252 C 0.69861 0.8062 0.30693 0.0
O253 O 0.73582 0.85979 0.25971 0.0
O254 O 0.75277 0.82793 0.27144 0.0
O255 O 0.7144 0.80615 0.29096 0.0
O256 O 0.69709 0.82544 0.31839 0.0
C257 C 0.69329 0.87946 0.28563 0.0
O258 O 0.7345 0.86166 0.33168 0.0
O259 O 0.76231 0.84569 0.31173 0.0
In260 In 0.32994 0.46071 0.55379 0.0
O261 O 0.3332 0.49444 0.57578 0.0
O262 O 0.3033 0.47202 0.58214 0.0
C263 C 0.3676 0.43362 0.567 0.0
C264 C 0.29082 0.43583 0.54196 0.0
C265 C 0.34486 0.48532 0.51511 0.0
O266 O 0.36406 0.45406 0.57571 0.0
O267 O 0.3517 0.42675 0.55279 0.0
O268 O 0.34739 0.46305 0.51702 0.0
O269 O 0.33413 0.49501 0.53227 0.0
C270 C 0.31355 0.4916 0.58635 0.0
O271 O 0.29825 0.4533 0.52981 0.0
O272 O 0.30301 0.43109 0.56031 0.0
In273 In 0.18197 0.62312 0.68836 0.0
O274 O 0.20309 0.6267 0.65401 0.0
O275 O 0.18461 0.59428 0.66003 0.0
C276 C 0.15029 0.65867 0.68122 0.0
C277 C 0.16205 0.5946 0.72142 0.0
C278 C 0.22266 0.6319 0.71222 0.0
O279 O 0.17253 0.66171 0.68124 0.0
O280 O 0.1439 0.63718 0.68295 0.0
O281 O 0.20658 0.64737 0.70932 0.0
O282 O 0.21823 0.61184 0.70306 0.0
C283 C 0.19911 0.60567 0.64718 0.0
O284 O 0.1712 0.61452 0.72649 0.0
O285 O 0.16241 0.58927 0.69952 0.0
In286 In 0.63648 0.01981 0.96775 0.0
O287 O 0.66987 0.00194 0.98238 0.0
O288 O 0.65583 0.98934 0.94941 0.0
C289 C 0.62413 0.03174 0.01245 0.0
C290 C 0.65814 0.053 0.94088 0.0
C291 C 0.59502 -0.00116 0.95559 0.0
O292 O 0.63531 0.01288 0.00739 0.0
O293 O 0.61953 0.04508 0.99488 0.0
O294 O 0.59725 0.02129 0.95549 0.0
O295 O 0.61364 0.98757 0.96103 0.0
C296 C 0.67163 0.98733 0.9653 0.0
O297 O 0.64355 0.03815 0.93235 0.0
O298 O 0.66033 0.05224 0.96322 0.0
In299 In 0.859 0.01393 0.44234 0.0
O300 O 0.86081 0.99578 0.40608 0.0
O301 O 0.82881 0.99291 0.42637 0.0
C302 C 0.89748 0.04208 0.43713 0.0
C303 C 0.82771 0.04601 0.4594 0.0
C304 C 0.87147 0.97741 0.47075 0.0
O305 O 0.87974 0.04389 0.42342 0.0
O306 O 0.89583 0.02591 0.45258 0.0
O307 O 0.88059 0.9807 0.45043 0.0
O308 O 0.85583 0.99255 0.47674 0.0
C309 C 0.84021 0.98688 0.40795 0.0
O310 O 0.84044 0.03314 0.4728 0.0
O311 O 0.83052 0.04244 0.43733 0.0
H312 H 0.08479 0.23323 0.50548 0.0
H313 H 0.08727 0.16893 0.46234 0.0
H314 H 0.09876 0.19294 0.42724 0.0
H315 H 0.06081 0.27227 0.45972 0.0
H316 H 0.07856 0.29747 0.4689 0.0
H317 H 0.06954 0.27542 0.49051 0.0
H318 H 0.11369 0.26828 0.50252 0.0
H319 H 0.12266 0.29081 0.48155 0.0
H320 H 0.13526 0.26127 0.4797 0.0
H321 H 0.11185 0.22343 0.39764 0.0
H322 H 0.13108 0.25735 0.37721 0.0
H323 H 0.11817 0.3019 0.43919 0.0
C324 C 0.08792 0.22418 0.48869 0.0
C325 C 0.08523 0.19928 0.48656 0.0
C326 C 0.08935 0.18805 0.46431 0.0
C327 C 0.09559 0.20154 0.44424 0.0
C328 C 0.09738 0.22619 0.44676 0.0
C329 C 0.09396 0.23737 0.46848 0.0
C330 C 0.09838 0.26389 0.46677 0.0
C331 C 0.07545 0.27809 0.47177 0.0
C332 C 0.11871 0.2715 0.48362 0.0
C333 C 0.1056 0.26579 0.44084 0.0
C334 C 0.10449 0.24391 0.42949 0.0
C335 C 0.11247 0.24074 0.40617 0.0
C336 C 0.12322 0.26013 0.39466 0.0
C337 C 0.1259 0.28221 0.4066 0.0
C338 C 0.11582 0.28538 0.42943 0.0
H339 H -0.00176 0.88703 0.70009 0.0
H340 H 0.05843 0.93196 0.68125 0.0
H341 H 0.07872 0.92044 0.7186 0.0
H342 H -0.00176 0.90036 0.76197 0.0
H343 H 0.99051 0.87057 0.7713 0.0
H344 H 0.98096 0.88139 0.74258 0.0
H345 H 0.00149 0.84563 0.72148 0.0
H346 H 0.01032 0.83429 0.75018 0.0
H347 H 0.03249 0.83949 0.72746 0.0
H348 H 0.09188 0.90487 0.75835 0.0
H349 H 0.09977 0.88123 0.79468 0.0
H350 H 0.03023 0.84789 0.78791 0.0
C351 C 0.01591 0.89403 0.70358 0.0
C352 C 0.02685 0.91027 0.68784 0.0
C353 C 0.04982 0.91936 0.69312 0.0
C354 C 0.06137 0.91314 0.71436 0.0
C355 C 0.04959 0.89793 0.73005 0.0
C356 C 0.02758 0.88817 0.72474 0.0
C357 C 0.01889 0.87204 0.74449 0.0
C358 C 0.99578 0.88168 0.75574 0.0
C359 C 0.01562 0.84634 0.73536 0.0
C360 C 0.03962 0.874 0.76159 0.0
C361 C 0.05702 0.88925 0.7531 0.0
C362 C 0.07837 0.89295 0.76527 0.0
C363 C 0.08259 0.87964 0.786 0.0
C364 C 0.06558 0.86282 0.79407 0.0
C365 C 0.04343 0.86084 0.78231 0.0
H366 H 0.33684 0.717 0.96752 0.0
H367 H 0.37875 0.70343 0.90379 0.0
H368 H 0.40487 0.73736 0.91382 0.0
H369 H 0.33568 0.77745 0.9629 0.0
H370 H 0.33843 0.78422 0.99422 0.0
H371 H 0.32543 0.75638 0.98494 0.0
H372 H 0.35636 0.73262 0.00973 0.0
H373 H 0.36895 0.7604 0.01987 0.0
H374 H 0.38773 0.73847 0.00569 0.0
H375 H 0.42203 0.77606 0.92697 0.0
H376 H 0.43446 0.81329 0.94672 0.0
H377 H 0.38137 0.80185 0.002 0.0
C378 C 0.3521 0.72054 0.95621 0.0
C379 C 0.35583 0.70762 0.9349 0.0
C380 C 0.3757 0.71304 0.92029 0.0
C381 C 0.39051 0.73238 0.92574 0.0
C382 C 0.3853 0.74582 0.94597 0.0
C383 C 0.36702 0.73979 0.96137 0.0
C384 C 0.36435 0.75802 0.98114 0.0
C385 C 0.3395 0.7697 0.98076 0.0
C386 C 0.36968 0.7467 0.00555 0.0
C387 C 0.38352 0.7756 0.97402 0.0
C388 C 0.39535 0.76821 0.95367 0.0
C389 C 0.4132 0.78184 0.94314 0.0
C390 C 0.41994 0.80308 0.95436 0.0
C391 C 0.40886 0.81041 0.97588 0.0
C392 C 0.39004 0.79675 0.98549 0.0
H393 H 0.50841 0.07785 0.23546 0.0
H394 H 0.46444 0.02159 0.26535 0.0
H395 H 0.43618 0.05204 0.28064 0.0
H396 H 0.49798 0.12304 0.28171 0.0
H397 H 0.49741 0.14678 0.26003 0.0
H398 H 0.51537 0.12065 0.25475 0.0
H399 H 0.49388 0.11439 0.21426 0.0
H400 H 0.47551 0.14016 0.21961 0.0
H401 H 0.46184 0.11166 0.21368 0.0
H402 H 0.41139 0.08914 0.28996 0.0
H403 H 0.39301 0.12931 0.29319 0.0
H404 H 0.45286 0.15951 0.25449 0.0
C405 C 0.49318 0.07189 0.24576 0.0
C406 C 0.48864 0.04745 0.24942 0.0
C407 C 0.46829 0.04033 0.26258 0.0
C408 C 0.45216 0.05746 0.27124 0.0
C409 C 0.45674 0.08146 0.26646 0.0
C410 C 0.47688 0.08859 0.25414 0.0
C411 C 0.47703 0.11511 0.24961 0.0
C412 C 0.4982 0.1271 0.26229 0.0
C413 C 0.47706 0.12063 0.2227 0.0
C414 C 0.45364 0.12185 0.261 0.0
C415 C 0.44222 0.10236 0.27088 0.0
C416 C 0.42023 0.10452 0.28234 0.0
C417 C 0.40988 0.1273 0.28398 0.0
C418 C 0.42146 0.14735 0.27389 0.0
C419 C 0.44347 0.14445 0.26215 0.0
H420 H 0.62177 0.21512 0.5917 0.0
H421 H 0.63013 0.16564 0.53279 0.0
H422 H 0.60215 0.18948 0.50882 0.0
H423 H 0.55608 0.23237 0.57744 0.0
H424 H 0.56199 0.26264 0.58657 0.0
H425 H 0.57685 0.23819 0.60128 0.0
H426 H 0.61751 0.25792 0.59184 0.0
H427 H 0.60302 0.28194 0.57642 0.0
H428 H 0.62524 0.26429 0.56125 0.0
H429 H 0.58481 0.22393 0.48799 0.0
H430 H 0.57128 0.26345 0.47378 0.0
H431 H 0.57104 0.28982 0.54641 0.0
C432 C 0.61669 0.20867 0.57421 0.0
C433 C 0.62808 0.1887 0.56399 0.0
C434 C 0.62144 0.18085 0.54096 0.0
C435 C 0.60559 0.19432 0.52719 0.0
C436 C 0.59614 0.21509 0.53705 0.0
C437 C 0.60069 0.2218 0.56037 0.0
C438 C 0.5907 0.24635 0.5657 0.0
C439 C 0.57018 0.24479 0.58382 0.0
C440 C 0.6103 0.26362 0.57429 0.0
C441 C 0.58161 0.25314 0.54126 0.0
C442 C 0.58478 0.23479 0.52503 0.0
C443 C 0.58128 0.23808 0.50064 0.0
C444 C 0.57399 0.26058 0.49271 0.0
C445 C 0.57007 0.27924 0.50917 0.0
C446 C 0.57354 0.27546 0.53371 0.0
H447 H 0.89832 0.36493 0.74507 0.0
H448 H 0.91723 0.39076 0.67459 0.0
H449 H 0.95254 0.41085 0.69149 0.0
H450 H 0.92239 0.41764 0.77989 0.0
H451 H 0.93245 0.39811 0.80337 0.0
H452 H 0.90611 0.3907 0.7865 0.0
H453 H 0.92491 0.34967 0.77644 0.0
H454 H 0.95169 0.35725 0.79235 0.0
H455 H 0.95335 0.34857 0.76142 0.0
H456 H 0.98937 0.42142 0.71458 0.0
H457 H 0.02179 0.42785 0.74374 0.0
H458 H 0.97902 0.39387 0.79865 0.0
C459 C 0.90925 0.37575 0.73336 0.0
C460 C 0.90508 0.37633 0.70855 0.0
C461 C 0.92001 0.39028 0.6937 0.0
C462 C 0.94022 0.40158 0.70311 0.0
C463 C 0.94493 0.39896 0.72737 0.0
C464 C 0.92951 0.38695 0.74243 0.0
C465 C 0.93965 0.3848 0.76734 0.0
C466 C 0.92424 0.39865 0.78533 0.0
C467 C 0.94257 0.35851 0.7748 0.0
C468 C 0.96356 0.39664 0.76371 0.0
C469 C 0.96625 0.40482 0.74061 0.0
C470 C 0.9873 0.41549 0.73284 0.0
C471 C 0.00571 0.41877 0.74942 0.0
C472 C 0.00289 0.41129 0.7734 0.0
C473 C 0.98172 0.39968 0.78042 0.0
H474 H 0.83339 0.75396 0.04354 0.0
H475 H 0.81647 0.79254 0.97857 0.0
H476 H 0.83042 0.7582 0.95463 0.0
H477 H 0.88714 0.72562 0.02124 0.0
H478 H 0.88162 0.69847 0.03757 0.0
H479 H 0.87085 0.72649 0.04897 0.0
H480 H 0.82814 0.70873 0.05076 0.0
H481 H 0.83869 0.68092 0.03856 0.0
H482 H 0.81485 0.69684 0.024 0.0
H483 H 0.84425 0.71896 0.93804 0.0
H484 H 0.86436 0.6807 0.92964 0.0
H485 H 0.87221 0.66821 0.00566 0.0
C486 C 0.83301 0.75535 0.02427 0.0
C487 C 0.82389 0.77581 0.01284 0.0
C488 C 0.82359 0.77702 0.98762 0.0
C489 C 0.83118 0.75753 0.97391 0.0
C490 C 0.83906 0.73717 0.98578 0.0
C491 C 0.84055 0.73617 0.01036 0.0
C492 C 0.85033 0.71251 0.01877 0.0
C493 C 0.87389 0.71598 0.03243 0.0
C494 C 0.83189 0.69896 0.03392 0.0
C495 C 0.85428 0.70037 0.99503 0.0
C496 C 0.84729 0.71471 0.97624 0.0
C497 C 0.84983 0.70756 0.95259 0.0
C498 C 0.86105 0.6857 0.94801 0.0
C499 C 0.86981 0.67156 0.96703 0.0
C500 C 0.86549 0.67857 0.9908 0.0
H501 H 0.52543 0.64425 0.22107 0.0
H502 H 0.59905 0.6207 0.21611 0.0
H503 H 0.59521 0.60073 0.25514 0.0
H504 H 0.52549 0.65845 0.28101 0.0
H505 H 0.49593 0.64762 0.28756 0.0
H506 H 0.5031 0.65779 0.25794 0.0
H507 H 0.49027 0.61716 0.23989 0.0
H508 H 0.48205 0.60726 0.26933 0.0
H509 H 0.50272 0.58997 0.25176 0.0
H510 H 0.58481 0.58732 0.29626 0.0
H511 H 0.56573 0.57316 0.33332 0.0
H512 H 0.49899 0.60579 0.31156 0.0
C513 C 0.54049 0.6342 0.22783 0.0
C514 C 0.56253 0.63398 0.21563 0.0
C515 C 0.58193 0.62086 0.22508 0.0
C516 C 0.58002 0.60976 0.24737 0.0
C517 C 0.55853 0.61175 0.25969 0.0
C518 C 0.53887 0.62297 0.24996 0.0
C519 C 0.5179 0.62271 0.26697 0.0
C520 C 0.51017 0.64816 0.27376 0.0
C521 C 0.49701 0.60841 0.25636 0.0
C522 C 0.52898 0.60993 0.28796 0.0
C523 C 0.55249 0.60397 0.28345 0.0
C524 C 0.56637 0.59172 0.29996 0.0
C525 C 0.55548 0.58401 0.32104 0.0
C526 C 0.53099 0.58854 0.32527 0.0
C527 C 0.51787 0.60252 0.30899 0.0
H528 H 0.27744 0.43938 0.12391 0.0
H529 H 0.273 0.49606 0.1765 0.0
H530 H 0.23823 0.51296 0.15536 0.0
H531 H 0.25808 0.47542 0.07194 0.0
H532 H 0.2417 0.45072 0.05947 0.0
H533 H 0.26801 0.44525 0.07709 0.0
H534 H 0.24329 0.41758 0.10473 0.0
H535 H 0.21678 0.42344 0.08762 0.0
H536 H 0.21702 0.42916 0.11926 0.0
H537 H 0.20166 0.52126 0.13067 0.0
H538 H 0.16817 0.52244 0.10192 0.0
H539 H 0.19644 0.45948 0.06672 0.0
C540 C 0.26961 0.45574 0.13058 0.0
C541 C 0.2779 0.4665 0.15172 0.0
C542 C 0.26695 0.48766 0.16018 0.0
C543 C 0.24716 0.49732 0.14838 0.0
C544 C 0.23873 0.48562 0.12816 0.0
C545 C 0.24983 0.46552 0.11912 0.0
C546 C 0.23656 0.45554 0.09792 0.0
C547 C 0.25201 0.45682 0.07526 0.0
C548 C 0.2279 0.42992 0.10269 0.0
C549 C 0.21595 0.47283 0.09679 0.0
C550 C 0.21753 0.49014 0.11426 0.0
C551 C 0.20031 0.50791 0.11679 0.0
C552 C 0.1813 0.50833 0.10055 0.0
C553 C 0.17973 0.49099 0.08225 0.0
C554 C 0.1971 0.47287 0.08065 0.0
H555 H 0.66879 0.04318 0.89481 0.0
H556 H 0.68828 0.08913 0.95393 0.0
H557 H 0.72424 0.10214 0.93184 0.0
H558 H 0.72506 0.0217 0.88515 0.0
H559 H 0.72287 0.01974 0.85312 0.0
H560 H 0.69641 0.01752 0.87116 0.0
H561 H 0.67694 0.05272 0.84833 0.0
H562 H 0.70303 0.05457 0.82964 0.0
H563 H 0.69282 0.08056 0.84562 0.0
H564 H 0.76016 0.10683 0.90471 0.0
H565 H 0.79157 0.10472 0.8736 0.0
H566 H 0.74915 0.05299 0.83465 0.0
C567 C 0.68007 0.05674 0.90271 0.0
C568 C 0.67565 0.06546 0.92587 0.0
C569 C 0.69126 0.08252 0.93601 0.0
C570 C 0.71176 0.08989 0.92367 0.0
C571 C 0.71632 0.07986 0.90138 0.0
C572 C 0.70075 0.06383 0.89091 0.0
C573 C 0.7107 0.05384 0.86795 0.0
C574 C 0.71395 0.02659 0.86946 0.0
C575 C 0.69494 0.06085 0.84662 0.0
C576 C 0.73444 0.06648 0.86726 0.0
C577 C 0.73736 0.08159 0.88651 0.0
C578 C 0.75801 0.09513 0.8895 0.0
C579 C 0.77581 0.09367 0.87191 0.0
C580 C 0.77284 0.07853 0.85192 0.0
C581 C 0.75207 0.06451 0.8499 0.0
H582 H 0.74785 0.88894 0.36586 0.0
H583 H 0.80489 0.85714 0.32419 0.0
H584 H 0.83298 0.88727 0.33971 0.0
H585 H 0.76256 0.94713 0.35504 0.0
H586 H 0.75548 0.95847 0.38429 0.0
H587 H 0.7405 0.93235 0.37319 0.0
H588 H 0.75409 0.90787 0.41001 0.0
H589 H 0.76838 0.93417 0.4217 0.0
H590 H 0.78527 0.90707 0.41783 0.0
H591 H 0.85321 0.92412 0.35521 0.0
H592 H 0.86601 0.96122 0.37542 0.0
H593 H 0.79542 0.96856 0.40644 0.0
C594 C 0.76644 0.88776 0.36069 0.0
C595 C 0.77425 0.87076 0.34389 0.0
C596 C 0.79861 0.86997 0.33721 0.0
C597 C 0.81464 0.88711 0.34577 0.0
C598 C 0.80599 0.90461 0.36113 0.0
C599 C 0.78261 0.90469 0.36901 0.0
C600 C 0.77744 0.92611 0.38454 0.0
C601 C 0.75784 0.94194 0.3736 0.0
C602 C 0.77092 0.91834 0.41003 0.0
C603 C 0.80141 0.93831 0.38374 0.0
C604 C 0.81764 0.92574 0.37009 0.0
C605 C 0.84077 0.93398 0.36622 0.0
C606 C 0.84778 0.95517 0.3775 0.0
C607 C 0.83167 0.96763 0.39244 0.0
C608 C 0.80809 0.95934 0.39511 0.0
H609 H 0.19915 0.55842 0.63568 0.0
H610 H 0.23672 0.62495 0.62301 0.0
H611 H 0.27085 0.6025 0.60666 0.0
H612 H 0.24665 0.52689 0.65664 0.0
H613 H 0.23944 0.49874 0.64286 0.0
H614 H 0.21607 0.51965 0.6498 0.0
H615 H 0.20201 0.51995 0.60576 0.0
H616 H 0.22469 0.49823 0.59884 0.0
H617 H 0.22331 0.52582 0.58238 0.0
H618 H 0.30299 0.57288 0.59786 0.0
H619 H 0.3282 0.53795 0.58873 0.0
H620 H 0.26956 0.49085 0.60727 0.0
C621 C 0.21413 0.56833 0.62855 0.0
C622 C 0.21534 0.59339 0.63061 0.0
C623 C 0.2354 0.60573 0.62146 0.0
C624 C 0.25496 0.59313 0.61236 0.0
C625 C 0.25394 0.56832 0.6123 0.0
C626 C 0.23378 0.55604 0.61945 0.0
C627 C 0.23767 0.52934 0.61862 0.0
C628 C 0.23478 0.51801 0.64346 0.0
C629 C 0.22093 0.51765 0.6003 0.0
C630 C 0.26335 0.52856 0.61044 0.0
C631 C 0.27244 0.55121 0.60703 0.0
C632 C 0.29598 0.55503 0.6001 0.0
C633 C 0.31025 0.53509 0.59527 0.0
C634 C 0.30079 0.51174 0.59729 0.0
C635 C 0.27728 0.50849 0.60567 0.0
H636 H 0.26018 0.44489 0.50545 0.0
H637 H 0.27658 0.39296 0.5604 0.0
H638 H 0.24686 0.36538 0.54317 0.0
H639 H 0.1946 0.42928 0.49939 0.0
H640 H 0.19573 0.43404 0.4676 0.0
H641 H 0.21445 0.45142 0.48715 0.0
H642 H 0.25174 0.43798 0.46326 0.0
H643 H 0.23325 0.42056 0.4438 0.0
H644 H 0.25756 0.40655 0.45951 0.0
H645 H 0.22195 0.34087 0.51558 0.0
H646 H 0.2029 0.32199 0.48059 0.0
H647 H 0.20151 0.39041 0.44453 0.0
C648 C 0.25695 0.42802 0.51429 0.0
C649 C 0.27058 0.42101 0.53422 0.0
C650 C 0.26617 0.3987 0.54517 0.0
C651 C 0.24927 0.38296 0.53556 0.0
C652 C 0.2367 0.39005 0.51531 0.0
C653 C 0.24007 0.41224 0.50503 0.0
C654 C 0.22641 0.4146 0.48191 0.0
C655 C 0.20662 0.43345 0.48416 0.0
C656 C 0.24325 0.42023 0.4609 0.0
C657 C 0.21605 0.38979 0.47998 0.0
C658 C 0.2218 0.37599 0.49961 0.0
C659 C 0.21672 0.35165 0.50045 0.0
C660 C 0.206 0.34106 0.48048 0.0
C661 C 0.20055 0.35485 0.46005 0.0
C662 C 0.20496 0.3796 0.46017 0.0
H663 H 0.93236 0.00788 0.67493 0.0
H664 H 0.94249 0.94459 0.71834 0.0
H665 H 0.91727 0.96242 0.75 0.0
H666 H 0.93351 0.05077 0.72258 0.0
H667 H 0.91076 0.06928 0.7094 0.0
H668 H 0.93002 0.05167 0.69062 0.0
H669 H 0.89311 0.03164 0.67121 0.0
H670 H 0.87376 0.04928 0.68981 0.0
H671 H 0.8713 0.01722 0.68995 0.0
H672 H 0.89032 0.98741 0.77668 0.0
H673 H 0.8626 0.01659 0.79508 0.0
H674 H 0.8707 0.06275 0.73347 0.0
C675 C 0.92935 -0.00222 0.6911 0.0
C676 C 0.93936 0.97493 0.69427 0.0
C677 C 0.9349 0.96219 0.71562 0.0
C678 C 0.92071 0.97216 0.7337 0.0
C679 C 0.91115 0.99484 0.73003 0.0
C680 C 0.91523 0.0074 0.70919 0.0
C681 C 0.90243 0.0311 0.7092 0.0
C682 C 0.92025 0.05193 0.70788 0.0
C683 C 0.88406 0.03237 0.68884 0.0
C684 C 0.89042 0.02995 0.73328 0.0
C685 C 0.8957 0.009 0.74516 0.0
C686 C 0.88613 0.00391 0.76757 0.0
C687 C 0.87048 0.02057 0.77791 0.0
C688 C 0.86458 0.04188 0.76571 0.0
C689 C 0.87495 0.04664 0.74328 0.0
H690 H 0.25203 0.63518 0.96402 0.0
H691 H 0.26166 0.60178 0.89479 0.0
H692 H 0.23363 0.56985 0.90629 0.0
H693 H 0.24833 0.57986 -0.00203 0.0
H694 H 0.22615 0.59141 0.01821 0.0
H695 H 0.24741 0.61132 0.00465 0.0
H696 H 0.21269 0.63705 0.98821 0.0
H697 H 0.19132 0.61708 0.0015 0.0
H698 H 0.19009 0.62326 0.96996 0.0
H699 H 0.20274 0.54307 0.92423 0.0
H700 H 0.17406 0.52071 0.94918 0.0
H701 H 0.18583 0.5705 0.0073 0.0
C702 C 0.24844 0.62099 0.95141 0.0
C703 C 0.25899 0.62091 0.92854 0.0
C704 C 0.25383 0.6021 0.91246 0.0
C705 C 0.23787 0.58395 0.91877 0.0
C706 C 0.22741 0.58478 0.94129 0.0
C707 C 0.23272 0.6026 0.9575 0.0
C708 C 0.2191 0.59922 0.98059 0.0
C709 C 0.23627 0.59521 0.00159 0.0
C710 C 0.2023 0.62042 0.98533 0.0
C711 C 0.20523 0.5768 0.97475 0.0
C712 C 0.2101 0.56891 0.9519 0.0
C713 C 0.19892 0.54893 0.94223 0.0
C714 C 0.1826 0.53644 0.95646 0.0
C715 C 0.17787 0.54386 0.98013 0.0
C716 C 0.18926 0.56437 0.98929 0.0
H717 H 0.5728 0.93239 0.23244 0.0
H718 H 0.5933 0.00103 0.26182 0.0
H719 H 0.62929 0.98268 0.27947 0.0
H720 H 0.59409 0.89578 0.28206 0.0
H721 H 0.60435 0.87227 0.26265 0.0
H722 H 0.5794 0.89056 0.25394 0.0
H723 H 0.60116 0.90132 0.21456 0.0
H724 H 0.62625 0.88325 0.22324 0.0
H725 H 0.63059 0.91424 0.2158 0.0
H726 H 0.66405 0.9572 0.29205 0.0
H727 H 0.69461 0.92625 0.29949 0.0
H728 H 0.65141 0.8746 0.26127 0.0
C729 C 0.58466 0.94349 0.24294 0.0
C730 C 0.58025 0.96809 0.24591 0.0
C731 C 0.59633 0.98211 0.25945 0.0
C732 C 0.6168 0.97185 0.2695 0.0
C733 C 0.62087 0.9476 0.26584 0.0
C734 C 0.60518 0.93357 0.25298 0.0
C735 C 0.61413 0.9082 0.25081 0.0
C736 C 0.59697 0.89067 0.26311 0.0
C737 C 0.61828 0.90137 0.22454 0.0
C738 C 0.63743 0.91019 0.26424 0.0
C739 C 0.64096 0.93302 0.27286 0.0
C740 C 0.66143 0.93923 0.28551 0.0
C741 C 0.67867 0.92156 0.28957 0.0
C742 C 0.67533 0.89807 0.28091 0.0
C743 C 0.65444 0.89239 0.26807 0.0
H744 H 0.76201 0.12082 0.56066 0.0
H745 H 0.71908 0.15307 0.5049 0.0
H746 H 0.7421 0.13097 0.47444 0.0
H747 H 0.81837 0.11983 0.52783 0.0
H748 H 0.82706 0.09134 0.53998 0.0
H749 H 0.80837 0.11111 0.55713 0.0
H750 H 0.77681 0.07757 0.56136 0.0
H751 H 0.79531 0.05776 0.54411 0.0
H752 H 0.76505 0.06355 0.53491 0.0
H753 H 0.76858 0.10398 0.45028 0.0
H754 H 0.7966 0.0739 0.4342 0.0
H755 H 0.82141 0.05883 0.50597 0.0
C756 C 0.75769 0.12349 0.54202 0.0
C757 C 0.73888 0.13869 0.53507 0.0
C758 C 0.7335 0.14151 0.51055 0.0
C759 C 0.74647 0.12908 0.49314 0.0
C760 C 0.76469 0.11392 0.50061 0.0
C761 C 0.77033 0.11112 0.52445 0.0
C762 C 0.78996 0.09291 0.52786 0.0
C763 C 0.81226 0.1045 0.53884 0.0
C764 C 0.78125 0.07169 0.54295 0.0
C765 C 0.79426 0.08567 0.50222 0.0
C766 C 0.77966 0.09811 0.48675 0.0
C767 C 0.78019 0.09419 0.46221 0.0
C768 C 0.7961 0.07707 0.45325 0.0
C769 C 0.81109 0.06405 0.46886 0.0
C770 C 0.81013 0.0685 0.49362 0.0
H771 H 0.14596 0.54893 0.71546 0.0
H772 H 0.1562 0.60407 0.76886 0.0
H773 H 0.13961 0.57728 0.79968 0.0
H774 H 0.0908 0.52788 0.7367 0.0
H775 H 0.09687 0.49694 0.73029 0.0
H776 H 0.111 0.51994 0.71294 0.0
H777 H 0.15247 0.50229 0.72337 0.0
H778 H 0.13842 0.47931 0.74094 0.0
H779 H 0.16068 0.49834 0.75421 0.0
H780 H 0.1191 0.54573 0.8239 0.0
H781 H 0.09557 0.51188 0.83958 0.0
H782 H 0.10015 0.47692 0.77066 0.0
C783 C 0.14484 0.55531 0.73367 0.0
C784 C 0.15228 0.57856 0.73981 0.0
C785 C 0.15057 0.58629 0.7638 0.0
C786 C 0.14128 0.57119 0.78144 0.0
C787 C 0.13406 0.54835 0.77479 0.0
C788 C 0.13581 0.54041 0.7515 0.0
C789 C 0.12589 0.51546 0.74884 0.0
C790 C 0.10489 0.51505 0.73116 0.0
C791 C 0.14554 0.49781 0.7414 0.0
C792 C 0.11766 0.51086 0.77413 0.0
C793 C 0.12271 0.52997 0.78888 0.0
C794 C 0.11536 0.53051 0.81263 0.0
C795 C 0.10203 0.51123 0.82137 0.0
C796 C 0.09628 0.49175 0.80638 0.0
C797 C 0.10468 0.49138 0.78265 0.0
H798 H 0.70831 0.98031 -0.00344 0.0
H799 H 0.67397 0.94997 0.93421 0.0
H800 H 0.69924 0.91411 0.93771 0.0
H801 H 0.76932 0.9535 0.98516 0.0
H802 H 0.77404 0.94878 0.01661 0.0
H803 H 0.75647 0.97379 0.00658 0.0
H804 H 0.72136 0.95972 0.03319 0.0
H805 H 0.73868 0.93467 0.04314 0.0
H806 H 0.70991 0.92987 0.02963 0.0
H807 H 0.72175 0.87901 0.95257 0.0
H808 H 0.74229 0.84802 0.97627 0.0
H809 H 0.76402 0.90161 0.02759 0.0
C810 C 0.70666 0.96643 0.98322 0.0
C811 C 0.68926 0.96785 0.96512 0.0
C812 C 0.68731 0.94925 0.94815 0.0
C813 C 0.70162 0.92884 0.94996 0.0
C814 C 0.71806 0.92759 0.96855 0.0
C815 C 0.72097 0.94606 0.98464 0.0
C816 C 0.73824 0.93934 0.00428 0.0
C817 C 0.76086 0.95477 0.00307 0.0
C818 C 0.72632 0.94099 0.029 0.0
C819 C 0.74351 0.91376 -0.00254 0.0
C820 C 0.73189 0.9074 0.97665 0.0
C821 C 0.73156 0.88392 0.96845 0.0
C822 C 0.74313 0.86645 0.98205 0.0
C823 C 0.75498 0.87265 0.00342 0.0
C824 C 0.75567 0.89664 0.01089 0.0
H825 H 0.38298 0.43675 0.25452 0.0
H826 H 0.37467 0.49199 0.20093 0.0
H827 H 0.40647 0.51556 0.22033 0.0
H828 H 0.39097 0.47444 0.30313 0.0
H829 H 0.41289 0.45611 0.31787 0.0
H830 H 0.39126 0.44262 0.29841 0.0
H831 H 0.4253 0.4237 0.27341 0.0
H832 H 0.44709 0.43714 0.29285 0.0
H833 H 0.44833 0.44253 0.26117 0.0
H834 H 0.43546 0.53502 0.24822 0.0
H835 H 0.46088 0.54826 0.28176 0.0
H836 H 0.45164 0.47945 0.31593 0.0
C837 C 0.38812 0.45363 0.24666 0.0
C838 C 0.37643 0.46261 0.22627 0.0
C839 C 0.38351 0.4848 0.21652 0.0
C840 C 0.40156 0.49827 0.22738 0.0
C841 C 0.4125 0.48908 0.24772 0.0
C842 C 0.40622 0.46716 0.25712 0.0
C843 C 0.41983 0.46186 0.2798 0.0
C844 C 0.40272 0.45858 0.30105 0.0
C845 C 0.4361 0.44001 0.27661 0.0
C846 C 0.43421 0.48455 0.28211 0.0
C847 C 0.42981 0.5 0.26339 0.0
C848 C 0.43945 0.5229 0.26271 0.0
C849 C 0.45377 0.53028 0.28182 0.0
C850 C 0.45837 0.51472 0.30115 0.0
C851 C 0.44883 0.49146 0.30105 0.0
H852 H 0.48027 0.32242 0.41802 0.0
H853 H 0.54716 0.28352 0.41386 0.0
H854 H 0.53197 0.26099 0.37931 0.0
H855 H 0.44265 0.27379 0.40444 0.0
H856 H 0.42187 0.29084 0.38679 0.0
H857 H 0.4385 0.30517 0.41021 0.0
H858 H 0.45471 0.33612 0.37992 0.0
H859 H 0.43811 0.32186 0.35637 0.0
H860 H 0.46987 0.32592 0.35343 0.0
H861 H 0.50896 0.24083 0.34729 0.0
H862 H 0.47931 0.22442 0.31921 0.0
H863 H 0.42751 0.27674 0.34336 0.0
C864 C 0.49177 0.30934 0.40967 0.0
C865 C 0.51487 0.30471 0.41857 0.0
C866 C 0.52938 0.28736 0.40729 0.0
C867 C 0.52097 0.2745 0.38763 0.0
C868 C 0.49806 0.27932 0.37939 0.0
C869 C 0.48367 0.29636 0.38994 0.0
C870 C 0.45942 0.29737 0.37807 0.0
C871 C 0.43944 0.29143 0.39594 0.0
C872 C 0.4553 0.32177 0.36624 0.0
C873 C 0.46231 0.27786 0.35959 0.0
C874 C 0.48479 0.2678 0.36059 0.0
C875 C 0.49137 0.24871 0.34611 0.0
C876 C 0.47442 0.23949 0.33028 0.0
C877 C 0.45123 0.24942 0.32907 0.0
C878 C 0.44523 0.26902 0.34373 0.0
H879 H 0.97858 0.19547 0.57882 0.0
H880 H 0.04461 0.23464 0.58871 0.0
H881 H 0.02287 0.26513 0.61219 0.0
H882 H 0.94046 0.24559 0.57167 0.0
H883 H 0.9159 0.23251 0.58779 0.0
H884 H 0.93677 0.21363 0.57228 0.0
H885 H 0.9453 0.19051 0.61143 0.0
H886 H 0.92433 0.20922 0.62703 0.0
H887 H 0.95457 0.2067 0.63763 0.0
H888 H 0.99345 0.29191 0.63334 0.0
H889 H 0.95905 0.3119 0.65242 0.0
H890 H 0.91276 0.25444 0.629 0.0
C891 C 0.9885 0.21041 0.586 0.0
C892 C 0.01322 0.2128 0.58195 0.0
C893 C 0.02563 0.23252 0.59168 0.0
C894 C 0.01345 0.24991 0.60496 0.0
C895 C 0.98897 0.24713 0.6084 0.0
C896 C 0.97669 0.22776 0.59936 0.0
C897 C 0.95048 0.22883 0.6056 0.0
C898 C 0.935 0.23023 0.58299 0.0
C899 C 0.94326 0.20756 0.62137 0.0
C900 C 0.94983 0.25197 0.61941 0.0
C901 C 0.97217 0.26231 0.6208 0.0
C902 C 0.9759 0.28394 0.63246 0.0
C903 C 0.95626 0.29518 0.64315 0.0
C904 C 0.93331 0.28467 0.64215 0.0
C905 C 0.93012 0.26285 0.63006 0.0
H906 H 0.99383 0.66691 0.9078 0.0
H907 H 0.95471 0.71409 0.95515 0.0
H908 H 0.97945 0.74807 0.9417 0.0
H909 H 0.05201 0.69502 0.91553 0.0
H910 H 0.06026 0.69056 0.88476 0.0
H911 H 0.04032 0.6699 0.8992 0.0
H912 H 0.00887 0.67696 0.86602 0.0
H913 H 0.02869 0.69761 0.85151 0.0
H914 H -0.00097 0.70694 0.85974 0.0
H915 H 0.00693 0.77723 0.92103 0.0
H916 H 0.03518 0.79911 0.89502 0.0
H917 H 0.05635 0.73224 0.86216 0.0
C918 C 0.9906 0.68436 0.91549 0.0
C919 C 0.97241 0.68795 0.93248 0.0
C920 C 0.96863 0.71101 0.94212 0.0
C921 C 0.9826 0.73037 0.93462 0.0
C922 C 0.00032 0.72624 0.91767 0.0
C923 C 0.00441 0.70377 0.90833 0.0
C924 C 0.02397 0.70413 0.88979 0.0
C925 C 0.04541 0.68901 0.89781 0.0
C926 C 0.01457 0.69594 0.86532 0.0
C927 C 0.02993 0.73041 0.88979 0.0
C928 C 0.01623 0.7429 0.90605 0.0
C929 C 0.01795 0.76761 0.90841 0.0
C930 C 0.03398 0.77986 0.89359 0.0
C931 C 0.04797 0.76731 0.87671 0.0
C932 C 0.04605 0.74228 0.87505 0.0
H933 H 0.51263 0.7385 0.14785 0.0
H934 H 0.553 0.69625 0.09706 0.0
H935 H 0.53451 0.71843 0.06385 0.0
H936 H 0.45764 0.74369 0.11003 0.0
H937 H 0.4521 0.7737 0.12021 0.0
H938 H 0.46635 0.75247 0.13972 0.0
H939 H 0.50169 0.78173 0.14536 0.0
H940 H 0.48779 0.80285 0.12563 0.0
H941 H 0.5176 0.79243 0.11952 0.0
H942 H 0.51731 0.74973 0.037 0.0
H943 H 0.4976 0.78435 0.01778 0.0
H944 H 0.46595 0.80392 0.08561 0.0
C945 C 0.51702 0.73349 0.12971 0.0
C946 C 0.53416 0.71571 0.12495 0.0
C947 C 0.53971 0.70971 0.10104 0.0
C948 C 0.52938 0.72225 0.08207 0.0
C949 C 0.51317 0.74031 0.08737 0.0
C950 C 0.50652 0.74552 0.11057 0.0
C951 C 0.48946 0.76641 0.11147 0.0
C952 C 0.46493 0.75859 0.12091 0.0
C953 C 0.49977 0.78706 0.12637 0.0
C954 C 0.48835 0.77275 0.08528 0.0
C955 C 0.50221 0.75755 0.07166 0.0
C956 C 0.50586 0.76136 0.04733 0.0
C957 C 0.49481 0.78109 0.03663 0.0
C958 C 0.48011 0.7964 0.05024 0.0
C959 C 0.47671 0.79206 0.07477 0.0
H960 H 0.23385 0.38135 0.35611 0.0
H961 H 0.16655 0.36534 0.32151 0.0
H962 H 0.18087 0.38525 0.28479 0.0
H963 H 0.24589 0.43962 0.32517 0.0
H964 H 0.27734 0.43312 0.32351 0.0
H965 H 0.25991 0.42211 0.34821 0.0
H966 H 0.2741 0.37911 0.33878 0.0
H967 H 0.29124 0.38984 0.31392 0.0
H968 H 0.26912 0.36694 0.30942 0.0
H969 H 0.20504 0.40043 0.25027 0.0
H970 H 0.23635 0.41122 0.22117 0.0
H971 H 0.28778 0.41705 0.27867 0.0
C972 C 0.22179 0.38274 0.34108 0.0
C973 C 0.19907 0.37195 0.3416 0.0
C974 C 0.18395 0.37374 0.32149 0.0
C975 C 0.19194 0.38499 0.3006 0.0
C976 C 0.21494 0.39453 0.30033 0.0
C977 C 0.22951 0.39379 0.3202 0.0
C978 C 0.25432 0.40285 0.31469 0.0
C979 C 0.25967 0.4258 0.32873 0.0
C980 C 0.27329 0.38353 0.31948 0.0
C981 C 0.25179 0.40787 0.28835 0.0
C982 C 0.22888 0.40327 0.28043 0.0
C983 C 0.22288 0.40459 0.25635 0.0
C984 C 0.2408 0.4106 0.23996 0.0
C985 C 0.2644 0.41508 0.24776 0.0
C986 C 0.26979 0.41407 0.27228 0.0
H987 H 0.85947 0.97136 0.51739 0.0
H988 H 0.90501 0.94324 0.46156 0.0
H989 H 0.92626 0.91867 0.49121 0.0
H990 H 0.90181 0.98172 0.55628 0.0
H991 H 0.88584 0.97377 0.58305 0.0
H992 H 0.86967 0.98312 0.55714 0.0
H993 H 0.84539 0.94379 0.55776 0.0
H994 H 0.86152 0.93428 0.58392 0.0
H995 H 0.86077 0.91554 0.55779 0.0
H996 H 0.94851 0.90548 0.5271 0.0
H997 H 0.96972 0.90555 0.56574 0.0
H998 H 0.90967 0.94172 0.59843 0.0
C999 C 0.87322 0.95923 0.5113 0.0
C1000 C 0.88059 0.95911 0.48727 0.0
C1001 C 0.89903 0.94349 0.47994 0.0
C1002 C 0.91111 0.92934 0.49664 0.0
C1003 C 0.90429 0.9308 0.52052 0.0
C1004 C 0.8855 0.94512 0.52779 0.0
C1005 C 0.88419 0.94673 0.55469 0.0
C1006 C 0.88549 0.97287 0.56326 0.0
C1007 C 0.86163 0.93434 0.56409 0.0
C1008 C 0.90636 0.93286 0.56134 0.0
C1009 C 0.9173 0.9231 0.54149 0.0
C1010 C 0.93976 0.91238 0.54288 0.0
C1011 C 0.95171 0.91251 0.56488 0.0
C1012 C 0.94126 0.9236 0.58499 0.0
C1013 C 0.91791 0.93283 0.58337 0.0
H1014 H 0.23402 0.67312 0.73481 0.0
H1015 H 0.25765 0.60015 0.72475 0.0
H1016 H 0.288 0.6057 0.75621 0.0
H1017 H 0.29438 0.6991 0.75343 0.0
H1018 H 0.27985 0.71816 0.7749 0.0
H1019 H 0.26497 0.71064 0.74738 0.0
H1020 H 0.22875 0.69484 0.77141 0.0
H1021 H 0.24346 0.70212 0.79883 0.0
H1022 H 0.23337 0.67203 0.79363 0.0
H1023 H 0.30905 0.61617 0.79402 0.0
H1024 H 0.318 0.63027 0.83485 0.0
H1025 H 0.28036 0.69623 0.8202 0.0
C1026 C 0.24622 0.65861 0.73859 0.0
C1027 C 0.24361 0.63627 0.7274 0.0
C1028 C 0.25951 0.6175 0.73307 0.0
C1029 C 0.27688 0.62054 0.75082 0.0
C1030 C 0.27824 0.64252 0.76241 0.0
C1031 C 0.26348 0.66136 0.75628 0.0
C1032 C 0.26569 0.68181 0.7737 0.0
C1033 C 0.2769 0.70372 0.76163 0.0
C1034 C 0.24139 0.68802 0.78506 0.0
C1035 C 0.2826 0.67087 0.7916 0.0
C1036 C 0.29029 0.64852 0.78446 0.0
C1037 C 0.30371 0.6339 0.7995 0.0
C1038 C 0.30869 0.64202 0.82266 0.0
C1039 C 0.29986 0.66431 0.83053 0.0
C1040 C 0.28752 0.6792 0.81449 0.0
H1041 H 0.5828 0.99274 0.14141 0.0
H1042 H 0.54596 0.0606 0.14724 0.0
H1043 H 0.56424 0.07375 0.10931 0.0
H1044 H 0.63803 0.01631 0.11393 0.0
H1045 H 0.64132 0.9905 0.09502 0.0
H1046 H 0.62739 0.98763 0.12387 0.0
H1047 H 0.58998 0.96907 0.10399 0.0
H1048 H 0.60375 0.97192 0.07516 0.0
H1049 H 0.57495 0.9852 0.08056 0.0
H1050 H 0.58295 0.07752 0.0686 0.0
H1051 H 0.60125 0.07183 0.02878 0.0
H1052 H 0.62649 0.00196 0.0506 0.0
C1053 C 0.57892 0.01054 0.13492 0.0
C1054 C 0.56303 0.02569 0.14719 0.0
C1055 C 0.55819 0.04877 0.1381 0.0
C1056 C 0.56852 0.05639 0.11662 0.0
C1057 C 0.58381 0.04082 0.1047 0.0
C1058 C 0.58916 0.01845 0.11365 0.0
C1059 C 0.60491 0.00453 0.09676 0.0
C1060 C 0.62937 -0.00054 0.10807 0.0
C1061 C 0.59265 0.98132 0.08864 0.0
C1062 C 0.60696 0.02225 0.07655 0.0
C1063 C 0.59487 0.04316 0.08149 0.0
C1064 C 0.59285 0.06141 0.06469 0.0
C1065 C 0.60324 0.05801 0.04215 0.0
C1066 C 0.61541 0.03656 0.03675 0.0
C1067 C 0.61761 0.01871 0.05435 0.0
H1068 H 0.69166 0.15062 0.67011 0.0
H1069 H 0.70177 0.09119 0.62165 0.0
H1070 H 0.71668 0.06659 0.65497 0.0
H1071 H 0.74302 0.14573 0.69766 0.0
H1072 H 0.73338 0.15357 0.72733 0.0
H1073 H 0.7169 0.16402 0.70201 0.0
H1074 H 0.67829 0.14471 0.71855 0.0
H1075 H 0.69463 0.13441 0.74427 0.0
H1076 H 0.67813 0.11349 0.72627 0.0
H1077 H 0.73953 0.05241 0.69024 0.0
H1078 H 0.76667 0.04937 0.72484 0.0
H1079 H 0.74141 0.11787 0.75047 0.0
C1080 C 0.69599 0.13208 0.66675 0.0
C1081 C 0.69554 0.12274 0.64341 0.0
C1082 C 0.70181 0.0986 0.63949 0.0
C1083 C 0.71025 0.08449 0.65833 0.0
C1084 C 0.71191 0.09471 0.68096 0.0
C1085 C 0.7045 0.11787 0.68533 0.0
C1086 C 0.7115 0.126 0.71008 0.0
C1087 C 0.72713 0.14864 0.70918 0.0
C1088 C 0.68931 0.12987 0.72572 0.0
C1089 C 0.72556 0.10452 0.71828 0.0
C1090 C 0.72512 0.08639 0.70153 0.0
C1091 C 0.7394 0.06612 0.70383 0.0
C1092 C 0.75485 0.0646 0.72345 0.0
C1093 C 0.75597 0.08334 0.74032 0.0
C1094 C 0.74058 0.1031 0.73805 0.0
H1095 H 0.08343 0.44172 0.98982 0.0
H1096 H 0.15861 0.43479 0.97335 0.0
H1097 H 0.14879 0.40954 0.93879 0.0
H1098 H 0.06375 0.38017 0.96293 0.0
H1099 H 0.03673 0.39382 0.9521 0.0
H1100 H 0.0496 0.40352 0.97995 0.0
H1101 H 0.05039 0.44703 0.96436 0.0
H1102 H 0.03767 0.43754 0.9367 0.0
H1103 H 0.06558 0.45353 0.93673 0.0
H1104 H 0.1314 0.39691 0.90065 0.0
H1105 H 0.10826 0.39849 0.86332 0.0
H1106 H 0.04389 0.41181 0.90397 0.0
C1107 C 0.09782 0.43384 0.97961 0.0
C1108 C 0.12171 0.44014 0.98419 0.0
C1109 C 0.14014 0.43006 0.97019 0.0
C1110 C 0.13472 0.41556 0.95057 0.0
C1111 C 0.11081 0.41099 0.94542 0.0
C1112 C 0.09261 0.41947 0.95987 0.0
C1113 C 0.0685 0.41613 0.9482 0.0
C1114 C 0.05378 0.39728 0.96159 0.0
C1115 C 0.05478 0.43996 0.94638 0.0
C1116 C 0.07616 0.40697 0.92396 0.0
C1117 C 0.10054 0.40321 0.92298 0.0
C1118 C 0.11222 0.39891 0.90138 0.0
C1119 C 0.09893 0.39985 0.88019 0.0
C1120 C 0.0743 0.40523 0.88082 0.0
C1121 C 0.06263 0.40723 0.90305 0.0
H1122 H 0.74507 0.87165 0.21625 0.0
H1123 H 0.7891 0.81493 0.24505 0.0
H1124 H 0.81165 0.81324 0.20715 0.0
H1125 H 0.73772 0.84679 0.16121 0.0
H1126 H 0.73804 0.87446 0.14482 0.0
H1127 H 0.72884 0.87423 0.17549 0.0
H1128 H 0.761 0.90605 0.18525 0.0
H1129 H 0.77049 0.90612 0.15451 0.0
H1130 H 0.79178 0.9003 0.17788 0.0
H1131 H 0.82557 0.81401 0.1647 0.0
H1132 H 0.82667 0.81412 0.12067 0.0
H1133 H 0.77328 0.87012 0.11964 0.0
C1134 C 0.75985 0.85928 0.21478 0.0
C1135 C 0.76548 0.84352 0.23354 0.0
C1136 C 0.78457 0.82721 0.23084 0.0
C1137 C 0.79761 0.82628 0.20948 0.0
C1138 C 0.79137 0.84187 0.19112 0.0
C1139 C 0.77287 0.85803 0.19357 0.0
C1140 C 0.76752 0.87055 0.1703 0.0
C1141 C 0.74151 0.86622 0.1625 0.0
C1142 C 0.77304 0.89735 0.1721 0.0
C1143 C 0.78506 0.85806 0.15404 0.0
C1144 C 0.79916 0.84207 0.16647 0.0
C1145 C 0.81498 0.82678 0.15483 0.0
C1146 C 0.81556 0.82703 0.12981 0.0
C1147 C 0.8001 0.84219 0.11681 0.0
C1148 C 0.78554 0.85861 0.12915 0.0
H1149 H 0.36554 0.46801 0.4747 0.0
H1150 H 0.34978 0.5338 0.51231 0.0
H1151 H 0.37357 0.55637 0.48276 0.0
H1152 H 0.42429 0.48013 0.4625 0.0
H1153 H 0.42467 0.46669 0.43329 0.0
H1154 H 0.40383 0.45636 0.45536 0.0
H1155 H 0.36865 0.46467 0.42652 0.0
H1156 H 0.38943 0.47485 0.40419 0.0
H1157 H 0.3653 0.49393 0.41359 0.0
H1158 H 0.40387 0.5707 0.45214 0.0
H1159 H 0.43566 0.57558 0.42163 0.0
H1160 H 0.42972 0.5004 0.40409 0.0
C1161 C 0.3666 0.48724 0.47637 0.0
C1162 C 0.35585 0.49919 0.49569 0.0
C1163 C 0.3578 0.52434 0.49748 0.0
C1164 C 0.37128 0.53729 0.48082 0.0
C1165 C 0.38233 0.52484 0.46234 0.0
C1166 C 0.37976 0.5004 0.45985 0.0
C1167 C 0.39454 0.49092 0.43942 0.0
C1168 C 0.41292 0.47245 0.44818 0.0
C1169 C 0.37852 0.48048 0.41976 0.0
C1170 C 0.40647 0.51367 0.43131 0.0
C1171 C 0.3992 0.53313 0.44457 0.0
C1172 C 0.40934 0.55567 0.44132 0.0
C1173 C 0.4274 0.55828 0.42407 0.0
C1174 C 0.43498 0.53843 0.41043 0.0
C1175 C 0.4241 0.51602 0.41401 0.0
H1176 H 0.23438 0.27596 0.34143 0.0
H1177 H 0.25114 0.26885 0.41665 0.0
H1178 H 0.2866 0.24467 0.40635 0.0
H1179 H 0.25622 0.21614 0.32228 0.0
H1180 H 0.26791 0.22791 0.29473 0.0
H1181 H 0.24195 0.2413 0.30823 0.0
H1182 H 0.26312 0.28244 0.30815 0.0
H1183 H 0.28907 0.26921 0.29475 0.0
H1184 H 0.29179 0.28542 0.3224 0.0
H1185 H 0.32264 0.22574 0.38767 0.0
H1186 H 0.35669 0.21418 0.36211 0.0
H1187 H 0.31613 0.23399 0.29925 0.0
C1188 C 0.24517 0.26882 0.35576 0.0
C1189 C 0.24003 0.27412 0.37981 0.0
C1190 C 0.25477 0.26486 0.39808 0.0
C1191 C 0.27487 0.25105 0.39242 0.0
C1192 C 0.27978 0.2466 0.36844 0.0
C1193 C 0.26527 0.25513 0.35041 0.0
C1194 C 0.27562 0.24992 0.32605 0.0
C1195 C 0.25946 0.23279 0.312 0.0
C1196 C 0.28017 0.27312 0.31203 0.0
C1197 C 0.29868 0.23794 0.33316 0.0
C1198 C 0.30061 0.23581 0.35766 0.0
C1199 C 0.32116 0.22692 0.36845 0.0
C1200 C 0.34041 0.22045 0.35382 0.0
C1201 C 0.33894 0.22311 0.32875 0.0
C1202 C 0.31762 0.23147 0.31835 0.0
H1203 H 0.01566 0.02634 0.63995 0.0
H1204 H 0.04419 0.97826 0.58642 0.0
H1205 H 0.07008 0.0107 0.57128 0.0
H1206 H 0.00971 0.07443 0.60365 0.0
H1207 H 0.01733 0.09642 0.62584 0.0
H1208 H 0.005 0.06833 0.63489 0.0
H1209 H 0.04165 0.06128 0.66227 0.0
H1210 H 0.0543 0.08934 0.65289 0.0
H1211 H 0.07126 0.06219 0.64975 0.0
H1212 H 0.08807 0.04961 0.55847 0.0
H1213 H 0.09271 0.09168 0.54635 0.0
H1214 H 0.05275 0.114 0.6087 0.0
C1215 C 0.02773 0.02247 0.62537 0.0
C1216 C 0.02802 -0.00015 0.61437 0.0
C1217 C 0.04377 0.99553 0.59511 0.0
C1218 C 0.05869 0.01376 0.58657 0.0
C1219 C 0.05778 0.03603 0.5977 0.0
C1220 C 0.04263 0.04038 0.61669 0.0
C1221 C 0.0425 0.06644 0.62357 0.0
C1222 C 0.01715 0.07701 0.62185 0.0
C1223 C 0.05307 0.07001 0.64861 0.0
C1224 C 0.05886 0.07641 0.60459 0.0
C1225 C 0.06811 0.05853 0.59026 0.0
C1226 C 0.08139 0.06371 0.56986 0.0
C1227 C 0.08405 0.08769 0.56317 0.0
C1228 C 0.0731 0.10603 0.57666 0.0
C1229 C 0.06161 0.10033 0.59829 0.0
H1230 H 0.2236 0.72586 0.9181 0.0
H1231 H 0.27921 0.76027 0.8768 0.0
H1232 H 0.25091 0.79187 0.86501 0.0
H1233 H 0.1796 0.73208 0.87869 0.0
H1234 H 0.15579 0.73809 0.89947 0.0
H1235 H 0.18145 0.72155 0.90903 0.0
H1236 H 0.18866 0.75197 0.94312 0.0
H1237 H 0.16281 0.76866 0.93367 0.0
H1238 H 0.19134 0.78327 0.93621 0.0
H1239 H 0.21505 0.81347 0.85028 0.0
H1240 H 0.17491 0.82476 0.83591 0.0
H1241 H 0.14299 0.77829 0.88882 0.0
C1242 C 0.22999 0.74053 0.90727 0.0
C1243 C 0.25349 0.74071 0.89835 0.0
C1244 C 0.26126 0.75995 0.88396 0.0
C1245 C 0.24533 0.778 0.87723 0.0
C1246 C 0.22192 0.77682 0.88553 0.0
C1247 C 0.2144 0.75883 0.90068 0.0
C1248 C 0.18778 0.76002 0.90492 0.0
C1249 C 0.17545 0.73656 0.89757 0.0
C1250 C 0.18233 0.76637 0.93104 0.0
C1251 C 0.18125 0.78034 0.88843 0.0
C1252 C 0.20121 0.7901 0.87769 0.0
C1253 C 0.19934 0.80662 0.85917 0.0
C1254 C 0.17652 0.81286 0.85105 0.0
C1255 C 0.15598 0.80266 0.86157 0.0
C1256 C 0.15842 0.78691 0.881 0.0
H1257 H 0.48607 0.93014 0.17778 0.0
H1258 H 0.45386 -0.00232 0.15836 0.0
H1259 H 0.42853 0.97711 0.12877 0.0
H1260 H 0.49404 0.91091 0.12231 0.0
H1261 H 0.48821 0.87972 0.12761 0.0
H1262 H 0.49848 0.89825 0.15156 0.0
H1263 H 0.46163 0.88635 0.17687 0.0
H1264 H 0.45123 0.86764 0.15286 0.0
H1265 H 0.43207 0.89051 0.16491 0.0
H1266 H 0.41284 0.95087 0.09626 0.0
H1267 H 0.41042 0.92209 0.06277 0.0
H1268 H 0.45381 0.8722 0.10274 0.0
C1269 C 0.47295 0.94041 0.16801 0.0
C1270 C 0.4717 0.96539 0.17045 0.0
C1271 C 0.45492 0.97845 0.15684 0.0
C1272 C 0.44036 0.96689 0.1401 0.0
C1273 C 0.44274 0.94228 0.13731 0.0
C1274 C 0.45857 0.92917 0.15104 0.0
C1275 C 0.46086 0.90387 0.14199 0.0
C1276 C 0.48692 0.89787 0.13547 0.0
C1277 C 0.45084 0.88604 0.16025 0.0
C1278 C 0.44516 0.90523 0.12012 0.0
C1279 C 0.43417 0.92722 0.1181 0.0
C1280 C 0.42086 0.93338 0.09794 0.0
C1281 C 0.41952 0.91697 0.07903 0.0
C1282 C 0.43189 0.89504 0.08037 0.0
C1283 C 0.44401 0.88882 0.10148 0.0
H1284 H 0.73024 0.2326 0.63579 0.0
H1285 H 0.74032 0.23987 0.55944 0.0
H1286 H 0.76665 0.27461 0.56626 0.0
H1287 H 0.7323 0.29832 0.64981 0.0
H1288 H 0.7479 0.29292 0.6774 0.0
H1289 H 0.72695 0.27121 0.66626 0.0
H1290 H 0.75973 0.23855 0.66783 0.0
H1291 H 0.78059 0.26005 0.67909 0.0
H1292 H 0.78755 0.24345 0.65243 0.0
H1293 H 0.79761 0.30291 0.58174 0.0
H1294 H 0.82958 0.32295 0.60462 0.0
H1295 H 0.7967 0.29971 0.67062 0.0
C1296 C 0.73756 0.24187 0.6205 0.0
C1297 C 0.73335 0.23362 0.59712 0.0
C1298 C 0.74329 0.24604 0.57751 0.0
C1299 C 0.75817 0.26582 0.58121 0.0
C1300 C 0.76241 0.27324 0.60458 0.0
C1301 C 0.75209 0.26184 0.62388 0.0
C1302 C 0.76106 0.27188 0.64724 0.0
C1303 C 0.74084 0.28433 0.66098 0.0
C1304 C 0.77294 0.25233 0.66252 0.0
C1305 C 0.77908 0.28977 0.63812 0.0
C1306 C 0.77945 0.29054 0.61346 0.0
C1307 C 0.79698 0.30311 0.60103 0.0
C1308 C 0.81505 0.31447 0.61413 0.0
C1309 C 0.81523 0.31329 0.63933 0.0
C1310 C 0.79647 0.30164 0.65139 0.0
H1311 H 0.98779 0.47966 0.88049 0.0
H1312 H 0.98812 0.50794 0.80847 0.0
H1313 H 0.95911 0.53889 0.82054 0.0
H1314 H 0.92334 0.49317 0.8939 0.0
H1315 H 0.9303 0.50085 0.92434 0.0
H1316 H 0.94763 0.47848 0.90901 0.0
H1317 H 0.98638 0.50201 0.91822 0.0
H1318 H 0.96924 0.52426 0.93363 0.0
H1319 H 0.98852 0.53287 0.90937 0.0
H1320 H 0.93626 0.57051 0.84192 0.0
H1321 H 0.92176 0.60035 0.87097 0.0
H1322 H 0.93463 0.55039 0.92858 0.0
C1323 C 0.9813 0.49202 0.86713 0.0
C1324 C 0.99012 0.4915 0.84359 0.0
C1325 C 0.98147 0.50806 0.82661 0.0
C1326 C 0.9649 0.52558 0.83327 0.0
C1327 C 0.95691 0.52596 0.85682 0.0
C1328 C 0.96466 0.50945 0.87343 0.0
C1329 C 0.95542 0.51517 0.89812 0.0
C1330 C 0.93814 0.49576 0.90685 0.0
C1331 C 0.97612 0.51881 0.91585 0.0
C1332 C 0.94241 0.53826 0.89308 0.0
C1333 C 0.94308 0.54398 0.86908 0.0
C1334 C 0.93499 0.56594 0.86063 0.0
C1335 C 0.92681 0.58277 0.87723 0.0
C1336 C 0.92682 0.57747 0.90191 0.0
C1337 C 0.9338 0.55462 0.90974 0.0
H1338 H 0.64031 0.74741 0.1503 0.0
H1339 H 0.6421 0.67855 0.11493 0.0
H1340 H 0.67397 0.69338 0.08802 0.0
H1341 H 0.6482 0.78316 0.09909 0.0
H1342 H 0.66684 0.80482 0.11382 0.0
H1343 H 0.64498 0.78841 0.13067 0.0
H1344 H 0.6779 0.77365 0.15962 0.0
H1345 H 0.69983 0.79023 0.14302 0.0
H1346 H 0.7038 0.75867 0.14779 0.0
H1347 H 0.70479 0.71669 0.06425 0.0
H1348 H 0.73335 0.74564 0.04701 0.0
H1349 H 0.71049 0.79872 0.09857 0.0
C1350 C 0.64747 0.73536 0.13699 0.0
C1351 C 0.63877 0.71188 0.13457 0.0
C1352 C 0.64864 0.69661 0.11704 0.0
C1353 C 0.66664 0.7049 0.10168 0.0
C1354 C 0.67454 0.72836 0.10432 0.0
C1355 C 0.66538 0.74326 0.12171 0.0
C1356 C 0.67672 0.76768 0.12098 0.0
C1357 C 0.65807 0.78716 0.11583 0.0
C1358 C 0.69038 0.77285 0.14423 0.0
C1359 C 0.69353 0.7644 0.10021 0.0
C1360 C 0.6921 0.74163 0.09081 0.0
C1361 C 0.70607 0.73454 0.0715 0.0
C1362 C 0.72214 0.7511 0.06178 0.0
C1363 C 0.72399 0.7744 0.07143 0.0
C1364 C 0.70935 0.78108 0.09074 0.0
H1365 H 0.54621 0.47475 0.37132 0.0
H1366 H 0.54219 0.52291 0.43164 0.0
H1367 H 0.56542 0.49436 0.45586 0.0
H1368 H 0.53183 0.42675 0.40008 0.0
H1369 H 0.55081 0.40593 0.38451 0.0
H1370 H 0.5418 0.43291 0.3701 0.0
H1371 H 0.58612 0.44399 0.36289 0.0
H1372 H 0.59531 0.41684 0.37752 0.0
H1373 H 0.60652 0.4452 0.3877 0.0
H1374 H 0.57909 0.45744 0.47585 0.0
H1375 H 0.57828 0.41572 0.48996 0.0
H1376 H 0.5729 0.39111 0.41702 0.0
C1377 C 0.55107 0.47969 0.38935 0.0
C1378 C 0.54248 0.50092 0.39967 0.0
C1379 C 0.54876 0.50671 0.4234 0.0
C1380 C 0.56212 0.49067 0.43721 0.0
C1381 C 0.56929 0.46915 0.42688 0.0
C1382 C 0.56413 0.46378 0.40332 0.0
C1383 C 0.56935 0.43795 0.39762 0.0
C1384 C 0.54713 0.42517 0.38754 0.0
C1385 C 0.5906 0.43588 0.38042 0.0
C1386 C 0.5759 0.42899 0.42219 0.0
C1387 C 0.57692 0.44741 0.43864 0.0
C1388 C 0.57909 0.44297 0.46306 0.0
C1389 C 0.5787 0.41921 0.47096 0.0
C1390 C 0.5756 0.40043 0.45444 0.0
C1391 C 0.57567 0.40532 0.42982 0.0
H1392 H 0.3508 0.25466 0.22811 0.0
H1393 H 0.42664 0.26661 0.21972 0.0
H1394 H 0.41838 0.29981 0.19198 0.0
H1395 H 0.331 0.27722 0.16605 0.0
H1396 H 0.30513 0.29112 0.17918 0.0
H1397 H 0.31666 0.26371 0.19148 0.0
H1398 H 0.3199 0.28379 0.233 0.0
H1399 H 0.30854 0.31109 0.2209 0.0
H1400 H 0.33691 0.31094 0.23603 0.0
H1401 H 0.40254 0.33644 0.1733 0.0
H1402 H 0.381 0.37448 0.16825 0.0
H1403 H 0.31531 0.34012 0.19017 0.0
C1404 C 0.36561 0.26353 0.21945 0.0
C1405 C 0.38932 0.25796 0.22566 0.0
C1406 C 0.40835 0.27053 0.21489 0.0
C1407 C 0.4038 0.28929 0.199 0.0
C1408 C 0.38013 0.29525 0.19414 0.0
C1409 C 0.3613 0.28264 0.204 0.0
C1410 C 0.33782 0.29537 0.20005 0.0
C1411 C 0.3217 0.281 0.18318 0.0
C1412 C 0.32508 0.30062 0.2239 0.0
C1413 C 0.34657 0.31797 0.18817 0.0
C1414 C 0.37088 0.31715 0.18399 0.0
C1415 C 0.38342 0.33707 0.17589 0.0
C1416 C 0.37104 0.35864 0.17306 0.0
C1417 C 0.34653 0.36014 0.17882 0.0
C1418 C 0.334 0.33931 0.18534 0.0
H1419 H 0.80663 0.16945 0.76588 0.0
H1420 H 0.87369 0.14845 0.79824 0.0
H1421 H 0.89113 0.18752 0.78707 0.0
H1422 H 0.83029 0.19615 0.71631 0.0
H1423 H 0.80873 0.21995 0.71457 0.0
H1424 H 0.80071 0.19212 0.7283 0.0
H1425 H 0.78871 0.21442 0.76703 0.0
H1426 H 0.79661 0.24242 0.75333 0.0
H1427 H 0.80991 0.23391 0.78134 0.0
H1428 H 0.90246 0.2266 0.76747 0.0
H1429 H 0.90647 0.26244 0.74198 0.0
H1430 H 0.83157 0.25732 0.72325 0.0
C1431 C 0.82483 0.17325 0.77112 0.0
C1432 C 0.83885 0.15603 0.78294 0.0
C1433 C 0.86264 0.16154 0.78931 0.0
C1434 C 0.87265 0.18365 0.78306 0.0
C1435 C 0.85847 0.20003 0.77077 0.0
C1436 C 0.83497 0.19513 0.76513 0.0
C1437 C 0.82399 0.21473 0.75023 0.0
C1438 C 0.81545 0.20516 0.72592 0.0
C1439 C 0.8036 0.2271 0.7638 0.0
C1440 C 0.84524 0.23104 0.74753 0.0
C1441 C 0.86491 0.22248 0.75972 0.0
C1442 C 0.88706 0.23369 0.75824 0.0
C1443 C 0.88918 0.25398 0.7437 0.0
C1444 C 0.86928 0.26266 0.7308 0.0
C1445 C 0.84701 0.25126 0.73316 0.0
H1446 H 0.00126 0.62129 -0.00306 0.0
H1447 H 0.94525 0.57076 0.01389 0.0
H1448 H 0.97477 0.54514 0.03448 0.0
H1449 H 0.04143 0.58118 0.97964 0.0
H1450 H 0.06751 0.59607 0.99114 0.0
H1451 H 0.0415 0.61312 0.98361 0.0
H1452 H 0.03999 0.63062 0.02639 0.0
H1453 H 0.0663 0.61376 0.03407 0.0
H1454 H 0.03956 0.61077 0.05169 0.0
H1455 H 0.01151 0.52187 0.04639 0.0
H1456 H 0.05157 0.5032 0.04782 0.0
H1457 H 0.08291 0.56881 0.02153 0.0
C1458 C 0.99502 0.60527 0.00575 0.0
C1459 C 0.97103 0.598 0.00397 0.0
C1460 C 0.96356 0.57673 0.01532 0.0
C1461 C 0.9802 0.56211 0.02706 0.0
C1462 C 0.00406 0.56925 0.02747 0.0
C1463 C 0.01135 0.59053 0.01731 0.0
C1464 C 0.0382 0.59275 0.01696 0.0
C1465 C 0.04769 0.59595 0.99133 0.0
C1466 C 0.0465 0.61319 0.03326 0.0
C1467 C 0.04501 0.56879 0.02715 0.0
C1468 C 0.02518 0.55569 0.03378 0.0
C1469 C 0.02717 0.53217 0.04175 0.0
C1470 C 0.04994 0.5217 0.04247 0.0
C1471 C 0.07019 0.53464 0.03476 0.0
C1472 C 0.06768 0.5586 0.02764 0.0
H1473 H 0.70171 0.76072 0.2909 0.0
H1474 H 0.65273 0.81174 0.32201 0.0
H1475 H 0.61873 0.78712 0.30899 0.0
H1476 H 0.67469 0.75319 0.24105 0.0
H1477 H 0.67914 0.72162 0.23682 0.0
H1478 H 0.69941 0.73815 0.25514 0.0
H1479 H 0.69134 0.71001 0.29087 0.0
H1480 H 0.67135 0.69281 0.27245 0.0
H1481 H 0.66112 0.70473 0.30052 0.0
H1482 H 0.59137 0.76487 0.28192 0.0
H1483 H 0.57291 0.7433 0.24806 0.0
H1484 H 0.63929 0.70536 0.23637 0.0
C1485 C 0.68385 0.76591 0.29615 0.0
C1486 C 0.67975 0.78797 0.30742 0.0
C1487 C 0.65622 0.79467 0.31364 0.0
C1488 C 0.63677 0.78081 0.30623 0.0
C1489 C 0.64129 0.76003 0.29331 0.0
C1490 C 0.66434 0.75212 0.28908 0.0
C1491 C 0.66462 0.73127 0.27196 0.0
C1492 C 0.68037 0.7364 0.24996 0.0
C1493 C 0.67257 0.70834 0.28472 0.0
C1494 C 0.63849 0.73018 0.26546 0.0
C1495 C 0.62517 0.74655 0.27824 0.0
C1496 C 0.60138 0.75131 0.27249 0.0
C1497 C 0.59109 0.73917 0.25313 0.0
C1498 C 0.60465 0.72255 0.23983 0.0
C1499 C 0.62835 0.7176 0.24659 0.0
H1500 H 0.37839 0.39062 0.54773 0.0
H1501 H 0.40843 0.44816 0.58978 0.0
H1502 H 0.44867 0.43086 0.58443 0.0
H1503 H 0.42299 0.34264 0.56507 0.0
H1504 H 0.42267 0.33088 0.53514 0.0
H1505 H 0.39612 0.34423 0.54748 0.0
H1506 H 0.39414 0.37298 0.51134 0.0
H1507 H 0.42084 0.36016 0.49913 0.0
H1508 H 0.41939 0.3918 0.50477 0.0
H1509 H 0.48581 0.4119 0.56789 0.0
H1510 H 0.51644 0.39213 0.543 0.0
H1511 H 0.46168 0.34791 0.5109 0.0
C1512 C 0.3933 0.39904 0.55667 0.0
C1513 C 0.39035 0.42062 0.56929 0.0
C1514 C 0.41031 0.43144 0.58028 0.0
C1515 C 0.43323 0.42174 0.57729 0.0
C1516 C 0.4357 0.40115 0.5635 0.0
C1517 C 0.41617 0.38972 0.55368 0.0
C1518 C 0.42363 0.36988 0.53697 0.0
C1519 C 0.4159 0.34546 0.54676 0.0
C1520 C 0.41393 0.37398 0.51157 0.0
C1521 C 0.45039 0.37271 0.53788 0.0
C1522 C 0.45709 0.39048 0.55364 0.0
C1523 C 0.48081 0.3976 0.55592 0.0
C1524 C 0.49804 0.38637 0.54163 0.0
C1525 C 0.49136 0.36848 0.52509 0.0
C1526 C 0.4673 0.36137 0.52354 0.0
H1527 H 0.16247 0.70465 0.68935 0.0
H1528 H 0.10157 0.65718 0.68572 0.0
H1529 H 0.07703 0.68724 0.7066 0.0
H1530 H 0.15606 0.71773 0.74549 0.0
H1531 H 0.16532 0.74851 0.74469 0.0
H1532 H 0.17579 0.72818 0.72232 0.0
H1533 H 0.15901 0.75514 0.68879 0.0
H1534 H 0.14898 0.77611 0.71106 0.0
H1535 H 0.12817 0.76426 0.6896 0.0
H1536 H 0.06228 0.71739 0.7359 0.0
H1537 H 0.0584 0.74513 0.76998 0.0
H1538 H 0.13004 0.77115 0.75685 0.0
C1539 C 0.14363 0.7011 0.69177 0.0
C1540 C 0.13385 0.6787 0.6858 0.0
C1541 C 0.10933 0.67438 0.6899 0.0
C1542 C 0.09527 0.69137 0.70179 0.0
C1543 C 0.10603 0.71254 0.7093 0.0
C1544 C 0.12964 0.7176 0.70411 0.0
C1545 C 0.13839 0.73915 0.71783 0.0
C1546 C 0.16015 0.733 0.7335 0.0
C1547 C 0.14395 0.7599 0.7008 0.0
C1548 C 0.1166 0.74444 0.73278 0.0
C1549 C 0.09785 0.72944 0.72709 0.0
C1550 C 0.07663 0.72959 0.74009 0.0
C1551 C 0.07464 0.74528 0.7595 0.0
C1552 C 0.09397 0.76017 0.76599 0.0
C1553 C 0.11497 0.76001 0.75217 0.0
H1554 H 0.51558 0.88704 0.97951 0.0
H1555 H 0.45465 0.93442 0.98469 0.0
H1556 H 0.47892 0.96735 0.96798 0.0
H1557 H 0.55738 0.92625 -0.00103 0.0
H1558 H 0.58092 0.91648 0.97934 0.0
H1559 H 0.55764 0.89613 0.98766 0.0
H1560 H 0.5481 0.88864 0.943 0.0
H1561 H 0.57142 0.9091 0.93453 0.0
H1562 H 0.54144 0.91356 0.92379 0.0
H1563 H 0.51182 0.99635 0.95698 0.0
H1564 H 0.54998 0.01831 0.95294 0.0
H1565 H 0.58835 0.95112 0.95366 0.0
C1566 C 0.50718 0.9042 0.9766 0.0
C1567 C 0.48332 0.90827 0.98335 0.0
C1568 C 0.47293 0.93096 0.97947 0.0
C1569 C 0.48655 0.94972 0.96993 0.0
C1570 C 0.51031 0.94526 0.96398 0.0
C1571 C 0.5204 0.92292 0.96693 0.0
C1572 C 0.54675 0.92309 0.96139 0.0
C1573 C 0.56152 0.91503 0.98313 0.0
C1574 C 0.55224 0.90769 0.93936 0.0
C1575 C 0.55026 0.94927 0.9561 0.0
C1576 C 0.52904 0.9618 0.95725 0.0
C1577 C 0.52845 0.98665 0.95546 0.0
C1578 C 0.55017 -0.00102 0.95314 0.0
C1579 C 0.57203 0.98637 0.95287 0.0
C1580 C 0.57187 0.96122 0.95351 0.0
H1581 H 0.93958 0.03637 0.45961 0.0
H1582 H 0.89873 0.08715 0.41799 0.0
H1583 H 0.92751 0.11893 0.42871 0.0
H1584 H 0.94852 0.07174 0.50674 0.0
H1585 H 0.97834 0.06197 0.51378 0.0
H1586 H 0.95833 0.04224 0.49842 0.0
H1587 H 0.98862 0.03734 0.46379 0.0
H1588 H 0.0091 0.05663 0.47935 0.0
H1589 H 0.00038 0.06346 0.44916 0.0
H1590 H 0.95645 0.14617 0.45009 0.0
H1591 H 0.98469 0.16586 0.47779 0.0
H1592 H 0.00521 0.09666 0.50576 0.0
C1593 C 0.9372 0.05398 0.45199 0.0
C1594 C 0.91711 0.0594 0.43794 0.0
C1595 C 0.91427 0.08265 0.42855 0.0
C1596 C 0.93046 0.10078 0.43462 0.0
C1597 C 0.9494 0.09512 0.44976 0.0
C1598 C 0.95305 0.07211 0.45792 0.0
C1599 C 0.97291 0.07095 0.47606 0.0
C1600 C 0.96397 0.06116 0.50016 0.0
C1601 C 0.99401 0.05623 0.46651 0.0
C1602 C 0.97916 0.09704 0.47775 0.0
C1603 C 0.96574 0.11074 0.46223 0.0
C1604 C 0.96738 0.13557 0.46195 0.0
C1605 C 0.98329 0.14659 0.47784 0.0
C1606 C -0.00297 0.13272 0.49387 0.0
C1607 C 0.99497 0.1077 0.49364 0.0
loop_
_geom_bond_atom_site_label_1
_geom_bond_atom_site_label_2
_geom_bond_distance
_geom_bond_site_symmetry_2
_ccdc_geom_bond_type
In0 O1 2.294 . S
In0 O2 2.326 . S
In0 O6 2.266 . S
In0 O7 2.326 . S
In0 O8 2.266 . S
In0 O9 2.326 . S
In0 O11 2.294 . S
In0 O12 2.326 . S
O1 In0 2.294 . S
O1 C10 1.240 . S
O2 In0 2.326 . S
O2 C10 1.252 . S
C3 O6 1.252 . S
C3 O7 1.260 . S
C4 O11 1.240 . S
C4 O12 1.252 . S
C5 O8 1.252 . S
C5 O9 1.260 . S
O6 In0 2.266 . S
O6 C3 1.252 . S
O7 In0 2.326 . S
O7 C3 1.260 . S
O8 In0 2.266 . S
O8 C5 1.252 . S
O9 In0 2.326 . S
O9 C5 1.260 . S
C10 O1 1.240 . S
C10 O2 1.252 . S
O11 In0 2.294 . S
O11 C4 1.240 . S
O12 In0 2.326 . S
O12 C4 1.252 . S
In13 O14 2.294 . S
In13 O15 2.326 . S
In13 O19 2.266 . S
In13 O20 2.326 . S
In13 O21 2.266 . S
In13 O22 2.326 . S
In13 O24 2.294 . S
In13 O25 2.326 . S
O14 In13 2.294 . S
O14 C23 1.240 . S
O15 In13 2.326 . S
O15 C23 1.252 . S
C16 O19 1.252 . S
C16 O20 1.260 . S
C17 O24 1.240 . S
C17 O25 1.252 . S
C18 O21 1.252 . S
C18 O22 1.260 . S
O19 In13 2.266 . S
O19 C16 1.252 . S
O20 In13 2.326 . S
O20 C16 1.260 . S
O21 In13 2.266 . S
O21 C18 1.252 . S
O22 In13 2.326 . S
O22 C18 1.260 . S
C23 O14 1.240 . S
C23 O15 1.252 . S
O24 In13 2.294 . S
O24 C17 1.240 . S
O25 In13 2.326 . S
O25 C17 1.252 . S
In26 O27 2.294 . S
In26 O28 2.326 . S
In26 O32 2.266 . S
In26 O33 2.326 . S
In26 O34 2.266 . S
In26 O35 2.326 . S
In26 O37 2.294 . S
In26 O38 2.326 . S
O27 In26 2.294 . S
O27 C36 1.240 . S
O28 In26 2.326 . S
O28 C36 1.252 . S
C29 O32 1.252 . S
C29 O33 1.260 . S
C30 O37 1.240 . S
C30 O38 1.252 . S
C31 O34 1.252 . S
C31 O35 1.260 . S
O32 In26 2.266 . S
O32 C29 1.252 . S
O33 In26 2.326 . S
O33 C29 1.260 . S
O34 In26 2.266 . S
O34 C31 1.252 . S
O35 In26 2.326 . S
O35 C31 1.260 . S
C36 O27 1.240 . S
C36 O28 1.252 . S
O37 In26 2.294 . S
O37 C30 1.240 . S
O38 In26 2.326 . S
O38 C30 1.252 . S
In39 O40 2.294 . S
In39 O41 2.326 . S
In39 O45 2.266 . S
In39 O46 2.326 . S
In39 O47 2.266 . S
In39 O48 2.326 . S
In39 O50 2.294 . S
In39 O51 2.326 . S
O40 In39 2.294 . S
O40 C49 1.240 . S
O41 In39 2.326 . S
O41 C49 1.252 . S
C42 O45 1.252 . S
C42 O46 1.260 . S
C43 O50 1.240 . S
C43 O51 1.252 . S
C44 O47 1.252 . S
C44 O48 1.260 . S
O45 In39 2.266 . S
O45 C42 1.252 . S
O46 In39 2.326 . S
O46 C42 1.260 . S
O47 In39 2.266 . S
O47 C44 1.252 . S
O48 In39 2.326 . S
O48 C44 1.260 . S
C49 O40 1.240 . S
C49 O41 1.252 . S
O50 In39 2.294 . S
O50 C43 1.240 . S
O51 In39 2.326 . S
O51 C43 1.252 . S
In52 O53 2.294 . S
In52 O54 2.326 . S
In52 O58 2.266 . S
In52 O59 2.326 . S
In52 O60 2.266 . S
In52 O61 2.326 . S
In52 O63 2.294 . S
In52 O64 2.326 . S
O53 In52 2.294 . S
O53 C62 1.240 . S
O54 In52 2.326 . S
O54 C62 1.252 . S
C55 O58 1.252 . S
C55 O59 1.260 . S
C56 O63 1.240 . S
C56 O64 1.252 . S
C57 O60 1.252 . S
C57 O61 1.260 . S
O58 In52 2.266 . S
O58 C55 1.252 . S
O59 In52 2.326 . S
O59 C55 1.260 . S
O60 In52 2.266 . S
O60 C57 1.252 . S
O61 In52 2.326 . S
O61 C57 1.260 . S
C62 O53 1.240 . S
C62 O54 1.252 . S
O63 In52 2.294 . S
O63 C56 1.240 . S
O64 In52 2.326 . S
O64 C56 1.252 . S
In65 O66 2.294 . S
In65 O67 2.326 . S
In65 O71 2.266 . S
In65 O72 2.326 . S
In65 O73 2.266 . S
In65 O74 2.326 . S
In65 O76 2.294 . S
In65 O77 2.326 . S
O66 In65 2.294 . S
O66 C75 1.240 . S
O67 In65 2.326 . S
O67 C75 1.252 . S
C68 O71 1.252 . S
C68 O72 1.260 . S
C69 O76 1.240 . S
C69 O77 1.252 . S
C70 O73 1.252 . S
C70 O74 1.260 . S
O71 In65 2.266 . S
O71 C68 1.252 . S
O72 In65 2.326 . S
O72 C68 1.260 . S
O73 In65 2.266 . S
O73 C70 1.252 . S
O74 In65 2.326 . S
O74 C70 1.260 . S
C75 O66 1.240 . S
C75 O67 1.252 . S
O76 In65 2.294 . S
O76 C69 1.240 . S
O77 In65 2.326 . S
O77 C69 1.252 . S
In78 O79 2.294 . S
In78 O80 2.326 . S
In78 O84 2.266 . S
In78 O85 2.326 . S
In78 O86 2.266 . S
In78 O87 2.326 . S
In78 O89 2.294 . S
In78 O90 2.326 . S
O79 In78 2.294 . S
O79 C88 1.240 . S
O80 In78 2.326 . S
O80 C88 1.252 . S
C81 O84 1.252 . S
C81 O85 1.260 . S
C82 O89 1.240 . S
C82 O90 1.252 . S
C83 O86 1.252 . S
C83 O87 1.260 . S
O84 In78 2.266 . S
O84 C81 1.252 . S
O85 In78 2.326 . S
O85 C81 1.260 . S
O86 In78 2.266 . S
O86 C83 1.252 . S
O87 In78 2.326 . S
O87 C83 1.260 . S
C88 O79 1.240 . S
C88 O80 1.252 . S
O89 In78 2.294 . S
O89 C82 1.240 . S
O90 In78 2.326 . S
O90 C82 1.252 . S
In91 O92 2.294 . S
In91 O93 2.326 . S
In91 O97 2.266 . S
In91 O98 2.326 . S
In91 O99 2.266 . S
In91 O100 2.326 . S
In91 O102 2.294 . S
In91 O103 2.326 . S
O92 In91 2.294 . S
O92 C101 1.240 . S
O93 In91 2.326 . S
O93 C101 1.252 . S
C94 O97 1.252 . S
C94 O98 1.260 . S
C95 O102 1.240 . S
C95 O103 1.252 . S
C96 O99 1.252 . S
C96 O100 1.260 . S
O97 In91 2.266 . S
O97 C94 1.252 . S
O98 In91 2.326 . S
O98 C94 1.260 . S
O99 In91 2.266 . S
O99 C96 1.252 . S
O100 In91 2.326 . S
O100 C96 1.260 . S
C101 O92 1.240 . S
C101 O93 1.252 . S
O102 In91 2.294 . S
O102 C95 1.240 . S
O103 In91 2.326 . S
O103 C95 1.252 . S
In104 O105 2.294 . S
In104 O106 2.326 . S
In104 O110 2.266 . S
In104 O111 2.326 . S
In104 O112 2.266 . S
In104 O113 2.326 . S
In104 O115 2.294 . S
In104 O116 2.326 . S
O105 In104 2.294 . S
O105 C114 1.240 . S
O106 In104 2.326 . S
O106 C114 1.252 . S
C107 O110 1.252 . S
C107 O111 1.260 . S
C108 O115 1.240 . S
C108 O116 1.252 . S
C109 O112 1.252 . S
C109 O113 1.260 . S
O110 In104 2.266 . S
O110 C107 1.252 . S
O111 In104 2.326 . S
O111 C107 1.260 . S
O112 In104 2.266 . S
O112 C109 1.252 . S
O113 In104 2.326 . S
O113 C109 1.260 . S
C114 O105 1.240 . S
C114 O106 1.252 . S
O115 In104 2.294 . S
O115 C108 1.240 . S
O116 In104 2.326 . S
O116 C108 1.252 . S
In117 O118 2.294 . S
In117 O119 2.326 . S
In117 O123 2.266 . S
In117 O124 2.326 . S
In117 O125 2.266 . S
In117 O126 2.326 . S
In117 O128 2.294 . S
In117 O129 2.326 . S
O118 In117 2.294 . S
O118 C127 1.240 . S
O119 In117 2.326 . S
O119 C127 1.252 . S
C120 O123 1.252 . S
C120 O124 1.260 . S
C121 O128 1.240 . S
C121 O129 1.252 . S
C122 O125 1.252 . S
C122 O126 1.260 . S
O123 In117 2.266 . S
O123 C120 1.252 . S
O124 In117 2.326 . S
O124 C120 1.260 . S
O125 In117 2.266 . S
O125 C122 1.252 . S
O126 In117 2.326 . S
O126 C122 1.260 . S
C127 O118 1.240 . S
C127 O119 1.252 . S
O128 In117 2.294 . S
O128 C121 1.240 . S
O129 In117 2.326 . S
O129 C121 1.252 . S
In130 O131 2.294 . S
In130 O132 2.326 . S
In130 O136 2.266 . S
In130 O137 2.326 . S
In130 O138 2.266 . S
In130 O139 2.326 . S
In130 O141 2.294 . S
In130 O142 2.326 . S
O131 In130 2.294 . S
O131 C140 1.240 . S
O132 In130 2.326 . S
O132 C140 1.252 . S
C133 O136 1.252 . S
C133 O137 1.260 . S
C134 O141 1.240 . S
C134 O142 1.252 . S
C135 O138 1.252 . S
C135 O139 1.260 . S
O136 In130 2.266 . S
O136 C133 1.252 . S
O137 In130 2.326 . S
O137 C133 1.260 . S
O138 In130 2.266 . S
O138 C135 1.252 . S
O139 In130 2.326 . S
O139 C135 1.260 . S
C140 O131 1.240 . S
C140 O132 1.252 . S
O141 In130 2.294 . S
O141 C134 1.240 . S
O142 In130 2.326 . S
O142 C134 1.252 . S
In143 O144 2.294 . S
In143 O145 2.326 . S
In143 O149 2.266 . S
In143 O150 2.326 . S
In143 O151 2.266 . S
In143 O152 2.326 . S
In143 O154 2.294 . S
In143 O155 2.326 . S
O144 In143 2.294 . S
O144 C153 1.240 . S
O145 In143 2.326 . S
O145 C153 1.252 . S
C146 O149 1.252 . S
C146 O150 1.260 . S
C147 O154 1.240 . S
C147 O155 1.252 . S
C148 O151 1.252 . S
C148 O152 1.260 . S
O149 In143 2.266 . S
O149 C146 1.252 . S
O150 In143 2.326 . S
O150 C146 1.260 . S
O151 In143 2.266 . S
O151 C148 1.252 . S
O152 In143 2.326 . S
O152 C148 1.260 . S
C153 O144 1.240 . S
C153 O145 1.252 . S
O154 In143 2.294 . S
O154 C147 1.240 . S
O155 In143 2.326 . S
O155 C147 1.252 . S
In156 O157 2.294 . S
In156 O158 2.326 . S
In156 O162 2.266 . S
In156 O163 2.326 . S
In156 O164 2.266 . S
In156 O165 2.326 . S
In156 O167 2.294 . S
In156 O168 2.326 . S
O157 In156 2.294 . S
O157 C166 1.240 . S
O158 In156 2.326 . S
O158 C166 1.252 . S
C159 O162 1.252 . S
C159 O163 1.260 . S
C160 O167 1.240 . S
C160 O168 1.252 . S
C161 O164 1.252 . S
C161 O165 1.260 . S
O162 In156 2.266 . S
O162 C159 1.252 . S
O163 In156 2.326 . S
O163 C159 1.260 . S
O164 In156 2.266 . S
O164 C161 1.252 . S
O165 In156 2.326 . S
O165 C161 1.260 . S
C166 O157 1.240 . S
C166 O158 1.252 . S
O167 In156 2.294 . S
O167 C160 1.240 . S
O168 In156 2.326 . S
O168 C160 1.252 . S
In169 O170 2.294 . S
In169 O171 2.326 . S
In169 O175 2.266 . S
In169 O176 2.326 . S
In169 O177 2.266 . S
In169 O178 2.326 . S
In169 O180 2.294 . S
In169 O181 2.326 . S
O170 In169 2.294 . S
O170 C179 1.240 . S
O171 In169 2.326 . S
O171 C179 1.252 . S
C172 O175 1.252 . S
C172 O176 1.260 . S
C173 O180 1.240 . S
C173 O181 1.252 . S
C174 O177 1.252 . S
C174 O178 1.260 . S
O175 In169 2.266 . S
O175 C172 1.252 . S
O176 In169 2.326 . S
O176 C172 1.260 . S
O177 In169 2.266 . S
O177 C174 1.252 . S
O178 In169 2.326 . S
O178 C174 1.260 . S
C179 O170 1.240 . S
C179 O171 1.252 . S
O180 In169 2.294 . S
O180 C173 1.240 . S
O181 In169 2.326 . S
O181 C173 1.252 . S
In182 O183 2.294 . S
In182 O184 2.326 . S
In182 O188 2.266 . S
In182 O189 2.326 . S
In182 O190 2.266 . S
In182 O191 2.326 . S
In182 O193 2.294 . S
In182 O194 2.326 . S
O183 In182 2.294 . S
O183 C192 1.240 . S
O184 In182 2.326 . S
O184 C192 1.252 . S
C185 O188 1.252 . S
C185 O189 1.260 . S
C186 O193 1.240 . S
C186 O194 1.252 . S
C187 O190 1.252 . S
C187 O191 1.260 . S
O188 In182 2.266 . S
O188 C185 1.252 . S
O189 In182 2.326 . S
O189 C185 1.260 . S
O190 In182 2.266 . S
O190 C187 1.252 . S
O191 In182 2.326 . S
O191 C187 1.260 . S
C192 O183 1.240 . S
C192 O184 1.252 . S
O193 In182 2.294 . S
O193 C186 1.240 . S
O194 In182 2.326 . S
O194 C186 1.252 . S
In195 O196 2.294 . S
In195 O197 2.326 . S
In195 O201 2.266 . S
In195 O202 2.326 . S
In195 O203 2.266 . S
In195 O204 2.326 . S
In195 O206 2.294 . S
In195 O207 2.326 . S
O196 In195 2.294 . S
O196 C205 1.240 . S
O197 In195 2.326 . S
O197 C205 1.252 . S
C198 O201 1.252 . S
C198 O202 1.260 . S
C199 O206 1.240 . S
C199 O207 1.252 . S
C200 O203 1.252 . S
C200 O204 1.260 . S
O201 In195 2.266 . S
O201 C198 1.252 . S
O202 In195 2.326 . S
O202 C198 1.260 . S
O203 In195 2.266 . S
O203 C200 1.252 . S
O204 In195 2.326 . S
O204 C200 1.260 . S
C205 O196 1.240 . S
C205 O197 1.252 . S
O206 In195 2.294 . S
O206 C199 1.240 . S
O207 In195 2.326 . S
O207 C199 1.252 . S
In208 O209 2.294 . S
In208 O210 2.326 . S
In208 O214 2.266 . S
In208 O215 2.326 . S
In208 O216 2.266 . S
In208 O217 2.326 . S
In208 O219 2.294 . S
In208 O220 2.326 . S
O209 In208 2.294 . S
O209 C218 1.240 . S
O210 In208 2.326 . S
O210 C218 1.252 . S
C211 O214 1.252 . S
C211 O215 1.260 . S
C212 O219 1.240 . S
C212 O220 1.252 . S
C213 O216 1.252 . S
C213 O217 1.260 . S
O214 In208 2.266 . S
O214 C211 1.252 . S
O215 In208 2.326 . S
O215 C211 1.260 . S
O216 In208 2.266 . S
O216 C213 1.252 . S
O217 In208 2.326 . S
O217 C213 1.260 . S
C218 O209 1.240 . S
C218 O210 1.252 . S
O219 In208 2.294 . S
O219 C212 1.240 . S
O220 In208 2.326 . S
O220 C212 1.252 . S
In221 O222 2.294 . S
In221 O223 2.326 . S
In221 O227 2.266 . S
In221 O228 2.326 . S
In221 O229 2.266 . S
In221 O230 2.326 . S
In221 O232 2.294 . S
In221 O233 2.326 . S
O222 In221 2.294 . S
O222 C231 1.240 . S
O223 In221 2.326 . S
O223 C231 1.252 . S
C224 O227 1.252 . S
C224 O228 1.260 . S
C225 O232 1.240 . S
C225 O233 1.252 . S
C226 O229 1.252 . S
C226 O230 1.260 . S
O227 In221 2.266 . S
O227 C224 1.252 . S
O228 In221 2.326 . S
O228 C224 1.260 . S
O229 In221 2.266 . S
O229 C226 1.252 . S
O230 In221 2.326 . S
O230 C226 1.260 . S
C231 O222 1.240 . S
C231 O223 1.252 . S
O232 In221 2.294 . S
O232 C225 1.240 . S
O233 In221 2.326 . S
O233 C225 1.252 . S
In234 O235 2.294 . S
In234 O236 2.326 . S
In234 O240 2.266 . S
In234 O241 2.326 . S
In234 O242 2.266 . S
In234 O243 2.326 . S
In234 O245 2.294 . S
In234 O246 2.326 . S
O235 In234 2.294 . S
O235 C244 1.240 . S
O236 In234 2.326 . S
O236 C244 1.252 . S
C237 O240 1.252 . S
C237 O241 1.260 . S
C238 O245 1.240 . S
C238 O246 1.252 . S
C239 O242 1.252 . S
C239 O243 1.260 . S
O240 In234 2.266 . S
O240 C237 1.252 . S
O241 In234 2.326 . S
O241 C237 1.260 . S
O242 In234 2.266 . S
O242 C239 1.252 . S
O243 In234 2.326 . S
O243 C239 1.260 . S
C244 O235 1.240 . S
C244 O236 1.252 . S
O245 In234 2.294 . S
O245 C238 1.240 . S
O246 In234 2.326 . S
O246 C238 1.252 . S
In247 O248 2.294 . S
In247 O249 2.326 . S
In247 O253 2.266 . S
In247 O254 2.326 . S
In247 O255 2.266 . S
In247 O256 2.326 . S
In247 O258 2.294 . S
In247 O259 2.326 . S
O248 In247 2.294 . S
O248 C257 1.240 . S
O249 In247 2.326 . S
O249 C257 1.252 . S
C250 O253 1.252 . S
C250 O254 1.260 . S
C251 O258 1.240 . S
C251 O259 1.252 . S
C252 O255 1.252 . S
C252 O256 1.260 . S
O253 In247 2.266 . S
O253 C250 1.252 . S
O254 In247 2.326 . S
O254 C250 1.260 . S
O255 In247 2.266 . S
O255 C252 1.252 . S
O256 In247 2.326 . S
O256 C252 1.260 . S
C257 O248 1.240 . S
C257 O249 1.252 . S
O258 In247 2.294 . S
O258 C251 1.240 . S
O259 In247 2.326 . S
O259 C251 1.252 . S
In260 O261 2.294 . S
In260 O262 2.326 . S
In260 O266 2.266 . S
In260 O267 2.326 . S
In260 O268 2.266 . S
In260 O269 2.326 . S
In260 O271 2.294 . S
In260 O272 2.326 . S
O261 In260 2.294 . S
O261 C270 1.240 . S
O262 In260 2.326 . S
O262 C270 1.252 . S
C263 O266 1.252 . S
C263 O267 1.260 . S
C264 O271 1.240 . S
C264 O272 1.252 . S
C265 O268 1.252 . S
C265 O269 1.260 . S
O266 In260 2.266 . S
O266 C263 1.252 . S
O267 In260 2.326 . S
O267 C263 1.260 . S
O268 In260 2.266 . S
O268 C265 1.252 . S
O269 In260 2.326 . S
O269 C265 1.260 . S
C270 O261 1.240 . S
C270 O262 1.252 . S
O271 In260 2.294 . S
O271 C264 1.240 . S
O272 In260 2.326 . S
O272 C264 1.252 . S
In273 O274 2.294 . S
In273 O275 2.326 . S
In273 O279 2.266 . S
In273 O280 2.326 . S
In273 O281 2.266 . S
In273 O282 2.326 . S
In273 O284 2.294 . S
In273 O285 2.326 . S
O274 In273 2.294 . S
O274 C283 1.240 . S
O275 In273 2.326 . S
O275 C283 1.252 . S
C276 O279 1.252 . S
C276 O280 1.260 . S
C277 O284 1.240 . S
C277 O285 1.252 . S
C278 O281 1.252 . S
C278 O282 1.260 . S
O279 In273 2.266 . S
O279 C276 1.252 . S
O280 In273 2.326 . S
O280 C276 1.260 . S
O281 In273 2.266 . S
O281 C278 1.252 . S
O282 In273 2.326 . S
O282 C278 1.260 . S
C283 O274 1.240 . S
C283 O275 1.252 . S
O284 In273 2.294 . S
O284 C277 1.240 . S
O285 In273 2.326 . S
O285 C277 1.252 . S
In286 O287 2.294 . S
In286 O288 2.326 . S
In286 O292 2.266 . S
In286 O293 2.326 . S
In286 O294 2.266 . S
In286 O295 2.326 . S
In286 O297 2.294 . S
In286 O298 2.326 . S
O287 In286 2.294 . S
O287 C296 1.240 . S
O288 In286 2.326 . S
O288 C296 1.252 . S
C289 O292 1.252 . S
C289 O293 1.260 . S
C290 O297 1.240 . S
C290 O298 1.252 . S
C291 O294 1.252 . S
C291 O295 1.260 . S
O292 In286 2.266 . S
O292 C289 1.252 . S
O293 In286 2.326 . S
O293 C289 1.260 . S
O294 In286 2.266 . S
O294 C291 1.252 . S
O295 In286 2.326 . S
O295 C291 1.260 . S
C296 O287 1.240 . S
C296 O288 1.252 . S
O297 In286 2.294 . S
O297 C290 1.240 . S
O298 In286 2.326 . S
O298 C290 1.252 . S
In299 O300 2.294 . S
In299 O301 2.326 . S
In299 O305 2.266 . S
In299 O306 2.326 . S
In299 O307 2.266 . S
In299 O308 2.326 . S
In299 O310 2.294 . S
In299 O311 2.326 . S
O300 In299 2.294 . S
O300 C309 1.240 . S
O301 In299 2.326 . S
O301 C309 1.252 . S
C302 O305 1.252 . S
C302 O306 1.260 . S
C303 O310 1.240 . S
C303 O311 1.252 . S
C304 O307 1.252 . S
C304 O308 1.260 . S
O305 In299 2.266 . S
O305 C302 1.252 . S
O306 In299 2.326 . S
O306 C302 1.260 . S
O307 In299 2.266 . S
O307 C304 1.252 . S
O308 In299 2.326 . S
O308 C304 1.260 . S
C309 O300 1.240 . S
C309 O301 1.252 . S
O310 In299 2.294 . S
O310 C303 1.240 . S
O311 In299 2.326 . S
O311 C303 1.252 . S
H312 C324 0.930 . S
H313 C326 0.930 . S
H314 C327 0.930 . S
H315 C331 0.959 . S
H316 C331 0.959 . S
H317 C331 0.961 . S
H318 C332 0.960 . S
H319 C332 0.961 . S
H320 C332 0.959 . S
H321 C335 0.929 . S
H322 C336 0.931 . S
H323 C338 0.930 . S
C324 H312 0.930 . S
C324 C325 1.399 . S
C324 C329 1.399 . S
C325 C324 1.399 . S
C325 C326 1.376 . S
C326 H313 0.930 . S
C326 C325 1.376 . S
C326 C327 1.388 . S
C327 H314 0.930 . S
C327 C326 1.388 . S
C327 C328 1.390 . S
C328 C327 1.390 . S
C328 C329 1.394 . S
C328 C334 1.465 . S
C329 C324 1.399 . S
C329 C328 1.394 . S
C329 C330 1.516 . S
C330 C329 1.516 . S
C330 C331 1.502 . S
C330 C332 1.561 . S
C330 C333 1.526 . S
C331 H315 0.959 . S
C331 H316 0.959 . S
C331 H317 0.961 . S
C331 C330 1.502 . S
C332 H318 0.960 . S
C332 H319 0.961 . S
C332 H320 0.959 . S
C332 C330 1.561 . S
C333 C330 1.526 . S
C333 C334 1.396 . S
C333 C338 1.390 . S
C334 C328 1.465 . S
C334 C333 1.396 . S
C334 C335 1.399 . S
C335 H321 0.929 . S
C335 C334 1.399 . S
C335 C336 1.385 . S
C336 H322 0.931 . S
C336 C335 1.385 . S
C336 C337 1.389 . S
C337 C336 1.389 . S
C337 C338 1.387 . S
C338 H323 0.930 . S
C338 C333 1.390 . S
C338 C337 1.387 . S
H339 C351 0.930 . S
H340 C353 0.930 . S
H341 C354 0.930 . S
H342 C358 0.959 . S
H343 C358 0.959 . S
H344 C358 0.961 . S
H345 C359 0.960 1_655 S
H346 C359 0.961 . S
H347 C359 0.959 . S
H348 C362 0.929 . S
H349 C363 0.931 . S
H350 C365 0.930 . S
C351 H339 0.930 . S
C351 C352 1.399 . S
C351 C356 1.386 1_655 S
C352 C351 1.399 . S
C352 C353 1.376 1_655 S
C353 H340 0.930 . S
C353 C352 1.376 1_455 S
C353 C354 1.388 . S
C354 H341 0.930 . S
C354 C353 1.388 . S
C354 C355 1.390 . S
C355 C354 1.390 . S
C355 C356 1.408 . S
C355 C361 1.465 . S
C356 C351 1.386 1_455 S
C356 C355 1.408 . S
C356 C357 1.518 . S
C357 C356 1.518 . S
C357 C358 1.502 1_455 S
C357 C359 1.561 . S
C357 C360 1.526 . S
C358 H342 0.959 . S
C358 H343 0.959 . S
C358 H344 0.961 . S
C358 C357 1.502 1_655 S
C359 H345 0.960 1_455 S
C359 H346 0.961 . S
C359 H347 0.959 . S
C359 C357 1.561 . S
C360 C357 1.526 . S
C360 C361 1.396 . S
C360 C365 1.390 . S
C361 C355 1.465 . S
C361 C360 1.396 . S
C361 C362 1.399 . S
C362 H348 0.929 . S
C362 C361 1.399 . S
C362 C363 1.385 . S
C363 H349 0.931 . S
C363 C362 1.385 . S
C363 C364 1.389 . S
C364 C363 1.389 . S
C364 C365 1.387 . S
C365 H350 0.930 . S
C365 C360 1.390 . S
C365 C364 1.387 . S
H366 C378 0.930 . S
H367 C380 0.930 . S
H368 C381 0.930 . S
H369 C385 0.959 . S
H370 C385 0.959 1_554 S
H371 C385 0.961 . S
H372 C386 0.960 . S
H373 C386 0.961 . S
H374 C386 0.959 . S
H375 C389 0.929 . S
H376 C390 0.931 . S
H377 C392 0.930 . S
C378 H366 0.930 . S
C378 C379 1.399 . S
C378 C383 1.399 . S
C379 C378 1.399 . S
C379 C380 1.376 . S
C380 H367 0.930 . S
C380 C379 1.376 . S
C380 C381 1.388 . S
C381 H368 0.930 . S
C381 C380 1.388 . S
C381 C382 1.390 . S
C382 C381 1.390 . S
C382 C383 1.394 . S
C382 C388 1.465 . S
C383 C378 1.399 . S
C383 C382 1.394 . S
C383 C384 1.516 . S
C384 C383 1.516 . S
C384 C385 1.502 . S
C384 C386 1.561 1_556 S
C384 C387 1.529 . S
C385 H369 0.959 . S
C385 H370 0.959 1_556 S
C385 H371 0.961 . S
C385 C384 1.502 . S
C386 H372 0.960 . S
C386 H373 0.961 . S
C386 H374 0.959 . S
C386 C384 1.561 1_554 S
C387 C384 1.529 . S
C387 C388 1.410 . S
C387 C392 1.375 1_556 S
C388 C382 1.465 . S
C388 C387 1.410 . S
C388 C389 1.399 . S
C389 H375 0.929 . S
C389 C388 1.399 . S
C389 C390 1.385 1_556 S
C390 H376 0.931 . S
C390 C389 1.385 1_554 S
C390 C391 1.389 . S
C391 C390 1.389 . S
C391 C392 1.387 . S
C392 H377 0.930 . S
C392 C387 1.375 1_554 S
C392 C391 1.387 . S
H393 C405 0.930 . S
H394 C407 0.930 . S
H395 C408 0.930 . S
H396 C412 0.959 . S
H397 C412 0.959 . S
H398 C412 0.961 . S
H399 C413 0.960 . S
H400 C413 0.961 . S
H401 C413 0.959 . S
H402 C416 0.929 . S
H403 C417 0.931 . S
H404 C419 0.930 . S
C405 H393 0.930 . S
C405 C406 1.399 . S
C405 C410 1.399 . S
C406 C405 1.399 . S
C406 C407 1.376 . S
C407 H394 0.930 . S
C407 C406 1.376 . S
C407 C408 1.388 . S
C408 H395 0.930 . S
C408 C407 1.388 . S
C408 C409 1.390 . S
C409 C408 1.390 . S
C409 C410 1.394 . S
C409 C415 1.465 . S
C410 C405 1.399 . S
C410 C409 1.394 . S
C410 C411 1.516 . S
C411 C410 1.516 . S
C411 C412 1.502 . S
C411 C413 1.561 . S
C411 C414 1.526 . S
C412 H396 0.959 . S
C412 H397 0.959 . S
C412 H398 0.961 . S
C412 C411 1.502 . S
C413 H399 0.960 . S
C413 H400 0.961 . S
C413 H401 0.959 . S
C413 C411 1.561 . S
C414 C411 1.526 . S
C414 C415 1.396 . S
C414 C419 1.390 . S
C415 C409 1.465 . S
C415 C414 1.396 . S
C415 C416 1.399 . S
C416 H402 0.929 . S
C416 C415 1.399 . S
C416 C417 1.385 . S
C417 H403 0.931 . S
C417 C416 1.385 . S
C417 C418 1.389 . S
C418 C417 1.389 . S
C418 C419 1.387 . S
C419 H404 0.930 . S
C419 C414 1.390 . S
C419 C418 1.387 . S
H420 C432 0.930 . S
H421 C434 0.930 . S
H422 C435 0.930 . S
H423 C439 0.959 . S
H424 C439 0.959 . S
H425 C439 0.961 . S
H426 C440 0.960 . S
H427 C440 0.961 . S
H428 C440 0.959 . S
H429 C443 0.929 . S
H430 C444 0.931 . S
H431 C446 0.930 . S
C432 H420 0.930 . S
C432 C433 1.399 . S
C432 C437 1.399 . S
C433 C432 1.399 . S
C433 C434 1.376 . S
C434 H421 0.930 . S
C434 C433 1.376 . S
C434 C435 1.388 . S
C435 H422 0.930 . S
C435 C434 1.388 . S
C435 C436 1.390 . S
C436 C435 1.390 . S
C436 C437 1.394 . S
C436 C442 1.465 . S
C437 C432 1.399 . S
C437 C436 1.394 . S
C437 C438 1.516 . S
C438 C437 1.516 . S
C438 C439 1.502 . S
C438 C440 1.561 . S
C438 C441 1.526 . S
C439 H423 0.959 . S
C439 H424 0.959 . S
C439 H425 0.961 . S
C439 C438 1.502 . S
C440 H426 0.960 . S
C440 H427 0.961 . S
C440 H428 0.959 . S
C440 C438 1.561 . S
C441 C438 1.526 . S
C441 C442 1.396 . S
C441 C446 1.390 . S
C442 C436 1.465 . S
C442 C441 1.396 . S
C442 C443 1.399 . S
C443 H429 0.929 . S
C443 C442 1.399 . S
C443 C444 1.385 . S
C444 H430 0.931 . S
C444 C443 1.385 . S
C444 C445 1.389 . S
C445 C444 1.389 . S
C445 C446 1.387 . S
C446 H431 0.930 . S
C446 C441 1.390 . S
C446 C445 1.387 . S
H447 C459 0.930 . S
H448 C461 0.930 . S
H449 C462 0.930 . S
H450 C466 0.959 . S
H451 C466 0.959 . S
H452 C466 0.961 . S
H453 C467 0.960 . S
H454 C467 0.961 . S
H455 C467 0.959 . S
H456 C470 0.929 . S
H457 C471 0.931 . S
H458 C473 0.942 . S
C459 H447 0.930 . S
C459 C460 1.399 . S
C459 C464 1.399 . S
C460 C459 1.399 . S
C460 C461 1.376 . S
C461 H448 0.930 . S
C461 C460 1.376 . S
C461 C462 1.388 . S
C462 H449 0.930 . S
C462 C461 1.388 . S
C462 C463 1.390 . S
C463 C462 1.390 . S
C463 C464 1.394 . S
C463 C469 1.465 . S
C464 C459 1.399 . S
C464 C463 1.394 . S
C464 C465 1.516 . S
C465 C464 1.516 . S
C465 C466 1.502 . S
C465 C467 1.561 . S
C465 C468 1.526 . S
C466 H450 0.959 . S
C466 H451 0.959 . S
C466 H452 0.961 . S
C466 C465 1.502 . S
C467 H453 0.960 . S
C467 H454 0.961 . S
C467 H455 0.959 . S
C467 C465 1.561 . S
C468 C465 1.526 . S
C468 C469 1.396 . S
C468 C473 1.410 . S
C469 C463 1.465 . S
C469 C468 1.396 . S
C469 C470 1.399 1_655 S
C470 H456 0.929 . S
C470 C469 1.399 1_455 S
C470 C471 1.385 . S
C471 H457 0.931 . S
C471 C470 1.385 . S
C471 C472 1.389 . S
C472 C471 1.389 . S
C472 C473 1.355 1_455 S
C473 H458 0.942 . S
C473 C468 1.410 . S
C473 C472 1.355 1_655 S
H474 C486 0.930 . S
H475 C488 0.930 . S
H476 C489 0.930 . S
H477 C493 0.959 . S
H478 C493 0.959 . S
H479 C493 0.961 . S
H480 C494 0.960 . S
H481 C494 0.961 . S
H482 C494 0.959 . S
H483 C497 0.929 . S
H484 C498 0.931 . S
H485 C500 0.930 . S
C486 H474 0.930 . S
C486 C487 1.399 . S
C486 C491 1.399 . S
C487 C486 1.399 . S
C487 C488 1.376 . S
C488 H475 0.930 . S
C488 C487 1.376 . S
C488 C489 1.388 . S
C489 H476 0.930 . S
C489 C488 1.388 . S
C489 C490 1.390 . S
C490 C489 1.390 . S
C490 C491 1.394 . S
C490 C496 1.465 . S
C491 C486 1.399 . S
C491 C490 1.394 . S
C491 C492 1.516 . S
C492 C491 1.516 . S
C492 C493 1.502 . S
C492 C494 1.561 . S
C492 C495 1.526 . S
C493 H477 0.959 . S
C493 H478 0.959 . S
C493 H479 0.961 . S
C493 C492 1.502 . S
C494 H480 0.960 . S
C494 H481 0.961 . S
C494 H482 0.959 . S
C494 C492 1.561 . S
C495 C492 1.526 . S
C495 C496 1.396 . S
C495 C500 1.390 . S
C496 C490 1.465 . S
C496 C495 1.396 . S
C496 C497 1.399 1_554 S
C497 H483 0.929 . S
C497 C496 1.399 1_556 S
C497 C498 1.385 . S
C498 H484 0.931 . S
C498 C497 1.385 . S
C498 C499 1.389 . S
C499 C498 1.389 . S
C499 C500 1.387 1_556 S
C500 H485 0.930 . S
C500 C495 1.390 . S
C500 C499 1.387 1_554 S
H501 C513 0.930 . S
H502 C515 0.930 . S
H503 C516 0.930 . S
H504 C520 0.959 . S
H505 C520 0.959 . S
H506 C520 0.961 . S
H507 C521 0.960 . S
H508 C521 0.961 . S
H509 C521 0.959 . S
H510 C524 0.929 . S
H511 C525 0.931 . S
H512 C527 0.930 . S
C513 H501 0.930 . S
C513 C514 1.399 . S
C513 C518 1.399 . S
C514 C513 1.399 . S
C514 C515 1.376 . S
C515 H502 0.930 . S
C515 C514 1.376 . S
C515 C516 1.388 . S
C516 H503 0.930 . S
C516 C515 1.388 . S
C516 C517 1.390 . S
C517 C516 1.390 . S
C517 C518 1.394 . S
C517 C523 1.465 . S
C518 C513 1.399 . S
C518 C517 1.394 . S
C518 C519 1.516 . S
C519 C518 1.516 . S
C519 C520 1.502 . S
C519 C521 1.561 . S
C519 C522 1.526 . S
C520 H504 0.959 . S
C520 H505 0.959 . S
C520 H506 0.961 . S
C520 C519 1.502 . S
C521 H507 0.960 . S
C521 H508 0.961 . S
C521 H509 0.959 . S
C521 C519 1.561 . S
C522 C519 1.526 . S
C522 C523 1.396 . S
C522 C527 1.390 . S
C523 C517 1.465 . S
C523 C522 1.396 . S
C523 C524 1.399 . S
C524 H510 0.929 . S
C524 C523 1.399 . S
C524 C525 1.385 . S
C525 H511 0.931 . S
C525 C524 1.385 . S
C525 C526 1.389 . S
C526 C525 1.389 . S
C526 C527 1.387 . S
C527 H512 0.930 . S
C527 C522 1.390 . S
C527 C526 1.387 . S
H528 C540 0.930 . S
H529 C542 0.930 . S
H530 C543 0.930 . S
H531 C547 0.959 . S
H532 C547 0.959 . S
H533 C547 0.961 . S
H534 C548 0.960 . S
H535 C548 0.961 . S
H536 C548 0.959 . S
H537 C551 0.929 . S
H538 C552 0.931 . S
H539 C554 0.930 . S
C540 H528 0.930 . S
C540 C541 1.399 . S
C540 C545 1.399 . S
C541 C540 1.399 . S
C541 C542 1.376 . S
C542 H529 0.930 . S
C542 C541 1.376 . S
C542 C543 1.388 . S
C543 H530 0.930 . S
C543 C542 1.388 . S
C543 C544 1.390 . S
C544 C543 1.390 . S
C544 C545 1.394 . S
C544 C550 1.465 . S
C545 C540 1.399 . S
C545 C544 1.394 . S
C545 C546 1.516 . S
C546 C545 1.516 . S
C546 C547 1.502 . S
C546 C548 1.561 . S
C546 C549 1.526 . S
C547 H531 0.959 . S
C547 H532 0.959 . S
C547 H533 0.961 . S
C547 C546 1.502 . S
C548 H534 0.960 . S
C548 H535 0.961 . S
C548 H536 0.959 . S
C548 C546 1.561 . S
C549 C546 1.526 . S
C549 C550 1.396 . S
C549 C554 1.390 . S
C550 C544 1.465 . S
C550 C549 1.396 . S
C550 C551 1.399 . S
C551 H537 0.929 . S
C551 C550 1.399 . S
C551 C552 1.385 . S
C552 H538 0.931 . S
C552 C551 1.385 . S
C552 C553 1.389 . S
C553 C552 1.389 . S
C553 C554 1.387 . S
C554 H539 0.930 . S
C554 C549 1.390 . S
C554 C553 1.387 . S
H555 C567 0.930 . S
H556 C569 0.930 1_565 S
H557 C570 0.930 . S
H558 C574 0.959 . S
H559 C574 0.959 . S
H560 C574 0.961 . S
H561 C575 0.970 . S
H562 C575 0.961 . S
H563 C575 0.959 . S
H564 C578 0.929 . S
H565 C579 0.931 . S
H566 C581 0.930 . S
C567 H555 0.930 . S
C567 C568 1.399 . S
C567 C572 1.399 1_565 S
C568 C567 1.399 . S
C568 C569 1.366 1_565 S
C569 H556 0.930 1_545 S
C569 C568 1.366 1_545 S
C569 C570 1.400 . S
C570 H557 0.930 . S
C570 C569 1.400 . S
C570 C571 1.390 . S
C571 C570 1.390 . S
C571 C572 1.394 . S
C571 C577 1.465 . S
C572 C567 1.399 1_545 S
C572 C571 1.394 . S
C572 C573 1.516 . S
C573 C572 1.516 . S
C573 C574 1.502 1_545 S
C573 C575 1.561 . S
C573 C576 1.526 . S
C574 H558 0.959 . S
C574 H559 0.959 . S
C574 H560 0.961 . S
C574 C573 1.502 1_565 S
C575 H561 0.970 . S
C575 H562 0.961 . S
C575 H563 0.959 . S
C575 C573 1.561 . S
C576 C573 1.526 . S
C576 C577 1.396 . S
C576 C581 1.390 . S
C577 C571 1.465 . S
C577 C576 1.396 . S
C577 C578 1.399 . S
C578 H564 0.929 . S
C578 C577 1.399 . S
C578 C579 1.385 . S
C579 H565 0.931 . S
C579 C578 1.385 . S
C579 C580 1.389 . S
C580 C579 1.389 . S
C580 C581 1.387 . S
C581 H566 0.930 . S
C581 C576 1.390 . S
C581 C580 1.387 . S
H582 C594 0.930 . S
H583 C596 0.930 . S
H584 C597 0.930 . S
H585 C601 0.959 . S
H586 C601 0.959 . S
H587 C601 0.961 . S
H588 C602 0.960 . S
H589 C602 0.961 . S
H590 C602 0.959 . S
H591 C605 0.929 . S
H592 C606 0.931 . S
H593 C608 0.930 . S
C594 H582 0.930 . S
C594 C595 1.399 . S
C594 C599 1.399 . S
C595 C594 1.399 . S
C595 C596 1.376 . S
C596 H583 0.930 . S
C596 C595 1.376 . S
C596 C597 1.388 . S
C597 H584 0.930 . S
C597 C596 1.388 . S
C597 C598 1.390 . S
C598 C597 1.390 . S
C598 C599 1.394 . S
C598 C604 1.465 . S
C599 C594 1.399 . S
C599 C598 1.394 . S
C599 C600 1.516 . S
C600 C599 1.516 . S
C600 C601 1.502 1_565 S
C600 C602 1.561 . S
C600 C603 1.526 . S
C601 H585 0.959 . S
C601 H586 0.959 . S
C601 H587 0.961 . S
C601 C600 1.502 1_545 S
C602 H588 0.960 . S
C602 H589 0.961 . S
C602 H590 0.959 . S
C602 C600 1.561 . S
C603 C600 1.526 . S
C603 C604 1.396 . S
C603 C608 1.390 1_565 S
C604 C598 1.465 . S
C604 C603 1.396 . S
C604 C605 1.399 . S
C605 H591 0.929 . S
C605 C604 1.399 . S
C605 C606 1.385 1_565 S
C606 H592 0.931 . S
C606 C605 1.385 1_545 S
C606 C607 1.389 . S
C607 C606 1.389 . S
C607 C608 1.387 . S
C608 H593 0.930 . S
C608 C603 1.390 1_545 S
C608 C607 1.387 . S
H609 C621 0.930 . S
H610 C623 0.930 . S
H611 C624 0.930 . S
H612 C628 0.959 . S
H613 C628 0.959 . S
H614 C628 0.961 . S
H615 C629 0.960 . S
H616 C629 0.961 . S
H617 C629 0.959 . S
H618 C632 0.929 . S
H619 C633 0.931 . S
H620 C635 0.930 . S
C621 H609 0.930 . S
C621 C622 1.399 . S
C621 C626 1.399 . S
C622 C621 1.399 . S
C622 C623 1.376 . S
C623 H610 0.930 . S
C623 C622 1.376 . S
C623 C624 1.388 . S
C624 H611 0.930 . S
C624 C623 1.388 . S
C624 C625 1.390 . S
C625 C624 1.390 . S
C625 C626 1.394 . S
C625 C631 1.465 . S
C626 C621 1.399 . S
C626 C625 1.394 . S
C626 C627 1.516 . S
C627 C626 1.516 . S
C627 C628 1.502 . S
C627 C629 1.561 . S
C627 C630 1.526 . S
C628 H612 0.959 . S
C628 H613 0.959 . S
C628 H614 0.961 . S
C628 C627 1.502 . S
C629 H615 0.960 . S
C629 H616 0.961 . S
C629 H617 0.959 . S
C629 C627 1.561 . S
C630 C627 1.526 . S
C630 C631 1.396 . S
C630 C635 1.390 . S
C631 C625 1.465 . S
C631 C630 1.396 . S
C631 C632 1.399 . S
C632 H618 0.929 . S
C632 C631 1.399 . S
C632 C633 1.385 . S
C633 H619 0.931 . S
C633 C632 1.385 . S
C633 C634 1.389 . S
C634 C633 1.389 . S
C634 C635 1.387 . S
C635 H620 0.930 . S
C635 C630 1.390 . S
C635 C634 1.387 . S
H636 C648 0.930 . S
H637 C650 0.930 . S
H638 C651 0.930 . S
H639 C655 0.959 . S
H640 C655 0.959 . S
H641 C655 0.961 . S
H642 C656 0.960 . S
H643 C656 0.961 . S
H644 C656 0.959 . S
H645 C659 0.929 . S
H646 C660 0.931 . S
H647 C662 0.930 . S
C648 H636 0.930 . S
C648 C649 1.399 . S
C648 C653 1.399 . S
C649 C648 1.399 . S
C649 C650 1.376 . S
C650 H637 0.930 . S
C650 C649 1.376 . S
C650 C651 1.388 . S
C651 H638 0.930 . S
C651 C650 1.388 . S
C651 C652 1.390 . S
C652 C651 1.390 . S
C652 C653 1.394 . S
C652 C658 1.465 . S
C653 C648 1.399 . S
C653 C652 1.394 . S
C653 C654 1.516 . S
C654 C653 1.516 . S
C654 C655 1.502 . S
C654 C656 1.561 . S
C654 C657 1.526 . S
C655 H639 0.959 . S
C655 H640 0.959 . S
C655 H641 0.961 . S
C655 C654 1.502 . S
C656 H642 0.960 . S
C656 H643 0.961 . S
C656 H644 0.959 . S
C656 C654 1.561 . S
C657 C654 1.526 . S
C657 C658 1.396 . S
C657 C662 1.390 . S
C658 C652 1.465 . S
C658 C657 1.396 . S
C658 C659 1.399 . S
C659 H645 0.929 . S
C659 C658 1.399 . S
C659 C660 1.385 . S
C660 H646 0.931 . S
C660 C659 1.385 . S
C660 C661 1.389 . S
C661 C660 1.389 . S
C661 C662 1.387 . S
C662 H647 0.930 . S
C662 C657 1.390 . S
C662 C661 1.387 . S
H663 C675 0.930 . S
H664 C677 0.930 . S
H665 C678 0.930 . S
H666 C682 0.959 . S
H667 C682 0.959 . S
H668 C682 0.961 . S
H669 C683 0.960 . S
H670 C683 0.961 . S
H671 C683 0.959 . S
H672 C686 0.956 . S
H673 C687 0.931 . S
H674 C689 0.930 . S
C675 H663 0.930 . S
C675 C676 1.399 . S
C675 C680 1.399 . S
C676 C675 1.399 . S
C676 C677 1.376 . S
C677 H664 0.930 . S
C677 C676 1.376 . S
C677 C678 1.388 . S
C678 H665 0.930 . S
C678 C677 1.388 . S
C678 C679 1.390 . S
C679 C678 1.390 . S
C679 C680 1.394 . S
C679 C685 1.465 1_565 S
C680 C675 1.399 . S
C680 C679 1.394 . S
C680 C681 1.516 1_565 S
C681 C680 1.516 1_545 S
C681 C682 1.502 . S
C681 C683 1.561 . S
C681 C684 1.526 . S
C682 H666 0.959 . S
C682 H667 0.959 . S
C682 H668 0.961 . S
C682 C681 1.502 . S
C683 H669 0.960 . S
C683 H670 0.961 . S
C683 H671 0.959 . S
C683 C681 1.561 . S
C684 C681 1.526 . S
C684 C685 1.396 . S
C684 C689 1.390 . S
C685 C679 1.465 1_545 S
C685 C684 1.396 . S
C685 C686 1.396 1_545 S
C686 H672 0.956 . S
C686 C685 1.396 1_565 S
C686 C687 1.361 1_565 S
C687 H673 0.931 . S
C687 C686 1.361 1_545 S
C687 C688 1.389 . S
C688 C687 1.389 . S
C688 C689 1.387 . S
C689 H674 0.930 . S
C689 C684 1.390 . S
C689 C688 1.387 . S
H690 C702 0.930 . S
H691 C704 0.930 . S
H692 C705 0.930 . S
H693 C709 0.959 . S
H694 C709 0.959 . S
H695 C709 0.961 . S
H696 C710 0.960 . S
H697 C710 0.961 . S
H698 C710 0.959 . S
H699 C713 0.929 . S
H700 C714 0.931 . S
H701 C716 0.930 . S
C702 H690 0.930 . S
C702 C703 1.399 . S
C702 C707 1.399 . S
C703 C702 1.399 . S
C703 C704 1.376 . S
C704 H691 0.930 . S
C704 C703 1.376 . S
C704 C705 1.388 . S
C705 H692 0.930 . S
C705 C704 1.388 . S
C705 C706 1.390 . S
C706 C705 1.390 . S
C706 C707 1.394 . S
C706 C712 1.465 . S
C707 C702 1.399 . S
C707 C706 1.394 . S
C707 C708 1.516 1_556 S
C708 C707 1.516 1_554 S
C708 C709 1.502 . S
C708 C710 1.561 . S
C708 C711 1.526 . S
C709 H693 0.959 . S
C709 H694 0.959 . S
C709 H695 0.961 . S
C709 C708 1.502 . S
C710 H696 0.960 . S
C710 H697 0.961 . S
C710 H698 0.959 . S
C710 C708 1.561 . S
C711 C708 1.526 . S
C711 C712 1.396 1_554 S
C711 C716 1.390 . S
C712 C706 1.465 . S
C712 C711 1.396 1_556 S
C712 C713 1.399 . S
C713 H699 0.929 . S
C713 C712 1.399 . S
C713 C714 1.385 1_556 S
C714 H700 0.931 . S
C714 C713 1.385 1_554 S
C714 C715 1.389 . S
C715 C714 1.389 . S
C715 C716 1.387 . S
C716 H701 0.930 . S
C716 C711 1.390 . S
C716 C715 1.387 . S
H717 C729 0.930 . S
H718 C731 0.930 . S
H719 C732 0.930 . S
H720 C736 0.959 . S
H721 C736 0.959 . S
H722 C736 0.961 . S
H723 C737 0.960 . S
H724 C737 0.961 . S
H725 C737 0.959 . S
H726 C740 0.896 1_545 S
H727 C741 0.931 . S
H728 C743 0.930 . S
C729 H717 0.930 . S
C729 C730 1.399 . S
C729 C734 1.399 . S
C730 C729 1.399 . S
C730 C731 1.376 . S
C731 H718 0.930 . S
C731 C730 1.376 . S
C731 C732 1.388 . S
C732 H719 0.930 . S
C732 C731 1.388 . S
C732 C733 1.390 . S
C733 C732 1.390 . S
C733 C734 1.394 . S
C733 C739 1.465 1_545 S
C734 C729 1.399 . S
C734 C733 1.394 . S
C734 C735 1.516 1_545 S
C735 C734 1.516 1_565 S
C735 C736 1.502 . S
C735 C737 1.561 . S
C735 C738 1.526 . S
C736 H720 0.959 . S
C736 H721 0.959 . S
C736 H722 0.961 . S
C736 C735 1.502 . S
C737 H723 0.960 . S
C737 H724 0.961 . S
C737 H725 0.959 . S
C737 C735 1.561 . S
C738 C735 1.526 . S
C738 C739 1.396 . S
C738 C743 1.390 . S
C739 C733 1.465 1_565 S
C739 C738 1.396 . S
C739 C740 1.403 . S
C740 H726 0.896 1_565 S
C740 C739 1.403 . S
C740 C741 1.416 . S
C741 H727 0.931 . S
C741 C740 1.416 . S
C741 C742 1.389 . S
C742 C741 1.389 . S
C742 C743 1.387 . S
C743 H728 0.930 . S
C743 C738 1.390 . S
C743 C742 1.387 . S
H744 C756 0.930 . S
H745 C758 0.930 . S
H746 C759 0.930 . S
H747 C763 0.959 . S
H748 C763 0.959 . S
H749 C763 0.961 . S
H750 C764 0.960 . S
H751 C764 0.961 . S
H752 C764 0.959 . S
H753 C767 0.929 . S
H754 C768 0.931 . S
H755 C770 0.930 . S
C756 H744 0.930 . S
C756 C757 1.399 . S
C756 C761 1.399 . S
C757 C756 1.399 . S
C757 C758 1.376 . S
C758 H745 0.930 . S
C758 C757 1.376 . S
C758 C759 1.388 . S
C759 H746 0.930 . S
C759 C758 1.388 . S
C759 C760 1.390 . S
C760 C759 1.390 . S
C760 C761 1.394 . S
C760 C766 1.465 . S
C761 C756 1.399 . S
C761 C760 1.394 . S
C761 C762 1.516 . S
C762 C761 1.516 . S
C762 C763 1.502 . S
C762 C764 1.561 . S
C762 C765 1.526 . S
C763 H747 0.959 . S
C763 H748 0.959 . S
C763 H749 0.961 . S
C763 C762 1.502 . S
C764 H750 0.960 . S
C764 H751 0.961 . S
C764 H752 0.959 . S
C764 C762 1.561 . S
C765 C762 1.526 . S
C765 C766 1.396 . S
C765 C770 1.390 . S
C766 C760 1.465 . S
C766 C765 1.396 . S
C766 C767 1.399 . S
C767 H753 0.929 . S
C767 C766 1.399 . S
C767 C768 1.385 . S
C768 H754 0.931 . S
C768 C767 1.385 . S
C768 C769 1.389 . S
C769 C768 1.389 . S
C769 C770 1.387 . S
C770 H755 0.930 . S
C770 C765 1.390 . S
C770 C769 1.387 . S
H771 C783 0.930 . S
H772 C785 0.930 . S
H773 C786 0.930 . S
H774 C790 0.959 . S
H775 C790 0.959 . S
H776 C790 0.961 . S
H777 C791 0.960 . S
H778 C791 0.961 . S
H779 C791 0.959 . S
H780 C794 0.929 . S
H781 C795 0.931 . S
H782 C797 0.930 . S
C783 H771 0.930 . S
C783 C784 1.399 . S
C783 C788 1.399 . S
C784 C783 1.399 . S
C784 C785 1.376 . S
C785 H772 0.930 . S
C785 C784 1.376 . S
C785 C786 1.388 . S
C786 H773 0.930 . S
C786 C785 1.388 . S
C786 C787 1.390 . S
C787 C786 1.390 . S
C787 C788 1.394 . S
C787 C793 1.465 . S
C788 C783 1.399 . S
C788 C787 1.394 . S
C788 C789 1.516 . S
C789 C788 1.516 . S
C789 C790 1.502 . S
C789 C791 1.561 . S
C789 C792 1.526 . S
C790 H774 0.959 . S
C790 H775 0.959 . S
C790 H776 0.961 . S
C790 C789 1.502 . S
C791 H777 0.960 . S
C791 H778 0.961 . S
C791 H779 0.959 . S
C791 C789 1.561 . S
C792 C789 1.526 . S
C792 C793 1.396 . S
C792 C797 1.390 . S
C793 C787 1.465 . S
C793 C792 1.396 . S
C793 C794 1.399 . S
C794 H780 0.929 . S
C794 C793 1.399 . S
C794 C795 1.385 . S
C795 H781 0.931 . S
C795 C794 1.385 . S
C795 C796 1.389 . S
C796 C795 1.389 . S
C796 C797 1.387 . S
C797 H782 0.930 . S
C797 C792 1.390 . S
C797 C796 1.387 . S
H798 C810 0.930 . S
H799 C812 0.930 . S
H800 C813 0.930 . S
H801 C817 0.959 . S
H802 C817 0.959 . S
H803 C817 0.961 . S
H804 C818 0.960 . S
H805 C818 0.961 . S
H806 C818 0.959 . S
H807 C821 0.929 . S
H808 C822 0.931 . S
H809 C824 0.930 . S
C810 H798 0.930 . S
C810 C811 1.399 . S
C810 C815 1.399 . S
C811 C810 1.399 . S
C811 C812 1.376 . S
C812 H799 0.930 . S
C812 C811 1.376 . S
C812 C813 1.388 . S
C813 H800 0.930 . S
C813 C812 1.388 . S
C813 C814 1.390 . S
C814 C813 1.390 . S
C814 C815 1.394 . S
C814 C820 1.465 1_556 S
C815 C810 1.399 . S
C815 C814 1.394 . S
C815 C816 1.516 1_556 S
C816 C815 1.516 1_554 S
C816 C817 1.502 . S
C816 C818 1.561 . S
C816 C819 1.526 . S
C817 H801 0.959 . S
C817 H802 0.959 . S
C817 H803 0.961 . S
C817 C816 1.502 . S
C818 H804 0.960 . S
C818 H805 0.961 . S
C818 H806 0.959 . S
C818 C816 1.561 . S
C819 C816 1.526 . S
C819 C820 1.396 . S
C819 C824 1.390 . S
C820 C814 1.465 1_554 S
C820 C819 1.396 . S
C820 C821 1.399 1_554 S
C821 H807 0.929 . S
C821 C820 1.399 1_556 S
C821 C822 1.385 1_556 S
C822 H808 0.931 . S
C822 C821 1.385 1_554 S
C822 C823 1.389 . S
C823 C822 1.389 . S
C823 C824 1.387 . S
C824 H809 0.930 . S
C824 C819 1.390 . S
C824 C823 1.387 . S
H825 C837 0.930 . S
H826 C839 0.930 . S
H827 C840 0.930 . S
H828 C844 0.959 . S
H829 C844 0.959 . S
H830 C844 0.961 . S
H831 C845 0.960 . S
H832 C845 0.961 . S
H833 C845 0.959 . S
H834 C848 0.929 . S
H835 C849 0.931 . S
H836 C851 0.930 . S
C837 H825 0.930 . S
C837 C838 1.399 . S
C837 C842 1.399 . S
C838 C837 1.399 . S
C838 C839 1.376 . S
C839 H826 0.930 . S
C839 C838 1.376 . S
C839 C840 1.388 . S
C840 H827 0.930 . S
C840 C839 1.388 . S
C840 C841 1.390 . S
C841 C840 1.390 . S
C841 C842 1.394 . S
C841 C847 1.465 . S
C842 C837 1.399 . S
C842 C841 1.394 . S
C842 C843 1.516 . S
C843 C842 1.516 . S
C843 C844 1.502 . S
C843 C845 1.561 . S
C843 C846 1.526 . S
C844 H828 0.959 . S
C844 H829 0.959 . S
C844 H830 0.961 . S
C844 C843 1.502 . S
C845 H831 0.960 . S
C845 H832 0.961 . S
C845 H833 0.959 . S
C845 C843 1.561 . S
C846 C843 1.526 . S
C846 C847 1.396 . S
C846 C851 1.390 . S
C847 C841 1.465 . S
C847 C846 1.396 . S
C847 C848 1.399 . S
C848 H834 0.929 . S
C848 C847 1.399 . S
C848 C849 1.385 . S
C849 H835 0.931 . S
C849 C848 1.385 . S
C849 C850 1.389 . S
C850 C849 1.389 . S
C850 C851 1.387 . S
C851 H836 0.930 . S
C851 C846 1.390 . S
C851 C850 1.387 . S
H852 C864 0.930 . S
H853 C866 0.930 . S
H854 C867 0.930 . S
H855 C871 0.959 . S
H856 C871 0.959 . S
H857 C871 0.961 . S
H858 C872 0.960 . S
H859 C872 0.961 . S
H860 C872 0.959 . S
H861 C875 0.929 . S
H862 C876 0.931 . S
H863 C878 0.930 . S
C864 H852 0.930 . S
C864 C865 1.399 . S
C864 C869 1.399 . S
C865 C864 1.399 . S
C865 C866 1.376 . S
C866 H853 0.930 . S
C866 C865 1.376 . S
C866 C867 1.388 . S
C867 H854 0.930 . S
C867 C866 1.388 . S
C867 C868 1.390 . S
C868 C867 1.390 . S
C868 C869 1.394 . S
C868 C874 1.465 . S
C869 C864 1.399 . S
C869 C868 1.394 . S
C869 C870 1.516 . S
C870 C869 1.516 . S
C870 C871 1.502 . S
C870 C872 1.561 . S
C870 C873 1.526 . S
C871 H855 0.959 . S
C871 H856 0.959 . S
C871 H857 0.961 . S
C871 C870 1.502 . S
C872 H858 0.960 . S
C872 H859 0.961 . S
C872 H860 0.959 . S
C872 C870 1.561 . S
C873 C870 1.526 . S
C873 C874 1.396 . S
C873 C878 1.390 . S
C874 C868 1.465 . S
C874 C873 1.396 . S
C874 C875 1.399 . S
C875 H861 0.929 . S
C875 C874 1.399 . S
C875 C876 1.385 . S
C876 H862 0.931 . S
C876 C875 1.385 . S
C876 C877 1.389 . S
C877 C876 1.389 . S
C877 C878 1.387 . S
C878 H863 0.930 . S
C878 C873 1.390 . S
C878 C877 1.387 . S
H879 C891 0.930 . S
H880 C893 0.930 . S
H881 C894 0.930 . S
H882 C898 0.959 . S
H883 C898 0.959 1_655 S
H884 C898 0.961 . S
H885 C899 0.960 . S
H886 C899 0.961 . S
H887 C899 0.959 . S
H888 C902 0.929 . S
H889 C903 0.931 . S
H890 C905 0.930 . S
C891 H879 0.930 . S
C891 C892 1.399 . S
C891 C896 1.399 . S
C892 C891 1.399 . S
C892 C893 1.376 . S
C893 H880 0.930 . S
C893 C892 1.376 . S
C893 C894 1.388 . S
C894 H881 0.930 . S
C894 C893 1.388 . S
C894 C895 1.390 . S
C895 C894 1.390 . S
C895 C896 1.394 . S
C895 C901 1.465 1_455 S
C896 C891 1.399 . S
C896 C895 1.394 . S
C896 C897 1.516 1_455 S
C897 C896 1.516 1_655 S
C897 C898 1.502 1_655 S
C897 C899 1.561 . S
C897 C900 1.526 . S
C898 H882 0.959 . S
C898 H883 0.959 1_455 S
C898 H884 0.961 . S
C898 C897 1.502 1_455 S
C899 H885 0.960 . S
C899 H886 0.961 . S
C899 H887 0.959 . S
C899 C897 1.561 . S
C900 C897 1.526 . S
C900 C901 1.396 . S
C900 C905 1.390 . S
C901 C895 1.465 1_655 S
C901 C900 1.396 . S
C901 C902 1.399 . S
C902 H888 0.929 . S
C902 C901 1.399 . S
C902 C903 1.385 . S
C903 H889 0.931 . S
C903 C902 1.385 . S
C903 C904 1.389 . S
C904 C903 1.389 . S
C904 C905 1.387 . S
C905 H890 0.930 . S
C905 C900 1.390 . S
C905 C904 1.387 . S
H906 C918 0.930 . S
H907 C920 0.930 . S
H908 C921 0.930 . S
H909 C925 0.959 . S
H910 C925 0.959 . S
H911 C925 0.961 . S
H912 C926 0.960 . S
H913 C926 0.961 . S
H914 C926 0.959 . S
H915 C929 0.914 1_655 S
H916 C930 0.931 . S
H917 C932 0.930 . S
C918 H906 0.930 . S
C918 C919 1.399 . S
C918 C923 1.399 . S
C919 C918 1.399 . S
C919 C920 1.376 . S
C920 H907 0.930 . S
C920 C919 1.376 . S
C920 C921 1.388 . S
C921 H908 0.930 . S
C921 C920 1.388 . S
C921 C922 1.390 . S
C922 C921 1.390 . S
C922 C923 1.394 . S
C922 C928 1.465 1_655 S
C923 C918 1.399 . S
C923 C922 1.394 . S
C923 C924 1.516 1_655 S
C924 C923 1.516 1_455 S
C924 C925 1.502 . S
C924 C926 1.561 . S
C924 C927 1.526 . S
C925 H909 0.959 . S
C925 H910 0.959 . S
C925 H911 0.961 . S
C925 C924 1.502 . S
C926 H912 0.960 . S
C926 H913 0.961 . S
C926 H914 0.959 . S
C926 C924 1.561 . S
C927 C924 1.526 . S
C927 C928 1.396 . S
C927 C932 1.390 . S
C928 C922 1.465 1_455 S
C928 C927 1.396 . S
C928 C929 1.400 . S
C929 H915 0.914 1_455 S
C929 C928 1.400 . S
C929 C930 1.400 . S
C930 H916 0.931 . S
C930 C929 1.400 . S
C930 C931 1.389 . S
C931 C930 1.389 . S
C931 C932 1.387 . S
C932 H917 0.930 . S
C932 C927 1.390 . S
C932 C931 1.387 . S
H933 C945 0.930 . S
H934 C947 0.930 . S
H935 C948 0.930 . S
H936 C952 0.959 . S
H937 C952 0.959 . S
H938 C952 0.961 . S
H939 C953 0.960 . S
H940 C953 0.961 . S
H941 C953 0.959 . S
H942 C956 0.929 . S
H943 C957 0.931 . S
H944 C959 0.930 . S
C945 H933 0.930 . S
C945 C946 1.399 . S
C945 C950 1.399 . S
C946 C945 1.399 . S
C946 C947 1.376 . S
C947 H934 0.930 . S
C947 C946 1.376 . S
C947 C948 1.388 . S
C948 H935 0.930 . S
C948 C947 1.388 . S
C948 C949 1.390 . S
C949 C948 1.390 . S
C949 C950 1.394 . S
C949 C955 1.465 . S
C950 C945 1.399 . S
C950 C949 1.394 . S
C950 C951 1.516 . S
C951 C950 1.516 . S
C951 C952 1.502 . S
C951 C953 1.561 . S
C951 C954 1.526 . S
C952 H936 0.959 . S
C952 H937 0.959 . S
C952 H938 0.961 . S
C952 C951 1.502 . S
C953 H939 0.960 . S
C953 H940 0.961 . S
C953 H941 0.959 . S
C953 C951 1.561 . S
C954 C951 1.526 . S
C954 C955 1.396 . S
C954 C959 1.390 . S
C955 C949 1.465 . S
C955 C954 1.396 . S
C955 C956 1.399 . S
C956 H942 0.929 . S
C956 C955 1.399 . S
C956 C957 1.385 . S
C957 H943 0.931 . S
C957 C956 1.385 . S
C957 C958 1.389 . S
C958 C957 1.389 . S
C958 C959 1.387 . S
C959 H944 0.930 . S
C959 C954 1.390 . S
C959 C958 1.387 . S
H960 C972 0.930 . S
H961 C974 0.930 . S
H962 C975 0.930 . S
H963 C979 0.959 . S
H964 C979 0.959 . S
H965 C979 0.961 . S
H966 C980 0.960 . S
H967 C980 0.961 . S
H968 C980 0.959 . S
H969 C983 0.929 . S
H970 C984 0.931 . S
H971 C986 0.930 . S
C972 H960 0.930 . S
C972 C973 1.399 . S
C972 C977 1.399 . S
C973 C972 1.399 . S
C973 C974 1.376 . S
C974 H961 0.930 . S
C974 C973 1.376 . S
C974 C975 1.388 . S
C975 H962 0.930 . S
C975 C974 1.388 . S
C975 C976 1.390 . S
C976 C975 1.390 . S
C976 C977 1.394 . S
C976 C982 1.465 . S
C977 C972 1.399 . S
C977 C976 1.394 . S
C977 C978 1.516 . S
C978 C977 1.516 . S
C978 C979 1.502 . S
C978 C980 1.561 . S
C978 C981 1.526 . S
C979 H963 0.959 . S
C979 H964 0.959 . S
C979 H965 0.961 . S
C979 C978 1.502 . S
C980 H966 0.960 . S
C980 H967 0.961 . S
C980 H968 0.959 . S
C980 C978 1.561 . S
C981 C978 1.526 . S
C981 C982 1.396 . S
C981 C986 1.390 . S
C982 C976 1.465 . S
C982 C981 1.396 . S
C982 C983 1.399 . S
C983 H969 0.929 . S
C983 C982 1.399 . S
C983 C984 1.385 . S
C984 H970 0.931 . S
C984 C983 1.385 . S
C984 C985 1.389 . S
C985 C984 1.389 . S
C985 C986 1.387 . S
C986 H971 0.930 . S
C986 C981 1.390 . S
C986 C985 1.387 . S
H987 C999 0.930 . S
H988 C1001 0.930 . S
H989 C1002 0.930 . S
H990 C1006 0.959 . S
H991 C1006 0.959 . S
H992 C1006 0.961 . S
H993 C1007 0.960 . S
H994 C1007 0.961 . S
H995 C1007 0.959 . S
H996 C1010 0.908 1_545 S
H997 C1011 0.931 . S
H998 C1013 0.930 . S
C999 H987 0.930 . S
C999 C1000 1.399 1_565 S
C999 C1004 1.399 . S
C1000 C999 1.399 1_545 S
C1000 C1001 1.376 . S
C1001 H988 0.930 . S
C1001 C1000 1.376 . S
C1001 C1002 1.388 . S
C1002 H989 0.930 . S
C1002 C1001 1.388 . S
C1002 C1003 1.390 1_545 S
C1003 C1002 1.390 1_565 S
C1003 C1004 1.394 . S
C1003 C1009 1.465 . S
C1004 C999 1.399 . S
C1004 C1003 1.394 . S
C1004 C1005 1.516 . S
C1005 C1004 1.516 . S
C1005 C1006 1.502 . S
C1005 C1007 1.561 . S
C1005 C1008 1.526 . S
C1006 H990 0.959 . S
C1006 H991 0.959 . S
C1006 H992 0.961 . S
C1006 C1005 1.502 . S
C1007 H993 0.960 . S
C1007 H994 0.961 . S
C1007 H995 0.959 . S
C1007 C1005 1.561 . S
C1008 C1005 1.526 . S
C1008 C1009 1.396 . S
C1008 C1013 1.390 . S
C1009 C1003 1.465 . S
C1009 C1008 1.396 . S
C1009 C1010 1.399 . S
C1010 H996 0.908 1_565 S
C1010 C1009 1.399 . S
C1010 C1011 1.385 . S
C1011 H997 0.931 . S
C1011 C1010 1.385 . S
C1011 C1012 1.389 . S
C1012 C1011 1.389 . S
C1012 C1013 1.387 . S
C1013 H998 0.930 . S
C1013 C1008 1.390 . S
C1013 C1012 1.387 . S
H1014 C1026 0.930 . S
H1015 C1028 0.930 . S
H1016 C1029 0.930 . S
H1017 C1033 0.959 . S
H1018 C1033 0.959 . S
H1019 C1033 0.961 . S
H1020 C1034 0.960 . S
H1021 C1034 0.961 . S
H1022 C1034 0.959 . S
H1023 C1037 0.929 . S
H1024 C1038 0.931 . S
H1025 C1040 0.930 . S
C1026 H1014 0.930 . S
C1026 C1027 1.399 . S
C1026 C1031 1.399 . S
C1027 C1026 1.399 . S
C1027 C1028 1.376 . S
C1028 H1015 0.930 . S
C1028 C1027 1.376 . S
C1028 C1029 1.388 . S
C1029 H1016 0.930 . S
C1029 C1028 1.388 . S
C1029 C1030 1.390 . S
C1030 C1029 1.390 . S
C1030 C1031 1.394 . S
C1030 C1036 1.465 . S
C1031 C1026 1.399 . S
C1031 C1030 1.394 . S
C1031 C1032 1.516 . S
C1032 C1031 1.516 . S
C1032 C1033 1.502 . S
C1032 C1034 1.561 . S
C1032 C1035 1.526 . S
C1033 H1017 0.959 . S
C1033 H1018 0.959 . S
C1033 H1019 0.961 . S
C1033 C1032 1.502 . S
C1034 H1020 0.960 . S
C1034 H1021 0.961 . S
C1034 H1022 0.959 . S
C1034 C1032 1.561 . S
C1035 C1032 1.526 . S
C1035 C1036 1.396 . S
C1035 C1040 1.390 . S
C1036 C1030 1.465 . S
C1036 C1035 1.396 . S
C1036 C1037 1.399 . S
C1037 H1023 0.929 . S
C1037 C1036 1.399 . S
C1037 C1038 1.385 . S
C1038 H1024 0.931 . S
C1038 C1037 1.385 . S
C1038 C1039 1.389 . S
C1039 C1038 1.389 . S
C1039 C1040 1.387 . S
C1040 H1025 0.930 . S
C1040 C1035 1.390 . S
C1040 C1039 1.387 . S
H1041 C1053 0.930 . S
H1042 C1055 0.930 . S
H1043 C1056 0.930 . S
H1044 C1060 0.959 1_545 S
H1045 C1060 0.959 . S
H1046 C1060 0.961 . S
H1047 C1061 0.960 . S
H1048 C1061 0.961 . S
H1049 C1061 0.959 . S
H1050 C1064 0.929 . S
H1051 C1065 0.931 . S
H1052 C1067 0.930 . S
C1053 H1041 0.930 . S
C1053 C1054 1.399 . S
C1053 C1058 1.399 . S
C1054 C1053 1.399 . S
C1054 C1055 1.376 . S
C1055 H1042 0.930 . S
C1055 C1054 1.376 . S
C1055 C1056 1.388 . S
C1056 H1043 0.930 . S
C1056 C1055 1.388 . S
C1056 C1057 1.390 . S
C1057 C1056 1.390 . S
C1057 C1058 1.394 . S
C1057 C1063 1.465 . S
C1058 C1053 1.399 . S
C1058 C1057 1.394 . S
C1058 C1059 1.557 . S
C1059 C1058 1.557 . S
C1059 C1060 1.490 1_545 S
C1059 C1061 1.528 1_545 S
C1059 C1062 1.533 . S
C1060 H1044 0.959 1_565 S
C1060 H1045 0.959 . S
C1060 H1046 0.961 . S
C1060 C1059 1.490 1_565 S
C1061 H1047 0.960 . S
C1061 H1048 0.961 . S
C1061 H1049 0.959 . S
C1061 C1059 1.528 1_565 S
C1062 C1059 1.533 . S
C1062 C1063 1.396 . S
C1062 C1067 1.390 1_545 S
C1063 C1057 1.465 . S
C1063 C1062 1.396 . S
C1063 C1064 1.399 1_554 S
C1064 H1050 0.929 . S
C1064 C1063 1.399 1_556 S
C1064 C1065 1.385 . S
C1065 H1051 0.931 . S
C1065 C1064 1.385 . S
C1065 C1066 1.389 1_545 S
C1066 C1065 1.389 1_565 S
C1066 C1067 1.387 1_556 S
C1067 H1052 0.930 . S
C1067 C1062 1.390 1_565 S
C1067 C1066 1.387 1_554 S
H1068 C1080 0.930 . S
H1069 C1082 0.930 . S
H1070 C1083 0.930 . S
H1071 C1087 0.959 . S
H1072 C1087 0.959 . S
H1073 C1087 0.961 . S
H1074 C1088 0.960 . S
H1075 C1088 0.961 . S
H1076 C1088 0.959 . S
H1077 C1091 0.929 . S
H1078 C1092 0.931 . S
H1079 C1094 0.930 . S
C1080 H1068 0.930 . S
C1080 C1081 1.399 . S
C1080 C1085 1.399 . S
C1081 C1080 1.399 . S
C1081 C1082 1.376 . S
C1082 H1069 0.930 . S
C1082 C1081 1.376 . S
C1082 C1083 1.388 . S
C1083 H1070 0.930 . S
C1083 C1082 1.388 . S
C1083 C1084 1.390 . S
C1084 C1083 1.390 . S
C1084 C1085 1.394 . S
C1084 C1090 1.465 . S
C1085 C1080 1.399 . S
C1085 C1084 1.394 . S
C1085 C1086 1.516 . S
C1086 C1085 1.516 . S
C1086 C1087 1.502 . S
C1086 C1088 1.561 . S
C1086 C1089 1.526 . S
C1087 H1071 0.959 . S
C1087 H1072 0.959 . S
C1087 H1073 0.961 . S
C1087 C1086 1.502 . S
C1088 H1074 0.960 . S
C1088 H1075 0.961 . S
C1088 H1076 0.959 . S
C1088 C1086 1.561 . S
C1089 C1086 1.526 . S
C1089 C1090 1.396 . S
C1089 C1094 1.390 . S
C1090 C1084 1.465 . S
C1090 C1089 1.396 . S
C1090 C1091 1.399 . S
C1091 H1077 0.929 . S
C1091 C1090 1.399 . S
C1091 C1092 1.385 . S
C1092 H1078 0.931 . S
C1092 C1091 1.385 . S
C1092 C1093 1.389 . S
C1093 C1092 1.389 . S
C1093 C1094 1.387 . S
C1094 H1079 0.930 . S
C1094 C1089 1.390 . S
C1094 C1093 1.387 . S
H1095 C1107 0.930 . S
H1096 C1109 0.930 . S
H1097 C1110 0.930 . S
H1098 C1114 0.959 . S
H1099 C1114 0.959 . S
H1100 C1114 0.961 . S
H1101 C1115 0.960 . S
H1102 C1115 0.961 . S
H1103 C1115 0.959 . S
H1104 C1118 0.929 . S
H1105 C1119 0.931 . S
H1106 C1121 0.930 . S
C1107 H1095 0.930 . S
C1107 C1108 1.399 . S
C1107 C1112 1.399 1_554 S
C1108 C1107 1.399 . S
C1108 C1109 1.376 . S
C1109 H1096 0.930 . S
C1109 C1108 1.376 . S
C1109 C1110 1.388 1_554 S
C1110 H1097 0.930 . S
C1110 C1109 1.388 1_556 S
C1110 C1111 1.390 . S
C1111 C1110 1.390 . S
C1111 C1112 1.394 . S
C1111 C1117 1.465 . S
C1112 C1107 1.399 1_556 S
C1112 C1111 1.394 . S
C1112 C1113 1.516 . S
C1113 C1112 1.516 . S
C1113 C1114 1.502 . S
C1113 C1115 1.561 . S
C1113 C1116 1.526 . S
C1114 H1098 0.959 . S
C1114 H1099 0.959 . S
C1114 H1100 0.961 . S
C1114 C1113 1.502 . S
C1115 H1101 0.960 . S
C1115 H1102 0.961 . S
C1115 H1103 0.959 . S
C1115 C1113 1.561 . S
C1116 C1113 1.526 . S
C1116 C1117 1.396 . S
C1116 C1121 1.390 . S
C1117 C1111 1.465 . S
C1117 C1116 1.396 . S
C1117 C1118 1.399 . S
C1118 H1104 0.929 . S
C1118 C1117 1.399 . S
C1118 C1119 1.385 . S
C1119 H1105 0.931 . S
C1119 C1118 1.385 . S
C1119 C1120 1.389 . S
C1120 C1119 1.389 . S
C1120 C1121 1.387 . S
C1121 H1106 0.930 . S
C1121 C1116 1.390 . S
C1121 C1120 1.387 . S
H1122 C1134 0.930 . S
H1123 C1136 0.930 . S
H1124 C1137 0.930 . S
H1125 C1141 0.959 . S
H1126 C1141 0.959 . S
H1127 C1141 0.961 . S
H1128 C1142 0.960 . S
H1129 C1142 0.961 . S
H1130 C1142 0.959 . S
H1131 C1145 0.929 . S
H1132 C1146 0.931 . S
H1133 C1148 0.930 . S
C1134 H1122 0.930 . S
C1134 C1135 1.399 . S
C1134 C1139 1.399 . S
C1135 C1134 1.399 . S
C1135 C1136 1.376 . S
C1136 H1123 0.930 . S
C1136 C1135 1.376 . S
C1136 C1137 1.388 . S
C1137 H1124 0.930 . S
C1137 C1136 1.388 . S
C1137 C1138 1.390 . S
C1138 C1137 1.390 . S
C1138 C1139 1.394 . S
C1138 C1144 1.465 . S
C1139 C1134 1.399 . S
C1139 C1138 1.394 . S
C1139 C1140 1.516 . S
C1140 C1139 1.516 . S
C1140 C1141 1.502 . S
C1140 C1142 1.561 . S
C1140 C1143 1.526 . S
C1141 H1125 0.959 . S
C1141 H1126 0.959 . S
C1141 H1127 0.961 . S
C1141 C1140 1.502 . S
C1142 H1128 0.960 . S
C1142 H1129 0.961 . S
C1142 H1130 0.959 . S
C1142 C1140 1.561 . S
C1143 C1140 1.526 . S
C1143 C1144 1.396 . S
C1143 C1148 1.390 . S
C1144 C1138 1.465 . S
C1144 C1143 1.396 . S
C1144 C1145 1.399 . S
C1145 H1131 0.929 . S
C1145 C1144 1.399 . S
C1145 C1146 1.385 . S
C1146 H1132 0.931 . S
C1146 C1145 1.385 . S
C1146 C1147 1.389 . S
C1147 C1146 1.389 . S
C1147 C1148 1.387 . S
C1148 H1133 0.930 . S
C1148 C1143 1.390 . S
C1148 C1147 1.387 . S
H1149 C1161 0.930 . S
H1150 C1163 0.930 . S
H1151 C1164 0.930 . S
H1152 C1168 0.959 . S
H1153 C1168 0.959 . S
H1154 C1168 0.961 . S
H1155 C1169 0.960 . S
H1156 C1169 0.961 . S
H1157 C1169 0.959 . S
H1158 C1172 0.929 . S
H1159 C1173 0.931 . S
H1160 C1175 0.930 . S
C1161 H1149 0.930 . S
C1161 C1162 1.399 . S
C1161 C1166 1.399 . S
C1162 C1161 1.399 . S
C1162 C1163 1.376 . S
C1163 H1150 0.930 . S
C1163 C1162 1.376 . S
C1163 C1164 1.388 . S
C1164 H1151 0.930 . S
C1164 C1163 1.388 . S
C1164 C1165 1.390 . S
C1165 C1164 1.390 . S
C1165 C1166 1.394 . S
C1165 C1171 1.465 . S
C1166 C1161 1.399 . S
C1166 C1165 1.394 . S
C1166 C1167 1.516 . S
C1167 C1166 1.516 . S
C1167 C1168 1.502 . S
C1167 C1169 1.561 . S
C1167 C1170 1.526 . S
C1168 H1152 0.959 . S
C1168 H1153 0.959 . S
C1168 H1154 0.961 . S
C1168 C1167 1.502 . S
C1169 H1155 0.960 . S
C1169 H1156 0.961 . S
C1169 H1157 0.959 . S
C1169 C1167 1.561 . S
C1170 C1167 1.526 . S
C1170 C1171 1.396 . S
C1170 C1175 1.390 . S
C1171 C1165 1.465 . S
C1171 C1170 1.396 . S
C1171 C1172 1.399 . S
C1172 H1158 0.929 . S
C1172 C1171 1.399 . S
C1172 C1173 1.385 . S
C1173 H1159 0.931 . S
C1173 C1172 1.385 . S
C1173 C1174 1.389 . S
C1174 C1173 1.389 . S
C1174 C1175 1.387 . S
C1175 H1160 0.930 . S
C1175 C1170 1.390 . S
C1175 C1174 1.387 . S
H1176 C1188 0.930 . S
H1177 C1190 0.930 . S
H1178 C1191 0.930 . S
H1179 C1195 0.959 . S
H1180 C1195 0.959 . S
H1181 C1195 0.961 . S
H1182 C1196 0.960 . S
H1183 C1196 0.961 . S
H1184 C1196 0.959 . S
H1185 C1199 0.929 . S
H1186 C1200 0.931 . S
H1187 C1202 0.930 . S
C1188 H1176 0.930 . S
C1188 C1189 1.399 . S
C1188 C1193 1.399 . S
C1189 C1188 1.399 . S
C1189 C1190 1.376 . S
C1190 H1177 0.930 . S
C1190 C1189 1.376 . S
C1190 C1191 1.388 . S
C1191 H1178 0.930 . S
C1191 C1190 1.388 . S
C1191 C1192 1.390 . S
C1192 C1191 1.390 . S
C1192 C1193 1.394 . S
C1192 C1198 1.465 . S
C1193 C1188 1.399 . S
C1193 C1192 1.394 . S
C1193 C1194 1.516 . S
C1194 C1193 1.516 . S
C1194 C1195 1.502 . S
C1194 C1196 1.561 . S
C1194 C1197 1.526 . S
C1195 H1179 0.959 . S
C1195 H1180 0.959 . S
C1195 H1181 0.961 . S
C1195 C1194 1.502 . S
C1196 H1182 0.960 . S
C1196 H1183 0.961 . S
C1196 H1184 0.959 . S
C1196 C1194 1.561 . S
C1197 C1194 1.526 . S
C1197 C1198 1.396 . S
C1197 C1202 1.390 . S
C1198 C1192 1.465 . S
C1198 C1197 1.396 . S
C1198 C1199 1.399 . S
C1199 H1185 0.929 . S
C1199 C1198 1.399 . S
C1199 C1200 1.385 . S
C1200 H1186 0.931 . S
C1200 C1199 1.385 . S
C1200 C1201 1.389 . S
C1201 C1200 1.389 . S
C1201 C1202 1.387 . S
C1202 H1187 0.930 . S
C1202 C1197 1.390 . S
C1202 C1201 1.387 . S
H1203 C1215 0.930 . S
H1204 C1217 0.930 . S
H1205 C1218 0.930 . S
H1206 C1222 0.959 . S
H1207 C1222 0.959 . S
H1208 C1222 0.961 . S
H1209 C1223 0.960 1_655 S
H1210 C1223 0.961 . S
H1211 C1223 0.959 . S
H1212 C1226 0.929 . S
H1213 C1227 0.931 . S
H1214 C1229 0.930 . S
C1215 H1203 0.930 . S
C1215 C1216 1.399 1_545 S
C1215 C1220 1.399 1_655 S
C1216 C1215 1.399 1_565 S
C1216 C1217 1.376 1_655 S
C1217 H1204 0.930 . S
C1217 C1216 1.376 1_455 S
C1217 C1218 1.388 . S
C1218 H1205 0.930 . S
C1218 C1217 1.388 . S
C1218 C1219 1.390 1_565 S
C1219 C1218 1.390 1_545 S
C1219 C1220 1.394 . S
C1219 C1225 1.465 . S
C1220 C1215 1.399 1_455 S
C1220 C1219 1.394 . S
C1220 C1221 1.516 . S
C1221 C1220 1.516 . S
C1221 C1222 1.502 1_455 S
C1221 C1223 1.561 . S
C1221 C1224 1.526 . S
C1222 H1206 0.959 . S
C1222 H1207 0.959 . S
C1222 H1208 0.961 . S
C1222 C1221 1.502 1_655 S
C1223 H1209 0.960 1_455 S
C1223 H1210 0.961 . S
C1223 H1211 0.959 . S
C1223 C1221 1.561 . S
C1224 C1221 1.526 . S
C1224 C1225 1.396 . S
C1224 C1229 1.390 . S
C1225 C1219 1.465 . S
C1225 C1224 1.396 . S
C1225 C1226 1.399 . S
C1226 H1212 0.929 . S
C1226 C1225 1.399 . S
C1226 C1227 1.385 . S
C1227 H1213 0.931 . S
C1227 C1226 1.385 . S
C1227 C1228 1.389 . S
C1228 C1227 1.389 . S
C1228 C1229 1.387 . S
C1229 H1214 0.930 . S
C1229 C1224 1.390 . S
C1229 C1228 1.387 . S
H1230 C1242 0.930 . S
H1231 C1244 0.930 . S
H1232 C1245 0.930 . S
H1233 C1249 0.959 . S
H1234 C1249 0.959 . S
H1235 C1249 0.961 . S
H1236 C1250 0.960 . S
H1237 C1250 0.961 . S
H1238 C1250 0.959 . S
H1239 C1253 0.929 . S
H1240 C1254 0.931 . S
H1241 C1256 0.930 . S
C1242 H1230 0.930 . S
C1242 C1243 1.399 . S
C1242 C1247 1.399 . S
C1243 C1242 1.399 . S
C1243 C1244 1.376 . S
C1244 H1231 0.930 . S
C1244 C1243 1.376 . S
C1244 C1245 1.388 . S
C1245 H1232 0.930 . S
C1245 C1244 1.388 . S
C1245 C1246 1.390 . S
C1246 C1245 1.390 . S
C1246 C1247 1.394 . S
C1246 C1252 1.465 . S
C1247 C1242 1.399 . S
C1247 C1246 1.394 . S
C1247 C1248 1.516 . S
C1248 C1247 1.516 . S
C1248 C1249 1.502 . S
C1248 C1250 1.561 . S
C1248 C1251 1.526 . S
C1249 H1233 0.959 . S
C1249 H1234 0.959 . S
C1249 H1235 0.961 . S
C1249 C1248 1.502 . S
C1250 H1236 0.960 . S
C1250 H1237 0.961 . S
C1250 H1238 0.959 . S
C1250 C1248 1.561 . S
C1251 C1248 1.526 . S
C1251 C1252 1.396 . S
C1251 C1256 1.390 . S
C1252 C1246 1.465 . S
C1252 C1251 1.396 . S
C1252 C1253 1.399 . S
C1253 H1239 0.929 . S
C1253 C1252 1.399 . S
C1253 C1254 1.385 . S
C1254 H1240 0.931 . S
C1254 C1253 1.385 . S
C1254 C1255 1.389 . S
C1255 C1254 1.389 . S
C1255 C1256 1.387 . S
C1256 H1241 0.930 . S
C1256 C1251 1.390 . S
C1256 C1255 1.387 . S
H1257 C1269 0.930 . S
H1258 C1271 0.930 . S
H1259 C1272 0.930 . S
H1260 C1276 0.959 . S
H1261 C1276 0.959 . S
H1262 C1276 0.961 . S
H1263 C1277 0.960 . S
H1264 C1277 0.961 . S
H1265 C1277 0.959 . S
H1266 C1280 0.929 . S
H1267 C1281 0.931 . S
H1268 C1283 0.930 . S
C1269 H1257 0.930 . S
C1269 C1270 1.399 1_565 S
C1269 C1274 1.399 . S
C1270 C1269 1.399 1_545 S
C1270 C1271 1.376 . S
C1271 H1258 0.930 . S
C1271 C1270 1.376 . S
C1271 C1272 1.388 . S
C1272 H1259 0.930 . S
C1272 C1271 1.388 . S
C1272 C1273 1.390 1_545 S
C1273 C1272 1.390 1_565 S
C1273 C1274 1.394 . S
C1273 C1279 1.465 . S
C1274 C1269 1.399 . S
C1274 C1273 1.394 . S
C1274 C1275 1.516 . S
C1275 C1274 1.516 . S
C1275 C1276 1.502 . S
C1275 C1277 1.561 . S
C1275 C1278 1.526 . S
C1276 H1260 0.959 . S
C1276 H1261 0.959 . S
C1276 H1262 0.961 . S
C1276 C1275 1.502 . S
C1277 H1263 0.960 . S
C1277 H1264 0.961 . S
C1277 H1265 0.959 . S
C1277 C1275 1.561 . S
C1278 C1275 1.526 . S
C1278 C1279 1.396 . S
C1278 C1283 1.390 . S
C1279 C1273 1.465 . S
C1279 C1278 1.396 . S
C1279 C1280 1.399 . S
C1280 H1266 0.929 . S
C1280 C1279 1.399 . S
C1280 C1281 1.385 . S
C1281 H1267 0.931 . S
C1281 C1280 1.385 . S
C1281 C1282 1.389 . S
C1282 C1281 1.389 . S
C1282 C1283 1.387 . S
C1283 H1268 0.930 . S
C1283 C1278 1.390 . S
C1283 C1282 1.387 . S
H1284 C1296 0.930 . S
H1285 C1298 0.930 . S
H1286 C1299 0.930 . S
H1287 C1303 0.959 . S
H1288 C1303 0.959 . S
H1289 C1303 0.961 . S
H1290 C1304 0.960 . S
H1291 C1304 0.961 . S
H1292 C1304 0.959 . S
H1293 C1307 0.929 . S
H1294 C1308 0.931 . S
H1295 C1310 0.930 . S
C1296 H1284 0.930 . S
C1296 C1297 1.399 . S
C1296 C1301 1.399 . S
C1297 C1296 1.399 . S
C1297 C1298 1.376 . S
C1298 H1285 0.930 . S
C1298 C1297 1.376 . S
C1298 C1299 1.388 . S
C1299 H1286 0.930 . S
C1299 C1298 1.388 . S
C1299 C1300 1.390 . S
C1300 C1299 1.390 . S
C1300 C1301 1.394 . S
C1300 C1306 1.465 . S
C1301 C1296 1.399 . S
C1301 C1300 1.394 . S
C1301 C1302 1.516 . S
C1302 C1301 1.516 . S
C1302 C1303 1.502 . S
C1302 C1304 1.561 . S
C1302 C1305 1.526 . S
C1303 H1287 0.959 . S
C1303 H1288 0.959 . S
C1303 H1289 0.961 . S
C1303 C1302 1.502 . S
C1304 H1290 0.960 . S
C1304 H1291 0.961 . S
C1304 H1292 0.959 . S
C1304 C1302 1.561 . S
C1305 C1302 1.526 . S
C1305 C1306 1.396 . S
C1305 C1310 1.390 . S
C1306 C1300 1.465 . S
C1306 C1305 1.396 . S
C1306 C1307 1.399 . S
C1307 H1293 0.929 . S
C1307 C1306 1.399 . S
C1307 C1308 1.385 . S
C1308 H1294 0.931 . S
C1308 C1307 1.385 . S
C1308 C1309 1.389 . S
C1309 C1308 1.389 . S
C1309 C1310 1.387 . S
C1310 H1295 0.930 . S
C1310 C1305 1.390 . S
C1310 C1309 1.387 . S
H1311 C1323 0.930 . S
H1312 C1325 0.930 . S
H1313 C1326 0.930 . S
H1314 C1330 0.959 . S
H1315 C1330 0.959 . S
H1316 C1330 0.961 . S
H1317 C1331 0.960 . S
H1318 C1331 0.961 . S
H1319 C1331 0.959 . S
H1320 C1334 0.929 1_455 S
H1321 C1335 0.931 . S
H1322 C1337 0.930 . S
C1323 H1311 0.930 . S
C1323 C1324 1.399 1_655 S
C1323 C1328 1.399 . S
C1324 C1323 1.399 1_455 S
C1324 C1325 1.376 . S
C1325 H1312 0.930 . S
C1325 C1324 1.376 . S
C1325 C1326 1.388 . S
C1326 H1313 0.930 . S
C1326 C1325 1.388 . S
C1326 C1327 1.390 1_455 S
C1327 C1326 1.390 1_655 S
C1327 C1328 1.394 . S
C1327 C1333 1.465 . S
C1328 C1323 1.399 . S
C1328 C1327 1.394 . S
C1328 C1329 1.516 . S
C1329 C1328 1.516 . S
C1329 C1330 1.502 . S
C1329 C1331 1.561 . S
C1329 C1332 1.526 . S
C1330 H1314 0.959 . S
C1330 H1315 0.959 . S
C1330 H1316 0.961 . S
C1330 C1329 1.502 . S
C1331 H1317 0.960 . S
C1331 H1318 0.961 . S
C1331 H1319 0.959 . S
C1331 C1329 1.561 . S
C1332 C1329 1.526 . S
C1332 C1333 1.396 . S
C1332 C1337 1.390 . S
C1333 C1327 1.465 . S
C1333 C1332 1.396 . S
C1333 C1334 1.399 . S
C1334 H1320 0.929 1_655 S
C1334 C1333 1.399 . S
C1334 C1335 1.385 . S
C1335 H1321 0.931 . S
C1335 C1334 1.385 . S
C1335 C1336 1.389 . S
C1336 C1335 1.389 . S
C1336 C1337 1.387 . S
C1337 H1322 0.930 . S
C1337 C1332 1.390 . S
C1337 C1336 1.387 . S
H1338 C1350 0.930 . S
H1339 C1352 0.930 . S
H1340 C1353 0.930 . S
H1341 C1357 0.959 . S
H1342 C1357 0.959 . S
H1343 C1357 0.961 . S
H1344 C1358 0.960 . S
H1345 C1358 0.961 . S
H1346 C1358 0.959 . S
H1347 C1361 0.929 . S
H1348 C1362 0.931 . S
H1349 C1364 0.930 . S
C1350 H1338 0.930 . S
C1350 C1351 1.399 . S
C1350 C1355 1.399 . S
C1351 C1350 1.399 . S
C1351 C1352 1.376 . S
C1352 H1339 0.930 . S
C1352 C1351 1.376 . S
C1352 C1353 1.388 . S
C1353 H1340 0.930 . S
C1353 C1352 1.388 . S
C1353 C1354 1.390 . S
C1354 C1353 1.390 . S
C1354 C1355 1.394 . S
C1354 C1360 1.465 . S
C1355 C1350 1.399 . S
C1355 C1354 1.394 . S
C1355 C1356 1.516 . S
C1356 C1355 1.516 . S
C1356 C1357 1.502 . S
C1356 C1358 1.561 . S
C1356 C1359 1.526 . S
C1357 H1341 0.959 . S
C1357 H1342 0.959 . S
C1357 H1343 0.961 . S
C1357 C1356 1.502 . S
C1358 H1344 0.960 . S
C1358 H1345 0.961 . S
C1358 H1346 0.959 . S
C1358 C1356 1.561 . S
C1359 C1356 1.526 . S
C1359 C1360 1.396 . S
C1359 C1364 1.390 . S
C1360 C1354 1.465 . S
C1360 C1359 1.396 . S
C1360 C1361 1.399 . S
C1361 H1347 0.929 . S
C1361 C1360 1.399 . S
C1361 C1362 1.385 . S
C1362 H1348 0.931 . S
C1362 C1361 1.385 . S
C1362 C1363 1.389 . S
C1363 C1362 1.389 . S
C1363 C1364 1.387 . S
C1364 H1349 0.930 . S
C1364 C1359 1.390 . S
C1364 C1363 1.387 . S
H1365 C1377 0.930 . S
H1366 C1379 0.930 . S
H1367 C1380 0.930 . S
H1368 C1384 0.959 . S
H1369 C1384 0.959 . S
H1370 C1384 0.961 . S
H1371 C1385 0.960 . S
H1372 C1385 0.961 . S
H1373 C1385 0.959 . S
H1374 C1388 0.929 . S
H1375 C1389 0.931 . S
H1376 C1391 0.930 . S
C1377 H1365 0.930 . S
C1377 C1378 1.399 . S
C1377 C1382 1.399 . S
C1378 C1377 1.399 . S
C1378 C1379 1.376 . S
C1379 H1366 0.930 . S
C1379 C1378 1.376 . S
C1379 C1380 1.388 . S
C1380 H1367 0.930 . S
C1380 C1379 1.388 . S
C1380 C1381 1.390 . S
C1381 C1380 1.390 . S
C1381 C1382 1.394 . S
C1381 C1387 1.465 . S
C1382 C1377 1.399 . S
C1382 C1381 1.394 . S
C1382 C1383 1.516 . S
C1383 C1382 1.516 . S
C1383 C1384 1.502 . S
C1383 C1385 1.561 . S
C1383 C1386 1.526 . S
C1384 H1368 0.959 . S
C1384 H1369 0.959 . S
C1384 H1370 0.961 . S
C1384 C1383 1.502 . S
C1385 H1371 0.960 . S
C1385 H1372 0.961 . S
C1385 H1373 0.959 . S
C1385 C1383 1.561 . S
C1386 C1383 1.526 . S
C1386 C1387 1.396 . S
C1386 C1391 1.390 . S
C1387 C1381 1.465 . S
C1387 C1386 1.396 . S
C1387 C1388 1.399 . S
C1388 H1374 0.929 . S
C1388 C1387 1.399 . S
C1388 C1389 1.385 . S
C1389 H1375 0.931 . S
C1389 C1388 1.385 . S
C1389 C1390 1.389 . S
C1390 C1389 1.389 . S
C1390 C1391 1.387 . S
C1391 H1376 0.930 . S
C1391 C1386 1.390 . S
C1391 C1390 1.387 . S
H1392 C1404 0.930 . S
H1393 C1406 0.930 . S
H1394 C1407 0.930 . S
H1395 C1411 0.959 . S
H1396 C1411 0.959 . S
H1397 C1411 0.961 . S
H1398 C1412 0.960 . S
H1399 C1412 0.961 . S
H1400 C1412 0.959 . S
H1401 C1415 0.929 . S
H1402 C1416 0.931 . S
H1403 C1418 0.930 . S
C1404 H1392 0.930 . S
C1404 C1405 1.399 . S
C1404 C1409 1.399 . S
C1405 C1404 1.399 . S
C1405 C1406 1.376 . S
C1406 H1393 0.930 . S
C1406 C1405 1.376 . S
C1406 C1407 1.388 . S
C1407 H1394 0.930 . S
C1407 C1406 1.388 . S
C1407 C1408 1.390 . S
C1408 C1407 1.390 . S
C1408 C1409 1.394 . S
C1408 C1414 1.465 . S
C1409 C1404 1.399 . S
C1409 C1408 1.394 . S
C1409 C1410 1.516 . S
C1410 C1409 1.516 . S
C1410 C1411 1.502 . S
C1410 C1412 1.561 . S
C1410 C1413 1.526 . S
C1411 H1395 0.959 . S
C1411 H1396 0.959 . S
C1411 H1397 0.961 . S
C1411 C1410 1.502 . S
C1412 H1398 0.960 . S
C1412 H1399 0.961 . S
C1412 H1400 0.959 . S
C1412 C1410 1.561 . S
C1413 C1410 1.526 . S
C1413 C1414 1.396 . S
C1413 C1418 1.390 . S
C1414 C1408 1.465 . S
C1414 C1413 1.396 . S
C1414 C1415 1.399 . S
C1415 H1401 0.929 . S
C1415 C1414 1.399 . S
C1415 C1416 1.385 . S
C1416 H1402 0.931 . S
C1416 C1415 1.385 . S
C1416 C1417 1.389 . S
C1417 C1416 1.389 . S
C1417 C1418 1.387 . S
C1418 H1403 0.930 . S
C1418 C1413 1.390 . S
C1418 C1417 1.387 . S
H1419 C1431 0.930 . S
H1420 C1433 0.930 . S
H1421 C1434 0.930 . S
H1422 C1438 0.959 . S
H1423 C1438 0.959 . S
H1424 C1438 0.961 . S
H1425 C1439 0.960 . S
H1426 C1439 0.961 . S
H1427 C1439 0.959 . S
H1428 C1442 0.929 . S
H1429 C1443 0.931 . S
H1430 C1445 0.930 . S
C1431 H1419 0.930 . S
C1431 C1432 1.399 . S
C1431 C1436 1.399 . S
C1432 C1431 1.399 . S
C1432 C1433 1.376 . S
C1433 H1420 0.930 . S
C1433 C1432 1.376 . S
C1433 C1434 1.388 . S
C1434 H1421 0.930 . S
C1434 C1433 1.388 . S
C1434 C1435 1.390 . S
C1435 C1434 1.390 . S
C1435 C1436 1.394 . S
C1435 C1441 1.465 . S
C1436 C1431 1.399 . S
C1436 C1435 1.394 . S
C1436 C1437 1.516 . S
C1437 C1436 1.516 . S
C1437 C1438 1.502 . S
C1437 C1439 1.561 . S
C1437 C1440 1.526 . S
C1438 H1422 0.959 . S
C1438 H1423 0.959 . S
C1438 H1424 0.961 . S
C1438 C1437 1.502 . S
C1439 H1425 0.960 . S
C1439 H1426 0.961 . S
C1439 H1427 0.959 . S
C1439 C1437 1.561 . S
C1440 C1437 1.526 . S
C1440 C1441 1.396 . S
C1440 C1445 1.390 . S
C1441 C1435 1.465 . S
C1441 C1440 1.396 . S
C1441 C1442 1.399 . S
C1442 H1428 0.929 . S
C1442 C1441 1.399 . S
C1442 C1443 1.385 . S
C1443 H1429 0.931 . S
C1443 C1442 1.385 . S
C1443 C1444 1.389 . S
C1444 C1443 1.389 . S
C1444 C1445 1.387 . S
C1445 H1430 0.930 . S
C1445 C1440 1.390 . S
C1445 C1444 1.387 . S
H1446 C1458 0.930 . S
H1447 C1460 0.930 . S
H1448 C1461 0.930 . S
H1449 C1465 0.959 . S
H1450 C1465 0.959 . S
H1451 C1465 0.961 . S
H1452 C1466 0.960 1_655 S
H1453 C1466 0.961 . S
H1454 C1466 0.959 . S
H1455 C1469 0.929 . S
H1456 C1470 0.931 . S
H1457 C1472 0.930 . S
C1458 H1446 0.930 . S
C1458 C1459 1.399 1_554 S
C1458 C1463 1.399 1_655 S
C1459 C1458 1.399 1_556 S
C1459 C1460 1.376 . S
C1460 H1447 0.930 . S
C1460 C1459 1.376 . S
C1460 C1461 1.388 1_655 S
C1461 H1448 0.930 . S
C1461 C1460 1.388 1_455 S
C1461 C1462 1.390 1_556 S
C1462 C1461 1.390 1_554 S
C1462 C1463 1.394 . S
C1462 C1468 1.465 . S
C1463 C1458 1.399 1_455 S
C1463 C1462 1.394 . S
C1463 C1464 1.516 . S
C1464 C1463 1.516 . S
C1464 C1465 1.502 . S
C1464 C1466 1.561 . S
C1464 C1467 1.526 . S
C1465 H1449 0.959 . S
C1465 H1450 0.959 . S
C1465 H1451 0.961 . S
C1465 C1464 1.502 . S
C1466 H1452 0.960 1_455 S
C1466 H1453 0.961 . S
C1466 H1454 0.959 . S
C1466 C1464 1.561 . S
C1467 C1464 1.526 . S
C1467 C1468 1.396 . S
C1467 C1472 1.390 . S
C1468 C1462 1.465 . S
C1468 C1467 1.396 . S
C1468 C1469 1.399 . S
C1469 H1455 0.929 . S
C1469 C1468 1.399 . S
C1469 C1470 1.385 . S
C1470 H1456 0.931 . S
C1470 C1469 1.385 . S
C1470 C1471 1.389 . S
C1471 C1470 1.389 . S
C1471 C1472 1.387 . S
C1472 H1457 0.930 . S
C1472 C1467 1.390 . S
C1472 C1471 1.387 . S
H1473 C1485 0.930 . S
H1474 C1487 0.930 . S
H1475 C1488 0.930 . S
H1476 C1492 0.959 . S
H1477 C1492 0.959 . S
H1478 C1492 0.961 . S
H1479 C1493 0.960 . S
H1480 C1493 0.961 . S
H1481 C1493 0.959 . S
H1482 C1496 0.929 . S
H1483 C1497 0.931 . S
H1484 C1499 0.930 . S
C1485 H1473 0.930 . S
C1485 C1486 1.399 . S
C1485 C1490 1.399 . S
C1486 C1485 1.399 . S
C1486 C1487 1.376 . S
C1487 H1474 0.930 . S
C1487 C1486 1.376 . S
C1487 C1488 1.388 . S
C1488 H1475 0.930 . S
C1488 C1487 1.388 . S
C1488 C1489 1.390 . S
C1489 C1488 1.390 . S
C1489 C1490 1.394 . S
C1489 C1495 1.465 . S
C1490 C1485 1.399 . S
C1490 C1489 1.394 . S
C1490 C1491 1.516 . S
C1491 C1490 1.516 . S
C1491 C1492 1.502 . S
C1491 C1493 1.561 . S
C1491 C1494 1.526 . S
C1492 H1476 0.959 . S
C1492 H1477 0.959 . S
C1492 H1478 0.961 . S
C1492 C1491 1.502 . S
C1493 H1479 0.960 . S
C1493 H1480 0.961 . S
C1493 H1481 0.959 . S
C1493 C1491 1.561 . S
C1494 C1491 1.526 . S
C1494 C1495 1.396 . S
C1494 C1499 1.390 . S
C1495 C1489 1.465 . S
C1495 C1494 1.396 . S
C1495 C1496 1.399 . S
C1496 H1482 0.929 . S
C1496 C1495 1.399 . S
C1496 C1497 1.385 . S
C1497 H1483 0.931 . S
C1497 C1496 1.385 . S
C1497 C1498 1.389 . S
C1498 C1497 1.389 . S
C1498 C1499 1.387 . S
C1499 H1484 0.930 . S
C1499 C1494 1.390 . S
C1499 C1498 1.387 . S
H1500 C1512 0.930 . S
H1501 C1514 0.930 . S
H1502 C1515 0.930 . S
H1503 C1519 0.959 . S
H1504 C1519 0.959 . S
H1505 C1519 0.961 . S
H1506 C1520 0.960 . S
H1507 C1520 0.961 . S
H1508 C1520 0.959 . S
H1509 C1523 0.929 . S
H1510 C1524 0.931 . S
H1511 C1526 0.930 . S
C1512 H1500 0.930 . S
C1512 C1513 1.399 . S
C1512 C1517 1.399 . S
C1513 C1512 1.399 . S
C1513 C1514 1.376 . S
C1514 H1501 0.930 . S
C1514 C1513 1.376 . S
C1514 C1515 1.388 . S
C1515 H1502 0.930 . S
C1515 C1514 1.388 . S
C1515 C1516 1.390 . S
C1516 C1515 1.390 . S
C1516 C1517 1.394 . S
C1516 C1522 1.465 . S
C1517 C1512 1.399 . S
C1517 C1516 1.394 . S
C1517 C1518 1.516 . S
C1518 C1517 1.516 . S
C1518 C1519 1.502 . S
C1518 C1520 1.561 . S
C1518 C1521 1.526 . S
C1519 H1503 0.959 . S
C1519 H1504 0.959 . S
C1519 H1505 0.961 . S
C1519 C1518 1.502 . S
C1520 H1506 0.960 . S
C1520 H1507 0.961 . S
C1520 H1508 0.959 . S
C1520 C1518 1.561 . S
C1521 C1518 1.526 . S
C1521 C1522 1.396 . S
C1521 C1526 1.390 . S
C1522 C1516 1.465 . S
C1522 C1521 1.396 . S
C1522 C1523 1.399 . S
C1523 H1509 0.929 . S
C1523 C1522 1.399 . S
C1523 C1524 1.385 . S
C1524 H1510 0.931 . S
C1524 C1523 1.385 . S
C1524 C1525 1.389 . S
C1525 C1524 1.389 . S
C1525 C1526 1.387 . S
C1526 H1511 0.930 . S
C1526 C1521 1.390 . S
C1526 C1525 1.387 . S
H1527 C1539 0.930 . S
H1528 C1541 0.930 . S
H1529 C1542 0.930 . S
H1530 C1546 0.959 . S
H1531 C1546 0.959 . S
H1532 C1546 0.961 . S
H1533 C1547 0.960 . S
H1534 C1547 0.961 . S
H1535 C1547 0.959 . S
H1536 C1550 0.929 . S
H1537 C1551 0.931 . S
H1538 C1553 0.930 . S
C1539 H1527 0.930 . S
C1539 C1540 1.399 . S
C1539 C1544 1.399 . S
C1540 C1539 1.399 . S
C1540 C1541 1.376 . S
C1541 H1528 0.930 . S
C1541 C1540 1.376 . S
C1541 C1542 1.388 . S
C1542 H1529 0.930 . S
C1542 C1541 1.388 . S
C1542 C1543 1.390 . S
C1543 C1542 1.390 . S
C1543 C1544 1.394 . S
C1543 C1549 1.465 . S
C1544 C1539 1.399 . S
C1544 C1543 1.394 . S
C1544 C1545 1.516 . S
C1545 C1544 1.516 . S
C1545 C1546 1.502 . S
C1545 C1547 1.561 . S
C1545 C1548 1.526 . S
C1546 H1530 0.959 . S
C1546 H1531 0.959 . S
C1546 H1532 0.961 . S
C1546 C1545 1.502 . S
C1547 H1533 0.960 . S
C1547 H1534 0.961 . S
C1547 H1535 0.959 . S
C1547 C1545 1.561 . S
C1548 C1545 1.526 . S
C1548 C1549 1.396 . S
C1548 C1553 1.390 . S
C1549 C1543 1.465 . S
C1549 C1548 1.396 . S
C1549 C1550 1.399 . S
C1550 H1536 0.929 . S
C1550 C1549 1.399 . S
C1550 C1551 1.385 . S
C1551 H1537 0.931 . S
C1551 C1550 1.385 . S
C1551 C1552 1.389 . S
C1552 C1551 1.389 . S
C1552 C1553 1.387 . S
C1553 H1538 0.930 . S
C1553 C1548 1.390 . S
C1553 C1552 1.387 . S
H1554 C1566 0.930 . S
H1555 C1568 0.930 . S
H1556 C1569 0.930 . S
H1557 C1573 0.959 . S
H1558 C1573 0.959 . S
H1559 C1573 0.961 . S
H1560 C1574 0.960 . S
H1561 C1574 0.961 . S
H1562 C1574 0.959 . S
H1563 C1577 0.929 . S
H1564 C1578 0.931 . S
H1565 C1580 0.930 . S
C1566 H1554 0.930 . S
C1566 C1567 1.399 1_556 S
C1566 C1571 1.399 . S
C1567 C1566 1.399 1_554 S
C1567 C1568 1.376 . S
C1568 H1555 0.930 . S
C1568 C1567 1.376 . S
C1568 C1569 1.388 1_554 S
C1569 H1556 0.930 . S
C1569 C1568 1.388 1_556 S
C1569 C1570 1.390 . S
C1570 C1569 1.390 . S
C1570 C1571 1.394 . S
C1570 C1576 1.465 . S
C1571 C1566 1.399 . S
C1571 C1570 1.394 . S
C1571 C1572 1.516 . S
C1572 C1571 1.516 . S
C1572 C1573 1.502 . S
C1572 C1574 1.561 . S
C1572 C1575 1.526 . S
C1573 H1557 0.959 . S
C1573 H1558 0.959 . S
C1573 H1559 0.961 . S
C1573 C1572 1.502 . S
C1574 H1560 0.960 . S
C1574 H1561 0.961 . S
C1574 H1562 0.959 . S
C1574 C1572 1.561 . S
C1575 C1572 1.526 . S
C1575 C1576 1.396 . S
C1575 C1580 1.390 . S
C1576 C1570 1.465 . S
C1576 C1575 1.396 . S
C1576 C1577 1.399 . S
C1577 H1563 0.929 . S
C1577 C1576 1.399 . S
C1577 C1578 1.385 . S
C1578 H1564 0.931 . S
C1578 C1577 1.385 . S
C1578 C1579 1.389 . S
C1579 C1578 1.389 . S
C1579 C1580 1.387 . S
C1580 H1565 0.930 . S
C1580 C1575 1.390 . S
C1580 C1579 1.387 . S
H1581 C1593 0.930 . S
H1582 C1595 0.930 . S
H1583 C1596 0.930 . S
H1584 C1600 0.959 . S
H1585 C1600 0.959 . S
H1586 C1600 0.961 . S
H1587 C1601 0.960 . S
H1588 C1601 0.961 . S
H1589 C1601 0.959 . S
H1590 C1604 0.929 . S
H1591 C1605 0.931 . S
H1592 C1607 0.930 . S
C1593 H1581 0.930 . S
C1593 C1594 1.399 . S
C1593 C1598 1.399 . S
C1594 C1593 1.399 . S
C1594 C1595 1.376 . S
C1595 H1582 0.930 . S
C1595 C1594 1.376 . S
C1595 C1596 1.388 . S
C1596 H1583 0.930 . S
C1596 C1595 1.388 . S
C1596 C1597 1.390 . S
C1597 C1596 1.390 . S
C1597 C1598 1.394 . S
C1597 C1603 1.465 . S
C1598 C1593 1.399 . S
C1598 C1597 1.394 . S
C1598 C1599 1.516 . S
C1599 C1598 1.516 . S
C1599 C1600 1.502 . S
C1599 C1601 1.561 . S
C1599 C1602 1.526 . S
C1600 H1584 0.959 . S
C1600 H1585 0.959 . S
C1600 H1586 0.961 . S
C1600 C1599 1.502 . S
C1601 H1587 0.960 . S
C1601 H1588 0.961 . S
C1601 H1589 0.959 . S
C1601 C1599 1.561 . S
C1602 C1599 1.526 . S
C1602 C1603 1.396 . S
C1602 C1607 1.390 1_655 S
C1603 C1597 1.465 . S
C1603 C1602 1.396 . S
C1603 C1604 1.399 . S
C1604 H1590 0.929 . S
C1604 C1603 1.399 . S
C1604 C1605 1.385 1_655 S
C1605 H1591 0.931 . S
C1605 C1604 1.385 1_455 S
C1605 C1606 1.389 . S
C1606 C1605 1.389 . S
C1606 C1607 1.387 . S
C1607 H1592 0.930 . S
C1607 C1602 1.390 1_455 S
C1607 C1606 1.387 . S
C325 C121 1.197 . S
C337 C4 1.159 . S
C352 C23 1.160 . S
C364 C140 1.195 . S
C379 C36 1.214 . S
C391 C147 1.134 . S
C406 C49 1.132 . S
C418 C108 1.213 . S
C433 C56 1.132 . S
C445 C199 1.214 . S
C460 C166 1.132 . S
C472 C69 1.210 . S
C487 C88 1.139 . S
C499 C179 1.200 . S
C514 C186 1.152 . S
C526 C101 1.202 . S
C541 C212 1.142 . S
C553 C238 1.209 . S
C568 C290 1.147 . S
C580 C225 1.205 . S
C595 C251 1.164 . S
C607 C309 1.192 . S
C622 C283 1.138 . S
C634 C270 1.211 . S
C649 C264 1.862 . S
C661 C10 1.828 . S
C676 C17 1.877 . S
C688 C231 1.869 . S
C703 C30 1.829 . S
C715 C244 1.819 . S
C730 C43 1.875 . S
C742 C257 1.844 . S
C757 C62 1.839 . S
C769 C303 1.872 . S
C784 C277 1.821 . S
C796 C75 1.853 . S
C811 C296 1.878 . S
C823 C82 1.851 . S
C838 C218 1.879 . S
C850 C95 1.864 . S
C865 C205 1.854 . S
C877 C114 1.878 . S
C892 C127 1.850 . S
C904 C160 1.821 . S
C919 C173 1.875 . S
C931 C134 1.871 . S
C946 C192 1.849 . S
C958 C153 1.820 . S
C973 C5 1.234 . S
C985 C211 1.318 . S
C1000 C304 1.312 . S
C1012 C16 1.234 . S
C1027 C278 1.278 . S
C1039 C29 1.293 . S
C1054 C42 1.288 . S
C1066 C289 1.344 . S
C1081 C57 1.323 . S
C1093 C224 1.296 . S
C1108 C237 1.294 . S
C1120 C70 1.321 . S
C1135 C250 1.338 . S
C1147 C81 1.310 . S
C1162 C265 1.315 . S
C1174 C94 1.328 . S
C1189 C3 1.284 . S
C1201 C109 1.308 . S
C1216 C18 1.340 . S
C1228 C122 1.307 . S
C1243 C31 1.339 . S
C1255 C133 1.256 . S
C1270 C44 1.344 . S
C1282 C148 1.278 . S
C1297 C55 1.278 . S
C1309 C159 1.288 . S
C1324 C68 1.309 . S
C1336 C172 1.234 . S
C1351 C187 1.299 . S
C1363 C83 1.281 . S
C1378 C96 1.345 . S
C1390 C200 1.283 . S
C1405 C107 1.306 . S
C1417 C213 1.234 . S
C1432 C226 1.292 . S
C1444 C161 1.279 . S
C1459 C174 1.314 . S
C1471 C239 1.234 . S
C1486 C252 1.315 . S
C1498 C185 1.289 . S
C1513 C263 1.238 . S
C1525 C198 1.296 . S
C1540 C276 1.274 . S
C1552 C135 1.279 . S
C1567 C146 1.338 . S
C1579 C291 1.253 . S
C1594 C302 1.327 . S
C1606 C120 1.303 . S
