# Generated by pormake.
# Topology vbm, (6)-cn, num edge types: 1
# Building blocks:
#     Node 0, Type 0, BuildingBlock: BETDAH_clean_sbu_0, # of connection points: 6
#     Node 1, Type 0, BuildingBlock: BETDAH_clean_sbu_0, # of connection points: 6
#     Node 2, Type 0, BuildingBlock: BETDAH_clean_sbu_0, # of connection points: 6
#     Node 3, Type 0, BuildingBlock: BETDAH_clean_sbu_0, # of connection points: 6
#     Node 4, Type 0, BuildingBlock: BETDAH_clean_sbu_0, # of connection points: 6
#     Node 5, Type 0, BuildingBlock: BETDAH_clean_sbu_0, # of connection points: 6
#     Node 6, Type 0, BuildingBlock: BETDAH_clean_sbu_0, # of connection points: 6
#     Node 7, Type 0, BuildingBlock: BETDAH_clean_sbu_0, # of connection points: 6
#     Node 8, Type 0, BuildingBlock: BETDAH_clean_sbu_0, # of connection points: 6
#     Node 9, Type 0, BuildingBlock: BETDAH_clean_sbu_0, # of connection points: 6
#     Node 10, Type 0, BuildingBlock: BETDAH_clean_sbu_0, # of connection points: 6
#     Node 11, Type 0, BuildingBlock: BETDAH_clean_sbu_0, # of connection points: 6
#     Node 12, Type 0, BuildingBlock: BETDAH_clean_sbu_0, # of connection points: 6
#     Node 13, Type 0, BuildingBlock: BETDAH_clean_sbu_0, # of connection points: 6
#     Node 14, Type 0, BuildingBlock: BETDAH_clean_sbu_0, # of connection points: 6
#     Node 15, Type 0, BuildingBlock: BETDAH_clean_sbu_0, # of connection points: 6
#     Edge 16, Type (0, 0), BuildingBlock: CIFDUS_clean_linker_0, # of connection points: 2
#     Edge 17, Type (0, 0), BuildingBlock: CIFDUS_clean_linker_0, # of connection points: 2
#     Edge 18, Type (0, 0), BuildingBlock: CIFDUS_clean_linker_0, # of connection points: 2
#     Edge 19, Type (0, 0), BuildingBlock: CIFDUS_clean_linker_0, # of connection points: 2
#     Edge 20, Type (0, 0), BuildingBlock: CIFDUS_clean_linker_0, # of connection points: 2
#     Edge 21, Type (0, 0), BuildingBlock: CIFDUS_clean_linker_0, # of connection points: 2
#     Edge 22, Type (0, 0), BuildingBlock: CIFDUS_clean_linker_0, # of connection points: 2
#     Edge 23, Type (0, 0), BuildingBlock: CIFDUS_clean_linker_0, # of connection points: 2
#     Edge 24, Type (0, 0), BuildingBlock: CIFDUS_clean_linker_0, # of connection points: 2
#     Edge 25, Type (0, 0), BuildingBlock: CIFDUS_clean_linker_0, # of connection points: 2
#     Edge 26, Type (0, 0), BuildingBlock: CIFDUS_clean_linker_0, # of connection points: 2
#     Edge 27, Type (0, 0), BuildingBlock: CIFDUS_clean_linker_0, # of connection points: 2
#     Edge 28, Type (0, 0), BuildingBlock: CIFDUS_clean_linker_0, # of connection points: 2
#     Edge 29, Type (0, 0), BuildingBlock: CIFDUS_clean_linker_0, # of connection points: 2
#     Edge 30, Type (0, 0), BuildingBlock: CIFDUS_clean_linker_0, # of connection points: 2
#     Edge 31, Type (0, 0), BuildingBlock: CIFDUS_clean_linker_0, # of connection points: 2
#     Edge 32, Type (0, 0), BuildingBlock: CIFDUS_clean_linker_0, # of connection points: 2
#     Edge 33, Type (0, 0), BuildingBlock: CIFDUS_clean_linker_0, # of connection points: 2
#     Edge 34, Type (0, 0), BuildingBlock: CIFDUS_clean_linker_0, # of connection points: 2
#     Edge 35, Type (0, 0), BuildingBlock: CIFDUS_clean_linker_0, # of connection points: 2
#     Edge 36, Type (0, 0), BuildingBlock: CIFDUS_clean_linker_0, # of connection points: 2
#     Edge 37, Type (0, 0), BuildingBlock: CIFDUS_clean_linker_0, # of connection points: 2
#     Edge 38, Type (0, 0), BuildingBlock: CIFDUS_clean_linker_0, # of connection points: 2
#     Edge 39, Type (0, 0), BuildingBlock: CIFDUS_clean_linker_0, # of connection points: 2
#     Edge 40, Type (0, 0), BuildingBlock: CIFDUS_clean_linker_0, # of connection points: 2
#     Edge 41, Type (0, 0), BuildingBlock: CIFDUS_clean_linker_0, # of connection points: 2
#     Edge 42, Type (0, 0), BuildingBlock: CIFDUS_clean_linker_0, # of connection points: 2
#     Edge 43, Type (0, 0), BuildingBlock: CIFDUS_clean_linker_0, # of connection points: 2
#     Edge 44, Type (0, 0), BuildingBlock: CIFDUS_clean_linker_0, # of connection points: 2
#     Edge 45, Type (0, 0), BuildingBlock: CIFDUS_clean_linker_0, # of connection points: 2
#     Edge 46, Type (0, 0), BuildingBlock: CIFDUS_clean_linker_0, # of connection points: 2
#     Edge 47, Type (0, 0), BuildingBlock: CIFDUS_clean_linker_0, # of connection points: 2
#     Edge 48, Type (0, 0), BuildingBlock: CIFDUS_clean_linker_0, # of connection points: 2
#     Edge 49, Type (0, 0), BuildingBlock: CIFDUS_clean_linker_0, # of connection points: 2
#     Edge 50, Type (0, 0), BuildingBlock: CIFDUS_clean_linker_0, # of connection points: 2
#     Edge 51, Type (0, 0), BuildingBlock: CIFDUS_clean_linker_0, # of connection points: 2
#     Edge 52, Type (0, 0), BuildingBlock: CIFDUS_clean_linker_0, # of connection points: 2
#     Edge 53, Type (0, 0), BuildingBlock: CIFDUS_clean_linker_0, # of connection points: 2
#     Edge 54, Type (0, 0), BuildingBlock: CIFDUS_clean_linker_0, # of connection points: 2
#     Edge 55, Type (0, 0), BuildingBlock: CIFDUS_clean_linker_0, # of connection points: 2
#     Edge 56, Type (0, 0), BuildingBlock: CIFDUS_clean_linker_0, # of connection points: 2
#     Edge 57, Type (0, 0), BuildingBlock: CIFDUS_clean_linker_0, # of connection points: 2
#     Edge 58, Type (0, 0), BuildingBlock: CIFDUS_clean_linker_0, # of connection points: 2
#     Edge 59, Type (0, 0), BuildingBlock: CIFDUS_clean_linker_0, # of connection points: 2
#     Edge 60, Type (0, 0), BuildingBlock: CIFDUS_clean_linker_0, # of connection points: 2
#     Edge 61, Type (0, 0), BuildingBlock: CIFDUS_clean_linker_0, # of connection points: 2
#     Edge 62, Type (0, 0), BuildingBlock: CIFDUS_clean_linker_0, # of connection points: 2
#     Edge 63, Type (0, 0), BuildingBlock: CIFDUS_clean_linker_0, # of connection points: 2
# Relax obj value: 0.064
# Max RMSD: 0.144
# Mean RMSD: 0.144
data_MOF--net-vbm--node1-BETDAH_clean_sbu_0--edge1-CIFDUS_clean_linker_0
_symmetry_space_group_name_H-M    P1
_symmetry_Int_Tables_number       1
_symmetry_cell_setting            triclinic
loop_
_symmetry_equiv_pos_as_xyz
'x, y, z'
_cell_length_a     47.929696
_cell_length_b     23.877087
_cell_length_c     47.417698
_cell_angle_alpha  89.981042
_cell_angle_beta   89.880696
_cell_angle_gamma 89.869189
loop_
_atom_site_label
_atom_site_type_symbol
_atom_site_fract_x
_atom_site_fract_y
_atom_site_fract_z
_atom_type_partial_charge
Ho0 Ho 0.13674 0.07707 0.17077 0.0
Ho1 Ho 0.10929 0.18937 0.17736 0.0
C2 C 0.06968 0.09216 0.16113 0.0
C3 C 0.15355 0.97391 0.17409 0.0
C4 C 0.14411 0.91518 0.17323 0.0
C5 C 0.11937 0.89751 0.18641 0.0
C6 C 0.11221 0.84059 0.18666 0.0
C7 C 0.12966 0.80039 0.17379 0.0
C8 C 0.15409 0.8187 0.16018 0.0
C9 C 0.16121 0.8754 0.15996 0.0
C10 C 0.13993 0.14149 0.12403 0.0
C11 C 0.17599 0.18017 0.1837 0.0
C12 C 0.09213 0.29254 0.17731 0.0
C13 C 0.10195 0.35089 0.17939 0.0
C14 C 0.12712 0.36856 0.16708 0.0
C15 C 0.13455 0.42533 0.16756 0.0
C16 C 0.11695 0.46538 0.18035 0.0
C17 C 0.09219 0.44693 0.19331 0.0
C18 C 0.08478 0.39039 0.19276 0.0
C19 C 0.10891 0.12137 0.22349 0.0
O20 O 0.09019 0.05766 0.16853 0.0
O21 O 0.0737 0.14615 0.15839 0.0
O22 O 0.15258 1.00207 0.15049 0.0
O23 O 0.14637 1.00407 0.19597 0.0
O24 O 0.15987 0.11016 0.13362 0.0
O25 O 0.11855 0.13678 0.13967 0.0
O26 O 0.15452 0.21208 0.17697 0.0
O27 O 0.17359 0.12533 0.18649 0.0
O28 O 0.09366 0.26188 0.20006 0.0
O29 O 0.09867 0.26472 0.15449 0.0
O30 O 0.0875 0.15057 0.21549 0.0
O31 O 0.1289 0.13033 0.20701 0.0
H32 H 0.10583 0.92748 0.19683 0.0
H33 H 0.09333 0.82794 0.1975 0.0
H34 H 0.16774 0.7892 0.1496 0.0
H35 H 0.18038 0.88817 0.14965 0.0
H36 H 0.14073 0.33876 0.15665 0.0
H37 H 0.15369 0.43801 0.15724 0.0
H38 H 0.07843 0.47625 0.20388 0.0
H39 H 0.06532 0.37757 0.20246 0.0
Ho40 Ho 0.85539 0.95735 0.16122 0.0
Ho41 Ho 0.88144 0.84348 0.16423 0.0
C42 C 0.92232 0.94155 0.15206 0.0
C43 C 0.83955 0.06047 0.16738 0.0
C44 C 0.849 0.1189 0.16503 0.0
C45 C 0.87435 0.13715 0.17663 0.0
C46 C 0.8814 0.19403 0.17589 0.0
C47 C 0.86322 0.23348 0.1636 0.0
C48 C 0.83824 0.21457 0.15142 0.0
C49 C 0.83121 0.15793 0.1522 0.0
C50 C 0.85473 0.90039 0.11176 0.0
C51 C 0.8147 0.8558 0.17194 0.0
C52 C 0.8977 0.74036 0.15984 0.0
C53 C 0.88817 0.68229 0.16376 0.0
C54 C 0.86244 0.66346 0.15332 0.0
C55 C 0.85531 0.60674 0.15525 0.0
C56 C 0.87378 0.568 0.16769 0.0
C57 C 0.89906 0.58761 0.17894 0.0
C58 C 0.90618 0.64409 0.1769 0.0
C59 C 0.8828 0.90458 0.21252 0.0
O60 O 0.90196 0.97551 0.16046 0.0
O61 O 0.91771 0.8884 0.14678 0.0
O62 O 0.83679 0.03257 0.14388 0.0
O63 O 0.84981 0.03002 0.18781 0.0
O64 O 0.83421 0.93004 0.1215 0.0
O65 O 0.87489 0.90246 0.12884 0.0
O66 O 0.83566 0.823 0.16444 0.0
O67 O 0.81816 0.90991 0.17619 0.0
O68 O 0.90105 0.77031 0.18261 0.0
O69 O 0.8869 0.76896 0.13899 0.0
O70 O 0.90342 0.87436 0.20347 0.0
O71 O 0.86247 0.89959 0.19598 0.0
H72 H 0.88842 0.10775 0.18667 0.0
H73 H 0.90072 0.20728 0.1856 0.0
H74 H 0.82404 0.24362 0.14131 0.0
H75 H 0.81158 0.14467 0.14312 0.0
H76 H 0.84813 0.69223 0.14314 0.0
H77 H 0.83574 0.593 0.14625 0.0
H78 H 0.91348 0.5592 0.18917 0.0
H79 H 0.92608 0.65783 0.18517 0.0
Ho80 Ho 0.12693 0.98412 0.39834 0.0
Ho81 Ho 0.10117 0.86121 0.40646 0.0
C82 C 0.0617 0.96383 0.41625 0.0
C83 C 0.13899 0.08021 0.37629 0.0
C84 C 0.13482 0.13972 0.38329 0.0
C85 C 0.1481 0.18098 0.36712 0.0
C86 C 0.14358 0.23782 0.37281 0.0
C87 C 0.12559 0.25446 0.39479 0.0
C88 C 0.11265 0.21271 0.41123 0.0
C89 C 0.11723 0.15587 0.40554 0.0
C90 C 0.12667 0.95507 0.45383 0.0
C91 C 0.16725 0.87557 0.39314 0.0
C92 C 0.08807 0.75937 0.41977 0.0
C93 C 0.09907 0.70173 0.4185 0.0
C94 C 0.08771 0.6612 0.4365 0.0
C95 C 0.09574 0.60507 0.43417 0.0
C96 C 0.11528 0.58817 0.41366 0.0
C97 C 0.12737 0.62938 0.39622 0.0
C98 C 0.11931 0.6857 0.3986 0.0
C99 C 0.09659 0.9121 0.35525 0.0
O100 O 0.08007 0.99564 0.40258 0.0
O101 O 0.06771 0.913 0.42528 0.0
O102 O 0.15612 0.05223 0.3926 0.0
O103 O 0.11638 0.05196 0.37016 0.0
O104 O 0.13656 1.00182 0.44414 0.0
O105 O 0.11725 0.928 0.43318 0.0
O106 O 0.14658 0.84276 0.40141 0.0
O107 O 0.16417 0.92998 0.38809 0.0
O108 O 0.08171 0.78277 0.39566 0.0
O109 O 0.10015 0.79404 0.43729 0.0
O110 O 0.07712 0.88123 0.36628 0.0
O111 O 0.11721 0.91266 0.37151 0.0
H112 H 0.1617 0.16923 0.34981 0.0
H113 H 0.15362 0.26871 0.35952 0.0
H114 H 0.09896 0.22396 0.42853 0.0
H115 H 0.10687 0.12453 0.41832 0.0
H116 H 0.07213 0.67279 0.45204 0.0
H117 H 0.08642 0.5748 0.44834 0.0
H118 H 0.14237 0.61792 0.38011 0.0
H119 H 0.12834 0.71642 0.38448 0.0
Ho120 Ho 0.84158 0.0658 0.38931 0.0
Ho121 Ho 0.86835 0.18814 0.38663 0.0
C122 C 0.90855 0.08647 0.39785 0.0
C123 C 0.82503 0.96799 0.37341 0.0
C124 C 0.8285 0.90896 0.38151 0.0
C125 C 0.80741 0.87072 0.37485 0.0
C126 C 0.81064 0.8139 0.38112 0.0
C127 C 0.83513 0.79419 0.39413 0.0
C128 C 0.85602 0.833 0.40134 0.0
C129 C 0.85272 0.88995 0.39511 0.0
C130 C 0.8473 0.10735 0.44221 0.0
C131 C 0.80139 0.17421 0.38546 0.0
C132 C 0.88414 0.29139 0.39028 0.0
C133 C 0.87288 0.34845 0.39324 0.0
C134 C 0.89002 0.39041 0.40434 0.0
C135 C 0.88121 0.44623 0.4044 0.0
C136 C 0.85498 0.46116 0.39338 0.0
C137 C 0.83739 0.41849 0.38326 0.0
C138 C 0.84633 0.36266 0.38308 0.0
C139 C 0.86687 0.12529 0.33886 0.0
O140 O 0.88852 0.05096 0.39033 0.0
O141 O 0.90432 0.14023 0.40233 0.0
O142 O 0.81088 0.99959 0.39095 0.0
O143 O 0.8471 0.99301 0.36297 0.0
O144 O 0.83674 0.05863 0.43656 0.0
O145 O 0.85449 0.12983 0.41927 0.0
O146 O 0.82297 0.20714 0.39037 0.0
O147 O 0.80376 0.11947 0.38116 0.0
O148 O 0.87893 0.26598 0.3664 0.0
O149 O 0.88218 0.25814 0.41218 0.0
O150 O 0.8879 0.15657 0.34573 0.0
O151 O 0.84819 0.12987 0.35727 0.0
H152 H 0.7885 0.88475 0.3645 0.0
H153 H 0.79394 0.78538 0.37573 0.0
H154 H 0.87524 0.81921 0.41112 0.0
H155 H 0.86923 0.91894 0.40051 0.0
H156 H 0.91068 0.38025 0.41208 0.0
H157 H 0.89547 0.47791 0.41198 0.0
H158 H 0.81691 0.42833 0.37498 0.0
H159 H 0.83291 0.33088 0.37421 0.0
Ho160 Ho 0.86862 0.87751 0.89588 0.0
Ho161 Ho 0.83814 0.98962 0.89818 0.0
C162 C 0.80137 0.88123 0.88917 0.0
C163 C 0.88626 0.77504 0.90154 0.0
C164 C 0.87688 0.71613 0.89911 0.0
C165 C 0.85036 0.69874 0.90822 0.0
C166 C 0.84277 0.64202 0.90681 0.0
C167 C 0.86159 0.60144 0.89639 0.0
C168 C 0.88798 0.61941 0.88701 0.0
C169 C 0.89549 0.67598 0.88838 0.0
C170 C 0.86542 0.93555 0.84672 0.0
C171 C 0.90577 0.98325 0.90694 0.0
C172 C 0.82047 0.09155 0.89068 0.0
C173 C 0.82951 0.15069 0.89303 0.0
C174 C 0.85622 0.16835 0.88466 0.0
C175 C 0.86353 0.22522 0.88604 0.0
C176 C 0.84431 0.26567 0.89587 0.0
C177 C 0.81773 0.24741 0.90453 0.0
C178 C 0.81046 0.19071 0.90308 0.0
C179 C 0.83793 0.93186 0.94705 0.0
O180 O 0.82357 0.85209 0.89676 0.0
O181 O 0.80262 0.93569 0.88413 0.0
O182 O 0.88851 0.80364 0.87816 0.0
O183 O 0.87607 0.80499 0.92226 0.0
O184 O 0.88741 0.908 0.85462 0.0
O185 O 0.84641 0.92954 0.86469 0.0
O186 O 0.88384 1.01386 0.89961 0.0
O187 O 0.90405 0.92875 0.91088 0.0
O188 O 0.81727 0.06383 0.91423 0.0
O189 O 0.83169 0.06098 0.87073 0.0
O190 O 0.81726 0.96167 0.93776 0.0
O191 O 0.8587 0.93636 0.93062 0.0
H192 H 0.83564 0.72879 0.91674 0.0
H193 H 0.82236 0.62985 0.91445 0.0
H194 H 0.90285 0.58977 0.87839 0.0
H195 H 0.91606 0.68837 0.88122 0.0
H196 H 0.87135 0.13837 0.8768 0.0
H197 H 0.88409 0.23755 0.87892 0.0
H198 H 0.80253 0.27687 0.91271 0.0
H199 H 0.78975 0.1781 0.9097 0.0
Ho200 Ho 0.10287 0.18525 0.90514 0.0
Ho201 Ho 0.13265 0.07221 0.90929 0.0
C202 C 0.17047 0.17967 0.90035 0.0
C203 C 0.08505 0.28735 0.91147 0.0
C204 C 0.09467 0.34615 0.91099 0.0
C205 C 0.07942 0.38651 0.92601 0.0
C206 C 0.08708 0.44301 0.92515 0.0
C207 C 0.11024 0.46066 0.90917 0.0
C208 C 0.1258 0.41977 0.89444 0.0
C209 C 0.11808 0.36307 0.89532 0.0
C210 C 0.10761 0.12676 0.85643 0.0
C211 C 0.06465 0.07932 0.91279 0.0
C212 C 0.15081 0.97028 0.90293 0.0
C213 C 0.14151 0.91125 0.90304 0.0
C214 C 0.15711 0.87144 0.88798 0.0
C215 C 0.14976 0.81473 0.88857 0.0
C216 C 0.12659 0.79634 0.90431 0.0
C217 C 0.11074 0.83667 0.91913 0.0
C218 C 0.11812 0.89355 0.91849 0.0
C219 C 0.12876 0.12997 0.95829 0.0
O220 O 0.1482 0.21005 0.90666 0.0
O221 O 0.16908 0.12485 0.89671 0.0
O222 O 0.08471 0.26047 0.88745 0.0
O223 O 0.09371 0.25604 0.93235 0.0
O224 O 0.08577 0.15621 0.86307 0.0
O225 O 0.12592 0.13194 0.87518 0.0
O226 O 0.08697 0.04846 0.90699 0.0
O227 O 0.06623 0.13377 0.91707 0.0
O228 O 0.15058 0.99683 0.92704 0.0
O229 O 0.14236 1.00172 0.88203 0.0
O230 O 0.15038 0.10098 0.95053 0.0
O231 O 0.10975 0.12532 0.94 0.0
H232 H 0.06135 0.37434 0.93832 0.0
H233 H 0.07491 0.47285 0.93723 0.0
H234 H 0.14364 0.43167 0.88175 0.0
H235 H 0.13017 0.33263 0.88354 0.0
H236 H 0.17519 0.88422 0.87585 0.0
H237 H 0.16217 0.78534 0.87647 0.0
H238 H 0.09291 0.82419 0.93169 0.0
H239 H 0.10576 0.92353 0.9303 0.0
Ho240 Ho 0.87323 0.18278 0.65873 0.0
Ho241 Ho 0.84392 0.06952 0.65672 0.0
C242 C 0.80623 0.1755 0.66917 0.0
C243 C 0.8904 0.28465 0.65117 0.0
C244 C 0.88131 0.34352 0.65414 0.0
C245 C 0.85382 0.36061 0.64848 0.0
C246 C 0.8464 0.4174 0.65022 0.0
C247 C 0.86634 0.45816 0.65766 0.0
C248 C 0.89368 0.44041 0.66379 0.0
C249 C 0.90104 0.38382 0.662 0.0
C250 C 0.87485 0.12327 0.70706 0.0
C251 C 0.91104 0.07679 0.64735 0.0
C252 C 0.82698 0.96731 0.66408 0.0
C253 C 0.83576 0.90838 0.66037 0.0
C254 C 0.86311 0.89042 0.66604 0.0
C255 C 0.87016 0.83351 0.66397 0.0
C256 C 0.85001 0.79345 0.65621 0.0
C257 C 0.82279 0.81201 0.65013 0.0
C258 C 0.81578 0.86876 0.65222 0.0
C259 C 0.84619 0.12634 0.6069 0.0
O260 O 0.82771 0.20658 0.66132 0.0
O261 O 0.80838 0.12083 0.6726 0.0
O262 O 0.8944 0.25653 0.67447 0.0
O263 O 0.87854 0.25462 0.63146 0.0
O264 O 0.89511 0.15442 0.69804 0.0
O265 O 0.85401 0.12779 0.69092 0.0
O266 O 0.88952 0.0456 0.65506 0.0
O267 O 0.90868 0.13122 0.64298 0.0
O268 O 0.82204 0.99624 0.64124 0.0
O269 O 0.83974 0.99662 0.68344 0.0
O270 O 0.82494 0.09717 0.61533 0.0
O271 O 0.86526 0.12212 0.62496 0.0
H272 H 0.83819 0.33026 0.64238 0.0
H273 H 0.8252 0.42947 0.64516 0.0
H274 H 0.90944 0.47024 0.67014 0.0
H275 H 0.92234 0.37152 0.66657 0.0
H276 H 0.87891 0.92017 0.67244 0.0
H277 H 0.89126 0.82079 0.66906 0.0
H278 H 0.80686 0.78269 0.6436 0.0
H279 H 0.79456 0.8817 0.64774 0.0
Ho280 Ho 0.10422 0.87453 0.67014 0.0
Ho281 Ho 0.13522 0.99502 0.67162 0.0
C282 C 0.17183 0.88298 0.67823 0.0
C283 C 0.08663 0.77311 0.66269 0.0
C284 C 0.09614 0.71446 0.66092 0.0
C285 C 0.12439 0.70007 0.65785 0.0
C286 C 0.13262 0.64356 0.65784 0.0
C287 C 0.11269 0.60057 0.66096 0.0
C288 C 0.08439 0.61564 0.6635 0.0
C289 C 0.07627 0.67186 0.66356 0.0
C290 C 0.1006 0.93594 0.71787 0.0
C291 C 0.06941 0.98394 0.65515 0.0
C292 C 0.15082 0.09251 0.68924 0.0
C293 C 0.14443 0.15231 0.68388 0.0
C294 C 0.11675 0.17182 0.68276 0.0
C295 C 0.11112 0.2292 0.68057 0.0
C296 C 0.13299 0.2684 0.67927 0.0
C297 C 0.16065 0.24859 0.67927 0.0
C298 C 0.16629 0.19113 0.68168 0.0
C299 C 0.13063 0.9541 0.61814 0.0
O300 O 0.14967 0.85199 0.67226 0.0
O301 O 0.17087 0.93804 0.68184 0.0
O302 O 0.08877 0.79692 0.68745 0.0
O303 O 0.09314 0.80684 0.64186 0.0
O304 O 0.08056 0.90488 0.70827 0.0
O305 O 0.12187 0.93121 0.7023 0.0
O306 O 0.08968 1.01556 0.66561 0.0
O307 O 0.07176 0.92924 0.65115 0.0
O308 O 0.16409 0.06494 0.66937 0.0
O309 O 0.1311 0.06287 0.70126 0.0
O310 O 0.14291 1.00104 0.62419 0.0
O311 O 0.12232 0.93333 0.64091 0.0
H312 H 0.14003 0.73244 0.65577 0.0
H313 H 0.1546 0.63362 0.656 0.0
H314 H 0.06838 0.58391 0.66534 0.0
H315 H 0.05435 0.68213 0.66591 0.0
H316 H 0.09942 0.14291 0.68419 0.0
H317 H 0.08958 0.24296 0.68017 0.0
H318 H 0.17796 0.27763 0.67847 0.0
H319 H 0.18779 0.17712 0.68256 0.0
Ho320 Ho 0.63167 0.57963 0.16415 0.0
Ho321 Ho 0.6069 0.69261 0.17731 0.0
C322 C 0.56441 0.59542 0.16709 0.0
C323 C 0.64921 0.47686 0.16264 0.0
C324 C 0.64075 0.4178 0.16418 0.0
C325 C 0.66085 0.37798 0.17184 0.0
C326 C 0.65439 0.32103 0.17188 0.0
C327 C 0.62759 0.3026 0.16431 0.0
C328 C 0.60725 0.34288 0.1571 0.0
C329 C 0.61378 0.40011 0.15705 0.0
C330 C 0.62645 0.64795 0.11845 0.0
C331 C 0.6737 0.67981 0.17313 0.0
C332 C 0.58966 0.79534 0.18068 0.0
C333 C 0.59833 0.8542 0.17815 0.0
C334 C 0.57829 0.894 0.17028 0.0
C335 C 0.58493 0.95088 0.16966 0.0
C336 C 0.61184 0.96923 0.17688 0.0
C337 C 0.63215 0.92894 0.18416 0.0
C338 C 0.62544 0.87183 0.18479 0.0
C339 C 0.60997 0.6205 0.22151 0.0
O340 O 0.58558 0.55975 0.16894 0.0
O341 O 0.56794 0.64987 0.16593 0.0
O342 O 0.64176 0.50516 0.14029 0.0
O343 O 0.64746 0.50623 0.18582 0.0
O344 O 0.6478 0.61612 0.12357 0.0
O345 O 0.6089 0.64207 0.13818 0.0
O346 O 0.65205 0.71362 0.17022 0.0
O347 O 0.67075 0.62508 0.17496 0.0
O348 O 0.59924 0.76689 0.20216 0.0
O349 O 0.5888 0.7659 0.15746 0.0
O350 O 0.58919 0.65411 0.21714 0.0
O351 O 0.62844 0.62852 0.20299 0.0
H352 H 0.68182 0.39092 0.17728 0.0
H353 H 0.6707 0.29134 0.17711 0.0
H354 H 0.58631 0.33018 0.15148 0.0
H355 H 0.59794 0.43035 0.15114 0.0
H356 H 0.55722 0.88116 0.16522 0.0
H357 H 0.56867 0.98061 0.16436 0.0
H358 H 0.65317 0.94156 0.1895 0.0
H359 H 0.64124 0.84167 0.19086 0.0
Ho360 Ho 0.34791 0.48262 0.16517 0.0
Ho361 Ho 0.37708 0.36119 0.16402 0.0
C362 C 0.41373 0.46568 0.1489 0.0
C363 C 0.33367 0.58138 0.18209 0.0
C364 C 0.33941 0.64039 0.17454 0.0
C365 C 0.36646 0.66271 0.17645 0.0
C366 C 0.37124 0.71932 0.17083 0.0
C367 C 0.34916 0.755 0.16298 0.0
C368 C 0.32217 0.73236 0.16071 0.0
C369 C 0.31736 0.67573 0.16654 0.0
C370 C 0.35111 0.44159 0.11159 0.0
C371 C 0.31033 0.373 0.17574 0.0
C372 C 0.39171 0.25835 0.15574 0.0
C373 C 0.37926 0.20186 0.15538 0.0
C374 C 0.38502 0.16615 0.13264 0.0
C375 C 0.37573 0.11071 0.13288 0.0
C376 C 0.36069 0.08956 0.15606 0.0
C377 C 0.35408 0.12615 0.17841 0.0
C378 C 0.36319 0.18178 0.17803 0.0
C379 C 0.38118 0.42343 0.21171 0.0
O380 O 0.39421 0.49855 0.16016 0.0
O381 O 0.40978 0.41208 0.14355 0.0
O382 O 0.3187 0.5521 0.16427 0.0
O383 O 0.3544 0.55269 0.19292 0.0
O384 O 0.33967 0.48929 0.11796 0.0
O385 O 0.35947 0.41994 0.13417 0.0
O386 O 0.33178 0.34054 0.169 0.0
O387 O 0.31201 0.42825 0.17793 0.0
O388 O 0.3934 0.28346 0.18024 0.0
O389 O 0.38466 0.29232 0.13523 0.0
O390 O 0.40115 0.3917 0.20215 0.0
O391 O 0.36011 0.41887 0.19603 0.0
H392 H 0.38395 0.63674 0.1827 0.0
H393 H 0.39222 0.73534 0.17327 0.0
H394 H 0.30473 0.75834 0.15436 0.0
H395 H 0.2963 0.65961 0.165 0.0
H396 H 0.39726 0.18083 0.11488 0.0
H397 H 0.38068 0.08423 0.11501 0.0
H398 H 0.34274 0.11138 0.19672 0.0
H399 H 0.35828 0.20852 0.19582 0.0
Ho400 Ho 0.62697 0.47611 0.39955 0.0
Ho401 Ho 0.59971 0.35411 0.40298 0.0
C402 C 0.56108 0.45766 0.41559 0.0
C403 C 0.64173 0.57235 0.3794 0.0
C404 C 0.64014 0.63304 0.38509 0.0
C405 C 0.61823 0.65686 0.40079 0.0
C406 C 0.61628 0.71524 0.40383 0.0
C407 C 0.63613 0.75071 0.39111 0.0
C408 C 0.65841 0.72629 0.37612 0.0
C409 C 0.66036 0.66816 0.37316 0.0
C410 C 0.62622 0.43995 0.45396 0.0
C411 C 0.66603 0.36672 0.39378 0.0
C412 C 0.58442 0.2511 0.4102 0.0
C413 C 0.59471 0.19341 0.41475 0.0
C414 C 0.6187 0.17283 0.40114 0.0
C415 C 0.62577 0.11589 0.40303 0.0
C416 C 0.60895 0.07844 0.4185 0.0
C417 C 0.5855 0.09987 0.43283 0.0
C418 C 0.57849 0.15664 0.43095 0.0
C419 C 0.59604 0.41249 0.35374 0.0
O420 O 0.58044 0.49088 0.4044 0.0
O421 O 0.56562 0.40446 0.42152 0.0
O422 O 0.65768 0.54227 0.39599 0.0
O423 O 0.61835 0.54718 0.37279 0.0
O424 O 0.63642 0.48764 0.44584 0.0
O425 O 0.61689 0.41524 0.43247 0.0
O426 O 0.64527 0.33523 0.40295 0.0
O427 O 0.66317 0.42071 0.38777 0.0
O428 O 0.58928 0.27358 0.38549 0.0
O429 O 0.58672 0.28692 0.43101 0.0
O430 O 0.57594 0.38218 0.36392 0.0
O431 O 0.61666 0.40945 0.36993 0.0
H432 H 0.60235 0.63047 0.41015 0.0
H433 H 0.59876 0.73265 0.41534 0.0
H434 H 0.67429 0.7522 0.36645 0.0
H435 H 0.67746 0.65061 0.36103 0.0
H436 H 0.63153 0.20036 0.38846 0.0
H437 H 0.6442 0.10109 0.39207 0.0
H438 H 0.57184 0.07238 0.44463 0.0
H439 H 0.55976 0.1715 0.4414 0.0
Ho440 Ho 0.34539 0.58061 0.39543 0.0
Ho441 Ho 0.37122 0.70272 0.38892 0.0
C442 C 0.41233 0.60308 0.40271 0.0
C443 C 0.32909 0.48149 0.38145 0.0
C444 C 0.33415 0.42285 0.38918 0.0
C445 C 0.31653 0.38136 0.37843 0.0
C446 C 0.32208 0.32486 0.38363 0.0
C447 C 0.34541 0.30884 0.3997 0.0
C448 C 0.36265 0.35083 0.41107 0.0
C449 C 0.35705 0.40744 0.40585 0.0
C450 C 0.35229 0.62733 0.44716 0.0
C451 C 0.30452 0.68734 0.39094 0.0
C452 C 0.38558 0.80685 0.3898 0.0
C453 C 0.37465 0.86285 0.39697 0.0
C454 C 0.39117 0.8987 0.41329 0.0
C455 C 0.38304 0.95417 0.41781 0.0
C456 C 0.35826 0.9751 0.40591 0.0
C457 C 0.34111 0.93836 0.39055 0.0
C458 C 0.34923 0.88272 0.3861 0.0
C459 C 0.36955 0.63534 0.34268 0.0
O460 O 0.39228 0.56646 0.39674 0.0
O461 O 0.40801 0.65742 0.40482 0.0
O462 O 0.31603 0.51252 0.40011 0.0
O463 O 0.34999 0.5074 0.36929 0.0
O464 O 0.34193 0.57781 0.44302 0.0
O465 O 0.35838 0.64807 0.42347 0.0
O466 O 0.32601 0.72057 0.39567 0.0
O467 O 0.30716 0.63264 0.38685 0.0
O468 O 0.37502 0.78205 0.36761 0.0
O469 O 0.39028 0.77241 0.4108 0.0
O470 O 0.39021 0.66856 0.34825 0.0
O471 O 0.35114 0.641 0.36135 0.0
H472 H 0.29883 0.39263 0.3654 0.0
H473 H 0.30862 0.29368 0.37422 0.0
H474 H 0.38061 0.33991 0.42378 0.0
H475 H 0.37085 0.43909 0.41434 0.0
H476 H 0.41082 0.88419 0.42192 0.0
H477 H 0.39646 0.98099 0.4302 0.0
H478 H 0.32198 0.95314 0.38093 0.0
H479 H 0.33606 0.85589 0.37344 0.0
Ho480 Ho 0.37127 0.35885 0.89536 0.0
Ho481 Ho 0.34518 0.48082 0.89297 0.0
C482 C 0.3046 0.37424 0.88881 0.0
C483 C 0.38522 0.25479 0.90118 0.0
C484 C 0.37328 0.19849 0.9053 0.0
C485 C 0.38722 0.16058 0.92293 0.0
C486 C 0.37878 0.10467 0.92439 0.0
C487 C 0.35625 0.08538 0.90811 0.0
C488 C 0.34147 0.12418 0.89143 0.0
C489 C 0.34992 0.18022 0.89002 0.0
C490 C 0.37628 0.41833 0.84667 0.0
C491 C 0.41062 0.45914 0.91013 0.0
C492 C 0.33197 0.5786 0.87369 0.0
C493 C 0.33632 0.63762 0.88128 0.0
C494 C 0.32063 0.67924 0.86777 0.0
C495 C 0.32536 0.73581 0.87363 0.0
C496 C 0.34596 0.75178 0.89312 0.0
C497 C 0.36132 0.70968 0.90702 0.0
C498 C 0.35652 0.65305 0.90117 0.0
C499 C 0.34592 0.44496 0.94729 0.0
O500 O 0.32566 0.34181 0.89636 0.0
O501 O 0.30746 0.42832 0.88314 0.0
O502 O 0.38073 0.27877 0.87677 0.0
O503 O 0.38389 0.28988 0.92238 0.0
O504 O 0.39601 0.38753 0.85718 0.0
O505 O 0.35513 0.41554 0.86236 0.0
O506 O 0.39181 0.49383 0.899 0.0
O507 O 0.40543 0.40594 0.91516 0.0
O508 O 0.31577 0.54955 0.89047 0.0
O509 O 0.35428 0.55089 0.86577 0.0
O510 O 0.33628 0.4932 0.93925 0.0
O511 O 0.35473 0.4192 0.92579 0.0
H512 H 0.40526 0.17382 0.93492 0.0
H513 H 0.39027 0.07626 0.93789 0.0
H514 H 0.32413 0.1108 0.87849 0.0
H515 H 0.33881 0.20868 0.87622 0.0
H516 H 0.30501 0.668 0.85229 0.0
H517 H 0.31343 0.76707 0.86228 0.0
H518 H 0.37711 0.7205 0.92238 0.0
H519 H 0.36878 0.62137 0.91188 0.0
Ho520 Ho 0.60195 0.6986 0.89496 0.0
Ho521 Ho 0.62777 0.57711 0.90328 0.0
C522 C 0.66846 0.6834 0.89722 0.0
C523 C 0.58639 0.80236 0.8935 0.0
C524 C 0.59587 0.85946 0.8997 0.0
C525 C 0.62393 0.87146 0.90541 0.0
C526 C 0.63255 0.92705 0.90898 0.0
C527 C 0.61313 0.97128 0.90714 0.0
C528 C 0.58493 0.95857 0.90218 0.0
C529 C 0.57643 0.90322 0.89846 0.0
C530 C 0.60453 0.62909 0.8495 0.0
C531 C 0.56071 0.60054 0.90953 0.0
C532 C 0.64387 0.47653 0.89158 0.0
C533 C 0.63843 0.41834 0.90048 0.0
C534 C 0.61114 0.39744 0.90278 0.0
C535 C 0.60661 0.34086 0.90883 0.0
C536 C 0.62925 0.30404 0.91288 0.0
C537 C 0.65651 0.32564 0.91144 0.0
C538 C 0.66102 0.38215 0.90521 0.0
C539 C 0.62064 0.62631 0.95444 0.0
O540 O 0.64691 0.71661 0.90209 0.0
O541 O 0.66601 0.6285 0.89375 0.0
O542 O 0.59869 0.77683 0.87243 0.0
O543 O 0.58178 0.76936 0.91507 0.0
O544 O 0.58359 0.66208 0.8546 0.0
O545 O 0.62263 0.63558 0.86829 0.0
O546 O 0.58077 0.56361 0.9037 0.0
O547 O 0.56527 0.65465 0.91175 0.0
O548 O 0.65694 0.50878 0.90959 0.0
O549 O 0.62367 0.50243 0.8782 0.0
O550 O 0.63088 0.57649 0.95083 0.0
O551 O 0.6146 0.64617 0.93053 0.0
H552 H 0.63914 0.83803 0.9067 0.0
H553 H 0.65438 0.93546 0.91301 0.0
H554 H 0.56952 0.99159 0.90021 0.0
H555 H 0.55469 0.89466 0.89397 0.0
H556 H 0.59329 0.42446 0.89927 0.0
H557 H 0.58535 0.32569 0.90942 0.0
H558 H 0.67442 0.2988 0.91492 0.0
H559 H 0.68224 0.39742 0.90359 0.0
Ho560 Ho 0.37355 0.69715 0.66902 0.0
Ho561 Ho 0.34692 0.58478 0.65828 0.0
C562 C 0.30653 0.68835 0.66783 0.0
C563 C 0.39176 0.79945 0.66992 0.0
C564 C 0.38304 0.85864 0.66901 0.0
C565 C 0.40268 0.89894 0.66089 0.0
C566 C 0.39585 0.95586 0.66117 0.0
C567 C 0.3691 0.97384 0.66951 0.0
C568 C 0.34924 0.93305 0.67722 0.0
C569 C 0.35618 0.87593 0.67702 0.0
C570 C 0.36902 0.6286 0.71459 0.0
C571 C 0.41459 0.59749 0.65954 0.0
C572 C 0.32879 0.48237 0.65862 0.0
C573 C 0.33739 0.42314 0.65959 0.0
C574 C 0.31748 0.38296 0.66713 0.0
C575 C 0.32415 0.32598 0.66679 0.0
C576 C 0.351 0.30784 0.65891 0.0
C577 C 0.37114 0.34849 0.65179 0.0
C578 C 0.3644 0.40572 0.65214 0.0
C579 C 0.35202 0.65026 0.61159 0.0
O580 O 0.32856 0.72038 0.66362 0.0
O581 O 0.30864 0.63336 0.66996 0.0
O582 O 0.38539 0.77089 0.69255 0.0
O583 O 0.38884 0.77031 0.64679 0.0
O584 O 0.39055 0.65982 0.70957 0.0
O585 O 0.35089 0.63671 0.69586 0.0
O586 O 0.39304 0.56332 0.663 0.0
O587 O 0.41148 0.65177 0.65658 0.0
O588 O 0.33453 0.5103 0.63564 0.0
O589 O 0.33245 0.51206 0.68145 0.0
O590 O 0.33036 0.62013 0.61771 0.0
O591 O 0.37005 0.64399 0.63081 0.0
H592 H 0.42359 0.88641 0.65479 0.0
H593 H 0.41185 0.98584 0.65556 0.0
H594 H 0.32833 0.94522 0.68343 0.0
H595 H 0.34074 0.84541 0.68341 0.0
H596 H 0.29648 0.39563 0.67282 0.0
H597 H 0.30798 0.29607 0.67198 0.0
H598 H 0.39212 0.33609 0.64595 0.0
H599 H 0.3801 0.43619 0.64631 0.0
Ho600 Ho 0.6019 0.34962 0.67249 0.0
Ho601 Ho 0.62954 0.47125 0.6714 0.0
C602 C 0.66906 0.3633 0.67872 0.0
C603 C 0.586 0.24659 0.66789 0.0
C604 C 0.59723 0.18937 0.66571 0.0
C605 C 0.58028 0.14718 0.65454 0.0
C606 C 0.58905 0.09134 0.65503 0.0
C607 C 0.61503 0.07661 0.66669 0.0
C608 C 0.63242 0.11948 0.67696 0.0
C609 C 0.62355 0.17537 0.67654 0.0
C610 C 0.59754 0.41427 0.71941 0.0
C611 C 0.56373 0.45202 0.65641 0.0
C612 C 0.64482 0.56962 0.68781 0.0
C613 C 0.64159 0.62865 0.67951 0.0
C614 C 0.66238 0.66702 0.68693 0.0
C615 C 0.65923 0.72388 0.68068 0.0
C616 C 0.63513 0.74352 0.66692 0.0
C617 C 0.61455 0.70459 0.65898 0.0
C618 C 0.61776 0.64761 0.6652 0.0
C619 C 0.62551 0.42943 0.61816 0.0
O620 O 0.64766 0.3302 0.67304 0.0
O621 O 0.66662 0.41813 0.68213 0.0
O622 O 0.58974 0.272 0.69204 0.0
O623 O 0.58953 0.27972 0.64614 0.0
O624 O 0.57777 0.38216 0.71015 0.0
O625 O 0.61866 0.40942 0.70371 0.0
O626 O 0.58308 0.4863 0.66669 0.0
O627 O 0.56812 0.39811 0.65227 0.0
O628 O 0.66002 0.53805 0.67116 0.0
O629 O 0.62233 0.54435 0.69709 0.0
O630 O 0.63619 0.47796 0.62405 0.0
O631 O 0.61814 0.40705 0.641 0.0
H632 H 0.55981 0.1572 0.64626 0.0
H633 H 0.57494 0.05951 0.6473 0.0
H634 H 0.6527 0.10975 0.68575 0.0
H635 H 0.63685 0.2074 0.68537 0.0
H636 H 0.68096 0.65307 0.69789 0.0
H637 H 0.67569 0.75248 0.68666 0.0
H638 H 0.59561 0.7183 0.64863 0.0
H639 H 0.60146 0.61857 0.65926 0.0
H640 H 0.18637 0.29116 0.18705 0.0
H641 H 0.22733 0.12982 0.1864 0.0
H642 H 0.27283 0.17593 0.18556 0.0
H643 H 0.3005 0.26164 0.18157 0.0
H644 H 0.25919 0.42277 0.18137 0.0
H645 H 0.21404 0.37669 0.18607 0.0
C646 C 0.20522 0.26592 0.1869 0.0
C647 C 0.20349 0.20713 0.18647 0.0
C648 C 0.23115 0.29259 0.1861 0.0
C649 C 0.22811 0.17515 0.18668 0.0
C650 C 0.25411 0.20147 0.18608 0.0
C651 C 0.28166 0.28683 0.18266 0.0
C652 C 0.28321 0.3456 0.18079 0.0
C653 C 0.2558 0.26013 0.1852 0.0
C654 C 0.25861 0.37749 0.18266 0.0
C655 C 0.23278 0.3512 0.18529 0.0
H656 H 0.80083 0.7457 0.17055 0.0
H657 H 0.76526 0.91117 0.17947 0.0
H658 H 0.71849 0.87107 0.18105 0.0
H659 H 0.68771 0.78949 0.17831 0.0
H660 H 0.72339 0.62406 0.1698 0.0
H661 H 0.77019 0.66396 0.16965 0.0
C662 C 0.78289 0.77307 0.17295 0.0
C663 C 0.78655 0.83136 0.17475 0.0
C664 C 0.75608 0.74983 0.17381 0.0
C665 C 0.76306 0.86612 0.17806 0.0
C666 C 0.73628 0.84327 0.17888 0.0
C667 C 0.7057 0.76211 0.17645 0.0
C668 C 0.70203 0.70392 0.17391 0.0
C669 C 0.73255 0.78525 0.17649 0.0
C670 C 0.7256 0.66902 0.17178 0.0
C671 C 0.75239 0.69177 0.17165 0.0
H672 H 0.29267 0.79809 0.38712 0.0
H673 H 0.25363 0.63543 0.39187 0.0
H674 H 0.20762 0.67982 0.39156 0.0
H675 H 0.17889 0.76446 0.39171 0.0
H676 H 0.2179 0.92717 0.38692 0.0
H677 H 0.26385 0.88262 0.38517 0.0
C678 C 0.27414 0.77218 0.38809 0.0
C679 C 0.2766 0.71348 0.38977 0.0
C680 C 0.24787 0.7979 0.38782 0.0
C681 C 0.25233 0.68066 0.39062 0.0
C682 C 0.22604 0.70601 0.39047 0.0
C683 C 0.19739 0.79037 0.39019 0.0
C684 C 0.19496 0.84918 0.38967 0.0
C685 C 0.22363 0.76457 0.38934 0.0
C686 C 0.21917 0.88188 0.38734 0.0
C687 C 0.24543 0.85645 0.38646 0.0
H688 H 0.79012 0.2849 0.38163 0.0
H689 H 0.75017 0.12349 0.38798 0.0
H690 H 0.70453 0.16943 0.3903 0.0
H691 H 0.6766 0.25524 0.39252 0.0
H692 H 0.71682 0.41651 0.38597 0.0
H693 H 0.76218 0.37031 0.38165 0.0
C694 C 0.7715 0.25958 0.38344 0.0
C695 C 0.77358 0.20085 0.38485 0.0
C696 C 0.74553 0.28618 0.38481 0.0
C697 C 0.74915 0.16876 0.38685 0.0
C698 C 0.72309 0.195 0.38827 0.0
C699 C 0.69524 0.28044 0.39012 0.0
C700 C 0.69337 0.33931 0.38981 0.0
C701 C 0.72113 0.25367 0.38761 0.0
C702 C 0.7177 0.37118 0.38631 0.0
C703 C 0.74362 0.34481 0.3839 0.0
H704 H 0.6783 0.79212 0.88595 0.0
H705 H 0.72033 0.63512 0.90156 0.0
H706 H 0.76554 0.68269 0.89886 0.0
H707 H 0.79248 0.76942 0.89422 0.0
H708 H 0.74978 0.9264 0.87968 0.0
H709 H 0.70504 0.87781 0.87994 0.0
C710 C 0.69728 0.76822 0.88905 0.0
C711 C 0.69598 0.71037 0.89449 0.0
C712 C 0.72292 0.79576 0.88764 0.0
C713 C 0.72082 0.67976 0.89752 0.0
C714 C 0.74661 0.70694 0.89603 0.0
C715 C 0.77343 0.79312 0.89101 0.0
C716 C 0.77447 0.8516 0.88714 0.0
C717 C 0.74782 0.76504 0.89142 0.0
C718 C 0.74958 0.88144 0.88273 0.0
C719 C 0.724 0.85372 0.88295 0.0
H720 H 0.29382 0.26362 0.88643 0.0
H721 H 0.25299 0.42491 0.88893 0.0
H722 H 0.2075 0.37853 0.89222 0.0
H723 H 0.17991 0.29201 0.89692 0.0
H724 H 0.22175 0.13152 0.89459 0.0
H725 H 0.26656 0.17821 0.88895 0.0
C726 C 0.27502 0.28888 0.8876 0.0
C727 C 0.27681 0.34768 0.8877 0.0
C728 C 0.24922 0.2621 0.88977 0.0
C729 C 0.25217 0.37958 0.88878 0.0
C730 C 0.22621 0.35308 0.89084 0.0
C731 C 0.19881 0.26721 0.89516 0.0
C732 C 0.19748 0.2083 0.89639 0.0
C733 C 0.22456 0.29434 0.89181 0.0
C734 C 0.22215 0.17685 0.89379 0.0
C735 C 0.2478 0.20349 0.89055 0.0
H736 H 0.68143 0.25281 0.68267 0.0
H737 H 0.71984 0.41587 0.67764 0.0
H738 H 0.76593 0.37207 0.67527 0.0
H739 H 0.79496 0.28725 0.67197 0.0
H740 H 0.75596 0.12457 0.67706 0.0
H741 H 0.71035 0.16873 0.6821 0.0
C742 C 0.69983 0.27892 0.68121 0.0
C743 C 0.69711 0.33751 0.68009 0.0
C744 C 0.72615 0.25354 0.67972 0.0
C745 C 0.72129 0.37063 0.67854 0.0
C746 C 0.74766 0.34562 0.67706 0.0
C747 C 0.77651 0.26143 0.67428 0.0
C748 C 0.77889 0.20267 0.6739 0.0
C749 C 0.75028 0.28707 0.67719 0.0
C750 C 0.75477 0.16988 0.67723 0.0
C751 C 0.72865 0.19506 0.68007 0.0
H752 H 0.18197 0.7709 0.67729 0.0
H753 H 0.22343 0.93115 0.68186 0.0
H754 H 0.26867 0.8845 0.67942 0.0
H755 H 0.29619 0.79916 0.6738 0.0
H756 H 0.25506 0.63874 0.669 0.0
H757 H 0.20968 0.68496 0.67341 0.0
C758 C 0.20084 0.79575 0.67781 0.0
C759 C 0.19922 0.85454 0.6795 0.0
C760 C 0.22677 0.76875 0.67611 0.0
C761 C 0.22399 0.88588 0.68055 0.0
C762 C 0.24989 0.85927 0.67902 0.0
C763 C 0.27735 0.77415 0.67371 0.0
C764 C 0.27901 0.71561 0.67087 0.0
C765 C 0.25147 0.80087 0.67639 0.0
C766 C 0.25436 0.68389 0.67109 0.0
C767 C 0.22843 0.71027 0.67363 0.0
H768 H 0.13799 0.96119 0.3255 0.0
H769 H 0.04848 0.94663 0.32924 0.0
H770 H 0.04398 1.01148 0.2893 0.0
H771 H 0.06587 0.07327 0.25319 0.0
H772 H 0.15562 0.083 0.24887 0.0
H773 H 0.15966 1.01963 0.28902 0.0
C774 C 0.11749 0.97208 0.31749 0.0
C775 C 0.0936 0.94921 0.3303 0.0
C776 C 0.11513 1.00887 0.29442 0.0
C777 C 0.06719 0.96348 0.31964 0.0
C778 C 0.06463 1.00076 0.29687 0.0
C779 C 0.08625 0.06156 0.26116 0.0
C780 C 0.11041 0.08313 0.24815 0.0
C781 C 0.08847 1.02393 0.2841 0.0
C782 C 0.1367 0.06708 0.25849 0.0
C783 C 0.13905 0.03078 0.28147 0.0
H784 H 0.91024 0.07983 0.30896 0.0
H785 H 0.82052 0.08069 0.31546 0.0
H786 H 0.8173 1.01373 0.27664 0.0
H787 H 0.83996 0.95384 0.24093 0.0
H788 H 0.92971 0.94783 0.23627 0.0
H789 H 0.93302 1.01739 0.27405 0.0
C790 C 0.89003 0.06551 0.30171 0.0
C791 C 0.86564 0.0855 0.31489 0.0
C792 C 0.88835 1.02579 0.27973 0.0
C793 C 0.83958 0.06602 0.30558 0.0
C794 C 0.83772 0.02768 0.28339 0.0
C795 C 0.86021 0.9678 0.24825 0.0
C796 C 0.88454 0.94579 0.23584 0.0
C797 C 0.86194 1.0071 0.27034 0.0
C798 C 0.91067 0.96395 0.2456 0.0
C799 C 0.91257 1.00388 0.26715 0.0
H800 H 0.83281 0.07912 0.7392 0.0
H801 H 0.92232 0.08367 0.73053 0.0
H802 H 0.9275 1.02422 0.77212 0.0
H803 H 0.90672 0.97269 0.81197 0.0
H804 H 0.81741 0.97307 0.82271 0.0
H805 H 0.81199 0.02856 0.77969 0.0
C806 C 0.85338 0.06679 0.74642 0.0
C807 C 0.87714 0.08573 0.73184 0.0
C808 C 0.85626 0.03358 0.77087 0.0
C809 C 0.90371 0.06985 0.74149 0.0
C810 C 0.90671 0.03579 0.76527 0.0
C811 C 0.8861 0.98476 0.80478 0.0
C812 C 0.86252 0.96862 0.82042 0.0
C813 C 0.88316 1.0177 0.78029 0.0
C814 C 0.83591 0.98501 0.81103 0.0
C815 C 0.83278 1.01672 0.7864 0.0
H816 H 0.06707 0.09118 0.82062 0.0
H817 H 0.1559 0.08555 0.83435 0.0
H818 H 0.16198 0.02841 0.79194 0.0
H819 H 0.14185 0.97806 0.75122 0.0
H820 H 0.05271 0.97887 0.7394 0.0
H821 H 0.04691 0.03978 0.78045 0.0
C822 C 0.08774 0.0776 0.81421 0.0
C823 C 0.111 0.09271 0.83051 0.0
C824 C 0.09102 0.04377 0.79008 0.0
C825 C 0.13765 0.07439 0.82215 0.0
C826 C 0.14115 0.04175 0.79788 0.0
C827 C 0.12121 0.99188 0.75762 0.0
C828 C 0.09774 0.97418 0.74229 0.0
C829 C 0.11798 1.02594 0.78171 0.0
C830 C 0.07108 0.99186 0.75092 0.0
C831 C 0.06775 1.02673 0.77439 0.0
H832 H 0.63843 0.45487 0.32209 0.0
H833 H 0.54887 0.45635 0.33036 0.0
H834 H 0.54525 0.52165 0.29064 0.0
H835 H 0.56765 0.5789 0.25352 0.0
H836 H 0.65694 0.57194 0.24301 0.0
H837 H 0.66064 0.50827 0.28338 0.0
C838 C 0.61813 0.46947 0.31511 0.0
C839 C 0.59393 0.45095 0.32919 0.0
C840 C 0.61621 0.50606 0.29182 0.0
C841 C 0.56777 0.46982 0.31982 0.0
C842 C 0.56572 0.50728 0.29715 0.0
C843 C 0.58791 0.5634 0.26011 0.0
C844 C 0.61203 0.58049 0.24544 0.0
C845 C 0.58979 0.52576 0.28298 0.0
C846 C 0.63809 0.55949 0.25396 0.0
C847 C 0.6402 0.52314 0.27709 0.0
H848 H 0.4117 0.59475 0.30924 0.0
H849 H 0.32269 0.58735 0.3219 0.0
H850 H 0.31822 0.52283 0.28218 0.0
H851 H 0.33954 0.4676 0.2438 0.0
H852 H 0.42878 0.46951 0.23281 0.0
H853 H 0.43329 0.53669 0.27161 0.0
C854 C 0.39136 0.57907 0.3032 0.0
C855 C 0.36754 0.59612 0.31842 0.0
C856 C 0.38899 0.54079 0.28059 0.0
C857 C 0.34134 0.57496 0.31054 0.0
C858 C 0.33876 0.53803 0.28779 0.0
C859 C 0.35995 0.48278 0.24995 0.0
C860 C 0.38379 0.46369 0.23544 0.0
C861 C 0.36241 0.52054 0.27267 0.0
C862 C 0.41013 0.48337 0.24374 0.0
C863 C 0.4127 0.52192 0.26588 0.0
H864 H 0.33534 0.46515 0.81448 0.0
H865 H 0.42463 0.45939 0.82462 0.0
H866 H 0.43039 0.52508 0.78537 0.0
H867 H 0.40999 0.58434 0.74779 0.0
H868 H 0.3209 0.58477 0.73561 0.0
H869 H 0.31508 0.5213 0.77573 0.0
C870 C 0.35604 0.4783 0.80804 0.0
C871 C 0.37953 0.45753 0.82251 0.0
C872 C 0.35922 0.51526 0.78501 0.0
C873 C 0.40623 0.47461 0.8138 0.0
C874 C 0.40953 0.5123 0.79137 0.0
C875 C 0.38932 0.57058 0.75401 0.0
C876 C 0.36588 0.58961 0.73886 0.0
C877 C 0.38618 0.53295 0.77678 0.0
C878 C 0.33927 0.57083 0.74692 0.0
C879 C 0.33592 0.53454 0.7699 0.0
H880 H 0.56349 0.58653 0.81556 0.0
H881 H 0.65233 0.58297 0.8294 0.0
H882 H 0.65833 0.51851 0.78983 0.0
H883 H 0.63836 0.46178 0.75132 0.0
H884 H 0.54926 0.4594 0.73956 0.0
H885 H 0.5433 0.52715 0.77788 0.0
C886 C 0.58413 0.57171 0.8098 0.0
C887 C 0.60744 0.58984 0.82532 0.0
C888 C 0.58739 0.53337 0.78731 0.0
C889 C 0.63404 0.56974 0.81781 0.0
C890 C 0.63751 0.53285 0.79514 0.0
C891 C 0.61767 0.47624 0.75716 0.0
C892 C 0.5943 0.45568 0.74259 0.0
C893 C 0.61436 0.51422 0.77974 0.0
C894 C 0.56759 0.47441 0.75052 0.0
C895 C 0.56417 0.51326 0.77242 0.0
H896 H 0.16806 0.15946 0.99572 0.0
H897 H 0.07942 0.13519 0.98783 0.0
H898 H 0.07393 0.14435 0.03914 0.0
H899 H 0.09571 0.14664 0.0869 0.0
H900 H 0.18464 0.17054 0.09335 0.0
H901 H 0.18859 0.17537 0.04219 0.0
C902 C 0.14747 0.15724 1.00521 0.0
C903 C 0.12426 0.146 0.98814 0.0
C904 C 0.14457 0.16227 0.03459 0.0
C905 C 0.09764 0.14376 1.00059 0.0
C906 C 0.09454 0.14868 1.02995 0.0
C907 C 0.11576 0.15452 0.07705 0.0
C908 C 0.13992 0.15775 0.09388 0.0
C909 C 0.118 0.15622 0.04731 0.0
C910 C 0.1658 0.16757 0.08084 0.0
C911 C 0.16812 0.17005 0.05156 0.0
H912 H 0.88298 0.91282 0.98199 0.0
H913 H 0.79319 0.90393 0.97795 0.0
H914 H 0.79076 0.88592 1.0284 0.0
H915 H 0.81333 0.88532 0.0745 0.0
H916 H 0.90285 0.89564 0.08016 0.0
H917 H 0.90632 0.89956 1.02854 0.0
C918 C 0.86301 0.90567 0.99214 0.0
C919 C 0.83826 0.91047 0.97635 0.0
C920 C 0.86169 0.89619 1.02155 0.0
C921 C 0.8125 0.90114 0.98973 0.0
C922 C 0.81106 0.89091 1.01861 0.0
C923 C 0.83364 0.8873 0.06438 0.0
C924 C 0.85773 0.8908 0.08105 0.0
C925 C 0.83539 0.89033 0.03487 0.0
C926 C 0.88396 0.8929 0.06774 0.0
C927 C 0.88592 0.89556 0.03822 0.0
H928 H 0.09055 0.91282 0.49382 0.0
H929 H 0.17648 0.95654 0.47854 0.0
H930 H 0.18632 0.95239 0.52882 0.0
H931 H 0.16886 0.95302 0.57717 0.0
H932 H 0.08346 0.90936 0.59435 0.0
H933 H 0.07494 0.89632 0.54364 0.0
C934 C 0.11157 0.91929 0.50156 0.0
C935 C 0.13281 0.93509 0.48261 0.0
C936 C 0.11701 0.91807 0.5309 0.0
C937 C 0.15987 0.94434 0.49281 0.0
C938 C 0.16548 0.94239 0.52158 0.0
C939 C 0.14859 0.93913 0.56981 0.0
C940 C 0.12678 0.93255 0.58924 0.0
C941 C 0.14397 0.9319 0.54084 0.0
C942 C 0.10061 0.9144 0.57967 0.0
C943 C 0.09571 0.9074 0.55066 0.0
H944 H 0.80794 0.14298 0.56559 0.0
H945 H 0.89658 0.13717 0.58048 0.0
H946 H 0.90549 0.14083 0.52971 0.0
H947 H 0.88762 0.13116 0.48081 0.0
H948 H 0.799 0.13677 0.46649 0.0
H949 H 0.79051 0.14924 0.51692 0.0
C950 C 0.8292 0.14364 0.5577 0.0
C951 C 0.85151 0.13887 0.57672 0.0
C952 C 0.83418 0.14583 0.52844 0.0
C953 C 0.87899 0.14042 0.56626 0.0
C954 C 0.88412 0.14235 0.53718 0.0
C955 C 0.8666 0.13755 0.48872 0.0
C956 C 0.84395 0.13385 0.47006 0.0
C957 C 0.86185 0.14322 0.51799 0.0
C958 C 0.81672 0.14044 0.48053 0.0
C959 C 0.81185 0.14685 0.50939 0.0
H960 H 0.66046 0.68022 0.07569 0.0
H961 H 0.57464 0.64181 0.09462 0.0
H962 H 0.5636 0.64109 0.04424 0.0
H963 H 0.58035 0.63605 0.99466 0.0
H964 H 0.66597 0.67595 0.97611 0.0
H965 H 0.675 0.69279 1.02614 0.0
C966 C 0.6392 0.67321 0.06876 0.0
C967 C 0.61849 0.66055 0.08884 0.0
C968 C 0.63299 0.673 0.0397 0.0
C969 C 0.59098 0.65173 0.07962 0.0
C970 C 0.58469 0.65096 0.05075 0.0
C971 C 0.60059 0.65096 1.00153 0.0
C972 C 0.62238 0.65576 0.98173 0.0
C973 C 0.60574 0.65957 1.03054 0.0
C974 C 0.64877 0.67326 0.99092 0.0
C975 C 0.65403 0.68211 1.01959 0.0
H976 H 0.38496 0.40434 0.98487 0.0
H977 H 0.29758 0.44242 0.97495 0.0
H978 H 0.2906 0.43678 1.02574 0.0
H979 H 0.31066 0.4378 0.07302 0.0
H980 H 0.39764 0.39997 0.08485 0.0
H981 H 0.40359 0.38818 0.03363 0.0
C982 C 0.36427 0.40913 0.99387 0.0
C983 C 0.34174 0.42365 0.97624 0.0
C984 C 0.36049 0.40708 1.02351 0.0
C985 C 0.31515 0.431 0.98814 0.0
C986 C 0.31117 0.42824 1.01721 0.0
C987 C 0.33072 0.4253 0.0644 0.0
C988 C 0.35367 0.41988 0.0825 0.0
C989 C 0.33388 0.41887 0.03513 0.0
C990 C 0.37961 0.40384 0.07125 0.0
C991 C 0.38303 0.39762 0.04193 0.0
H992 H 0.58794 0.39912 0.49237 0.0
H993 H 0.67527 0.43451 0.48007 0.0
H994 H 0.68363 0.4257 0.5305 0.0
H995 H 0.66493 0.42489 0.57842 0.0
H996 H 0.57798 0.39041 0.59263 0.0
H997 H 0.57054 0.38126 0.54151 0.0
C998 C 0.60889 0.40268 0.50074 0.0
C999 C 0.63103 0.41735 0.48257 0.0
C1000 C 0.61349 0.39883 0.5302 0.0
C1001 C 0.65799 0.42305 0.49368 0.0
C1002 C 0.66276 0.41844 0.52255 0.0
C1003 C 0.64454 0.41356 0.57031 0.0
C1004 C 0.62206 0.40826 0.58909 0.0
C1005 C 0.64051 0.40889 0.54108 0.0
C1006 C 0.59568 0.39398 0.5785 0.0
C1007 C 0.5914 0.38935 0.54924 0.0
H1008 H 0.3164 0.68091 0.57016 0.0
H1009 H 0.40311 0.64464 0.58571 0.0
H1010 H 0.41231 0.64332 0.53486 0.0
H1011 H 0.39382 0.63755 0.48594 0.0
H1012 H 0.30712 0.67421 0.471 0.0
H1013 H 0.29983 0.69153 0.52132 0.0
C1014 C 0.33745 0.67417 0.56239 0.0
C1015 C 0.35896 0.66236 0.58166 0.0
C1016 C 0.34254 0.67337 0.53311 0.0
C1017 C 0.38617 0.65391 0.57134 0.0
C1018 C 0.3914 0.65277 0.54221 0.0
C1019 C 0.37368 0.6517 0.49366 0.0
C1020 C 0.3511 0.65558 0.47482 0.0
C1021 C 0.36955 0.6605 0.52285 0.0
C1022 C 0.32488 0.67214 0.48509 0.0
C1023 C 0.32064 0.68135 0.51391 0.0
H1024 H 0.94057 0.04895 0.1544 0.0
H1025 H 0.96928 0.87813 0.1463 0.0
H1026 H 0.01755 0.90917 0.14794 0.0
H1027 H 0.05187 0.98464 0.1539 0.0
H1028 H 0.02267 0.15545 0.16068 0.0
H1029 H 0.97466 0.12447 0.15728 0.0
C1030 C 0.95738 1.01861 0.15276 0.0
C1031 C 0.95131 0.96151 0.15037 0.0
C1032 C 0.98516 0.0366 0.15362 0.0
C1033 C 0.97334 0.92259 0.14811 0.0
C1034 C 0.00102 0.94016 0.14916 0.0
C1035 C 0.03498 1.01495 0.1545 0.0
C1036 C 0.04089 0.07203 0.15762 0.0
C1037 C 0.0072 0.99703 0.15229 0.0
C1038 C 0.01879 0.11105 0.15818 0.0
C1039 C -0.00878 0.09351 0.15631 0.0
H1040 H 0.93089 0.99395 0.42308 0.0
H1041 H 0.9515 0.14046 0.37418 0.0
H1042 H 0.00099 0.11778 0.37701 0.0
H1043 H 0.03837 0.05653 0.39306 0.0
H1044 H 0.01865 0.9108 0.44319 0.0
H1045 H 0.96912 0.93357 0.44073 0.0
C1046 C 0.94632 1.02033 0.4129 0.0
C1047 C 0.93779 0.06845 0.39836 0.0
C1048 C 0.97491 1.00778 0.41517 0.0
C1049 C 0.95779 0.10311 0.38553 0.0
C1050 C 0.98605 0.09035 0.3872 0.0
C1051 C 0.02333 0.03008 0.40377 0.0
C1052 C 0.03228 0.98205 0.41818 0.0
C1053 C -0.00513 0.04301 0.4021 0.0
C1054 C 0.01239 0.94815 0.43187 0.0
C1055 C 0.98398 0.96088 0.43036 0.0
H1056 H 0.01424 0.1311 0.91314 0.0
H1057 H 0.05278 0.9674 0.91435 0.0
H1058 H 0.0068 0.92355 0.91401 0.0
H1059 H 0.95599 0.93173 0.91171 0.0
H1060 H 0.91745 0.09534 0.90861 0.0
H1061 H 0.96334 0.13929 0.91146 0.0
C1062 C 0.01264 0.08581 0.91356 0.0
C1063 C 0.03692 0.05257 0.91381 0.0
C1064 C 0.9862 0.06092 0.91294 0.0
C1065 C 0.03443 0.99396 0.91409 0.0
C1066 C 0.00815 0.96886 0.9139 0.0
C1067 C 0.95754 0.97704 0.91188 0.0
C1068 C 0.9333 1.0102 0.90999 0.0
C1069 C 0.98394 1.00195 0.91309 0.0
C1070 C 0.93577 0.06882 0.91 0.0
C1071 C 0.96199 0.09398 0.91163 0.0
H1072 H 0.9608 0.12956 0.64447 0.0
H1073 H 0.9233 0.96523 0.64421 0.0
H1074 H 0.96952 0.92208 0.64394 0.0
H1075 H 0.02011 0.9312 0.64743 0.0
H1076 H 0.05752 0.09553 0.65056 0.0
H1077 H 0.01154 0.13867 0.64579 0.0
C1078 C 0.9627 0.0843 0.64398 0.0
C1079 C 0.9387 0.05061 0.64446 0.0
C1080 C -0.01076 0.05986 0.64448 0.0
C1081 C 0.94149 0.99205 0.64402 0.0
C1082 C 0.96789 0.96737 0.64386 0.0
C1083 C 0.01831 0.97647 0.6467 0.0
C1084 C 0.04216 1.01013 0.64946 0.0
C1085 C -0.00815 1.00091 0.64464 0.0
C1086 C 0.03943 0.0687 0.64865 0.0
C1087 C 0.01317 0.09339 0.64594 0.0
H1088 H 0.43552 0.55703 0.17397 0.0
H1089 H 0.45644 0.41999 0.11838 0.0
H1090 H 0.50566 0.44583 0.12028 0.0
H1091 H 0.54311 0.5058 0.13928 0.0
H1092 H 0.52132 0.64297 0.19429 0.0
H1093 H 0.47215 0.61794 0.19154 0.0
C1094 C 0.45075 0.5334 0.16185 0.0
C1095 C 0.44239 0.48678 0.1461 0.0
C1096 C 0.47895 0.54776 0.16342 0.0
C1097 C 0.46243 0.45615 0.13075 0.0
C1098 C 0.49059 0.47061 0.13195 0.0
C1099 C 0.52751 0.52956 0.15083 0.0
C1100 C 0.53556 0.57571 0.16706 0.0
C1101 C 0.49916 0.51573 0.14865 0.0
C1102 C 0.51537 0.60713 0.18165 0.0
C1103 C 0.4873 0.59309 0.18001 0.0
H1104 H 0.4313 0.50011 0.41879 0.0
H1105 H 0.45871 0.66465 0.39321 0.0
H1106 H 0.50716 0.63563 0.39698 0.0
H1107 H 0.54187 0.56281 0.40542 0.0
H1108 H 0.51505 0.39838 0.43195 0.0
H1109 H 0.46654 0.42845 0.43038 0.0
C1110 C 0.44793 0.52944 0.41408 0.0
C1111 C 0.44143 0.5842 0.40565 0.0
C1112 C 0.47593 0.51275 0.41658 0.0
C1113 C 0.46314 0.62217 0.39989 0.0
C1114 C 0.49091 0.6057 0.40199 0.0
C1115 C 0.52547 0.53369 0.41117 0.0
C1116 C 0.53217 0.4784 0.41851 0.0
C1117 C 0.49756 0.55101 0.41011 0.0
C1118 C 0.51058 0.44131 0.42609 0.0
C1119 C 0.48274 0.45829 0.42508 0.0
H1120 H 0.43071 0.56541 0.90671 0.0
H1121 H 0.45588 0.39468 0.92315 0.0
H1122 H 0.50449 0.423 0.92503 0.0
H1123 H 0.54046 0.49543 0.91925 0.0
H1124 H 0.51482 0.66634 0.90403 0.0
H1125 H 0.46619 0.6386 0.9045 0.0
C1126 C 0.44679 0.53451 0.91096 0.0
C1127 C 0.43959 0.47811 0.91451 0.0
C1128 C 0.47483 0.55091 0.91207 0.0
C1129 C 0.46073 0.43858 0.92026 0.0
C1130 C 0.48866 0.45458 0.92123 0.0
C1131 C 0.5242 0.52651 0.91618 0.0
C1132 C 0.53134 0.58263 0.91151 0.0
C1133 C 0.49602 0.51049 0.91668 0.0
C1134 C 0.51 0.62267 0.9078 0.0
C1135 C 0.48208 0.60696 0.90797 0.0
H1136 H 0.43473 0.49626 0.64204 0.0
H1137 H 0.45896 0.65347 0.67951 0.0
H1138 H 0.5075 0.62399 0.68018 0.0
H1139 H 0.54305 0.55362 0.67093 0.0
H1140 H 0.51983 0.39635 0.63272 0.0
H1141 H 0.47119 0.42618 0.6311 0.0
C1142 C 0.45071 0.52368 0.65043 0.0
C1143 C 0.4434 0.57676 0.66065 0.0
C1144 C 0.47881 0.50686 0.65038 0.0
C1145 C 0.46419 0.61242 0.67129 0.0
C1146 C 0.49196 0.59572 0.6717 0.0
C1147 C 0.52745 0.52607 0.66193 0.0
C1148 C 0.53508 0.47287 0.65213 0.0
C1149 C 0.49953 0.54315 0.66124 0.0
C1150 C 0.51452 0.43762 0.64058 0.0
C1151 C 0.48664 0.45446 0.63972 0.0
H1152 H 0.16505 0.71227 0.18234 0.0
H1153 H 0.07843 0.75152 0.1671 0.0
H1154 H 0.06697 0.65191 0.16795 0.0
H1155 H 0.08162 0.55364 0.17201 0.0
H1156 H 0.16821 0.51425 0.18743 0.0
H1157 H 0.17968 0.61387 0.18662 0.0
C1158 C 0.14369 0.69908 0.17895 0.0
C1159 C 0.12266 0.73956 0.17462 0.0
C1160 C 0.13726 0.64164 0.17926 0.0
C1161 C 0.09501 0.72152 0.1708 0.0
C1162 C 0.08846 0.66448 0.1711 0.0
C1163 C 0.10298 0.56676 0.17553 0.0
C1164 C 0.12399 0.52623 0.17984 0.0
C1165 C 0.10941 0.62418 0.17528 0.0
C1166 C 0.15164 0.54426 0.18374 0.0
C1167 C 0.1582 0.60132 0.18346 0.0
H1168 H 0.82785 0.32028 0.17431 0.0
H1169 H 0.91363 0.28329 0.15344 0.0
H1170 H 0.92441 0.38326 0.1532 0.0
H1171 H 0.90923 0.48101 0.15773 0.0
H1172 H 0.82348 0.51811 0.17873 0.0
H1173 H 0.81275 0.41812 0.17924 0.0
C1174 C 0.84887 0.33407 0.16945 0.0
C1175 C 0.86988 0.29427 0.1638 0.0
C1176 C 0.85486 0.39159 0.16915 0.0
C1177 C 0.89712 0.31292 0.15812 0.0
C1178 C 0.90326 0.3701 0.15781 0.0
C1179 C 0.88825 0.46728 0.16277 0.0
C1180 C 0.86722 0.50713 0.16826 0.0
C1181 C 0.88228 0.40977 0.16324 0.0
C1182 C 0.84002 0.48848 0.17414 0.0
C1183 C 0.8339 0.43128 0.1746 0.0
H1184 H 0.16216 0.34249 0.39392 0.0
H1185 H 0.07524 0.30276 0.4068 0.0
H1186 H 0.06466 0.40161 0.41419 0.0
H1187 H 0.07963 0.49955 0.41568 0.0
H1188 H 0.16642 0.54033 0.40295 0.0
H1189 H 0.17732 0.44113 0.39611 0.0
C1190 C 0.14088 0.35548 0.3982 0.0
C1191 C 0.11957 0.31497 0.39987 0.0
C1192 C 0.13484 0.41269 0.40224 0.0
C1193 C 0.09216 0.33269 0.40581 0.0
C1194 C 0.08603 0.38935 0.40984 0.0
C1195 C 0.10102 0.48681 0.41178 0.0
C1196 C 0.12216 0.52759 0.40992 0.0
C1197 C 0.10717 0.42971 0.40805 0.0
C1198 C 0.14965 0.5101 0.40422 0.0
C1199 C 0.15594 0.45327 0.40045 0.0
H1200 H 0.86395 0.54599 0.43104 0.0
H1201 H 0.82836 0.51183 0.34926 0.0
H1202 H 0.81809 0.61101 0.34296 0.0
H1203 H 0.8217 0.70802 0.35922 0.0
H1204 H 0.85792 0.74319 0.44054 0.0
H1205 H 0.8662 0.64324 0.44803 0.0
C1206 C 0.854 0.56022 0.4118 0.0
C1207 C 0.84696 0.52124 0.39069 0.0
C1208 C 0.84859 0.61763 0.40803 0.0
C1209 C 0.83365 0.54052 0.36609 0.0
C1210 C 0.82799 0.59741 0.36232 0.0
C1211 C 0.83102 0.69385 0.37879 0.0
C1212 C 0.8392 0.7332 0.39926 0.0
C1213 C 0.83565 0.63638 0.38299 0.0
C1214 C 0.85174 0.71397 0.42426 0.0
C1215 C 0.85634 0.65677 0.42863 0.0
H1216 H 0.81136 0.35682 0.884 0.0
H1217 H 0.89448 0.3121 0.91092 0.0
H1218 H 0.90705 0.41096 0.91322 0.0
H1219 H 0.89441 0.51043 0.90837 0.0
H1220 H 0.81123 0.5553 0.88181 0.0
H1221 H 0.79861 0.45637 0.87948 0.0
C1222 C 0.83217 0.36854 0.89066 0.0
C1223 C 0.8519 0.32651 0.89721 0.0
C1224 C 0.83925 0.42575 0.89223 0.0
C1225 C 0.8789 0.34306 0.90531 0.0
C1226 C 0.88609 0.39978 0.90684 0.0
C1227 C 0.87357 0.49869 0.90181 0.0
C1228 C 0.85386 0.54071 0.89525 0.0
C1229 C 0.86645 0.44152 0.90034 0.0
C1230 C 0.8268 0.52426 0.88733 0.0
C1231 C 0.81959 0.46753 0.8858 0.0
H1232 H 0.07536 0.55145 0.906 0.0
H1233 H 0.16263 0.50703 0.90962 0.0
H1234 H 0.17529 0.60602 0.90821 0.0
H1235 H 0.16165 0.70552 0.90701 0.0
H1236 H 0.07434 0.74969 0.90335 0.0
H1237 H 0.06175 0.65075 0.90461 0.0
C1238 C 0.09717 0.56328 0.90676 0.0
C1239 C 0.11796 0.52138 0.90796 0.0
C1240 C 0.10434 0.62047 0.90618 0.0
C1241 C 0.14612 0.53797 0.90835 0.0
C1242 C 0.1534 0.59474 0.90774 0.0
C1243 C 0.13985 0.69364 0.9062 0.0
C1244 C 0.11902 0.73551 0.90513 0.0
C1245 C 0.1327 0.6364 0.90669 0.0
C1246 C 0.09087 0.71882 0.9046 0.0
C1247 C 0.08363 0.66207 0.90512 0.0
H1248 H 0.8184 0.70408 0.67299 0.0
H1249 H 0.89794 0.74553 0.63566 0.0
H1250 H 0.90988 0.64624 0.63291 0.0
H1251 H 0.89758 0.54752 0.64039 0.0
H1252 H 0.81811 0.50588 0.67782 0.0
H1253 H 0.80603 0.60518 0.68036 0.0
C1254 C 0.83825 0.69148 0.66398 0.0
C1255 C 0.85721 0.73259 0.65456 0.0
C1256 C 0.84494 0.63413 0.66226 0.0
C1257 C 0.88304 0.71515 0.64343 0.0
C1258 C 0.88984 0.65824 0.64167 0.0
C1259 C 0.87771 0.56006 0.64938 0.0
C1260 C 0.85884 0.51892 0.65893 0.0
C1261 C 0.87097 0.61736 0.65103 0.0
C1262 C 0.83295 0.53629 0.66997 0.0
C1263 C 0.82608 0.59321 0.67162 0.0
H1264 H 0.15697 0.351 0.64715 0.0
H1265 H 0.09532 0.32375 0.71214 0.0
H1266 H 0.08435 0.4235 0.71275 0.0
H1267 H 0.09184 0.51834 0.6948 0.0
H1268 H 0.15251 0.54674 0.62901 0.0
H1269 H 0.16475 0.44721 0.62929 0.0
C1270 C 0.14125 0.367 0.66154 0.0
C1271 C 0.12682 0.32968 0.67939 0.0
C1272 C 0.13495 0.42474 0.66176 0.0
C1273 C 0.10639 0.35119 0.6978 0.0
C1274 C 0.10021 0.40836 0.6983 0.0
C1275 C 0.10758 0.50283 0.6803 0.0
C1276 C 0.12106 0.54024 0.66178 0.0
C1277 C 0.11421 0.44546 0.68026 0.0
C1278 C 0.14192 0.51925 0.64368 0.0
C1279 C 0.1488 0.46215 0.64369 0.0
H1280 H 0.59527 0.05041 0.13991 0.0
H1281 H 0.64234 1.02558 0.21643 0.0
H1282 H 0.65097 0.1261 0.21948 0.0
H1283 H 0.64422 0.22129 0.20113 0.0
H1284 H 0.59724 0.24625 0.12456 0.0
H1285 H 0.58865 0.14569 0.12146 0.0
C1286 C 0.60728 0.06697 0.15736 0.0
C1287 C 0.61816 0.03027 0.17788 0.0
C1288 C 0.61187 0.12497 0.15921 0.0
C1289 C 0.63406 0.05256 0.20009 0.0
C1290 C 0.6388 0.11017 0.202 0.0
C1291 C 0.63227 0.20477 0.18363 0.0
C1292 C 0.62138 0.24151 0.16313 0.0
C1293 C 0.62772 0.14677 0.18175 0.0
C1294 C 0.60552 0.21924 0.14089 0.0
C1295 C 0.60081 0.1616 0.13895 0.0
H1296 H 0.31604 0.8439 0.17756 0.0
H1297 H 0.39404 0.80295 0.13663 0.0
H1298 H 0.40418 0.90223 0.13075 0.0
H1299 H 0.39189 1.0004 0.13873 0.0
H1300 H 0.3128 0.04212 0.17721 0.0
H1301 H 0.30215 0.94268 0.18244 0.0
C1302 C 0.33505 0.85655 0.16692 0.0
C1303 C 0.35433 0.8157 0.1578 0.0
C1304 C 0.34067 0.91389 0.1633 0.0
C1305 C 0.37905 0.83325 0.14442 0.0
C1306 C 0.38481 0.8901 0.14087 0.0
C1307 C 0.37205 0.98798 0.14777 0.0
C1308 C 0.35325 0.02902 0.15761 0.0
C1309 C 0.36591 0.93076 0.15045 0.0
C1310 C 0.32791 1.01166 0.16983 0.0
C1311 C 0.32172 0.95472 0.1727 0.0
H1312 H 0.62622 1.01314 0.37452 0.0
H1313 H 0.60454 1.00486 0.46279 0.0
H1314 H 0.61074 0.9033 0.46219 0.0
H1315 H 0.62168 0.81615 0.43637 0.0
H1316 H 0.64362 0.82534 0.34818 0.0
H1317 H 0.63852 0.92694 0.3492 0.0
C1318 C 0.62329 0.98935 0.39377 0.0
C1319 C 0.61484 1.01693 0.41863 0.0
C1320 C 0.62694 0.93085 0.39332 0.0
C1321 C 0.61068 0.98491 0.44323 0.0
C1322 C 0.61432 0.92672 0.44294 0.0
C1323 C 0.62523 0.84038 0.41736 0.0
C1324 C 0.6331 0.81292 0.39226 0.0
C1325 C 0.6222 0.89911 0.41804 0.0
C1326 C 0.63792 0.84523 0.36791 0.0
C1327 C 0.63486 0.90343 0.36841 0.0
H1328 H 0.39382 0.06304 0.40117 0.0
H1329 H 0.307 1.02358 0.41483 0.0
H1330 H 0.2955 0.12342 0.41523 0.0
H1331 H 0.31001 0.22184 0.41036 0.0
H1332 H 0.3969 0.26023 0.39622 0.0
H1333 H 0.40855 0.16087 0.39835 0.0
C1334 C 0.37243 0.07616 0.40477 0.0
C1335 C 0.35132 0.03574 0.40798 0.0
C1336 C 0.36599 0.1335 0.40501 0.0
C1337 C 0.32363 0.05372 0.41199 0.0
C1338 C 0.31705 0.11081 0.41234 0.0
C1339 C 0.33149 0.20844 0.40772 0.0
C1340 C 0.35252 0.24855 0.40311 0.0
C1341 C 0.33803 0.15106 0.40857 0.0
C1342 C 0.38032 0.23047 0.40017 0.0
C1343 C 0.38699 0.17356 0.40114 0.0
H1344 H 0.309 0.8385 0.89872 0.0
H1345 H 0.39712 0.80083 0.898 0.0
H1346 H 0.40788 0.89996 0.90369 0.0
H1347 H 0.39249 0.99759 0.90655 0.0
H1348 H 0.30449 0.03629 0.90716 0.0
H1349 H 0.29351 0.93664 0.90317 0.0
C1350 C 0.33056 0.852 0.89973 0.0
C1351 C 0.3522 0.81211 0.89794 0.0
C1352 C 0.33664 0.9093 0.90275 0.0
C1353 C 0.38002 0.83037 0.8997 0.0
C1354 C 0.38621 0.88716 0.90275 0.0
C1355 C 0.37087 0.9843 0.90631 0.0
C1356 C 0.34936 1.02457 0.9072 0.0
C1357 C 0.36471 0.92701 0.90409 0.0
C1358 C 0.32148 1.00638 0.90621 0.0
C1359 C 0.31518 0.94934 0.90405 0.0
H1360 H 0.65912 0.21652 0.89126 0.0
H1361 H 0.58829 0.25405 0.94447 0.0
H1362 H 0.57797 0.15435 0.94857 0.0
H1363 H 0.58777 0.05679 0.93532 0.0
H1364 H 0.65867 1.01934 0.88232 0.0
H1365 H 0.67085 0.1186 0.88079 0.0
C1366 C 0.64173 0.20299 0.90422 0.0
C1367 C 0.62439 0.24303 0.91733 0.0
C1368 C 0.63598 0.14551 0.90663 0.0
C1369 C 0.6017 0.22441 0.93369 0.0
C1370 C 0.59587 0.16732 0.93619 0.0
C1371 C 0.60593 0.07037 0.92349 0.0
C1372 C 0.62217 0.03071 0.90881 0.0
C1373 C 0.61261 0.12757 0.9224 0.0
C1374 C 0.64593 0.04886 0.894 0.0
C1375 C 0.65278 0.1057 0.89292 0.0
H1376 H 0.38503 0.05655 0.63294 0.0
H1377 H 0.33838 0.02907 0.70967 0.0
H1378 H 0.32889 0.12928 0.71322 0.0
H1379 H 0.33476 0.22513 0.69527 0.0
H1380 H 0.38163 0.25268 0.61871 0.0
H1381 H 0.39094 0.15238 0.61502 0.0
C1382 C 0.37296 0.07241 0.65059 0.0
C1383 C 0.36245 0.03494 0.67098 0.0
C1384 C 0.3679 0.13032 0.65276 0.0
C1385 C 0.34641 0.05651 0.69339 0.0
C1386 C 0.34117 0.114 0.6956 0.0
C1387 C 0.34685 0.20924 0.67765 0.0
C1388 C 0.35749 0.24672 0.65733 0.0
C1389 C 0.35189 0.15132 0.67547 0.0
C1390 C 0.37352 0.22517 0.63491 0.0
C1391 C 0.37866 0.16765 0.63264 0.0
H1392 H 0.64745 0.82994 0.70219 0.0
H1393 H 0.61366 0.79436 0.61984 0.0
H1394 H 0.6055 0.89422 0.61203 0.0
H1395 H 0.60715 0.99153 0.62897 0.0
H1396 H 0.64042 1.02632 0.71166 0.0
H1397 H 0.65052 0.92713 0.71845 0.0
C1398 C 0.63868 0.84399 0.68234 0.0
C1399 C 0.63114 0.80452 0.66167 0.0
C1400 C 0.63413 0.90146 0.67795 0.0
C1401 C 0.61932 0.82364 0.63629 0.0
C1402 C 0.6148 0.88081 0.63173 0.0
C1403 C 0.61656 0.97743 0.64851 0.0
C1404 C 0.62298 1.01656 0.66975 0.0
C1405 C 0.62191 0.92006 0.65251 0.0
C1406 C 0.6356 0.99747 0.69475 0.0
C1407 C 0.64116 0.94059 0.69878 0.0
loop_
_geom_bond_atom_site_label_1
_geom_bond_atom_site_label_2
_geom_bond_distance
_geom_bond_site_symmetry_2
_ccdc_geom_bond_type
Ho0 C3 2.811 1_545 S
Ho0 O20 2.322 . S
Ho0 O22 2.378 1_545 S
Ho0 O23 2.524 1_545 S
Ho0 O24 2.381 . S
Ho0 O25 2.669 . S
Ho0 O27 2.346 . S
Ho0 O31 2.305 . S
Ho1 C12 2.811 . S
Ho1 O21 2.346 . S
Ho1 O25 2.305 . S
Ho1 O26 2.322 . S
Ho1 O28 2.378 . S
Ho1 O29 2.524 . S
Ho1 O30 2.381 . S
Ho1 O31 2.669 . S
C2 O20 1.259 . S
C2 O21 1.268 . S
C3 Ho0 2.811 1_565 S
C3 C4 1.488 . S
C3 O22 1.215 . S
C3 O23 1.289 . S
C4 C3 1.488 . S
C4 C5 1.348 . S
C4 C9 1.413 . S
C5 C4 1.348 . S
C5 C6 1.442 . S
C5 H32 0.930 . S
C6 C5 1.442 . S
C6 C7 1.381 . S
C6 H33 0.931 . S
C7 C6 1.381 . S
C7 C8 1.321 . S
C8 C7 1.321 . S
C8 C9 1.403 . S
C8 H34 0.934 . S
C9 C4 1.413 . S
C9 C8 1.403 . S
C9 H35 0.930 . S
C10 O24 1.275 . S
C10 O25 1.256 . S
C11 O26 1.259 . S
C11 O27 1.268 . S
C12 Ho1 2.811 . S
C12 C13 1.488 . S
C12 O28 1.215 . S
C12 O29 1.289 . S
C13 C12 1.488 . S
C13 C14 1.348 . S
C13 C18 1.413 . S
C14 C13 1.348 . S
C14 C15 1.442 . S
C14 H36 0.930 . S
C15 C14 1.442 . S
C15 C16 1.381 . S
C15 H37 0.931 . S
C16 C15 1.381 . S
C16 C17 1.321 . S
C17 C16 1.321 . S
C17 C18 1.403 . S
C17 H38 0.934 . S
C18 C13 1.413 . S
C18 C17 1.403 . S
C18 H39 0.930 . S
C19 O30 1.275 . S
C19 O31 1.256 . S
O20 Ho0 2.322 . S
O20 C2 1.259 . S
O21 Ho1 2.346 . S
O21 C2 1.268 . S
O22 Ho0 2.378 1_565 S
O22 C3 1.215 . S
O23 Ho0 2.524 1_565 S
O23 C3 1.289 . S
O24 Ho0 2.381 . S
O24 C10 1.275 . S
O25 Ho0 2.669 . S
O25 Ho1 2.305 . S
O25 C10 1.256 . S
O26 Ho1 2.322 . S
O26 C11 1.259 . S
O27 Ho0 2.346 . S
O27 C11 1.268 . S
O28 Ho1 2.378 . S
O28 C12 1.215 . S
O29 Ho1 2.524 . S
O29 C12 1.289 . S
O30 Ho1 2.381 . S
O30 C19 1.275 . S
O31 Ho0 2.305 . S
O31 Ho1 2.669 . S
O31 C19 1.256 . S
H32 C5 0.930 . S
H33 C6 0.931 . S
H34 C8 0.934 . S
H35 C9 0.930 . S
H36 C14 0.930 . S
H37 C15 0.931 . S
H38 C17 0.934 . S
H39 C18 0.930 . S
Ho40 C43 2.811 1_565 S
Ho40 O60 2.322 . S
Ho40 O62 2.378 1_565 S
Ho40 O63 2.524 1_565 S
Ho40 O64 2.381 . S
Ho40 O65 2.669 . S
Ho40 O67 2.346 . S
Ho40 O71 2.305 . S
Ho41 C52 2.811 . S
Ho41 O61 2.346 . S
Ho41 O65 2.305 . S
Ho41 O66 2.322 . S
Ho41 O68 2.378 . S
Ho41 O69 2.524 . S
Ho41 O70 2.381 . S
Ho41 O71 2.669 . S
C42 O60 1.259 . S
C42 O61 1.268 . S
C43 Ho40 2.811 1_545 S
C43 C44 1.488 . S
C43 O62 1.215 . S
C43 O63 1.289 . S
C44 C43 1.488 . S
C44 C45 1.348 . S
C44 C49 1.413 . S
C45 C44 1.348 . S
C45 C46 1.442 . S
C45 H72 0.930 . S
C46 C45 1.442 . S
C46 C47 1.381 . S
C46 H73 0.931 . S
C47 C46 1.381 . S
C47 C48 1.321 . S
C48 C47 1.321 . S
C48 C49 1.403 . S
C48 H74 0.934 . S
C49 C44 1.413 . S
C49 C48 1.403 . S
C49 H75 0.930 . S
C50 O64 1.275 . S
C50 O65 1.256 . S
C51 O66 1.259 . S
C51 O67 1.268 . S
C52 Ho41 2.811 . S
C52 C53 1.488 . S
C52 O68 1.215 . S
C52 O69 1.289 . S
C53 C52 1.488 . S
C53 C54 1.348 . S
C53 C58 1.413 . S
C54 C53 1.348 . S
C54 C55 1.442 . S
C54 H76 0.930 . S
C55 C54 1.442 . S
C55 C56 1.381 . S
C55 H77 0.931 . S
C56 C55 1.381 . S
C56 C57 1.321 . S
C57 C56 1.321 . S
C57 C58 1.403 . S
C57 H78 0.934 . S
C58 C53 1.413 . S
C58 C57 1.403 . S
C58 H79 0.930 . S
C59 O70 1.275 . S
C59 O71 1.256 . S
O60 Ho40 2.322 . S
O60 C42 1.259 . S
O61 Ho41 2.346 . S
O61 C42 1.268 . S
O62 Ho40 2.378 1_545 S
O62 C43 1.215 . S
O63 Ho40 2.524 1_545 S
O63 C43 1.289 . S
O64 Ho40 2.381 . S
O64 C50 1.275 . S
O65 Ho40 2.669 . S
O65 Ho41 2.305 . S
O65 C50 1.256 . S
O66 Ho41 2.322 . S
O66 C51 1.259 . S
O67 Ho40 2.346 . S
O67 C51 1.268 . S
O68 Ho41 2.378 . S
O68 C52 1.215 . S
O69 Ho41 2.524 . S
O69 C52 1.289 . S
O70 Ho41 2.381 . S
O70 C59 1.275 . S
O71 Ho40 2.305 . S
O71 Ho41 2.669 . S
O71 C59 1.256 . S
H72 C45 0.930 . S
H73 C46 0.931 . S
H74 C48 0.934 . S
H75 C49 0.930 . S
H76 C54 0.930 . S
H77 C55 0.931 . S
H78 C57 0.934 . S
H79 C58 0.930 . S
Ho80 C83 2.811 1_565 S
Ho80 O100 2.322 . S
Ho80 O102 2.378 1_565 S
Ho80 O103 2.524 1_565 S
Ho80 O104 2.381 . S
Ho80 O105 2.669 . S
Ho80 O107 2.346 . S
Ho80 O111 2.305 . S
Ho81 C92 2.811 . S
Ho81 O101 2.346 . S
Ho81 O105 2.305 . S
Ho81 O106 2.322 . S
Ho81 O108 2.378 . S
Ho81 O109 2.524 . S
Ho81 O110 2.381 . S
Ho81 O111 2.669 . S
C82 O100 1.259 . S
C82 O101 1.268 . S
C83 Ho80 2.811 1_545 S
C83 C84 1.488 . S
C83 O102 1.215 . S
C83 O103 1.289 . S
C84 C83 1.488 . S
C84 C85 1.348 . S
C84 C89 1.413 . S
C85 C84 1.348 . S
C85 C86 1.442 . S
C85 H112 0.930 . S
C86 C85 1.442 . S
C86 C87 1.381 . S
C86 H113 0.931 . S
C87 C86 1.381 . S
C87 C88 1.321 . S
C88 C87 1.321 . S
C88 C89 1.403 . S
C88 H114 0.934 . S
C89 C84 1.413 . S
C89 C88 1.403 . S
C89 H115 0.930 . S
C90 O104 1.275 . S
C90 O105 1.256 . S
C91 O106 1.259 . S
C91 O107 1.268 . S
C92 Ho81 2.811 . S
C92 C93 1.488 . S
C92 O108 1.215 . S
C92 O109 1.289 . S
C93 C92 1.488 . S
C93 C94 1.348 . S
C93 C98 1.413 . S
C94 C93 1.348 . S
C94 C95 1.442 . S
C94 H116 0.930 . S
C95 C94 1.442 . S
C95 C96 1.381 . S
C95 H117 0.931 . S
C96 C95 1.381 . S
C96 C97 1.321 . S
C97 C96 1.321 . S
C97 C98 1.403 . S
C97 H118 0.934 . S
C98 C93 1.413 . S
C98 C97 1.403 . S
C98 H119 0.930 . S
C99 O110 1.275 . S
C99 O111 1.256 . S
O100 Ho80 2.322 . S
O100 C82 1.259 . S
O101 Ho81 2.346 . S
O101 C82 1.268 . S
O102 Ho80 2.378 1_545 S
O102 C83 1.215 . S
O103 Ho80 2.524 1_545 S
O103 C83 1.289 . S
O104 Ho80 2.381 . S
O104 C90 1.275 . S
O105 Ho80 2.669 . S
O105 Ho81 2.305 . S
O105 C90 1.256 . S
O106 Ho81 2.322 . S
O106 C91 1.259 . S
O107 Ho80 2.346 . S
O107 C91 1.268 . S
O108 Ho81 2.378 . S
O108 C92 1.215 . S
O109 Ho81 2.524 . S
O109 C92 1.289 . S
O110 Ho81 2.381 . S
O110 C99 1.275 . S
O111 Ho80 2.305 . S
O111 Ho81 2.669 . S
O111 C99 1.256 . S
H112 C85 0.930 . S
H113 C86 0.931 . S
H114 C88 0.934 . S
H115 C89 0.930 . S
H116 C94 0.930 . S
H117 C95 0.931 . S
H118 C97 0.934 . S
H119 C98 0.930 . S
Ho120 C123 2.811 1_545 S
Ho120 O140 2.322 . S
Ho120 O142 2.378 1_545 S
Ho120 O143 2.524 1_545 S
Ho120 O144 2.381 . S
Ho120 O145 2.669 . S
Ho120 O147 2.346 . S
Ho120 O151 2.305 . S
Ho121 C132 2.811 . S
Ho121 O141 2.346 . S
Ho121 O145 2.305 . S
Ho121 O146 2.322 . S
Ho121 O148 2.378 . S
Ho121 O149 2.524 . S
Ho121 O150 2.381 . S
Ho121 O151 2.669 . S
C122 O140 1.259 . S
C122 O141 1.268 . S
C123 Ho120 2.811 1_565 S
C123 C124 1.488 . S
C123 O142 1.215 . S
C123 O143 1.289 . S
C124 C123 1.488 . S
C124 C125 1.348 . S
C124 C129 1.413 . S
C125 C124 1.348 . S
C125 C126 1.442 . S
C125 H152 0.930 . S
C126 C125 1.442 . S
C126 C127 1.381 . S
C126 H153 0.931 . S
C127 C126 1.381 . S
C127 C128 1.321 . S
C128 C127 1.321 . S
C128 C129 1.403 . S
C128 H154 0.934 . S
C129 C124 1.413 . S
C129 C128 1.403 . S
C129 H155 0.930 . S
C130 O144 1.275 . S
C130 O145 1.256 . S
C131 O146 1.259 . S
C131 O147 1.268 . S
C132 Ho121 2.811 . S
C132 C133 1.488 . S
C132 O148 1.215 . S
C132 O149 1.289 . S
C133 C132 1.488 . S
C133 C134 1.348 . S
C133 C138 1.413 . S
C134 C133 1.348 . S
C134 C135 1.442 . S
C134 H156 0.930 . S
C135 C134 1.442 . S
C135 C136 1.381 . S
C135 H157 0.931 . S
C136 C135 1.381 . S
C136 C137 1.321 . S
C137 C136 1.321 . S
C137 C138 1.403 . S
C137 H158 0.934 . S
C138 C133 1.413 . S
C138 C137 1.403 . S
C138 H159 0.930 . S
C139 O150 1.275 . S
C139 O151 1.256 . S
O140 Ho120 2.322 . S
O140 C122 1.259 . S
O141 Ho121 2.346 . S
O141 C122 1.268 . S
O142 Ho120 2.378 1_565 S
O142 C123 1.215 . S
O143 Ho120 2.524 1_565 S
O143 C123 1.289 . S
O144 Ho120 2.381 . S
O144 C130 1.275 . S
O145 Ho120 2.669 . S
O145 Ho121 2.305 . S
O145 C130 1.256 . S
O146 Ho121 2.322 . S
O146 C131 1.259 . S
O147 Ho120 2.346 . S
O147 C131 1.268 . S
O148 Ho121 2.378 . S
O148 C132 1.215 . S
O149 Ho121 2.524 . S
O149 C132 1.289 . S
O150 Ho121 2.381 . S
O150 C139 1.275 . S
O151 Ho120 2.305 . S
O151 Ho121 2.669 . S
O151 C139 1.256 . S
H152 C125 0.930 . S
H153 C126 0.931 . S
H154 C128 0.934 . S
H155 C129 0.930 . S
H156 C134 0.930 . S
H157 C135 0.931 . S
H158 C137 0.934 . S
H159 C138 0.930 . S
Ho160 C163 2.811 . S
Ho160 O180 2.322 . S
Ho160 O182 2.378 . S
Ho160 O183 2.524 . S
Ho160 O184 2.381 . S
Ho160 O185 2.669 . S
Ho160 O187 2.346 . S
Ho160 O191 2.305 . S
Ho161 C172 2.811 1_565 S
Ho161 O181 2.346 . S
Ho161 O185 2.305 . S
Ho161 O186 2.322 . S
Ho161 O188 2.378 1_565 S
Ho161 O189 2.524 1_565 S
Ho161 O190 2.381 . S
Ho161 O191 2.669 . S
C162 O180 1.259 . S
C162 O181 1.268 . S
C163 Ho160 2.811 . S
C163 C164 1.488 . S
C163 O182 1.215 . S
C163 O183 1.289 . S
C164 C163 1.488 . S
C164 C165 1.348 . S
C164 C169 1.413 . S
C165 C164 1.348 . S
C165 C166 1.442 . S
C165 H192 0.930 . S
C166 C165 1.442 . S
C166 C167 1.381 . S
C166 H193 0.931 . S
C167 C166 1.381 . S
C167 C168 1.321 . S
C168 C167 1.321 . S
C168 C169 1.403 . S
C168 H194 0.934 . S
C169 C164 1.413 . S
C169 C168 1.403 . S
C169 H195 0.930 . S
C170 O184 1.275 . S
C170 O185 1.256 . S
C171 O186 1.259 . S
C171 O187 1.268 . S
C172 Ho161 2.811 1_545 S
C172 C173 1.488 . S
C172 O188 1.215 . S
C172 O189 1.289 . S
C173 C172 1.488 . S
C173 C174 1.348 . S
C173 C178 1.413 . S
C174 C173 1.348 . S
C174 C175 1.442 . S
C174 H196 0.930 . S
C175 C174 1.442 . S
C175 C176 1.381 . S
C175 H197 0.931 . S
C176 C175 1.381 . S
C176 C177 1.321 . S
C177 C176 1.321 . S
C177 C178 1.403 . S
C177 H198 0.934 . S
C178 C173 1.413 . S
C178 C177 1.403 . S
C178 H199 0.930 . S
C179 O190 1.275 . S
C179 O191 1.256 . S
O180 Ho160 2.322 . S
O180 C162 1.259 . S
O181 Ho161 2.346 . S
O181 C162 1.268 . S
O182 Ho160 2.378 . S
O182 C163 1.215 . S
O183 Ho160 2.524 . S
O183 C163 1.289 . S
O184 Ho160 2.381 . S
O184 C170 1.275 . S
O185 Ho160 2.669 . S
O185 Ho161 2.305 . S
O185 C170 1.256 . S
O186 Ho161 2.322 . S
O186 C171 1.259 . S
O187 Ho160 2.346 . S
O187 C171 1.268 . S
O188 Ho161 2.378 1_545 S
O188 C172 1.215 . S
O189 Ho161 2.524 1_545 S
O189 C172 1.289 . S
O190 Ho161 2.381 . S
O190 C179 1.275 . S
O191 Ho160 2.305 . S
O191 Ho161 2.669 . S
O191 C179 1.256 . S
H192 C165 0.930 . S
H193 C166 0.931 . S
H194 C168 0.934 . S
H195 C169 0.930 . S
H196 C174 0.930 . S
H197 C175 0.931 . S
H198 C177 0.934 . S
H199 C178 0.930 . S
Ho200 C203 2.811 . S
Ho200 O220 2.322 . S
Ho200 O222 2.378 . S
Ho200 O223 2.524 . S
Ho200 O224 2.381 . S
Ho200 O225 2.669 . S
Ho200 O227 2.346 . S
Ho200 O231 2.305 . S
Ho201 C212 2.811 1_545 S
Ho201 O221 2.346 . S
Ho201 O225 2.305 . S
Ho201 O226 2.322 . S
Ho201 O228 2.378 1_545 S
Ho201 O229 2.524 1_545 S
Ho201 O230 2.381 . S
Ho201 O231 2.669 . S
C202 O220 1.259 . S
C202 O221 1.268 . S
C203 Ho200 2.811 . S
C203 C204 1.488 . S
C203 O222 1.215 . S
C203 O223 1.289 . S
C204 C203 1.488 . S
C204 C205 1.348 . S
C204 C209 1.413 . S
C205 C204 1.348 . S
C205 C206 1.442 . S
C205 H232 0.930 . S
C206 C205 1.442 . S
C206 C207 1.381 . S
C206 H233 0.931 . S
C207 C206 1.381 . S
C207 C208 1.321 . S
C208 C207 1.321 . S
C208 C209 1.403 . S
C208 H234 0.934 . S
C209 C204 1.413 . S
C209 C208 1.403 . S
C209 H235 0.930 . S
C210 O224 1.275 . S
C210 O225 1.256 . S
C211 O226 1.259 . S
C211 O227 1.268 . S
C212 Ho201 2.811 1_565 S
C212 C213 1.488 . S
C212 O228 1.215 . S
C212 O229 1.289 . S
C213 C212 1.488 . S
C213 C214 1.348 . S
C213 C218 1.413 . S
C214 C213 1.348 . S
C214 C215 1.442 . S
C214 H236 0.930 . S
C215 C214 1.442 . S
C215 C216 1.381 . S
C215 H237 0.931 . S
C216 C215 1.381 . S
C216 C217 1.321 . S
C217 C216 1.321 . S
C217 C218 1.403 . S
C217 H238 0.934 . S
C218 C213 1.413 . S
C218 C217 1.403 . S
C218 H239 0.930 . S
C219 O230 1.275 . S
C219 O231 1.256 . S
O220 Ho200 2.322 . S
O220 C202 1.259 . S
O221 Ho201 2.346 . S
O221 C202 1.268 . S
O222 Ho200 2.378 . S
O222 C203 1.215 . S
O223 Ho200 2.524 . S
O223 C203 1.289 . S
O224 Ho200 2.381 . S
O224 C210 1.275 . S
O225 Ho200 2.669 . S
O225 Ho201 2.305 . S
O225 C210 1.256 . S
O226 Ho201 2.322 . S
O226 C211 1.259 . S
O227 Ho200 2.346 . S
O227 C211 1.268 . S
O228 Ho201 2.378 1_565 S
O228 C212 1.215 . S
O229 Ho201 2.524 1_565 S
O229 C212 1.289 . S
O230 Ho201 2.381 . S
O230 C219 1.275 . S
O231 Ho200 2.305 . S
O231 Ho201 2.669 . S
O231 C219 1.256 . S
H232 C205 0.930 . S
H233 C206 0.931 . S
H234 C208 0.934 . S
H235 C209 0.930 . S
H236 C214 0.930 . S
H237 C215 0.931 . S
H238 C217 0.934 . S
H239 C218 0.930 . S
Ho240 C243 2.811 . S
Ho240 O260 2.322 . S
Ho240 O262 2.378 . S
Ho240 O263 2.524 . S
Ho240 O264 2.381 . S
Ho240 O265 2.669 . S
Ho240 O267 2.346 . S
Ho240 O271 2.305 . S
Ho241 C252 2.811 1_545 S
Ho241 O261 2.346 . S
Ho241 O265 2.305 . S
Ho241 O266 2.322 . S
Ho241 O268 2.378 1_545 S
Ho241 O269 2.524 1_545 S
Ho241 O270 2.381 . S
Ho241 O271 2.669 . S
C242 O260 1.259 . S
C242 O261 1.268 . S
C243 Ho240 2.811 . S
C243 C244 1.488 . S
C243 O262 1.215 . S
C243 O263 1.289 . S
C244 C243 1.488 . S
C244 C245 1.348 . S
C244 C249 1.413 . S
C245 C244 1.348 . S
C245 C246 1.442 . S
C245 H272 0.930 . S
C246 C245 1.442 . S
C246 C247 1.381 . S
C246 H273 0.931 . S
C247 C246 1.381 . S
C247 C248 1.321 . S
C248 C247 1.321 . S
C248 C249 1.403 . S
C248 H274 0.934 . S
C249 C244 1.413 . S
C249 C248 1.403 . S
C249 H275 0.930 . S
C250 O264 1.275 . S
C250 O265 1.256 . S
C251 O266 1.259 . S
C251 O267 1.268 . S
C252 Ho241 2.811 1_565 S
C252 C253 1.488 . S
C252 O268 1.215 . S
C252 O269 1.289 . S
C253 C252 1.488 . S
C253 C254 1.348 . S
C253 C258 1.413 . S
C254 C253 1.348 . S
C254 C255 1.442 . S
C254 H276 0.930 . S
C255 C254 1.442 . S
C255 C256 1.381 . S
C255 H277 0.931 . S
C256 C255 1.381 . S
C256 C257 1.321 . S
C257 C256 1.321 . S
C257 C258 1.403 . S
C257 H278 0.934 . S
C258 C253 1.413 . S
C258 C257 1.403 . S
C258 H279 0.930 . S
C259 O270 1.275 . S
C259 O271 1.256 . S
O260 Ho240 2.322 . S
O260 C242 1.259 . S
O261 Ho241 2.346 . S
O261 C242 1.268 . S
O262 Ho240 2.378 . S
O262 C243 1.215 . S
O263 Ho240 2.524 . S
O263 C243 1.289 . S
O264 Ho240 2.381 . S
O264 C250 1.275 . S
O265 Ho240 2.669 . S
O265 Ho241 2.305 . S
O265 C250 1.256 . S
O266 Ho241 2.322 . S
O266 C251 1.259 . S
O267 Ho240 2.346 . S
O267 C251 1.268 . S
O268 Ho241 2.378 1_565 S
O268 C252 1.215 . S
O269 Ho241 2.524 1_565 S
O269 C252 1.289 . S
O270 Ho241 2.381 . S
O270 C259 1.275 . S
O271 Ho240 2.305 . S
O271 Ho241 2.669 . S
O271 C259 1.256 . S
H272 C245 0.930 . S
H273 C246 0.931 . S
H274 C248 0.934 . S
H275 C249 0.930 . S
H276 C254 0.930 . S
H277 C255 0.931 . S
H278 C257 0.934 . S
H279 C258 0.930 . S
Ho280 C283 2.811 . S
Ho280 O300 2.322 . S
Ho280 O302 2.378 . S
Ho280 O303 2.524 . S
Ho280 O304 2.381 . S
Ho280 O305 2.669 . S
Ho280 O307 2.346 . S
Ho280 O311 2.305 . S
Ho281 C292 2.811 1_565 S
Ho281 O301 2.346 . S
Ho281 O305 2.305 . S
Ho281 O306 2.322 . S
Ho281 O308 2.378 1_565 S
Ho281 O309 2.524 1_565 S
Ho281 O310 2.381 . S
Ho281 O311 2.669 . S
C282 O300 1.259 . S
C282 O301 1.268 . S
C283 Ho280 2.811 . S
C283 C284 1.488 . S
C283 O302 1.215 . S
C283 O303 1.289 . S
C284 C283 1.488 . S
C284 C285 1.348 . S
C284 C289 1.413 . S
C285 C284 1.348 . S
C285 C286 1.442 . S
C285 H312 0.930 . S
C286 C285 1.442 . S
C286 C287 1.381 . S
C286 H313 0.931 . S
C287 C286 1.381 . S
C287 C288 1.321 . S
C288 C287 1.321 . S
C288 C289 1.403 . S
C288 H314 0.934 . S
C289 C284 1.413 . S
C289 C288 1.403 . S
C289 H315 0.930 . S
C290 O304 1.275 . S
C290 O305 1.256 . S
C291 O306 1.259 . S
C291 O307 1.268 . S
C292 Ho281 2.811 1_545 S
C292 C293 1.488 . S
C292 O308 1.215 . S
C292 O309 1.289 . S
C293 C292 1.488 . S
C293 C294 1.348 . S
C293 C298 1.413 . S
C294 C293 1.348 . S
C294 C295 1.442 . S
C294 H316 0.930 . S
C295 C294 1.442 . S
C295 C296 1.381 . S
C295 H317 0.931 . S
C296 C295 1.381 . S
C296 C297 1.321 . S
C297 C296 1.321 . S
C297 C298 1.403 . S
C297 H318 0.934 . S
C298 C293 1.413 . S
C298 C297 1.403 . S
C298 H319 0.930 . S
C299 O310 1.275 . S
C299 O311 1.256 . S
O300 Ho280 2.322 . S
O300 C282 1.259 . S
O301 Ho281 2.346 . S
O301 C282 1.268 . S
O302 Ho280 2.378 . S
O302 C283 1.215 . S
O303 Ho280 2.524 . S
O303 C283 1.289 . S
O304 Ho280 2.381 . S
O304 C290 1.275 . S
O305 Ho280 2.669 . S
O305 Ho281 2.305 . S
O305 C290 1.256 . S
O306 Ho281 2.322 . S
O306 C291 1.259 . S
O307 Ho280 2.346 . S
O307 C291 1.268 . S
O308 Ho281 2.378 1_545 S
O308 C292 1.215 . S
O309 Ho281 2.524 1_545 S
O309 C292 1.289 . S
O310 Ho281 2.381 . S
O310 C299 1.275 . S
O311 Ho280 2.305 . S
O311 Ho281 2.669 . S
O311 C299 1.256 . S
H312 C285 0.930 . S
H313 C286 0.931 . S
H314 C288 0.934 . S
H315 C289 0.930 . S
H316 C294 0.930 . S
H317 C295 0.931 . S
H318 C297 0.934 . S
H319 C298 0.930 . S
Ho320 C323 2.811 . S
Ho320 O340 2.322 . S
Ho320 O342 2.378 . S
Ho320 O343 2.524 . S
Ho320 O344 2.381 . S
Ho320 O345 2.669 . S
Ho320 O347 2.346 . S
Ho320 O351 2.305 . S
Ho321 C332 2.811 . S
Ho321 O341 2.346 . S
Ho321 O345 2.305 . S
Ho321 O346 2.322 . S
Ho321 O348 2.378 . S
Ho321 O349 2.524 . S
Ho321 O350 2.381 . S
Ho321 O351 2.669 . S
C322 O340 1.259 . S
C322 O341 1.268 . S
C323 Ho320 2.811 . S
C323 C324 1.488 . S
C323 O342 1.215 . S
C323 O343 1.289 . S
C324 C323 1.488 . S
C324 C325 1.348 . S
C324 C329 1.413 . S
C325 C324 1.348 . S
C325 C326 1.442 . S
C325 H352 0.930 . S
C326 C325 1.442 . S
C326 C327 1.381 . S
C326 H353 0.931 . S
C327 C326 1.381 . S
C327 C328 1.321 . S
C328 C327 1.321 . S
C328 C329 1.403 . S
C328 H354 0.934 . S
C329 C324 1.413 . S
C329 C328 1.403 . S
C329 H355 0.930 . S
C330 O344 1.275 . S
C330 O345 1.256 . S
C331 O346 1.259 . S
C331 O347 1.268 . S
C332 Ho321 2.811 . S
C332 C333 1.488 . S
C332 O348 1.215 . S
C332 O349 1.289 . S
C333 C332 1.488 . S
C333 C334 1.348 . S
C333 C338 1.413 . S
C334 C333 1.348 . S
C334 C335 1.442 . S
C334 H356 0.930 . S
C335 C334 1.442 . S
C335 C336 1.381 . S
C335 H357 0.931 . S
C336 C335 1.381 . S
C336 C337 1.321 . S
C337 C336 1.321 . S
C337 C338 1.403 . S
C337 H358 0.934 . S
C338 C333 1.413 . S
C338 C337 1.403 . S
C338 H359 0.930 . S
C339 O350 1.275 . S
C339 O351 1.256 . S
O340 Ho320 2.322 . S
O340 C322 1.259 . S
O341 Ho321 2.346 . S
O341 C322 1.268 . S
O342 Ho320 2.378 . S
O342 C323 1.215 . S
O343 Ho320 2.524 . S
O343 C323 1.289 . S
O344 Ho320 2.381 . S
O344 C330 1.275 . S
O345 Ho320 2.669 . S
O345 Ho321 2.305 . S
O345 C330 1.256 . S
O346 Ho321 2.322 . S
O346 C331 1.259 . S
O347 Ho320 2.346 . S
O347 C331 1.268 . S
O348 Ho321 2.378 . S
O348 C332 1.215 . S
O349 Ho321 2.524 . S
O349 C332 1.289 . S
O350 Ho321 2.381 . S
O350 C339 1.275 . S
O351 Ho320 2.305 . S
O351 Ho321 2.669 . S
O351 C339 1.256 . S
H352 C325 0.930 . S
H353 C326 0.931 . S
H354 C328 0.934 . S
H355 C329 0.930 . S
H356 C334 0.930 . S
H357 C335 0.931 . S
H358 C337 0.934 . S
H359 C338 0.930 . S
Ho360 C363 2.811 . S
Ho360 O380 2.322 . S
Ho360 O382 2.378 . S
Ho360 O383 2.524 . S
Ho360 O384 2.381 . S
Ho360 O385 2.669 . S
Ho360 O387 2.346 . S
Ho360 O391 2.305 . S
Ho361 C372 2.811 . S
Ho361 O381 2.346 . S
Ho361 O385 2.305 . S
Ho361 O386 2.322 . S
Ho361 O388 2.378 . S
Ho361 O389 2.524 . S
Ho361 O390 2.381 . S
Ho361 O391 2.669 . S
C362 O380 1.259 . S
C362 O381 1.268 . S
C363 Ho360 2.811 . S
C363 C364 1.488 . S
C363 O382 1.215 . S
C363 O383 1.289 . S
C364 C363 1.488 . S
C364 C365 1.348 . S
C364 C369 1.413 . S
C365 C364 1.348 . S
C365 C366 1.442 . S
C365 H392 0.930 . S
C366 C365 1.442 . S
C366 C367 1.381 . S
C366 H393 0.931 . S
C367 C366 1.381 . S
C367 C368 1.321 . S
C368 C367 1.321 . S
C368 C369 1.403 . S
C368 H394 0.934 . S
C369 C364 1.413 . S
C369 C368 1.403 . S
C369 H395 0.930 . S
C370 O384 1.275 . S
C370 O385 1.256 . S
C371 O386 1.259 . S
C371 O387 1.268 . S
C372 Ho361 2.811 . S
C372 C373 1.488 . S
C372 O388 1.215 . S
C372 O389 1.289 . S
C373 C372 1.488 . S
C373 C374 1.348 . S
C373 C378 1.413 . S
C374 C373 1.348 . S
C374 C375 1.442 . S
C374 H396 0.930 . S
C375 C374 1.442 . S
C375 C376 1.381 . S
C375 H397 0.931 . S
C376 C375 1.381 . S
C376 C377 1.321 . S
C377 C376 1.321 . S
C377 C378 1.403 . S
C377 H398 0.934 . S
C378 C373 1.413 . S
C378 C377 1.403 . S
C378 H399 0.930 . S
C379 O390 1.275 . S
C379 O391 1.256 . S
O380 Ho360 2.322 . S
O380 C362 1.259 . S
O381 Ho361 2.346 . S
O381 C362 1.268 . S
O382 Ho360 2.378 . S
O382 C363 1.215 . S
O383 Ho360 2.524 . S
O383 C363 1.289 . S
O384 Ho360 2.381 . S
O384 C370 1.275 . S
O385 Ho360 2.669 . S
O385 Ho361 2.305 . S
O385 C370 1.256 . S
O386 Ho361 2.322 . S
O386 C371 1.259 . S
O387 Ho360 2.346 . S
O387 C371 1.268 . S
O388 Ho361 2.378 . S
O388 C372 1.215 . S
O389 Ho361 2.524 . S
O389 C372 1.289 . S
O390 Ho361 2.381 . S
O390 C379 1.275 . S
O391 Ho360 2.305 . S
O391 Ho361 2.669 . S
O391 C379 1.256 . S
H392 C365 0.930 . S
H393 C366 0.931 . S
H394 C368 0.934 . S
H395 C369 0.930 . S
H396 C374 0.930 . S
H397 C375 0.931 . S
H398 C377 0.934 . S
H399 C378 0.930 . S
Ho400 C403 2.811 . S
Ho400 O420 2.322 . S
Ho400 O422 2.378 . S
Ho400 O423 2.524 . S
Ho400 O424 2.381 . S
Ho400 O425 2.669 . S
Ho400 O427 2.346 . S
Ho400 O431 2.305 . S
Ho401 C412 2.811 . S
Ho401 O421 2.346 . S
Ho401 O425 2.305 . S
Ho401 O426 2.322 . S
Ho401 O428 2.378 . S
Ho401 O429 2.524 . S
Ho401 O430 2.381 . S
Ho401 O431 2.669 . S
C402 O420 1.259 . S
C402 O421 1.268 . S
C403 Ho400 2.811 . S
C403 C404 1.488 . S
C403 O422 1.215 . S
C403 O423 1.289 . S
C404 C403 1.488 . S
C404 C405 1.348 . S
C404 C409 1.413 . S
C405 C404 1.348 . S
C405 C406 1.442 . S
C405 H432 0.930 . S
C406 C405 1.442 . S
C406 C407 1.381 . S
C406 H433 0.931 . S
C407 C406 1.381 . S
C407 C408 1.321 . S
C408 C407 1.321 . S
C408 C409 1.403 . S
C408 H434 0.934 . S
C409 C404 1.413 . S
C409 C408 1.403 . S
C409 H435 0.930 . S
C410 O424 1.275 . S
C410 O425 1.256 . S
C411 O426 1.259 . S
C411 O427 1.268 . S
C412 Ho401 2.811 . S
C412 C413 1.488 . S
C412 O428 1.215 . S
C412 O429 1.289 . S
C413 C412 1.488 . S
C413 C414 1.348 . S
C413 C418 1.413 . S
C414 C413 1.348 . S
C414 C415 1.442 . S
C414 H436 0.930 . S
C415 C414 1.442 . S
C415 C416 1.381 . S
C415 H437 0.931 . S
C416 C415 1.381 . S
C416 C417 1.321 . S
C417 C416 1.321 . S
C417 C418 1.403 . S
C417 H438 0.934 . S
C418 C413 1.413 . S
C418 C417 1.403 . S
C418 H439 0.930 . S
C419 O430 1.275 . S
C419 O431 1.256 . S
O420 Ho400 2.322 . S
O420 C402 1.259 . S
O421 Ho401 2.346 . S
O421 C402 1.268 . S
O422 Ho400 2.378 . S
O422 C403 1.215 . S
O423 Ho400 2.524 . S
O423 C403 1.289 . S
O424 Ho400 2.381 . S
O424 C410 1.275 . S
O425 Ho400 2.669 . S
O425 Ho401 2.305 . S
O425 C410 1.256 . S
O426 Ho401 2.322 . S
O426 C411 1.259 . S
O427 Ho400 2.346 . S
O427 C411 1.268 . S
O428 Ho401 2.378 . S
O428 C412 1.215 . S
O429 Ho401 2.524 . S
O429 C412 1.289 . S
O430 Ho401 2.381 . S
O430 C419 1.275 . S
O431 Ho400 2.305 . S
O431 Ho401 2.669 . S
O431 C419 1.256 . S
H432 C405 0.930 . S
H433 C406 0.931 . S
H434 C408 0.934 . S
H435 C409 0.930 . S
H436 C414 0.930 . S
H437 C415 0.931 . S
H438 C417 0.934 . S
H439 C418 0.930 . S
Ho440 C443 2.811 . S
Ho440 O460 2.322 . S
Ho440 O462 2.378 . S
Ho440 O463 2.524 . S
Ho440 O464 2.381 . S
Ho440 O465 2.669 . S
Ho440 O467 2.346 . S
Ho440 O471 2.305 . S
Ho441 C452 2.811 . S
Ho441 O461 2.346 . S
Ho441 O465 2.305 . S
Ho441 O466 2.322 . S
Ho441 O468 2.378 . S
Ho441 O469 2.524 . S
Ho441 O470 2.381 . S
Ho441 O471 2.669 . S
C442 O460 1.259 . S
C442 O461 1.268 . S
C443 Ho440 2.811 . S
C443 C444 1.488 . S
C443 O462 1.215 . S
C443 O463 1.289 . S
C444 C443 1.488 . S
C444 C445 1.348 . S
C444 C449 1.413 . S
C445 C444 1.348 . S
C445 C446 1.442 . S
C445 H472 0.930 . S
C446 C445 1.442 . S
C446 C447 1.381 . S
C446 H473 0.931 . S
C447 C446 1.381 . S
C447 C448 1.321 . S
C448 C447 1.321 . S
C448 C449 1.403 . S
C448 H474 0.934 . S
C449 C444 1.413 . S
C449 C448 1.403 . S
C449 H475 0.930 . S
C450 O464 1.275 . S
C450 O465 1.256 . S
C451 O466 1.259 . S
C451 O467 1.268 . S
C452 Ho441 2.811 . S
C452 C453 1.488 . S
C452 O468 1.215 . S
C452 O469 1.289 . S
C453 C452 1.488 . S
C453 C454 1.348 . S
C453 C458 1.413 . S
C454 C453 1.348 . S
C454 C455 1.442 . S
C454 H476 0.930 . S
C455 C454 1.442 . S
C455 C456 1.381 . S
C455 H477 0.931 . S
C456 C455 1.381 . S
C456 C457 1.321 . S
C457 C456 1.321 . S
C457 C458 1.403 . S
C457 H478 0.934 . S
C458 C453 1.413 . S
C458 C457 1.403 . S
C458 H479 0.930 . S
C459 O470 1.275 . S
C459 O471 1.256 . S
O460 Ho440 2.322 . S
O460 C442 1.259 . S
O461 Ho441 2.346 . S
O461 C442 1.268 . S
O462 Ho440 2.378 . S
O462 C443 1.215 . S
O463 Ho440 2.524 . S
O463 C443 1.289 . S
O464 Ho440 2.381 . S
O464 C450 1.275 . S
O465 Ho440 2.669 . S
O465 Ho441 2.305 . S
O465 C450 1.256 . S
O466 Ho441 2.322 . S
O466 C451 1.259 . S
O467 Ho440 2.346 . S
O467 C451 1.268 . S
O468 Ho441 2.378 . S
O468 C452 1.215 . S
O469 Ho441 2.524 . S
O469 C452 1.289 . S
O470 Ho441 2.381 . S
O470 C459 1.275 . S
O471 Ho440 2.305 . S
O471 Ho441 2.669 . S
O471 C459 1.256 . S
H472 C445 0.930 . S
H473 C446 0.931 . S
H474 C448 0.934 . S
H475 C449 0.930 . S
H476 C454 0.930 . S
H477 C455 0.931 . S
H478 C457 0.934 . S
H479 C458 0.930 . S
Ho480 C483 2.811 . S
Ho480 O500 2.322 . S
Ho480 O502 2.378 . S
Ho480 O503 2.524 . S
Ho480 O504 2.381 . S
Ho480 O505 2.669 . S
Ho480 O507 2.346 . S
Ho480 O511 2.305 . S
Ho481 C492 2.811 . S
Ho481 O501 2.346 . S
Ho481 O505 2.305 . S
Ho481 O506 2.322 . S
Ho481 O508 2.378 . S
Ho481 O509 2.524 . S
Ho481 O510 2.381 . S
Ho481 O511 2.669 . S
C482 O500 1.259 . S
C482 O501 1.268 . S
C483 Ho480 2.811 . S
C483 C484 1.488 . S
C483 O502 1.215 . S
C483 O503 1.289 . S
C484 C483 1.488 . S
C484 C485 1.348 . S
C484 C489 1.413 . S
C485 C484 1.348 . S
C485 C486 1.442 . S
C485 H512 0.930 . S
C486 C485 1.442 . S
C486 C487 1.381 . S
C486 H513 0.931 . S
C487 C486 1.381 . S
C487 C488 1.321 . S
C488 C487 1.321 . S
C488 C489 1.403 . S
C488 H514 0.934 . S
C489 C484 1.413 . S
C489 C488 1.403 . S
C489 H515 0.930 . S
C490 O504 1.275 . S
C490 O505 1.256 . S
C491 O506 1.259 . S
C491 O507 1.268 . S
C492 Ho481 2.811 . S
C492 C493 1.488 . S
C492 O508 1.215 . S
C492 O509 1.289 . S
C493 C492 1.488 . S
C493 C494 1.348 . S
C493 C498 1.413 . S
C494 C493 1.348 . S
C494 C495 1.442 . S
C494 H516 0.930 . S
C495 C494 1.442 . S
C495 C496 1.381 . S
C495 H517 0.931 . S
C496 C495 1.381 . S
C496 C497 1.321 . S
C497 C496 1.321 . S
C497 C498 1.403 . S
C497 H518 0.934 . S
C498 C493 1.413 . S
C498 C497 1.403 . S
C498 H519 0.930 . S
C499 O510 1.275 . S
C499 O511 1.256 . S
O500 Ho480 2.322 . S
O500 C482 1.259 . S
O501 Ho481 2.346 . S
O501 C482 1.268 . S
O502 Ho480 2.378 . S
O502 C483 1.215 . S
O503 Ho480 2.524 . S
O503 C483 1.289 . S
O504 Ho480 2.381 . S
O504 C490 1.275 . S
O505 Ho480 2.669 . S
O505 Ho481 2.305 . S
O505 C490 1.256 . S
O506 Ho481 2.322 . S
O506 C491 1.259 . S
O507 Ho480 2.346 . S
O507 C491 1.268 . S
O508 Ho481 2.378 . S
O508 C492 1.215 . S
O509 Ho481 2.524 . S
O509 C492 1.289 . S
O510 Ho481 2.381 . S
O510 C499 1.275 . S
O511 Ho480 2.305 . S
O511 Ho481 2.669 . S
O511 C499 1.256 . S
H512 C485 0.930 . S
H513 C486 0.931 . S
H514 C488 0.934 . S
H515 C489 0.930 . S
H516 C494 0.930 . S
H517 C495 0.931 . S
H518 C497 0.934 . S
H519 C498 0.930 . S
Ho520 C523 2.811 . S
Ho520 O540 2.322 . S
Ho520 O542 2.378 . S
Ho520 O543 2.524 . S
Ho520 O544 2.381 . S
Ho520 O545 2.669 . S
Ho520 O547 2.346 . S
Ho520 O551 2.305 . S
Ho521 C532 2.811 . S
Ho521 O541 2.346 . S
Ho521 O545 2.305 . S
Ho521 O546 2.322 . S
Ho521 O548 2.378 . S
Ho521 O549 2.524 . S
Ho521 O550 2.381 . S
Ho521 O551 2.669 . S
C522 O540 1.259 . S
C522 O541 1.268 . S
C523 Ho520 2.811 . S
C523 C524 1.488 . S
C523 O542 1.215 . S
C523 O543 1.289 . S
C524 C523 1.488 . S
C524 C525 1.348 . S
C524 C529 1.413 . S
C525 C524 1.348 . S
C525 C526 1.442 . S
C525 H552 0.930 . S
C526 C525 1.442 . S
C526 C527 1.381 . S
C526 H553 0.931 . S
C527 C526 1.381 . S
C527 C528 1.321 . S
C528 C527 1.321 . S
C528 C529 1.403 . S
C528 H554 0.934 . S
C529 C524 1.413 . S
C529 C528 1.403 . S
C529 H555 0.930 . S
C530 O544 1.275 . S
C530 O545 1.256 . S
C531 O546 1.259 . S
C531 O547 1.268 . S
C532 Ho521 2.811 . S
C532 C533 1.488 . S
C532 O548 1.215 . S
C532 O549 1.289 . S
C533 C532 1.488 . S
C533 C534 1.348 . S
C533 C538 1.413 . S
C534 C533 1.348 . S
C534 C535 1.442 . S
C534 H556 0.930 . S
C535 C534 1.442 . S
C535 C536 1.381 . S
C535 H557 0.931 . S
C536 C535 1.381 . S
C536 C537 1.321 . S
C537 C536 1.321 . S
C537 C538 1.403 . S
C537 H558 0.934 . S
C538 C533 1.413 . S
C538 C537 1.403 . S
C538 H559 0.930 . S
C539 O550 1.275 . S
C539 O551 1.256 . S
O540 Ho520 2.322 . S
O540 C522 1.259 . S
O541 Ho521 2.346 . S
O541 C522 1.268 . S
O542 Ho520 2.378 . S
O542 C523 1.215 . S
O543 Ho520 2.524 . S
O543 C523 1.289 . S
O544 Ho520 2.381 . S
O544 C530 1.275 . S
O545 Ho520 2.669 . S
O545 Ho521 2.305 . S
O545 C530 1.256 . S
O546 Ho521 2.322 . S
O546 C531 1.259 . S
O547 Ho520 2.346 . S
O547 C531 1.268 . S
O548 Ho521 2.378 . S
O548 C532 1.215 . S
O549 Ho521 2.524 . S
O549 C532 1.289 . S
O550 Ho521 2.381 . S
O550 C539 1.275 . S
O551 Ho520 2.305 . S
O551 Ho521 2.669 . S
O551 C539 1.256 . S
H552 C525 0.930 . S
H553 C526 0.931 . S
H554 C528 0.934 . S
H555 C529 0.930 . S
H556 C534 0.930 . S
H557 C535 0.931 . S
H558 C537 0.934 . S
H559 C538 0.930 . S
Ho560 C563 2.811 . S
Ho560 O580 2.322 . S
Ho560 O582 2.378 . S
Ho560 O583 2.524 . S
Ho560 O584 2.381 . S
Ho560 O585 2.669 . S
Ho560 O587 2.346 . S
Ho560 O591 2.305 . S
Ho561 C572 2.811 . S
Ho561 O581 2.346 . S
Ho561 O585 2.305 . S
Ho561 O586 2.322 . S
Ho561 O588 2.378 . S
Ho561 O589 2.524 . S
Ho561 O590 2.381 . S
Ho561 O591 2.669 . S
C562 O580 1.259 . S
C562 O581 1.268 . S
C563 Ho560 2.811 . S
C563 C564 1.488 . S
C563 O582 1.215 . S
C563 O583 1.289 . S
C564 C563 1.488 . S
C564 C565 1.348 . S
C564 C569 1.413 . S
C565 C564 1.348 . S
C565 C566 1.442 . S
C565 H592 0.930 . S
C566 C565 1.442 . S
C566 C567 1.381 . S
C566 H593 0.931 . S
C567 C566 1.381 . S
C567 C568 1.321 . S
C568 C567 1.321 . S
C568 C569 1.403 . S
C568 H594 0.934 . S
C569 C564 1.413 . S
C569 C568 1.403 . S
C569 H595 0.930 . S
C570 O584 1.275 . S
C570 O585 1.256 . S
C571 O586 1.259 . S
C571 O587 1.268 . S
C572 Ho561 2.811 . S
C572 C573 1.488 . S
C572 O588 1.215 . S
C572 O589 1.289 . S
C573 C572 1.488 . S
C573 C574 1.348 . S
C573 C578 1.413 . S
C574 C573 1.348 . S
C574 C575 1.442 . S
C574 H596 0.930 . S
C575 C574 1.442 . S
C575 C576 1.381 . S
C575 H597 0.931 . S
C576 C575 1.381 . S
C576 C577 1.321 . S
C577 C576 1.321 . S
C577 C578 1.403 . S
C577 H598 0.934 . S
C578 C573 1.413 . S
C578 C577 1.403 . S
C578 H599 0.930 . S
C579 O590 1.275 . S
C579 O591 1.256 . S
O580 Ho560 2.322 . S
O580 C562 1.259 . S
O581 Ho561 2.346 . S
O581 C562 1.268 . S
O582 Ho560 2.378 . S
O582 C563 1.215 . S
O583 Ho560 2.524 . S
O583 C563 1.289 . S
O584 Ho560 2.381 . S
O584 C570 1.275 . S
O585 Ho560 2.669 . S
O585 Ho561 2.305 . S
O585 C570 1.256 . S
O586 Ho561 2.322 . S
O586 C571 1.259 . S
O587 Ho560 2.346 . S
O587 C571 1.268 . S
O588 Ho561 2.378 . S
O588 C572 1.215 . S
O589 Ho561 2.524 . S
O589 C572 1.289 . S
O590 Ho561 2.381 . S
O590 C579 1.275 . S
O591 Ho560 2.305 . S
O591 Ho561 2.669 . S
O591 C579 1.256 . S
H592 C565 0.930 . S
H593 C566 0.931 . S
H594 C568 0.934 . S
H595 C569 0.930 . S
H596 C574 0.930 . S
H597 C575 0.931 . S
H598 C577 0.934 . S
H599 C578 0.930 . S
Ho600 C603 2.811 . S
Ho600 O620 2.322 . S
Ho600 O622 2.378 . S
Ho600 O623 2.524 . S
Ho600 O624 2.381 . S
Ho600 O625 2.669 . S
Ho600 O627 2.346 . S
Ho600 O631 2.305 . S
Ho601 C612 2.811 . S
Ho601 O621 2.346 . S
Ho601 O625 2.305 . S
Ho601 O626 2.322 . S
Ho601 O628 2.378 . S
Ho601 O629 2.524 . S
Ho601 O630 2.381 . S
Ho601 O631 2.669 . S
C602 O620 1.259 . S
C602 O621 1.268 . S
C603 Ho600 2.811 . S
C603 C604 1.488 . S
C603 O622 1.215 . S
C603 O623 1.289 . S
C604 C603 1.488 . S
C604 C605 1.348 . S
C604 C609 1.413 . S
C605 C604 1.348 . S
C605 C606 1.442 . S
C605 H632 0.930 . S
C606 C605 1.442 . S
C606 C607 1.381 . S
C606 H633 0.931 . S
C607 C606 1.381 . S
C607 C608 1.321 . S
C608 C607 1.321 . S
C608 C609 1.403 . S
C608 H634 0.934 . S
C609 C604 1.413 . S
C609 C608 1.403 . S
C609 H635 0.930 . S
C610 O624 1.275 . S
C610 O625 1.256 . S
C611 O626 1.259 . S
C611 O627 1.268 . S
C612 Ho601 2.811 . S
C612 C613 1.488 . S
C612 O628 1.215 . S
C612 O629 1.289 . S
C613 C612 1.488 . S
C613 C614 1.348 . S
C613 C618 1.413 . S
C614 C613 1.348 . S
C614 C615 1.442 . S
C614 H636 0.930 . S
C615 C614 1.442 . S
C615 C616 1.381 . S
C615 H637 0.931 . S
C616 C615 1.381 . S
C616 C617 1.321 . S
C617 C616 1.321 . S
C617 C618 1.403 . S
C617 H638 0.934 . S
C618 C613 1.413 . S
C618 C617 1.403 . S
C618 H639 0.930 . S
C619 O630 1.275 . S
C619 O631 1.256 . S
O620 Ho600 2.322 . S
O620 C602 1.259 . S
O621 Ho601 2.346 . S
O621 C602 1.268 . S
O622 Ho600 2.378 . S
O622 C603 1.215 . S
O623 Ho600 2.524 . S
O623 C603 1.289 . S
O624 Ho600 2.381 . S
O624 C610 1.275 . S
O625 Ho600 2.669 . S
O625 Ho601 2.305 . S
O625 C610 1.256 . S
O626 Ho601 2.322 . S
O626 C611 1.259 . S
O627 Ho600 2.346 . S
O627 C611 1.268 . S
O628 Ho601 2.378 . S
O628 C612 1.215 . S
O629 Ho601 2.524 . S
O629 C612 1.289 . S
O630 Ho601 2.381 . S
O630 C619 1.275 . S
O631 Ho600 2.305 . S
O631 Ho601 2.669 . S
O631 C619 1.256 . S
H632 C605 0.930 . S
H633 C606 0.931 . S
H634 C608 0.934 . S
H635 C609 0.930 . S
H636 C614 0.930 . S
H637 C615 0.931 . S
H638 C617 0.934 . S
H639 C618 0.930 . S
H640 C646 0.930 . S
H641 C649 0.930 . S
H642 C650 0.930 . S
H643 C651 0.930 . S
H644 C654 0.930 . S
H645 C655 0.930 . S
C646 H640 0.930 . S
C646 C647 1.355 . S
C646 C648 1.415 . S
C647 C646 1.355 . S
C647 C649 1.419 . S
C648 C646 1.415 . S
C648 C653 1.425 . S
C648 C655 1.409 . S
C649 H641 0.930 . S
C649 C647 1.419 . S
C649 C650 1.362 . S
C650 H642 0.930 . S
C650 C649 1.362 . S
C650 C653 1.409 . S
C651 H643 0.930 . S
C651 C652 1.355 . S
C651 C653 1.415 . S
C652 C651 1.355 . S
C652 C654 1.419 . S
C653 C648 1.425 . S
C653 C650 1.409 . S
C653 C651 1.415 . S
C654 H644 0.930 . S
C654 C652 1.419 . S
C654 C655 1.362 . S
C655 H645 0.930 . S
C655 C648 1.409 . S
C655 C654 1.362 . S
H656 C662 0.930 . S
H657 C665 0.930 . S
H658 C666 0.930 . S
H659 C667 0.930 . S
H660 C670 0.930 . S
H661 C671 0.930 . S
C662 H656 0.930 . S
C662 C663 1.355 . S
C662 C664 1.415 . S
C663 C662 1.355 . S
C663 C665 1.419 . S
C664 C662 1.415 . S
C664 C669 1.425 . S
C664 C671 1.409 . S
C665 H657 0.930 . S
C665 C663 1.419 . S
C665 C666 1.362 . S
C666 H658 0.930 . S
C666 C665 1.362 . S
C666 C669 1.409 . S
C667 H659 0.930 . S
C667 C668 1.355 . S
C667 C669 1.415 . S
C668 C667 1.355 . S
C668 C670 1.419 . S
C669 C664 1.425 . S
C669 C666 1.409 . S
C669 C667 1.415 . S
C670 H660 0.930 . S
C670 C668 1.419 . S
C670 C671 1.362 . S
C671 H661 0.930 . S
C671 C664 1.409 . S
C671 C670 1.362 . S
H672 C678 0.930 . S
H673 C681 0.930 . S
H674 C682 0.930 . S
H675 C683 0.930 . S
H676 C686 0.930 . S
H677 C687 0.930 . S
C678 H672 0.930 . S
C678 C679 1.355 . S
C678 C680 1.415 . S
C679 C678 1.355 . S
C679 C681 1.419 . S
C680 C678 1.415 . S
C680 C685 1.425 . S
C680 C687 1.409 . S
C681 H673 0.930 . S
C681 C679 1.419 . S
C681 C682 1.362 . S
C682 H674 0.930 . S
C682 C681 1.362 . S
C682 C685 1.409 . S
C683 H675 0.930 . S
C683 C684 1.355 . S
C683 C685 1.415 . S
C684 C683 1.355 . S
C684 C686 1.419 . S
C685 C680 1.425 . S
C685 C682 1.409 . S
C685 C683 1.415 . S
C686 H676 0.930 . S
C686 C684 1.419 . S
C686 C687 1.362 . S
C687 H677 0.930 . S
C687 C680 1.409 . S
C687 C686 1.362 . S
H688 C694 0.930 . S
H689 C697 0.930 . S
H690 C698 0.930 . S
H691 C699 0.930 . S
H692 C702 0.930 . S
H693 C703 0.930 . S
C694 H688 0.930 . S
C694 C695 1.355 . S
C694 C696 1.415 . S
C695 C694 1.355 . S
C695 C697 1.419 . S
C696 C694 1.415 . S
C696 C701 1.425 . S
C696 C703 1.409 . S
C697 H689 0.930 . S
C697 C695 1.419 . S
C697 C698 1.362 . S
C698 H690 0.930 . S
C698 C697 1.362 . S
C698 C701 1.409 . S
C699 H691 0.930 . S
C699 C700 1.355 . S
C699 C701 1.415 . S
C700 C699 1.355 . S
C700 C702 1.419 . S
C701 C696 1.425 . S
C701 C698 1.409 . S
C701 C699 1.415 . S
C702 H692 0.930 . S
C702 C700 1.419 . S
C702 C703 1.362 . S
C703 H693 0.930 . S
C703 C696 1.409 . S
C703 C702 1.362 . S
H704 C710 0.930 . S
H705 C713 0.930 . S
H706 C714 0.930 . S
H707 C715 0.930 . S
H708 C718 0.930 . S
H709 C719 0.930 . S
C710 H704 0.930 . S
C710 C711 1.355 . S
C710 C712 1.415 . S
C711 C710 1.355 . S
C711 C713 1.419 . S
C712 C710 1.415 . S
C712 C717 1.425 . S
C712 C719 1.409 . S
C713 H705 0.930 . S
C713 C711 1.419 . S
C713 C714 1.362 . S
C714 H706 0.930 . S
C714 C713 1.362 . S
C714 C717 1.409 . S
C715 H707 0.930 . S
C715 C716 1.355 . S
C715 C717 1.415 . S
C716 C715 1.355 . S
C716 C718 1.419 . S
C717 C712 1.425 . S
C717 C714 1.409 . S
C717 C715 1.415 . S
C718 H708 0.930 . S
C718 C716 1.419 . S
C718 C719 1.362 . S
C719 H709 0.930 . S
C719 C712 1.409 . S
C719 C718 1.362 . S
H720 C726 0.930 . S
H721 C729 0.930 . S
H722 C730 0.930 . S
H723 C731 0.930 . S
H724 C734 0.930 . S
H725 C735 0.930 . S
C726 H720 0.930 . S
C726 C727 1.355 . S
C726 C728 1.415 . S
C727 C726 1.355 . S
C727 C729 1.419 . S
C728 C726 1.415 . S
C728 C733 1.425 . S
C728 C735 1.409 . S
C729 H721 0.930 . S
C729 C727 1.419 . S
C729 C730 1.362 . S
C730 H722 0.930 . S
C730 C729 1.362 . S
C730 C733 1.409 . S
C731 H723 0.930 . S
C731 C732 1.355 . S
C731 C733 1.415 . S
C732 C731 1.355 . S
C732 C734 1.419 . S
C733 C728 1.425 . S
C733 C730 1.409 . S
C733 C731 1.415 . S
C734 H724 0.930 . S
C734 C732 1.419 . S
C734 C735 1.362 . S
C735 H725 0.930 . S
C735 C728 1.409 . S
C735 C734 1.362 . S
H736 C742 0.930 . S
H737 C745 0.930 . S
H738 C746 0.930 . S
H739 C747 0.930 . S
H740 C750 0.930 . S
H741 C751 0.930 . S
C742 H736 0.930 . S
C742 C743 1.355 . S
C742 C744 1.415 . S
C743 C742 1.355 . S
C743 C745 1.419 . S
C744 C742 1.415 . S
C744 C749 1.425 . S
C744 C751 1.409 . S
C745 H737 0.930 . S
C745 C743 1.419 . S
C745 C746 1.362 . S
C746 H738 0.930 . S
C746 C745 1.362 . S
C746 C749 1.409 . S
C747 H739 0.930 . S
C747 C748 1.355 . S
C747 C749 1.415 . S
C748 C747 1.355 . S
C748 C750 1.419 . S
C749 C744 1.425 . S
C749 C746 1.409 . S
C749 C747 1.415 . S
C750 H740 0.930 . S
C750 C748 1.419 . S
C750 C751 1.362 . S
C751 H741 0.930 . S
C751 C744 1.409 . S
C751 C750 1.362 . S
H752 C758 0.930 . S
H753 C761 0.930 . S
H754 C762 0.930 . S
H755 C763 0.930 . S
H756 C766 0.930 . S
H757 C767 0.930 . S
C758 H752 0.930 . S
C758 C759 1.355 . S
C758 C760 1.415 . S
C759 C758 1.355 . S
C759 C761 1.419 . S
C760 C758 1.415 . S
C760 C765 1.425 . S
C760 C767 1.409 . S
C761 H753 0.930 . S
C761 C759 1.419 . S
C761 C762 1.362 . S
C762 H754 0.930 . S
C762 C761 1.362 . S
C762 C765 1.409 . S
C763 H755 0.930 . S
C763 C764 1.355 . S
C763 C765 1.415 . S
C764 C763 1.355 . S
C764 C766 1.419 . S
C765 C760 1.425 . S
C765 C762 1.409 . S
C765 C763 1.415 . S
C766 H756 0.930 . S
C766 C764 1.419 . S
C766 C767 1.362 . S
C767 H757 0.930 . S
C767 C760 1.409 . S
C767 C766 1.362 . S
H768 C774 0.930 1_545 S
H769 C777 0.930 . S
H770 C778 0.930 . S
H771 C779 0.930 1_565 S
H772 C782 0.930 . S
H773 C783 0.930 . S
C774 H768 0.930 1_565 S
C774 C775 1.355 . S
C774 C776 1.415 1_565 S
C775 C774 1.355 . S
C775 C777 1.419 . S
C776 C774 1.415 1_545 S
C776 C781 1.425 1_545 S
C776 C783 1.409 . S
C777 H769 0.930 . S
C777 C775 1.419 . S
C777 C778 1.362 . S
C778 H770 0.930 . S
C778 C777 1.362 . S
C778 C781 1.409 . S
C779 H771 0.930 1_545 S
C779 C780 1.355 . S
C779 C781 1.415 1_545 S
C780 C779 1.355 . S
C780 C782 1.419 . S
C781 C776 1.425 1_565 S
C781 C778 1.409 . S
C781 C779 1.415 1_565 S
C782 H772 0.930 . S
C782 C780 1.419 . S
C782 C783 1.362 . S
C783 H773 0.930 . S
C783 C776 1.409 . S
C783 C782 1.362 . S
H784 C790 0.930 . S
H785 C793 0.930 . S
H786 C794 0.935 . S
H787 C795 0.930 . S
H788 C798 0.930 . S
H789 C799 0.935 . S
C790 H784 0.930 . S
C790 C791 1.355 . S
C790 C792 1.415 . S
C791 C790 1.355 . S
C791 C793 1.419 . S
C792 C790 1.415 . S
C792 C797 1.425 1_545 S
C792 C799 1.409 1_545 S
C793 H785 0.930 . S
C793 C791 1.419 . S
C793 C794 1.362 . S
C794 H786 0.935 . S
C794 C793 1.362 . S
C794 C797 1.409 1_545 S
C795 H787 0.930 . S
C795 C796 1.355 . S
C795 C797 1.415 . S
C796 C795 1.355 . S
C796 C798 1.419 . S
C797 C792 1.425 1_565 S
C797 C794 1.409 1_565 S
C797 C795 1.415 . S
C798 H788 0.930 . S
C798 C796 1.419 . S
C798 C799 1.362 . S
C799 H789 0.935 . S
C799 C792 1.409 1_565 S
C799 C798 1.362 . S
H800 C806 0.930 . S
H801 C809 0.930 . S
H802 C810 0.930 . S
H803 C811 0.930 . S
H804 C814 0.930 . S
H805 C815 0.930 . S
C806 H800 0.930 . S
C806 C807 1.355 . S
C806 C808 1.415 . S
C807 C806 1.355 . S
C807 C809 1.419 . S
C808 C806 1.415 . S
C808 C813 1.425 1_545 S
C808 C815 1.409 1_545 S
C809 H801 0.930 . S
C809 C807 1.419 . S
C809 C810 1.362 . S
C810 H802 0.930 . S
C810 C809 1.362 . S
C810 C813 1.409 1_545 S
C811 H803 0.930 . S
C811 C812 1.355 . S
C811 C813 1.415 . S
C812 C811 1.355 . S
C812 C814 1.419 . S
C813 C808 1.425 1_565 S
C813 C810 1.409 1_565 S
C813 C811 1.415 . S
C814 H804 0.930 . S
C814 C812 1.419 . S
C814 C815 1.362 . S
C815 H805 0.930 . S
C815 C808 1.409 1_565 S
C815 C814 1.362 . S
H816 C822 0.930 . S
H817 C825 0.930 . S
H818 C826 0.930 . S
H819 C827 0.930 . S
H820 C830 0.930 . S
H821 C831 0.930 . S
C822 H816 0.930 . S
C822 C823 1.355 . S
C822 C824 1.415 . S
C823 C822 1.355 . S
C823 C825 1.419 1_545 S
C824 C822 1.415 . S
C824 C829 1.425 1_545 S
C824 C831 1.409 . S
C825 H817 0.930 . S
C825 C823 1.419 1_565 S
C825 C826 1.362 . S
C826 H818 0.930 . S
C826 C825 1.362 . S
C826 C829 1.409 . S
C827 H819 0.930 . S
C827 C828 1.355 . S
C827 C829 1.415 . S
C828 C827 1.355 . S
C828 C830 1.419 1_565 S
C829 C824 1.425 1_565 S
C829 C826 1.409 . S
C829 C827 1.415 . S
C830 H820 0.930 . S
C830 C828 1.419 1_545 S
C830 C831 1.362 . S
C831 H821 0.930 . S
C831 C824 1.409 . S
C831 C830 1.362 . S
H832 C838 0.930 . S
H833 C841 0.930 . S
H834 C842 0.930 . S
H835 C843 0.930 . S
H836 C846 0.930 . S
H837 C847 0.930 . S
C838 H832 0.930 . S
C838 C839 1.355 . S
C838 C840 1.415 . S
C839 C838 1.355 . S
C839 C841 1.419 . S
C840 C838 1.415 . S
C840 C845 1.425 . S
C840 C847 1.409 . S
C841 H833 0.930 . S
C841 C839 1.419 . S
C841 C842 1.362 . S
C842 H834 0.930 . S
C842 C841 1.362 . S
C842 C845 1.409 . S
C843 H835 0.930 . S
C843 C844 1.355 . S
C843 C845 1.415 . S
C844 C843 1.355 . S
C844 C846 1.419 . S
C845 C840 1.425 . S
C845 C842 1.409 . S
C845 C843 1.415 . S
C846 H836 0.930 . S
C846 C844 1.419 . S
C846 C847 1.362 . S
C847 H837 0.930 . S
C847 C840 1.409 . S
C847 C846 1.362 . S
H848 C854 0.930 . S
H849 C857 0.930 . S
H850 C858 0.930 . S
H851 C859 0.930 . S
H852 C862 0.930 . S
H853 C863 0.930 . S
C854 H848 0.930 . S
C854 C855 1.355 . S
C854 C856 1.415 . S
C855 C854 1.355 . S
C855 C857 1.419 . S
C856 C854 1.415 . S
C856 C861 1.425 . S
C856 C863 1.409 . S
C857 H849 0.930 . S
C857 C855 1.419 . S
C857 C858 1.362 . S
C858 H850 0.930 . S
C858 C857 1.362 . S
C858 C861 1.409 . S
C859 H851 0.930 . S
C859 C860 1.355 . S
C859 C861 1.415 . S
C860 C859 1.355 . S
C860 C862 1.419 . S
C861 C856 1.425 . S
C861 C858 1.409 . S
C861 C859 1.415 . S
C862 H852 0.930 . S
C862 C860 1.419 . S
C862 C863 1.362 . S
C863 H853 0.930 . S
C863 C856 1.409 . S
C863 C862 1.362 . S
H864 C870 0.930 . S
H865 C873 0.930 . S
H866 C874 0.930 . S
H867 C875 0.930 . S
H868 C878 0.930 . S
H869 C879 0.930 . S
C870 H864 0.930 . S
C870 C871 1.355 . S
C870 C872 1.415 . S
C871 C870 1.355 . S
C871 C873 1.419 . S
C872 C870 1.415 . S
C872 C877 1.425 . S
C872 C879 1.409 . S
C873 H865 0.930 . S
C873 C871 1.419 . S
C873 C874 1.362 . S
C874 H866 0.930 . S
C874 C873 1.362 . S
C874 C877 1.409 . S
C875 H867 0.930 . S
C875 C876 1.355 . S
C875 C877 1.415 . S
C876 C875 1.355 . S
C876 C878 1.419 . S
C877 C872 1.425 . S
C877 C874 1.409 . S
C877 C875 1.415 . S
C878 H868 0.930 . S
C878 C876 1.419 . S
C878 C879 1.362 . S
C879 H869 0.930 . S
C879 C872 1.409 . S
C879 C878 1.362 . S
H880 C886 0.930 . S
H881 C889 0.930 . S
H882 C890 0.930 . S
H883 C891 0.930 . S
H884 C894 0.930 . S
H885 C895 0.930 . S
C886 H880 0.930 . S
C886 C887 1.355 . S
C886 C888 1.415 . S
C887 C886 1.355 . S
C887 C889 1.419 . S
C888 C886 1.415 . S
C888 C893 1.425 . S
C888 C895 1.409 . S
C889 H881 0.930 . S
C889 C887 1.419 . S
C889 C890 1.362 . S
C890 H882 0.930 . S
C890 C889 1.362 . S
C890 C893 1.409 . S
C891 H883 0.930 . S
C891 C892 1.355 . S
C891 C893 1.415 . S
C892 C891 1.355 . S
C892 C894 1.419 . S
C893 C888 1.425 . S
C893 C890 1.409 . S
C893 C891 1.415 . S
C894 H884 0.930 . S
C894 C892 1.419 . S
C894 C895 1.362 . S
C895 H885 0.930 . S
C895 C888 1.409 . S
C895 C894 1.362 . S
H896 C902 0.930 . S
H897 C905 0.930 . S
H898 C906 0.930 . S
H899 C907 0.930 . S
H900 C910 0.930 . S
H901 C911 0.930 . S
C902 H896 0.930 . S
C902 C903 1.355 . S
C902 C904 1.415 . S
C903 C902 1.355 . S
C903 C905 1.419 . S
C904 C902 1.415 . S
C904 C909 1.425 1_556 S
C904 C911 1.409 1_556 S
C905 H897 0.930 . S
C905 C903 1.419 . S
C905 C906 1.362 . S
C906 H898 0.930 . S
C906 C905 1.362 . S
C906 C909 1.409 1_556 S
C907 H899 0.930 . S
C907 C908 1.355 . S
C907 C909 1.415 . S
C908 C907 1.355 . S
C908 C910 1.419 . S
C909 C904 1.425 1_554 S
C909 C906 1.409 1_554 S
C909 C907 1.415 . S
C910 H900 0.930 . S
C910 C908 1.419 . S
C910 C911 1.362 . S
C911 H901 0.930 . S
C911 C904 1.409 1_554 S
C911 C910 1.362 . S
H912 C918 0.930 . S
H913 C921 0.930 . S
H914 C922 0.930 . S
H915 C923 0.930 . S
H916 C926 0.930 . S
H917 C927 0.930 . S
C918 H912 0.930 . S
C918 C919 1.355 . S
C918 C920 1.415 . S
C919 C918 1.355 . S
C919 C921 1.419 . S
C920 C918 1.415 . S
C920 C925 1.425 1_556 S
C920 C927 1.409 1_556 S
C921 H913 0.930 . S
C921 C919 1.419 . S
C921 C922 1.362 . S
C922 H914 0.930 . S
C922 C921 1.362 . S
C922 C925 1.409 1_556 S
C923 H915 0.930 . S
C923 C924 1.355 . S
C923 C925 1.415 . S
C924 C923 1.355 . S
C924 C926 1.419 . S
C925 C920 1.425 1_554 S
C925 C922 1.409 1_554 S
C925 C923 1.415 . S
C926 H916 0.930 . S
C926 C924 1.419 . S
C926 C927 1.362 . S
C927 H917 0.930 . S
C927 C920 1.409 1_554 S
C927 C926 1.362 . S
H928 C934 0.930 . S
H929 C937 0.930 . S
H930 C938 0.930 . S
H931 C939 0.930 . S
H932 C942 0.930 . S
H933 C943 0.930 . S
C934 H928 0.930 . S
C934 C935 1.355 . S
C934 C936 1.415 . S
C935 C934 1.355 . S
C935 C937 1.419 . S
C936 C934 1.415 . S
C936 C941 1.425 . S
C936 C943 1.409 . S
C937 H929 0.930 . S
C937 C935 1.419 . S
C937 C938 1.362 . S
C938 H930 0.930 . S
C938 C937 1.362 . S
C938 C941 1.409 . S
C939 H931 0.930 . S
C939 C940 1.355 . S
C939 C941 1.415 . S
C940 C939 1.355 . S
C940 C942 1.419 . S
C941 C936 1.425 . S
C941 C938 1.409 . S
C941 C939 1.415 . S
C942 H932 0.930 . S
C942 C940 1.419 . S
C942 C943 1.362 . S
C943 H933 0.930 . S
C943 C936 1.409 . S
C943 C942 1.362 . S
H944 C950 0.930 . S
H945 C953 0.930 . S
H946 C954 0.930 . S
H947 C955 0.930 . S
H948 C958 0.930 . S
H949 C959 0.930 . S
C950 H944 0.930 . S
C950 C951 1.355 . S
C950 C952 1.415 . S
C951 C950 1.355 . S
C951 C953 1.419 . S
C952 C950 1.415 . S
C952 C957 1.425 . S
C952 C959 1.409 . S
C953 H945 0.930 . S
C953 C951 1.419 . S
C953 C954 1.362 . S
C954 H946 0.930 . S
C954 C953 1.362 . S
C954 C957 1.409 . S
C955 H947 0.930 . S
C955 C956 1.355 . S
C955 C957 1.415 . S
C956 C955 1.355 . S
C956 C958 1.419 . S
C957 C952 1.425 . S
C957 C954 1.409 . S
C957 C955 1.415 . S
C958 H948 0.930 . S
C958 C956 1.419 . S
C958 C959 1.362 . S
C959 H949 0.930 . S
C959 C952 1.409 . S
C959 C958 1.362 . S
H960 C966 0.930 . S
H961 C969 0.930 . S
H962 C970 0.930 . S
H963 C971 0.930 . S
H964 C974 0.930 . S
H965 C975 0.930 . S
C966 H960 0.930 . S
C966 C967 1.355 . S
C966 C968 1.415 . S
C967 C966 1.355 . S
C967 C969 1.419 . S
C968 C966 1.415 . S
C968 C973 1.425 1_554 S
C968 C975 1.409 1_554 S
C969 H961 0.930 . S
C969 C967 1.419 . S
C969 C970 1.362 . S
C970 H962 0.930 . S
C970 C969 1.362 . S
C970 C973 1.409 1_554 S
C971 H963 0.930 . S
C971 C972 1.355 . S
C971 C973 1.415 . S
C972 C971 1.355 . S
C972 C974 1.419 . S
C973 C968 1.425 1_556 S
C973 C970 1.409 1_556 S
C973 C971 1.415 . S
C974 H964 0.930 . S
C974 C972 1.419 . S
C974 C975 1.362 . S
C975 H965 0.930 . S
C975 C968 1.409 1_556 S
C975 C974 1.362 . S
H976 C982 0.930 . S
H977 C985 0.930 . S
H978 C986 0.930 . S
H979 C987 0.930 . S
H980 C990 0.930 . S
H981 C991 0.930 . S
C982 H976 0.930 . S
C982 C983 1.355 . S
C982 C984 1.415 . S
C983 C982 1.355 . S
C983 C985 1.419 . S
C984 C982 1.415 . S
C984 C989 1.425 1_556 S
C984 C991 1.409 1_556 S
C985 H977 0.930 . S
C985 C983 1.419 . S
C985 C986 1.362 . S
C986 H978 0.930 . S
C986 C985 1.362 . S
C986 C989 1.409 1_556 S
C987 H979 0.930 . S
C987 C988 1.355 . S
C987 C989 1.415 . S
C988 C987 1.355 . S
C988 C990 1.419 . S
C989 C984 1.425 1_554 S
C989 C986 1.409 1_554 S
C989 C987 1.415 . S
C990 H980 0.930 . S
C990 C988 1.419 . S
C990 C991 1.362 . S
C991 H981 0.930 . S
C991 C984 1.409 1_554 S
C991 C990 1.362 . S
H992 C998 0.930 . S
H993 C1001 0.930 . S
H994 C1002 0.930 . S
H995 C1003 0.930 . S
H996 C1006 0.930 . S
H997 C1007 0.930 . S
C998 H992 0.930 . S
C998 C999 1.355 . S
C998 C1000 1.415 . S
C999 C998 1.355 . S
C999 C1001 1.419 . S
C1000 C998 1.415 . S
C1000 C1005 1.425 . S
C1000 C1007 1.409 . S
C1001 H993 0.930 . S
C1001 C999 1.419 . S
C1001 C1002 1.362 . S
C1002 H994 0.930 . S
C1002 C1001 1.362 . S
C1002 C1005 1.409 . S
C1003 H995 0.930 . S
C1003 C1004 1.355 . S
C1003 C1005 1.415 . S
C1004 C1003 1.355 . S
C1004 C1006 1.419 . S
C1005 C1000 1.425 . S
C1005 C1002 1.409 . S
C1005 C1003 1.415 . S
C1006 H996 0.930 . S
C1006 C1004 1.419 . S
C1006 C1007 1.362 . S
C1007 H997 0.930 . S
C1007 C1000 1.409 . S
C1007 C1006 1.362 . S
H1008 C1014 0.930 . S
H1009 C1017 0.930 . S
H1010 C1018 0.930 . S
H1011 C1019 0.930 . S
H1012 C1022 0.930 . S
H1013 C1023 0.930 . S
C1014 H1008 0.930 . S
C1014 C1015 1.355 . S
C1014 C1016 1.415 . S
C1015 C1014 1.355 . S
C1015 C1017 1.419 . S
C1016 C1014 1.415 . S
C1016 C1021 1.425 . S
C1016 C1023 1.409 . S
C1017 H1009 0.930 . S
C1017 C1015 1.419 . S
C1017 C1018 1.362 . S
C1018 H1010 0.930 . S
C1018 C1017 1.362 . S
C1018 C1021 1.409 . S
C1019 H1011 0.930 . S
C1019 C1020 1.355 . S
C1019 C1021 1.415 . S
C1020 C1019 1.355 . S
C1020 C1022 1.419 . S
C1021 C1016 1.425 . S
C1021 C1018 1.409 . S
C1021 C1019 1.415 . S
C1022 H1012 0.930 . S
C1022 C1020 1.419 . S
C1022 C1023 1.362 . S
C1023 H1013 0.930 . S
C1023 C1016 1.409 . S
C1023 C1022 1.362 . S
H1024 C1030 0.930 . S
H1025 C1033 0.930 . S
H1026 C1034 0.930 . S
H1027 C1035 0.930 . S
H1028 C1038 0.930 . S
H1029 C1039 0.930 . S
C1030 H1024 0.930 . S
C1030 C1031 1.355 1_545 S
C1030 C1032 1.415 . S
C1031 C1030 1.355 1_565 S
C1031 C1033 1.419 . S
C1032 C1030 1.415 . S
C1032 C1037 1.425 1_645 S
C1032 C1039 1.409 1_655 S
C1033 H1025 0.930 . S
C1033 C1031 1.419 . S
C1033 C1034 1.362 . S
C1034 H1026 0.930 . S
C1034 C1033 1.362 . S
C1034 C1037 1.409 1_655 S
C1035 H1027 0.930 . S
C1035 C1036 1.355 1_565 S
C1035 C1037 1.415 . S
C1036 C1035 1.355 1_545 S
C1036 C1038 1.419 . S
C1037 C1032 1.425 1_465 S
C1037 C1034 1.409 1_455 S
C1037 C1035 1.415 . S
C1038 H1028 0.930 . S
C1038 C1036 1.419 . S
C1038 C1039 1.362 . S
C1039 H1029 0.930 . S
C1039 C1032 1.409 1_455 S
C1039 C1038 1.362 . S
H1040 C1046 0.930 . S
H1041 C1049 0.930 . S
H1042 C1050 0.930 . S
H1043 C1051 0.930 . S
H1044 C1054 0.930 . S
H1045 C1055 0.930 . S
C1046 H1040 0.930 . S
C1046 C1047 1.355 1_565 S
C1046 C1048 1.415 . S
C1047 C1046 1.355 1_545 S
C1047 C1049 1.419 . S
C1048 C1046 1.415 . S
C1048 C1053 1.425 1_665 S
C1048 C1055 1.409 1_655 S
C1049 H1041 0.930 . S
C1049 C1047 1.419 . S
C1049 C1050 1.362 . S
C1050 H1042 0.930 . S
C1050 C1049 1.362 . S
C1050 C1053 1.409 1_655 S
C1051 H1043 0.930 . S
C1051 C1052 1.355 1_545 S
C1051 C1053 1.415 . S
C1052 C1051 1.355 1_565 S
C1052 C1054 1.419 . S
C1053 C1048 1.425 1_445 S
C1053 C1050 1.409 1_455 S
C1053 C1051 1.415 . S
C1054 H1044 0.930 . S
C1054 C1052 1.419 . S
C1054 C1055 1.362 . S
C1055 H1045 0.930 . S
C1055 C1048 1.409 1_455 S
C1055 C1054 1.362 . S
H1056 C1062 0.930 . S
H1057 C1065 0.930 . S
H1058 C1066 0.930 . S
H1059 C1067 0.930 . S
H1060 C1070 0.930 . S
H1061 C1071 0.930 . S
C1062 H1056 0.930 . S
C1062 C1063 1.355 . S
C1062 C1064 1.415 . S
C1063 C1062 1.355 . S
C1063 C1065 1.419 1_545 S
C1064 C1062 1.415 . S
C1064 C1069 1.425 1_445 S
C1064 C1071 1.409 1_455 S
C1065 H1057 0.930 . S
C1065 C1063 1.419 1_565 S
C1065 C1066 1.362 . S
C1066 H1058 0.930 . S
C1066 C1065 1.362 . S
C1066 C1069 1.409 1_455 S
C1067 H1059 0.930 . S
C1067 C1068 1.355 . S
C1067 C1069 1.415 . S
C1068 C1067 1.355 . S
C1068 C1070 1.419 1_565 S
C1069 C1064 1.425 1_665 S
C1069 C1066 1.409 1_655 S
C1069 C1067 1.415 . S
C1070 H1060 0.930 . S
C1070 C1068 1.419 1_545 S
C1070 C1071 1.362 . S
C1071 H1061 0.930 . S
C1071 C1064 1.409 1_655 S
C1071 C1070 1.362 . S
H1072 C1078 0.930 . S
H1073 C1081 0.930 . S
H1074 C1082 0.930 . S
H1075 C1083 0.930 . S
H1076 C1086 0.930 . S
H1077 C1087 0.930 . S
C1078 H1072 0.930 . S
C1078 C1079 1.355 . S
C1078 C1080 1.415 . S
C1079 C1078 1.355 . S
C1079 C1081 1.419 1_545 S
C1080 C1078 1.415 . S
C1080 C1085 1.425 1_645 S
C1080 C1087 1.409 1_655 S
C1081 H1073 0.930 . S
C1081 C1079 1.419 1_565 S
C1081 C1082 1.362 . S
C1082 H1074 0.930 . S
C1082 C1081 1.362 . S
C1082 C1085 1.409 1_655 S
C1083 H1075 0.930 . S
C1083 C1084 1.355 . S
C1083 C1085 1.415 . S
C1084 C1083 1.355 . S
C1084 C1086 1.419 1_565 S
C1085 C1080 1.425 1_465 S
C1085 C1082 1.409 1_455 S
C1085 C1083 1.415 . S
C1086 H1076 0.930 . S
C1086 C1084 1.419 1_545 S
C1086 C1087 1.362 . S
C1087 H1077 0.930 . S
C1087 C1080 1.409 1_455 S
C1087 C1086 1.362 . S
H1088 C1094 0.930 . S
H1089 C1097 0.930 . S
H1090 C1098 0.930 . S
H1091 C1099 0.930 . S
H1092 C1102 0.930 . S
H1093 C1103 0.930 . S
C1094 H1088 0.930 . S
C1094 C1095 1.355 . S
C1094 C1096 1.415 . S
C1095 C1094 1.355 . S
C1095 C1097 1.419 . S
C1096 C1094 1.415 . S
C1096 C1101 1.425 . S
C1096 C1103 1.409 . S
C1097 H1089 0.930 . S
C1097 C1095 1.419 . S
C1097 C1098 1.362 . S
C1098 H1090 0.930 . S
C1098 C1097 1.362 . S
C1098 C1101 1.409 . S
C1099 H1091 0.930 . S
C1099 C1100 1.355 . S
C1099 C1101 1.415 . S
C1100 C1099 1.355 . S
C1100 C1102 1.419 . S
C1101 C1096 1.425 . S
C1101 C1098 1.409 . S
C1101 C1099 1.415 . S
C1102 H1092 0.930 . S
C1102 C1100 1.419 . S
C1102 C1103 1.362 . S
C1103 H1093 0.930 . S
C1103 C1096 1.409 . S
C1103 C1102 1.362 . S
H1104 C1110 0.930 . S
H1105 C1113 0.930 . S
H1106 C1114 0.930 . S
H1107 C1115 0.930 . S
H1108 C1118 0.930 . S
H1109 C1119 0.930 . S
C1110 H1104 0.930 . S
C1110 C1111 1.355 . S
C1110 C1112 1.415 . S
C1111 C1110 1.355 . S
C1111 C1113 1.419 . S
C1112 C1110 1.415 . S
C1112 C1117 1.425 . S
C1112 C1119 1.409 . S
C1113 H1105 0.930 . S
C1113 C1111 1.419 . S
C1113 C1114 1.362 . S
C1114 H1106 0.930 . S
C1114 C1113 1.362 . S
C1114 C1117 1.409 . S
C1115 H1107 0.930 . S
C1115 C1116 1.355 . S
C1115 C1117 1.415 . S
C1116 C1115 1.355 . S
C1116 C1118 1.419 . S
C1117 C1112 1.425 . S
C1117 C1114 1.409 . S
C1117 C1115 1.415 . S
C1118 H1108 0.930 . S
C1118 C1116 1.419 . S
C1118 C1119 1.362 . S
C1119 H1109 0.930 . S
C1119 C1112 1.409 . S
C1119 C1118 1.362 . S
H1120 C1126 0.930 . S
H1121 C1129 0.930 . S
H1122 C1130 0.930 . S
H1123 C1131 0.930 . S
H1124 C1134 0.930 . S
H1125 C1135 0.930 . S
C1126 H1120 0.930 . S
C1126 C1127 1.355 . S
C1126 C1128 1.415 . S
C1127 C1126 1.355 . S
C1127 C1129 1.419 . S
C1128 C1126 1.415 . S
C1128 C1133 1.425 . S
C1128 C1135 1.409 . S
C1129 H1121 0.930 . S
C1129 C1127 1.419 . S
C1129 C1130 1.362 . S
C1130 H1122 0.930 . S
C1130 C1129 1.362 . S
C1130 C1133 1.409 . S
C1131 H1123 0.930 . S
C1131 C1132 1.355 . S
C1131 C1133 1.415 . S
C1132 C1131 1.355 . S
C1132 C1134 1.419 . S
C1133 C1128 1.425 . S
C1133 C1130 1.409 . S
C1133 C1131 1.415 . S
C1134 H1124 0.930 . S
C1134 C1132 1.419 . S
C1134 C1135 1.362 . S
C1135 H1125 0.930 . S
C1135 C1128 1.409 . S
C1135 C1134 1.362 . S
H1136 C1142 0.930 . S
H1137 C1145 0.930 . S
H1138 C1146 0.930 . S
H1139 C1147 0.930 . S
H1140 C1150 0.930 . S
H1141 C1151 0.930 . S
C1142 H1136 0.930 . S
C1142 C1143 1.355 . S
C1142 C1144 1.415 . S
C1143 C1142 1.355 . S
C1143 C1145 1.419 . S
C1144 C1142 1.415 . S
C1144 C1149 1.425 . S
C1144 C1151 1.409 . S
C1145 H1137 0.930 . S
C1145 C1143 1.419 . S
C1145 C1146 1.362 . S
C1146 H1138 0.930 . S
C1146 C1145 1.362 . S
C1146 C1149 1.409 . S
C1147 H1139 0.930 . S
C1147 C1148 1.355 . S
C1147 C1149 1.415 . S
C1148 C1147 1.355 . S
C1148 C1150 1.419 . S
C1149 C1144 1.425 . S
C1149 C1146 1.409 . S
C1149 C1147 1.415 . S
C1150 H1140 0.930 . S
C1150 C1148 1.419 . S
C1150 C1151 1.362 . S
C1151 H1141 0.930 . S
C1151 C1144 1.409 . S
C1151 C1150 1.362 . S
H1152 C1158 0.930 . S
H1153 C1161 0.930 . S
H1154 C1162 0.930 . S
H1155 C1163 0.930 . S
H1156 C1166 0.930 . S
H1157 C1167 0.930 . S
C1158 H1152 0.930 . S
C1158 C1159 1.355 . S
C1158 C1160 1.415 . S
C1159 C1158 1.355 . S
C1159 C1161 1.419 . S
C1160 C1158 1.415 . S
C1160 C1165 1.425 . S
C1160 C1167 1.409 . S
C1161 H1153 0.930 . S
C1161 C1159 1.419 . S
C1161 C1162 1.362 . S
C1162 H1154 0.930 . S
C1162 C1161 1.362 . S
C1162 C1165 1.409 . S
C1163 H1155 0.930 . S
C1163 C1164 1.355 . S
C1163 C1165 1.415 . S
C1164 C1163 1.355 . S
C1164 C1166 1.419 . S
C1165 C1160 1.425 . S
C1165 C1162 1.409 . S
C1165 C1163 1.415 . S
C1166 H1156 0.930 . S
C1166 C1164 1.419 . S
C1166 C1167 1.362 . S
C1167 H1157 0.930 . S
C1167 C1160 1.409 . S
C1167 C1166 1.362 . S
H1168 C1174 0.930 . S
H1169 C1177 0.930 . S
H1170 C1178 0.930 . S
H1171 C1179 0.930 . S
H1172 C1182 0.930 . S
H1173 C1183 0.930 . S
C1174 H1168 0.930 . S
C1174 C1175 1.355 . S
C1174 C1176 1.415 . S
C1175 C1174 1.355 . S
C1175 C1177 1.419 . S
C1176 C1174 1.415 . S
C1176 C1181 1.425 . S
C1176 C1183 1.409 . S
C1177 H1169 0.930 . S
C1177 C1175 1.419 . S
C1177 C1178 1.362 . S
C1178 H1170 0.930 . S
C1178 C1177 1.362 . S
C1178 C1181 1.409 . S
C1179 H1171 0.930 . S
C1179 C1180 1.355 . S
C1179 C1181 1.415 . S
C1180 C1179 1.355 . S
C1180 C1182 1.419 . S
C1181 C1176 1.425 . S
C1181 C1178 1.409 . S
C1181 C1179 1.415 . S
C1182 H1172 0.930 . S
C1182 C1180 1.419 . S
C1182 C1183 1.362 . S
C1183 H1173 0.930 . S
C1183 C1176 1.409 . S
C1183 C1182 1.362 . S
H1184 C1190 0.930 . S
H1185 C1193 0.930 . S
H1186 C1194 0.930 . S
H1187 C1195 0.930 . S
H1188 C1198 0.930 . S
H1189 C1199 0.930 . S
C1190 H1184 0.930 . S
C1190 C1191 1.355 . S
C1190 C1192 1.415 . S
C1191 C1190 1.355 . S
C1191 C1193 1.419 . S
C1192 C1190 1.415 . S
C1192 C1197 1.425 . S
C1192 C1199 1.409 . S
C1193 H1185 0.930 . S
C1193 C1191 1.419 . S
C1193 C1194 1.362 . S
C1194 H1186 0.930 . S
C1194 C1193 1.362 . S
C1194 C1197 1.409 . S
C1195 H1187 0.930 . S
C1195 C1196 1.355 . S
C1195 C1197 1.415 . S
C1196 C1195 1.355 . S
C1196 C1198 1.419 . S
C1197 C1192 1.425 . S
C1197 C1194 1.409 . S
C1197 C1195 1.415 . S
C1198 H1188 0.930 . S
C1198 C1196 1.419 . S
C1198 C1199 1.362 . S
C1199 H1189 0.930 . S
C1199 C1192 1.409 . S
C1199 C1198 1.362 . S
H1200 C1206 0.930 . S
H1201 C1209 0.930 . S
H1202 C1210 0.930 . S
H1203 C1211 0.930 . S
H1204 C1214 0.930 . S
H1205 C1215 0.930 . S
C1206 H1200 0.930 . S
C1206 C1207 1.355 . S
C1206 C1208 1.415 . S
C1207 C1206 1.355 . S
C1207 C1209 1.419 . S
C1208 C1206 1.415 . S
C1208 C1213 1.425 . S
C1208 C1215 1.409 . S
C1209 H1201 0.930 . S
C1209 C1207 1.419 . S
C1209 C1210 1.362 . S
C1210 H1202 0.930 . S
C1210 C1209 1.362 . S
C1210 C1213 1.409 . S
C1211 H1203 0.930 . S
C1211 C1212 1.355 . S
C1211 C1213 1.415 . S
C1212 C1211 1.355 . S
C1212 C1214 1.419 . S
C1213 C1208 1.425 . S
C1213 C1210 1.409 . S
C1213 C1211 1.415 . S
C1214 H1204 0.930 . S
C1214 C1212 1.419 . S
C1214 C1215 1.362 . S
C1215 H1205 0.930 . S
C1215 C1208 1.409 . S
C1215 C1214 1.362 . S
H1216 C1222 0.930 . S
H1217 C1225 0.930 . S
H1218 C1226 0.930 . S
H1219 C1227 0.930 . S
H1220 C1230 0.930 . S
H1221 C1231 0.930 . S
C1222 H1216 0.930 . S
C1222 C1223 1.355 . S
C1222 C1224 1.415 . S
C1223 C1222 1.355 . S
C1223 C1225 1.419 . S
C1224 C1222 1.415 . S
C1224 C1229 1.425 . S
C1224 C1231 1.409 . S
C1225 H1217 0.930 . S
C1225 C1223 1.419 . S
C1225 C1226 1.362 . S
C1226 H1218 0.930 . S
C1226 C1225 1.362 . S
C1226 C1229 1.409 . S
C1227 H1219 0.930 . S
C1227 C1228 1.355 . S
C1227 C1229 1.415 . S
C1228 C1227 1.355 . S
C1228 C1230 1.419 . S
C1229 C1224 1.425 . S
C1229 C1226 1.409 . S
C1229 C1227 1.415 . S
C1230 H1220 0.930 . S
C1230 C1228 1.419 . S
C1230 C1231 1.362 . S
C1231 H1221 0.930 . S
C1231 C1224 1.409 . S
C1231 C1230 1.362 . S
H1232 C1238 0.930 . S
H1233 C1241 0.930 . S
H1234 C1242 0.930 . S
H1235 C1243 0.930 . S
H1236 C1246 0.930 . S
H1237 C1247 0.930 . S
C1238 H1232 0.930 . S
C1238 C1239 1.355 . S
C1238 C1240 1.415 . S
C1239 C1238 1.355 . S
C1239 C1241 1.419 . S
C1240 C1238 1.415 . S
C1240 C1245 1.425 . S
C1240 C1247 1.409 . S
C1241 H1233 0.930 . S
C1241 C1239 1.419 . S
C1241 C1242 1.362 . S
C1242 H1234 0.930 . S
C1242 C1241 1.362 . S
C1242 C1245 1.409 . S
C1243 H1235 0.930 . S
C1243 C1244 1.355 . S
C1243 C1245 1.415 . S
C1244 C1243 1.355 . S
C1244 C1246 1.419 . S
C1245 C1240 1.425 . S
C1245 C1242 1.409 . S
C1245 C1243 1.415 . S
C1246 H1236 0.930 . S
C1246 C1244 1.419 . S
C1246 C1247 1.362 . S
C1247 H1237 0.930 . S
C1247 C1240 1.409 . S
C1247 C1246 1.362 . S
H1248 C1254 0.930 . S
H1249 C1257 0.930 . S
H1250 C1258 0.930 . S
H1251 C1259 0.930 . S
H1252 C1262 0.930 . S
H1253 C1263 0.930 . S
C1254 H1248 0.930 . S
C1254 C1255 1.355 . S
C1254 C1256 1.415 . S
C1255 C1254 1.355 . S
C1255 C1257 1.419 . S
C1256 C1254 1.415 . S
C1256 C1261 1.425 . S
C1256 C1263 1.409 . S
C1257 H1249 0.930 . S
C1257 C1255 1.419 . S
C1257 C1258 1.362 . S
C1258 H1250 0.930 . S
C1258 C1257 1.362 . S
C1258 C1261 1.409 . S
C1259 H1251 0.930 . S
C1259 C1260 1.355 . S
C1259 C1261 1.415 . S
C1260 C1259 1.355 . S
C1260 C1262 1.419 . S
C1261 C1256 1.425 . S
C1261 C1258 1.409 . S
C1261 C1259 1.415 . S
C1262 H1252 0.930 . S
C1262 C1260 1.419 . S
C1262 C1263 1.362 . S
C1263 H1253 0.930 . S
C1263 C1256 1.409 . S
C1263 C1262 1.362 . S
H1264 C1270 0.930 . S
H1265 C1273 0.930 . S
H1266 C1274 0.930 . S
H1267 C1275 0.930 . S
H1268 C1278 0.930 . S
H1269 C1279 0.930 . S
C1270 H1264 0.930 . S
C1270 C1271 1.355 . S
C1270 C1272 1.415 . S
C1271 C1270 1.355 . S
C1271 C1273 1.419 . S
C1272 C1270 1.415 . S
C1272 C1277 1.425 . S
C1272 C1279 1.409 . S
C1273 H1265 0.930 . S
C1273 C1271 1.419 . S
C1273 C1274 1.362 . S
C1274 H1266 0.930 . S
C1274 C1273 1.362 . S
C1274 C1277 1.409 . S
C1275 H1267 0.930 . S
C1275 C1276 1.355 . S
C1275 C1277 1.415 . S
C1276 C1275 1.355 . S
C1276 C1278 1.419 . S
C1277 C1272 1.425 . S
C1277 C1274 1.409 . S
C1277 C1275 1.415 . S
C1278 H1268 0.930 . S
C1278 C1276 1.419 . S
C1278 C1279 1.362 . S
C1279 H1269 0.930 . S
C1279 C1272 1.409 . S
C1279 C1278 1.362 . S
H1280 C1286 0.930 . S
H1281 C1289 0.916 1_565 S
H1282 C1290 0.930 . S
H1283 C1291 0.930 . S
H1284 C1294 0.930 . S
H1285 C1295 0.930 . S
C1286 H1280 0.930 . S
C1286 C1287 1.355 1_545 S
C1286 C1288 1.415 . S
C1287 C1286 1.355 1_565 S
C1287 C1289 1.417 1_565 S
C1288 C1286 1.415 . S
C1288 C1293 1.425 . S
C1288 C1295 1.409 . S
C1289 H1281 0.916 1_545 S
C1289 C1287 1.417 1_545 S
C1289 C1290 1.378 . S
C1290 H1282 0.930 . S
C1290 C1289 1.378 . S
C1290 C1293 1.409 . S
C1291 H1283 0.930 . S
C1291 C1292 1.355 . S
C1291 C1293 1.415 . S
C1292 C1291 1.355 . S
C1292 C1294 1.419 . S
C1293 C1288 1.425 . S
C1293 C1290 1.409 . S
C1293 C1291 1.415 . S
C1294 H1284 0.930 . S
C1294 C1292 1.419 . S
C1294 C1295 1.362 . S
C1295 H1285 0.930 . S
C1295 C1288 1.409 . S
C1295 C1294 1.362 . S
H1296 C1302 0.930 . S
H1297 C1305 0.930 . S
H1298 C1306 0.930 . S
H1299 C1307 0.931 1_545 S
H1300 C1310 0.930 . S
H1301 C1311 0.930 . S
C1302 H1296 0.930 . S
C1302 C1303 1.355 . S
C1302 C1304 1.415 . S
C1303 C1302 1.355 . S
C1303 C1305 1.419 . S
C1304 C1302 1.415 . S
C1304 C1309 1.425 . S
C1304 C1311 1.409 . S
C1305 H1297 0.930 . S
C1305 C1303 1.419 . S
C1305 C1306 1.362 . S
C1306 H1298 0.930 . S
C1306 C1305 1.362 . S
C1306 C1309 1.409 . S
C1307 H1299 0.931 1_565 S
C1307 C1308 1.355 1_565 S
C1307 C1309 1.415 . S
C1308 C1307 1.355 1_545 S
C1308 C1310 1.419 1_545 S
C1309 C1304 1.425 . S
C1309 C1306 1.409 . S
C1309 C1307 1.415 . S
C1310 H1300 0.930 . S
C1310 C1308 1.419 1_565 S
C1310 C1311 1.362 . S
C1311 H1301 0.930 . S
C1311 C1304 1.409 . S
C1311 C1310 1.362 . S
H1312 C1318 0.930 . S
H1313 C1321 0.936 . S
H1314 C1322 0.930 . S
H1315 C1323 0.930 . S
H1316 C1326 0.930 . S
H1317 C1327 0.930 . S
C1318 H1312 0.930 . S
C1318 C1319 1.355 1_565 S
C1318 C1320 1.415 . S
C1319 C1318 1.355 1_545 S
C1319 C1321 1.420 . S
C1320 C1318 1.415 . S
C1320 C1325 1.425 . S
C1320 C1327 1.409 . S
C1321 H1313 0.936 . S
C1321 C1319 1.420 . S
C1321 C1322 1.356 1_545 S
C1322 H1314 0.930 . S
C1322 C1321 1.356 1_565 S
C1322 C1325 1.409 . S
C1323 H1315 0.930 . S
C1323 C1324 1.355 . S
C1323 C1325 1.415 . S
C1324 C1323 1.355 . S
C1324 C1326 1.419 . S
C1325 C1320 1.425 . S
C1325 C1322 1.409 . S
C1325 C1323 1.415 . S
C1326 H1316 0.930 . S
C1326 C1324 1.419 . S
C1326 C1327 1.362 . S
C1327 H1317 0.930 . S
C1327 C1320 1.409 . S
C1327 C1326 1.362 . S
H1328 C1334 0.935 . S
H1329 C1337 0.930 . S
H1330 C1338 0.930 . S
H1331 C1339 0.930 . S
H1332 C1342 0.930 . S
H1333 C1343 0.930 . S
C1334 H1328 0.935 . S
C1334 C1335 1.355 1_545 S
C1334 C1336 1.415 . S
C1335 C1334 1.355 1_565 S
C1335 C1337 1.419 1_565 S
C1336 C1334 1.415 . S
C1336 C1341 1.425 . S
C1336 C1343 1.409 . S
C1337 H1329 0.930 . S
C1337 C1335 1.419 1_545 S
C1337 C1338 1.362 . S
C1338 H1330 0.930 . S
C1338 C1337 1.362 . S
C1338 C1341 1.409 . S
C1339 H1331 0.930 . S
C1339 C1340 1.355 . S
C1339 C1341 1.415 . S
C1340 C1339 1.355 . S
C1340 C1342 1.419 . S
C1341 C1336 1.425 . S
C1341 C1338 1.409 . S
C1341 C1339 1.415 . S
C1342 H1332 0.930 . S
C1342 C1340 1.419 . S
C1342 C1343 1.362 . S
C1343 H1333 0.930 . S
C1343 C1336 1.409 . S
C1343 C1342 1.362 . S
H1344 C1350 0.930 . S
H1345 C1353 0.930 . S
H1346 C1354 0.930 . S
H1347 C1355 0.928 1_545 S
H1348 C1358 0.930 . S
H1349 C1359 0.930 . S
C1350 H1344 0.930 . S
C1350 C1351 1.355 . S
C1350 C1352 1.415 . S
C1351 C1350 1.355 . S
C1351 C1353 1.419 . S
C1352 C1350 1.415 . S
C1352 C1357 1.425 . S
C1352 C1359 1.409 . S
C1353 H1345 0.930 . S
C1353 C1351 1.419 . S
C1353 C1354 1.362 . S
C1354 H1346 0.930 . S
C1354 C1353 1.362 . S
C1354 C1357 1.409 . S
C1355 H1347 0.928 1_565 S
C1355 C1356 1.355 1_565 S
C1355 C1357 1.415 . S
C1356 C1355 1.355 1_545 S
C1356 C1358 1.419 1_545 S
C1357 C1352 1.425 . S
C1357 C1354 1.409 . S
C1357 C1355 1.415 . S
C1358 H1348 0.930 . S
C1358 C1356 1.419 1_565 S
C1358 C1359 1.362 . S
C1359 H1349 0.930 . S
C1359 C1352 1.409 . S
C1359 C1358 1.362 . S
H1360 C1366 0.930 . S
H1361 C1369 0.930 . S
H1362 C1370 0.930 . S
H1363 C1371 0.931 1_565 S
H1364 C1374 0.930 . S
H1365 C1375 0.930 . S
C1366 H1360 0.930 . S
C1366 C1367 1.355 . S
C1366 C1368 1.415 . S
C1367 C1366 1.355 . S
C1367 C1369 1.419 . S
C1368 C1366 1.415 . S
C1368 C1373 1.425 . S
C1368 C1375 1.409 . S
C1369 H1361 0.930 . S
C1369 C1367 1.419 . S
C1369 C1370 1.362 . S
C1370 H1362 0.930 . S
C1370 C1369 1.362 . S
C1370 C1373 1.409 . S
C1371 H1363 0.931 1_545 S
C1371 C1372 1.355 1_545 S
C1371 C1373 1.415 . S
C1372 C1371 1.355 1_565 S
C1372 C1374 1.419 1_565 S
C1373 C1368 1.425 . S
C1373 C1370 1.409 . S
C1373 C1371 1.415 . S
C1374 H1364 0.930 . S
C1374 C1372 1.419 1_545 S
C1374 C1375 1.362 . S
C1375 H1365 0.930 . S
C1375 C1368 1.409 . S
C1375 C1374 1.362 . S
H1376 C1382 0.930 . S
H1377 C1385 0.930 1_565 S
H1378 C1386 0.930 . S
H1379 C1387 0.930 . S
H1380 C1390 0.930 . S
H1381 C1391 0.930 . S
C1382 H1376 0.930 . S
C1382 C1383 1.355 1_545 S
C1382 C1384 1.415 . S
C1383 C1382 1.355 1_565 S
C1383 C1385 1.419 1_565 S
C1384 C1382 1.415 . S
C1384 C1389 1.425 . S
C1384 C1391 1.409 . S
C1385 H1377 0.930 1_545 S
C1385 C1383 1.419 1_545 S
C1385 C1386 1.362 . S
C1386 H1378 0.930 . S
C1386 C1385 1.362 . S
C1386 C1389 1.409 . S
C1387 H1379 0.930 . S
C1387 C1388 1.355 . S
C1387 C1389 1.415 . S
C1388 C1387 1.355 . S
C1388 C1390 1.419 . S
C1389 C1384 1.425 . S
C1389 C1386 1.409 . S
C1389 C1387 1.415 . S
C1390 H1380 0.930 . S
C1390 C1388 1.419 . S
C1390 C1391 1.362 . S
C1391 H1381 0.930 . S
C1391 C1384 1.409 . S
C1391 C1390 1.362 . S
H1392 C1398 0.930 . S
H1393 C1401 0.930 . S
H1394 C1402 0.930 . S
H1395 C1403 0.930 . S
H1396 C1406 0.930 1_545 S
H1397 C1407 0.930 . S
C1398 H1392 0.930 . S
C1398 C1399 1.355 . S
C1398 C1400 1.415 . S
C1399 C1398 1.355 . S
C1399 C1401 1.419 . S
C1400 C1398 1.415 . S
C1400 C1405 1.425 . S
C1400 C1407 1.409 . S
C1401 H1393 0.930 . S
C1401 C1399 1.419 . S
C1401 C1402 1.362 . S
C1402 H1394 0.930 . S
C1402 C1401 1.362 . S
C1402 C1405 1.409 . S
C1403 H1395 0.930 . S
C1403 C1404 1.355 1_565 S
C1403 C1405 1.415 . S
C1404 C1403 1.355 1_545 S
C1404 C1406 1.419 1_545 S
C1405 C1400 1.425 . S
C1405 C1402 1.409 . S
C1405 C1403 1.415 . S
C1406 H1396 0.930 1_565 S
C1406 C1404 1.419 1_565 S
C1406 C1407 1.362 . S
C1407 H1397 0.930 . S
C1407 C1400 1.409 . S
C1407 C1406 1.362 . S
C647 C11 1.567 . S
C652 C371 1.554 . S
C663 C51 1.565 . S
C668 C331 1.556 . S
C679 C451 1.565 . S
C684 C91 1.556 . S
C695 C131 1.568 . S
C700 C411 1.552 . S
C711 C522 1.563 . S
C716 C162 1.550 . S
C727 C482 1.568 . S
C732 C202 1.553 . S
C743 C602 1.555 . S
C748 C242 1.566 . S
C759 C282 1.564 . S
C764 C562 1.548 . S
C775 C99 1.697 . S
C780 C19 1.715 . S
C791 C139 1.718 . S
C796 C59 1.693 . S
C807 C250 1.694 . S
C812 C170 1.717 . S
C823 C210 1.701 . S
C828 C290 1.708 . S
C839 C419 1.693 . S
C844 C339 1.717 . S
C855 C459 1.717 . S
C860 C379 1.693 . S
C871 C490 1.693 . S
C876 C570 1.718 . S
C887 C530 1.701 . S
C892 C610 1.709 . S
C903 C219 1.486 . S
C908 C10 1.560 . S
C919 C179 1.538 . S
C924 C50 1.509 . S
C935 C90 1.487 . S
C940 C299 1.559 . S
C951 C259 1.508 . S
C956 C130 1.539 . S
C967 C330 1.549 . S
C972 C539 1.498 . S
C983 C499 1.494 . S
C988 C370 1.552 . S
C999 C410 1.487 . S
C1004 C619 1.559 . S
C1015 C579 1.499 . S
C1020 C450 1.547 . S
C1031 C42 1.600 . S
C1036 C2 1.588 . S
C1047 C122 1.594 . S
C1052 C82 1.588 . S
C1063 C211 1.628 . S
C1068 C171 1.648 . S
C1079 C251 1.655 . S
C1084 C291 1.647 . S
C1095 C362 1.611 . S
C1100 C322 1.634 . S
C1111 C442 1.620 . S
C1116 C402 1.598 . S
C1127 C491 1.632 . S
C1132 C531 1.608 . S
C1143 C571 1.595 . S
C1148 C611 1.588 . S
C1159 C7 1.590 . S
C1164 C16 1.590 . S
C1175 C47 1.601 . S
C1180 C56 1.601 . S
C1191 C87 1.592 . S
C1196 C96 1.592 . S
C1207 C136 1.579 . S
C1212 C127 1.579 . S
C1223 C176 1.579 . S
C1228 C167 1.579 . S
C1239 C207 1.586 . S
C1244 C216 1.586 . S
C1255 C256 1.585 . S
C1260 C247 1.585 . S
C1271 C296 1.559 . S
C1276 C287 1.559 . S
C1287 C336 1.564 . S
C1292 C327 1.564 . S
C1303 C367 1.601 . S
C1308 C376 1.601 . S
C1319 C416 1.561 . S
C1324 C407 1.561 . S
C1335 C456 1.603 . S
C1340 C447 1.603 . S
C1351 C496 1.602 . S
C1356 C487 1.602 . S
C1367 C536 1.601 . S
C1372 C527 1.601 . S
C1383 C567 1.569 . S
C1388 C576 1.569 . S
C1399 C616 1.567 . S
C1404 C607 1.567 . S
