# Generated by pormake.
# Topology umw, (4)-cn, num edge types: 1
# Building blocks:
#     Node 0, Type 0, BuildingBlock: CEKHIL_clean_sbu_0, # of connection points: 4
#     Node 1, Type 0, BuildingBlock: CEKHIL_clean_sbu_0, # of connection points: 4
#     Node 2, Type 0, BuildingBlock: CEKHIL_clean_sbu_0, # of connection points: 4
#     Node 3, Type 0, BuildingBlock: CEKHIL_clean_sbu_0, # of connection points: 4
#     Node 4, Type 0, BuildingBlock: CEKHIL_clean_sbu_0, # of connection points: 4
#     Node 5, Type 0, BuildingBlock: CEKHIL_clean_sbu_0, # of connection points: 4
#     Node 6, Type 0, BuildingBlock: CEKHIL_clean_sbu_0, # of connection points: 4
#     Node 7, Type 0, BuildingBlock: CEKHIL_clean_sbu_0, # of connection points: 4
#     Edge 8, Type (0, 0), BuildingBlock: XUDNAN_clean_linker_2, # of connection points: 2
#     Edge 9, Type (0, 0), BuildingBlock: XUDNAN_clean_linker_2, # of connection points: 2
#     Edge 10, Type (0, 0), BuildingBlock: XUDNAN_clean_linker_2, # of connection points: 2
#     Edge 11, Type (0, 0), BuildingBlock: XUDNAN_clean_linker_2, # of connection points: 2
#     Edge 12, Type (0, 0), BuildingBlock: XUDNAN_clean_linker_2, # of connection points: 2
#     Edge 13, Type (0, 0), BuildingBlock: XUDNAN_clean_linker_2, # of connection points: 2
#     Edge 14, Type (0, 0), BuildingBlock: XUDNAN_clean_linker_2, # of connection points: 2
#     Edge 15, Type (0, 0), BuildingBlock: XUDNAN_clean_linker_2, # of connection points: 2
#     Edge 16, Type (0, 0), BuildingBlock: XUDNAN_clean_linker_2, # of connection points: 2
#     Edge 17, Type (0, 0), BuildingBlock: XUDNAN_clean_linker_2, # of connection points: 2
#     Edge 18, Type (0, 0), BuildingBlock: XUDNAN_clean_linker_2, # of connection points: 2
#     Edge 19, Type (0, 0), BuildingBlock: XUDNAN_clean_linker_2, # of connection points: 2
#     Edge 20, Type (0, 0), BuildingBlock: XUDNAN_clean_linker_2, # of connection points: 2
#     Edge 21, Type (0, 0), BuildingBlock: XUDNAN_clean_linker_2, # of connection points: 2
#     Edge 22, Type (0, 0), BuildingBlock: XUDNAN_clean_linker_2, # of connection points: 2
#     Edge 23, Type (0, 0), BuildingBlock: XUDNAN_clean_linker_2, # of connection points: 2
# Relax obj value: 0.134
# Max RMSD: 0.105
# Mean RMSD: 0.105
data_MOF--net-umw--node1-CEKHIL_clean_sbu_0--edge1-XUDNAN_clean_linker_2
_symmetry_space_group_name_H-M    P1
_symmetry_Int_Tables_number       1
_symmetry_cell_setting            triclinic
loop_
_symmetry_equiv_pos_as_xyz
'x, y, z'
_cell_length_a     40.554703
_cell_length_b     40.71961
_cell_length_c     25.630421
_cell_angle_alpha  90.030601
_cell_angle_beta   89.955458
_cell_angle_gamma 89.777664
loop_
_atom_site_label
_atom_site_type_symbol
_atom_site_fract_x
_atom_site_fract_y
_atom_site_fract_z
_atom_type_partial_charge
Co0 Co 0.42643 0.20112 0.29795 0.0
O1 O 0.41948 0.24766 0.30535 0.0
O2 O 0.38181 0.2103 0.32306 0.0
C3 C 0.45401 0.20458 0.22071 0.0
O4 O 0.42478 0.15066 0.29526 0.0
Co5 Co 0.49877 0.17336 0.29246 0.0
O6 O 0.47652 0.13029 0.28924 0.0
C7 C 0.47299 0.20709 0.38524 0.0
C8 C 0.39049 0.24107 0.32398 0.0
C9 C 0.44539 0.12643 0.2927 0.0
O10 O 0.44326 0.20031 0.37169 0.0
O11 O 0.49792 0.20229 0.35555 0.0
O12 O 0.42182 0.20408 0.22036 0.0
O13 O 0.46697 0.20429 0.26604 0.0
Co14 Co 0.81603 0.42347 0.54951 0.0
O15 O 0.76934 0.4181 0.55998 0.0
O16 O 0.80592 0.37813 0.56807 0.0
C17 C 0.8121 0.45543 0.47704 0.0
O18 O 0.86636 0.41959 0.54205 0.0
Co19 Co 0.84712 0.49414 0.5521 0.0
O20 O 0.88884 0.47024 0.53976 0.0
C21 C 0.81929 0.46373 0.6464 0.0
C22 C 0.77544 0.38784 0.57284 0.0
C23 C 0.89138 0.43903 0.53916 0.0
O24 O 0.82046 0.43507 0.62534 0.0
O25 O 0.82487 0.49026 0.62121 0.0
O26 O 0.81044 0.42356 0.47231 0.0
O27 O 0.81376 0.46586 0.52395 0.0
Co28 Co 0.60202 0.81255 0.78256 0.0
O29 O 0.60809 0.76587 0.79133 0.0
O30 O 0.64493 0.8031 0.81359 0.0
C31 C 0.58062 0.81054 0.70105 0.0
O32 O 0.60471 0.86285 0.77949 0.0
Co33 Co 0.53073 0.84094 0.76775 0.0
O34 O 0.55393 0.88352 0.76406 0.0
C35 C 0.55179 0.81596 0.87005 0.0
C36 C 0.6364 0.77232 0.81257 0.0
C37 C 0.58468 0.88716 0.77252 0.0
O38 O 0.58181 0.81476 0.854 0.0
O39 O 0.52738 0.8229 0.84034 0.0
O40 O 0.61243 0.8091 0.70765 0.0
O41 O 0.56338 0.81003 0.74309 0.0
Co42 Co 0.2033 0.59788 0.03694 0.0
O43 O 0.25028 0.60551 0.04002 0.0
O44 O 0.2126 0.63903 0.07259 0.0
C45 C 0.20169 0.58105 0.9527 0.0
O46 O 0.15284 0.59948 0.04142 0.0
Co47 Co 0.17314 0.52898 0.0132 0.0
O48 O 0.13078 0.5533 0.00868 0.0
C49 C 0.20626 0.54203 0.11365 0.0
C50 C 0.24366 0.63219 0.06598 0.0
C51 C 0.12782 0.58222 0.02715 0.0
O52 O 0.20638 0.5731 0.10441 0.0
O53 O 0.19646 0.5205 0.08077 0.0
O54 O 0.20164 0.61234 0.96358 0.0
O55 O 0.20471 0.5618 0.99206 0.0
Co56 Co 0.42431 0.81518 0.30794 0.0
O57 O 0.418 0.7692 0.29328 0.0
O58 O 0.38305 0.80824 0.27016 0.0
C59 C 0.44119 0.80778 0.39147 0.0
O60 O 0.42234 0.8654 0.3163 0.0
Co61 Co 0.4938 0.84167 0.33968 0.0
O62 O 0.46994 0.88352 0.35082 0.0
C63 C 0.48095 0.81674 0.23352 0.0
C64 C 0.39103 0.77724 0.2692 0.0
C65 C 0.44067 0.88863 0.33448 0.0
O66 O 0.44957 0.81925 0.24048 0.0
O67 O 0.50205 0.82106 0.26998 0.0
O68 O 0.40974 0.80891 0.38124 0.0
O69 O 0.46028 0.80929 0.35179 0.0
Co70 Co 0.20386 0.42145 0.55318 0.0
O71 O 0.25101 0.41523 0.55049 0.0
O72 O 0.21457 0.37664 0.53261 0.0
C73 C 0.20219 0.4511 0.6287 0.0
O74 O 0.1534 0.4181 0.55188 0.0
Co75 Co 0.17264 0.49187 0.54998 0.0
O76 O 0.13112 0.46824 0.56477 0.0
C77 C 0.21079 0.46524 0.46216 0.0
C78 C 0.24531 0.38564 0.53377 0.0
C79 C 0.12843 0.43722 0.55961 0.0
O80 O 0.20538 0.43579 0.47802 0.0
O81 O 0.20306 0.49077 0.48861 0.0
O82 O 0.20374 0.4191 0.63099 0.0
O83 O 0.2042 0.46298 0.58263 0.0
Co84 Co 0.60367 0.19769 0.81538 0.0
O85 O 0.60994 0.24432 0.80746 0.0
O86 O 0.64479 0.20671 0.77849 0.0
C87 C 0.58687 0.19903 0.89952 0.0
O88 O 0.60577 0.14726 0.8166 0.0
Co89 Co 0.53351 0.16979 0.84041 0.0
O90 O 0.55789 0.12795 0.84854 0.0
C91 C 0.54807 0.19823 0.73763 0.0
C92 C 0.63673 0.23762 0.78172 0.0
C93 C 0.58728 0.12344 0.8322 0.0
O94 O 0.57912 0.19748 0.74759 0.0
O95 O 0.52576 0.19071 0.77083 0.0
O96 O 0.61828 0.1996 0.88862 0.0
O97 O 0.5675 0.20039 0.86 0.0
Co98 Co 0.81829 0.59795 0.06935 0.0
O99 O 0.77192 0.60296 0.05363 0.0
O100 O 0.81087 0.6365 0.02593 0.0
C101 C 0.81133 0.58576 0.15472 0.0
O102 O 0.8685 0.60166 0.07675 0.0
Co103 Co 0.84867 0.53253 0.11325 0.0
O104 O 0.89041 0.5574 0.11677 0.0
C105 C 0.82298 0.53684 0.00554 0.0
C106 C 0.77985 0.62857 0.02616 0.0
C107 C 0.8931 0.58572 0.09624 0.0
O108 O 0.8231 0.56852 0.00678 0.0
O109 O 0.82878 0.51886 0.04545 0.0
O110 O 0.81164 0.61646 0.14017 0.0
O111 O 0.81383 0.56472 0.11791 0.0
H112 H 0.4449 0.18828 0.47737 0.0
H113 H 0.51836 0.25265 0.40995 0.0
H114 H 0.54055 0.26412 0.49731 0.0
H115 H 0.43619 0.23494 0.60791 0.0
H116 H 0.43203 0.19675 0.64278 0.0
H117 H 0.41624 0.20047 0.57728 0.0
H118 H 0.45091 0.14975 0.55 0.0
H119 H 0.46744 0.14628 0.61474 0.0
H120 H 0.49494 0.15012 0.55981 0.0
H121 H 0.56298 0.25805 0.5851 0.0
H122 H 0.58041 0.24007 0.67273 0.0
H123 H 0.49226 0.18047 0.68562 0.0
C124 C 0.46454 0.20602 0.48159 0.0
C125 C 0.47996 0.21972 0.4375 0.0
C126 C 0.50634 0.242 0.44368 0.0
C127 C 0.519 0.24876 0.49306 0.0
C128 C 0.50475 0.23326 0.53573 0.0
C129 C 0.47764 0.21289 0.53087 0.0
C130 C 0.46995 0.19598 0.582 0.0
C131 C 0.43662 0.20775 0.60379 0.0
C132 C 0.47089 0.15832 0.57625 0.0
C133 C 0.49825 0.2083 0.61498 0.0
C134 C 0.51773 0.23014 0.58773 0.0
C135 C 0.54741 0.24183 0.6076 0.0
C136 C 0.55732 0.23116 0.657 0.0
C137 C 0.5375 0.20912 0.68575 0.0
C138 C 0.50747 0.19787 0.66469 0.0
H139 H 0.80942 0.52049 0.69993 0.0
H140 H 0.81462 0.41461 0.71988 0.0
H141 H 0.80939 0.42197 0.81533 0.0
H142 H 0.85967 0.54016 0.80167 0.0
H143 H 0.83763 0.57673 0.82097 0.0
H144 H 0.83598 0.56299 0.7544 0.0
H145 H 0.77211 0.56139 0.75861 0.0
H146 H 0.7735 0.57547 0.82525 0.0
H147 H 0.75214 0.53806 0.80927 0.0
H148 H 0.81077 0.4413 0.90756 0.0
H149 H 0.81823 0.47054 0.99046 0.0
H150 H 0.81315 0.56399 0.90883 0.0
C151 C 0.80884 0.49867 0.72406 0.0
C152 C 0.81257 0.46695 0.70255 0.0
C153 C 0.81175 0.43914 0.73561 0.0
C154 C 0.80868 0.44309 0.78974 0.0
C155 C 0.80612 0.4749 0.80961 0.0
C156 C 0.80591 0.50217 0.7777 0.0
C157 C 0.80609 0.53378 0.80856 0.0
C158 C 0.83666 0.55461 0.79563 0.0
C159 C 0.77405 0.55332 0.79991 0.0
C160 C 0.80778 0.52008 0.86308 0.0
C161 C 0.80723 0.48611 0.86289 0.0
C162 C 0.81071 0.46788 0.90831 0.0
C163 C 0.81514 0.48481 0.95516 0.0
C164 C 0.81636 0.51967 0.9561 0.0
C165 C 0.81212 0.53742 0.90946 0.0
H166 H 0.45255 0.82852 0.13775 0.0
H167 H 0.53954 0.78736 0.21217 0.0
H168 H 0.56504 0.77852 0.12628 0.0
H169 H 0.45449 0.77488 0.02004 0.0
H170 H 0.4416 0.80776 0.97757 0.0
H171 H 0.42816 0.80714 0.04462 0.0
H172 H 0.45198 0.86553 0.0579 0.0
H173 H 0.4657 0.86624 0.99115 0.0
H174 H 0.49477 0.87303 0.04317 0.0
H175 H 0.58367 0.77932 0.03477 0.0
H176 H 0.59381 0.78842 0.94114 0.0
H177 H 0.49511 0.82916 0.92488 0.0
C178 C 0.47661 0.81696 0.13576 0.0
C179 C 0.4941 0.80868 0.18149 0.0
C180 C 0.5258 0.79411 0.17755 0.0
C181 C 0.54045 0.7888 0.12897 0.0
C182 C 0.52306 0.79809 0.08467 0.0
C183 C 0.49178 0.81166 0.08738 0.0
C184 C 0.47965 0.82167 0.03382 0.0
C185 C 0.44917 0.80166 0.01809 0.0
C186 C 0.47263 0.85882 0.0314 0.0
C187 C 0.50938 0.81241 0.00109 0.0
C188 C 0.53397 0.79857 0.03121 0.0
C189 C 0.56447 0.7897 0.01049 0.0
C190 C 0.57005 0.79517 0.95735 0.0
C191 C 0.54523 0.80943 0.92567 0.0
C192 C 0.51443 0.81786 0.94792 0.0
H193 H 0.19474 0.4364 0.36949 0.0
H194 H 0.25825 0.50909 0.44036 0.0
H195 H 0.27233 0.53077 0.35364 0.0
H196 H 0.24467 0.42811 0.23988 0.0
H197 H 0.20683 0.42411 0.20363 0.0
H198 H 0.20978 0.40773 0.26884 0.0
H199 H 0.15825 0.44162 0.29518 0.0
H200 H 0.15554 0.45876 0.23085 0.0
H201 H 0.15848 0.48559 0.28661 0.0
H202 H 0.2674 0.55386 0.26615 0.0
H203 H 0.24911 0.57286 0.17945 0.0
H204 H 0.18948 0.48518 0.16291 0.0
C205 C 0.21299 0.45563 0.36617 0.0
C206 C 0.22563 0.47107 0.41097 0.0
C207 C 0.2485 0.49701 0.40602 0.0
C208 C 0.25673 0.50937 0.357 0.0
C209 C 0.24206 0.49529 0.31343 0.0
C210 C 0.22127 0.46845 0.31721 0.0
C211 C 0.205 0.46123 0.26534 0.0
C212 C 0.21732 0.42834 0.24311 0.0
C213 C 0.1671 0.46187 0.26982 0.0
C214 C 0.21767 0.4898 0.23345 0.0
C215 C 0.23956 0.50873 0.26157 0.0
C216 C 0.25121 0.53868 0.24292 0.0
C217 C 0.24036 0.54949 0.19403 0.0
C218 C 0.2181 0.53034 0.16456 0.0
C219 C 0.20707 0.49994 0.18426 0.0
H220 H 0.32643 0.23864 0.36436 0.0
H221 H 0.41204 0.30182 0.35004 0.0
H222 H 0.38525 0.34295 0.40588 0.0
H223 H 0.26598 0.30598 0.36001 0.0
H224 H 0.23842 0.28709 0.40622 0.0
H225 H 0.26426 0.26187 0.36522 0.0
H226 H 0.28808 0.23338 0.44729 0.0
H227 H 0.26261 0.25883 0.48855 0.0
H228 H 0.30666 0.25793 0.49782 0.0
H229 H 0.35163 0.37617 0.46668 0.0
H230 H 0.30896 0.40406 0.51863 0.0
H231 H 0.24214 0.32274 0.49122 0.0
C232 C 0.33931 0.2613 0.37254 0.0
C233 C 0.37148 0.26683 0.35257 0.0
C234 C 0.38743 0.29687 0.36437 0.0
C235 C 0.3725 0.32041 0.39651 0.0
C236 C 0.34125 0.31403 0.41633 0.0
C237 C 0.3244 0.28562 0.40409 0.0
C238 C 0.29038 0.28593 0.42942 0.0
C239 C 0.26315 0.28518 0.38773 0.0
C240 C 0.28673 0.25731 0.46806 0.0
C241 C 0.29102 0.31883 0.45779 0.0
C242 C 0.32092 0.33422 0.45016 0.0
C243 C 0.32799 0.36451 0.47264 0.0
C244 C 0.30356 0.38011 0.50244 0.0
C245 C 0.27207 0.36575 0.5092 0.0
C246 C 0.26597 0.33436 0.48707 0.0
H247 H 0.77866 0.32265 0.60634 0.0
H248 H 0.71393 0.40782 0.60038 0.0
H249 H 0.67302 0.37868 0.6534 0.0
H250 H 0.71139 0.26154 0.59817 0.0
H251 H 0.73137 0.23305 0.64181 0.0
H252 H 0.75576 0.26005 0.60177 0.0
H253 H 0.78514 0.28185 0.68434 0.0
H254 H 0.7606 0.25519 0.72468 0.0
H255 H 0.76091 0.29878 0.73696 0.0
H256 H 0.64089 0.34317 0.71227 0.0
H257 H 0.61541 0.29997 0.76538 0.0
H258 H 0.69776 0.23486 0.73132 0.0
C259 C 0.75564 0.33491 0.61552 0.0
C260 C 0.74964 0.36767 0.59895 0.0
C261 C 0.71923 0.38281 0.61215 0.0
C262 C 0.69578 0.36649 0.6426 0.0
C263 C 0.70267 0.33469 0.65923 0.0
C264 C 0.73148 0.31866 0.64549 0.0
C265 C 0.73209 0.28414 0.6685 0.0
C266 C 0.73268 0.25816 0.62496 0.0
C267 C 0.76143 0.27975 0.70584 0.0
C268 C 0.69944 0.2837 0.69795 0.0
C269 C 0.68317 0.31334 0.69218 0.0
C270 C 0.65318 0.3197 0.71665 0.0
C271 C 0.63898 0.29496 0.7471 0.0
C272 C 0.65445 0.26389 0.75269 0.0
C273 C 0.68526 0.25829 0.72781 0.0
H274 H 0.78166 0.69211 0.98678 0.0
H275 H 0.72186 0.60398 0.99104 0.0
H276 H 0.6809 0.63047 0.93377 0.0
H277 H 0.7124 0.74885 0.99184 0.0
H278 H 0.73103 0.77863 0.9491 0.0
H279 H 0.75666 0.75249 0.98885 0.0
H280 H 0.78768 0.73266 0.90626 0.0
H281 H 0.76201 0.75862 0.86623 0.0
H282 H 0.7647 0.71522 0.85288 0.0
H283 H 0.64695 0.66528 0.87498 0.0
H284 H 0.61868 0.70847 0.82491 0.0
H285 H 0.69768 0.77647 0.86116 0.0
C286 C 0.75993 0.67846 0.97556 0.0
C287 C 0.75501 0.64587 0.99338 0.0
C288 C 0.72612 0.62895 0.97822 0.0
C289 C 0.70276 0.64374 0.94539 0.0
C290 C 0.70829 0.67574 0.9284 0.0
C291 C 0.73586 0.69318 0.94343 0.0
C292 C 0.73473 0.72787 0.92129 0.0
C293 C 0.73363 0.75347 0.9654 0.0
C294 C 0.76402 0.73394 0.88447 0.0
C295 C 0.70232 0.72703 0.89137 0.0
C296 C 0.68782 0.6965 0.89568 0.0
C297 C 0.65798 0.68933 0.87149 0.0
C298 C 0.64214 0.7141 0.8429 0.0
C299 C 0.65583 0.74598 0.83891 0.0
C300 C 0.68657 0.75237 0.86326 0.0
H301 H 0.23916 0.69255 0.11644 0.0
H302 H 0.30855 0.61569 0.07329 0.0
H303 H 0.3526 0.64461 0.12038 0.0
H304 H 0.29791 0.76054 0.10366 0.0
H305 H 0.28145 0.78295 0.15854 0.0
H306 H 0.25498 0.75664 0.12078 0.0
H307 H 0.23879 0.72525 0.20469 0.0
H308 H 0.26536 0.75134 0.24266 0.0
H309 H 0.27064 0.70739 0.24482 0.0
H310 H 0.38829 0.679 0.17639 0.0
H311 H 0.41567 0.7202 0.2313 0.0
H312 H 0.32554 0.77803 0.23559 0.0
C313 C 0.26372 0.68202 0.1165 0.0
C314 C 0.27032 0.65174 0.09098 0.0
C315 C 0.30279 0.63882 0.09216 0.0
C316 C 0.32803 0.65503 0.11905 0.0
C317 C 0.32069 0.68447 0.14427 0.0
C318 C 0.28952 0.69822 0.14273 0.0
C319 C 0.28871 0.73044 0.17303 0.0
C320 C 0.28027 0.75936 0.13683 0.0
C321 C 0.26443 0.72847 0.21903 0.0
C322 C 0.32421 0.73236 0.19212 0.0
C323 C 0.34196 0.70529 0.17534 0.0
C324 C 0.37476 0.70047 0.18934 0.0
C325 C 0.39006 0.724 0.22087 0.0
C326 C 0.37287 0.75244 0.23778 0.0
C327 C 0.33941 0.75668 0.22301 0.0
H328 H 0.47119 0.94191 0.37656 0.0
H329 H 0.38566 0.91478 0.28481 0.0
H330 H 0.37334 0.97383 0.27019 0.0
H331 H 0.4375 0.01787 0.43439 0.0
H332 H 0.47682 0.03812 0.42956 0.0
H333 H 0.47511 0.99432 0.43904 0.0
H334 H 0.51125 0.98582 0.35654 0.0
H335 H 0.51282 0.02945 0.3465 0.0
H336 H 0.49793 1.00306 0.29526 0.0
H337 H 0.37418 0.03773 0.25953 0.0
H338 H 0.38915 0.0969 0.25264 0.0
H339 H 0.47562 0.07866 0.34756 0.0
C340 C 0.44937 0.94814 0.35427 0.0
C341 C 0.42937 0.92349 0.332 0.0
C342 C 0.40124 0.93311 0.30278 0.0
C343 C 0.39411 0.96665 0.29417 0.0
C344 C 0.41523 0.99026 0.31524 0.0
C345 C 0.44218 0.98116 0.345 0.0
C346 C 0.463 0.01038 0.35975 0.0
C347 C 0.46309 0.01547 0.41921 0.0
C348 C 0.49832 1.00696 0.3382 0.0
C349 C 0.44426 0.03745 0.3325 0.0
C350 C 0.41637 0.02584 0.30774 0.0
C351 C 0.3959 0.04694 0.27911 0.0
C352 C 0.40451 0.08047 0.27538 0.0
C353 C 0.4337 0.09221 0.29911 0.0
C354 C 0.45333 0.07034 0.32849 0.0
H355 H 0.93864 0.45984 0.60389 0.0
H356 H 0.92055 0.38917 0.4811 0.0
H357 H 0.98021 0.37415 0.48118 0.0
H358 H 1.01006 0.49091 0.55748 0.0
H359 H 0.02969 0.49619 0.62 0.0
H360 H 0.98554 0.4966 0.61554 0.0
H361 H 0.98218 0.44951 0.68346 0.0
H362 H 0.02653 0.449 0.68827 0.0
H363 H 1.00467 0.4119 0.67222 0.0
H364 H 0.04413 0.37323 0.4881 0.0
H365 H 0.10332 0.38706 0.49941 0.0
H366 H 0.07691 0.45838 0.61782 0.0
C367 C 0.94712 0.44067 0.57774 0.0
C368 C 0.92525 0.42569 0.54239 0.0
C369 C 0.93704 0.40071 0.50875 0.0
C370 C 0.97082 0.3921 0.50865 0.0
C371 C 0.99204 0.40821 0.54325 0.0
C372 C 0.9803 0.43167 0.57767 0.0
C373 C 1.00777 0.44755 0.60823 0.0
C374 C 1.00829 0.485 0.59974 0.0
C375 C 1.00513 0.43897 0.6665 0.0
C376 C 0.03725 0.43097 0.58363 0.0
C377 C 0.02796 0.40772 0.54711 0.0
C378 C 0.0515 0.39096 0.51726 0.0
C379 C 0.08507 0.39886 0.52404 0.0
C380 C 0.09458 0.42373 0.5596 0.0
C381 C 0.07033 0.43916 0.59055 0.0
H382 H 0.55257 0.93328 0.82767 0.0
H383 H 0.64195 0.91774 0.73831 0.0
H384 H 0.65638 0.97677 0.75012 0.0
H385 H 0.53154 0.00966 0.77886 0.0
H386 H 0.51618 0.0254 0.84001 0.0
H387 H 0.5153 0.98201 0.82734 0.0
H388 H 0.54874 0.97126 0.91195 0.0
H389 H 0.54975 0.01474 0.92488 0.0
H390 H 0.58768 0.99162 0.92135 0.0
H391 H 0.65655 0.04044 0.76523 0.0
H392 H 0.64361 0.09898 0.78365 0.0
H393 H 0.55566 0.06886 0.86715 0.0
C394 C 0.57537 0.94219 0.81086 0.0
C395 C 0.59599 0.9212 0.78158 0.0
C396 C 0.62583 0.93357 0.76086 0.0
C397 C 0.63413 0.967 0.76742 0.0
C398 C 0.61271 0.98728 0.79589 0.0
C399 C 0.58419 0.97493 0.81788 0.0
C400 C 0.56449 1.00119 0.8455 0.0
C401 C 0.52985 1.00477 0.82147 0.0
C402 C 0.56257 0.99429 0.90441 0.0
C403 C 0.58558 0.03078 0.83427 0.0
C404 C 0.61343 0.02261 0.80589 0.0
C405 C 0.63506 0.04686 0.78818 0.0
C406 C 0.62756 0.08009 0.79893 0.0
C407 C 0.59862 0.08873 0.827 0.0
C408 C 0.57809 0.06341 0.84582 0.0
H409 H 0.93353 0.56616 0.01922 0.0
H410 H 0.92879 0.62986 0.15415 0.0
H411 H 0.98851 0.64221 0.1442 0.0
H412 H 1.00714 0.5296 0.04802 0.0
H413 H 0.02202 0.52672 0.98187 0.0
H414 H 0.97844 0.52781 0.99438 0.0
H415 H 0.97214 0.57821 0.9334 0.0
H416 H 0.01583 0.57717 0.92037 0.0
H417 H 0.99684 0.61421 0.94476 0.0
H418 H 0.05042 0.64219 0.12422 0.0
H419 H 0.10781 0.62833 0.09917 0.0
H420 H 0.07097 0.56343 0.97853 0.0
C421 C 0.94496 0.58353 0.04557 0.0
C422 C 0.92678 0.59765 0.08676 0.0
C423 C 0.94241 0.61945 0.12171 0.0
C424 C 0.97623 0.62652 0.11628 0.0
C425 C 0.99379 0.61164 0.07558 0.0
C426 C 0.97849 0.59076 0.04063 0.0
C427 C 1.00303 0.5754 0.00332 0.0
C428 C 1.00263 0.53766 0.00718 0.0
C429 C 0.99657 0.58694 0.94713 0.0
C430 C 0.03485 0.58951 0.02415 0.0
C431 C 0.0291 0.611 0.065 0.0
C432 C 0.05508 0.62576 0.09182 0.0
C433 C 0.08763 0.6178 0.07723 0.0
C434 C 0.09392 0.5948 0.03684 0.0
C435 C 0.06703 0.58115 0.00946 0.0
H436 H 0.52518 0.17994 0.93006 0.0
H437 H 0.61744 0.21869 0.98919 0.0
H438 H 0.59195 0.22531 0.07632 0.0
H439 H 0.4708 0.23153 1e-05 0.0
H440 H 0.44058 0.20034 0.01373 0.0
H441 H 0.46608 0.19713 0.95637 0.0
H442 H 0.48616 0.13952 0.9853 0.0
H443 H 0.46026 0.14228 0.04232 0.0
H444 H 0.50378 0.13431 0.04933 0.0
H445 H 0.5562 0.23147 0.15348 0.0
H446 H 0.51453 0.23052 0.22236 0.0
H447 H 0.44436 0.1856 0.11623 0.0
C448 C 0.54014 0.18946 0.96152 0.0
C449 C 0.57333 0.19892 0.95301 0.0
C450 C 0.59213 0.21111 -0.00494 0.0
C451 C 0.57777 0.21514 0.04447 0.0
C452 C 0.54478 0.20637 0.05115 0.0
C453 C 0.52633 0.19316 0.01127 0.0
C454 C 0.49149 0.18529 0.02943 0.0
C455 C 0.46572 0.20474 -0.002 0.0
C456 C 0.48505 0.14814 0.02642 0.0
C457 C 0.49299 0.19696 0.08564 0.0
C458 C 0.52406 0.20908 0.09682 0.0
C459 C 0.53196 0.22165 0.14543 0.0
C460 C 0.50794 0.22097 0.18431 0.0
C461 C 0.47616 0.20768 0.17495 0.0
C462 C 0.46832 0.19601 0.1245 0.0
H463 H 0.80276 0.52287 0.18504 0.0
H464 H 0.81805 0.62093 0.24688 0.0
H465 H 0.81956 0.59758 0.33652 0.0
H466 H 0.75061 0.49299 0.28862 0.0
H467 H 0.76791 0.45217 0.28619 0.0
H468 H 0.76675 0.47704 0.22811 0.0
H469 H 0.82986 0.4696 0.21717 0.0
H470 H 0.83131 0.44494 0.27542 0.0
H471 H 0.85692 0.48086 0.26996 0.0
H472 H 0.82069 0.563 0.41781 0.0
H473 H 0.82029 0.52119 0.48625 0.0
H474 H 0.80547 0.44486 0.37017 0.0
C475 C 0.80634 0.53966 0.21731 0.0
C476 C 0.81043 0.57381 0.2091 0.0
C477 C 0.8148 0.59478 0.25242 0.0
C478 C 0.81576 0.58167 0.30325 0.0
C479 C 0.81219 0.54772 0.30957 0.0
C480 C 0.8074 0.52707 0.26773 0.0
C481 C 0.80463 0.49146 0.28449 0.0
C482 C 0.77044 0.47761 0.27106 0.0
C483 C 0.83234 0.47049 0.26033 0.0
C484 C 0.80902 0.49504 0.34276 0.0
C485 C 0.81319 0.52773 0.35625 0.0
C486 C 0.8175 0.53741 0.40763 0.0
C487 C 0.81735 0.51323 0.44626 0.0
C488 C 0.81313 0.47948 0.43368 0.0
C489 C 0.80899 0.47031 0.38103 0.0
H490 H 0.53238 0.84963 0.65919 0.0
H491 H 0.59111 0.76238 0.63008 0.0
H492 H 0.55653 0.74953 0.55323 0.0
H493 H 0.45417 0.81953 0.62112 0.0
H494 H 0.44097 0.85619 0.58758 0.0
H495 H 0.47001 0.859 0.64055 0.0
H496 H 0.51181 0.8889 0.58091 0.0
H497 H 0.48248 0.88708 0.52825 0.0
H498 H 0.52341 0.87057 0.51951 0.0
H499 H 0.51383 0.74406 0.48436 0.0
H500 H 0.47382 0.75256 0.41329 0.0
H501 H 0.44486 0.84594 0.48066 0.0
C502 C 0.5382 0.82818 0.63587 0.0
C503 C 0.56439 0.80695 0.65005 0.0
C504 C 0.57144 0.77908 0.61915 0.0
C505 C 0.55167 0.77142 0.57597 0.0
C506 C 0.52543 0.79229 0.56376 0.0
C507 C 0.51934 0.82074 0.59155 0.0
C508 C 0.49094 0.84004 0.56765 0.0
C509 C 0.46233 0.8439 0.60657 0.0
C510 C 0.50287 0.87363 0.5479 0.0
C511 C 0.48158 0.81761 0.52268 0.0
C512 C 0.50151 0.78993 0.52205 0.0
C513 C 0.49816 0.76563 0.48433 0.0
C514 C 0.4751 0.77048 0.44451 0.0
C515 C 0.45578 0.79944 0.44233 0.0
C516 C 0.45849 0.82305 0.48254 0.0
H517 H 0.20574 0.5165 0.92428 0.0
H518 H 0.18902 0.6141 0.86125 0.0
H519 H 0.18379 0.5901 0.77282 0.0
H520 H 0.25545 0.48692 0.82065 0.0
H521 H 0.23926 0.44577 0.82213 0.0
H522 H 0.23949 0.47023 0.88067 0.0
H523 H 0.17655 0.46179 0.89083 0.0
H524 H 0.1761 0.43728 0.83226 0.0
H525 H 0.14945 0.47265 0.83781 0.0
H526 H 0.18319 0.55637 0.69227 0.0
H527 H 0.18828 0.51603 0.62248 0.0
H528 H 0.20531 0.43869 0.73622 0.0
C529 C 0.20065 0.53288 0.89197 0.0
C530 C 0.19764 0.56728 0.89961 0.0
C531 C 0.19135 0.58778 0.85628 0.0
C532 C 0.18826 0.57431 0.80604 0.0
C533 C 0.19153 0.54034 0.79997 0.0
C534 C 0.19761 0.51986 0.84167 0.0
C535 C 0.20148 0.48435 0.8241 0.0
C536 C 0.23597 0.47105 0.83769 0.0
C537 C 0.17427 0.46274 0.84765 0.0
C538 C 0.19716 0.48807 0.7656 0.0
C539 C 0.19118 0.52062 0.75298 0.0
C540 C 0.18753 0.53082 0.70174 0.0
C541 C 0.19044 0.50741 0.6622 0.0
C542 C 0.1969 0.47382 0.67349 0.0
C543 C 0.19995 0.46398 0.72621 0.0
loop_
_geom_bond_atom_site_label_1
_geom_bond_atom_site_label_2
_geom_bond_distance
_geom_bond_site_symmetry_2
_ccdc_geom_bond_type
Co0 O1 2.216 . S
Co0 O2 2.091 . S
Co0 O4 2.004 . S
Co0 O10 2.021 . S
Co0 O12 2.137 . S
Co0 O13 2.244 . S
O1 Co0 2.216 . S
O1 C8 1.247 . S
O2 Co0 2.091 . S
O2 C8 1.261 . S
C3 O12 1.247 . S
C3 O13 1.272 . S
O4 Co0 2.004 . S
O4 C9 1.259 . S
Co5 O6 2.061 . S
Co5 O11 2.052 . S
Co5 O13 2.135 . S
O6 Co5 2.061 . S
O6 C9 1.235 . S
C7 O10 1.238 . S
C7 O11 1.241 . S
C8 O1 1.247 . S
C8 O2 1.261 . S
C9 O4 1.259 . S
C9 O6 1.235 . S
O10 Co0 2.021 . S
O10 C7 1.238 . S
O11 Co5 2.052 . S
O11 C7 1.241 . S
O12 Co0 2.137 . S
O12 C3 1.247 . S
O13 Co0 2.244 . S
O13 C3 1.272 . S
O13 Co5 2.135 . S
Co14 O15 2.216 . S
Co14 O16 2.091 . S
Co14 O18 2.004 . S
Co14 O24 2.021 . S
Co14 O26 2.137 . S
Co14 O27 2.244 . S
O15 Co14 2.216 . S
O15 C22 1.247 . S
O16 Co14 2.091 . S
O16 C22 1.261 . S
C17 O26 1.247 . S
C17 O27 1.272 . S
O18 Co14 2.004 . S
O18 C23 1.259 . S
Co19 O20 2.061 . S
Co19 O25 2.052 . S
Co19 O27 2.135 . S
O20 Co19 2.061 . S
O20 C23 1.235 . S
C21 O24 1.238 . S
C21 O25 1.241 . S
C22 O15 1.247 . S
C22 O16 1.261 . S
C23 O18 1.259 . S
C23 O20 1.235 . S
O24 Co14 2.021 . S
O24 C21 1.238 . S
O25 Co19 2.052 . S
O25 C21 1.241 . S
O26 Co14 2.137 . S
O26 C17 1.247 . S
O27 Co14 2.244 . S
O27 C17 1.272 . S
O27 Co19 2.135 . S
Co28 O29 2.216 . S
Co28 O30 2.091 . S
Co28 O32 2.004 . S
Co28 O38 2.021 . S
Co28 O40 2.137 . S
Co28 O41 2.244 . S
O29 Co28 2.216 . S
O29 C36 1.247 . S
O30 Co28 2.091 . S
O30 C36 1.261 . S
C31 O40 1.247 . S
C31 O41 1.272 . S
O32 Co28 2.004 . S
O32 C37 1.259 . S
Co33 O34 2.061 . S
Co33 O39 2.052 . S
Co33 O41 2.135 . S
O34 Co33 2.061 . S
O34 C37 1.235 . S
C35 O38 1.238 . S
C35 O39 1.241 . S
C36 O29 1.247 . S
C36 O30 1.261 . S
C37 O32 1.259 . S
C37 O34 1.235 . S
O38 Co28 2.021 . S
O38 C35 1.238 . S
O39 Co33 2.052 . S
O39 C35 1.241 . S
O40 Co28 2.137 . S
O40 C31 1.247 . S
O41 Co28 2.244 . S
O41 C31 1.272 . S
O41 Co33 2.135 . S
Co42 O43 2.216 . S
Co42 O44 2.091 . S
Co42 O46 2.004 . S
Co42 O52 2.021 . S
Co42 O54 2.137 1_554 S
Co42 O55 2.244 . S
O43 Co42 2.216 . S
O43 C50 1.247 . S
O44 Co42 2.091 . S
O44 C50 1.261 . S
C45 O54 1.247 . S
C45 O55 1.272 1_556 S
O46 Co42 2.004 . S
O46 C51 1.259 . S
Co47 O48 2.061 . S
Co47 O53 2.052 . S
Co47 O55 2.135 . S
O48 Co47 2.061 . S
O48 C51 1.235 . S
C49 O52 1.238 . S
C49 O53 1.241 . S
C50 O43 1.247 . S
C50 O44 1.261 . S
C51 O46 1.259 . S
C51 O48 1.235 . S
O52 Co42 2.021 . S
O52 C49 1.238 . S
O53 Co47 2.052 . S
O53 C49 1.241 . S
O54 Co42 2.137 1_556 S
O54 C45 1.247 . S
O55 Co42 2.244 . S
O55 C45 1.272 1_554 S
O55 Co47 2.135 . S
Co56 O57 2.216 . S
Co56 O58 2.091 . S
Co56 O60 2.004 . S
Co56 O66 2.021 . S
Co56 O68 2.137 . S
Co56 O69 2.244 . S
O57 Co56 2.216 . S
O57 C64 1.247 . S
O58 Co56 2.091 . S
O58 C64 1.261 . S
C59 O68 1.247 . S
C59 O69 1.272 . S
O60 Co56 2.004 . S
O60 C65 1.259 . S
Co61 O62 2.061 . S
Co61 O67 2.052 . S
Co61 O69 2.135 . S
O62 Co61 2.061 . S
O62 C65 1.235 . S
C63 O66 1.238 . S
C63 O67 1.241 . S
C64 O57 1.247 . S
C64 O58 1.261 . S
C65 O60 1.259 . S
C65 O62 1.235 . S
O66 Co56 2.021 . S
O66 C63 1.238 . S
O67 Co61 2.052 . S
O67 C63 1.241 . S
O68 Co56 2.137 . S
O68 C59 1.247 . S
O69 Co56 2.244 . S
O69 C59 1.272 . S
O69 Co61 2.135 . S
Co70 O71 2.216 . S
Co70 O72 2.091 . S
Co70 O74 2.004 . S
Co70 O80 2.021 . S
Co70 O82 2.137 . S
Co70 O83 2.244 . S
O71 Co70 2.216 . S
O71 C78 1.247 . S
O72 Co70 2.091 . S
O72 C78 1.261 . S
C73 O82 1.247 . S
C73 O83 1.272 . S
O74 Co70 2.004 . S
O74 C79 1.259 . S
Co75 O76 2.061 . S
Co75 O81 2.052 . S
Co75 O83 2.135 . S
O76 Co75 2.061 . S
O76 C79 1.235 . S
C77 O80 1.238 . S
C77 O81 1.241 . S
C78 O71 1.247 . S
C78 O72 1.261 . S
C79 O74 1.259 . S
C79 O76 1.235 . S
O80 Co70 2.021 . S
O80 C77 1.238 . S
O81 Co75 2.052 . S
O81 C77 1.241 . S
O82 Co70 2.137 . S
O82 C73 1.247 . S
O83 Co70 2.244 . S
O83 C73 1.272 . S
O83 Co75 2.135 . S
Co84 O85 2.216 . S
Co84 O86 2.091 . S
Co84 O88 2.004 . S
Co84 O94 2.021 . S
Co84 O96 2.137 . S
Co84 O97 2.244 . S
O85 Co84 2.216 . S
O85 C92 1.247 . S
O86 Co84 2.091 . S
O86 C92 1.261 . S
C87 O96 1.247 . S
C87 O97 1.272 . S
O88 Co84 2.004 . S
O88 C93 1.259 . S
Co89 O90 2.061 . S
Co89 O95 2.052 . S
Co89 O97 2.135 . S
O90 Co89 2.061 . S
O90 C93 1.235 . S
C91 O94 1.238 . S
C91 O95 1.241 . S
C92 O85 1.247 . S
C92 O86 1.261 . S
C93 O88 1.259 . S
C93 O90 1.235 . S
O94 Co84 2.021 . S
O94 C91 1.238 . S
O95 Co89 2.052 . S
O95 C91 1.241 . S
O96 Co84 2.137 . S
O96 C87 1.247 . S
O97 Co84 2.244 . S
O97 C87 1.272 . S
O97 Co89 2.135 . S
Co98 O99 2.216 . S
Co98 O100 2.091 . S
Co98 O102 2.004 . S
Co98 O108 2.021 1_554 S
Co98 O110 2.137 . S
Co98 O111 2.244 . S
O99 Co98 2.216 . S
O99 C106 1.247 . S
O100 Co98 2.091 . S
O100 C106 1.261 . S
C101 O110 1.247 . S
C101 O111 1.272 . S
O102 Co98 2.004 . S
O102 C107 1.259 . S
Co103 O104 2.061 . S
Co103 O109 2.052 1_554 S
Co103 O111 2.135 . S
O104 Co103 2.061 . S
O104 C107 1.235 . S
C105 O108 1.238 . S
C105 O109 1.241 . S
C106 O99 1.247 . S
C106 O100 1.261 . S
C107 O102 1.259 . S
C107 O104 1.235 . S
O108 Co98 2.021 1_556 S
O108 C105 1.238 . S
O109 Co103 2.052 1_556 S
O109 C105 1.241 . S
O110 Co98 2.137 . S
O110 C101 1.247 . S
O111 Co98 2.244 . S
O111 C101 1.272 . S
O111 Co103 2.135 . S
H112 C124 0.930 . S
H113 C126 0.930 . S
H114 C127 0.930 . S
H115 C131 0.959 . S
H116 C131 0.959 . S
H117 C131 0.961 . S
H118 C132 0.960 . S
H119 C132 0.961 . S
H120 C132 0.959 . S
H121 C135 0.929 . S
H122 C136 0.931 . S
H123 C138 0.930 . S
C124 H112 0.930 . S
C124 C125 1.399 . S
C124 C129 1.399 . S
C125 C124 1.399 . S
C125 C126 1.376 . S
C126 H113 0.930 . S
C126 C125 1.376 . S
C126 C127 1.388 . S
C127 H114 0.930 . S
C127 C126 1.388 . S
C127 C128 1.390 . S
C128 C127 1.390 . S
C128 C129 1.394 . S
C128 C134 1.465 . S
C129 C124 1.399 . S
C129 C128 1.394 . S
C129 C130 1.516 . S
C130 C129 1.516 . S
C130 C131 1.502 . S
C130 C132 1.561 . S
C130 C133 1.526 . S
C131 H115 0.959 . S
C131 H116 0.959 . S
C131 H117 0.961 . S
C131 C130 1.502 . S
C132 H118 0.960 . S
C132 H119 0.961 . S
C132 H120 0.959 . S
C132 C130 1.561 . S
C133 C130 1.526 . S
C133 C134 1.396 . S
C133 C138 1.390 . S
C134 C128 1.465 . S
C134 C133 1.396 . S
C134 C135 1.399 . S
C135 H121 0.929 . S
C135 C134 1.399 . S
C135 C136 1.385 . S
C136 H122 0.931 . S
C136 C135 1.385 . S
C136 C137 1.389 . S
C137 C136 1.389 . S
C137 C138 1.387 . S
C138 H123 0.930 . S
C138 C133 1.390 . S
C138 C137 1.387 . S
H139 C151 0.930 . S
H140 C153 0.930 . S
H141 C154 0.930 . S
H142 C158 0.959 . S
H143 C158 0.959 . S
H144 C158 0.961 . S
H145 C159 0.960 . S
H146 C159 0.961 . S
H147 C159 0.959 . S
H148 C162 0.929 . S
H149 C163 0.931 . S
H150 C165 0.930 . S
C151 H139 0.930 . S
C151 C152 1.399 . S
C151 C156 1.399 . S
C152 C151 1.399 . S
C152 C153 1.376 . S
C153 H140 0.930 . S
C153 C152 1.376 . S
C153 C154 1.388 . S
C154 H141 0.930 . S
C154 C153 1.388 . S
C154 C155 1.390 . S
C155 C154 1.390 . S
C155 C156 1.394 . S
C155 C161 1.465 . S
C156 C151 1.399 . S
C156 C155 1.394 . S
C156 C157 1.516 . S
C157 C156 1.516 . S
C157 C158 1.502 . S
C157 C159 1.561 . S
C157 C160 1.526 . S
C158 H142 0.959 . S
C158 H143 0.959 . S
C158 H144 0.961 . S
C158 C157 1.502 . S
C159 H145 0.960 . S
C159 H146 0.961 . S
C159 H147 0.959 . S
C159 C157 1.561 . S
C160 C157 1.526 . S
C160 C161 1.396 . S
C160 C165 1.390 . S
C161 C155 1.465 . S
C161 C160 1.396 . S
C161 C162 1.399 . S
C162 H148 0.929 . S
C162 C161 1.399 . S
C162 C163 1.385 . S
C163 H149 0.931 . S
C163 C162 1.385 . S
C163 C164 1.389 . S
C164 C163 1.389 . S
C164 C165 1.387 . S
C165 H150 0.930 . S
C165 C160 1.390 . S
C165 C164 1.387 . S
H166 C178 0.930 . S
H167 C180 0.930 . S
H168 C181 0.930 . S
H169 C185 0.959 . S
H170 C185 0.959 . S
H171 C185 0.961 . S
H172 C186 0.960 . S
H173 C186 0.961 . S
H174 C186 0.959 . S
H175 C189 0.929 . S
H176 C190 0.931 . S
H177 C192 0.930 . S
C178 H166 0.930 . S
C178 C179 1.399 . S
C178 C183 1.399 . S
C179 C178 1.399 . S
C179 C180 1.376 . S
C180 H167 0.930 . S
C180 C179 1.376 . S
C180 C181 1.388 . S
C181 H168 0.930 . S
C181 C180 1.388 . S
C181 C182 1.390 . S
C182 C181 1.390 . S
C182 C183 1.394 . S
C182 C188 1.465 . S
C183 C178 1.399 . S
C183 C182 1.394 . S
C183 C184 1.516 . S
C184 C183 1.516 . S
C184 C185 1.502 . S
C184 C186 1.561 . S
C184 C187 1.526 . S
C185 H169 0.959 . S
C185 H170 0.959 . S
C185 H171 0.961 . S
C185 C184 1.502 . S
C186 H172 0.960 . S
C186 H173 0.961 . S
C186 H174 0.959 . S
C186 C184 1.561 . S
C187 C184 1.526 . S
C187 C188 1.396 . S
C187 C192 1.390 1_554 S
C188 C182 1.465 . S
C188 C187 1.396 . S
C188 C189 1.399 . S
C189 H175 0.929 . S
C189 C188 1.399 . S
C189 C190 1.385 1_554 S
C190 H176 0.931 . S
C190 C189 1.385 1_556 S
C190 C191 1.389 . S
C191 C190 1.389 . S
C191 C192 1.387 . S
C192 H177 0.930 . S
C192 C187 1.390 1_556 S
C192 C191 1.387 . S
H193 C205 0.930 . S
H194 C207 0.930 . S
H195 C208 0.930 . S
H196 C212 0.959 . S
H197 C212 0.959 . S
H198 C212 0.961 . S
H199 C213 0.960 . S
H200 C213 0.961 . S
H201 C213 0.959 . S
H202 C216 0.929 . S
H203 C217 0.931 . S
H204 C219 0.930 . S
C205 H193 0.930 . S
C205 C206 1.399 . S
C205 C210 1.399 . S
C206 C205 1.399 . S
C206 C207 1.376 . S
C207 H194 0.930 . S
C207 C206 1.376 . S
C207 C208 1.388 . S
C208 H195 0.930 . S
C208 C207 1.388 . S
C208 C209 1.390 . S
C209 C208 1.390 . S
C209 C210 1.394 . S
C209 C215 1.465 . S
C210 C205 1.399 . S
C210 C209 1.394 . S
C210 C211 1.516 . S
C211 C210 1.516 . S
C211 C212 1.502 . S
C211 C213 1.561 . S
C211 C214 1.526 . S
C212 H196 0.959 . S
C212 H197 0.959 . S
C212 H198 0.961 . S
C212 C211 1.502 . S
C213 H199 0.960 . S
C213 H200 0.961 . S
C213 H201 0.959 . S
C213 C211 1.561 . S
C214 C211 1.526 . S
C214 C215 1.396 . S
C214 C219 1.390 . S
C215 C209 1.465 . S
C215 C214 1.396 . S
C215 C216 1.399 . S
C216 H202 0.929 . S
C216 C215 1.399 . S
C216 C217 1.385 . S
C217 H203 0.931 . S
C217 C216 1.385 . S
C217 C218 1.389 . S
C218 C217 1.389 . S
C218 C219 1.387 . S
C219 H204 0.930 . S
C219 C214 1.390 . S
C219 C218 1.387 . S
H220 C232 0.930 . S
H221 C234 0.930 . S
H222 C235 0.930 . S
H223 C239 0.959 . S
H224 C239 0.959 . S
H225 C239 0.961 . S
H226 C240 0.960 . S
H227 C240 0.961 . S
H228 C240 0.959 . S
H229 C243 0.929 . S
H230 C244 0.931 . S
H231 C246 0.930 . S
C232 H220 0.930 . S
C232 C233 1.399 . S
C232 C237 1.399 . S
C233 C232 1.399 . S
C233 C234 1.376 . S
C234 H221 0.930 . S
C234 C233 1.376 . S
C234 C235 1.388 . S
C235 H222 0.930 . S
C235 C234 1.388 . S
C235 C236 1.390 . S
C236 C235 1.390 . S
C236 C237 1.394 . S
C236 C242 1.465 . S
C237 C232 1.399 . S
C237 C236 1.394 . S
C237 C238 1.516 . S
C238 C237 1.516 . S
C238 C239 1.502 . S
C238 C240 1.561 . S
C238 C241 1.526 . S
C239 H223 0.959 . S
C239 H224 0.959 . S
C239 H225 0.961 . S
C239 C238 1.502 . S
C240 H226 0.960 . S
C240 H227 0.961 . S
C240 H228 0.959 . S
C240 C238 1.561 . S
C241 C238 1.526 . S
C241 C242 1.396 . S
C241 C246 1.390 . S
C242 C236 1.465 . S
C242 C241 1.396 . S
C242 C243 1.399 . S
C243 H229 0.929 . S
C243 C242 1.399 . S
C243 C244 1.385 . S
C244 H230 0.931 . S
C244 C243 1.385 . S
C244 C245 1.389 . S
C245 C244 1.389 . S
C245 C246 1.387 . S
C246 H231 0.930 . S
C246 C241 1.390 . S
C246 C245 1.387 . S
H247 C259 0.930 . S
H248 C261 0.930 . S
H249 C262 0.930 . S
H250 C266 0.959 . S
H251 C266 0.959 . S
H252 C266 0.961 . S
H253 C267 0.960 . S
H254 C267 0.961 . S
H255 C267 0.959 . S
H256 C270 0.929 . S
H257 C271 0.931 . S
H258 C273 0.930 . S
C259 H247 0.930 . S
C259 C260 1.399 . S
C259 C264 1.399 . S
C260 C259 1.399 . S
C260 C261 1.376 . S
C261 H248 0.930 . S
C261 C260 1.376 . S
C261 C262 1.388 . S
C262 H249 0.930 . S
C262 C261 1.388 . S
C262 C263 1.390 . S
C263 C262 1.390 . S
C263 C264 1.394 . S
C263 C269 1.465 . S
C264 C259 1.399 . S
C264 C263 1.394 . S
C264 C265 1.516 . S
C265 C264 1.516 . S
C265 C266 1.502 . S
C265 C267 1.561 . S
C265 C268 1.526 . S
C266 H250 0.959 . S
C266 H251 0.959 . S
C266 H252 0.961 . S
C266 C265 1.502 . S
C267 H253 0.960 . S
C267 H254 0.961 . S
C267 H255 0.959 . S
C267 C265 1.561 . S
C268 C265 1.526 . S
C268 C269 1.396 . S
C268 C273 1.390 . S
C269 C263 1.465 . S
C269 C268 1.396 . S
C269 C270 1.399 . S
C270 H256 0.929 . S
C270 C269 1.399 . S
C270 C271 1.385 . S
C271 H257 0.931 . S
C271 C270 1.385 . S
C271 C272 1.389 . S
C272 C271 1.389 . S
C272 C273 1.387 . S
C273 H258 0.930 . S
C273 C268 1.390 . S
C273 C272 1.387 . S
H274 C286 0.930 . S
H275 C288 0.930 . S
H276 C289 0.930 . S
H277 C293 0.959 . S
H278 C293 0.959 . S
H279 C293 0.961 . S
H280 C294 0.960 1_554 S
H281 C294 0.961 . S
H282 C294 0.959 . S
H283 C297 0.929 . S
H284 C298 0.931 . S
H285 C300 0.930 . S
C286 H274 0.930 . S
C286 C287 1.399 1_554 S
C286 C291 1.399 1_554 S
C287 C286 1.399 1_556 S
C287 C288 1.376 . S
C288 H275 0.930 . S
C288 C287 1.376 . S
C288 C289 1.388 . S
C289 H276 0.930 . S
C289 C288 1.388 . S
C289 C290 1.390 . S
C290 C289 1.390 . S
C290 C291 1.394 . S
C290 C296 1.465 . S
C291 C286 1.399 1_556 S
C291 C290 1.394 . S
C291 C292 1.516 . S
C292 C291 1.516 . S
C292 C293 1.502 1_556 S
C292 C294 1.561 . S
C292 C295 1.526 . S
C293 H277 0.959 . S
C293 H278 0.959 . S
C293 H279 0.961 . S
C293 C292 1.502 1_554 S
C294 H280 0.960 1_556 S
C294 H281 0.961 . S
C294 H282 0.959 . S
C294 C292 1.561 . S
C295 C292 1.526 . S
C295 C296 1.396 . S
C295 C300 1.390 . S
C296 C290 1.465 . S
C296 C295 1.396 . S
C296 C297 1.399 . S
C297 H283 0.929 . S
C297 C296 1.399 . S
C297 C298 1.385 . S
C298 H284 0.931 . S
C298 C297 1.385 . S
C298 C299 1.389 . S
C299 C298 1.389 . S
C299 C300 1.387 . S
C300 H285 0.930 . S
C300 C295 1.390 . S
C300 C299 1.387 . S
H301 C313 0.930 . S
H302 C315 0.930 . S
H303 C316 0.930 . S
H304 C320 0.959 . S
H305 C320 0.959 . S
H306 C320 0.961 . S
H307 C321 0.960 . S
H308 C321 0.961 . S
H309 C321 0.959 . S
H310 C324 0.929 . S
H311 C325 0.931 . S
H312 C327 0.930 . S
C313 H301 0.930 . S
C313 C314 1.399 . S
C313 C318 1.399 . S
C314 C313 1.399 . S
C314 C315 1.376 . S
C315 H302 0.930 . S
C315 C314 1.376 . S
C315 C316 1.388 . S
C316 H303 0.930 . S
C316 C315 1.388 . S
C316 C317 1.390 . S
C317 C316 1.390 . S
C317 C318 1.394 . S
C317 C323 1.465 . S
C318 C313 1.399 . S
C318 C317 1.394 . S
C318 C319 1.516 . S
C319 C318 1.516 . S
C319 C320 1.502 . S
C319 C321 1.561 . S
C319 C322 1.526 . S
C320 H304 0.959 . S
C320 H305 0.959 . S
C320 H306 0.961 . S
C320 C319 1.502 . S
C321 H307 0.960 . S
C321 H308 0.961 . S
C321 H309 0.959 . S
C321 C319 1.561 . S
C322 C319 1.526 . S
C322 C323 1.396 . S
C322 C327 1.390 . S
C323 C317 1.465 . S
C323 C322 1.396 . S
C323 C324 1.399 . S
C324 H310 0.929 . S
C324 C323 1.399 . S
C324 C325 1.385 . S
C325 H311 0.931 . S
C325 C324 1.385 . S
C325 C326 1.389 . S
C326 C325 1.389 . S
C326 C327 1.387 . S
C327 H312 0.930 . S
C327 C322 1.390 . S
C327 C326 1.387 . S
H328 C340 0.930 . S
H329 C342 0.930 . S
H330 C343 0.930 . S
H331 C347 0.959 1_545 S
H332 C347 0.959 1_545 S
H333 C347 0.961 . S
H334 C348 0.960 . S
H335 C348 0.961 1_545 S
H336 C348 0.958 1_545 S
H337 C351 0.929 . S
H338 C352 0.931 . S
H339 C354 0.930 . S
C340 H328 0.930 . S
C340 C341 1.399 . S
C340 C345 1.399 . S
C341 C340 1.399 . S
C341 C342 1.376 . S
C342 H329 0.930 . S
C342 C341 1.376 . S
C342 C343 1.388 . S
C343 H330 0.930 . S
C343 C342 1.388 . S
C343 C344 1.390 . S
C344 C343 1.390 . S
C344 C345 1.394 . S
C344 C350 1.465 1_565 S
C345 C340 1.399 . S
C345 C344 1.394 . S
C345 C346 1.516 . S
C346 C345 1.516 . S
C346 C347 1.502 . S
C346 C348 1.561 . S
C346 C349 1.526 1_565 S
C347 H331 0.959 1_565 S
C347 H332 0.959 1_565 S
C347 H333 0.961 . S
C347 C346 1.502 . S
C348 H334 0.960 . S
C348 H335 0.961 1_565 S
C348 H336 0.958 1_565 S
C348 C346 1.561 . S
C349 C346 1.526 1_545 S
C349 C350 1.396 . S
C349 C354 1.390 . S
C350 C344 1.465 1_545 S
C350 C349 1.396 . S
C350 C351 1.399 . S
C351 H337 0.929 . S
C351 C350 1.399 . S
C351 C352 1.385 . S
C352 H338 0.931 . S
C352 C351 1.385 . S
C352 C353 1.389 . S
C353 C352 1.389 . S
C353 C354 1.387 . S
C354 H339 0.930 . S
C354 C349 1.390 . S
C354 C353 1.387 . S
H355 C367 0.930 . S
H356 C369 0.930 . S
H357 C370 0.930 . S
H358 C374 0.959 . S
H359 C374 0.959 . S
H360 C374 0.961 1_655 S
H361 C375 0.970 . S
H362 C375 0.952 1_455 S
H363 C375 0.958 1_455 S
H364 C378 0.929 . S
H365 C379 0.931 . S
H366 C381 0.930 . S
C367 H355 0.930 . S
C367 C368 1.399 . S
C367 C372 1.399 . S
C368 C367 1.399 . S
C368 C369 1.376 . S
C369 H356 0.930 . S
C369 C368 1.376 . S
C369 C370 1.388 . S
C370 H357 0.930 . S
C370 C369 1.388 . S
C370 C371 1.390 . S
C371 C370 1.390 . S
C371 C372 1.394 . S
C371 C377 1.465 1_655 S
C372 C367 1.399 . S
C372 C371 1.394 . S
C372 C373 1.506 1_655 S
C373 C372 1.506 1_455 S
C373 C374 1.502 . S
C373 C375 1.561 1_455 S
C373 C376 1.536 . S
C374 H358 0.959 . S
C374 H359 0.959 . S
C374 H360 0.961 1_455 S
C374 C373 1.502 . S
C375 H361 0.970 . S
C375 H362 0.952 1_655 S
C375 H363 0.958 1_655 S
C375 C373 1.561 1_655 S
C376 C373 1.536 . S
C376 C377 1.396 . S
C376 C381 1.390 . S
C377 C371 1.465 1_455 S
C377 C376 1.396 . S
C377 C378 1.399 . S
C378 H364 0.929 . S
C378 C377 1.399 . S
C378 C379 1.385 . S
C379 H365 0.931 . S
C379 C378 1.385 . S
C379 C380 1.389 . S
C380 C379 1.389 . S
C380 C381 1.387 . S
C381 H366 0.930 . S
C381 C376 1.390 . S
C381 C380 1.387 . S
H382 C394 0.930 . S
H383 C396 0.930 . S
H384 C397 0.930 . S
H385 C401 0.959 . S
H386 C401 0.959 . S
H387 C401 0.961 1_565 S
H388 C402 0.960 1_565 S
H389 C402 0.961 . S
H390 C402 0.959 . S
H391 C405 0.929 . S
H392 C406 0.931 . S
H393 C408 0.930 . S
C394 H382 0.930 . S
C394 C395 1.399 . S
C394 C399 1.399 . S
C395 C394 1.399 . S
C395 C396 1.376 . S
C396 H383 0.930 . S
C396 C395 1.376 . S
C396 C397 1.388 . S
C397 H384 0.930 . S
C397 C396 1.388 . S
C397 C398 1.390 . S
C398 C397 1.390 . S
C398 C399 1.394 . S
C398 C404 1.465 1_565 S
C399 C394 1.399 . S
C399 C398 1.394 . S
C399 C400 1.516 1_565 S
C400 C399 1.516 1_545 S
C400 C401 1.502 . S
C400 C402 1.561 . S
C400 C403 1.526 . S
C401 H385 0.959 . S
C401 H386 0.959 . S
C401 H387 0.961 1_545 S
C401 C400 1.502 . S
C402 H388 0.960 1_545 S
C402 H389 0.961 . S
C402 H390 0.959 . S
C402 C400 1.561 . S
C403 C400 1.526 . S
C403 C404 1.396 . S
C403 C408 1.390 . S
C404 C398 1.465 1_545 S
C404 C403 1.396 . S
C404 C405 1.399 . S
C405 H391 0.929 . S
C405 C404 1.399 . S
C405 C406 1.385 . S
C406 H392 0.931 . S
C406 C405 1.385 . S
C406 C407 1.389 . S
C407 C406 1.389 . S
C407 C408 1.387 . S
C408 H393 0.930 . S
C408 C403 1.390 . S
C408 C407 1.387 . S
H409 C421 0.930 . S
H410 C423 0.930 . S
H411 C424 0.930 . S
H412 C428 0.959 . S
H413 C428 0.959 . S
H414 C428 0.961 1_655 S
H415 C429 0.966 . S
H416 C429 0.956 1_455 S
H417 C429 0.958 1_455 S
H418 C432 0.929 . S
H419 C433 0.931 . S
H420 C435 0.930 . S
C421 H409 0.930 . S
C421 C422 1.399 . S
C421 C426 1.399 . S
C422 C421 1.399 . S
C422 C423 1.376 . S
C423 H410 0.930 . S
C423 C422 1.376 . S
C423 C424 1.388 . S
C424 H411 0.930 . S
C424 C423 1.388 . S
C424 C425 1.390 . S
C425 C424 1.390 . S
C425 C426 1.394 . S
C425 C431 1.465 1_655 S
C426 C421 1.399 . S
C426 C425 1.394 . S
C426 C427 1.504 1_655 S
C427 C426 1.504 1_455 S
C427 C428 1.503 1_554 S
C427 C429 1.561 1_455 S
C427 C430 1.538 . S
C428 H412 0.959 . S
C428 H413 0.959 . S
C428 H414 0.961 1_455 S
C428 C427 1.503 1_556 S
C429 H415 0.966 . S
C429 H416 0.956 1_655 S
C429 H417 0.958 1_655 S
C429 C427 1.561 1_655 S
C430 C427 1.538 . S
C430 C431 1.396 . S
C430 C435 1.390 . S
C431 C425 1.465 1_455 S
C431 C430 1.396 . S
C431 C432 1.399 . S
C432 H418 0.929 . S
C432 C431 1.399 . S
C432 C433 1.385 . S
C433 H419 0.931 . S
C433 C432 1.385 . S
C433 C434 1.389 . S
C434 C433 1.389 . S
C434 C435 1.387 . S
C435 H420 0.930 . S
C435 C430 1.390 . S
C435 C434 1.387 . S
H436 C448 0.930 . S
H437 C450 0.930 . S
H438 C451 0.930 . S
H439 C455 0.959 . S
H440 C455 0.959 . S
H441 C455 0.961 1_556 S
H442 C456 0.960 . S
H443 C456 0.961 . S
H444 C456 0.959 . S
H445 C459 0.929 . S
H446 C460 0.931 . S
H447 C462 0.930 . S
C448 H436 0.930 . S
C448 C449 1.399 . S
C448 C453 1.399 1_556 S
C449 C448 1.399 . S
C449 C450 1.376 . S
C450 H437 0.930 . S
C450 C449 1.376 . S
C450 C451 1.388 1_556 S
C451 H438 0.930 . S
C451 C450 1.388 1_554 S
C451 C452 1.390 . S
C452 C451 1.390 . S
C452 C453 1.394 . S
C452 C458 1.465 . S
C453 C448 1.399 1_554 S
C453 C452 1.394 . S
C453 C454 1.516 . S
C454 C453 1.516 . S
C454 C455 1.502 . S
C454 C456 1.561 . S
C454 C457 1.526 . S
C455 H439 0.959 . S
C455 H440 0.959 . S
C455 H441 0.961 1_554 S
C455 C454 1.502 . S
C456 H442 0.960 . S
C456 H443 0.961 . S
C456 H444 0.959 . S
C456 C454 1.561 . S
C457 C454 1.526 . S
C457 C458 1.396 . S
C457 C462 1.390 . S
C458 C452 1.465 . S
C458 C457 1.396 . S
C458 C459 1.399 . S
C459 H445 0.929 . S
C459 C458 1.399 . S
C459 C460 1.385 . S
C460 H446 0.931 . S
C460 C459 1.385 . S
C460 C461 1.389 . S
C461 C460 1.389 . S
C461 C462 1.387 . S
C462 H447 0.930 . S
C462 C457 1.390 . S
C462 C461 1.387 . S
H463 C475 0.930 . S
H464 C477 0.930 . S
H465 C478 0.930 . S
H466 C482 0.959 . S
H467 C482 0.959 . S
H468 C482 0.961 . S
H469 C483 0.960 . S
H470 C483 0.961 . S
H471 C483 0.959 . S
H472 C486 0.929 . S
H473 C487 0.931 . S
H474 C489 0.930 . S
C475 H463 0.930 . S
C475 C476 1.399 . S
C475 C480 1.399 . S
C476 C475 1.399 . S
C476 C477 1.376 . S
C477 H464 0.930 . S
C477 C476 1.376 . S
C477 C478 1.388 . S
C478 H465 0.930 . S
C478 C477 1.388 . S
C478 C479 1.390 . S
C479 C478 1.390 . S
C479 C480 1.394 . S
C479 C485 1.465 . S
C480 C475 1.399 . S
C480 C479 1.394 . S
C480 C481 1.516 . S
C481 C480 1.516 . S
C481 C482 1.502 . S
C481 C483 1.561 . S
C481 C484 1.526 . S
C482 H466 0.959 . S
C482 H467 0.959 . S
C482 H468 0.961 . S
C482 C481 1.502 . S
C483 H469 0.960 . S
C483 H470 0.961 . S
C483 H471 0.959 . S
C483 C481 1.561 . S
C484 C481 1.526 . S
C484 C485 1.396 . S
C484 C489 1.390 . S
C485 C479 1.465 . S
C485 C484 1.396 . S
C485 C486 1.399 . S
C486 H472 0.929 . S
C486 C485 1.399 . S
C486 C487 1.385 . S
C487 H473 0.931 . S
C487 C486 1.385 . S
C487 C488 1.389 . S
C488 C487 1.389 . S
C488 C489 1.387 . S
C489 H474 0.930 . S
C489 C484 1.390 . S
C489 C488 1.387 . S
H490 C502 0.930 . S
H491 C504 0.930 . S
H492 C505 0.930 . S
H493 C509 0.959 . S
H494 C509 0.959 . S
H495 C509 0.961 . S
H496 C510 0.960 . S
H497 C510 0.961 . S
H498 C510 0.959 . S
H499 C513 0.929 . S
H500 C514 0.931 . S
H501 C516 0.930 . S
C502 H490 0.930 . S
C502 C503 1.399 . S
C502 C507 1.399 . S
C503 C502 1.399 . S
C503 C504 1.376 . S
C504 H491 0.930 . S
C504 C503 1.376 . S
C504 C505 1.388 . S
C505 H492 0.930 . S
C505 C504 1.388 . S
C505 C506 1.390 . S
C506 C505 1.390 . S
C506 C507 1.394 . S
C506 C512 1.465 . S
C507 C502 1.399 . S
C507 C506 1.394 . S
C507 C508 1.516 . S
C508 C507 1.516 . S
C508 C509 1.502 . S
C508 C510 1.561 . S
C508 C511 1.526 . S
C509 H493 0.959 . S
C509 H494 0.959 . S
C509 H495 0.961 . S
C509 C508 1.502 . S
C510 H496 0.960 . S
C510 H497 0.961 . S
C510 H498 0.959 . S
C510 C508 1.561 . S
C511 C508 1.526 . S
C511 C512 1.396 . S
C511 C516 1.390 . S
C512 C506 1.465 . S
C512 C511 1.396 . S
C512 C513 1.399 . S
C513 H499 0.929 . S
C513 C512 1.399 . S
C513 C514 1.385 . S
C514 H500 0.931 . S
C514 C513 1.385 . S
C514 C515 1.389 . S
C515 C514 1.389 . S
C515 C516 1.387 . S
C516 H501 0.930 . S
C516 C511 1.390 . S
C516 C515 1.387 . S
H517 C529 0.930 . S
H518 C531 0.930 . S
H519 C532 0.930 . S
H520 C536 0.959 . S
H521 C536 0.959 . S
H522 C536 0.961 . S
H523 C537 0.960 . S
H524 C537 0.961 . S
H525 C537 0.959 . S
H526 C540 0.929 . S
H527 C541 0.931 . S
H528 C543 0.930 . S
C529 H517 0.930 . S
C529 C530 1.399 . S
C529 C534 1.399 . S
C530 C529 1.399 . S
C530 C531 1.376 . S
C531 H518 0.930 . S
C531 C530 1.376 . S
C531 C532 1.388 . S
C532 H519 0.930 . S
C532 C531 1.388 . S
C532 C533 1.390 . S
C533 C532 1.390 . S
C533 C534 1.394 . S
C533 C539 1.465 . S
C534 C529 1.399 . S
C534 C533 1.394 . S
C534 C535 1.516 . S
C535 C534 1.516 . S
C535 C536 1.502 . S
C535 C537 1.561 . S
C535 C538 1.526 . S
C536 H520 0.959 . S
C536 H521 0.959 . S
C536 H522 0.961 . S
C536 C535 1.502 . S
C537 H523 0.960 . S
C537 H524 0.961 . S
C537 H525 0.959 . S
C537 C535 1.561 . S
C538 C535 1.526 . S
C538 C539 1.396 . S
C538 C543 1.390 . S
C539 C533 1.465 . S
C539 C538 1.396 . S
C539 C540 1.399 . S
C540 H526 0.929 . S
C540 C539 1.399 . S
C540 C541 1.385 . S
C541 H527 0.931 . S
C541 C540 1.385 . S
C541 C542 1.389 . S
C542 C541 1.389 . S
C542 C543 1.387 . S
C543 H528 0.930 . S
C543 C538 1.390 . S
C543 C542 1.387 . S
C125 C7 0.693 . S
C137 C91 0.738 . S
C152 C21 0.718 . S
C164 C105 0.643 . S
C179 C63 0.696 . S
C191 C35 0.738 . S
C206 C77 0.656 . S
C218 C49 0.730 . S
C233 C8 1.532 . S
C245 C78 1.547 . S
C260 C22 1.513 . S
C272 C92 1.561 . S
C287 C106 1.514 1_556 S
C299 C36 1.561 . S
C314 C50 1.558 . S
C326 C64 1.520 . S
C341 C65 1.480 . S
C353 C9 1.484 . S
C368 C23 1.475 . S
C380 C79 1.474 . S
C395 C37 1.510 . S
C407 C93 1.507 . S
C422 C107 1.477 . S
C434 C51 1.475 . S
C449 C87 1.531 . S
C461 C3 1.533 . S
C476 C101 1.509 . S
C488 C17 1.512 . S
C503 C31 1.533 . S
C515 C59 1.534 . S
C530 C45 1.512 . S
C542 C73 1.514 . S
