# Generated by pormake.
# Topology smm, (6)-cn, num edge types: 1
# Building blocks:
#     Node 0, Type 0, BuildingBlock: CUWYAW_clean_sbu_0, # of connection points: 6
#     Node 1, Type 0, BuildingBlock: CUWYAW_clean_sbu_0, # of connection points: 6
#     Node 2, Type 0, BuildingBlock: CUWYAW_clean_sbu_0, # of connection points: 6
#     Node 3, Type 0, BuildingBlock: CUWYAW_clean_sbu_0, # of connection points: 6
#     Node 4, Type 0, BuildingBlock: CUWYAW_clean_sbu_0, # of connection points: 6
#     Node 5, Type 0, BuildingBlock: CUWYAW_clean_sbu_0, # of connection points: 6
#     Node 6, Type 0, BuildingBlock: CUWYAW_clean_sbu_0, # of connection points: 6
#     Node 7, Type 0, BuildingBlock: CUWYAW_clean_sbu_0, # of connection points: 6
#     Node 8, Type 0, BuildingBlock: CUWYAW_clean_sbu_0, # of connection points: 6
#     Edge 9, Type (0, 0), BuildingBlock: AJUNOK_clean_linker_0, # of connection points: 2
#     Edge 10, Type (0, 0), BuildingBlock: AJUNOK_clean_linker_0, # of connection points: 2
#     Edge 11, Type (0, 0), BuildingBlock: AJUNOK_clean_linker_0, # of connection points: 2
#     Edge 12, Type (0, 0), BuildingBlock: AJUNOK_clean_linker_0, # of connection points: 2
#     Edge 13, Type (0, 0), BuildingBlock: AJUNOK_clean_linker_0, # of connection points: 2
#     Edge 14, Type (0, 0), BuildingBlock: AJUNOK_clean_linker_0, # of connection points: 2
#     Edge 15, Type (0, 0), BuildingBlock: AJUNOK_clean_linker_0, # of connection points: 2
#     Edge 16, Type (0, 0), BuildingBlock: AJUNOK_clean_linker_0, # of connection points: 2
#     Edge 17, Type (0, 0), BuildingBlock: AJUNOK_clean_linker_0, # of connection points: 2
#     Edge 18, Type (0, 0), BuildingBlock: AJUNOK_clean_linker_0, # of connection points: 2
#     Edge 19, Type (0, 0), BuildingBlock: AJUNOK_clean_linker_0, # of connection points: 2
#     Edge 20, Type (0, 0), BuildingBlock: AJUNOK_clean_linker_0, # of connection points: 2
#     Edge 21, Type (0, 0), BuildingBlock: AJUNOK_clean_linker_0, # of connection points: 2
#     Edge 22, Type (0, 0), BuildingBlock: AJUNOK_clean_linker_0, # of connection points: 2
#     Edge 23, Type (0, 0), BuildingBlock: AJUNOK_clean_linker_0, # of connection points: 2
#     Edge 24, Type (0, 0), BuildingBlock: AJUNOK_clean_linker_0, # of connection points: 2
#     Edge 25, Type (0, 0), BuildingBlock: AJUNOK_clean_linker_0, # of connection points: 2
#     Edge 26, Type (0, 0), BuildingBlock: AJUNOK_clean_linker_0, # of connection points: 2
#     Edge 27, Type (0, 0), BuildingBlock: AJUNOK_clean_linker_0, # of connection points: 2
#     Edge 28, Type (0, 0), BuildingBlock: AJUNOK_clean_linker_0, # of connection points: 2
#     Edge 29, Type (0, 0), BuildingBlock: AJUNOK_clean_linker_0, # of connection points: 2
#     Edge 30, Type (0, 0), BuildingBlock: AJUNOK_clean_linker_0, # of connection points: 2
#     Edge 31, Type (0, 0), BuildingBlock: AJUNOK_clean_linker_0, # of connection points: 2
#     Edge 32, Type (0, 0), BuildingBlock: AJUNOK_clean_linker_0, # of connection points: 2
#     Edge 33, Type (0, 0), BuildingBlock: AJUNOK_clean_linker_0, # of connection points: 2
#     Edge 34, Type (0, 0), BuildingBlock: AJUNOK_clean_linker_0, # of connection points: 2
#     Edge 35, Type (0, 0), BuildingBlock: AJUNOK_clean_linker_0, # of connection points: 2
# Relax obj value: 0.021
# Max RMSD: 0.092
# Mean RMSD: 0.092
data_MOF--net-smm--node1-CUWYAW_clean_sbu_0--edge1-AJUNOK_clean_linker_0
_symmetry_space_group_name_H-M    P1
_symmetry_Int_Tables_number       1
_symmetry_cell_setting            triclinic
loop_
_symmetry_equiv_pos_as_xyz
'x, y, z'
_cell_length_a     57.030258
_cell_length_b     57.182604
_cell_length_c     10.414046
_cell_angle_alpha  89.860427
_cell_angle_beta   90.108567
_cell_angle_gamma 119.81605
loop_
_atom_site_label
_atom_site_type_symbol
_atom_site_fract_x
_atom_site_fract_y
_atom_site_fract_z
_atom_type_partial_charge
C0 C 0.11248 0.19103 0.89227 0.0
Eu1 Eu 0.0753 0.20208 0.96553 0.0
C2 C 0.12088 0.17051 0.91373 0.0
C3 C 0.13824 0.17317 0.01579 0.0
C4 C 0.14782 0.15502 0.02994 0.0
C5 C 0.14037 0.13381 0.9423 0.0
C6 C 0.12279 0.13096 0.84102 0.0
C7 C 0.11317 0.1491 0.82688 0.0
C8 C 0.06244 0.20452 0.21446 0.0
C9 C 1.01649 0.14619 0.98161 0.0
C10 C 0.9865 0.21384 0.09835 0.0
Eu11 Eu 1.02413 0.20549 0.00416 0.0
C12 C 0.97826 0.23369 0.13389 0.0
C13 C 0.98629 0.25752 0.06375 0.0
C14 C 0.97586 0.27449 0.09485 0.0
C15 C 0.95709 0.26767 0.19548 0.0
C16 C 0.95005 0.24438 0.26822 0.0
C17 C 0.96052 0.2276 0.23767 0.0
C18 C 1.03525 0.20041 0.75617 0.0
C19 C 0.08193 0.26106 0.95971 0.0
O20 O 0.09007 0.18359 0.82824 0.0
O21 O 0.1156 0.20723 0.98752 0.0
O22 O 0.08702 0.21605 0.17186 0.0
O23 O 0.04623 0.19133 0.126 0.0
O24 O 0.04226 0.1581 0.94773 0.0
O25 O 1.00518 0.16029 0.02039 0.0
O26 O 1.00503 0.21289 0.16876 0.0
O27 O 0.98845 0.20965 0.97628 0.0
O28 O 1.01088 0.1898 0.80211 0.0
O29 O 0.05227 0.21467 0.84034 0.0
O30 O 0.05748 0.2498 0.0117 0.0
O31 O 0.09192 0.24602 0.91706 0.0
H32 H 0.14484 0.18955 0.08382 0.0
H33 H 0.16129 0.15773 0.10909 0.0
H34 H 0.11713 0.11521 0.77016 0.0
H35 H 0.10017 0.14668 0.74609 0.0
H36 H 1.00008 0.26267 0.98353 0.0
H37 H 0.98168 0.29238 0.03753 0.0
H38 H 0.93601 0.23888 0.34757 0.0
H39 H 0.95418 0.2094 0.29344 0.0
C40 C 0.89369 0.94409 0.89041 0.0
Eu41 Eu 0.88305 0.89599 0.9638 0.0
C42 C 0.91301 0.97305 0.90802 0.0
C43 C 0.9341 0.98237 -0.00183 0.0
C44 C 0.95167 1.01017 0.01411 0.0
C45 C 0.94839 0.02902 0.9401 0.0
C46 C 0.92728 1.01943 0.84979 0.0
C47 C 0.90984 0.99177 0.83385 0.0
C48 C 0.87779 0.8784 0.21061 0.0
C49 C 0.93777 0.89105 0.98582 0.0
C50 C 0.86791 0.79383 0.09108 0.0
Eu51 Eu 0.87775 0.84034 -0.00181 0.0
C52 C 0.8486 0.76472 0.10627 0.0
C53 C 0.85887 0.74698 0.10943 0.0
C54 C 0.84183 0.71951 0.13257 0.0
C55 C 0.81396 0.70898 0.15195 0.0
C56 C 0.80361 0.72679 0.14929 0.0
C57 C 0.8208 0.75447 0.12648 0.0
C58 C 0.88441 0.85804 0.75142 0.0
C59 C 0.82327 0.84437 0.9475 0.0
O60 O 0.90238 0.92983 0.83005 0.0
O61 O 0.8781 0.93118 0.98773 0.0
O62 O 0.86837 0.89345 0.16888 0.0
O63 O 0.89167 0.87567 0.12461 0.0
O64 O 0.92683 0.90561 0.94732 0.0
O65 O 0.92266 0.86614 0.02857 0.0
O66 O 0.86312 0.81088 0.15344 0.0
O67 O 0.87863 0.80268 0.9778 0.0
O68 O 0.89268 0.84204 0.79428 0.0
O69 O 0.8703 0.86107 0.83543 0.0
O70 O 0.83361 0.83016 -0.00204 0.0
O71 O 0.8391 0.86954 0.90893 0.0
H72 H 0.93681 0.9682 0.05668 0.0
H73 H 0.96749 1.01691 0.08579 0.0
H74 H 0.92432 0.03339 0.79078 0.0
H75 H 0.89371 0.98498 0.76369 0.0
H76 H 0.88029 0.75449 0.09628 0.0
H77 H 0.85061 0.70654 0.13734 0.0
H78 H 0.78225 0.7193 0.16408 0.0
H79 H 0.81245 0.76783 0.12578 0.0
C80 C 0.13981 0.969 0.87699 0.0
Eu81 Eu 0.1872 1.00673 0.9556 0.0
C82 C 0.11078 0.95934 0.8947 0.0
C83 C 0.10152 0.97214 0.97886 0.0
C84 C 0.07367 0.96179 -0.00324 0.0
C85 C 0.05477 0.93831 0.93199 0.0
C86 C 0.06426 0.92596 0.84605 0.0
C87 C 0.09197 0.93636 0.8278 0.0
C88 C 0.20218 1.01949 0.20524 0.0
C89 C 0.1897 0.06536 0.97123 0.0
C90 C 0.2873 0.0952 0.09129 0.0
Eu91 Eu 0.24155 0.05778 -0.00418 0.0
C92 C 0.31553 0.10339 0.12443 0.0
C93 C 0.33131 0.09586 0.0506 0.0
C94 C 0.3588 0.10622 0.07975 0.0
C95 C 0.37085 0.12441 0.18212 0.0
C96 C 0.35463 0.13092 0.25849 0.0
C97 C 0.3273 0.12053 0.22983 0.0
C98 C 0.22565 0.0467 0.74712 0.0
C99 C 0.23992 1.0003 0.95274 0.0
O100 O 0.15404 0.99204 0.81743 0.0
O101 O 0.15263 0.96624 0.97494 0.0
O102 O 0.18911 0.99498 0.16271 0.0
O103 O 0.20524 0.03568 0.11641 0.0
O104 O 0.17603 0.03973 0.93614 0.0
O105 O 0.21496 0.07647 0.01215 0.0
O106 O 0.26819 0.0762 0.16067 0.0
O107 O 0.28085 0.09388 0.96975 0.0
O108 O 0.2393 0.07098 0.79298 0.0
O109 O 0.22288 0.02971 0.8318 0.0
O110 O 0.25293 0.02467 0.00454 0.0
O111 O 0.21494 0.99035 0.90921 0.0
H112 H 0.11578 0.98989 0.03156 0.0
H113 H 0.06692 0.97175 0.06323 0.0
H114 H 0.0502 0.9082 0.79281 0.0
H115 H 0.09874 0.92629 0.762 0.0
H116 H 0.32259 0.08254 0.96907 0.0
H117 H 0.37084 0.10081 0.01964 0.0
H118 H 0.36326 0.1445 0.33925 0.0
H119 H 0.31544 0.12646 0.28844 0.0
C120 C 0.78039 0.52438 0.20848 0.0
Eu121 Eu 0.74267 0.53457 0.28344 0.0
C122 C 0.79013 0.50515 0.22997 0.0
C123 C 0.77703 0.48331 0.31501 0.0
C124 C 0.78701 0.46553 0.33416 0.0
C125 C 0.81028 0.46939 0.26877 0.0
C126 C 0.82331 0.4914 0.18426 0.0
C127 C 0.81329 0.50903 0.16494 0.0
C128 C 0.7299 0.53752 0.53234 0.0
C129 C 0.68368 0.47934 0.3009 0.0
C130 C 0.65455 0.54772 0.41888 0.0
Eu131 Eu 0.69181 0.53905 0.32209 0.0
C132 C 0.64572 0.56737 0.44929 0.0
C133 C 0.65474 0.59146 0.38014 0.0
C134 C 0.64462 0.6088 0.40893 0.0
C135 C 0.62534 0.60227 0.5071 0.0
C136 C 0.61675 0.57829 0.57674 0.0
C137 C 0.62689 0.56111 0.54834 0.0
C138 C 0.70254 0.53325 0.07414 0.0
C139 C 0.74965 0.59383 0.26825 0.0
O140 O 0.75716 0.51525 0.14965 0.0
O141 O 0.78334 0.5405 0.30366 0.0
O142 O 0.75447 0.54848 0.49005 0.0
O143 O 0.71366 0.52455 0.4437 0.0
O144 O 0.70931 0.49088 0.26513 0.0
O145 O 0.6728 0.49379 0.34098 0.0
O146 O 0.67447 0.54883 0.48626 0.0
O147 O 0.65512 0.54161 0.29825 0.0
O148 O 0.67824 0.52357 0.11972 0.0
O149 O 0.7197 0.54723 0.15832 0.0
O150 O 0.72549 0.58347 0.32292 0.0
O151 O 0.7591 0.57813 0.22875 0.0
H152 H 0.75923 0.48012 0.36692 0.0
H153 H 0.77676 0.44902 0.4014 0.0
H154 H 0.84115 0.49483 0.13199 0.0
H155 H 0.82369 0.52579 0.09905 0.0
H156 H 0.66925 0.59665 0.3031 0.0
H157 H 0.65136 0.62695 0.35238 0.0
H158 H 0.60207 0.57277 0.65326 0.0
H159 H 0.61969 0.54263 0.60294 0.0
C160 C 0.55761 0.27722 0.22634 0.0
Eu161 Eu 0.54632 0.22854 0.29169 0.0
C162 C 0.57824 0.30596 0.24808 0.0
C163 C 0.5756 0.32052 0.35037 0.0
C164 C 0.59369 0.34816 0.36412 0.0
C165 C 0.61484 0.36197 0.27585 0.0
C166 C 0.61766 0.34737 0.17432 0.0
C167 C 0.59959 0.31972 0.16058 0.0
C168 C 0.54124 0.2104 0.53678 0.0
C169 C 0.60198 0.22512 0.30859 0.0
C170 C 0.5325 0.12642 0.40801 0.0
Eu171 Eu 0.54245 0.1735 0.32174 0.0
C172 C 0.51127 0.09798 0.43261 0.0
C173 C 0.50574 0.07785 0.34097 0.0
C174 C 0.48868 0.05059 0.37061 0.0
C175 C 0.47675 0.0427 0.49276 0.0
C176 C 0.48174 0.06284 0.58345 0.0
C177 C 0.49882 0.09014 0.55384 0.0
C178 C 0.54936 0.19204 0.07735 0.0
C179 C 0.48722 0.17695 0.27664 0.0
O180 O 0.56471 0.26252 0.15854 0.0
O181 O 0.54179 0.26382 0.32232 0.0
O182 O 0.53117 0.22494 0.49599 0.0
O183 O 0.55551 0.20833 0.45067 0.0
O184 O 0.59016 0.23909 0.27504 0.0
O185 O 0.5877 0.19965 0.3458 0.0
O186 O 0.53292 0.14528 0.48073 0.0
O187 O 0.53926 0.1343 0.28896 0.0
O188 O 0.55872 0.17693 0.1202 0.0
O189 O 0.53449 0.19415 0.16054 0.0
O190 O 0.498 0.16283 0.3239 0.0
O191 O 0.50261 0.20216 0.23854 0.0
H192 H 0.55924 0.3107 0.41876 0.0
H193 H 0.591 0.35881 0.44347 0.0
H194 H 0.63334 0.35747 0.10294 0.0
H195 H 0.60198 0.30926 0.07949 0.0
H196 H 0.51526 0.08306 0.24738 0.0
H197 H 0.48519 0.03557 0.29848 0.0
H198 H 0.47334 0.05747 0.67922 0.0
H199 H 0.50301 0.10502 0.62771 0.0
C200 C 0.8048 0.30353 0.22117 0.0
Eu201 Eu 0.85297 0.33986 0.2978 0.0
C202 C 0.77585 0.29479 0.24334 0.0
C203 C 0.76233 0.28038 0.35457 0.0
C204 C 0.73455 0.27039 0.36943 0.0
C205 C 0.71963 0.27462 0.27373 0.0
C206 C 0.73318 0.28925 0.16318 0.0
C207 C 0.76095 0.29918 0.14813 0.0
C208 C 0.86822 0.35156 0.54707 0.0
C209 C 0.85725 0.39912 0.3169 0.0
C210 C 0.95494 0.42575 0.43309 0.0
Eu211 Eu 0.90826 0.39003 0.33785 0.0
C212 C 0.98381 0.43355 0.45062 0.0
C213 C 1.00295 0.44726 0.35346 0.0
C214 C 1.03061 0.45817 0.37772 0.0
C215 C 0.03984 0.45584 0.4999 0.0
C216 C 1.02069 0.44109 0.59523 0.0
C217 C 0.99301 0.43022 0.57111 0.0
C218 C 0.89241 0.3785 0.08863 0.0
C219 C 0.90447 0.33131 0.29486 0.0
O220 O 0.81953 0.32647 0.16138 0.0
O221 O 0.81798 0.29964 0.31406 0.0
O222 O 0.854 0.32732 0.50271 0.0
O223 O 0.872 0.36845 0.46029 0.0
O224 O 0.84329 0.37377 0.27836 0.0
O225 O 0.8823 0.40945 0.36011 0.0
O226 O 0.93674 0.40499 0.49795 0.0
O227 O 0.94657 0.42759 0.3182 0.0
O228 O 0.90706 0.40291 0.13177 0.0
O229 O 0.88895 0.36182 0.17576 0.0
O230 O 0.91871 0.35612 0.34125 0.0
O231 O 0.87937 0.32186 0.25454 0.0
H232 H 0.77308 0.2764 0.42956 0.0
H233 H 0.72467 0.25924 0.45571 0.0
H234 H 0.72217 0.29237 0.08647 0.0
H235 H 0.77068 0.30983 0.06055 0.0
H236 H 0.99667 0.45036 0.25975 0.0
H237 H 0.04487 0.469 0.30155 0.0
H238 H 1.02718 0.439 0.6903 0.0
H239 H 0.97885 0.42006 0.64856 0.0
C240 C 0.44557 0.85683 0.54667 0.0
Eu241 Eu 0.40872 0.86834 0.62026 0.0
C242 C 0.4542 0.83659 0.5705 0.0
C243 C 0.46611 0.83576 0.68767 0.0
C244 C 0.47643 0.81826 0.7041 0.0
C245 C 0.47523 0.80128 0.60374 0.0
C246 C 0.46243 0.80138 0.48841 0.0
C247 C 0.45216 0.81893 0.47179 0.0
C248 C 0.3959 0.87062 0.86969 0.0
C249 C 0.34991 0.81256 0.63746 0.0
C250 C 0.32115 0.8819 0.75441 0.0
Eu251 Eu 0.35758 0.87172 0.65986 0.0
C252 C 0.31396 0.90328 0.77586 0.0
C253 C 0.29786 0.90743 0.68654 0.0
C254 C 0.2879 0.92482 0.71463 0.0
C255 C 0.2937 0.93845 0.83284 0.0
C256 C 0.31039 0.93488 0.92082 0.0
C257 C 0.32036 0.91747 0.89278 0.0
C258 C 0.36864 0.86705 0.41115 0.0
C259 C 0.41546 0.92732 0.61351 0.0
O260 O 0.42278 0.84876 0.48509 0.0
O261 O 0.44917 0.87378 0.6391 0.0
O262 O 0.42047 0.88202 0.82703 0.0
O263 O 0.37968 0.8575 0.7812 0.0
O264 O 0.37544 0.82459 0.59986 0.0
O265 O 0.33883 0.8266 0.68031 0.0
O266 O 0.34109 0.88298 0.8217 0.0
O267 O 0.32033 0.87334 0.63702 0.0
O268 O 0.3443 0.85668 0.45699 0.0
O269 O 0.38571 0.88107 0.49565 0.0
O270 O 0.39095 0.91603 0.66467 0.0
O271 O 0.42551 0.9123 0.57137 0.0
H272 H 0.46795 0.84897 0.76611 0.0
H273 H 0.48567 0.81823 0.79505 0.0
H274 H 0.46119 0.78854 0.40935 0.0
H275 H 0.44318 0.81917 0.38035 0.0
H276 H 0.29221 0.8966 0.59633 0.0
H277 H 0.27516 0.92721 0.64465 0.0
H278 H 0.31482 0.94464 0.0137 0.0
H279 H 0.33229 0.9144 0.96487 0.0
C280 C 0.22699 0.61021 0.5493 0.0
Eu281 Eu 0.2154 0.56185 0.62188 0.0
C282 C 0.24709 0.63904 0.5728 0.0
C283 C 0.24431 0.653 0.67754 0.0
C284 C 0.26196 0.68069 0.69294 0.0
C285 C 0.2828 0.69515 0.60406 0.0
C286 C 0.28575 0.68117 0.50006 0.0
C287 C 0.26811 0.65347 0.48462 0.0
C288 C 0.21276 0.54651 0.87147 0.0
C289 C 0.27072 0.55776 0.63743 0.0
C290 C 0.2002 0.46036 0.75945 0.0
Eu291 Eu 0.21091 0.50691 0.66247 0.0
C292 C 0.17895 0.43183 0.78188 0.0
C293 C 0.17382 0.41178 0.69035 0.0
C294 C 0.15656 0.38448 0.71895 0.0
C295 C 0.14402 0.37649 0.83982 0.0
C296 C 0.14865 0.39656 0.93031 0.0
C297 C 0.16594 0.42386 0.90182 0.0
C298 C 0.21595 0.52269 0.41352 0.0
C299 C 0.15585 0.51067 0.61301 0.0
O300 O 0.23517 0.59561 0.48779 0.0
O301 O 0.21004 0.59682 0.64182 0.0
O302 O 0.20166 0.55998 0.82853 0.0
O303 O 0.22576 0.54316 0.7831 0.0
O304 O 0.25892 0.57149 0.59944 0.0
O305 O 0.25638 0.53279 0.68154 0.0
O306 O 0.19883 0.47916 0.82502 0.0
O307 O 0.20909 0.46802 0.64228 0.0
O308 O 0.22576 0.50818 0.4596 0.0
O309 O 0.20215 0.52616 0.49787 0.0
O310 O 0.16652 0.4968 0.66457 0.0
O311 O 0.17152 0.53552 0.57089 0.0
H312 H 0.2282 0.64266 0.74671 0.0
H313 H 0.25918 0.69086 0.77417 0.0
H314 H 0.3012 0.69178 0.42823 0.0
H315 H 0.27057 0.64346 0.40179 0.0
H316 H 0.18375 0.41707 0.59772 0.0
H317 H 0.15338 0.36953 0.64703 0.0
H318 H 0.13978 0.3911 0.0252 0.0
H319 H 0.16984 0.43868 0.97562 0.0
C320 C 0.47404 0.63795 0.54369 0.0
Eu321 Eu 0.52215 0.67498 0.61878 0.0
C322 C 0.4449 0.62847 0.56616 0.0
C323 C 0.43143 0.61318 0.67561 0.0
C324 C 0.40354 0.60264 0.69082 0.0
C325 C 0.38843 0.60718 0.5973 0.0
C326 C 0.40189 0.62252 0.48816 0.0
C327 C 0.42976 0.63299 0.47273 0.0
C328 C 0.53747 0.68686 0.86804 0.0
C329 C 0.52596 0.73405 0.63911 0.0
C330 C 0.62305 0.76277 0.75555 0.0
Eu331 Eu 0.57728 0.72562 0.65901 0.0
C332 C 0.65227 0.77312 0.77311 0.0
C333 C 0.66905 0.80074 0.79568 0.0
C334 C 0.69651 0.81126 0.82215 0.0
C335 C 0.70792 0.7944 0.82636 0.0
C336 C 0.69112 0.76669 0.801 0.0
C337 C 0.66347 0.75612 0.77541 0.0
C338 C 0.56136 0.714 0.40965 0.0
C339 C 0.57468 0.6676 0.61381 0.0
O340 O 0.48838 0.66094 0.48364 0.0
O341 O 0.48757 0.63448 0.63626 0.0
O342 O 0.5234 0.6626 0.82386 0.0
O343 O 0.54103 0.70365 0.78114 0.0
O344 O 0.5121 0.70881 0.59825 0.0
O345 O 0.55066 0.74398 0.68557 0.0
O346 O 0.60624 0.74062 0.81647 0.0
O347 O 0.61445 0.76455 0.64129 0.0
O348 O 0.57595 0.73842 0.45278 0.0
O349 O 0.55806 0.69738 0.49674 0.0
O350 O 0.58855 0.6924 0.66069 0.0
O351 O 0.54928 0.65752 0.57585 0.0
H352 H 0.44232 0.60899 0.74901 0.0
H353 H 0.39376 0.59092 0.77594 0.0
H354 H 0.39076 0.62589 0.41294 0.0
H355 H 0.43938 0.64424 0.38627 0.0
H356 H 0.66077 0.81418 0.79532 0.0
H357 H 0.70874 0.83261 0.84196 0.0
H358 H 0.69932 0.7532 0.80059 0.0
H359 H 0.65083 0.73471 0.75888 0.0
C360 C 0.12328 0.30239 0.87887 0.0
C361 C 0.09749 0.2908 0.93613 0.0
C362 C 0.13796 0.32993 0.8482 0.0
C363 C 0.12766 0.34726 0.87364 0.0
H364 H 0.13228 0.2901 0.85632 0.0
H365 H 0.15773 0.33775 0.8049 0.0
S366 S 0.06104 0.32744 0.02017 0.0
N367 N 0.06226 0.2992 0.01635 0.0
N368 N 0.08988 0.35086 0.95798 0.0
C369 C 0.10203 0.33613 0.93157 0.0
C370 C 0.08696 0.30799 0.96282 0.0
C371 C 0.78398 0.84274 0.83072 0.0
C372 C 0.79373 0.83104 0.9199 0.0
C373 C 0.75643 0.83052 0.79985 0.0
C374 C 0.73726 0.80608 0.85712 0.0
H375 H 0.79777 0.86144 0.78282 0.0
H376 H 0.75011 0.84031 0.72973 0.0
S377 S 0.75188 0.76758 0.10119 0.0
N378 N 0.78175 0.79369 0.06721 0.0
N379 N 0.72994 0.771 0.01081 0.0
C380 C 0.74665 0.79413 0.94682 0.0
C381 C 0.77481 0.80654 0.9779 0.0
C382 C 0.23987 0.95857 0.87875 0.0
C383 C 0.25426 0.98482 0.92984 0.0
C384 C 0.25281 0.94391 0.84804 0.0
C385 C 0.28075 0.95475 0.86711 0.0
H386 H 0.21835 0.94917 0.86118 0.0
H387 H 0.24073 0.92377 0.80961 0.0
S388 S 0.32809 1.02271 -0.00386 0.0
N389 N 0.29836 1.02107 -0.00232 0.0
N390 N 0.32258 0.99348 0.93897 0.0
C391 C 0.29545 0.98085 0.91905 0.0
C392 C 0.28226 0.99587 0.95051 0.0
C393 C 0.44144 0.13541 0.25079 0.0
C394 C 0.45746 0.16374 0.25593 0.0
C395 C 0.41352 0.12272 0.22514 0.0
C396 C 0.4005 0.13787 0.20581 0.0
H397 H 0.45057 0.1229 0.26472 0.0
H398 H 0.40198 0.10091 0.22184 0.0
S399 S 0.43293 0.21244 0.20858 0.0
N400 N 0.45785 0.20643 0.23909 0.0
N401 N 0.40569 0.18259 0.19134 0.0
C402 C 0.4162 0.16612 0.21101 0.0
C403 C 0.44456 0.17903 0.23595 0.0
C404 C 0.94607 0.32676 0.27262 0.0
C405 C 0.91766 0.31471 0.27414 0.0
C406 C 0.9588 0.31161 0.24553 0.0
C407 C 0.9436 0.28378 0.22098 0.0
H408 H 0.95864 0.34816 0.29032 0.0
H409 H 0.98068 0.32169 0.24504 0.0
S410 S 0.86882 0.24241 0.21223 0.0
N411 N 0.87484 0.27301 0.24791 0.0
N412 N 0.89876 0.24485 0.1976 0.0
C413 C 0.91527 0.27148 0.22259 0.0
C414 C 0.90232 0.28684 0.24902 0.0
C415 C 0.7779 0.67006 0.2797 0.0
C416 C 0.79612 0.67949 0.17566 0.0
C417 C 0.76259 0.64234 0.30865 0.0
C418 C 0.76514 0.62306 0.23526 0.0
H419 H 0.77597 0.68426 0.34121 0.0
H420 H 0.74918 0.63604 0.39078 0.0
S421 S 0.80709 0.637 0.94173 0.0
N422 N 0.8135 0.66701 0.99118 0.0
N423 N 0.78544 0.61535 0.0463 0.0
C424 C 0.78254 0.63222 0.12817 0.0
C425 C 0.79783 0.66028 0.09823 0.0
C426 C 0.10913 0.46972 0.61753 0.0
C427 C 0.12609 0.49726 0.58871 0.0
C428 C 0.0813 0.45644 0.58929 0.0
C429 C 0.06933 0.4701 0.53006 0.0
H430 H 0.1174 0.45815 0.66106 0.0
H431 H 0.06914 0.43521 0.61216 0.0
S432 S 0.10393 0.54264 0.44346 0.0
N433 N 0.12811 0.53796 0.50314 0.0
N434 N 0.07613 0.51298 0.45079 0.0
C435 C 0.08585 0.49768 0.50312 0.0
C436 C 0.11409 0.51125 0.53229 0.0
C437 C 0.57282 0.6236 0.56943 0.0
C438 C 0.58842 0.65157 0.59081 0.0
C439 C 0.58495 0.60797 0.5428 0.0
C440 C 0.61322 0.61962 0.53475 0.0
H441 H 0.55097 0.61358 0.5734 0.0
H442 H 0.57201 0.58656 0.52677 0.0
S443 S 0.66343 0.6919 0.58215 0.0
N444 N 0.63391 0.69025 0.60138 0.0
N445 N 0.65657 0.6608 0.55165 0.0
C446 C 0.62912 0.64753 0.55555 0.0
C447 C 0.61678 0.66348 0.5838 0.0
C448 C 0.4709 0.99621 0.49921 0.0
C449 C 0.46066 1.01351 0.52732 0.0
C450 C 0.4564 0.96868 0.52992 0.0
C451 C 0.43089 0.95705 0.58988 0.0
H452 H 0.49045 1.00407 0.45362 0.0
H453 H 0.46531 0.95641 0.50514 0.0
S454 S 0.3948 0.9936 0.68245 0.0
N455 N 0.4233 1.01704 0.61761 0.0
N456 N 0.39603 0.96539 0.6762 0.0
C457 C 0.42046 0.9742 0.61949 0.0
C458 C 0.43533 1.00234 0.58819 0.0
C459 C 0.19192 0.1103 0.97863 0.0
C460 C 0.17631 0.08208 0.96625 0.0
C461 C 0.1801 0.12671 0.97195 0.0
C462 C 0.15212 0.11567 0.95287 0.0
H463 H 0.2136 0.11996 0.99194 0.0
H464 H 0.19311 0.14833 0.97952 0.0
S465 S 0.10171 0.04289 0.92471 0.0
N466 N 0.13094 0.04374 0.93976 0.0
N467 N 0.10883 0.07462 0.92902 0.0
C468 C 0.13614 0.08748 0.94273 0.0
C469 C 0.14818 0.07071 0.94908 0.0
C470 C 0.95511 0.07552 0.97062 0.0
C471 C 0.96642 0.05867 0.95718 0.0
C472 C 0.97143 0.10361 0.98073 0.0
C473 C 0.99983 0.11618 0.97641 0.0
H474 H 0.93337 0.06689 0.9732 0.0
H475 H 0.96159 0.11557 0.98972 0.0
S476 S 0.03963 0.08107 0.9444 0.0
N477 N 1.00783 0.05655 0.94171 0.0
N478 N 0.03858 0.10924 0.96069 0.0
C479 C 1.01145 0.0995 0.96458 0.0
C480 C 0.99477 0.07082 0.95527 0.0
C481 C 0.98452 0.93066 0.95261 0.0
C482 C 0.96774 0.90302 0.98019 0.0
C483 C 1.01269 0.94213 0.94059 0.0
C484 C 1.02519 0.92637 0.9541 0.0
H485 H 0.97586 0.9436 0.93896 0.0
H486 H 1.0247 0.96335 0.91719 0.0
S487 S 0.99107 0.8535 0.0337 0.0
N488 N 0.96629 0.86049 0.02582 0.0
N489 N 1.01899 0.88212 0.00318 0.0
C490 C 1.00883 0.89892 0.98448 0.0
C491 C 0.98022 0.88725 -0.0024 0.0
C492 C 0.84909 0.46138 0.3118 0.0
C493 C 0.82132 0.45082 0.28802 0.0
C494 C 0.86036 0.44452 0.32374 0.0
C495 C 0.84439 0.41634 0.31111 0.0
H496 H 0.86231 0.48294 0.32092 0.0
H497 H 0.8819 0.45379 0.34057 0.0
S498 S 0.77027 0.37846 0.25054 0.0
N499 N 0.77798 0.41037 0.25378 0.0
N500 N 0.79891 0.37861 0.27652 0.0
C501 C 0.81642 0.40547 0.28918 0.0
C502 C 0.80496 0.42269 0.27782 0.0
C503 C 0.63852 0.43685 0.31181 0.0
C504 C 0.66679 0.44932 0.29777 0.0
C505 C 0.62202 0.40871 0.30607 0.0
C506 C 0.63303 0.39175 0.28624 0.0
H507 H 0.62891 0.4489 0.32557 0.0
H508 H 0.60036 0.40019 0.31477 0.0
S509 S 0.70593 0.41376 0.25472 0.0
N510 N 0.70513 0.44209 0.26967 0.0
N511 N 0.67411 0.38935 0.26062 0.0
C512 C 0.66127 0.40383 0.27486 0.0
C513 C 0.67812 0.43251 0.28031 0.0
C514 C 0.64521 0.22362 0.32861 0.0
C515 C 0.6321 0.23855 0.30389 0.0
C516 C 0.67344 0.23552 0.32051 0.0
C517 C 0.68982 0.26284 0.28692 0.0
H518 H 0.63359 0.20242 0.35296 0.0
H519 H 0.68249 0.22305 0.33812 0.0
S520 S 0.66617 0.31157 0.22169 0.0
N521 N 0.63823 0.2828 0.25 0.0
N522 N 0.69111 0.30492 0.23581 0.0
C523 C 0.67715 0.27818 0.26446 0.0
C524 C 0.6484 0.26613 0.2728 0.0
C525 C 0.48629 0.74073 0.59246 0.0
C526 C 0.51325 0.75145 0.63432 0.0
C527 C 0.47409 0.75683 0.58367 0.0
C528 C 0.48823 0.7843 0.61707 0.0
H529 H 0.47445 0.71971 0.56554 0.0
H530 H 0.45334 0.74766 0.55093 0.0
S531 S 0.55947 0.82278 0.72736 0.0
N532 N 0.55382 0.79179 0.70705 0.0
N533 N 0.53088 0.82179 0.68961 0.0
C534 C 0.51513 0.79533 0.65893 0.0
C535 C 0.52762 0.77901 0.66772 0.0
C536 C 0.28911 0.7414 0.64007 0.0
C537 C 0.30055 0.72494 0.61667 0.0
C538 C 0.3052 0.76957 0.64794 0.0
C539 C 0.33346 0.78254 0.6326 0.0
H540 H 0.26742 0.73248 0.64989 0.0
H541 H 0.29526 0.78125 0.6643 0.0
S542 S 0.37368 0.74837 0.58042 0.0
N543 N 0.34206 0.72353 0.58626 0.0
N544 N 0.37231 0.77632 0.59958 0.0
C545 C 0.34523 0.76623 0.6117 0.0
C546 C 0.32881 0.73752 0.60399 0.0
C547 C 0.34216 0.56781 0.6428 0.0
C548 C 0.35858 0.59528 0.61173 0.0
C549 C 0.31391 0.55594 0.65224 0.0
C550 C 0.30084 0.57103 0.63128 0.0
H551 H 0.35118 0.55522 0.65744 0.0
H552 H 0.30224 0.53464 0.67445 0.0
S553 S 0.33503 0.64449 0.55883 0.0
N554 N 0.35991 0.63767 0.5683 0.0
N555 N 0.30708 0.61562 0.58514 0.0
C556 C 0.31719 0.59875 0.60314 0.0
C557 C 0.34592 0.61078 0.5935 0.0
C558 C 0.06829 0.21735 0.57416 0.0
C559 C 0.04173 0.20056 0.6183 0.0
C560 C 0.07477 0.21853 0.44341 0.0
C561 C 0.05497 0.20289 0.35189 0.0
H562 H 0.0842 0.2299 0.64087 0.0
H563 H 0.09544 0.2319 0.41389 0.0
S564 S 0.98267 0.15456 0.41873 0.0
N565 N 0.99567 0.16732 0.56053 0.0
N566 N 1.00786 0.16925 0.31562 0.0
C567 C 1.02842 0.18568 0.39509 0.0
C568 C 1.02181 0.18457 0.52807 0.0
C569 C 0.86268 0.84391 0.5357 0.0
C570 C 0.88321 0.86342 0.61377 0.0
C571 C 0.86105 0.84887 0.40455 0.0
C572 C 0.87988 0.87347 0.34799 0.0
H573 H 0.84777 0.82478 0.57646 0.0
H574 H 0.8449 0.83346 0.34725 0.0
S575 S 0.93752 0.93079 0.51089 0.0
N576 N 0.92286 0.90794 0.62514 0.0
N577 N 0.91965 0.91737 0.37912 0.0
C578 C 0.90049 0.89304 0.42498 0.0
C579 C 0.90219 0.88797 0.55807 0.0
C580 C 0.20931 1.01365 0.56537 0.0
C581 C 0.21925 0.0402 0.60917 0.0
C582 C 0.20389 1.00716 0.43465 0.0
C583 C 0.20811 0.02696 0.34272 0.0
H584 H 0.20588 0.99773 0.63239 0.0
H585 H 0.19645 0.98649 0.40545 0.0
S586 S 0.2326 0.09929 0.40849 0.0
N587 N 0.23235 0.08629 0.55054 0.0
N588 N 0.22186 0.07409 0.30577 0.0
C589 C 0.21764 0.05351 0.38559 0.0
C590 C 0.22327 0.06014 0.51853 0.0
C591 C 0.74234 0.55059 0.76226 0.0
C592 C 0.72236 0.53587 0.66976 0.0
C593 C 0.7358 0.54927 0.89299 0.0
C594 C 0.70903 0.53336 0.93623 0.0
H595 H 0.76319 0.56328 0.73357 0.0
H596 H 0.75189 0.56101 0.96049 0.0
S597 S 0.6494 0.48993 0.73394 0.0
N598 N 0.67481 0.50395 0.63166 0.0
N599 N 0.66254 0.50191 0.87652 0.0
C600 C 0.68891 0.51829 0.84505 0.0
C601 C 0.69559 0.51948 0.71209 0.0
C602 C 0.52637 0.18088 0.73048 0.0
C603 C 0.54387 0.20593 0.67384 0.0
C604 C 0.52833 0.17644 0.86183 0.0
C605 C 0.54785 0.19695 0.93977 0.0
H606 H 0.51099 0.16472 0.67318 0.0
H607 H 0.51444 0.15694 0.90289 0.0
S608 S 0.59885 0.26572 0.83607 0.0
N609 N 0.58148 0.25127 0.70428 0.0
N610 N 0.58539 0.24278 0.95081 0.0
C611 C 0.56561 0.22193 0.88387 0.0
C612 C 0.56355 0.22647 0.75061 0.0
C613 C 0.88756 0.38507 0.72695 0.0
C614 C 0.87426 0.3581 0.68516 0.0
C615 C 0.89318 0.39153 0.85772 0.0
C616 C 0.88566 0.37126 0.95144 0.0
H617 H 0.89367 0.40133 0.65825 0.0
H618 H 0.90358 0.41256 0.88539 0.0
S619 S 0.84996 0.29746 0.89221 0.0
N620 N 0.85355 0.31098 0.74834 0.0
N621 N 0.86383 0.32306 0.99286 0.0
C622 C 0.87217 0.34422 0.91077 0.0
C623 C 0.86656 0.33766 0.77796 0.0
C624 C 0.40185 0.88321 0.2297 0.0
C625 C 0.37512 0.86716 0.27325 0.0
C626 C 0.40836 0.88426 0.09904 0.0
C627 C 0.3884 0.86921 0.007 0.0
H628 H 0.4179 0.89526 0.29686 0.0
H629 H 0.42918 0.89702 0.07002 0.0
S630 S 0.31552 0.82311 0.07198 0.0
N631 N 0.32867 0.83536 0.21422 0.0
N632 N 0.34089 0.83709 0.96948 0.0
C633 C 0.36166 0.85281 0.04957 0.0
C634 C 0.35502 0.85182 0.18245 0.0
C635 C 0.19928 0.5457 0.10077 0.0
C636 C 0.21405 0.54034 0.0089 0.0
C637 C 0.20025 0.54022 0.23158 0.0
C638 C 0.21594 0.52907 0.27547 0.0
H639 H 0.18679 0.55414 0.07151 0.0
H640 H 0.18841 0.54458 0.29859 0.0
S641 S 0.25916 0.51218 0.0747 0.0
N642 N 0.24552 0.52398 0.97184 0.0
N643 N 0.2471 0.51346 0.2169 0.0
C644 C 0.23101 0.52384 0.18482 0.0
C645 C 0.2301 0.52951 0.05178 0.0
C646 C 0.56198 0.72695 0.17865 0.0
C647 C 0.5547 0.70673 0.27241 0.0
C648 C 0.55644 0.72044 0.04784 0.0
C649 C 0.54349 0.69347 0.00609 0.0
H650 H 0.57209 0.74798 0.20632 0.0
H651 H 0.56235 0.73666 0.97909 0.0
S652 S 0.52002 0.63295 0.21317 0.0
N653 N 0.53352 0.65857 0.31384 0.0
N654 N 0.52343 0.64642 0.06929 0.0
C655 C 0.53607 0.67309 0.09892 0.0
C656 C 0.54157 0.67969 0.23174 0.0
loop_
_geom_bond_atom_site_label_1
_geom_bond_atom_site_label_2
_geom_bond_distance
_geom_bond_site_symmetry_2
_ccdc_geom_bond_type
C0 Eu1 2.835 1_556 S
C0 C2 1.500 . S
C0 O20 1.257 . S
C0 O21 1.260 1_556 S
Eu1 C0 2.835 1_554 S
Eu1 O20 2.473 1_554 S
Eu1 O21 2.480 . S
Eu1 O22 2.430 . S
Eu1 O23 2.670 . S
Eu1 O24 2.394 . S
Eu1 O29 2.355 1_554 S
Eu1 O31 2.374 1_554 S
C2 C0 1.500 . S
C2 C3 1.377 1_556 S
C2 C7 1.377 . S
C3 C2 1.377 1_554 S
C3 C4 1.395 . S
C3 H32 0.931 . S
C4 C3 1.395 . S
C4 C5 1.383 1_554 S
C4 H33 0.931 . S
C5 C4 1.383 1_556 S
C5 C6 1.394 . S
C6 C5 1.394 . S
C6 C7 1.378 . S
C6 H34 0.931 . S
C7 C2 1.377 . S
C7 C6 1.378 . S
C7 H35 0.931 . S
C8 O22 1.259 . S
C8 O23 1.270 . S
C9 O24 1.251 1_655 S
C9 O25 1.251 . S
C10 Eu11 2.835 1_554 S
C10 C12 1.500 . S
C10 O26 1.257 . S
C10 O27 1.260 1_554 S
Eu11 C10 2.835 1_556 S
Eu11 O23 2.355 1_656 S
Eu11 O25 2.374 1_556 S
Eu11 O26 2.473 1_556 S
Eu11 O27 2.480 . S
Eu11 O28 2.430 . S
Eu11 O29 2.670 1_655 S
Eu11 O30 2.394 1_655 S
C12 C10 1.500 . S
C12 C13 1.377 1_554 S
C12 C17 1.377 . S
C13 C12 1.377 1_556 S
C13 C14 1.395 . S
C13 H36 0.931 . S
C14 C13 1.395 . S
C14 C15 1.383 1_556 S
C14 H37 0.931 . S
C15 C14 1.383 1_554 S
C15 C16 1.394 . S
C16 C15 1.394 . S
C16 C17 1.378 . S
C16 H38 0.931 . S
C17 C12 1.377 . S
C17 C16 1.378 . S
C17 H39 0.931 . S
C18 O28 1.259 1_455 S
C18 O29 1.270 . S
C19 O30 1.251 . S
C19 O31 1.251 . S
O20 C0 1.257 . S
O20 Eu1 2.473 1_556 S
O21 C0 1.260 1_554 S
O21 Eu1 2.480 . S
O22 Eu1 2.430 . S
O22 C8 1.259 . S
O23 Eu1 2.670 . S
O23 C8 1.270 . S
O23 Eu11 2.355 1_454 S
O24 Eu1 2.394 . S
O24 C9 1.251 1_455 S
O25 C9 1.251 . S
O25 Eu11 2.374 1_554 S
O26 C10 1.257 . S
O26 Eu11 2.473 1_554 S
O27 C10 1.260 1_556 S
O27 Eu11 2.480 . S
O28 Eu11 2.430 . S
O28 C18 1.259 1_655 S
O29 Eu1 2.355 1_556 S
O29 Eu11 2.670 1_455 S
O29 C18 1.270 . S
O30 Eu11 2.394 1_455 S
O30 C19 1.251 . S
O31 Eu1 2.374 1_556 S
O31 C19 1.251 . S
H32 C3 0.931 . S
H33 C4 0.931 . S
H34 C6 0.931 . S
H35 C7 0.931 . S
H36 C13 0.931 . S
H37 C14 0.931 . S
H38 C16 0.931 . S
H39 C17 0.931 . S
C40 Eu41 2.835 1_556 S
C40 C42 1.500 . S
C40 O60 1.257 . S
C40 O61 1.260 1_556 S
Eu41 C40 2.835 1_554 S
Eu41 O60 2.473 1_554 S
Eu41 O61 2.480 . S
Eu41 O62 2.430 . S
Eu41 O63 2.670 . S
Eu41 O64 2.394 . S
Eu41 O69 2.355 1_554 S
Eu41 O71 2.374 1_554 S
C42 C40 1.500 . S
C42 C43 1.377 1_556 S
C42 C47 1.377 . S
C43 C42 1.377 1_554 S
C43 C44 1.419 . S
C43 H72 0.931 . S
C44 C43 1.419 . S
C44 C45 1.381 1_564 S
C44 H73 0.911 1_565 S
C45 C44 1.381 1_546 S
C45 C46 1.394 1_545 S
C46 C45 1.394 1_565 S
C46 C47 1.378 . S
C46 H74 0.931 . S
C47 C42 1.377 . S
C47 C46 1.378 . S
C47 H75 0.931 . S
C48 O62 1.259 . S
C48 O63 1.270 . S
C49 O64 1.251 . S
C49 O65 1.251 . S
C50 Eu51 2.835 1_554 S
C50 C52 1.500 . S
C50 O66 1.257 . S
C50 O67 1.260 1_554 S
Eu51 C50 2.835 1_556 S
Eu51 O63 2.355 1_556 S
Eu51 O65 2.374 1_556 S
Eu51 O66 2.473 1_556 S
Eu51 O67 2.480 . S
Eu51 O68 2.430 . S
Eu51 O69 2.670 . S
Eu51 O70 2.394 . S
C52 C50 1.500 . S
C52 C53 1.377 1_554 S
C52 C57 1.377 . S
C53 C52 1.377 1_556 S
C53 C54 1.395 . S
C53 H76 0.931 . S
C54 C53 1.395 . S
C54 C55 1.383 1_556 S
C54 H77 0.931 . S
C55 C54 1.383 1_554 S
C55 C56 1.394 . S
C56 C55 1.394 . S
C56 C57 1.378 . S
C56 H78 0.931 . S
C57 C52 1.377 . S
C57 C56 1.378 . S
C57 H79 0.931 . S
C58 O68 1.259 . S
C58 O69 1.270 . S
C59 O70 1.251 . S
C59 O71 1.251 . S
O60 C40 1.257 . S
O60 Eu41 2.473 1_556 S
O61 C40 1.260 1_554 S
O61 Eu41 2.480 . S
O62 Eu41 2.430 . S
O62 C48 1.259 . S
O63 Eu41 2.670 . S
O63 C48 1.270 . S
O63 Eu51 2.355 1_554 S
O64 Eu41 2.394 . S
O64 C49 1.251 . S
O65 C49 1.251 . S
O65 Eu51 2.374 1_554 S
O66 C50 1.257 . S
O66 Eu51 2.473 1_554 S
O67 C50 1.260 1_556 S
O67 Eu51 2.480 . S
O68 Eu51 2.430 . S
O68 C58 1.259 . S
O69 Eu41 2.355 1_556 S
O69 Eu51 2.670 . S
O69 C58 1.270 . S
O70 Eu51 2.394 . S
O70 C59 1.251 . S
O71 Eu41 2.374 1_556 S
O71 C59 1.251 . S
H72 C43 0.931 . S
H73 C44 0.911 1_545 S
H74 C46 0.931 . S
H75 C47 0.931 . S
H76 C53 0.931 . S
H77 C54 0.931 . S
H78 C56 0.931 . S
H79 C57 0.931 . S
C80 Eu81 2.835 1_556 S
C80 C82 1.500 . S
C80 O100 1.257 . S
C80 O101 1.260 1_556 S
Eu81 C80 2.835 1_554 S
Eu81 O100 2.473 1_554 S
Eu81 O101 2.480 . S
Eu81 O102 2.430 . S
Eu81 O103 2.670 1_565 S
Eu81 O104 2.394 1_565 S
Eu81 O109 2.355 1_564 S
Eu81 O111 2.374 1_554 S
C82 C80 1.500 . S
C82 C83 1.377 1_556 S
C82 C87 1.377 . S
C83 C82 1.377 1_554 S
C83 C84 1.395 . S
C83 H112 0.931 . S
C84 C83 1.395 . S
C84 C85 1.383 1_554 S
C84 H113 0.931 . S
C85 C84 1.383 1_556 S
C85 C86 1.394 . S
C86 C85 1.394 . S
C86 C87 1.378 . S
C86 H114 0.931 . S
C87 C82 1.377 . S
C87 C86 1.378 . S
C87 H115 0.931 . S
C88 O102 1.259 1_545 S
C88 O103 1.270 . S
C89 O104 1.251 . S
C89 O105 1.251 . S
C90 Eu91 2.835 1_554 S
C90 C92 1.500 . S
C90 O106 1.257 . S
C90 O107 1.260 1_554 S
Eu91 C90 2.835 1_556 S
Eu91 O103 2.355 1_556 S
Eu91 O105 2.374 1_556 S
Eu91 O106 2.473 1_556 S
Eu91 O107 2.480 . S
Eu91 O108 2.430 . S
Eu91 O109 2.670 . S
Eu91 O110 2.394 . S
C92 C90 1.500 . S
C92 C93 1.377 1_554 S
C92 C97 1.377 . S
C93 C92 1.377 1_556 S
C93 C94 1.395 . S
C93 H116 0.931 . S
C94 C93 1.395 . S
C94 C95 1.383 1_556 S
C94 H117 0.931 . S
C95 C94 1.383 1_554 S
C95 C96 1.394 . S
C96 C95 1.394 . S
C96 C97 1.378 . S
C96 H118 0.931 . S
C97 C92 1.377 . S
C97 C96 1.378 . S
C97 H119 0.931 . S
C98 O108 1.259 . S
C98 O109 1.270 . S
C99 O110 1.251 1_565 S
C99 O111 1.251 . S
O100 C80 1.257 . S
O100 Eu81 2.473 1_556 S
O101 C80 1.260 1_554 S
O101 Eu81 2.480 . S
O102 Eu81 2.430 . S
O102 C88 1.259 1_565 S
O103 Eu81 2.670 1_545 S
O103 C88 1.270 . S
O103 Eu91 2.355 1_554 S
O104 Eu81 2.394 1_545 S
O104 C89 1.251 . S
O105 C89 1.251 . S
O105 Eu91 2.374 1_554 S
O106 C90 1.257 . S
O106 Eu91 2.473 1_554 S
O107 C90 1.260 1_556 S
O107 Eu91 2.480 . S
O108 Eu91 2.430 . S
O108 C98 1.259 . S
O109 Eu81 2.355 1_546 S
O109 Eu91 2.670 . S
O109 C98 1.270 . S
O110 Eu91 2.394 . S
O110 C99 1.251 1_545 S
O111 Eu81 2.374 1_556 S
O111 C99 1.251 . S
H112 C83 0.931 . S
H113 C84 0.931 . S
H114 C86 0.931 . S
H115 C87 0.931 . S
H116 C93 0.931 . S
H117 C94 0.931 . S
H118 C96 0.931 . S
H119 C97 0.931 . S
C120 Eu121 2.835 . S
C120 C122 1.500 . S
C120 O140 1.257 . S
C120 O141 1.260 . S
Eu121 C120 2.835 . S
Eu121 O140 2.473 . S
Eu121 O141 2.480 . S
Eu121 O142 2.430 . S
Eu121 O143 2.670 . S
Eu121 O144 2.394 . S
Eu121 O149 2.355 . S
Eu121 O151 2.374 . S
C122 C120 1.500 . S
C122 C123 1.377 . S
C122 C127 1.377 . S
C123 C122 1.377 . S
C123 C124 1.395 . S
C123 H152 0.931 . S
C124 C123 1.395 . S
C124 C125 1.383 . S
C124 H153 0.931 . S
C125 C124 1.383 . S
C125 C126 1.394 . S
C126 C125 1.394 . S
C126 C127 1.378 . S
C126 H154 0.931 . S
C127 C122 1.377 . S
C127 C126 1.378 . S
C127 H155 0.931 . S
C128 O142 1.259 . S
C128 O143 1.270 . S
C129 O144 1.251 . S
C129 O145 1.251 . S
C130 Eu131 2.835 . S
C130 C132 1.500 . S
C130 O146 1.257 . S
C130 O147 1.260 . S
Eu131 C130 2.835 . S
Eu131 O143 2.355 . S
Eu131 O145 2.374 . S
Eu131 O146 2.473 . S
Eu131 O147 2.480 . S
Eu131 O148 2.430 . S
Eu131 O149 2.670 . S
Eu131 O150 2.394 . S
C132 C130 1.500 . S
C132 C133 1.377 . S
C132 C137 1.377 . S
C133 C132 1.377 . S
C133 C134 1.395 . S
C133 H156 0.931 . S
C134 C133 1.395 . S
C134 C135 1.383 . S
C134 H157 0.931 . S
C135 C134 1.383 . S
C135 C136 1.394 . S
C136 C135 1.394 . S
C136 C137 1.378 . S
C136 H158 0.931 . S
C137 C132 1.377 . S
C137 C136 1.378 . S
C137 H159 0.931 . S
C138 O148 1.259 . S
C138 O149 1.270 . S
C139 O150 1.251 . S
C139 O151 1.251 . S
O140 C120 1.257 . S
O140 Eu121 2.473 . S
O141 C120 1.260 . S
O141 Eu121 2.480 . S
O142 Eu121 2.430 . S
O142 C128 1.259 . S
O143 Eu121 2.670 . S
O143 C128 1.270 . S
O143 Eu131 2.355 . S
O144 Eu121 2.394 . S
O144 C129 1.251 . S
O145 C129 1.251 . S
O145 Eu131 2.374 . S
O146 C130 1.257 . S
O146 Eu131 2.473 . S
O147 C130 1.260 . S
O147 Eu131 2.480 . S
O148 Eu131 2.430 . S
O148 C138 1.259 . S
O149 Eu121 2.355 . S
O149 Eu131 2.670 . S
O149 C138 1.270 . S
O150 Eu131 2.394 . S
O150 C139 1.251 . S
O151 Eu121 2.374 . S
O151 C139 1.251 . S
H152 C123 0.931 . S
H153 C124 0.931 . S
H154 C126 0.931 . S
H155 C127 0.931 . S
H156 C133 0.931 . S
H157 C134 0.931 . S
H158 C136 0.931 . S
H159 C137 0.931 . S
C160 Eu161 2.835 . S
C160 C162 1.500 . S
C160 O180 1.257 . S
C160 O181 1.260 . S
Eu161 C160 2.835 . S
Eu161 O180 2.473 . S
Eu161 O181 2.480 . S
Eu161 O182 2.430 . S
Eu161 O183 2.670 . S
Eu161 O184 2.394 . S
Eu161 O189 2.355 . S
Eu161 O191 2.374 . S
C162 C160 1.500 . S
C162 C163 1.377 . S
C162 C167 1.377 . S
C163 C162 1.377 . S
C163 C164 1.395 . S
C163 H192 0.931 . S
C164 C163 1.395 . S
C164 C165 1.383 . S
C164 H193 0.931 . S
C165 C164 1.383 . S
C165 C166 1.394 . S
C166 C165 1.394 . S
C166 C167 1.378 . S
C166 H194 0.931 . S
C167 C162 1.377 . S
C167 C166 1.378 . S
C167 H195 0.931 . S
C168 O182 1.259 . S
C168 O183 1.270 . S
C169 O184 1.251 . S
C169 O185 1.251 . S
C170 Eu171 2.835 . S
C170 C172 1.500 . S
C170 O186 1.257 . S
C170 O187 1.260 . S
Eu171 C170 2.835 . S
Eu171 O183 2.355 . S
Eu171 O185 2.374 . S
Eu171 O186 2.473 . S
Eu171 O187 2.480 . S
Eu171 O188 2.430 . S
Eu171 O189 2.670 . S
Eu171 O190 2.394 . S
C172 C170 1.500 . S
C172 C173 1.377 . S
C172 C177 1.377 . S
C173 C172 1.377 . S
C173 C174 1.395 . S
C173 H196 0.931 . S
C174 C173 1.395 . S
C174 C175 1.383 . S
C174 H197 0.931 . S
C175 C174 1.383 . S
C175 C176 1.394 . S
C176 C175 1.394 . S
C176 C177 1.378 . S
C176 H198 0.931 . S
C177 C172 1.377 . S
C177 C176 1.378 . S
C177 H199 0.931 . S
C178 O188 1.259 . S
C178 O189 1.270 . S
C179 O190 1.251 . S
C179 O191 1.251 . S
O180 C160 1.257 . S
O180 Eu161 2.473 . S
O181 C160 1.260 . S
O181 Eu161 2.480 . S
O182 Eu161 2.430 . S
O182 C168 1.259 . S
O183 Eu161 2.670 . S
O183 C168 1.270 . S
O183 Eu171 2.355 . S
O184 Eu161 2.394 . S
O184 C169 1.251 . S
O185 C169 1.251 . S
O185 Eu171 2.374 . S
O186 C170 1.257 . S
O186 Eu171 2.473 . S
O187 C170 1.260 . S
O187 Eu171 2.480 . S
O188 Eu171 2.430 . S
O188 C178 1.259 . S
O189 Eu161 2.355 . S
O189 Eu171 2.670 . S
O189 C178 1.270 . S
O190 Eu171 2.394 . S
O190 C179 1.251 . S
O191 Eu161 2.374 . S
O191 C179 1.251 . S
H192 C163 0.931 . S
H193 C164 0.931 . S
H194 C166 0.931 . S
H195 C167 0.931 . S
H196 C173 0.931 . S
H197 C174 0.931 . S
H198 C176 0.931 . S
H199 C177 0.931 . S
C200 Eu201 2.835 . S
C200 C202 1.500 . S
C200 O220 1.257 . S
C200 O221 1.260 . S
Eu201 C200 2.835 . S
Eu201 O220 2.473 . S
Eu201 O221 2.480 . S
Eu201 O222 2.430 . S
Eu201 O223 2.670 . S
Eu201 O224 2.394 . S
Eu201 O229 2.355 . S
Eu201 O231 2.374 . S
C202 C200 1.500 . S
C202 C203 1.377 . S
C202 C207 1.377 . S
C203 C202 1.377 . S
C203 C204 1.395 . S
C203 H232 0.931 . S
C204 C203 1.395 . S
C204 C205 1.383 . S
C204 H233 0.931 . S
C205 C204 1.383 . S
C205 C206 1.394 . S
C206 C205 1.394 . S
C206 C207 1.378 . S
C206 H234 0.931 . S
C207 C202 1.377 . S
C207 C206 1.378 . S
C207 H235 0.931 . S
C208 O222 1.259 . S
C208 O223 1.270 . S
C209 O224 1.251 . S
C209 O225 1.251 . S
C210 Eu211 2.835 . S
C210 C212 1.500 . S
C210 O226 1.257 . S
C210 O227 1.260 . S
Eu211 C210 2.835 . S
Eu211 O223 2.355 . S
Eu211 O225 2.374 . S
Eu211 O226 2.473 . S
Eu211 O227 2.480 . S
Eu211 O228 2.430 . S
Eu211 O229 2.670 . S
Eu211 O230 2.394 . S
C212 C210 1.500 . S
C212 C213 1.377 . S
C212 C217 1.377 . S
C213 C212 1.377 . S
C213 C214 1.395 1_655 S
C213 H236 0.931 . S
C214 C213 1.395 1_455 S
C214 C215 1.383 . S
C214 H237 0.931 . S
C215 C214 1.383 . S
C215 C216 1.394 1_455 S
C216 C215 1.394 1_655 S
C216 C217 1.378 . S
C216 H238 0.931 . S
C217 C212 1.377 . S
C217 C216 1.378 . S
C217 H239 0.931 . S
C218 O228 1.259 . S
C218 O229 1.270 . S
C219 O230 1.251 . S
C219 O231 1.251 . S
O220 C200 1.257 . S
O220 Eu201 2.473 . S
O221 C200 1.260 . S
O221 Eu201 2.480 . S
O222 Eu201 2.430 . S
O222 C208 1.259 . S
O223 Eu201 2.670 . S
O223 C208 1.270 . S
O223 Eu211 2.355 . S
O224 Eu201 2.394 . S
O224 C209 1.251 . S
O225 C209 1.251 . S
O225 Eu211 2.374 . S
O226 C210 1.257 . S
O226 Eu211 2.473 . S
O227 C210 1.260 . S
O227 Eu211 2.480 . S
O228 Eu211 2.430 . S
O228 C218 1.259 . S
O229 Eu201 2.355 . S
O229 Eu211 2.670 . S
O229 C218 1.270 . S
O230 Eu211 2.394 . S
O230 C219 1.251 . S
O231 Eu201 2.374 . S
O231 C219 1.251 . S
H232 C203 0.931 . S
H233 C204 0.931 . S
H234 C206 0.931 . S
H235 C207 0.931 . S
H236 C213 0.931 . S
H237 C214 0.931 . S
H238 C216 0.931 . S
H239 C217 0.931 . S
C240 Eu241 2.835 . S
C240 C242 1.500 . S
C240 O260 1.257 . S
C240 O261 1.260 . S
Eu241 C240 2.835 . S
Eu241 O260 2.473 . S
Eu241 O261 2.480 . S
Eu241 O262 2.430 . S
Eu241 O263 2.670 . S
Eu241 O264 2.394 . S
Eu241 O269 2.355 . S
Eu241 O271 2.374 . S
C242 C240 1.500 . S
C242 C243 1.377 . S
C242 C247 1.377 . S
C243 C242 1.377 . S
C243 C244 1.395 . S
C243 H272 0.931 . S
C244 C243 1.395 . S
C244 C245 1.383 . S
C244 H273 0.931 . S
C245 C244 1.383 . S
C245 C246 1.394 . S
C246 C245 1.394 . S
C246 C247 1.378 . S
C246 H274 0.931 . S
C247 C242 1.377 . S
C247 C246 1.378 . S
C247 H275 0.931 . S
C248 O262 1.259 . S
C248 O263 1.270 . S
C249 O264 1.251 . S
C249 O265 1.251 . S
C250 Eu251 2.835 . S
C250 C252 1.500 . S
C250 O266 1.257 . S
C250 O267 1.260 . S
Eu251 C250 2.835 . S
Eu251 O263 2.355 . S
Eu251 O265 2.374 . S
Eu251 O266 2.473 . S
Eu251 O267 2.480 . S
Eu251 O268 2.430 . S
Eu251 O269 2.670 . S
Eu251 O270 2.394 . S
C252 C250 1.500 . S
C252 C253 1.377 . S
C252 C257 1.377 . S
C253 C252 1.377 . S
C253 C254 1.395 . S
C253 H276 0.931 . S
C254 C253 1.395 . S
C254 C255 1.383 . S
C254 H277 0.931 . S
C255 C254 1.383 . S
C255 C256 1.394 . S
C256 C255 1.394 . S
C256 C257 1.378 . S
C256 H278 0.931 . S
C257 C252 1.377 . S
C257 C256 1.378 . S
C257 H279 0.931 . S
C258 O268 1.259 . S
C258 O269 1.270 . S
C259 O270 1.251 . S
C259 O271 1.251 . S
O260 C240 1.257 . S
O260 Eu241 2.473 . S
O261 C240 1.260 . S
O261 Eu241 2.480 . S
O262 Eu241 2.430 . S
O262 C248 1.259 . S
O263 Eu241 2.670 . S
O263 C248 1.270 . S
O263 Eu251 2.355 . S
O264 Eu241 2.394 . S
O264 C249 1.251 . S
O265 C249 1.251 . S
O265 Eu251 2.374 . S
O266 C250 1.257 . S
O266 Eu251 2.473 . S
O267 C250 1.260 . S
O267 Eu251 2.480 . S
O268 Eu251 2.430 . S
O268 C258 1.259 . S
O269 Eu241 2.355 . S
O269 Eu251 2.670 . S
O269 C258 1.270 . S
O270 Eu251 2.394 . S
O270 C259 1.251 . S
O271 Eu241 2.374 . S
O271 C259 1.251 . S
H272 C243 0.931 . S
H273 C244 0.931 . S
H274 C246 0.931 . S
H275 C247 0.931 . S
H276 C253 0.931 . S
H277 C254 0.931 . S
H278 C256 0.931 . S
H279 C257 0.931 . S
C280 Eu281 2.835 . S
C280 C282 1.500 . S
C280 O300 1.257 . S
C280 O301 1.260 . S
Eu281 C280 2.835 . S
Eu281 O300 2.473 . S
Eu281 O301 2.480 . S
Eu281 O302 2.430 . S
Eu281 O303 2.670 . S
Eu281 O304 2.394 . S
Eu281 O309 2.355 . S
Eu281 O311 2.374 . S
C282 C280 1.500 . S
C282 C283 1.377 . S
C282 C287 1.377 . S
C283 C282 1.377 . S
C283 C284 1.395 . S
C283 H312 0.931 . S
C284 C283 1.395 . S
C284 C285 1.383 . S
C284 H313 0.931 . S
C285 C284 1.383 . S
C285 C286 1.394 . S
C286 C285 1.394 . S
C286 C287 1.378 . S
C286 H314 0.931 . S
C287 C282 1.377 . S
C287 C286 1.378 . S
C287 H315 0.931 . S
C288 O302 1.259 . S
C288 O303 1.270 . S
C289 O304 1.251 . S
C289 O305 1.251 . S
C290 Eu291 2.835 . S
C290 C292 1.500 . S
C290 O306 1.257 . S
C290 O307 1.260 . S
Eu291 C290 2.835 . S
Eu291 O303 2.355 . S
Eu291 O305 2.374 . S
Eu291 O306 2.473 . S
Eu291 O307 2.480 . S
Eu291 O308 2.430 . S
Eu291 O309 2.670 . S
Eu291 O310 2.394 . S
C292 C290 1.500 . S
C292 C293 1.377 . S
C292 C297 1.377 . S
C293 C292 1.377 . S
C293 C294 1.395 . S
C293 H316 0.931 . S
C294 C293 1.395 . S
C294 C295 1.383 . S
C294 H317 0.931 . S
C295 C294 1.383 . S
C295 C296 1.394 . S
C296 C295 1.394 . S
C296 C297 1.378 . S
C296 H318 0.931 . S
C297 C292 1.377 . S
C297 C296 1.378 . S
C297 H319 0.931 . S
C298 O308 1.259 . S
C298 O309 1.270 . S
C299 O310 1.251 . S
C299 O311 1.251 . S
O300 C280 1.257 . S
O300 Eu281 2.473 . S
O301 C280 1.260 . S
O301 Eu281 2.480 . S
O302 Eu281 2.430 . S
O302 C288 1.259 . S
O303 Eu281 2.670 . S
O303 C288 1.270 . S
O303 Eu291 2.355 . S
O304 Eu281 2.394 . S
O304 C289 1.251 . S
O305 C289 1.251 . S
O305 Eu291 2.374 . S
O306 C290 1.257 . S
O306 Eu291 2.473 . S
O307 C290 1.260 . S
O307 Eu291 2.480 . S
O308 Eu291 2.430 . S
O308 C298 1.259 . S
O309 Eu281 2.355 . S
O309 Eu291 2.670 . S
O309 C298 1.270 . S
O310 Eu291 2.394 . S
O310 C299 1.251 . S
O311 Eu281 2.374 . S
O311 C299 1.251 . S
H312 C283 0.931 . S
H313 C284 0.931 . S
H314 C286 0.931 . S
H315 C287 0.931 . S
H316 C293 0.931 . S
H317 C294 0.931 . S
H318 C296 0.931 . S
H319 C297 0.931 . S
C320 Eu321 2.835 . S
C320 C322 1.500 . S
C320 O340 1.257 . S
C320 O341 1.260 . S
Eu321 C320 2.835 . S
Eu321 O340 2.473 . S
Eu321 O341 2.480 . S
Eu321 O342 2.430 . S
Eu321 O343 2.670 . S
Eu321 O344 2.394 . S
Eu321 O349 2.355 . S
Eu321 O351 2.374 . S
C322 C320 1.500 . S
C322 C323 1.377 . S
C322 C327 1.377 . S
C323 C322 1.377 . S
C323 C324 1.395 . S
C323 H352 0.931 . S
C324 C323 1.395 . S
C324 C325 1.383 . S
C324 H353 0.931 . S
C325 C324 1.383 . S
C325 C326 1.394 . S
C326 C325 1.394 . S
C326 C327 1.378 . S
C326 H354 0.931 . S
C327 C322 1.377 . S
C327 C326 1.378 . S
C327 H355 0.931 . S
C328 O342 1.259 . S
C328 O343 1.270 . S
C329 O344 1.251 . S
C329 O345 1.251 . S
C330 Eu331 2.835 . S
C330 C332 1.500 . S
C330 O346 1.257 . S
C330 O347 1.260 . S
Eu331 C330 2.835 . S
Eu331 O343 2.355 . S
Eu331 O345 2.374 . S
Eu331 O346 2.473 . S
Eu331 O347 2.480 . S
Eu331 O348 2.430 . S
Eu331 O349 2.670 . S
Eu331 O350 2.394 . S
C332 C330 1.500 . S
C332 C333 1.377 . S
C332 C337 1.377 . S
C333 C332 1.377 . S
C333 C334 1.395 . S
C333 H356 0.931 . S
C334 C333 1.395 . S
C334 C335 1.383 . S
C334 H357 0.931 . S
C335 C334 1.383 . S
C335 C336 1.394 . S
C336 C335 1.394 . S
C336 C337 1.378 . S
C336 H358 0.931 . S
C337 C332 1.377 . S
C337 C336 1.378 . S
C337 H359 0.931 . S
C338 O348 1.259 . S
C338 O349 1.270 . S
C339 O350 1.251 . S
C339 O351 1.251 . S
O340 C320 1.257 . S
O340 Eu321 2.473 . S
O341 C320 1.260 . S
O341 Eu321 2.480 . S
O342 Eu321 2.430 . S
O342 C328 1.259 . S
O343 Eu321 2.670 . S
O343 C328 1.270 . S
O343 Eu331 2.355 . S
O344 Eu321 2.394 . S
O344 C329 1.251 . S
O345 C329 1.251 . S
O345 Eu331 2.374 . S
O346 C330 1.257 . S
O346 Eu331 2.473 . S
O347 C330 1.260 . S
O347 Eu331 2.480 . S
O348 Eu331 2.430 . S
O348 C338 1.259 . S
O349 Eu321 2.355 . S
O349 Eu331 2.670 . S
O349 C338 1.270 . S
O350 Eu331 2.394 . S
O350 C339 1.251 . S
O351 Eu321 2.374 . S
O351 C339 1.251 . S
H352 C323 0.931 . S
H353 C324 0.931 . S
H354 C326 0.931 . S
H355 C327 0.931 . S
H356 C333 0.931 . S
H357 C334 0.931 . S
H358 C336 0.931 . S
H359 C337 0.931 . S
C360 C361 1.369 . S
C360 C362 1.419 . S
C360 H364 0.930 . S
C361 C360 1.369 . S
C361 C370 1.429 1_556 S
C362 C360 1.419 . S
C362 C363 1.363 . S
C362 H365 0.929 . S
C363 C362 1.363 . S
C363 C369 1.428 . S
H364 C360 0.930 . S
H365 C362 0.929 . S
S366 N367 1.613 . S
S366 N368 1.610 . S
N367 S366 1.613 . S
N367 C370 1.350 . S
N368 S366 1.610 . S
N368 C369 1.351 1_554 S
C369 C363 1.428 . S
C369 N368 1.351 1_556 S
C369 C370 1.434 1_556 S
C370 C361 1.429 1_554 S
C370 N367 1.350 . S
C370 C369 1.434 1_554 S
C371 C372 1.369 . S
C371 C373 1.419 . S
C371 H375 0.930 . S
C372 C371 1.369 . S
C372 C381 1.429 1_556 S
C373 C371 1.419 . S
C373 C374 1.363 . S
C373 H376 0.929 . S
C374 C373 1.363 . S
C374 C380 1.428 . S
H375 C371 0.930 . S
H376 C373 0.929 . S
S377 N378 1.613 . S
S377 N379 1.610 . S
N378 S377 1.613 . S
N378 C381 1.350 . S
N379 S377 1.610 . S
N379 C380 1.351 1_554 S
C380 C374 1.428 . S
C380 N379 1.351 1_556 S
C380 C381 1.434 1_556 S
C381 C372 1.429 1_554 S
C381 N378 1.350 . S
C381 C380 1.434 1_554 S
C382 C383 1.369 . S
C382 C384 1.419 . S
C382 H386 0.930 . S
C383 C382 1.369 . S
C383 C392 1.429 . S
C384 C382 1.419 . S
C384 C385 1.363 . S
C384 H387 0.929 . S
C385 C384 1.363 . S
C385 C391 1.428 . S
H386 C382 0.930 . S
H387 C384 0.929 . S
S388 N389 1.613 1_556 S
S388 N390 1.610 1_545 S
N389 S388 1.613 1_554 S
N389 C392 1.350 1_544 S
N390 S388 1.610 1_565 S
N390 C391 1.351 . S
C391 C385 1.428 . S
C391 N390 1.351 . S
C391 C392 1.434 . S
C392 C383 1.429 . S
C392 N389 1.350 1_566 S
C392 C391 1.434 . S
C393 C394 1.369 . S
C393 C395 1.419 . S
C393 H397 0.930 . S
C394 C393 1.369 . S
C394 C403 1.429 . S
C395 C393 1.419 . S
C395 C396 1.363 . S
C395 H398 0.929 . S
C396 C395 1.363 . S
C396 C402 1.428 . S
H397 C393 0.930 . S
H398 C395 0.929 . S
S399 N400 1.613 . S
S399 N401 1.610 . S
N400 S399 1.613 . S
N400 C403 1.350 . S
N401 S399 1.610 . S
N401 C402 1.351 . S
C402 C396 1.428 . S
C402 N401 1.351 . S
C402 C403 1.434 . S
C403 C394 1.429 . S
C403 N400 1.350 . S
C403 C402 1.434 . S
C404 C405 1.369 . S
C404 C406 1.419 . S
C404 H408 0.930 . S
C405 C404 1.369 . S
C405 C414 1.429 . S
C406 C404 1.419 . S
C406 C407 1.363 . S
C406 H409 0.929 . S
C407 C406 1.363 . S
C407 C413 1.428 . S
H408 C404 0.930 . S
H409 C406 0.929 . S
S410 N411 1.613 . S
S410 N412 1.610 . S
N411 S410 1.613 . S
N411 C414 1.350 . S
N412 S410 1.610 . S
N412 C413 1.351 . S
C413 C407 1.428 . S
C413 N412 1.351 . S
C413 C414 1.434 . S
C414 C405 1.429 . S
C414 N411 1.350 . S
C414 C413 1.434 . S
C415 C416 1.369 . S
C415 C417 1.419 . S
C415 H419 0.930 . S
C416 C415 1.369 . S
C416 C425 1.429 . S
C417 C415 1.419 . S
C417 C418 1.363 . S
C417 H420 0.929 . S
C418 C417 1.363 . S
C418 C424 1.428 . S
H419 C415 0.930 . S
H420 C417 0.929 . S
S421 N422 1.613 . S
S421 N423 1.610 1_556 S
N422 S421 1.613 . S
N422 C425 1.350 1_556 S
N423 S421 1.610 1_554 S
N423 C424 1.351 . S
C424 C418 1.428 . S
C424 N423 1.351 . S
C424 C425 1.434 . S
C425 C416 1.429 . S
C425 N422 1.350 1_554 S
C425 C424 1.434 . S
C426 C427 1.369 . S
C426 C428 1.419 . S
C426 H430 0.930 . S
C427 C426 1.369 . S
C427 C436 1.429 . S
C428 C426 1.419 . S
C428 C429 1.363 . S
C428 H431 0.929 . S
C429 C428 1.363 . S
C429 C435 1.428 . S
H430 C426 0.930 . S
H431 C428 0.929 . S
S432 N433 1.613 . S
S432 N434 1.610 . S
N433 S432 1.613 . S
N433 C436 1.350 . S
N434 S432 1.610 . S
N434 C435 1.351 . S
C435 C429 1.428 . S
C435 N434 1.351 . S
C435 C436 1.434 . S
C436 C427 1.429 . S
C436 N433 1.350 . S
C436 C435 1.434 . S
C437 C438 1.369 . S
C437 C439 1.419 . S
C437 H441 0.930 . S
C438 C437 1.369 . S
C438 C447 1.429 . S
C439 C437 1.419 . S
C439 C440 1.363 . S
C439 H442 0.929 . S
C440 C439 1.363 . S
C440 C446 1.428 . S
H441 C437 0.930 . S
H442 C439 0.929 . S
S443 N444 1.613 . S
S443 N445 1.610 . S
N444 S443 1.613 . S
N444 C447 1.350 . S
N445 S443 1.610 . S
N445 C446 1.351 . S
C446 C440 1.428 . S
C446 N445 1.351 . S
C446 C447 1.434 . S
C447 C438 1.429 . S
C447 N444 1.350 . S
C447 C446 1.434 . S
C448 C449 1.369 . S
C448 C450 1.419 . S
C448 H452 0.930 . S
C449 C448 1.369 . S
C449 C458 1.429 . S
C450 C448 1.419 . S
C450 C451 1.363 . S
C450 H453 0.929 . S
C451 C450 1.363 . S
C451 C457 1.428 . S
H452 C448 0.930 . S
H453 C450 0.929 . S
S454 N455 1.613 . S
S454 N456 1.610 . S
N455 S454 1.613 . S
N455 C458 1.350 . S
N456 S454 1.610 . S
N456 C457 1.351 . S
C457 C451 1.428 . S
C457 N456 1.351 . S
C457 C458 1.434 . S
C458 C449 1.429 . S
C458 N455 1.350 . S
C458 C457 1.434 . S
C459 C460 1.369 1_556 S
C459 C461 1.419 . S
C459 H463 0.930 1_556 S
C460 C459 1.369 1_554 S
C460 C469 1.429 1_554 S
C461 C459 1.419 . S
C461 C462 1.363 . S
C461 H464 0.929 . S
C462 C461 1.363 . S
C462 C468 1.428 . S
H463 C459 0.930 1_554 S
H464 C461 0.929 . S
S465 N466 1.613 . S
S465 N467 1.610 . S
N466 S465 1.613 . S
N466 C469 1.350 . S
N467 S465 1.610 . S
N467 C468 1.351 . S
C468 C462 1.428 . S
C468 N467 1.351 . S
C468 C469 1.434 . S
C469 C460 1.429 1_556 S
C469 N466 1.350 . S
C469 C468 1.434 . S
C470 C471 1.369 . S
C470 C472 1.419 . S
C470 H474 0.930 . S
C471 C470 1.369 . S
C471 C480 1.429 1_556 S
C472 C470 1.419 . S
C472 C473 1.363 1_556 S
C472 H475 0.929 . S
C473 C472 1.363 1_554 S
C473 C479 1.428 . S
H474 C470 0.930 . S
H475 C472 0.929 . S
S476 N477 1.613 . S
S476 N478 1.610 . S
N477 S476 1.613 . S
N477 C480 1.350 . S
N478 S476 1.610 . S
N478 C479 1.351 . S
C479 C473 1.428 . S
C479 N478 1.351 . S
C479 C480 1.434 . S
C480 C471 1.429 1_554 S
C480 N477 1.350 . S
C480 C479 1.434 . S
C481 C482 1.369 . S
C481 C483 1.419 1_554 S
C481 H485 0.930 . S
C482 C481 1.369 . S
C482 C491 1.429 1_554 S
C483 C481 1.419 1_556 S
C483 C484 1.363 . S
C483 H486 0.929 1_556 S
C484 C483 1.363 . S
C484 C490 1.428 . S
H485 C481 0.930 . S
H486 C483 0.929 1_554 S
S487 N488 1.613 . S
S487 N489 1.610 . S
N488 S487 1.613 . S
N488 C491 1.350 . S
N489 S487 1.610 . S
N489 C490 1.351 . S
C490 C484 1.428 . S
C490 N489 1.351 . S
C490 C491 1.434 . S
C491 C482 1.429 1_556 S
C491 N488 1.350 . S
C491 C490 1.434 . S
C492 C493 1.369 . S
C492 C494 1.419 . S
C492 H496 0.930 . S
C493 C492 1.369 . S
C493 C502 1.429 . S
C494 C492 1.419 . S
C494 C495 1.363 . S
C494 H497 0.929 . S
C495 C494 1.363 . S
C495 C501 1.428 . S
H496 C492 0.930 . S
H497 C494 0.929 . S
S498 N499 1.613 . S
S498 N500 1.610 . S
N499 S498 1.613 . S
N499 C502 1.350 . S
N500 S498 1.610 . S
N500 C501 1.351 . S
C501 C495 1.428 . S
C501 N500 1.351 . S
C501 C502 1.434 . S
C502 C493 1.429 . S
C502 N499 1.350 . S
C502 C501 1.434 . S
C503 C504 1.369 . S
C503 C505 1.419 . S
C503 H507 0.930 . S
C504 C503 1.369 . S
C504 C513 1.429 . S
C505 C503 1.419 . S
C505 C506 1.363 . S
C505 H508 0.929 . S
C506 C505 1.363 . S
C506 C512 1.428 . S
H507 C503 0.930 . S
H508 C505 0.929 . S
S509 N510 1.613 . S
S509 N511 1.610 . S
N510 S509 1.613 . S
N510 C513 1.350 . S
N511 S509 1.610 . S
N511 C512 1.351 . S
C512 C506 1.428 . S
C512 N511 1.351 . S
C512 C513 1.434 . S
C513 C504 1.429 . S
C513 N510 1.350 . S
C513 C512 1.434 . S
C514 C515 1.369 . S
C514 C516 1.419 . S
C514 H518 0.930 . S
C515 C514 1.369 . S
C515 C524 1.429 . S
C516 C514 1.419 . S
C516 C517 1.363 . S
C516 H519 0.929 . S
C517 C516 1.363 . S
C517 C523 1.428 . S
H518 C514 0.930 . S
H519 C516 0.929 . S
S520 N521 1.613 . S
S520 N522 1.610 . S
N521 S520 1.613 . S
N521 C524 1.350 . S
N522 S520 1.610 . S
N522 C523 1.351 . S
C523 C517 1.428 . S
C523 N522 1.351 . S
C523 C524 1.434 . S
C524 C515 1.429 . S
C524 N521 1.350 . S
C524 C523 1.434 . S
C525 C526 1.369 . S
C525 C527 1.419 . S
C525 H529 0.930 . S
C526 C525 1.369 . S
C526 C535 1.429 . S
C527 C525 1.419 . S
C527 C528 1.363 . S
C527 H530 0.929 . S
C528 C527 1.363 . S
C528 C534 1.428 . S
H529 C525 0.930 . S
H530 C527 0.929 . S
S531 N532 1.613 . S
S531 N533 1.610 . S
N532 S531 1.613 . S
N532 C535 1.350 . S
N533 S531 1.610 . S
N533 C534 1.351 . S
C534 C528 1.428 . S
C534 N533 1.351 . S
C534 C535 1.434 . S
C535 C526 1.429 . S
C535 N532 1.350 . S
C535 C534 1.434 . S
C536 C537 1.369 . S
C536 C538 1.419 . S
C536 H540 0.930 . S
C537 C536 1.369 . S
C537 C546 1.429 . S
C538 C536 1.419 . S
C538 C539 1.363 . S
C538 H541 0.929 . S
C539 C538 1.363 . S
C539 C545 1.428 . S
H540 C536 0.930 . S
H541 C538 0.929 . S
S542 N543 1.613 . S
S542 N544 1.610 . S
N543 S542 1.613 . S
N543 C546 1.350 . S
N544 S542 1.610 . S
N544 C545 1.351 . S
C545 C539 1.428 . S
C545 N544 1.351 . S
C545 C546 1.434 . S
C546 C537 1.429 . S
C546 N543 1.350 . S
C546 C545 1.434 . S
C547 C548 1.369 . S
C547 C549 1.419 . S
C547 H551 0.930 . S
C548 C547 1.369 . S
C548 C557 1.429 . S
C549 C547 1.419 . S
C549 C550 1.363 . S
C549 H552 0.929 . S
C550 C549 1.363 . S
C550 C556 1.428 . S
H551 C547 0.930 . S
H552 C549 0.929 . S
S553 N554 1.613 . S
S553 N555 1.610 . S
N554 S553 1.613 . S
N554 C557 1.350 . S
N555 S553 1.610 . S
N555 C556 1.351 . S
C556 C550 1.428 . S
C556 N555 1.351 . S
C556 C557 1.434 . S
C557 C548 1.429 . S
C557 N554 1.350 . S
C557 C556 1.434 . S
C558 C559 1.369 . S
C558 C560 1.419 . S
C558 H562 0.930 . S
C559 C558 1.369 . S
C559 C568 1.429 1_455 S
C560 C558 1.419 . S
C560 C561 1.363 . S
C560 H563 0.929 . S
C561 C560 1.363 . S
C561 C567 1.428 1_455 S
H562 C558 0.930 . S
H563 C560 0.929 . S
S564 N565 1.613 . S
S564 N566 1.610 . S
N565 S564 1.613 . S
N565 C568 1.350 . S
N566 S564 1.610 . S
N566 C567 1.351 . S
C567 C561 1.428 1_655 S
C567 N566 1.351 . S
C567 C568 1.434 . S
C568 C559 1.429 1_655 S
C568 N565 1.350 . S
C568 C567 1.434 . S
C569 C570 1.369 . S
C569 C571 1.419 . S
C569 H573 0.930 . S
C570 C569 1.369 . S
C570 C579 1.429 . S
C571 C569 1.419 . S
C571 C572 1.363 . S
C571 H574 0.929 . S
C572 C571 1.363 . S
C572 C578 1.428 . S
H573 C569 0.930 . S
H574 C571 0.929 . S
S575 N576 1.613 . S
S575 N577 1.610 . S
N576 S575 1.613 . S
N576 C579 1.350 . S
N577 S575 1.610 . S
N577 C578 1.351 . S
C578 C572 1.428 . S
C578 N577 1.351 . S
C578 C579 1.434 . S
C579 C570 1.429 . S
C579 N576 1.350 . S
C579 C578 1.434 . S
C580 C581 1.369 1_565 S
C580 C582 1.419 . S
C580 H584 0.930 . S
C581 C580 1.369 1_545 S
C581 C590 1.429 . S
C582 C580 1.419 . S
C582 C583 1.363 1_565 S
C582 H585 0.929 . S
C583 C582 1.363 1_545 S
C583 C589 1.428 . S
H584 C580 0.930 . S
H585 C582 0.929 . S
S586 N587 1.613 . S
S586 N588 1.610 . S
N587 S586 1.613 . S
N587 C590 1.350 . S
N588 S586 1.610 . S
N588 C589 1.351 . S
C589 C583 1.428 . S
C589 N588 1.351 . S
C589 C590 1.434 . S
C590 C581 1.429 . S
C590 N587 1.350 . S
C590 C589 1.434 . S
C591 C592 1.369 . S
C591 C593 1.419 . S
C591 H595 0.930 . S
C592 C591 1.369 . S
C592 C601 1.429 . S
C593 C591 1.419 . S
C593 C594 1.363 . S
C593 H596 0.929 . S
C594 C593 1.363 . S
C594 C600 1.428 . S
H595 C591 0.930 . S
H596 C593 0.929 . S
S597 N598 1.613 . S
S597 N599 1.610 . S
N598 S597 1.613 . S
N598 C601 1.350 . S
N599 S597 1.610 . S
N599 C600 1.351 . S
C600 C594 1.428 . S
C600 N599 1.351 . S
C600 C601 1.434 . S
C601 C592 1.429 . S
C601 N598 1.350 . S
C601 C600 1.434 . S
C602 C603 1.369 . S
C602 C604 1.419 . S
C602 H606 0.930 . S
C603 C602 1.369 . S
C603 C612 1.429 . S
C604 C602 1.419 . S
C604 C605 1.363 . S
C604 H607 0.929 . S
C605 C604 1.363 . S
C605 C611 1.428 . S
H606 C602 0.930 . S
H607 C604 0.929 . S
S608 N609 1.613 . S
S608 N610 1.610 . S
N609 S608 1.613 . S
N609 C612 1.350 . S
N610 S608 1.610 . S
N610 C611 1.351 . S
C611 C605 1.428 . S
C611 N610 1.351 . S
C611 C612 1.434 . S
C612 C603 1.429 . S
C612 N609 1.350 . S
C612 C611 1.434 . S
C613 C614 1.369 . S
C613 C615 1.419 . S
C613 H617 0.930 . S
C614 C613 1.369 . S
C614 C623 1.429 . S
C615 C613 1.419 . S
C615 C616 1.363 . S
C615 H618 0.929 . S
C616 C615 1.363 . S
C616 C622 1.428 . S
H617 C613 0.930 . S
H618 C615 0.929 . S
S619 N620 1.613 . S
S619 N621 1.610 . S
N620 S619 1.613 . S
N620 C623 1.350 . S
N621 S619 1.610 . S
N621 C622 1.351 . S
C622 C616 1.428 . S
C622 N621 1.351 . S
C622 C623 1.434 . S
C623 C614 1.429 . S
C623 N620 1.350 . S
C623 C622 1.434 . S
C624 C625 1.369 . S
C624 C626 1.419 . S
C624 H628 0.930 . S
C625 C624 1.369 . S
C625 C634 1.429 . S
C626 C624 1.419 . S
C626 C627 1.363 . S
C626 H629 0.929 . S
C627 C626 1.363 . S
C627 C633 1.428 . S
H628 C624 0.930 . S
H629 C626 0.929 . S
S630 N631 1.613 . S
S630 N632 1.610 . S
N631 S630 1.613 . S
N631 C634 1.350 . S
N632 S630 1.610 . S
N632 C633 1.351 . S
C633 C627 1.428 . S
C633 N632 1.351 . S
C633 C634 1.434 . S
C634 C625 1.429 . S
C634 N631 1.350 . S
C634 C633 1.434 . S
C635 C636 1.369 . S
C635 C637 1.419 . S
C635 H639 0.930 . S
C636 C635 1.369 . S
C636 C645 1.429 . S
C637 C635 1.419 . S
C637 C638 1.363 . S
C637 H640 0.929 . S
C638 C637 1.363 . S
C638 C644 1.428 . S
H639 C635 0.930 . S
H640 C637 0.929 . S
S641 N642 1.613 . S
S641 N643 1.610 . S
N642 S641 1.613 . S
N642 C645 1.350 . S
N643 S641 1.610 . S
N643 C644 1.351 . S
C644 C638 1.428 . S
C644 N643 1.351 . S
C644 C645 1.434 . S
C645 C636 1.429 . S
C645 N642 1.350 . S
C645 C644 1.434 . S
C646 C647 1.369 . S
C646 C648 1.419 . S
C646 H650 0.930 . S
C647 C646 1.369 . S
C647 C656 1.429 . S
C648 C646 1.419 . S
C648 C649 1.363 . S
C648 H651 0.929 . S
C649 C648 1.363 . S
C649 C655 1.428 . S
H650 C646 0.930 . S
H651 C648 0.929 . S
S652 N653 1.613 . S
S652 N654 1.610 . S
N653 S652 1.613 . S
N653 C656 1.350 . S
N654 S652 1.610 . S
N654 C655 1.351 . S
C655 C649 1.428 . S
C655 N654 1.351 . S
C655 C656 1.434 . S
C656 C647 1.429 . S
C656 N653 1.350 . S
C656 C655 1.434 . S
C361 C19 1.691 . S
C363 C295 1.754 . S
C372 C59 1.692 . S
C374 C335 1.753 . S
C383 C99 1.688 . S
C385 C255 1.755 . S
C394 C179 1.692 . S
C396 C95 1.753 . S
C405 C219 1.693 . S
C407 C15 1.753 . S
C416 C55 1.758 . S
C418 C139 1.685 . S
C427 C299 1.691 . S
C429 C215 1.753 . S
C438 C339 1.684 . S
C440 C135 1.757 . S
C449 C175 1.753 1_565 S
C451 C259 1.691 . S
C460 C89 1.698 . S
C462 C5 1.664 . S
C471 C45 1.660 . S
C473 C9 1.698 . S
C482 C49 1.697 . S
C484 C85 1.663 1_655 S
C493 C125 1.660 . S
C495 C209 1.698 . S
C504 C129 1.697 . S
C506 C165 1.665 . S
C515 C169 1.697 . S
C517 C205 1.665 . S
C526 C329 1.697 . S
C528 C245 1.661 . S
C537 C285 1.662 . S
C539 C249 1.698 . S
C548 C325 1.663 . S
C550 C289 1.698 . S
C559 C18 1.200 . S
C561 C8 1.210 . S
C570 C58 1.211 . S
C572 C48 1.202 . S
C581 C98 1.201 . S
C583 C88 1.209 . S
C592 C128 1.209 . S
C594 C138 1.203 1_556 S
C603 C168 1.203 . S
C605 C178 1.208 1_556 S
C614 C208 1.202 . S
C616 C218 1.208 1_556 S
C625 C258 1.202 . S
C627 C248 1.208 1_554 S
C636 C288 1.211 1_554 S
C638 C298 1.201 . S
C647 C338 1.200 . S
C649 C328 1.210 1_554 S
