# Generated by pormake.
# Topology ukf, (4)-cn, num edge types: 1
# Building blocks:
#     Node 0, Type 0, BuildingBlock: AZAVOO_clean_sbu_0, # of connection points: 4
#     Node 1, Type 0, BuildingBlock: AZAVOO_clean_sbu_0, # of connection points: 4
#     Node 2, Type 0, BuildingBlock: AZAVOO_clean_sbu_0, # of connection points: 4
#     Node 3, Type 0, BuildingBlock: AZAVOO_clean_sbu_0, # of connection points: 4
#     Node 4, Type 0, BuildingBlock: AZAVOO_clean_sbu_0, # of connection points: 4
#     Node 5, Type 0, BuildingBlock: AZAVOO_clean_sbu_0, # of connection points: 4
#     Node 6, Type 0, BuildingBlock: AZAVOO_clean_sbu_0, # of connection points: 4
#     Node 7, Type 0, BuildingBlock: AZAVOO_clean_sbu_0, # of connection points: 4
#     Node 8, Type 0, BuildingBlock: AZAVOO_clean_sbu_0, # of connection points: 4
#     Node 9, Type 0, BuildingBlock: AZAVOO_clean_sbu_0, # of connection points: 4
#     Node 10, Type 0, BuildingBlock: AZAVOO_clean_sbu_0, # of connection points: 4
#     Node 11, Type 0, BuildingBlock: AZAVOO_clean_sbu_0, # of connection points: 4
#     Edge 12, Type (0, 0), BuildingBlock: XUDNAN_clean_linker_2, # of connection points: 2
#     Edge 13, Type (0, 0), BuildingBlock: XUDNAN_clean_linker_2, # of connection points: 2
#     Edge 14, Type (0, 0), BuildingBlock: XUDNAN_clean_linker_2, # of connection points: 2
#     Edge 15, Type (0, 0), BuildingBlock: XUDNAN_clean_linker_2, # of connection points: 2
#     Edge 16, Type (0, 0), BuildingBlock: XUDNAN_clean_linker_2, # of connection points: 2
#     Edge 17, Type (0, 0), BuildingBlock: XUDNAN_clean_linker_2, # of connection points: 2
#     Edge 18, Type (0, 0), BuildingBlock: XUDNAN_clean_linker_2, # of connection points: 2
#     Edge 19, Type (0, 0), BuildingBlock: XUDNAN_clean_linker_2, # of connection points: 2
#     Edge 20, Type (0, 0), BuildingBlock: XUDNAN_clean_linker_2, # of connection points: 2
#     Edge 21, Type (0, 0), BuildingBlock: XUDNAN_clean_linker_2, # of connection points: 2
#     Edge 22, Type (0, 0), BuildingBlock: XUDNAN_clean_linker_2, # of connection points: 2
#     Edge 23, Type (0, 0), BuildingBlock: XUDNAN_clean_linker_2, # of connection points: 2
#     Edge 24, Type (0, 0), BuildingBlock: XUDNAN_clean_linker_2, # of connection points: 2
#     Edge 25, Type (0, 0), BuildingBlock: XUDNAN_clean_linker_2, # of connection points: 2
#     Edge 26, Type (0, 0), BuildingBlock: XUDNAN_clean_linker_2, # of connection points: 2
#     Edge 27, Type (0, 0), BuildingBlock: XUDNAN_clean_linker_2, # of connection points: 2
#     Edge 28, Type (0, 0), BuildingBlock: XUDNAN_clean_linker_2, # of connection points: 2
#     Edge 29, Type (0, 0), BuildingBlock: XUDNAN_clean_linker_2, # of connection points: 2
#     Edge 30, Type (0, 0), BuildingBlock: XUDNAN_clean_linker_2, # of connection points: 2
#     Edge 31, Type (0, 0), BuildingBlock: XUDNAN_clean_linker_2, # of connection points: 2
#     Edge 32, Type (0, 0), BuildingBlock: XUDNAN_clean_linker_2, # of connection points: 2
#     Edge 33, Type (0, 0), BuildingBlock: XUDNAN_clean_linker_2, # of connection points: 2
#     Edge 34, Type (0, 0), BuildingBlock: XUDNAN_clean_linker_2, # of connection points: 2
#     Edge 35, Type (0, 0), BuildingBlock: XUDNAN_clean_linker_2, # of connection points: 2
# Relax obj value: 0.209
# Max RMSD: 0.201
# Mean RMSD: 0.201
data_MOF--net-ukf--node1-AZAVOO_clean_sbu_0--edge1-XUDNAN_clean_linker_2
_symmetry_space_group_name_H-M    P1
_symmetry_Int_Tables_number       1
_symmetry_cell_setting            triclinic
loop_
_symmetry_equiv_pos_as_xyz
'x, y, z'
_cell_length_a     31.806831
_cell_length_b     31.862593
_cell_length_c     63.807208
_cell_angle_alpha  89.99916
_cell_angle_beta   90.012758
_cell_angle_gamma 120.07968
loop_
_atom_site_label
_atom_site_type_symbol
_atom_site_fract_x
_atom_site_fract_y
_atom_site_fract_z
_atom_type_partial_charge
Mg0 Mg 0.40065 0.27361 0.03136 0.0
O1 O 0.47704 0.28357 0.02858 0.0
O2 O 0.53298 0.35756 0.03933 0.0
Mg3 Mg 0.49088 0.39402 0.0507 0.0
C4 C 0.52125 0.31614 0.03164 0.0
C5 C 0.38514 0.18023 0.01004 0.0
O6 O 0.4192 0.21395 0.99827 0.0
O7 O 0.40094 0.26417 0.0668 0.0
O8 O 0.45675 0.3385 0.07756 0.0
O9 O 0.40851 0.30509 0.99936 0.0
O10 O 0.43141 0.3479 0.02881 0.0
C11 C 0.42541 0.29421 0.08131 0.0
C12 C 0.43037 0.34684 0.00861 0.0
O13 O 0.36854 0.19282 0.02544 0.0
Mg14 Mg 0.13259 0.41705 0.38576 0.0
O15 O 0.19598 0.48366 0.36997 0.0
O16 O 0.18369 0.54665 0.37284 0.0
Mg17 Mg 0.11409 0.52115 0.39175 0.0
C18 C 0.20856 0.52787 0.36637 0.0
C19 C 0.1875 0.37249 0.36499 0.0
O20 O 0.17525 0.39024 0.34905 0.0
O21 O 0.16347 0.44736 0.4181 0.0
O22 O 0.15075 0.51023 0.42071 0.0
O23 O 0.08991 0.39854 0.35587 0.0
O24 O 0.08905 0.4469 0.38063 0.0
C25 C 0.16614 0.48322 0.42822 0.0
C26 C 0.07642 0.42857 0.36215 0.0
O27 O 0.17525 0.37753 0.38336 0.0
Mg28 Mg 0.75852 0.12394 0.74147 0.0
O29 O 0.74596 0.18427 0.73036 0.0
O30 O 0.6796 0.17968 0.7444 0.0
Mg31 Mg 0.65225 0.11611 0.76777 0.0
C32 C 0.71632 0.19978 0.73222 0.0
C33 C 0.82903 0.17374 0.70571 0.0
O34 O 0.78599 0.15707 0.69715 0.0
O35 O 0.7896 0.16538 0.772 0.0
O36 O 0.7221 0.15554 0.78759 0.0
O37 O 0.70702 0.07478 0.7169 0.0
O38 O 0.68508 0.08176 0.74897 0.0
C39 C 0.76781 0.17122 0.78758 0.0
C40 C 0.67273 0.06415 0.73038 0.0
O41 O 0.83164 0.16426 0.72488 0.0
Mg42 Mg 0.5808 0.7346 0.03054 0.0
O43 O 0.4984 0.69515 0.02551 0.0
O44 O 0.46918 0.61675 0.0327 0.0
Mg45 Mg 0.53274 0.60682 0.0433 0.0
C46 C 0.46308 0.65162 0.02674 0.0
C47 C 0.59722 0.83027 0.01133 0.0
O48 O 0.60408 0.80934 0.995 0.0
O49 O 0.57042 0.73131 0.0661 0.0
O50 O 0.54537 0.65327 0.07277 0.0
O51 O 0.58855 0.71544 0.99739 0.0
O52 O 0.58247 0.67158 0.0253 0.0
C53 C 0.55795 0.69616 0.07892 0.0
C54 C 0.58462 0.67625 0.00527 0.0
O55 O 0.58442 0.80743 0.0286 0.0
Mg56 Mg 0.85272 0.60022 0.38034 0.0
O57 O 0.78316 0.52949 0.37169 0.0
O58 O 0.79603 0.46746 0.37696 0.0
Mg59 Mg 0.87079 0.49801 0.3921 0.0
C60 C 0.76932 0.48437 0.37073 0.0
C61 C 0.78915 0.63715 0.36034 0.0
O62 O 0.78751 0.60694 0.3459 0.0
O63 O 0.83589 0.58662 0.41518 0.0
O64 O 0.84686 0.52354 0.42135 0.0
O65 O 0.881 0.6019 0.34813 0.0
O66 O 0.89317 0.56687 0.37576 0.0
C67 C 0.83619 0.55523 0.42754 0.0
C68 C 0.89751 0.57552 0.35594 0.0
O69 O 0.81245 0.64186 0.37718 0.0
Mg70 Mg 0.23316 0.81899 0.73425 0.0
O71 O 0.25664 0.76314 0.72587 0.0
O72 O 0.3227 0.78339 0.74527 0.0
Mg73 Mg 0.33975 0.84773 0.76646 0.0
C74 C 0.29173 0.75682 0.73142 0.0
C75 C 0.15472 0.8048 0.70459 0.0
O76 O 0.18698 0.85134 0.70476 0.0
O77 O 0.19985 0.78019 0.76544 0.0
O78 O 0.26788 0.80457 0.78403 0.0
O79 O 0.28539 0.8687 0.70986 0.0
O80 O 0.30373 0.86907 0.74322 0.0
C81 C 0.22162 0.78231 0.78262 0.0
C82 C 0.31784 0.88476 0.72452 0.0
O83 O 0.16193 0.77665 0.71626 0.0
Mg84 Mg 0.74006 0.5481 0.62387 0.0
O85 O 0.7403 0.48057 0.63565 0.0
O86 O 0.67789 0.4149 0.62129 0.0
Mg87 Mg 0.64101 0.44156 0.5983 0.0
C88 C 0.7144 0.43468 0.6336 0.0
C89 C 0.84234 0.63683 0.63 0.0
O90 O 0.82544 0.65148 0.61458 0.0
O91 O 0.77128 0.54469 0.59228 0.0
O92 O 0.70868 0.48063 0.57701 0.0
O93 O 0.68726 0.53891 0.64924 0.0
O94 O 0.66661 0.50759 0.61745 0.0
C95 C 0.75216 0.5165 0.57659 0.0
C96 C 0.65349 0.51215 0.63598 0.0
O97 O 0.81548 0.59486 0.63766 0.0
Mg98 Mg 0.12758 0.72585 0.97504 0.0
O99 O 0.17432 0.68974 0.97833 0.0
O100 O 0.1258 0.61044 0.97246 0.0
Mg101 Mg 0.05002 0.59692 0.96378 0.0
C102 C 0.16717 0.64658 0.9773 0.0
C103 C 0.19217 0.82926 0.98878 0.0
O104 O 0.15314 0.81282 1.00054 0.0
O105 O 0.12977 0.72124 0.93936 0.0
O106 O 0.07935 0.64216 0.93358 0.0
O107 O 0.10822 0.70832 0.00879 0.0
O108 O 0.0656 0.66119 0.98229 0.0
C109 C 0.10737 0.68524 0.92691 0.0
C110 C 0.07326 0.66713 0.00217 0.0
O111 O 0.19474 0.80076 0.97559 0.0
Mg112 Mg 0.38434 0.16289 0.27523 0.0
O113 O 0.45652 0.2256 0.28698 0.0
O114 O 0.51821 0.22221 0.2721 0.0
Mg115 Mg 0.48459 0.15955 0.24854 0.0
C116 C 0.50188 0.24165 0.28475 0.0
C117 C 0.3521 0.20375 0.31132 0.0
O118 O 0.37832 0.18835 0.32097 0.0
O119 O 0.39135 0.20185 0.24421 0.0
O120 O 0.45243 0.1974 0.22894 0.0
O121 O 0.38874 0.11429 0.29951 0.0
O122 O 0.41746 0.12332 0.26727 0.0
C123 C 0.42013 0.21007 0.22877 0.0
C124 C 0.41215 0.1045 0.28558 0.0
O125 O 0.34657 0.19838 0.29157 0.0
Mg126 Mg 0.24121 0.41354 0.6154 0.0
O127 O 0.26856 0.48562 0.63316 0.0
O128 O 0.34632 0.53395 0.62416 0.0
Mg129 Mg 0.36583 0.4966 0.59857 0.0
C130 C 0.30891 0.52529 0.63487 0.0
C131 C 0.15232 0.3777 0.64494 0.0
O132 O 0.18584 0.38352 0.65854 0.0
O133 O 0.23194 0.44641 0.58523 0.0
O134 O 0.30937 0.49731 0.57621 0.0
O135 O 0.27312 0.38885 0.64065 0.0
O136 O 0.3111 0.42643 0.61152 0.0
C137 C 0.26375 0.47813 0.57298 0.0
C138 C 0.31214 0.40818 0.62934 0.0
O139 O 0.16416 0.38879 0.62587 0.0
Mg140 Mg 0.88276 0.26875 0.97793 0.0
O141 O 0.82099 0.28466 0.98075 0.0
O142 O 0.84332 0.36006 0.97077 0.0
Mg143 Mg 0.92401 0.39372 0.96162 0.0
C144 C 0.81152 0.31854 0.97773 0.0
C145 C 0.79911 0.17921 0.99815 0.0
O146 O 0.80608 0.21425 0.01106 0.0
O147 O 0.87255 0.26385 0.94242 0.0
O148 O 0.90362 0.34187 0.93342 0.0
O149 O 0.90667 0.29624 0.01061 0.0
O150 O 0.93169 0.34189 0.98205 0.0
C151 C 0.885 0.29707 0.92862 0.0
C152 C 0.9305 0.33878 0.00218 0.0
O153 O 0.82679 0.18917 0.98231 0.0
Mg154 Mg 0.59149 0.84566 0.26987 0.0
O155 O 0.51869 0.78387 0.28131 0.0
O156 O 0.45848 0.79022 0.26649 0.0
Mg157 Mg 0.49374 0.85542 0.24406 0.0
C158 C 0.4736 0.76902 0.27881 0.0
C159 C 0.65293 0.8281 0.30188 0.0
O160 O 0.65664 0.86887 0.30847 0.0
O161 O 0.58121 0.80601 0.23872 0.0
O162 O 0.5246 0.81798 0.22348 0.0
O163 O 0.58909 0.89366 0.29504 0.0
O164 O 0.56013 0.88764 0.26306 0.0
C165 C 0.55425 0.80194 0.22308 0.0
C166 C 0.56599 0.90515 0.28167 0.0
O167 O 0.62883 0.80855 0.2853 0.0
H168 H 0.19636 0.89736 0.01597 0.0
H169 H 0.27436 0.87769 0.9646 0.0
H170 H 0.33526 0.96521 0.96573 0.0
H171 H 0.21125 0.00883 0.99932 0.0
H172 H 0.21868 0.0339 0.02529 0.0
H173 H 0.18365 0.96931 0.0215 0.0
H174 H 0.23823 0.95727 0.04816 0.0
H175 H 0.27337 0.02191 0.05211 0.0
H176 H 0.30311 0.98886 0.04432 0.0
H177 H 0.38425 0.05577 0.971 0.0
H178 H 0.41841 0.14204 0.98031 0.0
H179 H 0.30798 0.10144 0.02835 0.0
C180 C 0.22653 0.91123 0.00509 0.0
C181 C 0.23064 0.88071 0.99019 0.0
C182 C 0.27057 0.90041 0.97619 0.0
C183 C 0.30533 0.95003 0.97672 0.0
C184 C 0.29969 0.9792 0.99143 0.0
C185 C 0.26144 0.96044 0.00544 0.0
C186 C 0.26245 -0.00034 0.01916 0.0
C187 C 0.21627 0.00312 0.01612 0.0
C188 C 0.26974 0.99143 0.04231 0.0
C189 C 0.30674 0.04369 0.01041 0.0
C190 C 0.32791 0.03116 0.99451 0.0
C191 C 0.36823 0.06596 0.98354 0.0
C192 C 0.38726 0.11487 0.98891 0.0
C193 C 0.36587 0.12847 0.00507 0.0
C194 C 0.32534 0.09222 0.01602 0.0
H195 H 0.21011 0.34817 0.3273 0.0
H196 H 0.2255 0.33791 0.39443 0.0
H197 H 0.26996 0.29395 0.38801 0.0
H198 H 0.18958 0.23016 0.31443 0.0
H199 H 0.22313 0.24936 0.2902 0.0
H200 H 0.19354 0.28085 0.30015 0.0
H201 H 0.27537 0.36203 0.2991 0.0
H202 H 0.30523 0.33081 0.28912 0.0
H203 H 0.32736 0.36679 0.31262 0.0
H204 H 0.31286 0.25135 0.37411 0.0
H205 H 0.34972 0.21191 0.35392 0.0
H206 H 0.30452 0.24907 0.29594 0.0
C207 C 0.22292 0.33686 0.34068 0.0
C208 C 0.21443 0.34653 0.36138 0.0
C209 C 0.2316 0.33086 0.37844 0.0
C210 C 0.2569 0.30593 0.37495 0.0
C211 C 0.26452 0.29691 0.35432 0.0
C212 C 0.24794 0.31182 0.33749 0.0
C213 C 0.26022 0.29706 0.31687 0.0
C214 C 0.21385 0.26228 0.3047 0.0
C215 C 0.29406 0.34184 0.30366 0.0
C216 C 0.28628 0.27139 0.32471 0.0
C217 C 0.28857 0.27187 0.34635 0.0
C218 C 0.31122 0.25068 0.35717 0.0
C219 C 0.33206 0.2284 0.34555 0.0
C220 C 0.32987 0.22728 0.32335 0.0
C221 C 0.30661 0.24911 0.31288 0.0
H222 H 0.92454 0.21539 0.71819 0.0
H223 H 0.83304 0.20484 0.66556 0.0
H224 H 0.90576 0.25994 0.64514 0.0
H225 H 0.0147 0.34238 0.71116 0.0
H226 H 0.065 0.33422 0.71827 0.0
H227 H 0.00564 0.29495 0.72917 0.0
H228 H 0.008 0.21966 0.71533 0.0
H229 H 0.06746 0.25865 0.70453 0.0
H230 H 0.01913 0.21588 0.68788 0.0
H231 H 0.98784 0.31437 0.63006 0.0
H232 H 0.07468 0.36192 0.62075 0.0
H233 H 0.11311 0.3375 0.68309 0.0
C234 C 0.91981 0.22471 0.70238 0.0
C235 C 0.87309 0.20576 0.69348 0.0
C236 C 0.86845 0.21878 0.67272 0.0
C237 C 0.90952 0.25025 0.661 0.0
C238 C 0.95498 0.26845 0.67025 0.0
C239 C 0.96046 0.25609 0.69042 0.0
C240 C 0.0136 0.27966 0.69639 0.0
C241 C 0.02541 0.31489 0.71484 0.0
C242 C 0.02787 0.24116 0.70131 0.0
C243 C 0.03704 0.30661 0.67631 0.0
C244 C 0.00254 0.29995 0.66151 0.0
C245 C 0.01527 0.32006 0.64154 0.0
C246 C 0.06468 0.34703 0.63641 0.0
C247 C 0.10069 0.35347 0.65119 0.0
C248 C 0.08651 0.33355 0.67149 0.0
H249 H 0.6493 0.89484 0.98048 0.0
H250 H 0.58218 0.88354 0.04102 0.0
H251 H 0.61991 0.9727 0.04225 0.0
H252 H 0.75975 0.99115 0.99287 0.0
H253 H 0.77217 0.02079 0.96772 0.0
H254 H 0.73266 0.95625 0.96945 0.0
H255 H 0.66401 0.96321 0.95081 0.0
H256 H 0.70362 0.0279 0.94872 0.0
H257 H 0.64507 0.00383 0.9611 0.0
H258 H 0.67322 0.06254 0.0391 0.0
H259 H 0.73728 0.14658 0.03166 0.0
H260 H 0.77144 0.09886 0.97363 0.0
C261 C 0.6412 0.91093 0.99369 0.0
C262 C 0.61262 0.8823 0.01061 0.0
C263 C 0.60382 0.90484 0.02785 0.0
C264 C 0.62499 0.95542 0.02866 0.0
C265 C 0.65461 0.98274 0.01208 0.0
C266 C 0.66238 0.96127 0.99483 0.0
C267 C 0.69975 -0.00125 0.98017 0.0
C268 C 0.74366 0.99127 0.97741 0.0
C269 C 0.67672 -0.0016 0.95894 0.0
C270 C 0.7133 0.04455 0.9923 0.0
C271 C 0.68623 0.03464 0.01046 0.0
C272 C 0.69413 0.07085 0.02478 0.0
C273 C 0.73079 0.11843 0.02045 0.0
C274 C 0.75943 0.12923 0.00208 0.0
C275 C 0.75008 0.09177 0.98777 0.0
H276 H 0.65765 0.74674 0.29167 0.0
H277 H 0.69774 0.85647 0.33995 0.0
H278 H 0.73328 0.81705 0.36095 0.0
H279 H 0.62642 0.64563 0.32655 0.0
H280 H 0.65148 0.61836 0.30964 0.0
H281 H 0.62766 0.65423 0.29858 0.0
H282 H 0.70995 0.70921 0.28007 0.0
H283 H 0.7339 0.67337 0.29096 0.0
H284 H 0.765 0.73792 0.29538 0.0
H285 H 0.7652 0.76652 0.37658 0.0
H286 H 0.79533 0.71056 0.38489 0.0
H287 H 0.73545 0.63446 0.32626 0.0
C288 C 0.67377 0.7624 0.30669 0.0
C289 C 0.67483 0.80463 0.31418 0.0
C290 C 0.69652 0.82415 0.33386 0.0
C291 C 0.71666 0.80194 0.34596 0.0
C292 C 0.71488 0.7603 0.33815 0.0
C293 C 0.69424 0.74083 0.31894 0.0
C294 C 0.69847 0.69667 0.31389 0.0
C295 C 0.648 0.65102 0.31207 0.0
C296 C 0.72864 0.70481 0.29389 0.0
C297 C 0.72514 0.69472 0.33318 0.0
C298 C 0.73386 0.73147 0.34707 0.0
C299 C 0.75854 0.7375 0.36586 0.0
C300 C 0.77543 0.70549 0.37045 0.0
C301 C 0.76781 0.66819 0.35622 0.0
C302 C 0.74183 0.66256 0.33748 0.0
H303 H 0.89066 0.61577 0.66027 0.0
H304 H 0.90567 0.73056 0.61875 0.0
H305 H 0.9875 0.78488 0.63297 0.0
H306 H 0.95108 0.69128 0.70447 0.0
H307 H 0.98062 0.65802 0.71224 0.0
H308 H 0.92343 0.62753 0.69855 0.0
H309 H 0.96179 0.59911 0.6701 0.0
H310 H 0.01913 0.6295 0.6837 0.0
H311 H 0.0157 0.64339 0.65659 0.0
H312 H 0.06608 0.82735 0.65211 0.0
H313 H 0.138 0.85557 0.67467 0.0
H314 H 0.0735 0.71322 0.70365 0.0
C315 C 0.91119 0.6523 0.65413 0.0
C316 C 0.8917 0.66895 0.6384 0.0
C317 C 0.91979 0.71696 0.63078 0.0
C318 C 0.96632 0.74812 0.63875 0.0
C319 C 0.98435 0.73064 0.65427 0.0
C320 C 0.95784 0.68387 0.66186 0.0
C321 C 0.98578 0.6744 0.67868 0.0
C322 C 0.9586 0.66209 0.69973 0.0
C323 C -0.00378 0.63422 0.67185 0.0
C324 C 0.03198 0.72335 0.67947 0.0
C325 C 0.03024 0.75515 0.66523 0.0
C326 C 0.068 0.80277 0.66326 0.0
C327 C 0.10869 0.81844 0.6762 0.0
C328 C 0.11146 0.7866 0.69093 0.0
C329 C 0.07257 0.73832 0.69247 0.0
H330 H 0.7849 0.38516 0.98936 0.0
H331 H 0.72857 0.2309 0.98049 0.0
H332 H 0.64864 0.21375 0.9936 0.0
H333 H 0.72323 0.37395 0.03732 0.0
H334 H 0.711 0.42235 0.03192 0.0
H335 H 0.76335 0.42347 0.02052 0.0
H336 H 0.73443 0.4302 0.98338 0.0
H337 H 0.68229 0.42977 0.99465 0.0
H338 H 0.67412 0.38585 0.97491 0.0
H339 H 0.57542 0.21278 0.00803 0.0
H340 H 0.51271 0.22827 0.02269 0.0
H341 H 0.61687 0.38283 0.0236 0.0
C342 C 0.75545 0.34788 0.98981 0.0
C343 C 0.76279 0.30938 0.98373 0.0
C344 C 0.72371 0.26097 0.98501 0.0
C345 C 0.67818 0.25083 0.99245 0.0
C346 C 0.67235 0.28944 0.9987 0.0
C347 C 0.70978 0.33701 0.99745 0.0
C348 C 0.69411 0.37153 0.00589 0.0
C349 C 0.72475 0.39946 0.02505 0.0
C350 C 0.69636 0.40639 0.98868 0.0
C351 C 0.6421 0.33585 0.01205 0.0
C352 C 0.63031 0.28874 0.00768 0.0
C353 C 0.58418 0.24949 0.01159 0.0
C354 C 0.54885 0.25867 0.01994 0.0
C355 C 0.55994 0.30669 0.02445 0.0
C356 C 0.60742 0.34565 0.02061 0.0
H357 H 0.23045 0.60974 0.34407 0.0
H358 H 0.28556 0.51353 0.35969 0.0
H359 H 0.35882 0.5639 0.33833 0.0
H360 H 0.2717 0.62997 0.29043 0.0
H361 H 0.2864 0.69245 0.29031 0.0
H362 H 0.23875 0.64925 0.30708 0.0
H363 H 0.28169 0.70322 0.33938 0.0
H364 H 0.32938 0.74666 0.32273 0.0
H365 H 0.34408 0.72101 0.34477 0.0
H366 H 0.42763 0.62698 0.3166 0.0
H367 H 0.48515 0.6957 0.29455 0.0
H368 H 0.38261 0.7477 0.29145 0.0
C369 C 0.25804 0.59938 0.3431 0.0
C370 C 0.25256 0.55797 0.3537 0.0
C371 C 0.28909 0.54518 0.35174 0.0
C372 C 0.3308 0.57356 0.33966 0.0
C373 C 0.33503 0.61415 0.32942 0.0
C374 C 0.29945 0.6268 0.33087 0.0
C375 C 0.31235 0.67164 0.31803 0.0
C376 C 0.27508 0.66012 0.30042 0.0
C377 C 0.31717 0.71308 0.33207 0.0
C378 C 0.3611 0.68265 0.30931 0.0
C379 C 0.37365 0.64922 0.31617 0.0
C380 C 0.41798 0.65308 0.31096 0.0
C381 C 0.45041 0.69226 0.29847 0.0
C382 C 0.43811 0.72672 0.29114 0.0
C383 C 0.39265 0.72146 0.29653 0.0
H384 H 0.64887 0.21499 0.71204 0.0
H385 H 0.80369 0.27725 0.72223 0.0
H386 H 0.8202 0.34409 0.69791 0.0
H387 H 0.65864 0.23947 0.65712 0.0
H388 H 0.60989 0.25282 0.65627 0.0
H389 H 0.6096 0.21183 0.67578 0.0
H390 H 0.60337 0.26442 0.70525 0.0
H391 H 0.60305 0.30526 0.68582 0.0
H392 H 0.64765 0.3282 0.70651 0.0
H393 H 0.81998 0.40445 0.67292 0.0
H394 H 0.80299 0.45298 0.64765 0.0
H395 H 0.64896 0.34791 0.65122 0.0
C396 C 0.68611 0.24329 0.70943 0.0
C397 C 0.72503 0.2416 0.71922 0.0
C398 C 0.77342 0.27831 0.71498 0.0
C399 C 0.78314 0.31631 0.7012 0.0
C400 C 0.74409 0.31659 0.6915 0.0
C401 C 0.69654 0.28097 0.69531 0.0
C402 C 0.6615 0.2885 0.68193 0.0
C403 C 0.63325 0.2456 0.66688 0.0
C404 C 0.62686 0.29712 0.6957 0.0
C405 C 0.69677 0.33402 0.67015 0.0
C406 C 0.74418 0.34986 0.67607 0.0
C407 C 0.78304 0.39223 0.66801 0.0
C408 C 0.77311 0.41948 0.65367 0.0
C409 C 0.72483 0.40373 0.64729 0.0
C410 C 0.68632 0.36018 0.65549 0.0
H411 H 0.26225 0.71388 0.98664 0.0
H412 H 0.16237 0.55871 0.98201 0.0
H413 H 0.22685 0.54331 0.99435 0.0
H414 H 0.36949 0.71111 0.96916 0.0
H415 H 0.40949 0.75828 0.98695 0.0
H416 H 0.35571 0.75709 0.97726 0.0
H417 H 0.3278 0.75701 0.01542 0.0
H418 H 0.38129 0.75781 0.02522 0.0
H419 H 0.32192 0.71062 0.03334 0.0
H420 H 0.30121 0.54449 0.00848 0.0
H421 H 0.38161 0.56236 0.02143 0.0
H422 H 0.43341 0.7167 0.01644 0.0
C423 C 0.25395 0.67665 0.98805 0.0
C424 C 0.20709 0.63755 0.98329 0.0
C425 C 0.19794 0.58937 0.98543 0.0
C426 C 0.2343 0.58017 0.99251 0.0
C427 C 0.27979 0.6195 0.99731 0.0
C428 C 0.28988 0.66677 0.995 0.0
C429 C 0.34179 0.70249 1.00129 0.0
C430 C 0.37083 0.7341 0.98254 0.0
C431 C 0.34326 0.73382 0.01992 0.0
C432 C 0.35919 0.66787 0.00759 0.0
C433 C 0.32282 0.62018 0.00525 0.0
C434 C 0.33006 0.58172 0.0103 0.0
C435 C 0.37586 0.59227 0.01773 0.0
C436 C 0.414 0.64094 0.01998 0.0
C437 C 0.40518 0.67909 0.01489 0.0
H438 H 0.59312 0.2636 0.29713 0.0
H439 H 0.48764 0.31142 0.30282 0.0
H440 H 0.54396 0.3783 0.32602 0.0
H441 H 0.6322 0.28619 0.35078 0.0
H442 H 0.69472 0.30575 0.34474 0.0
H443 H 0.64699 0.2629 0.32791 0.0
H444 H 0.68755 0.31938 0.29601 0.0
H445 H 0.73557 0.36223 0.31272 0.0
H446 H 0.70093 0.38142 0.29716 0.0
H447 H 0.61338 0.44178 0.34766 0.0
H448 H 0.6889 0.49444 0.36741 0.0
H449 H 0.7458 0.40107 0.34951 0.0
C450 C 0.58208 0.28844 0.30308 0.0
C451 C 0.53626 0.28269 0.298 0.0
C452 C 0.5227 0.31532 0.30646 0.0
C453 C 0.55441 0.35338 0.31964 0.0
C454 C 0.59919 0.35782 0.32446 0.0
C455 C 0.61285 0.32601 0.31656 0.0
C456 C 0.6623 0.33775 0.32467 0.0
C457 C 0.65881 0.29564 0.33781 0.0
C458 C 0.69873 0.35099 0.30656 0.0
C459 C 0.67454 0.38141 0.33821 0.0
C460 C 0.6379 0.3927 0.33777 0.0
C461 C 0.64208 0.43296 0.34832 0.0
C462 C 0.68501 0.46261 0.35948 0.0
C463 C 0.72278 0.45135 0.36026 0.0
C464 C 0.71709 0.40996 0.3496 0.0
H465 H 0.2392 0.54624 0.64859 0.0
H466 H 0.38999 0.58548 0.65698 0.0
H467 H 0.39951 0.64464 0.68414 0.0
H468 H 0.26088 0.66797 0.65332 0.0
H469 H 0.20479 0.65066 0.66687 0.0
H470 H 0.20852 0.60886 0.64903 0.0
H471 H 0.18001 0.54442 0.67851 0.0
H472 H 0.17644 0.58616 0.69649 0.0
H473 H 0.21302 0.55933 0.70291 0.0
H474 H 0.39315 0.69841 0.71035 0.0
H475 H 0.37449 0.75125 0.7316 0.0
H476 H 0.22908 0.68238 0.70507 0.0
C477 C 0.27407 0.56716 0.65627 0.0
C478 C 0.31386 0.5612 0.65078 0.0
C479 C 0.35914 0.58965 0.6609 0.0
C480 C 0.36482 0.62309 0.67643 0.0
C481 C 0.32503 0.62817 0.6815 0.0
C482 C 0.28071 0.60162 0.67156 0.0
C483 C 0.24492 0.61667 0.67914 0.0
C484 C 0.22885 0.63727 0.66101 0.0
C485 C 0.201 0.5741 0.6899 0.0
C486 C 0.27622 0.65589 0.69481 0.0
C487 C 0.32199 0.66117 0.69611 0.0
C488 C 0.35749 0.69475 0.70946 0.0
C489 C 0.34635 0.7245 0.72155 0.0
C490 C 0.30026 0.72112 0.72005 0.0
C491 C 0.2646 0.68591 0.70659 0.0
H492 H 0.49082 0.31359 0.1128 0.0
H493 H 0.33652 0.23987 0.09933 0.0
H494 H 0.31851 0.21862 0.13688 0.0
H495 H 0.48265 0.22398 0.1491 0.0
H496 H 0.53047 0.26729 0.1658 0.0
H497 H 0.53056 0.27993 0.13831 0.0
H498 H 0.53403 0.36085 0.14755 0.0
H499 H 0.53313 0.34799 0.1751 0.0
H500 H 0.48795 0.36011 0.16425 0.0
H501 H 0.31768 0.20712 0.17605 0.0
H502 H 0.33332 0.192 0.21246 0.0
H503 H 0.48801 0.2666 0.1996 0.0
C504 C 0.45329 0.2931 0.11784 0.0
C505 C 0.41496 0.27857 0.10335 0.0
C506 C 0.36629 0.25111 0.1103 0.0
C507 C 0.35577 0.23936 0.13157 0.0
C508 C 0.39441 0.25466 0.14557 0.0
C509 C 0.44219 0.27991 0.13891 0.0
C510 C 0.47691 0.28808 0.15674 0.0
C511 C 0.50689 0.26333 0.15222 0.0
C512 C 0.50995 0.3425 0.16117 0.0
C513 C 0.4412 0.26325 0.17446 0.0
C514 C 0.39386 0.24534 0.16783 0.0
C515 C 0.35458 0.22087 0.18141 0.0
C516 C 0.36383 0.21282 0.20211 0.0
C517 C 0.41184 0.22822 0.2088 0.0
C518 C 0.45096 0.25463 0.19489 0.0
H519 H 0.15303 0.41647 0.45817 0.0
H520 H 0.2208 0.57118 0.44699 0.0
H521 H 0.25007 0.58722 0.48368 0.0
H522 H 0.1113 0.4204 0.51051 0.0
H523 H 0.12122 0.37306 0.52038 0.0
H524 H 0.10691 0.37378 0.49311 0.0
H525 H 0.18515 0.37311 0.48234 0.0
H526 H 0.19939 0.37183 0.50955 0.0
H527 H 0.24295 0.41887 0.49265 0.0
H528 H 0.27638 0.58603 0.52082 0.0
H529 H 0.29407 0.56752 0.55638 0.0
H530 H 0.20167 0.41387 0.54436 0.0
C531 C 0.17442 0.45369 0.46344 0.0
C532 C 0.18533 0.49269 0.44978 0.0
C533 C 0.21239 0.5409 0.45727 0.0
C534 C 0.22904 0.55031 0.47804 0.0
C535 C 0.21728 0.51103 0.4912 0.0
C536 C 0.19018 0.46368 0.48426 0.0
C537 C 0.18145 0.428 0.5017 0.0
C538 C 0.12698 0.39699 0.50672 0.0
C539 C 0.20357 0.39609 0.49623 0.0
C540 C 0.20874 0.46266 0.51943 0.0
C541 C 0.22945 0.51041 0.51302 0.0
C542 C 0.25957 0.54884 0.52617 0.0
C543 C 0.26933 0.53809 0.54629 0.0
C544 C 0.24816 0.48946 0.55313 0.0
C545 C 0.21692 0.4514 0.53966 0.0
H546 H 0.80673 0.21957 0.91052 0.0
H547 H 0.94644 0.34555 0.89642 0.0
H548 H 0.93384 0.32486 0.85867 0.0
H549 H 0.80744 0.13878 0.87048 0.0
H550 H 0.74383 0.11311 0.86451 0.0
H551 H 0.76587 0.13549 0.89048 0.0
H552 H 0.72918 0.19192 0.88818 0.0
H553 H 0.70709 0.16977 0.86221 0.0
H554 H 0.74581 0.2339 0.86663 0.0
H555 H 0.90601 0.28946 0.82243 0.0
H556 H 0.86126 0.24715 0.79018 0.0
H557 H 0.73689 0.14943 0.82795 0.0
C558 C 0.83487 0.2423 0.89947 0.0
C559 C 0.87781 0.28372 0.90627 0.0
C560 C 0.91338 0.31351 0.89141 0.0
C561 C 0.90663 0.30196 0.87 0.0
C562 C 0.86369 0.261 0.86373 0.0
C563 C 0.82813 0.23202 0.878 0.0
C564 C 0.78375 0.19231 0.86707 0.0
C565 C 0.77471 0.14194 0.87352 0.0
C566 C 0.73882 0.1973 0.87127 0.0
C567 C 0.79988 0.20347 0.84445 0.0
C568 C 0.84643 0.24266 0.84283 0.0
C569 C 0.86941 0.25891 0.82349 0.0
C570 C 0.84387 0.2347 0.80529 0.0
C571 C 0.79562 0.19551 0.80664 0.0
C572 C 0.77357 0.17976 0.82648 0.0
H573 H 0.54505 0.76487 0.09924 0.0
H574 H 0.57443 0.64753 0.11003 0.0
H575 H 0.57864 0.6627 0.14814 0.0
H576 H 0.6215 0.84472 0.14004 0.0
H577 H 0.57944 0.86458 0.14722 0.0
H578 H 0.58056 0.84563 0.12074 0.0
H579 H 0.48864 0.78251 0.12304 0.0
H580 H 0.48724 0.80131 0.14952 0.0
H581 H 0.46676 0.7385 0.14394 0.0
H582 H 0.58259 0.69283 0.18514 0.0
H583 H 0.57809 0.73071 0.21838 0.0
H584 H 0.54016 0.8238 0.1834 0.0
C585 C 0.5526 0.74257 0.10964 0.0
C586 C 0.55971 0.70524 0.10171 0.0
C587 C 0.56876 0.67628 0.1158 0.0
C588 C 0.57143 0.68474 0.13746 0.0
C589 C 0.56425 0.72182 0.14479 0.0
C590 C 0.55439 0.74985 0.13133 0.0
C591 C 0.54594 0.78596 0.1433 0.0
C592 C 0.58414 0.83832 0.13748 0.0
C593 C 0.49406 0.77648 0.13974 0.0
C594 C 0.55282 0.774 0.16555 0.0
C595 C 0.564 0.73736 0.16611 0.0
C596 C 0.57344 0.72128 0.18493 0.0
C597 C 0.57096 0.74302 0.20369 0.0
C598 C 0.55828 0.77971 0.20344 0.0
C599 C 0.54921 0.79528 0.18409 0.0
H600 H 0.73951 0.45741 0.54292 0.0
H601 H 0.82118 0.60698 0.56393 0.0
H602 H 0.85222 0.63286 0.52805 0.0
H603 H 0.83333 0.46744 0.50504 0.0
H604 H 0.78815 0.42679 0.48668 0.0
H605 H 0.7754 0.41982 0.51438 0.0
H606 H 0.69812 0.42563 0.50776 0.0
H607 H 0.71109 0.4336 0.48012 0.0
H608 H 0.70342 0.47803 0.49448 0.0
H609 H 0.86435 0.64373 0.48918 0.0
H610 H 0.86982 0.63742 0.45075 0.0
H611 H 0.7867 0.48056 0.45527 0.0
C612 C 0.76484 0.49545 0.54006 0.0
C613 C 0.77788 0.53018 0.55622 0.0
C614 C 0.81101 0.57965 0.55186 0.0
C615 C 0.82856 0.59478 0.53148 0.0
C616 C 0.81355 0.55987 0.51575 0.0
C617 C 0.78361 0.51108 0.51989 0.0
C618 C 0.77295 0.48106 0.5001 0.0
C619 C 0.79371 0.44676 0.50165 0.0
C620 C 0.71815 0.45294 0.49535 0.0
C621 C 0.80036 0.52076 0.48411 0.0
C622 C 0.82303 0.566 0.49345 0.0
C623 C 0.84763 0.60848 0.48174 0.0
C624 C 0.85012 0.60458 0.45994 0.0
C625 C 0.82889 0.55856 0.45017 0.0
C626 C 0.80366 0.51617 0.46243 0.0
H627 H 0.18564 0.75767 0.90627 0.0
H628 H 0.04448 0.63018 0.89584 0.0
H629 H 0.05615 0.64241 0.85755 0.0
H630 H 0.1829 0.8296 0.86292 0.0
H631 H 0.24633 0.8543 0.85685 0.0
H632 H 0.22525 0.837 0.88336 0.0
H633 H 0.2622 0.78065 0.88415 0.0
H634 H 0.28335 0.79774 0.85766 0.0
H635 H 0.245 0.73466 0.86428 0.0
H636 H 0.08381 0.66953 0.81997 0.0
H637 H 0.12792 0.7056 0.78673 0.0
H638 H 0.25207 0.81155 0.82248 0.0
C639 C 0.15695 0.73264 0.89593 0.0
C640 C 0.114 0.69323 0.90402 0.0
C641 C 0.07771 0.66068 0.88997 0.0
C642 C 0.08392 0.66742 0.8682 0.0
C643 C 0.12687 0.70655 0.86073 0.0
C644 C 0.16292 0.73832 0.8742 0.0
C645 C 0.20678 0.77586 0.86228 0.0
C646 C 0.21582 0.82723 0.86661 0.0
C647 C 0.25199 0.77196 0.8674 0.0
C648 C 0.18987 0.76026 0.84001 0.0
C649 C 0.14348 0.72064 0.83933 0.0
C650 C 0.12027 0.70046 0.82032 0.0
C651 C 0.14546 0.72116 0.80155 0.0
C652 C 0.19352 0.76096 0.80204 0.0
C653 C 0.2156 0.78068 0.82157 0.0
H654 H 0.61972 0.61658 0.01111 0.0
H655 H 0.52106 0.63898 0.97251 0.0
H656 H 0.48151 0.55355 0.96084 0.0
H657 H 0.61834 0.51258 0.97719 0.0
H658 H 0.62011 0.48317 1.00103 0.0
H659 H 0.65227 0.54849 0.99943 0.0
H660 H 0.60671 0.55151 0.03252 0.0
H661 H 0.57395 0.48679 0.03402 0.0
H662 H 0.54116 0.51929 0.03256 0.0
H663 H 0.4378 0.46325 0.96256 0.0
H664 H 0.397 0.37943 0.97665 0.0
H665 H 0.52359 0.41591 0.01441 0.0
C666 C 0.59178 0.60399 0.99917 0.0
C667 C 0.57364 0.63386 0.99243 0.0
C668 C 0.53608 0.61662 0.97738 0.0
C669 C 0.51338 0.56809 0.97075 0.0
C670 C 0.52953 0.53803 0.97906 0.0
C671 C 0.56894 0.55583 0.99257 0.0
C672 C 0.57347 0.51536 0.00267 0.0
C673 C 0.61873 0.51487 0.99458 0.0
C674 C 0.57375 0.51844 0.02684 0.0
C675 C 0.52765 0.47213 0.99459 0.0
C676 C 0.50365 0.48547 0.98033 0.0
C677 C 0.45707 0.4522 0.97314 0.0
C678 C 0.43406 0.4048 0.98123 0.0
C679 C 0.4574 0.39192 0.99665 0.0
C680 C 0.50524 0.42525 0.00266 0.0
H681 H 0.99202 0.61138 0.34848 0.0
H682 H 0.84997 0.48776 0.33691 0.0
H683 H 0.88757 0.4396 0.32607 0.0
H684 H 0.06365 0.57724 0.30755 0.0
H685 H 0.11353 0.59903 0.32579 0.0
H686 H 0.07806 0.62876 0.32397 0.0
H687 H 0.06145 0.61678 0.36389 0.0
H688 H 0.09611 0.58686 0.36576 0.0
H689 H 0.034 0.55642 0.37473 0.0
H690 H 0.93647 0.39933 0.32758 0.0
H691 H 0.99085 0.37162 0.34185 0.0
H692 H 0.10174 0.52056 0.3528 0.0
C693 C 0.96944 0.57519 0.34226 0.0
C694 C 0.91864 0.55335 0.34283 0.0
C695 C 0.88918 0.5052 0.33585 0.0
C696 C 0.91033 0.47772 0.32967 0.0
C697 C 0.96085 0.49921 0.33053 0.0
C698 C 0.9902 0.5474 0.33628 0.0
C699 C 0.04182 0.55918 0.34044 0.0
C700 C 0.07629 0.59305 0.32342 0.0
C701 C 0.05924 0.58099 0.36251 0.0
C702 C 0.03563 0.50912 0.3386 0.0
C703 C 0.98941 0.47533 0.33189 0.0
C704 C 0.97323 0.42564 0.33212 0.0
C705 C 0.00419 0.41012 0.34025 0.0
C706 C 0.05006 0.44426 0.34838 0.0
C707 C 0.06674 0.49411 0.34657 0.0
H708 H 0.59492 0.03075 0.75643 0.0
H709 H 0.63337 0.03599 0.69086 0.0
H710 H 0.54592 0.99314 0.68145 0.0
H711 H 0.48992 0.91392 0.75593 0.0
H712 H 0.45683 0.93024 0.77395 0.0
H713 H 0.52213 0.96104 0.77506 0.0
H714 H 0.52573 0.04376 0.7707 0.0
H715 H 0.4604 0.01316 0.7695 0.0
H716 H 0.49616 0.05316 0.74857 0.0
H717 H 0.45267 0.94837 0.67976 0.0
H718 H 0.36374 0.90398 0.68616 0.0
H719 H 0.39022 0.93336 0.7527 0.0
C720 C 0.58523 0.02341 0.74004 0.0
C721 C 0.62095 0.03709 0.72436 0.0
C722 C 0.60649 0.0258 0.70314 0.0
C723 C 0.55699 0.0017 0.69766 0.0
C724 C 0.52271 0.98942 0.71358 0.0
C725 C 0.53643 -7e-05 0.73434 0.0
C726 C 0.49314 0.98282 0.74865 0.0
C727 C 0.49036 0.94474 0.76431 0.0
C728 C 0.49391 0.02579 0.76002 0.0
C729 C 0.45262 0.9605 0.73278 0.0
C730 C 0.47006 0.96458 0.71261 0.0
C731 C 0.43871 0.94519 0.6955 0.0
C732 C 0.38834 0.92024 0.69926 0.0
C733 C 0.37017 0.91497 0.71994 0.0
C734 C 0.40292 0.93627 0.73673 0.0
H735 H 0.57789 0.46427 0.6093 0.0
H736 H 0.61133 0.50808 0.67434 0.0
H737 H 0.52355 0.47509 0.68136 0.0
H738 H 0.4951 0.50092 0.60279 0.0
H739 H 0.4557 0.45223 0.58547 0.0
H740 H 0.51918 0.47129 0.58674 0.0
H741 H 0.49803 0.38346 0.59581 0.0
H742 H 0.43422 0.364 0.59447 0.0
H743 H 0.45903 0.35285 0.61782 0.0
H744 H 0.43198 0.44441 0.67988 0.0
H745 H 0.34849 0.42415 0.66954 0.0
H746 H 0.37946 0.4044 0.60536 0.0
C747 C 0.5669 0.46571 0.62521 0.0
C748 C 0.60136 0.48821 0.64133 0.0
C749 C 0.58537 0.49057 0.66178 0.0
C750 C 0.53563 0.47178 0.66591 0.0
C751 C 0.50266 0.45069 0.64943 0.0
C752 C 0.51792 0.44758 0.62949 0.0
C753 C 0.47688 0.42843 0.61385 0.0
C754 C 0.48736 0.46543 0.59619 0.0
C755 C 0.46643 0.37926 0.60497 0.0
C756 C 0.43625 0.42282 0.62785 0.0
C757 C 0.45115 0.43467 0.64844 0.0
C758 C 0.41986 0.43446 0.66386 0.0
C759 C 0.3726 0.42285 0.65791 0.0
C760 C 0.358 0.4128 0.6367 0.0
C761 C 0.3899 0.41186 0.6217 0.0
H762 H 0.97923 0.59773 0.00227 0.0
H763 H 0.11821 0.63887 0.03042 0.0
H764 H 0.08631 0.55481 0.04276 0.0
H765 H 0.89987 0.49278 0.04206 0.0
H766 H 0.86047 0.45813 0.02075 0.0
H767 H 0.88785 0.52326 0.0211 0.0
H768 H 0.9235 0.52741 0.98415 0.0
H769 H 0.89689 0.46294 0.98382 0.0
H770 H 0.96146 0.50099 0.97999 0.0
H771 H 0.04968 0.46528 0.04119 0.0
H772 H 0.00953 0.38061 0.0281 0.0
H773 H 0.89247 0.39696 0.00301 0.0
C774 C 0.00168 0.58938 0.01221 0.0
C775 C 0.0506 0.62432 0.01575 0.0
C776 C 0.08013 0.61258 0.02809 0.0
C777 C 0.06228 0.56485 0.03509 0.0
C778 C 0.01457 0.52998 0.03005 0.0
C779 C 0.98409 0.54212 0.01943 0.0
C780 C 0.93768 0.49745 0.01263 0.0
C781 C 0.89388 0.49263 0.02488 0.0
C782 C 0.92953 0.49723 0.98875 0.0
C783 C 0.949 0.45856 0.01903 0.0
C784 C 0.99277 0.47761 0.02961 0.0
C785 C 0.01443 0.44959 0.03374 0.0
C786 C 0.99157 0.40165 0.02627 0.0
C787 C 0.94794 0.38283 0.01476 0.0
C788 C 0.92553 0.41077 0.01199 0.0
H789 H 0.53304 0.94852 0.25513 0.0
H790 H 0.55038 0.9293 0.32125 0.0
H791 H 0.51187 0.97821 0.33014 0.0
H792 H 0.55987 0.07124 0.25849 0.0
H793 H 0.51616 0.06359 0.23868 0.0
H794 H 0.54459 0.02696 0.23799 0.0
H795 H 0.4598 0.94893 0.23807 0.0
H796 H 0.43111 0.98531 0.23875 0.0
H797 H 0.41719 0.93997 0.25862 0.0
H798 H 0.46891 0.02844 0.33121 0.0
H799 H 0.42988 0.07785 0.32429 0.0
H800 H 0.44394 0.06323 0.25744 0.0
C801 C 0.5286 0.95429 0.27151 0.0
C802 C 0.54427 0.93488 0.28752 0.0
C803 C 0.53851 0.94394 0.30875 0.0
C804 C 0.51661 0.97151 0.31393 0.0
C805 C 0.50119 0.98986 0.29765 0.0
C806 C 0.50732 0.98175 0.27688 0.0
C807 C 0.48854 0.00563 0.26217 0.0
C808 C 0.52975 0.04414 0.24854 0.0
C809 C 0.44667 0.96769 0.24861 0.0
C810 C 0.47071 0.02856 0.27784 0.0
C811 C 0.47791 0.01905 0.29825 0.0
C812 C 0.46334 0.03626 0.31527 0.0
C813 C 0.44116 0.06412 0.31122 0.0
C814 C 0.43433 0.07462 0.29035 0.0
C815 C 0.44921 0.05635 0.27358 0.0
loop_
_geom_bond_atom_site_label_1
_geom_bond_atom_site_label_2
_geom_bond_distance
_geom_bond_site_symmetry_2
_ccdc_geom_bond_type
Mg0 O1 2.028 . S
Mg0 O7 1.986 . S
Mg0 O9 2.114 . S
Mg0 O10 2.251 . S
Mg0 O13 2.010 . S
O1 Mg0 2.028 . S
O1 C4 1.250 . S
O2 Mg3 2.028 . S
O2 C4 1.248 . S
Mg3 O2 2.028 . S
Mg3 O8 2.032 . S
Mg3 O10 2.079 . S
C4 O1 1.250 . S
C4 O2 1.248 . S
C5 O6 1.264 . S
C5 O13 1.249 . S
O6 C5 1.264 . S
O7 Mg0 1.986 . S
O7 C11 1.246 . S
O8 Mg3 2.032 . S
O8 C11 1.259 . S
O9 Mg0 2.114 . S
O9 C12 1.252 . S
O10 Mg0 2.251 . S
O10 Mg3 2.079 . S
O10 C12 1.273 . S
C11 O7 1.246 . S
C11 O8 1.259 . S
C12 O9 1.252 . S
C12 O10 1.273 . S
O13 Mg0 2.010 . S
O13 C5 1.249 . S
Mg14 O15 2.028 . S
Mg14 O21 1.986 . S
Mg14 O23 2.114 . S
Mg14 O24 2.251 . S
Mg14 O27 2.010 . S
O15 Mg14 2.028 . S
O15 C18 1.250 . S
O16 Mg17 2.028 . S
O16 C18 1.248 . S
Mg17 O16 2.028 . S
Mg17 O22 2.032 . S
Mg17 O24 2.079 . S
C18 O15 1.250 . S
C18 O16 1.248 . S
C19 O20 1.264 . S
C19 O27 1.249 . S
O20 C19 1.264 . S
O21 Mg14 1.986 . S
O21 C25 1.246 . S
O22 Mg17 2.032 . S
O22 C25 1.259 . S
O23 Mg14 2.114 . S
O23 C26 1.252 . S
O24 Mg14 2.251 . S
O24 Mg17 2.079 . S
O24 C26 1.273 . S
C25 O21 1.246 . S
C25 O22 1.259 . S
C26 O23 1.252 . S
C26 O24 1.273 . S
O27 Mg14 2.010 . S
O27 C19 1.249 . S
Mg28 O29 2.028 . S
Mg28 O35 1.986 . S
Mg28 O37 2.114 . S
Mg28 O38 2.251 . S
Mg28 O41 2.010 . S
O29 Mg28 2.028 . S
O29 C32 1.250 . S
O30 Mg31 2.028 . S
O30 C32 1.248 . S
Mg31 O30 2.028 . S
Mg31 O36 2.032 . S
Mg31 O38 2.079 . S
C32 O29 1.250 . S
C32 O30 1.248 . S
C33 O34 1.264 . S
C33 O41 1.249 . S
O34 C33 1.264 . S
O35 Mg28 1.986 . S
O35 C39 1.246 . S
O36 Mg31 2.032 . S
O36 C39 1.259 . S
O37 Mg28 2.114 . S
O37 C40 1.252 . S
O38 Mg28 2.251 . S
O38 Mg31 2.079 . S
O38 C40 1.273 . S
C39 O35 1.246 . S
C39 O36 1.259 . S
C40 O37 1.252 . S
C40 O38 1.273 . S
O41 Mg28 2.010 . S
O41 C33 1.249 . S
Mg42 O43 2.028 . S
Mg42 O49 1.986 . S
Mg42 O51 2.114 . S
Mg42 O52 2.251 . S
Mg42 O55 2.010 . S
O43 Mg42 2.028 . S
O43 C46 1.250 . S
O44 Mg45 2.028 . S
O44 C46 1.248 . S
Mg45 O44 2.028 . S
Mg45 O50 2.032 . S
Mg45 O52 2.079 . S
C46 O43 1.250 . S
C46 O44 1.248 . S
C47 O48 1.264 . S
C47 O55 1.249 . S
O48 C47 1.264 . S
O49 Mg42 1.986 . S
O49 C53 1.246 . S
O50 Mg45 2.032 . S
O50 C53 1.259 . S
O51 Mg42 2.114 . S
O51 C54 1.252 . S
O52 Mg42 2.251 . S
O52 Mg45 2.079 . S
O52 C54 1.273 . S
C53 O49 1.246 . S
C53 O50 1.259 . S
C54 O51 1.252 . S
C54 O52 1.273 . S
O55 Mg42 2.010 . S
O55 C47 1.249 . S
Mg56 O57 2.028 . S
Mg56 O63 1.986 . S
Mg56 O65 2.114 . S
Mg56 O66 2.251 . S
Mg56 O69 2.010 . S
O57 Mg56 2.028 . S
O57 C60 1.250 . S
O58 Mg59 2.028 . S
O58 C60 1.248 . S
Mg59 O58 2.028 . S
Mg59 O64 2.032 . S
Mg59 O66 2.079 . S
C60 O57 1.250 . S
C60 O58 1.248 . S
C61 O62 1.264 . S
C61 O69 1.249 . S
O62 C61 1.264 . S
O63 Mg56 1.986 . S
O63 C67 1.246 . S
O64 Mg59 2.032 . S
O64 C67 1.259 . S
O65 Mg56 2.114 . S
O65 C68 1.252 . S
O66 Mg56 2.251 . S
O66 Mg59 2.079 . S
O66 C68 1.273 . S
C67 O63 1.246 . S
C67 O64 1.259 . S
C68 O65 1.252 . S
C68 O66 1.273 . S
O69 Mg56 2.010 . S
O69 C61 1.249 . S
Mg70 O71 2.028 . S
Mg70 O77 1.986 . S
Mg70 O79 2.114 . S
Mg70 O80 2.251 . S
Mg70 O83 2.010 . S
O71 Mg70 2.028 . S
O71 C74 1.250 . S
O72 Mg73 2.028 . S
O72 C74 1.248 . S
Mg73 O72 2.028 . S
Mg73 O78 2.032 . S
Mg73 O80 2.079 . S
C74 O71 1.250 . S
C74 O72 1.248 . S
C75 O76 1.264 . S
C75 O83 1.249 . S
O76 C75 1.264 . S
O77 Mg70 1.986 . S
O77 C81 1.246 . S
O78 Mg73 2.032 . S
O78 C81 1.259 . S
O79 Mg70 2.114 . S
O79 C82 1.252 . S
O80 Mg70 2.251 . S
O80 Mg73 2.079 . S
O80 C82 1.273 . S
C81 O77 1.246 . S
C81 O78 1.259 . S
C82 O79 1.252 . S
C82 O80 1.273 . S
O83 Mg70 2.010 . S
O83 C75 1.249 . S
Mg84 O85 2.028 . S
Mg84 O91 1.986 . S
Mg84 O93 2.114 . S
Mg84 O94 2.251 . S
Mg84 O97 2.010 . S
O85 Mg84 2.028 . S
O85 C88 1.250 . S
O86 Mg87 2.028 . S
O86 C88 1.248 . S
Mg87 O86 2.028 . S
Mg87 O92 2.032 . S
Mg87 O94 2.079 . S
C88 O85 1.250 . S
C88 O86 1.248 . S
C89 O90 1.264 . S
C89 O97 1.249 . S
O90 C89 1.264 . S
O91 Mg84 1.986 . S
O91 C95 1.246 . S
O92 Mg87 2.032 . S
O92 C95 1.259 . S
O93 Mg84 2.114 . S
O93 C96 1.252 . S
O94 Mg84 2.251 . S
O94 Mg87 2.079 . S
O94 C96 1.273 . S
C95 O91 1.246 . S
C95 O92 1.259 . S
C96 O93 1.252 . S
C96 O94 1.273 . S
O97 Mg84 2.010 . S
O97 C89 1.249 . S
Mg98 O99 2.028 . S
Mg98 O105 1.986 . S
Mg98 O107 2.114 . S
Mg98 O108 2.251 . S
Mg98 O111 2.010 . S
O99 Mg98 2.028 . S
O99 C102 1.250 . S
O100 Mg101 2.028 . S
O100 C102 1.248 . S
Mg101 O100 2.028 . S
Mg101 O106 2.032 . S
Mg101 O108 2.079 . S
C102 O99 1.250 . S
C102 O100 1.248 . S
C103 O104 1.264 . S
C103 O111 1.249 . S
O104 C103 1.264 . S
O105 Mg98 1.986 . S
O105 C109 1.246 . S
O106 Mg101 2.032 . S
O106 C109 1.259 . S
O107 Mg98 2.114 . S
O107 C110 1.252 . S
O108 Mg98 2.251 . S
O108 Mg101 2.079 . S
O108 C110 1.273 . S
C109 O105 1.246 . S
C109 O106 1.259 . S
C110 O107 1.252 . S
C110 O108 1.273 . S
O111 Mg98 2.010 . S
O111 C103 1.249 . S
Mg112 O113 2.028 . S
Mg112 O119 1.986 . S
Mg112 O121 2.114 . S
Mg112 O122 2.251 . S
Mg112 O125 2.010 . S
O113 Mg112 2.028 . S
O113 C116 1.250 . S
O114 Mg115 2.028 . S
O114 C116 1.248 . S
Mg115 O114 2.028 . S
Mg115 O120 2.032 . S
Mg115 O122 2.079 . S
C116 O113 1.250 . S
C116 O114 1.248 . S
C117 O118 1.264 . S
C117 O125 1.249 . S
O118 C117 1.264 . S
O119 Mg112 1.986 . S
O119 C123 1.246 . S
O120 Mg115 2.032 . S
O120 C123 1.259 . S
O121 Mg112 2.114 . S
O121 C124 1.252 . S
O122 Mg112 2.251 . S
O122 Mg115 2.079 . S
O122 C124 1.273 . S
C123 O119 1.246 . S
C123 O120 1.259 . S
C124 O121 1.252 . S
C124 O122 1.273 . S
O125 Mg112 2.010 . S
O125 C117 1.249 . S
Mg126 O127 2.028 . S
Mg126 O133 1.986 . S
Mg126 O135 2.114 . S
Mg126 O136 2.251 . S
Mg126 O139 2.010 . S
O127 Mg126 2.028 . S
O127 C130 1.250 . S
O128 Mg129 2.028 . S
O128 C130 1.248 . S
Mg129 O128 2.028 . S
Mg129 O134 2.032 . S
Mg129 O136 2.079 . S
C130 O127 1.250 . S
C130 O128 1.248 . S
C131 O132 1.264 . S
C131 O139 1.249 . S
O132 C131 1.264 . S
O133 Mg126 1.986 . S
O133 C137 1.246 . S
O134 Mg129 2.032 . S
O134 C137 1.259 . S
O135 Mg126 2.114 . S
O135 C138 1.252 . S
O136 Mg126 2.251 . S
O136 Mg129 2.079 . S
O136 C138 1.273 . S
C137 O133 1.246 . S
C137 O134 1.259 . S
C138 O135 1.252 . S
C138 O136 1.273 . S
O139 Mg126 2.010 . S
O139 C131 1.249 . S
Mg140 O141 2.028 . S
Mg140 O147 1.986 . S
Mg140 O149 2.114 . S
Mg140 O150 2.251 . S
Mg140 O153 2.010 . S
O141 Mg140 2.028 . S
O141 C144 1.250 . S
O142 Mg143 2.028 . S
O142 C144 1.248 . S
Mg143 O142 2.028 . S
Mg143 O148 2.032 . S
Mg143 O150 2.079 . S
C144 O141 1.250 . S
C144 O142 1.248 . S
C145 O146 1.264 . S
C145 O153 1.249 . S
O146 C145 1.264 . S
O147 Mg140 1.986 . S
O147 C151 1.246 . S
O148 Mg143 2.032 . S
O148 C151 1.259 . S
O149 Mg140 2.114 . S
O149 C152 1.252 . S
O150 Mg140 2.251 . S
O150 Mg143 2.079 . S
O150 C152 1.273 . S
C151 O147 1.246 . S
C151 O148 1.259 . S
C152 O149 1.252 . S
C152 O150 1.273 . S
O153 Mg140 2.010 . S
O153 C145 1.249 . S
Mg154 O155 2.028 . S
Mg154 O161 1.986 . S
Mg154 O163 2.114 . S
Mg154 O164 2.251 . S
Mg154 O167 2.010 . S
O155 Mg154 2.028 . S
O155 C158 1.250 . S
O156 Mg157 2.028 . S
O156 C158 1.248 . S
Mg157 O156 2.028 . S
Mg157 O162 2.032 . S
Mg157 O164 2.079 . S
C158 O155 1.250 . S
C158 O156 1.248 . S
C159 O160 1.264 . S
C159 O167 1.249 . S
O160 C159 1.264 . S
O161 Mg154 1.986 . S
O161 C165 1.246 . S
O162 Mg157 2.032 . S
O162 C165 1.259 . S
O163 Mg154 2.114 . S
O163 C166 1.252 . S
O164 Mg154 2.251 . S
O164 Mg157 2.079 . S
O164 C166 1.273 . S
C165 O161 1.246 . S
C165 O162 1.259 . S
C166 O163 1.252 . S
C166 O164 1.273 . S
O167 Mg154 2.010 . S
O167 C159 1.249 . S
H168 C180 0.930 . S
H169 C182 0.930 . S
H170 C183 0.930 . S
H171 C187 0.959 . S
H172 C187 0.959 . S
H173 C187 0.961 . S
H174 C188 0.960 . S
H175 C188 0.961 . S
H176 C188 0.959 . S
H177 C191 0.929 . S
H178 C192 0.931 . S
H179 C194 0.930 . S
C180 H168 0.930 . S
C180 C181 1.399 1_554 S
C180 C185 1.399 . S
C181 C180 1.399 1_556 S
C181 C182 1.376 . S
C182 H169 0.930 . S
C182 C181 1.376 . S
C182 C183 1.388 . S
C183 H170 0.930 . S
C183 C182 1.388 . S
C183 C184 1.390 . S
C184 C183 1.390 . S
C184 C185 1.394 1_556 S
C184 C190 1.465 1_565 S
C185 C180 1.399 . S
C185 C184 1.394 1_554 S
C185 C186 1.516 . S
C186 C185 1.516 . S
C186 C187 1.502 . S
C186 C188 1.561 . S
C186 C189 1.526 1_565 S
C187 H171 0.959 . S
C187 H172 0.959 . S
C187 H173 0.961 . S
C187 C186 1.502 . S
C188 H174 0.960 . S
C188 H175 0.961 . S
C188 H176 0.959 . S
C188 C186 1.561 . S
C189 C186 1.526 1_545 S
C189 C190 1.396 1_554 S
C189 C194 1.390 . S
C190 C184 1.465 1_545 S
C190 C189 1.396 1_556 S
C190 C191 1.399 . S
C191 H177 0.929 . S
C191 C190 1.399 . S
C191 C192 1.385 . S
C192 H178 0.931 . S
C192 C191 1.385 . S
C192 C193 1.389 1_556 S
C193 C192 1.389 1_554 S
C193 C194 1.387 . S
C194 H179 0.930 . S
C194 C189 1.390 . S
C194 C193 1.387 . S
H195 C207 0.930 . S
H196 C209 0.930 . S
H197 C210 0.930 . S
H198 C214 0.959 . S
H199 C214 0.959 . S
H200 C214 0.961 . S
H201 C215 0.960 . S
H202 C215 0.961 . S
H203 C215 0.959 . S
H204 C218 0.929 . S
H205 C219 0.931 . S
H206 C221 0.930 . S
C207 H195 0.930 . S
C207 C208 1.399 . S
C207 C212 1.399 . S
C208 C207 1.399 . S
C208 C209 1.376 . S
C209 H196 0.930 . S
C209 C208 1.376 . S
C209 C210 1.388 . S
C210 H197 0.930 . S
C210 C209 1.388 . S
C210 C211 1.390 . S
C211 C210 1.390 . S
C211 C212 1.394 . S
C211 C217 1.465 . S
C212 C207 1.399 . S
C212 C211 1.394 . S
C212 C213 1.516 . S
C213 C212 1.516 . S
C213 C214 1.502 . S
C213 C215 1.561 . S
C213 C216 1.526 . S
C214 H198 0.959 . S
C214 H199 0.959 . S
C214 H200 0.961 . S
C214 C213 1.502 . S
C215 H201 0.960 . S
C215 H202 0.961 . S
C215 H203 0.959 . S
C215 C213 1.561 . S
C216 C213 1.526 . S
C216 C217 1.396 . S
C216 C221 1.390 . S
C217 C211 1.465 . S
C217 C216 1.396 . S
C217 C218 1.399 . S
C218 H204 0.929 . S
C218 C217 1.399 . S
C218 C219 1.385 . S
C219 H205 0.931 . S
C219 C218 1.385 . S
C219 C220 1.389 . S
C220 C219 1.389 . S
C220 C221 1.387 . S
C221 H206 0.930 . S
C221 C216 1.390 . S
C221 C220 1.387 . S
H222 C234 0.930 . S
H223 C236 0.930 . S
H224 C237 0.930 . S
H225 C241 0.959 . S
H226 C241 0.959 . S
H227 C241 0.961 . S
H228 C242 0.960 1_655 S
H229 C242 0.961 . S
H230 C242 0.959 . S
H231 C245 0.929 . S
H232 C246 0.931 . S
H233 C248 0.930 . S
C234 H222 0.930 . S
C234 C235 1.399 . S
C234 C239 1.399 . S
C235 C234 1.399 . S
C235 C236 1.376 . S
C236 H223 0.930 . S
C236 C235 1.376 . S
C236 C237 1.388 . S
C237 H224 0.930 . S
C237 C236 1.388 . S
C237 C238 1.390 . S
C238 C237 1.390 . S
C238 C239 1.394 . S
C238 C244 1.465 1_655 S
C239 C234 1.399 . S
C239 C238 1.394 . S
C239 C240 1.516 1_655 S
C240 C239 1.516 1_455 S
C240 C241 1.502 . S
C240 C242 1.561 . S
C240 C243 1.526 . S
C241 H225 0.959 . S
C241 H226 0.959 . S
C241 H227 0.961 . S
C241 C240 1.502 . S
C242 H228 0.960 1_455 S
C242 H229 0.961 . S
C242 H230 0.959 . S
C242 C240 1.561 . S
C243 C240 1.526 . S
C243 C244 1.396 . S
C243 C248 1.390 . S
C244 C238 1.465 1_455 S
C244 C243 1.396 . S
C244 C245 1.399 . S
C245 H231 0.929 . S
C245 C244 1.399 . S
C245 C246 1.385 . S
C246 H232 0.931 . S
C246 C245 1.385 . S
C246 C247 1.389 . S
C247 C246 1.389 . S
C247 C248 1.387 . S
C248 H233 0.930 . S
C248 C243 1.390 . S
C248 C247 1.387 . S
H249 C261 0.930 . S
H250 C263 0.930 . S
H251 C264 0.930 . S
H252 C268 0.959 . S
H253 C268 0.963 . S
H254 C268 0.961 . S
H255 C269 0.960 . S
H256 C269 0.961 . S
H257 C269 0.959 . S
H258 C272 0.929 . S
H259 C273 0.931 . S
H260 C275 0.930 . S
C261 H249 0.930 . S
C261 C262 1.399 1_556 S
C261 C266 1.399 . S
C262 C261 1.399 1_554 S
C262 C263 1.376 . S
C263 H250 0.930 . S
C263 C262 1.376 . S
C263 C264 1.388 . S
C264 H251 0.930 . S
C264 C263 1.388 . S
C264 C265 1.390 . S
C265 C264 1.390 . S
C265 C266 1.394 1_554 S
C265 C271 1.465 1_565 S
C266 C261 1.399 . S
C266 C265 1.394 1_556 S
C266 C267 1.516 . S
C267 C266 1.516 . S
C267 C268 1.502 . S
C267 C269 1.561 . S
C267 C270 1.526 1_565 S
C268 H252 0.959 . S
C268 H253 0.963 . S
C268 H254 0.961 . S
C268 C267 1.502 . S
C269 H255 0.960 . S
C269 H256 0.961 . S
C269 H257 0.959 . S
C269 C267 1.561 . S
C270 C267 1.526 1_545 S
C270 C271 1.396 1_556 S
C270 C275 1.390 . S
C271 C265 1.465 1_545 S
C271 C270 1.396 1_554 S
C271 C272 1.399 . S
C272 H258 0.929 . S
C272 C271 1.399 . S
C272 C273 1.385 . S
C273 H259 0.931 . S
C273 C272 1.385 . S
C273 C274 1.389 1_554 S
C274 C273 1.389 1_556 S
C274 C275 1.387 . S
C275 H260 0.930 . S
C275 C270 1.390 . S
C275 C274 1.387 . S
H276 C288 0.930 . S
H277 C290 0.930 . S
H278 C291 0.930 . S
H279 C295 0.959 . S
H280 C295 0.959 . S
H281 C295 0.961 . S
H282 C296 0.960 . S
H283 C296 0.961 . S
H284 C296 0.959 . S
H285 C299 0.929 . S
H286 C300 0.931 . S
H287 C302 0.930 . S
C288 H276 0.930 . S
C288 C289 1.399 . S
C288 C293 1.399 . S
C289 C288 1.399 . S
C289 C290 1.376 . S
C290 H277 0.930 . S
C290 C289 1.376 . S
C290 C291 1.388 . S
C291 H278 0.930 . S
C291 C290 1.388 . S
C291 C292 1.390 . S
C292 C291 1.390 . S
C292 C293 1.394 . S
C292 C298 1.465 . S
C293 C288 1.399 . S
C293 C292 1.394 . S
C293 C294 1.516 . S
C294 C293 1.516 . S
C294 C295 1.502 . S
C294 C296 1.561 . S
C294 C297 1.526 . S
C295 H279 0.959 . S
C295 H280 0.959 . S
C295 H281 0.961 . S
C295 C294 1.502 . S
C296 H282 0.960 . S
C296 H283 0.961 . S
C296 H284 0.959 . S
C296 C294 1.561 . S
C297 C294 1.526 . S
C297 C298 1.396 . S
C297 C302 1.390 . S
C298 C292 1.465 . S
C298 C297 1.396 . S
C298 C299 1.399 . S
C299 H285 0.929 . S
C299 C298 1.399 . S
C299 C300 1.385 . S
C300 H286 0.931 . S
C300 C299 1.385 . S
C300 C301 1.389 . S
C301 C300 1.389 . S
C301 C302 1.387 . S
C302 H287 0.930 . S
C302 C297 1.390 . S
C302 C301 1.387 . S
H303 C315 0.930 . S
H304 C317 0.930 . S
H305 C318 0.930 . S
H306 C322 0.959 . S
H307 C322 0.959 1_455 S
H308 C322 0.961 . S
H309 C323 0.969 . S
H310 C323 0.947 1_455 S
H311 C323 0.955 1_455 S
H312 C326 0.929 . S
H313 C327 0.931 . S
H314 C329 0.930 . S
C315 H303 0.930 . S
C315 C316 1.399 . S
C315 C320 1.399 . S
C316 C315 1.399 . S
C316 C317 1.376 . S
C317 H304 0.930 . S
C317 C316 1.376 . S
C317 C318 1.388 . S
C318 H305 0.930 . S
C318 C317 1.388 . S
C318 C319 1.390 . S
C319 C318 1.390 . S
C319 C320 1.394 . S
C319 C325 1.465 1_655 S
C320 C315 1.399 . S
C320 C319 1.394 . S
C320 C321 1.516 . S
C321 C320 1.516 . S
C321 C322 1.502 . S
C321 C323 1.570 . S
C321 C324 1.526 1_655 S
C322 H306 0.959 . S
C322 H307 0.959 1_655 S
C322 H308 0.961 . S
C322 C321 1.502 . S
C323 H309 0.969 . S
C323 H310 0.947 1_655 S
C323 H311 0.955 1_655 S
C323 C321 1.570 . S
C324 C321 1.526 1_455 S
C324 C325 1.396 . S
C324 C329 1.390 . S
C325 C319 1.465 1_455 S
C325 C324 1.396 . S
C325 C326 1.399 . S
C326 H312 0.929 . S
C326 C325 1.399 . S
C326 C327 1.385 . S
C327 H313 0.931 . S
C327 C326 1.385 . S
C327 C328 1.389 . S
C328 C327 1.389 . S
C328 C329 1.387 . S
C329 H314 0.930 . S
C329 C324 1.390 . S
C329 C328 1.387 . S
H330 C342 0.930 . S
H331 C344 0.930 . S
H332 C345 0.930 . S
H333 C349 0.959 . S
H334 C349 0.959 . S
H335 C349 0.961 . S
H336 C350 0.960 . S
H337 C350 0.961 . S
H338 C350 0.959 . S
H339 C353 0.929 1_556 S
H340 C354 0.931 . S
H341 C356 0.930 . S
C342 H330 0.930 . S
C342 C343 1.399 . S
C342 C347 1.399 . S
C343 C342 1.399 . S
C343 C344 1.376 . S
C344 H331 0.930 . S
C344 C343 1.376 . S
C344 C345 1.388 . S
C345 H332 0.930 . S
C345 C344 1.388 . S
C345 C346 1.390 . S
C346 C345 1.390 . S
C346 C347 1.394 . S
C346 C352 1.459 1_556 S
C347 C342 1.399 . S
C347 C346 1.394 . S
C347 C348 1.516 1_556 S
C348 C347 1.516 1_554 S
C348 C349 1.502 . S
C348 C350 1.561 1_554 S
C348 C351 1.526 . S
C349 H333 0.959 . S
C349 H334 0.959 . S
C349 H335 0.961 . S
C349 C348 1.502 . S
C350 H336 0.960 . S
C350 H337 0.961 . S
C350 H338 0.959 . S
C350 C348 1.561 1_556 S
C351 C348 1.526 . S
C351 C352 1.402 . S
C351 C356 1.390 . S
C352 C346 1.459 1_554 S
C352 C351 1.402 . S
C352 C353 1.400 . S
C353 H339 0.929 1_554 S
C353 C352 1.400 . S
C353 C354 1.385 . S
C354 H340 0.931 . S
C354 C353 1.385 . S
C354 C355 1.389 . S
C355 C354 1.389 . S
C355 C356 1.387 . S
C356 H341 0.930 . S
C356 C351 1.390 . S
C356 C355 1.387 . S
H357 C369 0.930 . S
H358 C371 0.930 . S
H359 C372 0.930 . S
H360 C376 0.959 . S
H361 C376 0.959 . S
H362 C376 0.961 . S
H363 C377 0.960 . S
H364 C377 0.961 . S
H365 C377 0.959 . S
H366 C380 0.929 . S
H367 C381 0.931 . S
H368 C383 0.930 . S
C369 H357 0.930 . S
C369 C370 1.399 . S
C369 C374 1.399 . S
C370 C369 1.399 . S
C370 C371 1.376 . S
C371 H358 0.930 . S
C371 C370 1.376 . S
C371 C372 1.388 . S
C372 H359 0.930 . S
C372 C371 1.388 . S
C372 C373 1.390 . S
C373 C372 1.390 . S
C373 C374 1.394 . S
C373 C379 1.465 . S
C374 C369 1.399 . S
C374 C373 1.394 . S
C374 C375 1.516 . S
C375 C374 1.516 . S
C375 C376 1.502 . S
C375 C377 1.561 . S
C375 C378 1.526 . S
C376 H360 0.959 . S
C376 H361 0.959 . S
C376 H362 0.961 . S
C376 C375 1.502 . S
C377 H363 0.960 . S
C377 H364 0.961 . S
C377 H365 0.959 . S
C377 C375 1.561 . S
C378 C375 1.526 . S
C378 C379 1.396 . S
C378 C383 1.390 . S
C379 C373 1.465 . S
C379 C378 1.396 . S
C379 C380 1.399 . S
C380 H366 0.929 . S
C380 C379 1.399 . S
C380 C381 1.385 . S
C381 H367 0.931 . S
C381 C380 1.385 . S
C381 C382 1.389 . S
C382 C381 1.389 . S
C382 C383 1.387 . S
C383 H368 0.930 . S
C383 C378 1.390 . S
C383 C382 1.387 . S
H384 C396 0.930 . S
H385 C398 0.930 . S
H386 C399 0.930 . S
H387 C403 0.959 . S
H388 C403 0.959 . S
H389 C403 0.961 . S
H390 C404 0.960 . S
H391 C404 0.961 . S
H392 C404 0.959 . S
H393 C407 0.929 . S
H394 C408 0.931 . S
H395 C410 0.930 . S
C396 H384 0.930 . S
C396 C397 1.399 . S
C396 C401 1.399 . S
C397 C396 1.399 . S
C397 C398 1.376 . S
C398 H385 0.930 . S
C398 C397 1.376 . S
C398 C399 1.388 . S
C399 H386 0.930 . S
C399 C398 1.388 . S
C399 C400 1.390 . S
C400 C399 1.390 . S
C400 C401 1.394 . S
C400 C406 1.465 . S
C401 C396 1.399 . S
C401 C400 1.394 . S
C401 C402 1.516 . S
C402 C401 1.516 . S
C402 C403 1.502 . S
C402 C404 1.561 . S
C402 C405 1.526 . S
C403 H387 0.959 . S
C403 H388 0.959 . S
C403 H389 0.961 . S
C403 C402 1.502 . S
C404 H390 0.960 . S
C404 H391 0.961 . S
C404 H392 0.959 . S
C404 C402 1.561 . S
C405 C402 1.526 . S
C405 C406 1.396 . S
C405 C410 1.390 . S
C406 C400 1.465 . S
C406 C405 1.396 . S
C406 C407 1.399 . S
C407 H393 0.929 . S
C407 C406 1.399 . S
C407 C408 1.385 . S
C408 H394 0.931 . S
C408 C407 1.385 . S
C408 C409 1.389 . S
C409 C408 1.389 . S
C409 C410 1.387 . S
C410 H395 0.930 . S
C410 C405 1.390 . S
C410 C409 1.387 . S
H411 C423 0.930 . S
H412 C425 0.930 . S
H413 C426 0.930 . S
H414 C430 0.959 . S
H415 C430 0.959 . S
H416 C430 0.961 . S
H417 C431 0.960 . S
H418 C431 0.961 . S
H419 C431 0.959 . S
H420 C434 0.929 . S
H421 C435 0.931 . S
H422 C437 0.930 . S
C423 H411 0.930 . S
C423 C424 1.399 . S
C423 C428 1.399 . S
C424 C423 1.399 . S
C424 C425 1.376 . S
C425 H412 0.930 . S
C425 C424 1.376 . S
C425 C426 1.388 . S
C426 H413 0.930 . S
C426 C425 1.388 . S
C426 C427 1.390 . S
C427 C426 1.390 . S
C427 C428 1.394 . S
C427 C433 1.465 1_556 S
C428 C423 1.399 . S
C428 C427 1.394 . S
C428 C429 1.516 1_556 S
C429 C428 1.516 1_554 S
C429 C430 1.502 1_554 S
C429 C431 1.561 . S
C429 C432 1.526 . S
C430 H414 0.959 . S
C430 H415 0.959 . S
C430 H416 0.961 . S
C430 C429 1.502 1_556 S
C431 H417 0.960 . S
C431 H418 0.961 . S
C431 H419 0.959 . S
C431 C429 1.561 . S
C432 C429 1.526 . S
C432 C433 1.396 . S
C432 C437 1.390 . S
C433 C427 1.465 1_554 S
C433 C432 1.396 . S
C433 C434 1.399 . S
C434 H420 0.929 . S
C434 C433 1.399 . S
C434 C435 1.385 . S
C435 H421 0.931 . S
C435 C434 1.385 . S
C435 C436 1.389 . S
C436 C435 1.389 . S
C436 C437 1.387 . S
C437 H422 0.930 . S
C437 C432 1.390 . S
C437 C436 1.387 . S
H438 C450 0.930 . S
H439 C452 0.930 . S
H440 C453 0.930 . S
H441 C457 0.959 . S
H442 C457 0.959 . S
H443 C457 0.961 . S
H444 C458 0.960 . S
H445 C458 0.961 . S
H446 C458 0.959 . S
H447 C461 0.929 . S
H448 C462 0.931 . S
H449 C464 0.930 . S
C450 H438 0.930 . S
C450 C451 1.399 . S
C450 C455 1.399 . S
C451 C450 1.399 . S
C451 C452 1.376 . S
C452 H439 0.930 . S
C452 C451 1.376 . S
C452 C453 1.388 . S
C453 H440 0.930 . S
C453 C452 1.388 . S
C453 C454 1.390 . S
C454 C453 1.390 . S
C454 C455 1.394 . S
C454 C460 1.465 . S
C455 C450 1.399 . S
C455 C454 1.394 . S
C455 C456 1.516 . S
C456 C455 1.516 . S
C456 C457 1.502 . S
C456 C458 1.561 . S
C456 C459 1.526 . S
C457 H441 0.959 . S
C457 H442 0.959 . S
C457 H443 0.961 . S
C457 C456 1.502 . S
C458 H444 0.960 . S
C458 H445 0.961 . S
C458 H446 0.959 . S
C458 C456 1.561 . S
C459 C456 1.526 . S
C459 C460 1.396 . S
C459 C464 1.390 . S
C460 C454 1.465 . S
C460 C459 1.396 . S
C460 C461 1.399 . S
C461 H447 0.929 . S
C461 C460 1.399 . S
C461 C462 1.385 . S
C462 H448 0.931 . S
C462 C461 1.385 . S
C462 C463 1.389 . S
C463 C462 1.389 . S
C463 C464 1.387 . S
C464 H449 0.930 . S
C464 C459 1.390 . S
C464 C463 1.387 . S
H465 C477 0.930 . S
H466 C479 0.930 . S
H467 C480 0.930 . S
H468 C484 0.959 . S
H469 C484 0.959 . S
H470 C484 0.961 . S
H471 C485 0.960 . S
H472 C485 0.961 . S
H473 C485 0.959 . S
H474 C488 0.929 . S
H475 C489 0.931 . S
H476 C491 0.930 . S
C477 H465 0.930 . S
C477 C478 1.399 . S
C477 C482 1.399 . S
C478 C477 1.399 . S
C478 C479 1.376 . S
C479 H466 0.930 . S
C479 C478 1.376 . S
C479 C480 1.388 . S
C480 H467 0.930 . S
C480 C479 1.388 . S
C480 C481 1.390 . S
C481 C480 1.390 . S
C481 C482 1.394 . S
C481 C487 1.465 . S
C482 C477 1.399 . S
C482 C481 1.394 . S
C482 C483 1.516 . S
C483 C482 1.516 . S
C483 C484 1.502 . S
C483 C485 1.561 . S
C483 C486 1.526 . S
C484 H468 0.959 . S
C484 H469 0.959 . S
C484 H470 0.961 . S
C484 C483 1.502 . S
C485 H471 0.960 . S
C485 H472 0.961 . S
C485 H473 0.959 . S
C485 C483 1.561 . S
C486 C483 1.526 . S
C486 C487 1.396 . S
C486 C491 1.390 . S
C487 C481 1.465 . S
C487 C486 1.396 . S
C487 C488 1.399 . S
C488 H474 0.929 . S
C488 C487 1.399 . S
C488 C489 1.385 . S
C489 H475 0.931 . S
C489 C488 1.385 . S
C489 C490 1.389 . S
C490 C489 1.389 . S
C490 C491 1.387 . S
C491 H476 0.930 . S
C491 C486 1.390 . S
C491 C490 1.387 . S
H492 C504 0.930 . S
H493 C506 0.930 . S
H494 C507 0.930 . S
H495 C511 0.959 . S
H496 C511 0.959 . S
H497 C511 0.961 . S
H498 C512 0.960 . S
H499 C512 0.961 . S
H500 C512 0.959 . S
H501 C515 0.929 . S
H502 C516 0.931 . S
H503 C518 0.930 . S
C504 H492 0.930 . S
C504 C505 1.399 . S
C504 C509 1.399 . S
C505 C504 1.399 . S
C505 C506 1.376 . S
C506 H493 0.930 . S
C506 C505 1.376 . S
C506 C507 1.388 . S
C507 H494 0.930 . S
C507 C506 1.388 . S
C507 C508 1.390 . S
C508 C507 1.390 . S
C508 C509 1.394 . S
C508 C514 1.465 . S
C509 C504 1.399 . S
C509 C508 1.394 . S
C509 C510 1.516 . S
C510 C509 1.516 . S
C510 C511 1.502 . S
C510 C512 1.561 . S
C510 C513 1.526 . S
C511 H495 0.959 . S
C511 H496 0.959 . S
C511 H497 0.961 . S
C511 C510 1.502 . S
C512 H498 0.960 . S
C512 H499 0.961 . S
C512 H500 0.959 . S
C512 C510 1.561 . S
C513 C510 1.526 . S
C513 C514 1.396 . S
C513 C518 1.390 . S
C514 C508 1.465 . S
C514 C513 1.396 . S
C514 C515 1.399 . S
C515 H501 0.929 . S
C515 C514 1.399 . S
C515 C516 1.385 . S
C516 H502 0.931 . S
C516 C515 1.385 . S
C516 C517 1.389 . S
C517 C516 1.389 . S
C517 C518 1.387 . S
C518 H503 0.930 . S
C518 C513 1.390 . S
C518 C517 1.387 . S
H519 C531 0.930 . S
H520 C533 0.930 . S
H521 C534 0.930 . S
H522 C538 0.959 . S
H523 C538 0.959 . S
H524 C538 0.961 . S
H525 C539 0.960 . S
H526 C539 0.961 . S
H527 C539 0.959 . S
H528 C542 0.929 . S
H529 C543 0.931 . S
H530 C545 0.930 . S
C531 H519 0.930 . S
C531 C532 1.399 . S
C531 C536 1.399 . S
C532 C531 1.399 . S
C532 C533 1.376 . S
C533 H520 0.930 . S
C533 C532 1.376 . S
C533 C534 1.388 . S
C534 H521 0.930 . S
C534 C533 1.388 . S
C534 C535 1.390 . S
C535 C534 1.390 . S
C535 C536 1.394 . S
C535 C541 1.465 . S
C536 C531 1.399 . S
C536 C535 1.394 . S
C536 C537 1.516 . S
C537 C536 1.516 . S
C537 C538 1.502 . S
C537 C539 1.561 . S
C537 C540 1.526 . S
C538 H522 0.959 . S
C538 H523 0.959 . S
C538 H524 0.961 . S
C538 C537 1.502 . S
C539 H525 0.960 . S
C539 H526 0.961 . S
C539 H527 0.959 . S
C539 C537 1.561 . S
C540 C537 1.526 . S
C540 C541 1.396 . S
C540 C545 1.390 . S
C541 C535 1.465 . S
C541 C540 1.396 . S
C541 C542 1.399 . S
C542 H528 0.929 . S
C542 C541 1.399 . S
C542 C543 1.385 . S
C543 H529 0.931 . S
C543 C542 1.385 . S
C543 C544 1.389 . S
C544 C543 1.389 . S
C544 C545 1.387 . S
C545 H530 0.930 . S
C545 C540 1.390 . S
C545 C544 1.387 . S
H546 C558 0.930 . S
H547 C560 0.930 . S
H548 C561 0.930 . S
H549 C565 0.959 . S
H550 C565 0.959 . S
H551 C565 0.961 . S
H552 C566 0.960 . S
H553 C566 0.961 . S
H554 C566 0.959 . S
H555 C569 0.929 . S
H556 C570 0.931 . S
H557 C572 0.930 . S
C558 H546 0.930 . S
C558 C559 1.399 . S
C558 C563 1.399 . S
C559 C558 1.399 . S
C559 C560 1.376 . S
C560 H547 0.930 . S
C560 C559 1.376 . S
C560 C561 1.388 . S
C561 H548 0.930 . S
C561 C560 1.388 . S
C561 C562 1.390 . S
C562 C561 1.390 . S
C562 C563 1.394 . S
C562 C568 1.465 . S
C563 C558 1.399 . S
C563 C562 1.394 . S
C563 C564 1.516 . S
C564 C563 1.516 . S
C564 C565 1.502 . S
C564 C566 1.561 . S
C564 C567 1.526 . S
C565 H549 0.959 . S
C565 H550 0.959 . S
C565 H551 0.961 . S
C565 C564 1.502 . S
C566 H552 0.960 . S
C566 H553 0.961 . S
C566 H554 0.959 . S
C566 C564 1.561 . S
C567 C564 1.526 . S
C567 C568 1.396 . S
C567 C572 1.390 . S
C568 C562 1.465 . S
C568 C567 1.396 . S
C568 C569 1.399 . S
C569 H555 0.929 . S
C569 C568 1.399 . S
C569 C570 1.385 . S
C570 H556 0.931 . S
C570 C569 1.385 . S
C570 C571 1.389 . S
C571 C570 1.389 . S
C571 C572 1.387 . S
C572 H557 0.930 . S
C572 C567 1.390 . S
C572 C571 1.387 . S
H573 C585 0.930 . S
H574 C587 0.930 . S
H575 C588 0.930 . S
H576 C592 0.959 . S
H577 C592 0.959 . S
H578 C592 0.961 . S
H579 C593 0.960 . S
H580 C593 0.961 . S
H581 C593 0.959 . S
H582 C596 0.929 . S
H583 C597 0.931 . S
H584 C599 0.930 . S
C585 H573 0.930 . S
C585 C586 1.399 . S
C585 C590 1.399 . S
C586 C585 1.399 . S
C586 C587 1.376 . S
C587 H574 0.930 . S
C587 C586 1.376 . S
C587 C588 1.388 . S
C588 H575 0.930 . S
C588 C587 1.388 . S
C588 C589 1.390 . S
C589 C588 1.390 . S
C589 C590 1.394 . S
C589 C595 1.465 . S
C590 C585 1.399 . S
C590 C589 1.394 . S
C590 C591 1.516 . S
C591 C590 1.516 . S
C591 C592 1.502 . S
C591 C593 1.561 . S
C591 C594 1.526 . S
C592 H576 0.959 . S
C592 H577 0.959 . S
C592 H578 0.961 . S
C592 C591 1.502 . S
C593 H579 0.960 . S
C593 H580 0.961 . S
C593 H581 0.959 . S
C593 C591 1.561 . S
C594 C591 1.526 . S
C594 C595 1.396 . S
C594 C599 1.390 . S
C595 C589 1.465 . S
C595 C594 1.396 . S
C595 C596 1.399 . S
C596 H582 0.929 . S
C596 C595 1.399 . S
C596 C597 1.385 . S
C597 H583 0.931 . S
C597 C596 1.385 . S
C597 C598 1.389 . S
C598 C597 1.389 . S
C598 C599 1.387 . S
C599 H584 0.930 . S
C599 C594 1.390 . S
C599 C598 1.387 . S
H600 C612 0.930 . S
H601 C614 0.930 . S
H602 C615 0.930 . S
H603 C619 0.959 . S
H604 C619 0.959 . S
H605 C619 0.961 . S
H606 C620 0.960 . S
H607 C620 0.961 . S
H608 C620 0.959 . S
H609 C623 0.929 . S
H610 C624 0.931 . S
H611 C626 0.930 . S
C612 H600 0.930 . S
C612 C613 1.399 . S
C612 C617 1.399 . S
C613 C612 1.399 . S
C613 C614 1.376 . S
C614 H601 0.930 . S
C614 C613 1.376 . S
C614 C615 1.388 . S
C615 H602 0.930 . S
C615 C614 1.388 . S
C615 C616 1.390 . S
C616 C615 1.390 . S
C616 C617 1.394 . S
C616 C622 1.465 . S
C617 C612 1.399 . S
C617 C616 1.394 . S
C617 C618 1.516 . S
C618 C617 1.516 . S
C618 C619 1.502 . S
C618 C620 1.561 . S
C618 C621 1.526 . S
C619 H603 0.959 . S
C619 H604 0.959 . S
C619 H605 0.961 . S
C619 C618 1.502 . S
C620 H606 0.960 . S
C620 H607 0.961 . S
C620 H608 0.959 . S
C620 C618 1.561 . S
C621 C618 1.526 . S
C621 C622 1.396 . S
C621 C626 1.390 . S
C622 C616 1.465 . S
C622 C621 1.396 . S
C622 C623 1.399 . S
C623 H609 0.929 . S
C623 C622 1.399 . S
C623 C624 1.385 . S
C624 H610 0.931 . S
C624 C623 1.385 . S
C624 C625 1.389 . S
C625 C624 1.389 . S
C625 C626 1.387 . S
C626 H611 0.930 . S
C626 C621 1.390 . S
C626 C625 1.387 . S
H627 C639 0.930 . S
H628 C641 0.930 . S
H629 C642 0.930 . S
H630 C646 0.959 . S
H631 C646 0.959 . S
H632 C646 0.961 . S
H633 C647 0.960 . S
H634 C647 0.961 . S
H635 C647 0.959 . S
H636 C650 0.929 . S
H637 C651 0.931 . S
H638 C653 0.930 . S
C639 H627 0.930 . S
C639 C640 1.399 . S
C639 C644 1.399 . S
C640 C639 1.399 . S
C640 C641 1.376 . S
C641 H628 0.930 . S
C641 C640 1.376 . S
C641 C642 1.388 . S
C642 H629 0.930 . S
C642 C641 1.388 . S
C642 C643 1.390 . S
C643 C642 1.390 . S
C643 C644 1.394 . S
C643 C649 1.465 . S
C644 C639 1.399 . S
C644 C643 1.394 . S
C644 C645 1.516 . S
C645 C644 1.516 . S
C645 C646 1.502 . S
C645 C647 1.561 . S
C645 C648 1.526 . S
C646 H630 0.959 . S
C646 H631 0.959 . S
C646 H632 0.961 . S
C646 C645 1.502 . S
C647 H633 0.960 . S
C647 H634 0.961 . S
C647 H635 0.959 . S
C647 C645 1.561 . S
C648 C645 1.526 . S
C648 C649 1.396 . S
C648 C653 1.390 . S
C649 C643 1.465 . S
C649 C648 1.396 . S
C649 C650 1.399 . S
C650 H636 0.929 . S
C650 C649 1.399 . S
C650 C651 1.385 . S
C651 H637 0.931 . S
C651 C650 1.385 . S
C651 C652 1.389 . S
C652 C651 1.389 . S
C652 C653 1.387 . S
C653 H638 0.930 . S
C653 C648 1.390 . S
C653 C652 1.387 . S
H654 C666 0.930 . S
H655 C668 0.930 . S
H656 C669 0.930 1_556 S
H657 C673 0.959 . S
H658 C673 0.959 . S
H659 C673 0.961 . S
H660 C674 0.960 . S
H661 C674 0.961 . S
H662 C674 0.959 . S
H663 C677 0.929 1_556 S
H664 C678 0.931 . S
H665 C680 0.930 . S
C666 H654 0.930 . S
C666 C667 1.399 . S
C666 C671 1.399 . S
C667 C666 1.399 . S
C667 C668 1.376 . S
C668 H655 0.930 . S
C668 C667 1.376 . S
C668 C669 1.388 . S
C669 H656 0.930 1_554 S
C669 C668 1.388 . S
C669 C670 1.390 . S
C670 C669 1.390 . S
C670 C671 1.394 . S
C670 C676 1.465 . S
C671 C666 1.399 . S
C671 C670 1.394 . S
C671 C672 1.516 . S
C672 C671 1.516 . S
C672 C673 1.502 . S
C672 C674 1.561 . S
C672 C675 1.526 . S
C673 H657 0.959 . S
C673 H658 0.959 . S
C673 H659 0.961 . S
C673 C672 1.502 . S
C674 H660 0.960 . S
C674 H661 0.961 . S
C674 H662 0.959 . S
C674 C672 1.561 . S
C675 C672 1.526 . S
C675 C676 1.396 . S
C675 C680 1.390 . S
C676 C670 1.465 . S
C676 C675 1.396 . S
C676 C677 1.399 . S
C677 H663 0.929 1_554 S
C677 C676 1.399 . S
C677 C678 1.385 . S
C678 H664 0.931 . S
C678 C677 1.385 . S
C678 C679 1.389 . S
C679 C678 1.389 . S
C679 C680 1.387 . S
C680 H665 0.930 . S
C680 C675 1.390 . S
C680 C679 1.387 . S
H681 C693 0.930 . S
H682 C695 0.930 . S
H683 C696 0.930 . S
H684 C700 0.959 . S
H685 C700 0.959 . S
H686 C700 0.961 . S
H687 C701 0.960 . S
H688 C701 0.961 . S
H689 C701 0.959 . S
H690 C704 0.929 . S
H691 C705 0.931 . S
H692 C707 0.930 . S
C693 H681 0.930 . S
C693 C694 1.399 . S
C693 C698 1.399 . S
C694 C693 1.399 . S
C694 C695 1.376 . S
C695 H682 0.930 . S
C695 C694 1.376 . S
C695 C696 1.388 . S
C696 H683 0.930 . S
C696 C695 1.388 . S
C696 C697 1.390 . S
C697 C696 1.390 . S
C697 C698 1.394 . S
C697 C703 1.465 1_655 S
C698 C693 1.399 . S
C698 C697 1.394 . S
C698 C699 1.516 1_655 S
C699 C698 1.516 1_455 S
C699 C700 1.502 . S
C699 C701 1.561 . S
C699 C702 1.526 . S
C700 H684 0.959 . S
C700 H685 0.959 . S
C700 H686 0.961 . S
C700 C699 1.502 . S
C701 H687 0.960 . S
C701 H688 0.961 . S
C701 H689 0.959 . S
C701 C699 1.561 . S
C702 C699 1.526 . S
C702 C703 1.396 . S
C702 C707 1.390 . S
C703 C697 1.465 1_455 S
C703 C702 1.396 . S
C703 C704 1.399 1_455 S
C704 H690 0.929 . S
C704 C703 1.399 1_655 S
C704 C705 1.385 1_655 S
C705 H691 0.931 . S
C705 C704 1.385 1_455 S
C705 C706 1.389 . S
C706 C705 1.389 . S
C706 C707 1.387 . S
C707 H692 0.930 . S
C707 C702 1.390 . S
C707 C706 1.387 . S
H708 C720 0.930 . S
H709 C722 0.930 . S
H710 C723 0.930 . S
H711 C727 0.959 . S
H712 C727 0.959 . S
H713 C727 0.961 . S
H714 C728 0.960 . S
H715 C728 0.961 . S
H716 C728 0.959 . S
H717 C731 0.929 1_545 S
H718 C732 0.931 . S
H719 C734 0.930 . S
C720 H708 0.930 . S
C720 C721 1.399 . S
C720 C725 1.399 . S
C721 C720 1.399 . S
C721 C722 1.376 . S
C722 H709 0.930 . S
C722 C721 1.376 . S
C722 C723 1.388 . S
C723 H710 0.930 . S
C723 C722 1.388 . S
C723 C724 1.390 . S
C724 C723 1.390 . S
C724 C725 1.394 . S
C724 C730 1.465 1_545 S
C725 C720 1.399 . S
C725 C724 1.394 . S
C725 C726 1.516 1_545 S
C726 C725 1.516 1_565 S
C726 C727 1.502 . S
C726 C728 1.561 1_565 S
C726 C729 1.526 . S
C727 H711 0.959 . S
C727 H712 0.959 . S
C727 H713 0.961 . S
C727 C726 1.502 . S
C728 H714 0.960 . S
C728 H715 0.961 . S
C728 H716 0.959 . S
C728 C726 1.561 1_545 S
C729 C726 1.526 . S
C729 C730 1.396 . S
C729 C734 1.390 . S
C730 C724 1.465 1_565 S
C730 C729 1.396 . S
C730 C731 1.399 . S
C731 H717 0.929 1_565 S
C731 C730 1.399 . S
C731 C732 1.385 . S
C732 H718 0.931 . S
C732 C731 1.385 . S
C732 C733 1.389 . S
C733 C732 1.389 . S
C733 C734 1.387 . S
C734 H719 0.930 . S
C734 C729 1.390 . S
C734 C733 1.387 . S
H735 C747 0.930 . S
H736 C749 0.930 . S
H737 C750 0.930 . S
H738 C754 0.959 . S
H739 C754 0.959 . S
H740 C754 0.961 . S
H741 C755 0.960 . S
H742 C755 0.961 . S
H743 C755 0.959 . S
H744 C758 0.929 . S
H745 C759 0.931 . S
H746 C761 0.930 . S
C747 H735 0.930 . S
C747 C748 1.399 . S
C747 C752 1.399 . S
C748 C747 1.399 . S
C748 C749 1.376 . S
C749 H736 0.930 . S
C749 C748 1.376 . S
C749 C750 1.388 . S
C750 H737 0.930 . S
C750 C749 1.388 . S
C750 C751 1.390 . S
C751 C750 1.390 . S
C751 C752 1.394 . S
C751 C757 1.465 . S
C752 C747 1.399 . S
C752 C751 1.394 . S
C752 C753 1.516 . S
C753 C752 1.516 . S
C753 C754 1.502 . S
C753 C755 1.561 . S
C753 C756 1.526 . S
C754 H738 0.959 . S
C754 H739 0.959 . S
C754 H740 0.961 . S
C754 C753 1.502 . S
C755 H741 0.960 . S
C755 H742 0.961 . S
C755 H743 0.959 . S
C755 C753 1.561 . S
C756 C753 1.526 . S
C756 C757 1.396 . S
C756 C761 1.390 . S
C757 C751 1.465 . S
C757 C756 1.396 . S
C757 C758 1.399 . S
C758 H744 0.929 . S
C758 C757 1.399 . S
C758 C759 1.385 . S
C759 H745 0.931 . S
C759 C758 1.385 . S
C759 C760 1.389 . S
C760 C759 1.389 . S
C760 C761 1.387 . S
C761 H746 0.930 . S
C761 C756 1.390 . S
C761 C760 1.387 . S
H762 C774 0.930 . S
H763 C776 0.930 . S
H764 C777 0.930 . S
H765 C781 0.959 . S
H766 C781 0.959 . S
H767 C781 0.961 . S
H768 C782 0.960 . S
H769 C782 0.961 . S
H770 C782 0.959 1_455 S
H771 C785 0.929 . S
H772 C786 0.931 . S
H773 C788 0.930 . S
C774 H762 0.930 . S
C774 C775 1.399 . S
C774 C779 1.399 . S
C775 C774 1.399 . S
C775 C776 1.376 . S
C776 H763 0.930 . S
C776 C775 1.376 . S
C776 C777 1.388 . S
C777 H764 0.930 . S
C777 C776 1.388 . S
C777 C778 1.390 . S
C778 C777 1.390 . S
C778 C779 1.394 . S
C778 C784 1.465 . S
C779 C774 1.399 . S
C779 C778 1.394 . S
C779 C780 1.516 1_455 S
C780 C779 1.516 1_655 S
C780 C781 1.502 . S
C780 C782 1.561 . S
C780 C783 1.526 . S
C781 H765 0.959 . S
C781 H766 0.959 . S
C781 H767 0.961 . S
C781 C780 1.502 . S
C782 H768 0.960 . S
C782 H769 0.961 . S
C782 H770 0.959 1_655 S
C782 C780 1.561 . S
C783 C780 1.526 . S
C783 C784 1.396 1_655 S
C783 C788 1.390 . S
C784 C778 1.465 . S
C784 C783 1.396 1_455 S
C784 C785 1.399 . S
C785 H771 0.929 . S
C785 C784 1.399 . S
C785 C786 1.385 1_455 S
C786 H772 0.931 . S
C786 C785 1.385 1_655 S
C786 C787 1.389 . S
C787 C786 1.389 . S
C787 C788 1.387 . S
C788 H773 0.930 . S
C788 C783 1.390 . S
C788 C787 1.387 . S
H789 C801 0.930 . S
H790 C803 0.930 . S
H791 C804 0.930 . S
H792 C808 0.959 . S
H793 C808 0.959 . S
H794 C808 0.961 . S
H795 C809 0.960 . S
H796 C809 0.961 . S
H797 C809 0.959 . S
H798 C812 0.929 . S
H799 C813 0.931 . S
H800 C815 0.930 . S
C801 H789 0.930 . S
C801 C802 1.399 . S
C801 C806 1.399 . S
C802 C801 1.399 . S
C802 C803 1.376 . S
C803 H790 0.930 . S
C803 C802 1.376 . S
C803 C804 1.388 . S
C804 H791 0.930 . S
C804 C803 1.388 . S
C804 C805 1.390 . S
C805 C804 1.390 . S
C805 C806 1.394 . S
C805 C811 1.465 1_565 S
C806 C801 1.399 . S
C806 C805 1.394 . S
C806 C807 1.516 . S
C807 C806 1.516 . S
C807 C808 1.502 . S
C807 C809 1.561 1_565 S
C807 C810 1.526 1_565 S
C808 H792 0.959 . S
C808 H793 0.959 . S
C808 H794 0.961 . S
C808 C807 1.502 . S
C809 H795 0.960 . S
C809 H796 0.961 . S
C809 H797 0.959 . S
C809 C807 1.561 1_545 S
C810 C807 1.526 1_545 S
C810 C811 1.396 . S
C810 C815 1.390 . S
C811 C805 1.465 1_545 S
C811 C810 1.396 . S
C811 C812 1.399 . S
C812 H798 0.929 . S
C812 C811 1.399 . S
C812 C813 1.385 . S
C813 H799 0.931 . S
C813 C812 1.385 . S
C813 C814 1.389 . S
C814 C813 1.389 . S
C814 C815 1.387 . S
C815 H800 0.930 . S
C815 C810 1.390 . S
C815 C814 1.387 . S
C181 C103 1.123 . S
C193 C5 1.188 . S
C208 C19 1.127 . S
C220 C117 1.190 . S
C235 C33 1.187 . S
C247 C131 1.120 . S
C262 C47 1.138 . S
C274 C145 1.195 . S
C289 C159 1.116 . S
C301 C61 1.057 . S
C316 C89 1.055 . S
C328 C75 1.116 . S
C343 C144 1.300 . S
C355 C4 1.319 . S
C370 C18 1.320 . S
C382 C158 1.300 . S
C397 C32 1.305 . S
C409 C88 1.273 . S
C424 C102 1.281 . S
C436 C46 1.272 . S
C451 C116 1.269 . S
C463 C60 1.299 . S
C478 C130 1.273 . S
C490 C74 1.278 . S
C505 C11 1.593 . S
C517 C123 1.575 . S
C532 C25 1.564 . S
C544 C137 1.547 . S
C559 C151 1.546 . S
C571 C39 1.561 . S
C586 C53 1.549 . S
C598 C165 1.556 . S
C613 C95 1.574 . S
C625 C67 1.593 . S
C640 C109 1.593 . S
C652 C81 1.577 . S
C667 C54 1.168 . S
C679 C12 1.216 . S
C694 C68 1.152 . S
C706 C26 1.193 . S
C721 C40 1.169 . S
C733 C82 1.215 . S
C748 C96 1.175 . S
C760 C138 1.211 . S
C775 C110 1.153 . S
C787 C152 1.224 . S
C802 C166 1.192 . S
C814 C124 1.154 . S
