# Generated by pormake.
# Topology hbo, (4)-cn, num edge types: 1
# Building blocks:
#     Node 0, Type 0, BuildingBlock: KOZSID_clean_sbu_0, # of connection points: 4
#     Node 1, Type 0, BuildingBlock: KOZSID_clean_sbu_0, # of connection points: 4
#     Node 2, Type 0, BuildingBlock: KOZSID_clean_sbu_0, # of connection points: 4
#     Node 3, Type 0, BuildingBlock: KOZSID_clean_sbu_0, # of connection points: 4
#     Node 4, Type 0, BuildingBlock: KOZSID_clean_sbu_0, # of connection points: 4
#     Node 5, Type 0, BuildingBlock: KOZSID_clean_sbu_0, # of connection points: 4
#     Node 6, Type 0, BuildingBlock: KOZSID_clean_sbu_0, # of connection points: 4
#     Node 7, Type 0, BuildingBlock: KOZSID_clean_sbu_0, # of connection points: 4
#     Node 8, Type 0, BuildingBlock: KOZSID_clean_sbu_0, # of connection points: 4
#     Node 9, Type 0, BuildingBlock: KOZSID_clean_sbu_0, # of connection points: 4
#     Node 10, Type 0, BuildingBlock: KOZSID_clean_sbu_0, # of connection points: 4
#     Node 11, Type 0, BuildingBlock: KOZSID_clean_sbu_0, # of connection points: 4
#     Node 12, Type 0, BuildingBlock: KOZSID_clean_sbu_0, # of connection points: 4
#     Node 13, Type 0, BuildingBlock: KOZSID_clean_sbu_0, # of connection points: 4
#     Node 14, Type 0, BuildingBlock: KOZSID_clean_sbu_0, # of connection points: 4
#     Node 15, Type 0, BuildingBlock: KOZSID_clean_sbu_0, # of connection points: 4
#     Node 16, Type 0, BuildingBlock: KOZSID_clean_sbu_0, # of connection points: 4
#     Node 17, Type 0, BuildingBlock: KOZSID_clean_sbu_0, # of connection points: 4
#     Node 18, Type 0, BuildingBlock: KOZSID_clean_sbu_0, # of connection points: 4
#     Node 19, Type 0, BuildingBlock: KOZSID_clean_sbu_0, # of connection points: 4
#     Node 20, Type 0, BuildingBlock: KOZSID_clean_sbu_0, # of connection points: 4
#     Node 21, Type 0, BuildingBlock: KOZSID_clean_sbu_0, # of connection points: 4
#     Node 22, Type 0, BuildingBlock: KOZSID_clean_sbu_0, # of connection points: 4
#     Node 23, Type 0, BuildingBlock: KOZSID_clean_sbu_0, # of connection points: 4
#     Edge 24, Type (0, 0), BuildingBlock: XUDNAN_clean_linker_2, # of connection points: 2
#     Edge 25, Type (0, 0), BuildingBlock: XUDNAN_clean_linker_2, # of connection points: 2
#     Edge 26, Type (0, 0), BuildingBlock: XUDNAN_clean_linker_2, # of connection points: 2
#     Edge 27, Type (0, 0), BuildingBlock: XUDNAN_clean_linker_2, # of connection points: 2
#     Edge 28, Type (0, 0), BuildingBlock: XUDNAN_clean_linker_2, # of connection points: 2
#     Edge 29, Type (0, 0), BuildingBlock: XUDNAN_clean_linker_2, # of connection points: 2
#     Edge 30, Type (0, 0), BuildingBlock: XUDNAN_clean_linker_2, # of connection points: 2
#     Edge 31, Type (0, 0), BuildingBlock: XUDNAN_clean_linker_2, # of connection points: 2
#     Edge 32, Type (0, 0), BuildingBlock: XUDNAN_clean_linker_2, # of connection points: 2
#     Edge 33, Type (0, 0), BuildingBlock: XUDNAN_clean_linker_2, # of connection points: 2
#     Edge 34, Type (0, 0), BuildingBlock: XUDNAN_clean_linker_2, # of connection points: 2
#     Edge 35, Type (0, 0), BuildingBlock: XUDNAN_clean_linker_2, # of connection points: 2
#     Edge 36, Type (0, 0), BuildingBlock: XUDNAN_clean_linker_2, # of connection points: 2
#     Edge 37, Type (0, 0), BuildingBlock: XUDNAN_clean_linker_2, # of connection points: 2
#     Edge 38, Type (0, 0), BuildingBlock: XUDNAN_clean_linker_2, # of connection points: 2
#     Edge 39, Type (0, 0), BuildingBlock: XUDNAN_clean_linker_2, # of connection points: 2
#     Edge 40, Type (0, 0), BuildingBlock: XUDNAN_clean_linker_2, # of connection points: 2
#     Edge 41, Type (0, 0), BuildingBlock: XUDNAN_clean_linker_2, # of connection points: 2
#     Edge 42, Type (0, 0), BuildingBlock: XUDNAN_clean_linker_2, # of connection points: 2
#     Edge 43, Type (0, 0), BuildingBlock: XUDNAN_clean_linker_2, # of connection points: 2
#     Edge 44, Type (0, 0), BuildingBlock: XUDNAN_clean_linker_2, # of connection points: 2
#     Edge 45, Type (0, 0), BuildingBlock: XUDNAN_clean_linker_2, # of connection points: 2
#     Edge 46, Type (0, 0), BuildingBlock: XUDNAN_clean_linker_2, # of connection points: 2
#     Edge 47, Type (0, 0), BuildingBlock: XUDNAN_clean_linker_2, # of connection points: 2
#     Edge 48, Type (0, 0), BuildingBlock: XUDNAN_clean_linker_2, # of connection points: 2
#     Edge 49, Type (0, 0), BuildingBlock: XUDNAN_clean_linker_2, # of connection points: 2
#     Edge 50, Type (0, 0), BuildingBlock: XUDNAN_clean_linker_2, # of connection points: 2
#     Edge 51, Type (0, 0), BuildingBlock: XUDNAN_clean_linker_2, # of connection points: 2
#     Edge 52, Type (0, 0), BuildingBlock: XUDNAN_clean_linker_2, # of connection points: 2
#     Edge 53, Type (0, 0), BuildingBlock: XUDNAN_clean_linker_2, # of connection points: 2
#     Edge 54, Type (0, 0), BuildingBlock: XUDNAN_clean_linker_2, # of connection points: 2
#     Edge 55, Type (0, 0), BuildingBlock: XUDNAN_clean_linker_2, # of connection points: 2
#     Edge 56, Type (0, 0), BuildingBlock: XUDNAN_clean_linker_2, # of connection points: 2
#     Edge 57, Type (0, 0), BuildingBlock: XUDNAN_clean_linker_2, # of connection points: 2
#     Edge 58, Type (0, 0), BuildingBlock: XUDNAN_clean_linker_2, # of connection points: 2
#     Edge 59, Type (0, 0), BuildingBlock: XUDNAN_clean_linker_2, # of connection points: 2
#     Edge 60, Type (0, 0), BuildingBlock: XUDNAN_clean_linker_2, # of connection points: 2
#     Edge 61, Type (0, 0), BuildingBlock: XUDNAN_clean_linker_2, # of connection points: 2
#     Edge 62, Type (0, 0), BuildingBlock: XUDNAN_clean_linker_2, # of connection points: 2
#     Edge 63, Type (0, 0), BuildingBlock: XUDNAN_clean_linker_2, # of connection points: 2
#     Edge 64, Type (0, 0), BuildingBlock: XUDNAN_clean_linker_2, # of connection points: 2
#     Edge 65, Type (0, 0), BuildingBlock: XUDNAN_clean_linker_2, # of connection points: 2
#     Edge 66, Type (0, 0), BuildingBlock: XUDNAN_clean_linker_2, # of connection points: 2
#     Edge 67, Type (0, 0), BuildingBlock: XUDNAN_clean_linker_2, # of connection points: 2
#     Edge 68, Type (0, 0), BuildingBlock: XUDNAN_clean_linker_2, # of connection points: 2
#     Edge 69, Type (0, 0), BuildingBlock: XUDNAN_clean_linker_2, # of connection points: 2
#     Edge 70, Type (0, 0), BuildingBlock: XUDNAN_clean_linker_2, # of connection points: 2
#     Edge 71, Type (0, 0), BuildingBlock: XUDNAN_clean_linker_2, # of connection points: 2
# Relax obj value: 0.075
# Max RMSD: 0.317
# Mean RMSD: 0.297
data_MOF--net-hbo--node1-KOZSID_clean_sbu_0--edge1-XUDNAN_clean_linker_2
_symmetry_space_group_name_H-M    P1
_symmetry_Int_Tables_number       1
_symmetry_cell_setting            triclinic
loop_
_symmetry_equiv_pos_as_xyz
'x, y, z'
_cell_length_a     68.787112
_cell_length_b     63.043217
_cell_length_c     63.060011
_cell_angle_alpha  90.105747
_cell_angle_beta   90.498439
_cell_angle_gamma 88.601957
loop_
_atom_site_label
_atom_site_type_symbol
_atom_site_fract_x
_atom_site_fract_y
_atom_site_fract_z
_atom_type_partial_charge
C0 C 0.18083 0.34571 0.30662 0.0
C1 C 0.18748 0.34173 0.32715 0.0
C2 C 0.18645 0.36064 0.33778 0.0
C3 C 0.17945 0.37509 0.32323 0.0
N4 N 0.17589 0.36652 0.30408 0.0
Co5 Co 0.16646 0.38225 0.27846 0.0
N6 N 0.17425 0.41022 0.29052 0.0
C7 C 0.17892 0.41367 0.31103 0.0
C8 C 0.18277 0.43438 0.31555 0.0
C9 C 0.18004 0.44493 0.29686 0.0
C10 C 0.17465 0.42999 0.28176 0.0
N11 N 0.15623 0.39828 0.25328 0.0
C12 C 0.15764 0.41913 0.24772 0.0
C13 C 0.14733 0.42324 0.2291 0.0
C14 C 0.13859 0.40474 0.22334 0.0
C15 C 0.14412 0.39022 0.23855 0.0
N16 N 0.15947 0.35421 0.26653 0.0
C17 C 0.14731 0.35104 0.25013 0.0
C18 C 0.1462 0.32995 0.24469 0.0
C19 C 0.1585 0.31927 0.25856 0.0
C20 C 0.16649 0.33445 0.27169 0.0
N21 N 0.14017 0.3855 0.2911 0.0
C22 C 0.09978 0.38858 0.29968 0.0
C23 C 0.11012 0.36916 0.30151 0.0
C24 C 0.13027 0.36804 0.29755 0.0
C25 C 0.11045 0.40654 0.29461 0.0
C26 C 0.13041 0.40469 0.29041 0.0
N27 N 0.19215 0.37806 0.26478 0.0
C28 C 0.20892 0.36649 0.23312 0.0
C29 C 0.22625 0.36284 0.24435 0.0
C30 C 0.22638 0.3676 0.26616 0.0
C31 C 0.20923 0.37552 0.27602 0.0
C32 C 0.19229 0.3739 0.24346 0.0
H33 H 0.20968 0.3789 0.2928 0.0
H34 H 0.17929 0.37507 0.23404 0.0
H35 H 0.13767 0.3528 0.29887 0.0
H36 H 0.13761 0.41879 0.28558 0.0
C37 C 0.18037 0.39699 0.32546 0.0
C38 C 0.17951 0.32957 0.28989 0.0
C39 C 0.1669 0.43592 0.2606 0.0
C40 C 0.14024 0.3684 0.23817 0.0
H41 H 0.19306 0.32698 0.33375 0.0
H42 H 0.19153 0.36372 0.35377 0.0
H43 H 0.18682 0.44109 0.33072 0.0
H44 H 0.18096 0.46191 0.29506 0.0
H45 H 0.14589 0.43819 0.22076 0.0
H46 H 0.12953 0.40213 0.2095 0.0
H47 H 0.13812 0.32321 0.23162 0.0
H48 H 0.16129 0.3023 0.25901 0.0
H49 H 0.10269 0.35489 0.30587 0.0
H50 H 0.10327 0.42195 0.293 0.0
H51 H 0.20795 0.36294 0.21632 0.0
H52 H 0.23956 0.3653 0.27547 0.0
C53 C 0.1615 0.6789 0.73374 0.0
C54 C 0.16302 0.68329 0.71225 0.0
C55 C 0.15858 0.665 0.70166 0.0
C56 C 0.15447 0.65061 0.71721 0.0
N57 N 0.15595 0.65872 0.73686 0.0
Co58 Co 0.15037 0.64355 0.7636 0.0
N59 N 0.15437 0.61529 0.74985 0.0
C60 C 0.15418 0.61183 0.72874 0.0
C61 C 0.15633 0.59084 0.72339 0.0
C62 C 0.15766 0.58025 0.74226 0.0
C63 C 0.1562 0.59543 0.75824 0.0
N64 N 0.14397 0.62793 0.78997 0.0
C65 C 0.14615 0.60694 0.79505 0.0
C66 C 0.13896 0.60324 0.81517 0.0
C67 C 0.13172 0.62233 0.82262 0.0
C68 C 0.13489 0.63673 0.80678 0.0
N69 N 0.14704 0.6719 0.77692 0.0
C70 C 0.13841 0.67587 0.79556 0.0
C71 C 0.14039 0.6966 0.80191 0.0
C72 C 0.15098 0.70612 0.78627 0.0
C73 C 0.15478 0.69072 0.77102 0.0
N74 N 0.12214 0.64377 0.75578 0.0
C75 C 0.08091 0.64708 0.7501 0.0
C76 C 0.09307 0.66419 0.7459 0.0
C77 C 0.11335 0.66226 0.74882 0.0
C78 C 0.09017 0.62803 0.75676 0.0
C79 C 0.11064 0.62665 0.75929 0.0
N80 N 0.17826 0.64482 0.77248 0.0
C81 C 0.19953 0.65746 0.80049 0.0
C82 C 0.21303 0.66445 0.78579 0.0
C83 C 0.20979 0.65909 0.76437 0.0
C84 C 0.19262 0.64875 0.75815 0.0
C85 C 0.18243 0.64783 0.79361 0.0
H86 H 0.19036 0.64557 0.74149 0.0
H87 H 0.17194 0.64485 0.80563 0.0
H88 H 0.12188 0.67608 0.74598 0.0
H89 H 0.11707 0.61178 0.76455 0.0
C90 C 0.15337 0.62872 0.7144 0.0
C91 C 0.16516 0.69419 0.75077 0.0
C92 C 0.15371 0.58994 0.78076 0.0
C93 C 0.13252 0.65894 0.80833 0.0
H94 H 0.16716 0.69803 0.70499 0.0
H95 H 0.15934 0.66223 0.68474 0.0
H96 H 0.15684 0.58401 0.70763 0.0
H97 H 0.1587 0.56319 0.74394 0.0
H98 H 0.13885 0.58828 0.82355 0.0
H99 H 0.12546 0.62542 0.83804 0.0
H100 H 0.13581 0.70364 0.81677 0.0
H101 H 0.15567 0.72236 0.78643 0.0
H102 H 0.08694 0.67938 0.74093 0.0
H103 H 0.08168 0.61416 0.75993 0.0
H104 H 0.20131 0.66097 0.81721 0.0
H105 H 0.22007 0.66358 0.75238 0.0
C106 C 0.87736 0.68303 0.29888 0.0
C107 C 0.86994 0.68607 0.3191 0.0
C108 C 0.86743 0.66632 0.32742 0.0
C109 C 0.8736 0.65241 0.31197 0.0
N110 N 0.88022 0.66218 0.29459 0.0
Co111 Co 0.89086 0.64806 0.2688 0.0
N112 N 0.87953 0.62044 0.2766 0.0
C113 C 0.86882 0.61679 0.29392 0.0
C114 C 0.85747 0.59932 0.29194 0.0
C115 C 0.86172 0.5911 0.2724 0.0
C116 C 0.87638 0.6033 0.26408 0.0
N117 N 0.90269 0.63309 0.24377 0.0
C118 C 0.9028 0.61202 0.23821 0.0
C119 C 0.91775 0.6077 0.22397 0.0
C120 C 0.92667 0.62642 0.22001 0.0
C121 C 0.91729 0.64119 0.23239 0.0
N122 N 0.90078 0.67622 0.26055 0.0
C123 C 0.91431 0.67971 0.24588 0.0
C124 C 0.91702 0.70096 0.24238 0.0
C125 C 0.90427 0.71145 0.2557 0.0
C126 C 0.89457 0.69596 0.2667 0.0
N127 N 0.91562 0.64144 0.28435 0.0
C128 C 0.95633 0.63553 0.29026 0.0
C129 C 0.94705 0.65515 0.29458 0.0
C130 C 0.92673 0.65767 0.29188 0.0
C131 C 0.94422 0.61835 0.28588 0.0
C132 C 0.92403 0.62156 0.28329 0.0
N133 N 0.8669 0.65575 0.2524 0.0
C134 C 0.85398 0.67173 0.22025 0.0
C135 C 0.8367 0.6781 0.23033 0.0
C136 C 0.83419 0.67116 0.25131 0.0
C137 C 0.84934 0.65982 0.26195 0.0
C138 C 0.86876 0.6609 0.23144 0.0
H139 H 0.8471 0.65544 0.27823 0.0
H140 H 0.88217 0.65801 0.22323 0.0
H141 H 0.92032 0.67328 0.29423 0.0
H142 H 0.91556 0.60813 0.27881 0.0
C143 C 0.86796 0.63138 0.31055 0.0
C144 C 0.88037 0.70013 0.28371 0.0
C145 C 0.89007 0.59563 0.24758 0.0
C146 C 0.92195 0.66271 0.23401 0.0
H147 H 0.86586 0.70094 0.32663 0.0
H148 H 0.86027 0.66261 0.34212 0.0
H149 H 0.84703 0.59351 0.30315 0.0
H150 H 0.85573 0.57681 0.26575 0.0
H151 H 0.9228 0.59262 0.21783 0.0
H152 H 0.93912 0.62877 0.20996 0.0
H153 H 0.92655 0.70801 0.23094 0.0
H154 H 0.90234 0.72847 0.25712 0.0
H155 H 0.95549 0.6689 0.29857 0.0
H156 H 0.95037 0.60257 0.28344 0.0
H157 H 0.85653 0.67577 0.20384 0.0
H158 H 0.82107 0.67532 0.25987 0.0
C159 C 0.87342 0.34461 0.72925 0.0
C160 C 0.86886 0.34331 0.70777 0.0
C161 C 0.87289 0.36258 0.69911 0.0
C162 C 0.87944 0.37462 0.71569 0.0
N163 N 0.87988 0.36417 0.73425 0.0
Co164 Co 0.88771 0.37623 0.76217 0.0
N165 N 0.88339 0.40596 0.75204 0.0
C166 C 0.88193 0.41172 0.73149 0.0
C167 C 0.88054 0.43319 0.72854 0.0
C168 C 0.88152 0.44169 0.74841 0.0
C169 C 0.88337 0.42483 0.76259 0.0
N170 N 0.89628 0.38845 0.78977 0.0
C171 C 0.89505 0.40871 0.79741 0.0
C172 C 0.90318 0.40968 0.81762 0.0
C173 C 0.91039 0.38973 0.82232 0.0
C174 C 0.90614 0.3775 0.80494 0.0
N175 N 0.89139 0.34649 0.77192 0.0
C176 C 0.9015 0.34015 0.78917 0.0
C177 C 0.90008 0.31871 0.79278 0.0
C178 C 0.88826 0.31125 0.77682 0.0
C179 C 0.88306 0.32856 0.76435 0.0
N180 N 0.9153 0.37669 0.75276 0.0
C181 C 0.95637 0.37354 0.7473 0.0
C182 C 0.94401 0.35714 0.74094 0.0
C183 C 0.92374 0.35899 0.74378 0.0
C184 C 0.9473 0.3922 0.75503 0.0
C185 C 0.92693 0.39348 0.75751 0.0
N186 N 0.86049 0.37468 0.77259 0.0
C187 C 0.83999 0.3616 0.8006 0.0
C188 C 0.82434 0.35919 0.7866 0.0
C189 C 0.82673 0.36647 0.76566 0.0
C190 C 0.84474 0.37453 0.75911 0.0
C191 C 0.85771 0.36913 0.79337 0.0
H192 H 0.84621 0.3794 0.74281 0.0
H193 H 0.86949 0.36869 0.80459 0.0
H194 H 0.91498 0.34565 0.7395 0.0
H195 H 0.9208 0.40781 0.76426 0.0
C196 C 0.88087 0.39659 0.71541 0.0
C197 C 0.87136 0.32734 0.74463 0.0
C198 C 0.88806 0.42765 0.78531 0.0
C199 C 0.90845 0.35529 0.80356 0.0
H200 H 0.86278 0.33025 0.69909 0.0
H201 H 0.87004 0.36764 0.68296 0.0
H202 H 0.87922 0.44169 0.71368 0.0
H203 H 0.88182 0.4585 0.75172 0.0
H204 H 0.90409 0.42344 0.82783 0.0
H205 H 0.91743 0.38465 0.83693 0.0
H206 H 0.90604 0.30976 0.80605 0.0
H207 H 0.88388 0.29501 0.77462 0.0
H208 H 0.94993 0.34259 0.73419 0.0
H209 H 0.9559 0.40545 0.76014 0.0
H210 H 0.83917 0.35613 0.81683 0.0
H211 H 0.81499 0.36531 0.7542 0.0
C212 C 0.22496 0.17821 0.34386 0.0
C213 C 0.20608 0.18075 0.33606 0.0
C214 C 0.1991 0.16092 0.33316 0.0
C215 C 0.21404 0.14743 0.33911 0.0
N216 N 0.23016 0.15725 0.3457 0.0
Co217 Co 0.25479 0.14276 0.35641 0.0
N218 N 0.24536 0.11374 0.34863 0.0
C219 C 0.22759 0.10954 0.34069 0.0
C220 C 0.22441 0.08847 0.33741 0.0
C221 C 0.24112 0.07837 0.34384 0.0
C222 C 0.25377 0.09396 0.35059 0.0
N223 N 0.27878 0.12791 0.36821 0.0
C224 C 0.28394 0.10677 0.36949 0.0
C225 C 0.30181 0.10396 0.37956 0.0
C226 C 0.30794 0.12373 0.38509 0.0
C227 C 0.2936 0.13757 0.37803 0.0
N228 N 0.26426 0.17181 0.36337 0.0
C229 C 0.281 0.17606 0.37351 0.0
C230 C 0.28449 0.19737 0.37499 0.0
C231 C 0.26902 0.2073 0.36502 0.0
C232 C 0.25694 0.19146 0.35796 0.0
N233 N 0.24303 0.14082 0.38516 0.0
C234 C 0.23358 0.14119 0.42892 0.0
C235 C 0.22975 0.15893 0.41601 0.0
C236 C 0.23463 0.15846 0.3944 0.0
C237 C 0.24119 0.12287 0.41912 0.0
C238 C 0.24541 0.12289 0.39732 0.0
N239 N 0.26768 0.14572 0.32808 0.0
C240 C 0.29844 0.14239 0.30962 0.0
C241 C 0.29492 0.16158 0.29878 0.0
C242 C 0.27626 0.17073 0.30056 0.0
C243 C 0.26286 0.16238 0.31484 0.0
C244 C 0.28454 0.13454 0.32367 0.0
H245 H 0.24906 0.17038 0.31554 0.0
H246 H 0.28813 0.11991 0.33158 0.0
H247 H 0.23221 0.17279 0.38546 0.0
H248 H 0.25117 0.10844 0.39068 0.0
C249 C 0.21391 0.12561 0.3371 0.0
C250 C 0.2382 0.19593 0.34707 0.0
C251 C 0.27261 0.0889 0.36096 0.0
C252 C 0.29367 0.15963 0.37993 0.0
H253 H 0.19819 0.19524 0.3321 0.0
H254 H 0.18502 0.15682 0.32677 0.0
H255 H 0.21127 0.08125 0.33161 0.0
H256 H 0.24315 0.06134 0.3443 0.0
H257 H 0.30966 0.08915 0.38249 0.0
H258 H 0.32134 0.12757 0.3932 0.0
H259 H 0.29699 0.20479 0.38209 0.0
H260 H 0.26682 0.22426 0.36318 0.0
H261 H 0.22372 0.17345 0.42275 0.0
H262 H 0.24395 0.10856 0.42825 0.0
H263 H 0.31211 0.13372 0.3078 0.0
H264 H 0.27226 0.18503 0.29193 0.0
C265 C 0.3699 0.80087 0.84089 0.0
C266 C 0.36864 0.82243 0.83657 0.0
C267 C 0.37186 0.83268 0.85545 0.0
C268 C 0.3751 0.8168 0.87005 0.0
N269 N 0.37428 0.79732 0.86149 0.0
Co270 Co 0.38032 0.77028 0.87626 0.0
N271 N 0.37495 0.78328 0.90449 0.0
C272 C 0.37312 0.80427 0.90839 0.0
C273 C 0.3689 0.80887 0.92912 0.0
C274 C 0.36845 0.78964 0.93907 0.0
C275 C 0.37285 0.77426 0.92389 0.0
N276 N 0.38764 0.74359 0.8914 0.0
C277 C 0.38589 0.73812 0.91221 0.0
C278 C 0.39464 0.71839 0.91593 0.0
C279 C 0.40221 0.71149 0.89693 0.0
C280 C 0.39782 0.72734 0.88262 0.0
N281 N 0.38442 0.75779 0.84767 0.0
C282 C 0.39383 0.73939 0.84354 0.0
C283 C 0.39155 0.73332 0.82268 0.0
C284 C 0.37988 0.74886 0.81331 0.0
C285 C 0.37564 0.76368 0.82895 0.0
N286 N 0.40818 0.77837 0.8784 0.0
C287 C 0.44895 0.78532 0.88148 0.0
C288 C 0.4389 0.78715 0.86199 0.0
C289 C 0.4186 0.78382 0.86083 0.0
C290 C 0.4379 0.7801 0.89927 0.0
C291 C 0.41786 0.77671 0.89744 0.0
N292 N 0.35293 0.76098 0.87336 0.0
C293 C 0.33222 0.73245 0.86188 0.0
C294 C 0.31693 0.74663 0.85703 0.0
C295 C 0.31956 0.76816 0.86219 0.0
C296 C 0.33753 0.77495 0.87067 0.0
C297 C 0.34984 0.73982 0.86982 0.0
H298 H 0.3393 0.79164 0.8738 0.0
H299 H 0.36133 0.72815 0.8714 0.0
H300 H 0.4114 0.78542 0.84561 0.0
H301 H 0.41038 0.77222 0.91157 0.0
C302 C 0.37442 0.81915 0.89205 0.0
C303 C 0.36476 0.78416 0.82584 0.0
C304 C 0.37778 0.75197 0.92915 0.0
C305 C 0.40039 0.72637 0.86043 0.0
H306 H 0.36476 0.82986 0.82161 0.0
H307 H 0.37057 0.84957 0.85841 0.0
H308 H 0.36643 0.82435 0.93617 0.0
H309 H 0.36591 0.78737 0.95581 0.0
H310 H 0.39573 0.71004 0.93089 0.0
H311 H 0.40968 0.6965 0.89388 0.0
H312 H 0.39668 0.71868 0.81543 0.0
H313 H 0.37503 0.749 0.79698 0.0
H314 H 0.44658 0.79138 0.84776 0.0
H315 H 0.44477 0.77817 0.91469 0.0
H316 H 0.33118 0.71573 0.85817 0.0
H317 H 0.30804 0.77979 0.85912 0.0
C318 C 0.72208 0.85627 0.34232 0.0
C319 C 0.70448 0.84585 0.34252 0.0
C320 C 0.70166 0.83938 0.36279 0.0
C321 C 0.71761 0.84601 0.37381 0.0
N322 N 0.73046 0.85652 0.36199 0.0
Co323 Co 0.75564 0.8685 0.37248 0.0
N324 N 0.75126 0.85821 0.40224 0.0
C325 C 0.73659 0.84601 0.40857 0.0
C326 C 0.7379 0.83971 0.42931 0.0
C327 C 0.75444 0.84855 0.43688 0.0
C328 C 0.76216 0.85998 0.42028 0.0
N329 N 0.78028 0.88123 0.38351 0.0
C330 C 0.7875 0.88299 0.40375 0.0
C331 C 0.8044 0.89452 0.40411 0.0
C332 C 0.808 0.90012 0.38357 0.0
C333 C 0.7931 0.89184 0.37181 0.0
N334 N 0.76036 0.87749 0.34241 0.0
C335 C 0.77594 0.88798 0.33567 0.0
C336 C 0.77604 0.89111 0.31413 0.0
C337 C 0.75949 0.88191 0.30663 0.0
C338 C 0.75021 0.87365 0.32407 0.0
N339 N 0.74214 0.89643 0.37852 0.0
C340 C 0.73234 0.94016 0.38491 0.0
C341 C 0.72964 0.93036 0.36513 0.0
C342 C 0.73418 0.90856 0.36241 0.0
C343 C 0.73868 0.92711 0.40169 0.0
C344 C 0.74336 0.90559 0.39823 0.0
N345 N 0.77007 0.84139 0.36588 0.0
C346 C 0.79996 0.82044 0.36952 0.0
C347 C 0.79683 0.81041 0.34991 0.0
C348 C 0.77905 0.81474 0.33963 0.0
C349 C 0.76595 0.82999 0.3479 0.0
C350 C 0.78638 0.83552 0.3773 0.0
H351 H 0.75299 0.833 0.33889 0.0
H352 H 0.78969 0.84298 0.39217 0.0
H353 H 0.73168 0.9019 0.34698 0.0
H354 H 0.74865 0.89689 0.41165 0.0
C355 C 0.7215 0.84132 0.39487 0.0
C356 C 0.73131 0.86314 0.32261 0.0
C357 C 0.77898 0.87364 0.42292 0.0
C358 C 0.7903 0.89421 0.34999 0.0
H359 H 0.69501 0.84228 0.32929 0.0
H360 H 0.68974 0.8302 0.36865 0.0
H361 H 0.72789 0.83005 0.43796 0.0
H362 H 0.75996 0.84705 0.45295 0.0
H363 H 0.8132 0.89849 0.41779 0.0
H364 H 0.81994 0.90937 0.37792 0.0
H365 H 0.7869 0.89904 0.30493 0.0
H366 H 0.75471 0.88145 0.29025 0.0
H367 H 0.72411 0.93948 0.35175 0.0
H368 H 0.74085 0.93364 0.41741 0.0
H369 H 0.81307 0.81707 0.37865 0.0
H370 H 0.77562 0.80728 0.32462 0.0
C371 C 0.67371 0.22413 0.8449 0.0
C372 C 0.6785 0.20281 0.84162 0.0
C373 C 0.67491 0.19248 0.86014 0.0
C374 C 0.66853 0.20793 0.87387 0.0
N375 N 0.66781 0.22744 0.86521 0.0
Co376 Co 0.66077 0.25424 0.8806 0.0
N377 N 0.66528 0.24086 0.90903 0.0
C378 C 0.66681 0.21981 0.91253 0.0
C379 C 0.66889 0.21454 0.93349 0.0
C380 C 0.66835 0.23341 0.94411 0.0
C381 C 0.66597 0.2493 0.92897 0.0
N382 N 0.65286 0.2806 0.89629 0.0
C383 C 0.65413 0.28577 0.91735 0.0
C384 C 0.64586 0.30574 0.92093 0.0
C385 C 0.63879 0.31299 0.90176 0.0
C386 C 0.64314 0.29719 0.88741 0.0
N387 N 0.65696 0.2673 0.85217 0.0
C388 C 0.64734 0.28568 0.84829 0.0
C389 C 0.64808 0.29145 0.82728 0.0
C390 C 0.65891 0.2757 0.81743 0.0
C391 C 0.66428 0.26114 0.83297 0.0
N392 N 0.63291 0.24593 0.8808 0.0
C393 C 0.59169 0.24205 0.87814 0.0
C394 C 0.60381 0.23736 0.86077 0.0
C395 C 0.62415 0.23935 0.86241 0.0
C396 C 0.601 0.24782 0.89717 0.0
C397 C 0.62144 0.24943 0.89823 0.0
N398 N 0.68821 0.2638 0.87916 0.0
C399 C 0.70871 0.29271 0.86859 0.0
C400 C 0.72342 0.27862 0.86198 0.0
C401 C 0.72087 0.25691 0.86608 0.0
C402 C 0.70345 0.24992 0.87524 0.0
C403 C 0.69139 0.2851 0.87686 0.0
H404 H 0.70192 0.23313 0.87777 0.0
H405 H 0.68014 0.29679 0.87959 0.0
H406 H 0.63271 0.23631 0.84843 0.0
H407 H 0.62781 0.25422 0.91309 0.0
C408 C 0.66759 0.20549 0.89573 0.0
C409 C 0.675 0.24086 0.82868 0.0
C410 C 0.66163 0.27164 0.93458 0.0
C411 C 0.64084 0.29846 0.86523 0.0
H412 H 0.68463 0.19524 0.82777 0.0
H413 H 0.67803 0.17593 0.86364 0.0
H414 H 0.67054 0.19883 0.94027 0.0
H415 H 0.6688 0.23504 0.96118 0.0
H416 H 0.64483 0.31412 0.93588 0.0
H417 H 0.63172 0.3282 0.8986 0.0
H418 H 0.64216 0.30582 0.82011 0.0
H419 H 0.66244 0.27496 0.80074 0.0
H420 H 0.59764 0.23288 0.84562 0.0
H421 H 0.59257 0.25115 0.91126 0.0
H422 H 0.70984 0.30959 0.86581 0.0
H423 H 0.732 0.24533 0.86165 0.0
C424 C 0.30294 0.85315 0.69197 0.0
C425 C 0.32286 0.85292 0.69587 0.0
C426 C 0.33163 0.85486 0.67665 0.0
C427 C 0.31664 0.8566 0.66224 0.0
N428 N 0.29892 0.85602 0.67101 0.0
Co429 Co 0.27383 0.86275 0.65592 0.0
N430 N 0.28588 0.85841 0.62729 0.0
C431 C 0.30513 0.85613 0.62374 0.0
C432 C 0.30981 0.85446 0.60276 0.0
C433 C 0.29253 0.85621 0.59213 0.0
C434 C 0.27807 0.85886 0.60729 0.0
N435 N 0.24926 0.87134 0.64049 0.0
C436 C 0.24481 0.87197 0.61929 0.0
C437 C 0.22575 0.87906 0.61605 0.0
C438 C 0.21819 0.88345 0.63562 0.0
C439 C 0.23289 0.87867 0.64978 0.0
N440 N 0.26198 0.86583 0.6847 0.0
C441 C 0.24362 0.87254 0.68848 0.0
C442 C 0.23782 0.86867 0.70881 0.0
C443 C 0.25343 0.85881 0.71855 0.0
C444 C 0.26829 0.85768 0.70378 0.0
N445 N 0.28088 0.89328 0.65579 0.0
C446 C 0.28602 0.93799 0.65695 0.0
C447 C 0.2885 0.92535 0.6752 0.0
C448 C 0.28591 0.90326 0.67429 0.0
C449 C 0.28145 0.92743 0.63799 0.0
C450 C 0.27907 0.90532 0.63773 0.0
N451 N 0.26556 0.83232 0.65705 0.0
C452 C 0.23635 0.81172 0.65946 0.0
C453 C 0.24409 0.79994 0.67645 0.0
C454 C 0.26395 0.80212 0.68093 0.0
C455 C 0.27452 0.81801 0.67064 0.0
C456 C 0.24745 0.82715 0.64958 0.0
H457 H 0.28959 0.81926 0.6749 0.0
H458 H 0.2405 0.83555 0.63675 0.0
H459 H 0.28757 0.89437 0.68881 0.0
H460 H 0.27535 0.89822 0.62282 0.0
C461 C 0.31855 0.85642 0.64035 0.0
C462 C 0.28834 0.84919 0.70826 0.0
C463 C 0.25794 0.86553 0.60177 0.0
C464 C 0.23128 0.87866 0.6718 0.0
H465 H 0.33031 0.8511 0.71096 0.0
H466 H 0.34708 0.85445 0.6735 0.0
H467 H 0.32417 0.85299 0.59595 0.0
H468 H 0.29113 0.8569 0.57507 0.0
H469 H 0.21798 0.88056 0.60112 0.0
H470 H 0.20351 0.88885 0.63913 0.0
H471 H 0.22346 0.87128 0.71537 0.0
H472 H 0.25327 0.85247 0.73442 0.0
H473 H 0.2919 0.93249 0.69037 0.0
H474 H 0.27975 0.93616 0.6233 0.0
H475 H 0.22143 0.80967 0.65438 0.0
H476 H 0.27099 0.79262 0.6932 0.0
C477 C 0.67482 0.81373 0.17562 0.0
C478 C 0.67989 0.83484 0.17776 0.0
C479 C 0.6775 0.84398 0.15825 0.0
C480 C 0.67125 0.82803 0.14526 0.0
N481 N 0.66953 0.80936 0.15531 0.0
Co482 Co 0.66186 0.78211 0.14193 0.0
N483 N 0.6673 0.79278 0.11284 0.0
C484 C 0.67001 0.81322 0.10765 0.0
C485 C 0.67385 0.81618 0.0866 0.0
C486 C 0.67325 0.79644 0.07775 0.0
C487 C 0.66873 0.78247 0.09392 0.0
N488 N 0.65391 0.75505 0.12824 0.0
C489 C 0.65593 0.74794 0.10789 0.0
C490 C 0.64697 0.72863 0.10524 0.0
C491 C 0.6389 0.72366 0.12441 0.0
C492 C 0.64329 0.74017 0.13773 0.0
N493 N 0.65671 0.77177 0.17108 0.0
C494 C 0.64597 0.75494 0.17583 0.0
C495 C 0.64498 0.75145 0.19731 0.0
C496 C 0.65576 0.76712 0.20659 0.0
C497 C 0.66279 0.77935 0.19024 0.0
N498 N 0.63439 0.79257 0.13967 0.0
C499 C 0.59325 0.79656 0.14198 0.0
C500 C 0.60536 0.80373 0.15846 0.0
C501 C 0.62569 0.80168 0.157 0.0
C502 C 0.60245 0.78936 0.12339 0.0
C503 C 0.62293 0.78766 0.12251 0.0
N504 N 0.68881 0.77072 0.14525 0.0
C505 C 0.70946 0.74222 0.15906 0.0
C506 C 0.72561 0.75531 0.15996 0.0
C507 C 0.72306 0.7761 0.15193 0.0
C508 C 0.70467 0.78339 0.14447 0.0
C509 C 0.69143 0.75016 0.15189 0.0
H510 H 0.70313 0.79955 0.13898 0.0
H511 H 0.67941 0.73968 0.15282 0.0
H512 H 0.63429 0.80626 0.17056 0.0
H513 H 0.62937 0.78111 0.10834 0.0
C514 C 0.67099 0.82886 0.12322 0.0
C515 C 0.67411 0.79879 0.19345 0.0
C516 C 0.66417 0.76007 0.09017 0.0
C517 C 0.63972 0.74122 0.15966 0.0
H518 H 0.68497 0.84283 0.19189 0.0
H519 H 0.68099 0.86002 0.15383 0.0
H520 H 0.67714 0.83088 0.07871 0.0
H521 H 0.6756 0.79289 0.06117 0.0
H522 H 0.64593 0.71939 0.09081 0.0
H523 H 0.63097 0.70957 0.1282 0.0
H524 H 0.63787 0.73861 0.20528 0.0
H525 H 0.65815 0.76935 0.22343 0.0
H526 H 0.59919 0.81019 0.17291 0.0
H527 H 0.59393 0.78387 0.11004 0.0
H528 H 0.71051 0.72586 0.1642 0.0
H529 H 0.73495 0.78703 0.15208 0.0
C530 C 0.72516 0.18076 0.68391 0.0
C531 C 0.70641 0.18918 0.6862 0.0
C532 C 0.69777 0.18856 0.66666 0.0
C533 C 0.71166 0.18011 0.65347 0.0
N534 N 0.72858 0.17522 0.6634 0.0
Co535 Co 0.75259 0.16354 0.64949 0.0
N536 N 0.74288 0.17166 0.6205 0.0
C537 C 0.72462 0.17841 0.61575 0.0
C538 C 0.72187 0.18356 0.59484 0.0
C539 C 0.73937 0.17945 0.58552 0.0
C540 C 0.75182 0.17159 0.60128 0.0
N541 N 0.77603 0.15096 0.63513 0.0
C542 C 0.78189 0.15161 0.61444 0.0
C543 C 0.79837 0.13887 0.61155 0.0
C544 C 0.80282 0.12979 0.63084 0.0
C545 C 0.78881 0.13734 0.64451 0.0
N546 N 0.76215 0.15631 0.67853 0.0
C547 C 0.77702 0.14282 0.68303 0.0
C548 C 0.78101 0.14174 0.70443 0.0
C549 C 0.7678 0.15543 0.71391 0.0
C550 C 0.75644 0.1642 0.69777 0.0
N551 N 0.7405 0.13523 0.64707 0.0
C552 C 0.73335 0.09096 0.64788 0.0
C553 C 0.7294 0.10409 0.66548 0.0
C554 C 0.7329 0.12599 0.66471 0.0
C555 C 0.73957 0.10104 0.62934 0.0
C556 C 0.74282 0.12303 0.6292 0.0
N557 N 0.76587 0.19113 0.65325 0.0
C558 C 0.79517 0.20752 0.66649 0.0
C559 C 0.78484 0.22582 0.67266 0.0
C560 C 0.76492 0.22707 0.66723 0.0
C561 C 0.75584 0.2098 0.65713 0.0
C562 C 0.78557 0.19059 0.65706 0.0
H563 H 0.74049 0.21122 0.65363 0.0
H564 H 0.79428 0.17653 0.65459 0.0
H565 H 0.73047 0.13521 0.67891 0.0
H566 H 0.74818 0.12985 0.61482 0.0
C567 C 0.71079 0.18116 0.63149 0.0
C568 C 0.73934 0.17853 0.70137 0.0
C569 C 0.77112 0.16212 0.59673 0.0
C570 C 0.78838 0.1341 0.66659 0.0
H571 H 0.69969 0.19579 0.70022 0.0
H572 H 0.68354 0.19496 0.66232 0.0
H573 H 0.70873 0.18975 0.58729 0.0
H574 H 0.74239 0.18155 0.56886 0.0
H575 H 0.80609 0.13603 0.59689 0.0
H576 H 0.81494 0.11911 0.63448 0.0
H577 H 0.79256 0.13264 0.71219 0.0
H578 H 0.76655 0.15852 0.73074 0.0
H579 H 0.7245 0.09743 0.68025 0.0
H580 H 0.74227 0.09196 0.61503 0.0
H581 H 0.81049 0.20552 0.6703 0.0
H582 H 0.75628 0.24108 0.6712 0.0
C583 C 0.38275 0.2211 0.18292 0.0
C584 C 0.37779 0.1999 0.18361 0.0
C585 C 0.3794 0.19231 0.16331 0.0
C586 C 0.38532 0.20922 0.15149 0.0
N587 N 0.38773 0.22685 0.1631 0.0
Co588 Co 0.39587 0.25478 0.15241 0.0
N589 N 0.38752 0.24779 0.12284 0.0
C590 C 0.38377 0.22807 0.11576 0.0
C591 C 0.37943 0.22728 0.09459 0.0
C592 C 0.38093 0.24763 0.0876 0.0
C593 C 0.38613 0.25998 0.10503 0.0
N594 N 0.40466 0.28248 0.1415 0.0
C595 C 0.40221 0.29176 0.12213 0.0
C596 C 0.41127 0.31122 0.12172 0.0
C597 C 0.42045 0.31361 0.14094 0.0
C598 C 0.41633 0.29572 0.15224 0.0
N599 N 0.40324 0.26146 0.18217 0.0
C600 C 0.41501 0.27697 0.18847 0.0
C601 C 0.41581 0.2789 0.2102 0.0
C602 C 0.40367 0.26372 0.21793 0.0
C603 C 0.39615 0.25327 0.20045 0.0
N604 N 0.42263 0.24317 0.14687 0.0
C605 C 0.46348 0.23814 0.14096 0.0
C606 C 0.45482 0.23326 0.16046 0.0
C607 C 0.43441 0.23551 0.16296 0.0
C608 C 0.45077 0.24331 0.12408 0.0
C609 C 0.43079 0.24605 0.12738 0.0
N610 N 0.36985 0.26735 0.1586 0.0
C611 C 0.35169 0.2964 0.17465 0.0
C612 C 0.33439 0.28546 0.17297 0.0
C613 C 0.33502 0.2652 0.16358 0.0
C614 C 0.35294 0.25644 0.15638 0.0
C615 C 0.36904 0.28718 0.16753 0.0
H616 H 0.35318 0.24082 0.14933 0.0
H617 H 0.3819 0.29616 0.16989 0.0
H618 H 0.42839 0.23218 0.17831 0.0
H619 H 0.42231 0.25175 0.11416 0.0
C620 C 0.38385 0.21072 0.12951 0.0
C621 C 0.38271 0.23533 0.20128 0.0
C622 C 0.39342 0.28178 0.10309 0.0
C623 C 0.42107 0.29206 0.17372 0.0
H624 H 0.37306 0.19102 0.19722 0.0
H625 H 0.37537 0.1768 0.15764 0.0
H626 H 0.376 0.21345 0.0852 0.0
H627 H 0.37952 0.25225 0.07118 0.0
H628 H 0.41166 0.32231 0.10866 0.0
H629 H 0.42885 0.32697 0.14615 0.0
H630 H 0.42324 0.29084 0.21933 0.0
H631 H 0.40042 0.26103 0.23444 0.0
H632 H 0.46371 0.22874 0.17403 0.0
H633 H 0.45623 0.24617 0.10833 0.0
H634 H 0.35183 0.31215 0.18156 0.0
H635 H 0.32183 0.25636 0.16162 0.0
C636 C 0.84349 0.65802 0.77608 0.0
C637 C 0.82902 0.65003 0.76316 0.0
C638 C 0.8382 0.63719 0.74843 0.0
C639 C 0.85775 0.63802 0.75317 0.0
N640 N 0.86134 0.65048 0.76996 0.0
Co641 Co 0.88752 0.65785 0.78089 0.0
N642 N 0.90113 0.64785 0.75467 0.0
C643 C 0.89316 0.63504 0.74 0.0
C644 C 0.90604 0.62885 0.72453 0.0
C645 C 0.92332 0.6379 0.73001 0.0
C646 C 0.9201 0.64928 0.74856 0.0
N647 N 0.91363 0.66609 0.79204 0.0
C648 C 0.93127 0.66712 0.78244 0.0
C649 C 0.94532 0.67439 0.79647 0.0
C650 C 0.93653 0.67689 0.81567 0.0
C651 C 0.9176 0.67144 0.8123 0.0
N652 N 0.87426 0.66695 0.80752 0.0
C653 C 0.88295 0.67034 0.82636 0.0
C654 C 0.87024 0.67689 0.84182 0.0
C655 C 0.85239 0.6779 0.83209 0.0
C656 C 0.85525 0.67179 0.81116 0.0
N657 N 0.89123 0.6287 0.79253 0.0
C658 C 0.89442 0.58424 0.80003 0.0
C659 C 0.91044 0.59602 0.79359 0.0
C660 C 0.90862 0.61797 0.7902 0.0
C661 C 0.87696 0.59572 0.80374 0.0
C662 C 0.87571 0.6178 0.80006 0.0
N663 N 0.88275 0.68642 0.76822 0.0
C664 C 0.87054 0.72264 0.77213 0.0
C665 C 0.86379 0.7231 0.75093 0.0
C666 C 0.8683 0.70537 0.73836 0.0
C667 C 0.87768 0.68748 0.74716 0.0
C668 C 0.88018 0.70431 0.78036 0.0
H669 H 0.87926 0.67394 0.73697 0.0
H670 H 0.8845 0.70425 0.79685 0.0
H671 H 0.92122 0.62594 0.78467 0.0
H672 H 0.86191 0.6259 0.80256 0.0
C673 C 0.87315 0.63082 0.74033 0.0
C674 C 0.83985 0.67139 0.79498 0.0
C675 C 0.93595 0.65887 0.76115 0.0
C676 C 0.90305 0.6722 0.82753 0.0
H677 H 0.81353 0.65316 0.76432 0.0
H678 H 0.83147 0.62904 0.73526 0.0
H679 H 0.90322 0.61892 0.71088 0.0
H680 H 0.93692 0.63576 0.72168 0.0
H681 H 0.96052 0.677 0.79342 0.0
H682 H 0.94318 0.68206 0.83036 0.0
H683 H 0.87371 0.68187 0.85783 0.0
H684 H 0.83902 0.68321 0.8395 0.0
H685 H 0.9243 0.5883 0.79024 0.0
H686 H 0.86421 0.58772 0.80924 0.0
H687 H 0.86791 0.73607 0.78251 0.0
H688 H 0.86344 0.70455 0.72201 0.0
C689 C 0.88584 0.33648 0.2784 0.0
C690 C 0.888 0.31965 0.26435 0.0
C691 C 0.89085 0.32825 0.24476 0.0
C692 C 0.89053 0.34978 0.24795 0.0
N693 N 0.88822 0.35543 0.2684 0.0
Co694 Co 0.88602 0.38531 0.27911 0.0
N695 N 0.89248 0.39807 0.25084 0.0
C696 C 0.8926 0.38726 0.23238 0.0
C697 C 0.89405 0.39996 0.21493 0.0
C698 C 0.8949 0.42017 0.2227 0.0
C699 C 0.89453 0.41878 0.24471 0.0
N700 N 0.88398 0.41517 0.29003 0.0
C701 C 0.89179 0.43308 0.28201 0.0
C702 C 0.8942 0.44818 0.29783 0.0
C703 C 0.8855 0.44072 0.31549 0.0
C704 C 0.87941 0.42093 0.31004 0.0
N705 N 0.87964 0.37286 0.30757 0.0
C706 C 0.87401 0.38407 0.32479 0.0
C707 C 0.87023 0.37194 0.34211 0.0
C708 C 0.87308 0.35157 0.3355 0.0
C709 C 0.87853 0.35234 0.3143 0.0
N710 N 0.91427 0.38454 0.28656 0.0
C711 C 0.95489 0.38653 0.29511 0.0
C712 C 0.94099 0.39224 0.31048 0.0
C713 C 0.92098 0.39109 0.30595 0.0
C714 C 0.94782 0.379 0.27564 0.0
C715 C 0.92768 0.3781 0.27175 0.0
N716 N 0.85791 0.38541 0.27055 0.0
C717 C 0.83091 0.36232 0.26361 0.0
C718 C 0.82625 0.373 0.24473 0.0
C719 C 0.83573 0.39218 0.24113 0.0
C720 C 0.85103 0.39841 0.25461 0.0
C721 C 0.84646 0.36892 0.27632 0.0
H722 H 0.85808 0.41301 0.25108 0.0
H723 H 0.84977 0.35949 0.28994 0.0
H724 H 0.91108 0.39582 0.31822 0.0
H725 H 0.92311 0.37255 0.25645 0.0
C726 C 0.89167 0.36517 0.23215 0.0
C727 C 0.87863 0.33364 0.30019 0.0
C728 C 0.89464 0.43746 0.25921 0.0
C729 C 0.87403 0.406 0.32479 0.0
H730 H 0.8865 0.30295 0.26776 0.0
H731 H 0.8923 0.31983 0.22986 0.0
H732 H 0.89402 0.39515 0.19844 0.0
H733 H 0.89486 0.43418 0.21291 0.0
H734 H 0.90131 0.46325 0.29673 0.0
H735 H 0.88504 0.44817 0.33097 0.0
H736 H 0.86585 0.37727 0.35772 0.0
H737 H 0.87058 0.33801 0.34536 0.0
H738 H 0.94549 0.39767 0.32602 0.0
H739 H 0.95773 0.37444 0.2631 0.0
H740 H 0.8236 0.34798 0.26792 0.0
H741 H 0.83189 0.40196 0.22757 0.0
C742 C 0.17455 0.33165 0.76401 0.0
C743 C 0.16893 0.31525 0.77703 0.0
C744 C 0.15792 0.32433 0.79289 0.0
C745 C 0.15736 0.34573 0.7887 0.0
N746 N 0.1673 0.35065 0.77121 0.0
Co747 Co 0.17086 0.37983 0.76015 0.0
N748 N 0.16205 0.39387 0.78702 0.0
C749 C 0.15254 0.38399 0.80263 0.0
C750 C 0.14742 0.39733 0.81898 0.0
C751 C 0.15363 0.41696 0.81314 0.0
C752 C 0.16213 0.41465 0.79335 0.0
N753 N 0.17483 0.40907 0.74877 0.0
C754 C 0.17393 0.42857 0.75821 0.0
C755 C 0.17627 0.44459 0.74335 0.0
C756 C 0.17844 0.43501 0.72412 0.0
C757 C 0.17727 0.41378 0.72812 0.0
N758 N 0.17909 0.36614 0.73294 0.0
C759 C 0.18053 0.37596 0.71411 0.0
C760 C 0.18749 0.36303 0.6983 0.0
C761 C 0.19068 0.34375 0.70766 0.0
C762 C 0.18517 0.34592 0.72873 0.0
N763 N 0.14326 0.38064 0.75006 0.0
C764 C 0.10225 0.37662 0.74536 0.0
C765 C 0.1104 0.3956 0.75259 0.0
C766 C 0.13079 0.39735 0.75463 0.0
C767 C 0.11542 0.36052 0.73875 0.0
C768 C 0.1356 0.36279 0.74124 0.0
N769 N 0.19815 0.37758 0.77126 0.0
C770 C 0.23211 0.36802 0.76516 0.0
C771 C 0.23473 0.36116 0.78631 0.0
C772 C 0.21896 0.36432 0.79993 0.0
C773 C 0.20105 0.37233 0.7922 0.0
C774 C 0.21392 0.3765 0.75809 0.0
H775 H 0.18925 0.3727 0.80319 0.0
H776 H 0.21241 0.38107 0.74167 0.0
H777 H 0.13629 0.41191 0.76095 0.0
H778 H 0.14494 0.3495 0.73701 0.0
C779 C 0.1505 0.36186 0.80228 0.0
C780 C 0.18554 0.32848 0.74416 0.0
C781 C 0.16817 0.43291 0.78031 0.0
C782 C 0.1792 0.39791 0.71293 0.0
H783 H 0.1724 0.29851 0.77518 0.0
H784 H 0.1517 0.31633 0.80631 0.0
H785 H 0.14018 0.39325 0.83354 0.0
H786 H 0.15169 0.43144 0.82219 0.0
H787 H 0.17557 0.46156 0.74572 0.0
H788 H 0.18037 0.44266 0.70895 0.0
H789 H 0.19103 0.36742 0.68222 0.0
H790 H 0.19682 0.32995 0.69977 0.0
H791 H 0.10113 0.40872 0.75771 0.0
H792 H 0.11023 0.3458 0.7322 0.0
H793 H 0.2439 0.36644 0.75397 0.0
H794 H 0.21996 0.35932 0.81634 0.0
C795 C 0.17383 0.69517 0.27639 0.0
C796 C 0.17557 0.71042 0.26074 0.0
C797 C 0.17291 0.70041 0.24171 0.0
C798 C 0.16986 0.67959 0.24663 0.0
N799 N 0.16981 0.67574 0.26767 0.0
Co800 Co 0.17117 0.6465 0.28059 0.0
N801 N 0.16692 0.63166 0.25281 0.0
C802 C 0.16639 0.64105 0.23367 0.0
C803 C 0.16306 0.62717 0.21731 0.0
C804 C 0.16148 0.60767 0.22667 0.0
C805 C 0.16397 0.61074 0.24829 0.0
N806 N 0.17392 0.61759 0.29374 0.0
C807 C 0.1717 0.59784 0.2854 0.0
C808 C 0.17524 0.5822 0.30054 0.0
C809 C 0.17986 0.59234 0.31894 0.0
C810 C 0.17887 0.61351 0.31412 0.0
N811 N 0.17415 0.66105 0.30866 0.0
C812 C 0.17616 0.65155 0.32767 0.0
C813 C 0.17458 0.66528 0.34448 0.0
C814 C 0.17193 0.68488 0.33556 0.0
C815 C 0.17259 0.68199 0.31374 0.0
N816 N 0.14235 0.64662 0.28469 0.0
C817 C 0.10125 0.64298 0.28677 0.0
C818 C 0.11336 0.63625 0.30362 0.0
C819 C 0.13378 0.63809 0.30222 0.0
C820 C 0.11014 0.65226 0.26933 0.0
C821 C 0.13042 0.65414 0.26872 0.0
N822 N 0.19975 0.64674 0.27514 0.0
C823 C 0.22679 0.67018 0.27066 0.0
C824 C 0.23338 0.65868 0.25302 0.0
C825 C 0.2244 0.63932 0.24873 0.0
C826 C 0.20789 0.63349 0.2602 0.0
C827 C 0.21048 0.66353 0.28182 0.0
H828 H 0.2011 0.61888 0.2559 0.0
H829 H 0.20605 0.67282 0.29505 0.0
H830 H 0.14249 0.632 0.31516 0.0
H831 H 0.13633 0.66112 0.25478 0.0
C832 C 0.16837 0.663 0.23194 0.0
C833 C 0.17759 0.69924 0.29925 0.0
C834 C 0.16567 0.59308 0.26357 0.0
C835 C 0.17933 0.62975 0.32907 0.0
H836 H 0.17916 0.72687 0.26254 0.0
H837 H 0.17401 0.70732 0.22608 0.0
H838 H 0.16194 0.63076 0.20056 0.0
H839 H 0.15934 0.59279 0.2185 0.0
H840 H 0.17406 0.56522 0.29874 0.0
H841 H 0.18265 0.58515 0.33428 0.0
H842 H 0.17577 0.66157 0.3612 0.0
H843 H 0.17153 0.69982 0.34406 0.0
H844 H 0.1072 0.62877 0.31737 0.0
H845 H 0.10146 0.65768 0.2559 0.0
H846 H 0.23393 0.68453 0.27559 0.0
H847 H 0.22938 0.62925 0.23585 0.0
C848 C 0.77341 0.83466 0.65462 0.0
C849 C 0.76292 0.81775 0.64701 0.0
C850 C 0.74894 0.82619 0.63345 0.0
C851 C 0.75166 0.84776 0.63352 0.0
N852 N 0.76649 0.85327 0.64619 0.0
Co853 Co 0.77434 0.88271 0.65257 0.0
N854 N 0.74936 0.89556 0.6418 0.0
C855 C 0.73677 0.8855 0.62899 0.0
C856 C 0.72144 0.89839 0.62258 0.0
C857 C 0.72478 0.91786 0.63156 0.0
C858 C 0.74199 0.91583 0.6431 0.0
N859 N 0.78246 0.91209 0.65966 0.0
C860 C 0.7721 0.93072 0.66051 0.0
C861 C 0.78379 0.94718 0.6672 0.0
C862 C 0.8022 0.93887 0.66946 0.0
C863 C 0.80073 0.91781 0.66452 0.0
N864 N 0.79965 0.87021 0.66259 0.0
C865 C 0.81626 0.8807 0.66544 0.0
C866 C 0.83134 0.868 0.67272 0.0
C867 C 0.82375 0.84826 0.67472 0.0
C868 C 0.80437 0.85006 0.66843 0.0
N869 N 0.78496 0.88529 0.62348 0.0
C870 C 0.79243 0.88474 0.57925 0.0
C871 C 0.78401 0.90266 0.58915 0.0
C872 C 0.78068 0.90274 0.61117 0.0
C873 C 0.79805 0.86761 0.59237 0.0
C874 C 0.79422 0.86819 0.61425 0.0
N875 N 0.76286 0.87884 0.68111 0.0
C876 C 0.76685 0.86851 0.71797 0.0
C877 C 0.74799 0.86019 0.71842 0.0
C878 C 0.73644 0.86307 0.70023 0.0
C879 C 0.74401 0.87231 0.68206 0.0
C880 C 0.77391 0.87797 0.69929 0.0
H881 H 0.73479 0.87242 0.66827 0.0
H882 H 0.78865 0.88345 0.69926 0.0
H883 H 0.77388 0.91668 0.61799 0.0
H884 H 0.79796 0.8543 0.62352 0.0
C885 C 0.73875 0.86347 0.62544 0.0
C886 C 0.79074 0.8326 0.66853 0.0
C887 C 0.75195 0.93403 0.65288 0.0
C888 C 0.81587 0.90277 0.66602 0.0
H889 H 0.76519 0.80114 0.65085 0.0
H890 H 0.73759 0.81769 0.62534 0.0
H891 H 0.70919 0.89413 0.61271 0.0
H892 H 0.71586 0.93208 0.62937 0.0
H893 H 0.77965 0.96365 0.66973 0.0
H894 H 0.81507 0.94717 0.6744 0.0
H895 H 0.84575 0.87279 0.67745 0.0
H896 H 0.83153 0.83439 0.6807 0.0
H897 H 0.77984 0.91654 0.57993 0.0
H898 H 0.80464 0.85336 0.58569 0.0
H899 H 0.77635 0.86717 0.73171 0.0
H900 H 0.72191 0.85688 0.69936 0.0
C901 C 0.67524 0.25337 0.19418 0.0
C902 C 0.67404 0.26841 0.21022 0.0
C903 C 0.67251 0.28784 0.20056 0.0
C904 C 0.67276 0.28366 0.17919 0.0
N905 N 0.67389 0.26276 0.17466 0.0
Co906 Co 0.67715 0.25077 0.14538 0.0
N907 N 0.67052 0.27842 0.13101 0.0
C908 C 0.66936 0.29739 0.1408 0.0
C909 C 0.66483 0.31381 0.12721 0.0
C910 C 0.66317 0.30468 0.10752 0.0
C911 C 0.66676 0.28311 0.11013 0.0
N912 N 0.6812 0.23882 0.11614 0.0
C913 C 0.67679 0.24681 0.09654 0.0
C914 C 0.68142 0.23222 0.0807 0.0
C915 C 0.68951 0.21487 0.09048 0.0
C916 C 0.68912 0.21958 0.11166 0.0
N917 N 0.68328 0.22271 0.15929 0.0
C918 C 0.6905 0.2053 0.1494 0.0
C919 C 0.69397 0.18837 0.16253 0.0
C920 C 0.68894 0.19544 0.18219 0.0
C921 C 0.68255 0.21645 0.17996 0.0
N922 N 0.64908 0.24397 0.1442 0.0
C923 C 0.60847 0.23797 0.14062 0.0
C924 C 0.62188 0.22225 0.13376 0.0
C925 C 0.64215 0.22553 0.13574 0.0
C926 C 0.61589 0.25626 0.1498 0.0
C927 C 0.63594 0.2589 0.15148 0.0
N928 N 0.70493 0.25887 0.14745 0.0
C929 C 0.73123 0.26602 0.17203 0.0
C930 C 0.73706 0.28339 0.16002 0.0
C931 C 0.72798 0.28631 0.14009 0.0
C932 C 0.71228 0.27363 0.13395 0.0
C933 C 0.71542 0.254 0.16546 0.0
H934 H 0.70525 0.27693 0.11894 0.0
H935 H 0.711 0.24183 0.17606 0.0
H936 H 0.65211 0.21342 0.12998 0.0
H937 H 0.64066 0.27354 0.15819 0.0
C938 C 0.67106 0.29876 0.16293 0.0
C939 C 0.67917 0.23058 0.19825 0.0
C940 C 0.6686 0.26813 0.09209 0.0
C941 C 0.69328 0.20511 0.12767 0.0
H942 H 0.67475 0.26565 0.22715 0.0
H943 H 0.67146 0.30319 0.20823 0.0
H944 H 0.66281 0.33043 0.13114 0.0
H945 H 0.66015 0.31301 0.09282 0.0
H946 H 0.67897 0.23362 0.06381 0.0
H947 H 0.69427 0.20015 0.08308 0.0
H948 H 0.69977 0.17282 0.15836 0.0
H949 H 0.69082 0.18633 0.19659 0.0
H950 H 0.61679 0.20793 0.12625 0.0
H951 H 0.60615 0.26893 0.15511 0.0
H952 H 0.73833 0.26211 0.18696 0.0
H953 H 0.73213 0.29906 0.12973 0.0
C954 C 0.25812 0.19766 0.65956 0.0
C955 C 0.27136 0.21359 0.65653 0.0
C956 C 0.28871 0.20381 0.65167 0.0
C957 C 0.28512 0.18251 0.65185 0.0
N958 N 0.26641 0.17809 0.65587 0.0
Co959 Co 0.25617 0.14892 0.66031 0.0
N960 N 0.28114 0.13439 0.65138 0.0
C961 C 0.29795 0.14414 0.64745 0.0
C962 C 0.3127 0.13045 0.64142 0.0
C963 C 0.30487 0.1107 0.64178 0.0
C964 C 0.28572 0.11339 0.64819 0.0
N965 N 0.24606 0.11985 0.6658 0.0
C966 C 0.25405 0.10014 0.66251 0.0
C967 C 0.24209 0.08445 0.67014 0.0
C968 C 0.226 0.09446 0.67811 0.0
C969 C 0.22904 0.11561 0.67516 0.0
N970 N 0.23073 0.16319 0.66829 0.0
C971 C 0.21496 0.15331 0.67554 0.0
C972 C 0.19949 0.1666 0.67973 0.0
C973 C 0.20586 0.1864 0.67546 0.0
C974 C 0.22505 0.1841 0.66886 0.0
N975 N 0.24729 0.14761 0.63018 0.0
C976 C 0.23693 0.14454 0.58656 0.0
C977 C 0.22417 0.13823 0.60259 0.0
C978 C 0.22966 0.13972 0.6242 0.0
C979 C 0.25477 0.15265 0.59302 0.0
C980 C 0.25951 0.1542 0.61458 0.0
N981 N 0.26612 0.15086 0.69009 0.0
C982 C 0.27288 0.17592 0.71818 0.0
C983 C 0.29176 0.1675 0.72046 0.0
C984 C 0.29613 0.14826 0.7102 0.0
C985 C 0.28268 0.13969 0.69589 0.0
C986 C 0.26027 0.16733 0.703 0.0
H987 H 0.28664 0.12494 0.68829 0.0
H988 H 0.24647 0.17527 0.70097 0.0
H989 H 0.21965 0.13434 0.63593 0.0
H990 H 0.27332 0.16071 0.61837 0.0
C991 C 0.29893 0.16623 0.64847 0.0
C992 C 0.23843 0.20196 0.66789 0.0
C993 C 0.27307 0.09544 0.65298 0.0
C994 C 0.21539 0.13162 0.67908 0.0
H995 H 0.26886 0.2305 0.65849 0.0
H996 H 0.30244 0.21132 0.64889 0.0
H997 H 0.3274 0.13436 0.63717 0.0
H998 H 0.31251 0.09594 0.6382 0.0
H999 H 0.24463 0.06746 0.67014 0.0
H1000 H 0.2134 0.08717 0.6849 0.0
H1001 H 0.18547 0.16248 0.68599 0.0
H1002 H 0.19743 0.20074 0.67828 0.0
H1003 H 0.21015 0.13185 0.59848 0.0
H1004 H 0.26502 0.15818 0.58144 0.0
H1005 H 0.26844 0.19011 0.72673 0.0
H1006 H 0.31018 0.14041 0.71245 0.0
C1007 C 0.37805 0.76738 0.18716 0.0
C1008 C 0.38345 0.75301 0.20287 0.0
C1009 C 0.39385 0.73695 0.1931 0.0
C1010 C 0.39413 0.74229 0.17198 0.0
N1011 N 0.38465 0.76073 0.16783 0.0
Co1012 Co 0.3799 0.77313 0.13909 0.0
N1013 N 0.38966 0.747 0.12401 0.0
C1014 C 0.39918 0.73053 0.13328 0.0
C1015 C 0.40501 0.71513 0.1191 0.0
C1016 C 0.39889 0.72236 0.09958 0.0
C1017 C 0.3896 0.74182 0.10293 0.0
N1018 N 0.37444 0.78566 0.11044 0.0
C1019 C 0.37441 0.7767 0.09077 0.0
C1020 C 0.36912 0.79153 0.07534 0.0
C1021 C 0.36657 0.81051 0.08547 0.0
C1022 C 0.37009 0.80625 0.10645 0.0
N1023 N 0.37149 0.79992 0.15383 0.0
C1024 C 0.36912 0.81911 0.14477 0.0
C1025 C 0.36439 0.83496 0.15889 0.0
C1026 C 0.36364 0.82518 0.17818 0.0
C1027 C 0.3679 0.80383 0.17463 0.0
N1028 N 0.40703 0.78358 0.13865 0.0
C1029 C 0.44783 0.78971 0.14189 0.0
C1030 C 0.4391 0.78356 0.12266 0.0
C1031 C 0.41879 0.7808 0.12132 0.0
C1032 C 0.43523 0.79445 0.15881 0.0
C1033 C 0.41517 0.79122 0.15693 0.0
N1034 N 0.35291 0.76143 0.14072 0.0
C1035 C 0.32509 0.75828 0.16401 0.0
C1036 C 0.32402 0.73643 0.15991 0.0
C1037 C 0.3354 0.72858 0.14313 0.0
C1038 C 0.34947 0.74119 0.13377 0.0
C1039 C 0.33903 0.77055 0.15365 0.0
H1040 H 0.3579 0.73371 0.12157 0.0
H1041 H 0.3388 0.7872 0.15711 0.0
H1042 H 0.41285 0.77545 0.10646 0.0
H1043 H 0.40642 0.79403 0.17077 0.0
C1044 C 0.40082 0.72935 0.1554 0.0
C1045 C 0.3673 0.78755 0.19111 0.0
C1046 C 0.38104 0.75494 0.08571 0.0
C1047 C 0.36857 0.82101 0.12283 0.0
H1048 H 0.38016 0.75396 0.21959 0.0
H1049 H 0.39984 0.72269 0.20042 0.0
H1050 H 0.41251 0.70022 0.12256 0.0
H1051 H 0.40099 0.71424 0.08461 0.0
H1052 H 0.3677 0.7891 0.05842 0.0
H1053 H 0.36255 0.82563 0.07836 0.0
H1054 H 0.36104 0.85147 0.15544 0.0
H1055 H 0.35991 0.83278 0.19305 0.0
H1056 H 0.44792 0.77989 0.10894 0.0
H1057 H 0.44084 0.80011 0.17383 0.0
H1058 H 0.31593 0.76585 0.1758 0.0
H1059 H 0.33405 0.71242 0.13759 0.0
C1060 C 0.75477 0.16842 0.3377 0.0
C1061 C 0.76781 0.16549 0.32125 0.0
C1062 C 0.78571 0.16174 0.33037 0.0
C1063 C 0.78266 0.16251 0.35184 0.0
N1064 N 0.76386 0.16604 0.35696 0.0
Co1065 Co 0.75427 0.17125 0.38648 0.0
N1066 N 0.77954 0.16202 0.40022 0.0
C1067 C 0.79623 0.15785 0.38984 0.0
C1068 C 0.81121 0.1514 0.40303 0.0
C1069 C 0.80359 0.15164 0.42307 0.0
C1070 C 0.78433 0.15844 0.4211 0.0
N1071 N 0.74482 0.17769 0.41588 0.0
C1072 C 0.75293 0.17391 0.43536 0.0
C1073 C 0.7416 0.18287 0.45137 0.0
C1074 C 0.72576 0.19215 0.44181 0.0
C1075 C 0.72833 0.18862 0.42059 0.0
N1076 N 0.7284 0.17932 0.37334 0.0
C1077 C 0.71323 0.18841 0.38363 0.0
C1078 C 0.69744 0.19291 0.37096 0.0
C1079 C 0.70292 0.18669 0.35117 0.0
C1080 C 0.72189 0.17862 0.35286 0.0
N1081 N 0.74584 0.14136 0.38859 0.0
C1082 C 0.73565 0.09793 0.391 0.0
C1083 C 0.72338 0.11426 0.39909 0.0
C1084 C 0.7287 0.13577 0.39769 0.0
C1085 C 0.75304 0.10412 0.38175 0.0
C1086 C 0.75776 0.12555 0.3807 0.0
N1087 N 0.76384 0.20091 0.38321 0.0
C1088 C 0.76624 0.23036 0.35876 0.0
C1089 C 0.78585 0.23345 0.36421 0.0
C1090 C 0.79292 0.22205 0.38197 0.0
C1091 C 0.78146 0.20658 0.39165 0.0
C1092 C 0.75573 0.21414 0.36813 0.0
H1093 H 0.78764 0.19848 0.4052 0.0
H1094 H 0.74137 0.21201 0.36196 0.0
H1095 H 0.71895 0.14781 0.404 0.0
H1096 H 0.77137 0.12908 0.37358 0.0
C1097 C 0.79683 0.15905 0.36767 0.0
C1098 C 0.73407 0.17425 0.33423 0.0
C1099 C 0.77154 0.1627 0.43954 0.0
C1100 C 0.71443 0.19301 0.40508 0.0
H1101 H 0.76475 0.16635 0.3044 0.0
H1102 H 0.79934 0.15887 0.32228 0.0
H1103 H 0.8259 0.14685 0.39861 0.0
H1104 H 0.81141 0.14756 0.4375 0.0
H1105 H 0.74442 0.18289 0.46826 0.0
H1106 H 0.71357 0.20008 0.44946 0.0
H1107 H 0.68381 0.20051 0.37545 0.0
H1108 H 0.69424 0.1892 0.33699 0.0
H1109 H 0.70967 0.11054 0.40632 0.0
H1110 H 0.76337 0.09243 0.37568 0.0
H1111 H 0.75894 0.23982 0.34669 0.0
H1112 H 0.80749 0.22416 0.388 0.0
C1113 C 0.35485 0.28081 0.87496 0.0
C1114 C 0.34044 0.26868 0.88366 0.0
C1115 C 0.34964 0.25452 0.89729 0.0
C1116 C 0.36914 0.25879 0.89621 0.0
N1117 N 0.37266 0.27475 0.88282 0.0
Co1118 Co 0.3988 0.28476 0.87497 0.0
N1119 N 0.41251 0.25856 0.88564 0.0
C1120 C 0.40468 0.24473 0.89923 0.0
C1121 C 0.41762 0.22895 0.90542 0.0
C1122 C 0.43475 0.23334 0.89549 0.0
C1123 C 0.43139 0.2516 0.88362 0.0
N1124 N 0.42484 0.29503 0.86637 0.0
C1125 C 0.44249 0.28481 0.86512 0.0
C1126 C 0.45655 0.29841 0.85784 0.0
C1127 C 0.4477 0.31791 0.85543 0.0
C1128 C 0.42872 0.31516 0.86099 0.0
N1129 N 0.3853 0.31125 0.86495 0.0
C1130 C 0.39375 0.32986 0.86118 0.0
C1131 C 0.3809 0.34521 0.85384 0.0
C1132 C 0.36327 0.33563 0.85275 0.0
C1133 C 0.36636 0.31489 0.85958 0.0
N1134 N 0.40207 0.29724 0.90364 0.0
C1135 C 0.40448 0.30421 0.94807 0.0
C1136 C 0.42072 0.29731 0.93628 0.0
C1137 C 0.41931 0.29432 0.91433 0.0
C1138 C 0.38728 0.30895 0.93656 0.0
C1139 C 0.38641 0.30546 0.91446 0.0
N1140 N 0.39471 0.27128 0.84707 0.0
C1141 C 0.38525 0.2738 0.81008 0.0
C1142 C 0.3777 0.25328 0.81072 0.0
C1143 C 0.38037 0.24152 0.82924 0.0
C1144 C 0.38899 0.25062 0.84697 0.0
C1145 C 0.39374 0.28256 0.82851 0.0
H1146 H 0.38955 0.24115 0.86106 0.0
H1147 H 0.39851 0.29874 0.82807 0.0
H1148 H 0.43202 0.28827 0.90634 0.0
H1149 H 0.37274 0.30846 0.90632 0.0
C1150 C 0.38465 0.24588 0.90385 0.0
C1151 C 0.35121 0.29896 0.8605 0.0
C1152 C 0.44705 0.26318 0.87293 0.0
C1153 C 0.41393 0.33068 0.85973 0.0
H1154 H 0.32497 0.26994 0.88045 0.0
H1155 H 0.34297 0.24194 0.90609 0.0
H1156 H 0.41491 0.21573 0.91582 0.0
H1157 H 0.44834 0.22449 0.89731 0.0
H1158 H 0.47178 0.29485 0.85504 0.0
H1159 H 0.4543 0.33234 0.85007 0.0
H1160 H 0.38419 0.361 0.84845 0.0
H1161 H 0.34986 0.34295 0.847 0.0
H1162 H 0.43441 0.2931 0.94392 0.0
H1163 H 0.37439 0.31492 0.94453 0.0
H1164 H 0.38375 0.28334 0.79587 0.0
H1165 H 0.37521 0.22545 0.8303 0.0
C1166 C 0.26578 0.82919 0.36682 0.0
C1167 C 0.28091 0.81429 0.36872 0.0
C1168 C 0.29656 0.82464 0.37686 0.0
C1169 C 0.29047 0.84538 0.37903 0.0
N1170 N 0.2719 0.84886 0.37283 0.0
Co1171 Co 0.25926 0.8775 0.36846 0.0
N1172 N 0.28354 0.89327 0.37552 0.0
C1173 C 0.3002 0.88433 0.38289 0.0
C1174 C 0.3143 0.89878 0.3873 0.0
C1175 C 0.30604 0.9182 0.38252 0.0
C1176 C 0.28727 0.91453 0.37545 0.0
N1177 N 0.24651 0.90599 0.36292 0.0
C1178 C 0.25393 0.92586 0.36181 0.0
C1179 C 0.23934 0.94101 0.35782 0.0
C1180 C 0.22225 0.93053 0.35685 0.0
C1181 C 0.22726 0.90965 0.36021 0.0
N1182 N 0.23446 0.86225 0.36313 0.0
C1183 C 0.21656 0.87134 0.3629 0.0
C1184 C 0.20183 0.8571 0.3624 0.0
C1185 C 0.21093 0.83762 0.36221 0.0
C1186 C 0.23079 0.84115 0.36219 0.0
N1187 N 0.25244 0.87918 0.39917 0.0
C1188 C 0.24821 0.88046 0.4442 0.0
C1189 C 0.2523 0.89872 0.43236 0.0
C1190 C 0.25408 0.89781 0.41019 0.0
C1191 C 0.24578 0.8616 0.43259 0.0
C1192 C 0.24795 0.8613 0.41033 0.0
N1193 N 0.26724 0.87483 0.33787 0.0
C1194 C 0.27097 0.8501 0.30839 0.0
C1195 C 0.28955 0.85755 0.30402 0.0
C1196 C 0.29515 0.87598 0.31466 0.0
C1197 C 0.28363 0.88464 0.33095 0.0
C1198 C 0.25994 0.85924 0.32497 0.0
H1199 H 0.28885 0.89869 0.3384 0.0
H1200 H 0.24598 0.8527 0.32768 0.0
H1201 H 0.25739 0.91226 0.40219 0.0
H1202 H 0.24632 0.84636 0.40227 0.0
C1203 C 0.30245 0.86231 0.38389 0.0
C1204 C 0.24567 0.82421 0.35976 0.0
C1205 C 0.27385 0.93163 0.36783 0.0
C1206 C 0.21421 0.89321 0.36128 0.0
H1207 H 0.28109 0.79778 0.36414 0.0
H1208 H 0.31102 0.81803 0.37971 0.0
H1209 H 0.32901 0.89555 0.39287 0.0
H1210 H 0.31312 0.9333 0.3837 0.0
H1211 H 0.24066 0.95804 0.35685 0.0
H1212 H 0.20782 0.93741 0.35455 0.0
H1213 H 0.18633 0.86047 0.3618 0.0
H1214 H 0.20373 0.82255 0.36176 0.0
H1215 H 0.25472 0.91377 0.44008 0.0
H1216 H 0.24222 0.84703 0.44054 0.0
H1217 H 0.26542 0.83652 0.29996 0.0
H1218 H 0.30878 0.88333 0.31096 0.0
C1219 C 0.66539 0.76599 0.83341 0.0
C1220 C 0.65987 0.75204 0.81762 0.0
C1221 C 0.64925 0.73661 0.82736 0.0
C1222 C 0.64884 0.74199 0.84853 0.0
N1223 N 0.65844 0.75985 0.85255 0.0
Co1224 Co 0.66352 0.77207 0.88102 0.0
N1225 N 0.65699 0.74545 0.89614 0.0
C1226 C 0.64685 0.72956 0.88744 0.0
C1227 C 0.64299 0.71381 0.90173 0.0
C1228 C 0.65084 0.72039 0.92067 0.0
C1229 C 0.65917 0.73983 0.91696 0.0
N1230 N 0.66944 0.78462 0.90938 0.0
C1231 C 0.67172 0.77546 0.92879 0.0
C1232 C 0.6763 0.7905 0.94408 0.0
C1233 C 0.67591 0.80975 0.93419 0.0
C1234 C 0.67148 0.80546 0.91343 0.0
N1235 N 0.66919 0.79904 0.86624 0.0
C1236 C 0.66962 0.81841 0.87519 0.0
C1237 C 0.67416 0.83407 0.86113 0.0
C1238 C 0.67692 0.82392 0.84216 0.0
C1239 C 0.67379 0.80253 0.84574 0.0
N1240 N 0.63562 0.78122 0.88334 0.0
C1241 C 0.59448 0.78752 0.88533 0.0
C1242 C 0.60569 0.78229 0.90343 0.0
C1243 C 0.62596 0.77921 0.90212 0.0
C1244 C 0.6046 0.79012 0.86627 0.0
C1245 C 0.62505 0.7872 0.86567 0.0
N1246 N 0.69098 0.76185 0.87763 0.0
C1247 C 0.72426 0.76843 0.86741 0.0
C1248 C 0.72723 0.74713 0.86095 0.0
C1249 C 0.712 0.7333 0.86456 0.0
C1250 C 0.69429 0.74084 0.87279 0.0
C1251 C 0.70618 0.77538 0.87589 0.0
H1252 H 0.68286 0.72962 0.87365 0.0
H1253 H 0.70423 0.79193 0.87997 0.0
H1254 H 0.63366 0.77454 0.91634 0.0
H1255 H 0.63223 0.78931 0.8507 0.0
C1256 C 0.64323 0.72897 0.8654 0.0
C1257 C 0.6759 0.7858 0.82974 0.0
C1258 C 0.6671 0.7534 0.934 0.0
C1259 C 0.67053 0.8204 0.89716 0.0
H1260 H 0.66321 0.75296 0.80091 0.0
H1261 H 0.6434 0.72258 0.82001 0.0
H1262 H 0.63553 0.69917 0.89871 0.0
H1263 H 0.65009 0.71208 0.93564 0.0
H1264 H 0.67901 0.788 0.96083 0.0
H1265 H 0.67863 0.82506 0.94129 0.0
H1266 H 0.67663 0.85062 0.86456 0.0
H1267 H 0.68133 0.83146 0.82767 0.0
H1268 H 0.59878 0.77998 0.91859 0.0
H1269 H 0.59681 0.79454 0.85189 0.0
H1270 H 0.73561 0.77983 0.86541 0.0
H1271 H 0.71317 0.71681 0.8598 0.0
H1272 H 0.19268 0.56012 0.25865 0.0
H1273 H 0.13085 0.57432 0.25591 0.0
H1274 H 0.12442 0.53595 0.25183 0.0
H1275 H 0.19281 0.51488 0.22047 0.0
H1276 H 0.21105 0.50007 0.23534 0.0
H1277 H 0.21076 0.52867 0.23586 0.0
H1278 H 0.20912 0.528 0.27685 0.0
H1279 H 0.20929 0.49944 0.27646 0.0
H1280 H 0.1899 0.51393 0.28951 0.0
H1281 H 0.12469 0.49534 0.25261 0.0
H1282 H 0.13158 0.4568 0.25606 0.0
H1283 H 0.19339 0.46833 0.25626 0.0
C1284 C 0.17783 0.55514 0.25654 0.0
C1285 C 0.16223 0.57031 0.25729 0.0
C1286 C 0.14299 0.5631 0.25504 0.0
C1287 C 0.13924 0.54128 0.25284 0.0
C1288 C 0.15489 0.52667 0.25273 0.0
C1289 C 0.17385 0.53335 0.25426 0.0
C1290 C 0.188 0.51436 0.25478 0.0
C1291 C 0.20145 0.51451 0.23546 0.0
C1292 C 0.19977 0.51391 0.27564 0.0
C1293 C 0.1741 0.49593 0.25362 0.0
C1294 C 0.15505 0.50338 0.25251 0.0
C1295 C 0.13959 0.48941 0.25296 0.0
C1296 C 0.14364 0.46744 0.25476 0.0
C1297 C 0.16303 0.45928 0.25582 0.0
C1298 C 0.17842 0.47391 0.25493 0.0
H1299 H 0.96685 0.63646 0.78021 0.0
H1300 H 0.95307 0.67752 0.72691 0.0
H1301 H 0.98801 0.67764 0.71743 0.0
H1302 H 1.01088 0.6616 0.79524 0.0
H1303 H 0.02364 0.63747 0.80292 0.0
H1304 H 0.99751 0.63924 0.80448 0.0
H1305 H 0.99485 0.60597 0.78065 0.0
H1306 H 1.02098 0.60406 0.77904 0.0
H1307 H 1.00647 0.6055 0.75513 0.0
H1308 H 0.02512 0.6748 0.71493 0.0
H1309 H 0.06051 0.66907 0.71903 0.0
H1310 H 0.05103 0.63041 0.77469 0.0
C1311 C 0.97119 0.64529 0.76639 0.0
C1312 C 0.95707 0.65704 0.75427 0.0
C1313 C 0.96345 0.66836 0.73636 0.0
C1314 C 0.98334 0.66855 0.73092 0.0
C1315 C 0.99691 0.65729 0.7435 0.0
C1316 C 0.99107 0.64577 0.76083 0.0
C1317 C 1.00868 0.63568 0.77219 0.0
C1318 C 1.01027 0.64399 0.79507 0.0
C1319 C 1.00768 0.61136 0.77172 0.0
C1320 C 0.02539 0.64339 0.75866 0.0
C1321 C 1.01822 0.6558 0.74216 0.0
C1322 C 0.03078 0.6651 0.72781 0.0
C1323 C 0.05102 0.66183 0.73039 0.0
C1324 C 0.05897 0.64935 0.74727 0.0
C1325 C 0.04571 0.63986 0.76145 0.0
H1326 H 0.87445 0.47342 0.27456 0.0
H1327 H 0.91704 0.45548 0.22692 0.0
H1328 H 0.91702 0.49273 0.21471 0.0
H1329 H 0.85311 0.52142 0.25773 0.0
H1330 H 0.85723 0.53547 0.28221 0.0
H1331 H 0.85469 0.5071 0.28243 0.0
H1332 H 0.88798 0.50268 0.30152 0.0
H1333 H 0.89063 0.53101 0.30151 0.0
H1334 H 0.90922 0.51406 0.29 0.0
H1335 H 0.90491 0.53433 0.20567 0.0
H1336 H 0.89814 0.57279 0.20993 0.0
H1337 H 0.8873 0.56229 0.27682 0.0
C1338 C 0.88441 0.4769 0.26196 0.0
C1339 C 0.89515 0.46052 0.25137 0.0
C1340 C 0.90735 0.46686 0.2345 0.0
C1341 C 0.90777 0.48827 0.22768 0.0
C1342 C 0.89747 0.50379 0.23918 0.0
C1343 C 0.88746 0.49828 0.2571 0.0
C1344 C 0.88272 0.51765 0.2706 0.0
C1345 C 0.86063 0.52057 0.2734 0.0
C1346 C 0.89328 0.51627 0.29218 0.0
C1347 C 0.89077 0.5351 0.25693 0.0
C1348 C 0.89779 0.52708 0.2381 0.0
C1349 C 0.90109 0.54069 0.22108 0.0
C1350 C 0.8977 0.5628 0.22382 0.0
C1351 C 0.89315 0.57165 0.24403 0.0
C1352 C 0.89035 0.55703 0.26087 0.0
H1353 H 0.07039 0.40518 0.73904 0.0
H1354 H 0.08422 0.33925 0.75405 0.0
H1355 H 0.04943 0.33181 0.75529 0.0
H1356 H 0.02842 0.40988 0.77372 0.0
H1357 H 1.01435 0.42663 0.7559 0.0
H1358 H 0.04053 0.42713 0.75557 0.0
H1359 H 0.04018 0.41849 0.71546 0.0
H1360 H 1.014 0.41795 0.71568 0.0
H1361 H 0.02786 0.39531 0.70612 0.0
H1362 H 1.01304 0.33094 0.7555 0.0
H1363 H 0.97764 0.33684 0.75502 0.0
H1364 H 0.98562 0.40331 0.74008 0.0
C1365 C 0.06616 0.38917 0.74264 0.0
C1366 C 0.08052 0.37276 0.74603 0.0
C1367 C 0.07394 0.3521 0.7507 0.0
C1368 C 0.05403 0.34768 0.75166 0.0
C1369 C 0.04041 0.36403 0.74807 0.0
C1370 C 0.04612 0.38441 0.7437 0.0
C1371 C 0.02821 0.399 0.74069 0.0
C1372 C 0.02786 0.41671 0.75747 0.0
C1373 C 0.02753 0.40823 0.71814 0.0
C1374 C 1.01166 0.38362 0.74408 0.0
C1375 C 1.01917 0.36354 0.74828 0.0
C1376 C 1.00702 0.34659 0.75206 0.0
C1377 C 0.98675 0.35012 0.75154 0.0
C1378 C 0.97836 0.37049 0.74719 0.0
C1379 C 0.99125 0.38749 0.7435 0.0
H1380 H 0.19222 0.46778 0.78299 0.0
H1381 H 0.13214 0.45011 0.78962 0.0
H1382 H 0.12252 0.48789 0.79428 0.0
H1383 H 0.1915 0.51428 0.81925 0.0
H1384 H 0.20659 0.52967 0.80219 0.0
H1385 H 0.20916 0.50114 0.80248 0.0
H1386 H 0.20333 0.50018 0.76188 0.0
H1387 H 0.20071 0.52866 0.76147 0.0
H1388 H 0.18161 0.51256 0.75089 0.0
H1389 H 0.11891 0.52836 0.79504 0.0
H1390 H 0.12156 0.56723 0.7908 0.0
H1391 H 0.18366 0.55948 0.78192 0.0
C1392 C 0.17712 0.47185 0.78607 0.0
C1393 C 0.16302 0.4557 0.78652 0.0
C1394 C 0.14332 0.46191 0.78983 0.0
C1395 C 0.1377 0.48346 0.79231 0.0
C1396 C 0.15185 0.49896 0.79123 0.0
C1397 C 0.17119 0.49342 0.78814 0.0
C1398 C 0.18324 0.51325 0.78563 0.0
C1399 C 0.19853 0.51467 0.80345 0.0
C1400 C 0.19279 0.51368 0.76367 0.0
C1401 C 0.16772 0.53081 0.78771 0.0
C1402 C 0.14972 0.52221 0.79113 0.0
C1403 C 0.13301 0.53519 0.79268 0.0
C1404 C 0.13465 0.55735 0.79042 0.0
C1405 C 0.15286 0.56663 0.78663 0.0
C1406 C 0.16961 0.55301 0.7854 0.0
H1407 H 0.98617 0.65453 0.31406 0.0
H1408 H 0.97654 0.61193 0.26099 0.0
H1409 H 1.01181 0.60854 0.25567 0.0
H1410 H 0.02649 0.68175 0.2912 0.0
H1411 H 0.03997 0.684 0.31571 0.0
H1412 H 1.01383 0.68281 0.31611 0.0
H1413 H 1.01622 0.65063 0.34146 0.0
H1414 H 0.04238 0.65171 0.34113 0.0
H1415 H 0.03052 0.62752 0.33393 0.0
H1416 H 0.04807 0.61088 0.25441 0.0
H1417 H 0.08309 0.6179 0.2583 0.0
H1418 H 0.07096 0.65807 0.31268 0.0
C1419 C 0.99146 0.64442 0.30137 0.0
C1420 C 0.97822 0.63326 0.28816 0.0
C1421 C 0.98606 0.62027 0.27175 0.0
C1422 C 1.00621 0.61835 0.26844 0.0
C1423 C 1.01875 0.62943 0.28167 0.0
C1424 C 1.01176 0.64214 0.29791 0.0
C1425 C 0.02867 0.65236 0.30968 0.0
C1426 C 0.02714 0.67668 0.30808 0.0
C1427 C 0.02949 0.64512 0.33294 0.0
C1428 C 0.04614 0.64357 0.29737 0.0
C1429 C 0.03994 0.63043 0.28122 0.0
C1430 C 0.05307 0.62099 0.26712 0.0
C1431 C 0.07298 0.62508 0.26944 0.0
C1432 C 0.0799 0.63835 0.28587 0.0
C1433 C 0.0662 0.6476 0.30015 0.0
H1434 H 0.86627 0.55353 0.79281 0.0
H1435 H 0.92647 0.56004 0.8127 0.0
H1436 H 0.93065 0.52124 0.81317 0.0
H1437 H 0.85735 0.50632 0.82594 0.0
H1438 H 0.84183 0.4944 0.80631 0.0
H1439 H 0.84317 0.52287 0.80803 0.0
H1440 H 0.8526 0.52445 0.76841 0.0
H1441 H 0.8513 0.49601 0.7666 0.0
H1442 H 0.87328 0.509 0.75924 0.0
H1443 H 0.92958 0.48155 0.80767 0.0
H1444 H 0.92245 0.44428 0.79918 0.0
H1445 H 0.8621 0.46208 0.78732 0.0
C1446 C 0.88025 0.54691 0.79769 0.0
C1447 C 0.8961 0.56033 0.80236 0.0
C1448 C 0.91415 0.55054 0.80841 0.0
C1449 C 0.91667 0.52833 0.80895 0.0
C1450 C 0.90095 0.5157 0.80382 0.0
C1451 C 0.88298 0.5246 0.79862 0.0
C1452 C 0.86857 0.50727 0.79353 0.0
C1453 C 0.85173 0.50775 0.8094 0.0
C1454 C 0.86099 0.50931 0.77058 0.0
C1455 C 0.88132 0.48733 0.79633 0.0
C1456 C 0.9 0.49262 0.80213 0.0
C1457 C 0.91486 0.4772 0.80374 0.0
C1458 C 0.91062 0.45594 0.79909 0.0
C1459 C 0.89156 0.44993 0.79334 0.0
C1460 C 0.87668 0.46598 0.79233 0.0
H1461 H 0.9865 0.36146 0.28127 0.0
H1462 H 0.97247 0.41834 0.31756 0.0
H1463 H 1.00736 0.42385 0.32378 0.0
H1464 H 0.0281 0.34394 0.31338 0.0
H1465 H 0.04212 0.33464 0.29105 0.0
H1466 H 1.01593 0.33455 0.28986 0.0
H1467 H 1.01628 0.35714 0.25564 0.0
H1468 H 0.04245 0.35724 0.25669 0.0
H1469 H 0.02875 0.38196 0.25571 0.0
H1470 H 0.04399 0.42423 0.32517 0.0
H1471 H 0.07951 0.41928 0.32171 0.0
H1472 H 0.07075 0.36231 0.28449 0.0
C1473 C 0.9907 0.37511 0.29051 0.0
C1474 C 0.97639 0.38933 0.29907 0.0
C1475 C 0.98283 0.40688 0.31116 0.0
C1476 C 1.00274 0.41026 0.31469 0.0
C1477 C 1.01635 0.396 0.30608 0.0
C1478 C 1.01064 0.37874 0.29426 0.0
C1479 C 0.02837 0.36602 0.28657 0.0
C1480 C 0.02864 0.34345 0.29577 0.0
C1481 C 0.02899 0.36557 0.2622 0.0
C1482 C 0.0449 0.37893 0.29577 0.0
C1483 C 0.03757 0.39616 0.30697 0.0
C1484 C 0.04986 0.41075 0.31648 0.0
C1485 C 0.07009 0.40783 0.31435 0.0
C1486 C 0.07812 0.3904 0.30285 0.0
C1487 C 0.0652 0.37564 0.29364 0.0
H1488 H 0.26019 0.13108 0.55326 0.0
H1489 H 0.20226 0.15578 0.56694 0.0
H1490 H 0.19476 0.15683 0.52847 0.0
H1491 H 0.26833 0.16178 0.50702 0.0
H1492 H 0.28105 0.14087 0.4929 0.0
H1493 H 0.28158 0.14135 0.52145 0.0
H1494 H 0.26826 0.10331 0.52236 0.0
H1495 H 0.26775 0.10268 0.49379 0.0
H1496 H 0.24596 0.09766 0.50845 0.0
H1497 H 0.19456 0.15779 0.48783 0.0
H1498 H 0.20068 0.15573 0.44922 0.0
H1499 H 0.25816 0.12876 0.46184 0.0
C1500 C 0.24587 0.13661 0.5482 0.0
C1501 C 0.23182 0.1434 0.56331 0.0
C1502 C 0.21322 0.15031 0.55585 0.0
C1503 C 0.20888 0.15108 0.53395 0.0
C1504 C 0.22316 0.1446 0.51952 0.0
C1505 C 0.2412 0.1372 0.52639 0.0
C1506 C 0.25399 0.1311 0.50766 0.0
C1507 C 0.27232 0.14458 0.50724 0.0
C1508 C 0.2593 0.10727 0.5081 0.0
C1509 C 0.24047 0.13649 0.48912 0.0
C1510 C 0.22278 0.14439 0.4963 0.0
C1511 C 0.20829 0.15138 0.48212 0.0
C1512 C 0.21192 0.15023 0.46017 0.0
C1513 C 0.22982 0.14191 0.45237 0.0
C1514 C 0.2442 0.13486 0.46721 0.0
H1515 H 0.40144 0.76705 0.96116 0.0
H1516 H 0.35545 0.72279 0.94939 0.0
H1517 H 0.35344 0.71579 0.98807 0.0
H1518 H 0.42457 0.7394 1.007 0.0
H1519 H 0.42938 0.76388 0.02067 0.0
H1520 H 0.42875 0.76321 0.99209 0.0
H1521 H 0.40262 0.79348 0.99183 0.0
H1522 H 0.40313 0.79422 0.02037 0.0
H1523 H 0.38048 0.79031 1.00647 0.0
H1524 H 0.35444 0.71647 0.029 0.0
H1525 H 0.35812 0.72492 0.06729 0.0
H1526 H 0.40318 0.7691 0.05242 0.0
C1527 C 0.39125 0.75552 0.96672 0.0
C1528 C 0.37862 0.74536 0.95219 0.0
C1529 C 0.36534 0.7306 0.96015 0.0
C1530 C 0.36408 0.72661 0.98214 0.0
C1531 C 0.37627 0.73746 0.99612 0.0
C1532 C 0.38968 0.75155 0.98864 0.0
C1533 C 0.40012 0.76236 1.00693 0.0
C1534 C 0.42201 0.75688 1.00665 0.0
C1535 C 0.39636 0.78652 1.00636 0.0
C1536 C 0.39039 0.7524 0.02592 0.0
C1537 C 0.37675 0.73795 0.01941 0.0
C1538 C 0.36525 0.72758 0.03417 0.0
C1539 C 0.36747 0.7324 0.05593 0.0
C1540 C 0.381 0.74753 0.06291 0.0
C1541 C 0.39287 0.75726 0.04761 0.0
H1542 H 0.7601 0.89357 0.4561 0.0
H1543 H 0.81436 0.86147 0.4401 0.0
H1544 H 0.82461 0.86268 0.4779 0.0
H1545 H 0.77937 0.92782 0.49896 0.0
H1546 H 0.75801 0.9251 0.51499 0.0
H1547 H 0.75606 0.92376 0.4865 0.0
H1548 H 0.74008 0.88716 0.48943 0.0
H1549 H 0.74211 0.88827 0.51789 0.0
H1550 H 0.75258 0.86604 0.50362 0.0
H1551 H 0.82754 0.86452 0.51835 0.0
H1552 H 0.82363 0.86803 0.55712 0.0
H1553 H 0.76711 0.89861 0.54722 0.0
C1554 C 0.77438 0.88735 0.46052 0.0
C1555 C 0.78663 0.87778 0.44502 0.0
C1556 C 0.80496 0.86929 0.45154 0.0
C1557 C 0.8108 0.86978 0.47304 0.0
C1558 C 0.79817 0.87882 0.488 0.0
C1559 C 0.78039 0.88763 0.48196 0.0
C1560 C 0.76903 0.89529 0.50126 0.0
C1561 C 0.76541 0.91943 0.50037 0.0
C1562 C 0.74982 0.88348 0.50316 0.0
C1563 C 0.78307 0.88925 0.51917 0.0
C1564 C 0.79981 0.87978 0.51117 0.0
C1565 C 0.81453 0.87208 0.52468 0.0
C1566 C 0.81212 0.87403 0.54679 0.0
C1567 C 0.7951 0.88366 0.5555 0.0
C1568 C 0.78047 0.89149 0.54127 0.0
H1569 H 0.69404 0.27078 0.05808 0.0
H1570 H 0.63329 0.27934 0.07404 0.0
H1571 H 0.62518 0.28464 0.03594 0.0
H1572 H 0.69495 0.30822 1.01289 0.0
H1573 H 0.71104 0.29128 0.99762 0.0
H1574 H 0.71222 0.29074 0.02619 0.0
H1575 H 0.70694 0.25022 0.02566 0.0
H1576 H 0.70572 0.25064 0.99713 0.0
H1577 H 0.68599 0.23999 1.01206 0.0
H1578 H 0.62339 0.28539 0.99497 0.0
H1579 H 0.62805 0.28173 0.95621 0.0
H1580 H 0.68997 0.27228 0.96638 0.0
C1581 C 0.67907 0.27422 0.05359 0.0
C1582 C 0.66428 0.2747 0.06926 0.0
C1583 C 0.64489 0.27906 0.06254 0.0
C1584 C 0.64016 0.28198 0.04083 0.0
C1585 C 0.65497 0.2806 0.02573 0.0
C1586 C 0.67409 0.27691 0.03191 0.0
C1587 C 0.68713 0.27472 1.01253 0.0
C1588 C 0.70223 0.29229 1.0123 0.0
C1589 C 0.69703 0.25258 1.01181 0.0
C1590 C 0.67245 0.27757 0.99443 0.0
C1591 C 0.65396 0.28106 1.00238 0.0
C1592 C 0.63788 0.28303 0.98871 0.0
C1593 C 0.64068 0.28111 0.96659 0.0
C1594 C 0.65943 0.27732 0.95797 0.0
C1595 C 0.67551 0.27577 0.97229 0.0
H1596 H 0.25606 0.84853 0.47451 0.0
H1597 H 0.23634 0.91439 0.46935 0.0
H1598 H 0.23599 0.91721 0.50813 0.0
H1599 H 0.22554 0.83658 0.52047 0.0
H1600 H 0.24357 0.81906 0.53245 0.0
H1601 H 0.2425 0.82196 0.50403 0.0
H1602 H 0.27867 0.83235 0.50388 0.0
H1603 H 0.27983 0.82955 0.53229 0.0
H1604 H 0.28644 0.85417 0.52015 0.0
H1605 H 0.24021 0.91405 0.54797 0.0
H1606 H 0.24627 0.90411 0.58538 0.0
H1607 H 0.25913 0.83933 0.56599 0.0
C1608 C 0.25137 0.86351 0.48138 0.0
C1609 C 0.24664 0.88135 0.46826 0.0
C1610 C 0.24074 0.90056 0.47849 0.0
C1611 C 0.24026 0.90232 0.50074 0.0
C1612 C 0.24532 0.88465 0.51303 0.0
C1613 C 0.25047 0.86549 0.50374 0.0
C1614 C 0.25506 0.8489 0.52078 0.0
C1615 C 0.24082 0.83054 0.51934 0.0
C1616 C 0.27626 0.84076 0.51917 0.0
C1617 C 0.25192 0.86181 0.54101 0.0
C1618 C 0.24647 0.88247 0.53611 0.0
C1619 C 0.24406 0.89779 0.55196 0.0
C1620 C 0.2474 0.89196 0.57326 0.0
C1621 C 0.25275 0.87083 0.57888 0.0
C1622 C 0.25475 0.85554 0.56236 0.0
H1623 H 0.64074 0.77245 0.05636 0.0
H1624 H 0.68858 0.72965 0.07293 0.0
H1625 H 0.69245 0.72012 0.03492 0.0
H1626 H 0.62087 0.74143 1.01127 0.0
H1627 H 0.61529 0.76493 0.99592 0.0
H1628 H 0.61477 0.76605 0.02448 0.0
H1629 H 0.6392 0.79666 0.02411 0.0
H1630 H 0.63984 0.79559 0.9956 0.0
H1631 H 0.6621 0.7929 1.01076 0.0
H1632 H 0.69323 0.71836 0.99397 0.0
H1633 H 0.69084 0.72462 0.95513 0.0
H1634 H 0.64255 0.76865 0.96523 0.0
C1635 C 0.65168 0.76063 0.05201 0.0
C1636 C 0.66429 0.75163 0.0677 0.0
C1637 C 0.67865 0.73655 0.06129 0.0
C1638 C 0.68098 0.73113 0.03968 0.0
C1639 C 0.66877 0.74086 0.0245 0.0
C1640 C 0.65429 0.75521 0.03047 0.0
C1641 C 0.64404 0.76469 1.01109 0.0
C1642 C 0.62246 0.75893 1.01067 0.0
C1643 C 0.64644 0.78889 1.01035 0.0
C1644 C 0.65509 0.75371 0.99321 0.0
C1645 C 0.66925 0.7399 1.00122 0.0
C1646 C 0.682 0.72894 0.98764 0.0
C1647 C 0.68051 0.73248 0.96555 0.0
C1648 C 0.66643 0.74694 0.95707 0.0
C1649 C 0.6533 0.75726 0.97119 0.0
H1650 H 0.75424 0.13988 0.56353 0.0
H1651 H 0.80209 0.18105 0.57769 0.0
H1652 H 0.80975 0.18278 0.53931 0.0
H1653 H 0.77672 0.1111 0.51816 0.0
H1654 H 0.75413 0.11037 0.5035 0.0
H1655 H 0.75396 0.11048 0.53209 0.0
H1656 H 0.73102 0.14365 0.53171 0.0
H1657 H 0.73112 0.14364 0.50317 0.0
H1658 H 0.73812 0.167 0.51756 0.0
H1659 H 0.80972 0.18312 0.49822 0.0
H1660 H 0.80234 0.18174 0.45971 0.0
H1661 H 0.75478 0.13988 0.47193 0.0
C1662 C 0.76664 0.14884 0.55858 0.0
C1663 C 0.77768 0.16024 0.5738 0.0
C1664 C 0.79356 0.17202 0.56651 0.0
C1665 C 0.79794 0.17315 0.54465 0.0
C1666 C 0.78638 0.16231 0.53 0.0
C1667 C 0.77111 0.15024 0.53676 0.0
C1668 C 0.76011 0.14121 0.51781 0.0
C1669 C 0.7613 0.11684 0.5179 0.0
C1670 C 0.73884 0.14936 0.51756 0.0
C1671 C 0.77136 0.1502 0.49929 0.0
C1672 C 0.78652 0.1623 0.50662 0.0
C1673 C 0.79812 0.17332 0.49244 0.0
C1674 C 0.79394 0.17229 0.47045 0.0
C1675 C 0.77833 0.16022 0.46249 0.0
C1676 C 0.76717 0.14876 0.47731 0.0
H1677 H 0.36829 0.28971 0.06893 0.0
H1678 H 0.42919 0.2907 0.08706 0.0
H1679 H 0.43769 0.30085 0.05063 0.0
H1680 H 0.37801 0.26275 0.02049 0.0
H1681 H 0.3585 0.2755 1.00566 0.0
H1682 H 0.35653 0.2724 0.03394 0.0
H1683 H 0.3505 0.31288 0.03805 0.0
H1684 H 0.35247 0.31613 1.00976 0.0
H1685 H 0.36782 0.33094 0.02741 0.0
H1686 H 0.43983 0.31009 1.01192 0.0
H1687 H 0.43653 0.3127 0.97329 0.0
H1688 H 0.37504 0.29911 0.97808 0.0
C1689 C 0.38336 0.29252 0.0653 0.0
C1690 C 0.39799 0.29005 0.08121 0.0
C1691 C 0.41761 0.29323 0.07554 0.0
C1692 C 0.42261 0.29886 0.05476 0.0
C1693 C 0.40793 0.30067 0.03942 0.0
C1694 C 0.38873 0.29721 0.0443 0.0
C1695 C 0.37623 0.29734 0.02421 0.0
C1696 C 0.36676 0.27571 0.02088 0.0
C1697 C 0.36084 0.3154 0.0249 0.0
C1698 C 0.39141 0.30141 1.00732 0.0
C1699 C 0.40948 0.30377 0.01659 0.0
C1700 C 0.42578 0.30791 1.00448 0.0
C1701 C 0.42374 0.30912 0.98233 0.0
C1702 C 0.40562 0.30554 0.97205 0.0
C1703 C 0.38916 0.30203 0.98503 0.0
H1704 H 0.57959 0.21404 0.15975 0.0
H1705 H 0.58889 0.26182 0.11181 0.0
H1706 H 0.55344 0.26616 0.10659 0.0
H1707 H 0.53613 0.19052 0.13381 0.0
H1708 H 0.5239 0.18619 0.15854 0.0
H1709 H 0.5501 0.18556 0.15769 0.0
H1710 H 0.551 0.21431 0.18697 0.0
H1711 H 0.52482 0.2152 0.18776 0.0
H1712 H 0.5379 0.23913 0.183 0.0
H1713 H 0.51752 0.26807 0.10863 0.0
H1714 H 0.48274 0.26556 0.11525 0.0
H1715 H 0.49447 0.21504 0.16082 0.0
C1716 C 0.57409 0.22498 0.14779 0.0
C1717 C 0.58709 0.2374 0.13589 0.0
C1718 C 0.57929 0.25198 0.12084 0.0
C1719 C 0.55913 0.25462 0.11785 0.0
C1720 C 0.5467 0.24255 0.13003 0.0
C1721 C 0.55376 0.22782 0.14454 0.0
C1722 C 0.53684 0.21744 0.15583 0.0
C1723 C 0.53674 0.1935 0.15119 0.0
C1724 C 0.5377 0.22178 0.17981 0.0
C1725 C 0.51931 0.22885 0.14555 0.0
C1726 C 0.52553 0.24328 0.13078 0.0
C1727 C 0.51246 0.25644 0.11977 0.0
C1728 C 0.49251 0.25467 0.12357 0.0
C1729 C 0.4853 0.23955 0.13807 0.0
C1730 C 0.49916 0.22663 0.14943 0.0
H1731 H 0.56503 0.77412 0.85754 0.0
H1732 H 0.57398 0.80798 0.91667 0.0
H1733 H 0.53853 0.81197 0.92096 0.0
H1734 H 0.52186 0.80518 0.83989 0.0
H1735 H 0.50971 0.78261 0.82888 0.0
H1736 H 0.53591 0.78296 0.82972 0.0
H1737 H 0.53677 0.74749 0.8503 0.0
H1738 H 0.5106 0.74704 0.84952 0.0
H1739 H 0.52333 0.74543 0.87459 0.0
H1740 H 0.50204 0.81177 0.91973 0.0
H1741 H 0.46708 0.80691 0.91342 0.0
H1742 H 0.48012 0.77284 0.85518 0.0
C1743 C 0.55954 0.78261 0.87125 0.0
C1744 C 0.57261 0.79066 0.88682 0.0
C1745 C 0.56456 0.80139 0.90463 0.0
C1746 C 0.54432 0.80386 0.90716 0.0
C1747 C 0.53192 0.79554 0.89179 0.0
C1748 C 0.53916 0.78512 0.87415 0.0
C1749 C 0.52239 0.77716 0.86042 0.0
C1750 C 0.52248 0.7876 0.83842 0.0
C1751 C 0.52333 0.75283 0.8586 0.0
C1752 C 0.50468 0.78465 0.87316 0.0
C1753 C 0.51066 0.79529 0.89116 0.0
C1754 C 0.49724 0.80343 0.90569 0.0
C1755 C 0.47729 0.80046 0.90199 0.0
C1756 C 0.47052 0.78933 0.88388 0.0
C1757 C 0.4846 0.78157 0.86911 0.0
H1758 H 0.74256 0.97375 0.35904 0.0
H1759 H 0.71461 0.9601 0.4187 0.0
H1760 H 0.711 0.9985 0.42591 0.0
H1761 H 0.76973 0.01738 0.37787 0.0
H1762 H 0.76714 0.03278 0.35392 0.0
H1763 H 0.76643 1.00427 0.3527 0.0
H1764 H 0.73287 1.00675 0.33385 0.0
H1765 H 0.73351 0.0353 0.33494 0.0
H1766 H 0.71324 0.02167 0.34603 0.0
H1767 H 0.71159 0.03895 0.42744 0.0
H1768 H 0.71698 0.07732 0.42342 0.0
H1769 H 0.74418 0.06512 0.36258 0.0
C1770 C 0.73536 0.97882 0.37345 0.0
C1771 C 0.72885 0.96365 0.38827 0.0
C1772 C 0.71988 0.97119 0.40712 0.0
C1773 C 0.71767 0.99307 0.41134 0.0
C1774 C 0.7245 1.00754 0.3966 0.0
C1775 C 0.73315 1.00071 0.378 0.0
C1776 C 0.73995 0.01957 0.36521 0.0
C1777 C 0.76213 0.01842 0.36226 0.0
C1778 C 0.72925 0.0209 0.34374 0.0
C1779 C 0.73397 0.038 0.37959 0.0
C1780 C 0.72496 0.03073 0.39756 0.0
C1781 C 0.71852 0.04477 0.41333 0.0
C1782 C 0.72154 0.06668 0.41082 0.0
C1783 C 0.73103 0.07464 0.39269 0.0
C1784 C 0.73708 0.05985 0.37681 0.0
H1785 H 0.47895 0.27961 0.89431 0.0
H1786 H 0.46271 0.2285 0.85228 0.0
H1787 H 0.49735 0.21678 0.85005 0.0
H1788 H 0.52275 0.2925 0.86763 0.0
H1789 H 0.53623 0.29853 0.89144 0.0
H1790 H 0.51016 0.30191 0.8909 0.0
H1791 H 0.50757 0.27722 0.92343 0.0
H1792 H 0.53366 0.27379 0.92411 0.0
H1793 H 0.51847 0.25094 0.9225 0.0
H1794 H 0.5345 0.21181 0.85094 0.0
H1795 H 0.5701 0.21328 0.85543 0.0
H1796 H 0.56284 0.2682 0.89646 0.0
C1797 C 0.4827 0.2658 0.88481 0.0
C1798 C 0.46799 0.25498 0.87339 0.0
C1799 C 0.47358 0.23701 0.86118 0.0
C1800 C 0.49329 0.2303 0.85978 0.0
C1801 C 0.50746 0.24164 0.87076 0.0
C1802 C 0.50237 0.25897 0.88315 0.0
C1803 C 0.52048 0.26879 0.89283 0.0
C1804 C 0.52252 0.2918 0.88525 0.0
C1805 C 0.52001 0.26761 0.91717 0.0
C1806 C 0.53659 0.25441 0.88391 0.0
C1807 C 0.52874 0.23883 0.87123 0.0
C1808 C 0.5407 0.22396 0.86088 0.0
C1809 C 0.56106 0.22504 0.86344 0.0
C1810 C 0.56968 0.24088 0.87627 0.0
C1811 C 0.557 0.25567 0.88673 0.0
H1812 H 0.27761 0.96307 0.33735 0.0
H1813 H 0.27901 0.95302 0.40523 0.0
H1814 H 0.28184 0.99175 0.41096 0.0
H1815 H 0.31189 1.00778 0.33652 0.0
H1816 H 0.29855 0.02161 0.31584 0.0
H1817 H 0.29832 0.99305 0.3171 0.0
H1818 H 0.26069 0.99443 0.31799 0.0
H1819 H 0.2608 0.02296 0.31678 0.0
H1820 H 0.24852 1.01001 0.33811 0.0
H1821 H 0.28087 0.03248 0.40927 0.0
H1822 H 0.27726 0.07062 0.40028 0.0
H1823 H 0.27853 0.05476 0.33346 0.0
C1824 C 0.27903 0.96902 0.35339 0.0
C1825 C 0.27842 0.95486 0.37087 0.0
C1826 C 0.27982 0.9634 0.39161 0.0
C1827 C 0.28132 0.98546 0.395 0.0
C1828 C 0.28156 0.99903 0.37748 0.0
C1829 C 0.28065 0.99108 0.35704 0.0
C1830 C 0.28032 1.00915 0.34098 0.0
C1831 C 0.29835 1.00781 0.32677 0.0
C1832 C 0.26146 1.00913 0.32768 0.0
C1833 C 0.2809 0.02849 0.3555 0.0
C1834 C 0.28155 0.02232 0.37652 0.0
C1835 C 0.28072 0.03739 0.39283 0.0
C1836 C 0.27881 0.05912 0.38759 0.0
C1837 C 0.27788 0.06591 0.36617 0.0
C1838 C 0.27948 0.05022 0.34999 0.0
H1839 H 0.56223 0.80355 0.11306 0.0
H1840 H 0.57467 0.78501 0.17818 0.0
H1841 H 0.53974 0.78165 0.18461 0.0
H1842 H 0.51795 0.83425 0.12429 0.0
H1843 H 0.50521 0.82589 0.10073 0.0
H1844 H 0.53136 0.82707 0.1008 0.0
H1845 H 0.53373 0.78769 0.0893 0.0
H1846 H 0.50758 0.78639 0.08921 0.0
H1847 H 0.52196 0.76789 0.10491 0.0
H1848 H 0.50365 0.77936 0.18442 0.0
H1849 H 0.4685 0.77906 0.17791 0.0
H1850 H 0.47746 0.79976 0.11309 0.0
C1851 C 0.55762 0.79876 0.12867 0.0
C1852 C 0.57154 0.79489 0.14519 0.0
C1853 C 0.5646 0.78865 0.16533 0.0
C1854 C 0.54466 0.78649 0.16914 0.0
C1855 C 0.53144 0.79055 0.15271 0.0
C1856 C 0.53753 0.7966 0.13285 0.0
C1857 C 0.51995 0.80004 0.11812 0.0
C1858 C 0.51854 0.82319 0.11054 0.0
C1859 C 0.52086 0.78458 0.09926 0.0
C1860 C 0.50315 0.79494 0.13284 0.0
C1861 C 0.51027 0.78947 0.15267 0.0
C1862 C 0.49791 0.78386 0.169 0.0
C1863 C 0.47777 0.78397 0.16513 0.0
C1864 C 0.46972 0.78983 0.14508 0.0
C1865 C 0.48284 0.79522 0.12865 0.0
H1866 H 0.76547 0.968 0.62991 0.0
H1867 H 0.71997 0.95091 0.67323 0.0
H1868 H 0.7089 0.98866 0.675 0.0
H1869 H 0.77799 1.01527 0.65639 0.0
H1870 H 0.78323 0.02993 0.63269 0.0
H1871 H 0.78599 1.00146 0.63286 0.0
H1872 H 0.76265 0.99895 0.60059 0.0
H1873 H 0.75987 0.02746 0.60024 0.0
H1874 H 0.73873 1.01121 0.60194 0.0
H1875 H 0.70437 0.02922 0.67393 0.0
H1876 H 0.70639 0.06802 0.67002 0.0
H1877 H 0.75611 0.05915 0.62873 0.0
C1878 C 0.75294 0.97218 0.63947 0.0
C1879 C 0.74354 0.95641 0.65145 0.0
C1880 C 0.7273 0.9626 0.66384 0.0
C1881 C 0.72099 0.98407 0.66499 0.0
C1882 C 0.73104 0.99933 0.65363 0.0
C1883 C 0.74664 0.9936 0.64101 0.0
C1884 C 0.75572 1.01314 0.63142 0.0
C1885 C 0.77699 1.01506 0.63878 0.0
C1886 C 0.75415 1.01266 0.6071 0.0
C1887 C 0.74293 0.03084 0.64069 0.0
C1888 C 0.7287 0.02253 0.65336 0.0
C1889 C 0.71547 0.03579 0.664 0.0
C1890 C 0.71685 0.05797 0.66179 0.0
C1891 C 0.73144 0.06707 0.6491 0.0
C1892 C 0.74454 0.05303 0.63831 0.0
H1893 H 0.25937 0.06099 0.63044 0.0
H1894 H 0.30288 0.07823 0.67698 0.0
H1895 H 0.3121 0.04029 0.68166 0.0
H1896 H 0.24332 0.01603 0.65796 0.0
H1897 H 0.23894 1.00013 0.63469 0.0
H1898 H 0.23737 0.02863 0.63302 0.0
H1899 H 0.26276 0.02805 0.60297 0.0
H1900 H 0.26431 0.99951 0.60441 0.0
H1901 H 0.28599 1.0148 0.60721 0.0
H1902 H 0.31492 0.9999 0.68322 0.0
H1903 H 0.31173 0.96108 0.68105 0.0
H1904 H 0.26526 0.96948 0.63457 0.0
C1905 C 0.27122 0.05676 0.64116 0.0
C1906 C 0.2807 0.07272 0.65303 0.0
C1907 C 0.29573 0.06644 0.66737 0.0
C1908 C 0.30094 0.04486 0.67024 0.0
C1909 C 0.29096 0.02951 0.65875 0.0
C1910 C 0.27645 0.0352 0.6444 0.0
C1911 C 0.26715 0.01553 0.63507 0.0
C1912 C 0.24541 1.01506 0.64051 0.0
C1913 C 0.27024 1.01441 0.61098 0.0
C1914 C 0.27857 0.99789 0.64646 0.0
C1915 C 0.29228 1.00631 0.66 0.0
C1916 C 0.30425 0.99321 0.6726 0.0
C1917 C 0.30219 0.97104 0.67137 0.0
C1918 C 0.2882 0.96183 0.65769 0.0
C1919 C 0.27632 0.9757 0.64502 0.0
H1920 H 0.17074 0.2983 0.31862 0.0
H1921 H 0.21137 0.31336 0.26916 0.0
H1922 H 0.23133 0.28129 0.2785 0.0
H1923 H 0.20646 0.2823 0.35649 0.0
H1924 H 0.1924 0.26146 0.36783 0.0
H1925 H 0.18027 0.28406 0.35572 0.0
H1926 H 0.1613 0.25927 0.33058 0.0
H1927 H 0.17313 0.23657 0.34286 0.0
H1928 H 0.17451 0.24018 0.31458 0.0
H1929 H 0.2477 0.24766 0.29484 0.0
H1930 H 0.25769 0.21538 0.31505 0.0
H1931 H 0.20786 0.22428 0.35585 0.0
C1932 C 0.18362 0.29453 0.30946 0.0
C1933 C 0.18943 0.30823 0.293 0.0
C1934 C 0.20652 0.30296 0.28161 0.0
C1935 C 0.21803 0.28486 0.28697 0.0
C1936 C 0.21235 0.27217 0.30391 0.0
C1937 C 0.19545 0.27677 0.3149 0.0
C1938 C 0.19299 0.26132 0.33312 0.0
C1939 C 0.19303 0.27298 0.35456 0.0
C1940 C 0.17438 0.24858 0.3301 0.0
C1941 C 0.21108 0.24721 0.33072 0.0
C1942 C 0.22204 0.25361 0.31371 0.0
C1943 C 0.23915 0.2426 0.30816 0.0
C1944 C 0.24483 0.22434 0.31982 0.0
C1945 C 0.23354 0.21718 0.33695 0.0
C1946 C 0.21677 0.22927 0.34277 0.0
H1947 H 0.29658 0.70965 0.86322 0.0
H1948 H 0.29802 0.76526 0.82293 0.0
H1949 H 0.27228 0.75021 0.80016 0.0
H1950 H 0.28994 0.67161 0.82223 0.0
H1951 H 0.27365 0.65542 0.83706 0.0
H1952 H 0.29146 0.67094 0.85078 0.0
H1953 H 0.26431 0.68928 0.87287 0.0
H1954 H 0.24643 0.67363 0.8594 0.0
H1955 H 0.24401 0.70216 0.85946 0.0
H1956 H 0.24739 0.72769 0.78038 0.0
H1957 H 0.22366 0.70168 0.76742 0.0
H1958 H 0.23797 0.6608 0.82072 0.0
C1959 C 0.29137 0.71881 0.84973 0.0
C1960 C 0.29942 0.73882 0.84503 0.0
C1961 C 0.29199 0.75016 0.82719 0.0
C1962 C 0.27746 0.74159 0.81401 0.0
C1963 C 0.27021 0.72165 0.81885 0.0
C1964 C 0.27673 0.71055 0.8365 0.0
C1965 C 0.26655 0.68945 0.83824 0.0
C1966 C 0.28128 0.67075 0.837 0.0
C1967 C 0.25462 0.68858 0.85871 0.0
C1968 C 0.2534 0.69023 0.81872 0.0
C1969 C 0.25583 0.70888 0.80766 0.0
C1970 C 0.24545 0.71305 0.78894 0.0
C1971 C 0.23212 0.69803 0.78153 0.0
C1972 C 0.22901 0.67896 0.79275 0.0
C1973 C 0.23995 0.67513 0.81164 0.0
H1974 H 0.84171 0.711 0.28444 0.0
H1975 H 0.89871 0.7362 0.29662 0.0
H1976 H 0.88343 0.768 0.31329 0.0
H1977 H 0.81536 0.76284 0.27485 0.0
H1978 H 0.79393 0.75414 0.28824 0.0
H1979 H 0.80932 0.73517 0.27453 0.0
H1980 H 0.81281 0.71314 0.30897 0.0
H1981 H 0.79778 0.73219 0.32296 0.0
H1982 H 0.82185 0.72552 0.33277 0.0
H1983 H 0.86194 0.79503 0.33246 0.0
H1984 H 0.83624 0.81645 0.34998 0.0
H1985 H 0.79285 0.77332 0.32624 0.0
C1986 C 0.85089 0.7237 0.2898 0.0
C1987 C 0.87141 0.7215 0.28854 0.0
C1988 C 0.883 0.73793 0.29663 0.0
C1989 C 0.87441 0.75592 0.30639 0.0
C1990 C 0.85416 0.75727 0.30803 0.0
C1991 C 0.84252 0.74171 0.29968 0.0
C1992 C 0.82124 0.74619 0.30482 0.0
C1993 C 0.80926 0.7498 0.28439 0.0
C1994 C 0.81294 0.72819 0.31817 0.0
C1995 C 0.82271 0.76654 0.31767 0.0
C1996 C 0.84183 0.77265 0.31931 0.0
C1997 C 0.84692 0.79045 0.3311 0.0
C1998 C 0.83217 0.80242 0.34123 0.0
C1999 C 0.81237 0.79669 0.33969 0.0
C2000 C 0.80772 0.7784 0.32764 0.0
H2001 H 0.80461 0.36101 0.82505 0.0
H2002 H 0.80409 0.32956 0.7639 0.0
H2003 H 0.7804 0.30409 0.77735 0.0
H2004 H 0.79929 0.31644 0.85831 0.0
H2005 H 0.78244 0.3291 0.87635 0.0
H2006 H 0.79961 0.34477 0.86219 0.0
H2007 H 0.77154 0.3683 0.84683 0.0
H2008 H 0.75431 0.35296 0.86126 0.0
H2009 H 0.75172 0.35602 0.83296 0.0
H2010 H 0.75997 0.27887 0.79955 0.0
H2011 H 0.73769 0.26215 0.82474 0.0
H2012 H 0.74673 0.31339 0.86936 0.0
C2013 C 0.79942 0.34887 0.8144 0.0
C2014 C 0.80693 0.34689 0.79352 0.0
C2015 C 0.79914 0.33113 0.78006 0.0
C2016 C 0.78565 0.31652 0.78761 0.0
C2017 C 0.77931 0.3183 0.80853 0.0
C2018 C 0.78533 0.33464 0.82145 0.0
C2019 C 0.77518 0.33392 0.8428 0.0
C2020 C 0.79002 0.33088 0.86098 0.0
C2021 C 0.76243 0.35399 0.84615 0.0
C2022 C 0.76283 0.31437 0.84005 0.0
C2023 C 0.76581 0.30529 0.82035 0.0
C2024 C 0.75712 0.28626 0.81475 0.0
C2025 C 0.74446 0.27681 0.82922 0.0
C2026 C 0.73988 0.28666 0.84884 0.0
C2027 C 0.74958 0.30557 0.85437 0.0
H2028 H 0.24797 0.75766 0.68966 0.0
H2029 H 0.21024 0.81353 0.69434 0.0
H2030 H 0.18751 0.79366 0.71641 0.0
H2031 H 0.20893 0.72062 0.68484 0.0
H2032 H 0.22123 0.69995 0.69985 0.0
H2033 H 0.23514 0.71888 0.68541 0.0
H2034 H 0.25361 0.72888 0.71993 0.0
H2035 H 0.23991 0.7096 0.73408 0.0
H2036 H 0.23994 0.73683 0.74298 0.0
H2037 H 0.16764 0.76718 0.73641 0.0
H2038 H 0.15182 0.73585 0.7514 0.0
H2039 H 0.20201 0.69674 0.73463 0.0
C2040 C 0.23502 0.76572 0.69553 0.0
C2041 C 0.23095 0.78725 0.6902 0.0
C2042 C 0.21366 0.79707 0.69801 0.0
C2043 C 0.20067 0.78592 0.7107 0.0
C2044 C 0.20496 0.76473 0.71552 0.0
C2045 C 0.22164 0.75465 0.70806 0.0
C2046 C 0.22214 0.7314 0.71462 0.0
C2047 C 0.22184 0.71686 0.69501 0.0
C2048 C 0.23995 0.72638 0.72877 0.0
C2049 C 0.20327 0.73008 0.72701 0.0
C2050 C 0.1936 0.74952 0.72736 0.0
C2051 C 0.1753 0.75198 0.73666 0.0
C2052 C 0.1665 0.73411 0.74549 0.0
C2053 C 0.176 0.71393 0.74526 0.0
C2054 C 0.1947 0.71209 0.73591 0.0
H2055 H 0.73192 0.72567 0.1923 0.0
H2056 H 0.76302 0.76602 0.149 0.0
H2057 H 0.7941 0.75212 0.16367 0.0
H2058 H 0.76564 0.72882 0.23675 0.0
H2059 H 0.76319 0.70142 0.24411 0.0
H2060 H 0.74324 0.71551 0.2313 0.0
H2061 H 0.7423 0.68677 0.20193 0.0
H2062 H 0.76221 0.67259 0.21468 0.0
H2063 H 0.76409 0.68041 0.1873 0.0
H2064 H 0.82205 0.7334 0.18259 0.0
H2065 H 0.8447 0.71049 0.20295 0.0
H2066 H 0.79593 0.67989 0.23245 0.0
C2067 C 0.74519 0.73157 0.18566 0.0
C2068 C 0.74469 0.74715 0.16929 0.0
C2069 C 0.76268 0.75449 0.16166 0.0
C2070 C 0.78052 0.74654 0.16985 0.0
C2071 C 0.78038 0.73112 0.18571 0.0
C2072 C 0.76318 0.72364 0.19351 0.0
C2073 C 0.76711 0.70646 0.21009 0.0
C2074 C 0.75933 0.71348 0.23185 0.0
C2075 C 0.75841 0.68531 0.20308 0.0
C2076 C 0.78923 0.70521 0.21019 0.0
C2077 C 0.79653 0.71978 0.19615 0.0
C2078 C 0.81645 0.7218 0.19344 0.0
C2079 C 0.82925 0.70845 0.20502 0.0
C2080 C 0.82232 0.6928 0.2191 0.0
C2081 C 0.80189 0.69152 0.22188 0.0
H2082 H 0.82197 0.24155 0.6685 0.0
H2083 H 0.77055 0.24716 0.70764 0.0
H2084 H 0.78809 0.27094 0.73209 0.0
H2085 H 0.85747 0.24118 0.71084 0.0
H2086 H 0.87464 0.25687 0.69668 0.0
H2087 H 0.85814 0.24026 0.68227 0.0
H2088 H 0.84545 0.27272 0.66063 0.0
H2089 H 0.86213 0.28932 0.67476 0.0
H2090 H 0.83651 0.29601 0.67444 0.0
H2091 H 0.8122 0.29336 0.75328 0.0
H2092 H 0.83827 0.31737 0.76548 0.0
H2093 H 0.87399 0.29679 0.71288 0.0
C2094 C 0.81434 0.24777 0.6822 0.0
C2095 C 0.79476 0.24228 0.68605 0.0
C2096 C 0.78539 0.25114 0.70409 0.0
C2097 C 0.79535 0.26453 0.71825 0.0
C2098 C 0.81475 0.26915 0.71421 0.0
C2099 C 0.82402 0.26129 0.6964 0.0
C2100 C 0.84467 0.26931 0.6952 0.0
C2101 C 0.85961 0.2508 0.69632 0.0
C2102 C 0.84734 0.28263 0.67506 0.0
C2103 C 0.8456 0.283 0.71504 0.0
C2104 C 0.82828 0.28252 0.72595 0.0
C2105 C 0.82565 0.29417 0.74462 0.0
C2106 C 0.84056 0.30761 0.75155 0.0
C2107 C 0.8579 0.30941 0.73988 0.0
C2108 C 0.86073 0.29608 0.72196 0.0
H2109 H 0.2508 0.32781 0.2532 0.0
H2110 H 0.24068 0.37881 0.20803 0.0
H2111 H 0.26553 0.36308 0.18453 0.0
H2112 H 0.30399 0.32325 0.24483 0.0
H2113 H 0.30476 0.29477 0.24745 0.0
H2114 H 0.28655 0.31032 0.26127 0.0
H2115 H 0.25972 0.28804 0.24368 0.0
H2116 H 0.27788 0.2727 0.22954 0.0
H2117 H 0.25847 0.28617 0.21517 0.0
H2118 H 0.29001 0.34156 0.16488 0.0
H2119 H 0.31622 0.31751 0.15202 0.0
H2120 H 0.3123 0.28002 0.20929 0.0
C2121 C 0.25417 0.33586 0.23858 0.0
C2122 C 0.24369 0.35462 0.23247 0.0
C2123 C 0.24837 0.36445 0.21303 0.0
C2124 C 0.26245 0.35557 0.19951 0.0
C2125 C 0.27199 0.33679 0.20554 0.0
C2126 C 0.26839 0.32716 0.22474 0.0
C2127 C 0.28109 0.30707 0.22717 0.0
C2128 C 0.29492 0.30897 0.24632 0.0
C2129 C 0.26854 0.28733 0.229 0.0
C2130 C 0.29224 0.30701 0.20633 0.0
C2131 C 0.28652 0.32427 0.1941 0.0
C2132 C 0.29461 0.32799 0.1743 0.0
C2133 C 0.30937 0.31414 0.16702 0.0
C2134 C 0.31602 0.29669 0.17939 0.0
C2135 C 0.30716 0.29293 0.19925 0.0
H2136 H 0.34352 0.23108 0.20648 0.0
H2137 H 0.39871 0.22143 0.239 0.0
H2138 H 0.38208 0.20277 0.26794 0.0
H2139 H 0.31298 0.23802 0.2548 0.0
H2140 H 0.29305 0.2239 0.24318 0.0
H2141 H 0.309 0.23867 0.22651 0.0
H2142 H 0.31596 0.20485 0.20427 0.0
H2143 H 0.30031 0.18984 0.22101 0.0
H2144 H 0.3252 0.18116 0.21722 0.0
H2145 H 0.35979 0.18198 0.2916 0.0
H2146 H 0.33364 0.16312 0.30949 0.0
H2147 H 0.29251 0.18547 0.2614 0.0
C2148 C 0.35195 0.22571 0.22012 0.0
C2149 C 0.37236 0.2284 0.22086 0.0
C2150 C 0.38302 0.22035 0.2385 0.0
C2151 C 0.37369 0.20947 0.25488 0.0
C2152 C 0.35362 0.20666 0.25344 0.0
C2153 C 0.34282 0.21481 0.23663 0.0
C2154 C 0.32162 0.20864 0.23832 0.0
C2155 C 0.30838 0.22849 0.24086 0.0
C2156 C 0.31541 0.19533 0.21906 0.0
C2157 C 0.32221 0.1954 0.25849 0.0
C2158 C 0.34082 0.1945 0.26695 0.0
C2159 C 0.34516 0.18271 0.28514 0.0
C2160 C 0.33016 0.17179 0.29509 0.0
C2161 C 0.31083 0.17251 0.28696 0.0
C2162 C 0.30696 0.1846 0.2683 0.0
H2163 H 0.3614 0.77814 0.78103 0.0
H2164 H 0.33035 0.80327 0.83558 0.0
H2165 H 0.30657 0.82076 0.81205 0.0
H2166 H 0.35505 0.82023 0.74705 0.0
H2167 H 0.34967 0.80568 0.72318 0.0
H2168 H 0.36395 0.79326 0.74397 0.0
H2169 H 0.33979 0.76254 0.74591 0.0
H2170 H 0.32558 0.77464 0.72481 0.0
H2171 H 0.31427 0.76846 0.74964 0.0
H2172 H 0.29201 0.84349 0.78292 0.0
H2173 H 0.28096 0.86101 0.75005 0.0
H2174 H 0.31316 0.81399 0.71332 0.0
C2175 C 0.3491 0.78629 0.78815 0.0
C2176 C 0.34803 0.78905 0.81055 0.0
C2177 C 0.33177 0.80069 0.81871 0.0
C2178 C 0.31812 0.81094 0.80539 0.0
C2179 C 0.3201 0.80881 0.78358 0.0
C2180 C 0.33456 0.79594 0.77493 0.0
C2181 C 0.33279 0.79624 0.75076 0.0
C2182 C 0.35148 0.80433 0.74066 0.0
C2183 C 0.32781 0.77415 0.74228 0.0
C2184 C 0.3158 0.81201 0.74741 0.0
C2185 C 0.3091 0.81945 0.76662 0.0
C2186 C 0.2961 0.83677 0.76775 0.0
C2187 C 0.28945 0.84642 0.74882 0.0
C2188 C 0.2947 0.83809 0.72871 0.0
C2189 C 0.30809 0.82042 0.72827 0.0
H2190 H 0.74283 0.83405 0.29159 0.0
H2191 H 0.69734 0.8801 0.30701 0.0
H2192 H 0.6772 0.86672 0.27742 0.0
H2193 H 0.7355 0.83843 0.23292 0.0
H2194 H 0.74109 0.81069 0.22854 0.0
H2195 H 0.75208 0.82437 0.25052 0.0
H2196 H 0.73884 0.79619 0.27606 0.0
H2197 H 0.72739 0.78274 0.25421 0.0
H2198 H 0.71309 0.79153 0.27653 0.0
H2199 H 0.66037 0.84563 0.2489 0.0
H2200 H 0.65092 0.82427 0.21767 0.0
H2201 H 0.70809 0.79393 0.21743 0.0
C2202 C 0.72885 0.84167 0.28831 0.0
C2203 C 0.7216 0.85813 0.30171 0.0
C2204 C 0.70319 0.86757 0.29696 0.0
C2205 C 0.69156 0.8599 0.28031 0.0
C2206 C 0.69868 0.84304 0.26803 0.0
C2207 C 0.71717 0.8345 0.27128 0.0
C2208 C 0.72145 0.81701 0.25509 0.0
C2209 C 0.73855 0.82298 0.24092 0.0
C2210 C 0.72543 0.7956 0.26614 0.0
C2211 C 0.7024 0.81682 0.24252 0.0
C2212 C 0.68936 0.83172 0.25061 0.0
C2213 C 0.67056 0.83413 0.24229 0.0
C2214 C 0.66521 0.82173 0.22471 0.0
C2215 C 0.67864 0.8073 0.21522 0.0
C2216 C 0.69742 0.80461 0.22451 0.0
H2217 H 0.71 0.16922 0.72941 0.0
H2218 H 0.75748 0.21195 0.72051 0.0
H2219 H 0.74599 0.23351 0.75121 0.0
H2220 H 0.6746 0.20945 0.7404 0.0
H2221 H 0.66159 0.19419 0.75956 0.0
H2222 H 0.67488 0.1809 0.73872 0.0
H2223 H 0.69452 0.1588 0.76648 0.0
H2224 H 0.68104 0.17175 0.78739 0.0
H2225 H 0.70722 0.17222 0.78752 0.0
H2226 H 0.72741 0.2517 0.78276 0.0
H2227 H 0.70561 0.26243 0.81244 0.0
H2228 H 0.66864 0.20979 0.79795 0.0
C2229 C 0.71825 0.18283 0.73427 0.0
C2230 C 0.7348 0.18878 0.72257 0.0
C2231 C 0.74495 0.20692 0.7293 0.0
C2232 C 0.73836 0.21938 0.74663 0.0
C2233 C 0.72141 0.21367 0.75716 0.0
C2234 C 0.71158 0.19569 0.75121 0.0
C2235 C 0.69319 0.19348 0.7642 0.0
C2236 C 0.67499 0.19457 0.74986 0.0
C2237 C 0.69405 0.17284 0.77716 0.0
C2238 C 0.69417 0.21286 0.77855 0.0
C2239 C 0.71059 0.22431 0.7744 0.0
C2240 C 0.71466 0.24261 0.78612 0.0
C2241 C 0.70219 0.24868 0.80295 0.0
C2242 C 0.68583 0.23658 0.80816 0.0
C2243 C 0.68136 0.21906 0.79493 0.0
H2244 H 0.8172 0.79997 0.66064 0.0
H2245 H 0.77638 0.82343 0.70735 0.0
H2246 H 0.79032 0.79806 0.73379 0.0
H2247 H 0.81868 0.74341 0.67838 0.0
H2248 H 0.84431 0.74049 0.67307 0.0
H2249 H 0.82941 0.75862 0.65752 0.0
H2250 H 0.85258 0.78896 0.66721 0.0
H2251 H 0.86732 0.77108 0.68317 0.0
H2252 H 0.85717 0.79503 0.69472 0.0
H2253 H 0.81173 0.77277 0.75636 0.0
H2254 H 0.83541 0.74688 0.77164 0.0
H2255 H 0.86252 0.7398 0.71004 0.0
C2256 C 0.81072 0.79912 0.6762 0.0
C2257 C 0.79548 0.81348 0.68193 0.0
C2258 C 0.78782 0.8124 0.70263 0.0
C2259 C 0.79581 0.79815 0.71776 0.0
C2260 C 0.81149 0.78492 0.71196 0.0
C2261 C 0.81861 0.785 0.69151 0.0
C2262 C 0.83611 0.76992 0.68955 0.0
C2263 C 0.83187 0.75205 0.67369 0.0
C2264 C 0.85437 0.78197 0.68329 0.0
C2265 C 0.83787 0.76147 0.71208 0.0
C2266 C 0.8236 0.77037 0.72481 0.0
C2267 C 0.82278 0.76553 0.74639 0.0
C2268 C 0.83648 0.75084 0.75501 0.0
C2269 C 0.85087 0.74081 0.74216 0.0
C2270 C 0.85158 0.74666 0.7204 0.0
H2271 H 0.74324 0.29551 0.20185 0.0
H2272 H 0.76452 0.30615 0.1382 0.0
H2273 H 0.78803 0.33154 0.15258 0.0
H2274 H 0.74776 0.34884 0.22116 0.0
H2275 H 0.75574 0.34082 0.2473 0.0
H2276 H 0.74019 0.32394 0.23197 0.0
H2277 H 0.76528 0.29287 0.23587 0.0
H2278 H 0.78086 0.30961 0.25131 0.0
H2279 H 0.79007 0.29657 0.22787 0.0
H2280 H 0.80998 0.35564 0.17434 0.0
H2281 H 0.8291 0.37468 0.20124 0.0
H2282 H 0.79367 0.34815 0.25082 0.0
C2283 C 0.75295 0.3029 0.19083 0.0
C2284 C 0.75182 0.29856 0.16871 0.0
C2285 C 0.7647 0.30919 0.15509 0.0
C2286 C 0.77825 0.32365 0.16316 0.0
C2287 C 0.7789 0.32747 0.18498 0.0
C2288 C 0.76662 0.31729 0.19863 0.0
C2289 C 0.77048 0.32383 0.22149 0.0
C2290 C 0.75247 0.33502 0.23104 0.0
C2291 C 0.77707 0.30457 0.23492 0.0
C2292 C 0.78693 0.3392 0.21863 0.0
C2293 C 0.7915 0.34118 0.19744 0.0
C2294 C 0.8064 0.35425 0.19095 0.0
C2295 C 0.8171 0.36524 0.20644 0.0
C2296 C 0.81302 0.36322 0.22838 0.0
C2297 C 0.79745 0.35011 0.23433 0.0
H2298 H 0.17425 0.30095 0.71247 0.0
H2299 H 0.21806 0.30906 0.76132 0.0
H2300 H 0.23654 0.27779 0.74732 0.0
H2301 H 0.1768 0.2428 0.70858 0.0
H2302 H 0.17401 0.24294 0.68014 0.0
H2303 H 0.1633 0.26409 0.69574 0.0
H2304 H 0.18164 0.29155 0.67346 0.0
H2305 H 0.19262 0.27049 0.65798 0.0
H2306 H 0.20773 0.28931 0.67145 0.0
H2307 H 0.25107 0.24618 0.72633 0.0
H2308 H 0.25952 0.21693 0.70163 0.0
H2309 H 0.20815 0.23213 0.66396 0.0
C2310 C 0.18754 0.29583 0.72048 0.0
C2311 C 0.19468 0.30739 0.73811 0.0
C2312 C 0.21222 0.30033 0.74799 0.0
C2313 C 0.22288 0.28269 0.73998 0.0
C2314 C 0.21592 0.27228 0.72192 0.0
C2315 C 0.19859 0.27861 0.71233 0.0
C2316 C 0.19489 0.26575 0.69232 0.0
C2317 C 0.17614 0.25315 0.69432 0.0
C2318 C 0.19418 0.28013 0.67264 0.0
C2319 C 0.21274 0.25106 0.69213 0.0
C2320 C 0.22462 0.25494 0.70944 0.0
C2321 C 0.24175 0.24303 0.71283 0.0
C2322 C 0.24648 0.22641 0.69866 0.0
C2323 C 0.23428 0.22167 0.68111 0.0
C2324 C 0.21756 0.23484 0.6775 0.0
H2325 H 0.23832 0.69972 0.23857 0.0
H2326 H 0.26427 0.63636 0.2358 0.0
H2327 H 0.28983 0.64948 0.21226 0.0
H2328 H 0.24685 0.71311 0.18404 0.0
H2329 H 0.25218 0.74048 0.18935 0.0
H2330 H 0.23623 0.72643 0.20663 0.0
H2331 H 0.25806 0.73564 0.23883 0.0
H2332 H 0.27406 0.74974 0.22164 0.0
H2333 H 0.28362 0.72867 0.23828 0.0
H2334 H 0.31301 0.66947 0.18957 0.0
H2335 H 0.33151 0.69412 0.16821 0.0
H2336 H 0.28986 0.74484 0.18331 0.0
C2337 C 0.24952 0.68865 0.23321 0.0
C2338 C 0.24924 0.66691 0.23921 0.0
C2339 C 0.264 0.65296 0.23143 0.0
C2340 C 0.27867 0.66033 0.21809 0.0
C2341 C 0.27844 0.68173 0.21241 0.0
C2342 C 0.26422 0.69572 0.21964 0.0
C2343 C 0.2671 0.71783 0.21057 0.0
C2344 C 0.24954 0.72487 0.19683 0.0
C2345 C 0.27094 0.73392 0.22839 0.0
C2346 C 0.28516 0.71407 0.19711 0.0
C2347 C 0.29146 0.69314 0.19859 0.0
C2348 C 0.308 0.68581 0.18806 0.0
C2349 C 0.31834 0.70007 0.17563 0.0
C2350 C 0.31214 0.72165 0.17328 0.0
C2351 C 0.29523 0.72861 0.18445 0.0
H2352 H 0.87827 0.30536 0.33467 0.0
H2353 H 0.84793 0.32058 0.27588 0.0
H2354 H 0.82245 0.29549 0.28496 0.0
H2355 H 0.86426 0.24999 0.33967 0.0
H2356 H 0.86038 0.25175 0.36786 0.0
H2357 H 0.87788 0.26843 0.35545 0.0
H2358 H 0.8604 0.30172 0.37096 0.0
H2359 H 0.84282 0.28518 0.38338 0.0
H2360 H 0.83483 0.30614 0.3657 0.0
H2361 H 0.79962 0.26949 0.30083 0.0
H2362 H 0.78016 0.24624 0.32241 0.0
H2363 H 0.82167 0.25246 0.37451 0.0
C2364 C 0.86613 0.30368 0.32382 0.0
C2365 C 0.86494 0.3157 0.30478 0.0
C2366 C 0.84923 0.31196 0.29065 0.0
C2367 C 0.8346 0.29768 0.2957 0.0
C2368 C 0.8356 0.2872 0.31515 0.0
C2369 C 0.8509 0.29008 0.32908 0.0
C2370 C 0.84753 0.27823 0.34974 0.0
C2371 C 0.86346 0.26108 0.35339 0.0
C2372 C 0.84632 0.29374 0.36856 0.0
C2373 C 0.82791 0.26833 0.34524 0.0
C2374 C 0.82157 0.27343 0.32501 0.0
C2375 C 0.80427 0.26574 0.31686 0.0
C2376 C 0.79304 0.25266 0.32964 0.0
C2377 C 0.79856 0.24764 0.35093 0.0
C2378 C 0.81653 0.25569 0.35858 0.0
H2379 H 0.25416 0.36443 0.8252 0.0
H2380 H 0.25674 0.33085 0.76516 0.0
H2381 H 0.28512 0.30976 0.77834 0.0
H2382 H 0.30629 0.36697 0.83339 0.0
H2383 H 0.30491 0.36345 0.86169 0.0
H2384 H 0.28482 0.37572 0.84745 0.0
H2385 H 0.2618 0.34778 0.86273 0.0
H2386 H 0.2819 0.33528 0.8768 0.0
H2387 H 0.26733 0.31996 0.8588 0.0
H2388 H 0.31365 0.2916 0.79867 0.0
H2389 H 0.34095 0.28103 0.8227 0.0
H2390 H 0.32006 0.3262 0.8695 0.0
C2391 C 0.26065 0.35264 0.81477 0.0
C2392 C 0.25301 0.34951 0.79396 0.0
C2393 C 0.26229 0.33396 0.78096 0.0
C2394 C 0.27838 0.32168 0.78843 0.0
C2395 C 0.28534 0.32503 0.80904 0.0
C2396 C 0.27687 0.34034 0.82194 0.0
C2397 C 0.28748 0.34126 0.84324 0.0
C2398 C 0.2964 0.36315 0.84663 0.0
C2399 C 0.27381 0.33574 0.86147 0.0
C2400 C 0.30322 0.32409 0.84039 0.0
C2401 C 0.30167 0.31478 0.82059 0.0
C2402 C 0.31487 0.29882 0.8142 0.0
C2403 C 0.33028 0.29274 0.82803 0.0
C2404 C 0.33253 0.30249 0.84812 0.0
C2405 C 0.31853 0.31813 0.85443 0.0
H2406 H 0.22173 0.81547 0.32517 0.0
H2407 H 0.25343 0.78412 0.37645 0.0
H2408 H 0.2431 0.74949 0.36292 0.0
H2409 H 0.1801 0.78286 0.33349 0.0
H2410 H 0.17254 0.78292 0.30604 0.0
H2411 H 0.1857 0.80495 0.31669 0.0
H2412 H 0.21151 0.79996 0.28736 0.0
H2413 H 0.19853 0.77775 0.27676 0.0
H2414 H 0.22377 0.77455 0.28428 0.0
H2415 H 0.23012 0.71801 0.34296 0.0
H2416 H 0.20966 0.69246 0.32494 0.0
H2417 H 0.17794 0.74413 0.29344 0.0
C2418 C 0.22677 0.8013 0.33341 0.0
C2419 C 0.23969 0.80273 0.35117 0.0
C2420 C 0.24504 0.78368 0.36187 0.0
C2421 C 0.23886 0.76383 0.3545 0.0
C2422 C 0.22631 0.7631 0.337 0.0
C2423 C 0.21966 0.78139 0.32712 0.0
C2424 C 0.20366 0.77635 0.31103 0.0
C2425 C 0.18435 0.78742 0.31718 0.0
C2426 C 0.20974 0.78252 0.28852 0.0
C2427 C 0.20255 0.75229 0.31324 0.0
C2428 C 0.2163 0.74508 0.3278 0.0
C2429 C 0.21904 0.72357 0.33187 0.0
C2430 C 0.20715 0.70908 0.32138 0.0
C2431 C 0.19178 0.71579 0.30744 0.0
C2432 C 0.18967 0.73797 0.30333 0.0
H2433 H 0.80963 0.66227 0.822 0.0
H2434 H 0.82881 0.70928 0.77752 0.0
H2435 H 0.80243 0.73406 0.78938 0.0
H2436 H 0.75668 0.67502 0.81731 0.0
H2437 H 0.75264 0.67039 0.8451 0.0
H2438 H 0.77182 0.65604 0.83155 0.0
H2439 H 0.7966 0.66932 0.85939 0.0
H2440 H 0.77759 0.68402 0.87282 0.0
H2441 H 0.79882 0.69742 0.86377 0.0
H2442 H 0.77562 0.75513 0.80922 0.0
H2443 H 0.74873 0.76878 0.8315 0.0
H2444 H 0.74663 0.70776 0.86303 0.0
C2445 C 0.80785 0.67754 0.81431 0.0
C2446 C 0.82121 0.68384 0.79865 0.0
C2447 C 0.81867 0.70413 0.78935 0.0
C2448 C 0.80379 0.71833 0.79615 0.0
C2449 C 0.79137 0.71201 0.81228 0.0
C2450 C 0.79303 0.69191 0.82096 0.0
C2451 C 0.77822 0.68921 0.8385 0.0
C2452 C 0.764 0.67162 0.83277 0.0
C2453 C 0.78842 0.68473 0.85988 0.0
C2454 C 0.76804 0.71093 0.8385 0.0
C2455 C 0.7759 0.72392 0.82335 0.0
C2456 C 0.76927 0.74492 0.82093 0.0
C2457 C 0.75399 0.75264 0.83385 0.0
C2458 C 0.74513 0.73945 0.84904 0.0
C2459 C 0.75264 0.71833 0.85142 0.0
H2460 H 0.71038 0.85822 0.73412 0.0
H2461 H 0.76869 0.83216 0.74433 0.0
H2462 H 0.75599 0.80769 0.77112 0.0
H2463 H 0.69558 0.85599 0.78882 0.0
H2464 H 0.67091 0.84931 0.78232 0.0
H2465 H 0.68481 0.86459 0.76402 0.0
H2466 H 0.67817 0.83681 0.73465 0.0
H2467 H 0.66456 0.82125 0.75302 0.0
H2468 H 0.68488 0.80936 0.73915 0.0
H2469 H 0.73641 0.7853 0.79698 0.0
H2470 H 0.71275 0.771 0.82247 0.0
H2471 H 0.66732 0.81114 0.79508 0.0
C2472 C 0.72056 0.84733 0.74184 0.0
C2473 C 0.74065 0.84712 0.73664 0.0
C2474 C 0.75331 0.83285 0.74779 0.0
C2475 C 0.74617 0.81868 0.763 0.0
C2476 C 0.72625 0.81891 0.76718 0.0
C2477 C 0.71368 0.83313 0.75713 0.0
C2478 C 0.69301 0.83078 0.76501 0.0
C2479 C 0.68565 0.85139 0.77568 0.0
C2480 C 0.67935 0.82416 0.74687 0.0
C2481 C 0.69583 0.81301 0.78108 0.0
C2482 C 0.7151 0.80624 0.78202 0.0
C2483 C 0.72131 0.79052 0.79632 0.0
C2484 C 0.70776 0.78231 0.81062 0.0
C2485 C 0.68821 0.78978 0.81066 0.0
C2486 C 0.68209 0.8048 0.79514 0.0
H2487 H 0.74294 0.20552 0.30469 0.0
H2488 H 0.70503 0.15267 0.31479 0.0
H2489 H 0.68596 0.16286 0.2828 0.0
H2490 H 0.70753 0.24275 0.28541 0.0
H2491 H 0.72238 0.25388 0.26503 0.0
H2492 H 0.73363 0.24239 0.28839 0.0
H2493 H 0.75453 0.21702 0.26515 0.0
H2494 H 0.74366 0.22877 0.24171 0.0
H2495 H 0.74281 0.2005 0.24575 0.0
H2496 H 0.66878 0.181 0.25189 0.0
H2497 H 0.65893 0.20081 0.21954 0.0
H2498 H 0.70944 0.24006 0.2263 0.0
C2499 C 0.73093 0.1958 0.29981 0.0
C2500 C 0.72546 0.17822 0.31236 0.0
C2501 C 0.70953 0.16607 0.30547 0.0
C2502 C 0.69849 0.1719 0.2874 0.0
C2503 C 0.70374 0.18972 0.27587 0.0
C2504 C 0.71995 0.20112 0.28136 0.0
C2505 C 0.72271 0.21915 0.2656 0.0
C2506 C 0.72149 0.24083 0.27678 0.0
C2507 C 0.74208 0.21618 0.25385 0.0
C2508 C 0.7054 0.21627 0.25063 0.0
C2509 C 0.69447 0.19941 0.25716 0.0
C2510 C 0.67742 0.19402 0.24648 0.0
C2511 C 0.6718 0.2055 0.22821 0.0
C2512 C 0.68333 0.22199 0.22029 0.0
C2513 C 0.70021 0.22766 0.23199 0.0
H2514 H 0.2914 0.18591 0.76042 0.0
H2515 H 0.32679 0.17789 0.70431 0.0
H2516 H 0.35158 0.20111 0.72001 0.0
H2517 H 0.30236 0.24054 0.77134 0.0
H2518 H 0.30359 0.23718 0.7997 0.0
H2519 H 0.28826 0.22045 0.78391 0.0
H2520 H 0.30574 0.18693 0.79931 0.0
H2521 H 0.32091 0.20356 0.81536 0.0
H2522 H 0.33185 0.18433 0.79764 0.0
H2523 H 0.37234 0.22633 0.74167 0.0
H2524 H 0.38916 0.24719 0.76946 0.0
H2525 H 0.34118 0.23724 0.81208 0.0
C2526 C 0.30442 0.18899 0.75152 0.0
C2527 C 0.30721 0.17997 0.73117 0.0
C2528 C 0.32448 0.18435 0.72004 0.0
C2529 C 0.33855 0.19771 0.72875 0.0
C2530 C 0.33533 0.20648 0.74877 0.0
C2531 C 0.31883 0.20201 0.76018 0.0
C2532 C 0.31939 0.21256 0.78183 0.0
C2533 C 0.30239 0.22864 0.78433 0.0
C2534 C 0.31948 0.19585 0.79958 0.0
C2535 C 0.3387 0.22366 0.78079 0.0
C2536 C 0.34756 0.22027 0.76147 0.0
C2537 C 0.36554 0.22901 0.75688 0.0
C2538 C 0.37494 0.24097 0.77266 0.0
C2539 C 0.36649 0.24382 0.79287 0.0
C2540 C 0.34798 0.23531 0.79675 0.0
H2541 H 0.28314 0.83871 0.26436 0.0
H2542 H 0.328 0.84905 0.31179 0.0
H2543 H 0.35181 0.8296 0.28963 0.0
H2544 H 0.3 0.78546 0.24788 0.0
H2545 H 0.29462 0.78988 0.2202 0.0
H2546 H 0.28051 0.80356 0.24019 0.0
H2547 H 0.28868 0.83972 0.22339 0.0
H2548 H 0.30261 0.8261 0.20326 0.0
H2549 H 0.31377 0.84618 0.21933 0.0
H2550 H 0.37141 0.80983 0.26187 0.0
H2551 H 0.3855 0.79378 0.22937 0.0
H2552 H 0.32871 0.79647 0.19921 0.0
C2553 C 0.29793 0.83672 0.27015 0.0
C2554 C 0.30361 0.84561 0.28992 0.0
C2555 C 0.32324 0.84275 0.29667 0.0
C2556 C 0.3369 0.83151 0.28424 0.0
C2557 C 0.33091 0.8231 0.26487 0.0
C2558 C 0.31192 0.82567 0.25773 0.0
C2559 C 0.30966 0.81599 0.23571 0.0
C2560 C 0.29534 0.79764 0.23602 0.0
C2561 C 0.3033 0.83301 0.21947 0.0
C2562 C 0.33032 0.80784 0.23156 0.0
C2563 C 0.34228 0.81185 0.24874 0.0
C2564 C 0.3621 0.8064 0.24843 0.0
C2565 C 0.36999 0.79708 0.22999 0.0
C2566 C 0.35815 0.79327 0.21199 0.0
C2567 C 0.33801 0.79861 0.21296 0.0
loop_
_geom_bond_atom_site_label_1
_geom_bond_atom_site_label_2
_geom_bond_distance
_geom_bond_site_symmetry_2
_ccdc_geom_bond_type
C0 C1 1.443 . S
C0 N4 1.376 . S
C0 C38 1.389 . S
C1 C0 1.443 . S
C1 C2 1.340 . S
C1 H41 0.951 . S
C2 C1 1.340 . S
C2 C3 1.439 . S
C2 H42 0.950 . S
C3 C2 1.439 . S
C3 N4 1.374 . S
C3 C37 1.395 . S
N4 C0 1.376 . S
N4 C3 1.374 . S
N4 Co5 2.008 . S
Co5 N4 2.008 . S
Co5 N6 1.995 . S
Co5 N11 2.008 . S
Co5 N16 1.995 . S
Co5 N21 2.282 . S
Co5 N27 2.282 . S
N6 Co5 1.995 . S
N6 C7 1.376 . S
N6 C10 1.383 . S
C7 N6 1.376 . S
C7 C8 1.446 . S
C7 C37 1.391 . S
C8 C7 1.446 . S
C8 C9 1.339 . S
C8 H43 0.949 . S
C9 C8 1.339 . S
C9 C10 1.439 . S
C9 H44 0.950 . S
C10 N6 1.383 . S
C10 C9 1.439 . S
C10 C39 1.392 . S
N11 Co5 2.008 . S
N11 C12 1.376 . S
N11 C15 1.374 . S
C12 N11 1.376 . S
C12 C13 1.443 . S
C12 C39 1.389 . S
C13 C12 1.443 . S
C13 C14 1.340 . S
C13 H45 0.951 . S
C14 C13 1.340 . S
C14 C15 1.439 . S
C14 H46 0.950 . S
C15 N11 1.374 . S
C15 C14 1.439 . S
C15 C40 1.395 . S
N16 Co5 1.995 . S
N16 C17 1.376 . S
N16 C20 1.383 . S
C17 N16 1.376 . S
C17 C18 1.446 . S
C17 C40 1.391 . S
C18 C17 1.446 . S
C18 C19 1.339 . S
C18 H47 0.949 . S
C19 C18 1.339 . S
C19 C20 1.439 . S
C19 H48 0.950 . S
C20 N16 1.383 . S
C20 C19 1.439 . S
C20 C38 1.392 . S
N21 Co5 2.282 . S
N21 C24 1.332 . S
N21 C26 1.332 . S
C22 C23 1.386 . S
C22 C25 1.388 . S
C23 C22 1.386 . S
C23 C24 1.382 . S
C23 H49 0.950 . S
C24 N21 1.332 . S
C24 C23 1.382 . S
C24 H35 0.952 . S
C25 C22 1.388 . S
C25 C26 1.382 . S
C25 H50 0.950 . S
C26 N21 1.332 . S
C26 C25 1.382 . S
C26 H36 0.948 . S
N27 Co5 2.282 . S
N27 C31 1.332 . S
N27 C32 1.332 . S
C28 C29 1.388 . S
C28 C32 1.382 . S
C28 H51 0.950 . S
C29 C28 1.388 . S
C29 C30 1.386 . S
C30 C29 1.386 . S
C30 C31 1.382 . S
C30 H52 0.950 . S
C31 N27 1.332 . S
C31 C30 1.382 . S
C31 H33 0.952 . S
C32 N27 1.332 . S
C32 C28 1.382 . S
C32 H34 0.948 . S
H33 C31 0.952 . S
H34 C32 0.948 . S
H35 C24 0.952 . S
H36 C26 0.948 . S
C37 C3 1.395 . S
C37 C7 1.391 . S
C38 C0 1.389 . S
C38 C20 1.392 . S
C39 C10 1.392 . S
C39 C12 1.389 . S
C40 C15 1.395 . S
C40 C17 1.391 . S
H41 C1 0.951 . S
H42 C2 0.950 . S
H43 C8 0.949 . S
H44 C9 0.950 . S
H45 C13 0.951 . S
H46 C14 0.950 . S
H47 C18 0.949 . S
H48 C19 0.950 . S
H49 C23 0.950 . S
H50 C25 0.950 . S
H51 C28 0.950 . S
H52 C30 0.950 . S
C53 C54 1.443 . S
C53 N57 1.376 . S
C53 C91 1.389 . S
C54 C53 1.443 . S
C54 C55 1.340 . S
C54 H94 0.951 . S
C55 C54 1.340 . S
C55 C56 1.439 . S
C55 H95 0.950 . S
C56 C55 1.439 . S
C56 N57 1.374 . S
C56 C90 1.395 . S
N57 C53 1.376 . S
N57 C56 1.374 . S
N57 Co58 2.008 . S
Co58 N57 2.008 . S
Co58 N59 1.995 . S
Co58 N64 2.008 . S
Co58 N69 1.995 . S
Co58 N74 2.282 . S
Co58 N80 2.282 . S
N59 Co58 1.995 . S
N59 C60 1.376 . S
N59 C63 1.383 . S
C60 N59 1.376 . S
C60 C61 1.446 . S
C60 C90 1.391 . S
C61 C60 1.446 . S
C61 C62 1.339 . S
C61 H96 0.949 . S
C62 C61 1.339 . S
C62 C63 1.439 . S
C62 H97 0.950 . S
C63 N59 1.383 . S
C63 C62 1.439 . S
C63 C92 1.392 . S
N64 Co58 2.008 . S
N64 C65 1.376 . S
N64 C68 1.374 . S
C65 N64 1.376 . S
C65 C66 1.443 . S
C65 C92 1.389 . S
C66 C65 1.443 . S
C66 C67 1.340 . S
C66 H98 0.951 . S
C67 C66 1.340 . S
C67 C68 1.439 . S
C67 H99 0.950 . S
C68 N64 1.374 . S
C68 C67 1.439 . S
C68 C93 1.395 . S
N69 Co58 1.995 . S
N69 C70 1.376 . S
N69 C73 1.383 . S
C70 N69 1.376 . S
C70 C71 1.446 . S
C70 C93 1.391 . S
C71 C70 1.446 . S
C71 C72 1.339 . S
C71 H100 0.949 . S
C72 C71 1.339 . S
C72 C73 1.439 . S
C72 H101 0.950 . S
C73 N69 1.383 . S
C73 C72 1.439 . S
C73 C91 1.392 . S
N74 Co58 2.282 . S
N74 C77 1.332 . S
N74 C79 1.332 . S
C75 C76 1.386 . S
C75 C78 1.388 . S
C76 C75 1.386 . S
C76 C77 1.382 . S
C76 H102 0.950 . S
C77 N74 1.332 . S
C77 C76 1.382 . S
C77 H88 0.952 . S
C78 C75 1.388 . S
C78 C79 1.382 . S
C78 H103 0.950 . S
C79 N74 1.332 . S
C79 C78 1.382 . S
C79 H89 0.948 . S
N80 Co58 2.282 . S
N80 C84 1.332 . S
N80 C85 1.332 . S
C81 C82 1.388 . S
C81 C85 1.382 . S
C81 H104 0.950 . S
C82 C81 1.388 . S
C82 C83 1.386 . S
C83 C82 1.386 . S
C83 C84 1.382 . S
C83 H105 0.950 . S
C84 N80 1.332 . S
C84 C83 1.382 . S
C84 H86 0.952 . S
C85 N80 1.332 . S
C85 C81 1.382 . S
C85 H87 0.948 . S
H86 C84 0.952 . S
H87 C85 0.948 . S
H88 C77 0.952 . S
H89 C79 0.948 . S
C90 C56 1.395 . S
C90 C60 1.391 . S
C91 C53 1.389 . S
C91 C73 1.392 . S
C92 C63 1.392 . S
C92 C65 1.389 . S
C93 C68 1.395 . S
C93 C70 1.391 . S
H94 C54 0.951 . S
H95 C55 0.950 . S
H96 C61 0.949 . S
H97 C62 0.950 . S
H98 C66 0.951 . S
H99 C67 0.950 . S
H100 C71 0.949 . S
H101 C72 0.950 . S
H102 C76 0.950 . S
H103 C78 0.950 . S
H104 C81 0.950 . S
H105 C83 0.950 . S
C106 C107 1.443 . S
C106 N110 1.376 . S
C106 C144 1.389 . S
C107 C106 1.443 . S
C107 C108 1.340 . S
C107 H147 0.951 . S
C108 C107 1.340 . S
C108 C109 1.439 . S
C108 H148 0.950 . S
C109 C108 1.439 . S
C109 N110 1.374 . S
C109 C143 1.395 . S
N110 C106 1.376 . S
N110 C109 1.374 . S
N110 Co111 2.008 . S
Co111 N110 2.008 . S
Co111 N112 1.995 . S
Co111 N117 2.008 . S
Co111 N122 1.995 . S
Co111 N127 2.282 . S
Co111 N133 2.282 . S
N112 Co111 1.995 . S
N112 C113 1.376 . S
N112 C116 1.383 . S
C113 N112 1.376 . S
C113 C114 1.446 . S
C113 C143 1.391 . S
C114 C113 1.446 . S
C114 C115 1.339 . S
C114 H149 0.949 . S
C115 C114 1.339 . S
C115 C116 1.439 . S
C115 H150 0.950 . S
C116 N112 1.383 . S
C116 C115 1.439 . S
C116 C145 1.392 . S
N117 Co111 2.008 . S
N117 C118 1.376 . S
N117 C121 1.374 . S
C118 N117 1.376 . S
C118 C119 1.443 . S
C118 C145 1.389 . S
C119 C118 1.443 . S
C119 C120 1.340 . S
C119 H151 0.951 . S
C120 C119 1.340 . S
C120 C121 1.439 . S
C120 H152 0.950 . S
C121 N117 1.374 . S
C121 C120 1.439 . S
C121 C146 1.395 . S
N122 Co111 1.995 . S
N122 C123 1.376 . S
N122 C126 1.383 . S
C123 N122 1.376 . S
C123 C124 1.446 . S
C123 C146 1.391 . S
C124 C123 1.446 . S
C124 C125 1.339 . S
C124 H153 0.949 . S
C125 C124 1.339 . S
C125 C126 1.439 . S
C125 H154 0.950 . S
C126 N122 1.383 . S
C126 C125 1.439 . S
C126 C144 1.392 . S
N127 Co111 2.282 . S
N127 C130 1.332 . S
N127 C132 1.332 . S
C128 C129 1.386 . S
C128 C131 1.388 . S
C129 C128 1.386 . S
C129 C130 1.382 . S
C129 H155 0.950 . S
C130 N127 1.332 . S
C130 C129 1.382 . S
C130 H141 0.952 . S
C131 C128 1.388 . S
C131 C132 1.382 . S
C131 H156 0.950 . S
C132 N127 1.332 . S
C132 C131 1.382 . S
C132 H142 0.948 . S
N133 Co111 2.282 . S
N133 C137 1.332 . S
N133 C138 1.332 . S
C134 C135 1.388 . S
C134 C138 1.382 . S
C134 H157 0.950 . S
C135 C134 1.388 . S
C135 C136 1.386 . S
C136 C135 1.386 . S
C136 C137 1.382 . S
C136 H158 0.950 . S
C137 N133 1.332 . S
C137 C136 1.382 . S
C137 H139 0.952 . S
C138 N133 1.332 . S
C138 C134 1.382 . S
C138 H140 0.948 . S
H139 C137 0.952 . S
H140 C138 0.948 . S
H141 C130 0.952 . S
H142 C132 0.948 . S
C143 C109 1.395 . S
C143 C113 1.391 . S
C144 C106 1.389 . S
C144 C126 1.392 . S
C145 C116 1.392 . S
C145 C118 1.389 . S
C146 C121 1.395 . S
C146 C123 1.391 . S
H147 C107 0.951 . S
H148 C108 0.950 . S
H149 C114 0.949 . S
H150 C115 0.950 . S
H151 C119 0.951 . S
H152 C120 0.950 . S
H153 C124 0.949 . S
H154 C125 0.950 . S
H155 C129 0.950 . S
H156 C131 0.950 . S
H157 C134 0.950 . S
H158 C136 0.950 . S
C159 C160 1.443 . S
C159 N163 1.376 . S
C159 C197 1.389 . S
C160 C159 1.443 . S
C160 C161 1.340 . S
C160 H200 0.951 . S
C161 C160 1.340 . S
C161 C162 1.439 . S
C161 H201 0.950 . S
C162 C161 1.439 . S
C162 N163 1.374 . S
C162 C196 1.395 . S
N163 C159 1.376 . S
N163 C162 1.374 . S
N163 Co164 2.008 . S
Co164 N163 2.008 . S
Co164 N165 1.995 . S
Co164 N170 2.008 . S
Co164 N175 1.995 . S
Co164 N180 2.282 . S
Co164 N186 2.282 . S
N165 Co164 1.995 . S
N165 C166 1.376 . S
N165 C169 1.383 . S
C166 N165 1.376 . S
C166 C167 1.446 . S
C166 C196 1.391 . S
C167 C166 1.446 . S
C167 C168 1.339 . S
C167 H202 0.949 . S
C168 C167 1.339 . S
C168 C169 1.439 . S
C168 H203 0.950 . S
C169 N165 1.383 . S
C169 C168 1.439 . S
C169 C198 1.392 . S
N170 Co164 2.008 . S
N170 C171 1.376 . S
N170 C174 1.374 . S
C171 N170 1.376 . S
C171 C172 1.443 . S
C171 C198 1.389 . S
C172 C171 1.443 . S
C172 C173 1.340 . S
C172 H204 0.951 . S
C173 C172 1.340 . S
C173 C174 1.439 . S
C173 H205 0.950 . S
C174 N170 1.374 . S
C174 C173 1.439 . S
C174 C199 1.395 . S
N175 Co164 1.995 . S
N175 C176 1.376 . S
N175 C179 1.383 . S
C176 N175 1.376 . S
C176 C177 1.446 . S
C176 C199 1.391 . S
C177 C176 1.446 . S
C177 C178 1.339 . S
C177 H206 0.949 . S
C178 C177 1.339 . S
C178 C179 1.439 . S
C178 H207 0.950 . S
C179 N175 1.383 . S
C179 C178 1.439 . S
C179 C197 1.392 . S
N180 Co164 2.282 . S
N180 C183 1.332 . S
N180 C185 1.332 . S
C181 C182 1.386 . S
C181 C184 1.388 . S
C182 C181 1.386 . S
C182 C183 1.382 . S
C182 H208 0.950 . S
C183 N180 1.332 . S
C183 C182 1.382 . S
C183 H194 0.952 . S
C184 C181 1.388 . S
C184 C185 1.382 . S
C184 H209 0.950 . S
C185 N180 1.332 . S
C185 C184 1.382 . S
C185 H195 0.948 . S
N186 Co164 2.282 . S
N186 C190 1.332 . S
N186 C191 1.332 . S
C187 C188 1.388 . S
C187 C191 1.382 . S
C187 H210 0.950 . S
C188 C187 1.388 . S
C188 C189 1.386 . S
C189 C188 1.386 . S
C189 C190 1.382 . S
C189 H211 0.950 . S
C190 N186 1.332 . S
C190 C189 1.382 . S
C190 H192 0.952 . S
C191 N186 1.332 . S
C191 C187 1.382 . S
C191 H193 0.948 . S
H192 C190 0.952 . S
H193 C191 0.948 . S
H194 C183 0.952 . S
H195 C185 0.948 . S
C196 C162 1.395 . S
C196 C166 1.391 . S
C197 C159 1.389 . S
C197 C179 1.392 . S
C198 C169 1.392 . S
C198 C171 1.389 . S
C199 C174 1.395 . S
C199 C176 1.391 . S
H200 C160 0.951 . S
H201 C161 0.950 . S
H202 C167 0.949 . S
H203 C168 0.950 . S
H204 C172 0.951 . S
H205 C173 0.950 . S
H206 C177 0.949 . S
H207 C178 0.950 . S
H208 C182 0.950 . S
H209 C184 0.950 . S
H210 C187 0.950 . S
H211 C189 0.950 . S
C212 C213 1.443 . S
C212 N216 1.376 . S
C212 C250 1.389 . S
C213 C212 1.443 . S
C213 C214 1.340 . S
C213 H253 0.951 . S
C214 C213 1.340 . S
C214 C215 1.439 . S
C214 H254 0.950 . S
C215 C214 1.439 . S
C215 N216 1.374 . S
C215 C249 1.395 . S
N216 C212 1.376 . S
N216 C215 1.374 . S
N216 Co217 2.008 . S
Co217 N216 2.008 . S
Co217 N218 1.995 . S
Co217 N223 2.008 . S
Co217 N228 1.995 . S
Co217 N233 2.282 . S
Co217 N239 2.282 . S
N218 Co217 1.995 . S
N218 C219 1.376 . S
N218 C222 1.383 . S
C219 N218 1.376 . S
C219 C220 1.446 . S
C219 C249 1.391 . S
C220 C219 1.446 . S
C220 C221 1.339 . S
C220 H255 0.949 . S
C221 C220 1.339 . S
C221 C222 1.439 . S
C221 H256 0.950 . S
C222 N218 1.383 . S
C222 C221 1.439 . S
C222 C251 1.392 . S
N223 Co217 2.008 . S
N223 C224 1.376 . S
N223 C227 1.374 . S
C224 N223 1.376 . S
C224 C225 1.443 . S
C224 C251 1.389 . S
C225 C224 1.443 . S
C225 C226 1.340 . S
C225 H257 0.951 . S
C226 C225 1.340 . S
C226 C227 1.439 . S
C226 H258 0.950 . S
C227 N223 1.374 . S
C227 C226 1.439 . S
C227 C252 1.395 . S
N228 Co217 1.995 . S
N228 C229 1.376 . S
N228 C232 1.383 . S
C229 N228 1.376 . S
C229 C230 1.446 . S
C229 C252 1.391 . S
C230 C229 1.446 . S
C230 C231 1.339 . S
C230 H259 0.949 . S
C231 C230 1.339 . S
C231 C232 1.439 . S
C231 H260 0.950 . S
C232 N228 1.383 . S
C232 C231 1.439 . S
C232 C250 1.392 . S
N233 Co217 2.282 . S
N233 C236 1.332 . S
N233 C238 1.332 . S
C234 C235 1.386 . S
C234 C237 1.388 . S
C235 C234 1.386 . S
C235 C236 1.382 . S
C235 H261 0.950 . S
C236 N233 1.332 . S
C236 C235 1.382 . S
C236 H247 0.952 . S
C237 C234 1.388 . S
C237 C238 1.382 . S
C237 H262 0.950 . S
C238 N233 1.332 . S
C238 C237 1.382 . S
C238 H248 0.948 . S
N239 Co217 2.282 . S
N239 C243 1.332 . S
N239 C244 1.332 . S
C240 C241 1.388 . S
C240 C244 1.382 . S
C240 H263 0.950 . S
C241 C240 1.388 . S
C241 C242 1.386 . S
C242 C241 1.386 . S
C242 C243 1.382 . S
C242 H264 0.950 . S
C243 N239 1.332 . S
C243 C242 1.382 . S
C243 H245 0.952 . S
C244 N239 1.332 . S
C244 C240 1.382 . S
C244 H246 0.948 . S
H245 C243 0.952 . S
H246 C244 0.948 . S
H247 C236 0.952 . S
H248 C238 0.948 . S
C249 C215 1.395 . S
C249 C219 1.391 . S
C250 C212 1.389 . S
C250 C232 1.392 . S
C251 C222 1.392 . S
C251 C224 1.389 . S
C252 C227 1.395 . S
C252 C229 1.391 . S
H253 C213 0.951 . S
H254 C214 0.950 . S
H255 C220 0.949 . S
H256 C221 0.950 . S
H257 C225 0.951 . S
H258 C226 0.950 . S
H259 C230 0.949 . S
H260 C231 0.950 . S
H261 C235 0.950 . S
H262 C237 0.950 . S
H263 C240 0.950 . S
H264 C242 0.950 . S
C265 C266 1.443 . S
C265 N269 1.376 . S
C265 C303 1.389 . S
C266 C265 1.443 . S
C266 C267 1.340 . S
C266 H306 0.951 . S
C267 C266 1.340 . S
C267 C268 1.439 . S
C267 H307 0.950 . S
C268 C267 1.439 . S
C268 N269 1.374 . S
C268 C302 1.395 . S
N269 C265 1.376 . S
N269 C268 1.374 . S
N269 Co270 2.008 . S
Co270 N269 2.008 . S
Co270 N271 1.995 . S
Co270 N276 2.008 . S
Co270 N281 1.995 . S
Co270 N286 2.282 . S
Co270 N292 2.282 . S
N271 Co270 1.995 . S
N271 C272 1.376 . S
N271 C275 1.383 . S
C272 N271 1.376 . S
C272 C273 1.446 . S
C272 C302 1.391 . S
C273 C272 1.446 . S
C273 C274 1.339 . S
C273 H308 0.949 . S
C274 C273 1.339 . S
C274 C275 1.439 . S
C274 H309 0.950 . S
C275 N271 1.383 . S
C275 C274 1.439 . S
C275 C304 1.392 . S
N276 Co270 2.008 . S
N276 C277 1.376 . S
N276 C280 1.374 . S
C277 N276 1.376 . S
C277 C278 1.443 . S
C277 C304 1.389 . S
C278 C277 1.443 . S
C278 C279 1.340 . S
C278 H310 0.951 . S
C279 C278 1.340 . S
C279 C280 1.439 . S
C279 H311 0.950 . S
C280 N276 1.374 . S
C280 C279 1.439 . S
C280 C305 1.395 . S
N281 Co270 1.995 . S
N281 C282 1.376 . S
N281 C285 1.383 . S
C282 N281 1.376 . S
C282 C283 1.446 . S
C282 C305 1.391 . S
C283 C282 1.446 . S
C283 C284 1.339 . S
C283 H312 0.949 . S
C284 C283 1.339 . S
C284 C285 1.439 . S
C284 H313 0.950 . S
C285 N281 1.383 . S
C285 C284 1.439 . S
C285 C303 1.392 . S
N286 Co270 2.282 . S
N286 C289 1.332 . S
N286 C291 1.332 . S
C287 C288 1.386 . S
C287 C290 1.388 . S
C288 C287 1.386 . S
C288 C289 1.382 . S
C288 H314 0.950 . S
C289 N286 1.332 . S
C289 C288 1.382 . S
C289 H300 0.952 . S
C290 C287 1.388 . S
C290 C291 1.382 . S
C290 H315 0.950 . S
C291 N286 1.332 . S
C291 C290 1.382 . S
C291 H301 0.948 . S
N292 Co270 2.282 . S
N292 C296 1.332 . S
N292 C297 1.332 . S
C293 C294 1.388 . S
C293 C297 1.382 . S
C293 H316 0.950 . S
C294 C293 1.388 . S
C294 C295 1.386 . S
C295 C294 1.386 . S
C295 C296 1.382 . S
C295 H317 0.950 . S
C296 N292 1.332 . S
C296 C295 1.382 . S
C296 H298 0.952 . S
C297 N292 1.332 . S
C297 C293 1.382 . S
C297 H299 0.948 . S
H298 C296 0.952 . S
H299 C297 0.948 . S
H300 C289 0.952 . S
H301 C291 0.948 . S
C302 C268 1.395 . S
C302 C272 1.391 . S
C303 C265 1.389 . S
C303 C285 1.392 . S
C304 C275 1.392 . S
C304 C277 1.389 . S
C305 C280 1.395 . S
C305 C282 1.391 . S
H306 C266 0.951 . S
H307 C267 0.950 . S
H308 C273 0.949 . S
H309 C274 0.950 . S
H310 C278 0.951 . S
H311 C279 0.950 . S
H312 C283 0.949 . S
H313 C284 0.950 . S
H314 C288 0.950 . S
H315 C290 0.950 . S
H316 C293 0.950 . S
H317 C295 0.950 . S
C318 C319 1.443 . S
C318 N322 1.376 . S
C318 C356 1.389 . S
C319 C318 1.443 . S
C319 C320 1.340 . S
C319 H359 0.951 . S
C320 C319 1.340 . S
C320 C321 1.439 . S
C320 H360 0.950 . S
C321 C320 1.439 . S
C321 N322 1.374 . S
C321 C355 1.395 . S
N322 C318 1.376 . S
N322 C321 1.374 . S
N322 Co323 2.008 . S
Co323 N322 2.008 . S
Co323 N324 1.995 . S
Co323 N329 2.008 . S
Co323 N334 1.995 . S
Co323 N339 2.282 . S
Co323 N345 2.282 . S
N324 Co323 1.995 . S
N324 C325 1.376 . S
N324 C328 1.383 . S
C325 N324 1.376 . S
C325 C326 1.446 . S
C325 C355 1.391 . S
C326 C325 1.446 . S
C326 C327 1.339 . S
C326 H361 0.949 . S
C327 C326 1.339 . S
C327 C328 1.439 . S
C327 H362 0.950 . S
C328 N324 1.383 . S
C328 C327 1.439 . S
C328 C357 1.392 . S
N329 Co323 2.008 . S
N329 C330 1.376 . S
N329 C333 1.374 . S
C330 N329 1.376 . S
C330 C331 1.443 . S
C330 C357 1.389 . S
C331 C330 1.443 . S
C331 C332 1.340 . S
C331 H363 0.951 . S
C332 C331 1.340 . S
C332 C333 1.439 . S
C332 H364 0.950 . S
C333 N329 1.374 . S
C333 C332 1.439 . S
C333 C358 1.395 . S
N334 Co323 1.995 . S
N334 C335 1.376 . S
N334 C338 1.383 . S
C335 N334 1.376 . S
C335 C336 1.446 . S
C335 C358 1.391 . S
C336 C335 1.446 . S
C336 C337 1.339 . S
C336 H365 0.949 . S
C337 C336 1.339 . S
C337 C338 1.439 . S
C337 H366 0.950 . S
C338 N334 1.383 . S
C338 C337 1.439 . S
C338 C356 1.392 . S
N339 Co323 2.282 . S
N339 C342 1.332 . S
N339 C344 1.332 . S
C340 C341 1.386 . S
C340 C343 1.388 . S
C341 C340 1.386 . S
C341 C342 1.382 . S
C341 H367 0.950 . S
C342 N339 1.332 . S
C342 C341 1.382 . S
C342 H353 0.952 . S
C343 C340 1.388 . S
C343 C344 1.382 . S
C343 H368 0.950 . S
C344 N339 1.332 . S
C344 C343 1.382 . S
C344 H354 0.948 . S
N345 Co323 2.282 . S
N345 C349 1.332 . S
N345 C350 1.332 . S
C346 C347 1.388 . S
C346 C350 1.382 . S
C346 H369 0.950 . S
C347 C346 1.388 . S
C347 C348 1.386 . S
C348 C347 1.386 . S
C348 C349 1.382 . S
C348 H370 0.950 . S
C349 N345 1.332 . S
C349 C348 1.382 . S
C349 H351 0.952 . S
C350 N345 1.332 . S
C350 C346 1.382 . S
C350 H352 0.948 . S
H351 C349 0.952 . S
H352 C350 0.948 . S
H353 C342 0.952 . S
H354 C344 0.948 . S
C355 C321 1.395 . S
C355 C325 1.391 . S
C356 C318 1.389 . S
C356 C338 1.392 . S
C357 C328 1.392 . S
C357 C330 1.389 . S
C358 C333 1.395 . S
C358 C335 1.391 . S
H359 C319 0.951 . S
H360 C320 0.950 . S
H361 C326 0.949 . S
H362 C327 0.950 . S
H363 C331 0.951 . S
H364 C332 0.950 . S
H365 C336 0.949 . S
H366 C337 0.950 . S
H367 C341 0.950 . S
H368 C343 0.950 . S
H369 C346 0.950 . S
H370 C348 0.950 . S
C371 C372 1.443 . S
C371 N375 1.376 . S
C371 C409 1.389 . S
C372 C371 1.443 . S
C372 C373 1.340 . S
C372 H412 0.951 . S
C373 C372 1.340 . S
C373 C374 1.439 . S
C373 H413 0.950 . S
C374 C373 1.439 . S
C374 N375 1.374 . S
C374 C408 1.395 . S
N375 C371 1.376 . S
N375 C374 1.374 . S
N375 Co376 2.008 . S
Co376 N375 2.008 . S
Co376 N377 1.995 . S
Co376 N382 2.008 . S
Co376 N387 1.995 . S
Co376 N392 2.282 . S
Co376 N398 2.282 . S
N377 Co376 1.995 . S
N377 C378 1.376 . S
N377 C381 1.383 . S
C378 N377 1.376 . S
C378 C379 1.446 . S
C378 C408 1.391 . S
C379 C378 1.446 . S
C379 C380 1.339 . S
C379 H414 0.949 . S
C380 C379 1.339 . S
C380 C381 1.439 . S
C380 H415 0.950 . S
C381 N377 1.383 . S
C381 C380 1.439 . S
C381 C410 1.392 . S
N382 Co376 2.008 . S
N382 C383 1.376 . S
N382 C386 1.374 . S
C383 N382 1.376 . S
C383 C384 1.443 . S
C383 C410 1.389 . S
C384 C383 1.443 . S
C384 C385 1.340 . S
C384 H416 0.951 . S
C385 C384 1.340 . S
C385 C386 1.439 . S
C385 H417 0.950 . S
C386 N382 1.374 . S
C386 C385 1.439 . S
C386 C411 1.395 . S
N387 Co376 1.995 . S
N387 C388 1.376 . S
N387 C391 1.383 . S
C388 N387 1.376 . S
C388 C389 1.446 . S
C388 C411 1.391 . S
C389 C388 1.446 . S
C389 C390 1.339 . S
C389 H418 0.949 . S
C390 C389 1.339 . S
C390 C391 1.439 . S
C390 H419 0.950 . S
C391 N387 1.383 . S
C391 C390 1.439 . S
C391 C409 1.392 . S
N392 Co376 2.282 . S
N392 C395 1.332 . S
N392 C397 1.332 . S
C393 C394 1.386 . S
C393 C396 1.388 . S
C394 C393 1.386 . S
C394 C395 1.382 . S
C394 H420 0.950 . S
C395 N392 1.332 . S
C395 C394 1.382 . S
C395 H406 0.952 . S
C396 C393 1.388 . S
C396 C397 1.382 . S
C396 H421 0.950 . S
C397 N392 1.332 . S
C397 C396 1.382 . S
C397 H407 0.948 . S
N398 Co376 2.282 . S
N398 C402 1.332 . S
N398 C403 1.332 . S
C399 C400 1.388 . S
C399 C403 1.382 . S
C399 H422 0.950 . S
C400 C399 1.388 . S
C400 C401 1.386 . S
C401 C400 1.386 . S
C401 C402 1.382 . S
C401 H423 0.950 . S
C402 N398 1.332 . S
C402 C401 1.382 . S
C402 H404 0.952 . S
C403 N398 1.332 . S
C403 C399 1.382 . S
C403 H405 0.948 . S
H404 C402 0.952 . S
H405 C403 0.948 . S
H406 C395 0.952 . S
H407 C397 0.948 . S
C408 C374 1.395 . S
C408 C378 1.391 . S
C409 C371 1.389 . S
C409 C391 1.392 . S
C410 C381 1.392 . S
C410 C383 1.389 . S
C411 C386 1.395 . S
C411 C388 1.391 . S
H412 C372 0.951 . S
H413 C373 0.950 . S
H414 C379 0.949 . S
H415 C380 0.950 . S
H416 C384 0.951 . S
H417 C385 0.950 . S
H418 C389 0.949 . S
H419 C390 0.950 . S
H420 C394 0.950 . S
H421 C396 0.950 . S
H422 C399 0.950 . S
H423 C401 0.950 . S
C424 C425 1.443 . S
C424 N428 1.376 . S
C424 C462 1.389 . S
C425 C424 1.443 . S
C425 C426 1.340 . S
C425 H465 0.951 . S
C426 C425 1.340 . S
C426 C427 1.439 . S
C426 H466 0.950 . S
C427 C426 1.439 . S
C427 N428 1.374 . S
C427 C461 1.395 . S
N428 C424 1.376 . S
N428 C427 1.374 . S
N428 Co429 2.008 . S
Co429 N428 2.008 . S
Co429 N430 1.995 . S
Co429 N435 2.008 . S
Co429 N440 1.995 . S
Co429 N445 2.282 . S
Co429 N451 2.282 . S
N430 Co429 1.995 . S
N430 C431 1.376 . S
N430 C434 1.383 . S
C431 N430 1.376 . S
C431 C432 1.446 . S
C431 C461 1.391 . S
C432 C431 1.446 . S
C432 C433 1.339 . S
C432 H467 0.949 . S
C433 C432 1.339 . S
C433 C434 1.439 . S
C433 H468 0.950 . S
C434 N430 1.383 . S
C434 C433 1.439 . S
C434 C463 1.392 . S
N435 Co429 2.008 . S
N435 C436 1.376 . S
N435 C439 1.374 . S
C436 N435 1.376 . S
C436 C437 1.443 . S
C436 C463 1.389 . S
C437 C436 1.443 . S
C437 C438 1.340 . S
C437 H469 0.951 . S
C438 C437 1.340 . S
C438 C439 1.439 . S
C438 H470 0.950 . S
C439 N435 1.374 . S
C439 C438 1.439 . S
C439 C464 1.395 . S
N440 Co429 1.995 . S
N440 C441 1.376 . S
N440 C444 1.383 . S
C441 N440 1.376 . S
C441 C442 1.446 . S
C441 C464 1.391 . S
C442 C441 1.446 . S
C442 C443 1.339 . S
C442 H471 0.949 . S
C443 C442 1.339 . S
C443 C444 1.439 . S
C443 H472 0.950 . S
C444 N440 1.383 . S
C444 C443 1.439 . S
C444 C462 1.392 . S
N445 Co429 2.282 . S
N445 C448 1.332 . S
N445 C450 1.332 . S
C446 C447 1.386 . S
C446 C449 1.388 . S
C447 C446 1.386 . S
C447 C448 1.382 . S
C447 H473 0.950 . S
C448 N445 1.332 . S
C448 C447 1.382 . S
C448 H459 0.952 . S
C449 C446 1.388 . S
C449 C450 1.382 . S
C449 H474 0.950 . S
C450 N445 1.332 . S
C450 C449 1.382 . S
C450 H460 0.948 . S
N451 Co429 2.282 . S
N451 C455 1.332 . S
N451 C456 1.332 . S
C452 C453 1.388 . S
C452 C456 1.382 . S
C452 H475 0.950 . S
C453 C452 1.388 . S
C453 C454 1.386 . S
C454 C453 1.386 . S
C454 C455 1.382 . S
C454 H476 0.950 . S
C455 N451 1.332 . S
C455 C454 1.382 . S
C455 H457 0.952 . S
C456 N451 1.332 . S
C456 C452 1.382 . S
C456 H458 0.948 . S
H457 C455 0.952 . S
H458 C456 0.948 . S
H459 C448 0.952 . S
H460 C450 0.948 . S
C461 C427 1.395 . S
C461 C431 1.391 . S
C462 C424 1.389 . S
C462 C444 1.392 . S
C463 C434 1.392 . S
C463 C436 1.389 . S
C464 C439 1.395 . S
C464 C441 1.391 . S
H465 C425 0.951 . S
H466 C426 0.950 . S
H467 C432 0.949 . S
H468 C433 0.950 . S
H469 C437 0.951 . S
H470 C438 0.950 . S
H471 C442 0.949 . S
H472 C443 0.950 . S
H473 C447 0.950 . S
H474 C449 0.950 . S
H475 C452 0.950 . S
H476 C454 0.950 . S
C477 C478 1.443 . S
C477 N481 1.376 . S
C477 C515 1.389 . S
C478 C477 1.443 . S
C478 C479 1.340 . S
C478 H518 0.951 . S
C479 C478 1.340 . S
C479 C480 1.439 . S
C479 H519 0.950 . S
C480 C479 1.439 . S
C480 N481 1.374 . S
C480 C514 1.395 . S
N481 C477 1.376 . S
N481 C480 1.374 . S
N481 Co482 2.008 . S
Co482 N481 2.008 . S
Co482 N483 1.995 . S
Co482 N488 2.008 . S
Co482 N493 1.995 . S
Co482 N498 2.282 . S
Co482 N504 2.282 . S
N483 Co482 1.995 . S
N483 C484 1.376 . S
N483 C487 1.383 . S
C484 N483 1.376 . S
C484 C485 1.446 . S
C484 C514 1.391 . S
C485 C484 1.446 . S
C485 C486 1.339 . S
C485 H520 0.949 . S
C486 C485 1.339 . S
C486 C487 1.439 . S
C486 H521 0.950 . S
C487 N483 1.383 . S
C487 C486 1.439 . S
C487 C516 1.392 . S
N488 Co482 2.008 . S
N488 C489 1.376 . S
N488 C492 1.374 . S
C489 N488 1.376 . S
C489 C490 1.443 . S
C489 C516 1.389 . S
C490 C489 1.443 . S
C490 C491 1.340 . S
C490 H522 0.951 . S
C491 C490 1.340 . S
C491 C492 1.439 . S
C491 H523 0.950 . S
C492 N488 1.374 . S
C492 C491 1.439 . S
C492 C517 1.395 . S
N493 Co482 1.995 . S
N493 C494 1.376 . S
N493 C497 1.383 . S
C494 N493 1.376 . S
C494 C495 1.446 . S
C494 C517 1.391 . S
C495 C494 1.446 . S
C495 C496 1.339 . S
C495 H524 0.949 . S
C496 C495 1.339 . S
C496 C497 1.439 . S
C496 H525 0.950 . S
C497 N493 1.383 . S
C497 C496 1.439 . S
C497 C515 1.392 . S
N498 Co482 2.282 . S
N498 C501 1.332 . S
N498 C503 1.332 . S
C499 C500 1.386 . S
C499 C502 1.388 . S
C500 C499 1.386 . S
C500 C501 1.382 . S
C500 H526 0.950 . S
C501 N498 1.332 . S
C501 C500 1.382 . S
C501 H512 0.952 . S
C502 C499 1.388 . S
C502 C503 1.382 . S
C502 H527 0.950 . S
C503 N498 1.332 . S
C503 C502 1.382 . S
C503 H513 0.948 . S
N504 Co482 2.282 . S
N504 C508 1.332 . S
N504 C509 1.332 . S
C505 C506 1.388 . S
C505 C509 1.382 . S
C505 H528 0.950 . S
C506 C505 1.388 . S
C506 C507 1.386 . S
C507 C506 1.386 . S
C507 C508 1.382 . S
C507 H529 0.950 . S
C508 N504 1.332 . S
C508 C507 1.382 . S
C508 H510 0.952 . S
C509 N504 1.332 . S
C509 C505 1.382 . S
C509 H511 0.948 . S
H510 C508 0.952 . S
H511 C509 0.948 . S
H512 C501 0.952 . S
H513 C503 0.948 . S
C514 C480 1.395 . S
C514 C484 1.391 . S
C515 C477 1.389 . S
C515 C497 1.392 . S
C516 C487 1.392 . S
C516 C489 1.389 . S
C517 C492 1.395 . S
C517 C494 1.391 . S
H518 C478 0.951 . S
H519 C479 0.950 . S
H520 C485 0.949 . S
H521 C486 0.950 . S
H522 C490 0.951 . S
H523 C491 0.950 . S
H524 C495 0.949 . S
H525 C496 0.950 . S
H526 C500 0.950 . S
H527 C502 0.950 . S
H528 C505 0.950 . S
H529 C507 0.950 . S
C530 C531 1.443 . S
C530 N534 1.376 . S
C530 C568 1.389 . S
C531 C530 1.443 . S
C531 C532 1.340 . S
C531 H571 0.951 . S
C532 C531 1.340 . S
C532 C533 1.439 . S
C532 H572 0.950 . S
C533 C532 1.439 . S
C533 N534 1.374 . S
C533 C567 1.395 . S
N534 C530 1.376 . S
N534 C533 1.374 . S
N534 Co535 2.008 . S
Co535 N534 2.008 . S
Co535 N536 1.995 . S
Co535 N541 2.008 . S
Co535 N546 1.995 . S
Co535 N551 2.282 . S
Co535 N557 2.282 . S
N536 Co535 1.995 . S
N536 C537 1.376 . S
N536 C540 1.383 . S
C537 N536 1.376 . S
C537 C538 1.446 . S
C537 C567 1.391 . S
C538 C537 1.446 . S
C538 C539 1.339 . S
C538 H573 0.949 . S
C539 C538 1.339 . S
C539 C540 1.439 . S
C539 H574 0.950 . S
C540 N536 1.383 . S
C540 C539 1.439 . S
C540 C569 1.392 . S
N541 Co535 2.008 . S
N541 C542 1.376 . S
N541 C545 1.374 . S
C542 N541 1.376 . S
C542 C543 1.443 . S
C542 C569 1.389 . S
C543 C542 1.443 . S
C543 C544 1.340 . S
C543 H575 0.951 . S
C544 C543 1.340 . S
C544 C545 1.439 . S
C544 H576 0.950 . S
C545 N541 1.374 . S
C545 C544 1.439 . S
C545 C570 1.395 . S
N546 Co535 1.995 . S
N546 C547 1.376 . S
N546 C550 1.383 . S
C547 N546 1.376 . S
C547 C548 1.446 . S
C547 C570 1.391 . S
C548 C547 1.446 . S
C548 C549 1.339 . S
C548 H577 0.949 . S
C549 C548 1.339 . S
C549 C550 1.439 . S
C549 H578 0.950 . S
C550 N546 1.383 . S
C550 C549 1.439 . S
C550 C568 1.392 . S
N551 Co535 2.282 . S
N551 C554 1.332 . S
N551 C556 1.332 . S
C552 C553 1.386 . S
C552 C555 1.388 . S
C553 C552 1.386 . S
C553 C554 1.382 . S
C553 H579 0.950 . S
C554 N551 1.332 . S
C554 C553 1.382 . S
C554 H565 0.952 . S
C555 C552 1.388 . S
C555 C556 1.382 . S
C555 H580 0.950 . S
C556 N551 1.332 . S
C556 C555 1.382 . S
C556 H566 0.948 . S
N557 Co535 2.282 . S
N557 C561 1.332 . S
N557 C562 1.332 . S
C558 C559 1.388 . S
C558 C562 1.382 . S
C558 H581 0.950 . S
C559 C558 1.388 . S
C559 C560 1.386 . S
C560 C559 1.386 . S
C560 C561 1.382 . S
C560 H582 0.950 . S
C561 N557 1.332 . S
C561 C560 1.382 . S
C561 H563 0.952 . S
C562 N557 1.332 . S
C562 C558 1.382 . S
C562 H564 0.948 . S
H563 C561 0.952 . S
H564 C562 0.948 . S
H565 C554 0.952 . S
H566 C556 0.948 . S
C567 C533 1.395 . S
C567 C537 1.391 . S
C568 C530 1.389 . S
C568 C550 1.392 . S
C569 C540 1.392 . S
C569 C542 1.389 . S
C570 C545 1.395 . S
C570 C547 1.391 . S
H571 C531 0.951 . S
H572 C532 0.950 . S
H573 C538 0.949 . S
H574 C539 0.950 . S
H575 C543 0.951 . S
H576 C544 0.950 . S
H577 C548 0.949 . S
H578 C549 0.950 . S
H579 C553 0.950 . S
H580 C555 0.950 . S
H581 C558 0.950 . S
H582 C560 0.950 . S
C583 C584 1.443 . S
C583 N587 1.376 . S
C583 C621 1.389 . S
C584 C583 1.443 . S
C584 C585 1.340 . S
C584 H624 0.951 . S
C585 C584 1.340 . S
C585 C586 1.439 . S
C585 H625 0.950 . S
C586 C585 1.439 . S
C586 N587 1.374 . S
C586 C620 1.395 . S
N587 C583 1.376 . S
N587 C586 1.374 . S
N587 Co588 2.008 . S
Co588 N587 2.008 . S
Co588 N589 1.995 . S
Co588 N594 2.008 . S
Co588 N599 1.995 . S
Co588 N604 2.282 . S
Co588 N610 2.282 . S
N589 Co588 1.995 . S
N589 C590 1.376 . S
N589 C593 1.383 . S
C590 N589 1.376 . S
C590 C591 1.446 . S
C590 C620 1.391 . S
C591 C590 1.446 . S
C591 C592 1.339 . S
C591 H626 0.949 . S
C592 C591 1.339 . S
C592 C593 1.439 . S
C592 H627 0.950 . S
C593 N589 1.383 . S
C593 C592 1.439 . S
C593 C622 1.392 . S
N594 Co588 2.008 . S
N594 C595 1.376 . S
N594 C598 1.374 . S
C595 N594 1.376 . S
C595 C596 1.443 . S
C595 C622 1.389 . S
C596 C595 1.443 . S
C596 C597 1.340 . S
C596 H628 0.951 . S
C597 C596 1.340 . S
C597 C598 1.439 . S
C597 H629 0.950 . S
C598 N594 1.374 . S
C598 C597 1.439 . S
C598 C623 1.395 . S
N599 Co588 1.995 . S
N599 C600 1.376 . S
N599 C603 1.383 . S
C600 N599 1.376 . S
C600 C601 1.446 . S
C600 C623 1.391 . S
C601 C600 1.446 . S
C601 C602 1.339 . S
C601 H630 0.949 . S
C602 C601 1.339 . S
C602 C603 1.439 . S
C602 H631 0.950 . S
C603 N599 1.383 . S
C603 C602 1.439 . S
C603 C621 1.392 . S
N604 Co588 2.282 . S
N604 C607 1.332 . S
N604 C609 1.332 . S
C605 C606 1.386 . S
C605 C608 1.388 . S
C606 C605 1.386 . S
C606 C607 1.382 . S
C606 H632 0.950 . S
C607 N604 1.332 . S
C607 C606 1.382 . S
C607 H618 0.952 . S
C608 C605 1.388 . S
C608 C609 1.382 . S
C608 H633 0.950 . S
C609 N604 1.332 . S
C609 C608 1.382 . S
C609 H619 0.948 . S
N610 Co588 2.282 . S
N610 C614 1.332 . S
N610 C615 1.332 . S
C611 C612 1.388 . S
C611 C615 1.382 . S
C611 H634 0.950 . S
C612 C611 1.388 . S
C612 C613 1.386 . S
C613 C612 1.386 . S
C613 C614 1.382 . S
C613 H635 0.950 . S
C614 N610 1.332 . S
C614 C613 1.382 . S
C614 H616 0.952 . S
C615 N610 1.332 . S
C615 C611 1.382 . S
C615 H617 0.948 . S
H616 C614 0.952 . S
H617 C615 0.948 . S
H618 C607 0.952 . S
H619 C609 0.948 . S
C620 C586 1.395 . S
C620 C590 1.391 . S
C621 C583 1.389 . S
C621 C603 1.392 . S
C622 C593 1.392 . S
C622 C595 1.389 . S
C623 C598 1.395 . S
C623 C600 1.391 . S
H624 C584 0.951 . S
H625 C585 0.950 . S
H626 C591 0.949 . S
H627 C592 0.950 . S
H628 C596 0.951 . S
H629 C597 0.950 . S
H630 C601 0.949 . S
H631 C602 0.950 . S
H632 C606 0.950 . S
H633 C608 0.950 . S
H634 C611 0.950 . S
H635 C613 0.950 . S
C636 C637 1.443 . S
C636 N640 1.376 . S
C636 C674 1.389 . S
C637 C636 1.443 . S
C637 C638 1.340 . S
C637 H677 0.951 . S
C638 C637 1.340 . S
C638 C639 1.439 . S
C638 H678 0.950 . S
C639 C638 1.439 . S
C639 N640 1.374 . S
C639 C673 1.395 . S
N640 C636 1.376 . S
N640 C639 1.374 . S
N640 Co641 2.008 . S
Co641 N640 2.008 . S
Co641 N642 1.995 . S
Co641 N647 2.008 . S
Co641 N652 1.995 . S
Co641 N657 2.282 . S
Co641 N663 2.282 . S
N642 Co641 1.995 . S
N642 C643 1.376 . S
N642 C646 1.383 . S
C643 N642 1.376 . S
C643 C644 1.446 . S
C643 C673 1.391 . S
C644 C643 1.446 . S
C644 C645 1.339 . S
C644 H679 0.949 . S
C645 C644 1.339 . S
C645 C646 1.439 . S
C645 H680 0.950 . S
C646 N642 1.383 . S
C646 C645 1.439 . S
C646 C675 1.392 . S
N647 Co641 2.008 . S
N647 C648 1.376 . S
N647 C651 1.374 . S
C648 N647 1.376 . S
C648 C649 1.443 . S
C648 C675 1.389 . S
C649 C648 1.443 . S
C649 C650 1.340 . S
C649 H681 0.951 . S
C650 C649 1.340 . S
C650 C651 1.439 . S
C650 H682 0.950 . S
C651 N647 1.374 . S
C651 C650 1.439 . S
C651 C676 1.395 . S
N652 Co641 1.995 . S
N652 C653 1.376 . S
N652 C656 1.383 . S
C653 N652 1.376 . S
C653 C654 1.446 . S
C653 C676 1.391 . S
C654 C653 1.446 . S
C654 C655 1.339 . S
C654 H683 0.949 . S
C655 C654 1.339 . S
C655 C656 1.439 . S
C655 H684 0.950 . S
C656 N652 1.383 . S
C656 C655 1.439 . S
C656 C674 1.392 . S
N657 Co641 2.282 . S
N657 C660 1.332 . S
N657 C662 1.332 . S
C658 C659 1.386 . S
C658 C661 1.388 . S
C659 C658 1.386 . S
C659 C660 1.382 . S
C659 H685 0.950 . S
C660 N657 1.332 . S
C660 C659 1.382 . S
C660 H671 0.952 . S
C661 C658 1.388 . S
C661 C662 1.382 . S
C661 H686 0.950 . S
C662 N657 1.332 . S
C662 C661 1.382 . S
C662 H672 0.948 . S
N663 Co641 2.282 . S
N663 C667 1.332 . S
N663 C668 1.332 . S
C664 C665 1.388 . S
C664 C668 1.382 . S
C664 H687 0.950 . S
C665 C664 1.388 . S
C665 C666 1.386 . S
C666 C665 1.386 . S
C666 C667 1.382 . S
C666 H688 0.950 . S
C667 N663 1.332 . S
C667 C666 1.382 . S
C667 H669 0.952 . S
C668 N663 1.332 . S
C668 C664 1.382 . S
C668 H670 0.948 . S
H669 C667 0.952 . S
H670 C668 0.948 . S
H671 C660 0.952 . S
H672 C662 0.948 . S
C673 C639 1.395 . S
C673 C643 1.391 . S
C674 C636 1.389 . S
C674 C656 1.392 . S
C675 C646 1.392 . S
C675 C648 1.389 . S
C676 C651 1.395 . S
C676 C653 1.391 . S
H677 C637 0.951 . S
H678 C638 0.950 . S
H679 C644 0.949 . S
H680 C645 0.950 . S
H681 C649 0.951 . S
H682 C650 0.950 . S
H683 C654 0.949 . S
H684 C655 0.950 . S
H685 C659 0.950 . S
H686 C661 0.950 . S
H687 C664 0.950 . S
H688 C666 0.950 . S
C689 C690 1.443 . S
C689 N693 1.376 . S
C689 C727 1.389 . S
C690 C689 1.443 . S
C690 C691 1.340 . S
C690 H730 0.951 . S
C691 C690 1.340 . S
C691 C692 1.439 . S
C691 H731 0.950 . S
C692 C691 1.439 . S
C692 N693 1.374 . S
C692 C726 1.395 . S
N693 C689 1.376 . S
N693 C692 1.374 . S
N693 Co694 2.008 . S
Co694 N693 2.008 . S
Co694 N695 1.995 . S
Co694 N700 2.008 . S
Co694 N705 1.995 . S
Co694 N710 2.282 . S
Co694 N716 2.282 . S
N695 Co694 1.995 . S
N695 C696 1.376 . S
N695 C699 1.383 . S
C696 N695 1.376 . S
C696 C697 1.446 . S
C696 C726 1.391 . S
C697 C696 1.446 . S
C697 C698 1.339 . S
C697 H732 0.949 . S
C698 C697 1.339 . S
C698 C699 1.439 . S
C698 H733 0.950 . S
C699 N695 1.383 . S
C699 C698 1.439 . S
C699 C728 1.392 . S
N700 Co694 2.008 . S
N700 C701 1.376 . S
N700 C704 1.374 . S
C701 N700 1.376 . S
C701 C702 1.443 . S
C701 C728 1.389 . S
C702 C701 1.443 . S
C702 C703 1.340 . S
C702 H734 0.951 . S
C703 C702 1.340 . S
C703 C704 1.439 . S
C703 H735 0.950 . S
C704 N700 1.374 . S
C704 C703 1.439 . S
C704 C729 1.395 . S
N705 Co694 1.995 . S
N705 C706 1.376 . S
N705 C709 1.383 . S
C706 N705 1.376 . S
C706 C707 1.446 . S
C706 C729 1.391 . S
C707 C706 1.446 . S
C707 C708 1.339 . S
C707 H736 0.949 . S
C708 C707 1.339 . S
C708 C709 1.439 . S
C708 H737 0.950 . S
C709 N705 1.383 . S
C709 C708 1.439 . S
C709 C727 1.392 . S
N710 Co694 2.282 . S
N710 C713 1.332 . S
N710 C715 1.332 . S
C711 C712 1.386 . S
C711 C714 1.388 . S
C712 C711 1.386 . S
C712 C713 1.382 . S
C712 H738 0.950 . S
C713 N710 1.332 . S
C713 C712 1.382 . S
C713 H724 0.952 . S
C714 C711 1.388 . S
C714 C715 1.382 . S
C714 H739 0.950 . S
C715 N710 1.332 . S
C715 C714 1.382 . S
C715 H725 0.948 . S
N716 Co694 2.282 . S
N716 C720 1.332 . S
N716 C721 1.332 . S
C717 C718 1.388 . S
C717 C721 1.382 . S
C717 H740 0.950 . S
C718 C717 1.388 . S
C718 C719 1.386 . S
C719 C718 1.386 . S
C719 C720 1.382 . S
C719 H741 0.950 . S
C720 N716 1.332 . S
C720 C719 1.382 . S
C720 H722 0.952 . S
C721 N716 1.332 . S
C721 C717 1.382 . S
C721 H723 0.948 . S
H722 C720 0.952 . S
H723 C721 0.948 . S
H724 C713 0.952 . S
H725 C715 0.948 . S
C726 C692 1.395 . S
C726 C696 1.391 . S
C727 C689 1.389 . S
C727 C709 1.392 . S
C728 C699 1.392 . S
C728 C701 1.389 . S
C729 C704 1.395 . S
C729 C706 1.391 . S
H730 C690 0.951 . S
H731 C691 0.950 . S
H732 C697 0.949 . S
H733 C698 0.950 . S
H734 C702 0.951 . S
H735 C703 0.950 . S
H736 C707 0.949 . S
H737 C708 0.950 . S
H738 C712 0.950 . S
H739 C714 0.950 . S
H740 C717 0.950 . S
H741 C719 0.950 . S
C742 C743 1.443 . S
C742 N746 1.376 . S
C742 C780 1.389 . S
C743 C742 1.443 . S
C743 C744 1.340 . S
C743 H783 0.951 . S
C744 C743 1.340 . S
C744 C745 1.439 . S
C744 H784 0.950 . S
C745 C744 1.439 . S
C745 N746 1.374 . S
C745 C779 1.395 . S
N746 C742 1.376 . S
N746 C745 1.374 . S
N746 Co747 2.008 . S
Co747 N746 2.008 . S
Co747 N748 1.995 . S
Co747 N753 2.008 . S
Co747 N758 1.995 . S
Co747 N763 2.282 . S
Co747 N769 2.282 . S
N748 Co747 1.995 . S
N748 C749 1.376 . S
N748 C752 1.383 . S
C749 N748 1.376 . S
C749 C750 1.446 . S
C749 C779 1.391 . S
C750 C749 1.446 . S
C750 C751 1.339 . S
C750 H785 0.949 . S
C751 C750 1.339 . S
C751 C752 1.439 . S
C751 H786 0.950 . S
C752 N748 1.383 . S
C752 C751 1.439 . S
C752 C781 1.392 . S
N753 Co747 2.008 . S
N753 C754 1.376 . S
N753 C757 1.374 . S
C754 N753 1.376 . S
C754 C755 1.443 . S
C754 C781 1.389 . S
C755 C754 1.443 . S
C755 C756 1.340 . S
C755 H787 0.951 . S
C756 C755 1.340 . S
C756 C757 1.439 . S
C756 H788 0.950 . S
C757 N753 1.374 . S
C757 C756 1.439 . S
C757 C782 1.395 . S
N758 Co747 1.995 . S
N758 C759 1.376 . S
N758 C762 1.383 . S
C759 N758 1.376 . S
C759 C760 1.446 . S
C759 C782 1.391 . S
C760 C759 1.446 . S
C760 C761 1.339 . S
C760 H789 0.949 . S
C761 C760 1.339 . S
C761 C762 1.439 . S
C761 H790 0.950 . S
C762 N758 1.383 . S
C762 C761 1.439 . S
C762 C780 1.392 . S
N763 Co747 2.282 . S
N763 C766 1.332 . S
N763 C768 1.332 . S
C764 C765 1.386 . S
C764 C767 1.388 . S
C765 C764 1.386 . S
C765 C766 1.382 . S
C765 H791 0.950 . S
C766 N763 1.332 . S
C766 C765 1.382 . S
C766 H777 0.952 . S
C767 C764 1.388 . S
C767 C768 1.382 . S
C767 H792 0.950 . S
C768 N763 1.332 . S
C768 C767 1.382 . S
C768 H778 0.948 . S
N769 Co747 2.282 . S
N769 C773 1.332 . S
N769 C774 1.332 . S
C770 C771 1.388 . S
C770 C774 1.382 . S
C770 H793 0.950 . S
C771 C770 1.388 . S
C771 C772 1.386 . S
C772 C771 1.386 . S
C772 C773 1.382 . S
C772 H794 0.950 . S
C773 N769 1.332 . S
C773 C772 1.382 . S
C773 H775 0.952 . S
C774 N769 1.332 . S
C774 C770 1.382 . S
C774 H776 0.948 . S
H775 C773 0.952 . S
H776 C774 0.948 . S
H777 C766 0.952 . S
H778 C768 0.948 . S
C779 C745 1.395 . S
C779 C749 1.391 . S
C780 C742 1.389 . S
C780 C762 1.392 . S
C781 C752 1.392 . S
C781 C754 1.389 . S
C782 C757 1.395 . S
C782 C759 1.391 . S
H783 C743 0.951 . S
H784 C744 0.950 . S
H785 C750 0.949 . S
H786 C751 0.950 . S
H787 C755 0.951 . S
H788 C756 0.950 . S
H789 C760 0.949 . S
H790 C761 0.950 . S
H791 C765 0.950 . S
H792 C767 0.950 . S
H793 C770 0.950 . S
H794 C772 0.950 . S
C795 C796 1.443 . S
C795 N799 1.376 . S
C795 C833 1.389 . S
C796 C795 1.443 . S
C796 C797 1.340 . S
C796 H836 0.951 . S
C797 C796 1.340 . S
C797 C798 1.439 . S
C797 H837 0.950 . S
C798 C797 1.439 . S
C798 N799 1.374 . S
C798 C832 1.395 . S
N799 C795 1.376 . S
N799 C798 1.374 . S
N799 Co800 2.008 . S
Co800 N799 2.008 . S
Co800 N801 1.995 . S
Co800 N806 2.008 . S
Co800 N811 1.995 . S
Co800 N816 2.282 . S
Co800 N822 2.282 . S
N801 Co800 1.995 . S
N801 C802 1.376 . S
N801 C805 1.383 . S
C802 N801 1.376 . S
C802 C803 1.446 . S
C802 C832 1.391 . S
C803 C802 1.446 . S
C803 C804 1.339 . S
C803 H838 0.949 . S
C804 C803 1.339 . S
C804 C805 1.439 . S
C804 H839 0.950 . S
C805 N801 1.383 . S
C805 C804 1.439 . S
C805 C834 1.392 . S
N806 Co800 2.008 . S
N806 C807 1.376 . S
N806 C810 1.374 . S
C807 N806 1.376 . S
C807 C808 1.443 . S
C807 C834 1.389 . S
C808 C807 1.443 . S
C808 C809 1.340 . S
C808 H840 0.951 . S
C809 C808 1.340 . S
C809 C810 1.439 . S
C809 H841 0.950 . S
C810 N806 1.374 . S
C810 C809 1.439 . S
C810 C835 1.395 . S
N811 Co800 1.995 . S
N811 C812 1.376 . S
N811 C815 1.383 . S
C812 N811 1.376 . S
C812 C813 1.446 . S
C812 C835 1.391 . S
C813 C812 1.446 . S
C813 C814 1.339 . S
C813 H842 0.949 . S
C814 C813 1.339 . S
C814 C815 1.439 . S
C814 H843 0.950 . S
C815 N811 1.383 . S
C815 C814 1.439 . S
C815 C833 1.392 . S
N816 Co800 2.282 . S
N816 C819 1.332 . S
N816 C821 1.332 . S
C817 C818 1.386 . S
C817 C820 1.388 . S
C818 C817 1.386 . S
C818 C819 1.382 . S
C818 H844 0.950 . S
C819 N816 1.332 . S
C819 C818 1.382 . S
C819 H830 0.952 . S
C820 C817 1.388 . S
C820 C821 1.382 . S
C820 H845 0.950 . S
C821 N816 1.332 . S
C821 C820 1.382 . S
C821 H831 0.948 . S
N822 Co800 2.282 . S
N822 C826 1.332 . S
N822 C827 1.332 . S
C823 C824 1.388 . S
C823 C827 1.382 . S
C823 H846 0.950 . S
C824 C823 1.388 . S
C824 C825 1.386 . S
C825 C824 1.386 . S
C825 C826 1.382 . S
C825 H847 0.950 . S
C826 N822 1.332 . S
C826 C825 1.382 . S
C826 H828 0.952 . S
C827 N822 1.332 . S
C827 C823 1.382 . S
C827 H829 0.948 . S
H828 C826 0.952 . S
H829 C827 0.948 . S
H830 C819 0.952 . S
H831 C821 0.948 . S
C832 C798 1.395 . S
C832 C802 1.391 . S
C833 C795 1.389 . S
C833 C815 1.392 . S
C834 C805 1.392 . S
C834 C807 1.389 . S
C835 C810 1.395 . S
C835 C812 1.391 . S
H836 C796 0.951 . S
H837 C797 0.950 . S
H838 C803 0.949 . S
H839 C804 0.950 . S
H840 C808 0.951 . S
H841 C809 0.950 . S
H842 C813 0.949 . S
H843 C814 0.950 . S
H844 C818 0.950 . S
H845 C820 0.950 . S
H846 C823 0.950 . S
H847 C825 0.950 . S
C848 C849 1.443 . S
C848 N852 1.376 . S
C848 C886 1.389 . S
C849 C848 1.443 . S
C849 C850 1.340 . S
C849 H889 0.951 . S
C850 C849 1.340 . S
C850 C851 1.439 . S
C850 H890 0.950 . S
C851 C850 1.439 . S
C851 N852 1.374 . S
C851 C885 1.395 . S
N852 C848 1.376 . S
N852 C851 1.374 . S
N852 Co853 2.008 . S
Co853 N852 2.008 . S
Co853 N854 1.995 . S
Co853 N859 2.008 . S
Co853 N864 1.995 . S
Co853 N869 2.282 . S
Co853 N875 2.282 . S
N854 Co853 1.995 . S
N854 C855 1.376 . S
N854 C858 1.383 . S
C855 N854 1.376 . S
C855 C856 1.446 . S
C855 C885 1.391 . S
C856 C855 1.446 . S
C856 C857 1.339 . S
C856 H891 0.949 . S
C857 C856 1.339 . S
C857 C858 1.439 . S
C857 H892 0.950 . S
C858 N854 1.383 . S
C858 C857 1.439 . S
C858 C887 1.392 . S
N859 Co853 2.008 . S
N859 C860 1.376 . S
N859 C863 1.374 . S
C860 N859 1.376 . S
C860 C861 1.443 . S
C860 C887 1.389 . S
C861 C860 1.443 . S
C861 C862 1.340 . S
C861 H893 0.951 . S
C862 C861 1.340 . S
C862 C863 1.439 . S
C862 H894 0.950 . S
C863 N859 1.374 . S
C863 C862 1.439 . S
C863 C888 1.395 . S
N864 Co853 1.995 . S
N864 C865 1.376 . S
N864 C868 1.383 . S
C865 N864 1.376 . S
C865 C866 1.446 . S
C865 C888 1.391 . S
C866 C865 1.446 . S
C866 C867 1.339 . S
C866 H895 0.949 . S
C867 C866 1.339 . S
C867 C868 1.439 . S
C867 H896 0.950 . S
C868 N864 1.383 . S
C868 C867 1.439 . S
C868 C886 1.392 . S
N869 Co853 2.282 . S
N869 C872 1.332 . S
N869 C874 1.332 . S
C870 C871 1.386 . S
C870 C873 1.388 . S
C871 C870 1.386 . S
C871 C872 1.382 . S
C871 H897 0.950 . S
C872 N869 1.332 . S
C872 C871 1.382 . S
C872 H883 0.952 . S
C873 C870 1.388 . S
C873 C874 1.382 . S
C873 H898 0.950 . S
C874 N869 1.332 . S
C874 C873 1.382 . S
C874 H884 0.948 . S
N875 Co853 2.282 . S
N875 C879 1.332 . S
N875 C880 1.332 . S
C876 C877 1.388 . S
C876 C880 1.382 . S
C876 H899 0.950 . S
C877 C876 1.388 . S
C877 C878 1.386 . S
C878 C877 1.386 . S
C878 C879 1.382 . S
C878 H900 0.950 . S
C879 N875 1.332 . S
C879 C878 1.382 . S
C879 H881 0.952 . S
C880 N875 1.332 . S
C880 C876 1.382 . S
C880 H882 0.948 . S
H881 C879 0.952 . S
H882 C880 0.948 . S
H883 C872 0.952 . S
H884 C874 0.948 . S
C885 C851 1.395 . S
C885 C855 1.391 . S
C886 C848 1.389 . S
C886 C868 1.392 . S
C887 C858 1.392 . S
C887 C860 1.389 . S
C888 C863 1.395 . S
C888 C865 1.391 . S
H889 C849 0.951 . S
H890 C850 0.950 . S
H891 C856 0.949 . S
H892 C857 0.950 . S
H893 C861 0.951 . S
H894 C862 0.950 . S
H895 C866 0.949 . S
H896 C867 0.950 . S
H897 C871 0.950 . S
H898 C873 0.950 . S
H899 C876 0.950 . S
H900 C878 0.950 . S
C901 C902 1.443 . S
C901 N905 1.376 . S
C901 C939 1.389 . S
C902 C901 1.443 . S
C902 C903 1.340 . S
C902 H942 0.951 . S
C903 C902 1.340 . S
C903 C904 1.439 . S
C903 H943 0.950 . S
C904 C903 1.439 . S
C904 N905 1.374 . S
C904 C938 1.395 . S
N905 C901 1.376 . S
N905 C904 1.374 . S
N905 Co906 2.008 . S
Co906 N905 2.008 . S
Co906 N907 1.995 . S
Co906 N912 2.008 . S
Co906 N917 1.995 . S
Co906 N922 2.282 . S
Co906 N928 2.282 . S
N907 Co906 1.995 . S
N907 C908 1.376 . S
N907 C911 1.383 . S
C908 N907 1.376 . S
C908 C909 1.446 . S
C908 C938 1.391 . S
C909 C908 1.446 . S
C909 C910 1.339 . S
C909 H944 0.949 . S
C910 C909 1.339 . S
C910 C911 1.439 . S
C910 H945 0.950 . S
C911 N907 1.383 . S
C911 C910 1.439 . S
C911 C940 1.392 . S
N912 Co906 2.008 . S
N912 C913 1.376 . S
N912 C916 1.374 . S
C913 N912 1.376 . S
C913 C914 1.443 . S
C913 C940 1.389 . S
C914 C913 1.443 . S
C914 C915 1.340 . S
C914 H946 0.951 . S
C915 C914 1.340 . S
C915 C916 1.439 . S
C915 H947 0.950 . S
C916 N912 1.374 . S
C916 C915 1.439 . S
C916 C941 1.395 . S
N917 Co906 1.995 . S
N917 C918 1.376 . S
N917 C921 1.383 . S
C918 N917 1.376 . S
C918 C919 1.446 . S
C918 C941 1.391 . S
C919 C918 1.446 . S
C919 C920 1.339 . S
C919 H948 0.949 . S
C920 C919 1.339 . S
C920 C921 1.439 . S
C920 H949 0.950 . S
C921 N917 1.383 . S
C921 C920 1.439 . S
C921 C939 1.392 . S
N922 Co906 2.282 . S
N922 C925 1.332 . S
N922 C927 1.332 . S
C923 C924 1.386 . S
C923 C926 1.388 . S
C924 C923 1.386 . S
C924 C925 1.382 . S
C924 H950 0.950 . S
C925 N922 1.332 . S
C925 C924 1.382 . S
C925 H936 0.952 . S
C926 C923 1.388 . S
C926 C927 1.382 . S
C926 H951 0.950 . S
C927 N922 1.332 . S
C927 C926 1.382 . S
C927 H937 0.948 . S
N928 Co906 2.282 . S
N928 C932 1.332 . S
N928 C933 1.332 . S
C929 C930 1.388 . S
C929 C933 1.382 . S
C929 H952 0.950 . S
C930 C929 1.388 . S
C930 C931 1.386 . S
C931 C930 1.386 . S
C931 C932 1.382 . S
C931 H953 0.950 . S
C932 N928 1.332 . S
C932 C931 1.382 . S
C932 H934 0.952 . S
C933 N928 1.332 . S
C933 C929 1.382 . S
C933 H935 0.948 . S
H934 C932 0.952 . S
H935 C933 0.948 . S
H936 C925 0.952 . S
H937 C927 0.948 . S
C938 C904 1.395 . S
C938 C908 1.391 . S
C939 C901 1.389 . S
C939 C921 1.392 . S
C940 C911 1.392 . S
C940 C913 1.389 . S
C941 C916 1.395 . S
C941 C918 1.391 . S
H942 C902 0.951 . S
H943 C903 0.950 . S
H944 C909 0.949 . S
H945 C910 0.950 . S
H946 C914 0.951 . S
H947 C915 0.950 . S
H948 C919 0.949 . S
H949 C920 0.950 . S
H950 C924 0.950 . S
H951 C926 0.950 . S
H952 C929 0.950 . S
H953 C931 0.950 . S
C954 C955 1.443 . S
C954 N958 1.376 . S
C954 C992 1.389 . S
C955 C954 1.443 . S
C955 C956 1.340 . S
C955 H995 0.951 . S
C956 C955 1.340 . S
C956 C957 1.439 . S
C956 H996 0.950 . S
C957 C956 1.439 . S
C957 N958 1.374 . S
C957 C991 1.395 . S
N958 C954 1.376 . S
N958 C957 1.374 . S
N958 Co959 2.008 . S
Co959 N958 2.008 . S
Co959 N960 1.995 . S
Co959 N965 2.008 . S
Co959 N970 1.995 . S
Co959 N975 2.282 . S
Co959 N981 2.282 . S
N960 Co959 1.995 . S
N960 C961 1.376 . S
N960 C964 1.383 . S
C961 N960 1.376 . S
C961 C962 1.446 . S
C961 C991 1.391 . S
C962 C961 1.446 . S
C962 C963 1.339 . S
C962 H997 0.949 . S
C963 C962 1.339 . S
C963 C964 1.439 . S
C963 H998 0.950 . S
C964 N960 1.383 . S
C964 C963 1.439 . S
C964 C993 1.392 . S
N965 Co959 2.008 . S
N965 C966 1.376 . S
N965 C969 1.374 . S
C966 N965 1.376 . S
C966 C967 1.443 . S
C966 C993 1.389 . S
C967 C966 1.443 . S
C967 C968 1.340 . S
C967 H999 0.951 . S
C968 C967 1.340 . S
C968 C969 1.439 . S
C968 H1000 0.950 . S
C969 N965 1.374 . S
C969 C968 1.439 . S
C969 C994 1.395 . S
N970 Co959 1.995 . S
N970 C971 1.376 . S
N970 C974 1.383 . S
C971 N970 1.376 . S
C971 C972 1.446 . S
C971 C994 1.391 . S
C972 C971 1.446 . S
C972 C973 1.339 . S
C972 H1001 0.949 . S
C973 C972 1.339 . S
C973 C974 1.439 . S
C973 H1002 0.950 . S
C974 N970 1.383 . S
C974 C973 1.439 . S
C974 C992 1.392 . S
N975 Co959 2.282 . S
N975 C978 1.332 . S
N975 C980 1.332 . S
C976 C977 1.386 . S
C976 C979 1.388 . S
C977 C976 1.386 . S
C977 C978 1.382 . S
C977 H1003 0.950 . S
C978 N975 1.332 . S
C978 C977 1.382 . S
C978 H989 0.952 . S
C979 C976 1.388 . S
C979 C980 1.382 . S
C979 H1004 0.950 . S
C980 N975 1.332 . S
C980 C979 1.382 . S
C980 H990 0.948 . S
N981 Co959 2.282 . S
N981 C985 1.332 . S
N981 C986 1.332 . S
C982 C983 1.388 . S
C982 C986 1.382 . S
C982 H1005 0.950 . S
C983 C982 1.388 . S
C983 C984 1.386 . S
C984 C983 1.386 . S
C984 C985 1.382 . S
C984 H1006 0.950 . S
C985 N981 1.332 . S
C985 C984 1.382 . S
C985 H987 0.952 . S
C986 N981 1.332 . S
C986 C982 1.382 . S
C986 H988 0.948 . S
H987 C985 0.952 . S
H988 C986 0.948 . S
H989 C978 0.952 . S
H990 C980 0.948 . S
C991 C957 1.395 . S
C991 C961 1.391 . S
C992 C954 1.389 . S
C992 C974 1.392 . S
C993 C964 1.392 . S
C993 C966 1.389 . S
C994 C969 1.395 . S
C994 C971 1.391 . S
H995 C955 0.951 . S
H996 C956 0.950 . S
H997 C962 0.949 . S
H998 C963 0.950 . S
H999 C967 0.951 . S
H1000 C968 0.950 . S
H1001 C972 0.949 . S
H1002 C973 0.950 . S
H1003 C977 0.950 . S
H1004 C979 0.950 . S
H1005 C982 0.950 . S
H1006 C984 0.950 . S
C1007 C1008 1.443 . S
C1007 N1011 1.376 . S
C1007 C1045 1.389 . S
C1008 C1007 1.443 . S
C1008 C1009 1.340 . S
C1008 H1048 0.951 . S
C1009 C1008 1.340 . S
C1009 C1010 1.439 . S
C1009 H1049 0.950 . S
C1010 C1009 1.439 . S
C1010 N1011 1.374 . S
C1010 C1044 1.395 . S
N1011 C1007 1.376 . S
N1011 C1010 1.374 . S
N1011 Co1012 2.008 . S
Co1012 N1011 2.008 . S
Co1012 N1013 1.995 . S
Co1012 N1018 2.008 . S
Co1012 N1023 1.995 . S
Co1012 N1028 2.282 . S
Co1012 N1034 2.282 . S
N1013 Co1012 1.995 . S
N1013 C1014 1.376 . S
N1013 C1017 1.383 . S
C1014 N1013 1.376 . S
C1014 C1015 1.446 . S
C1014 C1044 1.391 . S
C1015 C1014 1.446 . S
C1015 C1016 1.339 . S
C1015 H1050 0.949 . S
C1016 C1015 1.339 . S
C1016 C1017 1.439 . S
C1016 H1051 0.950 . S
C1017 N1013 1.383 . S
C1017 C1016 1.439 . S
C1017 C1046 1.392 . S
N1018 Co1012 2.008 . S
N1018 C1019 1.376 . S
N1018 C1022 1.374 . S
C1019 N1018 1.376 . S
C1019 C1020 1.443 . S
C1019 C1046 1.389 . S
C1020 C1019 1.443 . S
C1020 C1021 1.340 . S
C1020 H1052 0.951 . S
C1021 C1020 1.340 . S
C1021 C1022 1.439 . S
C1021 H1053 0.950 . S
C1022 N1018 1.374 . S
C1022 C1021 1.439 . S
C1022 C1047 1.395 . S
N1023 Co1012 1.995 . S
N1023 C1024 1.376 . S
N1023 C1027 1.383 . S
C1024 N1023 1.376 . S
C1024 C1025 1.446 . S
C1024 C1047 1.391 . S
C1025 C1024 1.446 . S
C1025 C1026 1.339 . S
C1025 H1054 0.949 . S
C1026 C1025 1.339 . S
C1026 C1027 1.439 . S
C1026 H1055 0.950 . S
C1027 N1023 1.383 . S
C1027 C1026 1.439 . S
C1027 C1045 1.392 . S
N1028 Co1012 2.282 . S
N1028 C1031 1.332 . S
N1028 C1033 1.332 . S
C1029 C1030 1.386 . S
C1029 C1032 1.388 . S
C1030 C1029 1.386 . S
C1030 C1031 1.382 . S
C1030 H1056 0.950 . S
C1031 N1028 1.332 . S
C1031 C1030 1.382 . S
C1031 H1042 0.952 . S
C1032 C1029 1.388 . S
C1032 C1033 1.382 . S
C1032 H1057 0.950 . S
C1033 N1028 1.332 . S
C1033 C1032 1.382 . S
C1033 H1043 0.948 . S
N1034 Co1012 2.282 . S
N1034 C1038 1.332 . S
N1034 C1039 1.332 . S
C1035 C1036 1.388 . S
C1035 C1039 1.382 . S
C1035 H1058 0.950 . S
C1036 C1035 1.388 . S
C1036 C1037 1.386 . S
C1037 C1036 1.386 . S
C1037 C1038 1.382 . S
C1037 H1059 0.950 . S
C1038 N1034 1.332 . S
C1038 C1037 1.382 . S
C1038 H1040 0.952 . S
C1039 N1034 1.332 . S
C1039 C1035 1.382 . S
C1039 H1041 0.948 . S
H1040 C1038 0.952 . S
H1041 C1039 0.948 . S
H1042 C1031 0.952 . S
H1043 C1033 0.948 . S
C1044 C1010 1.395 . S
C1044 C1014 1.391 . S
C1045 C1007 1.389 . S
C1045 C1027 1.392 . S
C1046 C1017 1.392 . S
C1046 C1019 1.389 . S
C1047 C1022 1.395 . S
C1047 C1024 1.391 . S
H1048 C1008 0.951 . S
H1049 C1009 0.950 . S
H1050 C1015 0.949 . S
H1051 C1016 0.950 . S
H1052 C1020 0.951 . S
H1053 C1021 0.950 . S
H1054 C1025 0.949 . S
H1055 C1026 0.950 . S
H1056 C1030 0.950 . S
H1057 C1032 0.950 . S
H1058 C1035 0.950 . S
H1059 C1037 0.950 . S
C1060 C1061 1.443 . S
C1060 N1064 1.376 . S
C1060 C1098 1.389 . S
C1061 C1060 1.443 . S
C1061 C1062 1.340 . S
C1061 H1101 0.951 . S
C1062 C1061 1.340 . S
C1062 C1063 1.439 . S
C1062 H1102 0.950 . S
C1063 C1062 1.439 . S
C1063 N1064 1.374 . S
C1063 C1097 1.395 . S
N1064 C1060 1.376 . S
N1064 C1063 1.374 . S
N1064 Co1065 2.008 . S
Co1065 N1064 2.008 . S
Co1065 N1066 1.995 . S
Co1065 N1071 2.008 . S
Co1065 N1076 1.995 . S
Co1065 N1081 2.282 . S
Co1065 N1087 2.282 . S
N1066 Co1065 1.995 . S
N1066 C1067 1.376 . S
N1066 C1070 1.383 . S
C1067 N1066 1.376 . S
C1067 C1068 1.446 . S
C1067 C1097 1.391 . S
C1068 C1067 1.446 . S
C1068 C1069 1.339 . S
C1068 H1103 0.949 . S
C1069 C1068 1.339 . S
C1069 C1070 1.439 . S
C1069 H1104 0.950 . S
C1070 N1066 1.383 . S
C1070 C1069 1.439 . S
C1070 C1099 1.392 . S
N1071 Co1065 2.008 . S
N1071 C1072 1.376 . S
N1071 C1075 1.374 . S
C1072 N1071 1.376 . S
C1072 C1073 1.443 . S
C1072 C1099 1.389 . S
C1073 C1072 1.443 . S
C1073 C1074 1.340 . S
C1073 H1105 0.951 . S
C1074 C1073 1.340 . S
C1074 C1075 1.439 . S
C1074 H1106 0.950 . S
C1075 N1071 1.374 . S
C1075 C1074 1.439 . S
C1075 C1100 1.395 . S
N1076 Co1065 1.995 . S
N1076 C1077 1.376 . S
N1076 C1080 1.383 . S
C1077 N1076 1.376 . S
C1077 C1078 1.446 . S
C1077 C1100 1.391 . S
C1078 C1077 1.446 . S
C1078 C1079 1.339 . S
C1078 H1107 0.949 . S
C1079 C1078 1.339 . S
C1079 C1080 1.439 . S
C1079 H1108 0.950 . S
C1080 N1076 1.383 . S
C1080 C1079 1.439 . S
C1080 C1098 1.392 . S
N1081 Co1065 2.282 . S
N1081 C1084 1.332 . S
N1081 C1086 1.332 . S
C1082 C1083 1.386 . S
C1082 C1085 1.388 . S
C1083 C1082 1.386 . S
C1083 C1084 1.382 . S
C1083 H1109 0.950 . S
C1084 N1081 1.332 . S
C1084 C1083 1.382 . S
C1084 H1095 0.952 . S
C1085 C1082 1.388 . S
C1085 C1086 1.382 . S
C1085 H1110 0.950 . S
C1086 N1081 1.332 . S
C1086 C1085 1.382 . S
C1086 H1096 0.948 . S
N1087 Co1065 2.282 . S
N1087 C1091 1.332 . S
N1087 C1092 1.332 . S
C1088 C1089 1.388 . S
C1088 C1092 1.382 . S
C1088 H1111 0.950 . S
C1089 C1088 1.388 . S
C1089 C1090 1.386 . S
C1090 C1089 1.386 . S
C1090 C1091 1.382 . S
C1090 H1112 0.950 . S
C1091 N1087 1.332 . S
C1091 C1090 1.382 . S
C1091 H1093 0.952 . S
C1092 N1087 1.332 . S
C1092 C1088 1.382 . S
C1092 H1094 0.948 . S
H1093 C1091 0.952 . S
H1094 C1092 0.948 . S
H1095 C1084 0.952 . S
H1096 C1086 0.948 . S
C1097 C1063 1.395 . S
C1097 C1067 1.391 . S
C1098 C1060 1.389 . S
C1098 C1080 1.392 . S
C1099 C1070 1.392 . S
C1099 C1072 1.389 . S
C1100 C1075 1.395 . S
C1100 C1077 1.391 . S
H1101 C1061 0.951 . S
H1102 C1062 0.950 . S
H1103 C1068 0.949 . S
H1104 C1069 0.950 . S
H1105 C1073 0.951 . S
H1106 C1074 0.950 . S
H1107 C1078 0.949 . S
H1108 C1079 0.950 . S
H1109 C1083 0.950 . S
H1110 C1085 0.950 . S
H1111 C1088 0.950 . S
H1112 C1090 0.950 . S
C1113 C1114 1.443 . S
C1113 N1117 1.376 . S
C1113 C1151 1.389 . S
C1114 C1113 1.443 . S
C1114 C1115 1.340 . S
C1114 H1154 0.951 . S
C1115 C1114 1.340 . S
C1115 C1116 1.439 . S
C1115 H1155 0.950 . S
C1116 C1115 1.439 . S
C1116 N1117 1.374 . S
C1116 C1150 1.395 . S
N1117 C1113 1.376 . S
N1117 C1116 1.374 . S
N1117 Co1118 2.008 . S
Co1118 N1117 2.008 . S
Co1118 N1119 1.995 . S
Co1118 N1124 2.008 . S
Co1118 N1129 1.995 . S
Co1118 N1134 2.282 . S
Co1118 N1140 2.282 . S
N1119 Co1118 1.995 . S
N1119 C1120 1.376 . S
N1119 C1123 1.383 . S
C1120 N1119 1.376 . S
C1120 C1121 1.446 . S
C1120 C1150 1.391 . S
C1121 C1120 1.446 . S
C1121 C1122 1.339 . S
C1121 H1156 0.949 . S
C1122 C1121 1.339 . S
C1122 C1123 1.439 . S
C1122 H1157 0.950 . S
C1123 N1119 1.383 . S
C1123 C1122 1.439 . S
C1123 C1152 1.392 . S
N1124 Co1118 2.008 . S
N1124 C1125 1.376 . S
N1124 C1128 1.374 . S
C1125 N1124 1.376 . S
C1125 C1126 1.443 . S
C1125 C1152 1.389 . S
C1126 C1125 1.443 . S
C1126 C1127 1.340 . S
C1126 H1158 0.951 . S
C1127 C1126 1.340 . S
C1127 C1128 1.439 . S
C1127 H1159 0.950 . S
C1128 N1124 1.374 . S
C1128 C1127 1.439 . S
C1128 C1153 1.395 . S
N1129 Co1118 1.995 . S
N1129 C1130 1.376 . S
N1129 C1133 1.383 . S
C1130 N1129 1.376 . S
C1130 C1131 1.446 . S
C1130 C1153 1.391 . S
C1131 C1130 1.446 . S
C1131 C1132 1.339 . S
C1131 H1160 0.949 . S
C1132 C1131 1.339 . S
C1132 C1133 1.439 . S
C1132 H1161 0.950 . S
C1133 N1129 1.383 . S
C1133 C1132 1.439 . S
C1133 C1151 1.392 . S
N1134 Co1118 2.282 . S
N1134 C1137 1.332 . S
N1134 C1139 1.332 . S
C1135 C1136 1.386 . S
C1135 C1138 1.388 . S
C1136 C1135 1.386 . S
C1136 C1137 1.382 . S
C1136 H1162 0.950 . S
C1137 N1134 1.332 . S
C1137 C1136 1.382 . S
C1137 H1148 0.952 . S
C1138 C1135 1.388 . S
C1138 C1139 1.382 . S
C1138 H1163 0.950 . S
C1139 N1134 1.332 . S
C1139 C1138 1.382 . S
C1139 H1149 0.948 . S
N1140 Co1118 2.282 . S
N1140 C1144 1.332 . S
N1140 C1145 1.332 . S
C1141 C1142 1.388 . S
C1141 C1145 1.382 . S
C1141 H1164 0.950 . S
C1142 C1141 1.388 . S
C1142 C1143 1.386 . S
C1143 C1142 1.386 . S
C1143 C1144 1.382 . S
C1143 H1165 0.950 . S
C1144 N1140 1.332 . S
C1144 C1143 1.382 . S
C1144 H1146 0.952 . S
C1145 N1140 1.332 . S
C1145 C1141 1.382 . S
C1145 H1147 0.948 . S
H1146 C1144 0.952 . S
H1147 C1145 0.948 . S
H1148 C1137 0.952 . S
H1149 C1139 0.948 . S
C1150 C1116 1.395 . S
C1150 C1120 1.391 . S
C1151 C1113 1.389 . S
C1151 C1133 1.392 . S
C1152 C1123 1.392 . S
C1152 C1125 1.389 . S
C1153 C1128 1.395 . S
C1153 C1130 1.391 . S
H1154 C1114 0.951 . S
H1155 C1115 0.950 . S
H1156 C1121 0.949 . S
H1157 C1122 0.950 . S
H1158 C1126 0.951 . S
H1159 C1127 0.950 . S
H1160 C1131 0.949 . S
H1161 C1132 0.950 . S
H1162 C1136 0.950 . S
H1163 C1138 0.950 . S
H1164 C1141 0.950 . S
H1165 C1143 0.950 . S
C1166 C1167 1.443 . S
C1166 N1170 1.376 . S
C1166 C1204 1.389 . S
C1167 C1166 1.443 . S
C1167 C1168 1.340 . S
C1167 H1207 0.951 . S
C1168 C1167 1.340 . S
C1168 C1169 1.439 . S
C1168 H1208 0.950 . S
C1169 C1168 1.439 . S
C1169 N1170 1.374 . S
C1169 C1203 1.395 . S
N1170 C1166 1.376 . S
N1170 C1169 1.374 . S
N1170 Co1171 2.008 . S
Co1171 N1170 2.008 . S
Co1171 N1172 1.995 . S
Co1171 N1177 2.008 . S
Co1171 N1182 1.995 . S
Co1171 N1187 2.282 . S
Co1171 N1193 2.282 . S
N1172 Co1171 1.995 . S
N1172 C1173 1.376 . S
N1172 C1176 1.383 . S
C1173 N1172 1.376 . S
C1173 C1174 1.446 . S
C1173 C1203 1.391 . S
C1174 C1173 1.446 . S
C1174 C1175 1.339 . S
C1174 H1209 0.949 . S
C1175 C1174 1.339 . S
C1175 C1176 1.439 . S
C1175 H1210 0.950 . S
C1176 N1172 1.383 . S
C1176 C1175 1.439 . S
C1176 C1205 1.392 . S
N1177 Co1171 2.008 . S
N1177 C1178 1.376 . S
N1177 C1181 1.374 . S
C1178 N1177 1.376 . S
C1178 C1179 1.443 . S
C1178 C1205 1.389 . S
C1179 C1178 1.443 . S
C1179 C1180 1.340 . S
C1179 H1211 0.951 . S
C1180 C1179 1.340 . S
C1180 C1181 1.439 . S
C1180 H1212 0.950 . S
C1181 N1177 1.374 . S
C1181 C1180 1.439 . S
C1181 C1206 1.395 . S
N1182 Co1171 1.995 . S
N1182 C1183 1.376 . S
N1182 C1186 1.383 . S
C1183 N1182 1.376 . S
C1183 C1184 1.446 . S
C1183 C1206 1.391 . S
C1184 C1183 1.446 . S
C1184 C1185 1.339 . S
C1184 H1213 0.949 . S
C1185 C1184 1.339 . S
C1185 C1186 1.439 . S
C1185 H1214 0.950 . S
C1186 N1182 1.383 . S
C1186 C1185 1.439 . S
C1186 C1204 1.392 . S
N1187 Co1171 2.282 . S
N1187 C1190 1.332 . S
N1187 C1192 1.332 . S
C1188 C1189 1.386 . S
C1188 C1191 1.388 . S
C1189 C1188 1.386 . S
C1189 C1190 1.382 . S
C1189 H1215 0.950 . S
C1190 N1187 1.332 . S
C1190 C1189 1.382 . S
C1190 H1201 0.952 . S
C1191 C1188 1.388 . S
C1191 C1192 1.382 . S
C1191 H1216 0.950 . S
C1192 N1187 1.332 . S
C1192 C1191 1.382 . S
C1192 H1202 0.948 . S
N1193 Co1171 2.282 . S
N1193 C1197 1.332 . S
N1193 C1198 1.332 . S
C1194 C1195 1.388 . S
C1194 C1198 1.382 . S
C1194 H1217 0.950 . S
C1195 C1194 1.388 . S
C1195 C1196 1.386 . S
C1196 C1195 1.386 . S
C1196 C1197 1.382 . S
C1196 H1218 0.950 . S
C1197 N1193 1.332 . S
C1197 C1196 1.382 . S
C1197 H1199 0.952 . S
C1198 N1193 1.332 . S
C1198 C1194 1.382 . S
C1198 H1200 0.948 . S
H1199 C1197 0.952 . S
H1200 C1198 0.948 . S
H1201 C1190 0.952 . S
H1202 C1192 0.948 . S
C1203 C1169 1.395 . S
C1203 C1173 1.391 . S
C1204 C1166 1.389 . S
C1204 C1186 1.392 . S
C1205 C1176 1.392 . S
C1205 C1178 1.389 . S
C1206 C1181 1.395 . S
C1206 C1183 1.391 . S
H1207 C1167 0.951 . S
H1208 C1168 0.950 . S
H1209 C1174 0.949 . S
H1210 C1175 0.950 . S
H1211 C1179 0.951 . S
H1212 C1180 0.950 . S
H1213 C1184 0.949 . S
H1214 C1185 0.950 . S
H1215 C1189 0.950 . S
H1216 C1191 0.950 . S
H1217 C1194 0.950 . S
H1218 C1196 0.950 . S
C1219 C1220 1.443 . S
C1219 N1223 1.376 . S
C1219 C1257 1.389 . S
C1220 C1219 1.443 . S
C1220 C1221 1.340 . S
C1220 H1260 0.951 . S
C1221 C1220 1.340 . S
C1221 C1222 1.439 . S
C1221 H1261 0.950 . S
C1222 C1221 1.439 . S
C1222 N1223 1.374 . S
C1222 C1256 1.395 . S
N1223 C1219 1.376 . S
N1223 C1222 1.374 . S
N1223 Co1224 2.008 . S
Co1224 N1223 2.008 . S
Co1224 N1225 1.995 . S
Co1224 N1230 2.008 . S
Co1224 N1235 1.995 . S
Co1224 N1240 2.282 . S
Co1224 N1246 2.282 . S
N1225 Co1224 1.995 . S
N1225 C1226 1.376 . S
N1225 C1229 1.383 . S
C1226 N1225 1.376 . S
C1226 C1227 1.446 . S
C1226 C1256 1.391 . S
C1227 C1226 1.446 . S
C1227 C1228 1.339 . S
C1227 H1262 0.949 . S
C1228 C1227 1.339 . S
C1228 C1229 1.439 . S
C1228 H1263 0.950 . S
C1229 N1225 1.383 . S
C1229 C1228 1.439 . S
C1229 C1258 1.392 . S
N1230 Co1224 2.008 . S
N1230 C1231 1.376 . S
N1230 C1234 1.374 . S
C1231 N1230 1.376 . S
C1231 C1232 1.443 . S
C1231 C1258 1.389 . S
C1232 C1231 1.443 . S
C1232 C1233 1.340 . S
C1232 H1264 0.951 . S
C1233 C1232 1.340 . S
C1233 C1234 1.439 . S
C1233 H1265 0.950 . S
C1234 N1230 1.374 . S
C1234 C1233 1.439 . S
C1234 C1259 1.395 . S
N1235 Co1224 1.995 . S
N1235 C1236 1.376 . S
N1235 C1239 1.383 . S
C1236 N1235 1.376 . S
C1236 C1237 1.446 . S
C1236 C1259 1.391 . S
C1237 C1236 1.446 . S
C1237 C1238 1.339 . S
C1237 H1266 0.949 . S
C1238 C1237 1.339 . S
C1238 C1239 1.439 . S
C1238 H1267 0.950 . S
C1239 N1235 1.383 . S
C1239 C1238 1.439 . S
C1239 C1257 1.392 . S
N1240 Co1224 2.282 . S
N1240 C1243 1.332 . S
N1240 C1245 1.332 . S
C1241 C1242 1.386 . S
C1241 C1244 1.388 . S
C1242 C1241 1.386 . S
C1242 C1243 1.382 . S
C1242 H1268 0.950 . S
C1243 N1240 1.332 . S
C1243 C1242 1.382 . S
C1243 H1254 0.952 . S
C1244 C1241 1.388 . S
C1244 C1245 1.382 . S
C1244 H1269 0.950 . S
C1245 N1240 1.332 . S
C1245 C1244 1.382 . S
C1245 H1255 0.948 . S
N1246 Co1224 2.282 . S
N1246 C1250 1.332 . S
N1246 C1251 1.332 . S
C1247 C1248 1.388 . S
C1247 C1251 1.382 . S
C1247 H1270 0.950 . S
C1248 C1247 1.388 . S
C1248 C1249 1.386 . S
C1249 C1248 1.386 . S
C1249 C1250 1.382 . S
C1249 H1271 0.950 . S
C1250 N1246 1.332 . S
C1250 C1249 1.382 . S
C1250 H1252 0.952 . S
C1251 N1246 1.332 . S
C1251 C1247 1.382 . S
C1251 H1253 0.948 . S
H1252 C1250 0.952 . S
H1253 C1251 0.948 . S
H1254 C1243 0.952 . S
H1255 C1245 0.948 . S
C1256 C1222 1.395 . S
C1256 C1226 1.391 . S
C1257 C1219 1.389 . S
C1257 C1239 1.392 . S
C1258 C1229 1.392 . S
C1258 C1231 1.389 . S
C1259 C1234 1.395 . S
C1259 C1236 1.391 . S
H1260 C1220 0.951 . S
H1261 C1221 0.950 . S
H1262 C1227 0.949 . S
H1263 C1228 0.950 . S
H1264 C1232 0.951 . S
H1265 C1233 0.950 . S
H1266 C1237 0.949 . S
H1267 C1238 0.950 . S
H1268 C1242 0.950 . S
H1269 C1244 0.950 . S
H1270 C1247 0.950 . S
H1271 C1249 0.950 . S
H1272 C1284 0.930 . S
H1273 C1286 0.930 . S
H1274 C1287 0.930 . S
H1275 C1291 0.959 . S
H1276 C1291 0.959 . S
H1277 C1291 0.961 . S
H1278 C1292 0.960 . S
H1279 C1292 0.961 . S
H1280 C1292 0.959 . S
H1281 C1295 0.929 . S
H1282 C1296 0.931 . S
H1283 C1298 0.930 . S
C1284 H1272 0.930 . S
C1284 C1285 1.399 . S
C1284 C1289 1.399 . S
C1285 C1284 1.399 . S
C1285 C1286 1.376 . S
C1286 H1273 0.930 . S
C1286 C1285 1.376 . S
C1286 C1287 1.388 . S
C1287 H1274 0.930 . S
C1287 C1286 1.388 . S
C1287 C1288 1.390 . S
C1288 C1287 1.390 . S
C1288 C1289 1.394 . S
C1288 C1294 1.465 . S
C1289 C1284 1.399 . S
C1289 C1288 1.394 . S
C1289 C1290 1.516 . S
C1290 C1289 1.516 . S
C1290 C1291 1.502 . S
C1290 C1292 1.561 . S
C1290 C1293 1.526 . S
C1291 H1275 0.959 . S
C1291 H1276 0.959 . S
C1291 H1277 0.961 . S
C1291 C1290 1.502 . S
C1292 H1278 0.960 . S
C1292 H1279 0.961 . S
C1292 H1280 0.959 . S
C1292 C1290 1.561 . S
C1293 C1290 1.526 . S
C1293 C1294 1.396 . S
C1293 C1298 1.390 . S
C1294 C1288 1.465 . S
C1294 C1293 1.396 . S
C1294 C1295 1.399 . S
C1295 H1281 0.929 . S
C1295 C1294 1.399 . S
C1295 C1296 1.385 . S
C1296 H1282 0.931 . S
C1296 C1295 1.385 . S
C1296 C1297 1.389 . S
C1297 C1296 1.389 . S
C1297 C1298 1.387 . S
C1298 H1283 0.930 . S
C1298 C1293 1.390 . S
C1298 C1297 1.387 . S
H1299 C1311 0.930 . S
H1300 C1313 0.930 . S
H1301 C1314 0.930 . S
H1302 C1318 0.959 . S
H1303 C1318 0.946 1_455 S
H1304 C1318 0.961 . S
H1305 C1319 0.960 . S
H1306 C1319 0.961 . S
H1307 C1319 0.959 . S
H1308 C1322 0.929 . S
H1309 C1323 0.931 . S
H1310 C1325 0.930 . S
C1311 H1299 0.930 . S
C1311 C1312 1.399 . S
C1311 C1316 1.399 . S
C1312 C1311 1.399 . S
C1312 C1313 1.376 . S
C1313 H1300 0.930 . S
C1313 C1312 1.376 . S
C1313 C1314 1.388 . S
C1314 H1301 0.930 . S
C1314 C1313 1.388 . S
C1314 C1315 1.390 . S
C1315 C1314 1.390 . S
C1315 C1316 1.394 . S
C1315 C1321 1.465 . S
C1316 C1311 1.399 . S
C1316 C1315 1.394 . S
C1316 C1317 1.516 . S
C1317 C1316 1.516 . S
C1317 C1318 1.502 . S
C1317 C1319 1.561 . S
C1317 C1320 1.526 1_655 S
C1318 H1302 0.959 . S
C1318 H1303 0.946 1_655 S
C1318 H1304 0.961 . S
C1318 C1317 1.502 . S
C1319 H1305 0.960 . S
C1319 H1306 0.961 . S
C1319 H1307 0.959 . S
C1319 C1317 1.561 . S
C1320 C1317 1.526 1_455 S
C1320 C1321 1.396 1_455 S
C1320 C1325 1.390 . S
C1321 C1315 1.465 . S
C1321 C1320 1.396 1_655 S
C1321 C1322 1.399 1_655 S
C1322 H1308 0.929 . S
C1322 C1321 1.399 1_455 S
C1322 C1323 1.385 . S
C1323 H1309 0.931 . S
C1323 C1322 1.385 . S
C1323 C1324 1.389 . S
C1324 C1323 1.389 . S
C1324 C1325 1.387 . S
C1325 H1310 0.930 . S
C1325 C1320 1.390 . S
C1325 C1324 1.387 . S
H1326 C1338 0.930 . S
H1327 C1340 0.930 . S
H1328 C1341 0.930 . S
H1329 C1345 0.959 . S
H1330 C1345 0.959 . S
H1331 C1345 0.961 . S
H1332 C1346 0.960 . S
H1333 C1346 0.961 . S
H1334 C1346 0.959 . S
H1335 C1349 0.929 . S
H1336 C1350 0.931 . S
H1337 C1352 0.930 . S
C1338 H1326 0.930 . S
C1338 C1339 1.399 . S
C1338 C1343 1.399 . S
C1339 C1338 1.399 . S
C1339 C1340 1.376 . S
C1340 H1327 0.930 . S
C1340 C1339 1.376 . S
C1340 C1341 1.388 . S
C1341 H1328 0.930 . S
C1341 C1340 1.388 . S
C1341 C1342 1.390 . S
C1342 C1341 1.390 . S
C1342 C1343 1.394 . S
C1342 C1348 1.465 . S
C1343 C1338 1.399 . S
C1343 C1342 1.394 . S
C1343 C1344 1.516 . S
C1344 C1343 1.516 . S
C1344 C1345 1.502 . S
C1344 C1346 1.561 . S
C1344 C1347 1.526 . S
C1345 H1329 0.959 . S
C1345 H1330 0.959 . S
C1345 H1331 0.961 . S
C1345 C1344 1.502 . S
C1346 H1332 0.960 . S
C1346 H1333 0.961 . S
C1346 H1334 0.959 . S
C1346 C1344 1.561 . S
C1347 C1344 1.526 . S
C1347 C1348 1.396 . S
C1347 C1352 1.390 . S
C1348 C1342 1.465 . S
C1348 C1347 1.396 . S
C1348 C1349 1.399 . S
C1349 H1335 0.929 . S
C1349 C1348 1.399 . S
C1349 C1350 1.385 . S
C1350 H1336 0.931 . S
C1350 C1349 1.385 . S
C1350 C1351 1.389 . S
C1351 C1350 1.389 . S
C1351 C1352 1.387 . S
C1352 H1337 0.930 . S
C1352 C1347 1.390 . S
C1352 C1351 1.387 . S
H1353 C1365 0.930 . S
H1354 C1367 0.930 . S
H1355 C1368 0.930 . S
H1356 C1372 0.959 . S
H1357 C1372 0.959 1_655 S
H1358 C1372 0.961 . S
H1359 C1373 0.960 . S
H1360 C1373 0.961 1_655 S
H1361 C1373 0.959 . S
H1362 C1376 0.929 . S
H1363 C1377 0.931 . S
H1364 C1379 0.930 . S
C1365 H1353 0.930 . S
C1365 C1366 1.399 . S
C1365 C1370 1.399 . S
C1366 C1365 1.399 . S
C1366 C1367 1.376 . S
C1367 H1354 0.930 . S
C1367 C1366 1.376 . S
C1367 C1368 1.388 . S
C1368 H1355 0.930 . S
C1368 C1367 1.388 . S
C1368 C1369 1.390 . S
C1369 C1368 1.390 . S
C1369 C1370 1.394 . S
C1369 C1375 1.465 1_455 S
C1370 C1365 1.399 . S
C1370 C1369 1.394 . S
C1370 C1371 1.516 . S
C1371 C1370 1.516 . S
C1371 C1372 1.502 . S
C1371 C1373 1.561 . S
C1371 C1374 1.526 1_455 S
C1372 H1356 0.959 . S
C1372 H1357 0.959 1_455 S
C1372 H1358 0.961 . S
C1372 C1371 1.502 . S
C1373 H1359 0.960 . S
C1373 H1360 0.961 1_455 S
C1373 H1361 0.959 . S
C1373 C1371 1.561 . S
C1374 C1371 1.526 1_655 S
C1374 C1375 1.396 . S
C1374 C1379 1.390 . S
C1375 C1369 1.465 1_655 S
C1375 C1374 1.396 . S
C1375 C1376 1.399 . S
C1376 H1362 0.929 . S
C1376 C1375 1.399 . S
C1376 C1377 1.385 . S
C1377 H1363 0.931 . S
C1377 C1376 1.385 . S
C1377 C1378 1.389 . S
C1378 C1377 1.389 . S
C1378 C1379 1.387 . S
C1379 H1364 0.930 . S
C1379 C1374 1.390 . S
C1379 C1378 1.387 . S
H1380 C1392 0.930 . S
H1381 C1394 0.930 . S
H1382 C1395 0.930 . S
H1383 C1399 0.959 . S
H1384 C1399 0.959 . S
H1385 C1399 0.961 . S
H1386 C1400 0.960 . S
H1387 C1400 0.961 . S
H1388 C1400 0.959 . S
H1389 C1403 0.929 . S
H1390 C1404 0.931 . S
H1391 C1406 0.930 . S
C1392 H1380 0.930 . S
C1392 C1393 1.399 . S
C1392 C1397 1.399 . S
C1393 C1392 1.399 . S
C1393 C1394 1.376 . S
C1394 H1381 0.930 . S
C1394 C1393 1.376 . S
C1394 C1395 1.388 . S
C1395 H1382 0.930 . S
C1395 C1394 1.388 . S
C1395 C1396 1.390 . S
C1396 C1395 1.390 . S
C1396 C1397 1.394 . S
C1396 C1402 1.465 . S
C1397 C1392 1.399 . S
C1397 C1396 1.394 . S
C1397 C1398 1.516 . S
C1398 C1397 1.516 . S
C1398 C1399 1.502 . S
C1398 C1400 1.561 . S
C1398 C1401 1.526 . S
C1399 H1383 0.959 . S
C1399 H1384 0.959 . S
C1399 H1385 0.961 . S
C1399 C1398 1.502 . S
C1400 H1386 0.960 . S
C1400 H1387 0.961 . S
C1400 H1388 0.959 . S
C1400 C1398 1.561 . S
C1401 C1398 1.526 . S
C1401 C1402 1.396 . S
C1401 C1406 1.390 . S
C1402 C1396 1.465 . S
C1402 C1401 1.396 . S
C1402 C1403 1.399 . S
C1403 H1389 0.929 . S
C1403 C1402 1.399 . S
C1403 C1404 1.385 . S
C1404 H1390 0.931 . S
C1404 C1403 1.385 . S
C1404 C1405 1.389 . S
C1405 C1404 1.389 . S
C1405 C1406 1.387 . S
C1406 H1391 0.930 . S
C1406 C1401 1.390 . S
C1406 C1405 1.387 . S
H1407 C1419 0.930 . S
H1408 C1421 0.930 . S
H1409 C1422 0.930 . S
H1410 C1426 0.959 . S
H1411 C1426 0.959 . S
H1412 C1426 0.961 1_655 S
H1413 C1427 0.960 1_655 S
H1414 C1427 0.961 . S
H1415 C1427 0.959 . S
H1416 C1430 0.929 . S
H1417 C1431 0.931 . S
H1418 C1433 0.930 . S
C1419 H1407 0.930 . S
C1419 C1420 1.399 . S
C1419 C1424 1.399 . S
C1420 C1419 1.399 . S
C1420 C1421 1.376 . S
C1421 H1408 0.930 . S
C1421 C1420 1.376 . S
C1421 C1422 1.388 . S
C1422 H1409 0.930 . S
C1422 C1421 1.388 . S
C1422 C1423 1.390 . S
C1423 C1422 1.390 . S
C1423 C1424 1.394 . S
C1423 C1429 1.465 1_655 S
C1424 C1419 1.399 . S
C1424 C1423 1.394 . S
C1424 C1425 1.516 1_655 S
C1425 C1424 1.516 1_455 S
C1425 C1426 1.502 . S
C1425 C1427 1.561 . S
C1425 C1428 1.526 . S
C1426 H1410 0.959 . S
C1426 H1411 0.959 . S
C1426 H1412 0.961 1_455 S
C1426 C1425 1.502 . S
C1427 H1413 0.960 1_455 S
C1427 H1414 0.961 . S
C1427 H1415 0.959 . S
C1427 C1425 1.561 . S
C1428 C1425 1.526 . S
C1428 C1429 1.396 . S
C1428 C1433 1.390 . S
C1429 C1423 1.465 1_455 S
C1429 C1428 1.396 . S
C1429 C1430 1.399 . S
C1430 H1416 0.929 . S
C1430 C1429 1.399 . S
C1430 C1431 1.385 . S
C1431 H1417 0.931 . S
C1431 C1430 1.385 . S
C1431 C1432 1.389 . S
C1432 C1431 1.389 . S
C1432 C1433 1.387 . S
C1433 H1418 0.930 . S
C1433 C1428 1.390 . S
C1433 C1432 1.387 . S
H1434 C1446 0.930 . S
H1435 C1448 0.930 . S
H1436 C1449 0.930 . S
H1437 C1453 0.959 . S
H1438 C1453 0.959 . S
H1439 C1453 0.961 . S
H1440 C1454 0.960 . S
H1441 C1454 0.961 . S
H1442 C1454 0.959 . S
H1443 C1457 0.929 . S
H1444 C1458 0.931 . S
H1445 C1460 0.930 . S
C1446 H1434 0.930 . S
C1446 C1447 1.399 . S
C1446 C1451 1.399 . S
C1447 C1446 1.399 . S
C1447 C1448 1.376 . S
C1448 H1435 0.930 . S
C1448 C1447 1.376 . S
C1448 C1449 1.388 . S
C1449 H1436 0.930 . S
C1449 C1448 1.388 . S
C1449 C1450 1.390 . S
C1450 C1449 1.390 . S
C1450 C1451 1.394 . S
C1450 C1456 1.465 . S
C1451 C1446 1.399 . S
C1451 C1450 1.394 . S
C1451 C1452 1.516 . S
C1452 C1451 1.516 . S
C1452 C1453 1.502 . S
C1452 C1454 1.561 . S
C1452 C1455 1.526 . S
C1453 H1437 0.959 . S
C1453 H1438 0.959 . S
C1453 H1439 0.961 . S
C1453 C1452 1.502 . S
C1454 H1440 0.960 . S
C1454 H1441 0.961 . S
C1454 H1442 0.959 . S
C1454 C1452 1.561 . S
C1455 C1452 1.526 . S
C1455 C1456 1.396 . S
C1455 C1460 1.390 . S
C1456 C1450 1.465 . S
C1456 C1455 1.396 . S
C1456 C1457 1.399 . S
C1457 H1443 0.929 . S
C1457 C1456 1.399 . S
C1457 C1458 1.385 . S
C1458 H1444 0.931 . S
C1458 C1457 1.385 . S
C1458 C1459 1.389 . S
C1459 C1458 1.389 . S
C1459 C1460 1.387 . S
C1460 H1445 0.930 . S
C1460 C1455 1.390 . S
C1460 C1459 1.387 . S
H1461 C1473 0.930 . S
H1462 C1475 0.930 . S
H1463 C1476 0.930 . S
H1464 C1480 0.959 . S
H1465 C1480 0.959 . S
H1466 C1480 0.961 1_655 S
H1467 C1481 0.960 1_655 S
H1468 C1481 0.961 . S
H1469 C1481 0.959 . S
H1470 C1484 0.929 . S
H1471 C1485 0.931 . S
H1472 C1487 0.930 . S
C1473 H1461 0.930 . S
C1473 C1474 1.399 . S
C1473 C1478 1.399 . S
C1474 C1473 1.399 . S
C1474 C1475 1.376 . S
C1475 H1462 0.930 . S
C1475 C1474 1.376 . S
C1475 C1476 1.388 . S
C1476 H1463 0.930 . S
C1476 C1475 1.388 . S
C1476 C1477 1.390 . S
C1477 C1476 1.390 . S
C1477 C1478 1.394 . S
C1477 C1483 1.465 1_655 S
C1478 C1473 1.399 . S
C1478 C1477 1.394 . S
C1478 C1479 1.516 1_655 S
C1479 C1478 1.516 1_455 S
C1479 C1480 1.502 . S
C1479 C1481 1.561 . S
C1479 C1482 1.526 . S
C1480 H1464 0.959 . S
C1480 H1465 0.959 . S
C1480 H1466 0.961 1_455 S
C1480 C1479 1.502 . S
C1481 H1467 0.960 1_455 S
C1481 H1468 0.961 . S
C1481 H1469 0.959 . S
C1481 C1479 1.561 . S
C1482 C1479 1.526 . S
C1482 C1483 1.396 . S
C1482 C1487 1.390 . S
C1483 C1477 1.465 1_455 S
C1483 C1482 1.396 . S
C1483 C1484 1.399 . S
C1484 H1470 0.929 . S
C1484 C1483 1.399 . S
C1484 C1485 1.385 . S
C1485 H1471 0.931 . S
C1485 C1484 1.385 . S
C1485 C1486 1.389 . S
C1486 C1485 1.389 . S
C1486 C1487 1.387 . S
C1487 H1472 0.930 . S
C1487 C1482 1.390 . S
C1487 C1486 1.387 . S
H1488 C1500 0.930 . S
H1489 C1502 0.930 . S
H1490 C1503 0.930 . S
H1491 C1507 0.959 . S
H1492 C1507 0.959 . S
H1493 C1507 0.961 . S
H1494 C1508 0.960 . S
H1495 C1508 0.961 . S
H1496 C1508 0.959 . S
H1497 C1511 0.929 . S
H1498 C1512 0.931 . S
H1499 C1514 0.930 . S
C1500 H1488 0.930 . S
C1500 C1501 1.399 . S
C1500 C1505 1.399 . S
C1501 C1500 1.399 . S
C1501 C1502 1.376 . S
C1502 H1489 0.930 . S
C1502 C1501 1.376 . S
C1502 C1503 1.388 . S
C1503 H1490 0.930 . S
C1503 C1502 1.388 . S
C1503 C1504 1.390 . S
C1504 C1503 1.390 . S
C1504 C1505 1.394 . S
C1504 C1510 1.465 . S
C1505 C1500 1.399 . S
C1505 C1504 1.394 . S
C1505 C1506 1.516 . S
C1506 C1505 1.516 . S
C1506 C1507 1.502 . S
C1506 C1508 1.561 . S
C1506 C1509 1.526 . S
C1507 H1491 0.959 . S
C1507 H1492 0.959 . S
C1507 H1493 0.961 . S
C1507 C1506 1.502 . S
C1508 H1494 0.960 . S
C1508 H1495 0.961 . S
C1508 H1496 0.959 . S
C1508 C1506 1.561 . S
C1509 C1506 1.526 . S
C1509 C1510 1.396 . S
C1509 C1514 1.390 . S
C1510 C1504 1.465 . S
C1510 C1509 1.396 . S
C1510 C1511 1.399 . S
C1511 H1497 0.929 . S
C1511 C1510 1.399 . S
C1511 C1512 1.385 . S
C1512 H1498 0.931 . S
C1512 C1511 1.385 . S
C1512 C1513 1.389 . S
C1513 C1512 1.389 . S
C1513 C1514 1.387 . S
C1514 H1499 0.930 . S
C1514 C1509 1.390 . S
C1514 C1513 1.387 . S
H1515 C1527 0.930 . S
H1516 C1529 0.930 . S
H1517 C1530 0.930 . S
H1518 C1534 0.959 . S
H1519 C1534 0.959 1_554 S
H1520 C1534 0.961 . S
H1521 C1535 0.960 . S
H1522 C1535 0.961 1_554 S
H1523 C1535 0.959 . S
H1524 C1538 0.929 . S
H1525 C1539 0.931 . S
H1526 C1541 0.930 . S
C1527 H1515 0.930 . S
C1527 C1528 1.399 . S
C1527 C1532 1.399 . S
C1528 C1527 1.399 . S
C1528 C1529 1.376 . S
C1529 H1516 0.930 . S
C1529 C1528 1.376 . S
C1529 C1530 1.388 . S
C1530 H1517 0.930 . S
C1530 C1529 1.388 . S
C1530 C1531 1.390 . S
C1531 C1530 1.390 . S
C1531 C1532 1.394 . S
C1531 C1537 1.465 1_556 S
C1532 C1527 1.399 . S
C1532 C1531 1.394 . S
C1532 C1533 1.516 . S
C1533 C1532 1.516 . S
C1533 C1534 1.502 . S
C1533 C1535 1.561 . S
C1533 C1536 1.526 1_556 S
C1534 H1518 0.959 . S
C1534 H1519 0.959 1_556 S
C1534 H1520 0.961 . S
C1534 C1533 1.502 . S
C1535 H1521 0.960 . S
C1535 H1522 0.961 1_556 S
C1535 H1523 0.959 . S
C1535 C1533 1.561 . S
C1536 C1533 1.526 1_554 S
C1536 C1537 1.396 . S
C1536 C1541 1.390 . S
C1537 C1531 1.465 1_554 S
C1537 C1536 1.396 . S
C1537 C1538 1.399 . S
C1538 H1524 0.929 . S
C1538 C1537 1.399 . S
C1538 C1539 1.385 . S
C1539 H1525 0.931 . S
C1539 C1538 1.385 . S
C1539 C1540 1.389 . S
C1540 C1539 1.389 . S
C1540 C1541 1.387 . S
C1541 H1526 0.930 . S
C1541 C1536 1.390 . S
C1541 C1540 1.387 . S
H1542 C1554 0.930 . S
H1543 C1556 0.930 . S
H1544 C1557 0.930 . S
H1545 C1561 0.959 . S
H1546 C1561 0.959 . S
H1547 C1561 0.961 . S
H1548 C1562 0.960 . S
H1549 C1562 0.961 . S
H1550 C1562 0.959 . S
H1551 C1565 0.929 . S
H1552 C1566 0.931 . S
H1553 C1568 0.930 . S
C1554 H1542 0.930 . S
C1554 C1555 1.399 . S
C1554 C1559 1.399 . S
C1555 C1554 1.399 . S
C1555 C1556 1.376 . S
C1556 H1543 0.930 . S
C1556 C1555 1.376 . S
C1556 C1557 1.388 . S
C1557 H1544 0.930 . S
C1557 C1556 1.388 . S
C1557 C1558 1.390 . S
C1558 C1557 1.390 . S
C1558 C1559 1.394 . S
C1558 C1564 1.465 . S
C1559 C1554 1.399 . S
C1559 C1558 1.394 . S
C1559 C1560 1.516 . S
C1560 C1559 1.516 . S
C1560 C1561 1.502 . S
C1560 C1562 1.561 . S
C1560 C1563 1.526 . S
C1561 H1545 0.959 . S
C1561 H1546 0.959 . S
C1561 H1547 0.961 . S
C1561 C1560 1.502 . S
C1562 H1548 0.960 . S
C1562 H1549 0.961 . S
C1562 H1550 0.959 . S
C1562 C1560 1.561 . S
C1563 C1560 1.526 . S
C1563 C1564 1.396 . S
C1563 C1568 1.390 . S
C1564 C1558 1.465 . S
C1564 C1563 1.396 . S
C1564 C1565 1.399 . S
C1565 H1551 0.929 . S
C1565 C1564 1.399 . S
C1565 C1566 1.385 . S
C1566 H1552 0.931 . S
C1566 C1565 1.385 . S
C1566 C1567 1.389 . S
C1567 C1566 1.389 . S
C1567 C1568 1.387 . S
C1568 H1553 0.930 . S
C1568 C1563 1.390 . S
C1568 C1567 1.387 . S
H1569 C1581 0.930 . S
H1570 C1583 0.930 . S
H1571 C1584 0.930 . S
H1572 C1588 0.960 . S
H1573 C1588 0.963 . S
H1574 C1588 0.957 1_554 S
H1575 C1589 0.960 . S
H1576 C1589 0.961 1_556 S
H1577 C1589 0.959 . S
H1578 C1592 0.929 . S
H1579 C1593 0.931 . S
H1580 C1595 0.930 . S
C1581 H1569 0.930 . S
C1581 C1582 1.399 . S
C1581 C1586 1.399 . S
C1582 C1581 1.399 . S
C1582 C1583 1.376 . S
C1583 H1570 0.930 . S
C1583 C1582 1.376 . S
C1583 C1584 1.388 . S
C1584 H1571 0.930 . S
C1584 C1583 1.388 . S
C1584 C1585 1.390 . S
C1585 C1584 1.390 . S
C1585 C1586 1.394 . S
C1585 C1591 1.465 1_554 S
C1586 C1581 1.399 . S
C1586 C1585 1.394 . S
C1586 C1587 1.516 . S
C1587 C1586 1.516 . S
C1587 C1588 1.501 1_554 S
C1587 C1589 1.561 . S
C1587 C1590 1.526 1_554 S
C1588 H1572 0.960 . S
C1588 H1573 0.963 . S
C1588 H1574 0.957 1_556 S
C1588 C1587 1.501 1_556 S
C1589 H1575 0.960 . S
C1589 H1576 0.961 1_554 S
C1589 H1577 0.959 . S
C1589 C1587 1.561 . S
C1590 C1587 1.526 1_556 S
C1590 C1591 1.396 . S
C1590 C1595 1.390 . S
C1591 C1585 1.465 1_556 S
C1591 C1590 1.396 . S
C1591 C1592 1.399 . S
C1592 H1578 0.929 . S
C1592 C1591 1.399 . S
C1592 C1593 1.385 . S
C1593 H1579 0.931 . S
C1593 C1592 1.385 . S
C1593 C1594 1.389 . S
C1594 C1593 1.389 . S
C1594 C1595 1.387 . S
C1595 H1580 0.930 . S
C1595 C1590 1.390 . S
C1595 C1594 1.387 . S
H1596 C1608 0.930 . S
H1597 C1610 0.930 . S
H1598 C1611 0.930 . S
H1599 C1615 0.959 . S
H1600 C1615 0.959 . S
H1601 C1615 0.961 . S
H1602 C1616 0.960 . S
H1603 C1616 0.961 . S
H1604 C1616 0.959 . S
H1605 C1619 0.929 . S
H1606 C1620 0.931 . S
H1607 C1622 0.930 . S
C1608 H1596 0.930 . S
C1608 C1609 1.399 . S
C1608 C1613 1.399 . S
C1609 C1608 1.399 . S
C1609 C1610 1.376 . S
C1610 H1597 0.930 . S
C1610 C1609 1.376 . S
C1610 C1611 1.388 . S
C1611 H1598 0.930 . S
C1611 C1610 1.388 . S
C1611 C1612 1.390 . S
C1612 C1611 1.390 . S
C1612 C1613 1.394 . S
C1612 C1618 1.465 . S
C1613 C1608 1.399 . S
C1613 C1612 1.394 . S
C1613 C1614 1.516 . S
C1614 C1613 1.516 . S
C1614 C1615 1.502 . S
C1614 C1616 1.561 . S
C1614 C1617 1.526 . S
C1615 H1599 0.959 . S
C1615 H1600 0.959 . S
C1615 H1601 0.961 . S
C1615 C1614 1.502 . S
C1616 H1602 0.960 . S
C1616 H1603 0.961 . S
C1616 H1604 0.959 . S
C1616 C1614 1.561 . S
C1617 C1614 1.526 . S
C1617 C1618 1.396 . S
C1617 C1622 1.390 . S
C1618 C1612 1.465 . S
C1618 C1617 1.396 . S
C1618 C1619 1.399 . S
C1619 H1605 0.929 . S
C1619 C1618 1.399 . S
C1619 C1620 1.385 . S
C1620 H1606 0.931 . S
C1620 C1619 1.385 . S
C1620 C1621 1.389 . S
C1621 C1620 1.389 . S
C1621 C1622 1.387 . S
C1622 H1607 0.930 . S
C1622 C1617 1.390 . S
C1622 C1621 1.387 . S
H1623 C1635 0.930 . S
H1624 C1637 0.930 . S
H1625 C1638 0.930 . S
H1626 C1642 0.959 . S
H1627 C1642 0.959 . S
H1628 C1642 0.961 1_554 S
H1629 C1643 0.960 1_554 S
H1630 C1643 0.961 . S
H1631 C1643 0.959 . S
H1632 C1646 0.929 . S
H1633 C1647 0.931 . S
H1634 C1649 0.930 . S
C1635 H1623 0.930 . S
C1635 C1636 1.399 . S
C1635 C1640 1.399 . S
C1636 C1635 1.399 . S
C1636 C1637 1.376 . S
C1637 H1624 0.930 . S
C1637 C1636 1.376 . S
C1637 C1638 1.388 . S
C1638 H1625 0.930 . S
C1638 C1637 1.388 . S
C1638 C1639 1.390 . S
C1639 C1638 1.390 . S
C1639 C1640 1.394 . S
C1639 C1645 1.465 1_554 S
C1640 C1635 1.399 . S
C1640 C1639 1.394 . S
C1640 C1641 1.516 1_554 S
C1641 C1640 1.516 1_556 S
C1641 C1642 1.502 . S
C1641 C1643 1.561 . S
C1641 C1644 1.526 . S
C1642 H1626 0.959 . S
C1642 H1627 0.959 . S
C1642 H1628 0.961 1_556 S
C1642 C1641 1.502 . S
C1643 H1629 0.960 1_556 S
C1643 H1630 0.961 . S
C1643 H1631 0.959 . S
C1643 C1641 1.561 . S
C1644 C1641 1.526 . S
C1644 C1645 1.396 . S
C1644 C1649 1.390 . S
C1645 C1639 1.465 1_556 S
C1645 C1644 1.396 . S
C1645 C1646 1.399 . S
C1646 H1632 0.929 . S
C1646 C1645 1.399 . S
C1646 C1647 1.385 . S
C1647 H1633 0.931 . S
C1647 C1646 1.385 . S
C1647 C1648 1.389 . S
C1648 C1647 1.389 . S
C1648 C1649 1.387 . S
C1649 H1634 0.930 . S
C1649 C1644 1.390 . S
C1649 C1648 1.387 . S
H1650 C1662 0.930 . S
H1651 C1664 0.930 . S
H1652 C1665 0.930 . S
H1653 C1669 0.959 . S
H1654 C1669 0.959 . S
H1655 C1669 0.961 . S
H1656 C1670 0.960 . S
H1657 C1670 0.961 . S
H1658 C1670 0.959 . S
H1659 C1673 0.929 . S
H1660 C1674 0.931 . S
H1661 C1676 0.930 . S
C1662 H1650 0.930 . S
C1662 C1663 1.399 . S
C1662 C1667 1.399 . S
C1663 C1662 1.399 . S
C1663 C1664 1.376 . S
C1664 H1651 0.930 . S
C1664 C1663 1.376 . S
C1664 C1665 1.388 . S
C1665 H1652 0.930 . S
C1665 C1664 1.388 . S
C1665 C1666 1.390 . S
C1666 C1665 1.390 . S
C1666 C1667 1.394 . S
C1666 C1672 1.465 . S
C1667 C1662 1.399 . S
C1667 C1666 1.394 . S
C1667 C1668 1.516 . S
C1668 C1667 1.516 . S
C1668 C1669 1.502 . S
C1668 C1670 1.561 . S
C1668 C1671 1.526 . S
C1669 H1653 0.959 . S
C1669 H1654 0.959 . S
C1669 H1655 0.961 . S
C1669 C1668 1.502 . S
C1670 H1656 0.960 . S
C1670 H1657 0.961 . S
C1670 H1658 0.959 . S
C1670 C1668 1.561 . S
C1671 C1668 1.526 . S
C1671 C1672 1.396 . S
C1671 C1676 1.390 . S
C1672 C1666 1.465 . S
C1672 C1671 1.396 . S
C1672 C1673 1.399 . S
C1673 H1659 0.929 . S
C1673 C1672 1.399 . S
C1673 C1674 1.385 . S
C1674 H1660 0.931 . S
C1674 C1673 1.385 . S
C1674 C1675 1.389 . S
C1675 C1674 1.389 . S
C1675 C1676 1.387 . S
C1676 H1661 0.930 . S
C1676 C1671 1.390 . S
C1676 C1675 1.387 . S
H1677 C1689 0.930 . S
H1678 C1691 0.930 . S
H1679 C1692 0.930 . S
H1680 C1696 0.959 . S
H1681 C1696 0.959 1_556 S
H1682 C1696 0.961 . S
H1683 C1697 0.960 . S
H1684 C1697 0.961 . S
H1685 C1697 0.959 . S
H1686 C1700 0.922 1_554 S
H1687 C1701 0.931 . S
H1688 C1703 0.930 . S
C1689 H1677 0.930 . S
C1689 C1690 1.399 . S
C1689 C1694 1.399 . S
C1690 C1689 1.399 . S
C1690 C1691 1.376 . S
C1691 H1678 0.930 . S
C1691 C1690 1.376 . S
C1691 C1692 1.388 . S
C1692 H1679 0.930 . S
C1692 C1691 1.388 . S
C1692 C1693 1.390 . S
C1693 C1692 1.390 . S
C1693 C1694 1.394 . S
C1693 C1699 1.465 . S
C1694 C1689 1.399 . S
C1694 C1693 1.394 . S
C1694 C1695 1.516 . S
C1695 C1694 1.516 . S
C1695 C1696 1.502 . S
C1695 C1697 1.561 . S
C1695 C1698 1.526 1_554 S
C1696 H1680 0.959 . S
C1696 H1681 0.959 1_554 S
C1696 H1682 0.961 . S
C1696 C1695 1.502 . S
C1697 H1683 0.960 . S
C1697 H1684 0.961 . S
C1697 H1685 0.959 . S
C1697 C1695 1.561 . S
C1698 C1695 1.526 1_556 S
C1698 C1699 1.396 1_556 S
C1698 C1703 1.390 . S
C1699 C1693 1.465 . S
C1699 C1698 1.396 1_554 S
C1699 C1700 1.399 1_554 S
C1700 H1686 0.922 1_556 S
C1700 C1699 1.399 1_556 S
C1700 C1701 1.385 . S
C1701 H1687 0.931 . S
C1701 C1700 1.385 . S
C1701 C1702 1.389 . S
C1702 C1701 1.389 . S
C1702 C1703 1.387 . S
C1703 H1688 0.930 . S
C1703 C1698 1.390 . S
C1703 C1702 1.387 . S
H1704 C1716 0.930 . S
H1705 C1718 0.930 . S
H1706 C1719 0.930 . S
H1707 C1723 0.959 . S
H1708 C1723 0.959 . S
H1709 C1723 0.961 . S
H1710 C1724 0.960 . S
H1711 C1724 0.961 . S
H1712 C1724 0.959 . S
H1713 C1727 0.929 . S
H1714 C1728 0.931 . S
H1715 C1730 0.930 . S
C1716 H1704 0.930 . S
C1716 C1717 1.399 . S
C1716 C1721 1.399 . S
C1717 C1716 1.399 . S
C1717 C1718 1.376 . S
C1718 H1705 0.930 . S
C1718 C1717 1.376 . S
C1718 C1719 1.388 . S
C1719 H1706 0.930 . S
C1719 C1718 1.388 . S
C1719 C1720 1.390 . S
C1720 C1719 1.390 . S
C1720 C1721 1.394 . S
C1720 C1726 1.465 . S
C1721 C1716 1.399 . S
C1721 C1720 1.394 . S
C1721 C1722 1.516 . S
C1722 C1721 1.516 . S
C1722 C1723 1.502 . S
C1722 C1724 1.561 . S
C1722 C1725 1.526 . S
C1723 H1707 0.959 . S
C1723 H1708 0.959 . S
C1723 H1709 0.961 . S
C1723 C1722 1.502 . S
C1724 H1710 0.960 . S
C1724 H1711 0.961 . S
C1724 H1712 0.959 . S
C1724 C1722 1.561 . S
C1725 C1722 1.526 . S
C1725 C1726 1.396 . S
C1725 C1730 1.390 . S
C1726 C1720 1.465 . S
C1726 C1725 1.396 . S
C1726 C1727 1.399 . S
C1727 H1713 0.929 . S
C1727 C1726 1.399 . S
C1727 C1728 1.385 . S
C1728 H1714 0.931 . S
C1728 C1727 1.385 . S
C1728 C1729 1.389 . S
C1729 C1728 1.389 . S
C1729 C1730 1.387 . S
C1730 H1715 0.930 . S
C1730 C1725 1.390 . S
C1730 C1729 1.387 . S
H1731 C1743 0.930 . S
H1732 C1745 0.930 . S
H1733 C1746 0.930 . S
H1734 C1750 0.959 . S
H1735 C1750 0.959 . S
H1736 C1750 0.961 . S
H1737 C1751 0.960 . S
H1738 C1751 0.961 . S
H1739 C1751 0.959 . S
H1740 C1754 0.929 . S
H1741 C1755 0.931 . S
H1742 C1757 0.930 . S
C1743 H1731 0.930 . S
C1743 C1744 1.399 . S
C1743 C1748 1.399 . S
C1744 C1743 1.399 . S
C1744 C1745 1.376 . S
C1745 H1732 0.930 . S
C1745 C1744 1.376 . S
C1745 C1746 1.388 . S
C1746 H1733 0.930 . S
C1746 C1745 1.388 . S
C1746 C1747 1.390 . S
C1747 C1746 1.390 . S
C1747 C1748 1.394 . S
C1747 C1753 1.465 . S
C1748 C1743 1.399 . S
C1748 C1747 1.394 . S
C1748 C1749 1.516 . S
C1749 C1748 1.516 . S
C1749 C1750 1.502 . S
C1749 C1751 1.561 . S
C1749 C1752 1.526 . S
C1750 H1734 0.959 . S
C1750 H1735 0.959 . S
C1750 H1736 0.961 . S
C1750 C1749 1.502 . S
C1751 H1737 0.960 . S
C1751 H1738 0.961 . S
C1751 H1739 0.959 . S
C1751 C1749 1.561 . S
C1752 C1749 1.526 . S
C1752 C1753 1.396 . S
C1752 C1757 1.390 . S
C1753 C1747 1.465 . S
C1753 C1752 1.396 . S
C1753 C1754 1.399 . S
C1754 H1740 0.929 . S
C1754 C1753 1.399 . S
C1754 C1755 1.385 . S
C1755 H1741 0.931 . S
C1755 C1754 1.385 . S
C1755 C1756 1.389 . S
C1756 C1755 1.389 . S
C1756 C1757 1.387 . S
C1757 H1742 0.930 . S
C1757 C1752 1.390 . S
C1757 C1756 1.387 . S
H1758 C1770 0.930 . S
H1759 C1772 0.930 . S
H1760 C1773 0.930 . S
H1761 C1777 0.959 . S
H1762 C1777 0.959 . S
H1763 C1777 0.961 1_565 S
H1764 C1778 0.960 1_565 S
H1765 C1778 0.961 . S
H1766 C1778 0.959 . S
H1767 C1781 0.929 . S
H1768 C1782 0.931 . S
H1769 C1784 0.930 . S
C1770 H1758 0.930 . S
C1770 C1771 1.399 . S
C1770 C1775 1.399 . S
C1771 C1770 1.399 . S
C1771 C1772 1.376 . S
C1772 H1759 0.930 . S
C1772 C1771 1.376 . S
C1772 C1773 1.388 . S
C1773 H1760 0.930 . S
C1773 C1772 1.388 . S
C1773 C1774 1.390 . S
C1774 C1773 1.390 . S
C1774 C1775 1.394 . S
C1774 C1780 1.465 1_565 S
C1775 C1770 1.399 . S
C1775 C1774 1.394 . S
C1775 C1776 1.516 1_565 S
C1776 C1775 1.516 1_545 S
C1776 C1777 1.502 . S
C1776 C1778 1.561 . S
C1776 C1779 1.526 . S
C1777 H1761 0.959 . S
C1777 H1762 0.959 . S
C1777 H1763 0.961 1_545 S
C1777 C1776 1.502 . S
C1778 H1764 0.960 1_545 S
C1778 H1765 0.961 . S
C1778 H1766 0.959 . S
C1778 C1776 1.561 . S
C1779 C1776 1.526 . S
C1779 C1780 1.396 . S
C1779 C1784 1.390 . S
C1780 C1774 1.465 1_545 S
C1780 C1779 1.396 . S
C1780 C1781 1.399 . S
C1781 H1767 0.929 . S
C1781 C1780 1.399 . S
C1781 C1782 1.385 . S
C1782 H1768 0.931 . S
C1782 C1781 1.385 . S
C1782 C1783 1.389 . S
C1783 C1782 1.389 . S
C1783 C1784 1.387 . S
C1784 H1769 0.930 . S
C1784 C1779 1.390 . S
C1784 C1783 1.387 . S
H1785 C1797 0.930 . S
H1786 C1799 0.930 . S
H1787 C1800 0.930 . S
H1788 C1804 0.959 . S
H1789 C1804 0.959 . S
H1790 C1804 0.961 . S
H1791 C1805 0.960 . S
H1792 C1805 0.961 . S
H1793 C1805 0.959 . S
H1794 C1808 0.929 . S
H1795 C1809 0.931 . S
H1796 C1811 0.930 . S
C1797 H1785 0.930 . S
C1797 C1798 1.399 . S
C1797 C1802 1.399 . S
C1798 C1797 1.399 . S
C1798 C1799 1.376 . S
C1799 H1786 0.930 . S
C1799 C1798 1.376 . S
C1799 C1800 1.388 . S
C1800 H1787 0.930 . S
C1800 C1799 1.388 . S
C1800 C1801 1.390 . S
C1801 C1800 1.390 . S
C1801 C1802 1.394 . S
C1801 C1807 1.465 . S
C1802 C1797 1.399 . S
C1802 C1801 1.394 . S
C1802 C1803 1.516 . S
C1803 C1802 1.516 . S
C1803 C1804 1.502 . S
C1803 C1805 1.561 . S
C1803 C1806 1.526 . S
C1804 H1788 0.959 . S
C1804 H1789 0.959 . S
C1804 H1790 0.961 . S
C1804 C1803 1.502 . S
C1805 H1791 0.960 . S
C1805 H1792 0.961 . S
C1805 H1793 0.959 . S
C1805 C1803 1.561 . S
C1806 C1803 1.526 . S
C1806 C1807 1.396 . S
C1806 C1811 1.390 . S
C1807 C1801 1.465 . S
C1807 C1806 1.396 . S
C1807 C1808 1.399 . S
C1808 H1794 0.929 . S
C1808 C1807 1.399 . S
C1808 C1809 1.385 . S
C1809 H1795 0.931 . S
C1809 C1808 1.385 . S
C1809 C1810 1.389 . S
C1810 C1809 1.389 . S
C1810 C1811 1.387 . S
C1811 H1796 0.930 . S
C1811 C1806 1.390 . S
C1811 C1810 1.387 . S
H1812 C1824 0.930 . S
H1813 C1826 0.930 . S
H1814 C1827 0.930 . S
H1815 C1831 0.959 . S
H1816 C1831 0.959 1_545 S
H1817 C1831 0.961 . S
H1818 C1832 0.960 . S
H1819 C1832 0.961 1_545 S
H1820 C1832 0.959 . S
H1821 C1835 0.929 . S
H1822 C1836 0.931 . S
H1823 C1838 0.930 . S
C1824 H1812 0.930 . S
C1824 C1825 1.399 . S
C1824 C1829 1.399 . S
C1825 C1824 1.399 . S
C1825 C1826 1.376 . S
C1826 H1813 0.930 . S
C1826 C1825 1.376 . S
C1826 C1827 1.388 . S
C1827 H1814 0.930 . S
C1827 C1826 1.388 . S
C1827 C1828 1.390 . S
C1828 C1827 1.390 . S
C1828 C1829 1.394 . S
C1828 C1834 1.465 1_565 S
C1829 C1824 1.399 . S
C1829 C1828 1.394 . S
C1829 C1830 1.516 . S
C1830 C1829 1.516 . S
C1830 C1831 1.502 . S
C1830 C1832 1.561 . S
C1830 C1833 1.526 1_565 S
C1831 H1815 0.959 . S
C1831 H1816 0.959 1_565 S
C1831 H1817 0.961 . S
C1831 C1830 1.502 . S
C1832 H1818 0.960 . S
C1832 H1819 0.961 1_565 S
C1832 H1820 0.959 . S
C1832 C1830 1.561 . S
C1833 C1830 1.526 1_545 S
C1833 C1834 1.396 . S
C1833 C1838 1.390 . S
C1834 C1828 1.465 1_545 S
C1834 C1833 1.396 . S
C1834 C1835 1.399 . S
C1835 H1821 0.929 . S
C1835 C1834 1.399 . S
C1835 C1836 1.385 . S
C1836 H1822 0.931 . S
C1836 C1835 1.385 . S
C1836 C1837 1.389 . S
C1837 C1836 1.389 . S
C1837 C1838 1.387 . S
C1838 H1823 0.930 . S
C1838 C1833 1.390 . S
C1838 C1837 1.387 . S
H1839 C1851 0.930 . S
H1840 C1853 0.930 . S
H1841 C1854 0.930 . S
H1842 C1858 0.959 . S
H1843 C1858 0.959 . S
H1844 C1858 0.961 . S
H1845 C1859 0.960 . S
H1846 C1859 0.961 . S
H1847 C1859 0.959 . S
H1848 C1862 0.929 . S
H1849 C1863 0.931 . S
H1850 C1865 0.930 . S
C1851 H1839 0.930 . S
C1851 C1852 1.399 . S
C1851 C1856 1.399 . S
C1852 C1851 1.399 . S
C1852 C1853 1.376 . S
C1853 H1840 0.930 . S
C1853 C1852 1.376 . S
C1853 C1854 1.388 . S
C1854 H1841 0.930 . S
C1854 C1853 1.388 . S
C1854 C1855 1.390 . S
C1855 C1854 1.390 . S
C1855 C1856 1.394 . S
C1855 C1861 1.465 . S
C1856 C1851 1.399 . S
C1856 C1855 1.394 . S
C1856 C1857 1.516 . S
C1857 C1856 1.516 . S
C1857 C1858 1.502 . S
C1857 C1859 1.561 . S
C1857 C1860 1.526 . S
C1858 H1842 0.959 . S
C1858 H1843 0.959 . S
C1858 H1844 0.961 . S
C1858 C1857 1.502 . S
C1859 H1845 0.960 . S
C1859 H1846 0.961 . S
C1859 H1847 0.959 . S
C1859 C1857 1.561 . S
C1860 C1857 1.526 . S
C1860 C1861 1.396 . S
C1860 C1865 1.390 . S
C1861 C1855 1.465 . S
C1861 C1860 1.396 . S
C1861 C1862 1.399 . S
C1862 H1848 0.929 . S
C1862 C1861 1.399 . S
C1862 C1863 1.385 . S
C1863 H1849 0.931 . S
C1863 C1862 1.385 . S
C1863 C1864 1.389 . S
C1864 C1863 1.389 . S
C1864 C1865 1.387 . S
C1865 H1850 0.930 . S
C1865 C1860 1.390 . S
C1865 C1864 1.387 . S
H1866 C1878 0.930 . S
H1867 C1880 0.930 . S
H1868 C1881 0.930 . S
H1869 C1885 0.959 . S
H1870 C1885 0.959 1_545 S
H1871 C1885 0.961 . S
H1872 C1886 0.960 . S
H1873 C1886 0.959 . S
H1874 C1886 0.959 . S
H1875 C1889 0.929 . S
H1876 C1890 0.931 . S
H1877 C1892 0.930 . S
C1878 H1866 0.930 . S
C1878 C1879 1.399 . S
C1878 C1883 1.399 . S
C1879 C1878 1.399 . S
C1879 C1880 1.376 . S
C1880 H1867 0.930 . S
C1880 C1879 1.376 . S
C1880 C1881 1.388 . S
C1881 H1868 0.930 . S
C1881 C1880 1.388 . S
C1881 C1882 1.390 . S
C1882 C1881 1.390 . S
C1882 C1883 1.394 . S
C1882 C1888 1.465 1_565 S
C1883 C1878 1.399 . S
C1883 C1882 1.394 . S
C1883 C1884 1.516 . S
C1884 C1883 1.516 . S
C1884 C1885 1.502 . S
C1884 C1886 1.561 . S
C1884 C1887 1.526 1_565 S
C1885 H1869 0.959 . S
C1885 H1870 0.959 1_565 S
C1885 H1871 0.961 . S
C1885 C1884 1.502 . S
C1886 H1872 0.960 . S
C1886 H1873 0.959 . S
C1886 H1874 0.959 . S
C1886 C1884 1.561 . S
C1887 C1884 1.526 1_545 S
C1887 C1888 1.396 . S
C1887 C1892 1.390 . S
C1888 C1882 1.465 1_545 S
C1888 C1887 1.396 . S
C1888 C1889 1.399 . S
C1889 H1875 0.929 . S
C1889 C1888 1.399 . S
C1889 C1890 1.385 . S
C1890 H1876 0.931 . S
C1890 C1889 1.385 . S
C1890 C1891 1.389 . S
C1891 C1890 1.389 . S
C1891 C1892 1.387 . S
C1892 H1877 0.930 . S
C1892 C1887 1.390 . S
C1892 C1891 1.387 . S
H1893 C1905 0.930 . S
H1894 C1907 0.930 . S
H1895 C1908 0.930 . S
H1896 C1912 0.959 . S
H1897 C1912 0.959 1_565 S
H1898 C1912 0.961 . S
H1899 C1913 0.960 . S
H1900 C1913 0.961 1_565 S
H1901 C1913 0.959 . S
H1902 C1916 0.929 . S
H1903 C1917 0.931 . S
H1904 C1919 0.930 . S
C1905 H1893 0.930 . S
C1905 C1906 1.399 . S
C1905 C1910 1.399 . S
C1906 C1905 1.399 . S
C1906 C1907 1.376 . S
C1907 H1894 0.930 . S
C1907 C1906 1.376 . S
C1907 C1908 1.388 . S
C1908 H1895 0.930 . S
C1908 C1907 1.388 . S
C1908 C1909 1.390 . S
C1909 C1908 1.390 . S
C1909 C1910 1.394 . S
C1909 C1915 1.465 1_545 S
C1910 C1905 1.399 . S
C1910 C1909 1.394 . S
C1910 C1911 1.516 . S
C1911 C1910 1.516 . S
C1911 C1912 1.502 . S
C1911 C1913 1.561 . S
C1911 C1914 1.526 1_545 S
C1912 H1896 0.959 . S
C1912 H1897 0.959 1_545 S
C1912 H1898 0.961 . S
C1912 C1911 1.502 . S
C1913 H1899 0.960 . S
C1913 H1900 0.961 1_545 S
C1913 H1901 0.959 . S
C1913 C1911 1.561 . S
C1914 C1911 1.526 1_565 S
C1914 C1915 1.396 . S
C1914 C1919 1.390 . S
C1915 C1909 1.465 1_565 S
C1915 C1914 1.396 . S
C1915 C1916 1.399 . S
C1916 H1902 0.929 . S
C1916 C1915 1.399 . S
C1916 C1917 1.385 . S
C1917 H1903 0.931 . S
C1917 C1916 1.385 . S
C1917 C1918 1.389 . S
C1918 C1917 1.389 . S
C1918 C1919 1.387 . S
C1919 H1904 0.930 . S
C1919 C1914 1.390 . S
C1919 C1918 1.387 . S
H1920 C1932 0.930 . S
H1921 C1934 0.930 . S
H1922 C1935 0.930 . S
H1923 C1939 0.959 . S
H1924 C1939 0.959 . S
H1925 C1939 0.961 . S
H1926 C1940 0.960 . S
H1927 C1940 0.961 . S
H1928 C1940 0.959 . S
H1929 C1943 0.929 . S
H1930 C1944 0.931 . S
H1931 C1946 0.930 . S
C1932 H1920 0.930 . S
C1932 C1933 1.399 . S
C1932 C1937 1.399 . S
C1933 C1932 1.399 . S
C1933 C1934 1.376 . S
C1934 H1921 0.930 . S
C1934 C1933 1.376 . S
C1934 C1935 1.388 . S
C1935 H1922 0.930 . S
C1935 C1934 1.388 . S
C1935 C1936 1.390 . S
C1936 C1935 1.390 . S
C1936 C1937 1.394 . S
C1936 C1942 1.465 . S
C1937 C1932 1.399 . S
C1937 C1936 1.394 . S
C1937 C1938 1.516 . S
C1938 C1937 1.516 . S
C1938 C1939 1.502 . S
C1938 C1940 1.561 . S
C1938 C1941 1.526 . S
C1939 H1923 0.959 . S
C1939 H1924 0.959 . S
C1939 H1925 0.961 . S
C1939 C1938 1.502 . S
C1940 H1926 0.960 . S
C1940 H1927 0.961 . S
C1940 H1928 0.959 . S
C1940 C1938 1.561 . S
C1941 C1938 1.526 . S
C1941 C1942 1.396 . S
C1941 C1946 1.390 . S
C1942 C1936 1.465 . S
C1942 C1941 1.396 . S
C1942 C1943 1.399 . S
C1943 H1929 0.929 . S
C1943 C1942 1.399 . S
C1943 C1944 1.385 . S
C1944 H1930 0.931 . S
C1944 C1943 1.385 . S
C1944 C1945 1.389 . S
C1945 C1944 1.389 . S
C1945 C1946 1.387 . S
C1946 H1931 0.930 . S
C1946 C1941 1.390 . S
C1946 C1945 1.387 . S
H1947 C1959 0.930 . S
H1948 C1961 0.930 . S
H1949 C1962 0.930 . S
H1950 C1966 0.959 . S
H1951 C1966 0.959 . S
H1952 C1966 0.961 . S
H1953 C1967 0.960 . S
H1954 C1967 0.961 . S
H1955 C1967 0.959 . S
H1956 C1970 0.929 . S
H1957 C1971 0.931 . S
H1958 C1973 0.930 . S
C1959 H1947 0.930 . S
C1959 C1960 1.399 . S
C1959 C1964 1.399 . S
C1960 C1959 1.399 . S
C1960 C1961 1.376 . S
C1961 H1948 0.930 . S
C1961 C1960 1.376 . S
C1961 C1962 1.388 . S
C1962 H1949 0.930 . S
C1962 C1961 1.388 . S
C1962 C1963 1.390 . S
C1963 C1962 1.390 . S
C1963 C1964 1.394 . S
C1963 C1969 1.465 . S
C1964 C1959 1.399 . S
C1964 C1963 1.394 . S
C1964 C1965 1.516 . S
C1965 C1964 1.516 . S
C1965 C1966 1.502 . S
C1965 C1967 1.561 . S
C1965 C1968 1.526 . S
C1966 H1950 0.959 . S
C1966 H1951 0.959 . S
C1966 H1952 0.961 . S
C1966 C1965 1.502 . S
C1967 H1953 0.960 . S
C1967 H1954 0.961 . S
C1967 H1955 0.959 . S
C1967 C1965 1.561 . S
C1968 C1965 1.526 . S
C1968 C1969 1.396 . S
C1968 C1973 1.390 . S
C1969 C1963 1.465 . S
C1969 C1968 1.396 . S
C1969 C1970 1.399 . S
C1970 H1956 0.929 . S
C1970 C1969 1.399 . S
C1970 C1971 1.385 . S
C1971 H1957 0.931 . S
C1971 C1970 1.385 . S
C1971 C1972 1.389 . S
C1972 C1971 1.389 . S
C1972 C1973 1.387 . S
C1973 H1958 0.930 . S
C1973 C1968 1.390 . S
C1973 C1972 1.387 . S
H1974 C1986 0.930 . S
H1975 C1988 0.930 . S
H1976 C1989 0.930 . S
H1977 C1993 0.959 . S
H1978 C1993 0.959 . S
H1979 C1993 0.961 . S
H1980 C1994 0.960 . S
H1981 C1994 0.961 . S
H1982 C1994 0.959 . S
H1983 C1997 0.929 . S
H1984 C1998 0.931 . S
H1985 C2000 0.930 . S
C1986 H1974 0.930 . S
C1986 C1987 1.399 . S
C1986 C1991 1.399 . S
C1987 C1986 1.399 . S
C1987 C1988 1.376 . S
C1988 H1975 0.930 . S
C1988 C1987 1.376 . S
C1988 C1989 1.388 . S
C1989 H1976 0.930 . S
C1989 C1988 1.388 . S
C1989 C1990 1.390 . S
C1990 C1989 1.390 . S
C1990 C1991 1.394 . S
C1990 C1996 1.465 . S
C1991 C1986 1.399 . S
C1991 C1990 1.394 . S
C1991 C1992 1.516 . S
C1992 C1991 1.516 . S
C1992 C1993 1.502 . S
C1992 C1994 1.561 . S
C1992 C1995 1.526 . S
C1993 H1977 0.959 . S
C1993 H1978 0.959 . S
C1993 H1979 0.961 . S
C1993 C1992 1.502 . S
C1994 H1980 0.960 . S
C1994 H1981 0.961 . S
C1994 H1982 0.959 . S
C1994 C1992 1.561 . S
C1995 C1992 1.526 . S
C1995 C1996 1.396 . S
C1995 C2000 1.390 . S
C1996 C1990 1.465 . S
C1996 C1995 1.396 . S
C1996 C1997 1.399 . S
C1997 H1983 0.929 . S
C1997 C1996 1.399 . S
C1997 C1998 1.385 . S
C1998 H1984 0.931 . S
C1998 C1997 1.385 . S
C1998 C1999 1.389 . S
C1999 C1998 1.389 . S
C1999 C2000 1.387 . S
C2000 H1985 0.930 . S
C2000 C1995 1.390 . S
C2000 C1999 1.387 . S
H2001 C2013 0.930 . S
H2002 C2015 0.930 . S
H2003 C2016 0.930 . S
H2004 C2020 0.959 . S
H2005 C2020 0.959 . S
H2006 C2020 0.961 . S
H2007 C2021 0.960 . S
H2008 C2021 0.961 . S
H2009 C2021 0.959 . S
H2010 C2024 0.929 . S
H2011 C2025 0.931 . S
H2012 C2027 0.930 . S
C2013 H2001 0.930 . S
C2013 C2014 1.399 . S
C2013 C2018 1.399 . S
C2014 C2013 1.399 . S
C2014 C2015 1.376 . S
C2015 H2002 0.930 . S
C2015 C2014 1.376 . S
C2015 C2016 1.388 . S
C2016 H2003 0.930 . S
C2016 C2015 1.388 . S
C2016 C2017 1.390 . S
C2017 C2016 1.390 . S
C2017 C2018 1.394 . S
C2017 C2023 1.465 . S
C2018 C2013 1.399 . S
C2018 C2017 1.394 . S
C2018 C2019 1.516 . S
C2019 C2018 1.516 . S
C2019 C2020 1.502 . S
C2019 C2021 1.561 . S
C2019 C2022 1.526 . S
C2020 H2004 0.959 . S
C2020 H2005 0.959 . S
C2020 H2006 0.961 . S
C2020 C2019 1.502 . S
C2021 H2007 0.960 . S
C2021 H2008 0.961 . S
C2021 H2009 0.959 . S
C2021 C2019 1.561 . S
C2022 C2019 1.526 . S
C2022 C2023 1.396 . S
C2022 C2027 1.390 . S
C2023 C2017 1.465 . S
C2023 C2022 1.396 . S
C2023 C2024 1.399 . S
C2024 H2010 0.929 . S
C2024 C2023 1.399 . S
C2024 C2025 1.385 . S
C2025 H2011 0.931 . S
C2025 C2024 1.385 . S
C2025 C2026 1.389 . S
C2026 C2025 1.389 . S
C2026 C2027 1.387 . S
C2027 H2012 0.930 . S
C2027 C2022 1.390 . S
C2027 C2026 1.387 . S
H2028 C2040 0.930 . S
H2029 C2042 0.930 . S
H2030 C2043 0.930 . S
H2031 C2047 0.959 . S
H2032 C2047 0.959 . S
H2033 C2047 0.961 . S
H2034 C2048 0.960 . S
H2035 C2048 0.961 . S
H2036 C2048 0.959 . S
H2037 C2051 0.929 . S
H2038 C2052 0.931 . S
H2039 C2054 0.930 . S
C2040 H2028 0.930 . S
C2040 C2041 1.399 . S
C2040 C2045 1.399 . S
C2041 C2040 1.399 . S
C2041 C2042 1.376 . S
C2042 H2029 0.930 . S
C2042 C2041 1.376 . S
C2042 C2043 1.388 . S
C2043 H2030 0.930 . S
C2043 C2042 1.388 . S
C2043 C2044 1.390 . S
C2044 C2043 1.390 . S
C2044 C2045 1.394 . S
C2044 C2050 1.465 . S
C2045 C2040 1.399 . S
C2045 C2044 1.394 . S
C2045 C2046 1.516 . S
C2046 C2045 1.516 . S
C2046 C2047 1.502 . S
C2046 C2048 1.561 . S
C2046 C2049 1.526 . S
C2047 H2031 0.959 . S
C2047 H2032 0.959 . S
C2047 H2033 0.961 . S
C2047 C2046 1.502 . S
C2048 H2034 0.960 . S
C2048 H2035 0.961 . S
C2048 H2036 0.959 . S
C2048 C2046 1.561 . S
C2049 C2046 1.526 . S
C2049 C2050 1.396 . S
C2049 C2054 1.390 . S
C2050 C2044 1.465 . S
C2050 C2049 1.396 . S
C2050 C2051 1.399 . S
C2051 H2037 0.929 . S
C2051 C2050 1.399 . S
C2051 C2052 1.385 . S
C2052 H2038 0.931 . S
C2052 C2051 1.385 . S
C2052 C2053 1.389 . S
C2053 C2052 1.389 . S
C2053 C2054 1.387 . S
C2054 H2039 0.930 . S
C2054 C2049 1.390 . S
C2054 C2053 1.387 . S
H2055 C2067 0.930 . S
H2056 C2069 0.930 . S
H2057 C2070 0.930 . S
H2058 C2074 0.959 . S
H2059 C2074 0.959 . S
H2060 C2074 0.961 . S
H2061 C2075 0.960 . S
H2062 C2075 0.961 . S
H2063 C2075 0.959 . S
H2064 C2078 0.929 . S
H2065 C2079 0.931 . S
H2066 C2081 0.930 . S
C2067 H2055 0.930 . S
C2067 C2068 1.399 . S
C2067 C2072 1.399 . S
C2068 C2067 1.399 . S
C2068 C2069 1.376 . S
C2069 H2056 0.930 . S
C2069 C2068 1.376 . S
C2069 C2070 1.388 . S
C2070 H2057 0.930 . S
C2070 C2069 1.388 . S
C2070 C2071 1.390 . S
C2071 C2070 1.390 . S
C2071 C2072 1.394 . S
C2071 C2077 1.465 . S
C2072 C2067 1.399 . S
C2072 C2071 1.394 . S
C2072 C2073 1.516 . S
C2073 C2072 1.516 . S
C2073 C2074 1.502 . S
C2073 C2075 1.561 . S
C2073 C2076 1.526 . S
C2074 H2058 0.959 . S
C2074 H2059 0.959 . S
C2074 H2060 0.961 . S
C2074 C2073 1.502 . S
C2075 H2061 0.960 . S
C2075 H2062 0.961 . S
C2075 H2063 0.959 . S
C2075 C2073 1.561 . S
C2076 C2073 1.526 . S
C2076 C2077 1.396 . S
C2076 C2081 1.390 . S
C2077 C2071 1.465 . S
C2077 C2076 1.396 . S
C2077 C2078 1.399 . S
C2078 H2064 0.929 . S
C2078 C2077 1.399 . S
C2078 C2079 1.385 . S
C2079 H2065 0.931 . S
C2079 C2078 1.385 . S
C2079 C2080 1.389 . S
C2080 C2079 1.389 . S
C2080 C2081 1.387 . S
C2081 H2066 0.930 . S
C2081 C2076 1.390 . S
C2081 C2080 1.387 . S
H2082 C2094 0.930 . S
H2083 C2096 0.930 . S
H2084 C2097 0.930 . S
H2085 C2101 0.959 . S
H2086 C2101 0.959 . S
H2087 C2101 0.961 . S
H2088 C2102 0.960 . S
H2089 C2102 0.961 . S
H2090 C2102 0.959 . S
H2091 C2105 0.929 . S
H2092 C2106 0.931 . S
H2093 C2108 0.930 . S
C2094 H2082 0.930 . S
C2094 C2095 1.399 . S
C2094 C2099 1.399 . S
C2095 C2094 1.399 . S
C2095 C2096 1.376 . S
C2096 H2083 0.930 . S
C2096 C2095 1.376 . S
C2096 C2097 1.388 . S
C2097 H2084 0.930 . S
C2097 C2096 1.388 . S
C2097 C2098 1.390 . S
C2098 C2097 1.390 . S
C2098 C2099 1.394 . S
C2098 C2104 1.465 . S
C2099 C2094 1.399 . S
C2099 C2098 1.394 . S
C2099 C2100 1.516 . S
C2100 C2099 1.516 . S
C2100 C2101 1.502 . S
C2100 C2102 1.561 . S
C2100 C2103 1.526 . S
C2101 H2085 0.959 . S
C2101 H2086 0.959 . S
C2101 H2087 0.961 . S
C2101 C2100 1.502 . S
C2102 H2088 0.960 . S
C2102 H2089 0.961 . S
C2102 H2090 0.959 . S
C2102 C2100 1.561 . S
C2103 C2100 1.526 . S
C2103 C2104 1.396 . S
C2103 C2108 1.390 . S
C2104 C2098 1.465 . S
C2104 C2103 1.396 . S
C2104 C2105 1.399 . S
C2105 H2091 0.929 . S
C2105 C2104 1.399 . S
C2105 C2106 1.385 . S
C2106 H2092 0.931 . S
C2106 C2105 1.385 . S
C2106 C2107 1.389 . S
C2107 C2106 1.389 . S
C2107 C2108 1.387 . S
C2108 H2093 0.930 . S
C2108 C2103 1.390 . S
C2108 C2107 1.387 . S
H2109 C2121 0.930 . S
H2110 C2123 0.930 . S
H2111 C2124 0.930 . S
H2112 C2128 0.959 . S
H2113 C2128 0.959 . S
H2114 C2128 0.961 . S
H2115 C2129 0.960 . S
H2116 C2129 0.961 . S
H2117 C2129 0.959 . S
H2118 C2132 0.929 . S
H2119 C2133 0.931 . S
H2120 C2135 0.930 . S
C2121 H2109 0.930 . S
C2121 C2122 1.399 . S
C2121 C2126 1.399 . S
C2122 C2121 1.399 . S
C2122 C2123 1.376 . S
C2123 H2110 0.930 . S
C2123 C2122 1.376 . S
C2123 C2124 1.388 . S
C2124 H2111 0.930 . S
C2124 C2123 1.388 . S
C2124 C2125 1.390 . S
C2125 C2124 1.390 . S
C2125 C2126 1.394 . S
C2125 C2131 1.465 . S
C2126 C2121 1.399 . S
C2126 C2125 1.394 . S
C2126 C2127 1.516 . S
C2127 C2126 1.516 . S
C2127 C2128 1.502 . S
C2127 C2129 1.561 . S
C2127 C2130 1.526 . S
C2128 H2112 0.959 . S
C2128 H2113 0.959 . S
C2128 H2114 0.961 . S
C2128 C2127 1.502 . S
C2129 H2115 0.960 . S
C2129 H2116 0.961 . S
C2129 H2117 0.959 . S
C2129 C2127 1.561 . S
C2130 C2127 1.526 . S
C2130 C2131 1.396 . S
C2130 C2135 1.390 . S
C2131 C2125 1.465 . S
C2131 C2130 1.396 . S
C2131 C2132 1.399 . S
C2132 H2118 0.929 . S
C2132 C2131 1.399 . S
C2132 C2133 1.385 . S
C2133 H2119 0.931 . S
C2133 C2132 1.385 . S
C2133 C2134 1.389 . S
C2134 C2133 1.389 . S
C2134 C2135 1.387 . S
C2135 H2120 0.930 . S
C2135 C2130 1.390 . S
C2135 C2134 1.387 . S
H2136 C2148 0.930 . S
H2137 C2150 0.930 . S
H2138 C2151 0.930 . S
H2139 C2155 0.959 . S
H2140 C2155 0.959 . S
H2141 C2155 0.961 . S
H2142 C2156 0.960 . S
H2143 C2156 0.961 . S
H2144 C2156 0.959 . S
H2145 C2159 0.929 . S
H2146 C2160 0.931 . S
H2147 C2162 0.930 . S
C2148 H2136 0.930 . S
C2148 C2149 1.399 . S
C2148 C2153 1.399 . S
C2149 C2148 1.399 . S
C2149 C2150 1.376 . S
C2150 H2137 0.930 . S
C2150 C2149 1.376 . S
C2150 C2151 1.388 . S
C2151 H2138 0.930 . S
C2151 C2150 1.388 . S
C2151 C2152 1.390 . S
C2152 C2151 1.390 . S
C2152 C2153 1.394 . S
C2152 C2158 1.465 . S
C2153 C2148 1.399 . S
C2153 C2152 1.394 . S
C2153 C2154 1.516 . S
C2154 C2153 1.516 . S
C2154 C2155 1.502 . S
C2154 C2156 1.561 . S
C2154 C2157 1.526 . S
C2155 H2139 0.959 . S
C2155 H2140 0.959 . S
C2155 H2141 0.961 . S
C2155 C2154 1.502 . S
C2156 H2142 0.960 . S
C2156 H2143 0.961 . S
C2156 H2144 0.959 . S
C2156 C2154 1.561 . S
C2157 C2154 1.526 . S
C2157 C2158 1.396 . S
C2157 C2162 1.390 . S
C2158 C2152 1.465 . S
C2158 C2157 1.396 . S
C2158 C2159 1.399 . S
C2159 H2145 0.929 . S
C2159 C2158 1.399 . S
C2159 C2160 1.385 . S
C2160 H2146 0.931 . S
C2160 C2159 1.385 . S
C2160 C2161 1.389 . S
C2161 C2160 1.389 . S
C2161 C2162 1.387 . S
C2162 H2147 0.930 . S
C2162 C2157 1.390 . S
C2162 C2161 1.387 . S
H2163 C2175 0.930 . S
H2164 C2177 0.930 . S
H2165 C2178 0.930 . S
H2166 C2182 0.959 . S
H2167 C2182 0.959 . S
H2168 C2182 0.961 . S
H2169 C2183 0.960 . S
H2170 C2183 0.961 . S
H2171 C2183 0.959 . S
H2172 C2186 0.929 . S
H2173 C2187 0.931 . S
H2174 C2189 0.930 . S
C2175 H2163 0.930 . S
C2175 C2176 1.399 . S
C2175 C2180 1.399 . S
C2176 C2175 1.399 . S
C2176 C2177 1.376 . S
C2177 H2164 0.930 . S
C2177 C2176 1.376 . S
C2177 C2178 1.388 . S
C2178 H2165 0.930 . S
C2178 C2177 1.388 . S
C2178 C2179 1.390 . S
C2179 C2178 1.390 . S
C2179 C2180 1.394 . S
C2179 C2185 1.465 . S
C2180 C2175 1.399 . S
C2180 C2179 1.394 . S
C2180 C2181 1.516 . S
C2181 C2180 1.516 . S
C2181 C2182 1.502 . S
C2181 C2183 1.561 . S
C2181 C2184 1.526 . S
C2182 H2166 0.959 . S
C2182 H2167 0.959 . S
C2182 H2168 0.961 . S
C2182 C2181 1.502 . S
C2183 H2169 0.960 . S
C2183 H2170 0.961 . S
C2183 H2171 0.959 . S
C2183 C2181 1.561 . S
C2184 C2181 1.526 . S
C2184 C2185 1.396 . S
C2184 C2189 1.390 . S
C2185 C2179 1.465 . S
C2185 C2184 1.396 . S
C2185 C2186 1.399 . S
C2186 H2172 0.929 . S
C2186 C2185 1.399 . S
C2186 C2187 1.385 . S
C2187 H2173 0.931 . S
C2187 C2186 1.385 . S
C2187 C2188 1.389 . S
C2188 C2187 1.389 . S
C2188 C2189 1.387 . S
C2189 H2174 0.930 . S
C2189 C2184 1.390 . S
C2189 C2188 1.387 . S
H2190 C2202 0.930 . S
H2191 C2204 0.930 . S
H2192 C2205 0.930 . S
H2193 C2209 0.959 . S
H2194 C2209 0.959 . S
H2195 C2209 0.961 . S
H2196 C2210 0.960 . S
H2197 C2210 0.961 . S
H2198 C2210 0.959 . S
H2199 C2213 0.929 . S
H2200 C2214 0.931 . S
H2201 C2216 0.930 . S
C2202 H2190 0.930 . S
C2202 C2203 1.399 . S
C2202 C2207 1.399 . S
C2203 C2202 1.399 . S
C2203 C2204 1.376 . S
C2204 H2191 0.930 . S
C2204 C2203 1.376 . S
C2204 C2205 1.388 . S
C2205 H2192 0.930 . S
C2205 C2204 1.388 . S
C2205 C2206 1.390 . S
C2206 C2205 1.390 . S
C2206 C2207 1.394 . S
C2206 C2212 1.465 . S
C2207 C2202 1.399 . S
C2207 C2206 1.394 . S
C2207 C2208 1.516 . S
C2208 C2207 1.516 . S
C2208 C2209 1.502 . S
C2208 C2210 1.561 . S
C2208 C2211 1.526 . S
C2209 H2193 0.959 . S
C2209 H2194 0.959 . S
C2209 H2195 0.961 . S
C2209 C2208 1.502 . S
C2210 H2196 0.960 . S
C2210 H2197 0.961 . S
C2210 H2198 0.959 . S
C2210 C2208 1.561 . S
C2211 C2208 1.526 . S
C2211 C2212 1.396 . S
C2211 C2216 1.390 . S
C2212 C2206 1.465 . S
C2212 C2211 1.396 . S
C2212 C2213 1.399 . S
C2213 H2199 0.929 . S
C2213 C2212 1.399 . S
C2213 C2214 1.385 . S
C2214 H2200 0.931 . S
C2214 C2213 1.385 . S
C2214 C2215 1.389 . S
C2215 C2214 1.389 . S
C2215 C2216 1.387 . S
C2216 H2201 0.930 . S
C2216 C2211 1.390 . S
C2216 C2215 1.387 . S
H2217 C2229 0.930 . S
H2218 C2231 0.930 . S
H2219 C2232 0.930 . S
H2220 C2236 0.959 . S
H2221 C2236 0.959 . S
H2222 C2236 0.961 . S
H2223 C2237 0.960 . S
H2224 C2237 0.961 . S
H2225 C2237 0.959 . S
H2226 C2240 0.929 . S
H2227 C2241 0.931 . S
H2228 C2243 0.930 . S
C2229 H2217 0.930 . S
C2229 C2230 1.399 . S
C2229 C2234 1.399 . S
C2230 C2229 1.399 . S
C2230 C2231 1.376 . S
C2231 H2218 0.930 . S
C2231 C2230 1.376 . S
C2231 C2232 1.388 . S
C2232 H2219 0.930 . S
C2232 C2231 1.388 . S
C2232 C2233 1.390 . S
C2233 C2232 1.390 . S
C2233 C2234 1.394 . S
C2233 C2239 1.465 . S
C2234 C2229 1.399 . S
C2234 C2233 1.394 . S
C2234 C2235 1.516 . S
C2235 C2234 1.516 . S
C2235 C2236 1.502 . S
C2235 C2237 1.561 . S
C2235 C2238 1.526 . S
C2236 H2220 0.959 . S
C2236 H2221 0.959 . S
C2236 H2222 0.961 . S
C2236 C2235 1.502 . S
C2237 H2223 0.960 . S
C2237 H2224 0.961 . S
C2237 H2225 0.959 . S
C2237 C2235 1.561 . S
C2238 C2235 1.526 . S
C2238 C2239 1.396 . S
C2238 C2243 1.390 . S
C2239 C2233 1.465 . S
C2239 C2238 1.396 . S
C2239 C2240 1.399 . S
C2240 H2226 0.929 . S
C2240 C2239 1.399 . S
C2240 C2241 1.385 . S
C2241 H2227 0.931 . S
C2241 C2240 1.385 . S
C2241 C2242 1.389 . S
C2242 C2241 1.389 . S
C2242 C2243 1.387 . S
C2243 H2228 0.930 . S
C2243 C2238 1.390 . S
C2243 C2242 1.387 . S
H2244 C2256 0.930 . S
H2245 C2258 0.930 . S
H2246 C2259 0.930 . S
H2247 C2263 0.959 . S
H2248 C2263 0.959 . S
H2249 C2263 0.961 . S
H2250 C2264 0.960 . S
H2251 C2264 0.961 . S
H2252 C2264 0.959 . S
H2253 C2267 0.929 . S
H2254 C2268 0.931 . S
H2255 C2270 0.930 . S
C2256 H2244 0.930 . S
C2256 C2257 1.399 . S
C2256 C2261 1.399 . S
C2257 C2256 1.399 . S
C2257 C2258 1.376 . S
C2258 H2245 0.930 . S
C2258 C2257 1.376 . S
C2258 C2259 1.388 . S
C2259 H2246 0.930 . S
C2259 C2258 1.388 . S
C2259 C2260 1.390 . S
C2260 C2259 1.390 . S
C2260 C2261 1.394 . S
C2260 C2266 1.465 . S
C2261 C2256 1.399 . S
C2261 C2260 1.394 . S
C2261 C2262 1.516 . S
C2262 C2261 1.516 . S
C2262 C2263 1.502 . S
C2262 C2264 1.561 . S
C2262 C2265 1.526 . S
C2263 H2247 0.959 . S
C2263 H2248 0.959 . S
C2263 H2249 0.961 . S
C2263 C2262 1.502 . S
C2264 H2250 0.960 . S
C2264 H2251 0.961 . S
C2264 H2252 0.959 . S
C2264 C2262 1.561 . S
C2265 C2262 1.526 . S
C2265 C2266 1.396 . S
C2265 C2270 1.390 . S
C2266 C2260 1.465 . S
C2266 C2265 1.396 . S
C2266 C2267 1.399 . S
C2267 H2253 0.929 . S
C2267 C2266 1.399 . S
C2267 C2268 1.385 . S
C2268 H2254 0.931 . S
C2268 C2267 1.385 . S
C2268 C2269 1.389 . S
C2269 C2268 1.389 . S
C2269 C2270 1.387 . S
C2270 H2255 0.930 . S
C2270 C2265 1.390 . S
C2270 C2269 1.387 . S
H2271 C2283 0.930 . S
H2272 C2285 0.930 . S
H2273 C2286 0.930 . S
H2274 C2290 0.959 . S
H2275 C2290 0.959 . S
H2276 C2290 0.961 . S
H2277 C2291 0.960 . S
H2278 C2291 0.961 . S
H2279 C2291 0.959 . S
H2280 C2294 0.929 . S
H2281 C2295 0.931 . S
H2282 C2297 0.930 . S
C2283 H2271 0.930 . S
C2283 C2284 1.399 . S
C2283 C2288 1.399 . S
C2284 C2283 1.399 . S
C2284 C2285 1.376 . S
C2285 H2272 0.930 . S
C2285 C2284 1.376 . S
C2285 C2286 1.388 . S
C2286 H2273 0.930 . S
C2286 C2285 1.388 . S
C2286 C2287 1.390 . S
C2287 C2286 1.390 . S
C2287 C2288 1.394 . S
C2287 C2293 1.465 . S
C2288 C2283 1.399 . S
C2288 C2287 1.394 . S
C2288 C2289 1.516 . S
C2289 C2288 1.516 . S
C2289 C2290 1.502 . S
C2289 C2291 1.561 . S
C2289 C2292 1.526 . S
C2290 H2274 0.959 . S
C2290 H2275 0.959 . S
C2290 H2276 0.961 . S
C2290 C2289 1.502 . S
C2291 H2277 0.960 . S
C2291 H2278 0.961 . S
C2291 H2279 0.959 . S
C2291 C2289 1.561 . S
C2292 C2289 1.526 . S
C2292 C2293 1.396 . S
C2292 C2297 1.390 . S
C2293 C2287 1.465 . S
C2293 C2292 1.396 . S
C2293 C2294 1.399 . S
C2294 H2280 0.929 . S
C2294 C2293 1.399 . S
C2294 C2295 1.385 . S
C2295 H2281 0.931 . S
C2295 C2294 1.385 . S
C2295 C2296 1.389 . S
C2296 C2295 1.389 . S
C2296 C2297 1.387 . S
C2297 H2282 0.930 . S
C2297 C2292 1.390 . S
C2297 C2296 1.387 . S
H2298 C2310 0.930 . S
H2299 C2312 0.930 . S
H2300 C2313 0.930 . S
H2301 C2317 0.959 . S
H2302 C2317 0.959 . S
H2303 C2317 0.961 . S
H2304 C2318 0.960 . S
H2305 C2318 0.961 . S
H2306 C2318 0.959 . S
H2307 C2321 0.929 . S
H2308 C2322 0.931 . S
H2309 C2324 0.930 . S
C2310 H2298 0.930 . S
C2310 C2311 1.399 . S
C2310 C2315 1.399 . S
C2311 C2310 1.399 . S
C2311 C2312 1.376 . S
C2312 H2299 0.930 . S
C2312 C2311 1.376 . S
C2312 C2313 1.388 . S
C2313 H2300 0.930 . S
C2313 C2312 1.388 . S
C2313 C2314 1.390 . S
C2314 C2313 1.390 . S
C2314 C2315 1.394 . S
C2314 C2320 1.465 . S
C2315 C2310 1.399 . S
C2315 C2314 1.394 . S
C2315 C2316 1.516 . S
C2316 C2315 1.516 . S
C2316 C2317 1.502 . S
C2316 C2318 1.561 . S
C2316 C2319 1.526 . S
C2317 H2301 0.959 . S
C2317 H2302 0.959 . S
C2317 H2303 0.961 . S
C2317 C2316 1.502 . S
C2318 H2304 0.960 . S
C2318 H2305 0.961 . S
C2318 H2306 0.959 . S
C2318 C2316 1.561 . S
C2319 C2316 1.526 . S
C2319 C2320 1.396 . S
C2319 C2324 1.390 . S
C2320 C2314 1.465 . S
C2320 C2319 1.396 . S
C2320 C2321 1.399 . S
C2321 H2307 0.929 . S
C2321 C2320 1.399 . S
C2321 C2322 1.385 . S
C2322 H2308 0.931 . S
C2322 C2321 1.385 . S
C2322 C2323 1.389 . S
C2323 C2322 1.389 . S
C2323 C2324 1.387 . S
C2324 H2309 0.930 . S
C2324 C2319 1.390 . S
C2324 C2323 1.387 . S
H2325 C2337 0.930 . S
H2326 C2339 0.930 . S
H2327 C2340 0.930 . S
H2328 C2344 0.959 . S
H2329 C2344 0.959 . S
H2330 C2344 0.961 . S
H2331 C2345 0.960 . S
H2332 C2345 0.961 . S
H2333 C2345 0.959 . S
H2334 C2348 0.929 . S
H2335 C2349 0.931 . S
H2336 C2351 0.930 . S
C2337 H2325 0.930 . S
C2337 C2338 1.399 . S
C2337 C2342 1.399 . S
C2338 C2337 1.399 . S
C2338 C2339 1.376 . S
C2339 H2326 0.930 . S
C2339 C2338 1.376 . S
C2339 C2340 1.388 . S
C2340 H2327 0.930 . S
C2340 C2339 1.388 . S
C2340 C2341 1.390 . S
C2341 C2340 1.390 . S
C2341 C2342 1.394 . S
C2341 C2347 1.465 . S
C2342 C2337 1.399 . S
C2342 C2341 1.394 . S
C2342 C2343 1.516 . S
C2343 C2342 1.516 . S
C2343 C2344 1.502 . S
C2343 C2345 1.561 . S
C2343 C2346 1.526 . S
C2344 H2328 0.959 . S
C2344 H2329 0.959 . S
C2344 H2330 0.961 . S
C2344 C2343 1.502 . S
C2345 H2331 0.960 . S
C2345 H2332 0.961 . S
C2345 H2333 0.959 . S
C2345 C2343 1.561 . S
C2346 C2343 1.526 . S
C2346 C2347 1.396 . S
C2346 C2351 1.390 . S
C2347 C2341 1.465 . S
C2347 C2346 1.396 . S
C2347 C2348 1.399 . S
C2348 H2334 0.929 . S
C2348 C2347 1.399 . S
C2348 C2349 1.385 . S
C2349 H2335 0.931 . S
C2349 C2348 1.385 . S
C2349 C2350 1.389 . S
C2350 C2349 1.389 . S
C2350 C2351 1.387 . S
C2351 H2336 0.930 . S
C2351 C2346 1.390 . S
C2351 C2350 1.387 . S
H2352 C2364 0.930 . S
H2353 C2366 0.930 . S
H2354 C2367 0.930 . S
H2355 C2371 0.959 . S
H2356 C2371 0.959 . S
H2357 C2371 0.961 . S
H2358 C2372 0.960 . S
H2359 C2372 0.961 . S
H2360 C2372 0.959 . S
H2361 C2375 0.929 . S
H2362 C2376 0.931 . S
H2363 C2378 0.930 . S
C2364 H2352 0.930 . S
C2364 C2365 1.399 . S
C2364 C2369 1.399 . S
C2365 C2364 1.399 . S
C2365 C2366 1.376 . S
C2366 H2353 0.930 . S
C2366 C2365 1.376 . S
C2366 C2367 1.388 . S
C2367 H2354 0.930 . S
C2367 C2366 1.388 . S
C2367 C2368 1.390 . S
C2368 C2367 1.390 . S
C2368 C2369 1.394 . S
C2368 C2374 1.465 . S
C2369 C2364 1.399 . S
C2369 C2368 1.394 . S
C2369 C2370 1.516 . S
C2370 C2369 1.516 . S
C2370 C2371 1.502 . S
C2370 C2372 1.561 . S
C2370 C2373 1.526 . S
C2371 H2355 0.959 . S
C2371 H2356 0.959 . S
C2371 H2357 0.961 . S
C2371 C2370 1.502 . S
C2372 H2358 0.960 . S
C2372 H2359 0.961 . S
C2372 H2360 0.959 . S
C2372 C2370 1.561 . S
C2373 C2370 1.526 . S
C2373 C2374 1.396 . S
C2373 C2378 1.390 . S
C2374 C2368 1.465 . S
C2374 C2373 1.396 . S
C2374 C2375 1.399 . S
C2375 H2361 0.929 . S
C2375 C2374 1.399 . S
C2375 C2376 1.385 . S
C2376 H2362 0.931 . S
C2376 C2375 1.385 . S
C2376 C2377 1.389 . S
C2377 C2376 1.389 . S
C2377 C2378 1.387 . S
C2378 H2363 0.930 . S
C2378 C2373 1.390 . S
C2378 C2377 1.387 . S
H2379 C2391 0.930 . S
H2380 C2393 0.930 . S
H2381 C2394 0.930 . S
H2382 C2398 0.959 . S
H2383 C2398 0.959 . S
H2384 C2398 0.961 . S
H2385 C2399 0.960 . S
H2386 C2399 0.961 . S
H2387 C2399 0.959 . S
H2388 C2402 0.929 . S
H2389 C2403 0.931 . S
H2390 C2405 0.930 . S
C2391 H2379 0.930 . S
C2391 C2392 1.399 . S
C2391 C2396 1.399 . S
C2392 C2391 1.399 . S
C2392 C2393 1.376 . S
C2393 H2380 0.930 . S
C2393 C2392 1.376 . S
C2393 C2394 1.388 . S
C2394 H2381 0.930 . S
C2394 C2393 1.388 . S
C2394 C2395 1.390 . S
C2395 C2394 1.390 . S
C2395 C2396 1.394 . S
C2395 C2401 1.465 . S
C2396 C2391 1.399 . S
C2396 C2395 1.394 . S
C2396 C2397 1.516 . S
C2397 C2396 1.516 . S
C2397 C2398 1.502 . S
C2397 C2399 1.561 . S
C2397 C2400 1.526 . S
C2398 H2382 0.959 . S
C2398 H2383 0.959 . S
C2398 H2384 0.961 . S
C2398 C2397 1.502 . S
C2399 H2385 0.960 . S
C2399 H2386 0.961 . S
C2399 H2387 0.959 . S
C2399 C2397 1.561 . S
C2400 C2397 1.526 . S
C2400 C2401 1.396 . S
C2400 C2405 1.390 . S
C2401 C2395 1.465 . S
C2401 C2400 1.396 . S
C2401 C2402 1.399 . S
C2402 H2388 0.929 . S
C2402 C2401 1.399 . S
C2402 C2403 1.385 . S
C2403 H2389 0.931 . S
C2403 C2402 1.385 . S
C2403 C2404 1.389 . S
C2404 C2403 1.389 . S
C2404 C2405 1.387 . S
C2405 H2390 0.930 . S
C2405 C2400 1.390 . S
C2405 C2404 1.387 . S
H2406 C2418 0.930 . S
H2407 C2420 0.930 . S
H2408 C2421 0.930 . S
H2409 C2425 0.959 . S
H2410 C2425 0.959 . S
H2411 C2425 0.961 . S
H2412 C2426 0.960 . S
H2413 C2426 0.961 . S
H2414 C2426 0.959 . S
H2415 C2429 0.929 . S
H2416 C2430 0.931 . S
H2417 C2432 0.930 . S
C2418 H2406 0.930 . S
C2418 C2419 1.399 . S
C2418 C2423 1.399 . S
C2419 C2418 1.399 . S
C2419 C2420 1.376 . S
C2420 H2407 0.930 . S
C2420 C2419 1.376 . S
C2420 C2421 1.388 . S
C2421 H2408 0.930 . S
C2421 C2420 1.388 . S
C2421 C2422 1.390 . S
C2422 C2421 1.390 . S
C2422 C2423 1.394 . S
C2422 C2428 1.465 . S
C2423 C2418 1.399 . S
C2423 C2422 1.394 . S
C2423 C2424 1.516 . S
C2424 C2423 1.516 . S
C2424 C2425 1.502 . S
C2424 C2426 1.561 . S
C2424 C2427 1.526 . S
C2425 H2409 0.959 . S
C2425 H2410 0.959 . S
C2425 H2411 0.961 . S
C2425 C2424 1.502 . S
C2426 H2412 0.960 . S
C2426 H2413 0.961 . S
C2426 H2414 0.959 . S
C2426 C2424 1.561 . S
C2427 C2424 1.526 . S
C2427 C2428 1.396 . S
C2427 C2432 1.390 . S
C2428 C2422 1.465 . S
C2428 C2427 1.396 . S
C2428 C2429 1.399 . S
C2429 H2415 0.929 . S
C2429 C2428 1.399 . S
C2429 C2430 1.385 . S
C2430 H2416 0.931 . S
C2430 C2429 1.385 . S
C2430 C2431 1.389 . S
C2431 C2430 1.389 . S
C2431 C2432 1.387 . S
C2432 H2417 0.930 . S
C2432 C2427 1.390 . S
C2432 C2431 1.387 . S
H2433 C2445 0.930 . S
H2434 C2447 0.930 . S
H2435 C2448 0.930 . S
H2436 C2452 0.959 . S
H2437 C2452 0.959 . S
H2438 C2452 0.961 . S
H2439 C2453 0.960 . S
H2440 C2453 0.961 . S
H2441 C2453 0.959 . S
H2442 C2456 0.929 . S
H2443 C2457 0.931 . S
H2444 C2459 0.930 . S
C2445 H2433 0.930 . S
C2445 C2446 1.399 . S
C2445 C2450 1.399 . S
C2446 C2445 1.399 . S
C2446 C2447 1.376 . S
C2447 H2434 0.930 . S
C2447 C2446 1.376 . S
C2447 C2448 1.388 . S
C2448 H2435 0.930 . S
C2448 C2447 1.388 . S
C2448 C2449 1.390 . S
C2449 C2448 1.390 . S
C2449 C2450 1.394 . S
C2449 C2455 1.465 . S
C2450 C2445 1.399 . S
C2450 C2449 1.394 . S
C2450 C2451 1.516 . S
C2451 C2450 1.516 . S
C2451 C2452 1.502 . S
C2451 C2453 1.561 . S
C2451 C2454 1.526 . S
C2452 H2436 0.959 . S
C2452 H2437 0.959 . S
C2452 H2438 0.961 . S
C2452 C2451 1.502 . S
C2453 H2439 0.960 . S
C2453 H2440 0.961 . S
C2453 H2441 0.959 . S
C2453 C2451 1.561 . S
C2454 C2451 1.526 . S
C2454 C2455 1.396 . S
C2454 C2459 1.390 . S
C2455 C2449 1.465 . S
C2455 C2454 1.396 . S
C2455 C2456 1.399 . S
C2456 H2442 0.929 . S
C2456 C2455 1.399 . S
C2456 C2457 1.385 . S
C2457 H2443 0.931 . S
C2457 C2456 1.385 . S
C2457 C2458 1.389 . S
C2458 C2457 1.389 . S
C2458 C2459 1.387 . S
C2459 H2444 0.930 . S
C2459 C2454 1.390 . S
C2459 C2458 1.387 . S
H2460 C2472 0.930 . S
H2461 C2474 0.930 . S
H2462 C2475 0.930 . S
H2463 C2479 0.959 . S
H2464 C2479 0.959 . S
H2465 C2479 0.961 . S
H2466 C2480 0.960 . S
H2467 C2480 0.961 . S
H2468 C2480 0.959 . S
H2469 C2483 0.929 . S
H2470 C2484 0.931 . S
H2471 C2486 0.930 . S
C2472 H2460 0.930 . S
C2472 C2473 1.399 . S
C2472 C2477 1.399 . S
C2473 C2472 1.399 . S
C2473 C2474 1.376 . S
C2474 H2461 0.930 . S
C2474 C2473 1.376 . S
C2474 C2475 1.388 . S
C2475 H2462 0.930 . S
C2475 C2474 1.388 . S
C2475 C2476 1.390 . S
C2476 C2475 1.390 . S
C2476 C2477 1.394 . S
C2476 C2482 1.465 . S
C2477 C2472 1.399 . S
C2477 C2476 1.394 . S
C2477 C2478 1.516 . S
C2478 C2477 1.516 . S
C2478 C2479 1.502 . S
C2478 C2480 1.561 . S
C2478 C2481 1.526 . S
C2479 H2463 0.959 . S
C2479 H2464 0.959 . S
C2479 H2465 0.961 . S
C2479 C2478 1.502 . S
C2480 H2466 0.960 . S
C2480 H2467 0.961 . S
C2480 H2468 0.959 . S
C2480 C2478 1.561 . S
C2481 C2478 1.526 . S
C2481 C2482 1.396 . S
C2481 C2486 1.390 . S
C2482 C2476 1.465 . S
C2482 C2481 1.396 . S
C2482 C2483 1.399 . S
C2483 H2469 0.929 . S
C2483 C2482 1.399 . S
C2483 C2484 1.385 . S
C2484 H2470 0.931 . S
C2484 C2483 1.385 . S
C2484 C2485 1.389 . S
C2485 C2484 1.389 . S
C2485 C2486 1.387 . S
C2486 H2471 0.930 . S
C2486 C2481 1.390 . S
C2486 C2485 1.387 . S
H2487 C2499 0.930 . S
H2488 C2501 0.930 . S
H2489 C2502 0.930 . S
H2490 C2506 0.959 . S
H2491 C2506 0.959 . S
H2492 C2506 0.961 . S
H2493 C2507 0.960 . S
H2494 C2507 0.961 . S
H2495 C2507 0.959 . S
H2496 C2510 0.929 . S
H2497 C2511 0.931 . S
H2498 C2513 0.930 . S
C2499 H2487 0.930 . S
C2499 C2500 1.399 . S
C2499 C2504 1.399 . S
C2500 C2499 1.399 . S
C2500 C2501 1.376 . S
C2501 H2488 0.930 . S
C2501 C2500 1.376 . S
C2501 C2502 1.388 . S
C2502 H2489 0.930 . S
C2502 C2501 1.388 . S
C2502 C2503 1.390 . S
C2503 C2502 1.390 . S
C2503 C2504 1.394 . S
C2503 C2509 1.465 . S
C2504 C2499 1.399 . S
C2504 C2503 1.394 . S
C2504 C2505 1.516 . S
C2505 C2504 1.516 . S
C2505 C2506 1.502 . S
C2505 C2507 1.561 . S
C2505 C2508 1.526 . S
C2506 H2490 0.959 . S
C2506 H2491 0.959 . S
C2506 H2492 0.961 . S
C2506 C2505 1.502 . S
C2507 H2493 0.960 . S
C2507 H2494 0.961 . S
C2507 H2495 0.959 . S
C2507 C2505 1.561 . S
C2508 C2505 1.526 . S
C2508 C2509 1.396 . S
C2508 C2513 1.390 . S
C2509 C2503 1.465 . S
C2509 C2508 1.396 . S
C2509 C2510 1.399 . S
C2510 H2496 0.929 . S
C2510 C2509 1.399 . S
C2510 C2511 1.385 . S
C2511 H2497 0.931 . S
C2511 C2510 1.385 . S
C2511 C2512 1.389 . S
C2512 C2511 1.389 . S
C2512 C2513 1.387 . S
C2513 H2498 0.930 . S
C2513 C2508 1.390 . S
C2513 C2512 1.387 . S
H2514 C2526 0.930 . S
H2515 C2528 0.930 . S
H2516 C2529 0.930 . S
H2517 C2533 0.959 . S
H2518 C2533 0.959 . S
H2519 C2533 0.961 . S
H2520 C2534 0.960 . S
H2521 C2534 0.961 . S
H2522 C2534 0.959 . S
H2523 C2537 0.929 . S
H2524 C2538 0.931 . S
H2525 C2540 0.930 . S
C2526 H2514 0.930 . S
C2526 C2527 1.399 . S
C2526 C2531 1.399 . S
C2527 C2526 1.399 . S
C2527 C2528 1.376 . S
C2528 H2515 0.930 . S
C2528 C2527 1.376 . S
C2528 C2529 1.388 . S
C2529 H2516 0.930 . S
C2529 C2528 1.388 . S
C2529 C2530 1.390 . S
C2530 C2529 1.390 . S
C2530 C2531 1.394 . S
C2530 C2536 1.465 . S
C2531 C2526 1.399 . S
C2531 C2530 1.394 . S
C2531 C2532 1.516 . S
C2532 C2531 1.516 . S
C2532 C2533 1.502 . S
C2532 C2534 1.561 . S
C2532 C2535 1.526 . S
C2533 H2517 0.959 . S
C2533 H2518 0.959 . S
C2533 H2519 0.961 . S
C2533 C2532 1.502 . S
C2534 H2520 0.960 . S
C2534 H2521 0.961 . S
C2534 H2522 0.959 . S
C2534 C2532 1.561 . S
C2535 C2532 1.526 . S
C2535 C2536 1.396 . S
C2535 C2540 1.390 . S
C2536 C2530 1.465 . S
C2536 C2535 1.396 . S
C2536 C2537 1.399 . S
C2537 H2523 0.929 . S
C2537 C2536 1.399 . S
C2537 C2538 1.385 . S
C2538 H2524 0.931 . S
C2538 C2537 1.385 . S
C2538 C2539 1.389 . S
C2539 C2538 1.389 . S
C2539 C2540 1.387 . S
C2540 H2525 0.930 . S
C2540 C2535 1.390 . S
C2540 C2539 1.387 . S
H2541 C2553 0.930 . S
H2542 C2555 0.930 . S
H2543 C2556 0.930 . S
H2544 C2560 0.959 . S
H2545 C2560 0.959 . S
H2546 C2560 0.961 . S
H2547 C2561 0.960 . S
H2548 C2561 0.961 . S
H2549 C2561 0.959 . S
H2550 C2564 0.929 . S
H2551 C2565 0.931 . S
H2552 C2567 0.930 . S
C2553 H2541 0.930 . S
C2553 C2554 1.399 . S
C2553 C2558 1.399 . S
C2554 C2553 1.399 . S
C2554 C2555 1.376 . S
C2555 H2542 0.930 . S
C2555 C2554 1.376 . S
C2555 C2556 1.388 . S
C2556 H2543 0.930 . S
C2556 C2555 1.388 . S
C2556 C2557 1.390 . S
C2557 C2556 1.390 . S
C2557 C2558 1.394 . S
C2557 C2563 1.465 . S
C2558 C2553 1.399 . S
C2558 C2557 1.394 . S
C2558 C2559 1.516 . S
C2559 C2558 1.516 . S
C2559 C2560 1.502 . S
C2559 C2561 1.561 . S
C2559 C2562 1.526 . S
C2560 H2544 0.959 . S
C2560 H2545 0.959 . S
C2560 H2546 0.961 . S
C2560 C2559 1.502 . S
C2561 H2547 0.960 . S
C2561 H2548 0.961 . S
C2561 H2549 0.959 . S
C2561 C2559 1.561 . S
C2562 C2559 1.526 . S
C2562 C2563 1.396 . S
C2562 C2567 1.390 . S
C2563 C2557 1.465 . S
C2563 C2562 1.396 . S
C2563 C2564 1.399 . S
C2564 H2550 0.929 . S
C2564 C2563 1.399 . S
C2564 C2565 1.385 . S
C2565 H2551 0.931 . S
C2565 C2564 1.385 . S
C2565 C2566 1.389 . S
C2566 C2565 1.389 . S
C2566 C2567 1.387 . S
C2567 H2552 0.930 . S
C2567 C2562 1.390 . S
C2567 C2566 1.387 . S
C1285 C834 2.042 . S
C1297 C39 2.045 . S
C1312 C675 2.102 . S
C1324 C75 2.068 . S
C1339 C728 1.686 . S
C1351 C145 1.685 . S
C1366 C764 1.865 . S
C1378 C181 1.876 . S
C1393 C781 2.043 . S
C1405 C92 2.032 . S
C1420 C128 1.858 . S
C1432 C817 1.834 . S
C1447 C658 1.846 . S
C1459 C198 1.865 . S
C1474 C711 1.816 . S
C1486 C22 1.820 . S
C1501 C976 1.705 . S
C1513 C234 1.684 . S
C1528 C304 1.970 . S
C1540 C1046 1.975 . S
C1555 C357 1.840 . S
C1567 C870 1.788 . S
C1582 C940 2.161 . S
C1594 C410 2.161 . S
C1609 C1188 2.079 . S
C1621 C463 2.125 . S
C1636 C516 1.889 . S
C1648 C1258 1.893 . S
C1663 C569 2.165 . S
C1675 C1099 2.163 . S
C1690 C622 1.667 . S
C1702 C1135 1.628 . S
C1717 C923 1.702 . S
C1729 C605 1.705 . S
C1744 C1241 2.013 . S
C1756 C287 2.028 . S
C1771 C340 1.840 . S
C1783 C1082 1.832 . S
C1798 C1152 2.045 . S
C1810 C393 2.018 . S
C1825 C1205 2.110 . S
C1837 C251 2.139 . S
C1852 C499 1.855 . S
C1864 C1029 1.851 . S
C1879 C887 2.003 . S
C1891 C552 1.963 . S
C1906 C993 1.878 . S
C1918 C446 1.857 . S
C1933 C38 1.993 . S
C1945 C250 1.962 . S
C1960 C294 1.826 . S
C1972 C82 1.762 . S
C1987 C144 1.829 . S
C1999 C347 1.790 . S
C2014 C188 1.759 . S
C2026 C400 1.708 . S
C2041 C453 1.932 . S
C2053 C91 1.988 . S
C2068 C506 1.773 . S
C2080 C135 1.692 . S
C2095 C559 2.011 . S
C2107 C197 1.999 . S
C2122 C29 1.641 . S
C2134 C612 1.650 . S
C2149 C621 1.978 . S
C2161 C241 1.883 . S
C2176 C303 2.114 . S
C2188 C462 2.171 . S
C2203 C356 1.965 . S
C2215 C515 1.972 . S
C2230 C568 2.231 . S
C2242 C409 2.188 . S
C2257 C886 1.939 . S
C2269 C665 1.988 . S
C2284 C930 1.787 . S
C2296 C718 1.751 . S
C2311 C780 1.985 . S
C2323 C992 1.952 . S
C2338 C824 1.896 . S
C2350 C1036 1.827 . S
C2365 C727 1.922 . S
C2377 C1089 1.919 . S
C2392 C771 1.902 . S
C2404 C1151 1.870 . S
C2419 C1204 2.167 . S
C2431 C833 2.122 . S
C2446 C674 1.922 . S
C2458 C1248 1.955 . S
C2473 C877 1.807 . S
C2485 C1257 1.848 . S
C2500 C1098 2.049 . S
C2512 C939 2.008 . S
C2527 C983 1.784 . S
C2539 C1142 1.850 . S
C2554 C1195 1.911 . S
C2566 C1045 1.978 . S
