# Generated by pormake.
# Topology uob, (4)-cn, num edge types: 1
# Building blocks:
#     Node 0, Type 0, BuildingBlock: QUQFOY_clean_sbu_1, # of connection points: 4
#     Node 1, Type 0, BuildingBlock: QUQFOY_clean_sbu_1, # of connection points: 4
#     Node 2, Type 0, BuildingBlock: QUQFOY_clean_sbu_1, # of connection points: 4
#     Node 3, Type 0, BuildingBlock: QUQFOY_clean_sbu_1, # of connection points: 4
#     Node 4, Type 0, BuildingBlock: QUQFOY_clean_sbu_1, # of connection points: 4
#     Node 5, Type 0, BuildingBlock: QUQFOY_clean_sbu_1, # of connection points: 4
#     Node 6, Type 0, BuildingBlock: QUQFOY_clean_sbu_1, # of connection points: 4
#     Node 7, Type 0, BuildingBlock: QUQFOY_clean_sbu_1, # of connection points: 4
#     Node 8, Type 0, BuildingBlock: QUQFOY_clean_sbu_1, # of connection points: 4
#     Node 9, Type 0, BuildingBlock: QUQFOY_clean_sbu_1, # of connection points: 4
#     Node 10, Type 0, BuildingBlock: QUQFOY_clean_sbu_1, # of connection points: 4
#     Node 11, Type 0, BuildingBlock: QUQFOY_clean_sbu_1, # of connection points: 4
#     Node 12, Type 0, BuildingBlock: QUQFOY_clean_sbu_1, # of connection points: 4
#     Node 13, Type 0, BuildingBlock: QUQFOY_clean_sbu_1, # of connection points: 4
#     Node 14, Type 0, BuildingBlock: QUQFOY_clean_sbu_1, # of connection points: 4
#     Node 15, Type 0, BuildingBlock: QUQFOY_clean_sbu_1, # of connection points: 4
#     Edge 16, Type (0, 0), BuildingBlock: UVAHIK_clean_linker_0, # of connection points: 2
#     Edge 17, Type (0, 0), BuildingBlock: UVAHIK_clean_linker_0, # of connection points: 2
#     Edge 18, Type (0, 0), BuildingBlock: UVAHIK_clean_linker_0, # of connection points: 2
#     Edge 19, Type (0, 0), BuildingBlock: UVAHIK_clean_linker_0, # of connection points: 2
#     Edge 20, Type (0, 0), BuildingBlock: UVAHIK_clean_linker_0, # of connection points: 2
#     Edge 21, Type (0, 0), BuildingBlock: UVAHIK_clean_linker_0, # of connection points: 2
#     Edge 22, Type (0, 0), BuildingBlock: UVAHIK_clean_linker_0, # of connection points: 2
#     Edge 23, Type (0, 0), BuildingBlock: UVAHIK_clean_linker_0, # of connection points: 2
#     Edge 24, Type (0, 0), BuildingBlock: UVAHIK_clean_linker_0, # of connection points: 2
#     Edge 25, Type (0, 0), BuildingBlock: UVAHIK_clean_linker_0, # of connection points: 2
#     Edge 26, Type (0, 0), BuildingBlock: UVAHIK_clean_linker_0, # of connection points: 2
#     Edge 27, Type (0, 0), BuildingBlock: UVAHIK_clean_linker_0, # of connection points: 2
#     Edge 28, Type (0, 0), BuildingBlock: UVAHIK_clean_linker_0, # of connection points: 2
#     Edge 29, Type (0, 0), BuildingBlock: UVAHIK_clean_linker_0, # of connection points: 2
#     Edge 30, Type (0, 0), BuildingBlock: UVAHIK_clean_linker_0, # of connection points: 2
#     Edge 31, Type (0, 0), BuildingBlock: UVAHIK_clean_linker_0, # of connection points: 2
#     Edge 32, Type (0, 0), BuildingBlock: UVAHIK_clean_linker_0, # of connection points: 2
#     Edge 33, Type (0, 0), BuildingBlock: UVAHIK_clean_linker_0, # of connection points: 2
#     Edge 34, Type (0, 0), BuildingBlock: UVAHIK_clean_linker_0, # of connection points: 2
#     Edge 35, Type (0, 0), BuildingBlock: UVAHIK_clean_linker_0, # of connection points: 2
#     Edge 36, Type (0, 0), BuildingBlock: UVAHIK_clean_linker_0, # of connection points: 2
#     Edge 37, Type (0, 0), BuildingBlock: UVAHIK_clean_linker_0, # of connection points: 2
#     Edge 38, Type (0, 0), BuildingBlock: UVAHIK_clean_linker_0, # of connection points: 2
#     Edge 39, Type (0, 0), BuildingBlock: UVAHIK_clean_linker_0, # of connection points: 2
#     Edge 40, Type (0, 0), BuildingBlock: UVAHIK_clean_linker_0, # of connection points: 2
#     Edge 41, Type (0, 0), BuildingBlock: UVAHIK_clean_linker_0, # of connection points: 2
#     Edge 42, Type (0, 0), BuildingBlock: UVAHIK_clean_linker_0, # of connection points: 2
#     Edge 43, Type (0, 0), BuildingBlock: UVAHIK_clean_linker_0, # of connection points: 2
#     Edge 44, Type (0, 0), BuildingBlock: UVAHIK_clean_linker_0, # of connection points: 2
#     Edge 45, Type (0, 0), BuildingBlock: UVAHIK_clean_linker_0, # of connection points: 2
#     Edge 46, Type (0, 0), BuildingBlock: UVAHIK_clean_linker_0, # of connection points: 2
#     Edge 47, Type (0, 0), BuildingBlock: UVAHIK_clean_linker_0, # of connection points: 2
# Relax obj value: 0.052
# Max RMSD: 0.120
# Mean RMSD: 0.120
data_MOF--net-uob--node1-QUQFOY_clean_sbu_1--edge1-UVAHIK_clean_linker_0
_symmetry_space_group_name_H-M    P1
_symmetry_Int_Tables_number       1
_symmetry_cell_setting            triclinic
loop_
_symmetry_equiv_pos_as_xyz
'x, y, z'
_cell_length_a     71.8582
_cell_length_b     71.771663
_cell_length_c     36.501781
_cell_angle_alpha  90.003927
_cell_angle_beta   90.04412
_cell_angle_gamma 90.053194
loop_
_atom_site_label
_atom_site_type_symbol
_atom_site_fract_x
_atom_site_fract_y
_atom_site_fract_z
_atom_type_partial_charge
O0 O 0.13643 0.06646 0.36039 0.0
Cd1 Cd 0.13644 0.04729 0.31861 0.0
Cd2 Cd 0.1218 0.07945 0.28418 0.0
O3 O 0.13086 0.09278 0.33108 0.0
O4 O 0.15073 0.02674 0.34242 0.0
O5 O 0.16181 0.04321 0.29624 0.0
C6 C 0.16459 0.03101 0.32169 0.0
C7 C 0.12561 0.09282 0.22614 0.0
C8 C 0.13529 0.08411 0.36014 0.0
C9 C 0.0968 0.04562 0.29406 0.0
O10 O 0.09837 0.06305 0.28859 0.0
O11 O 0.111 0.03592 0.30262 0.0
O12 O 0.11401 0.09952 0.24959 0.0
O13 O 0.13583 0.07893 0.23629 0.0
O14 O 0.94452 0.63131 0.60985 0.0
Cd15 Cd 0.96221 0.63463 0.56625 0.0
Cd16 Cd 0.93054 0.62207 0.53202 0.0
O17 O 0.9179 0.63094 0.57994 0.0
O18 O 0.98234 0.65018 0.58849 0.0
O19 O 0.96311 0.66078 0.54608 0.0
C20 C 0.97607 0.66408 0.56984 0.0
C21 C 0.91643 0.62642 0.47472 0.0
C22 C 0.92687 0.63206 0.60989 0.0
C23 C 0.96404 0.5964 0.53738 0.0
O24 O 0.94648 0.59813 0.53451 0.0
O25 O 0.97406 0.61048 0.5453 0.0
O26 O 0.90987 0.6148 0.49833 0.0
O27 O 0.93058 0.63642 0.48437 0.0
O28 O 0.37358 0.44404 0.87337 0.0
Cd29 Cd 0.37288 0.46262 0.83061 0.0
Cd30 Cd 0.38697 0.43058 0.79714 0.0
O31 O 0.37817 0.41743 0.84446 0.0
O32 O 0.35817 0.48312 0.85357 0.0
O33 O 0.34727 0.46567 0.80858 0.0
C34 C 0.34428 0.47812 0.83348 0.0
C35 C 0.3819 0.41793 0.7389 0.0
C36 C 0.37435 0.42637 0.87354 0.0
C37 C 0.41218 0.4643 0.80472 0.0
O38 O 0.4106 0.44679 0.80044 0.0
O39 O 0.39801 0.47409 0.81305 0.0
O40 O 0.39376 0.41072 0.76129 0.0
O41 O 0.37209 0.43185 0.75038 0.0
O42 O 0.57455 0.87115 0.10428 0.0
Cd43 Cd 0.5506 0.87153 0.07311 0.0
Cd44 Cd 0.57979 0.88846 0.02504 0.0
O45 O 0.59691 0.88163 0.06806 0.0
O46 O 0.53366 0.8587 0.10852 0.0
O47 O 0.5416 0.84623 0.05562 0.0
C48 C 0.53347 0.8445 0.08699 0.0
C49 C 0.59169 0.88641 0.96534 0.0
C50 C 0.59154 0.87497 0.09845 0.0
C51 C 0.54564 0.91139 0.04735 0.0
O52 O 0.56178 0.91027 0.03331 0.0
O53 O 0.53797 0.89722 0.06214 0.0
O54 O 0.59741 0.89885 0.98811 0.0
O55 O 0.57939 0.87463 0.9767 0.0
O56 O 0.13021 0.44527 0.95046 0.0
Cd57 Cd 0.13365 0.46291 0.99414 0.0
Cd58 Cd 0.12159 0.43103 0.02821 0.0
O59 O 0.13045 0.41855 0.9801 0.0
O60 O 0.1487 0.48324 0.97135 0.0
O61 O 0.15992 0.46424 0.01354 0.0
C62 C 0.16283 0.4772 0.9896 0.0
C63 C 0.12624 0.41686 0.08534 0.0
C64 C 0.13125 0.42761 0.95021 0.0
C65 C 0.09564 0.46437 0.02369 0.0
O66 O 0.09751 0.44679 0.0262 0.0
O67 O 0.1096 0.47454 0.01573 0.0
O68 O 0.11464 0.41021 0.06179 0.0
O69 O 0.13606 0.43114 0.0757 0.0
O70 O 0.56725 0.63274 0.20987 0.0
Cd71 Cd 0.54636 0.63417 0.24787 0.0
Cd72 Cd 0.57778 0.61987 0.28936 0.0
O73 O 0.59247 0.62788 0.243 0.0
O74 O 0.52732 0.64752 0.2178 0.0
O75 O 0.54049 0.66013 0.26644 0.0
C76 C 0.52993 0.66199 0.23801 0.0
C77 C 0.5913 0.62299 0.3477 0.0
C78 C 0.58481 0.63144 0.21237 0.0
C79 C 0.54336 0.59523 0.27603 0.0
O80 O 0.56036 0.59698 0.28525 0.0
O81 O 0.53432 0.60907 0.26333 0.0
O82 O 0.59722 0.61092 0.32436 0.0
O83 O 0.57809 0.63401 0.33739 0.0
O84 O 0.37152 0.07146 0.44497 0.0
Cd85 Cd 0.37225 0.05084 0.48407 0.0
Cd86 Cd 0.38777 0.08232 0.52104 0.0
O87 O 0.37867 0.09696 0.47585 0.0
O88 O 0.35867 0.03075 0.45714 0.0
O89 O 0.34702 0.04485 0.50567 0.0
C90 C 0.3447 0.03354 0.4785 0.0
C91 C 0.38377 0.09378 0.58051 0.0
C92 C 0.37329 0.08905 0.44657 0.0
C93 C 0.41232 0.04868 0.507 0.0
O94 O 0.41101 0.06594 0.51437 0.0
O95 O 0.39795 0.03932 0.49792 0.0
O96 O 0.39559 0.10113 0.55823 0.0
O97 O 0.3735 0.08032 0.56842 0.0
O98 O 0.93598 0.87324 0.7066 0.0
Cd99 Cd 0.95853 0.87278 0.74108 0.0
Cd100 Cd 0.9283 0.88911 0.7866 0.0
O101 O 0.91246 0.8826 0.74106 0.0
O102 O 0.97673 0.85918 0.7094 0.0
O103 O 0.96504 0.84706 0.75991 0.0
C104 C 0.9748 0.84493 0.7305 0.0
C105 C 0.91492 0.88662 0.84509 0.0
C106 C 0.91879 0.87669 0.71073 0.0
C107 C 0.96344 0.91203 0.76952 0.0
O108 O 0.94699 0.91076 0.7821 0.0
O109 O 0.9712 0.89813 0.75405 0.0
O110 O 0.90979 0.89925 0.82216 0.0
O111 O 0.92732 0.87479 0.83438 0.0
O112 O 0.63207 0.56425 0.86403 0.0
Cd113 Cd 0.63529 0.54602 0.82129 0.0
Cd114 Cd 0.62232 0.57742 0.78636 0.0
O115 O 0.63129 0.59074 0.83366 0.0
O116 O 0.65015 0.526 0.84558 0.0
O117 O 0.66159 0.54411 0.80217 0.0
C118 C 0.66436 0.53158 0.82704 0.0
C119 C 0.62702 0.59007 0.72789 0.0
C120 C 0.63264 0.58192 0.86376 0.0
C121 C 0.5969 0.54374 0.79347 0.0
O122 O 0.59848 0.5613 0.78993 0.0
O123 O 0.61109 0.53389 0.80133 0.0
O124 O 0.6153 0.59726 0.75054 0.0
O125 O 0.63693 0.57619 0.7392 0.0
O126 O 0.43795 0.13463 0.10166 0.0
Cd127 Cd 0.46034 0.1348 0.06663 0.0
Cd128 Cd 0.43005 0.11977 0.02223 0.0
O129 O 0.41398 0.12825 0.06594 0.0
O130 O 0.47873 0.14763 0.09913 0.0
O131 O 0.46795 0.16042 0.04851 0.0
C132 C 0.47749 0.16206 0.07835 0.0
C133 C 0.41808 0.12253 0.96261 0.0
C134 C 0.42053 0.1329 0.09694 0.0
C135 C 0.46349 0.09515 0.04123 0.0
O136 O 0.44678 0.09677 0.03017 0.0
O137 O 0.47236 0.10923 0.05351 0.0
O138 O 0.41154 0.11061 0.9856 0.0
O139 O 0.4312 0.13346 0.97379 0.0
O140 O 0.87436 0.9447 0.36195 0.0
Cd141 Cd 0.87302 0.96401 0.32047 0.0
Cd142 Cd 0.88638 0.93302 0.28328 0.0
O143 O 0.87778 0.91897 0.32967 0.0
O144 O 0.85797 0.98406 0.34407 0.0
O145 O 0.84749 0.96693 0.29818 0.0
C146 C 0.84429 0.97921 0.32331 0.0
C147 C 0.88136 0.92065 0.22476 0.0
C148 C 0.87479 0.92704 0.36009 0.0
C149 C 0.91193 0.96632 0.29349 0.0
O150 O 0.9102 0.94897 0.28732 0.0
O151 O 0.8979 0.97594 0.30327 0.0
O152 O 0.89331 0.91346 0.24695 0.0
O153 O 0.8715 0.93448 0.23646 0.0
O154 O 0.06598 0.37644 0.60085 0.0
Cd155 Cd 0.04692 0.37333 0.55943 0.0
Cd156 Cd 0.07792 0.38701 0.52193 0.0
O157 O 0.09191 0.37918 0.56908 0.0
O158 O 0.02733 0.35827 0.5847 0.0
O159 O 0.04468 0.34707 0.53994 0.0
C160 C 0.03254 0.34416 0.56543 0.0
C161 C 0.0911 0.38245 0.46387 0.0
C162 C 0.08363 0.37698 0.59954 0.0
C163 C 0.04372 0.41172 0.53044 0.0
O164 O 0.06114 0.41034 0.5249 0.0
O165 O 0.03433 0.39753 0.54037 0.0
O166 O 0.09754 0.39474 0.48628 0.0
O167 O 0.07761 0.372 0.4751 0.0
O168 O 0.63478 0.93809 0.44582 0.0
Cd169 Cd 0.63464 0.96042 0.48132 0.0
Cd170 Cd 0.61871 0.9307 0.52504 0.0
O171 O 0.62565 0.91454 0.48059 0.0
O172 O 0.64856 0.97919 0.45156 0.0
O173 O 0.65993 0.96682 0.50219 0.0
C174 C 0.66242 0.97711 0.47355 0.0
C175 C 0.6229 0.91906 0.58438 0.0
C176 C 0.63159 0.92084 0.45029 0.0
C177 C 0.59506 0.96477 0.50763 0.0
O178 O 0.59624 0.94811 0.51919 0.0
O179 O 0.60923 0.97298 0.49414 0.0
O180 O 0.61019 0.91261 0.56292 0.0
O181 O 0.6338 0.93184 0.57167 0.0
O182 O 0.07078 0.13404 0.70531 0.0
Cd183 Cd 0.04843 0.13571 0.74005 0.0
Cd184 Cd 0.07776 0.1207 0.78714 0.0
O185 O 0.09412 0.12682 0.74209 0.0
O186 O 0.03039 0.14965 0.70853 0.0
O187 O 0.04287 0.16173 0.75842 0.0
C188 C 0.03289 0.16395 0.72928 0.0
C189 C 0.09014 0.12454 0.84625 0.0
C190 C 0.08802 0.13131 0.71061 0.0
C191 C 0.04316 0.09706 0.77005 0.0
O192 O 0.05957 0.09855 0.78282 0.0
O193 O 0.03536 0.11081 0.75413 0.0
O194 O 0.09585 0.11158 0.82464 0.0
O195 O 0.07774 0.13593 0.83384 0.0
O196 O 0.87633 0.56562 0.95918 0.0
Cd197 Cd 0.8729 0.54662 1.0006 0.0
Cd198 Cd 0.88635 0.5778 0.0381 0.0
O199 O 0.87858 0.59169 0.99077 0.0
O200 O 0.85829 0.52696 0.97453 0.0
O201 O 0.84648 0.54416 0.01891 0.0
C202 C 0.84394 0.53205 0.99316 0.0
C203 C 0.88171 0.59107 0.09609 0.0
C204 C 0.8767 0.58329 0.96032 0.0
C205 C 0.91106 0.54353 0.03038 0.0
O206 O 0.90967 0.561 0.0355 0.0
O207 O 0.89692 0.53407 0.02047 0.0
O208 O 0.89398 0.59752 0.0737 0.0
O209 O 0.8713 0.57753 0.08484 0.0
O210 O 0.43559 0.37189 0.21812 0.0
Cd211 Cd 0.45926 0.37082 0.24948 0.0
Cd212 Cd 0.43006 0.38687 0.2999 0.0
O213 O 0.41317 0.38109 0.25537 0.0
O214 O 0.476 0.35798 0.21371 0.0
O215 O 0.46741 0.34506 0.26582 0.0
C216 C 0.47568 0.34352 0.23455 0.0
C217 C 0.41707 0.38488 0.35894 0.0
C218 C 0.41859 0.37555 0.22408 0.0
C219 C 0.46518 0.40956 0.27968 0.0
O220 O 0.44924 0.40811 0.29457 0.0
O221 O 0.47225 0.39599 0.26199 0.0
O222 O 0.41226 0.39768 0.33616 0.0
O223 O 0.42898 0.37264 0.34789 0.0
C224 C 0.32413 0.0139 0.43874 0.0
C225 C 0.32602 0.02634 0.46829 0.0
C226 C 0.30663 0.01017 0.42358 0.0
C227 C 0.27159 0.01727 0.37946 0.0
H228 H 0.22579 0.01577 0.43532 0.0
C229 C 0.19936 0.03332 0.31648 0.0
C230 C 0.18359 0.02444 0.33115 0.0
C231 C 0.21704 0.03015 0.33145 0.0
C232 C 0.23843 0.01589 0.4192 0.0
H233 H 0.31082 0.04372 0.50648 0.0
H234 H 0.28033 0.03733 0.47997 0.0
H235 H 0.25556 0.01572 0.46727 0.0
H236 H 0.17428 1.00416 0.37122 0.0
H237 H 0.20508 0.9983 0.39662 0.0
H238 H 0.25447 0.01744 0.33139 0.0
C239 C 0.29234 0.03031 0.46859 0.0
C240 C 0.25553 0.0161 0.43762 0.0
C241 C 0.30986 0.03399 0.48387 0.0
C242 C 0.1861 0.01133 0.35937 0.0
C243 C 0.20376 0.00811 0.37423 0.0
C244 C 0.25449 0.01705 0.36105 0.0
C245 C 0.29057 0.01883 0.43747 0.0
C246 C 0.27235 0.01703 0.41802 0.0
C247 C 0.21937 0.01796 0.36134 0.0
C248 C 0.23766 0.0166 0.38066 0.0
H249 H 0.33627 0.00767 0.42617 0.0
H250 H 0.30577 1.0009 0.40022 0.0
H251 H 0.2842 0.01824 0.36338 0.0
H252 H 0.19792 0.04359 0.29491 0.0
H253 H 0.22868 0.03807 0.32088 0.0
C254 C 0.97457 0.80998 0.73504 0.0
C255 C 0.98125 0.82628 0.7182 0.0
C256 C 0.97757 0.7925 0.71894 0.0
C257 C 0.9866 0.77177 0.62772 0.0
H258 H 0.9921 0.72611 0.68329 0.0
C259 C 0.99543 0.68652 0.60624 0.0
C260 C 0.98158 0.68341 0.57966 0.0
C261 C 0.99819 0.70429 0.62109 0.0
C262 C 0.99083 0.73872 0.66721 0.0
H263 H 0.99741 0.83683 0.67251 0.0
H264 H 1.00301 0.80643 0.64504 0.0
H265 H 0.99262 0.75598 0.71499 0.0
H266 H 0.96044 0.69683 0.54652 0.0
H267 H 0.96517 0.72777 0.57249 0.0
H268 H 0.98489 0.75452 0.57993 0.0
C269 C 0.99503 0.80713 0.67015 0.0
C270 C 0.99088 0.75588 0.68552 0.0
C271 C 0.99197 0.82458 0.68615 0.0
C272 C 0.97131 0.69873 0.56677 0.0
C273 C 0.97403 0.71652 0.58173 0.0
C274 C 0.98656 0.75462 0.60942 0.0
C275 C 0.98738 0.7909 0.68567 0.0
C276 C 0.98859 0.77264 0.66609 0.0
C277 C 0.98715 0.71943 0.60986 0.0
C278 C 0.98848 0.73783 0.62892 0.0
H279 H 0.96616 0.81078 0.75959 0.0
H280 H 0.97136 0.78036 0.73163 0.0
H281 H 0.98455 0.78433 0.6118 0.0
H282 H 1.00366 0.67507 0.61672 0.0
H283 H 0.00871 0.70607 0.64208 0.0
C284 C 0.32238 0.49685 0.87206 0.0
C285 C 0.32514 0.48416 0.84318 0.0
C286 C 0.30466 0.49956 0.88699 0.0
C287 C 0.26999 0.49043 0.93107 0.0
H288 H 0.22434 0.4905 0.8745 0.0
C289 C 0.19759 0.47361 0.99325 0.0
C290 C 0.18197 0.48297 0.97914 0.0
C291 C 0.21528 0.47649 0.97807 0.0
C292 C 0.23695 0.49072 0.89077 0.0
H293 H 0.31114 0.46527 0.80589 0.0
H294 H 0.28022 0.47004 0.83183 0.0
H295 H 0.25426 0.49119 0.84296 0.0
H296 H 0.17296 0.50358 0.93943 0.0
H297 H 0.20375 0.50876 0.91345 0.0
H298 H 0.25269 0.48985 0.97886 0.0
C299 C 0.29177 0.47794 0.84292 0.0
C300 C 0.25412 0.49091 0.87263 0.0
C301 C 0.30953 0.47521 0.82798 0.0
C302 C 0.18465 0.49607 0.95094 0.0
C303 C 0.20229 0.49892 0.93575 0.0
C304 C 0.25283 0.49015 0.9492 0.0
C305 C 0.28922 0.48969 0.87341 0.0
C306 C 0.27088 0.49064 0.89252 0.0
C307 C 0.21775 0.48878 0.94839 0.0
C308 C 0.23607 0.49016 0.9293 0.0
H309 H 0.33406 0.50406 0.88438 0.0
H310 H 0.30315 0.50902 0.90991 0.0
H311 H 0.2826 0.48995 0.94732 0.0
H312 H 0.19603 0.46335 0.0148 0.0
H313 H 0.22683 0.46836 0.98841 0.0
C314 C 0.52518 0.81077 0.07679 0.0
C315 C 0.52647 0.82622 0.10026 0.0
C316 C 0.52133 0.79298 0.09085 0.0
C317 C 0.50744 0.76767 0.17746 0.0
H318 H 0.53366 0.7268 0.13123 0.0
C319 C 0.52652 0.69668 0.24661 0.0
C320 C 0.52338 0.68058 0.22551 0.0
C321 C 0.5234 0.71443 0.23169 0.0
C322 C 0.5261 0.73804 0.14426 0.0
H323 H 0.52411 0.83516 0.15683 0.0
H324 H 0.51823 0.80441 0.18136 0.0
H325 H 0.53469 0.75758 0.10358 0.0
H326 H 0.5136 0.67057 0.17274 0.0
H327 H 0.50854 0.70143 0.14677 0.0
H328 H 0.49984 0.74801 0.21932 0.0
C329 C 0.5196 0.80584 0.15197 0.0
C330 C 0.52655 0.75575 0.12825 0.0
C331 C 0.52309 0.8236 0.13784 0.0
C332 C 0.51617 0.68263 0.18986 0.0
C333 C 0.51337 0.70031 0.17481 0.0
C334 C 0.50733 0.75 0.19387 0.0
C335 C 0.51904 0.79014 0.12886 0.0
C336 C 0.51733 0.77092 0.14467 0.0
C337 C 0.51737 0.7164 0.19522 0.0
C338 C 0.51671 0.73503 0.17747 0.0
H339 H 0.52763 0.81232 0.04767 0.0
H340 H 0.52053 0.78142 0.07188 0.0
H341 H 0.49981 0.77877 0.19071 0.0
H342 H 0.53212 0.69561 0.27409 0.0
H343 H 0.52664 0.72662 0.248 0.0
C344 C 0.69914 0.53522 0.82436 0.0
C345 C 0.68342 0.52589 0.83817 0.0
C346 C 0.7167 0.53254 0.84027 0.0
C347 C 0.73755 0.51894 0.92887 0.0
H348 H 0.7838 0.52017 0.87445 0.0
C349 C 0.8091 0.53509 0.99567 0.0
C350 C 0.82499 0.52627 0.98142 0.0
C351 C 0.79161 0.53233 0.97951 0.0
C352 C 0.77103 0.51957 0.89013 0.0
H353 H 0.67413 0.50549 0.87803 0.0
H354 H 0.7047 0.50061 0.90524 0.0
H355 H 0.75427 0.51976 0.84153 0.0
H356 H 0.83468 0.50667 0.94041 0.0
H357 H 0.80422 0.50163 0.91276 0.0
H358 H 0.75431 0.5188 0.97747 0.0
C359 C 0.70342 0.51031 0.88266 0.0
C360 C 0.75407 0.51955 0.87119 0.0
C361 C 0.6859 0.51298 0.86677 0.0
C362 C 0.82277 0.51377 0.95203 0.0
C363 C 0.80531 0.51101 0.9359 0.0
C364 C 0.75451 0.51902 0.94781 0.0
C365 C 0.71895 0.52047 0.87038 0.0
C366 C 0.73709 0.51937 0.8903 0.0
C367 C 0.78959 0.52067 0.94871 0.0
C368 C 0.77148 0.51948 0.92871 0.0
H369 H 0.69774 0.54534 0.80252 0.0
H370 H 0.72831 0.54067 0.83017 0.0
H371 H 0.72476 0.51904 0.94457 0.0
H372 H 0.81031 0.54489 0.01812 0.0
H373 H 0.77985 0.54008 0.99003 0.0
C374 C 0.4858 0.32293 0.18302 0.0
C375 C 0.48235 0.32526 0.22066 0.0
C376 C 0.48909 0.30525 0.16832 0.0
C377 C 0.48135 0.25506 0.19023 0.0
H378 H 0.50869 0.24766 0.0998 0.0
C379 C 0.49103 0.18221 0.12755 0.0
C380 C 0.48436 0.18044 0.09145 0.0
C381 C 0.494 0.19978 0.14303 0.0
C382 C 0.50102 0.24956 0.12506 0.0
H383 H 0.4808 0.3109 0.27274 0.0
H384 H 0.48752 0.28014 0.24754 0.0
H385 H 0.50881 0.27825 0.12917 0.0
H386 H 0.4768 0.19582 0.04254 0.0
H387 H 0.48251 0.22661 0.06945 0.0
H388 H 0.47392 0.22622 0.1863 0.0
C389 C 0.48695 0.29188 0.22897 0.0
C390 C 0.50096 0.26712 0.1419 0.0
C391 C 0.48332 0.30958 0.2436 0.0
C392 C 0.48197 0.19668 0.07037 0.0
C393 C 0.48522 0.21431 0.08577 0.0
C394 C 0.48171 0.23747 0.17378 0.0
C395 C 0.48935 0.28935 0.19091 0.0
C396 C 0.49088 0.27024 0.1745 0.0
C397 C 0.49067 0.21602 0.12265 0.0
C398 C 0.49135 0.23456 0.14081 0.0
H399 H 0.48502 0.33467 0.16444 0.0
H400 H 0.49055 0.30405 0.13891 0.0
H401 H 0.47304 0.25681 0.21471 0.0
H402 H 0.49305 0.17004 0.14465 0.0
H403 H 0.4984 0.20068 0.17137 0.0
C404 C 0.80962 0.97605 0.3173 0.0
C405 C 0.82509 0.9854 0.3321 0.0
C406 C 0.79175 0.97914 0.33138 0.0
C407 C 0.75381 0.99206 0.35837 0.0
H408 H 0.75141 0.99545 0.46432 0.0
C409 C 0.68318 0.9957 0.43232 0.0
C410 C 0.68113 0.98406 0.46304 0.0
C411 C 0.70079 0.99929 0.41758 0.0
C412 C 0.7518 0.99448 0.43473 0.0
H413 H 0.8337 0.00634 0.37149 0.0
H414 H 0.80256 0.01206 0.39529 0.0
H415 H 0.78155 0.9952 0.43392 0.0
H416 H 0.69614 0.96789 0.50357 0.0
H417 H 0.72682 0.97397 0.47773 0.0
H418 H 0.7241 0.99045 0.35928 0.0
C419 C 0.80426 1.00195 0.37352 0.0
C420 C 0.76912 0.99458 0.41718 0.0
C421 C 0.82211 0.99881 0.35958 0.0
C422 C 0.69721 0.97701 0.48002 0.0
C423 C 0.71485 0.98052 0.46514 0.0
C424 C 0.73649 0.99192 0.37592 0.0
C425 C 0.78892 0.99171 0.36047 0.0
C426 C 0.77038 0.99314 0.37877 0.0
C427 C 0.71681 0.99124 0.43305 0.0
C428 C 0.73524 0.99291 0.41438 0.0
H429 H 0.81142 0.96555 0.29629 0.0
H430 H 0.78034 0.97089 0.32074 0.0
H431 H 0.7542 0.99113 0.32877 0.0
H432 H 0.67109 1.00146 0.41867 0.0
H433 H 0.70178 0.00798 0.39341 0.0
C434 C 0.01361 0.32238 0.6041 0.0
C435 C 0.02682 0.32502 0.57616 0.0
C436 C 0.01075 0.30474 0.61947 0.0
C437 C 0.02081 0.25407 0.60744 0.0
H438 H 0.01701 0.25321 0.71342 0.0
C439 C 0.0155 0.18448 0.68554 0.0
C440 C 0.02672 0.18268 0.71693 0.0
C441 C 0.01254 0.20194 0.66947 0.0
C442 C 0.01812 0.25317 0.68383 0.0
H443 H 0.04671 0.31093 0.54123 0.0
H444 H 0.04185 0.28022 0.56812 0.0
H445 H 0.01758 0.28294 0.6813 0.0
H446 H 0.04285 0.19802 0.75708 0.0
H447 H 0.03784 0.22842 0.72895 0.0
H448 H 0.02217 0.22433 0.61008 0.0
C449 C 0.03353 0.29174 0.57802 0.0
C450 C 0.0182 0.27025 0.66529 0.0
C451 C 0.03634 0.30939 0.56253 0.0
C452 C 0.03404 0.1989 0.73306 0.0
C453 C 0.03115 0.21637 0.71686 0.0
C454 C 0.02076 0.23699 0.62598 0.0
C455 C 0.02108 0.28927 0.60742 0.0
C456 C 0.01973 0.27097 0.62684 0.0
C457 C 0.02079 0.21806 0.68423 0.0
C458 C 0.01959 0.23628 0.66448 0.0
H459 H 0.00596 0.33409 0.61518 0.0
H460 H 1.00073 0.30333 0.64144 0.0
H461 H 0.02182 0.25402 0.57785 0.0
H462 H 0.00956 0.1723 0.67248 0.0
H463 H 0.00412 0.20271 0.6449 0.0
C464 C 0.07555 0.01759 0.29331 0.0
C465 C 0.07802 0.03702 0.29171 0.0
C466 C 0.05763 0.00984 0.29204 0.0
C467 C 0.00867 0.02121 0.31122 0.0
H468 H 0.99726 0.97939 0.24791 0.0
C469 C 0.93323 0.99428 0.29358 0.0
C470 C 0.9307 0.97491 0.29074 0.0
C471 C 0.95113 1.00204 0.29223 0.0
C472 C 1.00022 0.99092 0.26614 0.0
H473 H 0.06351 0.06347 0.28735 0.0
H474 H 0.0325 0.04997 0.28547 0.0
H475 H 0.02881 0.99195 0.24938 0.0
H476 H 0.94512 0.94854 0.28427 0.0
H477 H 0.97609 0.96191 0.28295 0.0
H478 H 0.9803 0.02003 0.32869 0.0
C479 C 0.04436 0.04074 0.2878 0.0
C480 C 0.01833 0.99812 0.2669 0.0
C481 C 0.06219 0.04845 0.28865 0.0
C482 C 0.94647 0.96353 0.28629 0.0
C483 C 0.96432 0.97124 0.28528 0.0
C484 C 0.99062 0.01391 0.31078 0.0
C485 C 0.04184 0.02137 0.28964 0.0
C486 C 0.02274 0.01338 0.28936 0.0
C487 C 0.96694 0.9906 0.28834 0.0
C488 C 0.98612 0.99866 0.2882 0.0
H489 H 0.08742 0.00838 0.29566 0.0
H490 H 0.0561 0.99485 0.29368 0.0
H491 H 0.0117 0.03285 0.32916 0.0
H492 H 0.92139 1.00346 0.29688 0.0
H493 H 0.95254 0.01703 0.29408 0.0
C494 C 0.99182 0.575 0.53287 0.0
C495 C 0.97242 0.57758 0.53322 0.0
C496 C 0.9994 0.55703 0.53036 0.0
C497 C 0.98818 0.50794 0.54954 0.0
H498 H 0.02884 0.49684 0.48341 0.0
C499 C 0.01547 0.43261 0.53089 0.0
C500 C 0.0348 0.43033 0.52713 0.0
C501 C 0.00747 0.45042 0.52956 0.0
C502 C 0.01764 0.49971 0.5024 0.0
H503 H 0.94582 0.56321 0.53085 0.0
H504 H 0.95903 0.5321 0.52679 0.0
H505 H 0.01625 0.52836 0.48593 0.0
H506 H 0.06084 0.44512 0.5188 0.0
H507 H 0.04707 0.47591 0.51745 0.0
H508 H 0.98977 0.47951 0.56676 0.0
C509 C 0.96838 0.54392 0.52858 0.0
C510 C 0.01042 0.5178 0.50375 0.0
C511 C 0.96083 0.56181 0.53068 0.0
C512 C 0.04588 0.44627 0.52158 0.0
C513 C 0.03794 0.46401 0.52056 0.0
C514 C 0.99552 0.4899 0.54848 0.0
C515 C 0.98773 0.54129 0.5286 0.0
C516 C 0.9956 0.52212 0.52732 0.0
C517 C 0.01864 0.4664 0.52471 0.0
C518 C 0.01038 0.48551 0.52493 0.0
H519 H 1.00115 0.58682 0.53479 0.0
H520 H 0.01438 0.55543 0.53063 0.0
H521 H 0.9769 0.51089 0.56832 0.0
H522 H 0.00651 0.42065 0.53508 0.0
H523 H 0.99252 0.45164 0.53228 0.0
C524 C 0.4467 0.46147 0.79737 0.0
C525 C 0.43091 0.47291 0.80104 0.0
C526 C 0.4645 0.46918 0.79506 0.0
C527 C 0.49012 0.5118 0.77145 0.0
H528 H 0.52932 0.48998 0.83056 0.0
C529 C 0.56229 0.54649 0.78684 0.0
C530 C 0.57813 0.53512 0.79048 0.0
C531 C 0.54445 0.53875 0.7864 0.0
C532 C 0.51865 0.49607 0.81336 0.0
H533 H 0.42155 0.50157 0.80455 0.0
H534 H 0.45281 0.51511 0.80012 0.0
H535 H 0.49795 0.47717 0.8334 0.0
H536 H 0.58755 0.50655 0.79547 0.0
H537 H 0.55639 0.49295 0.79374 0.0
H538 H 0.51081 0.53054 0.75094 0.0
C539 C 0.45128 0.50011 0.79909 0.0
C540 C 0.50062 0.48877 0.81517 0.0
C541 C 0.43339 0.49235 0.80178 0.0
C542 C 0.57567 0.51573 0.7928 0.0
C543 C 0.55777 0.50795 0.79209 0.0
C544 C 0.5082 0.51901 0.76938 0.0
C545 C 0.46704 0.48857 0.79605 0.0
C546 C 0.48614 0.49657 0.7943 0.0
C547 C 0.54189 0.51938 0.78929 0.0
C548 C 0.52273 0.51129 0.79042 0.0
H549 H 0.44539 0.44644 0.79666 0.0
H550 H 0.47632 0.45993 0.79225 0.0
H551 H 0.47931 0.51795 0.75466 0.0
H552 H 0.5636 0.5615 0.78516 0.0
H553 H 0.53263 0.54807 0.78481 0.0
C554 C 0.51704 0.93169 0.05294 0.0
C555 C 0.53633 0.92986 0.04756 0.0
C556 C 0.50868 0.94937 0.05272 0.0
C557 C 0.51873 0.99887 0.06858 0.0
H558 H 0.47652 0.00872 0.00544 0.0
C559 C 0.49137 0.07392 0.04593 0.0
C560 C 0.47211 0.07634 0.0413 0.0
C561 C 0.49912 0.05598 0.04663 0.0
C562 C 0.4881 0.00621 0.02376 0.0
H563 H 0.56196 0.94525 0.03839 0.0
H564 H 0.54745 0.97584 0.03876 0.0
H565 H 0.48937 0.97733 0.00871 0.0
H566 H 0.44588 0.06173 0.03433 0.0
H567 H 0.45917 0.03076 0.03688 0.0
H568 H 0.51733 0.02751 0.08443 0.0
C569 C 0.53878 0.96367 0.04288 0.0
C570 C 0.49548 0.98819 0.0255 0.0
C571 C 0.54705 0.94609 0.04243 0.0
C572 C 0.46082 0.06043 0.03753 0.0
C573 C 0.46849 0.04257 0.03877 0.0
C574 C 0.5112 0.01683 0.06731 0.0
C575 C 0.51953 0.96553 0.04791 0.0
C576 C 0.51096 0.98436 0.0477 0.0
C577 C 0.48776 0.04003 0.04324 0.0
C578 C 0.49583 0.02082 0.04469 0.0
H579 H 0.50841 0.91948 0.05693 0.0
H580 H 0.49379 0.95043 0.05677 0.0
H581 H 0.5306 0.99627 0.08618 0.0
H582 H 0.50048 0.08586 0.04877 0.0
H583 H 0.51406 0.05468 0.04949 0.0
C584 C 0.06117 0.4609 0.03117 0.0
C585 C 0.07682 0.47261 0.0283 0.0
C586 C 0.04326 0.46834 0.03357 0.0
C587 C 0.01698 0.51035 0.05835 0.0
H588 H 0.97874 0.48936 0.99563 0.0
C589 C 0.94554 0.54573 0.03962 0.0
C590 C 0.92964 0.53462 0.03412 0.0
C591 C 0.96326 0.53777 0.04097 0.0
C592 C 0.98911 0.4952 0.01384 0.0
H593 H 0.08584 0.50144 0.02653 0.0
H594 H 0.05443 0.51448 0.03119 0.0
H595 H 0.01011 0.47656 0.99416 0.0
H596 H 0.91996 0.50625 0.02668 0.0
H597 H 0.9509 0.49225 0.03005 0.0
H598 H 0.99601 0.52882 0.07849 0.0
C599 C 0.05613 0.49948 0.03149 0.0
C600 C 0.00715 0.4879 0.01284 0.0
C601 C 0.07411 0.49202 0.02869 0.0
C602 C 0.9319 0.51524 0.0308 0.0
C603 C 0.94968 0.50723 0.03247 0.0
C604 C 0.99889 0.51754 0.05965 0.0
C605 C 0.0405 0.4877 0.03352 0.0
C606 C 0.02132 0.49545 0.03493 0.0
C607 C 0.96563 0.51843 0.03722 0.0
C608 C 0.98471 0.51016 0.0372 0.0
H609 H 0.06267 0.44588 0.031 0.0
H610 H 0.03153 0.4589 0.03557 0.0
H611 H 0.02753 0.51629 0.07607 0.0
H612 H 0.9444 0.56072 0.04208 0.0
H613 H 0.97514 0.54693 0.044 0.0
C614 C 0.46833 0.44173 0.30551 0.0
C615 C 0.47486 0.42785 0.28154 0.0
C616 C 0.47607 0.45958 0.30527 0.0
C617 C 0.51708 0.48693 0.27479 0.0
H618 H 0.48326 0.5286 0.28659 0.0
C619 C 0.54401 0.56184 0.2961 0.0
C620 C 0.53457 0.57651 0.27855 0.0
C621 C 0.5366 0.54384 0.29646 0.0
C622 C 0.4929 0.51716 0.28292 0.0
H623 H 0.49505 0.42183 0.23906 0.0
H624 H 0.50847 0.45315 0.23831 0.0
H625 H 0.47109 0.49694 0.28636 0.0
H626 H 0.5097 0.5837 0.24804 0.0
H627 H 0.49681 0.55219 0.24829 0.0
H628 H 0.53882 0.5072 0.2704 0.0
C629 C 0.49745 0.45012 0.25762 0.0
C630 C 0.48595 0.49895 0.28328 0.0
C631 C 0.48974 0.43215 0.25801 0.0
C632 C 0.5173 0.57277 0.26197 0.0
C633 C 0.5099 0.55468 0.26219 0.0
C634 C 0.52403 0.50516 0.27433 0.0
C635 C 0.4905 0.46415 0.28089 0.0
C636 C 0.49796 0.48357 0.27952 0.0
C637 C 0.51956 0.53993 0.27913 0.0
C638 C 0.51205 0.52053 0.27865 0.0
H639 H 0.45701 0.43889 0.3243 0.0
H640 H 0.47066 0.46984 0.32422 0.0
H641 H 0.52677 0.47547 0.27204 0.0
H642 H 0.55729 0.5642 0.30941 0.0
H643 H 0.54424 0.53297 0.31048 0.0
C644 C 0.44706 0.05107 0.50886 0.0
C645 C 0.43099 0.03984 0.50793 0.0
C646 C 0.46477 0.04308 0.50898 0.0
C647 C 0.49021 1.00083 0.5333 0.0
H648 H 0.52779 0.01947 0.46641 0.0
C649 C 0.56053 0.96354 0.51581 0.0
C650 C 0.57663 0.97412 0.50881 0.0
C651 C 0.54299 0.97186 0.51613 0.0
C652 C 0.5176 0.01428 0.48573 0.0
H653 H 0.42103 0.01133 0.50677 0.0
H654 H 0.45214 0.99731 0.50769 0.0
H655 H 0.4967 0.03309 0.46603 0.0
H656 H 0.58684 1.0019 0.49704 0.0
H657 H 0.55618 0.01663 0.49874 0.0
H658 H 0.51108 0.98238 0.55379 0.0
C659 C 0.45089 0.01235 0.50813 0.0
C660 C 0.49974 0.02203 0.48532 0.0
C661 C 0.4331 0.02036 0.50747 0.0
C662 C 0.57473 0.99334 0.5024 0.0
C663 C 0.55711 1.00174 0.50315 0.0
C664 C 0.50813 0.99325 0.53407 0.0
C665 C 0.4669 0.02365 0.50866 0.0
C666 C 0.48582 0.01531 0.50896 0.0
C667 C 0.54097 0.99108 0.50993 0.0
C668 C 0.52207 0.99976 0.51009 0.0
H669 H 0.446 0.06612 0.50912 0.0
H670 H 0.47683 0.05214 0.50975 0.0
H671 H 0.47985 0.99558 0.55223 0.0
H672 H 0.56139 0.94867 0.52049 0.0
H673 H 0.53096 0.96306 0.52059 0.0
C674 C 0.04171 0.0642 0.79301 0.0
C675 C 0.03377 0.07862 0.77209 0.0
C676 C 0.03405 0.0463 0.79274 0.0
C677 C 0.99135 0.01968 0.77002 0.0
H678 H 0.02531 0.97768 0.76994 0.0
C679 C 0.96524 0.94479 0.79283 0.0
C680 C 0.97298 0.93039 0.77156 0.0
C681 C 0.973 0.96263 0.7927 0.0
C682 C 0.01562 0.98923 0.76963 0.0
H683 H 0.0112 0.08551 0.73505 0.0
H684 H 0.99787 0.05416 0.73434 0.0
H685 H 0.03764 0.00932 0.76924 0.0
H686 H 0.99531 0.92349 0.73408 0.0
H687 H 0.00883 0.95479 0.73359 0.0
H688 H 0.96934 0.9996 0.76961 0.0
C689 C 0.00998 0.05678 0.75125 0.0
C690 C 0.02269 0.00741 0.7697 0.0
C691 C 0.01763 0.07477 0.75161 0.0
C692 C 0.98904 0.93421 0.75089 0.0
C693 C 0.9968 0.95217 0.75066 0.0
C694 C 0.98429 1.0015 0.7699 0.0
C695 C 0.01826 0.04225 0.77144 0.0
C696 C 0.01065 0.02289 0.77022 0.0
C697 C 0.98869 0.96668 0.77118 0.0
C698 C 0.99632 0.98602 0.77003 0.0
H699 H 0.05405 0.06664 0.80938 0.0
H700 H 0.04056 0.03562 0.80932 0.0
H701 H 0.98166 0.03122 0.77064 0.0
H702 H 0.95297 0.94236 0.8094 0.0
H703 H 0.96664 0.97328 0.80955 0.0
C704 C 0.11761 0.12269 0.67829 0.0
C705 C 0.10067 0.13243 0.67881 0.0
C706 C 0.12786 0.12134 0.64578 0.0
C707 C 0.13165 0.13924 0.55022 0.0
H708 H 0.13964 0.08728 0.52622 0.0
C709 C 0.1288 0.11058 0.40299 0.0
C710 C 0.13855 0.09419 0.39476 0.0
C711 C 0.12965 0.11818 0.43827 0.0
C712 C 0.13802 0.10193 0.53249 0.0
H713 H 0.08201 0.14976 0.64679 0.0
H714 H 0.09977 0.14738 0.59044 0.0
H715 H 0.1321 0.09591 0.58856 0.0
H716 H 0.15823 0.07389 0.41553 0.0
H717 H 0.16032 0.0875 0.47642 0.0
H718 H 0.13695 0.14515 0.49366 0.0
C719 C 0.10521 0.14076 0.61488 0.0
C720 C 0.13368 0.10687 0.56841 0.0
C721 C 0.09492 0.14196 0.64713 0.0
C722 C 0.15029 0.08637 0.4214 0.0
C723 C 0.15142 0.09413 0.45634 0.0
C724 C 0.13613 0.1343 0.51422 0.0
C725 C 0.12142 0.12989 0.61348 0.0
C726 C 0.12985 0.12548 0.57743 0.0
C727 C 0.14051 0.10965 0.46572 0.0
C728 C 0.13879 0.1155 0.50469 0.0
H729 H 0.12242 0.11528 0.70234 0.0
H730 H 0.1404 0.11299 0.64553 0.0
H731 H 0.12894 0.15373 0.55652 0.0
H732 H 0.11963 0.11686 0.38291 0.0
H733 H 0.12094 0.13006 0.44452 0.0
C734 C 0.92741 0.63432 0.67804 0.0
C735 C 0.91705 0.6338 0.64539 0.0
C736 C 0.91854 0.63474 0.7119 0.0
C737 C 0.89791 0.64095 0.78199 0.0
H738 H 0.85779 0.60529 0.79252 0.0
C739 C 0.87699 0.61329 0.92432 0.0
C740 C 0.8754 0.59377 0.92546 0.0
C741 C 0.87708 0.62267 0.89064 0.0
C742 C 0.86895 0.61536 0.79009 0.0
H743 H 0.88915 0.63421 0.62274 0.0
H744 H 0.87353 0.63518 0.68228 0.0
H745 H 0.86822 0.61408 0.73165 0.0
H746 H 0.87183 0.56893 0.89215 0.0
H747 H 0.87254 0.58502 0.8342 0.0
H748 H 0.89981 0.64091 0.84038 0.0
C749 C 0.88859 0.63496 0.68152 0.0
C750 C 0.87477 0.62062 0.75508 0.0
C751 C 0.89753 0.63444 0.64741 0.0
C752 C 0.87318 0.58396 0.89242 0.0
C753 C 0.87333 0.59327 0.85899 0.0
C754 C 0.89228 0.63548 0.81699 0.0
C755 C 0.89901 0.63481 0.71421 0.0
C756 C 0.88994 0.63278 0.75062 0.0
C757 C 0.87559 0.61271 0.85752 0.0
C758 C 0.87834 0.62191 0.8214 0.0
H759 H 0.94248 0.63388 0.67762 0.0
H760 H 0.92708 0.63419 0.73632 0.0
H761 H 0.90928 0.65079 0.77955 0.0
H762 H 0.87858 0.62126 0.94932 0.0
H763 H 0.87867 0.63768 0.89051 0.0
C764 C 0.38941 0.38573 0.19201 0.0
C765 C 0.40555 0.37471 0.1928 0.0
C766 C 0.37933 0.38774 0.15941 0.0
C767 C 0.37478 0.37041 0.06336 0.0
H768 H 0.37088 0.42295 0.04033 0.0
C769 C 0.37989 0.39963 0.91645 0.0
C770 C 0.37104 0.41657 0.90847 0.0
C771 C 0.37873 0.392 0.95169 0.0
C772 C 0.37137 0.40818 0.0463 0.0
H773 H 0.4227 0.35569 0.1613 0.0
H774 H 0.40525 0.35922 0.10479 0.0
H775 H 0.37733 0.41345 0.10265 0.0
H776 H 0.35267 0.43792 0.92977 0.0
H777 H 0.35009 0.42434 0.99055 0.0
H778 H 0.36947 0.36523 0.00647 0.0
C779 C 0.40032 0.36636 0.12905 0.0
C780 C 0.37507 0.40273 0.08223 0.0
C781 C 0.41045 0.36448 0.16142 0.0
C782 C 0.35994 0.42502 0.93541 0.0
C783 C 0.35852 0.41726 0.97029 0.0
C784 C 0.37096 0.37587 0.02732 0.0
C785 C 0.38512 0.37861 0.12725 0.0
C786 C 0.37739 0.38383 0.09097 0.0
C787 C 0.36847 0.40105 0.97934 0.0
C788 C 0.36976 0.39486 0.01818 0.0
H789 H 0.38527 0.39372 0.21582 0.0
H790 H 0.36753 0.39711 0.15891 0.0
H791 H 0.37631 0.35571 0.06939 0.0
H792 H 0.38853 0.39284 0.89614 0.0
H793 H 0.3867 0.37957 0.95771 0.0
C794 C 0.65009 0.90888 0.39789 0.0
C795 C 0.63373 0.9084 0.41871 0.0
C796 C 0.6511 0.89938 0.36456 0.0
C797 C 0.62301 0.86851 0.30137 0.0
H798 H 0.65059 0.89551 0.22731 0.0
C799 C 0.60476 0.85731 0.15089 0.0
C800 C 0.60458 0.87342 0.12922 0.0
C801 C 0.61416 0.85717 0.1844 0.0
C802 C 0.64259 0.88788 0.24746 0.0
H803 H 0.6058 0.89739 0.42219 0.0
H804 H 0.60683 0.882 0.36307 0.0
H805 H 0.65482 0.90339 0.29087 0.0
H806 H 0.61452 0.90172 0.12426 0.0
H807 H 0.62971 0.90217 0.18353 0.0
H808 H 0.60912 0.85459 0.25785 0.0
C809 C 0.61936 0.88878 0.37268 0.0
C810 C 0.64535 0.89213 0.28439 0.0
C811 C 0.61863 0.89773 0.40662 0.0
C812 C 0.6147 0.88907 0.14047 0.0
C813 C 0.62352 0.8892 0.17456 0.0
C814 C 0.61974 0.86474 0.2644 0.0
C815 C 0.63545 0.88987 0.35059 0.0
C816 C 0.63509 0.88298 0.31193 0.0
C817 C 0.62284 0.87345 0.19769 0.0
C818 C 0.62899 0.87486 0.23677 0.0
H819 H 0.66195 0.91698 0.40703 0.0
H820 H 0.66398 0.90008 0.34929 0.0
H821 H 0.61536 0.86055 0.32154 0.0
H822 H 0.59708 0.84503 0.14246 0.0
H823 H 0.61386 0.84451 0.20048 0.0
C824 C 0.11365 0.37793 0.63532 0.0
C825 C 0.09423 0.37561 0.63425 0.0
C826 C 0.12309 0.37814 0.66894 0.0
C827 C 0.13531 0.39359 0.74273 0.0
H828 H 0.11515 0.36834 0.82784 0.0
C829 C 0.13287 0.42835 0.88202 0.0
C830 C 0.13302 0.41791 0.91458 0.0
C831 C 0.13351 0.41956 0.84807 0.0
C832 C 0.12134 0.37525 0.80447 0.0
H833 H 0.06966 0.37074 0.66756 0.0
H834 H 0.08582 0.37164 0.72545 0.0
H835 H 0.10677 0.35767 0.76686 0.0
H836 H 0.13476 0.38997 0.93695 0.0
H837 H 0.13609 0.3745 0.87723 0.0
H838 H 0.14986 0.41119 0.78033 0.0
C839 C 0.09397 0.37295 0.70064 0.0
C840 C 0.11632 0.36928 0.7694 0.0
C841 C 0.08461 0.37269 0.66726 0.0
C842 C 0.13447 0.39841 0.91235 0.0
C843 C 0.1352 0.38956 0.87815 0.0
C844 C 0.14056 0.39938 0.77778 0.0
C845 C 0.11327 0.37602 0.70207 0.0
C846 C 0.1224 0.37905 0.73819 0.0
C847 C 0.13446 0.40005 0.84557 0.0
C848 C 0.1328 0.39096 0.80907 0.0
H849 H 0.12148 0.38007 0.61033 0.0
H850 H 0.138 0.38035 0.66902 0.0
H851 H 0.14036 0.40143 0.71942 0.0
H852 H 0.13179 0.4434 0.88259 0.0
H853 H 0.13246 0.42813 0.82374 0.0
C854 C 0.58689 0.63749 0.14529 0.0
C855 C 0.59598 0.63344 0.17846 0.0
C856 C 0.5966 0.63759 0.11235 0.0
C857 C 0.63781 0.61629 0.07077 0.0
H858 H 0.61816 0.64216 0.98591 0.0
C859 C 0.63609 0.61136 0.90106 0.0
C860 C 0.63458 0.59185 0.89915 0.0
C861 C 0.63713 0.62033 0.93514 0.0
C862 C 0.62423 0.63507 0.0092 0.0
H863 H 0.62276 0.62753 0.20322 0.0
H864 H 0.63995 0.62801 0.14534 0.0
H865 H 0.61007 0.65284 0.04695 0.0
H866 H 0.63347 0.56649 0.93159 0.0
H867 H 0.63459 0.58194 0.9901 0.0
H868 H 0.65211 0.59863 0.03304 0.0
C869 C 0.62514 0.63073 0.14489 0.0
C870 C 0.61935 0.64104 0.04434 0.0
C871 C 0.61531 0.63051 0.17809 0.0
C872 C 0.63461 0.58154 0.93188 0.0
C873 C 0.63552 0.59045 0.96567 0.0
C874 C 0.64299 0.61056 0.03566 0.0
C875 C 0.61579 0.63383 0.11148 0.0
C876 C 0.62513 0.63099 0.07547 0.0
C877 C 0.63662 0.60996 0.96791 0.0
C878 C 0.63533 0.61914 0.00443 0.0
H879 H 0.57202 0.63995 0.14442 0.0
H880 H 0.58874 0.63966 0.08737 0.0
H881 H 0.64269 0.60824 0.09394 0.0
H882 H 0.63624 0.61969 0.87632 0.0
H883 H 0.6381 0.63538 0.93581 0.0
C884 C 0.3807 0.1156 0.40459 0.0
C885 C 0.36986 0.09992 0.41299 0.0
C886 C 0.3798 0.12356 0.36963 0.0
C887 C 0.36882 0.10838 0.27586 0.0
H888 H 0.38253 0.15915 0.25173 0.0
C889 C 0.41487 0.14432 0.16043 0.0
C890 C 0.40817 0.13526 0.12893 0.0
C891 C 0.40463 0.14413 0.19283 0.0
C892 C 0.37852 0.14496 0.25805 0.0
H893 H 0.34822 0.08143 0.39319 0.0
H894 H 0.34604 0.09576 0.33292 0.0
H895 H 0.37422 0.15125 0.3148 0.0
H896 H 0.38483 0.12007 0.10589 0.0
H897 H 0.36692 0.11957 0.16292 0.0
H898 H 0.37377 0.1019 0.21963 0.0
C899 C 0.3558 0.10149 0.35253 0.0
C900 C 0.37385 0.14041 0.29417 0.0
C901 C 0.35697 0.09334 0.38711 0.0
C902 C 0.3904 0.12709 0.12979 0.0
C903 C 0.38018 0.12676 0.16242 0.0
C904 C 0.37335 0.11295 0.23984 0.0
C905 C 0.36782 0.11613 0.34274 0.0
C906 C 0.36956 0.12192 0.30373 0.0
C907 C 0.38749 0.13476 0.19456 0.0
C908 C 0.37887 0.13113 0.23077 0.0
H909 H 0.39076 0.12091 0.4241 0.0
H910 H 0.38937 0.13473 0.36306 0.0
H911 H 0.36592 0.09392 0.2821 0.0
H912 H 0.42843 0.15093 0.16053 0.0
H913 H 0.41074 0.15027 0.21713 0.0
C914 C 0.89277 0.88794 0.67104 0.0
C915 C 0.90656 0.87468 0.67861 0.0
C916 C 0.88415 0.88828 0.63665 0.0
C917 C 0.89587 0.87471 0.54231 0.0
H918 H 0.84801 0.89692 0.5204 0.0
C919 C 0.87788 0.89734 0.39597 0.0
C920 C 0.87247 0.91612 0.39413 0.0
C921 C 0.87767 0.88788 0.42949 0.0
C922 C 0.86136 0.89056 0.52612 0.0
H923 H 0.92074 0.85017 0.65819 0.0
H924 H 0.9051 0.85016 0.59902 0.0
H925 H 0.85522 0.88761 0.58326 0.0
H926 H 0.8613 0.93929 0.42538 0.0
H927 H 0.86104 0.92289 0.48356 0.0
H928 H 0.90228 0.87821 0.48562 0.0
C929 C 0.90146 0.86082 0.61875 0.0
C930 C 0.86553 0.8853 0.56211 0.0
C931 C 0.91034 0.86073 0.65271 0.0
C932 C 0.86576 0.92488 0.42594 0.0
C933 C 0.86541 0.91541 0.45926 0.0
C934 C 0.89166 0.87983 0.50642 0.0
C935 C 0.88898 0.87515 0.60956 0.0
C936 C 0.88307 0.87784 0.57083 0.0
C937 C 0.87184 0.89699 0.46163 0.0
C938 C 0.87461 0.88835 0.49813 0.0
H939 H 0.88968 0.89887 0.69059 0.0
H940 H 0.87469 0.89961 0.63056 0.0
H941 H 0.90967 0.86935 0.54789 0.0
H942 H 0.88301 0.89019 0.37188 0.0
H943 H 0.88258 0.87363 0.4305 0.0
C944 C 0.08906 0.1379 0.90996 0.0
C945 C 0.09686 0.12538 0.88467 0.0
C946 C 0.09419 0.13724 0.94699 0.0
C947 C 0.12968 0.11812 0.01143 0.0
H948 H 0.08928 0.12023 0.08157 0.0
C949 C 0.13577 0.09057 0.16038 0.0
C950 C 0.12592 0.09997 0.18801 0.0
C951 C 0.13401 0.09599 0.12366 0.0
C952 C 0.10081 0.11991 0.06249 0.0
H953 H 0.11668 0.10282 0.87826 0.0
H954 H 0.12544 0.10158 0.94253 0.0
H955 H 0.08297 0.12587 0.01707 0.0
H956 H 0.10728 0.12308 0.19892 0.0
H957 H 0.10447 0.13267 0.13521 0.0
H958 H 0.14745 0.11176 0.05694 0.0
C959 C 0.11551 0.11204 0.93389 0.0
C960 C 0.09718 0.12317 0.02541 0.0
C961 C 0.11038 0.11268 0.89698 0.0
C962 C 0.11497 0.11542 0.17831 0.0
C963 C 0.11324 0.12086 0.14171 0.0
C964 C 0.13332 0.11485 0.04857 0.0
C965 C 0.10726 0.12409 0.95951 0.0
C966 C 0.11152 0.12212 0.99932 0.0
C967 C 0.12238 0.11095 0.1138 0.0
C968 C 0.11889 0.11552 0.07454 0.0
H969 H 0.07865 0.14789 0.90137 0.0
H970 H 0.08775 0.14691 0.9659 0.0
H971 H 0.14111 0.11745 0.99215 0.0
H972 H 0.14429 0.07857 0.16691 0.0
H973 H 0.14115 0.08795 0.10288 0.0
C974 C 0.91793 0.63695 0.40904 0.0
C975 C 0.90888 0.62689 0.43688 0.0
C976 C 0.91216 0.63528 0.37249 0.0
C977 C 0.8882 0.60191 0.31181 0.0
H978 H 0.88897 0.64254 0.24189 0.0
C979 C 0.86892 0.58979 0.16018 0.0
C980 C 0.88081 0.59807 0.13431 0.0
C981 C 0.86981 0.59499 0.19714 0.0
C982 C 0.88878 0.63101 0.26103 0.0
H983 H 0.88603 0.60799 0.44834 0.0
H984 H 0.87587 0.6053 0.38494 0.0
H985 H 0.89534 0.64878 0.30649 0.0
H986 H 0.90243 0.61885 0.12683 0.0
H987 H 0.90411 0.62771 0.191 0.0
H988 H 0.88212 0.58405 0.26647 0.0
C989 C 0.88765 0.61418 0.39115 0.0
C990 C 0.89243 0.6346 0.29807 0.0
C991 C 0.89341 0.61584 0.42758 0.0
C992 C 0.89305 0.61218 0.14599 0.0
C993 C 0.89394 0.61736 0.18287 0.0
C994 C 0.88459 0.59831 0.27484 0.0
C995 C 0.89722 0.62352 0.36301 0.0
C996 C 0.89234 0.62006 0.32388 0.0
C997 C 0.8826 0.60858 0.20909 0.0
C998 C 0.88501 0.61277 0.24886 0.0
H999 H 0.92991 0.64555 0.41525 0.0
H1000 H 0.91992 0.64258 0.3515 0.0
H1001 H 0.88833 0.5903 0.33077 0.0
H1002 H 0.8593 0.57892 0.15209 0.0
H1003 H 0.86064 0.58815 0.21647 0.0
C1004 C 0.39215 0.39655 0.68859 0.0
C1005 C 0.3809 0.41141 0.70038 0.0
C1006 C 0.39321 0.39186 0.65147 0.0
C1007 C 0.38737 0.41323 0.56058 0.0
H1008 H 0.39344 0.3626 0.52541 0.0
C1009 C 0.39598 0.39792 0.40698 0.0
C1010 C 0.40987 0.38511 0.39701 0.0
C1011 C 0.39033 0.39964 0.44343 0.0
C1012 C 0.3919 0.37683 0.53483 0.0
H1013 H 0.36124 0.43243 0.6825 0.0
H1014 H 0.36292 0.42411 0.61769 0.0
H1015 H 0.38677 0.36818 0.59013 0.0
H1016 H 0.42828 0.36358 0.41745 0.0
H1017 H 0.41859 0.36672 0.48136 0.0
H1018 H 0.39283 0.42195 0.50566 0.0
C1019 C 0.37116 0.41626 0.63715 0.0
C1020 C 0.38804 0.38003 0.57193 0.0
C1021 C 0.37008 0.42094 0.67434 0.0
C1022 C 0.41752 0.37356 0.42422 0.0
C1023 C 0.4119 0.37532 0.46083 0.0
C1024 C 0.39123 0.41003 0.5236 0.0
C1025 C 0.38306 0.40193 0.62515 0.0
C1026 C 0.38586 0.39829 0.58532 0.0
C1027 C 0.39849 0.38865 0.47099 0.0
C1028 C 0.39366 0.39181 0.51023 0.0
H1029 H 0.40068 0.3889 0.70789 0.0
H1030 H 0.40264 0.38086 0.64326 0.0
H1031 H 0.38617 0.42748 0.57 0.0
H1032 H 0.38966 0.40694 0.38669 0.0
H1033 H 0.3797 0.40977 0.45008 0.0
C1034 C 0.61198 0.89861 0.63553 0.0
C1035 C 0.62395 0.91274 0.62297 0.0
C1036 C 0.61139 0.89388 0.67263 0.0
C1037 C 0.62034 0.91431 0.76313 0.0
H1038 H 0.61217 0.86384 0.79764 0.0
C1039 C 0.61295 0.89856 0.91672 0.0
C1040 C 0.59845 0.88649 0.927 0.0
C1041 C 0.61829 0.90016 0.88009 0.0
C1042 C 0.61432 0.87802 0.78841 0.0
H1043 H 0.64527 0.93245 0.63936 0.0
H1044 H 0.64434 0.92408 0.70425 0.0
H1045 H 0.61805 0.86947 0.73264 0.0
H1046 H 0.57861 0.86612 0.90697 0.0
H1047 H 0.58776 0.8691 0.84275 0.0
H1048 H 0.61623 0.92296 0.81854 0.0
C1049 C 0.63522 0.91683 0.68538 0.0
C1050 C 0.61773 0.88124 0.75118 0.0
C1051 C 0.63585 0.92154 0.64817 0.0
C1052 C 0.58985 0.87553 0.89994 0.0
C1053 C 0.59516 0.87719 0.86315 0.0
C1054 C 0.61692 0.91109 0.80027 0.0
C1055 C 0.62273 0.90318 0.69814 0.0
C1056 C 0.6206 0.89946 0.73805 0.0
C1057 C 0.6092 0.8898 0.85271 0.0
C1058 C 0.61372 0.89293 0.81336 0.0
H1059 H 0.60263 0.89152 0.61686 0.0
H1060 H 0.60147 0.88345 0.6815 0.0
H1061 H 0.62213 0.92854 0.75391 0.0
H1062 H 0.62 0.90709 0.93692 0.0
H1063 H 0.62942 0.90972 0.87316 0.0
C1064 C 0.08994 0.36952 0.39984 0.0
C1065 C 0.09809 0.38155 0.42566 0.0
C1066 C 0.09516 0.37034 0.3629 0.0
C1067 C 0.13107 0.38945 0.29908 0.0
H1068 H 0.0905 0.38847 0.22907 0.0
C1069 C 0.13682 0.41847 0.15098 0.0
C1070 C 0.12687 0.40928 0.12314 0.0
C1071 C 0.13522 0.4127 0.18753 0.0
C1072 C 0.10207 0.38848 0.24811 0.0
H1073 H 0.11868 0.40337 0.43307 0.0
H1074 H 0.12757 0.40496 0.36893 0.0
H1075 H 0.08423 0.38235 0.29337 0.0
H1076 H 0.10826 0.38618 0.11166 0.0
H1077 H 0.10569 0.37602 0.17507 0.0
H1078 H 0.14882 0.39607 0.25368 0.0
C1079 C 0.1173 0.39472 0.37709 0.0
C1080 C 0.09846 0.38494 0.28508 0.0
C1081 C 0.1121 0.39388 0.41395 0.0
C1082 C 0.11602 0.39367 0.13243 0.0
C1083 C 0.11443 0.38791 0.16886 0.0
C1084 C 0.13467 0.39305 0.26203 0.0
C1085 C 0.10865 0.38323 0.35092 0.0
C1086 C 0.11287 0.38555 0.31116 0.0
C1087 C 0.12363 0.39762 0.197 0.0
C1088 C 0.12018 0.39276 0.23613 0.0
H1089 H 0.07914 0.35982 0.40795 0.0
H1090 H 0.08841 0.36107 0.34361 0.0
H1091 H 0.14255 0.3898 0.31829 0.0
H1092 H 0.14526 0.43057 0.14478 0.0
H1093 H 0.14241 0.42057 0.20853 0.0
C1094 C 0.61606 0.6111 0.67752 0.0
C1095 C 0.62776 0.59659 0.68931 0.0
C1096 C 0.61486 0.61581 0.64041 0.0
C1097 C 0.62191 0.59505 0.54905 0.0
H1098 H 0.6136 0.64554 0.51496 0.0
C1099 C 0.61324 0.61106 0.39555 0.0
C1100 C 0.5986 0.62307 0.38576 0.0
C1101 C 0.61888 0.6094 0.43205 0.0
C1102 C 0.61579 0.63135 0.52407 0.0
H1103 H 0.64804 0.5762 0.67139 0.0
H1104 H 0.64619 0.58459 0.60663 0.0
H1105 H 0.62027 0.63988 0.57965 0.0
H1106 H 0.57887 0.64327 0.40661 0.0
H1107 H 0.58863 0.64027 0.47052 0.0
H1108 H 0.61717 0.58645 0.49374 0.0
C1109 C 0.63766 0.59213 0.62607 0.0
C1110 C 0.61963 0.6281 0.56117 0.0
C1111 C 0.63885 0.58741 0.66325 0.0
C1112 C 0.59021 0.63393 0.4132 0.0
C1113 C 0.59586 0.63224 0.44984 0.0
C1114 C 0.61811 0.5983 0.51203 0.0
C1115 C 0.62536 0.60613 0.61407 0.0
C1116 C 0.62258 0.60987 0.57421 0.0
C1117 C 0.61001 0.61966 0.45981 0.0
C1118 C 0.61487 0.61647 0.49906 0.0
H1119 H 0.60729 0.61846 0.69682 0.0
H1120 H 0.6051 0.62652 0.63226 0.0
H1121 H 0.62373 0.5808 0.55812 0.0
H1122 H 0.62011 0.60257 0.3751 0.0
H1123 H 0.63006 0.59985 0.43859 0.0
C1124 C 0.37182 0.09048 0.6449 0.0
C1125 C 0.38317 0.09975 0.6194 0.0
C1126 C 0.37297 0.09477 0.68227 0.0
C1127 C 0.39132 0.12975 0.74878 0.0
H1128 H 0.39306 0.08735 0.81444 0.0
C1129 C 0.42012 0.1337 0.89737 0.0
C1130 C 0.41133 0.12276 0.92421 0.0
C1131 C 0.41474 0.13238 0.86054 0.0
C1132 C 0.39233 0.0994 0.79664 0.0
H1133 H 0.40408 0.12134 0.61305 0.0
H1134 H 0.40622 0.12864 0.67796 0.0
H1135 H 0.38664 0.08247 0.74976 0.0
H1136 H 0.38942 0.10248 0.9336 0.0
H1137 H 0.37993 0.10039 0.86976 0.0
H1138 H 0.39741 0.14662 0.79579 0.0
C1139 C 0.39628 0.11819 0.66921 0.0
C1140 C 0.38861 0.09659 0.75947 0.0
C1141 C 0.39513 0.11391 0.63192 0.0
C1142 C 0.39661 0.11101 0.91362 0.0
C1143 C 0.39123 0.10972 0.87693 0.0
C1144 C 0.39508 0.13256 0.78603 0.0
C1145 C 0.3855 0.10842 0.69498 0.0
C1146 C 0.38819 0.1117 0.73497 0.0
C1147 C 0.40045 0.1201 0.8498 0.0
C1148 C 0.39574 0.11739 0.81039 0.0
H1149 H 0.36242 0.07954 0.63616 0.0
H1150 H 0.36423 0.08718 0.70129 0.0
H1151 H 0.39088 0.14173 0.73078 0.0
H1152 H 0.43153 0.14286 0.90461 0.0
H1153 H 0.42223 0.14049 0.84032 0.0
C1154 C 0.86908 0.92342 0.16049 0.0
C1155 C 0.8802 0.91409 0.18629 0.0
C1156 C 0.86986 0.91858 0.12335 0.0
C1157 C 0.88652 0.88214 0.05831 0.0
H1158 H 0.89026 0.92371 0.99096 0.0
C1159 C 0.91557 0.87546 0.91042 0.0
C1160 C 0.90762 0.88671 0.88307 0.0
C1161 C 0.90997 0.87725 0.94702 0.0
C1162 C 0.88894 0.9119 0.00922 0.0
H1163 H 0.90025 0.89179 0.19349 0.0
H1164 H 0.90172 0.88351 0.12897 0.0
H1165 H 0.88401 0.92956 0.05535 0.0
H1166 H 0.88686 0.90798 0.87246 0.0
H1167 H 0.87693 0.91086 0.93589 0.0
H1168 H 0.89184 0.86451 0.01206 0.0
C1169 C 0.89227 0.89445 0.1373 0.0
C1170 C 0.88532 0.91526 0.04623 0.0
C1171 C 0.89149 0.89929 0.17436 0.0
C1172 C 0.8934 0.8992 0.89287 0.0
C1173 C 0.88778 0.90095 0.92933 0.0
C1174 C 0.89015 0.87877 0.0212 0.0
C1175 C 0.88177 0.90429 0.11119 0.0
C1176 C 0.88422 0.90045 0.07135 0.0
C1177 C 0.89627 0.89031 0.95701 0.0
C1178 C 0.89154 0.89363 0.99623 0.0
H1179 H 0.86019 0.93485 0.16877 0.0
H1180 H 0.86137 0.92626 0.10404 0.0
H1181 H 0.88554 0.87039 0.07682 0.0
H1182 H 0.92659 0.86573 0.90378 0.0
H1183 H 0.9169 0.86892 0.96766 0.0
loop_
_geom_bond_atom_site_label_1
_geom_bond_atom_site_label_2
_geom_bond_distance
_geom_bond_site_symmetry_2
_ccdc_geom_bond_type
O0 Cd1 2.223 . S
O0 C8 1.315 . S
Cd1 O0 2.223 . S
Cd1 O4 2.297 . S
Cd1 O5 2.439 . S
Cd1 O11 2.240 . S
Cd2 O3 2.240 . S
Cd2 O10 2.223 . S
Cd2 O12 2.297 . S
Cd2 O13 2.439 . S
O3 Cd2 2.240 . S
O3 C8 1.279 . S
O4 Cd1 2.297 . S
O4 C6 1.247 . S
O5 Cd1 2.439 . S
O5 C6 1.208 . S
C6 O4 1.247 . S
C6 O5 1.208 . S
C7 O12 1.247 . S
C7 O13 1.208 . S
C8 O0 1.315 . S
C8 O3 1.279 . S
C9 O10 1.315 . S
C9 O11 1.279 . S
O10 Cd2 2.223 . S
O10 C9 1.315 . S
O11 Cd1 2.240 . S
O11 C9 1.279 . S
O12 Cd2 2.297 . S
O12 C7 1.247 . S
O13 Cd2 2.439 . S
O13 C7 1.208 . S
O14 Cd15 2.223 . S
O14 C22 1.315 . S
Cd15 O14 2.223 . S
Cd15 O18 2.297 . S
Cd15 O19 2.439 . S
Cd15 O25 2.240 . S
Cd16 O17 2.240 . S
Cd16 O24 2.223 . S
Cd16 O26 2.297 . S
Cd16 O27 2.439 . S
O17 Cd16 2.240 . S
O17 C22 1.279 . S
O18 Cd15 2.297 . S
O18 C20 1.247 . S
O19 Cd15 2.439 . S
O19 C20 1.208 . S
C20 O18 1.247 . S
C20 O19 1.208 . S
C21 O26 1.247 . S
C21 O27 1.208 . S
C22 O14 1.315 . S
C22 O17 1.279 . S
C23 O24 1.315 . S
C23 O25 1.279 . S
O24 Cd16 2.223 . S
O24 C23 1.315 . S
O25 Cd15 2.240 . S
O25 C23 1.279 . S
O26 Cd16 2.297 . S
O26 C21 1.247 . S
O27 Cd16 2.439 . S
O27 C21 1.208 . S
O28 Cd29 2.223 . S
O28 C36 1.315 . S
Cd29 O28 2.223 . S
Cd29 O32 2.297 . S
Cd29 O33 2.439 . S
Cd29 O39 2.240 . S
Cd30 O31 2.240 . S
Cd30 O38 2.223 . S
Cd30 O40 2.297 . S
Cd30 O41 2.439 . S
O31 Cd30 2.240 . S
O31 C36 1.279 . S
O32 Cd29 2.297 . S
O32 C34 1.247 . S
O33 Cd29 2.439 . S
O33 C34 1.208 . S
C34 O32 1.247 . S
C34 O33 1.208 . S
C35 O40 1.247 . S
C35 O41 1.208 . S
C36 O28 1.315 . S
C36 O31 1.279 . S
C37 O38 1.315 . S
C37 O39 1.279 . S
O38 Cd30 2.223 . S
O38 C37 1.315 . S
O39 Cd29 2.240 . S
O39 C37 1.279 . S
O40 Cd30 2.297 . S
O40 C35 1.247 . S
O41 Cd30 2.439 . S
O41 C35 1.208 . S
O42 Cd43 2.223 . S
O42 C50 1.315 . S
Cd43 O42 2.223 . S
Cd43 O46 2.297 . S
Cd43 O47 2.439 . S
Cd43 O53 2.240 . S
Cd44 O45 2.240 . S
Cd44 O52 2.223 . S
Cd44 O54 2.297 1_554 S
Cd44 O55 2.439 1_554 S
O45 Cd44 2.240 . S
O45 C50 1.279 . S
O46 Cd43 2.297 . S
O46 C48 1.247 . S
O47 Cd43 2.439 . S
O47 C48 1.208 . S
C48 O46 1.247 . S
C48 O47 1.208 . S
C49 O54 1.247 . S
C49 O55 1.208 . S
C50 O42 1.315 . S
C50 O45 1.279 . S
C51 O52 1.315 . S
C51 O53 1.279 . S
O52 Cd44 2.223 . S
O52 C51 1.315 . S
O53 Cd43 2.240 . S
O53 C51 1.279 . S
O54 Cd44 2.297 1_556 S
O54 C49 1.247 . S
O55 Cd44 2.439 1_556 S
O55 C49 1.208 . S
O56 Cd57 2.223 . S
O56 C64 1.315 . S
Cd57 O56 2.223 . S
Cd57 O60 2.297 . S
Cd57 O61 2.449 . S
Cd57 O67 2.240 1_556 S
Cd58 O59 2.240 1_554 S
Cd58 O66 2.223 . S
Cd58 O68 2.297 . S
Cd58 O69 2.439 . S
O59 Cd58 2.240 1_556 S
O59 C64 1.279 . S
O60 Cd57 2.297 . S
O60 C62 1.247 . S
O61 Cd57 2.449 . S
O61 C62 1.229 . S
C62 O60 1.247 . S
C62 O61 1.229 . S
C63 O68 1.247 . S
C63 O69 1.208 . S
C64 O56 1.315 . S
C64 O59 1.279 . S
C65 O66 1.315 . S
C65 O67 1.279 . S
O66 Cd58 2.223 . S
O66 C65 1.315 . S
O67 Cd57 2.240 1_554 S
O67 C65 1.279 . S
O68 Cd58 2.297 . S
O68 C63 1.247 . S
O69 Cd58 2.439 . S
O69 C63 1.208 . S
O70 Cd71 2.223 . S
O70 C78 1.315 . S
Cd71 O70 2.223 . S
Cd71 O74 2.297 . S
Cd71 O75 2.439 . S
Cd71 O81 2.240 . S
Cd72 O73 2.240 . S
Cd72 O80 2.223 . S
Cd72 O82 2.297 . S
Cd72 O83 2.439 . S
O73 Cd72 2.240 . S
O73 C78 1.279 . S
O74 Cd71 2.297 . S
O74 C76 1.247 . S
O75 Cd71 2.439 . S
O75 C76 1.208 . S
C76 O74 1.247 . S
C76 O75 1.208 . S
C77 O82 1.247 . S
C77 O83 1.208 . S
C78 O70 1.315 . S
C78 O73 1.279 . S
C79 O80 1.315 . S
C79 O81 1.279 . S
O80 Cd72 2.223 . S
O80 C79 1.315 . S
O81 Cd71 2.240 . S
O81 C79 1.279 . S
O82 Cd72 2.297 . S
O82 C77 1.247 . S
O83 Cd72 2.439 . S
O83 C77 1.208 . S
O84 Cd85 2.223 . S
O84 C92 1.315 . S
Cd85 O84 2.223 . S
Cd85 O88 2.297 . S
Cd85 O89 2.439 . S
Cd85 O95 2.240 . S
Cd86 O87 2.240 . S
Cd86 O94 2.223 . S
Cd86 O96 2.297 . S
Cd86 O97 2.439 . S
O87 Cd86 2.240 . S
O87 C92 1.279 . S
O88 Cd85 2.297 . S
O88 C90 1.247 . S
O89 Cd85 2.439 . S
O89 C90 1.208 . S
C90 O88 1.247 . S
C90 O89 1.208 . S
C91 O96 1.247 . S
C91 O97 1.208 . S
C92 O84 1.315 . S
C92 O87 1.279 . S
C93 O94 1.315 . S
C93 O95 1.279 . S
O94 Cd86 2.223 . S
O94 C93 1.315 . S
O95 Cd85 2.240 . S
O95 C93 1.279 . S
O96 Cd86 2.297 . S
O96 C91 1.247 . S
O97 Cd86 2.439 . S
O97 C91 1.208 . S
O98 Cd99 2.223 . S
O98 C106 1.315 . S
Cd99 O98 2.223 . S
Cd99 O102 2.297 . S
Cd99 O103 2.439 . S
Cd99 O109 2.240 . S
Cd100 O101 2.240 . S
Cd100 O108 2.223 . S
Cd100 O110 2.297 . S
Cd100 O111 2.439 . S
O101 Cd100 2.240 . S
O101 C106 1.279 . S
O102 Cd99 2.297 . S
O102 C104 1.247 . S
O103 Cd99 2.439 . S
O103 C104 1.208 . S
C104 O102 1.247 . S
C104 O103 1.208 . S
C105 O110 1.247 . S
C105 O111 1.208 . S
C106 O98 1.315 . S
C106 O101 1.279 . S
C107 O108 1.315 . S
C107 O109 1.279 . S
O108 Cd100 2.223 . S
O108 C107 1.315 . S
O109 Cd99 2.240 . S
O109 C107 1.279 . S
O110 Cd100 2.297 . S
O110 C105 1.247 . S
O111 Cd100 2.439 . S
O111 C105 1.208 . S
O112 Cd113 2.223 . S
O112 C120 1.315 . S
Cd113 O112 2.223 . S
Cd113 O116 2.297 . S
Cd113 O117 2.439 . S
Cd113 O123 2.240 . S
Cd114 O115 2.240 . S
Cd114 O122 2.223 . S
Cd114 O124 2.297 . S
Cd114 O125 2.439 . S
O115 Cd114 2.240 . S
O115 C120 1.279 . S
O116 Cd113 2.297 . S
O116 C118 1.247 . S
O117 Cd113 2.439 . S
O117 C118 1.208 . S
C118 O116 1.247 . S
C118 O117 1.208 . S
C119 O124 1.247 . S
C119 O125 1.208 . S
C120 O112 1.315 . S
C120 O115 1.279 . S
C121 O122 1.315 . S
C121 O123 1.279 . S
O122 Cd114 2.223 . S
O122 C121 1.315 . S
O123 Cd113 2.240 . S
O123 C121 1.279 . S
O124 Cd114 2.297 . S
O124 C119 1.247 . S
O125 Cd114 2.439 . S
O125 C119 1.208 . S
O126 Cd127 2.223 . S
O126 C134 1.315 . S
Cd127 O126 2.223 . S
Cd127 O130 2.297 . S
Cd127 O131 2.439 . S
Cd127 O137 2.240 . S
Cd128 O129 2.240 . S
Cd128 O136 2.223 . S
Cd128 O138 2.297 1_554 S
Cd128 O139 2.439 1_554 S
O129 Cd128 2.240 . S
O129 C134 1.279 . S
O130 Cd127 2.297 . S
O130 C132 1.247 . S
O131 Cd127 2.439 . S
O131 C132 1.208 . S
C132 O130 1.247 . S
C132 O131 1.208 . S
C133 O138 1.247 . S
C133 O139 1.208 . S
C134 O126 1.315 . S
C134 O129 1.279 . S
C135 O136 1.315 . S
C135 O137 1.279 . S
O136 Cd128 2.223 . S
O136 C135 1.315 . S
O137 Cd127 2.240 . S
O137 C135 1.279 . S
O138 Cd128 2.297 1_556 S
O138 C133 1.247 . S
O139 Cd128 2.439 1_556 S
O139 C133 1.208 . S
O140 Cd141 2.223 . S
O140 C148 1.315 . S
Cd141 O140 2.223 . S
Cd141 O144 2.297 . S
Cd141 O145 2.439 . S
Cd141 O151 2.240 . S
Cd142 O143 2.240 . S
Cd142 O150 2.223 . S
Cd142 O152 2.297 . S
Cd142 O153 2.439 . S
O143 Cd142 2.240 . S
O143 C148 1.279 . S
O144 Cd141 2.297 . S
O144 C146 1.247 . S
O145 Cd141 2.439 . S
O145 C146 1.208 . S
C146 O144 1.247 . S
C146 O145 1.208 . S
C147 O152 1.247 . S
C147 O153 1.208 . S
C148 O140 1.315 . S
C148 O143 1.279 . S
C149 O150 1.315 . S
C149 O151 1.279 . S
O150 Cd142 2.223 . S
O150 C149 1.315 . S
O151 Cd141 2.240 . S
O151 C149 1.279 . S
O152 Cd142 2.297 . S
O152 C147 1.247 . S
O153 Cd142 2.439 . S
O153 C147 1.208 . S
O154 Cd155 2.223 . S
O154 C162 1.315 . S
Cd155 O154 2.223 . S
Cd155 O158 2.297 . S
Cd155 O159 2.439 . S
Cd155 O165 2.240 . S
Cd156 O157 2.240 . S
Cd156 O164 2.223 . S
Cd156 O166 2.297 . S
Cd156 O167 2.439 . S
O157 Cd156 2.240 . S
O157 C162 1.279 . S
O158 Cd155 2.297 . S
O158 C160 1.247 . S
O159 Cd155 2.439 . S
O159 C160 1.208 . S
C160 O158 1.247 . S
C160 O159 1.208 . S
C161 O166 1.247 . S
C161 O167 1.208 . S
C162 O154 1.315 . S
C162 O157 1.279 . S
C163 O164 1.315 . S
C163 O165 1.279 . S
O164 Cd156 2.223 . S
O164 C163 1.315 . S
O165 Cd155 2.240 . S
O165 C163 1.279 . S
O166 Cd156 2.297 . S
O166 C161 1.247 . S
O167 Cd156 2.439 . S
O167 C161 1.208 . S
O168 Cd169 2.223 . S
O168 C176 1.315 . S
Cd169 O168 2.223 . S
Cd169 O172 2.297 . S
Cd169 O173 2.439 . S
Cd169 O179 2.240 . S
Cd170 O171 2.240 . S
Cd170 O178 2.223 . S
Cd170 O180 2.297 . S
Cd170 O181 2.439 . S
O171 Cd170 2.240 . S
O171 C176 1.279 . S
O172 Cd169 2.297 . S
O172 C174 1.247 . S
O173 Cd169 2.439 . S
O173 C174 1.208 . S
C174 O172 1.247 . S
C174 O173 1.208 . S
C175 O180 1.247 . S
C175 O181 1.208 . S
C176 O168 1.315 . S
C176 O171 1.279 . S
C177 O178 1.315 . S
C177 O179 1.279 . S
O178 Cd170 2.223 . S
O178 C177 1.315 . S
O179 Cd169 2.240 . S
O179 C177 1.279 . S
O180 Cd170 2.297 . S
O180 C175 1.247 . S
O181 Cd170 2.439 . S
O181 C175 1.208 . S
O182 Cd183 2.223 . S
O182 C190 1.315 . S
Cd183 O182 2.223 . S
Cd183 O186 2.297 . S
Cd183 O187 2.439 . S
Cd183 O193 2.240 . S
Cd184 O185 2.240 . S
Cd184 O192 2.223 . S
Cd184 O194 2.297 . S
Cd184 O195 2.439 . S
O185 Cd184 2.240 . S
O185 C190 1.279 . S
O186 Cd183 2.297 . S
O186 C188 1.247 . S
O187 Cd183 2.439 . S
O187 C188 1.208 . S
C188 O186 1.247 . S
C188 O187 1.208 . S
C189 O194 1.247 . S
C189 O195 1.208 . S
C190 O182 1.315 . S
C190 O185 1.279 . S
C191 O192 1.315 . S
C191 O193 1.279 . S
O192 Cd184 2.223 . S
O192 C191 1.315 . S
O193 Cd183 2.240 . S
O193 C191 1.279 . S
O194 Cd184 2.297 . S
O194 C189 1.247 . S
O195 Cd184 2.439 . S
O195 C189 1.208 . S
O196 Cd197 2.223 . S
O196 C204 1.315 . S
Cd197 O196 2.223 . S
Cd197 O200 2.297 . S
Cd197 O201 2.449 . S
Cd197 O207 2.240 1_556 S
Cd198 O199 2.240 1_554 S
Cd198 O206 2.223 . S
Cd198 O208 2.297 . S
Cd198 O209 2.439 . S
O199 Cd198 2.240 1_556 S
O199 C204 1.279 . S
O200 Cd197 2.297 . S
O200 C202 1.247 . S
O201 Cd197 2.449 . S
O201 C202 1.229 . S
C202 O200 1.247 . S
C202 O201 1.229 . S
C203 O208 1.247 . S
C203 O209 1.208 . S
C204 O196 1.315 . S
C204 O199 1.279 . S
C205 O206 1.315 . S
C205 O207 1.279 . S
O206 Cd198 2.223 . S
O206 C205 1.315 . S
O207 Cd197 2.240 1_554 S
O207 C205 1.279 . S
O208 Cd198 2.297 . S
O208 C203 1.247 . S
O209 Cd198 2.439 . S
O209 C203 1.208 . S
O210 Cd211 2.223 . S
O210 C218 1.315 . S
Cd211 O210 2.223 . S
Cd211 O214 2.297 . S
Cd211 O215 2.439 . S
Cd211 O221 2.240 . S
Cd212 O213 2.240 . S
Cd212 O220 2.223 . S
Cd212 O222 2.297 . S
Cd212 O223 2.439 . S
O213 Cd212 2.240 . S
O213 C218 1.279 . S
O214 Cd211 2.297 . S
O214 C216 1.247 . S
O215 Cd211 2.439 . S
O215 C216 1.208 . S
C216 O214 1.247 . S
C216 O215 1.208 . S
C217 O222 1.247 . S
C217 O223 1.208 . S
C218 O210 1.315 . S
C218 O213 1.279 . S
C219 O220 1.315 . S
C219 O221 1.279 . S
O220 Cd212 2.223 . S
O220 C219 1.315 . S
O221 Cd211 2.240 . S
O221 C219 1.279 . S
O222 Cd212 2.297 . S
O222 C217 1.247 . S
O223 Cd212 2.439 . S
O223 C217 1.208 . S
C224 C225 1.349 . S
C224 C226 1.327 . S
C224 H249 0.950 . S
C225 C224 1.349 . S
C225 C241 1.349 . S
C226 C224 1.327 . S
C226 C245 1.429 . S
C226 H250 0.950 . S
C227 C244 1.574 . S
C227 C246 1.368 . S
C227 H251 0.949 . S
H228 C232 0.949 . S
C229 C230 1.349 . S
C229 C231 1.327 . S
C229 H252 0.950 . S
C230 C229 1.349 . S
C230 C242 1.349 . S
C231 C229 1.327 . S
C231 C247 1.429 . S
C231 H253 0.950 . S
C232 H228 0.949 . S
C232 C240 1.574 . S
C232 C248 1.368 . S
H233 C241 0.950 . S
H234 C239 0.950 . S
H235 C240 0.949 . S
H236 C242 0.950 . S
H237 C243 0.950 . S
H238 C244 0.949 . S
C239 H234 0.950 . S
C239 C241 1.327 . S
C239 C245 1.429 . S
C240 C232 1.574 . S
C240 H235 0.949 . S
C240 C246 1.368 . S
C241 C225 1.349 . S
C241 H233 0.950 . S
C241 C239 1.327 . S
C242 C230 1.349 . S
C242 H236 0.950 . S
C242 C243 1.327 . S
C243 H237 0.950 . S
C243 C242 1.327 . S
C243 C247 1.429 . S
C244 C227 1.574 . S
C244 H238 0.949 . S
C244 C248 1.368 . S
C245 C226 1.429 . S
C245 C239 1.429 . S
C245 C246 1.523 . S
C246 C227 1.368 . S
C246 C240 1.368 . S
C246 C245 1.523 . S
C247 C231 1.429 . S
C247 C243 1.429 . S
C247 C248 1.523 . S
C248 C232 1.368 . S
C248 C244 1.368 . S
C248 C247 1.523 . S
H249 C224 0.950 . S
H250 C226 0.950 . S
H251 C227 0.949 . S
H252 C229 0.950 . S
H253 C231 0.950 . S
C254 C255 1.349 . S
C254 C256 1.327 . S
C254 H279 0.950 . S
C255 C254 1.349 . S
C255 C271 1.349 . S
C256 C254 1.327 . S
C256 C275 1.429 . S
C256 H280 0.950 . S
C257 C274 1.574 . S
C257 C276 1.368 . S
C257 H281 0.949 . S
H258 C262 0.949 . S
C259 C260 1.349 . S
C259 C261 1.327 . S
C259 H282 0.950 . S
C260 C259 1.349 . S
C260 C272 1.349 . S
C261 C259 1.327 . S
C261 C277 1.429 . S
C261 H283 0.950 . S
C262 H258 0.949 . S
C262 C270 1.574 . S
C262 C278 1.368 . S
H263 C271 0.950 . S
H264 C269 0.950 . S
H265 C270 0.949 . S
H266 C272 0.950 . S
H267 C273 0.950 . S
H268 C274 0.949 . S
C269 H264 0.950 . S
C269 C271 1.327 . S
C269 C275 1.429 . S
C270 C262 1.574 . S
C270 H265 0.949 . S
C270 C276 1.368 . S
C271 C255 1.349 . S
C271 H263 0.950 . S
C271 C269 1.327 . S
C272 C260 1.349 . S
C272 H266 0.950 . S
C272 C273 1.327 . S
C273 H267 0.950 . S
C273 C272 1.327 . S
C273 C277 1.429 . S
C274 C257 1.574 . S
C274 H268 0.949 . S
C274 C278 1.368 . S
C275 C256 1.429 . S
C275 C269 1.429 . S
C275 C276 1.523 . S
C276 C257 1.368 . S
C276 C270 1.368 . S
C276 C275 1.523 . S
C277 C261 1.429 . S
C277 C273 1.429 . S
C277 C278 1.523 . S
C278 C262 1.368 . S
C278 C274 1.368 . S
C278 C277 1.523 . S
H279 C254 0.950 . S
H280 C256 0.950 . S
H281 C257 0.949 . S
H282 C259 0.950 . S
H283 C261 0.950 . S
C284 C285 1.349 . S
C284 C286 1.327 . S
C284 H309 0.950 . S
C285 C284 1.349 . S
C285 C301 1.349 . S
C286 C284 1.327 . S
C286 C305 1.429 . S
C286 H310 0.950 . S
C287 C304 1.574 . S
C287 C306 1.368 . S
C287 H311 0.949 . S
H288 C292 0.949 . S
C289 C290 1.349 . S
C289 C291 1.327 . S
C289 H312 0.950 . S
C290 C289 1.349 . S
C290 C302 1.349 . S
C291 C289 1.327 . S
C291 C307 1.429 . S
C291 H313 0.950 . S
C292 H288 0.949 . S
C292 C300 1.574 . S
C292 C308 1.368 . S
H293 C301 0.950 . S
H294 C299 0.950 . S
H295 C300 0.949 . S
H296 C302 0.950 . S
H297 C303 0.950 . S
H298 C304 0.949 . S
C299 H294 0.950 . S
C299 C301 1.327 . S
C299 C305 1.429 . S
C300 C292 1.574 . S
C300 H295 0.949 . S
C300 C306 1.368 . S
C301 C285 1.349 . S
C301 H293 0.950 . S
C301 C299 1.327 . S
C302 C290 1.349 . S
C302 H296 0.950 . S
C302 C303 1.327 . S
C303 H297 0.950 . S
C303 C302 1.327 . S
C303 C307 1.429 . S
C304 C287 1.574 . S
C304 H298 0.949 . S
C304 C308 1.368 . S
C305 C286 1.429 . S
C305 C299 1.429 . S
C305 C306 1.523 . S
C306 C287 1.368 . S
C306 C300 1.368 . S
C306 C305 1.523 . S
C307 C291 1.429 . S
C307 C303 1.429 . S
C307 C308 1.523 . S
C308 C292 1.368 . S
C308 C304 1.368 . S
C308 C307 1.523 . S
H309 C284 0.950 . S
H310 C286 0.950 . S
H311 C287 0.949 . S
H312 C289 0.950 . S
H313 C291 0.950 . S
C314 C315 1.349 . S
C314 C316 1.327 . S
C314 H339 0.950 . S
C315 C314 1.349 . S
C315 C331 1.349 . S
C316 C314 1.327 . S
C316 C335 1.429 . S
C316 H340 0.950 . S
C317 C334 1.574 . S
C317 C336 1.368 . S
C317 H341 0.949 . S
H318 C322 0.949 . S
C319 C320 1.349 . S
C319 C321 1.327 . S
C319 H342 0.950 . S
C320 C319 1.349 . S
C320 C332 1.349 . S
C321 C319 1.327 . S
C321 C337 1.429 . S
C321 H343 0.950 . S
C322 H318 0.949 . S
C322 C330 1.574 . S
C322 C338 1.368 . S
H323 C331 0.950 . S
H324 C329 0.950 . S
H325 C330 0.949 . S
H326 C332 0.950 . S
H327 C333 0.950 . S
H328 C334 0.949 . S
C329 H324 0.950 . S
C329 C331 1.327 . S
C329 C335 1.429 . S
C330 C322 1.574 . S
C330 H325 0.949 . S
C330 C336 1.368 . S
C331 C315 1.349 . S
C331 H323 0.950 . S
C331 C329 1.327 . S
C332 C320 1.349 . S
C332 H326 0.950 . S
C332 C333 1.327 . S
C333 H327 0.950 . S
C333 C332 1.327 . S
C333 C337 1.429 . S
C334 C317 1.574 . S
C334 H328 0.949 . S
C334 C338 1.368 . S
C335 C316 1.429 . S
C335 C329 1.429 . S
C335 C336 1.523 . S
C336 C317 1.368 . S
C336 C330 1.368 . S
C336 C335 1.523 . S
C337 C321 1.429 . S
C337 C333 1.429 . S
C337 C338 1.523 . S
C338 C322 1.368 . S
C338 C334 1.368 . S
C338 C337 1.523 . S
H339 C314 0.950 . S
H340 C316 0.950 . S
H341 C317 0.949 . S
H342 C319 0.950 . S
H343 C321 0.950 . S
C344 C345 1.349 . S
C344 C346 1.327 . S
C344 H369 0.950 . S
C345 C344 1.349 . S
C345 C361 1.349 . S
C346 C344 1.327 . S
C346 C365 1.429 . S
C346 H370 0.950 . S
C347 C364 1.574 . S
C347 C366 1.368 . S
C347 H371 0.949 . S
H348 C352 0.949 . S
C349 C350 1.349 . S
C349 C351 1.327 . S
C349 H372 0.950 . S
C350 C349 1.349 . S
C350 C362 1.349 . S
C351 C349 1.327 . S
C351 C367 1.429 . S
C351 H373 0.950 . S
C352 H348 0.949 . S
C352 C360 1.574 . S
C352 C368 1.368 . S
H353 C361 0.950 . S
H354 C359 0.950 . S
H355 C360 0.949 . S
H356 C362 0.950 . S
H357 C363 0.950 . S
H358 C364 0.949 . S
C359 H354 0.950 . S
C359 C361 1.327 . S
C359 C365 1.429 . S
C360 C352 1.574 . S
C360 H355 0.949 . S
C360 C366 1.368 . S
C361 C345 1.349 . S
C361 H353 0.950 . S
C361 C359 1.327 . S
C362 C350 1.349 . S
C362 H356 0.950 . S
C362 C363 1.327 . S
C363 H357 0.950 . S
C363 C362 1.327 . S
C363 C367 1.429 . S
C364 C347 1.574 . S
C364 H358 0.949 . S
C364 C368 1.368 . S
C365 C346 1.429 . S
C365 C359 1.429 . S
C365 C366 1.523 . S
C366 C347 1.368 . S
C366 C360 1.368 . S
C366 C365 1.523 . S
C367 C351 1.429 . S
C367 C363 1.429 . S
C367 C368 1.523 . S
C368 C352 1.368 . S
C368 C364 1.368 . S
C368 C367 1.523 . S
H369 C344 0.950 . S
H370 C346 0.950 . S
H371 C347 0.949 . S
H372 C349 0.950 . S
H373 C351 0.950 . S
C374 C375 1.349 . S
C374 C376 1.327 . S
C374 H399 0.950 . S
C375 C374 1.349 . S
C375 C391 1.349 . S
C376 C374 1.327 . S
C376 C395 1.429 . S
C376 H400 0.950 . S
C377 C394 1.574 . S
C377 C396 1.368 . S
C377 H401 0.949 . S
H378 C382 0.949 . S
C379 C380 1.349 . S
C379 C381 1.327 . S
C379 H402 0.950 . S
C380 C379 1.349 . S
C380 C392 1.349 . S
C381 C379 1.327 . S
C381 C397 1.429 . S
C381 H403 0.950 . S
C382 H378 0.949 . S
C382 C390 1.574 . S
C382 C398 1.368 . S
H383 C391 0.950 . S
H384 C389 0.950 . S
H385 C390 0.949 . S
H386 C392 0.950 . S
H387 C393 0.950 . S
H388 C394 0.949 . S
C389 H384 0.950 . S
C389 C391 1.327 . S
C389 C395 1.429 . S
C390 C382 1.574 . S
C390 H385 0.949 . S
C390 C396 1.368 . S
C391 C375 1.349 . S
C391 H383 0.950 . S
C391 C389 1.327 . S
C392 C380 1.349 . S
C392 H386 0.950 . S
C392 C393 1.327 . S
C393 H387 0.950 . S
C393 C392 1.327 . S
C393 C397 1.429 . S
C394 C377 1.574 . S
C394 H388 0.949 . S
C394 C398 1.368 . S
C395 C376 1.429 . S
C395 C389 1.429 . S
C395 C396 1.523 . S
C396 C377 1.368 . S
C396 C390 1.368 . S
C396 C395 1.523 . S
C397 C381 1.429 . S
C397 C393 1.429 . S
C397 C398 1.523 . S
C398 C382 1.368 . S
C398 C394 1.368 . S
C398 C397 1.523 . S
H399 C374 0.950 . S
H400 C376 0.950 . S
H401 C377 0.949 . S
H402 C379 0.950 . S
H403 C381 0.950 . S
C404 C405 1.349 . S
C404 C406 1.327 . S
C404 H429 0.950 . S
C405 C404 1.349 . S
C405 C421 1.349 . S
C406 C404 1.327 . S
C406 C425 1.429 . S
C406 H430 0.950 . S
C407 C424 1.574 . S
C407 C426 1.368 . S
C407 H431 0.949 . S
H408 C412 0.949 . S
C409 C410 1.349 . S
C409 C411 1.327 . S
C409 H432 0.950 . S
C410 C409 1.349 . S
C410 C422 1.349 . S
C411 C409 1.327 . S
C411 C427 1.429 . S
C411 H433 0.950 . S
C412 H408 0.949 . S
C412 C420 1.574 . S
C412 C428 1.368 . S
H413 C421 0.950 . S
H414 C419 0.950 . S
H415 C420 0.949 . S
H416 C422 0.950 . S
H417 C423 0.950 . S
H418 C424 0.949 . S
C419 H414 0.950 . S
C419 C421 1.327 . S
C419 C425 1.429 . S
C420 C412 1.574 . S
C420 H415 0.949 . S
C420 C426 1.368 . S
C421 C405 1.349 . S
C421 H413 0.950 . S
C421 C419 1.327 . S
C422 C410 1.349 . S
C422 H416 0.950 . S
C422 C423 1.327 . S
C423 H417 0.950 . S
C423 C422 1.327 . S
C423 C427 1.429 . S
C424 C407 1.574 . S
C424 H418 0.949 . S
C424 C428 1.368 . S
C425 C406 1.429 . S
C425 C419 1.429 . S
C425 C426 1.523 . S
C426 C407 1.368 . S
C426 C420 1.368 . S
C426 C425 1.523 . S
C427 C411 1.429 . S
C427 C423 1.429 . S
C427 C428 1.523 . S
C428 C412 1.368 . S
C428 C424 1.368 . S
C428 C427 1.523 . S
H429 C404 0.950 . S
H430 C406 0.950 . S
H431 C407 0.949 . S
H432 C409 0.950 . S
H433 C411 0.950 . S
C434 C435 1.349 . S
C434 C436 1.327 . S
C434 H459 0.950 . S
C435 C434 1.349 . S
C435 C451 1.349 . S
C436 C434 1.327 . S
C436 C455 1.429 . S
C436 H460 0.950 . S
C437 C454 1.574 . S
C437 C456 1.368 . S
C437 H461 0.949 . S
H438 C442 0.949 . S
C439 C440 1.349 . S
C439 C441 1.327 . S
C439 H462 0.950 . S
C440 C439 1.349 . S
C440 C452 1.349 . S
C441 C439 1.327 . S
C441 C457 1.429 . S
C441 H463 0.950 . S
C442 H438 0.949 . S
C442 C450 1.574 . S
C442 C458 1.368 . S
H443 C451 0.950 . S
H444 C449 0.950 . S
H445 C450 0.949 . S
H446 C452 0.950 . S
H447 C453 0.950 . S
H448 C454 0.949 . S
C449 H444 0.950 . S
C449 C451 1.327 . S
C449 C455 1.429 . S
C450 C442 1.574 . S
C450 H445 0.949 . S
C450 C456 1.368 . S
C451 C435 1.349 . S
C451 H443 0.950 . S
C451 C449 1.327 . S
C452 C440 1.349 . S
C452 H446 0.950 . S
C452 C453 1.327 . S
C453 H447 0.950 . S
C453 C452 1.327 . S
C453 C457 1.429 . S
C454 C437 1.574 . S
C454 H448 0.949 . S
C454 C458 1.368 . S
C455 C436 1.429 . S
C455 C449 1.429 . S
C455 C456 1.523 . S
C456 C437 1.368 . S
C456 C450 1.368 . S
C456 C455 1.523 . S
C457 C441 1.429 . S
C457 C453 1.429 . S
C457 C458 1.523 . S
C458 C442 1.368 . S
C458 C454 1.368 . S
C458 C457 1.523 . S
H459 C434 0.950 . S
H460 C436 0.950 . S
H461 C437 0.949 . S
H462 C439 0.950 . S
H463 C441 0.950 . S
C464 C465 1.349 . S
C464 C466 1.327 . S
C464 H489 0.950 . S
C465 C464 1.349 . S
C465 C481 1.349 . S
C466 C464 1.327 . S
C466 C485 1.429 . S
C466 H490 0.950 . S
C467 C484 1.574 1_455 S
C467 C486 1.368 . S
C467 H491 0.949 . S
H468 C472 0.949 . S
C469 C470 1.349 . S
C469 C471 1.327 . S
C469 H492 0.950 . S
C470 C469 1.349 . S
C470 C482 1.349 . S
C471 C469 1.327 . S
C471 C487 1.429 . S
C471 H493 0.950 . S
C472 H468 0.949 . S
C472 C480 1.574 1_655 S
C472 C488 1.368 . S
H473 C481 0.950 . S
H474 C479 0.950 . S
H475 C480 0.949 . S
H476 C482 0.950 . S
H477 C483 0.950 . S
H478 C484 0.949 . S
C479 H474 0.950 . S
C479 C481 1.327 . S
C479 C485 1.429 . S
C480 C472 1.574 1_455 S
C480 H475 0.949 . S
C480 C486 1.368 1_565 S
C481 C465 1.349 . S
C481 H473 0.950 . S
C481 C479 1.327 . S
C482 C470 1.349 . S
C482 H476 0.950 . S
C482 C483 1.327 . S
C483 H477 0.950 . S
C483 C482 1.327 . S
C483 C487 1.429 . S
C484 C467 1.574 1_655 S
C484 H478 0.949 . S
C484 C488 1.368 1_545 S
C485 C466 1.429 . S
C485 C479 1.429 . S
C485 C486 1.523 . S
C486 C467 1.368 . S
C486 C480 1.368 1_545 S
C486 C485 1.523 . S
C487 C471 1.429 . S
C487 C483 1.429 . S
C487 C488 1.523 . S
C488 C472 1.368 . S
C488 C484 1.368 1_565 S
C488 C487 1.523 . S
H489 C464 0.950 . S
H490 C466 0.950 . S
H491 C467 0.949 . S
H492 C469 0.950 . S
H493 C471 0.950 . S
C494 C495 1.349 . S
C494 C496 1.327 . S
C494 H519 0.950 . S
C495 C494 1.349 . S
C495 C511 1.349 . S
C496 C494 1.327 . S
C496 C515 1.429 . S
C496 H520 0.950 . S
C497 C514 1.574 . S
C497 C516 1.368 . S
C497 H521 0.949 . S
H498 C502 0.949 . S
C499 C500 1.349 . S
C499 C501 1.327 . S
C499 H522 0.950 . S
C500 C499 1.349 . S
C500 C512 1.349 . S
C501 C499 1.327 . S
C501 C517 1.429 . S
C501 H523 0.950 . S
C502 H498 0.949 . S
C502 C510 1.574 . S
C502 C518 1.368 . S
H503 C511 0.950 . S
H504 C509 0.950 . S
H505 C510 0.949 . S
H506 C512 0.950 . S
H507 C513 0.950 . S
H508 C514 0.949 . S
C509 H504 0.950 . S
C509 C511 1.327 . S
C509 C515 1.429 . S
C510 C502 1.574 . S
C510 H505 0.949 . S
C510 C516 1.368 1_455 S
C511 C495 1.349 . S
C511 H503 0.950 . S
C511 C509 1.327 . S
C512 C500 1.349 . S
C512 H506 0.950 . S
C512 C513 1.327 . S
C513 H507 0.950 . S
C513 C512 1.327 . S
C513 C517 1.429 . S
C514 C497 1.574 . S
C514 H508 0.949 . S
C514 C518 1.368 1_655 S
C515 C496 1.429 . S
C515 C509 1.429 . S
C515 C516 1.523 . S
C516 C497 1.368 . S
C516 C510 1.368 1_655 S
C516 C515 1.523 . S
C517 C501 1.429 . S
C517 C513 1.429 . S
C517 C518 1.523 . S
C518 C502 1.368 . S
C518 C514 1.368 1_455 S
C518 C517 1.523 . S
H519 C494 0.950 . S
H520 C496 0.950 . S
H521 C497 0.949 . S
H522 C499 0.950 . S
H523 C501 0.950 . S
C524 C525 1.349 . S
C524 C526 1.327 . S
C524 H549 0.950 . S
C525 C524 1.349 . S
C525 C541 1.349 . S
C526 C524 1.327 . S
C526 C545 1.429 . S
C526 H550 0.950 . S
C527 C544 1.574 . S
C527 C546 1.368 . S
C527 H551 0.949 . S
H528 C532 0.949 . S
C529 C530 1.349 . S
C529 C531 1.327 . S
C529 H552 0.950 . S
C530 C529 1.349 . S
C530 C542 1.349 . S
C531 C529 1.327 . S
C531 C547 1.429 . S
C531 H553 0.950 . S
C532 H528 0.949 . S
C532 C540 1.574 . S
C532 C548 1.368 . S
H533 C541 0.950 . S
H534 C539 0.950 . S
H535 C540 0.949 . S
H536 C542 0.950 . S
H537 C543 0.950 . S
H538 C544 0.949 . S
C539 H534 0.950 . S
C539 C541 1.327 . S
C539 C545 1.429 . S
C540 C532 1.574 . S
C540 H535 0.949 . S
C540 C546 1.368 . S
C541 C525 1.349 . S
C541 H533 0.950 . S
C541 C539 1.327 . S
C542 C530 1.349 . S
C542 H536 0.950 . S
C542 C543 1.327 . S
C543 H537 0.950 . S
C543 C542 1.327 . S
C543 C547 1.429 . S
C544 C527 1.574 . S
C544 H538 0.949 . S
C544 C548 1.368 . S
C545 C526 1.429 . S
C545 C539 1.429 . S
C545 C546 1.523 . S
C546 C527 1.368 . S
C546 C540 1.368 . S
C546 C545 1.523 . S
C547 C531 1.429 . S
C547 C543 1.429 . S
C547 C548 1.523 . S
C548 C532 1.368 . S
C548 C544 1.368 . S
C548 C547 1.523 . S
H549 C524 0.950 . S
H550 C526 0.950 . S
H551 C527 0.949 . S
H552 C529 0.950 . S
H553 C531 0.950 . S
C554 C555 1.349 . S
C554 C556 1.327 . S
C554 H579 0.950 . S
C555 C554 1.349 . S
C555 C571 1.349 . S
C556 C554 1.327 . S
C556 C575 1.429 . S
C556 H580 0.950 . S
C557 C574 1.574 1_565 S
C557 C576 1.368 . S
C557 H581 0.949 . S
H558 C562 0.949 . S
C559 C560 1.349 . S
C559 C561 1.327 . S
C559 H582 0.950 . S
C560 C559 1.349 . S
C560 C572 1.349 . S
C561 C559 1.327 . S
C561 C577 1.429 . S
C561 H583 0.950 . S
C562 H558 0.949 . S
C562 C570 1.574 1_545 S
C562 C578 1.368 . S
H563 C571 0.950 . S
H564 C569 0.950 . S
H565 C570 0.949 . S
H566 C572 0.950 . S
H567 C573 0.950 . S
H568 C574 0.949 . S
C569 H564 0.950 . S
C569 C571 1.327 . S
C569 C575 1.429 . S
C570 C562 1.574 1_565 S
C570 H565 0.949 . S
C570 C576 1.368 . S
C571 C555 1.349 . S
C571 H563 0.950 . S
C571 C569 1.327 . S
C572 C560 1.349 . S
C572 H566 0.950 . S
C572 C573 1.327 . S
C573 H567 0.950 . S
C573 C572 1.327 . S
C573 C577 1.429 . S
C574 C557 1.574 1_545 S
C574 H568 0.949 . S
C574 C578 1.368 . S
C575 C556 1.429 . S
C575 C569 1.429 . S
C575 C576 1.523 . S
C576 C557 1.368 . S
C576 C570 1.368 . S
C576 C575 1.523 . S
C577 C561 1.429 . S
C577 C573 1.429 . S
C577 C578 1.523 . S
C578 C562 1.368 . S
C578 C574 1.368 . S
C578 C577 1.523 . S
H579 C554 0.950 . S
H580 C556 0.950 . S
H581 C557 0.949 . S
H582 C559 0.950 . S
H583 C561 0.950 . S
C584 C585 1.369 . S
C584 C586 1.327 . S
C584 H609 0.950 . S
C585 C584 1.369 . S
C585 C601 1.329 1_556 S
C586 C584 1.327 . S
C586 C605 1.448 . S
C586 H610 0.950 . S
C587 C604 1.574 1_455 S
C587 C606 1.347 1_554 S
C587 H611 0.949 . S
H588 C592 0.949 . S
C589 C590 1.329 1_554 S
C589 C591 1.327 . S
C589 H612 0.950 . S
C590 C589 1.329 1_556 S
C590 C602 1.369 . S
C591 C589 1.327 . S
C591 C607 1.409 1_554 S
C591 H613 0.950 . S
C592 H588 0.949 . S
C592 C600 1.574 1_655 S
C592 C608 1.390 . S
H593 C601 0.950 . S
H594 C599 0.950 . S
H595 C600 0.949 . S
H596 C602 0.950 . S
H597 C603 0.950 . S
H598 C604 0.949 . S
C599 H594 0.950 . S
C599 C601 1.327 . S
C599 C605 1.409 1_554 S
C600 C592 1.574 1_455 S
C600 H595 0.949 . S
C600 C606 1.390 . S
C601 C585 1.329 1_554 S
C601 H593 0.950 . S
C601 C599 1.327 . S
C602 C590 1.369 . S
C602 H596 0.950 . S
C602 C603 1.327 . S
C603 H597 0.950 . S
C603 C602 1.327 . S
C603 C607 1.448 . S
C604 C587 1.574 1_655 S
C604 H598 0.949 . S
C604 C608 1.347 1_554 S
C605 C586 1.448 . S
C605 C599 1.409 1_556 S
C605 C606 1.523 . S
C606 C587 1.347 1_556 S
C606 C600 1.390 . S
C606 C605 1.523 . S
C607 C591 1.409 1_556 S
C607 C603 1.448 . S
C607 C608 1.523 . S
C608 C592 1.390 . S
C608 C604 1.347 1_556 S
C608 C607 1.523 . S
H609 C584 0.950 . S
H610 C586 0.950 . S
H611 C587 0.949 . S
H612 C589 0.950 . S
H613 C591 0.950 . S
C614 C615 1.349 . S
C614 C616 1.327 . S
C614 H639 0.950 . S
C615 C614 1.349 . S
C615 C631 1.349 . S
C616 C614 1.327 . S
C616 C635 1.429 . S
C616 H640 0.950 . S
C617 C634 1.574 . S
C617 C636 1.368 . S
C617 H641 0.949 . S
H618 C622 0.949 . S
C619 C620 1.349 . S
C619 C621 1.327 . S
C619 H642 0.950 . S
C620 C619 1.349 . S
C620 C632 1.349 . S
C621 C619 1.327 . S
C621 C637 1.429 . S
C621 H643 0.950 . S
C622 H618 0.949 . S
C622 C630 1.574 . S
C622 C638 1.368 . S
H623 C631 0.950 . S
H624 C629 0.950 . S
H625 C630 0.949 . S
H626 C632 0.950 . S
H627 C633 0.950 . S
H628 C634 0.949 . S
C629 H624 0.950 . S
C629 C631 1.327 . S
C629 C635 1.429 . S
C630 C622 1.574 . S
C630 H625 0.949 . S
C630 C636 1.368 . S
C631 C615 1.349 . S
C631 H623 0.950 . S
C631 C629 1.327 . S
C632 C620 1.349 . S
C632 H626 0.950 . S
C632 C633 1.327 . S
C633 H627 0.950 . S
C633 C632 1.327 . S
C633 C637 1.429 . S
C634 C617 1.574 . S
C634 H628 0.949 . S
C634 C638 1.368 . S
C635 C616 1.429 . S
C635 C629 1.429 . S
C635 C636 1.523 . S
C636 C617 1.368 . S
C636 C630 1.368 . S
C636 C635 1.523 . S
C637 C621 1.429 . S
C637 C633 1.429 . S
C637 C638 1.523 . S
C638 C622 1.368 . S
C638 C634 1.368 . S
C638 C637 1.523 . S
H639 C614 0.950 . S
H640 C616 0.950 . S
H641 C617 0.949 . S
H642 C619 0.950 . S
H643 C621 0.950 . S
C644 C645 1.349 . S
C644 C646 1.327 . S
C644 H669 0.950 . S
C645 C644 1.349 . S
C645 C661 1.349 . S
C646 C644 1.327 . S
C646 C665 1.429 . S
C646 H670 0.950 . S
C647 C664 1.574 . S
C647 C666 1.368 1_565 S
C647 H671 0.949 . S
H648 C652 0.949 . S
C649 C650 1.349 . S
C649 C651 1.327 . S
C649 H672 0.950 . S
C650 C649 1.349 . S
C650 C662 1.349 . S
C651 C649 1.327 . S
C651 C667 1.429 . S
C651 H673 0.950 . S
C652 H648 0.949 . S
C652 C660 1.574 . S
C652 C668 1.368 1_545 S
H653 C661 0.950 . S
H654 C659 0.950 . S
H655 C660 0.949 . S
H656 C662 0.950 . S
H657 C663 0.950 . S
H658 C664 0.949 . S
C659 H654 0.950 . S
C659 C661 1.327 . S
C659 C665 1.429 . S
C660 C652 1.574 . S
C660 H655 0.949 . S
C660 C666 1.368 . S
C661 C645 1.349 . S
C661 H653 0.950 . S
C661 C659 1.327 . S
C662 C650 1.349 . S
C662 H656 0.950 . S
C662 C663 1.327 . S
C663 H657 0.950 . S
C663 C662 1.327 . S
C663 C667 1.429 . S
C664 C647 1.574 . S
C664 H658 0.949 . S
C664 C668 1.368 . S
C665 C646 1.429 . S
C665 C659 1.429 . S
C665 C666 1.523 . S
C666 C647 1.368 1_545 S
C666 C660 1.368 . S
C666 C665 1.523 . S
C667 C651 1.429 . S
C667 C663 1.429 . S
C667 C668 1.523 . S
C668 C652 1.368 1_565 S
C668 C664 1.368 . S
C668 C667 1.523 . S
H669 C644 0.950 . S
H670 C646 0.950 . S
H671 C647 0.949 . S
H672 C649 0.950 . S
H673 C651 0.950 . S
C674 C675 1.349 . S
C674 C676 1.327 . S
C674 H699 0.950 . S
C675 C674 1.349 . S
C675 C691 1.349 . S
C676 C674 1.327 . S
C676 C695 1.429 . S
C676 H700 0.950 . S
C677 C694 1.574 1_545 S
C677 C696 1.368 1_655 S
C677 H701 0.949 . S
H678 C682 0.949 . S
C679 C680 1.349 . S
C679 C681 1.327 . S
C679 H702 0.950 . S
C680 C679 1.349 . S
C680 C692 1.349 . S
C681 C679 1.327 . S
C681 C697 1.429 . S
C681 H703 0.950 . S
C682 H678 0.949 . S
C682 C690 1.574 1_565 S
C682 C698 1.368 1_455 S
H683 C691 0.950 . S
H684 C689 0.950 . S
H685 C690 0.949 . S
H686 C692 0.950 . S
H687 C693 0.950 . S
H688 C694 0.949 . S
C689 H684 0.950 . S
C689 C691 1.327 . S
C689 C695 1.429 . S
C690 C682 1.574 1_545 S
C690 H685 0.949 . S
C690 C696 1.368 . S
C691 C675 1.349 . S
C691 H683 0.950 . S
C691 C689 1.327 . S
C692 C680 1.349 . S
C692 H686 0.950 . S
C692 C693 1.327 . S
C693 H687 0.950 . S
C693 C692 1.327 . S
C693 C697 1.429 . S
C694 C677 1.574 1_565 S
C694 H688 0.949 . S
C694 C698 1.368 . S
C695 C676 1.429 . S
C695 C689 1.429 . S
C695 C696 1.523 . S
C696 C677 1.368 1_455 S
C696 C690 1.368 . S
C696 C695 1.523 . S
C697 C681 1.429 . S
C697 C693 1.429 . S
C697 C698 1.523 . S
C698 C682 1.368 1_655 S
C698 C694 1.368 . S
C698 C697 1.523 . S
H699 C674 0.950 . S
H700 C676 0.950 . S
H701 C677 0.949 . S
H702 C679 0.950 . S
H703 C681 0.950 . S
C704 C705 1.349 . S
C704 C706 1.327 . S
C704 H729 0.950 . S
C705 C704 1.349 . S
C705 C721 1.349 . S
C706 C704 1.327 . S
C706 C725 1.429 . S
C706 H730 0.950 . S
C707 C724 1.574 . S
C707 C726 1.368 . S
C707 H731 0.949 . S
H708 C712 0.949 . S
C709 C710 1.349 . S
C709 C711 1.327 . S
C709 H732 0.950 . S
C710 C709 1.349 . S
C710 C722 1.349 . S
C711 C709 1.327 . S
C711 C727 1.429 . S
C711 H733 0.950 . S
C712 H708 0.949 . S
C712 C720 1.574 . S
C712 C728 1.368 . S
H713 C721 0.950 . S
H714 C719 0.950 . S
H715 C720 0.949 . S
H716 C722 0.950 . S
H717 C723 0.950 . S
H718 C724 0.949 . S
C719 H714 0.950 . S
C719 C721 1.327 . S
C719 C725 1.429 . S
C720 C712 1.574 . S
C720 H715 0.949 . S
C720 C726 1.368 . S
C721 C705 1.349 . S
C721 H713 0.950 . S
C721 C719 1.327 . S
C722 C710 1.349 . S
C722 H716 0.950 . S
C722 C723 1.327 . S
C723 H717 0.950 . S
C723 C722 1.327 . S
C723 C727 1.429 . S
C724 C707 1.574 . S
C724 H718 0.949 . S
C724 C728 1.368 . S
C725 C706 1.429 . S
C725 C719 1.429 . S
C725 C726 1.523 . S
C726 C707 1.368 . S
C726 C720 1.368 . S
C726 C725 1.523 . S
C727 C711 1.429 . S
C727 C723 1.429 . S
C727 C728 1.523 . S
C728 C712 1.368 . S
C728 C724 1.368 . S
C728 C727 1.523 . S
H729 C704 0.950 . S
H730 C706 0.950 . S
H731 C707 0.949 . S
H732 C709 0.950 . S
H733 C711 0.950 . S
C734 C735 1.349 . S
C734 C736 1.327 . S
C734 H759 0.950 . S
C735 C734 1.349 . S
C735 C751 1.349 . S
C736 C734 1.327 . S
C736 C755 1.429 . S
C736 H760 0.950 . S
C737 C754 1.574 . S
C737 C756 1.368 . S
C737 H761 0.949 . S
H738 C742 0.949 . S
C739 C740 1.349 . S
C739 C741 1.327 . S
C739 H762 0.950 . S
C740 C739 1.349 . S
C740 C752 1.349 . S
C741 C739 1.327 . S
C741 C757 1.429 . S
C741 H763 0.950 . S
C742 H738 0.949 . S
C742 C750 1.574 . S
C742 C758 1.368 . S
H743 C751 0.950 . S
H744 C749 0.950 . S
H745 C750 0.949 . S
H746 C752 0.950 . S
H747 C753 0.950 . S
H748 C754 0.949 . S
C749 H744 0.950 . S
C749 C751 1.327 . S
C749 C755 1.429 . S
C750 C742 1.574 . S
C750 H745 0.949 . S
C750 C756 1.368 . S
C751 C735 1.349 . S
C751 H743 0.950 . S
C751 C749 1.327 . S
C752 C740 1.349 . S
C752 H746 0.950 . S
C752 C753 1.327 . S
C753 H747 0.950 . S
C753 C752 1.327 . S
C753 C757 1.429 . S
C754 C737 1.574 . S
C754 H748 0.949 . S
C754 C758 1.368 . S
C755 C736 1.429 . S
C755 C749 1.429 . S
C755 C756 1.523 . S
C756 C737 1.368 . S
C756 C750 1.368 . S
C756 C755 1.523 . S
C757 C741 1.429 . S
C757 C753 1.429 . S
C757 C758 1.523 . S
C758 C742 1.368 . S
C758 C754 1.368 . S
C758 C757 1.523 . S
H759 C734 0.950 . S
H760 C736 0.950 . S
H761 C737 0.949 . S
H762 C739 0.950 . S
H763 C741 0.950 . S
C764 C765 1.349 . S
C764 C766 1.327 . S
C764 H789 0.950 . S
C765 C764 1.349 . S
C765 C781 1.349 . S
C766 C764 1.327 . S
C766 C785 1.429 . S
C766 H790 0.950 . S
C767 C784 1.574 . S
C767 C786 1.368 . S
C767 H791 0.949 . S
H768 C772 0.949 1_556 S
C769 C770 1.349 . S
C769 C771 1.327 . S
C769 H792 0.950 . S
C770 C769 1.349 . S
C770 C782 1.349 . S
C771 C769 1.327 . S
C771 C787 1.429 . S
C771 H793 0.950 . S
C772 H768 0.949 1_554 S
C772 C780 1.574 . S
C772 C788 1.368 1_554 S
H773 C781 0.950 . S
H774 C779 0.950 . S
H775 C780 0.949 . S
H776 C782 0.950 . S
H777 C783 0.950 . S
H778 C784 0.949 1_556 S
C779 H774 0.950 . S
C779 C781 1.327 . S
C779 C785 1.429 . S
C780 C772 1.574 . S
C780 H775 0.949 . S
C780 C786 1.368 . S
C781 C765 1.349 . S
C781 H773 0.950 . S
C781 C779 1.327 . S
C782 C770 1.349 . S
C782 H776 0.950 . S
C782 C783 1.327 . S
C783 H777 0.950 . S
C783 C782 1.327 . S
C783 C787 1.429 . S
C784 C767 1.574 . S
C784 H778 0.949 1_554 S
C784 C788 1.368 1_554 S
C785 C766 1.429 . S
C785 C779 1.429 . S
C785 C786 1.523 . S
C786 C767 1.368 . S
C786 C780 1.368 . S
C786 C785 1.523 . S
C787 C771 1.429 . S
C787 C783 1.429 . S
C787 C788 1.523 . S
C788 C772 1.368 1_556 S
C788 C784 1.368 1_556 S
C788 C787 1.523 . S
H789 C764 0.950 . S
H790 C766 0.950 . S
H791 C767 0.949 . S
H792 C769 0.950 . S
H793 C771 0.950 . S
C794 C795 1.349 . S
C794 C796 1.327 . S
C794 H819 0.950 . S
C795 C794 1.349 . S
C795 C811 1.349 . S
C796 C794 1.327 . S
C796 C815 1.429 . S
C796 H820 0.950 . S
C797 C814 1.574 . S
C797 C816 1.368 . S
C797 H821 0.949 . S
H798 C802 0.949 . S
C799 C800 1.349 . S
C799 C801 1.327 . S
C799 H822 0.950 . S
C800 C799 1.349 . S
C800 C812 1.349 . S
C801 C799 1.327 . S
C801 C817 1.429 . S
C801 H823 0.950 . S
C802 H798 0.949 . S
C802 C810 1.574 . S
C802 C818 1.368 . S
H803 C811 0.950 . S
H804 C809 0.950 . S
H805 C810 0.949 . S
H806 C812 0.950 . S
H807 C813 0.950 . S
H808 C814 0.949 . S
C809 H804 0.950 . S
C809 C811 1.327 . S
C809 C815 1.429 . S
C810 C802 1.574 . S
C810 H805 0.949 . S
C810 C816 1.368 . S
C811 C795 1.349 . S
C811 H803 0.950 . S
C811 C809 1.327 . S
C812 C800 1.349 . S
C812 H806 0.950 . S
C812 C813 1.327 . S
C813 H807 0.950 . S
C813 C812 1.327 . S
C813 C817 1.429 . S
C814 C797 1.574 . S
C814 H808 0.949 . S
C814 C818 1.368 . S
C815 C796 1.429 . S
C815 C809 1.429 . S
C815 C816 1.523 . S
C816 C797 1.368 . S
C816 C810 1.368 . S
C816 C815 1.523 . S
C817 C801 1.429 . S
C817 C813 1.429 . S
C817 C818 1.523 . S
C818 C802 1.368 . S
C818 C814 1.368 . S
C818 C817 1.523 . S
H819 C794 0.950 . S
H820 C796 0.950 . S
H821 C797 0.949 . S
H822 C799 0.950 . S
H823 C801 0.950 . S
C824 C825 1.349 . S
C824 C826 1.327 . S
C824 H849 0.950 . S
C825 C824 1.349 . S
C825 C841 1.349 . S
C826 C824 1.327 . S
C826 C845 1.429 . S
C826 H850 0.950 . S
C827 C844 1.574 . S
C827 C846 1.368 . S
C827 H851 0.949 . S
H828 C832 0.949 . S
C829 C830 1.349 . S
C829 C831 1.327 . S
C829 H852 0.950 . S
C830 C829 1.349 . S
C830 C842 1.349 . S
C831 C829 1.327 . S
C831 C847 1.429 . S
C831 H853 0.950 . S
C832 H828 0.949 . S
C832 C840 1.574 . S
C832 C848 1.368 . S
H833 C841 0.950 . S
H834 C839 0.950 . S
H835 C840 0.949 . S
H836 C842 0.950 . S
H837 C843 0.950 . S
H838 C844 0.949 . S
C839 H834 0.950 . S
C839 C841 1.327 . S
C839 C845 1.429 . S
C840 C832 1.574 . S
C840 H835 0.949 . S
C840 C846 1.368 . S
C841 C825 1.349 . S
C841 H833 0.950 . S
C841 C839 1.327 . S
C842 C830 1.349 . S
C842 H836 0.950 . S
C842 C843 1.327 . S
C843 H837 0.950 . S
C843 C842 1.327 . S
C843 C847 1.429 . S
C844 C827 1.574 . S
C844 H838 0.949 . S
C844 C848 1.368 . S
C845 C826 1.429 . S
C845 C839 1.429 . S
C845 C846 1.523 . S
C846 C827 1.368 . S
C846 C840 1.368 . S
C846 C845 1.523 . S
C847 C831 1.429 . S
C847 C843 1.429 . S
C847 C848 1.523 . S
C848 C832 1.368 . S
C848 C844 1.368 . S
C848 C847 1.523 . S
H849 C824 0.950 . S
H850 C826 0.950 . S
H851 C827 0.949 . S
H852 C829 0.950 . S
H853 C831 0.950 . S
C854 C855 1.349 . S
C854 C856 1.327 . S
C854 H879 0.950 . S
C855 C854 1.349 . S
C855 C871 1.349 . S
C856 C854 1.327 . S
C856 C875 1.429 . S
C856 H880 0.950 . S
C857 C874 1.574 . S
C857 C876 1.368 . S
C857 H881 0.949 . S
H858 C862 0.949 1_556 S
C859 C860 1.349 . S
C859 C861 1.327 . S
C859 H882 0.950 . S
C860 C859 1.349 . S
C860 C872 1.349 . S
C861 C859 1.327 . S
C861 C877 1.429 . S
C861 H883 0.950 . S
C862 H858 0.949 1_554 S
C862 C870 1.574 . S
C862 C878 1.368 1_554 S
H863 C871 0.950 . S
H864 C869 0.950 . S
H865 C870 0.949 . S
H866 C872 0.950 . S
H867 C873 0.950 . S
H868 C874 0.949 1_556 S
C869 H864 0.950 . S
C869 C871 1.327 . S
C869 C875 1.429 . S
C870 C862 1.574 . S
C870 H865 0.949 . S
C870 C876 1.368 . S
C871 C855 1.349 . S
C871 H863 0.950 . S
C871 C869 1.327 . S
C872 C860 1.349 . S
C872 H866 0.950 . S
C872 C873 1.327 . S
C873 H867 0.950 . S
C873 C872 1.327 . S
C873 C877 1.429 . S
C874 C857 1.574 . S
C874 H868 0.949 1_554 S
C874 C878 1.368 1_554 S
C875 C856 1.429 . S
C875 C869 1.429 . S
C875 C876 1.523 . S
C876 C857 1.368 . S
C876 C870 1.368 . S
C876 C875 1.523 . S
C877 C861 1.429 . S
C877 C873 1.429 . S
C877 C878 1.523 . S
C878 C862 1.368 1_556 S
C878 C874 1.368 1_556 S
C878 C877 1.523 . S
H879 C854 0.950 . S
H880 C856 0.950 . S
H881 C857 0.949 . S
H882 C859 0.950 . S
H883 C861 0.950 . S
C884 C885 1.349 . S
C884 C886 1.327 . S
C884 H909 0.950 . S
C885 C884 1.349 . S
C885 C901 1.349 . S
C886 C884 1.327 . S
C886 C905 1.429 . S
C886 H910 0.950 . S
C887 C904 1.574 . S
C887 C906 1.368 . S
C887 H911 0.949 . S
H888 C892 0.949 . S
C889 C890 1.349 . S
C889 C891 1.327 . S
C889 H912 0.950 . S
C890 C889 1.349 . S
C890 C902 1.349 . S
C891 C889 1.327 . S
C891 C907 1.429 . S
C891 H913 0.950 . S
C892 H888 0.949 . S
C892 C900 1.574 . S
C892 C908 1.368 . S
H893 C901 0.950 . S
H894 C899 0.950 . S
H895 C900 0.949 . S
H896 C902 0.950 . S
H897 C903 0.950 . S
H898 C904 0.949 . S
C899 H894 0.950 . S
C899 C901 1.327 . S
C899 C905 1.429 . S
C900 C892 1.574 . S
C900 H895 0.949 . S
C900 C906 1.368 . S
C901 C885 1.349 . S
C901 H893 0.950 . S
C901 C899 1.327 . S
C902 C890 1.349 . S
C902 H896 0.950 . S
C902 C903 1.327 . S
C903 H897 0.950 . S
C903 C902 1.327 . S
C903 C907 1.429 . S
C904 C887 1.574 . S
C904 H898 0.949 . S
C904 C908 1.368 . S
C905 C886 1.429 . S
C905 C899 1.429 . S
C905 C906 1.523 . S
C906 C887 1.368 . S
C906 C900 1.368 . S
C906 C905 1.523 . S
C907 C891 1.429 . S
C907 C903 1.429 . S
C907 C908 1.523 . S
C908 C892 1.368 . S
C908 C904 1.368 . S
C908 C907 1.523 . S
H909 C884 0.950 . S
H910 C886 0.950 . S
H911 C887 0.949 . S
H912 C889 0.950 . S
H913 C891 0.950 . S
C914 C915 1.349 . S
C914 C916 1.327 . S
C914 H939 0.950 . S
C915 C914 1.349 . S
C915 C931 1.349 . S
C916 C914 1.327 . S
C916 C935 1.429 . S
C916 H940 0.950 . S
C917 C934 1.574 . S
C917 C936 1.368 . S
C917 H941 0.949 . S
H918 C922 0.949 . S
C919 C920 1.349 . S
C919 C921 1.327 . S
C919 H942 0.950 . S
C920 C919 1.349 . S
C920 C932 1.349 . S
C921 C919 1.327 . S
C921 C937 1.429 . S
C921 H943 0.950 . S
C922 H918 0.949 . S
C922 C930 1.574 . S
C922 C938 1.368 . S
H923 C931 0.950 . S
H924 C929 0.950 . S
H925 C930 0.949 . S
H926 C932 0.950 . S
H927 C933 0.950 . S
H928 C934 0.949 . S
C929 H924 0.950 . S
C929 C931 1.327 . S
C929 C935 1.429 . S
C930 C922 1.574 . S
C930 H925 0.949 . S
C930 C936 1.368 . S
C931 C915 1.349 . S
C931 H923 0.950 . S
C931 C929 1.327 . S
C932 C920 1.349 . S
C932 H926 0.950 . S
C932 C933 1.327 . S
C933 H927 0.950 . S
C933 C932 1.327 . S
C933 C937 1.429 . S
C934 C917 1.574 . S
C934 H928 0.949 . S
C934 C938 1.368 . S
C935 C916 1.429 . S
C935 C929 1.429 . S
C935 C936 1.523 . S
C936 C917 1.368 . S
C936 C930 1.368 . S
C936 C935 1.523 . S
C937 C921 1.429 . S
C937 C933 1.429 . S
C937 C938 1.523 . S
C938 C922 1.368 . S
C938 C934 1.368 . S
C938 C937 1.523 . S
H939 C914 0.950 . S
H940 C916 0.950 . S
H941 C917 0.949 . S
H942 C919 0.950 . S
H943 C921 0.950 . S
C944 C945 1.349 . S
C944 C946 1.327 . S
C944 H969 0.950 . S
C945 C944 1.349 . S
C945 C961 1.349 . S
C946 C944 1.327 . S
C946 C965 1.429 . S
C946 H970 0.950 . S
C947 C964 1.568 1_556 S
C947 C966 1.369 . S
C947 H971 0.953 . S
H948 C952 0.949 . S
C949 C950 1.349 . S
C949 C951 1.327 . S
C949 H972 0.950 . S
C950 C949 1.349 . S
C950 C962 1.349 . S
C951 C949 1.327 . S
C951 C967 1.429 . S
C951 H973 0.950 . S
C952 H948 0.949 . S
C952 C960 1.574 . S
C952 C968 1.368 . S
H953 C961 0.950 . S
H954 C959 0.950 . S
H955 C960 0.949 . S
H956 C962 0.950 . S
H957 C963 0.950 . S
H958 C964 0.949 . S
C959 H954 0.950 . S
C959 C961 1.327 . S
C959 C965 1.429 . S
C960 C952 1.574 . S
C960 H955 0.949 . S
C960 C966 1.368 1_554 S
C961 C945 1.349 . S
C961 H953 0.950 . S
C961 C959 1.327 . S
C962 C950 1.349 . S
C962 H956 0.950 . S
C962 C963 1.327 . S
C963 H957 0.950 . S
C963 C962 1.327 . S
C963 C967 1.429 . S
C964 C947 1.568 1_554 S
C964 H958 0.949 . S
C964 C968 1.368 . S
C965 C946 1.429 . S
C965 C959 1.429 . S
C965 C966 1.523 . S
C966 C947 1.369 . S
C966 C960 1.368 1_556 S
C966 C965 1.523 . S
C967 C951 1.429 . S
C967 C963 1.429 . S
C967 C968 1.523 . S
C968 C952 1.368 . S
C968 C964 1.368 . S
C968 C967 1.523 . S
H969 C944 0.950 . S
H970 C946 0.950 . S
H971 C947 0.953 . S
H972 C949 0.950 . S
H973 C951 0.950 . S
C974 C975 1.349 . S
C974 C976 1.327 . S
C974 H999 0.950 . S
C975 C974 1.349 . S
C975 C991 1.349 . S
C976 C974 1.327 . S
C976 C995 1.429 . S
C976 H1000 0.950 . S
C977 C994 1.574 . S
C977 C996 1.368 . S
C977 H1001 0.949 . S
H978 C982 0.949 . S
C979 C980 1.349 . S
C979 C981 1.327 . S
C979 H1002 0.950 . S
C980 C979 1.349 . S
C980 C992 1.349 . S
C981 C979 1.327 . S
C981 C997 1.429 . S
C981 H1003 0.950 . S
C982 H978 0.949 . S
C982 C990 1.574 . S
C982 C998 1.368 . S
H983 C991 0.950 . S
H984 C989 0.950 . S
H985 C990 0.949 . S
H986 C992 0.950 . S
H987 C993 0.950 . S
H988 C994 0.949 . S
C989 H984 0.950 . S
C989 C991 1.327 . S
C989 C995 1.429 . S
C990 C982 1.574 . S
C990 H985 0.949 . S
C990 C996 1.368 . S
C991 C975 1.349 . S
C991 H983 0.950 . S
C991 C989 1.327 . S
C992 C980 1.349 . S
C992 H986 0.950 . S
C992 C993 1.327 . S
C993 H987 0.950 . S
C993 C992 1.327 . S
C993 C997 1.429 . S
C994 C977 1.574 . S
C994 H988 0.949 . S
C994 C998 1.368 . S
C995 C976 1.429 . S
C995 C989 1.429 . S
C995 C996 1.523 . S
C996 C977 1.368 . S
C996 C990 1.368 . S
C996 C995 1.523 . S
C997 C981 1.429 . S
C997 C993 1.429 . S
C997 C998 1.523 . S
C998 C982 1.368 . S
C998 C994 1.368 . S
C998 C997 1.523 . S
H999 C974 0.950 . S
H1000 C976 0.950 . S
H1001 C977 0.949 . S
H1002 C979 0.950 . S
H1003 C981 0.950 . S
C1004 C1005 1.349 . S
C1004 C1006 1.327 . S
C1004 H1029 0.950 . S
C1005 C1004 1.349 . S
C1005 C1021 1.349 . S
C1006 C1004 1.327 . S
C1006 C1025 1.429 . S
C1006 H1030 0.950 . S
C1007 C1024 1.574 . S
C1007 C1026 1.368 . S
C1007 H1031 0.949 . S
H1008 C1012 0.949 . S
C1009 C1010 1.349 . S
C1009 C1011 1.327 . S
C1009 H1032 0.950 . S
C1010 C1009 1.349 . S
C1010 C1022 1.349 . S
C1011 C1009 1.327 . S
C1011 C1027 1.429 . S
C1011 H1033 0.950 . S
C1012 H1008 0.949 . S
C1012 C1020 1.574 . S
C1012 C1028 1.368 . S
H1013 C1021 0.950 . S
H1014 C1019 0.950 . S
H1015 C1020 0.949 . S
H1016 C1022 0.950 . S
H1017 C1023 0.950 . S
H1018 C1024 0.949 . S
C1019 H1014 0.950 . S
C1019 C1021 1.327 . S
C1019 C1025 1.429 . S
C1020 C1012 1.574 . S
C1020 H1015 0.949 . S
C1020 C1026 1.368 . S
C1021 C1005 1.349 . S
C1021 H1013 0.950 . S
C1021 C1019 1.327 . S
C1022 C1010 1.349 . S
C1022 H1016 0.950 . S
C1022 C1023 1.327 . S
C1023 H1017 0.950 . S
C1023 C1022 1.327 . S
C1023 C1027 1.429 . S
C1024 C1007 1.574 . S
C1024 H1018 0.949 . S
C1024 C1028 1.368 . S
C1025 C1006 1.429 . S
C1025 C1019 1.429 . S
C1025 C1026 1.523 . S
C1026 C1007 1.368 . S
C1026 C1020 1.368 . S
C1026 C1025 1.523 . S
C1027 C1011 1.429 . S
C1027 C1023 1.429 . S
C1027 C1028 1.523 . S
C1028 C1012 1.368 . S
C1028 C1024 1.368 . S
C1028 C1027 1.523 . S
H1029 C1004 0.950 . S
H1030 C1006 0.950 . S
H1031 C1007 0.949 . S
H1032 C1009 0.950 . S
H1033 C1011 0.950 . S
C1034 C1035 1.349 . S
C1034 C1036 1.327 . S
C1034 H1059 0.950 . S
C1035 C1034 1.349 . S
C1035 C1051 1.349 . S
C1036 C1034 1.327 . S
C1036 C1055 1.429 . S
C1036 H1060 0.950 . S
C1037 C1054 1.574 . S
C1037 C1056 1.368 . S
C1037 H1061 0.949 . S
H1038 C1042 0.949 . S
C1039 C1040 1.349 . S
C1039 C1041 1.327 . S
C1039 H1062 0.950 . S
C1040 C1039 1.349 . S
C1040 C1052 1.349 . S
C1041 C1039 1.327 . S
C1041 C1057 1.429 . S
C1041 H1063 0.950 . S
C1042 H1038 0.949 . S
C1042 C1050 1.574 . S
C1042 C1058 1.368 . S
H1043 C1051 0.950 . S
H1044 C1049 0.950 . S
H1045 C1050 0.949 . S
H1046 C1052 0.950 . S
H1047 C1053 0.950 . S
H1048 C1054 0.949 . S
C1049 H1044 0.950 . S
C1049 C1051 1.327 . S
C1049 C1055 1.429 . S
C1050 C1042 1.574 . S
C1050 H1045 0.949 . S
C1050 C1056 1.368 . S
C1051 C1035 1.349 . S
C1051 H1043 0.950 . S
C1051 C1049 1.327 . S
C1052 C1040 1.349 . S
C1052 H1046 0.950 . S
C1052 C1053 1.327 . S
C1053 H1047 0.950 . S
C1053 C1052 1.327 . S
C1053 C1057 1.429 . S
C1054 C1037 1.574 . S
C1054 H1048 0.949 . S
C1054 C1058 1.368 . S
C1055 C1036 1.429 . S
C1055 C1049 1.429 . S
C1055 C1056 1.523 . S
C1056 C1037 1.368 . S
C1056 C1050 1.368 . S
C1056 C1055 1.523 . S
C1057 C1041 1.429 . S
C1057 C1053 1.429 . S
C1057 C1058 1.523 . S
C1058 C1042 1.368 . S
C1058 C1054 1.368 . S
C1058 C1057 1.523 . S
H1059 C1034 0.950 . S
H1060 C1036 0.950 . S
H1061 C1037 0.949 . S
H1062 C1039 0.950 . S
H1063 C1041 0.950 . S
C1064 C1065 1.349 . S
C1064 C1066 1.327 . S
C1064 H1089 0.950 . S
C1065 C1064 1.349 . S
C1065 C1081 1.349 . S
C1066 C1064 1.327 . S
C1066 C1085 1.429 . S
C1066 H1090 0.950 . S
C1067 C1084 1.574 . S
C1067 C1086 1.368 . S
C1067 H1091 0.949 . S
H1068 C1072 0.949 . S
C1069 C1070 1.349 . S
C1069 C1071 1.327 . S
C1069 H1092 0.950 . S
C1070 C1069 1.349 . S
C1070 C1082 1.349 . S
C1071 C1069 1.327 . S
C1071 C1087 1.429 . S
C1071 H1093 0.950 . S
C1072 H1068 0.949 . S
C1072 C1080 1.574 . S
C1072 C1088 1.368 . S
H1073 C1081 0.950 . S
H1074 C1079 0.950 . S
H1075 C1080 0.949 . S
H1076 C1082 0.950 . S
H1077 C1083 0.950 . S
H1078 C1084 0.949 . S
C1079 H1074 0.950 . S
C1079 C1081 1.327 . S
C1079 C1085 1.429 . S
C1080 C1072 1.574 . S
C1080 H1075 0.949 . S
C1080 C1086 1.368 . S
C1081 C1065 1.349 . S
C1081 H1073 0.950 . S
C1081 C1079 1.327 . S
C1082 C1070 1.349 . S
C1082 H1076 0.950 . S
C1082 C1083 1.327 . S
C1083 H1077 0.950 . S
C1083 C1082 1.327 . S
C1083 C1087 1.429 . S
C1084 C1067 1.574 . S
C1084 H1078 0.949 . S
C1084 C1088 1.368 . S
C1085 C1066 1.429 . S
C1085 C1079 1.429 . S
C1085 C1086 1.523 . S
C1086 C1067 1.368 . S
C1086 C1080 1.368 . S
C1086 C1085 1.523 . S
C1087 C1071 1.429 . S
C1087 C1083 1.429 . S
C1087 C1088 1.523 . S
C1088 C1072 1.368 . S
C1088 C1084 1.368 . S
C1088 C1087 1.523 . S
H1089 C1064 0.950 . S
H1090 C1066 0.950 . S
H1091 C1067 0.949 . S
H1092 C1069 0.950 . S
H1093 C1071 0.950 . S
C1094 C1095 1.349 . S
C1094 C1096 1.327 . S
C1094 H1119 0.950 . S
C1095 C1094 1.349 . S
C1095 C1111 1.349 . S
C1096 C1094 1.327 . S
C1096 C1115 1.429 . S
C1096 H1120 0.950 . S
C1097 C1114 1.574 . S
C1097 C1116 1.368 . S
C1097 H1121 0.949 . S
H1098 C1102 0.949 . S
C1099 C1100 1.349 . S
C1099 C1101 1.327 . S
C1099 H1122 0.950 . S
C1100 C1099 1.349 . S
C1100 C1112 1.349 . S
C1101 C1099 1.327 . S
C1101 C1117 1.429 . S
C1101 H1123 0.950 . S
C1102 H1098 0.949 . S
C1102 C1110 1.574 . S
C1102 C1118 1.368 . S
H1103 C1111 0.950 . S
H1104 C1109 0.950 . S
H1105 C1110 0.949 . S
H1106 C1112 0.950 . S
H1107 C1113 0.950 . S
H1108 C1114 0.949 . S
C1109 H1104 0.950 . S
C1109 C1111 1.327 . S
C1109 C1115 1.429 . S
C1110 C1102 1.574 . S
C1110 H1105 0.949 . S
C1110 C1116 1.368 . S
C1111 C1095 1.349 . S
C1111 H1103 0.950 . S
C1111 C1109 1.327 . S
C1112 C1100 1.349 . S
C1112 H1106 0.950 . S
C1112 C1113 1.327 . S
C1113 H1107 0.950 . S
C1113 C1112 1.327 . S
C1113 C1117 1.429 . S
C1114 C1097 1.574 . S
C1114 H1108 0.949 . S
C1114 C1118 1.368 . S
C1115 C1096 1.429 . S
C1115 C1109 1.429 . S
C1115 C1116 1.523 . S
C1116 C1097 1.368 . S
C1116 C1110 1.368 . S
C1116 C1115 1.523 . S
C1117 C1101 1.429 . S
C1117 C1113 1.429 . S
C1117 C1118 1.523 . S
C1118 C1102 1.368 . S
C1118 C1114 1.368 . S
C1118 C1117 1.523 . S
H1119 C1094 0.950 . S
H1120 C1096 0.950 . S
H1121 C1097 0.949 . S
H1122 C1099 0.950 . S
H1123 C1101 0.950 . S
C1124 C1125 1.349 . S
C1124 C1126 1.327 . S
C1124 H1149 0.950 . S
C1125 C1124 1.349 . S
C1125 C1141 1.349 . S
C1126 C1124 1.327 . S
C1126 C1145 1.429 . S
C1126 H1150 0.950 . S
C1127 C1144 1.574 . S
C1127 C1146 1.368 . S
C1127 H1151 0.949 . S
H1128 C1132 0.949 . S
C1129 C1130 1.349 . S
C1129 C1131 1.327 . S
C1129 H1152 0.950 . S
C1130 C1129 1.349 . S
C1130 C1142 1.349 . S
C1131 C1129 1.327 . S
C1131 C1147 1.429 . S
C1131 H1153 0.950 . S
C1132 H1128 0.949 . S
C1132 C1140 1.574 . S
C1132 C1148 1.368 . S
H1133 C1141 0.950 . S
H1134 C1139 0.950 . S
H1135 C1140 0.949 . S
H1136 C1142 0.950 . S
H1137 C1143 0.950 . S
H1138 C1144 0.949 . S
C1139 H1134 0.950 . S
C1139 C1141 1.327 . S
C1139 C1145 1.429 . S
C1140 C1132 1.574 . S
C1140 H1135 0.949 . S
C1140 C1146 1.368 . S
C1141 C1125 1.349 . S
C1141 H1133 0.950 . S
C1141 C1139 1.327 . S
C1142 C1130 1.349 . S
C1142 H1136 0.950 . S
C1142 C1143 1.327 . S
C1143 H1137 0.950 . S
C1143 C1142 1.327 . S
C1143 C1147 1.429 . S
C1144 C1127 1.574 . S
C1144 H1138 0.949 . S
C1144 C1148 1.368 . S
C1145 C1126 1.429 . S
C1145 C1139 1.429 . S
C1145 C1146 1.523 . S
C1146 C1127 1.368 . S
C1146 C1140 1.368 . S
C1146 C1145 1.523 . S
C1147 C1131 1.429 . S
C1147 C1143 1.429 . S
C1147 C1148 1.523 . S
C1148 C1132 1.368 . S
C1148 C1144 1.368 . S
C1148 C1147 1.523 . S
H1149 C1124 0.950 . S
H1150 C1126 0.950 . S
H1151 C1127 0.949 . S
H1152 C1129 0.950 . S
H1153 C1131 0.950 . S
C1154 C1155 1.349 . S
C1154 C1156 1.327 . S
C1154 H1179 0.950 . S
C1155 C1154 1.349 . S
C1155 C1171 1.349 . S
C1156 C1154 1.327 . S
C1156 C1175 1.429 . S
C1156 H1180 0.950 . S
C1157 C1174 1.574 . S
C1157 C1176 1.368 . S
C1157 H1181 0.949 . S
H1158 C1162 0.949 1_556 S
C1159 C1160 1.349 . S
C1159 C1161 1.327 . S
C1159 H1182 0.950 . S
C1160 C1159 1.349 . S
C1160 C1172 1.349 . S
C1161 C1159 1.327 . S
C1161 C1177 1.429 . S
C1161 H1183 0.950 . S
C1162 H1158 0.949 1_554 S
C1162 C1170 1.574 . S
C1162 C1178 1.368 1_554 S
H1163 C1171 0.950 . S
H1164 C1169 0.950 . S
H1165 C1170 0.949 . S
H1166 C1172 0.950 . S
H1167 C1173 0.950 . S
H1168 C1174 0.949 1_556 S
C1169 H1164 0.950 . S
C1169 C1171 1.327 . S
C1169 C1175 1.429 . S
C1170 C1162 1.574 . S
C1170 H1165 0.949 . S
C1170 C1176 1.368 . S
C1171 C1155 1.349 . S
C1171 H1163 0.950 . S
C1171 C1169 1.327 . S
C1172 C1160 1.349 . S
C1172 H1166 0.950 . S
C1172 C1173 1.327 . S
C1173 H1167 0.950 . S
C1173 C1172 1.327 . S
C1173 C1177 1.429 . S
C1174 C1157 1.574 . S
C1174 H1168 0.949 1_554 S
C1174 C1178 1.368 1_554 S
C1175 C1156 1.429 . S
C1175 C1169 1.429 . S
C1175 C1176 1.523 . S
C1176 C1157 1.368 . S
C1176 C1170 1.368 . S
C1176 C1175 1.523 . S
C1177 C1161 1.429 . S
C1177 C1173 1.429 . S
C1177 C1178 1.523 . S
C1178 C1162 1.368 1_556 S
C1178 C1174 1.368 1_556 S
C1178 C1177 1.523 . S
H1179 C1154 0.950 . S
H1180 C1156 0.950 . S
H1181 C1157 0.949 . S
H1182 C1159 0.950 . S
H1183 C1161 0.950 . S
C225 C90 1.388 . S
C230 C6 1.388 . S
C255 C104 1.388 . S
C260 C20 1.388 . S
C285 C34 1.388 . S
C290 C62 1.388 . S
C315 C48 1.388 . S
C320 C76 1.388 . S
C345 C118 1.388 . S
C350 C202 1.388 . S
C375 C216 1.388 . S
C380 C132 1.388 . S
C405 C146 1.388 . S
C410 C174 1.388 . S
C435 C160 1.388 . S
C440 C188 1.388 . S
C465 C9 1.330 . S
C470 C149 1.330 . S
C495 C23 1.330 . S
C500 C163 1.330 . S
C525 C37 1.330 . S
C530 C121 1.330 . S
C555 C51 1.330 . S
C560 C135 1.330 . S
C585 C65 1.327 1_556 S
C590 C205 1.327 1_556 S
C615 C219 1.330 . S
C620 C79 1.330 . S
C645 C93 1.329 . S
C650 C177 1.329 . S
C675 C191 1.330 . S
C680 C107 1.330 . S
C705 C190 0.628 . S
C710 C8 0.628 . S
C735 C22 0.628 . S
C740 C204 0.628 . S
C765 C218 0.628 . S
C770 C36 0.628 . S
C795 C176 0.628 . S
C800 C50 0.628 . S
C825 C162 0.628 . S
C830 C64 0.628 . S
C855 C78 0.628 . S
C860 C120 0.628 . S
C885 C92 0.628 . S
C890 C134 0.628 . S
C915 C106 0.628 . S
C920 C148 0.628 . S
C945 C189 1.510 . S
C950 C7 1.510 . S
C975 C21 1.510 . S
C980 C203 1.510 . S
C1005 C35 1.510 . S
C1010 C217 1.510 . S
C1035 C175 1.510 . S
C1040 C49 1.510 . S
C1065 C161 1.510 . S
C1070 C63 1.510 . S
C1095 C119 1.510 . S
C1100 C77 1.510 . S
C1125 C91 1.510 . S
C1130 C133 1.510 . S
C1155 C147 1.510 . S
C1160 C105 1.510 . S
