# Generated by pormake.
# Topology kag, (6)-cn, num edge types: 1
# Building blocks:
#     Node 0, Type 0, BuildingBlock: PAMTUU_clean_sbu_0, # of connection points: 6
#     Node 1, Type 0, BuildingBlock: PAMTUU_clean_sbu_0, # of connection points: 6
#     Node 2, Type 0, BuildingBlock: PAMTUU_clean_sbu_0, # of connection points: 6
#     Edge 3, Type (0, 0), BuildingBlock: TEMPAE_clean_linker_10, # of connection points: 2
#     Edge 4, Type (0, 0), BuildingBlock: TEMPAE_clean_linker_10, # of connection points: 2
#     Edge 5, Type (0, 0), BuildingBlock: TEMPAE_clean_linker_10, # of connection points: 2
#     Edge 6, Type (0, 0), BuildingBlock: TEMPAE_clean_linker_10, # of connection points: 2
#     Edge 7, Type (0, 0), BuildingBlock: TEMPAE_clean_linker_10, # of connection points: 2
#     Edge 8, Type (0, 0), BuildingBlock: TEMPAE_clean_linker_10, # of connection points: 2
#     Edge 9, Type (0, 0), BuildingBlock: TEMPAE_clean_linker_10, # of connection points: 2
#     Edge 10, Type (0, 0), BuildingBlock: TEMPAE_clean_linker_10, # of connection points: 2
#     Edge 11, Type (0, 0), BuildingBlock: TEMPAE_clean_linker_10, # of connection points: 2
# Relax obj value: 0.091
# Max RMSD: 0.161
# Mean RMSD: 0.116
data_MOF--net-kag--node1-PAMTUU_clean_sbu_0--edge1-TEMPAE_clean_linker_10
_symmetry_space_group_name_H-M    P1
_symmetry_Int_Tables_number       1
_symmetry_cell_setting            triclinic
loop_
_symmetry_equiv_pos_as_xyz
'x, y, z'
_cell_length_a     49.564177
_cell_length_b     30.983064
_cell_length_c     15.335706
_cell_angle_alpha  88.454137
_cell_angle_beta   98.109782
_cell_angle_gamma 122.28163
loop_
_atom_site_label
_atom_site_type_symbol
_atom_site_fract_x
_atom_site_fract_y
_atom_site_fract_z
_atom_type_partial_charge
Tb0 Tb 1.02875 0.59407 0.9652 0.0
Tb1 Tb 0.04146 0.49996 0.97585 0.0
C2 C 1.03367 0.54535 0.79927 0.0
C3 C 0.98333 0.65695 0.95874 0.0
C4 C 0.92378 0.6487 0.95824 0.0
C5 C 0.94827 0.68897 0.91717 0.0
C6 C 0.97783 0.69305 0.91752 0.0
C7 C 0.95876 0.61631 -0.00139 0.0
C8 C 0.92931 0.61225 -0.00156 0.0
C9 C 1.01441 0.6612 0.95919 0.0
O10 O 0.9828 0.52642 0.9833 0.0
O11 O 0.98916 0.46219 0.93902 0.0
O12 O 1.02522 0.50346 0.0979 0.0
O13 O 0.04605 0.58925 0.10147 0.0
O14 O 0.039 0.43791 0.91419 0.0
O15 O 0.06046 0.46189 0.05043 0.0
O16 O 0.08809 0.57036 0.01462 0.0
O17 O 0.0793 0.63042 0.94941 0.0
O18 O 1.01579 0.55768 0.83378 0.0
O19 O 0.05207 0.53338 0.84961 0.0
C20 C 0.97081 0.47861 0.95757 0.0
O21 O 1.02539 0.64901 0.03145 0.0
O22 O 1.01707 0.64134 0.88971 0.0
C23 C 0.03538 0.54642 0.14179 0.0
C24 C 0.08553 0.43621 0.96497 0.0
C25 C 0.14365 0.44411 0.9441 0.0
C26 C 0.11801 0.39878 0.97201 0.0
C27 C 0.08924 0.39496 0.98256 0.0
C28 C 0.11071 0.48115 0.93541 0.0
C29 C 0.13953 0.48512 0.92516 0.0
C30 C 0.05628 0.43359 0.98226 0.0
C31 C 0.09894 0.61612 0.98451 0.0
H32 H 0.94481 0.71786 0.88629 0.0
H33 H 0.99644 0.72454 0.8861 0.0
H34 H 0.96237 0.58778 0.03038 0.0
H35 H 0.9108 0.58041 0.02953 0.0
H36 H 0.12021 0.36624 0.98592 0.0
H37 H 0.07005 0.36004 0.00553 0.0
H38 H 0.10826 0.5135 0.92183 0.0
H39 H 0.15886 0.52077 0.90463 0.0
Tb40 Tb 0.49756 1.01976 0.98445 0.0
Tb41 Tb 0.57783 0.0786 0.0174 0.0
C42 C 0.53988 0.05782 0.83001 0.0
C43 C 0.40517 0.93243 0.97598 0.0
C44 C 0.34014 0.85826 -0.00571 0.0
C45 C 0.35784 0.8457 0.94796 0.0
C46 C 0.38989 0.88234 0.9387 0.0
C47 C 0.38792 0.94439 0.02537 0.0
C48 C 0.35587 0.90772 0.03477 0.0
C49 C 0.4365 0.97385 0.95152 0.0
O50 O 0.50821 0.96298 0.03406 0.0
O51 O 0.55604 0.99776 0.97989 0.0
O52 O 0.56082 1.04769 0.14117 0.0
O53 O 0.51326 1.0453 0.12255 0.0
O54 O 0.61909 0.08631 0.97843 0.0
O55 O 0.62261 0.12546 0.09815 0.0
O56 O 0.56864 0.13962 0.02971 0.0
O57 O 0.51582 0.09959 0.95925 0.0
O58 O 0.51415 1.02089 0.85998 0.0
O59 O 0.56542 0.09231 0.8831 0.0
C60 C 0.53088 0.95855 0.00842 0.0
O61 O 0.4547 1.01437 0.00493 0.0
O62 O 0.45359 0.96104 0.91479 0.0
C63 C 0.53771 1.04783 0.17349 0.0
C64 C 0.67065 0.15919 0.03368 0.0
C65 C 0.73455 0.23426 0.00824 0.0
C66 C 0.72856 0.20324 0.08078 0.0
C67 C 0.69705 0.16636 0.09333 0.0
C68 C 0.67617 0.19016 0.9614 0.0
C69 C 0.70789 0.22747 0.94885 0.0
C70 C 0.63818 0.1167 0.04667 0.0
C71 C 0.54306 0.14064 -0.00489 0.0
H72 H 0.34665 0.80779 0.91699 0.0
H73 H 0.40225 0.87185 0.89929 0.0
H74 H 0.39871 0.98284 0.05354 0.0
H75 H 0.34293 0.91894 0.07015 0.0
H76 H 0.74829 0.20641 0.12696 0.0
H77 H 0.69332 0.14247 0.149 0.0
H78 H 0.65608 0.18509 0.91435 0.0
H79 H 0.71152 0.25096 0.89275 0.0
Tb80 Tb 0.57666 0.58591 0.03899 0.0
Tb81 Tb 0.49731 0.51124 0.00406 0.0
C82 C 0.53677 0.549 0.19133 0.0
C83 C 0.66524 0.63879 0.04713 0.0
C84 C 0.71976 0.63839 0.01467 0.0
C85 C 0.72161 0.66698 0.08755 0.0
C86 C 0.69464 0.66723 0.10339 0.0
C87 C 0.66295 0.60946 0.97499 0.0
C88 C 0.69003 0.60932 0.9588 0.0
C89 C 0.63758 0.64092 0.06502 0.0
O90 O 0.56545 0.50824 0.06026 0.0
O91 O 0.51503 0.46263 0.97732 0.0
O92 O 0.51246 0.54771 0.88208 0.0
O93 O 0.56165 0.55612 0.90238 0.0
O94 O 0.45447 0.4772 0.05878 0.0
O95 O 0.45371 0.45946 0.92299 0.0
O96 O 0.50571 0.58712 0.02419 0.0
O97 O 0.5604 0.63885 0.01671 0.0
O98 O 0.55895 0.58977 0.15782 0.0
O99 O 0.51567 0.50809 0.14033 0.0
C100 C 0.54136 0.46587 0.0174 0.0
O101 O 0.61959 0.64363 -0.00299 0.0
O102 O 0.6204 0.60935 0.12135 0.0
C103 C 0.53713 0.5527 0.85007 0.0
C104 C 0.40775 0.45567 0.96036 0.0
C105 C 0.35184 0.4602 0.92965 0.0
C106 C 0.38249 0.5043 0.92514 0.0
C107 C 0.41027 0.50205 0.9405 0.0
C108 C 0.37731 0.41157 0.96308 0.0
C109 C 0.34963 0.41375 0.94799 0.0
C110 C 0.43647 0.45283 0.98475 0.0
C111 C 0.53206 0.63239 0.02042 0.0
H112 H 0.74389 0.68894 0.13295 0.0
H113 H 0.69678 0.6898 0.15973 0.0
H114 H 0.64036 0.58705 0.93092 0.0
H115 H 0.68781 0.58714 0.90182 0.0
H116 H 0.38504 0.54057 0.91043 0.0
H117 H 0.43368 0.53656 0.93851 0.0
H118 H 0.375 0.37557 0.97919 0.0
H119 H 0.32659 0.37927 0.95366 0.0
C120 C 0.05687 0.54201 0.66693 0.0
C121 C 1.03356 0.54563 0.70266 0.0
C122 C 0.05734 0.54264 0.57565 0.0
C123 C 1.03371 0.54641 0.51858 0.0
C124 C 1.01001 0.54983 0.55411 0.0
C125 C 1.01032 0.54968 0.64582 0.0
C126 C 0.0832 0.5394 0.54031 0.0
C127 C 0.98423 0.55337 0.49518 0.0
C128 C 0.05136 0.59277 0.28937 0.0
C129 C 0.03486 0.54655 0.23805 0.0
C130 C 0.05117 0.59331 0.38079 0.0
C131 C 1.03376 0.54653 0.42162 0.0
C132 C 1.01678 0.49979 0.37004 0.0
C133 C 1.01769 0.50035 0.27896 0.0
C134 C 0.06985 0.64388 0.43381 0.0
C135 C 0.99767 0.44917 0.41108 0.0
H136 H 0.07503 0.53913 0.71039 0.0
H137 H 0.99216 0.55231 0.67289 0.0
H138 H 0.07194 0.50508 0.49457 0.0
H139 H 0.09727 0.57326 0.5021 0.0
H140 H 0.1001 0.53739 0.59365 0.0
H141 H 0.9674 0.55543 0.53314 0.0
H142 H 0.99554 0.58776 0.45612 0.0
H143 H 0.97007 0.51961 0.44763 0.0
H144 H 0.06475 0.62863 0.25829 0.0
H145 H 1.00467 0.46447 0.23968 0.0
H146 H 0.08832 0.64459 0.48496 0.0
H147 H 0.05339 0.64876 0.46856 0.0
H148 H 0.0821 0.67685 0.39204 0.0
H149 H 1.01392 0.44369 0.46106 0.0
H150 H 0.98515 0.41633 0.36143 0.0
H151 H 0.97938 0.44889 0.44572 0.0
C152 C 0.55877 1.03867 0.32624 0.0
C153 C 0.53906 0.05063 0.27007 0.0
C154 C 0.56012 1.0412 0.41807 0.0
C155 C 0.54171 0.0568 0.45429 0.0
C156 C 0.52223 0.0698 0.39797 0.0
C157 C 0.52095 0.06617 0.30644 0.0
C158 C 0.58078 1.02631 0.47621 0.0
C159 C 0.50257 0.08719 0.43436 0.0
C160 C 0.51777 1.01445 0.67964 0.0
C161 C 0.54053 0.05821 0.73401 0.0
C162 C 0.51818 1.01337 0.58867 0.0
C163 C 0.54165 0.05736 0.55093 0.0
C164 C 0.56462 0.1018 0.60521 0.0
C165 C 0.56393 0.10158 0.69642 0.0
C166 C 0.49352 0.96507 0.53298 0.0
C167 C 0.58973 0.14961 0.56683 0.0
H168 H 0.57277 1.02655 0.29842 0.0
H169 H 0.50597 0.07605 0.26336 0.0
H170 H 0.59844 0.05823 0.52478 0.0
H171 H 0.5654 0.99313 0.51412 0.0
H172 H 0.59414 1.01604 0.43773 0.0
H173 H 0.48992 0.09828 0.38179 0.0
H174 H 0.48431 0.05607 0.4702 0.0
H175 H 0.5184 0.12034 0.48244 0.0
H176 H 0.49978 0.9806 0.70828 0.0
H177 H 0.58152 0.13555 0.73811 0.0
H178 H 0.50588 0.9517 0.49697 0.0
H179 H 0.47843 0.97289 0.48284 0.0
H180 H 0.4774 0.93376 0.57299 0.0
H181 H 0.60473 0.14114 0.53226 0.0
H182 H 0.60583 0.18097 0.61806 0.0
H183 H 0.57773 0.16316 0.51719 0.0
C184 C 0.55948 0.54735 0.71714 0.0
C185 C 0.53676 0.5524 0.75328 0.0
C186 C 0.55912 0.54602 0.62556 0.0
C187 C 0.53569 0.55037 0.56866 0.0
C188 C 0.51279 0.55577 0.60467 0.0
C189 C 0.51349 0.55646 0.69653 0.0
C190 C 0.58379 0.53981 0.58967 0.0
C191 C 0.48766 0.56109 0.54616 0.0
C192 C 0.55456 0.5952 0.33951 0.0
C193 C 0.53607 0.54913 0.28759 0.0
C194 C 0.55433 0.5962 0.43082 0.0
C195 C 0.53544 0.54994 0.47149 0.0
C196 C 0.51669 0.50329 0.41952 0.0
C197 C 0.51709 0.50348 0.32806 0.0
C198 C 0.57439 0.64678 0.48382 0.0
C199 C 0.49648 0.45313 0.46068 0.0
H200 H 0.57745 0.54391 0.76039 0.0
H201 H 0.49591 0.56053 0.72386 0.0
H202 H 0.57142 0.50541 0.54361 0.0
H203 H 0.59871 0.57324 0.55166 0.0
H204 H 0.60004 0.53604 0.6427 0.0
H205 H 0.47163 0.56512 0.58451 0.0
H206 H 0.49962 0.59506 0.50641 0.0
H207 H 0.47257 0.52719 0.49923 0.0
H208 H 0.56913 0.63072 0.30872 0.0
H209 H 0.5028 0.46771 0.28846 0.0
H210 H 0.59259 0.64619 0.53415 0.0
H211 H 0.55878 0.6533 0.51954 0.0
H212 H 0.58713 0.67946 0.44187 0.0
H213 H 0.51213 0.44636 0.51072 0.0
H214 H 0.4832 0.42023 0.4111 0.0
H215 H 0.47876 0.45456 0.49532 0.0
C216 C 0.19149 0.47298 0.86606 0.0
C217 C 0.17482 0.449 0.93697 0.0
C218 C 0.22094 0.47778 0.85906 0.0
C219 C 0.23402 0.45807 0.92444 0.0
C220 C 0.21741 0.43412 -0.00361 0.0
C221 C 0.18809 0.42996 0.00183 0.0
C222 C 0.23795 0.50358 0.78143 0.0
C223 C 0.23057 0.41271 0.06764 0.0
C224 C 0.29288 0.42225 0.87555 0.0
C225 C 0.32232 0.46258 0.91989 0.0
C226 C 0.26413 0.42112 0.8741 0.0
C227 C 0.26479 0.46151 0.91742 0.0
C228 C 0.29461 0.50349 0.95884 0.0
C229 C 0.32299 0.50345 0.95983 0.0
C230 C 0.23285 0.37572 0.82901 0.0
C231 C 0.29635 0.54748 0.00521 0.0
H232 H 0.18127 0.48738 0.81523 0.0
H233 H 0.17571 0.41225 0.05768 0.0
H234 H 0.26278 0.53613 0.80499 0.0
H235 H 0.24015 0.47631 0.74229 0.0
H236 H 0.22501 0.518 0.73741 0.0
H237 H 0.2148 0.39548 0.11946 0.0
H238 H 0.23317 0.38302 0.03823 0.0
H239 H 0.25493 0.4434 0.09928 0.0
H240 H 0.2922 0.39099 0.84305 0.0
H241 H 0.34551 0.53455 -0.00502 0.0
H242 H 0.22004 0.38869 0.78106 0.0
H243 H 0.2168 0.35445 0.87869 0.0
H244 H 0.23669 0.34902 0.79374 0.0
H245 H 0.28394 0.56259 0.96095 0.0
H246 H 0.32163 0.57922 0.02737 0.0
H247 H 0.28372 0.53388 0.06372 0.0
C248 C 0.79257 0.29987 0.06705 0.0
C249 C 0.76855 0.27239 -0.00551 0.0
C250 C 0.82507 0.33303 0.0565 0.0
C251 C 0.83398 0.33972 0.97107 0.0
C252 C 0.80982 0.31327 0.89718 0.0
C253 C 0.77747 0.2798 0.90976 0.0
C254 C 0.84999 0.36049 0.13715 0.0
C255 C 0.81824 0.31986 0.8049 0.0
C256 C 0.9148 0.46046 0.94816 0.0
C257 C 0.93545 0.44209 0.95359 0.0
C258 C 0.8816 0.42739 0.95055 0.0
C259 C 0.86861 0.37451 0.95971 0.0
C260 C 0.88915 0.35547 0.96299 0.0
C261 C 0.92228 0.38943 0.95926 0.0
C262 C 0.86062 0.44936 0.94562 0.0
C263 C 0.87634 0.29946 0.97359 0.0
H264 H 0.78598 0.29537 0.13263 0.0
H265 H 0.75928 0.25848 0.85327 0.0
H266 H 0.86855 0.3505 0.14209 0.0
H267 H 0.86251 0.40245 0.1314 0.0
H268 H 0.8392 0.35075 0.19907 0.0
H269 H 0.79656 0.29805 0.75413 0.0
H270 H 0.83099 0.3609 0.7905 0.0
H271 H 0.83489 0.30681 0.79933 0.0
H272 H 0.92464 0.50099 0.94255 0.0
H273 H 0.93803 0.37491 0.96375 0.0
H274 H 0.85196 0.44614 0.00978 0.0
H275 H 0.83903 0.42744 0.8948 0.0
H276 H 0.87375 0.49025 0.92982 0.0
H277 H 0.86737 0.28835 0.03793 0.0
H278 H 0.89502 0.29027 0.97073 0.0
H279 H 0.85562 0.27582 0.92126 0.0
C280 C 0.51441 0.87457 0.0756 0.0
C281 C 0.52806 0.90835 0.00933 0.0
C282 C 0.51371 0.82846 0.07974 0.0
C283 C 0.52598 0.81501 0.01437 0.0
C284 C 0.53872 0.8483 0.94558 0.0
C285 C 0.54011 0.89484 0.94479 0.0
C286 C 0.50078 0.79493 0.15562 0.0
C287 C 0.55119 0.83498 0.87305 0.0
C288 C 0.55637 0.72527 0.05968 0.0
C289 C 0.52993 0.67847 0.02108 0.0
C290 C 0.55495 0.76941 0.06058 0.0
C291 C 0.52676 0.7673 0.01939 0.0
C292 C 0.49998 0.72007 0.9802 0.0
C293 C 0.5017 0.67609 0.98273 0.0
C294 C 0.58373 0.81845 0.10537 0.0
C295 C 0.46982 0.71629 0.93342 0.0
H296 H 0.50531 0.88505 0.12601 0.0
H297 H 0.55041 0.9206 0.89292 0.0
H298 H 0.48089 0.75586 0.13045 0.0
H299 H 0.52012 0.79142 0.19444 0.0
H300 H 0.4917 0.81032 0.20034 0.0
H301 H 0.55799 0.86295 0.82077 0.0
H302 H 0.57269 0.83387 0.901 0.0
H303 H 0.53258 0.79638 0.84238 0.0
H304 H 0.57812 0.72724 0.09034 0.0
H305 H 0.48125 0.6401 0.95237 0.0
H306 H 0.57612 0.83417 0.15401 0.0
H307 H 0.59426 0.84747 0.05591 0.0
H308 H 0.60284 0.81289 0.13991 0.0
H309 H 0.45976 0.72947 0.97878 0.0
H310 H 0.4509 0.67666 0.90768 0.0
H311 H 0.47583 0.74171 0.87741 0.0
C312 C 0.87672 0.65345 0.88622 0.0
C313 C 0.89285 0.64529 0.96128 0.0
C314 C 0.84771 0.65097 0.88909 0.0
C315 C 0.83467 0.64045 0.96908 0.0
C316 C 0.85073 0.63181 0.04483 0.0
C317 C 0.87956 0.63424 0.03995 0.0
C318 C 0.83113 0.65996 0.80678 0.0
C319 C 0.83777 0.62092 0.13158 0.0
C320 C 0.77928 0.68494 0.01027 0.0
C321 C 0.74887 0.63914 -0.00229 0.0
C322 C 0.80727 0.68602 -0.00045 0.0
C323 C 0.80486 0.64026 0.97489 0.0
C324 C 0.77418 0.59414 0.95959 0.0
C325 C 0.74655 0.59409 0.9714 0.0
C326 C 0.83953 0.736 0.01649 0.0
C327 C 0.77064 0.54461 0.93284 0.0
H328 H 0.88668 0.66138 0.82498 0.0
H329 H 0.89211 0.62854 0.09847 0.0
H330 H 0.80595 0.62685 0.79043 0.0
H331 H 0.82991 0.69404 0.8183 0.0
H332 H 0.84381 0.66598 0.74912 0.0
H333 H 0.85269 0.61372 0.18366 0.0
H334 H 0.837 0.65383 0.15466 0.0
H335 H 0.8127 0.58708 0.12288 0.0
H336 H 0.78124 0.72012 0.02885 0.0
H337 H 0.72323 0.55846 0.96229 0.0
H338 H 0.85196 0.74484 0.95769 0.0
H339 H 0.85521 0.7328 0.0721 0.0
H340 H 0.83718 0.76846 0.03274 0.0
H341 H 0.78235 0.54943 0.87369 0.0
H342 H 0.74495 0.51276 0.91815 0.0
H343 H 0.78301 0.53379 0.98664 0.0
C344 C 0.1477 0.7032 0.96905 0.0
C345 C 0.13446 0.65189 -0.01081 0.0
C346 C 0.18122 0.73684 0.97167 0.0
C347 C 0.20206 0.71872 -0.00581 0.0
C348 C 0.18884 0.66698 0.01451 0.0
C349 C 0.15532 0.63437 0.01226 0.0
C350 C 0.19433 0.79175 0.94978 0.0
C351 C 0.21008 0.64585 0.03782 0.0
C352 C 0.28466 0.79185 0.91878 0.0
C353 C 0.30496 0.82108 -0.0043 0.0
C354 C 0.25125 0.75829 0.91754 0.0
C355 C 0.23763 0.75367 -0.0049 0.0
C356 C 0.25797 0.78263 0.07323 0.0
C357 C 0.29133 0.81599 0.07257 0.0
C358 C 0.23047 0.72823 0.83279 0.0
C359 C 0.24445 0.77856 0.15747 0.0
H360 H 0.13188 0.71721 0.95128 0.0
H361 H 0.14546 0.59481 0.02763 0.0
H362 H 0.21216 0.81781 0.00575 0.0
H363 H 0.20713 0.80047 0.89174 0.0
H364 H 0.17503 0.80013 0.93507 0.0
H365 H 0.19604 0.60471 0.0518 0.0
H366 H 0.22355 0.6504 0.98276 0.0
H367 H 0.22818 0.66762 0.0966 0.0
H368 H 0.2948 0.79609 0.85863 0.0
H369 H 0.30681 0.83798 0.13251 0.0
H370 H 0.21233 0.73845 0.81143 0.0
H371 H 0.21702 0.68669 0.84354 0.0
H372 H 0.24484 0.7354 0.77864 0.0
H373 H 0.22632 0.78951 0.14678 0.0
H374 H 0.26348 0.80335 0.21276 0.0
H375 H 0.2319 0.73839 0.17701 0.0
C376 C 0.53111 0.38815 0.93661 0.0
C377 C 0.54387 0.4203 0.01359 0.0
C378 C 0.53288 0.34442 0.93193 0.0
C379 C 0.54663 0.3313 0.00719 0.0
C380 C 0.55948 0.36368 0.08527 0.0
C381 C 0.55849 0.40827 0.08697 0.0
C382 C 0.51987 0.31213 0.84643 0.0
C383 C 0.57336 0.35038 0.16793 0.0
C384 C 0.51777 0.19007 0.01751 0.0
C385 C 0.54445 0.18965 -0.00181 0.0
C386 C 0.51853 0.23597 0.0229 0.0
C387 C 0.54622 0.28258 0.00519 0.0
C388 C 0.57312 0.28224 0.98439 0.0
C389 C 0.57215 0.23592 0.98288 0.0
C390 C 0.48974 0.23458 0.04831 0.0
C391 C 0.60266 0.33062 0.96207 0.0
H392 H 0.5201 0.39762 0.8794 0.0
H393 H 0.56819 0.43288 0.14679 0.0
H394 H 0.53838 0.30614 0.82663 0.0
H395 H 0.49862 0.27392 0.8554 0.0
H396 H 0.51251 0.32983 0.79197 0.0
H397 H 0.58245 0.37954 0.22312 0.0
H398 H 0.55458 0.31287 0.18909 0.0
H399 H 0.59346 0.34664 0.15473 0.0
H400 H 0.49645 0.15444 0.03048 0.0
H401 H 0.59276 0.23567 0.9675 0.0
H402 H 0.47878 0.24688 -0.00684 0.0
H403 H 0.4975 0.2617 0.10586 0.0
H404 H 0.47093 0.19581 0.06523 0.0
H405 H 0.59571 0.34743 0.90524 0.0
H406 H 0.62121 0.32379 0.94528 0.0
H407 H 0.61357 0.35935 0.01851 0.0
loop_
_geom_bond_atom_site_label_1
_geom_bond_atom_site_label_2
_geom_bond_distance
_geom_bond_site_symmetry_2
_ccdc_geom_bond_type
Tb0 C9 2.764 . S
Tb0 O10 2.325 . S
Tb0 O13 2.290 1_656 S
Tb0 O17 2.322 1_655 S
Tb0 O18 2.349 . S
Tb0 O21 2.415 1_556 S
Tb0 O22 2.399 . S
Tb1 O11 2.322 1_455 S
Tb1 O12 2.349 . S
Tb1 O14 2.415 1_554 S
Tb1 O15 2.399 . S
Tb1 O16 2.325 . S
Tb1 O19 2.303 1_554 S
Tb1 C30 2.764 . S
C2 O18 1.261 . S
C2 O19 1.257 1_655 S
C3 C6 1.358 . S
C3 C7 1.332 1_556 S
C3 C9 1.504 . S
C4 C5 1.373 1_554 S
C4 C8 1.308 . S
C5 C4 1.373 1_556 S
C5 C6 1.429 . S
C5 H32 0.932 . S
C6 C3 1.358 . S
C6 C5 1.429 . S
C6 H33 0.930 . S
C7 C3 1.332 1_554 S
C7 C8 1.394 . S
C7 H34 0.932 . S
C8 C4 1.308 . S
C8 C7 1.394 . S
C8 H35 0.929 . S
C9 Tb0 2.764 . S
C9 C3 1.504 . S
C9 O21 1.239 1_556 S
C9 O22 1.263 . S
O10 Tb0 2.325 . S
O10 C20 1.236 . S
O11 Tb1 2.322 1_655 S
O11 C20 1.257 1_554 S
O12 Tb1 2.349 . S
O12 C23 1.261 . S
O13 Tb0 2.290 1_454 S
O13 C23 1.268 . S
O14 Tb1 2.415 1_556 S
O14 C30 1.239 1_556 S
O15 Tb1 2.399 . S
O15 C30 1.263 . S
O16 Tb1 2.325 . S
O16 C31 1.236 . S
O17 Tb0 2.322 1_455 S
O17 C31 1.257 1_556 S
O18 Tb0 2.349 . S
O18 C2 1.261 . S
O19 Tb1 2.303 1_556 S
O19 C2 1.257 1_455 S
C20 O10 1.236 . S
C20 O11 1.257 1_556 S
O21 Tb0 2.415 1_554 S
O21 C9 1.239 1_554 S
O22 Tb0 2.399 . S
O22 C9 1.263 . S
C23 O12 1.261 . S
C23 O13 1.268 . S
C24 C27 1.358 . S
C24 C28 1.332 1_554 S
C24 C30 1.504 . S
C25 C26 1.373 1_556 S
C25 C29 1.308 . S
C26 C25 1.373 1_554 S
C26 C27 1.429 . S
C26 H36 0.932 . S
C27 C24 1.358 . S
C27 C26 1.429 . S
C27 H37 0.930 . S
C28 C24 1.332 1_556 S
C28 C29 1.394 . S
C28 H38 0.932 . S
C29 C25 1.308 . S
C29 C28 1.394 . S
C29 H39 0.929 . S
C30 Tb1 2.764 . S
C30 O14 1.239 1_554 S
C30 O15 1.263 . S
C30 C24 1.504 . S
C31 O16 1.236 . S
C31 O17 1.257 1_554 S
H32 C5 0.932 . S
H33 C6 0.930 . S
H34 C7 0.932 . S
H35 C8 0.929 . S
H36 C26 0.932 . S
H37 C27 0.930 . S
H38 C28 0.932 . S
H39 C29 0.929 . S
Tb40 C49 2.764 . S
Tb40 O50 2.325 . S
Tb40 O53 2.303 1_556 S
Tb40 O57 2.322 1_565 S
Tb40 O58 2.349 . S
Tb40 O61 2.415 1_556 S
Tb40 O62 2.399 . S
Tb41 O51 2.322 1_545 S
Tb41 O52 2.349 . S
Tb41 O54 2.415 1_554 S
Tb41 O55 2.399 . S
Tb41 O56 2.325 . S
Tb41 O59 2.303 1_554 S
Tb41 C70 2.764 . S
C42 O58 1.261 . S
C42 O59 1.257 1_565 S
C43 C46 1.358 . S
C43 C47 1.332 1_556 S
C43 C49 1.504 . S
C44 C45 1.373 . S
C44 C48 1.308 1_556 S
C45 C44 1.373 . S
C45 C46 1.429 . S
C45 H72 0.932 . S
C46 C43 1.358 . S
C46 C45 1.429 . S
C46 H73 0.930 . S
C47 C43 1.332 1_554 S
C47 C48 1.394 . S
C47 H74 0.932 . S
C48 C44 1.308 1_554 S
C48 C47 1.394 . S
C48 H75 0.929 . S
C49 Tb40 2.764 . S
C49 C43 1.504 . S
C49 O61 1.239 1_556 S
C49 O62 1.263 . S
O50 Tb40 2.325 . S
O50 C60 1.236 1_556 S
O51 Tb41 2.322 1_565 S
O51 C60 1.257 . S
O52 Tb41 2.349 . S
O52 C63 1.261 . S
O53 Tb40 2.303 1_554 S
O53 C63 1.257 1_565 S
O54 Tb41 2.415 1_556 S
O54 C70 1.239 1_556 S
O55 Tb41 2.399 . S
O55 C70 1.263 . S
O56 Tb41 2.325 . S
O56 C71 1.236 1_554 S
O57 Tb40 2.322 1_545 S
O57 C71 1.257 . S
O58 Tb40 2.349 . S
O58 C42 1.261 . S
O59 Tb41 2.303 1_556 S
O59 C42 1.257 1_545 S
C60 O50 1.236 1_554 S
C60 O51 1.257 . S
O61 Tb40 2.415 1_554 S
O61 C49 1.239 1_554 S
O62 Tb40 2.399 . S
O62 C49 1.263 . S
C63 O52 1.261 . S
C63 O53 1.257 1_545 S
C64 C67 1.358 . S
C64 C68 1.332 1_554 S
C64 C70 1.504 . S
C65 C66 1.373 . S
C65 C69 1.308 1_554 S
C66 C65 1.373 . S
C66 C67 1.429 . S
C66 H76 0.932 . S
C67 C64 1.358 . S
C67 C66 1.429 . S
C67 H77 0.930 . S
C68 C64 1.332 1_556 S
C68 C69 1.394 . S
C68 H78 0.932 . S
C69 C65 1.308 1_556 S
C69 C68 1.394 . S
C69 H79 0.929 . S
C70 Tb41 2.764 . S
C70 O54 1.239 1_554 S
C70 O55 1.263 . S
C70 C64 1.504 . S
C71 O56 1.236 1_556 S
C71 O57 1.257 . S
H72 C45 0.932 . S
H73 C46 0.930 . S
H74 C47 0.932 . S
H75 C48 0.929 . S
H76 C66 0.932 . S
H77 C67 0.930 . S
H78 C68 0.932 . S
H79 C69 0.929 . S
Tb80 C89 2.764 . S
Tb80 O90 2.325 . S
Tb80 O93 2.303 1_554 S
Tb80 O97 2.322 . S
Tb80 O98 2.349 . S
Tb80 O101 2.415 1_554 S
Tb80 O102 2.399 . S
Tb81 O91 2.322 . S
Tb81 O92 2.349 . S
Tb81 O94 2.415 1_556 S
Tb81 O95 2.399 . S
Tb81 O96 2.325 . S
Tb81 O99 2.303 1_556 S
Tb81 C110 2.764 . S
C82 O98 1.261 . S
C82 O99 1.257 . S
C83 C86 1.358 . S
C83 C87 1.332 1_554 S
C83 C89 1.504 . S
C84 C85 1.373 . S
C84 C88 1.308 1_554 S
C85 C84 1.373 . S
C85 C86 1.429 . S
C85 H112 0.932 . S
C86 C83 1.358 . S
C86 C85 1.429 . S
C86 H113 0.930 . S
C87 C83 1.332 1_556 S
C87 C88 1.394 . S
C87 H114 0.932 . S
C88 C84 1.308 1_556 S
C88 C87 1.394 . S
C88 H115 0.929 . S
C89 Tb80 2.764 . S
C89 C83 1.504 . S
C89 O101 1.239 1_554 S
C89 O102 1.263 . S
O90 Tb80 2.325 . S
O90 C100 1.236 1_554 S
O91 Tb81 2.322 . S
O91 C100 1.257 . S
O92 Tb81 2.349 . S
O92 C103 1.261 . S
O93 Tb80 2.303 1_556 S
O93 C103 1.257 . S
O94 Tb81 2.415 1_554 S
O94 C110 1.239 1_554 S
O95 Tb81 2.399 . S
O95 C110 1.263 . S
O96 Tb81 2.325 . S
O96 C111 1.236 1_556 S
O97 Tb80 2.322 . S
O97 C111 1.257 . S
O98 Tb80 2.349 . S
O98 C82 1.261 . S
O99 Tb81 2.303 1_554 S
O99 C82 1.257 . S
C100 O90 1.236 1_556 S
C100 O91 1.257 . S
O101 Tb80 2.415 1_556 S
O101 C89 1.239 1_556 S
O102 Tb80 2.399 . S
O102 C89 1.263 . S
C103 O92 1.261 . S
C103 O93 1.257 . S
C104 C107 1.358 . S
C104 C108 1.332 1_556 S
C104 C110 1.504 . S
C105 C106 1.373 . S
C105 C109 1.308 1_556 S
C106 C105 1.373 . S
C106 C107 1.429 . S
C106 H116 0.932 . S
C107 C104 1.358 . S
C107 C106 1.429 . S
C107 H117 0.930 . S
C108 C104 1.332 1_554 S
C108 C109 1.394 . S
C108 H118 0.932 . S
C109 C105 1.308 1_554 S
C109 C108 1.394 . S
C109 H119 0.929 . S
C110 Tb81 2.764 . S
C110 O94 1.239 1_556 S
C110 O95 1.263 . S
C110 C104 1.504 . S
C111 O96 1.236 1_554 S
C111 O97 1.257 . S
H112 C85 0.932 . S
H113 C86 0.930 . S
H114 C87 0.932 . S
H115 C88 0.929 . S
H116 C106 0.932 . S
H117 C107 0.930 . S
H118 C108 0.932 . S
H119 C109 0.929 . S
C120 C121 1.373 1_455 S
C120 C122 1.394 . S
C120 H136 0.931 . S
C121 C120 1.373 1_655 S
C121 C125 1.392 . S
C122 C120 1.394 . S
C122 C123 1.369 1_455 S
C122 C126 1.531 . S
C123 C122 1.369 1_655 S
C123 C124 1.410 . S
C123 C131 1.503 . S
C124 C123 1.410 . S
C124 C125 1.392 . S
C124 C127 1.511 . S
C125 C121 1.392 . S
C125 C124 1.392 . S
C125 H137 0.929 . S
C126 C122 1.531 . S
C126 H138 0.960 . S
C126 H139 0.962 . S
C126 H140 0.960 . S
C127 C124 1.511 . S
C127 H141 0.961 . S
C127 H142 0.961 . S
C127 H143 0.961 . S
C128 C129 1.370 . S
C128 C130 1.363 . S
C128 H144 0.931 . S
C129 C128 1.370 . S
C129 C133 1.408 1_455 S
C130 C128 1.363 . S
C130 C131 1.370 1_455 S
C130 C134 1.524 . S
C131 C123 1.503 . S
C131 C130 1.370 1_655 S
C131 C132 1.403 . S
C132 C131 1.403 . S
C132 C133 1.404 . S
C132 C135 1.539 . S
C133 C129 1.408 1_655 S
C133 C132 1.404 . S
C133 H145 0.930 . S
C134 C130 1.524 . S
C134 H146 0.956 . S
C134 H147 0.961 . S
C134 H148 0.961 . S
C135 C132 1.539 . S
C135 H149 0.958 . S
C135 H150 0.961 . S
C135 H151 0.960 . S
H136 C120 0.931 . S
H137 C125 0.929 . S
H138 C126 0.960 . S
H139 C126 0.962 . S
H140 C126 0.960 . S
H141 C127 0.961 . S
H142 C127 0.961 . S
H143 C127 0.961 . S
H144 C128 0.931 . S
H145 C133 0.930 . S
H146 C134 0.956 . S
H147 C134 0.961 . S
H148 C134 0.961 . S
H149 C135 0.958 . S
H150 C135 0.961 . S
H151 C135 0.960 . S
C152 C153 1.388 1_545 S
C152 C154 1.394 . S
C152 H168 0.931 . S
C153 C152 1.388 1_565 S
C153 C157 1.375 . S
C154 C152 1.394 . S
C154 C155 1.369 . S
C154 C158 1.531 . S
C155 C154 1.369 . S
C155 C156 1.410 1_545 S
C155 C163 1.503 . S
C156 C155 1.410 1_565 S
C156 C157 1.392 . S
C156 C159 1.511 . S
C157 C153 1.375 . S
C157 C156 1.392 . S
C157 H169 0.929 . S
C158 C154 1.531 . S
C158 H170 0.960 . S
C158 H171 0.962 . S
C158 H172 0.960 . S
C159 C156 1.511 . S
C159 H173 0.961 . S
C159 H174 0.961 . S
C159 H175 0.961 . S
C160 C161 1.370 1_565 S
C160 C162 1.363 . S
C160 H176 0.931 . S
C161 C160 1.370 1_545 S
C161 C165 1.408 . S
C162 C160 1.363 . S
C162 C163 1.370 1_565 S
C162 C166 1.524 . S
C163 C155 1.503 . S
C163 C162 1.370 1_545 S
C163 C164 1.403 . S
C164 C163 1.403 . S
C164 C165 1.404 . S
C164 C167 1.539 . S
C165 C161 1.408 . S
C165 C164 1.404 . S
C165 H177 0.930 . S
C166 C162 1.524 . S
C166 H178 0.956 . S
C166 H179 0.961 . S
C166 H180 0.961 . S
C167 C164 1.539 . S
C167 H181 0.958 . S
C167 H182 0.961 . S
C167 H183 0.960 . S
H168 C152 0.931 . S
H169 C157 0.929 . S
H170 C158 0.960 . S
H171 C158 0.962 . S
H172 C158 0.960 . S
H173 C159 0.961 . S
H174 C159 0.961 . S
H175 C159 0.961 . S
H176 C160 0.931 . S
H177 C165 0.930 . S
H178 C166 0.956 . S
H179 C166 0.961 . S
H180 C166 0.961 . S
H181 C167 0.958 . S
H182 C167 0.961 . S
H183 C167 0.960 . S
C184 C185 1.391 . S
C184 C186 1.394 . S
C184 H200 0.931 . S
C185 C184 1.391 . S
C185 C189 1.376 . S
C186 C184 1.394 . S
C186 C187 1.369 . S
C186 C190 1.531 . S
C187 C186 1.369 . S
C187 C188 1.410 . S
C187 C195 1.503 . S
C188 C187 1.410 . S
C188 C189 1.392 . S
C188 C191 1.511 . S
C189 C185 1.376 . S
C189 C188 1.392 . S
C189 H201 0.929 . S
C190 C186 1.531 . S
C190 H202 0.960 . S
C190 H203 0.962 . S
C190 H204 0.960 . S
C191 C188 1.511 . S
C191 H205 0.961 . S
C191 H206 0.961 . S
C191 H207 0.961 . S
C192 C193 1.370 . S
C192 C194 1.363 . S
C192 H208 0.931 . S
C193 C192 1.370 . S
C193 C197 1.408 . S
C194 C192 1.363 . S
C194 C195 1.370 . S
C194 C198 1.524 . S
C195 C187 1.503 . S
C195 C194 1.370 . S
C195 C196 1.403 . S
C196 C195 1.403 . S
C196 C197 1.404 . S
C196 C199 1.539 . S
C197 C193 1.408 . S
C197 C196 1.404 . S
C197 H209 0.930 . S
C198 C194 1.524 . S
C198 H210 0.956 . S
C198 H211 0.961 . S
C198 H212 0.961 . S
C199 C196 1.539 . S
C199 H213 0.958 . S
C199 H214 0.961 . S
C199 H215 0.960 . S
H200 C184 0.931 . S
H201 C189 0.929 . S
H202 C190 0.960 . S
H203 C190 0.962 . S
H204 C190 0.960 . S
H205 C191 0.961 . S
H206 C191 0.961 . S
H207 C191 0.961 . S
H208 C192 0.931 . S
H209 C197 0.930 . S
H210 C198 0.956 . S
H211 C198 0.961 . S
H212 C198 0.961 . S
H213 C199 0.958 . S
H214 C199 0.961 . S
H215 C199 0.960 . S
C216 C217 1.391 . S
C216 C218 1.394 . S
C216 H232 0.931 . S
C217 C216 1.391 . S
C217 C221 1.376 1_556 S
C218 C216 1.394 . S
C218 C219 1.369 . S
C218 C222 1.531 . S
C219 C218 1.369 . S
C219 C220 1.410 1_556 S
C219 C227 1.503 . S
C220 C219 1.410 1_554 S
C220 C221 1.392 . S
C220 C223 1.511 . S
C221 C217 1.376 1_554 S
C221 C220 1.392 . S
C221 H233 0.929 . S
C222 C218 1.531 . S
C222 H234 0.960 . S
C222 H235 0.962 . S
C222 H236 0.960 . S
C223 C220 1.511 . S
C223 H237 0.961 . S
C223 H238 0.961 . S
C223 H239 0.961 . S
C224 C225 1.370 1_554 S
C224 C226 1.363 . S
C224 H240 0.931 . S
C225 C224 1.370 1_556 S
C225 C229 1.408 . S
C226 C224 1.363 . S
C226 C227 1.370 1_554 S
C226 C230 1.524 . S
C227 C219 1.503 . S
C227 C226 1.370 1_556 S
C227 C228 1.403 . S
C228 C227 1.403 . S
C228 C229 1.404 . S
C228 C231 1.539 . S
C229 C225 1.408 . S
C229 C228 1.404 . S
C229 H241 0.930 . S
C230 C226 1.524 . S
C230 H242 0.956 . S
C230 H243 0.961 . S
C230 H244 0.961 . S
C231 C228 1.539 . S
C231 H245 0.958 . S
C231 H246 0.961 . S
C231 H247 0.960 . S
H232 C216 0.931 . S
H233 C221 0.929 . S
H234 C222 0.960 . S
H235 C222 0.962 . S
H236 C222 0.960 . S
H237 C223 0.961 . S
H238 C223 0.961 . S
H239 C223 0.961 . S
H240 C224 0.931 . S
H241 C229 0.930 . S
H242 C230 0.956 . S
H243 C230 0.961 . S
H244 C230 0.961 . S
H245 C231 0.958 . S
H246 C231 0.961 . S
H247 C231 0.960 . S
C248 C249 1.391 . S
C248 C250 1.394 . S
C248 H264 0.931 . S
C249 C248 1.391 . S
C249 C253 1.376 1_554 S
C250 C248 1.394 . S
C250 C251 1.369 . S
C250 C254 1.531 . S
C251 C250 1.369 . S
C251 C252 1.410 1_554 S
C251 C259 1.503 . S
C252 C251 1.410 1_556 S
C252 C253 1.392 . S
C252 C255 1.511 . S
C253 C249 1.376 1_556 S
C253 C252 1.392 . S
C253 H265 0.929 . S
C254 C250 1.531 . S
C254 H266 0.960 . S
C254 H267 0.962 . S
C254 H268 0.960 . S
C255 C252 1.511 . S
C255 H269 0.961 . S
C255 H270 0.961 . S
C255 H271 0.961 1_556 S
C256 C257 1.369 1_556 S
C256 C258 1.363 . S
C256 H272 0.931 . S
C257 C256 1.369 1_554 S
C257 C261 1.410 . S
C258 C256 1.363 . S
C258 C259 1.370 1_556 S
C258 C262 1.524 . S
C259 C251 1.503 . S
C259 C258 1.370 1_554 S
C259 C260 1.403 . S
C260 C259 1.403 . S
C260 C261 1.404 . S
C260 C263 1.539 . S
C261 C257 1.410 . S
C261 C260 1.404 . S
C261 H273 0.930 . S
C262 C258 1.524 . S
C262 H274 0.956 . S
C262 H275 0.961 . S
C262 H276 0.961 . S
C263 C260 1.539 . S
C263 H277 0.958 . S
C263 H278 0.961 . S
C263 H279 0.960 . S
H264 C248 0.931 . S
H265 C253 0.929 . S
H266 C254 0.960 . S
H267 C254 0.962 . S
H268 C254 0.960 . S
H269 C255 0.961 . S
H270 C255 0.961 . S
H271 C255 0.961 1_554 S
H272 C256 0.931 . S
H273 C261 0.930 . S
H274 C262 0.956 . S
H275 C262 0.961 . S
H276 C262 0.961 . S
H277 C263 0.958 . S
H278 C263 0.961 . S
H279 C263 0.960 . S
C280 C281 1.391 . S
C280 C282 1.394 . S
C280 H296 0.931 . S
C281 C280 1.391 . S
C281 C285 1.376 1_554 S
C282 C280 1.394 . S
C282 C283 1.369 1_554 S
C282 C286 1.531 . S
C283 C282 1.369 1_556 S
C283 C284 1.410 . S
C283 C291 1.503 1_556 S
C284 C283 1.410 . S
C284 C285 1.392 . S
C284 C287 1.511 . S
C285 C281 1.376 1_556 S
C285 C284 1.392 . S
C285 H297 0.929 . S
C286 C282 1.531 . S
C286 H298 0.960 . S
C286 H299 0.962 . S
C286 H300 0.960 . S
C287 C284 1.511 . S
C287 H301 0.961 . S
C287 H302 0.961 . S
C287 H303 0.961 . S
C288 C289 1.370 . S
C288 C290 1.363 . S
C288 H304 0.931 . S
C289 C288 1.370 . S
C289 C293 1.408 1_554 S
C290 C288 1.363 . S
C290 C291 1.377 . S
C290 C294 1.524 . S
C291 C283 1.503 1_554 S
C291 C290 1.377 . S
C291 C292 1.396 1_554 S
C292 C291 1.396 1_556 S
C292 C293 1.404 . S
C292 C295 1.539 . S
C293 C289 1.408 1_556 S
C293 C292 1.404 . S
C293 H305 0.930 . S
C294 C290 1.524 . S
C294 H306 0.956 . S
C294 H307 0.961 . S
C294 H308 0.961 . S
C295 C292 1.539 . S
C295 H309 0.958 . S
C295 H310 0.961 . S
C295 H311 0.960 . S
H296 C280 0.931 . S
H297 C285 0.929 . S
H298 C286 0.960 . S
H299 C286 0.962 . S
H300 C286 0.960 . S
H301 C287 0.961 . S
H302 C287 0.961 . S
H303 C287 0.961 . S
H304 C288 0.931 . S
H305 C293 0.930 . S
H306 C294 0.956 . S
H307 C294 0.961 . S
H308 C294 0.961 . S
H309 C295 0.958 . S
H310 C295 0.961 . S
H311 C295 0.960 . S
C312 C313 1.391 1_556 S
C312 C314 1.394 . S
C312 H328 0.931 . S
C313 C312 1.391 1_554 S
C313 C317 1.376 . S
C314 C312 1.394 . S
C314 C315 1.372 . S
C314 C318 1.531 . S
C315 C314 1.372 . S
C315 C316 1.407 1_556 S
C315 C323 1.503 1_556 S
C316 C315 1.407 1_554 S
C316 C317 1.392 . S
C316 C319 1.511 . S
C317 C313 1.376 . S
C317 C316 1.392 . S
C317 H329 0.929 . S
C318 C314 1.531 . S
C318 H330 0.960 . S
C318 H331 0.962 . S
C318 H332 0.960 . S
C319 C316 1.511 . S
C319 H333 0.961 . S
C319 H334 0.961 . S
C319 H335 0.961 . S
C320 C321 1.370 . S
C320 C322 1.363 . S
C320 H336 0.931 . S
C321 C320 1.370 . S
C321 C325 1.408 1_554 S
C322 C320 1.363 . S
C322 C323 1.370 . S
C322 C326 1.524 . S
C323 C315 1.503 1_554 S
C323 C322 1.370 . S
C323 C324 1.403 1_554 S
C324 C323 1.403 1_556 S
C324 C325 1.404 . S
C324 C327 1.539 . S
C325 C321 1.408 1_556 S
C325 C324 1.404 . S
C325 H337 0.930 . S
C326 C322 1.524 . S
C326 H338 0.956 . S
C326 H339 0.961 . S
C326 H340 0.961 . S
C327 C324 1.539 . S
C327 H341 0.958 . S
C327 H342 0.961 . S
C327 H343 0.960 . S
H328 C312 0.931 . S
H329 C317 0.929 . S
H330 C318 0.960 . S
H331 C318 0.962 . S
H332 C318 0.960 . S
H333 C319 0.961 . S
H334 C319 0.961 . S
H335 C319 0.961 . S
H336 C320 0.931 . S
H337 C325 0.930 . S
H338 C326 0.956 . S
H339 C326 0.961 . S
H340 C326 0.961 . S
H341 C327 0.958 . S
H342 C327 0.961 . S
H343 C327 0.960 . S
C344 C345 1.391 . S
C344 C346 1.394 . S
C344 H360 0.931 . S
C345 C344 1.391 . S
C345 C349 1.376 1_554 S
C346 C344 1.394 . S
C346 C347 1.369 . S
C346 C350 1.531 . S
C347 C346 1.369 . S
C347 C348 1.410 1_554 S
C347 C355 1.503 . S
C348 C347 1.410 1_556 S
C348 C349 1.392 . S
C348 C351 1.511 . S
C349 C345 1.376 1_556 S
C349 C348 1.392 . S
C349 H361 0.929 . S
C350 C346 1.531 . S
C350 H362 0.960 . S
C350 H363 0.962 . S
C350 H364 0.960 . S
C351 C348 1.511 . S
C351 H365 0.961 . S
C351 H366 0.961 . S
C351 H367 0.961 . S
C352 C353 1.370 1_556 S
C352 C354 1.363 . S
C352 H368 0.931 . S
C353 C352 1.370 1_554 S
C353 C357 1.409 . S
C354 C352 1.363 . S
C354 C355 1.370 1_556 S
C354 C358 1.524 . S
C355 C347 1.503 . S
C355 C354 1.370 1_554 S
C355 C356 1.403 . S
C356 C355 1.403 . S
C356 C357 1.404 . S
C356 C359 1.539 . S
C357 C353 1.409 . S
C357 C356 1.404 . S
C357 H369 0.930 . S
C358 C354 1.524 . S
C358 H370 0.956 . S
C358 H371 0.961 . S
C358 H372 0.961 . S
C359 C356 1.539 . S
C359 H373 0.958 . S
C359 H374 0.961 . S
C359 H375 0.960 . S
H360 C344 0.931 . S
H361 C349 0.929 . S
H362 C350 0.960 . S
H363 C350 0.962 . S
H364 C350 0.960 . S
H365 C351 0.961 . S
H366 C351 0.961 . S
H367 C351 0.961 . S
H368 C352 0.931 . S
H369 C357 0.930 . S
H370 C358 0.956 . S
H371 C358 0.961 . S
H372 C358 0.961 . S
H373 C359 0.958 . S
H374 C359 0.961 . S
H375 C359 0.960 . S
C376 C377 1.391 . S
C376 C378 1.394 . S
C376 H392 0.931 . S
C377 C376 1.391 . S
C377 C381 1.376 1_556 S
C378 C376 1.394 . S
C378 C379 1.369 . S
C378 C382 1.531 . S
C379 C378 1.369 . S
C379 C380 1.410 1_556 S
C379 C387 1.503 . S
C380 C379 1.410 1_554 S
C380 C381 1.392 . S
C380 C383 1.511 . S
C381 C377 1.376 1_554 S
C381 C380 1.392 . S
C381 H393 0.929 . S
C382 C378 1.531 . S
C382 H394 0.960 . S
C382 H395 0.962 . S
C382 H396 0.960 . S
C383 C380 1.511 . S
C383 H397 0.961 . S
C383 H398 0.961 . S
C383 H399 0.961 . S
C384 C385 1.370 1_554 S
C384 C386 1.363 . S
C384 H400 0.931 . S
C385 C384 1.370 1_556 S
C385 C389 1.408 . S
C386 C384 1.363 . S
C386 C387 1.370 1_554 S
C386 C390 1.524 . S
C387 C379 1.503 . S
C387 C386 1.370 1_556 S
C387 C388 1.403 . S
C388 C387 1.403 . S
C388 C389 1.404 . S
C388 C391 1.539 . S
C389 C385 1.408 . S
C389 C388 1.404 . S
C389 H401 0.930 . S
C390 C386 1.524 . S
C390 H402 0.956 . S
C390 H403 0.961 . S
C390 H404 0.961 . S
C391 C388 1.539 . S
C391 H405 0.958 . S
C391 H406 0.961 . S
C391 H407 0.960 . S
H392 C376 0.931 . S
H393 C381 0.929 . S
H394 C382 0.960 . S
H395 C382 0.962 . S
H396 C382 0.960 . S
H397 C383 0.961 . S
H398 C383 0.961 . S
H399 C383 0.961 . S
H400 C384 0.931 . S
H401 C389 0.930 . S
H402 C390 0.956 . S
H403 C390 0.961 . S
H404 C390 0.961 . S
H405 C391 0.958 . S
H406 C391 0.961 . S
H407 C391 0.960 . S
C121 C2 1.462 . S
C129 C23 1.467 . S
C153 C63 1.467 1_565 S
C161 C42 1.475 1_545 S
C185 C103 1.455 . S
C193 C82 1.477 . S
C217 C25 0.722 . S
C225 C105 0.758 . S
C249 C65 1.797 . S
C257 C20 1.809 1_554 S
C281 C60 2.498 . S
C289 C111 2.525 . S
C313 C4 0.715 . S
C321 C84 0.757 . S
C345 C31 1.788 . S
C353 C44 1.808 1_554 S
C377 C100 2.525 . S
C385 C71 2.510 . S
