# Generated by pormake.
# Topology unn, (4)-cn, num edge types: 1
# Building blocks:
#     Node 0, Type 0, BuildingBlock: KOZSID_clean_sbu_0, # of connection points: 4
#     Node 1, Type 0, BuildingBlock: KOZSID_clean_sbu_0, # of connection points: 4
#     Node 2, Type 0, BuildingBlock: KOZSID_clean_sbu_0, # of connection points: 4
#     Node 3, Type 0, BuildingBlock: KOZSID_clean_sbu_0, # of connection points: 4
#     Node 4, Type 0, BuildingBlock: KOZSID_clean_sbu_0, # of connection points: 4
#     Node 5, Type 0, BuildingBlock: KOZSID_clean_sbu_0, # of connection points: 4
#     Node 6, Type 0, BuildingBlock: KOZSID_clean_sbu_0, # of connection points: 4
#     Node 7, Type 0, BuildingBlock: KOZSID_clean_sbu_0, # of connection points: 4
#     Node 8, Type 0, BuildingBlock: KOZSID_clean_sbu_0, # of connection points: 4
#     Node 9, Type 0, BuildingBlock: KOZSID_clean_sbu_0, # of connection points: 4
#     Node 10, Type 0, BuildingBlock: KOZSID_clean_sbu_0, # of connection points: 4
#     Node 11, Type 0, BuildingBlock: KOZSID_clean_sbu_0, # of connection points: 4
#     Node 12, Type 0, BuildingBlock: KOZSID_clean_sbu_0, # of connection points: 4
#     Node 13, Type 0, BuildingBlock: KOZSID_clean_sbu_0, # of connection points: 4
#     Node 14, Type 0, BuildingBlock: KOZSID_clean_sbu_0, # of connection points: 4
#     Node 15, Type 0, BuildingBlock: KOZSID_clean_sbu_0, # of connection points: 4
#     Node 16, Type 0, BuildingBlock: KOZSID_clean_sbu_0, # of connection points: 4
#     Node 17, Type 0, BuildingBlock: KOZSID_clean_sbu_0, # of connection points: 4
#     Edge 18, Type (0, 0), BuildingBlock: ZUJKAS_clean_linker_0, # of connection points: 2
#     Edge 19, Type (0, 0), BuildingBlock: ZUJKAS_clean_linker_0, # of connection points: 2
#     Edge 20, Type (0, 0), BuildingBlock: ZUJKAS_clean_linker_0, # of connection points: 2
#     Edge 21, Type (0, 0), BuildingBlock: ZUJKAS_clean_linker_0, # of connection points: 2
#     Edge 22, Type (0, 0), BuildingBlock: ZUJKAS_clean_linker_0, # of connection points: 2
#     Edge 23, Type (0, 0), BuildingBlock: ZUJKAS_clean_linker_0, # of connection points: 2
#     Edge 24, Type (0, 0), BuildingBlock: ZUJKAS_clean_linker_0, # of connection points: 2
#     Edge 25, Type (0, 0), BuildingBlock: ZUJKAS_clean_linker_0, # of connection points: 2
#     Edge 26, Type (0, 0), BuildingBlock: ZUJKAS_clean_linker_0, # of connection points: 2
#     Edge 27, Type (0, 0), BuildingBlock: ZUJKAS_clean_linker_0, # of connection points: 2
#     Edge 28, Type (0, 0), BuildingBlock: ZUJKAS_clean_linker_0, # of connection points: 2
#     Edge 29, Type (0, 0), BuildingBlock: ZUJKAS_clean_linker_0, # of connection points: 2
#     Edge 30, Type (0, 0), BuildingBlock: ZUJKAS_clean_linker_0, # of connection points: 2
#     Edge 31, Type (0, 0), BuildingBlock: ZUJKAS_clean_linker_0, # of connection points: 2
#     Edge 32, Type (0, 0), BuildingBlock: ZUJKAS_clean_linker_0, # of connection points: 2
#     Edge 33, Type (0, 0), BuildingBlock: ZUJKAS_clean_linker_0, # of connection points: 2
#     Edge 34, Type (0, 0), BuildingBlock: ZUJKAS_clean_linker_0, # of connection points: 2
#     Edge 35, Type (0, 0), BuildingBlock: ZUJKAS_clean_linker_0, # of connection points: 2
#     Edge 36, Type (0, 0), BuildingBlock: ZUJKAS_clean_linker_0, # of connection points: 2
#     Edge 37, Type (0, 0), BuildingBlock: ZUJKAS_clean_linker_0, # of connection points: 2
#     Edge 38, Type (0, 0), BuildingBlock: ZUJKAS_clean_linker_0, # of connection points: 2
#     Edge 39, Type (0, 0), BuildingBlock: ZUJKAS_clean_linker_0, # of connection points: 2
#     Edge 40, Type (0, 0), BuildingBlock: ZUJKAS_clean_linker_0, # of connection points: 2
#     Edge 41, Type (0, 0), BuildingBlock: ZUJKAS_clean_linker_0, # of connection points: 2
#     Edge 42, Type (0, 0), BuildingBlock: ZUJKAS_clean_linker_0, # of connection points: 2
#     Edge 43, Type (0, 0), BuildingBlock: ZUJKAS_clean_linker_0, # of connection points: 2
#     Edge 44, Type (0, 0), BuildingBlock: ZUJKAS_clean_linker_0, # of connection points: 2
#     Edge 45, Type (0, 0), BuildingBlock: ZUJKAS_clean_linker_0, # of connection points: 2
#     Edge 46, Type (0, 0), BuildingBlock: ZUJKAS_clean_linker_0, # of connection points: 2
#     Edge 47, Type (0, 0), BuildingBlock: ZUJKAS_clean_linker_0, # of connection points: 2
#     Edge 48, Type (0, 0), BuildingBlock: ZUJKAS_clean_linker_0, # of connection points: 2
#     Edge 49, Type (0, 0), BuildingBlock: ZUJKAS_clean_linker_0, # of connection points: 2
#     Edge 50, Type (0, 0), BuildingBlock: ZUJKAS_clean_linker_0, # of connection points: 2
#     Edge 51, Type (0, 0), BuildingBlock: ZUJKAS_clean_linker_0, # of connection points: 2
#     Edge 52, Type (0, 0), BuildingBlock: ZUJKAS_clean_linker_0, # of connection points: 2
#     Edge 53, Type (0, 0), BuildingBlock: ZUJKAS_clean_linker_0, # of connection points: 2
# Relax obj value: 0.026
# Max RMSD: 0.224
# Mean RMSD: 0.204
data_MOF--net-unn--node1-KOZSID_clean_sbu_0--edge1-ZUJKAS_clean_linker_0
_symmetry_space_group_name_H-M    P1
_symmetry_Int_Tables_number       1
_symmetry_cell_setting            triclinic
loop_
_symmetry_equiv_pos_as_xyz
'x, y, z'
_cell_length_a     68.278226
_cell_length_b     68.314737
_cell_length_c     63.484416
_cell_angle_alpha  89.892244
_cell_angle_beta   90.005819
_cell_angle_gamma 119.96323
loop_
_atom_site_label
_atom_site_type_symbol
_atom_site_fract_x
_atom_site_fract_y
_atom_site_fract_z
_atom_type_partial_charge
C0 C 1.00095 0.71824 0.31388 0.0
C1 C 1.00211 0.73643 0.32468 0.0
C2 C 0.01272 0.75482 0.31163 0.0
C3 C 0.01752 0.74695 0.29362 0.0
N4 N 0.01015 0.7246 0.29422 0.0
Co5 Co 0.01636 0.7077 0.27192 0.0
N6 N 0.02616 0.73265 0.25085 0.0
C7 C 0.03145 0.75398 0.25521 0.0
C8 C 0.03738 0.7675 0.23761 0.0
C9 C 0.0358 0.75383 0.2211 0.0
C10 C 0.02894 0.73265 0.22956 0.0
N11 N 0.02322 0.69107 0.24991 0.0
C12 C 0.02674 0.69477 0.22883 0.0
C13 C 0.03047 0.67855 0.21948 0.0
C14 C 0.02939 0.66434 0.23519 0.0
C15 C 0.02498 0.67253 0.25319 0.0
N16 N 0.00602 0.68226 0.29261 0.0
C17 C 0.00841 0.66395 0.29036 0.0
C18 C 0.99943 0.64886 0.30668 0.0
C19 C 0.99121 0.65836 0.32043 0.0
C20 C 0.9959 0.67896 0.31181 0.0
N21 N 0.9852 0.69485 0.26113 0.0
C22 C 0.94239 0.67912 0.24237 0.0
C23 C 0.95177 0.66499 0.24437 0.0
C24 C 0.97304 0.67308 0.25399 0.0
C25 C 0.95481 0.7011 0.25032 0.0
C26 C 0.97601 0.7086 0.25942 0.0
N27 N 0.04774 0.72148 0.28271 0.0
C28 C 0.07293 0.73589 0.31261 0.0
C29 C 0.09128 0.75003 0.29967 0.0
C30 C 0.08765 0.74796 0.27776 0.0
C31 C 0.0659 0.73345 0.26964 0.0
C32 C 0.05155 0.72193 0.30392 0.0
H33 H 0.06363 0.7328 0.25279 0.0
H34 H 0.03799 0.71238 0.31471 0.0
H35 H 0.97976 0.66182 0.25531 0.0
H36 H 0.98517 0.72586 0.26456 0.0
C37 C 0.02762 0.75965 0.27538 0.0
C38 C 0.99361 0.69611 0.3239 0.0
C39 C 0.0271 0.71354 0.21718 0.0
C40 C 0.01804 0.66089 0.27223 0.0
H41 H 0.99658 0.73659 0.34062 0.0
H42 H 0.01662 0.77192 0.31496 0.0
H43 H 0.0417 0.78504 0.23676 0.0
H44 H 0.03947 0.75888 0.20475 0.0
H45 H 0.03329 0.67687 0.20298 0.0
H46 H 0.03043 0.64912 0.23348 0.0
H47 H 0.99898 0.63287 0.30842 0.0
H48 H 0.98347 0.65135 0.33552 0.0
H49 H 0.94273 0.64778 0.23861 0.0
H50 H 0.94852 0.7128 0.24893 0.0
H51 H 0.07481 0.73594 0.32954 0.0
H52 H 0.1012 0.7582 0.26691 0.0
C53 C 0.2914 0.30111 0.22865 0.0
C54 C 0.27389 0.28289 0.21832 0.0
C55 C 0.26631 0.26468 0.23158 0.0
C56 C 0.2795 0.27271 0.24929 0.0
N57 N 0.29463 0.295 0.24827 0.0
Co58 Co 0.31822 0.31215 0.27008 0.0
N59 N 0.3034 0.28766 0.29162 0.0
C60 C 0.287 0.26635 0.28772 0.0
C61 C 0.27925 0.25339 0.30564 0.0
C62 C 0.29161 0.2674 0.32186 0.0
C63 C 0.30641 0.28819 0.31293 0.0
N64 N 0.34217 0.32901 0.29156 0.0
C65 C 0.34236 0.3258 0.31268 0.0
C66 C 0.36303 0.34132 0.32139 0.0
C67 C 0.37606 0.35487 0.30526 0.0
C68 C 0.36277 0.34683 0.28764 0.0
N69 N 0.33309 0.33714 0.24892 0.0
C70 C 0.35424 0.35488 0.25044 0.0
C71 C 0.36054 0.36932 0.23357 0.0
C72 C 0.34242 0.35996 0.22024 0.0
C73 C 0.326 0.34017 0.22972 0.0
N74 N 0.30038 0.32548 0.28103 0.0
C75 C 0.27411 0.3416 0.30082 0.0
C76 C 0.29761 0.35553 0.2984 0.0
C77 C 0.31037 0.34726 0.28823 0.0
C78 C 0.26415 0.31968 0.29267 0.0
C79 C 0.27746 0.31198 0.28307 0.0
N80 N 0.33538 0.29793 0.25921 0.0
C81 C 0.34584 0.28301 0.22945 0.0
C82 C 0.35119 0.26989 0.24266 0.0
C83 C 0.34976 0.27227 0.26452 0.0
C84 C 0.34213 0.28654 0.27244 0.0
C85 C 0.3381 0.29681 0.23795 0.0
H86 H 0.34089 0.28764 0.28929 0.0
H87 H 0.33335 0.30568 0.22703 0.0
H88 H 0.32836 0.35833 0.2866 0.0
H89 H 0.26906 0.29472 0.27789 0.0
C90 C 0.27709 0.26036 0.26772 0.0
C91 C 0.30585 0.32316 0.21836 0.0
C92 C 0.32384 0.30772 0.32488 0.0
C93 C 0.36737 0.35793 0.26829 0.0
H94 H 0.2677 0.28266 0.20257 0.0
H95 H 0.25278 0.24763 0.22865 0.0
H96 H 0.2656 0.23608 0.3069 0.0
H97 H 0.28981 0.26279 0.33835 0.0
H98 H 0.36816 0.34279 0.33771 0.0
H99 H 0.39284 0.36947 0.30643 0.0
H100 H 0.37651 0.38469 0.23112 0.0
H101 H 0.34183 0.36644 0.20483 0.0
H102 H 0.30607 0.37269 0.30429 0.0
H103 H 0.24617 0.30814 0.29435 0.0
H104 H 0.34655 0.28187 0.21248 0.0
H105 H 0.3542 0.26294 0.27546 0.0
C106 C 0.71763 0.99829 0.22702 0.0
C107 C 0.73569 0.9996 0.21579 0.0
C108 C 0.75422 0.00991 0.22864 0.0
C109 C 0.74658 0.0144 0.24697 0.0
N110 N 0.72422 0.00711 0.24676 0.0
Co111 Co 0.70765 0.01309 0.2696 0.0
N112 N 0.73298 0.02282 0.29023 0.0
C113 C 0.75419 0.02789 0.28546 0.0
C114 C 0.76787 0.03325 0.30287 0.0
C115 C 0.75446 0.03154 0.31968 0.0
C116 C 0.73328 0.02536 0.31158 0.0
N117 N 0.69134 0.01972 0.29207 0.0
C118 C 0.69549 0.02336 0.31306 0.0
C119 C 0.68004 0.0281 0.32265 0.0
C120 C 0.66554 0.02702 0.30726 0.0
C121 C 0.67298 0.02188 0.28917 0.0
N122 N 0.68185 1.00284 0.24938 0.0
C123 C 0.66356 0.00518 0.25214 0.0
C124 C 0.6482 0.99635 0.23605 0.0
C125 C 0.65752 0.98831 0.22189 0.0
C126 C 0.6783 0.99301 0.23004 0.0
N127 N 0.69507 0.98188 0.28035 0.0
C128 C 0.6807 0.94024 0.30126 0.0
C129 C 0.66596 0.94886 0.29846 0.0
C130 C 0.67346 0.96965 0.28796 0.0
C131 C 0.70232 0.95249 0.29235 0.0
C132 C 0.70908 0.97301 0.28209 0.0
N133 N 0.72121 0.04456 0.25903 0.0
C134 C 0.73461 0.07045 0.22945 0.0
C135 C 0.7489 0.0884 0.24255 0.0
C136 C 0.74787 0.08431 0.26429 0.0
C137 C 0.73355 0.06245 0.27222 0.0
C138 C 0.72109 0.04878 0.23792 0.0
H139 H 0.73329 0.05992 0.28901 0.0
H140 H 0.71144 0.03539 0.22704 0.0
H141 H 0.66197 0.97611 0.2866 0.0
H142 H 0.72609 0.98202 0.27621 0.0
C143 C 0.75952 0.02421 0.2651 0.0
C144 C 0.69537 0.99115 0.21737 0.0
C145 C 0.71424 0.02331 0.32435 0.0
C146 C 0.66092 0.01495 0.27038 0.0
H147 H 0.73567 0.99438 0.19971 0.0
H148 H 0.77129 0.01384 0.22498 0.0
H149 H 0.78529 0.03711 0.3034 0.0
H150 H 0.75971 0.03449 0.33598 0.0
H151 H 0.67922 0.03182 0.33908 0.0
H152 H 0.65073 0.02876 0.30923 0.0
H153 H 0.6322 0.99596 0.23468 0.0
H154 H 0.65031 0.9808 0.20682 0.0
H155 H 0.64903 0.94007 0.30494 0.0
H156 H 0.71421 0.94642 0.29345 0.0
H157 H 0.73472 0.07286 0.21257 0.0
H158 H 0.75832 0.09783 0.27505 0.0
C159 C 0.97469 0.22444 0.74717 0.0
C160 C 0.96447 0.20149 0.74271 0.0
C161 C 0.97725 0.19373 0.7522 0.0
C162 C 0.9944 0.21221 0.76198 0.0
N163 N 0.99335 0.23123 0.75928 0.0
Co164 Co 0.01441 0.26129 0.7718 0.0
N165 N 0.0374 0.25224 0.77827 0.0
C166 C 0.03397 0.23103 0.77769 0.0
C167 C 0.05286 0.22972 0.78244 0.0
C168 C 0.06925 0.25142 0.78665 0.0
C169 C 0.0593 0.26478 0.78447 0.0
N170 N 0.03538 0.29118 0.78483 0.0
C171 C 0.05717 0.30017 0.79144 0.0
C172 C 0.06462 0.32095 0.80103 0.0
C173 C 0.04685 0.32495 0.8007 0.0
C174 C 0.02954 0.30645 0.791 0.0
N175 N 0.99137 0.27016 0.76498 0.0
C176 C 0.99066 0.28798 0.7731 0.0
C177 C 0.97295 0.29006 0.7655 0.0
C178 C 0.96168 0.27232 0.75185 0.0
C179 C 0.97308 0.26027 0.75198 0.0
N180 N 1.00025 0.25047 0.79963 0.0
C181 C 0.98151 0.24855 0.83953 0.0
C182 C 0.96767 0.24004 0.82167 0.0
C183 C 0.97733 0.24092 0.80194 0.0
C184 C 1.0045 0.25548 0.83725 0.0
C185 C 0.01346 0.25616 0.81729 0.0
N186 N 0.02847 0.27292 0.74414 0.0
C187 C 0.0428 0.30338 0.71887 0.0
C188 C 0.04722 0.2907 0.70437 0.0
C189 C 0.04201 0.26876 0.7102 0.0
C190 C 0.03286 0.26027 0.73027 0.0
C191 C 0.03335 0.2942 0.7384 0.0
H192 H 0.0292 0.24347 0.73449 0.0
H193 H 0.02973 0.30442 0.74873 0.0
H194 H 0.9664 0.23541 0.78837 0.0
H195 H 0.0314 0.26287 0.81611 0.0
C196 C 0.01348 0.21311 0.77083 0.0
C197 C 0.9652 0.23869 0.74085 0.0
C198 C 0.07038 0.2885 0.79121 0.0
C199 C 0.00847 0.30382 0.78554 0.0
H200 H 0.94926 0.1913 0.73369 0.0
H201 H 0.97474 0.1768 0.75144 0.0
H202 H 0.05459 0.21481 0.78262 0.0
H203 H 0.08638 0.25668 0.79145 0.0
H204 H 0.08101 0.3318 0.80803 0.0
H205 H 0.04665 0.33967 0.80669 0.0
H206 H 0.96906 0.30325 0.76897 0.0
H207 H 0.94668 0.2686 0.74298 0.0
H208 H 0.94974 0.23417 0.82259 0.0
H209 H 0.01578 0.26138 0.85067 0.0
H210 H 0.04612 0.32021 0.71497 0.0
H211 H 0.04516 0.25836 0.69944 0.0
C212 C 0.80333 0.75816 0.74641 0.0
C213 C 0.82548 0.77219 0.73982 0.0
C214 C 0.83206 0.79316 0.74767 0.0
C215 C 0.81363 0.79086 0.75842 0.0
N216 N 0.79567 0.76976 0.75784 0.0
Co217 Co 0.7655 0.75962 0.771 0.0
N218 N 0.77271 0.79142 0.77605 0.0
C219 C 0.79312 0.81012 0.7737 0.0
C220 C 0.793 0.82983 0.77722 0.0
C221 C 0.77122 0.82328 0.78254 0.0
C222 C 0.7593 0.7998 0.78228 0.0
N223 N 0.73546 0.74955 0.78453 0.0
C224 C 0.7257 0.76162 0.79136 0.0
C225 C 0.70538 0.74772 0.80154 0.0
C226 C 0.70246 0.72639 0.80143 0.0
C227 C 0.72109 0.72837 0.79126 0.0
N228 N 0.75844 0.7279 0.76565 0.0
C229 C 0.74143 0.70924 0.77456 0.0
C230 C 0.74086 0.6897 0.7684 0.0
C231 C 0.75877 0.69646 0.75489 0.0
C232 C 0.76929 0.71982 0.75355 0.0
N233 N 0.77759 0.75849 0.79893 0.0
C234 C 0.78066 0.74364 0.83949 0.0
C235 C 0.78951 0.73821 0.82192 0.0
C236 C 0.78811 0.74609 0.80186 0.0
C237 C 0.77299 0.75904 0.83652 0.0
C238 C 0.77172 0.76632 0.81624 0.0
N239 N 0.75265 0.75982 0.74327 0.0
C240 C 0.7229 0.74006 0.71786 0.0
C241 C 0.73398 0.75744 0.70313 0.0
C242 C 0.75445 0.77644 0.70914 0.0
C243 C 0.76357 0.77724 0.72923 0.0
C244 C 0.73236 0.74162 0.73769 0.0
H245 H 0.77954 0.79178 0.73326 0.0
H246 H 0.72323 0.72779 0.74838 0.0
H247 H 0.794 0.74066 0.78858 0.0
H248 H 0.7644 0.77697 0.81462 0.0
C249 C 0.81149 0.8087 0.7662 0.0
C250 C 0.79077 0.73376 0.74238 0.0
C251 C 0.73638 0.78642 0.79097 0.0
C252 C 0.72504 0.71061 0.78664 0.0
H253 H 0.83584 0.7678 0.73027 0.0
H254 H 0.84807 0.80846 0.74509 0.0
H255 H 0.80702 0.84694 0.77583 0.0
H256 H 0.76499 0.83452 0.78682 0.0
H257 H 0.6942 0.75261 0.80894 0.0
H258 H 0.68847 0.71126 0.80809 0.0
H259 H 0.72866 0.67256 0.77289 0.0
H260 H 0.7638 0.68552 0.74722 0.0
H261 H 0.79606 0.72675 0.82333 0.0
H262 H 0.76693 0.76463 0.84967 0.0
H263 H 0.70687 0.72523 0.71413 0.0
H264 H 0.76363 0.7903 0.69824 0.0
C265 C 0.2225 0.97139 0.79167 0.0
C266 C 0.19995 0.96272 0.79715 0.0
C267 C 0.19301 0.97624 0.78778 0.0
C268 C 0.21163 0.99242 0.77726 0.0
N269 N 0.22999 0.9901 0.77942 0.0
Co270 Co 0.26042 0.01029 0.76697 0.0
N271 N 0.25274 0.0343 0.76053 0.0
C272 C 0.23187 0.03178 0.76097 0.0
C273 C 0.23145 0.05106 0.75582 0.0
C274 C 0.2534 0.06675 0.75152 0.0
C275 C 0.26603 0.05607 0.7542 0.0
N276 N 0.29074 0.03042 0.75416 0.0
C277 C 0.30055 0.05228 0.74753 0.0
C278 C 0.32131 0.05904 0.73812 0.0
C279 C 0.32442 0.04072 0.73849 0.0
C280 C 0.30547 0.02382 0.7481 0.0
N281 N 0.2679 0.98621 0.77364 0.0
C282 C 0.28519 0.98459 0.76538 0.0
C283 C 0.28602 0.96602 0.77251 0.0
C284 C 0.268 0.95514 0.78599 0.0
C285 C 0.25716 0.96773 0.78635 0.0
N286 N 0.24946 0.99661 0.73903 0.0
C287 C 0.24769 0.97809 0.6991 0.0
C288 C 0.23833 0.9641 0.71681 0.0
C289 C 0.23913 0.97367 0.73656 0.0
C290 C 0.25531 1.0012 0.7015 0.0
C291 C 0.25591 0.01005 0.72147 0.0
N292 N 0.27216 0.0238 0.79474 0.0
C293 C 0.30106 0.03431 0.82115 0.0
C294 C 0.28901 0.03995 0.83534 0.0
C295 C 0.26856 0.03806 0.82848 0.0
C296 C 0.26037 0.02984 0.80813 0.0
C297 C 0.29247 0.02643 0.8011 0.0
H298 H 0.24438 0.02803 0.80338 0.0
H299 H 0.30225 0.02207 0.7909 0.0
H300 H 0.23295 0.96259 0.75004 0.0
H301 H 0.2632 0.02804 0.72274 0.0
C302 C 0.21344 0.01183 0.76822 0.0
C303 C 0.23565 0.96052 0.79736 0.0
C304 C 0.28978 0.06634 0.74771 0.0
C305 C 0.30173 1.00226 0.75324 0.0
H306 H 0.18955 0.94813 0.80689 0.0
H307 H 0.1766 0.97494 0.78919 0.0
H308 H 0.21695 0.05348 0.75543 0.0
H309 H 0.25932 0.08391 0.74633 0.0
H310 H 0.33271 0.07534 0.73119 0.0
H311 H 0.33883 0.03986 0.73254 0.0
H312 H 0.29851 0.96122 0.76875 0.0
H313 H 0.26317 0.93955 0.79436 0.0
H314 H 0.23186 0.94607 0.71579 0.0
H315 H 0.26185 0.01263 0.68818 0.0
H316 H 0.31714 0.03592 0.8255 0.0
H317 H 0.25867 0.04227 0.83892 0.0
C318 C 0.66648 0.05252 0.64671 0.0
C319 C 0.66738 0.07064 0.65743 0.0
C320 C 0.67809 0.08907 0.64445 0.0
C321 C 0.68321 0.0813 0.62655 0.0
N322 N 0.67594 0.05897 0.62715 0.0
Co323 Co 0.68262 0.04223 0.60505 0.0
N324 N 0.6928 0.06729 0.58403 0.0
C325 C 0.6978 0.08855 0.58835 0.0
C326 C 0.70339 0.10196 0.5707 0.0
C327 C 0.7019 0.0883 0.55422 0.0
C328 C 0.69562 0.06726 0.56274 0.0
N329 N 0.68988 0.02575 0.5833 0.0
C330 C 0.69372 0.02953 0.56227 0.0
C331 C 0.69877 0.01406 0.55325 0.0
C332 C 0.69767 0.99992 0.56906 0.0
C333 C 0.69221 0.00759 0.58681 0.0
N334 N 0.67202 0.01672 0.62568 0.0
C335 C 0.67474 0.99858 0.62362 0.0
C336 C 0.66569 0.98348 0.63993 0.0
C337 C 0.65711 0.99281 0.65348 0.0
C338 C 0.66167 0.01334 0.64477 0.0
N339 N 0.65168 0.0294 0.59368 0.0
C340 C 0.61034 0.01446 0.57219 0.0
C341 C 0.61897 0.99984 0.57574 0.0
C342 C 0.63962 0.00763 0.58652 0.0
C343 C 0.62242 0.03627 0.58062 0.0
C344 C 0.64281 0.04332 0.59117 0.0
N345 N 0.71382 0.05603 0.61628 0.0
C346 C 0.73864 0.07053 0.64642 0.0
C347 C 0.75716 0.08459 0.63361 0.0
C348 C 0.75379 0.08244 0.61168 0.0
C349 C 0.73214 0.06792 0.60338 0.0
C350 C 0.71736 0.05655 0.63755 0.0
H351 H 0.73008 0.06722 0.5865 0.0
H352 H 0.70366 0.04704 0.64822 0.0
H353 H 0.64612 0.99623 0.58849 0.0
H354 H 0.6517 0.06045 0.59668 0.0
C355 C 0.69356 0.09408 0.60842 0.0
C356 C 0.65918 0.03041 0.65676 0.0
C357 C 0.69359 0.04797 0.55044 0.0
C358 C 0.68501 0.99582 0.60578 0.0
H359 H 0.66162 0.07072 0.67329 0.0
H360 H 0.68186 0.10614 0.64775 0.0
H361 H 0.70718 0.11932 0.56978 0.0
H362 H 0.705 0.0933 0.53784 0.0
H363 H 0.70268 0.01298 0.53693 0.0
H364 H 0.69956 0.98517 0.56756 0.0
H365 H 0.66552 0.96764 0.64183 0.0
H366 H 0.64931 0.98579 0.66854 0.0
H367 H 0.61028 0.98278 0.56964 0.0
H368 H 0.61631 0.04808 0.57891 0.0
H369 H 0.74032 0.07064 0.66339 0.0
H370 H 0.76748 0.09261 0.60093 0.0
C371 C 0.95631 0.63136 0.56076 0.0
C372 C 0.93918 0.61331 0.5499 0.0
C373 C 0.93117 0.59488 0.56291 0.0
C374 C 0.94379 0.60257 0.58096 0.0
N375 N 0.95898 0.62487 0.58044 0.0
Co376 Co 0.98207 0.6415 0.60284 0.0
N377 N 0.96666 0.61649 0.6238 0.0
C378 C 0.95046 0.59524 0.61934 0.0
C379 C 0.94273 0.5816 0.63685 0.0
C380 C 0.95489 0.59509 0.65342 0.0
C381 C 0.96939 0.61629 0.6451 0.0
N382 N 1.00551 0.65788 0.62496 0.0
C383 C 1.00524 0.65408 0.64604 0.0
C384 C 0.02505 0.6704 0.65551 0.0
C385 C 0.03826 0.68465 0.63987 0.0
C386 C 0.02581 0.67646 0.6218 0.0
N387 N 0.99743 0.66699 0.58221 0.0
C388 C 0.01817 0.68519 0.58457 0.0
C389 C 0.0245 0.70034 0.56826 0.0
C390 C 0.00687 0.69097 0.5544 0.0
C391 C 0.9908 0.67041 0.56295 0.0
N392 N 0.96395 0.6546 0.61361 0.0
C393 C 0.93717 0.67075 0.6323 0.0
C394 C 0.9607 0.68471 0.63027 0.0
C395 C 0.97373 0.67641 0.62069 0.0
C396 C 0.92745 0.64874 0.6244 0.0
C397 C 0.94101 0.64103 0.61533 0.0
N398 N 0.99947 0.62748 0.59207 0.0
C399 C 0.00996 0.61279 0.56219 0.0
C400 C 0.01415 0.59866 0.57517 0.0
C401 C 0.01273 0.60086 0.59707 0.0
C402 C 1.0056 0.61549 0.60516 0.0
C403 C 1.00274 0.62692 0.57085 0.0
H404 H 1.00403 0.6162 0.62201 0.0
H405 H 0.9988 0.63652 0.56004 0.0
H406 H 0.99172 0.68754 0.61936 0.0
H407 H 0.93278 0.62376 0.6102 0.0
C408 C 0.94101 0.58976 0.59915 0.0
C409 C 0.97138 0.65343 0.55077 0.0
C410 C 0.98682 0.63514 0.65759 0.0
C411 C 0.03067 0.68815 0.60279 0.0
H412 H 0.9336 0.61328 0.53394 0.0
H413 H 0.91784 0.57785 0.55952 0.0
H414 H 0.92941 0.56411 0.63759 0.0
H415 H 0.95347 0.58988 0.66972 0.0
H416 H 0.02943 0.6722 0.67203 0.0
H417 H 0.05445 0.69993 0.64168 0.0
H418 H 0.0401 0.71627 0.56661 0.0
H419 H 0.00631 0.69805 0.5393 0.0
H420 H 0.969 0.70194 0.63597 0.0
H421 H 0.90944 0.63716 0.62581 0.0
H422 H 0.01167 0.61259 0.54524 0.0
H423 H 0.01605 0.59063 0.60792 0.0
C424 C 0.39911 0.36116 0.64828 0.0
C425 C 0.41591 0.35991 0.65948 0.0
C426 C 0.42401 0.34943 0.64669 0.0
C427 C 0.41175 0.34479 0.62843 0.0
N428 N 0.39674 0.35215 0.6286 0.0
Co429 Co 0.37396 0.34587 0.60589 0.0
N430 N 0.38917 0.33558 0.58537 0.0
C431 C 0.40535 0.33056 0.59016 0.0
C432 C 0.41343 0.32483 0.57282 0.0
C433 C 0.40152 0.32622 0.55602 0.0
C434 C 0.38665 0.33259 0.56405 0.0
N435 N 0.35077 0.3389 0.58357 0.0
C436 C 0.35095 0.33475 0.56265 0.0
C437 C 0.33067 0.32992 0.55321 0.0
C438 C 0.31754 0.3315 0.5686 0.0
C439 C 0.33036 0.33699 0.58656 0.0
N440 N 0.35879 0.35672 0.62596 0.0
C441 C 0.33825 0.3546 0.62323 0.0
C442 C 0.33203 0.36387 0.63918 0.0
C443 C 0.34948 0.37195 0.65323 0.0
C444 C 0.36532 0.36686 0.64517 0.0
N445 N 0.39259 0.37687 0.59469 0.0
C446 C 0.42023 0.41947 0.57549 0.0
C447 C 0.39671 0.41037 0.57739 0.0
C448 C 0.38325 0.38918 0.58716 0.0
C449 C 0.42942 0.40678 0.58374 0.0
C450 C 0.41548 0.38577 0.59312 0.0
N451 N 0.35608 0.31464 0.61712 0.0
C452 C 0.34467 0.29003 0.64755 0.0
C453 C 0.34131 0.27157 0.63525 0.0
C454 C 0.34345 0.27479 0.61328 0.0
C455 C 0.35051 0.29629 0.60456 0.0
C456 C 0.35203 0.31116 0.6383 0.0
H457 H 0.35253 0.29821 0.5877 0.0
H458 H 0.35543 0.32479 0.64871 0.0
H459 H 0.36529 0.38266 0.58831 0.0
H460 H 0.4234 0.37653 0.59861 0.0
C461 C 0.41462 0.33462 0.61043 0.0
C462 C 0.38408 0.36842 0.65792 0.0
C463 C 0.36953 0.33444 0.55127 0.0
C464 C 0.32559 0.34449 0.6052 0.0
H465 H 0.42121 0.36525 0.67552 0.0
H466 H 0.43711 0.34545 0.65038 0.0
H467 H 0.42696 0.32093 0.57232 0.0
H468 H 0.40363 0.32295 0.53976 0.0
H469 H 0.32589 0.32585 0.53686 0.0
H470 H 0.30103 0.32986 0.5667 0.0
H471 H 0.31652 0.36445 0.64056 0.0
H472 H 0.34998 0.3797 0.66822 0.0
H473 H 0.38873 0.41955 0.57145 0.0
H474 H 0.44734 0.41269 0.58242 0.0
H475 H 0.34227 0.28845 0.66445 0.0
H476 H 0.34075 0.26113 0.60287 0.0
C477 C 0.72368 0.59605 0.12508 0.0
C478 C 0.73172 0.58174 0.13096 0.0
C479 C 0.71767 0.56123 0.12204 0.0
C480 C 0.70179 0.56405 0.1114 0.0
N481 N 0.70476 0.58503 0.1131 0.0
Co482 Co 0.68508 0.5958 0.10042 0.0
N483 N 0.66061 0.56429 0.09416 0.0
C484 C 0.66258 0.54564 0.09495 0.0
C485 C 0.64301 0.52616 0.09007 0.0
C486 C 0.6277 0.53287 0.08559 0.0
C487 C 0.63889 0.55622 0.08789 0.0
N488 N 0.66542 0.60651 0.08745 0.0
C489 C 0.64352 0.59481 0.08089 0.0
C490 C 0.63713 0.60906 0.0714 0.0
C491 C 0.65571 0.63031 0.07167 0.0
C492 C 0.67239 0.62789 0.08129 0.0
N493 N 0.70964 0.62721 0.10684 0.0
C494 C 0.71162 0.64623 0.09843 0.0
C495 C 0.73051 0.66546 0.10524 0.0
C496 C 0.74127 0.65811 0.11862 0.0
C497 C 0.72829 0.63473 0.11926 0.0
N498 N 0.69871 0.59806 0.0725 0.0
C499 C 0.71723 0.61445 0.03243 0.0
C500 C 0.73126 0.61898 0.05008 0.0
C501 C 0.72168 0.61037 0.0699 0.0
C502 C 0.69408 0.59918 0.03497 0.0
C503 C 0.68523 0.59111 0.055 0.0
N504 N 0.67146 0.59441 0.12809 0.0
C505 C 0.65969 0.61255 0.15363 0.0
C506 C 0.65156 0.5939 0.16719 0.0
C507 C 0.65399 0.57551 0.16077 0.0
C508 C 0.664 0.57612 0.14119 0.0
C509 C 0.66932 0.6124 0.13433 0.0
H510 H 0.66557 0.56177 0.13662 0.0
H511 H 0.67507 0.62705 0.12447 0.0
H512 H 0.73279 0.61517 0.08332 0.0
H513 H 0.6672 0.58065 0.05637 0.0
C514 C 0.68221 0.54669 0.10247 0.0
C515 C 0.73541 0.62025 0.13007 0.0
C516 C 0.62909 0.57007 0.08123 0.0
C517 C 0.6941 0.64542 0.08632 0.0
H518 H 0.74627 0.58568 0.14064 0.0
H519 H 0.71847 0.54588 0.12377 0.0
H520 H 0.64013 0.50907 0.09005 0.0
H521 H 0.61042 0.52189 0.08061 0.0
H522 H 0.6209 0.60445 0.06449 0.0
H523 H 0.65688 0.64569 0.06563 0.0
H524 H 0.73565 0.68278 0.10126 0.0
H525 H 0.75708 0.66869 0.12668 0.0
H526 H 0.74932 0.63035 0.04895 0.0
H527 H 0.68262 0.59434 0.02171 0.0
H528 H 0.6589 0.62747 0.15791 0.0
H529 H 0.64794 0.56063 0.17059 0.0
C530 C 0.42603 0.13022 0.12542 0.0
C531 C 0.43888 0.15311 0.13003 0.0
C532 C 0.45942 0.16078 0.12057 0.0
C533 C 0.45797 0.14229 0.11067 0.0
N534 N 0.43782 0.12336 0.11327 0.0
Co535 Co 0.42869 0.09324 0.10086 0.0
N536 N 0.4607 0.10204 0.09458 0.0
C537 C 0.47857 0.12318 0.09522 0.0
C538 C 0.49874 0.12429 0.0908 0.0
C539 C 0.49331 0.10253 0.08673 0.0
C540 C 0.46996 0.08934 0.08863 0.0
N541 N 0.41962 0.06322 0.08803 0.0
C542 C 0.43234 0.05409 0.08153 0.0
C543 C 0.41894 0.03331 0.07197 0.0
C544 C 0.39722 0.02947 0.07221 0.0
C545 C 0.3985 0.04805 0.08183 0.0
N546 N 0.3968 0.08466 0.10746 0.0
C547 C 0.37826 0.06702 0.09917 0.0
C548 C 0.35852 0.06521 0.10658 0.0
C549 C 0.36505 0.08293 0.12028 0.0
C550 C 0.38849 0.09468 0.1204 0.0
N551 N 0.42557 0.10397 0.07288 0.0
C552 C 0.40868 0.10514 0.03276 0.0
C553 C 0.40317 0.11376 0.05046 0.0
C554 C 0.41205 0.11332 0.07029 0.0
C555 C 0.42502 0.09861 0.03533 0.0
C556 C 0.43328 0.09824 0.05539 0.0
N557 N 0.43087 0.08163 0.12862 0.0
C558 C 0.41389 0.05166 0.1543 0.0
C559 C 0.43169 0.06364 0.16841 0.0
C560 C 0.44917 0.08509 0.16211 0.0
C561 C 0.44847 0.09374 0.14212 0.0
C562 C 0.41384 0.06082 0.1347 0.0
H563 H 0.46207 0.1102 0.13764 0.0
H564 H 0.39969 0.05096 0.12457 0.0
H565 H 0.40655 0.11895 0.08372 0.0
H566 H 0.44463 0.09168 0.05677 0.0
C567 C 0.47612 0.14122 0.10198 0.0
C568 C 0.40233 0.11606 0.13176 0.0
C569 C 0.45723 0.06565 0.08177 0.0
C570 C 0.38015 0.05098 0.08696 0.0
H571 H 0.43394 0.16328 0.1392 0.0
H572 H 0.47394 0.17763 0.12148 0.0
H573 H 0.51544 0.1391 0.09079 0.0
H574 H 0.50515 0.09712 0.08222 0.0
H575 H 0.42439 0.02238 0.06501 0.0
H576 H 0.38228 0.01483 0.06615 0.0
H577 H 0.34141 0.05218 0.10299 0.0
H578 H 0.35384 0.08684 0.12903 0.0
H579 H 0.39094 0.1194 0.04937 0.0
H580 H 0.43066 0.09275 0.02206 0.0
H581 H 0.39967 0.03534 0.15846 0.0
H582 H 0.46336 0.09503 0.17241 0.0
C583 C 0.88787 0.30402 0.12343 0.0
C584 C 0.86468 0.29367 0.12685 0.0
C585 C 0.85739 0.30664 0.11694 0.0
C586 C 0.87636 0.324 0.10789 0.0
N587 N 0.89522 0.32291 0.11148 0.0
Co588 Co 0.92571 0.34391 0.09974 0.0
N589 N 0.91717 0.3672 0.09298 0.0
C590 C 0.89594 0.36371 0.09235 0.0
C591 C 0.89487 0.3826 0.08704 0.0
C592 C 0.9168 0.39906 0.08377 0.0
C593 C 0.93008 0.3892 0.08721 0.0
N594 N 0.9561 0.36487 0.08756 0.0
C595 C 0.96552 0.38685 0.08138 0.0
C596 C 0.98666 0.39436 0.07245 0.0
C597 C 0.99039 0.37642 0.0727 0.0
C598 C 0.97142 0.35897 0.08175 0.0
N599 N 0.93401 0.32048 0.10676 0.0
C600 C 0.95196 0.31969 0.09905 0.0
C601 C 0.95387 0.30205 0.10709 0.0
C602 C 0.93586 0.29089 0.12055 0.0
C603 C 0.92375 0.30223 0.11982 0.0
N604 N 0.91575 0.33032 0.07163 0.0
C605 C 0.9147 0.3123 0.03159 0.0
C606 C 0.90563 0.29814 0.04922 0.0
C607 C 0.90609 0.30744 0.06903 0.0
C608 C 0.92184 0.33529 0.03414 0.0
C609 C 0.92212 0.3439 0.05417 0.0
N610 N 0.93655 0.35744 0.12765 0.0
C611 C 0.96577 0.36994 0.15396 0.0
C612 C 0.95376 0.37626 0.16755 0.0
C613 C 0.93259 0.37266 0.1607 0.0
C614 C 0.9243 0.36325 0.14067 0.0
C615 C 0.95705 0.36083 0.13429 0.0
H616 H 0.90805 0.36066 0.13571 0.0
H617 H 0.96704 0.35634 0.12453 0.0
H618 H 0.90011 0.29625 0.08244 0.0
H619 H 0.92903 0.36184 0.05557 0.0
C620 C 0.87766 0.34313 0.09867 0.0
C621 C 0.90184 0.29445 0.13048 0.0
C622 C 0.95421 0.40041 0.0818 0.0
C623 C 0.96835 0.33767 0.08705 0.0
H624 H 0.854 0.2782 0.13538 0.0
H625 H 0.8404 0.30403 0.11683 0.0
H626 H 0.87996 0.38427 0.08582 0.0
H627 H 0.92227 0.41616 0.07868 0.0
H628 H 0.99796 0.41095 0.06602 0.0
H629 H 1.00528 0.37622 0.06715 0.0
H630 H 0.96722 0.29822 0.10417 0.0
H631 H 0.93214 0.2761 0.12977 0.0
H632 H 0.89957 0.2802 0.04809 0.0
H633 H 0.92816 0.34684 0.0209 0.0
H634 H 0.98183 0.37165 0.15854 0.0
H635 H 0.92261 0.37728 0.17058 0.0
C636 C 0.33231 0.38795 0.98157 0.0
C637 C 0.33293 0.40584 0.99245 0.0
C638 C 0.34385 0.42449 0.97976 0.0
C639 C 0.34925 0.41702 0.96182 0.0
N640 N 0.34196 0.39468 0.96212 0.0
Co641 Co 0.34876 0.37822 0.93986 0.0
N642 N 0.35944 0.40371 0.91925 0.0
C643 C 0.36459 0.42495 0.92391 0.0
C644 C 0.37057 0.43872 0.9065 0.0
C645 C 0.36917 0.42534 0.88981 0.0
C646 C 0.36254 0.40408 0.89797 0.0
N647 N 0.35608 0.36202 0.91787 0.0
C648 C 0.36003 0.36609 0.89688 0.0
C649 C 0.36488 0.3506 0.88761 0.0
C650 C 0.36361 0.33619 0.90323 0.0
C651 C 0.35823 0.34371 0.92114 0.0
N652 N 0.33771 0.35229 0.96012 0.0
C653 C 0.34074 0.33436 0.95798 0.0
C654 C 0.33201 0.31926 0.97432 0.0
C655 C 0.32329 0.32838 0.98798 0.0
C656 C 0.32726 0.34869 0.97922 0.0
N657 N 0.31801 0.36575 0.92821 0.0
C658 C 0.27671 0.35083 0.90678 0.0
C659 C 0.28493 0.336 0.91093 0.0
C660 C 0.30562 0.3438 0.92159 0.0
C661 C 0.2892 0.37292 0.91446 0.0
C662 C 0.30952 0.37993 0.92514 0.0
N663 N 0.37976 0.39156 0.95148 0.0
C664 C 0.40397 0.40499 0.98208 0.0
C665 C 0.42274 0.4194 0.96972 0.0
C666 C 0.41985 0.41794 0.94773 0.0
C667 C 0.39835 0.40376 0.93895 0.0
C668 C 0.38288 0.39141 0.97277 0.0
H669 H 0.39662 0.40356 0.92205 0.0
H670 H 0.36899 0.38165 0.98316 0.0
H671 H 0.31187 0.33225 0.92397 0.0
H672 H 0.31866 0.39717 0.93035 0.0
C673 C 0.36 0.43013 0.94398 0.0
C674 C 0.32458 0.3656 0.99128 0.0
C675 C 0.36037 0.38494 0.88535 0.0
C676 C 0.35106 0.33181 0.94005 0.0
H677 H 0.32677 0.40558 1.00822 0.0
H678 H 0.34754 0.44149 0.98326 0.0
H679 H 0.37451 0.45615 0.90585 0.0
H680 H 0.37253 0.43066 0.87352 0.0
H681 H 0.36881 0.34972 0.87125 0.0
H682 H 0.36539 0.32139 0.90153 0.0
H683 H 0.33223 0.30362 0.97623 0.0
H684 H 0.3159 0.3214 1.00318 0.0
H685 H 0.27585 0.31872 0.90537 0.0
H686 H 0.28339 0.38491 0.91212 0.0
H687 H 0.40529 0.40456 0.99905 0.0
H688 H 0.43378 0.42841 0.93732 0.0
C689 C 0.62243 0.96694 0.89379 0.0
C690 C 0.60539 0.94895 0.88279 0.0
C691 C 0.59748 0.93038 0.8956 0.0
C692 C 0.61006 0.93792 0.91369 0.0
N693 N 0.62512 0.96026 0.91337 0.0
Co694 Co 0.64815 0.97673 0.93583 0.0
N695 N 0.63304 0.95134 0.9565 0.0
C696 C 0.61695 0.93011 0.95184 0.0
C697 C 0.60896 0.9164 0.96928 0.0
C698 C 0.62082 0.92981 0.986 0.0
C699 C 0.63558 0.95102 0.97782 0.0
N700 N 0.67146 0.99298 0.95799 0.0
C701 C 0.67118 0.9889 0.97899 0.0
C702 C 0.69146 0.00437 0.98838 0.0
C703 C 0.7047 0.0188 0.97283 0.0
C704 C 0.69193 0.01131 0.95485 0.0
N705 N 0.6633 1.00256 0.91554 0.0
C706 C 0.68408 0.02071 0.91795 0.0
C707 C 0.69035 0.03604 0.90181 0.0
C708 C 0.67268 0.02683 0.88798 0.0
C709 C 0.65664 0.00616 0.89637 0.0
N710 N 0.62977 0.98931 0.94706 0.0
C711 C 0.60317 0.00435 0.96794 0.0
C712 C 0.62627 0.01914 0.96401 0.0
C713 C 0.63928 0.01128 0.95364 0.0
C714 C 0.59364 0.98224 0.96033 0.0
C715 C 0.60706 0.97518 0.94991 0.0
N716 N 0.66589 0.96326 0.92466 0.0
C717 C 0.67789 0.95023 0.89454 0.0
C718 C 0.68223 0.9361 0.90729 0.0
C719 C 0.67965 0.93699 0.92914 0.0
C720 C 0.67195 0.95101 0.93751 0.0
C721 C 0.66969 0.96347 0.90344 0.0
H722 H 0.67002 0.95116 0.95436 0.0
H723 H 0.6655 0.97299 0.89281 0.0
H724 H 0.6571 0.0228 0.95144 0.0
H725 H 0.599 0.95793 0.94474 0.0
C726 C 0.60745 0.92488 0.93166 0.0
C727 C 0.63738 0.98916 0.88401 0.0
C728 C 0.65255 0.97015 0.99047 0.0
C729 C 0.69678 0.02331 0.936 0.0
H730 H 0.59982 0.94906 0.86686 0.0
H731 H 0.58427 0.91334 0.89204 0.0
H732 H 0.59545 0.89898 0.96991 0.0
H733 H 0.61873 0.92454 1.00231 0.0
H734 H 0.69616 0.00524 1.00477 0.0
H735 H 0.72125 0.03361 0.97463 0.0
H736 H 0.706 0.05194 0.90019 0.0
H737 H 0.67213 0.03402 0.87294 0.0
H738 H 0.63441 0.03643 0.96953 0.0
H739 H 0.57583 0.97029 0.96252 0.0
H740 H 0.67969 0.95021 0.87759 0.0
H741 H 0.68326 0.9267 0.93967 0.0
C742 C 0.05097 0.66352 0.8946 0.0
C743 C 0.06894 0.66383 0.88406 0.0
C744 C 0.08749 0.67487 0.89681 0.0
C745 C 0.07991 0.68056 0.91449 0.0
N746 N 0.05758 0.67335 0.91397 0.0
Co747 Co 0.04079 0.67983 0.93616 0.0
N748 N 0.06598 0.69022 0.95699 0.0
C749 C 0.08736 0.6957 0.95246 0.0
C750 C 0.10102 0.70189 0.96994 0.0
C751 C 0.08739 0.70028 0.98654 0.0
C752 C 0.06611 0.69323 0.97825 0.0
N753 N 0.02418 0.68667 0.95815 0.0
C754 C 0.02784 0.69009 0.97922 0.0
C755 C 0.01204 0.6945 0.98852 0.0
C756 C 0.99794 0.69366 0.97279 0.0
C757 C 0.00592 0.68887 0.95483 0.0
N758 N 0.01525 0.66929 0.9156 0.0
C759 C 0.99748 0.67265 0.91757 0.0
C760 C 0.98281 0.66465 0.90092 0.0
C761 C 0.99201 0.65606 0.88726 0.0
C762 C 0.01194 0.65927 0.89635 0.0
N763 N 0.02817 0.64886 0.94738 0.0
C764 C 0.01268 0.6064 0.96704 0.0
C765 C 0.99808 0.61511 0.96364 0.0
C766 C 0.00612 0.63627 0.95373 0.0
C767 C 0.03503 0.61943 0.95998 0.0
C768 C 0.04232 0.6403 0.95025 0.0
N769 N 0.05432 0.71103 0.92498 0.0
C770 C 0.06926 0.7361 0.89497 0.0
C771 C 0.08186 0.75483 0.90801 0.0
C772 C 0.0791 0.75123 0.92991 0.0
C773 C 0.06518 0.72933 0.93803 0.0
C774 C 0.05561 0.71464 0.90368 0.0
H775 H 0.06396 0.72713 0.9549 0.0
H776 H 0.04704 0.70087 0.89289 0.0
H777 H 0.9946 0.64259 0.95153 0.0
H778 H 0.05975 0.64976 0.94557 0.0
C779 C 0.09282 0.69128 0.93243 0.0
C780 C 0.02874 0.65599 0.88464 0.0
C781 C 0.04671 0.69059 0.99077 0.0
C782 C 0.99454 0.68243 0.93567 0.0
H783 H 0.0688 0.65738 0.86847 0.0
H784 H 0.10449 0.67834 0.89354 0.0
H785 H 0.11855 0.70618 0.9707 0.0
H786 H 0.09252 0.70382 1.00286 0.0
H787 H 0.01081 0.69795 1.00495 0.0
H788 H 0.98308 0.69535 0.97443 0.0
H789 H 0.96739 0.66526 0.89883 0.0
H790 H 0.98525 0.64922 0.87189 0.0
H791 H 0.98057 0.60568 0.96854 0.0
H792 H 0.04723 0.61393 0.96248 0.0
H793 H 0.07068 0.73763 0.87799 0.0
H794 H 0.0879 0.76514 0.94077 0.0
C795 C 0.30791 0.88945 0.41506 0.0
C796 C 0.2979 0.86651 0.41068 0.0
C797 C 0.31069 0.85891 0.42047 0.0
C798 C 0.32765 0.8775 0.43033 0.0
N799 N 0.32647 0.8964 0.42734 0.0
Co800 Co 0.34723 0.92654 0.43979 0.0
N801 N 0.37051 0.91791 0.44628 0.0
C802 C 0.36703 0.89668 0.4465 0.0
C803 C 0.3858 0.89547 0.45199 0.0
C804 C 0.40217 0.91728 0.45578 0.0
C805 C 0.39242 0.93068 0.4524 0.0
N806 N 0.36793 0.95654 0.45267 0.0
C807 C 0.38988 0.96592 0.4589 0.0
C808 C 0.39725 0.98686 0.46812 0.0
C809 C 0.37921 0.99045 0.46812 0.0
C810 C 0.36186 0.97163 0.45885 0.0
N811 N 0.32382 0.93493 0.43306 0.0
C812 C 0.32274 0.95249 0.44132 0.0
C813 C 0.30486 0.95427 0.43371 0.0
C814 C 0.29388 0.9366 0.41993 0.0
C815 C 0.30563 0.92488 0.41998 0.0
N816 N 0.33325 0.91571 0.46769 0.0
C817 C 0.31472 0.91366 0.50774 0.0
C818 C 0.30077 0.90502 0.48995 0.0
C819 C 0.31033 0.90595 0.47014 0.0
C820 C 0.33775 0.92082 0.50529 0.0
C821 C 0.34661 0.92162 0.48526 0.0
N822 N 0.36112 0.93823 0.41211 0.0
C823 C 0.37411 0.96827 0.38652 0.0
C824 C 0.37996 0.95634 0.37239 0.0
C825 C 0.376 0.93486 0.3786 0.0
C826 C 0.36666 0.92616 0.39859 0.0
C827 C 0.36485 0.95904 0.40607 0.0
H828 H 0.36384 0.9097 0.40308 0.0
H829 H 0.36048 0.96884 0.4162 0.0
H830 H 0.29931 0.90028 0.45663 0.0
H831 H 0.36459 0.92859 0.48396 0.0
C832 C 0.34661 0.87858 0.43966 0.0
C833 C 0.29825 0.9035 0.40862 0.0
C834 C 0.40356 0.95471 0.45814 0.0
C835 C 0.34055 0.96858 0.45362 0.0
H836 H 0.28279 0.85621 0.40156 0.0
H837 H 0.30828 0.84201 0.41993 0.0
H838 H 0.38744 0.88053 0.453 0.0
H839 H 0.41912 0.92255 0.46118 0.0
H840 H 0.41381 0.99815 0.47457 0.0
H841 H 0.3789 0.00518 0.47391 0.0
H842 H 0.30071 0.96727 0.43721 0.0
H843 H 0.27889 0.93274 0.41099 0.0
H844 H 0.28281 0.89895 0.49098 0.0
H845 H 0.34913 0.9268 0.51863 0.0
H846 H 0.37623 0.98461 0.3824 0.0
H847 H 0.38027 0.92498 0.36824 0.0
C848 C 0.13733 0.42334 0.41954 0.0
C849 C 0.16002 0.43777 0.41484 0.0
C850 C 0.16426 0.45928 0.41821 0.0
C851 C 0.14405 0.4569 0.42473 0.0
N852 N 0.12731 0.43521 0.42597 0.0
Co853 Co 0.09532 0.42491 0.4338 0.0
N854 N 0.10352 0.45496 0.44574 0.0
C855 C 0.1227 0.47448 0.44173 0.0
C856 C 0.1236 0.49279 0.4515 0.0
C857 C 0.10369 0.48434 0.46232 0.0
C858 C 0.09174 0.46121 0.45858 0.0
N859 N 0.06348 0.41479 0.44201 0.0
C860 C 0.05508 0.42429 0.45549 0.0
C861 C 0.0317 0.41142 0.4566 0.0
C862 C 0.0253 0.39352 0.44314 0.0
C863 C 0.04505 0.39635 0.43464 0.0
N864 N 0.08718 0.39505 0.42125 0.0
C865 C 0.0661 0.37892 0.41596 0.0
C866 C 0.06541 0.3603 0.40706 0.0
C867 C 0.08745 0.36513 0.40636 0.0
C868 C 0.10049 0.38659 0.41478 0.0
N869 N 0.09975 0.41457 0.4614 0.0
C870 C 0.10271 0.39885 0.50161 0.0
C871 C 0.08575 0.38495 0.48751 0.0
C872 C 0.08445 0.39311 0.46776 0.0
C873 C 0.11842 0.42093 0.49511 0.0
C874 C 0.11682 0.42837 0.47479 0.0
N875 N 0.08991 0.43439 0.40608 0.0
C876 C 0.0658 0.44288 0.38478 0.0
C877 C 0.07172 0.43541 0.36651 0.0
C878 C 0.08884 0.42981 0.36837 0.0
C879 C 0.09757 0.42929 0.38817 0.0
C880 C 0.07538 0.44263 0.40425 0.0
H881 H 0.10949 0.42337 0.38899 0.0
H882 H 0.06979 0.44767 0.41803 0.0
H883 H 0.07059 0.382 0.45785 0.0
H884 H 0.12913 0.44531 0.47002 0.0
C885 C 0.14072 0.4744 0.43156 0.0
C886 C 0.12545 0.39901 0.41481 0.0
C887 C 0.06864 0.44619 0.46618 0.0
C888 C 0.04731 0.38069 0.42214 0.0
H889 H 0.17216 0.43338 0.40883 0.0
H890 H 0.1802 0.4748 0.41623 0.0
H891 H 0.13738 0.5101 0.45133 0.0
H892 H 0.09851 0.49419 0.4717 0.0
H893 H 0.02044 0.4147 0.466 0.0
H894 H 0.00831 0.37974 0.4404 0.0
H895 H 0.05061 0.34482 0.40211 0.0
H896 H 0.09327 0.3542 0.4001 0.0
H897 H 0.07302 0.36794 0.49194 0.0
H898 H 0.13184 0.43225 0.50557 0.0
H899 H 0.05292 0.44769 0.38444 0.0
H900 H 0.09495 0.42495 0.35475 0.0
C901 C 0.55582 0.63649 0.45656 0.0
C902 C 0.53284 0.62662 0.46086 0.0
C903 C 0.52562 0.64 0.45167 0.0
C904 C 0.54445 0.65715 0.44222 0.0
N905 N 0.56317 0.65556 0.44488 0.0
Co906 Co 0.59358 0.67653 0.43286 0.0
N907 N 0.58531 0.70025 0.42706 0.0
C908 C 0.56417 0.69705 0.42713 0.0
C909 C 0.56322 0.71608 0.4222 0.0
C910 C 0.58509 0.73234 0.41843 0.0
C911 C 0.59827 0.72226 0.42126 0.0
N912 N 0.62384 0.69745 0.42038 0.0
C913 C 0.63333 0.71948 0.41432 0.0
C914 C 0.65432 0.7269 0.40511 0.0
C915 C 0.65783 0.70882 0.40493 0.0
C916 C 0.63892 0.6914 0.41408 0.0
N917 N 0.6016 0.6527 0.43896 0.0
C918 C 0.61926 0.65177 0.43068 0.0
C919 C 0.62068 0.63349 0.43769 0.0
C920 C 0.60267 0.62208 0.4511 0.0
C921 C 0.59114 0.63399 0.45144 0.0
N922 N 0.58308 0.66348 0.40462 0.0
C923 C 0.58264 0.64634 0.36421 0.0
C924 C 0.57373 0.63187 0.3817 0.0
C925 C 0.57369 0.6407 0.40162 0.0
C926 C 0.589 0.66913 0.36715 0.0
C927 C 0.58913 0.67732 0.38736 0.0
N928 N 0.60495 0.68941 0.46092 0.0
C929 C 0.63374 0.69941 0.48734 0.0
C930 C 0.62135 0.70417 0.50191 0.0
C931 C 0.60079 0.70218 0.49527 0.0
C932 C 0.5928 0.69462 0.47469 0.0
C933 C 0.62539 0.69226 0.46712 0.0
H934 H 0.57669 0.69261 0.47006 0.0
H935 H 0.63546 0.68858 0.45665 0.0
H936 H 0.56772 0.62924 0.41483 0.0
H937 H 0.59573 0.69519 0.38905 0.0
C938 C 0.54589 0.67656 0.43358 0.0
C939 C 0.5695 0.62628 0.46252 0.0
C940 C 0.62223 0.73325 0.41519 0.0
C941 C 0.63563 0.6699 0.41882 0.0
H942 H 0.52227 0.61123 0.46956 0.0
H943 H 0.50881 0.63783 0.45235 0.0
H944 H 0.54839 0.71795 0.42148 0.0
H945 H 0.59053 0.74944 0.41337 0.0
H946 H 0.66567 0.74351 0.39874 0.0
H947 H 0.67253 0.7085 0.399 0.0
H948 H 0.63364 0.6293 0.43401 0.0
H949 H 0.59843 0.60667 0.4595 0.0
H950 H 0.56817 0.61405 0.38045 0.0
H951 H 0.59492 0.68094 0.3541 0.0
H952 H 0.64989 0.70111 0.49158 0.0
H953 H 0.59069 0.70578 0.50603 0.0
H954 H 0.06573 0.72419 0.19518 0.0
H955 H 0.07023 0.72178 0.157 0.0
H956 H 1.00039 0.7027 0.14775 0.0
H957 H 0.99596 0.70511 0.186 0.0
H958 H 0.04788 0.68419 0.13114 0.0
H959 H 0.03203 0.75187 0.10295 0.0
H960 H 0.0381 0.74936 0.13018 0.0
H961 H 0.01025 0.73137 0.11977 0.0
C962 C 0.05147 0.7199 0.18492 0.0
C963 C 0.03054 0.71504 0.19361 0.0
C964 C 0.05399 0.71837 0.16307 0.0
C965 C 0.03574 0.71222 0.14919 0.0
C966 C 0.01492 0.70787 0.15786 0.0
H967 H 0.02147 0.65874 0.02043 0.0
H968 H 0.01939 0.66381 0.05854 0.0
C969 C 0.01236 0.70926 0.17978 0.0
C970 C 0.0383 0.70941 0.12591 0.0
H971 H 0.03396 0.72805 0.07681 0.0
C972 C 0.04485 0.69384 0.11931 0.0
C973 C 0.03465 0.72208 0.11023 0.0
C974 C 0.02857 0.73977 0.11606 0.0
C975 C 0.04742 0.69034 0.09775 0.0
C976 C 0.04321 0.70259 0.08204 0.0
C977 C 0.03707 0.71847 0.08865 0.0
C978 C 0.0451 0.69919 0.05876 0.0
C979 C 0.05502 0.67376 0.092 0.0
C980 C 0.06006 0.71732 0.0458 0.0
C981 C 0.06136 0.71435 0.02396 0.0
C982 C 0.04765 0.69319 1.01444 0.0
C983 C 0.03265 0.6751 0.02735 0.0
C984 C 0.03145 0.67802 0.04919 0.0
H985 H 0.06323 0.67032 0.10551 0.0
H986 H 0.0401 0.65753 0.08726 0.0
H987 H 0.06706 0.6801 0.07857 0.0
H988 H 0.07069 0.73388 0.05256 0.0
H989 H 0.07265 0.72877 1.01439 0.0
H990 H 0.28499 0.34006 1.01335 0.0
H991 H 0.27999 0.33321 0.05158 0.0
H992 H 0.3518 0.37607 0.06041 0.0
H993 H 0.35657 0.38335 0.02237 0.0
H994 H 0.29418 0.31349 0.0782 0.0
H995 H 0.33047 0.4017 0.10511 0.0
H996 H 0.32424 0.39395 0.07777 0.0
H997 H 0.35014 0.39804 0.08929 0.0
C998 C 0.2996 0.34832 0.02355 0.0
C999 C 0.32111 0.36258 1.01485 0.0
C1000 C 0.29679 0.3443 0.04545 0.0
C1001 C 0.31542 0.35441 0.05931 0.0
C1002 C 0.33695 0.36854 0.05046 0.0
H1003 H 0.31881 0.30476 0.18679 0.0
H1004 H 0.32035 0.31178 0.14873 0.0
C1005 C 0.33973 0.37265 0.02861 0.0
C1006 C 0.31246 0.34952 0.08275 0.0
H1007 H 0.32541 0.37458 0.13149 0.0
C1008 C 0.30093 0.32693 0.08979 0.0
C1009 C 0.32082 0.36683 0.09823 0.0
C1010 C 0.33188 0.39147 0.09224 0.0
C1011 C 0.29804 0.32124 0.11147 0.0
C1012 C 0.30738 0.33854 0.12694 0.0
C1013 C 0.31843 0.36114 0.11991 0.0
C1014 C 0.3059 0.33367 0.15037 0.0
C1015 C 0.28448 0.29661 0.1175 0.0
C1016 C 0.29785 0.34396 0.16452 0.0
C1017 C 0.29719 0.34008 0.18642 0.0
C1018 C 0.30453 0.32577 0.19483 0.0
C1019 C 0.31257 0.31548 0.18077 0.0
C1020 C 0.31336 0.31945 0.15892 0.0
H1021 H 0.27254 0.28642 0.10479 0.0
H1022 H 0.29614 0.28994 0.1201 0.0
H1023 H 0.27467 0.29419 0.13217 0.0
H1024 H 0.29211 0.35513 0.15863 0.0
H1025 H 0.29124 0.34854 0.19685 0.0
H1026 H 0.69156 0.95666 0.19181 0.0
H1027 H 0.68471 0.95213 0.15353 0.0
H1028 H 0.68426 0.015 0.15153 0.0
H1029 H 0.69185 0.01981 0.18941 0.0
H1030 H 0.65041 0.9472 0.12961 0.0
H1031 H 0.72592 0.0259 0.10358 0.0
H1032 H 0.7227 0.01566 0.13027 0.0
H1033 H 0.70946 0.03154 0.12198 0.0
C1034 C 0.69033 0.96964 0.18308 0.0
C1035 C 0.69238 0.98865 0.19369 0.0
C1036 C 0.68628 0.96701 0.16117 0.0
C1037 C 0.68429 0.98338 0.14921 0.0
C1038 C 0.68631 1.00234 0.15995 0.0
H1039 H 0.65064 0.99896 1.01917 0.0
H1040 H 0.6576 1.00112 0.05732 0.0
C1041 C 0.69048 0.00502 0.18175 0.0
C1042 C 0.67941 0.9804 0.1258 0.0
H1043 H 0.69667 0.00734 0.078 0.0
C1044 C 0.66071 0.96032 0.11836 0.0
C1045 C 0.6927 0.99735 0.11077 0.0
C1046 C 0.71394 0.01871 0.11701 0.0
C1047 C 0.65464 0.95707 0.09678 0.0
C1048 C 0.66766 0.97423 0.08188 0.0
C1049 C 0.68647 0.99418 0.08925 0.0
C1050 C 0.66208 0.97194 0.05865 0.0
C1051 C 0.63388 0.93548 0.09017 0.0
C1052 C 0.66219 0.95484 0.04635 0.0
C1053 C 0.65822 0.95362 0.02445 0.0
C1054 C 0.65381 0.96935 1.01423 0.0
C1055 C 0.65352 0.98631 0.02658 0.0
C1056 C 0.65765 0.98763 0.04841 0.0
H1057 H 0.62272 0.92653 0.10378 0.0
H1058 H 0.62402 0.9389 0.07829 0.0
H1059 H 0.63914 0.92405 0.08294 0.0
H1060 H 0.66607 0.9428 0.05356 0.0
H1061 H 0.65934 0.94081 1.01538 0.0
H1062 H 0.66298 0.01833 0.52219 0.0
H1063 H 0.66792 0.01503 0.48431 0.0
H1064 H 0.73389 0.07466 0.48706 0.0
H1065 H 0.7293 0.07729 0.52512 0.0
H1066 H 0.67347 0.03959 0.45057 0.0
H1067 H 0.75098 0.03357 0.45874 0.0
H1068 H 0.73436 0.03263 0.48118 0.0
H1069 H 0.75429 0.05931 0.46945 0.0
C1070 C 0.67843 0.03088 0.51463 0.0
C1071 C 0.69557 0.04828 0.5267 0.0
C1072 C 0.68132 0.02895 0.49291 0.0
C1073 C 0.70152 0.04428 0.48254 0.0
C1074 C 0.71836 0.06216 0.4945 0.0
H1075 H 0.7438 0.05929 0.34915 0.0
H1076 H 0.74136 0.06425 0.38727 0.0
C1077 C 0.71555 0.06397 0.51629 0.0
C1078 C 0.70479 0.04141 0.45939 0.0
H1079 H 0.74045 0.03712 0.42385 0.0
C1080 C 0.68811 0.03897 0.44485 0.0
C1081 C 0.72382 0.04048 0.45153 0.0
C1082 C 0.74176 0.0414 0.46605 0.0
C1083 C 0.69004 0.03598 0.42305 0.0
C1084 C 0.7091 0.03519 0.41524 0.0
C1085 C 0.72586 0.03778 0.42967 0.0
C1086 C 0.71171 0.03148 0.39224 0.0
C1087 C 0.67174 0.03401 0.40842 0.0
C1088 C 0.69634 0.01117 0.38219 0.0
C1089 C 0.69799 0.00816 0.36046 0.0
C1090 C 0.71508 0.02534 0.3481 0.0
C1091 C 0.73079 0.04547 0.35823 0.0
C1092 C 0.72926 0.0484 0.38005 0.0
H1093 H 0.66099 0.04001 0.41592 0.0
H1094 H 0.67915 0.04384 0.39374 0.0
H1095 H 0.66072 0.01603 0.404 0.0
H1096 H 0.68278 0.99769 0.39112 0.0
H1097 H 0.68544 0.99259 0.35312 0.0
H1098 H 0.94103 0.6586 0.52586 0.0
H1099 H 0.94267 0.66504 0.4875 0.0
H1100 H 1.00418 0.66202 0.48424 0.0
H1101 H 1.00213 0.65498 0.52223 0.0
H1102 H 0.97306 0.69862 0.46281 0.0
H1103 H 0.97004 0.6199 0.43733 0.0
H1104 H 0.96404 0.6241 0.46407 0.0
H1105 H 0.99283 0.63555 0.45532 0.0
C1106 C 0.95469 0.659 0.51684 0.0
C1107 C 0.97136 0.65613 0.52711 0.0
C1108 C 0.95572 0.66281 0.49489 0.0
C1109 C 0.97336 0.66369 0.48258 0.0
C1110 C 0.99002 0.66085 0.49297 0.0
H1111 H 0.02215 0.69398 0.35291 0.0
H1112 H 0.01639 0.68662 0.3909 0.0
C1113 C 0.98893 0.65697 0.51481 0.0
C1114 C 0.97485 0.66824 0.45913 0.0
H1115 H 0.98191 0.64905 0.41137 0.0
C1116 C 0.97475 0.68761 0.45159 0.0
C1117 C 0.97703 0.65399 0.44417 0.0
C1118 C 0.97575 0.63211 0.4506 0.0
C1119 C 0.97752 0.69345 0.42993 0.0
C1120 C 0.98025 0.67948 0.41509 0.0
C1121 C 0.98 0.65995 0.42258 0.0
C1122 C 0.98393 0.68498 0.39186 0.0
C1123 C 0.97826 0.71499 0.42321 0.0
C1124 C 0.96771 0.68665 0.37939 0.0
C1125 C 0.971 0.6908 0.35751 0.0
C1126 C 0.99055 0.69335 0.34753 0.0
C1127 C 0.00689 0.69206 0.36008 0.0
C1128 C 1.00357 0.6878 0.38184 0.0
H1129 H 0.98135 0.72646 0.43674 0.0
H1130 H 0.99166 0.72411 0.41122 0.0
H1131 H 0.96179 0.71081 0.41606 0.0
H1132 H 0.95222 0.6842 0.38646 0.0
H1133 H 0.95804 0.69155 0.3483 0.0
H1134 H 0.37084 0.36449 0.52195 0.0
H1135 H 0.36281 0.35872 0.48407 0.0
H1136 H 0.35622 0.29273 0.4889 0.0
H1137 H 0.36324 0.29816 0.52695 0.0
H1138 H 0.38177 0.35233 0.45085 0.0
H1139 H 0.29827 0.2751 0.45989 0.0
H1140 H 0.31387 0.2922 0.4821 0.0
H1141 H 0.32067 0.272 0.47112 0.0
C1142 C 0.36794 0.34885 0.51486 0.0
C1143 C 0.36804 0.33195 0.52753 0.0
C1144 C 0.36324 0.34549 0.49313 0.0
C1145 C 0.35834 0.32504 0.48332 0.0
C1146 C 0.35926 0.30844 0.49588 0.0
H1147 H 0.33015 0.27883 0.351 0.0
H1148 H 0.33787 0.28251 0.38909 0.0
C1149 C 0.36376 0.31173 0.51768 0.0
C1150 C 0.35228 0.32125 0.46013 0.0
H1151 H 0.31246 0.28483 0.42496 0.0
C1152 C 0.36653 0.33758 0.44532 0.0
C1153 C 0.33235 0.30206 0.45248 0.0
C1154 C 0.31529 0.28446 0.46723 0.0
C1155 C 0.36169 0.33516 0.42348 0.0
C1156 C 0.34188 0.31595 0.41588 0.0
C1157 C 0.32768 0.29954 0.43059 0.0
C1158 C 0.33561 0.31279 0.39281 0.0
C1159 C 0.37811 0.3531 0.40859 0.0
C1160 C 0.33107 0.32813 0.38203 0.0
C1161 C 0.32623 0.32578 0.3603 0.0
C1162 C 0.32568 0.30798 0.34866 0.0
C1163 C 0.32979 0.29237 0.35952 0.0
C1164 C 0.33445 0.29461 0.38132 0.0
H1165 H 0.39489 0.3638 0.41603 0.0
H1166 H 0.38042 0.34538 0.3941 0.0
H1167 H 0.37132 0.36421 0.40388 0.0
H1168 H 0.33152 0.34215 0.39039 0.0
H1169 H 0.32345 0.33826 0.35242 0.0
H1170 H 0.94031 0.22117 0.85888 0.0
H1171 H 0.92542 0.22925 0.89093 0.0
H1172 H 0.98771 0.29235 0.89805 0.0
H1173 H 1.00247 0.28476 0.86604 0.0
H1174 H 0.94368 0.23909 0.93351 0.0
H1175 H 0.93833 0.31058 0.89826 0.0
H1176 H 0.94104 0.29006 0.88254 0.0
H1177 H 0.96544 0.31263 0.89514 0.0
C1178 C 0.95083 0.23678 0.86726 0.0
C1179 C 0.97265 0.25226 0.85981 0.0
C1180 C 0.94232 0.24132 0.88563 0.0
C1181 C 0.95533 0.26155 0.89675 0.0
C1182 C 0.97723 0.27677 0.8896 0.0
H1183 H 0.95123 0.33347 1.00532 0.0
H1184 H 0.95864 0.31948 0.97276 0.0
C1185 C 0.98576 0.27223 0.87138 0.0
C1186 C 0.94619 0.26709 0.91573 0.0
H1187 H 0.93495 0.30693 0.93559 0.0
C1188 C 0.94148 0.25375 0.93394 0.0
C1189 C 0.94328 0.2862 0.91626 0.0
C1190 C 0.94707 0.3006 0.89696 0.0
C1191 C 0.93498 0.25962 0.95291 0.0
C1192 C 0.9327 0.27913 0.95358 0.0
C1193 C 0.93675 0.29204 0.93516 0.0
C1194 C 0.92752 0.28733 0.97345 0.0
C1195 C 0.93159 0.24547 0.9723 0.0
C1196 C 0.90735 0.27409 0.9847 0.0
C1197 C 0.90295 0.28214 1.00343 0.0
C1198 C 0.91853 0.30373 1.0112 0.0
C1199 C 0.93857 0.31698 0.9997 0.0
C1200 C 0.94295 0.30892 0.98108 0.0
H1201 H 0.9389 0.23424 0.97036 0.0
H1202 H 0.9394 0.25634 0.9863 0.0
H1203 H 0.91322 0.23467 0.97538 0.0
H1204 H 0.89493 0.25757 0.97893 0.0
H1205 H 0.88726 0.27155 1.01171 0.0
H1206 H 0.69703 0.63129 1.00674 0.0
H1207 H 0.71166 0.65339 0.97455 0.0
H1208 H 0.77272 0.64985 0.98026 0.0
H1209 H 0.75788 0.62706 1.01242 0.0
H1210 H 0.75152 0.69551 0.97066 0.0
H1211 H 0.75353 0.63122 0.91844 0.0
H1212 H 0.73743 0.62372 0.94262 0.0
H1213 H 0.76758 0.63586 0.94343 0.0
C1214 C 0.71337 0.63472 1.00098 0.0
C1215 C 0.72611 0.62706 1.01215 0.0
C1216 C 0.72182 0.64759 0.98262 0.0
C1217 C 0.74319 0.65313 0.9748 0.0
C1218 C 0.75602 0.64551 0.98578 0.0
H1219 H 0.80873 0.73084 0.85923 0.0
H1220 H 0.80196 0.71005 0.89253 0.0
C1221 C 0.74758 0.63263 1.00428 0.0
C1222 C 0.75212 0.6676 0.95562 0.0
H1223 H 0.76627 0.6674 0.90394 0.0
C1224 C 0.75487 0.68939 0.95611 0.0
C1225 C 0.75667 0.65972 0.93665 0.0
C1226 C 0.75354 0.6363 0.93506 0.0
C1227 C 0.76166 0.70334 0.93815 0.0
C1228 C 0.76539 0.69517 0.91896 0.0
C1229 C 0.76338 0.67366 0.91862 0.0
C1230 C 0.76989 0.7081 0.89886 0.0
C1231 C 0.76479 0.72676 0.93994 0.0
C1232 C 0.75403 0.71368 0.89114 0.0
C1233 C 0.7578 0.72547 0.87217 0.0
C1234 C 0.77754 0.73196 0.86025 0.0
C1235 C 0.79335 0.72615 0.86791 0.0
C1236 C 0.78953 0.71429 0.88698 0.0
H1237 H 0.76832 0.73295 0.95645 0.0
H1238 H 0.77883 0.73896 0.92975 0.0
H1239 H 0.74902 0.72633 0.93491 0.0
H1240 H 0.73846 0.70856 0.89965 0.0
H1241 H 0.74487 0.72895 0.86657 0.0
H1242 H 0.39509 0.06929 1.00598 0.0
H1243 H 0.37342 0.0613 0.97354 0.0
H1244 H 0.37042 0.12243 0.98117 0.0
H1245 H 0.393 0.1311 1.01344 0.0
H1246 H 0.3304 0.05414 0.9686 0.0
H1247 H 0.3907 0.12747 0.91999 0.0
H1248 H 0.399 0.11972 0.94419 0.0
H1249 H 0.38331 0.1344 0.94495 0.0
C1250 C 0.39036 0.08141 1.0006 0.0
C1251 C 0.39618 0.10105 1.01235 0.0
C1252 C 0.37769 0.07664 0.98208 0.0
C1253 C 0.37044 0.09134 0.97468 0.0
C1254 C 0.37614 0.11099 0.9863 0.0
H1255 H 0.29228 0.07572 0.85829 0.0
H1256 H 0.30997 0.08894 0.89307 0.0
C1257 C 0.38889 0.11581 1.0049 0.0
C1258 C 0.35631 0.08544 0.95522 0.0
H1259 H 0.35561 0.10216 0.90449 0.0
C1260 C 0.33589 0.06473 0.95463 0.0
C1261 C 0.36331 0.09928 0.93698 0.0
C1262 C 0.38535 0.12138 0.93638 0.0
C1263 C 0.32258 0.05732 0.93631 0.0
C1264 C 0.32995 0.07077 0.91786 0.0
C1265 C 0.34994 0.09185 0.91862 0.0
C1266 C 0.31816 0.0624 0.89727 0.0
C1267 C 0.30074 0.03502 0.93682 0.0
C1268 C 0.31684 0.04312 0.88806 0.0
C1269 C 0.30683 0.03561 0.86831 0.0
C1270 C 0.29789 0.04721 0.85715 0.0
C1271 C 0.29881 0.0663 0.86653 0.0
C1272 C 0.30904 0.07395 0.88634 0.0
H1273 H 0.29416 0.03021 0.95315 0.0
H1274 H 0.2876 0.0356 0.92696 0.0
H1275 H 0.30377 0.02162 0.93055 0.0
H1276 H 0.32401 0.03409 0.89598 0.0
H1277 H 0.30626 0.02074 0.86165 0.0
H1278 H 0.28473 0.99838 0.67341 0.0
H1279 H 0.29239 0.98369 0.64141 0.0
H1280 H 0.22801 0.92252 0.64728 0.0
H1281 H 0.21987 0.93738 0.67926 0.0
H1282 H 0.2947 0.94357 0.63812 0.0
H1283 H 0.22883 0.94168 0.58516 0.0
H1284 H 0.23742 0.95798 0.60918 0.0
H1285 H 0.21935 0.92788 0.61028 0.0
C1286 C 0.2719 0.98199 0.66773 0.0
C1287 C 0.25152 0.96922 0.67889 0.0
C1288 C 0.27644 0.97352 0.64948 0.0
C1289 C 0.26072 0.95209 0.64177 0.0
C1290 C 0.24028 0.93925 0.65273 0.0
H1291 H 0.27344 0.88614 0.527 0.0
H1292 H 0.25917 0.89319 0.55996 0.0
C1293 C 0.23573 0.9477 0.67112 0.0
C1294 C 0.26639 0.94312 0.62273 0.0
H1295 H 0.2524 0.92892 0.57104 0.0
C1296 C 0.28536 0.94025 0.62349 0.0
C1297 C 0.25411 0.93858 0.60367 0.0
C1298 C 0.23387 0.94179 0.60182 0.0
C1299 C 0.2926 0.93335 0.60569 0.0
C1300 C 0.28088 0.92967 0.58638 0.0
C1301 C 0.26144 0.9318 0.58579 0.0
C1302 C 0.28941 0.92504 0.56643 0.0
C1303 C 0.31277 0.93004 0.60778 0.0
C1304 C 0.31099 0.94069 0.55888 0.0
C1305 C 0.31916 0.93675 0.5401 0.0
C1306 C 0.30592 0.91706 0.52822 0.0
C1307 C 0.28413 0.90148 0.53567 0.0
C1308 C 0.27595 0.90546 0.55455 0.0
H1309 H 0.31522 0.92644 0.62435 0.0
H1310 H 0.31096 0.91598 0.59768 0.0
H1311 H 0.32823 0.94575 0.60284 0.0
H1312 H 0.32147 0.95623 0.56738 0.0
H1313 H 0.33572 0.94951 0.53465 0.0
H1314 H 0.08303 0.3325 0.69568 0.0
H1315 H 0.09542 0.3509 0.66125 0.0
H1316 H 0.04487 0.29018 0.63085 0.0
H1317 H 0.03238 0.27158 0.66538 0.0
H1318 H 0.1096 0.33597 0.6221 0.0
H1319 H 0.03247 0.34348 0.6135 0.0
H1320 H 0.04186 0.33897 0.63871 0.0
H1321 H 0.02838 0.3161 0.62036 0.0
C1322 C 0.07471 0.32296 0.68164 0.0
C1323 C 0.05664 0.3006 0.68327 0.0
C1324 C 0.08184 0.3335 0.66198 0.0
C1325 C 0.07093 0.32202 0.6435 0.0
C1326 C 0.05343 0.29941 0.64494 0.0
H1327 H 0.10053 0.359 0.51179 0.0
H1328 H 0.09492 0.34165 0.54669 0.0
C1329 C 0.04643 0.28874 0.66465 0.0
C1330 C 0.07722 0.33415 0.6229 0.0
H1331 H 0.05843 0.35675 0.58527 0.0
C1332 C 0.09841 0.34047 0.61401 0.0
C1333 C 0.06276 0.34032 0.61253 0.0
C1334 C 0.04013 0.33456 0.62173 0.0
C1335 C 0.1053 0.35243 0.59481 0.0
C1336 C 0.09067 0.35828 0.58427 0.0
C1337 C 0.06965 0.35227 0.59336 0.0
C1338 C 0.09646 0.36992 0.56342 0.0
C1339 C 0.12826 0.35893 0.58598 0.0
C1340 C 0.09947 0.39174 0.56118 0.0
C1341 C 0.10291 0.40183 0.5412 0.0
C1342 C 0.10298 0.39007 0.52307 0.0
C1343 C 0.10058 0.36849 0.52547 0.0
C1344 C 0.09743 0.35856 0.54541 0.0
H1345 H 0.1393 0.35739 0.59794 0.0
H1346 H 0.12622 0.34762 0.57261 0.0
H1347 H 0.13679 0.37654 0.57993 0.0
H1348 H 0.09866 0.40078 0.57486 0.0
H1349 H 0.10441 0.41833 0.53983 0.0
H1350 H 0.63654 0.68272 0.52763 0.0
H1351 H 0.65525 0.69509 0.56172 0.0
H1352 H 0.64592 0.75303 0.5597 0.0
H1353 H 0.62664 0.74033 0.52554 0.0
H1354 H 0.69411 0.73307 0.56975 0.0
H1355 H 0.62638 0.7316 0.61936 0.0
H1356 H 0.62078 0.71839 0.59378 0.0
H1357 H 0.63285 0.74848 0.59592 0.0
C1358 C 0.6382 0.69796 0.53456 0.0
C1359 C 0.63013 0.71057 0.52385 0.0
C1360 C 0.64895 0.70505 0.55407 0.0
C1361 C 0.652 0.72498 0.56347 0.0
C1362 C 0.64344 0.73737 0.55307 0.0
H1363 H 0.72845 0.78875 0.68036 0.0
H1364 H 0.70973 0.78335 0.64595 0.0
C1365 C 0.63244 0.73012 0.53352 0.0
C1366 C 0.66526 0.7331 0.58348 0.0
H1367 H 0.66232 0.74566 0.63519 0.0
C1368 C 0.68711 0.73588 0.58401 0.0
C1369 C 0.65632 0.73695 0.60216 0.0
C1370 C 0.63273 0.73354 0.60294 0.0
C1371 C 0.69998 0.7419 0.60262 0.0
C1372 C 0.69084 0.7452 0.62137 0.0
C1373 C 0.66933 0.74319 0.62078 0.0
C1374 C 0.70267 0.74898 0.64197 0.0
C1375 C 0.72325 0.7445 0.60219 0.0
C1376 C 0.70496 0.73153 0.65113 0.0
C1377 C 0.7155 0.73453 0.67071 0.0
C1378 C 0.72411 0.75512 0.68164 0.0
C1379 C 0.72216 0.77277 0.67228 0.0
C1380 C 0.71135 0.76965 0.65271 0.0
H1381 H 0.72992 0.74659 0.58587 0.0
H1382 H 0.73528 0.75926 0.61173 0.0
H1383 H 0.72243 0.72916 0.60908 0.0
H1384 H 0.69831 0.71541 0.64323 0.0
H1385 H 0.71687 0.72064 0.67736 0.0
H1386 H 0.39671 0.41418 0.86062 0.0
H1387 H 0.40118 0.41305 0.82229 0.0
H1388 H 0.33444 0.35468 0.81833 0.0
H1389 H 0.32973 0.35638 0.85646 0.0
H1390 H 0.40243 0.38257 0.79753 0.0
H1391 H 0.32959 0.3906 0.77128 0.0
H1392 H 0.3393 0.39558 0.79819 0.0
H1393 H 0.32114 0.3672 0.7889 0.0
C1394 C 0.38273 0.40154 0.85146 0.0
C1395 C 0.36256 0.38581 0.86159 0.0
C1396 C 0.38539 0.40071 0.8295 0.0
C1397 C 0.368 0.38407 0.81697 0.0
C1398 C 0.34793 0.3682 0.82721 0.0
H1399 H 0.35147 0.33971 0.68557 0.0
H1400 H 0.34863 0.3441 0.72361 0.0
C1401 C 0.34524 0.36911 0.84912 0.0
C1402 C 0.37119 0.38271 0.7935 0.0
H1403 H 0.3466 0.37861 0.74529 0.0
C1404 C 0.39028 0.38193 0.78615 0.0
C1405 C 0.35549 0.38186 0.77831 0.0
C1406 C 0.33537 0.38409 0.78453 0.0
C1407 C 0.39371 0.37971 0.76447 0.0
C1408 C 0.3778 0.37846 0.74938 0.0
C1409 C 0.35883 0.37944 0.75667 0.0
C1410 C 0.38019 0.37568 0.72606 0.0
C1411 C 0.41406 0.37803 0.75798 0.0
C1412 C 0.39888 0.3919 0.71436 0.0
C1413 C 0.40047 0.38943 0.69245 0.0
C1414 C 0.38341 0.37069 0.68162 0.0
C1415 C 0.3649 0.35437 0.69337 0.0
C1416 C 0.36324 0.3569 0.71519 0.0
H1417 H 0.42156 0.37375 0.7715 0.0
H1418 H 0.40955 0.36507 0.74553 0.0
H1419 H 0.42715 0.39455 0.75151 0.0
H1420 H 0.41206 0.40677 0.7221 0.0
H1421 H 0.41484 0.40237 0.68388 0.0
H1422 H 0.68802 0.0291 0.68595 0.0
H1423 H 0.68239 0.02209 0.72396 0.0
H1424 H 0.61799 0.01919 0.71934 0.0
H1425 H 0.62344 0.02561 0.68107 0.0
H1426 H 0.67776 0.04442 0.75594 0.0
H1427 H 0.59877 0.96165 0.7511 0.0
H1428 H 0.61585 0.97548 0.72824 0.0
H1429 H 0.59681 0.98415 0.73855 0.0
C1430 C 0.67264 0.02693 0.69305 0.0
C1431 C 0.65609 0.02771 0.68041 0.0
C1432 C 0.6694 0.02293 0.71487 0.0
C1433 C 0.64949 0.01954 0.7248 0.0
C1434 C 0.63322 0.02103 0.71223 0.0
H1435 H 0.60689 0.994 0.85899 0.0
H1436 H 0.60909 1.0014 0.82075 0.0
C1437 C 0.63644 0.02497 0.69032 0.0
C1438 C 0.64616 0.0148 0.74823 0.0
H1439 H 0.61064 0.97696 0.78528 0.0
C1440 C 0.66306 0.02962 0.76225 0.0
C1441 C 0.627 0.99552 0.75684 0.0
C1442 C 0.60866 0.97816 0.74292 0.0
C1443 C 0.66134 0.02585 0.78426 0.0
C1444 C 0.64231 0.00648 0.79284 0.0
C1445 C 0.62523 0.99182 0.77891 0.0
C1446 C 0.64026 1.00095 0.81607 0.0
C1447 C 0.67986 0.04293 0.79821 0.0
C1448 C 0.6566 0.99755 0.82634 0.0
C1449 C 0.65525 0.99319 0.84811 0.0
C1450 C 0.63752 0.99208 0.86035 0.0
C1451 C 0.62077 0.99479 0.85005 0.0
C1452 C 0.62206 0.99906 0.82816 0.0
H1453 H 0.68969 0.05957 0.79024 0.0
H1454 H 0.67286 0.04534 0.81314 0.0
H1455 H 0.69171 0.0368 0.80217 0.0
H1456 H 0.67054 0.99833 0.8175 0.0
H1457 H 0.66832 0.99098 0.8555 0.0
H1458 H 0.99774 0.61733 0.86404 0.0
H1459 H 0.98965 0.61183 0.82615 0.0
H1460 H 0.04427 0.67941 0.81415 0.0
H1461 H 0.05163 0.68517 0.85213 0.0
H1462 H 0.01009 0.67296 0.79146 0.0
H1463 H 0.01877 0.5976 0.77933 0.0
H1464 H 0.99787 0.59273 0.79887 0.0
H1465 H 0.02707 0.61342 0.80356 0.0
C1466 C 0.00824 0.63087 0.85325 0.0
C1467 C 0.02556 0.65157 0.86116 0.0
C1468 C 1.00368 0.62769 0.83147 0.0
C1469 C 0.01655 0.645 0.81684 0.0
C1470 C 0.03405 0.66563 0.82481 0.0
H1471 H 0.01731 0.62799 0.67964 0.0
H1472 H 0.02367 0.63006 0.71781 0.0
C1473 C 0.03844 0.66888 0.84659 0.0
C1474 C 0.01125 0.64211 0.79348 0.0
H1475 H 1.00219 0.60735 0.75115 0.0
C1476 C 0.00846 0.65861 0.78271 0.0
C1477 C 0.00933 0.6236 0.78161 0.0
C1478 C 0.01365 0.60596 0.79137 0.0
C1479 C 1.00372 0.65711 0.76087 0.0
C1480 C 1.00091 0.63815 0.74917 0.0
C1481 C 1.00392 0.62176 0.75989 0.0
C1482 C 0.99595 0.63556 0.72575 0.0
C1483 C 1.00257 0.6764 0.75048 0.0
C1484 C 0.97774 0.63714 0.71704 0.0
C1485 C 0.97425 0.63616 0.69506 0.0
C1486 C 0.98865 0.63328 0.68117 0.0
C1487 C 0.00602 0.6304 0.68989 0.0
C1488 C 0.00965 0.6316 0.7118 0.0
H1489 H 0.01169 0.69221 0.7598 0.0
H1490 H 0.00992 0.67972 0.73439 0.0
H1491 H 0.98464 0.67208 0.7493 0.0
H1492 H 0.96631 0.63937 0.72722 0.0
H1493 H 0.96061 0.63824 0.68888 0.0
H1494 H 0.55859 0.60409 0.34553 0.0
H1495 H 0.56834 0.59071 0.31367 0.0
H1496 H 0.62568 0.65715 0.30361 0.0
H1497 H 0.61719 0.67022 0.33601 0.0
H1498 H 0.57107 0.60097 0.27358 0.0
H1499 H 0.65632 0.62092 0.299 0.0
H1500 H 0.63643 0.62218 0.31682 0.0
H1501 H 0.65369 0.64572 0.29972 0.0
C1502 C 0.57348 0.61584 0.33675 0.0
C1503 C 0.58709 0.63831 0.34367 0.0
C1504 C 0.57895 0.60816 0.31837 0.0
C1505 C 0.59812 0.62272 0.3064 0.0
C1506 C 0.61121 0.64532 0.31281 0.0
H1507 H 0.6246 0.61222 0.17564 0.0
H1508 H 0.61083 0.61667 0.20954 0.0
C1509 C 0.60597 0.65292 0.33127 0.0
C1510 C 0.60432 0.61456 0.28701 0.0
H1511 H 0.64891 0.61516 0.26183 0.0
C1512 C 0.58804 0.60386 0.27114 0.0
C1513 C 0.62627 0.61767 0.28387 0.0
C1514 C 0.64407 0.62701 0.30088 0.0
C1515 C 0.59335 0.5972 0.25198 0.0
C1516 C 0.61581 0.60201 0.24818 0.0
C1517 C 0.63179 0.61175 0.26444 0.0
C1518 C 0.6234 0.59813 0.22725 0.0
C1519 C 0.57468 0.58487 0.23614 0.0
C1520 C 0.63571 0.5867 0.22567 0.0
C1521 C 0.64432 0.58469 0.20618 0.0
C1522 C 0.64087 0.59413 0.18778 0.0
C1523 C 0.62803 0.60504 0.1894 0.0
C1524 C 0.6197 0.60726 0.20885 0.0
H1525 H 0.55799 0.57521 0.24406 0.0
H1526 H 0.57386 0.59735 0.22551 0.0
H1527 H 0.57755 0.57299 0.22649 0.0
H1528 H 0.63898 0.5796 0.2396 0.0
H1529 H 0.65428 0.57637 0.20569 0.0
H1530 H 0.4177 0.01938 0.17798 0.0
H1531 H 0.412 1.002 0.21267 0.0
H1532 H 0.44008 0.06757 0.24171 0.0
H1533 H 0.44473 0.08504 0.20695 0.0
H1534 H 0.43863 0.00511 0.24461 0.0
H1535 H 0.38045 0.0345 0.27169 0.0
H1536 H 0.38972 0.03729 0.24471 0.0
H1537 H 0.4078 0.05716 0.26427 0.0
C1538 C 0.42253 0.03018 0.19172 0.0
C1539 C 0.43124 0.05364 0.18957 0.0
C1540 C 0.41942 0.02018 0.21161 0.0
C1541 C 0.42502 0.03332 0.22996 0.0
C1542 C 0.43497 0.05691 0.22787 0.0
H1543 H 0.41094 1.00043 0.36338 0.0
H1544 H 0.42276 0.01834 0.32885 0.0
C1545 C 0.43794 0.06696 0.20792 0.0
C1546 C 0.4199 0.02211 0.2511 0.0
H1547 H 0.39094 0.01587 0.29695 0.0
C1548 C 0.42817 0.00746 0.25602 0.0
C1549 C 0.40604 0.02492 0.26602 0.0
C1550 C 0.39529 0.03913 0.26138 0.0
C1551 C 0.42327 0.99589 0.27543 0.0
C1552 C 0.40966 0.99895 0.29035 0.0
C1553 C 0.40144 0.0136 0.28551 0.0
C1554 C 0.40389 0.98738 0.31124 0.0
C1555 C 0.43293 0.98074 0.28002 0.0
C1556 C 0.38954 0.96386 0.31292 0.0
C1557 C 0.3825 0.9535 0.33277 0.0
C1558 C 0.38961 0.96649 0.35132 0.0
C1559 C 0.40473 0.98991 0.34948 0.0
C1560 C 0.41163 1.00021 0.32972 0.0
H1561 H 0.44638 0.98335 0.26862 0.0
H1562 H 0.44001 0.98373 0.2962 0.0
H1563 H 0.41924 0.96283 0.27905 0.0
H1564 H 0.38314 0.95363 0.29887 0.0
H1565 H 0.37071 0.93551 0.33353 0.0
H1566 H 0.06259 0.40337 0.33599 0.0
H1567 H 0.04164 0.39685 0.30343 0.0
H1568 H 0.02866 0.4508 0.31874 0.0
H1569 H 0.05135 0.45882 0.35063 0.0
H1570 H 0.99963 0.38315 0.29658 0.0
H1571 H 0.0485 0.46769 0.25961 0.0
H1572 H 0.0582 0.45996 0.28289 0.0
H1573 H 0.03725 0.46855 0.28489 0.0
C1574 C 0.05599 0.41444 0.33228 0.0
C1575 C 0.05918 0.43194 0.34611 0.0
C1576 C 0.0436 0.4104 0.31365 0.0
C1577 C 0.03371 0.42348 0.30828 0.0
C1578 C 0.03654 0.44077 0.3221 0.0
H1579 H 0.93182 0.36983 0.20579 0.0
H1580 H 0.94902 0.38284 0.24057 0.0
C1581 C 0.0493 0.44512 0.34063 0.0
C1582 C 0.01999 0.41837 0.28853 0.0
H1583 H 0.01473 0.44141 0.24246 0.0
C1584 C 1.00297 0.39593 0.28476 0.0
C1585 C 0.02432 0.43493 0.27293 0.0
C1586 C 0.04319 0.45907 0.27514 0.0
C1587 C 0.99064 0.38949 0.2658 0.0
C1588 C 0.99471 0.40611 0.25032 0.0
C1589 C 0.01136 0.42865 0.25431 0.0
C1590 C 0.98355 0.4002 0.22915 0.0
C1591 C 0.97419 0.36472 0.26221 0.0
C1592 C 0.99695 0.40684 0.21089 0.0
C1593 C 0.98712 0.40004 0.19098 0.0
C1594 C 0.96356 0.38607 0.18867 0.0
C1595 C 0.94999 0.38044 0.20687 0.0
C1596 C 0.95988 0.38758 0.22687 0.0
H1597 H 0.9775 0.35382 0.27293 0.0
H1598 H 0.95676 0.36126 0.26533 0.0
H1599 H 0.97505 0.35981 0.24572 0.0
H1600 H 0.0152 0.41681 0.21202 0.0
H1601 H 0.99817 0.4054 0.17737 0.0
H1602 H 0.29536 0.89236 0.36706 0.0
H1603 H 0.26103 0.86877 0.34641 0.0
H1604 H 0.22002 0.86545 0.39942 0.0
H1605 H 0.25433 0.88886 0.42008 0.0
H1606 H 0.2273 0.82433 0.3574 0.0
H1607 H 0.19034 0.88018 0.34994 0.0
H1608 H 0.21961 0.89076 0.35679 0.0
H1609 H 0.19787 0.87702 0.37634 0.0
C1610 C 0.279 0.88712 0.37405 0.0
C1611 C 0.27753 0.89295 0.39499 0.0
C1612 C 0.25938 0.87348 0.36231 0.0
C1613 C 0.23783 0.86548 0.3712 0.0
C1614 C 0.23636 0.87177 0.39198 0.0
H1615 H 0.09843 0.77429 0.33621 0.0
H1616 H 0.13408 0.80151 0.35239 0.0
C1617 C 0.25599 0.88527 0.40377 0.0
C1618 C 0.21699 0.84932 0.35932 0.0
H1619 H 0.16683 0.84179 0.34016 0.0
C1620 C 0.21416 0.82822 0.35347 0.0
C1621 C 0.19972 0.85426 0.35425 0.0
C1622 C 0.20203 0.87685 0.35947 0.0
C1623 C 0.19435 0.81175 0.34332 0.0
C1624 C 0.17699 0.81664 0.33829 0.0
C1625 C 0.18001 0.8379 0.34392 0.0
C1626 C 0.15523 0.79971 0.328 0.0
C1627 C 0.1919 0.78894 0.3389 0.0
C1628 C 0.1549 0.78954 0.30862 0.0
C1629 C 0.13434 0.77347 0.29939 0.0
C1630 C 0.1135 0.76727 0.3092 0.0
C1631 C 0.11397 0.77796 0.32835 0.0
C1632 C 0.13447 0.79385 0.33758 0.0
H1633 H 0.20342 0.78577 0.34886 0.0
H1634 H 0.17429 0.77514 0.34165 0.0
H1635 H 0.19629 0.78828 0.32218 0.0
H1636 H 0.17056 0.79409 0.30052 0.0
H1637 H 0.13485 0.76574 0.28469 0.0
H1638 H 0.2826 0.36423 0.33859 0.0
H1639 H 0.25714 0.37289 0.35873 0.0
H1640 H 0.20801 0.3452 0.30873 0.0
H1641 H 0.23305 0.33603 0.28891 0.0
H1642 H 0.2386 0.39863 0.35268 0.0
H1643 H 0.16891 0.31003 0.35704 0.0
H1644 H 0.19665 0.31744 0.34752 0.0
H1645 H 0.17658 0.31922 0.33034 0.0
C1646 C 0.26644 0.36016 0.33183 0.0
C1647 C 0.25981 0.3492 0.3122 0.0
C1648 C 0.25181 0.36502 0.34341 0.0
C1649 C 0.23022 0.35913 0.33563 0.0
C1650 C 0.22411 0.3492 0.31556 0.0
H1651 H 0.12386 0.38697 0.37343 0.0
H1652 H 0.14894 0.37642 0.35508 0.0
C1653 C 0.23857 0.3441 0.30412 0.0
C1654 C 0.21418 0.36342 0.34835 0.0
H1655 H 0.15982 0.33824 0.36714 0.0
C1656 C 0.22146 0.38534 0.35596 0.0
C1657 C 0.19171 0.34613 0.3529 0.0
C1658 C 0.18307 0.32185 0.34672 0.0
C1659 C 0.20686 0.39049 0.36735 0.0
C1660 C 0.18431 0.37335 0.37133 0.0
C1661 C 0.17704 0.35143 0.36397 0.0
C1662 C 0.16801 0.37805 0.38287 0.0
C1663 C 0.21543 0.41438 0.37474 0.0
C1664 C 0.16995 0.38192 0.40472 0.0
C1665 C 0.15534 0.38752 0.41529 0.0
C1666 C 0.13853 0.38945 0.40424 0.0
C1667 C 0.13631 0.38511 0.38245 0.0
C1668 C 0.15076 0.37927 0.37193 0.0
H1669 H 0.2324 0.42634 0.36821 0.0
H1670 H 0.20345 0.42016 0.37014 0.0
H1671 H 0.21657 0.41491 0.39219 0.0
H1672 H 0.18306 0.381 0.41353 0.0
H1673 H 0.15764 0.3911 0.43201 0.0
H1674 H 0.70701 0.93212 0.32861 0.0
H1675 H 0.69764 0.89738 0.34746 0.0
H1676 H 0.63028 0.86536 0.32174 0.0
H1677 H 0.6396 0.90026 0.3026 0.0
H1678 H 0.63035 0.85568 0.3641 0.0
H1679 H 0.69254 0.84056 0.32193 0.0
H1680 H 0.70502 0.86795 0.33392 0.0
H1681 H 0.68487 0.86091 0.31295 0.0
C1682 C 0.69024 0.91766 0.32669 0.0
C1683 C 0.67422 0.91906 0.31368 0.0
C1684 C 0.6849 0.89771 0.33755 0.0
C1685 C 0.6634 0.87842 0.33571 0.0
C1686 C 0.64707 0.87989 0.32333 0.0
H1687 H 0.62768 0.74077 0.37276 0.0
H1688 H 0.6379 0.77592 0.35366 0.0
C1689 C 0.6524 0.89994 0.31243 0.0
C1690 C 0.65807 0.85689 0.34686 0.0
H1691 H 0.67547 0.81798 0.35237 0.0
C1692 C 0.64019 0.84742 0.36146 0.0
C1693 C 0.67063 0.84578 0.34332 0.0
C1694 C 0.68919 0.85416 0.32703 0.0
C1695 C 0.63488 0.8276 0.37285 0.0
C1696 C 0.64802 0.81699 0.36991 0.0
C1697 C 0.66557 0.82618 0.35496 0.0
C1698 C 0.64339 0.79602 0.38169 0.0
C1699 C 0.61492 0.81795 0.38765 0.0
C1700 C 0.64377 0.79559 0.40386 0.0
C1701 C 0.63808 0.77551 0.41478 0.0
C1702 C 0.63212 0.75546 0.40378 0.0
C1703 C 0.63257 0.75607 0.38163 0.0
C1704 C 0.63826 0.77613 0.37072 0.0
H1705 H 0.60312 0.82423 0.3839 0.0
H1706 H 0.60543 0.7992 0.38704 0.0
H1707 H 0.62104 0.82314 0.404 0.0
H1708 H 0.64814 0.81072 0.41277 0.0
H1709 H 0.63763 0.77543 0.43183 0.0
H1710 H 0.79485 0.11112 0.24668 0.0
H1711 H 0.82247 0.14595 0.22895 0.0
H1712 H 0.76809 0.1514 0.20021 0.0
H1713 H 0.74057 0.11568 0.21684 0.0
H1714 H 0.7974 0.16141 0.17243 0.0
H1715 H 0.84566 0.20956 0.24204 0.0
H1716 H 0.84642 0.18384 0.23977 0.0
H1717 H 0.81987 0.18286 0.24445 0.0
C1718 C 0.78883 0.11995 0.23677 0.0
C1719 C 0.76553 0.11078 0.23333 0.0
C1720 C 0.80467 0.14004 0.22672 0.0
C1721 C 0.79762 0.15195 0.2135 0.0
C1722 C 0.77421 0.14281 0.21029 0.0
H1723 H 0.88622 0.29103 0.17062 0.0
H1724 H 0.86157 0.25656 0.19051 0.0
C1725 C 0.75841 0.1224 0.2199 0.0
C1726 C 0.81445 0.17319 0.20218 0.0
H1727 H 0.86287 0.22426 0.2086 0.0
C1728 C 0.81159 0.17519 0.18048 0.0
C1729 C 0.83297 0.19158 0.21246 0.0
C1730 C 0.83627 0.19197 0.236 0.0
C1731 C 0.82645 0.19467 0.16889 0.0
C1732 C 0.84568 0.21251 0.17891 0.0
C1733 C 0.84849 0.2106 0.20065 0.0
C1734 C 0.8624 0.23366 0.16743 0.0
C1735 C 0.82067 0.19614 0.1462 0.0
C1736 C 0.872 0.23271 0.14808 0.0
C1737 C 0.8857 0.25245 0.13646 0.0
C1738 C 0.891 0.27378 0.14431 0.0
C1739 C 0.88267 0.27487 0.16428 0.0
C1740 C 0.86848 0.2551 0.17563 0.0
H1741 H 0.80229 0.18516 0.14317 0.0
H1742 H 0.82555 0.21371 0.14172 0.0
H1743 H 0.82976 0.19023 0.13584 0.0
H1744 H 0.86841 0.21662 0.1416 0.0
H1745 H 0.8914 0.25093 0.12095 0.0
H1746 H 0.74548 0.63528 0.17079 0.0
H1747 H 0.78102 0.64702 0.18991 0.0
H1748 H 0.8104 0.63749 0.13344 0.0
H1749 H 0.77529 0.62668 0.11431 0.0
H1750 H 0.80103 0.62354 0.19883 0.0
H1751 H 0.86139 0.69684 0.15118 0.0
H1752 H 0.83122 0.68421 0.14814 0.0
H1753 H 0.84621 0.67208 0.13528 0.0
C1754 C 0.75979 0.63631 0.16242 0.0
C1755 C 0.75778 0.63033 0.14106 0.0
C1756 C 0.78005 0.64284 0.17336 0.0
C1757 C 0.79872 0.64351 0.16315 0.0
C1758 C 0.79668 0.63782 0.14166 0.0
H1759 H 0.92684 0.65602 0.20503 0.0
H1760 H 0.89176 0.64673 0.18624 0.0
C1761 C 0.77655 0.63154 0.13071 0.0
C1762 C 0.81972 0.64876 0.1752 0.0
H1763 H 0.87754 0.68122 0.17462 0.0
C1764 C 0.8177 0.63632 0.19359 0.0
C1765 C 0.84167 0.66543 0.16851 0.0
C1766 C 0.84526 0.68055 0.14983 0.0
C1767 C 0.83684 0.63974 0.20509 0.0
C1768 C 0.8587 0.65603 0.19812 0.0
C1769 C 0.8608 0.66855 0.17985 0.0
C1770 C 0.87956 0.66074 0.20994 0.0
C1771 C 0.83362 0.62565 0.22447 0.0
C1772 C 0.88439 0.67163 0.22955 0.0
C1773 C 0.90445 0.67705 0.24025 0.0
C1774 C 0.92017 0.6716 0.23168 0.0
C1775 C 0.91505 0.66024 0.21221 0.0
C1776 C 0.89506 0.65506 0.20138 0.0
H1777 H 0.81609 0.61116 0.22575 0.0
H1778 H 0.8456 0.61911 0.22437 0.0
H1779 H 0.83721 0.63634 0.23868 0.0
H1780 H 0.87281 0.67633 0.23643 0.0
H1781 H 0.90775 0.68569 0.25524 0.0
H1782 H 0.33797 0.22667 0.25614 0.0
H1783 H 0.34558 0.19873 0.23957 0.0
H1784 H 0.38465 0.24699 0.19127 0.0
H1785 H 0.37757 0.27511 0.20794 0.0
H1786 H 0.33428 0.1805 0.19894 0.0
H1787 H 0.42712 0.22443 0.2102 0.0
H1788 H 0.40919 0.23234 0.22433 0.0
H1789 H 0.41739 0.24156 0.1976 0.0
C1790 C 0.34855 0.23152 0.24222 0.0
C1791 C 0.35719 0.25329 0.23349 0.0
C1792 C 0.35272 0.21541 0.23263 0.0
C1793 C 0.36588 0.22071 0.21422 0.0
C1794 C 0.37473 0.24249 0.20561 0.0
H1795 H 0.3742 0.13203 0.12016 0.0
H1796 H 0.36377 0.15568 0.14104 0.0
C1797 C 0.37049 0.25854 0.2151 0.0
C1798 C 0.36983 0.20336 0.20365 0.0
H1799 H 0.41149 0.19312 0.18673 0.0
C1800 C 0.35117 0.18322 0.19638 0.0
C1801 C 0.39182 0.20665 0.20045 0.0
C1802 C 0.41253 0.2273 0.20872 0.0
C1803 C 0.35392 0.16668 0.18562 0.0
C1804 C 0.37596 0.17037 0.18176 0.0
C1805 C 0.39458 0.19025 0.18949 0.0
C1806 C 0.38021 0.15402 0.16961 0.0
C1807 C 0.33315 0.14527 0.17869 0.0
C1808 C 0.39291 0.14504 0.17856 0.0
C1809 C 0.39874 0.1314 0.16664 0.0
C1810 C 0.39206 0.12643 0.14547 0.0
C1811 C 0.37895 0.13498 0.13662 0.0
C1812 C 0.37307 0.14859 0.14856 0.0
H1813 H 0.31798 0.14215 0.18783 0.0
H1814 H 0.32984 0.14682 0.16183 0.0
H1815 H 0.33555 0.13043 0.18046 0.0
H1816 H 0.39879 0.14904 0.19467 0.0
H1817 H 0.40929 0.12548 0.17369 0.0
H1818 H 0.76398 0.10896 0.67004 0.0
H1819 H 0.79954 0.13642 0.6863 0.0
H1820 H 0.8365 0.12815 0.63543 0.0
H1821 H 0.80087 0.09998 0.61919 0.0
H1822 H 0.83605 0.12966 0.69936 0.0
H1823 H 0.86356 0.19786 0.63946 0.0
H1824 H 0.83469 0.17502 0.64142 0.0
H1825 H 0.85584 0.17023 0.6297 0.0
C1826 C 0.77958 0.11262 0.66231 0.0
C1827 C 0.77928 0.10186 0.64326 0.0
C1828 C 0.8 0.12858 0.67162 0.0
C1829 C 0.82078 0.13459 0.66207 0.0
C1830 C 0.8207 0.12411 0.64299 0.0
H1831 H 0.96102 0.22706 0.6993 0.0
H1832 H 0.92605 0.20255 0.67988 0.0
C1833 C 0.80022 0.10796 0.63368 0.0
C1834 C 0.8424 0.15129 0.67254 0.0
H1835 H 0.88885 0.20406 0.66743 0.0
C1836 C 0.84757 0.14594 0.69239 0.0
C1837 C 0.85757 0.17252 0.66343 0.0
C1838 C 0.85268 0.17945 0.6424 0.0
C1839 C 0.86748 0.16101 0.70324 0.0
C1840 C 0.88248 0.18249 0.69436 0.0
C1841 C 0.87739 0.18776 0.67439 0.0
C1842 C 0.90366 0.19941 0.70542 0.0
C1843 C 0.87253 0.15341 0.72386 0.0
C1844 C 0.9029 0.20671 0.72599 0.0
C1845 C 0.92289 0.22068 0.73709 0.0
C1846 C 0.94412 0.22811 0.72773 0.0
C1847 C 0.94488 0.22188 0.70677 0.0
C1848 C 0.92489 0.20775 0.69572 0.0
H1849 H 0.86328 0.1347 0.72529 0.0
H1850 H 0.89089 0.15965 0.72561 0.0
H1851 H 0.86704 0.1602 0.73706 0.0
H1852 H 0.88681 0.20105 0.73372 0.0
H1853 H 0.92177 0.22485 0.75333 0.0
H1854 H 0.94524 0.69454 0.66932 0.0
H1855 H 0.91983 0.70438 0.68802 0.0
H1856 H 0.87068 0.67416 0.63838 0.0
H1857 H 0.89592 0.66428 0.61962 0.0
H1858 H 0.88039 0.71964 0.65371 0.0
H1859 H 0.85874 0.65607 0.71743 0.0
H1860 H 0.88827 0.67408 0.71152 0.0
H1861 H 0.87005 0.65396 0.69235 0.0
C1862 C 0.92914 0.69021 0.66225 0.0
C1863 C 0.92264 0.67851 0.64297 0.0
C1864 C 0.91453 0.69568 0.67306 0.0
C1865 C 0.89318 0.68977 0.66475 0.0
C1866 C 0.88697 0.67876 0.6452 0.0
H1867 H 0.78431 0.71638 0.70245 0.0
H1868 H 0.80784 0.70428 0.68344 0.0
C1869 C 0.90142 0.67307 0.63452 0.0
C1870 C 0.87722 0.69487 0.67644 0.0
H1871 H 0.84346 0.6802 0.72019 0.0
C1872 C 0.87226 0.711 0.66823 0.0
C1873 C 0.86666 0.68366 0.69543 0.0
C1874 C 0.87099 0.66585 0.70474 0.0
C1875 C 0.85745 0.71657 0.67866 0.0
C1876 C 0.84657 0.70513 0.69756 0.0
C1877 C 0.85157 0.68894 0.70571 0.0
C1878 C 0.83068 0.71029 0.70949 0.0
C1879 C 0.85429 0.73526 0.66965 0.0
C1880 C 0.8346 0.71633 0.7309 0.0
C1881 C 0.8208 0.72267 0.74186 0.0
C1882 C 0.80279 0.72321 0.73168 0.0
C1883 C 0.79811 0.71614 0.71062 0.0
C1884 C 0.8118 0.70956 0.69969 0.0
H1885 H 0.86854 0.74657 0.65915 0.0
H1886 H 0.83858 0.72777 0.66014 0.0
H1887 H 0.85285 0.74565 0.68233 0.0
H1888 H 0.84884 0.71689 0.73899 0.0
H1889 H 0.82477 0.72809 0.75809 0.0
H1890 H 0.28523 0.0701 0.70556 0.0
H1891 H 0.29566 0.10458 0.68517 0.0
H1892 H 0.3252 0.14477 0.74082 0.0
H1893 H 0.31459 0.11017 0.76123 0.0
H1894 H 0.28062 0.13631 0.69485 0.0
H1895 H 0.37427 0.17739 0.69438 0.0
H1896 H 0.35617 0.1476 0.69962 0.0
H1897 H 0.36094 0.168 0.71969 0.0
C1898 C 0.29443 0.08637 0.71326 0.0
C1899 C 0.29947 0.08757 0.73486 0.0
C1900 C 0.30024 0.10604 0.70167 0.0
C1901 C 0.31141 0.12737 0.71136 0.0
C1902 C 0.31694 0.1286 0.73286 0.0
H1903 H 0.3572 0.26569 0.67322 0.0
H1904 H 0.34905 0.2307 0.69066 0.0
C1905 C 0.31094 0.10887 0.74452 0.0
C1906 C 0.31601 0.14809 0.69928 0.0
H1907 H 0.35849 0.19896 0.68133 0.0
C1908 C 0.29765 0.14997 0.69178 0.0
C1909 C 0.33821 0.16599 0.69534 0.0
C1910 C 0.3586 0.16471 0.7025 0.0
C1911 C 0.30083 0.16942 0.68099 0.0
C1912 C 0.32307 0.18737 0.67694 0.0
C1913 C 0.34143 0.18533 0.68431 0.0
C1914 C 0.32771 0.20874 0.66586 0.0
C1915 C 0.28023 0.17083 0.6748 0.0
C1916 C 0.3187 0.20843 0.64581 0.0
C1917 C 0.32295 0.22861 0.63586 0.0
C1918 C 0.33658 0.24973 0.64556 0.0
C1919 C 0.34605 0.24991 0.66537 0.0
C1920 C 0.34163 0.22979 0.67535 0.0
H1921 H 0.26519 0.15913 0.68429 0.0
H1922 H 0.28317 0.18824 0.67676 0.0
H1923 H 0.27623 0.16597 0.65802 0.0
H1924 H 0.30843 0.19256 0.63776 0.0
H1925 H 0.31531 0.22757 0.62066 0.0
H1926 H 0.23945 0.95303 0.83918 0.0
H1927 H 0.21617 0.91815 0.85943 0.0
H1928 H 0.18079 0.88467 0.80255 0.0
H1929 H 0.2046 0.91917 0.78239 0.0
H1930 H 0.17242 0.8966 0.86659 0.0
H1931 H 0.19114 0.83661 0.82556 0.0
H1932 H 0.20767 0.86669 0.82126 0.0
H1933 H 0.1814 0.84999 0.80741 0.0
C1934 C 0.22712 0.93797 0.83101 0.0
C1935 C 0.22402 0.93863 0.80921 0.0
C1936 C 0.21367 0.91808 0.84258 0.0
C1937 C 0.19681 0.89845 0.83259 0.0
C1938 C 0.19402 0.89917 0.81068 0.0
H1939 H 0.07822 0.77406 0.87095 0.0
H1940 H 0.1067 0.80889 0.85401 0.0
C1941 C 0.20759 0.91893 0.79912 0.0
C1942 C 0.18119 0.87776 0.84514 0.0
H1943 H 0.15743 0.82015 0.84677 0.0
C1944 C 0.16944 0.87996 0.86238 0.0
C1945 C 0.17714 0.85586 0.83985 0.0
C1946 C 0.1902 0.85216 0.82266 0.0
C1947 C 0.1534 0.86098 0.87388 0.0
C1948 C 0.14881 0.83913 0.86804 0.0
C1949 C 0.16079 0.83689 0.85113 0.0
C1950 C 0.13126 0.81834 0.87899 0.0
C1951 C 0.14094 0.86423 0.8919 0.0
C1952 C 0.13546 0.81203 0.89882 0.0
C1953 C 0.11926 0.79184 0.90852 0.0
C1954 C 0.0984 0.77745 0.89864 0.0
C1955 C 0.09413 0.78428 0.87898 0.0
C1956 C 0.11039 0.80434 0.86925 0.0
H1957 H 0.14509 0.88209 0.89348 0.0
H1958 H 0.12242 0.85341 0.88964 0.0
H1959 H 0.14541 0.85892 0.90683 0.0
H1960 H 0.15149 0.82251 0.90661 0.0
H1961 H 0.12345 0.78717 0.92345 0.0
H1962 H 0.11348 0.3212 0.78031 0.0
H1963 H 0.14874 0.33256 0.79999 0.0
H1964 H 0.11027 0.28663 0.85004 0.0
H1965 H 0.07514 0.27557 0.8306 0.0
H1966 H 0.15835 0.34778 0.84865 0.0
H1967 H 0.16047 0.27012 0.82622 0.0
H1968 H 0.1466 0.28144 0.81012 0.0
H1969 H 0.13387 0.26727 0.83434 0.0
C1970 C 0.11262 0.31385 0.79565 0.0
C1971 C 0.09165 0.29751 0.80394 0.0
C1972 C 0.13271 0.32025 0.80684 0.0
C1973 C 0.13217 0.31027 0.8264 0.0
C1974 C 0.11114 0.29444 0.83493 0.0
H1975 H 0.23545 0.31147 0.9095 0.0
H1976 H 0.20054 0.30179 0.89025 0.0
C1977 C 0.0911 0.28821 0.82388 0.0
C1978 C 0.1535 0.3159 0.83777 0.0
H1979 H 0.18858 0.29512 0.84967 0.0
C1980 C 0.16506 0.33635 0.8488 0.0
C1981 C 0.16205 0.30083 0.83823 0.0
C1982 C 0.15027 0.27868 0.82656 0.0
C1983 C 0.18478 0.34203 0.86046 0.0
C1984 C 0.19369 0.32716 0.86061 0.0
C1985 C 0.18197 0.30662 0.84959 0.0
C1986 C 0.21516 0.33268 0.87193 0.0
C1987 C 0.19542 0.36364 0.87304 0.0
C1988 C 0.2353 0.35295 0.86774 0.0
C1989 C 0.25518 0.35855 0.87882 0.0
C1990 C 0.25565 0.3439 0.89421 0.0
C1991 C 0.23574 0.32316 0.89778 0.0
C1992 C 0.21573 0.31764 0.88681 0.0
H1993 H 0.18298 0.36912 0.87674 0.0
H1994 H 0.20264 0.3617 0.88805 0.0
H1995 H 0.20923 0.37727 0.86367 0.0
H1996 H 0.2357 0.36453 0.85586 0.0
H1997 H 0.27029 0.37443 0.87527 0.0
H1998 H 0.69821 0.79005 0.78599 0.0
H1999 H 0.68662 0.81275 0.80706 0.0
H2000 H 0.74439 0.83313 0.84753 0.0
H2001 H 0.75502 0.80943 0.82732 0.0
H2002 H 0.71151 0.82768 0.87062 0.0
H2003 H 0.7128 0.87882 0.80236 0.0
H2004 H 0.69259 0.84943 0.79917 0.0
H2005 H 0.72232 0.8586 0.80043 0.0
C2006 C 0.70817 0.79916 0.79957 0.0
C2007 C 0.72766 0.7982 0.80486 0.0
C2008 C 0.70176 0.81242 0.81147 0.0
C2009 C 0.715 0.82543 0.82861 0.0
C2010 C 0.73391 0.82357 0.83436 0.0
H2011 H 0.71449 0.94467 0.87732 0.0
H2012 H 0.72245 0.91762 0.85953 0.0
C2013 C 0.74004 0.81003 0.82275 0.0
C2014 C 0.70956 0.84117 0.8405 0.0
H2015 H 0.6992 0.88502 0.83452 0.0
C2016 C 0.70887 0.84024 0.86266 0.0
C2017 C 0.70651 0.85798 0.83035 0.0
C2018 C 0.70882 0.86148 0.8068 0.0
C2019 C 0.70532 0.85546 0.87483 0.0
C2020 C 0.70138 0.87169 0.86465 0.0
C2021 C 0.70201 0.87257 0.84249 0.0
C2022 C 0.69716 0.88829 0.87651 0.0
C2023 C 0.70676 0.85444 0.89849 0.0
C2024 C 0.68036 0.88115 0.89221 0.0
C2025 C 0.67619 0.89676 0.90278 0.0
C2026 C 0.68825 0.91986 0.89754 0.0
C2027 C 0.70493 0.92701 0.88177 0.0
C2028 C 0.70941 0.91148 0.87152 0.0
H2029 H 0.71709 0.84677 0.90331 0.0
H2030 H 0.71424 0.8715 0.90563 0.0
H2031 H 0.68952 0.84373 0.90502 0.0
H2032 H 0.67005 0.86339 0.896 0.0
H2033 H 0.66291 0.89063 0.91453 0.0
H2034 H 0.41199 0.4368 0.53934 0.0
H2035 H 0.43809 0.47157 0.52038 0.0
H2036 H 0.48871 0.48719 0.56804 0.0
H2037 H 0.46284 0.45266 0.58702 0.0
H2038 H 0.45998 0.51666 0.53116 0.0
H2039 H 0.52344 0.49065 0.51498 0.0
H2040 H 0.4954 0.47113 0.52451 0.0
H2041 H 0.51698 0.48997 0.54246 0.0
C2042 C 0.42858 0.44774 0.54593 0.0
C2043 C 0.43528 0.44164 0.56466 0.0
C2044 C 0.44358 0.46761 0.53497 0.0
C2045 C 0.46569 0.48186 0.54242 0.0
C2046 C 0.47208 0.47624 0.56153 0.0
H2047 H 0.55819 0.62173 0.50416 0.0
H2048 H 0.53363 0.5867 0.52359 0.0
C2049 C 0.45716 0.45642 0.57244 0.0
C2050 C 0.48202 0.50262 0.53038 0.0
H2051 H 0.5346 0.52901 0.50754 0.0
C2052 C 0.47626 0.51929 0.52598 0.0
C2053 C 0.50324 0.50609 0.52324 0.0
C2054 C 0.51009 0.48843 0.52633 0.0
C2055 C 0.4912 0.53939 0.51519 0.0
C2056 C 0.51273 0.54321 0.50876 0.0
C2057 C 0.51829 0.52632 0.51269 0.0
C2058 C 0.52944 0.56445 0.49763 0.0
C2059 C 0.48367 0.55627 0.51046 0.0
C2060 C 0.53615 0.56372 0.47683 0.0
C2061 C 0.55034 0.58376 0.46577 0.0
C2062 C 0.55843 0.60496 0.47539 0.0
C2063 C 0.5525 0.60563 0.49648 0.0
C2064 C 0.53823 0.58562 0.50749 0.0
H2065 H 0.46503 0.54859 0.51178 0.0
H2066 H 0.49163 0.57039 0.52188 0.0
H2067 H 0.48896 0.56341 0.49437 0.0
H2068 H 0.52967 0.54767 0.46884 0.0
H2069 H 0.55416 0.58273 0.44939 0.0
H2070 H 0.57028 0.97348 0.57165 0.0
H2071 H 0.53561 0.96367 0.55199 0.0
H2072 H 0.56804 0.03019 0.52426 0.0
H2073 H 0.60259 0.04004 0.54365 0.0
H2074 H 0.52612 0.01838 0.53904 0.0
H2075 H 0.52124 0.94906 0.48988 0.0
H2076 H 0.52284 0.94511 0.51767 0.0
H2077 H 0.54633 0.96815 0.5044 0.0
C2078 C 0.57015 0.98593 0.56115 0.0
C2079 C 0.58933 0.00764 0.55944 0.0
C2080 C 0.55026 0.98028 0.54987 0.0
C2081 C 0.54912 0.99612 0.53644 0.0
C2082 C 0.56833 0.01766 0.53453 0.0
H2083 H 0.44547 0.96886 0.4413 0.0
H2084 H 0.48093 0.97991 0.46025 0.0
C2085 C 0.58813 0.0233 0.54577 0.0
C2086 C 0.52786 0.99071 0.52481 0.0
H2087 H 0.48975 0.95484 0.48852 0.0
C2088 C 0.5182 0.00447 0.52799 0.0
C2089 C 0.51756 0.97277 0.51012 0.0
C2090 C 0.52759 0.95803 0.5051 0.0
C2091 C 0.49857 1.00069 0.51718 0.0
C2092 C 0.48793 0.98239 0.5029 0.0
C2093 C 0.49773 0.96878 0.49952 0.0
C2094 C 0.46668 0.97708 0.49133 0.0
C2095 C 0.48969 0.01668 0.52083 0.0
C2096 C 0.44678 0.97192 0.50235 0.0
C2097 C 0.4266 0.9658 0.4915 0.0
C2098 C 0.42583 0.96467 0.46938 0.0
C2099 C 0.44573 0.97006 0.45832 0.0
C2100 C 0.46592 0.97617 0.46917 0.0
H2101 H 0.50295 0.0331 0.52732 0.0
H2102 H 0.48315 0.01994 0.50601 0.0
H2103 H 0.47562 0.00904 0.53238 0.0
H2104 H 0.44664 0.97193 0.5194 0.0
H2105 H 0.41136 0.96114 0.50043 0.0
H2106 H 0.0376 0.45891 0.45584 0.0
H2107 H 0.02681 0.48229 0.47679 0.0
H2108 H 0.06708 0.48108 0.52853 0.0
H2109 H 0.07783 0.45768 0.50758 0.0
H2110 H 0.00607 0.47692 0.51746 0.0
H2111 H 0.09415 0.54905 0.51601 0.0
H2112 H 0.08467 0.52491 0.4989 0.0
H2113 H 0.09094 0.52299 0.52605 0.0
C2114 C 0.04354 0.46305 0.47192 0.0
C2115 C 0.05821 0.45613 0.48023 0.0
C2116 C 0.03756 0.4766 0.48383 0.0
C2117 C 0.0464 0.48381 0.50417 0.0
C2118 C 0.06029 0.47607 0.5128 0.0
H2119 H 0.04273 0.5836 0.58953 0.0
H2120 H 0.04976 0.55494 0.5737 0.0
C2121 C 0.0662 0.46246 0.50093 0.0
C2122 C 0.04186 0.50013 0.51593 0.0
H2123 H 0.06759 0.55393 0.53572 0.0
C2124 C 0.01953 0.49375 0.52146 0.0
C2125 C 0.05939 0.52213 0.52126 0.0
C2126 C 0.08363 0.53035 0.51513 0.0
C2127 C 0.01429 0.50859 0.53228 0.0
C2128 C 0.03177 0.53075 0.53729 0.0
C2129 C 0.05414 0.53702 0.53197 0.0
C2130 C 0.02713 0.54792 0.54732 0.0
C2131 C 0.99005 0.50015 0.53855 0.0
C2132 C 0.01227 0.55388 0.53778 0.0
C2133 C 0.00808 0.57011 0.54688 0.0
C2134 C 0.01886 0.58122 0.56571 0.0
C2135 C 0.03389 0.57535 0.57519 0.0
C2136 C 0.03805 0.559 0.56606 0.0
H2137 H 0.98041 0.48143 0.53987 0.0
H2138 H 0.98898 0.50745 0.55383 0.0
H2139 H 0.98176 0.50511 0.52631 0.0
H2140 H 1.00398 0.54609 0.52311 0.0
H2141 H 0.99612 0.57376 0.53916 0.0
H2142 H 0.4286 0.44275 1.0066 0.0
H2143 H 0.46372 0.46939 0.02403 0.0
H2144 H 0.502 0.46232 0.97367 0.0
H2145 H 0.46677 0.43494 0.95624 0.0
H2146 H 0.49966 0.46156 0.03746 0.0
H2147 H 0.52915 0.53204 0.97978 0.0
H2148 H 0.50015 0.50933 0.98089 0.0
H2149 H 0.52143 0.50471 0.9692 0.0
C2150 C 0.4444 0.4465 0.99923 0.0
C2151 C 0.44461 0.43629 0.97998 0.0
C2152 C 0.46455 0.46199 1.00921 0.0
C2153 C 0.48557 0.46806 1.00015 0.0
C2154 C 0.486 0.45818 0.98086 0.0
H2155 H 0.62483 0.55879 0.03975 0.0
H2156 H 0.58995 0.53464 0.02014 0.0
C2157 C 0.46577 0.4425 0.97088 0.0
C2158 C 0.50688 0.48424 1.01133 0.0
H2159 H 0.55357 0.53702 1.00816 0.0
C2160 C 0.51144 0.47808 0.03107 0.0
C2161 C 0.52233 0.50578 1.00299 0.0
C2162 C 0.51806 0.51356 0.98212 0.0
C2163 C 0.53108 0.49263 0.04253 0.0
C2164 C 0.54639 0.51439 0.03439 0.0
C2165 C 0.54186 0.52049 1.01456 0.0
C2166 C 0.56749 0.5307 0.04591 0.0
C2167 C 0.53551 0.48419 0.06296 0.0
C2168 C 0.56668 0.53733 0.06676 0.0
C2169 C 0.58666 0.55108 0.07799 0.0
C2170 C 0.60783 0.55882 0.06848 0.0
C2171 C 0.60867 0.55319 0.04734 0.0
C2172 C 0.58874 0.53932 0.03618 0.0
H2173 H 0.52605 0.46543 0.06381 0.0
H2174 H 0.5538 0.49015 0.06497 0.0
H2175 H 0.52987 0.49063 0.0763 0.0
H2176 H 0.55057 0.53149 0.07451 0.0
H2177 H 0.58561 0.5551 0.0943 0.0
H2178 H 0.57288 0.98094 0.99935 0.0
H2179 H 0.54792 0.99102 1.01828 0.0
H2180 H 0.57588 0.05352 0.98356 0.0
H2181 H 0.60108 0.04355 0.9645 0.0
H2182 H 0.56165 0.03442 0.04285 0.0
H2183 H 0.50384 0.01893 0.97524 0.0
H2184 H 0.52145 0.00616 0.97691 0.0
H2185 H 0.53381 0.03555 0.9705 0.0
C2186 C 0.57374 0.99684 0.99567 0.0
C2187 C 0.58893 0.01135 0.98024 0.0
C2188 C 0.5595 1.00261 1.0066 0.0
C2189 C 0.55981 0.02291 1.00223 0.0
C2190 C 0.57518 0.03766 0.98709 0.0
H2191 H 0.47666 0.07963 0.0431 0.0
H2192 H 0.50112 0.06877 0.02432 0.0
C2193 C 0.58969 0.03202 0.9763 0.0
C2194 C 0.54395 0.02845 1.01346 0.0
H2195 H 0.49615 0.0321 1.00665 0.0
C2196 C 0.54731 0.03392 0.03496 0.0
C2197 C 0.52527 0.02785 1.00318 0.0
C2198 C 0.52064 0.0217 0.9802 0.0
C2199 C 0.53282 0.03922 0.04635 0.0
C2200 C 0.51383 0.03827 0.03617 0.0
C2201 C 0.51052 0.03274 1.01461 0.0
C2202 C 0.49777 0.0438 0.0473 0.0
C2203 C 0.53854 0.04655 0.06899 0.0
C2204 C 0.48693 0.03297 0.06624 0.0
C2205 C 0.47309 0.0394 0.07713 0.0
C2206 C 0.46949 0.05653 0.06914 0.0
C2207 C 0.47926 0.06645 0.04966 0.0
C2208 C 0.49327 0.06024 0.03893 0.0
H2209 H 0.55669 0.05286 0.07239 0.0
H2210 H 0.53465 0.06007 0.07294 0.0
H2211 H 0.52844 0.03187 0.07947 0.0
H2212 H 0.48938 0.0197 0.07277 0.0
H2213 H 0.46563 0.03139 0.09203 0.0
H2214 H 0.02543 0.57469 0.95907 0.0
H2215 H 0.01605 0.5405 0.97896 0.0
H2216 H 0.97336 0.553 0.02012 0.0
H2217 H 0.98312 0.58773 1.00062 0.0
H2218 H 0.02349 0.53706 0.023 0.0
H2219 H 0.93266 0.48616 1.00152 0.0
H2220 H 0.95243 0.51085 0.98677 0.0
H2221 H 0.94171 0.51398 1.01159 0.0
C2222 C 0.01413 0.57037 0.97242 0.0
C2223 C 1.00521 0.5843 0.97821 0.0
C2224 C 0.00869 0.55065 0.98375 0.0
C2225 C 0.99392 0.54402 1.00104 0.0
C2226 C 0.98458 0.55754 1.00669 0.0
H2227 H 0.97325 0.44321 0.09801 0.0
H2228 H 0.98396 0.47853 0.07881 0.0
C2229 C 0.99013 0.57742 0.99542 0.0
C2230 C 0.98886 0.52326 1.01335 0.0
H2231 H 0.94642 0.47017 0.0264 0.0
C2232 C 0.00662 0.52246 0.02379 0.0
C2233 C 0.9669 0.50407 1.01426 0.0
C2234 C 0.9473 0.50358 1.00283 0.0
C2235 C 1.003 0.50317 0.03518 0.0
C2236 C 0.981 0.48407 0.03627 0.0
C2237 C 0.96327 0.48481 0.0257 0.0
C2238 C 0.97608 0.46303 0.04795 0.0
C2239 C 0.02283 0.50318 0.04564 0.0
C2240 C 0.96819 0.44252 0.0371 0.0
C2241 C 0.96234 0.42246 0.04804 0.0
C2242 C 0.96409 0.42241 0.0701 0.0
C2243 C 0.97223 0.44291 0.08098 0.0
C2244 C 0.97827 0.46305 0.07001 0.0
H2245 H 0.03924 0.51714 0.03978 0.0
H2246 H 0.02199 0.5053 0.06288 0.0
H2247 H 0.02232 0.48687 0.04294 0.0
H2248 H 0.96623 0.44198 0.02014 0.0
H2249 H 0.95566 0.40678 0.03935 0.0
loop_
_geom_bond_atom_site_label_1
_geom_bond_atom_site_label_2
_geom_bond_distance
_geom_bond_site_symmetry_2
_ccdc_geom_bond_type
C0 C1 1.441 1_655 S
C0 N4 1.377 1_655 S
C0 C38 1.390 . S
C1 C0 1.441 1_455 S
C1 C2 1.340 . S
C1 H41 0.951 1_455 S
C2 C1 1.340 . S
C2 C3 1.439 . S
C2 H42 0.950 . S
C3 C2 1.439 . S
C3 N4 1.374 . S
C3 C37 1.395 . S
N4 C0 1.377 1_455 S
N4 C3 1.374 . S
N4 Co5 2.008 . S
Co5 N4 2.008 . S
Co5 N6 1.995 . S
Co5 N11 2.008 . S
Co5 N16 2.001 1_455 S
Co5 N21 2.282 1_455 S
Co5 N27 2.282 . S
N6 Co5 1.995 . S
N6 C7 1.376 . S
N6 C10 1.383 . S
C7 N6 1.376 . S
C7 C8 1.446 . S
C7 C37 1.391 . S
C8 C7 1.446 . S
C8 C9 1.339 . S
C8 H43 0.949 . S
C9 C8 1.339 . S
C9 C10 1.439 . S
C9 H44 0.950 . S
C10 N6 1.383 . S
C10 C9 1.439 . S
C10 C39 1.392 . S
N11 Co5 2.008 . S
N11 C12 1.376 . S
N11 C15 1.374 . S
C12 N11 1.376 . S
C12 C13 1.443 . S
C12 C39 1.389 . S
C13 C12 1.443 . S
C13 C14 1.340 . S
C13 H45 0.951 . S
C14 C13 1.340 . S
C14 C15 1.439 . S
C14 H46 0.950 . S
C15 N11 1.374 . S
C15 C14 1.439 . S
C15 C40 1.395 . S
N16 Co5 2.001 1_655 S
N16 C17 1.359 . S
N16 C20 1.391 . S
C17 N16 1.359 . S
C17 C18 1.446 . S
C17 C40 1.391 1_655 S
C18 C17 1.446 . S
C18 C19 1.339 . S
C18 H47 0.949 . S
C19 C18 1.339 . S
C19 C20 1.439 . S
C19 H48 0.950 . S
C20 N16 1.391 . S
C20 C19 1.439 . S
C20 C38 1.392 . S
N21 Co5 2.282 1_655 S
N21 C24 1.332 . S
N21 C26 1.332 . S
C22 C23 1.386 . S
C22 C25 1.388 . S
C23 C22 1.386 . S
C23 C24 1.382 . S
C23 H49 0.950 . S
C24 N21 1.332 . S
C24 C23 1.382 . S
C24 H35 0.952 . S
C25 C22 1.388 . S
C25 C26 1.382 . S
C25 H50 0.950 . S
C26 N21 1.332 . S
C26 C25 1.382 . S
C26 H36 0.948 . S
N27 Co5 2.282 . S
N27 C31 1.332 . S
N27 C32 1.332 . S
C28 C29 1.388 . S
C28 C32 1.382 . S
C28 H51 0.950 . S
C29 C28 1.388 . S
C29 C30 1.386 . S
C30 C29 1.386 . S
C30 C31 1.382 . S
C30 H52 0.950 . S
C31 N27 1.332 . S
C31 C30 1.382 . S
C31 H33 0.952 . S
C32 N27 1.332 . S
C32 C28 1.382 . S
C32 H34 0.948 . S
H33 C31 0.952 . S
H34 C32 0.948 . S
H35 C24 0.952 . S
H36 C26 0.948 . S
C37 C3 1.395 . S
C37 C7 1.391 . S
C38 C0 1.390 . S
C38 C20 1.392 . S
C39 C10 1.392 . S
C39 C12 1.389 . S
C40 C15 1.395 . S
C40 C17 1.391 1_455 S
H41 C1 0.951 1_655 S
H42 C2 0.950 . S
H43 C8 0.949 . S
H44 C9 0.950 . S
H45 C13 0.951 . S
H46 C14 0.950 . S
H47 C18 0.949 . S
H48 C19 0.950 . S
H49 C23 0.950 . S
H50 C25 0.950 . S
H51 C28 0.950 . S
H52 C30 0.950 . S
C53 C54 1.443 . S
C53 N57 1.376 . S
C53 C91 1.389 . S
C54 C53 1.443 . S
C54 C55 1.340 . S
C54 H94 0.951 . S
C55 C54 1.340 . S
C55 C56 1.439 . S
C55 H95 0.950 . S
C56 C55 1.439 . S
C56 N57 1.374 . S
C56 C90 1.395 . S
N57 C53 1.376 . S
N57 C56 1.374 . S
N57 Co58 2.008 . S
Co58 N57 2.008 . S
Co58 N59 1.995 . S
Co58 N64 2.008 . S
Co58 N69 1.995 . S
Co58 N74 2.282 . S
Co58 N80 2.282 . S
N59 Co58 1.995 . S
N59 C60 1.376 . S
N59 C63 1.383 . S
C60 N59 1.376 . S
C60 C61 1.446 . S
C60 C90 1.391 . S
C61 C60 1.446 . S
C61 C62 1.339 . S
C61 H96 0.949 . S
C62 C61 1.339 . S
C62 C63 1.439 . S
C62 H97 0.950 . S
C63 N59 1.383 . S
C63 C62 1.439 . S
C63 C92 1.392 . S
N64 Co58 2.008 . S
N64 C65 1.376 . S
N64 C68 1.374 . S
C65 N64 1.376 . S
C65 C66 1.443 . S
C65 C92 1.389 . S
C66 C65 1.443 . S
C66 C67 1.340 . S
C66 H98 0.951 . S
C67 C66 1.340 . S
C67 C68 1.439 . S
C67 H99 0.950 . S
C68 N64 1.374 . S
C68 C67 1.439 . S
C68 C93 1.395 . S
N69 Co58 1.995 . S
N69 C70 1.376 . S
N69 C73 1.383 . S
C70 N69 1.376 . S
C70 C71 1.446 . S
C70 C93 1.391 . S
C71 C70 1.446 . S
C71 C72 1.339 . S
C71 H100 0.949 . S
C72 C71 1.339 . S
C72 C73 1.439 . S
C72 H101 0.950 . S
C73 N69 1.383 . S
C73 C72 1.439 . S
C73 C91 1.392 . S
N74 Co58 2.282 . S
N74 C77 1.332 . S
N74 C79 1.332 . S
C75 C76 1.386 . S
C75 C78 1.388 . S
C76 C75 1.386 . S
C76 C77 1.382 . S
C76 H102 0.950 . S
C77 N74 1.332 . S
C77 C76 1.382 . S
C77 H88 0.952 . S
C78 C75 1.388 . S
C78 C79 1.382 . S
C78 H103 0.950 . S
C79 N74 1.332 . S
C79 C78 1.382 . S
C79 H89 0.948 . S
N80 Co58 2.282 . S
N80 C84 1.332 . S
N80 C85 1.332 . S
C81 C82 1.388 . S
C81 C85 1.382 . S
C81 H104 0.950 . S
C82 C81 1.388 . S
C82 C83 1.386 . S
C83 C82 1.386 . S
C83 C84 1.382 . S
C83 H105 0.950 . S
C84 N80 1.332 . S
C84 C83 1.382 . S
C84 H86 0.952 . S
C85 N80 1.332 . S
C85 C81 1.382 . S
C85 H87 0.948 . S
H86 C84 0.952 . S
H87 C85 0.948 . S
H88 C77 0.952 . S
H89 C79 0.948 . S
C90 C56 1.395 . S
C90 C60 1.391 . S
C91 C53 1.389 . S
C91 C73 1.392 . S
C92 C63 1.392 . S
C92 C65 1.389 . S
C93 C68 1.395 . S
C93 C70 1.391 . S
H94 C54 0.951 . S
H95 C55 0.950 . S
H96 C61 0.949 . S
H97 C62 0.950 . S
H98 C66 0.951 . S
H99 C67 0.950 . S
H100 C71 0.949 . S
H101 C72 0.950 . S
H102 C76 0.950 . S
H103 C78 0.950 . S
H104 C81 0.950 . S
H105 C83 0.950 . S
C106 C107 1.441 1_565 S
C106 N110 1.377 1_565 S
C106 C144 1.390 . S
C107 C106 1.441 1_545 S
C107 C108 1.340 . S
C107 H147 0.951 1_545 S
C108 C107 1.340 . S
C108 C109 1.439 . S
C108 H148 0.950 . S
C109 C108 1.439 . S
C109 N110 1.374 . S
C109 C143 1.395 . S
N110 C106 1.377 1_545 S
N110 C109 1.374 . S
N110 Co111 2.008 . S
Co111 N110 2.008 . S
Co111 N112 1.995 . S
Co111 N117 2.008 . S
Co111 N122 2.001 1_545 S
Co111 N127 2.282 1_545 S
Co111 N133 2.282 . S
N112 Co111 1.995 . S
N112 C113 1.376 . S
N112 C116 1.383 . S
C113 N112 1.376 . S
C113 C114 1.446 . S
C113 C143 1.391 . S
C114 C113 1.446 . S
C114 C115 1.339 . S
C114 H149 0.949 . S
C115 C114 1.339 . S
C115 C116 1.439 . S
C115 H150 0.950 . S
C116 N112 1.383 . S
C116 C115 1.439 . S
C116 C145 1.392 . S
N117 Co111 2.008 . S
N117 C118 1.376 . S
N117 C121 1.374 . S
C118 N117 1.376 . S
C118 C119 1.443 . S
C118 C145 1.389 . S
C119 C118 1.443 . S
C119 C120 1.340 . S
C119 H151 0.951 . S
C120 C119 1.340 . S
C120 C121 1.439 . S
C120 H152 0.950 . S
C121 N117 1.374 . S
C121 C120 1.439 . S
C121 C146 1.395 . S
N122 Co111 2.001 1_565 S
N122 C123 1.359 . S
N122 C126 1.391 . S
C123 N122 1.359 . S
C123 C124 1.446 . S
C123 C146 1.391 1_565 S
C124 C123 1.446 . S
C124 C125 1.339 . S
C124 H153 0.949 . S
C125 C124 1.339 . S
C125 C126 1.439 . S
C125 H154 0.950 . S
C126 N122 1.391 . S
C126 C125 1.439 . S
C126 C144 1.392 . S
N127 Co111 2.282 1_565 S
N127 C130 1.332 . S
N127 C132 1.332 . S
C128 C129 1.386 . S
C128 C131 1.388 . S
C129 C128 1.386 . S
C129 C130 1.382 . S
C129 H155 0.950 . S
C130 N127 1.332 . S
C130 C129 1.382 . S
C130 H141 0.952 . S
C131 C128 1.388 . S
C131 C132 1.382 . S
C131 H156 0.950 . S
C132 N127 1.332 . S
C132 C131 1.382 . S
C132 H142 0.948 . S
N133 Co111 2.282 . S
N133 C137 1.332 . S
N133 C138 1.332 . S
C134 C135 1.388 . S
C134 C138 1.382 . S
C134 H157 0.950 . S
C135 C134 1.388 . S
C135 C136 1.386 . S
C136 C135 1.386 . S
C136 C137 1.382 . S
C136 H158 0.950 . S
C137 N133 1.332 . S
C137 C136 1.382 . S
C137 H139 0.952 . S
C138 N133 1.332 . S
C138 C134 1.382 . S
C138 H140 0.948 . S
H139 C137 0.952 . S
H140 C138 0.948 . S
H141 C130 0.952 . S
H142 C132 0.948 . S
C143 C109 1.395 . S
C143 C113 1.391 . S
C144 C106 1.390 . S
C144 C126 1.392 . S
C145 C116 1.392 . S
C145 C118 1.389 . S
C146 C121 1.395 . S
C146 C123 1.391 1_545 S
H147 C107 0.951 1_565 S
H148 C108 0.950 . S
H149 C114 0.949 . S
H150 C115 0.950 . S
H151 C119 0.951 . S
H152 C120 0.950 . S
H153 C124 0.949 . S
H154 C125 0.950 . S
H155 C129 0.950 . S
H156 C131 0.950 . S
H157 C134 0.950 . S
H158 C136 0.950 . S
C159 C160 1.443 . S
C159 N163 1.376 . S
C159 C197 1.389 . S
C160 C159 1.443 . S
C160 C161 1.340 . S
C160 H200 0.951 . S
C161 C160 1.340 . S
C161 C162 1.439 . S
C161 H201 0.950 . S
C162 C161 1.439 . S
C162 N163 1.374 . S
C162 C196 1.395 1_655 S
N163 C159 1.376 . S
N163 C162 1.374 . S
N163 Co164 2.008 1_655 S
Co164 N163 2.008 1_455 S
Co164 N165 1.995 . S
Co164 N170 2.008 . S
Co164 N175 1.995 1_455 S
Co164 N180 2.282 1_455 S
Co164 N186 2.282 . S
N165 Co164 1.995 . S
N165 C166 1.376 . S
N165 C169 1.383 . S
C166 N165 1.376 . S
C166 C167 1.446 . S
C166 C196 1.391 . S
C167 C166 1.446 . S
C167 C168 1.339 . S
C167 H202 0.949 . S
C168 C167 1.339 . S
C168 C169 1.439 . S
C168 H203 0.950 . S
C169 N165 1.383 . S
C169 C168 1.439 . S
C169 C198 1.392 . S
N170 Co164 2.008 . S
N170 C171 1.376 . S
N170 C174 1.374 . S
C171 N170 1.376 . S
C171 C172 1.443 . S
C171 C198 1.389 . S
C172 C171 1.443 . S
C172 C173 1.340 . S
C172 H204 0.951 . S
C173 C172 1.340 . S
C173 C174 1.439 . S
C173 H205 0.950 . S
C174 N170 1.374 . S
C174 C173 1.439 . S
C174 C199 1.395 . S
N175 Co164 1.995 1_655 S
N175 C176 1.376 . S
N175 C179 1.383 . S
C176 N175 1.376 . S
C176 C177 1.446 . S
C176 C199 1.391 1_655 S
C177 C176 1.446 . S
C177 C178 1.339 . S
C177 H206 0.949 . S
C178 C177 1.339 . S
C178 C179 1.439 . S
C178 H207 0.950 . S
C179 N175 1.383 . S
C179 C178 1.439 . S
C179 C197 1.392 . S
N180 Co164 2.282 1_655 S
N180 C183 1.332 . S
N180 C185 1.360 . S
C181 C182 1.386 . S
C181 C184 1.388 . S
C182 C181 1.386 . S
C182 C183 1.382 . S
C182 H208 0.950 . S
C183 N180 1.332 . S
C183 C182 1.382 . S
C183 H194 0.952 . S
C184 C181 1.388 . S
C184 C185 1.388 . S
C184 H209 0.981 . S
C185 N180 1.360 . S
C185 C184 1.388 . S
C185 H195 0.914 1_655 S
N186 Co164 2.282 . S
N186 C190 1.332 . S
N186 C191 1.332 . S
C187 C188 1.388 . S
C187 C191 1.382 . S
C187 H210 0.950 . S
C188 C187 1.388 . S
C188 C189 1.386 . S
C189 C188 1.386 . S
C189 C190 1.382 . S
C189 H211 0.950 . S
C190 N186 1.332 . S
C190 C189 1.382 . S
C190 H192 0.952 . S
C191 N186 1.332 . S
C191 C187 1.382 . S
C191 H193 0.948 . S
H192 C190 0.952 . S
H193 C191 0.948 . S
H194 C183 0.952 . S
H195 C185 0.914 1_455 S
C196 C162 1.395 1_455 S
C196 C166 1.391 . S
C197 C159 1.389 . S
C197 C179 1.392 . S
C198 C169 1.392 . S
C198 C171 1.389 . S
C199 C174 1.395 . S
C199 C176 1.391 1_455 S
H200 C160 0.951 . S
H201 C161 0.950 . S
H202 C167 0.949 . S
H203 C168 0.950 . S
H204 C172 0.951 . S
H205 C173 0.950 . S
H206 C177 0.949 . S
H207 C178 0.950 . S
H208 C182 0.950 . S
H209 C184 0.981 . S
H210 C187 0.950 . S
H211 C189 0.950 . S
C212 C213 1.443 . S
C212 N216 1.376 . S
C212 C250 1.389 . S
C213 C212 1.443 . S
C213 C214 1.340 . S
C213 H253 0.951 . S
C214 C213 1.340 . S
C214 C215 1.439 . S
C214 H254 0.950 . S
C215 C214 1.439 . S
C215 N216 1.374 . S
C215 C249 1.395 . S
N216 C212 1.376 . S
N216 C215 1.374 . S
N216 Co217 2.008 . S
Co217 N216 2.008 . S
Co217 N218 1.995 . S
Co217 N223 2.008 . S
Co217 N228 1.995 . S
Co217 N233 2.282 . S
Co217 N239 2.282 . S
N218 Co217 1.995 . S
N218 C219 1.376 . S
N218 C222 1.383 . S
C219 N218 1.376 . S
C219 C220 1.446 . S
C219 C249 1.391 . S
C220 C219 1.446 . S
C220 C221 1.339 . S
C220 H255 0.949 . S
C221 C220 1.339 . S
C221 C222 1.439 . S
C221 H256 0.950 . S
C222 N218 1.383 . S
C222 C221 1.439 . S
C222 C251 1.392 . S
N223 Co217 2.008 . S
N223 C224 1.376 . S
N223 C227 1.374 . S
C224 N223 1.376 . S
C224 C225 1.443 . S
C224 C251 1.389 . S
C225 C224 1.443 . S
C225 C226 1.340 . S
C225 H257 0.951 . S
C226 C225 1.340 . S
C226 C227 1.439 . S
C226 H258 0.950 . S
C227 N223 1.374 . S
C227 C226 1.439 . S
C227 C252 1.395 . S
N228 Co217 1.995 . S
N228 C229 1.376 . S
N228 C232 1.383 . S
C229 N228 1.376 . S
C229 C230 1.446 . S
C229 C252 1.391 . S
C230 C229 1.446 . S
C230 C231 1.339 . S
C230 H259 0.949 . S
C231 C230 1.339 . S
C231 C232 1.439 . S
C231 H260 0.950 . S
C232 N228 1.383 . S
C232 C231 1.439 . S
C232 C250 1.392 . S
N233 Co217 2.282 . S
N233 C236 1.332 . S
N233 C238 1.332 . S
C234 C235 1.386 . S
C234 C237 1.388 . S
C235 C234 1.386 . S
C235 C236 1.382 . S
C235 H261 0.950 . S
C236 N233 1.332 . S
C236 C235 1.382 . S
C236 H247 0.952 . S
C237 C234 1.388 . S
C237 C238 1.382 . S
C237 H262 0.950 . S
C238 N233 1.332 . S
C238 C237 1.382 . S
C238 H248 0.948 . S
N239 Co217 2.282 . S
N239 C243 1.332 . S
N239 C244 1.332 . S
C240 C241 1.388 . S
C240 C244 1.382 . S
C240 H263 0.950 . S
C241 C240 1.388 . S
C241 C242 1.386 . S
C242 C241 1.386 . S
C242 C243 1.382 . S
C242 H264 0.950 . S
C243 N239 1.332 . S
C243 C242 1.382 . S
C243 H245 0.952 . S
C244 N239 1.332 . S
C244 C240 1.382 . S
C244 H246 0.948 . S
H245 C243 0.952 . S
H246 C244 0.948 . S
H247 C236 0.952 . S
H248 C238 0.948 . S
C249 C215 1.395 . S
C249 C219 1.391 . S
C250 C212 1.389 . S
C250 C232 1.392 . S
C251 C222 1.392 . S
C251 C224 1.389 . S
C252 C227 1.395 . S
C252 C229 1.391 . S
H253 C213 0.951 . S
H254 C214 0.950 . S
H255 C220 0.949 . S
H256 C221 0.950 . S
H257 C225 0.951 . S
H258 C226 0.950 . S
H259 C230 0.949 . S
H260 C231 0.950 . S
H261 C235 0.950 . S
H262 C237 0.950 . S
H263 C240 0.950 . S
H264 C242 0.950 . S
C265 C266 1.443 . S
C265 N269 1.376 . S
C265 C303 1.389 . S
C266 C265 1.443 . S
C266 C267 1.340 . S
C266 H306 0.951 . S
C267 C266 1.340 . S
C267 C268 1.439 . S
C267 H307 0.950 . S
C268 C267 1.439 . S
C268 N269 1.374 . S
C268 C302 1.395 1_565 S
N269 C265 1.376 . S
N269 C268 1.374 . S
N269 Co270 2.008 1_565 S
Co270 N269 2.008 1_545 S
Co270 N271 1.995 . S
Co270 N276 2.008 . S
Co270 N281 1.995 1_545 S
Co270 N286 2.282 1_545 S
Co270 N292 2.282 . S
N271 Co270 1.995 . S
N271 C272 1.376 . S
N271 C275 1.383 . S
C272 N271 1.376 . S
C272 C273 1.446 . S
C272 C302 1.391 . S
C273 C272 1.446 . S
C273 C274 1.339 . S
C273 H308 0.949 . S
C274 C273 1.339 . S
C274 C275 1.439 . S
C274 H309 0.950 . S
C275 N271 1.383 . S
C275 C274 1.439 . S
C275 C304 1.392 . S
N276 Co270 2.008 . S
N276 C277 1.376 . S
N276 C280 1.374 . S
C277 N276 1.376 . S
C277 C278 1.443 . S
C277 C304 1.389 . S
C278 C277 1.443 . S
C278 C279 1.340 . S
C278 H310 0.951 . S
C279 C278 1.340 . S
C279 C280 1.439 . S
C279 H311 0.950 . S
C280 N276 1.374 . S
C280 C279 1.439 . S
C280 C305 1.395 . S
N281 Co270 1.995 1_565 S
N281 C282 1.376 . S
N281 C285 1.383 . S
C282 N281 1.376 . S
C282 C283 1.446 . S
C282 C305 1.391 1_565 S
C283 C282 1.446 . S
C283 C284 1.339 . S
C283 H312 0.949 . S
C284 C283 1.339 . S
C284 C285 1.439 . S
C284 H313 0.950 . S
C285 N281 1.383 . S
C285 C284 1.439 . S
C285 C303 1.392 . S
N286 Co270 2.282 1_565 S
N286 C289 1.332 . S
N286 C291 1.360 . S
C287 C288 1.386 . S
C287 C290 1.388 . S
C288 C287 1.386 . S
C288 C289 1.382 . S
C288 H314 0.950 . S
C289 N286 1.332 . S
C289 C288 1.382 . S
C289 H300 0.952 . S
C290 C287 1.388 . S
C290 C291 1.388 . S
C290 H315 0.981 . S
C291 N286 1.360 . S
C291 C290 1.388 . S
C291 H301 0.914 1_565 S
N292 Co270 2.282 . S
N292 C296 1.332 . S
N292 C297 1.332 . S
C293 C294 1.388 . S
C293 C297 1.382 . S
C293 H316 0.950 . S
C294 C293 1.388 . S
C294 C295 1.386 . S
C295 C294 1.386 . S
C295 C296 1.382 . S
C295 H317 0.950 . S
C296 N292 1.332 . S
C296 C295 1.382 . S
C296 H298 0.952 . S
C297 N292 1.332 . S
C297 C293 1.382 . S
C297 H299 0.948 . S
H298 C296 0.952 . S
H299 C297 0.948 . S
H300 C289 0.952 . S
H301 C291 0.914 1_545 S
C302 C268 1.395 1_545 S
C302 C272 1.391 . S
C303 C265 1.389 . S
C303 C285 1.392 . S
C304 C275 1.392 . S
C304 C277 1.389 . S
C305 C280 1.395 . S
C305 C282 1.391 1_545 S
H306 C266 0.951 . S
H307 C267 0.950 . S
H308 C273 0.949 . S
H309 C274 0.950 . S
H310 C278 0.951 . S
H311 C279 0.950 . S
H312 C283 0.949 . S
H313 C284 0.950 . S
H314 C288 0.950 . S
H315 C290 0.981 . S
H316 C293 0.950 . S
H317 C295 0.950 . S
C318 C319 1.443 . S
C318 N322 1.376 . S
C318 C356 1.389 . S
C319 C318 1.443 . S
C319 C320 1.340 . S
C319 H359 0.951 . S
C320 C319 1.340 . S
C320 C321 1.439 . S
C320 H360 0.950 . S
C321 C320 1.439 . S
C321 N322 1.374 . S
C321 C355 1.395 . S
N322 C318 1.376 . S
N322 C321 1.374 . S
N322 Co323 2.008 . S
Co323 N322 2.008 . S
Co323 N324 1.995 . S
Co323 N329 2.008 . S
Co323 N334 1.995 . S
Co323 N339 2.282 . S
Co323 N345 2.282 . S
N324 Co323 1.995 . S
N324 C325 1.376 . S
N324 C328 1.383 . S
C325 N324 1.376 . S
C325 C326 1.446 . S
C325 C355 1.391 . S
C326 C325 1.446 . S
C326 C327 1.339 . S
C326 H361 0.949 . S
C327 C326 1.339 . S
C327 C328 1.439 . S
C327 H362 0.950 . S
C328 N324 1.383 . S
C328 C327 1.439 . S
C328 C357 1.392 . S
N329 Co323 2.008 . S
N329 C330 1.376 . S
N329 C333 1.374 . S
C330 N329 1.376 . S
C330 C331 1.443 . S
C330 C357 1.389 . S
C331 C330 1.443 . S
C331 C332 1.340 . S
C331 H363 0.951 . S
C332 C331 1.340 . S
C332 C333 1.439 . S
C332 H364 0.950 1_545 S
C333 N329 1.374 . S
C333 C332 1.439 . S
C333 C358 1.395 . S
N334 Co323 1.995 . S
N334 C335 1.376 . S
N334 C338 1.383 . S
C335 N334 1.376 . S
C335 C336 1.446 . S
C335 C358 1.391 . S
C336 C335 1.446 . S
C336 C337 1.339 . S
C336 H365 0.949 1_545 S
C337 C336 1.339 . S
C337 C338 1.439 . S
C337 H366 0.950 . S
C338 N334 1.383 . S
C338 C337 1.439 . S
C338 C356 1.392 . S
N339 Co323 2.282 . S
N339 C342 1.332 . S
N339 C344 1.332 . S
C340 C341 1.386 . S
C340 C343 1.388 . S
C341 C340 1.386 . S
C341 C342 1.382 . S
C341 H367 0.950 1_545 S
C342 N339 1.332 . S
C342 C341 1.382 . S
C342 H353 0.952 . S
C343 C340 1.388 . S
C343 C344 1.382 . S
C343 H368 0.950 . S
C344 N339 1.332 . S
C344 C343 1.382 . S
C344 H354 0.948 . S
N345 Co323 2.282 . S
N345 C349 1.332 . S
N345 C350 1.332 . S
C346 C347 1.388 . S
C346 C350 1.382 . S
C346 H369 0.950 . S
C347 C346 1.388 . S
C347 C348 1.386 . S
C348 C347 1.386 . S
C348 C349 1.382 . S
C348 H370 0.950 . S
C349 N345 1.332 . S
C349 C348 1.382 . S
C349 H351 0.952 . S
C350 N345 1.332 . S
C350 C346 1.382 . S
C350 H352 0.948 . S
H351 C349 0.952 . S
H352 C350 0.948 . S
H353 C342 0.952 . S
H354 C344 0.948 . S
C355 C321 1.395 . S
C355 C325 1.391 . S
C356 C318 1.389 . S
C356 C338 1.392 . S
C357 C328 1.392 . S
C357 C330 1.389 . S
C358 C333 1.395 . S
C358 C335 1.391 . S
H359 C319 0.951 . S
H360 C320 0.950 . S
H361 C326 0.949 . S
H362 C327 0.950 . S
H363 C331 0.951 . S
H364 C332 0.950 1_565 S
H365 C336 0.949 1_565 S
H366 C337 0.950 . S
H367 C341 0.950 1_565 S
H368 C343 0.950 . S
H369 C346 0.950 . S
H370 C348 0.950 . S
C371 C372 1.443 . S
C371 N375 1.376 . S
C371 C409 1.389 . S
C372 C371 1.443 . S
C372 C373 1.340 . S
C372 H412 0.951 . S
C373 C372 1.340 . S
C373 C374 1.439 . S
C373 H413 0.950 . S
C374 C373 1.439 . S
C374 N375 1.374 . S
C374 C408 1.395 . S
N375 C371 1.376 . S
N375 C374 1.374 . S
N375 Co376 2.008 . S
Co376 N375 2.008 . S
Co376 N377 1.995 . S
Co376 N382 2.008 . S
Co376 N387 1.995 . S
Co376 N392 2.282 . S
Co376 N398 2.282 . S
N377 Co376 1.995 . S
N377 C378 1.376 . S
N377 C381 1.383 . S
C378 N377 1.376 . S
C378 C379 1.446 . S
C378 C408 1.391 . S
C379 C378 1.446 . S
C379 C380 1.339 . S
C379 H414 0.949 . S
C380 C379 1.339 . S
C380 C381 1.439 . S
C380 H415 0.950 . S
C381 N377 1.383 . S
C381 C380 1.439 . S
C381 C410 1.392 . S
N382 Co376 2.008 . S
N382 C383 1.376 . S
N382 C386 1.374 . S
C383 N382 1.376 . S
C383 C384 1.443 . S
C383 C410 1.389 . S
C384 C383 1.443 . S
C384 C385 1.340 1_655 S
C384 H416 0.951 . S
C385 C384 1.340 1_455 S
C385 C386 1.439 1_455 S
C385 H417 0.950 . S
C386 N382 1.374 . S
C386 C385 1.439 1_655 S
C386 C411 1.395 1_655 S
N387 Co376 1.995 . S
N387 C388 1.376 . S
N387 C391 1.383 . S
C388 N387 1.376 . S
C388 C389 1.446 . S
C388 C411 1.380 1_655 S
C389 C388 1.446 . S
C389 C390 1.339 . S
C389 H418 0.949 1_655 S
C390 C389 1.339 . S
C390 C391 1.439 . S
C390 H419 0.950 . S
C391 N387 1.383 . S
C391 C390 1.439 . S
C391 C409 1.392 . S
N392 Co376 2.282 . S
N392 C395 1.332 . S
N392 C397 1.332 . S
C393 C394 1.386 . S
C393 C396 1.388 . S
C394 C393 1.386 . S
C394 C395 1.382 . S
C394 H420 0.950 . S
C395 N392 1.332 . S
C395 C394 1.382 . S
C395 H406 0.952 . S
C396 C393 1.388 . S
C396 C397 1.382 . S
C396 H421 0.950 . S
C397 N392 1.332 . S
C397 C396 1.382 . S
C397 H407 0.948 . S
N398 Co376 2.282 . S
N398 C402 1.332 . S
N398 C403 1.332 . S
C399 C400 1.388 1_455 S
C399 C403 1.382 1_455 S
C399 H422 0.950 . S
C400 C399 1.388 1_655 S
C400 C401 1.386 . S
C401 C400 1.386 . S
C401 C402 1.382 . S
C401 H423 0.950 . S
C402 N398 1.332 . S
C402 C401 1.382 . S
C402 H404 0.952 . S
C403 N398 1.332 . S
C403 C399 1.382 1_655 S
C403 H405 0.948 . S
H404 C402 0.952 . S
H405 C403 0.948 . S
H406 C395 0.952 . S
H407 C397 0.948 . S
C408 C374 1.395 . S
C408 C378 1.391 . S
C409 C371 1.389 . S
C409 C391 1.392 . S
C410 C381 1.392 . S
C410 C383 1.389 . S
C411 C386 1.395 1_455 S
C411 C388 1.380 1_455 S
H412 C372 0.951 . S
H413 C373 0.950 . S
H414 C379 0.949 . S
H415 C380 0.950 . S
H416 C384 0.951 . S
H417 C385 0.950 . S
H418 C389 0.949 1_455 S
H419 C390 0.950 . S
H420 C394 0.950 . S
H421 C396 0.950 . S
H422 C399 0.950 . S
H423 C401 0.950 . S
C424 C425 1.443 . S
C424 N428 1.376 . S
C424 C462 1.389 . S
C425 C424 1.443 . S
C425 C426 1.340 . S
C425 H465 0.951 . S
C426 C425 1.340 . S
C426 C427 1.439 . S
C426 H466 0.950 . S
C427 C426 1.439 . S
C427 N428 1.374 . S
C427 C461 1.395 . S
N428 C424 1.376 . S
N428 C427 1.374 . S
N428 Co429 2.008 . S
Co429 N428 2.008 . S
Co429 N430 1.995 . S
Co429 N435 2.008 . S
Co429 N440 1.995 . S
Co429 N445 2.282 . S
Co429 N451 2.282 . S
N430 Co429 1.995 . S
N430 C431 1.376 . S
N430 C434 1.383 . S
C431 N430 1.376 . S
C431 C432 1.446 . S
C431 C461 1.391 . S
C432 C431 1.446 . S
C432 C433 1.339 . S
C432 H467 0.949 . S
C433 C432 1.339 . S
C433 C434 1.439 . S
C433 H468 0.950 . S
C434 N430 1.383 . S
C434 C433 1.439 . S
C434 C463 1.392 . S
N435 Co429 2.008 . S
N435 C436 1.376 . S
N435 C439 1.374 . S
C436 N435 1.376 . S
C436 C437 1.443 . S
C436 C463 1.389 . S
C437 C436 1.443 . S
C437 C438 1.340 . S
C437 H469 0.951 . S
C438 C437 1.340 . S
C438 C439 1.439 . S
C438 H470 0.950 . S
C439 N435 1.374 . S
C439 C438 1.439 . S
C439 C464 1.395 . S
N440 Co429 1.995 . S
N440 C441 1.376 . S
N440 C444 1.383 . S
C441 N440 1.376 . S
C441 C442 1.446 . S
C441 C464 1.391 . S
C442 C441 1.446 . S
C442 C443 1.339 . S
C442 H471 0.949 . S
C443 C442 1.339 . S
C443 C444 1.439 . S
C443 H472 0.950 . S
C444 N440 1.383 . S
C444 C443 1.439 . S
C444 C462 1.392 . S
N445 Co429 2.282 . S
N445 C448 1.332 . S
N445 C450 1.332 . S
C446 C447 1.386 . S
C446 C449 1.388 . S
C447 C446 1.386 . S
C447 C448 1.382 . S
C447 H473 0.950 . S
C448 N445 1.332 . S
C448 C447 1.382 . S
C448 H459 0.952 . S
C449 C446 1.388 . S
C449 C450 1.382 . S
C449 H474 0.950 . S
C450 N445 1.332 . S
C450 C449 1.382 . S
C450 H460 0.948 . S
N451 Co429 2.282 . S
N451 C455 1.332 . S
N451 C456 1.332 . S
C452 C453 1.388 . S
C452 C456 1.382 . S
C452 H475 0.950 . S
C453 C452 1.388 . S
C453 C454 1.386 . S
C454 C453 1.386 . S
C454 C455 1.382 . S
C454 H476 0.950 . S
C455 N451 1.332 . S
C455 C454 1.382 . S
C455 H457 0.952 . S
C456 N451 1.332 . S
C456 C452 1.382 . S
C456 H458 0.948 . S
H457 C455 0.952 . S
H458 C456 0.948 . S
H459 C448 0.952 . S
H460 C450 0.948 . S
C461 C427 1.395 . S
C461 C431 1.391 . S
C462 C424 1.389 . S
C462 C444 1.392 . S
C463 C434 1.392 . S
C463 C436 1.389 . S
C464 C439 1.395 . S
C464 C441 1.391 . S
H465 C425 0.951 . S
H466 C426 0.950 . S
H467 C432 0.949 . S
H468 C433 0.950 . S
H469 C437 0.951 . S
H470 C438 0.950 . S
H471 C442 0.949 . S
H472 C443 0.950 . S
H473 C447 0.950 . S
H474 C449 0.950 . S
H475 C452 0.950 . S
H476 C454 0.950 . S
C477 C478 1.443 . S
C477 N481 1.376 . S
C477 C515 1.389 . S
C478 C477 1.443 . S
C478 C479 1.340 . S
C478 H518 0.951 . S
C479 C478 1.340 . S
C479 C480 1.439 . S
C479 H519 0.950 . S
C480 C479 1.439 . S
C480 N481 1.374 . S
C480 C514 1.395 . S
N481 C477 1.376 . S
N481 C480 1.374 . S
N481 Co482 2.008 . S
Co482 N481 2.008 . S
Co482 N483 1.995 . S
Co482 N488 2.008 . S
Co482 N493 1.995 . S
Co482 N498 2.282 . S
Co482 N504 2.282 . S
N483 Co482 1.995 . S
N483 C484 1.376 . S
N483 C487 1.383 . S
C484 N483 1.376 . S
C484 C485 1.446 . S
C484 C514 1.391 . S
C485 C484 1.446 . S
C485 C486 1.339 . S
C485 H520 0.949 . S
C486 C485 1.339 . S
C486 C487 1.439 . S
C486 H521 0.950 . S
C487 N483 1.383 . S
C487 C486 1.439 . S
C487 C516 1.392 . S
N488 Co482 2.008 . S
N488 C489 1.376 . S
N488 C492 1.374 . S
C489 N488 1.376 . S
C489 C490 1.443 . S
C489 C516 1.389 . S
C490 C489 1.443 . S
C490 C491 1.340 . S
C490 H522 0.951 . S
C491 C490 1.340 . S
C491 C492 1.439 . S
C491 H523 0.950 . S
C492 N488 1.374 . S
C492 C491 1.439 . S
C492 C517 1.395 . S
N493 Co482 1.995 . S
N493 C494 1.376 . S
N493 C497 1.383 . S
C494 N493 1.376 . S
C494 C495 1.446 . S
C494 C517 1.391 . S
C495 C494 1.446 . S
C495 C496 1.339 . S
C495 H524 0.949 . S
C496 C495 1.339 . S
C496 C497 1.439 . S
C496 H525 0.950 . S
C497 N493 1.383 . S
C497 C496 1.439 . S
C497 C515 1.392 . S
N498 Co482 2.282 . S
N498 C501 1.332 . S
N498 C503 1.332 . S
C499 C500 1.386 . S
C499 C502 1.388 . S
C500 C499 1.386 . S
C500 C501 1.382 . S
C500 H526 0.950 . S
C501 N498 1.332 . S
C501 C500 1.382 . S
C501 H512 0.952 . S
C502 C499 1.388 . S
C502 C503 1.382 . S
C502 H527 0.950 . S
C503 N498 1.332 . S
C503 C502 1.382 . S
C503 H513 0.948 . S
N504 Co482 2.282 . S
N504 C508 1.332 . S
N504 C509 1.332 . S
C505 C506 1.388 . S
C505 C509 1.382 . S
C505 H528 0.950 . S
C506 C505 1.388 . S
C506 C507 1.386 . S
C507 C506 1.386 . S
C507 C508 1.382 . S
C507 H529 0.950 . S
C508 N504 1.332 . S
C508 C507 1.382 . S
C508 H510 0.952 . S
C509 N504 1.332 . S
C509 C505 1.382 . S
C509 H511 0.948 . S
H510 C508 0.952 . S
H511 C509 0.948 . S
H512 C501 0.952 . S
H513 C503 0.948 . S
C514 C480 1.395 . S
C514 C484 1.391 . S
C515 C477 1.389 . S
C515 C497 1.392 . S
C516 C487 1.392 . S
C516 C489 1.389 . S
C517 C492 1.395 . S
C517 C494 1.391 . S
H518 C478 0.951 . S
H519 C479 0.950 . S
H520 C485 0.949 . S
H521 C486 0.950 . S
H522 C490 0.951 . S
H523 C491 0.950 . S
H524 C495 0.949 . S
H525 C496 0.950 . S
H526 C500 0.950 . S
H527 C502 0.950 . S
H528 C505 0.950 . S
H529 C507 0.950 . S
C530 C531 1.443 . S
C530 N534 1.376 . S
C530 C568 1.389 . S
C531 C530 1.443 . S
C531 C532 1.340 . S
C531 H571 0.951 . S
C532 C531 1.340 . S
C532 C533 1.439 . S
C532 H572 0.950 . S
C533 C532 1.439 . S
C533 N534 1.374 . S
C533 C567 1.395 . S
N534 C530 1.376 . S
N534 C533 1.374 . S
N534 Co535 2.008 . S
Co535 N534 2.008 . S
Co535 N536 1.995 . S
Co535 N541 2.008 . S
Co535 N546 1.995 . S
Co535 N551 2.282 . S
Co535 N557 2.282 . S
N536 Co535 1.995 . S
N536 C537 1.376 . S
N536 C540 1.383 . S
C537 N536 1.376 . S
C537 C538 1.446 . S
C537 C567 1.391 . S
C538 C537 1.446 . S
C538 C539 1.339 . S
C538 H573 0.949 . S
C539 C538 1.339 . S
C539 C540 1.439 . S
C539 H574 0.950 . S
C540 N536 1.383 . S
C540 C539 1.439 . S
C540 C569 1.392 . S
N541 Co535 2.008 . S
N541 C542 1.376 . S
N541 C545 1.374 . S
C542 N541 1.376 . S
C542 C543 1.443 . S
C542 C569 1.389 . S
C543 C542 1.443 . S
C543 C544 1.340 . S
C543 H575 0.951 . S
C544 C543 1.340 . S
C544 C545 1.439 . S
C544 H576 0.950 . S
C545 N541 1.374 . S
C545 C544 1.439 . S
C545 C570 1.395 . S
N546 Co535 1.995 . S
N546 C547 1.376 . S
N546 C550 1.383 . S
C547 N546 1.376 . S
C547 C548 1.446 . S
C547 C570 1.391 . S
C548 C547 1.446 . S
C548 C549 1.339 . S
C548 H577 0.949 . S
C549 C548 1.339 . S
C549 C550 1.439 . S
C549 H578 0.950 . S
C550 N546 1.383 . S
C550 C549 1.439 . S
C550 C568 1.392 . S
N551 Co535 2.282 . S
N551 C554 1.332 . S
N551 C556 1.332 . S
C552 C553 1.386 . S
C552 C555 1.388 . S
C553 C552 1.386 . S
C553 C554 1.382 . S
C553 H579 0.950 . S
C554 N551 1.332 . S
C554 C553 1.382 . S
C554 H565 0.952 . S
C555 C552 1.388 . S
C555 C556 1.382 . S
C555 H580 0.950 . S
C556 N551 1.332 . S
C556 C555 1.382 . S
C556 H566 0.948 . S
N557 Co535 2.282 . S
N557 C561 1.332 . S
N557 C562 1.332 . S
C558 C559 1.388 . S
C558 C562 1.382 . S
C558 H581 0.950 . S
C559 C558 1.388 . S
C559 C560 1.386 . S
C560 C559 1.386 . S
C560 C561 1.382 . S
C560 H582 0.950 . S
C561 N557 1.332 . S
C561 C560 1.382 . S
C561 H563 0.952 . S
C562 N557 1.332 . S
C562 C558 1.382 . S
C562 H564 0.948 . S
H563 C561 0.952 . S
H564 C562 0.948 . S
H565 C554 0.952 . S
H566 C556 0.948 . S
C567 C533 1.395 . S
C567 C537 1.391 . S
C568 C530 1.389 . S
C568 C550 1.392 . S
C569 C540 1.392 . S
C569 C542 1.389 . S
C570 C545 1.395 . S
C570 C547 1.391 . S
H571 C531 0.951 . S
H572 C532 0.950 . S
H573 C538 0.949 . S
H574 C539 0.950 . S
H575 C543 0.951 . S
H576 C544 0.950 . S
H577 C548 0.949 . S
H578 C549 0.950 . S
H579 C553 0.950 . S
H580 C555 0.950 . S
H581 C558 0.950 . S
H582 C560 0.950 . S
C583 C584 1.443 . S
C583 N587 1.376 . S
C583 C621 1.389 . S
C584 C583 1.443 . S
C584 C585 1.340 . S
C584 H624 0.951 . S
C585 C584 1.340 . S
C585 C586 1.439 . S
C585 H625 0.950 . S
C586 C585 1.439 . S
C586 N587 1.374 . S
C586 C620 1.395 . S
N587 C583 1.376 . S
N587 C586 1.374 . S
N587 Co588 2.008 . S
Co588 N587 2.008 . S
Co588 N589 1.995 . S
Co588 N594 2.008 . S
Co588 N599 1.995 . S
Co588 N604 2.282 . S
Co588 N610 2.282 . S
N589 Co588 1.995 . S
N589 C590 1.376 . S
N589 C593 1.383 . S
C590 N589 1.376 . S
C590 C591 1.446 . S
C590 C620 1.391 . S
C591 C590 1.446 . S
C591 C592 1.339 . S
C591 H626 0.949 . S
C592 C591 1.339 . S
C592 C593 1.439 . S
C592 H627 0.950 . S
C593 N589 1.383 . S
C593 C592 1.439 . S
C593 C622 1.392 . S
N594 Co588 2.008 . S
N594 C595 1.376 . S
N594 C598 1.374 . S
C595 N594 1.376 . S
C595 C596 1.443 . S
C595 C622 1.389 . S
C596 C595 1.443 . S
C596 C597 1.330 1_655 S
C596 H628 0.951 1_655 S
C597 C596 1.330 1_455 S
C597 C598 1.432 1_455 S
C597 H629 0.964 . S
C598 N594 1.374 . S
C598 C597 1.432 1_655 S
C598 C623 1.395 . S
N599 Co588 1.995 . S
N599 C600 1.376 . S
N599 C603 1.383 . S
C600 N599 1.376 . S
C600 C601 1.446 . S
C600 C623 1.391 . S
C601 C600 1.446 . S
C601 C602 1.339 . S
C601 H630 0.949 . S
C602 C601 1.339 . S
C602 C603 1.439 . S
C602 H631 0.950 . S
C603 N599 1.383 . S
C603 C602 1.439 . S
C603 C621 1.392 . S
N604 Co588 2.282 . S
N604 C607 1.332 . S
N604 C609 1.332 . S
C605 C606 1.386 . S
C605 C608 1.388 . S
C606 C605 1.386 . S
C606 C607 1.382 . S
C606 H632 0.950 . S
C607 N604 1.332 . S
C607 C606 1.382 . S
C607 H618 0.952 . S
C608 C605 1.388 . S
C608 C609 1.382 . S
C608 H633 0.950 . S
C609 N604 1.332 . S
C609 C608 1.382 . S
C609 H619 0.948 . S
N610 Co588 2.282 . S
N610 C614 1.332 . S
N610 C615 1.332 . S
C611 C612 1.388 . S
C611 C615 1.382 . S
C611 H634 0.950 . S
C612 C611 1.388 . S
C612 C613 1.386 . S
C613 C612 1.386 . S
C613 C614 1.382 . S
C613 H635 0.950 . S
C614 N610 1.332 . S
C614 C613 1.382 . S
C614 H616 0.952 . S
C615 N610 1.332 . S
C615 C611 1.382 . S
C615 H617 0.948 . S
H616 C614 0.952 . S
H617 C615 0.948 . S
H618 C607 0.952 . S
H619 C609 0.948 . S
C620 C586 1.395 . S
C620 C590 1.391 . S
C621 C583 1.389 . S
C621 C603 1.392 . S
C622 C593 1.392 . S
C622 C595 1.389 . S
C623 C598 1.395 . S
C623 C600 1.391 . S
H624 C584 0.951 . S
H625 C585 0.950 . S
H626 C591 0.949 . S
H627 C592 0.950 . S
H628 C596 0.951 1_455 S
H629 C597 0.964 . S
H630 C601 0.949 . S
H631 C602 0.950 . S
H632 C606 0.950 . S
H633 C608 0.950 . S
H634 C611 0.950 . S
H635 C613 0.950 . S
C636 C637 1.443 . S
C636 N640 1.376 . S
C636 C674 1.389 . S
C637 C636 1.443 . S
C637 C638 1.340 . S
C637 H677 0.951 . S
C638 C637 1.340 . S
C638 C639 1.439 . S
C638 H678 0.950 . S
C639 C638 1.439 . S
C639 N640 1.374 . S
C639 C673 1.395 . S
N640 C636 1.376 . S
N640 C639 1.374 . S
N640 Co641 2.008 . S
Co641 N640 2.008 . S
Co641 N642 1.995 . S
Co641 N647 2.008 . S
Co641 N652 1.995 . S
Co641 N657 2.282 . S
Co641 N663 2.282 . S
N642 Co641 1.995 . S
N642 C643 1.376 . S
N642 C646 1.383 . S
C643 N642 1.376 . S
C643 C644 1.446 . S
C643 C673 1.391 . S
C644 C643 1.446 . S
C644 C645 1.339 . S
C644 H679 0.949 . S
C645 C644 1.339 . S
C645 C646 1.439 . S
C645 H680 0.950 . S
C646 N642 1.383 . S
C646 C645 1.439 . S
C646 C675 1.392 . S
N647 Co641 2.008 . S
N647 C648 1.376 . S
N647 C651 1.374 . S
C648 N647 1.376 . S
C648 C649 1.443 . S
C648 C675 1.389 . S
C649 C648 1.443 . S
C649 C650 1.340 . S
C649 H681 0.951 . S
C650 C649 1.340 . S
C650 C651 1.439 . S
C650 H682 0.950 . S
C651 N647 1.374 . S
C651 C650 1.439 . S
C651 C676 1.395 . S
N652 Co641 1.995 . S
N652 C653 1.376 . S
N652 C656 1.383 . S
C653 N652 1.376 . S
C653 C654 1.446 . S
C653 C676 1.391 . S
C654 C653 1.446 . S
C654 C655 1.339 . S
C654 H683 0.949 . S
C655 C654 1.339 . S
C655 C656 1.439 . S
C655 H684 0.950 . S
C656 N652 1.383 . S
C656 C655 1.439 . S
C656 C674 1.392 . S
N657 Co641 2.282 . S
N657 C660 1.332 . S
N657 C662 1.332 . S
C658 C659 1.386 . S
C658 C661 1.388 . S
C659 C658 1.386 . S
C659 C660 1.382 . S
C659 H685 0.950 . S
C660 N657 1.332 . S
C660 C659 1.382 . S
C660 H671 0.952 . S
C661 C658 1.388 . S
C661 C662 1.382 . S
C661 H686 0.950 . S
C662 N657 1.332 . S
C662 C661 1.382 . S
C662 H672 0.948 . S
N663 Co641 2.282 . S
N663 C667 1.332 . S
N663 C668 1.332 . S
C664 C665 1.388 . S
C664 C668 1.382 . S
C664 H687 0.950 . S
C665 C664 1.388 . S
C665 C666 1.386 . S
C666 C665 1.386 . S
C666 C667 1.382 . S
C666 H688 0.950 . S
C667 N663 1.332 . S
C667 C666 1.382 . S
C667 H669 0.952 . S
C668 N663 1.332 . S
C668 C664 1.382 . S
C668 H670 0.948 . S
H669 C667 0.952 . S
H670 C668 0.948 . S
H671 C660 0.952 . S
H672 C662 0.948 . S
C673 C639 1.395 . S
C673 C643 1.391 . S
C674 C636 1.389 . S
C674 C656 1.392 . S
C675 C646 1.392 . S
C675 C648 1.389 . S
C676 C651 1.395 . S
C676 C653 1.391 . S
H677 C637 0.951 . S
H678 C638 0.950 . S
H679 C644 0.949 . S
H680 C645 0.950 . S
H681 C649 0.951 . S
H682 C650 0.950 . S
H683 C654 0.949 . S
H684 C655 0.950 . S
H685 C659 0.950 . S
H686 C661 0.950 . S
H687 C664 0.950 . S
H688 C666 0.950 . S
C689 C690 1.443 . S
C689 N693 1.376 . S
C689 C727 1.389 . S
C690 C689 1.443 . S
C690 C691 1.340 . S
C690 H730 0.951 . S
C691 C690 1.340 . S
C691 C692 1.439 . S
C691 H731 0.950 . S
C692 C691 1.439 . S
C692 N693 1.374 . S
C692 C726 1.395 . S
N693 C689 1.376 . S
N693 C692 1.374 . S
N693 Co694 2.008 . S
Co694 N693 2.008 . S
Co694 N695 1.995 . S
Co694 N700 2.008 . S
Co694 N705 1.995 . S
Co694 N710 2.282 . S
Co694 N716 2.282 . S
N695 Co694 1.995 . S
N695 C696 1.376 . S
N695 C699 1.383 . S
C696 N695 1.376 . S
C696 C697 1.446 . S
C696 C726 1.391 . S
C697 C696 1.446 . S
C697 C698 1.339 . S
C697 H732 0.949 . S
C698 C697 1.339 . S
C698 C699 1.439 . S
C698 H733 0.950 . S
C699 N695 1.383 . S
C699 C698 1.439 . S
C699 C728 1.392 . S
N700 Co694 2.008 . S
N700 C701 1.376 . S
N700 C704 1.374 . S
C701 N700 1.376 . S
C701 C702 1.443 . S
C701 C728 1.389 . S
C702 C701 1.443 . S
C702 C703 1.340 1_565 S
C702 H734 0.951 . S
C703 C702 1.340 1_545 S
C703 C704 1.439 1_545 S
C703 H735 0.950 . S
C704 N700 1.374 . S
C704 C703 1.439 1_565 S
C704 C729 1.395 1_565 S
N705 Co694 1.995 . S
N705 C706 1.376 . S
N705 C709 1.383 . S
C706 N705 1.376 . S
C706 C707 1.446 1_565 S
C706 C729 1.391 1_565 S
C707 C706 1.446 1_545 S
C707 C708 1.339 1_545 S
C707 H736 0.949 . S
C708 C707 1.339 1_565 S
C708 C709 1.439 . S
C708 H737 0.953 . S
C709 N705 1.383 . S
C709 C708 1.439 . S
C709 C727 1.392 . S
N710 Co694 2.282 . S
N710 C713 1.332 . S
N710 C715 1.332 . S
C711 C712 1.386 1_565 S
C711 C714 1.388 . S
C712 C711 1.386 1_545 S
C712 C713 1.382 1_545 S
C712 H738 0.950 . S
C713 N710 1.332 . S
C713 C712 1.382 1_565 S
C713 H724 0.949 1_565 S
C714 C711 1.388 . S
C714 C715 1.382 . S
C714 H739 0.950 . S
C715 N710 1.332 . S
C715 C714 1.382 . S
C715 H725 0.948 . S
N716 Co694 2.282 . S
N716 C720 1.332 . S
N716 C721 1.332 . S
C717 C718 1.388 . S
C717 C721 1.382 . S
C717 H740 0.950 . S
C718 C717 1.388 . S
C718 C719 1.386 . S
C719 C718 1.386 . S
C719 C720 1.382 . S
C719 H741 0.950 . S
C720 N716 1.332 . S
C720 C719 1.382 . S
C720 H722 0.952 . S
C721 N716 1.332 . S
C721 C717 1.382 . S
C721 H723 0.948 . S
H722 C720 0.952 . S
H723 C721 0.948 . S
H724 C713 0.949 1_545 S
H725 C715 0.948 . S
C726 C692 1.395 . S
C726 C696 1.391 . S
C727 C689 1.389 . S
C727 C709 1.392 . S
C728 C699 1.392 . S
C728 C701 1.389 . S
C729 C704 1.395 1_545 S
C729 C706 1.391 1_545 S
H730 C690 0.951 . S
H731 C691 0.950 . S
H732 C697 0.949 . S
H733 C698 0.950 . S
H734 C702 0.951 . S
H735 C703 0.950 . S
H736 C707 0.949 . S
H737 C708 0.953 . S
H738 C712 0.950 . S
H739 C714 0.950 . S
H740 C717 0.950 . S
H741 C719 0.950 . S
C742 C743 1.443 . S
C742 N746 1.376 . S
C742 C780 1.389 . S
C743 C742 1.443 . S
C743 C744 1.340 . S
C743 H783 0.951 . S
C744 C743 1.340 . S
C744 C745 1.439 . S
C744 H784 0.950 . S
C745 C744 1.439 . S
C745 N746 1.374 . S
C745 C779 1.395 . S
N746 C742 1.376 . S
N746 C745 1.374 . S
N746 Co747 2.008 . S
Co747 N746 2.008 . S
Co747 N748 1.995 . S
Co747 N753 2.008 . S
Co747 N758 1.995 . S
Co747 N763 2.282 . S
Co747 N769 2.282 . S
N748 Co747 1.995 . S
N748 C749 1.376 . S
N748 C752 1.383 . S
C749 N748 1.376 . S
C749 C750 1.446 . S
C749 C779 1.391 . S
C750 C749 1.446 . S
C750 C751 1.339 . S
C750 H785 0.949 . S
C751 C750 1.339 . S
C751 C752 1.439 . S
C751 H786 0.950 . S
C752 N748 1.383 . S
C752 C751 1.439 . S
C752 C781 1.392 . S
N753 Co747 2.008 . S
N753 C754 1.376 . S
N753 C757 1.374 . S
C754 N753 1.376 . S
C754 C755 1.443 . S
C754 C781 1.389 . S
C755 C754 1.443 . S
C755 C756 1.340 . S
C755 H787 0.951 . S
C756 C755 1.340 . S
C756 C757 1.439 . S
C756 H788 0.950 1_455 S
C757 N753 1.374 . S
C757 C756 1.439 . S
C757 C782 1.395 . S
N758 Co747 1.995 . S
N758 C759 1.376 . S
N758 C762 1.383 . S
C759 N758 1.376 . S
C759 C760 1.446 . S
C759 C782 1.391 . S
C760 C759 1.446 . S
C760 C761 1.339 . S
C760 H789 0.949 1_455 S
C761 C760 1.339 . S
C761 C762 1.439 . S
C761 H790 0.950 . S
C762 N758 1.383 . S
C762 C761 1.439 . S
C762 C780 1.392 . S
N763 Co747 2.282 . S
N763 C766 1.332 . S
N763 C768 1.332 . S
C764 C765 1.386 . S
C764 C767 1.388 . S
C765 C764 1.386 . S
C765 C766 1.382 . S
C765 H791 0.950 1_455 S
C766 N763 1.332 . S
C766 C765 1.382 . S
C766 H777 0.952 . S
C767 C764 1.388 . S
C767 C768 1.382 . S
C767 H792 0.950 . S
C768 N763 1.332 . S
C768 C767 1.382 . S
C768 H778 0.948 . S
N769 Co747 2.282 . S
N769 C773 1.332 . S
N769 C774 1.332 . S
C770 C771 1.388 . S
C770 C774 1.382 . S
C770 H793 0.950 . S
C771 C770 1.388 . S
C771 C772 1.386 . S
C772 C771 1.386 . S
C772 C773 1.382 . S
C772 H794 0.950 . S
C773 N769 1.332 . S
C773 C772 1.382 . S
C773 H775 0.952 . S
C774 N769 1.332 . S
C774 C770 1.382 . S
C774 H776 0.948 . S
H775 C773 0.952 . S
H776 C774 0.948 . S
H777 C766 0.952 . S
H778 C768 0.948 . S
C779 C745 1.395 . S
C779 C749 1.391 . S
C780 C742 1.389 . S
C780 C762 1.392 . S
C781 C752 1.392 . S
C781 C754 1.389 . S
C782 C757 1.395 . S
C782 C759 1.391 . S
H783 C743 0.951 . S
H784 C744 0.950 . S
H785 C750 0.949 . S
H786 C751 0.950 . S
H787 C755 0.951 . S
H788 C756 0.950 1_655 S
H789 C760 0.949 1_655 S
H790 C761 0.950 . S
H791 C765 0.950 1_655 S
H792 C767 0.950 . S
H793 C770 0.950 . S
H794 C772 0.950 . S
C795 C796 1.443 . S
C795 N799 1.376 . S
C795 C833 1.389 . S
C796 C795 1.443 . S
C796 C797 1.340 . S
C796 H836 0.951 . S
C797 C796 1.340 . S
C797 C798 1.439 . S
C797 H837 0.950 . S
C798 C797 1.439 . S
C798 N799 1.374 . S
C798 C832 1.395 . S
N799 C795 1.376 . S
N799 C798 1.374 . S
N799 Co800 2.008 . S
Co800 N799 2.008 . S
Co800 N801 1.995 . S
Co800 N806 2.008 . S
Co800 N811 1.995 . S
Co800 N816 2.282 . S
Co800 N822 2.282 . S
N801 Co800 1.995 . S
N801 C802 1.376 . S
N801 C805 1.383 . S
C802 N801 1.376 . S
C802 C803 1.446 . S
C802 C832 1.391 . S
C803 C802 1.446 . S
C803 C804 1.339 . S
C803 H838 0.949 . S
C804 C803 1.339 . S
C804 C805 1.439 . S
C804 H839 0.950 . S
C805 N801 1.383 . S
C805 C804 1.439 . S
C805 C834 1.392 . S
N806 Co800 2.008 . S
N806 C807 1.376 . S
N806 C810 1.374 . S
C807 N806 1.376 . S
C807 C808 1.443 . S
C807 C834 1.389 . S
C808 C807 1.443 . S
C808 C809 1.330 1_565 S
C808 H840 0.951 1_565 S
C809 C808 1.330 1_545 S
C809 C810 1.432 1_545 S
C809 H841 0.964 . S
C810 N806 1.374 . S
C810 C809 1.432 1_565 S
C810 C835 1.395 . S
N811 Co800 1.995 . S
N811 C812 1.376 . S
N811 C815 1.383 . S
C812 N811 1.376 . S
C812 C813 1.446 . S
C812 C835 1.391 . S
C813 C812 1.446 . S
C813 C814 1.339 . S
C813 H842 0.949 . S
C814 C813 1.339 . S
C814 C815 1.439 . S
C814 H843 0.950 . S
C815 N811 1.383 . S
C815 C814 1.439 . S
C815 C833 1.392 . S
N816 Co800 2.282 . S
N816 C819 1.332 . S
N816 C821 1.332 . S
C817 C818 1.386 . S
C817 C820 1.388 . S
C818 C817 1.386 . S
C818 C819 1.382 . S
C818 H844 0.950 . S
C819 N816 1.332 . S
C819 C818 1.382 . S
C819 H830 0.952 . S
C820 C817 1.388 . S
C820 C821 1.382 . S
C820 H845 0.950 . S
C821 N816 1.332 . S
C821 C820 1.382 . S
C821 H831 0.948 . S
N822 Co800 2.282 . S
N822 C826 1.332 . S
N822 C827 1.332 . S
C823 C824 1.388 . S
C823 C827 1.382 . S
C823 H846 0.950 . S
C824 C823 1.388 . S
C824 C825 1.386 . S
C825 C824 1.386 . S
C825 C826 1.382 . S
C825 H847 0.950 . S
C826 N822 1.332 . S
C826 C825 1.382 . S
C826 H828 0.952 . S
C827 N822 1.332 . S
C827 C823 1.382 . S
C827 H829 0.948 . S
H828 C826 0.952 . S
H829 C827 0.948 . S
H830 C819 0.952 . S
H831 C821 0.948 . S
C832 C798 1.395 . S
C832 C802 1.391 . S
C833 C795 1.389 . S
C833 C815 1.392 . S
C834 C805 1.392 . S
C834 C807 1.389 . S
C835 C810 1.395 . S
C835 C812 1.391 . S
H836 C796 0.951 . S
H837 C797 0.950 . S
H838 C803 0.949 . S
H839 C804 0.950 . S
H840 C808 0.951 1_545 S
H841 C809 0.964 . S
H842 C813 0.949 . S
H843 C814 0.950 . S
H844 C818 0.950 . S
H845 C820 0.950 . S
H846 C823 0.950 . S
H847 C825 0.950 . S
C848 C849 1.443 . S
C848 N852 1.376 . S
C848 C886 1.389 . S
C849 C848 1.443 . S
C849 C850 1.340 . S
C849 H889 0.951 . S
C850 C849 1.340 . S
C850 C851 1.439 . S
C850 H890 0.950 . S
C851 C850 1.439 . S
C851 N852 1.374 . S
C851 C885 1.395 . S
N852 C848 1.376 . S
N852 C851 1.374 . S
N852 Co853 2.008 . S
Co853 N852 2.008 . S
Co853 N854 1.995 . S
Co853 N859 2.008 . S
Co853 N864 1.995 . S
Co853 N869 2.282 . S
Co853 N875 2.282 . S
N854 Co853 1.995 . S
N854 C855 1.376 . S
N854 C858 1.383 . S
C855 N854 1.376 . S
C855 C856 1.446 . S
C855 C885 1.391 . S
C856 C855 1.446 . S
C856 C857 1.339 . S
C856 H891 0.949 . S
C857 C856 1.339 . S
C857 C858 1.439 . S
C857 H892 0.950 . S
C858 N854 1.383 . S
C858 C857 1.439 . S
C858 C887 1.392 . S
N859 Co853 2.008 . S
N859 C860 1.376 . S
N859 C863 1.374 . S
C860 N859 1.376 . S
C860 C861 1.443 . S
C860 C887 1.389 . S
C861 C860 1.443 . S
C861 C862 1.340 . S
C861 H893 0.951 . S
C862 C861 1.340 . S
C862 C863 1.439 . S
C862 H894 0.950 . S
C863 N859 1.374 . S
C863 C862 1.439 . S
C863 C888 1.395 . S
N864 Co853 1.995 . S
N864 C865 1.376 . S
N864 C868 1.383 . S
C865 N864 1.376 . S
C865 C866 1.446 . S
C865 C888 1.391 . S
C866 C865 1.446 . S
C866 C867 1.339 . S
C866 H895 0.949 . S
C867 C866 1.339 . S
C867 C868 1.439 . S
C867 H896 0.950 . S
C868 N864 1.383 . S
C868 C867 1.439 . S
C868 C886 1.392 . S
N869 Co853 2.282 . S
N869 C872 1.332 . S
N869 C874 1.332 . S
C870 C871 1.386 . S
C870 C873 1.388 . S
C871 C870 1.386 . S
C871 C872 1.382 . S
C871 H897 0.950 . S
C872 N869 1.332 . S
C872 C871 1.382 . S
C872 H883 0.952 . S
C873 C870 1.388 . S
C873 C874 1.382 . S
C873 H898 0.950 . S
C874 N869 1.332 . S
C874 C873 1.382 . S
C874 H884 0.948 . S
N875 Co853 2.282 . S
N875 C879 1.332 . S
N875 C880 1.332 . S
C876 C877 1.388 . S
C876 C880 1.382 . S
C876 H899 0.950 . S
C877 C876 1.388 . S
C877 C878 1.386 . S
C878 C877 1.386 . S
C878 C879 1.382 . S
C878 H900 0.950 . S
C879 N875 1.332 . S
C879 C878 1.382 . S
C879 H881 0.952 . S
C880 N875 1.332 . S
C880 C876 1.382 . S
C880 H882 0.948 . S
H881 C879 0.952 . S
H882 C880 0.948 . S
H883 C872 0.952 . S
H884 C874 0.948 . S
C885 C851 1.395 . S
C885 C855 1.391 . S
C886 C848 1.389 . S
C886 C868 1.392 . S
C887 C858 1.392 . S
C887 C860 1.389 . S
C888 C863 1.395 . S
C888 C865 1.391 . S
H889 C849 0.951 . S
H890 C850 0.950 . S
H891 C856 0.949 . S
H892 C857 0.950 . S
H893 C861 0.951 . S
H894 C862 0.950 . S
H895 C866 0.949 . S
H896 C867 0.950 . S
H897 C871 0.950 . S
H898 C873 0.950 . S
H899 C876 0.950 . S
H900 C878 0.950 . S
C901 C902 1.443 . S
C901 N905 1.376 . S
C901 C939 1.389 . S
C902 C901 1.443 . S
C902 C903 1.340 . S
C902 H942 0.951 . S
C903 C902 1.340 . S
C903 C904 1.439 . S
C903 H943 0.950 . S
C904 C903 1.439 . S
C904 N905 1.374 . S
C904 C938 1.395 . S
N905 C901 1.376 . S
N905 C904 1.374 . S
N905 Co906 2.008 . S
Co906 N905 2.008 . S
Co906 N907 1.995 . S
Co906 N912 2.008 . S
Co906 N917 1.995 . S
Co906 N922 2.282 . S
Co906 N928 2.282 . S
N907 Co906 1.995 . S
N907 C908 1.376 . S
N907 C911 1.383 . S
C908 N907 1.376 . S
C908 C909 1.446 . S
C908 C938 1.391 . S
C909 C908 1.446 . S
C909 C910 1.339 . S
C909 H944 0.949 . S
C910 C909 1.339 . S
C910 C911 1.439 . S
C910 H945 0.950 . S
C911 N907 1.383 . S
C911 C910 1.439 . S
C911 C940 1.392 . S
N912 Co906 2.008 . S
N912 C913 1.376 . S
N912 C916 1.374 . S
C913 N912 1.376 . S
C913 C914 1.443 . S
C913 C940 1.389 . S
C914 C913 1.443 . S
C914 C915 1.340 . S
C914 H946 0.951 . S
C915 C914 1.340 . S
C915 C916 1.439 . S
C915 H947 0.950 . S
C916 N912 1.374 . S
C916 C915 1.439 . S
C916 C941 1.395 . S
N917 Co906 1.995 . S
N917 C918 1.376 . S
N917 C921 1.383 . S
C918 N917 1.376 . S
C918 C919 1.446 . S
C918 C941 1.391 . S
C919 C918 1.446 . S
C919 C920 1.339 . S
C919 H948 0.949 . S
C920 C919 1.339 . S
C920 C921 1.439 . S
C920 H949 0.950 . S
C921 N917 1.383 . S
C921 C920 1.439 . S
C921 C939 1.392 . S
N922 Co906 2.282 . S
N922 C925 1.332 . S
N922 C927 1.332 . S
C923 C924 1.386 . S
C923 C926 1.388 . S
C924 C923 1.386 . S
C924 C925 1.382 . S
C924 H950 0.950 . S
C925 N922 1.332 . S
C925 C924 1.382 . S
C925 H936 0.952 . S
C926 C923 1.388 . S
C926 C927 1.382 . S
C926 H951 0.950 . S
C927 N922 1.332 . S
C927 C926 1.382 . S
C927 H937 0.948 . S
N928 Co906 2.282 . S
N928 C932 1.332 . S
N928 C933 1.332 . S
C929 C930 1.388 . S
C929 C933 1.382 . S
C929 H952 0.950 . S
C930 C929 1.388 . S
C930 C931 1.386 . S
C931 C930 1.386 . S
C931 C932 1.382 . S
C931 H953 0.950 . S
C932 N928 1.332 . S
C932 C931 1.382 . S
C932 H934 0.952 . S
C933 N928 1.332 . S
C933 C929 1.382 . S
C933 H935 0.948 . S
H934 C932 0.952 . S
H935 C933 0.948 . S
H936 C925 0.952 . S
H937 C927 0.948 . S
C938 C904 1.395 . S
C938 C908 1.391 . S
C939 C901 1.389 . S
C939 C921 1.392 . S
C940 C911 1.392 . S
C940 C913 1.389 . S
C941 C916 1.395 . S
C941 C918 1.391 . S
H942 C902 0.951 . S
H943 C903 0.950 . S
H944 C909 0.949 . S
H945 C910 0.950 . S
H946 C914 0.951 . S
H947 C915 0.950 . S
H948 C919 0.949 . S
H949 C920 0.950 . S
H950 C924 0.950 . S
H951 C926 0.950 . S
H952 C929 0.950 . S
H953 C931 0.950 . S
H954 C962 0.929 . S
H955 C964 0.930 . S
H956 C966 0.930 . S
H957 C969 0.929 1_655 S
H958 C972 0.930 . S
H959 C974 0.960 . S
H960 C974 0.960 . S
H961 C974 0.960 . S
C962 H954 0.929 . S
C962 C963 1.377 . S
C962 C964 1.384 . S
C963 C962 1.377 . S
C963 C969 1.390 . S
C964 H955 0.930 . S
C964 C962 1.384 . S
C964 C965 1.372 . S
C965 C964 1.372 . S
C965 C966 1.400 . S
C965 C970 1.490 . S
C966 H956 0.930 . S
C966 C965 1.400 . S
C966 C969 1.386 . S
H967 C983 0.967 . S
H968 C984 0.931 . S
C969 H957 0.929 1_455 S
C969 C963 1.390 . S
C969 C966 1.386 . S
C970 C965 1.490 . S
C970 C972 1.395 . S
C970 C973 1.403 . S
H971 C977 0.930 . S
C972 H958 0.930 . S
C972 C970 1.395 . S
C972 C975 1.403 . S
C973 C970 1.403 . S
C973 C974 1.524 . S
C973 C977 1.400 . S
C974 H959 0.960 . S
C974 H960 0.960 . S
C974 H961 0.960 . S
C974 C973 1.524 . S
C975 C972 1.403 . S
C975 C976 1.392 . S
C975 C979 1.495 . S
C976 C975 1.392 . S
C976 C977 1.385 . S
C976 C978 1.478 . S
C977 H971 0.930 . S
C977 C973 1.400 . S
C977 C976 1.385 . S
C978 C976 1.478 . S
C978 C980 1.381 . S
C978 C984 1.383 . S
C979 C975 1.495 . S
C979 H985 0.959 . S
C979 H986 0.961 . S
C979 H987 0.960 . S
C980 C978 1.381 . S
C980 C981 1.394 . S
C980 H988 0.930 . S
C981 C980 1.394 . S
C981 C982 1.383 . S
C981 H989 0.929 . S
C982 C981 1.383 . S
C982 C983 1.377 . S
C983 H967 0.967 . S
C983 C982 1.377 . S
C983 C984 1.379 . S
C984 H968 0.931 . S
C984 C978 1.383 . S
C984 C983 1.379 . S
H985 C979 0.959 . S
H986 C979 0.961 . S
H987 C979 0.960 . S
H988 C980 0.930 . S
H989 C981 0.929 . S
H990 C998 0.929 1_556 S
H991 C1000 0.930 . S
H992 C1002 0.930 . S
H993 C1005 0.929 . S
H994 C1008 0.930 . S
H995 C1010 0.960 . S
H996 C1010 0.960 . S
H997 C1010 0.960 . S
C998 H990 0.929 1_554 S
C998 C999 1.377 . S
C998 C1000 1.384 . S
C999 C998 1.377 . S
C999 C1005 1.390 . S
C1000 H991 0.930 . S
C1000 C998 1.384 . S
C1000 C1001 1.372 . S
C1001 C1000 1.372 . S
C1001 C1002 1.400 . S
C1001 C1006 1.490 . S
C1002 H992 0.930 . S
C1002 C1001 1.400 . S
C1002 C1005 1.386 . S
H1003 C1019 0.930 . S
H1004 C1020 0.931 . S
C1005 H993 0.929 . S
C1005 C999 1.390 . S
C1005 C1002 1.386 . S
C1006 C1001 1.490 . S
C1006 C1008 1.395 . S
C1006 C1009 1.403 . S
H1007 C1013 0.930 . S
C1008 H994 0.930 . S
C1008 C1006 1.395 . S
C1008 C1011 1.403 . S
C1009 C1006 1.403 . S
C1009 C1010 1.524 . S
C1009 C1013 1.400 . S
C1010 H995 0.960 . S
C1010 H996 0.960 . S
C1010 H997 0.960 . S
C1010 C1009 1.524 . S
C1011 C1008 1.403 . S
C1011 C1012 1.392 . S
C1011 C1015 1.495 . S
C1012 C1011 1.392 . S
C1012 C1013 1.385 . S
C1012 C1014 1.478 . S
C1013 H1007 0.930 . S
C1013 C1009 1.400 . S
C1013 C1012 1.385 . S
C1014 C1012 1.478 . S
C1014 C1016 1.381 . S
C1014 C1020 1.383 . S
C1015 C1011 1.495 . S
C1015 H1021 0.959 . S
C1015 H1022 0.961 . S
C1015 H1023 0.960 . S
C1016 C1014 1.381 . S
C1016 C1017 1.394 . S
C1016 H1024 0.930 . S
C1017 C1016 1.394 . S
C1017 C1018 1.383 . S
C1017 H1025 0.929 . S
C1018 C1017 1.383 . S
C1018 C1019 1.377 . S
C1019 H1003 0.930 . S
C1019 C1018 1.377 . S
C1019 C1020 1.379 . S
C1020 H1004 0.931 . S
C1020 C1014 1.383 . S
C1020 C1019 1.379 . S
H1021 C1015 0.959 . S
H1022 C1015 0.961 . S
H1023 C1015 0.960 . S
H1024 C1016 0.930 . S
H1025 C1017 0.929 . S
H1026 C1034 0.929 . S
H1027 C1036 0.930 . S
H1028 C1038 0.930 . S
H1029 C1041 0.929 . S
H1030 C1044 0.930 . S
H1031 C1046 0.960 1_545 S
H1032 C1046 0.960 . S
H1033 C1046 0.960 1_545 S
C1034 H1026 0.929 . S
C1034 C1035 1.377 . S
C1034 C1036 1.384 . S
C1035 C1034 1.377 . S
C1035 C1041 1.390 1_565 S
C1036 H1027 0.930 . S
C1036 C1034 1.384 . S
C1036 C1037 1.372 . S
C1037 C1036 1.372 . S
C1037 C1038 1.400 1_565 S
C1037 C1042 1.490 . S
C1038 H1028 0.930 . S
C1038 C1037 1.400 1_545 S
C1038 C1041 1.386 . S
H1039 C1055 0.930 . S
H1040 C1056 0.931 . S
C1041 H1029 0.929 . S
C1041 C1035 1.390 1_545 S
C1041 C1038 1.386 . S
C1042 C1037 1.490 . S
C1042 C1044 1.395 . S
C1042 C1045 1.403 . S
H1043 C1049 0.930 . S
C1044 H1030 0.930 . S
C1044 C1042 1.395 . S
C1044 C1047 1.403 . S
C1045 C1042 1.403 . S
C1045 C1046 1.524 . S
C1045 C1049 1.400 . S
C1046 H1031 0.960 1_565 S
C1046 H1032 0.960 . S
C1046 H1033 0.960 1_565 S
C1046 C1045 1.524 . S
C1047 C1044 1.403 . S
C1047 C1048 1.392 . S
C1047 C1051 1.495 . S
C1048 C1047 1.392 . S
C1048 C1049 1.385 . S
C1048 C1050 1.478 . S
C1049 H1043 0.930 . S
C1049 C1045 1.400 . S
C1049 C1048 1.385 . S
C1050 C1048 1.478 . S
C1050 C1052 1.381 . S
C1050 C1056 1.383 . S
C1051 C1047 1.495 . S
C1051 H1057 0.959 . S
C1051 H1058 0.961 . S
C1051 H1059 0.960 . S
C1052 C1050 1.381 . S
C1052 C1053 1.394 . S
C1052 H1060 0.930 . S
C1053 C1052 1.394 . S
C1053 C1054 1.383 . S
C1053 H1061 0.929 . S
C1054 C1053 1.383 . S
C1054 C1055 1.377 . S
C1055 H1039 0.930 . S
C1055 C1054 1.377 . S
C1055 C1056 1.379 . S
C1056 H1040 0.931 . S
C1056 C1050 1.383 . S
C1056 C1055 1.379 . S
H1057 C1051 0.959 . S
H1058 C1051 0.961 . S
H1059 C1051 0.960 . S
H1060 C1052 0.930 . S
H1061 C1053 0.929 . S
H1062 C1070 0.929 . S
H1063 C1072 0.930 . S
H1064 C1074 0.930 . S
H1065 C1077 0.929 . S
H1066 C1080 0.930 . S
H1067 C1082 0.960 . S
H1068 C1082 0.960 . S
H1069 C1082 0.960 . S
C1070 H1062 0.929 . S
C1070 C1071 1.377 . S
C1070 C1072 1.384 . S
C1071 C1070 1.377 . S
C1071 C1077 1.390 . S
C1072 H1063 0.930 . S
C1072 C1070 1.384 . S
C1072 C1073 1.372 . S
C1073 C1072 1.372 . S
C1073 C1074 1.400 . S
C1073 C1078 1.490 . S
C1074 H1064 0.930 . S
C1074 C1073 1.400 . S
C1074 C1077 1.386 . S
H1075 C1091 0.930 . S
H1076 C1092 0.931 . S
C1077 H1065 0.929 . S
C1077 C1071 1.390 . S
C1077 C1074 1.386 . S
C1078 C1073 1.490 . S
C1078 C1080 1.395 . S
C1078 C1081 1.403 . S
H1079 C1085 0.930 . S
C1080 H1066 0.930 . S
C1080 C1078 1.395 . S
C1080 C1083 1.403 . S
C1081 C1078 1.403 . S
C1081 C1082 1.524 . S
C1081 C1085 1.400 . S
C1082 H1067 0.960 . S
C1082 H1068 0.960 . S
C1082 H1069 0.960 . S
C1082 C1081 1.524 . S
C1083 C1080 1.403 . S
C1083 C1084 1.392 . S
C1083 C1087 1.495 . S
C1084 C1083 1.392 . S
C1084 C1085 1.385 . S
C1084 C1086 1.478 . S
C1085 H1079 0.930 . S
C1085 C1081 1.400 . S
C1085 C1084 1.385 . S
C1086 C1084 1.478 . S
C1086 C1088 1.381 . S
C1086 C1092 1.383 . S
C1087 C1083 1.495 . S
C1087 H1093 0.959 . S
C1087 H1094 0.961 . S
C1087 H1095 0.960 1_545 S
C1088 C1086 1.381 . S
C1088 C1089 1.394 . S
C1088 H1096 0.930 1_545 S
C1089 C1088 1.394 . S
C1089 C1090 1.383 . S
C1089 H1097 0.929 1_545 S
C1090 C1089 1.383 . S
C1090 C1091 1.377 . S
C1091 H1075 0.930 . S
C1091 C1090 1.377 . S
C1091 C1092 1.379 . S
C1092 H1076 0.931 . S
C1092 C1086 1.383 . S
C1092 C1091 1.379 . S
H1093 C1087 0.959 . S
H1094 C1087 0.961 . S
H1095 C1087 0.960 1_565 S
H1096 C1088 0.930 1_565 S
H1097 C1089 0.929 1_565 S
H1098 C1106 0.929 . S
H1099 C1108 0.930 . S
H1100 C1110 0.930 . S
H1101 C1113 0.929 . S
H1102 C1116 0.930 . S
H1103 C1118 0.960 . S
H1104 C1118 0.960 . S
H1105 C1118 0.960 . S
C1106 H1098 0.929 . S
C1106 C1107 1.377 . S
C1106 C1108 1.384 . S
C1107 C1106 1.377 . S
C1107 C1113 1.390 . S
C1108 H1099 0.930 . S
C1108 C1106 1.384 . S
C1108 C1109 1.372 . S
C1109 C1108 1.372 . S
C1109 C1110 1.400 . S
C1109 C1114 1.490 . S
C1110 H1100 0.930 . S
C1110 C1109 1.400 . S
C1110 C1113 1.386 . S
H1111 C1127 0.930 . S
H1112 C1128 0.931 1_455 S
C1113 H1101 0.929 . S
C1113 C1107 1.390 . S
C1113 C1110 1.386 . S
C1114 C1109 1.490 . S
C1114 C1116 1.395 . S
C1114 C1117 1.403 . S
H1115 C1121 0.930 . S
C1116 H1102 0.930 . S
C1116 C1114 1.395 . S
C1116 C1119 1.403 . S
C1117 C1114 1.403 . S
C1117 C1118 1.524 . S
C1117 C1121 1.400 . S
C1118 H1103 0.960 . S
C1118 H1104 0.960 . S
C1118 H1105 0.960 . S
C1118 C1117 1.524 . S
C1119 C1116 1.403 . S
C1119 C1120 1.392 . S
C1119 C1123 1.495 . S
C1120 C1119 1.392 . S
C1120 C1121 1.385 . S
C1120 C1122 1.478 . S
C1121 H1115 0.930 . S
C1121 C1117 1.400 . S
C1121 C1120 1.385 . S
C1122 C1120 1.478 . S
C1122 C1124 1.381 . S
C1122 C1128 1.383 . S
C1123 C1119 1.495 . S
C1123 H1129 0.959 . S
C1123 H1130 0.961 1_655 S
C1123 H1131 0.960 . S
C1124 C1122 1.381 . S
C1124 C1125 1.394 . S
C1124 H1132 0.930 . S
C1125 C1124 1.394 . S
C1125 C1126 1.383 . S
C1125 H1133 0.929 . S
C1126 C1125 1.383 . S
C1126 C1127 1.377 1_655 S
C1127 H1111 0.930 . S
C1127 C1126 1.377 1_455 S
C1127 C1128 1.379 1_455 S
C1128 H1112 0.931 1_655 S
C1128 C1122 1.383 . S
C1128 C1127 1.379 1_655 S
H1129 C1123 0.959 . S
H1130 C1123 0.961 1_455 S
H1131 C1123 0.960 . S
H1132 C1124 0.930 . S
H1133 C1125 0.929 . S
H1134 C1142 0.929 . S
H1135 C1144 0.930 . S
H1136 C1146 0.930 . S
H1137 C1149 0.929 . S
H1138 C1152 0.930 . S
H1139 C1154 0.960 . S
H1140 C1154 0.960 . S
H1141 C1154 0.960 . S
C1142 H1134 0.929 . S
C1142 C1143 1.377 . S
C1142 C1144 1.384 . S
C1143 C1142 1.377 . S
C1143 C1149 1.390 . S
C1144 H1135 0.930 . S
C1144 C1142 1.384 . S
C1144 C1145 1.372 . S
C1145 C1144 1.372 . S
C1145 C1146 1.400 . S
C1145 C1150 1.490 . S
C1146 H1136 0.930 . S
C1146 C1145 1.400 . S
C1146 C1149 1.386 . S
H1147 C1163 0.930 . S
H1148 C1164 0.931 . S
C1149 H1137 0.929 . S
C1149 C1143 1.390 . S
C1149 C1146 1.386 . S
C1150 C1145 1.490 . S
C1150 C1152 1.395 . S
C1150 C1153 1.403 . S
H1151 C1157 0.930 . S
C1152 H1138 0.930 . S
C1152 C1150 1.395 . S
C1152 C1155 1.403 . S
C1153 C1150 1.403 . S
C1153 C1154 1.524 . S
C1153 C1157 1.400 . S
C1154 H1139 0.960 . S
C1154 H1140 0.960 . S
C1154 H1141 0.960 . S
C1154 C1153 1.524 . S
C1155 C1152 1.403 . S
C1155 C1156 1.392 . S
C1155 C1159 1.495 . S
C1156 C1155 1.392 . S
C1156 C1157 1.385 . S
C1156 C1158 1.478 . S
C1157 H1151 0.930 . S
C1157 C1153 1.400 . S
C1157 C1156 1.385 . S
C1158 C1156 1.478 . S
C1158 C1160 1.381 . S
C1158 C1164 1.383 . S
C1159 C1155 1.495 . S
C1159 H1165 0.959 . S
C1159 H1166 0.961 . S
C1159 H1167 0.960 . S
C1160 C1158 1.381 . S
C1160 C1161 1.394 . S
C1160 H1168 0.930 . S
C1161 C1160 1.394 . S
C1161 C1162 1.383 . S
C1161 H1169 0.929 . S
C1162 C1161 1.383 . S
C1162 C1163 1.377 . S
C1163 H1147 0.930 . S
C1163 C1162 1.377 . S
C1163 C1164 1.379 . S
C1164 H1148 0.931 . S
C1164 C1158 1.383 . S
C1164 C1163 1.379 . S
H1165 C1159 0.959 . S
H1166 C1159 0.961 . S
H1167 C1159 0.960 . S
H1168 C1160 0.930 . S
H1169 C1161 0.929 . S
H1170 C1178 0.929 . S
H1171 C1180 0.930 . S
H1172 C1182 0.941 . S
H1173 C1185 0.929 1_455 S
H1174 C1188 0.930 . S
H1175 C1190 0.960 . S
H1176 C1190 0.960 . S
H1177 C1190 0.960 . S
C1178 H1170 0.929 . S
C1178 C1179 1.377 . S
C1178 C1180 1.384 . S
C1179 C1178 1.377 . S
C1179 C1185 1.390 . S
C1180 H1171 0.930 . S
C1180 C1178 1.384 . S
C1180 C1181 1.372 . S
C1181 C1180 1.372 . S
C1181 C1182 1.400 . S
C1181 C1186 1.490 . S
C1182 H1172 0.941 . S
C1182 C1181 1.400 . S
C1182 C1185 1.386 . S
H1183 C1199 0.930 . S
H1184 C1200 0.931 . S
C1185 H1173 0.929 1_655 S
C1185 C1179 1.390 . S
C1185 C1182 1.386 . S
C1186 C1181 1.490 . S
C1186 C1188 1.395 . S
C1186 C1189 1.403 . S
H1187 C1193 0.930 . S
C1188 H1174 0.930 . S
C1188 C1186 1.395 . S
C1188 C1191 1.403 . S
C1189 C1186 1.403 . S
C1189 C1190 1.524 . S
C1189 C1193 1.400 . S
C1190 H1175 0.960 . S
C1190 H1176 0.960 . S
C1190 H1177 0.960 . S
C1190 C1189 1.524 . S
C1191 C1188 1.403 . S
C1191 C1192 1.392 . S
C1191 C1195 1.495 . S
C1192 C1191 1.392 . S
C1192 C1193 1.385 . S
C1192 C1194 1.478 . S
C1193 H1187 0.930 . S
C1193 C1189 1.400 . S
C1193 C1192 1.385 . S
C1194 C1192 1.478 . S
C1194 C1196 1.381 . S
C1194 C1200 1.383 . S
C1195 C1191 1.495 . S
C1195 H1201 0.959 . S
C1195 H1202 0.961 . S
C1195 H1203 0.960 . S
C1196 C1194 1.381 . S
C1196 C1197 1.394 . S
C1196 H1204 0.930 . S
C1197 C1196 1.394 . S
C1197 C1198 1.383 . S
C1197 H1205 0.929 . S
C1198 C1197 1.383 . S
C1198 C1199 1.377 . S
C1199 H1183 0.930 . S
C1199 C1198 1.377 . S
C1199 C1200 1.379 . S
C1200 H1184 0.931 . S
C1200 C1194 1.383 . S
C1200 C1199 1.379 . S
H1201 C1195 0.959 . S
H1202 C1195 0.961 . S
H1203 C1195 0.960 . S
H1204 C1196 0.930 . S
H1205 C1197 0.929 . S
H1206 C1214 0.929 . S
H1207 C1216 0.930 . S
H1208 C1218 0.930 . S
H1209 C1221 0.929 . S
H1210 C1224 0.930 . S
H1211 C1226 0.960 . S
H1212 C1226 0.960 . S
H1213 C1226 0.960 . S
C1214 H1206 0.929 . S
C1214 C1215 1.377 . S
C1214 C1216 1.384 . S
C1215 C1214 1.377 . S
C1215 C1221 1.390 . S
C1216 H1207 0.930 . S
C1216 C1214 1.384 . S
C1216 C1217 1.372 . S
C1217 C1216 1.372 . S
C1217 C1218 1.400 . S
C1217 C1222 1.490 . S
C1218 H1208 0.930 . S
C1218 C1217 1.400 . S
C1218 C1221 1.386 . S
H1219 C1235 0.930 . S
H1220 C1236 0.931 . S
C1221 H1209 0.929 . S
C1221 C1215 1.390 . S
C1221 C1218 1.386 . S
C1222 C1217 1.490 . S
C1222 C1224 1.395 . S
C1222 C1225 1.403 . S
H1223 C1229 0.930 . S
C1224 H1210 0.930 . S
C1224 C1222 1.395 . S
C1224 C1227 1.403 . S
C1225 C1222 1.403 . S
C1225 C1226 1.524 . S
C1225 C1229 1.400 . S
C1226 H1211 0.960 . S
C1226 H1212 0.960 . S
C1226 H1213 0.960 . S
C1226 C1225 1.524 . S
C1227 C1224 1.403 . S
C1227 C1228 1.392 . S
C1227 C1231 1.495 . S
C1228 C1227 1.392 . S
C1228 C1229 1.385 . S
C1228 C1230 1.478 . S
C1229 H1223 0.930 . S
C1229 C1225 1.400 . S
C1229 C1228 1.385 . S
C1230 C1228 1.478 . S
C1230 C1232 1.381 . S
C1230 C1236 1.383 . S
C1231 C1227 1.495 . S
C1231 H1237 0.959 . S
C1231 H1238 0.961 . S
C1231 H1239 0.960 . S
C1232 C1230 1.381 . S
C1232 C1233 1.394 . S
C1232 H1240 0.930 . S
C1233 C1232 1.394 . S
C1233 C1234 1.383 . S
C1233 H1241 0.929 . S
C1234 C1233 1.383 . S
C1234 C1235 1.377 . S
C1235 H1219 0.930 . S
C1235 C1234 1.377 . S
C1235 C1236 1.379 . S
C1236 H1220 0.931 . S
C1236 C1230 1.383 . S
C1236 C1235 1.379 . S
H1237 C1231 0.959 . S
H1238 C1231 0.961 . S
H1239 C1231 0.960 . S
H1240 C1232 0.930 . S
H1241 C1233 0.929 . S
H1242 C1250 0.929 . S
H1243 C1252 0.930 . S
H1244 C1254 0.930 . S
H1245 C1257 0.929 . S
H1246 C1260 0.930 . S
H1247 C1262 0.960 . S
H1248 C1262 0.960 . S
H1249 C1262 0.960 . S
C1250 H1242 0.929 . S
C1250 C1251 1.377 . S
C1250 C1252 1.384 . S
C1251 C1250 1.377 . S
C1251 C1257 1.390 . S
C1252 H1243 0.930 . S
C1252 C1250 1.384 . S
C1252 C1253 1.372 . S
C1253 C1252 1.372 . S
C1253 C1254 1.400 . S
C1253 C1258 1.490 . S
C1254 H1244 0.930 . S
C1254 C1253 1.400 . S
C1254 C1257 1.386 . S
H1255 C1271 0.930 . S
H1256 C1272 0.931 . S
C1257 H1245 0.929 . S
C1257 C1251 1.390 . S
C1257 C1254 1.386 . S
C1258 C1253 1.490 . S
C1258 C1260 1.395 . S
C1258 C1261 1.403 . S
H1259 C1265 0.930 . S
C1260 H1246 0.930 . S
C1260 C1258 1.395 . S
C1260 C1263 1.403 . S
C1261 C1258 1.403 . S
C1261 C1262 1.524 . S
C1261 C1265 1.400 . S
C1262 H1247 0.960 . S
C1262 H1248 0.960 . S
C1262 H1249 0.960 . S
C1262 C1261 1.524 . S
C1263 C1260 1.403 . S
C1263 C1264 1.392 . S
C1263 C1267 1.495 . S
C1264 C1263 1.392 . S
C1264 C1265 1.385 . S
C1264 C1266 1.478 . S
C1265 H1259 0.930 . S
C1265 C1261 1.400 . S
C1265 C1264 1.385 . S
C1266 C1264 1.478 . S
C1266 C1268 1.381 . S
C1266 C1272 1.383 . S
C1267 C1263 1.495 . S
C1267 H1273 0.959 . S
C1267 H1274 0.961 . S
C1267 H1275 0.960 . S
C1268 C1266 1.381 . S
C1268 C1269 1.394 . S
C1268 H1276 0.930 . S
C1269 C1268 1.394 . S
C1269 C1270 1.383 . S
C1269 H1277 0.906 1_545 S
C1270 C1269 1.383 . S
C1270 C1271 1.377 . S
C1271 H1255 0.930 . S
C1271 C1270 1.377 . S
C1271 C1272 1.379 . S
C1272 H1256 0.931 . S
C1272 C1266 1.383 . S
C1272 C1271 1.379 . S
H1273 C1267 0.959 . S
H1274 C1267 0.961 . S
H1275 C1267 0.960 . S
H1276 C1268 0.930 . S
H1277 C1269 0.906 1_565 S
H1278 C1286 0.929 1_545 S
H1279 C1288 0.930 . S
H1280 C1290 0.930 . S
H1281 C1293 0.929 . S
H1282 C1296 0.930 . S
H1283 C1298 0.960 . S
H1284 C1298 0.960 . S
H1285 C1298 0.960 . S
C1286 H1278 0.929 1_565 S
C1286 C1287 1.377 . S
C1286 C1288 1.384 . S
C1287 C1286 1.377 . S
C1287 C1293 1.390 . S
C1288 H1279 0.930 . S
C1288 C1286 1.384 . S
C1288 C1289 1.372 . S
C1289 C1288 1.372 . S
C1289 C1290 1.400 . S
C1289 C1294 1.490 . S
C1290 H1280 0.930 . S
C1290 C1289 1.400 . S
C1290 C1293 1.386 . S
H1291 C1307 0.930 . S
H1292 C1308 0.931 . S
C1293 H1281 0.929 . S
C1293 C1287 1.390 . S
C1293 C1290 1.386 . S
C1294 C1289 1.490 . S
C1294 C1296 1.395 . S
C1294 C1297 1.403 . S
H1295 C1301 0.930 . S
C1296 H1282 0.930 . S
C1296 C1294 1.395 . S
C1296 C1299 1.403 . S
C1297 C1294 1.403 . S
C1297 C1298 1.524 . S
C1297 C1301 1.400 . S
C1298 H1283 0.960 . S
C1298 H1284 0.960 . S
C1298 H1285 0.960 . S
C1298 C1297 1.524 . S
C1299 C1296 1.403 . S
C1299 C1300 1.392 . S
C1299 C1303 1.495 . S
C1300 C1299 1.392 . S
C1300 C1301 1.385 . S
C1300 C1302 1.478 . S
C1301 H1295 0.930 . S
C1301 C1297 1.400 . S
C1301 C1300 1.385 . S
C1302 C1300 1.478 . S
C1302 C1304 1.381 . S
C1302 C1308 1.383 . S
C1303 C1299 1.495 . S
C1303 H1309 0.959 . S
C1303 H1310 0.961 . S
C1303 H1311 0.960 . S
C1304 C1302 1.381 . S
C1304 C1305 1.394 . S
C1304 H1312 0.930 . S
C1305 C1304 1.394 . S
C1305 C1306 1.383 . S
C1305 H1313 0.929 . S
C1306 C1305 1.383 . S
C1306 C1307 1.377 . S
C1307 H1291 0.930 . S
C1307 C1306 1.377 . S
C1307 C1308 1.379 . S
C1308 H1292 0.931 . S
C1308 C1302 1.383 . S
C1308 C1307 1.379 . S
H1309 C1303 0.959 . S
H1310 C1303 0.961 . S
H1311 C1303 0.960 . S
H1312 C1304 0.930 . S
H1313 C1305 0.929 . S
H1314 C1322 0.929 . S
H1315 C1324 0.930 . S
H1316 C1326 0.930 . S
H1317 C1329 0.929 . S
H1318 C1332 0.930 . S
H1319 C1334 0.960 . S
H1320 C1334 0.960 . S
H1321 C1334 0.960 . S
C1322 H1314 0.929 . S
C1322 C1323 1.377 . S
C1322 C1324 1.384 . S
C1323 C1322 1.377 . S
C1323 C1329 1.390 . S
C1324 H1315 0.930 . S
C1324 C1322 1.384 . S
C1324 C1325 1.372 . S
C1325 C1324 1.372 . S
C1325 C1326 1.400 . S
C1325 C1330 1.490 . S
C1326 H1316 0.930 . S
C1326 C1325 1.400 . S
C1326 C1329 1.386 . S
H1327 C1343 0.930 . S
H1328 C1344 0.931 . S
C1329 H1317 0.929 . S
C1329 C1323 1.390 . S
C1329 C1326 1.386 . S
C1330 C1325 1.490 . S
C1330 C1332 1.395 . S
C1330 C1333 1.403 . S
H1331 C1337 0.930 . S
C1332 H1318 0.930 . S
C1332 C1330 1.395 . S
C1332 C1335 1.403 . S
C1333 C1330 1.403 . S
C1333 C1334 1.524 . S
C1333 C1337 1.400 . S
C1334 H1319 0.960 . S
C1334 H1320 0.960 . S
C1334 H1321 0.960 . S
C1334 C1333 1.524 . S
C1335 C1332 1.403 . S
C1335 C1336 1.392 . S
C1335 C1339 1.495 . S
C1336 C1335 1.392 . S
C1336 C1337 1.385 . S
C1336 C1338 1.478 . S
C1337 H1331 0.930 . S
C1337 C1333 1.400 . S
C1337 C1336 1.385 . S
C1338 C1336 1.478 . S
C1338 C1340 1.381 . S
C1338 C1344 1.383 . S
C1339 C1335 1.495 . S
C1339 H1345 0.959 . S
C1339 H1346 0.961 . S
C1339 H1347 0.960 . S
C1340 C1338 1.381 . S
C1340 C1341 1.394 . S
C1340 H1348 0.930 . S
C1341 C1340 1.394 . S
C1341 C1342 1.383 . S
C1341 H1349 0.929 . S
C1342 C1341 1.383 . S
C1342 C1343 1.377 . S
C1343 H1327 0.930 . S
C1343 C1342 1.377 . S
C1343 C1344 1.379 . S
C1344 H1328 0.931 . S
C1344 C1338 1.383 . S
C1344 C1343 1.379 . S
H1345 C1339 0.959 . S
H1346 C1339 0.961 . S
H1347 C1339 0.960 . S
H1348 C1340 0.930 . S
H1349 C1341 0.929 . S
H1350 C1358 0.929 . S
H1351 C1360 0.930 . S
H1352 C1362 0.930 . S
H1353 C1365 0.929 . S
H1354 C1368 0.930 . S
H1355 C1370 0.960 . S
H1356 C1370 0.960 . S
H1357 C1370 0.960 . S
C1358 H1350 0.929 . S
C1358 C1359 1.377 . S
C1358 C1360 1.384 . S
C1359 C1358 1.377 . S
C1359 C1365 1.390 . S
C1360 H1351 0.930 . S
C1360 C1358 1.384 . S
C1360 C1361 1.372 . S
C1361 C1360 1.372 . S
C1361 C1362 1.400 . S
C1361 C1366 1.490 . S
C1362 H1352 0.930 . S
C1362 C1361 1.400 . S
C1362 C1365 1.386 . S
H1363 C1379 0.930 . S
H1364 C1380 0.931 . S
C1365 H1353 0.929 . S
C1365 C1359 1.390 . S
C1365 C1362 1.386 . S
C1366 C1361 1.490 . S
C1366 C1368 1.395 . S
C1366 C1369 1.403 . S
H1367 C1373 0.930 . S
C1368 H1354 0.930 . S
C1368 C1366 1.395 . S
C1368 C1371 1.403 . S
C1369 C1366 1.403 . S
C1369 C1370 1.524 . S
C1369 C1373 1.400 . S
C1370 H1355 0.960 . S
C1370 H1356 0.960 . S
C1370 H1357 0.960 . S
C1370 C1369 1.524 . S
C1371 C1368 1.403 . S
C1371 C1372 1.392 . S
C1371 C1375 1.495 . S
C1372 C1371 1.392 . S
C1372 C1373 1.385 . S
C1372 C1374 1.478 . S
C1373 H1367 0.930 . S
C1373 C1369 1.400 . S
C1373 C1372 1.385 . S
C1374 C1372 1.478 . S
C1374 C1376 1.381 . S
C1374 C1380 1.383 . S
C1375 C1371 1.495 . S
C1375 H1381 0.959 . S
C1375 H1382 0.961 . S
C1375 H1383 0.960 . S
C1376 C1374 1.381 . S
C1376 C1377 1.394 . S
C1376 H1384 0.930 . S
C1377 C1376 1.394 . S
C1377 C1378 1.383 . S
C1377 H1385 0.929 . S
C1378 C1377 1.383 . S
C1378 C1379 1.377 . S
C1379 H1363 0.930 . S
C1379 C1378 1.377 . S
C1379 C1380 1.379 . S
C1380 H1364 0.931 . S
C1380 C1374 1.383 . S
C1380 C1379 1.379 . S
H1381 C1375 0.959 . S
H1382 C1375 0.961 . S
H1383 C1375 0.960 . S
H1384 C1376 0.930 . S
H1385 C1377 0.929 . S
H1386 C1394 0.929 . S
H1387 C1396 0.930 . S
H1388 C1398 0.930 . S
H1389 C1401 0.929 . S
H1390 C1404 0.930 . S
H1391 C1406 0.960 . S
H1392 C1406 0.960 . S
H1393 C1406 0.960 . S
C1394 H1386 0.929 . S
C1394 C1395 1.377 . S
C1394 C1396 1.384 . S
C1395 C1394 1.377 . S
C1395 C1401 1.390 . S
C1396 H1387 0.930 . S
C1396 C1394 1.384 . S
C1396 C1397 1.372 . S
C1397 C1396 1.372 . S
C1397 C1398 1.400 . S
C1397 C1402 1.490 . S
C1398 H1388 0.930 . S
C1398 C1397 1.400 . S
C1398 C1401 1.386 . S
H1399 C1415 0.930 . S
H1400 C1416 0.931 . S
C1401 H1389 0.929 . S
C1401 C1395 1.390 . S
C1401 C1398 1.386 . S
C1402 C1397 1.490 . S
C1402 C1404 1.395 . S
C1402 C1405 1.403 . S
H1403 C1409 0.930 . S
C1404 H1390 0.930 . S
C1404 C1402 1.395 . S
C1404 C1407 1.403 . S
C1405 C1402 1.403 . S
C1405 C1406 1.524 . S
C1405 C1409 1.400 . S
C1406 H1391 0.960 . S
C1406 H1392 0.960 . S
C1406 H1393 0.960 . S
C1406 C1405 1.524 . S
C1407 C1404 1.403 . S
C1407 C1408 1.392 . S
C1407 C1411 1.495 . S
C1408 C1407 1.392 . S
C1408 C1409 1.385 . S
C1408 C1410 1.478 . S
C1409 H1403 0.930 . S
C1409 C1405 1.400 . S
C1409 C1408 1.385 . S
C1410 C1408 1.478 . S
C1410 C1412 1.381 . S
C1410 C1416 1.383 . S
C1411 C1407 1.495 . S
C1411 H1417 0.959 . S
C1411 H1418 0.961 . S
C1411 H1419 0.960 . S
C1412 C1410 1.381 . S
C1412 C1413 1.394 . S
C1412 H1420 0.930 . S
C1413 C1412 1.394 . S
C1413 C1414 1.383 . S
C1413 H1421 0.929 . S
C1414 C1413 1.383 . S
C1414 C1415 1.377 . S
C1415 H1399 0.930 . S
C1415 C1414 1.377 . S
C1415 C1416 1.379 . S
C1416 H1400 0.931 . S
C1416 C1410 1.383 . S
C1416 C1415 1.379 . S
H1417 C1411 0.959 . S
H1418 C1411 0.961 . S
H1419 C1411 0.960 . S
H1420 C1412 0.930 . S
H1421 C1413 0.929 . S
H1422 C1430 0.929 . S
H1423 C1432 0.930 . S
H1424 C1434 0.930 . S
H1425 C1437 0.929 . S
H1426 C1440 0.930 . S
H1427 C1442 0.960 . S
H1428 C1442 0.960 . S
H1429 C1442 0.960 . S
C1430 H1422 0.929 . S
C1430 C1431 1.377 . S
C1430 C1432 1.384 . S
C1431 C1430 1.377 . S
C1431 C1437 1.390 . S
C1432 H1423 0.930 . S
C1432 C1430 1.384 . S
C1432 C1433 1.372 . S
C1433 C1432 1.372 . S
C1433 C1434 1.400 . S
C1433 C1438 1.490 . S
C1434 H1424 0.930 . S
C1434 C1433 1.400 . S
C1434 C1437 1.386 . S
H1435 C1451 0.930 . S
H1436 C1452 0.931 . S
C1437 H1425 0.929 . S
C1437 C1431 1.390 . S
C1437 C1434 1.386 . S
C1438 C1433 1.490 . S
C1438 C1440 1.395 . S
C1438 C1441 1.403 1_545 S
H1439 C1445 0.930 . S
C1440 H1426 0.930 . S
C1440 C1438 1.395 . S
C1440 C1443 1.403 . S
C1441 C1438 1.403 1_565 S
C1441 C1442 1.524 . S
C1441 C1445 1.400 . S
C1442 H1427 0.960 . S
C1442 H1428 0.960 . S
C1442 H1429 0.960 . S
C1442 C1441 1.524 . S
C1443 C1440 1.403 . S
C1443 C1444 1.392 . S
C1443 C1447 1.495 . S
C1444 C1443 1.392 . S
C1444 C1445 1.385 1_545 S
C1444 C1446 1.478 1_545 S
C1445 H1439 0.930 . S
C1445 C1441 1.400 . S
C1445 C1444 1.385 1_565 S
C1446 C1444 1.478 1_565 S
C1446 C1448 1.381 . S
C1446 C1452 1.383 . S
C1447 C1443 1.495 . S
C1447 H1453 0.959 . S
C1447 H1454 0.961 . S
C1447 H1455 0.960 . S
C1448 C1446 1.381 . S
C1448 C1449 1.394 . S
C1448 H1456 0.930 1_565 S
C1449 C1448 1.394 . S
C1449 C1450 1.383 . S
C1449 H1457 0.929 . S
C1450 C1449 1.383 . S
C1450 C1451 1.377 . S
C1451 H1435 0.930 . S
C1451 C1450 1.377 . S
C1451 C1452 1.379 . S
C1452 H1436 0.931 . S
C1452 C1446 1.383 . S
C1452 C1451 1.379 . S
H1453 C1447 0.959 . S
H1454 C1447 0.961 . S
H1455 C1447 0.960 . S
H1456 C1448 0.930 1_545 S
H1457 C1449 0.929 . S
H1458 C1466 0.929 . S
H1459 C1468 0.930 1_655 S
H1460 C1470 0.930 . S
H1461 C1473 0.929 . S
H1462 C1476 0.930 . S
H1463 C1478 0.960 . S
H1464 C1478 0.960 . S
H1465 C1478 0.960 . S
C1466 H1458 0.929 . S
C1466 C1467 1.377 . S
C1466 C1468 1.384 . S
C1467 C1466 1.377 . S
C1467 C1473 1.390 . S
C1468 H1459 0.930 1_455 S
C1468 C1466 1.384 . S
C1468 C1469 1.372 . S
C1469 C1468 1.372 . S
C1469 C1470 1.400 . S
C1469 C1474 1.490 . S
C1470 H1460 0.930 . S
C1470 C1469 1.400 . S
C1470 C1473 1.386 . S
H1471 C1487 0.930 . S
H1472 C1488 0.931 1_455 S
C1473 H1461 0.929 . S
C1473 C1467 1.390 . S
C1473 C1470 1.386 . S
C1474 C1469 1.490 . S
C1474 C1476 1.395 1_455 S
C1474 C1477 1.403 . S
H1475 C1481 0.930 . S
C1476 H1462 0.930 . S
C1476 C1474 1.395 1_655 S
C1476 C1479 1.403 . S
C1477 C1474 1.403 . S
C1477 C1478 1.524 . S
C1477 C1481 1.400 . S
C1478 H1463 0.960 . S
C1478 H1464 0.960 . S
C1478 H1465 0.960 . S
C1478 C1477 1.524 . S
C1479 C1476 1.403 . S
C1479 C1480 1.392 . S
C1479 C1483 1.495 . S
C1480 C1479 1.392 . S
C1480 C1481 1.385 1_655 S
C1480 C1482 1.478 . S
C1481 H1475 0.930 . S
C1481 C1477 1.400 . S
C1481 C1480 1.385 1_455 S
C1482 C1480 1.478 . S
C1482 C1484 1.381 . S
C1482 C1488 1.383 . S
C1483 C1479 1.495 . S
C1483 H1489 0.959 . S
C1483 H1490 0.961 . S
C1483 H1491 0.960 . S
C1484 C1482 1.381 . S
C1484 C1485 1.394 . S
C1484 H1492 0.930 . S
C1485 C1484 1.394 . S
C1485 C1486 1.383 . S
C1485 H1493 0.929 . S
C1486 C1485 1.383 . S
C1486 C1487 1.377 . S
C1487 H1471 0.930 . S
C1487 C1486 1.377 . S
C1487 C1488 1.379 . S
C1488 H1472 0.931 1_655 S
C1488 C1482 1.383 . S
C1488 C1487 1.379 . S
H1489 C1483 0.959 . S
H1490 C1483 0.961 . S
H1491 C1483 0.960 . S
H1492 C1484 0.930 . S
H1493 C1485 0.929 . S
H1494 C1502 0.929 . S
H1495 C1504 0.930 . S
H1496 C1506 0.930 . S
H1497 C1509 0.929 . S
H1498 C1512 0.930 . S
H1499 C1514 0.960 . S
H1500 C1514 0.960 . S
H1501 C1514 0.960 . S
C1502 H1494 0.929 . S
C1502 C1503 1.377 . S
C1502 C1504 1.384 . S
C1503 C1502 1.377 . S
C1503 C1509 1.390 . S
C1504 H1495 0.930 . S
C1504 C1502 1.384 . S
C1504 C1505 1.372 . S
C1505 C1504 1.372 . S
C1505 C1506 1.400 . S
C1505 C1510 1.490 . S
C1506 H1496 0.930 . S
C1506 C1505 1.400 . S
C1506 C1509 1.386 . S
H1507 C1523 0.930 . S
H1508 C1524 0.931 . S
C1509 H1497 0.929 . S
C1509 C1503 1.390 . S
C1509 C1506 1.386 . S
C1510 C1505 1.490 . S
C1510 C1512 1.395 . S
C1510 C1513 1.403 . S
H1511 C1517 0.930 . S
C1512 H1498 0.930 . S
C1512 C1510 1.395 . S
C1512 C1515 1.403 . S
C1513 C1510 1.403 . S
C1513 C1514 1.524 . S
C1513 C1517 1.400 . S
C1514 H1499 0.960 . S
C1514 H1500 0.960 . S
C1514 H1501 0.960 . S
C1514 C1513 1.524 . S
C1515 C1512 1.403 . S
C1515 C1516 1.392 . S
C1515 C1519 1.495 . S
C1516 C1515 1.392 . S
C1516 C1517 1.385 . S
C1516 C1518 1.478 . S
C1517 H1511 0.930 . S
C1517 C1513 1.400 . S
C1517 C1516 1.385 . S
C1518 C1516 1.478 . S
C1518 C1520 1.381 . S
C1518 C1524 1.383 . S
C1519 C1515 1.495 . S
C1519 H1525 0.959 . S
C1519 H1526 0.961 . S
C1519 H1527 0.960 . S
C1520 C1518 1.381 . S
C1520 C1521 1.394 . S
C1520 H1528 0.930 . S
C1521 C1520 1.394 . S
C1521 C1522 1.383 . S
C1521 H1529 0.929 . S
C1522 C1521 1.383 . S
C1522 C1523 1.377 . S
C1523 H1507 0.930 . S
C1523 C1522 1.377 . S
C1523 C1524 1.379 . S
C1524 H1508 0.931 . S
C1524 C1518 1.383 . S
C1524 C1523 1.379 . S
H1525 C1519 0.959 . S
H1526 C1519 0.961 . S
H1527 C1519 0.960 . S
H1528 C1520 0.930 . S
H1529 C1521 0.929 . S
H1530 C1538 0.929 . S
H1531 C1540 0.930 . S
H1532 C1542 0.930 . S
H1533 C1545 0.929 . S
H1534 C1548 0.930 . S
H1535 C1550 0.960 . S
H1536 C1550 0.960 . S
H1537 C1550 0.960 . S
C1538 H1530 0.929 . S
C1538 C1539 1.377 . S
C1538 C1540 1.384 . S
C1539 C1538 1.377 . S
C1539 C1545 1.390 . S
C1540 H1531 0.930 . S
C1540 C1538 1.384 . S
C1540 C1541 1.372 . S
C1541 C1540 1.372 . S
C1541 C1542 1.400 . S
C1541 C1546 1.490 . S
C1542 H1532 0.930 . S
C1542 C1541 1.400 . S
C1542 C1545 1.386 . S
H1543 C1559 0.930 . S
H1544 C1560 0.931 1_545 S
C1545 H1533 0.929 . S
C1545 C1539 1.390 . S
C1545 C1542 1.386 . S
C1546 C1541 1.490 . S
C1546 C1548 1.395 . S
C1546 C1549 1.403 . S
H1547 C1553 0.927 . S
C1548 H1534 0.930 . S
C1548 C1546 1.395 . S
C1548 C1551 1.377 1_545 S
C1549 C1546 1.403 . S
C1549 C1550 1.524 . S
C1549 C1553 1.387 1_545 S
C1550 H1535 0.960 . S
C1550 H1536 0.960 . S
C1550 H1537 0.960 . S
C1550 C1549 1.524 . S
C1551 C1548 1.377 1_565 S
C1551 C1552 1.384 . S
C1551 C1555 1.530 . S
C1552 C1551 1.384 . S
C1552 C1553 1.401 . S
C1552 C1554 1.478 . S
C1553 H1547 0.927 . S
C1553 C1549 1.387 1_565 S
C1553 C1552 1.401 . S
C1554 C1552 1.478 . S
C1554 C1556 1.381 . S
C1554 C1560 1.383 . S
C1555 C1551 1.530 . S
C1555 H1561 0.959 . S
C1555 H1562 0.961 . S
C1555 H1563 0.960 . S
C1556 C1554 1.381 . S
C1556 C1557 1.394 . S
C1556 H1564 0.930 . S
C1557 C1556 1.394 . S
C1557 C1558 1.383 . S
C1557 H1565 0.929 . S
C1558 C1557 1.383 . S
C1558 C1559 1.377 . S
C1559 H1543 0.930 . S
C1559 C1558 1.377 . S
C1559 C1560 1.379 . S
C1560 H1544 0.931 1_565 S
C1560 C1554 1.383 . S
C1560 C1559 1.379 . S
H1561 C1555 0.959 . S
H1562 C1555 0.961 . S
H1563 C1555 0.960 . S
H1564 C1556 0.930 . S
H1565 C1557 0.929 . S
H1566 C1574 0.929 . S
H1567 C1576 0.930 . S
H1568 C1578 0.930 . S
H1569 C1581 0.929 . S
H1570 C1584 0.930 . S
H1571 C1586 0.960 . S
H1572 C1586 0.960 . S
H1573 C1586 0.960 . S
C1574 H1566 0.929 . S
C1574 C1575 1.377 . S
C1574 C1576 1.384 . S
C1575 C1574 1.377 . S
C1575 C1581 1.390 . S
C1576 H1567 0.930 . S
C1576 C1574 1.384 . S
C1576 C1577 1.372 . S
C1577 C1576 1.372 . S
C1577 C1578 1.400 . S
C1577 C1582 1.490 . S
C1578 H1568 0.930 . S
C1578 C1577 1.400 . S
C1578 C1581 1.386 . S
H1579 C1595 0.930 . S
H1580 C1596 0.931 . S
C1581 H1569 0.929 . S
C1581 C1575 1.390 . S
C1581 C1578 1.386 . S
C1582 C1577 1.490 . S
C1582 C1584 1.395 . S
C1582 C1585 1.403 . S
H1583 C1589 0.949 . S
C1584 H1570 0.930 . S
C1584 C1582 1.395 . S
C1584 C1587 1.403 . S
C1585 C1582 1.403 . S
C1585 C1586 1.524 . S
C1585 C1589 1.389 1_455 S
C1586 H1571 0.960 . S
C1586 H1572 0.960 . S
C1586 H1573 0.960 . S
C1586 C1585 1.524 . S
C1587 C1584 1.403 . S
C1587 C1588 1.392 1_455 S
C1587 C1591 1.495 1_455 S
C1588 C1587 1.392 1_655 S
C1588 C1589 1.379 . S
C1588 C1590 1.478 . S
C1589 H1583 0.949 . S
C1589 C1585 1.389 1_655 S
C1589 C1588 1.379 . S
C1590 C1588 1.478 . S
C1590 C1592 1.381 . S
C1590 C1596 1.383 . S
C1591 C1587 1.495 1_655 S
C1591 H1597 0.959 1_655 S
C1591 H1598 0.961 . S
C1591 H1599 0.960 1_655 S
C1592 C1590 1.381 . S
C1592 C1593 1.394 . S
C1592 H1600 0.930 1_655 S
C1593 C1592 1.394 . S
C1593 C1594 1.383 . S
C1593 H1601 0.929 . S
C1594 C1593 1.383 . S
C1594 C1595 1.377 . S
C1595 H1579 0.930 . S
C1595 C1594 1.377 . S
C1595 C1596 1.379 . S
C1596 H1580 0.931 . S
C1596 C1590 1.383 . S
C1596 C1595 1.379 . S
H1597 C1591 0.959 1_455 S
H1598 C1591 0.961 . S
H1599 C1591 0.960 1_455 S
H1600 C1592 0.930 1_455 S
H1601 C1593 0.929 . S
H1602 C1610 0.929 . S
H1603 C1612 0.930 . S
H1604 C1614 0.930 . S
H1605 C1617 0.929 . S
H1606 C1620 0.930 . S
H1607 C1622 0.960 . S
H1608 C1622 0.960 . S
H1609 C1622 0.960 . S
C1610 H1602 0.929 . S
C1610 C1611 1.377 . S
C1610 C1612 1.384 . S
C1611 C1610 1.377 . S
C1611 C1617 1.390 . S
C1612 H1603 0.930 . S
C1612 C1610 1.384 . S
C1612 C1613 1.372 . S
C1613 C1612 1.372 . S
C1613 C1614 1.400 . S
C1613 C1618 1.490 . S
C1614 H1604 0.930 . S
C1614 C1613 1.400 . S
C1614 C1617 1.386 . S
H1615 C1631 0.930 . S
H1616 C1632 0.931 . S
C1617 H1605 0.929 . S
C1617 C1611 1.390 . S
C1617 C1614 1.386 . S
C1618 C1613 1.490 . S
C1618 C1620 1.395 . S
C1618 C1621 1.403 . S
H1619 C1625 0.930 . S
C1620 H1606 0.930 . S
C1620 C1618 1.395 . S
C1620 C1623 1.403 . S
C1621 C1618 1.403 . S
C1621 C1622 1.524 . S
C1621 C1625 1.400 . S
C1622 H1607 0.960 . S
C1622 H1608 0.960 . S
C1622 H1609 0.960 . S
C1622 C1621 1.524 . S
C1623 C1620 1.403 . S
C1623 C1624 1.392 . S
C1623 C1627 1.495 . S
C1624 C1623 1.392 . S
C1624 C1625 1.385 . S
C1624 C1626 1.478 . S
C1625 H1619 0.930 . S
C1625 C1621 1.400 . S
C1625 C1624 1.385 . S
C1626 C1624 1.478 . S
C1626 C1628 1.381 . S
C1626 C1632 1.383 . S
C1627 C1623 1.495 . S
C1627 H1633 0.959 . S
C1627 H1634 0.961 . S
C1627 H1635 0.960 . S
C1628 C1626 1.381 . S
C1628 C1629 1.394 . S
C1628 H1636 0.930 . S
C1629 C1628 1.394 . S
C1629 C1630 1.383 . S
C1629 H1637 0.929 . S
C1630 C1629 1.383 . S
C1630 C1631 1.377 . S
C1631 H1615 0.930 . S
C1631 C1630 1.377 . S
C1631 C1632 1.379 . S
C1632 H1616 0.931 . S
C1632 C1626 1.383 . S
C1632 C1631 1.379 . S
H1633 C1627 0.959 . S
H1634 C1627 0.961 . S
H1635 C1627 0.960 . S
H1636 C1628 0.930 . S
H1637 C1629 0.929 . S
H1638 C1646 0.929 . S
H1639 C1648 0.930 . S
H1640 C1650 0.930 . S
H1641 C1653 0.929 . S
H1642 C1656 0.930 . S
H1643 C1658 0.960 . S
H1644 C1658 0.960 . S
H1645 C1658 0.960 . S
C1646 H1638 0.929 . S
C1646 C1647 1.377 . S
C1646 C1648 1.384 . S
C1647 C1646 1.377 . S
C1647 C1653 1.390 . S
C1648 H1639 0.930 . S
C1648 C1646 1.384 . S
C1648 C1649 1.372 . S
C1649 C1648 1.372 . S
C1649 C1650 1.400 . S
C1649 C1654 1.490 . S
C1650 H1640 0.930 . S
C1650 C1649 1.400 . S
C1650 C1653 1.386 . S
H1651 C1667 0.930 . S
H1652 C1668 0.931 . S
C1653 H1641 0.929 . S
C1653 C1647 1.390 . S
C1653 C1650 1.386 . S
C1654 C1649 1.490 . S
C1654 C1656 1.395 . S
C1654 C1657 1.403 . S
H1655 C1661 0.930 . S
C1656 H1642 0.930 . S
C1656 C1654 1.395 . S
C1656 C1659 1.403 . S
C1657 C1654 1.403 . S
C1657 C1658 1.524 . S
C1657 C1661 1.400 . S
C1658 H1643 0.960 . S
C1658 H1644 0.960 . S
C1658 H1645 0.960 . S
C1658 C1657 1.524 . S
C1659 C1656 1.403 . S
C1659 C1660 1.392 . S
C1659 C1663 1.495 . S
C1660 C1659 1.392 . S
C1660 C1661 1.385 . S
C1660 C1662 1.478 . S
C1661 H1655 0.930 . S
C1661 C1657 1.400 . S
C1661 C1660 1.385 . S
C1662 C1660 1.478 . S
C1662 C1664 1.381 . S
C1662 C1668 1.383 . S
C1663 C1659 1.495 . S
C1663 H1669 0.959 . S
C1663 H1670 0.961 . S
C1663 H1671 0.960 . S
C1664 C1662 1.381 . S
C1664 C1665 1.394 . S
C1664 H1672 0.930 . S
C1665 C1664 1.394 . S
C1665 C1666 1.383 . S
C1665 H1673 0.929 . S
C1666 C1665 1.383 . S
C1666 C1667 1.377 . S
C1667 H1651 0.930 . S
C1667 C1666 1.377 . S
C1667 C1668 1.379 . S
C1668 H1652 0.931 . S
C1668 C1662 1.383 . S
C1668 C1667 1.379 . S
H1669 C1663 0.959 . S
H1670 C1663 0.961 . S
H1671 C1663 0.960 . S
H1672 C1664 0.930 . S
H1673 C1665 0.929 . S
H1674 C1682 0.929 . S
H1675 C1684 0.930 . S
H1676 C1686 0.930 . S
H1677 C1689 0.929 . S
H1678 C1692 0.930 . S
H1679 C1694 0.960 . S
H1680 C1694 0.960 . S
H1681 C1694 0.960 . S
C1682 H1674 0.929 . S
C1682 C1683 1.377 . S
C1682 C1684 1.384 . S
C1683 C1682 1.377 . S
C1683 C1689 1.390 . S
C1684 H1675 0.930 . S
C1684 C1682 1.384 . S
C1684 C1685 1.372 . S
C1685 C1684 1.372 . S
C1685 C1686 1.400 . S
C1685 C1690 1.490 . S
C1686 H1676 0.930 . S
C1686 C1685 1.400 . S
C1686 C1689 1.386 . S
H1687 C1703 0.930 . S
H1688 C1704 0.931 . S
C1689 H1677 0.929 . S
C1689 C1683 1.390 . S
C1689 C1686 1.386 . S
C1690 C1685 1.490 . S
C1690 C1692 1.395 . S
C1690 C1693 1.403 . S
H1691 C1697 0.930 . S
C1692 H1678 0.930 . S
C1692 C1690 1.395 . S
C1692 C1695 1.403 . S
C1693 C1690 1.403 . S
C1693 C1694 1.524 . S
C1693 C1697 1.400 . S
C1694 H1679 0.960 . S
C1694 H1680 0.960 . S
C1694 H1681 0.960 . S
C1694 C1693 1.524 . S
C1695 C1692 1.403 . S
C1695 C1696 1.392 . S
C1695 C1699 1.495 . S
C1696 C1695 1.392 . S
C1696 C1697 1.385 . S
C1696 C1698 1.478 . S
C1697 H1691 0.930 . S
C1697 C1693 1.400 . S
C1697 C1696 1.385 . S
C1698 C1696 1.478 . S
C1698 C1700 1.381 . S
C1698 C1704 1.383 . S
C1699 C1695 1.495 . S
C1699 H1705 0.959 . S
C1699 H1706 0.961 . S
C1699 H1707 0.960 . S
C1700 C1698 1.381 . S
C1700 C1701 1.394 . S
C1700 H1708 0.930 . S
C1701 C1700 1.394 . S
C1701 C1702 1.383 . S
C1701 H1709 0.929 . S
C1702 C1701 1.383 . S
C1702 C1703 1.377 . S
C1703 H1687 0.930 . S
C1703 C1702 1.377 . S
C1703 C1704 1.379 . S
C1704 H1688 0.931 . S
C1704 C1698 1.383 . S
C1704 C1703 1.379 . S
H1705 C1699 0.959 . S
H1706 C1699 0.961 . S
H1707 C1699 0.960 . S
H1708 C1700 0.930 . S
H1709 C1701 0.929 . S
H1710 C1718 0.929 . S
H1711 C1720 0.930 . S
H1712 C1722 0.930 . S
H1713 C1725 0.929 . S
H1714 C1728 0.930 . S
H1715 C1730 0.960 . S
H1716 C1730 0.960 . S
H1717 C1730 0.960 . S
C1718 H1710 0.929 . S
C1718 C1719 1.377 . S
C1718 C1720 1.384 . S
C1719 C1718 1.377 . S
C1719 C1725 1.390 . S
C1720 H1711 0.930 . S
C1720 C1718 1.384 . S
C1720 C1721 1.372 . S
C1721 C1720 1.372 . S
C1721 C1722 1.400 . S
C1721 C1726 1.490 . S
C1722 H1712 0.930 . S
C1722 C1721 1.400 . S
C1722 C1725 1.386 . S
H1723 C1739 0.930 . S
H1724 C1740 0.931 . S
C1725 H1713 0.929 . S
C1725 C1719 1.390 . S
C1725 C1722 1.386 . S
C1726 C1721 1.490 . S
C1726 C1728 1.395 . S
C1726 C1729 1.403 . S
H1727 C1733 0.930 . S
C1728 H1714 0.930 . S
C1728 C1726 1.395 . S
C1728 C1731 1.403 . S
C1729 C1726 1.403 . S
C1729 C1730 1.524 . S
C1729 C1733 1.400 . S
C1730 H1715 0.960 . S
C1730 H1716 0.960 . S
C1730 H1717 0.960 . S
C1730 C1729 1.524 . S
C1731 C1728 1.403 . S
C1731 C1732 1.392 . S
C1731 C1735 1.495 . S
C1732 C1731 1.392 . S
C1732 C1733 1.385 . S
C1732 C1734 1.478 . S
C1733 H1727 0.930 . S
C1733 C1729 1.400 . S
C1733 C1732 1.385 . S
C1734 C1732 1.478 . S
C1734 C1736 1.381 . S
C1734 C1740 1.383 . S
C1735 C1731 1.495 . S
C1735 H1741 0.959 . S
C1735 H1742 0.961 . S
C1735 H1743 0.960 . S
C1736 C1734 1.381 . S
C1736 C1737 1.394 . S
C1736 H1744 0.930 . S
C1737 C1736 1.394 . S
C1737 C1738 1.383 . S
C1737 H1745 0.929 . S
C1738 C1737 1.383 . S
C1738 C1739 1.377 . S
C1739 H1723 0.930 . S
C1739 C1738 1.377 . S
C1739 C1740 1.379 . S
C1740 H1724 0.931 . S
C1740 C1734 1.383 . S
C1740 C1739 1.379 . S
H1741 C1735 0.959 . S
H1742 C1735 0.961 . S
H1743 C1735 0.960 . S
H1744 C1736 0.930 . S
H1745 C1737 0.929 . S
H1746 C1754 0.929 . S
H1747 C1756 0.930 . S
H1748 C1758 0.930 . S
H1749 C1761 0.929 . S
H1750 C1764 0.930 . S
H1751 C1766 0.960 . S
H1752 C1766 0.960 . S
H1753 C1766 0.960 . S
C1754 H1746 0.929 . S
C1754 C1755 1.377 . S
C1754 C1756 1.384 . S
C1755 C1754 1.377 . S
C1755 C1761 1.390 . S
C1756 H1747 0.930 . S
C1756 C1754 1.384 . S
C1756 C1757 1.372 . S
C1757 C1756 1.372 . S
C1757 C1758 1.400 . S
C1757 C1762 1.490 . S
C1758 H1748 0.930 . S
C1758 C1757 1.400 . S
C1758 C1761 1.386 . S
H1759 C1775 0.930 . S
H1760 C1776 0.931 . S
C1761 H1749 0.929 . S
C1761 C1755 1.390 . S
C1761 C1758 1.386 . S
C1762 C1757 1.490 . S
C1762 C1764 1.395 . S
C1762 C1765 1.403 . S
H1763 C1769 0.930 . S
C1764 H1750 0.930 . S
C1764 C1762 1.395 . S
C1764 C1767 1.403 . S
C1765 C1762 1.403 . S
C1765 C1766 1.524 . S
C1765 C1769 1.400 . S
C1766 H1751 0.960 . S
C1766 H1752 0.960 . S
C1766 H1753 0.960 . S
C1766 C1765 1.524 . S
C1767 C1764 1.403 . S
C1767 C1768 1.392 . S
C1767 C1771 1.495 . S
C1768 C1767 1.392 . S
C1768 C1769 1.385 . S
C1768 C1770 1.478 . S
C1769 H1763 0.930 . S
C1769 C1765 1.400 . S
C1769 C1768 1.385 . S
C1770 C1768 1.478 . S
C1770 C1772 1.381 . S
C1770 C1776 1.383 . S
C1771 C1767 1.495 . S
C1771 H1777 0.959 . S
C1771 H1778 0.961 . S
C1771 H1779 0.960 . S
C1772 C1770 1.381 . S
C1772 C1773 1.394 . S
C1772 H1780 0.930 . S
C1773 C1772 1.394 . S
C1773 C1774 1.383 . S
C1773 H1781 0.929 . S
C1774 C1773 1.383 . S
C1774 C1775 1.377 . S
C1775 H1759 0.930 . S
C1775 C1774 1.377 . S
C1775 C1776 1.379 . S
C1776 H1760 0.931 . S
C1776 C1770 1.383 . S
C1776 C1775 1.379 . S
H1777 C1771 0.959 . S
H1778 C1771 0.961 . S
H1779 C1771 0.960 . S
H1780 C1772 0.930 . S
H1781 C1773 0.929 . S
H1782 C1790 0.929 . S
H1783 C1792 0.930 . S
H1784 C1794 0.930 . S
H1785 C1797 0.929 . S
H1786 C1800 0.930 . S
H1787 C1802 0.960 . S
H1788 C1802 0.960 . S
H1789 C1802 0.960 . S
C1790 H1782 0.929 . S
C1790 C1791 1.377 . S
C1790 C1792 1.384 . S
C1791 C1790 1.377 . S
C1791 C1797 1.390 . S
C1792 H1783 0.930 . S
C1792 C1790 1.384 . S
C1792 C1793 1.372 . S
C1793 C1792 1.372 . S
C1793 C1794 1.400 . S
C1793 C1798 1.490 . S
C1794 H1784 0.930 . S
C1794 C1793 1.400 . S
C1794 C1797 1.386 . S
H1795 C1811 0.930 . S
H1796 C1812 0.931 . S
C1797 H1785 0.929 . S
C1797 C1791 1.390 . S
C1797 C1794 1.386 . S
C1798 C1793 1.490 . S
C1798 C1800 1.395 . S
C1798 C1801 1.403 . S
H1799 C1805 0.930 . S
C1800 H1786 0.930 . S
C1800 C1798 1.395 . S
C1800 C1803 1.403 . S
C1801 C1798 1.403 . S
C1801 C1802 1.524 . S
C1801 C1805 1.400 . S
C1802 H1787 0.960 . S
C1802 H1788 0.960 . S
C1802 H1789 0.960 . S
C1802 C1801 1.524 . S
C1803 C1800 1.403 . S
C1803 C1804 1.392 . S
C1803 C1807 1.495 . S
C1804 C1803 1.392 . S
C1804 C1805 1.385 . S
C1804 C1806 1.478 . S
C1805 H1799 0.930 . S
C1805 C1801 1.400 . S
C1805 C1804 1.385 . S
C1806 C1804 1.478 . S
C1806 C1808 1.381 . S
C1806 C1812 1.383 . S
C1807 C1803 1.495 . S
C1807 H1813 0.959 . S
C1807 H1814 0.961 . S
C1807 H1815 0.960 . S
C1808 C1806 1.381 . S
C1808 C1809 1.394 . S
C1808 H1816 0.930 . S
C1809 C1808 1.394 . S
C1809 C1810 1.383 . S
C1809 H1817 0.929 . S
C1810 C1809 1.383 . S
C1810 C1811 1.377 . S
C1811 H1795 0.930 . S
C1811 C1810 1.377 . S
C1811 C1812 1.379 . S
C1812 H1796 0.931 . S
C1812 C1806 1.383 . S
C1812 C1811 1.379 . S
H1813 C1807 0.959 . S
H1814 C1807 0.961 . S
H1815 C1807 0.960 . S
H1816 C1808 0.930 . S
H1817 C1809 0.929 . S
H1818 C1826 0.929 . S
H1819 C1828 0.930 . S
H1820 C1830 0.930 . S
H1821 C1833 0.929 . S
H1822 C1836 0.930 . S
H1823 C1838 0.960 . S
H1824 C1838 0.960 . S
H1825 C1838 0.960 . S
C1826 H1818 0.929 . S
C1826 C1827 1.377 . S
C1826 C1828 1.384 . S
C1827 C1826 1.377 . S
C1827 C1833 1.390 . S
C1828 H1819 0.930 . S
C1828 C1826 1.384 . S
C1828 C1829 1.372 . S
C1829 C1828 1.372 . S
C1829 C1830 1.400 . S
C1829 C1834 1.490 . S
C1830 H1820 0.930 . S
C1830 C1829 1.400 . S
C1830 C1833 1.386 . S
H1831 C1847 0.930 . S
H1832 C1848 0.931 . S
C1833 H1821 0.929 . S
C1833 C1827 1.390 . S
C1833 C1830 1.386 . S
C1834 C1829 1.490 . S
C1834 C1836 1.395 . S
C1834 C1837 1.403 . S
H1835 C1841 0.930 . S
C1836 H1822 0.930 . S
C1836 C1834 1.395 . S
C1836 C1839 1.403 . S
C1837 C1834 1.403 . S
C1837 C1838 1.524 . S
C1837 C1841 1.400 . S
C1838 H1823 0.960 . S
C1838 H1824 0.960 . S
C1838 H1825 0.960 . S
C1838 C1837 1.524 . S
C1839 C1836 1.403 . S
C1839 C1840 1.392 . S
C1839 C1843 1.495 . S
C1840 C1839 1.392 . S
C1840 C1841 1.385 . S
C1840 C1842 1.478 . S
C1841 H1835 0.930 . S
C1841 C1837 1.400 . S
C1841 C1840 1.385 . S
C1842 C1840 1.478 . S
C1842 C1844 1.381 . S
C1842 C1848 1.383 . S
C1843 C1839 1.495 . S
C1843 H1849 0.959 . S
C1843 H1850 0.961 . S
C1843 H1851 0.960 . S
C1844 C1842 1.381 . S
C1844 C1845 1.394 . S
C1844 H1852 0.930 . S
C1845 C1844 1.394 . S
C1845 C1846 1.383 . S
C1845 H1853 0.929 . S
C1846 C1845 1.383 . S
C1846 C1847 1.377 . S
C1847 H1831 0.930 . S
C1847 C1846 1.377 . S
C1847 C1848 1.379 . S
C1848 H1832 0.931 . S
C1848 C1842 1.383 . S
C1848 C1847 1.379 . S
H1849 C1843 0.959 . S
H1850 C1843 0.961 . S
H1851 C1843 0.960 . S
H1852 C1844 0.930 . S
H1853 C1845 0.929 . S
H1854 C1862 0.929 . S
H1855 C1864 0.930 . S
H1856 C1866 0.930 . S
H1857 C1869 0.929 . S
H1858 C1872 0.930 . S
H1859 C1874 0.960 . S
H1860 C1874 0.960 . S
H1861 C1874 0.960 . S
C1862 H1854 0.929 . S
C1862 C1863 1.377 . S
C1862 C1864 1.384 . S
C1863 C1862 1.377 . S
C1863 C1869 1.390 . S
C1864 H1855 0.930 . S
C1864 C1862 1.384 . S
C1864 C1865 1.372 . S
C1865 C1864 1.372 . S
C1865 C1866 1.400 . S
C1865 C1870 1.490 . S
C1866 H1856 0.930 . S
C1866 C1865 1.400 . S
C1866 C1869 1.386 . S
H1867 C1883 0.930 . S
H1868 C1884 0.931 . S
C1869 H1857 0.929 . S
C1869 C1863 1.390 . S
C1869 C1866 1.386 . S
C1870 C1865 1.490 . S
C1870 C1872 1.395 . S
C1870 C1873 1.403 . S
H1871 C1877 0.930 . S
C1872 H1858 0.930 . S
C1872 C1870 1.395 . S
C1872 C1875 1.403 . S
C1873 C1870 1.403 . S
C1873 C1874 1.524 . S
C1873 C1877 1.400 . S
C1874 H1859 0.960 . S
C1874 H1860 0.960 . S
C1874 H1861 0.960 . S
C1874 C1873 1.524 . S
C1875 C1872 1.403 . S
C1875 C1876 1.392 . S
C1875 C1879 1.495 . S
C1876 C1875 1.392 . S
C1876 C1877 1.385 . S
C1876 C1878 1.478 . S
C1877 H1871 0.930 . S
C1877 C1873 1.400 . S
C1877 C1876 1.385 . S
C1878 C1876 1.478 . S
C1878 C1880 1.381 . S
C1878 C1884 1.383 . S
C1879 C1875 1.495 . S
C1879 H1885 0.959 . S
C1879 H1886 0.961 . S
C1879 H1887 0.960 . S
C1880 C1878 1.381 . S
C1880 C1881 1.394 . S
C1880 H1888 0.930 . S
C1881 C1880 1.394 . S
C1881 C1882 1.383 . S
C1881 H1889 0.929 . S
C1882 C1881 1.383 . S
C1882 C1883 1.377 . S
C1883 H1867 0.930 . S
C1883 C1882 1.377 . S
C1883 C1884 1.379 . S
C1884 H1868 0.931 . S
C1884 C1878 1.383 . S
C1884 C1883 1.379 . S
H1885 C1879 0.959 . S
H1886 C1879 0.961 . S
H1887 C1879 0.960 . S
H1888 C1880 0.930 . S
H1889 C1881 0.929 . S
H1890 C1898 0.929 . S
H1891 C1900 0.930 . S
H1892 C1902 0.930 . S
H1893 C1905 0.929 . S
H1894 C1908 0.930 . S
H1895 C1910 0.960 . S
H1896 C1910 0.960 . S
H1897 C1910 0.960 . S
C1898 H1890 0.929 . S
C1898 C1899 1.377 . S
C1898 C1900 1.384 . S
C1899 C1898 1.377 . S
C1899 C1905 1.390 . S
C1900 H1891 0.930 . S
C1900 C1898 1.384 . S
C1900 C1901 1.372 . S
C1901 C1900 1.372 . S
C1901 C1902 1.400 . S
C1901 C1906 1.490 . S
C1902 H1892 0.930 . S
C1902 C1901 1.400 . S
C1902 C1905 1.386 . S
H1903 C1919 0.930 . S
H1904 C1920 0.931 . S
C1905 H1893 0.929 . S
C1905 C1899 1.390 . S
C1905 C1902 1.386 . S
C1906 C1901 1.490 . S
C1906 C1908 1.395 . S
C1906 C1909 1.403 . S
H1907 C1913 0.930 . S
C1908 H1894 0.930 . S
C1908 C1906 1.395 . S
C1908 C1911 1.403 . S
C1909 C1906 1.403 . S
C1909 C1910 1.524 . S
C1909 C1913 1.400 . S
C1910 H1895 0.960 . S
C1910 H1896 0.960 . S
C1910 H1897 0.960 . S
C1910 C1909 1.524 . S
C1911 C1908 1.403 . S
C1911 C1912 1.392 . S
C1911 C1915 1.495 . S
C1912 C1911 1.392 . S
C1912 C1913 1.385 . S
C1912 C1914 1.478 . S
C1913 H1907 0.930 . S
C1913 C1909 1.400 . S
C1913 C1912 1.385 . S
C1914 C1912 1.478 . S
C1914 C1916 1.381 . S
C1914 C1920 1.383 . S
C1915 C1911 1.495 . S
C1915 H1921 0.959 . S
C1915 H1922 0.961 . S
C1915 H1923 0.960 . S
C1916 C1914 1.381 . S
C1916 C1917 1.394 . S
C1916 H1924 0.930 . S
C1917 C1916 1.394 . S
C1917 C1918 1.383 . S
C1917 H1925 0.929 . S
C1918 C1917 1.383 . S
C1918 C1919 1.377 . S
C1919 H1903 0.930 . S
C1919 C1918 1.377 . S
C1919 C1920 1.379 . S
C1920 H1904 0.931 . S
C1920 C1914 1.383 . S
C1920 C1919 1.379 . S
H1921 C1915 0.959 . S
H1922 C1915 0.961 . S
H1923 C1915 0.960 . S
H1924 C1916 0.930 . S
H1925 C1917 0.929 . S
H1926 C1934 0.929 . S
H1927 C1936 0.930 . S
H1928 C1938 0.930 . S
H1929 C1941 0.929 . S
H1930 C1944 0.930 . S
H1931 C1946 0.960 . S
H1932 C1946 0.960 . S
H1933 C1946 0.960 . S
C1934 H1926 0.929 . S
C1934 C1935 1.377 . S
C1934 C1936 1.384 . S
C1935 C1934 1.377 . S
C1935 C1941 1.390 . S
C1936 H1927 0.930 . S
C1936 C1934 1.384 . S
C1936 C1937 1.372 . S
C1937 C1936 1.372 . S
C1937 C1938 1.400 . S
C1937 C1942 1.490 . S
C1938 H1928 0.930 . S
C1938 C1937 1.400 . S
C1938 C1941 1.386 . S
H1939 C1955 0.930 . S
H1940 C1956 0.931 . S
C1941 H1929 0.929 . S
C1941 C1935 1.390 . S
C1941 C1938 1.386 . S
C1942 C1937 1.490 . S
C1942 C1944 1.395 . S
C1942 C1945 1.403 . S
H1943 C1949 0.930 . S
C1944 H1930 0.930 . S
C1944 C1942 1.395 . S
C1944 C1947 1.403 . S
C1945 C1942 1.403 . S
C1945 C1946 1.524 . S
C1945 C1949 1.400 . S
C1946 H1931 0.960 . S
C1946 H1932 0.960 . S
C1946 H1933 0.960 . S
C1946 C1945 1.524 . S
C1947 C1944 1.403 . S
C1947 C1948 1.392 . S
C1947 C1951 1.495 . S
C1948 C1947 1.392 . S
C1948 C1949 1.385 . S
C1948 C1950 1.478 . S
C1949 H1943 0.930 . S
C1949 C1945 1.400 . S
C1949 C1948 1.385 . S
C1950 C1948 1.478 . S
C1950 C1952 1.381 . S
C1950 C1956 1.383 . S
C1951 C1947 1.495 . S
C1951 H1957 0.959 . S
C1951 H1958 0.961 . S
C1951 H1959 0.960 . S
C1952 C1950 1.381 . S
C1952 C1953 1.394 . S
C1952 H1960 0.930 . S
C1953 C1952 1.394 . S
C1953 C1954 1.383 . S
C1953 H1961 0.929 . S
C1954 C1953 1.383 . S
C1954 C1955 1.377 . S
C1955 H1939 0.930 . S
C1955 C1954 1.377 . S
C1955 C1956 1.379 . S
C1956 H1940 0.931 . S
C1956 C1950 1.383 . S
C1956 C1955 1.379 . S
H1957 C1951 0.959 . S
H1958 C1951 0.961 . S
H1959 C1951 0.960 . S
H1960 C1952 0.930 . S
H1961 C1953 0.929 . S
H1962 C1970 0.929 . S
H1963 C1972 0.930 . S
H1964 C1974 0.930 . S
H1965 C1977 0.929 . S
H1966 C1980 0.930 . S
H1967 C1982 0.960 . S
H1968 C1982 0.960 . S
H1969 C1982 0.960 . S
C1970 H1962 0.929 . S
C1970 C1971 1.377 . S
C1970 C1972 1.384 . S
C1971 C1970 1.377 . S
C1971 C1977 1.390 . S
C1972 H1963 0.930 . S
C1972 C1970 1.384 . S
C1972 C1973 1.372 . S
C1973 C1972 1.372 . S
C1973 C1974 1.400 . S
C1973 C1978 1.490 . S
C1974 H1964 0.930 . S
C1974 C1973 1.400 . S
C1974 C1977 1.386 . S
H1975 C1991 0.930 . S
H1976 C1992 0.931 . S
C1977 H1965 0.929 . S
C1977 C1971 1.390 . S
C1977 C1974 1.386 . S
C1978 C1973 1.490 . S
C1978 C1980 1.395 . S
C1978 C1981 1.403 . S
H1979 C1985 0.930 . S
C1980 H1966 0.930 . S
C1980 C1978 1.395 . S
C1980 C1983 1.403 . S
C1981 C1978 1.403 . S
C1981 C1982 1.524 . S
C1981 C1985 1.400 . S
C1982 H1967 0.960 . S
C1982 H1968 0.960 . S
C1982 H1969 0.960 . S
C1982 C1981 1.524 . S
C1983 C1980 1.403 . S
C1983 C1984 1.392 . S
C1983 C1987 1.495 . S
C1984 C1983 1.392 . S
C1984 C1985 1.385 . S
C1984 C1986 1.478 . S
C1985 H1979 0.930 . S
C1985 C1981 1.400 . S
C1985 C1984 1.385 . S
C1986 C1984 1.478 . S
C1986 C1988 1.381 . S
C1986 C1992 1.383 . S
C1987 C1983 1.495 . S
C1987 H1993 0.959 . S
C1987 H1994 0.961 . S
C1987 H1995 0.960 . S
C1988 C1986 1.381 . S
C1988 C1989 1.394 . S
C1988 H1996 0.930 . S
C1989 C1988 1.394 . S
C1989 C1990 1.383 . S
C1989 H1997 0.929 . S
C1990 C1989 1.383 . S
C1990 C1991 1.377 . S
C1991 H1975 0.930 . S
C1991 C1990 1.377 . S
C1991 C1992 1.379 . S
C1992 H1976 0.931 . S
C1992 C1986 1.383 . S
C1992 C1991 1.379 . S
H1993 C1987 0.959 . S
H1994 C1987 0.961 . S
H1995 C1987 0.960 . S
H1996 C1988 0.930 . S
H1997 C1989 0.929 . S
H1998 C2006 0.929 . S
H1999 C2008 0.930 . S
H2000 C2010 0.930 . S
H2001 C2013 0.929 . S
H2002 C2016 0.930 . S
H2003 C2018 0.960 . S
H2004 C2018 0.960 . S
H2005 C2018 0.960 . S
C2006 H1998 0.929 . S
C2006 C2007 1.377 . S
C2006 C2008 1.384 . S
C2007 C2006 1.377 . S
C2007 C2013 1.390 . S
C2008 H1999 0.930 . S
C2008 C2006 1.384 . S
C2008 C2009 1.372 . S
C2009 C2008 1.372 . S
C2009 C2010 1.400 . S
C2009 C2014 1.490 . S
C2010 H2000 0.930 . S
C2010 C2009 1.400 . S
C2010 C2013 1.386 . S
H2011 C2027 0.930 . S
H2012 C2028 0.931 . S
C2013 H2001 0.929 . S
C2013 C2007 1.390 . S
C2013 C2010 1.386 . S
C2014 C2009 1.490 . S
C2014 C2016 1.395 . S
C2014 C2017 1.403 . S
H2015 C2021 0.930 . S
C2016 H2002 0.930 . S
C2016 C2014 1.395 . S
C2016 C2019 1.403 . S
C2017 C2014 1.403 . S
C2017 C2018 1.524 . S
C2017 C2021 1.400 . S
C2018 H2003 0.960 . S
C2018 H2004 0.960 . S
C2018 H2005 0.960 . S
C2018 C2017 1.524 . S
C2019 C2016 1.403 . S
C2019 C2020 1.392 . S
C2019 C2023 1.495 . S
C2020 C2019 1.392 . S
C2020 C2021 1.385 . S
C2020 C2022 1.478 . S
C2021 H2015 0.930 . S
C2021 C2017 1.400 . S
C2021 C2020 1.385 . S
C2022 C2020 1.478 . S
C2022 C2024 1.381 . S
C2022 C2028 1.383 . S
C2023 C2019 1.495 . S
C2023 H2029 0.959 . S
C2023 H2030 0.961 . S
C2023 H2031 0.960 . S
C2024 C2022 1.381 . S
C2024 C2025 1.394 . S
C2024 H2032 0.930 . S
C2025 C2024 1.394 . S
C2025 C2026 1.383 . S
C2025 H2033 0.929 . S
C2026 C2025 1.383 . S
C2026 C2027 1.377 . S
C2027 H2011 0.930 . S
C2027 C2026 1.377 . S
C2027 C2028 1.379 . S
C2028 H2012 0.931 . S
C2028 C2022 1.383 . S
C2028 C2027 1.379 . S
H2029 C2023 0.959 . S
H2030 C2023 0.961 . S
H2031 C2023 0.960 . S
H2032 C2024 0.930 . S
H2033 C2025 0.929 . S
H2034 C2042 0.929 . S
H2035 C2044 0.930 . S
H2036 C2046 0.930 . S
H2037 C2049 0.929 . S
H2038 C2052 0.930 . S
H2039 C2054 0.960 . S
H2040 C2054 0.960 . S
H2041 C2054 0.960 . S
C2042 H2034 0.929 . S
C2042 C2043 1.377 . S
C2042 C2044 1.384 . S
C2043 C2042 1.377 . S
C2043 C2049 1.390 . S
C2044 H2035 0.930 . S
C2044 C2042 1.384 . S
C2044 C2045 1.372 . S
C2045 C2044 1.372 . S
C2045 C2046 1.400 . S
C2045 C2050 1.490 . S
C2046 H2036 0.930 . S
C2046 C2045 1.400 . S
C2046 C2049 1.386 . S
H2047 C2063 0.930 . S
H2048 C2064 0.931 . S
C2049 H2037 0.929 . S
C2049 C2043 1.390 . S
C2049 C2046 1.386 . S
C2050 C2045 1.490 . S
C2050 C2052 1.395 . S
C2050 C2053 1.403 . S
H2051 C2057 0.930 . S
C2052 H2038 0.930 . S
C2052 C2050 1.395 . S
C2052 C2055 1.403 . S
C2053 C2050 1.403 . S
C2053 C2054 1.524 . S
C2053 C2057 1.400 . S
C2054 H2039 0.960 . S
C2054 H2040 0.960 . S
C2054 H2041 0.960 . S
C2054 C2053 1.524 . S
C2055 C2052 1.403 . S
C2055 C2056 1.392 . S
C2055 C2059 1.495 . S
C2056 C2055 1.392 . S
C2056 C2057 1.385 . S
C2056 C2058 1.478 . S
C2057 H2051 0.930 . S
C2057 C2053 1.400 . S
C2057 C2056 1.385 . S
C2058 C2056 1.478 . S
C2058 C2060 1.381 . S
C2058 C2064 1.383 . S
C2059 C2055 1.495 . S
C2059 H2065 0.959 . S
C2059 H2066 0.961 . S
C2059 H2067 0.960 . S
C2060 C2058 1.381 . S
C2060 C2061 1.394 . S
C2060 H2068 0.930 . S
C2061 C2060 1.394 . S
C2061 C2062 1.383 . S
C2061 H2069 0.929 . S
C2062 C2061 1.383 . S
C2062 C2063 1.377 . S
C2063 H2047 0.930 . S
C2063 C2062 1.377 . S
C2063 C2064 1.379 . S
C2064 H2048 0.931 . S
C2064 C2058 1.383 . S
C2064 C2063 1.379 . S
H2065 C2059 0.959 . S
H2066 C2059 0.961 . S
H2067 C2059 0.960 . S
H2068 C2060 0.930 . S
H2069 C2061 0.929 . S
H2070 C2078 0.929 . S
H2071 C2080 0.930 . S
H2072 C2082 0.930 . S
H2073 C2085 0.929 . S
H2074 C2088 0.930 . S
H2075 C2090 0.960 . S
H2076 C2090 0.960 . S
H2077 C2090 0.960 . S
C2078 H2070 0.929 . S
C2078 C2079 1.377 1_565 S
C2078 C2080 1.384 . S
C2079 C2078 1.377 1_545 S
C2079 C2085 1.390 . S
C2080 H2071 0.930 . S
C2080 C2078 1.384 . S
C2080 C2081 1.372 1_565 S
C2081 C2080 1.372 1_545 S
C2081 C2082 1.400 . S
C2081 C2086 1.490 1_545 S
C2082 H2072 0.930 . S
C2082 C2081 1.400 . S
C2082 C2085 1.386 . S
H2083 C2099 0.930 . S
H2084 C2100 0.931 1_545 S
C2085 H2073 0.929 . S
C2085 C2079 1.390 . S
C2085 C2082 1.386 . S
C2086 C2081 1.490 1_565 S
C2086 C2088 1.395 . S
C2086 C2089 1.403 1_565 S
H2087 C2093 0.930 1_545 S
C2088 H2074 0.930 . S
C2088 C2086 1.395 . S
C2088 C2091 1.403 . S
C2089 C2086 1.403 1_545 S
C2089 C2090 1.524 . S
C2089 C2093 1.400 1_545 S
C2090 H2075 0.960 . S
C2090 H2076 0.960 . S
C2090 H2077 0.960 . S
C2090 C2089 1.524 . S
C2091 C2088 1.403 . S
C2091 C2092 1.392 . S
C2091 C2095 1.495 . S
C2092 C2091 1.392 . S
C2092 C2093 1.385 . S
C2092 C2094 1.478 . S
C2093 H2087 0.930 1_565 S
C2093 C2089 1.400 1_565 S
C2093 C2092 1.385 . S
C2094 C2092 1.478 . S
C2094 C2096 1.381 . S
C2094 C2100 1.383 . S
C2095 C2091 1.495 . S
C2095 H2101 0.959 . S
C2095 H2102 0.961 . S
C2095 H2103 0.960 . S
C2096 C2094 1.381 . S
C2096 C2097 1.394 . S
C2096 H2104 0.930 . S
C2097 C2096 1.394 . S
C2097 C2098 1.383 . S
C2097 H2105 0.929 . S
C2098 C2097 1.383 . S
C2098 C2099 1.377 . S
C2099 H2083 0.930 . S
C2099 C2098 1.377 . S
C2099 C2100 1.379 . S
C2100 H2084 0.931 1_565 S
C2100 C2094 1.383 . S
C2100 C2099 1.379 . S
H2101 C2095 0.959 . S
H2102 C2095 0.961 . S
H2103 C2095 0.960 . S
H2104 C2096 0.930 . S
H2105 C2097 0.929 . S
H2106 C2114 0.929 . S
H2107 C2116 0.930 . S
H2108 C2118 0.930 . S
H2109 C2121 0.929 . S
H2110 C2124 0.930 1_655 S
H2111 C2126 0.960 . S
H2112 C2126 0.960 . S
H2113 C2126 0.960 . S
C2114 H2106 0.929 . S
C2114 C2115 1.377 . S
C2114 C2116 1.384 . S
C2115 C2114 1.377 . S
C2115 C2121 1.390 . S
C2116 H2107 0.930 . S
C2116 C2114 1.384 . S
C2116 C2117 1.372 . S
C2117 C2116 1.372 . S
C2117 C2118 1.400 . S
C2117 C2122 1.490 . S
C2118 H2108 0.930 . S
C2118 C2117 1.400 . S
C2118 C2121 1.386 . S
H2119 C2135 0.930 . S
H2120 C2136 0.931 . S
C2121 H2109 0.929 . S
C2121 C2115 1.390 . S
C2121 C2118 1.386 . S
C2122 C2117 1.490 . S
C2122 C2124 1.395 . S
C2122 C2125 1.403 . S
H2123 C2129 0.930 . S
C2124 H2110 0.930 1_455 S
C2124 C2122 1.395 . S
C2124 C2127 1.403 1_455 S
C2125 C2122 1.403 . S
C2125 C2126 1.524 . S
C2125 C2129 1.400 . S
C2126 H2111 0.960 . S
C2126 H2112 0.960 . S
C2126 H2113 0.960 . S
C2126 C2125 1.524 . S
C2127 C2124 1.403 1_655 S
C2127 C2128 1.392 1_655 S
C2127 C2131 1.495 . S
C2128 C2127 1.392 1_455 S
C2128 C2129 1.385 . S
C2128 C2130 1.478 . S
C2129 H2123 0.930 . S
C2129 C2125 1.400 . S
C2129 C2128 1.385 . S
C2130 C2128 1.478 . S
C2130 C2132 1.381 1_455 S
C2130 C2136 1.383 . S
C2131 C2127 1.495 . S
C2131 H2137 0.959 . S
C2131 H2138 0.961 . S
C2131 H2139 0.960 . S
C2132 C2130 1.381 1_655 S
C2132 C2133 1.394 . S
C2132 H2140 0.930 . S
C2133 C2132 1.394 . S
C2133 C2134 1.383 . S
C2133 H2141 0.929 . S
C2134 C2133 1.383 . S
C2134 C2135 1.377 1_655 S
C2135 H2119 0.930 . S
C2135 C2134 1.377 1_455 S
C2135 C2136 1.379 . S
C2136 H2120 0.931 . S
C2136 C2130 1.383 . S
C2136 C2135 1.379 . S
H2137 C2131 0.959 . S
H2138 C2131 0.961 . S
H2139 C2131 0.960 . S
H2140 C2132 0.930 . S
H2141 C2133 0.929 . S
H2142 C2150 0.929 . S
H2143 C2152 0.930 1_554 S
H2144 C2154 0.930 . S
H2145 C2157 0.929 . S
H2146 C2160 0.930 . S
H2147 C2162 0.960 . S
H2148 C2162 0.960 . S
H2149 C2162 0.960 . S
C2150 H2142 0.929 . S
C2150 C2151 1.377 . S
C2150 C2152 1.384 . S
C2151 C2150 1.377 . S
C2151 C2157 1.390 . S
C2152 H2143 0.930 1_556 S
C2152 C2150 1.384 . S
C2152 C2153 1.372 . S
C2153 C2152 1.372 . S
C2153 C2154 1.400 . S
C2153 C2158 1.490 . S
C2154 H2144 0.930 . S
C2154 C2153 1.400 . S
C2154 C2157 1.386 . S
H2155 C2171 0.930 . S
H2156 C2172 0.931 . S
C2157 H2145 0.929 . S
C2157 C2151 1.390 . S
C2157 C2154 1.386 . S
C2158 C2153 1.490 . S
C2158 C2160 1.395 1_556 S
C2158 C2161 1.403 . S
H2159 C2165 0.951 . S
C2160 H2146 0.930 . S
C2160 C2158 1.395 1_554 S
C2160 C2163 1.403 . S
C2161 C2158 1.403 . S
C2161 C2162 1.524 . S
C2161 C2165 1.428 . S
C2162 H2147 0.960 . S
C2162 H2148 0.960 . S
C2162 H2149 0.960 . S
C2162 C2161 1.524 . S
C2163 C2160 1.403 . S
C2163 C2164 1.392 . S
C2163 C2167 1.495 . S
C2164 C2163 1.392 . S
C2164 C2165 1.339 1_554 S
C2164 C2166 1.478 . S
C2165 H2159 0.951 . S
C2165 C2161 1.428 . S
C2165 C2164 1.339 1_556 S
C2166 C2164 1.478 . S
C2166 C2168 1.381 . S
C2166 C2172 1.383 . S
C2167 C2163 1.495 . S
C2167 H2173 0.959 . S
C2167 H2174 0.961 . S
C2167 H2175 0.960 . S
C2168 C2166 1.381 . S
C2168 C2169 1.394 . S
C2168 H2176 0.930 . S
C2169 C2168 1.394 . S
C2169 C2170 1.383 . S
C2169 H2177 0.929 . S
C2170 C2169 1.383 . S
C2170 C2171 1.377 . S
C2171 H2155 0.930 . S
C2171 C2170 1.377 . S
C2171 C2172 1.379 . S
C2172 H2156 0.931 . S
C2172 C2166 1.383 . S
C2172 C2171 1.379 . S
H2173 C2167 0.959 . S
H2174 C2167 0.961 . S
H2175 C2167 0.960 . S
H2176 C2168 0.930 . S
H2177 C2169 0.929 . S
H2178 C2186 0.929 . S
H2179 C2188 0.930 1_554 S
H2180 C2190 0.930 . S
H2181 C2193 0.929 . S
H2182 C2196 0.930 . S
H2183 C2198 0.960 . S
H2184 C2198 0.960 1_565 S
H2185 C2198 0.960 . S
C2186 H2178 0.929 . S
C2186 C2187 1.383 . S
C2186 C2188 1.384 . S
C2187 C2186 1.383 . S
C2187 C2193 1.371 1_565 S
C2188 H2179 0.930 1_556 S
C2188 C2186 1.384 . S
C2188 C2189 1.372 1_565 S
C2189 C2188 1.372 1_545 S
C2189 C2190 1.400 . S
C2189 C2194 1.490 . S
C2190 H2180 0.930 . S
C2190 C2189 1.400 . S
C2190 C2193 1.386 . S
H2191 C2207 0.930 . S
H2192 C2208 0.931 . S
C2193 H2181 0.929 . S
C2193 C2187 1.371 1_545 S
C2193 C2190 1.386 . S
C2194 C2189 1.490 . S
C2194 C2196 1.395 1_556 S
C2194 C2197 1.403 . S
H2195 C2201 0.952 . S
C2196 H2182 0.930 . S
C2196 C2194 1.395 1_554 S
C2196 C2199 1.403 . S
C2197 C2194 1.403 . S
C2197 C2198 1.524 . S
C2197 C2201 1.429 . S
C2198 H2183 0.960 . S
C2198 H2184 0.960 1_545 S
C2198 H2185 0.960 . S
C2198 C2197 1.524 . S
C2199 C2196 1.403 . S
C2199 C2200 1.392 . S
C2199 C2203 1.495 . S
C2200 C2199 1.392 . S
C2200 C2201 1.337 1_554 S
C2200 C2202 1.478 . S
C2201 H2195 0.952 . S
C2201 C2197 1.429 . S
C2201 C2200 1.337 1_556 S
C2202 C2200 1.478 . S
C2202 C2204 1.381 . S
C2202 C2208 1.383 . S
C2203 C2199 1.495 . S
C2203 H2209 0.959 . S
C2203 H2210 0.961 . S
C2203 H2211 0.960 . S
C2204 C2202 1.381 . S
C2204 C2205 1.394 . S
C2204 H2212 0.930 . S
C2205 C2204 1.394 . S
C2205 C2206 1.383 . S
C2205 H2213 0.929 . S
C2206 C2205 1.383 . S
C2206 C2207 1.377 . S
C2207 H2191 0.930 . S
C2207 C2206 1.377 . S
C2207 C2208 1.379 . S
C2208 H2192 0.931 . S
C2208 C2202 1.383 . S
C2208 C2207 1.379 . S
H2209 C2203 0.959 . S
H2210 C2203 0.961 . S
H2211 C2203 0.960 . S
H2212 C2204 0.930 . S
H2213 C2205 0.929 . S
H2214 C2222 0.929 . S
H2215 C2224 0.930 . S
H2216 C2226 0.930 . S
H2217 C2229 0.929 . S
H2218 C2232 0.930 . S
H2219 C2234 0.960 . S
H2220 C2234 0.960 . S
H2221 C2234 0.960 . S
C2222 H2214 0.929 . S
C2222 C2223 1.377 . S
C2222 C2224 1.384 . S
C2223 C2222 1.377 . S
C2223 C2229 1.390 1_455 S
C2224 H2215 0.930 . S
C2224 C2222 1.384 . S
C2224 C2225 1.372 . S
C2225 C2224 1.372 . S
C2225 C2226 1.400 1_455 S
C2225 C2230 1.490 1_455 S
C2226 H2216 0.930 . S
C2226 C2225 1.400 1_655 S
C2226 C2229 1.386 . S
H2227 C2243 0.930 . S
H2228 C2244 0.931 . S
C2229 H2217 0.929 . S
C2229 C2223 1.390 1_655 S
C2229 C2226 1.386 . S
C2230 C2225 1.490 1_655 S
C2230 C2232 1.395 1_656 S
C2230 C2233 1.403 . S
H2231 C2237 0.930 . S
C2232 H2218 0.930 . S
C2232 C2230 1.395 1_454 S
C2232 C2235 1.403 . S
C2233 C2230 1.403 . S
C2233 C2234 1.524 . S
C2233 C2237 1.400 1_556 S
C2234 H2219 0.960 . S
C2234 H2220 0.960 . S
C2234 H2221 0.960 . S
C2234 C2233 1.524 . S
C2235 C2232 1.403 . S
C2235 C2236 1.392 1_455 S
C2235 C2239 1.495 . S
C2236 C2235 1.392 1_655 S
C2236 C2237 1.385 . S
C2236 C2238 1.478 . S
C2237 H2231 0.930 . S
C2237 C2233 1.400 1_554 S
C2237 C2236 1.385 . S
C2238 C2236 1.478 . S
C2238 C2240 1.381 . S
C2238 C2244 1.383 . S
C2239 C2235 1.495 . S
C2239 H2245 0.959 . S
C2239 H2246 0.961 . S
C2239 H2247 0.960 . S
C2240 C2238 1.381 . S
C2240 C2241 1.394 . S
C2240 H2248 0.930 1_655 S
C2241 C2240 1.394 . S
C2241 C2242 1.383 . S
C2241 H2249 0.929 . S
C2242 C2241 1.383 . S
C2242 C2243 1.377 . S
C2243 H2227 0.930 . S
C2243 C2242 1.377 . S
C2243 C2244 1.379 . S
C2244 H2228 0.931 . S
C2244 C2238 1.383 . S
C2244 C2243 1.379 . S
H2245 C2239 0.959 . S
H2246 C2239 0.961 . S
H2247 C2239 0.960 . S
H2248 C2240 0.930 1_455 S
H2249 C2241 0.929 . S
C963 C39 2.536 . S
C982 C781 2.538 1_554 S
C999 C674 2.543 1_554 S
C1018 C91 2.544 . S
C1035 C144 2.545 . S
C1054 C728 2.541 1_554 S
C1071 C357 2.533 . S
C1090 C145 2.522 . S
C1107 C409 2.545 . S
C1126 C38 2.548 . S
C1143 C463 2.533 . S
C1162 C92 2.520 . S
C1179 C181 1.562 . S
C1198 C605 1.544 1_556 S
C1215 C499 1.569 1_556 S
C1234 C234 1.581 . S
C1251 C552 1.567 1_556 S
C1270 C294 1.580 . S
C1287 C287 1.568 . S
C1306 C817 1.585 . S
C1323 C188 1.553 . S
C1342 C870 1.575 . S
C1359 C930 1.562 . S
C1378 C241 1.573 . S
C1395 C675 2.537 . S
C1414 C462 2.547 . S
C1431 C356 2.542 . S
C1450 C727 2.530 . S
C1467 C780 2.543 . S
C1486 C410 2.536 . S
C1503 C923 1.561 . S
C1522 C506 1.556 . S
C1539 C559 1.553 . S
C1558 C824 1.561 . S
C1575 C877 1.564 . S
C1594 C612 1.549 . S
C1611 C833 1.588 . S
C1630 C29 1.594 . S
C1647 C75 1.585 . S
C1666 C886 1.572 . S
C1683 C128 1.584 . S
C1702 C940 1.578 . S
C1719 C135 1.588 . S
C1738 C621 1.581 . S
C1755 C515 1.588 . S
C1774 C22 1.587 . S
C1791 C82 1.589 . S
C1810 C568 1.589 . S
C1827 C347 1.589 . S
C1846 C197 1.573 . S
C1863 C393 1.587 . S
C1882 C250 1.579 . S
C1899 C304 1.591 . S
C1918 C453 1.590 . S
C1935 C303 1.587 . S
C1954 C771 1.583 . S
C1971 C198 1.589 . S
C1990 C658 1.575 . S
C2007 C251 1.589 . S
C2026 C718 1.581 . S
C2043 C446 1.586 . S
C2062 C939 1.572 . S
C2079 C340 1.588 . S
C2098 C834 1.584 . S
C2115 C887 1.588 . S
C2134 C400 1.577 . S
C2151 C665 1.587 . S
C2170 C516 1.579 . S
C2187 C711 1.597 . S
C2206 C569 1.579 . S
C2223 C764 1.586 . S
C2242 C622 1.591 . S
