# Generated by pormake.
# Topology wje, (4)-cn, num edge types: 1
# Building blocks:
#     Node 0, Type 0, BuildingBlock: UXUYUI_clean_sbu_0, # of connection points: 4
#     Node 1, Type 0, BuildingBlock: UXUYUI_clean_sbu_0, # of connection points: 4
#     Node 2, Type 0, BuildingBlock: UXUYUI_clean_sbu_0, # of connection points: 4
#     Node 3, Type 0, BuildingBlock: UXUYUI_clean_sbu_0, # of connection points: 4
#     Node 4, Type 0, BuildingBlock: UXUYUI_clean_sbu_0, # of connection points: 4
#     Node 5, Type 0, BuildingBlock: UXUYUI_clean_sbu_0, # of connection points: 4
#     Node 6, Type 0, BuildingBlock: UXUYUI_clean_sbu_0, # of connection points: 4
#     Node 7, Type 0, BuildingBlock: UXUYUI_clean_sbu_0, # of connection points: 4
#     Node 8, Type 0, BuildingBlock: UXUYUI_clean_sbu_0, # of connection points: 4
#     Node 9, Type 0, BuildingBlock: UXUYUI_clean_sbu_0, # of connection points: 4
#     Node 10, Type 0, BuildingBlock: UXUYUI_clean_sbu_0, # of connection points: 4
#     Node 11, Type 0, BuildingBlock: UXUYUI_clean_sbu_0, # of connection points: 4
#     Edge 12, Type (0, 0), BuildingBlock: MIFKUJ_clean_linker_0, # of connection points: 2
#     Edge 13, Type (0, 0), BuildingBlock: MIFKUJ_clean_linker_0, # of connection points: 2
#     Edge 14, Type (0, 0), BuildingBlock: MIFKUJ_clean_linker_0, # of connection points: 2
#     Edge 15, Type (0, 0), BuildingBlock: MIFKUJ_clean_linker_0, # of connection points: 2
#     Edge 16, Type (0, 0), BuildingBlock: MIFKUJ_clean_linker_0, # of connection points: 2
#     Edge 17, Type (0, 0), BuildingBlock: MIFKUJ_clean_linker_0, # of connection points: 2
#     Edge 18, Type (0, 0), BuildingBlock: MIFKUJ_clean_linker_0, # of connection points: 2
#     Edge 19, Type (0, 0), BuildingBlock: MIFKUJ_clean_linker_0, # of connection points: 2
#     Edge 20, Type (0, 0), BuildingBlock: MIFKUJ_clean_linker_0, # of connection points: 2
#     Edge 21, Type (0, 0), BuildingBlock: MIFKUJ_clean_linker_0, # of connection points: 2
#     Edge 22, Type (0, 0), BuildingBlock: MIFKUJ_clean_linker_0, # of connection points: 2
#     Edge 23, Type (0, 0), BuildingBlock: MIFKUJ_clean_linker_0, # of connection points: 2
#     Edge 24, Type (0, 0), BuildingBlock: MIFKUJ_clean_linker_0, # of connection points: 2
#     Edge 25, Type (0, 0), BuildingBlock: MIFKUJ_clean_linker_0, # of connection points: 2
#     Edge 26, Type (0, 0), BuildingBlock: MIFKUJ_clean_linker_0, # of connection points: 2
#     Edge 27, Type (0, 0), BuildingBlock: MIFKUJ_clean_linker_0, # of connection points: 2
#     Edge 28, Type (0, 0), BuildingBlock: MIFKUJ_clean_linker_0, # of connection points: 2
#     Edge 29, Type (0, 0), BuildingBlock: MIFKUJ_clean_linker_0, # of connection points: 2
#     Edge 30, Type (0, 0), BuildingBlock: MIFKUJ_clean_linker_0, # of connection points: 2
#     Edge 31, Type (0, 0), BuildingBlock: MIFKUJ_clean_linker_0, # of connection points: 2
#     Edge 32, Type (0, 0), BuildingBlock: MIFKUJ_clean_linker_0, # of connection points: 2
#     Edge 33, Type (0, 0), BuildingBlock: MIFKUJ_clean_linker_0, # of connection points: 2
#     Edge 34, Type (0, 0), BuildingBlock: MIFKUJ_clean_linker_0, # of connection points: 2
#     Edge 35, Type (0, 0), BuildingBlock: MIFKUJ_clean_linker_0, # of connection points: 2
# Relax obj value: 0.245
# Max RMSD: 0.179
# Mean RMSD: 0.178
data_MOF--net-wje--node1-UXUYUI_clean_sbu_0--edge1-MIFKUJ_clean_linker_0
_symmetry_space_group_name_H-M    P1
_symmetry_Int_Tables_number       1
_symmetry_cell_setting            triclinic
loop_
_symmetry_equiv_pos_as_xyz
'x, y, z'
_cell_length_a     74.721027
_cell_length_b     74.711222
_cell_length_c     58.225801
_cell_angle_alpha  89.99284
_cell_angle_beta   89.998879
_cell_angle_gamma 119.99191
loop_
_atom_site_label
_atom_site_type_symbol
_atom_site_fract_x
_atom_site_fract_y
_atom_site_fract_z
_atom_type_partial_charge
Li0 Li 0.34685 0.00505 0.26645 0.0
Li1 Li 0.33077 0.01373 0.29897 0.0
Li2 Li 0.31018 0.98811 0.27181 0.0
Li3 Li 0.32676 0.02308 0.25986 0.0
C4 C 0.32298 0.96726 0.29649 0.0
N5 N 0.30522 0.92514 0.30325 0.0
C6 C 0.31365 0.95844 0.31748 0.0
C7 C 0.32345 0.95465 0.27901 0.0
C8 C 0.30468 0.93711 0.32052 0.0
C9 C 0.3144 0.93341 0.28278 0.0
C10 C 0.37197 0.04345 0.28782 0.0
C11 C 0.40424 0.07481 0.2946 0.0
N12 N 0.41049 0.06413 0.30815 0.0
C13 C 0.37869 0.03277 0.30182 0.0
C14 C 0.38482 0.06462 0.28414 0.0
C15 C 0.39823 0.04351 0.31193 0.0
C16 C 0.38318 0.01675 0.2408 0.0
N17 N 0.37063 0.00378 0.25745 0.0
C18 C 0.39341 0.99047 0.2635 0.0
C19 C 0.37547 0.99091 0.26891 0.0
C20 C 0.40675 0.00378 0.24653 0.0
C21 C 0.40155 0.01711 0.23512 0.0
H22 H 0.3791 0.02709 0.23228 0.0
H23 H 0.36568 0.98134 0.28266 0.0
C24 C 0.31414 0.00557 0.34169 0.0
N25 N 0.33147 0.01984 0.33072 0.0
C26 C 0.3122 0.00656 0.36533 0.0
C27 C 0.34568 0.03764 0.36603 0.0
C28 C 0.34695 0.03604 0.3422 0.0
C29 C 0.32823 0.02256 0.37791 0.0
H30 H 0.30195 0.99311 0.33202 0.0
H31 H 0.36034 0.04758 0.33305 0.0
C32 C 0.31316 0.9876 0.22564 0.0
N33 N 0.28733 0.96294 0.19107 0.0
C34 C 0.29493 0.98776 0.2208 0.0
C35 C 0.31836 0.97504 0.21285 0.0
C36 C 0.28203 0.97512 0.20328 0.0
C37 C 0.30507 0.96265 0.19544 0.0
C38 C 0.30071 0.02411 0.29262 0.0
C39 C 0.28016 0.01836 0.29722 0.0
C40 C 0.31637 0.04439 0.297 0.0
C41 C 0.2756 0.03301 0.30602 0.0
C42 C 0.31116 0.05858 0.3058 0.0
N43 N 0.29106 0.05265 0.31009 0.0
C44 C 0.2736 0.96058 0.29111 0.0
C45 C 0.27982 0.94549 0.25845 0.0
C46 C 0.25702 0.94162 0.2976 0.0
N47 N 0.28498 0.96211 0.27224 0.0
C48 C 0.26303 0.92614 0.26418 0.0
C49 C 0.25193 0.92411 0.28435 0.0
H50 H 0.27818 0.97391 0.30193 0.0
H51 H 0.2894 0.94683 0.24396 0.0
C52 C 0.34309 0.05783 0.23104 0.0
N53 N 0.32551 0.04341 0.24153 0.0
C54 C 0.34325 0.07392 0.21867 0.0
C55 C 0.30718 0.05994 0.2281 0.0
C56 C 0.30761 0.04388 0.23982 0.0
C57 C 0.32522 0.07542 0.21744 0.0
H58 H 0.35705 0.05693 0.23254 0.0
H59 H 0.29375 0.03205 0.24803 0.0
O60 O 0.33136 0.98804 0.29289 0.0
O61 O 0.35302 0.0333 0.27746 0.0
O62 O 0.32598 -0.00017 0.24269 0.0
O63 O 0.30528 0.0098 0.28403 0.0
H64 H 0.31329 0.96792 0.33128 0.0
H65 H 0.33038 0.96117 0.26256 0.0
H66 H 0.29727 0.93008 0.33662 0.0
H67 H 0.3145 0.92347 0.26934 0.0
H68 H 0.41435 0.09121 0.29193 0.0
H69 H 0.36893 0.01642 0.30499 0.0
H70 H 0.37982 0.07309 0.27332 0.0
H71 H 0.40364 0.03545 0.32282 0.0
H72 H 0.39716 0.98031 0.273 0.0
H73 H 0.41156 0.02765 0.22202 0.0
H74 H 0.29858 0.99444 0.37371 0.0
H75 H 0.35824 0.05042 0.37505 0.0
H76 H 0.29072 0.99741 0.23061 0.0
H77 H 0.33248 0.97482 0.21642 0.0
H78 H 0.26781 0.97499 0.19939 0.0
H79 H 0.30884 0.95279 0.18542 0.0
H80 H 0.26787 0.00272 0.29396 0.0
H81 H 0.33236 0.0492 0.29364 0.0
H82 H 0.25976 0.02877 0.30962 0.0
H83 H 0.32312 0.07432 0.30923 0.0
H84 H 0.24868 0.94048 0.31327 0.0
H85 H 0.25949 0.91277 0.25374 0.0
H86 H 0.35742 0.08509 0.2103 0.0
H87 H 0.29295 0.06043 0.22804 0.0
Li88 Li 0.34044 0.34539 0.59972 0.0
Li89 Li 0.31459 0.32885 0.63007 0.0
Li90 Li 0.32156 0.3078 0.60301 0.0
Li91 Li 0.30347 0.32531 0.59015 0.0
C92 C 0.35856 0.328 0.62696 0.0
N93 N 0.3948 0.32672 0.62979 0.0
C94 C 0.36691 0.32791 0.64839 0.0
C95 C 0.36859 0.3274 0.60696 0.0
C96 C 0.38527 0.32728 0.64947 0.0
C97 C 0.38691 0.32677 0.60875 0.0
C98 C 0.31315 0.36403 0.61952 0.0
C99 C 0.28776 0.37284 0.63209 0.0
N100 N 0.30303 0.39039 0.64189 0.0
C101 C 0.32862 0.38228 0.62942 0.0
C102 C 0.29258 0.35938 0.6206 0.0
C103 C 0.32318 0.39535 0.64078 0.0
C104 C 0.37221 0.37558 0.57155 0.0
N105 N 0.36618 0.36913 0.59346 0.0
C106 C 0.3974 0.39718 0.60828 0.0
C107 C 0.37826 0.37949 0.6117 0.0
C108 C 0.40415 0.4043 0.58584 0.0
C109 C 0.39127 0.39327 0.56731 0.0
H110 H 0.3622 0.367 0.5574 0.0
H111 H 0.37294 0.37401 0.62894 0.0
C112 C 0.2967 0.31083 0.67184 0.0
N113 N 0.30936 0.32942 0.66188 0.0
C114 C 0.29549 0.3089 0.69566 0.0
C115 C 0.32007 0.34543 0.69873 0.0
C116 C 0.32085 0.34664 0.67475 0.0
C117 C 0.30771 0.32622 0.70941 0.0
H118 H 0.28847 0.29717 0.66136 0.0
H119 H 0.3316 0.361 0.6665 0.0
C120 C 0.32043 0.3121 0.55539 0.0
N121 N 0.30688 0.2868 0.51718 0.0
C122 C 0.30252 0.29275 0.55655 0.0
C123 C 0.33151 0.31856 0.53483 0.0
C124 C 0.29589 0.2802 0.53705 0.0
C125 C 0.3244 0.30555 0.51569 0.0
C126 C 0.27414 0.29088 0.61669 0.0
C127 C 0.26491 0.27001 0.61064 0.0
C128 C 0.26206 0.29852 0.62602 0.0
C129 C 0.24363 0.25724 0.61357 0.0
C130 C 0.24083 0.28525 0.62868 0.0
N131 N 0.23213 0.26506 0.62242 0.0
C132 C 0.31534 0.27375 0.62473 0.0
C133 C 0.33109 0.27593 0.58867 0.0
C134 C 0.31573 0.25588 0.63023 0.0
N135 N 0.32289 0.28332 0.60432 0.0
C136 C 0.33181 0.25791 0.59351 0.0
C137 C 0.32401 0.24767 0.61458 0.0
H138 H 0.30933 0.28032 0.63696 0.0
H139 H 0.3373 0.28411 0.5727 0.0
C140 C 0.28575 0.34289 0.56252 0.0
N141 N 0.28263 0.32449 0.57063 0.0
C142 C 0.27034 0.34384 0.54997 0.0
C143 C 0.24904 0.30678 0.55368 0.0
C144 C 0.26494 0.30654 0.56595 0.0
C145 C 0.25146 0.32566 0.54581 0.0
H146 H 0.30007 0.35691 0.5663 0.0
H147 H 0.2629 0.29203 0.57215 0.0
O148 O 0.34054 0.32848 0.62569 0.0
O149 O 0.31822 0.35111 0.60825 0.0
O150 O 0.32738 0.32461 0.5743 0.0
O151 O 0.29497 0.3036 0.61387 0.0
H152 H 0.35927 0.32832 0.66403 0.0
H153 H 0.3623 0.32739 0.59022 0.0
H154 H 0.39193 0.32721 0.66594 0.0
H155 H 0.39484 0.3263 0.59342 0.0
H156 H 0.27189 0.36939 0.63313 0.0
H157 H 0.34464 0.38623 0.6285 0.0
H158 H 0.28047 0.34562 0.6125 0.0
H159 H 0.33498 0.40944 0.64869 0.0
H160 H 0.40666 0.40539 0.62307 0.0
H161 H 0.39596 0.39812 0.54975 0.0
H162 H 0.28574 0.29382 0.70323 0.0
H163 H 0.33002 0.35906 0.70873 0.0
H164 H 0.29391 0.28742 0.57235 0.0
H165 H 0.34549 0.33345 0.53369 0.0
H166 H 0.28204 0.26518 0.53772 0.0
H167 H 0.33283 0.31035 0.49966 0.0
H168 H 0.27407 0.26375 0.60368 0.0
H169 H 0.26903 0.31445 0.63139 0.0
H170 H 0.23627 0.24109 0.60883 0.0
H171 H 0.23128 0.29098 0.63582 0.0
H172 H 0.31009 0.2489 0.64691 0.0
H173 H 0.33838 0.2521 0.58102 0.0
H174 H 0.27311 0.3587 0.54384 0.0
H175 H 0.23475 0.29238 0.55111 0.0
Li176 Li 0.99186 0.34025 0.93642 0.0
Li177 Li 0.98117 0.31317 0.96718 0.0
Li178 Li 0.00818 0.31917 0.94039 0.0
Li179 Li 0.97345 0.30215 0.92825 0.0
C180 C 0.0251 0.34653 0.97551 0.0
N181 N 0.06113 0.36083 0.00056 0.0
C182 C 0.02701 0.33374 0.99168 0.0
C183 C 0.04154 0.36659 0.97207 0.0
C184 C 0.04534 0.34126 0.00417 0.0
C185 C 0.05962 0.37353 0.98492 0.0
C186 C 0.94984 0.31912 0.9611 0.0
C187 C 0.92114 0.30222 0.98736 0.0
N188 N 0.92325 0.32086 0.99286 0.0
C189 C 0.95162 0.3381 0.96691 0.0
C190 C 0.93438 0.30101 0.9713 0.0
C191 C 0.93806 0.33867 0.98303 0.0
C192 C 0.98652 0.36787 0.90852 0.0
N193 N 0.99484 0.36612 0.92856 0.0
C194 C 0.00605 0.40122 0.93818 0.0
C195 C 0.00445 0.38224 0.94337 0.0
C196 C 0.99743 0.40347 0.9177 0.0
C197 C 0.98761 0.38653 0.90273 0.0
H198 H 0.97886 0.35469 0.89719 0.0
H199 H 0.01042 0.3802 0.95946 0.0
C200 C 0.97195 0.29073 0.00862 0.0
N201 N 0.9744 0.30835 0.99886 0.0
C202 C 0.97111 0.28859 0.03245 0.0
C203 C 0.97465 0.32247 0.03573 0.0
C204 C 0.97554 0.32401 0.01182 0.0
C205 C 0.97298 0.3048 0.04632 0.0
H206 H 0.97188 0.27885 0.99802 0.0
H207 H 0.97826 0.33815 0.00364 0.0
C208 C 0.01383 0.33079 0.89746 0.0
N209 N 0.04743 0.34243 0.86895 0.0
C210 C 0.01858 0.31603 0.88941 0.0
C211 C 0.02608 0.35145 0.8909 0.0
C212 C 0.03567 0.32223 0.87506 0.0
C213 C 0.04302 0.35703 0.87649 0.0
C214 C 0.97548 0.27185 0.94665 0.0
C215 C 0.98454 0.26338 0.93259 0.0
C216 C 0.95543 0.25916 0.95492 0.0
C217 C 0.97338 0.24239 0.92704 0.0
C218 C 0.94475 0.23826 0.94892 0.0
N219 N 0.95387 0.23037 0.93523 0.0
C220 C 0.03606 0.30564 0.95068 0.0
C221 C 0.05206 0.33965 0.93555 0.0
C222 C 0.05522 0.30802 0.95643 0.0
N223 N 0.0348 0.3214 0.94065 0.0
C224 C 0.07155 0.34288 0.94154 0.0
C225 C 0.07315 0.32702 0.95248 0.0
H226 H 0.02219 0.29176 0.95577 0.0
H227 H 0.05063 0.35224 0.92845 0.0
C228 C 0.93297 0.277 0.91218 0.0
N229 N 0.9528 0.28152 0.90897 0.0
C230 C 0.91689 0.26066 0.90034 0.0
C231 C 0.94197 0.25424 0.88154 0.0
C232 C 0.95761 0.27097 0.89347 0.0
C233 C 0.92121 0.24864 0.88519 0.0
H234 H 0.92958 0.28588 0.92423 0.0
H235 H 0.97352 0.27504 0.89098 0.0
O236 O 0.00748 0.33925 0.96263 0.0
O237 O 0.96317 0.31828 0.94558 0.0
O238 O 0.99721 0.32505 0.91159 0.0
O239 O 0.98604 0.29247 0.95203 0.0
H240 H 0.01466 0.31804 0.99423 0.0
H241 H 0.04054 0.37658 0.95931 0.0
H242 H 0.04706 0.33148 0.01662 0.0
H243 H 0.07251 0.38898 0.98234 0.0
H244 H 0.9092 0.28832 0.99547 0.0
H245 H 0.96339 0.35228 0.95918 0.0
H246 H 0.9327 0.28618 0.96697 0.0
H247 H 0.93934 0.35326 0.98775 0.0
H248 H 0.01338 0.4138 0.95038 0.0
H249 H 0.98084 0.3877 0.88675 0.0
H250 H 0.96979 0.27472 0.03997 0.0
H251 H 0.97652 0.33548 0.04582 0.0
H252 H 0.00935 0.30001 0.89443 0.0
H253 H 0.02264 0.36308 0.89698 0.0
H254 H 0.03961 0.311 0.86883 0.0
H255 H 0.05268 0.37297 0.87133 0.0
H256 H -0.00014 0.27296 0.9256 0.0
H257 H 0.9481 0.26541 0.96569 0.0
H258 H 0.98017 0.23569 0.91608 0.0
H259 H 0.92919 0.22832 0.9551 0.0
H260 H 0.05592 0.29563 0.9653 0.0
H261 H 0.08513 0.35781 0.93849 0.0
H262 H 0.90123 0.25739 0.90323 0.0
H263 H 0.94613 0.24542 0.87019 0.0
Li264 Li 0.6575 -2e-05 0.26412 0.0
Li265 Li 0.67563 0.9922 0.29608 0.0
Li266 Li 0.69419 0.01538 0.26632 0.0
Li267 Li 0.67619 0.97966 0.25691 0.0
C268 C 0.68627 0.03814 0.29488 0.0
N269 N 0.70904 0.07952 0.3064 0.0
C270 C 0.70134 0.04471 0.31204 0.0
C271 C 0.68266 0.05261 0.28371 0.0
C272 C 0.71275 0.0657 0.31755 0.0
C273 C 0.69434 0.07345 0.28979 0.0
C274 C 0.63407 0.9575 0.28679 0.0
C275 C 0.61141 0.92189 0.29744 0.0
N276 N 0.59797 0.92717 0.30671 0.0
C277 C 0.61995 0.96252 0.29627 0.0
C278 C 0.6297 0.93698 0.28723 0.0
C279 C 0.60183 0.94699 0.30633 0.0
C280 C 0.62266 0.99256 0.23774 0.0
N281 N 0.63402 0.00223 0.25669 0.0
C282 C 0.61078 0.01415 0.26682 0.0
C283 C 0.6285 0.01292 0.27114 0.0
C284 C 0.59856 0.00415 0.24752 0.0
C285 C 0.60473 0.99329 0.23282 0.0
H286 H 0.62742 0.98409 0.22664 0.0
H287 H 0.6376 0.0201 0.28634 0.0
C288 C 0.69473 0.99464 0.33819 0.0
N289 N 0.67594 0.98821 0.32843 0.0
C290 C 0.69678 0.99495 0.36199 0.0
C291 C 0.66007 0.9818 0.36544 0.0
C292 C 0.65872 0.98173 0.34151 0.0
C293 C 0.67938 0.98885 0.37596 0.0
H294 H 0.70834 0.00042 0.32753 0.0
H295 H 0.64411 0.97738 0.3335 0.0
C296 C 0.688 0.0151 0.22148 0.0
N297 N 0.71183 0.04116 0.18661 0.0
C298 C 0.70598 0.01531 0.21447 0.0
C299 C 0.68197 0.02793 0.21063 0.0
C300 C 0.71788 0.02867 0.19685 0.0
C301 C 0.69427 0.04104 0.19305 0.0
C302 C 0.70411 0.9795 0.28732 0.0
C303 C 0.72445 0.98337 0.28678 0.0
C304 C 0.68851 0.9608 0.29626 0.0
C305 C 0.72881 0.96844 0.29513 0.0
C306 C 0.69349 0.94626 0.30445 0.0
N307 N 0.71337 0.95034 0.30371 0.0
C308 C 0.73556 0.04228 0.27483 0.0
C309 C 0.7208 0.05789 0.25211 0.0
C310 C 0.75348 0.06124 0.27791 0.0
N311 N 0.71949 0.041 0.26259 0.0
C312 C 0.7385 0.07727 0.2548 0.0
C313 C 0.7549 0.07917 0.2684 0.0
H314 H 0.73394 0.02881 0.28359 0.0
H315 H 0.70763 0.05667 0.24305 0.0
C316 C 0.65685 0.94194 0.2323 0.0
N317 N 0.67532 0.95765 0.23971 0.0
C318 C 0.65587 0.92491 0.22114 0.0
C319 C 0.69293 0.94075 0.22521 0.0
C320 C 0.69325 0.95762 0.23585 0.0
C321 C 0.67405 0.92407 0.21794 0.0
H322 H 0.64287 0.94249 0.23544 0.0
H323 H 0.70778 0.97056 0.24134 0.0
O324 O 0.67525 0.0177 0.28889 0.0
O325 O 0.6517 0.97242 0.27642 0.0
O326 O 0.67616 0.00218 0.23869 0.0
O327 O 0.69963 0.99394 0.27884 0.0
H328 H 0.70443 0.03377 0.32076 0.0
H329 H 0.67125 0.04786 0.27019 0.0
H330 H 0.72459 0.07102 0.33063 0.0
H331 H 0.69182 0.08483 0.28116 0.0
H332 H 0.60787 0.90598 0.29795 0.0
H333 H 0.62309 0.97828 0.29621 0.0
H334 H 0.64028 0.93271 0.27972 0.0
H335 H 0.59085 0.9507 0.31387 0.0
H336 H 0.60639 0.02235 0.27882 0.0
H337 H 0.5958 0.98547 0.21769 0.0
H338 H 0.71194 0.00038 0.36936 0.0
H339 H 0.6463 0.97731 0.37556 0.0
H340 H 0.71077 0.0054 0.22271 0.0
H341 H 0.66802 0.02784 0.21586 0.0
H342 H 0.73192 0.02913 0.19133 0.0
H343 H 0.68988 0.05115 0.18455 0.0
H344 H 0.73673 0.99769 0.27978 0.0
H345 H 0.67278 0.95759 0.29704 0.0
H346 H 0.74448 0.97121 0.29474 0.0
H347 H 0.68155 0.93174 0.31142 0.0
H348 H 0.7655 0.06198 0.28895 0.0
H349 H 0.73897 0.09071 0.24716 0.0
H350 H 0.64105 0.91228 0.21568 0.0
H351 H 0.70728 0.9407 0.22268 0.0
Li352 Li 0.68504 0.66862 0.63403 0.0
Li353 Li 0.65983 0.65362 0.60274 0.0
Li354 Li 0.69703 0.67343 0.59428 0.0
Li355 Li 0.67915 0.69088 0.6078 0.0
C356 C 0.68621 0.63306 0.62007 0.0
N357 N 0.69549 0.60416 0.63723 0.0
C358 C 0.67044 0.61397 0.62796 0.0
C359 C 0.70667 0.63729 0.62051 0.0
C360 C 0.67545 0.59961 0.6367 0.0
C361 C 0.71105 0.62252 0.62935 0.0
C362 C 0.64177 0.67085 0.63061 0.0
C363 C 0.61393 0.67283 0.61212 0.0
N364 N 0.60643 0.67382 0.63308 0.0
C365 C 0.63382 0.67191 0.65195 0.0
C366 C 0.63179 0.67134 0.6105 0.0
C367 C 0.61591 0.67339 0.65285 0.0
C368 C 0.69983 0.68512 0.67691 0.0
N369 N 0.68974 0.66673 0.66571 0.0
C370 C 0.68176 0.6484 0.7013 0.0
C371 C 0.68089 0.64851 0.67732 0.0
C372 C 0.69161 0.66723 0.71334 0.0
C373 C 0.70111 0.68574 0.70078 0.0
H374 H 0.70598 0.6994 0.66737 0.0
H375 H 0.67229 0.63412 0.66814 0.0
C376 C 0.62803 0.62424 0.57363 0.0
N377 N 0.63415 0.63013 0.59566 0.0
C378 C 0.60932 0.60619 0.56915 0.0
C379 C 0.60364 0.60093 0.6101 0.0
C380 C 0.62235 0.61906 0.61376 0.0
C381 C 0.597 0.59417 0.58757 0.0
H382 H 0.63783 0.63338 0.55959 0.0
H383 H 0.62767 0.6242 0.63109 0.0
C384 C 0.7259 0.70528 0.62459 0.0
N385 N 0.76731 0.72758 0.63595 0.0
C386 C 0.7372 0.72655 0.62047 0.0
C387 C 0.73557 0.69542 0.6348 0.0
C388 C 0.75815 0.73754 0.62624 0.0
C389 C 0.75654 0.70694 0.64034 0.0
C390 C 0.68189 0.68876 0.5603 0.0
C391 C 0.70002 0.70775 0.56304 0.0
C392 C 0.67181 0.68368 0.53908 0.0
C393 C 0.70784 0.72133 0.54443 0.0
C394 C 0.6801 0.69768 0.52088 0.0
N395 N 0.6978 0.71606 0.52391 0.0
C396 C 0.71432 0.65694 0.56421 0.0
C397 C 0.73674 0.69228 0.57304 0.0
C398 C 0.72991 0.65625 0.55168 0.0
N399 N 0.71813 0.67466 0.57496 0.0
C400 C 0.75285 0.6922 0.56107 0.0
C401 C 0.74956 0.67393 0.55053 0.0
H402 H 0.69933 0.64318 0.56595 0.0
H403 H 0.73928 0.70634 0.5811 0.0
C404 C 0.68742 0.72613 0.6291 0.0
N405 N 0.67827 0.71558 0.6096 0.0
C406 C 0.68692 0.74394 0.63469 0.0
C407 C 0.66752 0.73984 0.5999 0.0
C408 C 0.66848 0.722 0.59489 0.0
C409 C 0.67675 0.75096 0.62014 0.0
H410 H 0.69465 0.72032 0.64067 0.0
H411 H 0.66105 0.71305 0.57967 0.0
O412 O 0.68152 0.64718 0.61122 0.0
O413 O 0.65943 0.66967 0.6295 0.0
O414 O 0.70538 0.69433 0.61898 0.0
O415 O 0.67379 0.67521 0.57825 0.0
H416 H 0.6545 0.61033 0.62749 0.0
H417 H 0.71903 0.65172 0.6139 0.0
H418 H 0.66341 0.58485 0.64303 0.0
H419 H 0.72683 0.62563 0.62986 0.0
H420 H 0.60606 0.67324 0.59671 0.0
H421 H 0.64144 0.67164 0.66766 0.0
H422 H 0.63781 0.67067 0.59383 0.0
H423 H 0.60957 0.67422 0.66925 0.0
H424 H 0.67424 0.63377 0.71034 0.0
H425 H 0.70842 0.70061 0.70932 0.0
H426 H 0.60481 0.60142 0.55154 0.0
H427 H 0.59447 0.5923 0.62477 0.0
H428 H 0.72991 0.73447 0.61274 0.0
H429 H 0.72694 0.67911 0.63869 0.0
H430 H 0.76712 0.75398 0.62301 0.0
H431 H 0.76423 0.69949 0.64822 0.0
H432 H 0.70795 0.71204 0.57934 0.0
H433 H 0.65769 0.66906 0.53671 0.0
H434 H 0.72187 0.73607 0.54632 0.0
H435 H 0.67246 0.69394 0.50436 0.0
H436 H 0.72689 0.6419 0.54373 0.0
H437 H 0.76777 0.70619 0.56021 0.0
H438 H 0.69377 0.75166 0.65073 0.0
H439 H 0.65949 0.74475 0.58827 0.0
Li440 Li 0.00312 0.6575 0.9323 0.0
Li441 Li 0.01433 0.6822 0.96545 0.0
Li442 Li 0.9888 0.68018 0.93872 0.0
Li443 Li 0.02386 0.69599 0.92751 0.0
C444 C 0.9678 0.6493 0.9678 0.0
N445 N 0.92831 0.63344 0.98514 0.0
C446 C 0.96458 0.6569 0.9884 0.0
C447 C 0.95094 0.63358 0.95607 0.0
C448 C 0.9445 0.6487 0.99686 0.0
C449 C 0.93109 0.62576 0.96513 0.0
C450 C 0.0449 0.67538 0.95818 0.0
C451 C 0.07318 0.69026 0.98514 0.0
N452 N 0.0706 0.67117 0.98912 0.0
C453 C 0.04258 0.65592 0.96246 0.0
C454 C 0.06038 0.69272 0.96952 0.0
C455 C 0.05572 0.65411 0.97819 0.0
C456 C 0.01192 0.63143 0.90585 0.0
N457 N -0.00049 0.63174 0.92271 0.0
C458 C 0.98449 0.59543 0.92865 0.0
C459 C 0.98594 0.61429 0.93409 0.0
C460 C 0.99745 0.59468 0.91168 0.0
C461 C 0.01121 0.61293 0.90008 0.0
H462 H 0.02278 0.64566 0.89737 0.0
H463 H 0.97673 0.61511 0.9479 0.0
C464 C 0.02165 0.70119 0.00857 0.0
N465 N 0.01993 0.68449 0.99731 0.0
C466 C 0.02083 0.70129 0.03249 0.0
C467 C 0.01753 0.6674 0.03276 0.0
C468 C 0.0182 0.66788 0.00882 0.0
C469 C 0.01813 0.68396 0.0449 0.0
H470 H 0.02224 0.71385 0.99898 0.0
H471 H 0.01615 0.65452 -0.00061 0.0
C472 C 0.98377 0.67027 0.89422 0.0
N473 N 0.95206 0.66007 0.86329 0.0
C474 C 0.98015 0.6856 0.88546 0.0
C475 C 0.97132 0.64977 0.88719 0.0
C476 C 0.96401 0.68012 0.86986 0.0
C477 C 0.95535 0.64493 0.87154 0.0
C478 C 0.02215 0.7258 0.94857 0.0
C479 C 0.01285 0.73476 0.93572 0.0
C480 C 0.04205 0.73826 0.95731 0.0
C481 C 0.02372 0.75605 0.93168 0.0
C482 C 0.05244 0.75947 0.95283 0.0
N483 N 0.04314 0.76785 0.94021 0.0
C484 C 0.96452 0.69475 0.95654 0.0
C485 C 0.94596 0.6687 0.92887 0.0
C486 C 0.94675 0.69518 0.96267 0.0
N487 N 0.96387 0.68158 0.94004 0.0
C488 C 0.92772 0.66862 0.93448 0.0
C489 C 0.92794 0.68177 0.95189 0.0
H490 H 0.97864 0.70419 0.96593 0.0
H491 H 0.94546 0.65766 0.91658 0.0
C492 C 0.06495 0.72103 0.91246 0.0
N493 N 0.04529 0.71728 0.90981 0.0
C494 C 0.08124 0.73757 0.90104 0.0
C495 C 0.05671 0.74586 0.88412 0.0
C496 C 0.04087 0.72896 0.89555 0.0
C497 C 0.07719 0.75039 0.88699 0.0
H498 H 0.06801 0.71139 0.92371 0.0
H499 H 0.0251 0.72548 0.89351 0.0
O500 O 0.98729 0.65757 0.95889 0.0
O501 O 0.03205 0.67746 0.94303 0.0
O502 O -0.00033 0.67534 0.90921 0.0
O503 O 0.01189 0.70493 0.9524 0.0
H504 H 0.97741 0.66919 0.9976 0.0
H505 H 0.9531 0.62779 0.93989 0.0
H506 H 0.94177 0.65453 0.0127 0.0
H507 H 0.91789 0.61372 0.95614 0.0
H508 H 0.08515 0.70353 0.99413 0.0
H509 H 0.03069 0.64232 0.95389 0.0
H510 H 0.06239 0.70788 0.96643 0.0
H511 H 0.05404 0.63914 0.98173 0.0
H512 H 0.97396 0.58174 0.93825 0.0
H513 H 0.02145 0.61292 0.88691 0.0
H514 H 0.02096 0.71423 0.04102 0.0
H515 H 0.01569 0.65383 0.0416 0.0
H516 H 0.98951 0.7015 0.89084 0.0
H517 H 0.97391 0.63772 0.89375 0.0
H518 H 0.96096 0.6918 0.86303 0.0
H519 H 0.94557 0.62913 0.86598 0.0
H520 H 0.99754 0.72535 0.92862 0.0
H521 H 0.04947 0.73159 0.9673 0.0
H522 H 0.01677 0.76316 0.92164 0.0
H523 H 0.0679 0.76926 0.95936 0.0
H524 H 0.9476 0.70516 0.97663 0.0
H525 H 0.91351 0.65797 0.92578 0.0
H526 H 0.09688 0.74065 0.90367 0.0
H527 H 0.05302 0.75531 0.87319 0.0
Li528 Li 0.01204 0.69058 0.3908 0.0
Li529 Li 0.97543 0.67257 0.40315 0.0
Li530 Li 0.99384 0.65316 0.39536 0.0
Li531 Li 0.98537 0.66905 0.36506 0.0
C532 C 0.00506 0.68724 0.43849 0.0
N533 N 0.01487 0.71308 0.47605 0.0
C534 C 0.00351 0.7051 0.43713 0.0
C535 C 0.0116 0.68253 0.45893 0.0
C536 C 0.00853 0.71795 0.45632 0.0
C537 C 0.0165 0.69579 0.47773 0.0
C538 C 0.98101 0.7015 0.3637 0.0
C539 C 0.95153 0.69835 0.34314 0.0
N540 N 0.96441 0.71466 0.32971 0.0
C541 C 0.99394 0.71832 0.3498 0.0
C542 C 0.95962 0.69147 0.36041 0.0
C543 C 0.98525 0.7247 0.33266 0.0
C544 C 0.04353 0.72107 0.36801 0.0
N545 N 0.0381 0.71519 0.39013 0.0
C546 C 0.06955 0.74414 0.40346 0.0
C547 C 0.05073 0.72608 0.40788 0.0
C548 C 0.0752 0.7508 0.38064 0.0
C549 C 0.062 0.7388 0.36284 0.0
H550 H 0.03338 0.71185 0.3543 0.0
H551 H 0.04629 0.72084 0.42535 0.0
C552 C 0.94343 0.65763 0.43594 0.0
N553 N 0.95507 0.6736 0.42151 0.0
C554 C 0.92715 0.65724 0.44816 0.0
C555 C 0.93538 0.68982 0.43055 0.0
C556 C 0.95171 0.68977 0.41904 0.0
C557 C 0.92277 0.67329 0.44508 0.0
H558 H 0.94652 0.645 0.43751 0.0
H559 H 0.96142 0.70243 0.40775 0.0
C560 C 0.03018 0.67006 0.37129 0.0
N561 N 0.06754 0.67095 0.37414 0.0
C562 C 0.0396 0.66811 0.35146 0.0
C563 C 0.03978 0.67246 0.3926 0.0
C564 C 0.05848 0.6686 0.35325 0.0
C565 C 0.05865 0.67288 0.39367 0.0
C566 C 0.94995 0.63269 0.37287 0.0
C567 C 0.95292 0.61981 0.35787 0.0
C568 C 0.93046 0.6309 0.37466 0.0
C569 C 0.93632 0.60545 0.34465 0.0
C570 C 0.91426 0.61632 0.36117 0.0
N571 N 0.9175 0.60402 0.34655 0.0
C572 C 0.99173 0.62153 0.42462 0.0
C573 C 1e-05 0.62018 0.38558 0.0
C574 C 0.99183 0.6032 0.42927 0.0
N575 N 0.99562 0.62946 0.403 0.0
C576 C 0.00044 0.60202 0.38947 0.0
C577 C 0.99599 0.59307 0.41145 0.0
H578 H 0.98812 0.62919 0.43809 0.0
H579 H 0.00287 0.62674 0.36852 0.0
C580 C 0.99735 0.67813 0.32044 0.0
N581 N 0.97965 0.66796 0.33287 0.0
C582 C 0.99663 0.68026 0.29682 0.0
C583 C 0.95934 0.66116 0.29879 0.0
C584 C 0.96078 0.6596 0.3226 0.0
C585 C 0.97748 0.67177 0.2857 0.0
H586 H 0.01212 0.68486 0.32897 0.0
H587 H 0.94687 0.65213 0.33279 0.0
O588 O 0.00017 0.67429 0.42004 0.0
O589 O 0.98921 0.6947 0.38026 0.0
O590 O 0.01172 0.66971 0.36965 0.0
O591 O 0.96591 0.64676 0.38607 0.0
H592 H 0.99863 0.70911 0.42144 0.0
H593 H 0.01289 0.66875 0.46024 0.0
H594 H 0.00742 0.73183 0.4555 0.0
H595 H 0.0216 0.69234 0.49367 0.0
H596 H 0.93502 0.69063 0.34031 0.0
H597 H 0.01049 0.72641 0.3522 0.0
H598 H 0.94939 0.67829 0.37083 0.0
H599 H 0.99509 0.73764 0.32173 0.0
H600 H 0.0794 0.75291 0.41766 0.0
H601 H 0.06598 0.74296 0.34498 0.0
H602 H 0.91764 0.64424 0.45923 0.0
H603 H 0.93251 0.70253 0.42801 0.0
H604 H 0.03237 0.6662 0.33484 0.0
H605 H 0.03282 0.67402 0.40816 0.0
H606 H 0.06593 0.6671 0.33803 0.0
H607 H 0.06625 0.67474 0.41003 0.0
H608 H 0.96791 0.62105 0.35629 0.0
H609 H 0.9279 0.64069 0.38632 0.0
H610 H 0.93841 0.59546 0.33285 0.0
H611 H 0.8991 0.61479 0.3623 0.0
H612 H 0.98812 0.59675 0.44641 0.0
H613 H 0.00411 0.59501 0.37531 0.0
H614 H 0.01098 0.68829 0.28729 0.0
H615 H 0.94427 0.65451 0.29077 0.0
Li616 Li 0.32099 0.01343 0.72771 0.0
Li617 Li 0.30217 0.97851 0.73953 0.0
Li618 Li 0.34075 0.9965 0.73079 0.0
Li619 Li 0.31419 0.98825 0.69962 0.0
C620 C 0.3287 0.01602 0.77176 0.0
N621 N 0.33446 0.04616 0.8031 0.0
C622 C 0.31183 0.0176 0.77943 0.0
C623 C 0.34847 0.02958 0.78017 0.0
C624 C 0.31508 0.03301 0.79523 0.0
C625 C 0.35106 0.04476 0.79599 0.0
C626 C 0.27378 0.97791 0.70936 0.0
C627 C 0.24984 0.94402 0.69455 0.0
N628 N 0.23445 0.9487 0.69534 0.0
C629 C 0.25769 0.98237 0.71001 0.0
C630 C 0.26979 0.95856 0.70158 0.0
C631 C 0.23794 0.96741 0.70285 0.0
C632 C 0.30714 0.04152 0.72213 0.0
N633 N 0.32335 0.04003 0.73032 0.0
C634 C 0.34437 0.0768 0.73182 0.0
C635 C 0.34151 0.05713 0.73602 0.0
C636 C 0.32826 0.07872 0.72199 0.0
C637 C 0.30921 0.06081 0.71794 0.0
H638 H 0.29304 0.02774 0.71733 0.0
H639 H 0.3543 0.05555 0.74217 0.0
C640 C 0.28395 0.94237 0.76604 0.0
N641 N 0.28142 0.95811 0.75831 0.0
C642 C 0.26825 0.92616 0.77846 0.0
C643 C 0.24794 0.94308 0.77535 0.0
C644 C 0.26411 0.95902 0.76314 0.0
C645 C 0.24977 0.9262 0.78292 0.0
H646 H 0.29807 0.94226 0.76221 0.0
H647 H 0.26268 0.97193 0.75709 0.0
C648 C 0.34916 0.03246 0.6948 0.0
N649 N 0.36538 0.07113 0.67496 0.0
C650 C 0.33732 0.03664 0.67946 0.0
C651 C 0.36929 0.048 0.70004 0.0
C652 C 0.34577 0.05628 0.66965 0.0
C653 C 0.37721 0.06742 0.68981 0.0
C654 C 0.31925 0.95286 0.71119 0.0
C655 C 0.33791 0.9563 0.70176 0.0
C656 C 0.30232 0.93276 0.71184 0.0
C657 C 0.33924 0.93966 0.6928 0.0
C658 C 0.30426 0.91653 0.70271 0.0
N659 N 0.32253 0.92028 0.69344 0.0
C660 C 0.36686 0.98714 0.75683 0.0
C661 C 0.38216 0.00775 0.7238 0.0
C662 C 0.38506 0.98694 0.76173 0.0
N663 N 0.3658 0.99742 0.73811 0.0
C664 C 0.40071 0.00821 0.72819 0.0
C665 C 0.40232 0.99753 0.74725 0.0
H666 H 0.35344 0.97883 0.76773 0.0
H667 H 0.38068 0.0153 0.7087 0.0
C668 C 0.29601 0.98673 0.65644 0.0
N669 N 0.30942 0.98238 0.66751 0.0
C670 C 0.29504 0.9864 0.63253 0.0
C671 C 0.32118 0.97639 0.6317 0.0
C672 C 0.32175 0.97708 0.65565 0.0
C673 C 0.3081 0.98166 0.61979 0.0
H674 H 0.28699 0.99179 0.66605 0.0
H675 H 0.33284 0.97448 0.66465 0.0
O676 O 0.32588 0.00119 0.75616 0.0
O677 O 0.29312 0.99233 0.71682 0.0
O678 O 0.34094 0.01342 0.70496 0.0
O679 O 0.31778 0.96891 0.72052 0.0
H680 H 0.29643 0.00716 0.77305 0.0
H681 H 0.36166 0.02848 0.7744 0.0
H682 H 0.30219 0.03452 0.80122 0.0
H683 H 0.36628 0.05546 0.80257 0.0
H684 H 0.24661 0.92902 0.68845 0.0
H685 H 0.26035 0.99715 0.7162 0.0
H686 H 0.28197 0.95487 0.70072 0.0
H687 H 0.22537 0.97066 0.70334 0.0
H688 H 0.35927 0.09029 0.73523 0.0
H689 H 0.29649 0.06162 0.71008 0.0
H690 H 0.27051 0.9137 0.78438 0.0
H691 H 0.23396 0.94372 0.77822 0.0
H692 H 0.3216 0.02502 0.6756 0.0
H693 H 0.37856 0.04529 0.71227 0.0
H694 H 0.33669 0.05975 0.65792 0.0
H695 H 0.3927 0.07961 0.69382 0.0
H696 H 0.35117 0.97169 0.70104 0.0
H697 H 0.28781 0.92968 0.71937 0.0
H698 H 0.35356 0.94215 0.6853 0.0
H699 H 0.29126 0.90093 0.70305 0.0
H700 H 0.38544 0.97823 0.7764 0.0
H701 H 0.41362 0.01688 0.71672 0.0
H702 H 0.28506 0.99103 0.62415 0.0
H703 H 0.33142 0.97251 0.6226 0.0
Li704 Li 0.30674 0.3222 0.0594 0.0
Li705 Li 0.32425 0.30275 0.07063 0.0
Li706 Li 0.3442 0.3408 0.06424 0.0
Li707 Li 0.32816 0.31735 0.03308 0.0
C708 C 0.30985 0.31754 0.10685 0.0
N709 N 0.2838 0.30165 0.14427 0.0
C710 C 0.29235 0.29785 0.10573 0.0
C711 C 0.31407 0.32916 0.12698 0.0
C712 C 0.27939 0.29008 0.12484 0.0
C713 C 0.30071 0.32086 0.14571 0.0
C714 C 0.29511 0.28144 0.03001 0.0
C715 C 0.29759 0.25621 0.00645 0.0
N716 N 0.28146 0.25408 0.99356 0.0
C717 C 0.27844 0.27887 0.01664 0.0
C718 C 0.30468 0.26993 0.02496 0.0
C719 C 0.27182 0.26501 0.99825 0.0
C720 C 0.27692 0.32517 0.0374 0.0
N721 N 0.28234 0.32415 0.05938 0.0
C722 C 0.25278 0.32519 0.07346 0.0
C723 C 0.27095 0.3245 0.07745 0.0
C724 C 0.24652 0.32546 0.05074 0.0
C725 C 0.25908 0.32583 0.03266 0.0
H726 H 0.28645 0.32524 0.02346 0.0
H727 H 0.27576 0.32409 0.09484 0.0
C728 C 0.33776 0.28568 0.10477 0.0
N729 N 0.32294 0.28102 0.08863 0.0
C730 C 0.33782 0.26998 0.11772 0.0
C731 C 0.30727 0.24506 0.09728 0.0
C732 C 0.30767 0.26125 0.08493 0.0
C733 C 0.32257 0.24927 0.11387 0.0
H734 H 0.34962 0.3016 0.10741 0.0
H735 H 0.29592 0.25802 0.07219 0.0
C736 C 0.32818 0.36147 0.04117 0.0
N737 N 0.32857 0.39852 0.04526 0.0
C738 C 0.33117 0.37369 0.02179 0.0
C739 C 0.32541 0.36811 0.06265 0.0
C740 C 0.33131 0.39236 0.02421 0.0
C741 C 0.32566 0.38688 0.06435 0.0
C742 C 0.36365 0.31608 0.04094 0.0
C743 C 0.37807 0.33179 0.0268 0.0
C744 C 0.36335 0.29726 0.04231 0.0
C745 C 0.39181 0.32828 0.01395 0.0
C746 C 0.37736 0.29436 0.0292 0.0
N747 N 0.39116 0.30979 0.01539 0.0
C748 C 0.37463 0.37051 0.09452 0.0
C749 C 0.37832 0.37899 0.0549 0.0
C750 C 0.39284 0.38892 0.09954 0.0
N751 N 0.36791 0.36593 0.07246 0.0
C752 C 0.3965 0.39747 0.0591 0.0
C753 C 0.40414 0.40255 0.08162 0.0
H754 H 0.36602 0.35973 0.10811 0.0
H755 H 0.37254 0.37493 0.03754 0.0
C756 C 0.31977 0.32262 0.98907 0.0
N757 N 0.32976 0.31436 0.00051 0.0
C758 C 0.31895 0.32229 0.96525 0.0
C759 C 0.33864 0.30468 0.96493 0.0
C760 C 0.33884 0.30513 0.989 0.0
C761 C 0.32878 0.3136 0.95275 0.0
H762 H 0.31227 0.32945 0.99852 0.0
H763 H 0.34616 0.29804 0.99833 0.0
O764 O 0.32285 0.32555 0.08845 0.0
O765 O 0.30216 0.29529 0.04778 0.0
O766 O 0.32803 0.34315 0.03893 0.0
O767 O 0.35025 0.31928 0.05389 0.0
H768 H 0.28871 0.28869 0.09025 0.0
H769 H 0.32754 0.34445 0.12808 0.0
H770 H 0.2658 0.27487 0.12422 0.0
H771 H 0.30378 0.32969 0.16139 0.0
H772 H 0.30497 0.24733 0.00226 0.0
H773 H 0.27065 0.28741 0.02042 0.0
H774 H 0.31765 0.27178 0.03505 0.0
H775 H 0.25899 0.26294 0.98771 0.0
H776 H 0.24354 0.32506 0.08786 0.0
H777 H 0.25514 0.3266 0.01492 0.0
H778 H 0.3497 0.27405 0.13059 0.0
H779 H 0.29536 0.22939 0.09343 0.0
H780 H 0.3334 0.36882 0.00505 0.0
H781 H 0.32309 0.35893 0.07788 0.0
H782 H 0.33361 0.40197 0.00935 0.0
H783 H 0.32352 0.39219 0.08086 0.0
H784 H 0.37852 0.34646 0.02559 0.0
H785 H 0.35245 0.28503 0.0534 0.0
H786 H 0.40298 0.34025 0.00281 0.0
H787 H 0.37727 0.27985 0.03002 0.0
H788 H 0.39827 0.3922 0.11711 0.0
H789 H 0.40451 0.40768 0.04484 0.0
H790 H 0.31053 0.32872 0.95675 0.0
H791 H 0.34634 0.2977 0.95602 0.0
Li792 Li 0.01997 0.32389 0.40783 0.0
Li793 Li 0.98474 0.30516 0.39585 0.0
Li794 Li 0.00973 0.3254 0.36804 0.0
Li795 Li -0.00058 0.34188 0.39924 0.0
C796 C 0.02242 0.2966 0.37838 0.0
N797 N 0.05278 0.2875 0.36633 0.0
C798 C 0.01836 0.27619 0.37906 0.0
C799 C 0.04197 0.31237 0.37173 0.0
C800 C 0.03389 0.27191 0.37285 0.0
C801 C 0.0571 0.30747 0.36565 0.0
C802 C 0.98201 0.31037 0.44064 0.0
C803 C 0.95446 0.30368 0.46696 0.0
N804 N 0.9538 0.28591 0.47362 0.0
C805 C 0.98121 0.29215 0.44786 0.0
C806 C 0.96865 0.3163 0.45032 0.0
C807 C 0.96677 0.27994 0.46451 0.0
C808 C 0.0578 0.34348 0.43168 0.0
N809 N 0.04123 0.32485 0.42632 0.0
C810 C 0.0566 0.30715 0.44443 0.0
C811 C 0.04016 0.30686 0.43276 0.0
C812 C 0.07427 0.32617 0.44957 0.0
C813 C 0.07461 0.34451 0.44334 0.0
H814 H 0.05811 0.35753 0.42649 0.0
H815 H 0.02675 0.29226 0.42827 0.0
C816 C 0.95903 0.26447 0.38381 0.0
N817 N 0.9593 0.27942 0.3973 0.0
C818 C 0.94042 0.24689 0.37832 0.0
C819 C 0.92262 0.25969 0.40191 0.0
C820 C 0.94167 0.27715 0.40689 0.0
C821 C 0.92179 0.24461 0.3868 0.0
H822 H 0.9731 0.26695 0.37574 0.0
H823 H 0.94211 0.28953 0.41687 0.0
C824 C 0.04189 0.36647 0.37756 0.0
N825 N 0.07026 0.40228 0.35538 0.0
C826 C 0.03565 0.37957 0.36781 0.0
C827 C 0.06266 0.37177 0.37628 0.0
C828 C 0.05019 0.39754 0.35659 0.0
C829 C 0.07674 0.38988 0.36492 0.0
C830 C 0.9643 0.31222 0.36338 0.0
C831 C 0.96227 0.29917 0.34511 0.0
C832 C 0.94676 0.31223 0.37179 0.0
C833 C 0.94276 0.28634 0.33561 0.0
C834 C 0.92753 0.2992 0.36178 0.0
N835 N 0.92594 0.28662 0.34407 0.0
C836 C 0.01702 0.3123 0.32431 0.0
C837 C 0.01465 0.34275 0.32437 0.0
C838 C 0.01715 0.3121 0.30035 0.0
N839 N 0.01568 0.32745 0.33584 0.0
C840 C 0.01476 0.34316 0.30043 0.0
C841 C 0.0155 0.3274 0.28811 0.0
H842 H 0.01655 0.29954 0.33348 0.0
H843 H 0.01243 0.35393 0.33375 0.0
C844 C 0.01026 0.3794 0.42154 0.0
N845 N 0.99666 0.36506 0.40663 0.0
C846 C 0.00986 0.39765 0.42552 0.0
C847 C 0.98107 0.38563 0.39924 0.0
C848 C 0.98224 0.36782 0.39553 0.0
C849 C 0.99523 0.40106 0.41411 0.0
H850 H 0.02182 0.37692 0.42978 0.0
H851 H 0.97202 0.35647 0.38328 0.0
O852 O 0.00757 0.30109 0.38522 0.0
O853 O 0.99602 0.32254 0.4244 0.0
O854 O 0.02793 0.34895 0.38896 0.0
O855 O 0.98323 0.32451 0.3733 0.0
H856 H 0.00343 0.26381 0.38454 0.0
H857 H 0.04536 0.32817 0.37108 0.0
H858 H 0.03096 0.25619 0.37331 0.0
H859 H 0.07228 0.31954 0.36039 0.0
H860 H 0.94395 0.308 0.47455 0.0
H861 H 0.9915 0.28741 0.44051 0.0
H862 H 0.96919 0.33043 0.44493 0.0
H863 H 0.96586 0.26572 0.47017 0.0
H864 H 0.05577 0.29264 0.44868 0.0
H865 H 0.08779 0.35949 0.44727 0.0
H866 H 0.94059 0.23599 0.36619 0.0
H867 H 0.90865 0.25853 0.4089 0.0
H868 H 0.01969 0.3758 0.3686 0.0
H869 H 0.06794 0.36208 0.38405 0.0
H870 H 0.0455 0.40772 0.34884 0.0
H871 H 0.09283 0.39412 0.36376 0.0
H872 H 0.9755 0.2986 0.3386 0.0
H873 H 0.94785 0.32174 0.3863 0.0
H874 H 0.94098 0.27607 0.3216 0.0
H875 H 0.91383 0.29893 0.36826 0.0
H876 H 0.0172 0.29935 0.29155 0.0
H877 H 0.01345 0.35524 0.29167 0.0
H878 H 0.02131 0.4092 0.43682 0.0
H879 H 0.96932 0.38735 0.3903 0.0
Li880 Li 0.69547 0.01965 0.73944 0.0
Li881 Li 0.67263 0.98258 0.72846 0.0
Li882 Li 0.68127 0.00944 0.70166 0.0
Li883 Li 0.65746 0.00499 0.73184 0.0
C884 C 0.71469 0.00704 0.70052 0.0
N885 N 0.74212 0.01609 0.66468 0.0
C886 C 0.71412 0.9911 0.6874 0.0
C887 C 0.72929 0.02757 0.69555 0.0
C888 C 0.7281 0.996 0.66931 0.0
C889 C 0.74301 0.03183 0.67732 0.0
C890 C 0.67338 0.98904 0.77642 0.0
C891 C 0.65979 0.97032 0.81181 0.0
N892 N 0.67865 0.97269 0.8167 0.0
C893 C 0.69263 0.99128 0.78176 0.0
C894 C 0.65682 0.97851 0.79155 0.0
C895 C 0.69499 0.98292 0.80223 0.0
C896 C 0.71535 0.05338 0.76911 0.0
N897 N 0.71794 0.03923 0.75716 0.0
C898 C 0.75326 0.05508 0.76871 0.0
C899 C 0.73633 0.03966 0.75685 0.0
C900 C 0.75123 0.07023 0.78086 0.0
C901 C 0.73188 0.06912 0.78114 0.0
H902 H 0.70054 0.0527 0.76881 0.0
H903 H 0.73789 0.02816 0.74719 0.0
C904 C 0.66117 0.94563 0.70836 0.0
N905 N 0.66745 0.95484 0.72922 0.0
C906 C 0.6575 0.92572 0.70476 0.0
C907 C 0.66734 0.92492 0.74412 0.0
C908 C 0.67044 0.94489 0.74712 0.0
C909 C 0.66078 0.91519 0.72266 0.0
H910 H 0.65946 0.95398 0.69423 0.0
H911 H 0.67563 0.95247 0.7635 0.0
C912 C 0.68611 0.04811 0.7081 0.0
N913 N 0.69556 0.0825 0.68181 0.0
C914 C 0.67099 0.0484 0.69424 0.0
C915 C 0.70599 0.06534 0.70875 0.0
C916 C 0.6761 0.06592 0.68101 0.0
C917 C 0.71047 0.08258 0.6953 0.0
C918 C 0.6341 0.96897 0.70843 0.0
C919 C 0.62211 0.96134 0.68859 0.0
C920 C 0.62596 0.95957 0.7296 0.0
C921 C 0.60212 0.94441 0.69025 0.0
C922 C 0.60591 0.94268 0.73054 0.0
N923 N 0.5945 0.93551 0.71102 0.0
C924 C 0.67729 0.99495 0.65818 0.0
C925 C 0.69592 0.03152 0.65739 0.0
C926 C 0.67843 0.99405 0.63444 0.0
N927 N 0.68572 0.01342 0.6692 0.0
C928 C 0.69705 0.03136 0.63339 0.0
C929 C 0.68798 0.01239 0.62156 0.0
H930 H 0.66973 0.98081 0.66796 0.0
H931 H 0.70313 0.04606 0.66639 0.0
C932 C 0.62936 0.00901 0.76151 0.0
N933 N 0.63359 0.00629 0.73951 0.0
C934 C 0.61132 0.00952 0.76654 0.0
C935 C 0.60245 0.00426 0.7262 0.0
C936 C 0.62065 0.00402 0.72197 0.0
C937 C 0.59758 0.00713 0.74872 0.0
H938 H 0.64001 0.0108 0.7751 0.0
H939 H 0.62441 0.00182 0.70465 0.0
O940 O 0.70082 0.00261 0.71793 0.0
O941 O 0.67074 0.99733 0.75665 0.0
O942 O 0.68136 0.03126 0.72144 0.0
O943 O 0.65369 0.9856 0.70696 0.0
H944 H 0.7029 0.97514 0.69105 0.0
H945 H 0.72984 0.04008 0.70547 0.0
H946 H 0.72777 0.98384 0.65893 0.0
H947 H 0.7543 0.04765 0.67317 0.0
H948 H 0.6471 0.96211 0.82367 0.0
H949 H 0.70549 0.99906 0.77007 0.0
H950 H 0.64183 0.97671 0.78768 0.0
H951 H 0.70978 0.98446 0.80655 0.0
H952 H 0.7678 0.05518 0.76829 0.0
H953 H 0.72967 0.08062 0.78996 0.0
H954 H 0.65295 0.91895 0.68781 0.0
H955 H 0.67019 0.91725 0.75825 0.0
H956 H 0.65554 0.03519 0.69358 0.0
H957 H 0.71785 0.0654 0.71948 0.0
H958 H 0.66459 0.06633 0.67011 0.0
H959 H 0.7258 0.09601 0.69557 0.0
H960 H 0.62819 0.96846 0.67208 0.0
H961 H 0.635 0.96521 0.74512 0.0
H962 H 0.59266 0.93835 0.67503 0.0
H963 H 0.59941 0.93526 0.74681 0.0
H964 H 0.67186 0.97904 0.62632 0.0
H965 H 0.7046 0.04593 0.62425 0.0
H966 H 0.60829 0.01196 0.78411 0.0
H967 H 0.59217 0.00192 0.71198 0.0
Li968 Li 0.67338 0.69604 0.07231 0.0
Li969 Li 0.68953 0.67514 0.06167 0.0
Li970 Li 0.66815 0.67961 0.03514 0.0
Li971 Li 0.65242 0.65706 0.06764 0.0
C972 C 0.70535 0.71332 0.03045 0.0
N973 N 0.72638 0.73607 0.9922 0.0
C974 C 0.72187 0.71175 0.02147 0.0
C975 C 0.69971 0.72668 0.02011 0.0
C976 C 0.73227 0.72334 0.00211 0.0
C977 C 0.71047 0.73797 0.00074 0.0
C978 C 0.68597 0.67137 0.10688 0.0
C979 C 0.69818 0.65066 0.12546 0.0
N980 N 0.71055 0.66697 0.13917 0.0
C981 C 0.69874 0.68792 0.12117 0.0
C982 C 0.68558 0.65256 0.10907 0.0
C983 C 0.71107 0.68538 0.1374 0.0
C984 C 0.66351 0.71495 0.10801 0.0
N985 N 0.6758 0.71871 0.08933 0.0
C986 C 0.6895 0.75508 0.09315 0.0
C987 C 0.68893 0.73827 0.08201 0.0
C988 C 0.67668 0.75166 0.11221 0.0
C989 C 0.66382 0.73134 0.11991 0.0
H990 H 0.65319 0.69919 0.11336 0.0
H991 H 0.69861 0.74079 0.06718 0.0
C992 C 0.71392 0.65905 0.04823 0.0
N993 N 0.71372 0.67286 0.06321 0.0
C994 C 0.73173 0.65787 0.04507 0.0
C995 C 0.74897 0.68495 0.07325 0.0
C996 C 0.7307 0.68566 0.07581 0.0
C997 C 0.74972 0.67114 0.05737 0.0
H998 H 0.70055 0.6497 0.03776 0.0
H999 H 0.73035 0.69696 0.0871 0.0
C1000 C 0.63444 0.6856 0.04636 0.0
N1001 N 0.60955 0.69932 0.02732 0.0
C1002 C 0.61419 0.67144 0.03972 0.0
C1003 C 0.64189 0.70675 0.04359 0.0
C1004 C 0.60189 0.67868 0.03004 0.0
C1005 C 0.6291 0.71338 0.03386 0.0
C1006 C 0.65383 0.63731 0.02909 0.0
C1007 C 0.63649 0.6374 0.02025 0.0
C1008 C 0.65642 0.6203 0.0249 0.0
C1009 C 0.62217 0.62065 0.0072 0.0
C1010 C 0.64174 0.60382 0.01179 0.0
N1011 N 0.62507 0.60434 0.00327 0.0
C1012 C 0.68026 0.67822 0.99142 0.0
C1013 C 0.65429 0.68762 0.99084 0.0
C1014 C 0.68205 0.67975 0.96765 0.0
N1015 N 0.66678 0.68239 0.00257 0.0
C1016 C 0.65526 0.68891 0.96685 0.0
C1017 C 0.66944 0.68512 0.9551 0.0
H1018 H 0.68974 0.67376 0.00114 0.0
H1019 H 0.64354 0.6907 -8e-05 0.0
C1020 C 0.61153 0.63221 0.08381 0.0
N1021 N 0.6293 0.63244 0.07824 0.0
C1022 C 0.59371 0.61355 0.08899 0.0
C1023 C 0.61312 0.59593 0.08338 0.0
C1024 C 0.63055 0.61491 0.07845 0.0
C1025 C 0.5943 0.59505 0.0883 0.0
H1026 H 0.61105 0.64644 0.08356 0.0
H1027 H 0.64494 0.6156 0.0741 0.0
O1028 O 0.69471 0.70177 0.04916 0.0
O1029 O 0.67392 0.6736 0.09079 0.0
O1030 O 0.64663 0.67877 0.05609 0.0
O1031 O 0.66791 0.65342 0.04233 0.0
H1032 H 0.72653 0.70158 0.02921 0.0
H1033 H 0.68699 0.72811 0.02673 0.0
H1034 H 0.74499 0.72216 0.99491 0.0
H1035 H 0.70613 0.74821 0.99246 0.0
H1036 H 0.69814 0.63623 0.12727 0.0
H1037 H 0.69918 0.70257 0.11966 0.0
H1038 H 0.67581 0.63964 0.09805 0.0
H1039 H 0.72108 0.69806 0.14855 0.0
H1040 H 0.69976 0.77057 0.08688 0.0
H1041 H 0.65364 0.72813 0.13448 0.0
H1042 H 0.73167 0.64742 0.03214 0.0
H1043 H 0.76248 0.69548 0.08309 0.0
H1044 H 0.608 0.65501 0.04199 0.0
H1045 H 0.65736 0.71794 0.04882 0.0
H1046 H 0.58625 0.66788 0.02473 0.0
H1047 H 0.63473 0.72971 0.03154 0.0
H1048 H 0.63409 0.65025 0.02338 0.0
H1049 H 0.66946 0.61963 0.03194 0.0
H1050 H 0.60873 0.62061 0.00023 0.0
H1051 H 0.64357 0.59058 0.00847 0.0
H1052 H 0.69292 0.67639 0.95911 0.0
H1053 H 0.64523 0.69299 0.95759 0.0
H1054 H 0.57946 0.6135 0.09256 0.0
H1055 H 0.61427 0.58204 0.08298 0.0
H1056 H 0.35727 0.11557 0.21433 0.0
H1057 H 0.35712 0.14485 0.19642 0.0
H1058 H 0.29294 0.106 0.17829 0.0
H1059 H 0.2935 0.07614 0.19407 0.0
H1060 H 0.31031 0.13046 0.14538 0.0
H1061 H 0.31073 0.14093 0.22643 0.0
H1062 H 0.32311 0.14421 0.26631 0.0
H1063 H 0.38128 0.19661 0.24721 0.0
H1064 H 0.36934 0.19347 0.20713 0.0
H1065 H 0.28956 0.21298 0.12927 0.0
H1066 H 0.29027 0.18376 0.14716 0.0
H1067 H 0.35685 0.21752 0.1458 0.0
H1068 H 0.3564 0.24651 0.12698 0.0
H1069 H 0.33794 0.19618 0.1888 0.0
H1070 H 0.3351 0.18418 0.10665 0.0
H1071 H 0.32006 0.18057 0.06806 0.0
H1072 H 0.26246 0.13004 0.09177 0.0
H1073 H 0.27708 0.13357 0.13062 0.0
C1074 C 0.34321 0.11302 0.20609 0.0
C1075 C 0.32534 0.09332 0.20588 0.0
C1076 C 0.34305 0.12997 0.19621 0.0
C1077 C 0.32486 0.12783 0.18655 0.0
C1078 C 0.30714 0.10815 0.18583 0.0
C1079 C 0.30742 0.09108 0.19519 0.0
C1080 C 0.32428 0.14606 0.17717 0.0
C1081 C 0.3161 0.14469 0.15508 0.0
C1082 C 0.33203 0.16482 0.18961 0.0
C1083 C 0.3392 0.16684 0.21374 0.0
C1084 C 0.32621 0.15307 0.23071 0.0
C1085 C 0.33314 0.15492 0.25335 0.0
C1086 C 0.35299 0.17058 0.25928 0.0
C1087 C 0.36592 0.18447 0.24259 0.0
C1088 C 0.35907 0.18268 0.21991 0.0
C1089 C 0.30439 0.2142 0.13257 0.0
C1090 C 0.32293 0.23211 0.12645 0.0
C1091 C 0.30474 0.19753 0.14296 0.0
C1092 C 0.32361 0.19851 0.14764 0.0
C1093 C 0.34214 0.21655 0.14236 0.0
C1094 C 0.34182 0.23315 0.13171 0.0
C1095 C 0.324 0.18039 0.15725 0.0
C1096 C 0.33213 0.18185 0.17929 0.0
C1097 C 0.31581 0.16159 0.14501 0.0
C1098 C 0.30712 0.15927 0.12158 0.0
C1099 C 0.31918 0.1724 0.10368 0.0
C1100 C 0.31074 0.17035 0.08175 0.0
C1101 C 0.2903 0.15511 0.07748 0.0
C1102 C 0.27828 0.14185 0.09511 0.0
C1103 C 0.28664 0.14386 0.11708 0.0
H1104 H 0.28379 0.15355 0.0605 0.0
H1105 H 0.35833 0.17197 0.27682 0.0
H1106 H 0.24035 0.35536 0.55015 0.0
H1107 H 0.21078 0.35571 0.53302 0.0
H1108 H 0.19269 0.29754 0.49968 0.0
H1109 H 0.223 0.2977 0.51556 0.0
H1110 H 0.1867 0.32112 0.4717 0.0
H1111 H 0.16942 0.30062 0.55018 0.0
H1112 H 0.17437 0.30362 0.59217 0.0
H1113 H 0.17358 0.36069 0.5915 0.0
H1114 H 0.1689 0.35818 0.54945 0.0
H1115 H 0.07488 0.30211 0.48473 0.0
H1116 H 0.10496 0.30172 0.50077 0.0
H1117 H 0.14497 0.35149 0.45545 0.0
H1118 H 0.11498 0.35153 0.43883 0.0
H1119 H 0.1386 0.32983 0.5231 0.0
H1120 H 0.18414 0.34394 0.43792 0.0
H1121 H 0.17703 0.33701 0.39651 0.0
H1122 H 0.11717 0.28532 0.41175 0.0
H1123 H 0.12404 0.29175 0.45322 0.0
C1124 C 0.23037 0.34283 0.53879 0.0
C1125 C 0.23406 0.32644 0.53436 0.0
C1126 C 0.21327 0.34292 0.52926 0.0
C1127 C 0.19926 0.32644 0.51545 0.0
C1128 C 0.20321 0.31036 0.51042 0.0
C1129 C 0.22045 0.31037 0.51972 0.0
C1130 C 0.18031 0.32576 0.50661 0.0
C1131 C 0.17621 0.32306 0.48295 0.0
C1132 C 0.16635 0.32783 0.52133 0.0
C1133 C 0.16899 0.3293 0.54664 0.0
C1134 C 0.17043 0.31388 0.55897 0.0
C1135 C 0.17318 0.31548 0.58278 0.0
C1136 C 0.17434 0.33235 0.59449 0.0
C1137 C 0.1727 0.34764 0.58241 0.0
C1138 C 0.16998 0.34612 0.55859 0.0
C1139 C 0.09008 0.31291 0.47812 0.0
C1140 C 0.09254 0.32678 0.46043 0.0
C1141 C 0.10725 0.31278 0.48742 0.0
C1142 C 0.12716 0.32642 0.47912 0.0
C1143 C 0.12971 0.34065 0.4619 0.0
C1144 C 0.11257 0.34079 0.45258 0.0
C1145 C 0.14524 0.32555 0.4882 0.0
C1146 C 0.14914 0.32796 0.51188 0.0
C1147 C 0.15871 0.32264 0.47359 0.0
C1148 C 0.15454 0.31849 0.44867 0.0
C1149 C 0.1695 0.33106 0.43243 0.0
C1150 C 0.1655 0.32722 0.40895 0.0
C1151 C 0.14663 0.31078 0.4015 0.0
C1152 C 0.13175 0.2981 0.41753 0.0
C1153 C 0.13568 0.30185 0.44103 0.0
H1154 H 0.14357 0.30785 0.38332 0.0
H1155 H 0.17647 0.33357 0.61293 0.0
H1156 H 0.79109 0.09194 0.76532 0.0
H1157 H 0.82049 0.12139 0.78355 0.0
H1158 H 0.78174 0.11758 0.84043 0.0
H1159 H 0.75227 0.08788 0.82247 0.0
H1160 H 0.80432 0.15668 0.82459 0.0
H1161 H 0.81674 0.10238 0.84714 0.0
H1162 H 0.82139 0.07223 0.84179 0.0
H1163 H 0.8742 0.10829 0.79889 0.0
H1164 H 0.86967 0.13861 0.80371 0.0
H1165 H 0.88323 0.22132 0.90309 0.0
H1166 H 0.85501 0.19116 0.88456 0.0
H1167 H 0.89228 0.2026 0.82392 0.0
H1168 H 0.9204 0.23353 0.84182 0.0
H1169 H 0.87104 0.15996 0.84125 0.0
H1170 H 0.858 0.21439 0.81929 0.0
H1171 H 0.85323 0.24431 0.82603 0.0
H1172 H 0.80119 0.20731 0.86957 0.0
H1173 H 0.80586 0.17722 0.86336 0.0
C1174 C 0.78887 0.09711 0.7819 0.0
C1175 C 0.76931 0.08753 0.79246 0.0
C1176 C 0.80569 0.114 0.79226 0.0
C1177 C 0.80331 0.12158 0.8134 0.0
C1178 C 0.78388 0.11198 0.82407 0.0
C1179 C 0.76705 0.09507 0.81375 0.0
C1180 C 0.82094 0.13999 0.82396 0.0
C1181 C 0.81881 0.15728 0.82851 0.0
C1182 C 0.83999 0.14092 0.82859 0.0
C1183 C 0.84272 0.12271 0.82558 0.0
C1184 C 0.82922 0.10384 0.83638 0.0
C1185 C 0.83186 0.08672 0.83349 0.0
C1186 C 0.84804 0.08833 0.81996 0.0
C1187 C 0.86165 0.10707 0.80933 0.0
C1188 C 0.85906 0.12422 0.81216 0.0
C1189 C 0.8854 0.21774 0.88566 0.0
C1190 C 0.90411 0.23008 0.87391 0.0
C1191 C 0.86928 0.20035 0.8752 0.0
C1192 C 0.8716 0.19477 0.8529 0.0
C1193 C 0.89029 0.2067 0.8412 0.0
C1194 C 0.90636 0.22431 0.85152 0.0
C1195 C 0.85433 0.1765 0.84185 0.0
C1196 C 0.85654 0.15929 0.83724 0.0
C1197 C 0.8353 0.17556 0.8373 0.0
C1198 C 0.83242 0.19361 0.84105 0.0
C1199 C 0.84567 0.21268 0.83048 0.0
C1200 C 0.84295 0.22966 0.83417 0.0
C1201 C 0.82695 0.22773 0.84827 0.0
C1202 C 0.8136 0.20879 0.85867 0.0
C1203 C 0.81626 0.19176 0.85506 0.0
H1204 H 0.82487 0.24089 0.8511 0.0
H1205 H 0.85007 0.07506 0.81775 0.0
H1206 H 0.67977 0.76064 0.158 0.0
H1207 H 0.67893 0.78968 0.17642 0.0
H1208 H 0.67084 0.81061 0.11014 0.0
H1209 H 0.67248 0.78207 0.0917 0.0
H1210 H 0.69674 0.84212 0.13308 0.0
H1211 H 0.63018 0.78453 0.15019 0.0
H1212 H 0.60513 0.7498 0.16459 0.0
H1213 H 0.63053 0.76728 0.23244 0.0
H1214 H 0.65593 0.80204 0.21837 0.0
H1215 H 0.65795 0.90655 0.17642 0.0
H1216 H 0.6581 0.87672 0.15875 0.0
H1217 H 0.68831 0.87033 0.21873 0.0
H1218 H 0.6887 0.90045 0.23617 0.0
H1219 H 0.65082 0.83178 0.19939 0.0
H1220 H 0.71793 0.89002 0.17994 0.0
H1221 H 0.74103 0.92475 0.16415 0.0
H1222 H 0.71137 0.90534 0.09845 0.0
H1223 H 0.68785 0.87056 0.11398 0.0
C1224 C 0.67778 0.77146 0.14744 0.0
C1225 C 0.6762 0.76917 0.12347 0.0
C1226 C 0.6772 0.78798 0.15795 0.0
C1227 C 0.67448 0.8022 0.14472 0.0
C1228 C 0.67298 0.7999 0.12073 0.0
C1229 C 0.67392 0.78361 0.1102 0.0
C1230 C 0.67353 0.81964 0.15575 0.0
C1231 C 0.68647 0.83974 0.14737 0.0
C1232 C 0.66035 0.8167 0.17464 0.0
C1233 C 0.64509 0.79582 0.18317 0.0
C1234 C 0.63053 0.78092 0.16814 0.0
C1235 C 0.61625 0.76124 0.17625 0.0
C1236 C 0.61628 0.75632 0.1994 0.0
C1237 C 0.63055 0.7711 0.21451 0.0
C1238 C 0.64488 0.7908 0.20648 0.0
C1239 C 0.66453 0.89868 0.18579 0.0
C1240 C 0.67339 0.90573 0.20755 0.0
C1241 C 0.66464 0.88175 0.17573 0.0
C1242 C 0.67323 0.87144 0.18749 0.0
C1243 C 0.6816 0.87813 0.20946 0.0
C1244 C 0.6819 0.89532 0.21931 0.0
C1245 C 0.67395 0.85395 0.17663 0.0
C1246 C 0.661 0.83396 0.18506 0.0
C1247 C 0.68681 0.85691 0.15756 0.0
C1248 C 0.70098 0.87778 0.14819 0.0
C1249 C 0.71619 0.89322 0.16219 0.0
C1250 C 0.72939 0.9129 0.15328 0.0
C1251 C 0.72762 0.91727 0.13033 0.0
C1252 C 0.71269 0.90195 0.11623 0.0
C1253 C 0.69943 0.88225 0.12508 0.0
H1254 H 0.73787 0.93252 0.12345 0.0
H1255 H 0.60521 0.74108 0.20565 0.0
H1256 H 0.89124 0.67482 0.42405 0.0
H1257 H 0.86114 0.67378 0.44192 0.0
H1258 H 0.88375 0.66965 0.50885 0.0
H1259 H 0.91338 0.66959 0.49073 0.0
H1260 H 0.84467 0.64568 0.50841 0.0
H1261 H 0.88825 0.71597 0.48664 0.0
H1262 H 0.90987 0.74519 0.46099 0.0
H1263 H 0.85743 0.72912 0.41774 0.0
H1264 H 0.83554 0.69962 0.44297 0.0
H1265 H 0.78667 0.6841 0.56927 0.0
H1266 H 0.8155 0.68265 0.55096 0.0
H1267 H 0.78039 0.66102 0.48824 0.0
H1268 H 0.75123 0.66193 0.50671 0.0
H1269 H 0.82529 0.69808 0.48706 0.0
H1270 H 0.78222 0.62696 0.51206 0.0
H1271 H 0.76227 0.6002 0.541 0.0
H1272 H 0.81675 0.62167 0.58243 0.0
H1273 H 0.83696 0.64879 0.55387 0.0
C1274 C 0.88971 0.67368 0.44257 0.0
C1275 C 0.90459 0.67245 0.4561 0.0
C1276 C 0.8726 0.6732 0.45279 0.0
C1277 C 0.87039 0.67214 0.4768 0.0
C1278 C 0.88514 0.67056 0.49031 0.0
C1279 C 0.90205 0.67057 0.48002 0.0
C1280 C 0.85267 0.67262 0.48773 0.0
C1281 C 0.84064 0.65731 0.50389 0.0
C1282 C 0.84721 0.68769 0.48178 0.0
C1283 C 0.8603 0.70546 0.46659 0.0
C1284 C 0.88136 0.71858 0.47157 0.0
C1285 C 0.89366 0.7352 0.45712 0.0
C1286 C 0.88504 0.73898 0.43772 0.0
C1287 C 0.86409 0.72616 0.43276 0.0
C1288 C 0.85172 0.70949 0.44714 0.0
C1289 C 0.78516 0.67906 0.55157 0.0
C1290 C 0.76686 0.67316 0.5393 0.0
C1291 C 0.80154 0.67818 0.54121 0.0
C1292 C 0.79995 0.67171 0.51834 0.0
C1293 C 0.78179 0.66603 0.50594 0.0
C1294 C 0.76521 0.66649 0.51646 0.0
C1295 C 0.81743 0.67111 0.50738 0.0
C1296 C 0.82941 0.68647 0.49138 0.0
C1297 C 0.82314 0.65644 0.51388 0.0
C1298 C 0.81104 0.64004 0.53095 0.0
C1299 C 0.7899 0.62611 0.52744 0.0
C1300 C 0.77855 0.61084 0.54376 0.0
C1301 C 0.78822 0.60927 0.56358 0.0
C1302 C 0.80928 0.62292 0.56709 0.0
C1303 C 0.82068 0.63823 0.55083 0.0
H1304 H 0.77941 0.59744 0.57619 0.0
H1305 H 0.89459 0.75186 0.42655 0.0
H1306 H 0.22292 0.92697 0.81454 0.0
H1307 H 0.19309 0.8975 0.83216 0.0
H1308 H 0.20754 0.85581 0.79618 0.0
H1309 H 0.2367 0.8851 0.77756 0.0
H1310 H 0.16784 0.84244 0.79347 0.0
H1311 H 0.21787 0.86659 0.85424 0.0
H1312 H 0.24329 0.89207 0.88119 0.0
H1313 H 0.19625 0.90204 0.91048 0.0
H1314 H 0.17059 0.8768 0.88348 0.0
H1315 H 0.10853 0.75209 0.86138 0.0
H1316 H 0.1373 0.78271 0.84351 0.0
H1317 H 0.11335 0.82049 0.87006 0.0
H1318 H 0.08443 0.78988 0.88776 0.0
H1319 H 0.15685 0.83619 0.87781 0.0
H1320 H 0.1067 0.81073 0.81705 0.0
H1321 H 0.0817 0.78445 0.79045 0.0
H1322 H 0.12989 0.77607 0.76157 0.0
H1323 H 0.15514 0.80209 0.78826 0.0
C1324 C 0.21968 0.91153 0.81025 0.0
C1325 C 0.23225 0.90842 0.79466 0.0
C1326 C 0.20274 0.8947 0.82054 0.0
C1327 C 0.19822 0.87446 0.8157 0.0
C1328 C 0.21077 0.87131 0.80022 0.0
C1329 C 0.2276 0.8881 0.78979 0.0
C1330 C 0.18016 0.85649 0.82635 0.0
C1331 C 0.1656 0.84097 0.81193 0.0
C1332 C 0.17697 0.85479 0.85042 0.0
C1333 C 0.19236 0.86997 0.86668 0.0
C1334 C 0.21298 0.87434 0.8663 0.0
C1335 C 0.22743 0.88872 0.88161 0.0
C1336 C 0.2214 0.89871 0.89749 0.0
C1337 C 0.2009 0.89431 0.89814 0.0
C1338 C 0.18639 0.87996 0.88285 0.0
C1339 C 0.10944 0.76694 0.86335 0.0
C1340 C 0.09431 0.7687 0.87584 0.0
C1341 C 0.12577 0.78434 0.85311 0.0
C1342 C 0.12732 0.80376 0.85545 0.0
C1343 C 0.11234 0.80559 0.86807 0.0
C1344 C 0.09583 0.78814 0.87802 0.0
C1345 C 0.14479 0.8222 0.84491 0.0
C1346 C 0.15916 0.83777 0.85935 0.0
C1347 C 0.14792 0.82386 0.8209 0.0
C1348 C 0.13277 0.8082 0.80483 0.0
C1349 C 0.11194 0.80314 0.80519 0.0
C1350 C 0.09772 0.78832 0.79006 0.0
C1351 C 0.10419 0.77856 0.77437 0.0
C1352 C 0.1249 0.78363 0.77375 0.0
C1353 C 0.13917 0.79842 0.78886 0.0
H1354 H 0.09316 0.76709 0.76266 0.0
H1355 H 0.23261 0.90984 0.90934 0.0
H1356 H 0.41209 0.9711 0.2369 0.0
H1357 H 0.44477 0.97129 0.23269 0.0
H1358 H 0.47831 0.03746 0.24214 0.0
H1359 H 0.44556 0.03736 0.24551 0.0
H1360 H 0.49728 0.02734 0.21142 0.0
H1361 H 0.47027 0.0032 0.28685 0.0
H1362 H 0.44411 0.98107 0.31537 0.0
H1363 H 0.44322 0.92752 0.28719 0.0
H1364 H 0.46918 0.94932 0.25828 0.0
H1365 H 0.59216 0.03703 0.25117 0.0
H1366 H 0.55952 0.03691 0.24703 0.0
H1367 H 0.52845 0.97199 0.23029 0.0
H1368 H 0.56097 0.97191 0.23483 0.0
H1369 H 0.50824 0.98106 0.26343 0.0
H1370 H 0.53774 0.00721 0.18899 0.0
H1371 H 0.56487 0.03078 0.16216 0.0
H1372 H 0.56242 0.08243 0.19096 0.0
H1373 H 0.53547 0.05919 0.21818 0.0
C1374 C 0.42647 0.98569 0.23782 0.0
C1375 C 0.42638 0.0042 0.24168 0.0
C1376 C 0.44511 0.98579 0.23551 0.0
C1377 C 0.46402 0.00434 0.23764 0.0
C1378 C 0.46393 0.02296 0.24052 0.0
C1379 C 0.44525 0.0229 0.24244 0.0
C1380 C 0.48383 0.00418 0.23791 0.0
C1381 C 0.49974 0.01736 0.22295 0.0
C1382 C 0.487 0.99099 0.25276 0.0
C1383 C 0.47151 0.97787 0.27026 0.0
C1384 C 0.46439 0.98669 0.28664 0.0
C1385 C 0.44961 0.97421 0.30289 0.0
C1386 C 0.44197 0.9529 0.30306 0.0
C1387 C 0.44914 0.94403 0.28702 0.0
C1388 C 0.46389 0.95644 0.27071 0.0
C1389 C 0.57838 0.02274 0.24655 0.0
C1390 C 0.57913 0.00447 0.24335 0.0
C1391 C 0.55979 0.02274 0.24401 0.0
C1392 C 0.5416 0.00447 0.23818 0.0
C1393 C 0.54234 0.98627 0.2347 0.0
C1394 C 0.56095 0.98628 0.23714 0.0
C1395 C 0.52162 0.00413 0.23689 0.0
C1396 C 0.5057 0.99091 0.25177 0.0
C1397 C 0.5186 0.0175 0.22223 0.0
C1398 C 0.5347 0.03147 0.20575 0.0
C1399 C 0.54309 0.02361 0.18972 0.0
C1400 C 0.55842 0.03691 0.17442 0.0
C1401 C 0.5654 0.05809 0.17489 0.0
C1402 C 0.55702 0.06602 0.19062 0.0
C1403 C 0.5417 0.05279 0.20597 0.0
H1404 H 0.57727 0.06836 0.16304 0.0
H1405 H 0.43052 0.94326 0.31565 0.0
H1406 H 0.58348 0.55756 0.60992 0.0
H1407 H 0.55097 0.52534 0.60443 0.0
H1408 H 0.53414 0.55357 0.55032 0.0
H1409 H 0.56661 0.58616 0.55608 0.0
H1410 H 0.50261 0.53243 0.58082 0.0
H1411 H 0.54845 0.51889 0.53686 0.0
H1412 H 0.57999 0.51714 0.52922 0.0
H1413 H 0.56446 0.47332 0.584 0.0
H1414 H 0.53297 0.47503 0.5922 0.0
H1415 H 0.41346 0.43567 0.55526 0.0
H1416 H 0.44654 0.46764 0.5504 0.0
H1417 H 0.47345 0.44802 0.60327 0.0
H1418 H 0.4407 0.41579 0.60768 0.0
H1419 H 0.49971 0.46537 0.56799 0.0
H1420 H 0.45665 0.4819 0.61486 0.0
H1421 H 0.42548 0.48396 0.62387 0.0
H1422 H 0.43617 0.52236 0.56471 0.0
H1423 H 0.46728 0.52029 0.55518 0.0
C1424 C 0.57284 0.55696 0.59689 0.0
C1425 C 0.57756 0.57442 0.58348 0.0
C1426 C 0.55436 0.53847 0.59362 0.0
C1427 C 0.54025 0.537 0.5768 0.0
C1428 C 0.54489 0.55437 0.56331 0.0
C1429 C 0.56347 0.57291 0.56653 0.0
C1430 C 0.52034 0.51748 0.57404 0.0
C1431 C 0.50193 0.51781 0.57752 0.0
C1432 C 0.51953 0.49838 0.5702 0.0
C1433 C 0.5384 0.4972 0.56524 0.0
C1434 C 0.55183 0.50899 0.54739 0.0
C1435 C 0.56969 0.50799 0.54294 0.0
C1436 C 0.57424 0.49515 0.55614 0.0
C1437 C 0.56092 0.48326 0.57379 0.0
C1438 C 0.54304 0.48422 0.57832 0.0
C1439 C 0.42651 0.43803 0.5656 0.0
C1440 C 0.42441 0.42326 0.58198 0.0
C1441 C 0.44535 0.45638 0.56294 0.0
C1442 C 0.46237 0.46032 0.57669 0.0
C1443 C 0.46049 0.44533 0.59254 0.0
C1444 C 0.4417 0.427 0.59519 0.0
C1445 C 0.48202 0.48029 0.57519 0.0
C1446 C 0.50037 0.48003 0.57093 0.0
C1447 C 0.4828 0.49945 0.57843 0.0
C1448 C 0.46414 0.50073 0.58416 0.0
C1449 C 0.45226 0.49064 0.60367 0.0
C1450 C 0.43462 0.49183 0.60889 0.0
C1451 C 0.42881 0.50323 0.59483 0.0
C1452 C 0.44067 0.5135 0.57556 0.0
C1453 C 0.4583 0.51233 0.57024 0.0
H1454 H 0.41516 0.50414 0.5989 0.0
H1455 H 0.58808 0.4944 0.55267 0.0
H1456 H 0.03065 0.58894 0.90963 0.0
H1457 H 0.03041 0.55623 0.90614 0.0
H1458 H 0.96392 0.5237 0.90013 0.0
H1459 H 0.96411 0.5564 0.90436 0.0
H1460 H 0.97449 0.505 0.92956 0.0
H1461 H 0.99722 0.53053 0.85358 0.0
H1462 H 0.0189 0.55575 0.82404 0.0
H1463 H 0.07245 0.55552 0.85038 0.0
H1464 H 0.05115 0.53051 0.88029 0.0
H1465 H 0.96569 0.40854 0.90257 0.0
H1466 H 0.96577 0.44106 0.897 0.0
H1467 H 0.03012 0.47523 0.91606 0.0
H1468 H 0.0302 0.44273 0.92153 0.0
H1469 H 0.01976 0.49224 0.87792 0.0
H1470 H 0.99669 0.46817 0.95513 0.0
H1471 H 0.9746 0.44256 0.98415 0.0
H1472 H 0.92081 0.43979 0.95405 0.0
H1473 H 0.94257 0.46517 0.92462 0.0
C1474 C 0.01603 0.57483 0.90716 0.0
C1475 C 0.99739 0.57515 0.90722 0.0
C1476 C 0.0159 0.55614 0.90511 0.0
C1477 C 0.99716 0.53748 0.90259 0.0
C1478 C 0.97857 0.53788 0.90207 0.0
C1479 C 0.97867 0.55654 0.90446 0.0
C1480 C 0.99683 0.51744 0.90211 0.0
C1481 C 0.98411 0.50212 0.91792 0.0
C1482 C 0.00975 0.51378 0.88734 0.0
C1483 C 0.0226 0.52877 0.86931 0.0
C1484 C 0.01364 0.53597 0.85318 0.0
C1485 C 0.02586 0.55021 0.83635 0.0
C1486 C 0.04705 0.55726 0.83536 0.0
C1487 C 0.05605 0.55005 0.85117 0.0
C1488 C 0.0439 0.53582 0.86806 0.0
C1489 C 0.97994 0.42299 0.9052 0.0
C1490 C 0.99792 0.42314 0.91259 0.0
C1491 C 0.97993 0.44152 0.90212 0.0
C1492 C 0.99791 0.46049 0.90629 0.0
C1493 C 0.0161 0.46073 0.91278 0.0
C1494 C 0.01608 0.44219 0.91606 0.0
C1495 C 0.99741 0.48001 0.90524 0.0
C1496 C 0.01002 0.49518 0.88929 0.0
C1497 C 0.98431 0.48353 0.91975 0.0
C1498 C 0.97123 0.46839 0.93753 0.0
C1499 C 0.98013 0.46196 0.95458 0.0
C1500 C 0.96768 0.44751 0.97112 0.0
C1501 C 0.94631 0.4395 0.9709 0.0
C1502 C 0.93736 0.44598 0.95417 0.0
C1503 C 0.94975 0.4604 0.93757 0.0
H1504 H 0.93669 0.42832 0.98372 0.0
H1505 H 0.05648 0.56829 0.82232 0.0
H1506 H 0.98031 0.55975 0.3827 0.0
H1507 H 0.97988 0.52728 0.38805 0.0
H1508 H 0.00798 0.54751 0.45478 0.0
H1509 H 0.00948 0.58074 0.44901 0.0
H1510 H 0.02573 0.52973 0.43222 0.0
H1511 H 0.95635 0.51096 0.44931 0.0
H1512 H 0.92263 0.50882 0.44376 0.0
H1513 H 0.91339 0.47473 0.3813 0.0
H1514 H 0.9472 0.47692 0.38629 0.0
H1515 H 0.00339 0.42482 0.45309 0.0
H1516 H 0.0035 0.45751 0.4571 0.0
H1517 H 0.98643 0.45444 0.38589 0.0
H1518 H 0.98719 0.42243 0.38135 0.0
H1519 H 0.962 0.46282 0.4173 0.0
H1520 H 0.03357 0.48555 0.399 0.0
H1521 H 0.06724 0.48771 0.40524 0.0
H1522 H 0.07158 0.514 0.47202 0.0
H1523 H 0.03776 0.5117 0.46628 0.0
C1524 C 0.98662 0.55746 0.39845 0.0
C1525 C 0.99505 0.57295 0.41537 0.0
C1526 C 0.98608 0.53871 0.40163 0.0
C1527 C 0.99357 0.53479 0.42199 0.0
C1528 C 0.00198 0.55016 0.43899 0.0
C1529 C 0.00267 0.56906 0.43574 0.0
C1530 C 0.99309 0.51482 0.42496 0.0
C1531 C 0.01168 0.51508 0.42947 0.0
C1532 C 0.97482 0.49568 0.42115 0.0
C1533 C 0.95439 0.49422 0.41812 0.0
C1534 C 0.9472 0.50312 0.43431 0.0
C1535 C 0.92805 0.50189 0.43127 0.0
C1536 C 0.91589 0.49168 0.41217 0.0
C1537 C 0.92283 0.48264 0.39609 0.0
C1538 C 0.94197 0.48385 0.39903 0.0
C1539 C -9e-05 0.4312 0.43819 0.0
C1540 C 0.99515 0.42084 0.41692 0.0
C1541 C -0.00014 0.44982 0.44058 0.0
C1542 C 0.9949 0.45828 0.4218 0.0
C1543 C 0.99011 0.44801 0.40063 0.0
C1544 C 0.99041 0.42961 0.39814 0.0
C1545 C 0.99466 0.47787 0.42397 0.0
C1546 C 0.97591 0.47749 0.42046 0.0
C1547 C 0.01272 0.49683 0.4289 0.0
C1548 C 0.03302 0.49819 0.43234 0.0
C1549 C 0.0416 0.49158 0.41511 0.0
C1550 C 0.06073 0.49288 0.41853 0.0
C1551 C 0.07151 0.50092 0.43905 0.0
C1552 C 0.0632 0.50773 0.45616 0.0
C1553 C 0.04405 0.50644 0.45283 0.0
H1554 H 0.08633 0.50192 0.44166 0.0
H1555 H 0.90107 0.49074 0.40985 0.0
H1556 H 0.57118 0.9905 0.78544 0.0
H1557 H 0.53833 0.98956 0.79154 0.0
H1558 H 0.54685 0.02259 0.72795 0.0
H1559 H 0.58011 0.02467 0.72247 0.0
H1560 H 0.53154 0.03647 0.75785 0.0
H1561 H 0.51574 0.96876 0.73264 0.0
H1562 H 0.51638 0.9361 0.73418 0.0
H1563 H 0.48724 0.92268 0.80042 0.0
H1564 H 0.48667 0.95543 0.7994 0.0
H1565 H 0.42876 0.99621 0.71559 0.0
H1566 H 0.46192 0.9983 0.72257 0.0
H1567 H 0.45294 0.99901 0.79557 0.0
H1568 H 0.42013 0.99814 0.78888 0.0
H1569 H 0.46779 0.96847 0.76769 0.0
H1570 H 0.48296 0.03829 0.78919 0.0
H1571 H 0.48084 0.06974 0.78217 0.0
H1572 H 0.51012 0.07749 0.71657 0.0
H1573 H 0.5121 0.04587 0.72309 0.0
C1574 C 0.56624 0.9979 0.77298 0.0
C1575 C 0.57819 0.00746 0.75332 0.0
C1576 C 0.54734 0.99715 0.77636 0.0
C1577 C 0.53994 0.00569 0.76 0.0
C1578 C 0.55217 0.01581 0.74078 0.0
C1579 C 0.57111 0.01677 0.73753 0.0
C1580 C 0.51925 0.00371 0.76232 0.0
C1581 C 0.51766 0.02158 0.76012 0.0
C1582 C 0.50105 0.98431 0.76541 0.0
C1583 C 0.50141 0.96466 0.76608 0.0
C1584 C 0.50963 0.95893 0.74762 0.0
C1585 C 0.50995 0.94039 0.74838 0.0
C1586 C 0.50193 0.92736 0.76742 0.0
C1587 C 0.4935 0.93282 0.78571 0.0
C1588 C 0.49317 0.95136 0.78505 0.0
C1589 C 0.43386 0.99709 0.73317 0.0
C1590 C 0.42184 0.99732 0.75166 0.0
C1591 C 0.45271 0.99804 0.73709 0.0
C1592 C 0.45977 0.99888 0.75954 0.0
C1593 C 0.44762 0.99834 0.77812 0.0
C1594 C 0.42885 0.99774 0.77423 0.0
C1595 C 0.48032 0.00116 0.76317 0.0
C1596 C 0.48181 0.98335 0.76617 0.0
C1597 C 0.49841 0.0205 0.76034 0.0
C1598 C 0.49748 0.03963 0.75653 0.0
C1599 C 0.48876 0.0466 0.77318 0.0
C1600 C 0.48763 0.06447 0.76932 0.0
C1601 C 0.49529 0.07558 0.74891 0.0
C1602 C 0.50417 0.06886 0.73236 0.0
C1603 C 0.50531 0.05098 0.73614 0.0
H1604 H 0.4944 0.08942 0.74595 0.0
H1605 H 0.50218 0.91301 0.76797 0.0
H1606 H 0.4396 0.41816 0.05648 0.0
H1607 H 0.47186 0.45045 0.06253 0.0
H1608 H 0.44634 0.46252 0.12312 0.0
H1609 H 0.41361 0.43035 0.11674 0.0
H1610 H 0.46579 0.49636 0.09545 0.0
H1611 H 0.48202 0.44743 0.1283 0.0
H1612 H 0.48427 0.41562 0.12934 0.0
H1613 H 0.52482 0.43656 0.07097 0.0
H1614 H 0.52258 0.46837 0.06938 0.0
H1615 H 0.56406 0.58413 0.12083 0.0
H1616 H 0.5319 0.55095 0.12455 0.0
H1617 H 0.54913 0.52754 0.06591 0.0
H1618 H 0.58128 0.56044 0.06233 0.0
H1619 H 0.53351 0.49915 0.09825 0.0
H1620 H 0.51428 0.54518 0.06199 0.0
H1621 H 0.51165 0.57671 0.05882 0.0
H1622 H 0.47653 0.56098 0.12136 0.0
H1623 H 0.4792 0.52949 0.12505 0.0
C1624 C 0.44078 0.42771 0.07105 0.0
C1625 C 0.42401 0.42175 0.08609 0.0
C1626 C 0.45932 0.44606 0.07462 0.0
C1627 C 0.46158 0.45875 0.09343 0.0
C1628 C 0.44493 0.45286 0.10856 0.0
C1629 C 0.42631 0.43444 0.10499 0.0
C1630 C 0.48117 0.4785 0.09666 0.0
C1631 C 0.48059 0.49698 0.09657 0.0
C1632 C 0.50047 0.47928 0.09758 0.0
C1633 C 0.50203 0.46024 0.09865 0.0
C1634 C 0.49132 0.4452 0.1156 0.0
C1635 C 0.49261 0.42717 0.1163 0.0
C1636 C 0.50466 0.42406 0.10021 0.0
C1637 C 0.51549 0.43899 0.08342 0.0
C1638 C 0.51424 0.45704 0.08264 0.0
C1639 C 0.56095 0.57187 0.10877 0.0
C1640 C 0.57517 0.57485 0.09131 0.0
C1641 C 0.54259 0.55295 0.1109 0.0
C1642 C 0.53802 0.53683 0.09536 0.0
C1643 C 0.55237 0.53971 0.07816 0.0
C1644 C 0.57075 0.55851 0.07615 0.0
C1645 C 0.51816 0.51703 0.09657 0.0
C1646 C 0.5187 0.49853 0.09751 0.0
C1647 C 0.49883 0.51624 0.09618 0.0
C1648 C 0.49715 0.53512 0.09394 0.0
C1649 C 0.50614 0.54854 0.07516 0.0
C1650 C 0.50462 0.56638 0.07325 0.0
C1651 C 0.49398 0.57088 0.08992 0.0
C1652 C 0.4848 0.5575 0.10849 0.0
C1653 C 0.4863 0.53965 0.11049 0.0
H1654 H 0.49282 0.5847 0.08842 0.0
H1655 H 0.50563 0.41009 0.10077 0.0
H1656 H 0.08061 0.77991 0.34903 0.0
H1657 H 0.11319 0.80826 0.33479 0.0
H1658 H 0.1466 0.79388 0.38492 0.0
H1659 H 0.11388 0.76485 0.39895 0.0
H1660 H 0.16007 0.83889 0.37707 0.0
H1661 H 0.14711 0.77704 0.33735 0.0
H1662 H 0.12534 0.74478 0.31601 0.0
H1663 H 0.11678 0.77919 0.26229 0.0
H1664 H 0.13822 0.81163 0.28352 0.0
H1665 H 0.25446 0.90416 0.32173 0.0
H1666 H 0.22658 0.87288 0.33947 0.0
H1667 H 0.18549 0.86798 0.28458 0.0
H1668 H 0.21373 0.89893 0.26641 0.0
H1669 H 0.1778 0.83078 0.29698 0.0
H1670 H 0.18714 0.89143 0.3364 0.0
H1671 H 0.20693 0.92436 0.35728 0.0
H1672 H 0.22031 0.89332 0.4109 0.0
H1673 H 0.20085 0.86023 0.39014 0.0
C1674 C 0.09487 0.78277 0.35711 0.0
C1675 C 0.09473 0.7699 0.37483 0.0
C1676 C 0.11343 0.79903 0.34902 0.0
C1677 C 0.13221 0.80288 0.3586 0.0
C1678 C 0.13217 0.79101 0.3773 0.0
C1679 C 0.11351 0.77453 0.38533 0.0
C1680 C 0.15174 0.81857 0.34794 0.0
C1681 C 0.16426 0.83701 0.35976 0.0
C1682 C 0.15675 0.81619 0.32514 0.0
C1683 C 0.14415 0.79675 0.31212 0.0
C1684 C 0.14046 0.77771 0.32107 0.0
C1685 C 0.1282 0.7594 0.30898 0.0
C1686 C 0.11965 0.75993 0.28783 0.0
C1687 C 0.12341 0.7788 0.27869 0.0
C1688 C 0.13563 0.79716 0.29073 0.0
C1689 C 0.23955 0.89609 0.3133 0.0
C1690 C 0.23603 0.90378 0.29285 0.0
C1691 C 0.22363 0.87835 0.32347 0.0
C1692 C 0.20383 0.86837 0.31363 0.0
C1693 C 0.20064 0.87549 0.29251 0.0
C1694 C 0.21669 0.8931 0.28215 0.0
C1695 C 0.18618 0.85133 0.32599 0.0
C1696 C 0.1739 0.83262 0.31444 0.0
C1697 C 0.18125 0.85358 0.34895 0.0
C1698 C 0.19274 0.8734 0.3616 0.0
C1699 C 0.19442 0.89165 0.35257 0.0
C1700 C 0.20557 0.91034 0.36439 0.0
C1701 C 0.21492 0.91094 0.38537 0.0
C1702 C 0.21309 0.89283 0.39462 0.0
C1703 C 0.202 0.87411 0.38284 0.0
H1704 H 0.22354 0.92542 0.3945 0.0
H1705 H 0.11015 0.74573 0.2785 0.0
H1706 H 0.35615 0.2403 0.60788 0.0
H1707 H 0.35984 0.2121 0.62448 0.0
H1708 H 0.29875 0.18563 0.65356 0.0
H1709 H 0.29462 0.21315 0.63646 0.0
H1710 H 0.33145 0.19448 0.68574 0.0
H1711 H 0.30417 0.16108 0.61279 0.0
H1712 H 0.30353 0.15821 0.57059 0.0
H1713 H 0.3635 0.16359 0.57155 0.0
H1714 H 0.36461 0.1668 0.61378 0.0
H1715 H 0.30315 0.09524 0.72716 0.0
H1716 H 0.30651 0.12599 0.70826 0.0
H1717 H 0.36432 0.13819 0.67819 0.0
H1718 H 0.36085 0.10719 0.6968 0.0
H1719 H 0.33843 0.13942 0.64633 0.0
H1720 H 0.36465 0.16956 0.71929 0.0
H1721 H 0.36569 0.17252 0.76149 0.0
H1722 H 0.30905 0.17414 0.76076 0.0
H1723 H 0.3075 0.17087 0.71855 0.0
C1724 C 0.3433 0.22815 0.61726 0.0
C1725 C 0.32521 0.22911 0.62115 0.0
C1726 C 0.34549 0.21216 0.62684 0.0
C1727 C 0.32965 0.19702 0.64045 0.0
C1728 C 0.31122 0.19735 0.64332 0.0
C1729 C 0.30893 0.21312 0.63359 0.0
C1730 C 0.33264 0.18158 0.6531 0.0
C1731 C 0.33284 0.18233 0.67717 0.0
C1732 C 0.33519 0.16627 0.6418 0.0
C1733 C 0.3346 0.16448 0.61642 0.0
C1734 C 0.31733 0.1619 0.60399 0.0
C1735 C 0.31685 0.16015 0.58007 0.0
C1736 C 0.3335 0.1608 0.56838 0.0
C1737 C 0.35064 0.16315 0.58062 0.0
C1738 C 0.35119 0.16493 0.60455 0.0
C1739 C 0.31671 0.10465 0.71678 0.0
C1740 C 0.33177 0.0989 0.7135 0.0
C1741 C 0.31866 0.12224 0.70606 0.0
C1742 C 0.33572 0.13441 0.69191 0.0
C1743 C 0.35107 0.12902 0.68909 0.0
C1744 C 0.34918 0.11145 0.69991 0.0
C1745 C 0.33674 0.152 0.67906 0.0
C1746 C 0.33735 0.15172 0.65495 0.0
C1747 C 0.33505 0.16785 0.69033 0.0
C1748 C 0.33588 0.16981 0.71574 0.0
C1749 C 0.35232 0.17037 0.72813 0.0
C1750 C 0.35302 0.17214 0.75206 0.0
C1751 C 0.33742 0.17348 0.7638 0.0
C1752 C 0.32111 0.17309 0.75164 0.0
C1753 C 0.32033 0.1713 0.72771 0.0
H1754 H 0.338 0.17485 0.78233 0.0
H1755 H 0.3331 0.15942 0.54986 0.0
H1756 H 0.23134 0.3488 0.06994 0.0
H1757 H 0.20179 0.35176 0.05616 0.0
H1758 H 0.18885 0.30496 0.00514 0.0
H1759 H 0.21788 0.3017 0.01897 0.0
H1760 H 0.19355 0.34134 0.9868 0.0
H1761 H 0.15752 0.29364 0.04849 0.0
H1762 H 0.15119 0.28163 0.08867 0.0
H1763 H 0.1454 0.33399 0.10795 0.0
H1764 H 0.15202 0.34648 0.06789 0.0
H1765 H 0.09238 0.30493 0.94429 0.0
H1766 H 0.12343 0.30883 0.9633 0.0
H1767 H 0.12879 0.36046 0.00213 0.0
H1768 H 0.09793 0.35687 0.98273 0.0
H1769 H 0.13004 0.32747 0.02864 0.0
H1770 H 0.16265 0.37306 0.96555 0.0
H1771 H 0.16812 0.38403 0.92501 0.0
H1772 H 0.17993 0.33492 0.90819 0.0
H1773 H 0.17419 0.32344 0.94859 0.0
C1774 C 0.22186 0.33884 0.05616 0.0
C1775 C 0.22706 0.32525 0.04528 0.0
C1776 C 0.20509 0.3406 0.04825 0.0
C1777 C 0.19336 0.32875 0.02946 0.0
C1778 C 0.1979 0.31442 0.01947 0.0
C1779 C 0.21449 0.3126 0.02737 0.0
C1780 C 0.17717 0.33199 0.019 0.0
C1781 C 0.17962 0.33823 0.99592 0.0
C1782 C 0.15935 0.32854 0.03115 0.0
C1783 C 0.15558 0.32116 0.05526 0.0
C1784 C 0.15515 0.30273 0.06134 0.0
C1785 C 0.15145 0.2958 0.08408 0.0
C1786 C 0.14798 0.30709 0.10087 0.0
C1787 C 0.14815 0.3253 0.09493 0.0
C1788 C 0.15188 0.33231 0.07222 0.0
C1789 C 0.10042 0.31729 0.95661 0.0
C1790 C 0.09301 0.33073 0.96196 0.0
C1791 C 0.11806 0.31949 0.96745 0.0
C1792 C 0.12831 0.33493 0.98407 0.0
C1793 C 0.12104 0.34849 0.98932 0.0
C1794 C 0.1036 0.34654 0.97814 0.0
C1795 C 0.14624 0.33628 0.99633 0.0
C1796 C 0.14415 0.33094 0.01969 0.0
C1797 C 0.1644 0.34049 0.98444 0.0
C1798 C 0.1678 0.34727 0.96008 0.0
C1799 C 0.1662 0.36446 0.95317 0.0
C1800 C 0.1694 0.3708 0.93022 0.0
C1801 C 0.17432 0.36015 0.91402 0.0
C1802 C 0.17609 0.34315 0.92075 0.0
C1803 C 0.17289 0.33673 0.94368 0.0
H1804 H 0.17681 0.36509 0.89626 0.0
H1805 H 0.14509 0.30168 0.11846 0.0
H1806 H 0.911 0.20455 0.37727 0.0
H1807 H 0.88099 0.17934 0.35547 0.0
H1808 H 0.85703 0.22117 0.35406 0.0
H1809 H 0.8875 0.24698 0.37494 0.0
H1810 H 0.82698 0.17498 0.3635 0.0
H1811 H 0.87711 0.22294 0.3099 0.0
H1812 H 0.91215 0.24375 0.29379 0.0
H1813 H 0.91458 0.18848 0.28039 0.0
H1814 H 0.87966 0.16735 0.29677 0.0
H1815 H 0.75325 0.11378 0.28016 0.0
H1816 H 0.7807 0.14538 0.29757 0.0
H1817 H 0.82287 0.12205 0.29073 0.0
H1818 H 0.79581 0.09088 0.27228 0.0
H1819 H 0.84275 0.16266 0.28415 0.0
H1820 H 0.79473 0.11502 0.34022 0.0
H1821 H 0.76004 0.09332 0.35684 0.0
H1822 H 0.75395 0.14701 0.36652 0.0
H1823 H 0.78851 0.169 0.34962 0.0
C1824 C 0.89932 0.20839 0.37247 0.0
C1825 C 0.90181 0.2279 0.37765 0.0
C1826 C 0.88215 0.19392 0.36013 0.0
C1827 C 0.867 0.19856 0.35304 0.0
C1828 C 0.86862 0.21738 0.35947 0.0
C1829 C 0.88598 0.23203 0.37154 0.0
C1830 C 0.8504 0.18426 0.33746 0.0
C1831 C 0.83026 0.17252 0.346 0.0
C1832 C 0.8549 0.18095 0.3148 0.0
C1833 C 0.87584 0.19358 0.30476 0.0
C1834 C 0.88519 0.21523 0.30372 0.0
C1835 C 0.90502 0.22709 0.2945 0.0
C1836 C 0.9156 0.21745 0.28612 0.0
C1837 C 0.90636 0.19593 0.2869 0.0
C1838 C 0.88655 0.184 0.29613 0.0
C1839 C 0.76855 0.11566 0.28165 0.0
C1840 C 0.77231 0.09972 0.27505 0.0
C1841 C 0.78416 0.13364 0.29186 0.0
C1842 C 0.80369 0.13584 0.29595 0.0
C1843 C 0.80788 0.12061 0.28792 0.0
C1844 C 0.79235 0.10273 0.27753 0.0
C1845 C 0.81924 0.15304 0.31022 0.0
C1846 C 0.83928 0.16531 0.30149 0.0
C1847 C 0.81465 0.15674 0.33277 0.0
C1848 C 0.7941 0.14361 0.34344 0.0
C1849 C 0.78595 0.12218 0.34579 0.0
C1850 C 0.76631 0.10983 0.35526 0.0
C1851 C 0.75477 0.11877 0.36266 0.0
C1852 C 0.76289 0.1401 0.36073 0.0
C1853 C 0.7825 0.15251 0.35122 0.0
H1854 H 0.73955 0.10917 0.36995 0.0
H1855 H 0.93094 0.22665 0.27898 0.0
H1856 H 0.64258 0.75543 0.61764 0.0
H1857 H 0.63814 0.78277 0.63519 0.0
H1858 H 0.70179 0.81395 0.65712 0.0
H1859 H 0.70651 0.78705 0.63916 0.0
H1860 H 0.67369 0.8063 0.69274 0.0
H1861 H 0.68848 0.83481 0.61634 0.0
H1862 H 0.68367 0.83449 0.57442 0.0
H1863 H 0.62156 0.82211 0.58437 0.0
H1864 H 0.62591 0.82207 0.62637 0.0
H1865 H 0.68946 0.90362 0.73051 0.0
H1866 H 0.68962 0.87345 0.71449 0.0
H1867 H 0.62836 0.85128 0.68722 0.0
H1868 H 0.62841 0.88172 0.7028 0.0
H1869 H 0.65289 0.85247 0.65469 0.0
H1870 H 0.6381 0.82551 0.73091 0.0
H1871 H 0.64235 0.82544 0.77289 0.0
H1872 H 0.70314 0.83394 0.76382 0.0
H1873 H 0.69938 0.83435 0.72176 0.0
C1874 C 0.65577 0.7684 0.62563 0.0
C1875 C 0.67484 0.76899 0.62723 0.0
C1876 C 0.65318 0.78392 0.63577 0.0
C1877 C 0.6696 0.80022 0.64762 0.0
C1878 C 0.68888 0.80136 0.64826 0.0
C1879 C 0.69153 0.78598 0.63802 0.0
C1880 C 0.66644 0.81543 0.66057 0.0
C1881 C 0.66935 0.81658 0.68445 0.0
C1882 C 0.66012 0.82827 0.64975 0.0
C1883 C 0.65744 0.82818 0.6245 0.0
C1884 C 0.67373 0.8318 0.60959 0.0
C1885 C 0.6711 0.83174 0.58581 0.0
C1886 C 0.6523 0.82821 0.57673 0.0
C1887 C 0.6361 0.8248 0.59142 0.0
C1888 C 0.63864 0.82483 0.61521 0.0
C1889 C 0.6758 0.89196 0.72173 0.0
C1890 C 0.65894 0.89494 0.71781 0.0
C1891 C 0.6759 0.87474 0.71253 0.0
C1892 C 0.65899 0.86009 0.69962 0.0
C1893 C 0.64161 0.86244 0.69699 0.0
C1894 C 0.6416 0.87974 0.70597 0.0
C1895 C 0.66028 0.84353 0.687 0.0
C1896 C 0.65704 0.8421 0.66312 0.0
C1897 C 0.66617 0.83033 0.69787 0.0
C1898 C 0.66852 0.83014 0.72317 0.0
C1899 C 0.65244 0.82754 0.73786 0.0
C1900 C 0.65475 0.8274 0.76168 0.0
C1901 C 0.67302 0.82973 0.77102 0.0
C1902 C 0.68901 0.83216 0.75656 0.0
C1903 C 0.68678 0.83232 0.73273 0.0
H1904 H 0.67477 0.82962 0.78946 0.0
H1905 H 0.6503 0.82819 0.55832 0.0
H1906 H 0.75571 0.63861 0.04764 0.0
H1907 H 0.78643 0.64028 0.03097 0.0
H1908 H 0.81931 0.70667 0.03795 0.0
H1909 H 0.78826 0.70523 0.0534 0.0
H1910 H 0.82308 0.69631 0.99607 0.0
H1911 H 0.83056 0.67411 0.07125 0.0
H1912 H 0.81934 0.65174 0.10554 0.0
H1913 H 0.80851 0.5997 0.06414 0.0
H1914 H 0.81941 0.6217 0.02954 0.0
H1915 H 0.922 0.71361 0.9649 0.0
H1916 H 0.89177 0.71122 0.98378 0.0
H1917 H 0.85961 0.64487 0.97637 0.0
H1918 H 0.89028 0.64706 0.95858 0.0
H1919 H 0.85534 0.65482 0.01844 0.0
H1920 H 0.84728 0.6763 0.94348 0.0
H1921 H 0.85799 0.6981 0.90873 0.0
H1922 H 0.86917 0.75075 0.94918 0.0
H1923 H 0.85878 0.72933 0.98423 0.0
C1924 C 0.76953 0.65357 0.0458 0.0
C1925 C 0.76943 0.6718 0.05165 0.0
C1926 C 0.78717 0.65448 0.03649 0.0
C1927 C 0.80523 0.6736 0.03325 0.0
C1928 C 0.80554 0.69174 0.04025 0.0
C1929 C 0.78782 0.69087 0.04935 0.0
C1930 C 0.82312 0.67484 0.02076 0.0
C1931 C 0.83037 0.68751 0.00121 0.0
C1932 C 0.83213 0.66276 0.02695 0.0
C1933 C 0.82564 0.64953 0.04777 0.0
C1934 C 0.82565 0.65787 0.06943 0.0
C1935 C 0.81937 0.64525 0.08893 0.0
C1936 C 0.81317 0.6243 0.08701 0.0
C1937 C 0.81329 0.61593 0.0656 0.0
C1938 C 0.81955 0.62847 0.04605 0.0
C1939 C 0.90847 0.6985 0.96722 0.0
C1940 C 0.90858 0.68052 0.96028 0.0
C1941 C 0.89111 0.69717 0.97783 0.0
C1942 C 0.87334 0.67787 0.98134 0.0
C1943 C 0.87316 0.65993 0.97382 0.0
C1944 C 0.89061 0.66123 0.96338 0.0
C1945 C 0.85536 0.6764 0.99387 0.0
C1946 C 0.84807 0.66365 0.01336 0.0
C1947 C 0.84623 0.68833 0.98758 0.0
C1948 C 0.85241 0.70123 0.96651 0.0
C1949 C 0.85216 0.69256 0.94499 0.0
C1950 C 0.85815 0.70484 0.92524 0.0
C1951 C 0.8643 0.72581 0.92676 0.0
C1952 C 0.86442 0.73452 0.94803 0.0
C1953 C 0.85846 0.7223 0.96784 0.0
H1954 H 0.86894 0.73529 0.91145 0.0
H1955 H 0.80831 0.61456 0.10213 0.0
H1956 H 0.29452 0.01311 0.40474 0.0
H1957 H 0.29131 0.00739 0.44614 0.0
H1958 H 0.3561 0.02649 0.45029 0.0
H1959 H 0.3592 0.03129 0.40868 0.0
H1960 H 0.33382 0.9911 0.47168 0.0
H1961 H 0.33625 0.05643 0.47198 0.0
H1962 H 0.32614 0.08195 0.46065 0.0
H1963 H 0.26461 0.04184 0.48549 0.0
H1964 H 0.27427 0.01595 0.49669 0.0
H1965 H 0.34285 0.99792 0.59313 0.0
H1966 H 0.34563 0.00481 0.55199 0.0
H1967 H 0.27967 0.97933 0.54785 0.0
H1968 H 0.2766 0.97183 0.58906 0.0
H1969 H 0.30196 0.01768 0.52671 0.0
H1970 H 0.29973 0.95249 0.52633 0.0
H1971 H 0.31001 0.92718 0.53794 0.0
H1972 H 0.37159 0.96755 0.51338 0.0
H1973 H 0.36175 0.99326 0.50191 0.0
C1974 C 0.30813 0.01622 0.41447 0.0
C1975 C 0.32708 0.02247 0.40337 0.0
C1976 C 0.30631 0.01315 0.43819 0.0
C1977 C 0.32349 0.01658 0.45134 0.0
C1978 C 0.34264 0.02373 0.44046 0.0
C1979 C 0.34444 0.02667 0.4167 0.0
C1980 C 0.3211 0.01119 0.47609 0.0
C1981 C 0.32718 0.99721 0.48378 0.0
C1982 C 0.3118 0.01862 0.49173 0.0
C1983 C 0.30594 0.03416 0.48498 0.0
C1984 C 0.32052 0.05297 0.47485 0.0
C1985 C 0.31488 0.06752 0.46848 0.0
C1986 C 0.29473 0.0635 0.47229 0.0
C1987 C 0.2802 0.04493 0.48252 0.0
C1988 C 0.28576 0.03032 0.48891 0.0
C1989 C 0.32883 0.99328 0.58345 0.0
C1990 C 0.30947 0.98421 0.59443 0.0
C1991 C 0.33049 0.99738 0.55993 0.0
C1992 C 0.31285 0.99252 0.54691 0.0
C1993 C 0.29346 0.98325 0.55767 0.0
C1994 C 0.29176 0.97902 0.5812 0.0
C1995 C 0.31485 0.99779 0.52221 0.0
C1996 C 0.30864 0.01166 0.51456 0.0
C1997 C 0.32408 0.99033 0.50659 0.0
C1998 C 0.33005 0.97489 0.51346 0.0
C1999 C 0.31551 0.95606 0.52359 0.0
C2000 C 0.32125 0.94162 0.53011 0.0
C2001 C 0.34146 0.94578 0.52646 0.0
C2002 C 0.35595 0.96436 0.51623 0.0
C2003 C 0.3503 0.97887 0.50969 0.0
H2004 H 0.34587 0.93458 0.53151 0.0
H2005 H 0.2904 0.07479 0.46735 0.0
H2006 H 0.33222 0.34473 0.92517 0.0
H2007 H 0.32801 0.34424 0.88366 0.0
H2008 H 0.32172 0.28372 0.88044 0.0
H2009 H 0.32491 0.28355 0.92239 0.0
H2010 H 0.34977 0.31602 0.84566 0.0
H2011 H 0.28073 0.28144 0.87553 0.0
H2012 H 0.25268 0.27697 0.90141 0.0
H2013 H 0.25768 0.33325 0.87599 0.0
H2014 H 0.28604 0.33824 0.85022 0.0
H2015 H 0.31149 0.29613 0.73143 0.0
H2016 H 0.31504 0.29254 0.77261 0.0
H2017 H 0.31118 0.3474 0.78532 0.0
H2018 H 0.30735 0.35095 0.74396 0.0
H2019 H 0.28728 0.31535 0.81546 0.0
H2020 H 0.3567 0.35077 0.78676 0.0
H2021 H 0.38539 0.35625 0.76133 0.0
H2022 H 0.38026 0.29936 0.78472 0.0
H2023 H 0.3513 0.29338 0.81006 0.0
C2024 C 0.32975 0.33118 0.91576 0.0
C2025 C 0.3285 0.314 0.92723 0.0
C2026 C 0.32752 0.33103 0.89201 0.0
C2027 C 0.32435 0.31387 0.87914 0.0
C2028 C 0.32413 0.29708 0.89021 0.0
C2029 C 0.32605 0.29707 0.91414 0.0
C2030 C 0.32056 0.31346 0.85422 0.0
C2031 C 0.33595 0.31546 0.83896 0.0
C2032 C 0.30275 0.31327 0.8457 0.0
C2033 C 0.28567 0.31033 0.86112 0.0
C2034 C 0.276 0.29298 0.87563 0.0
C2035 C 0.26002 0.29033 0.89024 0.0
C2036 C 0.25344 0.30485 0.89039 0.0
C2037 C 0.26281 0.32203 0.87588 0.0
C2038 C 0.27884 0.32477 0.86125 0.0
C2039 C 0.31111 0.30728 0.743 0.0
C2040 C 0.30904 0.32378 0.7345 0.0
C2041 C 0.31333 0.30531 0.76649 0.0
C2042 C 0.31354 0.3198 0.78195 0.0
C2043 C 0.31109 0.33608 0.77361 0.0
C2044 C 0.30901 0.33815 0.75004 0.0
C2045 C 0.31654 0.31803 0.80679 0.0
C2046 C 0.30102 0.31569 0.82208 0.0
C2047 C 0.33427 0.31796 0.81531 0.0
C2048 C 0.35168 0.32151 0.80011 0.0
C2049 C 0.36156 0.33933 0.78632 0.0
C2050 C 0.37789 0.34255 0.77196 0.0
C2051 C 0.3846 0.32813 0.77136 0.0
C2052 C 0.37502 0.31049 0.78517 0.0
C2053 C 0.35865 0.30719 0.79955 0.0
H2054 H 0.39726 0.33066 0.76023 0.0
H2055 H 0.24105 0.30277 0.90171 0.0
H2056 H 0.98819 0.33371 0.26328 0.0
H2057 H 0.98116 0.32858 0.22221 0.0
H2058 H 0.02774 0.31097 0.21476 0.0
H2059 H 0.03534 0.31669 0.25594 0.0
H2060 H 0.02948 0.33621 0.18012 0.0
H2061 H 0.97813 0.27443 0.21586 0.0
H2062 H 0.9507 0.25347 0.24373 0.0
H2063 H 0.91281 0.27656 0.21623 0.0
H2064 H 0.94017 0.29793 0.1884 0.0
H2065 H 0.9968 0.29272 0.06955 0.0
H2066 H 0.00332 0.29472 0.11085 0.0
H2067 H 0.96171 0.31826 0.12137 0.0
H2068 H 0.9549 0.31607 0.07994 0.0
H2069 H 0.95765 0.28832 0.15439 0.0
H2070 H 0.01086 0.35126 0.1194 0.0
H2071 H 0.03865 0.37121 0.09149 0.0
H2072 H 0.07338 0.34407 0.11775 0.0
H2073 H 0.04562 0.32369 0.14559 0.0
C2074 C 0.99725 0.32914 0.25288 0.0
C2075 C 0.01237 0.32565 0.26287 0.0
C2076 C 0.99302 0.32596 0.22944 0.0
C2077 C 0.0037 0.31909 0.21553 0.0
C2078 C 0.01924 0.31617 0.22526 0.0
C2079 C 0.02349 0.31933 0.24876 0.0
C2080 C 0.99838 0.31474 0.1909 0.0
C2081 C 0.01385 0.3255 0.17449 0.0
C2082 C 0.97791 0.30093 0.18361 0.0
C2083 C 0.9613 0.28794 0.20016 0.0
C2084 C 0.96402 0.27517 0.21586 0.0
C2085 C 0.94847 0.26319 0.23164 0.0
C2086 C 0.93004 0.26372 0.23179 0.0
C2087 C 0.92711 0.27618 0.21611 0.0
C2088 C 0.94262 0.28822 0.20031 0.0
C2089 C 0.9887 0.29792 0.08069 0.0
C2090 C 0.97532 0.30424 0.07154 0.0
C2091 C 0.99257 0.2992 0.10424 0.0
C2092 C 0.98313 0.30681 0.11906 0.0
C2093 C 0.96915 0.31237 0.11015 0.0
C2094 C 0.96537 0.31123 0.08653 0.0
C2095 C 0.9887 0.30995 0.14369 0.0
C2096 C 0.97328 0.29895 0.16007 0.0
C2097 C 0.00925 0.32336 0.15096 0.0
C2098 C 0.02606 0.33579 0.13442 0.0
C2099 C 0.02435 0.34942 0.11911 0.0
C2100 C 0.0401 0.36082 0.10332 0.0
C2101 C 0.05774 0.35886 0.1028 0.0
C2102 C 0.05969 0.34554 0.11814 0.0
C2103 C 0.04395 0.33408 0.13394 0.0
H2104 H 0.06992 0.3677 0.09056 0.0
H2105 H 0.91803 0.25444 0.24403 0.0
H2106 H 0.70983 0.02095 0.40019 0.0
H2107 H 0.71269 0.02567 0.44178 0.0
H2108 H 0.65661 0.96719 0.45065 0.0
H2109 H 0.65373 0.96224 0.40897 0.0
H2110 H 0.65646 0.99807 0.47535 0.0
H2111 H 0.70335 0.9722 0.4629 0.0
H2112 H 0.73311 0.97193 0.44498 0.0
H2113 H 0.77374 0.03308 0.47055 0.0
H2114 H 0.74416 0.03382 0.48838 0.0
H2115 H 0.65753 0.98402 0.59364 0.0
H2116 H 0.65792 0.98108 0.55223 0.0
H2117 H 0.71773 0.03641 0.54942 0.0
H2118 H 0.71829 0.03851 0.59137 0.0
H2119 H 0.71722 0.0093 0.52113 0.0
H2120 H 0.67149 0.0356 0.53427 0.0
H2121 H 0.6422 0.03694 0.55196 0.0
H2122 H 0.60004 0.97698 0.52454 0.0
H2123 H 0.62911 0.97516 0.50692 0.0
C2124 C 0.6983 0.0089 0.41099 0.0
C2125 C 0.68159 0.99116 0.40128 0.0
C2126 C 0.69993 0.01166 0.43475 0.0
C2127 C 0.68495 0.99671 0.44928 0.0
C2128 C 0.66832 0.97892 0.4397 0.0
C2129 C 0.66667 0.97614 0.41591 0.0
C2130 C 0.68617 -1e-05 0.47444 0.0
C2131 C 0.66962 0.00027 0.48543 0.0
C2132 C 0.7037 0.00363 0.48738 0.0
C2133 C 0.72151 0.00314 0.47679 0.0
C2134 C 0.7186 0.98565 0.46456 0.0
C2135 C 0.73545 0.9854 0.45444 0.0
C2136 C 0.7553 0.0025 0.45657 0.0
C2137 C 0.75835 0.01986 0.46888 0.0
C2138 C 0.74156 0.02019 0.47902 0.0
C2139 C 0.67099 0.99543 0.58439 0.0
C2140 C 0.68796 0.01144 0.59602 0.0
C2141 C 0.671 0.99392 0.56056 0.0
C2142 C 0.68766 0.00876 0.54761 0.0
C2143 C 0.70464 0.02484 0.55905 0.0
C2144 C 0.70482 0.02615 0.58304 0.0
C2145 C 0.68735 0.00712 0.52218 0.0
C2146 C 0.70409 0.00721 0.51109 0.0
C2147 C 0.67007 0.00404 0.50906 0.0
C2148 C 0.65251 0.0052 0.51941 0.0
C2149 C 0.65599 0.02266 0.53212 0.0
C2150 C 0.63942 0.02351 0.54212 0.0
C2151 C 0.61928 0.00704 0.53941 0.0
C2152 C 0.61565 0.98972 0.52663 0.0
C2153 C 0.63217 0.98878 0.5166 0.0
H2154 H 0.60647 0.00772 0.54718 0.0
H2155 H 0.76832 0.00228 0.44872 0.0
H2156 H 0.70394 0.70697 0.92916 0.0
H2157 H 0.70715 0.70499 0.88746 0.0
H2158 H 0.64158 0.66257 0.88254 0.0
H2159 H 0.63827 0.66472 0.9243 0.0
H2160 H 0.66742 0.64872 0.86193 0.0
H2161 H 0.6581 0.70783 0.862 0.0
H2162 H 0.66537 0.74253 0.87375 0.0
H2163 H 0.72738 0.76883 0.84821 0.0
H2164 H 0.72057 0.73422 0.83661 0.0
H2165 H 0.65819 0.64363 0.74057 0.0
H2166 H 0.65487 0.64711 0.78178 0.0
H2167 H 0.71843 0.69613 0.78478 0.0
H2168 H 0.72193 0.69265 0.74346 0.0
H2169 H 0.69362 0.70692 0.80657 0.0
H2170 H 0.70437 0.64923 0.80721 0.0
H2171 H 0.69874 0.61496 0.79606 0.0
H2172 H 0.63639 0.58646 0.82108 0.0
H2173 H 0.64156 0.62062 0.83209 0.0
C2174 C 0.69019 0.6975 0.91907 0.0
C2175 C 0.67086 0.68599 0.9298 0.0
C2176 C 0.69203 0.69641 0.89533 0.0
C2177 C 0.6746 0.68363 0.88201 0.0
C2178 C 0.65518 0.67253 0.8926 0.0
C2179 C 0.65328 0.67386 0.91634 0.0
C2180 C 0.67695 0.68085 0.85728 0.0
C2181 C 0.6728 0.66133 0.8497 0.0
C2182 C 0.68473 0.69755 0.84165 0.0
C2183 C 0.68888 0.71839 0.84865 0.0
C2184 C 0.67335 0.72097 0.8591 0.0
C2185 C 0.67737 0.74064 0.86568 0.0
C2186 C 0.69684 0.75787 0.86179 0.0
C2187 C 0.71231 0.75547 0.85125 0.0
C2188 C 0.70837 0.73583 0.84464 0.0
C2189 C 0.67162 0.65482 0.75006 0.0
C2190 C 0.69035 0.66782 0.73874 0.0
C2191 C 0.66966 0.65687 0.77362 0.0
C2192 C 0.68643 0.67183 0.78636 0.0
C2193 C 0.70528 0.68455 0.77523 0.0
C2194 C 0.70725 0.68252 0.75165 0.0
C2195 C 0.68398 0.67471 0.81111 0.0
C2196 C 0.68817 0.69427 0.81874 0.0
C2197 C 0.67649 0.65809 0.82688 0.0
C2198 C 0.67329 0.63751 0.82026 0.0
C2199 C 0.68939 0.63567 0.81015 0.0
C2200 C 0.6863 0.61627 0.80389 0.0
C2201 C 0.6672 0.59855 0.8078 0.0
C2202 C 0.65117 0.6002 0.81803 0.0
C2203 C 0.65418 0.61958 0.8243 0.0
H2204 H 0.66484 0.58353 0.80295 0.0
H2205 H 0.69992 0.77308 0.86689 0.0
H2206 H 0.95472 0.64124 0.25482 0.0
H2207 H 0.95845 0.64328 0.21291 0.0
H2208 H 0.00303 0.70832 0.21799 0.0
H2209 H -0.00085 0.70642 0.25978 0.0
H2210 H 0.97779 0.69929 0.17992 0.0
H2211 H 0.01999 0.67559 0.21618 0.0
H2212 H 0.02655 0.653 0.24145 0.0
H2213 H 0.9857 0.60027 0.20072 0.0
H2214 H 0.97864 0.62253 0.17541 0.0
H2215 H 0.03572 0.71455 0.0775 0.0
H2216 H 0.02609 0.71233 0.11801 0.0
H2217 H 0.98145 0.64768 0.10957 0.0
H2218 H 0.99046 0.64982 0.06903 0.0
H2219 H 0.00521 0.65584 0.1489 0.0
H2220 H 0.96495 0.68089 0.11094 0.0
H2221 H 0.95938 0.7043 0.08596 0.0
H2222 H 0.99784 0.75549 0.12988 0.0
H2223 H 0.00391 0.73242 0.15495 0.0
C2224 C 0.96488 0.65606 0.24692 0.0
C2225 C 0.97686 0.67361 0.26047 0.0
C2226 C 0.96709 0.65719 0.22304 0.0
C2227 C 0.98127 0.67588 0.21246 0.0
C2228 C 0.99208 0.69374 0.22585 0.0
C2229 C 0.98995 0.69261 0.24969 0.0
C2230 C 0.98641 0.67646 0.18784 0.0
C2231 C 0.9839 0.6899 0.17313 0.0
C2232 C 0.99423 0.66407 0.17903 0.0
C2233 C 0.99861 0.65068 0.19407 0.0
C2234 C 0.01228 0.65915 0.21272 0.0
C2235 C 0.01611 0.64641 0.22704 0.0
C2236 C 0.0065 0.6252 0.22273 0.0
C2237 C 0.9931 0.6167 0.20406 0.0
C2238 C 0.98918 0.62937 0.18972 0.0
C2239 C 0.02382 0.69987 0.08424 0.0
C2240 C 0.01388 0.68237 0.06997 0.0
C2241 C 0.01836 0.69863 0.10737 0.0
C2242 C 0.00292 0.67989 0.11665 0.0
C2243 C 0.99342 0.66227 0.1027 0.0
C2244 C 0.99874 0.66351 0.07955 0.0
C2245 C 0.99654 0.67862 0.14091 0.0
C2246 C 0.99892 0.6651 0.15561 0.0
C2247 C 0.98875 0.69106 0.14969 0.0
C2248 C 0.98505 0.70495 0.1347 0.0
C2249 C 0.97237 0.69717 0.11517 0.0
C2250 C 0.96909 0.71037 0.10101 0.0
C2251 C 0.97829 0.73138 0.10629 0.0
C2252 C 0.99075 0.73921 0.12579 0.0
C2253 C 0.9941 0.72608 0.13999 0.0
H2254 H 0.97573 0.74158 0.09531 0.0
H2255 H 0.00949 0.61536 0.23383 0.0
loop_
_geom_bond_atom_site_label_1
_geom_bond_atom_site_label_2
_geom_bond_distance
_geom_bond_site_symmetry_2
_ccdc_geom_bond_type
Li0 N17 1.990 . S
Li0 O60 1.956 . S
Li0 O61 1.970 1_565 S
Li0 O62 1.961 . S
Li1 N25 1.990 . S
Li1 O60 1.970 1_545 S
Li1 O61 1.956 . S
Li1 O63 1.961 . S
Li2 N47 1.990 . S
Li2 O60 1.961 . S
Li2 O62 1.956 . S
Li2 O63 1.970 1_565 S
Li3 N53 1.990 . S
Li3 O61 1.961 . S
Li3 O62 1.970 1_545 S
Li3 O63 1.956 . S
C4 C6 1.348 . S
C4 C7 1.356 . S
C4 O60 1.325 . S
N5 C8 1.314 . S
N5 C9 1.279 . S
C6 C4 1.348 . S
C6 C8 1.353 . S
C6 H64 0.929 . S
C7 C4 1.356 . S
C7 C9 1.358 . S
C7 H65 0.930 . S
C8 N5 1.314 . S
C8 C6 1.353 . S
C8 H66 0.930 . S
C9 N5 1.279 . S
C9 C7 1.358 . S
C9 H67 0.930 . S
C10 C13 1.348 . S
C10 C14 1.356 . S
C10 O61 1.325 . S
C11 N12 1.279 . S
C11 C14 1.358 . S
C11 H68 0.930 . S
N12 C11 1.279 . S
N12 C15 1.314 . S
C13 C10 1.348 . S
C13 C15 1.353 . S
C13 H69 0.929 . S
C14 C10 1.356 . S
C14 C11 1.358 . S
C14 H70 0.930 . S
C15 N12 1.314 . S
C15 C13 1.353 . S
C15 H71 0.930 . S
C16 N17 1.314 1_545 S
C16 C21 1.353 . S
C16 H22 0.930 . S
N17 Li0 1.990 . S
N17 C16 1.314 1_565 S
N17 C19 1.279 . S
C18 C19 1.358 . S
C18 C20 1.356 . S
C18 H72 0.930 . S
C19 N17 1.279 . S
C19 C18 1.358 . S
C19 H23 0.930 . S
C20 C18 1.356 . S
C20 C21 1.348 1_565 S
C21 C16 1.353 . S
C21 C20 1.348 1_545 S
C21 H73 0.929 . S
H22 C16 0.930 . S
H23 C19 0.930 . S
C24 N25 1.314 . S
C24 C26 1.353 . S
C24 H30 0.930 1_545 S
N25 Li1 1.990 . S
N25 C24 1.314 . S
N25 C28 1.279 . S
C26 C24 1.353 . S
C26 C29 1.348 . S
C26 H74 0.929 . S
C27 C28 1.358 . S
C27 C29 1.356 . S
C27 H75 0.930 . S
C28 N25 1.279 . S
C28 C27 1.358 . S
C28 H31 0.930 . S
C29 C26 1.348 . S
C29 C27 1.356 . S
H30 C24 0.930 1_565 S
H31 C28 0.930 . S
C32 C34 1.348 . S
C32 C35 1.356 . S
C32 O62 1.325 . S
N33 C36 1.314 . S
N33 C37 1.279 . S
C34 C32 1.348 . S
C34 C36 1.353 . S
C34 H76 0.929 1_565 S
C35 C32 1.356 . S
C35 C37 1.358 . S
C35 H77 0.930 . S
C36 N33 1.314 . S
C36 C34 1.353 . S
C36 H78 0.930 . S
C37 N33 1.279 . S
C37 C35 1.358 . S
C37 H79 0.930 . S
C38 C39 1.348 1_545 S
C38 C40 1.356 . S
C38 O63 1.325 . S
C39 C38 1.348 1_565 S
C39 C41 1.353 . S
C39 H80 0.929 . S
C40 C38 1.356 . S
C40 C42 1.358 . S
C40 H81 0.930 . S
C41 C39 1.353 . S
C41 N43 1.314 1_565 S
C41 H82 0.930 . S
C42 C40 1.358 . S
C42 N43 1.279 . S
C42 H83 0.930 . S
N43 C41 1.314 1_545 S
N43 C42 1.279 . S
C44 C46 1.353 . S
C44 N47 1.314 . S
C44 H50 0.930 . S
C45 N47 1.279 . S
C45 C48 1.358 . S
C45 H51 0.930 . S
C46 C44 1.353 . S
C46 C49 1.348 . S
C46 H84 0.929 . S
N47 Li2 1.990 . S
N47 C44 1.314 . S
N47 C45 1.279 . S
C48 C45 1.358 . S
C48 C49 1.356 . S
C48 H85 0.930 . S
C49 C46 1.348 . S
C49 C48 1.356 . S
H50 C44 0.930 . S
H51 C45 0.930 . S
C52 N53 1.314 . S
C52 C54 1.353 . S
C52 H58 0.930 . S
N53 Li3 1.990 . S
N53 C52 1.314 . S
N53 C56 1.279 . S
C54 C52 1.353 . S
C54 C57 1.348 . S
C54 H86 0.929 . S
C55 C56 1.358 . S
C55 C57 1.356 . S
C55 H87 0.930 . S
C56 N53 1.279 . S
C56 C55 1.358 . S
C56 H59 0.930 . S
C57 C54 1.348 . S
C57 C55 1.356 . S
H58 C52 0.930 . S
H59 C56 0.930 . S
O60 Li0 1.956 . S
O60 Li1 1.970 1_565 S
O60 Li2 1.961 . S
O60 C4 1.325 . S
O61 Li0 1.970 1_545 S
O61 Li1 1.956 . S
O61 Li3 1.961 . S
O61 C10 1.325 . S
O62 Li0 1.961 . S
O62 Li2 1.956 . S
O62 Li3 1.970 1_565 S
O62 C32 1.325 . S
O63 Li1 1.961 . S
O63 Li2 1.970 1_545 S
O63 Li3 1.956 . S
O63 C38 1.325 . S
H64 C6 0.929 . S
H65 C7 0.930 . S
H66 C8 0.930 . S
H67 C9 0.930 . S
H68 C11 0.930 . S
H69 C13 0.929 . S
H70 C14 0.930 . S
H71 C15 0.930 . S
H72 C18 0.930 . S
H73 C21 0.929 . S
H74 C26 0.929 . S
H75 C27 0.930 . S
H76 C34 0.929 1_545 S
H77 C35 0.930 . S
H78 C36 0.930 . S
H79 C37 0.930 . S
H80 C39 0.929 . S
H81 C40 0.930 . S
H82 C41 0.930 . S
H83 C42 0.930 . S
H84 C46 0.929 . S
H85 C48 0.930 . S
H86 C54 0.929 . S
H87 C55 0.930 . S
Li88 N105 1.990 . S
Li88 O148 1.956 . S
Li88 O149 1.970 . S
Li88 O150 1.961 . S
Li89 N113 1.990 . S
Li89 O148 1.970 . S
Li89 O149 1.956 . S
Li89 O151 1.961 . S
Li90 N135 1.990 . S
Li90 O148 1.961 . S
Li90 O150 1.956 . S
Li90 O151 1.970 . S
Li91 N141 1.990 . S
Li91 O149 1.961 . S
Li91 O150 1.970 . S
Li91 O151 1.956 . S
C92 C94 1.348 . S
C92 C95 1.356 . S
C92 O148 1.325 . S
N93 C96 1.314 . S
N93 C97 1.279 . S
C94 C92 1.348 . S
C94 C96 1.353 . S
C94 H152 0.929 . S
C95 C92 1.356 . S
C95 C97 1.358 . S
C95 H153 0.930 . S
C96 N93 1.314 . S
C96 C94 1.353 . S
C96 H154 0.930 . S
C97 N93 1.279 . S
C97 C95 1.358 . S
C97 H155 0.930 . S
C98 C101 1.348 . S
C98 C102 1.356 . S
C98 O149 1.325 . S
C99 N100 1.279 . S
C99 C102 1.358 . S
C99 H156 0.930 . S
N100 C99 1.279 . S
N100 C103 1.314 . S
C101 C98 1.348 . S
C101 C103 1.353 . S
C101 H157 0.929 . S
C102 C98 1.356 . S
C102 C99 1.358 . S
C102 H158 0.930 . S
C103 N100 1.314 . S
C103 C101 1.353 . S
C103 H159 0.930 . S
C104 N105 1.314 . S
C104 C109 1.353 . S
C104 H110 0.930 . S
N105 Li88 1.990 . S
N105 C104 1.314 . S
N105 C107 1.279 . S
C106 C107 1.358 . S
C106 C108 1.356 . S
C106 H160 0.930 . S
C107 N105 1.279 . S
C107 C106 1.358 . S
C107 H111 0.930 . S
C108 C106 1.356 . S
C108 C109 1.348 . S
C109 C104 1.353 . S
C109 C108 1.348 . S
C109 H161 0.929 . S
H110 C104 0.930 . S
H111 C107 0.930 . S
C112 N113 1.314 . S
C112 C114 1.353 . S
C112 H118 0.930 . S
N113 Li89 1.990 . S
N113 C112 1.314 . S
N113 C116 1.279 . S
C114 C112 1.353 . S
C114 C117 1.348 . S
C114 H162 0.929 . S
C115 C116 1.358 . S
C115 C117 1.356 . S
C115 H163 0.930 . S
C116 N113 1.279 . S
C116 C115 1.358 . S
C116 H119 0.930 . S
C117 C114 1.348 . S
C117 C115 1.356 . S
H118 C112 0.930 . S
H119 C116 0.930 . S
C120 C122 1.348 . S
C120 C123 1.356 . S
C120 O150 1.325 . S
N121 C124 1.314 . S
N121 C125 1.279 . S
C122 C120 1.348 . S
C122 C124 1.353 . S
C122 H164 0.929 . S
C123 C120 1.356 . S
C123 C125 1.358 . S
C123 H165 0.930 . S
C124 N121 1.314 . S
C124 C122 1.353 . S
C124 H166 0.930 . S
C125 N121 1.279 . S
C125 C123 1.358 . S
C125 H167 0.930 . S
C126 C127 1.348 . S
C126 C128 1.356 . S
C126 O151 1.325 . S
C127 C126 1.348 . S
C127 C129 1.353 . S
C127 H168 0.929 . S
C128 C126 1.356 . S
C128 C130 1.358 . S
C128 H169 0.930 . S
C129 C127 1.353 . S
C129 N131 1.314 . S
C129 H170 0.930 . S
C130 C128 1.358 . S
C130 N131 1.279 . S
C130 H171 0.930 . S
N131 C129 1.314 . S
N131 C130 1.279 . S
C132 C134 1.353 . S
C132 N135 1.314 . S
C132 H138 0.930 . S
C133 N135 1.279 . S
C133 C136 1.358 . S
C133 H139 0.930 . S
C134 C132 1.353 . S
C134 C137 1.348 . S
C134 H172 0.929 . S
N135 Li90 1.990 . S
N135 C132 1.314 . S
N135 C133 1.279 . S
C136 C133 1.358 . S
C136 C137 1.356 . S
C136 H173 0.930 . S
C137 C134 1.348 . S
C137 C136 1.356 . S
H138 C132 0.930 . S
H139 C133 0.930 . S
C140 N141 1.314 . S
C140 C142 1.353 . S
C140 H146 0.930 . S
N141 Li91 1.990 . S
N141 C140 1.314 . S
N141 C144 1.279 . S
C142 C140 1.353 . S
C142 C145 1.348 . S
C142 H174 0.929 . S
C143 C144 1.358 . S
C143 C145 1.356 . S
C143 H175 0.930 . S
C144 N141 1.279 . S
C144 C143 1.358 . S
C144 H147 0.930 . S
C145 C142 1.348 . S
C145 C143 1.356 . S
H146 C140 0.930 . S
H147 C144 0.930 . S
O148 Li88 1.956 . S
O148 Li89 1.970 . S
O148 Li90 1.961 . S
O148 C92 1.325 . S
O149 Li88 1.970 . S
O149 Li89 1.956 . S
O149 Li91 1.961 . S
O149 C98 1.325 . S
O150 Li88 1.961 . S
O150 Li90 1.956 . S
O150 Li91 1.970 . S
O150 C120 1.325 . S
O151 Li89 1.961 . S
O151 Li90 1.970 . S
O151 Li91 1.956 . S
O151 C126 1.325 . S
H152 C94 0.929 . S
H153 C95 0.930 . S
H154 C96 0.930 . S
H155 C97 0.930 . S
H156 C99 0.930 . S
H157 C101 0.929 . S
H158 C102 0.930 . S
H159 C103 0.930 . S
H160 C106 0.930 . S
H161 C109 0.929 . S
H162 C114 0.929 . S
H163 C115 0.930 . S
H164 C122 0.929 . S
H165 C123 0.930 . S
H166 C124 0.930 . S
H167 C125 0.930 . S
H168 C127 0.929 . S
H169 C128 0.930 . S
H170 C129 0.930 . S
H171 C130 0.930 . S
H172 C134 0.929 . S
H173 C136 0.930 . S
H174 C142 0.929 . S
H175 C143 0.930 . S
Li176 N193 1.990 . S
Li176 O236 1.956 . S
Li176 O237 1.970 1_455 S
Li176 O238 1.961 . S
Li177 N201 1.990 1_556 S
Li177 O236 1.970 1_655 S
Li177 O237 1.956 . S
Li177 O239 1.961 . S
Li178 N223 1.990 . S
Li178 O236 1.961 . S
Li178 O238 1.956 . S
Li178 O239 1.970 1_455 S
Li179 N229 1.990 . S
Li179 O237 1.961 . S
Li179 O238 1.970 1_655 S
Li179 O239 1.956 . S
C180 C182 1.348 1_556 S
C180 C183 1.356 . S
C180 O236 1.325 . S
N181 C184 1.314 . S
N181 C185 1.279 1_554 S
C182 C180 1.348 1_554 S
C182 C184 1.353 . S
C182 H240 0.929 . S
C183 C180 1.356 . S
C183 C185 1.358 . S
C183 H241 0.930 . S
C184 N181 1.314 . S
C184 C182 1.353 . S
C184 H242 0.930 . S
C185 N181 1.279 1_556 S
C185 C183 1.358 . S
C185 H243 0.930 . S
C186 C189 1.348 . S
C186 C190 1.356 . S
C186 O237 1.325 . S
C187 N188 1.279 . S
C187 C190 1.358 . S
C187 H244 0.930 . S
N188 C187 1.279 . S
N188 C191 1.314 . S
C189 C186 1.348 . S
C189 C191 1.353 . S
C189 H245 0.929 . S
C190 C186 1.356 . S
C190 C187 1.358 . S
C190 H246 0.930 . S
C191 N188 1.314 . S
C191 C189 1.353 . S
C191 H247 0.930 . S
C192 N193 1.314 1_655 S
C192 C197 1.353 . S
C192 H198 0.930 . S
N193 Li176 1.990 . S
N193 C192 1.314 1_455 S
N193 C195 1.279 . S
C194 C195 1.358 . S
C194 C196 1.356 . S
C194 H248 0.930 . S
C195 N193 1.279 . S
C195 C194 1.358 . S
C195 H199 0.930 . S
C196 C194 1.356 . S
C196 C197 1.348 1_455 S
C197 C192 1.353 . S
C197 C196 1.348 1_655 S
C197 H249 0.929 . S
H198 C192 0.930 . S
H199 C195 0.930 . S
C200 N201 1.314 . S
C200 C202 1.353 . S
C200 H206 0.930 1_655 S
N201 Li177 1.990 1_554 S
N201 C200 1.314 . S
N201 C204 1.279 . S
C202 C200 1.353 . S
C202 C205 1.348 . S
C202 H250 0.929 . S
C203 C204 1.358 . S
C203 C205 1.356 . S
C203 H251 0.930 . S
C204 N201 1.279 . S
C204 C203 1.358 . S
C204 H207 0.930 . S
C205 C202 1.348 . S
C205 C203 1.356 . S
H206 C200 0.930 1_455 S
H207 C204 0.930 . S
C208 C210 1.348 . S
C208 C211 1.356 . S
C208 O238 1.325 . S
N209 C212 1.314 . S
N209 C213 1.279 . S
C210 C208 1.348 . S
C210 C212 1.353 . S
C210 H252 0.929 1_455 S
C211 C208 1.356 . S
C211 C213 1.358 . S
C211 H253 0.930 . S
C212 N209 1.314 . S
C212 C210 1.353 . S
C212 H254 0.930 . S
C213 N209 1.279 . S
C213 C211 1.358 . S
C213 H255 0.930 . S
C214 C215 1.348 1_655 S
C214 C216 1.356 . S
C214 O239 1.325 . S
C215 C214 1.348 1_455 S
C215 C217 1.353 . S
C215 H256 0.929 . S
C216 C214 1.356 . S
C216 C218 1.358 . S
C216 H257 0.930 . S
C217 C215 1.353 . S
C217 N219 1.314 1_455 S
C217 H258 0.930 . S
C218 C216 1.358 . S
C218 N219 1.279 . S
C218 H259 0.930 . S
N219 C217 1.314 1_655 S
N219 C218 1.279 . S
C220 C222 1.353 . S
C220 N223 1.314 . S
C220 H226 0.930 . S
C221 N223 1.279 . S
C221 C224 1.358 . S
C221 H227 0.930 . S
C222 C220 1.353 . S
C222 C225 1.348 . S
C222 H260 0.929 . S
N223 Li178 1.990 . S
N223 C220 1.314 . S
N223 C221 1.279 . S
C224 C221 1.358 . S
C224 C225 1.356 . S
C224 H261 0.930 . S
C225 C222 1.348 . S
C225 C224 1.356 . S
H226 C220 0.930 . S
H227 C221 0.930 . S
C228 N229 1.314 . S
C228 C230 1.353 . S
C228 H234 0.930 . S
N229 Li179 1.990 . S
N229 C228 1.314 . S
N229 C232 1.279 . S
C230 C228 1.353 . S
C230 C233 1.348 . S
C230 H262 0.929 . S
C231 C232 1.358 . S
C231 C233 1.356 . S
C231 H263 0.930 . S
C232 N229 1.279 . S
C232 C231 1.358 . S
C232 H235 0.930 . S
C233 C230 1.348 . S
C233 C231 1.356 . S
H234 C228 0.930 . S
H235 C232 0.930 . S
O236 Li176 1.956 . S
O236 Li177 1.970 1_455 S
O236 Li178 1.961 . S
O236 C180 1.325 . S
O237 Li176 1.970 1_655 S
O237 Li177 1.956 . S
O237 Li179 1.961 . S
O237 C186 1.325 . S
O238 Li176 1.961 . S
O238 Li178 1.956 . S
O238 Li179 1.970 1_455 S
O238 C208 1.325 . S
O239 Li177 1.961 . S
O239 Li178 1.970 1_655 S
O239 Li179 1.956 . S
O239 C214 1.325 . S
H240 C182 0.929 . S
H241 C183 0.930 . S
H242 C184 0.930 . S
H243 C185 0.930 . S
H244 C187 0.930 . S
H245 C189 0.929 . S
H246 C190 0.930 . S
H247 C191 0.930 . S
H248 C194 0.930 . S
H249 C197 0.929 . S
H250 C202 0.929 . S
H251 C203 0.930 . S
H252 C210 0.929 1_655 S
H253 C211 0.930 . S
H254 C212 0.930 . S
H255 C213 0.930 . S
H256 C215 0.929 . S
H257 C216 0.930 . S
H258 C217 0.930 . S
H259 C218 0.930 . S
H260 C222 0.929 . S
H261 C224 0.930 . S
H262 C230 0.929 . S
H263 C231 0.930 . S
Li264 N281 1.990 . S
Li264 O324 1.956 . S
Li264 O325 1.970 1_545 S
Li264 O326 1.961 . S
Li265 N289 1.990 . S
Li265 O324 1.970 1_565 S
Li265 O325 1.956 . S
Li265 O327 1.961 . S
Li266 N311 1.990 . S
Li266 O324 1.961 . S
Li266 O326 1.956 . S
Li266 O327 1.970 1_545 S
Li267 N317 1.990 . S
Li267 O325 1.961 . S
Li267 O326 1.970 1_565 S
Li267 O327 1.956 . S
C268 C270 1.348 . S
C268 C271 1.356 . S
C268 O324 1.325 . S
N269 C272 1.314 . S
N269 C273 1.279 . S
C270 C268 1.348 . S
C270 C272 1.353 . S
C270 H328 0.929 . S
C271 C268 1.356 . S
C271 C273 1.358 . S
C271 H329 0.930 . S
C272 N269 1.314 . S
C272 C270 1.353 . S
C272 H330 0.930 . S
C273 N269 1.279 . S
C273 C271 1.358 . S
C273 H331 0.930 . S
C274 C277 1.348 . S
C274 C278 1.356 . S
C274 O325 1.325 . S
C275 N276 1.279 . S
C275 C278 1.358 . S
C275 H332 0.930 . S
N276 C275 1.279 . S
N276 C279 1.314 . S
C277 C274 1.348 . S
C277 C279 1.353 . S
C277 H333 0.929 . S
C278 C274 1.356 . S
C278 C275 1.358 . S
C278 H334 0.930 . S
C279 N276 1.314 . S
C279 C277 1.353 . S
C279 H335 0.930 . S
C280 N281 1.314 1_565 S
C280 C285 1.353 . S
C280 H286 0.930 . S
N281 Li264 1.990 . S
N281 C280 1.314 1_545 S
N281 C283 1.279 . S
C282 C283 1.358 . S
C282 C284 1.356 . S
C282 H336 0.930 . S
C283 N281 1.279 . S
C283 C282 1.358 . S
C283 H287 0.930 . S
C284 C282 1.356 . S
C284 C285 1.348 1_545 S
C285 C280 1.353 . S
C285 C284 1.348 1_565 S
C285 H337 0.929 . S
H286 C280 0.930 . S
H287 C283 0.930 . S
C288 N289 1.314 . S
C288 C290 1.353 . S
C288 H294 0.930 1_565 S
N289 Li265 1.990 . S
N289 C288 1.314 . S
N289 C292 1.279 . S
C290 C288 1.353 . S
C290 C293 1.348 . S
C290 H338 0.929 . S
C291 C292 1.358 . S
C291 C293 1.356 . S
C291 H339 0.930 . S
C292 N289 1.279 . S
C292 C291 1.358 . S
C292 H295 0.930 . S
C293 C290 1.348 . S
C293 C291 1.356 . S
H294 C288 0.930 1_545 S
H295 C292 0.930 . S
C296 C298 1.348 . S
C296 C299 1.356 . S
C296 O326 1.325 . S
N297 C300 1.314 . S
N297 C301 1.279 . S
C298 C296 1.348 . S
C298 C300 1.353 . S
C298 H340 0.929 1_545 S
C299 C296 1.356 . S
C299 C301 1.358 . S
C299 H341 0.930 . S
C300 N297 1.314 . S
C300 C298 1.353 . S
C300 H342 0.930 . S
C301 N297 1.279 . S
C301 C299 1.358 . S
C301 H343 0.930 . S
C302 C303 1.348 1_565 S
C302 C304 1.356 . S
C302 O327 1.325 . S
C303 C302 1.348 1_545 S
C303 C305 1.353 . S
C303 H344 0.929 . S
C304 C302 1.356 . S
C304 C306 1.358 . S
C304 H345 0.930 . S
C305 C303 1.353 . S
C305 N307 1.314 1_545 S
C305 H346 0.930 . S
C306 C304 1.358 . S
C306 N307 1.279 . S
C306 H347 0.930 . S
N307 C305 1.314 1_565 S
N307 C306 1.279 . S
C308 C310 1.353 . S
C308 N311 1.314 . S
C308 H314 0.930 . S
C309 N311 1.279 . S
C309 C312 1.358 . S
C309 H315 0.930 . S
C310 C308 1.353 . S
C310 C313 1.348 . S
C310 H348 0.929 . S
N311 Li266 1.990 . S
N311 C308 1.314 . S
N311 C309 1.279 . S
C312 C309 1.358 . S
C312 C313 1.356 . S
C312 H349 0.930 . S
C313 C310 1.348 . S
C313 C312 1.356 . S
H314 C308 0.930 . S
H315 C309 0.930 . S
C316 N317 1.314 . S
C316 C318 1.353 . S
C316 H322 0.930 . S
N317 Li267 1.990 . S
N317 C316 1.314 . S
N317 C320 1.279 . S
C318 C316 1.353 . S
C318 C321 1.348 . S
C318 H350 0.929 . S
C319 C320 1.358 . S
C319 C321 1.356 . S
C319 H351 0.930 . S
C320 N317 1.279 . S
C320 C319 1.358 . S
C320 H323 0.930 . S
C321 C318 1.348 . S
C321 C319 1.356 . S
H322 C316 0.930 . S
H323 C320 0.930 . S
O324 Li264 1.956 . S
O324 Li265 1.970 1_545 S
O324 Li266 1.961 . S
O324 C268 1.325 . S
O325 Li264 1.970 1_565 S
O325 Li265 1.956 . S
O325 Li267 1.961 . S
O325 C274 1.325 . S
O326 Li264 1.961 . S
O326 Li266 1.956 . S
O326 Li267 1.970 1_545 S
O326 C296 1.325 . S
O327 Li265 1.961 . S
O327 Li266 1.970 1_565 S
O327 Li267 1.956 . S
O327 C302 1.325 . S
H328 C270 0.929 . S
H329 C271 0.930 . S
H330 C272 0.930 . S
H331 C273 0.930 . S
H332 C275 0.930 . S
H333 C277 0.929 . S
H334 C278 0.930 . S
H335 C279 0.930 . S
H336 C282 0.930 . S
H337 C285 0.929 . S
H338 C290 0.929 . S
H339 C291 0.930 . S
H340 C298 0.929 1_565 S
H341 C299 0.930 . S
H342 C300 0.930 . S
H343 C301 0.930 . S
H344 C303 0.929 . S
H345 C304 0.930 . S
H346 C305 0.930 . S
H347 C306 0.930 . S
H348 C310 0.929 . S
H349 C312 0.930 . S
H350 C318 0.929 . S
H351 C319 0.930 . S
Li352 N369 1.990 . S
Li352 O412 1.956 . S
Li352 O413 1.970 . S
Li352 O414 1.961 . S
Li353 N377 1.990 . S
Li353 O412 1.970 . S
Li353 O413 1.956 . S
Li353 O415 1.961 . S
Li354 N399 1.990 . S
Li354 O412 1.961 . S
Li354 O414 1.956 . S
Li354 O415 1.970 . S
Li355 N405 1.990 . S
Li355 O413 1.961 . S
Li355 O414 1.970 . S
Li355 O415 1.956 . S
C356 C358 1.348 . S
C356 C359 1.356 . S
C356 O412 1.325 . S
N357 C360 1.314 . S
N357 C361 1.279 . S
C358 C356 1.348 . S
C358 C360 1.353 . S
C358 H416 0.929 . S
C359 C356 1.356 . S
C359 C361 1.358 . S
C359 H417 0.930 . S
C360 N357 1.314 . S
C360 C358 1.353 . S
C360 H418 0.930 . S
C361 N357 1.279 . S
C361 C359 1.358 . S
C361 H419 0.930 . S
C362 C365 1.348 . S
C362 C366 1.356 . S
C362 O413 1.325 . S
C363 N364 1.279 . S
C363 C366 1.358 . S
C363 H420 0.930 . S
N364 C363 1.279 . S
N364 C367 1.314 . S
C365 C362 1.348 . S
C365 C367 1.353 . S
C365 H421 0.929 . S
C366 C362 1.356 . S
C366 C363 1.358 . S
C366 H422 0.930 . S
C367 N364 1.314 . S
C367 C365 1.353 . S
C367 H423 0.930 . S
C368 N369 1.314 . S
C368 C373 1.353 . S
C368 H374 0.930 . S
N369 Li352 1.990 . S
N369 C368 1.314 . S
N369 C371 1.279 . S
C370 C371 1.358 . S
C370 C372 1.356 . S
C370 H424 0.930 . S
C371 N369 1.279 . S
C371 C370 1.358 . S
C371 H375 0.930 . S
C372 C370 1.356 . S
C372 C373 1.348 . S
C373 C368 1.353 . S
C373 C372 1.348 . S
C373 H425 0.929 . S
H374 C368 0.930 . S
H375 C371 0.930 . S
C376 N377 1.314 . S
C376 C378 1.353 . S
C376 H382 0.930 . S
N377 Li353 1.990 . S
N377 C376 1.314 . S
N377 C380 1.279 . S
C378 C376 1.353 . S
C378 C381 1.348 . S
C378 H426 0.929 . S
C379 C380 1.358 . S
C379 C381 1.356 . S
C379 H427 0.930 . S
C380 N377 1.279 . S
C380 C379 1.358 . S
C380 H383 0.930 . S
C381 C378 1.348 . S
C381 C379 1.356 . S
H382 C376 0.930 . S
H383 C380 0.930 . S
C384 C386 1.348 . S
C384 C387 1.356 . S
C384 O414 1.325 . S
N385 C388 1.314 . S
N385 C389 1.279 . S
C386 C384 1.348 . S
C386 C388 1.353 . S
C386 H428 0.929 . S
C387 C384 1.356 . S
C387 C389 1.358 . S
C387 H429 0.930 . S
C388 N385 1.314 . S
C388 C386 1.353 . S
C388 H430 0.930 . S
C389 N385 1.279 . S
C389 C387 1.358 . S
C389 H431 0.930 . S
C390 C391 1.348 . S
C390 C392 1.356 . S
C390 O415 1.325 . S
C391 C390 1.348 . S
C391 C393 1.353 . S
C391 H432 0.929 . S
C392 C390 1.356 . S
C392 C394 1.358 . S
C392 H433 0.930 . S
C393 C391 1.353 . S
C393 N395 1.314 . S
C393 H434 0.930 . S
C394 C392 1.358 . S
C394 N395 1.279 . S
C394 H435 0.930 . S
N395 C393 1.314 . S
N395 C394 1.279 . S
C396 C398 1.353 . S
C396 N399 1.314 . S
C396 H402 0.930 . S
C397 N399 1.279 . S
C397 C400 1.358 . S
C397 H403 0.930 . S
C398 C396 1.353 . S
C398 C401 1.348 . S
C398 H436 0.929 . S
N399 Li354 1.990 . S
N399 C396 1.314 . S
N399 C397 1.279 . S
C400 C397 1.358 . S
C400 C401 1.356 . S
C400 H437 0.930 . S
C401 C398 1.348 . S
C401 C400 1.356 . S
H402 C396 0.930 . S
H403 C397 0.930 . S
C404 N405 1.314 . S
C404 C406 1.353 . S
C404 H410 0.930 . S
N405 Li355 1.990 . S
N405 C404 1.314 . S
N405 C408 1.279 . S
C406 C404 1.353 . S
C406 C409 1.348 . S
C406 H438 0.929 . S
C407 C408 1.358 . S
C407 C409 1.356 . S
C407 H439 0.930 . S
C408 N405 1.279 . S
C408 C407 1.358 . S
C408 H411 0.930 . S
C409 C406 1.348 . S
C409 C407 1.356 . S
H410 C404 0.930 . S
H411 C408 0.930 . S
O412 Li352 1.956 . S
O412 Li353 1.970 . S
O412 Li354 1.961 . S
O412 C356 1.325 . S
O413 Li352 1.970 . S
O413 Li353 1.956 . S
O413 Li355 1.961 . S
O413 C362 1.325 . S
O414 Li352 1.961 . S
O414 Li354 1.956 . S
O414 Li355 1.970 . S
O414 C384 1.325 . S
O415 Li353 1.961 . S
O415 Li354 1.970 . S
O415 Li355 1.956 . S
O415 C390 1.325 . S
H416 C358 0.929 . S
H417 C359 0.930 . S
H418 C360 0.930 . S
H419 C361 0.930 . S
H420 C363 0.930 . S
H421 C365 0.929 . S
H422 C366 0.930 . S
H423 C367 0.930 . S
H424 C370 0.930 . S
H425 C373 0.929 . S
H426 C378 0.929 . S
H427 C379 0.930 . S
H428 C386 0.929 . S
H429 C387 0.930 . S
H430 C388 0.930 . S
H431 C389 0.930 . S
H432 C391 0.929 . S
H433 C392 0.930 . S
H434 C393 0.930 . S
H435 C394 0.930 . S
H436 C398 0.929 . S
H437 C400 0.930 . S
H438 C406 0.929 . S
H439 C407 0.930 . S
Li440 N457 1.990 . S
Li440 O500 1.956 . S
Li440 O501 1.970 1_655 S
Li440 O502 1.961 . S
Li441 N465 1.990 1_556 S
Li441 O500 1.970 1_455 S
Li441 O501 1.956 . S
Li441 O503 1.961 . S
Li442 N487 1.990 . S
Li442 O500 1.961 . S
Li442 O502 1.956 . S
Li442 O503 1.970 1_655 S
Li443 N493 1.990 . S
Li443 O501 1.961 . S
Li443 O502 1.970 1_455 S
Li443 O503 1.956 . S
C444 C446 1.348 1_556 S
C444 C447 1.356 . S
C444 O500 1.325 . S
N445 C448 1.314 . S
N445 C449 1.279 1_554 S
C446 C444 1.348 1_554 S
C446 C448 1.353 . S
C446 H504 0.929 . S
C447 C444 1.356 . S
C447 C449 1.358 . S
C447 H505 0.930 . S
C448 N445 1.314 . S
C448 C446 1.353 . S
C448 H506 0.930 . S
C449 N445 1.279 1_556 S
C449 C447 1.358 . S
C449 H507 0.930 . S
C450 C453 1.348 . S
C450 C454 1.356 . S
C450 O501 1.325 . S
C451 N452 1.279 . S
C451 C454 1.358 . S
C451 H508 0.930 . S
N452 C451 1.279 . S
N452 C455 1.314 . S
C453 C450 1.348 . S
C453 C455 1.353 . S
C453 H509 0.929 . S
C454 C450 1.356 . S
C454 C451 1.358 . S
C454 H510 0.930 . S
C455 N452 1.314 . S
C455 C453 1.353 . S
C455 H511 0.930 . S
C456 N457 1.314 1_455 S
C456 C461 1.353 . S
C456 H462 0.930 . S
N457 Li440 1.990 . S
N457 C456 1.314 1_655 S
N457 C459 1.279 . S
C458 C459 1.358 . S
C458 C460 1.356 . S
C458 H512 0.930 . S
C459 N457 1.279 . S
C459 C458 1.358 . S
C459 H463 0.930 . S
C460 C458 1.356 . S
C460 C461 1.348 1_655 S
C461 C456 1.353 . S
C461 C460 1.348 1_455 S
C461 H513 0.929 . S
H462 C456 0.930 . S
H463 C459 0.930 . S
C464 N465 1.314 . S
C464 C466 1.353 . S
C464 H470 0.930 1_455 S
N465 Li441 1.990 1_554 S
N465 C464 1.314 . S
N465 C468 1.279 . S
C466 C464 1.353 . S
C466 C469 1.348 . S
C466 H514 0.929 . S
C467 C468 1.358 . S
C467 C469 1.356 . S
C467 H515 0.930 . S
C468 N465 1.279 . S
C468 C467 1.358 . S
C468 H471 0.930 . S
C469 C466 1.348 . S
C469 C467 1.356 . S
H470 C464 0.930 1_655 S
H471 C468 0.930 . S
C472 C474 1.348 . S
C472 C475 1.356 . S
C472 O502 1.325 . S
N473 C476 1.314 . S
N473 C477 1.279 . S
C474 C472 1.348 . S
C474 C476 1.353 . S
C474 H516 0.929 1_655 S
C475 C472 1.356 . S
C475 C477 1.358 . S
C475 H517 0.930 . S
C476 N473 1.314 . S
C476 C474 1.353 . S
C476 H518 0.930 . S
C477 N473 1.279 . S
C477 C475 1.358 . S
C477 H519 0.930 . S
C478 C479 1.348 1_455 S
C478 C480 1.356 . S
C478 O503 1.325 . S
C479 C478 1.348 1_655 S
C479 C481 1.353 . S
C479 H520 0.929 . S
C480 C478 1.356 . S
C480 C482 1.358 . S
C480 H521 0.930 . S
C481 C479 1.353 . S
C481 N483 1.314 1_655 S
C481 H522 0.930 . S
C482 C480 1.358 . S
C482 N483 1.279 . S
C482 H523 0.930 . S
N483 C481 1.314 1_455 S
N483 C482 1.279 . S
C484 C486 1.353 . S
C484 N487 1.314 . S
C484 H490 0.930 . S
C485 N487 1.279 . S
C485 C488 1.358 . S
C485 H491 0.930 . S
C486 C484 1.353 . S
C486 C489 1.348 . S
C486 H524 0.929 . S
N487 Li442 1.990 . S
N487 C484 1.314 . S
N487 C485 1.279 . S
C488 C485 1.358 . S
C488 C489 1.356 . S
C488 H525 0.930 . S
C489 C486 1.348 . S
C489 C488 1.356 . S
H490 C484 0.930 . S
H491 C485 0.930 . S
C492 N493 1.314 . S
C492 C494 1.353 . S
C492 H498 0.930 . S
N493 Li443 1.990 . S
N493 C492 1.314 . S
N493 C496 1.279 . S
C494 C492 1.353 . S
C494 C497 1.348 . S
C494 H526 0.929 . S
C495 C496 1.358 . S
C495 C497 1.356 . S
C495 H527 0.930 . S
C496 N493 1.279 . S
C496 C495 1.358 . S
C496 H499 0.930 . S
C497 C494 1.348 . S
C497 C495 1.356 . S
H498 C492 0.930 . S
H499 C496 0.930 . S
O500 Li440 1.956 . S
O500 Li441 1.970 1_655 S
O500 Li442 1.961 . S
O500 C444 1.325 . S
O501 Li440 1.970 1_455 S
O501 Li441 1.956 . S
O501 Li443 1.961 . S
O501 C450 1.325 . S
O502 Li440 1.961 . S
O502 Li442 1.956 . S
O502 Li443 1.970 1_655 S
O502 C472 1.325 . S
O503 Li441 1.961 . S
O503 Li442 1.970 1_455 S
O503 Li443 1.956 . S
O503 C478 1.325 . S
H504 C446 0.929 . S
H505 C447 0.930 . S
H506 C448 0.930 . S
H507 C449 0.930 . S
H508 C451 0.930 . S
H509 C453 0.929 . S
H510 C454 0.930 . S
H511 C455 0.930 . S
H512 C458 0.930 . S
H513 C461 0.929 . S
H514 C466 0.929 . S
H515 C467 0.930 . S
H516 C474 0.929 1_455 S
H517 C475 0.930 . S
H518 C476 0.930 . S
H519 C477 0.930 . S
H520 C479 0.929 . S
H521 C480 0.930 . S
H522 C481 0.930 . S
H523 C482 0.930 . S
H524 C486 0.929 . S
H525 C488 0.930 . S
H526 C494 0.929 . S
H527 C495 0.930 . S
Li528 N545 1.990 . S
Li528 O588 1.956 . S
Li528 O589 1.970 1_455 S
Li528 O590 1.961 . S
Li529 N553 1.990 . S
Li529 O588 1.970 1_655 S
Li529 O589 1.956 . S
Li529 O591 1.961 . S
Li530 N575 1.990 . S
Li530 O588 1.961 . S
Li530 O590 1.956 . S
Li530 O591 1.970 1_455 S
Li531 N581 1.990 . S
Li531 O589 1.961 . S
Li531 O590 1.970 1_655 S
Li531 O591 1.956 . S
C532 C534 1.348 . S
C532 C535 1.356 . S
C532 O588 1.325 . S
N533 C536 1.314 . S
N533 C537 1.279 . S
C534 C532 1.348 . S
C534 C536 1.353 . S
C534 H592 0.929 1_455 S
C535 C532 1.356 . S
C535 C537 1.358 . S
C535 H593 0.930 . S
C536 N533 1.314 . S
C536 C534 1.353 . S
C536 H594 0.930 . S
C537 N533 1.279 . S
C537 C535 1.358 . S
C537 H595 0.930 . S
C538 C541 1.348 1_655 S
C538 C542 1.356 . S
C538 O589 1.325 . S
C539 N540 1.279 . S
C539 C542 1.358 . S
C539 H596 0.930 . S
N540 C539 1.279 . S
N540 C543 1.314 1_655 S
C541 C538 1.348 1_455 S
C541 C543 1.353 . S
C541 H597 0.929 . S
C542 C538 1.356 . S
C542 C539 1.358 . S
C542 H598 0.930 . S
C543 N540 1.314 1_455 S
C543 C541 1.353 . S
C543 H599 0.930 . S
C544 N545 1.314 . S
C544 C549 1.353 . S
C544 H550 0.930 . S
N545 Li528 1.990 . S
N545 C544 1.314 . S
N545 C547 1.279 . S
C546 C547 1.358 . S
C546 C548 1.356 . S
C546 H600 0.930 . S
C547 N545 1.279 . S
C547 C546 1.358 . S
C547 H551 0.930 . S
C548 C546 1.356 . S
C548 C549 1.348 . S
C549 C544 1.353 . S
C549 C548 1.348 . S
C549 H601 0.929 . S
H550 C544 0.930 . S
H551 C547 0.930 . S
C552 N553 1.314 . S
C552 C554 1.353 . S
C552 H558 0.930 . S
N553 Li529 1.990 . S
N553 C552 1.314 . S
N553 C556 1.279 . S
C554 C552 1.353 . S
C554 C557 1.348 . S
C554 H602 0.929 . S
C555 C556 1.358 . S
C555 C557 1.356 . S
C555 H603 0.930 . S
C556 N553 1.279 . S
C556 C555 1.358 . S
C556 H559 0.930 . S
C557 C554 1.348 . S
C557 C555 1.356 . S
H558 C552 0.930 . S
H559 C556 0.930 . S
C560 C562 1.348 . S
C560 C563 1.356 . S
C560 O590 1.325 . S
N561 C564 1.314 . S
N561 C565 1.279 . S
C562 C560 1.348 . S
C562 C564 1.353 . S
C562 H604 0.929 . S
C563 C560 1.356 . S
C563 C565 1.358 . S
C563 H605 0.930 . S
C564 N561 1.314 . S
C564 C562 1.353 . S
C564 H606 0.930 . S
C565 N561 1.279 . S
C565 C563 1.358 . S
C565 H607 0.930 . S
C566 C567 1.348 . S
C566 C568 1.356 . S
C566 O591 1.325 . S
C567 C566 1.348 . S
C567 C569 1.353 . S
C567 H608 0.929 . S
C568 C566 1.356 . S
C568 C570 1.358 . S
C568 H609 0.930 . S
C569 C567 1.353 . S
C569 N571 1.314 . S
C569 H610 0.930 . S
C570 C568 1.358 . S
C570 N571 1.279 . S
C570 H611 0.930 . S
N571 C569 1.314 . S
N571 C570 1.279 . S
C572 C574 1.353 . S
C572 N575 1.314 1_655 S
C572 H578 0.930 . S
C573 N575 1.279 . S
C573 C576 1.358 . S
C573 H579 0.930 . S
C574 C572 1.353 . S
C574 C577 1.348 1_655 S
C574 H612 0.929 . S
N575 Li530 1.990 . S
N575 C572 1.314 1_455 S
N575 C573 1.279 . S
C576 C573 1.358 . S
C576 C577 1.356 . S
C576 H613 0.930 . S
C577 C574 1.348 1_455 S
C577 C576 1.356 . S
H578 C572 0.930 . S
H579 C573 0.930 . S
C580 N581 1.314 . S
C580 C582 1.353 . S
C580 H586 0.930 1_655 S
N581 Li531 1.990 . S
N581 C580 1.314 . S
N581 C584 1.279 . S
C582 C580 1.353 . S
C582 C585 1.348 . S
C582 H614 0.929 . S
C583 C584 1.358 . S
C583 C585 1.356 . S
C583 H615 0.930 . S
C584 N581 1.279 . S
C584 C583 1.358 . S
C584 H587 0.930 . S
C585 C582 1.348 . S
C585 C583 1.356 . S
H586 C580 0.930 1_455 S
H587 C584 0.930 . S
O588 Li528 1.956 . S
O588 Li529 1.970 1_455 S
O588 Li530 1.961 . S
O588 C532 1.325 . S
O589 Li528 1.970 1_655 S
O589 Li529 1.956 . S
O589 Li531 1.961 . S
O589 C538 1.325 . S
O590 Li528 1.961 . S
O590 Li530 1.956 . S
O590 Li531 1.970 1_455 S
O590 C560 1.325 . S
O591 Li529 1.961 . S
O591 Li530 1.970 1_655 S
O591 Li531 1.956 . S
O591 C566 1.325 . S
H592 C534 0.929 1_655 S
H593 C535 0.930 . S
H594 C536 0.930 . S
H595 C537 0.930 . S
H596 C539 0.930 . S
H597 C541 0.929 . S
H598 C542 0.930 . S
H599 C543 0.930 . S
H600 C546 0.930 . S
H601 C549 0.929 . S
H602 C554 0.929 . S
H603 C555 0.930 . S
H604 C562 0.929 . S
H605 C563 0.930 . S
H606 C564 0.930 . S
H607 C565 0.930 . S
H608 C567 0.929 . S
H609 C568 0.930 . S
H610 C569 0.930 . S
H611 C570 0.930 . S
H612 C574 0.929 . S
H613 C576 0.930 . S
H614 C582 0.929 . S
H615 C583 0.930 . S
Li616 N633 1.990 . S
Li616 O676 1.956 . S
Li616 O677 1.970 1_545 S
Li616 O678 1.961 . S
Li617 N641 1.990 . S
Li617 O676 1.970 1_565 S
Li617 O677 1.956 . S
Li617 O679 1.961 . S
Li618 N663 1.990 . S
Li618 O676 1.961 . S
Li618 O678 1.956 . S
Li618 O679 1.970 1_545 S
Li619 N669 1.990 . S
Li619 O677 1.961 . S
Li619 O678 1.970 1_565 S
Li619 O679 1.956 . S
C620 C622 1.348 . S
C620 C623 1.356 . S
C620 O676 1.325 . S
N621 C624 1.314 . S
N621 C625 1.279 . S
C622 C620 1.348 . S
C622 C624 1.353 . S
C622 H680 0.929 1_545 S
C623 C620 1.356 . S
C623 C625 1.358 . S
C623 H681 0.930 . S
C624 N621 1.314 . S
C624 C622 1.353 . S
C624 H682 0.930 . S
C625 N621 1.279 . S
C625 C623 1.358 . S
C625 H683 0.930 . S
C626 C629 1.348 1_565 S
C626 C630 1.356 . S
C626 O677 1.325 . S
C627 N628 1.279 . S
C627 C630 1.358 . S
C627 H684 0.930 . S
N628 C627 1.279 . S
N628 C631 1.314 1_565 S
C629 C626 1.348 1_545 S
C629 C631 1.353 . S
C629 H685 0.929 . S
C630 C626 1.356 . S
C630 C627 1.358 . S
C630 H686 0.930 . S
C631 N628 1.314 1_545 S
C631 C629 1.353 . S
C631 H687 0.930 . S
C632 N633 1.314 . S
C632 C637 1.353 . S
C632 H638 0.930 . S
N633 Li616 1.990 . S
N633 C632 1.314 . S
N633 C635 1.279 . S
C634 C635 1.358 . S
C634 C636 1.356 . S
C634 H688 0.930 . S
C635 N633 1.279 . S
C635 C634 1.358 . S
C635 H639 0.930 . S
C636 C634 1.356 . S
C636 C637 1.348 . S
C637 C632 1.353 . S
C637 C636 1.348 . S
C637 H689 0.929 . S
H638 C632 0.930 . S
H639 C635 0.930 . S
C640 N641 1.314 . S
C640 C642 1.353 . S
C640 H646 0.930 . S
N641 Li617 1.990 . S
N641 C640 1.314 . S
N641 C644 1.279 . S
C642 C640 1.353 . S
C642 C645 1.348 . S
C642 H690 0.929 . S
C643 C644 1.358 . S
C643 C645 1.356 . S
C643 H691 0.930 . S
C644 N641 1.279 . S
C644 C643 1.358 . S
C644 H647 0.930 . S
C645 C642 1.348 . S
C645 C643 1.356 . S
H646 C640 0.930 . S
H647 C644 0.930 . S
C648 C650 1.348 . S
C648 C651 1.356 . S
C648 O678 1.325 . S
N649 C652 1.314 . S
N649 C653 1.279 . S
C650 C648 1.348 . S
C650 C652 1.353 . S
C650 H692 0.929 . S
C651 C648 1.356 . S
C651 C653 1.358 . S
C651 H693 0.930 . S
C652 N649 1.314 . S
C652 C650 1.353 . S
C652 H694 0.930 . S
C653 N649 1.279 . S
C653 C651 1.358 . S
C653 H695 0.930 . S
C654 C655 1.348 . S
C654 C656 1.356 . S
C654 O679 1.325 . S
C655 C654 1.348 . S
C655 C657 1.353 . S
C655 H696 0.929 . S
C656 C654 1.356 . S
C656 C658 1.358 . S
C656 H697 0.930 . S
C657 C655 1.353 . S
C657 N659 1.314 . S
C657 H698 0.930 . S
C658 C656 1.358 . S
C658 N659 1.279 . S
C658 H699 0.930 . S
N659 C657 1.314 . S
N659 C658 1.279 . S
C660 C662 1.353 . S
C660 N663 1.314 1_565 S
C660 H666 0.930 . S
C661 N663 1.279 . S
C661 C664 1.358 . S
C661 H667 0.930 . S
C662 C660 1.353 . S
C662 C665 1.348 1_565 S
C662 H700 0.929 . S
N663 Li618 1.990 . S
N663 C660 1.314 1_545 S
N663 C661 1.279 . S
C664 C661 1.358 . S
C664 C665 1.356 . S
C664 H701 0.930 . S
C665 C662 1.348 1_545 S
C665 C664 1.356 . S
H666 C660 0.930 . S
H667 C661 0.930 . S
C668 N669 1.314 . S
C668 C670 1.353 . S
C668 H674 0.930 1_565 S
N669 Li619 1.990 . S
N669 C668 1.314 . S
N669 C672 1.279 . S
C670 C668 1.353 . S
C670 C673 1.348 . S
C670 H702 0.929 . S
C671 C672 1.358 . S
C671 C673 1.356 . S
C671 H703 0.930 . S
C672 N669 1.279 . S
C672 C671 1.358 . S
C672 H675 0.930 . S
C673 C670 1.348 . S
C673 C671 1.356 . S
H674 C668 0.930 1_545 S
H675 C672 0.930 . S
O676 Li616 1.956 . S
O676 Li617 1.970 1_545 S
O676 Li618 1.961 . S
O676 C620 1.325 . S
O677 Li616 1.970 1_565 S
O677 Li617 1.956 . S
O677 Li619 1.961 . S
O677 C626 1.325 . S
O678 Li616 1.961 . S
O678 Li618 1.956 . S
O678 Li619 1.970 1_545 S
O678 C648 1.325 . S
O679 Li617 1.961 . S
O679 Li618 1.970 1_565 S
O679 Li619 1.956 . S
O679 C654 1.325 . S
H680 C622 0.929 1_565 S
H681 C623 0.930 . S
H682 C624 0.930 . S
H683 C625 0.930 . S
H684 C627 0.930 . S
H685 C629 0.929 . S
H686 C630 0.930 . S
H687 C631 0.930 . S
H688 C634 0.930 . S
H689 C637 0.929 . S
H690 C642 0.929 . S
H691 C643 0.930 . S
H692 C650 0.929 . S
H693 C651 0.930 . S
H694 C652 0.930 . S
H695 C653 0.930 . S
H696 C655 0.929 . S
H697 C656 0.930 . S
H698 C657 0.930 . S
H699 C658 0.930 . S
H700 C662 0.929 . S
H701 C664 0.930 . S
H702 C670 0.929 . S
H703 C671 0.930 . S
Li704 N721 1.990 . S
Li704 O764 1.956 . S
Li704 O765 1.970 . S
Li704 O766 1.961 . S
Li705 N729 1.990 . S
Li705 O764 1.970 . S
Li705 O765 1.956 . S
Li705 O767 1.961 . S
Li706 N751 1.990 . S
Li706 O764 1.961 . S
Li706 O766 1.956 . S
Li706 O767 1.970 . S
Li707 N757 1.990 1_554 S
Li707 O765 1.961 . S
Li707 O766 1.970 . S
Li707 O767 1.956 . S
C708 C710 1.348 . S
C708 C711 1.356 . S
C708 O764 1.325 . S
N709 C712 1.314 . S
N709 C713 1.279 . S
C710 C708 1.348 . S
C710 C712 1.353 . S
C710 H768 0.929 . S
C711 C708 1.356 . S
C711 C713 1.358 . S
C711 H769 0.930 . S
C712 N709 1.314 . S
C712 C710 1.353 . S
C712 H770 0.930 . S
C713 N709 1.279 . S
C713 C711 1.358 . S
C713 H771 0.930 . S
C714 C717 1.348 . S
C714 C718 1.356 . S
C714 O765 1.325 . S
C715 N716 1.279 . S
C715 C718 1.358 . S
C715 H772 0.930 . S
N716 C715 1.279 . S
N716 C719 1.314 . S
C717 C714 1.348 . S
C717 C719 1.353 . S
C717 H773 0.929 . S
C718 C714 1.356 . S
C718 C715 1.358 . S
C718 H774 0.930 . S
C719 N716 1.314 . S
C719 C717 1.353 . S
C719 H775 0.930 . S
C720 N721 1.314 . S
C720 C725 1.353 . S
C720 H726 0.930 . S
N721 Li704 1.990 . S
N721 C720 1.314 . S
N721 C723 1.279 . S
C722 C723 1.358 . S
C722 C724 1.356 . S
C722 H776 0.930 . S
C723 N721 1.279 . S
C723 C722 1.358 . S
C723 H727 0.930 . S
C724 C722 1.356 . S
C724 C725 1.348 . S
C725 C720 1.353 . S
C725 C724 1.348 . S
C725 H777 0.929 . S
H726 C720 0.930 . S
H727 C723 0.930 . S
C728 N729 1.314 . S
C728 C730 1.353 . S
C728 H734 0.930 . S
N729 Li705 1.990 . S
N729 C728 1.314 . S
N729 C732 1.279 . S
C730 C728 1.353 . S
C730 C733 1.348 . S
C730 H778 0.929 . S
C731 C732 1.358 . S
C731 C733 1.356 . S
C731 H779 0.930 . S
C732 N729 1.279 . S
C732 C731 1.358 . S
C732 H735 0.930 . S
C733 C730 1.348 . S
C733 C731 1.356 . S
H734 C728 0.930 . S
H735 C732 0.930 . S
C736 C738 1.348 1_554 S
C736 C739 1.356 . S
C736 O766 1.325 . S
N737 C740 1.314 . S
N737 C741 1.279 1_556 S
C738 C736 1.348 1_556 S
C738 C740 1.353 . S
C738 H780 0.929 . S
C739 C736 1.356 . S
C739 C741 1.358 . S
C739 H781 0.930 . S
C740 N737 1.314 . S
C740 C738 1.353 . S
C740 H782 0.930 . S
C741 N737 1.279 1_554 S
C741 C739 1.358 . S
C741 H783 0.930 . S
C742 C743 1.348 . S
C742 C744 1.356 . S
C742 O767 1.325 . S
C743 C742 1.348 . S
C743 C745 1.353 . S
C743 H784 0.929 . S
C744 C742 1.356 . S
C744 C746 1.358 . S
C744 H785 0.930 . S
C745 C743 1.353 . S
C745 N747 1.314 . S
C745 H786 0.930 . S
C746 C744 1.358 . S
C746 N747 1.279 . S
C746 H787 0.930 . S
N747 C745 1.314 . S
N747 C746 1.279 . S
C748 C750 1.353 . S
C748 N751 1.314 . S
C748 H754 0.930 . S
C749 N751 1.279 . S
C749 C752 1.358 . S
C749 H755 0.930 . S
C750 C748 1.353 . S
C750 C753 1.348 . S
C750 H788 0.929 . S
N751 Li706 1.990 . S
N751 C748 1.314 . S
N751 C749 1.279 . S
C752 C749 1.358 . S
C752 C753 1.356 . S
C752 H789 0.930 . S
C753 C750 1.348 . S
C753 C752 1.356 . S
H754 C748 0.930 . S
H755 C749 0.930 . S
C756 N757 1.314 . S
C756 C758 1.353 . S
C756 H762 0.930 . S
N757 Li707 1.990 1_556 S
N757 C756 1.314 . S
N757 C760 1.279 . S
C758 C756 1.353 . S
C758 C761 1.348 . S
C758 H790 0.929 . S
C759 C760 1.358 . S
C759 C761 1.356 . S
C759 H791 0.930 . S
C760 N757 1.279 . S
C760 C759 1.358 . S
C760 H763 0.930 . S
C761 C758 1.348 . S
C761 C759 1.356 . S
H762 C756 0.930 . S
H763 C760 0.930 . S
O764 Li704 1.956 . S
O764 Li705 1.970 . S
O764 Li706 1.961 . S
O764 C708 1.325 . S
O765 Li704 1.970 . S
O765 Li705 1.956 . S
O765 Li707 1.961 . S
O765 C714 1.325 . S
O766 Li704 1.961 . S
O766 Li706 1.956 . S
O766 Li707 1.970 . S
O766 C736 1.325 . S
O767 Li705 1.961 . S
O767 Li706 1.970 . S
O767 Li707 1.956 . S
O767 C742 1.325 . S
H768 C710 0.929 . S
H769 C711 0.930 . S
H770 C712 0.930 . S
H771 C713 0.930 . S
H772 C715 0.930 . S
H773 C717 0.929 . S
H774 C718 0.930 . S
H775 C719 0.930 . S
H776 C722 0.930 . S
H777 C725 0.929 . S
H778 C730 0.929 . S
H779 C731 0.930 . S
H780 C738 0.929 . S
H781 C739 0.930 . S
H782 C740 0.930 . S
H783 C741 0.930 . S
H784 C743 0.929 . S
H785 C744 0.930 . S
H786 C745 0.930 . S
H787 C746 0.930 . S
H788 C750 0.929 . S
H789 C752 0.930 . S
H790 C758 0.929 . S
H791 C759 0.930 . S
Li792 N809 1.990 . S
Li792 O852 1.956 . S
Li792 O853 1.970 1_455 S
Li792 O854 1.961 . S
Li793 N817 1.990 . S
Li793 O852 1.970 1_655 S
Li793 O853 1.956 . S
Li793 O855 1.961 . S
Li794 N839 1.990 . S
Li794 O852 1.961 . S
Li794 O854 1.956 . S
Li794 O855 1.970 1_455 S
Li795 N845 1.990 . S
Li795 O853 1.961 . S
Li795 O854 1.970 1_655 S
Li795 O855 1.956 . S
C796 C798 1.348 1_455 S
C796 C799 1.356 . S
C796 O852 1.325 . S
N797 C800 1.314 1_455 S
N797 C801 1.279 . S
C798 C796 1.348 1_655 S
C798 C800 1.353 . S
C798 H856 0.929 . S
C799 C796 1.356 . S
C799 C801 1.358 . S
C799 H857 0.930 . S
C800 N797 1.314 1_655 S
C800 C798 1.353 . S
C800 H858 0.930 . S
C801 N797 1.279 . S
C801 C799 1.358 . S
C801 H859 0.930 . S
C802 C805 1.348 . S
C802 C806 1.356 . S
C802 O853 1.325 . S
C803 N804 1.279 . S
C803 C806 1.358 . S
C803 H860 0.930 . S
N804 C803 1.279 . S
N804 C807 1.314 . S
C805 C802 1.348 . S
C805 C807 1.353 . S
C805 H861 0.929 1_655 S
C806 C802 1.356 . S
C806 C803 1.358 . S
C806 H862 0.930 . S
C807 N804 1.314 . S
C807 C805 1.353 . S
C807 H863 0.930 . S
C808 N809 1.314 . S
C808 C813 1.353 . S
C808 H814 0.930 . S
N809 Li792 1.990 . S
N809 C808 1.314 . S
N809 C811 1.279 . S
C810 C811 1.358 . S
C810 C812 1.356 . S
C810 H864 0.930 . S
C811 N809 1.279 . S
C811 C810 1.358 . S
C811 H815 0.930 . S
C812 C810 1.356 . S
C812 C813 1.348 . S
C813 C808 1.353 . S
C813 C812 1.348 . S
C813 H865 0.929 . S
H814 C808 0.930 . S
H815 C811 0.930 . S
C816 N817 1.314 . S
C816 C818 1.353 . S
C816 H822 0.930 . S
N817 Li793 1.990 . S
N817 C816 1.314 . S
N817 C820 1.279 . S
C818 C816 1.353 . S
C818 C821 1.348 . S
C818 H866 0.929 . S
C819 C820 1.358 . S
C819 C821 1.356 . S
C819 H867 0.930 . S
C820 N817 1.279 . S
C820 C819 1.358 . S
C820 H823 0.930 . S
C821 C818 1.348 . S
C821 C819 1.356 . S
H822 C816 0.930 . S
H823 C820 0.930 . S
C824 C826 1.348 . S
C824 C827 1.356 . S
C824 O854 1.325 . S
N825 C828 1.314 . S
N825 C829 1.279 . S
C826 C824 1.348 . S
C826 C828 1.353 . S
C826 H868 0.929 . S
C827 C824 1.356 . S
C827 C829 1.358 . S
C827 H869 0.930 . S
C828 N825 1.314 . S
C828 C826 1.353 . S
C828 H870 0.930 . S
C829 N825 1.279 . S
C829 C827 1.358 . S
C829 H871 0.930 . S
C830 C831 1.348 . S
C830 C832 1.356 . S
C830 O855 1.325 . S
C831 C830 1.348 . S
C831 C833 1.353 . S
C831 H872 0.929 . S
C832 C830 1.356 . S
C832 C834 1.358 . S
C832 H873 0.930 . S
C833 C831 1.353 . S
C833 N835 1.314 . S
C833 H874 0.930 . S
C834 C832 1.358 . S
C834 N835 1.279 . S
C834 H875 0.930 . S
N835 C833 1.314 . S
N835 C834 1.279 . S
C836 C838 1.353 . S
C836 N839 1.314 . S
C836 H842 0.930 1_455 S
C837 N839 1.279 . S
C837 C840 1.358 . S
C837 H843 0.930 . S
C838 C836 1.353 . S
C838 C841 1.348 . S
C838 H876 0.929 . S
N839 Li794 1.990 . S
N839 C836 1.314 . S
N839 C837 1.279 . S
C840 C837 1.358 . S
C840 C841 1.356 . S
C840 H877 0.930 . S
C841 C838 1.348 . S
C841 C840 1.356 . S
H842 C836 0.930 1_655 S
H843 C837 0.930 . S
C844 N845 1.314 1_455 S
C844 C846 1.353 . S
C844 H850 0.930 . S
N845 Li795 1.990 . S
N845 C844 1.314 1_655 S
N845 C848 1.279 . S
C846 C844 1.353 . S
C846 C849 1.348 1_455 S
C846 H878 0.929 . S
C847 C848 1.358 . S
C847 C849 1.356 . S
C847 H879 0.930 . S
C848 N845 1.279 . S
C848 C847 1.358 . S
C848 H851 0.930 . S
C849 C846 1.348 1_655 S
C849 C847 1.356 . S
H850 C844 0.930 . S
H851 C848 0.930 . S
O852 Li792 1.956 . S
O852 Li793 1.970 1_455 S
O852 Li794 1.961 . S
O852 C796 1.325 . S
O853 Li792 1.970 1_655 S
O853 Li793 1.956 . S
O853 Li795 1.961 . S
O853 C802 1.325 . S
O854 Li792 1.961 . S
O854 Li794 1.956 . S
O854 Li795 1.970 1_455 S
O854 C824 1.325 . S
O855 Li793 1.961 . S
O855 Li794 1.970 1_655 S
O855 Li795 1.956 . S
O855 C830 1.325 . S
H856 C798 0.929 . S
H857 C799 0.930 . S
H858 C800 0.930 . S
H859 C801 0.930 . S
H860 C803 0.930 . S
H861 C805 0.929 1_455 S
H862 C806 0.930 . S
H863 C807 0.930 . S
H864 C810 0.930 . S
H865 C813 0.929 . S
H866 C818 0.929 . S
H867 C819 0.930 . S
H868 C826 0.929 . S
H869 C827 0.930 . S
H870 C828 0.930 . S
H871 C829 0.930 . S
H872 C831 0.929 . S
H873 C832 0.930 . S
H874 C833 0.930 . S
H875 C834 0.930 . S
H876 C838 0.929 . S
H877 C840 0.930 . S
H878 C846 0.929 . S
H879 C847 0.930 . S
Li880 N897 1.990 . S
Li880 O940 1.956 . S
Li880 O941 1.970 1_545 S
Li880 O942 1.961 . S
Li881 N905 1.990 . S
Li881 O940 1.970 1_565 S
Li881 O941 1.956 . S
Li881 O943 1.961 . S
Li882 N927 1.990 . S
Li882 O940 1.961 . S
Li882 O942 1.956 . S
Li882 O943 1.970 1_545 S
Li883 N933 1.990 . S
Li883 O941 1.961 . S
Li883 O942 1.970 1_565 S
Li883 O943 1.956 . S
C884 C886 1.348 1_545 S
C884 C887 1.356 . S
C884 O940 1.325 . S
N885 C888 1.314 1_545 S
N885 C889 1.279 . S
C886 C884 1.348 1_565 S
C886 C888 1.353 . S
C886 H944 0.929 . S
C887 C884 1.356 . S
C887 C889 1.358 . S
C887 H945 0.930 . S
C888 N885 1.314 1_565 S
C888 C886 1.353 . S
C888 H946 0.930 . S
C889 N885 1.279 . S
C889 C887 1.358 . S
C889 H947 0.930 . S
C890 C893 1.348 . S
C890 C894 1.356 . S
C890 O941 1.325 . S
C891 N892 1.279 . S
C891 C894 1.358 . S
C891 H948 0.930 . S
N892 C891 1.279 . S
N892 C895 1.314 . S
C893 C890 1.348 . S
C893 C895 1.353 . S
C893 H949 0.929 1_565 S
C894 C890 1.356 . S
C894 C891 1.358 . S
C894 H950 0.930 . S
C895 N892 1.314 . S
C895 C893 1.353 . S
C895 H951 0.930 . S
C896 N897 1.314 . S
C896 C901 1.353 . S
C896 H902 0.930 . S
N897 Li880 1.990 . S
N897 C896 1.314 . S
N897 C899 1.279 . S
C898 C899 1.358 . S
C898 C900 1.356 . S
C898 H952 0.930 . S
C899 N897 1.279 . S
C899 C898 1.358 . S
C899 H903 0.930 . S
C900 C898 1.356 . S
C900 C901 1.348 . S
C901 C896 1.353 . S
C901 C900 1.348 . S
C901 H953 0.929 . S
H902 C896 0.930 . S
H903 C899 0.930 . S
C904 N905 1.314 . S
C904 C906 1.353 . S
C904 H910 0.930 . S
N905 Li881 1.990 . S
N905 C904 1.314 . S
N905 C908 1.279 . S
C906 C904 1.353 . S
C906 C909 1.348 . S
C906 H954 0.929 . S
C907 C908 1.358 . S
C907 C909 1.356 . S
C907 H955 0.930 . S
C908 N905 1.279 . S
C908 C907 1.358 . S
C908 H911 0.930 . S
C909 C906 1.348 . S
C909 C907 1.356 . S
H910 C904 0.930 . S
H911 C908 0.930 . S
C912 C914 1.348 . S
C912 C915 1.356 . S
C912 O942 1.325 . S
N913 C916 1.314 . S
N913 C917 1.279 . S
C914 C912 1.348 . S
C914 C916 1.353 . S
C914 H956 0.929 . S
C915 C912 1.356 . S
C915 C917 1.358 . S
C915 H957 0.930 . S
C916 N913 1.314 . S
C916 C914 1.353 . S
C916 H958 0.930 . S
C917 N913 1.279 . S
C917 C915 1.358 . S
C917 H959 0.930 . S
C918 C919 1.348 . S
C918 C920 1.356 . S
C918 O943 1.325 . S
C919 C918 1.348 . S
C919 C921 1.353 . S
C919 H960 0.929 . S
C920 C918 1.356 . S
C920 C922 1.358 . S
C920 H961 0.930 . S
C921 C919 1.353 . S
C921 N923 1.314 . S
C921 H962 0.930 . S
C922 C920 1.358 . S
C922 N923 1.279 . S
C922 H963 0.930 . S
N923 C921 1.314 . S
N923 C922 1.279 . S
C924 C926 1.353 . S
C924 N927 1.314 . S
C924 H930 0.930 1_545 S
C925 N927 1.279 . S
C925 C928 1.358 . S
C925 H931 0.930 . S
C926 C924 1.353 . S
C926 C929 1.348 . S
C926 H964 0.929 . S
N927 Li882 1.990 . S
N927 C924 1.314 . S
N927 C925 1.279 . S
C928 C925 1.358 . S
C928 C929 1.356 . S
C928 H965 0.930 . S
C929 C926 1.348 . S
C929 C928 1.356 . S
H930 C924 0.930 1_565 S
H931 C925 0.930 . S
C932 N933 1.314 1_545 S
C932 C934 1.353 . S
C932 H938 0.930 . S
N933 Li883 1.990 . S
N933 C932 1.314 1_565 S
N933 C936 1.279 . S
C934 C932 1.353 . S
C934 C937 1.348 1_545 S
C934 H966 0.929 . S
C935 C936 1.358 . S
C935 C937 1.356 . S
C935 H967 0.930 . S
C936 N933 1.279 . S
C936 C935 1.358 . S
C936 H939 0.930 . S
C937 C934 1.348 1_565 S
C937 C935 1.356 . S
H938 C932 0.930 . S
H939 C936 0.930 . S
O940 Li880 1.956 . S
O940 Li881 1.970 1_545 S
O940 Li882 1.961 . S
O940 C884 1.325 . S
O941 Li880 1.970 1_565 S
O941 Li881 1.956 . S
O941 Li883 1.961 . S
O941 C890 1.325 . S
O942 Li880 1.961 . S
O942 Li882 1.956 . S
O942 Li883 1.970 1_545 S
O942 C912 1.325 . S
O943 Li881 1.961 . S
O943 Li882 1.970 1_565 S
O943 Li883 1.956 . S
O943 C918 1.325 . S
H944 C886 0.929 . S
H945 C887 0.930 . S
H946 C888 0.930 . S
H947 C889 0.930 . S
H948 C891 0.930 . S
H949 C893 0.929 1_545 S
H950 C894 0.930 . S
H951 C895 0.930 . S
H952 C898 0.930 . S
H953 C901 0.929 . S
H954 C906 0.929 . S
H955 C907 0.930 . S
H956 C914 0.929 . S
H957 C915 0.930 . S
H958 C916 0.930 . S
H959 C917 0.930 . S
H960 C919 0.929 . S
H961 C920 0.930 . S
H962 C921 0.930 . S
H963 C922 0.930 . S
H964 C926 0.929 . S
H965 C928 0.930 . S
H966 C934 0.929 . S
H967 C935 0.930 . S
Li968 N985 1.990 . S
Li968 O1028 1.956 . S
Li968 O1029 1.970 . S
Li968 O1030 1.961 . S
Li969 N993 1.990 . S
Li969 O1028 1.970 . S
Li969 O1029 1.956 . S
Li969 O1031 1.961 . S
Li970 N1015 1.990 1_554 S
Li970 O1028 1.961 . S
Li970 O1030 1.956 . S
Li970 O1031 1.970 . S
Li971 N1021 1.990 . S
Li971 O1029 1.961 . S
Li971 O1030 1.970 . S
Li971 O1031 1.956 . S
C972 C974 1.348 . S
C972 C975 1.356 . S
C972 O1028 1.325 . S
N973 C976 1.314 . S
N973 C977 1.279 . S
C974 C972 1.348 . S
C974 C976 1.353 . S
C974 H1032 0.929 . S
C975 C972 1.356 . S
C975 C977 1.358 . S
C975 H1033 0.930 . S
C976 N973 1.314 . S
C976 C974 1.353 . S
C976 H1034 0.930 . S
C977 N973 1.279 . S
C977 C975 1.358 . S
C977 H1035 0.930 . S
C978 C981 1.348 . S
C978 C982 1.356 . S
C978 O1029 1.325 . S
C979 N980 1.279 . S
C979 C982 1.358 . S
C979 H1036 0.930 . S
N980 C979 1.279 . S
N980 C983 1.314 . S
C981 C978 1.348 . S
C981 C983 1.353 . S
C981 H1037 0.929 . S
C982 C978 1.356 . S
C982 C979 1.358 . S
C982 H1038 0.930 . S
C983 N980 1.314 . S
C983 C981 1.353 . S
C983 H1039 0.930 . S
C984 N985 1.314 . S
C984 C989 1.353 . S
C984 H990 0.930 . S
N985 Li968 1.990 . S
N985 C984 1.314 . S
N985 C987 1.279 . S
C986 C987 1.358 . S
C986 C988 1.356 . S
C986 H1040 0.930 . S
C987 N985 1.279 . S
C987 C986 1.358 . S
C987 H991 0.930 . S
C988 C986 1.356 . S
C988 C989 1.348 . S
C989 C984 1.353 . S
C989 C988 1.348 . S
C989 H1041 0.929 . S
H990 C984 0.930 . S
H991 C987 0.930 . S
C992 N993 1.314 . S
C992 C994 1.353 . S
C992 H998 0.930 . S
N993 Li969 1.990 . S
N993 C992 1.314 . S
N993 C996 1.279 . S
C994 C992 1.353 . S
C994 C997 1.348 . S
C994 H1042 0.929 . S
C995 C996 1.358 . S
C995 C997 1.356 . S
C995 H1043 0.930 . S
C996 N993 1.279 . S
C996 C995 1.358 . S
C996 H999 0.930 . S
C997 C994 1.348 . S
C997 C995 1.356 . S
H998 C992 0.930 . S
H999 C996 0.930 . S
C1000 C1002 1.348 . S
C1000 C1003 1.356 . S
C1000 O1030 1.325 . S
N1001 C1004 1.314 . S
N1001 C1005 1.279 . S
C1002 C1000 1.348 . S
C1002 C1004 1.353 . S
C1002 H1044 0.929 . S
C1003 C1000 1.356 . S
C1003 C1005 1.358 . S
C1003 H1045 0.930 . S
C1004 N1001 1.314 . S
C1004 C1002 1.353 . S
C1004 H1046 0.930 . S
C1005 N1001 1.279 . S
C1005 C1003 1.358 . S
C1005 H1047 0.930 . S
C1006 C1007 1.348 1_554 S
C1006 C1008 1.356 . S
C1006 O1031 1.325 . S
C1007 C1006 1.348 1_556 S
C1007 C1009 1.353 . S
C1007 H1048 0.929 . S
C1008 C1006 1.356 . S
C1008 C1010 1.358 . S
C1008 H1049 0.930 . S
C1009 C1007 1.353 . S
C1009 N1011 1.314 . S
C1009 H1050 0.930 . S
C1010 C1008 1.358 . S
C1010 N1011 1.279 1_554 S
C1010 H1051 0.930 . S
N1011 C1009 1.314 . S
N1011 C1010 1.279 1_556 S
C1012 C1014 1.353 . S
C1012 N1015 1.314 . S
C1012 H1018 0.930 . S
C1013 N1015 1.279 . S
C1013 C1016 1.358 . S
C1013 H1019 0.930 . S
C1014 C1012 1.353 . S
C1014 C1017 1.348 . S
C1014 H1052 0.929 . S
N1015 Li970 1.990 1_556 S
N1015 C1012 1.314 . S
N1015 C1013 1.279 . S
C1016 C1013 1.358 . S
C1016 C1017 1.356 . S
C1016 H1053 0.930 . S
C1017 C1014 1.348 . S
C1017 C1016 1.356 . S
H1018 C1012 0.930 . S
H1019 C1013 0.930 . S
C1020 N1021 1.314 . S
C1020 C1022 1.353 . S
C1020 H1026 0.930 . S
N1021 Li971 1.990 . S
N1021 C1020 1.314 . S
N1021 C1024 1.279 . S
C1022 C1020 1.353 . S
C1022 C1025 1.348 . S
C1022 H1054 0.929 . S
C1023 C1024 1.358 . S
C1023 C1025 1.356 . S
C1023 H1055 0.930 . S
C1024 N1021 1.279 . S
C1024 C1023 1.358 . S
C1024 H1027 0.930 . S
C1025 C1022 1.348 . S
C1025 C1023 1.356 . S
H1026 C1020 0.930 . S
H1027 C1024 0.930 . S
O1028 Li968 1.956 . S
O1028 Li969 1.970 . S
O1028 Li970 1.961 . S
O1028 C972 1.325 . S
O1029 Li968 1.970 . S
O1029 Li969 1.956 . S
O1029 Li971 1.961 . S
O1029 C978 1.325 . S
O1030 Li968 1.961 . S
O1030 Li970 1.956 . S
O1030 Li971 1.970 . S
O1030 C1000 1.325 . S
O1031 Li969 1.961 . S
O1031 Li970 1.970 . S
O1031 Li971 1.956 . S
O1031 C1006 1.325 . S
H1032 C974 0.929 . S
H1033 C975 0.930 . S
H1034 C976 0.930 . S
H1035 C977 0.930 . S
H1036 C979 0.930 . S
H1037 C981 0.929 . S
H1038 C982 0.930 . S
H1039 C983 0.930 . S
H1040 C986 0.930 . S
H1041 C989 0.929 . S
H1042 C994 0.929 . S
H1043 C995 0.930 . S
H1044 C1002 0.929 . S
H1045 C1003 0.930 . S
H1046 C1004 0.930 . S
H1047 C1005 0.930 . S
H1048 C1007 0.929 . S
H1049 C1008 0.930 . S
H1050 C1009 0.930 . S
H1051 C1010 0.930 . S
H1052 C1014 0.929 . S
H1053 C1016 0.930 . S
H1054 C1022 0.929 . S
H1055 C1023 0.930 . S
H1056 C1074 0.951 . S
H1057 C1076 0.951 . S
H1058 C1078 0.950 . S
H1059 C1079 0.950 . S
H1060 C1081 0.950 . S
H1061 C1084 0.950 . S
H1062 C1085 0.950 . S
H1063 C1087 0.950 . S
H1064 C1088 0.950 . S
H1065 C1089 0.951 . S
H1066 C1091 0.951 . S
H1067 C1093 0.950 . S
H1068 C1094 0.950 . S
H1069 C1096 0.950 . S
H1070 C1099 0.950 . S
H1071 C1100 0.950 . S
H1072 C1102 0.950 . S
H1073 C1103 0.950 . S
C1074 H1056 0.951 . S
C1074 C1075 1.366 . S
C1074 C1076 1.388 . S
C1075 C1074 1.366 . S
C1075 C1079 1.385 . S
C1076 H1057 0.951 . S
C1076 C1074 1.388 . S
C1076 C1077 1.366 . S
C1077 C1076 1.366 . S
C1077 C1078 1.414 . S
C1077 C1080 1.499 . S
C1078 H1058 0.950 . S
C1078 C1077 1.414 . S
C1078 C1079 1.374 . S
C1079 H1059 0.950 . S
C1079 C1075 1.385 . S
C1079 C1078 1.374 . S
C1080 C1077 1.499 . S
C1080 C1081 1.373 . S
C1080 C1082 1.389 . S
C1081 H1060 0.950 . S
C1081 C1080 1.373 . S
C1081 C1097 1.377 . S
C1082 C1080 1.389 . S
C1082 C1083 1.524 . S
C1082 C1096 1.377 . S
C1083 C1082 1.524 . S
C1083 C1084 1.397 . S
C1083 C1088 1.363 . S
C1084 H1061 0.950 . S
C1084 C1083 1.397 . S
C1084 C1085 1.334 . S
C1085 H1062 0.950 . S
C1085 C1084 1.334 . S
C1085 C1086 1.287 . S
C1086 C1085 1.287 . S
C1086 C1087 1.524 . S
C1086 H1105 0.913 . S
C1087 H1063 0.950 . S
C1087 C1086 1.524 . S
C1087 C1088 1.415 . S
C1088 H1064 0.950 . S
C1088 C1083 1.363 . S
C1088 C1087 1.415 . S
C1089 H1065 0.951 . S
C1089 C1090 1.366 . S
C1089 C1091 1.388 . S
C1090 C1089 1.366 . S
C1090 C1094 1.385 . S
C1091 H1066 0.951 . S
C1091 C1089 1.388 . S
C1091 C1092 1.366 . S
C1092 C1091 1.366 . S
C1092 C1093 1.414 . S
C1092 C1095 1.499 . S
C1093 H1067 0.950 . S
C1093 C1092 1.414 . S
C1093 C1094 1.374 . S
C1094 H1068 0.950 . S
C1094 C1090 1.385 . S
C1094 C1093 1.374 . S
C1095 C1092 1.499 . S
C1095 C1096 1.373 . S
C1095 C1097 1.389 . S
C1096 H1069 0.950 . S
C1096 C1082 1.377 . S
C1096 C1095 1.373 . S
C1097 C1081 1.377 . S
C1097 C1095 1.389 . S
C1097 C1098 1.524 . S
C1098 C1097 1.524 . S
C1098 C1099 1.397 . S
C1098 C1103 1.363 . S
C1099 H1070 0.950 . S
C1099 C1098 1.397 . S
C1099 C1100 1.334 . S
C1100 H1071 0.950 . S
C1100 C1099 1.334 . S
C1100 C1101 1.287 . S
C1101 C1100 1.287 . S
C1101 C1102 1.524 . S
C1101 H1104 0.999 . S
C1102 H1072 0.950 . S
C1102 C1101 1.524 . S
C1102 C1103 1.415 . S
C1103 H1073 0.950 . S
C1103 C1098 1.363 . S
C1103 C1102 1.415 . S
H1104 C1101 0.999 . S
H1105 C1086 0.913 . S
H1106 C1124 0.951 . S
H1107 C1126 0.951 . S
H1108 C1128 0.950 . S
H1109 C1129 0.950 . S
H1110 C1131 0.950 . S
H1111 C1134 0.950 . S
H1112 C1135 0.950 . S
H1113 C1137 0.950 . S
H1114 C1138 0.950 . S
H1115 C1139 0.951 . S
H1116 C1141 0.951 . S
H1117 C1143 0.950 . S
H1118 C1144 0.950 . S
H1119 C1146 0.950 . S
H1120 C1149 0.950 . S
H1121 C1150 0.950 . S
H1122 C1152 0.950 . S
H1123 C1153 0.950 . S
C1124 H1106 0.951 . S
C1124 C1125 1.366 . S
C1124 C1126 1.388 . S
C1125 C1124 1.366 . S
C1125 C1129 1.385 . S
C1126 H1107 0.951 . S
C1126 C1124 1.388 . S
C1126 C1127 1.366 . S
C1127 C1126 1.366 . S
C1127 C1128 1.414 . S
C1127 C1130 1.499 . S
C1128 H1108 0.950 . S
C1128 C1127 1.414 . S
C1128 C1129 1.374 . S
C1129 H1109 0.950 . S
C1129 C1125 1.385 . S
C1129 C1128 1.374 . S
C1130 C1127 1.499 . S
C1130 C1131 1.373 . S
C1130 C1132 1.389 . S
C1131 H1110 0.950 . S
C1131 C1130 1.373 . S
C1131 C1147 1.377 . S
C1132 C1130 1.389 . S
C1132 C1133 1.524 . S
C1132 C1146 1.377 . S
C1133 C1132 1.524 . S
C1133 C1134 1.397 . S
C1133 C1138 1.363 . S
C1134 H1111 0.950 . S
C1134 C1133 1.397 . S
C1134 C1135 1.334 . S
C1135 H1112 0.950 . S
C1135 C1134 1.334 . S
C1135 C1136 1.287 . S
C1136 C1135 1.287 . S
C1136 C1137 1.524 . S
C1136 H1155 0.913 . S
C1137 H1113 0.950 . S
C1137 C1136 1.524 . S
C1137 C1138 1.415 . S
C1138 H1114 0.950 . S
C1138 C1133 1.363 . S
C1138 C1137 1.415 . S
C1139 H1115 0.951 . S
C1139 C1140 1.366 . S
C1139 C1141 1.388 . S
C1140 C1139 1.366 . S
C1140 C1144 1.385 . S
C1141 H1116 0.951 . S
C1141 C1139 1.388 . S
C1141 C1142 1.366 . S
C1142 C1141 1.366 . S
C1142 C1143 1.414 . S
C1142 C1145 1.499 . S
C1143 H1117 0.950 . S
C1143 C1142 1.414 . S
C1143 C1144 1.374 . S
C1144 H1118 0.950 . S
C1144 C1140 1.385 . S
C1144 C1143 1.374 . S
C1145 C1142 1.499 . S
C1145 C1146 1.373 . S
C1145 C1147 1.389 . S
C1146 H1119 0.950 . S
C1146 C1132 1.377 . S
C1146 C1145 1.373 . S
C1147 C1131 1.377 . S
C1147 C1145 1.389 . S
C1147 C1148 1.524 . S
C1148 C1147 1.524 . S
C1148 C1149 1.397 . S
C1148 C1153 1.363 . S
C1149 H1120 0.950 . S
C1149 C1148 1.397 . S
C1149 C1150 1.334 . S
C1150 H1121 0.950 . S
C1150 C1149 1.334 . S
C1150 C1151 1.287 . S
C1151 C1150 1.287 . S
C1151 C1152 1.524 . S
C1151 H1154 0.999 . S
C1152 H1122 0.950 . S
C1152 C1151 1.524 . S
C1152 C1153 1.415 . S
C1153 H1123 0.950 . S
C1153 C1148 1.363 . S
C1153 C1152 1.415 . S
H1154 C1151 0.999 . S
H1155 C1136 0.913 . S
H1156 C1174 0.951 . S
H1157 C1176 0.951 . S
H1158 C1178 0.950 . S
H1159 C1179 0.950 . S
H1160 C1181 0.950 . S
H1161 C1184 0.950 . S
H1162 C1185 0.950 . S
H1163 C1187 0.950 . S
H1164 C1188 0.950 . S
H1165 C1189 0.951 . S
H1166 C1191 0.951 . S
H1167 C1193 0.950 . S
H1168 C1194 0.950 . S
H1169 C1196 0.950 . S
H1170 C1199 0.950 . S
H1171 C1200 0.950 . S
H1172 C1202 0.950 . S
H1173 C1203 0.950 . S
C1174 H1156 0.951 . S
C1174 C1175 1.366 . S
C1174 C1176 1.388 . S
C1175 C1174 1.366 . S
C1175 C1179 1.385 . S
C1176 H1157 0.951 . S
C1176 C1174 1.388 . S
C1176 C1177 1.366 . S
C1177 C1176 1.366 . S
C1177 C1178 1.414 . S
C1177 C1180 1.499 . S
C1178 H1158 0.950 . S
C1178 C1177 1.414 . S
C1178 C1179 1.374 . S
C1179 H1159 0.950 . S
C1179 C1175 1.385 . S
C1179 C1178 1.374 . S
C1180 C1177 1.499 . S
C1180 C1181 1.373 . S
C1180 C1182 1.389 . S
C1181 H1160 0.950 . S
C1181 C1180 1.373 . S
C1181 C1197 1.377 . S
C1182 C1180 1.389 . S
C1182 C1183 1.524 . S
C1182 C1196 1.377 . S
C1183 C1182 1.524 . S
C1183 C1184 1.397 . S
C1183 C1188 1.363 . S
C1184 H1161 0.950 . S
C1184 C1183 1.397 . S
C1184 C1185 1.334 . S
C1185 H1162 0.950 . S
C1185 C1184 1.334 . S
C1185 C1186 1.287 . S
C1186 C1185 1.287 . S
C1186 C1187 1.524 . S
C1186 H1205 0.913 . S
C1187 H1163 0.950 . S
C1187 C1186 1.524 . S
C1187 C1188 1.415 . S
C1188 H1164 0.950 . S
C1188 C1183 1.363 . S
C1188 C1187 1.415 . S
C1189 H1165 0.951 . S
C1189 C1190 1.366 . S
C1189 C1191 1.388 . S
C1190 C1189 1.366 . S
C1190 C1194 1.385 . S
C1191 H1166 0.951 . S
C1191 C1189 1.388 . S
C1191 C1192 1.366 . S
C1192 C1191 1.366 . S
C1192 C1193 1.414 . S
C1192 C1195 1.499 . S
C1193 H1167 0.950 . S
C1193 C1192 1.414 . S
C1193 C1194 1.374 . S
C1194 H1168 0.950 . S
C1194 C1190 1.385 . S
C1194 C1193 1.374 . S
C1195 C1192 1.499 . S
C1195 C1196 1.373 . S
C1195 C1197 1.389 . S
C1196 H1169 0.950 . S
C1196 C1182 1.377 . S
C1196 C1195 1.373 . S
C1197 C1181 1.377 . S
C1197 C1195 1.389 . S
C1197 C1198 1.524 . S
C1198 C1197 1.524 . S
C1198 C1199 1.397 . S
C1198 C1203 1.363 . S
C1199 H1170 0.950 . S
C1199 C1198 1.397 . S
C1199 C1200 1.334 . S
C1200 H1171 0.950 . S
C1200 C1199 1.334 . S
C1200 C1201 1.287 . S
C1201 C1200 1.287 . S
C1201 C1202 1.524 . S
C1201 H1204 0.999 . S
C1202 H1172 0.950 . S
C1202 C1201 1.524 . S
C1202 C1203 1.415 . S
C1203 H1173 0.950 . S
C1203 C1198 1.363 . S
C1203 C1202 1.415 . S
H1204 C1201 0.999 . S
H1205 C1186 0.913 . S
H1206 C1224 0.951 . S
H1207 C1226 0.951 . S
H1208 C1228 0.950 . S
H1209 C1229 0.950 . S
H1210 C1231 0.950 . S
H1211 C1234 0.950 . S
H1212 C1235 0.950 . S
H1213 C1237 0.950 . S
H1214 C1238 0.950 . S
H1215 C1239 0.951 . S
H1216 C1241 0.951 . S
H1217 C1243 0.950 . S
H1218 C1244 0.950 . S
H1219 C1246 0.950 . S
H1220 C1249 0.950 . S
H1221 C1250 0.950 . S
H1222 C1252 0.950 . S
H1223 C1253 0.950 . S
C1224 H1206 0.951 . S
C1224 C1225 1.366 . S
C1224 C1226 1.388 . S
C1225 C1224 1.366 . S
C1225 C1229 1.385 . S
C1226 H1207 0.951 . S
C1226 C1224 1.388 . S
C1226 C1227 1.366 . S
C1227 C1226 1.366 . S
C1227 C1228 1.414 . S
C1227 C1230 1.499 . S
C1228 H1208 0.950 . S
C1228 C1227 1.414 . S
C1228 C1229 1.374 . S
C1229 H1209 0.950 . S
C1229 C1225 1.385 . S
C1229 C1228 1.374 . S
C1230 C1227 1.499 . S
C1230 C1231 1.373 . S
C1230 C1232 1.389 . S
C1231 H1210 0.950 . S
C1231 C1230 1.373 . S
C1231 C1247 1.377 . S
C1232 C1230 1.389 . S
C1232 C1233 1.524 . S
C1232 C1246 1.377 . S
C1233 C1232 1.524 . S
C1233 C1234 1.397 . S
C1233 C1238 1.363 . S
C1234 H1211 0.950 . S
C1234 C1233 1.397 . S
C1234 C1235 1.334 . S
C1235 H1212 0.950 . S
C1235 C1234 1.334 . S
C1235 C1236 1.287 . S
C1236 C1235 1.287 . S
C1236 C1237 1.524 . S
C1236 H1255 0.913 . S
C1237 H1213 0.950 . S
C1237 C1236 1.524 . S
C1237 C1238 1.415 . S
C1238 H1214 0.950 . S
C1238 C1233 1.363 . S
C1238 C1237 1.415 . S
C1239 H1215 0.951 . S
C1239 C1240 1.366 . S
C1239 C1241 1.388 . S
C1240 C1239 1.366 . S
C1240 C1244 1.385 . S
C1241 H1216 0.951 . S
C1241 C1239 1.388 . S
C1241 C1242 1.366 . S
C1242 C1241 1.366 . S
C1242 C1243 1.414 . S
C1242 C1245 1.499 . S
C1243 H1217 0.950 . S
C1243 C1242 1.414 . S
C1243 C1244 1.374 . S
C1244 H1218 0.950 . S
C1244 C1240 1.385 . S
C1244 C1243 1.374 . S
C1245 C1242 1.499 . S
C1245 C1246 1.373 . S
C1245 C1247 1.389 . S
C1246 H1219 0.950 . S
C1246 C1232 1.377 . S
C1246 C1245 1.373 . S
C1247 C1231 1.377 . S
C1247 C1245 1.389 . S
C1247 C1248 1.524 . S
C1248 C1247 1.524 . S
C1248 C1249 1.397 . S
C1248 C1253 1.363 . S
C1249 H1220 0.950 . S
C1249 C1248 1.397 . S
C1249 C1250 1.334 . S
C1250 H1221 0.950 . S
C1250 C1249 1.334 . S
C1250 C1251 1.287 . S
C1251 C1250 1.287 . S
C1251 C1252 1.524 . S
C1251 H1254 0.999 . S
C1252 H1222 0.950 . S
C1252 C1251 1.524 . S
C1252 C1253 1.415 . S
C1253 H1223 0.950 . S
C1253 C1248 1.363 . S
C1253 C1252 1.415 . S
H1254 C1251 0.999 . S
H1255 C1236 0.913 . S
H1256 C1274 0.951 . S
H1257 C1276 0.951 . S
H1258 C1278 0.950 . S
H1259 C1279 0.950 . S
H1260 C1281 0.950 . S
H1261 C1284 0.950 . S
H1262 C1285 0.950 . S
H1263 C1287 0.950 . S
H1264 C1288 0.950 . S
H1265 C1289 0.951 . S
H1266 C1291 0.951 . S
H1267 C1293 0.950 . S
H1268 C1294 0.950 . S
H1269 C1296 0.950 . S
H1270 C1299 0.950 . S
H1271 C1300 0.950 . S
H1272 C1302 0.950 . S
H1273 C1303 0.950 . S
C1274 H1256 0.951 . S
C1274 C1275 1.366 . S
C1274 C1276 1.388 . S
C1275 C1274 1.366 . S
C1275 C1279 1.385 . S
C1276 H1257 0.951 . S
C1276 C1274 1.388 . S
C1276 C1277 1.366 . S
C1277 C1276 1.366 . S
C1277 C1278 1.414 . S
C1277 C1280 1.499 . S
C1278 H1258 0.950 . S
C1278 C1277 1.414 . S
C1278 C1279 1.374 . S
C1279 H1259 0.950 . S
C1279 C1275 1.385 . S
C1279 C1278 1.374 . S
C1280 C1277 1.499 . S
C1280 C1281 1.373 . S
C1280 C1282 1.389 . S
C1281 H1260 0.950 . S
C1281 C1280 1.373 . S
C1281 C1297 1.377 . S
C1282 C1280 1.389 . S
C1282 C1283 1.524 . S
C1282 C1296 1.377 . S
C1283 C1282 1.524 . S
C1283 C1284 1.397 . S
C1283 C1288 1.363 . S
C1284 H1261 0.950 . S
C1284 C1283 1.397 . S
C1284 C1285 1.334 . S
C1285 H1262 0.950 . S
C1285 C1284 1.334 . S
C1285 C1286 1.287 . S
C1286 C1285 1.287 . S
C1286 C1287 1.524 . S
C1286 H1305 0.913 . S
C1287 H1263 0.950 . S
C1287 C1286 1.524 . S
C1287 C1288 1.415 . S
C1288 H1264 0.950 . S
C1288 C1283 1.363 . S
C1288 C1287 1.415 . S
C1289 H1265 0.951 . S
C1289 C1290 1.366 . S
C1289 C1291 1.388 . S
C1290 C1289 1.366 . S
C1290 C1294 1.385 . S
C1291 H1266 0.951 . S
C1291 C1289 1.388 . S
C1291 C1292 1.366 . S
C1292 C1291 1.366 . S
C1292 C1293 1.414 . S
C1292 C1295 1.499 . S
C1293 H1267 0.950 . S
C1293 C1292 1.414 . S
C1293 C1294 1.374 . S
C1294 H1268 0.950 . S
C1294 C1290 1.385 . S
C1294 C1293 1.374 . S
C1295 C1292 1.499 . S
C1295 C1296 1.373 . S
C1295 C1297 1.389 . S
C1296 H1269 0.950 . S
C1296 C1282 1.377 . S
C1296 C1295 1.373 . S
C1297 C1281 1.377 . S
C1297 C1295 1.389 . S
C1297 C1298 1.524 . S
C1298 C1297 1.524 . S
C1298 C1299 1.397 . S
C1298 C1303 1.363 . S
C1299 H1270 0.950 . S
C1299 C1298 1.397 . S
C1299 C1300 1.334 . S
C1300 H1271 0.950 . S
C1300 C1299 1.334 . S
C1300 C1301 1.287 . S
C1301 C1300 1.287 . S
C1301 C1302 1.524 . S
C1301 H1304 0.999 . S
C1302 H1272 0.950 . S
C1302 C1301 1.524 . S
C1302 C1303 1.415 . S
C1303 H1273 0.950 . S
C1303 C1298 1.363 . S
C1303 C1302 1.415 . S
H1304 C1301 0.999 . S
H1305 C1286 0.913 . S
H1306 C1324 0.951 . S
H1307 C1326 0.951 . S
H1308 C1328 0.950 . S
H1309 C1329 0.950 . S
H1310 C1331 0.950 . S
H1311 C1334 0.950 . S
H1312 C1335 0.950 . S
H1313 C1337 0.950 . S
H1314 C1338 0.950 . S
H1315 C1339 0.951 . S
H1316 C1341 0.951 . S
H1317 C1343 0.950 . S
H1318 C1344 0.950 . S
H1319 C1346 0.950 . S
H1320 C1349 0.950 . S
H1321 C1350 0.950 . S
H1322 C1352 0.950 . S
H1323 C1353 0.950 . S
C1324 H1306 0.951 . S
C1324 C1325 1.366 . S
C1324 C1326 1.388 . S
C1325 C1324 1.366 . S
C1325 C1329 1.385 . S
C1326 H1307 0.951 . S
C1326 C1324 1.388 . S
C1326 C1327 1.366 . S
C1327 C1326 1.366 . S
C1327 C1328 1.414 . S
C1327 C1330 1.499 . S
C1328 H1308 0.950 . S
C1328 C1327 1.414 . S
C1328 C1329 1.374 . S
C1329 H1309 0.950 . S
C1329 C1325 1.385 . S
C1329 C1328 1.374 . S
C1330 C1327 1.499 . S
C1330 C1331 1.373 . S
C1330 C1332 1.389 . S
C1331 H1310 0.950 . S
C1331 C1330 1.373 . S
C1331 C1347 1.377 . S
C1332 C1330 1.389 . S
C1332 C1333 1.524 . S
C1332 C1346 1.377 . S
C1333 C1332 1.524 . S
C1333 C1334 1.397 . S
C1333 C1338 1.363 . S
C1334 H1311 0.950 . S
C1334 C1333 1.397 . S
C1334 C1335 1.334 . S
C1335 H1312 0.950 . S
C1335 C1334 1.334 . S
C1335 C1336 1.287 . S
C1336 C1335 1.287 . S
C1336 C1337 1.524 . S
C1336 H1355 0.913 . S
C1337 H1313 0.950 . S
C1337 C1336 1.524 . S
C1337 C1338 1.415 . S
C1338 H1314 0.950 . S
C1338 C1333 1.363 . S
C1338 C1337 1.415 . S
C1339 H1315 0.951 . S
C1339 C1340 1.366 . S
C1339 C1341 1.388 . S
C1340 C1339 1.366 . S
C1340 C1344 1.385 . S
C1341 H1316 0.951 . S
C1341 C1339 1.388 . S
C1341 C1342 1.366 . S
C1342 C1341 1.366 . S
C1342 C1343 1.414 . S
C1342 C1345 1.499 . S
C1343 H1317 0.950 . S
C1343 C1342 1.414 . S
C1343 C1344 1.374 . S
C1344 H1318 0.950 . S
C1344 C1340 1.385 . S
C1344 C1343 1.374 . S
C1345 C1342 1.499 . S
C1345 C1346 1.373 . S
C1345 C1347 1.389 . S
C1346 H1319 0.950 . S
C1346 C1332 1.377 . S
C1346 C1345 1.373 . S
C1347 C1331 1.377 . S
C1347 C1345 1.389 . S
C1347 C1348 1.524 . S
C1348 C1347 1.524 . S
C1348 C1349 1.397 . S
C1348 C1353 1.363 . S
C1349 H1320 0.950 . S
C1349 C1348 1.397 . S
C1349 C1350 1.334 . S
C1350 H1321 0.950 . S
C1350 C1349 1.334 . S
C1350 C1351 1.287 . S
C1351 C1350 1.287 . S
C1351 C1352 1.524 . S
C1351 H1354 0.999 . S
C1352 H1322 0.950 . S
C1352 C1351 1.524 . S
C1352 C1353 1.415 . S
C1353 H1323 0.950 . S
C1353 C1348 1.363 . S
C1353 C1352 1.415 . S
H1354 C1351 0.999 . S
H1355 C1336 0.913 . S
H1356 C1374 0.951 . S
H1357 C1376 0.951 . S
H1358 C1378 0.950 . S
H1359 C1379 0.950 . S
H1360 C1381 0.950 . S
H1361 C1384 0.950 . S
H1362 C1385 0.950 . S
H1363 C1387 0.950 . S
H1364 C1388 0.950 . S
H1365 C1389 0.951 . S
H1366 C1391 0.951 . S
H1367 C1393 0.950 . S
H1368 C1394 0.950 . S
H1369 C1396 0.950 . S
H1370 C1399 0.950 . S
H1371 C1400 0.950 . S
H1372 C1402 0.950 . S
H1373 C1403 0.950 . S
C1374 H1356 0.951 . S
C1374 C1375 1.366 . S
C1374 C1376 1.388 . S
C1375 C1374 1.366 . S
C1375 C1379 1.385 1_565 S
C1376 H1357 0.951 . S
C1376 C1374 1.388 . S
C1376 C1377 1.366 . S
C1377 C1376 1.366 . S
C1377 C1378 1.414 1_565 S
C1377 C1380 1.499 . S
C1378 H1358 0.950 . S
C1378 C1377 1.414 1_545 S
C1378 C1379 1.374 . S
C1379 H1359 0.950 . S
C1379 C1375 1.385 1_545 S
C1379 C1378 1.374 . S
C1380 C1377 1.499 . S
C1380 C1381 1.373 1_565 S
C1380 C1382 1.389 . S
C1381 H1360 0.950 . S
C1381 C1380 1.373 1_545 S
C1381 C1397 1.377 . S
C1382 C1380 1.389 . S
C1382 C1383 1.524 . S
C1382 C1396 1.377 . S
C1383 C1382 1.524 . S
C1383 C1384 1.397 . S
C1383 C1388 1.363 . S
C1384 H1361 0.950 . S
C1384 C1383 1.397 . S
C1384 C1385 1.334 . S
C1385 H1362 0.950 . S
C1385 C1384 1.334 . S
C1385 C1386 1.287 . S
C1386 C1385 1.287 . S
C1386 C1387 1.524 . S
C1386 H1405 0.913 . S
C1387 H1363 0.950 . S
C1387 C1386 1.524 . S
C1387 C1388 1.415 . S
C1388 H1364 0.950 . S
C1388 C1383 1.363 . S
C1388 C1387 1.415 . S
C1389 H1365 0.951 . S
C1389 C1390 1.366 . S
C1389 C1391 1.388 . S
C1390 C1389 1.366 . S
C1390 C1394 1.385 1_545 S
C1391 H1366 0.951 . S
C1391 C1389 1.388 . S
C1391 C1392 1.366 . S
C1392 C1391 1.366 . S
C1392 C1393 1.414 1_545 S
C1392 C1395 1.499 . S
C1393 H1367 0.950 . S
C1393 C1392 1.414 1_565 S
C1393 C1394 1.374 . S
C1394 H1368 0.950 . S
C1394 C1390 1.385 1_565 S
C1394 C1393 1.374 . S
C1395 C1392 1.499 . S
C1395 C1396 1.373 1_545 S
C1395 C1397 1.389 . S
C1396 H1369 0.950 . S
C1396 C1382 1.377 . S
C1396 C1395 1.373 1_565 S
C1397 C1381 1.377 . S
C1397 C1395 1.389 . S
C1397 C1398 1.524 . S
C1398 C1397 1.524 . S
C1398 C1399 1.397 . S
C1398 C1403 1.363 . S
C1399 H1370 0.950 . S
C1399 C1398 1.397 . S
C1399 C1400 1.334 . S
C1400 H1371 0.950 . S
C1400 C1399 1.334 . S
C1400 C1401 1.287 . S
C1401 C1400 1.287 . S
C1401 C1402 1.524 . S
C1401 H1404 0.999 . S
C1402 H1372 0.950 . S
C1402 C1401 1.524 . S
C1402 C1403 1.415 . S
C1403 H1373 0.950 . S
C1403 C1398 1.363 . S
C1403 C1402 1.415 . S
H1404 C1401 0.999 . S
H1405 C1386 0.913 . S
H1406 C1424 0.951 . S
H1407 C1426 0.951 . S
H1408 C1428 0.950 . S
H1409 C1429 0.950 . S
H1410 C1431 0.950 . S
H1411 C1434 0.950 . S
H1412 C1435 0.950 . S
H1413 C1437 0.950 . S
H1414 C1438 0.950 . S
H1415 C1439 0.951 . S
H1416 C1441 0.951 . S
H1417 C1443 0.950 . S
H1418 C1444 0.950 . S
H1419 C1446 0.950 . S
H1420 C1449 0.950 . S
H1421 C1450 0.950 . S
H1422 C1452 0.950 . S
H1423 C1453 0.950 . S
C1424 H1406 0.951 . S
C1424 C1425 1.366 . S
C1424 C1426 1.388 . S
C1425 C1424 1.366 . S
C1425 C1429 1.385 . S
C1426 H1407 0.951 . S
C1426 C1424 1.388 . S
C1426 C1427 1.366 . S
C1427 C1426 1.366 . S
C1427 C1428 1.414 . S
C1427 C1430 1.499 . S
C1428 H1408 0.950 . S
C1428 C1427 1.414 . S
C1428 C1429 1.374 . S
C1429 H1409 0.950 . S
C1429 C1425 1.385 . S
C1429 C1428 1.374 . S
C1430 C1427 1.499 . S
C1430 C1431 1.373 . S
C1430 C1432 1.389 . S
C1431 H1410 0.950 . S
C1431 C1430 1.373 . S
C1431 C1447 1.377 . S
C1432 C1430 1.389 . S
C1432 C1433 1.524 . S
C1432 C1446 1.377 . S
C1433 C1432 1.524 . S
C1433 C1434 1.397 . S
C1433 C1438 1.363 . S
C1434 H1411 0.950 . S
C1434 C1433 1.397 . S
C1434 C1435 1.334 . S
C1435 H1412 0.950 . S
C1435 C1434 1.334 . S
C1435 C1436 1.287 . S
C1436 C1435 1.287 . S
C1436 C1437 1.524 . S
C1436 H1455 0.913 . S
C1437 H1413 0.950 . S
C1437 C1436 1.524 . S
C1437 C1438 1.415 . S
C1438 H1414 0.950 . S
C1438 C1433 1.363 . S
C1438 C1437 1.415 . S
C1439 H1415 0.951 . S
C1439 C1440 1.366 . S
C1439 C1441 1.388 . S
C1440 C1439 1.366 . S
C1440 C1444 1.385 . S
C1441 H1416 0.951 . S
C1441 C1439 1.388 . S
C1441 C1442 1.366 . S
C1442 C1441 1.366 . S
C1442 C1443 1.414 . S
C1442 C1445 1.499 . S
C1443 H1417 0.950 . S
C1443 C1442 1.414 . S
C1443 C1444 1.374 . S
C1444 H1418 0.950 . S
C1444 C1440 1.385 . S
C1444 C1443 1.374 . S
C1445 C1442 1.499 . S
C1445 C1446 1.373 . S
C1445 C1447 1.389 . S
C1446 H1419 0.950 . S
C1446 C1432 1.377 . S
C1446 C1445 1.373 . S
C1447 C1431 1.377 . S
C1447 C1445 1.389 . S
C1447 C1448 1.524 . S
C1448 C1447 1.524 . S
C1448 C1449 1.397 . S
C1448 C1453 1.363 . S
C1449 H1420 0.950 . S
C1449 C1448 1.397 . S
C1449 C1450 1.334 . S
C1450 H1421 0.950 . S
C1450 C1449 1.334 . S
C1450 C1451 1.287 . S
C1451 C1450 1.287 . S
C1451 C1452 1.524 . S
C1451 H1454 0.999 . S
C1452 H1422 0.950 . S
C1452 C1451 1.524 . S
C1452 C1453 1.415 . S
C1453 H1423 0.950 . S
C1453 C1448 1.363 . S
C1453 C1452 1.415 . S
H1454 C1451 0.999 . S
H1455 C1436 0.913 . S
H1456 C1474 0.951 . S
H1457 C1476 0.951 . S
H1458 C1478 0.950 . S
H1459 C1479 0.950 . S
H1460 C1481 0.950 . S
H1461 C1484 0.950 . S
H1462 C1485 0.950 . S
H1463 C1487 0.950 . S
H1464 C1488 0.950 . S
H1465 C1489 0.951 . S
H1466 C1491 0.951 . S
H1467 C1493 0.950 . S
H1468 C1494 0.950 . S
H1469 C1496 0.950 . S
H1470 C1499 0.950 . S
H1471 C1500 0.950 1_554 S
H1472 C1502 0.950 . S
H1473 C1503 0.950 . S
C1474 H1456 0.951 . S
C1474 C1475 1.366 1_455 S
C1474 C1476 1.388 . S
C1475 C1474 1.366 1_655 S
C1475 C1479 1.385 . S
C1476 H1457 0.951 . S
C1476 C1474 1.388 . S
C1476 C1477 1.366 1_455 S
C1477 C1476 1.366 1_655 S
C1477 C1478 1.414 . S
C1477 C1480 1.499 . S
C1478 H1458 0.950 . S
C1478 C1477 1.414 . S
C1478 C1479 1.374 . S
C1479 H1459 0.950 . S
C1479 C1475 1.385 . S
C1479 C1478 1.374 . S
C1480 C1477 1.499 . S
C1480 C1481 1.373 . S
C1480 C1482 1.389 1_655 S
C1481 H1460 0.950 . S
C1481 C1480 1.373 . S
C1481 C1497 1.377 . S
C1482 C1480 1.389 1_455 S
C1482 C1483 1.524 . S
C1482 C1496 1.377 . S
C1483 C1482 1.524 . S
C1483 C1484 1.397 . S
C1483 C1488 1.363 . S
C1484 H1461 0.950 . S
C1484 C1483 1.397 . S
C1484 C1485 1.334 . S
C1485 H1462 0.950 . S
C1485 C1484 1.334 . S
C1485 C1486 1.287 . S
C1486 C1485 1.287 . S
C1486 C1487 1.524 . S
C1486 H1505 0.913 . S
C1487 H1463 0.950 . S
C1487 C1486 1.524 . S
C1487 C1488 1.415 . S
C1488 H1464 0.950 . S
C1488 C1483 1.363 . S
C1488 C1487 1.415 . S
C1489 H1465 0.951 . S
C1489 C1490 1.366 1_655 S
C1489 C1491 1.388 . S
C1490 C1489 1.366 1_455 S
C1490 C1494 1.385 . S
C1491 H1466 0.951 . S
C1491 C1489 1.388 . S
C1491 C1492 1.366 1_655 S
C1492 C1491 1.366 1_455 S
C1492 C1493 1.414 . S
C1492 C1495 1.499 . S
C1493 H1467 0.950 . S
C1493 C1492 1.414 . S
C1493 C1494 1.374 . S
C1494 H1468 0.950 . S
C1494 C1490 1.385 . S
C1494 C1493 1.374 . S
C1495 C1492 1.499 . S
C1495 C1496 1.373 . S
C1495 C1497 1.389 1_455 S
C1496 H1469 0.950 . S
C1496 C1482 1.377 . S
C1496 C1495 1.373 . S
C1497 C1481 1.377 . S
C1497 C1495 1.389 1_655 S
C1497 C1498 1.524 . S
C1498 C1497 1.524 . S
C1498 C1499 1.397 . S
C1498 C1503 1.363 . S
C1499 H1470 0.950 . S
C1499 C1498 1.397 . S
C1499 C1500 1.334 . S
C1500 H1471 0.950 1_556 S
C1500 C1499 1.334 . S
C1500 C1501 1.287 . S
C1501 C1500 1.287 . S
C1501 C1502 1.524 . S
C1501 H1504 0.999 1_556 S
C1502 H1472 0.950 . S
C1502 C1501 1.524 . S
C1502 C1503 1.415 . S
C1503 H1473 0.950 . S
C1503 C1498 1.363 . S
C1503 C1502 1.415 . S
H1504 C1501 0.999 1_554 S
H1505 C1486 0.913 . S
H1506 C1524 0.951 . S
H1507 C1526 0.951 . S
H1508 C1528 0.950 . S
H1509 C1529 0.950 . S
H1510 C1531 0.950 . S
H1511 C1534 0.950 . S
H1512 C1535 0.950 . S
H1513 C1537 0.950 . S
H1514 C1538 0.950 . S
H1515 C1539 0.951 . S
H1516 C1541 0.951 . S
H1517 C1543 0.950 . S
H1518 C1544 0.950 . S
H1519 C1546 0.950 . S
H1520 C1549 0.950 . S
H1521 C1550 0.950 . S
H1522 C1552 0.950 . S
H1523 C1553 0.950 . S
C1524 H1506 0.951 . S
C1524 C1525 1.366 1_655 S
C1524 C1526 1.388 . S
C1525 C1524 1.366 1_455 S
C1525 C1529 1.385 . S
C1526 H1507 0.951 . S
C1526 C1524 1.388 . S
C1526 C1527 1.366 1_655 S
C1527 C1526 1.366 1_455 S
C1527 C1528 1.414 . S
C1527 C1530 1.485 . S
C1528 H1508 0.950 . S
C1528 C1527 1.414 . S
C1528 C1529 1.374 . S
C1529 H1509 0.950 . S
C1529 C1525 1.385 . S
C1529 C1528 1.374 . S
C1530 C1527 1.485 . S
C1530 C1531 1.404 . S
C1530 C1532 1.374 1_455 S
C1531 H1510 0.950 . S
C1531 C1530 1.404 . S
C1531 C1547 1.377 . S
C1532 C1530 1.374 1_655 S
C1532 C1533 1.524 . S
C1532 C1546 1.377 . S
C1533 C1532 1.524 . S
C1533 C1534 1.397 . S
C1533 C1538 1.363 . S
C1534 H1511 0.950 . S
C1534 C1533 1.397 . S
C1534 C1535 1.334 . S
C1535 H1512 0.950 . S
C1535 C1534 1.334 . S
C1535 C1536 1.287 . S
C1536 C1535 1.287 . S
C1536 C1537 1.524 . S
C1536 H1555 0.913 . S
C1537 H1513 0.950 . S
C1537 C1536 1.524 . S
C1537 C1538 1.415 . S
C1538 H1514 0.950 . S
C1538 C1533 1.363 . S
C1538 C1537 1.415 . S
C1539 H1515 0.951 . S
C1539 C1540 1.366 1_455 S
C1539 C1541 1.388 . S
C1540 C1539 1.366 1_655 S
C1540 C1544 1.385 . S
C1541 H1516 0.951 . S
C1541 C1539 1.388 . S
C1541 C1542 1.366 1_455 S
C1542 C1541 1.366 1_655 S
C1542 C1543 1.414 . S
C1542 C1545 1.478 . S
C1543 H1517 0.950 . S
C1543 C1542 1.414 . S
C1543 C1544 1.374 . S
C1544 H1518 0.950 . S
C1544 C1540 1.385 . S
C1544 C1543 1.374 . S
C1545 C1542 1.478 . S
C1545 C1546 1.419 . S
C1545 C1547 1.368 1_655 S
C1546 H1519 0.950 . S
C1546 C1532 1.377 . S
C1546 C1545 1.419 . S
C1547 C1531 1.377 . S
C1547 C1545 1.368 1_455 S
C1547 C1548 1.524 . S
C1548 C1547 1.524 . S
C1548 C1549 1.397 . S
C1548 C1553 1.363 . S
C1549 H1520 0.950 . S
C1549 C1548 1.397 . S
C1549 C1550 1.334 . S
C1550 H1521 0.950 . S
C1550 C1549 1.334 . S
C1550 C1551 1.287 . S
C1551 C1550 1.287 . S
C1551 C1552 1.524 . S
C1551 H1554 0.999 . S
C1552 H1522 0.950 . S
C1552 C1551 1.524 . S
C1552 C1553 1.415 . S
C1553 H1523 0.950 . S
C1553 C1548 1.363 . S
C1553 C1552 1.415 . S
H1554 C1551 0.999 . S
H1555 C1536 0.913 . S
H1556 C1574 0.951 . S
H1557 C1576 0.951 . S
H1558 C1578 0.950 . S
H1559 C1579 0.950 . S
H1560 C1581 0.950 . S
H1561 C1584 0.950 . S
H1562 C1585 0.950 . S
H1563 C1587 0.950 . S
H1564 C1588 0.950 . S
H1565 C1589 0.951 . S
H1566 C1591 0.951 . S
H1567 C1593 0.950 . S
H1568 C1594 0.950 . S
H1569 C1596 0.950 . S
H1570 C1599 0.950 . S
H1571 C1600 0.950 . S
H1572 C1602 0.950 . S
H1573 C1603 0.950 . S
C1574 H1556 0.951 . S
C1574 C1575 1.366 . S
C1574 C1576 1.388 . S
C1575 C1574 1.366 . S
C1575 C1579 1.385 1_565 S
C1576 H1557 0.951 . S
C1576 C1574 1.388 . S
C1576 C1577 1.366 . S
C1577 C1576 1.366 . S
C1577 C1578 1.414 1_565 S
C1577 C1580 1.499 . S
C1578 H1558 0.950 . S
C1578 C1577 1.414 1_545 S
C1578 C1579 1.374 . S
C1579 H1559 0.950 . S
C1579 C1575 1.385 1_545 S
C1579 C1578 1.374 . S
C1580 C1577 1.499 . S
C1580 C1581 1.373 1_565 S
C1580 C1582 1.389 . S
C1581 H1560 0.950 . S
C1581 C1580 1.373 1_545 S
C1581 C1597 1.377 . S
C1582 C1580 1.389 . S
C1582 C1583 1.524 . S
C1582 C1596 1.377 . S
C1583 C1582 1.524 . S
C1583 C1584 1.397 . S
C1583 C1588 1.363 . S
C1584 H1561 0.950 . S
C1584 C1583 1.397 . S
C1584 C1585 1.334 . S
C1585 H1562 0.950 . S
C1585 C1584 1.334 . S
C1585 C1586 1.287 . S
C1586 C1585 1.287 . S
C1586 C1587 1.524 . S
C1586 H1605 0.913 . S
C1587 H1563 0.950 . S
C1587 C1586 1.524 . S
C1587 C1588 1.415 . S
C1588 H1564 0.950 . S
C1588 C1583 1.363 . S
C1588 C1587 1.415 . S
C1589 H1565 0.951 . S
C1589 C1590 1.366 . S
C1589 C1591 1.388 . S
C1590 C1589 1.366 . S
C1590 C1594 1.385 1_545 S
C1591 H1566 0.951 . S
C1591 C1589 1.388 . S
C1591 C1592 1.366 . S
C1592 C1591 1.366 . S
C1592 C1593 1.414 1_545 S
C1592 C1595 1.499 . S
C1593 H1567 0.950 . S
C1593 C1592 1.414 1_565 S
C1593 C1594 1.374 . S
C1594 H1568 0.950 . S
C1594 C1590 1.385 1_565 S
C1594 C1593 1.374 . S
C1595 C1592 1.499 . S
C1595 C1596 1.373 1_545 S
C1595 C1597 1.389 . S
C1596 H1569 0.950 . S
C1596 C1582 1.377 . S
C1596 C1595 1.373 1_565 S
C1597 C1581 1.377 . S
C1597 C1595 1.389 . S
C1597 C1598 1.524 . S
C1598 C1597 1.524 . S
C1598 C1599 1.397 . S
C1598 C1603 1.363 . S
C1599 H1570 0.950 . S
C1599 C1598 1.397 . S
C1599 C1600 1.334 . S
C1600 H1571 0.950 . S
C1600 C1599 1.334 . S
C1600 C1601 1.287 . S
C1601 C1600 1.287 . S
C1601 C1602 1.524 . S
C1601 H1604 0.999 . S
C1602 H1572 0.950 . S
C1602 C1601 1.524 . S
C1602 C1603 1.415 . S
C1603 H1573 0.950 . S
C1603 C1598 1.363 . S
C1603 C1602 1.415 . S
H1604 C1601 0.999 . S
H1605 C1586 0.913 . S
H1606 C1624 0.951 . S
H1607 C1626 0.951 . S
H1608 C1628 0.950 . S
H1609 C1629 0.950 . S
H1610 C1631 0.950 . S
H1611 C1634 0.950 . S
H1612 C1635 0.950 . S
H1613 C1637 0.950 . S
H1614 C1638 0.950 . S
H1615 C1639 0.951 . S
H1616 C1641 0.951 . S
H1617 C1643 0.950 . S
H1618 C1644 0.950 . S
H1619 C1646 0.950 . S
H1620 C1649 0.950 . S
H1621 C1650 0.950 . S
H1622 C1652 0.950 . S
H1623 C1653 0.950 . S
C1624 H1606 0.951 . S
C1624 C1625 1.366 . S
C1624 C1626 1.388 . S
C1625 C1624 1.366 . S
C1625 C1629 1.385 . S
C1626 H1607 0.951 . S
C1626 C1624 1.388 . S
C1626 C1627 1.366 . S
C1627 C1626 1.366 . S
C1627 C1628 1.414 . S
C1627 C1630 1.499 . S
C1628 H1608 0.950 . S
C1628 C1627 1.414 . S
C1628 C1629 1.374 . S
C1629 H1609 0.950 . S
C1629 C1625 1.385 . S
C1629 C1628 1.374 . S
C1630 C1627 1.499 . S
C1630 C1631 1.373 . S
C1630 C1632 1.389 . S
C1631 H1610 0.950 . S
C1631 C1630 1.373 . S
C1631 C1647 1.377 . S
C1632 C1630 1.389 . S
C1632 C1633 1.524 . S
C1632 C1646 1.377 . S
C1633 C1632 1.524 . S
C1633 C1634 1.397 . S
C1633 C1638 1.363 . S
C1634 H1611 0.950 . S
C1634 C1633 1.397 . S
C1634 C1635 1.334 . S
C1635 H1612 0.950 . S
C1635 C1634 1.334 . S
C1635 C1636 1.287 . S
C1636 C1635 1.287 . S
C1636 C1637 1.524 . S
C1636 H1655 0.913 . S
C1637 H1613 0.950 . S
C1637 C1636 1.524 . S
C1637 C1638 1.415 . S
C1638 H1614 0.950 . S
C1638 C1633 1.363 . S
C1638 C1637 1.415 . S
C1639 H1615 0.951 . S
C1639 C1640 1.366 . S
C1639 C1641 1.388 . S
C1640 C1639 1.366 . S
C1640 C1644 1.385 . S
C1641 H1616 0.951 . S
C1641 C1639 1.388 . S
C1641 C1642 1.366 . S
C1642 C1641 1.366 . S
C1642 C1643 1.414 . S
C1642 C1645 1.499 . S
C1643 H1617 0.950 . S
C1643 C1642 1.414 . S
C1643 C1644 1.374 . S
C1644 H1618 0.950 . S
C1644 C1640 1.385 . S
C1644 C1643 1.374 . S
C1645 C1642 1.499 . S
C1645 C1646 1.373 . S
C1645 C1647 1.389 . S
C1646 H1619 0.950 . S
C1646 C1632 1.377 . S
C1646 C1645 1.373 . S
C1647 C1631 1.377 . S
C1647 C1645 1.389 . S
C1647 C1648 1.524 . S
C1648 C1647 1.524 . S
C1648 C1649 1.397 . S
C1648 C1653 1.363 . S
C1649 H1620 0.950 . S
C1649 C1648 1.397 . S
C1649 C1650 1.334 . S
C1650 H1621 0.950 . S
C1650 C1649 1.334 . S
C1650 C1651 1.287 . S
C1651 C1650 1.287 . S
C1651 C1652 1.524 . S
C1651 H1654 0.999 . S
C1652 H1622 0.950 . S
C1652 C1651 1.524 . S
C1652 C1653 1.415 . S
C1653 H1623 0.950 . S
C1653 C1648 1.363 . S
C1653 C1652 1.415 . S
H1654 C1651 0.999 . S
H1655 C1636 0.913 . S
H1656 C1674 0.951 . S
H1657 C1676 0.951 . S
H1658 C1678 0.950 . S
H1659 C1679 0.950 . S
H1660 C1681 0.950 . S
H1661 C1684 0.950 . S
H1662 C1685 0.950 . S
H1663 C1687 0.950 . S
H1664 C1688 0.950 . S
H1665 C1689 0.951 . S
H1666 C1691 0.951 . S
H1667 C1693 0.950 . S
H1668 C1694 0.950 . S
H1669 C1696 0.950 . S
H1670 C1699 0.950 . S
H1671 C1700 0.950 . S
H1672 C1702 0.950 . S
H1673 C1703 0.950 . S
C1674 H1656 0.951 . S
C1674 C1675 1.366 . S
C1674 C1676 1.388 . S
C1675 C1674 1.366 . S
C1675 C1679 1.385 . S
C1676 H1657 0.951 . S
C1676 C1674 1.388 . S
C1676 C1677 1.366 . S
C1677 C1676 1.366 . S
C1677 C1678 1.414 . S
C1677 C1680 1.499 . S
C1678 H1658 0.950 . S
C1678 C1677 1.414 . S
C1678 C1679 1.374 . S
C1679 H1659 0.950 . S
C1679 C1675 1.385 . S
C1679 C1678 1.374 . S
C1680 C1677 1.499 . S
C1680 C1681 1.373 . S
C1680 C1682 1.389 . S
C1681 H1660 0.950 . S
C1681 C1680 1.373 . S
C1681 C1697 1.377 . S
C1682 C1680 1.389 . S
C1682 C1683 1.524 . S
C1682 C1696 1.377 . S
C1683 C1682 1.524 . S
C1683 C1684 1.397 . S
C1683 C1688 1.363 . S
C1684 H1661 0.950 . S
C1684 C1683 1.397 . S
C1684 C1685 1.334 . S
C1685 H1662 0.950 . S
C1685 C1684 1.334 . S
C1685 C1686 1.287 . S
C1686 C1685 1.287 . S
C1686 C1687 1.524 . S
C1686 H1705 0.913 . S
C1687 H1663 0.950 . S
C1687 C1686 1.524 . S
C1687 C1688 1.415 . S
C1688 H1664 0.950 . S
C1688 C1683 1.363 . S
C1688 C1687 1.415 . S
C1689 H1665 0.951 . S
C1689 C1690 1.366 . S
C1689 C1691 1.388 . S
C1690 C1689 1.366 . S
C1690 C1694 1.385 . S
C1691 H1666 0.951 . S
C1691 C1689 1.388 . S
C1691 C1692 1.366 . S
C1692 C1691 1.366 . S
C1692 C1693 1.414 . S
C1692 C1695 1.499 . S
C1693 H1667 0.950 . S
C1693 C1692 1.414 . S
C1693 C1694 1.374 . S
C1694 H1668 0.950 . S
C1694 C1690 1.385 . S
C1694 C1693 1.374 . S
C1695 C1692 1.499 . S
C1695 C1696 1.373 . S
C1695 C1697 1.389 . S
C1696 H1669 0.950 . S
C1696 C1682 1.377 . S
C1696 C1695 1.373 . S
C1697 C1681 1.377 . S
C1697 C1695 1.389 . S
C1697 C1698 1.524 . S
C1698 C1697 1.524 . S
C1698 C1699 1.397 . S
C1698 C1703 1.363 . S
C1699 H1670 0.950 . S
C1699 C1698 1.397 . S
C1699 C1700 1.334 . S
C1700 H1671 0.950 . S
C1700 C1699 1.334 . S
C1700 C1701 1.287 . S
C1701 C1700 1.287 . S
C1701 C1702 1.524 . S
C1701 H1704 0.999 . S
C1702 H1672 0.950 . S
C1702 C1701 1.524 . S
C1702 C1703 1.415 . S
C1703 H1673 0.950 . S
C1703 C1698 1.363 . S
C1703 C1702 1.415 . S
H1704 C1701 0.999 . S
H1705 C1686 0.913 . S
H1706 C1724 0.951 . S
H1707 C1726 0.951 . S
H1708 C1728 0.950 . S
H1709 C1729 0.950 . S
H1710 C1731 0.950 . S
H1711 C1734 0.950 . S
H1712 C1735 0.950 . S
H1713 C1737 0.950 . S
H1714 C1738 0.950 . S
H1715 C1739 0.951 . S
H1716 C1741 0.951 . S
H1717 C1743 0.950 . S
H1718 C1744 0.950 . S
H1719 C1746 0.950 . S
H1720 C1749 0.950 . S
H1721 C1750 0.950 . S
H1722 C1752 0.950 . S
H1723 C1753 0.950 . S
C1724 H1706 0.951 . S
C1724 C1725 1.366 . S
C1724 C1726 1.388 . S
C1725 C1724 1.366 . S
C1725 C1729 1.385 . S
C1726 H1707 0.951 . S
C1726 C1724 1.388 . S
C1726 C1727 1.366 . S
C1727 C1726 1.366 . S
C1727 C1728 1.414 . S
C1727 C1730 1.499 . S
C1728 H1708 0.950 . S
C1728 C1727 1.414 . S
C1728 C1729 1.374 . S
C1729 H1709 0.950 . S
C1729 C1725 1.385 . S
C1729 C1728 1.374 . S
C1730 C1727 1.499 . S
C1730 C1731 1.373 . S
C1730 C1732 1.389 . S
C1731 H1710 0.950 . S
C1731 C1730 1.373 . S
C1731 C1747 1.377 . S
C1732 C1730 1.389 . S
C1732 C1733 1.524 . S
C1732 C1746 1.377 . S
C1733 C1732 1.524 . S
C1733 C1734 1.397 . S
C1733 C1738 1.363 . S
C1734 H1711 0.950 . S
C1734 C1733 1.397 . S
C1734 C1735 1.334 . S
C1735 H1712 0.950 . S
C1735 C1734 1.334 . S
C1735 C1736 1.287 . S
C1736 C1735 1.287 . S
C1736 C1737 1.524 . S
C1736 H1755 0.913 . S
C1737 H1713 0.950 . S
C1737 C1736 1.524 . S
C1737 C1738 1.415 . S
C1738 H1714 0.950 . S
C1738 C1733 1.363 . S
C1738 C1737 1.415 . S
C1739 H1715 0.951 . S
C1739 C1740 1.366 . S
C1739 C1741 1.388 . S
C1740 C1739 1.366 . S
C1740 C1744 1.385 . S
C1741 H1716 0.951 . S
C1741 C1739 1.388 . S
C1741 C1742 1.366 . S
C1742 C1741 1.366 . S
C1742 C1743 1.414 . S
C1742 C1745 1.499 . S
C1743 H1717 0.950 . S
C1743 C1742 1.414 . S
C1743 C1744 1.374 . S
C1744 H1718 0.950 . S
C1744 C1740 1.385 . S
C1744 C1743 1.374 . S
C1745 C1742 1.499 . S
C1745 C1746 1.373 . S
C1745 C1747 1.389 . S
C1746 H1719 0.950 . S
C1746 C1732 1.377 . S
C1746 C1745 1.373 . S
C1747 C1731 1.377 . S
C1747 C1745 1.389 . S
C1747 C1748 1.524 . S
C1748 C1747 1.524 . S
C1748 C1749 1.397 . S
C1748 C1753 1.363 . S
C1749 H1720 0.950 . S
C1749 C1748 1.397 . S
C1749 C1750 1.334 . S
C1750 H1721 0.950 . S
C1750 C1749 1.334 . S
C1750 C1751 1.287 . S
C1751 C1750 1.287 . S
C1751 C1752 1.524 . S
C1751 H1754 0.999 . S
C1752 H1722 0.950 . S
C1752 C1751 1.524 . S
C1752 C1753 1.415 . S
C1753 H1723 0.950 . S
C1753 C1748 1.363 . S
C1753 C1752 1.415 . S
H1754 C1751 0.999 . S
H1755 C1736 0.913 . S
H1756 C1774 0.951 . S
H1757 C1776 0.951 . S
H1758 C1778 0.950 . S
H1759 C1779 0.950 . S
H1760 C1781 0.950 . S
H1761 C1784 0.950 . S
H1762 C1785 0.950 . S
H1763 C1787 0.950 . S
H1764 C1788 0.950 . S
H1765 C1789 0.951 . S
H1766 C1791 0.951 . S
H1767 C1793 0.950 . S
H1768 C1794 0.950 . S
H1769 C1796 0.950 . S
H1770 C1799 0.950 . S
H1771 C1800 0.950 . S
H1772 C1802 0.950 . S
H1773 C1803 0.950 . S
C1774 H1756 0.951 . S
C1774 C1775 1.366 . S
C1774 C1776 1.388 . S
C1775 C1774 1.366 . S
C1775 C1779 1.385 . S
C1776 H1757 0.951 . S
C1776 C1774 1.388 . S
C1776 C1777 1.366 . S
C1777 C1776 1.366 . S
C1777 C1778 1.414 . S
C1777 C1780 1.499 . S
C1778 H1758 0.950 . S
C1778 C1777 1.414 . S
C1778 C1779 1.374 . S
C1779 H1759 0.950 . S
C1779 C1775 1.385 . S
C1779 C1778 1.374 . S
C1780 C1777 1.499 . S
C1780 C1781 1.373 1_554 S
C1780 C1782 1.389 . S
C1781 H1760 0.950 . S
C1781 C1780 1.373 1_556 S
C1781 C1797 1.377 . S
C1782 C1780 1.389 . S
C1782 C1783 1.524 . S
C1782 C1796 1.377 . S
C1783 C1782 1.524 . S
C1783 C1784 1.397 . S
C1783 C1788 1.363 . S
C1784 H1761 0.950 . S
C1784 C1783 1.397 . S
C1784 C1785 1.334 . S
C1785 H1762 0.950 . S
C1785 C1784 1.334 . S
C1785 C1786 1.287 . S
C1786 C1785 1.287 . S
C1786 C1787 1.524 . S
C1786 H1805 0.913 . S
C1787 H1763 0.950 . S
C1787 C1786 1.524 . S
C1787 C1788 1.415 . S
C1788 H1764 0.950 . S
C1788 C1783 1.363 . S
C1788 C1787 1.415 . S
C1789 H1765 0.951 . S
C1789 C1790 1.366 . S
C1789 C1791 1.388 . S
C1790 C1789 1.366 . S
C1790 C1794 1.385 . S
C1791 H1766 0.951 . S
C1791 C1789 1.388 . S
C1791 C1792 1.366 . S
C1792 C1791 1.366 . S
C1792 C1793 1.414 . S
C1792 C1795 1.499 . S
C1793 H1767 0.950 . S
C1793 C1792 1.414 . S
C1793 C1794 1.374 . S
C1794 H1768 0.950 . S
C1794 C1790 1.385 . S
C1794 C1793 1.374 . S
C1795 C1792 1.499 . S
C1795 C1796 1.373 1_556 S
C1795 C1797 1.389 . S
C1796 H1769 0.950 . S
C1796 C1782 1.377 . S
C1796 C1795 1.373 1_554 S
C1797 C1781 1.377 . S
C1797 C1795 1.389 . S
C1797 C1798 1.524 . S
C1798 C1797 1.524 . S
C1798 C1799 1.397 . S
C1798 C1803 1.363 . S
C1799 H1770 0.950 . S
C1799 C1798 1.397 . S
C1799 C1800 1.334 . S
C1800 H1771 0.950 . S
C1800 C1799 1.334 . S
C1800 C1801 1.287 . S
C1801 C1800 1.287 . S
C1801 C1802 1.524 . S
C1801 H1804 0.999 . S
C1802 H1772 0.950 . S
C1802 C1801 1.524 . S
C1802 C1803 1.415 . S
C1803 H1773 0.950 . S
C1803 C1798 1.363 . S
C1803 C1802 1.415 . S
H1804 C1801 0.999 . S
H1805 C1786 0.913 . S
H1806 C1824 0.951 . S
H1807 C1826 0.951 . S
H1808 C1828 0.950 . S
H1809 C1829 0.950 . S
H1810 C1831 0.950 . S
H1811 C1834 0.950 . S
H1812 C1835 0.950 . S
H1813 C1837 0.950 . S
H1814 C1838 0.950 . S
H1815 C1839 0.951 . S
H1816 C1841 0.951 . S
H1817 C1843 0.950 . S
H1818 C1844 0.950 . S
H1819 C1846 0.950 . S
H1820 C1849 0.950 . S
H1821 C1850 0.950 . S
H1822 C1852 0.950 . S
H1823 C1853 0.950 . S
C1824 H1806 0.951 . S
C1824 C1825 1.366 . S
C1824 C1826 1.388 . S
C1825 C1824 1.366 . S
C1825 C1829 1.385 . S
C1826 H1807 0.951 . S
C1826 C1824 1.388 . S
C1826 C1827 1.366 . S
C1827 C1826 1.366 . S
C1827 C1828 1.414 . S
C1827 C1830 1.499 . S
C1828 H1808 0.950 . S
C1828 C1827 1.414 . S
C1828 C1829 1.374 . S
C1829 H1809 0.950 . S
C1829 C1825 1.385 . S
C1829 C1828 1.374 . S
C1830 C1827 1.499 . S
C1830 C1831 1.373 . S
C1830 C1832 1.389 . S
C1831 H1810 0.950 . S
C1831 C1830 1.373 . S
C1831 C1847 1.377 . S
C1832 C1830 1.389 . S
C1832 C1833 1.524 . S
C1832 C1846 1.377 . S
C1833 C1832 1.524 . S
C1833 C1834 1.397 . S
C1833 C1838 1.363 . S
C1834 H1811 0.950 . S
C1834 C1833 1.397 . S
C1834 C1835 1.334 . S
C1835 H1812 0.950 . S
C1835 C1834 1.334 . S
C1835 C1836 1.287 . S
C1836 C1835 1.287 . S
C1836 C1837 1.524 . S
C1836 H1855 0.913 . S
C1837 H1813 0.950 . S
C1837 C1836 1.524 . S
C1837 C1838 1.415 . S
C1838 H1814 0.950 . S
C1838 C1833 1.363 . S
C1838 C1837 1.415 . S
C1839 H1815 0.951 . S
C1839 C1840 1.366 . S
C1839 C1841 1.388 . S
C1840 C1839 1.366 . S
C1840 C1844 1.385 . S
C1841 H1816 0.951 . S
C1841 C1839 1.388 . S
C1841 C1842 1.366 . S
C1842 C1841 1.366 . S
C1842 C1843 1.414 . S
C1842 C1845 1.499 . S
C1843 H1817 0.950 . S
C1843 C1842 1.414 . S
C1843 C1844 1.374 . S
C1844 H1818 0.950 . S
C1844 C1840 1.385 . S
C1844 C1843 1.374 . S
C1845 C1842 1.499 . S
C1845 C1846 1.373 . S
C1845 C1847 1.389 . S
C1846 H1819 0.950 . S
C1846 C1832 1.377 . S
C1846 C1845 1.373 . S
C1847 C1831 1.377 . S
C1847 C1845 1.389 . S
C1847 C1848 1.524 . S
C1848 C1847 1.524 . S
C1848 C1849 1.397 . S
C1848 C1853 1.363 . S
C1849 H1820 0.950 . S
C1849 C1848 1.397 . S
C1849 C1850 1.334 . S
C1850 H1821 0.950 . S
C1850 C1849 1.334 . S
C1850 C1851 1.287 . S
C1851 C1850 1.287 . S
C1851 C1852 1.524 . S
C1851 H1854 0.999 . S
C1852 H1822 0.950 . S
C1852 C1851 1.524 . S
C1852 C1853 1.415 . S
C1853 H1823 0.950 . S
C1853 C1848 1.363 . S
C1853 C1852 1.415 . S
H1854 C1851 0.999 . S
H1855 C1836 0.913 . S
H1856 C1874 0.951 . S
H1857 C1876 0.951 . S
H1858 C1878 0.950 . S
H1859 C1879 0.950 . S
H1860 C1881 0.950 . S
H1861 C1884 0.950 . S
H1862 C1885 0.950 . S
H1863 C1887 0.950 . S
H1864 C1888 0.950 . S
H1865 C1889 0.951 . S
H1866 C1891 0.951 . S
H1867 C1893 0.950 . S
H1868 C1894 0.950 . S
H1869 C1896 0.950 . S
H1870 C1899 0.950 . S
H1871 C1900 0.950 . S
H1872 C1902 0.950 . S
H1873 C1903 0.950 . S
C1874 H1856 0.951 . S
C1874 C1875 1.366 . S
C1874 C1876 1.388 . S
C1875 C1874 1.366 . S
C1875 C1879 1.385 . S
C1876 H1857 0.951 . S
C1876 C1874 1.388 . S
C1876 C1877 1.366 . S
C1877 C1876 1.366 . S
C1877 C1878 1.414 . S
C1877 C1880 1.499 . S
C1878 H1858 0.950 . S
C1878 C1877 1.414 . S
C1878 C1879 1.374 . S
C1879 H1859 0.950 . S
C1879 C1875 1.385 . S
C1879 C1878 1.374 . S
C1880 C1877 1.499 . S
C1880 C1881 1.373 . S
C1880 C1882 1.389 . S
C1881 H1860 0.950 . S
C1881 C1880 1.373 . S
C1881 C1897 1.377 . S
C1882 C1880 1.389 . S
C1882 C1883 1.524 . S
C1882 C1896 1.377 . S
C1883 C1882 1.524 . S
C1883 C1884 1.397 . S
C1883 C1888 1.363 . S
C1884 H1861 0.950 . S
C1884 C1883 1.397 . S
C1884 C1885 1.334 . S
C1885 H1862 0.950 . S
C1885 C1884 1.334 . S
C1885 C1886 1.287 . S
C1886 C1885 1.287 . S
C1886 C1887 1.524 . S
C1886 H1905 0.913 . S
C1887 H1863 0.950 . S
C1887 C1886 1.524 . S
C1887 C1888 1.415 . S
C1888 H1864 0.950 . S
C1888 C1883 1.363 . S
C1888 C1887 1.415 . S
C1889 H1865 0.951 . S
C1889 C1890 1.366 . S
C1889 C1891 1.388 . S
C1890 C1889 1.366 . S
C1890 C1894 1.385 . S
C1891 H1866 0.951 . S
C1891 C1889 1.388 . S
C1891 C1892 1.366 . S
C1892 C1891 1.366 . S
C1892 C1893 1.414 . S
C1892 C1895 1.499 . S
C1893 H1867 0.950 . S
C1893 C1892 1.414 . S
C1893 C1894 1.374 . S
C1894 H1868 0.950 . S
C1894 C1890 1.385 . S
C1894 C1893 1.374 . S
C1895 C1892 1.499 . S
C1895 C1896 1.373 . S
C1895 C1897 1.389 . S
C1896 H1869 0.950 . S
C1896 C1882 1.377 . S
C1896 C1895 1.373 . S
C1897 C1881 1.377 . S
C1897 C1895 1.389 . S
C1897 C1898 1.524 . S
C1898 C1897 1.524 . S
C1898 C1899 1.397 . S
C1898 C1903 1.363 . S
C1899 H1870 0.950 . S
C1899 C1898 1.397 . S
C1899 C1900 1.334 . S
C1900 H1871 0.950 . S
C1900 C1899 1.334 . S
C1900 C1901 1.287 . S
C1901 C1900 1.287 . S
C1901 C1902 1.524 . S
C1901 H1904 0.999 . S
C1902 H1872 0.950 . S
C1902 C1901 1.524 . S
C1902 C1903 1.415 . S
C1903 H1873 0.950 . S
C1903 C1898 1.363 . S
C1903 C1902 1.415 . S
H1904 C1901 0.999 . S
H1905 C1886 0.913 . S
H1906 C1924 0.951 . S
H1907 C1926 0.951 . S
H1908 C1928 0.950 . S
H1909 C1929 0.950 . S
H1910 C1931 0.950 . S
H1911 C1934 0.950 . S
H1912 C1935 0.950 . S
H1913 C1937 0.950 . S
H1914 C1938 0.950 . S
H1915 C1939 0.951 . S
H1916 C1941 0.951 . S
H1917 C1943 0.950 . S
H1918 C1944 0.950 . S
H1919 C1946 0.953 . S
H1920 C1949 0.950 . S
H1921 C1950 0.950 . S
H1922 C1952 0.950 . S
H1923 C1953 0.950 . S
C1924 H1906 0.951 . S
C1924 C1925 1.366 . S
C1924 C1926 1.388 . S
C1925 C1924 1.366 . S
C1925 C1929 1.385 . S
C1926 H1907 0.951 . S
C1926 C1924 1.388 . S
C1926 C1927 1.366 . S
C1927 C1926 1.366 . S
C1927 C1928 1.414 . S
C1927 C1930 1.499 . S
C1928 H1908 0.950 . S
C1928 C1927 1.414 . S
C1928 C1929 1.374 . S
C1929 H1909 0.950 . S
C1929 C1925 1.385 . S
C1929 C1928 1.374 . S
C1930 C1927 1.499 . S
C1930 C1931 1.366 1_554 S
C1930 C1932 1.389 . S
C1931 H1910 0.950 . S
C1931 C1930 1.366 1_556 S
C1931 C1947 1.384 . S
C1932 C1930 1.389 . S
C1932 C1933 1.524 . S
C1932 C1946 1.406 . S
C1933 C1932 1.524 . S
C1933 C1934 1.397 . S
C1933 C1938 1.363 . S
C1934 H1911 0.950 . S
C1934 C1933 1.397 . S
C1934 C1935 1.334 . S
C1935 H1912 0.950 . S
C1935 C1934 1.334 . S
C1935 C1936 1.287 . S
C1936 C1935 1.287 . S
C1936 C1937 1.524 . S
C1936 H1955 0.913 . S
C1937 H1913 0.950 . S
C1937 C1936 1.524 . S
C1937 C1938 1.415 . S
C1938 H1914 0.950 . S
C1938 C1933 1.363 . S
C1938 C1937 1.415 . S
C1939 H1915 0.951 . S
C1939 C1940 1.366 . S
C1939 C1941 1.388 . S
C1940 C1939 1.366 . S
C1940 C1944 1.385 . S
C1941 H1916 0.951 . S
C1941 C1939 1.388 . S
C1941 C1942 1.366 . S
C1942 C1941 1.366 . S
C1942 C1943 1.414 . S
C1942 C1945 1.499 . S
C1943 H1917 0.950 . S
C1943 C1942 1.414 . S
C1943 C1944 1.374 . S
C1944 H1918 0.950 . S
C1944 C1940 1.385 . S
C1944 C1943 1.374 . S
C1945 C1942 1.499 . S
C1945 C1946 1.343 1_556 S
C1945 C1947 1.389 . S
C1946 H1919 0.953 . S
C1946 C1932 1.406 . S
C1946 C1945 1.343 1_554 S
C1947 C1931 1.384 . S
C1947 C1945 1.389 . S
C1947 C1948 1.524 . S
C1948 C1947 1.524 . S
C1948 C1949 1.397 . S
C1948 C1953 1.363 . S
C1949 H1920 0.950 . S
C1949 C1948 1.397 . S
C1949 C1950 1.334 . S
C1950 H1921 0.950 . S
C1950 C1949 1.334 . S
C1950 C1951 1.287 . S
C1951 C1950 1.287 . S
C1951 C1952 1.524 . S
C1951 H1954 0.999 . S
C1952 H1922 0.950 . S
C1952 C1951 1.524 . S
C1952 C1953 1.415 . S
C1953 H1923 0.950 . S
C1953 C1948 1.363 . S
C1953 C1952 1.415 . S
H1954 C1951 0.999 . S
H1955 C1936 0.913 . S
H1956 C1974 0.951 . S
H1957 C1976 0.951 . S
H1958 C1978 0.950 . S
H1959 C1979 0.950 . S
H1960 C1981 0.950 . S
H1961 C1984 0.950 . S
H1962 C1985 0.950 . S
H1963 C1987 0.950 . S
H1964 C1988 0.950 . S
H1965 C1989 0.951 . S
H1966 C1991 0.951 . S
H1967 C1993 0.950 . S
H1968 C1994 0.950 . S
H1969 C1996 0.950 . S
H1970 C1999 0.950 . S
H1971 C2000 0.950 . S
H1972 C2002 0.950 . S
H1973 C2003 0.950 . S
C1974 H1956 0.951 . S
C1974 C1975 1.366 . S
C1974 C1976 1.388 . S
C1975 C1974 1.366 . S
C1975 C1979 1.385 . S
C1976 H1957 0.951 . S
C1976 C1974 1.388 . S
C1976 C1977 1.366 . S
C1977 C1976 1.366 . S
C1977 C1978 1.414 . S
C1977 C1980 1.499 . S
C1978 H1958 0.950 . S
C1978 C1977 1.414 . S
C1978 C1979 1.374 . S
C1979 H1959 0.950 . S
C1979 C1975 1.385 . S
C1979 C1978 1.374 . S
C1980 C1977 1.499 . S
C1980 C1981 1.373 1_545 S
C1980 C1982 1.389 . S
C1981 H1960 0.950 . S
C1981 C1980 1.373 1_565 S
C1981 C1997 1.377 . S
C1982 C1980 1.389 . S
C1982 C1983 1.524 . S
C1982 C1996 1.377 . S
C1983 C1982 1.524 . S
C1983 C1984 1.397 . S
C1983 C1988 1.363 . S
C1984 H1961 0.950 . S
C1984 C1983 1.397 . S
C1984 C1985 1.334 . S
C1985 H1962 0.950 . S
C1985 C1984 1.334 . S
C1985 C1986 1.287 . S
C1986 C1985 1.287 . S
C1986 C1987 1.524 . S
C1986 H2005 0.913 . S
C1987 H1963 0.950 . S
C1987 C1986 1.524 . S
C1987 C1988 1.415 . S
C1988 H1964 0.950 . S
C1988 C1983 1.363 . S
C1988 C1987 1.415 . S
C1989 H1965 0.951 . S
C1989 C1990 1.366 . S
C1989 C1991 1.388 . S
C1990 C1989 1.366 . S
C1990 C1994 1.385 . S
C1991 H1966 0.951 . S
C1991 C1989 1.388 . S
C1991 C1992 1.366 . S
C1992 C1991 1.366 . S
C1992 C1993 1.414 . S
C1992 C1995 1.499 . S
C1993 H1967 0.950 . S
C1993 C1992 1.414 . S
C1993 C1994 1.374 . S
C1994 H1968 0.950 . S
C1994 C1990 1.385 . S
C1994 C1993 1.374 . S
C1995 C1992 1.499 . S
C1995 C1996 1.373 1_565 S
C1995 C1997 1.389 . S
C1996 H1969 0.950 . S
C1996 C1982 1.377 . S
C1996 C1995 1.373 1_545 S
C1997 C1981 1.377 . S
C1997 C1995 1.389 . S
C1997 C1998 1.524 . S
C1998 C1997 1.524 . S
C1998 C1999 1.397 . S
C1998 C2003 1.363 . S
C1999 H1970 0.950 . S
C1999 C1998 1.397 . S
C1999 C2000 1.334 . S
C2000 H1971 0.950 . S
C2000 C1999 1.334 . S
C2000 C2001 1.287 . S
C2001 C2000 1.287 . S
C2001 C2002 1.524 . S
C2001 H2004 0.999 . S
C2002 H1972 0.950 . S
C2002 C2001 1.524 . S
C2002 C2003 1.415 . S
C2003 H1973 0.950 . S
C2003 C1998 1.363 . S
C2003 C2002 1.415 . S
H2004 C2001 0.999 . S
H2005 C1986 0.913 . S
H2006 C2024 0.951 . S
H2007 C2026 0.951 . S
H2008 C2028 0.950 . S
H2009 C2029 0.950 . S
H2010 C2031 0.950 . S
H2011 C2034 0.950 . S
H2012 C2035 0.950 . S
H2013 C2037 0.950 . S
H2014 C2038 0.950 . S
H2015 C2039 0.951 . S
H2016 C2041 0.951 . S
H2017 C2043 0.950 . S
H2018 C2044 0.950 . S
H2019 C2046 0.950 . S
H2020 C2049 0.950 . S
H2021 C2050 0.950 . S
H2022 C2052 0.950 . S
H2023 C2053 0.950 . S
C2024 H2006 0.951 . S
C2024 C2025 1.366 . S
C2024 C2026 1.388 . S
C2025 C2024 1.366 . S
C2025 C2029 1.385 . S
C2026 H2007 0.951 . S
C2026 C2024 1.388 . S
C2026 C2027 1.366 . S
C2027 C2026 1.366 . S
C2027 C2028 1.414 . S
C2027 C2030 1.499 . S
C2028 H2008 0.950 . S
C2028 C2027 1.414 . S
C2028 C2029 1.374 . S
C2029 H2009 0.950 . S
C2029 C2025 1.385 . S
C2029 C2028 1.374 . S
C2030 C2027 1.499 . S
C2030 C2031 1.373 . S
C2030 C2032 1.389 . S
C2031 H2010 0.950 . S
C2031 C2030 1.373 . S
C2031 C2047 1.377 . S
C2032 C2030 1.389 . S
C2032 C2033 1.524 . S
C2032 C2046 1.377 . S
C2033 C2032 1.524 . S
C2033 C2034 1.397 . S
C2033 C2038 1.363 . S
C2034 H2011 0.950 . S
C2034 C2033 1.397 . S
C2034 C2035 1.334 . S
C2035 H2012 0.950 . S
C2035 C2034 1.334 . S
C2035 C2036 1.287 . S
C2036 C2035 1.287 . S
C2036 C2037 1.524 . S
C2036 H2055 0.913 . S
C2037 H2013 0.950 . S
C2037 C2036 1.524 . S
C2037 C2038 1.415 . S
C2038 H2014 0.950 . S
C2038 C2033 1.363 . S
C2038 C2037 1.415 . S
C2039 H2015 0.951 . S
C2039 C2040 1.366 . S
C2039 C2041 1.388 . S
C2040 C2039 1.366 . S
C2040 C2044 1.385 . S
C2041 H2016 0.951 . S
C2041 C2039 1.388 . S
C2041 C2042 1.366 . S
C2042 C2041 1.366 . S
C2042 C2043 1.414 . S
C2042 C2045 1.499 . S
C2043 H2017 0.950 . S
C2043 C2042 1.414 . S
C2043 C2044 1.374 . S
C2044 H2018 0.950 . S
C2044 C2040 1.385 . S
C2044 C2043 1.374 . S
C2045 C2042 1.499 . S
C2045 C2046 1.373 . S
C2045 C2047 1.389 . S
C2046 H2019 0.950 . S
C2046 C2032 1.377 . S
C2046 C2045 1.373 . S
C2047 C2031 1.377 . S
C2047 C2045 1.389 . S
C2047 C2048 1.524 . S
C2048 C2047 1.524 . S
C2048 C2049 1.397 . S
C2048 C2053 1.363 . S
C2049 H2020 0.950 . S
C2049 C2048 1.397 . S
C2049 C2050 1.334 . S
C2050 H2021 0.950 . S
C2050 C2049 1.334 . S
C2050 C2051 1.287 . S
C2051 C2050 1.287 . S
C2051 C2052 1.524 . S
C2051 H2054 0.999 . S
C2052 H2022 0.950 . S
C2052 C2051 1.524 . S
C2052 C2053 1.415 . S
C2053 H2023 0.950 . S
C2053 C2048 1.363 . S
C2053 C2052 1.415 . S
H2054 C2051 0.999 . S
H2055 C2036 0.913 . S
H2056 C2074 0.988 . S
H2057 C2076 0.951 1_655 S
H2058 C2078 0.950 . S
H2059 C2079 0.950 . S
H2060 C2081 0.950 . S
H2061 C2084 0.950 . S
H2062 C2085 0.950 . S
H2063 C2087 0.950 . S
H2064 C2088 0.950 . S
H2065 C2089 0.992 . S
H2066 C2091 0.951 1_455 S
H2067 C2093 0.950 . S
H2068 C2094 0.950 . S
H2069 C2096 0.950 . S
H2070 C2099 0.950 . S
H2071 C2100 0.950 . S
H2072 C2102 0.950 . S
H2073 C2103 0.950 . S
C2074 H2056 0.988 . S
C2074 C2075 1.366 . S
C2074 C2076 1.388 . S
C2075 C2074 1.366 . S
C2075 C2079 1.385 . S
C2076 H2057 0.951 1_455 S
C2076 C2074 1.388 . S
C2076 C2077 1.366 . S
C2077 C2076 1.366 . S
C2077 C2078 1.414 . S
C2077 C2080 1.499 . S
C2078 H2058 0.950 . S
C2078 C2077 1.414 . S
C2078 C2079 1.374 . S
C2079 H2059 0.950 . S
C2079 C2075 1.385 . S
C2079 C2078 1.374 . S
C2080 C2077 1.499 . S
C2080 C2081 1.373 . S
C2080 C2082 1.389 1_455 S
C2081 H2060 0.950 . S
C2081 C2080 1.373 . S
C2081 C2097 1.377 . S
C2082 C2080 1.389 1_655 S
C2082 C2083 1.524 . S
C2082 C2096 1.377 . S
C2083 C2082 1.524 . S
C2083 C2084 1.397 . S
C2083 C2088 1.363 . S
C2084 H2061 0.950 . S
C2084 C2083 1.397 . S
C2084 C2085 1.334 . S
C2085 H2062 0.950 . S
C2085 C2084 1.334 . S
C2085 C2086 1.287 . S
C2086 C2085 1.287 . S
C2086 C2087 1.524 . S
C2086 H2105 0.913 . S
C2087 H2063 0.950 . S
C2087 C2086 1.524 . S
C2087 C2088 1.415 . S
C2088 H2064 0.950 . S
C2088 C2083 1.363 . S
C2088 C2087 1.415 . S
C2089 H2065 0.992 . S
C2089 C2090 1.366 . S
C2089 C2091 1.388 . S
C2090 C2089 1.366 . S
C2090 C2094 1.385 . S
C2091 H2066 0.951 1_655 S
C2091 C2089 1.388 . S
C2091 C2092 1.366 . S
C2092 C2091 1.366 . S
C2092 C2093 1.414 . S
C2092 C2095 1.499 . S
C2093 H2067 0.950 . S
C2093 C2092 1.414 . S
C2093 C2094 1.374 . S
C2094 H2068 0.950 . S
C2094 C2090 1.385 . S
C2094 C2093 1.374 . S
C2095 C2092 1.499 . S
C2095 C2096 1.373 . S
C2095 C2097 1.389 1_655 S
C2096 H2069 0.950 . S
C2096 C2082 1.377 . S
C2096 C2095 1.373 . S
C2097 C2081 1.377 . S
C2097 C2095 1.389 1_455 S
C2097 C2098 1.524 . S
C2098 C2097 1.524 . S
C2098 C2099 1.397 . S
C2098 C2103 1.363 . S
C2099 H2070 0.950 . S
C2099 C2098 1.397 . S
C2099 C2100 1.334 . S
C2100 H2071 0.950 . S
C2100 C2099 1.334 . S
C2100 C2101 1.287 . S
C2101 C2100 1.287 . S
C2101 C2102 1.524 . S
C2101 H2104 0.999 . S
C2102 H2072 0.950 . S
C2102 C2101 1.524 . S
C2102 C2103 1.415 . S
C2103 H2073 0.950 . S
C2103 C2098 1.363 . S
C2103 C2102 1.415 . S
H2104 C2101 0.999 . S
H2105 C2086 0.913 . S
H2106 C2124 0.951 1_545 S
H2107 C2126 0.951 1_545 S
H2108 C2128 0.950 . S
H2109 C2129 0.950 . S
H2110 C2131 0.950 . S
H2111 C2134 0.950 . S
H2112 C2135 0.950 . S
H2113 C2137 0.950 . S
H2114 C2138 0.950 . S
H2115 C2139 0.951 1_565 S
H2116 C2141 0.951 1_565 S
H2117 C2143 0.950 . S
H2118 C2144 0.950 . S
H2119 C2146 0.950 . S
H2120 C2149 0.950 . S
H2121 C2150 0.950 . S
H2122 C2152 0.950 . S
H2123 C2153 0.950 . S
C2124 H2106 0.951 1_565 S
C2124 C2125 1.366 . S
C2124 C2126 1.388 . S
C2125 C2124 1.366 . S
C2125 C2129 1.385 . S
C2126 H2107 0.951 1_565 S
C2126 C2124 1.388 . S
C2126 C2127 1.366 . S
C2127 C2126 1.366 . S
C2127 C2128 1.414 . S
C2127 C2130 1.499 . S
C2128 H2108 0.950 . S
C2128 C2127 1.414 . S
C2128 C2129 1.374 . S
C2129 H2109 0.950 . S
C2129 C2125 1.385 . S
C2129 C2128 1.374 . S
C2130 C2127 1.499 . S
C2130 C2131 1.373 . S
C2130 C2132 1.389 1_565 S
C2131 H2110 0.950 . S
C2131 C2130 1.373 . S
C2131 C2147 1.377 . S
C2132 C2130 1.389 1_545 S
C2132 C2133 1.524 . S
C2132 C2146 1.377 . S
C2133 C2132 1.524 . S
C2133 C2134 1.397 1_545 S
C2133 C2138 1.363 . S
C2134 H2111 0.950 . S
C2134 C2133 1.397 1_565 S
C2134 C2135 1.334 . S
C2135 H2112 0.950 . S
C2135 C2134 1.334 . S
C2135 C2136 1.287 1_565 S
C2136 C2135 1.287 1_545 S
C2136 C2137 1.524 . S
C2136 H2155 0.913 . S
C2137 H2113 0.950 . S
C2137 C2136 1.524 . S
C2137 C2138 1.415 . S
C2138 H2114 0.950 . S
C2138 C2133 1.363 . S
C2138 C2137 1.415 . S
C2139 H2115 0.951 1_545 S
C2139 C2140 1.366 . S
C2139 C2141 1.388 . S
C2140 C2139 1.366 . S
C2140 C2144 1.385 . S
C2141 H2116 0.951 1_545 S
C2141 C2139 1.388 . S
C2141 C2142 1.366 . S
C2142 C2141 1.366 . S
C2142 C2143 1.414 . S
C2142 C2145 1.499 . S
C2143 H2117 0.950 . S
C2143 C2142 1.414 . S
C2143 C2144 1.374 . S
C2144 H2118 0.950 . S
C2144 C2140 1.385 . S
C2144 C2143 1.374 . S
C2145 C2142 1.499 . S
C2145 C2146 1.373 . S
C2145 C2147 1.389 1_545 S
C2146 H2119 0.950 . S
C2146 C2132 1.377 . S
C2146 C2145 1.373 . S
C2147 C2131 1.377 . S
C2147 C2145 1.389 1_565 S
C2147 C2148 1.524 . S
C2148 C2147 1.524 . S
C2148 C2149 1.397 1_565 S
C2148 C2153 1.363 . S
C2149 H2120 0.950 . S
C2149 C2148 1.397 1_545 S
C2149 C2150 1.334 . S
C2150 H2121 0.950 . S
C2150 C2149 1.334 . S
C2150 C2151 1.287 1_545 S
C2151 C2150 1.287 1_565 S
C2151 C2152 1.524 . S
C2151 H2154 0.999 . S
C2152 H2122 0.950 . S
C2152 C2151 1.524 . S
C2152 C2153 1.415 . S
C2153 H2123 0.950 . S
C2153 C2148 1.363 . S
C2153 C2152 1.415 . S
H2154 C2151 0.999 . S
H2155 C2136 0.913 . S
H2156 C2174 0.951 . S
H2157 C2176 0.951 . S
H2158 C2178 0.950 . S
H2159 C2179 0.950 . S
H2160 C2181 0.950 . S
H2161 C2184 0.950 . S
H2162 C2185 0.950 . S
H2163 C2187 0.950 . S
H2164 C2188 0.950 . S
H2165 C2189 0.951 . S
H2166 C2191 0.951 . S
H2167 C2193 0.950 . S
H2168 C2194 0.950 . S
H2169 C2196 0.950 . S
H2170 C2199 0.950 . S
H2171 C2200 0.950 . S
H2172 C2202 0.950 . S
H2173 C2203 0.950 . S
C2174 H2156 0.951 . S
C2174 C2175 1.366 . S
C2174 C2176 1.388 . S
C2175 C2174 1.366 . S
C2175 C2179 1.385 . S
C2176 H2157 0.951 . S
C2176 C2174 1.388 . S
C2176 C2177 1.366 . S
C2177 C2176 1.366 . S
C2177 C2178 1.414 . S
C2177 C2180 1.499 . S
C2178 H2158 0.950 . S
C2178 C2177 1.414 . S
C2178 C2179 1.374 . S
C2179 H2159 0.950 . S
C2179 C2175 1.385 . S
C2179 C2178 1.374 . S
C2180 C2177 1.499 . S
C2180 C2181 1.373 . S
C2180 C2182 1.389 . S
C2181 H2160 0.950 . S
C2181 C2180 1.373 . S
C2181 C2197 1.377 . S
C2182 C2180 1.389 . S
C2182 C2183 1.524 . S
C2182 C2196 1.377 . S
C2183 C2182 1.524 . S
C2183 C2184 1.397 . S
C2183 C2188 1.363 . S
C2184 H2161 0.950 . S
C2184 C2183 1.397 . S
C2184 C2185 1.334 . S
C2185 H2162 0.950 . S
C2185 C2184 1.334 . S
C2185 C2186 1.287 . S
C2186 C2185 1.287 . S
C2186 C2187 1.524 . S
C2186 H2205 0.913 . S
C2187 H2163 0.950 . S
C2187 C2186 1.524 . S
C2187 C2188 1.415 . S
C2188 H2164 0.950 . S
C2188 C2183 1.363 . S
C2188 C2187 1.415 . S
C2189 H2165 0.951 . S
C2189 C2190 1.366 . S
C2189 C2191 1.388 . S
C2190 C2189 1.366 . S
C2190 C2194 1.385 . S
C2191 H2166 0.951 . S
C2191 C2189 1.388 . S
C2191 C2192 1.366 . S
C2192 C2191 1.366 . S
C2192 C2193 1.414 . S
C2192 C2195 1.499 . S
C2193 H2167 0.950 . S
C2193 C2192 1.414 . S
C2193 C2194 1.374 . S
C2194 H2168 0.950 . S
C2194 C2190 1.385 . S
C2194 C2193 1.374 . S
C2195 C2192 1.499 . S
C2195 C2196 1.373 . S
C2195 C2197 1.389 . S
C2196 H2169 0.950 . S
C2196 C2182 1.377 . S
C2196 C2195 1.373 . S
C2197 C2181 1.377 . S
C2197 C2195 1.389 . S
C2197 C2198 1.524 . S
C2198 C2197 1.524 . S
C2198 C2199 1.397 . S
C2198 C2203 1.363 . S
C2199 H2170 0.950 . S
C2199 C2198 1.397 . S
C2199 C2200 1.334 . S
C2200 H2171 0.950 . S
C2200 C2199 1.334 . S
C2200 C2201 1.287 . S
C2201 C2200 1.287 . S
C2201 C2202 1.524 . S
C2201 H2204 0.999 . S
C2202 H2172 0.950 . S
C2202 C2201 1.524 . S
C2202 C2203 1.415 . S
C2203 H2173 0.950 . S
C2203 C2198 1.363 . S
C2203 C2202 1.415 . S
H2204 C2201 0.999 . S
H2205 C2186 0.913 . S
H2206 C2224 0.951 . S
H2207 C2226 0.951 . S
H2208 C2228 0.950 1_455 S
H2209 C2229 0.950 . S
H2210 C2231 0.950 . S
H2211 C2234 0.950 . S
H2212 C2235 0.950 . S
H2213 C2237 0.950 1_655 S
H2214 C2238 0.950 . S
H2215 C2239 0.951 . S
H2216 C2241 0.951 . S
H2217 C2243 0.950 1_655 S
H2218 C2244 0.950 . S
H2219 C2246 0.950 . S
H2220 C2249 0.950 . S
H2221 C2250 0.950 . S
H2222 C2252 0.950 1_455 S
H2223 C2253 0.950 . S
C2224 H2206 0.951 . S
C2224 C2225 1.366 . S
C2224 C2226 1.388 . S
C2225 C2224 1.366 . S
C2225 C2229 1.385 . S
C2226 H2207 0.951 . S
C2226 C2224 1.388 . S
C2226 C2227 1.366 . S
C2227 C2226 1.366 . S
C2227 C2228 1.414 . S
C2227 C2230 1.499 . S
C2228 H2208 0.950 1_655 S
C2228 C2227 1.414 . S
C2228 C2229 1.374 . S
C2229 H2209 0.950 . S
C2229 C2225 1.385 . S
C2229 C2228 1.374 . S
C2230 C2227 1.499 . S
C2230 C2231 1.373 . S
C2230 C2232 1.389 1_655 S
C2231 H2210 0.950 . S
C2231 C2230 1.373 . S
C2231 C2247 1.377 . S
C2232 C2230 1.389 1_455 S
C2232 C2233 1.524 . S
C2232 C2246 1.377 . S
C2233 C2232 1.524 . S
C2233 C2234 1.397 . S
C2233 C2238 1.363 1_455 S
C2234 H2211 0.950 . S
C2234 C2233 1.397 . S
C2234 C2235 1.334 . S
C2235 H2212 0.950 . S
C2235 C2234 1.334 . S
C2235 C2236 1.287 . S
C2236 C2235 1.287 . S
C2236 C2237 1.524 . S
C2236 H2255 0.913 . S
C2237 H2213 0.950 1_455 S
C2237 C2236 1.524 . S
C2237 C2238 1.415 1_455 S
C2238 H2214 0.950 . S
C2238 C2233 1.363 1_655 S
C2238 C2237 1.415 1_655 S
C2239 H2215 0.951 . S
C2239 C2240 1.366 . S
C2239 C2241 1.388 . S
C2240 C2239 1.366 . S
C2240 C2244 1.385 . S
C2241 H2216 0.951 . S
C2241 C2239 1.388 . S
C2241 C2242 1.366 . S
C2242 C2241 1.366 . S
C2242 C2243 1.414 . S
C2242 C2245 1.499 . S
C2243 H2217 0.950 1_455 S
C2243 C2242 1.414 . S
C2243 C2244 1.374 . S
C2244 H2218 0.950 . S
C2244 C2240 1.385 . S
C2244 C2243 1.374 . S
C2245 C2242 1.499 . S
C2245 C2246 1.373 . S
C2245 C2247 1.389 1_455 S
C2246 H2219 0.950 . S
C2246 C2232 1.377 . S
C2246 C2245 1.373 . S
C2247 C2231 1.377 . S
C2247 C2245 1.389 1_655 S
C2247 C2248 1.524 . S
C2248 C2247 1.524 . S
C2248 C2249 1.397 . S
C2248 C2253 1.363 1_655 S
C2249 H2220 0.950 . S
C2249 C2248 1.397 . S
C2249 C2250 1.334 . S
C2250 H2221 0.950 . S
C2250 C2249 1.334 . S
C2250 C2251 1.287 . S
C2251 C2250 1.287 . S
C2251 C2252 1.524 . S
C2251 H2254 0.999 . S
C2252 H2222 0.950 1_655 S
C2252 C2251 1.524 . S
C2252 C2253 1.415 1_655 S
C2253 H2223 0.950 . S
C2253 C2248 1.363 1_455 S
C2253 C2252 1.415 1_455 S
H2254 C2251 0.999 . S
H2255 C2236 0.913 . S
C1075 C57 2.015 . S
C1090 C733 2.008 . S
C1125 C145 2.015 . S
C1140 C812 2.009 . S
C1175 C900 1.948 . S
C1190 C233 1.942 . S
C1225 C988 2.014 . S
C1240 C321 2.008 . S
C1275 C557 2.015 . S
C1290 C401 2.008 . S
C1325 C645 1.948 . S
C1340 C497 1.942 . S
C1375 C20 1.486 . S
C1390 C284 1.493 . S
C1425 C381 1.467 . S
C1440 C108 1.467 . S
C1475 C460 1.419 . S
C1490 C196 1.412 . S
C1525 C577 1.486 . S
C1540 C849 1.493 . S
C1575 C937 1.419 . S
C1590 C665 1.412 . S
C1625 C753 1.467 . S
C1640 C1025 1.467 . S
C1675 C548 1.076 . S
C1690 C49 1.083 . S
C1725 C137 1.024 . S
C1740 C636 1.031 . S
C1775 C724 1.024 . S
C1790 C225 1.031 . S
C1825 C821 1.076 . S
C1840 C313 1.083 . S
C1875 C409 1.024 . S
C1890 C909 1.031 . S
C1925 C997 1.024 . S
C1940 C489 1.031 . S
C1975 C29 0.489 . S
C1990 C673 0.485 . S
C2025 C761 0.483 . S
C2040 C117 0.484 . S
C2075 C841 0.492 . S
C2090 C205 0.487 . S
C2125 C293 0.490 . S
C2140 C929 0.486 . S
C2175 C1017 0.481 . S
C2190 C372 0.482 . S
C2225 C585 0.492 . S
C2240 C469 0.486 . S
