# Generated by pormake.
# Topology rob, (6)-cn, num edge types: 1
# Building blocks:
#     Node 0, Type 0, BuildingBlock: CUKXOW_clean_sbu_0, # of connection points: 6
#     Node 1, Type 0, BuildingBlock: CUKXOW_clean_sbu_0, # of connection points: 6
#     Node 2, Type 0, BuildingBlock: CUKXOW_clean_sbu_0, # of connection points: 6
#     Node 3, Type 0, BuildingBlock: CUKXOW_clean_sbu_0, # of connection points: 6
#     Edge 4, Type (0, 0), BuildingBlock: FUNLAD_clean_linker_1, # of connection points: 2
#     Edge 5, Type (0, 0), BuildingBlock: FUNLAD_clean_linker_1, # of connection points: 2
#     Edge 6, Type (0, 0), BuildingBlock: FUNLAD_clean_linker_1, # of connection points: 2
#     Edge 7, Type (0, 0), BuildingBlock: FUNLAD_clean_linker_1, # of connection points: 2
#     Edge 8, Type (0, 0), BuildingBlock: FUNLAD_clean_linker_1, # of connection points: 2
#     Edge 9, Type (0, 0), BuildingBlock: FUNLAD_clean_linker_1, # of connection points: 2
#     Edge 10, Type (0, 0), BuildingBlock: FUNLAD_clean_linker_1, # of connection points: 2
#     Edge 11, Type (0, 0), BuildingBlock: FUNLAD_clean_linker_1, # of connection points: 2
#     Edge 12, Type (0, 0), BuildingBlock: FUNLAD_clean_linker_1, # of connection points: 2
#     Edge 13, Type (0, 0), BuildingBlock: FUNLAD_clean_linker_1, # of connection points: 2
#     Edge 14, Type (0, 0), BuildingBlock: FUNLAD_clean_linker_1, # of connection points: 2
#     Edge 15, Type (0, 0), BuildingBlock: FUNLAD_clean_linker_1, # of connection points: 2
# Relax obj value: 0.016
# Max RMSD: 0.093
# Mean RMSD: 0.093
data_MOF--net-rob--node1-CUKXOW_clean_sbu_0--edge1-FUNLAD_clean_linker_1
_symmetry_space_group_name_H-M    P1
_symmetry_Int_Tables_number       1
_symmetry_cell_setting            triclinic
loop_
_symmetry_equiv_pos_as_xyz
'x, y, z'
_cell_length_a     13.202444
_cell_length_b     28.63545
_cell_length_c     29.67204
_cell_angle_alpha  102.5163
_cell_angle_beta   90.025821
_cell_angle_gamma 90.266836
loop_
_atom_site_label
_atom_site_type_symbol
_atom_site_fract_x
_atom_site_fract_y
_atom_site_fract_z
_atom_type_partial_charge
Tb0 Tb 0.3499 0.24411 0.05908 0.0
C1 C 0.37244 0.34903 0.03771 0.0
Tb2 Tb 0.21266 0.27403 0.98581 0.0
O3 O 0.4443 0.20012 1.00499 0.0
O4 O 0.36784 0.2605 0.99369 0.0
O5 O 0.39455 0.31938 0.06522 0.0
C6 C 0.11588 0.28157 0.90873 0.0
O7 O 0.3103 0.33724 1.00159 0.0
C8 C 0.14313 0.29105 0.07044 0.0
C9 C 0.20164 0.16753 1.00283 0.0
O10 O 0.08326 0.29751 0.95034 0.0
O11 O 0.20356 0.26163 0.9103 0.0
O12 O 0.12043 0.31717 0.04125 0.0
O13 O 0.19465 0.25604 0.05029 0.0
O14 O 0.18562 0.19615 0.97367 0.0
O15 O 0.25334 0.18118 0.04191 0.0
C16 C 0.40421 0.24475 0.14584 0.0
O17 O 0.45062 0.22058 0.10942 0.0
O18 O 0.33071 0.26853 0.13309 0.0
C19 C 0.41943 0.22493 0.97459 0.0
Tb20 Tb 0.81668 0.75996 0.04285 0.0
C21 C 0.80848 0.85873 1.01172 0.0
Tb22 Tb 0.65271 0.77406 0.97096 0.0
O23 O 0.93798 0.75899 0.99308 0.0
O24 O 0.79073 0.73652 0.97099 0.0
O25 O 0.847 0.83449 0.04123 0.0
C26 C 0.56033 0.7831 0.89306 0.0
O27 O 0.73443 0.84246 0.98187 0.0
C28 C 0.59641 0.79221 0.05759 0.0
C29 C 0.66387 0.67539 1.00029 0.0
O30 O 0.51597 0.77225 0.92843 0.0
O31 O 0.65616 0.78963 0.90182 0.0
O32 O 0.53236 0.78095 0.02366 0.0
O33 O 0.68191 0.79812 0.04159 0.0
O34 O 0.63878 0.69757 0.96702 0.0
O35 O 0.72444 0.69472 0.0353 0.0
C36 C 0.9056 0.75073 0.12121 0.0
O37 O 0.93623 0.7307 0.07999 0.0
O38 O 0.82548 0.77596 0.11828 0.0
C39 C 0.87783 0.74622 0.9578 0.0
Tb40 Tb 0.30765 0.74758 0.46342 0.0
C41 C 0.30632 0.65682 0.50661 0.0
Tb42 Tb 0.15403 0.74364 0.54198 0.0
O43 O 0.44085 0.75096 0.50781 0.0
O44 O 0.29904 0.77367 0.53574 0.0
O45 O 0.33561 0.67502 0.47118 0.0
C46 C 0.05324 0.7351 0.61734 0.0
O47 O 0.24208 0.67838 0.53884 0.0
C48 C 0.07678 0.73225 0.45929 0.0
C49 C 0.17127 0.83845 0.50589 0.0
O50 O 0.0376 0.70944 0.5763 0.0
O51 O 0.12542 0.76578 0.61617 0.0
O52 O 0.0248 0.74723 0.49657 0.0
O53 O 0.16272 0.71869 0.46983 0.0
O54 O 0.14326 0.81938 0.5411 0.0
O55 O 0.22714 0.8155 0.47083 0.0
C56 C 0.37035 0.7432 0.37743 0.0
O57 O 0.3993 0.77542 0.41317 0.0
O58 O 0.3089 0.7133 0.39037 0.0
C59 C 0.38814 0.76318 0.54562 0.0
Tb60 Tb 0.87104 0.25926 0.48536 0.0
C61 C 0.85593 0.17152 0.53215 0.0
Tb62 Tb 0.7059 0.25957 0.56189 0.0
O63 O 0.99693 0.27148 0.53464 0.0
O64 O 0.84912 0.29089 0.55562 0.0
O65 O 0.87823 0.18534 0.49322 0.0
C66 C 0.62045 0.26694 0.64493 0.0
O67 O 0.80061 0.19777 0.56566 0.0
C68 C 0.6466 0.23093 0.47586 0.0
C69 C 0.72501 0.34968 0.5165 0.0
O70 O 0.61751 0.22898 0.61162 0.0
O71 O 0.669 0.30064 0.63104 0.0
O72 O 0.58401 0.24782 0.50937 0.0
O73 O 0.73179 0.22589 0.49274 0.0
O74 O 0.68083 0.33063 0.54864 0.0
O75 O 0.79879 0.32865 0.48908 0.0
C76 C 0.95086 0.25754 0.40247 0.0
O77 O 0.85593 0.26391 0.41307 0.0
O78 O 1.00136 0.25199 0.43849 0.0
C79 C 0.93723 0.28493 0.56983 0.0
H80 H 0.55078 0.61855 0.97794 0.0
C81 C 0.61945 0.62769 0.99823 0.0
H82 H 0.72869 0.60478 0.04031 0.0
H83 H 0.41839 0.46803 0.11174 0.0
H84 H 0.48681 0.51616 0.18241 0.0
H85 H 0.61163 0.58001 0.18041 0.0
H86 H 0.66434 0.59762 0.10789 0.0
C87 C 0.6596 0.59585 0.02036 0.0
C88 C 0.60615 0.54989 0.02116 0.0
C89 C 0.57711 0.5397 0.06406 0.0
C90 C 0.50968 0.50099 0.06517 0.0
C91 C 0.47496 0.4945 0.10859 0.0
C92 C 0.51265 0.52235 0.14957 0.0
C93 C 0.5826 0.5584 0.14845 0.0
C94 C 0.61252 0.56802 0.1064 0.0
H95 H 0.50118 0.39608 0.06416 0.0
C96 C 0.43219 0.39351 0.04374 0.0
H97 H 0.33899 0.42637 1.00222 0.0
H98 H 0.67172 0.55098 0.93385 0.0
H99 H 0.62161 0.49631 0.86293 0.0
H100 H 0.50526 0.42899 0.86443 0.0
H101 H 0.43906 0.41582 0.93665 0.0
C102 C 0.40707 0.42933 0.02328 0.0
C103 C 0.47696 0.47047 0.02326 0.0
C104 C 0.51334 0.47826 0.98044 0.0
C105 C 0.57875 0.51766 0.97943 0.0
C106 C 0.61798 0.52306 0.93641 0.0
C107 C 0.59091 0.49153 0.89546 0.0
C108 C 0.5256 0.4536 0.89631 0.0
C109 C 0.48758 0.44666 0.93815 0.0
H110 H 0.30744 0.58993 0.53206 0.0
C111 C 0.34974 0.61102 0.51206 0.0
H112 H 0.48613 0.61855 0.47736 0.0
H113 H 0.58302 0.45879 0.60735 0.0
H114 H 0.54615 0.5227 0.67328 0.0
H115 H 0.48697 0.60117 0.66262 0.0
H116 H 0.46297 0.61587 0.58607 0.0
C117 C 0.4429 0.59702 0.49659 0.0
C118 C 0.48866 0.55153 0.50374 0.0
C119 C 0.50425 0.54375 0.54892 0.0
C120 C 0.54111 0.49888 0.55506 0.0
C121 C 0.55495 0.49204 0.60057 0.0
C122 C 0.5346 0.52853 0.6388 0.0
C123 C 0.5011 0.57266 0.63281 0.0
C124 C 0.48652 0.58045 0.58855 0.0
H125 H 0.7435 0.4173 0.49313 0.0
C126 C 0.69248 0.39728 0.51074 0.0
H127 H 0.54865 0.39499 0.54102 0.0
H128 H 0.47908 0.55662 0.41265 0.0
H129 H 0.53127 0.49573 0.34696 0.0
H130 H 0.59706 0.41841 0.35743 0.0
H131 H 0.60636 0.4006 0.43318 0.0
C132 C 0.60002 0.4148 0.52337 0.0
C133 C 0.56598 0.46236 0.51615 0.0
C134 C 0.55606 0.47119 0.47099 0.0
C135 C 0.51807 0.51592 0.4649 0.0
C136 C 0.50862 0.52368 0.41948 0.0
C137 C 0.53796 0.48895 0.38134 0.0
C138 C 0.57486 0.4454 0.38723 0.0
C139 C 0.5815 0.43597 0.43124 0.0
H140 H 0.14943 0.09951 0.9583 0.0
C141 C 0.15294 0.12015 0.9936 0.0
H142 H 0.11402 0.12512 0.06319 0.0
H143 H 0.8627 0.93955 0.93795 0.0
H144 H 0.79251 0.99319 0.89329 0.0
H145 H 0.84043 0.07414 0.91016 0.0
H146 H 0.96239 0.1056 0.97017 0.0
C147 C 0.11135 0.10326 0.0283 0.0
C148 C 0.06917 0.05388 0.0222 0.0
C149 C 0.99056 0.03734 0.9899 0.0
C150 C 0.95529 0.99376 0.98332 0.0
C151 C 0.88623 0.97657 0.94689 0.0
C152 C 0.84613 1.0069 0.92062 0.0
C153 C 0.87363 0.0504 0.9299 0.0
C154 C 0.9448 0.06787 0.96414 0.0
H155 H 0.79338 0.93601 0.01534 0.0
C156 C 0.84732 0.90709 1.0132 0.0
H157 H 0.99918 0.88528 1.00645 0.0
H158 H 0.22387 0.07289 0.08566 0.0
H159 H 0.28298 0.02138 0.13472 0.0
H160 H 0.20669 0.9462 0.13005 0.0
H161 H 0.07225 0.91728 0.0757 0.0
C162 C 0.94697 0.91507 1.00953 0.0
C163 C 0.98992 0.96403 1.01274 0.0
C164 C 0.0663 0.98109 0.046 0.0
C165 C 0.1075 0.02334 0.04999 0.0
C166 C 0.18718 0.03843 0.08202 0.0
C167 C 0.2224 0.0091 0.11036 0.0
C168 C 0.17967 0.9687 0.10765 0.0
C169 C 0.10259 0.95248 0.07601 0.0
H170 H 0.86455 0.11284 0.56931 0.0
C171 C 0.89044 0.12453 0.53874 0.0
H172 H 0.9777 0.10697 0.47783 0.0
H173 H 0.15312 0.96486 0.60676 0.0
H174 H 0.21094 0.03219 0.66008 0.0
H175 H 0.16869 0.11213 0.64727 0.0
H176 H 0.06746 0.12081 0.58155 0.0
C177 C 0.95289 0.09636 0.50908 0.0
C178 C 0.98338 0.04836 0.51607 0.0
C179 C 0.04438 0.04399 0.55438 0.0
C180 C 0.07089 1.00234 0.56117 0.0
C181 C 0.13115 0.99899 0.59985 0.0
C182 C 0.16505 0.03544 0.63068 0.0
C183 C 0.14116 0.08044 0.6235 0.0
C184 C 0.08208 0.08489 0.58577 0.0
H185 H 0.16469 0.90168 0.47512 0.0
C186 C 0.1381 0.88706 0.50393 0.0
H187 H 0.04711 0.89943 0.56395 0.0
H188 H 0.86636 0.04396 0.43895 0.0
H189 H 0.80782 0.97659 0.38606 0.0
H190 H 0.85114 0.89673 0.39873 0.0
H191 H 0.95449 0.88822 0.4639 0.0
C192 C 0.07346 0.91273 0.53437 0.0
C193 C 0.03901 0.96074 0.529 0.0
C194 C 0.97712 0.96508 0.49099 0.0
C195 C 0.95037 0.00669 0.48423 0.0
C196 C 0.88906 0.00991 0.44581 0.0
C197 C 0.85457 0.97342 0.41522 0.0
C198 C 0.879 0.92847 0.42233 0.0
C199 C 0.93925 0.92411 0.45973 0.0
H200 H 0.69159 0.21592 0.40293 0.0
C201 C 0.62727 0.22441 0.42596 0.0
H202 H 0.47096 0.23835 0.43096 0.0
H203 H 0.46986 0.32244 0.25031 0.0
H204 H 0.4066 0.38834 0.30862 0.0
H205 H 0.39243 0.38173 0.38977 0.0
H206 H 0.44907 0.31072 0.4137 0.0
C207 C 0.53561 0.22952 0.40811 0.0
C208 C 0.52355 0.229 0.3578 0.0
C209 C 0.4882 0.27059 0.34422 0.0
C210 C 0.48949 0.27313 0.29679 0.0
C211 C 0.463 0.31695 0.28508 0.0
C212 C 0.42764 0.35538 0.31833 0.0
C213 C 0.42052 0.35182 0.36409 0.0
C214 C 0.45285 0.31058 0.37729 0.0
H215 H 0.35526 0.25123 0.21715 0.0
C216 C 0.42002 0.24229 0.19433 0.0
H217 H 0.57447 0.22395 0.18956 0.0
H218 H 0.57836 0.14074 0.37088 0.0
H219 H 0.62994 0.07251 0.31201 0.0
H220 H 0.63091 0.07652 0.22984 0.0
H221 H 0.58042 0.14869 0.20606 0.0
C222 C 0.50924 0.23292 0.21204 0.0
C223 C 0.51882 0.23265 0.26238 0.0
C224 C 0.5512 0.19051 0.27591 0.0
C225 C 0.55265 0.18851 0.3235 0.0
C226 C 0.58022 0.14505 0.33558 0.0
C227 C 0.60876 0.10534 0.30205 0.0
C228 C 0.60901 0.10755 0.25579 0.0
C229 C 0.58006 0.14938 0.24264 0.0
H230 H 0.63949 0.80215 0.13051 0.0
C231 C 0.57638 0.79406 0.10658 0.0
H232 H 0.42193 0.77499 0.09862 0.0
H233 H 0.45827 0.67485 0.26949 0.0
H234 H 0.41492 0.60842 0.20724 0.0
H235 H 0.40105 0.61919 0.12715 0.0
H236 H 0.43017 0.69676 0.1094 0.0
C237 C 0.48524 0.78447 0.12231 0.0
C238 C 0.47355 0.7804 0.17122 0.0
C239 C 0.45462 0.73494 0.1811 0.0
C240 C 0.45805 0.72914 0.22748 0.0
C241 C 0.44823 0.68236 0.23564 0.0
C242 C 0.42555 0.64352 0.19991 0.0
C243 C 0.41789 0.64959 0.15489 0.0
C244 C 0.43439 0.69444 0.14525 0.0
H245 H 0.32376 0.73059 0.3052 0.0
C246 C 0.38399 0.74563 0.32902 0.0
H247 H 0.52548 0.78027 0.33764 0.0
H248 H 0.49998 0.8734 0.16431 0.0
H249 H 0.52721 0.94189 0.22734 0.0
H250 H 0.5284 0.93266 0.30806 0.0
H251 H 0.50256 0.85513 0.32624 0.0
C252 C 0.46584 0.76511 0.31355 0.0
C253 C 0.47287 0.76963 0.26437 0.0
C254 C 0.48894 0.81542 0.2544 0.0
C255 C 0.48906 0.82079 0.20782 0.0
C256 C 0.50228 0.86708 0.19894 0.0
C257 C 0.51701 0.90681 0.23483 0.0
C258 C 0.51754 0.90161 0.28026 0.0
C259 C 0.50302 0.85668 0.29017 0.0
H260 H 0.43294 0.77056 0.84378 0.0
C261 C 0.51119 0.78259 0.84835 0.0
H262 H 0.64102 0.80479 0.81732 0.0
H263 H 0.5288 0.69946 0.61429 0.0
H264 H 0.67959 0.65749 0.62909 0.0
H265 H 0.75845 0.67418 0.70628 0.0
H266 H 0.68622 0.73254 0.76922 0.0
C267 C 0.5619 0.79408 0.81296 0.0
C268 C 0.51676 0.7868 0.76572 0.0
C269 C 0.56184 0.75352 0.72877 0.0
C270 C 0.51766 0.74467 0.68387 0.0
C271 C 0.56116 0.70916 0.64851 0.0
C272 C 0.64744 0.68439 0.65664 0.0
C273 C 0.69172 0.69372 0.70011 0.0
C274 C 0.64949 0.72755 0.73593 0.0
H275 H 0.51156 0.78373 0.59608 0.0
C276 C 0.43305 0.77198 0.59221 0.0
H277 H 0.30658 0.74856 0.62427 0.0
H278 H 0.41684 0.85679 0.82724 0.0
H279 H 0.26402 0.89765 0.81276 0.0
H280 H 0.18569 0.88114 0.73543 0.0
H281 H 0.26062 0.82419 0.67206 0.0
C282 C 0.38346 0.76206 0.62851 0.0
C283 C 0.43 0.77022 0.67555 0.0
C284 C 0.38489 0.8034 0.71252 0.0
C285 C 0.42887 0.81215 0.75745 0.0
C286 C 0.38453 0.84716 0.79299 0.0
C287 C 0.29726 0.87133 0.78503 0.0
C288 C 0.25328 0.86212 0.74149 0.0
C289 C 0.29685 0.82904 0.70544 0.0
H290 H 0.59695 0.30501 0.71678 0.0
C291 C 0.5867 0.27069 0.69296 0.0
H292 H 0.54518 0.19829 0.6858 0.0
H293 H 0.64001 0.199 0.89557 0.0
H294 H 0.76914 0.14599 0.85581 0.0
H295 H 0.79035 0.13379 0.77154 0.0
H296 H 0.68358 0.17513 0.72664 0.0
C297 C 0.55089 0.2333 0.70887 0.0
C298 C 0.53055 0.23755 0.75926 0.0
C299 C 0.59096 0.21164 0.78494 0.0
C300 C 0.57644 0.21748 0.8335 0.0
C301 C 0.64332 0.19386 0.85845 0.0
C302 C 0.71905 0.16384 0.83611 0.0
C303 C 0.73129 0.15712 0.78869 0.0
C304 C 0.66888 0.18091 0.76329 0.0
H305 H 0.45879 0.1798 0.90643 0.0
C306 C 0.45454 0.21636 0.92626 0.0
H307 H 0.47629 0.28934 0.92833 0.0
H308 H 0.39527 0.2896 0.72036 0.0
H309 H 0.2775 0.34859 0.76102 0.0
H310 H 0.263 0.36387 0.84588 0.0
H311 H 0.35821 0.31779 0.88975 0.0
C312 C 0.47855 0.25341 0.90687 0.0
C313 C 0.49942 0.24835 0.85632 0.0
C314 C 0.4424 0.27597 0.83089 0.0
C315 C 0.4557 0.26944 0.78226 0.0
C316 C 0.39254 0.29506 0.75755 0.0
C317 C 0.32383 0.32874 0.78039 0.0
C318 C 0.3149 0.33705 0.82804 0.0
C319 C 0.37129 0.3104 0.85299 0.0
H320 H 0.02331 0.72469 0.1625 0.0
C321 C 0.95355 0.74502 0.16449 0.0
H322 H 0.84337 0.78489 0.20772 0.0
H323 H 0.0738 0.65784 0.34209 0.0
H324 H 0.01035 0.58747 0.28872 0.0
H325 H 0.91783 0.59477 0.21834 0.0
H326 H 0.89111 0.6723 0.20027 0.0
C327 C 0.91184 0.7636 0.20575 0.0
C328 C 0.96025 0.75885 0.24995 0.0
C329 C 0.97004 0.71335 0.26123 0.0
C330 C 0.01736 0.7094 0.30335 0.0
C331 C 0.03335 0.66322 0.31196 0.0
C332 C 0.9981 0.62244 0.28137 0.0
C333 C 0.94649 0.62652 0.24165 0.0
C334 C 0.93235 0.67132 0.23152 0.0
H335 H 0.95958 0.72003 0.40513 0.0
C336 C 0.0378 0.73101 0.41256 0.0
H337 H 0.16416 0.7648 0.39098 0.0
H338 H 0.9564 0.85118 0.23844 0.0
H339 H 0.01402 0.92184 0.29326 0.0
H340 H 0.08628 0.91553 0.36835 0.0
H341 H 0.10109 0.83873 0.38919 0.0
C342 C 0.09174 0.7479 0.38123 0.0
C343 C 0.04841 0.75121 0.33561 0.0
C344 C 0.03825 0.7967 0.32442 0.0
C345 C 0.99483 0.80045 0.28144 0.0
C346 C 0.98739 0.84626 0.27084 0.0
C347 C 0.02044 0.88716 0.30194 0.0
C348 C 0.06131 0.8836 0.34417 0.0
C349 C 0.06974 0.83911 0.3556 0.0
H350 H 0.07555 0.25094 0.35197 0.0
C351 C 0.99495 0.25765 0.35698 0.0
H352 H 0.85689 0.2721 0.32693 0.0
H353 H 0.21101 0.333 0.18906 0.0
H354 H 0.25919 0.39497 0.25465 0.0
H355 H 0.17889 0.40012 0.3306 0.0
H356 H 0.0501 0.34293 0.34119 0.0
C357 C 0.93801 0.26666 0.32233 0.0
C358 C 0.98154 0.2662 0.27595 0.0
C359 C 0.05334 0.30139 0.26987 0.0
C360 C 0.09639 0.29974 0.22558 0.0
C361 C 0.1725 0.33354 0.22125 0.0
C362 C 0.20159 0.36923 0.25882 0.0
C363 C 0.15653 0.37205 0.30157 0.0
C364 C 0.08314 0.33872 0.30723 0.0
H365 H 0.05507 0.3278 0.13117 0.0
C366 C 0.09837 0.29591 0.11671 0.0
H367 H 0.14819 0.22839 0.1249 0.0
H368 H 0.84602 0.19332 0.2757 0.0
H369 H 0.79548 0.13203 0.20948 0.0
H370 H 0.86462 0.13115 0.13217 0.0
H371 H 0.98584 0.19116 0.12055 0.0
C372 C 0.10937 0.2613 0.14057 0.0
C373 C 0.06399 0.26424 0.18702 0.0
C374 C 0.99142 0.22942 0.19306 0.0
C375 C 0.95022 0.23039 0.23754 0.0
C376 C 0.87908 0.19466 0.24263 0.0
C377 C 0.84921 0.15925 0.20492 0.0
C378 C 0.8884 0.15866 0.16139 0.0
C379 C 0.95837 0.19328 0.15528 0.0
H380 H 0.04879 0.29817 0.62621 0.0
C381 C 0.96973 0.28955 0.61798 0.0
H382 H 0.83367 0.26445 0.641 0.0
H383 H 0.06026 0.18095 0.79432 0.0
H384 H 0.00649 0.10839 0.74097 0.0
H385 H 0.92458 0.11196 0.66707 0.0
H386 H 0.89749 0.18796 0.64574 0.0
C387 C 0.90894 0.27816 0.65014 0.0
C388 C 0.94872 0.27662 0.69666 0.0
C389 C 0.96351 0.23187 0.70869 0.0
C390 C 0.01096 0.22985 0.75124 0.0
C391 C 0.02561 0.18459 0.76222 0.0
C392 C 0.99482 0.14264 0.73198 0.0
C393 C 0.94861 0.14465 0.6904 0.0
C394 C 0.93339 0.18858 0.6786 0.0
H395 H 0.98606 0.302 0.87057 0.0
C396 C 0.06033 0.2854 0.86674 0.0
H397 H 0.17193 0.25139 0.82052 0.0
H398 H 0.91647 0.36817 0.68691 0.0
H399 H 0.96682 0.44111 0.74058 0.0
H400 H 0.05298 0.43793 0.81363 0.0
H401 H 0.08798 0.36216 0.83361 0.0
C402 C 0.09933 0.26957 0.82451 0.0
C403 C 0.04228 0.27262 0.78194 0.0
C404 C 0.02272 0.3176 0.77086 0.0
C405 C 0.97525 0.31951 0.72825 0.0
C406 C 0.95487 0.36472 0.71823 0.0
C407 C 0.98281 0.40687 0.74884 0.0
C408 C 0.03111 0.40507 0.78998 0.0
C409 C 0.05088 0.36114 0.80104 0.0
H410 H 0.92874 0.70834 0.65439 0.0
C411 C 0.99843 0.72921 0.6587 0.0
H412 H 0.10418 0.76856 0.70518 0.0
H413 H 0.82601 0.82316 0.87838 0.0
H414 H 0.84848 0.89995 0.8578 0.0
H415 H 0.93259 0.90593 0.78516 0.0
H416 H 0.99244 0.83498 0.73199 0.0
C417 C 0.03496 0.74734 0.70101 0.0
C418 C 0.97918 0.74261 0.74329 0.0
C419 C 0.94508 0.78452 0.77407 0.0
C420 C 0.89721 0.78113 0.8161 0.0
C421 C 0.86346 0.8236 0.84612 0.0
C422 C 0.87599 0.86798 0.83479 0.0
C423 C 0.92304 0.87133 0.79379 0.0
C424 C 0.95732 0.83026 0.76365 0.0
H425 H 0.98152 0.76285 0.9058 0.0
C426 C 0.9074 0.74792 0.91056 0.0
H427 H 0.77553 0.71511 0.87746 0.0
H428 H 0.04046 0.65477 0.69338 0.0
H429 H 0.00526 0.57775 0.71114 0.0
H430 H 0.91188 0.57185 0.78168 0.0
H431 H 0.85461 0.64327 0.83525 0.0
C432 C 0.84755 0.73243 0.87385 0.0
C433 C 0.88321 0.73576 0.82715 0.0
C434 C 0.91161 0.69366 0.79515 0.0
C435 C 0.96218 0.69704 0.75367 0.0
C436 C 0.99732 0.65447 0.72423 0.0
C437 C 0.97857 0.6099 0.73427 0.0
C438 C 0.92625 0.60658 0.77404 0.0
C439 C 0.89375 0.64786 0.80446 0.0
loop_
_geom_bond_atom_site_label_1
_geom_bond_atom_site_label_2
_geom_bond_distance
_geom_bond_site_symmetry_2
_ccdc_geom_bond_type
Tb0 O3 2.453 1_554 S
Tb0 O4 2.596 1_554 S
Tb0 O5 2.374 . S
Tb0 O13 2.343 . S
Tb0 O15 2.355 . S
Tb0 O17 2.427 . S
Tb0 O18 2.513 . S
C1 O5 1.251 . S
C1 O7 1.263 . S
Tb2 O4 2.343 . S
Tb2 O7 2.353 1_556 S
Tb2 O10 2.427 . S
Tb2 O11 2.513 . S
Tb2 O12 2.453 1_556 S
Tb2 O13 2.596 1_556 S
Tb2 O14 2.374 . S
O3 Tb0 2.453 1_556 S
O3 C19 1.245 . S
O4 Tb0 2.596 1_556 S
O4 Tb2 2.343 . S
O4 C19 1.259 . S
O5 Tb0 2.374 . S
O5 C1 1.251 . S
C6 O10 1.275 . S
C6 O11 1.246 . S
O7 C1 1.263 . S
O7 Tb2 2.353 1_554 S
C8 O12 1.245 . S
C8 O13 1.259 . S
C9 O14 1.250 . S
C9 O15 1.261 1_556 S
O10 Tb2 2.427 . S
O10 C6 1.275 . S
O11 Tb2 2.513 . S
O11 C6 1.246 . S
O12 Tb2 2.453 1_554 S
O12 C8 1.245 . S
O13 Tb0 2.343 . S
O13 Tb2 2.596 1_554 S
O13 C8 1.259 . S
O14 Tb2 2.374 . S
O14 C9 1.250 . S
O15 Tb0 2.355 . S
O15 C9 1.261 1_554 S
C16 O17 1.275 . S
C16 O18 1.246 . S
O17 Tb0 2.427 . S
O17 C16 1.275 . S
O18 Tb0 2.513 . S
O18 C16 1.246 . S
C19 O3 1.245 . S
C19 O4 1.259 . S
Tb20 O23 2.453 1_554 S
Tb20 O24 2.596 1_554 S
Tb20 O25 2.374 . S
Tb20 O33 2.343 . S
Tb20 O35 2.355 . S
Tb20 O37 2.427 . S
Tb20 O38 2.513 . S
C21 O25 1.251 . S
C21 O27 1.263 . S
Tb22 O24 2.343 . S
Tb22 O27 2.353 1_556 S
Tb22 O30 2.427 . S
Tb22 O31 2.513 . S
Tb22 O32 2.453 1_556 S
Tb22 O33 2.596 1_556 S
Tb22 O34 2.374 . S
O23 Tb20 2.453 1_556 S
O23 C39 1.245 . S
O24 Tb20 2.596 1_556 S
O24 Tb22 2.343 . S
O24 C39 1.259 . S
O25 Tb20 2.374 . S
O25 C21 1.251 . S
C26 O30 1.275 . S
C26 O31 1.246 . S
O27 C21 1.263 . S
O27 Tb22 2.353 1_554 S
C28 O32 1.245 . S
C28 O33 1.259 . S
C29 O34 1.250 . S
C29 O35 1.261 1_556 S
O30 Tb22 2.427 . S
O30 C26 1.275 . S
O31 Tb22 2.513 . S
O31 C26 1.246 . S
O32 Tb22 2.453 1_554 S
O32 C28 1.245 . S
O33 Tb20 2.343 . S
O33 Tb22 2.596 1_554 S
O33 C28 1.259 . S
O34 Tb22 2.374 . S
O34 C29 1.250 . S
O35 Tb20 2.355 . S
O35 C29 1.261 1_554 S
C36 O37 1.275 . S
C36 O38 1.246 . S
O37 Tb20 2.427 . S
O37 C36 1.275 . S
O38 Tb20 2.513 . S
O38 C36 1.246 . S
C39 O23 1.245 . S
C39 O24 1.259 . S
Tb40 O43 2.453 . S
Tb40 O44 2.596 . S
Tb40 O45 2.374 . S
Tb40 O53 2.343 . S
Tb40 O55 2.353 . S
Tb40 O57 2.427 . S
Tb40 O58 2.513 . S
C41 O45 1.251 . S
C41 O47 1.263 . S
Tb42 O44 2.343 . S
Tb42 O47 2.353 . S
Tb42 O50 2.427 . S
Tb42 O51 2.513 . S
Tb42 O52 2.453 . S
Tb42 O53 2.596 . S
Tb42 O54 2.374 . S
O43 Tb40 2.453 . S
O43 C59 1.245 . S
O44 Tb40 2.596 . S
O44 Tb42 2.343 . S
O44 C59 1.259 . S
O45 Tb40 2.374 . S
O45 C41 1.251 . S
C46 O50 1.275 . S
C46 O51 1.246 . S
O47 C41 1.263 . S
O47 Tb42 2.353 . S
C48 O52 1.245 . S
C48 O53 1.259 . S
C49 O54 1.250 . S
C49 O55 1.263 . S
O50 Tb42 2.427 . S
O50 C46 1.275 . S
O51 Tb42 2.513 . S
O51 C46 1.246 . S
O52 Tb42 2.453 . S
O52 C48 1.245 . S
O53 Tb40 2.343 . S
O53 Tb42 2.596 . S
O53 C48 1.259 . S
O54 Tb42 2.374 . S
O54 C49 1.250 . S
O55 Tb40 2.353 . S
O55 C49 1.263 . S
C56 O57 1.275 . S
C56 O58 1.246 . S
O57 Tb40 2.427 . S
O57 C56 1.275 . S
O58 Tb40 2.513 . S
O58 C56 1.246 . S
C59 O43 1.245 . S
C59 O44 1.259 . S
Tb60 O63 2.453 . S
Tb60 O64 2.596 . S
Tb60 O65 2.374 . S
Tb60 O73 2.343 . S
Tb60 O75 2.353 . S
Tb60 O77 2.427 . S
Tb60 O78 2.513 . S
C61 O65 1.251 . S
C61 O67 1.263 . S
Tb62 O64 2.343 . S
Tb62 O67 2.353 . S
Tb62 O70 2.427 . S
Tb62 O71 2.513 . S
Tb62 O72 2.453 . S
Tb62 O73 2.596 . S
Tb62 O74 2.374 . S
O63 Tb60 2.453 . S
O63 C79 1.245 . S
O64 Tb60 2.596 . S
O64 Tb62 2.343 . S
O64 C79 1.259 . S
O65 Tb60 2.374 . S
O65 C61 1.251 . S
C66 O70 1.275 . S
C66 O71 1.246 . S
O67 C61 1.263 . S
O67 Tb62 2.353 . S
C68 O72 1.245 . S
C68 O73 1.259 . S
C69 O74 1.250 . S
C69 O75 1.263 . S
O70 Tb62 2.427 . S
O70 C66 1.275 . S
O71 Tb62 2.513 . S
O71 C66 1.246 . S
O72 Tb62 2.453 . S
O72 C68 1.245 . S
O73 Tb60 2.343 . S
O73 Tb62 2.596 . S
O73 C68 1.259 . S
O74 Tb62 2.374 . S
O74 C69 1.250 . S
O75 Tb60 2.353 . S
O75 C69 1.263 . S
C76 O77 1.275 . S
C76 O78 1.246 . S
O77 Tb60 2.427 . S
O77 C76 1.275 . S
O78 Tb60 2.513 . S
O78 C76 1.246 . S
C79 O63 1.245 . S
C79 O64 1.259 . S
H80 C81 0.959 . S
C81 H80 0.959 . S
C81 C87 1.255 1_556 S
H82 C87 0.950 . S
H83 C91 0.949 . S
H84 C92 0.950 . S
H85 C93 0.951 . S
H86 C94 0.951 . S
C87 C81 1.255 1_554 S
C87 H82 0.950 . S
C87 C88 1.478 . S
C88 C87 1.478 . S
C88 C89 1.397 . S
C88 C105 1.394 1_554 S
C89 C88 1.397 . S
C89 C90 1.438 . S
C89 C94 1.429 . S
C90 C89 1.438 . S
C90 C91 1.428 . S
C90 C103 1.394 1_554 S
C91 H83 0.949 . S
C91 C90 1.428 . S
C91 C92 1.345 . S
C92 H84 0.950 . S
C92 C91 1.345 . S
C92 C93 1.424 . S
C93 H85 0.951 . S
C93 C92 1.424 . S
C93 C94 1.347 . S
C94 H86 0.951 . S
C94 C89 1.429 . S
C94 C93 1.347 . S
H95 C96 0.951 . S
C96 H95 0.951 . S
C96 C102 1.265 1_554 S
H97 C102 0.950 . S
H98 C106 0.949 . S
H99 C107 0.950 . S
H100 C108 0.951 . S
H101 C109 0.951 . S
C102 C96 1.265 1_556 S
C102 H97 0.950 . S
C102 C103 1.478 . S
C103 C90 1.394 1_556 S
C103 C102 1.478 . S
C103 C104 1.397 . S
C104 C103 1.397 . S
C104 C105 1.438 . S
C104 C109 1.429 . S
C105 C88 1.394 1_556 S
C105 C104 1.438 . S
C105 C106 1.428 . S
C106 H98 0.949 . S
C106 C105 1.428 . S
C106 C107 1.345 . S
C107 H99 0.950 . S
C107 C106 1.345 . S
C107 C108 1.424 . S
C108 H100 0.951 . S
C108 C107 1.424 . S
C108 C109 1.347 . S
C109 H101 0.951 . S
C109 C104 1.429 . S
C109 C108 1.347 . S
H110 C111 0.951 . S
C111 H110 0.951 . S
C111 C117 1.265 . S
H112 C117 0.950 . S
H113 C121 0.949 . S
H114 C122 0.950 . S
H115 C123 0.951 . S
H116 C124 0.951 . S
C117 C111 1.265 . S
C117 H112 0.950 . S
C117 C118 1.478 . S
C118 C117 1.478 . S
C118 C119 1.397 . S
C118 C135 1.394 . S
C119 C118 1.397 . S
C119 C120 1.438 . S
C119 C124 1.429 . S
C120 C119 1.438 . S
C120 C121 1.428 . S
C120 C133 1.394 . S
C121 H113 0.949 . S
C121 C120 1.428 . S
C121 C122 1.345 . S
C122 H114 0.950 . S
C122 C121 1.345 . S
C122 C123 1.424 . S
C123 H115 0.951 . S
C123 C122 1.424 . S
C123 C124 1.347 . S
C124 H116 0.951 . S
C124 C119 1.429 . S
C124 C123 1.347 . S
H125 C126 0.951 . S
C126 H125 0.951 . S
C126 C132 1.265 . S
H127 C132 0.950 . S
H128 C136 0.949 . S
H129 C137 0.950 . S
H130 C138 0.951 . S
H131 C139 0.951 . S
C132 C126 1.265 . S
C132 H127 0.950 . S
C132 C133 1.478 . S
C133 C120 1.394 . S
C133 C132 1.478 . S
C133 C134 1.397 . S
C134 C133 1.397 . S
C134 C135 1.438 . S
C134 C139 1.429 . S
C135 C118 1.394 . S
C135 C134 1.438 . S
C135 C136 1.428 . S
C136 H128 0.949 . S
C136 C135 1.428 . S
C136 C137 1.345 . S
C137 H129 0.950 . S
C137 C136 1.345 . S
C137 C138 1.424 . S
C138 H130 0.951 . S
C138 C137 1.424 . S
C138 C139 1.347 . S
C139 H131 0.951 . S
C139 C134 1.429 . S
C139 C138 1.347 . S
H140 C141 0.951 . S
C141 H140 0.951 . S
C141 C147 1.264 1_556 S
H142 C147 0.950 . S
H143 C151 0.949 . S
H144 C152 0.950 . S
H145 C153 0.951 . S
H146 C154 0.951 . S
C147 C141 1.264 1_554 S
C147 H142 0.950 . S
C147 C148 1.478 . S
C148 C147 1.478 . S
C148 C149 1.397 1_454 S
C148 C165 1.394 . S
C149 C148 1.397 1_656 S
C149 C150 1.438 1_545 S
C149 C154 1.429 . S
C150 C149 1.438 1_565 S
C150 C151 1.428 . S
C150 C163 1.391 1_556 S
C151 H143 0.949 . S
C151 C150 1.428 . S
C151 C152 1.345 . S
C152 H144 0.950 . S
C152 C151 1.345 . S
C152 C153 1.424 1_565 S
C153 H145 0.951 . S
C153 C152 1.424 1_545 S
C153 C154 1.347 . S
C154 H146 0.951 . S
C154 C149 1.429 . S
C154 C153 1.347 . S
H155 C156 0.951 . S
C156 H155 0.951 . S
C156 C162 1.262 1_554 S
H157 C162 0.949 . S
H158 C166 0.949 . S
H159 C167 0.950 . S
H160 C168 0.951 . S
H161 C169 0.951 . S
C162 C156 1.262 1_556 S
C162 H157 0.949 . S
C162 C163 1.483 1_556 S
C163 C150 1.391 1_554 S
C163 C162 1.483 1_554 S
C163 C164 1.399 1_655 S
C164 C163 1.399 1_455 S
C164 C165 1.438 1_565 S
C164 C169 1.429 . S
C165 C148 1.394 . S
C165 C164 1.438 1_545 S
C165 C166 1.428 . S
C166 H158 0.949 . S
C166 C165 1.428 . S
C166 C167 1.345 . S
C167 H159 0.950 . S
C167 C166 1.345 . S
C167 C168 1.424 1_545 S
C168 H160 0.951 . S
C168 C167 1.424 1_565 S
C168 C169 1.347 . S
C169 H161 0.951 . S
C169 C164 1.429 . S
C169 C168 1.347 . S
H170 C171 0.951 . S
C171 H170 0.951 . S
C171 C177 1.265 . S
H172 C177 0.950 . S
H173 C181 0.949 . S
H174 C182 0.950 . S
H175 C183 0.951 . S
H176 C184 0.951 . S
C177 C171 1.265 . S
C177 H172 0.950 . S
C177 C178 1.478 . S
C178 C177 1.478 . S
C178 C179 1.397 1_655 S
C178 C195 1.394 . S
C179 C178 1.397 1_455 S
C179 C180 1.438 1_545 S
C179 C184 1.429 . S
C180 C179 1.438 1_565 S
C180 C181 1.428 . S
C180 C193 1.394 . S
C181 H173 0.949 . S
C181 C180 1.428 . S
C181 C182 1.345 1_565 S
C182 H174 0.950 . S
C182 C181 1.345 1_545 S
C182 C183 1.424 . S
C183 H175 0.951 . S
C183 C182 1.424 . S
C183 C184 1.347 . S
C184 H176 0.951 . S
C184 C179 1.429 . S
C184 C183 1.347 . S
H185 C186 0.951 . S
C186 H185 0.951 . S
C186 C192 1.265 . S
H187 C192 0.950 . S
H188 C196 0.949 . S
H189 C197 0.950 . S
H190 C198 0.951 . S
H191 C199 0.951 . S
C192 C186 1.265 . S
C192 H187 0.950 . S
C192 C193 1.478 . S
C193 C180 1.394 . S
C193 C192 1.478 . S
C193 C194 1.397 1_455 S
C194 C193 1.397 1_655 S
C194 C195 1.438 1_565 S
C194 C199 1.429 . S
C195 C178 1.394 . S
C195 C194 1.438 1_545 S
C195 C196 1.428 . S
C196 H188 0.949 . S
C196 C195 1.428 . S
C196 C197 1.345 1_545 S
C197 H189 0.950 . S
C197 C196 1.345 1_565 S
C197 C198 1.424 . S
C198 H190 0.951 . S
C198 C197 1.424 . S
C198 C199 1.347 . S
C199 H191 0.951 . S
C199 C194 1.429 . S
C199 C198 1.347 . S
H200 C201 0.951 . S
C201 H200 0.951 . S
C201 C207 1.265 . S
H202 C207 0.950 . S
H203 C211 0.949 . S
H204 C212 0.950 . S
H205 C213 0.951 . S
H206 C214 0.951 . S
C207 C201 1.265 . S
C207 H202 0.950 . S
C207 C208 1.478 . S
C208 C207 1.478 . S
C208 C209 1.397 . S
C208 C225 1.394 . S
C209 C208 1.397 . S
C209 C210 1.438 . S
C209 C214 1.429 . S
C210 C209 1.438 . S
C210 C211 1.428 . S
C210 C223 1.394 . S
C211 H203 0.949 . S
C211 C210 1.428 . S
C211 C212 1.345 . S
C212 H204 0.950 . S
C212 C211 1.345 . S
C212 C213 1.424 . S
C213 H205 0.951 . S
C213 C212 1.424 . S
C213 C214 1.347 . S
C214 H206 0.951 . S
C214 C209 1.429 . S
C214 C213 1.347 . S
H215 C216 0.951 . S
C216 H215 0.951 . S
C216 C222 1.265 . S
H217 C222 0.950 . S
H218 C226 0.949 . S
H219 C227 0.950 . S
H220 C228 0.951 . S
H221 C229 0.951 . S
C222 C216 1.265 . S
C222 H217 0.950 . S
C222 C223 1.478 . S
C223 C210 1.394 . S
C223 C222 1.478 . S
C223 C224 1.397 . S
C224 C223 1.397 . S
C224 C225 1.438 . S
C224 C229 1.429 . S
C225 C208 1.394 . S
C225 C224 1.438 . S
C225 C226 1.428 . S
C226 H218 0.949 . S
C226 C225 1.428 . S
C226 C227 1.345 . S
C227 H219 0.950 . S
C227 C226 1.345 . S
C227 C228 1.424 . S
C228 H220 0.951 . S
C228 C227 1.424 . S
C228 C229 1.347 . S
C229 H221 0.951 . S
C229 C224 1.429 . S
C229 C228 1.347 . S
H230 C231 0.951 . S
C231 H230 0.951 . S
C231 C237 1.265 . S
H232 C237 0.950 . S
H233 C241 0.949 . S
H234 C242 0.950 . S
H235 C243 0.951 . S
H236 C244 0.951 . S
C237 C231 1.265 . S
C237 H232 0.950 . S
C237 C238 1.478 . S
C238 C237 1.478 . S
C238 C239 1.397 . S
C238 C255 1.394 . S
C239 C238 1.397 . S
C239 C240 1.438 . S
C239 C244 1.429 . S
C240 C239 1.438 . S
C240 C241 1.428 . S
C240 C253 1.394 . S
C241 H233 0.949 . S
C241 C240 1.428 . S
C241 C242 1.345 . S
C242 H234 0.950 . S
C242 C241 1.345 . S
C242 C243 1.424 . S
C243 H235 0.951 . S
C243 C242 1.424 . S
C243 C244 1.347 . S
C244 H236 0.951 . S
C244 C239 1.429 . S
C244 C243 1.347 . S
H245 C246 0.951 . S
C246 H245 0.951 . S
C246 C252 1.265 . S
H247 C252 0.950 . S
H248 C256 0.949 . S
H249 C257 0.950 . S
H250 C258 0.951 . S
H251 C259 0.951 . S
C252 C246 1.265 . S
C252 H247 0.950 . S
C252 C253 1.478 . S
C253 C240 1.394 . S
C253 C252 1.478 . S
C253 C254 1.397 . S
C254 C253 1.397 . S
C254 C255 1.438 . S
C254 C259 1.429 . S
C255 C238 1.394 . S
C255 C254 1.438 . S
C255 C256 1.428 . S
C256 H248 0.949 . S
C256 C255 1.428 . S
C256 C257 1.345 . S
C257 H249 0.950 . S
C257 C256 1.345 . S
C257 C258 1.424 . S
C258 H250 0.951 . S
C258 C257 1.424 . S
C258 C259 1.347 . S
C259 H251 0.951 . S
C259 C254 1.429 . S
C259 C258 1.347 . S
H260 C261 0.951 . S
C261 H260 0.951 . S
C261 C267 1.265 . S
H262 C267 0.950 . S
H263 C271 0.949 . S
H264 C272 0.950 . S
H265 C273 0.951 . S
H266 C274 0.951 . S
C267 C261 1.265 . S
C267 H262 0.950 . S
C267 C268 1.478 . S
C268 C267 1.478 . S
C268 C269 1.397 . S
C268 C285 1.394 . S
C269 C268 1.397 . S
C269 C270 1.438 . S
C269 C274 1.429 . S
C270 C269 1.438 . S
C270 C271 1.428 . S
C270 C283 1.394 . S
C271 H263 0.949 . S
C271 C270 1.428 . S
C271 C272 1.345 . S
C272 H264 0.950 . S
C272 C271 1.345 . S
C272 C273 1.424 . S
C273 H265 0.951 . S
C273 C272 1.424 . S
C273 C274 1.347 . S
C274 H266 0.951 . S
C274 C269 1.429 . S
C274 C273 1.347 . S
H275 C276 0.951 . S
C276 H275 0.951 . S
C276 C282 1.265 . S
H277 C282 0.950 . S
H278 C286 0.949 . S
H279 C287 0.950 . S
H280 C288 0.951 . S
H281 C289 0.951 . S
C282 C276 1.265 . S
C282 H277 0.950 . S
C282 C283 1.478 . S
C283 C270 1.394 . S
C283 C282 1.478 . S
C283 C284 1.397 . S
C284 C283 1.397 . S
C284 C285 1.438 . S
C284 C289 1.429 . S
C285 C268 1.394 . S
C285 C284 1.438 . S
C285 C286 1.428 . S
C286 H278 0.949 . S
C286 C285 1.428 . S
C286 C287 1.345 . S
C287 H279 0.950 . S
C287 C286 1.345 . S
C287 C288 1.424 . S
C288 H280 0.951 . S
C288 C287 1.424 . S
C288 C289 1.347 . S
C289 H281 0.951 . S
C289 C284 1.429 . S
C289 C288 1.347 . S
H290 C291 0.951 . S
C291 H290 0.951 . S
C291 C297 1.265 . S
H292 C297 0.950 . S
H293 C301 0.949 . S
H294 C302 0.950 . S
H295 C303 0.951 . S
H296 C304 0.951 . S
C297 C291 1.265 . S
C297 H292 0.950 . S
C297 C298 1.478 . S
C298 C297 1.478 . S
C298 C299 1.397 . S
C298 C315 1.394 . S
C299 C298 1.397 . S
C299 C300 1.438 . S
C299 C304 1.429 . S
C300 C299 1.438 . S
C300 C301 1.428 . S
C300 C313 1.394 . S
C301 H293 0.949 . S
C301 C300 1.428 . S
C301 C302 1.345 . S
C302 H294 0.950 . S
C302 C301 1.345 . S
C302 C303 1.424 . S
C303 H295 0.951 . S
C303 C302 1.424 . S
C303 C304 1.347 . S
C304 H296 0.951 . S
C304 C299 1.429 . S
C304 C303 1.347 . S
H305 C306 0.951 . S
C306 H305 0.951 . S
C306 C312 1.265 . S
H307 C312 0.950 . S
H308 C316 0.949 . S
H309 C317 0.950 . S
H310 C318 0.951 . S
H311 C319 0.951 . S
C312 C306 1.265 . S
C312 H307 0.950 . S
C312 C313 1.478 . S
C313 C300 1.394 . S
C313 C312 1.478 . S
C313 C314 1.397 . S
C314 C313 1.397 . S
C314 C315 1.438 . S
C314 C319 1.429 . S
C315 C298 1.394 . S
C315 C314 1.438 . S
C315 C316 1.428 . S
C316 H308 0.949 . S
C316 C315 1.428 . S
C316 C317 1.345 . S
C317 H309 0.950 . S
C317 C316 1.345 . S
C317 C318 1.424 . S
C318 H310 0.951 . S
C318 C317 1.424 . S
C318 C319 1.347 . S
C319 H311 0.951 . S
C319 C314 1.429 . S
C319 C318 1.347 . S
H320 C321 0.951 1_455 S
C321 H320 0.951 1_655 S
C321 C327 1.265 . S
H322 C327 0.950 . S
H323 C331 0.949 . S
H324 C332 0.950 . S
H325 C333 0.951 . S
H326 C334 0.951 . S
C327 C321 1.265 . S
C327 H322 0.950 . S
C327 C328 1.478 . S
C328 C327 1.478 . S
C328 C329 1.397 . S
C328 C345 1.394 1_655 S
C329 C328 1.397 . S
C329 C330 1.438 1_655 S
C329 C334 1.429 . S
C330 C329 1.438 1_455 S
C330 C331 1.428 . S
C330 C343 1.394 . S
C331 H323 0.949 . S
C331 C330 1.428 . S
C331 C332 1.345 1_455 S
C332 H324 0.950 . S
C332 C331 1.345 1_655 S
C332 C333 1.424 . S
C333 H325 0.951 . S
C333 C332 1.424 . S
C333 C334 1.347 . S
C334 H326 0.951 . S
C334 C329 1.429 . S
C334 C333 1.347 . S
H335 C336 0.951 . S
C336 H335 0.951 . S
C336 C342 1.265 . S
H337 C342 0.950 . S
H338 C346 0.949 1_655 S
H339 C347 0.950 . S
H340 C348 0.951 . S
H341 C349 0.951 . S
C342 C336 1.265 . S
C342 H337 0.950 . S
C342 C343 1.478 . S
C343 C330 1.394 . S
C343 C342 1.478 . S
C343 C344 1.397 . S
C344 C343 1.397 . S
C344 C345 1.438 . S
C344 C349 1.429 . S
C345 C328 1.394 1_455 S
C345 C344 1.438 . S
C345 C346 1.428 . S
C346 H338 0.949 1_455 S
C346 C345 1.428 . S
C346 C347 1.345 . S
C347 H339 0.950 . S
C347 C346 1.345 . S
C347 C348 1.424 . S
C348 H340 0.951 . S
C348 C347 1.424 . S
C348 C349 1.347 . S
C349 H341 0.951 . S
C349 C344 1.429 . S
C349 C348 1.347 . S
H350 C351 0.951 1_455 S
C351 H350 0.951 1_655 S
C351 C357 1.265 . S
H352 C357 0.950 . S
H353 C361 0.949 . S
H354 C362 0.950 1_455 S
H355 C363 0.951 . S
H356 C364 0.951 . S
C357 C351 1.265 . S
C357 H352 0.950 . S
C357 C358 1.478 . S
C358 C357 1.478 . S
C358 C359 1.397 . S
C358 C375 1.394 1_655 S
C359 C358 1.397 . S
C359 C360 1.438 1_655 S
C359 C364 1.429 . S
C360 C359 1.438 1_455 S
C360 C361 1.428 . S
C360 C373 1.394 . S
C361 H353 0.949 . S
C361 C360 1.428 . S
C361 C362 1.345 1_455 S
C362 H354 0.950 1_655 S
C362 C361 1.345 1_655 S
C362 C363 1.424 . S
C363 H355 0.951 . S
C363 C362 1.424 . S
C363 C364 1.347 . S
C364 H356 0.951 . S
C364 C359 1.429 . S
C364 C363 1.347 . S
H365 C366 0.951 . S
C366 H365 0.951 . S
C366 C372 1.265 . S
H367 C372 0.950 . S
H368 C376 0.949 1_655 S
H369 C377 0.950 . S
H370 C378 0.951 . S
H371 C379 0.951 . S
C372 C366 1.265 . S
C372 H367 0.950 . S
C372 C373 1.478 . S
C373 C360 1.394 . S
C373 C372 1.478 . S
C373 C374 1.397 . S
C374 C373 1.397 . S
C374 C375 1.438 . S
C374 C379 1.429 . S
C375 C358 1.394 1_455 S
C375 C374 1.438 . S
C375 C376 1.428 . S
C376 H368 0.949 1_455 S
C376 C375 1.428 . S
C376 C377 1.345 . S
C377 H369 0.950 . S
C377 C376 1.345 . S
C377 C378 1.424 . S
C378 H370 0.951 . S
C378 C377 1.424 . S
C378 C379 1.347 . S
C379 H371 0.951 . S
C379 C374 1.429 . S
C379 C378 1.347 . S
H380 C381 0.951 . S
C381 H380 0.951 . S
C381 C387 1.265 . S
H382 C387 0.950 . S
H383 C391 0.949 1_455 S
H384 C392 0.950 . S
H385 C393 0.951 . S
H386 C394 0.951 . S
C387 C381 1.265 . S
C387 H382 0.950 . S
C387 C388 1.478 . S
C388 C387 1.478 . S
C388 C389 1.397 . S
C388 C405 1.394 . S
C389 C388 1.397 . S
C389 C390 1.438 . S
C389 C394 1.429 . S
C390 C389 1.438 . S
C390 C391 1.428 . S
C390 C403 1.394 1_655 S
C391 H383 0.949 1_655 S
C391 C390 1.428 . S
C391 C392 1.345 . S
C392 H384 0.950 . S
C392 C391 1.345 . S
C392 C393 1.424 . S
C393 H385 0.951 . S
C393 C392 1.424 . S
C393 C394 1.347 . S
C394 H386 0.951 . S
C394 C389 1.429 . S
C394 C393 1.347 . S
H395 C396 0.951 1_655 S
C396 H395 0.951 1_455 S
C396 C402 1.265 . S
H397 C402 0.950 . S
H398 C406 0.949 . S
H399 C407 0.950 . S
H400 C408 0.951 . S
H401 C409 0.951 . S
C402 C396 1.265 . S
C402 H397 0.950 . S
C402 C403 1.478 . S
C403 C390 1.394 1_455 S
C403 C402 1.478 . S
C403 C404 1.397 . S
C404 C403 1.397 . S
C404 C405 1.438 1_455 S
C404 C409 1.429 . S
C405 C388 1.394 . S
C405 C404 1.438 1_655 S
C405 C406 1.428 . S
C406 H398 0.949 . S
C406 C405 1.428 . S
C406 C407 1.345 1_655 S
C407 H399 0.950 . S
C407 C406 1.345 1_455 S
C407 C408 1.424 . S
C408 H400 0.951 . S
C408 C407 1.424 . S
C408 C409 1.347 . S
C409 H401 0.951 . S
C409 C404 1.429 . S
C409 C408 1.347 . S
H410 C411 0.951 1_655 S
C411 H410 0.951 1_455 S
C411 C417 1.265 . S
H412 C417 0.950 . S
H413 C421 0.949 . S
H414 C422 0.950 1_655 S
H415 C423 0.951 . S
H416 C424 0.951 . S
C417 C411 1.265 . S
C417 H412 0.950 . S
C417 C418 1.478 . S
C418 C417 1.478 . S
C418 C419 1.397 . S
C418 C435 1.394 1_455 S
C419 C418 1.397 . S
C419 C420 1.438 1_455 S
C419 C424 1.429 . S
C420 C419 1.438 1_655 S
C420 C421 1.428 . S
C420 C433 1.394 . S
C421 H413 0.949 . S
C421 C420 1.428 . S
C421 C422 1.345 1_655 S
C422 H414 0.950 1_455 S
C422 C421 1.345 1_455 S
C422 C423 1.424 . S
C423 H415 0.951 . S
C423 C422 1.424 . S
C423 C424 1.347 . S
C424 H416 0.951 . S
C424 C419 1.429 . S
C424 C423 1.347 . S
H425 C426 0.951 . S
C426 H425 0.951 . S
C426 C432 1.265 . S
H427 C432 0.950 . S
H428 C436 0.949 1_455 S
H429 C437 0.950 . S
H430 C438 0.951 . S
H431 C439 0.951 . S
C432 C426 1.265 . S
C432 H427 0.950 . S
C432 C433 1.478 . S
C433 C420 1.394 . S
C433 C432 1.478 . S
C433 C434 1.397 . S
C434 C433 1.397 . S
C434 C435 1.438 . S
C434 C439 1.429 . S
C435 C418 1.394 1_655 S
C435 C434 1.438 . S
C435 C436 1.428 . S
C436 H428 0.949 1_655 S
C436 C435 1.428 . S
C436 C437 1.345 . S
C437 H429 0.950 . S
C437 C436 1.345 . S
C437 C438 1.424 . S
C438 H430 0.951 . S
C438 C437 1.424 . S
C438 C439 1.347 . S
C439 H431 0.951 . S
C439 C434 1.429 . S
C439 C438 1.347 . S
C81 C29 1.488 . S
C96 C1 1.481 . S
C111 C41 1.486 . S
C126 C69 1.486 . S
C141 C9 1.495 . S
C156 C21 1.493 . S
C171 C61 1.499 . S
C186 C49 1.499 . S
C201 C68 1.315 . S
C216 C16 1.324 . S
C231 C28 1.309 . S
C246 C56 1.322 . S
C261 C26 1.277 . S
C276 C59 1.254 . S
C291 C66 1.300 . S
C306 C19 1.264 . S
C321 C36 1.276 . S
C336 C48 1.249 . S
C351 C76 1.276 . S
C366 C8 1.248 . S
C381 C79 1.251 . S
C396 C6 1.276 . S
C411 C46 1.277 . S
C426 C39 1.256 . S
