# Generated by pormake.
# Topology lhb, (8)-cn, num edge types: 1
# Building blocks:
#     Node 0, Type 0, BuildingBlock: OLANAS_clean_sbu_2, # of connection points: 8
#     Node 1, Type 0, BuildingBlock: OLANAS_clean_sbu_2, # of connection points: 8
#     Node 2, Type 0, BuildingBlock: OLANAS_clean_sbu_2, # of connection points: 8
#     Node 3, Type 0, BuildingBlock: OLANAS_clean_sbu_2, # of connection points: 8
#     Node 4, Type 0, BuildingBlock: OLANAS_clean_sbu_2, # of connection points: 8
#     Node 5, Type 0, BuildingBlock: OLANAS_clean_sbu_2, # of connection points: 8
#     Node 6, Type 0, BuildingBlock: OLANAS_clean_sbu_2, # of connection points: 8
#     Node 7, Type 0, BuildingBlock: OLANAS_clean_sbu_2, # of connection points: 8
#     Edge 8, Type (0, 0), BuildingBlock: ZUJKAS_clean_linker_0, # of connection points: 2
#     Edge 9, Type (0, 0), BuildingBlock: ZUJKAS_clean_linker_0, # of connection points: 2
#     Edge 10, Type (0, 0), BuildingBlock: ZUJKAS_clean_linker_0, # of connection points: 2
#     Edge 11, Type (0, 0), BuildingBlock: ZUJKAS_clean_linker_0, # of connection points: 2
#     Edge 12, Type (0, 0), BuildingBlock: ZUJKAS_clean_linker_0, # of connection points: 2
#     Edge 13, Type (0, 0), BuildingBlock: ZUJKAS_clean_linker_0, # of connection points: 2
#     Edge 14, Type (0, 0), BuildingBlock: ZUJKAS_clean_linker_0, # of connection points: 2
#     Edge 15, Type (0, 0), BuildingBlock: ZUJKAS_clean_linker_0, # of connection points: 2
#     Edge 16, Type (0, 0), BuildingBlock: ZUJKAS_clean_linker_0, # of connection points: 2
#     Edge 17, Type (0, 0), BuildingBlock: ZUJKAS_clean_linker_0, # of connection points: 2
#     Edge 18, Type (0, 0), BuildingBlock: ZUJKAS_clean_linker_0, # of connection points: 2
#     Edge 19, Type (0, 0), BuildingBlock: ZUJKAS_clean_linker_0, # of connection points: 2
#     Edge 20, Type (0, 0), BuildingBlock: ZUJKAS_clean_linker_0, # of connection points: 2
#     Edge 21, Type (0, 0), BuildingBlock: ZUJKAS_clean_linker_0, # of connection points: 2
#     Edge 22, Type (0, 0), BuildingBlock: ZUJKAS_clean_linker_0, # of connection points: 2
#     Edge 23, Type (0, 0), BuildingBlock: ZUJKAS_clean_linker_0, # of connection points: 2
#     Edge 24, Type (0, 0), BuildingBlock: ZUJKAS_clean_linker_0, # of connection points: 2
#     Edge 25, Type (0, 0), BuildingBlock: ZUJKAS_clean_linker_0, # of connection points: 2
#     Edge 26, Type (0, 0), BuildingBlock: ZUJKAS_clean_linker_0, # of connection points: 2
#     Edge 27, Type (0, 0), BuildingBlock: ZUJKAS_clean_linker_0, # of connection points: 2
#     Edge 28, Type (0, 0), BuildingBlock: ZUJKAS_clean_linker_0, # of connection points: 2
#     Edge 29, Type (0, 0), BuildingBlock: ZUJKAS_clean_linker_0, # of connection points: 2
#     Edge 30, Type (0, 0), BuildingBlock: ZUJKAS_clean_linker_0, # of connection points: 2
#     Edge 31, Type (0, 0), BuildingBlock: ZUJKAS_clean_linker_0, # of connection points: 2
#     Edge 32, Type (0, 0), BuildingBlock: ZUJKAS_clean_linker_0, # of connection points: 2
#     Edge 33, Type (0, 0), BuildingBlock: ZUJKAS_clean_linker_0, # of connection points: 2
#     Edge 34, Type (0, 0), BuildingBlock: ZUJKAS_clean_linker_0, # of connection points: 2
#     Edge 35, Type (0, 0), BuildingBlock: ZUJKAS_clean_linker_0, # of connection points: 2
#     Edge 36, Type (0, 0), BuildingBlock: ZUJKAS_clean_linker_0, # of connection points: 2
#     Edge 37, Type (0, 0), BuildingBlock: ZUJKAS_clean_linker_0, # of connection points: 2
#     Edge 38, Type (0, 0), BuildingBlock: ZUJKAS_clean_linker_0, # of connection points: 2
#     Edge 39, Type (0, 0), BuildingBlock: ZUJKAS_clean_linker_0, # of connection points: 2
# Relax obj value: 0.220
# Max RMSD: 0.286
# Mean RMSD: 0.286
data_MOF--net-lhb--node1-OLANAS_clean_sbu_2--edge1-ZUJKAS_clean_linker_0
_symmetry_space_group_name_H-M    P1
_symmetry_Int_Tables_number       1
_symmetry_cell_setting            triclinic
loop_
_symmetry_equiv_pos_as_xyz
'x, y, z'
_cell_length_a     38.008359
_cell_length_b     23.658061
_cell_length_c     79.161506
_cell_angle_alpha  90.014804
_cell_angle_beta   89.991109
_cell_angle_gamma 90.002792
loop_
_atom_site_label
_atom_site_type_symbol
_atom_site_fract_x
_atom_site_fract_y
_atom_site_fract_z
_atom_type_partial_charge
C0 C 0.03085 0.9365 0.00524 0.0
O1 O 0.0366 0.89461 0.01581 0.0
C2 C 0.05943 0.96312 -0.00441 0.0
C3 C 0.09494 0.94779 0.99469 0.0
C4 C 0.11673 0.97735 0.98319 0.0
C5 C 0.10277 0.02061 0.97282 0.0
C6 C 0.06703 0.03367 0.97449 0.0
N7 N 0.04808 1.00524 0.98585 0.0
N8 N 0.00055 0.07446 0.00297 0.0
Co9 Co 0.00035 0.01708 0.98536 0.0
N10 N 0.95267 0.029 0.98444 0.0
C11 C 0.90473 0.08574 0.99232 0.0
C12 C 0.88464 0.05778 0.97979 0.0
C13 C 0.90003 0.01577 0.96941 0.0
C14 C 0.93544 1.00232 0.97211 0.0
C15 C 0.94 0.07003 0.99423 0.0
N16 N 0.99258 0.9613 0.96763 0.0
N17 N 0.99777 0.95749 0.00227 0.0
N18 N 0.01059 0.07504 0.96857 0.0
C19 C 0.96715 0.09523 0.00512 0.0
O20 O 0.95985 0.13497 0.01619 0.0
C21 C 0.04578 0.07443 0.96483 0.0
O22 O 0.06009 0.1113 0.95447 0.0
C23 C 0.98845 0.12246 0.96453 0.0
C24 C 0.97527 0.2233 0.96648 0.0
C25 C 0.99572 0.17643 0.97125 0.0
C26 C 0.96073 0.11582 0.95303 0.0
C27 C 0.93917 0.16183 0.94877 0.0
C28 C 0.94657 0.21515 0.95564 0.0
C29 C 0.95806 0.96276 0.96268 0.0
O30 O 0.94524 0.92716 0.9515 0.0
C31 C 0.015 0.91374 0.96409 0.0
C32 C 0.04474 0.92078 0.95384 0.0
C33 C 0.06681 0.87476 0.95018 0.0
C34 C 0.05798 0.82116 0.95645 0.0
C35 C 0.02754 0.81272 0.96611 0.0
C36 C 0.00643 0.85946 0.97023 0.0
C37 C 0.96794 0.94187 0.01238 0.0
C38 C 0.9384 0.91624 0.005 0.0
C39 C 0.91052 0.89695 0.0151 0.0
C40 C 0.9124 0.90448 0.03267 0.0
C41 C 0.9426 0.92708 0.04033 0.0
C42 C 0.97012 0.94608 0.03002 0.0
C43 C 0.02857 0.08657 0.01456 0.0
C44 C 0.08192 0.11237 0.03764 0.0
C45 C 0.05032 0.08885 0.04339 0.0
C46 C 0.02362 0.07664 0.03186 0.0
C47 C 0.05969 0.11249 0.00898 0.0
C48 C 0.08654 0.12618 0.02051 0.0
H49 H 0.10534 0.91363 0.00228 0.0
H50 H 0.14424 0.96613 0.98212 0.0
H51 H 0.11922 0.04242 0.96377 0.0
H52 H 0.89329 0.11903 -8e-05 0.0
H53 H 0.85737 0.06934 0.97792 0.0
H54 H 0.88494 0.99528 0.95957 0.0
H55 H 0.01802 0.18216 0.97959 0.0
H56 H 0.95641 0.07507 0.94719 0.0
H57 H 0.93101 0.25139 0.95181 0.0
H58 H 0.05029 0.96191 0.9485 0.0
H59 H 0.07401 0.78492 0.9531 0.0
H60 H 0.98283 0.85343 0.97766 0.0
H61 H 0.93796 0.90825 0.99159 0.0
H62 H 0.89039 0.89159 0.04047 0.0
H63 H 0.99408 0.96181 0.0357 0.0
H64 H 0.10248 0.12175 0.04671 0.0
H65 H -0.0012 0.06002 0.03633 0.0
H66 H 0.06222 0.1246 -0.00412 0.0
C67 C 0.21728 0.18497 0.25616 0.0
O68 O 0.21061 0.14571 0.26747 0.0
C69 C 0.1894 0.2104 0.24575 0.0
C70 C 0.15343 0.19795 0.24531 0.0
C71 C 0.1322 0.22775 0.23361 0.0
C72 C 0.14717 0.26822 0.22257 0.0
C73 C 0.18344 0.27773 0.22359 0.0
N74 N 0.20171 0.24981 0.23529 0.0
N75 N 0.24745 0.32123 0.2529 0.0
Co76 Co 0.24928 0.26243 0.23566 0.0
N77 N 0.29686 0.27502 0.23549 0.0
C78 C 0.34473 0.32858 0.24517 0.0
C79 C 0.36617 0.29849 0.23362 0.0
C80 C 0.35151 0.25705 0.2228 0.0
C81 C 0.31533 0.24687 0.2239 0.0
C82 C 0.30886 0.31541 0.2457 0.0
N83 N 0.25866 0.20521 0.21856 0.0
N84 N 0.25068 0.20468 0.25321 0.0
N85 N 0.24029 0.3187 0.21824 0.0
C86 C 0.28075 0.34134 0.25587 0.0
O87 O 0.28714 0.3812 0.26703 0.0
C88 C 0.2054 0.31756 0.21389 0.0
O89 O 0.19165 0.35463 0.20343 0.0
C90 C 0.26208 0.36726 0.21505 0.0
C91 C 0.27584 0.46695 0.21982 0.0
C92 C 0.25445 0.41952 0.22282 0.0
C93 C 0.29037 0.36326 0.20375 0.0
C94 C 0.31131 0.4108 0.20032 0.0
C95 C 0.30439 0.46178 0.20873 0.0
C96 C 0.2936 0.20646 0.21428 0.0
O97 O 0.30757 0.16908 0.20398 0.0
C98 C 0.23699 0.15642 0.21547 0.0
C99 C 0.2086 0.16002 0.20422 0.0
C100 C 0.18777 0.11227 0.20088 0.0
C101 C 0.19495 0.06142 0.20931 0.0
C102 C 0.22365 0.0566 0.22032 0.0
C103 C 0.24485 0.1043 0.22326 0.0
C104 C 0.27987 0.19153 0.26403 0.0
C105 C 0.31087 0.16854 0.25737 0.0
C106 C 0.33974 0.15713 0.26786 0.0
C107 C 0.3366 0.16668 0.2853 0.0
C108 C 0.30513 0.18724 0.29229 0.0
C109 C 0.27689 0.19953 0.28154 0.0
C110 C 0.21822 0.33336 0.2638 0.0
C111 C 0.1602 0.35018 0.28498 0.0
C112 C 0.19253 0.33372 0.29196 0.0
C113 C 0.22141 0.32526 0.28129 0.0
C114 C 0.18656 0.35412 0.25718 0.0
C115 C 0.15712 0.36114 0.26763 0.0
H116 H 0.14212 0.16641 0.25359 0.0
H117 H 0.10426 0.21921 0.23303 0.0
H118 H 0.13101 0.29082 0.21356 0.0
H119 H 0.35578 0.36099 0.25322 0.0
H120 H 0.39403 0.30764 0.23295 0.0
H121 H 0.36781 0.23436 0.21387 0.0
H122 H 0.23206 0.42305 0.23121 0.0
H123 H 0.29507 0.32388 0.19715 0.0
H124 H 0.32046 0.49855 0.20601 0.0
H125 H 0.20378 0.19925 0.19757 0.0
H126 H 0.17899 0.02447 0.20665 0.0
H127 H 0.26732 0.10097 0.23159 0.0
H128 H 0.31245 0.15875 0.24411 0.0
H129 H 0.35823 0.15547 0.29356 0.0
H130 H 0.25244 0.21508 0.28676 0.0
H131 H 0.13786 0.35767 0.2932 0.0
H132 H 0.24639 0.31237 0.28659 0.0
H133 H 0.18481 0.36527 0.24401 0.0
C134 C 0.71683 0.69027 0.25465 0.0
O135 O 0.70996 0.65204 0.26624 0.0
C136 C 0.68901 0.71661 0.2444 0.0
C137 C 0.6532 0.70321 0.24356 0.0
C138 C 0.63233 0.7318 0.23146 0.0
C139 C 0.64746 0.77221 0.22045 0.0
C140 C 0.68347 0.78331 0.22204 0.0
N141 N 0.70147 0.75619 0.23401 0.0
N142 N 0.75022 0.82525 0.25051 0.0
Co143 Co 0.74938 0.76531 0.2336 0.0
N144 N 0.7973 0.77424 0.23276 0.0
C145 C 0.84712 0.82525 0.24136 0.0
C146 C 0.86705 0.79287 0.22976 0.0
C147 C 0.85071 0.75145 0.2195 0.0
C148 C 0.8144 0.74353 0.22127 0.0
C149 C 0.81099 0.81453 0.2425 0.0
N150 N 0.75628 0.70633 0.2167 0.0
N151 N 0.75038 0.70847 0.25134 0.0
N152 N 0.74088 0.82106 0.21595 0.0
C153 C 0.78423 0.84335 0.25277 0.0
O154 O 0.79237 0.88448 0.26325 0.0
C155 C 0.70585 0.82115 0.21186 0.0
O156 O 0.69249 0.85749 0.20106 0.0
C157 C 0.76341 0.86852 0.2124 0.0
C158 C 0.77776 0.9685 0.21587 0.0
C159 C 0.75547 0.92232 0.21897 0.0
C160 C 0.79332 0.86149 0.20229 0.0
C161 C 0.81602 0.90721 0.19905 0.0
C162 C 0.80799 0.96035 0.20601 0.0
C163 C 0.79105 0.70434 0.21214 0.0
O164 O 0.80335 0.66565 0.20178 0.0
C165 C 0.73296 0.65938 0.21384 0.0
C166 C 0.70344 0.66596 0.20345 0.0
C167 C 0.68057 0.62036 0.20037 0.0
C168 C 0.68811 0.56769 0.20775 0.0
C169 C 0.71805 0.55987 0.21785 0.0
C170 C 0.74041 0.60607 0.22088 0.0
C171 C 0.77966 0.69571 0.2621 0.0
C172 C 0.80978 0.66939 0.2556 0.0
C173 C 0.83907 0.65983 0.26597 0.0
C174 C 0.83737 0.67499 0.28309 0.0
C175 C 0.8067 0.69876 0.28997 0.0
C176 C 0.77786 0.70864 0.27937 0.0
C177 C 0.72197 0.84361 0.26127 0.0
C178 C 0.67111 0.89041 0.28278 0.0
C179 C 0.70063 0.86359 0.28961 0.0
C180 C 0.72599 0.84051 0.27889 0.0
C181 C 0.69218 0.87054 0.25453 0.0
C182 C 0.66669 0.89424 0.26524 0.0
H183 H 0.64186 0.67117 0.25166 0.0
H184 H 0.60459 0.72205 0.23044 0.0
H185 H 0.63169 0.79329 0.21097 0.0
H186 H 0.85946 0.85762 0.24899 0.0
H187 H 0.89505 0.80023 0.22859 0.0
H188 H 0.86583 0.72709 0.21049 0.0
H189 H 0.73209 0.92819 0.22655 0.0
H190 H 0.79855 0.82047 0.19682 0.0
H191 H 0.82418 0.99661 0.20293 0.0
H192 H 0.69879 0.70646 0.19755 0.0
H193 H 0.67192 0.53139 0.20471 0.0
H194 H 0.76367 0.6006 0.2286 0.0
H195 H 0.81038 0.65588 0.24258 0.0
H196 H 0.85946 0.66542 0.29127 0.0
H197 H 0.7539 0.72635 0.28448 0.0
H198 H 0.65147 0.90822 0.29118 0.0
H199 H 0.74952 0.82214 0.28426 0.0
H200 H 0.6896 0.87608 0.24108 0.0
C201 C 0.02782 0.43462 0.50496 0.0
O202 O 0.034 0.39579 0.51647 0.0
C203 C 0.05621 0.46033 0.49494 0.0
C204 C 0.09222 0.44809 0.49497 0.0
C205 C 0.11402 0.47779 0.4835 0.0
C206 C 0.09958 0.51797 0.4722 0.0
C207 C 0.06325 0.52732 0.47277 0.0
N208 N 0.04439 0.49956 0.4843 0.0
N209 N 0.99675 0.57068 0.5009 0.0
Co210 Co 0.9967 0.51113 0.48385 0.0
N211 N 0.94902 0.5226 0.48287 0.0
C212 C 0.9003 0.57698 0.49107 0.0
C213 C 0.88005 0.54644 0.47914 0.0
C214 C 0.89574 0.50432 0.4689 0.0
C215 C 0.9317 0.49378 0.47101 0.0
C216 C 0.93603 0.56366 0.49255 0.0
N217 N 0.98906 0.45308 0.46678 0.0
N218 N 0.99451 0.45387 0.50152 0.0
N219 N 0.00654 0.56711 0.46642 0.0
C220 C 0.96315 0.59057 0.5031 0.0
O221 O 0.95563 0.631 0.51391 0.0
C222 C 0.04172 0.56649 0.46264 0.0
O223 O 0.05593 0.60341 0.45227 0.0
C224 C 0.98467 0.61528 0.46285 0.0
C225 C 0.96989 0.71473 0.46727 0.0
C226 C 0.99202 0.66817 0.47026 0.0
C227 C 0.95584 0.60971 0.45198 0.0
C228 C 0.93348 0.65583 0.44885 0.0
C229 C 0.94061 0.70784 0.45669 0.0
C230 C 0.95443 0.4534 0.46195 0.0
O231 O 0.94152 0.41542 0.45152 0.0
C232 C 0.01112 0.40428 0.46439 0.0
C233 C 0.04047 0.40735 0.4537 0.0
C234 C 0.06183 0.3596 0.4511 0.0
C235 C 0.0541 0.30941 0.4598 0.0
C236 C 0.0242 0.30491 0.47007 0.0
C237 C 0.00261 0.35258 0.47226 0.0
C238 C 0.96499 0.44193 0.51227 0.0
C239 C 0.9339 0.41922 0.50562 0.0
C240 C 0.90468 0.4095 0.51607 0.0
C241 C 0.90743 0.42111 0.53343 0.0
C242 C 0.93901 0.44123 0.54038 0.0
C243 C 0.9677 0.45116 0.52972 0.0
C244 C 0.02485 0.58344 0.51239 0.0
C245 C 0.08082 0.60035 0.53478 0.0
C246 C 0.04789 0.58384 0.54105 0.0
C247 C 0.01995 0.57588 0.52982 0.0
C248 C 0.05708 0.60415 0.50644 0.0
C249 C 0.08547 0.61161 0.51752 0.0
H250 H 0.10313 0.41667 0.50342 0.0
H251 H 0.142 0.46936 0.48326 0.0
H252 H 0.11616 0.54039 0.46334 0.0
H253 H 0.88852 0.61004 0.49864 0.0
H254 H 0.85236 0.55585 0.4777 0.0
H255 H 0.88041 0.48147 0.45963 0.0
H256 H 0.01468 0.6728 0.47844 0.0
H257 H 0.95109 0.5695 0.44587 0.0
H258 H 0.92448 0.74432 0.45374 0.0
H259 H 0.04563 0.44615 0.44688 0.0
H260 H 0.07048 0.27247 0.45783 0.0
H261 H 0.97928 0.34958 0.48005 0.0
H262 H 0.93255 0.40829 0.49242 0.0
H263 H 0.88548 0.4117 0.54171 0.0
H264 H 0.99226 0.46602 0.53499 0.0
H265 H 0.10237 0.60752 0.5435 0.0
H266 H 0.99445 0.56341 0.53462 0.0
H267 H 0.06008 0.61496 0.49328 0.0
C268 C 0.21167 0.67659 0.75493 0.0
O269 O 0.20469 0.6367 0.766 0.0
C270 C 0.18408 0.70304 0.74457 0.0
C271 C 0.14821 0.69014 0.74364 0.0
C272 C 0.12737 0.72069 0.73195 0.0
C273 C 0.14264 0.76231 0.72138 0.0
C274 C 0.17878 0.77228 0.72291 0.0
N275 N 0.19664 0.74368 0.73462 0.0
N276 N 0.2423 0.81321 0.75295 0.0
Co277 Co 0.24424 0.75582 0.7353 0.0
N278 N 0.29192 0.76792 0.73547 0.0
C279 C 0.33914 0.82401 0.74465 0.0
C280 C 0.36044 0.79619 0.73257 0.0
C281 C 0.34599 0.75471 0.7217 0.0
C282 C 0.3103 0.74157 0.72348 0.0
C283 C 0.30368 0.80856 0.74567 0.0
N284 N 0.25378 0.70004 0.71781 0.0
N285 N 0.24512 0.69664 0.75236 0.0
N286 N 0.2358 0.8136 0.71825 0.0
C287 C 0.27551 0.83366 0.75594 0.0
O288 O 0.28168 0.87409 0.76695 0.0
C289 C 0.20105 0.81277 0.71362 0.0
O290 O 0.18766 0.85055 0.70329 0.0
C291 C 0.25769 0.86235 0.71549 0.0
C292 C 0.27167 0.96142 0.7211 0.0
C293 C 0.25012 0.91394 0.72368 0.0
C294 C 0.28598 0.85935 0.70414 0.0
C295 C 0.30692 0.90717 0.70112 0.0
C296 C 0.30013 0.95732 0.70994 0.0
C297 C 0.28871 0.7019 0.71357 0.0
O298 O 0.30269 0.66629 0.70273 0.0
C299 C 0.23203 0.65201 0.71388 0.0
C300 C 0.20414 0.6577 0.70239 0.0
C301 C 0.1845 0.61022 0.69752 0.0
C302 C 0.19268 0.55724 0.70436 0.0
C303 C 0.22109 0.55025 0.71542 0.0
C304 C 0.24041 0.59812 0.7204 0.0
C305 C 0.2738 0.68356 0.76346 0.0
C306 C 0.30456 0.65848 0.75718 0.0
C307 C 0.33245 0.64477 0.76811 0.0
C308 C 0.32928 0.65791 0.78536 0.0
C309 C 0.2981 0.68095 0.79182 0.0
C310 C 0.27028 0.69289 0.78087 0.0
C311 C 0.21289 0.8266 0.76361 0.0
C312 C 0.15667 0.85581 0.78472 0.0
C313 C 0.18833 0.83688 0.79183 0.0
C314 C 0.21604 0.82117 0.7812 0.0
C315 C 0.18199 0.84938 0.75676 0.0
C316 C 0.15334 0.86241 0.76719 0.0
H317 H 0.13671 0.65756 0.75149 0.0
H318 H 0.09953 0.71173 0.73096 0.0
H319 H 0.12682 0.78529 0.71233 0.0
H320 H 0.34988 0.85695 0.75262 0.0
H321 H 0.38793 0.80745 0.73141 0.0
H322 H 0.36207 0.73422 0.71223 0.0
H323 H 0.2277 0.91697 0.73206 0.0
H324 H 0.29066 0.82066 0.69718 0.0
H325 H 0.31618 0.99436 0.70749 0.0
H326 H 0.19897 0.69835 0.69663 0.0
H327 H 0.17743 0.52063 0.70055 0.0
H328 H 0.26275 0.59326 0.72875 0.0
H329 H 0.30612 0.6474 0.74398 0.0
H330 H 0.35073 0.64871 0.79396 0.0
H331 H 0.24584 0.70931 0.78587 0.0
H332 H 0.13503 0.86768 0.79291 0.0
H333 H 0.24069 0.80725 0.78663 0.0
H334 H 0.18041 0.85844 0.74345 0.0
C335 C 0.71318 0.18811 0.75363 0.0
O336 O 0.70653 0.14759 0.76454 0.0
C337 C 0.68534 0.21455 0.74342 0.0
C338 C 0.64984 0.1996 0.74206 0.0
C339 C 0.62902 0.22846 0.73 0.0
C340 C 0.64391 0.27069 0.71954 0.0
C341 C 0.67958 0.28345 0.72167 0.0
N342 N 0.69756 0.25574 0.73354 0.0
N343 N 0.74489 0.32439 0.75103 0.0
Co344 Co 0.74538 0.26649 0.73355 0.0
N345 N 0.79317 0.27726 0.73311 0.0
C346 C 0.84191 0.3295 0.74243 0.0
C347 C 0.86256 0.29961 0.73051 0.0
C348 C 0.84708 0.25887 0.71972 0.0
C349 C 0.81092 0.24903 0.72127 0.0
C350 C 0.80598 0.31695 0.74333 0.0
N351 N 0.75354 0.20975 0.71611 0.0
N352 N 0.74658 0.20784 0.75079 0.0
N353 N 0.73661 0.32376 0.71639 0.0
C354 C 0.77853 0.34339 0.75378 0.0
O355 O 0.78573 0.38319 0.76485 0.0
C356 C 0.70172 0.32327 0.71207 0.0
O357 O 0.68829 0.36002 0.70141 0.0
C358 C 0.7593 0.37087 0.71273 0.0
C359 C 0.7749 0.4704 0.71633 0.0
C360 C 0.7524 0.42455 0.71969 0.0
C361 C 0.78813 0.36372 0.70195 0.0
C362 C 0.81106 0.4089 0.69858 0.0
C363 C 0.8044 0.46177 0.70598 0.0
C364 C 0.78836 0.20993 0.71163 0.0
O365 O 0.80147 0.17292 0.70095 0.0
C366 C 0.73098 0.16223 0.71275 0.0
C367 C 0.70165 0.16866 0.70225 0.0
C368 C 0.67885 0.12304 0.6992 0.0
C369 C 0.68622 0.07041 0.7066 0.0
C370 C 0.71625 0.06251 0.71664 0.0
C371 C 0.73856 0.10881 0.71971 0.0
C372 C 0.77597 0.19295 0.76125 0.0
C373 C 0.80624 0.16879 0.75415 0.0
C374 C 0.83531 0.15611 0.7643 0.0
C375 C 0.83302 0.16372 0.7818 0.0
C376 C 0.80202 0.18405 0.78919 0.0
C377 C 0.77384 0.1999 0.77885 0.0
C378 C 0.71588 0.34021 0.76166 0.0
C379 C 0.66214 0.37887 0.78286 0.0
C380 C 0.69198 0.35337 0.78996 0.0
C381 C 0.71859 0.33352 0.77925 0.0
C382 C 0.68647 0.36781 0.75483 0.0
C383 C 0.65946 0.38747 0.76539 0.0
H384 H 0.63874 0.16613 0.74971 0.0
H385 H 0.60155 0.21744 0.72856 0.0
H386 H 0.62821 0.29193 0.71007 0.0
H387 H 0.85357 0.36147 0.75045 0.0
H388 H 0.89042 0.30842 0.72952 0.0
H389 H 0.86274 0.23646 0.71047 0.0
H390 H 0.72963 0.43054 0.72769 0.0
H391 H 0.79239 0.32307 0.69603 0.0
H392 H 0.821 0.49746 0.70277 0.0
H393 H 0.69688 0.20913 0.69631 0.0
H394 H 0.66975 0.03434 0.70364 0.0
H395 H 0.76172 0.1034 0.72749 0.0
H396 H 0.80724 0.15919 0.74086 0.0
H397 H 0.85514 0.15224 0.78976 0.0
H398 H 0.74984 0.21571 0.7845 0.0
H399 H 0.6409 0.39259 0.79103 0.0
H400 H 0.74214 0.31502 0.78458 0.0
H401 H 0.68535 0.3767 0.74149 0.0
C402 C 0.53181 0.92472 0.50667 0.0
O403 O 0.53884 0.88589 0.51806 0.0
C404 C 0.55942 0.95055 0.49619 0.0
C405 C 0.59527 0.93742 0.49535 0.0
C406 C 0.61609 0.96649 0.48333 0.0
C407 C 0.60085 1.00703 0.4724 0.0
C408 C 0.56479 0.0176 0.47393 0.0
N409 N 0.54685 0.9901 0.48585 0.0
N410 N 0.49971 0.06079 0.50273 0.0
Co411 Co 0.49905 1.00064 0.48594 0.0
N412 N 0.45123 1.01115 0.48556 0.0
C413 C 0.40257 0.06454 0.4944 0.0
C414 C 0.38176 0.03282 0.48298 0.0
C415 C 0.39711 0.99057 0.47267 0.0
C416 C 0.43331 0.98111 0.4742 0.0
C417 C 0.43854 0.0523 0.4953 0.0
N418 N 0.49073 0.94179 0.46918 0.0
N419 N 0.49827 0.94378 0.50376 0.0
N420 N 0.50749 0.05622 0.46821 0.0
C421 C 0.46612 0.08025 0.5053 0.0
O422 O 0.45898 0.12105 0.51605 0.0
C423 C 0.54245 0.05611 0.46399 0.0
O424 O 0.55573 0.09216 0.45308 0.0
C425 C 0.48464 0.10286 0.46422 0.0
C426 C 0.47022 0.20353 0.4659 0.0
C427 C 0.49217 0.15778 0.47019 0.0
C428 C 0.45537 0.09419 0.4538 0.0
C429 C 0.43243 0.13891 0.45007 0.0
C430 C 0.43979 0.19302 0.45636 0.0
C431 C 0.45578 0.94084 0.46495 0.0
O432 O 0.44258 0.90234 0.45478 0.0
C433 C 0.5135 0.89437 0.46604 0.0
C434 C 0.54116 0.8995 0.45446 0.0
C435 C 0.56298 0.85308 0.45088 0.0
C436 C 0.55736 0.80188 0.45941 0.0
C437 C 0.52917 0.79535 0.47068 0.0
C438 C 0.50708 0.84184 0.47388 0.0
C439 C 0.46947 0.93175 0.51492 0.0
C440 C 0.43801 0.90885 0.50871 0.0
C441 C 0.40904 0.90119 0.51945 0.0
C442 C 0.41237 0.91476 0.53665 0.0
C443 C 0.44456 0.93366 0.54319 0.0
C444 C 0.47307 0.94157 0.5323 0.0
C445 C 0.52844 0.07627 0.51355 0.0
C446 C 0.58231 0.11111 0.5353 0.0
C447 C 0.55218 0.08522 0.54199 0.0
C448 C 0.52511 0.06904 0.53106 0.0
C449 C 0.55846 0.10302 0.50702 0.0
C450 C 0.58535 0.12131 0.5179 0.0
H451 H 0.60672 0.90554 0.50346 0.0
H452 H 0.64388 0.95716 0.48234 0.0
H453 H 0.61663 0.02876 0.46306 0.0
H454 H 0.39101 0.0976 0.50204 0.0
H455 H 0.35387 0.04138 0.48199 0.0
H456 H 0.38132 0.96677 0.46379 0.0
H457 H 0.51563 0.16502 0.47762 0.0
H458 H 0.45078 0.05283 0.4484 0.0
H459 H 0.42264 0.22791 0.45302 0.0
H460 H 0.54456 0.93895 0.44772 0.0
H461 H 0.57408 0.76591 0.45665 0.0
H462 H 0.48498 0.8373 0.48241 0.0
H463 H 0.43618 0.89618 0.49566 0.0
H464 H 0.39051 0.90736 0.54517 0.0
H465 H 0.49807 0.95543 0.53736 0.0
H466 H 0.60308 0.12486 0.54375 0.0
H467 H 0.50117 0.05128 0.53618 0.0
H468 H 0.56009 0.11241 0.4937 0.0
C469 C 0.53427 0.43192 0.00514 0.0
O470 O 0.54162 0.39218 0.0162 0.0
C471 C 0.56141 0.45722 0.99426 0.0
C472 C 0.59667 0.44155 0.99231 0.0
C473 C 0.61669 0.46943 0.97974 0.0
C474 C 0.60122 0.51133 0.96936 0.0
C475 C 0.56582 0.52475 0.97209 0.0
N476 N 0.54867 0.49816 0.98446 0.0
N477 N 0.50341 0.56915 0.0024 0.0
Co478 Co 0.50099 0.50988 0.98537 0.0
N479 N 0.45328 0.5216 0.98578 0.0
C480 C 0.40624 0.5784 0.99476 0.0
C481 C 0.3846 0.54909 0.98314 0.0
C482 C 0.39876 0.50643 0.9726 0.0
C483 C 0.43455 0.49376 0.97421 0.0
C484 C 0.44178 0.56327 -0.00434 0.0
N485 N 0.49098 0.4521 0.96848 0.0
N486 N 0.50081 0.45238 0.00295 0.0
N487 N 0.50864 0.56578 0.96769 0.0
C488 C 0.47023 0.58968 0.00545 0.0
O489 O 0.46432 0.6312 0.01613 0.0
C490 C 0.54314 0.5643 0.96268 0.0
O491 O 0.55599 0.60042 0.95167 0.0
C492 C 0.4866 0.61409 0.96456 0.0
C493 C 0.47327 0.71415 0.96895 0.0
C494 C 0.49439 0.66658 0.97214 0.0
C495 C 0.4583 0.60992 0.95327 0.0
C496 C 0.43771 0.65764 0.94962 0.0
C497 C 0.44483 0.70891 0.95781 0.0
C498 C 0.4559 0.45306 0.96455 0.0
O499 O 0.44165 0.41597 0.95424 0.0
C500 C 0.51291 0.404 0.9649 0.0
C501 C 0.54128 0.40943 0.95376 0.0
C502 C 0.56349 0.36327 0.95039 0.0
C503 C 0.5565 0.31121 0.95823 0.0
C504 C 0.52755 0.30441 0.96903 0.0
C505 C 0.50571 0.35112 0.97231 0.0
C506 C 0.47277 0.44021 0.01453 0.0
C507 C 0.44153 0.41477 0.0089 0.0
C508 C 0.41472 0.40081 0.02043 0.0
C509 C 0.4194 0.41413 0.03759 0.0
C510 C 0.45104 0.43739 0.04338 0.0
C511 C 0.47777 0.44969 0.03186 0.0
C512 C 0.53319 0.58446 0.0126 0.0
C513 C 0.5887 0.62111 0.03305 0.0
C514 C 0.55832 0.59879 0.04062 0.0
C515 C 0.53081 0.5802 0.03025 0.0
C516 C 0.56298 0.6096 0.00531 0.0
C517 C 0.59083 0.62863 0.01549 0.0
H518 H 0.60816 0.40829 -0.0001 0.0
H519 H 0.64395 0.45788 0.97784 0.0
H520 H 0.61626 0.53177 0.95949 0.0
H521 H 0.39569 0.61216 0.00247 0.0
H522 H 0.35705 0.56006 0.98209 0.0
H523 H 0.38241 0.48475 0.96347 0.0
H524 H 0.51678 0.67037 0.98048 0.0
H525 H 0.45346 0.57041 0.94675 0.0
H526 H 0.42912 0.74584 0.95479 0.0
H527 H 0.54573 0.44959 0.94759 0.0
H528 H 0.57236 0.2746 0.95509 0.0
H529 H 0.48328 0.34651 0.98063 0.0
H530 H 0.43887 0.4032 -0.00423 0.0
H531 H 0.39883 0.40458 0.04664 0.0
H532 H 0.50262 0.46608 0.03636 0.0
H533 H 0.61067 0.63374 0.04091 0.0
H534 H 0.50674 0.56466 0.03586 0.0
H535 H 0.5637 0.61744 0.99191 0.0
H536 H 0.08564 0.01842 0.06435 0.0
H537 H 0.08627 0.02202 0.09527 0.0
H538 H 0.00514 0.14943 0.09445 0.0
H539 H 0.00393 0.14485 0.06341 0.0
H540 H 0.07584 0.17902 0.1083 0.0
H541 H 0.02192 0.9824 0.13693 0.0
H542 H 0.04062 0.97727 0.11605 0.0
H543 H 0.00135 0.01778 0.1193 0.0
C544 C 0.06704 0.04551 0.07084 0.0
C545 C 0.04482 0.08143 0.06168 0.0
C546 C 0.06723 0.04736 0.08845 0.0
C547 C 0.04552 0.08566 0.0971 0.0
C548 C 0.0217 0.11909 0.08798 0.0
H549 H 0.1355 0.19055 0.19544 0.0
H550 H 0.09156 0.1903 0.17264 0.0
C551 C 0.02107 0.11651 0.07033 0.0
C552 C 0.05355 0.09848 0.11494 0.0
H553 H 0.06337 0.03419 0.15316 0.0
C554 C 0.07228 0.14829 0.11832 0.0
C555 C 0.04874 0.0582 0.12786 0.0
C556 C 0.02693 1.00587 0.12501 0.0
C557 C 0.08939 0.15637 0.13383 0.0
C558 C 0.0869 0.11391 0.14636 0.0
C559 C 0.06547 0.06643 0.14347 0.0
C560 C 0.1108 0.11321 0.16112 0.0
C561 C 0.11244 0.20781 0.13608 0.0
C562 C 0.13554 0.06949 0.1624 0.0
C563 C 0.16024 0.0694 0.17536 0.0
C564 C 0.16077 0.11306 0.18739 0.0
C565 C 0.13578 0.15669 0.18626 0.0
C566 C 0.11073 0.15652 0.17327 0.0
H567 H 0.11551 0.23218 0.12418 0.0
H568 H 0.10055 0.23617 0.14568 0.0
H569 H 0.13897 0.19535 0.14062 0.0
H570 H 0.13632 0.03598 0.15306 0.0
H571 H 0.17949 0.03566 0.17576 0.0
H572 H 0.92019 0.84622 0.06239 0.0
H573 H 0.92041 0.84953 0.09298 0.0
H574 H 0.97645 1.00819 0.09155 0.0
H575 H 0.97381 1.00739 0.06073 0.0
H576 H 0.96878 0.85154 0.11693 0.0
H577 H 0.89337 0.05394 0.11882 0.0
H578 H 0.90089 0.01681 0.09929 0.0
H579 H 0.936 0.05584 0.10909 0.0
C580 C 0.93208 0.88241 0.06852 0.0
C581 C 0.94596 0.92743 0.05904 0.0
C582 C 0.93278 0.88374 0.08608 0.0
C583 C 0.94789 0.92958 0.09466 0.0
C584 C 0.96389 0.97297 0.08529 0.0
H585 H 0.88082 0.95893 0.20076 0.0
H586 H 0.92456 0.96549 0.17813 0.0
C587 C 0.96265 0.97218 0.06761 0.0
C588 C 0.94383 0.9325 0.11328 0.0
H589 H 0.89625 1.0012 0.14355 0.0
C590 C 0.95363 0.88495 0.12286 0.0
C591 C 0.92445 0.97648 0.12111 0.0
C592 C 0.91284 0.02856 0.11159 0.0
C593 C 0.94145 0.87755 0.13943 0.0
C594 C 0.91952 0.91908 0.14663 0.0
C595 C 0.913 0.96938 0.13782 0.0
C596 C 0.89765 0.9071 0.1616 0.0
C597 C 0.95008 0.82381 0.14877 0.0
C598 C 0.86849 0.87129 0.15983 0.0
C599 C 0.84292 0.8687 0.17245 0.0
C600 C 0.8462 0.90164 0.18716 0.0
C601 C 0.87697 0.93412 0.18941 0.0
C602 C 0.90223 0.9375 0.17661 0.0
H603 H 0.9738 0.80285 0.14347 0.0
H604 H 0.95443 0.83246 0.1624 0.0
H605 H 0.92757 0.79413 0.14766 0.0
H606 H 0.86432 0.84816 0.14819 0.0
H607 H 0.81955 0.84375 0.17011 0.0
H608 H 0.07489 0.27748 0.42794 0.0
H609 H 0.11839 0.27706 0.40556 0.0
H610 H 0.15512 0.44129 0.42137 0.0
H611 H 0.11115 0.44189 0.44414 0.0
H612 H 0.14106 0.4383 0.38843 0.0
H613 H 0.22276 0.25263 0.40274 0.0
H614 H 0.17732 0.233 0.40399 0.0
H615 H 0.19468 0.28506 0.41842 0.0
C616 C 0.09284 0.31291 0.42705 0.0
C617 C 0.08986 0.35942 0.43802 0.0
C618 C 0.11792 0.31243 0.41425 0.0
C619 C 0.14083 0.3583 0.41209 0.0
C620 C 0.13813 0.40494 0.42302 0.0
H621 H 0.24283 0.3818 0.31194 0.0
H622 H 0.24204 0.38903 0.34292 0.0
C623 C 0.11286 0.40546 0.43592 0.0
C624 C 0.16369 0.35982 0.39693 0.0
H625 H 0.21373 0.27248 0.37234 0.0
C626 C 0.15805 0.40314 0.38514 0.0
C627 C 0.18615 0.31419 0.39265 0.0
C628 C 0.19586 0.26901 0.40525 0.0
C629 C 0.1711 0.39891 0.36863 0.0
C630 C 0.19015 0.35017 0.36387 0.0
C631 C 0.19868 0.30945 0.37603 0.0
C632 C 0.1957 0.33699 0.34587 0.0
C633 C 0.16191 0.44412 0.35592 0.0
C634 C 0.1706 0.3038 0.33751 0.0
C635 C 0.17078 0.3 0.31994 0.0
C636 C 0.19625 0.32907 0.3105 0.0
C637 C 0.22299 0.35885 0.31898 0.0
C638 C 0.22258 0.36307 0.3366 0.0
H639 H 0.14786 0.48033 0.36179 0.0
H640 H 0.18624 0.46007 0.3498 0.0
H641 H 0.14497 0.42588 0.34587 0.0
H642 H 0.14963 0.28351 0.34453 0.0
H643 H 0.15015 0.27633 0.31369 0.0
H644 H 0.75165 0.67731 0.31148 0.0
H645 H 0.7525 0.6815 0.34239 0.0
H646 H 0.85837 0.74719 0.34084 0.0
H647 H 0.85713 0.74544 0.31012 0.0
H648 H 0.79629 0.61725 0.36023 0.0
H649 H 0.81691 0.83802 0.37859 0.0
H650 H 0.8065 0.81944 0.35705 0.0
H651 H 0.8515 0.81968 0.36426 0.0
C652 C 0.77464 0.69445 0.31773 0.0
C653 C 0.80459 0.71018 0.30838 0.0
C654 C 0.77512 0.69659 0.33539 0.0
C655 C 0.80543 0.71484 0.34394 0.0
C656 C 0.83444 0.7339 0.33456 0.0
H657 H 0.93475 0.60238 0.41826 0.0
H658 H 0.89228 0.61171 0.3954 0.0
C659 C 0.83392 0.73203 0.31698 0.0
C660 C 0.80942 0.70572 0.36235 0.0
H661 H 0.84585 0.76626 0.39729 0.0
C662 C 0.80611 0.65024 0.3685 0.0
C663 C 0.82179 0.74871 0.37326 0.0
C664 C 0.82397 0.80979 0.3679 0.0
C665 C 0.81822 0.63563 0.38465 0.0
C666 C 0.83413 0.67749 0.3948 0.0
C667 C 0.83408 0.73396 0.38937 0.0
C668 C 0.85562 0.66276 0.40974 0.0
C669 C 0.81557 0.57498 0.39036 0.0
C670 C 0.84875 0.68741 0.42549 0.0
C671 C 0.87292 0.68167 0.43868 0.0
C672 C 0.90469 0.65214 0.43621 0.0
C673 C 0.91043 0.62478 0.42069 0.0
C674 C 0.88613 0.63013 0.40758 0.0
H675 H 0.79312 0.55316 0.38417 0.0
H676 H 0.84002 0.55228 0.38678 0.0
H677 H 0.81238 0.57213 0.40428 0.0
H678 H 0.82538 0.71288 0.42737 0.0
H679 H 0.86745 0.70241 0.4506 0.0
H680 H 0.08538 0.51834 0.56264 0.0
H681 H 0.08467 0.52252 0.59349 0.0
H682 H -0.00099 0.64201 0.59177 0.0
H683 H -0.0006 0.63731 0.56074 0.0
H684 H 0.06092 0.68115 0.60784 0.0
H685 H 0.01953 0.47556 0.63311 0.0
H686 H 0.05323 0.46458 0.61759 0.0
H687 H 0.01191 0.49539 0.61138 0.0
C688 C 0.06577 0.5442 0.56889 0.0
C689 C 0.04269 0.57789 0.55943 0.0
C690 C 0.06515 0.54625 0.58648 0.0
C691 C 0.04165 0.58238 0.59489 0.0
C692 C 0.01711 0.61356 0.58549 0.0
H693 H 0.12708 0.68052 0.69508 0.0
H694 H 0.08181 0.67985 0.6728 0.0
C695 C 0.01737 0.61084 0.56783 0.0
C696 C 0.0476 0.59442 0.61299 0.0
H697 H 0.06569 0.52579 0.64977 0.0
C698 C 0.06088 0.64791 0.61727 0.0
C699 C 0.04726 0.55104 0.62522 0.0
C700 C 0.03185 0.49362 0.62158 0.0
C701 C 0.07779 0.65711 0.63279 0.0
C702 C 0.08065 0.61183 0.64437 0.0
C703 C 0.06378 0.56032 0.6408 0.0
C704 C 0.10651 0.61299 0.65834 0.0
C705 C 0.09542 0.71329 0.63597 0.0
C706 C 0.13512 0.57569 0.6576 0.0
C707 C 0.16055 0.57587 0.67022 0.0
C708 C 0.15801 0.61345 0.68388 0.0
C709 C 0.12967 0.65152 0.68459 0.0
C710 C 0.10386 0.65103 0.67193 0.0
H711 H 0.09377 0.74189 0.62487 0.0
H712 H 0.08258 0.73454 0.64683 0.0
H713 H 0.12358 0.70695 0.63919 0.0
H714 H 0.13793 0.5465 0.64713 0.0
H715 H 0.18236 0.54653 0.66928 0.0
H716 H 0.8088 0.35546 0.66809 0.0
H717 H 0.85232 0.35966 0.64559 0.0
H718 H 0.92183 0.45541 0.67779 0.0
H719 H 0.8782 0.45098 0.70057 0.0
H720 H 0.91031 0.50835 0.64821 0.0
H721 H 0.94572 0.28731 0.63484 0.0
H722 H 0.89882 0.29367 0.63608 0.0
H723 H 0.92527 0.30837 0.65448 0.0
C724 C 0.8338 0.37571 0.67063 0.0
C725 C 0.83997 0.4031 0.68609 0.0
C726 C 0.85877 0.37801 0.65774 0.0
C727 C 0.89055 0.40727 0.66006 0.0
C728 C 0.89756 0.43238 0.67576 0.0
H729 H 0.99271 0.40691 0.56101 0.0
H730 H 0.99348 0.40773 0.59198 0.0
C731 C 0.87255 0.43003 0.68871 0.0
C732 C 0.91365 0.4178 0.64532 0.0
H733 H 0.94522 0.35113 0.61032 0.0
C734 C 0.91892 0.47397 0.64014 0.0
C735 C 0.92587 0.37323 0.63498 0.0
C736 C 0.92397 0.31232 0.64051 0.0
C737 C 0.93234 0.4864 0.62406 0.0
C738 C 0.93999 0.44153 0.61286 0.0
C739 C 0.93863 0.38563 0.61878 0.0
C740 C 0.94346 0.45064 0.59444 0.0
C741 C 0.93647 0.54745 0.61894 0.0
C742 C 0.91544 0.47545 0.58558 0.0
C743 C 0.91487 0.47484 0.56798 0.0
C744 C 0.94224 0.44916 0.55888 0.0
C745 C 0.9713 0.42717 0.56771 0.0
C746 C 0.97176 0.42751 0.58538 0.0
H747 H 0.94457 0.57364 0.62992 0.0
H748 H 0.95617 0.5527 0.6087 0.0
H749 H 0.91077 0.56377 0.61442 0.0
H750 H 0.89298 0.49253 0.59228 0.0
H751 H 0.89238 0.49269 0.56148 0.0
H752 H 0.17319 0.92318 0.81305 0.0
H753 H 0.17604 0.92371 0.84373 0.0
H754 H 0.2173 0.75371 0.84328 0.0
H755 H 0.21421 0.75297 0.81228 0.0
H756 H 0.16161 0.76335 0.86354 0.0
H757 H 0.25128 0.93772 0.87909 0.0
H758 H 0.22082 0.9615 0.86336 0.0
H759 H 0.25086 0.90465 0.85851 0.0
C760 C 0.18325 0.88613 0.81948 0.0
C761 C 0.19307 0.8378 0.81036 0.0
C762 C 0.18551 0.88684 0.83702 0.0
C763 C 0.19781 0.83935 0.84583 0.0
C764 C 0.20851 0.7913 0.83673 0.0
H765 H 0.13214 0.82632 0.9526 0.0
H766 H 0.17501 0.81538 0.92968 0.0
C767 C 0.20655 0.79077 0.81907 0.0
C768 C 0.19397 0.83805 0.86444 0.0
H769 H 0.20038 0.926 0.8985 0.0
C770 C 0.17119 0.79763 0.87139 0.0
C771 C 0.20682 0.88232 0.87477 0.0
C772 C 0.23414 0.92353 0.86854 0.0
C773 C 0.15767 0.80422 0.88774 0.0
C774 C 0.16719 0.85241 0.89724 0.0
C775 C 0.19272 0.88964 0.89101 0.0
C776 C 0.14654 0.86862 0.91223 0.0
C777 C 0.13093 0.76238 0.89424 0.0
C778 C 0.11727 0.90396 0.9101 0.0
C779 C 0.09252 0.90965 0.92301 0.0
C780 C 0.09677 0.88005 0.93826 0.0
C781 C 0.12785 0.84877 0.94086 0.0
C782 C 0.15248 0.84276 0.92787 0.0
H783 H 0.12744 0.7259 0.88556 0.0
H784 H 0.1392 0.74626 0.90679 0.0
H785 H 0.10513 0.78373 0.89587 0.0
H786 H 0.1123 0.92398 0.89802 0.0
H787 H 0.06883 0.9337 0.92053 0.0
H788 H 0.81109 0.09657 0.8106 0.0
H789 H 0.81501 0.09995 0.84132 0.0
H790 H 0.79079 0.27817 0.84042 0.0
H791 H 0.78719 0.27481 0.80938 0.0
H792 H 0.85178 0.25524 0.85651 0.0
H793 H 0.74981 0.11231 0.8815 0.0
H794 H 0.77311 0.07898 0.86451 0.0
H795 H 0.74767 0.14186 0.86046 0.0
C796 C 0.80584 0.13616 0.81701 0.0
C797 C 0.79903 0.18549 0.80775 0.0
C798 C 0.80761 0.13794 0.83457 0.0
C799 C 0.80256 0.18908 0.84321 0.0
C800 C 0.7943 0.23812 0.834 0.0
H801 H 0.8726 0.206 0.94939 0.0
H802 H 0.83214 0.21488 0.92537 0.0
C803 C 0.79226 0.23624 0.81634 0.0
C804 C 0.81206 0.19222 0.86131 0.0
H805 H 0.80414 0.11865 0.89825 0.0
C806 C 0.84062 0.22666 0.86579 0.0
C807 C 0.7974 0.1552 0.87347 0.0
C808 C 0.76503 0.12049 0.86977 0.0
C809 C 0.85684 0.22137 0.88158 0.0
C810 C 0.84434 0.18035 0.89306 0.0
C811 C 0.81401 0.14925 0.88922 0.0
C812 C 0.86475 0.1664 0.90833 0.0
C813 C 0.88855 0.25735 0.88557 0.0
C814 C 0.89565 0.13448 0.90674 0.0
C815 C 0.91882 0.12956 0.92033 0.0
C816 C 0.91142 0.15672 0.9357 0.0
C817 C 0.87913 0.18526 0.9376 0.0
C818 C 0.85594 0.19014 0.92397 0.0
H819 H 0.89107 0.29367 0.87676 0.0
H820 H 0.88703 0.27368 0.89871 0.0
H821 H 0.91269 0.23115 0.88454 0.0
H822 H 0.90277 0.116 0.89468 0.0
H823 H 0.94356 0.10775 0.91842 0.0
H824 H 0.67906 0.17693 0.66875 0.0
H825 H 0.6347 0.1713 0.64668 0.0
H826 H 0.56788 0.07287 0.67946 0.0
H827 H 0.61228 0.07897 0.70185 0.0
H828 H 0.58012 0.02004 0.64972 0.0
H829 H 0.53936 0.23881 0.63652 0.0
H830 H 0.58638 0.23518 0.63768 0.0
H831 H 0.5604 0.21889 0.65611 0.0
C832 C 0.65444 0.15583 0.67153 0.0
C833 C 0.64931 0.12811 0.68702 0.0
C834 C 0.62899 0.15271 0.65888 0.0
C835 C 0.59776 0.1222 0.66147 0.0
C836 C 0.59171 0.09687 0.67722 0.0
H837 H 0.49626 0.11312 0.56214 0.0
H838 H 0.49452 0.11255 0.59315 0.0
C839 C 0.61717 0.10012 0.68994 0.0
C840 C 0.57451 0.11031 0.64688 0.0
H841 H 0.54125 0.17505 0.61193 0.0
C842 C 0.57059 0.05388 0.64169 0.0
C843 C 0.56113 0.15412 0.63658 0.0
C844 C 0.56169 0.21508 0.64214 0.0
C845 C 0.55755 0.0407 0.62559 0.0
C846 C 0.54882 0.0851 0.61443 0.0
C847 C 0.54865 0.14099 0.62038 0.0
C848 C 0.54636 0.07594 0.59598 0.0
C849 C 0.55525 0.97952 0.62035 0.0
C850 C 0.57581 0.05477 0.58735 0.0
C851 C 0.57698 0.05552 0.56977 0.0
C852 C 0.54872 0.0775 0.56046 0.0
C853 C 0.51837 0.09582 0.56904 0.0
C854 C 0.51734 0.09554 0.58671 0.0
H855 H 0.54823 0.9524 0.6313 0.0
H856 H 0.53552 0.97299 0.61018 0.0
H857 H 0.58133 0.96546 0.61564 0.0
H858 H 0.59878 0.04048 0.59424 0.0
H859 H 0.6005 0.04063 0.56344 0.0
H860 H 0.40515 1.00023 0.56372 0.0
H861 H 0.40411 0.99888 0.59462 0.0
H862 H 0.49084 0.8813 0.59496 0.0
H863 H 0.49232 0.88335 0.56392 0.0
H864 H 0.42561 0.84307 0.60985 0.0
H865 H 0.4688 0.04851 0.63509 0.0
H866 H 0.43669 0.05823 0.61872 0.0
H867 H 0.47833 0.02622 0.61374 0.0
C868 C 0.42463 0.97547 0.57043 0.0
C869 C 0.44858 0.94152 0.56157 0.0
C870 C 0.42424 0.97504 0.58804 0.0
C871 C 0.44752 0.94016 0.59702 0.0
C872 C 0.47291 0.90882 0.58821 0.0
H873 H 0.3629 0.83544 0.69644 0.0
H874 H 0.40697 0.83933 0.67373 0.0
C875 C 0.4737 0.91 0.57056 0.0
C876 C 0.44046 0.92906 0.61506 0.0
H877 H 0.42403 0.9982 0.65195 0.0
C878 C 0.42618 0.87627 0.6193 0.0
C879 C 0.44135 0.97254 0.62724 0.0
C880 C 0.45747 0.02939 0.62349 0.0
C881 C 0.40925 0.86767 0.63484 0.0
C882 C 0.40764 0.91275 0.64658 0.0
C883 C 0.42503 0.96377 0.64291 0.0
C884 C 0.38335 0.9114 0.66121 0.0
C885 C 0.39053 0.81227 0.63784 0.0
C886 C 0.3561 0.95131 0.66196 0.0
C887 C 0.33149 0.94957 0.67496 0.0
C888 C 0.33342 0.90764 0.68746 0.0
C889 C 0.36072 0.86771 0.68684 0.0
C890 C 0.38581 0.86995 0.67388 0.0
H891 H 0.38939 0.78574 0.62627 0.0
H892 H 0.4047 0.78801 0.64771 0.0
H893 H 0.36323 0.81969 0.64232 0.0
H894 H 0.35346 0.98337 0.65227 0.0
H895 H 0.31052 0.9806 0.67511 0.0
H896 H 0.62903 0.314 0.95106 0.0
H897 H 0.67054 0.30592 0.92746 0.0
H898 H 0.60448 0.41417 0.89732 0.0
H899 H 0.56211 0.42043 0.92035 0.0
H900 H 0.63125 0.27312 0.89012 0.0
H901 H 0.72331 0.45496 0.89528 0.0
H902 H 0.705 0.41979 0.91359 0.0
H903 H 0.67803 0.46618 0.90123 0.0
C904 C 0.62346 0.33649 0.93945 0.0
C905 C 0.59192 0.36721 0.93753 0.0
C906 C 0.64737 0.33218 0.92608 0.0
C907 C 0.64043 0.35955 0.91077 0.0
C908 C 0.61029 0.39322 0.90917 0.0
H909 H 0.67644 0.43567 0.81271 0.0
H910 H 0.67434 0.42791 0.84328 0.0
C911 C 0.58619 0.39697 0.92241 0.0
C912 C 0.66154 0.34753 0.89559 0.0
H913 H 0.71904 0.41013 0.86845 0.0
C914 C 0.65119 0.30198 0.88544 0.0
C915 C 0.68743 0.38538 0.88978 0.0
C916 C 0.69942 0.43432 0.90052 0.0
C917 C 0.66362 0.29629 0.86885 0.0
C918 C 0.68779 0.33669 0.86249 0.0
C919 C 0.70051 0.37927 0.8733 0.0
C920 C 0.69448 0.34229 0.84411 0.0
C921 C 0.64825 0.2502 0.8579 0.0
C922 C 0.7075 0.29732 0.83433 0.0
C923 C 0.70774 0.30112 0.81667 0.0
C924 C 0.69552 0.35032 0.8086 0.0
C925 C 0.68505 0.39659 0.81852 0.0
C926 C 0.68433 0.39249 0.83604 0.0
H927 H 0.6257 0.22857 0.86406 0.0
H928 H 0.63911 0.26769 0.84565 0.0
H929 H 0.66873 0.21795 0.85529 0.0
H930 H 0.71626 0.25864 0.8403 0.0
H931 H 0.71609 0.26488 0.80934 0.0
H932 H 0.38137 0.58611 0.9455 0.0
H933 H 0.33728 0.58884 0.92272 0.0
H934 H 0.39203 0.72957 0.90005 0.0
H935 H 0.43504 0.72786 0.92283 0.0
H936 H 0.3211 0.74639 0.90044 0.0
H937 H 0.35341 0.53244 0.87516 0.0
H938 H 0.33902 0.53637 0.89675 0.0
H939 H 0.38055 0.56664 0.89079 0.0
C940 C 0.38382 0.61735 0.93559 0.0
C941 C 0.41143 0.65681 0.93588 0.0
C942 C 0.35873 0.61894 0.92261 0.0
C943 C 0.36147 0.65929 0.90964 0.0
C944 C 0.38916 0.69844 0.91 0.0
H945 H 0.33807 0.74737 0.81205 0.0
H946 H 0.33986 0.74622 0.84295 0.0
C947 C 0.4138 0.69731 0.92298 0.0
C948 C 0.33683 0.66062 0.89514 0.0
H949 H 0.318 0.59062 0.85857 0.0
C950 C 0.31973 0.71186 0.89144 0.0
C951 C 0.33476 0.61536 0.88349 0.0
C952 C 0.35301 0.55964 0.8866 0.0
C953 C 0.30322 0.72062 0.87582 0.0
C954 C 0.30374 0.67696 0.86368 0.0
C955 C 0.31776 0.624 0.86797 0.0
C956 C 0.29633 0.68787 0.84565 0.0
C957 C 0.2871 0.77747 0.87207 0.0
C958 C 0.27074 0.65646 0.83699 0.0
C959 C 0.2695 0.65759 0.81933 0.0
C960 C 0.29438 0.6891 0.8102 0.0
C961 C 0.31865 0.72288 0.8189 0.0
C962 C 0.31949 0.72252 0.83651 0.0
H963 H 0.27878 0.79931 0.88384 0.0
H964 H 0.30686 0.80449 0.86564 0.0
H965 H 0.26402 0.77315 0.86361 0.0
H966 H 0.25294 0.629 0.84384 0.0
H967 H 0.2507 0.631 0.81279 0.0
H968 H 0.58076 0.67929 0.0628 0.0
H969 H 0.57991 0.67597 0.0934 0.0
H970 H 0.5234 0.51777 0.09169 0.0
H971 H 0.52663 0.51861 0.06088 0.0
H972 H 0.53071 0.67444 0.11702 0.0
H973 H 0.60562 0.47165 0.11951 0.0
H974 H 0.59879 0.50871 0.09992 0.0
H975 H 0.56329 0.46997 0.1095 0.0
C976 C 0.56864 0.6432 0.06887 0.0
C977 C 0.55475 0.59835 0.05933 0.0
C978 C 0.56759 0.64186 0.08643 0.0
C979 C 0.55212 0.59617 0.09494 0.0
C980 C 0.5362 0.55289 0.08548 0.0
H981 H 0.61551 0.56929 0.20172 0.0
H982 H 0.5726 0.56197 0.17873 0.0
C983 C 0.53778 0.5537 0.06782 0.0
C984 C 0.55563 0.59335 0.11358 0.0
H985 H 0.60218 0.52464 0.1442 0.0
C986 C 0.54562 0.64099 0.12307 0.0
C987 C 0.57467 0.54932 0.12156 0.0
C988 C 0.58644 0.4971 0.11215 0.0
C989 C 0.5573 0.64844 0.13972 0.0
C990 C 0.57895 0.60688 0.14708 0.0
C991 C 0.58565 0.55649 0.13835 0.0
C992 C 0.60047 0.61901 0.16216 0.0
C993 C 0.54852 0.70231 0.14897 0.0
C994 C 0.62992 0.65423 0.16045 0.0
C995 C 0.65501 0.65722 0.17327 0.0
C996 C 0.65095 0.62532 0.18814 0.0
C997 C 0.61994 0.59333 0.19027 0.0
C998 C 0.59517 0.58952 0.17727 0.0
H999 H 0.52508 0.72347 0.14347 0.0
H1000 H 0.54364 0.69375 0.16257 0.0
H1001 H 0.57118 0.73177 0.14805 0.0
H1002 H 0.63464 0.67665 0.14873 0.0
H1003 H 0.67859 0.68169 0.17099 0.0
H1004 H 0.31923 0.4866 0.17499 0.0
H1005 H 0.36271 0.48648 0.15243 0.0
H1006 H 0.40806 0.33318 0.17237 0.0
H1007 H 0.36379 0.33271 0.19503 0.0
H1008 H 0.43562 0.48978 0.15308 0.0
H1009 H 0.38619 0.29058 0.12372 0.0
H1010 H 0.36183 0.3269 0.13998 0.0
H1011 H 0.40048 0.28711 0.14533 0.0
C1012 C 0.33864 0.45308 0.17469 0.0
C1013 C 0.33824 0.40971 0.1868 0.0
C1014 C 0.36351 0.45311 0.16179 0.0
C1015 C 0.38858 0.40981 0.16068 0.0
C1016 C 0.38867 0.36665 0.17288 0.0
H1017 H 0.49708 0.38051 0.06335 0.0
H1018 H 0.49551 0.37512 0.09438 0.0
C1019 C 0.36343 0.36635 0.18579 0.0
C1020 C 0.41296 0.40958 0.14609 0.0
H1021 H 0.42564 0.34492 0.10807 0.0
C1022 C 0.43407 0.45753 0.14337 0.0
C1023 C 0.41122 0.36711 0.13354 0.0
C1024 C 0.38862 0.31509 0.13564 0.0
C1025 C 0.45117 0.46622 0.12788 0.0
C1026 C 0.44703 0.42596 0.11489 0.0
C1027 C 0.42867 0.37568 0.11814 0.0
C1028 C 0.45533 0.4392 0.0971 0.0
C1029 C 0.47259 0.51907 0.12521 0.0
C1030 C 0.43389 0.47798 0.08849 0.0
C1031 C 0.43431 0.48034 0.07089 0.0
C1032 C 0.45649 0.44443 0.06168 0.0
C1033 C 0.48 0.40887 0.0703 0.0
C1034 C 0.47914 0.4058 0.08795 0.0
H1035 H 0.47776 0.54177 0.13725 0.0
H1036 H 0.4981 0.50803 0.11927 0.0
H1037 H 0.45845 0.54806 0.11654 0.0
H1038 H 0.41484 0.50329 0.09531 0.0
H1039 H 0.41589 0.50777 0.06442 0.0
H1040 H 0.60951 0.93866 0.44366 0.0
H1041 H 0.6497 0.94483 0.4195 0.0
H1042 H 0.61546 0.78045 0.40263 0.0
H1043 H 0.57548 0.77401 0.42659 0.0
H1044 H 0.68943 0.79872 0.39931 0.0
H1045 H 0.60852 0.97305 0.37222 0.0
H1046 H 0.62601 0.98429 0.39304 0.0
H1047 H 0.5934 0.93053 0.38967 0.0
C1048 C 0.61078 0.90376 0.43487 0.0
C1049 C 0.58933 0.85591 0.43707 0.0
C1050 C 0.63379 0.90724 0.42112 0.0
C1051 C 0.63534 0.86319 0.40926 0.0
C1052 C 0.61486 0.81467 0.41173 0.0
H1053 H 0.69141 0.77259 0.30991 0.0
H1054 H 0.68523 0.77385 0.34071 0.0
C1055 C 0.59203 0.81109 0.42546 0.0
C1056 C 0.65558 0.86903 0.39341 0.0
H1057 H 0.65369 0.93704 0.35553 0.0
C1058 C 0.68212 0.82954 0.3898 0.0
C1059 C 0.64589 0.90922 0.38106 0.0
C1060 C 0.61676 0.95152 0.38405 0.0
C1061 C 0.69855 0.82808 0.37391 0.0
C1062 C 0.68767 0.86663 0.36127 0.0
C1063 C 0.66225 0.90771 0.36522 0.0
C1064 C 0.69915 0.86234 0.3434 0.0
C1065 C 0.72689 0.78466 0.37084 0.0
C1066 C 0.70948 0.91126 0.33464 0.0
C1067 C 0.71198 0.91079 0.31706 0.0
C1068 C 0.70484 0.86117 0.30804 0.0
C1069 C 0.69721 0.81114 0.31677 0.0
C1070 C 0.69401 0.81183 0.33435 0.0
H1071 H 0.74255 0.77738 0.38249 0.0
H1072 H 0.71445 0.74385 0.36736 0.0
H1073 H 0.74492 0.79748 0.36052 0.0
H1074 H 0.71353 0.95069 0.34133 0.0
H1075 H 0.71787 0.94976 0.31045 0.0
H1076 H 0.43527 0.08921 0.41919 0.0
H1077 H 0.39168 0.09629 0.3967 0.0
H1078 H 0.31997 0.17993 0.43079 0.0
H1079 H 0.36415 0.17406 0.45335 0.0
H1080 H 0.32344 0.06529 0.39109 0.0
H1081 H 0.33496 0.29992 0.39516 0.0
H1082 H 0.36371 0.25373 0.40686 0.0
H1083 H 0.31891 0.2635 0.41351 0.0
C1084 C 0.40987 0.10769 0.42203 0.0
C1085 C 0.4032 0.13174 0.43791 0.0
C1086 C 0.38497 0.11189 0.40916 0.0
C1087 C 0.3529 0.13989 0.41196 0.0
C1088 C 0.34491 0.15951 0.42824 0.0
H1089 H 0.2491 0.15732 0.31232 0.0
H1090 H 0.24784 0.15328 0.34327 0.0
C1091 C 0.37003 0.15587 0.44111 0.0
C1092 C 0.3302 0.15314 0.39726 0.0
H1093 H 0.3088 0.26248 0.37104 0.0
C1094 C 0.31937 0.10839 0.38685 0.0
C1095 C 0.32481 0.20957 0.39183 0.0
C1096 C 0.33631 0.25959 0.40232 0.0
C1097 C 0.30643 0.1183 0.37052 0.0
C1098 C 0.30358 0.17461 0.36463 0.0
C1099 C 0.31112 0.21945 0.37564 0.0
C1100 C 0.30033 0.18712 0.34638 0.0
C1101 C 0.29901 0.06834 0.35919 0.0
C1102 C 0.32933 0.21074 0.33799 0.0
C1103 C 0.32996 0.21381 0.32043 0.0
C1104 C 0.30165 0.19303 0.31088 0.0
C1105 C 0.27142 0.17341 0.31934 0.0
C1106 C 0.27074 0.17062 0.337 0.0
H1107 H 0.30625 0.02752 0.36519 0.0
H1108 H 0.27054 0.06707 0.35614 0.0
H1109 H 0.31377 0.07239 0.34714 0.0
H1110 H 0.35236 0.22412 0.345 0.0
H1111 H 0.35324 0.23046 0.31429 0.0
H1112 H 0.01248 0.76755 -0.0026 0.0
H1113 H 0.005 0.66631 0.00422 0.0
H1114 H 0.01253 0.62528 0.95127 0.0
H1115 H 0.02 0.72516 0.94449 0.0
H1116 H 0.95497 0.57814 0.99077 0.0
H1117 H 0.09451 0.53685 0.97481 0.0
H1118 H 0.07812 0.60677 0.97958 0.0
H1119 H 0.07171 0.57677 0.95893 0.0
C1120 C 0.01189 0.73679 0.98727 0.0
C1121 C 0.01731 0.75391 0.97045 0.0
C1122 C 0.00778 0.67914 0.99116 0.0
C1123 C 0.00905 0.63827 0.97826 0.0
C1124 C 0.01224 0.65597 0.96144 0.0
H1125 H 0.98671 0.31049 0.94516 0.0
H1126 H 0.99723 0.40958 0.9521 0.0
C1127 C 0.0164 0.71303 0.95758 0.0
C1128 C 0.00853 0.57674 0.98199 0.0
H1129 H 0.05563 0.45659 0.97415 0.0
C1130 C 0.97723 0.55148 0.98761 0.0
C1131 C 0.0377 0.54209 0.97794 0.0
C1132 C 0.07255 0.56698 0.97263 0.0
C1133 C 0.97356 0.49222 0.988 0.0
C1134 C 0.00192 0.45776 0.98271 0.0
C1135 C 0.03391 0.48309 0.97819 0.0
C1136 C 0.99721 0.39664 0.97914 0.0
C1137 C 0.93868 0.46671 0.99291 0.0
C1138 C 0.99449 0.35615 0.99208 0.0
C1139 C 0.98871 0.29894 0.9881 0.0
C1140 C 0.9852 0.28195 0.97116 0.0
C1141 C 0.98896 0.32252 0.95832 0.0
C1142 C 0.995 0.3791 0.96226 0.0
H1143 H 0.9189 0.49935 -0.00367 0.0
H1144 H 0.92823 0.441 0.9823 0.0
H1145 H 0.94236 0.43804 0.00386 0.0
H1146 H 0.99645 0.36887 0.00519 0.0
H1147 H 0.98587 0.26843 -0.00179 0.0
H1148 H 0.21316 0.52353 0.2185 0.0
H1149 H 0.20373 0.62469 0.22395 0.0
H1150 H 0.31054 0.64012 0.24161 0.0
H1151 H 0.32016 0.5393 0.23615 0.0
H1152 H 0.24866 0.70655 0.26034 0.0
H1153 H 0.26496 0.73585 0.19092 0.0
H1154 H 0.23564 0.68108 0.19812 0.0
H1155 H 0.28199 0.67461 0.20181 0.0
C1156 C 0.23423 0.54813 0.22407 0.0
C1157 C 0.26745 0.52369 0.22682 0.0
C1158 C 0.22888 0.6059 0.22709 0.0
C1159 C 0.25654 0.63985 0.23307 0.0
C1160 C 0.28888 0.61464 0.23701 0.0
H1161 H 0.28668 1.00124 0.2188 0.0
H1162 H 0.29712 0.9005 0.22436 0.0
C1163 C 0.29434 0.55712 0.23387 0.0
C1164 C 0.25325 0.70235 0.23328 0.0
H1165 H 0.25389 0.81718 0.20714 0.0
C1166 C 0.2497 0.73086 0.24874 0.0
C1167 C 0.25519 0.73386 0.21814 0.0
C1168 C 0.25984 0.70516 0.20125 0.0
C1169 C 0.2474 0.79029 0.24938 0.0
C1170 C 0.24883 0.82169 0.23418 0.0
C1171 C 0.25293 0.79305 0.21878 0.0
C1172 C 0.24462 0.88414 0.23373 0.0
C1173 C 0.24381 0.81921 0.26626 0.0
C1174 C 0.21197 0.90863 0.23757 0.0
C1175 C 0.20594 0.96595 0.23434 0.0
C1176 C 0.23249 0.99996 0.22725 0.0
C1177 C 0.26588 0.97623 0.22443 0.0
C1178 C 0.27178 0.91866 0.2275 0.0
H1179 H 0.25068 0.79056 0.27688 0.0
H1180 H 0.26089 0.85724 0.26686 0.0
H1181 H 0.21617 0.8332 0.26796 0.0
H1182 H 0.1905 0.88274 0.24217 0.0
H1183 H 0.17996 0.98316 0.23663 0.0
H1184 H 0.82088 0.04457 0.23151 0.0
H1185 H 0.80932 0.14495 0.23671 0.0
H1186 H 0.70345 0.12442 0.21818 0.0
H1187 H 0.71487 0.02382 0.21292 0.0
H1188 H 0.74704 0.21038 0.20157 0.0
H1189 H 0.74548 0.23213 0.27152 0.0
H1190 H 0.78071 0.19069 0.26271 0.0
H1191 H 0.73622 0.16605 0.26093 0.0
C1192 C 0.79492 0.06126 0.22886 0.0
C1193 C 0.76881 0.02644 0.22175 0.0
C1194 C 0.7883 0.1185 0.23192 0.0
C1195 C 0.7555 0.14206 0.2279 0.0
C1196 C 0.72888 0.10693 0.22146 0.0
H1197 H 0.67466 0.48353 0.23323 0.0
H1198 H 0.68561 0.38243 0.23749 0.0
C1199 C 0.73537 0.04947 0.21855 0.0
C1200 C 0.75037 0.2042 0.22865 0.0
H1201 H 0.7465 0.31719 0.25555 0.0
C1202 C 0.74679 0.2337 0.21337 0.0
C1203 C 0.75012 0.23445 0.24406 0.0
C1204 C 0.75308 0.2044 0.26079 0.0
C1205 C 0.7434 0.29277 0.21308 0.0
C1206 C 0.7437 0.32319 0.22846 0.0
C1207 C 0.74672 0.29373 0.24378 0.0
C1208 C 0.73938 0.38547 0.22864 0.0
C1209 C 0.73924 0.32243 0.19632 0.0
C1210 C 0.76645 0.42093 0.22285 0.0
C1211 C 0.76033 0.47879 0.22049 0.0
C1212 C 0.72692 0.50189 0.22372 0.0
C1213 C 0.70058 0.46678 0.23051 0.0
C1214 C 0.7068 0.40911 0.233 0.0
H1215 H 0.73464 0.29226 0.18579 0.0
H1216 H 0.71695 0.35273 0.19683 0.0
H1217 H 0.76348 0.34685 0.19352 0.0
H1218 H 0.79181 0.40337 0.21946 0.0
H1219 H 0.78104 0.50466 0.21514 0.0
H1220 H 0.92522 0.78748 0.48327 0.0
H1221 H 0.93473 0.88825 0.48884 0.0
H1222 H 0.04169 0.87319 0.47133 0.0
H1223 H 0.03234 0.77213 0.46573 0.0
H1224 H 0.99389 0.95337 0.50809 0.0
H1225 H 0.9843 0.98672 0.43857 0.0
H1226 H 0.96716 0.92419 0.44875 0.0
H1227 H 0.01369 0.93235 0.44593 0.0
C1228 C 0.951 0.80541 0.48096 0.0
C1229 C 0.97797 0.77206 0.47395 0.0
C1230 C 0.95641 0.8629 0.48419 0.0
C1231 C 0.98878 0.8882 0.48035 0.0
C1232 C 0.01647 0.85438 0.47433 0.0
H1233 H 0.06569 0.23093 0.4875 0.0
H1234 H 0.05432 0.13035 0.49241 0.0
C1235 C 0.01118 0.79664 0.47124 0.0
C1236 C 0.99225 0.95067 0.48092 0.0
H1237 H 0.99481 0.06696 0.45539 0.0
C1238 C 0.99419 0.97832 0.4966 0.0
C1239 C 0.99203 0.98305 0.46591 0.0
C1240 C 0.98897 0.95542 0.44879 0.0
C1241 C 0.99661 0.03767 0.49759 0.0
C1242 C 0.99695 0.06992 0.48254 0.0
C1243 C 0.99445 0.04217 0.46692 0.0
C1244 C 0.0013 0.13236 0.48251 0.0
C1245 C 0.99843 0.0656 0.51468 0.0
C1246 C 0.97497 0.16728 0.4757 0.0
C1247 C 0.98134 0.22492 0.47298 0.0
C1248 C 0.01439 0.24835 0.47677 0.0
C1249 C 0.03997 0.21396 0.48448 0.0
C1250 C 0.03347 0.15654 0.48734 0.0
H1251 H 0.99027 0.03645 0.52496 0.0
H1252 H 0.0259 0.07917 0.51716 0.0
H1253 H 0.98146 0.1038 0.51504 0.0
H1254 H 0.95002 0.14939 0.4718 0.0
H1255 H 0.9613 0.25019 0.46685 0.0
H1256 H 0.21197 0.0239 0.7172 0.0
H1257 H 0.20573 0.12556 0.72264 0.0
H1258 H 0.30732 0.12718 0.74692 0.0
H1259 H 0.31407 0.02609 0.74094 0.0
H1260 H 0.20808 0.2011 0.74942 0.0
H1261 H 0.32311 0.23092 0.70698 0.0
H1262 H 0.30176 0.16347 0.70954 0.0
H1263 H 0.33187 0.18881 0.72535 0.0
C1264 C 0.23243 0.04572 0.72415 0.0
C1265 C 0.26359 0.01745 0.72855 0.0
C1266 C 0.22895 0.10383 0.7272 0.0
C1267 C 0.2565 0.13439 0.73478 0.0
C1268 C 0.28614 0.10488 0.74065 0.0
H1269 H 0.23584 0.50758 0.74712 0.0
H1270 H 0.24747 0.40795 0.75449 0.0
C1271 C 0.28983 0.04707 0.73739 0.0
C1272 C 0.25579 0.19737 0.73483 0.0
H1273 H 0.29717 0.31281 0.71808 0.0
C1274 C 0.22775 0.22565 0.74274 0.0
C1275 C 0.28129 0.2294 0.72592 0.0
C1276 C 0.31104 0.20174 0.71633 0.0
C1277 C 0.22412 0.28482 0.74166 0.0
C1278 C 0.24946 0.3166 0.73263 0.0
C1279 C 0.278 0.28846 0.72516 0.0
C1280 C 0.24447 0.37762 0.72871 0.0
C1281 C 0.19228 0.31257 0.74945 0.0
C1282 C 0.24025 0.39389 0.71181 0.0
C1283 C 0.23395 0.45019 0.70763 0.0
C1284 C 0.23168 0.4919 0.72024 0.0
C1285 C 0.23735 0.47626 0.73716 0.0
C1286 C 0.24362 0.41938 0.74138 0.0
H1287 H 0.17245 0.28115 0.75372 0.0
H1288 H 0.20058 0.33789 0.76056 0.0
H1289 H 0.17965 0.3417 0.74028 0.0
H1290 H 0.24108 0.36265 0.7018 0.0
H1291 H 0.23028 0.46106 0.69445 0.0
H1292 H 0.71203 0.52644 0.71448 0.0
H1293 H 0.7018 0.62771 0.71919 0.0
H1294 H 0.80915 0.64757 0.73566 0.0
H1295 H 0.81959 0.54649 0.731 0.0
H1296 H 0.74675 0.71161 0.75492 0.0
H1297 H 0.75983 0.74088 0.68534 0.0
H1298 H 0.73201 0.68461 0.69288 0.0
H1299 H 0.77862 0.68078 0.69614 0.0
C1300 C 0.73315 0.55207 0.71956 0.0
C1301 C 0.76668 0.52862 0.72226 0.0
C1302 C 0.72732 0.60992 0.72216 0.0
C1303 C 0.75481 0.64505 0.72766 0.0
C1304 C 0.78763 0.62112 0.73141 0.0
H1305 H 0.77934 1.00763 0.71399 0.0
H1306 H 0.79074 0.90684 0.71886 0.0
C1307 C 0.79356 0.56347 0.72869 0.0
C1308 C 0.7505 0.70737 0.72783 0.0
H1309 H 0.74787 0.82187 0.70159 0.0
C1310 C 0.7469 0.73583 0.74329 0.0
C1311 C 0.75122 0.73875 0.71264 0.0
C1312 C 0.7558 0.71007 0.69575 0.0
C1313 C 0.74341 0.79509 0.7439 0.0
C1314 C 0.74365 0.82636 0.72867 0.0
C1315 C 0.74777 0.79781 0.71325 0.0
C1316 C 0.7385 0.88858 0.72824 0.0
C1317 C 0.73983 0.82402 0.76078 0.0
C1318 C 0.7056 0.91192 0.73223 0.0
C1319 C 0.699 0.96933 0.72939 0.0
C1320 C 0.72521 1.00455 0.72255 0.0
C1321 C 0.75875 0.98172 0.71943 0.0
C1322 C 0.76522 0.92412 0.72211 0.0
H1323 H 0.74721 0.79567 0.77139 0.0
H1324 H 0.75654 0.86251 0.76126 0.0
H1325 H 0.71209 0.83735 0.76259 0.0
H1326 H 0.68449 0.8852 0.73678 0.0
H1327 H 0.67295 0.9858 0.73197 0.0
H1328 H 0.57456 0.72409 0.48679 0.0
H1329 H 0.56655 0.6227 0.49174 0.0
H1330 H 0.45961 0.63466 0.47392 0.0
H1331 H 0.46734 0.73648 0.46926 0.0
H1332 H 0.46792 0.55581 0.50046 0.0
H1333 H 0.56679 0.52279 0.44966 0.0
H1334 H 0.58222 0.56329 0.46735 0.0
H1335 H 0.54794 0.59112 0.4541 0.0
C1336 C 0.54907 0.70529 0.48433 0.0
C1337 C 0.52167 0.73802 0.47748 0.0
C1338 C 0.54459 0.64732 0.48707 0.0
C1339 C 0.51279 0.62074 0.48277 0.0
C1340 C 0.48446 0.65416 0.47723 0.0
H1341 H 0.46896 0.29341 0.44458 0.0
H1342 H 0.48087 0.39232 0.45085 0.0
C1343 C 0.48884 0.71239 0.47464 0.0
C1344 C 0.51019 0.55791 0.48239 0.0
H1345 H 0.543 0.44142 0.46225 0.0
C1346 C 0.48453 0.53067 0.49224 0.0
C1347 C 0.53163 0.52516 0.47149 0.0
C1348 C 0.5585 0.55194 0.45993 0.0
C1349 C 0.47946 0.47172 0.49131 0.0
C1350 C 0.50085 0.43916 0.48036 0.0
C1351 C 0.5269 0.46633 0.47078 0.0
C1352 C 0.49409 0.37813 0.47708 0.0
C1353 C 0.45031 0.44499 0.50147 0.0
C1354 C 0.49811 0.33672 0.48969 0.0
C1355 C 0.49117 0.27954 0.48613 0.0
C1356 C 0.47989 0.26312 0.46992 0.0
C1357 C 0.47685 0.30469 0.45729 0.0
C1358 C 0.48384 0.36133 0.46083 0.0
H1359 H 0.43267 0.47706 0.50725 0.0
H1360 H 0.43432 0.41648 0.49338 0.0
H1361 H 0.46192 0.41916 0.51175 0.0
H1362 H 0.50662 0.34858 0.50226 0.0
H1363 H 0.49388 0.24846 0.49609 0.0
H1364 H 0.42919 0.78844 0.98464 0.0
H1365 H 0.43975 0.88915 0.98987 0.0
H1366 H 0.54694 0.87009 0.97305 0.0
H1367 H 0.53655 0.76906 0.96782 0.0
H1368 H 0.5024 0.9542 0.00886 0.0
H1369 H 0.48733 0.98193 0.9393 0.0
H1370 H 0.46919 0.92171 0.95029 0.0
H1371 H 0.5157 0.92633 0.94681 0.0
C1372 C 0.45527 0.80545 0.98248 0.0
C1373 C 0.482 0.77104 0.97574 0.0
C1374 C 0.46127 0.86289 0.9855 0.0
C1375 C 0.49402 0.88702 0.98174 0.0
C1376 C 0.52148 0.85212 0.97605 0.0
H1377 H 0.57203 0.23035 0.98461 0.0
H1378 H 0.56184 0.1297 0.99001 0.0
C1379 C 0.51558 0.79443 0.97315 0.0
C1380 C 0.498 0.94939 0.9818 0.0
H1381 H 0.49843 0.06351 0.95539 0.0
C1382 C 0.50167 0.97822 -0.0028 0.0
C1383 C 0.49648 0.9805 0.96657 0.0
C1384 C 0.49179 0.95142 0.94975 0.0
C1385 C 0.50441 0.0376 -0.0023 0.0
C1386 C 0.50329 0.0686 0.98243 0.0
C1387 C 0.49917 0.03966 0.96708 0.0
C1388 C 0.50754 0.13099 0.98187 0.0
C1389 C 0.50808 0.06694 0.01451 0.0
C1390 C 0.48018 0.16541 0.9758 0.0
C1391 C 0.48588 0.22306 0.9728 0.0
C1392 C 0.51925 0.24699 0.97554 0.0
C1393 C 0.54607 0.21297 0.98238 0.0
C1394 C 0.54025 0.15554 0.98553 0.0
H1395 H 0.50148 0.03849 0.02521 0.0
H1396 H 0.53566 0.08139 0.01609 0.0
H1397 H 0.49081 0.10477 0.01506 0.0
H1398 H 0.4548 0.14717 0.97279 0.0
H1399 H 0.46487 0.24807 0.96737 0.0
H1400 H 0.37541 0.41587 0.99156 0.0
H1401 H 0.32044 0.36822 0.98385 0.0
H1402 H 0.32627 0.26893 0.02945 0.0
H1403 H 0.38168 0.31419 0.03676 0.0
H1404 H 0.30507 0.20611 0.00253 0.0
H1405 H 0.22753 0.4054 0.00662 0.0
H1406 H 0.26305 0.40464 0.99165 0.0
H1407 H 0.27242 0.40092 0.01386 0.0
C1408 C 0.36518 0.38347 -0.00019 0.0
C1409 C 0.38256 0.3699 0.01496 0.0
C1410 C 0.33359 0.35658 -0.00453 0.0
C1411 C 0.31883 0.31587 0.00626 0.0
C1412 C 0.33698 0.30054 0.02099 0.0
H1413 H 0.11991 0.21208 0.03707 0.0
H1414 H 0.17527 0.25748 0.02975 0.0
C1415 C 0.3685 0.32703 0.02526 0.0
C1416 C 0.28383 0.2904 0.00294 0.0
H1417 H 0.19608 0.32127 0.00294 0.0
C1418 C 0.2812 0.23123 0.00233 0.0
C1419 C 0.25277 0.32339 0.00274 0.0
C1420 C 0.25383 0.38708 0.00386 0.0
C1421 C 0.24837 0.20399 0.00257 0.0
C1422 C 0.21732 0.23697 0.00301 0.0
C1423 C 0.21995 0.29616 0.00256 0.0
C1424 C 0.18237 0.21138 0.00638 0.0
C1425 C 0.24734 0.14027 0.00352 0.0
C1426 C 0.16744 0.17111 -0.00451 0.0
C1427 C 0.13588 0.14415 -0.00017 0.0
C1428 C 0.11869 0.1572 0.01508 0.0
C1429 C 0.13293 0.19963 0.02549 0.0
C1430 C 0.16443 0.2262 0.02121 0.0
H1431 H 0.27368 0.12187 0.00612 0.0
H1432 H 0.2289 0.12612 0.01354 0.0
H1433 H 0.23793 0.12309 0.99129 0.0
H1434 H 0.18044 0.15989 0.98379 0.0
H1435 H 0.12551 0.1121 0.99149 0.0
H1436 H 0.87921 0.80198 0.0274 0.0
H1437 H 0.82594 0.75629 0.01743 0.0
H1438 H 0.8205 0.87297 0.97562 0.0
H1439 H 0.87338 0.921 0.98615 0.0
H1440 H 0.75921 0.86665 0.99058 0.0
H1441 H 0.80351 0.64848 0.98054 0.0
H1442 H 0.81697 0.66981 0.00125 0.0
H1443 H 0.83427 0.70609 0.98297 0.0
C1444 C 0.86679 0.81801 0.01605 0.0
C1445 C 0.88025 0.86579 0.00771 0.0
C1446 C 0.83663 0.79105 0.01016 0.0
C1447 C 0.8195 0.81032 -0.00444 0.0
C1448 C 0.83346 0.85694 0.98682 0.0
H1449 H 0.62773 0.60488 0.98643 0.0
H1450 H 0.68049 0.6529 0.97581 0.0
C1451 C 0.86372 0.88428 0.99281 0.0
C1452 C 0.78499 0.78542 0.99085 0.0
H1453 H 0.74212 0.65881 0.99041 0.0
C1454 C 0.75557 0.82121 0.99005 0.0
C1455 C 0.78002 0.72627 0.98957 0.0
C1456 C 0.81053 0.68568 0.98842 0.0
C1457 C 0.72128 0.7992 0.98986 0.0
C1458 C 0.71635 0.74002 0.99106 0.0
C1459 C 0.74575 0.70426 0.98996 0.0
C1460 C 0.68196 0.715 -0.0041 0.0
C1461 C 0.69074 0.83982 0.98902 0.0
C1462 C 0.66515 0.73392 0.01064 0.0
C1463 C 0.63501 0.70698 0.01658 0.0
C1464 C 0.62128 0.65954 0.00815 0.0
C1465 C 0.63757 0.64133 0.99316 0.0
C1466 C 0.66778 0.66866 0.98712 0.0
H1467 H 0.69754 0.87724 0.9812 0.0
H1468 H 0.66686 0.81955 0.98368 0.0
H1469 H 0.68466 0.85533 0.00193 0.0
H1470 H 0.67601 0.76845 0.01795 0.0
H1471 H 0.62279 0.72284 0.028 0.0
H1472 H 0.092 0.31603 0.27198 0.0
H1473 H 0.03548 0.35968 0.26499 0.0
H1474 H 0.08985 0.49952 0.24167 0.0
H1475 H 0.14643 0.45519 0.24833 0.0
H1476 H 0.01744 0.45826 0.27874 0.0
H1477 H 0.00873 0.47731 0.20914 0.0
H1478 H 0.03956 0.43051 0.21944 0.0
H1479 H 0.04918 0.50469 0.21749 0.0
C1480 C 0.09177 0.35544 0.26501 0.0
C1481 C 0.12343 0.3826 0.26082 0.0
C1482 C 0.05955 0.38024 0.26098 0.0
C1483 C 0.05837 0.43276 0.25273 0.0
C1484 C 0.09002 0.45844 0.2477 0.0
H1485 H 0.90703 0.69268 0.27028 0.0
H1486 H 0.95997 0.63727 0.26434 0.0
C1487 C 0.12234 0.43328 0.25159 0.0
C1488 C 0.02466 0.46422 0.25179 0.0
H1489 H 0.9696 0.53645 0.22531 0.0
C1490 C 0.00681 0.47464 0.267 0.0
C1491 C 0.01073 0.48559 0.23648 0.0
C1492 C 0.02786 0.47351 0.21969 0.0
C1493 C 0.97601 0.507 0.26741 0.0
C1494 C 0.96295 0.53046 0.25225 0.0
C1495 C 0.98002 0.51884 0.23692 0.0
C1496 C 0.93199 0.56822 0.25251 0.0
C1497 C 0.9578 0.51641 0.28413 0.0
C1498 C 0.899 0.54865 0.24712 0.0
C1499 C 0.86866 0.58026 0.25052 0.0
C1500 C 0.87107 0.63157 0.25942 0.0
C1501 C 0.90444 0.65282 0.26365 0.0
C1502 C 0.93465 0.62142 0.2602 0.0
H1503 H 0.96688 0.48609 0.29392 0.0
H1504 H 0.96354 0.55985 0.28866 0.0
H1505 H 0.92884 0.51232 0.28274 0.0
H1506 H 0.89652 0.50756 0.2412 0.0
H1507 H 0.84323 0.56291 0.24715 0.0
H1508 H 0.34223 0.9381 0.52519 0.0
H1509 H 0.28744 0.88745 0.51926 0.0
H1510 H 0.34596 0.75629 0.49394 0.0
H1511 H 0.40099 0.80691 0.4998 0.0
H1512 H 0.27664 0.78647 0.47876 0.0
H1513 H 0.27294 0.73964 0.54753 0.0
H1514 H 0.27673 0.81332 0.54234 0.0
H1515 H 0.3119 0.7657 0.53709 0.0
C1516 C 0.34333 0.8989 0.51813 0.0
C1517 C 0.37583 0.8759 0.5132 0.0
C1518 C 0.31208 0.87016 0.51471 0.0
C1519 C 0.31281 0.81778 0.50642 0.0
C1520 C 0.34493 0.79666 0.50038 0.0
H1521 H 0.15053 0.56825 0.52347 0.0
H1522 H 0.20725 0.61327 0.51774 0.0
C1523 C 0.37629 0.82561 0.50373 0.0
C1524 C 0.28073 0.78242 0.50586 0.0
H1525 H 0.22306 0.71341 0.53158 0.0
C1526 C 0.2649 0.77018 0.49026 0.0
C1527 C 0.26595 0.76049 0.52088 0.0
C1528 C 0.28285 0.76991 0.53792 0.0
C1529 C 0.23395 0.73763 0.48937 0.0
C1530 C 0.21848 0.71752 0.50448 0.0
C1531 C 0.23488 0.72889 0.52 0.0
C1532 C 0.18492 0.68554 0.50484 0.0
C1533 C 0.21831 0.72463 0.4723 0.0
C1534 C 0.15359 0.71034 0.49904 0.0
C1535 C 0.12116 0.6844 0.50221 0.0
C1536 C 0.11962 0.63381 0.51148 0.0
C1537 C 0.15107 0.60757 0.51646 0.0
C1538 C 0.18342 0.63315 0.51315 0.0
H1539 H 0.23824 0.72839 0.46209 0.0
H1540 H 0.20695 0.68139 0.47199 0.0
H1541 H 0.19693 0.75526 0.46961 0.0
H1542 H 0.15399 0.75127 0.49292 0.0
H1543 H 0.09722 0.70564 0.49835 0.0
H1544 H 0.89733 0.32191 0.49362 0.0
H1545 H 0.84264 0.27481 0.48521 0.0
H1546 H 0.7832 0.39294 0.51537 0.0
H1547 H 0.83738 0.44128 0.52326 0.0
H1548 H 0.79988 0.22179 0.50683 0.0
H1549 H 0.72273 0.38544 0.47391 0.0
H1550 H 0.76943 0.39254 0.47755 0.0
H1551 H 0.73834 0.4116 0.49378 0.0
C1552 C 0.8725 0.33882 0.49804 0.0
C1553 C 0.87165 0.38507 0.50921 0.0
C1554 C 0.8413 0.31172 0.49328 0.0
C1555 C 0.80874 0.33072 0.49948 0.0
C1556 C 0.80784 0.37823 0.51009 0.0
H1557 H 0.61108 0.22065 0.52988 0.0
H1558 H 0.66506 0.26915 0.52139 0.0
C1559 C 0.83891 0.40535 0.51481 0.0
C1560 C 0.77619 0.29727 0.49673 0.0
H1561 H 0.68873 0.31127 0.48779 0.0
C1562 C 0.77577 0.24083 0.50222 0.0
C1563 C 0.74475 0.32207 0.49067 0.0
C1564 C 0.74393 0.38108 0.48348 0.0
C1565 C 0.74427 0.20999 0.50303 0.0
C1566 C 0.71248 0.23622 0.4981 0.0
C1567 C 0.71317 0.29142 0.49164 0.0
C1568 C 0.67804 0.20958 0.50162 0.0
C1569 C 0.7448 0.1509 0.51022 0.0
C1570 C 0.66709 0.16074 0.49302 0.0
C1571 C 0.63618 0.1329 0.49788 0.0
C1572 C 0.61604 0.15335 0.51145 0.0
C1573 C 0.62641 0.20353 0.51954 0.0
C1574 C 0.65706 0.23145 0.51463 0.0
H1575 H 0.77116 0.13892 0.5151 0.0
H1576 H 0.72536 0.14711 0.52063 0.0
H1577 H 0.73726 0.12029 0.50023 0.0
H1578 H 0.68289 0.14345 0.48287 0.0
H1579 H 0.6288 0.09431 0.4915 0.0
H1580 H 0.90048 0.20139 0.76631 0.0
H1581 H 0.95621 0.15492 0.75946 0.0
H1582 H 0.89933 1.01088 0.74011 0.0
H1583 H 0.84347 0.05833 0.74651 0.0
H1584 H 0.97253 0.0596 0.77573 0.0
H1585 H 0.98046 0.02128 0.70675 0.0
H1586 H 0.95062 0.07223 0.71592 0.0
H1587 H 0.93975 0.99825 0.71598 0.0
C1588 C 0.90002 0.16054 0.76012 0.0
C1589 C 0.86798 0.13304 0.75702 0.0
C1590 C 0.93175 0.13409 0.75619 0.0
C1591 C 0.93197 0.07948 0.74923 0.0
C1592 C 0.89984 0.05343 0.74515 0.0
H1593 H 0.08633 0.82864 0.77358 0.0
H1594 H 0.0321 0.87898 0.7664 0.0
C1595 C 0.86798 0.08032 0.74889 0.0
C1596 C 0.96522 0.04677 0.749 0.0
H1597 H 0.02001 0.96767 0.7242 0.0
C1598 C 0.98304 0.04008 0.76439 0.0
C1599 C 0.97893 0.02128 0.73423 0.0
C1600 C 0.96165 0.02899 0.71724 0.0
C1601 C 0.01381 1.00793 0.76552 0.0
C1602 C 0.02681 0.98065 0.75091 0.0
C1603 C 0.00961 0.98817 0.73539 0.0
C1604 C 0.05825 0.94415 0.75193 0.0
C1605 C 0.0322 1.00332 0.78238 0.0
C1606 C 0.09058 0.96278 0.74544 0.0
C1607 C 0.12162 0.934 0.7495 0.0
C1608 C 0.12055 0.88651 0.76016 0.0
C1609 C 0.08783 0.86566 0.76555 0.0
C1610 C 0.05691 0.89415 0.76141 0.0
H1611 H 0.02338 0.03658 0.79134 0.0
H1612 H 0.02625 0.96154 0.78808 0.0
H1613 H 0.06116 1.00661 0.78083 0.0
H1614 H 0.09205 1.00141 0.73813 0.0
H1615 H 0.14655 0.95093 0.74521 0.0
H1616 H 0.61947 0.36187 0.7376 0.0
H1617 H 0.56485 0.40792 0.72851 0.0
H1618 H 0.57511 0.52795 0.76927 0.0
H1619 H 0.63002 0.48373 0.77786 0.0
H1620 H 0.50638 0.41241 0.74653 0.0
H1621 H 0.54491 0.63119 0.73213 0.0
H1622 H 0.57685 0.57492 0.73379 0.0
H1623 H 0.5621 0.6121 0.7524 0.0
C1624 C 0.61052 0.399 0.74427 0.0
C1625 C 0.62881 0.41878 0.75852 0.0
C1626 C 0.57927 0.42518 0.73912 0.0
C1627 C 0.56607 0.47192 0.74806 0.0
C1628 C 0.58511 0.49292 0.76189 0.0
H1629 H 0.36909 0.56009 0.78369 0.0
H1630 H 0.42367 0.51603 0.77458 0.0
C1631 C 0.61626 0.46697 0.76697 0.0
C1632 C 0.53047 0.49468 0.74453 0.0
H1633 H 0.48511 0.61898 0.74338 0.0
C1634 C 0.50174 0.45748 0.74538 0.0
C1635 C 0.52423 0.55328 0.74259 0.0
C1636 C 0.55378 0.59495 0.73998 0.0
C1637 C 0.46711 0.47781 0.74596 0.0
C1638 C 0.46118 0.53684 0.74613 0.0
C1639 C 0.48965 0.57372 0.74364 0.0
C1640 C 0.42661 0.56121 0.75083 0.0
C1641 C 0.43731 0.43579 0.74692 0.0
C1642 C 0.41039 0.60235 0.74072 0.0
C1643 C 0.37941 0.62871 0.74612 0.0
C1644 C 0.3643 0.61489 0.76181 0.0
C1645 C 0.3803 0.57274 0.7717 0.0
C1646 C 0.41124 0.54664 0.76635 0.0
H1647 H 0.44419 0.39602 0.74022 0.0
H1648 H 0.43233 0.42492 0.76034 0.0
H1649 H 0.41273 0.4531 0.74138 0.0
H1650 H 0.42196 0.61462 0.72876 0.0
H1651 H 0.36786 0.66087 0.73822 0.0
H1652 H 0.61937 0.85609 0.24193 0.0
H1653 H 0.56385 0.9013 0.23354 0.0
H1654 H 0.58826 0.04391 0.26542 0.0
H1655 H 0.64366 0.99927 0.27359 0.0
H1656 H 0.51169 0.92718 0.25695 0.0
H1657 H 0.55143 0.12033 0.22266 0.0
H1658 H 0.58071 0.06094 0.22562 0.0
H1659 H 0.57484 0.11223 0.24219 0.0
C1660 C 0.61324 0.89776 0.24671 0.0
C1661 C 0.63566 0.92424 0.25838 0.0
C1662 C 0.58154 0.92343 0.24198 0.0
C1663 C 0.57216 0.97632 0.24867 0.0
C1664 C 0.59529 1.0037 0.25981 0.0
H1665 H 0.40676 0.18825 0.27574 0.0
H1666 H 0.46141 0.14231 0.26714 0.0
C1667 C 0.62674 0.97794 0.2646 0.0
C1668 C 0.53656 1.00005 0.24591 0.0
H1669 H 0.49409 0.12274 0.23601 0.0
C1670 C 0.50759 0.96938 0.25197 0.0
C1671 C 0.53139 0.05508 0.23942 0.0
C1672 C 0.56124 0.08883 0.23195 0.0
C1673 C 0.47403 0.9939 0.25294 0.0
C1674 C 0.46926 0.05024 0.24736 0.0
C1675 C 0.49781 0.07964 0.24033 0.0
C1676 C 0.43617 0.08145 0.25072 0.0
C1677 C 0.44458 0.9607 0.26104 0.0
C1678 C 0.4039 0.06358 0.24393 0.0
C1679 C 0.37248 0.0894 0.249 0.0
C1680 C 0.37294 0.13364 0.26089 0.0
C1681 C 0.40551 0.15346 0.26686 0.0
C1682 C 0.43677 0.1276 0.26184 0.0
H1683 H 0.45422 0.92167 0.26732 0.0
H1684 H 0.43059 0.98688 0.27055 0.0
H1685 H 0.42531 0.94814 0.25121 0.0
H1686 H 0.40293 0.02866 0.23509 0.0
H1687 H 0.34781 0.07321 0.24415 0.0
loop_
_geom_bond_atom_site_label_1
_geom_bond_atom_site_label_2
_geom_bond_distance
_geom_bond_site_symmetry_2
_ccdc_geom_bond_type
C0 O1 1.201 . S
C0 C2 1.493 . S
C0 N17 1.318 1_455 S
O1 C0 1.201 . S
C2 C0 1.493 . S
C2 C3 1.381 . S
C2 N7 1.335 1_554 S
C3 C2 1.381 . S
C3 C4 1.411 1_554 S
C3 H49 0.931 . S
C4 C3 1.411 1_556 S
C4 C5 1.384 . S
C4 H50 0.930 . S
C5 C4 1.384 . S
C5 C6 1.376 . S
C5 H51 0.929 . S
C6 C5 1.376 . S
C6 N7 1.330 . S
C6 C21 1.484 1_565 S
N7 C2 1.335 1_556 S
N7 C6 1.330 . S
N7 Co9 1.859 1_565 S
N8 Co9 1.962 1_554 S
N8 C19 1.318 1_455 S
N8 C43 1.421 . S
Co9 N7 1.859 1_545 S
Co9 N8 1.962 1_556 S
Co9 N10 1.859 1_455 S
Co9 N16 1.958 1_445 S
Co9 N17 1.962 1_446 S
Co9 N18 1.958 . S
N10 Co9 1.859 1_655 S
N10 C14 1.330 . S
N10 C15 1.335 1_556 S
C11 C12 1.411 1_554 S
C11 C15 1.381 . S
C11 H52 0.931 . S
C12 C11 1.411 1_556 S
C12 C13 1.384 . S
C12 H53 0.930 . S
C13 C12 1.384 . S
C13 C14 1.376 . S
C13 H54 0.929 . S
C14 N10 1.330 . S
C14 C13 1.376 . S
C14 C29 1.484 1_545 S
C15 N10 1.335 1_554 S
C15 C11 1.381 . S
C15 C19 1.493 . S
N16 Co9 1.958 1_665 S
N16 C29 1.344 . S
N16 C31 1.433 . S
N17 C0 1.318 1_655 S
N17 Co9 1.962 1_664 S
N17 C37 1.421 . S
N18 Co9 1.958 . S
N18 C21 1.344 . S
N18 C23 1.437 . S
C19 N8 1.318 1_655 S
C19 C15 1.493 . S
C19 O20 1.201 . S
O20 C19 1.201 . S
C21 C6 1.484 1_545 S
C21 N18 1.344 . S
C21 O22 1.268 . S
O22 C21 1.268 . S
C23 N18 1.437 . S
C23 C25 1.395 . S
C23 C26 1.351 1_455 S
C24 C25 1.382 1_655 S
C24 C28 1.386 . S
C25 C23 1.395 . S
C25 C24 1.382 1_455 S
C25 H55 0.928 . S
C26 C23 1.351 1_655 S
C26 C27 1.367 . S
C26 H56 0.930 . S
C27 C26 1.367 . S
C27 C28 1.369 . S
C28 C24 1.386 . S
C28 C27 1.369 . S
C28 H57 0.930 . S
C29 C14 1.484 1_565 S
C29 N16 1.344 . S
C29 O30 1.268 . S
O30 C29 1.268 . S
C31 N16 1.433 . S
C31 C32 1.356 1_655 S
C31 C36 1.394 . S
C32 C31 1.356 1_455 S
C32 C33 1.367 . S
C32 H58 0.930 . S
C33 C32 1.367 . S
C33 C34 1.369 . S
C34 C33 1.369 . S
C34 C35 1.386 . S
C34 H59 0.930 . S
C35 C34 1.386 . S
C35 C36 1.382 1_455 S
C36 C31 1.394 . S
C36 C35 1.382 1_655 S
C36 H60 0.928 . S
C37 N17 1.421 . S
C37 C38 1.371 . S
C37 C42 1.385 . S
C38 C37 1.371 . S
C38 C39 1.367 . S
C38 H61 0.931 . S
C39 C38 1.367 . S
C39 C40 1.401 . S
C40 C39 1.401 . S
C40 C41 1.385 . S
C40 H62 0.930 . S
C41 C40 1.385 . S
C41 C42 1.402 . S
C42 C37 1.385 . S
C42 C41 1.402 . S
C42 H63 0.929 . S
C43 N8 1.421 . S
C43 C46 1.385 . S
C43 C47 1.371 . S
C44 C45 1.385 . S
C44 C48 1.401 . S
C44 H64 0.930 . S
C45 C44 1.385 . S
C45 C46 1.402 . S
C46 C43 1.385 . S
C46 C45 1.402 . S
C46 H65 0.929 . S
C47 C43 1.371 . S
C47 C48 1.367 . S
C47 H66 0.931 . S
C48 C44 1.401 . S
C48 C47 1.367 . S
H49 C3 0.931 . S
H50 C4 0.930 . S
H51 C5 0.929 . S
H52 C11 0.931 . S
H53 C12 0.930 . S
H54 C13 0.929 . S
H55 C25 0.928 . S
H56 C26 0.930 . S
H57 C28 0.930 . S
H58 C32 0.930 . S
H59 C34 0.930 . S
H60 C36 0.928 . S
H61 C38 0.931 . S
H62 C40 0.930 . S
H63 C42 0.929 . S
H64 C44 0.930 . S
H65 C46 0.929 . S
H66 C47 0.931 . S
C67 O68 1.201 . S
C67 C69 1.493 . S
C67 N84 1.318 . S
O68 C67 1.201 . S
C69 C67 1.493 . S
C69 C70 1.381 . S
C69 N74 1.335 . S
C70 C69 1.381 . S
C70 C71 1.411 . S
C70 H116 0.931 . S
C71 C70 1.411 . S
C71 C72 1.384 . S
C71 H117 0.930 . S
C72 C71 1.384 . S
C72 C73 1.376 . S
C72 H118 0.929 . S
C73 C72 1.376 . S
C73 N74 1.330 . S
C73 C88 1.484 . S
N74 C69 1.335 . S
N74 C73 1.330 . S
N74 Co76 1.859 . S
N75 Co76 1.962 . S
N75 C86 1.318 . S
N75 C110 1.421 . S
Co76 N74 1.859 . S
Co76 N75 1.962 . S
Co76 N77 1.859 . S
Co76 N83 1.958 . S
Co76 N84 1.962 . S
Co76 N85 1.958 . S
N77 Co76 1.859 . S
N77 C81 1.330 . S
N77 C82 1.335 . S
C78 C79 1.411 . S
C78 C82 1.381 . S
C78 H119 0.931 . S
C79 C78 1.411 . S
C79 C80 1.384 . S
C79 H120 0.930 . S
C80 C79 1.384 . S
C80 C81 1.376 . S
C80 H121 0.929 . S
C81 N77 1.330 . S
C81 C80 1.376 . S
C81 C96 1.484 . S
C82 N77 1.335 . S
C82 C78 1.381 . S
C82 C86 1.493 . S
N83 Co76 1.958 . S
N83 C96 1.344 . S
N83 C98 1.425 . S
N84 C67 1.318 . S
N84 Co76 1.962 . S
N84 C104 1.421 . S
N85 Co76 1.958 . S
N85 C88 1.344 . S
N85 C90 1.425 . S
C86 N75 1.318 . S
C86 C82 1.493 . S
C86 O87 1.201 . S
O87 C86 1.201 . S
C88 C73 1.484 . S
C88 N85 1.344 . S
C88 O89 1.268 . S
O89 C88 1.268 . S
C90 N85 1.425 . S
C90 C92 1.392 . S
C90 C93 1.368 . S
C91 C92 1.382 . S
C91 C95 1.386 . S
C92 C90 1.392 . S
C92 C91 1.382 . S
C92 H122 0.928 . S
C93 C90 1.368 . S
C93 C94 1.367 . S
C93 H123 0.930 . S
C94 C93 1.367 . S
C94 C95 1.369 . S
C95 C91 1.386 . S
C95 C94 1.369 . S
C95 H124 0.930 . S
C96 C81 1.484 . S
C96 N83 1.344 . S
C96 O97 1.268 . S
O97 C96 1.268 . S
C98 N83 1.425 . S
C98 C99 1.368 . S
C98 C103 1.392 . S
C99 C98 1.368 . S
C99 C100 1.367 . S
C99 H125 0.930 . S
C100 C99 1.367 . S
C100 C101 1.369 . S
C101 C100 1.369 . S
C101 C102 1.386 . S
C101 H126 0.930 . S
C102 C101 1.386 . S
C102 C103 1.382 . S
C103 C98 1.392 . S
C103 C102 1.382 . S
C103 H127 0.928 . S
C104 N84 1.421 . S
C104 C105 1.371 . S
C104 C109 1.385 . S
C105 C104 1.371 . S
C105 C106 1.367 . S
C105 H128 0.931 . S
C106 C105 1.367 . S
C106 C107 1.401 . S
C107 C106 1.401 . S
C107 C108 1.385 . S
C107 H129 0.930 . S
C108 C107 1.385 . S
C108 C109 1.402 . S
C109 C104 1.385 . S
C109 C108 1.402 . S
C109 H130 0.929 . S
C110 N75 1.421 . S
C110 C113 1.385 . S
C110 C114 1.371 . S
C111 C112 1.385 . S
C111 C115 1.401 . S
C111 H131 0.930 . S
C112 C111 1.385 . S
C112 C113 1.402 . S
C113 C110 1.385 . S
C113 C112 1.402 . S
C113 H132 0.929 . S
C114 C110 1.371 . S
C114 C115 1.367 . S
C114 H133 0.931 . S
C115 C111 1.401 . S
C115 C114 1.367 . S
H116 C70 0.931 . S
H117 C71 0.930 . S
H118 C72 0.929 . S
H119 C78 0.931 . S
H120 C79 0.930 . S
H121 C80 0.929 . S
H122 C92 0.928 . S
H123 C93 0.930 . S
H124 C95 0.930 . S
H125 C99 0.930 . S
H126 C101 0.930 . S
H127 C103 0.928 . S
H128 C105 0.931 . S
H129 C107 0.930 . S
H130 C109 0.929 . S
H131 C111 0.930 . S
H132 C113 0.929 . S
H133 C114 0.931 . S
C134 O135 1.201 . S
C134 C136 1.493 . S
C134 N151 1.318 . S
O135 C134 1.201 . S
C136 C134 1.493 . S
C136 C137 1.381 . S
C136 N141 1.335 . S
C137 C136 1.381 . S
C137 C138 1.411 . S
C137 H183 0.931 . S
C138 C137 1.411 . S
C138 C139 1.384 . S
C138 H184 0.930 . S
C139 C138 1.384 . S
C139 C140 1.376 . S
C139 H185 0.929 . S
C140 C139 1.376 . S
C140 N141 1.330 . S
C140 C155 1.484 . S
N141 C136 1.335 . S
N141 C140 1.330 . S
N141 Co143 1.859 . S
N142 Co143 1.962 . S
N142 C153 1.318 . S
N142 C177 1.421 . S
Co143 N141 1.859 . S
Co143 N142 1.962 . S
Co143 N144 1.859 . S
Co143 N150 1.958 . S
Co143 N151 1.962 . S
Co143 N152 1.958 . S
N144 Co143 1.859 . S
N144 C148 1.330 . S
N144 C149 1.335 . S
C145 C146 1.411 . S
C145 C149 1.381 . S
C145 H186 0.931 . S
C146 C145 1.411 . S
C146 C147 1.384 . S
C146 H187 0.930 . S
C147 C146 1.384 . S
C147 C148 1.376 . S
C147 H188 0.929 . S
C148 N144 1.330 . S
C148 C147 1.376 . S
C148 C163 1.484 . S
C149 N144 1.335 . S
C149 C145 1.381 . S
C149 C153 1.493 . S
N150 Co143 1.958 . S
N150 C163 1.344 . S
N150 C165 1.425 . S
N151 C134 1.318 . S
N151 Co143 1.962 . S
N151 C171 1.421 . S
N152 Co143 1.958 . S
N152 C155 1.344 . S
N152 C157 1.425 . S
C153 N142 1.318 . S
C153 C149 1.493 . S
C153 O154 1.201 . S
O154 C153 1.201 . S
C155 C140 1.484 . S
C155 N152 1.344 . S
C155 O156 1.268 . S
O156 C155 1.268 . S
C157 N152 1.425 . S
C157 C159 1.392 . S
C157 C160 1.368 . S
C158 C159 1.382 . S
C158 C162 1.386 . S
C159 C157 1.392 . S
C159 C158 1.382 . S
C159 H189 0.928 . S
C160 C157 1.368 . S
C160 C161 1.367 . S
C160 H190 0.930 . S
C161 C160 1.367 . S
C161 C162 1.369 . S
C162 C158 1.386 . S
C162 C161 1.369 . S
C162 H191 0.930 . S
C163 C148 1.484 . S
C163 N150 1.344 . S
C163 O164 1.268 . S
O164 C163 1.268 . S
C165 N150 1.425 . S
C165 C166 1.368 . S
C165 C170 1.392 . S
C166 C165 1.368 . S
C166 C167 1.367 . S
C166 H192 0.930 . S
C167 C166 1.367 . S
C167 C168 1.369 . S
C168 C167 1.369 . S
C168 C169 1.386 . S
C168 H193 0.930 . S
C169 C168 1.386 . S
C169 C170 1.382 . S
C170 C165 1.392 . S
C170 C169 1.382 . S
C170 H194 0.928 . S
C171 N151 1.421 . S
C171 C172 1.371 . S
C171 C176 1.385 . S
C172 C171 1.371 . S
C172 C173 1.367 . S
C172 H195 0.931 . S
C173 C172 1.367 . S
C173 C174 1.401 . S
C174 C173 1.401 . S
C174 C175 1.385 . S
C174 H196 0.930 . S
C175 C174 1.385 . S
C175 C176 1.402 . S
C176 C171 1.385 . S
C176 C175 1.402 . S
C176 H197 0.929 . S
C177 N142 1.421 . S
C177 C180 1.385 . S
C177 C181 1.371 . S
C178 C179 1.385 . S
C178 C182 1.401 . S
C178 H198 0.930 . S
C179 C178 1.385 . S
C179 C180 1.402 . S
C180 C177 1.385 . S
C180 C179 1.402 . S
C180 H199 0.929 . S
C181 C177 1.371 . S
C181 C182 1.367 . S
C181 H200 0.931 . S
C182 C178 1.401 . S
C182 C181 1.367 . S
H183 C137 0.931 . S
H184 C138 0.930 . S
H185 C139 0.929 . S
H186 C145 0.931 . S
H187 C146 0.930 . S
H188 C147 0.929 . S
H189 C159 0.928 . S
H190 C160 0.930 . S
H191 C162 0.930 . S
H192 C166 0.930 . S
H193 C168 0.930 . S
H194 C170 0.928 . S
H195 C172 0.931 . S
H196 C174 0.930 . S
H197 C176 0.929 . S
H198 C178 0.930 . S
H199 C180 0.929 . S
H200 C181 0.931 . S
C201 O202 1.201 . S
C201 C203 1.493 . S
C201 N218 1.318 1_455 S
O202 C201 1.201 . S
C203 C201 1.493 . S
C203 C204 1.381 . S
C203 N208 1.335 . S
C204 C203 1.381 . S
C204 C205 1.411 . S
C204 H250 0.931 . S
C205 C204 1.411 . S
C205 C206 1.384 . S
C205 H251 0.930 . S
C206 C205 1.384 . S
C206 C207 1.376 . S
C206 H252 0.929 . S
C207 C206 1.376 . S
C207 N208 1.330 . S
C207 C222 1.484 . S
N208 C203 1.335 . S
N208 C207 1.330 . S
N208 Co210 1.859 . S
N209 Co210 1.962 . S
N209 C220 1.318 1_455 S
N209 C244 1.421 . S
Co210 N208 1.859 . S
Co210 N209 1.962 . S
Co210 N211 1.859 1_455 S
Co210 N217 1.958 1_455 S
Co210 N218 1.962 1_455 S
Co210 N219 1.958 . S
N211 Co210 1.859 1_655 S
N211 C215 1.330 . S
N211 C216 1.335 . S
C212 C213 1.411 . S
C212 C216 1.381 . S
C212 H253 0.931 . S
C213 C212 1.411 . S
C213 C214 1.384 . S
C213 H254 0.930 . S
C214 C213 1.384 . S
C214 C215 1.376 . S
C214 H255 0.929 . S
C215 N211 1.330 . S
C215 C214 1.376 . S
C215 C230 1.484 . S
C216 N211 1.335 . S
C216 C212 1.381 . S
C216 C220 1.493 . S
N217 Co210 1.958 1_655 S
N217 C230 1.344 . S
N217 C232 1.433 . S
N218 C201 1.318 1_655 S
N218 Co210 1.962 1_655 S
N218 C238 1.421 . S
N219 Co210 1.958 . S
N219 C222 1.344 . S
N219 C224 1.437 . S
C220 N209 1.318 1_655 S
C220 C216 1.493 . S
C220 O221 1.201 . S
O221 C220 1.201 . S
C222 C207 1.484 . S
C222 N219 1.344 . S
C222 O223 1.268 . S
O223 C222 1.268 . S
C224 N219 1.437 . S
C224 C226 1.395 . S
C224 C227 1.351 1_455 S
C225 C226 1.382 1_655 S
C225 C229 1.386 . S
C226 C224 1.395 . S
C226 C225 1.382 1_455 S
C226 H256 0.928 . S
C227 C224 1.351 1_655 S
C227 C228 1.367 . S
C227 H257 0.930 . S
C228 C227 1.367 . S
C228 C229 1.369 . S
C229 C225 1.386 . S
C229 C228 1.369 . S
C229 H258 0.930 . S
C230 C215 1.484 . S
C230 N217 1.344 . S
C230 O231 1.268 . S
O231 C230 1.268 . S
C232 N217 1.433 . S
C232 C233 1.356 1_655 S
C232 C237 1.394 . S
C233 C232 1.356 1_455 S
C233 C234 1.367 . S
C233 H259 0.930 . S
C234 C233 1.367 . S
C234 C235 1.369 . S
C235 C234 1.369 . S
C235 C236 1.386 . S
C235 H260 0.930 . S
C236 C235 1.386 . S
C236 C237 1.382 1_455 S
C237 C232 1.394 . S
C237 C236 1.382 1_655 S
C237 H261 0.928 . S
C238 N218 1.421 . S
C238 C239 1.371 . S
C238 C243 1.385 . S
C239 C238 1.371 . S
C239 C240 1.367 . S
C239 H262 0.931 . S
C240 C239 1.367 . S
C240 C241 1.401 . S
C241 C240 1.401 . S
C241 C242 1.385 . S
C241 H263 0.930 . S
C242 C241 1.385 . S
C242 C243 1.402 . S
C243 C238 1.385 . S
C243 C242 1.402 . S
C243 H264 0.929 . S
C244 N209 1.421 . S
C244 C247 1.385 . S
C244 C248 1.371 . S
C245 C246 1.385 . S
C245 C249 1.401 . S
C245 H265 0.930 . S
C246 C245 1.385 . S
C246 C247 1.402 . S
C247 C244 1.385 . S
C247 C246 1.402 . S
C247 H266 0.929 . S
C248 C244 1.371 . S
C248 C249 1.367 . S
C248 H267 0.931 . S
C249 C245 1.401 . S
C249 C248 1.367 . S
H250 C204 0.931 . S
H251 C205 0.930 . S
H252 C206 0.929 . S
H253 C212 0.931 . S
H254 C213 0.930 . S
H255 C214 0.929 . S
H256 C226 0.928 . S
H257 C227 0.930 . S
H258 C229 0.930 . S
H259 C233 0.930 . S
H260 C235 0.930 . S
H261 C237 0.928 . S
H262 C239 0.931 . S
H263 C241 0.930 . S
H264 C243 0.929 . S
H265 C245 0.930 . S
H266 C247 0.929 . S
H267 C248 0.931 . S
C268 O269 1.201 . S
C268 C270 1.493 . S
C268 N285 1.318 . S
O269 C268 1.201 . S
C270 C268 1.493 . S
C270 C271 1.381 . S
C270 N275 1.335 . S
C271 C270 1.381 . S
C271 C272 1.411 . S
C271 H317 0.931 . S
C272 C271 1.411 . S
C272 C273 1.384 . S
C272 H318 0.930 . S
C273 C272 1.384 . S
C273 C274 1.376 . S
C273 H319 0.929 . S
C274 C273 1.376 . S
C274 N275 1.330 . S
C274 C289 1.484 . S
N275 C270 1.335 . S
N275 C274 1.330 . S
N275 Co277 1.859 . S
N276 Co277 1.962 . S
N276 C287 1.318 . S
N276 C311 1.421 . S
Co277 N275 1.859 . S
Co277 N276 1.962 . S
Co277 N278 1.859 . S
Co277 N284 1.958 . S
Co277 N285 1.962 . S
Co277 N286 1.958 . S
N278 Co277 1.859 . S
N278 C282 1.330 . S
N278 C283 1.335 . S
C279 C280 1.411 . S
C279 C283 1.381 . S
C279 H320 0.931 . S
C280 C279 1.411 . S
C280 C281 1.384 . S
C280 H321 0.930 . S
C281 C280 1.384 . S
C281 C282 1.376 . S
C281 H322 0.929 . S
C282 N278 1.330 . S
C282 C281 1.376 . S
C282 C297 1.484 . S
C283 N278 1.335 . S
C283 C279 1.381 . S
C283 C287 1.493 . S
N284 Co277 1.958 . S
N284 C297 1.344 . S
N284 C299 1.425 . S
N285 C268 1.318 . S
N285 Co277 1.962 . S
N285 C305 1.421 . S
N286 Co277 1.958 . S
N286 C289 1.344 . S
N286 C291 1.425 . S
C287 N276 1.318 . S
C287 C283 1.493 . S
C287 O288 1.201 . S
O288 C287 1.201 . S
C289 C274 1.484 . S
C289 N286 1.344 . S
C289 O290 1.268 . S
O290 C289 1.268 . S
C291 N286 1.425 . S
C291 C293 1.392 . S
C291 C294 1.368 . S
C292 C293 1.382 . S
C292 C296 1.386 . S
C293 C291 1.392 . S
C293 C292 1.382 . S
C293 H323 0.928 . S
C294 C291 1.368 . S
C294 C295 1.367 . S
C294 H324 0.930 . S
C295 C294 1.367 . S
C295 C296 1.369 . S
C296 C292 1.386 . S
C296 C295 1.369 . S
C296 H325 0.930 . S
C297 C282 1.484 . S
C297 N284 1.344 . S
C297 O298 1.268 . S
O298 C297 1.268 . S
C299 N284 1.425 . S
C299 C300 1.368 . S
C299 C304 1.392 . S
C300 C299 1.368 . S
C300 C301 1.367 . S
C300 H326 0.930 . S
C301 C300 1.367 . S
C301 C302 1.369 . S
C302 C301 1.369 . S
C302 C303 1.386 . S
C302 H327 0.930 . S
C303 C302 1.386 . S
C303 C304 1.382 . S
C304 C299 1.392 . S
C304 C303 1.382 . S
C304 H328 0.928 . S
C305 N285 1.421 . S
C305 C306 1.371 . S
C305 C310 1.385 . S
C306 C305 1.371 . S
C306 C307 1.367 . S
C306 H329 0.931 . S
C307 C306 1.367 . S
C307 C308 1.401 . S
C308 C307 1.401 . S
C308 C309 1.385 . S
C308 H330 0.930 . S
C309 C308 1.385 . S
C309 C310 1.402 . S
C310 C305 1.385 . S
C310 C309 1.402 . S
C310 H331 0.929 . S
C311 N276 1.421 . S
C311 C314 1.385 . S
C311 C315 1.371 . S
C312 C313 1.385 . S
C312 C316 1.401 . S
C312 H332 0.930 . S
C313 C312 1.385 . S
C313 C314 1.402 . S
C314 C311 1.385 . S
C314 C313 1.402 . S
C314 H333 0.929 . S
C315 C311 1.371 . S
C315 C316 1.367 . S
C315 H334 0.931 . S
C316 C312 1.401 . S
C316 C315 1.367 . S
H317 C271 0.931 . S
H318 C272 0.930 . S
H319 C273 0.929 . S
H320 C279 0.931 . S
H321 C280 0.930 . S
H322 C281 0.929 . S
H323 C293 0.928 . S
H324 C294 0.930 . S
H325 C296 0.930 . S
H326 C300 0.930 . S
H327 C302 0.930 . S
H328 C304 0.928 . S
H329 C306 0.931 . S
H330 C308 0.930 . S
H331 C310 0.929 . S
H332 C312 0.930 . S
H333 C314 0.929 . S
H334 C315 0.931 . S
C335 O336 1.201 . S
C335 C337 1.493 . S
C335 N352 1.318 . S
O336 C335 1.201 . S
C337 C335 1.493 . S
C337 C338 1.381 . S
C337 N342 1.335 . S
C338 C337 1.381 . S
C338 C339 1.411 . S
C338 H384 0.931 . S
C339 C338 1.411 . S
C339 C340 1.384 . S
C339 H385 0.930 . S
C340 C339 1.384 . S
C340 C341 1.376 . S
C340 H386 0.929 . S
C341 C340 1.376 . S
C341 N342 1.330 . S
C341 C356 1.484 . S
N342 C337 1.335 . S
N342 C341 1.330 . S
N342 Co344 1.859 . S
N343 Co344 1.962 . S
N343 C354 1.318 . S
N343 C378 1.421 . S
Co344 N342 1.859 . S
Co344 N343 1.962 . S
Co344 N345 1.859 . S
Co344 N351 1.958 . S
Co344 N352 1.962 . S
Co344 N353 1.958 . S
N345 Co344 1.859 . S
N345 C349 1.330 . S
N345 C350 1.335 . S
C346 C347 1.411 . S
C346 C350 1.381 . S
C346 H387 0.931 . S
C347 C346 1.411 . S
C347 C348 1.384 . S
C347 H388 0.930 . S
C348 C347 1.384 . S
C348 C349 1.376 . S
C348 H389 0.929 . S
C349 N345 1.330 . S
C349 C348 1.376 . S
C349 C364 1.484 . S
C350 N345 1.335 . S
C350 C346 1.381 . S
C350 C354 1.493 . S
N351 Co344 1.958 . S
N351 C364 1.344 . S
N351 C366 1.425 . S
N352 C335 1.318 . S
N352 Co344 1.962 . S
N352 C372 1.421 . S
N353 Co344 1.958 . S
N353 C356 1.344 . S
N353 C358 1.425 . S
C354 N343 1.318 . S
C354 C350 1.493 . S
C354 O355 1.201 . S
O355 C354 1.201 . S
C356 C341 1.484 . S
C356 N353 1.344 . S
C356 O357 1.268 . S
O357 C356 1.268 . S
C358 N353 1.425 . S
C358 C360 1.392 . S
C358 C361 1.368 . S
C359 C360 1.382 . S
C359 C363 1.386 . S
C360 C358 1.392 . S
C360 C359 1.382 . S
C360 H390 0.928 . S
C361 C358 1.368 . S
C361 C362 1.367 . S
C361 H391 0.930 . S
C362 C361 1.367 . S
C362 C363 1.369 . S
C363 C359 1.386 . S
C363 C362 1.369 . S
C363 H392 0.930 . S
C364 C349 1.484 . S
C364 N351 1.344 . S
C364 O365 1.268 . S
O365 C364 1.268 . S
C366 N351 1.425 . S
C366 C367 1.368 . S
C366 C371 1.392 . S
C367 C366 1.368 . S
C367 C368 1.367 . S
C367 H393 0.930 . S
C368 C367 1.367 . S
C368 C369 1.369 . S
C369 C368 1.369 . S
C369 C370 1.386 . S
C369 H394 0.930 . S
C370 C369 1.386 . S
C370 C371 1.382 . S
C371 C366 1.392 . S
C371 C370 1.382 . S
C371 H395 0.928 . S
C372 N352 1.421 . S
C372 C373 1.371 . S
C372 C377 1.385 . S
C373 C372 1.371 . S
C373 C374 1.367 . S
C373 H396 0.931 . S
C374 C373 1.367 . S
C374 C375 1.401 . S
C375 C374 1.401 . S
C375 C376 1.385 . S
C375 H397 0.930 . S
C376 C375 1.385 . S
C376 C377 1.402 . S
C377 C372 1.385 . S
C377 C376 1.402 . S
C377 H398 0.929 . S
C378 N343 1.421 . S
C378 C381 1.385 . S
C378 C382 1.371 . S
C379 C380 1.385 . S
C379 C383 1.401 . S
C379 H399 0.930 . S
C380 C379 1.385 . S
C380 C381 1.402 . S
C381 C378 1.385 . S
C381 C380 1.402 . S
C381 H400 0.929 . S
C382 C378 1.371 . S
C382 C383 1.367 . S
C382 H401 0.931 . S
C383 C379 1.401 . S
C383 C382 1.367 . S
H384 C338 0.931 . S
H385 C339 0.930 . S
H386 C340 0.929 . S
H387 C346 0.931 . S
H388 C347 0.930 . S
H389 C348 0.929 . S
H390 C360 0.928 . S
H391 C361 0.930 . S
H392 C363 0.930 . S
H393 C367 0.930 . S
H394 C369 0.930 . S
H395 C371 0.928 . S
H396 C373 0.931 . S
H397 C375 0.930 . S
H398 C377 0.929 . S
H399 C379 0.930 . S
H400 C381 0.929 . S
H401 C382 0.931 . S
C402 O403 1.201 . S
C402 C404 1.493 . S
C402 N419 1.318 . S
O403 C402 1.201 . S
C404 C402 1.493 . S
C404 C405 1.381 . S
C404 N409 1.335 . S
C405 C404 1.381 . S
C405 C406 1.411 . S
C405 H451 0.931 . S
C406 C405 1.411 . S
C406 C407 1.384 . S
C406 H452 0.930 . S
C407 C406 1.384 . S
C407 C408 1.376 . S
C407 H453 0.929 . S
C408 C407 1.376 . S
C408 N409 1.330 . S
C408 C423 1.484 1_565 S
N409 C404 1.335 . S
N409 C408 1.330 . S
N409 Co411 1.859 1_565 S
N410 Co411 1.962 . S
N410 C421 1.318 . S
N410 C445 1.421 . S
Co411 N409 1.859 1_545 S
Co411 N410 1.962 . S
Co411 N412 1.859 . S
Co411 N418 1.958 1_545 S
Co411 N419 1.962 1_545 S
Co411 N420 1.958 . S
N412 Co411 1.859 . S
N412 C416 1.330 . S
N412 C417 1.335 . S
C413 C414 1.411 . S
C413 C417 1.381 . S
C413 H454 0.931 . S
C414 C413 1.411 . S
C414 C415 1.384 . S
C414 H455 0.930 . S
C415 C414 1.384 . S
C415 C416 1.376 . S
C415 H456 0.929 . S
C416 N412 1.330 . S
C416 C415 1.376 . S
C416 C431 1.484 1_545 S
C417 N412 1.335 . S
C417 C413 1.381 . S
C417 C421 1.493 . S
N418 Co411 1.958 1_565 S
N418 C431 1.344 . S
N418 C433 1.425 . S
N419 C402 1.318 . S
N419 Co411 1.962 1_565 S
N419 C439 1.421 . S
N420 Co411 1.958 . S
N420 C423 1.344 . S
N420 C425 1.425 . S
C421 N410 1.318 . S
C421 C417 1.493 . S
C421 O422 1.201 . S
O422 C421 1.201 . S
C423 C408 1.484 1_545 S
C423 N420 1.344 . S
C423 O424 1.268 . S
O424 C423 1.268 . S
C425 N420 1.425 . S
C425 C427 1.392 . S
C425 C428 1.368 . S
C426 C427 1.382 . S
C426 C430 1.386 . S
C427 C425 1.392 . S
C427 C426 1.382 . S
C427 H457 0.928 . S
C428 C425 1.368 . S
C428 C429 1.367 . S
C428 H458 0.930 . S
C429 C428 1.367 . S
C429 C430 1.369 . S
C430 C426 1.386 . S
C430 C429 1.369 . S
C430 H459 0.930 . S
C431 C416 1.484 1_565 S
C431 N418 1.344 . S
C431 O432 1.268 . S
O432 C431 1.268 . S
C433 N418 1.425 . S
C433 C434 1.368 . S
C433 C438 1.392 . S
C434 C433 1.368 . S
C434 C435 1.367 . S
C434 H460 0.930 . S
C435 C434 1.367 . S
C435 C436 1.369 . S
C436 C435 1.369 . S
C436 C437 1.386 . S
C436 H461 0.930 . S
C437 C436 1.386 . S
C437 C438 1.382 . S
C438 C433 1.392 . S
C438 C437 1.382 . S
C438 H462 0.928 . S
C439 N419 1.421 . S
C439 C440 1.371 . S
C439 C444 1.385 . S
C440 C439 1.371 . S
C440 C441 1.367 . S
C440 H463 0.931 . S
C441 C440 1.367 . S
C441 C442 1.401 . S
C442 C441 1.401 . S
C442 C443 1.385 . S
C442 H464 0.930 . S
C443 C442 1.385 . S
C443 C444 1.402 . S
C444 C439 1.385 . S
C444 C443 1.402 . S
C444 H465 0.929 . S
C445 N410 1.421 . S
C445 C448 1.385 . S
C445 C449 1.371 . S
C446 C447 1.385 . S
C446 C450 1.401 . S
C446 H466 0.930 . S
C447 C446 1.385 . S
C447 C448 1.402 . S
C448 C445 1.385 . S
C448 C447 1.402 . S
C448 H467 0.929 . S
C449 C445 1.371 . S
C449 C450 1.367 . S
C449 H468 0.931 . S
C450 C446 1.401 . S
C450 C449 1.367 . S
H451 C405 0.931 . S
H452 C406 0.930 . S
H453 C407 0.929 . S
H454 C413 0.931 . S
H455 C414 0.930 . S
H456 C415 0.929 . S
H457 C427 0.928 . S
H458 C428 0.930 . S
H459 C430 0.930 . S
H460 C434 0.930 . S
H461 C436 0.930 . S
H462 C438 0.928 . S
H463 C440 0.931 . S
H464 C442 0.930 . S
H465 C444 0.929 . S
H466 C446 0.930 . S
H467 C448 0.929 . S
H468 C449 0.931 . S
C469 O470 1.201 . S
C469 C471 1.493 . S
C469 N486 1.318 . S
O470 C469 1.201 . S
C471 C469 1.493 . S
C471 C472 1.381 . S
C471 N476 1.335 1_554 S
C472 C471 1.381 . S
C472 C473 1.411 1_554 S
C472 H518 0.931 . S
C473 C472 1.411 1_556 S
C473 C474 1.384 . S
C473 H519 0.930 . S
C474 C473 1.384 . S
C474 C475 1.376 . S
C474 H520 0.929 . S
C475 C474 1.376 . S
C475 N476 1.330 . S
C475 C490 1.484 . S
N476 C471 1.335 1_556 S
N476 C475 1.330 . S
N476 Co478 1.859 . S
N477 Co478 1.962 1_554 S
N477 C488 1.318 . S
N477 C512 1.421 . S
Co478 N476 1.859 . S
Co478 N477 1.962 1_556 S
Co478 N479 1.859 . S
Co478 N485 1.958 . S
Co478 N486 1.962 1_556 S
Co478 N487 1.958 . S
N479 Co478 1.859 . S
N479 C483 1.330 . S
N479 C484 1.335 1_556 S
C480 C481 1.411 1_554 S
C480 C484 1.381 . S
C480 H521 0.931 . S
C481 C480 1.411 1_556 S
C481 C482 1.384 . S
C481 H522 0.930 . S
C482 C481 1.384 . S
C482 C483 1.376 . S
C482 H523 0.929 . S
C483 N479 1.330 . S
C483 C482 1.376 . S
C483 C498 1.484 . S
C484 N479 1.335 1_554 S
C484 C480 1.381 . S
C484 C488 1.493 . S
N485 Co478 1.958 . S
N485 C498 1.344 . S
N485 C500 1.425 . S
N486 C469 1.318 . S
N486 Co478 1.962 1_554 S
N486 C506 1.421 . S
N487 Co478 1.958 . S
N487 C490 1.344 . S
N487 C492 1.425 . S
C488 N477 1.318 . S
C488 C484 1.493 . S
C488 O489 1.201 . S
O489 C488 1.201 . S
C490 C475 1.484 . S
C490 N487 1.344 . S
C490 O491 1.268 . S
O491 C490 1.268 . S
C492 N487 1.425 . S
C492 C494 1.392 . S
C492 C495 1.368 . S
C493 C494 1.382 . S
C493 C497 1.386 . S
C494 C492 1.392 . S
C494 C493 1.382 . S
C494 H524 0.928 . S
C495 C492 1.368 . S
C495 C496 1.367 . S
C495 H525 0.930 . S
C496 C495 1.367 . S
C496 C497 1.369 . S
C497 C493 1.386 . S
C497 C496 1.369 . S
C497 H526 0.930 . S
C498 C483 1.484 . S
C498 N485 1.344 . S
C498 O499 1.268 . S
O499 C498 1.268 . S
C500 N485 1.425 . S
C500 C501 1.368 . S
C500 C505 1.392 . S
C501 C500 1.368 . S
C501 C502 1.367 . S
C501 H527 0.930 . S
C502 C501 1.367 . S
C502 C503 1.369 . S
C503 C502 1.369 . S
C503 C504 1.386 . S
C503 H528 0.930 . S
C504 C503 1.386 . S
C504 C505 1.382 . S
C505 C500 1.392 . S
C505 C504 1.382 . S
C505 H529 0.928 . S
C506 N486 1.421 . S
C506 C507 1.371 . S
C506 C511 1.385 . S
C507 C506 1.371 . S
C507 C508 1.367 . S
C507 H530 0.931 . S
C508 C507 1.367 . S
C508 C509 1.401 . S
C509 C508 1.401 . S
C509 C510 1.385 . S
C509 H531 0.930 . S
C510 C509 1.385 . S
C510 C511 1.402 . S
C511 C506 1.385 . S
C511 C510 1.402 . S
C511 H532 0.929 . S
C512 N477 1.421 . S
C512 C515 1.385 . S
C512 C516 1.371 . S
C513 C514 1.385 . S
C513 C517 1.401 . S
C513 H533 0.930 . S
C514 C513 1.385 . S
C514 C515 1.402 . S
C515 C512 1.385 . S
C515 C514 1.402 . S
C515 H534 0.929 . S
C516 C512 1.371 . S
C516 C517 1.367 . S
C516 H535 0.931 . S
C517 C513 1.401 . S
C517 C516 1.367 . S
H518 C472 0.931 . S
H519 C473 0.930 . S
H520 C474 0.929 . S
H521 C480 0.931 . S
H522 C481 0.930 . S
H523 C482 0.929 . S
H524 C494 0.928 . S
H525 C495 0.930 . S
H526 C497 0.930 . S
H527 C501 0.930 . S
H528 C503 0.930 . S
H529 C505 0.928 . S
H530 C507 0.931 . S
H531 C509 0.930 . S
H532 C511 0.929 . S
H533 C513 0.930 . S
H534 C515 0.929 . S
H535 C516 0.931 . S
H536 C544 0.929 1_565 S
H537 C546 0.930 1_565 S
H538 C548 0.930 . S
H539 C551 0.929 . S
H540 C554 0.930 . S
H541 C556 0.960 . S
H542 C556 0.960 . S
H543 C556 0.960 . S
C544 H536 0.929 1_545 S
C544 C545 1.377 . S
C544 C546 1.384 . S
C545 C544 1.377 . S
C545 C551 1.390 . S
C546 H537 0.930 1_545 S
C546 C544 1.384 . S
C546 C547 1.372 . S
C547 C546 1.372 . S
C547 C548 1.400 . S
C547 C552 1.490 . S
C548 H538 0.930 . S
C548 C547 1.400 . S
C548 C551 1.386 . S
H549 C565 0.930 . S
H550 C566 0.931 . S
C551 H539 0.929 . S
C551 C545 1.390 . S
C551 C548 1.386 . S
C552 C547 1.490 . S
C552 C554 1.395 . S
C552 C555 1.403 . S
H553 C559 0.930 . S
C554 H540 0.930 . S
C554 C552 1.395 . S
C554 C557 1.403 . S
C555 C552 1.403 . S
C555 C556 1.524 . S
C555 C559 1.400 . S
C556 H541 0.960 . S
C556 H542 0.960 . S
C556 H543 0.960 . S
C556 C555 1.524 . S
C557 C554 1.403 . S
C557 C558 1.392 . S
C557 C561 1.495 . S
C558 C557 1.392 . S
C558 C559 1.385 . S
C558 C560 1.478 . S
C559 H553 0.930 . S
C559 C555 1.400 . S
C559 C558 1.385 . S
C560 C558 1.478 . S
C560 C562 1.381 . S
C560 C566 1.383 . S
C561 C557 1.495 . S
C561 H567 0.959 . S
C561 H568 0.961 . S
C561 H569 0.960 . S
C562 C560 1.381 . S
C562 C563 1.394 . S
C562 H570 0.930 . S
C563 C562 1.394 . S
C563 C564 1.383 . S
C563 H571 0.929 . S
C564 C563 1.383 . S
C564 C565 1.377 . S
C565 H549 0.930 . S
C565 C564 1.377 . S
C565 C566 1.379 . S
C566 H550 0.931 . S
C566 C560 1.383 . S
C566 C565 1.379 . S
H567 C561 0.959 . S
H568 C561 0.961 . S
H569 C561 0.960 . S
H570 C562 0.930 . S
H571 C563 0.929 . S
H572 C580 0.929 . S
H573 C582 0.930 . S
H574 C584 0.930 1_545 S
H575 C587 0.929 1_545 S
H576 C590 0.930 . S
H577 C592 0.960 . S
H578 C592 0.960 . S
H579 C592 0.960 1_545 S
C580 H572 0.929 . S
C580 C581 1.377 . S
C580 C582 1.384 . S
C581 C580 1.377 . S
C581 C587 1.390 . S
C582 H573 0.930 . S
C582 C580 1.384 . S
C582 C583 1.372 . S
C583 C582 1.372 . S
C583 C584 1.400 . S
C583 C588 1.490 . S
C584 H574 0.930 1_565 S
C584 C583 1.400 . S
C584 C587 1.386 . S
H585 C601 0.930 . S
H586 C602 0.931 . S
C587 H575 0.929 1_565 S
C587 C581 1.390 . S
C587 C584 1.386 . S
C588 C583 1.490 . S
C588 C590 1.395 . S
C588 C591 1.403 . S
H589 C595 0.930 . S
C590 H576 0.930 . S
C590 C588 1.395 . S
C590 C593 1.403 . S
C591 C588 1.403 . S
C591 C592 1.524 . S
C591 C595 1.400 . S
C592 H577 0.960 . S
C592 H578 0.960 . S
C592 H579 0.960 1_565 S
C592 C591 1.524 . S
C593 C590 1.403 . S
C593 C594 1.392 . S
C593 C597 1.495 . S
C594 C593 1.392 . S
C594 C595 1.385 . S
C594 C596 1.478 . S
C595 H589 0.930 . S
C595 C591 1.400 . S
C595 C594 1.385 . S
C596 C594 1.478 . S
C596 C598 1.381 . S
C596 C602 1.383 . S
C597 C593 1.495 . S
C597 H603 0.959 . S
C597 H604 0.961 . S
C597 H605 0.960 . S
C598 C596 1.381 . S
C598 C599 1.394 . S
C598 H606 0.930 . S
C599 C598 1.394 . S
C599 C600 1.383 . S
C599 H607 0.929 . S
C600 C599 1.383 . S
C600 C601 1.377 . S
C601 H585 0.930 . S
C601 C600 1.377 . S
C601 C602 1.379 . S
C602 H586 0.931 . S
C602 C596 1.383 . S
C602 C601 1.379 . S
H603 C597 0.959 . S
H604 C597 0.961 . S
H605 C597 0.960 . S
H606 C598 0.930 . S
H607 C599 0.929 . S
H608 C616 0.929 . S
H609 C618 0.930 . S
H610 C620 0.930 . S
H611 C623 0.929 . S
H612 C626 0.930 . S
H613 C628 0.960 . S
H614 C628 0.960 . S
H615 C628 0.960 . S
C616 H608 0.929 . S
C616 C617 1.377 . S
C616 C618 1.384 . S
C617 C616 1.377 . S
C617 C623 1.390 . S
C618 H609 0.930 . S
C618 C616 1.384 . S
C618 C619 1.372 . S
C619 C618 1.372 . S
C619 C620 1.400 . S
C619 C624 1.490 . S
C620 H610 0.930 . S
C620 C619 1.400 . S
C620 C623 1.386 . S
H621 C637 0.930 . S
H622 C638 0.931 . S
C623 H611 0.929 . S
C623 C617 1.390 . S
C623 C620 1.386 . S
C624 C619 1.490 . S
C624 C626 1.395 . S
C624 C627 1.403 . S
H625 C631 0.930 . S
C626 H612 0.930 . S
C626 C624 1.395 . S
C626 C629 1.403 . S
C627 C624 1.403 . S
C627 C628 1.524 . S
C627 C631 1.400 . S
C628 H613 0.960 . S
C628 H614 0.960 . S
C628 H615 0.960 . S
C628 C627 1.524 . S
C629 C626 1.403 . S
C629 C630 1.392 . S
C629 C633 1.495 . S
C630 C629 1.392 . S
C630 C631 1.385 . S
C630 C632 1.478 . S
C631 H625 0.930 . S
C631 C627 1.400 . S
C631 C630 1.385 . S
C632 C630 1.478 . S
C632 C634 1.381 . S
C632 C638 1.383 . S
C633 C629 1.495 . S
C633 H639 0.959 . S
C633 H640 0.961 . S
C633 H641 0.960 . S
C634 C632 1.381 . S
C634 C635 1.394 . S
C634 H642 0.930 . S
C635 C634 1.394 . S
C635 C636 1.383 . S
C635 H643 0.929 . S
C636 C635 1.383 . S
C636 C637 1.377 . S
C637 H621 0.930 . S
C637 C636 1.377 . S
C637 C638 1.379 . S
C638 H622 0.931 . S
C638 C632 1.383 . S
C638 C637 1.379 . S
H639 C633 0.959 . S
H640 C633 0.961 . S
H641 C633 0.960 . S
H642 C634 0.930 . S
H643 C635 0.929 . S
H644 C652 0.929 . S
H645 C654 0.930 . S
H646 C656 0.930 . S
H647 C659 0.929 . S
H648 C662 0.930 . S
H649 C664 0.960 . S
H650 C664 0.960 . S
H651 C664 0.960 . S
C652 H644 0.929 . S
C652 C653 1.377 . S
C652 C654 1.384 . S
C653 C652 1.377 . S
C653 C659 1.390 . S
C654 H645 0.930 . S
C654 C652 1.384 . S
C654 C655 1.372 . S
C655 C654 1.372 . S
C655 C656 1.400 . S
C655 C660 1.490 . S
C656 H646 0.930 . S
C656 C655 1.400 . S
C656 C659 1.386 . S
H657 C673 0.930 . S
H658 C674 0.931 . S
C659 H647 0.929 . S
C659 C653 1.390 . S
C659 C656 1.386 . S
C660 C655 1.490 . S
C660 C662 1.395 . S
C660 C663 1.403 . S
H661 C667 0.930 . S
C662 H648 0.930 . S
C662 C660 1.395 . S
C662 C665 1.403 . S
C663 C660 1.403 . S
C663 C664 1.524 . S
C663 C667 1.400 . S
C664 H649 0.960 . S
C664 H650 0.960 . S
C664 H651 0.960 . S
C664 C663 1.524 . S
C665 C662 1.403 . S
C665 C666 1.392 . S
C665 C669 1.495 . S
C666 C665 1.392 . S
C666 C667 1.385 . S
C666 C668 1.478 . S
C667 H661 0.930 . S
C667 C663 1.400 . S
C667 C666 1.385 . S
C668 C666 1.478 . S
C668 C670 1.381 . S
C668 C674 1.383 . S
C669 C665 1.495 . S
C669 H675 0.959 . S
C669 H676 0.961 . S
C669 H677 0.960 . S
C670 C668 1.381 . S
C670 C671 1.394 . S
C670 H678 0.930 . S
C671 C670 1.394 . S
C671 C672 1.383 . S
C671 H679 0.929 . S
C672 C671 1.383 . S
C672 C673 1.377 . S
C673 H657 0.930 . S
C673 C672 1.377 . S
C673 C674 1.379 . S
C674 H658 0.931 . S
C674 C668 1.383 . S
C674 C673 1.379 . S
H675 C669 0.959 . S
H676 C669 0.961 . S
H677 C669 0.960 . S
H678 C670 0.930 . S
H679 C671 0.929 . S
H680 C688 0.929 . S
H681 C690 0.930 . S
H682 C692 0.930 . S
H683 C695 0.929 . S
H684 C698 0.930 . S
H685 C700 0.960 . S
H686 C700 0.960 . S
H687 C700 0.960 . S
C688 H680 0.929 . S
C688 C689 1.377 . S
C688 C690 1.384 . S
C689 C688 1.377 . S
C689 C695 1.390 . S
C690 H681 0.930 . S
C690 C688 1.384 . S
C690 C691 1.372 . S
C691 C690 1.372 . S
C691 C692 1.400 . S
C691 C696 1.490 . S
C692 H682 0.930 . S
C692 C691 1.400 . S
C692 C695 1.386 . S
H693 C709 0.930 . S
H694 C710 0.931 . S
C695 H683 0.929 . S
C695 C689 1.390 . S
C695 C692 1.386 . S
C696 C691 1.490 . S
C696 C698 1.395 . S
C696 C699 1.403 . S
H697 C703 0.930 . S
C698 H684 0.930 . S
C698 C696 1.395 . S
C698 C701 1.403 . S
C699 C696 1.403 . S
C699 C700 1.524 . S
C699 C703 1.400 . S
C700 H685 0.960 . S
C700 H686 0.960 . S
C700 H687 0.960 . S
C700 C699 1.524 . S
C701 C698 1.403 . S
C701 C702 1.392 . S
C701 C705 1.495 . S
C702 C701 1.392 . S
C702 C703 1.385 . S
C702 C704 1.478 . S
C703 H697 0.930 . S
C703 C699 1.400 . S
C703 C702 1.385 . S
C704 C702 1.478 . S
C704 C706 1.381 . S
C704 C710 1.383 . S
C705 C701 1.495 . S
C705 H711 0.959 . S
C705 H712 0.961 . S
C705 H713 0.960 . S
C706 C704 1.381 . S
C706 C707 1.394 . S
C706 H714 0.930 . S
C707 C706 1.394 . S
C707 C708 1.383 . S
C707 H715 0.929 . S
C708 C707 1.383 . S
C708 C709 1.377 . S
C709 H693 0.930 . S
C709 C708 1.377 . S
C709 C710 1.379 . S
C710 H694 0.931 . S
C710 C704 1.383 . S
C710 C709 1.379 . S
H711 C705 0.959 . S
H712 C705 0.961 . S
H713 C705 0.960 . S
H714 C706 0.930 . S
H715 C707 0.929 . S
H716 C724 0.929 . S
H717 C726 0.930 . S
H718 C728 0.930 . S
H719 C731 0.929 . S
H720 C734 0.930 . S
H721 C736 0.960 . S
H722 C736 0.960 . S
H723 C736 0.960 . S
C724 H716 0.929 . S
C724 C725 1.377 . S
C724 C726 1.384 . S
C725 C724 1.377 . S
C725 C731 1.390 . S
C726 H717 0.930 . S
C726 C724 1.384 . S
C726 C727 1.372 . S
C727 C726 1.372 . S
C727 C728 1.400 . S
C727 C732 1.490 . S
C728 H718 0.930 . S
C728 C727 1.400 . S
C728 C731 1.386 . S
H729 C745 0.930 . S
H730 C746 0.931 . S
C731 H719 0.929 . S
C731 C725 1.390 . S
C731 C728 1.386 . S
C732 C727 1.490 . S
C732 C734 1.395 . S
C732 C735 1.403 . S
H733 C739 0.930 . S
C734 H720 0.930 . S
C734 C732 1.395 . S
C734 C737 1.403 . S
C735 C732 1.403 . S
C735 C736 1.524 . S
C735 C739 1.400 . S
C736 H721 0.960 . S
C736 H722 0.960 . S
C736 H723 0.960 . S
C736 C735 1.524 . S
C737 C734 1.403 . S
C737 C738 1.392 . S
C737 C741 1.495 . S
C738 C737 1.392 . S
C738 C739 1.385 . S
C738 C740 1.478 . S
C739 H733 0.930 . S
C739 C735 1.400 . S
C739 C738 1.385 . S
C740 C738 1.478 . S
C740 C742 1.381 . S
C740 C746 1.383 . S
C741 C737 1.495 . S
C741 H747 0.959 . S
C741 H748 0.961 . S
C741 H749 0.960 . S
C742 C740 1.381 . S
C742 C743 1.394 . S
C742 H750 0.930 . S
C743 C742 1.394 . S
C743 C744 1.383 . S
C743 H751 0.929 . S
C744 C743 1.383 . S
C744 C745 1.377 . S
C745 H729 0.930 . S
C745 C744 1.377 . S
C745 C746 1.379 . S
C746 H730 0.931 . S
C746 C740 1.383 . S
C746 C745 1.379 . S
H747 C741 0.959 . S
H748 C741 0.961 . S
H749 C741 0.960 . S
H750 C742 0.930 . S
H751 C743 0.929 . S
H752 C760 0.929 . S
H753 C762 0.930 . S
H754 C764 0.930 . S
H755 C767 0.929 . S
H756 C770 0.930 . S
H757 C772 0.960 . S
H758 C772 0.960 . S
H759 C772 0.960 . S
C760 H752 0.929 . S
C760 C761 1.377 . S
C760 C762 1.384 . S
C761 C760 1.377 . S
C761 C767 1.390 . S
C762 H753 0.930 . S
C762 C760 1.384 . S
C762 C763 1.372 . S
C763 C762 1.372 . S
C763 C764 1.400 . S
C763 C768 1.490 . S
C764 H754 0.930 . S
C764 C763 1.400 . S
C764 C767 1.386 . S
H765 C781 0.930 . S
H766 C782 0.931 . S
C767 H755 0.929 . S
C767 C761 1.390 . S
C767 C764 1.386 . S
C768 C763 1.490 . S
C768 C770 1.395 . S
C768 C771 1.403 . S
H769 C775 0.930 . S
C770 H756 0.930 . S
C770 C768 1.395 . S
C770 C773 1.403 . S
C771 C768 1.403 . S
C771 C772 1.524 . S
C771 C775 1.400 . S
C772 H757 0.960 . S
C772 H758 0.960 . S
C772 H759 0.960 . S
C772 C771 1.524 . S
C773 C770 1.403 . S
C773 C774 1.392 . S
C773 C777 1.495 . S
C774 C773 1.392 . S
C774 C775 1.385 . S
C774 C776 1.478 . S
C775 H769 0.930 . S
C775 C771 1.400 . S
C775 C774 1.385 . S
C776 C774 1.478 . S
C776 C778 1.381 . S
C776 C782 1.383 . S
C777 C773 1.495 . S
C777 H783 0.959 . S
C777 H784 0.961 . S
C777 H785 0.960 . S
C778 C776 1.381 . S
C778 C779 1.394 . S
C778 H786 0.930 . S
C779 C778 1.394 . S
C779 C780 1.383 . S
C779 H787 0.929 . S
C780 C779 1.383 . S
C780 C781 1.377 . S
C781 H765 0.930 . S
C781 C780 1.377 . S
C781 C782 1.379 . S
C782 H766 0.931 . S
C782 C776 1.383 . S
C782 C781 1.379 . S
H783 C777 0.959 . S
H784 C777 0.961 . S
H785 C777 0.960 . S
H786 C778 0.930 . S
H787 C779 0.929 . S
H788 C796 0.929 . S
H789 C798 0.930 . S
H790 C800 0.930 . S
H791 C803 0.929 . S
H792 C806 0.930 . S
H793 C808 0.960 . S
H794 C808 0.960 . S
H795 C808 0.960 . S
C796 H788 0.929 . S
C796 C797 1.377 . S
C796 C798 1.384 . S
C797 C796 1.377 . S
C797 C803 1.390 . S
C798 H789 0.930 . S
C798 C796 1.384 . S
C798 C799 1.372 . S
C799 C798 1.372 . S
C799 C800 1.400 . S
C799 C804 1.490 . S
C800 H790 0.930 . S
C800 C799 1.400 . S
C800 C803 1.386 . S
H801 C817 0.930 . S
H802 C818 0.931 . S
C803 H791 0.929 . S
C803 C797 1.390 . S
C803 C800 1.386 . S
C804 C799 1.490 . S
C804 C806 1.395 . S
C804 C807 1.403 . S
H805 C811 0.930 . S
C806 H792 0.930 . S
C806 C804 1.395 . S
C806 C809 1.403 . S
C807 C804 1.403 . S
C807 C808 1.524 . S
C807 C811 1.400 . S
C808 H793 0.960 . S
C808 H794 0.960 . S
C808 H795 0.960 . S
C808 C807 1.524 . S
C809 C806 1.403 . S
C809 C810 1.392 . S
C809 C813 1.495 . S
C810 C809 1.392 . S
C810 C811 1.385 . S
C810 C812 1.478 . S
C811 H805 0.930 . S
C811 C807 1.400 . S
C811 C810 1.385 . S
C812 C810 1.478 . S
C812 C814 1.381 . S
C812 C818 1.383 . S
C813 C809 1.495 . S
C813 H819 0.959 . S
C813 H820 0.961 . S
C813 H821 0.960 . S
C814 C812 1.381 . S
C814 C815 1.394 . S
C814 H822 0.930 . S
C815 C814 1.394 . S
C815 C816 1.383 . S
C815 H823 0.929 . S
C816 C815 1.383 . S
C816 C817 1.377 . S
C817 H801 0.930 . S
C817 C816 1.377 . S
C817 C818 1.379 . S
C818 H802 0.931 . S
C818 C812 1.383 . S
C818 C817 1.379 . S
H819 C813 0.959 . S
H820 C813 0.961 . S
H821 C813 0.960 . S
H822 C814 0.930 . S
H823 C815 0.929 . S
H824 C832 0.929 . S
H825 C834 0.930 . S
H826 C836 0.930 . S
H827 C839 0.929 . S
H828 C842 0.930 . S
H829 C844 0.960 . S
H830 C844 0.960 . S
H831 C844 0.960 . S
C832 H824 0.929 . S
C832 C833 1.377 . S
C832 C834 1.384 . S
C833 C832 1.377 . S
C833 C839 1.390 . S
C834 H825 0.930 . S
C834 C832 1.384 . S
C834 C835 1.372 . S
C835 C834 1.372 . S
C835 C836 1.400 . S
C835 C840 1.490 . S
C836 H826 0.930 . S
C836 C835 1.400 . S
C836 C839 1.386 . S
H837 C853 0.930 . S
H838 C854 0.931 . S
C839 H827 0.929 . S
C839 C833 1.390 . S
C839 C836 1.386 . S
C840 C835 1.490 . S
C840 C842 1.395 . S
C840 C843 1.403 . S
H841 C847 0.930 . S
C842 H828 0.930 . S
C842 C840 1.395 . S
C842 C845 1.403 . S
C843 C840 1.403 . S
C843 C844 1.524 . S
C843 C847 1.400 . S
C844 H829 0.960 . S
C844 H830 0.960 . S
C844 H831 0.960 . S
C844 C843 1.524 . S
C845 C842 1.403 . S
C845 C846 1.392 . S
C845 C849 1.495 1_545 S
C846 C845 1.392 . S
C846 C847 1.385 . S
C846 C848 1.478 . S
C847 H841 0.930 . S
C847 C843 1.400 . S
C847 C846 1.385 . S
C848 C846 1.478 . S
C848 C850 1.381 . S
C848 C854 1.383 . S
C849 C845 1.495 1_565 S
C849 H855 0.959 . S
C849 H856 0.961 . S
C849 H857 0.960 . S
C850 C848 1.381 . S
C850 C851 1.394 . S
C850 H858 0.930 . S
C851 C850 1.394 . S
C851 C852 1.383 . S
C851 H859 0.929 . S
C852 C851 1.383 . S
C852 C853 1.377 . S
C853 H837 0.930 . S
C853 C852 1.377 . S
C853 C854 1.379 . S
C854 H838 0.931 . S
C854 C848 1.383 . S
C854 C853 1.379 . S
H855 C849 0.959 . S
H856 C849 0.961 . S
H857 C849 0.960 . S
H858 C850 0.930 . S
H859 C851 0.929 . S
H860 C868 0.929 1_545 S
H861 C870 0.930 1_545 S
H862 C872 0.930 . S
H863 C875 0.929 . S
H864 C878 0.930 . S
H865 C880 0.960 . S
H866 C880 0.960 . S
H867 C880 0.960 . S
C868 H860 0.929 1_565 S
C868 C869 1.377 . S
C868 C870 1.384 . S
C869 C868 1.377 . S
C869 C875 1.390 . S
C870 H861 0.930 1_565 S
C870 C868 1.384 . S
C870 C871 1.372 . S
C871 C870 1.372 . S
C871 C872 1.400 . S
C871 C876 1.490 . S
C872 H862 0.930 . S
C872 C871 1.400 . S
C872 C875 1.386 . S
H873 C889 0.930 . S
H874 C890 0.931 . S
C875 H863 0.929 . S
C875 C869 1.390 . S
C875 C872 1.386 . S
C876 C871 1.490 . S
C876 C878 1.395 . S
C876 C879 1.403 . S
H877 C883 0.930 . S
C878 H864 0.930 . S
C878 C876 1.395 . S
C878 C881 1.403 . S
C879 C876 1.403 . S
C879 C880 1.524 . S
C879 C883 1.400 . S
C880 H865 0.960 . S
C880 H866 0.960 . S
C880 H867 0.960 . S
C880 C879 1.524 . S
C881 C878 1.403 . S
C881 C882 1.392 . S
C881 C885 1.495 . S
C882 C881 1.392 . S
C882 C883 1.385 . S
C882 C884 1.478 . S
C883 H877 0.930 . S
C883 C879 1.400 . S
C883 C882 1.385 . S
C884 C882 1.478 . S
C884 C886 1.381 . S
C884 C890 1.383 . S
C885 C881 1.495 . S
C885 H891 0.959 . S
C885 H892 0.961 . S
C885 H893 0.960 . S
C886 C884 1.381 . S
C886 C887 1.394 . S
C886 H894 0.930 . S
C887 C886 1.394 . S
C887 C888 1.383 . S
C887 H895 0.929 . S
C888 C887 1.383 . S
C888 C889 1.377 . S
C889 H873 0.930 . S
C889 C888 1.377 . S
C889 C890 1.379 . S
C890 H874 0.931 . S
C890 C884 1.383 . S
C890 C889 1.379 . S
H891 C885 0.959 . S
H892 C885 0.961 . S
H893 C885 0.960 . S
H894 C886 0.930 . S
H895 C887 0.929 . S
H896 C904 0.929 . S
H897 C906 0.930 . S
H898 C908 0.930 . S
H899 C911 0.929 . S
H900 C914 0.930 . S
H901 C916 0.960 . S
H902 C916 0.960 . S
H903 C916 0.960 . S
C904 H896 0.929 . S
C904 C905 1.377 . S
C904 C906 1.384 . S
C905 C904 1.377 . S
C905 C911 1.390 . S
C906 H897 0.930 . S
C906 C904 1.384 . S
C906 C907 1.372 . S
C907 C906 1.372 . S
C907 C908 1.400 . S
C907 C912 1.490 . S
C908 H898 0.930 . S
C908 C907 1.400 . S
C908 C911 1.386 . S
H909 C925 0.930 . S
H910 C926 0.931 . S
C911 H899 0.929 . S
C911 C905 1.390 . S
C911 C908 1.386 . S
C912 C907 1.490 . S
C912 C914 1.395 . S
C912 C915 1.403 . S
H913 C919 0.930 . S
C914 H900 0.930 . S
C914 C912 1.395 . S
C914 C917 1.403 . S
C915 C912 1.403 . S
C915 C916 1.524 . S
C915 C919 1.400 . S
C916 H901 0.960 . S
C916 H902 0.960 . S
C916 H903 0.960 . S
C916 C915 1.524 . S
C917 C914 1.403 . S
C917 C918 1.392 . S
C917 C921 1.495 . S
C918 C917 1.392 . S
C918 C919 1.385 . S
C918 C920 1.478 . S
C919 H913 0.930 . S
C919 C915 1.400 . S
C919 C918 1.385 . S
C920 C918 1.478 . S
C920 C922 1.381 . S
C920 C926 1.383 . S
C921 C917 1.495 . S
C921 H927 0.959 . S
C921 H928 0.961 . S
C921 H929 0.960 . S
C922 C920 1.381 . S
C922 C923 1.394 . S
C922 H930 0.930 . S
C923 C922 1.394 . S
C923 C924 1.383 . S
C923 H931 0.929 . S
C924 C923 1.383 . S
C924 C925 1.377 . S
C925 H909 0.930 . S
C925 C924 1.377 . S
C925 C926 1.379 . S
C926 H910 0.931 . S
C926 C920 1.383 . S
C926 C925 1.379 . S
H927 C921 0.959 . S
H928 C921 0.961 . S
H929 C921 0.960 . S
H930 C922 0.930 . S
H931 C923 0.929 . S
H932 C940 0.929 . S
H933 C942 0.930 . S
H934 C944 0.930 . S
H935 C947 0.929 . S
H936 C950 0.930 . S
H937 C952 0.960 . S
H938 C952 0.960 . S
H939 C952 0.960 . S
C940 H932 0.929 . S
C940 C941 1.377 . S
C940 C942 1.384 . S
C941 C940 1.377 . S
C941 C947 1.390 . S
C942 H933 0.930 . S
C942 C940 1.384 . S
C942 C943 1.372 . S
C943 C942 1.372 . S
C943 C944 1.400 . S
C943 C948 1.490 . S
C944 H934 0.930 . S
C944 C943 1.400 . S
C944 C947 1.386 . S
H945 C961 0.930 . S
H946 C962 0.931 . S
C947 H935 0.929 . S
C947 C941 1.390 . S
C947 C944 1.386 . S
C948 C943 1.490 . S
C948 C950 1.395 . S
C948 C951 1.403 . S
H949 C955 0.930 . S
C950 H936 0.930 . S
C950 C948 1.395 . S
C950 C953 1.403 . S
C951 C948 1.403 . S
C951 C952 1.524 . S
C951 C955 1.400 . S
C952 H937 0.960 . S
C952 H938 0.960 . S
C952 H939 0.960 . S
C952 C951 1.524 . S
C953 C950 1.403 . S
C953 C954 1.392 . S
C953 C957 1.495 . S
C954 C953 1.392 . S
C954 C955 1.385 . S
C954 C956 1.478 . S
C955 H949 0.930 . S
C955 C951 1.400 . S
C955 C954 1.385 . S
C956 C954 1.478 . S
C956 C958 1.381 . S
C956 C962 1.383 . S
C957 C953 1.495 . S
C957 H963 0.959 . S
C957 H964 0.961 . S
C957 H965 0.960 . S
C958 C956 1.381 . S
C958 C959 1.394 . S
C958 H966 0.930 . S
C959 C958 1.394 . S
C959 C960 1.383 . S
C959 H967 0.929 . S
C960 C959 1.383 . S
C960 C961 1.377 . S
C961 H945 0.930 . S
C961 C960 1.377 . S
C961 C962 1.379 . S
C962 H946 0.931 . S
C962 C956 1.383 . S
C962 C961 1.379 . S
H963 C957 0.959 . S
H964 C957 0.961 . S
H965 C957 0.960 . S
H966 C958 0.930 . S
H967 C959 0.929 . S
H968 C976 0.929 . S
H969 C978 0.930 . S
H970 C980 0.930 . S
H971 C983 0.929 . S
H972 C986 0.930 . S
H973 C988 0.960 . S
H974 C988 0.960 . S
H975 C988 0.960 . S
C976 H968 0.929 . S
C976 C977 1.377 . S
C976 C978 1.384 . S
C977 C976 1.377 . S
C977 C983 1.390 . S
C978 H969 0.930 . S
C978 C976 1.384 . S
C978 C979 1.372 . S
C979 C978 1.372 . S
C979 C980 1.400 . S
C979 C984 1.490 . S
C980 H970 0.930 . S
C980 C979 1.400 . S
C980 C983 1.386 . S
H981 C997 0.930 . S
H982 C998 0.931 . S
C983 H971 0.929 . S
C983 C977 1.390 . S
C983 C980 1.386 . S
C984 C979 1.490 . S
C984 C986 1.395 . S
C984 C987 1.403 . S
H985 C991 0.930 . S
C986 H972 0.930 . S
C986 C984 1.395 . S
C986 C989 1.403 . S
C987 C984 1.403 . S
C987 C988 1.524 . S
C987 C991 1.400 . S
C988 H973 0.960 . S
C988 H974 0.960 . S
C988 H975 0.960 . S
C988 C987 1.524 . S
C989 C986 1.403 . S
C989 C990 1.392 . S
C989 C993 1.495 . S
C990 C989 1.392 . S
C990 C991 1.385 . S
C990 C992 1.478 . S
C991 H985 0.930 . S
C991 C987 1.400 . S
C991 C990 1.385 . S
C992 C990 1.478 . S
C992 C994 1.381 . S
C992 C998 1.383 . S
C993 C989 1.495 . S
C993 H999 0.959 . S
C993 H1000 0.961 . S
C993 H1001 0.960 . S
C994 C992 1.381 . S
C994 C995 1.394 . S
C994 H1002 0.930 . S
C995 C994 1.394 . S
C995 C996 1.383 . S
C995 H1003 0.929 . S
C996 C995 1.383 . S
C996 C997 1.377 . S
C997 H981 0.930 . S
C997 C996 1.377 . S
C997 C998 1.379 . S
C998 H982 0.931 . S
C998 C992 1.383 . S
C998 C997 1.379 . S
H999 C993 0.959 . S
H1000 C993 0.961 . S
H1001 C993 0.960 . S
H1002 C994 0.930 . S
H1003 C995 0.929 . S
H1004 C1012 0.929 . S
H1005 C1014 0.930 . S
H1006 C1016 0.930 . S
H1007 C1019 0.929 . S
H1008 C1022 0.930 . S
H1009 C1024 0.960 . S
H1010 C1024 0.960 . S
H1011 C1024 0.960 . S
C1012 H1004 0.929 . S
C1012 C1013 1.377 . S
C1012 C1014 1.384 . S
C1013 C1012 1.377 . S
C1013 C1019 1.390 . S
C1014 H1005 0.930 . S
C1014 C1012 1.384 . S
C1014 C1015 1.372 . S
C1015 C1014 1.372 . S
C1015 C1016 1.400 . S
C1015 C1020 1.490 . S
C1016 H1006 0.930 . S
C1016 C1015 1.400 . S
C1016 C1019 1.386 . S
H1017 C1033 0.930 . S
H1018 C1034 0.931 . S
C1019 H1007 0.929 . S
C1019 C1013 1.390 . S
C1019 C1016 1.386 . S
C1020 C1015 1.490 . S
C1020 C1022 1.395 . S
C1020 C1023 1.403 . S
H1021 C1027 0.930 . S
C1022 H1008 0.930 . S
C1022 C1020 1.395 . S
C1022 C1025 1.403 . S
C1023 C1020 1.403 . S
C1023 C1024 1.524 . S
C1023 C1027 1.400 . S
C1024 H1009 0.960 . S
C1024 H1010 0.960 . S
C1024 H1011 0.960 . S
C1024 C1023 1.524 . S
C1025 C1022 1.403 . S
C1025 C1026 1.392 . S
C1025 C1029 1.495 . S
C1026 C1025 1.392 . S
C1026 C1027 1.385 . S
C1026 C1028 1.478 . S
C1027 H1021 0.930 . S
C1027 C1023 1.400 . S
C1027 C1026 1.385 . S
C1028 C1026 1.478 . S
C1028 C1030 1.381 . S
C1028 C1034 1.383 . S
C1029 C1025 1.495 . S
C1029 H1035 0.959 . S
C1029 H1036 0.961 . S
C1029 H1037 0.960 . S
C1030 C1028 1.381 . S
C1030 C1031 1.394 . S
C1030 H1038 0.930 . S
C1031 C1030 1.394 . S
C1031 C1032 1.383 . S
C1031 H1039 0.929 . S
C1032 C1031 1.383 . S
C1032 C1033 1.377 . S
C1033 H1017 0.930 . S
C1033 C1032 1.377 . S
C1033 C1034 1.379 . S
C1034 H1018 0.931 . S
C1034 C1028 1.383 . S
C1034 C1033 1.379 . S
H1035 C1029 0.959 . S
H1036 C1029 0.961 . S
H1037 C1029 0.960 . S
H1038 C1030 0.930 . S
H1039 C1031 0.929 . S
H1040 C1048 0.929 . S
H1041 C1050 0.930 . S
H1042 C1052 0.930 . S
H1043 C1055 0.929 . S
H1044 C1058 0.930 . S
H1045 C1060 0.960 . S
H1046 C1060 0.960 . S
H1047 C1060 0.960 . S
C1048 H1040 0.929 . S
C1048 C1049 1.377 . S
C1048 C1050 1.384 . S
C1049 C1048 1.377 . S
C1049 C1055 1.390 . S
C1050 H1041 0.930 . S
C1050 C1048 1.384 . S
C1050 C1051 1.372 . S
C1051 C1050 1.372 . S
C1051 C1052 1.400 . S
C1051 C1056 1.490 . S
C1052 H1042 0.930 . S
C1052 C1051 1.400 . S
C1052 C1055 1.386 . S
H1053 C1069 0.930 . S
H1054 C1070 0.931 . S
C1055 H1043 0.929 . S
C1055 C1049 1.390 . S
C1055 C1052 1.386 . S
C1056 C1051 1.490 . S
C1056 C1058 1.395 . S
C1056 C1059 1.403 . S
H1057 C1063 0.930 . S
C1058 H1044 0.930 . S
C1058 C1056 1.395 . S
C1058 C1061 1.403 . S
C1059 C1056 1.403 . S
C1059 C1060 1.524 . S
C1059 C1063 1.400 . S
C1060 H1045 0.960 . S
C1060 H1046 0.960 . S
C1060 H1047 0.960 . S
C1060 C1059 1.524 . S
C1061 C1058 1.403 . S
C1061 C1062 1.392 . S
C1061 C1065 1.495 . S
C1062 C1061 1.392 . S
C1062 C1063 1.385 . S
C1062 C1064 1.478 . S
C1063 H1057 0.930 . S
C1063 C1059 1.400 . S
C1063 C1062 1.385 . S
C1064 C1062 1.478 . S
C1064 C1066 1.381 . S
C1064 C1070 1.383 . S
C1065 C1061 1.495 . S
C1065 H1071 0.959 . S
C1065 H1072 0.961 . S
C1065 H1073 0.960 . S
C1066 C1064 1.381 . S
C1066 C1067 1.394 . S
C1066 H1074 0.930 . S
C1067 C1066 1.394 . S
C1067 C1068 1.383 . S
C1067 H1075 0.929 . S
C1068 C1067 1.383 . S
C1068 C1069 1.377 . S
C1069 H1053 0.930 . S
C1069 C1068 1.377 . S
C1069 C1070 1.379 . S
C1070 H1054 0.931 . S
C1070 C1064 1.383 . S
C1070 C1069 1.379 . S
H1071 C1065 0.959 . S
H1072 C1065 0.961 . S
H1073 C1065 0.960 . S
H1074 C1066 0.930 . S
H1075 C1067 0.929 . S
H1076 C1084 0.929 . S
H1077 C1086 0.930 . S
H1078 C1088 0.930 . S
H1079 C1091 0.929 . S
H1080 C1094 0.930 . S
H1081 C1096 0.960 . S
H1082 C1096 0.960 . S
H1083 C1096 0.960 . S
C1084 H1076 0.929 . S
C1084 C1085 1.377 . S
C1084 C1086 1.384 . S
C1085 C1084 1.377 . S
C1085 C1091 1.390 . S
C1086 H1077 0.930 . S
C1086 C1084 1.384 . S
C1086 C1087 1.372 . S
C1087 C1086 1.372 . S
C1087 C1088 1.400 . S
C1087 C1092 1.490 . S
C1088 H1078 0.930 . S
C1088 C1087 1.400 . S
C1088 C1091 1.386 . S
H1089 C1105 0.930 . S
H1090 C1106 0.931 . S
C1091 H1079 0.929 . S
C1091 C1085 1.390 . S
C1091 C1088 1.386 . S
C1092 C1087 1.490 . S
C1092 C1094 1.395 . S
C1092 C1095 1.403 . S
H1093 C1099 0.930 . S
C1094 H1080 0.930 . S
C1094 C1092 1.395 . S
C1094 C1097 1.403 . S
C1095 C1092 1.403 . S
C1095 C1096 1.524 . S
C1095 C1099 1.400 . S
C1096 H1081 0.960 . S
C1096 H1082 0.960 . S
C1096 H1083 0.960 . S
C1096 C1095 1.524 . S
C1097 C1094 1.403 . S
C1097 C1098 1.392 . S
C1097 C1101 1.495 . S
C1098 C1097 1.392 . S
C1098 C1099 1.385 . S
C1098 C1100 1.478 . S
C1099 H1093 0.930 . S
C1099 C1095 1.400 . S
C1099 C1098 1.385 . S
C1100 C1098 1.478 . S
C1100 C1102 1.381 . S
C1100 C1106 1.383 . S
C1101 C1097 1.495 . S
C1101 H1107 0.959 . S
C1101 H1108 0.961 . S
C1101 H1109 0.960 . S
C1102 C1100 1.381 . S
C1102 C1103 1.394 . S
C1102 H1110 0.930 . S
C1103 C1102 1.394 . S
C1103 C1104 1.383 . S
C1103 H1111 0.929 . S
C1104 C1103 1.383 . S
C1104 C1105 1.377 . S
C1105 H1089 0.930 . S
C1105 C1104 1.377 . S
C1105 C1106 1.379 . S
C1106 H1090 0.931 . S
C1106 C1100 1.383 . S
C1106 C1105 1.379 . S
H1107 C1101 0.959 . S
H1108 C1101 0.961 . S
H1109 C1101 0.960 . S
H1110 C1102 0.930 . S
H1111 C1103 0.929 . S
H1112 C1120 0.985 . S
H1113 C1122 0.944 . S
H1114 C1124 0.930 . S
H1115 C1127 0.929 . S
H1116 C1130 0.930 . S
H1117 C1132 0.960 . S
H1118 C1132 0.960 . S
H1119 C1132 0.960 . S
C1120 H1112 0.985 . S
C1120 C1121 1.377 . S
C1120 C1122 1.384 . S
C1121 C1120 1.377 . S
C1121 C1127 1.390 . S
C1122 H1113 0.944 . S
C1122 C1120 1.384 . S
C1122 C1123 1.372 . S
C1123 C1122 1.372 . S
C1123 C1124 1.400 . S
C1123 C1128 1.490 . S
C1124 H1114 0.930 . S
C1124 C1123 1.400 . S
C1124 C1127 1.386 . S
H1125 C1141 0.930 . S
H1126 C1142 0.931 . S
C1127 H1115 0.929 . S
C1127 C1121 1.390 . S
C1127 C1124 1.386 . S
C1128 C1123 1.490 . S
C1128 C1130 1.395 1_455 S
C1128 C1131 1.403 . S
H1129 C1135 0.930 . S
C1130 H1116 0.930 . S
C1130 C1128 1.395 1_655 S
C1130 C1133 1.403 . S
C1131 C1128 1.403 . S
C1131 C1132 1.524 . S
C1131 C1135 1.400 . S
C1132 H1117 0.960 . S
C1132 H1118 0.960 . S
C1132 H1119 0.960 . S
C1132 C1131 1.524 . S
C1133 C1130 1.403 . S
C1133 C1134 1.392 . S
C1133 C1137 1.495 . S
C1134 C1133 1.392 . S
C1134 C1135 1.385 1_655 S
C1134 C1136 1.478 . S
C1135 H1129 0.930 . S
C1135 C1131 1.400 . S
C1135 C1134 1.385 1_455 S
C1136 C1134 1.478 . S
C1136 C1138 1.381 . S
C1136 C1142 1.383 . S
C1137 C1133 1.495 . S
C1137 H1143 0.959 . S
C1137 H1144 0.961 . S
C1137 H1145 0.960 1_556 S
C1138 C1136 1.381 . S
C1138 C1139 1.394 . S
C1138 H1146 0.904 1_556 S
C1139 C1138 1.394 . S
C1139 C1140 1.383 . S
C1139 H1147 0.961 . S
C1140 C1139 1.383 . S
C1140 C1141 1.377 . S
C1141 H1125 0.930 . S
C1141 C1140 1.377 . S
C1141 C1142 1.379 . S
C1142 H1126 0.931 . S
C1142 C1136 1.383 . S
C1142 C1141 1.379 . S
H1143 C1137 0.959 . S
H1144 C1137 0.961 . S
H1145 C1137 0.960 1_554 S
H1146 C1138 0.904 1_554 S
H1147 C1139 0.961 . S
H1148 C1156 0.929 . S
H1149 C1158 0.930 . S
H1150 C1160 0.930 . S
H1151 C1163 0.929 . S
H1152 C1166 0.930 . S
H1153 C1168 0.960 . S
H1154 C1168 0.960 . S
H1155 C1168 0.960 . S
C1156 H1148 0.929 . S
C1156 C1157 1.377 . S
C1156 C1158 1.384 . S
C1157 C1156 1.377 . S
C1157 C1163 1.390 . S
C1158 H1149 0.930 . S
C1158 C1156 1.384 . S
C1158 C1159 1.372 . S
C1159 C1158 1.372 . S
C1159 C1160 1.400 . S
C1159 C1164 1.490 . S
C1160 H1150 0.930 . S
C1160 C1159 1.400 . S
C1160 C1163 1.386 . S
H1161 C1177 0.930 . S
H1162 C1178 0.931 . S
C1163 H1151 0.929 . S
C1163 C1157 1.390 . S
C1163 C1160 1.386 . S
C1164 C1159 1.490 . S
C1164 C1166 1.395 . S
C1164 C1167 1.403 . S
H1165 C1171 0.930 . S
C1166 H1152 0.930 . S
C1166 C1164 1.395 . S
C1166 C1169 1.403 . S
C1167 C1164 1.403 . S
C1167 C1168 1.524 . S
C1167 C1171 1.400 . S
C1168 H1153 0.960 . S
C1168 H1154 0.960 . S
C1168 H1155 0.960 . S
C1168 C1167 1.524 . S
C1169 C1166 1.403 . S
C1169 C1170 1.392 . S
C1169 C1173 1.495 . S
C1170 C1169 1.392 . S
C1170 C1171 1.385 . S
C1170 C1172 1.478 . S
C1171 H1165 0.930 . S
C1171 C1167 1.400 . S
C1171 C1170 1.385 . S
C1172 C1170 1.478 . S
C1172 C1174 1.381 . S
C1172 C1178 1.383 . S
C1173 C1169 1.495 . S
C1173 H1179 0.959 . S
C1173 H1180 0.961 . S
C1173 H1181 0.960 . S
C1174 C1172 1.381 . S
C1174 C1175 1.394 . S
C1174 H1182 0.930 . S
C1175 C1174 1.394 . S
C1175 C1176 1.383 . S
C1175 H1183 0.929 . S
C1176 C1175 1.383 . S
C1176 C1177 1.377 . S
C1177 H1161 0.930 . S
C1177 C1176 1.377 . S
C1177 C1178 1.379 . S
C1178 H1162 0.931 . S
C1178 C1172 1.383 . S
C1178 C1177 1.379 . S
H1179 C1173 0.959 . S
H1180 C1173 0.961 . S
H1181 C1173 0.960 . S
H1182 C1174 0.930 . S
H1183 C1175 0.929 . S
H1184 C1192 0.929 . S
H1185 C1194 0.930 . S
H1186 C1196 0.930 . S
H1187 C1199 0.929 . S
H1188 C1202 0.930 . S
H1189 C1204 0.960 . S
H1190 C1204 0.960 . S
H1191 C1204 0.960 . S
C1192 H1184 0.929 . S
C1192 C1193 1.377 . S
C1192 C1194 1.384 . S
C1193 C1192 1.377 . S
C1193 C1199 1.390 . S
C1194 H1185 0.930 . S
C1194 C1192 1.384 . S
C1194 C1195 1.372 . S
C1195 C1194 1.372 . S
C1195 C1196 1.400 . S
C1195 C1200 1.490 . S
C1196 H1186 0.930 . S
C1196 C1195 1.400 . S
C1196 C1199 1.386 . S
H1197 C1213 0.930 . S
H1198 C1214 0.931 . S
C1199 H1187 0.929 . S
C1199 C1193 1.390 . S
C1199 C1196 1.386 . S
C1200 C1195 1.490 . S
C1200 C1202 1.395 . S
C1200 C1203 1.403 . S
H1201 C1207 0.930 . S
C1202 H1188 0.930 . S
C1202 C1200 1.395 . S
C1202 C1205 1.403 . S
C1203 C1200 1.403 . S
C1203 C1204 1.524 . S
C1203 C1207 1.400 . S
C1204 H1189 0.960 . S
C1204 H1190 0.960 . S
C1204 H1191 0.960 . S
C1204 C1203 1.524 . S
C1205 C1202 1.403 . S
C1205 C1206 1.392 . S
C1205 C1209 1.495 . S
C1206 C1205 1.392 . S
C1206 C1207 1.385 . S
C1206 C1208 1.478 . S
C1207 H1201 0.930 . S
C1207 C1203 1.400 . S
C1207 C1206 1.385 . S
C1208 C1206 1.478 . S
C1208 C1210 1.381 . S
C1208 C1214 1.383 . S
C1209 C1205 1.495 . S
C1209 H1215 0.959 . S
C1209 H1216 0.961 . S
C1209 H1217 0.960 . S
C1210 C1208 1.381 . S
C1210 C1211 1.394 . S
C1210 H1218 0.930 . S
C1211 C1210 1.394 . S
C1211 C1212 1.383 . S
C1211 H1219 0.929 . S
C1212 C1211 1.383 . S
C1212 C1213 1.377 . S
C1213 H1197 0.930 . S
C1213 C1212 1.377 . S
C1213 C1214 1.379 . S
C1214 H1198 0.931 . S
C1214 C1208 1.383 . S
C1214 C1213 1.379 . S
H1215 C1209 0.959 . S
H1216 C1209 0.961 . S
H1217 C1209 0.960 . S
H1218 C1210 0.930 . S
H1219 C1211 0.929 . S
H1220 C1228 0.929 . S
H1221 C1230 0.930 . S
H1222 C1232 0.930 . S
H1223 C1235 0.929 . S
H1224 C1238 0.930 . S
H1225 C1240 0.960 . S
H1226 C1240 0.960 1_655 S
H1227 C1240 0.960 . S
C1228 H1220 0.929 . S
C1228 C1229 1.377 . S
C1228 C1230 1.384 . S
C1229 C1228 1.377 . S
C1229 C1235 1.390 1_655 S
C1230 H1221 0.930 . S
C1230 C1228 1.384 . S
C1230 C1231 1.372 . S
C1231 C1230 1.372 . S
C1231 C1232 1.400 1_655 S
C1231 C1236 1.490 . S
C1232 H1222 0.930 . S
C1232 C1231 1.400 1_455 S
C1232 C1235 1.386 . S
H1233 C1249 0.930 . S
H1234 C1250 0.931 . S
C1235 H1223 0.929 . S
C1235 C1229 1.390 1_455 S
C1235 C1232 1.386 . S
C1236 C1231 1.490 . S
C1236 C1238 1.395 . S
C1236 C1239 1.403 1_655 S
H1237 C1243 0.930 . S
C1238 H1224 0.930 . S
C1238 C1236 1.395 . S
C1238 C1241 1.403 1_565 S
C1239 C1236 1.403 1_455 S
C1239 C1240 1.524 . S
C1239 C1243 1.400 1_565 S
C1240 H1225 0.960 . S
C1240 H1226 0.960 1_455 S
C1240 H1227 0.960 . S
C1240 C1239 1.524 . S
C1241 C1238 1.403 1_545 S
C1241 C1242 1.392 . S
C1241 C1245 1.495 . S
C1242 C1241 1.392 . S
C1242 C1243 1.385 1_655 S
C1242 C1244 1.478 1_655 S
C1243 H1237 0.930 . S
C1243 C1239 1.400 1_545 S
C1243 C1242 1.385 1_455 S
C1244 C1242 1.478 1_455 S
C1244 C1246 1.381 1_455 S
C1244 C1250 1.383 . S
C1245 C1241 1.495 . S
C1245 H1251 0.959 . S
C1245 H1252 0.961 1_655 S
C1245 H1253 0.960 . S
C1246 C1244 1.381 1_655 S
C1246 C1247 1.394 . S
C1246 H1254 0.930 . S
C1247 C1246 1.394 . S
C1247 C1248 1.383 1_655 S
C1247 H1255 0.929 . S
C1248 C1247 1.383 1_455 S
C1248 C1249 1.377 . S
C1249 H1233 0.930 . S
C1249 C1248 1.377 . S
C1249 C1250 1.379 . S
C1250 H1234 0.931 . S
C1250 C1244 1.383 . S
C1250 C1249 1.379 . S
H1251 C1245 0.959 . S
H1252 C1245 0.961 1_455 S
H1253 C1245 0.960 . S
H1254 C1246 0.930 . S
H1255 C1247 0.929 . S
H1256 C1264 0.929 . S
H1257 C1266 0.930 . S
H1258 C1268 0.930 . S
H1259 C1271 0.929 . S
H1260 C1274 0.930 . S
H1261 C1276 0.960 . S
H1262 C1276 0.960 . S
H1263 C1276 0.960 . S
C1264 H1256 0.929 . S
C1264 C1265 1.377 . S
C1264 C1266 1.384 . S
C1265 C1264 1.377 . S
C1265 C1271 1.390 . S
C1266 H1257 0.930 . S
C1266 C1264 1.384 . S
C1266 C1267 1.372 . S
C1267 C1266 1.372 . S
C1267 C1268 1.400 . S
C1267 C1272 1.490 . S
C1268 H1258 0.930 . S
C1268 C1267 1.400 . S
C1268 C1271 1.386 . S
H1269 C1285 0.930 . S
H1270 C1286 0.931 . S
C1271 H1259 0.929 . S
C1271 C1265 1.390 . S
C1271 C1268 1.386 . S
C1272 C1267 1.490 . S
C1272 C1274 1.395 . S
C1272 C1275 1.403 . S
H1273 C1279 0.930 . S
C1274 H1260 0.930 . S
C1274 C1272 1.395 . S
C1274 C1277 1.403 . S
C1275 C1272 1.403 . S
C1275 C1276 1.524 . S
C1275 C1279 1.400 . S
C1276 H1261 0.960 . S
C1276 H1262 0.960 . S
C1276 H1263 0.960 . S
C1276 C1275 1.524 . S
C1277 C1274 1.403 . S
C1277 C1278 1.392 . S
C1277 C1281 1.495 . S
C1278 C1277 1.392 . S
C1278 C1279 1.385 . S
C1278 C1280 1.478 . S
C1279 H1273 0.930 . S
C1279 C1275 1.400 . S
C1279 C1278 1.385 . S
C1280 C1278 1.478 . S
C1280 C1282 1.381 . S
C1280 C1286 1.383 . S
C1281 C1277 1.495 . S
C1281 H1287 0.959 . S
C1281 H1288 0.961 . S
C1281 H1289 0.960 . S
C1282 C1280 1.381 . S
C1282 C1283 1.394 . S
C1282 H1290 0.930 . S
C1283 C1282 1.394 . S
C1283 C1284 1.383 . S
C1283 H1291 0.929 . S
C1284 C1283 1.383 . S
C1284 C1285 1.377 . S
C1285 H1269 0.930 . S
C1285 C1284 1.377 . S
C1285 C1286 1.379 . S
C1286 H1270 0.931 . S
C1286 C1280 1.383 . S
C1286 C1285 1.379 . S
H1287 C1281 0.959 . S
H1288 C1281 0.961 . S
H1289 C1281 0.960 . S
H1290 C1282 0.930 . S
H1291 C1283 0.929 . S
H1292 C1300 0.929 . S
H1293 C1302 0.930 . S
H1294 C1304 0.930 . S
H1295 C1307 0.929 . S
H1296 C1310 0.930 . S
H1297 C1312 0.960 . S
H1298 C1312 0.960 . S
H1299 C1312 0.960 . S
C1300 H1292 0.929 . S
C1300 C1301 1.377 . S
C1300 C1302 1.384 . S
C1301 C1300 1.377 . S
C1301 C1307 1.390 . S
C1302 H1293 0.930 . S
C1302 C1300 1.384 . S
C1302 C1303 1.372 . S
C1303 C1302 1.372 . S
C1303 C1304 1.400 . S
C1303 C1308 1.490 . S
C1304 H1294 0.930 . S
C1304 C1303 1.400 . S
C1304 C1307 1.386 . S
H1305 C1321 0.930 . S
H1306 C1322 0.931 . S
C1307 H1295 0.929 . S
C1307 C1301 1.390 . S
C1307 C1304 1.386 . S
C1308 C1303 1.490 . S
C1308 C1310 1.395 . S
C1308 C1311 1.403 . S
H1309 C1315 0.930 . S
C1310 H1296 0.930 . S
C1310 C1308 1.395 . S
C1310 C1313 1.403 . S
C1311 C1308 1.403 . S
C1311 C1312 1.524 . S
C1311 C1315 1.400 . S
C1312 H1297 0.960 . S
C1312 H1298 0.960 . S
C1312 H1299 0.960 . S
C1312 C1311 1.524 . S
C1313 C1310 1.403 . S
C1313 C1314 1.392 . S
C1313 C1317 1.495 . S
C1314 C1313 1.392 . S
C1314 C1315 1.385 . S
C1314 C1316 1.478 . S
C1315 H1309 0.930 . S
C1315 C1311 1.400 . S
C1315 C1314 1.385 . S
C1316 C1314 1.478 . S
C1316 C1318 1.381 . S
C1316 C1322 1.383 . S
C1317 C1313 1.495 . S
C1317 H1323 0.959 . S
C1317 H1324 0.961 . S
C1317 H1325 0.960 . S
C1318 C1316 1.381 . S
C1318 C1319 1.394 . S
C1318 H1326 0.930 . S
C1319 C1318 1.394 . S
C1319 C1320 1.383 . S
C1319 H1327 0.929 . S
C1320 C1319 1.383 . S
C1320 C1321 1.377 . S
C1321 H1305 0.930 . S
C1321 C1320 1.377 . S
C1321 C1322 1.379 . S
C1322 H1306 0.931 . S
C1322 C1316 1.383 . S
C1322 C1321 1.379 . S
H1323 C1317 0.959 . S
H1324 C1317 0.961 . S
H1325 C1317 0.960 . S
H1326 C1318 0.930 . S
H1327 C1319 0.929 . S
H1328 C1336 0.929 . S
H1329 C1338 0.930 . S
H1330 C1340 0.930 . S
H1331 C1343 0.929 . S
H1332 C1346 0.930 . S
H1333 C1348 0.960 . S
H1334 C1348 0.960 . S
H1335 C1348 0.960 . S
C1336 H1328 0.929 . S
C1336 C1337 1.377 . S
C1336 C1338 1.384 . S
C1337 C1336 1.377 . S
C1337 C1343 1.390 . S
C1338 H1329 0.930 . S
C1338 C1336 1.384 . S
C1338 C1339 1.372 . S
C1339 C1338 1.372 . S
C1339 C1340 1.400 . S
C1339 C1344 1.490 . S
C1340 H1330 0.930 . S
C1340 C1339 1.400 . S
C1340 C1343 1.386 . S
H1341 C1357 0.930 . S
H1342 C1358 0.931 . S
C1343 H1331 0.929 . S
C1343 C1337 1.390 . S
C1343 C1340 1.386 . S
C1344 C1339 1.490 . S
C1344 C1346 1.395 . S
C1344 C1347 1.403 . S
H1345 C1351 0.930 . S
C1346 H1332 0.930 . S
C1346 C1344 1.395 . S
C1346 C1349 1.403 . S
C1347 C1344 1.403 . S
C1347 C1348 1.524 . S
C1347 C1351 1.400 . S
C1348 H1333 0.960 . S
C1348 H1334 0.960 . S
C1348 H1335 0.960 . S
C1348 C1347 1.524 . S
C1349 C1346 1.403 . S
C1349 C1350 1.392 . S
C1349 C1353 1.495 . S
C1350 C1349 1.392 . S
C1350 C1351 1.385 . S
C1350 C1352 1.478 . S
C1351 H1345 0.930 . S
C1351 C1347 1.400 . S
C1351 C1350 1.385 . S
C1352 C1350 1.478 . S
C1352 C1354 1.381 . S
C1352 C1358 1.383 . S
C1353 C1349 1.495 . S
C1353 H1359 0.959 . S
C1353 H1360 0.961 . S
C1353 H1361 0.960 . S
C1354 C1352 1.381 . S
C1354 C1355 1.394 . S
C1354 H1362 0.930 . S
C1355 C1354 1.394 . S
C1355 C1356 1.383 . S
C1355 H1363 0.929 . S
C1356 C1355 1.383 . S
C1356 C1357 1.377 . S
C1357 H1341 0.930 . S
C1357 C1356 1.377 . S
C1357 C1358 1.379 . S
C1358 H1342 0.931 . S
C1358 C1352 1.383 . S
C1358 C1357 1.379 . S
H1359 C1353 0.959 . S
H1360 C1353 0.961 . S
H1361 C1353 0.960 . S
H1362 C1354 0.930 . S
H1363 C1355 0.929 . S
H1364 C1372 0.929 . S
H1365 C1374 0.930 . S
H1366 C1376 0.930 . S
H1367 C1379 0.929 . S
H1368 C1382 0.958 . S
H1369 C1384 0.960 . S
H1370 C1384 0.960 . S
H1371 C1384 0.960 . S
C1372 H1364 0.929 . S
C1372 C1373 1.377 . S
C1372 C1374 1.384 . S
C1373 C1372 1.377 . S
C1373 C1379 1.390 . S
C1374 H1365 0.930 . S
C1374 C1372 1.384 . S
C1374 C1375 1.372 . S
C1375 C1374 1.372 . S
C1375 C1376 1.400 . S
C1375 C1380 1.490 . S
C1376 H1366 0.930 . S
C1376 C1375 1.400 . S
C1376 C1379 1.386 . S
H1377 C1393 0.930 . S
H1378 C1394 0.931 . S
C1379 H1367 0.929 . S
C1379 C1373 1.390 . S
C1379 C1376 1.386 . S
C1380 C1375 1.490 . S
C1380 C1382 1.395 . S
C1380 C1383 1.403 . S
H1381 C1387 0.930 . S
C1382 H1368 0.958 . S
C1382 C1380 1.395 . S
C1382 C1385 1.403 1_565 S
C1383 C1380 1.403 . S
C1383 C1384 1.524 . S
C1383 C1387 1.400 1_565 S
C1384 H1369 0.960 . S
C1384 H1370 0.960 . S
C1384 H1371 0.960 . S
C1384 C1383 1.524 . S
C1385 C1382 1.403 1_545 S
C1385 C1386 1.392 . S
C1385 C1389 1.495 1_556 S
C1386 C1385 1.392 . S
C1386 C1387 1.385 . S
C1386 C1388 1.478 . S
C1387 H1381 0.930 . S
C1387 C1383 1.400 1_545 S
C1387 C1386 1.385 . S
C1388 C1386 1.478 . S
C1388 C1390 1.381 . S
C1388 C1394 1.383 . S
C1389 C1385 1.495 1_554 S
C1389 H1395 0.959 . S
C1389 H1396 0.961 . S
C1389 H1397 0.960 . S
C1390 C1388 1.381 . S
C1390 C1391 1.394 . S
C1390 H1398 0.930 . S
C1391 C1390 1.394 . S
C1391 C1392 1.383 . S
C1391 H1399 0.929 . S
C1392 C1391 1.383 . S
C1392 C1393 1.377 . S
C1393 H1377 0.930 . S
C1393 C1392 1.377 . S
C1393 C1394 1.379 . S
C1394 H1378 0.931 . S
C1394 C1388 1.383 . S
C1394 C1393 1.379 . S
H1395 C1389 0.959 . S
H1396 C1389 0.961 . S
H1397 C1389 0.960 . S
H1398 C1390 0.930 . S
H1399 C1391 0.929 . S
H1400 C1408 0.929 1_556 S
H1401 C1410 0.930 1_556 S
H1402 C1412 0.930 . S
H1403 C1415 0.929 . S
H1404 C1418 0.930 . S
H1405 C1420 0.960 . S
H1406 C1420 0.960 . S
H1407 C1420 0.960 . S
C1408 H1400 0.929 1_554 S
C1408 C1409 1.377 . S
C1408 C1410 1.384 . S
C1409 C1408 1.377 . S
C1409 C1415 1.390 . S
C1410 H1401 0.930 1_554 S
C1410 C1408 1.384 . S
C1410 C1411 1.372 . S
C1411 C1410 1.372 . S
C1411 C1412 1.400 . S
C1411 C1416 1.490 . S
C1412 H1402 0.930 . S
C1412 C1411 1.400 . S
C1412 C1415 1.386 . S
H1413 C1429 0.930 . S
H1414 C1430 0.931 . S
C1415 H1403 0.929 . S
C1415 C1409 1.390 . S
C1415 C1412 1.386 . S
C1416 C1411 1.490 . S
C1416 C1418 1.395 . S
C1416 C1419 1.403 . S
H1417 C1423 0.930 . S
C1418 H1404 0.930 . S
C1418 C1416 1.395 . S
C1418 C1421 1.403 . S
C1419 C1416 1.403 . S
C1419 C1420 1.524 . S
C1419 C1423 1.400 . S
C1420 H1405 0.960 . S
C1420 H1406 0.960 . S
C1420 H1407 0.960 . S
C1420 C1419 1.524 . S
C1421 C1418 1.403 . S
C1421 C1422 1.392 . S
C1421 C1425 1.495 . S
C1422 C1421 1.392 . S
C1422 C1423 1.385 . S
C1422 C1424 1.478 . S
C1423 H1417 0.930 . S
C1423 C1419 1.400 . S
C1423 C1422 1.385 . S
C1424 C1422 1.478 . S
C1424 C1426 1.381 . S
C1424 C1430 1.383 . S
C1425 C1421 1.495 . S
C1425 H1431 0.959 1_554 S
C1425 H1432 0.961 . S
C1425 H1433 0.960 1_554 S
C1426 C1424 1.381 . S
C1426 C1427 1.394 . S
C1426 H1434 0.930 1_554 S
C1427 C1426 1.394 . S
C1427 C1428 1.383 . S
C1427 H1435 0.929 1_554 S
C1428 C1427 1.383 . S
C1428 C1429 1.377 . S
C1429 H1413 0.930 . S
C1429 C1428 1.377 . S
C1429 C1430 1.379 . S
C1430 H1414 0.931 . S
C1430 C1424 1.383 . S
C1430 C1429 1.379 . S
H1431 C1425 0.959 1_556 S
H1432 C1425 0.961 . S
H1433 C1425 0.960 1_556 S
H1434 C1426 0.930 1_556 S
H1435 C1427 0.929 1_556 S
H1436 C1444 0.929 . S
H1437 C1446 0.930 . S
H1438 C1448 0.930 1_556 S
H1439 C1451 0.929 1_556 S
H1440 C1454 0.930 . S
H1441 C1456 0.960 . S
H1442 C1456 0.960 . S
H1443 C1456 0.960 . S
C1444 H1436 0.929 . S
C1444 C1445 1.377 . S
C1444 C1446 1.384 . S
C1445 C1444 1.377 . S
C1445 C1451 1.390 . S
C1446 H1437 0.930 . S
C1446 C1444 1.384 . S
C1446 C1447 1.372 . S
C1447 C1446 1.372 . S
C1447 C1448 1.400 . S
C1447 C1452 1.490 . S
C1448 H1438 0.930 1_554 S
C1448 C1447 1.400 . S
C1448 C1451 1.386 . S
H1449 C1465 0.930 1_556 S
H1450 C1466 0.931 1_556 S
C1451 H1439 0.929 1_554 S
C1451 C1445 1.390 . S
C1451 C1448 1.386 . S
C1452 C1447 1.490 . S
C1452 C1454 1.395 . S
C1452 C1455 1.403 . S
H1453 C1459 0.930 . S
C1454 H1440 0.930 . S
C1454 C1452 1.395 . S
C1454 C1457 1.403 . S
C1455 C1452 1.403 . S
C1455 C1456 1.524 . S
C1455 C1459 1.400 . S
C1456 H1441 0.960 . S
C1456 H1442 0.960 . S
C1456 H1443 0.960 . S
C1456 C1455 1.524 . S
C1457 C1454 1.403 . S
C1457 C1458 1.392 . S
C1457 C1461 1.495 . S
C1458 C1457 1.392 . S
C1458 C1459 1.385 . S
C1458 C1460 1.478 . S
C1459 H1453 0.930 . S
C1459 C1455 1.400 . S
C1459 C1458 1.385 . S
C1460 C1458 1.478 . S
C1460 C1462 1.381 . S
C1460 C1466 1.383 . S
C1461 C1457 1.495 . S
C1461 H1467 0.959 . S
C1461 H1468 0.961 . S
C1461 H1469 0.960 . S
C1462 C1460 1.381 . S
C1462 C1463 1.394 . S
C1462 H1470 0.930 . S
C1463 C1462 1.394 . S
C1463 C1464 1.383 . S
C1463 H1471 0.929 . S
C1464 C1463 1.383 . S
C1464 C1465 1.377 . S
C1465 H1449 0.930 1_554 S
C1465 C1464 1.377 . S
C1465 C1466 1.379 . S
C1466 H1450 0.931 1_554 S
C1466 C1460 1.383 . S
C1466 C1465 1.379 . S
H1467 C1461 0.959 . S
H1468 C1461 0.961 . S
H1469 C1461 0.960 . S
H1470 C1462 0.930 . S
H1471 C1463 0.929 . S
H1472 C1480 0.929 . S
H1473 C1482 0.930 . S
H1474 C1484 0.930 . S
H1475 C1487 0.929 . S
H1476 C1490 0.930 . S
H1477 C1492 0.960 . S
H1478 C1492 0.960 . S
H1479 C1492 0.960 . S
C1480 H1472 0.929 . S
C1480 C1481 1.377 . S
C1480 C1482 1.384 . S
C1481 C1480 1.377 . S
C1481 C1487 1.390 . S
C1482 H1473 0.930 . S
C1482 C1480 1.384 . S
C1482 C1483 1.372 . S
C1483 C1482 1.372 . S
C1483 C1484 1.400 . S
C1483 C1488 1.490 . S
C1484 H1474 0.930 . S
C1484 C1483 1.400 . S
C1484 C1487 1.386 . S
H1485 C1501 0.930 . S
H1486 C1502 0.931 . S
C1487 H1475 0.929 . S
C1487 C1481 1.390 . S
C1487 C1484 1.386 . S
C1488 C1483 1.490 . S
C1488 C1490 1.395 . S
C1488 C1491 1.403 . S
H1489 C1495 0.930 . S
C1490 H1476 0.930 . S
C1490 C1488 1.395 . S
C1490 C1493 1.403 1_455 S
C1491 C1488 1.403 . S
C1491 C1492 1.524 . S
C1491 C1495 1.400 1_455 S
C1492 H1477 0.960 . S
C1492 H1478 0.960 . S
C1492 H1479 0.960 . S
C1492 C1491 1.524 . S
C1493 C1490 1.403 1_655 S
C1493 C1494 1.392 . S
C1493 C1497 1.495 . S
C1494 C1493 1.392 . S
C1494 C1495 1.385 . S
C1494 C1496 1.478 . S
C1495 H1489 0.930 . S
C1495 C1491 1.400 1_655 S
C1495 C1494 1.385 . S
C1496 C1494 1.478 . S
C1496 C1498 1.381 . S
C1496 C1502 1.383 . S
C1497 C1493 1.495 . S
C1497 H1503 0.959 . S
C1497 H1504 0.961 . S
C1497 H1505 0.960 . S
C1498 C1496 1.381 . S
C1498 C1499 1.394 . S
C1498 H1506 0.930 . S
C1499 C1498 1.394 . S
C1499 C1500 1.383 . S
C1499 H1507 0.929 . S
C1500 C1499 1.383 . S
C1500 C1501 1.377 . S
C1501 H1485 0.930 . S
C1501 C1500 1.377 . S
C1501 C1502 1.379 . S
C1502 H1486 0.931 . S
C1502 C1496 1.383 . S
C1502 C1501 1.379 . S
H1503 C1497 0.959 . S
H1504 C1497 0.961 . S
H1505 C1497 0.960 . S
H1506 C1498 0.930 . S
H1507 C1499 0.929 . S
H1508 C1516 0.929 . S
H1509 C1518 0.930 . S
H1510 C1520 0.930 . S
H1511 C1523 0.929 . S
H1512 C1526 0.930 . S
H1513 C1528 0.960 . S
H1514 C1528 0.960 . S
H1515 C1528 0.960 . S
C1516 H1508 0.929 . S
C1516 C1517 1.377 . S
C1516 C1518 1.384 . S
C1517 C1516 1.377 . S
C1517 C1523 1.390 . S
C1518 H1509 0.930 . S
C1518 C1516 1.384 . S
C1518 C1519 1.372 . S
C1519 C1518 1.372 . S
C1519 C1520 1.400 . S
C1519 C1524 1.490 . S
C1520 H1510 0.930 . S
C1520 C1519 1.400 . S
C1520 C1523 1.386 . S
H1521 C1537 0.930 . S
H1522 C1538 0.931 . S
C1523 H1511 0.929 . S
C1523 C1517 1.390 . S
C1523 C1520 1.386 . S
C1524 C1519 1.490 . S
C1524 C1526 1.395 . S
C1524 C1527 1.403 . S
H1525 C1531 0.930 . S
C1526 H1512 0.930 . S
C1526 C1524 1.395 . S
C1526 C1529 1.403 . S
C1527 C1524 1.403 . S
C1527 C1528 1.524 . S
C1527 C1531 1.400 . S
C1528 H1513 0.960 . S
C1528 H1514 0.960 . S
C1528 H1515 0.960 . S
C1528 C1527 1.524 . S
C1529 C1526 1.403 . S
C1529 C1530 1.392 . S
C1529 C1533 1.495 . S
C1530 C1529 1.392 . S
C1530 C1531 1.385 . S
C1530 C1532 1.478 . S
C1531 H1525 0.930 . S
C1531 C1527 1.400 . S
C1531 C1530 1.385 . S
C1532 C1530 1.478 . S
C1532 C1534 1.381 . S
C1532 C1538 1.383 . S
C1533 C1529 1.495 . S
C1533 H1539 0.959 . S
C1533 H1540 0.961 . S
C1533 H1541 0.960 . S
C1534 C1532 1.381 . S
C1534 C1535 1.394 . S
C1534 H1542 0.930 . S
C1535 C1534 1.394 . S
C1535 C1536 1.383 . S
C1535 H1543 0.929 . S
C1536 C1535 1.383 . S
C1536 C1537 1.377 . S
C1537 H1521 0.930 . S
C1537 C1536 1.377 . S
C1537 C1538 1.379 . S
C1538 H1522 0.931 . S
C1538 C1532 1.383 . S
C1538 C1537 1.379 . S
H1539 C1533 0.959 . S
H1540 C1533 0.961 . S
H1541 C1533 0.960 . S
H1542 C1534 0.930 . S
H1543 C1535 0.929 . S
H1544 C1552 0.929 . S
H1545 C1554 0.930 . S
H1546 C1556 0.930 . S
H1547 C1559 0.929 . S
H1548 C1562 0.930 . S
H1549 C1564 0.960 . S
H1550 C1564 0.960 . S
H1551 C1564 0.960 . S
C1552 H1544 0.929 . S
C1552 C1553 1.377 . S
C1552 C1554 1.384 . S
C1553 C1552 1.377 . S
C1553 C1559 1.390 . S
C1554 H1545 0.930 . S
C1554 C1552 1.384 . S
C1554 C1555 1.372 . S
C1555 C1554 1.372 . S
C1555 C1556 1.400 . S
C1555 C1560 1.490 . S
C1556 H1546 0.930 . S
C1556 C1555 1.400 . S
C1556 C1559 1.386 . S
H1557 C1573 0.930 . S
H1558 C1574 0.931 . S
C1559 H1547 0.929 . S
C1559 C1553 1.390 . S
C1559 C1556 1.386 . S
C1560 C1555 1.490 . S
C1560 C1562 1.395 . S
C1560 C1563 1.403 . S
H1561 C1567 0.930 . S
C1562 H1548 0.930 . S
C1562 C1560 1.395 . S
C1562 C1565 1.403 . S
C1563 C1560 1.403 . S
C1563 C1564 1.524 . S
C1563 C1567 1.400 . S
C1564 H1549 0.960 . S
C1564 H1550 0.960 . S
C1564 H1551 0.960 . S
C1564 C1563 1.524 . S
C1565 C1562 1.403 . S
C1565 C1566 1.392 . S
C1565 C1569 1.495 . S
C1566 C1565 1.392 . S
C1566 C1567 1.385 . S
C1566 C1568 1.478 . S
C1567 H1561 0.930 . S
C1567 C1563 1.400 . S
C1567 C1566 1.385 . S
C1568 C1566 1.478 . S
C1568 C1570 1.381 . S
C1568 C1574 1.383 . S
C1569 C1565 1.495 . S
C1569 H1575 0.959 . S
C1569 H1576 0.961 . S
C1569 H1577 0.960 . S
C1570 C1568 1.381 . S
C1570 C1571 1.394 . S
C1570 H1578 0.930 . S
C1571 C1570 1.394 . S
C1571 C1572 1.383 . S
C1571 H1579 0.929 . S
C1572 C1571 1.383 . S
C1572 C1573 1.377 . S
C1573 H1557 0.930 . S
C1573 C1572 1.377 . S
C1573 C1574 1.379 . S
C1574 H1558 0.931 . S
C1574 C1568 1.383 . S
C1574 C1573 1.379 . S
H1575 C1569 0.959 . S
H1576 C1569 0.961 . S
H1577 C1569 0.960 . S
H1578 C1570 0.930 . S
H1579 C1571 0.929 . S
H1580 C1588 0.929 . S
H1581 C1590 0.930 . S
H1582 C1592 0.930 . S
H1583 C1595 0.929 . S
H1584 C1598 0.930 . S
H1585 C1600 0.960 . S
H1586 C1600 0.960 . S
H1587 C1600 0.960 . S
C1588 H1580 0.929 . S
C1588 C1589 1.377 . S
C1588 C1590 1.384 . S
C1589 C1588 1.377 . S
C1589 C1595 1.390 . S
C1590 H1581 0.930 . S
C1590 C1588 1.384 . S
C1590 C1591 1.372 . S
C1591 C1590 1.372 . S
C1591 C1592 1.400 . S
C1591 C1596 1.490 . S
C1592 H1582 0.930 . S
C1592 C1591 1.400 . S
C1592 C1595 1.386 . S
H1593 C1609 0.930 . S
H1594 C1610 0.931 . S
C1595 H1583 0.929 . S
C1595 C1589 1.390 . S
C1595 C1592 1.386 . S
C1596 C1591 1.490 . S
C1596 C1598 1.395 . S
C1596 C1599 1.403 . S
H1597 C1603 0.930 . S
C1598 H1584 0.930 . S
C1598 C1596 1.395 . S
C1598 C1601 1.403 1_645 S
C1599 C1596 1.403 . S
C1599 C1600 1.524 . S
C1599 C1603 1.400 1_645 S
C1600 H1585 0.960 . S
C1600 H1586 0.960 . S
C1600 H1587 0.960 . S
C1600 C1599 1.524 . S
C1601 C1598 1.403 1_465 S
C1601 C1602 1.392 . S
C1601 C1605 1.495 . S
C1602 C1601 1.392 . S
C1602 C1603 1.385 . S
C1602 C1604 1.478 . S
C1603 H1597 0.930 . S
C1603 C1599 1.400 1_465 S
C1603 C1602 1.385 . S
C1604 C1602 1.478 . S
C1604 C1606 1.381 . S
C1604 C1610 1.383 . S
C1605 C1601 1.495 . S
C1605 H1611 0.959 . S
C1605 H1612 0.961 . S
C1605 H1613 0.960 . S
C1606 C1604 1.381 . S
C1606 C1607 1.394 . S
C1606 H1614 0.945 . S
C1607 C1606 1.394 . S
C1607 C1608 1.383 . S
C1607 H1615 0.929 . S
C1608 C1607 1.383 . S
C1608 C1609 1.377 . S
C1609 H1593 0.930 . S
C1609 C1608 1.377 . S
C1609 C1610 1.379 . S
C1610 H1594 0.931 . S
C1610 C1604 1.383 . S
C1610 C1609 1.379 . S
H1611 C1605 0.959 . S
H1612 C1605 0.961 . S
H1613 C1605 0.960 . S
H1614 C1606 0.945 . S
H1615 C1607 0.929 . S
H1616 C1624 0.929 . S
H1617 C1626 0.930 . S
H1618 C1628 0.930 . S
H1619 C1631 0.929 . S
H1620 C1634 0.930 . S
H1621 C1636 0.960 . S
H1622 C1636 0.960 . S
H1623 C1636 0.960 . S
C1624 H1616 0.929 . S
C1624 C1625 1.377 . S
C1624 C1626 1.384 . S
C1625 C1624 1.377 . S
C1625 C1631 1.390 . S
C1626 H1617 0.930 . S
C1626 C1624 1.384 . S
C1626 C1627 1.372 . S
C1627 C1626 1.372 . S
C1627 C1628 1.400 . S
C1627 C1632 1.490 . S
C1628 H1618 0.930 . S
C1628 C1627 1.400 . S
C1628 C1631 1.386 . S
H1629 C1645 0.930 . S
H1630 C1646 0.931 . S
C1631 H1619 0.929 . S
C1631 C1625 1.390 . S
C1631 C1628 1.386 . S
C1632 C1627 1.490 . S
C1632 C1634 1.395 . S
C1632 C1635 1.403 . S
H1633 C1639 0.930 . S
C1634 H1620 0.930 . S
C1634 C1632 1.395 . S
C1634 C1637 1.403 . S
C1635 C1632 1.403 . S
C1635 C1636 1.524 . S
C1635 C1639 1.400 . S
C1636 H1621 0.960 . S
C1636 H1622 0.960 . S
C1636 H1623 0.960 . S
C1636 C1635 1.524 . S
C1637 C1634 1.403 . S
C1637 C1638 1.392 . S
C1637 C1641 1.495 . S
C1638 C1637 1.392 . S
C1638 C1639 1.385 . S
C1638 C1640 1.478 . S
C1639 H1633 0.930 . S
C1639 C1635 1.400 . S
C1639 C1638 1.385 . S
C1640 C1638 1.478 . S
C1640 C1642 1.381 . S
C1640 C1646 1.383 . S
C1641 C1637 1.495 . S
C1641 H1647 0.959 . S
C1641 H1648 0.961 . S
C1641 H1649 0.960 . S
C1642 C1640 1.381 . S
C1642 C1643 1.394 . S
C1642 H1650 0.930 . S
C1643 C1642 1.394 . S
C1643 C1644 1.383 . S
C1643 H1651 0.929 . S
C1644 C1643 1.383 . S
C1644 C1645 1.377 . S
C1645 H1629 0.930 . S
C1645 C1644 1.377 . S
C1645 C1646 1.379 . S
C1646 H1630 0.931 . S
C1646 C1640 1.383 . S
C1646 C1645 1.379 . S
H1647 C1641 0.959 . S
H1648 C1641 0.961 . S
H1649 C1641 0.960 . S
H1650 C1642 0.930 . S
H1651 C1643 0.929 . S
H1652 C1660 0.929 . S
H1653 C1662 0.930 . S
H1654 C1664 0.930 . S
H1655 C1667 0.929 . S
H1656 C1670 0.930 . S
H1657 C1672 0.960 . S
H1658 C1672 0.960 . S
H1659 C1672 0.960 . S
C1660 H1652 0.929 . S
C1660 C1661 1.377 . S
C1660 C1662 1.384 . S
C1661 C1660 1.377 . S
C1661 C1667 1.390 . S
C1662 H1653 0.930 . S
C1662 C1660 1.384 . S
C1662 C1663 1.372 . S
C1663 C1662 1.372 . S
C1663 C1664 1.400 . S
C1663 C1668 1.490 . S
C1664 H1654 0.930 . S
C1664 C1663 1.400 . S
C1664 C1667 1.386 . S
H1665 C1681 0.930 . S
H1666 C1682 0.931 . S
C1667 H1655 0.929 . S
C1667 C1661 1.390 . S
C1667 C1664 1.386 . S
C1668 C1663 1.490 . S
C1668 C1670 1.395 . S
C1668 C1671 1.403 1_565 S
H1669 C1675 0.930 . S
C1670 H1656 0.930 . S
C1670 C1668 1.395 . S
C1670 C1673 1.403 . S
C1671 C1668 1.403 1_545 S
C1671 C1672 1.524 . S
C1671 C1675 1.400 . S
C1672 H1657 0.960 . S
C1672 H1658 0.960 . S
C1672 H1659 0.960 . S
C1672 C1671 1.524 . S
C1673 C1670 1.403 . S
C1673 C1674 1.392 1_565 S
C1673 C1677 1.495 . S
C1674 C1673 1.392 1_545 S
C1674 C1675 1.385 . S
C1674 C1676 1.478 . S
C1675 H1669 0.930 . S
C1675 C1671 1.400 . S
C1675 C1674 1.385 . S
C1676 C1674 1.478 . S
C1676 C1678 1.381 . S
C1676 C1682 1.383 . S
C1677 C1673 1.495 . S
C1677 H1683 0.959 . S
C1677 H1684 0.961 . S
C1677 H1685 0.960 . S
C1678 C1676 1.381 . S
C1678 C1679 1.394 . S
C1678 H1686 0.930 . S
C1679 C1678 1.394 . S
C1679 C1680 1.383 . S
C1679 H1687 0.929 . S
C1680 C1679 1.383 . S
C1680 C1681 1.377 . S
C1681 H1665 0.930 . S
C1681 C1680 1.377 . S
C1681 C1682 1.379 . S
C1682 H1666 0.931 . S
C1682 C1676 1.383 . S
C1682 C1681 1.379 . S
H1683 C1677 0.959 . S
H1684 C1677 0.961 . S
H1685 C1677 0.960 . S
H1686 C1678 0.930 . S
H1687 C1679 0.929 . S
C545 C45 0.964 . S
C564 C100 0.918 . S
C581 C41 0.947 . S
C600 C161 0.996 . S
C617 C234 0.961 . S
C636 C112 0.934 . S
C653 C175 0.963 . S
C672 C228 1.000 . S
C689 C246 0.964 . S
C708 C301 0.922 . S
C725 C362 0.958 . S
C744 C242 0.986 . S
C761 C313 0.948 . S
C780 C33 0.922 . S
C797 C376 0.948 . S
C816 C27 0.928 . S
C833 C368 0.958 . S
C852 C447 0.988 . S
C869 C443 0.964 . S
C888 C295 0.924 . S
C905 C502 0.966 . S
C924 C380 0.974 . S
C941 C496 0.967 . S
C960 C309 1.001 . S
C977 C514 0.950 . S
C996 C167 0.990 . S
C1013 C94 0.954 . S
C1032 C510 0.991 . S
C1049 C435 0.960 . S
C1068 C179 0.969 . S
C1085 C429 0.953 . S
C1104 C108 0.927 . S
C1121 C35 1.895 . S
C1140 C24 1.893 . S
C1157 C91 1.893 . S
C1176 C102 1.902 1_565 S
C1193 C158 1.896 1_545 S
C1212 C169 1.880 . S
C1229 C225 1.892 . S
C1248 C236 1.902 . S
C1265 C292 1.891 1_545 S
C1284 C303 1.891 . S
C1301 C359 1.893 . S
C1320 C370 1.902 1_565 S
C1337 C437 1.894 . S
C1356 C426 1.898 . S
C1373 C493 1.893 . S
C1392 C504 1.901 . S
C1409 C508 1.208 . S
C1428 C48 1.210 . S
C1445 C39 1.200 . S
C1464 C517 1.204 . S
C1481 C115 1.210 . S
C1500 C173 1.178 . S
C1517 C441 1.201 . S
C1536 C249 1.226 . S
C1553 C240 1.211 . S
C1572 C450 1.188 . S
C1589 C374 1.207 . S
C1608 C316 1.175 . S
C1625 C383 1.209 . S
C1644 C307 1.207 . S
C1661 C182 1.210 . S
C1680 C106 1.197 . S
