# Generated by pormake.
# Topology uni, (4)-cn, num edge types: 1
# Building blocks:
#     Node 0, Type 0, BuildingBlock: UXUYUI_clean_sbu_0, # of connection points: 4
#     Node 1, Type 0, BuildingBlock: UXUYUI_clean_sbu_0, # of connection points: 4
#     Node 2, Type 0, BuildingBlock: UXUYUI_clean_sbu_0, # of connection points: 4
#     Node 3, Type 0, BuildingBlock: UXUYUI_clean_sbu_0, # of connection points: 4
#     Node 4, Type 0, BuildingBlock: UXUYUI_clean_sbu_0, # of connection points: 4
#     Node 5, Type 0, BuildingBlock: UXUYUI_clean_sbu_0, # of connection points: 4
#     Edge 6, Type (0, 0), BuildingBlock: XUDNAN_clean_linker_2, # of connection points: 2
#     Edge 7, Type (0, 0), BuildingBlock: XUDNAN_clean_linker_2, # of connection points: 2
#     Edge 8, Type (0, 0), BuildingBlock: XUDNAN_clean_linker_2, # of connection points: 2
#     Edge 9, Type (0, 0), BuildingBlock: XUDNAN_clean_linker_2, # of connection points: 2
#     Edge 10, Type (0, 0), BuildingBlock: XUDNAN_clean_linker_2, # of connection points: 2
#     Edge 11, Type (0, 0), BuildingBlock: XUDNAN_clean_linker_2, # of connection points: 2
#     Edge 12, Type (0, 0), BuildingBlock: XUDNAN_clean_linker_2, # of connection points: 2
#     Edge 13, Type (0, 0), BuildingBlock: XUDNAN_clean_linker_2, # of connection points: 2
#     Edge 14, Type (0, 0), BuildingBlock: XUDNAN_clean_linker_2, # of connection points: 2
#     Edge 15, Type (0, 0), BuildingBlock: XUDNAN_clean_linker_2, # of connection points: 2
#     Edge 16, Type (0, 0), BuildingBlock: XUDNAN_clean_linker_2, # of connection points: 2
#     Edge 17, Type (0, 0), BuildingBlock: XUDNAN_clean_linker_2, # of connection points: 2
# Relax obj value: 0.104
# Max RMSD: 0.125
# Mean RMSD: 0.125
data_MOF--net-uni--node1-UXUYUI_clean_sbu_0--edge1-XUDNAN_clean_linker_2
_symmetry_space_group_name_H-M    P1
_symmetry_Int_Tables_number       1
_symmetry_cell_setting            triclinic
loop_
_symmetry_equiv_pos_as_xyz
'x, y, z'
_cell_length_a     56.770852
_cell_length_b     56.791435
_cell_length_c     34.011719
_cell_angle_alpha  90.008485
_cell_angle_beta   90.038222
_cell_angle_gamma 120.02511
loop_
_atom_site_label
_atom_site_type_symbol
_atom_site_fract_x
_atom_site_fract_y
_atom_site_fract_z
_atom_type_partial_charge
Li0 Li 0.66935 0.03871 0.0514 0.0
Li1 Li 0.62952 0.02278 0.09295 0.0
Li2 Li 0.64354 0.9914 0.0704 0.0
Li3 Li 0.62426 0.00963 0.02476 0.0
C4 C 0.6786 0.04319 0.13275 0.0
N5 N 0.70774 0.08311 0.18788 0.0
C6 C 0.68421 0.06982 0.12646 0.0
C7 C 0.68782 0.03686 0.16705 0.0
C8 C 0.69896 0.08972 0.15468 0.0
C9 C 0.70252 0.05733 0.19458 0.0
C10 C 0.62175 0.05611 0.0409 0.0
C11 C 0.57631 0.04938 0.04278 0.0
N12 N 0.58597 0.07501 0.02871 0.0
C13 C 0.63122 0.08236 0.02647 0.0
C14 C 0.59407 0.03945 0.04914 0.0
C15 C 0.61281 0.09155 0.02051 0.0
C16 C 0.70178 0.08115 1.00274 0.0
N17 N 0.70354 0.06863 0.0357 0.0
C18 C 0.75176 0.09853 0.0383 0.0
C19 C 0.72784 0.07682 0.05376 0.0
C20 C 0.75053 0.11154 0.0038 0.0
C21 C 0.72505 0.1027 0.98627 0.0
H22 H 0.68219 0.0741 0.98899 0.0
H23 H 0.72872 0.06633 0.07977 0.0
C24 C 0.5933 0.01028 0.15607 0.0
N25 N 0.61307 0.03135 0.13537 0.0
C26 C 0.57911 0.01503 0.18563 0.0
C27 C 0.6065 0.06322 0.17288 0.0
C28 C 0.61991 0.05749 0.14322 0.0
C29 C 0.58551 0.04182 0.19433 0.0
H30 H 0.5882 0.98969 0.14907 0.0
H31 H 0.63549 0.07391 0.12605 0.0
C32 C 0.67908 1.00366 0.00731 0.0
N33 N 0.72353 0.99853 0.98772 0.0
C34 C 0.68259 0.99766 0.96867 0.0
C35 C 0.6982 0.0071 0.03601 0.0
C36 C 0.70519 0.99513 0.95934 0.0
C37 C 0.72052 1.00441 0.02551 0.0
C38 C 0.58814 0.96008 0.05796 0.0
C39 C 0.59455 0.94917 0.02557 0.0
C40 C 0.56336 0.94445 0.07735 0.0
C41 C 0.57608 0.92276 0.01322 0.0
C42 C 0.54542 0.91813 0.06407 0.0
N43 N 0.5521 0.90791 0.03257 0.0
C44 C 0.63855 0.95353 0.12572 0.0
C45 C 0.64847 0.94309 0.06255 0.0
C46 C 0.63635 0.92977 0.1412 0.0
N47 N 0.6443 0.95963 0.08703 0.0
C48 C 0.64675 0.91918 0.07696 0.0
C49 C 0.64021 0.91209 0.11666 0.0
H50 H 0.63513 0.96696 0.14438 0.0
H51 H 0.6525 0.94808 0.03171 0.0
C52 C 0.61841 0.02071 0.94744 0.0
N53 N 0.60357 0.00548 0.97849 0.0
C54 C 0.60544 0.02307 0.91408 0.0
C55 C 0.56205 0.993 0.94445 0.0
C56 C 0.57589 0.99142 0.97749 0.0
C57 C 0.5769 0.00957 0.91264 0.0
H58 H 0.64038 0.03196 0.94936 0.0
H59 H 0.56453 0.98002 1.00295 0.0
O60 O 0.66418 0.02325 0.10568 0.0
O61 O 0.63958 0.04685 0.04655 0.0
O62 O 0.6571 0.00633 0.01661 0.0
O63 O 0.60587 0.98586 0.07087 0.0
H64 H 0.67727 0.07515 0.10011 0.0
H65 H 0.68364 0.01632 0.17232 0.0
H66 H 0.70343 0.11041 0.15019 0.0
H67 H 0.70978 0.05271 0.22127 0.0
H68 H 0.55485 0.03671 0.049 0.0
H69 H 0.65258 0.09549 0.01992 0.0
H70 H 0.58633 0.01905 0.06026 0.0
H71 H 0.61985 0.11183 0.00934 0.0
H72 H 0.77104 0.1046 0.05254 0.0
H73 H 0.72308 0.11237 0.96001 0.0
H74 H 0.56284 0.99779 0.20073 0.0
H75 H 0.61253 0.08422 0.1788 0.0
H76 H 0.66798 0.995 0.94612 0.0
H77 H 0.69587 0.01173 0.06608 0.0
H78 H 0.70815 0.99048 0.92954 0.0
H79 H 0.73546 0.00701 0.04741 0.0
H80 H 0.61351 0.96088 0.00999 0.0
H81 H 0.55802 0.9526 0.10237 0.0
H82 H 0.58081 0.91407 0.98824 0.0
H83 H 0.52618 0.90582 0.07882 0.0
H84 H 0.63149 0.92516 0.17204 0.0
H85 H 0.64956 0.90592 0.057 0.0
H86 H 0.61761 0.0359 0.89005 0.0
H87 H 0.54002 0.98257 0.94465 0.0
Li88 Li 0.64608 0.66699 0.22039 0.0
Li89 Li 0.62269 0.62327 0.25691 0.0
Li90 Li 0.67002 0.64171 0.22863 0.0
Li91 Li 0.63004 0.62234 0.18485 0.0
C92 C 0.66562 0.67893 0.29515 0.0
N93 N 0.68225 0.72344 0.34378 0.0
C94 C 0.64915 0.67787 0.32641 0.0
C95 C 0.69067 0.70244 0.28889 0.0
C96 C 0.6579 0.70064 0.35061 0.0
C97 C 0.69867 0.72479 0.31372 0.0
C98 C 0.58144 0.62653 0.21102 0.0
C99 C 0.53563 0.59007 0.19932 0.0
N100 N 0.52618 0.60744 0.20642 0.0
C101 C 0.57129 0.64408 0.21784 0.0
C102 C 0.5635 0.59935 0.20139 0.0
C103 C 0.54328 0.63402 0.21552 0.0
C104 C 0.6571 0.71502 0.18003 0.0
N105 N 0.64804 0.70145 0.21465 0.0
C106 C 0.63566 0.73369 0.23707 0.0
C107 C 0.6376 0.71041 0.24308 0.0
C108 C 0.64388 0.74764 0.20101 0.0
C109 C 0.65521 0.73826 0.17254 0.0
H110 H 0.66477 0.70716 0.15753 0.0
H111 H 0.62972 0.69887 0.26983 0.0
C112 C 0.60233 0.58524 0.31935 0.0
N113 N 0.5984 0.60361 0.29896 0.0
C114 C 0.58353 0.56875 0.34785 0.0
C115 C 0.55745 0.59088 0.33453 0.0
C116 C 0.57693 0.60721 0.3068 0.0
C117 C 0.56044 0.57109 0.35501 0.0
H118 H 0.61969 0.58292 0.31272 0.0
H119 H 0.57466 0.62248 0.29117 0.0
C120 C 0.68828 0.66786 0.15847 0.0
N121 N 0.7364 0.6887 0.11698 0.0
C122 C 0.69 0.65408 0.12553 0.0
C123 C 0.71087 0.69239 0.17002 0.0
C124 C 0.71456 0.66492 0.10501 0.0
C125 C 0.73507 0.70254 0.14875 0.0
C126 C 0.62835 0.5767 0.22196 0.0
C127 C 0.64572 0.56708 0.21081 0.0
C128 C 0.60072 0.55828 0.22782 0.0
C129 C 0.63504 0.5392 0.20498 0.0
C130 C 0.59081 0.53056 0.22172 0.0
N131 N 0.60803 0.52168 0.21047 0.0
C132 C 0.71707 0.65195 0.27246 0.0
C133 C 0.71413 0.63419 0.20851 0.0
C134 C 0.7406 0.65059 0.28027 0.0
N135 N 0.70422 0.6435 0.23718 0.0
C136 C 0.73765 0.63274 0.21486 0.0
C137 C 0.75095 0.64041 0.25146 0.0
H138 H 0.70857 0.6589 0.29502 0.0
H139 H 0.70328 0.62703 0.18104 0.0
C140 C 0.59932 0.61304 0.11708 0.0
N141 N 0.61379 0.6037 0.13691 0.0
C142 C 0.58609 0.60072 0.08208 0.0
C143 C 0.60344 0.56974 0.0877 0.0
C144 C 0.61632 0.58266 0.12279 0.0
C145 C 0.58804 0.57875 0.06684 0.0
H146 H 0.59792 0.63003 0.12866 0.0
H147 H 0.62847 0.576 0.13845 0.0
O148 O 0.65735 0.6569 0.27109 0.0
O149 O 0.60882 0.63607 0.21332 0.0
O150 O 0.66447 0.6575 0.17899 0.0
O151 O 0.63852 0.60393 0.22789 0.0
H152 H 0.62976 0.65974 0.33174 0.0
H153 H 0.70376 0.70342 0.2651 0.0
H154 H 0.64531 0.70019 0.37479 0.0
H155 H 0.71796 0.74318 0.30911 0.0
H156 H 0.52153 0.56907 0.19193 0.0
H157 H 0.58488 0.66522 0.22507 0.0
H158 H 0.571 0.58564 0.19512 0.0
H159 H 0.53515 0.64735 0.22094 0.0
H160 H 0.62719 0.74029 0.26022 0.0
H161 H 0.66146 0.74798 0.14409 0.0
H162 H 0.58649 0.55367 0.36306 0.0
H163 H 0.54012 0.59358 0.33975 0.0
H164 H 0.67262 0.63513 0.11611 0.0
H165 H 0.70973 0.70344 0.19515 0.0
H166 H 0.71626 0.6544 0.0796 0.0
H167 H 0.75277 0.72144 0.15746 0.0
H168 H 0.66719 0.58097 0.2065 0.0
H169 H 0.58708 0.56523 0.23735 0.0
H170 H 0.64822 0.53151 0.19611 0.0
H171 H 0.56946 0.5161 0.22607 0.0
H172 H 0.7499 0.65644 0.30906 0.0
H173 H 0.74503 0.6252 0.19146 0.0
H174 H 0.57419 0.60819 0.06738 0.0
H175 H 0.60586 0.55317 0.07674 0.0
Li176 Li 0.99578 0.64064 0.38007 0.0
Li177 Li 0.01425 0.61969 0.42701 0.0
Li178 Li 0.04431 0.66542 0.3966 0.0
Li179 Li 0.02518 0.62486 0.3578 0.0
C180 C 0.99442 0.6515 0.46122 0.0
N181 N 0.95713 0.64527 0.51829 0.0
C182 C 0.97078 0.62633 0.46642 0.0
C183 C 0.99913 0.67346 0.48509 0.0
C184 C 0.95218 0.6236 0.49544 0.0
C185 C 0.98 0.66991 0.51374 0.0
C186 C 0.97914 0.57885 0.36221 0.0
C187 C 0.97911 0.53701 0.34966 0.0
N188 N 0.96108 0.53131 0.31982 0.0
C189 C 0.96048 0.57248 0.33158 0.0
C190 C 0.98845 0.56091 0.37144 0.0
C191 C 0.95165 0.5484 0.31043 0.0
C192 C 0.95887 0.63784 0.32503 0.0
N193 N 0.96491 0.64357 0.36375 0.0
C194 C 0.92585 0.64873 0.37252 0.0
C195 C 0.9494 0.64979 0.38734 0.0
C196 C 0.91832 0.64127 0.33312 0.0
C197 C 0.93558 0.63647 0.30908 0.0
H198 H 0.9719 0.63366 0.30667 0.0
H199 H 0.95485 0.65507 0.41776 0.0
C200 C 0.0247 0.61276 0.50546 0.0
N201 N 0.00879 0.5993 0.47405 0.0
C202 C 0.02209 0.599 0.54069 0.0
C203 C 0.98703 0.55771 0.51043 0.0
C204 C 0.98985 0.57241 0.4761 0.0
C205 C 1.0033 0.57108 0.54316 0.0
H206 H 0.03945 0.63421 0.50305 0.0
H207 H 0.97685 0.56233 0.45121 0.0
C208 C 0.02899 0.68353 0.3321 0.0
N209 N 0.03254 0.73174 0.30831 0.0
C210 C 0.0357 0.69234 0.29323 0.0
C211 C 0.02407 0.69928 0.35889 0.0
C212 C 0.0374 0.71676 0.28178 0.0
C213 C 0.02597 0.72357 0.34627 0.0
C214 C 0.07269 0.63294 0.3924 0.0
C215 C 0.08919 0.64905 0.36167 0.0
C216 C 0.07905 0.61518 0.41189 0.0
C217 C 0.1119 0.64711 0.35087 0.0
C218 C 0.10195 0.61384 0.40023 0.0
N219 N 0.11775 0.6297 0.37022 0.0
C220 C 0.08395 0.70793 0.44408 0.0
C221 C 0.09213 0.71422 0.37554 0.0
C222 C 0.1088 0.73146 0.45199 0.0
N223 N 0.07632 0.69965 0.40636 0.0
C224 C 0.11705 0.73779 0.38206 0.0
C225 C 0.12598 0.74644 0.42072 0.0
H226 H 0.07108 0.6958 0.46806 0.0
H227 H 0.08576 0.70714 0.34582 0.0
C228 C 0.02648 0.61491 0.27749 0.0
N229 N 0.0319 0.60817 0.31336 0.0
C230 C 0.03012 0.6034 0.24341 0.0
C231 C 0.04436 0.57773 0.28374 0.0
C232 C 0.04083 0.59005 0.31704 0.0
C233 C 0.03907 0.58447 0.24633 0.0
H234 H 0.01906 0.62907 0.2754 0.0
H235 H 0.04479 0.58477 0.34583 0.0
O236 O 0.01319 0.65465 0.43348 0.0
O237 O 0.98836 0.60255 0.38291 0.0
O238 O 0.02728 0.6596 0.34352 0.0
O239 O 0.05015 0.63418 0.40309 0.0
H240 H 0.96672 0.60912 0.44814 0.0
H241 H 0.0174 0.69303 0.48149 0.0
H242 H 0.93379 0.60427 0.49976 0.0
H243 H 0.98336 0.68675 0.5324 0.0
H244 H 0.98636 0.5231 0.35627 0.0
H245 H 0.9528 0.58589 0.32421 0.0
H246 H 1.00329 0.56573 0.39455 0.0
H247 H 0.93727 0.54327 0.28658 0.0
H248 H 0.91317 0.6527 0.39204 0.0
H249 H 0.93092 0.63128 0.27832 0.0
H250 H 0.03491 0.6099 0.56551 0.0
H251 H 0.97207 0.53624 0.51163 0.0
H252 H 0.03963 0.68044 0.27214 0.0
H253 H 0.01885 0.69292 0.38907 0.0
H254 H 0.0426 0.72382 0.25179 0.0
H255 H 0.02221 0.73593 0.36668 0.0
H256 H 0.08423 0.66254 0.34588 0.0
H257 H 0.06636 0.60249 0.43565 0.0
H258 H 0.12479 0.65936 0.32701 0.0
H259 H 0.10712 0.60016 0.41499 0.0
H260 H 0.11495 0.73723 0.48224 0.0
H261 H 0.1294 0.7489 0.35703 0.0
H262 H 0.02553 0.60889 0.2151 0.0
H263 H 0.05141 0.5633 0.28715 0.0
Li264 Li 0.40945 0.00983 0.59065 0.0
Li265 Li 0.37068 0.99155 0.54714 0.0
Li266 Li 0.41538 0.02346 0.52264 0.0
Li267 Li 0.39222 0.03856 0.56713 0.0
C268 C 0.39551 0.96058 0.55507 0.0
N269 N 0.38032 0.90809 0.57747 0.0
C270 C 0.37972 0.9493 0.58879 0.0
C271 C 0.4036 0.94517 0.53281 0.0
C272 C 0.37224 0.92273 0.59959 0.0
C273 C 0.39571 0.91867 0.54462 0.0
C274 C 0.34864 1.00262 0.61257 0.0
C275 C 0.3071 1.00251 0.59725 0.0
N276 N 0.29909 0.99628 0.63534 0.0
C277 C 0.34001 0.99623 0.65153 0.0
C278 C 0.33208 0.0058 0.58515 0.0
C279 C 0.31488 0.9931 0.66248 0.0
C280 C 0.43038 0.0224 0.66576 0.0
N281 N 0.42763 0.00584 0.63515 0.0
C282 C 0.45664 0.99235 0.6669 0.0
C283 C 0.44015 0.99072 0.63521 0.0
C284 C 0.46069 0.01017 0.69813 0.0
C285 C 0.44697 0.02497 0.69764 0.0
H286 H 0.42055 0.03452 0.66454 0.0
H287 H 0.43838 0.97834 0.61001 0.0
C288 C 0.33509 0.95589 0.49171 0.0
N289 N 0.33784 0.95986 0.5312 0.0
C290 C 0.3132 0.93238 0.47618 0.0
C291 C 0.29687 0.91755 0.54225 0.0
C292 C 0.31919 0.94145 0.55658 0.0
C293 C 0.29392 0.91258 0.50152 0.0
H294 H 0.35031 0.97083 0.47229 0.0
H295 H 0.322 0.94493 0.58793 0.0
C296 C 0.45773 0.0567 0.57308 0.0
N297 N 0.51276 0.07586 0.58191 0.0
C298 C 0.47478 0.08288 0.5876 0.0
C299 C 0.46864 0.04022 0.56307 0.0
C300 C 0.50256 0.09221 0.59184 0.0
C301 C 0.49652 0.05029 0.56775 0.0
C302 C 0.38549 0.04388 0.48686 0.0
C303 C 0.40718 0.07029 0.4926 0.0
C304 C 0.36857 0.03814 0.45415 0.0
C305 C 0.41157 0.09053 0.46543 0.0
C306 C 0.37363 0.05894 0.42765 0.0
N307 N 0.39485 0.08449 0.43379 0.0
C308 C 0.43495 0.01116 0.45481 0.0
C309 C 0.45856 0.05816 0.47033 0.0
C310 C 0.45166 0.01575 0.42224 0.0
N311 N 0.43873 0.03221 0.47812 0.0
C312 C 0.47558 0.06372 0.43779 0.0
C313 C 0.4723 0.04232 0.41337 0.0
H314 H 0.41892 0.99075 0.46162 0.0
H315 H 0.46133 0.07453 0.48952 0.0
C316 C 0.40218 0.08049 0.61744 0.0
N317 N 0.38772 0.06804 0.58453 0.0
C318 C 0.40026 0.10176 0.63458 0.0
C319 C 0.36884 0.09745 0.58329 0.0
C320 C 0.3712 0.07599 0.56724 0.0
C321 C 0.38331 0.11042 0.61768 0.0
H322 H 0.41508 0.07366 0.63057 0.0
H323 H 0.35967 0.06554 0.5413 0.0
O324 O 0.40299 0.98648 0.54355 0.0
O325 O 0.37327 0.00581 0.60168 0.0
O326 O 0.43045 0.04727 0.56926 0.0
O327 O 0.38071 0.02358 0.51286 0.0
H328 H 0.37334 0.96087 0.60656 0.0
H329 H 0.41587 0.9536 0.50668 0.0
H330 H 0.36001 0.91376 0.62559 0.0
H331 H 0.40183 0.90652 0.52765 0.0
H332 H 0.29408 1.00491 0.57635 0.0
H333 H 0.35263 0.99373 0.6731 0.0
H334 H 0.33833 0.01071 0.55486 0.0
H335 H 0.30794 0.98814 0.69255 0.0
H336 H 0.46721 0.98091 0.66606 0.0
H337 H 0.44957 0.03888 0.72124 0.0
H338 H 0.31154 0.92963 0.44459 0.0
H339 H 0.28263 0.90273 0.56285 0.0
H340 H 0.4666 0.09584 0.59556 0.0
H341 H 0.45577 0.01986 0.55191 0.0
H342 H 0.516 0.11245 0.60305 0.0
H343 H 0.50523 0.03776 0.56016 0.0
H344 H 0.42047 0.07519 0.51775 0.0
H345 H 0.35168 0.01779 0.44931 0.0
H346 H 0.42828 0.11104 0.46952 0.0
H347 H 0.36069 0.05478 0.4022 0.0
H348 H 0.44825 0.99873 0.40389 0.0
H349 H 0.49141 0.08447 0.43217 0.0
H350 H 0.41203 0.11141 0.66078 0.0
H351 H 0.35539 0.10339 0.56955 0.0
Li352 Li 0.41362 0.40462 0.7552 0.0
Li353 Li 0.39144 0.36271 0.71755 0.0
Li354 Li 0.40608 0.40596 0.68556 0.0
Li355 Li 0.36799 0.38746 0.73045 0.0
C356 C 0.45617 0.41162 0.70535 0.0
N357 N 0.51062 0.44831 0.69277 0.0
C358 C 0.47336 0.4027 0.69069 0.0
C359 C 0.4667 0.43919 0.71371 0.0
C360 C 0.50082 0.42157 0.68449 0.0
C361 C 0.49427 0.45743 0.70713 0.0
C362 C 0.38689 0.35753 0.79884 0.0
C363 C 0.37644 0.33337 0.8605 0.0
N364 N 0.39951 0.33183 0.85731 0.0
C365 C 0.41047 0.35563 0.79613 0.0
C366 C 0.3697 0.34624 0.83124 0.0
C367 C 0.4165 0.3426 0.826 0.0
C368 C 0.43106 0.44282 0.81463 0.0
N369 N 0.43698 0.4247 0.79787 0.0
C370 C 0.47713 0.4412 0.8373 0.0
C371 C 0.45923 0.42319 0.80902 0.0
C372 C 0.47215 0.46104 0.85346 0.0
C373 C 0.44855 0.46141 0.84239 0.0
H374 H 0.41311 0.44336 0.80546 0.0
H375 H 0.46365 0.40875 0.79497 0.0
C376 C 0.40305 0.32458 0.68246 0.0
N377 N 0.38736 0.32744 0.71008 0.0
C378 C 0.401 0.29928 0.67618 0.0
C379 C 0.36639 0.28026 0.72651 0.0
C380 C 0.36911 0.3059 0.7318 0.0
C381 C 0.38259 0.27669 0.69858 0.0
H382 H 0.41729 0.34204 0.66545 0.0
H383 H 0.35666 0.30858 0.75335 0.0
C384 C 0.39 0.44188 0.71233 0.0
N385 N 0.37253 0.47531 0.68049 0.0
C386 C 0.3745 0.43431 0.67783 0.0
C387 C 0.39674 0.46655 0.73047 0.0
C388 C 0.36583 0.45145 0.66225 0.0
C389 C 0.38768 0.48315 0.71397 0.0
C390 C 0.34644 0.3488 0.67081 0.0
C391 C 0.338 0.34221 0.63178 0.0
C392 C 0.33006 0.33186 0.70105 0.0
C393 C 0.31331 0.31868 0.6236 0.0
C394 C 0.30551 0.30852 0.69169 0.0
N395 N 0.29772 0.30246 0.65348 0.0
C396 C 0.41569 0.4123 0.6037 0.0
C397 C 0.43812 0.4535 0.63982 0.0
C398 C 0.4271 0.42622 0.56865 0.0
N399 N 0.4214 0.42606 0.63831 0.0
C400 C 0.45034 0.46814 0.60564 0.0
C401 C 0.44486 0.45447 0.56949 0.0
H402 H 0.40239 0.39048 0.6034 0.0
H403 H 0.44207 0.46406 0.66761 0.0
C404 C 0.32777 0.38122 0.78299 0.0
N405 N 0.33374 0.38412 0.744 0.0
C406 C 0.30273 0.37713 0.79616 0.0
C407 C 0.29075 0.38028 0.72893 0.0
C408 C 0.3159 0.38378 0.71692 0.0
C409 C 0.28385 0.37651 0.76897 0.0
H410 H 0.3424 0.38179 0.80386 0.0
H411 H 0.32097 0.38581 0.68601 0.0
O412 O 0.42925 0.39328 0.71157 0.0
O413 O 0.38033 0.37001 0.76989 0.0
O414 O 0.39894 0.42556 0.72814 0.0
O415 O 0.37056 0.37184 0.67907 0.0
H416 H 0.46555 0.3814 0.68418 0.0
H417 H 0.45375 0.44649 0.72513 0.0
H418 H 0.51435 0.41494 0.67312 0.0
H419 H 0.50266 0.47882 0.71345 0.0
H420 H 0.3633 0.32455 0.88573 0.0
H421 H 0.42393 0.36393 0.7712 0.0
H422 H 0.35125 0.34732 0.8337 0.0
H423 H 0.43467 0.34099 0.82424 0.0
H424 H 0.49527 0.44048 0.84507 0.0
H425 H 0.44396 0.4763 0.85454 0.0
H426 H 0.41409 0.29757 0.65462 0.0
H427 H 0.35162 0.26338 0.74401 0.0
H428 H 0.36925 0.41546 0.66308 0.0
H429 H 0.40892 0.4729 0.75698 0.0
H430 H 0.3538 0.4458 0.63561 0.0
H431 H 0.39273 0.50228 0.72775 0.0
H432 H 0.3504 0.35516 0.60803 0.0
H433 H 0.33613 0.33663 0.73145 0.0
H434 H 0.30654 0.31333 0.59351 0.0
H435 H 0.29266 0.29523 0.7148 0.0
H436 H 0.4225 0.41498 0.54131 0.0
H437 H 0.46367 0.48997 0.60735 0.0
H438 H 0.29815 0.37448 0.82731 0.0
H439 H 0.27655 0.37971 0.70714 0.0
Li440 Li 0.02463 0.40803 0.92775 0.0
Li441 Li 0.04192 0.38595 0.88153 0.0
Li442 Li 0.01246 0.40345 0.85616 0.0
Li443 Li 0.99536 0.36306 0.90002 0.0
C444 C 0.07275 0.44734 0.88075 0.0
N445 N 0.1221 0.49537 0.88108 0.0
C446 C 0.09605 0.44789 0.89536 0.0
C447 C 0.07458 0.47126 0.86632 0.0
C448 C 0.1208 0.47236 0.89525 0.0
C449 C 0.0997 0.49532 0.86676 0.0
C450 C 0.01602 0.35353 0.96123 0.0
C451 C 1.0018 0.30694 0.97741 0.0
N452 N 0.99074 0.30954 0.01145 0.0
C453 C 1.00467 0.35579 0.99647 0.0
C454 C 0.01474 0.32897 0.95168 0.0
C455 C 0.99194 0.33331 0.02145 0.0
C456 C 0.01052 0.4276 0.99532 0.0
N457 N 0.03179 0.43177 0.9721 0.0
C458 C 0.06154 0.4725 0.00727 0.0
C459 C 0.05712 0.45332 0.97827 0.0
C460 C 0.03972 0.46937 0.0305 0.0
C461 C 0.01405 0.44621 0.02488 0.0
H462 H 0.99057 0.41022 0.99012 0.0
H463 H 0.07389 0.45606 0.96027 0.0
C464 C 0.08576 0.39157 0.8334 0.0
N465 N 0.07305 0.38271 0.86867 0.0
C466 C 0.10759 0.38788 0.8234 0.0
C467 C 0.10387 0.36753 0.88713 0.0
C468 C 0.08192 0.37126 0.89564 0.0
C469 C 0.1168 0.37543 0.8503 0.0
H470 H 0.07857 0.40103 0.8127 0.0
H471 H 0.07191 0.36502 0.92384 0.0
C472 C 0.97842 0.41143 0.90841 0.0
N473 N 0.95897 0.44695 0.91832 0.0
C474 C 0.95114 0.40151 0.91813 0.0
C475 C 0.99582 0.4394 0.90385 0.0
C476 C 0.94169 0.4198 0.92298 0.0
C477 C 0.9856 0.45703 0.90895 0.0
C478 C 0.01885 0.35784 0.8163 0.0
C479 C 0.02293 0.36882 0.77848 0.0
C480 C 0.0245 0.33697 0.82398 0.0
C481 C 0.03298 0.35903 0.74911 0.0
C482 C 0.03457 0.32776 0.79384 0.0
N483 N 0.03859 0.3389 0.75734 0.0
C484 C 0.02705 0.43724 0.78922 0.0
C485 C 0.98147 0.42017 0.80986 0.0
C486 C 0.02424 0.45326 0.7605 0.0
N487 N 1.00598 0.42153 0.81364 0.0
C488 C 0.97795 0.43628 0.78211 0.0
C489 C 0.99964 0.45336 0.75742 0.0
H490 H 0.04629 0.43785 0.79277 0.0
H491 H 0.96487 0.40718 0.82912 0.0
C492 C 0.94607 0.32583 0.93909 0.0
N493 N 0.96399 0.32836 0.91059 0.0
C494 C 0.92282 0.30061 0.94622 0.0
C495 C 0.93715 0.28114 0.89486 0.0
C496 C 0.95998 0.30666 0.88869 0.0
C497 C 0.91796 0.27786 0.92362 0.0
H498 H 0.94972 0.34347 0.95604 0.0
H499 H 0.97443 0.30917 0.86618 0.0
O500 O 0.04835 0.42352 0.8802 0.0
O501 O 0.02787 0.37509 0.93589 0.0
O502 O 0.98796 0.39375 0.90377 0.0
O503 O 0.00921 0.36736 0.84551 0.0
H504 H 0.09499 0.42974 0.90728 0.0
H505 H 0.05681 0.4713 0.85495 0.0
H506 H 0.13895 0.47308 0.90659 0.0
H507 H 0.10138 0.51397 0.85571 0.0
H508 H 1.00047 0.28776 0.97024 0.0
H509 H 1.00548 0.37463 0.00432 0.0
H510 H 0.02333 0.32683 0.92447 0.0
H511 H 0.98293 0.33472 0.04872 0.0
H512 H 0.08178 0.48981 0.01114 0.0
H513 H 0.99665 0.44306 0.04206 0.0
H514 H 0.1167 0.39419 0.79459 0.0
H515 H 0.11066 0.3586 0.90935 0.0
H516 H 0.93743 0.3799 0.92185 0.0
H517 H 0.017 0.4474 0.8966 0.0
H518 H 0.92061 0.41242 0.93046 0.0
H519 H 0.99885 0.47872 0.90551 0.0
H520 H 0.01834 0.3847 0.77182 0.0
H521 H 0.02169 0.32835 0.85311 0.0
H522 H 0.03633 0.36743 0.71975 0.0
H523 H 0.03931 0.31184 0.79952 0.0
H524 H 0.04144 0.46627 0.74201 0.0
H525 H 0.9586 0.43566 0.78026 0.0
H526 H 0.90848 0.29914 0.96842 0.0
H527 H 0.93454 0.26415 0.87716 0.0
H528 H 0.56409 0.01444 0.26405 0.0
H529 H 0.5709 0.08131 0.19338 0.0
H530 H 0.54448 0.08991 0.24295 0.0
H531 H 0.49486 0.98927 0.29238 0.0
H532 H 0.49929 0.97955 0.34107 0.0
H533 H 0.52031 0.97976 0.3013 0.0
H534 H 0.56356 0.01218 0.34104 0.0
H535 H 0.54267 0.01208 0.38096 0.0
H536 H 0.56768 0.04383 0.3593 0.0
H537 H 0.51648 0.09078 0.29979 0.0
H538 H 0.48763 0.08263 0.35842 0.0
H539 H 0.49725 0.01391 0.39007 0.0
C540 C 0.55996 0.03082 0.25872 0.0
C541 C 0.5699 0.0473 0.22472 0.0
C542 C 0.56416 0.06873 0.21947 0.0
C543 C 0.54896 0.07368 0.24736 0.0
C544 C 0.53941 0.05694 0.28032 0.0
C545 C 0.54458 0.03587 0.28603 0.0
C546 C 0.53117 0.02025 0.32325 0.0
C547 C 0.51016 0.99045 0.31392 0.0
C548 C 0.55255 0.02222 0.35289 0.0
C549 C 0.5175 0.03574 0.33746 0.0
C550 C 0.52269 0.05699 0.31248 0.0
C551 C 0.5123 0.07422 0.31959 0.0
C552 C 0.49605 0.06952 0.35302 0.0
C553 C 0.49017 0.04763 0.37872 0.0
C554 C 0.50116 0.03063 0.37074 0.0
H555 H 0.56647 0.55838 0.43089 0.0
H556 H 0.506 0.54138 0.34065 0.0
H557 H 0.46984 0.50927 0.3854 0.0
H558 H 0.53634 0.49071 0.47076 0.0
H559 H 0.54457 0.50196 0.52102 0.0
H560 H 0.56574 0.52324 0.48168 0.0
H561 H 0.55905 0.56269 0.50632 0.0
H562 H 0.53787 0.54153 0.54575 0.0
H563 H 0.52507 0.55711 0.51229 0.0
H564 H 0.44052 0.47801 0.43915 0.0
H565 H 0.41957 0.4521 0.50008 0.0
H566 H 0.49874 0.49097 0.55644 0.0
C567 C 0.54561 0.54779 0.42061 0.0
C568 C 0.53895 0.55225 0.38237 0.0
C569 C 0.51143 0.53833 0.36998 0.0
C570 C 0.49082 0.51999 0.39509 0.0
C571 C 0.49803 0.51603 0.43264 0.0
C572 C 0.52471 0.52971 0.44554 0.0
C573 C 0.52685 0.52232 0.48768 0.0
C574 C 0.54441 0.50875 0.49043 0.0
C575 C 0.53786 0.54741 0.51459 0.0
C576 C 0.49724 0.50225 0.49635 0.0
C577 C 0.48099 0.49872 0.46409 0.0
C578 C 0.45301 0.48071 0.46468 0.0
C579 C 0.44131 0.46601 0.49927 0.0
C580 C 0.45753 0.46967 0.53286 0.0
C581 C 0.48584 0.48804 0.53127 0.0
H582 H 0.01071 0.45995 0.67838 0.0
H583 H 0.98322 0.48963 0.77537 0.0
H584 H 0.98099 0.52303 0.73107 0.0
H585 H 0.0523 0.52385 0.63107 0.0
H586 H 0.04306 0.51049 0.58188 0.0
H587 H 0.04243 0.48891 0.62115 0.0
H588 H 0.99199 0.45424 0.6055 0.0
H589 H 0.99249 0.47567 0.56609 0.0
H590 H 0.9674 0.46548 0.60451 0.0
H591 H 0.98449 0.55498 0.67714 0.0
H592 H 0.98941 0.58049 0.61566 0.0
H593 H 0.01154 0.52801 0.55285 0.0
C594 C 1.00417 0.47347 0.69014 0.0
C595 C 0.99716 0.47234 0.73019 0.0
C596 C 0.98848 0.49014 0.74465 0.0
C597 C 0.98728 0.50921 0.71979 0.0
C598 C 0.99446 0.50994 0.68045 0.0
C599 C 1.00238 0.4923 0.66555 0.0
C600 C 0.00848 0.49695 0.62197 0.0
C601 C 0.03834 0.50557 0.61354 0.0
C602 C 0.98892 0.47157 0.59812 0.0
C603 C 1.00306 0.52014 0.6148 0.0
C604 C 0.99525 0.52751 0.649 0.0
C605 C 0.99027 0.54919 0.65009 0.0
C606 C 0.99318 0.56359 0.61521 0.0
C607 C 1.00058 0.55596 0.57978 0.0
C608 C 1.00551 0.53394 0.57959 0.0
H609 H 0.53241 0.97209 0.87019 0.0
H610 H 0.58961 0.05855 0.88103 0.0
H611 H 0.56619 0.06783 0.82729 0.0
H612 H 0.52699 0.97137 0.76395 0.0
H613 H 0.49121 0.94653 0.76332 0.0
H614 H 0.51242 0.94652 0.80275 0.0
H615 H 0.48046 0.95022 0.85361 0.0
H616 H 0.45918 0.95027 0.81434 0.0
H617 H 0.47323 0.97764 0.84962 0.0
H618 H 0.53593 0.06809 0.77446 0.0
H619 H 0.50186 0.05908 0.72276 0.0
H620 H 0.46484 0.97239 0.74389 0.0
C621 C 0.53994 0.99294 0.86118 0.0
C622 C 0.56291 0.01461 0.87961 0.0
C623 C 0.5723 0.04163 0.86693 0.0
C624 C 0.55904 0.04712 0.83661 0.0
C625 C 0.53651 0.02535 0.81904 0.0
C626 C 0.5271 0.99878 0.83057 0.0
C627 C 0.50259 0.97918 0.80634 0.0
C628 C 0.50868 0.95976 0.78269 0.0
C629 C 0.47737 0.9634 0.83255 0.0
C630 C 0.49965 0.99892 0.7796 0.0
C631 C 0.51934 0.02546 0.7877 0.0
C632 C 0.52047 0.0474 0.76772 0.0
C633 C 0.50099 0.0421 0.73859 0.0
C634 C 0.48078 0.01508 0.72947 0.0
C635 C 0.48022 0.99322 0.75015 0.0
H636 H 0.56069 0.52407 0.04834 0.0
H637 H 0.58378 0.60363 1.00045 0.0
H638 H 0.55812 0.58201 0.93998 0.0
H639 H 0.56489 0.49381 0.95478 0.0
H640 H 0.53602 0.46101 0.9661 0.0
H641 H 0.55722 0.48274 0.00518 0.0
H642 H 0.5149 0.48003 0.03848 0.0
H643 H 0.49361 0.45842 0.99947 0.0
H644 H 0.49376 0.48948 0.01094 0.0
H645 H 0.52762 0.55214 0.887 0.0
H646 H 0.49548 0.51548 0.84296 0.0
H647 H 0.49357 0.45508 0.92289 0.0
C648 C 0.56078 0.53698 0.02486 0.0
C649 C 0.57412 0.56559 0.02937 0.0
C650 C 0.57334 0.58168 0.99808 0.0
C651 C 0.55898 0.56961 0.96346 0.0
C652 C 0.5457 0.5414 0.96027 0.0
C653 C 0.54664 0.52525 0.9899 0.0
C654 C 0.52994 0.49535 0.97922 0.0
C655 C 0.54811 0.48247 0.97613 0.0
C656 C 0.50667 0.47992 0.00878 0.0
C657 C 0.51915 0.49725 0.93926 0.0
C658 C 0.52854 0.52405 0.92899 0.0
C659 C 0.52038 0.53109 0.89446 0.0
C660 C 0.50206 0.51018 0.86976 0.0
C661 C 0.49224 0.48259 0.87956 0.0
C662 C 0.50112 0.47606 0.91456 0.0
H663 H 0.0205 0.46305 0.10638 0.0
H664 H 0.06715 0.52423 0.01845 0.0
H665 H 0.07271 0.56028 0.06446 0.0
H666 H 0.98487 0.49523 0.14498 0.0
H667 H 0.98606 0.48582 0.19525 0.0
H668 H 0.98611 0.46477 0.15567 0.0
H669 H 0.0307 0.46884 0.18268 0.0
H670 H 0.03079 0.48991 0.22235 0.0
H671 H 0.05993 0.50207 0.19048 0.0
H672 H 0.07167 0.58953 0.11875 0.0
H673 H 0.06576 0.61026 0.17914 0.0
H674 H 0.0207 0.53038 0.23256 0.0
C675 C 0.03186 0.48404 0.09685 0.0
C676 C 0.0435 0.49086 0.05888 0.0
C677 C 0.05839 0.51857 0.04758 0.0
C678 C 0.06153 0.53918 0.07342 0.0
C679 C 0.0498 0.53178 0.11058 0.0
C680 C 0.0354 0.50492 0.12243 0.0
C681 C 0.02491 0.50254 0.16406 0.0
C682 C 0.99363 0.48612 0.16502 0.0
C683 C 0.03733 0.49011 0.19151 0.0
C684 C 0.03549 0.53224 0.1736 0.0
C685 C 0.04968 0.54874 0.14226 0.0
C686 C 0.06073 0.57685 0.14358 0.0
C687 C 0.05718 0.58842 0.17788 0.0
C688 C 0.04289 0.57193 0.21047 0.0
C689 C 0.03203 0.54349 0.20825 0.0
H690 H 0.67586 0.79434 0.15763 0.0
H691 H 0.6004 0.75291 0.22388 0.0
H692 H 0.59183 0.79044 0.20989 0.0
H693 H 0.69476 0.86254 0.18566 0.0
H694 H 0.70773 0.87685 0.13785 0.0
H695 H 0.70854 0.84702 0.15383 0.0
H696 H 0.68169 0.82117 0.09161 0.0
H697 H 0.68079 0.85092 0.07545 0.0
H698 H 0.64956 0.81899 0.0809 0.0
H699 H 0.59123 0.83226 0.18938 0.0
H700 H 0.59825 0.87557 0.16211 0.0
H701 H 0.67287 0.88939 0.10643 0.0
C702 C 0.65744 0.79302 0.16904 0.0
C703 C 0.63903 0.77067 0.19241 0.0
C704 C 0.61527 0.77002 0.20686 0.0
C705 C 0.61004 0.79116 0.19876 0.0
C706 C 0.62859 0.81281 0.1758 0.0
C707 C 0.65174 0.81389 0.16094 0.0
C708 C 0.66812 0.8394 0.13655 0.0
C709 C 0.69647 0.85752 0.15456 0.0
C710 C 0.67015 0.83218 0.09358 0.0
C711 C 0.65055 0.85247 0.14018 0.0
C712 C 0.62791 0.83679 0.1631 0.0
C713 C 0.60887 0.84472 0.17136 0.0
C714 C 0.6131 0.86941 0.1559 0.0
C715 C 0.63612 0.88587 0.13227 0.0
C716 C 0.65497 0.87712 0.12414 0.0
H717 H 0.89464 0.67316 0.34389 0.0
H718 H 0.88217 0.59923 0.28736 0.0
H719 H 0.83845 0.59131 0.26068 0.0
H720 H 0.82428 0.64778 0.37079 0.0
H721 H 0.82528 0.67946 0.36104 0.0
H722 H 0.85576 0.67952 0.37602 0.0
H723 H 0.88058 0.70707 0.31379 0.0
H724 H 0.85019 0.7071 0.29864 0.0
H725 H 0.86607 0.69416 0.26601 0.0
H726 H 0.79604 0.59074 0.24091 0.0
H727 H 0.75754 0.59797 0.22782 0.0
H728 H 0.79732 0.67303 0.29526 0.0
C729 C 0.88261 0.65525 0.32607 0.0
C730 C 0.89194 0.6369 0.31749 0.0
C731 C 0.87569 0.6138 0.2938 0.0
C732 C 0.85073 0.60902 0.2787 0.0
C733 C 0.84221 0.62753 0.28747 0.0
C734 C 0.8576 0.65021 0.3105 0.0
C735 C 0.84368 0.66697 0.31495 0.0
C736 C 0.83685 0.66851 0.35828 0.0
C737 C 0.86118 0.69552 0.29729 0.0
C738 C 0.81809 0.65009 0.29087 0.0
C739 C 0.81771 0.62741 0.27544 0.0
C740 C 0.7962 0.60856 0.25252 0.0
C741 C 0.77449 0.61301 0.24497 0.0
C742 C 0.77441 0.63628 0.25999 0.0
C743 C 0.79659 0.65498 0.28343 0.0
H744 H 0.1417 0.78737 0.47601 0.0
H745 H 0.17307 0.75865 0.38251 0.0
H746 H 0.21904 0.79755 0.39368 0.0
H747 H 0.18371 0.85866 0.45576 0.0
H748 H 0.18886 0.86875 0.50672 0.0
H749 H 0.15824 0.83847 0.49178 0.0
H750 H 0.16804 0.81019 0.54211 0.0
H751 H 0.19871 0.8404 0.55719 0.0
H752 H 0.2002 0.81104 0.5405 0.0
H753 H 0.26143 0.83928 0.41433 0.0
H754 H 0.29791 0.88182 0.44302 0.0
H755 H 0.23978 0.88414 0.52353 0.0
C756 C 0.15828 0.78918 0.45808 0.0
C757 C 0.15366 0.77001 0.42812 0.0
C758 C 0.17592 0.77328 0.40511 0.0
C759 C 0.20218 0.79522 0.41142 0.0
C760 C 0.20599 0.81377 0.44096 0.0
C761 C 0.18472 0.81104 0.46396 0.0
C762 C 0.19448 0.83413 0.49347 0.0
C763 C 0.18049 0.851 0.4865 0.0
C764 C 0.19009 0.82329 0.53583 0.0
C765 C 0.22451 0.85024 0.48331 0.0
C766 C 0.23064 0.83804 0.45296 0.0
C767 C 0.25688 0.84909 0.43804 0.0
C768 C 0.27744 0.87337 0.45438 0.0
C769 C 0.27172 0.88649 0.48533 0.0
C770 C 0.24486 0.87454 0.50011 0.0
H771 H 0.38419 0.25173 0.62973 0.0
H772 H 0.37724 0.24079 0.7564 0.0
H773 H 0.37461 0.19637 0.74893 0.0
H774 H 0.33859 0.18121 0.60374 0.0
H775 H 0.3587 0.18185 0.56232 0.0
H776 H 0.35907 0.21247 0.57727 0.0
H777 H 0.41156 0.23727 0.58385 0.0
H778 H 0.41136 0.20677 0.56881 0.0
H779 H 0.42698 0.2229 0.61472 0.0
H780 H 0.37434 0.15402 0.72834 0.0
H781 H 0.37649 0.11632 0.69578 0.0
H782 H 0.38411 0.15453 0.58239 0.0
C783 C 0.38218 0.24004 0.65592 0.0
C784 C 0.38075 0.24976 0.69368 0.0
C785 C 0.3779 0.23365 0.72712 0.0
C786 C 0.37653 0.20842 0.72322 0.0
C787 C 0.378 0.19948 0.68565 0.0
C788 C 0.38074 0.21475 0.65256 0.0
C789 C 0.38236 0.20059 0.61566 0.0
C790 C 0.35824 0.19361 0.58813 0.0
C791 C 0.40969 0.21791 0.59453 0.0
C792 C 0.38037 0.17513 0.63328 0.0
C793 C 0.37781 0.17492 0.6737 0.0
C794 C 0.37629 0.15392 0.6967 0.0
C795 C 0.37766 0.13267 0.67796 0.0
C796 C 0.38054 0.13251 0.63658 0.0
C797 C 0.38161 0.15394 0.614 0.0
H798 H 0.16278 0.40737 0.80568 0.0
H799 H 0.12207 0.33158 0.87123 0.0
H800 H 0.15997 0.32363 0.85678 0.0
H801 H 0.18851 0.38177 0.72823 0.0
H802 H 0.22004 0.41348 0.72331 0.0
H803 H 0.18968 0.41344 0.73887 0.0
H804 H 0.21466 0.44047 0.80143 0.0
H805 H 0.24506 0.44054 0.78614 0.0
H806 H 0.23047 0.42721 0.83368 0.0
H807 H 0.20304 0.3247 0.83809 0.0
H808 H 0.24774 0.33378 0.81322 0.0
H809 H 0.25931 0.407 0.75586 0.0
C810 C 0.16157 0.38889 0.81659 0.0
C811 C 0.13941 0.3703 0.84008 0.0
C812 C 0.13901 0.34655 0.85405 0.0
C813 C 0.16036 0.34168 0.84569 0.0
C814 C 0.18191 0.36052 0.82284 0.0
C815 C 0.18259 0.38351 0.80813 0.0
C816 C 0.20819 0.40046 0.78421 0.0
C817 C 0.20118 0.40239 0.7411 0.0
C818 C 0.22562 0.42885 0.80247 0.0
C819 C 0.22189 0.38351 0.78818 0.0
C820 C 0.2064 0.36061 0.81076 0.0
C821 C 0.21524 0.34241 0.82005 0.0
C822 C 0.24063 0.34775 0.80595 0.0
C823 C 0.25676 0.37095 0.78252 0.0
C824 C 0.24714 0.38892 0.77328 0.0
H825 H 0.89148 0.25289 0.99267 0.0
H826 H 0.88669 0.24242 0.86585 0.0
H827 H 0.84488 0.19809 0.87325 0.0
H828 H 0.86626 0.18223 0.01783 0.0
H829 H 0.84691 0.1827 0.05952 0.0
H830 H 0.87719 0.21337 0.04474 0.0
H831 H 0.84959 0.23827 0.03897 0.0
H832 H 0.81927 0.20772 0.0539 0.0
H833 H 0.81968 0.22407 0.00827 0.0
H834 H 0.80324 0.15563 0.8936 0.0
H835 H 0.76347 0.11773 0.92583 0.0
H836 H 0.79397 0.1555 0.03961 0.0
C837 C 0.88159 0.24132 0.96645 0.0
C838 C 0.89262 0.25112 0.92866 0.0
C839 C 0.87906 0.23519 0.89516 0.0
C840 C 0.85517 0.21001 0.89902 0.0
C841 C 0.84496 0.20093 0.93659 0.0
C842 C 0.85763 0.21605 0.96975 0.0
C843 C 0.84192 0.20173 0.00661 0.0
C844 C 0.8591 0.19458 0.03378 0.0
C845 C 0.83202 0.21898 0.0282 0.0
C846 C 0.81834 0.17634 0.98886 0.0
C847 C 0.82063 0.17633 0.94841 0.0
C848 C 0.80119 0.1554 0.92525 0.0
C849 C 0.7786 0.13403 0.94383 0.0
C850 C 0.77551 0.13371 0.98521 0.0
C851 C 0.79588 0.15505 0.00798 0.0
loop_
_geom_bond_atom_site_label_1
_geom_bond_atom_site_label_2
_geom_bond_distance
_geom_bond_site_symmetry_2
_ccdc_geom_bond_type
Li0 N17 1.990 . S
Li0 O60 1.956 . S
Li0 O61 1.970 . S
Li0 O62 1.961 . S
Li1 N25 1.990 . S
Li1 O60 1.970 . S
Li1 O61 1.956 . S
Li1 O63 1.961 1_545 S
Li2 N47 1.990 . S
Li2 O60 1.961 1_565 S
Li2 O62 1.956 1_565 S
Li2 O63 1.970 . S
Li3 N53 1.991 1_554 S
Li3 O61 1.961 . S
Li3 O62 1.970 . S
Li3 O63 1.956 1_545 S
C4 C6 1.348 . S
C4 C7 1.356 . S
C4 O60 1.325 . S
N5 C8 1.314 . S
N5 C9 1.279 . S
C6 C4 1.348 . S
C6 C8 1.353 . S
C6 H64 0.929 . S
C7 C4 1.356 . S
C7 C9 1.358 . S
C7 H65 0.930 . S
C8 N5 1.314 . S
C8 C6 1.353 . S
C8 H66 0.930 . S
C9 N5 1.279 . S
C9 C7 1.358 . S
C9 H67 0.930 . S
C10 C13 1.348 . S
C10 C14 1.356 . S
C10 O61 1.325 . S
C11 N12 1.279 . S
C11 C14 1.358 . S
C11 H68 0.930 . S
N12 C11 1.279 . S
N12 C15 1.314 . S
C13 C10 1.348 . S
C13 C15 1.353 . S
C13 H69 0.929 . S
C14 C10 1.356 . S
C14 C11 1.358 . S
C14 H70 0.930 . S
C15 N12 1.314 . S
C15 C13 1.353 . S
C15 H71 0.930 . S
C16 N17 1.314 . S
C16 C21 1.349 1_554 S
C16 H22 0.930 1_554 S
N17 Li0 1.990 . S
N17 C16 1.314 . S
N17 C19 1.279 . S
C18 C19 1.358 . S
C18 C20 1.356 . S
C18 H72 0.930 . S
C19 N17 1.279 . S
C19 C18 1.358 . S
C19 H23 0.930 . S
C20 C18 1.356 . S
C20 C21 1.331 1_554 S
C21 C16 1.349 1_556 S
C21 C20 1.331 1_556 S
C21 H73 0.950 . S
H22 C16 0.930 1_556 S
H23 C19 0.930 . S
C24 N25 1.340 . S
C24 C26 1.368 . S
C24 H30 0.884 1_545 S
N25 Li1 1.990 . S
N25 C24 1.340 . S
N25 C28 1.279 . S
C26 C24 1.368 . S
C26 C29 1.348 . S
C26 H74 0.929 1_545 S
C27 C28 1.358 . S
C27 C29 1.356 . S
C27 H75 0.930 . S
C28 N25 1.279 . S
C28 C27 1.358 . S
C28 H31 0.930 . S
C29 C26 1.348 . S
C29 C27 1.356 . S
H30 C24 0.884 1_565 S
H31 C28 0.930 . S
C32 C34 1.348 1_545 S
C32 C35 1.356 . S
C32 O62 1.325 1_556 S
N33 C36 1.314 . S
N33 C37 1.279 1_565 S
C34 C32 1.348 1_565 S
C34 C36 1.353 . S
C34 H76 0.929 . S
C35 C32 1.356 . S
C35 C37 1.358 . S
C35 H77 0.930 1_556 S
C36 N33 1.314 . S
C36 C34 1.353 . S
C36 H78 0.930 . S
C37 N33 1.279 1_545 S
C37 C35 1.358 . S
C37 H79 0.930 . S
C38 C39 1.348 . S
C38 C40 1.356 . S
C38 O63 1.325 . S
C39 C38 1.348 . S
C39 C41 1.353 . S
C39 H80 0.929 . S
C40 C38 1.356 . S
C40 C42 1.358 . S
C40 H81 0.930 . S
C41 C39 1.353 . S
C41 N43 1.314 . S
C41 H82 0.930 . S
C42 C40 1.358 . S
C42 N43 1.279 . S
C42 H83 0.930 . S
N43 C41 1.314 . S
N43 C42 1.279 . S
C44 C46 1.353 . S
C44 N47 1.314 . S
C44 H50 0.930 . S
C45 N47 1.279 . S
C45 C48 1.358 . S
C45 H51 0.930 . S
C46 C44 1.353 . S
C46 C49 1.348 . S
C46 H84 0.929 . S
N47 Li2 1.990 . S
N47 C44 1.314 . S
N47 C45 1.279 . S
C48 C45 1.358 . S
C48 C49 1.356 . S
C48 H85 0.930 . S
C49 C46 1.348 . S
C49 C48 1.356 . S
H50 C44 0.930 . S
H51 C45 0.930 . S
C52 N53 1.313 . S
C52 C54 1.353 . S
C52 H58 0.930 . S
N53 Li3 1.991 1_556 S
N53 C52 1.313 . S
N53 C56 1.280 1_545 S
C54 C52 1.353 . S
C54 C57 1.348 1_545 S
C54 H86 0.929 . S
C55 C56 1.358 . S
C55 C57 1.356 . S
C55 H87 0.930 . S
C56 N53 1.280 1_565 S
C56 C55 1.358 . S
C56 H59 0.930 . S
C57 C54 1.348 1_565 S
C57 C55 1.356 . S
H58 C52 0.930 . S
H59 C56 0.930 . S
O60 Li0 1.956 . S
O60 Li1 1.970 . S
O60 Li2 1.961 1_545 S
O60 C4 1.325 . S
O61 Li0 1.970 . S
O61 Li1 1.956 . S
O61 Li3 1.961 . S
O61 C10 1.325 . S
O62 Li0 1.961 . S
O62 Li2 1.956 1_545 S
O62 Li3 1.970 . S
O62 C32 1.325 1_554 S
O63 Li1 1.961 1_565 S
O63 Li2 1.970 . S
O63 Li3 1.956 1_565 S
O63 C38 1.325 . S
H64 C6 0.929 . S
H65 C7 0.930 . S
H66 C8 0.930 . S
H67 C9 0.930 . S
H68 C11 0.930 . S
H69 C13 0.929 . S
H70 C14 0.930 . S
H71 C15 0.930 . S
H72 C18 0.930 . S
H73 C21 0.950 . S
H74 C26 0.929 1_565 S
H75 C27 0.930 . S
H76 C34 0.929 . S
H77 C35 0.930 1_554 S
H78 C36 0.930 . S
H79 C37 0.930 . S
H80 C39 0.929 . S
H81 C40 0.930 . S
H82 C41 0.930 . S
H83 C42 0.930 . S
H84 C46 0.929 . S
H85 C48 0.930 . S
H86 C54 0.929 . S
H87 C55 0.930 . S
Li88 N105 1.990 . S
Li88 O148 1.956 . S
Li88 O149 1.970 . S
Li88 O150 1.961 . S
Li89 N113 1.990 . S
Li89 O148 1.970 . S
Li89 O149 1.956 . S
Li89 O151 1.961 . S
Li90 N135 1.990 . S
Li90 O148 1.961 . S
Li90 O150 1.956 . S
Li90 O151 1.970 . S
Li91 N141 1.990 . S
Li91 O149 1.961 . S
Li91 O150 1.970 . S
Li91 O151 1.956 . S
C92 C94 1.348 . S
C92 C95 1.356 . S
C92 O148 1.325 . S
N93 C96 1.314 . S
N93 C97 1.279 . S
C94 C92 1.348 . S
C94 C96 1.353 . S
C94 H152 0.929 . S
C95 C92 1.356 . S
C95 C97 1.358 . S
C95 H153 0.930 . S
C96 N93 1.314 . S
C96 C94 1.353 . S
C96 H154 0.930 . S
C97 N93 1.279 . S
C97 C95 1.358 . S
C97 H155 0.930 . S
C98 C101 1.348 . S
C98 C102 1.356 . S
C98 O149 1.325 . S
C99 N100 1.279 . S
C99 C102 1.358 . S
C99 H156 0.930 . S
N100 C99 1.279 . S
N100 C103 1.314 . S
C101 C98 1.348 . S
C101 C103 1.353 . S
C101 H157 0.929 . S
C102 C98 1.356 . S
C102 C99 1.358 . S
C102 H158 0.930 . S
C103 N100 1.314 . S
C103 C101 1.353 . S
C103 H159 0.930 . S
C104 N105 1.314 . S
C104 C109 1.353 . S
C104 H110 0.930 . S
N105 Li88 1.990 . S
N105 C104 1.314 . S
N105 C107 1.279 . S
C106 C107 1.358 . S
C106 C108 1.356 . S
C106 H160 0.930 . S
C107 N105 1.279 . S
C107 C106 1.358 . S
C107 H111 0.930 . S
C108 C106 1.356 . S
C108 C109 1.348 . S
C109 C104 1.353 . S
C109 C108 1.348 . S
C109 H161 0.929 . S
H110 C104 0.930 . S
H111 C107 0.930 . S
C112 N113 1.314 . S
C112 C114 1.353 . S
C112 H118 0.930 . S
N113 Li89 1.990 . S
N113 C112 1.314 . S
N113 C116 1.279 . S
C114 C112 1.353 . S
C114 C117 1.348 . S
C114 H162 0.929 . S
C115 C116 1.358 . S
C115 C117 1.356 . S
C115 H163 0.930 . S
C116 N113 1.279 . S
C116 C115 1.358 . S
C116 H119 0.930 . S
C117 C114 1.348 . S
C117 C115 1.356 . S
H118 C112 0.930 . S
H119 C116 0.930 . S
C120 C122 1.348 . S
C120 C123 1.356 . S
C120 O150 1.325 . S
N121 C124 1.314 . S
N121 C125 1.279 . S
C122 C120 1.348 . S
C122 C124 1.353 . S
C122 H164 0.929 . S
C123 C120 1.356 . S
C123 C125 1.358 . S
C123 H165 0.930 . S
C124 N121 1.314 . S
C124 C122 1.353 . S
C124 H166 0.930 . S
C125 N121 1.279 . S
C125 C123 1.358 . S
C125 H167 0.930 . S
C126 C127 1.348 . S
C126 C128 1.356 . S
C126 O151 1.325 . S
C127 C126 1.348 . S
C127 C129 1.353 . S
C127 H168 0.929 . S
C128 C126 1.356 . S
C128 C130 1.358 . S
C128 H169 0.930 . S
C129 C127 1.353 . S
C129 N131 1.314 . S
C129 H170 0.930 . S
C130 C128 1.358 . S
C130 N131 1.279 . S
C130 H171 0.930 . S
N131 C129 1.314 . S
N131 C130 1.279 . S
C132 C134 1.353 . S
C132 N135 1.314 . S
C132 H138 0.930 . S
C133 N135 1.279 . S
C133 C136 1.358 . S
C133 H139 0.930 . S
C134 C132 1.353 . S
C134 C137 1.348 . S
C134 H172 0.929 . S
N135 Li90 1.990 . S
N135 C132 1.314 . S
N135 C133 1.279 . S
C136 C133 1.358 . S
C136 C137 1.356 . S
C136 H173 0.930 . S
C137 C134 1.348 . S
C137 C136 1.356 . S
H138 C132 0.930 . S
H139 C133 0.930 . S
C140 N141 1.314 . S
C140 C142 1.353 . S
C140 H146 0.930 . S
N141 Li91 1.990 . S
N141 C140 1.314 . S
N141 C144 1.279 . S
C142 C140 1.353 . S
C142 C145 1.348 . S
C142 H174 0.929 . S
C143 C144 1.358 . S
C143 C145 1.356 . S
C143 H175 0.930 . S
C144 N141 1.279 . S
C144 C143 1.358 . S
C144 H147 0.930 . S
C145 C142 1.348 . S
C145 C143 1.356 . S
H146 C140 0.930 . S
H147 C144 0.930 . S
O148 Li88 1.956 . S
O148 Li89 1.970 . S
O148 Li90 1.961 . S
O148 C92 1.325 . S
O149 Li88 1.970 . S
O149 Li89 1.956 . S
O149 Li91 1.961 . S
O149 C98 1.325 . S
O150 Li88 1.961 . S
O150 Li90 1.956 . S
O150 Li91 1.970 . S
O150 C120 1.325 . S
O151 Li89 1.961 . S
O151 Li90 1.970 . S
O151 Li91 1.956 . S
O151 C126 1.325 . S
H152 C94 0.929 . S
H153 C95 0.930 . S
H154 C96 0.930 . S
H155 C97 0.930 . S
H156 C99 0.930 . S
H157 C101 0.929 . S
H158 C102 0.930 . S
H159 C103 0.930 . S
H160 C106 0.930 . S
H161 C109 0.929 . S
H162 C114 0.929 . S
H163 C115 0.930 . S
H164 C122 0.929 . S
H165 C123 0.930 . S
H166 C124 0.930 . S
H167 C125 0.930 . S
H168 C127 0.929 . S
H169 C128 0.930 . S
H170 C129 0.930 . S
H171 C130 0.930 . S
H172 C134 0.929 . S
H173 C136 0.930 . S
H174 C142 0.929 . S
H175 C143 0.930 . S
Li176 N193 1.990 . S
Li176 O236 1.956 1_655 S
Li176 O237 1.970 . S
Li176 O238 1.961 1_655 S
Li177 N201 1.990 . S
Li177 O236 1.970 . S
Li177 O237 1.956 1_455 S
Li177 O239 1.961 . S
Li178 N223 1.990 . S
Li178 O236 1.961 . S
Li178 O238 1.956 . S
Li178 O239 1.970 . S
Li179 N229 1.990 . S
Li179 O237 1.961 1_455 S
Li179 O238 1.970 . S
Li179 O239 1.956 . S
C180 C182 1.348 1_455 S
C180 C183 1.356 . S
C180 O236 1.325 . S
N181 C184 1.314 . S
N181 C185 1.279 1_655 S
C182 C180 1.348 1_655 S
C182 C184 1.353 . S
C182 H240 0.929 . S
C183 C180 1.356 . S
C183 C185 1.358 . S
C183 H241 0.930 . S
C184 N181 1.314 . S
C184 C182 1.353 . S
C184 H242 0.930 . S
C185 N181 1.279 1_455 S
C185 C183 1.358 . S
C185 H243 0.930 . S
C186 C189 1.348 . S
C186 C190 1.356 . S
C186 O237 1.325 . S
C187 N188 1.279 . S
C187 C190 1.358 . S
C187 H244 0.930 . S
N188 C187 1.279 . S
N188 C191 1.314 . S
C189 C186 1.348 . S
C189 C191 1.353 . S
C189 H245 0.929 . S
C190 C186 1.356 . S
C190 C187 1.358 . S
C190 H246 0.930 . S
C191 N188 1.314 . S
C191 C189 1.353 . S
C191 H247 0.930 . S
C192 N193 1.314 . S
C192 C197 1.353 . S
C192 H198 0.930 . S
N193 Li176 1.990 . S
N193 C192 1.314 . S
N193 C195 1.279 . S
C194 C195 1.358 . S
C194 C196 1.356 . S
C194 H248 0.930 . S
C195 N193 1.279 . S
C195 C194 1.358 . S
C195 H199 0.930 . S
C196 C194 1.356 . S
C196 C197 1.348 . S
C197 C192 1.353 . S
C197 C196 1.348 . S
C197 H249 0.929 . S
H198 C192 0.930 . S
H199 C195 0.930 . S
C200 N201 1.314 . S
C200 C202 1.353 . S
C200 H206 0.930 . S
N201 Li177 1.990 . S
N201 C200 1.314 . S
N201 C204 1.279 1_455 S
C202 C200 1.353 . S
C202 C205 1.348 1_455 S
C202 H250 0.929 . S
C203 C204 1.358 . S
C203 C205 1.356 . S
C203 H251 0.930 . S
C204 N201 1.279 1_655 S
C204 C203 1.358 . S
C204 H207 0.930 . S
C205 C202 1.348 1_655 S
C205 C203 1.356 . S
H206 C200 0.930 . S
H207 C204 0.930 . S
C208 C210 1.348 . S
C208 C211 1.356 . S
C208 O238 1.325 . S
N209 C212 1.314 . S
N209 C213 1.279 . S
C210 C208 1.348 . S
C210 C212 1.353 . S
C210 H252 0.929 . S
C211 C208 1.356 . S
C211 C213 1.358 . S
C211 H253 0.930 . S
C212 N209 1.314 . S
C212 C210 1.353 . S
C212 H254 0.930 . S
C213 N209 1.279 . S
C213 C211 1.358 . S
C213 H255 0.930 . S
C214 C215 1.348 . S
C214 C216 1.356 . S
C214 O239 1.325 . S
C215 C214 1.348 . S
C215 C217 1.353 . S
C215 H256 0.929 . S
C216 C214 1.356 . S
C216 C218 1.358 . S
C216 H257 0.930 . S
C217 C215 1.353 . S
C217 N219 1.314 . S
C217 H258 0.930 . S
C218 C216 1.358 . S
C218 N219 1.279 . S
C218 H259 0.930 . S
N219 C217 1.314 . S
N219 C218 1.279 . S
C220 C222 1.353 . S
C220 N223 1.314 . S
C220 H226 0.930 . S
C221 N223 1.279 . S
C221 C224 1.358 . S
C221 H227 0.930 . S
C222 C220 1.353 . S
C222 C225 1.348 . S
C222 H260 0.929 . S
N223 Li178 1.990 . S
N223 C220 1.314 . S
N223 C221 1.279 . S
C224 C221 1.358 . S
C224 C225 1.356 . S
C224 H261 0.930 . S
C225 C222 1.348 . S
C225 C224 1.356 . S
H226 C220 0.930 . S
H227 C221 0.930 . S
C228 N229 1.314 . S
C228 C230 1.353 . S
C228 H234 0.930 1_455 S
N229 Li179 1.990 . S
N229 C228 1.314 . S
N229 C232 1.279 . S
C230 C228 1.353 . S
C230 C233 1.348 . S
C230 H262 0.929 1_455 S
C231 C232 1.358 . S
C231 C233 1.356 . S
C231 H263 0.930 . S
C232 N229 1.279 . S
C232 C231 1.358 . S
C232 H235 0.930 . S
C233 C230 1.348 . S
C233 C231 1.356 . S
H234 C228 0.930 1_655 S
H235 C232 0.930 . S
O236 Li176 1.956 1_455 S
O236 Li177 1.970 . S
O236 Li178 1.961 . S
O236 C180 1.325 . S
O237 Li176 1.970 . S
O237 Li177 1.956 1_655 S
O237 Li179 1.961 1_655 S
O237 C186 1.325 . S
O238 Li176 1.961 1_455 S
O238 Li178 1.956 . S
O238 Li179 1.970 . S
O238 C208 1.325 . S
O239 Li177 1.961 . S
O239 Li178 1.970 . S
O239 Li179 1.956 . S
O239 C214 1.325 . S
H240 C182 0.929 . S
H241 C183 0.930 . S
H242 C184 0.930 . S
H243 C185 0.930 . S
H244 C187 0.930 . S
H245 C189 0.929 . S
H246 C190 0.930 . S
H247 C191 0.930 . S
H248 C194 0.930 . S
H249 C197 0.929 . S
H250 C202 0.929 . S
H251 C203 0.930 . S
H252 C210 0.929 . S
H253 C211 0.930 . S
H254 C212 0.930 . S
H255 C213 0.930 . S
H256 C215 0.929 . S
H257 C216 0.930 . S
H258 C217 0.930 . S
H259 C218 0.930 . S
H260 C222 0.929 . S
H261 C224 0.930 . S
H262 C230 0.929 1_655 S
H263 C231 0.930 . S
Li264 N281 1.989 . S
Li264 O324 1.956 1_545 S
Li264 O325 1.970 . S
Li264 O326 1.961 . S
Li265 N289 1.990 . S
Li265 O324 1.970 . S
Li265 O325 1.956 1_565 S
Li265 O327 1.961 1_565 S
Li266 N311 1.990 . S
Li266 O324 1.961 1_545 S
Li266 O326 1.956 . S
Li266 O327 1.970 . S
Li267 N317 1.990 . S
Li267 O325 1.961 . S
Li267 O326 1.970 . S
Li267 O327 1.956 . S
C268 C270 1.348 . S
C268 C271 1.356 . S
C268 O324 1.325 . S
N269 C272 1.314 . S
N269 C273 1.279 . S
C270 C268 1.348 . S
C270 C272 1.353 . S
C270 H328 0.929 . S
C271 C268 1.356 . S
C271 C273 1.358 . S
C271 H329 0.930 . S
C272 N269 1.314 . S
C272 C270 1.353 . S
C272 H330 0.930 . S
C273 N269 1.279 . S
C273 C271 1.358 . S
C273 H331 0.930 . S
C274 C277 1.348 1_545 S
C274 C278 1.356 . S
C274 O325 1.325 . S
C275 N276 1.279 1_545 S
C275 C278 1.358 . S
C275 H332 0.930 . S
N276 C275 1.279 1_565 S
N276 C279 1.314 . S
C277 C274 1.348 1_565 S
C277 C279 1.353 . S
C277 H333 0.929 . S
C278 C274 1.356 . S
C278 C275 1.358 . S
C278 H334 0.930 . S
C279 N276 1.314 . S
C279 C277 1.353 . S
C279 H335 0.930 . S
C280 N281 1.313 . S
C280 C285 1.353 . S
C280 H286 0.930 . S
N281 Li264 1.989 . S
N281 C280 1.313 . S
N281 C283 1.281 1_545 S
C282 C283 1.358 . S
C282 C284 1.356 . S
C282 H336 0.930 . S
C283 N281 1.281 1_565 S
C283 C282 1.358 . S
C283 H287 0.930 . S
C284 C282 1.356 . S
C284 C285 1.348 1_565 S
C285 C280 1.353 . S
C285 C284 1.348 1_545 S
C285 H337 0.929 . S
H286 C280 0.930 . S
H287 C283 0.930 . S
C288 N289 1.314 . S
C288 C290 1.353 . S
C288 H294 0.930 . S
N289 Li265 1.990 . S
N289 C288 1.314 . S
N289 C292 1.279 . S
C290 C288 1.353 . S
C290 C293 1.348 . S
C290 H338 0.929 . S
C291 C292 1.358 . S
C291 C293 1.356 . S
C291 H339 0.930 . S
C292 N289 1.279 . S
C292 C291 1.358 . S
C292 H295 0.930 . S
C293 C290 1.348 . S
C293 C291 1.356 . S
H294 C288 0.930 . S
H295 C292 0.930 . S
C296 C298 1.348 . S
C296 C299 1.356 . S
C296 O326 1.325 . S
N297 C300 1.314 . S
N297 C301 1.279 . S
C298 C296 1.348 . S
C298 C300 1.353 . S
C298 H340 0.929 . S
C299 C296 1.356 . S
C299 C301 1.358 . S
C299 H341 0.930 . S
C300 N297 1.314 . S
C300 C298 1.353 . S
C300 H342 0.930 . S
C301 N297 1.279 . S
C301 C299 1.358 . S
C301 H343 0.930 . S
C302 C303 1.348 . S
C302 C304 1.356 . S
C302 O327 1.325 . S
C303 C302 1.348 . S
C303 C305 1.353 . S
C303 H344 0.929 . S
C304 C302 1.356 . S
C304 C306 1.358 . S
C304 H345 0.930 . S
C305 C303 1.353 . S
C305 N307 1.314 . S
C305 H346 0.930 . S
C306 C304 1.358 . S
C306 N307 1.279 . S
C306 H347 0.930 . S
N307 C305 1.314 . S
N307 C306 1.279 . S
C308 C310 1.344 . S
C308 N311 1.346 . S
C308 H314 0.906 1_545 S
C309 N311 1.279 . S
C309 C312 1.358 . S
C309 H315 0.930 . S
C310 C308 1.344 . S
C310 C313 1.348 . S
C310 H348 0.929 1_545 S
N311 Li266 1.990 . S
N311 C308 1.346 . S
N311 C309 1.279 . S
C312 C309 1.358 . S
C312 C313 1.356 . S
C312 H349 0.930 . S
C313 C310 1.348 . S
C313 C312 1.356 . S
H314 C308 0.906 1_565 S
H315 C309 0.930 . S
C316 N317 1.314 . S
C316 C318 1.353 . S
C316 H322 0.930 . S
N317 Li267 1.990 . S
N317 C316 1.314 . S
N317 C320 1.279 . S
C318 C316 1.353 . S
C318 C321 1.348 . S
C318 H350 0.929 . S
C319 C320 1.358 . S
C319 C321 1.356 . S
C319 H351 0.930 . S
C320 N317 1.279 . S
C320 C319 1.358 . S
C320 H323 0.930 . S
C321 C318 1.348 . S
C321 C319 1.356 . S
H322 C316 0.930 . S
H323 C320 0.930 . S
O324 Li264 1.956 1_565 S
O324 Li265 1.970 . S
O324 Li266 1.961 1_565 S
O324 C268 1.325 . S
O325 Li264 1.970 . S
O325 Li265 1.956 1_545 S
O325 Li267 1.961 . S
O325 C274 1.325 . S
O326 Li264 1.961 . S
O326 Li266 1.956 . S
O326 Li267 1.970 . S
O326 C296 1.325 . S
O327 Li265 1.961 1_545 S
O327 Li266 1.970 . S
O327 Li267 1.956 . S
O327 C302 1.325 . S
H328 C270 0.929 . S
H329 C271 0.930 . S
H330 C272 0.930 . S
H331 C273 0.930 . S
H332 C275 0.930 . S
H333 C277 0.929 . S
H334 C278 0.930 . S
H335 C279 0.930 . S
H336 C282 0.930 . S
H337 C285 0.929 . S
H338 C290 0.929 . S
H339 C291 0.930 . S
H340 C298 0.929 . S
H341 C299 0.930 . S
H342 C300 0.930 . S
H343 C301 0.930 . S
H344 C303 0.929 . S
H345 C304 0.930 . S
H346 C305 0.930 . S
H347 C306 0.930 . S
H348 C310 0.929 1_565 S
H349 C312 0.930 . S
H350 C318 0.929 . S
H351 C319 0.930 . S
Li352 N369 1.990 . S
Li352 O412 1.956 . S
Li352 O413 1.970 . S
Li352 O414 1.961 . S
Li353 N377 1.990 . S
Li353 O412 1.970 . S
Li353 O413 1.956 . S
Li353 O415 1.961 . S
Li354 N399 1.990 . S
Li354 O412 1.961 . S
Li354 O414 1.956 . S
Li354 O415 1.970 . S
Li355 N405 1.990 . S
Li355 O413 1.961 . S
Li355 O414 1.970 . S
Li355 O415 1.956 . S
C356 C358 1.348 . S
C356 C359 1.356 . S
C356 O412 1.325 . S
N357 C360 1.314 . S
N357 C361 1.279 . S
C358 C356 1.348 . S
C358 C360 1.353 . S
C358 H416 0.929 . S
C359 C356 1.356 . S
C359 C361 1.358 . S
C359 H417 0.930 . S
C360 N357 1.314 . S
C360 C358 1.353 . S
C360 H418 0.930 . S
C361 N357 1.279 . S
C361 C359 1.358 . S
C361 H419 0.930 . S
C362 C365 1.348 . S
C362 C366 1.356 . S
C362 O413 1.325 . S
C363 N364 1.279 . S
C363 C366 1.358 . S
C363 H420 0.930 . S
N364 C363 1.279 . S
N364 C367 1.314 . S
C365 C362 1.348 . S
C365 C367 1.353 . S
C365 H421 0.929 . S
C366 C362 1.356 . S
C366 C363 1.358 . S
C366 H422 0.930 . S
C367 N364 1.314 . S
C367 C365 1.353 . S
C367 H423 0.930 . S
C368 N369 1.314 . S
C368 C373 1.353 . S
C368 H374 0.930 . S
N369 Li352 1.990 . S
N369 C368 1.314 . S
N369 C371 1.279 . S
C370 C371 1.358 . S
C370 C372 1.356 . S
C370 H424 0.930 . S
C371 N369 1.279 . S
C371 C370 1.358 . S
C371 H375 0.930 . S
C372 C370 1.356 . S
C372 C373 1.348 . S
C373 C368 1.353 . S
C373 C372 1.348 . S
C373 H425 0.929 . S
H374 C368 0.930 . S
H375 C371 0.930 . S
C376 N377 1.314 . S
C376 C378 1.353 . S
C376 H382 0.930 . S
N377 Li353 1.990 . S
N377 C376 1.314 . S
N377 C380 1.279 . S
C378 C376 1.353 . S
C378 C381 1.348 . S
C378 H426 0.929 . S
C379 C380 1.358 . S
C379 C381 1.356 . S
C379 H427 0.930 . S
C380 N377 1.279 . S
C380 C379 1.358 . S
C380 H383 0.930 . S
C381 C378 1.348 . S
C381 C379 1.356 . S
H382 C376 0.930 . S
H383 C380 0.930 . S
C384 C386 1.348 . S
C384 C387 1.356 . S
C384 O414 1.325 . S
N385 C388 1.314 . S
N385 C389 1.279 . S
C386 C384 1.348 . S
C386 C388 1.353 . S
C386 H428 0.929 . S
C387 C384 1.356 . S
C387 C389 1.358 . S
C387 H429 0.930 . S
C388 N385 1.314 . S
C388 C386 1.353 . S
C388 H430 0.930 . S
C389 N385 1.279 . S
C389 C387 1.358 . S
C389 H431 0.930 . S
C390 C391 1.348 . S
C390 C392 1.356 . S
C390 O415 1.325 . S
C391 C390 1.348 . S
C391 C393 1.353 . S
C391 H432 0.929 . S
C392 C390 1.356 . S
C392 C394 1.358 . S
C392 H433 0.930 . S
C393 C391 1.353 . S
C393 N395 1.314 . S
C393 H434 0.930 . S
C394 C392 1.358 . S
C394 N395 1.279 . S
C394 H435 0.930 . S
N395 C393 1.314 . S
N395 C394 1.279 . S
C396 C398 1.353 . S
C396 N399 1.314 . S
C396 H402 0.930 . S
C397 N399 1.279 . S
C397 C400 1.358 . S
C397 H403 0.930 . S
C398 C396 1.353 . S
C398 C401 1.348 . S
C398 H436 0.929 . S
N399 Li354 1.990 . S
N399 C396 1.314 . S
N399 C397 1.279 . S
C400 C397 1.358 . S
C400 C401 1.356 . S
C400 H437 0.930 . S
C401 C398 1.348 . S
C401 C400 1.356 . S
H402 C396 0.930 . S
H403 C397 0.930 . S
C404 N405 1.314 . S
C404 C406 1.353 . S
C404 H410 0.930 . S
N405 Li355 1.990 . S
N405 C404 1.314 . S
N405 C408 1.279 . S
C406 C404 1.353 . S
C406 C409 1.348 . S
C406 H438 0.929 . S
C407 C408 1.358 . S
C407 C409 1.356 . S
C407 H439 0.930 . S
C408 N405 1.279 . S
C408 C407 1.358 . S
C408 H411 0.930 . S
C409 C406 1.348 . S
C409 C407 1.356 . S
H410 C404 0.930 . S
H411 C408 0.930 . S
O412 Li352 1.956 . S
O412 Li353 1.970 . S
O412 Li354 1.961 . S
O412 C356 1.325 . S
O413 Li352 1.970 . S
O413 Li353 1.956 . S
O413 Li355 1.961 . S
O413 C362 1.325 . S
O414 Li352 1.961 . S
O414 Li354 1.956 . S
O414 Li355 1.970 . S
O414 C384 1.325 . S
O415 Li353 1.961 . S
O415 Li354 1.970 . S
O415 Li355 1.956 . S
O415 C390 1.325 . S
H416 C358 0.929 . S
H417 C359 0.930 . S
H418 C360 0.930 . S
H419 C361 0.930 . S
H420 C363 0.930 . S
H421 C365 0.929 . S
H422 C366 0.930 . S
H423 C367 0.930 . S
H424 C370 0.930 . S
H425 C373 0.929 . S
H426 C378 0.929 . S
H427 C379 0.930 . S
H428 C386 0.929 . S
H429 C387 0.930 . S
H430 C388 0.930 . S
H431 C389 0.930 . S
H432 C391 0.929 . S
H433 C392 0.930 . S
H434 C393 0.930 . S
H435 C394 0.930 . S
H436 C398 0.929 . S
H437 C400 0.930 . S
H438 C406 0.929 . S
H439 C407 0.930 . S
Li440 N457 1.990 . S
Li440 O500 1.956 . S
Li440 O501 1.970 . S
Li440 O502 1.961 1_455 S
Li441 N465 1.990 . S
Li441 O500 1.970 . S
Li441 O501 1.956 . S
Li441 O503 1.961 . S
Li442 N487 1.990 . S
Li442 O500 1.961 . S
Li442 O502 1.956 1_455 S
Li442 O503 1.970 . S
Li443 N493 1.990 . S
Li443 O501 1.961 1_655 S
Li443 O502 1.970 . S
Li443 O503 1.956 1_655 S
C444 C446 1.348 . S
C444 C447 1.356 . S
C444 O500 1.325 . S
N445 C448 1.314 . S
N445 C449 1.279 . S
C446 C444 1.348 . S
C446 C448 1.353 . S
C446 H504 0.929 . S
C447 C444 1.356 . S
C447 C449 1.358 . S
C447 H505 0.930 . S
C448 N445 1.314 . S
C448 C446 1.353 . S
C448 H506 0.930 . S
C449 N445 1.279 . S
C449 C447 1.358 . S
C449 H507 0.930 . S
C450 C453 1.348 . S
C450 C454 1.356 . S
C450 O501 1.325 . S
C451 N452 1.279 1_556 S
C451 C454 1.358 . S
C451 H508 0.930 . S
N452 C451 1.279 1_554 S
N452 C455 1.314 . S
C453 C450 1.348 . S
C453 C455 1.353 1_556 S
C453 H509 0.929 . S
C454 C450 1.356 . S
C454 C451 1.358 . S
C454 H510 0.930 . S
C455 N452 1.314 . S
C455 C453 1.353 1_554 S
C455 H511 0.930 . S
C456 N457 1.314 . S
C456 C461 1.353 1_556 S
C456 H462 0.930 1_455 S
N457 Li440 1.990 . S
N457 C456 1.314 . S
N457 C459 1.279 . S
C458 C459 1.358 1_554 S
C458 C460 1.356 . S
C458 H512 0.930 . S
C459 N457 1.279 . S
C459 C458 1.358 1_556 S
C459 H463 0.930 . S
C460 C458 1.356 . S
C460 C461 1.348 . S
C461 C456 1.353 1_554 S
C461 C460 1.348 . S
C461 H513 0.929 1_455 S
H462 C456 0.930 1_655 S
H463 C459 0.930 . S
C464 N465 1.314 . S
C464 C466 1.353 . S
C464 H470 0.930 . S
N465 Li441 1.990 . S
N465 C464 1.314 . S
N465 C468 1.279 . S
C466 C464 1.353 . S
C466 C469 1.348 . S
C466 H514 0.929 . S
C467 C468 1.358 . S
C467 C469 1.356 . S
C467 H515 0.930 . S
C468 N465 1.279 . S
C468 C467 1.358 . S
C468 H471 0.930 . S
C469 C466 1.348 . S
C469 C467 1.356 . S
H470 C464 0.930 . S
H471 C468 0.930 . S
C472 C474 1.348 . S
C472 C475 1.356 . S
C472 O502 1.325 . S
N473 C476 1.314 . S
N473 C477 1.279 . S
C474 C472 1.348 . S
C474 C476 1.353 . S
C474 H516 0.929 . S
C475 C472 1.356 . S
C475 C477 1.358 . S
C475 H517 0.930 . S
C476 N473 1.314 . S
C476 C474 1.353 . S
C476 H518 0.930 . S
C477 N473 1.279 . S
C477 C475 1.358 . S
C477 H519 0.930 . S
C478 C479 1.348 1_455 S
C478 C480 1.356 . S
C478 O503 1.325 . S
C479 C478 1.348 1_655 S
C479 C481 1.353 . S
C479 H520 0.929 . S
C480 C478 1.356 . S
C480 C482 1.358 . S
C480 H521 0.930 . S
C481 C479 1.353 . S
C481 N483 1.314 . S
C481 H522 0.930 . S
C482 C480 1.358 . S
C482 N483 1.279 1_455 S
C482 H523 0.930 . S
N483 C481 1.314 . S
N483 C482 1.279 1_655 S
C484 C486 1.353 . S
C484 N487 1.314 . S
C484 H490 0.930 . S
C485 N487 1.279 1_655 S
C485 C488 1.358 . S
C485 H491 0.930 . S
C486 C484 1.353 . S
C486 C489 1.348 1_455 S
C486 H524 0.929 . S
N487 Li442 1.990 . S
N487 C484 1.314 . S
N487 C485 1.279 1_455 S
C488 C485 1.358 . S
C488 C489 1.356 . S
C488 H525 0.930 . S
C489 C486 1.348 1_655 S
C489 C488 1.356 . S
H490 C484 0.930 . S
H491 C485 0.930 . S
C492 N493 1.314 . S
C492 C494 1.353 . S
C492 H498 0.930 . S
N493 Li443 1.990 . S
N493 C492 1.314 . S
N493 C496 1.279 . S
C494 C492 1.353 . S
C494 C497 1.348 . S
C494 H526 0.929 . S
C495 C496 1.358 . S
C495 C497 1.356 . S
C495 H527 0.930 . S
C496 N493 1.279 . S
C496 C495 1.358 . S
C496 H499 0.930 . S
C497 C494 1.348 . S
C497 C495 1.356 . S
H498 C492 0.930 . S
H499 C496 0.930 . S
O500 Li440 1.956 . S
O500 Li441 1.970 . S
O500 Li442 1.961 . S
O500 C444 1.325 . S
O501 Li440 1.970 . S
O501 Li441 1.956 . S
O501 Li443 1.961 1_455 S
O501 C450 1.325 . S
O502 Li440 1.961 1_655 S
O502 Li442 1.956 1_655 S
O502 Li443 1.970 . S
O502 C472 1.325 . S
O503 Li441 1.961 . S
O503 Li442 1.970 . S
O503 Li443 1.956 1_455 S
O503 C478 1.325 . S
H504 C446 0.929 . S
H505 C447 0.930 . S
H506 C448 0.930 . S
H507 C449 0.930 . S
H508 C451 0.930 . S
H509 C453 0.929 . S
H510 C454 0.930 . S
H511 C455 0.930 . S
H512 C458 0.930 . S
H513 C461 0.929 1_655 S
H514 C466 0.929 . S
H515 C467 0.930 . S
H516 C474 0.929 . S
H517 C475 0.930 . S
H518 C476 0.930 . S
H519 C477 0.930 . S
H520 C479 0.929 . S
H521 C480 0.930 . S
H522 C481 0.930 . S
H523 C482 0.930 . S
H524 C486 0.929 . S
H525 C488 0.930 . S
H526 C494 0.929 . S
H527 C495 0.930 . S
H528 C540 0.930 . S
H529 C542 0.930 . S
H530 C543 0.930 . S
H531 C547 0.959 . S
H532 C547 0.959 . S
H533 C547 0.961 . S
H534 C548 0.960 . S
H535 C548 0.961 . S
H536 C548 0.959 . S
H537 C551 0.929 . S
H538 C552 0.931 . S
H539 C554 0.930 . S
C540 H528 0.930 . S
C540 C541 1.399 . S
C540 C545 1.399 . S
C541 C540 1.399 . S
C541 C542 1.376 . S
C542 H529 0.930 . S
C542 C541 1.376 . S
C542 C543 1.388 . S
C543 H530 0.930 . S
C543 C542 1.388 . S
C543 C544 1.390 . S
C544 C543 1.390 . S
C544 C545 1.394 . S
C544 C550 1.465 . S
C545 C540 1.399 . S
C545 C544 1.394 . S
C545 C546 1.516 . S
C546 C545 1.516 . S
C546 C547 1.502 1_545 S
C546 C548 1.561 . S
C546 C549 1.526 . S
C547 H531 0.959 . S
C547 H532 0.959 . S
C547 H533 0.961 . S
C547 C546 1.502 1_565 S
C548 H534 0.960 . S
C548 H535 0.961 . S
C548 H536 0.959 . S
C548 C546 1.561 . S
C549 C546 1.526 . S
C549 C550 1.396 . S
C549 C554 1.390 . S
C550 C544 1.465 . S
C550 C549 1.396 . S
C550 C551 1.399 . S
C551 H537 0.929 . S
C551 C550 1.399 . S
C551 C552 1.385 . S
C552 H538 0.931 . S
C552 C551 1.385 . S
C552 C553 1.389 . S
C553 C552 1.389 . S
C553 C554 1.387 . S
C554 H539 0.930 . S
C554 C549 1.390 . S
C554 C553 1.387 . S
H555 C567 0.930 . S
H556 C569 0.930 . S
H557 C570 0.930 . S
H558 C574 0.959 . S
H559 C574 0.959 . S
H560 C574 0.961 . S
H561 C575 0.960 . S
H562 C575 0.961 . S
H563 C575 0.959 . S
H564 C578 0.929 . S
H565 C579 0.931 . S
H566 C581 0.930 . S
C567 H555 0.930 . S
C567 C568 1.399 . S
C567 C572 1.399 . S
C568 C567 1.399 . S
C568 C569 1.376 . S
C569 H556 0.930 . S
C569 C568 1.376 . S
C569 C570 1.388 . S
C570 H557 0.930 . S
C570 C569 1.388 . S
C570 C571 1.390 . S
C571 C570 1.390 . S
C571 C572 1.394 . S
C571 C577 1.465 . S
C572 C567 1.399 . S
C572 C571 1.394 . S
C572 C573 1.516 . S
C573 C572 1.516 . S
C573 C574 1.502 . S
C573 C575 1.561 . S
C573 C576 1.526 . S
C574 H558 0.959 . S
C574 H559 0.959 . S
C574 H560 0.961 . S
C574 C573 1.502 . S
C575 H561 0.960 . S
C575 H562 0.961 . S
C575 H563 0.959 . S
C575 C573 1.561 . S
C576 C573 1.526 . S
C576 C577 1.396 . S
C576 C581 1.390 . S
C577 C571 1.465 . S
C577 C576 1.396 . S
C577 C578 1.399 . S
C578 H564 0.929 . S
C578 C577 1.399 . S
C578 C579 1.385 . S
C579 H565 0.931 . S
C579 C578 1.385 . S
C579 C580 1.389 . S
C580 C579 1.389 . S
C580 C581 1.387 . S
C581 H566 0.930 . S
C581 C576 1.390 . S
C581 C580 1.387 . S
H582 C594 0.930 1_455 S
H583 C596 0.930 . S
H584 C597 0.930 . S
H585 C601 0.959 . S
H586 C601 0.959 . S
H587 C601 0.961 . S
H588 C602 0.960 . S
H589 C602 0.961 . S
H590 C602 0.959 . S
H591 C605 0.929 . S
H592 C606 0.931 . S
H593 C608 0.916 1_455 S
C594 H582 0.930 1_655 S
C594 C595 1.399 . S
C594 C599 1.399 . S
C595 C594 1.399 . S
C595 C596 1.376 . S
C596 H583 0.930 . S
C596 C595 1.376 . S
C596 C597 1.388 . S
C597 H584 0.930 . S
C597 C596 1.388 . S
C597 C598 1.390 . S
C598 C597 1.390 . S
C598 C599 1.394 . S
C598 C604 1.465 . S
C599 C594 1.399 . S
C599 C598 1.394 . S
C599 C600 1.516 . S
C600 C599 1.516 . S
C600 C601 1.502 1_655 S
C600 C602 1.561 . S
C600 C603 1.526 . S
C601 H585 0.959 . S
C601 H586 0.959 . S
C601 H587 0.961 . S
C601 C600 1.502 1_455 S
C602 H588 0.960 . S
C602 H589 0.961 . S
C602 H590 0.959 . S
C602 C600 1.561 . S
C603 C600 1.526 . S
C603 C604 1.396 . S
C603 C608 1.390 . S
C604 C598 1.465 . S
C604 C603 1.396 . S
C604 C605 1.399 . S
C605 H591 0.929 . S
C605 C604 1.399 . S
C605 C606 1.385 . S
C606 H592 0.931 . S
C606 C605 1.385 . S
C606 C607 1.389 . S
C607 C606 1.389 . S
C607 C608 1.387 . S
C608 H593 0.916 1_655 S
C608 C603 1.390 . S
C608 C607 1.387 . S
H609 C621 0.930 . S
H610 C623 0.930 . S
H611 C624 0.930 . S
H612 C628 0.959 . S
H613 C628 0.959 . S
H614 C628 0.961 . S
H615 C629 0.960 . S
H616 C629 0.961 . S
H617 C629 0.959 . S
H618 C632 0.929 . S
H619 C633 0.931 . S
H620 C635 0.930 . S
C621 H609 0.930 . S
C621 C622 1.399 . S
C621 C626 1.399 . S
C622 C621 1.399 . S
C622 C623 1.376 1_565 S
C623 H610 0.930 . S
C623 C622 1.376 1_545 S
C623 C624 1.388 . S
C624 H611 0.930 . S
C624 C623 1.388 . S
C624 C625 1.390 . S
C625 C624 1.390 . S
C625 C626 1.394 1_545 S
C625 C631 1.465 . S
C626 C621 1.399 . S
C626 C625 1.394 1_565 S
C626 C627 1.516 . S
C627 C626 1.516 . S
C627 C628 1.502 . S
C627 C629 1.561 . S
C627 C630 1.526 . S
C628 H612 0.959 . S
C628 H613 0.959 . S
C628 H614 0.961 . S
C628 C627 1.502 . S
C629 H615 0.960 . S
C629 H616 0.961 . S
C629 H617 0.959 . S
C629 C627 1.561 . S
C630 C627 1.526 . S
C630 C631 1.396 1_565 S
C630 C635 1.390 . S
C631 C625 1.465 . S
C631 C630 1.396 1_545 S
C631 C632 1.399 . S
C632 H618 0.929 . S
C632 C631 1.399 . S
C632 C633 1.385 . S
C633 H619 0.931 . S
C633 C632 1.385 . S
C633 C634 1.389 1_545 S
C634 C633 1.389 1_565 S
C634 C635 1.387 . S
C635 H620 0.930 . S
C635 C630 1.390 . S
C635 C634 1.387 . S
H636 C648 0.930 . S
H637 C650 0.930 . S
H638 C651 0.930 . S
H639 C655 0.959 . S
H640 C655 0.959 . S
H641 C655 0.961 1_554 S
H642 C656 0.960 . S
H643 C656 0.961 . S
H644 C656 0.959 . S
H645 C659 0.929 . S
H646 C660 0.931 . S
H647 C662 0.930 . S
C648 H636 0.930 . S
C648 C649 1.399 . S
C648 C653 1.399 . S
C649 C648 1.399 . S
C649 C650 1.376 . S
C650 H637 0.930 . S
C650 C649 1.376 . S
C650 C651 1.388 1_554 S
C651 H638 0.930 . S
C651 C650 1.388 1_556 S
C651 C652 1.390 . S
C652 C651 1.390 . S
C652 C653 1.394 1_556 S
C652 C658 1.465 . S
C653 C648 1.399 . S
C653 C652 1.394 1_554 S
C653 C654 1.516 1_554 S
C654 C653 1.516 1_556 S
C654 C655 1.502 . S
C654 C656 1.561 1_556 S
C654 C657 1.526 . S
C655 H639 0.959 . S
C655 H640 0.959 . S
C655 H641 0.961 1_556 S
C655 C654 1.502 . S
C656 H642 0.960 . S
C656 H643 0.961 . S
C656 H644 0.959 . S
C656 C654 1.561 1_554 S
C657 C654 1.526 . S
C657 C658 1.396 . S
C657 C662 1.390 . S
C658 C652 1.465 . S
C658 C657 1.396 . S
C658 C659 1.399 . S
C659 H645 0.929 . S
C659 C658 1.399 . S
C659 C660 1.385 . S
C660 H646 0.931 . S
C660 C659 1.385 . S
C660 C661 1.389 . S
C661 C660 1.389 . S
C661 C662 1.387 . S
C662 H647 0.930 . S
C662 C657 1.390 . S
C662 C661 1.387 . S
H663 C675 0.930 . S
H664 C677 0.930 . S
H665 C678 0.930 . S
H666 C682 0.959 1_655 S
H667 C682 0.959 . S
H668 C682 0.961 . S
H669 C683 0.960 . S
H670 C683 0.961 . S
H671 C683 0.959 . S
H672 C686 0.929 . S
H673 C687 0.931 . S
H674 C689 0.930 . S
C675 H663 0.930 . S
C675 C676 1.399 . S
C675 C680 1.399 . S
C676 C675 1.399 . S
C676 C677 1.376 . S
C677 H664 0.930 . S
C677 C676 1.376 . S
C677 C678 1.388 . S
C678 H665 0.930 . S
C678 C677 1.388 . S
C678 C679 1.390 . S
C679 C678 1.390 . S
C679 C680 1.394 . S
C679 C685 1.465 . S
C680 C675 1.399 . S
C680 C679 1.394 . S
C680 C681 1.516 . S
C681 C680 1.516 . S
C681 C682 1.502 . S
C681 C683 1.561 . S
C681 C684 1.526 . S
C682 H666 0.959 1_455 S
C682 H667 0.959 . S
C682 H668 0.961 . S
C682 C681 1.502 . S
C683 H669 0.960 . S
C683 H670 0.961 . S
C683 H671 0.959 . S
C683 C681 1.561 . S
C684 C681 1.526 . S
C684 C685 1.396 . S
C684 C689 1.390 . S
C685 C679 1.465 . S
C685 C684 1.396 . S
C685 C686 1.399 . S
C686 H672 0.929 . S
C686 C685 1.399 . S
C686 C687 1.385 . S
C687 H673 0.931 . S
C687 C686 1.385 . S
C687 C688 1.389 . S
C688 C687 1.389 . S
C688 C689 1.387 . S
C689 H674 0.930 . S
C689 C684 1.390 . S
C689 C688 1.387 . S
H690 C702 0.930 . S
H691 C704 0.930 . S
H692 C705 0.930 . S
H693 C709 0.959 . S
H694 C709 0.959 . S
H695 C709 0.961 . S
H696 C710 0.960 . S
H697 C710 0.961 . S
H698 C710 0.959 . S
H699 C713 0.929 . S
H700 C714 0.931 . S
H701 C716 0.930 . S
C702 H690 0.930 . S
C702 C703 1.399 . S
C702 C707 1.399 . S
C703 C702 1.399 . S
C703 C704 1.376 . S
C704 H691 0.930 . S
C704 C703 1.376 . S
C704 C705 1.388 . S
C705 H692 0.930 . S
C705 C704 1.388 . S
C705 C706 1.390 . S
C706 C705 1.390 . S
C706 C707 1.394 . S
C706 C712 1.465 . S
C707 C702 1.399 . S
C707 C706 1.394 . S
C707 C708 1.516 . S
C708 C707 1.516 . S
C708 C709 1.502 . S
C708 C710 1.561 . S
C708 C711 1.526 . S
C709 H693 0.959 . S
C709 H694 0.959 . S
C709 H695 0.961 . S
C709 C708 1.502 . S
C710 H696 0.960 . S
C710 H697 0.961 . S
C710 H698 0.959 . S
C710 C708 1.561 . S
C711 C708 1.526 . S
C711 C712 1.396 . S
C711 C716 1.390 . S
C712 C706 1.465 . S
C712 C711 1.396 . S
C712 C713 1.399 . S
C713 H699 0.929 . S
C713 C712 1.399 . S
C713 C714 1.385 . S
C714 H700 0.931 . S
C714 C713 1.385 . S
C714 C715 1.389 . S
C715 C714 1.389 . S
C715 C716 1.387 . S
C716 H701 0.930 . S
C716 C711 1.390 . S
C716 C715 1.387 . S
H717 C729 0.930 . S
H718 C731 0.930 . S
H719 C732 0.930 . S
H720 C736 0.959 . S
H721 C736 0.959 . S
H722 C736 0.961 . S
H723 C737 0.960 . S
H724 C737 0.961 . S
H725 C737 0.959 . S
H726 C740 0.929 . S
H727 C741 0.931 . S
H728 C743 0.930 . S
C729 H717 0.930 . S
C729 C730 1.399 . S
C729 C734 1.399 . S
C730 C729 1.399 . S
C730 C731 1.376 . S
C731 H718 0.930 . S
C731 C730 1.376 . S
C731 C732 1.388 . S
C732 H719 0.930 . S
C732 C731 1.388 . S
C732 C733 1.390 . S
C733 C732 1.390 . S
C733 C734 1.394 . S
C733 C739 1.465 . S
C734 C729 1.399 . S
C734 C733 1.394 . S
C734 C735 1.516 . S
C735 C734 1.516 . S
C735 C736 1.502 . S
C735 C737 1.561 . S
C735 C738 1.526 . S
C736 H720 0.959 . S
C736 H721 0.959 . S
C736 H722 0.961 . S
C736 C735 1.502 . S
C737 H723 0.960 . S
C737 H724 0.961 . S
C737 H725 0.959 . S
C737 C735 1.561 . S
C738 C735 1.526 . S
C738 C739 1.396 . S
C738 C743 1.390 . S
C739 C733 1.465 . S
C739 C738 1.396 . S
C739 C740 1.399 . S
C740 H726 0.929 . S
C740 C739 1.399 . S
C740 C741 1.385 . S
C741 H727 0.931 . S
C741 C740 1.385 . S
C741 C742 1.389 . S
C742 C741 1.389 . S
C742 C743 1.387 . S
C743 H728 0.930 . S
C743 C738 1.390 . S
C743 C742 1.387 . S
H744 C756 0.930 . S
H745 C758 0.930 . S
H746 C759 0.930 . S
H747 C763 0.959 . S
H748 C763 0.959 . S
H749 C763 0.961 . S
H750 C764 0.960 . S
H751 C764 0.961 . S
H752 C764 0.959 . S
H753 C767 0.929 . S
H754 C768 0.931 . S
H755 C770 0.930 . S
C756 H744 0.930 . S
C756 C757 1.399 . S
C756 C761 1.399 . S
C757 C756 1.399 . S
C757 C758 1.376 . S
C758 H745 0.930 . S
C758 C757 1.376 . S
C758 C759 1.388 . S
C759 H746 0.930 . S
C759 C758 1.388 . S
C759 C760 1.390 . S
C760 C759 1.390 . S
C760 C761 1.394 . S
C760 C766 1.465 . S
C761 C756 1.399 . S
C761 C760 1.394 . S
C761 C762 1.516 . S
C762 C761 1.516 . S
C762 C763 1.502 . S
C762 C764 1.561 . S
C762 C765 1.526 . S
C763 H747 0.959 . S
C763 H748 0.959 . S
C763 H749 0.961 . S
C763 C762 1.502 . S
C764 H750 0.960 . S
C764 H751 0.961 . S
C764 H752 0.959 . S
C764 C762 1.561 . S
C765 C762 1.526 . S
C765 C766 1.396 . S
C765 C770 1.390 . S
C766 C760 1.465 . S
C766 C765 1.396 . S
C766 C767 1.399 . S
C767 H753 0.929 . S
C767 C766 1.399 . S
C767 C768 1.385 . S
C768 H754 0.931 . S
C768 C767 1.385 . S
C768 C769 1.389 . S
C769 C768 1.389 . S
C769 C770 1.387 . S
C770 H755 0.930 . S
C770 C765 1.390 . S
C770 C769 1.387 . S
H771 C783 0.930 . S
H772 C785 0.930 . S
H773 C786 0.930 . S
H774 C790 0.959 . S
H775 C790 0.959 . S
H776 C790 0.961 . S
H777 C791 0.960 . S
H778 C791 0.961 . S
H779 C791 0.959 . S
H780 C794 0.929 . S
H781 C795 0.931 . S
H782 C797 0.930 . S
C783 H771 0.930 . S
C783 C784 1.399 . S
C783 C788 1.399 . S
C784 C783 1.399 . S
C784 C785 1.376 . S
C785 H772 0.930 . S
C785 C784 1.376 . S
C785 C786 1.388 . S
C786 H773 0.930 . S
C786 C785 1.388 . S
C786 C787 1.390 . S
C787 C786 1.390 . S
C787 C788 1.394 . S
C787 C793 1.465 . S
C788 C783 1.399 . S
C788 C787 1.394 . S
C788 C789 1.516 . S
C789 C788 1.516 . S
C789 C790 1.502 . S
C789 C791 1.561 . S
C789 C792 1.526 . S
C790 H774 0.959 . S
C790 H775 0.959 . S
C790 H776 0.961 . S
C790 C789 1.502 . S
C791 H777 0.960 . S
C791 H778 0.961 . S
C791 H779 0.959 . S
C791 C789 1.561 . S
C792 C789 1.526 . S
C792 C793 1.396 . S
C792 C797 1.390 . S
C793 C787 1.465 . S
C793 C792 1.396 . S
C793 C794 1.399 . S
C794 H780 0.929 . S
C794 C793 1.399 . S
C794 C795 1.385 . S
C795 H781 0.931 . S
C795 C794 1.385 . S
C795 C796 1.389 . S
C796 C795 1.389 . S
C796 C797 1.387 . S
C797 H782 0.930 . S
C797 C792 1.390 . S
C797 C796 1.387 . S
H798 C810 0.930 . S
H799 C812 0.930 . S
H800 C813 0.930 . S
H801 C817 0.959 . S
H802 C817 0.959 . S
H803 C817 0.961 . S
H804 C818 0.960 . S
H805 C818 0.961 . S
H806 C818 0.959 . S
H807 C821 0.929 . S
H808 C822 0.931 . S
H809 C824 0.930 . S
C810 H798 0.930 . S
C810 C811 1.399 . S
C810 C815 1.399 . S
C811 C810 1.399 . S
C811 C812 1.376 . S
C812 H799 0.930 . S
C812 C811 1.376 . S
C812 C813 1.388 . S
C813 H800 0.930 . S
C813 C812 1.388 . S
C813 C814 1.390 . S
C814 C813 1.390 . S
C814 C815 1.394 . S
C814 C820 1.465 . S
C815 C810 1.399 . S
C815 C814 1.394 . S
C815 C816 1.516 . S
C816 C815 1.516 . S
C816 C817 1.502 . S
C816 C818 1.561 . S
C816 C819 1.526 . S
C817 H801 0.959 . S
C817 H802 0.959 . S
C817 H803 0.961 . S
C817 C816 1.502 . S
C818 H804 0.960 . S
C818 H805 0.961 . S
C818 H806 0.959 . S
C818 C816 1.561 . S
C819 C816 1.526 . S
C819 C820 1.396 . S
C819 C824 1.390 . S
C820 C814 1.465 . S
C820 C819 1.396 . S
C820 C821 1.399 . S
C821 H807 0.929 . S
C821 C820 1.399 . S
C821 C822 1.385 . S
C822 H808 0.931 . S
C822 C821 1.385 . S
C822 C823 1.389 . S
C823 C822 1.389 . S
C823 C824 1.387 . S
C824 H809 0.930 . S
C824 C819 1.390 . S
C824 C823 1.387 . S
H825 C837 0.930 . S
H826 C839 0.930 . S
H827 C840 0.930 . S
H828 C844 0.959 . S
H829 C844 0.959 . S
H830 C844 0.961 . S
H831 C845 0.960 . S
H832 C845 0.961 . S
H833 C845 0.959 . S
H834 C848 0.929 . S
H835 C849 0.931 . S
H836 C851 0.930 . S
C837 H825 0.930 . S
C837 C838 1.399 . S
C837 C842 1.399 . S
C838 C837 1.399 . S
C838 C839 1.376 . S
C839 H826 0.930 . S
C839 C838 1.376 . S
C839 C840 1.388 . S
C840 H827 0.930 . S
C840 C839 1.388 . S
C840 C841 1.390 . S
C841 C840 1.390 . S
C841 C842 1.394 . S
C841 C847 1.465 . S
C842 C837 1.399 . S
C842 C841 1.394 . S
C842 C843 1.516 1_556 S
C843 C842 1.516 1_554 S
C843 C844 1.502 . S
C843 C845 1.561 . S
C843 C846 1.526 . S
C844 H828 0.959 . S
C844 H829 0.959 . S
C844 H830 0.961 . S
C844 C843 1.502 . S
C845 H831 0.960 . S
C845 H832 0.961 . S
C845 H833 0.959 . S
C845 C843 1.561 . S
C846 C843 1.526 . S
C846 C847 1.396 1_554 S
C846 C851 1.390 . S
C847 C841 1.465 . S
C847 C846 1.396 1_556 S
C847 C848 1.399 . S
C848 H834 0.929 . S
C848 C847 1.399 . S
C848 C849 1.385 . S
C849 H835 0.931 . S
C849 C848 1.385 . S
C849 C850 1.389 1_556 S
C850 C849 1.389 1_554 S
C850 C851 1.387 . S
C851 H836 0.930 . S
C851 C846 1.390 . S
C851 C850 1.387 . S
C541 C29 1.288 . S
C553 C313 1.310 . S
C568 C117 1.275 . S
C580 C401 1.309 . S
C595 C489 1.280 . S
C607 C205 1.311 . S
C622 C57 1.276 . S
C634 C284 1.279 . S
C649 C145 1.288 . S
C661 C372 1.270 . S
C676 C460 1.278 . S
C688 C233 1.311 . S
C703 C108 1.479 . S
C715 C49 1.481 . S
C730 C196 1.468 . S
C742 C137 1.493 . S
C757 C225 1.503 . S
C769 C293 1.464 . S
C784 C381 1.508 . S
C796 C321 1.463 . S
C811 C469 1.507 . S
C823 C409 1.481 . S
C838 C497 1.507 . S
C850 C20 1.463 . S
