# Generated by pormake.
# Topology zfc, (5)-cn, num edge types: 1
# Building blocks:
#     Node 0, Type 0, BuildingBlock: XOMCOT_clean_sbu_0, # of connection points: 5
#     Node 1, Type 0, BuildingBlock: XOMCOT_clean_sbu_0, # of connection points: 5
#     Node 2, Type 0, BuildingBlock: XOMCOT_clean_sbu_0, # of connection points: 5
#     Node 3, Type 0, BuildingBlock: XOMCOT_clean_sbu_0, # of connection points: 5
#     Node 4, Type 0, BuildingBlock: XOMCOT_clean_sbu_0, # of connection points: 5
#     Node 5, Type 0, BuildingBlock: XOMCOT_clean_sbu_0, # of connection points: 5
#     Node 6, Type 0, BuildingBlock: XOMCOT_clean_sbu_0, # of connection points: 5
#     Node 7, Type 0, BuildingBlock: XOMCOT_clean_sbu_0, # of connection points: 5
#     Node 8, Type 0, BuildingBlock: XOMCOT_clean_sbu_0, # of connection points: 5
#     Node 9, Type 0, BuildingBlock: XOMCOT_clean_sbu_0, # of connection points: 5
#     Node 10, Type 0, BuildingBlock: XOMCOT_clean_sbu_0, # of connection points: 5
#     Node 11, Type 0, BuildingBlock: XOMCOT_clean_sbu_0, # of connection points: 5
#     Node 12, Type 0, BuildingBlock: XOMCOT_clean_sbu_0, # of connection points: 5
#     Node 13, Type 0, BuildingBlock: XOMCOT_clean_sbu_0, # of connection points: 5
#     Node 14, Type 0, BuildingBlock: XOMCOT_clean_sbu_0, # of connection points: 5
#     Node 15, Type 0, BuildingBlock: XOMCOT_clean_sbu_0, # of connection points: 5
#     Edge 16, Type (0, 0), BuildingBlock: OJICUG_clean_linker_0, # of connection points: 2
#     Edge 17, Type (0, 0), BuildingBlock: OJICUG_clean_linker_0, # of connection points: 2
#     Edge 18, Type (0, 0), BuildingBlock: OJICUG_clean_linker_0, # of connection points: 2
#     Edge 19, Type (0, 0), BuildingBlock: OJICUG_clean_linker_0, # of connection points: 2
#     Edge 20, Type (0, 0), BuildingBlock: OJICUG_clean_linker_0, # of connection points: 2
#     Edge 21, Type (0, 0), BuildingBlock: OJICUG_clean_linker_0, # of connection points: 2
#     Edge 22, Type (0, 0), BuildingBlock: OJICUG_clean_linker_0, # of connection points: 2
#     Edge 23, Type (0, 0), BuildingBlock: OJICUG_clean_linker_0, # of connection points: 2
#     Edge 24, Type (0, 0), BuildingBlock: OJICUG_clean_linker_0, # of connection points: 2
#     Edge 25, Type (0, 0), BuildingBlock: OJICUG_clean_linker_0, # of connection points: 2
#     Edge 26, Type (0, 0), BuildingBlock: OJICUG_clean_linker_0, # of connection points: 2
#     Edge 27, Type (0, 0), BuildingBlock: OJICUG_clean_linker_0, # of connection points: 2
#     Edge 28, Type (0, 0), BuildingBlock: OJICUG_clean_linker_0, # of connection points: 2
#     Edge 29, Type (0, 0), BuildingBlock: OJICUG_clean_linker_0, # of connection points: 2
#     Edge 30, Type (0, 0), BuildingBlock: OJICUG_clean_linker_0, # of connection points: 2
#     Edge 31, Type (0, 0), BuildingBlock: OJICUG_clean_linker_0, # of connection points: 2
#     Edge 32, Type (0, 0), BuildingBlock: OJICUG_clean_linker_0, # of connection points: 2
#     Edge 33, Type (0, 0), BuildingBlock: OJICUG_clean_linker_0, # of connection points: 2
#     Edge 34, Type (0, 0), BuildingBlock: OJICUG_clean_linker_0, # of connection points: 2
#     Edge 35, Type (0, 0), BuildingBlock: OJICUG_clean_linker_0, # of connection points: 2
#     Edge 36, Type (0, 0), BuildingBlock: OJICUG_clean_linker_0, # of connection points: 2
#     Edge 37, Type (0, 0), BuildingBlock: OJICUG_clean_linker_0, # of connection points: 2
#     Edge 38, Type (0, 0), BuildingBlock: OJICUG_clean_linker_0, # of connection points: 2
#     Edge 39, Type (0, 0), BuildingBlock: OJICUG_clean_linker_0, # of connection points: 2
#     Edge 40, Type (0, 0), BuildingBlock: OJICUG_clean_linker_0, # of connection points: 2
#     Edge 41, Type (0, 0), BuildingBlock: OJICUG_clean_linker_0, # of connection points: 2
#     Edge 42, Type (0, 0), BuildingBlock: OJICUG_clean_linker_0, # of connection points: 2
#     Edge 43, Type (0, 0), BuildingBlock: OJICUG_clean_linker_0, # of connection points: 2
#     Edge 44, Type (0, 0), BuildingBlock: OJICUG_clean_linker_0, # of connection points: 2
#     Edge 45, Type (0, 0), BuildingBlock: OJICUG_clean_linker_0, # of connection points: 2
#     Edge 46, Type (0, 0), BuildingBlock: OJICUG_clean_linker_0, # of connection points: 2
#     Edge 47, Type (0, 0), BuildingBlock: OJICUG_clean_linker_0, # of connection points: 2
#     Edge 48, Type (0, 0), BuildingBlock: OJICUG_clean_linker_0, # of connection points: 2
#     Edge 49, Type (0, 0), BuildingBlock: OJICUG_clean_linker_0, # of connection points: 2
#     Edge 50, Type (0, 0), BuildingBlock: OJICUG_clean_linker_0, # of connection points: 2
#     Edge 51, Type (0, 0), BuildingBlock: OJICUG_clean_linker_0, # of connection points: 2
#     Edge 52, Type (0, 0), BuildingBlock: OJICUG_clean_linker_0, # of connection points: 2
#     Edge 53, Type (0, 0), BuildingBlock: OJICUG_clean_linker_0, # of connection points: 2
#     Edge 54, Type (0, 0), BuildingBlock: OJICUG_clean_linker_0, # of connection points: 2
#     Edge 55, Type (0, 0), BuildingBlock: OJICUG_clean_linker_0, # of connection points: 2
# Relax obj value: 0.132
# Max RMSD: 0.149
# Mean RMSD: 0.149
data_MOF--net-zfc--node1-XOMCOT_clean_sbu_0--edge1-OJICUG_clean_linker_0
_symmetry_space_group_name_H-M    P1
_symmetry_Int_Tables_number       1
_symmetry_cell_setting            triclinic
loop_
_symmetry_equiv_pos_as_xyz
'x, y, z'
_cell_length_a     56.044643
_cell_length_b     56.036047
_cell_length_c     13.563621
_cell_angle_alpha  90.106529
_cell_angle_beta   89.952266
_cell_angle_gamma 90.003314
loop_
_atom_site_label
_atom_site_type_symbol
_atom_site_fract_x
_atom_site_fract_y
_atom_site_fract_z
_atom_type_partial_charge
Co0 Co 0.28154 0.09124 0.08778 0.0
C1 C 0.28184 0.09227 0.87098 0.0
C2 C 0.31578 0.103 0.92945 0.0
C3 C 0.31722 0.10268 0.82784 0.0
N4 N 0.29356 0.09655 0.95601 0.0
N5 N 0.29589 0.09577 0.79134 0.0
H6 H 0.26343 0.08648 0.86778 0.0
H7 H 0.3301 0.10701 0.98022 0.0
C8 C 0.29851 0.13267 0.20389 0.0
O9 O 0.27601 0.13511 0.2295 0.0
N10 N 0.27009 0.08482 0.2217 0.0
C11 C 0.2495 0.0745 0.25118 0.0
C12 C 0.24945 0.07267 0.35247 0.0
C13 C 0.28287 0.0873 0.30576 0.0
N14 N 0.2704 0.08103 0.38692 0.0
C15 C 0.23365 0.11022 0.07113 0.0
C16 C 0.24702 0.15473 1.00298 0.0
C17 C 0.22281 0.14998 0.01871 0.0
C18 C 0.21614 0.12734 0.05227 0.0
C19 C 0.26397 0.13724 0.02488 0.0
N20 N 0.25731 0.11561 0.06285 0.0
H21 H 0.228 0.09247 0.08894 0.0
H22 H 0.28258 0.14116 1.01152 0.0
H23 H 0.23574 0.06764 0.20345 0.0
H24 H 0.30126 0.09308 0.30757 0.0
O25 O 0.26423 0.06393 0.04027 0.0
O26 O 0.30136 0.06289 0.09672 0.0
O27 O 0.30447 0.11608 0.14332 0.0
C28 C 0.28324 0.05147 0.05897 0.0
H29 H 0.333 0.10642 0.78446 0.0
H30 H 0.235 0.06573 0.39692 0.0
H31 H 0.2528 0.17189 0.97516 0.0
H32 H 0.1975 0.12272 0.06126 0.0
Co33 Co 0.91104 0.28297 0.07645 0.0
C34 C 0.90923 0.28306 0.85664 0.0
C35 C 0.90515 0.31807 0.91754 0.0
C36 C 0.90576 0.31994 0.81633 0.0
N37 N 0.90668 0.29485 0.94298 0.0
N38 N 0.90845 0.29787 0.77834 0.0
H39 H 0.91262 0.26424 0.85029 0.0
H40 H 0.90453 0.33278 0.96923 0.0
C41 C 0.86736 0.31329 0.09209 0.0
O42 O 0.86026 0.30355 1.00887 0.0
N43 N 0.91596 0.27177 0.20893 0.0
C44 C 0.92041 0.24921 0.23732 0.0
C45 C 0.92136 0.24864 0.33877 0.0
C46 C 0.91437 0.28464 0.29265 0.0
N47 N 0.91748 0.27092 0.37346 0.0
C48 C 0.8906 0.23984 0.99898 0.0
C49 C 0.84843 0.24121 0.10418 0.0
C50 C 0.85195 0.2229 0.03522 0.0
C51 C 0.8736 0.22204 0.984 0.0
C52 C 0.86615 0.2585 0.11785 0.0
N53 N 0.88623 0.25869 0.06036 0.0
H54 H 0.90759 0.23793 0.96287 0.0
H55 H 0.86376 0.27145 0.17599 0.0
H56 H 0.92229 0.23417 0.18782 0.0
H57 H 0.91096 0.30363 0.29417 0.0
O58 O 0.93796 0.26444 0.03257 0.0
O59 O 0.94001 0.30191 0.08439 0.0
O60 O 0.88746 0.30732 0.12902 0.0
C61 C 0.95094 0.2832 0.04915 0.0
H62 H 0.90541 0.33633 0.77431 0.0
H63 H 0.92397 0.23286 0.38338 0.0
H64 H 0.83243 0.24181 0.14894 0.0
H65 H 0.87741 0.20773 0.93254 0.0
Co66 Co 0.71803 0.9113 0.08578 0.0
C67 C 0.71768 0.91057 0.86576 0.0
C68 C 0.68296 0.90474 0.92672 0.0
C69 C 0.68098 0.90549 0.82557 0.0
N70 N 0.70612 0.9072 0.95206 0.0
N71 N 0.70287 0.90925 0.78752 0.0
H72 H 0.73628 0.91493 0.85943 0.0
H73 H 0.66833 0.90329 0.97843 0.0
C74 C 0.68873 0.86702 0.09961 0.0
O75 O 0.69875 0.86022 0.01651 0.0
N76 N 0.72922 0.91601 0.2185 0.0
C77 C 0.75171 0.92074 0.24719 0.0
C78 C 0.75219 0.92185 0.34864 0.0
C79 C 0.7163 0.91442 0.30198 0.0
N80 N 0.72992 0.9178 0.38294 0.0
C81 C 0.76076 0.89046 1.00417 0.0
C82 C 0.75998 0.84907 0.11407 0.0
C83 C 0.77751 0.85167 0.04097 0.0
C84 C 0.77809 0.87302 0.98746 0.0
C85 C 0.74304 0.86704 0.12842 0.0
N86 N 0.74244 0.88667 0.06864 0.0
H87 H 0.76266 0.90734 0.96739 0.0
H88 H 0.73049 0.86512 0.18828 0.0
H89 H 0.76674 0.92279 0.19787 0.0
H90 H 0.69733 0.91088 0.30323 0.0
O91 O 0.73628 0.93857 0.04363 0.0
O92 O 0.69879 0.93994 0.09594 0.0
O93 O 0.69402 0.88731 0.13687 0.0
C94 C 0.71738 0.95126 0.06205 0.0
H95 H 0.66459 0.90438 0.78365 0.0
H96 H 0.76788 0.92475 0.39356 0.0
H97 H 0.75921 0.83325 0.15969 0.0
H98 H 0.79219 0.87655 0.9348 0.0
Co99 Co 0.08938 0.7232 0.12616 0.0
C100 C 0.09275 0.72333 0.90718 0.0
C101 C 0.09417 0.68798 0.96638 0.0
C102 C 0.09366 0.68639 0.86501 0.0
N103 N 0.09416 0.71119 0.99299 0.0
N104 N 0.09261 0.70867 0.82799 0.0
H105 H 0.09074 0.74238 0.90202 0.0
H106 H 0.09352 0.67317 0.01736 0.0
C107 C 0.13165 0.69013 0.14757 0.0
O108 O 0.13969 0.69656 0.06058 0.0
N109 N 0.08412 0.73473 0.25841 0.0
C110 C 0.08059 0.75747 0.28687 0.0
C111 C 0.07985 0.7582 0.38842 0.0
C112 C 0.08528 0.72192 0.34228 0.0
N113 N 0.08293 0.73582 0.42327 0.0
C114 C 0.10983 0.76674 0.05319 0.0
C115 C 0.15338 0.76308 0.14679 0.0
C116 C 0.14963 0.78222 0.08192 0.0
C117 C 0.12714 0.78422 0.03734 0.0
C118 C 0.13533 0.74624 0.16206 0.0
N119 N 0.11444 0.74723 0.11019 0.0
H120 H 0.09251 0.76924 0.02043 0.0
H121 H 0.13826 0.73274 0.21711 0.0
H122 H 0.07937 0.77253 0.23741 0.0
H123 H 0.08802 0.70282 0.34374 0.0
O124 O 0.06237 0.74145 0.08032 0.0
O125 O 0.06059 0.70416 0.13387 0.0
O126 O 0.11235 0.69898 0.18172 0.0
C127 C 0.04956 0.72255 0.09717 0.0
H128 H 0.09281 0.67009 0.82221 0.0
H129 H 0.07807 0.77415 0.4329 0.0
H130 H 0.17012 0.76089 0.18537 0.0
H131 H 0.12268 0.79935 0.99141 0.0
Co132 Co 0.28175 0.91134 0.93095 0.0
C133 C 0.28202 0.91029 0.14774 0.0
C134 C 0.31598 0.8996 0.08906 0.0
C135 C 0.31741 0.8999 0.19065 0.0
N136 N 0.29375 0.90603 0.06264 0.0
N137 N 0.29607 0.90679 0.22729 0.0
H138 H 0.26361 0.91606 0.15107 0.0
H139 H 0.33031 0.89561 0.0382 0.0
C140 C 0.29896 0.86995 0.81487 0.0
O141 O 0.27649 0.86738 0.78913 0.0
N142 N 0.27032 0.91775 0.79709 0.0
C143 C 0.24973 0.92806 0.76776 0.0
C144 C 0.24966 0.92988 0.66648 0.0
C145 C 0.2831 0.91526 0.71294 0.0
N146 N 0.27061 0.92152 0.63188 0.0
C147 C 0.23389 0.89239 0.94806 0.0
C148 C 0.24719 0.84787 0.01618 0.0
C149 C 0.22297 0.8527 1.00121 0.0
C150 C 0.21635 0.87533 0.96755 0.0
C151 C 0.26418 0.86529 0.99368 0.0
N152 N 0.25754 0.88694 0.95585 0.0
H153 H 0.22826 0.91015 0.93037 0.0
H154 H 0.28278 0.86134 1.0067 0.0
H155 H 0.23597 0.93491 0.81557 0.0
H156 H 0.30149 0.90949 0.71097 0.0
O157 O 0.26438 0.93861 0.97855 0.0
O158 O 0.30153 0.93974 0.92205 0.0
O159 O 0.30478 0.88658 0.87541 0.0
C160 C 0.28337 0.95111 0.95984 0.0
H161 H 0.33319 0.89618 0.23393 0.0
H162 H 0.23521 0.93681 0.62213 0.0
H163 H 0.25295 0.83071 0.04409 0.0
H164 H 0.19771 0.88003 0.95915 0.0
Co165 Co 0.09 0.28077 0.90435 0.0
C166 C 0.09364 0.28054 0.1232 0.0
C167 C 0.09546 0.31588 0.06414 0.0
C168 C 0.09497 0.31745 0.16551 0.0
N169 N 0.09518 0.29268 0.03741 0.0
N170 N 0.09367 0.29517 0.20247 0.0
H171 H 0.09137 0.26151 0.12826 0.0
H172 H 0.09491 0.33071 0.01325 0.0
C173 C 0.13238 0.31365 0.88074 0.0
O174 O 0.14068 0.30714 0.96715 0.0
N175 N 0.08435 0.26934 0.7722 0.0
C176 C 0.08063 0.24663 0.74377 0.0
C177 C 0.07989 0.2459 0.64222 0.0
C178 C 0.08561 0.28214 0.68827 0.0
N179 N 0.08315 0.26824 0.60729 0.0
C180 C 0.11043 0.23713 0.97591 0.0
C181 C 0.15366 0.24047 0.87939 0.0
C182 C 0.14996 0.2213 0.94418 0.0
C183 C 0.12762 0.21948 0.9903 0.0
C184 C 0.13572 0.25749 0.86559 0.0
N185 N 0.11499 0.25663 0.91877 0.0
H186 H 0.0932 0.23473 1.00977 0.0
H187 H 0.13857 0.27102 0.81055 0.0
H188 H 0.07935 0.23157 0.79323 0.0
H189 H 0.08853 0.3012 0.68675 0.0
O190 O 0.06307 0.26259 0.95147 0.0
O191 O 0.06124 0.29992 0.89847 0.0
O192 O 0.11292 0.30493 0.84779 0.0
C193 C 0.05027 0.28154 0.93569 0.0
H194 H 0.09426 0.33375 0.20834 0.0
H195 H 0.07803 0.22996 0.59778 0.0
H196 H 0.17029 0.24253 0.83971 0.0
H197 H 0.12317 0.20435 0.03626 0.0
Co198 Co 0.71944 0.0916 0.94139 0.0
C199 C 0.71911 0.09221 0.16088 0.0
C200 C 0.68616 0.10497 0.10162 0.0
C201 C 0.68427 0.10441 0.20283 0.0
N202 N 0.70832 0.09803 0.07507 0.0
N203 N 0.70504 0.09633 0.23998 0.0
H204 H 0.73644 0.08401 0.16578 0.0
H205 H 0.67183 0.10906 0.05116 0.0
C206 C 0.69174 0.13687 0.90845 0.0
O207 O 0.70326 0.14706 0.98163 0.0
N208 N 0.72988 0.08476 0.80879 0.0
C209 C 0.7519 0.07814 0.77983 0.0
C210 C 0.75226 0.07687 0.67832 0.0
C211 C 0.71714 0.08732 0.72526 0.0
N212 N 0.73041 0.08279 0.64423 0.0
C213 C 0.76188 0.11316 0.02034 0.0
C214 C 0.7637 0.15157 0.89329 0.0
C215 C 0.78045 0.15007 0.96969 0.0
C216 C 0.77976 0.13021 0.03201 0.0
C217 C 0.74631 0.13381 0.88337 0.0
N218 N 0.74447 0.1158 0.95096 0.0
H219 H 0.76253 0.09753 0.06584 0.0
H220 H 0.73422 0.13469 0.82151 0.0
H221 H 0.7668 0.07517 0.82892 0.0
H222 H 0.69859 0.09264 0.72372 0.0
O223 O 0.73731 0.06454 0.98829 0.0
O224 O 0.69954 0.06335 0.93973 0.0
O225 O 0.69565 0.11509 0.8859 0.0
C226 C 0.71806 0.05206 0.97421 0.0
H227 H 0.66844 0.10856 0.24528 0.0
H228 H 0.76766 0.07281 0.63313 0.0
H229 H 0.76428 0.16611 0.84082 0.0
H230 H 0.79285 0.12794 0.09 0.0
Co231 Co 0.91089 0.72075 0.94654 0.0
C232 C 0.91057 0.72018 0.16607 0.0
C233 C 0.89691 0.68759 0.10653 0.0
C234 C 0.89756 0.68566 0.20772 0.0
N235 N 0.90434 0.70959 0.08013 0.0
N236 N 0.90621 0.70621 0.24508 0.0
H237 H 0.91922 0.73731 0.17105 0.0
H238 H 0.89246 0.67333 0.05611 0.0
C239 C 0.86624 0.69229 0.9088 0.0
O240 O 0.85537 0.70395 0.97995 0.0
N241 N 0.91791 0.7312 0.81413 0.0
C242 C 0.9243 0.75327 0.78525 0.0
C243 C 0.92566 0.75357 0.68374 0.0
C244 C 0.91559 0.71836 0.73051 0.0
N245 N 0.92003 0.73163 0.64956 0.0
C246 C 0.88759 0.76196 0.02722 0.0
C247 C 0.85046 0.76416 0.89395 0.0
C248 C 0.85065 0.78009 0.97402 0.0
C249 C 0.86997 0.77924 0.03925 0.0
C250 C 0.86864 0.74715 0.88454 0.0
N251 N 0.88603 0.74513 0.95478 0.0
H252 H 0.90278 0.76264 0.07514 0.0
H253 H 0.86847 0.73534 0.82149 0.0
H254 H 0.927 0.76826 0.83435 0.0
H255 H 0.91047 0.69976 0.72876 0.0
O256 O 0.93721 0.73951 0.99495 0.0
O257 O 0.93977 0.70171 0.94728 0.0
O258 O 0.88819 0.69627 0.88955 0.0
C259 C 0.95032 0.72061 0.98266 0.0
H260 H 0.89309 0.66991 0.24995 0.0
H261 H 0.92954 0.76899 0.63855 0.0
H262 H 0.83624 0.76455 0.83997 0.0
H263 H 0.87171 0.79208 0.09859 0.0
Co264 Co 0.78399 0.58985 0.6033 0.0
C265 C 0.78368 0.59177 0.38402 0.0
C266 C 0.81746 0.60224 0.44329 0.0
C267 C 0.81919 0.60187 0.342 0.0
N268 N 0.79496 0.59655 0.4699 0.0
N269 N 0.79791 0.59518 0.30489 0.0
H270 H 0.76585 0.58475 0.37897 0.0
H271 H 0.83206 0.60524 0.49383 0.0
C272 C 0.81235 0.63477 0.63549 0.0
O273 O 0.80113 0.64471 0.56111 0.0
N274 N 0.77361 0.58276 0.73566 0.0
C275 C 0.75155 0.57623 0.76421 0.0
C276 C 0.75104 0.57515 0.8657 0.0
C277 C 0.78624 0.58548 0.81948 0.0
N278 N 0.77284 0.58111 0.9003 0.0
C279 C 0.74086 0.61093 0.52978 0.0
C280 C 0.74039 0.65047 0.65137 0.0
C281 C 0.72293 0.6486 0.5774 0.0
C282 C 0.72289 0.62792 0.51894 0.0
C283 C 0.75772 0.63263 0.66124 0.0
N284 N 0.75898 0.61413 0.59551 0.0
H285 H 0.73967 0.59486 0.48677 0.0
H286 H 0.77025 0.63392 0.72141 0.0
H287 H 0.73669 0.57328 0.71486 0.0
H288 H 0.80476 0.59085 0.82134 0.0
O289 O 0.76598 0.56299 0.55492 0.0
O290 O 0.80376 0.56137 0.60249 0.0
O291 O 0.80799 0.61318 0.65954 0.0
C292 C 0.78516 0.55032 0.56712 0.0
H293 H 0.83521 0.60503 0.2994 0.0
H294 H 0.73554 0.57125 0.9105 0.0
H295 H 0.74101 0.66566 0.70069 0.0
H296 H 0.70891 0.62457 0.46566 0.0
Co297 Co 0.41282 0.78545 0.5805 0.0
C298 C 0.41227 0.78586 0.36041 0.0
C299 C 0.40559 0.82042 0.42159 0.0
C300 C 0.4064 0.82244 0.32047 0.0
N301 N 0.4085 0.79731 0.4468 0.0
N302 N 0.41068 0.80065 0.28227 0.0
H303 H 0.41719 0.76739 0.35396 0.0
H304 H 0.40384 0.83502 0.47334 0.0
C305 C 0.36852 0.81458 0.59608 0.0
O306 O 0.36158 0.80416 0.51403 0.0
N307 N 0.41778 0.77436 0.71313 0.0
C308 C 0.42266 0.75191 0.74176 0.0
C309 C 0.42384 0.75147 0.84319 0.0
C310 C 0.41616 0.7873 0.79663 0.0
N311 N 0.41967 0.77373 0.87753 0.0
C312 C 0.39145 0.74308 0.49869 0.0
C313 C 0.35086 0.7432 0.61413 0.0
C314 C 0.35302 0.72609 0.5391 0.0
C315 C 0.37394 0.72582 0.48268 0.0
C316 C 0.36881 0.76026 0.62705 0.0
N317 N 0.38804 0.76113 0.56488 0.0
H318 H 0.40808 0.7413 0.45993 0.0
H319 H 0.36721 0.77271 0.68756 0.0
H320 H 0.42473 0.73686 0.69243 0.0
H321 H 0.41248 0.80625 0.79797 0.0
O322 O 0.43981 0.76696 0.5372 0.0
O323 O 0.4417 0.80449 0.58873 0.0
O324 O 0.38896 0.80961 0.63242 0.0
C325 C 0.45273 0.78575 0.55442 0.0
H326 H 0.40499 0.83882 0.2787 0.0
H327 H 0.42684 0.73581 0.8881 0.0
H328 H 0.33537 0.74355 0.66192 0.0
H329 H 0.37704 0.71201 0.42818 0.0
Co330 Co 0.22468 0.41256 0.59806 0.0
C331 C 0.22439 0.41029 0.37861 0.0
C332 C 0.1893 0.40689 0.43908 0.0
C333 C 0.1875 0.40773 0.33779 0.0
N334 N 0.21254 0.40784 0.46487 0.0
N335 N 0.20963 0.41 0.29996 0.0
H336 H 0.24325 0.41343 0.37273 0.0
H337 H 0.17456 0.4067 0.49055 0.0
C338 C 0.19147 0.37055 0.62262 0.0
O339 O 0.19845 0.36174 0.53754 0.0
N340 N 0.23619 0.4178 0.73028 0.0
C341 C 0.25896 0.42085 0.75908 0.0
C342 C 0.25951 0.42189 0.86065 0.0
C343 C 0.2232 0.41721 0.81393 0.0
N344 N 0.237 0.41946 0.89509 0.0
C345 C 0.26676 0.39014 0.52007 0.0
C346 C 0.26361 0.34829 0.62626 0.0
C347 C 0.28156 0.35052 0.55478 0.0
C348 C 0.28333 0.37204 0.50305 0.0
C349 C 0.24726 0.36686 0.64031 0.0
N350 N 0.24799 0.38687 0.5828 0.0
H351 H 0.2695 0.40703 0.48419 0.0
H352 H 0.23432 0.36515 0.69877 0.0
H353 H 0.27414 0.42153 0.70987 0.0
H354 H 0.20404 0.41496 0.81518 0.0
O355 O 0.24373 0.43895 0.55162 0.0
O356 O 0.20641 0.44178 0.60497 0.0
O357 O 0.19994 0.39026 0.65434 0.0
C358 C 0.22514 0.45226 0.56821 0.0
H359 H 0.1711 0.40793 0.29574 0.0
H360 H 0.27539 0.42338 0.90552 0.0
H361 H 0.26209 0.33229 0.67053 0.0
H362 H 0.29775 0.37509 0.45135 0.0
Co363 Co 0.59111 0.22068 0.60385 0.0
C364 C 0.59284 0.22094 0.38453 0.0
C365 C 0.60426 0.18746 0.44347 0.0
C366 C 0.6039 0.18572 0.34219 0.0
N367 N 0.59798 0.2098 0.47029 0.0
N368 N 0.59661 0.2068 0.30527 0.0
H369 H 0.58531 0.23857 0.3797 0.0
H370 H 0.60767 0.17293 0.49382 0.0
C371 C 0.63624 0.19273 0.63663 0.0
O372 O 0.64646 0.20416 0.56339 0.0
N373 N 0.58386 0.23096 0.73633 0.0
C374 C 0.57699 0.25291 0.76509 0.0
C375 C 0.57585 0.25338 0.8666 0.0
C376 C 0.58672 0.21835 0.82004 0.0
N377 N 0.58212 0.23166 0.90098 0.0
C378 C 0.61208 0.26382 0.52951 0.0
C379 C 0.65139 0.26461 0.65192 0.0
C380 C 0.64972 0.28179 0.57682 0.0
C381 C 0.62913 0.28171 0.51801 0.0
C382 C 0.6335 0.24736 0.6623 0.0
N383 N 0.61516 0.2459 0.59613 0.0
H384 H 0.59609 0.26485 0.48606 0.0
H385 H 0.63468 0.23495 0.72291 0.0
H386 H 0.57384 0.26775 0.71587 0.0
H387 H 0.59236 0.1999 0.82177 0.0
O388 O 0.56404 0.23837 0.55575 0.0
O389 O 0.56299 0.20055 0.60333 0.0
O390 O 0.61456 0.19691 0.65973 0.0
C391 C 0.55168 0.21897 0.56815 0.0
H392 H 0.60749 0.16979 0.29947 0.0
H393 H 0.5717 0.26881 0.91157 0.0
H394 H 0.66649 0.26412 0.70152 0.0
H395 H 0.62596 0.2955 0.46378 0.0
Co396 Co 0.78234 0.41056 0.43245 0.0
C397 C 0.78255 0.4093 0.64905 0.0
C398 C 0.81669 0.39914 0.59074 0.0
C399 C 0.81801 0.3994 0.69238 0.0
N400 N 0.79442 0.4053 0.56409 0.0
N401 N 0.79652 0.4059 0.72905 0.0
H402 H 0.76424 0.41537 0.6516 0.0
H403 H 0.83107 0.3952 0.54004 0.0
C404 C 0.79904 0.36896 0.31648 0.0
O405 O 0.77648 0.36651 0.29192 0.0
N406 N 0.77073 0.41694 0.29871 0.0
C407 C 0.75013 0.42739 0.27029 0.0
C408 C 0.74973 0.42908 0.16901 0.0
C409 C 0.78326 0.41431 0.21387 0.0
N410 N 0.77053 0.42061 0.13352 0.0
C411 C 0.73438 0.39183 0.45084 0.0
C412 C 0.74759 0.34738 0.52006 0.0
C413 C 0.72342 0.35228 0.50494 0.0
C414 C 0.71681 0.37485 0.47083 0.0
C415 C 0.76463 0.36471 0.49685 0.0
N416 N 0.75803 0.38632 0.45842 0.0
H417 H 0.72879 0.40958 0.43263 0.0
H418 H 0.78323 0.36071 0.50964 0.0
H419 H 0.73665 0.43453 0.31874 0.0
H420 H 0.8014 0.40786 0.21059 0.0
O421 O 0.76519 0.43798 0.48006 0.0
O422 O 0.80226 0.43885 0.42266 0.0
O423 O 0.80514 0.38559 0.37661 0.0
C424 C 0.78422 0.45036 0.46074 0.0
H425 H 0.83369 0.39525 0.73552 0.0
H426 H 0.73547 0.43658 0.12513 0.0
H427 H 0.75326 0.33022 0.5483 0.0
H428 H 0.69817 0.3795 0.46195 0.0
Co429 Co 0.59327 0.7807 0.43804 0.0
C430 C 0.59432 0.78097 0.65461 0.0
C431 C 0.60463 0.81507 0.59676 0.0
C432 C 0.60436 0.81639 0.6984 0.0
N433 N 0.59838 0.79282 0.56983 0.0
N434 N 0.59778 0.79492 0.73478 0.0
H435 H 0.58822 0.76267 0.65689 0.0
H436 H 0.60866 0.82943 0.54624 0.0
C437 C 0.63504 0.79737 0.32347 0.0
O438 O 0.63762 0.77484 0.29841 0.0
N439 N 0.58704 0.76907 0.30411 0.0
C440 C 0.57643 0.74854 0.27545 0.0
C441 C 0.57474 0.74815 0.17417 0.0
C442 C 0.58978 0.78156 0.21942 0.0
N443 N 0.58336 0.76888 0.13894 0.0
C444 C 0.61192 0.73266 0.45596 0.0
C445 C 0.65633 0.74586 0.52606 0.0
C446 C 0.65152 0.7217 0.50982 0.0
C447 C 0.62896 0.71509 0.47533 0.0
C448 C 0.63896 0.76289 0.50341 0.0
N449 N 0.61738 0.75631 0.46449 0.0
H450 H 0.5942 0.72706 0.43721 0.0
H451 H 0.64293 0.78148 0.51682 0.0
H452 H 0.56915 0.73514 0.32377 0.0
H453 H 0.59633 0.79967 0.21635 0.0
O454 O 0.5656 0.7638 0.48466 0.0
O455 O 0.56527 0.80085 0.4271 0.0
O456 O 0.61834 0.80337 0.3833 0.0
C457 C 0.55348 0.78297 0.46465 0.0
H458 H 0.6086 0.83205 0.74174 0.0
H459 H 0.56709 0.73396 0.13013 0.0
H460 H 0.67346 0.75155 0.55454 0.0
H461 H 0.62437 0.69645 0.46555 0.0
Co462 Co 0.22471 0.59123 0.42583 0.0
C463 C 0.22445 0.59355 0.6453 0.0
C464 C 0.18934 0.59677 0.58506 0.0
C465 C 0.18755 0.59595 0.68636 0.0
N466 N 0.21258 0.59591 0.55912 0.0
N467 N 0.20968 0.59379 0.72403 0.0
H468 H 0.24332 0.5905 0.65109 0.0
H469 H 0.1746 0.59689 0.53369 0.0
C470 C 0.19149 0.63323 0.40222 0.0
O471 O 0.19856 0.64198 0.48725 0.0
N472 N 0.23622 0.58603 0.29351 0.0
C473 C 0.25898 0.58293 0.26458 0.0
C474 C 0.25954 0.58192 0.16302 0.0
C475 C 0.22324 0.58668 0.20993 0.0
N476 N 0.23704 0.5844 0.1287 0.0
C477 C 0.26687 0.61355 0.50329 0.0
C478 C 0.2638 0.65542 0.39714 0.0
C479 C 0.28184 0.65308 0.46805 0.0
C480 C 0.28355 0.63158 0.51981 0.0
C481 C 0.24734 0.63693 0.38358 0.0
N482 N 0.24805 0.6169 0.44101 0.0
H483 H 0.26957 0.59665 0.53911 0.0
H484 H 0.23434 0.6387 0.32548 0.0
H485 H 0.27415 0.58219 0.31372 0.0
H486 H 0.20408 0.58897 0.20879 0.0
O487 O 0.24375 0.56481 0.47196 0.0
O488 O 0.20643 0.56202 0.4189 0.0
O489 O 0.19997 0.61357 0.36998 0.0
C490 C 0.22516 0.55152 0.45544 0.0
H491 H 0.17115 0.5957 0.72854 0.0
H492 H 0.27542 0.58038 0.11806 0.0
H493 H 0.26231 0.67141 0.35288 0.0
H494 H 0.29802 0.62846 0.57111 0.0
Co495 Co 0.41183 0.21765 0.43892 0.0
C496 C 0.41123 0.21724 0.65902 0.0
C497 C 0.40442 0.1827 0.5979 0.0
C498 C 0.40521 0.18068 0.69902 0.0
N499 N 0.40742 0.2058 0.57264 0.0
N500 N 0.40957 0.20245 0.73719 0.0
H501 H 0.41621 0.23569 0.66542 0.0
H502 H 0.40263 0.1681 0.54619 0.0
C503 C 0.36751 0.18854 0.42306 0.0
O504 O 0.36046 0.19894 0.50503 0.0
N505 N 0.41687 0.22873 0.30629 0.0
C506 C 0.42182 0.25117 0.27761 0.0
C507 C 0.423 0.2516 0.17616 0.0
C508 C 0.41521 0.21579 0.2228 0.0
N509 N 0.41876 0.22935 0.14186 0.0
C510 C 0.39065 0.26008 0.5208 0.0
C511 C 0.34996 0.26007 0.40627 0.0
C512 C 0.35223 0.27717 0.48129 0.0
C513 C 0.3732 0.27738 0.53721 0.0
C514 C 0.36786 0.24296 0.39293 0.0
N515 N 0.38713 0.24204 0.45469 0.0
H516 H 0.4073 0.26181 0.55926 0.0
H517 H 0.36617 0.23051 0.33247 0.0
H518 H 0.42392 0.26621 0.32692 0.0
H519 H 0.41147 0.19686 0.22148 0.0
O520 O 0.43885 0.23606 0.48227 0.0
O521 O 0.44064 0.19852 0.4307 0.0
O522 O 0.38797 0.19355 0.38692 0.0
C523 C 0.45171 0.21722 0.4652 0.0
H524 H 0.40374 0.16431 0.74081 0.0
H525 H 0.42603 0.26725 0.13122 0.0
H526 H 0.33443 0.25976 0.35883 0.0
H527 H 0.3764 0.29118 0.59166 0.0
C528 C 0.2723 0.07485 0.6632 0.0
C529 C 0.28976 0.09175 0.68923 0.0
H530 H 0.25288 0.05774 0.54733 0.0
C531 C 0.30119 0.10458 0.61383 0.0
H532 H 0.26346 0.06433 0.7192 0.0
C533 C 0.29508 0.10085 0.51498 0.0
C534 C 0.27746 0.08406 0.48879 0.0
H535 H 0.31451 0.11791 0.63132 0.0
H536 H 0.30383 0.11156 0.45945 0.0
C537 C 0.26626 0.07103 0.56434 0.0
C538 C 0.92476 0.27139 0.64869 0.0
C539 C 0.91127 0.29149 0.67595 0.0
H540 H 0.93772 0.24939 0.53148 0.0
C541 C 0.90036 0.3051 0.6017 0.0
H542 H 0.93384 0.2608 0.70375 0.0
C543 C 0.90255 0.29852 0.50259 0.0
C544 C 0.9158 0.27821 0.47538 0.0
H545 H 0.88965 0.32054 0.62042 0.0
H546 H 0.89337 0.30906 0.44769 0.0
C547 C 0.92702 0.26485 0.5497 0.0
C548 C 0.70253 0.90265 0.51197 0.0
C549 C 0.72253 0.91632 0.48469 0.0
H550 H 0.68076 0.8895 0.62981 0.0
C551 C 0.73548 0.92817 0.55873 0.0
H552 H 0.69232 0.89301 0.45719 0.0
C553 C 0.72888 0.92609 0.65765 0.0
C554 C 0.70913 0.91212 0.68508 0.0
H555 H 0.75068 0.9392 0.54029 0.0
H556 H 0.73916 0.93563 0.71249 0.0
C557 C 0.6959 0.9006 0.61101 0.0
C558 C 0.0752 0.74287 0.60092 0.0
C559 C 0.08489 0.72864 0.52531 0.0
H560 H 0.06975 0.7476 0.75575 0.0
C561 C 0.09694 0.70753 0.55146 0.0
H562 H 0.06546 0.759 0.58386 0.0
C563 C 0.09936 0.70096 0.65042 0.0
C564 C 0.08991 0.71535 0.72584 0.0
H565 H 0.10495 0.69624 0.49584 0.0
H566 H 0.10906 0.68481 0.66801 0.0
C567 C 0.07771 0.73634 0.69981 0.0
C568 C 0.30138 0.89797 0.40474 0.0
C569 C 0.28994 0.9108 0.32944 0.0
H570 H 0.30404 0.891 0.55909 0.0
C571 C 0.27248 0.92769 0.35559 0.0
H572 H 0.31471 0.88465 0.38714 0.0
C573 C 0.26645 0.93152 0.4545 0.0
C574 C 0.27767 0.91849 0.52995 0.0
H575 H 0.26364 0.93822 0.29966 0.0
H576 H 0.25308 0.94481 0.47162 0.0
C577 C 0.29528 0.90171 0.50363 0.0
C578 C 0.07566 0.26117 0.42949 0.0
C579 C 0.08531 0.27538 0.50521 0.0
H580 H 0.07044 0.2564 0.27458 0.0
C581 C 0.09755 0.29639 0.47913 0.0
H582 H 0.06578 0.24511 0.44645 0.0
C583 C 0.10021 0.30289 0.38016 0.0
C584 C 0.09078 0.28853 0.30462 0.0
H585 H 0.10553 0.30767 0.53479 0.0
H586 H 0.11004 0.31896 0.36269 0.0
C587 C 0.07839 0.26763 0.33057 0.0
C588 C 0.73464 0.07228 0.46791 0.0
C589 C 0.72333 0.0855 0.54262 0.0
H590 H 0.73737 0.06485 0.31386 0.0
C591 C 0.70542 0.10187 0.5162 0.0
H592 H 0.74822 0.05928 0.48589 0.0
C593 C 0.69925 0.10519 0.41729 0.0
C594 C 0.7108 0.09221 0.34234 0.0
H595 H 0.69659 0.11262 0.57163 0.0
H596 H 0.68584 0.11838 0.39947 0.0
C597 C 0.72842 0.07555 0.36907 0.0
C598 C 0.93056 0.7357 0.4733 0.0
C599 C 0.9173 0.72449 0.54794 0.0
H600 H 0.93799 0.73833 0.3193 0.0
C601 C 0.90086 0.70663 0.52144 0.0
H602 H 0.94361 0.74924 0.4914 0.0
C603 C 0.89747 0.70045 0.4225 0.0
C604 C 0.91047 0.71191 0.34754 0.0
H605 H 0.89009 0.69788 0.57687 0.0
H606 H 0.88419 0.68711 0.4047 0.0
C607 C 0.92725 0.72945 0.37441 0.0
C608 C 0.774 0.57488 0.17598 0.0
C609 C 0.79202 0.59114 0.20259 0.0
H610 H 0.75409 0.55865 0.05921 0.0
C611 C 0.80402 0.60359 0.12759 0.0
H612 H 0.7647 0.56459 0.23139 0.0
C613 C 0.79796 0.60011 0.02859 0.0
C614 C 0.77973 0.58407 1.00213 0.0
H615 H 0.81777 0.61645 0.14547 0.0
H616 H 0.80718 0.61046 0.97312 0.0
C617 C 0.76793 0.57141 0.07704 0.0
C618 C 0.42799 0.77493 0.1521 0.0
C619 C 0.41372 0.79447 0.17976 0.0
H620 H 0.4414 0.7533 0.0345 0.0
C621 C 0.40202 0.80753 0.10584 0.0
H622 H 0.43767 0.76478 0.20678 0.0
C623 C 0.40417 0.80093 1.00676 0.0
C624 C 0.41813 0.78113 0.97928 0.0
H625 H 0.39069 0.82249 0.12478 0.0
H626 H 0.39439 0.81099 0.9521 0.0
C627 C 0.43015 0.76835 0.05313 0.0
C628 C 0.23699 0.42546 0.17129 0.0
C629 C 0.21612 0.41304 0.19761 0.0
H630 H 0.25972 0.43763 0.05507 0.0
C631 C 0.20185 0.4034 0.12226 0.0
H632 H 0.24815 0.43361 0.22696 0.0
C633 C 0.20849 0.40576 0.02326 0.0
C634 C 0.22958 0.41785 0.997 0.0
H635 H 0.18581 0.39353 0.13986 0.0
H636 H 0.19733 0.39759 0.9677 0.0
C637 C 0.24362 0.42782 0.07239 0.0
C638 C 0.60518 0.2009 0.12784 0.0
C639 C 0.59244 0.21261 0.20303 0.0
H640 H 0.61217 0.19795 0.9733 0.0
C641 C 0.57579 0.23026 0.17666 0.0
H642 H 0.61834 0.18745 0.14552 0.0
C643 C 0.57223 0.23629 0.07778 0.0
C644 C 0.58517 0.22479 1.00272 0.0
H645 H 0.56527 0.23932 0.23219 0.0
H646 H 0.55918 0.24986 0.06011 0.0
C647 C 0.6016 0.20691 0.02893 0.0
C648 C 0.75961 0.41385 0.95896 0.0
C649 C 0.77718 0.4175 0.03132 0.0
H650 H 0.75185 0.40667 0.80775 0.0
C651 C 0.80129 0.41715 1.00255 0.0
H652 H 0.7409 0.4135 0.97869 0.0
C653 C 0.80764 0.41332 0.90388 0.0
C654 C 0.79005 0.40961 0.83135 0.0
H655 H 0.8153 0.42011 0.05603 0.0
H656 H 0.82636 0.41361 0.8846 0.0
C657 C 0.76594 0.40988 0.86053 0.0
C658 C 0.58683 0.79967 1.00845 0.0
C659 C 0.5864 0.77555 0.03683 0.0
H660 H 0.59036 0.82476 0.89086 0.0
C661 C 0.58988 0.75798 0.96415 0.0
H662 H 0.58399 0.81367 0.0622 0.0
C663 C 0.59377 0.76432 0.86578 0.0
C664 C 0.59413 0.78844 0.837 0.0
H665 H 0.59016 0.73926 0.98359 0.0
H666 H 0.59685 0.75022 0.81275 0.0
C667 C 0.59058 0.80603 0.90984 0.0
C668 C 0.24367 0.57601 0.9514 0.0
C669 C 0.22963 0.58602 0.02684 0.0
H670 H 0.24819 0.57018 0.7968 0.0
C671 C 0.20856 0.59813 1.00069 0.0
H672 H 0.25974 0.56619 0.96863 0.0
C673 C 0.20192 0.60047 0.90173 0.0
C674 C 0.21618 0.59079 0.82633 0.0
H675 H 0.19742 0.60633 0.0563 0.0
H676 H 0.18589 0.61035 0.88417 0.0
C677 C 0.23704 0.57836 0.85253 0.0
C678 C 0.40312 0.20221 1.01279 0.0
C679 C 0.41716 0.22196 0.04012 0.0
H680 H 0.38953 0.1807 0.89491 0.0
C681 C 0.42923 0.23469 0.96614 0.0
H682 H 0.39331 0.19218 0.06756 0.0
C683 C 0.42701 0.22811 0.86719 0.0
C684 C 0.41265 0.20863 0.83967 0.0
H685 H 0.44053 0.24969 0.98466 0.0
H686 H 0.43672 0.23822 0.81241 0.0
C687 C 0.40092 0.19561 0.91373 0.0
C688 C 0.34058 0.14801 0.2264 0.0
C689 C 0.3167 0.14677 0.25781 0.0
H690 H 0.37552 0.16236 0.25369 0.0
C691 C 0.31005 0.15881 0.34464 0.0
H692 H 0.34625 0.13886 0.15998 0.0
C693 C 0.32671 0.17181 0.39873 0.0
C694 C 0.35049 0.17344 0.36709 0.0
H695 H 0.2919 0.15805 0.37194 0.0
H696 H 0.32075 0.18085 0.46498 0.0
C697 C 0.35731 0.1614 0.28022 0.0
C698 C 0.8409 0.35309 0.29272 0.0
C699 C 0.81711 0.35501 0.26099 0.0
H700 H 0.87558 0.33819 0.26456 0.0
C701 C 0.8104 0.34379 0.17243 0.0
H702 H 0.84661 0.36162 0.36043 0.0
C703 C 0.82689 0.33083 0.11715 0.0
C704 C 0.85057 0.32844 0.14921 0.0
H705 H 0.79232 0.34512 0.14482 0.0
H706 H 0.82088 0.32239 0.04969 0.0
C707 C 0.85746 0.33974 0.23767 0.0
C708 C 0.64963 0.83958 0.29926 0.0
C709 C 0.64876 0.81563 0.26853 0.0
H710 H 0.66309 0.87476 0.27016 0.0
C711 C 0.66057 0.80905 0.1811 0.0
H712 H 0.64062 0.8452 0.36608 0.0
C713 C 0.67297 0.82589 0.12567 0.0
C714 C 0.6742 0.84977 0.15659 0.0
H715 H 0.66006 0.79083 0.15438 0.0
H716 H 0.68189 0.82002 0.05902 0.0
C717 C 0.66241 0.85649 0.24414 0.0
C718 C 0.17719 0.64491 0.23448 0.0
C719 C 0.17569 0.64737 0.33757 0.0
H720 H 0.16464 0.65672 0.09339 0.0
C721 C 0.15942 0.66376 0.37756 0.0
H722 H 0.18982 0.63263 0.20159 0.0
C723 C 0.14478 0.67728 0.31563 0.0
C724 C 0.14648 0.67503 0.21248 0.0
H725 H 0.15792 0.66605 0.45666 0.0
H726 H 0.13249 0.68991 0.34854 0.0
C727 C 0.16291 0.65878 0.17251 0.0
C728 C 0.35801 0.84158 0.7391 0.0
C729 C 0.35137 0.82956 0.65197 0.0
H730 H 0.34666 0.86396 0.85945 0.0
C731 C 0.32761 0.83109 0.62 0.0
H732 H 0.37618 0.84068 0.76591 0.0
C733 C 0.31081 0.84396 0.67401 0.0
C734 C 0.31728 0.85597 0.76107 0.0
H735 H 0.32178 0.82207 0.55355 0.0
H736 H 0.29269 0.84464 0.64645 0.0
C737 C 0.34113 0.85484 0.79283 0.0
C738 C 0.14513 0.32637 0.71194 0.0
C739 C 0.14706 0.32871 0.81497 0.0
H740 H 0.15789 0.33755 0.57014 0.0
C741 C 0.16353 0.34503 0.85397 0.0
H742 H 0.13283 0.31366 0.67981 0.0
C743 C 0.17761 0.35892 0.79114 0.0
C744 C 0.17587 0.35639 0.68815 0.0
H745 H 0.16544 0.34716 0.93298 0.0
H746 H 0.19028 0.37124 0.82328 0.0
C747 C 0.15957 0.3399 0.64913 0.0
C748 C 0.65541 0.14258 0.80475 0.0
C749 C 0.6771 0.15142 0.84152 0.0
H750 H 0.6251 0.14918 0.71188 0.0
C751 C 0.68553 0.1736 0.80857 0.0
H752 H 0.6487 0.12541 0.82874 0.0
C753 C 0.67261 0.18664 0.73887 0.0
C754 C 0.65071 0.17801 0.70347 0.0
H755 H 0.70239 0.18059 0.83494 0.0
H756 H 0.67943 0.20373 0.7144 0.0
C757 C 0.64205 0.15604 0.73778 0.0
C758 C 0.8483 0.6412 0.74147 0.0
C759 C 0.82665 0.64965 0.7029 0.0
H760 H 0.87823 0.64853 0.83582 0.0
C761 C 0.81792 0.67191 0.73404 0.0
H762 H 0.85525 0.624 0.71889 0.0
C763 C 0.83047 0.68538 0.80368 0.0
C764 C 0.85233 0.67716 0.84094 0.0
H765 H 0.80109 0.67861 0.70628 0.0
H766 H 0.82337 0.70249 0.82679 0.0
C767 C 0.86132 0.65512 0.80841 0.0
C768 C 0.30556 0.01342 0.02288 0.0
C769 C 0.28389 0.0257 0.03562 0.0
H770 H 0.32248 0.98008 0.9865 0.0
C771 C 0.26236 0.01333 0.02195 0.0
H772 H 0.32242 0.02259 0.03227 0.0
C773 C 0.26239 0.9892 0.9969 0.0
C774 C 0.28396 0.97688 0.9832 0.0
H775 H 0.24537 0.02229 0.03123 0.0
H776 H 0.24542 0.9802 0.98765 0.0
C777 C 0.3056 0.98921 0.99592 0.0
C778 C 0.01245 0.26097 0.98186 0.0
C779 C 0.02481 0.28231 0.96382 0.0
H780 H 0.97944 0.24462 0.02282 0.0
C781 C 0.01287 0.30417 0.97666 0.0
H782 H 0.0212 0.24386 0.97291 0.0
C783 C 0.98898 0.30462 1.00728 0.0
C784 C 0.97657 0.28321 0.02383 0.0
H785 H 0.02205 0.3209 0.96413 0.0
H786 H 0.9801 0.32166 0.01612 0.0
C787 C 0.98855 0.26141 1.01067 0.0
C788 C 0.73882 0.98946 0.03116 0.0
C789 C 0.71716 0.97717 0.04249 0.0
H790 H 0.75601 0.02275 1.00156 0.0
C791 C 0.69561 0.9897 0.03161 0.0
H792 H 0.75572 0.98028 0.03925 0.0
C793 C 0.69577 0.01406 1.00826 0.0
C794 C 0.7175 0.02631 0.99724 0.0
H795 H 0.67866 0.98062 0.03942 0.0
H796 H 0.67894 0.02332 0.99961 0.0
C797 C 0.73899 0.0138 1.00964 0.0
C798 C 0.98763 0.7426 0.02475 0.0
C799 C 0.97577 0.72076 1.01087 0.0
H800 H 0.02025 0.76023 0.06245 0.0
C801 C 0.98825 0.69939 0.02725 0.0
H802 H 0.97848 0.75937 1.01272 0.0
C803 C 0.01214 0.6999 0.05767 0.0
C804 C 0.02402 0.72179 0.07049 0.0
H805 H 0.97949 0.68231 0.01774 0.0
H806 H 0.02139 0.68319 0.06958 0.0
C807 C 0.01155 0.7431 0.05336 0.0
C808 C 0.8068 0.48823 0.49704 0.0
C809 C 0.78505 0.47612 0.48433 0.0
H810 H 0.82399 0.52128 0.53536 0.0
C811 C 0.76361 0.48861 0.49894 0.0
H812 H 0.8236 0.47897 0.48687 0.0
C813 C 0.76382 0.51265 0.52558 0.0
C814 C 0.78549 0.52475 0.5399 0.0
H815 H 0.74655 0.47979 0.48961 0.0
H816 H 0.74693 0.52171 0.53597 0.0
C817 C 0.80702 0.51233 0.5255 0.0
C818 C 0.49049 0.76364 0.52268 0.0
C819 C 0.4786 0.78555 0.53329 0.0
H820 H 0.52342 0.74575 0.49319 0.0
C821 C 0.49146 0.80684 0.52013 0.0
H822 H 0.48106 0.74693 0.53238 0.0
C823 C 0.51579 0.80615 0.49575 0.0
C824 C 0.52766 0.78416 0.48606 0.0
H825 H 0.48267 0.82397 0.52723 0.0
H826 H 0.52536 0.82277 0.48585 0.0
C827 C 0.51477 0.76296 0.50021 0.0
C828 C 0.24664 0.4899 0.52574 0.0
C829 C 0.22504 0.47776 0.54124 0.0
H830 H 0.26357 0.52284 0.48704 0.0
C831 C 0.20342 0.48996 0.52693 0.0
H832 H 0.26357 0.48092 0.53606 0.0
C833 C 0.20342 0.51383 0.49681 0.0
C834 C 0.22504 0.52601 0.48229 0.0
H835 H 0.1865 0.48096 0.53758 0.0
H836 H 0.18651 0.52283 0.48637 0.0
C837 C 0.24664 0.51386 0.49754 0.0
C838 C 0.51357 0.23943 0.52618 0.0
C839 C 0.52615 0.21809 0.54137 0.0
H840 H 0.48024 0.2558 0.49052 0.0
C841 C 0.51422 0.19623 0.5288 0.0
H842 H 0.52228 0.25656 0.53519 0.0
C843 C 0.4901 0.19578 0.5014 0.0
C844 C 0.47749 0.2172 0.48786 0.0
H845 H 0.52354 0.1795 0.5394 0.0
H846 H 0.48123 0.17873 0.4927 0.0
C847 C 0.48948 0.23899 0.50053 0.0
C848 C 0.18808 0.17459 0.07314 0.0
C849 C 0.20449 0.16839 0.99938 0.0
H850 H 0.15881 0.19669 0.11537 0.0
C851 C 0.20319 0.17974 0.90741 0.0
H852 H 0.18893 0.16625 0.14506 0.0
C853 C 0.18547 0.19675 0.88896 0.0
C854 C 0.16895 0.20313 0.96288 0.0
H855 H 0.21558 0.17507 0.84913 0.0
H856 H 0.18454 0.20454 0.81613 0.0
C857 C 0.1707 0.19193 0.05556 0.0
C858 C 0.83998 0.18007 0.01612 0.0
C859 C 0.83356 0.20429 0.01877 0.0
H860 H 0.82823 0.14396 0.99812 0.0
C861 C 0.80958 0.21062 1.00367 0.0
H862 H 0.85831 0.17467 0.02809 0.0
C863 C 0.79238 0.19304 0.98563 0.0
C864 C 0.7988 0.1688 0.98397 0.0
H865 H 0.80419 0.22919 1.0046 0.0
H866 H 0.77399 0.19836 0.97472 0.0
C867 C 0.82277 0.1625 0.99946 0.0
C868 C 0.82098 0.81012 0.91038 0.0
C869 C 0.8312 0.79775 0.98987 0.0
H870 H 0.79591 0.83666 0.86404 0.0
C871 C 0.82312 0.8028 0.08593 0.0
H872 H 0.82689 0.80681 0.83556 0.0
C873 C 0.80564 0.8201 0.1024 0.0
C874 C 0.79567 0.83277 0.02319 0.0
H875 H 0.83035 0.79336 0.14879 0.0
H876 H 0.8003 0.82387 0.17759 0.0
C877 C 0.80343 0.82745 0.92687 0.0
C878 C 0.17031 0.81122 0.96852 0.0
C879 C 0.16875 0.80016 0.06155 0.0
H880 H 0.18852 0.83659 0.87728 0.0
C881 C 0.18561 0.80643 0.1342 0.0
H882 H 0.15815 0.80654 0.90964 0.0
C883 C 0.20346 0.82321 0.1142 0.0
C884 C 0.20458 0.83443 0.02192 0.0
H885 H 0.18485 0.79875 0.20726 0.0
H886 H 0.21609 0.82782 0.17159 0.0
C887 C 0.18783 0.82833 0.9494 0.0
C888 C 0.67932 0.69989 0.62261 0.0
C889 C 0.66994 0.7034 0.5279 0.0
H890 H 0.7026 0.67934 0.7139 0.0
C891 C 0.67816 0.68924 0.44977 0.0
H892 H 0.67308 0.7106 0.684 0.0
C893 C 0.69557 0.67186 0.46576 0.0
C894 C 0.70476 0.66775 0.561 0.0
H895 H 0.67132 0.69188 0.37587 0.0
H896 H 0.70194 0.66183 0.40278 0.0
C897 C 0.69637 0.68207 0.6393 0.0
C898 C 0.32312 0.69618 0.60043 0.0
C899 C 0.33407 0.70807 0.52132 0.0
H900 H 0.29799 0.66954 0.64544 0.0
C901 C 0.32718 0.70225 0.42451 0.0
H902 H 0.32816 0.70015 0.67578 0.0
C903 C 0.30993 0.68473 0.40711 0.0
C904 C 0.29933 0.6725 0.48615 0.0
H905 H 0.33517 0.71127 0.36208 0.0
H906 H 0.30529 0.68037 0.33169 0.0
C907 C 0.30601 0.67852 0.58301 0.0
C908 C 0.32662 0.30105 0.59669 0.0
C909 C 0.33336 0.29523 0.49965 0.0
H910 H 0.30498 0.32302 0.69027 0.0
C911 C 0.32238 0.30721 0.42092 0.0
H912 H 0.33462 0.29195 0.65884 0.0
C913 C 0.30541 0.32497 0.43894 0.0
C914 C 0.29889 0.331 0.53603 0.0
H915 H 0.32731 0.30325 0.34541 0.0
H916 H 0.29737 0.33403 0.3768 0.0
C917 C 0.3095 0.31867 0.61469 0.0
C918 C 0.69105 0.32542 0.44627 0.0
C919 C 0.70506 0.33398 0.52407 0.0
H920 H 0.66353 0.30162 0.40073 0.0
C921 C 0.70123 0.32522 0.61956 0.0
H922 H 0.69393 0.33181 0.37185 0.0
C923 C 0.68323 0.30842 0.6373 0.0
C924 C 0.66903 0.2997 0.55935 0.0
H925 H 0.71183 0.33175 0.68068 0.0
H926 H 0.68025 0.30265 0.71238 0.0
C927 C 0.67347 0.30827 0.46338 0.0
loop_
_geom_bond_atom_site_label_1
_geom_bond_atom_site_label_2
_geom_bond_distance
_geom_bond_site_symmetry_2
_ccdc_geom_bond_type
Co0 N4 2.148 1_554 S
Co0 N10 2.128 . S
Co0 N20 2.194 . S
Co0 O25 2.351 . S
Co0 O26 2.155 . S
Co0 O27 2.096 . S
C1 N4 1.301 . S
C1 N5 1.328 . S
C1 H6 0.930 . S
C2 C3 1.333 . S
C2 N4 1.317 . S
C2 H7 0.930 . S
C3 C2 1.333 . S
C3 N5 1.350 . S
C3 H29 0.931 . S
N4 Co0 2.148 1_556 S
N4 C1 1.301 . S
N4 C2 1.317 . S
N5 C1 1.328 . S
N5 C3 1.350 . S
H6 C1 0.930 . S
H7 C2 0.930 . S
C8 O9 1.224 . S
C8 O27 1.247 . S
O9 C8 1.224 . S
N10 Co0 2.128 . S
N10 C11 1.355 . S
N10 C13 1.311 . S
C11 N10 1.355 . S
C11 C12 1.363 . S
C11 H23 0.929 . S
C12 C11 1.363 . S
C12 N14 1.375 . S
C12 H30 0.931 . S
C13 N10 1.311 . S
C13 N14 1.347 . S
C13 H24 0.929 . S
N14 C12 1.375 . S
N14 C13 1.347 . S
C15 C18 1.365 . S
C15 N20 1.328 . S
C15 H21 0.929 . S
C16 C17 1.362 . S
C16 C19 1.378 . S
C16 H31 0.929 . S
C17 C16 1.362 . S
C17 C18 1.366 . S
C18 C15 1.365 . S
C18 C17 1.366 . S
C18 H32 0.930 1_554 S
C19 C16 1.378 . S
C19 N20 1.315 . S
C19 H22 0.930 . S
N20 Co0 2.194 . S
N20 C15 1.328 . S
N20 C19 1.315 . S
H21 C15 0.929 . S
H22 C19 0.930 . S
H23 C11 0.929 . S
H24 C13 0.929 . S
O25 Co0 2.351 . S
O25 C28 1.244 . S
O26 Co0 2.155 . S
O26 C28 1.240 . S
O27 Co0 2.096 . S
O27 C8 1.247 . S
C28 O25 1.244 . S
C28 O26 1.240 . S
H29 C3 0.931 . S
H30 C12 0.931 . S
H31 C16 0.929 . S
H32 C18 0.930 1_556 S
Co33 N37 2.148 1_554 S
Co33 N43 2.128 . S
Co33 N53 2.194 . S
Co33 O58 2.351 . S
Co33 O59 2.155 . S
Co33 O60 2.096 . S
C34 N37 1.301 . S
C34 N38 1.328 . S
C34 H39 0.930 . S
C35 C36 1.333 . S
C35 N37 1.317 . S
C35 H40 0.930 . S
C36 C35 1.333 . S
C36 N38 1.350 . S
C36 H62 0.931 . S
N37 Co33 2.148 1_556 S
N37 C34 1.301 . S
N37 C35 1.317 . S
N38 C34 1.328 . S
N38 C36 1.350 . S
H39 C34 0.930 . S
H40 C35 0.930 . S
C41 O42 1.224 . S
C41 O60 1.247 . S
O42 C41 1.224 . S
N43 Co33 2.128 . S
N43 C44 1.355 . S
N43 C46 1.311 . S
C44 N43 1.355 . S
C44 C45 1.363 . S
C44 H56 0.929 . S
C45 C44 1.363 . S
C45 N47 1.375 . S
C45 H63 0.931 . S
C46 N43 1.311 . S
C46 N47 1.347 . S
C46 H57 0.929 . S
N47 C45 1.375 . S
N47 C46 1.347 . S
C48 C51 1.365 . S
C48 N53 1.328 . S
C48 H54 0.929 . S
C49 C50 1.362 . S
C49 C52 1.378 . S
C49 H64 0.929 . S
C50 C49 1.362 . S
C50 C51 1.366 . S
C51 C48 1.365 . S
C51 C50 1.366 . S
C51 H65 0.930 1_554 S
C52 C49 1.378 . S
C52 N53 1.315 . S
C52 H55 0.930 . S
N53 Co33 2.194 . S
N53 C48 1.328 . S
N53 C52 1.315 . S
H54 C48 0.929 . S
H55 C52 0.930 . S
H56 C44 0.929 . S
H57 C46 0.929 . S
O58 Co33 2.351 . S
O58 C61 1.244 . S
O59 Co33 2.155 . S
O59 C61 1.240 . S
O60 Co33 2.096 . S
O60 C41 1.247 . S
C61 O58 1.244 . S
C61 O59 1.240 . S
H62 C36 0.931 . S
H63 C45 0.931 . S
H64 C49 0.929 . S
H65 C51 0.930 1_556 S
Co66 N70 2.148 1_554 S
Co66 N76 2.128 . S
Co66 N86 2.194 . S
Co66 O91 2.351 . S
Co66 O92 2.155 . S
Co66 O93 2.096 . S
C67 N70 1.301 . S
C67 N71 1.328 . S
C67 H72 0.930 . S
C68 C69 1.333 . S
C68 N70 1.317 . S
C68 H73 0.930 . S
C69 C68 1.333 . S
C69 N71 1.350 . S
C69 H95 0.931 . S
N70 Co66 2.148 1_556 S
N70 C67 1.301 . S
N70 C68 1.317 . S
N71 C67 1.328 . S
N71 C69 1.350 . S
H72 C67 0.930 . S
H73 C68 0.930 . S
C74 O75 1.224 . S
C74 O93 1.247 . S
O75 C74 1.224 . S
N76 Co66 2.128 . S
N76 C77 1.355 . S
N76 C79 1.311 . S
C77 N76 1.355 . S
C77 C78 1.363 . S
C77 H89 0.929 . S
C78 C77 1.363 . S
C78 N80 1.375 . S
C78 H96 0.931 . S
C79 N76 1.311 . S
C79 N80 1.347 . S
C79 H90 0.929 . S
N80 C78 1.375 . S
N80 C79 1.347 . S
C81 C84 1.365 . S
C81 N86 1.328 . S
C81 H87 0.929 . S
C82 C83 1.362 . S
C82 C85 1.378 . S
C82 H97 0.929 . S
C83 C82 1.362 . S
C83 C84 1.366 . S
C84 C81 1.365 . S
C84 C83 1.366 . S
C84 H98 0.930 1_554 S
C85 C82 1.378 . S
C85 N86 1.315 . S
C85 H88 0.930 . S
N86 Co66 2.194 . S
N86 C81 1.328 . S
N86 C85 1.315 . S
H87 C81 0.929 . S
H88 C85 0.930 . S
H89 C77 0.929 . S
H90 C79 0.929 . S
O91 Co66 2.351 . S
O91 C94 1.244 . S
O92 Co66 2.155 . S
O92 C94 1.240 . S
O93 Co66 2.096 . S
O93 C74 1.247 . S
C94 O91 1.244 . S
C94 O92 1.240 . S
H95 C69 0.931 . S
H96 C78 0.931 . S
H97 C82 0.929 . S
H98 C84 0.930 1_556 S
Co99 N103 2.148 1_554 S
Co99 N109 2.128 . S
Co99 N119 2.194 . S
Co99 O124 2.351 . S
Co99 O125 2.155 . S
Co99 O126 2.096 . S
C100 N103 1.301 . S
C100 N104 1.328 . S
C100 H105 0.930 . S
C101 C102 1.333 . S
C101 N103 1.317 . S
C101 H106 0.930 . S
C102 C101 1.333 . S
C102 N104 1.350 . S
C102 H128 0.931 . S
N103 Co99 2.148 1_556 S
N103 C100 1.301 . S
N103 C101 1.317 . S
N104 C100 1.328 . S
N104 C102 1.350 . S
H105 C100 0.930 . S
H106 C101 0.930 . S
C107 O108 1.224 . S
C107 O126 1.247 . S
O108 C107 1.224 . S
N109 Co99 2.128 . S
N109 C110 1.355 . S
N109 C112 1.311 . S
C110 N109 1.355 . S
C110 C111 1.363 . S
C110 H122 0.929 . S
C111 C110 1.363 . S
C111 N113 1.375 . S
C111 H129 0.931 . S
C112 N109 1.311 . S
C112 N113 1.347 . S
C112 H123 0.929 . S
N113 C111 1.375 . S
N113 C112 1.347 . S
C114 C117 1.365 . S
C114 N119 1.328 . S
C114 H120 0.929 . S
C115 C116 1.362 . S
C115 C118 1.378 . S
C115 H130 0.929 . S
C116 C115 1.362 . S
C116 C117 1.366 . S
C117 C114 1.365 . S
C117 C116 1.366 . S
C117 H131 0.930 1_554 S
C118 C115 1.378 . S
C118 N119 1.315 . S
C118 H121 0.930 . S
N119 Co99 2.194 . S
N119 C114 1.328 . S
N119 C118 1.315 . S
H120 C114 0.929 . S
H121 C118 0.930 . S
H122 C110 0.929 . S
H123 C112 0.929 . S
O124 Co99 2.351 . S
O124 C127 1.244 . S
O125 Co99 2.155 . S
O125 C127 1.240 . S
O126 Co99 2.096 . S
O126 C107 1.247 . S
C127 O124 1.244 . S
C127 O125 1.240 . S
H128 C102 0.931 . S
H129 C111 0.931 . S
H130 C115 0.929 . S
H131 C117 0.930 1_556 S
Co132 N136 2.148 1_556 S
Co132 N142 2.128 . S
Co132 N152 2.194 . S
Co132 O157 2.351 . S
Co132 O158 2.155 . S
Co132 O159 2.096 . S
C133 N136 1.301 . S
C133 N137 1.328 . S
C133 H138 0.930 . S
C134 C135 1.333 . S
C134 N136 1.317 . S
C134 H139 0.930 . S
C135 C134 1.333 . S
C135 N137 1.350 . S
C135 H161 0.931 . S
N136 Co132 2.148 1_554 S
N136 C133 1.301 . S
N136 C134 1.317 . S
N137 C133 1.328 . S
N137 C135 1.350 . S
H138 C133 0.930 . S
H139 C134 0.930 . S
C140 O141 1.224 . S
C140 O159 1.247 . S
O141 C140 1.224 . S
N142 Co132 2.128 . S
N142 C143 1.355 . S
N142 C145 1.311 . S
C143 N142 1.355 . S
C143 C144 1.363 . S
C143 H155 0.929 . S
C144 C143 1.363 . S
C144 N146 1.375 . S
C144 H162 0.931 . S
C145 N142 1.311 . S
C145 N146 1.347 . S
C145 H156 0.929 . S
N146 C144 1.375 . S
N146 C145 1.347 . S
C147 C150 1.365 . S
C147 N152 1.328 . S
C147 H153 0.929 . S
C148 C149 1.362 . S
C148 C151 1.378 . S
C148 H163 0.929 . S
C149 C148 1.362 . S
C149 C150 1.366 . S
C150 C147 1.365 . S
C150 C149 1.366 . S
C150 H164 0.930 1_556 S
C151 C148 1.378 . S
C151 N152 1.315 . S
C151 H154 0.930 . S
N152 Co132 2.194 . S
N152 C147 1.328 . S
N152 C151 1.315 . S
H153 C147 0.929 . S
H154 C151 0.930 . S
H155 C143 0.929 . S
H156 C145 0.929 . S
O157 Co132 2.351 . S
O157 C160 1.244 . S
O158 Co132 2.155 . S
O158 C160 1.240 . S
O159 Co132 2.096 . S
O159 C140 1.247 . S
C160 O157 1.244 . S
C160 O158 1.240 . S
H161 C135 0.931 . S
H162 C144 0.931 . S
H163 C148 0.929 . S
H164 C150 0.930 1_554 S
Co165 N169 2.148 1_556 S
Co165 N175 2.128 . S
Co165 N185 2.194 . S
Co165 O190 2.351 . S
Co165 O191 2.155 . S
Co165 O192 2.096 . S
C166 N169 1.301 . S
C166 N170 1.328 . S
C166 H171 0.930 . S
C167 C168 1.333 . S
C167 N169 1.317 . S
C167 H172 0.930 . S
C168 C167 1.333 . S
C168 N170 1.350 . S
C168 H194 0.931 . S
N169 Co165 2.148 1_554 S
N169 C166 1.301 . S
N169 C167 1.317 . S
N170 C166 1.328 . S
N170 C168 1.350 . S
H171 C166 0.930 . S
H172 C167 0.930 . S
C173 O174 1.224 . S
C173 O192 1.247 . S
O174 C173 1.224 . S
N175 Co165 2.128 . S
N175 C176 1.355 . S
N175 C178 1.311 . S
C176 N175 1.355 . S
C176 C177 1.363 . S
C176 H188 0.929 . S
C177 C176 1.363 . S
C177 N179 1.375 . S
C177 H195 0.931 . S
C178 N175 1.311 . S
C178 N179 1.347 . S
C178 H189 0.929 . S
N179 C177 1.375 . S
N179 C178 1.347 . S
C180 C183 1.365 . S
C180 N185 1.328 . S
C180 H186 0.929 . S
C181 C182 1.362 . S
C181 C184 1.378 . S
C181 H196 0.929 . S
C182 C181 1.362 . S
C182 C183 1.366 . S
C183 C180 1.365 . S
C183 C182 1.366 . S
C183 H197 0.930 1_556 S
C184 C181 1.378 . S
C184 N185 1.315 . S
C184 H187 0.930 . S
N185 Co165 2.194 . S
N185 C180 1.328 . S
N185 C184 1.315 . S
H186 C180 0.929 . S
H187 C184 0.930 . S
H188 C176 0.929 . S
H189 C178 0.929 . S
O190 Co165 2.351 . S
O190 C193 1.244 . S
O191 Co165 2.155 . S
O191 C193 1.240 . S
O192 Co165 2.096 . S
O192 C173 1.247 . S
C193 O190 1.244 . S
C193 O191 1.240 . S
H194 C168 0.931 . S
H195 C177 0.931 . S
H196 C181 0.929 . S
H197 C183 0.930 1_554 S
Co198 N202 2.148 1_556 S
Co198 N208 2.128 . S
Co198 N218 2.194 . S
Co198 O223 2.351 . S
Co198 O224 2.155 . S
Co198 O225 2.096 . S
C199 N202 1.301 . S
C199 N203 1.328 . S
C199 H204 0.930 . S
C200 C201 1.333 . S
C200 N202 1.317 . S
C200 H205 0.930 . S
C201 C200 1.333 . S
C201 N203 1.350 . S
C201 H227 0.931 . S
N202 Co198 2.148 1_554 S
N202 C199 1.301 . S
N202 C200 1.317 . S
N203 C199 1.328 . S
N203 C201 1.350 . S
H204 C199 0.930 . S
H205 C200 0.930 . S
C206 O207 1.224 . S
C206 O225 1.247 . S
O207 C206 1.224 . S
N208 Co198 2.128 . S
N208 C209 1.355 . S
N208 C211 1.311 . S
C209 N208 1.355 . S
C209 C210 1.363 . S
C209 H221 0.929 . S
C210 C209 1.363 . S
C210 N212 1.375 . S
C210 H228 0.931 . S
C211 N208 1.311 . S
C211 N212 1.347 . S
C211 H222 0.929 . S
N212 C210 1.375 . S
N212 C211 1.347 . S
C213 C216 1.365 . S
C213 N218 1.328 . S
C213 H219 0.929 . S
C214 C215 1.362 . S
C214 C217 1.378 . S
C214 H229 0.929 . S
C215 C214 1.362 . S
C215 C216 1.366 . S
C216 C213 1.365 . S
C216 C215 1.366 . S
C216 H230 0.930 1_556 S
C217 C214 1.378 . S
C217 N218 1.315 . S
C217 H220 0.930 . S
N218 Co198 2.194 . S
N218 C213 1.328 . S
N218 C217 1.315 . S
H219 C213 0.929 . S
H220 C217 0.930 . S
H221 C209 0.929 . S
H222 C211 0.929 . S
O223 Co198 2.351 . S
O223 C226 1.244 . S
O224 Co198 2.155 . S
O224 C226 1.240 . S
O225 Co198 2.096 . S
O225 C206 1.247 . S
C226 O223 1.244 . S
C226 O224 1.240 . S
H227 C201 0.931 . S
H228 C210 0.931 . S
H229 C214 0.929 . S
H230 C216 0.930 1_554 S
Co231 N235 2.148 1_556 S
Co231 N241 2.128 . S
Co231 N251 2.194 . S
Co231 O256 2.351 . S
Co231 O257 2.155 . S
Co231 O258 2.096 . S
C232 N235 1.301 . S
C232 N236 1.328 . S
C232 H237 0.930 . S
C233 C234 1.333 . S
C233 N235 1.317 . S
C233 H238 0.930 . S
C234 C233 1.333 . S
C234 N236 1.350 . S
C234 H260 0.931 . S
N235 Co231 2.148 1_554 S
N235 C232 1.301 . S
N235 C233 1.317 . S
N236 C232 1.328 . S
N236 C234 1.350 . S
H237 C232 0.930 . S
H238 C233 0.930 . S
C239 O240 1.224 . S
C239 O258 1.247 . S
O240 C239 1.224 . S
N241 Co231 2.128 . S
N241 C242 1.355 . S
N241 C244 1.311 . S
C242 N241 1.355 . S
C242 C243 1.363 . S
C242 H254 0.929 . S
C243 C242 1.363 . S
C243 N245 1.375 . S
C243 H261 0.931 . S
C244 N241 1.311 . S
C244 N245 1.347 . S
C244 H255 0.929 . S
N245 C243 1.375 . S
N245 C244 1.347 . S
C246 C249 1.365 . S
C246 N251 1.328 . S
C246 H252 0.929 . S
C247 C248 1.362 . S
C247 C250 1.378 . S
C247 H262 0.929 . S
C248 C247 1.362 . S
C248 C249 1.366 . S
C249 C246 1.365 . S
C249 C248 1.366 . S
C249 H263 0.930 1_556 S
C250 C247 1.378 . S
C250 N251 1.315 . S
C250 H253 0.930 . S
N251 Co231 2.194 . S
N251 C246 1.328 . S
N251 C250 1.315 . S
H252 C246 0.929 . S
H253 C250 0.930 . S
H254 C242 0.929 . S
H255 C244 0.929 . S
O256 Co231 2.351 . S
O256 C259 1.244 . S
O257 Co231 2.155 . S
O257 C259 1.240 . S
O258 Co231 2.096 . S
O258 C239 1.247 . S
C259 O256 1.244 . S
C259 O257 1.240 . S
H260 C234 0.931 . S
H261 C243 0.931 . S
H262 C247 0.929 . S
H263 C249 0.930 1_554 S
Co264 N268 2.148 . S
Co264 N274 2.128 . S
Co264 N284 2.194 . S
Co264 O289 2.351 . S
Co264 O290 2.155 . S
Co264 O291 2.096 . S
C265 N268 1.301 . S
C265 N269 1.328 . S
C265 H270 0.930 . S
C266 C267 1.333 . S
C266 N268 1.317 . S
C266 H271 0.930 . S
C267 C266 1.333 . S
C267 N269 1.350 . S
C267 H293 0.931 . S
N268 Co264 2.148 . S
N268 C265 1.301 . S
N268 C266 1.317 . S
N269 C265 1.328 . S
N269 C267 1.350 . S
H270 C265 0.930 . S
H271 C266 0.930 . S
C272 O273 1.224 . S
C272 O291 1.247 . S
O273 C272 1.224 . S
N274 Co264 2.128 . S
N274 C275 1.355 . S
N274 C277 1.311 . S
C275 N274 1.355 . S
C275 C276 1.363 . S
C275 H287 0.929 . S
C276 C275 1.363 . S
C276 N278 1.375 . S
C276 H294 0.931 . S
C277 N274 1.311 . S
C277 N278 1.347 . S
C277 H288 0.929 . S
N278 C276 1.375 . S
N278 C277 1.347 . S
C279 C282 1.365 . S
C279 N284 1.328 . S
C279 H285 0.929 . S
C280 C281 1.362 . S
C280 C283 1.378 . S
C280 H295 0.929 . S
C281 C280 1.362 . S
C281 C282 1.366 . S
C282 C279 1.365 . S
C282 C281 1.366 . S
C282 H296 0.930 . S
C283 C280 1.378 . S
C283 N284 1.315 . S
C283 H286 0.930 . S
N284 Co264 2.194 . S
N284 C279 1.328 . S
N284 C283 1.315 . S
H285 C279 0.929 . S
H286 C283 0.930 . S
H287 C275 0.929 . S
H288 C277 0.929 . S
O289 Co264 2.351 . S
O289 C292 1.244 . S
O290 Co264 2.155 . S
O290 C292 1.240 . S
O291 Co264 2.096 . S
O291 C272 1.247 . S
C292 O289 1.244 . S
C292 O290 1.240 . S
H293 C267 0.931 . S
H294 C276 0.931 . S
H295 C280 0.929 . S
H296 C282 0.930 . S
Co297 N301 2.148 . S
Co297 N307 2.128 . S
Co297 N317 2.194 . S
Co297 O322 2.351 . S
Co297 O323 2.155 . S
Co297 O324 2.096 . S
C298 N301 1.301 . S
C298 N302 1.328 . S
C298 H303 0.930 . S
C299 C300 1.333 . S
C299 N301 1.317 . S
C299 H304 0.930 . S
C300 C299 1.333 . S
C300 N302 1.350 . S
C300 H326 0.931 . S
N301 Co297 2.148 . S
N301 C298 1.301 . S
N301 C299 1.317 . S
N302 C298 1.328 . S
N302 C300 1.350 . S
H303 C298 0.930 . S
H304 C299 0.930 . S
C305 O306 1.224 . S
C305 O324 1.247 . S
O306 C305 1.224 . S
N307 Co297 2.128 . S
N307 C308 1.355 . S
N307 C310 1.311 . S
C308 N307 1.355 . S
C308 C309 1.363 . S
C308 H320 0.929 . S
C309 C308 1.363 . S
C309 N311 1.375 . S
C309 H327 0.931 . S
C310 N307 1.311 . S
C310 N311 1.347 . S
C310 H321 0.929 . S
N311 C309 1.375 . S
N311 C310 1.347 . S
C312 C315 1.365 . S
C312 N317 1.328 . S
C312 H318 0.929 . S
C313 C314 1.362 . S
C313 C316 1.378 . S
C313 H328 0.929 . S
C314 C313 1.362 . S
C314 C315 1.366 . S
C315 C312 1.365 . S
C315 C314 1.366 . S
C315 H329 0.930 . S
C316 C313 1.378 . S
C316 N317 1.315 . S
C316 H319 0.930 . S
N317 Co297 2.194 . S
N317 C312 1.328 . S
N317 C316 1.315 . S
H318 C312 0.929 . S
H319 C316 0.930 . S
H320 C308 0.929 . S
H321 C310 0.929 . S
O322 Co297 2.351 . S
O322 C325 1.244 . S
O323 Co297 2.155 . S
O323 C325 1.240 . S
O324 Co297 2.096 . S
O324 C305 1.247 . S
C325 O322 1.244 . S
C325 O323 1.240 . S
H326 C300 0.931 . S
H327 C309 0.931 . S
H328 C313 0.929 . S
H329 C315 0.930 . S
Co330 N334 2.148 . S
Co330 N340 2.128 . S
Co330 N350 2.194 . S
Co330 O355 2.351 . S
Co330 O356 2.155 . S
Co330 O357 2.096 . S
C331 N334 1.301 . S
C331 N335 1.328 . S
C331 H336 0.930 . S
C332 C333 1.333 . S
C332 N334 1.317 . S
C332 H337 0.930 . S
C333 C332 1.333 . S
C333 N335 1.350 . S
C333 H359 0.931 . S
N334 Co330 2.148 . S
N334 C331 1.301 . S
N334 C332 1.317 . S
N335 C331 1.328 . S
N335 C333 1.350 . S
H336 C331 0.930 . S
H337 C332 0.930 . S
C338 O339 1.224 . S
C338 O357 1.247 . S
O339 C338 1.224 . S
N340 Co330 2.128 . S
N340 C341 1.355 . S
N340 C343 1.311 . S
C341 N340 1.355 . S
C341 C342 1.363 . S
C341 H353 0.929 . S
C342 C341 1.363 . S
C342 N344 1.375 . S
C342 H360 0.931 . S
C343 N340 1.311 . S
C343 N344 1.347 . S
C343 H354 0.929 . S
N344 C342 1.375 . S
N344 C343 1.347 . S
C345 C348 1.365 . S
C345 N350 1.328 . S
C345 H351 0.929 . S
C346 C347 1.362 . S
C346 C349 1.378 . S
C346 H361 0.929 . S
C347 C346 1.362 . S
C347 C348 1.366 . S
C348 C345 1.365 . S
C348 C347 1.366 . S
C348 H362 0.930 . S
C349 C346 1.378 . S
C349 N350 1.315 . S
C349 H352 0.930 . S
N350 Co330 2.194 . S
N350 C345 1.328 . S
N350 C349 1.315 . S
H351 C345 0.929 . S
H352 C349 0.930 . S
H353 C341 0.929 . S
H354 C343 0.929 . S
O355 Co330 2.351 . S
O355 C358 1.244 . S
O356 Co330 2.155 . S
O356 C358 1.240 . S
O357 Co330 2.096 . S
O357 C338 1.247 . S
C358 O355 1.244 . S
C358 O356 1.240 . S
H359 C333 0.931 . S
H360 C342 0.931 . S
H361 C346 0.929 . S
H362 C348 0.930 . S
Co363 N367 2.148 . S
Co363 N373 2.128 . S
Co363 N383 2.194 . S
Co363 O388 2.351 . S
Co363 O389 2.155 . S
Co363 O390 2.096 . S
C364 N367 1.301 . S
C364 N368 1.328 . S
C364 H369 0.930 . S
C365 C366 1.333 . S
C365 N367 1.317 . S
C365 H370 0.930 . S
C366 C365 1.333 . S
C366 N368 1.350 . S
C366 H392 0.931 . S
N367 Co363 2.148 . S
N367 C364 1.301 . S
N367 C365 1.317 . S
N368 C364 1.328 . S
N368 C366 1.350 . S
H369 C364 0.930 . S
H370 C365 0.930 . S
C371 O372 1.224 . S
C371 O390 1.247 . S
O372 C371 1.224 . S
N373 Co363 2.128 . S
N373 C374 1.355 . S
N373 C376 1.311 . S
C374 N373 1.355 . S
C374 C375 1.363 . S
C374 H386 0.929 . S
C375 C374 1.363 . S
C375 N377 1.375 . S
C375 H393 0.931 . S
C376 N373 1.311 . S
C376 N377 1.347 . S
C376 H387 0.929 . S
N377 C375 1.375 . S
N377 C376 1.347 . S
C378 C381 1.365 . S
C378 N383 1.328 . S
C378 H384 0.929 . S
C379 C380 1.362 . S
C379 C382 1.378 . S
C379 H394 0.929 . S
C380 C379 1.362 . S
C380 C381 1.366 . S
C381 C378 1.365 . S
C381 C380 1.366 . S
C381 H395 0.930 . S
C382 C379 1.378 . S
C382 N383 1.315 . S
C382 H385 0.930 . S
N383 Co363 2.194 . S
N383 C378 1.328 . S
N383 C382 1.315 . S
H384 C378 0.929 . S
H385 C382 0.930 . S
H386 C374 0.929 . S
H387 C376 0.929 . S
O388 Co363 2.351 . S
O388 C391 1.244 . S
O389 Co363 2.155 . S
O389 C391 1.240 . S
O390 Co363 2.096 . S
O390 C371 1.247 . S
C391 O388 1.244 . S
C391 O389 1.240 . S
H392 C366 0.931 . S
H393 C375 0.931 . S
H394 C379 0.929 . S
H395 C381 0.930 . S
Co396 N400 2.148 . S
Co396 N406 2.128 . S
Co396 N416 2.194 . S
Co396 O421 2.351 . S
Co396 O422 2.155 . S
Co396 O423 2.096 . S
C397 N400 1.301 . S
C397 N401 1.328 . S
C397 H402 0.930 . S
C398 C399 1.333 . S
C398 N400 1.317 . S
C398 H403 0.930 . S
C399 C398 1.333 . S
C399 N401 1.350 . S
C399 H425 0.931 . S
N400 Co396 2.148 . S
N400 C397 1.301 . S
N400 C398 1.317 . S
N401 C397 1.328 . S
N401 C399 1.350 . S
H402 C397 0.930 . S
H403 C398 0.930 . S
C404 O405 1.224 . S
C404 O423 1.247 . S
O405 C404 1.224 . S
N406 Co396 2.128 . S
N406 C407 1.355 . S
N406 C409 1.311 . S
C407 N406 1.355 . S
C407 C408 1.363 . S
C407 H419 0.929 . S
C408 C407 1.363 . S
C408 N410 1.375 . S
C408 H426 0.931 . S
C409 N406 1.311 . S
C409 N410 1.347 . S
C409 H420 0.929 . S
N410 C408 1.375 . S
N410 C409 1.347 . S
C411 C414 1.365 . S
C411 N416 1.328 . S
C411 H417 0.929 . S
C412 C413 1.362 . S
C412 C415 1.378 . S
C412 H427 0.929 . S
C413 C412 1.362 . S
C413 C414 1.366 . S
C414 C411 1.365 . S
C414 C413 1.366 . S
C414 H428 0.930 . S
C415 C412 1.378 . S
C415 N416 1.315 . S
C415 H418 0.930 . S
N416 Co396 2.194 . S
N416 C411 1.328 . S
N416 C415 1.315 . S
H417 C411 0.929 . S
H418 C415 0.930 . S
H419 C407 0.929 . S
H420 C409 0.929 . S
O421 Co396 2.351 . S
O421 C424 1.244 . S
O422 Co396 2.155 . S
O422 C424 1.240 . S
O423 Co396 2.096 . S
O423 C404 1.247 . S
C424 O421 1.244 . S
C424 O422 1.240 . S
H425 C399 0.931 . S
H426 C408 0.931 . S
H427 C412 0.929 . S
H428 C414 0.930 . S
Co429 N433 2.148 . S
Co429 N439 2.128 . S
Co429 N449 2.194 . S
Co429 O454 2.351 . S
Co429 O455 2.155 . S
Co429 O456 2.096 . S
C430 N433 1.301 . S
C430 N434 1.328 . S
C430 H435 0.930 . S
C431 C432 1.333 . S
C431 N433 1.317 . S
C431 H436 0.930 . S
C432 C431 1.333 . S
C432 N434 1.350 . S
C432 H458 0.931 . S
N433 Co429 2.148 . S
N433 C430 1.301 . S
N433 C431 1.317 . S
N434 C430 1.328 . S
N434 C432 1.350 . S
H435 C430 0.930 . S
H436 C431 0.930 . S
C437 O438 1.224 . S
C437 O456 1.247 . S
O438 C437 1.224 . S
N439 Co429 2.128 . S
N439 C440 1.355 . S
N439 C442 1.311 . S
C440 N439 1.355 . S
C440 C441 1.363 . S
C440 H452 0.929 . S
C441 C440 1.363 . S
C441 N443 1.375 . S
C441 H459 0.931 . S
C442 N439 1.311 . S
C442 N443 1.347 . S
C442 H453 0.929 . S
N443 C441 1.375 . S
N443 C442 1.347 . S
C444 C447 1.365 . S
C444 N449 1.328 . S
C444 H450 0.929 . S
C445 C446 1.362 . S
C445 C448 1.378 . S
C445 H460 0.929 . S
C446 C445 1.362 . S
C446 C447 1.366 . S
C447 C444 1.365 . S
C447 C446 1.366 . S
C447 H461 0.930 . S
C448 C445 1.378 . S
C448 N449 1.315 . S
C448 H451 0.930 . S
N449 Co429 2.194 . S
N449 C444 1.328 . S
N449 C448 1.315 . S
H450 C444 0.929 . S
H451 C448 0.930 . S
H452 C440 0.929 . S
H453 C442 0.929 . S
O454 Co429 2.351 . S
O454 C457 1.244 . S
O455 Co429 2.155 . S
O455 C457 1.240 . S
O456 Co429 2.096 . S
O456 C437 1.247 . S
C457 O454 1.244 . S
C457 O455 1.240 . S
H458 C432 0.931 . S
H459 C441 0.931 . S
H460 C445 0.929 . S
H461 C447 0.930 . S
Co462 N466 2.148 . S
Co462 N472 2.128 . S
Co462 N482 2.194 . S
Co462 O487 2.351 . S
Co462 O488 2.155 . S
Co462 O489 2.096 . S
C463 N466 1.301 . S
C463 N467 1.328 . S
C463 H468 0.930 . S
C464 C465 1.333 . S
C464 N466 1.317 . S
C464 H469 0.930 . S
C465 C464 1.333 . S
C465 N467 1.350 . S
C465 H491 0.931 . S
N466 Co462 2.148 . S
N466 C463 1.301 . S
N466 C464 1.317 . S
N467 C463 1.328 . S
N467 C465 1.350 . S
H468 C463 0.930 . S
H469 C464 0.930 . S
C470 O471 1.224 . S
C470 O489 1.247 . S
O471 C470 1.224 . S
N472 Co462 2.128 . S
N472 C473 1.355 . S
N472 C475 1.311 . S
C473 N472 1.355 . S
C473 C474 1.363 . S
C473 H485 0.929 . S
C474 C473 1.363 . S
C474 N476 1.375 . S
C474 H492 0.931 . S
C475 N472 1.311 . S
C475 N476 1.347 . S
C475 H486 0.929 . S
N476 C474 1.375 . S
N476 C475 1.347 . S
C477 C480 1.365 . S
C477 N482 1.328 . S
C477 H483 0.929 . S
C478 C479 1.362 . S
C478 C481 1.378 . S
C478 H493 0.929 . S
C479 C478 1.362 . S
C479 C480 1.366 . S
C480 C477 1.365 . S
C480 C479 1.366 . S
C480 H494 0.930 . S
C481 C478 1.378 . S
C481 N482 1.315 . S
C481 H484 0.930 . S
N482 Co462 2.194 . S
N482 C477 1.328 . S
N482 C481 1.315 . S
H483 C477 0.929 . S
H484 C481 0.930 . S
H485 C473 0.929 . S
H486 C475 0.929 . S
O487 Co462 2.351 . S
O487 C490 1.244 . S
O488 Co462 2.155 . S
O488 C490 1.240 . S
O489 Co462 2.096 . S
O489 C470 1.247 . S
C490 O487 1.244 . S
C490 O488 1.240 . S
H491 C465 0.931 . S
H492 C474 0.931 . S
H493 C478 0.929 . S
H494 C480 0.930 . S
Co495 N499 2.148 . S
Co495 N505 2.128 . S
Co495 N515 2.194 . S
Co495 O520 2.351 . S
Co495 O521 2.155 . S
Co495 O522 2.096 . S
C496 N499 1.301 . S
C496 N500 1.328 . S
C496 H501 0.930 . S
C497 C498 1.333 . S
C497 N499 1.317 . S
C497 H502 0.930 . S
C498 C497 1.333 . S
C498 N500 1.350 . S
C498 H524 0.931 . S
N499 Co495 2.148 . S
N499 C496 1.301 . S
N499 C497 1.317 . S
N500 C496 1.328 . S
N500 C498 1.350 . S
H501 C496 0.930 . S
H502 C497 0.930 . S
C503 O504 1.224 . S
C503 O522 1.247 . S
O504 C503 1.224 . S
N505 Co495 2.128 . S
N505 C506 1.355 . S
N505 C508 1.311 . S
C506 N505 1.355 . S
C506 C507 1.363 . S
C506 H518 0.929 . S
C507 C506 1.363 . S
C507 N509 1.375 . S
C507 H525 0.931 . S
C508 N505 1.311 . S
C508 N509 1.347 . S
C508 H519 0.929 . S
N509 C507 1.375 . S
N509 C508 1.347 . S
C510 C513 1.365 . S
C510 N515 1.328 . S
C510 H516 0.929 . S
C511 C512 1.362 . S
C511 C514 1.378 . S
C511 H526 0.929 . S
C512 C511 1.362 . S
C512 C513 1.366 . S
C513 C510 1.365 . S
C513 C512 1.366 . S
C513 H527 0.930 . S
C514 C511 1.378 . S
C514 N515 1.315 . S
C514 H517 0.930 . S
N515 Co495 2.194 . S
N515 C510 1.328 . S
N515 C514 1.315 . S
H516 C510 0.929 . S
H517 C514 0.930 . S
H518 C506 0.929 . S
H519 C508 0.929 . S
O520 Co495 2.351 . S
O520 C523 1.244 . S
O521 Co495 2.155 . S
O521 C523 1.240 . S
O522 Co495 2.096 . S
O522 C503 1.247 . S
C523 O520 1.244 . S
C523 O521 1.240 . S
H524 C498 0.931 . S
H525 C507 0.931 . S
H526 C511 0.929 . S
H527 C513 0.930 . S
C528 C529 1.387 . S
C528 H532 0.950 . S
C528 C537 1.390 . S
C529 C528 1.387 . S
C529 C531 1.387 . S
H530 C537 0.950 . S
C531 C529 1.387 . S
C531 C533 1.390 . S
C531 H535 0.950 . S
H532 C528 0.950 . S
C533 C531 1.390 . S
C533 C534 1.387 . S
C533 H536 0.950 . S
C534 C533 1.387 . S
C534 C537 1.387 . S
H535 C531 0.950 . S
H536 C533 0.950 . S
C537 C528 1.390 . S
C537 H530 0.950 . S
C537 C534 1.387 . S
C538 C539 1.387 . S
C538 H542 0.950 . S
C538 C547 1.390 . S
C539 C538 1.387 . S
C539 C541 1.387 . S
H540 C547 0.950 . S
C541 C539 1.387 . S
C541 C543 1.390 . S
C541 H545 0.950 . S
H542 C538 0.950 . S
C543 C541 1.390 . S
C543 C544 1.387 . S
C543 H546 0.950 . S
C544 C543 1.387 . S
C544 C547 1.387 . S
H545 C541 0.950 . S
H546 C543 0.950 . S
C547 C538 1.390 . S
C547 H540 0.950 . S
C547 C544 1.387 . S
C548 C549 1.387 . S
C548 H552 0.950 . S
C548 C557 1.390 . S
C549 C548 1.387 . S
C549 C551 1.387 . S
H550 C557 0.950 . S
C551 C549 1.387 . S
C551 C553 1.390 . S
C551 H555 0.950 . S
H552 C548 0.950 . S
C553 C551 1.390 . S
C553 C554 1.387 . S
C553 H556 0.950 . S
C554 C553 1.387 . S
C554 C557 1.387 . S
H555 C551 0.950 . S
H556 C553 0.950 . S
C557 C548 1.390 . S
C557 H550 0.950 . S
C557 C554 1.387 . S
C558 C559 1.387 . S
C558 H562 0.950 . S
C558 C567 1.390 . S
C559 C558 1.387 . S
C559 C561 1.387 . S
H560 C567 0.950 . S
C561 C559 1.387 . S
C561 C563 1.390 . S
C561 H565 0.950 . S
H562 C558 0.950 . S
C563 C561 1.390 . S
C563 C564 1.387 . S
C563 H566 0.950 . S
C564 C563 1.387 . S
C564 C567 1.387 . S
H565 C561 0.950 . S
H566 C563 0.950 . S
C567 C558 1.390 . S
C567 H560 0.950 . S
C567 C564 1.387 . S
C568 C569 1.387 . S
C568 H572 0.950 . S
C568 C577 1.390 . S
C569 C568 1.387 . S
C569 C571 1.387 . S
H570 C577 0.950 . S
C571 C569 1.387 . S
C571 C573 1.390 . S
C571 H575 0.950 . S
H572 C568 0.950 . S
C573 C571 1.390 . S
C573 C574 1.387 . S
C573 H576 0.950 . S
C574 C573 1.387 . S
C574 C577 1.387 . S
H575 C571 0.950 . S
H576 C573 0.950 . S
C577 C568 1.390 . S
C577 H570 0.950 . S
C577 C574 1.387 . S
C578 C579 1.387 . S
C578 H582 0.950 . S
C578 C587 1.390 . S
C579 C578 1.387 . S
C579 C581 1.387 . S
H580 C587 0.950 . S
C581 C579 1.387 . S
C581 C583 1.390 . S
C581 H585 0.950 . S
H582 C578 0.950 . S
C583 C581 1.390 . S
C583 C584 1.387 . S
C583 H586 0.950 . S
C584 C583 1.387 . S
C584 C587 1.387 . S
H585 C581 0.950 . S
H586 C583 0.950 . S
C587 C578 1.390 . S
C587 H580 0.950 . S
C587 C584 1.387 . S
C588 C589 1.387 . S
C588 H592 0.950 . S
C588 C597 1.390 . S
C589 C588 1.387 . S
C589 C591 1.387 . S
H590 C597 0.950 . S
C591 C589 1.387 . S
C591 C593 1.390 . S
C591 H595 0.950 . S
H592 C588 0.950 . S
C593 C591 1.390 . S
C593 C594 1.387 . S
C593 H596 0.950 . S
C594 C593 1.387 . S
C594 C597 1.387 . S
H595 C591 0.950 . S
H596 C593 0.950 . S
C597 C588 1.390 . S
C597 H590 0.950 . S
C597 C594 1.387 . S
C598 C599 1.387 . S
C598 H602 0.950 . S
C598 C607 1.390 . S
C599 C598 1.387 . S
C599 C601 1.387 . S
H600 C607 0.950 . S
C601 C599 1.387 . S
C601 C603 1.390 . S
C601 H605 0.950 . S
H602 C598 0.950 . S
C603 C601 1.390 . S
C603 C604 1.387 . S
C603 H606 0.950 . S
C604 C603 1.387 . S
C604 C607 1.387 . S
H605 C601 0.950 . S
H606 C603 0.950 . S
C607 C598 1.390 . S
C607 H600 0.950 . S
C607 C604 1.387 . S
C608 C609 1.387 . S
C608 H612 0.950 . S
C608 C617 1.390 . S
C609 C608 1.387 . S
C609 C611 1.387 . S
H610 C617 0.950 . S
C611 C609 1.387 . S
C611 C613 1.390 . S
C611 H615 0.950 . S
H612 C608 0.950 . S
C613 C611 1.390 . S
C613 C614 1.387 1_554 S
C613 H616 0.950 . S
C614 C613 1.387 1_556 S
C614 C617 1.387 1_556 S
H615 C611 0.950 . S
H616 C613 0.950 . S
C617 C608 1.390 . S
C617 H610 0.950 . S
C617 C614 1.387 1_554 S
C618 C619 1.387 . S
C618 H622 0.950 . S
C618 C627 1.390 . S
C619 C618 1.387 . S
C619 C621 1.387 . S
H620 C627 0.950 . S
C621 C619 1.387 . S
C621 C623 1.390 . S
C621 H625 0.950 . S
H622 C618 0.950 . S
C623 C621 1.390 . S
C623 C624 1.387 1_554 S
C623 H626 0.950 . S
C624 C623 1.387 1_556 S
C624 C627 1.387 1_556 S
H625 C621 0.950 . S
H626 C623 0.950 . S
C627 C618 1.390 . S
C627 H620 0.950 . S
C627 C624 1.387 1_554 S
C628 C629 1.387 . S
C628 H632 0.950 . S
C628 C637 1.390 . S
C629 C628 1.387 . S
C629 C631 1.387 . S
H630 C637 0.950 . S
C631 C629 1.387 . S
C631 C633 1.390 . S
C631 H635 0.950 . S
H632 C628 0.950 . S
C633 C631 1.390 . S
C633 C634 1.387 1_554 S
C633 H636 0.950 . S
C634 C633 1.387 1_556 S
C634 C637 1.387 1_556 S
H635 C631 0.950 . S
H636 C633 0.950 . S
C637 C628 1.390 . S
C637 H630 0.950 . S
C637 C634 1.387 1_554 S
C638 C639 1.387 . S
C638 H642 0.950 . S
C638 C647 1.390 . S
C639 C638 1.387 . S
C639 C641 1.387 . S
H640 C647 0.950 . S
C641 C639 1.387 . S
C641 C643 1.390 . S
C641 H645 0.950 . S
H642 C638 0.950 . S
C643 C641 1.390 . S
C643 C644 1.387 1_554 S
C643 H646 0.950 1_554 S
C644 C643 1.387 1_556 S
C644 C647 1.387 1_556 S
H645 C641 0.950 . S
H646 C643 0.950 1_556 S
C647 C638 1.390 . S
C647 H640 0.950 . S
C647 C644 1.387 1_554 S
C648 C649 1.387 1_556 S
C648 H652 0.950 . S
C648 C657 1.390 . S
C649 C648 1.387 1_554 S
C649 C651 1.387 1_554 S
H650 C657 0.950 . S
C651 C649 1.387 1_556 S
C651 C653 1.390 . S
C651 H655 0.950 1_556 S
H652 C648 0.950 . S
C653 C651 1.390 . S
C653 C654 1.387 . S
C653 H656 0.950 . S
C654 C653 1.387 . S
C654 C657 1.387 . S
H655 C651 0.950 1_554 S
H656 C653 0.950 . S
C657 C648 1.390 . S
C657 H650 0.950 . S
C657 C654 1.387 . S
C658 C659 1.387 1_556 S
C658 H662 0.950 1_556 S
C658 C667 1.390 . S
C659 C658 1.387 1_554 S
C659 C661 1.387 1_554 S
H660 C667 0.950 . S
C661 C659 1.387 1_556 S
C661 C663 1.390 . S
C661 H665 0.950 . S
H662 C658 0.950 1_554 S
C663 C661 1.390 . S
C663 C664 1.387 . S
C663 H666 0.950 . S
C664 C663 1.387 . S
C664 C667 1.387 . S
H665 C661 0.950 . S
H666 C663 0.950 . S
C667 C658 1.390 . S
C667 H660 0.950 . S
C667 C664 1.387 . S
C668 C669 1.387 1_556 S
C668 H672 0.950 . S
C668 C677 1.390 . S
C669 C668 1.387 1_554 S
C669 C671 1.387 1_554 S
H670 C677 0.950 . S
C671 C669 1.387 1_556 S
C671 C673 1.390 . S
C671 H675 0.950 . S
H672 C668 0.950 . S
C673 C671 1.390 . S
C673 C674 1.387 . S
C673 H676 0.950 . S
C674 C673 1.387 . S
C674 C677 1.387 . S
H675 C671 0.950 . S
H676 C673 0.950 . S
C677 C668 1.390 . S
C677 H670 0.950 . S
C677 C674 1.387 . S
C678 C679 1.387 1_556 S
C678 H682 0.950 . S
C678 C687 1.390 . S
C679 C678 1.387 1_554 S
C679 C681 1.387 1_554 S
H680 C687 0.950 . S
C681 C679 1.387 1_556 S
C681 C683 1.390 . S
C681 H685 0.950 . S
H682 C678 0.950 . S
C683 C681 1.390 . S
C683 C684 1.387 . S
C683 H686 0.950 . S
C684 C683 1.387 . S
C684 C687 1.387 . S
H685 C681 0.950 . S
H686 C683 0.950 . S
C687 C678 1.390 . S
C687 H680 0.950 . S
C687 C684 1.387 . S
C688 C689 1.387 . S
C688 H692 0.950 . S
C688 C697 1.390 . S
C689 C688 1.387 . S
C689 C691 1.387 . S
H690 C697 0.950 . S
C691 C689 1.387 . S
C691 C693 1.390 . S
C691 H695 0.950 . S
H692 C688 0.950 . S
C693 C691 1.390 . S
C693 C694 1.387 . S
C693 H696 0.950 . S
C694 C693 1.387 . S
C694 C697 1.387 . S
H695 C691 0.950 . S
H696 C693 0.950 . S
C697 C688 1.390 . S
C697 H690 0.950 . S
C697 C694 1.387 . S
C698 C699 1.387 . S
C698 H702 0.950 . S
C698 C707 1.390 . S
C699 C698 1.387 . S
C699 C701 1.387 . S
H700 C707 0.950 . S
C701 C699 1.387 . S
C701 C703 1.390 . S
C701 H705 0.950 . S
H702 C698 0.950 . S
C703 C701 1.390 . S
C703 C704 1.387 . S
C703 H706 0.950 . S
C704 C703 1.387 . S
C704 C707 1.387 . S
H705 C701 0.950 . S
H706 C703 0.950 . S
C707 C698 1.390 . S
C707 H700 0.950 . S
C707 C704 1.387 . S
C708 C709 1.387 . S
C708 H712 0.950 . S
C708 C717 1.390 . S
C709 C708 1.387 . S
C709 C711 1.387 . S
H710 C717 0.950 . S
C711 C709 1.387 . S
C711 C713 1.390 . S
C711 H715 0.950 . S
H712 C708 0.950 . S
C713 C711 1.390 . S
C713 C714 1.387 . S
C713 H716 0.950 . S
C714 C713 1.387 . S
C714 C717 1.387 . S
H715 C711 0.950 . S
H716 C713 0.950 . S
C717 C708 1.390 . S
C717 H710 0.950 . S
C717 C714 1.387 . S
C718 C719 1.387 . S
C718 H722 0.950 . S
C718 C727 1.390 . S
C719 C718 1.387 . S
C719 C721 1.387 . S
H720 C727 0.950 . S
C721 C719 1.387 . S
C721 C723 1.390 . S
C721 H725 0.950 . S
H722 C718 0.950 . S
C723 C721 1.390 . S
C723 C724 1.387 . S
C723 H726 0.950 . S
C724 C723 1.387 . S
C724 C727 1.387 . S
H725 C721 0.950 . S
H726 C723 0.950 . S
C727 C718 1.390 . S
C727 H720 0.950 . S
C727 C724 1.387 . S
C728 C729 1.387 . S
C728 H732 0.950 . S
C728 C737 1.390 . S
C729 C728 1.387 . S
C729 C731 1.387 . S
H730 C737 0.950 . S
C731 C729 1.387 . S
C731 C733 1.390 . S
C731 H735 0.950 . S
H732 C728 0.950 . S
C733 C731 1.390 . S
C733 C734 1.387 . S
C733 H736 0.950 . S
C734 C733 1.387 . S
C734 C737 1.387 . S
H735 C731 0.950 . S
H736 C733 0.950 . S
C737 C728 1.390 . S
C737 H730 0.950 . S
C737 C734 1.387 . S
C738 C739 1.387 . S
C738 H742 0.950 . S
C738 C747 1.390 . S
C739 C738 1.387 . S
C739 C741 1.387 . S
H740 C747 0.950 . S
C741 C739 1.387 . S
C741 C743 1.390 . S
C741 H745 0.950 . S
H742 C738 0.950 . S
C743 C741 1.390 . S
C743 C744 1.387 . S
C743 H746 0.950 . S
C744 C743 1.387 . S
C744 C747 1.387 . S
H745 C741 0.950 . S
H746 C743 0.950 . S
C747 C738 1.390 . S
C747 H740 0.950 . S
C747 C744 1.387 . S
C748 C749 1.387 . S
C748 H752 0.950 . S
C748 C757 1.390 . S
C749 C748 1.387 . S
C749 C751 1.387 . S
H750 C757 0.950 . S
C751 C749 1.387 . S
C751 C753 1.390 . S
C751 H755 0.950 . S
H752 C748 0.950 . S
C753 C751 1.390 . S
C753 C754 1.387 . S
C753 H756 0.950 . S
C754 C753 1.387 . S
C754 C757 1.387 . S
H755 C751 0.950 . S
H756 C753 0.950 . S
C757 C748 1.390 . S
C757 H750 0.950 . S
C757 C754 1.387 . S
C758 C759 1.387 . S
C758 H762 0.950 . S
C758 C767 1.390 . S
C759 C758 1.387 . S
C759 C761 1.387 . S
H760 C767 0.950 . S
C761 C759 1.387 . S
C761 C763 1.390 . S
C761 H765 0.950 . S
H762 C758 0.950 . S
C763 C761 1.390 . S
C763 C764 1.387 . S
C763 H766 0.950 . S
C764 C763 1.387 . S
C764 C767 1.387 . S
H765 C761 0.950 . S
H766 C763 0.950 . S
C767 C758 1.390 . S
C767 H760 0.950 . S
C767 C764 1.387 . S
C768 C769 1.387 . S
C768 H772 0.950 . S
C768 C777 1.390 1_544 S
C769 C768 1.387 . S
C769 C771 1.387 . S
H770 C777 0.950 . S
C771 C769 1.387 . S
C771 C773 1.390 1_544 S
C771 H775 0.950 . S
H772 C768 0.950 . S
C773 C771 1.390 1_566 S
C773 C774 1.387 . S
C773 H776 0.950 . S
C774 C773 1.387 . S
C774 C777 1.387 . S
H775 C771 0.950 . S
H776 C773 0.950 . S
C777 C768 1.390 1_566 S
C777 H770 0.950 . S
C777 C774 1.387 . S
C778 C779 1.387 . S
C778 H782 0.950 . S
C778 C787 1.390 1_456 S
C779 C778 1.387 . S
C779 C781 1.387 . S
H780 C787 0.950 . S
C781 C779 1.387 . S
C781 C783 1.390 1_456 S
C781 H785 0.950 . S
H782 C778 0.950 . S
C783 C781 1.390 1_654 S
C783 C784 1.387 . S
C783 H786 0.950 . S
C784 C783 1.387 . S
C784 C787 1.387 . S
H785 C781 0.950 . S
H786 C783 0.950 . S
C787 C778 1.390 1_654 S
C787 H780 0.950 . S
C787 C784 1.387 . S
C788 C789 1.387 . S
C788 H792 0.950 . S
C788 C797 1.390 1_564 S
C789 C788 1.387 . S
C789 C791 1.387 . S
H790 C797 0.950 . S
C791 C789 1.387 . S
C791 C793 1.390 1_564 S
C791 H795 0.950 . S
H792 C788 0.950 . S
C793 C791 1.390 1_546 S
C793 C794 1.387 . S
C793 H796 0.950 . S
C794 C793 1.387 . S
C794 C797 1.387 . S
H795 C791 0.950 . S
H796 C793 0.950 . S
C797 C788 1.390 1_546 S
C797 H790 0.950 . S
C797 C794 1.387 . S
C798 C799 1.387 . S
C798 H802 0.950 . S
C798 C807 1.390 1_656 S
C799 C798 1.387 . S
C799 C801 1.387 . S
H800 C807 0.950 . S
C801 C799 1.387 . S
C801 C803 1.390 1_656 S
C801 H805 0.950 . S
H802 C798 0.950 . S
C803 C801 1.390 1_454 S
C803 C804 1.387 . S
C803 H806 0.950 . S
C804 C803 1.387 . S
C804 C807 1.387 . S
H805 C801 0.950 . S
H806 C803 0.950 . S
C807 C798 1.390 1_454 S
C807 H800 0.950 . S
C807 C804 1.387 . S
C808 C809 1.387 . S
C808 H812 0.950 . S
C808 C817 1.390 . S
C809 C808 1.387 . S
C809 C811 1.387 . S
H810 C817 0.950 . S
C811 C809 1.387 . S
C811 C813 1.390 . S
C811 H815 0.950 . S
H812 C808 0.950 . S
C813 C811 1.390 . S
C813 C814 1.387 . S
C813 H816 0.950 . S
C814 C813 1.387 . S
C814 C817 1.387 . S
H815 C811 0.950 . S
H816 C813 0.950 . S
C817 C808 1.390 . S
C817 H810 0.950 . S
C817 C814 1.387 . S
C818 C819 1.387 . S
C818 H822 0.950 . S
C818 C827 1.390 . S
C819 C818 1.387 . S
C819 C821 1.387 . S
H820 C827 0.950 . S
C821 C819 1.387 . S
C821 C823 1.390 . S
C821 H825 0.950 . S
H822 C818 0.950 . S
C823 C821 1.390 . S
C823 C824 1.387 . S
C823 H826 0.950 . S
C824 C823 1.387 . S
C824 C827 1.387 . S
H825 C821 0.950 . S
H826 C823 0.950 . S
C827 C818 1.390 . S
C827 H820 0.950 . S
C827 C824 1.387 . S
C828 C829 1.387 . S
C828 H832 0.950 . S
C828 C837 1.390 . S
C829 C828 1.387 . S
C829 C831 1.387 . S
H830 C837 0.950 . S
C831 C829 1.387 . S
C831 C833 1.390 . S
C831 H835 0.950 . S
H832 C828 0.950 . S
C833 C831 1.390 . S
C833 C834 1.387 . S
C833 H836 0.950 . S
C834 C833 1.387 . S
C834 C837 1.387 . S
H835 C831 0.950 . S
H836 C833 0.950 . S
C837 C828 1.390 . S
C837 H830 0.950 . S
C837 C834 1.387 . S
C838 C839 1.387 . S
C838 H842 0.950 . S
C838 C847 1.390 . S
C839 C838 1.387 . S
C839 C841 1.387 . S
H840 C847 0.950 . S
C841 C839 1.387 . S
C841 C843 1.390 . S
C841 H845 0.950 . S
H842 C838 0.950 . S
C843 C841 1.390 . S
C843 C844 1.387 . S
C843 H846 0.950 . S
C844 C843 1.387 . S
C844 C847 1.387 . S
H845 C841 0.950 . S
H846 C843 0.950 . S
C847 C838 1.390 . S
C847 H840 0.950 . S
C847 C844 1.387 . S
C848 C849 1.387 . S
C848 H852 0.950 . S
C848 C857 1.390 . S
C849 C848 1.387 . S
C849 C851 1.387 1_554 S
H850 C857 0.950 . S
C851 C849 1.387 1_556 S
C851 C853 1.390 . S
C851 H855 0.950 . S
H852 C848 0.950 . S
C853 C851 1.390 . S
C853 C854 1.387 . S
C853 H856 0.950 . S
C854 C853 1.387 . S
C854 C857 1.387 1_556 S
H855 C851 0.950 . S
H856 C853 0.950 . S
C857 C848 1.390 . S
C857 H850 0.950 . S
C857 C854 1.387 1_554 S
C858 C859 1.387 . S
C858 H862 0.950 . S
C858 C867 1.390 . S
C859 C858 1.387 . S
C859 C861 1.387 1_554 S
H860 C867 0.950 . S
C861 C859 1.387 1_556 S
C861 C863 1.390 . S
C861 H865 0.950 . S
H862 C858 0.950 . S
C863 C861 1.390 . S
C863 C864 1.387 . S
C863 H866 0.950 . S
C864 C863 1.387 . S
C864 C867 1.387 1_556 S
H865 C861 0.950 . S
H866 C863 0.950 . S
C867 C858 1.390 . S
C867 H860 0.950 . S
C867 C864 1.387 1_554 S
C868 C869 1.387 . S
C868 H872 0.950 . S
C868 C877 1.390 . S
C869 C868 1.387 . S
C869 C871 1.387 1_556 S
H870 C877 0.950 . S
C871 C869 1.387 1_554 S
C871 C873 1.390 . S
C871 H875 0.950 . S
H872 C868 0.950 . S
C873 C871 1.390 . S
C873 C874 1.387 . S
C873 H876 0.950 . S
C874 C873 1.387 . S
C874 C877 1.387 1_554 S
H875 C871 0.950 . S
H876 C873 0.950 . S
C877 C868 1.390 . S
C877 H870 0.950 . S
C877 C874 1.387 1_556 S
C878 C879 1.387 1_556 S
C878 H882 0.950 . S
C878 C887 1.390 . S
C879 C878 1.387 1_554 S
C879 C881 1.387 . S
H880 C887 0.950 . S
C881 C879 1.387 . S
C881 C883 1.390 . S
C881 H885 0.950 . S
H882 C878 0.950 . S
C883 C881 1.390 . S
C883 C884 1.387 1_554 S
C883 H886 0.950 . S
C884 C883 1.387 1_556 S
C884 C887 1.387 . S
H885 C881 0.950 . S
H886 C883 0.950 . S
C887 C878 1.390 . S
C887 H880 0.950 . S
C887 C884 1.387 . S
C888 C889 1.387 . S
C888 H892 0.950 . S
C888 C897 1.390 . S
C889 C888 1.387 . S
C889 C891 1.387 . S
H890 C897 0.950 . S
C891 C889 1.387 . S
C891 C893 1.390 . S
C891 H895 0.950 . S
H892 C888 0.950 . S
C893 C891 1.390 . S
C893 C894 1.387 . S
C893 H896 0.950 . S
C894 C893 1.387 . S
C894 C897 1.387 . S
H895 C891 0.950 . S
H896 C893 0.950 . S
C897 C888 1.390 . S
C897 H890 0.950 . S
C897 C894 1.387 . S
C898 C899 1.387 . S
C898 H902 0.950 . S
C898 C907 1.390 . S
C899 C898 1.387 . S
C899 C901 1.387 . S
H900 C907 0.950 . S
C901 C899 1.387 . S
C901 C903 1.390 . S
C901 H905 0.950 . S
H902 C898 0.950 . S
C903 C901 1.390 . S
C903 C904 1.387 . S
C903 H906 0.950 . S
C904 C903 1.387 . S
C904 C907 1.387 . S
H905 C901 0.950 . S
H906 C903 0.950 . S
C907 C898 1.390 . S
C907 H900 0.950 . S
C907 C904 1.387 . S
C908 C909 1.387 . S
C908 H912 0.950 . S
C908 C917 1.390 . S
C909 C908 1.387 . S
C909 C911 1.387 . S
H910 C917 0.950 . S
C911 C909 1.387 . S
C911 C913 1.390 . S
C911 H915 0.950 . S
H912 C908 0.950 . S
C913 C911 1.390 . S
C913 C914 1.387 . S
C913 H916 0.950 . S
C914 C913 1.387 . S
C914 C917 1.387 . S
H915 C911 0.950 . S
H916 C913 0.950 . S
C917 C908 1.390 . S
C917 H910 0.950 . S
C917 C914 1.387 . S
C918 C919 1.387 . S
C918 H922 0.950 . S
C918 C927 1.390 . S
C919 C918 1.387 . S
C919 C921 1.387 . S
H920 C927 0.950 . S
C921 C919 1.387 . S
C921 C923 1.390 . S
C921 H925 0.950 . S
H922 C918 0.950 . S
C923 C921 1.390 . S
C923 C924 1.387 . S
C923 H926 0.950 . S
C924 C923 1.387 . S
C924 C927 1.387 . S
H925 C921 0.950 . S
H926 C923 0.950 . S
C927 C918 1.390 . S
C927 H920 0.950 . S
C927 C924 1.387 . S
C529 N5 1.444 . S
C534 N14 1.445 . S
C539 N38 1.444 . S
C544 N47 1.445 . S
C549 N80 1.445 . S
C554 N71 1.443 . S
C559 N113 1.445 . S
C564 N104 1.444 . S
C569 N137 1.443 . S
C574 N146 1.445 . S
C579 N179 1.445 . S
C584 N170 1.444 . S
C589 N212 1.445 . S
C594 N203 1.444 . S
C599 N245 1.445 . S
C604 N236 1.444 . S
C609 N269 1.444 . S
C614 N278 1.445 . S
C619 N302 1.444 . S
C624 N311 1.445 . S
C629 N335 1.444 . S
C634 N344 1.445 . S
C639 N368 1.444 . S
C644 N377 1.445 . S
C649 N410 1.445 . S
C654 N401 1.444 . S
C659 N443 1.444 . S
C664 N434 1.443 . S
C669 N476 1.445 . S
C674 N467 1.444 . S
C679 N509 1.445 . S
C684 N500 1.443 . S
C689 C8 1.441 . S
C694 C503 1.442 . S
C699 C404 1.443 . S
C704 C41 1.441 . S
C709 C437 1.441 . S
C714 C74 1.442 . S
C719 C470 1.441 . S
C724 C107 1.443 . S
C729 C305 1.442 . S
C734 C140 1.443 . S
C739 C173 1.441 . S
C744 C338 1.443 . S
C749 C206 1.441 . S
C754 C371 1.441 . S
C759 C272 1.441 . S
C764 C239 1.441 . S
C769 C28 1.193 . S
C774 C160 1.193 . S
C779 C193 1.194 . S
C784 C61 1.194 . S
C789 C94 1.194 . S
C794 C226 1.194 . S
C799 C259 1.194 . S
C804 C127 1.194 . S
C809 C424 1.193 . S
C814 C292 1.193 . S
C819 C325 1.194 . S
C824 C457 1.194 . S
C829 C358 1.194 . S
C834 C490 1.194 . S
C839 C391 1.194 . S
C844 C523 1.194 . S
C849 C17 1.553 . S
C854 C182 1.552 . S
C859 C50 1.551 . S
C864 C215 1.551 . S
C869 C248 1.553 . S
C874 C83 1.552 . S
C879 C116 1.552 . S
C884 C149 1.553 . S
C889 C446 1.551 . S
C894 C281 1.553 . S
C899 C314 1.553 . S
C904 C479 1.551 . S
C909 C512 1.552 . S
C914 C347 1.553 . S
C919 C413 1.553 . S
C924 C380 1.552 . S
