# Generated by pormake.
# Topology gme, (4)-cn, num edge types: 1
# Building blocks:
#     Node 0, Type 0, BuildingBlock: NAHDIM_clean_sbu_0, # of connection points: 4
#     Node 1, Type 0, BuildingBlock: NAHDIM_clean_sbu_0, # of connection points: 4
#     Node 2, Type 0, BuildingBlock: NAHDIM_clean_sbu_0, # of connection points: 4
#     Node 3, Type 0, BuildingBlock: NAHDIM_clean_sbu_0, # of connection points: 4
#     Node 4, Type 0, BuildingBlock: NAHDIM_clean_sbu_0, # of connection points: 4
#     Node 5, Type 0, BuildingBlock: NAHDIM_clean_sbu_0, # of connection points: 4
#     Node 6, Type 0, BuildingBlock: NAHDIM_clean_sbu_0, # of connection points: 4
#     Node 7, Type 0, BuildingBlock: NAHDIM_clean_sbu_0, # of connection points: 4
#     Node 8, Type 0, BuildingBlock: NAHDIM_clean_sbu_0, # of connection points: 4
#     Node 9, Type 0, BuildingBlock: NAHDIM_clean_sbu_0, # of connection points: 4
#     Node 10, Type 0, BuildingBlock: NAHDIM_clean_sbu_0, # of connection points: 4
#     Node 11, Type 0, BuildingBlock: NAHDIM_clean_sbu_0, # of connection points: 4
#     Node 12, Type 0, BuildingBlock: NAHDIM_clean_sbu_0, # of connection points: 4
#     Node 13, Type 0, BuildingBlock: NAHDIM_clean_sbu_0, # of connection points: 4
#     Node 14, Type 0, BuildingBlock: NAHDIM_clean_sbu_0, # of connection points: 4
#     Node 15, Type 0, BuildingBlock: NAHDIM_clean_sbu_0, # of connection points: 4
#     Node 16, Type 0, BuildingBlock: NAHDIM_clean_sbu_0, # of connection points: 4
#     Node 17, Type 0, BuildingBlock: NAHDIM_clean_sbu_0, # of connection points: 4
#     Node 18, Type 0, BuildingBlock: NAHDIM_clean_sbu_0, # of connection points: 4
#     Node 19, Type 0, BuildingBlock: NAHDIM_clean_sbu_0, # of connection points: 4
#     Node 20, Type 0, BuildingBlock: NAHDIM_clean_sbu_0, # of connection points: 4
#     Node 21, Type 0, BuildingBlock: NAHDIM_clean_sbu_0, # of connection points: 4
#     Node 22, Type 0, BuildingBlock: NAHDIM_clean_sbu_0, # of connection points: 4
#     Node 23, Type 0, BuildingBlock: NAHDIM_clean_sbu_0, # of connection points: 4
#     Edge 24, Type (0, 0), BuildingBlock: ZUJKAS_clean_linker_0, # of connection points: 2
#     Edge 25, Type (0, 0), BuildingBlock: ZUJKAS_clean_linker_0, # of connection points: 2
#     Edge 26, Type (0, 0), BuildingBlock: ZUJKAS_clean_linker_0, # of connection points: 2
#     Edge 27, Type (0, 0), BuildingBlock: ZUJKAS_clean_linker_0, # of connection points: 2
#     Edge 28, Type (0, 0), BuildingBlock: ZUJKAS_clean_linker_0, # of connection points: 2
#     Edge 29, Type (0, 0), BuildingBlock: ZUJKAS_clean_linker_0, # of connection points: 2
#     Edge 30, Type (0, 0), BuildingBlock: ZUJKAS_clean_linker_0, # of connection points: 2
#     Edge 31, Type (0, 0), BuildingBlock: ZUJKAS_clean_linker_0, # of connection points: 2
#     Edge 32, Type (0, 0), BuildingBlock: ZUJKAS_clean_linker_0, # of connection points: 2
#     Edge 33, Type (0, 0), BuildingBlock: ZUJKAS_clean_linker_0, # of connection points: 2
#     Edge 34, Type (0, 0), BuildingBlock: ZUJKAS_clean_linker_0, # of connection points: 2
#     Edge 35, Type (0, 0), BuildingBlock: ZUJKAS_clean_linker_0, # of connection points: 2
#     Edge 36, Type (0, 0), BuildingBlock: ZUJKAS_clean_linker_0, # of connection points: 2
#     Edge 37, Type (0, 0), BuildingBlock: ZUJKAS_clean_linker_0, # of connection points: 2
#     Edge 38, Type (0, 0), BuildingBlock: ZUJKAS_clean_linker_0, # of connection points: 2
#     Edge 39, Type (0, 0), BuildingBlock: ZUJKAS_clean_linker_0, # of connection points: 2
#     Edge 40, Type (0, 0), BuildingBlock: ZUJKAS_clean_linker_0, # of connection points: 2
#     Edge 41, Type (0, 0), BuildingBlock: ZUJKAS_clean_linker_0, # of connection points: 2
#     Edge 42, Type (0, 0), BuildingBlock: ZUJKAS_clean_linker_0, # of connection points: 2
#     Edge 43, Type (0, 0), BuildingBlock: ZUJKAS_clean_linker_0, # of connection points: 2
#     Edge 44, Type (0, 0), BuildingBlock: ZUJKAS_clean_linker_0, # of connection points: 2
#     Edge 45, Type (0, 0), BuildingBlock: ZUJKAS_clean_linker_0, # of connection points: 2
#     Edge 46, Type (0, 0), BuildingBlock: ZUJKAS_clean_linker_0, # of connection points: 2
#     Edge 47, Type (0, 0), BuildingBlock: ZUJKAS_clean_linker_0, # of connection points: 2
#     Edge 48, Type (0, 0), BuildingBlock: ZUJKAS_clean_linker_0, # of connection points: 2
#     Edge 49, Type (0, 0), BuildingBlock: ZUJKAS_clean_linker_0, # of connection points: 2
#     Edge 50, Type (0, 0), BuildingBlock: ZUJKAS_clean_linker_0, # of connection points: 2
#     Edge 51, Type (0, 0), BuildingBlock: ZUJKAS_clean_linker_0, # of connection points: 2
#     Edge 52, Type (0, 0), BuildingBlock: ZUJKAS_clean_linker_0, # of connection points: 2
#     Edge 53, Type (0, 0), BuildingBlock: ZUJKAS_clean_linker_0, # of connection points: 2
#     Edge 54, Type (0, 0), BuildingBlock: ZUJKAS_clean_linker_0, # of connection points: 2
#     Edge 55, Type (0, 0), BuildingBlock: ZUJKAS_clean_linker_0, # of connection points: 2
#     Edge 56, Type (0, 0), BuildingBlock: ZUJKAS_clean_linker_0, # of connection points: 2
#     Edge 57, Type (0, 0), BuildingBlock: ZUJKAS_clean_linker_0, # of connection points: 2
#     Edge 58, Type (0, 0), BuildingBlock: ZUJKAS_clean_linker_0, # of connection points: 2
#     Edge 59, Type (0, 0), BuildingBlock: ZUJKAS_clean_linker_0, # of connection points: 2
#     Edge 60, Type (0, 0), BuildingBlock: ZUJKAS_clean_linker_0, # of connection points: 2
#     Edge 61, Type (0, 0), BuildingBlock: ZUJKAS_clean_linker_0, # of connection points: 2
#     Edge 62, Type (0, 0), BuildingBlock: ZUJKAS_clean_linker_0, # of connection points: 2
#     Edge 63, Type (0, 0), BuildingBlock: ZUJKAS_clean_linker_0, # of connection points: 2
#     Edge 64, Type (0, 0), BuildingBlock: ZUJKAS_clean_linker_0, # of connection points: 2
#     Edge 65, Type (0, 0), BuildingBlock: ZUJKAS_clean_linker_0, # of connection points: 2
#     Edge 66, Type (0, 0), BuildingBlock: ZUJKAS_clean_linker_0, # of connection points: 2
#     Edge 67, Type (0, 0), BuildingBlock: ZUJKAS_clean_linker_0, # of connection points: 2
#     Edge 68, Type (0, 0), BuildingBlock: ZUJKAS_clean_linker_0, # of connection points: 2
#     Edge 69, Type (0, 0), BuildingBlock: ZUJKAS_clean_linker_0, # of connection points: 2
#     Edge 70, Type (0, 0), BuildingBlock: ZUJKAS_clean_linker_0, # of connection points: 2
#     Edge 71, Type (0, 0), BuildingBlock: ZUJKAS_clean_linker_0, # of connection points: 2
# Relax obj value: 0.157
# Max RMSD: 0.150
# Mean RMSD: 0.150
data_MOF--net-gme--node1-NAHDIM_clean_sbu_0--edge1-ZUJKAS_clean_linker_0
_symmetry_space_group_name_H-M    P1
_symmetry_Int_Tables_number       1
_symmetry_cell_setting            triclinic
loop_
_symmetry_equiv_pos_as_xyz
'x, y, z'
_cell_length_a     80.321403
_cell_length_b     80.286572
_cell_length_c     65.774287
_cell_angle_alpha  90.010222
_cell_angle_beta   90.004711
_cell_angle_gamma 120.01249
loop_
_atom_site_label
_atom_site_type_symbol
_atom_site_fract_x
_atom_site_fract_y
_atom_site_fract_z
_atom_type_partial_charge
C0 C 0.40708 0.07434 0.0701 0.0
O1 O 0.42463 0.08709 0.06455 0.0
O2 O 0.42662 0.11923 0.10095 0.0
Zn3 Zn 0.42179 0.09283 0.10786 0.0
O4 O 0.44648 0.09232 0.10581 0.0
C5 C 0.39922 0.09029 0.14277 0.0
O6 O 0.39182 0.09744 0.13001 0.0
O7 O 0.40222 0.07375 0.08857 0.0
C8 C 0.46061 0.10381 0.1168 0.0
O9 O 0.45854 0.11547 0.12922 0.0
C10 C 0.43974 0.13067 0.08889 0.0
O11 O 0.45103 0.1253 0.08021 0.0
O12 O 0.41209 0.08674 0.13651 0.0
C13 C 0.33184 0.40972 0.5652 0.0
O14 O 0.33558 0.42678 0.55892 0.0
O15 O 0.30544 0.42801 0.59613 0.0
Zn16 Zn 0.32843 0.42536 0.60245 0.0
O17 O 0.35271 0.45073 0.59893 0.0
C18 C 0.31116 0.40411 0.6391 0.0
O19 O 0.29586 0.39521 0.62748 0.0
O20 O 0.32842 0.40558 0.58393 0.0
C21 C 0.35482 0.4651 0.60913 0.0
O22 O 0.34098 0.46294 0.62143 0.0
C23 C 0.30565 0.44026 0.58374 0.0
O24 O 0.32171 0.45218 0.57437 0.0
O25 O 0.32679 0.41722 0.63148 0.0
C26 C 0.92248 0.32746 0.06316 0.0
O27 O 0.9089 0.33088 0.05706 0.0
O28 O 0.87868 0.30517 0.09555 0.0
Zn29 Zn 0.90552 0.32649 0.10125 0.0
O30 O 0.90689 0.35204 0.09816 0.0
C31 C 0.90679 0.30815 0.13861 0.0
O32 O 0.89629 0.29224 0.12828 0.0
O33 O 0.92394 0.32488 0.08196 0.0
C34 C 0.89992 0.35766 0.11214 0.0
O35 O 0.89197 0.34655 0.12803 0.0
C36 C 0.8669 0.30723 0.08441 0.0
O37 O 0.87226 0.32401 0.07601 0.0
O38 O 0.91259 0.32428 0.12996 0.0
C39 C 0.58604 0.92214 0.56444 0.0
O40 O 0.56809 0.91 0.55954 0.0
O41 O 0.57291 0.87456 0.59056 0.0
Zn42 Zn 0.57453 0.89909 0.60004 0.0
O43 O 0.54843 0.89687 0.59951 0.0
C44 C 0.58057 0.89146 0.64118 0.0
O45 O 0.57011 0.87356 0.63505 0.0
O46 O 0.59233 0.92046 0.58157 0.0
C47 C 0.53363 0.88244 0.60692 0.0
O48 O 0.53528 0.86837 0.615 0.0
C49 C 0.56134 0.86383 0.57687 0.0
O50 O 0.54956 0.86866 0.56836 0.0
O51 O 0.58468 0.90501 0.62864 0.0
C52 C 0.66499 0.59009 0.0662 0.0
O53 O 0.6641 0.57446 0.05883 0.0
O54 O 0.68919 0.56975 0.09673 0.0
Zn55 Zn 0.66668 0.57307 0.10359 0.0
O56 O 0.64221 0.54776 0.10088 0.0
C57 C 0.68491 0.59282 0.14091 0.0
O58 O 0.70077 0.59958 0.13015 0.0
O59 O 0.66619 0.59272 0.0853 0.0
C60 C 0.63988 0.53419 0.11263 0.0
O61 O 0.65347 0.5373 0.12575 0.0
C62 C 0.68796 0.55651 0.08513 0.0
O63 O 0.67134 0.54443 0.07682 0.0
O64 O 0.66886 0.58161 0.13254 0.0
C65 C 0.07256 0.66032 0.56444 0.0
O66 O 0.08455 0.65452 0.5589 0.0
O67 O 0.12077 0.69325 0.58995 0.0
Zn68 Zn 0.09609 0.67054 0.59933 0.0
O69 O 0.09781 0.6465 0.59723 0.0
C70 C 0.10109 0.6896 0.63813 0.0
O71 O 0.11434 0.70468 0.62833 0.0
O72 O 0.07453 0.66798 0.58182 0.0
C73 C 0.11024 0.64484 0.60759 0.0
O74 O 0.12202 0.65911 0.61941 0.0
C75 C 0.13188 0.69226 0.57686 0.0
O76 O 0.12727 0.67558 0.56867 0.0
O77 O 0.09128 0.67383 0.62864 0.0
C78 C 0.91558 0.58339 0.43152 0.0
O79 O 0.90395 0.56503 0.43515 0.0
O80 O 0.87083 0.56642 0.39785 0.0
Zn81 Zn 0.89767 0.57171 0.39305 0.0
O82 O 0.89792 0.54685 0.39466 0.0
C83 C 0.89814 0.59015 0.35511 0.0
O84 O 0.88477 0.59242 0.36402 0.0
O85 O 0.91547 0.59005 0.41404 0.0
C86 C 0.89221 0.53549 0.37953 0.0
O87 O 0.88624 0.54026 0.36312 0.0
C88 C 0.85882 0.5528 0.40905 0.0
O89 O 0.86404 0.54167 0.41837 0.0
O90 O 0.90614 0.58243 0.36495 0.0
C91 C 0.31844 0.93384 0.91989 0.0
O92 O 0.30199 0.91758 0.91983 0.0
O93 O 0.30787 0.88881 0.9005 0.0
Zn94 Zn 0.33046 0.91394 0.89196 0.0
O95 O 0.3546 0.91263 0.8955 0.0
C96 C 0.31199 0.91479 0.85454 0.0
O97 O 0.29665 0.90837 0.8661 0.0
O98 O 0.33222 0.93547 0.90894 0.0
C99 C 0.35642 0.89998 0.88576 0.0
O100 O 0.34244 0.88811 0.87371 0.0
C101 C 0.30883 0.87914 0.91529 0.0
O102 O 0.32503 0.88575 0.9254 0.0
O103 O 0.32789 0.91846 0.86249 0.0
C104 C 0.38199 0.31729 0.41763 0.0
O105 O 0.38197 0.30092 0.4181 0.0
O106 O 0.41651 0.3068 0.39831 0.0
Zn107 Zn 0.41295 0.3285 0.38862 0.0
O108 O 0.43821 0.35308 0.39047 0.0
C109 C 0.39994 0.30892 0.34995 0.0
O110 O 0.40017 0.29475 0.35966 0.0
O111 O 0.3937 0.3307 0.40602 0.0
C112 C 0.45242 0.35478 0.38031 0.0
O113 O 0.45015 0.3404 0.36881 0.0
C114 C 0.42824 0.30869 0.4123 0.0
O115 O 0.43853 0.32547 0.42117 0.0
O116 O 0.40444 0.32442 0.35941 0.0
C117 C 0.07109 0.39406 0.92101 0.0
O118 O 0.08764 0.39446 0.92107 0.0
O119 O 0.11522 0.42798 0.89929 0.0
Zn120 Zn 0.08987 0.42563 0.89234 0.0
O121 O 0.09125 0.45111 0.89615 0.0
C122 C 0.0843 0.40289 0.8567 0.0
O123 O 0.08836 0.39277 0.86939 0.0
O124 O 0.06901 0.4059 0.91 0.0
C125 C 0.09936 0.4642 0.88281 0.0
O126 O 0.10686 0.46083 0.86666 0.0
C127 C 0.12639 0.43934 0.91285 0.0
O128 O 0.12137 0.45026 0.92296 0.0
O129 O 0.08389 0.41756 0.86323 0.0
C130 C 0.67401 0.07582 0.42422 0.0
O131 O 0.69137 0.09095 0.42429 0.0
O132 O 0.6894 0.12175 0.40325 0.0
Zn133 Zn 0.66625 0.09734 0.39408 0.0
O134 O 0.64316 0.1008 0.39373 0.0
C135 C 0.68123 0.10518 0.35372 0.0
O136 O 0.68886 0.12294 0.36039 0.0
O137 O 0.66125 0.07553 0.41258 0.0
C138 C 0.62909 0.09041 0.38211 0.0
O139 O 0.62985 0.07738 0.37069 0.0
C140 C 0.68869 0.13422 0.41452 0.0
O141 O 0.67201 0.13097 0.42153 0.0
O142 O 0.67093 0.09138 0.36568 0.0
C143 C 0.59776 0.67649 0.92881 0.0
O144 O 0.59494 0.6911 0.93147 0.0
O145 O 0.56605 0.68807 0.90342 0.0
Zn146 Zn 0.56822 0.66471 0.89771 0.0
O147 O 0.54272 0.64087 0.90218 0.0
C148 C 0.58777 0.68099 0.8601 0.0
O149 O 0.59668 0.69668 0.87116 0.0
O150 O 0.58816 0.66394 0.91536 0.0
C151 C 0.52848 0.63836 0.89147 0.0
O152 O 0.53087 0.6516 0.87818 0.0
C153 C 0.55494 0.68867 0.91678 0.0
O154 O 0.54433 0.67339 0.92796 0.0
O155 O 0.57529 0.66542 0.86843 0.0
C156 C 0.59083 0.9231 0.92951 0.0
O157 O 0.57657 0.90758 0.93769 0.0
O158 O 0.56774 0.87864 0.90044 0.0
Zn159 Zn 0.57038 0.90423 0.89369 0.0
O160 O 0.54548 0.90373 0.89873 0.0
C161 C 0.59262 0.91404 0.8563 0.0
O162 O 0.60699 0.9172 0.8683 0.0
O163 O 0.59144 0.92503 0.91032 0.0
C164 C 0.53087 0.89208 0.88841 0.0
O165 O 0.53254 0.88062 0.87534 0.0
C166 C 0.55536 0.86656 0.91269 0.0
O167 O 0.54353 0.8708 0.92212 0.0
O168 O 0.57625 0.90892 0.86398 0.0
C169 C 0.65889 0.58465 0.43198 0.0
O170 O 0.65407 0.5671 0.4376 0.0
O171 O 0.68291 0.56463 0.39901 0.0
Zn172 Zn 0.66135 0.56979 0.39361 0.0
O173 O 0.63608 0.5452 0.39568 0.0
C174 C 0.68044 0.59082 0.35745 0.0
O175 O 0.69592 0.5966 0.36866 0.0
O176 O 0.66263 0.58931 0.4134 0.0
C177 C 0.6334 0.53148 0.38399 0.0
O178 O 0.6472 0.53398 0.37144 0.0
C179 C 0.68161 0.55128 0.41045 0.0
O180 O 0.66533 0.53998 0.41981 0.0
O181 O 0.66405 0.57969 0.36517 0.0
C182 C 0.07956 0.6731 0.93179 0.0
O183 O 0.09487 0.67389 0.93997 0.0
O184 O 0.12527 0.70056 0.90592 0.0
Zn185 Zn 0.10109 0.67743 0.89621 0.0
O186 O 0.10298 0.65349 0.89891 0.0
C187 C 0.11092 0.68474 0.85466 0.0
O188 O 0.12682 0.68615 0.86191 0.0
O189 O 0.07881 0.67443 0.91262 0.0
C190 C 0.09157 0.63876 0.88861 0.0
O191 O 0.07889 0.63963 0.8767 0.0
C192 C 0.13776 0.6997 0.91704 0.0
O193 O 0.13499 0.68285 0.92287 0.0
O194 O 0.09724 0.68116 0.86681 0.0
C195 C 0.41382 0.08218 0.4299 0.0
O196 O 0.43155 0.0958 0.43363 0.0
O197 O 0.4258 0.12691 0.40014 0.0
Zn198 Zn 0.42343 0.10166 0.39243 0.0
O199 O 0.44928 0.10345 0.3928 0.0
C200 C 0.40024 0.09826 0.35716 0.0
O201 O 0.39412 0.10753 0.36858 0.0
O202 O 0.40653 0.08164 0.41261 0.0
C203 C 0.46051 0.10935 0.37758 0.0
O204 O 0.45533 0.11491 0.36115 0.0
C205 C 0.4396 0.13955 0.41069 0.0
O206 O 0.45335 0.13637 0.41674 0.0
O207 O 0.41236 0.09406 0.36438 0.0
C208 C 0.3192 0.39822 0.92979 0.0
O209 O 0.31603 0.41128 0.93805 0.0
O210 O 0.30003 0.42277 0.90094 0.0
Zn211 Zn 0.32282 0.41991 0.89399 0.0
O212 O 0.34732 0.44484 0.89874 0.0
C213 C 0.30647 0.40022 0.85613 0.0
O214 O 0.29095 0.39026 0.8672 0.0
O215 O 0.32249 0.39897 0.91084 0.0
C216 C 0.35065 0.45909 0.88757 0.0
O217 O 0.33794 0.45697 0.87372 0.0
C218 C 0.30098 0.43563 0.91293 0.0
O219 O 0.3175 0.44773 0.9214 0.0
O220 O 0.32166 0.41332 0.86449 0.0
C221 C 0.91973 0.32277 0.42889 0.0
O222 O 0.90139 0.31318 0.4336 0.0
O223 O 0.87917 0.30853 0.39738 0.0
Zn224 Zn 0.90571 0.33052 0.39164 0.0
O225 O 0.90561 0.35543 0.39313 0.0
C226 C 0.90731 0.31143 0.35513 0.0
O227 O 0.89671 0.29581 0.36583 0.0
O228 O 0.92483 0.33104 0.4117 0.0
C229 C 0.89365 0.35753 0.38237 0.0
O230 O 0.88158 0.34327 0.37073 0.0
C231 C 0.86723 0.30984 0.40899 0.0
O232 O 0.87224 0.32624 0.41812 0.0
O233 O 0.91316 0.32779 0.36328 0.0
C234 C 0.0725 0.39961 0.57051 0.0
O235 O 0.09015 0.4075 0.56352 0.0
O236 O 0.11604 0.42552 0.59819 0.0
Zn237 Zn 0.09093 0.42373 0.60552 0.0
O238 O 0.09291 0.44952 0.60232 0.0
C239 C 0.08594 0.40154 0.64167 0.0
O240 O 0.09081 0.3917 0.62951 0.0
O241 O 0.06956 0.40433 0.58801 0.0
C242 C 0.1051 0.46358 0.61293 0.0
O243 O 0.1162 0.46089 0.62558 0.0
C244 C 0.12771 0.43776 0.58554 0.0
O245 O 0.12327 0.44966 0.57663 0.0
O246 O 0.08497 0.41576 0.63463 0.0
C247 C 0.67846 0.07685 0.06683 0.0
O248 O 0.6937 0.094 0.06492 0.0
O249 O 0.68986 0.12049 0.09066 0.0
Zn250 Zn 0.66782 0.09478 0.09875 0.0
O251 O 0.64314 0.09538 0.09739 0.0
C252 C 0.68343 0.10273 0.13918 0.0
O253 O 0.69329 0.12022 0.13176 0.0
O254 O 0.66593 0.07404 0.08025 0.0
C255 C 0.6411 0.10739 0.10814 0.0
O256 O 0.6554 0.11947 0.11973 0.0
C257 C 0.68908 0.1322 0.07826 0.0
O258 O 0.67283 0.12742 0.06892 0.0
O259 O 0.67168 0.08916 0.12771 0.0
C260 C 0.60718 0.67827 0.57659 0.0
O261 O 0.60871 0.69534 0.5764 0.0
O262 O 0.57326 0.69089 0.59254 0.0
Zn263 Zn 0.57476 0.66828 0.60313 0.0
O264 O 0.54899 0.64436 0.60051 0.0
C265 C 0.58107 0.68471 0.64331 0.0
O266 O 0.57499 0.69551 0.63482 0.0
O267 O 0.59399 0.66486 0.58706 0.0
C268 C 0.5343 0.64319 0.60918 0.0
O269 O 0.53617 0.65792 0.61975 0.0
C270 C 0.5631 0.69005 0.57734 0.0
O271 O 0.55299 0.67366 0.56768 0.0
O272 O 0.58237 0.67223 0.63261 0.0
C273 C 0.91969 0.59651 0.06388 0.0
O274 O 0.90179 0.59043 0.05858 0.0
O275 O 0.87666 0.56822 0.09056 0.0
Zn276 Zn 0.90214 0.57113 0.09821 0.0
O277 O 0.90108 0.54563 0.09618 0.0
C278 C 0.89345 0.57066 0.13964 0.0
O279 O 0.87727 0.55623 0.13279 0.0
O280 O 0.92314 0.59034 0.08022 0.0
C281 C 0.91243 0.54256 0.1069 0.0
O282 O 0.92482 0.55628 0.11887 0.0
C283 C 0.86395 0.5545 0.07999 0.0
O284 O 0.8675 0.54135 0.07272 0.0
O285 O 0.90718 0.57995 0.12725 0.0
C286 C 0.34553 0.92521 0.56737 0.0
O287 O 0.35324 0.91441 0.56389 0.0
O288 O 0.30871 0.87656 0.59387 0.0
Zn289 Zn 0.33201 0.90118 0.60219 0.0
O290 O 0.35542 0.89828 0.60117 0.0
C291 C 0.31288 0.90441 0.63809 0.0
O292 O 0.29765 0.8971 0.62627 0.0
O293 O 0.33546 0.92227 0.58328 0.0
C294 C 0.35573 0.88414 0.60944 0.0
O295 O 0.3403 0.87099 0.61887 0.0
C296 C 0.30901 0.86619 0.57945 0.0
O297 O 0.32514 0.87162 0.56956 0.0
O298 O 0.32887 0.90758 0.63086 0.0
C299 C 0.3909 0.31762 0.06875 0.0
O300 O 0.38553 0.30003 0.07473 0.0
O301 O 0.42616 0.30562 0.08682 0.0
Zn302 Zn 0.42365 0.32829 0.09499 0.0
O303 O 0.44955 0.35215 0.09433 0.0
C304 C 0.40974 0.30989 0.13395 0.0
O305 O 0.41228 0.29643 0.1257 0.0
O306 O 0.40638 0.33157 0.07563 0.0
C307 C 0.46288 0.3538 0.10603 0.0
O308 O 0.45951 0.3396 0.11839 0.0
C309 C 0.43865 0.30627 0.07451 0.0
O310 O 0.45066 0.32263 0.06568 0.0
O311 O 0.41328 0.32464 0.12353 0.0
H312 H 0.37706 0.10789 0.3356 0.0
H313 H 0.3696 0.10298 0.29922 0.0
H314 H 0.40294 0.0746 0.29369 0.0
H315 H 0.41026 0.07919 0.32989 0.0
H316 H 0.39662 0.11781 0.26869 0.0
H317 H 0.35447 0.03855 0.26225 0.0
H318 H 0.35835 0.05093 0.28624 0.0
H319 H 0.37655 0.04655 0.27585 0.0
C320 C 0.38254 0.10032 0.32669 0.0
C321 C 0.39428 0.09395 0.33563 0.0
C322 C 0.37825 0.09753 0.30593 0.0
C323 C 0.38546 0.08816 0.29384 0.0
C324 C 0.39683 0.08144 0.30283 0.0
H325 H 0.412 0.07604 0.17285 0.0
H326 H 0.40531 0.07462 0.20921 0.0
C327 C 0.40114 0.08423 0.32352 0.0
C328 C 0.38281 0.08701 0.27151 0.0
H329 H 0.36967 0.0559 0.23147 0.0
C330 C 0.39036 0.10426 0.26052 0.0
C331 C 0.37463 0.06931 0.26094 0.0
C332 C 0.36536 0.05028 0.27195 0.0
C333 C 0.39102 0.10437 0.23921 0.0
C334 C 0.38368 0.08672 0.22868 0.0
C335 C 0.37534 0.0694 0.23963 0.0
C336 C 0.38613 0.0861 0.20647 0.0
C337 C 0.40054 0.12341 0.22819 0.0
C338 C 0.37718 0.09262 0.19287 0.0
C339 C 0.381 0.09351 0.17204 0.0
C340 C 0.39381 0.08784 0.16451 0.0
C341 C 0.40215 0.08062 0.17814 0.0
C342 C 0.39831 0.07974 0.19892 0.0
H343 H 0.40836 0.13576 0.23873 0.0
H344 H 0.41083 0.12383 0.21664 0.0
H345 H 0.38942 0.12526 0.22016 0.0
H346 H 0.36751 0.09734 0.19842 0.0
H347 H 0.37425 0.09902 0.16192 0.0
H348 H 0.2794 0.3792 0.66118 0.0
H349 H 0.27699 0.3753 0.69822 0.0
H350 H 0.33754 0.41615 0.70386 0.0
H351 H 0.34011 0.42026 0.66702 0.0
H352 H 0.29854 0.36525 0.72724 0.0
H353 H 0.30961 0.43875 0.7379 0.0
H354 H 0.30302 0.42645 0.71372 0.0
H355 H 0.32748 0.43766 0.72244 0.0
C356 C 0.29223 0.38722 0.67029 0.0
C357 C 0.3099 0.40021 0.66118 0.0
C358 C 0.29083 0.38495 0.69142 0.0
C359 C 0.30703 0.39567 0.70369 0.0
C360 C 0.32482 0.40798 0.6946 0.0
H361 H 0.33619 0.41841 0.8294 0.0
H362 H 0.33516 0.41523 0.79248 0.0
C363 C 0.32626 0.41027 0.67355 0.0
C364 C 0.30531 0.39478 0.72607 0.0
H365 H 0.31083 0.42257 0.76754 0.0
C366 C 0.30105 0.37768 0.73612 0.0
C367 C 0.30849 0.41104 0.73747 0.0
C368 C 0.31224 0.42948 0.72737 0.0
C369 C 0.30064 0.37668 0.75746 0.0
C370 C 0.30435 0.39313 0.76884 0.0
C371 C 0.30813 0.41004 0.75873 0.0
C372 C 0.30505 0.39348 0.79129 0.0
C373 C 0.29689 0.3583 0.76768 0.0
C374 C 0.28845 0.38218 0.80284 0.0
C375 C 0.28897 0.38397 0.82402 0.0
C376 C 0.30608 0.39717 0.83392 0.0
C377 C 0.32276 0.40814 0.82227 0.0
C378 C 0.32222 0.40634 0.80117 0.0
H379 H 0.29808 0.34831 0.75688 0.0
H380 H 0.30713 0.36142 0.7804 0.0
H381 H 0.28213 0.35092 0.77408 0.0
H382 H 0.27498 0.37241 0.79544 0.0
H383 H 0.27587 0.37535 0.83256 0.0
H384 H 0.92834 0.3384 0.16385 0.0
H385 H 0.9316 0.33763 0.20068 0.0
H386 H 0.89627 0.27581 0.20007 0.0
H387 H 0.8931 0.27639 0.16311 0.0
H388 H 0.89998 0.32314 0.2267 0.0
H389 H 0.94114 0.28508 0.23763 0.0
H390 H 0.94054 0.29577 0.21367 0.0
H391 H 0.92049 0.27311 0.22132 0.0
C392 C 0.9215 0.32459 0.17147 0.0
C393 C 0.91037 0.30745 0.16056 0.0
C394 C 0.9234 0.32419 0.19252 0.0
C395 C 0.91432 0.30666 0.20305 0.0
C396 C 0.90369 0.28946 0.19217 0.0
H397 H 0.89265 0.27909 0.33142 0.0
H398 H 0.89541 0.27762 0.29446 0.0
C399 C 0.9018 0.28983 0.17107 0.0
C400 C 0.91443 0.30666 0.22553 0.0
H401 H 0.92794 0.29099 0.26727 0.0
C402 C 0.9062 0.31621 0.23557 0.0
C403 C 0.92237 0.29743 0.237 0.0
C404 C 0.93179 0.28738 0.22691 0.0
C405 C 0.90557 0.31669 0.25682 0.0
C406 C 0.91373 0.30769 0.26834 0.0
C407 C 0.9218 0.29795 0.25834 0.0
C408 C 0.9139 0.30832 0.29079 0.0
C409 C 0.89586 0.32654 0.26678 0.0
C410 C 0.9239 0.326 0.30094 0.0
C411 C 0.92229 0.32693 0.32198 0.0
C412 C 0.91075 0.31013 0.33326 0.0
C413 C 0.90158 0.2923 0.32316 0.0
C414 C 0.90316 0.29141 0.30206 0.0
H415 H 0.88628 0.32847 0.25603 0.0
H416 H 0.88723 0.31822 0.28011 0.0
H417 H 0.90697 0.34099 0.27216 0.0
H418 H 0.93254 0.33917 0.2925 0.0
H419 H 0.92971 0.34087 0.32932 0.0
H420 H 0.56813 0.86638 0.67305 0.0
H421 H 0.57519 0.8739 0.70907 0.0
H422 H 0.61321 0.9336 0.69424 0.0
H423 H 0.60575 0.92629 0.65813 0.0
H424 H 0.60814 0.88942 0.73129 0.0
H425 H 0.57618 0.93688 0.73349 0.0
H426 H 0.57339 0.9218 0.71196 0.0
H427 H 0.59551 0.94405 0.71568 0.0
C428 C 0.57807 0.8811 0.67741 0.0
C429 C 0.5862 0.89578 0.66276 0.0
C430 C 0.58212 0.88537 0.69801 0.0
C431 C 0.59444 0.90437 0.70435 0.0
C432 C 0.60329 0.91893 0.68971 0.0
H433 H 0.62564 0.92557 0.83427 0.0
H434 H 0.62871 0.92559 0.79718 0.0
C435 C 0.59909 0.9147 0.66908 0.0
C436 C 0.59736 0.90883 0.72636 0.0
H437 H 0.58917 0.9331 0.76403 0.0
C438 C 0.60415 0.89909 0.73847 0.0
C439 C 0.59197 0.92133 0.73565 0.0
C440 C 0.58369 0.93151 0.7236 0.0
C441 C 0.60519 0.90108 0.7597 0.0
C442 C 0.59972 0.91352 0.76898 0.0
C443 C 0.59348 0.9237 0.75682 0.0
C444 C 0.59847 0.9147 0.79135 0.0
C445 C 0.61124 0.88914 0.77205 0.0
C446 C 0.58061 0.90924 0.80029 0.0
C447 C 0.57886 0.90944 0.82135 0.0
C448 C 0.59494 0.91508 0.83395 0.0
C449 C 0.61295 0.92102 0.82497 0.0
C450 C 0.61471 0.92093 0.80381 0.0
H451 H 0.61099 0.87738 0.76292 0.0
H452 H 0.62612 0.89848 0.77766 0.0
H453 H 0.6017 0.88272 0.78543 0.0
H454 H 0.5679 0.90443 0.79094 0.0
H455 H 0.56478 0.90481 0.82774 0.0
H456 H 0.65127 0.5818 0.33055 0.0
H457 H 0.65373 0.58611 0.29372 0.0
H458 H 0.71552 0.61423 0.29771 0.0
H459 H 0.71327 0.61017 0.33472 0.0
H460 H 0.70035 0.63147 0.26932 0.0
H461 H 0.66921 0.55273 0.25895 0.0
H462 H 0.65512 0.55936 0.2746 0.0
H463 H 0.67852 0.56456 0.28303 0.0
C464 C 0.66541 0.5891 0.32367 0.0
C465 C 0.68207 0.59543 0.33553 0.0
C466 C 0.66677 0.59151 0.30262 0.0
C467 C 0.68477 0.60018 0.29306 0.0
C468 C 0.70149 0.60742 0.30488 0.0
H469 H 0.71684 0.6127 0.16486 0.0
H470 H 0.71776 0.61647 0.20187 0.0
C471 C 0.70017 0.60505 0.32599 0.0
C472 C 0.68596 0.60055 0.27065 0.0
H473 H 0.67305 0.57103 0.22931 0.0
C474 C 0.69449 0.61831 0.26051 0.0
C475 C 0.67843 0.58332 0.25932 0.0
C476 C 0.66995 0.5639 0.26949 0.0
C477 C 0.69508 0.61921 0.23916 0.0
C478 C 0.68715 0.60193 0.22786 0.0
C479 C 0.67897 0.58424 0.23806 0.0
C480 C 0.68684 0.60163 0.2054 0.0
C481 C 0.70367 0.63855 0.22886 0.0
C482 C 0.66916 0.59203 0.1952 0.0
C483 C 0.66857 0.58971 0.17416 0.0
C484 C 0.68569 0.5969 0.16291 0.0
C485 C 0.70341 0.60704 0.17309 0.0
C486 C 0.70397 0.60931 0.19421 0.0
H487 H 0.7053 0.65002 0.23951 0.0
H488 H 0.71813 0.64253 0.22292 0.0
H489 H 0.69465 0.63802 0.21581 0.0
H490 H 0.65578 0.58593 0.20361 0.0
H491 H 0.65468 0.58189 0.16679 0.0
H492 H 0.07453 0.66136 0.66271 0.0
H493 H 0.07309 0.66141 0.69981 0.0
H494 H 0.12163 0.71912 0.70105 0.0
H495 H 0.12298 0.71936 0.66394 0.0
H496 H 0.10172 0.66486 0.72459 0.0
H497 H 0.08521 0.7227 0.74144 0.0
H498 H 0.08194 0.71207 0.71651 0.0
H499 H 0.10544 0.73028 0.72479 0.0
C500 C 0.08471 0.6742 0.67085 0.0
C501 C 0.09892 0.69035 0.66038 0.0
C502 C 0.08385 0.67419 0.69205 0.0
C503 C 0.09713 0.69033 0.70317 0.0
C504 C 0.11099 0.70666 0.69275 0.0
H505 H 0.13741 0.69235 0.82484 0.0
H506 H 0.13327 0.69376 0.78821 0.0
C507 C 0.11181 0.70672 0.67153 0.0
C508 C 0.09761 0.68939 0.72561 0.0
H509 H 0.0968 0.71203 0.76923 0.0
C510 C 0.10047 0.67507 0.73436 0.0
C511 C 0.0958 0.70261 0.73831 0.0
C512 C 0.09174 0.71767 0.72982 0.0
C513 C 0.10208 0.67391 0.75545 0.0
C514 C 0.10116 0.68767 0.76809 0.0
C515 C 0.09774 0.70166 0.75944 0.0
C516 C 0.10391 0.68781 0.79031 0.0
C517 C 0.10466 0.65791 0.76403 0.0
C518 C 0.08896 0.68459 0.80362 0.0
C519 C 0.0913 0.68386 0.8246 0.0
C520 C 0.10868 0.68643 0.83258 0.0
C521 C 0.1238 0.69017 0.81919 0.0
C522 C 0.12145 0.6909 0.79825 0.0
H523 H 0.10002 0.64585 0.75308 0.0
H524 H 0.1201 0.66357 0.76747 0.0
H525 H 0.0964 0.65223 0.77835 0.0
H526 H 0.07536 0.68227 0.79775 0.0
H527 H 0.0794 0.68102 0.83452 0.0
H528 H 0.86614 0.55471 0.16919 0.0
H529 H 0.86982 0.56212 0.20544 0.0
H530 H 0.92931 0.60491 0.19597 0.0
H531 H 0.9257 0.59779 0.1595 0.0
H532 H 0.89482 0.55841 0.2314 0.0
H533 H 0.9089 0.63361 0.23043 0.0
H534 H 0.899 0.61766 0.20888 0.0
H535 H 0.92427 0.62904 0.21433 0.0
C536 C 0.87998 0.56581 0.17475 0.0
C537 C 0.89564 0.57566 0.16147 0.0
C538 C 0.88205 0.57003 0.19547 0.0
C539 C 0.89977 0.5842 0.20333 0.0
C540 C 0.91542 0.59418 0.19014 0.0
H541 H 0.9256 0.58818 0.33243 0.0
H542 H 0.92833 0.58918 0.29538 0.0
C543 C 0.91335 0.59 0.16934 0.0
C544 C 0.90197 0.58762 0.22552 0.0
H545 H 0.91141 0.62124 0.2623 0.0
C546 C 0.8985 0.57216 0.23817 0.0
C547 C 0.90663 0.60555 0.23423 0.0
C548 C 0.90977 0.6224 0.22132 0.0
C549 C 0.89941 0.57405 0.25937 0.0
C550 C 0.90434 0.59204 0.26812 0.0
C551 C 0.90787 0.60756 0.25549 0.0
C552 C 0.9048 0.59454 0.29042 0.0
C553 C 0.8945 0.5566 0.27221 0.0
C554 C 0.89134 0.59827 0.29986 0.0
C555 C 0.88984 0.59788 0.32103 0.0
C556 C 0.90176 0.59371 0.33307 0.0
C557 C 0.91605 0.59121 0.32357 0.0
C558 C 0.91761 0.59171 0.30242 0.0
H559 H 0.88682 0.54304 0.26332 0.0
H560 H 0.90795 0.55774 0.27819 0.0
H561 H 0.88538 0.55564 0.28536 0.0
H562 H 0.8814 0.60058 0.29082 0.0
H563 H 0.87875 0.59996 0.32788 0.0
H564 H 0.34099 0.92713 0.82679 0.0
H565 H 0.33839 0.92678 0.78983 0.0
H566 H 0.27741 0.90507 0.79466 0.0
H567 H 0.27984 0.90546 0.83183 0.0
H568 H 0.31416 0.89209 0.76768 0.0
H569 H 0.29658 0.94981 0.7524 0.0
H570 H 0.30761 0.94857 0.77587 0.0
H571 H 0.28254 0.93225 0.77145 0.0
C572 C 0.32704 0.92251 0.82006 0.0
C573 C 0.3106 0.91623 0.83226 0.0
C574 C 0.3256 0.92234 0.79893 0.0
C575 C 0.30775 0.91602 0.78958 0.0
C576 C 0.29136 0.91026 0.80164 0.0
H577 H 0.28048 0.89653 0.65959 0.0
H578 H 0.2778 0.8993 0.69644 0.0
C579 C 0.29278 0.9104 0.82286 0.0
C580 C 0.30624 0.91405 0.76722 0.0
H581 H 0.29814 0.93255 0.72405 0.0
C582 C 0.3106 0.90089 0.75813 0.0
C583 C 0.30138 0.92541 0.7549 0.0
C584 C 0.29686 0.93992 0.76404 0.0
C585 C 0.31056 0.899 0.73697 0.0
C586 C 0.30639 0.91084 0.7246 0.0
C587 C 0.30142 0.92359 0.73365 0.0
C588 C 0.30809 0.91071 0.70225 0.0
C589 C 0.31506 0.88439 0.72801 0.0
C590 C 0.32608 0.91671 0.69339 0.0
C591 C 0.32768 0.91514 0.67247 0.0
C592 C 0.31128 0.90759 0.65998 0.0
C593 C 0.29336 0.90232 0.66881 0.0
C594 C 0.29179 0.90391 0.68982 0.0
H595 H 0.31302 0.87322 0.73929 0.0
H596 H 0.30585 0.87721 0.71457 0.0
H597 H 0.33029 0.89179 0.72299 0.0
H598 H 0.33887 0.92227 0.70276 0.0
H599 H 0.34172 0.91949 0.66616 0.0
H600 H 0.39672 0.33483 0.32572 0.0
H601 H 0.39336 0.3339 0.28875 0.0
H602 H 0.39195 0.2795 0.28714 0.0
H603 H 0.39493 0.28011 0.32412 0.0
H604 H 0.41941 0.33374 0.26234 0.0
H605 H 0.34795 0.2694 0.24931 0.0
H606 H 0.35547 0.28072 0.27392 0.0
H607 H 0.36335 0.2646 0.26499 0.0
C608 C 0.39539 0.32251 0.31754 0.0
C609 C 0.39613 0.30755 0.32785 0.0
C610 C 0.39345 0.322 0.29642 0.0
C611 C 0.39216 0.30652 0.28523 0.0
C612 C 0.39246 0.29136 0.29551 0.0
H613 H 0.4047 0.28214 0.16128 0.0
H614 H 0.39882 0.28165 0.19778 0.0
C615 C 0.3943 0.2918 0.31665 0.0
C616 C 0.39239 0.30712 0.26274 0.0
H617 H 0.36875 0.28173 0.22036 0.0
C618 C 0.4082 0.32252 0.25314 0.0
C619 C 0.37779 0.29239 0.25082 0.0
C620 C 0.36009 0.27594 0.26027 0.0
C621 C 0.41016 0.32327 0.23194 0.0
C622 C 0.39574 0.30837 0.22003 0.0
C623 C 0.37975 0.29313 0.22958 0.0
C624 C 0.39756 0.30794 0.19769 0.0
C625 C 0.42802 0.33961 0.22253 0.0
C626 C 0.3983 0.32264 0.18552 0.0
C627 C 0.40177 0.32304 0.16466 0.0
C628 C 0.40441 0.30864 0.15564 0.0
C629 C 0.40281 0.29349 0.16776 0.0
C630 C 0.39941 0.29315 0.18862 0.0
H631 H 0.43954 0.34744 0.23396 0.0
H632 H 0.43372 0.33426 0.21035 0.0
H633 H 0.42441 0.35002 0.21563 0.0
H634 H 0.39655 0.33399 0.19222 0.0
H635 H 0.40274 0.33481 0.15571 0.0
H636 H 0.08943 0.37392 0.6626 0.0
H637 H 0.08515 0.36739 0.69921 0.0
H638 H 0.07062 0.41199 0.70662 0.0
H639 H 0.07466 0.41849 0.67023 0.0
H640 H 0.10589 0.39374 0.72968 0.0
H641 H 0.0281 0.36729 0.73846 0.0
H642 H 0.03899 0.36827 0.71412 0.0
H643 H 0.04021 0.38954 0.72469 0.0
C644 C 0.08509 0.38217 0.672 0.0
C645 C 0.08238 0.39672 0.66352 0.0
C646 C 0.08264 0.3784 0.69288 0.0
C647 C 0.07725 0.38898 0.70553 0.0
C648 C 0.07433 0.40334 0.69705 0.0
H649 H 0.07567 0.42093 0.82685 0.0
H650 H 0.07269 0.41416 0.79046 0.0
C651 C 0.0768 0.40714 0.67625 0.0
C652 C 0.07619 0.38628 0.72782 0.0
H653 H 0.04739 0.3795 0.76876 0.0
C654 C 0.09301 0.39023 0.73826 0.0
C655 C 0.05934 0.38165 0.7389 0.0
C656 C 0.04058 0.37625 0.72845 0.0
C657 C 0.09377 0.39091 0.75957 0.0
C658 C 0.07718 0.38725 0.77062 0.0
C659 C 0.0601 0.38237 0.7602 0.0
C660 C 0.07779 0.39021 0.79284 0.0
C661 C 0.11259 0.39659 0.77006 0.0
C662 C 0.0813 0.37872 0.80624 0.0
C663 C 0.08306 0.38257 0.82711 0.0
C664 C 0.08129 0.39795 0.83486 0.0
C665 C 0.0772 0.40904 0.82139 0.0
C666 C 0.07544 0.40517 0.80059 0.0
H667 H 0.12479 0.40202 0.75918 0.0
H668 H 0.11585 0.4079 0.78163 0.0
H669 H 0.11151 0.3839 0.77799 0.0
H670 H 0.08288 0.36693 0.80054 0.0
H671 H 0.0861 0.3737 0.8371 0.0
H672 H 0.66357 0.07069 0.33362 0.0
H673 H 0.66566 0.06516 0.29732 0.0
H674 H 0.70583 0.1256 0.28897 0.0
H675 H 0.70396 0.13126 0.32512 0.0
H676 H 0.65563 0.08263 0.26648 0.0
H677 H 0.73114 0.0997 0.25793 0.0
H678 H 0.71904 0.09422 0.28223 0.0
H679 H 0.72889 0.11789 0.27146 0.0
C680 C 0.67308 0.08275 0.32411 0.0
C681 C 0.68358 0.10143 0.33222 0.0
C682 C 0.67425 0.07956 0.3034 0.0
C683 C 0.6861 0.09492 0.29056 0.0
C684 C 0.69692 0.11348 0.29871 0.0
H685 H 0.7054 0.12918 0.16783 0.0
H686 H 0.70589 0.12422 0.20435 0.0
C687 C 0.6957 0.11671 0.31936 0.0
C688 C 0.68582 0.09207 0.26834 0.0
H689 H 0.7151 0.10057 0.22742 0.0
C690 C 0.66852 0.08617 0.25791 0.0
C691 C 0.70269 0.09673 0.25729 0.0
C692 C 0.72146 0.10231 0.26781 0.0
C693 C 0.66788 0.08593 0.2366 0.0
C694 C 0.68494 0.09136 0.22552 0.0
C695 C 0.70206 0.09643 0.23598 0.0
C696 C 0.68567 0.09364 0.20317 0.0
C697 C 0.6492 0.08095 0.22617 0.0
C698 C 0.67447 0.07798 0.19035 0.0
C699 C 0.67404 0.08078 0.16942 0.0
C700 C 0.68494 0.09929 0.161 0.0
C701 C 0.69676 0.11476 0.17382 0.0
C702 C 0.69711 0.11195 0.1947 0.0
H703 H 0.63846 0.08079 0.23693 0.0
H704 H 0.65166 0.09138 0.21383 0.0
H705 H 0.64298 0.06644 0.21925 0.0
H706 H 0.66581 0.06366 0.19658 0.0
H707 H 0.66492 0.06854 0.15992 0.0
H708 H 0.59339 0.66424 0.66573 0.0
H709 H 0.59756 0.66494 0.70263 0.0
H710 H 0.58222 0.70913 0.70764 0.0
H711 H 0.57789 0.70849 0.67079 0.0
H712 H 0.62126 0.69648 0.73018 0.0
H713 H 0.54271 0.66386 0.74367 0.0
H714 H 0.55255 0.6635 0.7191 0.0
H715 H 0.55336 0.68504 0.728 0.0
C716 C 0.59103 0.67421 0.67465 0.0
C717 C 0.58511 0.68617 0.66536 0.0
C718 C 0.59348 0.67462 0.6957 0.0
C719 C 0.58996 0.68691 0.70779 0.0
C720 C 0.58475 0.69937 0.69853 0.0
H721 H 0.61031 0.71255 0.83663 0.0
H722 H 0.61248 0.71399 0.7995 0.0
C723 C 0.58233 0.699 0.67748 0.0
C724 C 0.5908 0.68602 0.73016 0.0
H725 H 0.56279 0.67382 0.77263 0.0
C726 C 0.60852 0.69153 0.73952 0.0
C727 C 0.57407 0.6793 0.74217 0.0
C728 C 0.55454 0.67242 0.73278 0.0
C729 C 0.60996 0.69073 0.76074 0.0
C730 C 0.59328 0.68442 0.77276 0.0
C731 C 0.57556 0.67873 0.76334 0.0
C732 C 0.59367 0.6834 0.79518 0.0
C733 C 0.62921 0.69634 0.77009 0.0
C734 C 0.58237 0.66573 0.805 0.0
C735 C 0.58098 0.66487 0.82616 0.0
C736 C 0.59082 0.68171 0.83789 0.0
C737 C 0.60261 0.69932 0.82803 0.0
C738 C 0.60395 0.70017 0.80682 0.0
H739 H 0.63942 0.69635 0.7587 0.0
H740 H 0.63555 0.71106 0.7765 0.0
H741 H 0.62761 0.6864 0.78265 0.0
H742 H 0.57428 0.65265 0.79625 0.0
H743 H 0.57182 0.65107 0.83327 0.0
H744 H 0.46512 0.1583 0.06271 0.0
H745 H 0.46943 0.19041 0.05682 0.0
H746 H 0.42447 0.1785 0.10006 0.0
H747 H 0.42008 0.14659 0.1061 0.0
H748 H 0.44061 0.20026 0.04394 0.0
H749 H 0.47143 0.22965 0.11977 0.0
H750 H 0.47074 0.2085 0.10931 0.0
H751 H 0.44965 0.20678 0.12089 0.0
C752 C 0.45618 0.16254 0.07098 0.0
C753 C 0.44234 0.14995 0.08496 0.0
C754 C 0.45866 0.18085 0.06757 0.0
C755 C 0.44746 0.18684 0.07823 0.0
C756 C 0.43347 0.17421 0.09195 0.0
H757 H 0.41591 0.27069 0.09067 0.0
H758 H 0.42045 0.24291 0.08876 0.0
C759 C 0.43094 0.15595 0.09531 0.0
C760 C 0.45003 0.20619 0.07509 0.0
H761 H 0.45862 0.24642 0.10117 0.0
C762 C 0.44493 0.21058 0.05626 0.0
C763 C 0.45581 0.21959 0.0912 0.0
C764 C 0.46241 0.21601 0.11138 0.0
C765 C 0.44424 0.22758 0.0536 0.0
C766 C 0.44886 0.24036 0.07014 0.0
C767 C 0.45498 0.23646 0.08857 0.0
C768 C 0.44556 0.25683 0.06946 0.0
C769 C 0.43757 0.23133 0.03358 0.0
C770 C 0.45811 0.27374 0.05899 0.0
C771 C 0.45559 0.28976 0.06007 0.0
C772 C 0.44053 0.28902 0.07169 0.0
C773 C 0.4277 0.2718 0.08164 0.0
C774 C 0.43025 0.25589 0.08058 0.0
H775 H 0.43361 0.21948 0.02251 0.0
H776 H 0.42493 0.23322 0.03605 0.0
H777 H 0.44917 0.24489 0.02689 0.0
H778 H 0.47009 0.2747 0.05045 0.0
H779 H 0.46571 0.30283 0.05225 0.0
H780 H 0.157 0.46338 0.56113 0.0
H781 H 0.18785 0.46503 0.55473 0.0
H782 H 0.17094 0.41593 0.59369 0.0
H783 H 0.14014 0.41404 0.60004 0.0
H784 H 0.21535 0.47008 0.58423 0.0
H785 H 0.19003 0.40179 0.54228 0.0
H786 H 0.1754 0.41286 0.54551 0.0
H787 H 0.17721 0.39865 0.56561 0.0
C788 C 0.15979 0.45283 0.56818 0.0
C789 C 0.14612 0.43856 0.58107 0.0
C790 C 0.1774 0.4538 0.5645 0.0
C791 C 0.18149 0.4404 0.57347 0.0
C792 C 0.16786 0.42613 0.58626 0.0
H793 H 0.27029 0.41736 0.60044 0.0
H794 H 0.24105 0.4189 0.59501 0.0
C795 C 0.15031 0.42517 0.58999 0.0
C796 C 0.20045 0.44192 0.57064 0.0
H797 H 0.22144 0.41559 0.55743 0.0
C798 C 0.21681 0.45836 0.578 0.0
C799 C 0.20223 0.42661 0.56244 0.0
C800 C 0.1853 0.40906 0.55332 0.0
C801 C 0.23476 0.45937 0.57858 0.0
C802 C 0.2363 0.44361 0.57134 0.0
C803 C 0.22013 0.42759 0.56306 0.0
C804 C 0.2541 0.44273 0.57391 0.0
C805 C 0.25167 0.47678 0.58793 0.0
C806 C 0.27106 0.45554 0.56366 0.0
C807 C 0.28788 0.45474 0.56676 0.0
C808 C 0.28792 0.44106 0.58011 0.0
C809 C 0.27078 0.42811 0.5901 0.0
C810 C 0.25404 0.42892 0.58699 0.0
H811 H 0.24731 0.48627 0.59574 0.0
H812 H 0.2591 0.47233 0.59906 0.0
H813 H 0.26213 0.48526 0.57583 0.0
H814 H 0.27129 0.46613 0.5533 0.0
H815 H 0.30082 0.46485 0.55876 0.0
H816 H 0.85091 0.27162 0.10157 0.0
H817 H 0.81844 0.24461 0.09672 0.0
H818 H 0.80583 0.27853 0.05542 0.0
H819 H 0.83847 0.3058 0.0601 0.0
H820 H 0.78289 0.24598 0.10418 0.0
H821 H 0.7906 0.22653 0.02469 0.0
H822 H 0.81121 0.24033 0.04087 0.0
H823 H 0.79839 0.25131 0.03046 0.0
C824 C 0.84131 0.27337 0.09138 0.0
C825 C 0.84728 0.29086 0.0812 0.0
C826 C 0.82276 0.25793 0.08866 0.0
C827 C 0.80986 0.2596 0.07563 0.0
C828 C 0.8157 0.27696 0.06537 0.0
H829 H 0.69294 0.16172 0.05385 0.0
H830 H 0.72092 0.19433 0.05157 0.0
C831 C 0.8343 0.29251 0.06814 0.0
C832 C 0.7902 0.24312 0.07339 0.0
H833 H 0.76176 0.20587 0.04176 0.0
C834 C 0.77812 0.23736 0.09044 0.0
C835 C 0.78404 0.23206 0.05536 0.0
C836 C 0.79668 0.23771 0.03675 0.0
C837 C 0.76033 0.22031 0.09025 0.0
C838 C 0.75468 0.20862 0.07267 0.0
C839 C 0.76623 0.2149 0.0552 0.0
C840 C 0.73802 0.18892 0.0731 0.0
C841 C 0.74795 0.21458 0.10908 0.0
C842 C 0.73869 0.17513 0.08555 0.0
C843 C 0.72291 0.15662 0.08684 0.0
C844 C 0.70611 0.15152 0.07565 0.0
C845 C 0.70565 0.16524 0.06271 0.0
C846 C 0.72157 0.18384 0.06138 0.0
H847 H 0.75157 0.2272 0.11891 0.0
H848 H 0.73246 0.20744 0.10505 0.0
H849 H 0.75038 0.20426 0.11803 0.0
H850 H 0.75141 0.17876 0.09446 0.0
H851 H 0.72382 0.14641 0.09687 0.0
H852 H 0.58417 0.72624 0.59271 0.0
H853 H 0.5819 0.75454 0.58408 0.0
H854 H 0.53827 0.72169 0.53947 0.0
H855 H 0.54033 0.69303 0.54812 0.0
H856 H 0.58648 0.77298 0.54462 0.0
H857 H 0.5136 0.7444 0.57874 0.0
H858 H 0.52855 0.73413 0.5846 0.0
H859 H 0.51707 0.72987 0.56025 0.0
C860 C 0.57412 0.72498 0.581 0.0
C861 C 0.56232 0.70734 0.5712 0.0
C862 C 0.5729 0.7412 0.57604 0.0
C863 C 0.55983 0.74012 0.56128 0.0
C864 C 0.54831 0.7227 0.55106 0.0
H865 H 0.53673 0.83603 0.55034 0.0
H866 H 0.53575 0.80584 0.54167 0.0
C867 C 0.54956 0.7064 0.55599 0.0
C868 C 0.55803 0.75726 0.55739 0.0
H869 H 0.53008 0.77683 0.56911 0.0
C870 C 0.57402 0.77377 0.5496 0.0
C871 C 0.54167 0.75813 0.56376 0.0
C872 C 0.52422 0.74076 0.57241 0.0
C873 C 0.57448 0.79144 0.54901 0.0
C874 C 0.5587 0.79263 0.55678 0.0
C875 C 0.54218 0.77585 0.56326 0.0
C876 C 0.55996 0.81135 0.56068 0.0
C877 C 0.59211 0.80882 0.54067 0.0
C878 C 0.57376 0.82428 0.57437 0.0
C879 C 0.57431 0.8414 0.57942 0.0
C880 C 0.56099 0.84591 0.57093 0.0
C881 C 0.54722 0.83299 0.55709 0.0
C882 C 0.54664 0.81577 0.55209 0.0
H883 H 0.59965 0.80459 0.52944 0.0
H884 H 0.58836 0.81896 0.53331 0.0
H885 H 0.60225 0.81645 0.55332 0.0
H886 H 0.58385 0.8209 0.58156 0.0
H887 H 0.58506 0.85099 0.59017 0.0
H888 H 0.72408 0.57901 0.10028 0.0
H889 H 0.75195 0.5749 0.0958 0.0
H890 H 0.71843 0.52512 0.05812 0.0
H891 H 0.69034 0.52918 0.06236 0.0
H892 H 0.75307 0.54087 0.1069 0.0
H893 H 0.76836 0.55908 0.02472 0.0
H894 H 0.75387 0.56603 0.03951 0.0
H895 H 0.74414 0.5415 0.03168 0.0
C896 C 0.72261 0.56725 0.09091 0.0
C897 C 0.70499 0.55441 0.08168 0.0
C898 C 0.73856 0.56493 0.08838 0.0
C899 C 0.73724 0.54981 0.07652 0.0
C900 C 0.71976 0.53704 0.0671 0.0
H901 H 0.83262 0.5265 0.05951 0.0
H902 H 0.80049 0.52298 0.05728 0.0
C903 C 0.70374 0.53934 0.06962 0.0
C904 C 0.75408 0.54713 0.07494 0.0
H905 H 0.78953 0.55206 0.04262 0.0
C906 C 0.76094 0.54311 0.09281 0.0
C907 C 0.76415 0.5499 0.05648 0.0
C908 C 0.75741 0.55448 0.03697 0.0
C909 C 0.77802 0.54245 0.09286 0.0
C910 C 0.7886 0.54617 0.07464 0.0
C911 C 0.78132 0.54927 0.05654 0.0
C912 C 0.80808 0.54867 0.07467 0.0
C913 C 0.7849 0.53825 0.11252 0.0
C914 C 0.82293 0.5645 0.08475 0.0
C915 C 0.84118 0.56659 0.08602 0.0
C916 C 0.84493 0.55285 0.0772 0.0
C917 C 0.83015 0.53727 0.06652 0.0
C918 C 0.81183 0.53524 0.06521 0.0
H919 H 0.77303 0.531 0.1237 0.0
H920 H 0.79138 0.52904 0.1098 0.0
H921 H 0.7961 0.55198 0.11932 0.0
H922 H 0.8203 0.57513 0.09192 0.0
H923 H 0.85224 0.57881 0.09425 0.0
H924 H 0.27318 0.85231 0.59545 0.0
H925 H 0.24421 0.82194 0.58763 0.0
H926 H 0.2757 0.80858 0.54374 0.0
H927 H 0.30496 0.83905 0.55153 0.0
H928 H 0.22575 0.80797 0.54787 0.0
H929 H 0.25117 0.76186 0.58412 0.0
H930 H 0.26217 0.78724 0.5896 0.0
H931 H 0.26653 0.77941 0.56567 0.0
C932 C 0.274 0.84297 0.5841 0.0
C933 C 0.2914 0.84804 0.57419 0.0
C934 C 0.25741 0.82565 0.57961 0.0
C935 C 0.25792 0.81303 0.56524 0.0
C936 C 0.27514 0.81811 0.55503 0.0
H937 H 0.16052 0.69524 0.55178 0.0
H938 H 0.19133 0.72424 0.54443 0.0
C939 C 0.29179 0.83551 0.55947 0.0
C940 C 0.24034 0.79441 0.56149 0.0
H941 H 0.21914 0.74669 0.57307 0.0
C942 C 0.22435 0.7945 0.55306 0.0
C943 C 0.23869 0.77691 0.56814 0.0
C944 C 0.25547 0.77618 0.57749 0.0
C945 C 0.20644 0.77759 0.55192 0.0
C946 C 0.20447 0.76032 0.5598 0.0
C947 C 0.22073 0.76001 0.5671 0.0
C948 C 0.1854 0.74304 0.56278 0.0
C949 C 0.18969 0.77848 0.54274 0.0
C950 C 0.172 0.74404 0.57564 0.0
C951 C 0.15451 0.72759 0.57991 0.0
C952 C 0.1501 0.70975 0.57149 0.0
C953 C 0.16348 0.70878 0.55845 0.0
C954 C 0.18105 0.72531 0.55422 0.0
H955 H 0.19464 0.79043 0.53158 0.0
H956 H 0.17957 0.76477 0.53504 0.0
H957 H 0.18179 0.78114 0.55497 0.0
H958 H 0.17528 0.75749 0.58281 0.0
H959 H 0.14458 0.72884 0.59007 0.0
H960 H 0.82989 0.52654 0.43346 0.0
H961 H 0.79693 0.52076 0.43607 0.0
H962 H 0.81021 0.5654 0.39193 0.0
H963 H 0.84297 0.57127 0.38916 0.0
H964 H 0.78512 0.5486 0.44651 0.0
H965 H 0.76123 0.51756 0.36958 0.0
H966 H 0.78194 0.51889 0.38199 0.0
H967 H 0.78379 0.53972 0.36959 0.0
C968 C 0.82576 0.53509 0.42428 0.0
C969 C 0.83901 0.54931 0.41104 0.0
C970 C 0.80696 0.53176 0.42581 0.0
C971 C 0.80114 0.54245 0.41395 0.0
C972 C 0.81439 0.55677 0.40093 0.0
H973 H 0.71641 0.57122 0.39173 0.0
H974 H 0.74375 0.56608 0.39458 0.0
C975 C 0.83313 0.56017 0.39946 0.0
C976 C 0.78141 0.53921 0.41534 0.0
H977 H 0.74275 0.52977 0.38586 0.0
C978 C 0.77561 0.54409 0.43343 0.0
C979 C 0.76909 0.5332 0.39826 0.0
C980 C 0.77422 0.52686 0.37881 0.0
C981 C 0.75831 0.54441 0.43441 0.0
C982 C 0.7466 0.53955 0.4169 0.0
C983 C 0.75188 0.5336 0.39921 0.0
C984 C 0.7299 0.54248 0.41586 0.0
C985 C 0.75321 0.55102 0.45369 0.0
C986 C 0.71306 0.53086 0.42692 0.0
C987 C 0.69732 0.53375 0.42532 0.0
C988 C 0.69824 0.54829 0.41263 0.0
C989 C 0.71521 0.55991 0.40166 0.0
C990 C 0.73085 0.55698 0.40323 0.0
H991 H 0.76491 0.5563 0.46517 0.0
H992 H 0.75005 0.56271 0.45029 0.0
H993 H 0.74007 0.53887 0.46041 0.0
H994 H 0.71205 0.51946 0.43658 0.0
H995 H 0.68443 0.52454 0.43392 0.0
H996 H 0.16835 0.70342 0.93923 0.0
H997 H 0.19836 0.73319 0.94688 0.0
H998 H 0.17741 0.76588 0.91477 0.0
H999 H 0.14745 0.73645 0.90733 0.0
H1000 H 0.22408 0.75811 0.91884 0.0
H1001 H 0.19774 0.79656 0.96686 0.0
H1002 H 0.18356 0.77105 0.9619 0.0
H1003 H 0.18419 0.78816 0.94375 0.0
C1004 C 0.17005 0.71698 0.93404 0.0
C1005 C 0.15551 0.71758 0.92268 0.0
C1006 C 0.18718 0.73395 0.93844 0.0
C1007 C 0.18994 0.75175 0.93172 0.0
C1008 C 0.17537 0.75236 0.92057 0.0
H1009 H 0.27247 0.86362 0.90023 0.0
H1010 H 0.24476 0.83222 0.90799 0.0
C1011 C 0.1583 0.73547 0.91618 0.0
C1012 C 0.20858 0.76961 0.93468 0.0
H1013 H 0.22785 0.81648 0.94922 0.0
C1014 C 0.22506 0.77077 0.92593 0.0
C1015 C 0.20979 0.78605 0.94403 0.0
C1016 C 0.1929 0.78535 0.95485 0.0
C1017 C 0.24241 0.78833 0.92497 0.0
C1018 C 0.24321 0.805 0.93309 0.0
C1019 C 0.22708 0.80363 0.94289 0.0
C1020 C 0.25994 0.82428 0.92953 0.0
C1021 C 0.25942 0.78922 0.9142 0.0
C1022 C 0.27754 0.83021 0.93931 0.0
C1023 C 0.29344 0.84822 0.93495 0.0
C1024 C 0.29194 0.86045 0.92067 0.0
C1025 C 0.27414 0.85451 0.91121 0.0
C1026 C 0.25828 0.83661 0.91566 0.0
H1027 H 0.25587 0.77526 0.90711 0.0
H1028 H 0.26475 0.80046 0.90221 0.0
H1029 H 0.27129 0.79322 0.92523 0.0
H1030 H 0.27899 0.82087 0.95016 0.0
H1031 H 0.30695 0.85241 0.94251 0.0
H1032 H 0.46744 0.1704 0.43181 0.0
H1033 H 0.46802 0.20048 0.44003 0.0
H1034 H 0.41353 0.17963 0.40971 0.0
H1035 H 0.41271 0.14963 0.40162 0.0
H1036 H 0.46745 0.22649 0.4124 0.0
H1037 H 0.40484 0.19888 0.46393 0.0
H1038 H 0.41654 0.18527 0.45783 0.0
H1039 H 0.39907 0.18537 0.44072 0.0
C1040 C 0.45551 0.17217 0.42705 0.0
C1041 C 0.44 0.15762 0.41609 0.0
C1042 C 0.45586 0.18933 0.4318 0.0
C1043 C 0.44064 0.19208 0.42583 0.0
C1044 C 0.42518 0.17758 0.41491 0.0
H1045 H 0.40675 0.27162 0.39943 0.0
H1046 H 0.41177 0.2447 0.40684 0.0
C1047 C 0.42483 0.1605 0.41014 0.0
C1048 C 0.44131 0.21056 0.42958 0.0
H1049 H 0.41381 0.22898 0.44692 0.0
C1050 C 0.45601 0.22721 0.42039 0.0
C1051 C 0.42642 0.21143 0.44013 0.0
C1052 C 0.41094 0.1943 0.4514 0.0
C1053 C 0.45538 0.24436 0.42009 0.0
C1054 C 0.43974 0.24479 0.42939 0.0
C1055 C 0.42572 0.22851 0.43971 0.0
C1056 C 0.43639 0.26108 0.42631 0.0
C1057 C 0.47071 0.26151 0.40871 0.0
C1058 C 0.44845 0.27912 0.4351 0.0
C1059 C 0.44561 0.29461 0.43091 0.0
C1060 C 0.43072 0.29223 0.41782 0.0
C1061 C 0.41843 0.27398 0.40947 0.0
C1062 C 0.42122 0.25855 0.41374 0.0
H1063 H 0.48084 0.25818 0.40063 0.0
H1064 H 0.46402 0.26668 0.39746 0.0
H1065 H 0.47907 0.27342 0.41956 0.0
H1066 H 0.46015 0.28125 0.44498 0.0
H1067 H 0.45529 0.30849 0.4376 0.0
H1068 H 0.29805 0.4623 0.93632 0.0
H1069 H 0.26917 0.46456 0.9426 0.0
H1070 H 0.23602 0.41448 0.90519 0.0
H1071 H 0.2646 0.41198 0.89897 0.0
H1072 H 0.24633 0.46909 0.91327 0.0
H1073 H 0.2037 0.40194 0.95707 0.0
H1074 H 0.22933 0.41273 0.95339 0.0
H1075 H 0.21289 0.39805 0.93378 0.0
C1076 C 0.28457 0.45168 0.92957 0.0
C1077 C 0.2836 0.43692 0.91719 0.0
C1078 C 0.26811 0.453 0.93319 0.0
C1079 C 0.25044 0.43949 0.92466 0.0
C1080 C 0.24945 0.42478 0.9123 0.0
H1081 H 0.13937 0.41678 0.89648 0.0
H1082 H 0.17014 0.41849 0.90253 0.0
C1083 C 0.26584 0.42347 0.90864 0.0
C1084 C 0.23313 0.44123 0.92754 0.0
H1085 H 0.18594 0.41537 0.94136 0.0
C1086 C 0.23321 0.45756 0.9198 0.0
C1087 C 0.21611 0.42618 0.93616 0.0
C1088 C 0.21551 0.40882 0.94576 0.0
C1089 C 0.21631 0.45864 0.91921 0.0
C1090 C 0.19906 0.44308 0.92677 0.0
C1091 C 0.19922 0.42722 0.93549 0.0
C1092 C 0.18036 0.44208 0.92389 0.0
C1093 C 0.21675 0.47587 0.90947 0.0
C1094 C 0.1759 0.4547 0.93409 0.0
C1095 C 0.15827 0.45377 0.93067 0.0
C1096 C 0.14488 0.44021 0.91699 0.0
C1097 C 0.14938 0.42745 0.90704 0.0
C1098 C 0.16692 0.42836 0.91051 0.0
H1099 H 0.23074 0.4855 0.90198 0.0
H1100 H 0.20511 0.47117 0.89799 0.0
H1101 H 0.21426 0.48427 0.92127 0.0
H1102 H 0.18606 0.46525 0.94465 0.0
H1103 H 0.15519 0.46375 0.93861 0.0
H1104 H 0.69239 0.16565 0.43511 0.0
H1105 H 0.72127 0.19759 0.43749 0.0
H1106 H 0.75344 0.17698 0.40389 0.0
H1107 H 0.7249 0.14519 0.4014 0.0
H1108 H 0.76171 0.20851 0.45229 0.0
H1109 H 0.75611 0.2239 0.37102 0.0
H1110 H 0.7359 0.20593 0.38539 0.0
H1111 H 0.75385 0.20082 0.37591 0.0
C1112 C 0.70567 0.16788 0.42842 0.0
C1113 C 0.70631 0.15295 0.4179 0.0
C1114 C 0.72211 0.1861 0.42981 0.0
C1115 C 0.7393 0.18958 0.42063 0.0
C1116 C 0.74018 0.17454 0.41086 0.0
H1117 H 0.85312 0.27395 0.39301 0.0
H1118 H 0.82115 0.2461 0.39764 0.0
C1119 C 0.72385 0.15639 0.40949 0.0
C1120 C 0.7563 0.20905 0.42033 0.0
H1121 H 0.7859 0.24436 0.38749 0.0
C1122 C 0.76692 0.21658 0.43825 0.0
C1123 C 0.76286 0.21944 0.40196 0.0
C1124 C 0.75153 0.21224 0.38247 0.0
C1125 C 0.78464 0.23384 0.43799 0.0
C1126 C 0.79162 0.24376 0.41939 0.0
C1127 C 0.78052 0.23663 0.4017 0.0
C1128 C 0.81107 0.2607 0.41746 0.0
C1129 C 0.79623 0.24082 0.45733 0.0
C1130 C 0.81593 0.27815 0.42707 0.0
C1131 C 0.83426 0.29417 0.42448 0.0
C1132 C 0.84793 0.29295 0.41215 0.0
C1133 C 0.84295 0.2754 0.4026 0.0
C1134 C 0.82469 0.25946 0.40522 0.0
H1135 H 0.79023 0.22987 0.46962 0.0
H1136 H 0.81138 0.24468 0.45453 0.0
H1137 H 0.79627 0.25394 0.46271 0.0
H1138 H 0.80548 0.27944 0.43633 0.0
H1139 H 0.83765 0.30751 0.43197 0.0
H1140 H 0.57558 0.72256 0.8965 0.0
H1141 H 0.57276 0.75133 0.89919 0.0
H1142 H 0.5285 0.72362 0.9446 0.0
H1143 H 0.53133 0.69464 0.94217 0.0
H1144 H 0.53852 0.75269 0.89179 0.0
H1145 H 0.56696 0.7765 0.97013 0.0
H1146 H 0.57123 0.75972 0.95597 0.0
H1147 H 0.54809 0.75193 0.96708 0.0
C1148 C 0.56532 0.72256 0.90718 0.0
C1149 C 0.55366 0.7063 0.91913 0.0
C1150 C 0.56373 0.73903 0.90868 0.0
C1151 C 0.55054 0.73961 0.92219 0.0
C1152 C 0.53897 0.72351 0.9343 0.0
H1153 H 0.53089 0.83723 0.93788 0.0
H1154 H 0.5278 0.80537 0.94128 0.0
C1155 C 0.54055 0.70697 0.93282 0.0
C1156 C 0.54853 0.75691 0.92277 0.0
H1157 H 0.55763 0.79578 0.95189 0.0
C1158 C 0.54255 0.76204 0.90498 0.0
C1159 C 0.55365 0.76894 0.94007 0.0
C1160 C 0.56047 0.76416 0.9594 0.0
C1161 C 0.54206 0.7792 0.90383 0.0
C1162 C 0.54797 0.79164 0.92081 0.0
C1163 C 0.55318 0.78617 0.9389 0.0
C1164 C 0.55015 0.81098 0.91946 0.0
C1165 C 0.53548 0.78404 0.88434 0.0
C1166 C 0.564 0.8247 0.9064 0.0
C1167 C 0.56584 0.84283 0.90444 0.0
C1168 C 0.55386 0.8476 0.91557 0.0
C1169 C 0.54027 0.83396 0.92903 0.0
C1170 C 0.53848 0.81578 0.93102 0.0
H1171 H 0.52671 0.77102 0.87494 0.0
H1172 H 0.5269 0.79112 0.88753 0.0
H1173 H 0.54825 0.79414 0.8753 0.0
H1174 H 0.57332 0.82131 0.8976 0.0
H1175 H 0.57652 0.85301 0.89402 0.0
H1176 H 0.29551 0.93255 0.95137 0.0
H1177 H 0.30325 0.9573 0.9773 0.0
H1178 H 0.35654 0.99483 0.94653 0.0
H1179 H 0.34896 0.97036 0.92062 0.0
H1180 H 0.33597 0.97082 0.00168 0.0
H1181 H 0.33623 0.03111 0.96077 0.0
H1182 H 0.32404 0.00676 0.95113 0.0
H1183 H 0.34954 0.02198 0.94756 0.0
C1184 C 0.30868 0.94624 0.9499 0.0
C1185 C 0.3217 0.94947 0.93403 0.0
C1186 C 0.31305 0.96034 0.96471 0.0
C1187 C 0.33033 0.97795 0.96366 0.0
C1188 C 0.34294 0.98149 0.94738 0.0
H1189 H 0.41389 0.07066 0.03023 0.0
H1190 H 0.39183 0.04708 0.00579 0.0
C1191 C 0.33866 0.96741 0.93268 0.0
C1192 C 0.33656 0.99172 0.98076 0.0
H1193 H 0.35561 0.03943 0.99127 0.0
C1194 C 0.33984 0.98574 -0.00037 0.0
C1195 C 0.34158 0.01113 0.97794 0.0
C1196 C 0.33749 0.01809 0.9583 0.0
C1197 C 0.34935 -0.00103 0.01533 0.0
C1198 C 0.35537 0.0186 0.0121 0.0
C1199 C 0.35105 0.02437 0.99364 0.0
C1200 C 0.36795 0.03358 0.02678 0.0
C1201 C 0.35401 0.99204 0.03469 0.0
C1202 C 0.36169 0.03396 0.0466 0.0
C1203 C 0.37434 0.04735 0.0607 0.0
C1204 C 0.39338 0.06064 0.05511 0.0
C1205 C 0.39936 0.06057 0.03506 0.0
C1206 C 0.38675 0.04716 0.02103 0.0
H1207 H 0.35136 0.97712 0.03327 0.0
H1208 H 0.36928 0.00163 0.03903 0.0
H1209 H 0.34487 0.99229 0.04719 0.0
H1210 H 0.34712 0.02378 0.05121 0.0
H1211 H 0.36925 0.04717 0.07599 0.0
H1212 H 0.36126 0.29534 0.45009 0.0
H1213 H 0.34468 0.30373 0.47591 0.0
H1214 H 0.35929 0.35588 0.44327 0.0
H1215 H 0.37573 0.34764 0.41747 0.0
H1216 H 0.36416 0.33729 0.49903 0.0
H1217 H 0.30296 0.33555 0.45859 0.0
H1218 H 0.3151 0.32324 0.44927 0.0
H1219 H 0.32508 0.34859 0.44478 0.0
C1220 C 0.36058 0.30839 0.4482 0.0
C1221 C 0.36991 0.3209 0.43182 0.0
C1222 C 0.3511 0.31313 0.46294 0.0
C1223 C 0.35056 0.33028 0.46133 0.0
C1224 C 0.35918 0.34237 0.44456 0.0
H1225 H 0.34151 0.41536 0.52507 0.0
H1226 H 0.34297 0.39273 0.50138 0.0
C1227 C 0.36874 0.33772 0.42993 0.0
C1228 C 0.3433 0.33697 0.47826 0.0
H1229 H 0.31456 0.35598 0.48832 0.0
C1230 C 0.35299 0.34096 0.49693 0.0
C1231 C 0.32874 0.34172 0.47538 0.0
C1232 C 0.31724 0.33687 0.45597 0.0
C1233 C 0.34952 0.35094 0.51231 0.0
C1234 C 0.33572 0.35668 0.50898 0.0
C1235 C 0.3252 0.35164 0.49076 0.0
C1236 C 0.33345 0.36962 0.52327 0.0
C1237 C 0.36155 0.35635 0.53141 0.0
C1238 C 0.32734 0.36398 0.54334 0.0
C1239 C 0.32666 0.37696 0.557 0.0
C1240 C 0.33192 0.39571 0.55071 0.0
C1241 C 0.33745 0.40107 0.53042 0.0
C1242 C 0.33822 0.38813 0.51683 0.0
H1243 H 0.37392 0.35388 0.52995 0.0
H1244 H 0.36712 0.37171 0.53525 0.0
H1245 H 0.35251 0.34751 0.54427 0.0
H1246 H 0.32329 0.34963 0.54848 0.0
H1247 H 0.32214 0.37235 0.5725 0.0
H1248 H 0.07265 0.37234 0.95226 0.0
H1249 H 0.04704 0.35293 0.97658 0.0
H1250 H 0.00855 0.3667 0.94468 0.0
H1251 H 0.0339 0.38602 0.92041 0.0
H1252 H 0.02969 0.36907 0.00081 0.0
H1253 H 0.97522 0.30848 0.95493 0.0
H1254 H 0.0001 0.32265 0.94727 0.0
H1255 H 0.98369 0.33139 0.94288 0.0
C1256 C 0.05862 0.37094 0.95023 0.0
C1257 C 0.0553 0.3808 0.93451 0.0
C1258 C 0.04403 0.35983 0.9641 0.0
C1259 C 0.02587 0.35818 0.96222 0.0
C1260 C 0.02236 0.36746 0.94613 0.0
H1261 H 0.92613 0.33726 0.02306 0.0
H1262 H 0.95145 0.34119 -0.00028 0.0
C1263 C 0.03693 0.37866 0.93239 0.0
C1264 C 0.01121 0.34882 0.97827 0.0
H1265 H 0.96368 0.31636 0.98529 0.0
C1266 C 0.01536 0.35722 -0.00236 0.0
C1267 C 0.99259 0.33342 0.97398 0.0
C1268 C 0.98766 0.32333 0.95368 0.0
C1269 C 0.00096 0.3516 0.01243 0.0
C1270 C 0.98205 0.33688 0.00776 0.0
C1271 C 0.97819 0.32769 0.98878 0.0
C1272 C 0.96575 0.33237 0.02149 0.0
C1273 C 0.00585 0.36238 0.03235 0.0
C1274 C 0.96514 0.32562 0.04129 0.0
C1275 C 0.95078 0.32355 0.05477 0.0
C1276 C 0.93669 0.32801 0.04854 0.0
C1277 C 0.93682 0.33382 0.02837 0.0
C1278 C 0.95124 0.33601 0.01498 0.0
H1279 H 0.02016 0.37569 0.03195 0.0
H1280 H 0.99486 0.36638 0.03633 0.0
H1281 H 0.00609 0.35303 0.04462 0.0
H1282 H 0.976 0.32237 0.04646 0.0
H1283 H 0.95092 0.31882 0.07015 0.0
H1284 H 0.69588 0.07348 0.45485 0.0
H1285 H 0.68649 0.04689 0.47888 0.0
H1286 H 0.63154 0.015 0.44899 0.0
H1287 H 0.64072 0.04129 0.42497 0.0
H1288 H 0.65419 0.0326 0.50501 0.0
H1289 H 0.64965 0.97545 0.45426 0.0
H1290 H 0.6628 0.00065 0.44755 0.0
H1291 H 0.63712 0.987 0.44444 0.0
C1292 C 0.68189 0.06069 0.45325 0.0
C1293 C 0.66902 0.05949 0.43804 0.0
C1294 C 0.67658 0.04555 0.46697 0.0
C1295 C 0.65846 0.02891 0.46547 0.0
C1296 C 0.64575 0.02757 0.45011 0.0
H1297 H 0.57644 0.93024 0.52747 0.0
H1298 H 0.59686 0.95642 0.50444 0.0
C1299 C 0.65097 0.04268 0.4365 0.0
C1300 C 0.65199 0.01352 0.48086 0.0
H1301 H 0.63205 0.96494 0.4857 0.0
C1302 C 0.6497 0.01785 0.50096 0.0
C1303 C 0.64621 0.99435 0.47543 0.0
C1304 C 0.64924 0.98909 0.45428 0.0
C1305 C 0.64057 0.00327 0.51552 0.0
C1306 C 0.6339 0.98396 0.5098 0.0
C1307 C 0.6371 0.97977 0.48996 0.0
C1308 C 0.62209 0.96779 0.52363 0.0
C1309 C 0.63714 0.0085 0.53653 0.0
C1310 C 0.62964 0.96541 0.54191 0.0
C1311 C 0.61796 0.95049 0.55519 0.0
C1312 C 0.5986 0.93767 0.55029 0.0
C1313 C 0.59125 0.93989 0.53174 0.0
C1314 C 0.60291 0.95481 0.51853 0.0
H1315 H 0.64007 0.02356 0.53733 0.0
H1316 H 0.62206 -0.00129 0.54138 0.0
H1317 H 0.64676 0.00695 0.54751 0.0
H1318 H 0.64451 0.97512 0.54594 0.0
H1319 H 0.62408 0.94907 0.56931 0.0
H1320 H 0.66862 0.62484 0.07621 0.0
H1321 H 0.66384 0.64652 0.05397 0.0
H1322 H 0.65297 0.6082 0.0034 0.0
H1323 H 0.6581 0.58665 0.02536 0.0
H1324 H 0.67599 0.64735 0.99335 0.0
H1325 H 0.60986 0.6328 0.03541 0.0
H1326 H 0.63142 0.64202 0.05032 0.0
H1327 H 0.62125 0.61854 0.03906 0.0
C1328 C 0.66534 0.62109 0.06032 0.0
C1329 C 0.66349 0.6039 0.05258 0.0
C1330 C 0.66258 0.63348 0.04767 0.0
C1331 C 0.65774 0.62877 0.02716 0.0
C1332 C 0.65665 0.61204 0.01922 0.0
H1333 H 0.60973 0.65034 0.92463 0.0
H1334 H 0.62819 0.64311 0.94889 0.0
C1335 C 0.65952 0.59971 0.03181 0.0
C1336 C 0.65271 0.64058 0.0141 0.0
H1337 H 0.61802 0.65264 0.00672 0.0
C1338 C 0.66346 0.64873 0.99637 0.0
C1339 C 0.63638 0.64239 0.01817 0.0
C1340 C 0.62393 0.63338 0.03667 0.0
C1341 C 0.65793 0.65812 0.98222 0.0
C1342 C 0.64113 0.65915 0.98586 0.0
C1343 C 0.63094 0.65186 0.00406 0.0
C1344 C 0.63249 0.66556 0.97008 0.0
C1345 C 0.66988 0.66653 0.96332 0.0
C1346 C 0.62878 0.68057 0.97399 0.0
C1347 C 0.61814 0.68472 0.96015 0.0
C1348 C 0.61082 0.67368 0.94236 0.0
C1349 C 0.61511 0.65907 0.93822 0.0
C1350 C 0.62583 0.65503 0.95198 0.0
H1351 H 0.68498 0.67004 0.96576 0.0
H1352 H 0.66377 0.65582 0.95083 0.0
H1353 H 0.66983 0.67974 0.95842 0.0
H1354 H 0.63366 0.68871 0.988 0.0
H1355 H 0.61505 0.69606 0.96376 0.0
H1356 H 0.06119 0.63945 0.52946 0.0
H1357 H 0.03419 0.63334 0.50771 0.0
H1358 H 0.02116 0.66865 0.54652 0.0
H1359 H 0.04795 0.67441 0.56883 0.0
H1360 H 0.98961 0.63579 0.53801 0.0
H1361 H 0.0283 0.66654 0.46628 0.0
H1362 H 0.03467 0.64967 0.47611 0.0
H1363 H 0.0406 0.67113 0.49037 0.0
C1364 C 0.05272 0.64609 0.53329 0.0
C1365 C 0.05672 0.65744 0.55084 0.0
C1366 C 0.03738 0.64273 0.52072 0.0
C1367 C 0.02594 0.65092 0.52521 0.0
C1368 C 0.02994 0.66235 0.54267 0.0
H1369 H 0.93853 0.62257 0.4311 0.0
H1370 H 0.9637 0.64249 0.45554 0.0
C1371 C 0.04522 0.6656 0.5554 0.0
C1372 C 0.00897 0.64619 0.51242 0.0
H1373 H 0.99485 0.64124 0.46289 0.0
C1374 C 0.99076 0.63736 0.5216 0.0
C1375 C 0.01045 0.64872 0.49109 0.0
C1376 C 0.0296 0.65975 0.48045 0.0
C1377 C 0.97395 0.6296 0.50987 0.0
C1378 C 0.97544 0.63019 0.48841 0.0
C1379 C 0.99366 0.64042 0.47933 0.0
C1380 C 0.95861 0.61872 0.47512 0.0
C1381 C 0.95479 0.62051 0.52061 0.0
C1382 C 0.9473 0.59879 0.47808 0.0
C1383 C 0.93283 0.58744 0.46429 0.0
C1384 C 0.92964 0.59574 0.44702 0.0
C1385 C 0.94071 0.61576 0.44424 0.0
C1386 C 0.95506 0.62716 0.4582 0.0
H1387 H 0.95599 0.62771 0.5354 0.0
H1388 H 0.94364 0.6212 0.51126 0.0
H1389 H 0.95002 0.6052 0.52385 0.0
H1390 H 0.95015 0.59184 0.49062 0.0
H1391 H 0.92466 0.57205 0.46679 0.0
H1392 H 0.62291 0.95635 0.91763 0.0
H1393 H 0.64527 0.98297 0.93935 0.0
H1394 H 0.61327 0.95171 0.99236 0.0
H1395 H 0.59121 0.92495 0.97091 0.0
H1396 H 0.63567 0.00411 0.96268 0.0
H1397 H 0.66749 0.97146 0.01164 0.0
H1398 H 0.65467 0.96013 0.98852 0.0
H1399 H 0.64176 0.95738 0.01184 0.0
C1400 C 0.62083 0.95503 0.93395 0.0
C1401 C 0.60526 0.93857 0.94256 0.0
C1402 C 0.63364 0.97022 0.94632 0.0
C1403 C 0.63114 0.96919 0.96749 0.0
C1404 C 0.61583 0.95261 0.97612 0.0
H1405 H 0.65039 0.03916 0.06893 0.0
H1406 H 0.6428 0.01402 0.04372 0.0
C1407 C 0.6031 0.93739 0.9638 0.0
C1408 C 0.64304 0.98617 0.98042 0.0
H1409 H 0.66763 -0.00035 0.02533 0.0
C1410 C 0.64307 0.00331 0.97611 0.0
C1411 C 0.65273 0.9851 -0.00209 0.0
C1412 C 0.65434 0.96757 0.00262 0.0
C1413 C 0.65141 0.01895 0.98953 0.0
C1414 C 0.66003 0.01741 0.00762 0.0
C1415 C 0.6609 0.00069 0.01145 0.0
C1416 C 0.66627 0.03219 0.02364 0.0
C1417 C 0.64996 0.0366 0.98491 0.0
C1418 C 0.68226 0.05057 0.02082 0.0
C1419 C 0.68667 0.06501 0.03522 0.0
C1420 C 0.67507 0.06124 0.05256 0.0
C1421 C 0.65952 0.04257 0.05566 0.0
C1422 C 0.65521 0.02816 0.04134 0.0
H1423 H 0.64093 0.03463 0.97132 0.0
H1424 H 0.64378 0.04027 -0.00189 0.0
H1425 H 0.66455 0.04899 0.98209 0.0
H1426 H 0.69101 0.05385 0.00726 0.0
H1427 H 0.69878 0.07924 0.03245 0.0
H1428 H 0.64757 0.57795 0.47165 0.0
H1429 H 0.64618 0.60037 0.49574 0.0
H1430 H 0.67014 0.64529 0.45055 0.0
H1431 H 0.6712 0.62282 0.42615 0.0
H1432 H 0.6744 0.63595 0.5112 0.0
H1433 H 0.61956 0.64263 0.46559 0.0
H1434 H 0.62585 0.62439 0.46046 0.0
H1435 H 0.64165 0.64883 0.45275 0.0
C1436 C 0.65262 0.59261 0.46684 0.0
C1437 C 0.65925 0.59855 0.44692 0.0
C1438 C 0.65189 0.60542 0.48064 0.0
C1439 C 0.65781 0.62438 0.4748 0.0
C1440 C 0.66517 0.6306 0.4552 0.0
H1441 H 0.63096 0.70045 0.54588 0.0
H1442 H 0.64806 0.69134 0.52146 0.0
C1443 C 0.66579 0.61776 0.44132 0.0
C1444 C 0.65527 0.63717 0.48905 0.0
H1445 H 0.62821 0.65846 0.49699 0.0
C1446 C 0.6645 0.64111 0.50801 0.0
C1447 C 0.64242 0.64395 0.48478 0.0
C1448 C 0.63166 0.63966 0.46487 0.0
C1449 C 0.66063 0.65102 0.52314 0.0
C1450 C 0.64706 0.65691 0.5192 0.0
C1451 C 0.63866 0.65394 0.49988 0.0
C1452 C 0.63942 0.66384 0.53552 0.0
C1453 C 0.67072 0.65467 0.54336 0.0
C1454 C 0.62907 0.65144 0.55154 0.0
C1455 C 0.61919 0.65649 0.56535 0.0
C1456 C 0.61946 0.67405 0.56338 0.0
C1457 C 0.63051 0.68683 0.54781 0.0
C1458 C 0.64029 0.68168 0.53387 0.0
H1459 H 0.68467 0.65503 0.54187 0.0
H1460 H 0.67334 0.66846 0.55011 0.0
H1461 H 0.66157 0.64287 0.554 0.0
H1462 H 0.62788 0.63743 0.55281 0.0
H1463 H 0.61086 0.64636 0.57721 0.0
H1464 H 0.95817 0.61212 0.07071 0.0
H1465 H 0.98437 0.63057 0.04696 0.0
H1466 H 0.94377 0.62825 0.00252 0.0
H1467 H 0.91733 0.60957 0.02617 0.0
H1468 H 0.96796 0.61554 0.98818 0.0
H1469 H 0.01012 0.68604 0.02641 0.0
H1470 H 0.00477 0.66613 0.04286 0.0
H1471 H 0.98549 0.66909 0.03307 0.0
C1472 C 0.9548 0.61577 0.05601 0.0
C1473 C 0.93566 0.60929 0.05028 0.0
C1474 C 0.96982 0.62647 0.04252 0.0
C1475 C 0.96601 0.631 0.02312 0.0
C1476 C 0.94698 0.62502 0.01752 0.0
H1477 H 0.0461 0.67139 0.91985 0.0
H1478 H 0.01798 0.66352 0.9409 0.0
C1479 C 0.93192 0.61434 0.03103 0.0
C1480 C 0.98169 0.64009 0.00805 0.0
H1481 H 0.02674 0.67839 0.00089 0.0
C1482 C 0.98067 0.62945 0.99071 0.0
C1483 C -0.00178 0.6582 0.01149 0.0
C1484 C -0.00032 0.67062 0.02937 0.0
C1485 C 0.99623 0.63594 0.97727 0.0
C1486 C 0.01307 0.65373 0.98113 0.0
C1487 C 0.0138 0.66474 -0.00197 0.0
C1488 C 0.03057 0.66034 0.96867 0.0
C1489 C 0.99489 0.62324 0.95968 0.0
C1490 C 0.04714 0.66183 0.97751 0.0
C1491 C 0.06325 0.66643 0.9656 0.0
C1492 C 0.06303 0.66962 0.94461 0.0
C1493 C 0.04664 0.66882 0.93594 0.0
C1494 C 0.03055 0.66428 0.94791 0.0
H1495 H 0.98249 0.6084 0.96123 0.0
H1496 H 0.99306 0.62941 0.94533 0.0
H1497 H 0.00825 0.62243 0.95838 0.0
H1498 H 0.04742 0.65888 0.99355 0.0
H1499 H 0.07568 0.66704 0.97276 0.0
H1500 H 0.37136 0.93923 0.53634 0.0
H1501 H 0.37808 0.96585 0.51361 0.0
H1502 H 0.33397 0.97289 0.54301 0.0
H1503 H 0.32754 0.94655 0.56633 0.0
H1504 H 0.35543 0.97035 0.48642 0.0
H1505 H 0.37982 0.02673 0.54626 0.0
H1506 H 0.37611 0.00302 0.55123 0.0
H1507 H 0.3559 0.00679 0.54952 0.0
C1508 C 0.36308 0.94643 0.53801 0.0
C1509 C 0.34903 0.94091 0.55323 0.0
C1510 C 0.36691 0.96162 0.52498 0.0
C1511 C 0.35671 0.97152 0.52681 0.0
C1512 C 0.34231 0.96573 0.54164 0.0
H1513 H 0.37569 0.05458 0.42944 0.0
H1514 H 0.35884 0.028 0.4535 0.0
C1515 C 0.33859 0.95063 0.55488 0.0
C1516 C 0.36147 0.98794 0.51314 0.0
H1517 H 0.38019 0.03659 0.5125 0.0
C1518 C 0.3607 0.98483 0.49209 0.0
C1519 C 0.3684 0.00679 0.52065 0.0
C1520 C 0.37029 0.01115 0.54314 0.0
C1521 C 0.3674 0.00016 0.4783 0.0
C1522 C 0.37453 0.01905 0.4858 0.0
C1523 C 0.3746 0.02206 0.50683 0.0
C1524 C 0.38386 0.03604 0.4723 0.0
C1525 C 0.36775 0.99607 0.45594 0.0
C1526 C 0.40324 0.04983 0.47545 0.0
C1527 C 0.41279 0.06514 0.46198 0.0
C1528 C 0.40316 0.06689 0.44501 0.0
C1529 C 0.38355 0.05346 0.44226 0.0
C1530 C 0.37393 0.03823 0.45592 0.0
H1531 H 0.3658 0.98153 0.45326 0.0
H1532 H 0.35588 0.99678 0.44812 0.0
H1533 H 0.38153 0.00688 0.44888 0.0
H1534 H 0.41116 0.04842 0.48804 0.0
H1535 H 0.42788 0.07528 0.46457 0.0
H1536 H 0.35762 0.29137 0.04953 0.0
H1537 H 0.34001 0.29794 0.02315 0.0
H1538 H 0.38096 0.3586 0.0275 0.0
H1539 H 0.3986 0.35228 0.05357 0.0
H1540 H 0.32363 0.32296 0.02468 0.0
H1541 H 0.38069 0.3455 0.96649 0.0
H1542 H 0.37956 0.33174 0.98871 0.0
H1543 H 0.38972 0.3574 0.99043 0.0
C1544 C 0.36284 0.3061 0.04486 0.0
C1545 C 0.3796 0.32129 0.05351 0.0
C1546 C 0.35277 0.3098 0.02983 0.0
C1547 C 0.35944 0.3287 0.0232 0.0
C1548 C 0.37584 0.34387 0.03217 0.0
H1549 H 0.31878 0.39634 0.97121 0.0
H1550 H 0.32451 0.37478 0.99233 0.0
C1551 C 0.38585 0.34023 0.04714 0.0
C1552 C 0.34944 0.33295 0.00695 0.0
H1553 H 0.35825 0.35675 0.96187 0.0
C1554 C 0.33097 0.33 0.01072 0.0
C1555 C 0.3589 0.34172 0.9886 0.0
C1556 C 0.37824 0.3441 0.98318 0.0
C1557 C 0.32231 0.33693 -0.00277 0.0
C1558 C 0.33259 0.34735 0.97981 0.0
C1559 C 0.35043 0.34897 0.97534 0.0
C1560 C 0.32625 0.35836 0.96711 0.0
C1561 C 0.30243 0.3334 0.002 0.0
C1562 C 0.32548 0.35645 0.94587 0.0
C1563 C 0.32256 0.36902 0.93371 0.0
C1564 C 0.32037 0.38374 0.94261 0.0
C1565 C 0.32036 0.38513 0.9639 0.0
C1566 C 0.32343 0.37266 0.97602 0.0
H1567 H 0.29403 0.31985 0.01072 0.0
H1568 H 0.30365 0.34536 0.01155 0.0
H1569 H 0.29441 0.3326 0.98794 0.0
H1570 H 0.32775 0.3456 0.93868 0.0
H1571 H 0.32252 0.36751 0.91735 0.0
H1572 H 0.03467 0.37876 0.58136 0.0
H1573 H 0.00721 0.35951 0.55919 0.0
H1574 H 0.0456 0.37208 0.50832 0.0
H1575 H 0.07315 0.39098 0.53045 0.0
H1576 H -0.00229 0.37415 0.52748 0.0
H1577 H 0.00892 0.31523 0.50031 0.0
H1578 H 0.02155 0.32998 0.52199 0.0
H1579 H 0.02972 0.33849 0.49659 0.0
C1580 C 0.03729 0.37716 0.56552 0.0
C1581 C 0.05607 0.38648 0.55762 0.0
C1582 C 0.02159 0.36612 0.5529 0.0
C1583 C 0.02437 0.36417 0.53217 0.0
C1584 C 0.04314 0.373 0.52436 0.0
H1585 H 0.95861 0.34011 0.42352 0.0
H1586 H 0.98302 0.3475 0.44963 0.0
C1587 C 0.05887 0.38394 0.53701 0.0
C1588 C 0.00766 0.35485 0.51831 0.0
H1589 H 0.9872 0.32129 0.48064 0.0
C1590 C 0.99522 0.36237 0.51749 0.0
C1591 C 0.0045 0.33953 0.50525 0.0
C1592 C 0.01678 0.33021 0.5062 0.0
C1593 C 0.98013 0.35548 0.50344 0.0
C1594 C 0.97735 0.3406 0.48998 0.0
C1595 C 0.98946 0.33273 0.49103 0.0
C1596 C 0.96252 0.33389 0.474 0.0
C1597 C 0.96767 0.36463 0.50253 0.0
C1598 C 0.94298 0.3234 0.47909 0.0
C1599 C 0.92899 0.31914 0.46424 0.0
C1600 C 0.93438 0.32541 0.4441 0.0
C1601 C 0.954 0.3352 0.43892 0.0
C1602 C 0.96796 0.33936 0.45377 0.0
H1603 H 0.97342 0.37778 0.51208 0.0
H1604 H 0.9664 0.36848 0.48661 0.0
H1605 H 0.953 0.35419 0.50799 0.0
H1606 H 0.93859 0.31901 0.49467 0.0
H1607 H 0.914 0.3115 0.4687 0.0
H1608 H 0.49372 0.1271 0.13763 0.0
H1609 H 0.5245 0.12795 0.13517 0.0
H1610 H 0.50057 0.08275 0.09029 0.0
H1611 H 0.46963 0.08164 0.09276 0.0
H1612 H 0.52111 0.07695 0.12177 0.0
H1613 H 0.56316 0.14982 0.08788 0.0
H1614 H 0.55038 0.14879 0.11069 0.0
H1615 H 0.5372 0.1366 0.08819 0.0
C1616 C 0.49499 0.11736 0.12718 0.0
C1617 C 0.47924 0.10433 0.11534 0.0
C1618 C 0.51263 0.11796 0.12572 0.0
C1619 C 0.51486 0.10562 0.11232 0.0
C1620 C 0.49914 0.09247 0.10063 0.0
H1621 H 0.60885 0.08447 0.08581 0.0
H1622 H 0.57816 0.08397 0.08643 0.0
C1623 C 0.48149 0.09186 0.10206 0.0
C1624 C 0.53346 0.10605 0.11095 0.0
H1625 H 0.58081 0.13499 0.0989 0.0
C1626 C 0.53415 0.08958 0.11666 0.0
C1627 C 0.55041 0.12259 0.1043 0.0
C1628 C 0.55031 0.14042 0.09724 0.0
C1629 C 0.55149 0.08933 0.11633 0.0
C1630 C 0.56847 0.10589 0.10975 0.0
C1631 C 0.56775 0.12234 0.10395 0.0
C1632 C 0.58717 0.10649 0.10897 0.0
C1633 C 0.55158 0.07152 0.12351 0.0
C1634 C 0.60255 0.11971 0.12101 0.0
C1635 C 0.62015 0.12012 0.1206 0.0
C1636 C 0.62268 0.10737 0.10807 0.0
C1637 C 0.60733 0.09439 0.09573 0.0
C1638 C 0.58975 0.09401 0.09614 0.0
H1639 H 0.53862 0.06205 0.13269 0.0
H1640 H 0.55174 0.0632 0.11011 0.0
H1641 H 0.56458 0.07537 0.13277 0.0
H1642 H 0.60085 0.12953 0.13092 0.0
H1643 H 0.63169 0.13033 0.13024 0.0
H1644 H 0.50053 0.63517 0.62754 0.0
H1645 H 0.46978 0.60501 0.62624 0.0
H1646 H 0.49461 0.58072 0.58623 0.0
H1647 H 0.52546 0.61066 0.58765 0.0
H1648 H 0.44645 0.58527 0.59273 0.0
H1649 H 0.47229 0.54145 0.63254 0.0
H1650 H 0.48569 0.56741 0.63241 0.0
H1651 H 0.48623 0.55414 0.61065 0.0
C1652 C 0.49946 0.62341 0.61846 0.0
C1653 C 0.51549 0.62526 0.60784 0.0
C1654 C 0.48188 0.60621 0.61772 0.0
C1655 C 0.48004 0.59056 0.60642 0.0
C1656 C 0.49586 0.59251 0.59539 0.0
H1657 H 0.38687 0.47389 0.5867 0.0
H1658 H 0.41689 0.50474 0.58505 0.0
C1659 C 0.51345 0.60967 0.59615 0.0
C1660 C 0.46156 0.57218 0.60618 0.0
H1661 H 0.44092 0.52465 0.61858 0.0
C1662 C 0.44519 0.57202 0.59843 0.0
C1663 C 0.46002 0.55494 0.61364 0.0
C1664 C 0.47694 0.55444 0.62296 0.0
C1665 C 0.42734 0.55496 0.59767 0.0
C1666 C 0.42583 0.53773 0.60512 0.0
C1667 C 0.44219 0.53789 0.61281 0.0
C1668 C 0.40732 0.5194 0.60543 0.0
C1669 C 0.41031 0.55541 0.58861 0.0
C1670 C 0.39207 0.51746 0.61751 0.0
C1671 C 0.37491 0.49987 0.61854 0.0
C1672 C 0.37276 0.48388 0.60754 0.0
C1673 C 0.38805 0.48593 0.59534 0.0
C1674 C 0.40521 0.50352 0.59437 0.0
H1675 H 0.41483 0.56844 0.57914 0.0
H1676 H 0.40155 0.54246 0.57913 0.0
H1677 H 0.40106 0.55556 0.60106 0.0
H1678 H 0.39355 0.52947 0.62644 0.0
H1679 H 0.36344 0.49876 0.62811 0.0
H1680 H 0.91214 0.38253 0.0799 0.0
H1681 H 0.91416 0.41392 0.07787 0.0
H1682 H 0.89252 0.40703 0.13913 0.0
H1683 H 0.89004 0.37548 0.14115 0.0
H1684 H 0.87508 0.42016 0.11328 0.0
H1685 H 0.95439 0.46327 0.10496 0.0
H1686 H 0.94283 0.44476 0.08613 0.0
H1687 H 0.94214 0.4383 0.11242 0.0
C1688 C 0.90784 0.38771 0.09296 0.0
C1689 C 0.90103 0.37656 0.11073 0.0
C1690 C 0.90911 0.4057 0.09181 0.0
C1691 C 0.90381 0.41294 0.10848 0.0
C1692 C 0.89677 0.40173 0.12613 0.0
H1693 H 0.93175 0.53013 0.13093 0.0
H1694 H 0.92922 0.4985 0.1308 0.0
C1695 C 0.89538 0.38371 0.12725 0.0
C1696 C 0.90533 0.43208 0.10751 0.0
H1697 H 0.93715 0.47991 0.10088 0.0
C1698 C 0.88865 0.43324 0.11058 0.0
C1699 C 0.92309 0.44912 0.10424 0.0
C1700 C 0.94168 0.4489 0.10194 0.0
C1701 C 0.88922 0.45099 0.11038 0.0
C1702 C 0.90689 0.46798 0.10657 0.0
C1703 C 0.92359 0.46683 0.1036 0.0
C1704 C 0.9085 0.48718 0.10628 0.0
C1705 C 0.87099 0.45142 0.11479 0.0
C1706 C 0.89789 0.49139 0.09232 0.0
C1707 C 0.8992 0.50941 0.09245 0.0
C1708 C 0.91133 0.52363 0.10638 0.0
C1709 C 0.92226 0.51949 0.12003 0.0
C1710 C 0.92084 0.50144 0.11996 0.0
H1711 H 0.86014 0.43811 0.12261 0.0
H1712 H 0.87396 0.46398 0.1244 0.0
H1713 H 0.86463 0.45257 0.10026 0.0
H1714 H 0.88862 0.48074 0.08132 0.0
H1715 H 0.89072 0.5122 0.08163 0.0
H1716 H 0.39011 0.90946 0.59202 0.0
H1717 H 0.41955 0.90761 0.59139 0.0
H1718 H 0.39104 0.85418 0.6246 0.0
H1719 H 0.3614 0.8558 0.62521 0.0
H1720 H 0.43996 0.90591 0.62586 0.0
H1721 H 0.41559 0.84221 0.57553 0.0
H1722 H 0.4031 0.85563 0.57712 0.0
H1723 H 0.4003 0.839 0.59689 0.0
C1724 C 0.39003 0.89724 0.5991 0.0
C1725 C 0.3734 0.88276 0.60867 0.0
C1726 C 0.40687 0.89623 0.59872 0.0
C1727 C 0.40738 0.88067 0.60775 0.0
C1728 C 0.39082 0.86615 0.61725 0.0
H1729 H 0.49942 0.8543 0.62244 0.0
H1730 H 0.46865 0.8537 0.62302 0.0
C1731 C 0.37394 0.86716 0.61768 0.0
C1732 C 0.4255 0.88011 0.60785 0.0
H1733 H 0.44643 0.85489 0.59038 0.0
C1734 C 0.44141 0.89478 0.61809 0.0
C1735 C 0.42725 0.86551 0.59777 0.0
C1736 C 0.41073 0.84975 0.58605 0.0
C1737 C 0.45907 0.8952 0.61861 0.0
C1738 C 0.46091 0.88075 0.60829 0.0
C1739 C 0.44494 0.86595 0.59824 0.0
C1740 C 0.47942 0.88095 0.60754 0.0
C1741 C 0.4755 0.91094 0.63047 0.0
C1742 C 0.49553 0.89631 0.59831 0.0
C1743 C 0.51311 0.89672 0.59798 0.0
C1744 C 0.51487 0.8817 0.60677 0.0
C1745 C 0.49857 0.86612 0.61562 0.0
C1746 C 0.48098 0.86574 0.61594 0.0
H1747 H 0.47037 0.91766 0.64176 0.0
H1748 H 0.48381 0.90532 0.63857 0.0
H1749 H 0.48537 0.92233 0.61981 0.0
H1750 H 0.4945 0.90799 0.59136 0.0
H1751 H 0.52534 0.90886 0.5909 0.0
H1752 H 0.60886 0.52314 0.08762 0.0
H1753 H 0.57929 0.49185 0.08656 0.0
H1754 H 0.60127 0.471 0.13395 0.0
H1755 H 0.63078 0.50226 0.13533 0.0
H1756 H 0.57482 0.45525 0.07881 0.0
H1757 H 0.5486 0.45928 0.15581 0.0
H1758 H 0.56745 0.48007 0.14303 0.0
H1759 H 0.57262 0.4631 0.15514 0.0
C1760 C 0.6074 0.51192 0.09786 0.0
C1761 C 0.62211 0.51522 0.11166 0.0
C1762 C 0.59051 0.49406 0.0972 0.0
C1763 C 0.58802 0.47925 0.11038 0.0
C1764 C 0.60279 0.48238 0.12394 0.0
H1765 H 0.49411 0.36259 0.1299 0.0
H1766 H 0.52506 0.3926 0.13032 0.0
C1767 C 0.61967 0.50023 0.12462 0.0
C1768 C 0.57002 0.46044 0.10979 0.0
H1769 H 0.53112 0.42971 0.13826 0.0
C1770 C 0.56522 0.44966 0.09177 0.0
C1771 C 0.5576 0.45322 0.12677 0.0
C1772 C 0.56168 0.46456 0.14624 0.0
C1773 C 0.54838 0.43168 0.09034 0.0
C1774 C 0.53591 0.42452 0.10728 0.0
C1775 C 0.54077 0.43525 0.12533 0.0
C1776 C 0.51748 0.40614 0.10645 0.0
C1777 C 0.5442 0.4204 0.07082 0.0
C1778 C 0.50297 0.40392 0.09298 0.0
C1779 C 0.4853 0.38683 0.0927 0.0
C1780 C 0.48179 0.37168 0.10598 0.0
C1781 C 0.49638 0.37396 0.11945 0.0
C1782 C 0.51405 0.39108 0.11972 0.0
H1783 H 0.55737 0.42536 0.06147 0.0
H1784 H 0.53791 0.4048 0.07395 0.0
H1785 H 0.53367 0.42236 0.06174 0.0
H1786 H 0.5052 0.41552 0.0829 0.0
H1787 H 0.47435 0.38558 0.0822 0.0
H1788 H 0.1294 0.4965 0.63358 0.0
H1789 H 0.13094 0.52768 0.63166 0.0
H1790 H 0.08586 0.50505 0.58665 0.0
H1791 H 0.08405 0.47378 0.58857 0.0
H1792 H 0.13804 0.55207 0.59743 0.0
H1793 H 0.06583 0.52687 0.63102 0.0
H1794 H 0.07802 0.51317 0.63276 0.0
H1795 H 0.0661 0.5131 0.60962 0.0
C1796 C 0.1198 0.49814 0.62327 0.0
C1797 C 0.1065 0.48262 0.61134 0.0
C1798 C 0.12074 0.51597 0.62218 0.0
C1799 C 0.10832 0.51854 0.60924 0.0
C1800 C 0.09531 0.50322 0.597 0.0
H1801 H 0.08788 0.61277 0.58484 0.0
H1802 H 0.08841 0.58259 0.58447 0.0
C1803 C 0.09437 0.48539 0.59807 0.0
C1804 C 0.10894 0.53726 0.60859 0.0
H1805 H 0.08208 0.55856 0.61787 0.0
C1806 C 0.12585 0.55355 0.60195 0.0
C1807 C 0.093 0.53906 0.61452 0.0
C1808 C 0.07475 0.52218 0.62256 0.0
C1809 C 0.12712 0.5716 0.60073 0.0
C1810 C 0.11116 0.57339 0.60664 0.0
C1811 C 0.09427 0.5571 0.6133 0.0
C1812 C 0.11164 0.59205 0.60618 0.0
C1813 C 0.14537 0.58852 0.59276 0.0
C1814 C 0.12451 0.60733 0.61857 0.0
C1815 C 0.12426 0.62461 0.61883 0.0
C1816 C 0.11104 0.62684 0.60678 0.0
C1817 C 0.09825 0.61152 0.59429 0.0
C1818 C 0.09852 0.59427 0.59406 0.0
H1819 H 0.15421 0.58384 0.58412 0.0
H1820 H 0.14211 0.59766 0.58274 0.0
H1821 H 0.15408 0.59745 0.60574 0.0
H1822 H 0.13449 0.60576 0.62834 0.0
H1823 H 0.13424 0.6361 0.62867 0.0
H1824 H 0.89931 0.51921 0.41249 0.0
H1825 H 0.89983 0.48898 0.4136 0.0
H1826 H 0.88616 0.48024 0.34972 0.0
H1827 H 0.88553 0.51038 0.3484 0.0
H1828 H 0.868 0.45041 0.40073 0.0
H1829 H 0.93642 0.47636 0.35804 0.0
H1830 H 0.93018 0.49251 0.37058 0.0
H1831 H 0.91897 0.48145 0.34693 0.0
C1832 C 0.89644 0.51088 0.39866 0.0
C1833 C 0.89243 0.5172 0.38033 0.0
C1834 C 0.89672 0.49362 0.39935 0.0
C1835 C 0.89321 0.48256 0.38171 0.0
C1836 C 0.8891 0.48874 0.36343 0.0
H1837 H 0.86762 0.36535 0.36448 0.0
H1838 H 0.86739 0.39572 0.36513 0.0
C1839 C 0.88868 0.50591 0.36274 0.0
C1840 C 0.89363 0.4644 0.38244 0.0
H1841 H 0.91875 0.44312 0.36576 0.0
C1842 C 0.87909 0.44878 0.39314 0.0
C1843 C 0.90824 0.46249 0.37265 0.0
C1844 C 0.92446 0.47909 0.3615 0.0
C1845 C 0.87859 0.43107 0.39398 0.0
C1846 C 0.89296 0.42903 0.3838 0.0
C1847 C 0.9077 0.44477 0.37343 0.0
C1848 C 0.89293 0.41063 0.38371 0.0
C1849 C 0.86282 0.41471 0.40584 0.0
C1850 C 0.9075 0.40912 0.39377 0.0
C1851 C 0.90766 0.3918 0.39349 0.0
C1852 C 0.89335 0.37578 0.38293 0.0
C1853 C 0.87883 0.37742 0.37277 0.0
C1854 C 0.87862 0.3947 0.37318 0.0
H1855 H 0.85514 0.41968 0.41602 0.0
H1856 H 0.85221 0.40402 0.39508 0.0
H1857 H 0.86875 0.40733 0.41513 0.0
H1858 H 0.91871 0.42133 0.4019 0.0
H1859 H 0.91908 0.39103 0.40141 0.0
H1860 H 0.52301 0.91497 0.91272 0.0
H1861 H 0.49287 0.91553 0.91486 0.0
H1862 H 0.46717 0.86976 0.87073 0.0
H1863 H 0.49712 0.86894 0.86861 0.0
H1864 H 0.47453 0.92275 0.88246 0.0
H1865 H 0.42712 0.85098 0.91658 0.0
H1866 H 0.45303 0.86244 0.91708 0.0
H1867 H 0.43995 0.85049 0.89444 0.0
C1868 C 0.51088 0.90489 0.90361 0.0
C1869 C 0.51245 0.89189 0.8905 0.0
C1870 C 0.4937 0.90524 0.90486 0.0
C1871 C 0.47774 0.89252 0.89316 0.0
C1872 C 0.4792 0.87944 0.88019 0.0
H1873 H 0.36533 0.87547 0.86606 0.0
H1874 H 0.39499 0.8741 0.86872 0.0
C1875 C 0.49637 0.87908 0.87891 0.0
C1876 C 0.45991 0.89364 0.89361 0.0
H1877 H 0.41173 0.86737 0.90308 0.0
C1878 C 0.46082 0.91072 0.88715 0.0
C1879 C 0.44208 0.87788 0.89967 0.0
C1880 C 0.44044 0.85946 0.90752 0.0
C1881 C 0.44422 0.9123 0.88602 0.0
C1882 C 0.42634 0.89646 0.89187 0.0
C1883 C 0.42547 0.87946 0.89857 0.0
C1884 C 0.40829 0.89714 0.89072 0.0
C1885 C 0.44587 0.93067 0.87797 0.0
C1886 C 0.40586 0.91036 0.90246 0.0
C1887 C 0.38897 0.91124 0.90093 0.0
C1888 C 0.37414 0.89879 0.88773 0.0
C1889 C 0.37648 0.8853 0.87631 0.0
C1890 C 0.3934 0.88447 0.87783 0.0
H1891 H 0.45957 0.93952 0.86963 0.0
H1892 H 0.43372 0.92755 0.86763 0.0
H1893 H 0.44544 0.93934 0.89088 0.0
H1894 H 0.41705 0.92001 0.9128 0.0
H1895 H 0.38756 0.92169 0.91006 0.0
H1896 H 0.48536 0.36341 0.35977 0.0
H1897 H 0.5164 0.39323 0.3614 0.0
H1898 H 0.49308 0.41656 0.40459 0.0
H1899 H 0.46205 0.38677 0.40323 0.0
H1900 H 0.52367 0.43081 0.35221 0.0
H1901 H 0.5429 0.42501 0.43202 0.0
H1902 H 0.52448 0.40474 0.41814 0.0
H1903 H 0.51951 0.42243 0.42873 0.0
C1904 C 0.48685 0.37484 0.3697 0.0
C1905 C 0.47125 0.37271 0.3814 0.0
C1906 C 0.50458 0.39185 0.3706 0.0
C1907 C 0.50706 0.40695 0.38332 0.0
C1908 C 0.49154 0.40492 0.39497 0.0
H1909 H 0.60142 0.52213 0.40683 0.0
H1910 H 0.5707 0.49188 0.40642 0.0
C1911 C 0.47379 0.38793 0.39407 0.0
C1912 C 0.52572 0.42511 0.38382 0.0
H1913 H 0.56291 0.45448 0.41504 0.0
C1914 C 0.53232 0.43597 0.3659 0.0
C1915 C 0.53686 0.43178 0.40175 0.0
C1916 C 0.53071 0.42034 0.42124 0.0
C1917 C 0.54969 0.45353 0.3655 0.0
C1918 C 0.56089 0.46017 0.38342 0.0
C1919 C 0.55426 0.44932 0.40135 0.0
C1920 C 0.57957 0.47832 0.38381 0.0
C1921 C 0.55568 0.46501 0.34604 0.0
C1922 C 0.5948 0.48055 0.37148 0.0
C1923 C 0.61232 0.4978 0.37162 0.0
C1924 C 0.61498 0.51309 0.38423 0.0
C1925 C 0.59981 0.51066 0.39689 0.0
C1926 C 0.58226 0.49339 0.3967 0.0
H1927 H 0.54333 0.46057 0.33553 0.0
H1928 H 0.56222 0.48064 0.34917 0.0
H1929 H 0.56654 0.46265 0.33817 0.0
H1930 H 0.59314 0.46892 0.36176 0.0
H1931 H 0.62376 0.49914 0.36182 0.0
H1932 H 0.11141 0.49331 0.85509 0.0
H1933 H 0.11113 0.52346 0.85859 0.0
H1934 H 0.08853 0.50744 0.91939 0.0
H1935 H 0.08834 0.47702 0.91585 0.0
H1936 H 0.06894 0.52037 0.89743 0.0
H1937 H 0.14707 0.57132 0.89032 0.0
H1938 H 0.13768 0.55487 0.86935 0.0
H1939 H 0.13737 0.5459 0.89451 0.0
C1940 C 0.10652 0.49626 0.86927 0.0
C1941 C 0.09992 0.48278 0.8852 0.0
C1942 C 0.10649 0.51356 0.8713 0.0
C1943 C 0.10013 0.51785 0.88938 0.0
C1944 C 0.09361 0.50446 0.90534 0.0
H1945 H 0.11382 0.63098 0.91402 0.0
H1946 H 0.1155 0.6014 0.91574 0.0
C1947 C 0.09351 0.48709 0.90329 0.0
C1948 C 0.09935 0.53584 0.89123 0.0
H1949 H 0.12641 0.58465 0.88672 0.0
C1950 C 0.08154 0.53444 0.89527 0.0
C1951 C 0.11585 0.5542 0.88874 0.0
C1952 C 0.13561 0.55672 0.8857 0.0
C1953 C 0.07965 0.55087 0.89625 0.0
C1954 C 0.09595 0.56914 0.89261 0.0
C1955 C 0.11388 0.5706 0.88924 0.0
C1956 C 0.09462 0.58688 0.89185 0.0
C1957 C 0.06025 0.54849 0.90131 0.0
C1958 C 0.08249 0.5886 0.8777 0.0
C1959 C 0.0814 0.6054 0.87677 0.0
C1960 C 0.09263 0.62092 0.8898 0.0
C1961 C 0.10496 0.61927 0.9038 0.0
C1962 C 0.10595 0.60239 0.9048 0.0
H1963 H 0.05109 0.53485 0.90964 0.0
H1964 H 0.06171 0.56066 0.91067 0.0
H1965 H 0.05272 0.54804 0.887 0.0
H1966 H 0.07399 0.577 0.86721 0.0
H1967 H 0.0719 0.60627 0.86568 0.0
H1968 H 0.59769 0.07201 0.35738 0.0
H1969 H 0.56977 0.0765 0.35593 0.0
H1970 H 0.59397 0.11881 0.40375 0.0
H1971 H 0.62212 0.11469 0.40508 0.0
H1972 H 0.54378 0.07069 0.38609 0.0
H1973 H 0.58082 0.14667 0.36034 0.0
H1974 H 0.59201 0.132 0.35934 0.0
H1975 H 0.59096 0.14277 0.38293 0.0
C1976 C 0.59713 0.08234 0.36754 0.0
C1977 C 0.61216 0.09305 0.3813 0.0
C1978 C 0.58117 0.08488 0.36668 0.0
C1979 C 0.57996 0.0982 0.37951 0.0
C1980 C 0.59483 0.10878 0.3934 0.0
H1981 H 0.47602 0.10027 0.40972 0.0
H1982 H 0.50522 0.09798 0.41007 0.0
C1983 C 0.61085 0.1063 0.39423 0.0
C1984 C 0.5628 0.1005 0.37879 0.0
H1985 H 0.54828 0.13335 0.37092 0.0
C1986 C 0.54474 0.08436 0.3827 0.0
C1987 C 0.56409 0.11832 0.37412 0.0
C1988 C 0.58298 0.1359 0.36875 0.0
C1989 C 0.52795 0.08561 0.38238 0.0
C1990 C 0.52932 0.10357 0.37842 0.0
C1991 C 0.54732 0.11965 0.37416 0.0
C1992 C 0.51216 0.10589 0.37846 0.0
C1993 C 0.50885 0.06761 0.38596 0.0
C1994 C 0.50679 0.11178 0.36077 0.0
C1995 C 0.49018 0.11326 0.36055 0.0
C1996 C 0.47869 0.10891 0.37806 0.0
C1997 C 0.48444 0.10355 0.39592 0.0
C1998 C 0.50107 0.10213 0.39613 0.0
H1999 H 0.50974 0.0544 0.38336 0.0
H2000 H 0.50437 0.06741 0.40196 0.0
H2001 H 0.49756 0.06718 0.37587 0.0
H2002 H 0.51525 0.11486 0.34701 0.0
H2003 H 0.48618 0.11749 0.34657 0.0
H2004 H 0.49564 0.62812 0.86997 0.0
H2005 H 0.46509 0.59791 0.87196 0.0
H2006 H 0.48814 0.57792 0.91912 0.0
H2007 H 0.51888 0.60802 0.91708 0.0
H2008 H 0.47021 0.55148 0.88784 0.0
H2009 H 0.42353 0.57921 0.91586 0.0
H2010 H 0.43714 0.59137 0.89361 0.0
H2011 H 0.44944 0.59314 0.91705 0.0
C2012 C 0.49419 0.61738 0.8809 0.0
C2013 C 0.50969 0.62048 0.89338 0.0
C2014 C 0.47667 0.60017 0.8821 0.0
C2015 C 0.47428 0.58581 0.8959 0.0
C2016 C 0.48967 0.58889 0.90846 0.0
H2017 H 0.37998 0.46829 0.91453 0.0
H2018 H 0.41005 0.49897 0.91767 0.0
C2019 C 0.50722 0.60609 0.90727 0.0
C2020 C 0.45605 0.56719 0.8964 0.0
H2021 H 0.40765 0.54699 0.90339 0.0
C2022 C 0.45654 0.55044 0.89144 0.0
C2023 C 0.43828 0.56594 0.90108 0.0
C2024 C 0.43702 0.58334 0.90739 0.0
C2025 C 0.43962 0.5325 0.8904 0.0
C2026 C 0.42181 0.5313 0.89477 0.0
C2027 C 0.42134 0.548 0.90002 0.0
C2028 C 0.40343 0.5129 0.89338 0.0
C2029 C 0.44086 0.5151 0.884 0.0
C2030 C 0.38958 0.51078 0.87904 0.0
C2031 C 0.37237 0.49333 0.87726 0.0
C2032 C 0.36867 0.47771 0.88987 0.0
C2033 C 0.38245 0.48001 0.9045 0.0
C2034 C 0.39966 0.49748 0.90626 0.0
H2035 H 0.45491 0.51918 0.87682 0.0
H2036 H 0.4392 0.5062 0.89759 0.0
H2037 H 0.42919 0.50612 0.87314 0.0
H2038 H 0.39221 0.52257 0.86903 0.0
H2039 H 0.36204 0.49206 0.86589 0.0
loop_
_geom_bond_atom_site_label_1
_geom_bond_atom_site_label_2
_geom_bond_distance
_geom_bond_site_symmetry_2
_ccdc_geom_bond_type
C0 O1 1.160 . S
C0 O7 1.185 . S
O1 C0 1.160 . S
O2 Zn3 1.899 . S
O2 C10 1.284 . S
Zn3 O2 1.899 . S
Zn3 O4 2.032 . S
Zn3 O7 2.086 . S
Zn3 O12 1.977 . S
O4 Zn3 2.032 . S
O4 C8 1.278 . S
C5 O6 1.203 . S
C5 O12 1.267 . S
O6 C5 1.203 . S
O7 C0 1.185 . S
O7 Zn3 2.086 . S
C8 O4 1.278 . S
C8 O9 1.211 . S
O9 C8 1.211 . S
C10 O2 1.284 . S
C10 O11 1.273 . S
O11 C10 1.273 . S
O12 Zn3 1.977 . S
O12 C5 1.267 . S
C13 O14 1.160 . S
C13 O20 1.185 . S
O14 C13 1.160 . S
O15 Zn16 1.899 . S
O15 C23 1.284 . S
Zn16 O15 1.899 . S
Zn16 O17 2.032 . S
Zn16 O20 2.086 . S
Zn16 O25 1.977 . S
O17 Zn16 2.032 . S
O17 C21 1.278 . S
C18 O19 1.203 . S
C18 O25 1.267 . S
O19 C18 1.203 . S
O20 C13 1.185 . S
O20 Zn16 2.086 . S
C21 O17 1.278 . S
C21 O22 1.211 . S
O22 C21 1.211 . S
C23 O15 1.284 . S
C23 O24 1.273 . S
O24 C23 1.273 . S
O25 Zn16 1.977 . S
O25 C18 1.267 . S
C26 O27 1.160 . S
C26 O33 1.185 . S
O27 C26 1.160 . S
O28 Zn29 1.899 . S
O28 C36 1.284 . S
Zn29 O28 1.899 . S
Zn29 O30 2.032 . S
Zn29 O33 2.086 . S
Zn29 O38 1.977 . S
O30 Zn29 2.032 . S
O30 C34 1.278 . S
C31 O32 1.203 . S
C31 O38 1.267 . S
O32 C31 1.203 . S
O33 C26 1.185 . S
O33 Zn29 2.086 . S
C34 O30 1.278 . S
C34 O35 1.211 . S
O35 C34 1.211 . S
C36 O28 1.284 . S
C36 O37 1.273 . S
O37 C36 1.273 . S
O38 Zn29 1.977 . S
O38 C31 1.267 . S
C39 O40 1.160 . S
C39 O46 1.185 . S
O40 C39 1.160 . S
O41 Zn42 1.899 . S
O41 C49 1.284 . S
Zn42 O41 1.899 . S
Zn42 O43 2.032 . S
Zn42 O46 2.086 . S
Zn42 O51 1.977 . S
O43 Zn42 2.032 . S
O43 C47 1.278 . S
C44 O45 1.203 . S
C44 O51 1.267 . S
O45 C44 1.203 . S
O46 C39 1.185 . S
O46 Zn42 2.086 . S
C47 O43 1.278 . S
C47 O48 1.211 . S
O48 C47 1.211 . S
C49 O41 1.284 . S
C49 O50 1.273 . S
O50 C49 1.273 . S
O51 Zn42 1.977 . S
O51 C44 1.267 . S
C52 O53 1.160 . S
C52 O59 1.185 . S
O53 C52 1.160 . S
O54 Zn55 1.899 . S
O54 C62 1.284 . S
Zn55 O54 1.899 . S
Zn55 O56 2.032 . S
Zn55 O59 2.086 . S
Zn55 O64 1.977 . S
O56 Zn55 2.032 . S
O56 C60 1.278 . S
C57 O58 1.203 . S
C57 O64 1.267 . S
O58 C57 1.203 . S
O59 C52 1.185 . S
O59 Zn55 2.086 . S
C60 O56 1.278 . S
C60 O61 1.211 . S
O61 C60 1.211 . S
C62 O54 1.284 . S
C62 O63 1.273 . S
O63 C62 1.273 . S
O64 Zn55 1.977 . S
O64 C57 1.267 . S
C65 O66 1.160 . S
C65 O72 1.185 . S
O66 C65 1.160 . S
O67 Zn68 1.899 . S
O67 C75 1.284 . S
Zn68 O67 1.899 . S
Zn68 O69 2.032 . S
Zn68 O72 2.086 . S
Zn68 O77 1.977 . S
O69 Zn68 2.032 . S
O69 C73 1.278 . S
C70 O71 1.203 . S
C70 O77 1.267 . S
O71 C70 1.203 . S
O72 C65 1.185 . S
O72 Zn68 2.086 . S
C73 O69 1.278 . S
C73 O74 1.211 . S
O74 C73 1.211 . S
C75 O67 1.284 . S
C75 O76 1.273 . S
O76 C75 1.273 . S
O77 Zn68 1.977 . S
O77 C70 1.267 . S
C78 O79 1.160 . S
C78 O85 1.185 . S
O79 C78 1.160 . S
O80 Zn81 1.899 . S
O80 C88 1.284 . S
Zn81 O80 1.899 . S
Zn81 O82 2.032 . S
Zn81 O85 2.086 . S
Zn81 O90 1.977 . S
O82 Zn81 2.032 . S
O82 C86 1.278 . S
C83 O84 1.203 . S
C83 O90 1.267 . S
O84 C83 1.203 . S
O85 C78 1.185 . S
O85 Zn81 2.086 . S
C86 O82 1.278 . S
C86 O87 1.211 . S
O87 C86 1.211 . S
C88 O80 1.284 . S
C88 O89 1.273 . S
O89 C88 1.273 . S
O90 Zn81 1.977 . S
O90 C83 1.267 . S
C91 O92 1.160 . S
C91 O98 1.185 . S
O92 C91 1.160 . S
O93 Zn94 1.899 . S
O93 C101 1.284 . S
Zn94 O93 1.899 . S
Zn94 O95 2.032 . S
Zn94 O98 2.086 . S
Zn94 O103 1.977 . S
O95 Zn94 2.032 . S
O95 C99 1.278 . S
C96 O97 1.203 . S
C96 O103 1.267 . S
O97 C96 1.203 . S
O98 C91 1.185 . S
O98 Zn94 2.086 . S
C99 O95 1.278 . S
C99 O100 1.211 . S
O100 C99 1.211 . S
C101 O93 1.284 . S
C101 O102 1.273 . S
O102 C101 1.273 . S
O103 Zn94 1.977 . S
O103 C96 1.267 . S
C104 O105 1.160 . S
C104 O111 1.185 . S
O105 C104 1.160 . S
O106 Zn107 1.899 . S
O106 C114 1.284 . S
Zn107 O106 1.899 . S
Zn107 O108 2.032 . S
Zn107 O111 2.086 . S
Zn107 O116 1.977 . S
O108 Zn107 2.032 . S
O108 C112 1.278 . S
C109 O110 1.203 . S
C109 O116 1.267 . S
O110 C109 1.203 . S
O111 C104 1.185 . S
O111 Zn107 2.086 . S
C112 O108 1.278 . S
C112 O113 1.211 . S
O113 C112 1.211 . S
C114 O106 1.284 . S
C114 O115 1.273 . S
O115 C114 1.273 . S
O116 Zn107 1.977 . S
O116 C109 1.267 . S
C117 O118 1.160 . S
C117 O124 1.185 . S
O118 C117 1.160 . S
O119 Zn120 1.899 . S
O119 C127 1.284 . S
Zn120 O119 1.899 . S
Zn120 O121 2.032 . S
Zn120 O124 2.086 . S
Zn120 O129 1.977 . S
O121 Zn120 2.032 . S
O121 C125 1.278 . S
C122 O123 1.203 . S
C122 O129 1.267 . S
O123 C122 1.203 . S
O124 C117 1.185 . S
O124 Zn120 2.086 . S
C125 O121 1.278 . S
C125 O126 1.211 . S
O126 C125 1.211 . S
C127 O119 1.284 . S
C127 O128 1.273 . S
O128 C127 1.273 . S
O129 Zn120 1.977 . S
O129 C122 1.267 . S
C130 O131 1.160 . S
C130 O137 1.185 . S
O131 C130 1.160 . S
O132 Zn133 1.899 . S
O132 C140 1.284 . S
Zn133 O132 1.899 . S
Zn133 O134 2.032 . S
Zn133 O137 2.086 . S
Zn133 O142 1.977 . S
O134 Zn133 2.032 . S
O134 C138 1.278 . S
C135 O136 1.203 . S
C135 O142 1.267 . S
O136 C135 1.203 . S
O137 C130 1.185 . S
O137 Zn133 2.086 . S
C138 O134 1.278 . S
C138 O139 1.211 . S
O139 C138 1.211 . S
C140 O132 1.284 . S
C140 O141 1.273 . S
O141 C140 1.273 . S
O142 Zn133 1.977 . S
O142 C135 1.267 . S
C143 O144 1.160 . S
C143 O150 1.185 . S
O144 C143 1.160 . S
O145 Zn146 1.899 . S
O145 C153 1.284 . S
Zn146 O145 1.899 . S
Zn146 O147 2.032 . S
Zn146 O150 2.086 . S
Zn146 O155 1.977 . S
O147 Zn146 2.032 . S
O147 C151 1.278 . S
C148 O149 1.203 . S
C148 O155 1.267 . S
O149 C148 1.203 . S
O150 C143 1.185 . S
O150 Zn146 2.086 . S
C151 O147 1.278 . S
C151 O152 1.211 . S
O152 C151 1.211 . S
C153 O145 1.284 . S
C153 O154 1.273 . S
O154 C153 1.273 . S
O155 Zn146 1.977 . S
O155 C148 1.267 . S
C156 O157 1.160 . S
C156 O163 1.185 . S
O157 C156 1.160 . S
O158 Zn159 1.899 . S
O158 C166 1.284 . S
Zn159 O158 1.899 . S
Zn159 O160 2.032 . S
Zn159 O163 2.086 . S
Zn159 O168 1.977 . S
O160 Zn159 2.032 . S
O160 C164 1.278 . S
C161 O162 1.203 . S
C161 O168 1.267 . S
O162 C161 1.203 . S
O163 C156 1.185 . S
O163 Zn159 2.086 . S
C164 O160 1.278 . S
C164 O165 1.211 . S
O165 C164 1.211 . S
C166 O158 1.284 . S
C166 O167 1.273 . S
O167 C166 1.273 . S
O168 Zn159 1.977 . S
O168 C161 1.267 . S
C169 O170 1.160 . S
C169 O176 1.185 . S
O170 C169 1.160 . S
O171 Zn172 1.899 . S
O171 C179 1.284 . S
Zn172 O171 1.899 . S
Zn172 O173 2.032 . S
Zn172 O176 2.086 . S
Zn172 O181 1.977 . S
O173 Zn172 2.032 . S
O173 C177 1.278 . S
C174 O175 1.203 . S
C174 O181 1.267 . S
O175 C174 1.203 . S
O176 C169 1.185 . S
O176 Zn172 2.086 . S
C177 O173 1.278 . S
C177 O178 1.211 . S
O178 C177 1.211 . S
C179 O171 1.284 . S
C179 O180 1.273 . S
O180 C179 1.273 . S
O181 Zn172 1.977 . S
O181 C174 1.267 . S
C182 O183 1.160 . S
C182 O189 1.185 . S
O183 C182 1.160 . S
O184 Zn185 1.899 . S
O184 C192 1.284 . S
Zn185 O184 1.899 . S
Zn185 O186 2.032 . S
Zn185 O189 2.086 . S
Zn185 O194 1.977 . S
O186 Zn185 2.032 . S
O186 C190 1.278 . S
C187 O188 1.203 . S
C187 O194 1.267 . S
O188 C187 1.203 . S
O189 C182 1.185 . S
O189 Zn185 2.086 . S
C190 O186 1.278 . S
C190 O191 1.211 . S
O191 C190 1.211 . S
C192 O184 1.284 . S
C192 O193 1.273 . S
O193 C192 1.273 . S
O194 Zn185 1.977 . S
O194 C187 1.267 . S
C195 O196 1.160 . S
C195 O202 1.185 . S
O196 C195 1.160 . S
O197 Zn198 1.899 . S
O197 C205 1.284 . S
Zn198 O197 1.899 . S
Zn198 O199 2.032 . S
Zn198 O202 2.086 . S
Zn198 O207 1.977 . S
O199 Zn198 2.032 . S
O199 C203 1.278 . S
C200 O201 1.203 . S
C200 O207 1.267 . S
O201 C200 1.203 . S
O202 C195 1.185 . S
O202 Zn198 2.086 . S
C203 O199 1.278 . S
C203 O204 1.211 . S
O204 C203 1.211 . S
C205 O197 1.284 . S
C205 O206 1.273 . S
O206 C205 1.273 . S
O207 Zn198 1.977 . S
O207 C200 1.267 . S
C208 O209 1.160 . S
C208 O215 1.185 . S
O209 C208 1.160 . S
O210 Zn211 1.899 . S
O210 C218 1.284 . S
Zn211 O210 1.899 . S
Zn211 O212 2.032 . S
Zn211 O215 2.086 . S
Zn211 O220 1.977 . S
O212 Zn211 2.032 . S
O212 C216 1.278 . S
C213 O214 1.203 . S
C213 O220 1.267 . S
O214 C213 1.203 . S
O215 C208 1.185 . S
O215 Zn211 2.086 . S
C216 O212 1.278 . S
C216 O217 1.211 . S
O217 C216 1.211 . S
C218 O210 1.284 . S
C218 O219 1.273 . S
O219 C218 1.273 . S
O220 Zn211 1.977 . S
O220 C213 1.267 . S
C221 O222 1.160 . S
C221 O228 1.185 . S
O222 C221 1.160 . S
O223 Zn224 1.899 . S
O223 C231 1.284 . S
Zn224 O223 1.899 . S
Zn224 O225 2.032 . S
Zn224 O228 2.086 . S
Zn224 O233 1.977 . S
O225 Zn224 2.032 . S
O225 C229 1.278 . S
C226 O227 1.203 . S
C226 O233 1.267 . S
O227 C226 1.203 . S
O228 C221 1.185 . S
O228 Zn224 2.086 . S
C229 O225 1.278 . S
C229 O230 1.211 . S
O230 C229 1.211 . S
C231 O223 1.284 . S
C231 O232 1.273 . S
O232 C231 1.273 . S
O233 Zn224 1.977 . S
O233 C226 1.267 . S
C234 O235 1.160 . S
C234 O241 1.185 . S
O235 C234 1.160 . S
O236 Zn237 1.899 . S
O236 C244 1.284 . S
Zn237 O236 1.899 . S
Zn237 O238 2.032 . S
Zn237 O241 2.086 . S
Zn237 O246 1.977 . S
O238 Zn237 2.032 . S
O238 C242 1.278 . S
C239 O240 1.203 . S
C239 O246 1.267 . S
O240 C239 1.203 . S
O241 C234 1.185 . S
O241 Zn237 2.086 . S
C242 O238 1.278 . S
C242 O243 1.211 . S
O243 C242 1.211 . S
C244 O236 1.284 . S
C244 O245 1.273 . S
O245 C244 1.273 . S
O246 Zn237 1.977 . S
O246 C239 1.267 . S
C247 O248 1.160 . S
C247 O254 1.185 . S
O248 C247 1.160 . S
O249 Zn250 1.899 . S
O249 C257 1.284 . S
Zn250 O249 1.899 . S
Zn250 O251 2.032 . S
Zn250 O254 2.086 . S
Zn250 O259 1.977 . S
O251 Zn250 2.032 . S
O251 C255 1.278 . S
C252 O253 1.203 . S
C252 O259 1.267 . S
O253 C252 1.203 . S
O254 C247 1.185 . S
O254 Zn250 2.086 . S
C255 O251 1.278 . S
C255 O256 1.211 . S
O256 C255 1.211 . S
C257 O249 1.284 . S
C257 O258 1.273 . S
O258 C257 1.273 . S
O259 Zn250 1.977 . S
O259 C252 1.267 . S
C260 O261 1.160 . S
C260 O267 1.185 . S
O261 C260 1.160 . S
O262 Zn263 1.899 . S
O262 C270 1.284 . S
Zn263 O262 1.899 . S
Zn263 O264 2.032 . S
Zn263 O267 2.086 . S
Zn263 O272 1.977 . S
O264 Zn263 2.032 . S
O264 C268 1.278 . S
C265 O266 1.203 . S
C265 O272 1.267 . S
O266 C265 1.203 . S
O267 C260 1.185 . S
O267 Zn263 2.086 . S
C268 O264 1.278 . S
C268 O269 1.211 . S
O269 C268 1.211 . S
C270 O262 1.284 . S
C270 O271 1.273 . S
O271 C270 1.273 . S
O272 Zn263 1.977 . S
O272 C265 1.267 . S
C273 O274 1.160 . S
C273 O280 1.185 . S
O274 C273 1.160 . S
O275 Zn276 1.899 . S
O275 C283 1.284 . S
Zn276 O275 1.899 . S
Zn276 O277 2.032 . S
Zn276 O280 2.086 . S
Zn276 O285 1.977 . S
O277 Zn276 2.032 . S
O277 C281 1.278 . S
C278 O279 1.203 . S
C278 O285 1.267 . S
O279 C278 1.203 . S
O280 C273 1.185 . S
O280 Zn276 2.086 . S
C281 O277 1.278 . S
C281 O282 1.211 . S
O282 C281 1.211 . S
C283 O275 1.284 . S
C283 O284 1.273 . S
O284 C283 1.273 . S
O285 Zn276 1.977 . S
O285 C278 1.267 . S
C286 O287 1.160 . S
C286 O293 1.185 . S
O287 C286 1.160 . S
O288 Zn289 1.899 . S
O288 C296 1.284 . S
Zn289 O288 1.899 . S
Zn289 O290 2.032 . S
Zn289 O293 2.086 . S
Zn289 O298 1.977 . S
O290 Zn289 2.032 . S
O290 C294 1.278 . S
C291 O292 1.203 . S
C291 O298 1.267 . S
O292 C291 1.203 . S
O293 C286 1.185 . S
O293 Zn289 2.086 . S
C294 O290 1.278 . S
C294 O295 1.211 . S
O295 C294 1.211 . S
C296 O288 1.284 . S
C296 O297 1.273 . S
O297 C296 1.273 . S
O298 Zn289 1.977 . S
O298 C291 1.267 . S
C299 O300 1.160 . S
C299 O306 1.185 . S
O300 C299 1.160 . S
O301 Zn302 1.899 . S
O301 C309 1.284 . S
Zn302 O301 1.899 . S
Zn302 O303 2.032 . S
Zn302 O306 2.086 . S
Zn302 O311 1.977 . S
O303 Zn302 2.032 . S
O303 C307 1.278 . S
C304 O305 1.203 . S
C304 O311 1.267 . S
O305 C304 1.203 . S
O306 C299 1.185 . S
O306 Zn302 2.086 . S
C307 O303 1.278 . S
C307 O308 1.211 . S
O308 C307 1.211 . S
C309 O301 1.284 . S
C309 O310 1.273 . S
O310 C309 1.273 . S
O311 Zn302 1.977 . S
O311 C304 1.267 . S
H312 C320 0.929 . S
H313 C322 0.930 . S
H314 C324 0.930 . S
H315 C327 0.929 . S
H316 C330 0.930 . S
H317 C332 0.960 . S
H318 C332 0.960 . S
H319 C332 0.960 . S
C320 H312 0.929 . S
C320 C321 1.377 . S
C320 C322 1.384 . S
C321 C320 1.377 . S
C321 C327 1.390 . S
C322 H313 0.930 . S
C322 C320 1.384 . S
C322 C323 1.372 . S
C323 C322 1.372 . S
C323 C324 1.400 . S
C323 C328 1.490 . S
C324 H314 0.930 . S
C324 C323 1.400 . S
C324 C327 1.386 . S
H325 C341 0.930 . S
H326 C342 0.931 . S
C327 H315 0.929 . S
C327 C321 1.390 . S
C327 C324 1.386 . S
C328 C323 1.490 . S
C328 C330 1.395 . S
C328 C331 1.403 . S
H329 C335 0.930 . S
C330 H316 0.930 . S
C330 C328 1.395 . S
C330 C333 1.403 . S
C331 C328 1.403 . S
C331 C332 1.524 . S
C331 C335 1.400 . S
C332 H317 0.960 . S
C332 H318 0.960 . S
C332 H319 0.960 . S
C332 C331 1.524 . S
C333 C330 1.403 . S
C333 C334 1.392 . S
C333 C337 1.495 . S
C334 C333 1.392 . S
C334 C335 1.385 . S
C334 C336 1.478 . S
C335 H329 0.930 . S
C335 C331 1.400 . S
C335 C334 1.385 . S
C336 C334 1.478 . S
C336 C338 1.381 . S
C336 C342 1.383 . S
C337 C333 1.495 . S
C337 H343 0.959 . S
C337 H344 0.961 . S
C337 H345 0.960 . S
C338 C336 1.381 . S
C338 C339 1.394 . S
C338 H346 0.930 . S
C339 C338 1.394 . S
C339 C340 1.383 . S
C339 H347 0.929 . S
C340 C339 1.383 . S
C340 C341 1.377 . S
C341 H325 0.930 . S
C341 C340 1.377 . S
C341 C342 1.379 . S
C342 H326 0.931 . S
C342 C336 1.383 . S
C342 C341 1.379 . S
H343 C337 0.959 . S
H344 C337 0.961 . S
H345 C337 0.960 . S
H346 C338 0.930 . S
H347 C339 0.929 . S
H348 C356 0.929 . S
H349 C358 0.930 . S
H350 C360 0.930 . S
H351 C363 0.929 . S
H352 C366 0.930 . S
H353 C368 0.960 . S
H354 C368 0.960 . S
H355 C368 0.960 . S
C356 H348 0.929 . S
C356 C357 1.377 . S
C356 C358 1.384 . S
C357 C356 1.377 . S
C357 C363 1.390 . S
C358 H349 0.930 . S
C358 C356 1.384 . S
C358 C359 1.372 . S
C359 C358 1.372 . S
C359 C360 1.400 . S
C359 C364 1.490 . S
C360 H350 0.930 . S
C360 C359 1.400 . S
C360 C363 1.386 . S
H361 C377 0.930 . S
H362 C378 0.931 . S
C363 H351 0.929 . S
C363 C357 1.390 . S
C363 C360 1.386 . S
C364 C359 1.490 . S
C364 C366 1.395 . S
C364 C367 1.403 . S
H365 C371 0.930 . S
C366 H352 0.930 . S
C366 C364 1.395 . S
C366 C369 1.403 . S
C367 C364 1.403 . S
C367 C368 1.524 . S
C367 C371 1.400 . S
C368 H353 0.960 . S
C368 H354 0.960 . S
C368 H355 0.960 . S
C368 C367 1.524 . S
C369 C366 1.403 . S
C369 C370 1.392 . S
C369 C373 1.495 . S
C370 C369 1.392 . S
C370 C371 1.385 . S
C370 C372 1.478 . S
C371 H365 0.930 . S
C371 C367 1.400 . S
C371 C370 1.385 . S
C372 C370 1.478 . S
C372 C374 1.381 . S
C372 C378 1.383 . S
C373 C369 1.495 . S
C373 H379 0.959 . S
C373 H380 0.961 . S
C373 H381 0.960 . S
C374 C372 1.381 . S
C374 C375 1.394 . S
C374 H382 0.930 . S
C375 C374 1.394 . S
C375 C376 1.383 . S
C375 H383 0.929 . S
C376 C375 1.383 . S
C376 C377 1.377 . S
C377 H361 0.930 . S
C377 C376 1.377 . S
C377 C378 1.379 . S
C378 H362 0.931 . S
C378 C372 1.383 . S
C378 C377 1.379 . S
H379 C373 0.959 . S
H380 C373 0.961 . S
H381 C373 0.960 . S
H382 C374 0.930 . S
H383 C375 0.929 . S
H384 C392 0.929 . S
H385 C394 0.930 . S
H386 C396 0.930 . S
H387 C399 0.929 . S
H388 C402 0.930 . S
H389 C404 0.960 . S
H390 C404 0.960 . S
H391 C404 0.960 . S
C392 H384 0.929 . S
C392 C393 1.377 . S
C392 C394 1.384 . S
C393 C392 1.377 . S
C393 C399 1.390 . S
C394 H385 0.930 . S
C394 C392 1.384 . S
C394 C395 1.372 . S
C395 C394 1.372 . S
C395 C396 1.400 . S
C395 C400 1.490 . S
C396 H386 0.930 . S
C396 C395 1.400 . S
C396 C399 1.386 . S
H397 C413 0.930 . S
H398 C414 0.931 . S
C399 H387 0.929 . S
C399 C393 1.390 . S
C399 C396 1.386 . S
C400 C395 1.490 . S
C400 C402 1.395 . S
C400 C403 1.403 . S
H401 C407 0.930 . S
C402 H388 0.930 . S
C402 C400 1.395 . S
C402 C405 1.403 . S
C403 C400 1.403 . S
C403 C404 1.524 . S
C403 C407 1.400 . S
C404 H389 0.960 . S
C404 H390 0.960 . S
C404 H391 0.960 . S
C404 C403 1.524 . S
C405 C402 1.403 . S
C405 C406 1.392 . S
C405 C409 1.495 . S
C406 C405 1.392 . S
C406 C407 1.385 . S
C406 C408 1.478 . S
C407 H401 0.930 . S
C407 C403 1.400 . S
C407 C406 1.385 . S
C408 C406 1.478 . S
C408 C410 1.381 . S
C408 C414 1.383 . S
C409 C405 1.495 . S
C409 H415 0.959 . S
C409 H416 0.961 . S
C409 H417 0.960 . S
C410 C408 1.381 . S
C410 C411 1.394 . S
C410 H418 0.930 . S
C411 C410 1.394 . S
C411 C412 1.383 . S
C411 H419 0.929 . S
C412 C411 1.383 . S
C412 C413 1.377 . S
C413 H397 0.930 . S
C413 C412 1.377 . S
C413 C414 1.379 . S
C414 H398 0.931 . S
C414 C408 1.383 . S
C414 C413 1.379 . S
H415 C409 0.959 . S
H416 C409 0.961 . S
H417 C409 0.960 . S
H418 C410 0.930 . S
H419 C411 0.929 . S
H420 C428 0.929 . S
H421 C430 0.930 . S
H422 C432 0.930 . S
H423 C435 0.929 . S
H424 C438 0.930 . S
H425 C440 0.960 . S
H426 C440 0.960 . S
H427 C440 0.960 . S
C428 H420 0.929 . S
C428 C429 1.377 . S
C428 C430 1.384 . S
C429 C428 1.377 . S
C429 C435 1.390 . S
C430 H421 0.930 . S
C430 C428 1.384 . S
C430 C431 1.372 . S
C431 C430 1.372 . S
C431 C432 1.400 . S
C431 C436 1.490 . S
C432 H422 0.930 . S
C432 C431 1.400 . S
C432 C435 1.386 . S
H433 C449 0.930 . S
H434 C450 0.931 . S
C435 H423 0.929 . S
C435 C429 1.390 . S
C435 C432 1.386 . S
C436 C431 1.490 . S
C436 C438 1.395 . S
C436 C439 1.403 . S
H437 C443 0.930 . S
C438 H424 0.930 . S
C438 C436 1.395 . S
C438 C441 1.403 . S
C439 C436 1.403 . S
C439 C440 1.524 . S
C439 C443 1.400 . S
C440 H425 0.960 . S
C440 H426 0.960 . S
C440 H427 0.960 . S
C440 C439 1.524 . S
C441 C438 1.403 . S
C441 C442 1.392 . S
C441 C445 1.495 . S
C442 C441 1.392 . S
C442 C443 1.385 . S
C442 C444 1.478 . S
C443 H437 0.930 . S
C443 C439 1.400 . S
C443 C442 1.385 . S
C444 C442 1.478 . S
C444 C446 1.381 . S
C444 C450 1.383 . S
C445 C441 1.495 . S
C445 H451 0.959 . S
C445 H452 0.961 . S
C445 H453 0.960 . S
C446 C444 1.381 . S
C446 C447 1.394 . S
C446 H454 0.930 . S
C447 C446 1.394 . S
C447 C448 1.383 . S
C447 H455 0.929 . S
C448 C447 1.383 . S
C448 C449 1.377 . S
C449 H433 0.930 . S
C449 C448 1.377 . S
C449 C450 1.379 . S
C450 H434 0.931 . S
C450 C444 1.383 . S
C450 C449 1.379 . S
H451 C445 0.959 . S
H452 C445 0.961 . S
H453 C445 0.960 . S
H454 C446 0.930 . S
H455 C447 0.929 . S
H456 C464 0.929 . S
H457 C466 0.930 . S
H458 C468 0.930 . S
H459 C471 0.929 . S
H460 C474 0.930 . S
H461 C476 0.960 . S
H462 C476 0.960 . S
H463 C476 0.960 . S
C464 H456 0.929 . S
C464 C465 1.377 . S
C464 C466 1.384 . S
C465 C464 1.377 . S
C465 C471 1.390 . S
C466 H457 0.930 . S
C466 C464 1.384 . S
C466 C467 1.372 . S
C467 C466 1.372 . S
C467 C468 1.400 . S
C467 C472 1.490 . S
C468 H458 0.930 . S
C468 C467 1.400 . S
C468 C471 1.386 . S
H469 C485 0.930 . S
H470 C486 0.931 . S
C471 H459 0.929 . S
C471 C465 1.390 . S
C471 C468 1.386 . S
C472 C467 1.490 . S
C472 C474 1.395 . S
C472 C475 1.403 . S
H473 C479 0.930 . S
C474 H460 0.930 . S
C474 C472 1.395 . S
C474 C477 1.403 . S
C475 C472 1.403 . S
C475 C476 1.524 . S
C475 C479 1.400 . S
C476 H461 0.960 . S
C476 H462 0.960 . S
C476 H463 0.960 . S
C476 C475 1.524 . S
C477 C474 1.403 . S
C477 C478 1.392 . S
C477 C481 1.495 . S
C478 C477 1.392 . S
C478 C479 1.385 . S
C478 C480 1.478 . S
C479 H473 0.930 . S
C479 C475 1.400 . S
C479 C478 1.385 . S
C480 C478 1.478 . S
C480 C482 1.381 . S
C480 C486 1.383 . S
C481 C477 1.495 . S
C481 H487 0.959 . S
C481 H488 0.961 . S
C481 H489 0.960 . S
C482 C480 1.381 . S
C482 C483 1.394 . S
C482 H490 0.930 . S
C483 C482 1.394 . S
C483 C484 1.383 . S
C483 H491 0.929 . S
C484 C483 1.383 . S
C484 C485 1.377 . S
C485 H469 0.930 . S
C485 C484 1.377 . S
C485 C486 1.379 . S
C486 H470 0.931 . S
C486 C480 1.383 . S
C486 C485 1.379 . S
H487 C481 0.959 . S
H488 C481 0.961 . S
H489 C481 0.960 . S
H490 C482 0.930 . S
H491 C483 0.929 . S
H492 C500 0.929 . S
H493 C502 0.930 . S
H494 C504 0.930 . S
H495 C507 0.929 . S
H496 C510 0.930 . S
H497 C512 0.960 . S
H498 C512 0.960 . S
H499 C512 0.960 . S
C500 H492 0.929 . S
C500 C501 1.377 . S
C500 C502 1.384 . S
C501 C500 1.377 . S
C501 C507 1.390 . S
C502 H493 0.930 . S
C502 C500 1.384 . S
C502 C503 1.372 . S
C503 C502 1.372 . S
C503 C504 1.400 . S
C503 C508 1.490 . S
C504 H494 0.930 . S
C504 C503 1.400 . S
C504 C507 1.386 . S
H505 C521 0.930 . S
H506 C522 0.931 . S
C507 H495 0.929 . S
C507 C501 1.390 . S
C507 C504 1.386 . S
C508 C503 1.490 . S
C508 C510 1.395 . S
C508 C511 1.403 . S
H509 C515 0.930 . S
C510 H496 0.930 . S
C510 C508 1.395 . S
C510 C513 1.403 . S
C511 C508 1.403 . S
C511 C512 1.524 . S
C511 C515 1.400 . S
C512 H497 0.960 . S
C512 H498 0.960 . S
C512 H499 0.960 . S
C512 C511 1.524 . S
C513 C510 1.403 . S
C513 C514 1.392 . S
C513 C517 1.495 . S
C514 C513 1.392 . S
C514 C515 1.385 . S
C514 C516 1.478 . S
C515 H509 0.930 . S
C515 C511 1.400 . S
C515 C514 1.385 . S
C516 C514 1.478 . S
C516 C518 1.381 . S
C516 C522 1.383 . S
C517 C513 1.495 . S
C517 H523 0.959 . S
C517 H524 0.961 . S
C517 H525 0.960 . S
C518 C516 1.381 . S
C518 C519 1.394 . S
C518 H526 0.930 . S
C519 C518 1.394 . S
C519 C520 1.383 . S
C519 H527 0.929 . S
C520 C519 1.383 . S
C520 C521 1.377 . S
C521 H505 0.930 . S
C521 C520 1.377 . S
C521 C522 1.379 . S
C522 H506 0.931 . S
C522 C516 1.383 . S
C522 C521 1.379 . S
H523 C517 0.959 . S
H524 C517 0.961 . S
H525 C517 0.960 . S
H526 C518 0.930 . S
H527 C519 0.929 . S
H528 C536 0.929 . S
H529 C538 0.930 . S
H530 C540 0.930 . S
H531 C543 0.929 . S
H532 C546 0.930 . S
H533 C548 0.960 . S
H534 C548 0.960 . S
H535 C548 0.960 . S
C536 H528 0.929 . S
C536 C537 1.377 . S
C536 C538 1.384 . S
C537 C536 1.377 . S
C537 C543 1.390 . S
C538 H529 0.930 . S
C538 C536 1.384 . S
C538 C539 1.372 . S
C539 C538 1.372 . S
C539 C540 1.400 . S
C539 C544 1.490 . S
C540 H530 0.930 . S
C540 C539 1.400 . S
C540 C543 1.386 . S
H541 C557 0.930 . S
H542 C558 0.931 . S
C543 H531 0.929 . S
C543 C537 1.390 . S
C543 C540 1.386 . S
C544 C539 1.490 . S
C544 C546 1.395 . S
C544 C547 1.403 . S
H545 C551 0.930 . S
C546 H532 0.930 . S
C546 C544 1.395 . S
C546 C549 1.403 . S
C547 C544 1.403 . S
C547 C548 1.524 . S
C547 C551 1.400 . S
C548 H533 0.960 . S
C548 H534 0.960 . S
C548 H535 0.960 . S
C548 C547 1.524 . S
C549 C546 1.403 . S
C549 C550 1.392 . S
C549 C553 1.495 . S
C550 C549 1.392 . S
C550 C551 1.385 . S
C550 C552 1.478 . S
C551 H545 0.930 . S
C551 C547 1.400 . S
C551 C550 1.385 . S
C552 C550 1.478 . S
C552 C554 1.381 . S
C552 C558 1.383 . S
C553 C549 1.495 . S
C553 H559 0.959 . S
C553 H560 0.961 . S
C553 H561 0.960 . S
C554 C552 1.381 . S
C554 C555 1.394 . S
C554 H562 0.930 . S
C555 C554 1.394 . S
C555 C556 1.383 . S
C555 H563 0.929 . S
C556 C555 1.383 . S
C556 C557 1.377 . S
C557 H541 0.930 . S
C557 C556 1.377 . S
C557 C558 1.379 . S
C558 H542 0.931 . S
C558 C552 1.383 . S
C558 C557 1.379 . S
H559 C553 0.959 . S
H560 C553 0.961 . S
H561 C553 0.960 . S
H562 C554 0.930 . S
H563 C555 0.929 . S
H564 C572 0.929 . S
H565 C574 0.930 . S
H566 C576 0.930 . S
H567 C579 0.929 . S
H568 C582 0.930 . S
H569 C584 0.960 . S
H570 C584 0.960 . S
H571 C584 0.960 . S
C572 H564 0.929 . S
C572 C573 1.377 . S
C572 C574 1.384 . S
C573 C572 1.377 . S
C573 C579 1.390 . S
C574 H565 0.930 . S
C574 C572 1.384 . S
C574 C575 1.372 . S
C575 C574 1.372 . S
C575 C576 1.400 . S
C575 C580 1.490 . S
C576 H566 0.930 . S
C576 C575 1.400 . S
C576 C579 1.386 . S
H577 C593 0.930 . S
H578 C594 0.931 . S
C579 H567 0.929 . S
C579 C573 1.390 . S
C579 C576 1.386 . S
C580 C575 1.490 . S
C580 C582 1.395 . S
C580 C583 1.403 . S
H581 C587 0.930 . S
C582 H568 0.930 . S
C582 C580 1.395 . S
C582 C585 1.403 . S
C583 C580 1.403 . S
C583 C584 1.524 . S
C583 C587 1.400 . S
C584 H569 0.960 . S
C584 H570 0.960 . S
C584 H571 0.960 . S
C584 C583 1.524 . S
C585 C582 1.403 . S
C585 C586 1.392 . S
C585 C589 1.495 . S
C586 C585 1.392 . S
C586 C587 1.385 . S
C586 C588 1.478 . S
C587 H581 0.930 . S
C587 C583 1.400 . S
C587 C586 1.385 . S
C588 C586 1.478 . S
C588 C590 1.381 . S
C588 C594 1.383 . S
C589 C585 1.495 . S
C589 H595 0.959 . S
C589 H596 0.961 . S
C589 H597 0.960 . S
C590 C588 1.381 . S
C590 C591 1.394 . S
C590 H598 0.930 . S
C591 C590 1.394 . S
C591 C592 1.383 . S
C591 H599 0.929 . S
C592 C591 1.383 . S
C592 C593 1.377 . S
C593 H577 0.930 . S
C593 C592 1.377 . S
C593 C594 1.379 . S
C594 H578 0.931 . S
C594 C588 1.383 . S
C594 C593 1.379 . S
H595 C589 0.959 . S
H596 C589 0.961 . S
H597 C589 0.960 . S
H598 C590 0.930 . S
H599 C591 0.929 . S
H600 C608 0.929 . S
H601 C610 0.930 . S
H602 C612 0.930 . S
H603 C615 0.929 . S
H604 C618 0.930 . S
H605 C620 0.960 . S
H606 C620 0.960 . S
H607 C620 0.960 . S
C608 H600 0.929 . S
C608 C609 1.377 . S
C608 C610 1.384 . S
C609 C608 1.377 . S
C609 C615 1.390 . S
C610 H601 0.930 . S
C610 C608 1.384 . S
C610 C611 1.372 . S
C611 C610 1.372 . S
C611 C612 1.400 . S
C611 C616 1.490 . S
C612 H602 0.930 . S
C612 C611 1.400 . S
C612 C615 1.386 . S
H613 C629 0.930 . S
H614 C630 0.931 . S
C615 H603 0.929 . S
C615 C609 1.390 . S
C615 C612 1.386 . S
C616 C611 1.490 . S
C616 C618 1.395 . S
C616 C619 1.403 . S
H617 C623 0.930 . S
C618 H604 0.930 . S
C618 C616 1.395 . S
C618 C621 1.403 . S
C619 C616 1.403 . S
C619 C620 1.524 . S
C619 C623 1.400 . S
C620 H605 0.960 . S
C620 H606 0.960 . S
C620 H607 0.960 . S
C620 C619 1.524 . S
C621 C618 1.403 . S
C621 C622 1.392 . S
C621 C625 1.495 . S
C622 C621 1.392 . S
C622 C623 1.385 . S
C622 C624 1.478 . S
C623 H617 0.930 . S
C623 C619 1.400 . S
C623 C622 1.385 . S
C624 C622 1.478 . S
C624 C626 1.381 . S
C624 C630 1.383 . S
C625 C621 1.495 . S
C625 H631 0.959 . S
C625 H632 0.961 . S
C625 H633 0.960 . S
C626 C624 1.381 . S
C626 C627 1.394 . S
C626 H634 0.930 . S
C627 C626 1.394 . S
C627 C628 1.383 . S
C627 H635 0.929 . S
C628 C627 1.383 . S
C628 C629 1.377 . S
C629 H613 0.930 . S
C629 C628 1.377 . S
C629 C630 1.379 . S
C630 H614 0.931 . S
C630 C624 1.383 . S
C630 C629 1.379 . S
H631 C625 0.959 . S
H632 C625 0.961 . S
H633 C625 0.960 . S
H634 C626 0.930 . S
H635 C627 0.929 . S
H636 C644 0.929 . S
H637 C646 0.930 . S
H638 C648 0.930 . S
H639 C651 0.929 . S
H640 C654 0.930 . S
H641 C656 0.960 . S
H642 C656 0.960 . S
H643 C656 0.960 . S
C644 H636 0.929 . S
C644 C645 1.377 . S
C644 C646 1.384 . S
C645 C644 1.377 . S
C645 C651 1.390 . S
C646 H637 0.930 . S
C646 C644 1.384 . S
C646 C647 1.372 . S
C647 C646 1.372 . S
C647 C648 1.400 . S
C647 C652 1.490 . S
C648 H638 0.930 . S
C648 C647 1.400 . S
C648 C651 1.386 . S
H649 C665 0.930 . S
H650 C666 0.931 . S
C651 H639 0.929 . S
C651 C645 1.390 . S
C651 C648 1.386 . S
C652 C647 1.490 . S
C652 C654 1.395 . S
C652 C655 1.403 . S
H653 C659 0.930 . S
C654 H640 0.930 . S
C654 C652 1.395 . S
C654 C657 1.403 . S
C655 C652 1.403 . S
C655 C656 1.524 . S
C655 C659 1.400 . S
C656 H641 0.960 . S
C656 H642 0.960 . S
C656 H643 0.960 . S
C656 C655 1.524 . S
C657 C654 1.403 . S
C657 C658 1.392 . S
C657 C661 1.495 . S
C658 C657 1.392 . S
C658 C659 1.385 . S
C658 C660 1.478 . S
C659 H653 0.930 . S
C659 C655 1.400 . S
C659 C658 1.385 . S
C660 C658 1.478 . S
C660 C662 1.381 . S
C660 C666 1.383 . S
C661 C657 1.495 . S
C661 H667 0.959 . S
C661 H668 0.961 . S
C661 H669 0.960 . S
C662 C660 1.381 . S
C662 C663 1.394 . S
C662 H670 0.930 . S
C663 C662 1.394 . S
C663 C664 1.383 . S
C663 H671 0.929 . S
C664 C663 1.383 . S
C664 C665 1.377 . S
C665 H649 0.930 . S
C665 C664 1.377 . S
C665 C666 1.379 . S
C666 H650 0.931 . S
C666 C660 1.383 . S
C666 C665 1.379 . S
H667 C661 0.959 . S
H668 C661 0.961 . S
H669 C661 0.960 . S
H670 C662 0.930 . S
H671 C663 0.929 . S
H672 C680 0.929 . S
H673 C682 0.930 . S
H674 C684 0.930 . S
H675 C687 0.929 . S
H676 C690 0.930 . S
H677 C692 0.960 . S
H678 C692 0.960 . S
H679 C692 0.960 . S
C680 H672 0.929 . S
C680 C681 1.377 . S
C680 C682 1.384 . S
C681 C680 1.377 . S
C681 C687 1.390 . S
C682 H673 0.930 . S
C682 C680 1.384 . S
C682 C683 1.372 . S
C683 C682 1.372 . S
C683 C684 1.400 . S
C683 C688 1.490 . S
C684 H674 0.930 . S
C684 C683 1.400 . S
C684 C687 1.386 . S
H685 C701 0.930 . S
H686 C702 0.931 . S
C687 H675 0.929 . S
C687 C681 1.390 . S
C687 C684 1.386 . S
C688 C683 1.490 . S
C688 C690 1.395 . S
C688 C691 1.403 . S
H689 C695 0.930 . S
C690 H676 0.930 . S
C690 C688 1.395 . S
C690 C693 1.403 . S
C691 C688 1.403 . S
C691 C692 1.524 . S
C691 C695 1.400 . S
C692 H677 0.960 . S
C692 H678 0.960 . S
C692 H679 0.960 . S
C692 C691 1.524 . S
C693 C690 1.403 . S
C693 C694 1.392 . S
C693 C697 1.495 . S
C694 C693 1.392 . S
C694 C695 1.385 . S
C694 C696 1.478 . S
C695 H689 0.930 . S
C695 C691 1.400 . S
C695 C694 1.385 . S
C696 C694 1.478 . S
C696 C698 1.381 . S
C696 C702 1.383 . S
C697 C693 1.495 . S
C697 H703 0.959 . S
C697 H704 0.961 . S
C697 H705 0.960 . S
C698 C696 1.381 . S
C698 C699 1.394 . S
C698 H706 0.930 . S
C699 C698 1.394 . S
C699 C700 1.383 . S
C699 H707 0.929 . S
C700 C699 1.383 . S
C700 C701 1.377 . S
C701 H685 0.930 . S
C701 C700 1.377 . S
C701 C702 1.379 . S
C702 H686 0.931 . S
C702 C696 1.383 . S
C702 C701 1.379 . S
H703 C697 0.959 . S
H704 C697 0.961 . S
H705 C697 0.960 . S
H706 C698 0.930 . S
H707 C699 0.929 . S
H708 C716 0.929 . S
H709 C718 0.930 . S
H710 C720 0.930 . S
H711 C723 0.929 . S
H712 C726 0.930 . S
H713 C728 0.960 . S
H714 C728 0.960 . S
H715 C728 0.960 . S
C716 H708 0.929 . S
C716 C717 1.377 . S
C716 C718 1.384 . S
C717 C716 1.377 . S
C717 C723 1.390 . S
C718 H709 0.930 . S
C718 C716 1.384 . S
C718 C719 1.372 . S
C719 C718 1.372 . S
C719 C720 1.400 . S
C719 C724 1.490 . S
C720 H710 0.930 . S
C720 C719 1.400 . S
C720 C723 1.386 . S
H721 C737 0.930 . S
H722 C738 0.931 . S
C723 H711 0.929 . S
C723 C717 1.390 . S
C723 C720 1.386 . S
C724 C719 1.490 . S
C724 C726 1.395 . S
C724 C727 1.403 . S
H725 C731 0.930 . S
C726 H712 0.930 . S
C726 C724 1.395 . S
C726 C729 1.403 . S
C727 C724 1.403 . S
C727 C728 1.524 . S
C727 C731 1.400 . S
C728 H713 0.960 . S
C728 H714 0.960 . S
C728 H715 0.960 . S
C728 C727 1.524 . S
C729 C726 1.403 . S
C729 C730 1.392 . S
C729 C733 1.495 . S
C730 C729 1.392 . S
C730 C731 1.385 . S
C730 C732 1.478 . S
C731 H725 0.930 . S
C731 C727 1.400 . S
C731 C730 1.385 . S
C732 C730 1.478 . S
C732 C734 1.381 . S
C732 C738 1.383 . S
C733 C729 1.495 . S
C733 H739 0.959 . S
C733 H740 0.961 . S
C733 H741 0.960 . S
C734 C732 1.381 . S
C734 C735 1.394 . S
C734 H742 0.930 . S
C735 C734 1.394 . S
C735 C736 1.383 . S
C735 H743 0.929 . S
C736 C735 1.383 . S
C736 C737 1.377 . S
C737 H721 0.930 . S
C737 C736 1.377 . S
C737 C738 1.379 . S
C738 H722 0.931 . S
C738 C732 1.383 . S
C738 C737 1.379 . S
H739 C733 0.959 . S
H740 C733 0.961 . S
H741 C733 0.960 . S
H742 C734 0.930 . S
H743 C735 0.929 . S
H744 C752 0.929 . S
H745 C754 0.930 . S
H746 C756 0.930 . S
H747 C759 0.929 . S
H748 C762 0.930 . S
H749 C764 0.960 . S
H750 C764 0.960 . S
H751 C764 0.960 . S
C752 H744 0.929 . S
C752 C753 1.377 . S
C752 C754 1.384 . S
C753 C752 1.377 . S
C753 C759 1.390 . S
C754 H745 0.930 . S
C754 C752 1.384 . S
C754 C755 1.372 . S
C755 C754 1.372 . S
C755 C756 1.400 . S
C755 C760 1.490 . S
C756 H746 0.930 . S
C756 C755 1.400 . S
C756 C759 1.386 . S
H757 C773 0.930 . S
H758 C774 0.931 . S
C759 H747 0.929 . S
C759 C753 1.390 . S
C759 C756 1.386 . S
C760 C755 1.490 . S
C760 C762 1.395 . S
C760 C763 1.403 . S
H761 C767 0.930 . S
C762 H748 0.930 . S
C762 C760 1.395 . S
C762 C765 1.403 . S
C763 C760 1.403 . S
C763 C764 1.524 . S
C763 C767 1.400 . S
C764 H749 0.960 . S
C764 H750 0.960 . S
C764 H751 0.960 . S
C764 C763 1.524 . S
C765 C762 1.403 . S
C765 C766 1.392 . S
C765 C769 1.495 . S
C766 C765 1.392 . S
C766 C767 1.385 . S
C766 C768 1.478 . S
C767 H761 0.930 . S
C767 C763 1.400 . S
C767 C766 1.385 . S
C768 C766 1.478 . S
C768 C770 1.381 . S
C768 C774 1.383 . S
C769 C765 1.495 . S
C769 H775 0.959 . S
C769 H776 0.961 . S
C769 H777 0.960 . S
C770 C768 1.381 . S
C770 C771 1.394 . S
C770 H778 0.930 . S
C771 C770 1.394 . S
C771 C772 1.383 . S
C771 H779 0.929 . S
C772 C771 1.383 . S
C772 C773 1.377 . S
C773 H757 0.930 . S
C773 C772 1.377 . S
C773 C774 1.379 . S
C774 H758 0.931 . S
C774 C768 1.383 . S
C774 C773 1.379 . S
H775 C769 0.959 . S
H776 C769 0.961 . S
H777 C769 0.960 . S
H778 C770 0.930 . S
H779 C771 0.929 . S
H780 C788 0.929 . S
H781 C790 0.930 . S
H782 C792 0.930 . S
H783 C795 0.929 . S
H784 C798 0.930 . S
H785 C800 0.960 . S
H786 C800 0.960 . S
H787 C800 0.960 . S
C788 H780 0.929 . S
C788 C789 1.377 . S
C788 C790 1.384 . S
C789 C788 1.377 . S
C789 C795 1.390 . S
C790 H781 0.930 . S
C790 C788 1.384 . S
C790 C791 1.372 . S
C791 C790 1.372 . S
C791 C792 1.400 . S
C791 C796 1.490 . S
C792 H782 0.930 . S
C792 C791 1.400 . S
C792 C795 1.386 . S
H793 C809 0.930 . S
H794 C810 0.931 . S
C795 H783 0.929 . S
C795 C789 1.390 . S
C795 C792 1.386 . S
C796 C791 1.490 . S
C796 C798 1.395 . S
C796 C799 1.403 . S
H797 C803 0.930 . S
C798 H784 0.930 . S
C798 C796 1.395 . S
C798 C801 1.403 . S
C799 C796 1.403 . S
C799 C800 1.524 . S
C799 C803 1.400 . S
C800 H785 0.960 . S
C800 H786 0.960 . S
C800 H787 0.960 . S
C800 C799 1.524 . S
C801 C798 1.403 . S
C801 C802 1.392 . S
C801 C805 1.495 . S
C802 C801 1.392 . S
C802 C803 1.385 . S
C802 C804 1.478 . S
C803 H797 0.930 . S
C803 C799 1.400 . S
C803 C802 1.385 . S
C804 C802 1.478 . S
C804 C806 1.381 . S
C804 C810 1.383 . S
C805 C801 1.495 . S
C805 H811 0.959 . S
C805 H812 0.961 . S
C805 H813 0.960 . S
C806 C804 1.381 . S
C806 C807 1.394 . S
C806 H814 0.930 . S
C807 C806 1.394 . S
C807 C808 1.383 . S
C807 H815 0.929 . S
C808 C807 1.383 . S
C808 C809 1.377 . S
C809 H793 0.930 . S
C809 C808 1.377 . S
C809 C810 1.379 . S
C810 H794 0.931 . S
C810 C804 1.383 . S
C810 C809 1.379 . S
H811 C805 0.959 . S
H812 C805 0.961 . S
H813 C805 0.960 . S
H814 C806 0.930 . S
H815 C807 0.929 . S
H816 C824 0.929 . S
H817 C826 0.930 . S
H818 C828 0.930 . S
H819 C831 0.929 . S
H820 C834 0.930 . S
H821 C836 0.960 . S
H822 C836 0.960 . S
H823 C836 0.960 . S
C824 H816 0.929 . S
C824 C825 1.377 . S
C824 C826 1.384 . S
C825 C824 1.377 . S
C825 C831 1.390 . S
C826 H817 0.930 . S
C826 C824 1.384 . S
C826 C827 1.372 . S
C827 C826 1.372 . S
C827 C828 1.400 . S
C827 C832 1.490 . S
C828 H818 0.930 . S
C828 C827 1.400 . S
C828 C831 1.386 . S
H829 C845 0.930 . S
H830 C846 0.931 . S
C831 H819 0.929 . S
C831 C825 1.390 . S
C831 C828 1.386 . S
C832 C827 1.490 . S
C832 C834 1.395 . S
C832 C835 1.403 . S
H833 C839 0.930 . S
C834 H820 0.930 . S
C834 C832 1.395 . S
C834 C837 1.403 . S
C835 C832 1.403 . S
C835 C836 1.524 . S
C835 C839 1.400 . S
C836 H821 0.960 . S
C836 H822 0.960 . S
C836 H823 0.960 . S
C836 C835 1.524 . S
C837 C834 1.403 . S
C837 C838 1.392 . S
C837 C841 1.495 . S
C838 C837 1.392 . S
C838 C839 1.385 . S
C838 C840 1.478 . S
C839 H833 0.930 . S
C839 C835 1.400 . S
C839 C838 1.385 . S
C840 C838 1.478 . S
C840 C842 1.381 . S
C840 C846 1.383 . S
C841 C837 1.495 . S
C841 H847 0.959 . S
C841 H848 0.961 . S
C841 H849 0.960 . S
C842 C840 1.381 . S
C842 C843 1.394 . S
C842 H850 0.930 . S
C843 C842 1.394 . S
C843 C844 1.383 . S
C843 H851 0.929 . S
C844 C843 1.383 . S
C844 C845 1.377 . S
C845 H829 0.930 . S
C845 C844 1.377 . S
C845 C846 1.379 . S
C846 H830 0.931 . S
C846 C840 1.383 . S
C846 C845 1.379 . S
H847 C841 0.959 . S
H848 C841 0.961 . S
H849 C841 0.960 . S
H850 C842 0.930 . S
H851 C843 0.929 . S
H852 C860 0.929 . S
H853 C862 0.930 . S
H854 C864 0.930 . S
H855 C867 0.929 . S
H856 C870 0.930 . S
H857 C872 0.960 . S
H858 C872 0.960 . S
H859 C872 0.960 . S
C860 H852 0.929 . S
C860 C861 1.377 . S
C860 C862 1.384 . S
C861 C860 1.377 . S
C861 C867 1.390 . S
C862 H853 0.930 . S
C862 C860 1.384 . S
C862 C863 1.372 . S
C863 C862 1.372 . S
C863 C864 1.400 . S
C863 C868 1.490 . S
C864 H854 0.930 . S
C864 C863 1.400 . S
C864 C867 1.386 . S
H865 C881 0.930 . S
H866 C882 0.931 . S
C867 H855 0.929 . S
C867 C861 1.390 . S
C867 C864 1.386 . S
C868 C863 1.490 . S
C868 C870 1.395 . S
C868 C871 1.403 . S
H869 C875 0.930 . S
C870 H856 0.930 . S
C870 C868 1.395 . S
C870 C873 1.403 . S
C871 C868 1.403 . S
C871 C872 1.524 . S
C871 C875 1.400 . S
C872 H857 0.960 . S
C872 H858 0.960 . S
C872 H859 0.960 . S
C872 C871 1.524 . S
C873 C870 1.403 . S
C873 C874 1.392 . S
C873 C877 1.495 . S
C874 C873 1.392 . S
C874 C875 1.385 . S
C874 C876 1.478 . S
C875 H869 0.930 . S
C875 C871 1.400 . S
C875 C874 1.385 . S
C876 C874 1.478 . S
C876 C878 1.381 . S
C876 C882 1.383 . S
C877 C873 1.495 . S
C877 H883 0.959 . S
C877 H884 0.961 . S
C877 H885 0.960 . S
C878 C876 1.381 . S
C878 C879 1.394 . S
C878 H886 0.930 . S
C879 C878 1.394 . S
C879 C880 1.383 . S
C879 H887 0.929 . S
C880 C879 1.383 . S
C880 C881 1.377 . S
C881 H865 0.930 . S
C881 C880 1.377 . S
C881 C882 1.379 . S
C882 H866 0.931 . S
C882 C876 1.383 . S
C882 C881 1.379 . S
H883 C877 0.959 . S
H884 C877 0.961 . S
H885 C877 0.960 . S
H886 C878 0.930 . S
H887 C879 0.929 . S
H888 C896 0.929 . S
H889 C898 0.930 . S
H890 C900 0.930 . S
H891 C903 0.929 . S
H892 C906 0.930 . S
H893 C908 0.960 . S
H894 C908 0.960 . S
H895 C908 0.960 . S
C896 H888 0.929 . S
C896 C897 1.377 . S
C896 C898 1.384 . S
C897 C896 1.377 . S
C897 C903 1.390 . S
C898 H889 0.930 . S
C898 C896 1.384 . S
C898 C899 1.372 . S
C899 C898 1.372 . S
C899 C900 1.400 . S
C899 C904 1.490 . S
C900 H890 0.930 . S
C900 C899 1.400 . S
C900 C903 1.386 . S
H901 C917 0.930 . S
H902 C918 0.931 . S
C903 H891 0.929 . S
C903 C897 1.390 . S
C903 C900 1.386 . S
C904 C899 1.490 . S
C904 C906 1.395 . S
C904 C907 1.403 . S
H905 C911 0.930 . S
C906 H892 0.930 . S
C906 C904 1.395 . S
C906 C909 1.403 . S
C907 C904 1.403 . S
C907 C908 1.524 . S
C907 C911 1.400 . S
C908 H893 0.960 . S
C908 H894 0.960 . S
C908 H895 0.960 . S
C908 C907 1.524 . S
C909 C906 1.403 . S
C909 C910 1.392 . S
C909 C913 1.495 . S
C910 C909 1.392 . S
C910 C911 1.385 . S
C910 C912 1.478 . S
C911 H905 0.930 . S
C911 C907 1.400 . S
C911 C910 1.385 . S
C912 C910 1.478 . S
C912 C914 1.381 . S
C912 C918 1.383 . S
C913 C909 1.495 . S
C913 H919 0.959 . S
C913 H920 0.961 . S
C913 H921 0.960 . S
C914 C912 1.381 . S
C914 C915 1.394 . S
C914 H922 0.930 . S
C915 C914 1.394 . S
C915 C916 1.383 . S
C915 H923 0.929 . S
C916 C915 1.383 . S
C916 C917 1.377 . S
C917 H901 0.930 . S
C917 C916 1.377 . S
C917 C918 1.379 . S
C918 H902 0.931 . S
C918 C912 1.383 . S
C918 C917 1.379 . S
H919 C913 0.959 . S
H920 C913 0.961 . S
H921 C913 0.960 . S
H922 C914 0.930 . S
H923 C915 0.929 . S
H924 C932 0.929 . S
H925 C934 0.930 . S
H926 C936 0.930 . S
H927 C939 0.929 . S
H928 C942 0.930 . S
H929 C944 0.960 . S
H930 C944 0.960 . S
H931 C944 0.960 . S
C932 H924 0.929 . S
C932 C933 1.377 . S
C932 C934 1.384 . S
C933 C932 1.377 . S
C933 C939 1.390 . S
C934 H925 0.930 . S
C934 C932 1.384 . S
C934 C935 1.372 . S
C935 C934 1.372 . S
C935 C936 1.400 . S
C935 C940 1.490 . S
C936 H926 0.930 . S
C936 C935 1.400 . S
C936 C939 1.386 . S
H937 C953 0.930 . S
H938 C954 0.931 . S
C939 H927 0.929 . S
C939 C933 1.390 . S
C939 C936 1.386 . S
C940 C935 1.490 . S
C940 C942 1.395 . S
C940 C943 1.403 . S
H941 C947 0.930 . S
C942 H928 0.930 . S
C942 C940 1.395 . S
C942 C945 1.403 . S
C943 C940 1.403 . S
C943 C944 1.524 . S
C943 C947 1.400 . S
C944 H929 0.960 . S
C944 H930 0.960 . S
C944 H931 0.960 . S
C944 C943 1.524 . S
C945 C942 1.403 . S
C945 C946 1.392 . S
C945 C949 1.495 . S
C946 C945 1.392 . S
C946 C947 1.385 . S
C946 C948 1.478 . S
C947 H941 0.930 . S
C947 C943 1.400 . S
C947 C946 1.385 . S
C948 C946 1.478 . S
C948 C950 1.381 . S
C948 C954 1.383 . S
C949 C945 1.495 . S
C949 H955 0.959 . S
C949 H956 0.961 . S
C949 H957 0.960 . S
C950 C948 1.381 . S
C950 C951 1.394 . S
C950 H958 0.930 . S
C951 C950 1.394 . S
C951 C952 1.383 . S
C951 H959 0.929 . S
C952 C951 1.383 . S
C952 C953 1.377 . S
C953 H937 0.930 . S
C953 C952 1.377 . S
C953 C954 1.379 . S
C954 H938 0.931 . S
C954 C948 1.383 . S
C954 C953 1.379 . S
H955 C949 0.959 . S
H956 C949 0.961 . S
H957 C949 0.960 . S
H958 C950 0.930 . S
H959 C951 0.929 . S
H960 C968 0.929 . S
H961 C970 0.930 . S
H962 C972 0.930 . S
H963 C975 0.929 . S
H964 C978 0.930 . S
H965 C980 0.960 . S
H966 C980 0.960 . S
H967 C980 0.960 . S
C968 H960 0.929 . S
C968 C969 1.377 . S
C968 C970 1.384 . S
C969 C968 1.377 . S
C969 C975 1.390 . S
C970 H961 0.930 . S
C970 C968 1.384 . S
C970 C971 1.372 . S
C971 C970 1.372 . S
C971 C972 1.400 . S
C971 C976 1.490 . S
C972 H962 0.930 . S
C972 C971 1.400 . S
C972 C975 1.386 . S
H973 C989 0.930 . S
H974 C990 0.931 . S
C975 H963 0.929 . S
C975 C969 1.390 . S
C975 C972 1.386 . S
C976 C971 1.490 . S
C976 C978 1.395 . S
C976 C979 1.403 . S
H977 C983 0.930 . S
C978 H964 0.930 . S
C978 C976 1.395 . S
C978 C981 1.403 . S
C979 C976 1.403 . S
C979 C980 1.524 . S
C979 C983 1.400 . S
C980 H965 0.960 . S
C980 H966 0.960 . S
C980 H967 0.960 . S
C980 C979 1.524 . S
C981 C978 1.403 . S
C981 C982 1.392 . S
C981 C985 1.495 . S
C982 C981 1.392 . S
C982 C983 1.385 . S
C982 C984 1.478 . S
C983 H977 0.930 . S
C983 C979 1.400 . S
C983 C982 1.385 . S
C984 C982 1.478 . S
C984 C986 1.381 . S
C984 C990 1.383 . S
C985 C981 1.495 . S
C985 H991 0.959 . S
C985 H992 0.961 . S
C985 H993 0.960 . S
C986 C984 1.381 . S
C986 C987 1.394 . S
C986 H994 0.930 . S
C987 C986 1.394 . S
C987 C988 1.383 . S
C987 H995 0.929 . S
C988 C987 1.383 . S
C988 C989 1.377 . S
C989 H973 0.930 . S
C989 C988 1.377 . S
C989 C990 1.379 . S
C990 H974 0.931 . S
C990 C984 1.383 . S
C990 C989 1.379 . S
H991 C985 0.959 . S
H992 C985 0.961 . S
H993 C985 0.960 . S
H994 C986 0.930 . S
H995 C987 0.929 . S
H996 C1004 0.929 . S
H997 C1006 0.930 . S
H998 C1008 0.930 . S
H999 C1011 0.929 . S
H1000 C1014 0.930 . S
H1001 C1016 0.960 . S
H1002 C1016 0.960 . S
H1003 C1016 0.960 . S
C1004 H996 0.929 . S
C1004 C1005 1.377 . S
C1004 C1006 1.384 . S
C1005 C1004 1.377 . S
C1005 C1011 1.390 . S
C1006 H997 0.930 . S
C1006 C1004 1.384 . S
C1006 C1007 1.372 . S
C1007 C1006 1.372 . S
C1007 C1008 1.400 . S
C1007 C1012 1.490 . S
C1008 H998 0.930 . S
C1008 C1007 1.400 . S
C1008 C1011 1.386 . S
H1009 C1025 0.930 . S
H1010 C1026 0.931 . S
C1011 H999 0.929 . S
C1011 C1005 1.390 . S
C1011 C1008 1.386 . S
C1012 C1007 1.490 . S
C1012 C1014 1.395 . S
C1012 C1015 1.403 . S
H1013 C1019 0.930 . S
C1014 H1000 0.930 . S
C1014 C1012 1.395 . S
C1014 C1017 1.403 . S
C1015 C1012 1.403 . S
C1015 C1016 1.524 . S
C1015 C1019 1.400 . S
C1016 H1001 0.960 . S
C1016 H1002 0.960 . S
C1016 H1003 0.960 . S
C1016 C1015 1.524 . S
C1017 C1014 1.403 . S
C1017 C1018 1.392 . S
C1017 C1021 1.495 . S
C1018 C1017 1.392 . S
C1018 C1019 1.385 . S
C1018 C1020 1.478 . S
C1019 H1013 0.930 . S
C1019 C1015 1.400 . S
C1019 C1018 1.385 . S
C1020 C1018 1.478 . S
C1020 C1022 1.381 . S
C1020 C1026 1.383 . S
C1021 C1017 1.495 . S
C1021 H1027 0.959 . S
C1021 H1028 0.961 . S
C1021 H1029 0.960 . S
C1022 C1020 1.381 . S
C1022 C1023 1.394 . S
C1022 H1030 0.930 . S
C1023 C1022 1.394 . S
C1023 C1024 1.383 . S
C1023 H1031 0.929 . S
C1024 C1023 1.383 . S
C1024 C1025 1.377 . S
C1025 H1009 0.930 . S
C1025 C1024 1.377 . S
C1025 C1026 1.379 . S
C1026 H1010 0.931 . S
C1026 C1020 1.383 . S
C1026 C1025 1.379 . S
H1027 C1021 0.959 . S
H1028 C1021 0.961 . S
H1029 C1021 0.960 . S
H1030 C1022 0.930 . S
H1031 C1023 0.929 . S
H1032 C1040 0.929 . S
H1033 C1042 0.930 . S
H1034 C1044 0.930 . S
H1035 C1047 0.929 . S
H1036 C1050 0.930 . S
H1037 C1052 0.960 . S
H1038 C1052 0.960 . S
H1039 C1052 0.960 . S
C1040 H1032 0.929 . S
C1040 C1041 1.377 . S
C1040 C1042 1.384 . S
C1041 C1040 1.377 . S
C1041 C1047 1.390 . S
C1042 H1033 0.930 . S
C1042 C1040 1.384 . S
C1042 C1043 1.372 . S
C1043 C1042 1.372 . S
C1043 C1044 1.400 . S
C1043 C1048 1.490 . S
C1044 H1034 0.930 . S
C1044 C1043 1.400 . S
C1044 C1047 1.386 . S
H1045 C1061 0.930 . S
H1046 C1062 0.931 . S
C1047 H1035 0.929 . S
C1047 C1041 1.390 . S
C1047 C1044 1.386 . S
C1048 C1043 1.490 . S
C1048 C1050 1.395 . S
C1048 C1051 1.403 . S
H1049 C1055 0.930 . S
C1050 H1036 0.930 . S
C1050 C1048 1.395 . S
C1050 C1053 1.403 . S
C1051 C1048 1.403 . S
C1051 C1052 1.524 . S
C1051 C1055 1.400 . S
C1052 H1037 0.960 . S
C1052 H1038 0.960 . S
C1052 H1039 0.960 . S
C1052 C1051 1.524 . S
C1053 C1050 1.403 . S
C1053 C1054 1.392 . S
C1053 C1057 1.495 . S
C1054 C1053 1.392 . S
C1054 C1055 1.385 . S
C1054 C1056 1.478 . S
C1055 H1049 0.930 . S
C1055 C1051 1.400 . S
C1055 C1054 1.385 . S
C1056 C1054 1.478 . S
C1056 C1058 1.381 . S
C1056 C1062 1.383 . S
C1057 C1053 1.495 . S
C1057 H1063 0.959 . S
C1057 H1064 0.961 . S
C1057 H1065 0.960 . S
C1058 C1056 1.381 . S
C1058 C1059 1.394 . S
C1058 H1066 0.930 . S
C1059 C1058 1.394 . S
C1059 C1060 1.383 . S
C1059 H1067 0.929 . S
C1060 C1059 1.383 . S
C1060 C1061 1.377 . S
C1061 H1045 0.930 . S
C1061 C1060 1.377 . S
C1061 C1062 1.379 . S
C1062 H1046 0.931 . S
C1062 C1056 1.383 . S
C1062 C1061 1.379 . S
H1063 C1057 0.959 . S
H1064 C1057 0.961 . S
H1065 C1057 0.960 . S
H1066 C1058 0.930 . S
H1067 C1059 0.929 . S
H1068 C1076 0.929 . S
H1069 C1078 0.930 . S
H1070 C1080 0.930 . S
H1071 C1083 0.929 . S
H1072 C1086 0.930 . S
H1073 C1088 0.960 . S
H1074 C1088 0.960 . S
H1075 C1088 0.960 . S
C1076 H1068 0.929 . S
C1076 C1077 1.377 . S
C1076 C1078 1.384 . S
C1077 C1076 1.377 . S
C1077 C1083 1.390 . S
C1078 H1069 0.930 . S
C1078 C1076 1.384 . S
C1078 C1079 1.372 . S
C1079 C1078 1.372 . S
C1079 C1080 1.400 . S
C1079 C1084 1.490 . S
C1080 H1070 0.930 . S
C1080 C1079 1.400 . S
C1080 C1083 1.386 . S
H1081 C1097 0.930 . S
H1082 C1098 0.931 . S
C1083 H1071 0.929 . S
C1083 C1077 1.390 . S
C1083 C1080 1.386 . S
C1084 C1079 1.490 . S
C1084 C1086 1.395 . S
C1084 C1087 1.403 . S
H1085 C1091 0.930 . S
C1086 H1072 0.930 . S
C1086 C1084 1.395 . S
C1086 C1089 1.403 . S
C1087 C1084 1.403 . S
C1087 C1088 1.524 . S
C1087 C1091 1.400 . S
C1088 H1073 0.960 . S
C1088 H1074 0.960 . S
C1088 H1075 0.960 . S
C1088 C1087 1.524 . S
C1089 C1086 1.403 . S
C1089 C1090 1.392 . S
C1089 C1093 1.495 . S
C1090 C1089 1.392 . S
C1090 C1091 1.385 . S
C1090 C1092 1.478 . S
C1091 H1085 0.930 . S
C1091 C1087 1.400 . S
C1091 C1090 1.385 . S
C1092 C1090 1.478 . S
C1092 C1094 1.381 . S
C1092 C1098 1.383 . S
C1093 C1089 1.495 . S
C1093 H1099 0.959 . S
C1093 H1100 0.961 . S
C1093 H1101 0.960 . S
C1094 C1092 1.381 . S
C1094 C1095 1.394 . S
C1094 H1102 0.930 . S
C1095 C1094 1.394 . S
C1095 C1096 1.383 . S
C1095 H1103 0.929 . S
C1096 C1095 1.383 . S
C1096 C1097 1.377 . S
C1097 H1081 0.930 . S
C1097 C1096 1.377 . S
C1097 C1098 1.379 . S
C1098 H1082 0.931 . S
C1098 C1092 1.383 . S
C1098 C1097 1.379 . S
H1099 C1093 0.959 . S
H1100 C1093 0.961 . S
H1101 C1093 0.960 . S
H1102 C1094 0.930 . S
H1103 C1095 0.929 . S
H1104 C1112 0.929 . S
H1105 C1114 0.930 . S
H1106 C1116 0.930 . S
H1107 C1119 0.929 . S
H1108 C1122 0.930 . S
H1109 C1124 0.960 . S
H1110 C1124 0.960 . S
H1111 C1124 0.960 . S
C1112 H1104 0.929 . S
C1112 C1113 1.377 . S
C1112 C1114 1.384 . S
C1113 C1112 1.377 . S
C1113 C1119 1.390 . S
C1114 H1105 0.930 . S
C1114 C1112 1.384 . S
C1114 C1115 1.372 . S
C1115 C1114 1.372 . S
C1115 C1116 1.400 . S
C1115 C1120 1.490 . S
C1116 H1106 0.930 . S
C1116 C1115 1.400 . S
C1116 C1119 1.386 . S
H1117 C1133 0.930 . S
H1118 C1134 0.931 . S
C1119 H1107 0.929 . S
C1119 C1113 1.390 . S
C1119 C1116 1.386 . S
C1120 C1115 1.490 . S
C1120 C1122 1.395 . S
C1120 C1123 1.403 . S
H1121 C1127 0.930 . S
C1122 H1108 0.930 . S
C1122 C1120 1.395 . S
C1122 C1125 1.403 . S
C1123 C1120 1.403 . S
C1123 C1124 1.524 . S
C1123 C1127 1.400 . S
C1124 H1109 0.960 . S
C1124 H1110 0.960 . S
C1124 H1111 0.960 . S
C1124 C1123 1.524 . S
C1125 C1122 1.403 . S
C1125 C1126 1.392 . S
C1125 C1129 1.495 . S
C1126 C1125 1.392 . S
C1126 C1127 1.385 . S
C1126 C1128 1.478 . S
C1127 H1121 0.930 . S
C1127 C1123 1.400 . S
C1127 C1126 1.385 . S
C1128 C1126 1.478 . S
C1128 C1130 1.381 . S
C1128 C1134 1.383 . S
C1129 C1125 1.495 . S
C1129 H1135 0.959 . S
C1129 H1136 0.961 . S
C1129 H1137 0.960 . S
C1130 C1128 1.381 . S
C1130 C1131 1.394 . S
C1130 H1138 0.930 . S
C1131 C1130 1.394 . S
C1131 C1132 1.383 . S
C1131 H1139 0.929 . S
C1132 C1131 1.383 . S
C1132 C1133 1.377 . S
C1133 H1117 0.930 . S
C1133 C1132 1.377 . S
C1133 C1134 1.379 . S
C1134 H1118 0.931 . S
C1134 C1128 1.383 . S
C1134 C1133 1.379 . S
H1135 C1129 0.959 . S
H1136 C1129 0.961 . S
H1137 C1129 0.960 . S
H1138 C1130 0.930 . S
H1139 C1131 0.929 . S
H1140 C1148 0.929 . S
H1141 C1150 0.930 . S
H1142 C1152 0.930 . S
H1143 C1155 0.929 . S
H1144 C1158 0.930 . S
H1145 C1160 0.960 . S
H1146 C1160 0.960 . S
H1147 C1160 0.960 . S
C1148 H1140 0.929 . S
C1148 C1149 1.377 . S
C1148 C1150 1.384 . S
C1149 C1148 1.377 . S
C1149 C1155 1.390 . S
C1150 H1141 0.930 . S
C1150 C1148 1.384 . S
C1150 C1151 1.372 . S
C1151 C1150 1.372 . S
C1151 C1152 1.400 . S
C1151 C1156 1.490 . S
C1152 H1142 0.930 . S
C1152 C1151 1.400 . S
C1152 C1155 1.386 . S
H1153 C1169 0.930 . S
H1154 C1170 0.931 . S
C1155 H1143 0.929 . S
C1155 C1149 1.390 . S
C1155 C1152 1.386 . S
C1156 C1151 1.490 . S
C1156 C1158 1.395 . S
C1156 C1159 1.403 . S
H1157 C1163 0.930 . S
C1158 H1144 0.930 . S
C1158 C1156 1.395 . S
C1158 C1161 1.403 . S
C1159 C1156 1.403 . S
C1159 C1160 1.524 . S
C1159 C1163 1.400 . S
C1160 H1145 0.960 . S
C1160 H1146 0.960 . S
C1160 H1147 0.960 . S
C1160 C1159 1.524 . S
C1161 C1158 1.403 . S
C1161 C1162 1.392 . S
C1161 C1165 1.495 . S
C1162 C1161 1.392 . S
C1162 C1163 1.385 . S
C1162 C1164 1.478 . S
C1163 H1157 0.930 . S
C1163 C1159 1.400 . S
C1163 C1162 1.385 . S
C1164 C1162 1.478 . S
C1164 C1166 1.381 . S
C1164 C1170 1.383 . S
C1165 C1161 1.495 . S
C1165 H1171 0.959 . S
C1165 H1172 0.961 . S
C1165 H1173 0.960 . S
C1166 C1164 1.381 . S
C1166 C1167 1.394 . S
C1166 H1174 0.930 . S
C1167 C1166 1.394 . S
C1167 C1168 1.383 . S
C1167 H1175 0.929 . S
C1168 C1167 1.383 . S
C1168 C1169 1.377 . S
C1169 H1153 0.930 . S
C1169 C1168 1.377 . S
C1169 C1170 1.379 . S
C1170 H1154 0.931 . S
C1170 C1164 1.383 . S
C1170 C1169 1.379 . S
H1171 C1165 0.959 . S
H1172 C1165 0.961 . S
H1173 C1165 0.960 . S
H1174 C1166 0.930 . S
H1175 C1167 0.929 . S
H1176 C1184 0.929 . S
H1177 C1186 0.930 . S
H1178 C1188 0.930 . S
H1179 C1191 0.929 . S
H1180 C1194 0.930 . S
H1181 C1196 0.960 . S
H1182 C1196 0.960 . S
H1183 C1196 0.960 . S
C1184 H1176 0.929 . S
C1184 C1185 1.377 . S
C1184 C1186 1.384 . S
C1185 C1184 1.377 . S
C1185 C1191 1.390 . S
C1186 H1177 0.930 . S
C1186 C1184 1.384 . S
C1186 C1187 1.372 . S
C1187 C1186 1.372 . S
C1187 C1188 1.400 . S
C1187 C1192 1.490 . S
C1188 H1178 0.930 . S
C1188 C1187 1.400 . S
C1188 C1191 1.386 . S
H1189 C1205 0.930 . S
H1190 C1206 0.931 . S
C1191 H1179 0.929 . S
C1191 C1185 1.390 . S
C1191 C1188 1.386 . S
C1192 C1187 1.490 . S
C1192 C1194 1.395 1_556 S
C1192 C1195 1.403 1_565 S
H1193 C1199 0.930 . S
C1194 H1180 0.930 . S
C1194 C1192 1.395 1_554 S
C1194 C1197 1.403 . S
C1195 C1192 1.403 1_545 S
C1195 C1196 1.524 . S
C1195 C1199 1.400 . S
C1196 H1181 0.960 . S
C1196 H1182 0.960 . S
C1196 H1183 0.960 . S
C1196 C1195 1.524 . S
C1197 C1194 1.403 . S
C1197 C1198 1.392 1_565 S
C1197 C1201 1.495 . S
C1198 C1197 1.392 1_545 S
C1198 C1199 1.385 1_554 S
C1198 C1200 1.478 . S
C1199 H1193 0.930 . S
C1199 C1195 1.400 . S
C1199 C1198 1.385 1_556 S
C1200 C1198 1.478 . S
C1200 C1202 1.381 . S
C1200 C1206 1.383 . S
C1201 C1197 1.495 . S
C1201 H1207 0.959 . S
C1201 H1208 0.961 . S
C1201 H1209 0.960 . S
C1202 C1200 1.381 . S
C1202 C1203 1.394 . S
C1202 H1210 0.930 . S
C1203 C1202 1.394 . S
C1203 C1204 1.383 . S
C1203 H1211 0.929 . S
C1204 C1203 1.383 . S
C1204 C1205 1.377 . S
C1205 H1189 0.930 . S
C1205 C1204 1.377 . S
C1205 C1206 1.379 . S
C1206 H1190 0.931 . S
C1206 C1200 1.383 . S
C1206 C1205 1.379 . S
H1207 C1201 0.959 . S
H1208 C1201 0.961 . S
H1209 C1201 0.960 . S
H1210 C1202 0.930 . S
H1211 C1203 0.929 . S
H1212 C1220 0.929 . S
H1213 C1222 0.930 . S
H1214 C1224 0.930 . S
H1215 C1227 0.929 . S
H1216 C1230 0.930 . S
H1217 C1232 0.960 . S
H1218 C1232 0.960 . S
H1219 C1232 0.960 . S
C1220 H1212 0.929 . S
C1220 C1221 1.377 . S
C1220 C1222 1.384 . S
C1221 C1220 1.377 . S
C1221 C1227 1.390 . S
C1222 H1213 0.930 . S
C1222 C1220 1.384 . S
C1222 C1223 1.372 . S
C1223 C1222 1.372 . S
C1223 C1224 1.400 . S
C1223 C1228 1.490 . S
C1224 H1214 0.930 . S
C1224 C1223 1.400 . S
C1224 C1227 1.386 . S
H1225 C1241 0.930 . S
H1226 C1242 0.931 . S
C1227 H1215 0.929 . S
C1227 C1221 1.390 . S
C1227 C1224 1.386 . S
C1228 C1223 1.490 . S
C1228 C1230 1.395 . S
C1228 C1231 1.403 . S
H1229 C1235 0.930 . S
C1230 H1216 0.930 . S
C1230 C1228 1.395 . S
C1230 C1233 1.403 . S
C1231 C1228 1.403 . S
C1231 C1232 1.524 . S
C1231 C1235 1.400 . S
C1232 H1217 0.960 . S
C1232 H1218 0.960 . S
C1232 H1219 0.960 . S
C1232 C1231 1.524 . S
C1233 C1230 1.403 . S
C1233 C1234 1.392 . S
C1233 C1237 1.495 . S
C1234 C1233 1.392 . S
C1234 C1235 1.385 . S
C1234 C1236 1.478 . S
C1235 H1229 0.930 . S
C1235 C1231 1.400 . S
C1235 C1234 1.385 . S
C1236 C1234 1.478 . S
C1236 C1238 1.381 . S
C1236 C1242 1.383 . S
C1237 C1233 1.495 . S
C1237 H1243 0.959 . S
C1237 H1244 0.961 . S
C1237 H1245 0.960 . S
C1238 C1236 1.381 . S
C1238 C1239 1.394 . S
C1238 H1246 0.930 . S
C1239 C1238 1.394 . S
C1239 C1240 1.383 . S
C1239 H1247 0.929 . S
C1240 C1239 1.383 . S
C1240 C1241 1.377 . S
C1241 H1225 0.930 . S
C1241 C1240 1.377 . S
C1241 C1242 1.379 . S
C1242 H1226 0.931 . S
C1242 C1236 1.383 . S
C1242 C1241 1.379 . S
H1243 C1237 0.959 . S
H1244 C1237 0.961 . S
H1245 C1237 0.960 . S
H1246 C1238 0.930 . S
H1247 C1239 0.929 . S
H1248 C1256 0.929 . S
H1249 C1258 0.930 . S
H1250 C1260 0.930 . S
H1251 C1263 0.929 . S
H1252 C1266 0.930 . S
H1253 C1268 0.960 . S
H1254 C1268 0.960 . S
H1255 C1268 0.960 . S
C1256 H1248 0.929 . S
C1256 C1257 1.377 . S
C1256 C1258 1.384 . S
C1257 C1256 1.377 . S
C1257 C1263 1.390 . S
C1258 H1249 0.930 . S
C1258 C1256 1.384 . S
C1258 C1259 1.372 . S
C1259 C1258 1.372 . S
C1259 C1260 1.400 . S
C1259 C1264 1.490 . S
C1260 H1250 0.930 . S
C1260 C1259 1.400 . S
C1260 C1263 1.386 . S
H1261 C1277 0.930 . S
H1262 C1278 0.931 . S
C1263 H1251 0.929 . S
C1263 C1257 1.390 . S
C1263 C1260 1.386 . S
C1264 C1259 1.490 . S
C1264 C1266 1.395 1_556 S
C1264 C1267 1.403 1_455 S
H1265 C1271 0.930 . S
C1266 H1252 0.930 . S
C1266 C1264 1.395 1_554 S
C1266 C1269 1.403 . S
C1267 C1264 1.403 1_655 S
C1267 C1268 1.524 . S
C1267 C1271 1.400 . S
C1268 H1253 0.960 . S
C1268 H1254 0.960 . S
C1268 H1255 0.960 . S
C1268 C1267 1.524 . S
C1269 C1266 1.403 . S
C1269 C1270 1.392 1_455 S
C1269 C1273 1.495 . S
C1270 C1269 1.392 1_655 S
C1270 C1271 1.385 1_554 S
C1270 C1272 1.478 . S
C1271 H1265 0.930 . S
C1271 C1267 1.400 . S
C1271 C1270 1.385 1_556 S
C1272 C1270 1.478 . S
C1272 C1274 1.381 . S
C1272 C1278 1.383 . S
C1273 C1269 1.495 . S
C1273 H1279 0.959 . S
C1273 H1280 0.961 . S
C1273 H1281 0.960 . S
C1274 C1272 1.381 . S
C1274 C1275 1.394 . S
C1274 H1282 0.930 . S
C1275 C1274 1.394 . S
C1275 C1276 1.383 . S
C1275 H1283 0.929 . S
C1276 C1275 1.383 . S
C1276 C1277 1.377 . S
C1277 H1261 0.930 . S
C1277 C1276 1.377 . S
C1277 C1278 1.379 . S
C1278 H1262 0.931 . S
C1278 C1272 1.383 . S
C1278 C1277 1.379 . S
H1279 C1273 0.959 . S
H1280 C1273 0.961 . S
H1281 C1273 0.960 . S
H1282 C1274 0.930 . S
H1283 C1275 0.929 . S
H1284 C1292 0.929 . S
H1285 C1294 0.930 . S
H1286 C1296 0.930 . S
H1287 C1299 0.929 . S
H1288 C1302 0.930 . S
H1289 C1304 0.960 . S
H1290 C1304 0.959 . S
H1291 C1304 0.960 . S
C1292 H1284 0.929 . S
C1292 C1293 1.377 . S
C1292 C1294 1.384 . S
C1293 C1292 1.377 . S
C1293 C1299 1.390 . S
C1294 H1285 0.930 . S
C1294 C1292 1.384 . S
C1294 C1295 1.372 . S
C1295 C1294 1.372 . S
C1295 C1296 1.400 . S
C1295 C1300 1.490 . S
C1296 H1286 0.930 . S
C1296 C1295 1.400 . S
C1296 C1299 1.386 . S
H1297 C1313 0.930 . S
H1298 C1314 0.931 . S
C1299 H1287 0.929 . S
C1299 C1293 1.390 . S
C1299 C1296 1.386 . S
C1300 C1295 1.490 . S
C1300 C1302 1.395 . S
C1300 C1303 1.403 1_545 S
H1301 C1307 0.930 . S
C1302 H1288 0.930 . S
C1302 C1300 1.395 . S
C1302 C1305 1.403 . S
C1303 C1300 1.403 1_565 S
C1303 C1304 1.524 . S
C1303 C1307 1.400 . S
C1304 H1289 0.960 . S
C1304 H1290 0.959 . S
C1304 H1291 0.960 . S
C1304 C1303 1.524 . S
C1305 C1302 1.403 . S
C1305 C1306 1.392 1_545 S
C1305 C1309 1.495 . S
C1306 C1305 1.392 1_565 S
C1306 C1307 1.385 . S
C1306 C1308 1.478 . S
C1307 H1301 0.930 . S
C1307 C1303 1.400 . S
C1307 C1306 1.385 . S
C1308 C1306 1.478 . S
C1308 C1310 1.381 . S
C1308 C1314 1.383 . S
C1309 C1305 1.495 . S
C1309 H1315 0.959 . S
C1309 H1316 0.961 . S
C1309 H1317 0.960 . S
C1310 C1308 1.381 . S
C1310 C1311 1.394 . S
C1310 H1318 0.930 . S
C1311 C1310 1.394 . S
C1311 C1312 1.383 . S
C1311 H1319 0.929 . S
C1312 C1311 1.383 . S
C1312 C1313 1.377 . S
C1313 H1297 0.930 . S
C1313 C1312 1.377 . S
C1313 C1314 1.379 . S
C1314 H1298 0.931 . S
C1314 C1308 1.383 . S
C1314 C1313 1.379 . S
H1315 C1309 0.959 . S
H1316 C1309 0.961 . S
H1317 C1309 0.960 . S
H1318 C1310 0.930 . S
H1319 C1311 0.929 . S
H1320 C1328 0.929 . S
H1321 C1330 0.930 . S
H1322 C1332 0.930 . S
H1323 C1335 0.929 . S
H1324 C1338 0.930 . S
H1325 C1340 0.960 . S
H1326 C1340 0.960 . S
H1327 C1340 0.960 . S
C1328 H1320 0.929 . S
C1328 C1329 1.377 . S
C1328 C1330 1.384 . S
C1329 C1328 1.377 . S
C1329 C1335 1.390 . S
C1330 H1321 0.930 . S
C1330 C1328 1.384 . S
C1330 C1331 1.372 . S
C1331 C1330 1.372 . S
C1331 C1332 1.400 . S
C1331 C1336 1.490 . S
C1332 H1322 0.930 . S
C1332 C1331 1.400 . S
C1332 C1335 1.386 . S
H1333 C1349 0.930 . S
H1334 C1350 0.931 . S
C1335 H1323 0.929 . S
C1335 C1329 1.390 . S
C1335 C1332 1.386 . S
C1336 C1331 1.490 . S
C1336 C1338 1.395 . S
C1336 C1339 1.403 . S
H1337 C1343 0.930 . S
C1338 H1324 0.930 . S
C1338 C1336 1.395 . S
C1338 C1341 1.403 1_554 S
C1339 C1336 1.403 . S
C1339 C1340 1.524 . S
C1339 C1343 1.400 1_554 S
C1340 H1325 0.960 . S
C1340 H1326 0.960 . S
C1340 H1327 0.960 . S
C1340 C1339 1.524 . S
C1341 C1338 1.403 1_556 S
C1341 C1342 1.392 . S
C1341 C1345 1.495 . S
C1342 C1341 1.392 . S
C1342 C1343 1.385 . S
C1342 C1344 1.478 . S
C1343 H1337 0.930 . S
C1343 C1339 1.400 1_556 S
C1343 C1342 1.385 . S
C1344 C1342 1.478 . S
C1344 C1346 1.381 . S
C1344 C1350 1.383 . S
C1345 C1341 1.495 . S
C1345 H1351 0.959 . S
C1345 H1352 0.961 . S
C1345 H1353 0.960 . S
C1346 C1344 1.381 . S
C1346 C1347 1.394 . S
C1346 H1354 0.930 . S
C1347 C1346 1.394 . S
C1347 C1348 1.383 . S
C1347 H1355 0.929 . S
C1348 C1347 1.383 . S
C1348 C1349 1.377 . S
C1349 H1333 0.930 . S
C1349 C1348 1.377 . S
C1349 C1350 1.379 . S
C1350 H1334 0.931 . S
C1350 C1344 1.383 . S
C1350 C1349 1.379 . S
H1351 C1345 0.959 . S
H1352 C1345 0.961 . S
H1353 C1345 0.960 . S
H1354 C1346 0.930 . S
H1355 C1347 0.929 . S
H1356 C1364 0.929 . S
H1357 C1366 0.930 . S
H1358 C1368 0.930 . S
H1359 C1371 0.929 . S
H1360 C1374 0.930 . S
H1361 C1376 0.960 . S
H1362 C1376 0.960 . S
H1363 C1376 0.960 . S
C1364 H1356 0.929 . S
C1364 C1365 1.377 . S
C1364 C1366 1.384 . S
C1365 C1364 1.377 . S
C1365 C1371 1.390 . S
C1366 H1357 0.930 . S
C1366 C1364 1.384 . S
C1366 C1367 1.372 . S
C1367 C1366 1.372 . S
C1367 C1368 1.400 . S
C1367 C1372 1.490 . S
C1368 H1358 0.930 . S
C1368 C1367 1.400 . S
C1368 C1371 1.386 . S
H1369 C1385 0.930 . S
H1370 C1386 0.931 . S
C1371 H1359 0.929 . S
C1371 C1365 1.390 . S
C1371 C1368 1.386 . S
C1372 C1367 1.490 . S
C1372 C1374 1.395 1_455 S
C1372 C1375 1.403 . S
H1373 C1379 0.925 . S
C1374 H1360 0.930 . S
C1374 C1372 1.395 1_655 S
C1374 C1377 1.403 . S
C1375 C1372 1.403 . S
C1375 C1376 1.524 . S
C1375 C1379 1.438 . S
C1376 H1361 0.960 . S
C1376 H1362 0.960 . S
C1376 H1363 0.960 . S
C1376 C1375 1.524 . S
C1377 C1374 1.403 . S
C1377 C1378 1.392 . S
C1377 C1381 1.495 . S
C1378 C1377 1.392 . S
C1378 C1379 1.355 1_655 S
C1378 C1380 1.478 . S
C1379 H1373 0.925 . S
C1379 C1375 1.438 . S
C1379 C1378 1.355 1_455 S
C1380 C1378 1.478 . S
C1380 C1382 1.381 . S
C1380 C1386 1.383 . S
C1381 C1377 1.495 . S
C1381 H1387 0.959 . S
C1381 H1388 0.961 . S
C1381 H1389 0.960 . S
C1382 C1380 1.381 . S
C1382 C1383 1.394 . S
C1382 H1390 0.930 . S
C1383 C1382 1.394 . S
C1383 C1384 1.383 . S
C1383 H1391 0.929 . S
C1384 C1383 1.383 . S
C1384 C1385 1.377 . S
C1385 H1369 0.930 . S
C1385 C1384 1.377 . S
C1385 C1386 1.379 . S
C1386 H1370 0.931 . S
C1386 C1380 1.383 . S
C1386 C1385 1.379 . S
H1387 C1381 0.959 . S
H1388 C1381 0.961 . S
H1389 C1381 0.960 . S
H1390 C1382 0.930 . S
H1391 C1383 0.929 . S
H1392 C1400 0.929 . S
H1393 C1402 0.930 . S
H1394 C1404 0.930 . S
H1395 C1407 0.929 . S
H1396 C1410 0.930 . S
H1397 C1412 0.960 . S
H1398 C1412 0.960 . S
H1399 C1412 0.960 . S
C1400 H1392 0.929 . S
C1400 C1401 1.377 . S
C1400 C1402 1.384 . S
C1401 C1400 1.377 . S
C1401 C1407 1.390 . S
C1402 H1393 0.930 . S
C1402 C1400 1.384 . S
C1402 C1403 1.372 . S
C1403 C1402 1.372 . S
C1403 C1404 1.400 . S
C1403 C1408 1.490 . S
C1404 H1394 0.930 . S
C1404 C1403 1.400 . S
C1404 C1407 1.386 . S
H1405 C1421 0.930 . S
H1406 C1422 0.931 . S
C1407 H1395 0.929 . S
C1407 C1401 1.390 . S
C1407 C1404 1.386 . S
C1408 C1403 1.490 . S
C1408 C1410 1.395 . S
C1408 C1411 1.403 . S
H1409 C1415 0.930 . S
C1410 H1396 0.930 . S
C1410 C1408 1.395 . S
C1410 C1413 1.403 1_566 S
C1411 C1408 1.403 . S
C1411 C1412 1.524 . S
C1411 C1415 1.400 1_566 S
C1412 H1397 0.960 . S
C1412 H1398 0.960 . S
C1412 H1399 0.960 . S
C1412 C1411 1.524 . S
C1413 C1410 1.403 1_544 S
C1413 C1414 1.392 . S
C1413 C1417 1.495 . S
C1414 C1413 1.392 . S
C1414 C1415 1.385 . S
C1414 C1416 1.478 . S
C1415 H1409 0.930 . S
C1415 C1411 1.400 1_544 S
C1415 C1414 1.385 . S
C1416 C1414 1.478 . S
C1416 C1418 1.381 . S
C1416 C1422 1.383 . S
C1417 C1413 1.495 . S
C1417 H1423 0.959 . S
C1417 H1424 0.961 . S
C1417 H1425 0.960 . S
C1418 C1416 1.381 . S
C1418 C1419 1.394 . S
C1418 H1426 0.930 . S
C1419 C1418 1.394 . S
C1419 C1420 1.383 . S
C1419 H1427 0.929 . S
C1420 C1419 1.383 . S
C1420 C1421 1.377 . S
C1421 H1405 0.930 . S
C1421 C1420 1.377 . S
C1421 C1422 1.379 . S
C1422 H1406 0.931 . S
C1422 C1416 1.383 . S
C1422 C1421 1.379 . S
H1423 C1417 0.959 . S
H1424 C1417 0.961 . S
H1425 C1417 0.960 . S
H1426 C1418 0.930 . S
H1427 C1419 0.929 . S
H1428 C1436 0.929 . S
H1429 C1438 0.930 . S
H1430 C1440 0.930 . S
H1431 C1443 0.929 . S
H1432 C1446 0.930 . S
H1433 C1448 0.960 . S
H1434 C1448 0.960 . S
H1435 C1448 0.960 . S
C1436 H1428 0.929 . S
C1436 C1437 1.377 . S
C1436 C1438 1.384 . S
C1437 C1436 1.377 . S
C1437 C1443 1.390 . S
C1438 H1429 0.930 . S
C1438 C1436 1.384 . S
C1438 C1439 1.372 . S
C1439 C1438 1.372 . S
C1439 C1440 1.400 . S
C1439 C1444 1.490 . S
C1440 H1430 0.930 . S
C1440 C1439 1.400 . S
C1440 C1443 1.386 . S
H1441 C1457 0.930 . S
H1442 C1458 0.931 . S
C1443 H1431 0.929 . S
C1443 C1437 1.390 . S
C1443 C1440 1.386 . S
C1444 C1439 1.490 . S
C1444 C1446 1.395 . S
C1444 C1447 1.403 . S
H1445 C1451 0.930 . S
C1446 H1432 0.930 . S
C1446 C1444 1.395 . S
C1446 C1449 1.403 . S
C1447 C1444 1.403 . S
C1447 C1448 1.524 . S
C1447 C1451 1.400 . S
C1448 H1433 0.960 . S
C1448 H1434 0.960 . S
C1448 H1435 0.960 . S
C1448 C1447 1.524 . S
C1449 C1446 1.403 . S
C1449 C1450 1.392 . S
C1449 C1453 1.495 . S
C1450 C1449 1.392 . S
C1450 C1451 1.385 . S
C1450 C1452 1.478 . S
C1451 H1445 0.930 . S
C1451 C1447 1.400 . S
C1451 C1450 1.385 . S
C1452 C1450 1.478 . S
C1452 C1454 1.381 . S
C1452 C1458 1.383 . S
C1453 C1449 1.495 . S
C1453 H1459 0.959 . S
C1453 H1460 0.961 . S
C1453 H1461 0.960 . S
C1454 C1452 1.381 . S
C1454 C1455 1.394 . S
C1454 H1462 0.930 . S
C1455 C1454 1.394 . S
C1455 C1456 1.383 . S
C1455 H1463 0.929 . S
C1456 C1455 1.383 . S
C1456 C1457 1.377 . S
C1457 H1441 0.930 . S
C1457 C1456 1.377 . S
C1457 C1458 1.379 . S
C1458 H1442 0.931 . S
C1458 C1452 1.383 . S
C1458 C1457 1.379 . S
H1459 C1453 0.959 . S
H1460 C1453 0.961 . S
H1461 C1453 0.960 . S
H1462 C1454 0.930 . S
H1463 C1455 0.929 . S
H1464 C1472 0.929 . S
H1465 C1474 0.930 . S
H1466 C1476 0.930 . S
H1467 C1479 0.929 . S
H1468 C1482 0.930 . S
H1469 C1484 0.960 1_455 S
H1470 C1484 0.981 . S
H1471 C1484 0.960 . S
C1472 H1464 0.929 . S
C1472 C1473 1.377 . S
C1472 C1474 1.384 . S
C1473 C1472 1.377 . S
C1473 C1479 1.390 . S
C1474 H1465 0.930 . S
C1474 C1472 1.384 . S
C1474 C1475 1.372 . S
C1475 C1474 1.372 . S
C1475 C1476 1.400 . S
C1475 C1480 1.490 . S
C1476 H1466 0.930 . S
C1476 C1475 1.400 . S
C1476 C1479 1.386 . S
H1477 C1493 0.930 . S
H1478 C1494 0.931 . S
C1479 H1467 0.929 . S
C1479 C1473 1.390 . S
C1479 C1476 1.386 . S
C1480 C1475 1.490 . S
C1480 C1482 1.395 . S
C1480 C1483 1.403 . S
H1481 C1487 0.930 . S
C1482 H1468 0.930 . S
C1482 C1480 1.395 . S
C1482 C1485 1.403 1_654 S
C1483 C1480 1.403 . S
C1483 C1484 1.524 . S
C1483 C1487 1.400 1_654 S
C1484 H1469 0.960 1_655 S
C1484 H1470 0.981 . S
C1484 H1471 0.960 . S
C1484 C1483 1.524 . S
C1485 C1482 1.403 1_456 S
C1485 C1486 1.392 . S
C1485 C1489 1.495 . S
C1486 C1485 1.392 . S
C1486 C1487 1.385 . S
C1486 C1488 1.478 . S
C1487 H1481 0.930 . S
C1487 C1483 1.400 1_456 S
C1487 C1486 1.385 . S
C1488 C1486 1.478 . S
C1488 C1490 1.381 . S
C1488 C1494 1.383 . S
C1489 C1485 1.495 . S
C1489 H1495 0.959 1_455 S
C1489 H1496 0.961 . S
C1489 H1497 0.960 . S
C1490 C1488 1.381 . S
C1490 C1491 1.394 . S
C1490 H1498 0.930 . S
C1491 C1490 1.394 . S
C1491 C1492 1.383 . S
C1491 H1499 0.929 . S
C1492 C1491 1.383 . S
C1492 C1493 1.377 . S
C1493 H1477 0.930 . S
C1493 C1492 1.377 . S
C1493 C1494 1.379 . S
C1494 H1478 0.931 . S
C1494 C1488 1.383 . S
C1494 C1493 1.379 . S
H1495 C1489 0.959 1_655 S
H1496 C1489 0.961 . S
H1497 C1489 0.960 . S
H1498 C1490 0.930 . S
H1499 C1491 0.929 . S
H1500 C1508 0.929 . S
H1501 C1510 0.930 . S
H1502 C1512 0.930 . S
H1503 C1515 0.929 . S
H1504 C1518 0.930 . S
H1505 C1520 0.960 . S
H1506 C1520 0.960 . S
H1507 C1520 0.960 . S
C1508 H1500 0.929 . S
C1508 C1509 1.377 . S
C1508 C1510 1.384 . S
C1509 C1508 1.377 . S
C1509 C1515 1.390 . S
C1510 H1501 0.930 . S
C1510 C1508 1.384 . S
C1510 C1511 1.372 . S
C1511 C1510 1.372 . S
C1511 C1512 1.400 . S
C1511 C1516 1.490 . S
C1512 H1502 0.930 . S
C1512 C1511 1.400 . S
C1512 C1515 1.386 . S
H1513 C1529 0.930 . S
H1514 C1530 0.931 . S
C1515 H1503 0.929 . S
C1515 C1509 1.390 . S
C1515 C1512 1.386 . S
C1516 C1511 1.490 . S
C1516 C1518 1.395 . S
C1516 C1519 1.403 1_565 S
H1517 C1523 0.930 . S
C1518 H1504 0.930 . S
C1518 C1516 1.395 . S
C1518 C1521 1.403 . S
C1519 C1516 1.403 1_545 S
C1519 C1520 1.524 . S
C1519 C1523 1.400 . S
C1520 H1505 0.960 . S
C1520 H1506 0.960 . S
C1520 H1507 0.960 . S
C1520 C1519 1.524 . S
C1521 C1518 1.403 . S
C1521 C1522 1.392 1_565 S
C1521 C1525 1.495 . S
C1522 C1521 1.392 1_545 S
C1522 C1523 1.385 . S
C1522 C1524 1.478 . S
C1523 H1517 0.930 . S
C1523 C1519 1.400 . S
C1523 C1522 1.385 . S
C1524 C1522 1.478 . S
C1524 C1526 1.381 . S
C1524 C1530 1.383 . S
C1525 C1521 1.495 . S
C1525 H1531 0.959 . S
C1525 H1532 0.961 . S
C1525 H1533 0.960 . S
C1526 C1524 1.381 . S
C1526 C1527 1.394 . S
C1526 H1534 0.930 . S
C1527 C1526 1.394 . S
C1527 C1528 1.383 . S
C1527 H1535 0.929 . S
C1528 C1527 1.383 . S
C1528 C1529 1.377 . S
C1529 H1513 0.930 . S
C1529 C1528 1.377 . S
C1529 C1530 1.379 . S
C1530 H1514 0.931 . S
C1530 C1524 1.383 . S
C1530 C1529 1.379 . S
H1531 C1525 0.959 . S
H1532 C1525 0.961 . S
H1533 C1525 0.960 . S
H1534 C1526 0.930 . S
H1535 C1527 0.929 . S
H1536 C1544 0.929 . S
H1537 C1546 0.930 . S
H1538 C1548 0.930 . S
H1539 C1551 0.929 . S
H1540 C1554 0.930 . S
H1541 C1556 0.960 . S
H1542 C1556 0.960 . S
H1543 C1556 0.960 1_554 S
C1544 H1536 0.929 . S
C1544 C1545 1.377 . S
C1544 C1546 1.384 . S
C1545 C1544 1.377 . S
C1545 C1551 1.390 . S
C1546 H1537 0.930 . S
C1546 C1544 1.384 . S
C1546 C1547 1.372 . S
C1547 C1546 1.372 . S
C1547 C1548 1.400 . S
C1547 C1552 1.490 . S
C1548 H1538 0.930 . S
C1548 C1547 1.400 . S
C1548 C1551 1.386 . S
H1549 C1565 0.930 . S
H1550 C1566 0.931 . S
C1551 H1539 0.929 . S
C1551 C1545 1.390 . S
C1551 C1548 1.386 . S
C1552 C1547 1.490 . S
C1552 C1554 1.395 . S
C1552 C1555 1.403 1_554 S
H1553 C1559 0.930 . S
C1554 H1540 0.930 . S
C1554 C1552 1.395 . S
C1554 C1557 1.403 . S
C1555 C1552 1.403 1_556 S
C1555 C1556 1.524 . S
C1555 C1559 1.400 . S
C1556 H1541 0.960 . S
C1556 H1542 0.960 . S
C1556 H1543 0.960 1_556 S
C1556 C1555 1.524 . S
C1557 C1554 1.403 . S
C1557 C1558 1.392 1_554 S
C1557 C1561 1.495 . S
C1558 C1557 1.392 1_556 S
C1558 C1559 1.385 . S
C1558 C1560 1.478 . S
C1559 H1553 0.930 . S
C1559 C1555 1.400 . S
C1559 C1558 1.385 . S
C1560 C1558 1.478 . S
C1560 C1562 1.381 . S
C1560 C1566 1.383 . S
C1561 C1557 1.495 . S
C1561 H1567 0.959 . S
C1561 H1568 0.961 . S
C1561 H1569 0.960 1_554 S
C1562 C1560 1.381 . S
C1562 C1563 1.394 . S
C1562 H1570 0.930 . S
C1563 C1562 1.394 . S
C1563 C1564 1.383 . S
C1563 H1571 0.929 . S
C1564 C1563 1.383 . S
C1564 C1565 1.377 . S
C1565 H1549 0.930 . S
C1565 C1564 1.377 . S
C1565 C1566 1.379 . S
C1566 H1550 0.931 . S
C1566 C1560 1.383 . S
C1566 C1565 1.379 . S
H1567 C1561 0.959 . S
H1568 C1561 0.961 . S
H1569 C1561 0.960 1_556 S
H1570 C1562 0.930 . S
H1571 C1563 0.929 . S
H1572 C1580 0.929 . S
H1573 C1582 0.930 . S
H1574 C1584 0.930 . S
H1575 C1587 0.929 . S
H1576 C1590 0.930 . S
H1577 C1592 0.960 . S
H1578 C1592 0.960 . S
H1579 C1592 0.960 . S
C1580 H1572 0.929 . S
C1580 C1581 1.377 . S
C1580 C1582 1.384 . S
C1581 C1580 1.377 . S
C1581 C1587 1.390 . S
C1582 H1573 0.930 . S
C1582 C1580 1.384 . S
C1582 C1583 1.372 . S
C1583 C1582 1.372 . S
C1583 C1584 1.400 . S
C1583 C1588 1.490 . S
C1584 H1574 0.930 . S
C1584 C1583 1.400 . S
C1584 C1587 1.386 . S
H1585 C1601 0.930 . S
H1586 C1602 0.931 . S
C1587 H1575 0.929 . S
C1587 C1581 1.390 . S
C1587 C1584 1.386 . S
C1588 C1583 1.490 . S
C1588 C1590 1.395 . S
C1588 C1591 1.403 . S
H1589 C1595 0.930 . S
C1590 H1576 0.930 . S
C1590 C1588 1.395 . S
C1590 C1593 1.403 1_455 S
C1591 C1588 1.403 . S
C1591 C1592 1.524 . S
C1591 C1595 1.400 1_455 S
C1592 H1577 0.960 . S
C1592 H1578 0.960 . S
C1592 H1579 0.960 . S
C1592 C1591 1.524 . S
C1593 C1590 1.403 1_655 S
C1593 C1594 1.392 . S
C1593 C1597 1.495 . S
C1594 C1593 1.392 . S
C1594 C1595 1.385 . S
C1594 C1596 1.478 . S
C1595 H1589 0.930 . S
C1595 C1591 1.400 1_655 S
C1595 C1594 1.385 . S
C1596 C1594 1.478 . S
C1596 C1598 1.381 . S
C1596 C1602 1.383 . S
C1597 C1593 1.495 . S
C1597 H1603 0.959 . S
C1597 H1604 0.961 . S
C1597 H1605 0.960 . S
C1598 C1596 1.381 . S
C1598 C1599 1.394 . S
C1598 H1606 0.930 . S
C1599 C1598 1.394 . S
C1599 C1600 1.383 . S
C1599 H1607 0.929 . S
C1600 C1599 1.383 . S
C1600 C1601 1.377 . S
C1601 H1585 0.930 . S
C1601 C1600 1.377 . S
C1601 C1602 1.379 . S
C1602 H1586 0.931 . S
C1602 C1596 1.383 . S
C1602 C1601 1.379 . S
H1603 C1597 0.959 . S
H1604 C1597 0.961 . S
H1605 C1597 0.960 . S
H1606 C1598 0.930 . S
H1607 C1599 0.929 . S
H1608 C1616 0.929 . S
H1609 C1618 0.930 . S
H1610 C1620 0.930 . S
H1611 C1623 0.929 . S
H1612 C1626 0.930 . S
H1613 C1628 0.960 . S
H1614 C1628 0.960 . S
H1615 C1628 0.960 . S
C1616 H1608 0.929 . S
C1616 C1617 1.377 . S
C1616 C1618 1.384 . S
C1617 C1616 1.377 . S
C1617 C1623 1.390 . S
C1618 H1609 0.930 . S
C1618 C1616 1.384 . S
C1618 C1619 1.372 . S
C1619 C1618 1.372 . S
C1619 C1620 1.400 . S
C1619 C1624 1.490 . S
C1620 H1610 0.930 . S
C1620 C1619 1.400 . S
C1620 C1623 1.386 . S
H1621 C1637 0.930 . S
H1622 C1638 0.931 . S
C1623 H1611 0.929 . S
C1623 C1617 1.390 . S
C1623 C1620 1.386 . S
C1624 C1619 1.490 . S
C1624 C1626 1.395 . S
C1624 C1627 1.403 . S
H1625 C1631 0.930 . S
C1626 H1612 0.930 . S
C1626 C1624 1.395 . S
C1626 C1629 1.403 . S
C1627 C1624 1.403 . S
C1627 C1628 1.524 . S
C1627 C1631 1.400 . S
C1628 H1613 0.960 . S
C1628 H1614 0.960 . S
C1628 H1615 0.960 . S
C1628 C1627 1.524 . S
C1629 C1626 1.403 . S
C1629 C1630 1.392 . S
C1629 C1633 1.495 . S
C1630 C1629 1.392 . S
C1630 C1631 1.385 . S
C1630 C1632 1.478 . S
C1631 H1625 0.930 . S
C1631 C1627 1.400 . S
C1631 C1630 1.385 . S
C1632 C1630 1.478 . S
C1632 C1634 1.381 . S
C1632 C1638 1.383 . S
C1633 C1629 1.495 . S
C1633 H1639 0.959 . S
C1633 H1640 0.961 . S
C1633 H1641 0.960 . S
C1634 C1632 1.381 . S
C1634 C1635 1.394 . S
C1634 H1642 0.930 . S
C1635 C1634 1.394 . S
C1635 C1636 1.383 . S
C1635 H1643 0.929 . S
C1636 C1635 1.383 . S
C1636 C1637 1.377 . S
C1637 H1621 0.930 . S
C1637 C1636 1.377 . S
C1637 C1638 1.379 . S
C1638 H1622 0.931 . S
C1638 C1632 1.383 . S
C1638 C1637 1.379 . S
H1639 C1633 0.959 . S
H1640 C1633 0.961 . S
H1641 C1633 0.960 . S
H1642 C1634 0.930 . S
H1643 C1635 0.929 . S
H1644 C1652 0.929 . S
H1645 C1654 0.930 . S
H1646 C1656 0.930 . S
H1647 C1659 0.929 . S
H1648 C1662 0.930 . S
H1649 C1664 0.960 . S
H1650 C1664 0.960 . S
H1651 C1664 0.960 . S
C1652 H1644 0.929 . S
C1652 C1653 1.377 . S
C1652 C1654 1.384 . S
C1653 C1652 1.377 . S
C1653 C1659 1.390 . S
C1654 H1645 0.930 . S
C1654 C1652 1.384 . S
C1654 C1655 1.372 . S
C1655 C1654 1.372 . S
C1655 C1656 1.400 . S
C1655 C1660 1.490 . S
C1656 H1646 0.930 . S
C1656 C1655 1.400 . S
C1656 C1659 1.386 . S
H1657 C1673 0.930 . S
H1658 C1674 0.931 . S
C1659 H1647 0.929 . S
C1659 C1653 1.390 . S
C1659 C1656 1.386 . S
C1660 C1655 1.490 . S
C1660 C1662 1.395 . S
C1660 C1663 1.403 . S
H1661 C1667 0.930 . S
C1662 H1648 0.930 . S
C1662 C1660 1.395 . S
C1662 C1665 1.403 . S
C1663 C1660 1.403 . S
C1663 C1664 1.524 . S
C1663 C1667 1.400 . S
C1664 H1649 0.960 . S
C1664 H1650 0.960 . S
C1664 H1651 0.960 . S
C1664 C1663 1.524 . S
C1665 C1662 1.403 . S
C1665 C1666 1.392 . S
C1665 C1669 1.495 . S
C1666 C1665 1.392 . S
C1666 C1667 1.385 . S
C1666 C1668 1.478 . S
C1667 H1661 0.930 . S
C1667 C1663 1.400 . S
C1667 C1666 1.385 . S
C1668 C1666 1.478 . S
C1668 C1670 1.381 . S
C1668 C1674 1.383 . S
C1669 C1665 1.495 . S
C1669 H1675 0.959 . S
C1669 H1676 0.961 . S
C1669 H1677 0.960 . S
C1670 C1668 1.381 . S
C1670 C1671 1.394 . S
C1670 H1678 0.930 . S
C1671 C1670 1.394 . S
C1671 C1672 1.383 . S
C1671 H1679 0.929 . S
C1672 C1671 1.383 . S
C1672 C1673 1.377 . S
C1673 H1657 0.930 . S
C1673 C1672 1.377 . S
C1673 C1674 1.379 . S
C1674 H1658 0.931 . S
C1674 C1668 1.383 . S
C1674 C1673 1.379 . S
H1675 C1669 0.959 . S
H1676 C1669 0.961 . S
H1677 C1669 0.960 . S
H1678 C1670 0.930 . S
H1679 C1671 0.929 . S
H1680 C1688 0.929 . S
H1681 C1690 0.930 . S
H1682 C1692 0.930 . S
H1683 C1695 0.929 . S
H1684 C1698 0.930 . S
H1685 C1700 0.960 . S
H1686 C1700 0.960 . S
H1687 C1700 0.960 . S
C1688 H1680 0.929 . S
C1688 C1689 1.377 . S
C1688 C1690 1.384 . S
C1689 C1688 1.377 . S
C1689 C1695 1.390 . S
C1690 H1681 0.930 . S
C1690 C1688 1.384 . S
C1690 C1691 1.372 . S
C1691 C1690 1.372 . S
C1691 C1692 1.400 . S
C1691 C1696 1.490 . S
C1692 H1682 0.930 . S
C1692 C1691 1.400 . S
C1692 C1695 1.386 . S
H1693 C1709 0.930 . S
H1694 C1710 0.931 . S
C1695 H1683 0.929 . S
C1695 C1689 1.390 . S
C1695 C1692 1.386 . S
C1696 C1691 1.490 . S
C1696 C1698 1.395 . S
C1696 C1699 1.403 . S
H1697 C1703 0.930 . S
C1698 H1684 0.930 . S
C1698 C1696 1.395 . S
C1698 C1701 1.403 . S
C1699 C1696 1.403 . S
C1699 C1700 1.524 . S
C1699 C1703 1.400 . S
C1700 H1685 0.960 . S
C1700 H1686 0.960 . S
C1700 H1687 0.960 . S
C1700 C1699 1.524 . S
C1701 C1698 1.403 . S
C1701 C1702 1.392 . S
C1701 C1705 1.495 . S
C1702 C1701 1.392 . S
C1702 C1703 1.385 . S
C1702 C1704 1.478 . S
C1703 H1697 0.930 . S
C1703 C1699 1.400 . S
C1703 C1702 1.385 . S
C1704 C1702 1.478 . S
C1704 C1706 1.381 . S
C1704 C1710 1.383 . S
C1705 C1701 1.495 . S
C1705 H1711 0.959 . S
C1705 H1712 0.961 . S
C1705 H1713 0.960 . S
C1706 C1704 1.381 . S
C1706 C1707 1.394 . S
C1706 H1714 0.930 . S
C1707 C1706 1.394 . S
C1707 C1708 1.383 . S
C1707 H1715 0.929 . S
C1708 C1707 1.383 . S
C1708 C1709 1.377 . S
C1709 H1693 0.930 . S
C1709 C1708 1.377 . S
C1709 C1710 1.379 . S
C1710 H1694 0.931 . S
C1710 C1704 1.383 . S
C1710 C1709 1.379 . S
H1711 C1705 0.959 . S
H1712 C1705 0.961 . S
H1713 C1705 0.960 . S
H1714 C1706 0.930 . S
H1715 C1707 0.929 . S
H1716 C1724 0.929 . S
H1717 C1726 0.930 . S
H1718 C1728 0.930 . S
H1719 C1731 0.929 . S
H1720 C1734 0.930 . S
H1721 C1736 0.960 . S
H1722 C1736 0.960 . S
H1723 C1736 0.960 . S
C1724 H1716 0.929 . S
C1724 C1725 1.377 . S
C1724 C1726 1.384 . S
C1725 C1724 1.377 . S
C1725 C1731 1.390 . S
C1726 H1717 0.930 . S
C1726 C1724 1.384 . S
C1726 C1727 1.372 . S
C1727 C1726 1.372 . S
C1727 C1728 1.400 . S
C1727 C1732 1.490 . S
C1728 H1718 0.930 . S
C1728 C1727 1.400 . S
C1728 C1731 1.386 . S
H1729 C1745 0.930 . S
H1730 C1746 0.931 . S
C1731 H1719 0.929 . S
C1731 C1725 1.390 . S
C1731 C1728 1.386 . S
C1732 C1727 1.490 . S
C1732 C1734 1.395 . S
C1732 C1735 1.403 . S
H1733 C1739 0.930 . S
C1734 H1720 0.930 . S
C1734 C1732 1.395 . S
C1734 C1737 1.403 . S
C1735 C1732 1.403 . S
C1735 C1736 1.524 . S
C1735 C1739 1.400 . S
C1736 H1721 0.960 . S
C1736 H1722 0.960 . S
C1736 H1723 0.960 . S
C1736 C1735 1.524 . S
C1737 C1734 1.403 . S
C1737 C1738 1.392 . S
C1737 C1741 1.495 . S
C1738 C1737 1.392 . S
C1738 C1739 1.385 . S
C1738 C1740 1.478 . S
C1739 H1733 0.930 . S
C1739 C1735 1.400 . S
C1739 C1738 1.385 . S
C1740 C1738 1.478 . S
C1740 C1742 1.381 . S
C1740 C1746 1.383 . S
C1741 C1737 1.495 . S
C1741 H1747 0.959 . S
C1741 H1748 0.961 . S
C1741 H1749 0.960 . S
C1742 C1740 1.381 . S
C1742 C1743 1.394 . S
C1742 H1750 0.930 . S
C1743 C1742 1.394 . S
C1743 C1744 1.383 . S
C1743 H1751 0.929 . S
C1744 C1743 1.383 . S
C1744 C1745 1.377 . S
C1745 H1729 0.930 . S
C1745 C1744 1.377 . S
C1745 C1746 1.379 . S
C1746 H1730 0.931 . S
C1746 C1740 1.383 . S
C1746 C1745 1.379 . S
H1747 C1741 0.959 . S
H1748 C1741 0.961 . S
H1749 C1741 0.960 . S
H1750 C1742 0.930 . S
H1751 C1743 0.929 . S
H1752 C1760 0.929 . S
H1753 C1762 0.930 . S
H1754 C1764 0.930 . S
H1755 C1767 0.929 . S
H1756 C1770 0.930 . S
H1757 C1772 0.960 . S
H1758 C1772 0.960 . S
H1759 C1772 0.960 . S
C1760 H1752 0.929 . S
C1760 C1761 1.377 . S
C1760 C1762 1.384 . S
C1761 C1760 1.377 . S
C1761 C1767 1.390 . S
C1762 H1753 0.930 . S
C1762 C1760 1.384 . S
C1762 C1763 1.372 . S
C1763 C1762 1.372 . S
C1763 C1764 1.400 . S
C1763 C1768 1.490 . S
C1764 H1754 0.930 . S
C1764 C1763 1.400 . S
C1764 C1767 1.386 . S
H1765 C1781 0.930 . S
H1766 C1782 0.931 . S
C1767 H1755 0.929 . S
C1767 C1761 1.390 . S
C1767 C1764 1.386 . S
C1768 C1763 1.490 . S
C1768 C1770 1.395 . S
C1768 C1771 1.403 . S
H1769 C1775 0.930 . S
C1770 H1756 0.930 . S
C1770 C1768 1.395 . S
C1770 C1773 1.403 . S
C1771 C1768 1.403 . S
C1771 C1772 1.524 . S
C1771 C1775 1.400 . S
C1772 H1757 0.960 . S
C1772 H1758 0.960 . S
C1772 H1759 0.960 . S
C1772 C1771 1.524 . S
C1773 C1770 1.403 . S
C1773 C1774 1.392 . S
C1773 C1777 1.495 . S
C1774 C1773 1.392 . S
C1774 C1775 1.385 . S
C1774 C1776 1.478 . S
C1775 H1769 0.930 . S
C1775 C1771 1.400 . S
C1775 C1774 1.385 . S
C1776 C1774 1.478 . S
C1776 C1778 1.381 . S
C1776 C1782 1.383 . S
C1777 C1773 1.495 . S
C1777 H1783 0.959 . S
C1777 H1784 0.961 . S
C1777 H1785 0.960 . S
C1778 C1776 1.381 . S
C1778 C1779 1.394 . S
C1778 H1786 0.930 . S
C1779 C1778 1.394 . S
C1779 C1780 1.383 . S
C1779 H1787 0.929 . S
C1780 C1779 1.383 . S
C1780 C1781 1.377 . S
C1781 H1765 0.930 . S
C1781 C1780 1.377 . S
C1781 C1782 1.379 . S
C1782 H1766 0.931 . S
C1782 C1776 1.383 . S
C1782 C1781 1.379 . S
H1783 C1777 0.959 . S
H1784 C1777 0.961 . S
H1785 C1777 0.960 . S
H1786 C1778 0.930 . S
H1787 C1779 0.929 . S
H1788 C1796 0.929 . S
H1789 C1798 0.930 . S
H1790 C1800 0.930 . S
H1791 C1803 0.929 . S
H1792 C1806 0.930 . S
H1793 C1808 0.960 . S
H1794 C1808 0.960 . S
H1795 C1808 0.960 . S
C1796 H1788 0.929 . S
C1796 C1797 1.377 . S
C1796 C1798 1.384 . S
C1797 C1796 1.377 . S
C1797 C1803 1.390 . S
C1798 H1789 0.930 . S
C1798 C1796 1.384 . S
C1798 C1799 1.372 . S
C1799 C1798 1.372 . S
C1799 C1800 1.400 . S
C1799 C1804 1.490 . S
C1800 H1790 0.930 . S
C1800 C1799 1.400 . S
C1800 C1803 1.386 . S
H1801 C1817 0.930 . S
H1802 C1818 0.931 . S
C1803 H1791 0.929 . S
C1803 C1797 1.390 . S
C1803 C1800 1.386 . S
C1804 C1799 1.490 . S
C1804 C1806 1.395 . S
C1804 C1807 1.403 . S
H1805 C1811 0.930 . S
C1806 H1792 0.930 . S
C1806 C1804 1.395 . S
C1806 C1809 1.403 . S
C1807 C1804 1.403 . S
C1807 C1808 1.524 . S
C1807 C1811 1.400 . S
C1808 H1793 0.960 . S
C1808 H1794 0.960 . S
C1808 H1795 0.960 . S
C1808 C1807 1.524 . S
C1809 C1806 1.403 . S
C1809 C1810 1.392 . S
C1809 C1813 1.495 . S
C1810 C1809 1.392 . S
C1810 C1811 1.385 . S
C1810 C1812 1.478 . S
C1811 H1805 0.930 . S
C1811 C1807 1.400 . S
C1811 C1810 1.385 . S
C1812 C1810 1.478 . S
C1812 C1814 1.381 . S
C1812 C1818 1.383 . S
C1813 C1809 1.495 . S
C1813 H1819 0.959 . S
C1813 H1820 0.961 . S
C1813 H1821 0.960 . S
C1814 C1812 1.381 . S
C1814 C1815 1.394 . S
C1814 H1822 0.930 . S
C1815 C1814 1.394 . S
C1815 C1816 1.383 . S
C1815 H1823 0.929 . S
C1816 C1815 1.383 . S
C1816 C1817 1.377 . S
C1817 H1801 0.930 . S
C1817 C1816 1.377 . S
C1817 C1818 1.379 . S
C1818 H1802 0.931 . S
C1818 C1812 1.383 . S
C1818 C1817 1.379 . S
H1819 C1813 0.959 . S
H1820 C1813 0.961 . S
H1821 C1813 0.960 . S
H1822 C1814 0.930 . S
H1823 C1815 0.929 . S
H1824 C1832 0.929 . S
H1825 C1834 0.930 . S
H1826 C1836 0.930 . S
H1827 C1839 0.929 . S
H1828 C1842 0.930 . S
H1829 C1844 0.960 . S
H1830 C1844 0.960 . S
H1831 C1844 0.960 . S
C1832 H1824 0.929 . S
C1832 C1833 1.377 . S
C1832 C1834 1.384 . S
C1833 C1832 1.377 . S
C1833 C1839 1.390 . S
C1834 H1825 0.930 . S
C1834 C1832 1.384 . S
C1834 C1835 1.372 . S
C1835 C1834 1.372 . S
C1835 C1836 1.400 . S
C1835 C1840 1.490 . S
C1836 H1826 0.930 . S
C1836 C1835 1.400 . S
C1836 C1839 1.386 . S
H1837 C1853 0.930 . S
H1838 C1854 0.931 . S
C1839 H1827 0.929 . S
C1839 C1833 1.390 . S
C1839 C1836 1.386 . S
C1840 C1835 1.490 . S
C1840 C1842 1.395 . S
C1840 C1843 1.403 . S
H1841 C1847 0.930 . S
C1842 H1828 0.930 . S
C1842 C1840 1.395 . S
C1842 C1845 1.403 . S
C1843 C1840 1.403 . S
C1843 C1844 1.524 . S
C1843 C1847 1.400 . S
C1844 H1829 0.960 . S
C1844 H1830 0.960 . S
C1844 H1831 0.960 . S
C1844 C1843 1.524 . S
C1845 C1842 1.403 . S
C1845 C1846 1.392 . S
C1845 C1849 1.495 . S
C1846 C1845 1.392 . S
C1846 C1847 1.385 . S
C1846 C1848 1.478 . S
C1847 H1841 0.930 . S
C1847 C1843 1.400 . S
C1847 C1846 1.385 . S
C1848 C1846 1.478 . S
C1848 C1850 1.381 . S
C1848 C1854 1.383 . S
C1849 C1845 1.495 . S
C1849 H1855 0.959 . S
C1849 H1856 0.961 . S
C1849 H1857 0.960 . S
C1850 C1848 1.381 . S
C1850 C1851 1.394 . S
C1850 H1858 0.930 . S
C1851 C1850 1.394 . S
C1851 C1852 1.383 . S
C1851 H1859 0.929 . S
C1852 C1851 1.383 . S
C1852 C1853 1.377 . S
C1853 H1837 0.930 . S
C1853 C1852 1.377 . S
C1853 C1854 1.379 . S
C1854 H1838 0.931 . S
C1854 C1848 1.383 . S
C1854 C1853 1.379 . S
H1855 C1849 0.959 . S
H1856 C1849 0.961 . S
H1857 C1849 0.960 . S
H1858 C1850 0.930 . S
H1859 C1851 0.929 . S
H1860 C1868 0.929 . S
H1861 C1870 0.930 . S
H1862 C1872 0.930 . S
H1863 C1875 0.929 . S
H1864 C1878 0.930 . S
H1865 C1880 0.960 . S
H1866 C1880 0.960 . S
H1867 C1880 0.960 . S
C1868 H1860 0.929 . S
C1868 C1869 1.377 . S
C1868 C1870 1.384 . S
C1869 C1868 1.377 . S
C1869 C1875 1.390 . S
C1870 H1861 0.930 . S
C1870 C1868 1.384 . S
C1870 C1871 1.372 . S
C1871 C1870 1.372 . S
C1871 C1872 1.400 . S
C1871 C1876 1.490 . S
C1872 H1862 0.930 . S
C1872 C1871 1.400 . S
C1872 C1875 1.386 . S
H1873 C1889 0.930 . S
H1874 C1890 0.931 . S
C1875 H1863 0.929 . S
C1875 C1869 1.390 . S
C1875 C1872 1.386 . S
C1876 C1871 1.490 . S
C1876 C1878 1.395 . S
C1876 C1879 1.403 . S
H1877 C1883 0.930 . S
C1878 H1864 0.930 . S
C1878 C1876 1.395 . S
C1878 C1881 1.403 . S
C1879 C1876 1.403 . S
C1879 C1880 1.524 . S
C1879 C1883 1.400 . S
C1880 H1865 0.960 . S
C1880 H1866 0.960 . S
C1880 H1867 0.960 . S
C1880 C1879 1.524 . S
C1881 C1878 1.403 . S
C1881 C1882 1.392 . S
C1881 C1885 1.495 . S
C1882 C1881 1.392 . S
C1882 C1883 1.385 . S
C1882 C1884 1.478 . S
C1883 H1877 0.930 . S
C1883 C1879 1.400 . S
C1883 C1882 1.385 . S
C1884 C1882 1.478 . S
C1884 C1886 1.381 . S
C1884 C1890 1.383 . S
C1885 C1881 1.495 . S
C1885 H1891 0.959 . S
C1885 H1892 0.961 . S
C1885 H1893 0.960 . S
C1886 C1884 1.381 . S
C1886 C1887 1.394 . S
C1886 H1894 0.930 . S
C1887 C1886 1.394 . S
C1887 C1888 1.383 . S
C1887 H1895 0.929 . S
C1888 C1887 1.383 . S
C1888 C1889 1.377 . S
C1889 H1873 0.930 . S
C1889 C1888 1.377 . S
C1889 C1890 1.379 . S
C1890 H1874 0.931 . S
C1890 C1884 1.383 . S
C1890 C1889 1.379 . S
H1891 C1885 0.959 . S
H1892 C1885 0.961 . S
H1893 C1885 0.960 . S
H1894 C1886 0.930 . S
H1895 C1887 0.929 . S
H1896 C1904 0.929 . S
H1897 C1906 0.930 . S
H1898 C1908 0.930 . S
H1899 C1911 0.929 . S
H1900 C1914 0.930 . S
H1901 C1916 0.960 . S
H1902 C1916 0.960 . S
H1903 C1916 0.960 . S
C1904 H1896 0.929 . S
C1904 C1905 1.377 . S
C1904 C1906 1.384 . S
C1905 C1904 1.377 . S
C1905 C1911 1.390 . S
C1906 H1897 0.930 . S
C1906 C1904 1.384 . S
C1906 C1907 1.372 . S
C1907 C1906 1.372 . S
C1907 C1908 1.400 . S
C1907 C1912 1.490 . S
C1908 H1898 0.930 . S
C1908 C1907 1.400 . S
C1908 C1911 1.386 . S
H1909 C1925 0.930 . S
H1910 C1926 0.931 . S
C1911 H1899 0.929 . S
C1911 C1905 1.390 . S
C1911 C1908 1.386 . S
C1912 C1907 1.490 . S
C1912 C1914 1.395 . S
C1912 C1915 1.403 . S
H1913 C1919 0.930 . S
C1914 H1900 0.930 . S
C1914 C1912 1.395 . S
C1914 C1917 1.403 . S
C1915 C1912 1.403 . S
C1915 C1916 1.524 . S
C1915 C1919 1.400 . S
C1916 H1901 0.960 . S
C1916 H1902 0.960 . S
C1916 H1903 0.960 . S
C1916 C1915 1.524 . S
C1917 C1914 1.403 . S
C1917 C1918 1.392 . S
C1917 C1921 1.495 . S
C1918 C1917 1.392 . S
C1918 C1919 1.385 . S
C1918 C1920 1.478 . S
C1919 H1913 0.930 . S
C1919 C1915 1.400 . S
C1919 C1918 1.385 . S
C1920 C1918 1.478 . S
C1920 C1922 1.381 . S
C1920 C1926 1.383 . S
C1921 C1917 1.495 . S
C1921 H1927 0.959 . S
C1921 H1928 0.961 . S
C1921 H1929 0.960 . S
C1922 C1920 1.381 . S
C1922 C1923 1.394 . S
C1922 H1930 0.930 . S
C1923 C1922 1.394 . S
C1923 C1924 1.383 . S
C1923 H1931 0.929 . S
C1924 C1923 1.383 . S
C1924 C1925 1.377 . S
C1925 H1909 0.930 . S
C1925 C1924 1.377 . S
C1925 C1926 1.379 . S
C1926 H1910 0.931 . S
C1926 C1920 1.383 . S
C1926 C1925 1.379 . S
H1927 C1921 0.959 . S
H1928 C1921 0.961 . S
H1929 C1921 0.960 . S
H1930 C1922 0.930 . S
H1931 C1923 0.929 . S
H1932 C1940 0.929 . S
H1933 C1942 0.930 . S
H1934 C1944 0.930 . S
H1935 C1947 0.929 . S
H1936 C1950 0.930 . S
H1937 C1952 0.960 . S
H1938 C1952 0.960 . S
H1939 C1952 0.960 . S
C1940 H1932 0.929 . S
C1940 C1941 1.377 . S
C1940 C1942 1.384 . S
C1941 C1940 1.377 . S
C1941 C1947 1.390 . S
C1942 H1933 0.930 . S
C1942 C1940 1.384 . S
C1942 C1943 1.372 . S
C1943 C1942 1.372 . S
C1943 C1944 1.400 . S
C1943 C1948 1.490 . S
C1944 H1934 0.930 . S
C1944 C1943 1.400 . S
C1944 C1947 1.386 . S
H1945 C1961 0.930 . S
H1946 C1962 0.931 . S
C1947 H1935 0.929 . S
C1947 C1941 1.390 . S
C1947 C1944 1.386 . S
C1948 C1943 1.490 . S
C1948 C1950 1.395 . S
C1948 C1951 1.403 . S
H1949 C1955 0.930 . S
C1950 H1936 0.930 . S
C1950 C1948 1.395 . S
C1950 C1953 1.403 . S
C1951 C1948 1.403 . S
C1951 C1952 1.524 . S
C1951 C1955 1.400 . S
C1952 H1937 0.960 . S
C1952 H1938 0.960 . S
C1952 H1939 0.960 . S
C1952 C1951 1.524 . S
C1953 C1950 1.403 . S
C1953 C1954 1.392 . S
C1953 C1957 1.495 . S
C1954 C1953 1.392 . S
C1954 C1955 1.385 . S
C1954 C1956 1.478 . S
C1955 H1949 0.930 . S
C1955 C1951 1.400 . S
C1955 C1954 1.385 . S
C1956 C1954 1.478 . S
C1956 C1958 1.381 . S
C1956 C1962 1.383 . S
C1957 C1953 1.495 . S
C1957 H1963 0.959 . S
C1957 H1964 0.961 . S
C1957 H1965 0.960 . S
C1958 C1956 1.381 . S
C1958 C1959 1.394 . S
C1958 H1966 0.930 . S
C1959 C1958 1.394 . S
C1959 C1960 1.383 . S
C1959 H1967 0.929 . S
C1960 C1959 1.383 . S
C1960 C1961 1.377 . S
C1961 H1945 0.930 . S
C1961 C1960 1.377 . S
C1961 C1962 1.379 . S
C1962 H1946 0.931 . S
C1962 C1956 1.383 . S
C1962 C1961 1.379 . S
H1963 C1957 0.959 . S
H1964 C1957 0.961 . S
H1965 C1957 0.960 . S
H1966 C1958 0.930 . S
H1967 C1959 0.929 . S
H1968 C1976 0.929 . S
H1969 C1978 0.930 . S
H1970 C1980 0.930 . S
H1971 C1983 0.929 . S
H1972 C1986 0.930 . S
H1973 C1988 0.960 . S
H1974 C1988 0.960 . S
H1975 C1988 0.960 . S
C1976 H1968 0.929 . S
C1976 C1977 1.377 . S
C1976 C1978 1.384 . S
C1977 C1976 1.377 . S
C1977 C1983 1.390 . S
C1978 H1969 0.930 . S
C1978 C1976 1.384 . S
C1978 C1979 1.372 . S
C1979 C1978 1.372 . S
C1979 C1980 1.400 . S
C1979 C1984 1.490 . S
C1980 H1970 0.930 . S
C1980 C1979 1.400 . S
C1980 C1983 1.386 . S
H1981 C1997 0.930 . S
H1982 C1998 0.931 . S
C1983 H1971 0.929 . S
C1983 C1977 1.390 . S
C1983 C1980 1.386 . S
C1984 C1979 1.490 . S
C1984 C1986 1.395 . S
C1984 C1987 1.403 . S
H1985 C1991 0.930 . S
C1986 H1972 0.930 . S
C1986 C1984 1.395 . S
C1986 C1989 1.403 . S
C1987 C1984 1.403 . S
C1987 C1988 1.524 . S
C1987 C1991 1.400 . S
C1988 H1973 0.960 . S
C1988 H1974 0.960 . S
C1988 H1975 0.960 . S
C1988 C1987 1.524 . S
C1989 C1986 1.403 . S
C1989 C1990 1.392 . S
C1989 C1993 1.495 . S
C1990 C1989 1.392 . S
C1990 C1991 1.385 . S
C1990 C1992 1.478 . S
C1991 H1985 0.930 . S
C1991 C1987 1.400 . S
C1991 C1990 1.385 . S
C1992 C1990 1.478 . S
C1992 C1994 1.381 . S
C1992 C1998 1.383 . S
C1993 C1989 1.495 . S
C1993 H1999 0.959 . S
C1993 H2000 0.961 . S
C1993 H2001 0.960 . S
C1994 C1992 1.381 . S
C1994 C1995 1.394 . S
C1994 H2002 0.930 . S
C1995 C1994 1.394 . S
C1995 C1996 1.383 . S
C1995 H2003 0.929 . S
C1996 C1995 1.383 . S
C1996 C1997 1.377 . S
C1997 H1981 0.930 . S
C1997 C1996 1.377 . S
C1997 C1998 1.379 . S
C1998 H1982 0.931 . S
C1998 C1992 1.383 . S
C1998 C1997 1.379 . S
H1999 C1993 0.959 . S
H2000 C1993 0.961 . S
H2001 C1993 0.960 . S
H2002 C1994 0.930 . S
H2003 C1995 0.929 . S
H2004 C2012 0.929 . S
H2005 C2014 0.930 . S
H2006 C2016 0.930 . S
H2007 C2019 0.929 . S
H2008 C2022 0.930 . S
H2009 C2024 0.960 . S
H2010 C2024 0.960 . S
H2011 C2024 0.960 . S
C2012 H2004 0.929 . S
C2012 C2013 1.377 . S
C2012 C2014 1.384 . S
C2013 C2012 1.377 . S
C2013 C2019 1.390 . S
C2014 H2005 0.930 . S
C2014 C2012 1.384 . S
C2014 C2015 1.372 . S
C2015 C2014 1.372 . S
C2015 C2016 1.400 . S
C2015 C2020 1.490 . S
C2016 H2006 0.930 . S
C2016 C2015 1.400 . S
C2016 C2019 1.386 . S
H2017 C2033 0.930 . S
H2018 C2034 0.931 . S
C2019 H2007 0.929 . S
C2019 C2013 1.390 . S
C2019 C2016 1.386 . S
C2020 C2015 1.490 . S
C2020 C2022 1.395 . S
C2020 C2023 1.403 . S
H2021 C2027 0.930 . S
C2022 H2008 0.930 . S
C2022 C2020 1.395 . S
C2022 C2025 1.403 . S
C2023 C2020 1.403 . S
C2023 C2024 1.524 . S
C2023 C2027 1.400 . S
C2024 H2009 0.960 . S
C2024 H2010 0.960 . S
C2024 H2011 0.960 . S
C2024 C2023 1.524 . S
C2025 C2022 1.403 . S
C2025 C2026 1.392 . S
C2025 C2029 1.495 . S
C2026 C2025 1.392 . S
C2026 C2027 1.385 . S
C2026 C2028 1.478 . S
C2027 H2021 0.930 . S
C2027 C2023 1.400 . S
C2027 C2026 1.385 . S
C2028 C2026 1.478 . S
C2028 C2030 1.381 . S
C2028 C2034 1.383 . S
C2029 C2025 1.495 . S
C2029 H2035 0.959 . S
C2029 H2036 0.961 . S
C2029 H2037 0.960 . S
C2030 C2028 1.381 . S
C2030 C2031 1.394 . S
C2030 H2038 0.930 . S
C2031 C2030 1.394 . S
C2031 C2032 1.383 . S
C2031 H2039 0.929 . S
C2032 C2031 1.383 . S
C2032 C2033 1.377 . S
C2033 H2017 0.930 . S
C2033 C2032 1.377 . S
C2033 C2034 1.379 . S
C2034 H2018 0.931 . S
C2034 C2028 1.383 . S
C2034 C2033 1.379 . S
H2035 C2029 0.959 . S
H2036 C2029 0.961 . S
H2037 C2029 0.960 . S
H2038 C2030 0.930 . S
H2039 C2031 0.929 . S
C321 C200 1.277 . S
C340 C5 1.246 . S
C357 C18 1.273 . S
C376 C213 1.305 . S
C393 C31 1.283 . S
C412 C226 1.271 . S
C429 C44 1.278 . S
C448 C161 1.244 . S
C465 C174 1.282 . S
C484 C57 1.278 . S
C501 C70 1.282 . S
C520 C187 1.275 . S
C537 C278 1.270 . S
C556 C83 1.285 . S
C573 C96 1.280 . S
C592 C291 1.243 . S
C609 C109 1.279 . S
C628 C304 1.294 . S
C645 C239 1.282 . S
C664 C122 1.245 . S
C681 C135 1.279 . S
C700 C252 1.295 . S
C717 C265 1.281 . S
C736 C148 1.284 . S
C753 C10 1.070 . S
C772 C309 1.066 . S
C789 C244 1.077 . S
C808 C23 1.053 . S
C825 C36 1.077 . S
C844 C257 1.054 . S
C861 C270 1.070 . S
C880 C49 1.092 . S
C897 C62 1.075 . S
C916 C283 1.087 . S
C933 C296 1.073 . S
C952 C75 1.092 . S
C969 C88 1.070 . S
C988 C179 1.064 . S
C1005 C192 1.077 . S
C1024 C101 1.052 . S
C1041 C205 1.077 . S
C1060 C114 1.051 . S
C1077 C218 1.078 . S
C1096 C127 1.057 . S
C1113 C140 1.071 . S
C1132 C231 1.058 . S
C1149 C153 1.077 . S
C1168 C166 1.078 . S
C1185 C91 1.022 . S
C1204 C0 1.042 . S
C1221 C104 1.022 . S
C1240 C13 1.042 . S
C1257 C117 1.020 . S
C1276 C26 1.041 . S
C1293 C130 1.019 . S
C1312 C39 1.039 . S
C1329 C52 1.025 . S
C1348 C143 1.018 . S
C1365 C65 1.016 . S
C1384 C78 0.997 . S
C1401 C156 1.024 . S
C1420 C247 1.021 . S
C1437 C169 1.019 . S
C1456 C260 1.034 . S
C1473 C273 1.025 . S
C1492 C182 1.029 . S
C1509 C286 1.024 . S
C1528 C195 1.042 . S
C1545 C299 1.016 . S
C1564 C208 0.998 . S
C1581 C234 1.024 . S
C1600 C221 1.018 . S
C1617 C8 1.371 . S
C1636 C255 1.363 . S
C1653 C268 1.369 . S
C1672 C21 1.390 . S
C1689 C34 1.379 . S
C1708 C281 1.374 . S
C1725 C294 1.380 . S
C1744 C47 1.351 . S
C1761 C60 1.372 . S
C1780 C307 1.399 . S
C1797 C242 1.370 . S
C1816 C73 1.397 . S
C1833 C86 1.377 . S
C1852 C229 1.391 . S
C1869 C164 1.380 . S
C1888 C99 1.369 . S
C1905 C112 1.380 . S
C1924 C177 1.359 . S
C1941 C125 1.370 . S
C1960 C190 1.371 . S
C1977 C138 1.369 . S
C1996 C203 1.375 . S
C2013 C151 1.371 . S
C2032 C216 1.360 . S
