# Generated by pormake.
# Topology umo, (4)-cn, num edge types: 1
# Building blocks:
#     Node 0, Type 0, BuildingBlock: ESEHIV_clean_sbu_0, # of connection points: 4
#     Node 1, Type 0, BuildingBlock: ESEHIV_clean_sbu_0, # of connection points: 4
#     Node 2, Type 0, BuildingBlock: ESEHIV_clean_sbu_0, # of connection points: 4
#     Node 3, Type 0, BuildingBlock: ESEHIV_clean_sbu_0, # of connection points: 4
#     Node 4, Type 0, BuildingBlock: ESEHIV_clean_sbu_0, # of connection points: 4
#     Node 5, Type 0, BuildingBlock: ESEHIV_clean_sbu_0, # of connection points: 4
#     Node 6, Type 0, BuildingBlock: ESEHIV_clean_sbu_0, # of connection points: 4
#     Node 7, Type 0, BuildingBlock: ESEHIV_clean_sbu_0, # of connection points: 4
#     Node 8, Type 0, BuildingBlock: ESEHIV_clean_sbu_0, # of connection points: 4
#     Node 9, Type 0, BuildingBlock: ESEHIV_clean_sbu_0, # of connection points: 4
#     Node 10, Type 0, BuildingBlock: ESEHIV_clean_sbu_0, # of connection points: 4
#     Node 11, Type 0, BuildingBlock: ESEHIV_clean_sbu_0, # of connection points: 4
#     Edge 12, Type (0, 0), BuildingBlock: CIFDUS_clean_linker_0, # of connection points: 2
#     Edge 13, Type (0, 0), BuildingBlock: CIFDUS_clean_linker_0, # of connection points: 2
#     Edge 14, Type (0, 0), BuildingBlock: CIFDUS_clean_linker_0, # of connection points: 2
#     Edge 15, Type (0, 0), BuildingBlock: CIFDUS_clean_linker_0, # of connection points: 2
#     Edge 16, Type (0, 0), BuildingBlock: CIFDUS_clean_linker_0, # of connection points: 2
#     Edge 17, Type (0, 0), BuildingBlock: CIFDUS_clean_linker_0, # of connection points: 2
#     Edge 18, Type (0, 0), BuildingBlock: CIFDUS_clean_linker_0, # of connection points: 2
#     Edge 19, Type (0, 0), BuildingBlock: CIFDUS_clean_linker_0, # of connection points: 2
#     Edge 20, Type (0, 0), BuildingBlock: CIFDUS_clean_linker_0, # of connection points: 2
#     Edge 21, Type (0, 0), BuildingBlock: CIFDUS_clean_linker_0, # of connection points: 2
#     Edge 22, Type (0, 0), BuildingBlock: CIFDUS_clean_linker_0, # of connection points: 2
#     Edge 23, Type (0, 0), BuildingBlock: CIFDUS_clean_linker_0, # of connection points: 2
#     Edge 24, Type (0, 0), BuildingBlock: CIFDUS_clean_linker_0, # of connection points: 2
#     Edge 25, Type (0, 0), BuildingBlock: CIFDUS_clean_linker_0, # of connection points: 2
#     Edge 26, Type (0, 0), BuildingBlock: CIFDUS_clean_linker_0, # of connection points: 2
#     Edge 27, Type (0, 0), BuildingBlock: CIFDUS_clean_linker_0, # of connection points: 2
#     Edge 28, Type (0, 0), BuildingBlock: CIFDUS_clean_linker_0, # of connection points: 2
#     Edge 29, Type (0, 0), BuildingBlock: CIFDUS_clean_linker_0, # of connection points: 2
#     Edge 30, Type (0, 0), BuildingBlock: CIFDUS_clean_linker_0, # of connection points: 2
#     Edge 31, Type (0, 0), BuildingBlock: CIFDUS_clean_linker_0, # of connection points: 2
#     Edge 32, Type (0, 0), BuildingBlock: CIFDUS_clean_linker_0, # of connection points: 2
#     Edge 33, Type (0, 0), BuildingBlock: CIFDUS_clean_linker_0, # of connection points: 2
#     Edge 34, Type (0, 0), BuildingBlock: CIFDUS_clean_linker_0, # of connection points: 2
#     Edge 35, Type (0, 0), BuildingBlock: CIFDUS_clean_linker_0, # of connection points: 2
# Relax obj value: 0.178
# Max RMSD: 0.174
# Mean RMSD: 0.174
data_MOF--net-umo--node1-ESEHIV_clean_sbu_0--edge1-CIFDUS_clean_linker_0
_symmetry_space_group_name_H-M    P1
_symmetry_Int_Tables_number       1
_symmetry_cell_setting            triclinic
loop_
_symmetry_equiv_pos_as_xyz
'x, y, z'
_cell_length_a     50.003016
_cell_length_b     49.733193
_cell_length_c     29.621962
_cell_angle_alpha  89.889988
_cell_angle_beta   90.005114
_cell_angle_gamma 119.68092
loop_
_atom_site_label
_atom_site_type_symbol
_atom_site_fract_x
_atom_site_fract_y
_atom_site_fract_z
_atom_type_partial_charge
Cu0 Cu 0.21515 0.58017 0.39298 0.0
N1 N 0.25179 0.58024 0.40652 0.0
N2 N 0.30304 0.60103 0.40421 0.0
C3 C 0.27842 0.60244 0.38887 0.0
C4 C 0.29148 0.57681 0.43312 0.0
C5 C 0.25967 0.56375 0.43414 0.0
O6 O 0.22174 0.59071 0.32871 0.0
C7 C 0.21522 0.6045 0.4755 0.0
O8 O 0.21837 0.58054 0.48585 0.0
H9 H 0.27977 0.62035 0.36658 0.0
H10 H 0.2437 0.54439 0.45463 0.0
N11 N 0.17835 0.54248 0.40094 0.0
N12 N 0.12738 0.51025 0.40316 0.0
C13 C 0.15024 0.53991 0.39953 0.0
C14 C 0.17317 0.51336 0.40616 0.0
C15 C 0.14168 0.49338 0.40721 0.0
C16 C 0.22126 0.5691 0.30484 0.0
O17 O 0.20954 0.54146 0.32301 0.0
H18 H 0.14666 0.55949 0.39479 0.0
H19 H 0.19096 0.50706 0.4081 0.0
O20 O 0.21294 0.60993 0.43394 0.0
H21 H 0.30502 0.56942 0.4526 0.0
H22 H 0.13022 0.46848 0.41095 0.0
Cu23 Cu 0.66645 0.172 0.57898 0.0
N24 N 0.69288 0.20612 0.61384 0.0
N25 N 0.69766 0.24884 0.64688 0.0
C26 C 0.69089 0.23197 0.60871 0.0
C27 C 0.70513 0.2333 0.6772 0.0
C28 C 0.70207 0.2069 0.65677 0.0
O29 O 0.67372 0.18806 0.51741 0.0
C30 C 0.62555 0.15229 0.64776 0.0
O31 O 0.64236 0.13974 0.65893 0.0
H32 H 0.67977 0.23555 0.57978 0.0
H33 H 0.70232 0.18779 0.67386 0.0
N34 N 0.67254 0.13763 0.58213 0.0
N35 N 0.66415 0.08936 0.57175 0.0
C36 C 0.65385 0.10952 0.5641 0.0
C37 C 0.6955 0.13529 0.60195 0.0
C38 C 0.69042 0.10563 0.5956 0.0
C39 C 0.70062 0.19577 0.50292 0.0
O40 O 0.71831 0.18935 0.52827 0.0
H41 H 0.63329 0.1042 0.5452 0.0
H42 H 0.71457 0.15385 0.61975 0.0
O43 O 0.62775 0.16249 0.60758 0.0
H44 H 0.70961 0.23893 0.71266 0.0
H45 H 0.70484 0.09671 0.60814 0.0
Cu46 Cu 0.46125 0.61176 0.74431 0.0
N47 N 0.44706 0.62326 0.79552 0.0
N48 N 0.41442 0.6315 0.8373 0.0
C49 C 0.41789 0.61751 0.8006 0.0
C50 C 0.44271 0.64715 0.85589 0.0
C51 C 0.4628 0.64219 0.82992 0.0
O52 O 0.47333 0.64558 0.701 0.0
C53 C 0.40865 0.55011 0.74582 0.0
O54 O 0.38482 0.52673 0.72667 0.0
H55 H 0.39982 0.60447 0.77642 0.0
H56 H 0.4874 0.65312 0.83454 0.0
N57 N 0.49504 0.60547 0.75534 0.0
N58 N 0.52739 0.58648 0.74873 0.0
C59 C 0.50494 0.59001 0.72872 0.0
C60 C 0.51216 0.6122 0.79309 0.0
C61 C 0.53196 0.60056 0.78915 0.0
C62 C 0.45486 0.65486 0.68816 0.0
O63 O 0.42597 0.63946 0.7011 0.0
H64 H 0.49487 0.5803 0.69627 0.0
H65 H 0.50966 0.62359 0.8224 0.0
O66 O 0.42711 0.57318 0.72151 0.0
H67 H 0.44867 0.66194 0.88524 0.0
H68 H 0.54824 0.60201 0.81447 0.0
Cu69 Cu 0.86361 0.48038 0.91212 0.0
N70 N 0.8267 0.48004 0.92518 0.0
N71 N 0.77557 0.46116 0.92397 0.0
C72 C 0.79983 0.46069 0.90483 0.0
C73 C 0.78771 0.4817 0.95816 0.0
C74 C 0.81926 0.49328 0.95884 0.0
O75 O 0.85518 0.46138 0.85254 0.0
C76 C 0.88567 0.47002 0.99402 0.0
O77 O 0.90159 0.50038 0.99384 0.0
H78 H 0.79786 0.44485 0.87843 0.0
H79 H 0.83535 0.50906 0.98342 0.0
N80 N 0.89779 0.52064 0.90923 0.0
N81 N 0.94513 0.56027 0.89526 0.0
C82 C 0.92673 0.52914 0.8955 0.0
C83 C 0.89801 0.54721 0.91836 0.0
C84 C 0.92704 0.57159 0.90985 0.0
C85 C 0.85862 0.47837 0.81823 0.0
O86 O 0.87763 0.50827 0.82137 0.0
H87 H 0.93377 0.51284 0.88446 0.0
H88 H 0.87829 0.54878 0.92974 0.0
O89 O 0.86872 0.45613 0.96011 0.0
H90 H 0.77469 0.48727 0.98182 0.0
H91 H 0.93421 0.59584 0.91403 0.0
Cu92 Cu 0.42949 0.8846 0.07201 0.0
N93 N 0.45538 0.86744 0.0679 0.0
N94 N 0.47179 0.83296 0.07048 0.0
C95 C 0.44722 0.83737 0.07279 0.0
C96 C 0.4963 0.86139 0.06392 0.0
C97 C 0.48615 0.88259 0.06266 0.0
O98 O 0.39143 0.85697 0.03963 0.0
C99 C 0.40649 0.8612 0.15813 0.0
O100 O 0.39014 0.83575 0.1348 0.0
H101 H 0.42373 0.81911 0.07792 0.0
H102 H 0.5003 0.9074 0.05912 0.0
N103 N 0.44892 0.924 0.04399 0.0
N104 N 0.46578 0.97349 1.02337 0.0
C105 C 0.44918 0.95075 0.05393 0.0
C106 C 0.46571 0.93013 1.00606 0.0
C107 C 0.47591 0.96017 0.99327 0.0
C108 C 0.39379 0.84909 0.9995 0.0
O109 O 0.42137 0.86011 0.98192 0.0
H110 H 0.43758 0.95345 0.08294 0.0
H111 H 0.4702 0.91373 0.98854 0.0
O112 O 0.42321 0.88637 0.13677 0.0
H113 H 0.52 0.86663 0.06149 0.0
H114 H 0.48935 0.971 0.96331 0.0
Cu115 Cu 0.59424 0.42289 0.25408 0.0
N116 N 0.59749 0.39944 0.30096 0.0
N117 N 0.62563 0.38337 0.33927 0.0
C118 C 0.61698 0.38815 0.29833 0.0
C119 C 0.61082 0.39186 0.36918 0.0
C120 C 0.59342 0.40173 0.34542 0.0
O121 O 0.604 0.40666 0.20002 0.0
C122 C 0.61704 0.48091 0.29735 0.0
O123 O 0.58903 0.47643 0.2932 0.0
H124 H 0.62814 0.38777 0.26723 0.0
H125 H 0.58185 0.41331 0.35946 0.0
N126 N 0.55437 0.41796 0.25026 0.0
N127 N 0.51544 0.42773 0.24038 0.0
C128 C 0.54506 0.43646 0.23023 0.0
C129 C 0.52952 0.39628 0.27234 0.0
C130 C 0.50562 0.40217 0.26635 0.0
C131 C 0.58685 0.37746 0.19526 0.0
O132 O 0.56298 0.36298 0.22221 0.0
H133 H 0.56034 0.45722 0.21156 0.0
H134 H 0.52922 0.37817 0.293 0.0
O135 O 0.62489 0.46438 0.27403 0.0
H136 H 0.61453 0.39357 0.40531 0.0
H137 H 0.48298 0.38918 0.28138 0.0
Cu138 Cu 0.49005 0.83133 0.46193 0.0
N139 N 0.48991 0.79894 0.42959 0.0
N140 N 0.46602 0.74894 0.40928 0.0
C141 C 0.47228 0.76934 0.44301 0.0
C142 C 0.48063 0.76646 0.37282 0.0
C143 C 0.49534 0.79733 0.38546 0.0
O144 O 0.47358 0.81175 0.52053 0.0
C145 C 0.47833 0.86541 0.39683 0.0
O146 O 0.50852 0.8807 0.39562 0.0
H147 H 0.46062 0.76297 0.47523 0.0
H148 H 0.50623 0.81709 0.36304 0.0
N149 N 0.52927 0.86611 0.47085 0.0
N150 N 0.56474 0.91464 0.48955 0.0
C151 C 0.53466 0.8926 0.49112 0.0
C152 C 0.55689 0.87133 0.45618 0.0
C153 C 0.5788 0.90117 0.46775 0.0
C154 C 0.49168 0.80543 0.54283 0.0
O155 O 0.52043 0.81792 0.52937 0.0
H156 H 0.51659 0.8957 0.50593 0.0
H157 H 0.56068 0.85491 0.43731 0.0
O158 O 0.46475 0.84343 0.42543 0.0
H159 H 0.47873 0.75783 0.33877 0.0
H160 H 0.603 0.91238 0.45917 0.0
Cu161 Cu 0.66913 0.46527 0.63595 0.0
N162 N 0.64794 0.42215 0.64235 0.0
N163 N 0.64593 0.37615 0.64416 0.0
C164 C 0.65886 0.40447 0.62494 0.0
C165 C 0.62556 0.37577 0.67447 0.0
C166 C 0.62682 0.40422 0.67326 0.0
O167 O 0.71121 0.47758 0.6545 0.0
C168 C 0.66679 0.4954 0.5522 0.0
O169 O 0.6624 0.51502 0.5763 0.0
H170 H 0.67829 0.41345 0.60205 0.0
H171 H 0.61528 0.41213 0.69604 0.0
N172 N 0.65381 0.48503 0.67406 0.0
N173 N 0.62762 0.5053 0.70811 0.0
C174 C 0.62958 0.49017 0.67119 0.0
C175 C 0.66739 0.49754 0.71364 0.0
C176 C 0.65146 0.50987 0.73455 0.0
C177 C 0.7154 0.46327 0.68712 0.0
O178 O 0.69157 0.44276 0.71024 0.0
H179 H 0.61352 0.48258 0.64328 0.0
H180 H 0.68766 0.49765 0.72658 0.0
O181 O 0.66967 0.47418 0.57179 0.0
H182 H 0.61194 0.35695 0.6975 0.0
H183 H 0.65713 0.52155 0.76685 0.0
Cu184 Cu 0.21448 0.6702 0.81709 0.0
N185 N 0.22243 0.64075 0.84351 0.0
N186 N 0.25124 0.61899 0.85952 0.0
C187 C 0.25113 0.64509 0.84743 0.0
C188 C 0.22127 0.59726 0.86362 0.0
C189 C 0.20352 0.61077 0.85376 0.0
O190 O 0.24467 0.70962 0.84373 0.0
C191 C 0.20591 0.667 0.71852 0.0
O192 O 0.18041 0.66812 0.72408 0.0
H193 H 0.27152 0.66644 0.83807 0.0
H194 H 0.1787 0.59908 0.8517 0.0
N195 N 0.17485 0.66397 0.82917 0.0
N196 N 0.12436 0.64476 0.84222 0.0
C197 C 0.14693 0.63808 0.83218 0.0
C198 C 0.16966 0.68753 0.83758 0.0
C199 C 0.13882 0.6759 0.84564 0.0
C200 C 0.27138 0.72604 0.82686 0.0
O201 O 0.27795 0.71748 0.78842 0.0
H202 H 0.14316 0.61497 0.82673 0.0
H203 H 0.18731 0.71165 0.83821 0.0
O204 O 0.22213 0.6687 0.75274 0.0
H205 H 0.21276 0.57308 0.87131 0.0
H206 H 0.12804 0.68943 0.85446 0.0
Cu207 Cu 0.5826 0.24031 0.95269 0.0
N208 N 0.57862 0.27344 0.92928 0.0
N209 N 0.60454 0.32481 0.91638 0.0
C210 C 0.59661 0.30186 0.94677 0.0
C211 C 0.58981 0.31037 0.87816 0.0
C212 C 0.57382 0.2788 0.88618 0.0
O213 O 0.60518 0.25795 1.00912 0.0
C214 C 0.58799 0.21652 0.87162 0.0
O215 O 0.55905 0.20974 0.87045 0.0
H216 H 0.60803 0.30545 0.97878 0.0
H217 H 0.56306 0.26127 0.86053 0.0
N218 N 0.5465 0.20257 0.96508 0.0
N219 N 0.51938 0.1513 0.97802 0.0
C220 C 0.54693 0.17571 0.96667 0.0
C221 C 0.51751 0.19512 0.97609 0.0
C222 C 0.50072 0.16345 0.98417 0.0
C223 C 0.59347 0.24727 0.04774 0.0
O224 O 0.57172 0.2182 0.05082 0.0
H225 H 0.56761 0.17443 0.96062 0.0
H226 H 0.50927 0.21148 0.9786 0.0
O227 O 0.60409 0.23024 0.90642 0.0
H228 H 0.59295 0.32144 0.84557 0.0
H229 H 0.47665 0.15045 0.99345 0.0
Cu230 Cu 0.39718 0.57209 0.10504 0.0
N231 N 0.42773 0.61368 0.11175 0.0
N232 N 0.44857 0.66527 0.1142 0.0
C233 C 0.42266 0.63758 0.11849 0.0
C234 C 0.47104 0.6585 0.10509 0.0
C235 C 0.45812 0.62669 0.10369 0.0
O236 O 0.35937 0.56578 0.13409 0.0
C237 C 0.40972 0.56316 1.01457 0.0
O238 O 0.43655 0.56949 0.0312 0.0
H239 H 0.40015 0.63485 0.12406 0.0
H240 H 0.46986 0.61402 0.09535 0.0
N241 N 0.40727 0.54448 0.13404 0.0
N242 N 0.42889 0.51731 0.16069 0.0
C243 C 0.43268 0.54126 0.13406 0.0
C244 C 0.38701 0.52178 0.16107 0.0
C245 C 0.40008 0.50514 0.17738 0.0
C246 C 0.34298 0.57806 0.12411 0.0
O247 O 0.3504 0.59705 0.0896 0.0
H248 H 0.45346 0.55619 0.11543 0.0
H249 H 0.36399 0.51745 0.16818 0.0
O250 O 0.38935 0.56258 0.04099 0.0
H251 H 0.49492 0.67525 0.09862 0.0
H252 H 0.38884 0.48509 0.19922 0.0
Cu253 Cu 0.85871 0.39067 0.32847 0.0
N254 N 0.83501 0.40867 0.34618 0.0
N255 N 0.79508 0.41507 0.36464 0.0
C256 C 0.80425 0.39477 0.35227 0.0
C257 C 0.82106 0.4428 0.36667 0.0
C258 C 0.84557 0.43879 0.35518 0.0
O259 O 0.83654 0.34713 0.34548 0.0
C260 C 0.88655 0.42476 0.25103 0.0
O261 O 0.90053 0.44615 0.28194 0.0
H262 H 0.78879 0.37029 0.34819 0.0
H263 H 0.86947 0.45667 0.35319 0.0
N264 N 0.89597 0.40978 0.36093 0.0
N265 N 0.94562 0.43087 0.38081 0.0
C266 C 0.92414 0.41462 0.34901 0.0
C267 C 0.89979 0.42296 0.40178 0.0
C268 C 0.93025 0.43604 0.41401 0.0
C269 C 0.80995 0.32721 0.33125 0.0
O270 O 0.79691 0.33464 0.29876 0.0
H271 H 0.92894 0.40721 0.31718 0.0
H272 H 0.88164 0.42332 0.42116 0.0
O273 O 0.86677 0.39754 0.26366 0.0
H274 H 0.82216 0.46456 0.37462 0.0
H275 H 0.94029 0.4483 0.44512 0.0
H276 H 0.35127 0.62276 0.46173 0.0
H277 H 0.326 0.63048 0.32523 0.0
H278 H 0.37676 0.67539 0.31226 0.0
H279 H 0.4256 0.71658 0.34299 0.0
H280 H 0.45077 0.70967 0.47991 0.0
H281 H 0.40324 0.66031 0.48928 0.0
C282 C 0.3572 0.63381 0.42886 0.0
C283 C 0.33472 0.62358 0.39474 0.0
C284 C 0.38638 0.66005 0.42185 0.0
C285 C 0.34271 0.63829 0.35232 0.0
C286 C 0.37176 0.66397 0.34486 0.0
C287 C 0.42116 0.70385 0.3744 0.0
C288 C 0.44163 0.71702 0.41083 0.0
C289 C 0.39343 0.67572 0.37984 0.0
C290 C 0.43522 0.70023 0.45151 0.0
C291 C 0.40799 0.67202 0.45693 0.0
H292 H 0.69871 0.28996 0.58687 0.0
H293 H 0.67767 0.26098 0.7258 0.0
H294 H 0.65922 0.2977 0.73734 0.0
H295 H 0.64762 0.33729 0.70712 0.0
H296 H 0.66739 0.36468 0.56744 0.0
H297 H 0.68725 0.3291 0.55687 0.0
C298 C 0.69013 0.29169 0.61971 0.0
C299 C 0.68976 0.27273 0.65535 0.0
C300 C 0.67895 0.3124 0.62585 0.0
C301 C 0.67882 0.27557 0.69787 0.0
C302 C 0.66789 0.29636 0.70437 0.0
C303 C 0.65592 0.33517 0.67427 0.0
C304 C 0.65587 0.35359 0.63802 0.0
C305 C 0.66751 0.31467 0.66845 0.0
C306 C 0.66731 0.35095 0.5959 0.0
C307 C 0.67867 0.33059 0.58983 0.0
H308 H 0.30898 0.66064 0.88433 0.0
H309 H 0.25332 0.56773 0.83432 0.0
H310 H 0.29925 0.56269 0.82552 0.0
H311 H 0.35567 0.58629 0.82619 0.0
H312 H 0.41138 0.67907 0.87659 0.0
H313 H 0.36512 0.68261 0.89115 0.0
C314 C 0.30693 0.63924 0.87177 0.0
C315 C 0.27777 0.6147 0.85965 0.0
C316 C 0.33349 0.63658 0.86658 0.0
C317 C 0.27539 0.58689 0.84416 0.0
C318 C 0.30171 0.58409 0.83877 0.0
C319 C 0.35766 0.60718 0.84065 0.0
C320 C 0.387 0.63243 0.84997 0.0
C321 C 0.33093 0.60902 0.84897 0.0
C322 C 0.38914 0.65922 0.86932 0.0
C323 C 0.36268 0.66133 0.8774 0.0
H324 H 0.72656 0.43965 0.98068 0.0
H325 H 0.75187 0.43636 0.84256 0.0
H326 H 0.69942 0.39584 0.82592 0.0
H327 H 0.6479 0.3571 0.85299 0.0
H328 H 0.6223 0.36048 0.99084 0.0
H329 H 0.67291 0.40549 1.00504 0.0
C330 C 0.72049 0.43057 0.94673 0.0
C331 C 0.74346 0.44065 0.91318 0.0
C332 C 0.69012 0.40709 0.93741 0.0
C333 C 0.73496 0.42845 0.86935 0.0
C334 C 0.70486 0.40535 0.85973 0.0
C335 C 0.65301 0.36823 0.88572 0.0
C336 C 0.63134 0.35523 0.92097 0.0
C337 C 0.68243 0.39384 0.89382 0.0
C338 C 0.63867 0.36987 0.96335 0.0
C339 C 0.66767 0.39553 0.9715 0.0
H340 H 0.43301 0.78319 0.12025 0.0
H341 H 0.5115 0.81796 0.03139 0.0
H342 H 0.51232 0.76945 0.03886 0.0
H343 H 0.48962 0.71642 0.06855 0.0
H344 H 0.41142 0.68183 0.15814 0.0
H345 H 0.41143 0.73076 0.15213 0.0
C346 C 0.45014 0.78006 0.10227 0.0
C347 C 0.47207 0.80418 0.07512 0.0
C348 C 0.45052 0.75207 0.10682 0.0
C349 C 0.4945 0.79991 0.05276 0.0
C350 C 0.49492 0.77211 0.0569 0.0
C351 C 0.47287 0.71969 0.08733 0.0
C352 C 0.45044 0.69525 0.11356 0.0
C353 C 0.47299 0.74797 0.08373 0.0
C354 C 0.42867 0.69996 0.13715 0.0
C355 C 0.4287 0.72802 0.13385 0.0
H356 H 0.74436 0.37271 0.32097 0.0
H357 H 0.77576 0.44399 0.42234 0.0
H358 H 0.72389 0.43699 0.42856 0.0
H359 H 0.67074 0.41373 0.40015 0.0
H360 H 0.64073 0.34582 0.29429 0.0
H361 H 0.69043 0.34735 0.29587 0.0
C362 C 0.73972 0.3863 0.345 0.0
C363 C 0.76394 0.40896 0.371 0.0
C364 C 0.70999 0.3826 0.34763 0.0
C365 C 0.75761 0.4267 0.40154 0.0
C366 C 0.72793 0.4226 0.40524 0.0
C367 C 0.67497 0.39896 0.37804 0.0
C368 C 0.65223 0.37987 0.34694 0.0
C369 C 0.70409 0.40109 0.37776 0.0
C370 C 0.65798 0.36077 0.31839 0.0
C371 C 0.68643 0.3618 0.31911 0.0
H372 H 0.17937 0.66414 0.63568 0.0
H373 H 0.25168 0.65423 0.6998 0.0
H374 H 0.26261 0.63707 0.62902 0.0
H375 H 0.24884 0.62013 0.55108 0.0
H376 H 0.17791 0.63041 0.48431 0.0
H377 H 0.16959 0.65262 0.55351 0.0
C378 C 0.19773 0.65856 0.63401 0.0
C379 C 0.21433 0.66012 0.67347 0.0
C380 C 0.20415 0.64871 0.5927 0.0
C381 C 0.2383 0.6531 0.67037 0.0
C382 C 0.24461 0.6432 0.62979 0.0
C383 C 0.2319 0.62774 0.55145 0.0
C384 C 0.21388 0.62352 0.51288 0.0
C385 C 0.22727 0.64025 0.59112 0.0
C386 C 0.1922 0.63365 0.51356 0.0
C387 C 0.18728 0.64606 0.55326 0.0
H388 H 0.64909 0.168 0.7316 0.0
H389 H 0.57774 0.16468 0.64594 0.0
H390 H 0.5605 0.18533 0.70779 0.0
H391 H 0.56525 0.20305 0.78657 0.0
H392 H 0.63856 0.20881 0.8703 0.0
H393 H 0.65594 0.18878 0.80817 0.0
C394 C 0.62952 0.17145 0.72648 0.0
C395 C 0.61413 0.16406 0.68457 0.0
C396 C 0.62039 0.18401 0.76161 0.0
C397 C 0.58958 0.16974 0.67807 0.0
C398 C 0.57985 0.18162 0.71336 0.0
C399 C 0.5851 0.19999 0.79124 0.0
C400 C 0.60043 0.20708 0.83322 0.0
C401 C 0.595 0.18865 0.75532 0.0
C402 C 0.62639 0.20351 0.83843 0.0
C403 C 0.63619 0.19191 0.803 0.0
H404 H 0.44821 0.56261 0.95002 0.0
H405 H 0.35781 0.552 0.96814 0.0
H406 H 0.3487 0.54494 0.88688 0.0
H407 H 0.36723 0.54363 0.8099 0.0
H408 H 0.45685 0.55323 0.79235 0.0
H409 H 0.46566 0.55891 0.87395 0.0
C410 C 0.42646 0.55869 0.93631 0.0
C411 C 0.40377 0.55791 0.96532 0.0
C412 C 0.42144 0.55483 0.88949 0.0
C413 C 0.37571 0.55272 0.94674 0.0
C414 C 0.37047 0.54869 0.9002 0.0
C415 C 0.38863 0.54694 0.82419 0.0
C416 C 0.41231 0.55008 0.79529 0.0
C417 C 0.39324 0.54991 0.8712 0.0
C418 C 0.43946 0.55324 0.81392 0.0
C419 C 0.44417 0.55588 0.86057 0.0
H420 H 0.85181 0.39413 0.17656 0.0
H421 H 0.93603 0.47539 0.21678 0.0
H422 H 0.94481 0.49454 0.1396 0.0
H423 H 0.92634 0.49124 0.06268 0.0
H424 H 0.84173 0.41143 1.02068 0.0
H425 H 0.83567 0.3885 0.09601 0.0
C426 C 0.87229 0.41577 0.16821 0.0
C427 C 0.893 0.43348 0.20266 0.0
C428 C 0.87709 0.42705 0.12342 0.0
C429 C 0.91945 0.46147 0.19121 0.0
C430 C 0.92457 0.47249 0.14697 0.0
C431 C 0.90673 0.46862 0.06974 0.0
C432 C 0.88437 0.45326 0.03623 0.0
C433 C 0.90315 0.45593 0.11313 0.0
C434 C 0.85932 0.42378 0.04584 0.0
C435 C 0.85574 0.41076 0.08906 0.0
H436 H 0.4453 0.90694 0.21563 0.0
H437 H 0.3765 0.81014 0.2122 0.0
H438 H 0.38931 0.80363 0.28941 0.0
H439 H 0.42521 0.82376 0.35411 0.0
H440 H 0.49523 0.92004 0.35558 0.0
H441 H 0.47648 0.92845 0.2839 0.0
C442 C 0.43264 0.88455 0.23203 0.0
C443 C 0.41025 0.85903 0.20768 0.0
C444 C 0.44052 0.88077 0.27634 0.0
C445 C 0.39405 0.83022 0.22979 0.0
C446 C 0.40142 0.8264 0.27406 0.0
C447 C 0.43569 0.84674 0.33938 0.0
C448 C 0.46165 0.8712 0.36008 0.0
C449 C 0.42534 0.85126 0.29719 0.0
C450 C 0.47529 0.90079 0.34022 0.0
C451 C 0.46468 0.9056 0.29905 0.0
H452 H 0.65746 0.46924 0.34351 0.0
H453 H 0.61246 0.52411 0.34784 0.0
H454 H 0.62685 0.53641 0.42702 0.0
H455 H 0.64523 0.52497 0.49782 0.0
H456 H 0.68793 0.46791 0.49367 0.0
H457 H 0.68233 0.4641 0.41179 0.0
C458 C 0.65167 0.48473 0.36127 0.0
C459 C 0.63368 0.49554 0.33976 0.0
C460 C 0.65905 0.49082 0.40735 0.0
C461 C 0.62618 0.51536 0.36361 0.0
C462 C 0.63417 0.52219 0.40907 0.0
C463 C 0.65358 0.51194 0.47896 0.0
C464 C 0.66643 0.49628 0.50208 0.0
C465 C 0.64941 0.50892 0.43182 0.0
C466 C 0.67735 0.47969 0.47697 0.0
C467 C 0.67406 0.47735 0.43008 0.0
H468 H 0.99094 0.48343 0.41673 0.0
H469 H 0.97394 0.40212 0.34232 0.0
H470 H 1.0291 0.4191 0.34338 0.0
H471 H 0.08244 0.45719 0.36644 0.0
H472 H 0.09873 0.53901 0.43889 0.0
H473 H 0.04372 0.52169 0.438 0.0
C474 C 0.99926 0.46931 0.40098 0.0
C475 C 0.97826 0.44139 0.37978 0.0
C476 C 1.03096 0.47934 0.4015 0.0
C477 C 0.98959 0.42375 0.35865 0.0
C478 C 1.02112 0.43339 0.35949 0.0
C479 C 0.07384 0.47105 0.38225 0.0
C480 C 0.09469 0.49934 0.40284 0.0
C481 C 0.04205 0.46111 0.38101 0.0
C482 C 0.08325 0.51731 0.42256 0.0
C483 C 0.05177 0.50737 0.42217 0.0
H484 H 0.62452 0.9532 0.51141 0.0
H485 H 0.53609 0.94839 0.50239 0.0
H486 H 0.55896 1.00183 0.52762 0.0
H487 H 0.60411 0.05035 0.55187 0.0
H488 H 0.69285 0.05576 0.55874 0.0
H489 H 0.66983 1.00197 0.53478 0.0
C490 C 0.61023 0.96383 0.51461 0.0
C491 C 0.57848 0.94641 0.505 0.0
C492 C 0.62361 0.99487 0.52886 0.0
C493 C 0.56042 0.96075 0.5101 0.0
C494 C 0.57355 0.99154 0.52428 0.0
C495 C 0.61853 0.03995 0.54777 0.0
C496 C 0.65029 0.05739 0.55726 0.0
C497 C 0.60514 1.00888 0.53368 0.0
C498 C 0.66834 0.04304 0.55235 0.0
C499 C 0.6552 1.01221 0.53835 0.0
H500 H 0.54613 0.55359 0.79838 0.0
H501 H 0.54224 0.58146 0.66197 0.0
H502 H 0.57111 0.55635 0.63557 0.0
H503 H 0.601 0.52934 0.65281 0.0
H504 H 0.60367 0.50207 0.79023 0.0
H505 H 0.57191 0.52387 0.81456 0.0
C506 C 0.55163 0.55425 0.76286 0.0
C507 C 0.54239 0.5698 0.73234 0.0
C508 C 0.56816 0.53981 0.74808 0.0
C509 C 0.54906 0.56967 0.68621 0.0
C510 C 0.56569 0.5554 0.67116 0.0
C511 C 0.59411 0.52774 0.68785 0.0
C512 C 0.60506 0.51437 0.71975 0.0
C513 C 0.5758 0.54071 0.70191 0.0
C514 C 0.59602 0.51263 0.76513 0.0
C515 C 0.57781 0.52509 0.77911 0.0
H516 H 0.07814 0.65721 0.83042 0.0
H517 H 0.09677 0.58476 0.87071 0.0
H518 H 0.04221 0.55114 0.88896 0.0
H519 H 0.98941 0.54361 0.89779 0.0
H520 H 0.97249 0.61743 0.85831 0.0
H521 H 1.02613 0.64932 0.83648 0.0
C522 C 0.07044 0.63416 0.84346 0.0
C523 C 0.09181 0.6238 0.84965 0.0
C524 C 0.03921 0.61521 0.85454 0.0
C525 C 0.08097 0.59341 0.86539 0.0
C526 C 0.04974 0.57423 0.87615 0.0
C527 C 0.99742 0.56655 0.88403 0.0
C528 C 0.97682 0.57816 0.88036 0.0
C529 C 1.02866 0.58503 0.87145 0.0
C530 C 0.98777 0.60805 0.86255 0.0
C531 C 1.0185 0.6263 0.84971 0.0
H532 H 0.474 0.10487 0.02822 0.0
H533 H 0.54849 0.12486 0.93592 0.0
H534 H 0.53934 0.07249 0.9441 0.0
H535 H 0.51113 1.02134 0.97713 0.0
H536 H 0.43431 0.99825 0.06596 0.0
H537 H 0.44384 0.05145 0.06001 0.0
C538 C 0.48806 0.0977 1.00963 0.0
C539 C 0.51227 0.11931 0.98191 0.0
C540 C 0.48244 0.06695 1.01406 0.0
C541 C 0.53023 0.10934 0.95832 0.0
C542 C 0.52489 0.07916 0.96273 0.0
C543 C 0.49598 0.02746 0.99482 0.0
C544 C 0.47173 1.00524 1.02162 0.0
C545 C 0.50119 0.05783 0.99055 0.0
C546 C 0.45324 1.01458 0.04522 0.0
C547 C 0.45858 0.04508 0.04157 0.0
H548 H 0.43103 0.48798 0.23577 0.0
H549 H 0.47464 0.52077 0.10636 0.0
H550 H 0.50672 0.49684 0.11997 0.0
H551 H 0.52015 0.46361 0.16767 0.0
H552 H 0.47421 0.43058 0.29583 0.0
H553 H 0.44494 0.45691 0.28321 0.0
C554 C 0.44736 0.48979 0.21024 0.0
C555 C 0.44999 0.50585 0.16978 0.0
C556 C 0.46517 0.47553 0.21794 0.0
C557 C 0.47209 0.50866 0.13786 0.0
C558 C 0.4903 0.49475 0.14554 0.0
C559 C 0.50384 0.46235 0.19283 0.0
C560 C 0.4991 0.44456 0.23236 0.0
C561 C 0.48674 0.47769 0.18527 0.0
C562 C 0.47786 0.4433 0.26463 0.0
C563 C 0.46122 0.45862 0.25763 0.0
H564 H 0.23173 0.52846 0.25889 0.0
H565 H 0.25584 0.62465 0.25957 0.0
H566 H 0.29398 0.63548 0.19985 0.0
H567 H 0.32375 0.61806 0.15238 0.0
H568 H 0.30243 0.52287 0.16048 0.0
H569 H 0.25998 0.5112 0.21206 0.0
C570 C 0.24495 0.55183 0.24577 0.0
C571 C 0.24079 0.57571 0.26385 0.0
C572 C 0.26765 0.55806 0.21324 0.0
C573 C 0.25837 0.60577 0.2462 0.0
C574 C 0.28036 0.612 0.21227 0.0
C575 C 0.30946 0.59472 0.16508 0.0
C576 C 0.31605 0.57126 0.15256 0.0
C577 C 0.28569 0.58842 0.19626 0.0
C578 C 0.2978 0.54124 0.16972 0.0
C579 C 0.27353 0.53458 0.19916 0.0
H580 H 0.74801 0.29541 0.3462 0.0
H581 H 0.83209 0.29453 0.37551 0.0
H582 H 0.8044 0.2511 0.42729 0.0
H583 H 0.75795 0.21715 0.46956 0.0
H584 H 0.67425 0.22007 0.44596 0.0
H585 H 0.70001 0.25864 0.38616 0.0
C586 C 0.76008 0.28523 0.36323 0.0
C587 C 0.79207 0.29808 0.35697 0.0
C588 C 0.74414 0.26087 0.39427 0.0
C589 C 0.80752 0.28505 0.37982 0.0
C590 C 0.79171 0.26028 0.40951 0.0
C591 C 0.74509 0.22587 0.45109 0.0
C592 C 0.7142 0.21581 0.46255 0.0
C593 C 0.76025 0.24858 0.41786 0.0
C594 C 0.69803 0.22739 0.43795 0.0
C595 C 0.71281 0.24956 0.40387 0.0
H596 H 0.42158 0.68087 0.65533 0.0
H597 H 0.51397 0.69503 0.66233 0.0
H598 H 0.53335 0.7439 0.62182 0.0
H599 H 0.52431 0.78198 0.58325 0.0
H600 H 0.43209 0.76773 0.57247 0.0
H601 H 0.41254 0.71982 0.61651 0.0
C602 C 0.44596 0.69459 0.64792 0.0
C603 C 0.46625 0.68406 0.66184 0.0
C604 C 0.45704 0.72282 0.62437 0.0
C605 C 0.49776 0.70231 0.65194 0.0
C606 C 0.50892 0.73039 0.6289 0.0
C607 C 0.49991 0.76868 0.59082 0.0
C608 C 0.47975 0.77868 0.5746 0.0
C609 C 0.48879 0.74083 0.61494 0.0
C610 C 0.44822 0.76084 0.58475 0.0
C611 C 0.437 0.73328 0.60964 0.0
H612 H 0.85112 0.51245 0.75263 0.0
H613 H 0.8095 0.41981 0.80731 0.0
H614 H 0.76174 0.40628 0.7675 0.0
H615 H 0.72956 0.42329 0.72774 0.0
H616 H 0.77074 0.51595 0.67377 0.0
H617 H 0.82099 0.52705 0.70318 0.0
C618 C 0.83188 0.48905 0.75513 0.0
C619 C 0.83371 0.46743 0.78402 0.0
C620 C 0.80419 0.48169 0.73322 0.0
C621 C 0.80868 0.43707 0.7859 0.0
C622 C 0.78124 0.42937 0.76341 0.0
C623 C 0.74962 0.44584 0.72205 0.0
C624 C 0.74642 0.46905 0.69954 0.0
C625 C 0.77831 0.45196 0.7389 0.0
C626 C 0.77264 0.49786 0.69138 0.0
C627 C 0.80132 0.50418 0.70822 0.0
H628 H 0.39248 0.83466 0.91119 0.0
H629 H 0.33369 0.81349 0.02784 0.0
H630 H 0.28998 0.77465 0.98407 0.0
H631 H 0.26923 0.74484 0.91332 0.0
H632 H 0.32925 0.76667 0.79779 0.0
H633 H 0.37156 0.80717 0.8405 0.0
C634 C 0.3701 0.82169 0.92718 0.0
C635 C 0.36649 0.8269 0.97292 0.0
C636 C 0.34523 0.79941 0.90194 0.0
C637 C 0.33718 0.80997 0.99275 0.0
C638 C 0.31219 0.7877 0.96772 0.0
C639 C 0.29148 0.75867 0.89735 0.0
C640 C 0.29597 0.75251 0.85232 0.0
C641 C 0.31602 0.78195 0.92237 0.0
C642 C 0.32503 0.7707 0.83232 0.0
C643 C 0.34934 0.7939 0.85677 0.0
H644 H 0.56693 0.31642 0.20253 0.0
H645 H 0.62667 0.39641 0.12227 0.0
H646 H 0.6381 0.36371 0.07284 0.0
H647 H 0.6275 0.31134 0.04937 0.0
H648 H 0.56639 0.23218 0.1305 0.0
H649 H 0.56023 0.26589 0.18359 0.0
C650 C 0.5824 0.32685 0.17413 0.0
C651 C 0.59534 0.35877 0.16551 0.0
C652 C 0.58882 0.30801 0.14616 0.0
C653 C 0.61604 0.37186 0.12931 0.0
C654 C 0.62257 0.35313 0.10107 0.0
C655 C 0.61282 0.30141 0.07858 0.0
C656 C 0.59657 0.26894 0.08478 0.0
C657 C 0.60857 0.321 0.10865 0.0
C658 C 0.57881 0.25687 0.12416 0.0
C659 C 0.57504 0.27616 0.15451 0.0
loop_
_geom_bond_atom_site_label_1
_geom_bond_atom_site_label_2
_geom_bond_distance
_geom_bond_site_symmetry_2
_ccdc_geom_bond_type
Cu0 N1 1.999 . S
Cu0 O6 1.974 . S
Cu0 N11 1.985 . S
Cu0 O20 1.959 . S
N1 Cu0 1.999 . S
N1 C3 1.263 . S
N1 C5 1.389 . S
N2 C3 1.358 . S
N2 C4 1.400 . S
C3 N1 1.263 . S
C3 N2 1.358 . S
C3 H9 0.930 . S
C4 N2 1.400 . S
C4 C5 1.351 . S
C4 H21 0.930 . S
C5 N1 1.389 . S
C5 C4 1.351 . S
C5 H10 0.930 . S
O6 Cu0 1.974 . S
O6 C16 1.282 . S
C7 O8 1.261 . S
C7 O20 1.251 . S
O8 C7 1.261 . S
H9 C3 0.930 . S
H10 C5 0.930 . S
N11 Cu0 1.985 . S
N11 C13 1.335 . S
N11 C14 1.390 . S
N12 C13 1.345 . S
N12 C15 1.336 . S
C13 N11 1.335 . S
C13 N12 1.345 . S
C13 H18 0.930 . S
C14 N11 1.390 . S
C14 C15 1.346 . S
C14 H19 0.930 . S
C15 N12 1.336 . S
C15 C14 1.346 . S
C15 H22 0.929 . S
C16 O6 1.282 . S
C16 O17 1.216 . S
O17 C16 1.216 . S
H18 C13 0.930 . S
H19 C14 0.930 . S
O20 Cu0 1.959 . S
O20 C7 1.251 . S
H21 C4 0.930 . S
H22 C15 0.929 . S
Cu23 N24 1.999 . S
Cu23 O29 1.974 . S
Cu23 N34 1.985 . S
Cu23 O43 1.959 . S
N24 Cu23 1.999 . S
N24 C26 1.263 . S
N24 C28 1.389 . S
N25 C26 1.358 . S
N25 C27 1.400 . S
C26 N24 1.263 . S
C26 N25 1.358 . S
C26 H32 0.930 . S
C27 N25 1.400 . S
C27 C28 1.351 . S
C27 H44 0.930 . S
C28 N24 1.389 . S
C28 C27 1.351 . S
C28 H33 0.930 . S
O29 Cu23 1.974 . S
O29 C39 1.282 . S
C30 O31 1.261 . S
C30 O43 1.251 . S
O31 C30 1.261 . S
H32 C26 0.930 . S
H33 C28 0.930 . S
N34 Cu23 1.985 . S
N34 C36 1.335 . S
N34 C37 1.390 . S
N35 C36 1.345 . S
N35 C38 1.336 . S
C36 N34 1.335 . S
C36 N35 1.345 . S
C36 H41 0.930 . S
C37 N34 1.390 . S
C37 C38 1.346 . S
C37 H42 0.930 . S
C38 N35 1.336 . S
C38 C37 1.346 . S
C38 H45 0.929 . S
C39 O29 1.282 . S
C39 O40 1.216 . S
O40 C39 1.216 . S
H41 C36 0.930 . S
H42 C37 0.930 . S
O43 Cu23 1.959 . S
O43 C30 1.251 . S
H44 C27 0.930 . S
H45 C38 0.929 . S
Cu46 N47 1.999 . S
Cu46 O52 1.974 . S
Cu46 N57 1.985 . S
Cu46 O66 1.959 . S
N47 Cu46 1.999 . S
N47 C49 1.263 . S
N47 C51 1.389 . S
N48 C49 1.358 . S
N48 C50 1.400 . S
C49 N47 1.263 . S
C49 N48 1.358 . S
C49 H55 0.930 . S
C50 N48 1.400 . S
C50 C51 1.351 . S
C50 H67 0.930 . S
C51 N47 1.389 . S
C51 C50 1.351 . S
C51 H56 0.930 . S
O52 Cu46 1.974 . S
O52 C62 1.282 . S
C53 O54 1.261 . S
C53 O66 1.251 . S
O54 C53 1.261 . S
H55 C49 0.930 . S
H56 C51 0.930 . S
N57 Cu46 1.985 . S
N57 C59 1.335 . S
N57 C60 1.390 . S
N58 C59 1.345 . S
N58 C61 1.336 . S
C59 N57 1.335 . S
C59 N58 1.345 . S
C59 H64 0.930 . S
C60 N57 1.390 . S
C60 C61 1.346 . S
C60 H65 0.930 . S
C61 N58 1.336 . S
C61 C60 1.346 . S
C61 H68 0.929 . S
C62 O52 1.282 . S
C62 O63 1.216 . S
O63 C62 1.216 . S
H64 C59 0.930 . S
H65 C60 0.930 . S
O66 Cu46 1.959 . S
O66 C53 1.251 . S
H67 C50 0.930 . S
H68 C61 0.929 . S
Cu69 N70 1.999 . S
Cu69 O75 1.974 . S
Cu69 N80 1.985 . S
Cu69 O89 1.959 . S
N70 Cu69 1.999 . S
N70 C72 1.263 . S
N70 C74 1.389 . S
N71 C72 1.358 . S
N71 C73 1.400 . S
C72 N70 1.263 . S
C72 N71 1.358 . S
C72 H78 0.930 . S
C73 N71 1.400 . S
C73 C74 1.351 . S
C73 H90 0.930 . S
C74 N70 1.389 . S
C74 C73 1.351 . S
C74 H79 0.930 . S
O75 Cu69 1.974 . S
O75 C85 1.282 . S
C76 O77 1.261 . S
C76 O89 1.251 . S
O77 C76 1.261 . S
H78 C72 0.930 . S
H79 C74 0.930 . S
N80 Cu69 1.985 . S
N80 C82 1.335 . S
N80 C83 1.390 . S
N81 C82 1.345 . S
N81 C84 1.336 . S
C82 N80 1.335 . S
C82 N81 1.345 . S
C82 H87 0.930 . S
C83 N80 1.390 . S
C83 C84 1.346 . S
C83 H88 0.930 . S
C84 N81 1.336 . S
C84 C83 1.346 . S
C84 H91 0.929 . S
C85 O75 1.282 . S
C85 O86 1.216 . S
O86 C85 1.216 . S
H87 C82 0.930 . S
H88 C83 0.930 . S
O89 Cu69 1.959 . S
O89 C76 1.251 . S
H90 C73 0.930 . S
H91 C84 0.929 . S
Cu92 N93 1.999 . S
Cu92 O98 1.974 . S
Cu92 N103 1.985 . S
Cu92 O112 1.959 . S
N93 Cu92 1.999 . S
N93 C95 1.263 . S
N93 C97 1.389 . S
N94 C95 1.358 . S
N94 C96 1.400 . S
C95 N93 1.263 . S
C95 N94 1.358 . S
C95 H101 0.930 . S
C96 N94 1.400 . S
C96 C97 1.351 . S
C96 H113 0.930 . S
C97 N93 1.389 . S
C97 C96 1.351 . S
C97 H102 0.930 . S
O98 Cu92 1.974 . S
O98 C108 1.282 . S
C99 O100 1.261 . S
C99 O112 1.251 . S
O100 C99 1.261 . S
H101 C95 0.930 . S
H102 C97 0.930 . S
N103 Cu92 1.985 . S
N103 C105 1.335 . S
N103 C106 1.390 . S
N104 C105 1.345 . S
N104 C107 1.336 . S
C105 N103 1.335 . S
C105 N104 1.345 . S
C105 H110 0.930 . S
C106 N103 1.390 . S
C106 C107 1.346 . S
C106 H111 0.930 . S
C107 N104 1.336 . S
C107 C106 1.346 . S
C107 H114 0.929 . S
C108 O98 1.282 . S
C108 O109 1.216 . S
O109 C108 1.216 . S
H110 C105 0.930 . S
H111 C106 0.930 . S
O112 Cu92 1.959 . S
O112 C99 1.251 . S
H113 C96 0.930 . S
H114 C107 0.929 . S
Cu115 N116 1.999 . S
Cu115 O121 1.974 . S
Cu115 N126 1.985 . S
Cu115 O135 1.959 . S
N116 Cu115 1.999 . S
N116 C118 1.263 . S
N116 C120 1.389 . S
N117 C118 1.358 . S
N117 C119 1.400 . S
C118 N116 1.263 . S
C118 N117 1.358 . S
C118 H124 0.930 . S
C119 N117 1.400 . S
C119 C120 1.351 . S
C119 H136 0.930 . S
C120 N116 1.389 . S
C120 C119 1.351 . S
C120 H125 0.930 . S
O121 Cu115 1.974 . S
O121 C131 1.282 . S
C122 O123 1.261 . S
C122 O135 1.251 . S
O123 C122 1.261 . S
H124 C118 0.930 . S
H125 C120 0.930 . S
N126 Cu115 1.985 . S
N126 C128 1.335 . S
N126 C129 1.390 . S
N127 C128 1.345 . S
N127 C130 1.336 . S
C128 N126 1.335 . S
C128 N127 1.345 . S
C128 H133 0.930 . S
C129 N126 1.390 . S
C129 C130 1.346 . S
C129 H134 0.930 . S
C130 N127 1.336 . S
C130 C129 1.346 . S
C130 H137 0.929 . S
C131 O121 1.282 . S
C131 O132 1.216 . S
O132 C131 1.216 . S
H133 C128 0.930 . S
H134 C129 0.930 . S
O135 Cu115 1.959 . S
O135 C122 1.251 . S
H136 C119 0.930 . S
H137 C130 0.929 . S
Cu138 N139 1.999 . S
Cu138 O144 1.974 . S
Cu138 N149 1.985 . S
Cu138 O158 1.959 . S
N139 Cu138 1.999 . S
N139 C141 1.263 . S
N139 C143 1.389 . S
N140 C141 1.358 . S
N140 C142 1.400 . S
C141 N139 1.263 . S
C141 N140 1.358 . S
C141 H147 0.930 . S
C142 N140 1.400 . S
C142 C143 1.351 . S
C142 H159 0.930 . S
C143 N139 1.389 . S
C143 C142 1.351 . S
C143 H148 0.930 . S
O144 Cu138 1.974 . S
O144 C154 1.282 . S
C145 O146 1.261 . S
C145 O158 1.251 . S
O146 C145 1.261 . S
H147 C141 0.930 . S
H148 C143 0.930 . S
N149 Cu138 1.985 . S
N149 C151 1.335 . S
N149 C152 1.390 . S
N150 C151 1.345 . S
N150 C153 1.336 . S
C151 N149 1.335 . S
C151 N150 1.345 . S
C151 H156 0.930 . S
C152 N149 1.390 . S
C152 C153 1.346 . S
C152 H157 0.930 . S
C153 N150 1.336 . S
C153 C152 1.346 . S
C153 H160 0.929 . S
C154 O144 1.282 . S
C154 O155 1.216 . S
O155 C154 1.216 . S
H156 C151 0.930 . S
H157 C152 0.930 . S
O158 Cu138 1.959 . S
O158 C145 1.251 . S
H159 C142 0.930 . S
H160 C153 0.929 . S
Cu161 N162 1.999 . S
Cu161 O167 1.974 . S
Cu161 N172 1.985 . S
Cu161 O181 1.959 . S
N162 Cu161 1.999 . S
N162 C164 1.263 . S
N162 C166 1.389 . S
N163 C164 1.358 . S
N163 C165 1.400 . S
C164 N162 1.263 . S
C164 N163 1.358 . S
C164 H170 0.930 . S
C165 N163 1.400 . S
C165 C166 1.351 . S
C165 H182 0.930 . S
C166 N162 1.389 . S
C166 C165 1.351 . S
C166 H171 0.930 . S
O167 Cu161 1.974 . S
O167 C177 1.282 . S
C168 O169 1.261 . S
C168 O181 1.251 . S
O169 C168 1.261 . S
H170 C164 0.930 . S
H171 C166 0.930 . S
N172 Cu161 1.985 . S
N172 C174 1.335 . S
N172 C175 1.390 . S
N173 C174 1.345 . S
N173 C176 1.336 . S
C174 N172 1.335 . S
C174 N173 1.345 . S
C174 H179 0.930 . S
C175 N172 1.390 . S
C175 C176 1.346 . S
C175 H180 0.930 . S
C176 N173 1.336 . S
C176 C175 1.346 . S
C176 H183 0.929 . S
C177 O167 1.282 . S
C177 O178 1.216 . S
O178 C177 1.216 . S
H179 C174 0.930 . S
H180 C175 0.930 . S
O181 Cu161 1.959 . S
O181 C168 1.251 . S
H182 C165 0.930 . S
H183 C176 0.929 . S
Cu184 N185 1.999 . S
Cu184 O190 1.974 . S
Cu184 N195 1.985 . S
Cu184 O204 1.959 . S
N185 Cu184 1.999 . S
N185 C187 1.263 . S
N185 C189 1.389 . S
N186 C187 1.358 . S
N186 C188 1.400 . S
C187 N185 1.263 . S
C187 N186 1.358 . S
C187 H193 0.930 . S
C188 N186 1.400 . S
C188 C189 1.351 . S
C188 H205 0.930 . S
C189 N185 1.389 . S
C189 C188 1.351 . S
C189 H194 0.930 . S
O190 Cu184 1.974 . S
O190 C200 1.282 . S
C191 O192 1.261 . S
C191 O204 1.251 . S
O192 C191 1.261 . S
H193 C187 0.930 . S
H194 C189 0.930 . S
N195 Cu184 1.985 . S
N195 C197 1.335 . S
N195 C198 1.390 . S
N196 C197 1.345 . S
N196 C199 1.336 . S
C197 N195 1.335 . S
C197 N196 1.345 . S
C197 H202 0.930 . S
C198 N195 1.390 . S
C198 C199 1.346 . S
C198 H203 0.930 . S
C199 N196 1.336 . S
C199 C198 1.346 . S
C199 H206 0.929 . S
C200 O190 1.282 . S
C200 O201 1.216 . S
O201 C200 1.216 . S
H202 C197 0.930 . S
H203 C198 0.930 . S
O204 Cu184 1.959 . S
O204 C191 1.251 . S
H205 C188 0.930 . S
H206 C199 0.929 . S
Cu207 N208 1.999 . S
Cu207 O213 1.974 . S
Cu207 N218 1.985 . S
Cu207 O227 1.959 . S
N208 Cu207 1.999 . S
N208 C210 1.263 . S
N208 C212 1.389 . S
N209 C210 1.358 . S
N209 C211 1.400 . S
C210 N208 1.263 . S
C210 N209 1.358 . S
C210 H216 0.930 . S
C211 N209 1.400 . S
C211 C212 1.351 . S
C211 H228 0.930 . S
C212 N208 1.389 . S
C212 C211 1.351 . S
C212 H217 0.930 . S
O213 Cu207 1.974 . S
O213 C223 1.282 . S
C214 O215 1.261 . S
C214 O227 1.251 . S
O215 C214 1.261 . S
H216 C210 0.930 . S
H217 C212 0.930 . S
N218 Cu207 1.985 . S
N218 C220 1.335 . S
N218 C221 1.390 . S
N219 C220 1.345 . S
N219 C222 1.336 . S
C220 N218 1.335 . S
C220 N219 1.345 . S
C220 H225 0.930 . S
C221 N218 1.390 . S
C221 C222 1.346 . S
C221 H226 0.930 . S
C222 N219 1.336 . S
C222 C221 1.346 . S
C222 H229 0.929 . S
C223 O213 1.282 . S
C223 O224 1.216 . S
O224 C223 1.216 . S
H225 C220 0.930 . S
H226 C221 0.930 . S
O227 Cu207 1.959 . S
O227 C214 1.251 . S
H228 C211 0.930 . S
H229 C222 0.929 . S
Cu230 N231 1.999 . S
Cu230 O236 1.974 . S
Cu230 N241 1.985 . S
Cu230 O250 1.959 . S
N231 Cu230 1.999 . S
N231 C233 1.263 . S
N231 C235 1.389 . S
N232 C233 1.358 . S
N232 C234 1.400 . S
C233 N231 1.263 . S
C233 N232 1.358 . S
C233 H239 0.930 . S
C234 N232 1.400 . S
C234 C235 1.351 . S
C234 H251 0.930 . S
C235 N231 1.389 . S
C235 C234 1.351 . S
C235 H240 0.930 . S
O236 Cu230 1.974 . S
O236 C246 1.282 . S
C237 O238 1.261 . S
C237 O250 1.251 . S
O238 C237 1.261 . S
H239 C233 0.930 . S
H240 C235 0.930 . S
N241 Cu230 1.985 . S
N241 C243 1.335 . S
N241 C244 1.390 . S
N242 C243 1.345 . S
N242 C245 1.336 . S
C243 N241 1.335 . S
C243 N242 1.345 . S
C243 H248 0.930 . S
C244 N241 1.390 . S
C244 C245 1.346 . S
C244 H249 0.930 . S
C245 N242 1.336 . S
C245 C244 1.346 . S
C245 H252 0.929 . S
C246 O236 1.282 . S
C246 O247 1.216 . S
O247 C246 1.216 . S
H248 C243 0.930 . S
H249 C244 0.930 . S
O250 Cu230 1.959 . S
O250 C237 1.251 . S
H251 C234 0.930 . S
H252 C245 0.929 . S
Cu253 N254 1.999 . S
Cu253 O259 1.974 . S
Cu253 N264 1.985 . S
Cu253 O273 1.959 . S
N254 Cu253 1.999 . S
N254 C256 1.263 . S
N254 C258 1.389 . S
N255 C256 1.358 . S
N255 C257 1.400 . S
C256 N254 1.263 . S
C256 N255 1.358 . S
C256 H262 0.930 . S
C257 N255 1.400 . S
C257 C258 1.351 . S
C257 H274 0.930 . S
C258 N254 1.389 . S
C258 C257 1.351 . S
C258 H263 0.930 . S
O259 Cu253 1.974 . S
O259 C269 1.282 . S
C260 O261 1.261 . S
C260 O273 1.251 . S
O261 C260 1.261 . S
H262 C256 0.930 . S
H263 C258 0.930 . S
N264 Cu253 1.985 . S
N264 C266 1.335 . S
N264 C267 1.390 . S
N265 C266 1.345 . S
N265 C268 1.336 . S
C266 N264 1.335 . S
C266 N265 1.345 . S
C266 H271 0.930 . S
C267 N264 1.390 . S
C267 C268 1.346 . S
C267 H272 0.930 . S
C268 N265 1.336 . S
C268 C267 1.346 . S
C268 H275 0.929 . S
C269 O259 1.282 . S
C269 O270 1.216 . S
O270 C269 1.216 . S
H271 C266 0.930 . S
H272 C267 0.930 . S
O273 Cu253 1.959 . S
O273 C260 1.251 . S
H274 C257 0.930 . S
H275 C268 0.929 . S
H276 C282 0.930 . S
H277 C285 0.930 . S
H278 C286 0.930 . S
H279 C287 0.930 . S
H280 C290 0.930 . S
H281 C291 0.930 . S
C282 H276 0.930 . S
C282 C283 1.355 . S
C282 C284 1.415 . S
C283 C282 1.355 . S
C283 C285 1.419 . S
C284 C282 1.415 . S
C284 C289 1.425 . S
C284 C291 1.409 . S
C285 H277 0.930 . S
C285 C283 1.419 . S
C285 C286 1.362 . S
C286 H278 0.930 . S
C286 C285 1.362 . S
C286 C289 1.409 . S
C287 H279 0.930 . S
C287 C288 1.355 . S
C287 C289 1.415 . S
C288 C287 1.355 . S
C288 C290 1.419 . S
C289 C284 1.425 . S
C289 C286 1.409 . S
C289 C287 1.415 . S
C290 H280 0.930 . S
C290 C288 1.419 . S
C290 C291 1.362 . S
C291 H281 0.930 . S
C291 C284 1.409 . S
C291 C290 1.362 . S
H292 C298 0.930 . S
H293 C301 0.930 . S
H294 C302 0.930 . S
H295 C303 0.930 . S
H296 C306 0.930 . S
H297 C307 0.930 . S
C298 H292 0.930 . S
C298 C299 1.355 . S
C298 C300 1.415 . S
C299 C298 1.355 . S
C299 C301 1.419 . S
C300 C298 1.415 . S
C300 C305 1.425 . S
C300 C307 1.409 . S
C301 H293 0.930 . S
C301 C299 1.419 . S
C301 C302 1.362 . S
C302 H294 0.930 . S
C302 C301 1.362 . S
C302 C305 1.409 . S
C303 H295 0.930 . S
C303 C304 1.355 . S
C303 C305 1.415 . S
C304 C303 1.355 . S
C304 C306 1.419 . S
C305 C300 1.425 . S
C305 C302 1.409 . S
C305 C303 1.415 . S
C306 H296 0.930 . S
C306 C304 1.419 . S
C306 C307 1.362 . S
C307 H297 0.930 . S
C307 C300 1.409 . S
C307 C306 1.362 . S
H308 C314 0.930 . S
H309 C317 0.930 . S
H310 C318 0.930 . S
H311 C319 0.930 . S
H312 C322 0.930 . S
H313 C323 0.930 . S
C314 H308 0.930 . S
C314 C315 1.355 . S
C314 C316 1.415 . S
C315 C314 1.355 . S
C315 C317 1.419 . S
C316 C314 1.415 . S
C316 C321 1.425 . S
C316 C323 1.409 . S
C317 H309 0.930 . S
C317 C315 1.419 . S
C317 C318 1.362 . S
C318 H310 0.930 . S
C318 C317 1.362 . S
C318 C321 1.409 . S
C319 H311 0.930 . S
C319 C320 1.355 . S
C319 C321 1.415 . S
C320 C319 1.355 . S
C320 C322 1.419 . S
C321 C316 1.425 . S
C321 C318 1.409 . S
C321 C319 1.415 . S
C322 H312 0.930 . S
C322 C320 1.419 . S
C322 C323 1.362 . S
C323 H313 0.930 . S
C323 C316 1.409 . S
C323 C322 1.362 . S
H324 C330 0.930 . S
H325 C333 0.930 . S
H326 C334 0.930 . S
H327 C335 0.930 . S
H328 C338 0.930 . S
H329 C339 0.930 . S
C330 H324 0.930 . S
C330 C331 1.355 . S
C330 C332 1.415 . S
C331 C330 1.355 . S
C331 C333 1.419 . S
C332 C330 1.415 . S
C332 C337 1.425 . S
C332 C339 1.409 . S
C333 H325 0.930 . S
C333 C331 1.419 . S
C333 C334 1.362 . S
C334 H326 0.930 . S
C334 C333 1.362 . S
C334 C337 1.409 . S
C335 H327 0.930 . S
C335 C336 1.355 . S
C335 C337 1.415 . S
C336 C335 1.355 . S
C336 C338 1.419 . S
C337 C332 1.425 . S
C337 C334 1.409 . S
C337 C335 1.415 . S
C338 H328 0.930 . S
C338 C336 1.419 . S
C338 C339 1.362 . S
C339 H329 0.930 . S
C339 C332 1.409 . S
C339 C338 1.362 . S
H340 C346 0.930 . S
H341 C349 0.930 . S
H342 C350 0.930 . S
H343 C351 0.930 . S
H344 C354 0.930 . S
H345 C355 0.930 . S
C346 H340 0.930 . S
C346 C347 1.355 . S
C346 C348 1.415 . S
C347 C346 1.355 . S
C347 C349 1.419 . S
C348 C346 1.415 . S
C348 C353 1.425 . S
C348 C355 1.409 . S
C349 H341 0.930 . S
C349 C347 1.419 . S
C349 C350 1.362 . S
C350 H342 0.930 . S
C350 C349 1.362 . S
C350 C353 1.409 . S
C351 H343 0.930 . S
C351 C352 1.355 . S
C351 C353 1.415 . S
C352 C351 1.355 . S
C352 C354 1.419 . S
C353 C348 1.425 . S
C353 C350 1.409 . S
C353 C351 1.415 . S
C354 H344 0.930 . S
C354 C352 1.419 . S
C354 C355 1.362 . S
C355 H345 0.930 . S
C355 C348 1.409 . S
C355 C354 1.362 . S
H356 C362 0.930 . S
H357 C365 0.930 . S
H358 C366 0.930 . S
H359 C367 0.930 . S
H360 C370 0.930 . S
H361 C371 0.930 . S
C362 H356 0.930 . S
C362 C363 1.355 . S
C362 C364 1.415 . S
C363 C362 1.355 . S
C363 C365 1.419 . S
C364 C362 1.415 . S
C364 C369 1.425 . S
C364 C371 1.409 . S
C365 H357 0.930 . S
C365 C363 1.419 . S
C365 C366 1.362 . S
C366 H358 0.930 . S
C366 C365 1.362 . S
C366 C369 1.409 . S
C367 H359 0.930 . S
C367 C368 1.355 . S
C367 C369 1.415 . S
C368 C367 1.355 . S
C368 C370 1.419 . S
C369 C364 1.425 . S
C369 C366 1.409 . S
C369 C367 1.415 . S
C370 H360 0.930 . S
C370 C368 1.419 . S
C370 C371 1.362 . S
C371 H361 0.930 . S
C371 C364 1.409 . S
C371 C370 1.362 . S
H372 C378 0.930 . S
H373 C381 0.930 . S
H374 C382 0.930 . S
H375 C383 0.930 . S
H376 C386 0.930 . S
H377 C387 0.930 . S
C378 H372 0.930 . S
C378 C379 1.355 . S
C378 C380 1.415 . S
C379 C378 1.355 . S
C379 C381 1.419 . S
C380 C378 1.415 . S
C380 C385 1.425 . S
C380 C387 1.409 . S
C381 H373 0.930 . S
C381 C379 1.419 . S
C381 C382 1.362 . S
C382 H374 0.930 . S
C382 C381 1.362 . S
C382 C385 1.409 . S
C383 H375 0.930 . S
C383 C384 1.355 . S
C383 C385 1.415 . S
C384 C383 1.355 . S
C384 C386 1.419 . S
C385 C380 1.425 . S
C385 C382 1.409 . S
C385 C383 1.415 . S
C386 H376 0.930 . S
C386 C384 1.419 . S
C386 C387 1.362 . S
C387 H377 0.930 . S
C387 C380 1.409 . S
C387 C386 1.362 . S
H388 C394 0.930 . S
H389 C397 0.930 . S
H390 C398 0.930 . S
H391 C399 0.930 . S
H392 C402 0.930 . S
H393 C403 0.930 . S
C394 H388 0.930 . S
C394 C395 1.355 . S
C394 C396 1.415 . S
C395 C394 1.355 . S
C395 C397 1.419 . S
C396 C394 1.415 . S
C396 C401 1.425 . S
C396 C403 1.409 . S
C397 H389 0.930 . S
C397 C395 1.419 . S
C397 C398 1.362 . S
C398 H390 0.930 . S
C398 C397 1.362 . S
C398 C401 1.409 . S
C399 H391 0.930 . S
C399 C400 1.355 . S
C399 C401 1.415 . S
C400 C399 1.355 . S
C400 C402 1.419 . S
C401 C396 1.425 . S
C401 C398 1.409 . S
C401 C399 1.415 . S
C402 H392 0.930 . S
C402 C400 1.419 . S
C402 C403 1.362 . S
C403 H393 0.930 . S
C403 C396 1.409 . S
C403 C402 1.362 . S
H404 C410 0.930 . S
H405 C413 0.930 1_554 S
H406 C414 0.930 . S
H407 C415 0.930 . S
H408 C418 0.930 . S
H409 C419 0.930 . S
C410 H404 0.930 . S
C410 C411 1.355 . S
C410 C412 1.415 . S
C411 C410 1.355 . S
C411 C413 1.419 . S
C412 C410 1.415 . S
C412 C417 1.425 . S
C412 C419 1.409 . S
C413 H405 0.930 1_556 S
C413 C411 1.419 . S
C413 C414 1.362 . S
C414 H406 0.930 . S
C414 C413 1.362 . S
C414 C417 1.409 . S
C415 H407 0.930 . S
C415 C416 1.355 . S
C415 C417 1.415 . S
C416 C415 1.355 . S
C416 C418 1.419 . S
C417 C412 1.425 . S
C417 C414 1.409 . S
C417 C415 1.415 . S
C418 H408 0.930 . S
C418 C416 1.419 . S
C418 C419 1.362 . S
C419 H409 0.930 . S
C419 C412 1.409 . S
C419 C418 1.362 . S
H420 C426 0.930 . S
H421 C429 0.930 . S
H422 C430 0.930 . S
H423 C431 0.930 . S
H424 C434 0.930 . S
H425 C435 0.930 . S
C426 H420 0.930 . S
C426 C427 1.355 . S
C426 C428 1.415 . S
C427 C426 1.355 . S
C427 C429 1.419 . S
C428 C426 1.415 . S
C428 C433 1.425 . S
C428 C435 1.409 . S
C429 H421 0.930 . S
C429 C427 1.419 . S
C429 C430 1.362 . S
C430 H422 0.930 . S
C430 C429 1.362 . S
C430 C433 1.409 . S
C431 H423 0.930 . S
C431 C432 1.355 . S
C431 C433 1.415 . S
C432 C431 1.355 . S
C432 C434 1.419 . S
C433 C428 1.425 . S
C433 C430 1.409 . S
C433 C431 1.415 . S
C434 H424 0.930 . S
C434 C432 1.419 . S
C434 C435 1.362 . S
C435 H425 0.930 . S
C435 C428 1.409 . S
C435 C434 1.362 . S
H436 C442 0.930 . S
H437 C445 0.930 . S
H438 C446 0.930 . S
H439 C447 0.930 . S
H440 C450 0.930 . S
H441 C451 0.930 . S
C442 H436 0.930 . S
C442 C443 1.355 . S
C442 C444 1.415 . S
C443 C442 1.355 . S
C443 C445 1.419 . S
C444 C442 1.415 . S
C444 C449 1.425 . S
C444 C451 1.409 . S
C445 H437 0.930 . S
C445 C443 1.419 . S
C445 C446 1.362 . S
C446 H438 0.930 . S
C446 C445 1.362 . S
C446 C449 1.409 . S
C447 H439 0.930 . S
C447 C448 1.355 . S
C447 C449 1.415 . S
C448 C447 1.355 . S
C448 C450 1.419 . S
C449 C444 1.425 . S
C449 C446 1.409 . S
C449 C447 1.415 . S
C450 H440 0.930 . S
C450 C448 1.419 . S
C450 C451 1.362 . S
C451 H441 0.930 . S
C451 C444 1.409 . S
C451 C450 1.362 . S
H452 C458 0.930 . S
H453 C461 0.930 . S
H454 C462 0.930 . S
H455 C463 0.930 . S
H456 C466 0.930 . S
H457 C467 0.930 . S
C458 H452 0.930 . S
C458 C459 1.355 . S
C458 C460 1.415 . S
C459 C458 1.355 . S
C459 C461 1.419 . S
C460 C458 1.415 . S
C460 C465 1.425 . S
C460 C467 1.409 . S
C461 H453 0.930 . S
C461 C459 1.419 . S
C461 C462 1.362 . S
C462 H454 0.930 . S
C462 C461 1.362 . S
C462 C465 1.409 . S
C463 H455 0.930 . S
C463 C464 1.355 . S
C463 C465 1.415 . S
C464 C463 1.355 . S
C464 C466 1.419 . S
C465 C460 1.425 . S
C465 C462 1.409 . S
C465 C463 1.415 . S
C466 H456 0.930 . S
C466 C464 1.419 . S
C466 C467 1.362 . S
C467 H457 0.930 . S
C467 C460 1.409 . S
C467 C466 1.362 . S
H468 C474 0.930 . S
H469 C477 0.930 . S
H470 C478 0.930 . S
H471 C479 0.930 . S
H472 C482 0.930 . S
H473 C483 0.930 . S
C474 H468 0.930 . S
C474 C475 1.355 . S
C474 C476 1.415 . S
C475 C474 1.355 . S
C475 C477 1.419 . S
C476 C474 1.415 . S
C476 C481 1.425 1_655 S
C476 C483 1.409 . S
C477 H469 0.930 . S
C477 C475 1.419 . S
C477 C478 1.362 1_655 S
C478 H470 0.930 . S
C478 C477 1.362 1_455 S
C478 C481 1.409 . S
C479 H471 0.930 . S
C479 C480 1.355 . S
C479 C481 1.415 . S
C480 C479 1.355 . S
C480 C482 1.419 . S
C481 C476 1.425 1_455 S
C481 C478 1.409 . S
C481 C479 1.415 . S
C482 H472 0.930 . S
C482 C480 1.419 . S
C482 C483 1.362 1_455 S
C483 H473 0.930 . S
C483 C476 1.409 . S
C483 C482 1.362 1_655 S
H484 C490 0.930 . S
H485 C493 0.930 . S
H486 C494 0.930 . S
H487 C495 0.930 . S
H488 C498 0.930 . S
H489 C499 0.930 . S
C490 H484 0.930 . S
C490 C491 1.355 . S
C490 C492 1.415 . S
C491 C490 1.355 . S
C491 C493 1.419 . S
C492 C490 1.415 . S
C492 C497 1.425 1_565 S
C492 C499 1.409 . S
C493 H485 0.930 . S
C493 C491 1.419 . S
C493 C494 1.362 1_565 S
C494 H486 0.930 . S
C494 C493 1.362 1_545 S
C494 C497 1.409 . S
C495 H487 0.930 . S
C495 C496 1.355 . S
C495 C497 1.415 . S
C496 C495 1.355 . S
C496 C498 1.419 . S
C497 C492 1.425 1_545 S
C497 C494 1.409 . S
C497 C495 1.415 . S
C498 H488 0.930 . S
C498 C496 1.419 . S
C498 C499 1.362 1_545 S
C499 H489 0.930 . S
C499 C492 1.409 . S
C499 C498 1.362 1_565 S
H500 C506 0.930 . S
H501 C509 0.930 . S
H502 C510 0.930 . S
H503 C511 0.930 . S
H504 C514 0.930 . S
H505 C515 0.930 . S
C506 H500 0.930 . S
C506 C507 1.355 . S
C506 C508 1.415 . S
C507 C506 1.355 . S
C507 C509 1.419 . S
C508 C506 1.415 . S
C508 C513 1.425 . S
C508 C515 1.409 . S
C509 H501 0.930 . S
C509 C507 1.419 . S
C509 C510 1.362 . S
C510 H502 0.930 . S
C510 C509 1.362 . S
C510 C513 1.409 . S
C511 H503 0.930 . S
C511 C512 1.355 . S
C511 C513 1.415 . S
C512 C511 1.355 . S
C512 C514 1.419 . S
C513 C508 1.425 . S
C513 C510 1.409 . S
C513 C511 1.415 . S
C514 H504 0.930 . S
C514 C512 1.419 . S
C514 C515 1.362 . S
C515 H505 0.930 . S
C515 C508 1.409 . S
C515 C514 1.362 . S
H516 C522 0.930 . S
H517 C525 0.930 . S
H518 C526 0.930 . S
H519 C527 0.930 . S
H520 C530 0.930 . S
H521 C531 0.930 . S
C522 H516 0.930 . S
C522 C523 1.355 . S
C522 C524 1.415 . S
C523 C522 1.355 . S
C523 C525 1.419 . S
C524 C522 1.415 . S
C524 C529 1.425 1_455 S
C524 C531 1.409 1_455 S
C525 H517 0.930 . S
C525 C523 1.419 . S
C525 C526 1.362 . S
C526 H518 0.930 . S
C526 C525 1.362 . S
C526 C529 1.409 1_455 S
C527 H519 0.930 . S
C527 C528 1.355 . S
C527 C529 1.415 . S
C528 C527 1.355 . S
C528 C530 1.419 . S
C529 C524 1.425 1_655 S
C529 C526 1.409 1_655 S
C529 C527 1.415 . S
C530 H520 0.930 . S
C530 C528 1.419 . S
C530 C531 1.362 . S
C531 H521 0.930 . S
C531 C524 1.409 1_655 S
C531 C530 1.362 . S
H532 C538 0.930 . S
H533 C541 0.930 . S
H534 C542 0.930 1_565 S
H535 C543 0.930 . S
H536 C546 0.930 . S
H537 C547 0.930 1_545 S
C538 H532 0.930 . S
C538 C539 1.355 . S
C538 C540 1.415 1_556 S
C539 C538 1.355 . S
C539 C541 1.419 . S
C540 C538 1.415 1_554 S
C540 C545 1.425 1_544 S
C540 C547 1.409 1_545 S
C541 H533 0.930 . S
C541 C539 1.419 . S
C541 C542 1.362 . S
C542 H534 0.930 1_545 S
C542 C541 1.362 . S
C542 C545 1.409 1_545 S
C543 H535 0.930 . S
C543 C544 1.355 . S
C543 C545 1.415 1_554 S
C544 C543 1.355 . S
C544 C546 1.419 . S
C545 C540 1.425 1_566 S
C545 C542 1.409 1_565 S
C545 C543 1.415 1_556 S
C546 H536 0.930 . S
C546 C544 1.419 . S
C546 C547 1.362 . S
C547 H537 0.930 1_565 S
C547 C540 1.409 1_565 S
C547 C546 1.362 . S
H548 C554 0.930 . S
H549 C557 0.930 . S
H550 C558 0.930 . S
H551 C559 0.930 . S
H552 C562 0.930 . S
H553 C563 0.930 . S
C554 H548 0.930 . S
C554 C555 1.355 . S
C554 C556 1.415 . S
C555 C554 1.355 . S
C555 C557 1.419 . S
C556 C554 1.415 . S
C556 C561 1.425 . S
C556 C563 1.409 . S
C557 H549 0.930 . S
C557 C555 1.419 . S
C557 C558 1.362 . S
C558 H550 0.930 . S
C558 C557 1.362 . S
C558 C561 1.409 . S
C559 H551 0.930 . S
C559 C560 1.355 . S
C559 C561 1.415 . S
C560 C559 1.355 . S
C560 C562 1.419 . S
C561 C556 1.425 . S
C561 C558 1.409 . S
C561 C559 1.415 . S
C562 H552 0.930 . S
C562 C560 1.419 . S
C562 C563 1.362 . S
C563 H553 0.930 . S
C563 C556 1.409 . S
C563 C562 1.362 . S
H564 C570 0.930 . S
H565 C573 0.930 . S
H566 C574 0.930 . S
H567 C575 0.930 . S
H568 C578 0.930 . S
H569 C579 0.930 . S
C570 H564 0.930 . S
C570 C571 1.355 . S
C570 C572 1.415 . S
C571 C570 1.355 . S
C571 C573 1.419 . S
C572 C570 1.415 . S
C572 C577 1.425 . S
C572 C579 1.409 . S
C573 H565 0.930 . S
C573 C571 1.419 . S
C573 C574 1.362 . S
C574 H566 0.930 . S
C574 C573 1.362 . S
C574 C577 1.409 . S
C575 H567 0.930 . S
C575 C576 1.355 . S
C575 C577 1.415 . S
C576 C575 1.355 . S
C576 C578 1.419 . S
C577 C572 1.425 . S
C577 C574 1.409 . S
C577 C575 1.415 . S
C578 H568 0.930 . S
C578 C576 1.419 . S
C578 C579 1.362 . S
C579 H569 0.930 . S
C579 C572 1.409 . S
C579 C578 1.362 . S
H580 C586 0.930 . S
H581 C589 0.930 . S
H582 C590 0.930 . S
H583 C591 0.930 . S
H584 C594 0.930 . S
H585 C595 0.930 . S
C586 H580 0.930 . S
C586 C587 1.355 . S
C586 C588 1.415 . S
C587 C586 1.355 . S
C587 C589 1.419 . S
C588 C586 1.415 . S
C588 C593 1.425 . S
C588 C595 1.409 . S
C589 H581 0.930 . S
C589 C587 1.419 . S
C589 C590 1.362 . S
C590 H582 0.930 . S
C590 C589 1.362 . S
C590 C593 1.409 . S
C591 H583 0.930 . S
C591 C592 1.355 . S
C591 C593 1.415 . S
C592 C591 1.355 . S
C592 C594 1.419 . S
C593 C588 1.425 . S
C593 C590 1.409 . S
C593 C591 1.415 . S
C594 H584 0.930 . S
C594 C592 1.419 . S
C594 C595 1.362 . S
C595 H585 0.930 . S
C595 C588 1.409 . S
C595 C594 1.362 . S
H596 C602 0.930 . S
H597 C605 0.930 . S
H598 C606 0.930 . S
H599 C607 0.930 . S
H600 C610 0.930 . S
H601 C611 0.930 . S
C602 H596 0.930 . S
C602 C603 1.355 . S
C602 C604 1.415 . S
C603 C602 1.355 . S
C603 C605 1.419 . S
C604 C602 1.415 . S
C604 C609 1.425 . S
C604 C611 1.409 . S
C605 H597 0.930 . S
C605 C603 1.419 . S
C605 C606 1.362 . S
C606 H598 0.930 . S
C606 C605 1.362 . S
C606 C609 1.409 . S
C607 H599 0.930 . S
C607 C608 1.355 . S
C607 C609 1.415 . S
C608 C607 1.355 . S
C608 C610 1.419 . S
C609 C604 1.425 . S
C609 C606 1.409 . S
C609 C607 1.415 . S
C610 H600 0.930 . S
C610 C608 1.419 . S
C610 C611 1.362 . S
C611 H601 0.930 . S
C611 C604 1.409 . S
C611 C610 1.362 . S
H612 C618 0.930 . S
H613 C621 0.930 . S
H614 C622 0.930 . S
H615 C623 0.930 . S
H616 C626 0.930 . S
H617 C627 0.930 . S
C618 H612 0.930 . S
C618 C619 1.355 . S
C618 C620 1.415 . S
C619 C618 1.355 . S
C619 C621 1.419 . S
C620 C618 1.415 . S
C620 C625 1.425 . S
C620 C627 1.409 . S
C621 H613 0.930 . S
C621 C619 1.419 . S
C621 C622 1.362 . S
C622 H614 0.930 . S
C622 C621 1.362 . S
C622 C625 1.409 . S
C623 H615 0.930 . S
C623 C624 1.355 . S
C623 C625 1.415 . S
C624 C623 1.355 . S
C624 C626 1.419 . S
C625 C620 1.425 . S
C625 C622 1.409 . S
C625 C623 1.415 . S
C626 H616 0.930 . S
C626 C624 1.419 . S
C626 C627 1.362 . S
C627 H617 0.930 . S
C627 C620 1.409 . S
C627 C626 1.362 . S
H628 C634 0.930 . S
H629 C637 0.930 . S
H630 C638 0.930 . S
H631 C639 0.930 . S
H632 C642 0.930 . S
H633 C643 0.930 . S
C634 H628 0.930 . S
C634 C635 1.355 . S
C634 C636 1.415 . S
C635 C634 1.355 . S
C635 C637 1.419 . S
C636 C634 1.415 . S
C636 C641 1.425 . S
C636 C643 1.409 . S
C637 H629 0.930 . S
C637 C635 1.419 . S
C637 C638 1.362 . S
C638 H630 0.930 . S
C638 C637 1.362 . S
C638 C641 1.409 . S
C639 H631 0.930 . S
C639 C640 1.355 . S
C639 C641 1.415 . S
C640 C639 1.355 . S
C640 C642 1.419 . S
C641 C636 1.425 . S
C641 C638 1.409 . S
C641 C639 1.415 . S
C642 H632 0.930 . S
C642 C640 1.419 . S
C642 C643 1.362 . S
C643 H633 0.930 . S
C643 C636 1.409 . S
C643 C642 1.362 . S
H644 C650 0.930 . S
H645 C653 0.930 . S
H646 C654 0.930 . S
H647 C655 0.930 . S
H648 C658 0.930 1_556 S
H649 C659 0.930 . S
C650 H644 0.930 . S
C650 C651 1.355 . S
C650 C652 1.415 . S
C651 C650 1.355 . S
C651 C653 1.419 . S
C652 C650 1.415 . S
C652 C657 1.425 . S
C652 C659 1.409 . S
C653 H645 0.930 . S
C653 C651 1.419 . S
C653 C654 1.362 . S
C654 H646 0.930 . S
C654 C653 1.362 . S
C654 C657 1.409 . S
C655 H647 0.930 . S
C655 C656 1.355 . S
C655 C657 1.415 . S
C656 C655 1.355 . S
C656 C658 1.419 . S
C657 C652 1.425 . S
C657 C654 1.409 . S
C657 C655 1.415 . S
C658 H648 0.930 1_554 S
C658 C656 1.419 . S
C658 C659 1.362 . S
C659 H649 0.930 . S
C659 C652 1.409 . S
C659 C658 1.362 . S
C283 N2 1.375 . S
C288 N140 1.299 . S
C299 N25 1.306 . S
C304 N163 1.371 . S
C315 N186 1.339 . S
C320 N48 1.321 . S
C331 N71 1.288 . S
C336 N209 1.376 . S
C347 N94 1.315 . S
C352 N232 1.363 . S
C363 N255 1.339 . S
C368 N117 1.340 . S
C379 C191 1.445 . S
C384 C7 1.501 . S
C395 C30 1.470 . S
C400 C214 1.464 . S
C411 C237 1.460 1_556 S
C416 C53 1.475 . S
C427 C260 1.516 . S
C432 C76 1.467 1_554 S
C443 C99 1.489 . S
C448 C145 1.504 . S
C459 C122 1.515 . S
C464 C168 1.448 . S
C475 N265 1.840 . S
C480 N12 1.843 . S
C491 N150 1.836 . S
C496 N35 1.829 . S
C507 N58 1.767 . S
C512 N173 1.767 . S
C523 N196 1.789 . S
C528 N81 1.781 . S
C539 N219 1.822 . S
C544 N104 1.813 . S
C555 N242 1.829 . S
C560 N127 1.821 . S
C571 C16 1.682 . S
C576 C246 1.682 . S
C587 C269 1.714 . S
C592 C39 1.711 . S
C603 C62 1.694 . S
C608 C154 1.688 . S
C619 C85 1.690 . S
C624 C177 1.696 . S
C635 C108 1.691 1_556 S
C640 C200 1.685 . S
C651 C131 1.683 . S
C656 C223 1.681 1_554 S
