# Generated by pormake.
# Topology zfu, (5)-cn, num edge types: 1
# Building blocks:
#     Node 0, Type 0, BuildingBlock: XOMCOT_clean_sbu_1, # of connection points: 5
#     Node 1, Type 0, BuildingBlock: XOMCOT_clean_sbu_1, # of connection points: 5
#     Node 2, Type 0, BuildingBlock: XOMCOT_clean_sbu_1, # of connection points: 5
#     Node 3, Type 0, BuildingBlock: XOMCOT_clean_sbu_1, # of connection points: 5
#     Node 4, Type 0, BuildingBlock: XOMCOT_clean_sbu_1, # of connection points: 5
#     Node 5, Type 0, BuildingBlock: XOMCOT_clean_sbu_1, # of connection points: 5
#     Node 6, Type 0, BuildingBlock: XOMCOT_clean_sbu_1, # of connection points: 5
#     Node 7, Type 0, BuildingBlock: XOMCOT_clean_sbu_1, # of connection points: 5
#     Edge 8, Type (0, 0), BuildingBlock: XUDNAN_clean_linker_2, # of connection points: 2
#     Edge 9, Type (0, 0), BuildingBlock: XUDNAN_clean_linker_2, # of connection points: 2
#     Edge 10, Type (0, 0), BuildingBlock: XUDNAN_clean_linker_2, # of connection points: 2
#     Edge 11, Type (0, 0), BuildingBlock: XUDNAN_clean_linker_2, # of connection points: 2
#     Edge 12, Type (0, 0), BuildingBlock: XUDNAN_clean_linker_2, # of connection points: 2
#     Edge 13, Type (0, 0), BuildingBlock: XUDNAN_clean_linker_2, # of connection points: 2
#     Edge 14, Type (0, 0), BuildingBlock: XUDNAN_clean_linker_2, # of connection points: 2
#     Edge 15, Type (0, 0), BuildingBlock: XUDNAN_clean_linker_2, # of connection points: 2
#     Edge 16, Type (0, 0), BuildingBlock: XUDNAN_clean_linker_2, # of connection points: 2
#     Edge 17, Type (0, 0), BuildingBlock: XUDNAN_clean_linker_2, # of connection points: 2
#     Edge 18, Type (0, 0), BuildingBlock: XUDNAN_clean_linker_2, # of connection points: 2
#     Edge 19, Type (0, 0), BuildingBlock: XUDNAN_clean_linker_2, # of connection points: 2
#     Edge 20, Type (0, 0), BuildingBlock: XUDNAN_clean_linker_2, # of connection points: 2
#     Edge 21, Type (0, 0), BuildingBlock: XUDNAN_clean_linker_2, # of connection points: 2
#     Edge 22, Type (0, 0), BuildingBlock: XUDNAN_clean_linker_2, # of connection points: 2
#     Edge 23, Type (0, 0), BuildingBlock: XUDNAN_clean_linker_2, # of connection points: 2
#     Edge 24, Type (0, 0), BuildingBlock: XUDNAN_clean_linker_2, # of connection points: 2
#     Edge 25, Type (0, 0), BuildingBlock: XUDNAN_clean_linker_2, # of connection points: 2
#     Edge 26, Type (0, 0), BuildingBlock: XUDNAN_clean_linker_2, # of connection points: 2
#     Edge 27, Type (0, 0), BuildingBlock: XUDNAN_clean_linker_2, # of connection points: 2
# Relax obj value: 0.127
# Max RMSD: 0.160
# Mean RMSD: 0.160
data_MOF--net-zfu--node1-XOMCOT_clean_sbu_1--edge1-XUDNAN_clean_linker_2
_symmetry_space_group_name_H-M    P1
_symmetry_Int_Tables_number       1
_symmetry_cell_setting            triclinic
loop_
_symmetry_equiv_pos_as_xyz
'x, y, z'
_cell_length_a     39.398942
_cell_length_b     39.771818
_cell_length_c     26.787518
_cell_angle_alpha  89.963552
_cell_angle_beta   90.088519
_cell_angle_gamma 90.229289
loop_
_atom_site_label
_atom_site_type_symbol
_atom_site_fract_x
_atom_site_fract_y
_atom_site_fract_z
_atom_type_partial_charge
C0 C 0.45288 0.69778 0.0275 0.0
C1 C 0.47248 0.66978 0.03697 0.0
N2 N 0.50331 0.6745 0.01616 0.0
N3 N 0.47131 0.72015 0.00103 0.0
C4 C 0.50164 0.70507 0.99422 0.0
H5 H 0.42709 0.70185 0.03983 0.0
Co6 Co 0.45913 0.7633 0.97847 0.0
C7 C 0.52887 0.79655 0.97211 0.0
O8 O 0.52328 0.81323 0.93059 0.0
N9 N 0.44744 0.80703 0.95567 0.0
C10 C 0.44334 0.86274 0.95501 0.0
C11 C 0.45799 0.83563 0.97793 0.0
C12 C 0.42578 0.81762 0.91938 0.0
N13 N 0.42268 0.85164 0.9183 0.0
O14 O 0.46728 0.74827 0.91175 0.0
H15 H 0.47487 0.83674 0.00977 0.0
H16 H 0.41167 0.80069 0.89546 0.0
O17 O 0.5058 0.77766 0.99051 0.0
C18 C 0.43922 0.73278 0.9039 0.0
O19 O 0.4145 0.7365 0.93634 0.0
N20 N 0.44691 0.77502 0.04317 0.0
C21 C 0.41537 0.7712 0.13569 0.0
C22 C 0.45067 0.767 0.13168 0.0
C23 C 0.46615 0.76928 0.08473 0.0
C24 C 0.41309 0.78131 0.04701 0.0
C25 C 0.39689 0.77999 0.09296 0.0
H26 H 0.49275 0.76318 0.08123 0.0
H27 H 0.39796 0.7845 0.01364 0.0
H28 H 0.5221 0.71635 0.97311 0.0
H29 H 0.4648 0.64805 0.05856 0.0
H30 H 0.44765 0.88872 0.96514 0.0
H31 H 0.46574 0.76008 0.16391 0.0
H32 H 0.36957 0.78278 0.09411 0.0
C33 C 0.86425 0.95492 0.21875 0.0
C34 C 0.88912 0.97887 0.22324 0.0
N35 N 0.87438 1.00936 0.22496 0.0
N36 N 0.83361 0.96986 0.21728 0.0
C37 C 0.84057 1.00318 0.22133 0.0
H38 H 0.86828 0.92806 0.21899 0.0
Co39 Co 0.79301 0.94471 0.21708 0.0
C40 C 0.74242 0.99083 0.26228 0.0
O41 O 0.73382 0.96588 0.29168 0.0
N42 N 0.75174 0.91776 0.21614 0.0
C43 C 0.71095 0.88129 0.23763 0.0
C44 C 0.7371 0.90096 0.25463 0.0
C45 C 0.733 0.90773 0.17593 0.0
N46 N 0.70849 0.8852 0.18799 0.0
O47 O 0.79082 0.94924 0.14554 0.0
H48 H 0.74491 0.90217 0.29324 0.0
H49 H 0.73797 0.91551 0.13804 0.0
O50 O 0.76604 0.98644 0.22993 0.0
C51 C 0.80928 0.92432 0.13219 0.0
O52 O 0.82069 0.90387 0.16675 0.0
N53 N 0.80056 0.93601 0.2846 0.0
C54 C 0.84005 0.91647 0.36554 0.0
C55 C 0.82755 0.94942 0.36265 0.0
C56 C 0.80805 0.95896 0.32105 0.0
C57 C 0.81134 0.90361 0.28867 0.0
C58 C 0.83055 0.89321 0.32908 0.0
H59 H 0.80197 0.9852 0.31592 0.0
H60 H 0.80712 0.88619 0.25833 0.0
H61 H 0.82128 0.02241 0.22289 0.0
H62 H 0.91596 0.97394 0.22753 0.0
H63 H 0.69532 0.86473 0.26011 0.0
H64 H 0.83493 0.96809 0.39005 0.0
H65 H 0.83969 0.86755 0.33021 0.0
C66 C 0.58537 0.3395 0.48669 0.0
C67 C 0.56648 0.36803 0.49518 0.0
N68 N 0.53377 0.36151 0.48349 0.0
N69 N 0.5648 0.31481 0.46996 0.0
C70 C 0.53364 0.32908 0.46788 0.0
H71 H 0.61228 0.33665 0.49344 0.0
Co72 Co 0.57761 0.27013 0.45514 0.0
C73 C 0.51029 0.23364 0.45616 0.0
O74 O 0.51733 0.21459 0.41754 0.0
N75 N 0.59047 0.22488 0.43992 0.0
C76 C 0.59859 0.16978 0.44866 0.0
C77 C 0.58352 0.19782 0.46865 0.0
C78 C 0.61021 0.2124 0.4027 0.0
N79 N 0.61552 0.17882 0.40702 0.0
O80 O 0.56794 0.27916 0.38659 0.0
H81 H 0.56898 0.19857 0.50285 0.0
H82 H 0.62087 0.22762 0.3732 0.0
O83 O 0.5318 0.25539 0.47148 0.0
C84 C 0.59689 0.29145 0.37457 0.0
O85 O 0.62168 0.29048 0.40748 0.0
N86 N 0.5915 0.26442 0.52104 0.0
C87 C 0.62631 0.28543 0.60547 0.0
C88 C 0.59066 0.28637 0.60427 0.0
C89 C 0.57351 0.27543 0.56134 0.0
C90 C 0.62562 0.25955 0.52423 0.0
C91 C 0.64347 0.26941 0.56649 0.0
H92 H 0.54655 0.27999 0.5581 0.0
H93 H 0.63973 0.25165 0.49175 0.0
H94 H 0.51127 0.31584 0.45502 0.0
H95 H 0.57613 0.39144 0.51019 0.0
H96 H 0.59799 0.14485 0.4648 0.0
H97 H 0.57651 0.29855 0.63374 0.0
H98 H 0.6709 0.26753 0.56653 0.0
C99 C 0.18286 0.08113 0.73017 0.0
C100 C 0.15701 0.05819 0.73548 0.0
N101 N 0.1706 0.0272 0.73835 0.0
N102 N 0.2128 0.06492 0.72946 0.0
C103 C 0.20457 0.03198 0.73468 0.0
H104 H 0.18007 0.10812 0.72779 0.0
Co105 Co 0.25396 0.0881 0.72401 0.0
C106 C 0.30643 0.03963 0.75566 0.0
O107 O 0.32061 0.0651 0.77872 0.0
N108 N 0.29613 0.11365 0.71725 0.0
C109 C 0.33824 0.15019 0.73224 0.0
C110 C 0.31293 0.1312 0.7531 0.0
C111 C 0.31281 0.12248 0.67456 0.0
N112 N 0.33803 0.14504 0.68277 0.0
O113 O 0.24904 0.08619 0.65269 0.0
H114 H 0.30756 0.1307 0.79255 0.0
H115 H 0.30553 0.11419 0.63763 0.0
O116 O 0.27971 0.04467 0.72915 0.0
C117 C 0.23544 0.11485 0.64404 0.0
O118 O 0.23335 0.13659 0.68078 0.0
N119 N 0.25298 0.09394 0.79316 0.0
C120 C 0.23027 0.11004 0.88866 0.0
C121 C 0.24003 0.07701 0.8771 0.0
C122 C 0.25082 0.0693 0.82865 0.0
C123 C 0.24332 0.12595 0.80402 0.0
C124 C 0.23294 0.13475 0.85164 0.0
H125 H 0.25491 0.04328 0.81906 0.0
H126 H 0.24297 0.14479 0.77497 0.0
H127 H 0.22303 1.01194 0.7359 0.0
H128 H 0.13029 0.06405 0.73844 0.0
H129 H 0.35502 0.16728 0.7519 0.0
H130 H 0.23745 0.05699 0.90427 0.0
H131 H 0.2261 0.16064 0.85884 0.0
C132 C 0.94468 0.83728 0.78863 0.0
C133 C 0.96635 0.86418 0.78325 0.0
N134 N 0.99851 0.85324 0.78866 0.0
N135 N 0.96284 0.80932 0.79765 0.0
C136 C 0.9956 0.81985 0.7978 0.0
H137 H 0.91735 0.83794 0.78514 0.0
Co138 Co 0.94304 0.76656 0.80328 0.0
C139 C 0.99941 0.71868 0.78989 0.0
O140 O 0.97784 0.70137 0.76281 0.0
N141 N 0.92145 0.72274 0.81031 0.0
C142 C 0.89425 0.6741 0.79667 0.0
C143 C 0.90848 0.70198 0.77483 0.0
C144 C 0.91414 0.70641 0.85375 0.0
N145 N 0.89757 0.67698 0.84634 0.0
O146 O 0.93586 0.77546 0.87349 0.0
H147 H 0.90989 0.70582 0.73504 0.0
H148 H 0.92091 0.7157 0.89037 0.0
O149 O 0.98916 0.74566 0.81156 0.0
C150 C 0.90503 0.78578 0.87168 0.0
O151 O 0.88895 0.78381 0.82877 0.0
N152 N 0.945 0.76333 0.73359 0.0
C153 C 0.93782 0.79199 0.63922 0.0
C154 C 0.97018 0.78433 0.65803 0.0
C155 C 0.97327 0.76994 0.70559 0.0
C156 C 0.9135 0.7686 0.7141 0.0
C157 C 0.90934 0.7818 0.66658 0.0
H158 H 0.9983 0.7682 0.72181 0.0
H159 H 0.89128 0.76519 0.73714 0.0
H160 H 1.01694 0.80317 0.80249 0.0
H161 H 0.9588 0.88981 0.77576 0.0
H162 H 0.88192 0.65345 0.77745 0.0
H163 H 0.99289 0.79211 0.63837 0.0
H164 H 0.88384 0.78637 0.6531 0.0
C165 C 0.6814 0.43711 0.03081 0.0
C166 C 0.65549 0.45995 0.02614 0.0
N167 N 0.66815 0.49105 0.03413 0.0
N168 N 0.71047 0.45353 0.04143 0.0
C169 C 0.70164 0.48636 0.04346 0.0
H170 H 0.67925 0.41014 0.02665 0.0
Co171 Co 0.7519 0.43192 0.05207 0.0
C172 C 0.80408 0.48035 0.01859 0.0
O173 O 0.81919 0.45462 -0.00217 0.0
N174 N 0.79446 0.40867 0.06448 0.0
C175 C 0.84105 0.37716 0.05654 0.0
C176 C 0.81293 0.38949 0.03272 0.0
C177 C 0.81233 0.40688 0.10804 0.0
N178 N 0.84064 0.3879 0.10397 0.0
O179 O 0.7451 0.4379 0.12217 0.0
H180 H 0.80761 0.38538 0.99373 0.0
H181 H 0.80509 0.41955 0.14209 0.0
O182 O 0.77673 0.47545 0.04363 0.0
C183 C 0.73194 0.40945 0.13353 0.0
O184 O 0.73164 0.38559 0.09965 0.0
N185 N 0.75306 0.42224 0.98381 0.0
C186 C 0.73374 0.40066 0.88894 0.0
C187 C 0.74259 0.43443 0.89733 0.0
C188 C 0.75152 0.44493 0.94551 0.0
C189 C 0.74431 0.38948 0.97595 0.0
C190 C 0.73539 0.37801 0.92881 0.0
H191 H 0.75468 0.47149 0.95244 0.0
H192 H 0.74333 0.37219 0.00704 0.0
H193 H 0.71932 0.50635 0.05237 0.0
H194 H 0.62943 0.454 0.01679 0.0
H195 H 0.86038 0.36133 0.04021 0.0
H196 H 0.7406 0.45288 0.86773 0.0
H197 H 0.72881 0.35174 0.92403 0.0
C198 C 0.09582 0.19724 0.31298 0.0
C199 C 0.07413 0.17064 0.30479 0.0
N200 N 0.04224 0.18257 0.30108 0.0
N201 N 0.07784 0.22595 0.31434 0.0
C202 C 0.04518 0.2162 0.30747 0.0
H203 H 0.12312 0.1959 0.31676 0.0
Co204 Co 0.09782 0.26851 0.32078 0.0
C205 C 0.04662 0.31322 0.27476 0.0
O206 O 0.07145 0.32543 0.24772 0.0
N207 N 0.11914 0.31252 0.32863 0.0
C208 C 0.14774 0.36028 0.31419 0.0
C209 C 0.13406 0.33193 0.29314 0.0
C210 C 0.12481 0.3302 0.37147 0.0
N211 N 0.14217 0.35914 0.36352 0.0
O212 O 0.09038 0.26498 0.39117 0.0
H213 H 0.13536 0.32624 0.2538 0.0
H214 H 0.11656 0.32218 0.40806 0.0
O215 O 0.05306 0.29038 0.30729 0.0
C216 C 0.11914 0.25343 0.4054 0.0
O217 O 0.14448 0.25394 0.37357 0.0
N218 N 0.10967 0.26607 0.25332 0.0
C219 C 0.13588 0.23024 0.1731 0.0
C220 C 0.10113 0.23781 0.17504 0.0
C221 C 0.08837 0.25571 0.21593 0.0
C222 C 0.14375 0.26089 0.2497 0.0
C223 C 0.15744 0.2438 0.20945 0.0
H224 H 0.06118 0.25749 0.22027 0.0
H225 H 0.16022 0.26727 0.28058 0.0
H226 H 0.02409 0.23347 0.30533 0.0
H227 H 0.08139 0.1445 0.30173 0.0
H228 H 0.16166 0.37985 0.29481 0.0
H229 H 0.08363 0.2274 0.14788 0.0
H230 H 0.18447 0.23894 0.20893 0.0
C231 C 0.35941 0.60146 0.52388 0.0
C232 C 0.38439 0.57832 0.51382 0.0
N233 N 0.37289 0.54743 0.52633 0.0
N234 N 0.33199 0.58548 0.54244 0.0
C235 C 0.34101 0.55262 0.54376 0.0
H236 H 0.36102 0.6283 0.51769 0.0
Co237 Co 0.29122 0.60641 0.5624 0.0
C238 C 0.24003 0.55814 0.5236 0.0
O239 O 0.22547 0.58362 0.50133 0.0
N240 N 0.24911 0.62791 0.58415 0.0
C241 C 0.19929 0.65497 0.58442 0.0
C242 C 0.22511 0.64298 0.55542 0.0
C243 C 0.2367 0.63183 0.63138 0.0
N244 N 0.20656 0.64815 0.63214 0.0
O245 O 0.30285 0.59604 0.63047 0.0
H246 H 0.22549 0.64512 0.51528 0.0
H247 H 0.24916 0.62265 0.66467 0.0
O248 O 0.26636 0.56326 0.55084 0.0
C249 C 0.32059 0.62263 0.63872 0.0
O250 O 0.32027 0.64641 0.60465 0.0
N251 N 0.28564 0.62172 0.49662 0.0
C252 C 0.29716 0.65507 0.40659 0.0
C253 C 0.29486 0.6198 0.40792 0.0
C254 C 0.28921 0.60344 0.45371 0.0
C255 C 0.28884 0.65586 0.49551 0.0
C256 C 0.29358 0.67299 0.45105 0.0
H257 H 0.28997 0.57629 0.45518 0.0
H258 H 0.28871 0.67006 0.52986 0.0
H259 H 0.3246 0.53295 0.55791 0.0
H260 H 0.40892 0.58393 0.49771 0.0
H261 H 0.17674 0.66782 0.57147 0.0
H262 H 0.29857 0.60509 0.37437 0.0
H263 H 0.29653 0.70009 0.45203 0.0
H264 H 0.59979 0.49988 0.04523 0.0
H265 H 0.694 0.55391 0.01828 0.0
H266 H 0.66206 0.60703 0.01267 0.0
H267 H 0.5491 0.54671 0.95911 0.0
H268 H 0.51169 0.5458 -0.00225 0.0
H269 H 0.54215 0.51226 0.00172 0.0
H270 H 0.54814 0.52238 0.09688 0.0
H271 H 0.5177 0.55597 0.0932 0.0
H272 H 0.55918 0.56373 0.11934 0.0
H273 H 0.6194 0.65433 0.00806 0.0
H274 H 0.56992 0.69189 0.0054 0.0
H275 H 0.50328 0.60657 0.03231 0.0
C276 C 0.61386 0.52274 0.03789 0.0
C277 C 0.64963 0.52243 0.03223 0.0
C278 C 0.66678 0.55329 0.02344 0.0
C279 C 0.64879 0.58366 0.01989 0.0
C280 C 0.61359 0.58289 0.02524 0.0
C281 C 0.59632 0.55322 0.03412 0.0
C282 C 0.55838 0.55913 0.03774 0.0
C283 C 0.53921 0.53983 0.99663 0.0
C284 C 0.54508 0.54975 0.0899 0.0
C285 C 0.55693 0.59676 0.02914 0.0
C286 C 0.58905 0.61001 0.02215 0.0
C287 C 0.59414 0.64417 0.01334 0.0
C288 C 0.56571 0.66533 0.01152 0.0
C289 C 0.5324 0.65237 0.0183 0.0
C290 C 0.52823 0.61751 0.02738 0.0
H291 H 0.03817 0.12398 0.24926 0.0
H292 H 0.97729 0.19725 0.32825 0.0
H293 H 0.92589 0.16282 0.31216 0.0
H294 H 0.97554 0.10282 0.15436 0.0
H295 H 0.98723 0.05906 0.15359 0.0
H296 H 1.01845 0.09063 0.16895 0.0
H297 H 0.03101 0.06021 0.25256 0.0
H298 H 0.99992 0.02856 0.23742 0.0
H299 H 0.99664 0.05162 0.29511 0.0
H300 H 0.8814 0.11738 0.29145 0.0
H301 H 0.84909 0.06603 0.26886 0.0
H302 H 0.93984 0.02427 0.20206 0.0
C303 C 1.01409 0.13287 0.26331 0.0
C304 C 1.01189 0.16332 0.29028 0.0
C305 C 0.97965 0.17418 0.30718 0.0
C306 C 0.95031 0.15472 0.2983 0.0
C307 C 0.95354 0.1246 0.27202 0.0
C308 C 0.98469 0.11392 0.25458 0.0
C309 C 0.98184 0.08028 0.22856 0.0
C310 C 0.99132 0.0834 0.17307 0.0
C311 C 1.00364 0.0536 0.25501 0.0
C312 C 0.94435 0.0732 0.23498 0.0
C313 C 0.92826 0.09904 0.25982 0.0
C314 C 0.89376 0.09719 0.27155 0.0
C315 C 0.87552 0.06796 0.25831 0.0
C316 C 0.89183 0.04089 0.23379 0.0
C317 C 0.92656 0.04418 0.22126 0.0
H318 H 0.53497 0.43026 0.49015 0.0
H319 H 0.46663 0.34432 0.48986 0.0
H320 H 0.418 0.38243 0.50053 0.0
H321 H 0.49099 0.47696 0.58507 0.0
H322 H 0.49906 0.51718 0.55628 0.0
H323 H 0.52842 0.4831 0.54745 0.0
H324 H 0.5223 0.4891 0.45156 0.0
H325 H 0.49291 0.52318 0.46008 0.0
H326 H 0.4807 0.48704 0.42358 0.0
H327 H 0.37625 0.43064 0.5121 0.0
H328 H 0.34559 0.48418 0.52233 0.0
H329 H 0.44155 0.53819 0.51824 0.0
C330 C 0.5099 0.41924 0.49259 0.0
C331 C 0.505 0.38397 0.4889 0.0
C332 C 0.47139 0.37108 0.49174 0.0
C333 C 0.44347 0.3926 0.49817 0.0
C334 C 0.44933 0.42712 0.50187 0.0
C335 C 0.48175 0.44034 0.49917 0.0
C336 C 0.48128 0.47832 0.50444 0.0
C337 C 0.50111 0.48954 0.55109 0.0
C338 C 0.49511 0.49541 0.45709 0.0
C339 C 0.44352 0.48447 0.51044 0.0
C340 C 0.42548 0.45465 0.5089 0.0
C341 C 0.39021 0.45411 0.51351 0.0
C342 C 0.37297 0.48477 0.51965 0.0
C343 C 0.39088 0.51579 0.5212 0.0
C344 C 0.42676 0.51526 0.51668 0.0
H345 H 1.0057 0.9128 0.73928 0.0
H346 H 0.06152 0.83905 0.82582 0.0
H347 H 0.11334 0.87396 0.81814 0.0
H348 H 0.07353 0.93579 0.65521 0.0
H349 H 0.06171 0.97952 0.65407 0.0
H350 H 0.02984 0.94764 0.66409 0.0
H351 H 1.01197 0.97677 0.74645 0.0
H352 H 0.04371 1.00875 0.73665 0.0
H353 H 0.04348 0.98486 0.79386 0.0
H354 H 0.15897 0.91921 0.80349 0.0
H355 H 0.19278 0.97042 0.78515 0.0
H356 H 0.10598 1.01362 0.70924 0.0
C357 C 0.02864 0.90386 0.75695 0.0
C358 C 0.02924 0.87304 0.78338 0.0
C359 C 0.06028 0.86232 0.80498 0.0
C360 C 0.08989 0.88207 0.80094 0.0
C361 C 0.08817 0.91247 0.77502 0.0
C362 C 0.05825 0.9232 0.75339 0.0
C363 C 0.06252 0.95723 0.72884 0.0
C364 C 0.05655 0.95488 0.67219 0.0
C365 C 0.03903 0.98344 0.7529 0.0
C366 C 0.09941 0.96436 0.74067 0.0
C367 C 0.11399 0.93821 0.76694 0.0
C368 C 0.14777 0.9397 0.78269 0.0
C369 C 0.16687 0.96882 0.77187 0.0
C370 C 0.15207 0.99617 0.7459 0.0
C371 C 0.11801 0.99343 0.72966 0.0
H372 H 0.35068 0.64277 0.34397 0.0
H373 H 0.26673 0.71091 0.36893 0.0
H374 H 0.28984 0.74961 0.3053 0.0
H375 H 0.41389 0.70437 0.32926 0.0
H376 H 0.43664 0.68323 0.2802 0.0
H377 H 0.41248 0.65915 0.32478 0.0
H378 H 0.378 0.6312 0.25342 0.0
H379 H 0.40276 0.65444 0.20857 0.0
H380 H 0.35712 0.65733 0.20783 0.0
H381 H 0.32407 0.78284 0.24445 0.0
H382 H 0.36293 0.80481 0.17982 0.0
H383 H 0.42429 0.71485 0.19294 0.0
C384 C 0.33664 0.66531 0.33479 0.0
C385 C 0.30685 0.67386 0.36108 0.0
C386 C 0.28956 0.70396 0.34902 0.0
C387 C 0.30259 0.72616 0.31323 0.0
C388 C 0.33284 0.71779 0.28965 0.0
C389 C 0.34931 0.6878 0.29905 0.0
C390 C 0.38164 0.6852 0.26873 0.0
C391 C 0.41301 0.68285 0.3028 0.0
C392 C 0.37975 0.65528 0.23247 0.0
C393 C 0.3808 0.71847 0.24114 0.0
C394 C 0.35256 0.73696 0.25413 0.0
C395 C 0.34614 0.76849 0.23361 0.0
C396 C 0.3684 0.78082 0.19717 0.0
C397 C 0.39662 0.76159 0.18148 0.0
C398 C 0.4033 0.7304 0.2048 0.0
H399 H 0.83346 0.91653 0.46725 0.0
H400 H 0.9025 0.89118 0.34749 0.0
H401 H 0.93985 0.86193 0.40731 0.0
H402 H 0.90111 0.92549 0.56844 0.0
H403 H 0.87332 0.90697 0.61433 0.0
H404 H 0.85589 0.93166 0.56405 0.0
H405 H 0.81696 0.88161 0.53973 0.0
H406 H 0.83462 0.85658 0.58914 0.0
H407 H 0.83572 0.84142 0.52577 0.0
H408 H 0.96366 0.82681 0.47631 0.0
H409 H 0.97407 0.79176 0.55113 0.0
H410 H 0.89114 0.84201 0.62683 0.0
C411 C 0.85719 0.90605 0.45427 0.0
C412 C 0.86535 0.90613 0.40314 0.0
C413 C 0.89604 0.89135 0.38679 0.0
C414 C 0.9174 0.87477 0.42044 0.0
C415 C 0.9079 0.87358 0.4704 0.0
C416 C 0.87887 0.88937 0.48752 0.0
C417 C 0.87267 0.88143 0.54198 0.0
C418 C 0.87596 0.91328 0.5741 0.0
C419 C 0.83795 0.86423 0.54955 0.0
C420 C 0.9016 0.85739 0.55185 0.0
C421 C 0.92193 0.85347 0.51041 0.0
C422 C 0.94842 0.83025 0.50948 0.0
C423 C 0.95414 0.81041 0.55206 0.0
C424 C 0.93326 0.81381 0.59469 0.0
C425 C 0.90724 0.83824 0.59461 0.0
H426 H 0.67917 0.3596 0.87158 0.0
H427 H 0.75881 0.41547 0.79599 0.0
H428 H 0.73872 0.39303 0.71493 0.0
H429 H 0.68439 0.28583 0.79797 0.0
H430 H 0.63933 0.27778 0.79786 0.0
H431 H 0.65858 0.29982 0.84939 0.0
H432 H 0.61719 0.34956 0.83636 0.0
H433 H 0.59768 0.3276 0.78491 0.0
H434 H 0.61449 0.36939 0.77596 0.0
H435 H 0.71194 0.36244 0.6435 0.0
H436 H 0.67907 0.32744 0.58501 0.0
H437 H 0.61721 0.29048 0.70746 0.0
C438 C 0.69244 0.36711 0.83798 0.0
C439 C 0.72073 0.38908 0.83996 0.0
C440 C 0.737 0.39882 0.79516 0.0
C441 C 0.72585 0.3861 0.7491 0.0
C442 C 0.69832 0.36394 0.74868 0.0
C443 C 0.68167 0.35471 0.79188 0.0
C444 C 0.65316 0.33001 0.78136 0.0
C445 C 0.65925 0.29637 0.80824 0.0
C446 C 0.61858 0.34505 0.79548 0.0
C447 C 0.65666 0.32636 0.72541 0.0
C448 C 0.68283 0.34622 0.70741 0.0
C449 C 0.69143 0.34678 0.65715 0.0
C450 C 0.67279 0.32653 0.62434 0.0
C451 C 0.64591 0.3058 0.64185 0.0
C452 C 0.63762 0.30599 0.69307 0.0
H453 H 0.177 0.15214 0.90716 0.0
H454 H 0.25081 0.08848 0.98139 0.0
H455 H 0.22979 0.10813 0.06323 0.0
H456 H 0.18851 0.22136 0.98399 0.0
H457 H 0.14471 0.23428 0.98362 0.0
H458 H 0.1616 0.21129 0.93155 0.0
H459 H 0.1145 0.16612 0.94175 0.0
H460 H 0.09733 0.18908 0.99385 0.0
H461 H 0.10896 0.14557 0.00121 0.0
H462 H 0.205 0.13886 0.13572 0.0
H463 H 0.17878 0.17864 0.19437 0.0
H464 H 0.12334 0.22475 0.07224 0.0
C465 C 0.18868 0.1421 0.94059 0.0
C466 C 0.21574 0.11891 0.93792 0.0
C467 C 0.22987 0.10601 0.98256 0.0
C468 C 0.21813 0.11708 0.02914 0.0
C469 C 0.19219 0.14084 0.03024 0.0
C470 C 0.17754 0.15309 0.98713 0.0
C471 C 0.15211 0.18055 -0.00183 0.0
C472 C 0.16237 0.21383 0.97284 0.0
C473 C 0.11609 0.16967 0.98284 0.0
C474 C 0.15554 0.18269 0.05428 0.0
C475 C 0.17838 0.15918 0.07204 0.0
C476 C 0.18697 0.15723 0.12228 0.0
C477 C 0.17219 0.18018 0.15516 0.0
C478 C 0.14942 0.20511 0.13763 0.0
C479 C 0.14052 0.20588 0.08665 0.0
H480 H 0.36684 0.67235 0.6492 0.0
H481 H 0.32572 0.5855 0.72689 0.0
H482 H 0.36234 0.59934 0.79998 0.0
H483 H 0.45385 0.66947 0.70152 0.0
H484 H 0.45632 0.7147 0.70414 0.0
H485 H 0.43151 0.69449 0.65607 0.0
H486 H 0.37855 0.72843 0.68305 0.0
H487 H 0.40318 0.74885 0.73068 0.0
H488 H 0.36481 0.72666 0.74718 0.0
H489 H 0.39819 0.62729 0.86719 0.0
H490 H 0.42456 0.66833 0.92451 0.0
H491 H 0.44054 0.73738 0.80184 0.0
C492 C 0.36565 0.6557 0.68116 0.0
C493 C 0.34323 0.62778 0.68237 0.0
C494 C 0.34274 0.60691 0.72509 0.0
C495 C 0.3636 0.61454 0.76651 0.0
C496 C 0.38497 0.64278 0.76405 0.0
C497 C 0.38601 0.66295 0.72224 0.0
C498 C 0.40797 0.69387 0.73006 0.0
C499 C 0.43927 0.69307 0.69591 0.0
C500 C 0.38739 0.72634 0.72232 0.0
C501 C 0.41796 0.68915 0.78404 0.0
C502 C 0.40528 0.65901 0.80258 0.0
C503 C 0.40872 0.65049 0.8527 0.0
C504 C 0.4239 0.6739 0.88491 0.0
C505 C 0.43519 0.7056 0.86713 0.0
C506 C 0.43331 0.71282 0.81583 0.0
H507 H 0.87138 0.91804 0.0914 0.0
H508 H 0.76428 0.90487 0.06015 0.0
H509 H 0.77839 0.86628 0.99106 0.0
H510 H 0.90061 0.91176 0.9559 0.0
H511 H 0.93878 0.89026 0.9745 0.0
H512 H 0.92006 0.92103 0.01531 0.0
H513 H 0.91845 0.87641 0.08562 0.0
H514 H 0.93571 0.84504 0.04456 0.0
H515 H 0.89584 0.83748 0.07559 0.0
H516 H 0.8034 0.82131 0.93818 0.0
H517 H 0.83777 0.78325 0.88701 0.0
H518 H 0.93004 0.82714 0.94769 0.0
C519 C 0.85104 0.90856 0.06798 0.0
C520 C 0.81672 0.915 0.08027 0.0
C521 C 0.79064 0.90109 0.05046 0.0
C522 C 0.79849 0.87869 0.01167 0.0
C523 C 0.83255 0.87106 0.00281 0.0
C524 C 0.85853 0.88657 0.0287 0.0
C525 C 0.89293 0.87291 0.01297 0.0
C526 C 0.91436 0.90064 0.98818 0.0
C527 C 0.91183 0.85703 0.05735 0.0
C528 C 0.88218 0.84637 0.97541 0.0
C529 C 0.84717 0.84564 0.97074 0.0
C530 C 0.83081 0.82229 0.94055 0.0
C531 C 0.85065 0.80051 0.91202 0.0
C532 C 0.88663 0.8023 0.91309 0.0
C533 C 0.90265 0.82492 0.94641 0.0
H534 H 0.73589 0.35423 0.19006 0.0
H535 H 0.68125 0.44781 0.17442 0.0
H536 H 0.63584 0.42563 0.22997 0.0
H537 H 0.66655 0.30189 0.1805 0.0
H538 H 0.681 0.2711 0.22505 0.0
H539 H 0.71136 0.29599 0.19093 0.0
H540 H 0.73863 0.31758 0.27317 0.0
H541 H 0.70957 0.29128 0.30743 0.0
H542 H 0.71194 0.33567 0.32063 0.0
H543 H 0.59404 0.38967 0.28299 0.0
H544 H 0.5659 0.34804 0.33867 0.0
H545 H 0.64741 0.27787 0.31167 0.0
C546 C 0.71508 0.3706 0.20017 0.0
C547 C 0.71235 0.40296 0.1792 0.0
C548 C 0.68428 0.42336 0.19168 0.0
C549 C 0.6581 0.41065 0.22231 0.0
C550 C 0.66057 0.37759 0.23976 0.0
C551 C 0.68886 0.35823 0.22991 0.0
C552 C 0.68538 0.32316 0.25091 0.0
C553 C 0.68612 0.29648 0.20935 0.0
C554 C 0.713 0.31655 0.29039 0.0
C555 C 0.6506 0.32547 0.2741 0.0
C556 C 0.6364 0.3569 0.26738 0.0
C557 C 0.60488 0.36494 0.28801 0.0
C558 C 0.58865 0.34094 0.31867 0.0
C559 C 0.60403 0.30946 0.32793 0.0
C560 C 0.63458 0.30134 0.30366 0.0
H561 H 0.17097 0.25929 0.46978 0.0
H562 H 0.08179 0.19933 0.43727 0.0
H563 H 0.1044 0.15337 0.4905 0.0
H564 H 0.22894 0.19571 0.46015 0.0
H565 H 0.25643 0.2096 0.50994 0.0
H566 H 0.23107 0.23966 0.47642 0.0
H567 H 0.20307 0.26012 0.55844 0.0
H568 H 0.22971 0.23144 0.59249 0.0
H569 H 0.1843 0.22977 0.60022 0.0
H570 H 0.14109 0.11154 0.54148 0.0
H571 H 0.1824 0.08309 0.59742 0.0
H572 H 0.24775 0.17064 0.59098 0.0
C573 C 0.15542 0.23714 0.47597 0.0
C574 C 0.12423 0.23315 0.45074 0.0
C575 C 0.10514 0.20332 0.4579 0.0
C576 C 0.11819 0.17685 0.48718 0.0
C577 C 0.15026 0.18079 0.50891 0.0
C578 C 0.16812 0.21066 0.50461 0.0
C579 C 0.20249 0.20858 0.52956 0.0
C580 C 0.23142 0.21369 0.49174 0.0
C581 C 0.20503 0.23396 0.57276 0.0
C582 C 0.20153 0.17277 0.54839 0.0
C583 C 0.17139 0.15688 0.53604 0.0
C584 C 0.16478 0.12381 0.55107 0.0
C585 C 0.18868 0.10749 0.5819 0.0
C586 C 0.21867 0.12433 0.59705 0.0
C587 C 0.22553 0.15683 0.57851 0.0
H588 H 0.40105 0.9151 0.93829 0.0
H589 H 0.39474 0.83616 0.82699 0.0
H590 H 0.36053 0.8739 0.77295 0.0
H591 H 0.3179 0.95007 0.92048 0.0
H592 H 0.3327 0.99253 0.93001 0.0
H593 H 0.35397 0.95808 0.96028 0.0
H594 H 0.41107 0.97691 0.92085 0.0
H595 H 0.39001 1.01141 0.89059 0.0
H596 H 0.41396 0.98178 0.85407 0.0
H597 H 0.32751 0.92399 0.72946 0.0
H598 H 0.3033 0.97907 0.70269 0.0
H599 H 0.33564 0.02276 0.84319 0.0
C600 C 0.39284 0.90544 0.90254 0.0
C601 C 0.40109 0.87248 0.88706 0.0
C602 C 0.38873 0.86115 0.84013 0.0
C603 C 0.36931 0.88253 0.80905 0.0
C604 C 0.36233 0.91519 0.82538 0.0
C605 C 0.3739 0.92634 0.87126 0.0
C606 C 0.36477 0.96265 0.88031 0.0
C607 C 0.34091 0.96601 0.92543 0.0
C608 C 0.39686 0.98446 0.88681 0.0
C609 C 0.3466 0.97068 0.83214 0.0
C610 C 0.34482 0.94318 0.80076 0.0
C611 C 0.32894 0.94557 0.75398 0.0
C612 C 0.31518 0.97688 0.73902 0.0
C613 C 0.31796 1.0054 0.77044 0.0
C614 C 0.33349 1.00171 0.81771 0.0
H615 H 0.57006 0.85308 0.9744 0.0
H616 H 0.55763 0.7536 0.03864 0.0
H617 H 0.60588 0.76431 0.09506 0.0
H618 H 0.6644 0.85763 0.98516 0.0
H619 H 0.66411 0.90145 0.00225 0.0
H620 H 0.63133 0.88478 0.96214 0.0
H621 H 0.58549 0.90661 0.02306 0.0
H622 H 0.61806 0.92322 0.0634 0.0
H623 H 0.58701 0.89414 0.08775 0.0
H624 H 0.65155 0.78669 0.14909 0.0
H625 H 0.69201 0.81983 0.19911 0.0
H626 H 0.67567 0.90613 0.10315 0.0
C627 C 0.57814 0.83328 -0.00056 0.0
C628 C 0.56031 0.80227 0.00163 0.0
C629 C 0.57099 0.77739 0.03599 0.0
C630 C 0.59845 0.78323 0.06817 0.0
C631 C 0.61502 0.8142 0.0659 0.0
C632 C 0.60543 0.83888 0.03247 0.0
C633 C 0.626 0.87089 0.04086 0.0
C634 C 0.64775 0.87917 0.99486 0.0
C635 C 0.60275 0.90046 0.05459 0.0
C636 C 0.64805 0.86051 0.08487 0.0
C637 C 0.6414 0.82754 0.09814 0.0
C638 C 0.65714 0.81244 0.13886 0.0
C639 C 0.67993 0.83158 0.16728 0.0
C640 C 0.6869 0.86563 0.15529 0.0
C641 C 0.67113 0.88008 0.11286 0.0
H642 H 0.68439 1.0025 0.31423 0.0
H643 H 0.7634 0.05451 0.23184 0.0
H644 H 0.73788 0.10924 0.25593 0.0
H645 H 0.61549 0.06057 0.28544 0.0
H646 H 0.59692 0.05587 0.34651 0.0
H647 H 0.6202 0.02163 0.31918 0.0
H648 H 0.65921 0.01962 0.3971 0.0
H649 H 0.63626 0.05397 0.4245 0.0
H650 H 0.68156 0.05712 0.41623 0.0
H651 H 0.70451 0.15894 0.2958 0.0
H652 H 0.66763 0.19694 0.34458 0.0
H653 H 0.61089 0.1106 0.39859 0.0
C654 C 0.69627 0.02531 0.30058 0.0
C655 C 0.726 0.02408 0.27103 0.0
C656 C 0.74051 0.0547 0.25416 0.0
C657 C 0.7262 0.08591 0.26786 0.0
C658 C 0.6972 0.08609 0.29804 0.0
C659 C 0.68234 0.05638 0.31369 0.0
C660 C 0.6521 0.06277 0.34716 0.0
C661 C 0.61923 0.04942 0.32312 0.0
C662 C 0.65764 0.04747 0.39932 0.0
C663 C 0.65242 0.10079 0.34901 0.0
C664 C 0.6784 0.114 0.32032 0.0
C665 C 0.68396 0.14869 0.31792 0.0
C666 C 0.6627 0.17017 0.34571 0.0
C667 C 0.63616 0.15703 0.3759 0.0
C668 C 0.63101 0.12176 0.37667 0.0
H669 H 0.4729 0.175 0.46515 0.0
H670 H 0.47858 0.27817 0.51728 0.0
H671 H 0.43086 0.26743 0.57447 0.0
H672 H 0.37901 0.16486 0.4759 0.0
H673 H 0.38222 0.12222 0.4982 0.0
H674 H 0.41391 0.13885 0.45632 0.0
H675 H 0.46099 0.12347 0.5198 0.0
H676 H 0.4295 0.10692 0.56188 0.0
H677 H 0.45843 0.13922 0.58278 0.0
H678 H 0.38672 0.24498 0.63106 0.0
H679 H 0.34911 0.21169 0.68557 0.0
H680 H 0.37118 0.12207 0.59984 0.0
C681 C 0.46344 0.19553 0.48765 0.0
C682 C 0.47922 0.22761 0.48622 0.0
C683 C 0.4668 0.25352 0.51739 0.0
C684 C 0.43961 0.24767 0.54997 0.0
C685 C 0.42507 0.21568 0.55126 0.0
C686 C 0.43643 0.18997 0.52101 0.0
C687 C 0.41807 0.15722 0.53313 0.0
C688 C 0.39705 0.14508 0.48821 0.0
C689 C 0.44325 0.13012 0.55043 0.0
C690 C 0.39525 0.16843 0.57566 0.0
C691 C 0.39956 0.20239 0.58491 0.0
C692 C 0.38289 0.21847 0.62387 0.0
C693 C 0.36171 0.19932 0.65479 0.0
C694 C 0.35726 0.16437 0.64693 0.0
C695 C 0.37376 0.14884 0.60616 0.0
H696 H 0.89932 0.60936 0.84024 0.0
H697 H 0.86628 0.6913 0.93431 0.0
H698 H 0.83888 0.65027 0.99187 0.0
H699 H 0.82608 0.5589 0.8507 0.0
H700 H 0.84885 0.51969 0.8517 0.0
H701 H 0.86669 0.55559 0.82019 0.0
H702 H 0.92131 0.55092 0.87385 0.0
H703 H 0.90372 0.51482 0.9053 0.0
H704 H 0.918 0.55061 0.94097 0.0
H705 H 0.81034 0.59836 0.035 0.0
H706 H 0.7895 0.5421 0.06244 0.0
H707 H 0.84498 0.49619 0.94066 0.0
C708 C 0.88656 0.61862 0.87322 0.0
C709 C 0.8848 0.65343 0.88286 0.0
C710 C 0.86813 0.66466 0.92658 0.0
C711 C 0.85234 0.64154 0.95921 0.0
C712 C 0.85398 0.60726 0.94796 0.0
C713 C 0.87126 0.59598 0.90629 0.0
C714 C 0.86963 0.55815 0.90188 0.0
C715 C 0.85174 0.54747 0.85325 0.0
C716 C 0.90529 0.54273 0.90575 0.0
C717 C 0.84837 0.54969 0.94712 0.0
C718 C 0.83918 0.57812 0.97331 0.0
C719 C 0.81792 0.57596 0.01506 0.0
C720 C 0.80612 0.54396 0.03038 0.0
C721 C 0.81599 0.5146 0.00434 0.0
C722 C 0.8374 0.5179 0.96226 0.0
H723 H 0.02678 0.34492 0.19004 0.0
H724 H 0.98655 0.30428 0.32819 0.0
H725 H 0.92869 0.32269 0.30267 0.0
H726 H 0.97313 0.41733 0.18014 0.0
H727 H 0.96942 0.41382 0.11327 0.0
H728 H 1.00708 0.39903 0.14435 0.0
H729 H 0.99875 0.34011 0.10469 0.0
H730 H 0.96124 0.35475 0.07323 0.0
H731 H 0.95898 0.31827 0.11305 0.0
H732 H 0.87424 0.34686 0.25907 0.0
H733 H 0.8302 0.36784 0.20001 0.0
H734 H 0.9083 0.38922 0.0911 0.0
C735 C 1.00601 0.34008 0.21552 0.0
C736 C 1.01139 0.32351 0.26158 0.0
C737 C 0.98314 0.31713 0.2929 0.0
C738 C 0.95023 0.32762 0.2787 0.0
C739 C 0.94603 0.34414 0.2329 0.0
C740 C 0.97335 0.34989 0.20174 0.0
C741 C 0.96267 0.36622 0.15326 0.0
C742 C 0.97905 0.40117 0.14745 0.0
C743 C 0.97089 0.34347 0.10844 0.0
C744 C 0.92488 0.36885 0.16146 0.0
C745 C 0.91551 0.3565 0.20776 0.0
C746 C 0.88151 0.35651 0.22284 0.0
C747 C 0.85669 0.36867 0.18933 0.0
C748 C 0.86597 0.3801 0.14114 0.0
C749 C 0.90055 0.38055 0.12769 0.0
H750 H 0.2001 0.54093 0.44512 0.0
H751 H 0.25204 0.49752 0.57249 0.0
H752 H 0.22932 0.44116 0.54904 0.0
H753 H 0.12496 0.48988 0.44818 0.0
H754 H 0.12213 0.48724 0.38113 0.0
H755 H 0.14122 0.5236 0.40995 0.0
H756 H 0.19612 0.51445 0.35855 0.0
H757 H 0.17714 0.47825 0.32931 0.0
H758 H 0.21721 0.47435 0.3613 0.0
H759 H 0.1992 0.38881 0.50935 0.0
H760 H 0.17107 0.34677 0.45411 0.0
H761 H 0.14217 0.42644 0.35273 0.0
C762 C 0.20657 0.51975 0.46867 0.0
C763 C 0.22751 0.52379 0.51117 0.0
C764 C 0.23586 0.49509 0.53997 0.0
C765 C 0.22294 0.46304 0.52696 0.0
C766 C 0.20206 0.46016 0.48481 0.0
C767 C 0.19438 0.48791 0.45594 0.0
C768 C 0.17315 0.4786 0.41094 0.0
C769 C 0.1383 0.49585 0.41269 0.0
C770 C 0.19204 0.48689 0.36216 0.0
C771 C 0.16987 0.44112 0.41856 0.0
C772 C 0.18624 0.43073 0.4616 0.0
C773 C 0.18641 0.39686 0.47565 0.0
C774 C 0.17018 0.37317 0.44435 0.0
C775 C 0.1545 0.38345 0.39925 0.0
C776 C 0.15405 0.41792 0.38692 0.0
H777 H 0.14596 0.62071 0.65271 0.0
H778 H 0.21684 0.69724 0.70045 0.0
H779 H 0.17296 0.72122 0.75675 0.0
H780 H 0.07652 0.67084 0.64387 0.0
H781 H 0.04597 0.64045 0.66594 0.0
H782 H 0.08449 0.62648 0.63695 0.0
H783 H 0.0991 0.59095 0.71516 0.0
H784 H 0.06031 0.60456 0.74432 0.0
H785 H 0.10037 0.61076 0.77565 0.0
H786 H 0.11678 0.74196 0.79711 0.0
H787 H 0.05697 0.75478 0.8193 0.0
H788 H 0.02502 0.66229 0.7472 0.0
C789 C 0.15256 0.64156 0.67686 0.0
C790 C 0.18491 0.65663 0.67352 0.0
C791 C 0.19246 0.6848 0.70384 0.0
C792 C 0.16757 0.69866 0.73554 0.0
C793 C 0.13536 0.68376 0.73689 0.0
C794 C 0.12817 0.65533 0.7089 0.0
C795 C 0.09119 0.6454 0.71336 0.0
C796 C 0.07353 0.64584 0.662 0.0
C797 C 0.08754 0.61087 0.73864 0.0
C798 C 0.07823 0.67323 0.74673 0.0
C799 C 0.10387 0.69518 0.76035 0.0
C800 C 0.09674 0.72444 0.78747 0.0
C801 C 0.06265 0.73155 0.80007 0.0
C802 C 0.03606 0.70955 0.78542 0.0
C803 C 0.04451 0.67965 0.75961 0.0
loop_
_geom_bond_atom_site_label_1
_geom_bond_atom_site_label_2
_geom_bond_distance
_geom_bond_site_symmetry_2
_ccdc_geom_bond_type
C0 C1 1.351 . S
C0 N3 1.368 . S
C0 H5 0.931 . S
C1 C0 1.351 . S
C1 N2 1.373 1_556 S
C1 H29 0.930 . S
N2 C1 1.373 1_554 S
N2 C4 1.340 . S
N3 C0 1.368 . S
N3 C4 1.321 1_556 S
N3 Co6 2.135 . S
C4 N2 1.340 . S
C4 N3 1.321 1_554 S
C4 H28 0.930 . S
H5 C0 0.931 . S
Co6 N3 2.135 . S
Co6 N9 2.121 . S
Co6 O14 2.055 . S
Co6 O17 2.039 . S
Co6 N20 2.140 1_556 S
C7 O8 1.227 . S
C7 O17 1.265 1_554 S
O8 C7 1.227 . S
N9 Co6 2.121 . S
N9 C11 1.375 1_556 S
N9 C12 1.313 . S
C10 C11 1.338 . S
C10 N13 1.377 1_554 S
C10 H30 0.930 . S
C11 N9 1.375 1_554 S
C11 C10 1.338 . S
C11 H15 0.931 . S
C12 N9 1.313 . S
C12 N13 1.344 . S
C12 H16 0.930 . S
N13 C10 1.377 1_556 S
N13 C12 1.344 . S
O14 Co6 2.055 . S
O14 C18 1.253 . S
H15 C11 0.931 . S
H16 C12 0.930 . S
O17 Co6 2.039 . S
O17 C7 1.265 1_556 S
C18 O14 1.253 . S
C18 O19 1.227 . S
O19 C18 1.227 . S
N20 Co6 2.140 1_554 S
N20 C23 1.346 . S
N20 C24 1.345 . S
C21 C22 1.387 . S
C21 C25 1.391 . S
C22 C21 1.387 . S
C22 C23 1.369 . S
C22 H31 0.929 . S
C23 N20 1.346 . S
C23 C22 1.369 . S
C23 H26 0.928 . S
C24 N20 1.345 . S
C24 C25 1.371 . S
C24 H27 0.931 . S
C25 C21 1.391 . S
C25 C24 1.371 . S
C25 H32 0.930 . S
H26 C23 0.928 . S
H27 C24 0.931 . S
H28 C4 0.930 . S
H29 C1 0.930 . S
H30 C10 0.930 . S
H31 C22 0.929 . S
H32 C25 0.930 . S
C33 C34 1.351 . S
C33 N36 1.368 . S
C33 H38 0.931 . S
C34 C33 1.351 . S
C34 N35 1.373 . S
C34 H62 0.930 . S
N35 C34 1.373 . S
N35 C37 1.340 . S
N36 C33 1.368 . S
N36 C37 1.321 . S
N36 Co39 2.135 . S
C37 N35 1.340 . S
C37 N36 1.321 . S
C37 H61 0.930 1_565 S
H38 C33 0.931 . S
Co39 N36 2.135 . S
Co39 N42 2.121 . S
Co39 O47 2.055 . S
Co39 O50 2.039 . S
Co39 N53 2.140 . S
C40 O41 1.227 . S
C40 O50 1.265 . S
O41 C40 1.227 . S
N42 Co39 2.121 . S
N42 C44 1.375 . S
N42 C45 1.313 . S
C43 C44 1.338 . S
C43 N46 1.377 . S
C43 H63 0.930 . S
C44 N42 1.375 . S
C44 C43 1.338 . S
C44 H48 0.931 . S
C45 N42 1.313 . S
C45 N46 1.344 . S
C45 H49 0.930 . S
N46 C43 1.377 . S
N46 C45 1.344 . S
O47 Co39 2.055 . S
O47 C51 1.253 . S
H48 C44 0.931 . S
H49 C45 0.930 . S
O50 Co39 2.039 . S
O50 C40 1.265 . S
C51 O47 1.253 . S
C51 O52 1.227 . S
O52 C51 1.227 . S
N53 Co39 2.140 . S
N53 C56 1.346 . S
N53 C57 1.345 . S
C54 C55 1.387 . S
C54 C58 1.391 . S
C55 C54 1.387 . S
C55 C56 1.369 . S
C55 H64 0.929 . S
C56 N53 1.346 . S
C56 C55 1.369 . S
C56 H59 0.928 . S
C57 N53 1.345 . S
C57 C58 1.371 . S
C57 H60 0.931 . S
C58 C54 1.391 . S
C58 C57 1.371 . S
C58 H65 0.930 . S
H59 C56 0.928 . S
H60 C57 0.931 . S
H61 C37 0.930 1_545 S
H62 C34 0.930 . S
H63 C43 0.930 . S
H64 C55 0.929 . S
H65 C58 0.930 . S
C66 C67 1.351 . S
C66 N69 1.368 . S
C66 H71 0.931 . S
C67 C66 1.351 . S
C67 N68 1.373 . S
C67 H95 0.930 . S
N68 C67 1.373 . S
N68 C70 1.340 . S
N69 C66 1.368 . S
N69 C70 1.321 . S
N69 Co72 2.135 . S
C70 N68 1.340 . S
C70 N69 1.321 . S
C70 H94 0.930 . S
H71 C66 0.931 . S
Co72 N69 2.135 . S
Co72 N75 2.121 . S
Co72 O80 2.055 . S
Co72 O83 2.039 . S
Co72 N86 2.140 . S
C73 O74 1.227 . S
C73 O83 1.265 . S
O74 C73 1.227 . S
N75 Co72 2.121 . S
N75 C77 1.375 . S
N75 C78 1.313 . S
C76 C77 1.338 . S
C76 N79 1.377 . S
C76 H96 0.930 . S
C77 N75 1.375 . S
C77 C76 1.338 . S
C77 H81 0.931 . S
C78 N75 1.313 . S
C78 N79 1.344 . S
C78 H82 0.930 . S
N79 C76 1.377 . S
N79 C78 1.344 . S
O80 Co72 2.055 . S
O80 C84 1.253 . S
H81 C77 0.931 . S
H82 C78 0.930 . S
O83 Co72 2.039 . S
O83 C73 1.265 . S
C84 O80 1.253 . S
C84 O85 1.227 . S
O85 C84 1.227 . S
N86 Co72 2.140 . S
N86 C89 1.346 . S
N86 C90 1.345 . S
C87 C88 1.387 . S
C87 C91 1.391 . S
C88 C87 1.387 . S
C88 C89 1.369 . S
C88 H97 0.929 . S
C89 N86 1.346 . S
C89 C88 1.369 . S
C89 H92 0.928 . S
C90 N86 1.345 . S
C90 C91 1.371 . S
C90 H93 0.931 . S
C91 C87 1.391 . S
C91 C90 1.371 . S
C91 H98 0.930 . S
H92 C89 0.928 . S
H93 C90 0.931 . S
H94 C70 0.930 . S
H95 C67 0.930 . S
H96 C76 0.930 . S
H97 C88 0.929 . S
H98 C91 0.930 . S
C99 C100 1.351 . S
C99 N102 1.368 . S
C99 H104 0.931 . S
C100 C99 1.351 . S
C100 N101 1.373 . S
C100 H128 0.930 . S
N101 C100 1.373 . S
N101 C103 1.340 . S
N102 C99 1.368 . S
N102 C103 1.321 . S
N102 Co105 2.135 . S
C103 N101 1.340 . S
C103 N102 1.321 . S
C103 H127 0.930 1_545 S
H104 C99 0.931 . S
Co105 N102 2.135 . S
Co105 N108 2.121 . S
Co105 O113 2.055 . S
Co105 O116 2.039 . S
Co105 N119 2.140 . S
C106 O107 1.227 . S
C106 O116 1.265 . S
O107 C106 1.227 . S
N108 Co105 2.121 . S
N108 C110 1.375 . S
N108 C111 1.313 . S
C109 C110 1.338 . S
C109 N112 1.377 . S
C109 H129 0.930 . S
C110 N108 1.375 . S
C110 C109 1.338 . S
C110 H114 0.931 . S
C111 N108 1.313 . S
C111 N112 1.344 . S
C111 H115 0.930 . S
N112 C109 1.377 . S
N112 C111 1.344 . S
O113 Co105 2.055 . S
O113 C117 1.253 . S
H114 C110 0.931 . S
H115 C111 0.930 . S
O116 Co105 2.039 . S
O116 C106 1.265 . S
C117 O113 1.253 . S
C117 O118 1.227 . S
O118 C117 1.227 . S
N119 Co105 2.140 . S
N119 C122 1.346 . S
N119 C123 1.345 . S
C120 C121 1.387 . S
C120 C124 1.391 . S
C121 C120 1.387 . S
C121 C122 1.369 . S
C121 H130 0.929 . S
C122 N119 1.346 . S
C122 C121 1.369 . S
C122 H125 0.928 . S
C123 N119 1.345 . S
C123 C124 1.371 . S
C123 H126 0.931 . S
C124 C120 1.391 . S
C124 C123 1.371 . S
C124 H131 0.930 . S
H125 C122 0.928 . S
H126 C123 0.931 . S
H127 C103 0.930 1_565 S
H128 C100 0.930 . S
H129 C109 0.930 . S
H130 C121 0.929 . S
H131 C124 0.930 . S
C132 C133 1.351 . S
C132 N135 1.368 . S
C132 H137 0.931 . S
C133 C132 1.351 . S
C133 N134 1.373 . S
C133 H161 0.930 . S
N134 C133 1.373 . S
N134 C136 1.340 . S
N135 C132 1.368 . S
N135 C136 1.321 . S
N135 Co138 2.135 . S
C136 N134 1.340 . S
C136 N135 1.321 . S
C136 H160 0.930 1_655 S
H137 C132 0.931 . S
Co138 N135 2.135 . S
Co138 N141 2.121 . S
Co138 O146 2.055 . S
Co138 O149 2.039 . S
Co138 N152 2.140 . S
C139 O140 1.227 . S
C139 O149 1.265 . S
O140 C139 1.227 . S
N141 Co138 2.121 . S
N141 C143 1.375 . S
N141 C144 1.313 . S
C142 C143 1.338 . S
C142 N145 1.377 . S
C142 H162 0.930 . S
C143 N141 1.375 . S
C143 C142 1.338 . S
C143 H147 0.931 . S
C144 N141 1.313 . S
C144 N145 1.344 . S
C144 H148 0.930 . S
N145 C142 1.377 . S
N145 C144 1.344 . S
O146 Co138 2.055 . S
O146 C150 1.253 . S
H147 C143 0.931 . S
H148 C144 0.930 . S
O149 Co138 2.039 . S
O149 C139 1.265 . S
C150 O146 1.253 . S
C150 O151 1.227 . S
O151 C150 1.227 . S
N152 Co138 2.140 . S
N152 C155 1.346 . S
N152 C156 1.345 . S
C153 C154 1.387 . S
C153 C157 1.391 . S
C154 C153 1.387 . S
C154 C155 1.369 . S
C154 H163 0.929 . S
C155 N152 1.346 . S
C155 C154 1.369 . S
C155 H158 0.928 . S
C156 N152 1.345 . S
C156 C157 1.371 . S
C156 H159 0.931 . S
C157 C153 1.391 . S
C157 C156 1.371 . S
C157 H164 0.930 . S
H158 C155 0.928 . S
H159 C156 0.931 . S
H160 C136 0.930 1_455 S
H161 C133 0.930 . S
H162 C142 0.930 . S
H163 C154 0.929 . S
H164 C157 0.930 . S
C165 C166 1.351 . S
C165 N168 1.368 . S
C165 H170 0.931 . S
C166 C165 1.351 . S
C166 N167 1.373 . S
C166 H194 0.930 . S
N167 C166 1.373 . S
N167 C169 1.340 . S
N168 C165 1.368 . S
N168 C169 1.321 . S
N168 Co171 2.135 . S
C169 N167 1.340 . S
C169 N168 1.321 . S
C169 H193 0.930 . S
H170 C165 0.931 . S
Co171 N168 2.135 . S
Co171 N174 2.121 . S
Co171 O179 2.055 . S
Co171 O182 2.039 . S
Co171 N185 2.140 1_554 S
C172 O173 1.227 1_554 S
C172 O182 1.265 . S
O173 C172 1.227 1_556 S
N174 Co171 2.121 . S
N174 C176 1.375 . S
N174 C177 1.313 . S
C175 C176 1.338 . S
C175 N178 1.377 . S
C175 H195 0.930 . S
C176 N174 1.375 . S
C176 C175 1.338 . S
C176 H180 0.931 1_554 S
C177 N174 1.313 . S
C177 N178 1.344 . S
C177 H181 0.930 . S
N178 C175 1.377 . S
N178 C177 1.344 . S
O179 Co171 2.055 . S
O179 C183 1.253 . S
H180 C176 0.931 1_556 S
H181 C177 0.930 . S
O182 Co171 2.039 . S
O182 C172 1.265 . S
C183 O179 1.253 . S
C183 O184 1.227 . S
O184 C183 1.227 . S
N185 Co171 2.140 1_556 S
N185 C188 1.346 . S
N185 C189 1.345 . S
C186 C187 1.387 . S
C186 C190 1.391 . S
C187 C186 1.387 . S
C187 C188 1.369 . S
C187 H196 0.929 . S
C188 N185 1.346 . S
C188 C187 1.369 . S
C188 H191 0.928 . S
C189 N185 1.345 . S
C189 C190 1.371 . S
C189 H192 0.931 1_556 S
C190 C186 1.391 . S
C190 C189 1.371 . S
C190 H197 0.930 . S
H191 C188 0.928 . S
H192 C189 0.931 1_554 S
H193 C169 0.930 . S
H194 C166 0.930 . S
H195 C175 0.930 . S
H196 C187 0.929 . S
H197 C190 0.930 . S
C198 C199 1.351 . S
C198 N201 1.368 . S
C198 H203 0.931 . S
C199 C198 1.351 . S
C199 N200 1.373 . S
C199 H227 0.930 . S
N200 C199 1.373 . S
N200 C202 1.340 . S
N201 C198 1.368 . S
N201 C202 1.321 . S
N201 Co204 2.135 . S
C202 N200 1.340 . S
C202 N201 1.321 . S
C202 H226 0.930 1_455 S
H203 C198 0.931 . S
Co204 N201 2.135 . S
Co204 N207 2.121 . S
Co204 O212 2.055 . S
Co204 O215 2.039 . S
Co204 N218 2.140 . S
C205 O206 1.227 . S
C205 O215 1.265 . S
O206 C205 1.227 . S
N207 Co204 2.121 . S
N207 C209 1.375 . S
N207 C210 1.313 . S
C208 C209 1.338 . S
C208 N211 1.377 . S
C208 H228 0.930 . S
C209 N207 1.375 . S
C209 C208 1.338 . S
C209 H213 0.931 . S
C210 N207 1.313 . S
C210 N211 1.344 . S
C210 H214 0.930 . S
N211 C208 1.377 . S
N211 C210 1.344 . S
O212 Co204 2.055 . S
O212 C216 1.253 . S
H213 C209 0.931 . S
H214 C210 0.930 . S
O215 Co204 2.039 . S
O215 C205 1.265 . S
C216 O212 1.253 . S
C216 O217 1.227 . S
O217 C216 1.227 . S
N218 Co204 2.140 . S
N218 C221 1.346 . S
N218 C222 1.345 . S
C219 C220 1.387 . S
C219 C223 1.391 . S
C220 C219 1.387 . S
C220 C221 1.369 . S
C220 H229 0.929 . S
C221 N218 1.346 . S
C221 C220 1.369 . S
C221 H224 0.928 . S
C222 N218 1.345 . S
C222 C223 1.371 . S
C222 H225 0.931 . S
C223 C219 1.391 . S
C223 C222 1.371 . S
C223 H230 0.930 . S
H224 C221 0.928 . S
H225 C222 0.931 . S
H226 C202 0.930 1_655 S
H227 C199 0.930 . S
H228 C208 0.930 . S
H229 C220 0.929 . S
H230 C223 0.930 . S
C231 C232 1.351 . S
C231 N234 1.368 . S
C231 H236 0.931 . S
C232 C231 1.351 . S
C232 N233 1.373 . S
C232 H260 0.930 . S
N233 C232 1.373 . S
N233 C235 1.340 . S
N234 C231 1.368 . S
N234 C235 1.321 . S
N234 Co237 2.135 . S
C235 N233 1.340 . S
C235 N234 1.321 . S
C235 H259 0.930 . S
H236 C231 0.931 . S
Co237 N234 2.135 . S
Co237 N240 2.121 . S
Co237 O245 2.055 . S
Co237 O248 2.039 . S
Co237 N251 2.140 . S
C238 O239 1.227 . S
C238 O248 1.265 . S
O239 C238 1.227 . S
N240 Co237 2.121 . S
N240 C242 1.375 . S
N240 C243 1.313 . S
C241 C242 1.338 . S
C241 N244 1.377 . S
C241 H261 0.930 . S
C242 N240 1.375 . S
C242 C241 1.338 . S
C242 H246 0.931 . S
C243 N240 1.313 . S
C243 N244 1.344 . S
C243 H247 0.930 . S
N244 C241 1.377 . S
N244 C243 1.344 . S
O245 Co237 2.055 . S
O245 C249 1.253 . S
H246 C242 0.931 . S
H247 C243 0.930 . S
O248 Co237 2.039 . S
O248 C238 1.265 . S
C249 O245 1.253 . S
C249 O250 1.227 . S
O250 C249 1.227 . S
N251 Co237 2.140 . S
N251 C254 1.346 . S
N251 C255 1.345 . S
C252 C253 1.387 . S
C252 C256 1.391 . S
C253 C252 1.387 . S
C253 C254 1.369 . S
C253 H262 0.929 . S
C254 N251 1.346 . S
C254 C253 1.369 . S
C254 H257 0.928 . S
C255 N251 1.345 . S
C255 C256 1.371 . S
C255 H258 0.931 . S
C256 C252 1.391 . S
C256 C255 1.371 . S
C256 H263 0.930 . S
H257 C254 0.928 . S
H258 C255 0.931 . S
H259 C235 0.930 . S
H260 C232 0.930 . S
H261 C241 0.930 . S
H262 C253 0.929 . S
H263 C256 0.930 . S
H264 C276 0.930 . S
H265 C278 0.930 . S
H266 C279 0.930 . S
H267 C283 0.959 . S
H268 C283 0.959 . S
H269 C283 0.961 . S
H270 C284 0.960 . S
H271 C284 0.961 . S
H272 C284 0.959 . S
H273 C287 0.929 . S
H274 C288 0.931 . S
H275 C290 0.930 . S
C276 H264 0.930 . S
C276 C277 1.399 . S
C276 C281 1.399 . S
C277 C276 1.399 . S
C277 C278 1.376 1_554 S
C278 H265 0.930 . S
C278 C277 1.376 1_556 S
C278 C279 1.388 . S
C279 H266 0.930 . S
C279 C278 1.388 . S
C279 C280 1.397 . S
C280 C279 1.397 . S
C280 C281 1.385 1_556 S
C280 C286 1.465 . S
C281 C276 1.399 . S
C281 C280 1.385 1_554 S
C281 C282 1.516 . S
C282 C281 1.516 . S
C282 C283 1.502 . S
C282 C284 1.561 . S
C282 C285 1.526 . S
C283 H267 0.959 . S
C283 H268 0.959 . S
C283 H269 0.961 . S
C283 C282 1.502 . S
C284 H270 0.960 . S
C284 H271 0.961 . S
C284 H272 0.959 . S
C284 C282 1.561 . S
C285 C282 1.526 . S
C285 C286 1.396 1_554 S
C285 C290 1.390 . S
C286 C280 1.465 . S
C286 C285 1.396 1_556 S
C286 C287 1.399 . S
C287 H273 0.929 . S
C287 C286 1.399 . S
C287 C288 1.385 . S
C288 H274 0.931 . S
C288 C287 1.385 . S
C288 C289 1.389 1_556 S
C289 C288 1.389 1_554 S
C289 C290 1.387 . S
C290 H275 0.930 . S
C290 C285 1.390 . S
C290 C289 1.387 . S
H291 C303 0.930 . S
H292 C305 0.930 . S
H293 C306 0.930 . S
H294 C310 0.959 . S
H295 C310 0.959 . S
H296 C310 0.961 . S
H297 C311 0.960 . S
H298 C311 0.961 . S
H299 C311 0.959 . S
H300 C314 0.929 . S
H301 C315 0.931 . S
H302 C317 0.930 . S
C303 H291 0.930 . S
C303 C304 1.399 . S
C303 C308 1.399 . S
C304 C303 1.399 . S
C304 C305 1.376 . S
C305 H292 0.930 . S
C305 C304 1.376 . S
C305 C306 1.388 . S
C306 H293 0.930 . S
C306 C305 1.388 . S
C306 C307 1.390 . S
C307 C306 1.390 . S
C307 C308 1.394 . S
C307 C313 1.465 . S
C308 C303 1.399 . S
C308 C307 1.394 . S
C308 C309 1.516 . S
C309 C308 1.516 . S
C309 C310 1.502 . S
C309 C311 1.561 . S
C309 C312 1.526 . S
C310 H294 0.959 . S
C310 H295 0.959 . S
C310 H296 0.961 . S
C310 C309 1.502 . S
C311 H297 0.960 . S
C311 H298 0.961 . S
C311 H299 0.959 . S
C311 C309 1.561 . S
C312 C309 1.526 . S
C312 C313 1.396 . S
C312 C317 1.390 . S
C313 C307 1.465 . S
C313 C312 1.396 . S
C313 C314 1.399 . S
C314 H300 0.929 . S
C314 C313 1.399 . S
C314 C315 1.385 . S
C315 H301 0.931 . S
C315 C314 1.385 . S
C315 C316 1.389 . S
C316 C315 1.389 . S
C316 C317 1.387 . S
C317 H302 0.930 . S
C317 C312 1.390 . S
C317 C316 1.387 . S
H318 C330 0.930 . S
H319 C332 0.930 . S
H320 C333 0.930 . S
H321 C337 0.959 . S
H322 C337 0.959 . S
H323 C337 0.961 . S
H324 C338 0.960 . S
H325 C338 0.961 . S
H326 C338 0.959 . S
H327 C341 0.929 . S
H328 C342 0.931 . S
H329 C344 0.930 . S
C330 H318 0.930 . S
C330 C331 1.399 . S
C330 C335 1.399 . S
C331 C330 1.399 . S
C331 C332 1.376 . S
C332 H319 0.930 . S
C332 C331 1.376 . S
C332 C333 1.388 . S
C333 H320 0.930 . S
C333 C332 1.388 . S
C333 C334 1.390 . S
C334 C333 1.390 . S
C334 C335 1.394 . S
C334 C340 1.465 . S
C335 C330 1.399 . S
C335 C334 1.394 . S
C335 C336 1.516 . S
C336 C335 1.516 . S
C336 C337 1.502 . S
C336 C338 1.561 . S
C336 C339 1.526 . S
C337 H321 0.959 . S
C337 H322 0.959 . S
C337 H323 0.961 . S
C337 C336 1.502 . S
C338 H324 0.960 . S
C338 H325 0.961 . S
C338 H326 0.959 . S
C338 C336 1.561 . S
C339 C336 1.526 . S
C339 C340 1.396 . S
C339 C344 1.390 . S
C340 C334 1.465 . S
C340 C339 1.396 . S
C340 C341 1.399 . S
C341 H327 0.929 . S
C341 C340 1.399 . S
C341 C342 1.385 . S
C342 H328 0.931 . S
C342 C341 1.385 . S
C342 C343 1.389 . S
C343 C342 1.389 . S
C343 C344 1.387 . S
C344 H329 0.930 . S
C344 C339 1.390 . S
C344 C343 1.387 . S
H345 C357 0.930 . S
H346 C359 0.930 . S
H347 C360 0.930 . S
H348 C364 0.959 . S
H349 C364 0.959 . S
H350 C364 0.961 . S
H351 C365 0.960 . S
H352 C365 0.961 . S
H353 C365 0.959 . S
H354 C368 0.929 . S
H355 C369 0.931 . S
H356 C371 0.930 . S
C357 H345 0.930 . S
C357 C358 1.399 . S
C357 C362 1.399 . S
C358 C357 1.399 . S
C358 C359 1.376 . S
C359 H346 0.930 . S
C359 C358 1.376 . S
C359 C360 1.388 . S
C360 H347 0.930 . S
C360 C359 1.388 . S
C360 C361 1.390 . S
C361 C360 1.390 . S
C361 C362 1.394 . S
C361 C367 1.465 . S
C362 C357 1.399 . S
C362 C361 1.394 . S
C362 C363 1.516 . S
C363 C362 1.516 . S
C363 C364 1.502 . S
C363 C365 1.561 . S
C363 C366 1.526 . S
C364 H348 0.959 . S
C364 H349 0.959 . S
C364 H350 0.961 . S
C364 C363 1.502 . S
C365 H351 0.960 . S
C365 H352 0.961 . S
C365 H353 0.959 . S
C365 C363 1.561 . S
C366 C363 1.526 . S
C366 C367 1.396 . S
C366 C371 1.390 . S
C367 C361 1.465 . S
C367 C366 1.396 . S
C367 C368 1.399 . S
C368 H354 0.929 . S
C368 C367 1.399 . S
C368 C369 1.385 . S
C369 H355 0.931 . S
C369 C368 1.385 . S
C369 C370 1.389 . S
C370 C369 1.389 . S
C370 C371 1.387 . S
C371 H356 0.930 . S
C371 C366 1.390 . S
C371 C370 1.387 . S
H372 C384 0.930 . S
H373 C386 0.930 . S
H374 C387 0.930 . S
H375 C391 0.959 . S
H376 C391 0.959 . S
H377 C391 0.961 . S
H378 C392 0.960 . S
H379 C392 0.961 . S
H380 C392 0.959 . S
H381 C395 0.929 . S
H382 C396 0.931 . S
H383 C398 0.930 . S
C384 H372 0.930 . S
C384 C385 1.399 . S
C384 C389 1.399 . S
C385 C384 1.399 . S
C385 C386 1.376 . S
C386 H373 0.930 . S
C386 C385 1.376 . S
C386 C387 1.388 . S
C387 H374 0.930 . S
C387 C386 1.388 . S
C387 C388 1.390 . S
C388 C387 1.390 . S
C388 C389 1.394 . S
C388 C394 1.465 . S
C389 C384 1.399 . S
C389 C388 1.394 . S
C389 C390 1.516 . S
C390 C389 1.516 . S
C390 C391 1.502 . S
C390 C392 1.561 . S
C390 C393 1.526 . S
C391 H375 0.959 . S
C391 H376 0.959 . S
C391 H377 0.961 . S
C391 C390 1.502 . S
C392 H378 0.960 . S
C392 H379 0.961 . S
C392 H380 0.959 . S
C392 C390 1.561 . S
C393 C390 1.526 . S
C393 C394 1.396 . S
C393 C398 1.390 . S
C394 C388 1.465 . S
C394 C393 1.396 . S
C394 C395 1.399 . S
C395 H381 0.929 . S
C395 C394 1.399 . S
C395 C396 1.385 . S
C396 H382 0.931 . S
C396 C395 1.385 . S
C396 C397 1.389 . S
C397 C396 1.389 . S
C397 C398 1.387 . S
C398 H383 0.930 . S
C398 C393 1.390 . S
C398 C397 1.387 . S
H399 C411 0.930 . S
H400 C413 0.930 . S
H401 C414 0.930 . S
H402 C418 0.959 . S
H403 C418 0.959 . S
H404 C418 0.961 . S
H405 C419 0.960 . S
H406 C419 0.961 . S
H407 C419 0.959 . S
H408 C422 0.929 . S
H409 C423 0.931 . S
H410 C425 0.930 . S
C411 H399 0.930 . S
C411 C412 1.399 . S
C411 C416 1.399 . S
C412 C411 1.399 . S
C412 C413 1.376 . S
C413 H400 0.930 . S
C413 C412 1.376 . S
C413 C414 1.388 . S
C414 H401 0.930 . S
C414 C413 1.388 . S
C414 C415 1.390 . S
C415 C414 1.390 . S
C415 C416 1.394 . S
C415 C421 1.465 . S
C416 C411 1.399 . S
C416 C415 1.394 . S
C416 C417 1.516 . S
C417 C416 1.516 . S
C417 C418 1.502 . S
C417 C419 1.561 . S
C417 C420 1.526 . S
C418 H402 0.959 . S
C418 H403 0.959 . S
C418 H404 0.961 . S
C418 C417 1.502 . S
C419 H405 0.960 . S
C419 H406 0.961 . S
C419 H407 0.959 . S
C419 C417 1.561 . S
C420 C417 1.526 . S
C420 C421 1.396 . S
C420 C425 1.390 . S
C421 C415 1.465 . S
C421 C420 1.396 . S
C421 C422 1.399 . S
C422 H408 0.929 . S
C422 C421 1.399 . S
C422 C423 1.385 . S
C423 H409 0.931 . S
C423 C422 1.385 . S
C423 C424 1.389 . S
C424 C423 1.389 . S
C424 C425 1.387 . S
C425 H410 0.930 . S
C425 C420 1.390 . S
C425 C424 1.387 . S
H426 C438 0.930 . S
H427 C440 0.930 . S
H428 C441 0.930 . S
H429 C445 0.959 . S
H430 C445 0.959 . S
H431 C445 0.961 . S
H432 C446 0.960 . S
H433 C446 0.961 . S
H434 C446 0.959 . S
H435 C449 0.929 . S
H436 C450 0.931 . S
H437 C452 0.930 . S
C438 H426 0.930 . S
C438 C439 1.399 . S
C438 C443 1.399 . S
C439 C438 1.399 . S
C439 C440 1.376 . S
C440 H427 0.930 . S
C440 C439 1.376 . S
C440 C441 1.388 . S
C441 H428 0.930 . S
C441 C440 1.388 . S
C441 C442 1.390 . S
C442 C441 1.390 . S
C442 C443 1.394 . S
C442 C448 1.465 . S
C443 C438 1.399 . S
C443 C442 1.394 . S
C443 C444 1.516 . S
C444 C443 1.516 . S
C444 C445 1.502 . S
C444 C446 1.561 . S
C444 C447 1.526 . S
C445 H429 0.959 . S
C445 H430 0.959 . S
C445 H431 0.961 . S
C445 C444 1.502 . S
C446 H432 0.960 . S
C446 H433 0.961 . S
C446 H434 0.959 . S
C446 C444 1.561 . S
C447 C444 1.526 . S
C447 C448 1.396 . S
C447 C452 1.390 . S
C448 C442 1.465 . S
C448 C447 1.396 . S
C448 C449 1.399 . S
C449 H435 0.929 . S
C449 C448 1.399 . S
C449 C450 1.385 . S
C450 H436 0.931 . S
C450 C449 1.385 . S
C450 C451 1.389 . S
C451 C450 1.389 . S
C451 C452 1.387 . S
C452 H437 0.930 . S
C452 C447 1.390 . S
C452 C451 1.387 . S
H453 C465 0.930 . S
H454 C467 0.930 . S
H455 C468 0.919 1_554 S
H456 C472 0.959 . S
H457 C472 0.959 . S
H458 C472 0.961 . S
H459 C473 0.960 . S
H460 C473 0.961 . S
H461 C473 0.959 . S
H462 C476 0.929 . S
H463 C477 0.931 . S
H464 C479 0.930 . S
C465 H453 0.930 . S
C465 C466 1.399 . S
C465 C470 1.399 . S
C466 C465 1.399 . S
C466 C467 1.376 . S
C467 H454 0.930 . S
C467 C466 1.376 . S
C467 C468 1.402 . S
C468 H455 0.919 1_556 S
C468 C467 1.402 . S
C468 C469 1.388 1_556 S
C469 C468 1.388 1_554 S
C469 C470 1.394 1_554 S
C469 C475 1.465 . S
C470 C465 1.399 . S
C470 C469 1.394 1_556 S
C470 C471 1.516 . S
C471 C470 1.516 . S
C471 C472 1.502 . S
C471 C473 1.561 . S
C471 C474 1.526 1_556 S
C472 H456 0.959 . S
C472 H457 0.959 . S
C472 H458 0.961 . S
C472 C471 1.502 . S
C473 H459 0.960 . S
C473 H460 0.961 . S
C473 H461 0.959 . S
C473 C471 1.561 . S
C474 C471 1.526 1_554 S
C474 C475 1.396 . S
C474 C479 1.390 . S
C475 C469 1.465 . S
C475 C474 1.396 . S
C475 C476 1.399 . S
C476 H462 0.929 . S
C476 C475 1.399 . S
C476 C477 1.385 . S
C477 H463 0.931 . S
C477 C476 1.385 . S
C477 C478 1.389 . S
C478 C477 1.389 . S
C478 C479 1.387 . S
C479 H464 0.930 . S
C479 C474 1.390 . S
C479 C478 1.387 . S
H480 C492 0.930 . S
H481 C494 0.930 . S
H482 C495 0.930 . S
H483 C499 0.959 . S
H484 C499 0.959 . S
H485 C499 0.961 . S
H486 C500 0.960 . S
H487 C500 0.961 . S
H488 C500 0.959 . S
H489 C503 0.929 . S
H490 C504 0.931 . S
H491 C506 0.930 . S
C492 H480 0.930 . S
C492 C493 1.399 . S
C492 C497 1.399 . S
C493 C492 1.399 . S
C493 C494 1.376 . S
C494 H481 0.930 . S
C494 C493 1.376 . S
C494 C495 1.388 . S
C495 H482 0.930 . S
C495 C494 1.388 . S
C495 C496 1.390 . S
C496 C495 1.390 . S
C496 C497 1.394 . S
C496 C502 1.465 . S
C497 C492 1.399 . S
C497 C496 1.394 . S
C497 C498 1.516 . S
C498 C497 1.516 . S
C498 C499 1.502 . S
C498 C500 1.561 . S
C498 C501 1.526 . S
C499 H483 0.959 . S
C499 H484 0.959 . S
C499 H485 0.961 . S
C499 C498 1.502 . S
C500 H486 0.960 . S
C500 H487 0.961 . S
C500 H488 0.959 . S
C500 C498 1.561 . S
C501 C498 1.526 . S
C501 C502 1.396 . S
C501 C506 1.390 . S
C502 C496 1.465 . S
C502 C501 1.396 . S
C502 C503 1.399 . S
C503 H489 0.929 . S
C503 C502 1.399 . S
C503 C504 1.385 . S
C504 H490 0.931 . S
C504 C503 1.385 . S
C504 C505 1.389 . S
C505 C504 1.389 . S
C505 C506 1.387 . S
C506 H491 0.930 . S
C506 C501 1.390 . S
C506 C505 1.387 . S
H507 C519 0.930 . S
H508 C521 0.930 . S
H509 C522 0.930 . S
H510 C526 0.959 . S
H511 C526 0.959 . S
H512 C526 0.961 . S
H513 C527 0.960 . S
H514 C527 0.961 1_556 S
H515 C527 0.959 . S
H516 C530 0.929 . S
H517 C531 0.931 . S
H518 C533 0.930 . S
C519 H507 0.930 . S
C519 C520 1.399 . S
C519 C524 1.399 . S
C520 C519 1.399 . S
C520 C521 1.376 . S
C521 H508 0.930 . S
C521 C520 1.376 . S
C521 C522 1.388 . S
C522 H509 0.930 . S
C522 C521 1.388 . S
C522 C523 1.390 . S
C523 C522 1.390 . S
C523 C524 1.394 . S
C523 C529 1.465 . S
C524 C519 1.399 . S
C524 C523 1.394 . S
C524 C525 1.516 1_554 S
C525 C524 1.516 1_556 S
C525 C526 1.502 . S
C525 C527 1.561 1_556 S
C525 C528 1.526 . S
C526 H510 0.959 . S
C526 H511 0.959 . S
C526 H512 0.961 . S
C526 C525 1.502 . S
C527 H513 0.960 . S
C527 H514 0.961 1_554 S
C527 H515 0.959 . S
C527 C525 1.561 1_554 S
C528 C525 1.526 . S
C528 C529 1.396 1_556 S
C528 C533 1.390 . S
C529 C523 1.465 . S
C529 C528 1.396 1_554 S
C529 C530 1.399 . S
C530 H516 0.929 . S
C530 C529 1.399 . S
C530 C531 1.385 1_554 S
C531 H517 0.931 . S
C531 C530 1.385 1_556 S
C531 C532 1.389 . S
C532 C531 1.389 . S
C532 C533 1.387 . S
C533 H518 0.930 . S
C533 C528 1.390 . S
C533 C532 1.387 . S
H534 C546 0.930 . S
H535 C548 0.930 . S
H536 C549 0.930 . S
H537 C553 0.959 . S
H538 C553 0.959 . S
H539 C553 0.961 . S
H540 C554 0.960 . S
H541 C554 0.961 . S
H542 C554 0.959 . S
H543 C557 0.929 . S
H544 C558 0.931 . S
H545 C560 0.930 . S
C546 H534 0.930 . S
C546 C547 1.399 . S
C546 C551 1.399 . S
C547 C546 1.399 . S
C547 C548 1.376 . S
C548 H535 0.930 . S
C548 C547 1.376 . S
C548 C549 1.388 . S
C549 H536 0.930 . S
C549 C548 1.388 . S
C549 C550 1.390 . S
C550 C549 1.390 . S
C550 C551 1.394 . S
C550 C556 1.465 . S
C551 C546 1.399 . S
C551 C550 1.394 . S
C551 C552 1.516 . S
C552 C551 1.516 . S
C552 C553 1.502 . S
C552 C554 1.561 . S
C552 C555 1.526 . S
C553 H537 0.959 . S
C553 H538 0.959 . S
C553 H539 0.961 . S
C553 C552 1.502 . S
C554 H540 0.960 . S
C554 H541 0.961 . S
C554 H542 0.959 . S
C554 C552 1.561 . S
C555 C552 1.526 . S
C555 C556 1.396 . S
C555 C560 1.390 . S
C556 C550 1.465 . S
C556 C555 1.396 . S
C556 C557 1.399 . S
C557 H543 0.929 . S
C557 C556 1.399 . S
C557 C558 1.385 . S
C558 H544 0.931 . S
C558 C557 1.385 . S
C558 C559 1.389 . S
C559 C558 1.389 . S
C559 C560 1.387 . S
C560 H545 0.930 . S
C560 C555 1.390 . S
C560 C559 1.387 . S
H561 C573 0.930 . S
H562 C575 0.930 . S
H563 C576 0.930 . S
H564 C580 0.959 . S
H565 C580 0.959 . S
H566 C580 0.961 . S
H567 C581 0.960 . S
H568 C581 0.961 . S
H569 C581 0.959 . S
H570 C584 0.929 . S
H571 C585 0.931 . S
H572 C587 0.930 . S
C573 H561 0.930 . S
C573 C574 1.399 . S
C573 C578 1.399 . S
C574 C573 1.399 . S
C574 C575 1.376 . S
C575 H562 0.930 . S
C575 C574 1.376 . S
C575 C576 1.388 . S
C576 H563 0.930 . S
C576 C575 1.388 . S
C576 C577 1.390 . S
C577 C576 1.390 . S
C577 C578 1.394 . S
C577 C583 1.465 . S
C578 C573 1.399 . S
C578 C577 1.394 . S
C578 C579 1.516 . S
C579 C578 1.516 . S
C579 C580 1.502 . S
C579 C581 1.561 . S
C579 C582 1.526 . S
C580 H564 0.959 . S
C580 H565 0.959 . S
C580 H566 0.961 . S
C580 C579 1.502 . S
C581 H567 0.960 . S
C581 H568 0.961 . S
C581 H569 0.959 . S
C581 C579 1.561 . S
C582 C579 1.526 . S
C582 C583 1.396 . S
C582 C587 1.390 . S
C583 C577 1.465 . S
C583 C582 1.396 . S
C583 C584 1.399 . S
C584 H570 0.929 . S
C584 C583 1.399 . S
C584 C585 1.385 . S
C585 H571 0.931 . S
C585 C584 1.385 . S
C585 C586 1.389 . S
C586 C585 1.389 . S
C586 C587 1.387 . S
C587 H572 0.930 . S
C587 C582 1.390 . S
C587 C586 1.387 . S
H588 C600 0.930 . S
H589 C602 0.930 . S
H590 C603 0.930 . S
H591 C607 0.959 . S
H592 C607 0.959 . S
H593 C607 0.961 . S
H594 C608 0.960 . S
H595 C608 0.961 . S
H596 C608 0.959 . S
H597 C611 0.929 . S
H598 C612 0.931 . S
H599 C614 0.930 . S
C600 H588 0.930 . S
C600 C601 1.399 . S
C600 C605 1.399 . S
C601 C600 1.399 . S
C601 C602 1.376 . S
C602 H589 0.930 . S
C602 C601 1.376 . S
C602 C603 1.388 . S
C603 H590 0.930 . S
C603 C602 1.388 . S
C603 C604 1.390 . S
C604 C603 1.390 . S
C604 C605 1.394 . S
C604 C610 1.465 . S
C605 C600 1.399 . S
C605 C604 1.394 . S
C605 C606 1.516 . S
C606 C605 1.516 . S
C606 C607 1.502 . S
C606 C608 1.561 . S
C606 C609 1.526 . S
C607 H591 0.959 . S
C607 H592 0.959 . S
C607 H593 0.961 . S
C607 C606 1.502 . S
C608 H594 0.960 . S
C608 H595 0.961 . S
C608 H596 0.959 . S
C608 C606 1.561 . S
C609 C606 1.526 . S
C609 C610 1.396 . S
C609 C614 1.390 . S
C610 C604 1.465 . S
C610 C609 1.396 . S
C610 C611 1.399 . S
C611 H597 0.929 . S
C611 C610 1.399 . S
C611 C612 1.385 . S
C612 H598 0.931 . S
C612 C611 1.385 . S
C612 C613 1.389 . S
C613 C612 1.389 . S
C613 C614 1.387 . S
C614 H599 0.930 . S
C614 C609 1.390 . S
C614 C613 1.387 . S
H615 C627 0.930 . S
H616 C629 0.930 . S
H617 C630 0.930 . S
H618 C634 0.959 . S
H619 C634 0.959 . S
H620 C634 0.961 1_556 S
H621 C635 0.960 . S
H622 C635 0.961 . S
H623 C635 0.959 . S
H624 C638 0.929 . S
H625 C639 0.931 . S
H626 C641 0.930 . S
C627 H615 0.930 . S
C627 C628 1.399 . S
C627 C632 1.399 . S
C628 C627 1.399 . S
C628 C629 1.376 . S
C629 H616 0.930 . S
C629 C628 1.376 . S
C629 C630 1.388 . S
C630 H617 0.930 . S
C630 C629 1.388 . S
C630 C631 1.390 . S
C631 C630 1.390 . S
C631 C632 1.394 . S
C631 C637 1.465 . S
C632 C627 1.399 . S
C632 C631 1.394 . S
C632 C633 1.516 . S
C633 C632 1.516 . S
C633 C634 1.502 . S
C633 C635 1.561 . S
C633 C636 1.526 . S
C634 H618 0.959 . S
C634 H619 0.959 . S
C634 H620 0.961 1_554 S
C634 C633 1.502 . S
C635 H621 0.960 . S
C635 H622 0.961 . S
C635 H623 0.959 . S
C635 C633 1.561 . S
C636 C633 1.526 . S
C636 C637 1.396 . S
C636 C641 1.390 . S
C637 C631 1.465 . S
C637 C636 1.396 . S
C637 C638 1.399 . S
C638 H624 0.929 . S
C638 C637 1.399 . S
C638 C639 1.385 . S
C639 H625 0.931 . S
C639 C638 1.385 . S
C639 C640 1.389 . S
C640 C639 1.389 . S
C640 C641 1.387 . S
C641 H626 0.930 . S
C641 C636 1.390 . S
C641 C640 1.387 . S
H642 C654 0.930 . S
H643 C656 0.939 . S
H644 C657 0.930 . S
H645 C661 0.959 . S
H646 C661 0.959 . S
H647 C661 0.961 . S
H648 C662 0.960 . S
H649 C662 0.961 . S
H650 C662 0.959 . S
H651 C665 0.929 . S
H652 C666 0.931 . S
H653 C668 0.930 . S
C654 H642 0.930 . S
C654 C655 1.399 . S
C654 C659 1.399 . S
C655 C654 1.399 . S
C655 C656 1.376 . S
C656 H643 0.939 . S
C656 C655 1.376 . S
C656 C657 1.388 . S
C657 H644 0.930 . S
C657 C656 1.388 . S
C657 C658 1.390 . S
C658 C657 1.390 . S
C658 C659 1.394 . S
C658 C664 1.465 . S
C659 C654 1.399 . S
C659 C658 1.394 . S
C659 C660 1.516 . S
C660 C659 1.516 . S
C660 C661 1.502 . S
C660 C662 1.561 . S
C660 C663 1.526 . S
C661 H645 0.959 . S
C661 H646 0.959 . S
C661 H647 0.961 . S
C661 C660 1.502 . S
C662 H648 0.960 . S
C662 H649 0.961 . S
C662 H650 0.959 . S
C662 C660 1.561 . S
C663 C660 1.526 . S
C663 C664 1.396 . S
C663 C668 1.390 . S
C664 C658 1.465 . S
C664 C663 1.396 . S
C664 C665 1.399 . S
C665 H651 0.929 . S
C665 C664 1.399 . S
C665 C666 1.385 . S
C666 H652 0.931 . S
C666 C665 1.385 . S
C666 C667 1.389 . S
C667 C666 1.389 . S
C667 C668 1.387 . S
C668 H653 0.930 . S
C668 C663 1.390 . S
C668 C667 1.387 . S
H669 C681 0.930 . S
H670 C683 0.930 . S
H671 C684 0.930 . S
H672 C688 0.959 . S
H673 C688 0.959 . S
H674 C688 0.961 . S
H675 C689 0.960 . S
H676 C689 0.961 . S
H677 C689 0.959 . S
H678 C692 0.929 . S
H679 C693 0.931 . S
H680 C695 0.930 . S
C681 H669 0.930 . S
C681 C682 1.399 . S
C681 C686 1.399 . S
C682 C681 1.399 . S
C682 C683 1.376 . S
C683 H670 0.930 . S
C683 C682 1.376 . S
C683 C684 1.388 . S
C684 H671 0.930 . S
C684 C683 1.388 . S
C684 C685 1.390 . S
C685 C684 1.390 . S
C685 C686 1.394 . S
C685 C691 1.465 . S
C686 C681 1.399 . S
C686 C685 1.394 . S
C686 C687 1.516 . S
C687 C686 1.516 . S
C687 C688 1.502 . S
C687 C689 1.561 . S
C687 C690 1.526 . S
C688 H672 0.959 . S
C688 H673 0.959 . S
C688 H674 0.961 . S
C688 C687 1.502 . S
C689 H675 0.960 . S
C689 H676 0.961 . S
C689 H677 0.959 . S
C689 C687 1.561 . S
C690 C687 1.526 . S
C690 C691 1.396 . S
C690 C695 1.390 . S
C691 C685 1.465 . S
C691 C690 1.396 . S
C691 C692 1.399 . S
C692 H678 0.929 . S
C692 C691 1.399 . S
C692 C693 1.385 . S
C693 H679 0.931 . S
C693 C692 1.385 . S
C693 C694 1.389 . S
C694 C693 1.389 . S
C694 C695 1.387 . S
C695 H680 0.930 . S
C695 C690 1.390 . S
C695 C694 1.387 . S
H696 C708 0.930 . S
H697 C710 0.930 . S
H698 C711 0.930 . S
H699 C715 0.959 . S
H700 C715 0.959 . S
H701 C715 0.961 . S
H702 C716 0.960 . S
H703 C716 0.961 . S
H704 C716 0.959 . S
H705 C719 0.929 1_554 S
H706 C720 0.931 . S
H707 C722 0.930 . S
C708 H696 0.930 . S
C708 C709 1.399 . S
C708 C713 1.399 . S
C709 C708 1.399 . S
C709 C710 1.376 . S
C710 H697 0.930 . S
C710 C709 1.376 . S
C710 C711 1.388 . S
C711 H698 0.930 . S
C711 C710 1.388 . S
C711 C712 1.390 . S
C712 C711 1.390 . S
C712 C713 1.394 . S
C712 C718 1.465 . S
C713 C708 1.399 . S
C713 C712 1.394 . S
C713 C714 1.516 . S
C714 C713 1.516 . S
C714 C715 1.502 . S
C714 C716 1.561 . S
C714 C717 1.526 . S
C715 H699 0.959 . S
C715 H700 0.959 . S
C715 H701 0.961 . S
C715 C714 1.502 . S
C716 H702 0.960 . S
C716 H703 0.961 . S
C716 H704 0.959 . S
C716 C714 1.561 . S
C717 C714 1.526 . S
C717 C718 1.396 . S
C717 C722 1.390 . S
C718 C712 1.465 . S
C718 C717 1.396 . S
C718 C719 1.399 . S
C719 H705 0.929 1_556 S
C719 C718 1.399 . S
C719 C720 1.385 1_556 S
C720 H706 0.931 . S
C720 C719 1.385 1_554 S
C720 C721 1.389 1_554 S
C721 C720 1.389 1_556 S
C721 C722 1.387 . S
C722 H707 0.930 . S
C722 C717 1.390 . S
C722 C721 1.387 . S
H723 C735 0.930 . S
H724 C737 0.930 . S
H725 C738 0.930 . S
H726 C742 0.959 . S
H727 C742 0.959 . S
H728 C742 0.961 . S
H729 C743 0.960 . S
H730 C743 0.961 . S
H731 C743 0.959 . S
H732 C746 0.929 . S
H733 C747 0.931 . S
H734 C749 0.930 . S
C735 H723 0.930 . S
C735 C736 1.399 . S
C735 C740 1.399 . S
C736 C735 1.399 . S
C736 C737 1.376 . S
C737 H724 0.930 . S
C737 C736 1.376 . S
C737 C738 1.388 . S
C738 H725 0.930 . S
C738 C737 1.388 . S
C738 C739 1.390 . S
C739 C738 1.390 . S
C739 C740 1.394 . S
C739 C745 1.465 . S
C740 C735 1.399 . S
C740 C739 1.394 . S
C740 C741 1.516 . S
C741 C740 1.516 . S
C741 C742 1.502 . S
C741 C743 1.561 . S
C741 C744 1.526 . S
C742 H726 0.959 . S
C742 H727 0.959 . S
C742 H728 0.961 . S
C742 C741 1.502 . S
C743 H729 0.960 . S
C743 H730 0.961 . S
C743 H731 0.959 . S
C743 C741 1.561 . S
C744 C741 1.526 . S
C744 C745 1.396 . S
C744 C749 1.390 . S
C745 C739 1.465 . S
C745 C744 1.396 . S
C745 C746 1.399 . S
C746 H732 0.929 . S
C746 C745 1.399 . S
C746 C747 1.385 . S
C747 H733 0.931 . S
C747 C746 1.385 . S
C747 C748 1.389 . S
C748 C747 1.389 . S
C748 C749 1.387 . S
C749 H734 0.930 . S
C749 C744 1.390 . S
C749 C748 1.387 . S
H750 C762 0.930 . S
H751 C764 0.930 . S
H752 C765 0.930 . S
H753 C769 0.959 . S
H754 C769 0.959 . S
H755 C769 0.961 . S
H756 C770 0.960 . S
H757 C770 0.961 . S
H758 C770 0.959 . S
H759 C773 0.929 . S
H760 C774 0.931 . S
H761 C776 0.930 . S
C762 H750 0.930 . S
C762 C763 1.399 . S
C762 C767 1.399 . S
C763 C762 1.399 . S
C763 C764 1.376 . S
C764 H751 0.930 . S
C764 C763 1.376 . S
C764 C765 1.388 . S
C765 H752 0.930 . S
C765 C764 1.388 . S
C765 C766 1.390 . S
C766 C765 1.390 . S
C766 C767 1.394 . S
C766 C772 1.465 . S
C767 C762 1.399 . S
C767 C766 1.394 . S
C767 C768 1.516 . S
C768 C767 1.516 . S
C768 C769 1.502 . S
C768 C770 1.561 . S
C768 C771 1.526 . S
C769 H753 0.959 . S
C769 H754 0.959 . S
C769 H755 0.961 . S
C769 C768 1.502 . S
C770 H756 0.960 . S
C770 H757 0.961 . S
C770 H758 0.959 . S
C770 C768 1.561 . S
C771 C768 1.526 . S
C771 C772 1.396 . S
C771 C776 1.390 . S
C772 C766 1.465 . S
C772 C771 1.396 . S
C772 C773 1.399 . S
C773 H759 0.929 . S
C773 C772 1.399 . S
C773 C774 1.385 . S
C774 H760 0.931 . S
C774 C773 1.385 . S
C774 C775 1.389 . S
C775 C774 1.389 . S
C775 C776 1.387 . S
C776 H761 0.930 . S
C776 C771 1.390 . S
C776 C775 1.387 . S
H777 C789 0.930 . S
H778 C791 0.930 . S
H779 C792 0.930 . S
H780 C796 0.959 . S
H781 C796 0.959 . S
H782 C796 0.961 . S
H783 C797 0.960 . S
H784 C797 0.961 . S
H785 C797 0.959 . S
H786 C800 0.929 . S
H787 C801 0.953 . S
H788 C803 0.930 . S
C789 H777 0.930 . S
C789 C790 1.399 . S
C789 C794 1.399 . S
C790 C789 1.399 . S
C790 C791 1.376 . S
C791 H778 0.930 . S
C791 C790 1.376 . S
C791 C792 1.388 . S
C792 H779 0.930 . S
C792 C791 1.388 . S
C792 C793 1.390 . S
C793 C792 1.390 . S
C793 C794 1.394 . S
C793 C799 1.465 . S
C794 C789 1.399 . S
C794 C793 1.394 . S
C794 C795 1.516 . S
C795 C794 1.516 . S
C795 C796 1.502 . S
C795 C797 1.561 . S
C795 C798 1.526 . S
C796 H780 0.959 . S
C796 H781 0.959 . S
C796 H782 0.961 . S
C796 C795 1.502 . S
C797 H783 0.960 . S
C797 H784 0.961 . S
C797 H785 0.959 . S
C797 C795 1.561 . S
C798 C795 1.526 . S
C798 C799 1.396 . S
C798 C803 1.390 . S
C799 C793 1.465 . S
C799 C798 1.396 . S
C799 C800 1.399 . S
C800 H786 0.929 . S
C800 C799 1.399 . S
C800 C801 1.385 . S
C801 H787 0.953 . S
C801 C800 1.385 . S
C801 C802 1.389 . S
C802 C801 1.389 . S
C802 C803 1.387 . S
C803 H788 0.930 . S
C803 C798 1.390 . S
C803 C802 1.387 . S
C277 N167 1.293 . S
C289 N2 1.243 . S
C304 N200 1.218 1_655 S
C316 N35 1.299 1_545 S
C331 N68 1.298 . S
C343 N233 1.234 . S
C358 N134 1.216 1_455 S
C370 N101 1.285 1_565 S
C385 C252 0.912 . S
C397 C21 0.915 . S
C412 C54 0.915 . S
C424 C153 0.911 . S
C439 C186 0.876 . S
C451 C87 0.881 . S
C466 C120 0.882 . S
C478 C219 0.889 . S
C493 C249 1.560 . S
C505 C18 1.609 . S
C520 C51 1.559 . S
C532 C150 1.611 . S
C547 C183 1.557 . S
C559 C84 1.617 . S
C574 C216 1.563 . S
C586 C117 1.616 . S
C601 N13 1.638 . S
C613 C106 1.698 1_565 S
C628 C7 1.637 . S
C640 N46 1.680 . S
C655 C40 1.636 1_545 S
C667 N79 1.680 . S
C682 C73 1.632 . S
C694 N112 1.688 . S
C709 N145 1.682 . S
C721 C172 1.674 1_556 S
C736 C205 1.682 1_655 S
C748 N178 1.675 . S
C763 C238 1.689 . S
C775 N211 1.666 . S
C790 N244 1.638 . S
C802 C139 1.687 1_455 S
