# Generated by pormake.
# Topology bcu, (8)-cn, num edge types: 1
# Building blocks:
#     Node 0, Type 0, BuildingBlock: TAGTUT_clean_sbu_3, # of connection points: 8
#     Node 1, Type 0, BuildingBlock: TAGTUT_clean_sbu_3, # of connection points: 8
#     Edge 2, Type (0, 0), BuildingBlock: ZUJKAS_clean_linker_0, # of connection points: 2
#     Edge 3, Type (0, 0), BuildingBlock: ZUJKAS_clean_linker_0, # of connection points: 2
#     Edge 4, Type (0, 0), BuildingBlock: ZUJKAS_clean_linker_0, # of connection points: 2
#     Edge 5, Type (0, 0), BuildingBlock: ZUJKAS_clean_linker_0, # of connection points: 2
#     Edge 6, Type (0, 0), BuildingBlock: ZUJKAS_clean_linker_0, # of connection points: 2
#     Edge 7, Type (0, 0), BuildingBlock: ZUJKAS_clean_linker_0, # of connection points: 2
#     Edge 8, Type (0, 0), BuildingBlock: ZUJKAS_clean_linker_0, # of connection points: 2
#     Edge 9, Type (0, 0), BuildingBlock: ZUJKAS_clean_linker_0, # of connection points: 2
# Relax obj value: 0.016
# Max RMSD: 0.069
# Mean RMSD: 0.069
data_MOF--net-bcu--node1-TAGTUT_clean_sbu_3--edge1-ZUJKAS_clean_linker_0
_symmetry_space_group_name_H-M    P1
_symmetry_Int_Tables_number       1
_symmetry_cell_setting            triclinic
loop_
_symmetry_equiv_pos_as_xyz
'x, y, z'
_cell_length_a     24.398888
_cell_length_b     24.393562
_cell_length_c     26.939781
_cell_angle_alpha  91.294402
_cell_angle_beta   88.789403
_cell_angle_gamma 104.59087
loop_
_atom_site_label
_atom_site_type_symbol
_atom_site_fract_x
_atom_site_fract_y
_atom_site_fract_z
_atom_type_partial_charge
C0 C 0.09828 0.07917 0.05377 0.0
C1 C 0.1773 0.904 0.01918 0.0
C2 C 0.09971 0.89808 0.87503 0.0
Mg3 Mg 0.9904 0.11603 0.01089 0.0
Mg4 Mg 0.87649 0.01984 0.97889 0.0
O5 O 0.95458 0.04704 0.97001 0.0
Mg6 Mg 0.00749 -0.00169 -0.018 0.0
O7 O 0.06626 0.95625 -0.00543 0.0
Mg8 Mg 0.134 0.00619 0.96027 0.0
Mg9 Mg 0.05372 0.87914 -0.0197 0.0
C10 C 0.90692 0.91874 0.91624 0.0
O11 O 0.94717 0.93654 0.03444 0.0
O12 O 0.93091 0.16071 0.96879 0.0
O13 O 0.97106 0.85455 0.01523 0.0
O14 O 0.92378 0.09471 0.07472 0.0
O15 O 0.85595 0.09106 0.94505 0.0
O16 O 0.85321 0.02021 0.05601 0.0
O17 O 0.07108 0.05273 0.92786 0.0
O18 O 0.05579 0.13678 0.9486 0.0
C19 C 0.08176 0.1064 0.92268 0.0
C20 C 0.88362 0.1433 0.94595 0.0
O21 O 0.96082 0.93719 0.92147 0.0
O22 O 0.18772 0.95385 0.00061 0.0
O23 O 0.87045 0.94127 0.93819 0.0
O24 O 0.12879 0.94634 0.89086 0.0
O25 O 0.12866 0.86863 0.01579 0.0
O26 O 0.06199 0.86644 0.90228 0.0
O27 O 0.04579 0.06077 0.04377 0.0
O28 O 0.13692 0.06375 0.02835 0.0
C29 C 0.87746 0.05906 0.08643 0.0
C30 C 0.93836 0.88227 0.03626 0.0
C31 C 0.59803 0.58138 0.54051 0.0
C32 C 0.63642 0.38228 0.56042 0.0
C33 C 0.58214 0.3538 0.40769 0.0
Mg34 Mg 0.50713 0.62274 0.4765 0.0
Mg35 Mg 0.38747 0.53634 0.44335 0.0
O36 O 0.4661 0.5495 0.44372 0.0
Mg37 Mg 0.50395 0.49528 0.47531 0.0
O38 O 0.54821 0.4468 0.50657 0.0
Mg39 Mg 0.62451 0.47712 0.47424 0.0
Mg40 Mg 0.52233 0.36783 0.50537 0.0
C41 C 0.4042 0.41627 0.40718 0.0
O42 O 0.42975 0.4567 0.52875 0.0
O43 O 0.46414 0.66846 0.41816 0.0
O44 O 0.43643 0.36565 0.52865 0.0
O45 O 0.434 0.62382 0.53242 0.0
O46 O 0.38473 0.60442 0.39524 0.0
O47 O 0.35716 0.55506 0.51548 0.0
O48 O 0.57953 0.5264 0.42248 0.0
O49 O 0.57893 0.6182 0.42304 0.0
C50 C 0.60065 0.57758 0.40921 0.0
C51 C 0.41927 0.65342 0.39166 0.0
O52 O 0.45546 0.42555 0.42221 0.0
O53 O 0.65867 0.42548 0.53349 0.0
O54 O 0.37264 0.45069 0.41472 0.0
O55 O 0.61524 0.40199 0.41839 0.0
O56 O 0.58453 0.35441 0.55614 0.0
O57 O 0.53829 0.33314 0.43422 0.0
O58 O 0.54614 0.56785 0.52758 0.0
O59 O 0.6326 0.55197 0.52712 0.0
C60 C 0.38321 0.59642 0.54275 0.0
C61 C 0.40975 0.40391 0.5385 0.0
H62 H 0.04645 0.05631 0.14395 0.0
H63 H 0.08962 0.08766 0.22458 0.0
H64 H 0.23193 0.19832 0.14966 0.0
H65 H 0.1902 0.16532 0.06946 0.0
H66 H 0.26318 0.12615 0.21584 0.0
H67 H 0.10922 0.23567 0.30307 0.0
H68 H 0.08347 0.16356 0.28167 0.0
H69 H 0.10798 0.21871 0.23751 0.0
C70 C 0.08607 0.08867 0.14504 0.0
C71 C 0.11516 0.10885 0.1009 0.0
C72 C 0.11081 0.10615 0.19096 0.0
C73 C 0.16412 0.14484 0.1929 0.0
C74 C 0.19108 0.16778 0.1488 0.0
H75 H 0.35194 0.41028 0.32044 0.0
H76 H 0.29282 0.32597 0.28069 0.0
C77 C 0.16703 0.14958 0.10313 0.0
C78 C 0.19402 0.16102 0.24003 0.0
H79 H 0.19845 0.25157 0.33855 0.0
C80 C 0.24857 0.15227 0.24368 0.0
C81 C 0.17409 0.19385 0.27667 0.0
C82 C 0.11561 0.20389 0.2748 0.0
C83 C 0.28646 0.18179 0.2792 0.0
C84 C 0.26859 0.21986 0.31196 0.0
C85 C 0.21172 0.22239 0.3128 0.0
C86 C 0.30995 0.26795 0.33443 0.0
C87 C 0.34697 0.17721 0.27787 0.0
C88 C 0.34109 0.26248 0.37643 0.0
C89 C 0.37609 0.31088 0.39866 0.0
C90 C 0.37911 0.3645 0.37917 0.0
C91 C 0.35005 0.36917 0.33589 0.0
C92 C 0.31608 0.32125 0.31351 0.0
H93 H 0.35325 0.1432 0.25189 0.0
H94 H 0.37538 0.21811 0.26607 0.0
H95 H 0.35974 0.1684 0.31557 0.0
H96 H 0.3367 0.22147 0.39287 0.0
H97 H 0.39786 0.30686 0.4325 0.0
H98 H 0.77056 0.00284 0.11774 0.0
H99 H 0.71049 0.03831 0.17773 0.0
H100 H 0.8513 0.17835 0.2155 0.0
H101 H 0.9119 0.14289 0.15657 0.0
H102 H 0.78163 0.13825 0.29675 0.0
H103 H 0.65689 0.17664 0.13628 0.0
H104 H 0.6601 0.10455 0.14395 0.0
H105 H 0.72342 0.15766 0.12846 0.0
C106 C 0.78924 0.04034 0.13975 0.0
C107 C 0.84585 0.07067 0.13149 0.0
C108 C 0.75463 0.06083 0.1737 0.0
C109 C 0.77599 0.11195 0.19981 0.0
C110 C 0.83375 0.13919 0.19523 0.0
H111 H 0.67456 0.38256 0.34553 0.0
H112 H 0.71493 0.31855 0.29388 0.0
C113 C 0.86841 0.11873 0.16149 0.0
C114 C 0.73786 0.1401 0.2285 0.0
H115 H 0.63193 0.20739 0.21497 0.0
C116 C 0.74842 0.15269 0.27903 0.0
C117 C 0.69488 0.15949 0.2051 0.0
C118 C 0.68322 0.14942 0.15039 0.0
C119 C 0.71784 0.18495 0.30652 0.0
C120 C 0.67587 0.20518 0.28285 0.0
C121 C 0.66405 0.19139 0.23283 0.0
C122 C 0.64719 0.24436 0.3089 0.0
C123 C 0.73148 0.19876 0.36042 0.0
C124 C 0.59465 0.22395 0.33281 0.0
C125 C 0.57124 0.26044 0.36244 0.0
C126 C 0.6002 0.31788 0.36862 0.0
C127 C 0.65117 0.33863 0.34189 0.0
C128 C 0.67446 0.30213 0.31243 0.0
H129 H 0.76101 0.17505 0.37474 0.0
H130 H 0.75122 0.24483 0.36485 0.0
H131 H 0.69198 0.18882 0.38337 0.0
H132 H 0.57299 0.17941 0.33021 0.0
H133 H 0.53192 0.243 0.38239 0.0
H134 H 0.88066 0.77376 0.01881 0.0
H135 H 0.81595 0.7118 0.07594 0.0
H136 H 0.82518 0.85296 0.17768 0.0
H137 H 0.88944 0.91566 0.12002 0.0
H138 H 0.85223 0.69343 0.16813 0.0
H139 H 0.65757 0.77118 0.18285 0.0
H140 H 0.7081 0.78977 0.13219 0.0
H141 H 0.7212 0.82638 0.19116 0.0
C142 C 0.86781 0.79186 0.05287 0.0
C143 C 0.89054 0.84917 0.06557 0.0
C144 C 0.83087 0.75645 0.08533 0.0
C145 C 0.81607 0.77782 0.13091 0.0
C146 C 0.83558 0.83592 0.14225 0.0
H147 H 0.68868 0.66966 0.41185 0.0
H148 H 0.74803 0.70929 0.34078 0.0
C149 C 0.87231 0.87164 0.10945 0.0
C150 C 0.78637 0.73822 0.16893 0.0
H151 H 0.67279 0.71175 0.24831 0.0
C152 C 0.81248 0.69672 0.18515 0.0
C153 C 0.73457 0.7427 0.19074 0.0
C154 C 0.7034 0.78455 0.17303 0.0
C155 C 0.78923 0.66116 0.22442 0.0
C156 C 0.73898 0.66759 0.2476 0.0
C157 C 0.7117 0.70748 0.23023 0.0
C158 C 0.71576 0.63678 0.29256 0.0
C159 C 0.81935 0.61866 0.24244 0.0
C160 C 0.68078 0.5816 0.28926 0.0
C161 C 0.64722 0.55855 0.33009 0.0
C162 C 0.64808 0.5912 0.37377 0.0
C163 C 0.68733 0.644 0.3783 0.0
C164 C 0.72105 0.66665 0.33787 0.0
H165 H 0.85863 0.61935 0.22057 0.0
H166 H 0.83043 0.6276 0.28208 0.0
H167 H 0.79069 0.57543 0.23998 0.0
H168 H 0.67625 0.55832 0.25424 0.0
H169 H 0.61682 0.5179 0.32588 0.0
H170 H 0.27277 0.97344 0.06045 0.0
H171 H 0.33702 0.94663 0.11886 0.0
H172 H 0.24337 0.77184 0.10526 0.0
H173 H 0.17965 0.7979 0.04706 0.0
H174 H 0.30335 0.89502 0.21014 0.0
H175 H 0.40696 0.76047 0.09294 0.0
H176 H 0.37127 0.80952 0.06703 0.0
H177 H 0.3315 0.74045 0.08632 0.0
C178 C 0.26669 0.92913 0.06905 0.0
C179 C 0.22101 0.88781 0.04904 0.0
C180 C 0.30331 0.91395 0.10258 0.0
C181 C 0.29544 0.85715 0.11595 0.0
C182 C 0.25103 0.81576 0.09475 0.0
H183 H 0.3282 0.63462 0.33096 0.0
H184 H 0.31006 0.6942 0.26535 0.0
C185 C 0.21432 0.83084 0.06166 0.0
C186 C 0.32971 0.84086 0.1553 0.0
H187 H 0.40099 0.74142 0.1813 0.0
C188 C 0.32618 0.86263 0.20368 0.0
C189 C 0.35974 0.79883 0.14681 0.0
C190 C 0.36813 0.77641 0.09532 0.0
C191 C 0.34788 0.84007 0.24427 0.0
C192 C 0.37375 0.79492 0.23609 0.0
C193 C 0.38084 0.77594 0.18742 0.0
C194 C 0.38568 0.7612 0.27763 0.0
C195 C 0.33961 0.86166 0.29606 0.0
C196 C 0.43424 0.77953 0.30664 0.0
C197 C 0.44507 0.74527 0.34457 0.0
C198 C 0.40738 0.69226 0.35389 0.0
C199 C 0.35836 0.67497 0.32502 0.0
C200 C 0.34782 0.70894 0.28733 0.0
H201 H 0.31969 0.89791 0.29615 0.0
H202 H 0.31241 0.82699 0.31815 0.0
H203 H 0.3811 0.87525 0.31471 0.0
H204 H 0.46398 0.81983 0.29952 0.0
H205 H 0.48322 0.75988 0.36597 0.0
H206 H 0.04558 0.79976 0.82699 0.0
H207 H 0.08804 0.74638 0.76594 0.0
H208 H 0.23764 0.88486 0.75821 0.0
H209 H 0.19581 0.93879 0.81914 0.0
H210 H 0.15025 0.77837 0.6633 0.0
H211 H 0.27922 0.73787 0.81999 0.0
H212 H 0.21349 0.7582 0.8297 0.0
H213 H 0.27629 0.81001 0.8111 0.0
C214 C 0.08688 0.81962 0.81132 0.0
C215 C 0.1177 0.87322 0.82866 0.0
C216 C 0.11103 0.78897 0.77646 0.0
C217 C 0.16624 0.81141 0.75847 0.0
C218 C 0.1951 0.86678 0.77219 0.0
H219 H 0.42287 0.68746 0.60477 0.0
H220 H 0.36714 0.73512 0.65862 0.0
C221 C 0.17093 0.89761 0.80684 0.0
C222 C 0.19604 0.77489 0.72996 0.0
H223 H 0.29869 0.70341 0.74084 0.0
C224 C 0.18253 0.76166 0.68011 0.0
C225 C 0.23784 0.75315 0.75236 0.0
C226 C 0.25259 0.76503 0.80633 0.0
C227 C 0.21122 0.72849 0.65143 0.0
C228 C 0.25346 0.70704 0.67375 0.0
C229 C 0.2662 0.7197 0.72389 0.0
C230 C 0.28731 0.67429 0.64495 0.0
C231 C 0.19748 0.7184 0.59711 0.0
C232 C 0.26134 0.62277 0.62119 0.0
C233 C 0.29314 0.59526 0.59021 0.0
C234 C 0.35156 0.61874 0.58268 0.0
C235 C 0.37796 0.66831 0.60934 0.0
C236 C 0.34613 0.69577 0.64012 0.0
H237 H 0.17395 0.74836 0.58331 0.0
H238 H 0.23669 0.72268 0.57425 0.0
H239 H 0.17061 0.67474 0.59166 0.0
H240 H 0.21622 0.60463 0.62555 0.0
H241 H 0.27147 0.55692 0.57063 0.0
H242 H 0.32814 0.30896 0.51994 0.0
H243 H 0.25671 0.26042 0.57965 0.0
H244 H 0.30054 0.40547 0.679 0.0
H245 H 0.37181 0.45472 0.61872 0.0
H246 H 0.3071 0.24373 0.6706 0.0
H247 H 0.12619 0.34171 0.70031 0.0
H248 H 0.1672 0.34863 0.64306 0.0
H249 H 0.19529 0.39004 0.6969 0.0
C250 C 0.32074 0.33138 0.55362 0.0
C251 C 0.35572 0.385 0.5654 0.0
C252 C 0.28 0.30367 0.58758 0.0
C253 C 0.27386 0.32924 0.63372 0.0
C254 C 0.30438 0.38537 0.64327 0.0
H255 H 0.13993 0.21661 0.92011 0.0
H256 H 0.18873 0.26775 0.84862 0.0
C257 C 0.34501 0.41345 0.60893 0.0
C258 C 0.24554 0.29347 0.67476 0.0
H259 H 0.13822 0.27594 0.76038 0.0
C260 C 0.26977 0.25028 0.69001 0.0
C261 C 0.19745 0.30279 0.69999 0.0
C262 C 0.16956 0.34801 0.68416 0.0
C263 C 0.24793 0.21681 0.73084 0.0
C264 C 0.19989 0.22619 0.75634 0.0
C265 C 0.17514 0.26895 0.74064 0.0
C266 C 0.17561 0.19353 0.8005 0.0
C267 C 0.27768 0.1732 0.7473 0.0
C268 C 0.15376 0.13451 0.79745 0.0
C269 C 0.1266 0.10492 0.83861 0.0
C270 C 0.12009 0.13432 0.88286 0.0
C271 C 0.14415 0.19298 0.88631 0.0
C272 C 0.17174 0.22229 0.8455 0.0
H273 H 0.3216 0.18145 0.73203 0.0
H274 H 0.27933 0.17231 0.78843 0.0
H275 H 0.25409 0.13066 0.7338 0.0
H276 H 0.15568 0.1117 0.76277 0.0
H277 H 0.10786 0.0598 0.83487 0.0
H278 H 0.77803 0.12775 0.90793 0.0
H279 H 0.74703 0.18566 0.84721 0.0
H280 H 0.90954 0.30689 0.85283 0.0
H281 H 0.94145 0.24864 0.91365 0.0
H282 H 0.74169 0.30123 0.84938 0.0
H283 H 0.89203 0.25681 0.70449 0.0
H284 H 0.87613 0.21633 0.76058 0.0
H285 H 0.92131 0.28684 0.76268 0.0
C286 C 0.80714 0.16704 0.89681 0.0
C287 C 0.86246 0.18324 0.91538 0.0
C288 C 0.78925 0.20014 0.86209 0.0
C289 C 0.82629 0.25001 0.84489 0.0
C290 C 0.88062 0.26801 0.86507 0.0
H291 H 0.74544 0.4344 0.58856 0.0
H292 H 0.79695 0.4103 0.65881 0.0
C293 C 0.89858 0.23492 0.90014 0.0
C294 C 0.80798 0.28099 0.80421 0.0
H295 H 0.82584 0.30549 0.67974 0.0
C296 C 0.7606 0.30294 0.81246 0.0
C297 C 0.83288 0.28333 0.75608 0.0
C298 C 0.8832 0.25936 0.74499 0.0
C299 C 0.73617 0.32529 0.77352 0.0
C300 C 0.75912 0.32473 0.72489 0.0
C301 C 0.80828 0.3056 0.71705 0.0
C302 C 0.72947 0.33882 0.68132 0.0
C303 C 0.68521 0.34826 0.78456 0.0
C304 C 0.67531 0.30558 0.66989 0.0
C305 C 0.64598 0.31892 0.62988 0.0
C306 C 0.67023 0.36582 0.60012 0.0
C307 C 0.72541 0.39808 0.61069 0.0
C308 C 0.75487 0.3845 0.65087 0.0
H309 H 0.68336 0.36127 0.82423 0.0
H310 H 0.68558 0.38518 0.76106 0.0
H311 H 0.64614 0.31474 0.77661 0.0
H312 H 0.65547 0.26935 0.69223 0.0
H313 H 0.60383 0.29278 0.62282 0.0
H314 H 0.69799 0.65759 0.52841 0.0
H315 H 0.74903 0.72111 0.59276 0.0
H316 H 0.6011 0.67919 0.68867 0.0
H317 H 0.54944 0.61527 0.62382 0.0
H318 H 0.72894 0.81325 0.65783 0.0
H319 H 0.72709 0.61143 0.75155 0.0
H320 H 0.70848 0.61357 0.68726 0.0
H321 H 0.65947 0.62241 0.73555 0.0
C322 C 0.67578 0.66356 0.56259 0.0
C323 C 0.62035 0.63132 0.57185 0.0
C324 C 0.70489 0.69975 0.59917 0.0
C325 C 0.67899 0.7036 0.64548 0.0
C326 C 0.62165 0.67599 0.65306 0.0
H327 H 0.80768 0.8397 0.92419 0.0
H328 H 0.75727 0.78127 0.85678 0.0
C329 C 0.59216 0.64001 0.61608 0.0
C330 C 0.7147 0.72952 0.68724 0.0
H331 H 0.77698 0.69607 0.79059 0.0
C332 C 0.73939 0.7879 0.68704 0.0
C333 C 0.72874 0.69566 0.72447 0.0
C334 C 0.70502 0.6322 0.72483 0.0
C335 C 0.77707 0.8138 0.72413 0.0
C336 C 0.79109 0.77994 0.76141 0.0
C337 C 0.76653 0.72151 0.76144 0.0
C338 C 0.82638 0.80553 0.80359 0.0
C339 C 0.80039 0.8773 0.72393 0.0
C340 C 0.88314 0.83542 0.79654 0.0
C341 C 0.91224 0.86883 0.83518 0.0
C342 C 0.88436 0.87261 0.88075 0.0
C343 C 0.82962 0.83809 0.88899 0.0
C344 C 0.80085 0.80469 0.85064 0.0
H345 H 0.77742 0.89801 0.69794 0.0
H346 H 0.79779 0.89572 0.76172 0.0
H347 H 0.84564 0.88742 0.71221 0.0
H348 H 0.90367 0.83545 0.76049 0.0
H349 H 0.95458 0.89494 0.82818 0.0
loop_
_geom_bond_atom_site_label_1
_geom_bond_atom_site_label_2
_geom_bond_distance
_geom_bond_site_symmetry_2
_ccdc_geom_bond_type
C0 O27 1.312 . S
C0 O28 1.208 . S
C1 O22 1.331 . S
C1 O25 1.244 . S
C2 O24 1.264 . S
C2 O26 1.273 . S
Mg3 O5 1.936 . S
Mg3 O12 2.081 . S
Mg3 O14 2.023 1_556 S
Mg3 O18 2.031 1_655 S
Mg3 O27 2.291 1_656 S
Mg4 O5 1.963 . S
Mg4 O15 1.942 . S
Mg4 O16 1.955 1_556 S
Mg4 O23 1.986 1_545 S
O5 Mg3 1.936 . S
O5 Mg4 1.963 . S
O5 Mg6 1.915 1_546 S
Mg6 O5 1.915 1_564 S
Mg6 O7 1.915 1_655 S
Mg6 O11 2.013 . S
Mg6 O17 2.114 1_664 S
Mg6 O21 2.013 1_554 S
Mg6 O27 2.114 1_665 S
O7 Mg6 1.915 1_455 S
O7 Mg8 1.936 . S
O7 Mg9 1.963 . S
Mg8 O7 1.936 . S
Mg8 O17 2.291 1_564 S
Mg8 O22 2.081 . S
Mg8 O24 2.023 1_554 S
Mg8 O28 2.031 1_565 S
Mg9 O7 1.963 . S
Mg9 O13 1.986 1_455 S
Mg9 O25 1.942 . S
Mg9 O26 1.955 1_554 S
C10 O21 1.191 . S
C10 O23 1.307 . S
O11 Mg6 2.013 . S
O11 C30 1.191 . S
O12 Mg3 2.081 . S
O12 C20 1.331 . S
O13 Mg9 1.986 1_655 S
O13 C30 1.307 . S
O14 Mg3 2.023 1_554 S
O14 C29 1.264 . S
O15 Mg4 1.942 . S
O15 C20 1.244 . S
O16 Mg4 1.955 1_554 S
O16 C29 1.273 . S
O17 Mg6 2.114 1_446 S
O17 Mg8 2.291 1_546 S
O17 C19 1.312 . S
O18 Mg3 2.031 1_455 S
O18 C19 1.208 . S
C19 O17 1.312 . S
C19 O18 1.208 . S
C20 O12 1.331 . S
C20 O15 1.244 . S
O21 Mg6 2.013 1_556 S
O21 C10 1.191 . S
O22 C1 1.331 . S
O22 Mg8 2.081 . S
O23 Mg4 1.986 1_565 S
O23 C10 1.307 . S
O24 C2 1.264 . S
O24 Mg8 2.023 1_556 S
O25 C1 1.244 . S
O25 Mg9 1.942 . S
O26 C2 1.273 . S
O26 Mg9 1.955 1_556 S
O27 C0 1.312 . S
O27 Mg3 2.291 1_454 S
O27 Mg6 2.114 1_445 S
O28 C0 1.208 . S
O28 Mg8 2.031 1_545 S
C29 O14 1.264 . S
C29 O16 1.273 . S
C30 O11 1.191 . S
C30 O13 1.307 . S
C31 O58 1.312 . S
C31 O59 1.208 . S
C32 O53 1.331 . S
C32 O56 1.244 . S
C33 O55 1.264 . S
C33 O57 1.273 . S
Mg34 O36 1.936 . S
Mg34 O43 2.081 . S
Mg34 O45 2.023 . S
Mg34 O49 2.031 . S
Mg34 O58 2.291 . S
Mg35 O36 1.963 . S
Mg35 O46 1.942 . S
Mg35 O47 1.955 . S
Mg35 O54 1.986 . S
O36 Mg34 1.936 . S
O36 Mg35 1.963 . S
O36 Mg37 1.915 . S
Mg37 O36 1.915 . S
Mg37 O38 1.915 . S
Mg37 O42 2.013 . S
Mg37 O48 2.114 . S
Mg37 O52 2.013 . S
Mg37 O58 2.114 . S
O38 Mg37 1.915 . S
O38 Mg39 1.936 . S
O38 Mg40 1.963 . S
Mg39 O38 1.936 . S
Mg39 O48 2.291 . S
Mg39 O53 2.081 . S
Mg39 O55 2.023 . S
Mg39 O59 2.031 . S
Mg40 O38 1.963 . S
Mg40 O44 1.986 . S
Mg40 O56 1.942 . S
Mg40 O57 1.955 . S
C41 O52 1.191 . S
C41 O54 1.307 . S
O42 Mg37 2.013 . S
O42 C61 1.191 . S
O43 Mg34 2.081 . S
O43 C51 1.331 . S
O44 Mg40 1.986 . S
O44 C61 1.307 . S
O45 Mg34 2.023 . S
O45 C60 1.264 . S
O46 Mg35 1.942 . S
O46 C51 1.244 . S
O47 Mg35 1.955 . S
O47 C60 1.273 . S
O48 Mg37 2.114 . S
O48 Mg39 2.291 . S
O48 C50 1.312 . S
O49 Mg34 2.031 . S
O49 C50 1.208 . S
C50 O48 1.312 . S
C50 O49 1.208 . S
C51 O43 1.331 . S
C51 O46 1.244 . S
O52 Mg37 2.013 . S
O52 C41 1.191 . S
O53 C32 1.331 . S
O53 Mg39 2.081 . S
O54 Mg35 1.986 . S
O54 C41 1.307 . S
O55 C33 1.264 . S
O55 Mg39 2.023 . S
O56 C32 1.244 . S
O56 Mg40 1.942 . S
O57 C33 1.273 . S
O57 Mg40 1.955 . S
O58 C31 1.312 . S
O58 Mg34 2.291 . S
O58 Mg37 2.114 . S
O59 C31 1.208 . S
O59 Mg39 2.031 . S
C60 O45 1.264 . S
C60 O47 1.273 . S
C61 O42 1.191 . S
C61 O44 1.307 . S
H62 C70 0.929 . S
H63 C72 0.930 . S
H64 C74 0.930 . S
H65 C77 0.929 . S
H66 C80 0.930 . S
H67 C82 0.960 . S
H68 C82 0.960 . S
H69 C82 0.960 . S
C70 H62 0.929 . S
C70 C71 1.377 . S
C70 C72 1.384 . S
C71 C70 1.377 . S
C71 C77 1.390 . S
C72 H63 0.930 . S
C72 C70 1.384 . S
C72 C73 1.372 . S
C73 C72 1.372 . S
C73 C74 1.400 . S
C73 C78 1.490 . S
C74 H64 0.930 . S
C74 C73 1.400 . S
C74 C77 1.386 . S
H75 C91 0.930 . S
H76 C92 0.931 . S
C77 H65 0.929 . S
C77 C71 1.390 . S
C77 C74 1.386 . S
C78 C73 1.490 . S
C78 C80 1.395 . S
C78 C81 1.403 . S
H79 C85 0.930 . S
C80 H66 0.930 . S
C80 C78 1.395 . S
C80 C83 1.403 . S
C81 C78 1.403 . S
C81 C82 1.524 . S
C81 C85 1.400 . S
C82 H67 0.960 . S
C82 H68 0.960 . S
C82 H69 0.960 . S
C82 C81 1.524 . S
C83 C80 1.403 . S
C83 C84 1.392 . S
C83 C87 1.495 . S
C84 C83 1.392 . S
C84 C85 1.385 . S
C84 C86 1.478 . S
C85 H79 0.930 . S
C85 C81 1.400 . S
C85 C84 1.385 . S
C86 C84 1.478 . S
C86 C88 1.381 . S
C86 C92 1.383 . S
C87 C83 1.495 . S
C87 H93 0.959 . S
C87 H94 0.961 . S
C87 H95 0.960 . S
C88 C86 1.381 . S
C88 C89 1.394 . S
C88 H96 0.930 . S
C89 C88 1.394 . S
C89 C90 1.383 . S
C89 H97 0.929 . S
C90 C89 1.383 . S
C90 C91 1.377 . S
C91 H75 0.930 . S
C91 C90 1.377 . S
C91 C92 1.379 . S
C92 H76 0.931 . S
C92 C86 1.383 . S
C92 C91 1.379 . S
H93 C87 0.959 . S
H94 C87 0.961 . S
H95 C87 0.960 . S
H96 C88 0.930 . S
H97 C89 0.929 . S
H98 C106 0.929 . S
H99 C108 0.930 . S
H100 C110 0.930 . S
H101 C113 0.929 . S
H102 C116 0.930 . S
H103 C118 0.960 . S
H104 C118 0.960 . S
H105 C118 0.960 . S
C106 H98 0.929 . S
C106 C107 1.377 . S
C106 C108 1.384 . S
C107 C106 1.377 . S
C107 C113 1.390 . S
C108 H99 0.930 . S
C108 C106 1.384 . S
C108 C109 1.372 . S
C109 C108 1.372 . S
C109 C110 1.400 . S
C109 C114 1.490 . S
C110 H100 0.930 . S
C110 C109 1.400 . S
C110 C113 1.386 . S
H111 C127 0.930 . S
H112 C128 0.931 . S
C113 H101 0.929 . S
C113 C107 1.390 . S
C113 C110 1.386 . S
C114 C109 1.490 . S
C114 C116 1.395 . S
C114 C117 1.403 . S
H115 C121 0.930 . S
C116 H102 0.930 . S
C116 C114 1.395 . S
C116 C119 1.403 . S
C117 C114 1.403 . S
C117 C118 1.524 . S
C117 C121 1.400 . S
C118 H103 0.960 . S
C118 H104 0.960 . S
C118 H105 0.960 . S
C118 C117 1.524 . S
C119 C116 1.403 . S
C119 C120 1.392 . S
C119 C123 1.495 . S
C120 C119 1.392 . S
C120 C121 1.385 . S
C120 C122 1.478 . S
C121 H115 0.930 . S
C121 C117 1.400 . S
C121 C120 1.385 . S
C122 C120 1.478 . S
C122 C124 1.381 . S
C122 C128 1.383 . S
C123 C119 1.495 . S
C123 H129 0.959 . S
C123 H130 0.961 . S
C123 H131 0.960 . S
C124 C122 1.381 . S
C124 C125 1.394 . S
C124 H132 0.930 . S
C125 C124 1.394 . S
C125 C126 1.383 . S
C125 H133 0.929 . S
C126 C125 1.383 . S
C126 C127 1.377 . S
C127 H111 0.930 . S
C127 C126 1.377 . S
C127 C128 1.379 . S
C128 H112 0.931 . S
C128 C122 1.383 . S
C128 C127 1.379 . S
H129 C123 0.959 . S
H130 C123 0.961 . S
H131 C123 0.960 . S
H132 C124 0.930 . S
H133 C125 0.929 . S
H134 C142 0.929 . S
H135 C144 0.930 . S
H136 C146 0.930 . S
H137 C149 0.929 . S
H138 C152 0.930 . S
H139 C154 0.960 . S
H140 C154 0.960 . S
H141 C154 0.960 . S
C142 H134 0.929 . S
C142 C143 1.377 . S
C142 C144 1.384 . S
C143 C142 1.377 . S
C143 C149 1.390 . S
C144 H135 0.930 . S
C144 C142 1.384 . S
C144 C145 1.372 . S
C145 C144 1.372 . S
C145 C146 1.400 . S
C145 C150 1.490 . S
C146 H136 0.930 . S
C146 C145 1.400 . S
C146 C149 1.386 . S
H147 C163 0.930 . S
H148 C164 0.931 . S
C149 H137 0.929 . S
C149 C143 1.390 . S
C149 C146 1.386 . S
C150 C145 1.490 . S
C150 C152 1.395 . S
C150 C153 1.403 . S
H151 C157 0.930 . S
C152 H138 0.930 . S
C152 C150 1.395 . S
C152 C155 1.403 . S
C153 C150 1.403 . S
C153 C154 1.524 . S
C153 C157 1.400 . S
C154 H139 0.960 . S
C154 H140 0.960 . S
C154 H141 0.960 . S
C154 C153 1.524 . S
C155 C152 1.403 . S
C155 C156 1.392 . S
C155 C159 1.495 . S
C156 C155 1.392 . S
C156 C157 1.385 . S
C156 C158 1.478 . S
C157 H151 0.930 . S
C157 C153 1.400 . S
C157 C156 1.385 . S
C158 C156 1.478 . S
C158 C160 1.381 . S
C158 C164 1.383 . S
C159 C155 1.495 . S
C159 H165 0.959 . S
C159 H166 0.961 . S
C159 H167 0.960 . S
C160 C158 1.381 . S
C160 C161 1.394 . S
C160 H168 0.930 . S
C161 C160 1.394 . S
C161 C162 1.383 . S
C161 H169 0.929 . S
C162 C161 1.383 . S
C162 C163 1.377 . S
C163 H147 0.930 . S
C163 C162 1.377 . S
C163 C164 1.379 . S
C164 H148 0.931 . S
C164 C158 1.383 . S
C164 C163 1.379 . S
H165 C159 0.959 . S
H166 C159 0.961 . S
H167 C159 0.960 . S
H168 C160 0.930 . S
H169 C161 0.929 . S
H170 C178 0.929 . S
H171 C180 0.930 . S
H172 C182 0.930 . S
H173 C185 0.929 . S
H174 C188 0.930 . S
H175 C190 0.960 . S
H176 C190 0.960 . S
H177 C190 0.960 . S
C178 H170 0.929 . S
C178 C179 1.377 . S
C178 C180 1.384 . S
C179 C178 1.377 . S
C179 C185 1.390 . S
C180 H171 0.930 . S
C180 C178 1.384 . S
C180 C181 1.372 . S
C181 C180 1.372 . S
C181 C182 1.400 . S
C181 C186 1.490 . S
C182 H172 0.930 . S
C182 C181 1.400 . S
C182 C185 1.386 . S
H183 C199 0.930 . S
H184 C200 0.931 . S
C185 H173 0.929 . S
C185 C179 1.390 . S
C185 C182 1.386 . S
C186 C181 1.490 . S
C186 C188 1.395 . S
C186 C189 1.403 . S
H187 C193 0.930 . S
C188 H174 0.930 . S
C188 C186 1.395 . S
C188 C191 1.403 . S
C189 C186 1.403 . S
C189 C190 1.524 . S
C189 C193 1.400 . S
C190 H175 0.960 . S
C190 H176 0.960 . S
C190 H177 0.960 . S
C190 C189 1.524 . S
C191 C188 1.403 . S
C191 C192 1.392 . S
C191 C195 1.495 . S
C192 C191 1.392 . S
C192 C193 1.385 . S
C192 C194 1.478 . S
C193 H187 0.930 . S
C193 C189 1.400 . S
C193 C192 1.385 . S
C194 C192 1.478 . S
C194 C196 1.381 . S
C194 C200 1.383 . S
C195 C191 1.495 . S
C195 H201 0.959 . S
C195 H202 0.961 . S
C195 H203 0.960 . S
C196 C194 1.381 . S
C196 C197 1.394 . S
C196 H204 0.930 . S
C197 C196 1.394 . S
C197 C198 1.383 . S
C197 H205 0.929 . S
C198 C197 1.383 . S
C198 C199 1.377 . S
C199 H183 0.930 . S
C199 C198 1.377 . S
C199 C200 1.379 . S
C200 H184 0.931 . S
C200 C194 1.383 . S
C200 C199 1.379 . S
H201 C195 0.959 . S
H202 C195 0.961 . S
H203 C195 0.960 . S
H204 C196 0.930 . S
H205 C197 0.929 . S
H206 C214 0.929 . S
H207 C216 0.930 . S
H208 C218 0.930 . S
H209 C221 0.929 . S
H210 C224 0.930 . S
H211 C226 0.960 . S
H212 C226 0.960 . S
H213 C226 0.960 . S
C214 H206 0.929 . S
C214 C215 1.377 . S
C214 C216 1.384 . S
C215 C214 1.377 . S
C215 C221 1.390 . S
C216 H207 0.930 . S
C216 C214 1.384 . S
C216 C217 1.372 . S
C217 C216 1.372 . S
C217 C218 1.400 . S
C217 C222 1.490 . S
C218 H208 0.930 . S
C218 C217 1.400 . S
C218 C221 1.386 . S
H219 C235 0.930 . S
H220 C236 0.931 . S
C221 H209 0.929 . S
C221 C215 1.390 . S
C221 C218 1.386 . S
C222 C217 1.490 . S
C222 C224 1.395 . S
C222 C225 1.403 . S
H223 C229 0.930 . S
C224 H210 0.930 . S
C224 C222 1.395 . S
C224 C227 1.403 . S
C225 C222 1.403 . S
C225 C226 1.524 . S
C225 C229 1.400 . S
C226 H211 0.960 . S
C226 H212 0.960 . S
C226 H213 0.960 . S
C226 C225 1.524 . S
C227 C224 1.403 . S
C227 C228 1.392 . S
C227 C231 1.495 . S
C228 C227 1.392 . S
C228 C229 1.385 . S
C228 C230 1.478 . S
C229 H223 0.930 . S
C229 C225 1.400 . S
C229 C228 1.385 . S
C230 C228 1.478 . S
C230 C232 1.381 . S
C230 C236 1.383 . S
C231 C227 1.495 . S
C231 H237 0.959 . S
C231 H238 0.961 . S
C231 H239 0.960 . S
C232 C230 1.381 . S
C232 C233 1.394 . S
C232 H240 0.930 . S
C233 C232 1.394 . S
C233 C234 1.383 . S
C233 H241 0.929 . S
C234 C233 1.383 . S
C234 C235 1.377 . S
C235 H219 0.930 . S
C235 C234 1.377 . S
C235 C236 1.379 . S
C236 H220 0.931 . S
C236 C230 1.383 . S
C236 C235 1.379 . S
H237 C231 0.959 . S
H238 C231 0.961 . S
H239 C231 0.960 . S
H240 C232 0.930 . S
H241 C233 0.929 . S
H242 C250 0.929 . S
H243 C252 0.930 . S
H244 C254 0.930 . S
H245 C257 0.929 . S
H246 C260 0.930 . S
H247 C262 0.960 . S
H248 C262 0.960 . S
H249 C262 0.960 . S
C250 H242 0.929 . S
C250 C251 1.377 . S
C250 C252 1.384 . S
C251 C250 1.377 . S
C251 C257 1.390 . S
C252 H243 0.930 . S
C252 C250 1.384 . S
C252 C253 1.372 . S
C253 C252 1.372 . S
C253 C254 1.400 . S
C253 C258 1.490 . S
C254 H244 0.930 . S
C254 C253 1.400 . S
C254 C257 1.386 . S
H255 C271 0.930 . S
H256 C272 0.931 . S
C257 H245 0.929 . S
C257 C251 1.390 . S
C257 C254 1.386 . S
C258 C253 1.490 . S
C258 C260 1.395 . S
C258 C261 1.403 . S
H259 C265 0.930 . S
C260 H246 0.930 . S
C260 C258 1.395 . S
C260 C263 1.403 . S
C261 C258 1.403 . S
C261 C262 1.524 . S
C261 C265 1.400 . S
C262 H247 0.960 . S
C262 H248 0.960 . S
C262 H249 0.960 . S
C262 C261 1.524 . S
C263 C260 1.403 . S
C263 C264 1.392 . S
C263 C267 1.495 . S
C264 C263 1.392 . S
C264 C265 1.385 . S
C264 C266 1.478 . S
C265 H259 0.930 . S
C265 C261 1.400 . S
C265 C264 1.385 . S
C266 C264 1.478 . S
C266 C268 1.381 . S
C266 C272 1.383 . S
C267 C263 1.495 . S
C267 H273 0.959 . S
C267 H274 0.961 . S
C267 H275 0.960 . S
C268 C266 1.381 . S
C268 C269 1.394 . S
C268 H276 0.930 . S
C269 C268 1.394 . S
C269 C270 1.383 . S
C269 H277 0.929 . S
C270 C269 1.383 . S
C270 C271 1.377 . S
C271 H255 0.930 . S
C271 C270 1.377 . S
C271 C272 1.379 . S
C272 H256 0.931 . S
C272 C266 1.383 . S
C272 C271 1.379 . S
H273 C267 0.959 . S
H274 C267 0.961 . S
H275 C267 0.960 . S
H276 C268 0.930 . S
H277 C269 0.929 . S
H278 C286 0.929 . S
H279 C288 0.930 . S
H280 C290 0.930 . S
H281 C293 0.929 . S
H282 C296 0.930 . S
H283 C298 0.960 . S
H284 C298 0.960 . S
H285 C298 0.960 . S
C286 H278 0.929 . S
C286 C287 1.377 . S
C286 C288 1.384 . S
C287 C286 1.377 . S
C287 C293 1.390 . S
C288 H279 0.930 . S
C288 C286 1.384 . S
C288 C289 1.372 . S
C289 C288 1.372 . S
C289 C290 1.400 . S
C289 C294 1.490 . S
C290 H280 0.930 . S
C290 C289 1.400 . S
C290 C293 1.386 . S
H291 C307 0.930 . S
H292 C308 0.931 . S
C293 H281 0.929 . S
C293 C287 1.390 . S
C293 C290 1.386 . S
C294 C289 1.490 . S
C294 C296 1.395 . S
C294 C297 1.403 . S
H295 C301 0.930 . S
C296 H282 0.930 . S
C296 C294 1.395 . S
C296 C299 1.403 . S
C297 C294 1.403 . S
C297 C298 1.524 . S
C297 C301 1.400 . S
C298 H283 0.960 . S
C298 H284 0.960 . S
C298 H285 0.960 . S
C298 C297 1.524 . S
C299 C296 1.403 . S
C299 C300 1.392 . S
C299 C303 1.495 . S
C300 C299 1.392 . S
C300 C301 1.385 . S
C300 C302 1.478 . S
C301 H295 0.930 . S
C301 C297 1.400 . S
C301 C300 1.385 . S
C302 C300 1.478 . S
C302 C304 1.381 . S
C302 C308 1.383 . S
C303 C299 1.495 . S
C303 H309 0.959 . S
C303 H310 0.961 . S
C303 H311 0.960 . S
C304 C302 1.381 . S
C304 C305 1.394 . S
C304 H312 0.930 . S
C305 C304 1.394 . S
C305 C306 1.383 . S
C305 H313 0.929 . S
C306 C305 1.383 . S
C306 C307 1.377 . S
C307 H291 0.930 . S
C307 C306 1.377 . S
C307 C308 1.379 . S
C308 H292 0.931 . S
C308 C302 1.383 . S
C308 C307 1.379 . S
H309 C303 0.959 . S
H310 C303 0.961 . S
H311 C303 0.960 . S
H312 C304 0.930 . S
H313 C305 0.929 . S
H314 C322 0.929 . S
H315 C324 0.930 . S
H316 C326 0.930 . S
H317 C329 0.929 . S
H318 C332 0.930 . S
H319 C334 0.960 . S
H320 C334 0.960 . S
H321 C334 0.960 . S
C322 H314 0.929 . S
C322 C323 1.377 . S
C322 C324 1.384 . S
C323 C322 1.377 . S
C323 C329 1.390 . S
C324 H315 0.930 . S
C324 C322 1.384 . S
C324 C325 1.372 . S
C325 C324 1.372 . S
C325 C326 1.400 . S
C325 C330 1.490 . S
C326 H316 0.930 . S
C326 C325 1.400 . S
C326 C329 1.386 . S
H327 C343 0.930 . S
H328 C344 0.931 . S
C329 H317 0.929 . S
C329 C323 1.390 . S
C329 C326 1.386 . S
C330 C325 1.490 . S
C330 C332 1.395 . S
C330 C333 1.403 . S
H331 C337 0.930 . S
C332 H318 0.930 . S
C332 C330 1.395 . S
C332 C335 1.403 . S
C333 C330 1.403 . S
C333 C334 1.524 . S
C333 C337 1.400 . S
C334 H319 0.960 . S
C334 H320 0.960 . S
C334 H321 0.960 . S
C334 C333 1.524 . S
C335 C332 1.403 . S
C335 C336 1.392 . S
C335 C339 1.495 . S
C336 C335 1.392 . S
C336 C337 1.385 . S
C336 C338 1.478 . S
C337 H331 0.930 . S
C337 C333 1.400 . S
C337 C336 1.385 . S
C338 C336 1.478 . S
C338 C340 1.381 . S
C338 C344 1.383 . S
C339 C335 1.495 . S
C339 H345 0.959 . S
C339 H346 0.961 . S
C339 H347 0.960 . S
C340 C338 1.381 . S
C340 C341 1.394 . S
C340 H348 0.930 . S
C341 C340 1.394 . S
C341 C342 1.383 . S
C341 H349 0.929 . S
C342 C341 1.383 . S
C342 C343 1.377 . S
C343 H327 0.930 . S
C343 C342 1.377 . S
C343 C344 1.379 . S
C344 H328 0.931 . S
C344 C338 1.383 . S
C344 C343 1.379 . S
H345 C339 0.959 . S
H346 C339 0.961 . S
H347 C339 0.960 . S
H348 C340 0.930 . S
H349 C341 0.929 . S
C71 C0 1.120 . S
C90 C41 1.155 . S
C107 C29 1.804 . S
C126 C33 1.782 . S
C143 C30 1.134 . S
C162 C50 1.143 . S
C179 C1 1.660 . S
C198 C51 1.636 . S
C215 C2 1.801 . S
C234 C60 1.782 . S
C251 C61 1.136 . S
C270 C19 1.150 . S
C287 C20 1.663 . S
C306 C32 1.665 . S
C323 C31 1.111 . S
C342 C10 1.122 . S
