# Generated by pormake.
# Topology unh, (4)-cn, num edge types: 1
# Building blocks:
#     Node 0, Type 0, BuildingBlock: ESEHIV_clean_sbu_0, # of connection points: 4
#     Node 1, Type 0, BuildingBlock: ESEHIV_clean_sbu_0, # of connection points: 4
#     Node 2, Type 0, BuildingBlock: ESEHIV_clean_sbu_0, # of connection points: 4
#     Node 3, Type 0, BuildingBlock: ESEHIV_clean_sbu_0, # of connection points: 4
#     Node 4, Type 0, BuildingBlock: ESEHIV_clean_sbu_0, # of connection points: 4
#     Node 5, Type 0, BuildingBlock: ESEHIV_clean_sbu_0, # of connection points: 4
#     Edge 6, Type (0, 0), BuildingBlock: MIFKUJ_clean_linker_0, # of connection points: 2
#     Edge 7, Type (0, 0), BuildingBlock: MIFKUJ_clean_linker_0, # of connection points: 2
#     Edge 8, Type (0, 0), BuildingBlock: MIFKUJ_clean_linker_0, # of connection points: 2
#     Edge 9, Type (0, 0), BuildingBlock: MIFKUJ_clean_linker_0, # of connection points: 2
#     Edge 10, Type (0, 0), BuildingBlock: MIFKUJ_clean_linker_0, # of connection points: 2
#     Edge 11, Type (0, 0), BuildingBlock: MIFKUJ_clean_linker_0, # of connection points: 2
#     Edge 12, Type (0, 0), BuildingBlock: MIFKUJ_clean_linker_0, # of connection points: 2
#     Edge 13, Type (0, 0), BuildingBlock: MIFKUJ_clean_linker_0, # of connection points: 2
#     Edge 14, Type (0, 0), BuildingBlock: MIFKUJ_clean_linker_0, # of connection points: 2
#     Edge 15, Type (0, 0), BuildingBlock: MIFKUJ_clean_linker_0, # of connection points: 2
#     Edge 16, Type (0, 0), BuildingBlock: MIFKUJ_clean_linker_0, # of connection points: 2
#     Edge 17, Type (0, 0), BuildingBlock: MIFKUJ_clean_linker_0, # of connection points: 2
# Relax obj value: 0.010
# Max RMSD: 0.159
# Mean RMSD: 0.159
data_MOF--net-unh--node1-ESEHIV_clean_sbu_0--edge1-MIFKUJ_clean_linker_0
_symmetry_space_group_name_H-M    P1
_symmetry_Int_Tables_number       1
_symmetry_cell_setting            triclinic
loop_
_symmetry_equiv_pos_as_xyz
'x, y, z'
_cell_length_a     64.020513
_cell_length_b     63.944442
_cell_length_c     26.944663
_cell_angle_alpha  89.892519
_cell_angle_beta   89.796458
_cell_angle_gamma 119.48965
loop_
_atom_site_label
_atom_site_type_symbol
_atom_site_fract_x
_atom_site_fract_y
_atom_site_fract_z
_atom_type_partial_charge
Cu0 Cu 0.16951 0.57729 0.09824 0.0
N1 N 0.15413 0.56405 0.03812 0.0
N2 N 0.12687 0.54788 0.97771 0.0
C3 C 0.13083 0.55483 0.0258 0.0
C4 C 0.14851 0.55283 0.9595 0.0
C5 C 0.1652 0.56277 0.99671 0.0
O6 O 0.14594 0.57232 0.1496 0.0
C7 C 0.19053 0.62411 0.05532 0.0
O8 O 0.16989 0.61558 0.03234 0.0
H9 H 0.11721 0.55374 0.05121 0.0
H10 H 0.1842 0.56884 0.99382 0.0
N11 N 0.18598 0.56134 0.11784 0.0
N12 N 0.21275 0.55318 0.15373 0.0
C13 C 0.20455 0.56904 0.14955 0.0
C14 C 0.18219 0.53995 0.10136 0.0
C15 C 0.1986 0.53489 0.12321 0.0
C16 C 0.1317 0.58085 0.14803 0.0
O17 O 0.13337 0.59498 0.11098 0.0
H18 H 0.21182 0.58597 0.16892 0.0
H19 H 0.16863 0.52895 0.07469 0.0
O20 O 0.19339 0.61093 0.08703 0.0
H21 H 0.1521 0.5494 0.92199 0.0
H22 H 0.20018 0.51909 0.11603 0.0
Cu23 Cu 0.61364 0.15718 0.26072 0.0
N24 N 0.61498 0.13973 0.2065 0.0
N25 N 0.60453 0.11119 0.14884 0.0
C26 C 0.59776 0.1181 0.19053 0.0
C27 C 0.62688 0.1292 0.13851 0.0
C28 C 0.63324 0.14674 0.17407 0.0
O29 O 0.58907 0.13432 0.30587 0.0
C30 C 0.59781 0.19237 0.25795 0.0
O31 O 0.59085 0.18629 0.3042 0.0
H32 H 0.58046 0.10793 0.20854 0.0
H33 H 0.64996 0.16352 0.17607 0.0
N34 N 0.64363 0.17194 0.29155 0.0
N35 N 0.67736 0.19883 0.32905 0.0
C36 C 0.65566 0.19407 0.31163 0.0
C37 C 0.65809 0.16238 0.29667 0.0
C38 C 0.67889 0.1789 0.31965 0.0
C39 C 0.59087 0.13568 0.35296 0.0
O40 O 0.60895 0.1546 0.37308 0.0
H41 H 0.64883 0.20655 0.31262 0.0
H42 H 0.65381 0.14465 0.28421 0.0
O43 O 0.60718 0.18177 0.2345 0.0
H44 H 0.63796 0.12964 0.10765 0.0
H45 H 0.6939 0.17634 0.32913 0.0
Cu46 Cu 0.4694 0.59956 0.42858 0.0
N47 N 0.48265 0.59941 0.36689 0.0
N48 N 0.49931 0.5895 0.3047 0.0
C49 C 0.49236 0.58582 0.35286 0.0
C50 C 0.49376 0.6061 0.28804 0.0
C51 C 0.48352 0.61218 0.32647 0.0
O52 O 0.47397 0.57784 0.47185 0.0
C53 C 0.42147 0.57271 0.39426 0.0
O54 O 0.42834 0.55756 0.37875 0.0
H55 H 0.4937 0.57304 0.37717 0.0
H56 H 0.47693 0.62483 0.32503 0.0
N57 N 0.48572 0.63054 0.45466 0.0
N58 N 0.49341 0.66515 0.49034 0.0
C59 C 0.47633 0.64265 0.4781 0.0
C60 C 0.50947 0.64576 0.45213 0.0
C61 C 0.51428 0.66712 0.47403 0.0
C62 C 0.46309 0.5691 0.51268 0.0
O63 O 0.44634 0.57391 0.52754 0.0
H64 H 0.45731 0.63528 0.4849 0.0
H65 H 0.52234 0.64164 0.4351 0.0
O66 O 0.43609 0.59109 0.41878 0.0
H67 H 0.49695 0.61343 0.2508 0.0
H68 H 0.53182 0.68283 0.47784 0.0
Cu69 Cu 0.88849 0.45689 0.59974 0.0
N70 N 0.9022 0.47377 0.541 0.0
N71 N 0.92834 0.49228 0.47894 0.0
C72 C 0.92449 0.48101 0.52338 0.0
C73 C 0.90757 0.492 0.4685 0.0
C74 C 0.89154 0.48059 0.50674 0.0
O75 O 0.91405 0.45761 0.63978 0.0
C76 C 0.86691 0.41155 0.55246 0.0
O77 O 0.88851 0.41952 0.5337 0.0
H78 H 0.93756 0.47809 0.54296 0.0
H79 H 0.87327 0.47722 0.50921 0.0
N80 N 0.87486 0.47232 0.63514 0.0
N81 N 0.84905 0.47892 0.67931 0.0
C82 C 0.85185 0.46337 0.64987 0.0
C83 C 0.88693 0.49426 0.65561 0.0
C84 C 0.87109 0.49838 0.68292 0.0
C85 C 0.91194 0.45373 0.68637 0.0
O86 O 0.89101 0.44667 0.7077 0.0
H87 H 0.83768 0.44548 0.64082 0.0
H88 H 0.90607 0.50614 0.65197 0.0
O89 O 0.86342 0.42457 0.58332 0.0
H90 H 0.90394 0.49905 0.43509 0.0
H91 H 0.87548 0.51438 0.70409 0.0
Cu92 Cu 0.44528 0.8775 0.7629 0.0
N93 N 0.44509 0.89336 0.70469 0.0
N94 N 0.45579 0.9213 0.64505 0.0
C95 C 0.46147 0.91564 0.68958 0.0
C96 C 0.43499 0.90175 0.63199 0.0
C97 C 0.42847 0.88461 0.66876 0.0
O98 O 0.46854 0.90139 0.80779 0.0
C99 C 0.46982 0.85619 0.71614 0.0
O100 O 0.48356 0.87804 0.69888 0.0
H101 H 0.4774 0.92726 0.71055 0.0
H102 H 0.41269 0.86698 0.66939 0.0
N103 N 0.41464 0.8632 0.79152 0.0
N104 N 0.38056 0.83694 0.82973 0.0
C105 C 0.40252 0.84155 0.81396 0.0
C106 C 0.39995 0.87261 0.79321 0.0
C107 C 0.37893 0.85649 0.81665 0.0
C108 C 0.46645 0.89971 0.85484 0.0
O109 O 0.44879 0.88024 0.87481 0.0
H110 H 0.40956 0.82934 0.81801 0.0
H111 H 0.40427 0.89002 0.77834 0.0
O112 O 0.45286 0.8524 0.74602 0.0
H113 H 0.42495 0.89999 0.59856 0.0
H114 H 0.36376 0.85912 0.82403 0.0
Cu115 Cu 0.58597 0.43578 0.92916 0.0
N116 N 0.56508 0.43144 0.87709 0.0
N117 N 0.54451 0.43919 0.81987 0.0
C118 C 0.56054 0.44816 0.85731 0.0
C119 C 0.53879 0.4159 0.81619 0.0
C120 C 0.55148 0.41119 0.85153 0.0
O121 O 0.58768 0.46192 0.96903 0.0
C122 C 0.6362 0.45066 0.92406 0.0
O123 O 0.63669 0.45595 0.97127 0.0
H124 H 0.56914 0.46661 0.86977 0.0
H125 H 0.55082 0.39419 0.85827 0.0
N126 N 0.57295 0.40778 0.9677 0.0
N127 N 0.56858 0.37677 1.01395 0.0
C128 C 0.5835 0.39533 0.98433 0.0
C129 C 0.55069 0.3967 0.98711 0.0
C130 C 0.54793 0.37761 1.01562 0.0
C131 C 0.59056 0.46341 1.01588 0.0
O132 O 0.5953 0.4481 0.03888 0.0
H133 H 0.60189 0.40016 0.97601 0.0
H134 H 0.53749 0.40236 0.98135 0.0
O135 O 0.61655 0.44234 0.90044 0.0
H136 H 0.52612 0.40305 0.79028 0.0
H137 H 0.53189 0.36524 0.03583 0.0
H138 H 0.12136 0.55032 0.87845 0.0
H139 H 0.08394 0.53287 0.83229 0.0
H140 H 0.04387 0.50588 0.96859 0.0
H141 H 0.0815 0.52275 1.01517 0.0
H142 H 1.02593 0.4723 0.89629 0.0
H143 H 0.04697 0.55464 0.91165 0.0
H144 H 0.07307 0.59857 0.90664 0.0
H145 H 0.08001 0.59387 0.74906 0.0
H146 H 0.05422 0.54984 0.75322 0.0
H147 H 0.91391 0.44747 0.78655 0.0
H148 H 0.94973 0.4618 0.83809 0.0
H149 H 0.99454 0.48913 0.7077 0.0
H150 H 0.95886 0.47497 0.6559 0.0
H151 H 1.00888 0.52253 0.78089 0.0
H152 H 0.98815 0.43956 0.76703 0.0
H153 H 0.96164 0.39572 0.77329 0.0
H154 H 0.95328 0.4019 0.92986 0.0
H155 H 0.9795 0.44584 0.92441 0.0
C156 C 0.10467 0.54051 0.89876 0.0
C157 C 0.10454 0.53793 0.95067 0.0
C158 C 0.08321 0.53073 0.87226 0.0
C159 C 0.06104 0.51828 0.89695 0.0
C160 C 0.06076 0.51549 0.94873 0.0
C161 C 0.08229 0.52532 0.97537 0.0
C162 C 0.03827 0.5081 0.86835 0.0
C163 C 1.02201 0.48335 0.87165 0.0
C164 C 0.03331 0.52241 0.83551 0.0
C165 C 0.04884 0.5489 0.83283 0.0
C166 C 0.05422 0.56294 0.87598 0.0
C167 C 0.06893 0.58787 0.87328 0.0
C168 C 0.07824 0.599 0.82758 0.0
C169 C 0.07281 0.58522 0.78445 0.0
C170 C 0.05813 0.56028 0.78695 0.0
C171 C 0.93137 0.45627 0.76871 0.0
C172 C 0.93347 0.46009 0.71704 0.0
C173 C 0.95184 0.4644 0.79827 0.0
C174 C 0.97485 0.47651 0.77679 0.0
C175 C 0.97698 0.47989 0.72512 0.0
C176 C 0.95653 0.47166 0.69552 0.0
C177 C 0.9967 0.48668 0.80827 0.0
C178 C 1.01277 0.51148 0.80561 0.0
C179 C 1.00136 0.47243 0.84186 0.0
C180 C 0.98558 0.44602 0.8452 0.0
C181 C 0.98048 0.4316 0.80271 0.0
C182 C 0.96555 0.40672 0.80613 0.0
C183 C 0.95572 0.39604 0.85191 0.0
C184 C 0.96087 0.4102 0.8944 0.0
C185 C 0.97578 0.43509 0.89118 0.0
H186 H 0.94417 0.37677 0.85449 0.0
H187 H 0.08962 0.6183 0.82557 0.0
H188 H 0.46499 0.90317 0.95592 0.0
H189 H 0.48919 0.93827 1.0075 0.0
H190 H 0.52787 0.97839 0.8777 0.0
H191 H 0.50389 0.94328 0.82579 0.0
H192 H 0.55785 0.9868 0.95562 0.0
H193 H 0.48334 0.98593 0.92691 0.0
H194 H 0.43932 0.96817 0.92663 0.0
H195 H 0.4373 0.95858 0.0847 0.0
H196 H 0.48131 0.976 0.08581 0.0
H197 H 0.60845 0.1048 0.05045 0.0
H198 H 0.58567 0.06802 1.00289 0.0
H199 H 0.54636 0.03125 0.13495 0.0
H200 H 0.56911 0.06813 0.18285 0.0
H201 H 0.51675 0.02022 0.05812 0.0
H202 H 0.59135 0.02211 0.08754 0.0
H203 H 0.63536 0.03983 0.08802 0.0
H204 H 0.63732 0.04731 0.92941 0.0
H205 H 0.59333 0.02993 0.92805 0.0
C206 C 0.47877 0.91938 0.9383 0.0
C207 C 0.48239 0.92041 0.88661 0.0
C208 C 0.49252 0.93949 0.96787 0.0
C209 C 0.51012 0.96109 0.94641 0.0
C210 C 0.51434 0.96194 0.89507 0.0
C211 C 0.50058 0.94185 0.86543 0.0
C212 C 0.52373 0.98295 0.97727 0.0
C213 C 0.54888 0.99427 0.9776 0.0
C214 C 0.51203 0.9924 1.00691 0.0
C215 C 0.48558 0.98204 1.00636 0.0
C216 C 0.47349 0.97987 0.96155 0.0
C217 C 0.44854 0.96989 0.96126 0.0
C218 C 0.43551 0.96219 1.0056 0.0
C219 C 0.44741 0.96452 0.05036 0.0
C220 C 0.47236 0.97446 0.05086 0.0
C221 C 0.59514 0.08887 0.06958 0.0
C222 C 0.59077 0.08944 0.12065 0.0
C223 C 0.58209 0.0678 0.04227 0.0
C224 C 0.56453 0.0467 0.06542 0.0
C225 C 0.55984 0.04727 0.11624 0.0
C226 C 0.57283 0.06841 0.14358 0.0
C227 C 0.55092 0.02416 0.03642 0.0
C228 C 0.52575 1.01272 0.03637 0.0
C229 C 0.56262 1.01458 1.0071 0.0
C230 C 0.58906 0.02491 1.00775 0.0
C231 C 0.60118 0.02769 0.0528 0.0
C232 C 0.62612 0.03765 0.05322 0.0
C233 C 0.63913 0.04474 1.00879 0.0
C234 C 0.62722 0.04183 0.96381 0.0
C235 C 0.60228 0.0319 0.96318 0.0
H236 H 0.65844 0.05245 1.00919 0.0
H237 H 0.4162 0.95447 1.0053 0.0
H238 H 0.49583 0.58123 0.20559 0.0
H239 H 0.51337 0.56124 0.15785 0.0
H240 H 0.54371 0.55047 0.29162 0.0
H241 H 0.52656 0.57095 0.33961 0.0
H242 H 0.57593 0.56565 0.21479 0.0
H243 H 0.49497 0.50444 0.2429 0.0
H244 H 0.45089 0.48599 0.24373 0.0
H245 H 0.45088 0.49331 0.0853 0.0
H246 H 0.49503 0.51215 0.08358 0.0
H247 H 0.59835 0.47418 0.11481 0.0
H248 H 0.58524 0.49778 0.16416 0.0
H249 H 0.55689 0.51299 0.03253 0.0
H250 H 0.57004 0.4896 0.98286 0.0
H251 H 0.52406 0.49528 0.11021 0.0
H252 H 0.60582 0.5566 0.08349 0.0
H253 H 0.6498 0.57419 0.08442 0.0
H254 H 0.64807 0.56529 0.24265 0.0
H255 H 0.604 0.54732 0.24258 0.0
C256 C 0.5064 0.57483 0.22488 0.0
C257 C 0.50974 0.5777 0.27651 0.0
C258 C 0.51627 0.56321 0.19755 0.0
C259 C 0.52968 0.55414 0.2212 0.0
C260 C 0.53337 0.55726 0.27261 0.0
C261 C 0.52339 0.5688 0.30005 0.0
C262 C 0.53967 0.5413 0.19212 0.0
C263 C 0.56455 0.55006 0.19246 0.0
C264 C 0.52489 0.52119 0.16233 0.0
C265 C 0.49834 0.50995 0.16318 0.0
C266 C 0.4856 0.50233 0.20828 0.0
C267 C 0.46059 0.49175 0.2089 0.0
C268 C 0.4481 0.48854 0.16461 0.0
C269 C 0.46059 0.49585 0.11958 0.0
C270 C 0.4856 0.50646 0.11876 0.0
C271 C 0.58963 0.48283 0.09622 0.0
C272 C 0.58522 0.47995 0.04487 0.0
C273 C 0.58219 0.49635 0.12449 0.0
C274 C 0.57008 0.50714 0.10202 0.0
C275 C 0.56617 0.50478 0.05062 0.0
C276 C 0.57382 0.49149 0.02225 0.0
C277 C 0.56032 0.51977 0.13244 0.0
C278 C 0.53544 0.51089 0.13249 0.0
C279 C 0.57509 0.53962 0.16282 0.0
C280 C 0.60157 0.55037 0.16296 0.0
C281 C 0.61478 0.55817 0.11843 0.0
C282 C 0.63974 0.56826 0.11881 0.0
C283 C 0.65172 0.57079 0.16355 0.0
C284 C 0.63876 0.56328 0.20801 0.0
C285 C 0.6138 0.55316 0.20783 0.0
H286 H 0.67104 0.57862 0.16377 0.0
H287 H 0.42874 0.48033 0.16517 0.0
H288 H 0.94208 0.52681 0.40774 0.0
H289 H 0.97736 0.54222 0.35407 0.0
H290 H 0.99913 0.49597 0.42677 0.0
H291 H 0.96367 0.48019 0.4804 0.0
H292 H 0.03712 0.54084 0.41183 0.0
H293 H 0.97328 0.48137 0.31396 0.0
H294 H 0.93337 0.46129 0.27491 0.0
H295 H 0.95126 0.52539 0.19193 0.0
H296 H 0.99119 0.54598 0.23104 0.0
H297 H 0.12194 0.55048 0.22749 0.0
H298 H 0.08848 0.5365 0.2862 0.0
H299 H 0.06386 0.58032 0.21274 0.0
H300 H 0.09708 0.59414 0.15344 0.0
H301 H 1.02743 0.53622 0.2289 0.0
H302 H 0.09152 0.59569 0.32693 0.0
H303 H 0.13141 0.61555 0.3661 0.0
H304 H 0.11318 0.55124 0.44861 0.0
H305 H 0.07327 0.53088 0.40941 0.0
C306 C 0.95419 0.51971 0.41221 0.0
C307 C 0.94977 0.50204 0.44834 0.0
C308 C 0.97446 0.52863 0.38148 0.0
C309 C 0.99078 0.52006 0.38589 0.0
C310 C 0.9868 0.50287 0.42264 0.0
C311 C 0.96648 0.49389 0.45342 0.0
C312 C 1.01181 0.52887 0.35173 0.0
C313 C 0.035 0.53954 0.37184 0.0
C314 C 1.00912 0.52763 0.29948 0.0
C315 C 0.98514 0.51529 0.27581 0.0
C316 C 0.96864 0.49125 0.28769 0.0
C317 C 0.94602 0.47976 0.26549 0.0
C318 C 0.93976 0.49208 0.23106 0.0
C319 C 0.95613 0.51589 0.21867 0.0
C320 C 0.97876 0.52747 0.24081 0.0
C321 C 0.10953 0.55731 0.224 0.0
C322 C 0.11226 0.57347 0.18567 0.0
C323 C 0.09042 0.54935 0.25778 0.0
C324 C 0.0737 0.55748 0.25424 0.0
C325 C 0.07651 0.57377 0.21628 0.0
C326 C 0.09559 0.58173 0.18247 0.0
C327 C 0.05281 0.54839 0.28892 0.0
C328 C 0.02961 0.53757 0.26888 0.0
C329 C 0.05552 0.54948 0.34118 0.0
C330 C 0.07949 0.56169 0.36484 0.0
C331 C 0.09609 0.58572 0.35312 0.0
C332 C 0.11869 0.59708 0.37539 0.0
C333 C 0.12485 0.58465 0.40972 0.0
C334 C 0.10839 0.56084 0.42196 0.0
C335 C 0.08577 0.54939 0.39976 0.0
H336 H 0.14235 0.59347 0.42693 0.0
H337 H 0.92225 0.48315 0.2139 0.0
H338 H 0.59012 0.13236 0.45436 0.0
H339 H 0.56596 0.0969 0.50574 0.0
H340 H 0.53084 0.05618 0.37486 0.0
H341 H 0.55468 0.09169 0.32319 0.0
H342 H 0.49917 0.04516 0.44954 0.0
H343 H 0.57678 0.05178 0.42918 0.0
H344 H 0.62096 0.0721 0.43248 0.0
H345 H 0.61867 0.08103 0.58995 0.0
H346 H 0.57445 0.06104 0.58748 0.0
H347 H 0.45452 0.92744 0.5455 0.0
H348 H 0.47625 0.96476 0.49846 0.0
H349 H 0.50932 1.00289 0.63308 0.0
H350 H 0.48747 0.96556 0.68063 0.0
H351 H 0.54173 1.01599 0.55886 0.0
H352 H 0.46369 1.00783 0.57924 0.0
H353 H 0.41951 0.98711 0.57527 0.0
H354 H 0.42256 0.98062 0.41717 0.0
H355 H 0.46678 1.00102 0.42027 0.0
C356 C 0.57709 0.11594 0.43646 0.0
C357 C 0.57449 0.11487 0.38454 0.0
C358 C 0.56336 0.09562 0.46593 0.0
C359 C 0.54686 0.07371 0.44415 0.0
C360 C 0.54351 0.07284 0.39254 0.0
C361 C 0.55719 0.09318 0.36302 0.0
C362 C 0.53366 0.05154 0.47491 0.0
C363 C 0.50849 0.03865 0.47302 0.0
C364 C 0.54575 0.04324 0.50643 0.0
C365 C 0.57232 0.05514 0.50806 0.0
C366 C 0.58571 0.05824 0.46445 0.0
C367 C 0.61075 0.06967 0.46618 0.0
C368 C 0.62262 0.07791 0.51137 0.0
C369 C 0.60945 0.07467 0.55496 0.0
C370 C 0.5844 0.06328 0.55342 0.0
C371 C 0.46618 0.94375 0.56535 0.0
C372 C 0.46904 0.9434 0.61709 0.0
C373 C 0.47866 0.96513 0.53828 0.0
C374 C 0.49419 0.98675 0.56225 0.0
C375 C 0.49741 0.98645 0.61373 0.0
C376 C 0.48494 0.96504 0.64089 0.0
C377 C 0.50723 1.00957 0.53342 0.0
C378 C 0.53239 0.02256 0.5356 0.0
C379 C 0.49512 0.01791 0.50209 0.0
C380 C 0.46854 1.00577 0.50006 0.0
C381 C 0.45494 1.00183 0.54367 0.0
C382 C 0.42989 0.99017 0.54157 0.0
C383 C 0.41824 0.9825 0.49601 0.0
C384 C 0.43161 0.98655 0.45244 0.0
C385 C 0.45667 0.99818 0.45434 0.0
H386 H 0.39884 0.97347 0.49446 0.0
H387 H 0.64201 0.08675 0.51264 0.0
H388 H 0.52674 0.4282 0.72632 0.0
H389 H 0.51207 0.4498 0.67529 0.0
H390 H 0.52714 0.50054 0.79359 0.0
H391 H 0.54176 0.47896 0.845 0.0
H392 H 0.47597 0.45921 0.68575 0.0
H393 H 0.54493 0.55589 0.74303 0.0
H394 H 0.58648 0.57863 0.77378 0.0
H395 H 0.60338 0.52846 0.70384 0.0
H396 H 0.56203 0.50561 0.67215 0.0
H397 H 0.44145 0.54391 0.59788 0.0
H398 H 0.45443 0.52115 0.65055 0.0
H399 H 0.51411 0.53911 0.5518 0.0
H400 H 0.50129 0.56174 0.49901 0.0
H401 H 0.52794 0.54599 0.64901 0.0
H402 H 0.46697 0.48427 0.54877 0.0
H403 H 0.42664 0.46085 0.51256 0.0
H404 H 0.39595 0.43987 0.65843 0.0
H405 H 0.43611 0.46346 0.69557 0.0
C406 C 0.52676 0.44381 0.74177 0.0
C407 C 0.53557 0.45184 0.78984 0.0
C408 C 0.51838 0.45619 0.71244 0.0
C409 C 0.51868 0.47694 0.73035 0.0
C410 C 0.52709 0.48481 0.77859 0.0
C411 C 0.53553 0.47247 0.80793 0.0
C412 C 0.51046 0.49043 0.69822 0.0
C413 C 0.48731 0.47821 0.67791 0.0
C414 C 0.52532 0.51517 0.68738 0.0
C415 C 0.55032 0.52892 0.70569 0.0
C416 C 0.55754 0.54977 0.73409 0.0
C417 C 0.58105 0.56266 0.7517 0.0
C418 C 0.59753 0.55494 0.74091 0.0
C419 C 0.59057 0.53436 0.71233 0.0
C420 C 0.56709 0.52142 0.69459 0.0
C421 C 0.45729 0.54294 0.58728 0.0
C422 C 0.4703 0.55464 0.54416 0.0
C423 C 0.46466 0.52989 0.61738 0.0
C424 C 0.48523 0.52839 0.60506 0.0
C425 C 0.49823 0.54007 0.56211 0.0
C426 C 0.49079 0.55293 0.53184 0.0
C427 C 0.49339 0.51481 0.63695 0.0
C428 C 0.51653 0.52704 0.65722 0.0
C429 C 0.47866 0.49002 0.64716 0.0
C430 C 0.45451 0.47584 0.62496 0.0
C431 C 0.4516 0.47484 0.57315 0.0
C432 C 0.42878 0.4615 0.55245 0.0
C433 C 0.40873 0.44894 0.58318 0.0
C434 C 0.41149 0.44964 0.63468 0.0
C435 C 0.43428 0.46298 0.65557 0.0
H436 H 0.39108 0.43861 0.56708 0.0
H437 H 0.61572 0.56494 0.75462 0.0
H438 H 0.2474 0.59333 0.20008 0.0
H439 H 0.2812 0.59694 0.24782 0.0
H440 H 0.25845 0.52233 0.22079 0.0
H441 H 0.2239 0.51811 0.1755 0.0
H442 H 0.27285 0.53214 0.31157 0.0
H443 H 0.30567 0.57004 0.15446 0.0
H444 H 0.31392 0.5986 0.08562 0.0
H445 H 0.35012 0.65784 0.18575 0.0
H446 H 0.34181 0.62961 0.25534 0.0
H447 H 0.38424 0.53393 0.34943 0.0
H448 H 0.34744 0.53107 0.31591 0.0
H449 H 0.36923 0.60264 0.36765 0.0
H450 H 0.40601 0.60563 0.40157 0.0
H451 H 0.3554 0.59588 0.26877 0.0
H452 H 0.32445 0.55646 0.42498 0.0
H453 H 0.31671 0.52691 0.49141 0.0
H454 H 0.27762 0.46917 0.38944 0.0
H455 H 0.28542 0.49838 0.32217 0.0
C456 C 0.24927 0.57754 0.20455 0.0
C457 C 0.23272 0.55544 0.18307 0.0
C458 C 0.26889 0.57973 0.23161 0.0
C459 C 0.27273 0.56003 0.23724 0.0
C460 C 0.25603 0.53787 0.21685 0.0
C461 C 0.23629 0.53557 0.1903 0.0
C462 C 0.2942 0.56243 0.26384 0.0
C463 C 0.2909 0.54594 0.30178 0.0
C464 C 0.31782 0.58071 0.25197 0.0
C465 C 0.32289 0.59771 0.21018 0.0
C466 C 0.31523 0.58916 0.16185 0.0
C467 C 0.31995 0.60528 0.1227 0.0
C468 C 0.33247 0.63001 0.13134 0.0
C469 C 0.34038 0.63867 0.17914 0.0
C470 C 0.33568 0.62262 0.21844 0.0
C471 C 0.38109 0.54896 0.35424 0.0
C472 C 0.3981 0.57001 0.37819 0.0
C473 C 0.36 0.54727 0.33513 0.0
C474 C 0.35555 0.56663 0.33936 0.0
C475 C 0.3723 0.5875 0.36396 0.0
C476 C 0.39327 0.58912 0.38353 0.0
C477 C 0.33399 0.56548 0.31603 0.0
C478 C 0.33731 0.58219 0.27868 0.0
C479 C 0.31045 0.54724 0.32803 0.0
C480 C 0.30571 0.52962 0.36842 0.0
C481 C 0.31438 0.53746 0.4166 0.0
C482 C 0.30995 0.52077 0.45444 0.0
C483 C 0.29674 0.49618 0.44462 0.0
C484 C 0.28788 0.48822 0.39697 0.0
C485 C 0.29228 0.50484 0.35899 0.0
H486 H 0.29332 0.48328 0.47397 0.0
H487 H 0.3361 0.64247 0.10098 0.0
H488 H 0.72547 0.21745 0.32422 0.0
H489 H 0.75605 0.25322 0.36603 0.0
H490 H 0.70092 0.26533 0.42931 0.0
H491 H 0.67018 0.22962 0.38648 0.0
H492 H 0.73731 0.30656 0.4008 0.0
H493 H 0.72986 0.24107 0.49878 0.0
H494 H 0.72813 0.20231 0.51536 0.0
H495 H 0.80016 0.2308 0.46049 0.0
H496 H 0.80221 0.26965 0.44293 0.0
H497 H 0.81896 0.39274 0.57324 0.0
H498 H 0.78535 0.3562 0.53933 0.0
H499 H 0.83495 0.34203 0.45719 0.0
H500 H 0.86863 0.37842 0.49098 0.0
H501 H 0.79937 0.30136 0.50144 0.0
H502 H 0.80515 0.3666 0.40037 0.0
H503 H 0.80614 0.40518 0.386 0.0
H504 H 0.73598 0.3766 0.45109 0.0
H505 H 0.73472 0.33793 0.46647 0.0
C506 C 0.71983 0.22764 0.34723 0.0
C507 C 0.69537 0.22053 0.35244 0.0
C508 C 0.73734 0.24811 0.37124 0.0
C509 C 0.73083 0.26175 0.40185 0.0
C510 C 0.70643 0.25506 0.40614 0.0
C511 C 0.68887 0.23467 0.38159 0.0
C512 C 0.74958 0.28296 0.4291 0.0
C513 C 0.75061 0.3053 0.42348 0.0
C514 C 0.7672 0.28151 0.45835 0.0
C515 C 0.76611 0.25822 0.46918 0.0
C516 C 0.74528 0.23903 0.48995 0.0
C517 C 0.74425 0.21705 0.49956 0.0
C518 C 0.76401 0.21408 0.48889 0.0
C519 C 0.78486 0.23312 0.4687 0.0
C520 C 0.78598 0.25513 0.45897 0.0
C521 C 0.82275 0.38176 0.54824 0.0
C522 C 0.84653 0.38859 0.53471 0.0
C523 C 0.80348 0.36093 0.52869 0.0
C524 C 0.8076 0.3465 0.49526 0.0
C525 C 0.83133 0.3529 0.48283 0.0
C526 C 0.85057 0.37376 0.50214 0.0
C527 C 0.78725 0.32492 0.47248 0.0
C528 C 0.78592 0.30252 0.47903 0.0
C529 C 0.76925 0.32628 0.44456 0.0
C530 C 0.76995 0.34947 0.43505 0.0
C531 C 0.79001 0.3686 0.41197 0.0
C532 C 0.79061 0.39048 0.40358 0.0
C533 C 0.77117 0.39336 0.41775 0.0
C534 C 0.75105 0.37435 0.44021 0.0
C535 C 0.75038 0.35245 0.44874 0.0
H536 H 0.77166 0.41031 0.41123 0.0
H537 H 0.76317 0.19705 0.49634 0.0
H538 H 0.4423 0.80818 0.73805 0.0
H539 H 0.44556 0.77474 0.70234 0.0
H540 H 0.50708 0.82476 0.61644 0.0
H541 H 0.50375 0.85822 0.65135 0.0
H542 H 0.47628 0.78887 0.55968 0.0
H543 H 0.51254 0.79532 0.71914 0.0
H544 H 0.51453 0.79681 0.81054 0.0
H545 H 0.45276 0.72636 0.81922 0.0
H546 H 0.45022 0.72457 0.72783 0.0
H547 H 0.52123 0.7134 0.48012 0.0
H548 H 0.51597 0.7445 0.52116 0.0
H549 H 0.45275 0.69005 0.59583 0.0
H550 H 0.45818 0.65871 0.55543 0.0
H551 H 0.48207 0.7265 0.65891 0.0
H552 H 0.44652 0.71941 0.49987 0.0
H553 H 0.44439 0.71768 0.40852 0.0
H554 H 0.50444 0.7892 0.39912 0.0
H555 H 0.50716 0.79123 0.49047 0.0
C556 C 0.45667 0.8121 0.7119 0.0
C557 C 0.47276 0.83593 0.69758 0.0
C558 C 0.45854 0.79293 0.69159 0.0
C559 C 0.47666 0.79719 0.65685 0.0
C560 C 0.49293 0.82099 0.64307 0.0
C561 C 0.49104 0.84013 0.66325 0.0
C562 C 0.47823 0.77692 0.63345 0.0
C563 C 0.47787 0.77543 0.58143 0.0
C564 C 0.47953 0.75889 0.66173 0.0
C565 C 0.48104 0.75992 0.71666 0.0
C566 C 0.49926 0.78022 0.74055 0.0
C567 C 0.50051 0.78111 0.79235 0.0
C568 C 0.48374 0.76172 0.82067 0.0
C569 C 0.46572 0.74138 0.79724 0.0
C570 C 0.46437 0.74041 0.74544 0.0
C571 C 0.5063 0.70798 0.50554 0.0
C572 C 0.49012 0.68351 0.51443 0.0
C573 C 0.5032 0.72581 0.5287 0.0
C574 C 0.48384 0.71963 0.56125 0.0
C575 C 0.46778 0.69524 0.57074 0.0
C576 C 0.4708 0.67735 0.54731 0.0
C577 C 0.48048 0.73872 0.58523 0.0
C578 C 0.48043 0.73994 0.63725 0.0
C579 C 0.47877 0.75651 0.557 0.0
C580 C 0.47718 0.75538 0.50203 0.0
C581 C 0.4594 0.7347 0.47833 0.0
C582 C 0.45806 0.73368 0.42655 0.0
C583 C 0.4743 0.7533 0.39803 0.0
C584 C 0.49189 0.77401 0.42126 0.0
C585 C 0.49332 0.77511 0.47304 0.0
H586 H 0.47323 0.75248 0.35794 0.0
H587 H 0.48474 0.76244 0.86077 0.0
H588 H 0.64032 0.43759 0.82934 0.0
H589 H 0.6763 0.44201 0.78789 0.0
H590 H 0.71782 0.47493 0.91917 0.0
H591 H 0.68188 0.47065 0.96097 0.0
H592 H 0.74075 0.49933 0.83402 0.0
H593 H 0.70109 0.41748 0.89239 0.0
H594 H 0.66697 0.37639 0.90177 0.0
H595 H 0.66448 0.36698 0.74374 0.0
H596 H 0.69838 0.40816 0.73337 0.0
H597 H 0.8456 0.49537 0.76961 0.0
H598 H 0.80924 0.48998 0.81085 0.0
H599 H 0.76704 0.44913 0.68579 0.0
H600 H 0.80349 0.45393 0.64508 0.0
H601 H 0.74394 0.42875 0.76691 0.0
H602 H 0.78268 0.5098 0.70679 0.0
H603 H 0.81606 0.55113 0.69509 0.0
H604 H 0.81941 0.56255 0.85253 0.0
H605 H 0.78625 0.52117 0.86523 0.0
C606 C 0.65709 0.4458 0.84947 0.0
C607 C 0.65817 0.45372 0.8986 0.0
C608 C 0.67764 0.44822 0.82574 0.0
C609 C 0.69973 0.45858 0.85056 0.0
C610 C 0.70096 0.46683 0.89931 0.0
C611 C 0.68038 0.46432 0.9232 0.0
C612 C 0.72155 0.46091 0.82559 0.0
C613 C 0.74158 0.48387 0.81991 0.0
C614 C 0.72239 0.44082 0.80587 0.0
C615 C 0.70213 0.41599 0.81208 0.0
C616 C 0.69315 0.40672 0.85962 0.0
C617 C 0.67387 0.3834 0.86512 0.0
C618 C 0.66353 0.36911 0.82337 0.0
C619 C 0.67249 0.37808 0.77604 0.0
C620 C 0.69175 0.4014 0.77033 0.0
C621 C 0.82859 0.48535 0.7508 0.0
C622 C 0.82743 0.47527 0.70387 0.0
C623 C 0.80778 0.4823 0.77436 0.0
C624 C 0.78535 0.46959 0.75107 0.0
C625 C 0.78409 0.45909 0.70455 0.0
C626 C 0.80491 0.46183 0.68127 0.0
C627 C 0.76329 0.46723 0.77533 0.0
C628 C 0.74317 0.44425 0.78088 0.0
C629 C 0.76228 0.48736 0.79453 0.0
C630 C 0.78212 0.51231 0.78698 0.0
C631 C 0.79064 0.52108 0.73894 0.0
C632 C 0.80951 0.54452 0.73213 0.0
C633 C 0.81988 0.55944 0.77305 0.0
C634 C 0.81137 0.55097 0.82087 0.0
C635 C 0.79252 0.52753 0.82789 0.0
H636 H 0.83449 0.57758 0.76769 0.0
H637 H 0.6486 0.35106 0.8277 0.0
H638 H 0.38764 0.80699 0.89035 0.0
H639 H 0.35692 0.77158 0.93443 0.0
H640 H 0.30178 0.78321 0.87043 0.0
H641 H 0.33237 0.81866 0.82684 0.0
H642 H 0.29259 0.77293 0.96493 0.0
H643 H 0.31413 0.73859 0.82866 0.0
H644 H 0.34171 0.73179 0.7757 0.0
H645 H 0.36214 0.70452 0.90119 0.0
H646 H 0.3349 0.71146 0.95506 0.0
H647 H 0.18935 0.65831 0.99633 0.0
H648 H 0.22327 0.69541 0.96496 0.0
H649 H 0.27209 0.68041 0.04724 0.0
H650 H 0.23815 0.64314 0.0789 0.0
H651 H 0.28642 0.69277 0.95017 0.0
H652 H 0.26218 0.72459 0.08494 0.0
H653 H 0.23396 0.731 0.13653 0.0
H654 H 0.21787 0.76262 1.01212 0.0
H655 H 0.24575 0.75609 0.95956 0.0
C656 C 0.36897 0.80188 0.88534 0.0
C657 C 0.3625 0.8157 0.85502 0.0
C658 C 0.35138 0.78161 0.9106 0.0
C659 C 0.32693 0.77452 0.90552 0.0
C660 C 0.32048 0.78832 0.87524 0.0
C661 C 0.33803 0.80864 0.85033 0.0
C662 C 0.30797 0.75291 0.93187 0.0
C663 C 0.29112 0.75537 0.96123 0.0
C664 C 0.30636 0.73005 0.92833 0.0
C665 C 0.32269 0.7258 0.89599 0.0
C666 C 0.32465 0.73132 0.84504 0.0
C667 C 0.34019 0.72741 0.81485 0.0
C668 C 0.35373 0.7178 0.8351 0.0
C669 C 0.35168 0.71201 0.88557 0.0
C670 C 0.33618 0.71591 0.91594 0.0
C671 C 0.20726 0.66299 1.00826 0.0
C672 C 0.21099 0.64772 0.04021 0.0
C673 C 0.22666 0.68427 0.99035 0.0
C674 C 0.25025 0.69079 1.00389 0.0
C675 C 0.25405 0.67576 0.0363 0.0
C676 C 0.23461 0.65453 0.05459 0.0
C677 C 0.27088 0.71278 0.98249 0.0
C678 C 0.28803 0.71039 0.95413 0.0
C679 C 0.2727 0.73568 0.98669 0.0
C680 C 0.25591 0.73965 0.01819 0.0
C681 C 0.25248 0.73272 0.06846 0.0
C682 C 0.23657 0.73642 0.0979 0.0
C683 C 0.22409 0.74716 0.07758 0.0
C684 C 0.22753 0.75428 0.0278 0.0
C685 C 0.24341 0.75061 0.99817 0.0
H686 H 0.21178 0.75001 0.10045 0.0
H687 H 0.36575 0.71479 0.81167 0.0
H688 H 0.59881 0.36068 0.98467 0.0
H689 H 0.60562 0.33048 0.02661 0.0
H690 H 0.55618 0.32403 0.14261 0.0
H691 H 0.54957 0.35432 0.10133 0.0
H692 H 0.59704 0.32556 0.17965 0.0
H693 H 0.53808 0.28277 0.05298 0.0
H694 H 0.52268 0.27503 0.96734 0.0
H695 H 0.58174 0.26556 0.92105 0.0
H696 H 0.59766 0.27357 1.00635 0.0
H697 H 0.57431 0.21574 0.29186 0.0
H698 H 0.57075 0.24796 0.25064 0.0
H699 H 0.61301 0.24591 0.1276 0.0
H700 H 0.61604 0.2133 0.16784 0.0
H701 H 0.57731 0.24968 0.09309 0.0
H702 H 0.63625 0.29119 0.2178 0.0
H703 H 0.6532 0.2999 0.30215 0.0
H704 H 0.59684 0.31315 0.35084 0.0
H705 H 0.57936 0.30419 0.2669 0.0
C706 C 0.58959 0.35299 0.01934 0.0
C707 C 0.57349 0.35977 0.03942 0.0
C708 C 0.59337 0.33563 0.04312 0.0
C709 C 0.58122 0.32481 0.08753 0.0
C710 C 0.56569 0.33206 0.10833 0.0
C711 C 0.56177 0.34924 0.08443 0.0
C712 C 0.58416 0.30553 0.11192 0.0
C713 C 0.59251 0.30886 0.16096 0.0
C714 C 0.57884 0.28399 0.0871 0.0
C715 C 0.56919 0.27901 0.03591 0.0
C716 C 0.54788 0.27921 0.02446 0.0
C717 C 0.53904 0.27475 0.976 0.0
C718 C 0.55126 0.26987 0.93875 0.0
C719 C 0.57231 0.26938 0.94993 0.0
C720 C 0.58124 0.27386 0.99832 0.0
C721 C 0.58285 0.22215 0.25603 0.0
C722 C 0.59548 0.21192 0.23325 0.0
C723 C 0.58092 0.2407 0.23257 0.0
C724 C 0.59191 0.24969 0.1862 0.0
C725 C 0.60437 0.23936 0.1633 0.0
C726 C 0.60612 0.22069 0.18648 0.0
C727 C 0.59015 0.2696 0.16114 0.0
C728 C 0.58199 0.26639 0.1119 0.0
C729 C 0.59589 0.29136 0.18565 0.0
C730 C 0.60636 0.29678 0.23617 0.0
C731 C 0.62737 0.29577 0.24659 0.0
C732 C 0.63709 0.30079 0.29431 0.0
C733 C 0.62607 0.30701 0.33186 0.0
C734 C 0.60534 0.30829 0.32173 0.0
C735 C 0.59552 0.30326 0.27408 0.0
H736 H 0.63363 0.31089 0.36878 0.0
H737 H 0.54439 0.26642 0.90125 0.0
loop_
_geom_bond_atom_site_label_1
_geom_bond_atom_site_label_2
_geom_bond_distance
_geom_bond_site_symmetry_2
_ccdc_geom_bond_type
Cu0 N1 1.999 . S
Cu0 O6 1.974 . S
Cu0 N11 1.985 . S
Cu0 O20 1.959 . S
N1 Cu0 1.999 . S
N1 C3 1.263 . S
N1 C5 1.389 1_554 S
N2 C3 1.358 1_556 S
N2 C4 1.400 . S
C3 N1 1.263 . S
C3 N2 1.358 1_554 S
C3 H9 0.930 . S
C4 N2 1.400 . S
C4 C5 1.351 . S
C4 H21 0.930 . S
C5 N1 1.389 1_556 S
C5 C4 1.351 . S
C5 H10 0.930 . S
O6 Cu0 1.974 . S
O6 C16 1.282 . S
C7 O8 1.261 . S
C7 O20 1.251 . S
O8 C7 1.261 . S
H9 C3 0.930 . S
H10 C5 0.930 . S
N11 Cu0 1.985 . S
N11 C13 1.335 . S
N11 C14 1.390 . S
N12 C13 1.345 . S
N12 C15 1.336 . S
C13 N11 1.335 . S
C13 N12 1.345 . S
C13 H18 0.930 . S
C14 N11 1.390 . S
C14 C15 1.346 . S
C14 H19 0.930 . S
C15 N12 1.336 . S
C15 C14 1.346 . S
C15 H22 0.929 . S
C16 O6 1.282 . S
C16 O17 1.216 . S
O17 C16 1.216 . S
H18 C13 0.930 . S
H19 C14 0.930 . S
O20 Cu0 1.959 . S
O20 C7 1.251 . S
H21 C4 0.930 . S
H22 C15 0.929 . S
Cu23 N24 1.999 . S
Cu23 O29 1.974 . S
Cu23 N34 1.985 . S
Cu23 O43 1.959 . S
N24 Cu23 1.999 . S
N24 C26 1.263 . S
N24 C28 1.389 . S
N25 C26 1.358 . S
N25 C27 1.400 . S
C26 N24 1.263 . S
C26 N25 1.358 . S
C26 H32 0.930 . S
C27 N25 1.400 . S
C27 C28 1.351 . S
C27 H44 0.930 . S
C28 N24 1.389 . S
C28 C27 1.351 . S
C28 H33 0.930 . S
O29 Cu23 1.974 . S
O29 C39 1.282 . S
C30 O31 1.261 . S
C30 O43 1.251 . S
O31 C30 1.261 . S
H32 C26 0.930 . S
H33 C28 0.930 . S
N34 Cu23 1.985 . S
N34 C36 1.335 . S
N34 C37 1.390 . S
N35 C36 1.345 . S
N35 C38 1.336 . S
C36 N34 1.335 . S
C36 N35 1.345 . S
C36 H41 0.930 . S
C37 N34 1.390 . S
C37 C38 1.346 . S
C37 H42 0.930 . S
C38 N35 1.336 . S
C38 C37 1.346 . S
C38 H45 0.929 . S
C39 O29 1.282 . S
C39 O40 1.216 . S
O40 C39 1.216 . S
H41 C36 0.930 . S
H42 C37 0.930 . S
O43 Cu23 1.959 . S
O43 C30 1.251 . S
H44 C27 0.930 . S
H45 C38 0.929 . S
Cu46 N47 1.999 . S
Cu46 O52 1.974 . S
Cu46 N57 1.985 . S
Cu46 O66 1.959 . S
N47 Cu46 1.999 . S
N47 C49 1.263 . S
N47 C51 1.389 . S
N48 C49 1.358 . S
N48 C50 1.400 . S
C49 N47 1.263 . S
C49 N48 1.358 . S
C49 H55 0.930 . S
C50 N48 1.400 . S
C50 C51 1.351 . S
C50 H67 0.930 . S
C51 N47 1.389 . S
C51 C50 1.351 . S
C51 H56 0.930 . S
O52 Cu46 1.974 . S
O52 C62 1.282 . S
C53 O54 1.261 . S
C53 O66 1.251 . S
O54 C53 1.261 . S
H55 C49 0.930 . S
H56 C51 0.930 . S
N57 Cu46 1.985 . S
N57 C59 1.335 . S
N57 C60 1.390 . S
N58 C59 1.345 . S
N58 C61 1.336 . S
C59 N57 1.335 . S
C59 N58 1.345 . S
C59 H64 0.930 . S
C60 N57 1.390 . S
C60 C61 1.346 . S
C60 H65 0.930 . S
C61 N58 1.336 . S
C61 C60 1.346 . S
C61 H68 0.929 . S
C62 O52 1.282 . S
C62 O63 1.216 . S
O63 C62 1.216 . S
H64 C59 0.930 . S
H65 C60 0.930 . S
O66 Cu46 1.959 . S
O66 C53 1.251 . S
H67 C50 0.930 . S
H68 C61 0.929 . S
Cu69 N70 1.999 . S
Cu69 O75 1.974 . S
Cu69 N80 1.985 . S
Cu69 O89 1.959 . S
N70 Cu69 1.999 . S
N70 C72 1.263 . S
N70 C74 1.389 . S
N71 C72 1.358 . S
N71 C73 1.400 . S
C72 N70 1.263 . S
C72 N71 1.358 . S
C72 H78 0.930 . S
C73 N71 1.400 . S
C73 C74 1.351 . S
C73 H90 0.930 . S
C74 N70 1.389 . S
C74 C73 1.351 . S
C74 H79 0.930 . S
O75 Cu69 1.974 . S
O75 C85 1.282 . S
C76 O77 1.261 . S
C76 O89 1.251 . S
O77 C76 1.261 . S
H78 C72 0.930 . S
H79 C74 0.930 . S
N80 Cu69 1.985 . S
N80 C82 1.335 . S
N80 C83 1.390 . S
N81 C82 1.345 . S
N81 C84 1.336 . S
C82 N80 1.335 . S
C82 N81 1.345 . S
C82 H87 0.930 . S
C83 N80 1.390 . S
C83 C84 1.346 . S
C83 H88 0.930 . S
C84 N81 1.336 . S
C84 C83 1.346 . S
C84 H91 0.929 . S
C85 O75 1.282 . S
C85 O86 1.216 . S
O86 C85 1.216 . S
H87 C82 0.930 . S
H88 C83 0.930 . S
O89 Cu69 1.959 . S
O89 C76 1.251 . S
H90 C73 0.930 . S
H91 C84 0.929 . S
Cu92 N93 1.999 . S
Cu92 O98 1.974 . S
Cu92 N103 1.985 . S
Cu92 O112 1.959 . S
N93 Cu92 1.999 . S
N93 C95 1.263 . S
N93 C97 1.389 . S
N94 C95 1.358 . S
N94 C96 1.400 . S
C95 N93 1.263 . S
C95 N94 1.358 . S
C95 H101 0.930 . S
C96 N94 1.400 . S
C96 C97 1.351 . S
C96 H113 0.930 . S
C97 N93 1.389 . S
C97 C96 1.351 . S
C97 H102 0.930 . S
O98 Cu92 1.974 . S
O98 C108 1.282 . S
C99 O100 1.261 . S
C99 O112 1.251 . S
O100 C99 1.261 . S
H101 C95 0.930 . S
H102 C97 0.930 . S
N103 Cu92 1.985 . S
N103 C105 1.335 . S
N103 C106 1.390 . S
N104 C105 1.345 . S
N104 C107 1.336 . S
C105 N103 1.335 . S
C105 N104 1.345 . S
C105 H110 0.930 . S
C106 N103 1.390 . S
C106 C107 1.346 . S
C106 H111 0.930 . S
C107 N104 1.336 . S
C107 C106 1.346 . S
C107 H114 0.929 . S
C108 O98 1.282 . S
C108 O109 1.216 . S
O109 C108 1.216 . S
H110 C105 0.930 . S
H111 C106 0.930 . S
O112 Cu92 1.959 . S
O112 C99 1.251 . S
H113 C96 0.930 . S
H114 C107 0.929 . S
Cu115 N116 1.999 . S
Cu115 O121 1.974 . S
Cu115 N126 1.985 . S
Cu115 O135 1.959 . S
N116 Cu115 1.999 . S
N116 C118 1.263 . S
N116 C120 1.389 . S
N117 C118 1.358 . S
N117 C119 1.400 . S
C118 N116 1.263 . S
C118 N117 1.358 . S
C118 H124 0.930 . S
C119 N117 1.400 . S
C119 C120 1.351 . S
C119 H136 0.930 . S
C120 N116 1.389 . S
C120 C119 1.351 . S
C120 H125 0.930 . S
O121 Cu115 1.974 . S
O121 C131 1.282 . S
C122 O123 1.261 . S
C122 O135 1.251 . S
O123 C122 1.261 . S
H124 C118 0.930 . S
H125 C120 0.930 . S
N126 Cu115 1.985 . S
N126 C128 1.335 . S
N126 C129 1.390 1_556 S
N127 C128 1.345 1_554 S
N127 C130 1.336 . S
C128 N126 1.335 . S
C128 N127 1.345 1_556 S
C128 H133 0.930 . S
C129 N126 1.390 1_554 S
C129 C130 1.346 . S
C129 H134 0.930 . S
C130 N127 1.336 . S
C130 C129 1.346 . S
C130 H137 0.929 . S
C131 O121 1.282 . S
C131 O132 1.216 . S
O132 C131 1.216 . S
H133 C128 0.930 . S
H134 C129 0.930 . S
O135 Cu115 1.959 . S
O135 C122 1.251 . S
H136 C119 0.930 . S
H137 C130 0.929 . S
H138 C156 0.951 . S
H139 C158 0.951 . S
H140 C160 0.950 . S
H141 C161 0.950 . S
H142 C163 0.950 . S
H143 C166 0.950 . S
H144 C167 0.950 . S
H145 C169 0.950 . S
H146 C170 0.950 . S
H147 C171 0.951 . S
H148 C173 0.951 . S
H149 C175 0.950 . S
H150 C176 0.950 . S
H151 C178 0.950 . S
H152 C181 0.950 . S
H153 C182 0.950 . S
H154 C184 0.950 . S
H155 C185 0.950 . S
C156 H138 0.951 . S
C156 C157 1.366 . S
C156 C158 1.388 . S
C157 C156 1.366 . S
C157 C161 1.385 . S
C158 H139 0.951 . S
C158 C156 1.388 . S
C158 C159 1.366 . S
C159 C158 1.366 . S
C159 C160 1.414 . S
C159 C162 1.499 . S
C160 H140 0.950 . S
C160 C159 1.414 . S
C160 C161 1.374 . S
C161 H141 0.950 . S
C161 C157 1.385 . S
C161 C160 1.374 . S
C162 C159 1.499 . S
C162 C163 1.373 . S
C162 C164 1.389 1_455 S
C163 H142 0.950 . S
C163 C162 1.373 . S
C163 C179 1.377 1_455 S
C164 C162 1.389 1_655 S
C164 C165 1.524 . S
C164 C178 1.377 . S
C165 C164 1.524 . S
C165 C166 1.397 . S
C165 C170 1.363 . S
C166 H143 0.950 . S
C166 C165 1.397 . S
C166 C167 1.334 . S
C167 H144 0.950 . S
C167 C166 1.334 . S
C167 C168 1.287 . S
C168 C167 1.287 . S
C168 C169 1.524 . S
C168 H187 0.913 . S
C169 H145 0.950 . S
C169 C168 1.524 . S
C169 C170 1.415 . S
C170 H146 0.950 . S
C170 C165 1.363 . S
C170 C169 1.415 . S
C171 H147 0.951 . S
C171 C172 1.366 . S
C171 C173 1.388 . S
C172 C171 1.366 . S
C172 C176 1.385 . S
C173 H148 0.951 . S
C173 C171 1.388 . S
C173 C174 1.366 . S
C174 C173 1.366 . S
C174 C175 1.414 . S
C174 C177 1.499 . S
C175 H149 0.950 . S
C175 C174 1.414 . S
C175 C176 1.374 . S
C176 H150 0.950 . S
C176 C172 1.385 . S
C176 C175 1.374 . S
C177 C174 1.499 . S
C177 C178 1.373 . S
C177 C179 1.389 . S
C178 H151 0.950 . S
C178 C164 1.377 . S
C178 C177 1.373 . S
C179 C163 1.377 1_655 S
C179 C177 1.389 . S
C179 C180 1.524 . S
C180 C179 1.524 . S
C180 C181 1.397 . S
C180 C185 1.363 . S
C181 H152 0.950 . S
C181 C180 1.397 . S
C181 C182 1.334 . S
C182 H153 0.950 . S
C182 C181 1.334 . S
C182 C183 1.287 . S
C183 C182 1.287 . S
C183 C184 1.524 . S
C183 H186 0.999 . S
C184 H154 0.950 . S
C184 C183 1.524 . S
C184 C185 1.415 . S
C185 H155 0.950 . S
C185 C180 1.363 . S
C185 C184 1.415 . S
H186 C183 0.999 . S
H187 C168 0.913 . S
H188 C206 0.951 . S
H189 C208 0.951 . S
H190 C210 0.950 . S
H191 C211 0.950 . S
H192 C213 0.950 . S
H193 C216 0.950 . S
H194 C217 0.950 . S
H195 C219 0.950 . S
H196 C220 0.950 . S
H197 C221 0.951 . S
H198 C223 0.951 . S
H199 C225 0.950 . S
H200 C226 0.950 . S
H201 C228 0.950 . S
H202 C231 0.950 1_554 S
H203 C232 0.950 1_554 S
H204 C234 0.950 . S
H205 C235 0.950 . S
C206 H188 0.951 . S
C206 C207 1.366 . S
C206 C208 1.388 . S
C207 C206 1.366 . S
C207 C211 1.385 . S
C208 H189 0.951 . S
C208 C206 1.388 . S
C208 C209 1.366 . S
C209 C208 1.366 . S
C209 C210 1.414 . S
C209 C212 1.499 . S
C210 H190 0.950 . S
C210 C209 1.414 . S
C210 C211 1.374 . S
C211 H191 0.950 . S
C211 C207 1.385 . S
C211 C210 1.374 . S
C212 C209 1.499 . S
C212 C213 1.373 . S
C212 C214 1.389 . S
C213 H192 0.950 . S
C213 C212 1.373 . S
C213 C229 1.377 1_565 S
C214 C212 1.389 . S
C214 C215 1.524 1_556 S
C214 C228 1.377 1_556 S
C215 C214 1.524 1_554 S
C215 C216 1.397 1_554 S
C215 C220 1.363 . S
C216 H193 0.950 . S
C216 C215 1.397 1_556 S
C216 C217 1.334 . S
C217 H194 0.950 . S
C217 C216 1.334 . S
C217 C218 1.287 1_556 S
C218 C217 1.287 1_554 S
C218 C219 1.524 . S
C218 H237 0.913 . S
C219 H195 0.950 . S
C219 C218 1.524 . S
C219 C220 1.415 . S
C220 H196 0.950 . S
C220 C215 1.363 . S
C220 C219 1.415 . S
C221 H197 0.951 . S
C221 C222 1.366 . S
C221 C223 1.388 . S
C222 C221 1.366 . S
C222 C226 1.385 . S
C223 H198 0.951 . S
C223 C221 1.388 . S
C223 C224 1.366 . S
C224 C223 1.366 . S
C224 C225 1.414 . S
C224 C227 1.499 . S
C225 H199 0.950 . S
C225 C224 1.414 . S
C225 C226 1.374 . S
C226 H200 0.950 . S
C226 C222 1.385 . S
C226 C225 1.374 . S
C227 C224 1.499 . S
C227 C228 1.373 1_545 S
C227 C229 1.389 1_554 S
C228 H201 0.950 . S
C228 C214 1.377 1_554 S
C228 C227 1.373 1_565 S
C229 C213 1.377 1_545 S
C229 C227 1.389 1_556 S
C229 C230 1.524 . S
C230 C229 1.524 . S
C230 C231 1.397 . S
C230 C235 1.363 . S
C231 H202 0.950 1_556 S
C231 C230 1.397 . S
C231 C232 1.334 . S
C232 H203 0.950 1_556 S
C232 C231 1.334 . S
C232 C233 1.287 . S
C233 C232 1.287 . S
C233 C234 1.524 . S
C233 H236 0.999 . S
C234 H204 0.950 . S
C234 C233 1.524 . S
C234 C235 1.415 . S
C235 H205 0.950 . S
C235 C230 1.363 . S
C235 C234 1.415 . S
H236 C233 0.999 . S
H237 C218 0.913 . S
H238 C256 0.951 . S
H239 C258 0.951 . S
H240 C260 0.950 . S
H241 C261 0.950 . S
H242 C263 0.950 . S
H243 C266 0.950 . S
H244 C267 0.950 . S
H245 C269 0.950 . S
H246 C270 0.950 . S
H247 C271 0.951 . S
H248 C273 0.951 . S
H249 C275 0.950 . S
H250 C276 0.950 . S
H251 C278 0.950 . S
H252 C281 0.950 . S
H253 C282 0.949 . S
H254 C284 0.950 . S
H255 C285 0.950 . S
C256 H238 0.951 . S
C256 C257 1.366 . S
C256 C258 1.388 . S
C257 C256 1.366 . S
C257 C261 1.385 . S
C258 H239 0.951 . S
C258 C256 1.388 . S
C258 C259 1.366 . S
C259 C258 1.366 . S
C259 C260 1.414 . S
C259 C262 1.499 . S
C260 H240 0.950 . S
C260 C259 1.414 . S
C260 C261 1.374 . S
C261 H241 0.950 . S
C261 C257 1.385 . S
C261 C260 1.374 . S
C262 C259 1.499 . S
C262 C263 1.373 . S
C262 C264 1.389 . S
C263 H242 0.950 . S
C263 C262 1.373 . S
C263 C279 1.377 . S
C264 C262 1.389 . S
C264 C265 1.524 . S
C264 C278 1.377 . S
C265 C264 1.524 . S
C265 C266 1.397 . S
C265 C270 1.363 . S
C266 H243 0.950 . S
C266 C265 1.397 . S
C266 C267 1.334 . S
C267 H244 0.950 . S
C267 C266 1.334 . S
C267 C268 1.287 . S
C268 C267 1.287 . S
C268 C269 1.524 . S
C268 H287 0.913 . S
C269 H245 0.950 . S
C269 C268 1.524 . S
C269 C270 1.415 . S
C270 H246 0.950 . S
C270 C265 1.363 . S
C270 C269 1.415 . S
C271 H247 0.951 . S
C271 C272 1.366 . S
C271 C273 1.388 . S
C272 C271 1.366 . S
C272 C276 1.385 . S
C273 H248 0.951 . S
C273 C271 1.388 . S
C273 C274 1.366 . S
C274 C273 1.366 . S
C274 C275 1.414 . S
C274 C277 1.499 . S
C275 H249 0.950 . S
C275 C274 1.414 . S
C275 C276 1.374 . S
C276 H250 0.950 . S
C276 C272 1.385 . S
C276 C275 1.374 . S
C277 C274 1.499 . S
C277 C278 1.373 . S
C277 C279 1.389 . S
C278 H251 0.950 . S
C278 C264 1.377 . S
C278 C277 1.373 . S
C279 C263 1.377 . S
C279 C277 1.389 . S
C279 C280 1.524 . S
C280 C279 1.524 . S
C280 C281 1.397 . S
C280 C285 1.363 . S
C281 H252 0.950 . S
C281 C280 1.397 . S
C281 C282 1.335 1_554 S
C282 H253 0.949 . S
C282 C281 1.335 1_556 S
C282 C283 1.287 1_556 S
C283 C282 1.287 1_554 S
C283 C284 1.524 . S
C283 H286 0.999 1_554 S
C284 H254 0.950 . S
C284 C283 1.524 . S
C284 C285 1.415 . S
C285 H255 0.950 . S
C285 C280 1.363 . S
C285 C284 1.415 . S
H286 C283 0.999 1_556 S
H287 C268 0.913 . S
H288 C306 0.951 . S
H289 C308 0.951 . S
H290 C310 0.950 . S
H291 C311 0.950 . S
H292 C313 0.950 . S
H293 C316 0.950 . S
H294 C317 0.950 . S
H295 C319 0.950 . S
H296 C320 0.950 . S
H297 C321 0.951 . S
H298 C323 0.951 . S
H299 C325 0.950 . S
H300 C326 0.950 . S
H301 C328 0.950 . S
H302 C331 0.950 . S
H303 C332 0.950 . S
H304 C334 0.950 . S
H305 C335 0.950 . S
C306 H288 0.951 . S
C306 C307 1.366 . S
C306 C308 1.388 . S
C307 C306 1.366 . S
C307 C311 1.385 . S
C308 H289 0.951 . S
C308 C306 1.388 . S
C308 C309 1.366 . S
C309 C308 1.366 . S
C309 C310 1.414 . S
C309 C312 1.499 . S
C310 H290 0.950 . S
C310 C309 1.414 . S
C310 C311 1.374 . S
C311 H291 0.950 . S
C311 C307 1.385 . S
C311 C310 1.374 . S
C312 C309 1.499 . S
C312 C313 1.373 1_655 S
C312 C314 1.389 . S
C313 H292 0.950 . S
C313 C312 1.373 1_455 S
C313 C329 1.377 . S
C314 C312 1.389 . S
C314 C315 1.524 . S
C314 C328 1.377 1_655 S
C315 C314 1.524 . S
C315 C316 1.397 . S
C315 C320 1.363 . S
C316 H293 0.950 . S
C316 C315 1.397 . S
C316 C317 1.334 . S
C317 H294 0.950 . S
C317 C316 1.334 . S
C317 C318 1.287 . S
C318 C317 1.287 . S
C318 C319 1.524 . S
C318 H337 0.913 . S
C319 H295 0.950 . S
C319 C318 1.524 . S
C319 C320 1.415 . S
C320 H296 0.950 . S
C320 C315 1.363 . S
C320 C319 1.415 . S
C321 H297 0.951 . S
C321 C322 1.366 . S
C321 C323 1.388 . S
C322 C321 1.366 . S
C322 C326 1.385 . S
C323 H298 0.951 . S
C323 C321 1.388 . S
C323 C324 1.366 . S
C324 C323 1.366 . S
C324 C325 1.414 . S
C324 C327 1.499 . S
C325 H299 0.950 . S
C325 C324 1.414 . S
C325 C326 1.374 . S
C326 H300 0.950 . S
C326 C322 1.385 . S
C326 C325 1.374 . S
C327 C324 1.499 . S
C327 C328 1.373 . S
C327 C329 1.389 . S
C328 H301 0.950 . S
C328 C314 1.377 1_455 S
C328 C327 1.373 . S
C329 C313 1.377 . S
C329 C327 1.389 . S
C329 C330 1.524 . S
C330 C329 1.524 . S
C330 C331 1.397 . S
C330 C335 1.363 . S
C331 H302 0.950 . S
C331 C330 1.397 . S
C331 C332 1.334 . S
C332 H303 0.950 . S
C332 C331 1.334 . S
C332 C333 1.287 . S
C333 C332 1.287 . S
C333 C334 1.524 . S
C333 H336 0.999 . S
C334 H304 0.950 . S
C334 C333 1.524 . S
C334 C335 1.415 . S
C335 H305 0.950 . S
C335 C330 1.363 . S
C335 C334 1.415 . S
H336 C333 0.999 . S
H337 C318 0.913 . S
H338 C356 0.951 . S
H339 C358 0.951 . S
H340 C360 0.950 . S
H341 C361 0.950 . S
H342 C363 0.950 . S
H343 C366 0.950 . S
H344 C367 0.950 . S
H345 C369 0.950 . S
H346 C370 0.950 . S
H347 C371 0.951 . S
H348 C373 0.951 . S
H349 C375 0.950 . S
H350 C376 0.950 . S
H351 C378 0.950 . S
H352 C381 0.950 . S
H353 C382 0.950 . S
H354 C384 0.950 . S
H355 C385 0.950 . S
C356 H338 0.951 . S
C356 C357 1.366 . S
C356 C358 1.388 . S
C357 C356 1.366 . S
C357 C361 1.385 . S
C358 H339 0.951 . S
C358 C356 1.388 . S
C358 C359 1.366 . S
C359 C358 1.366 . S
C359 C360 1.414 . S
C359 C362 1.499 . S
C360 H340 0.950 . S
C360 C359 1.414 . S
C360 C361 1.374 . S
C361 H341 0.950 . S
C361 C357 1.385 . S
C361 C360 1.374 . S
C362 C359 1.499 . S
C362 C363 1.373 . S
C362 C364 1.389 . S
C363 H342 0.950 . S
C363 C362 1.373 . S
C363 C379 1.377 1_545 S
C364 C362 1.389 . S
C364 C365 1.524 . S
C364 C378 1.377 . S
C365 C364 1.524 . S
C365 C366 1.397 . S
C365 C370 1.363 . S
C366 H343 0.950 . S
C366 C365 1.397 . S
C366 C367 1.334 . S
C367 H344 0.950 . S
C367 C366 1.334 . S
C367 C368 1.287 . S
C368 C367 1.287 . S
C368 C369 1.524 . S
C368 H387 0.913 . S
C369 H345 0.950 . S
C369 C368 1.524 . S
C369 C370 1.415 . S
C370 H346 0.950 . S
C370 C365 1.363 . S
C370 C369 1.415 . S
C371 H347 0.951 . S
C371 C372 1.366 . S
C371 C373 1.388 . S
C372 C371 1.366 . S
C372 C376 1.385 . S
C373 H348 0.951 . S
C373 C371 1.388 . S
C373 C374 1.366 . S
C374 C373 1.366 . S
C374 C375 1.414 . S
C374 C377 1.499 . S
C375 H349 0.950 . S
C375 C374 1.414 . S
C375 C376 1.374 . S
C376 H350 0.950 . S
C376 C372 1.385 . S
C376 C375 1.374 . S
C377 C374 1.499 . S
C377 C378 1.373 1_565 S
C377 C379 1.389 . S
C378 H351 0.950 . S
C378 C364 1.377 . S
C378 C377 1.373 1_545 S
C379 C363 1.377 1_565 S
C379 C377 1.389 . S
C379 C380 1.524 . S
C380 C379 1.524 . S
C380 C381 1.397 . S
C380 C385 1.363 . S
C381 H352 0.950 . S
C381 C380 1.397 . S
C381 C382 1.334 . S
C382 H353 0.950 . S
C382 C381 1.334 . S
C382 C383 1.287 . S
C383 C382 1.287 . S
C383 C384 1.524 . S
C383 H386 0.999 . S
C384 H354 0.950 . S
C384 C383 1.524 . S
C384 C385 1.415 . S
C385 H355 0.950 . S
C385 C380 1.363 . S
C385 C384 1.415 . S
H386 C383 0.999 . S
H387 C368 0.913 . S
H388 C406 0.951 . S
H389 C408 0.951 . S
H390 C410 0.950 . S
H391 C411 0.950 . S
H392 C413 0.950 . S
H393 C416 0.950 . S
H394 C417 0.950 . S
H395 C419 0.950 . S
H396 C420 0.950 . S
H397 C421 0.951 . S
H398 C423 0.951 . S
H399 C425 0.950 . S
H400 C426 0.950 . S
H401 C428 0.950 . S
H402 C431 0.950 . S
H403 C432 0.950 . S
H404 C434 0.950 . S
H405 C435 0.950 . S
C406 H388 0.951 . S
C406 C407 1.366 . S
C406 C408 1.388 . S
C407 C406 1.366 . S
C407 C411 1.385 . S
C408 H389 0.951 . S
C408 C406 1.388 . S
C408 C409 1.366 . S
C409 C408 1.366 . S
C409 C410 1.414 . S
C409 C412 1.499 . S
C410 H390 0.950 . S
C410 C409 1.414 . S
C410 C411 1.374 . S
C411 H391 0.950 . S
C411 C407 1.385 . S
C411 C410 1.374 . S
C412 C409 1.499 . S
C412 C413 1.373 . S
C412 C414 1.389 . S
C413 H392 0.950 . S
C413 C412 1.373 . S
C413 C429 1.377 . S
C414 C412 1.389 . S
C414 C415 1.524 . S
C414 C428 1.377 . S
C415 C414 1.524 . S
C415 C416 1.397 . S
C415 C420 1.363 . S
C416 H393 0.950 . S
C416 C415 1.397 . S
C416 C417 1.334 . S
C417 H394 0.950 . S
C417 C416 1.334 . S
C417 C418 1.287 . S
C418 C417 1.287 . S
C418 C419 1.524 . S
C418 H437 0.913 . S
C419 H395 0.950 . S
C419 C418 1.524 . S
C419 C420 1.415 . S
C420 H396 0.950 . S
C420 C415 1.363 . S
C420 C419 1.415 . S
C421 H397 0.951 . S
C421 C422 1.366 . S
C421 C423 1.388 . S
C422 C421 1.366 . S
C422 C426 1.385 . S
C423 H398 0.951 . S
C423 C421 1.388 . S
C423 C424 1.366 . S
C424 C423 1.366 . S
C424 C425 1.414 . S
C424 C427 1.499 . S
C425 H399 0.950 . S
C425 C424 1.414 . S
C425 C426 1.374 . S
C426 H400 0.950 . S
C426 C422 1.385 . S
C426 C425 1.374 . S
C427 C424 1.499 . S
C427 C428 1.373 . S
C427 C429 1.389 . S
C428 H401 0.950 . S
C428 C414 1.377 . S
C428 C427 1.373 . S
C429 C413 1.377 . S
C429 C427 1.389 . S
C429 C430 1.524 . S
C430 C429 1.524 . S
C430 C431 1.397 . S
C430 C435 1.363 . S
C431 H402 0.950 . S
C431 C430 1.397 . S
C431 C432 1.334 . S
C432 H403 0.950 . S
C432 C431 1.334 . S
C432 C433 1.287 . S
C433 C432 1.287 . S
C433 C434 1.524 . S
C433 H436 0.999 . S
C434 H404 0.950 . S
C434 C433 1.524 . S
C434 C435 1.415 . S
C435 H405 0.950 . S
C435 C430 1.363 . S
C435 C434 1.415 . S
H436 C433 0.999 . S
H437 C418 0.913 . S
H438 C456 0.951 . S
H439 C458 0.951 . S
H440 C460 0.950 . S
H441 C461 0.950 . S
H442 C463 0.950 . S
H443 C466 0.950 . S
H444 C467 0.950 . S
H445 C469 0.950 . S
H446 C470 0.950 . S
H447 C471 0.951 . S
H448 C473 0.951 . S
H449 C475 0.950 . S
H450 C476 0.950 . S
H451 C478 0.950 . S
H452 C481 0.950 . S
H453 C482 0.950 . S
H454 C484 0.950 . S
H455 C485 0.950 . S
C456 H438 0.951 . S
C456 C457 1.366 . S
C456 C458 1.388 . S
C457 C456 1.366 . S
C457 C461 1.385 . S
C458 H439 0.951 . S
C458 C456 1.388 . S
C458 C459 1.366 . S
C459 C458 1.366 . S
C459 C460 1.414 . S
C459 C462 1.499 . S
C460 H440 0.950 . S
C460 C459 1.414 . S
C460 C461 1.374 . S
C461 H441 0.950 . S
C461 C457 1.385 . S
C461 C460 1.374 . S
C462 C459 1.499 . S
C462 C463 1.373 . S
C462 C464 1.389 . S
C463 H442 0.950 . S
C463 C462 1.373 . S
C463 C479 1.377 . S
C464 C462 1.389 . S
C464 C465 1.524 . S
C464 C478 1.377 . S
C465 C464 1.524 . S
C465 C466 1.397 . S
C465 C470 1.363 . S
C466 H443 0.950 . S
C466 C465 1.397 . S
C466 C467 1.334 . S
C467 H444 0.950 . S
C467 C466 1.334 . S
C467 C468 1.287 . S
C468 C467 1.287 . S
C468 C469 1.524 . S
C468 H487 0.913 . S
C469 H445 0.950 . S
C469 C468 1.524 . S
C469 C470 1.415 . S
C470 H446 0.950 . S
C470 C465 1.363 . S
C470 C469 1.415 . S
C471 H447 0.951 . S
C471 C472 1.366 . S
C471 C473 1.388 . S
C472 C471 1.366 . S
C472 C476 1.385 . S
C473 H448 0.951 . S
C473 C471 1.388 . S
C473 C474 1.366 . S
C474 C473 1.366 . S
C474 C475 1.414 . S
C474 C477 1.499 . S
C475 H449 0.950 . S
C475 C474 1.414 . S
C475 C476 1.374 . S
C476 H450 0.950 . S
C476 C472 1.385 . S
C476 C475 1.374 . S
C477 C474 1.499 . S
C477 C478 1.373 . S
C477 C479 1.389 . S
C478 H451 0.950 . S
C478 C464 1.377 . S
C478 C477 1.373 . S
C479 C463 1.377 . S
C479 C477 1.389 . S
C479 C480 1.524 . S
C480 C479 1.524 . S
C480 C481 1.397 . S
C480 C485 1.363 . S
C481 H452 0.950 . S
C481 C480 1.397 . S
C481 C482 1.334 . S
C482 H453 0.950 . S
C482 C481 1.334 . S
C482 C483 1.287 . S
C483 C482 1.287 . S
C483 C484 1.524 . S
C483 H486 0.999 . S
C484 H454 0.950 . S
C484 C483 1.524 . S
C484 C485 1.415 . S
C485 H455 0.950 . S
C485 C480 1.363 . S
C485 C484 1.415 . S
H486 C483 0.999 . S
H487 C468 0.913 . S
H488 C506 0.951 . S
H489 C508 0.951 . S
H490 C510 0.950 . S
H491 C511 0.950 . S
H492 C513 0.950 . S
H493 C516 0.950 . S
H494 C517 0.950 . S
H495 C519 0.950 . S
H496 C520 0.950 . S
H497 C521 0.951 . S
H498 C523 0.951 . S
H499 C525 0.950 . S
H500 C526 0.950 . S
H501 C528 0.950 . S
H502 C531 0.950 . S
H503 C532 0.950 . S
H504 C534 0.950 . S
H505 C535 0.950 . S
C506 H488 0.951 . S
C506 C507 1.366 . S
C506 C508 1.388 . S
C507 C506 1.366 . S
C507 C511 1.385 . S
C508 H489 0.951 . S
C508 C506 1.388 . S
C508 C509 1.366 . S
C509 C508 1.366 . S
C509 C510 1.414 . S
C509 C512 1.499 . S
C510 H490 0.950 . S
C510 C509 1.414 . S
C510 C511 1.374 . S
C511 H491 0.950 . S
C511 C507 1.385 . S
C511 C510 1.374 . S
C512 C509 1.499 . S
C512 C513 1.373 . S
C512 C514 1.389 . S
C513 H492 0.950 . S
C513 C512 1.373 . S
C513 C529 1.377 . S
C514 C512 1.389 . S
C514 C515 1.524 . S
C514 C528 1.377 . S
C515 C514 1.524 . S
C515 C516 1.397 . S
C515 C520 1.363 . S
C516 H493 0.950 . S
C516 C515 1.397 . S
C516 C517 1.334 . S
C517 H494 0.950 . S
C517 C516 1.334 . S
C517 C518 1.287 . S
C518 C517 1.287 . S
C518 C519 1.524 . S
C518 H537 0.913 . S
C519 H495 0.950 . S
C519 C518 1.524 . S
C519 C520 1.415 . S
C520 H496 0.950 . S
C520 C515 1.363 . S
C520 C519 1.415 . S
C521 H497 0.951 . S
C521 C522 1.366 . S
C521 C523 1.388 . S
C522 C521 1.366 . S
C522 C526 1.385 . S
C523 H498 0.951 . S
C523 C521 1.388 . S
C523 C524 1.366 . S
C524 C523 1.366 . S
C524 C525 1.414 . S
C524 C527 1.499 . S
C525 H499 0.950 . S
C525 C524 1.414 . S
C525 C526 1.374 . S
C526 H500 0.950 . S
C526 C522 1.385 . S
C526 C525 1.374 . S
C527 C524 1.499 . S
C527 C528 1.373 . S
C527 C529 1.389 . S
C528 H501 0.950 . S
C528 C514 1.377 . S
C528 C527 1.373 . S
C529 C513 1.377 . S
C529 C527 1.389 . S
C529 C530 1.524 . S
C530 C529 1.524 . S
C530 C531 1.397 . S
C530 C535 1.363 . S
C531 H502 0.950 . S
C531 C530 1.397 . S
C531 C532 1.334 . S
C532 H503 0.950 . S
C532 C531 1.334 . S
C532 C533 1.287 . S
C533 C532 1.287 . S
C533 C534 1.524 . S
C533 H536 0.999 . S
C534 H504 0.950 . S
C534 C533 1.524 . S
C534 C535 1.415 . S
C535 H505 0.950 . S
C535 C530 1.363 . S
C535 C534 1.415 . S
H536 C533 0.999 . S
H537 C518 0.913 . S
H538 C556 0.951 . S
H539 C558 0.951 . S
H540 C560 0.950 . S
H541 C561 0.950 . S
H542 C563 0.950 . S
H543 C566 0.950 . S
H544 C567 0.950 . S
H545 C569 0.950 . S
H546 C570 0.950 . S
H547 C571 0.951 . S
H548 C573 0.951 . S
H549 C575 0.950 . S
H550 C576 0.950 . S
H551 C578 0.950 . S
H552 C581 0.950 . S
H553 C582 0.950 . S
H554 C584 0.950 . S
H555 C585 0.950 . S
C556 H538 0.951 . S
C556 C557 1.366 . S
C556 C558 1.388 . S
C557 C556 1.366 . S
C557 C561 1.385 . S
C558 H539 0.951 . S
C558 C556 1.388 . S
C558 C559 1.366 . S
C559 C558 1.366 . S
C559 C560 1.414 . S
C559 C562 1.499 . S
C560 H540 0.950 . S
C560 C559 1.414 . S
C560 C561 1.374 . S
C561 H541 0.950 . S
C561 C557 1.385 . S
C561 C560 1.374 . S
C562 C559 1.499 . S
C562 C563 1.373 . S
C562 C564 1.389 . S
C563 H542 0.950 . S
C563 C562 1.373 . S
C563 C579 1.377 . S
C564 C562 1.389 . S
C564 C565 1.524 . S
C564 C578 1.377 . S
C565 C564 1.524 . S
C565 C566 1.397 . S
C565 C570 1.363 . S
C566 H543 0.950 . S
C566 C565 1.397 . S
C566 C567 1.334 . S
C567 H544 0.950 . S
C567 C566 1.334 . S
C567 C568 1.287 . S
C568 C567 1.287 . S
C568 C569 1.524 . S
C568 H587 0.913 . S
C569 H545 0.950 . S
C569 C568 1.524 . S
C569 C570 1.415 . S
C570 H546 0.950 . S
C570 C565 1.363 . S
C570 C569 1.415 . S
C571 H547 0.951 . S
C571 C572 1.366 . S
C571 C573 1.388 . S
C572 C571 1.366 . S
C572 C576 1.385 . S
C573 H548 0.951 . S
C573 C571 1.388 . S
C573 C574 1.366 . S
C574 C573 1.366 . S
C574 C575 1.414 . S
C574 C577 1.499 . S
C575 H549 0.950 . S
C575 C574 1.414 . S
C575 C576 1.374 . S
C576 H550 0.950 . S
C576 C572 1.385 . S
C576 C575 1.374 . S
C577 C574 1.499 . S
C577 C578 1.373 . S
C577 C579 1.389 . S
C578 H551 0.950 . S
C578 C564 1.377 . S
C578 C577 1.373 . S
C579 C563 1.377 . S
C579 C577 1.389 . S
C579 C580 1.524 . S
C580 C579 1.524 . S
C580 C581 1.397 . S
C580 C585 1.363 . S
C581 H552 0.950 . S
C581 C580 1.397 . S
C581 C582 1.334 . S
C582 H553 0.950 . S
C582 C581 1.334 . S
C582 C583 1.287 . S
C583 C582 1.287 . S
C583 C584 1.524 . S
C583 H586 0.999 . S
C584 H554 0.950 . S
C584 C583 1.524 . S
C584 C585 1.415 . S
C585 H555 0.950 . S
C585 C580 1.363 . S
C585 C584 1.415 . S
H586 C583 0.999 . S
H587 C568 0.913 . S
H588 C606 0.951 . S
H589 C608 0.951 . S
H590 C610 0.950 . S
H591 C611 0.950 . S
H592 C613 0.950 . S
H593 C616 0.950 . S
H594 C617 0.950 . S
H595 C619 0.950 . S
H596 C620 0.950 . S
H597 C621 0.951 . S
H598 C623 0.951 . S
H599 C625 0.950 . S
H600 C626 0.950 . S
H601 C628 0.950 . S
H602 C631 0.950 . S
H603 C632 0.950 . S
H604 C634 0.950 . S
H605 C635 0.950 . S
C606 H588 0.951 . S
C606 C607 1.366 . S
C606 C608 1.388 . S
C607 C606 1.366 . S
C607 C611 1.385 . S
C608 H589 0.951 . S
C608 C606 1.388 . S
C608 C609 1.366 . S
C609 C608 1.366 . S
C609 C610 1.414 . S
C609 C612 1.499 . S
C610 H590 0.950 . S
C610 C609 1.414 . S
C610 C611 1.374 . S
C611 H591 0.950 . S
C611 C607 1.385 . S
C611 C610 1.374 . S
C612 C609 1.499 . S
C612 C613 1.373 . S
C612 C614 1.389 . S
C613 H592 0.950 . S
C613 C612 1.373 . S
C613 C629 1.377 . S
C614 C612 1.389 . S
C614 C615 1.524 . S
C614 C628 1.377 . S
C615 C614 1.524 . S
C615 C616 1.397 . S
C615 C620 1.363 . S
C616 H593 0.950 . S
C616 C615 1.397 . S
C616 C617 1.334 . S
C617 H594 0.950 . S
C617 C616 1.334 . S
C617 C618 1.287 . S
C618 C617 1.287 . S
C618 C619 1.524 . S
C618 H637 0.913 . S
C619 H595 0.950 . S
C619 C618 1.524 . S
C619 C620 1.415 . S
C620 H596 0.950 . S
C620 C615 1.363 . S
C620 C619 1.415 . S
C621 H597 0.951 . S
C621 C622 1.366 . S
C621 C623 1.388 . S
C622 C621 1.366 . S
C622 C626 1.385 . S
C623 H598 0.951 . S
C623 C621 1.388 . S
C623 C624 1.366 . S
C624 C623 1.366 . S
C624 C625 1.414 . S
C624 C627 1.499 . S
C625 H599 0.950 . S
C625 C624 1.414 . S
C625 C626 1.374 . S
C626 H600 0.950 . S
C626 C622 1.385 . S
C626 C625 1.374 . S
C627 C624 1.499 . S
C627 C628 1.373 . S
C627 C629 1.389 . S
C628 H601 0.950 . S
C628 C614 1.377 . S
C628 C627 1.373 . S
C629 C613 1.377 . S
C629 C627 1.389 . S
C629 C630 1.524 . S
C630 C629 1.524 . S
C630 C631 1.397 . S
C630 C635 1.363 . S
C631 H602 0.950 . S
C631 C630 1.397 . S
C631 C632 1.334 . S
C632 H603 0.950 . S
C632 C631 1.334 . S
C632 C633 1.287 . S
C633 C632 1.287 . S
C633 C634 1.524 . S
C633 H636 0.999 . S
C634 H604 0.950 . S
C634 C633 1.524 . S
C634 C635 1.415 . S
C635 H605 0.950 . S
C635 C630 1.363 . S
C635 C634 1.415 . S
H636 C633 0.999 . S
H637 C618 0.913 . S
H638 C656 0.951 . S
H639 C658 0.951 . S
H640 C660 0.950 . S
H641 C661 0.950 . S
H642 C663 0.950 . S
H643 C666 0.950 . S
H644 C667 0.950 . S
H645 C669 0.950 . S
H646 C670 0.950 . S
H647 C671 0.949 1_554 S
H648 C673 0.951 . S
H649 C675 0.950 . S
H650 C676 0.950 1_554 S
H651 C678 0.950 . S
H652 C681 0.950 . S
H653 C682 0.950 . S
H654 C684 0.950 . S
H655 C685 0.950 1_556 S
C656 H638 0.951 . S
C656 C657 1.366 . S
C656 C658 1.388 . S
C657 C656 1.366 . S
C657 C661 1.385 . S
C658 H639 0.951 . S
C658 C656 1.388 . S
C658 C659 1.366 . S
C659 C658 1.366 . S
C659 C660 1.414 . S
C659 C662 1.499 . S
C660 H640 0.950 . S
C660 C659 1.414 . S
C660 C661 1.374 . S
C661 H641 0.950 . S
C661 C657 1.385 . S
C661 C660 1.374 . S
C662 C659 1.499 . S
C662 C663 1.373 . S
C662 C664 1.389 . S
C663 H642 0.950 . S
C663 C662 1.373 . S
C663 C679 1.377 . S
C664 C662 1.389 . S
C664 C665 1.524 . S
C664 C678 1.377 . S
C665 C664 1.524 . S
C665 C666 1.397 . S
C665 C670 1.363 . S
C666 H643 0.950 . S
C666 C665 1.397 . S
C666 C667 1.334 . S
C667 H644 0.950 . S
C667 C666 1.334 . S
C667 C668 1.287 . S
C668 C667 1.287 . S
C668 C669 1.524 . S
C668 H687 0.913 . S
C669 H645 0.950 . S
C669 C668 1.524 . S
C669 C670 1.415 . S
C670 H646 0.950 . S
C670 C665 1.363 . S
C670 C669 1.415 . S
C671 H647 0.949 1_556 S
C671 C672 1.364 1_556 S
C671 C673 1.391 . S
C672 C671 1.364 1_554 S
C672 C676 1.385 1_554 S
C673 H648 0.951 . S
C673 C671 1.391 . S
C673 C674 1.366 . S
C674 C673 1.366 . S
C674 C675 1.414 . S
C674 C677 1.499 . S
C675 H649 0.950 . S
C675 C674 1.414 . S
C675 C676 1.374 . S
C676 H650 0.950 1_556 S
C676 C672 1.385 1_556 S
C676 C675 1.374 . S
C677 C674 1.499 . S
C677 C678 1.373 . S
C677 C679 1.389 . S
C678 H651 0.950 . S
C678 C664 1.377 . S
C678 C677 1.373 . S
C679 C663 1.377 . S
C679 C677 1.389 . S
C679 C680 1.524 1_556 S
C680 C679 1.524 1_554 S
C680 C681 1.397 . S
C680 C685 1.363 . S
C681 H652 0.950 . S
C681 C680 1.397 . S
C681 C682 1.334 . S
C682 H653 0.950 . S
C682 C681 1.334 . S
C682 C683 1.287 . S
C683 C682 1.287 . S
C683 C684 1.524 . S
C683 H686 0.999 . S
C684 H654 0.950 . S
C684 C683 1.524 . S
C684 C685 1.415 . S
C685 H655 0.950 1_554 S
C685 C680 1.363 . S
C685 C684 1.415 . S
H686 C683 0.999 . S
H687 C668 0.913 . S
H688 C706 0.951 1_556 S
H689 C708 0.951 . S
H690 C710 0.950 . S
H691 C711 0.950 . S
H692 C713 0.950 . S
H693 C716 0.950 1_554 S
H694 C717 0.950 . S
H695 C719 0.950 . S
H696 C720 0.950 . S
H697 C721 0.951 . S
H698 C723 0.951 . S
H699 C725 0.950 . S
H700 C726 0.950 . S
H701 C728 0.950 . S
H702 C731 0.950 . S
H703 C732 0.950 . S
H704 C734 0.950 . S
H705 C735 0.950 . S
C706 H688 0.951 1_554 S
C706 C707 1.366 . S
C706 C708 1.388 . S
C707 C706 1.366 . S
C707 C711 1.385 . S
C708 H689 0.951 . S
C708 C706 1.388 . S
C708 C709 1.366 . S
C709 C708 1.366 . S
C709 C710 1.414 . S
C709 C712 1.499 . S
C710 H690 0.950 . S
C710 C709 1.414 . S
C710 C711 1.374 . S
C711 H691 0.950 . S
C711 C707 1.385 . S
C711 C710 1.374 . S
C712 C709 1.499 . S
C712 C713 1.373 . S
C712 C714 1.389 . S
C713 H692 0.950 . S
C713 C712 1.373 . S
C713 C729 1.377 . S
C714 C712 1.389 . S
C714 C715 1.524 1_554 S
C714 C728 1.377 . S
C715 C714 1.524 1_556 S
C715 C716 1.397 . S
C715 C720 1.363 . S
C716 H693 0.950 1_556 S
C716 C715 1.397 . S
C716 C717 1.334 . S
C717 H694 0.950 . S
C717 C716 1.334 . S
C717 C718 1.287 . S
C718 C717 1.287 . S
C718 C719 1.524 . S
C718 H737 0.913 . S
C719 H695 0.950 . S
C719 C718 1.524 . S
C719 C720 1.415 . S
C720 H696 0.950 . S
C720 C715 1.363 . S
C720 C719 1.415 . S
C721 H697 0.951 . S
C721 C722 1.366 . S
C721 C723 1.388 . S
C722 C721 1.366 . S
C722 C726 1.385 . S
C723 H698 0.951 . S
C723 C721 1.388 . S
C723 C724 1.366 . S
C724 C723 1.366 . S
C724 C725 1.414 . S
C724 C727 1.499 . S
C725 H699 0.950 . S
C725 C724 1.414 . S
C725 C726 1.374 . S
C726 H700 0.950 . S
C726 C722 1.385 . S
C726 C725 1.374 . S
C727 C724 1.499 . S
C727 C728 1.373 . S
C727 C729 1.389 . S
C728 H701 0.950 . S
C728 C714 1.377 . S
C728 C727 1.373 . S
C729 C713 1.377 . S
C729 C727 1.389 . S
C729 C730 1.524 . S
C730 C729 1.524 . S
C730 C731 1.397 . S
C730 C735 1.363 . S
C731 H702 0.950 . S
C731 C730 1.397 . S
C731 C732 1.334 . S
C732 H703 0.950 . S
C732 C731 1.334 . S
C732 C733 1.287 . S
C733 C732 1.287 . S
C733 C734 1.524 . S
C733 H736 0.999 . S
C734 H704 0.950 . S
C734 C733 1.524 . S
C734 C735 1.415 . S
C735 H705 0.950 . S
C735 C730 1.363 . S
C735 C734 1.415 . S
H736 C733 0.999 . S
H737 C718 0.913 . S
C157 N2 1.690 . S
C172 C85 1.746 . S
C207 C108 1.746 . S
C222 N25 1.690 . S
C257 N48 1.689 . S
C272 C131 1.746 1_554 S
C307 N71 1.690 . S
C322 C16 1.747 . S
C357 C39 1.746 . S
C372 N94 1.690 . S
C407 N117 1.689 . S
C422 C62 1.746 . S
C457 N12 1.614 . S
C472 C53 1.626 . S
C507 N35 1.614 . S
C522 C76 1.625 . S
C557 C99 1.626 . S
C572 N58 1.613 . S
C607 C122 1.625 . S
C622 N81 1.614 . S
C657 N104 1.613 . S
C672 C7 1.625 . S
C707 N127 1.614 . S
C722 C30 1.626 . S
