# Generated by pormake.
# Topology uog, (4)-cn, num edge types: 1
# Building blocks:
#     Node 0, Type 0, BuildingBlock: QUQFOY_clean_sbu_3, # of connection points: 4
#     Node 1, Type 0, BuildingBlock: QUQFOY_clean_sbu_3, # of connection points: 4
#     Node 2, Type 0, BuildingBlock: QUQFOY_clean_sbu_3, # of connection points: 4
#     Node 3, Type 0, BuildingBlock: QUQFOY_clean_sbu_3, # of connection points: 4
#     Node 4, Type 0, BuildingBlock: QUQFOY_clean_sbu_3, # of connection points: 4
#     Node 5, Type 0, BuildingBlock: QUQFOY_clean_sbu_3, # of connection points: 4
#     Edge 6, Type (0, 0), BuildingBlock: UVAHIK_clean_linker_0, # of connection points: 2
#     Edge 7, Type (0, 0), BuildingBlock: UVAHIK_clean_linker_0, # of connection points: 2
#     Edge 8, Type (0, 0), BuildingBlock: UVAHIK_clean_linker_0, # of connection points: 2
#     Edge 9, Type (0, 0), BuildingBlock: UVAHIK_clean_linker_0, # of connection points: 2
#     Edge 10, Type (0, 0), BuildingBlock: UVAHIK_clean_linker_0, # of connection points: 2
#     Edge 11, Type (0, 0), BuildingBlock: UVAHIK_clean_linker_0, # of connection points: 2
#     Edge 12, Type (0, 0), BuildingBlock: UVAHIK_clean_linker_0, # of connection points: 2
#     Edge 13, Type (0, 0), BuildingBlock: UVAHIK_clean_linker_0, # of connection points: 2
#     Edge 14, Type (0, 0), BuildingBlock: UVAHIK_clean_linker_0, # of connection points: 2
#     Edge 15, Type (0, 0), BuildingBlock: UVAHIK_clean_linker_0, # of connection points: 2
#     Edge 16, Type (0, 0), BuildingBlock: UVAHIK_clean_linker_0, # of connection points: 2
#     Edge 17, Type (0, 0), BuildingBlock: UVAHIK_clean_linker_0, # of connection points: 2
# Relax obj value: 0.082
# Max RMSD: 0.178
# Mean RMSD: 0.178
data_MOF--net-uog--node1-QUQFOY_clean_sbu_3--edge1-UVAHIK_clean_linker_0
_symmetry_space_group_name_H-M    P1
_symmetry_Int_Tables_number       1
_symmetry_cell_setting            triclinic
loop_
_symmetry_equiv_pos_as_xyz
'x, y, z'
_cell_length_a     36.84292
_cell_length_b     36.860415
_cell_length_c     55.366025
_cell_angle_alpha  89.946377
_cell_angle_beta   90.005314
_cell_angle_gamma 120.04925
loop_
_atom_site_label
_atom_site_type_symbol
_atom_site_fract_x
_atom_site_fract_y
_atom_site_fract_z
_atom_type_partial_charge
C0 C 0.71739 0.37796 0.18741 0.0
O1 O 0.73792 0.40961 0.17388 0.0
Cd2 Cd 0.70284 0.42212 0.14095 0.0
O3 O 0.67962 0.351 0.18237 0.0
Cd4 Cd 0.62429 0.33095 0.15202 0.0
C5 C 0.61586 0.41326 0.17096 0.0
O6 O 0.66691 0.36137 0.11577 0.0
O7 O 0.60098 0.342 0.11343 0.0
O8 O 0.62368 0.26519 0.15155 0.0
C9 C 0.63628 0.35705 0.10303 0.0
O10 O 0.65127 0.43515 0.16063 0.0
C11 C 0.58479 0.24172 0.15553 0.0
O12 O 0.59813 0.37334 0.17168 0.0
O13 O 0.56318 0.25972 0.15797 0.0
C14 C 0.37979 0.71738 0.522 0.0
O15 O 0.36602 0.7375 0.51017 0.0
Cd16 Cd 0.32073 0.70565 0.4758 0.0
O17 O 0.37224 0.68145 0.51495 0.0
Cd18 Cd 0.3401 0.62898 0.48301 0.0
C19 C 0.2465 0.61297 0.50331 0.0
O20 O 0.34862 0.67473 0.44903 0.0
O21 O 0.30645 0.60817 0.44415 0.0
O22 O 0.40716 0.63206 0.48116 0.0
C23 C 0.32342 0.6449 0.43542 0.0
O24 O 0.25766 0.64875 0.49406 0.0
C25 C 0.39326 0.5932 0.4843 0.0
O26 O 0.27107 0.59789 0.50307 0.0
O27 O 0.35373 0.57002 0.4867 0.0
C28 C 0.6217 0.33871 0.85276 0.0
O29 O 0.58795 0.32675 0.84108 0.0
Cd30 Cd 0.57199 0.27914 0.80762 0.0
O31 O 0.64779 0.3278 0.84599 0.0
Cd32 Cd 0.66313 0.29059 0.81474 0.0
C33 C 0.58188 0.2004 0.83564 0.0
O34 O 0.62959 0.30243 0.77975 0.0
O35 O 0.64787 0.25516 0.77648 0.0
O36 O 0.72932 0.35509 0.81191 0.0
C37 C 0.63244 0.27555 0.76671 0.0
O38 O 0.5594 0.21414 0.8264 0.0
C39 C 0.75269 0.33951 0.81557 0.0
O40 O 0.62185 0.22238 0.8352 0.0
O41 O 0.73444 0.30001 0.81875 0.0
C42 C 0.28506 0.65642 0.18946 0.0
O43 O 0.2647 0.62245 0.17776 0.0
Cd44 Cd 0.29547 0.60899 0.14286 0.0
O45 O 0.32094 0.68475 0.1822 0.0
Cd46 Cd 0.37293 0.70443 0.15 0.0
C47 C 0.38827 0.62573 0.16903 0.0
O48 O 0.32613 0.66821 0.11622 0.0
O49 O 0.39243 0.69187 0.11066 0.0
O50 O 0.37238 0.7698 0.14851 0.0
C51 C 0.35548 0.67277 0.10221 0.0
O52 O 0.3522 0.60138 0.16005 0.0
C53 C 0.4114 0.79368 0.15191 0.0
O54 O 0.40357 0.66541 0.16908 0.0
O55 O 0.4334 0.77608 0.15423 0.0
C56 C 0.66708 0.29238 0.51925 0.0
O57 O 0.6795 0.271 0.5076 0.0
Cd58 Cd 0.73132 0.30567 0.47628 0.0
O59 O 0.67992 0.33025 0.51347 0.0
Cd60 Cd 0.7218 0.38535 0.48436 0.0
C61 C 0.80852 0.39035 0.50778 0.0
O62 O 0.71304 0.34377 0.44798 0.0
O63 O 0.76266 0.40883 0.44797 0.0
O64 O 0.65838 0.38834 0.47959 0.0
C65 C 0.74232 0.37455 0.4366 0.0
O66 O 0.79502 0.35493 0.49755 0.0
C67 C 0.67377 0.42682 0.48465 0.0
O68 O 0.78731 0.4091 0.50717 0.0
O69 O 0.71285 0.44738 0.48936 0.0
C70 C 0.33806 0.62648 0.85489 0.0
O71 O 0.37199 0.63967 0.84316 0.0
Cd72 Cd 0.38635 0.68372 0.80807 0.0
O73 O 0.30986 0.63404 0.84746 0.0
Cd74 Cd 0.29059 0.66582 0.81473 0.0
C75 C 0.36927 0.75991 0.83376 0.0
O76 O 0.32758 0.6556 0.78126 0.0
O77 O 0.30408 0.69827 0.77547 0.0
O78 O 0.22545 0.59964 0.81291 0.0
C79 C 0.32351 0.68066 0.76721 0.0
O80 O 0.39358 0.74801 0.82497 0.0
C81 C 0.20129 0.61455 0.8158 0.0
O82 O 0.32952 0.73562 0.83373 0.0
O83 O 0.21864 0.65415 0.81809 0.0
C84 C 0.59246 0.17818 0.15676 0.0
C85 C 0.56618 0.19565 0.15691 0.0
C86 C 0.57562 0.13483 0.15724 0.0
C87 C 0.47901 0.03467 0.17124 0.0
H88 H 0.53172 0.98774 0.13119 0.0
C89 C 0.4035 0.8572 0.15275 0.0
C90 C 0.42978 0.83972 0.15326 0.0
C91 C 0.42032 0.90054 0.15403 0.0
C92 C 0.51695 1.00038 0.14269 0.0
H93 H 0.5015 0.18122 0.15797 0.0
H94 H 0.47185 0.10515 0.15837 0.0
H95 H 0.55983 0.06323 0.13166 0.0
H96 H 0.49437 0.85409 0.1556 0.0
H97 H 0.52386 0.93005 0.15776 0.0
H98 H 0.43574 0.97155 0.18195 0.0
C99 C 0.50562 0.12513 0.15823 0.0
C100 C 0.53305 0.04369 0.14299 0.0
C101 C 0.52256 0.1687 0.15788 0.0
C102 C 0.47332 0.8666 0.15511 0.0
C103 C 0.4902 0.91008 0.15624 0.0
C104 C 0.46276 0.99128 0.17084 0.0
C105 C 0.53199 0.10768 0.15771 0.0
C106 C 0.51437 0.06144 0.1573 0.0
C107 C 0.46385 0.92751 0.15573 0.0
C108 C 0.48157 0.97366 0.15656 0.0
H109 H 0.62625 0.19804 0.15624 0.0
H110 H 0.59692 0.12261 0.15734 0.0
H111 H 0.4642 0.04726 0.18274 0.0
H112 H 0.3698 0.83739 0.15134 0.0
H113 H 0.39922 0.91298 0.15328 0.0
C114 C 0.4658 0.60393 0.48548 0.0
C115 C 0.42223 0.57633 0.48523 0.0
C116 C 0.4936 0.5886 0.48629 0.0
C117 C 0.49965 0.49353 0.50097 0.0
H118 H 0.60227 0.54949 0.46343 0.0
C119 C 0.60292 0.42 0.48327 0.0
C120 C 0.64663 0.44581 0.48541 0.0
C121 C 0.5766 0.43701 0.48418 0.0
C122 C 0.574 0.53385 0.47423 0.0
H123 H 0.37364 0.51092 0.48558 0.0
H124 H 0.42222 0.48399 0.48643 0.0
H125 H 0.55364 0.57619 0.46276 0.0
H126 H 0.69699 0.50986 0.4901 0.0
H127 H 0.65072 0.53981 0.49147 0.0
H128 H 0.51975 0.45069 0.51201 0.0
C129 C 0.43492 0.51759 0.48647 0.0
C130 C 0.54608 0.54913 0.47388 0.0
C131 C 0.40704 0.53298 0.48584 0.0
C132 C 0.66346 0.48918 0.48838 0.0
C133 C 0.63701 0.50632 0.48908 0.0
C134 C 0.52743 0.47811 0.50117 0.0
C135 C 0.47859 0.54524 0.48667 0.0
C136 C 0.50845 0.52909 0.48719 0.0
C137 C 0.59326 0.48031 0.48709 0.0
C138 C 0.56481 0.49797 0.48772 0.0
H139 H 0.47857 0.63754 0.48521 0.0
H140 H 0.52692 0.61087 0.48687 0.0
H141 H 0.47144 0.47777 0.5118 0.0
H142 H 0.58886 0.38644 0.48097 0.0
H143 H 0.54311 0.41622 0.48226 0.0
C144 C 0.82556 0.34987 0.81786 0.0
C145 C 0.79889 0.36675 0.8162 0.0
C146 C 0.8692 0.37631 0.81814 0.0
C147 C 0.95185 0.48475 0.80226 0.0
H148 H 0.02189 0.46058 0.84375 0.0
C149 C 0.12806 0.60307 0.81731 0.0
C150 C 0.15519 0.58665 0.8165 0.0
C151 C 0.08454 0.57623 0.81766 0.0
C152 C 0.00276 0.46758 0.83193 0.0
H153 H 0.79708 0.42462 0.81399 0.0
H154 H 0.87258 0.47039 0.81496 0.0
H155 H 0.94615 0.4132 0.84345 0.0
H156 H 0.15793 0.52918 0.81565 0.0
H157 H 0.08226 0.48261 0.81627 0.0
H158 H 0.00845 0.5393 0.79092 0.0
C159 C 0.86012 0.43683 0.81548 0.0
C160 C 0.95935 0.44034 0.83169 0.0
C161 C 0.81671 0.41051 0.81508 0.0
C162 C 0.13791 0.54289 0.81626 0.0
C163 C 0.09452 0.51614 0.81678 0.0
C164 C 0.99518 0.51206 0.80261 0.0
C165 C 0.887 0.42015 0.81685 0.0
C166 C 0.93332 0.44861 0.81687 0.0
C167 C 0.06731 0.53246 0.8174 0.0
C168 C 0.02114 0.50379 0.81742 0.0
H169 H 0.81278 0.31628 0.81871 0.0
H170 H 0.88897 0.36235 0.81897 0.0
H171 H 0.93292 0.49173 0.79028 0.0
H172 H 0.14041 0.63662 0.81754 0.0
H173 H 0.06436 0.58974 0.81836 0.0
C174 C 0.17871 0.6073 0.51588 0.0
C175 C 0.20351 0.58839 0.51331 0.0
C176 C 0.13671 0.5837 0.52269 0.0
C177 C 0.04904 0.47642 0.51878 0.0
H178 H 0.99101 0.52145 0.55565 0.0
C179 C 0.87015 0.38696 0.52368 0.0
C180 C 0.85107 0.41089 0.51845 0.0
C181 C 0.91259 0.40643 0.52966 0.0
C182 C 0.00676 0.50846 0.5453 0.0
H183 H 0.20408 0.53014 0.5172 0.0
H184 H 0.13042 0.48875 0.52923 0.0
H185 H 0.06763 0.55926 0.55451 0.0
H186 H 0.86089 0.47395 0.51701 0.0
H187 H 0.93538 0.50814 0.52702 0.0
H188 H 0.98851 0.42651 0.50883 0.0
C189 C 0.14356 0.52189 0.52566 0.0
C190 C 0.05063 0.53007 0.54467 0.0
C191 C 0.18579 0.54562 0.51888 0.0
C192 C 0.87469 0.45466 0.52095 0.0
C193 C 0.91738 0.47423 0.52676 0.0
C194 C 0.00529 0.45486 0.51943 0.0
C195 C 0.11832 0.54052 0.52712 0.0
C196 C 0.07225 0.51477 0.53092 0.0
C197 C 0.93712 0.45035 0.53035 0.0
C198 C 0.98356 0.47103 0.53227 0.0
H199 H 0.19134 0.64025 0.51191 0.0
H200 H 0.11818 0.59903 0.52334 0.0
H201 H 0.06456 0.46406 0.50769 0.0
H202 H 0.85264 0.3531 0.52228 0.0
H203 H 0.92655 0.38707 0.53289 0.0
C204 C 0.43196 0.82843 0.8448 0.0
C205 C 0.38811 0.80346 0.84288 0.0
C206 C 0.45062 0.87078 0.85076 0.0
C207 C 0.4306 0.95808 0.84568 0.0
H208 H 0.53464 0.01807 0.88158 0.0
C209 C 0.51739 0.13698 0.85056 0.0
C210 C 0.5605 0.15714 0.84533 0.0
C211 C 0.49521 0.09435 0.85613 0.0
C212 C 0.50565 1.00176 0.87147 0.0
H213 H 0.32937 0.80306 0.84701 0.0
H214 H 0.3621 0.8773 0.85758 0.0
H215 H 0.49645 0.94146 0.88124 0.0
H216 H 0.61469 0.14891 0.8433 0.0
H217 H 0.57574 0.07403 0.85263 0.0
H218 H 0.44024 0.01804 0.83525 0.0
C219 C 0.38199 0.86402 0.85414 0.0
C220 C 0.48374 0.9579 0.87129 0.0
C221 C 0.36324 0.82145 0.8482 0.0
C222 C 0.5815 0.13426 0.84725 0.0
C223 C 0.55916 0.09137 0.85267 0.0
C224 C 0.45243 1.00182 0.84587 0.0
C225 C 0.42596 0.88936 0.85496 0.0
C226 C 0.44637 0.93557 0.85799 0.0
C227 C 0.5155 0.07069 0.85643 0.0
C228 C 0.4906 0.02423 0.85841 0.0
H229 H 0.45214 0.81562 0.84099 0.0
H230 H 0.48453 0.88937 0.85095 0.0
H231 H 0.40237 0.94199 0.83489 0.0
H232 H 0.50038 0.15386 0.84962 0.0
H233 H 0.46183 0.07964 0.8595 0.0
C234 C 0.45604 0.6321 0.18343 0.0
C235 C 0.41308 0.60708 0.17828 0.0
C236 C 0.48 0.61354 0.1894 0.0
C237 C 0.47286 0.51249 0.20712 0.0
H238 H 0.5753 0.55505 0.16993 0.0
C239 C 0.55072 0.41415 0.1834 0.0
C240 C 0.5945 0.4351 0.18064 0.0
C241 C 0.53041 0.43668 0.18883 0.0
C242 C 0.54727 0.54315 0.18088 0.0
H243 H 0.36117 0.54301 0.17679 0.0
H244 H 0.40284 0.51094 0.18689 0.0
H245 H 0.53702 0.59277 0.16965 0.0
H246 H 0.65157 0.49543 0.18344 0.0
H247 H 0.61637 0.53433 0.19345 0.0
H248 H 0.48263 0.46207 0.21773 0.0
C249 C 0.4181 0.54482 0.18649 0.0
C250 C 0.52529 0.56489 0.18073 0.0
C251 C 0.39426 0.56329 0.18046 0.0
C252 C 0.61771 0.47845 0.18505 0.0
C253 C 0.59752 0.50082 0.19068 0.0
C254 C 0.49492 0.4907 0.2073 0.0
C255 C 0.46144 0.56963 0.19047 0.0
C256 C 0.4874 0.54941 0.19344 0.0
C257 C 0.55355 0.4805 0.1918 0.0
C258 C 0.53201 0.5054 0.19382 0.0
H259 H 0.47147 0.66591 0.18203 0.0
H260 H 0.51327 0.63353 0.19265 0.0
H261 H 0.444 0.50002 0.21736 0.0
H262 H 0.53198 0.38079 0.18009 0.0
H263 H 0.49647 0.42004 0.18943 0.0
C264 C 0.59613 0.35793 0.8898 0.0
C265 C 0.62957 0.36183 0.87569 0.0
C266 C 0.603 0.37203 0.91371 0.0
C267 C 0.67513 0.38445 0.9624 0.0
H268 H 0.60969 0.42086 -0.00076 0.0
C269 C 0.68069 0.38811 0.06612 0.0
C270 C 0.64124 0.36958 0.07736 0.0
C271 C 0.68468 0.39837 0.04157 0.0
C272 C 0.62822 0.4107 0.98917 0.0
H273 H 0.69693 0.38765 0.87448 0.0
H274 H 0.70903 0.41313 0.9159 0.0
H275 H 0.60712 0.42097 0.95511 0.0
H276 H 0.57526 0.34845 0.07194 0.0
H277 H 0.58204 0.36539 0.02917 0.0
H278 H 0.69489 0.37245 -0.00378 0.0
C279 C 0.67735 0.398 0.90886 0.0
C280 C 0.62676 0.41082 0.96393 0.0
C281 C 0.67044 0.38355 0.88511 0.0
C282 C 0.6061 0.3626 0.06378 0.0
C283 C 0.61005 0.37273 0.03929 0.0
C284 C 0.67654 0.38429 0.98755 0.0
C285 C 0.64348 0.39058 0.92378 0.0
C286 C 0.64947 0.39675 0.95028 0.0
C287 C 0.64927 0.39021 0.02781 0.0
C288 C 0.65229 0.39638 0.00124 0.0
H289 H 0.5643 0.34134 0.88298 0.0
H290 H 0.57618 0.36567 0.92474 0.0
H291 H 0.69243 0.37266 0.95251 0.0
H292 H 0.7084 0.39424 0.07619 0.0
H293 H 0.71541 0.41224 0.0333 0.0
C294 C 0.28796 0.70156 0.2237 0.0
C295 C 0.27048 0.66147 0.21337 0.0
C296 C 0.28299 0.70612 0.24828 0.0
C297 C 0.23202 0.64814 0.30504 0.0
H298 H 0.34308 0.71951 0.33158 0.0
C299 C 0.28309 0.61835 0.39708 0.0
C300 C 0.31145 0.65242 0.41127 0.0
C301 C 0.27163 0.6249 0.3742 0.0
C302 C 0.31162 0.70017 0.32462 0.0
H303 H 0.23059 0.59496 0.22004 0.0
H304 H 0.22274 0.60276 0.26307 0.0
H305 H 0.33146 0.72171 0.28868 0.0
H306 H 0.34915 0.72017 0.41292 0.0
H307 H 0.32908 0.73168 0.37277 0.0
H308 H 0.21285 0.62528 0.34106 0.0
C309 C 0.2399 0.63078 0.25222 0.0
C310 C 0.30487 0.70146 0.29994 0.0
C311 C 0.2445 0.62625 0.22753 0.0
C312 C 0.32753 0.69329 0.40229 0.0
C313 C 0.31601 0.69986 0.37933 0.0
C314 C 0.2388 0.64685 0.32979 0.0
C315 C 0.2609 0.67065 0.26306 0.0
C316 C 0.26532 0.67456 0.28973 0.0
C317 C 0.2882 0.66567 0.36496 0.0
C318 C 0.27902 0.6719 0.33969 0.0
H319 H 0.30757 0.72935 0.21309 0.0
H320 H 0.29862 0.73732 0.25598 0.0
H321 H 0.20107 0.62747 0.29777 0.0
H322 H 0.27006 0.58645 0.4035 0.0
H323 H 0.25078 0.59784 0.36344 0.0
C324 C 0.60144 0.29037 0.73027 0.0
C325 C 0.61904 0.26833 0.74118 0.0
C326 C 0.59118 0.28492 0.70571 0.0
C327 C 0.57898 0.21792 0.65228 0.0
H328 H 0.62209 0.32261 0.61733 0.0
C329 C 0.64227 0.24442 0.55506 0.0
C330 C 0.64083 0.27543 0.54105 0.0
C331 C 0.62512 0.23552 0.57832 0.0
C332 C 0.60887 0.29287 0.6267 0.0
H333 H 0.6381 0.22206 0.7352 0.0
H334 H 0.62129 0.21341 0.69248 0.0
H335 H 0.61893 0.32277 0.66099 0.0
H336 H 0.61623 0.3179 0.5391 0.0
H337 H 0.58548 0.30164 0.57935 0.0
H338 H 0.57095 0.18845 0.61778 0.0
C339 C 0.61464 0.23433 0.70282 0.0
C340 C 0.60706 0.29299 0.65184 0.0
C341 C 0.62474 0.23967 0.72731 0.0
C342 C 0.61846 0.29437 0.54971 0.0
C343 C 0.60097 0.28517 0.57278 0.0
C344 C 0.58089 0.21781 0.62705 0.0
C345 C 0.59843 0.25742 0.69161 0.0
C346 C 0.5933 0.25575 0.66497 0.0
C347 C 0.60595 0.25724 0.5878 0.0
C348 C 0.59695 0.2555 0.61404 0.0
H349 H 0.59628 0.31235 0.74058 0.0
H350 H 0.57827 0.30281 0.69766 0.0
H351 H 0.56752 0.18857 0.66188 0.0
H352 H 0.6593 0.22931 0.5488 0.0
H353 H 0.62965 0.21394 0.58945 0.0
C354 C 0.29308 0.58594 0.88971 0.0
C355 C 0.33298 0.60728 0.87897 0.0
C356 C 0.28889 0.57663 0.91432 0.0
C357 C 0.34733 0.58099 0.97033 0.0
H358 H 0.27931 0.62335 -0.00165 0.0
C359 C 0.3807 0.65938 0.06325 0.0
C360 C 0.34717 0.6541 0.07782 0.0
C361 C 0.37341 0.64217 0.04014 0.0
C362 C 0.29771 0.6105 -0.00904 0.0
H363 H 0.39939 0.63192 0.885 0.0
H364 H 0.39227 0.61662 0.92809 0.0
H365 H 0.27593 0.61041 0.95528 0.0
H366 H 0.27957 0.62568 0.07986 0.0
H367 H 0.26675 0.59554 0.0393 0.0
H368 H 0.37046 0.58304 0.00609 0.0
C369 C 0.3641 0.60661 0.91752 0.0
C370 C 0.29574 0.60296 0.96619 0.0
C371 C 0.36824 0.61554 0.8928 0.0
C372 C 0.30605 0.63057 0.06896 0.0
C373 C 0.29874 0.61332 0.04576 0.0
C374 C 0.34932 0.58857 -0.00484 0.0
C375 C 0.32456 0.58891 0.92874 0.0
C376 C 0.32141 0.58929 0.95547 0.0
C377 C 0.3324 0.61924 0.03103 0.0
C378 C 0.32546 0.60465 0.0056 0.0
H379 H 0.26522 0.57852 0.87938 0.0
H380 H 0.2579 0.56199 0.92232 0.0
H381 H 0.36705 0.56989 0.96266 0.0
H382 H 0.41278 0.67728 0.06957 0.0
H383 H 0.40009 0.64801 0.02912 0.0
C384 C 0.72574 0.33603 0.39719 0.0
C385 C 0.75211 0.37143 0.41109 0.0
C386 C 0.73352 0.33506 0.37255 0.0
C387 C 0.78255 0.40786 0.32217 0.0
H388 H 0.75626 0.30701 0.28667 0.0
C389 C 0.77353 0.40677 0.21918 0.0
C390 C 0.73563 0.37368 0.2103 0.0
C391 C 0.78677 0.4051 0.24262 0.0
C392 C 0.7639 0.33548 0.29635 0.0
H393 H 0.80876 0.43242 0.41049 0.0
H394 H 0.82251 0.43048 0.36768 0.0
H395 H 0.75778 0.30639 0.33081 0.0
H396 H 0.68385 0.31138 0.21823 0.0
H397 H 0.70646 0.30885 0.25899 0.0
H398 H 0.7868 0.4365 0.28799 0.0
C399 C 0.79537 0.40386 0.37563 0.0
C400 C 0.76466 0.33508 0.32159 0.0
C401 C 0.78749 0.40492 0.40018 0.0
C402 C 0.71299 0.33765 0.22461 0.0
C403 C 0.72619 0.33599 0.24796 0.0
C404 C 0.78173 0.40824 0.297 0.0
C405 C 0.76792 0.3694 0.36141 0.0
C406 C 0.77285 0.37097 0.33477 0.0
C407 C 0.76241 0.3703 0.25756 0.0
C408 C 0.77117 0.37173 0.28381 0.0
H409 H 0.69833 0.3097 0.40514 0.0
H410 H 0.71152 0.30821 0.36203 0.0
H411 H 0.78843 0.43591 0.33174 0.0
H412 H 0.79189 0.4348 0.20852 0.0
H413 H 0.81521 0.43177 0.2494 0.0
C414 C 0.36827 0.67552 0.73477 0.0
C415 C 0.34361 0.6921 0.7432 0.0
C416 C 0.38714 0.68676 0.71199 0.0
C417 C 0.41413 0.76418 0.6622 0.0
H418 H 0.39646 0.67128 0.62152 0.0
C419 C 0.39028 0.75853 0.55978 0.0
C420 C 0.3994 0.73223 0.5459 0.0
C421 C 0.39904 0.76322 0.58451 0.0
C422 C 0.40279 0.69793 0.63268 0.0
H423 H 0.32 0.734 0.73459 0.0
H424 H 0.35204 0.7528 0.69485 0.0
H425 H 0.38117 0.65968 0.66431 0.0
H426 H 0.42971 0.69473 0.54617 0.0
H427 H 0.44595 0.70381 0.58914 0.0
H428 H 0.43391 0.80196 0.63018 0.0
C429 C 0.35756 0.73179 0.70591 0.0
C430 C 0.39389 0.69119 0.65729 0.0
C431 C 0.33876 0.72059 0.72861 0.0
C432 C 0.42163 0.71459 0.55655 0.0
C433 C 0.43077 0.71963 0.58118 0.0
C434 C 0.42305 0.77095 0.63752 0.0
C435 C 0.38172 0.71481 0.69725 0.0
C436 C 0.39811 0.72388 0.67217 0.0
C437 C 0.41741 0.74199 0.59568 0.0
C438 C 0.41621 0.73756 0.62236 0.0
H439 H 0.37286 0.65378 0.74571 0.0
H440 H 0.4058 0.67335 0.70586 0.0
H441 H 0.41845 0.7902 0.67334 0.0
H442 H 0.37321 0.77259 0.55204 0.0
H443 H 0.38822 0.78061 0.59514 0.0
loop_
_geom_bond_atom_site_label_1
_geom_bond_atom_site_label_2
_geom_bond_distance
_geom_bond_site_symmetry_2
_ccdc_geom_bond_type
C0 O1 1.306 . S
C0 O3 1.160 . S
O1 C0 1.306 . S
O1 Cd2 2.228 . S
Cd2 O1 2.228 . S
Cd2 O6 2.273 . S
Cd2 O10 2.277 . S
O3 C0 1.160 . S
O3 Cd4 2.203 . S
Cd4 O3 2.203 . S
Cd4 O6 2.411 . S
Cd4 O7 2.333 . S
Cd4 O8 2.352 . S
Cd4 O12 2.277 . S
Cd4 O13 2.356 . S
C5 O10 1.209 . S
C5 O12 1.226 . S
O6 Cd2 2.273 . S
O6 Cd4 2.411 . S
O6 C9 1.320 . S
O7 Cd4 2.333 . S
O7 C9 1.214 . S
O8 Cd4 2.352 . S
O8 C11 1.258 . S
C9 O6 1.320 . S
C9 O7 1.214 . S
O10 Cd2 2.277 . S
O10 C5 1.209 . S
C11 O8 1.258 . S
C11 O13 1.282 . S
O12 Cd4 2.277 . S
O12 C5 1.226 . S
O13 Cd4 2.356 . S
O13 C11 1.282 . S
C14 O15 1.306 . S
C14 O17 1.160 . S
O15 C14 1.306 . S
O15 Cd16 2.228 . S
Cd16 O15 2.228 . S
Cd16 O20 2.273 . S
Cd16 O24 2.277 . S
O17 C14 1.160 . S
O17 Cd18 2.203 . S
Cd18 O17 2.203 . S
Cd18 O20 2.411 . S
Cd18 O21 2.333 . S
Cd18 O22 2.352 . S
Cd18 O26 2.277 . S
Cd18 O27 2.356 . S
C19 O24 1.209 . S
C19 O26 1.226 . S
O20 Cd16 2.273 . S
O20 Cd18 2.411 . S
O20 C23 1.320 . S
O21 Cd18 2.333 . S
O21 C23 1.214 . S
O22 Cd18 2.352 . S
O22 C25 1.258 . S
C23 O20 1.320 . S
C23 O21 1.214 . S
O24 Cd16 2.277 . S
O24 C19 1.209 . S
C25 O22 1.258 . S
C25 O27 1.282 . S
O26 Cd18 2.277 . S
O26 C19 1.226 . S
O27 Cd18 2.356 . S
O27 C25 1.282 . S
C28 O29 1.306 . S
C28 O31 1.160 . S
O29 C28 1.306 . S
O29 Cd30 2.228 . S
Cd30 O29 2.228 . S
Cd30 O34 2.273 . S
Cd30 O38 2.277 . S
O31 C28 1.160 . S
O31 Cd32 2.203 . S
Cd32 O31 2.203 . S
Cd32 O34 2.411 . S
Cd32 O35 2.333 . S
Cd32 O36 2.352 . S
Cd32 O40 2.277 . S
Cd32 O41 2.356 . S
C33 O38 1.209 . S
C33 O40 1.226 . S
O34 Cd30 2.273 . S
O34 Cd32 2.411 . S
O34 C37 1.320 . S
O35 Cd32 2.333 . S
O35 C37 1.214 . S
O36 Cd32 2.352 . S
O36 C39 1.258 . S
C37 O34 1.320 . S
C37 O35 1.214 . S
O38 Cd30 2.277 . S
O38 C33 1.209 . S
C39 O36 1.258 . S
C39 O41 1.282 . S
O40 Cd32 2.277 . S
O40 C33 1.226 . S
O41 Cd32 2.356 . S
O41 C39 1.282 . S
C42 O43 1.306 . S
C42 O45 1.160 . S
O43 C42 1.306 . S
O43 Cd44 2.228 . S
Cd44 O43 2.228 . S
Cd44 O48 2.273 . S
Cd44 O52 2.277 . S
O45 C42 1.160 . S
O45 Cd46 2.203 . S
Cd46 O45 2.203 . S
Cd46 O48 2.411 . S
Cd46 O49 2.333 . S
Cd46 O50 2.352 . S
Cd46 O54 2.277 . S
Cd46 O55 2.356 . S
C47 O52 1.209 . S
C47 O54 1.226 . S
O48 Cd44 2.273 . S
O48 Cd46 2.411 . S
O48 C51 1.320 . S
O49 Cd46 2.333 . S
O49 C51 1.214 . S
O50 Cd46 2.352 . S
O50 C53 1.258 . S
C51 O48 1.320 . S
C51 O49 1.214 . S
O52 Cd44 2.277 . S
O52 C47 1.209 . S
C53 O50 1.258 . S
C53 O55 1.282 . S
O54 Cd46 2.277 . S
O54 C47 1.226 . S
O55 Cd46 2.356 . S
O55 C53 1.282 . S
C56 O57 1.306 . S
C56 O59 1.160 . S
O57 C56 1.306 . S
O57 Cd58 2.228 . S
Cd58 O57 2.228 . S
Cd58 O62 2.273 . S
Cd58 O66 2.277 . S
O59 C56 1.160 . S
O59 Cd60 2.203 . S
Cd60 O59 2.203 . S
Cd60 O62 2.411 . S
Cd60 O63 2.333 . S
Cd60 O64 2.352 . S
Cd60 O68 2.277 . S
Cd60 O69 2.356 . S
C61 O66 1.209 . S
C61 O68 1.226 . S
O62 Cd58 2.273 . S
O62 Cd60 2.411 . S
O62 C65 1.320 . S
O63 Cd60 2.333 . S
O63 C65 1.214 . S
O64 Cd60 2.352 . S
O64 C67 1.258 . S
C65 O62 1.320 . S
C65 O63 1.214 . S
O66 Cd58 2.277 . S
O66 C61 1.209 . S
C67 O64 1.258 . S
C67 O69 1.282 . S
O68 Cd60 2.277 . S
O68 C61 1.226 . S
O69 Cd60 2.356 . S
O69 C67 1.282 . S
C70 O71 1.306 . S
C70 O73 1.160 . S
O71 C70 1.306 . S
O71 Cd72 2.228 . S
Cd72 O71 2.228 . S
Cd72 O76 2.273 . S
Cd72 O80 2.277 . S
O73 C70 1.160 . S
O73 Cd74 2.203 . S
Cd74 O73 2.203 . S
Cd74 O76 2.411 . S
Cd74 O77 2.333 . S
Cd74 O78 2.352 . S
Cd74 O82 2.277 . S
Cd74 O83 2.356 . S
C75 O80 1.209 . S
C75 O82 1.226 . S
O76 Cd72 2.273 . S
O76 Cd74 2.411 . S
O76 C79 1.320 . S
O77 Cd74 2.333 . S
O77 C79 1.214 . S
O78 Cd74 2.352 . S
O78 C81 1.258 . S
C79 O76 1.320 . S
C79 O77 1.214 . S
O80 Cd72 2.277 . S
O80 C75 1.209 . S
C81 O78 1.258 . S
C81 O83 1.282 . S
O82 Cd74 2.277 . S
O82 C75 1.226 . S
O83 Cd74 2.356 . S
O83 C81 1.282 . S
C84 C85 1.349 . S
C84 C86 1.327 . S
C84 H109 0.950 . S
C85 C84 1.349 . S
C85 C101 1.349 . S
C86 C84 1.327 . S
C86 C105 1.429 . S
C86 H110 0.950 . S
C87 C104 1.574 1_545 S
C87 C106 1.368 . S
C87 H111 0.949 . S
H88 C92 0.949 . S
C89 C90 1.349 . S
C89 C91 1.327 . S
C89 H112 0.950 . S
C90 C89 1.349 . S
C90 C102 1.349 . S
C91 C89 1.327 . S
C91 C107 1.429 . S
C91 H113 0.950 . S
C92 H88 0.949 . S
C92 C100 1.574 1_565 S
C92 C108 1.368 . S
H93 C101 0.950 . S
H94 C99 0.950 . S
H95 C100 0.949 . S
H96 C102 0.950 . S
H97 C103 0.950 . S
H98 C104 0.949 . S
C99 H94 0.950 . S
C99 C101 1.327 . S
C99 C105 1.429 . S
C100 C92 1.574 1_545 S
C100 H95 0.949 . S
C100 C106 1.368 . S
C101 C85 1.349 . S
C101 H93 0.950 . S
C101 C99 1.327 . S
C102 C90 1.349 . S
C102 H96 0.950 . S
C102 C103 1.327 . S
C103 H97 0.950 . S
C103 C102 1.327 . S
C103 C107 1.429 . S
C104 C87 1.574 1_565 S
C104 H98 0.949 . S
C104 C108 1.368 . S
C105 C86 1.429 . S
C105 C99 1.429 . S
C105 C106 1.523 . S
C106 C87 1.368 . S
C106 C100 1.368 . S
C106 C105 1.523 . S
C107 C91 1.429 . S
C107 C103 1.429 . S
C107 C108 1.523 . S
C108 C92 1.368 . S
C108 C104 1.368 . S
C108 C107 1.523 . S
H109 C84 0.950 . S
H110 C86 0.950 . S
H111 C87 0.949 . S
H112 C89 0.950 . S
H113 C91 0.950 . S
C114 C115 1.349 . S
C114 C116 1.327 . S
C114 H139 0.950 . S
C115 C114 1.349 . S
C115 C131 1.349 . S
C116 C114 1.327 . S
C116 C135 1.429 . S
C116 H140 0.950 . S
C117 C134 1.574 . S
C117 C136 1.368 . S
C117 H141 0.949 . S
H118 C122 0.949 . S
C119 C120 1.349 . S
C119 C121 1.327 . S
C119 H142 0.950 . S
C120 C119 1.349 . S
C120 C132 1.349 . S
C121 C119 1.327 . S
C121 C137 1.429 . S
C121 H143 0.950 . S
C122 H118 0.949 . S
C122 C130 1.574 . S
C122 C138 1.368 . S
H123 C131 0.950 . S
H124 C129 0.950 . S
H125 C130 0.949 . S
H126 C132 0.950 . S
H127 C133 0.950 . S
H128 C134 0.949 . S
C129 H124 0.950 . S
C129 C131 1.327 . S
C129 C135 1.429 . S
C130 C122 1.574 . S
C130 H125 0.949 . S
C130 C136 1.368 . S
C131 C115 1.349 . S
C131 H123 0.950 . S
C131 C129 1.327 . S
C132 C120 1.349 . S
C132 H126 0.950 . S
C132 C133 1.327 . S
C133 H127 0.950 . S
C133 C132 1.327 . S
C133 C137 1.429 . S
C134 C117 1.574 . S
C134 H128 0.949 . S
C134 C138 1.368 . S
C135 C116 1.429 . S
C135 C129 1.429 . S
C135 C136 1.523 . S
C136 C117 1.368 . S
C136 C130 1.368 . S
C136 C135 1.523 . S
C137 C121 1.429 . S
C137 C133 1.429 . S
C137 C138 1.523 . S
C138 C122 1.368 . S
C138 C134 1.368 . S
C138 C137 1.523 . S
H139 C114 0.950 . S
H140 C116 0.950 . S
H141 C117 0.949 . S
H142 C119 0.950 . S
H143 C121 0.950 . S
C144 C145 1.349 . S
C144 C146 1.327 . S
C144 H169 0.950 . S
C145 C144 1.349 . S
C145 C161 1.349 . S
C146 C144 1.327 . S
C146 C165 1.429 . S
C146 H170 0.950 . S
C147 C164 1.574 1_655 S
C147 C166 1.368 . S
C147 H171 0.949 . S
H148 C152 0.949 . S
C149 C150 1.349 . S
C149 C151 1.327 . S
C149 H172 0.950 . S
C150 C149 1.349 . S
C150 C162 1.349 . S
C151 C149 1.327 . S
C151 C167 1.429 . S
C151 H173 0.950 . S
C152 H148 0.949 . S
C152 C160 1.574 1_455 S
C152 C168 1.368 . S
H153 C161 0.950 . S
H154 C159 0.950 . S
H155 C160 0.949 . S
H156 C162 0.950 . S
H157 C163 0.950 . S
H158 C164 0.949 . S
C159 H154 0.950 . S
C159 C161 1.327 . S
C159 C165 1.429 . S
C160 C152 1.574 1_655 S
C160 H155 0.949 . S
C160 C166 1.368 . S
C161 C145 1.349 . S
C161 H153 0.950 . S
C161 C159 1.327 . S
C162 C150 1.349 . S
C162 H156 0.950 . S
C162 C163 1.327 . S
C163 H157 0.950 . S
C163 C162 1.327 . S
C163 C167 1.429 . S
C164 C147 1.574 1_455 S
C164 H158 0.949 . S
C164 C168 1.368 . S
C165 C146 1.429 . S
C165 C159 1.429 . S
C165 C166 1.523 . S
C166 C147 1.368 . S
C166 C160 1.368 . S
C166 C165 1.523 . S
C167 C151 1.429 . S
C167 C163 1.429 . S
C167 C168 1.523 . S
C168 C152 1.368 . S
C168 C164 1.368 . S
C168 C167 1.523 . S
H169 C144 0.950 . S
H170 C146 0.950 . S
H171 C147 0.949 . S
H172 C149 0.950 . S
H173 C151 0.950 . S
C174 C175 1.349 . S
C174 C176 1.327 . S
C174 H199 0.950 . S
C175 C174 1.349 . S
C175 C191 1.349 . S
C176 C174 1.327 . S
C176 C195 1.429 . S
C176 H200 0.950 . S
C177 C194 1.574 1_455 S
C177 C196 1.368 . S
C177 H201 0.949 . S
H178 C182 0.949 . S
C179 C180 1.349 . S
C179 C181 1.327 . S
C179 H202 0.950 . S
C180 C179 1.349 . S
C180 C192 1.349 . S
C181 C179 1.327 . S
C181 C197 1.429 . S
C181 H203 0.950 . S
C182 H178 0.949 . S
C182 C190 1.574 1_655 S
C182 C198 1.368 . S
H183 C191 0.950 . S
H184 C189 0.950 . S
H185 C190 0.949 . S
H186 C192 0.950 . S
H187 C193 0.950 . S
H188 C194 0.949 . S
C189 H184 0.950 . S
C189 C191 1.327 . S
C189 C195 1.429 . S
C190 C182 1.574 1_455 S
C190 H185 0.949 . S
C190 C196 1.368 . S
C191 C175 1.349 . S
C191 H183 0.950 . S
C191 C189 1.327 . S
C192 C180 1.349 . S
C192 H186 0.950 . S
C192 C193 1.327 . S
C193 H187 0.950 . S
C193 C192 1.327 . S
C193 C197 1.429 . S
C194 C177 1.574 1_655 S
C194 H188 0.949 . S
C194 C198 1.368 . S
C195 C176 1.429 . S
C195 C189 1.429 . S
C195 C196 1.523 . S
C196 C177 1.368 . S
C196 C190 1.368 . S
C196 C195 1.523 . S
C197 C181 1.429 . S
C197 C193 1.429 . S
C197 C198 1.523 . S
C198 C182 1.368 . S
C198 C194 1.368 . S
C198 C197 1.523 . S
H199 C174 0.950 . S
H200 C176 0.950 . S
H201 C177 0.949 . S
H202 C179 0.950 . S
H203 C181 0.950 . S
C204 C205 1.349 . S
C204 C206 1.327 . S
C204 H229 0.950 . S
C205 C204 1.349 . S
C205 C221 1.349 . S
C206 C204 1.327 . S
C206 C225 1.429 . S
C206 H230 0.950 . S
C207 C224 1.574 1_565 S
C207 C226 1.368 . S
C207 H231 0.949 . S
H208 C212 0.949 . S
C209 C210 1.349 . S
C209 C211 1.327 . S
C209 H232 0.950 . S
C210 C209 1.349 . S
C210 C222 1.349 . S
C211 C209 1.327 . S
C211 C227 1.429 . S
C211 H233 0.950 . S
C212 H208 0.949 . S
C212 C220 1.574 1_545 S
C212 C228 1.368 . S
H213 C221 0.950 . S
H214 C219 0.950 . S
H215 C220 0.949 . S
H216 C222 0.950 . S
H217 C223 0.950 . S
H218 C224 0.949 . S
C219 H214 0.950 . S
C219 C221 1.327 . S
C219 C225 1.429 . S
C220 C212 1.574 1_565 S
C220 H215 0.949 . S
C220 C226 1.368 . S
C221 C205 1.349 . S
C221 H213 0.950 . S
C221 C219 1.327 . S
C222 C210 1.349 . S
C222 H216 0.950 . S
C222 C223 1.327 . S
C223 H217 0.950 . S
C223 C222 1.327 . S
C223 C227 1.429 . S
C224 C207 1.574 1_545 S
C224 H218 0.949 . S
C224 C228 1.368 . S
C225 C206 1.429 . S
C225 C219 1.429 . S
C225 C226 1.523 . S
C226 C207 1.368 . S
C226 C220 1.368 . S
C226 C225 1.523 . S
C227 C211 1.429 . S
C227 C223 1.429 . S
C227 C228 1.523 . S
C228 C212 1.368 . S
C228 C224 1.368 . S
C228 C227 1.523 . S
H229 C204 0.950 . S
H230 C206 0.950 . S
H231 C207 0.949 . S
H232 C209 0.950 . S
H233 C211 0.950 . S
C234 C235 1.349 . S
C234 C236 1.327 . S
C234 H259 0.950 . S
C235 C234 1.349 . S
C235 C251 1.349 . S
C236 C234 1.327 . S
C236 C255 1.429 . S
C236 H260 0.950 . S
C237 C254 1.574 . S
C237 C256 1.368 . S
C237 H261 0.949 . S
H238 C242 0.949 . S
C239 C240 1.349 . S
C239 C241 1.327 . S
C239 H262 0.950 . S
C240 C239 1.349 . S
C240 C252 1.349 . S
C241 C239 1.327 . S
C241 C257 1.429 . S
C241 H263 0.950 . S
C242 H238 0.949 . S
C242 C250 1.574 . S
C242 C258 1.368 . S
H243 C251 0.950 . S
H244 C249 0.950 . S
H245 C250 0.949 . S
H246 C252 0.950 . S
H247 C253 0.950 . S
H248 C254 0.949 . S
C249 H244 0.950 . S
C249 C251 1.327 . S
C249 C255 1.429 . S
C250 C242 1.574 . S
C250 H245 0.949 . S
C250 C256 1.368 . S
C251 C235 1.349 . S
C251 H243 0.950 . S
C251 C249 1.327 . S
C252 C240 1.349 . S
C252 H246 0.950 . S
C252 C253 1.327 . S
C253 H247 0.950 . S
C253 C252 1.327 . S
C253 C257 1.429 . S
C254 C237 1.574 . S
C254 H248 0.949 . S
C254 C258 1.368 . S
C255 C236 1.429 . S
C255 C249 1.429 . S
C255 C256 1.523 . S
C256 C237 1.368 . S
C256 C250 1.368 . S
C256 C255 1.523 . S
C257 C241 1.429 . S
C257 C253 1.429 . S
C257 C258 1.523 . S
C258 C242 1.368 . S
C258 C254 1.368 . S
C258 C257 1.523 . S
H259 C234 0.950 . S
H260 C236 0.950 . S
H261 C237 0.949 . S
H262 C239 0.950 . S
H263 C241 0.950 . S
C264 C265 1.349 . S
C264 C266 1.327 . S
C264 H289 0.950 . S
C265 C264 1.349 . S
C265 C281 1.349 . S
C266 C264 1.327 . S
C266 C285 1.429 . S
C266 H290 0.950 . S
C267 C284 1.574 1_556 S
C267 C286 1.368 . S
C267 H291 0.949 . S
H268 C272 0.949 . S
C269 C270 1.349 . S
C269 C271 1.327 . S
C269 H292 0.950 . S
C270 C269 1.349 . S
C270 C282 1.349 . S
C271 C269 1.327 . S
C271 C287 1.429 . S
C271 H293 0.950 . S
C272 H268 0.949 . S
C272 C280 1.574 1_554 S
C272 C288 1.368 . S
H273 C281 0.950 . S
H274 C279 0.950 . S
H275 C280 0.949 . S
H276 C282 0.950 . S
H277 C283 0.950 . S
H278 C284 0.949 . S
C279 H274 0.950 . S
C279 C281 1.327 . S
C279 C285 1.429 . S
C280 C272 1.574 1_556 S
C280 H275 0.949 . S
C280 C286 1.368 . S
C281 C265 1.349 . S
C281 H273 0.950 . S
C281 C279 1.327 . S
C282 C270 1.349 . S
C282 H276 0.950 . S
C282 C283 1.327 . S
C283 H277 0.950 . S
C283 C282 1.327 . S
C283 C287 1.429 . S
C284 C267 1.574 1_554 S
C284 H278 0.949 . S
C284 C288 1.368 . S
C285 C266 1.429 . S
C285 C279 1.429 . S
C285 C286 1.523 . S
C286 C267 1.368 . S
C286 C280 1.368 . S
C286 C285 1.523 . S
C287 C271 1.429 . S
C287 C283 1.429 . S
C287 C288 1.523 . S
C288 C272 1.368 . S
C288 C284 1.368 . S
C288 C287 1.523 . S
H289 C264 0.950 . S
H290 C266 0.950 . S
H291 C267 0.949 . S
H292 C269 0.950 . S
H293 C271 0.950 . S
C294 C295 1.349 . S
C294 C296 1.327 . S
C294 H319 0.950 . S
C295 C294 1.349 . S
C295 C311 1.349 . S
C296 C294 1.327 . S
C296 C315 1.429 . S
C296 H320 0.950 . S
C297 C314 1.574 . S
C297 C316 1.368 . S
C297 H321 0.949 . S
H298 C302 0.949 . S
C299 C300 1.349 . S
C299 C301 1.327 . S
C299 H322 0.950 . S
C300 C299 1.349 . S
C300 C312 1.349 . S
C301 C299 1.327 . S
C301 C317 1.429 . S
C301 H323 0.950 . S
C302 H298 0.949 . S
C302 C310 1.574 . S
C302 C318 1.368 . S
H303 C311 0.950 . S
H304 C309 0.950 . S
H305 C310 0.949 . S
H306 C312 0.950 . S
H307 C313 0.950 . S
H308 C314 0.949 . S
C309 H304 0.950 . S
C309 C311 1.327 . S
C309 C315 1.429 . S
C310 C302 1.574 . S
C310 H305 0.949 . S
C310 C316 1.368 . S
C311 C295 1.349 . S
C311 H303 0.950 . S
C311 C309 1.327 . S
C312 C300 1.349 . S
C312 H306 0.950 . S
C312 C313 1.327 . S
C313 H307 0.950 . S
C313 C312 1.327 . S
C313 C317 1.429 . S
C314 C297 1.574 . S
C314 H308 0.949 . S
C314 C318 1.368 . S
C315 C296 1.429 . S
C315 C309 1.429 . S
C315 C316 1.523 . S
C316 C297 1.368 . S
C316 C310 1.368 . S
C316 C315 1.523 . S
C317 C301 1.429 . S
C317 C313 1.429 . S
C317 C318 1.523 . S
C318 C302 1.368 . S
C318 C314 1.368 . S
C318 C317 1.523 . S
H319 C294 0.950 . S
H320 C296 0.950 . S
H321 C297 0.949 . S
H322 C299 0.950 . S
H323 C301 0.950 . S
C324 C325 1.349 . S
C324 C326 1.327 . S
C324 H349 0.950 . S
C325 C324 1.349 . S
C325 C341 1.349 . S
C326 C324 1.327 . S
C326 C345 1.429 . S
C326 H350 0.950 . S
C327 C344 1.574 . S
C327 C346 1.368 . S
C327 H351 0.949 . S
H328 C332 0.949 . S
C329 C330 1.349 . S
C329 C331 1.327 . S
C329 H352 0.950 . S
C330 C329 1.349 . S
C330 C342 1.349 . S
C331 C329 1.327 . S
C331 C347 1.429 . S
C331 H353 0.950 . S
C332 H328 0.949 . S
C332 C340 1.574 . S
C332 C348 1.368 . S
H333 C341 0.950 . S
H334 C339 0.950 . S
H335 C340 0.949 . S
H336 C342 0.950 . S
H337 C343 0.950 . S
H338 C344 0.949 . S
C339 H334 0.950 . S
C339 C341 1.327 . S
C339 C345 1.429 . S
C340 C332 1.574 . S
C340 H335 0.949 . S
C340 C346 1.368 . S
C341 C325 1.349 . S
C341 H333 0.950 . S
C341 C339 1.327 . S
C342 C330 1.349 . S
C342 H336 0.950 . S
C342 C343 1.327 . S
C343 H337 0.950 . S
C343 C342 1.327 . S
C343 C347 1.429 . S
C344 C327 1.574 . S
C344 H338 0.949 . S
C344 C348 1.368 . S
C345 C326 1.429 . S
C345 C339 1.429 . S
C345 C346 1.523 . S
C346 C327 1.368 . S
C346 C340 1.368 . S
C346 C345 1.523 . S
C347 C331 1.429 . S
C347 C343 1.429 . S
C347 C348 1.523 . S
C348 C332 1.368 . S
C348 C344 1.368 . S
C348 C347 1.523 . S
H349 C324 0.950 . S
H350 C326 0.950 . S
H351 C327 0.949 . S
H352 C329 0.950 . S
H353 C331 0.950 . S
C354 C355 1.349 . S
C354 C356 1.327 . S
C354 H379 0.950 . S
C355 C354 1.349 . S
C355 C371 1.349 . S
C356 C354 1.327 . S
C356 C375 1.429 . S
C356 H380 0.950 . S
C357 C374 1.574 1_556 S
C357 C376 1.368 . S
C357 H381 0.949 . S
H358 C362 0.949 . S
C359 C360 1.349 . S
C359 C361 1.327 . S
C359 H382 0.950 . S
C360 C359 1.349 . S
C360 C372 1.349 . S
C361 C359 1.327 . S
C361 C377 1.429 . S
C361 H383 0.950 . S
C362 H358 0.949 . S
C362 C370 1.574 1_554 S
C362 C378 1.368 . S
H363 C371 0.950 . S
H364 C369 0.950 . S
H365 C370 0.949 . S
H366 C372 0.950 . S
H367 C373 0.950 . S
H368 C374 0.949 . S
C369 H364 0.950 . S
C369 C371 1.327 . S
C369 C375 1.429 . S
C370 C362 1.574 1_556 S
C370 H365 0.949 . S
C370 C376 1.368 . S
C371 C355 1.349 . S
C371 H363 0.950 . S
C371 C369 1.327 . S
C372 C360 1.349 . S
C372 H366 0.950 . S
C372 C373 1.327 . S
C373 H367 0.950 . S
C373 C372 1.327 . S
C373 C377 1.429 . S
C374 C357 1.574 1_554 S
C374 H368 0.949 . S
C374 C378 1.368 . S
C375 C356 1.429 . S
C375 C369 1.429 . S
C375 C376 1.523 . S
C376 C357 1.368 . S
C376 C370 1.368 . S
C376 C375 1.523 . S
C377 C361 1.429 . S
C377 C373 1.429 . S
C377 C378 1.523 . S
C378 C362 1.368 . S
C378 C374 1.368 . S
C378 C377 1.523 . S
H379 C354 0.950 . S
H380 C356 0.950 . S
H381 C357 0.949 . S
H382 C359 0.950 . S
H383 C361 0.950 . S
C384 C385 1.349 . S
C384 C386 1.327 . S
C384 H409 0.950 . S
C385 C384 1.349 . S
C385 C401 1.349 . S
C386 C384 1.327 . S
C386 C405 1.429 . S
C386 H410 0.950 . S
C387 C404 1.574 . S
C387 C406 1.368 . S
C387 H411 0.949 . S
H388 C392 0.949 . S
C389 C390 1.349 . S
C389 C391 1.327 . S
C389 H412 0.950 . S
C390 C389 1.349 . S
C390 C402 1.349 . S
C391 C389 1.327 . S
C391 C407 1.429 . S
C391 H413 0.950 . S
C392 H388 0.949 . S
C392 C400 1.574 . S
C392 C408 1.368 . S
H393 C401 0.950 . S
H394 C399 0.950 . S
H395 C400 0.949 . S
H396 C402 0.950 . S
H397 C403 0.950 . S
H398 C404 0.949 . S
C399 H394 0.950 . S
C399 C401 1.327 . S
C399 C405 1.429 . S
C400 C392 1.574 . S
C400 H395 0.949 . S
C400 C406 1.368 . S
C401 C385 1.349 . S
C401 H393 0.950 . S
C401 C399 1.327 . S
C402 C390 1.349 . S
C402 H396 0.950 . S
C402 C403 1.327 . S
C403 H397 0.950 . S
C403 C402 1.327 . S
C403 C407 1.429 . S
C404 C387 1.574 . S
C404 H398 0.949 . S
C404 C408 1.368 . S
C405 C386 1.429 . S
C405 C399 1.429 . S
C405 C406 1.523 . S
C406 C387 1.368 . S
C406 C400 1.368 . S
C406 C405 1.523 . S
C407 C391 1.429 . S
C407 C403 1.429 . S
C407 C408 1.523 . S
C408 C392 1.368 . S
C408 C404 1.368 . S
C408 C407 1.523 . S
H409 C384 0.950 . S
H410 C386 0.950 . S
H411 C387 0.949 . S
H412 C389 0.950 . S
H413 C391 0.950 . S
C414 C415 1.349 . S
C414 C416 1.327 . S
C414 H439 0.950 . S
C415 C414 1.349 . S
C415 C431 1.349 . S
C416 C414 1.327 . S
C416 C435 1.429 . S
C416 H440 0.950 . S
C417 C434 1.574 . S
C417 C436 1.368 . S
C417 H441 0.949 . S
H418 C422 0.949 . S
C419 C420 1.349 . S
C419 C421 1.327 . S
C419 H442 0.950 . S
C420 C419 1.349 . S
C420 C432 1.349 . S
C421 C419 1.327 . S
C421 C437 1.429 . S
C421 H443 0.950 . S
C422 H418 0.949 . S
C422 C430 1.574 . S
C422 C438 1.368 . S
H423 C431 0.950 . S
H424 C429 0.950 . S
H425 C430 0.949 . S
H426 C432 0.950 . S
H427 C433 0.950 . S
H428 C434 0.949 . S
C429 H424 0.950 . S
C429 C431 1.327 . S
C429 C435 1.429 . S
C430 C422 1.574 . S
C430 H425 0.949 . S
C430 C436 1.368 . S
C431 C415 1.349 . S
C431 H423 0.950 . S
C431 C429 1.327 . S
C432 C420 1.349 . S
C432 H426 0.950 . S
C432 C433 1.327 . S
C433 H427 0.950 . S
C433 C432 1.327 . S
C433 C437 1.429 . S
C434 C417 1.574 . S
C434 H428 0.949 . S
C434 C438 1.368 . S
C435 C416 1.429 . S
C435 C429 1.429 . S
C435 C436 1.523 . S
C436 C417 1.368 . S
C436 C430 1.368 . S
C436 C435 1.523 . S
C437 C421 1.429 . S
C437 C433 1.429 . S
C437 C438 1.523 . S
C438 C422 1.368 . S
C438 C434 1.368 . S
C438 C437 1.523 . S
H439 C414 0.950 . S
H440 C416 0.950 . S
H441 C417 0.949 . S
H442 C419 0.950 . S
H443 C421 0.950 . S
C85 C11 1.321 . S
C90 C53 1.321 . S
C115 C25 1.321 . S
C120 C67 1.321 . S
C145 C39 1.321 . S
C150 C81 1.321 . S
C175 C19 1.546 . S
C180 C61 1.546 . S
C205 C75 1.546 . S
C210 C33 1.546 . S
C235 C47 1.546 . S
C240 C5 1.546 . S
C265 C28 1.128 . S
C270 C9 1.102 . S
C295 C42 1.128 . S
C300 C23 1.102 . S
C325 C37 1.102 . S
C330 C56 1.129 . S
C355 C70 1.128 . S
C360 C51 1.102 . S
C385 C65 1.102 . S
C390 C0 1.128 . S
C415 C79 1.102 . S
C420 C14 1.128 . S
