# Generated by pormake.
# Topology sxe, (6)-cn, num edge types: 1
# Building blocks:
#     Node 0, Type 0, BuildingBlock: IZENUY_clean_sbu_0, # of connection points: 6
#     Node 1, Type 0, BuildingBlock: IZENUY_clean_sbu_0, # of connection points: 6
#     Node 2, Type 0, BuildingBlock: IZENUY_clean_sbu_0, # of connection points: 6
#     Node 3, Type 0, BuildingBlock: IZENUY_clean_sbu_0, # of connection points: 6
#     Node 4, Type 0, BuildingBlock: IZENUY_clean_sbu_0, # of connection points: 6
#     Node 5, Type 0, BuildingBlock: IZENUY_clean_sbu_0, # of connection points: 6
#     Node 6, Type 0, BuildingBlock: IZENUY_clean_sbu_0, # of connection points: 6
#     Node 7, Type 0, BuildingBlock: IZENUY_clean_sbu_0, # of connection points: 6
#     Node 8, Type 0, BuildingBlock: IZENUY_clean_sbu_0, # of connection points: 6
#     Node 9, Type 0, BuildingBlock: IZENUY_clean_sbu_0, # of connection points: 6
#     Node 10, Type 0, BuildingBlock: IZENUY_clean_sbu_0, # of connection points: 6
#     Node 11, Type 0, BuildingBlock: IZENUY_clean_sbu_0, # of connection points: 6
#     Node 12, Type 0, BuildingBlock: IZENUY_clean_sbu_0, # of connection points: 6
#     Node 13, Type 0, BuildingBlock: IZENUY_clean_sbu_0, # of connection points: 6
#     Node 14, Type 0, BuildingBlock: IZENUY_clean_sbu_0, # of connection points: 6
#     Node 15, Type 0, BuildingBlock: IZENUY_clean_sbu_0, # of connection points: 6
#     Node 16, Type 0, BuildingBlock: IZENUY_clean_sbu_0, # of connection points: 6
#     Node 17, Type 0, BuildingBlock: IZENUY_clean_sbu_0, # of connection points: 6
#     Node 18, Type 0, BuildingBlock: IZENUY_clean_sbu_0, # of connection points: 6
#     Node 19, Type 0, BuildingBlock: IZENUY_clean_sbu_0, # of connection points: 6
#     Node 20, Type 0, BuildingBlock: IZENUY_clean_sbu_0, # of connection points: 6
#     Node 21, Type 0, BuildingBlock: IZENUY_clean_sbu_0, # of connection points: 6
#     Node 22, Type 0, BuildingBlock: IZENUY_clean_sbu_0, # of connection points: 6
#     Node 23, Type 0, BuildingBlock: IZENUY_clean_sbu_0, # of connection points: 6
#     Edge 24, Type (0, 0), BuildingBlock: XIVTED_clean_linker_0, # of connection points: 2
#     Edge 25, Type (0, 0), BuildingBlock: XIVTED_clean_linker_0, # of connection points: 2
#     Edge 26, Type (0, 0), BuildingBlock: XIVTED_clean_linker_0, # of connection points: 2
#     Edge 27, Type (0, 0), BuildingBlock: XIVTED_clean_linker_0, # of connection points: 2
#     Edge 28, Type (0, 0), BuildingBlock: XIVTED_clean_linker_0, # of connection points: 2
#     Edge 29, Type (0, 0), BuildingBlock: XIVTED_clean_linker_0, # of connection points: 2
#     Edge 30, Type (0, 0), BuildingBlock: XIVTED_clean_linker_0, # of connection points: 2
#     Edge 31, Type (0, 0), BuildingBlock: XIVTED_clean_linker_0, # of connection points: 2
#     Edge 32, Type (0, 0), BuildingBlock: XIVTED_clean_linker_0, # of connection points: 2
#     Edge 33, Type (0, 0), BuildingBlock: XIVTED_clean_linker_0, # of connection points: 2
#     Edge 34, Type (0, 0), BuildingBlock: XIVTED_clean_linker_0, # of connection points: 2
#     Edge 35, Type (0, 0), BuildingBlock: XIVTED_clean_linker_0, # of connection points: 2
#     Edge 36, Type (0, 0), BuildingBlock: XIVTED_clean_linker_0, # of connection points: 2
#     Edge 37, Type (0, 0), BuildingBlock: XIVTED_clean_linker_0, # of connection points: 2
#     Edge 38, Type (0, 0), BuildingBlock: XIVTED_clean_linker_0, # of connection points: 2
#     Edge 39, Type (0, 0), BuildingBlock: XIVTED_clean_linker_0, # of connection points: 2
#     Edge 40, Type (0, 0), BuildingBlock: XIVTED_clean_linker_0, # of connection points: 2
#     Edge 41, Type (0, 0), BuildingBlock: XIVTED_clean_linker_0, # of connection points: 2
#     Edge 42, Type (0, 0), BuildingBlock: XIVTED_clean_linker_0, # of connection points: 2
#     Edge 43, Type (0, 0), BuildingBlock: XIVTED_clean_linker_0, # of connection points: 2
#     Edge 44, Type (0, 0), BuildingBlock: XIVTED_clean_linker_0, # of connection points: 2
#     Edge 45, Type (0, 0), BuildingBlock: XIVTED_clean_linker_0, # of connection points: 2
#     Edge 46, Type (0, 0), BuildingBlock: XIVTED_clean_linker_0, # of connection points: 2
#     Edge 47, Type (0, 0), BuildingBlock: XIVTED_clean_linker_0, # of connection points: 2
#     Edge 48, Type (0, 0), BuildingBlock: XIVTED_clean_linker_0, # of connection points: 2
#     Edge 49, Type (0, 0), BuildingBlock: XIVTED_clean_linker_0, # of connection points: 2
#     Edge 50, Type (0, 0), BuildingBlock: XIVTED_clean_linker_0, # of connection points: 2
#     Edge 51, Type (0, 0), BuildingBlock: XIVTED_clean_linker_0, # of connection points: 2
#     Edge 52, Type (0, 0), BuildingBlock: XIVTED_clean_linker_0, # of connection points: 2
#     Edge 53, Type (0, 0), BuildingBlock: XIVTED_clean_linker_0, # of connection points: 2
#     Edge 54, Type (0, 0), BuildingBlock: XIVTED_clean_linker_0, # of connection points: 2
#     Edge 55, Type (0, 0), BuildingBlock: XIVTED_clean_linker_0, # of connection points: 2
#     Edge 56, Type (0, 0), BuildingBlock: XIVTED_clean_linker_0, # of connection points: 2
#     Edge 57, Type (0, 0), BuildingBlock: XIVTED_clean_linker_0, # of connection points: 2
#     Edge 58, Type (0, 0), BuildingBlock: XIVTED_clean_linker_0, # of connection points: 2
#     Edge 59, Type (0, 0), BuildingBlock: XIVTED_clean_linker_0, # of connection points: 2
#     Edge 60, Type (0, 0), BuildingBlock: XIVTED_clean_linker_0, # of connection points: 2
#     Edge 61, Type (0, 0), BuildingBlock: XIVTED_clean_linker_0, # of connection points: 2
#     Edge 62, Type (0, 0), BuildingBlock: XIVTED_clean_linker_0, # of connection points: 2
#     Edge 63, Type (0, 0), BuildingBlock: XIVTED_clean_linker_0, # of connection points: 2
#     Edge 64, Type (0, 0), BuildingBlock: XIVTED_clean_linker_0, # of connection points: 2
#     Edge 65, Type (0, 0), BuildingBlock: XIVTED_clean_linker_0, # of connection points: 2
#     Edge 66, Type (0, 0), BuildingBlock: XIVTED_clean_linker_0, # of connection points: 2
#     Edge 67, Type (0, 0), BuildingBlock: XIVTED_clean_linker_0, # of connection points: 2
#     Edge 68, Type (0, 0), BuildingBlock: XIVTED_clean_linker_0, # of connection points: 2
#     Edge 69, Type (0, 0), BuildingBlock: XIVTED_clean_linker_0, # of connection points: 2
#     Edge 70, Type (0, 0), BuildingBlock: XIVTED_clean_linker_0, # of connection points: 2
#     Edge 71, Type (0, 0), BuildingBlock: XIVTED_clean_linker_0, # of connection points: 2
#     Edge 72, Type (0, 0), BuildingBlock: XIVTED_clean_linker_0, # of connection points: 2
#     Edge 73, Type (0, 0), BuildingBlock: XIVTED_clean_linker_0, # of connection points: 2
#     Edge 74, Type (0, 0), BuildingBlock: XIVTED_clean_linker_0, # of connection points: 2
#     Edge 75, Type (0, 0), BuildingBlock: XIVTED_clean_linker_0, # of connection points: 2
#     Edge 76, Type (0, 0), BuildingBlock: XIVTED_clean_linker_0, # of connection points: 2
#     Edge 77, Type (0, 0), BuildingBlock: XIVTED_clean_linker_0, # of connection points: 2
#     Edge 78, Type (0, 0), BuildingBlock: XIVTED_clean_linker_0, # of connection points: 2
#     Edge 79, Type (0, 0), BuildingBlock: XIVTED_clean_linker_0, # of connection points: 2
#     Edge 80, Type (0, 0), BuildingBlock: XIVTED_clean_linker_0, # of connection points: 2
#     Edge 81, Type (0, 0), BuildingBlock: XIVTED_clean_linker_0, # of connection points: 2
#     Edge 82, Type (0, 0), BuildingBlock: XIVTED_clean_linker_0, # of connection points: 2
#     Edge 83, Type (0, 0), BuildingBlock: XIVTED_clean_linker_0, # of connection points: 2
#     Edge 84, Type (0, 0), BuildingBlock: XIVTED_clean_linker_0, # of connection points: 2
#     Edge 85, Type (0, 0), BuildingBlock: XIVTED_clean_linker_0, # of connection points: 2
#     Edge 86, Type (0, 0), BuildingBlock: XIVTED_clean_linker_0, # of connection points: 2
#     Edge 87, Type (0, 0), BuildingBlock: XIVTED_clean_linker_0, # of connection points: 2
#     Edge 88, Type (0, 0), BuildingBlock: XIVTED_clean_linker_0, # of connection points: 2
#     Edge 89, Type (0, 0), BuildingBlock: XIVTED_clean_linker_0, # of connection points: 2
#     Edge 90, Type (0, 0), BuildingBlock: XIVTED_clean_linker_0, # of connection points: 2
#     Edge 91, Type (0, 0), BuildingBlock: XIVTED_clean_linker_0, # of connection points: 2
#     Edge 92, Type (0, 0), BuildingBlock: XIVTED_clean_linker_0, # of connection points: 2
#     Edge 93, Type (0, 0), BuildingBlock: XIVTED_clean_linker_0, # of connection points: 2
#     Edge 94, Type (0, 0), BuildingBlock: XIVTED_clean_linker_0, # of connection points: 2
#     Edge 95, Type (0, 0), BuildingBlock: XIVTED_clean_linker_0, # of connection points: 2
# Relax obj value: 0.307
# Max RMSD: 0.231
# Mean RMSD: 0.230
data_MOF--net-sxe--node1-IZENUY_clean_sbu_0--edge1-XIVTED_clean_linker_0
_symmetry_space_group_name_H-M    P1
_symmetry_Int_Tables_number       1
_symmetry_cell_setting            triclinic
loop_
_symmetry_equiv_pos_as_xyz
'x, y, z'
_cell_length_a     47.72906
_cell_length_b     47.739718
_cell_length_c     47.727581
_cell_angle_alpha  90.019688
_cell_angle_beta   89.999437
_cell_angle_gamma 89.989458
loop_
_atom_site_label
_atom_site_type_symbol
_atom_site_fract_x
_atom_site_fract_y
_atom_site_fract_z
_atom_type_partial_charge
Fe0 Fe 0.16495 0.44746 0.2672 0.0
Fe1 Fe 0.19215 0.39977 0.23385 0.0
O2 O 0.18847 0.43594 0.24078 0.0
Fe3 Fe 0.20859 0.46057 0.22154 0.0
O4 O 0.22518 0.4736 0.25328 0.0
O5 O 0.18608 0.47776 0.27731 0.0
O6 O 0.18349 0.42788 0.29425 0.0
C7 C 0.18907 0.40212 0.29264 0.0
C8 C 0.15546 0.48637 0.22626 0.0
O9 O 0.18597 0.38884 0.26995 0.0
C10 C 0.19482 0.4243 0.17975 0.0
O11 O 0.13971 0.41903 0.26181 0.0
O12 O 0.15532 0.39613 0.225 0.0
O13 O 0.18168 0.48783 0.22252 0.0
O14 O 0.14497 0.46794 0.24207 0.0
C15 C 0.2468 0.41601 0.23028 0.0
O16 O 0.19947 0.40423 0.19642 0.0
O17 O 0.19344 0.44918 0.18847 0.0
C18 C 0.13564 0.40238 0.24154 0.0
O19 O 0.22905 0.40082 0.24254 0.0
O20 O 0.23917 0.43756 0.21687 0.0
C21 C 0.21203 0.4824 0.27448 0.0
Fe22 Fe 0.33902 0.55156 0.76249 0.0
Fe23 Fe 0.31627 0.60064 0.72811 0.0
O24 O 0.31624 0.5645 0.73597 0.0
Fe25 Fe 0.2932 0.54137 0.71797 0.0
O26 O 0.27653 0.53063 0.75065 0.0
O27 O 0.31577 0.52331 0.77347 0.0
O28 O 0.32226 0.57325 0.78915 0.0
C29 C 0.31885 0.59935 0.7869 0.0
C30 C 0.34429 0.51094 0.72247 0.0
O31 O 0.3236 0.61174 0.76398 0.0
C32 C 0.3103 0.57509 0.6747 0.0
O33 O 0.36666 0.57762 0.75661 0.0
O34 O 0.35317 0.60031 0.71905 0.0
O35 O 0.31793 0.51193 0.7189 0.0
O36 O 0.35673 0.52888 0.73752 0.0
C37 C 0.25986 0.59 0.72584 0.0
O38 O 0.30879 0.59599 0.69091 0.0
O39 O 0.30781 0.55041 0.68389 0.0
C40 C 0.37219 0.59336 0.736 0.0
O41 O 0.27952 0.60381 0.73674 0.0
O42 O 0.26462 0.56695 0.7136 0.0
C43 C 0.28947 0.52114 0.77167 0.0
Fe44 Fe 0.70298 0.04269 0.78234 0.0
Fe45 Fe 0.65825 0.05533 0.73751 0.0
O46 O 0.68126 0.06708 0.76435 0.0
Fe47 Fe 0.68288 0.10319 0.77266 0.0
O48 O 0.71997 0.10464 0.76469 0.0
O49 O 0.73237 0.06681 0.78767 0.0
O50 O 0.71978 0.03171 0.74985 0.0
C51 C 0.70678 0.0229 0.72857 0.0
C52 C 0.68663 0.07648 0.82575 0.0
O53 O 0.68064 0.02643 0.72625 0.0
C54 C 0.62659 0.09825 0.76421 0.0
O55 O 0.67736 0.01427 0.78055 0.0
O56 O 0.63944 0.03289 0.76193 0.0
O57 O 0.68938 0.09762 0.81 0.0
O58 O 0.68809 0.05188 0.81615 0.0
C59 C 0.68048 0.10264 0.71368 0.0
O60 O 0.63157 0.08227 0.74363 0.0
O61 O 0.64582 0.10479 0.78108 0.0
C62 C 0.65108 0.01434 0.77684 0.0
O63 O 0.67584 0.07674 0.71125 0.0
O64 O 0.67683 0.11508 0.73679 0.0
C65 C 0.73862 0.08954 0.77567 0.0
Fe66 Fe 0.83834 0.94164 0.23702 0.0
Fe67 Fe 0.81466 0.89668 0.2762 0.0
O68 O 0.81624 0.93199 0.26536 0.0
Fe69 Fe 0.79526 0.95718 0.28297 0.0
O70 O 0.78942 0.97932 0.25204 0.0
O71 O 0.8094 0.95644 0.21747 0.0
O72 O 0.83218 0.90905 0.21709 0.0
C73 C 0.8124 0.89139 0.21922 0.0
C74 C 0.84449 0.98608 0.27663 0.0
O75 O 0.80103 0.88634 0.24254 0.0
C76 C 0.81557 0.92236 0.32682 0.0
O77 O 0.86956 0.92748 0.25381 0.0
O78 O 0.85033 0.88771 0.26593 0.0
O79 O 0.82579 0.97708 0.29299 0.0
O80 O 0.84767 0.97585 0.25225 0.0
C81 C 0.75864 0.91354 0.28009 0.0
O82 O 0.82803 0.90564 0.31053 0.0
O83 O 0.79774 0.9397 0.31732 0.0
C84 C 0.87186 0.9024 0.26171 0.0
O85 O 0.7785 0.89824 0.28839 0.0
O86 O 0.7629 0.93885 0.27393 0.0
C87 C 0.79254 0.97479 0.22609 0.0
Fe88 Fe 0.21314 0.20444 0.45935 0.0
Fe89 Fe 0.2585 0.16171 0.44148 0.0
O90 O 0.22971 0.18375 0.4332 0.0
Fe91 Fe 0.21738 0.18566 0.39837 0.0
O92 O 0.20545 0.22189 0.40082 0.0
O93 O 0.22162 0.23693 0.44103 0.0
O94 O 0.24488 0.20998 0.48041 0.0
C95 C 0.2706 0.20723 0.47459 0.0
C96 C 0.16778 0.18501 0.42584 0.0
O97 O 0.27847 0.19064 0.45566 0.0
C98 C 0.23243 0.12839 0.40292 0.0
O99 O 0.20386 0.17362 0.47926 0.0
O100 O 0.24468 0.15203 0.47627 0.0
O101 O 0.1834 0.17232 0.40866 0.0
O102 O 0.17812 0.20241 0.44312 0.0
C103 C 0.27412 0.18791 0.39054 0.0
O104 O 0.2413 0.13056 0.42771 0.0
O105 O 0.22715 0.15 0.38867 0.0
C106 C 0.2207 0.15497 0.48751 0.0
O107 O 0.2771 0.16817 0.40813 0.0
O108 O 0.25059 0.19928 0.38662 0.0
C109 C 0.21454 0.24152 0.416 0.0
Fe110 Fe 0.27974 0.80982 0.90006 0.0
Fe111 Fe 0.28618 0.79029 0.96064 0.0
O112 O 0.26882 0.81136 0.93536 0.0
Fe113 Fe 0.24064 0.83364 0.94499 0.0
O114 O 0.22081 0.82804 0.91219 0.0
O115 O 0.24595 0.7967 0.88944 0.0
O116 O 0.29132 0.77343 0.90155 0.0
C117 C 0.28311 0.75365 0.91703 0.0
C118 C 0.2655 0.86721 0.90612 0.0
O119 O 0.27693 0.758 0.94235 0.0
C120 C 0.28016 0.83969 0.98943 0.0
O121 O 0.31429 0.82263 0.90913 0.0
O122 O 0.32069 0.79219 0.9431 0.0
O123 O 0.25791 0.86465 0.93126 0.0
O124 O 0.26994 0.84578 0.89127 0.0
C125 C 0.22906 0.78799 0.97789 0.0
O126 O 0.29645 0.82086 0.98049 0.0
O127 O 0.25569 0.84268 0.97938 0.0
C128 C 0.33051 0.80948 0.92537 0.0
O129 O 0.25499 0.78482 0.98276 0.0
O130 O 0.22079 0.80478 0.95934 0.0
C131 C 0.22281 0.80852 0.89422 0.0
Fe132 Fe 0.71762 0.29317 0.54281 0.0
Fe133 Fe 0.76377 0.33621 0.55748 0.0
O134 O 0.73653 0.31309 0.56792 0.0
Fe135 Fe 0.72827 0.30951 0.60383 0.0
O136 O 0.71703 0.27304 0.60142 0.0
O137 O 0.72802 0.26002 0.55873 0.0
O138 O 0.74725 0.28898 0.51854 0.0
C139 C 0.7734 0.29208 0.52182 0.0
C140 C 0.67581 0.31031 0.58172 0.0
O141 O 0.78288 0.30824 0.5404 0.0
C142 C 0.74123 0.36748 0.59965 0.0
O143 O 0.70589 0.32454 0.5252 0.0
O144 O 0.74646 0.34657 0.52462 0.0
O145 O 0.69289 0.32213 0.59814 0.0
O146 O 0.68449 0.29407 0.56252 0.0
C147 C 0.78553 0.30887 0.6052 0.0
O148 O 0.74716 0.36635 0.57393 0.0
O149 O 0.7382 0.34522 0.61364 0.0
C150 C 0.72149 0.34373 0.51593 0.0
O151 O 0.78582 0.3295 0.58848 0.0
O152 O 0.76301 0.29639 0.61111 0.0
C153 C 0.72352 0.25418 0.58408 0.0
Fe154 Fe 0.78002 0.70284 0.0424 0.0
Fe155 Fe 0.73579 0.65683 0.05185 0.0
O156 O 0.76118 0.68039 0.06542 0.0
Fe157 Fe 0.76715 0.68171 0.10198 0.0
O158 O 0.75795 0.71839 0.10337 0.0
O159 O 0.78272 0.73219 0.06714 0.0
O160 O 0.74779 0.71869 0.02936 0.0
C161 C 0.72756 0.70511 0.01907 0.0
C162 C 0.82182 0.6879 0.07883 0.0
O163 O 0.72593 0.6789 0.0222 0.0
C164 C 0.76029 0.62551 0.09622 0.0
O165 O 0.78097 0.67717 0.01379 0.0
O166 O 0.76221 0.63876 0.03128 0.0
O167 O 0.80459 0.68948 0.09894 0.0
O168 O 0.81369 0.68908 0.05369 0.0
C169 C 0.70842 0.67763 0.09763 0.0
O170 O 0.74059 0.63021 0.07912 0.0
O171 O 0.77659 0.64495 0.10348 0.0
C172 C 0.77802 0.65075 0.01373 0.0
O173 O 0.70786 0.67382 0.07149 0.0
O174 O 0.7307 0.67446 0.11157 0.0
C175 C 0.76933 0.73759 0.08936 0.0
Fe176 Fe 0.45322 0.21993 0.20195 0.0
Fe177 Fe 0.44557 0.26451 0.15606 0.0
O178 O 0.43103 0.23911 0.17901 0.0
Fe179 Fe 0.39448 0.23331 0.17917 0.0
O180 O 0.39192 0.2417 0.216 0.0
O181 O 0.42742 0.21632 0.23032 0.0
O182 O 0.46531 0.25198 0.21884 0.0
C183 C 0.47608 0.27232 0.20581 0.0
C184 C 0.41759 0.17861 0.1843 0.0
O185 O 0.47445 0.27384 0.17942 0.0
C186 C 0.40185 0.24096 0.12316 0.0
O187 O 0.48285 0.21966 0.17753 0.0
O188 O 0.46643 0.23798 0.1385 0.0
O189 O 0.39735 0.1957 0.1861 0.0
O190 O 0.44265 0.18669 0.18684 0.0
C191 C 0.39962 0.29208 0.1761 0.0
O192 O 0.41912 0.26034 0.12845 0.0
O193 O 0.39396 0.22457 0.14224 0.0
C194 C 0.48367 0.22232 0.1511 0.0
O195 O 0.42577 0.29242 0.1726 0.0
O196 O 0.3854 0.27001 0.17251 0.0
C197 C 0.40503 0.22954 0.23535 0.0
Fe198 Fe 0.95844 0.27828 0.79663 0.0
Fe199 Fe 0.94488 0.23362 0.84105 0.0
O200 O 0.93357 0.25932 0.81671 0.0
Fe201 Fe 0.89739 0.26576 0.81216 0.0
O202 O 0.89931 0.25616 0.77553 0.0
O203 O 0.93603 0.28194 0.76548 0.0
O204 O 0.97211 0.24625 0.78113 0.0
C205 C 0.98084 0.22546 0.79495 0.0
C206 C 0.92149 0.32005 0.80833 0.0
O207 O 0.97577 0.22328 0.82087 0.0
C208 C 0.89917 0.25962 0.86888 0.0
O209 O 0.98511 0.27827 0.82416 0.0
O210 O 0.96454 0.25945 0.86086 0.0
O211 O 0.90167 0.30301 0.80396 0.0
O212 O 0.94641 0.3116 0.81067 0.0
C213 C 0.90026 0.20714 0.81693 0.0
O214 O 0.91592 0.23932 0.86553 0.0
O215 O 0.89292 0.27551 0.84868 0.0
C216 C 0.98294 0.27532 0.85044 0.0
O217 O 0.926 0.20604 0.82271 0.0
O218 O 0.88661 0.2297 0.81906 0.0
C219 C 0.91473 0.26817 0.75779 0.0
Fe220 Fe 0.60245 0.72653 0.31293 0.0
Fe221 Fe 0.54147 0.71744 0.29381 0.0
O222 O 0.56648 0.73538 0.31487 0.0
Fe223 Fe 0.55546 0.76278 0.33759 0.0
O224 O 0.57675 0.78844 0.31904 0.0
O225 O 0.61479 0.76239 0.31798 0.0
O226 O 0.60357 0.73362 0.27567 0.0
C227 C 0.58816 0.72248 0.25739 0.0
C228 C 0.5985 0.73634 0.36908 0.0
O229 O 0.5651 0.71127 0.26404 0.0
C230 C 0.51428 0.72404 0.34635 0.0
O231 O 0.59625 0.68915 0.30735 0.0
O232 O 0.55039 0.68369 0.30896 0.0
O233 O 0.58283 0.75704 0.36381 0.0
O234 O 0.60452 0.71891 0.35018 0.0
C235 C 0.52255 0.77149 0.28956 0.0
O236 O 0.5135 0.72002 0.32007 0.0
O237 O 0.5333 0.73888 0.3573 0.0
C238 C 0.57487 0.67375 0.31031 0.0
O239 O 0.53073 0.74988 0.2767 0.0
O240 O 0.52619 0.77386 0.31566 0.0
C241 C 0.60253 0.78553 0.31396 0.0
Fe242 Fe 0.04468 0.78398 0.70319 0.0
Fe243 Fe 0.05636 0.74095 0.65637 0.0
O244 O 0.06831 0.76749 0.67958 0.0
Fe245 Fe 0.10413 0.77694 0.67941 0.0
O246 O 0.10801 0.76727 0.7158 0.0
O247 O 0.07037 0.78862 0.73154 0.0
O248 O 0.03518 0.7506 0.71921 0.0
C249 C 0.02612 0.72959 0.70592 0.0
C250 C 0.07649 0.8289 0.68677 0.0
O251 O 0.0289 0.72797 0.67964 0.0
C252 C 0.09647 0.77044 0.62348 0.0
O253 O 0.01507 0.78238 0.67882 0.0
O254 O 0.03217 0.76512 0.63947 0.0
O255 O 0.09804 0.81361 0.68813 0.0
O256 O 0.05223 0.81868 0.68925 0.0
C257 C 0.10562 0.71843 0.67545 0.0
O258 O 0.08182 0.74892 0.62863 0.0
O259 O 0.10291 0.78714 0.64288 0.0
C260 C 0.01373 0.77908 0.65247 0.0
O261 O 0.07957 0.71504 0.67233 0.0
O262 O 0.1168 0.74193 0.67077 0.0
C263 C 0.09381 0.77696 0.7358 0.0
Fe264 Fe 0.81899 0.6007 0.77768 0.0
Fe265 Fe 0.84305 0.55806 0.73599 0.0
O266 O 0.82216 0.56579 0.76572 0.0
Fe267 Fe 0.80402 0.53883 0.78365 0.0
O268 O 0.77025 0.55504 0.77621 0.0
O269 O 0.78324 0.59662 0.79099 0.0
O270 O 0.80354 0.61136 0.74491 0.0
C271 C 0.81421 0.60771 0.72103 0.0
C272 C 0.82302 0.57423 0.82769 0.0
O273 O 0.83446 0.59083 0.71748 0.0
C274 C 0.85433 0.51332 0.77394 0.0
O275 O 0.85391 0.61176 0.7664 0.0
O276 O 0.87424 0.57327 0.75178 0.0
O277 O 0.80637 0.55576 0.81829 0.0
O278 O 0.83413 0.59172 0.81128 0.0
C279 C 0.79906 0.5224 0.72659 0.0
O280 O 0.85477 0.5239 0.74953 0.0
O281 O 0.83655 0.52111 0.79191 0.0
C282 C 0.87584 0.59817 0.76049 0.0
O283 O 0.81377 0.54234 0.71751 0.0
O284 O 0.79842 0.51683 0.75252 0.0
C285 C 0.76435 0.57976 0.78338 0.0
Fe286 Fe 0.70071 0.45819 0.28328 0.0
Fe287 Fe 0.68548 0.39643 0.27624 0.0
O288 O 0.68119 0.43174 0.26601 0.0
Fe289 Fe 0.65777 0.4404 0.23851 0.0
O290 O 0.68546 0.45654 0.21825 0.0
O291 O 0.70387 0.48106 0.2525 0.0
O292 O 0.7338 0.44251 0.27283 0.0
C293 C 0.74036 0.41763 0.27857 0.0
C294 C 0.64971 0.48387 0.27876 0.0
O295 O 0.72217 0.40024 0.28672 0.0
C296 C 0.62736 0.39942 0.26423 0.0
O297 O 0.70103 0.44016 0.31739 0.0
O298 O 0.67319 0.40401 0.31135 0.0
O299 O 0.6471 0.47417 0.2541 0.0
O300 O 0.66906 0.47549 0.29468 0.0
C301 C 0.68533 0.39145 0.21915 0.0
O302 O 0.64973 0.38565 0.2675 0.0
O303 O 0.62816 0.42465 0.25648 0.0
C304 C 0.68518 0.42129 0.32737 0.0
O305 O 0.6982 0.38712 0.24182 0.0
O306 O 0.66469 0.40821 0.21815 0.0
C307 C 0.70143 0.47578 0.22663 0.0
Fe308 Fe 0.2959 0.95716 0.21986 0.0
Fe309 Fe 0.31864 0.89819 0.23198 0.0
O310 O 0.31932 0.9347 0.23805 0.0
Fe311 Fe 0.34312 0.94882 0.2629 0.0
O312 O 0.3203 0.97783 0.27342 0.0
O313 O 0.28025 0.96911 0.25261 0.0
O314 O 0.26725 0.93157 0.21712 0.0
C315 C 0.2625 0.90923 0.23054 0.0
C316 C 0.34703 0.98759 0.22122 0.0
O317 O 0.28218 0.8959 0.24194 0.0
C318 C 0.37487 0.90516 0.2374 0.0
O319 O 0.30965 0.94665 0.18593 0.0
O320 O 0.31012 0.90132 0.19474 0.0
O321 O 0.36001 0.97003 0.2362 0.0
O322 O 0.32055 0.98663 0.21894 0.0
C323 C 0.32396 0.90256 0.29055 0.0
O324 O 0.35513 0.89756 0.22166 0.0
O325 O 0.37038 0.92217 0.25728 0.0
C326 C 0.31157 0.92157 0.17769 0.0
O327 O 0.32691 0.88865 0.26821 0.0
O328 O 0.32729 0.92873 0.29107 0.0
C329 C 0.29389 0.97997 0.27253 0.0
Fe330 Fe 0.19309 0.10184 0.73168 0.0
Fe331 Fe 0.16425 0.05708 0.76733 0.0
O332 O 0.18853 0.06626 0.74075 0.0
Fe333 Fe 0.2083 0.04001 0.72326 0.0
O334 O 0.2415 0.05521 0.73426 0.0
O335 O 0.23007 0.0983 0.72265 0.0
O336 O 0.20443 0.11049 0.76687 0.0
C337 C 0.19018 0.10603 0.78866 0.0
C338 C 0.19431 0.07827 0.67971 0.0
O339 O 0.16985 0.08897 0.7883 0.0
C340 C 0.15701 0.01447 0.72638 0.0
O341 O 0.15691 0.1122 0.73918 0.0
O342 O 0.13516 0.07284 0.74856 0.0
O343 O 0.20941 0.05867 0.68945 0.0
O344 O 0.18218 0.09527 0.69593 0.0
C345 C 0.2076 0.02171 0.77989 0.0
O346 O 0.15433 0.0235 0.75122 0.0
O347 O 0.1767 0.02299 0.71093 0.0
C348 C 0.13451 0.09822 0.74125 0.0
O349 O 0.19151 0.04094 0.78812 0.0
O350 O 0.21072 0.01674 0.75397 0.0
C351 C 0.24815 0.08037 0.72986 0.0
Fe352 Fe 0.7653 0.81709 0.60306 0.0
Fe353 Fe 0.73545 0.84139 0.55181 0.0
O354 O 0.76043 0.81807 0.56636 0.0
Fe355 Fe 0.78006 0.79549 0.54418 0.0
O356 O 0.78238 0.76652 0.56948 0.0
O357 O 0.756 0.78049 0.60445 0.0
O358 O 0.72854 0.82446 0.61154 0.0
C359 C 0.70673 0.82105 0.59688 0.0
C360 C 0.82057 0.81144 0.58144 0.0
O361 O 0.70705 0.82459 0.57073 0.0
C362 C 0.77848 0.84706 0.51469 0.0
O363 O 0.77478 0.8538 0.60448 0.0
O364 O 0.73954 0.86842 0.57894 0.0
O365 O 0.81312 0.80997 0.55612 0.0
O366 O 0.80286 0.80931 0.60109 0.0
C367 C 0.72836 0.79244 0.51958 0.0
O368 O 0.76236 0.85925 0.5318 0.0
O369 O 0.78149 0.82066 0.51516 0.0
C370 C 0.7589 0.87326 0.59644 0.0
O371 O 0.72652 0.81874 0.5222 0.0
O372 O 0.74835 0.77914 0.53063 0.0
C373 C 0.76805 0.7612 0.59114 0.0
Fe374 Fe 0.72576 0.18687 0.10288 0.0
Fe375 Fe 0.76206 0.16124 0.0565 0.0
O376 O 0.7343 0.18366 0.06698 0.0
Fe377 Fe 0.71511 0.20322 0.04185 0.0
O378 O 0.72477 0.23644 0.05796 0.0
O379 O 0.71382 0.22316 0.1006 0.0
O380 O 0.7602 0.20055 0.11067 0.0
C381 C 0.78299 0.18847 0.10489 0.0
C382 C 0.67355 0.18487 0.08019 0.0
O383 O 0.78372 0.16817 0.08773 0.0
C384 C 0.72021 0.15291 0.01468 0.0
O385 O 0.73623 0.15131 0.11238 0.0
O386 O 0.74591 0.13065 0.07254 0.0
O387 O 0.68196 0.20158 0.06133 0.0
O388 O 0.69074 0.17353 0.0968 0.0
C389 C 0.77083 0.2061 0.02158 0.0
O390 O 0.74525 0.15071 0.02336 0.0
O391 O 0.70414 0.17166 0.02407 0.0
C392 C 0.73938 0.12925 0.0981 0.0
O393 O 0.78059 0.18986 0.03994 0.0
O394 O 0.74468 0.20817 0.01778 0.0
C395 C 0.72004 0.24213 0.0833 0.0
Fe396 Fe 0.28407 0.70919 0.45981 0.0
Fe397 Fe 0.27381 0.68988 0.39923 0.0
O398 O 0.2654 0.68823 0.43526 0.0
Fe399 Fe 0.23783 0.66598 0.44673 0.0
O400 O 0.22714 0.68865 0.4756 0.0
O401 O 0.25208 0.72701 0.47065 0.0
O402 O 0.29042 0.73853 0.43572 0.0
C403 C 0.2784 0.74529 0.4131 0.0
C404 C 0.27677 0.65728 0.48789 0.0
O405 O 0.26665 0.72709 0.39805 0.0
C406 C 0.26416 0.63384 0.40408 0.0
O407 O 0.31746 0.6932 0.45062 0.0
O408 O 0.31123 0.69547 0.40493 0.0
O409 O 0.26157 0.64633 0.46917 0.0
O410 O 0.28133 0.68346 0.48819 0.0
C411 C 0.21482 0.68892 0.39935 0.0
O412 O 0.28142 0.65271 0.39756 0.0
O413 O 0.24345 0.63928 0.41974 0.0
C414 C 0.3269 0.69162 0.42595 0.0
O415 O 0.23791 0.68467 0.3871 0.0
O416 O 0.21209 0.68435 0.42523 0.0
C417 C 0.23013 0.71475 0.47884 0.0
Fe418 Fe 0.21278 0.31636 0.90031 0.0
Fe419 Fe 0.25707 0.33991 0.94036 0.0
O420 O 0.22687 0.31922 0.93441 0.0
Fe421 Fe 0.2106 0.30101 0.96233 0.0
O422 O 0.21684 0.26738 0.94534 0.0
O423 O 0.19922 0.28078 0.90505 0.0
O424 O 0.24473 0.30063 0.88747 0.0
C425 C 0.26879 0.31137 0.88963 0.0
C426 C 0.16471 0.32092 0.93008 0.0
O427 O 0.27332 0.33154 0.90636 0.0
C428 C 0.22221 0.35107 0.98756 0.0
O429 O 0.22373 0.35119 0.88875 0.0
O430 O 0.24038 0.37124 0.92653 0.0
O431 O 0.17498 0.30381 0.94766 0.0
O432 O 0.18009 0.33188 0.91159 0.0
C433 C 0.26846 0.29541 0.97471 0.0
O434 O 0.2459 0.35139 0.97545 0.0
O435 O 0.2037 0.3334 0.98088 0.0
C436 C 0.23029 0.37302 0.90218 0.0
O437 O 0.27631 0.3104 0.95447 0.0
O438 O 0.24302 0.29499 0.98216 0.0
C439 C 0.20777 0.26168 0.92121 0.0
Fe440 Fe 0.56108 0.73337 0.8332 0.0
Fe441 Fe 0.54321 0.7784 0.79045 0.0
O442 O 0.56978 0.76086 0.80975 0.0
Fe443 Fe 0.60522 0.7708 0.80549 0.0
O444 O 0.61455 0.73619 0.79302 0.0
O445 O 0.59331 0.71311 0.82674 0.0
O446 O 0.54509 0.71313 0.80541 0.0
C447 C 0.52581 0.72152 0.78943 0.0
C448 C 0.60194 0.75914 0.86376 0.0
O449 O 0.52059 0.74742 0.78685 0.0
C450 C 0.58033 0.82221 0.80614 0.0
O451 O 0.52723 0.74863 0.84371 0.0
O452 O 0.52569 0.78936 0.82225 0.0
O453 O 0.61581 0.76232 0.84141 0.0
O454 O 0.57667 0.75145 0.86287 0.0
C455 C 0.5838 0.77408 0.75048 0.0
O456 O 0.56108 0.81254 0.7906 0.0
O457 O 0.5979 0.80605 0.81754 0.0
C458 C 0.51736 0.77319 0.84139 0.0
O459 O 0.55879 0.76881 0.75704 0.0
O460 O 0.60161 0.78101 0.76876 0.0
C461 C 0.6104 0.71381 0.80641 0.0
Fe462 Fe 0.0413 0.71648 0.20632 0.0
Fe463 Fe 0.10185 0.721 0.18649 0.0
O464 O 0.06681 0.73279 0.18467 0.0
Fe465 Fe 0.05788 0.76069 0.1617 0.0
O466 O 0.04326 0.78141 0.18987 0.0
O467 O 0.02005 0.74814 0.21154 0.0
O468 O 0.0602 0.72582 0.23838 0.0
C469 C 0.08532 0.71884 0.24265 0.0
C470 C 0.01225 0.72204 0.15679 0.0
O471 O 0.10007 0.70949 0.22285 0.0
C472 C 0.09697 0.73467 0.12898 0.0
O473 O 0.05783 0.68155 0.20453 0.0
O474 O 0.09183 0.68671 0.17381 0.0
O475 O 0.02334 0.74587 0.15242 0.0
O476 O 0.02077 0.70625 0.17623 0.0
C477 C 0.10857 0.77786 0.18762 0.0
O478 O 0.11128 0.73036 0.15072 0.0
O479 O 0.07194 0.74285 0.13097 0.0
C480 C 0.07483 0.67114 0.18684 0.0
O481 O 0.11307 0.75463 0.19942 0.0
O482 O 0.0909 0.78008 0.16779 0.0
C483 C 0.02495 0.77384 0.20724 0.0
Fe484 Fe 0.39434 0.26735 0.67927 0.0
Fe485 Fe 0.4446 0.23336 0.65891 0.0
O486 O 0.4305 0.25974 0.68106 0.0
Fe487 Fe 0.4524 0.27788 0.70511 0.0
O488 O 0.42542 0.28165 0.73246 0.0
O489 O 0.38942 0.25838 0.71565 0.0
O490 O 0.38394 0.23143 0.67111 0.0
C491 C 0.39621 0.20879 0.67728 0.0
C492 C 0.41901 0.32092 0.68689 0.0
O493 O 0.42247 0.20667 0.67501 0.0
C494 C 0.48498 0.2738 0.65539 0.0
O495 O 0.3966 0.27671 0.64256 0.0
O496 O 0.41954 0.23898 0.63014 0.0
O497 O 0.44361 0.31183 0.6902 0.0
O498 O 0.3982 0.30455 0.68735 0.0
C499 C 0.47356 0.22469 0.70964 0.0
O500 O 0.46775 0.25853 0.64219 0.0
O501 O 0.48286 0.27741 0.68167 0.0
C502 C 0.40404 0.2596 0.62389 0.0
O503 O 0.47203 0.22261 0.6833 0.0
O504 O 0.46303 0.24543 0.72221 0.0
C505 C 0.40227 0.26914 0.736 0.0
Fe506 Fe 0.95841 0.2202 0.29091 0.0
Fe507 Fe 0.89677 0.22979 0.30558 0.0
O508 O 0.93245 0.23852 0.31023 0.0
Fe509 Fe 0.94197 0.26552 0.33389 0.0
O510 O 0.95929 0.28515 0.30645 0.0
O511 O 0.98261 0.25001 0.28815 0.0
O512 O 0.94355 0.23124 0.25759 0.0
C513 C 0.91845 0.22665 0.25086 0.0
C514 C 0.98335 0.22344 0.34241 0.0
O515 O 0.90053 0.21942 0.26891 0.0
C516 C 0.89956 0.24163 0.36384 0.0
O517 O 0.93903 0.18693 0.29027 0.0
O518 O 0.90278 0.19431 0.31771 0.0
O519 O 0.97482 0.24851 0.34482 0.0
O520 O 0.97486 0.20799 0.32273 0.0
C521 C 0.89399 0.28697 0.30623 0.0
O522 O 0.886 0.23878 0.34128 0.0
O523 O 0.92514 0.2482 0.36334 0.0
C524 C 0.91964 0.17768 0.3059 0.0
O525 O 0.88894 0.26465 0.29302 0.0
O526 O 0.9108 0.28715 0.32682 0.0
C527 C 0.97851 0.27606 0.29082 0.0
H528 H 0.25985 0.51436 0.26855 0.0
H529 H 0.23675 0.5859 0.41824 0.0
H530 H 0.196 0.49116 0.32823 0.0
H531 H 0.29193 0.62027 0.35538 0.0
H532 H 0.22979 0.54474 0.38895 0.0
H533 H 0.2791 0.54741 0.3031 0.0
C534 C 0.25012 0.51598 0.28899 0.0
C535 C 0.22601 0.5004 0.2954 0.0
C536 C 0.24369 0.56111 0.38163 0.0
C537 C 0.24794 0.53774 0.33486 0.0
C538 C 0.24773 0.58461 0.39841 0.0
C539 C 0.26451 0.60679 0.38901 0.0
C540 C 0.25628 0.55982 0.35506 0.0
C541 C 0.27859 0.60375 0.36332 0.0
C542 C 0.26107 0.53482 0.30864 0.0
C543 C 0.21429 0.50316 0.3222 0.0
N544 N 0.27377 0.58088 0.34697 0.0
N545 N 0.22525 0.52156 0.34082 0.0
H546 H 0.20441 0.38614 0.85283 0.0
H547 H 0.30508 0.51497 0.82587 0.0
H548 H 0.2589 0.42104 0.91602 0.0
H549 H 0.24074 0.49034 0.76737 0.0
H550 H 0.28486 0.48379 0.86079 0.0
H551 H 0.21331 0.4269 0.82327 0.0
C552 C 0.21792 0.4026 0.86069 0.0
C553 C 0.23132 0.39993 0.88678 0.0
C554 C 0.27488 0.48537 0.84047 0.0
C555 C 0.2418 0.44655 0.85283 0.0
C556 C 0.2865 0.5031 0.82046 0.0
C557 C 0.27481 0.50488 0.79354 0.0
C558 C 0.25161 0.46885 0.83347 0.0
C559 C 0.25048 0.48943 0.78783 0.0
C560 C 0.22296 0.42589 0.84377 0.0
C561 C 0.2483 0.42207 0.89599 0.0
N562 N 0.23993 0.47165 0.8075 0.0
N563 N 0.25342 0.44422 0.87883 0.0
H564 H 0.7303 0.92104 0.58331 0.0
H565 H 0.75487 0.99109 0.73359 0.0
H566 H 0.78686 0.8868 0.64505 0.0
H567 H 0.69098 0.0157 0.67455 0.0
H568 H 0.77381 0.95851 0.69841 0.0
H569 H 0.7233 0.96185 0.61312 0.0
C570 C 0.74157 0.92226 0.60298 0.0
C571 C 0.75879 0.90018 0.61189 0.0
C572 C 0.75585 0.97132 0.69312 0.0
C573 C 0.75055 0.94684 0.64643 0.0
C574 C 0.74511 0.98994 0.71313 0.0
C575 C 0.72105 0.00573 0.70711 0.0
C576 C 0.74254 0.96882 0.66693 0.0
C577 C 0.70925 0.00352 0.68027 0.0
C578 C 0.7375 0.94558 0.62007 0.0
C579 C 0.77314 0.90318 0.63745 0.0
N580 N 0.71998 0.9853 0.66131 0.0
N581 N 0.76836 0.92587 0.65405 0.0
H582 H 0.75381 0.01598 0.23607 0.0
H583 H 0.76359 0.07948 0.08146 0.0
H584 H 0.80015 0.97667 0.16903 0.0
H585 H 0.71793 0.11755 0.14961 0.0
H586 H 0.77177 0.03818 0.11091 0.0
H587 H 0.73535 0.04992 0.20267 0.0
C588 C 0.75995 0.01432 0.21429 0.0
C589 C 0.77888 0.99362 0.20548 0.0
C590 C 0.75964 0.05544 0.11925 0.0
C591 C 0.75789 0.03266 0.16699 0.0
C592 C 0.75484 0.07895 0.10239 0.0
C593 C 0.74041 0.10218 0.11323 0.0
C594 C 0.7499 0.05521 0.14707 0.0
C595 C 0.72956 0.10032 0.14051 0.0
C596 C 0.74937 0.03373 0.19517 0.0
C597 C 0.78581 0.9924 0.17686 0.0
N598 N 0.73476 0.07744 0.15654 0.0
N599 N 0.77558 0.01184 0.15871 0.0
H600 H 0.41606 0.22867 0.5771 0.0
H601 H 0.26257 0.24642 0.51593 0.0
H602 H 0.35676 0.28894 0.60926 0.0
H603 H 0.32752 0.19933 0.47407 0.0
H604 H 0.29769 0.26504 0.5482 0.0
H605 H 0.38548 0.22089 0.53683 0.0
C606 C 0.39685 0.24065 0.57546 0.0
C607 C 0.38882 0.2592 0.59683 0.0
C608 C 0.30431 0.25089 0.53175 0.0
C609 C 0.35341 0.25 0.55097 0.0
C610 C 0.28423 0.24017 0.51335 0.0
C611 C 0.29199 0.22096 0.49246 0.0
C612 C 0.33233 0.24214 0.52947 0.0
C613 C 0.32047 0.21387 0.48999 0.0
C614 C 0.37935 0.23615 0.55246 0.0
C615 C 0.36376 0.27428 0.59343 0.0
N616 N 0.33951 0.22417 0.50849 0.0
N617 N 0.34672 0.26899 0.57122 0.0
H618 H 0.08222 0.76204 0.08019 0.0
H619 H 0.23774 0.74952 0.01978 0.0
H620 H 0.14666 0.70986 0.11623 0.0
H621 H 0.17208 0.79593 0.97832 0.0
H622 H 0.20313 0.73116 0.05266 0.0
H623 H 0.11278 0.77059 0.03973 0.0
C624 C 0.1025 0.75189 0.07933 0.0
C625 C 0.11203 0.73553 0.10182 0.0
C626 C 0.19621 0.74517 0.03622 0.0
C627 C 0.14725 0.74555 0.0559 0.0
C628 C 0.21603 0.7557 0.01743 0.0
C629 C 0.20795 0.77458 0.9964 0.0
C630 C 0.16807 0.75371 0.03419 0.0
C631 C 0.17939 0.78162 0.99431 0.0
C632 C 0.12003 0.75692 0.05632 0.0
C633 C 0.13858 0.72298 0.09958 0.0
N634 N 0.16057 0.77144 0.01314 0.0
N635 N 0.15533 0.72852 0.07729 0.0
H636 H 0.91671 0.26149 0.41529 0.0
H637 H 0.76115 0.25741 0.47765 0.0
H638 H 0.84595 0.22409 0.37316 0.0
H639 H 0.83069 0.29736 0.51955 0.0
H640 H 0.79339 0.2399 0.44205 0.0
H641 H 0.8872 0.26928 0.45656 0.0
C642 C 0.89513 0.2545 0.41485 0.0
C643 C 0.88372 0.24245 0.39055 0.0
C644 C 0.80166 0.25232 0.45914 0.0
C645 C 0.84977 0.25153 0.4376 0.0
C646 C 0.78322 0.26236 0.47951 0.0
C647 C 0.7931 0.2792 0.5015 0.0
C648 C 0.83025 0.25923 0.46062 0.0
C649 C 0.82203 0.28467 0.50286 0.0
C650 C 0.87824 0.25908 0.43838 0.0
C651 C 0.85559 0.23379 0.39126 0.0
N652 N 0.83952 0.27493 0.48257 0.0
N653 N 0.83957 0.23874 0.41423 0.0
H654 H 0.65333 0.78181 0.87505 0.0
H655 H 0.6738 0.68904 0.01045 0.0
H656 H 0.58601 0.73552 0.91377 0.0
H657 H 0.73363 0.75224 0.98617 0.0
H658 H 0.64055 0.70796 0.97665 0.0
H659 H 0.68203 0.77404 0.91674 0.0
C660 C 0.64441 0.77037 0.8925 0.0
C661 C 0.61733 0.75896 0.89073 0.0
C662 C 0.66079 0.71797 0.97887 0.0
C663 C 0.65026 0.74971 0.9384 0.0
C664 C 0.67985 0.70709 0.99809 0.0
C665 C 0.70664 0.71889 0.00085 0.0
C666 C 0.66866 0.74056 0.96179 0.0
C667 C 0.71322 0.74247 0.9846 0.0
C668 C 0.66083 0.76598 0.91632 0.0
C669 C 0.6068 0.74457 0.9141 0.0
N670 N 0.69451 0.75227 0.96539 0.0
N671 N 0.62346 0.73995 0.93676 0.0
H672 H 0.48373 0.32642 0.19077 0.0
H673 H 0.61618 0.34803 0.28686 0.0
H674 H 0.50724 0.26643 0.2541 0.0
H675 H 0.57743 0.41523 0.24041 0.0
H676 H 0.57486 0.31902 0.27843 0.0
H677 H 0.51601 0.36022 0.21126 0.0
C678 C 0.49559 0.32046 0.20919 0.0
C679 C 0.49314 0.29348 0.22055 0.0
C680 C 0.57517 0.34027 0.2705 0.0
C681 C 0.53043 0.33205 0.24402 0.0
C682 C 0.59878 0.35686 0.27527 0.0
C683 C 0.60047 0.38397 0.26393 0.0
C684 C 0.55326 0.35071 0.25393 0.0
C685 C 0.57717 0.3944 0.24936 0.0
C686 C 0.51393 0.33983 0.22097 0.0
C687 C 0.50865 0.28699 0.24464 0.0
N688 N 0.55475 0.37757 0.24436 0.0
N689 N 0.52707 0.30601 0.25532 0.0
H690 H 0.98959 0.17191 0.81201 0.0
H691 H 0.12358 0.1493 0.71798 0.0
H692 H 0.0138 0.23081 0.74787 0.0
H693 H 0.08439 0.08254 0.76467 0.0
H694 H 0.08222 0.17843 0.72584 0.0
H695 H 0.02279 0.13812 0.79298 0.0
C696 C 0.00185 0.17768 0.7938 0.0
C697 C 0.99925 0.20436 0.78174 0.0
C698 C 0.08245 0.15725 0.73394 0.0
C699 C 0.03746 0.16572 0.75987 0.0
C700 C 0.10606 0.1406 0.72949 0.0
C701 C 0.1076 0.11358 0.74104 0.0
C702 C 0.0604 0.14698 0.75045 0.0
C703 C 0.08419 0.10329 0.75552 0.0
C704 C 0.02068 0.15829 0.78282 0.0
C705 C 0.0153 0.21053 0.7579 0.0
N706 N 0.06176 0.12019 0.76025 0.0
N707 N 0.03408 0.19149 0.74799 0.0
H708 H 0.51978 0.82623 0.30368 0.0
H709 H 0.38787 0.85791 0.20696 0.0
H710 H 0.48827 0.76703 0.2431 0.0
H711 H 0.42269 0.91591 0.26702 0.0
H712 H 0.42842 0.82731 0.21385 0.0
H713 H 0.48867 0.8618 0.28471 0.0
C714 C 0.50637 0.82079 0.28618 0.0
C715 C 0.50622 0.79353 0.27525 0.0
C716 C 0.42738 0.84694 0.22517 0.0
C717 C 0.47015 0.83422 0.25349 0.0
C718 C 0.40427 0.86452 0.22118 0.0
C719 C 0.40158 0.88933 0.23685 0.0
C720 C 0.44792 0.85426 0.24492 0.0
C721 C 0.4236 0.89681 0.25482 0.0
C722 C 0.48863 0.84116 0.27528 0.0
C723 C 0.48885 0.78778 0.25224 0.0
N724 N 0.4456 0.8792 0.25861 0.0
N725 N 0.4711 0.80788 0.24238 0.0
H726 H 0.92423 0.58325 0.73294 0.0
H727 H 0.99577 0.73369 0.75493 0.0
H728 H 0.88872 0.64856 0.78447 0.0
H729 H 0.01756 0.67597 0.68884 0.0
H730 H 0.96299 0.69871 0.7737 0.0
H731 H 0.96522 0.61295 0.72468 0.0
C732 C 0.92525 0.6036 0.74293 0.0
C733 C 0.90279 0.61358 0.75908 0.0
C734 C 0.97523 0.69364 0.75528 0.0
C735 C 0.94957 0.64773 0.7496 0.0
C736 C 0.994 0.71353 0.74465 0.0
C737 C 0.00909 0.70787 0.72007 0.0
C738 C 0.97183 0.66786 0.74138 0.0
C739 C 0.00599 0.68139 0.70759 0.0
C740 C 0.94859 0.62062 0.73809 0.0
C741 C 0.90535 0.64016 0.77153 0.0
N742 N 0.98763 0.66248 0.71826 0.0
N743 N 0.92816 0.6564 0.76632 0.0
H744 H 0.76457 0.41753 0.58248 0.0
H745 H 0.76296 0.47944 0.73823 0.0
H746 H 0.72303 0.37847 0.65265 0.0
H747 H 0.80381 0.521 0.66907 0.0
H748 H 0.74392 0.44506 0.70565 0.0
H749 H 0.7745 0.45842 0.61202 0.0
C750 C 0.75708 0.41774 0.6039 0.0
C751 C 0.74323 0.39435 0.61518 0.0
C752 C 0.75687 0.46179 0.6975 0.0
C753 C 0.75478 0.44091 0.64915 0.0
C754 C 0.7678 0.48147 0.71615 0.0
C755 C 0.7853 0.50303 0.70649 0.0
C756 C 0.76358 0.46343 0.66887 0.0
C757 C 0.79056 0.50466 0.67753 0.0
C758 C 0.7629 0.44103 0.62081 0.0
C759 C 0.73409 0.39582 0.64312 0.0
N760 N 0.77999 0.48496 0.6598 0.0
N761 N 0.74025 0.4185 0.65914 0.0
H762 H 0.6969 0.47408 0.16938 0.0
H763 H 0.78615 0.61396 0.14636 0.0
H764 H 0.73774 0.5193 0.23628 0.0
H765 H 0.73238 0.57718 0.08359 0.0
H766 H 0.77667 0.57402 0.17703 0.0
H767 H 0.71725 0.50666 0.13566 0.0
C768 C 0.71027 0.49075 0.17701 0.0
C769 C 0.71525 0.49418 0.20581 0.0
C770 C 0.76727 0.57453 0.15638 0.0
C771 C 0.73874 0.53153 0.16718 0.0
C772 C 0.77283 0.59723 0.13876 0.0
C773 C 0.75969 0.59914 0.11251 0.0
C774 C 0.74858 0.55356 0.14761 0.0
C775 C 0.74265 0.57679 0.10381 0.0
C776 C 0.72191 0.50934 0.1577 0.0
C777 C 0.73303 0.51603 0.21434 0.0
N778 N 0.73735 0.5551 0.12143 0.0
N779 N 0.74396 0.53399 0.19514 0.0
H780 H 0.20383 0.11332 0.35593 0.0
H781 H 0.2391 0.99845 0.27342 0.0
H782 H 0.26485 0.0823 0.41492 0.0
H783 H 0.31616 0.00122 0.3207 0.0
H784 H 0.2176 0.02974 0.30792 0.0
H785 H 0.21355 0.07363 0.32548 0.0
C786 C 0.21878 0.09768 0.36282 0.0
C787 C 0.23367 0.10124 0.38795 0.0
C788 C 0.23928 0.02374 0.31062 0.0
C789 C 0.24496 0.0554 0.35308 0.0
C790 C 0.25151 0.00567 0.29099 0.0
C791 C 0.27967 0.99765 0.29379 0.0
C792 C 0.25538 0.03385 0.33319 0.0
C793 C 0.29456 0.00727 0.31731 0.0
C794 C 0.22423 0.07483 0.34543 0.0
C795 C 0.25282 0.08037 0.39579 0.0
N796 N 0.28229 0.0249 0.33596 0.0
N797 N 0.25832 0.05864 0.37814 0.0
H798 H 0.24055 0.91556 0.92517 0.0
H799 H 0.20759 0.02724 0.8371 0.0
H800 H 0.28476 0.88121 0.85416 0.0
H801 H 0.23729 0.97333 0.77082 0.0
H802 H 0.22626 0.99463 0.87146 0.0
H803 H 0.22939 0.95691 0.89761 0.0
C804 C 0.24853 0.91705 0.90398 0.0
C805 C 0.26335 0.89471 0.8919 0.0
C806 C 0.22852 0.9896 0.8495 0.0
C807 C 0.25078 0.9423 0.8599 0.0
C808 C 0.21796 0.00844 0.82976 0.0
C809 C 0.22043 0.00283 0.80096 0.0
C810 C 0.24144 0.96473 0.84041 0.0
C811 C 0.23459 0.97842 0.79276 0.0
C812 C 0.24214 0.94082 0.88809 0.0
C813 C 0.27299 0.89776 0.86427 0.0
N814 N 0.24434 0.96024 0.81236 0.0
N815 N 0.26625 0.92088 0.84917 0.0
H816 H 0.73442 0.74342 0.48934 0.0
H817 H 0.58422 0.76304 0.41733 0.0
H818 H 0.67518 0.80887 0.50879 0.0
H819 H 0.64849 0.71027 0.38182 0.0
H820 H 0.61397 0.77125 0.45792 0.0
H821 H 0.70028 0.72336 0.45619 0.0
C822 C 0.71416 0.75333 0.48689 0.0
C823 C 0.70773 0.77807 0.50148 0.0
C824 C 0.62151 0.7576 0.44144 0.0
C825 C 0.66873 0.7552 0.46412 0.0
C826 C 0.60447 0.75282 0.41827 0.0
C827 C 0.61407 0.73634 0.39591 0.0
C828 C 0.64855 0.74604 0.44229 0.0
C829 C 0.64035 0.72329 0.39851 0.0
C830 C 0.69476 0.74194 0.46798 0.0
C831 C 0.68119 0.79006 0.49762 0.0
N832 N 0.65693 0.72878 0.4211 0.0
N833 N 0.66278 0.77859 0.4793 0.0
H834 H 0.91443 0.23955 0.91994 0.0
H835 H 0.75802 0.24047 0.97726 0.0
H836 H 0.84645 0.2812 0.87733 0.0
H837 H 0.82821 0.20488 0.02192 0.0
H838 H 0.7906 0.26058 0.94326 0.0
H839 H 0.88416 0.23244 0.96042 0.0
C840 C 0.89321 0.24762 0.91931 0.0
C841 C 0.88281 0.26065 0.89511 0.0
C842 C 0.79888 0.24861 0.96067 0.0
C843 C 0.84779 0.25211 0.94124 0.0
C844 C 0.78027 0.23705 0.98007 0.0
C845 C 0.79033 0.22054 0.00226 0.0
C846 C 0.82773 0.24355 0.9634 0.0
C847 C 0.81942 0.21711 0.00497 0.0
C848 C 0.8759 0.2435 0.94242 0.0
C849 C 0.85527 0.27095 0.89553 0.0
N850 N 0.83703 0.22826 0.98562 0.0
N851 N 0.83852 0.26601 0.91807 0.0
H852 H 0.1437 0.80096 0.61069 0.0
H853 H 0.17492 0.7024 0.48038 0.0
H854 H 0.08475 0.74229 0.57516 0.0
H855 H 0.23519 0.76163 0.51239 0.0
H856 H 0.13913 0.7232 0.51002 0.0
H857 H 0.17438 0.79374 0.57022 0.0
C858 C 0.13686 0.78708 0.59408 0.0
C859 C 0.11185 0.77174 0.59659 0.0
C860 C 0.16006 0.73194 0.51049 0.0
C861 C 0.14699 0.76324 0.55045 0.0
C862 C 0.18056 0.71997 0.49361 0.0
C863 C 0.20816 0.72997 0.49437 0.0
C864 C 0.16721 0.75384 0.52876 0.0
C865 C 0.21417 0.75316 0.51141 0.0
C866 C 0.15449 0.78287 0.57105 0.0
C867 C 0.10406 0.75416 0.57438 0.0
N868 N 0.19394 0.76404 0.52838 0.0
N869 N 0.12173 0.7501 0.55249 0.0
H870 H 0.25976 0.25727 0.01665 0.0
H871 H 0.41435 0.27079 0.07578 0.0
H872 H 0.32565 0.30125 0.973 0.0
H873 H 0.35321 0.2134 0.10966 0.0
H874 H 0.38369 0.2789 0.03565 0.0
H875 H 0.29462 0.23804 0.04876 0.0
C876 C 0.28159 0.2627 0.01366 0.0
C877 C 0.28971 0.28123 0.99231 0.0
C878 C 0.37716 0.2642 0.05164 0.0
C879 C 0.32977 0.25937 0.02916 0.0
C880 C 0.39469 0.25953 0.07457 0.0
C881 C 0.38619 0.24171 0.09637 0.0
C882 C 0.35076 0.25123 0.05063 0.0
C883 C 0.36057 0.2275 0.0935 0.0
C884 C 0.30152 0.25163 0.03196 0.0
C885 C 0.31836 0.28724 0.98928 0.0
N886 N 0.34356 0.23294 0.07131 0.0
N887 N 0.3373 0.27666 0.00773 0.0
H888 H 0.5264 0.6644 0.79555 0.0
H889 H 0.38563 0.64156 0.70753 0.0
H890 H 0.48249 0.73094 0.75277 0.0
H891 H 0.41988 0.58075 0.76505 0.0
H892 H 0.42659 0.67131 0.71557 0.0
H893 H 0.49283 0.63081 0.7766 0.0
C894 C 0.50985 0.67197 0.782 0.0
C895 C 0.50705 0.70066 0.77611 0.0
C896 C 0.42529 0.65127 0.72611 0.0
C897 C 0.46855 0.66217 0.75425 0.0
C898 C 0.40201 0.63416 0.72139 0.0
C899 C 0.39911 0.60878 0.73598 0.0
C900 C 0.44587 0.64285 0.74539 0.0
C901 C 0.42105 0.60032 0.75366 0.0
C902 C 0.49067 0.65274 0.77119 0.0
C903 C 0.48528 0.7091 0.75819 0.0
N904 N 0.44334 0.61743 0.75808 0.0
N905 N 0.46675 0.68997 0.74806 0.0
H906 H 0.02449 0.83059 0.19762 0.0
H907 H 0.88611 0.85435 0.28864 0.0
H908 H 0.98398 0.76644 0.24687 0.0
H909 H 0.91963 0.91671 0.23247 0.0
H910 H 0.9271 0.82518 0.28014 0.0
H911 H 0.99129 0.86496 0.2161 0.0
C912 C 0.00881 0.82373 0.21253 0.0
C913 C 0.00684 0.79541 0.22041 0.0
C914 C 0.92574 0.84537 0.26989 0.0
C915 C 0.96879 0.8348 0.24167 0.0
C916 C 0.90235 0.86211 0.27481 0.0
C917 C 0.89925 0.88785 0.26094 0.0
C918 C 0.9462 0.85423 0.25074 0.0
C919 C 0.92113 0.89697 0.24353 0.0
C920 C 0.98986 0.84342 0.22305 0.0
C921 C 0.98617 0.78791 0.23993 0.0
N922 N 0.94352 0.87996 0.23858 0.0
N923 N 0.96787 0.80742 0.2497 0.0
H924 H 0.47868 0.1698 0.69697 0.0
H925 H 0.61328 0.14693 0.79237 0.0
H926 H 0.50706 0.23176 0.75627 0.0
H927 H 0.57837 0.08467 0.73685 0.0
H928 H 0.57145 0.1759 0.78518 0.0
H929 H 0.51147 0.13622 0.71679 0.0
C930 C 0.49171 0.17622 0.71443 0.0
C931 C 0.49045 0.20366 0.72478 0.0
C932 C 0.57277 0.15569 0.77497 0.0
C933 C 0.52858 0.16536 0.74741 0.0
C934 C 0.5966 0.13907 0.77915 0.0
C935 C 0.59956 0.11352 0.7648 0.0
C936 C 0.55183 0.14663 0.75635 0.0
C937 C 0.57725 0.10441 0.74798 0.0
C938 C 0.51044 0.15701 0.7258 0.0
C939 C 0.50749 0.21078 0.74766 0.0
N940 N 0.55456 0.12107 0.74398 0.0
N941 N 0.52628 0.19186 0.75794 0.0
H942 H 0.12519 0.35179 0.21599 0.0
H943 H 0.97847 0.33332 0.29502 0.0
H944 H 0.08608 0.41576 0.26658 0.0
H945 H 0.02395 0.26476 0.25734 0.0
H946 H 0.01362 0.36577 0.2771 0.0
H947 H 0.08398 0.32197 0.22297 0.0
C948 C 0.10773 0.35979 0.22809 0.0
C949 C 0.10923 0.38616 0.24103 0.0
C950 C 0.01582 0.34364 0.27258 0.0
C951 C 0.06221 0.35213 0.24925 0.0
C952 C 0.99574 0.32506 0.28282 0.0
C953 C 0.99844 0.29616 0.27806 0.0
C954 C 0.03883 0.33334 0.2574 0.0
C955 C 0.02116 0.28681 0.26182 0.0
C956 C 0.08431 0.34269 0.23223 0.0
C957 C 0.08599 0.39542 0.25653 0.0
N958 N 0.0406 0.30532 0.25227 0.0
N959 N 0.06359 0.37835 0.26039 0.0
H960 H 0.26214 0.3762 0.01992 0.0
H961 H 0.15826 0.43562 0.13679 0.0
H962 H 0.17262 0.36494 0.01324 0.0
H963 H 0.23966 0.40096 0.15489 0.0
H964 H 0.16454 0.42255 0.08704 0.0
H965 H 0.25529 0.39917 0.06517 0.0
C966 C 0.241 0.37897 0.02771 0.0
C967 C 0.21792 0.36831 0.01295 0.0
C968 C 0.18105 0.41813 0.10197 0.0
C969 C 0.21005 0.39474 0.06457 0.0
C970 C 0.17752 0.42561 0.13014 0.0
C971 C 0.19842 0.41908 0.14967 0.0
C972 C 0.20593 0.40483 0.09352 0.0
C973 C 0.22301 0.40608 0.14033 0.0
C974 C 0.23716 0.39197 0.05357 0.0
C975 C 0.191 0.37254 0.02413 0.0
N976 N 0.22615 0.39945 0.11289 0.0
N977 N 0.18778 0.38535 0.0494 0.0
H978 H 0.31856 0.67045 0.52419 0.0
H979 H 0.28579 0.54581 0.6313 0.0
H980 H 0.25812 0.60564 0.50629 0.0
H981 H 0.33723 0.61786 0.64926 0.0
H982 H 0.28169 0.56176 0.58237 0.0
H983 H 0.33191 0.6458 0.56666 0.0
C984 C 0.30816 0.6509 0.52914 0.0
C985 C 0.28683 0.64037 0.51188 0.0
C986 C 0.29422 0.57377 0.59697 0.0
C987 C 0.30195 0.61194 0.56091 0.0
C988 C 0.29673 0.56458 0.62477 0.0
C989 C 0.31164 0.58073 0.64432 0.0
C990 C 0.30697 0.59907 0.58882 0.0
C991 C 0.32525 0.60498 0.63492 0.0
C992 C 0.31583 0.63677 0.55344 0.0
C993 C 0.27451 0.61463 0.51913 0.0
N994 N 0.32242 0.61347 0.60797 0.0
N995 N 0.28197 0.60144 0.54335 0.0
H996 H 0.67137 0.15826 0.98513 0.0
H997 H 0.7118 0.04599 0.86749 0.0
H998 H 0.74731 0.10913 0.98865 0.0
H999 H 0.66007 0.11862 0.85296 0.0
H1000 H 0.71647 0.06001 0.91692 0.0
H1001 H 0.65864 0.13451 0.94175 0.0
C1002 C 0.68525 0.14224 0.97701 0.0
C1003 C 0.71074 0.13605 0.99037 0.0
C1004 C 0.70374 0.07254 0.90294 0.0
C1005 C 0.69607 0.10869 0.94065 0.0
C1006 C 0.70089 0.06447 0.87488 0.0
C1007 C 0.68567 0.08132 0.85622 0.0
C1008 C 0.69082 0.09729 0.91229 0.0
C1009 C 0.67217 0.10521 0.86669 0.0
C1010 C 0.67794 0.12874 0.95219 0.0
C1011 C 0.72766 0.11486 0.97887 0.0
N1012 N 0.67513 0.11253 0.894 0.0
N1013 N 0.72013 0.10206 0.95452 0.0
H1014 H 0.82019 0.83044 0.4794 0.0
H1015 H 0.78775 0.95027 0.36866 0.0
H1016 H 0.76427 0.8996 0.49585 0.0
H1017 H 0.84675 0.88306 0.35479 0.0
H1018 H 0.78439 0.93646 0.41779 0.0
H1019 H 0.83549 0.85355 0.43656 0.0
C1020 C 0.8113 0.85065 0.47412 0.0
C1021 C 0.79053 0.86287 0.49096 0.0
C1022 C 0.79837 0.92498 0.40409 0.0
C1023 C 0.80783 0.8894 0.44173 0.0
C1024 C 0.80032 0.93286 0.376 0.0
C1025 C 0.8171 0.91742 0.35739 0.0
C1026 C 0.81319 0.90142 0.4136 0.0
C1027 C 0.83317 0.8953 0.36822 0.0
C1028 C 0.8201 0.86388 0.44966 0.0
C1029 C 0.78012 0.88929 0.48334 0.0
N1030 N 0.83049 0.88773 0.39551 0.0
N1031 N 0.78857 0.90149 0.45902 0.0
H1032 H 0.12806 0.21902 0.44959 0.0
H1033 H 0.01066 0.173 0.33974 0.0
H1034 H 0.13766 0.15104 0.39063 0.0
H1035 H 0.00877 0.25061 0.38627 0.0
H1036 H 0.05223 0.15893 0.36593 0.0
H1037 H 0.07948 0.22449 0.43454 0.0
C1038 C 0.11985 0.20489 0.43384 0.0
C1039 C 0.13717 0.18488 0.42095 0.0
C1040 C 0.04255 0.17892 0.37059 0.0
C1041 C 0.0816 0.1912 0.40357 0.0
C1042 C 0.01879 0.187 0.35565 0.0
C1043 C 0.00646 0.21329 0.36043 0.0
C1044 C 0.05409 0.1972 0.39051 0.0
C1045 C 0.01778 0.23033 0.38157 0.0
C1046 C 0.09213 0.20814 0.42518 0.0
C1047 C 0.12524 0.16705 0.40082 0.0
N1048 N 0.04113 0.22211 0.39564 0.0
N1049 N 0.09829 0.17086 0.39251 0.0
H1050 H 0.35964 0.84465 0.89052 0.0
H1051 H 0.49303 0.74446 0.88489 0.0
H1052 H 0.37069 0.77338 0.94508 0.0
H1053 H 0.48618 0.82136 0.83776 0.0
H1054 H 0.4502 0.75679 0.91009 0.0
H1055 H 0.40779 0.83894 0.87422 0.0
C1056 C 0.3723 0.82803 0.89938 0.0
C1057 C 0.36092 0.80925 0.91896 0.0
C1058 C 0.45822 0.7711 0.89443 0.0
C1059 C 0.41608 0.80237 0.90008 0.0
C1060 C 0.48269 0.76405 0.87998 0.0
C1061 C 0.4931 0.78171 0.85888 0.0
C1062 C 0.44389 0.79591 0.88764 0.0
C1063 C 0.47886 0.80694 0.85365 0.0
C1064 C 0.39982 0.82475 0.89002 0.0
C1065 C 0.37846 0.78826 0.92984 0.0
N1066 N 0.45486 0.81312 0.8677 0.0
N1067 N 0.40501 0.78515 0.91996 0.0
H1068 H 0.5224 0.31217 0.67518 0.0
H1069 H 0.63298 0.2852 0.5529 0.0
H1070 H 0.50532 0.26024 0.60309 0.0
H1071 H 0.64934 0.3366 0.62556 0.0
H1072 H 0.58419 0.28088 0.56758 0.0
H1073 H 0.56667 0.32616 0.65408 0.0
C1074 C 0.52787 0.30383 0.65479 0.0
C1075 C 0.51027 0.28463 0.64108 0.0
C1076 C 0.59838 0.29335 0.58015 0.0
C1077 C 0.56119 0.30058 0.61679 0.0
C1078 C 0.62628 0.29586 0.57178 0.0
C1079 C 0.64547 0.31094 0.58825 0.0
C1080 C 0.58956 0.30592 0.60524 0.0
C1081 C 0.63543 0.32451 0.61234 0.0
C1082 C 0.55318 0.31189 0.64272 0.0
C1083 C 0.51831 0.2749 0.61451 0.0
N1084 N 0.60826 0.32141 0.62025 0.0
N1085 N 0.54336 0.28273 0.60337 0.0
H1086 H 0.97937 0.67601 0.16573 0.0
H1087 H 0.86468 0.71235 0.04911 0.0
H1088 H 0.98672 0.74852 0.11211 0.0
H1089 H 0.84747 0.66532 0.12431 0.0
H1090 H 0.91348 0.71831 0.06479 0.0
H1091 H 0.93514 0.6644 0.14317 0.0
C1092 C 0.97187 0.68942 0.14903 0.0
C1093 C 0.98674 0.71355 0.1411 0.0
C1094 C 0.89902 0.70643 0.07762 0.0
C1095 C 0.93587 0.70012 0.11504 0.0
C1096 C 0.87132 0.70283 0.06861 0.0
C1097 C 0.85205 0.68841 0.08553 0.0
C1098 C 0.90751 0.69504 0.1034 0.0
C1099 C 0.86161 0.67674 0.11074 0.0
C1100 C 0.94652 0.68275 0.1362 0.0
C1101 C 0.97587 0.72989 0.11912 0.0
N1102 N 0.88862 0.68031 0.11889 0.0
N1103 N 0.951 0.72295 0.10692 0.0
H1104 H 0.40063 0.00598 0.23266 0.0
H1105 H 0.37065 0.15441 0.16321 0.0
H1106 H 0.32709 0.02572 0.18381 0.0
H1107 H 0.44951 0.1342 0.2025 0.0
H1108 H 0.35683 0.10548 0.16663 0.0
H1109 H 0.42146 0.05064 0.21812 0.0
C1110 C 0.38903 0.01948 0.21859 0.0
C1111 C 0.36185 0.01232 0.20985 0.0
C1112 C 0.37731 0.11156 0.17426 0.0
C1113 C 0.38547 0.06335 0.19327 0.0
C1114 C 0.38518 0.13955 0.17234 0.0
C1115 C 0.41111 0.14841 0.18289 0.0
C1116 C 0.39528 0.09223 0.18728 0.0
C1117 C 0.42928 0.12822 0.19419 0.0
C1118 C 0.40092 0.04497 0.21033 0.0
C1119 C 0.34788 0.03056 0.19151 0.0
N1120 N 0.42083 0.10107 0.19651 0.0
N1121 N 0.3597 0.05528 0.1841 0.0
H1122 H 0.89408 0.34207 0.7643 0.0
H1123 H 0.86869 0.4911 0.825 0.0
H1124 H 0.93681 0.36545 0.84039 0.0
H1125 H 0.87754 0.47738 0.73602 0.0
H1126 H 0.89031 0.44517 0.83356 0.0
H1127 H 0.88334 0.39132 0.75559 0.0
C1128 C 0.90118 0.3577 0.77917 0.0
C1129 C 0.91615 0.3499 0.80316 0.0
C1130 C 0.88793 0.45256 0.81224 0.0
C1131 C 0.9037 0.40608 0.79352 0.0
C1132 C 0.87553 0.47863 0.80732 0.0
C1133 C 0.87108 0.48794 0.77975 0.0
C1134 C 0.8952 0.43553 0.78942 0.0
C1135 C 0.88048 0.47104 0.7576 0.0
C1136 C 0.89526 0.38574 0.77409 0.0
C1137 C 0.92517 0.37084 0.82168 0.0
N1138 N 0.89159 0.44541 0.76291 0.0
N1139 N 0.91837 0.39813 0.81673 0.0
H1140 H 0.65406 0.51344 0.32766 0.0
H1141 H 0.5443 0.63242 0.28461 0.0
H1142 H 0.6067 0.51022 0.25059 0.0
H1143 H 0.61611 0.64603 0.33771 0.0
H1144 H 0.55773 0.5828 0.28022 0.0
H1145 H 0.63055 0.55709 0.33972 0.0
C1146 C 0.63849 0.52169 0.31337 0.0
C1147 C 0.63276 0.50831 0.28777 0.0
C1148 C 0.5702 0.59662 0.29319 0.0
C1149 C 0.60565 0.5584 0.30168 0.0
C1150 C 0.56245 0.62478 0.29589 0.0
C1151 C 0.57925 0.64322 0.31145 0.0
C1152 C 0.59456 0.58694 0.3066 0.0
C1153 C 0.60274 0.63246 0.32538 0.0
C1154 C 0.62511 0.54667 0.3203 0.0
C1155 C 0.61207 0.51998 0.27035 0.0
N1156 N 0.60974 0.60506 0.32257 0.0
N1157 N 0.59941 0.54453 0.27751 0.0
H1158 H 0.11213 0.9903 0.75315 0.0
H1159 H 0.11412 0.85689 0.65518 0.0
H1160 H 0.16127 0.98481 0.67737 0.0
H1161 H 0.05 0.86976 0.71745 0.0
H1162 H 0.12879 0.9055 0.66069 0.0
H1163 H 0.08658 0.94821 0.73891 0.0
C1164 C 0.11739 0.98044 0.7334 0.0
C1165 C 0.13924 0.9909 0.71667 0.0
C1166 C 0.11117 0.89798 0.67283 0.0
C1167 C 0.11007 0.94267 0.70031 0.0
C1168 C 0.10277 0.87024 0.66963 0.0
C1169 C 0.08091 0.85941 0.68594 0.0
C1170 C 0.09809 0.91489 0.69305 0.0
C1171 C 0.06687 0.87746 0.70439 0.0
C1172 C 0.1027 0.95645 0.72524 0.0
C1173 C 0.14486 0.97738 0.69114 0.0
N1174 N 0.07607 0.90425 0.70788 0.0
N1175 N 0.13064 0.95381 0.68396 0.0
H1176 H 0.85407 0.61365 0.85563 0.0
H1177 H 0.76535 0.59715 0.99654 0.0
H1178 H 0.79381 0.5476 0.86941 0.0
H1179 H 0.81877 0.66759 0.97746 0.0
H1180 H 0.78227 0.57367 0.95413 0.0
H1181 H 0.84852 0.62811 0.90432 0.0
C1182 C 0.83998 0.6019 0.86898 0.0
C1183 C 0.82396 0.57972 0.85821 0.0
C1184 C 0.7905 0.59413 0.95944 0.0
C1185 C 0.8173 0.59638 0.914 0.0
C1186 C 0.78088 0.60753 0.98366 0.0
C1187 C 0.79027 0.6346 0.99028 0.0
C1188 C 0.80972 0.60787 0.94186 0.0
C1189 C 0.81054 0.64695 0.97291 0.0
C1190 C 0.83676 0.61023 0.8968 0.0
C1191 C 0.80632 0.56507 0.87667 0.0
N1192 N 0.81938 0.63361 0.94941 0.0
N1193 N 0.80314 0.57392 0.90356 0.0
H1194 H 0.67215 0.33852 0.48699 0.0
H1195 H 0.71802 0.44615 0.36735 0.0
H1196 H 0.74849 0.38705 0.48947 0.0
H1197 H 0.65329 0.38378 0.357 0.0
H1198 H 0.72316 0.43196 0.41622 0.0
H1199 H 0.6591 0.36221 0.44363 0.0
C1200 C 0.68605 0.35438 0.47863 0.0
C1201 C 0.71172 0.36046 0.49171 0.0
C1202 C 0.70763 0.4216 0.40332 0.0
C1203 C 0.69679 0.38766 0.442 0.0
C1204 C 0.70458 0.42975 0.37542 0.0
C1205 C 0.68548 0.41583 0.35788 0.0
C1206 C 0.69136 0.39949 0.41383 0.0
C1207 C 0.66855 0.39484 0.36963 0.0
C1208 C 0.67857 0.36785 0.45382 0.0
C1209 C 0.72869 0.38141 0.47995 0.0
N1210 N 0.67207 0.38714 0.3968 0.0
N1211 N 0.72103 0.39408 0.45563 0.0
H1212 H 0.2863 0.95005 0.13449 0.0
H1213 H 0.32697 0.83277 0.0218 0.0
H1214 H 0.33712 0.87756 0.15256 0.0
H1215 H 0.25299 0.88429 0.01391 0.0
H1216 H 0.33856 0.85698 0.06524 0.0
H1217 H 0.28165 0.93381 0.08574 0.0
C1218 C 0.29693 0.93107 0.12803 0.0
C1219 C 0.31196 0.91497 0.14751 0.0
C1220 C 0.31991 0.86313 0.05388 0.0
C1221 C 0.30683 0.89647 0.09219 0.0
C1222 C 0.31326 0.84935 0.02902 0.0
C1223 C 0.2887 0.85619 0.01433 0.0
C1224 C 0.30205 0.8841 0.06413 0.0
C1225 C 0.27193 0.87807 0.02472 0.0
C1226 C 0.2941 0.92173 0.10036 0.0
C1227 C 0.32515 0.89042 0.13821 0.0
N1228 N 0.27882 0.89116 0.0491 0.0
N1229 N 0.32222 0.88189 0.11126 0.0
H1230 H 0.22926 0.05634 0.63963 0.0
H1231 H 0.17308 0.15866 0.51935 0.0
H1232 H 0.16073 0.11441 0.65042 0.0
H1233 H 0.25207 0.11475 0.51442 0.0
H1234 H 0.16384 0.136 0.56414 0.0
H1235 H 0.23326 0.07102 0.59068 0.0
C1236 C 0.2148 0.0719 0.63164 0.0
C1237 C 0.19479 0.08437 0.64928 0.0
C1238 C 0.18311 0.13117 0.55318 0.0
C1239 C 0.19934 0.10126 0.59328 0.0
C1240 C 0.18842 0.14406 0.52752 0.0
C1241 C 0.2136 0.13891 0.51316 0.0
C1242 C 0.20304 0.11286 0.56467 0.0
C1243 C 0.23249 0.11957 0.52481 0.0
C1244 C 0.2172 0.08035 0.60372 0.0
C1245 C 0.17665 0.10443 0.63771 0.0
N1246 N 0.22691 0.1074 0.54998 0.0
N1247 N 0.17946 0.11234 0.61051 0.0
H1248 H 0.99485 0.76566 0.59933 0.0
H1249 H 0.84378 0.82951 0.63016 0.0
H1250 H 0.97382 0.81443 0.67259 0.0
H1251 H 0.86576 0.79476 0.54963 0.0
H1252 H 0.89255 0.826 0.64454 0.0
H1253 H 0.94916 0.7779 0.579 0.0
C1254 C 0.98083 0.77918 0.61098 0.0
C1255 C 0.98802 0.78865 0.63792 0.0
C1256 C 0.88688 0.81935 0.6236 0.0
C1257 C 0.93586 0.80259 0.61489 0.0
C1258 C 0.85897 0.82131 0.61541 0.0
C1259 C 0.85066 0.81219 0.58876 0.0
C1260 C 0.90674 0.80776 0.60522 0.0
C1261 C 0.87131 0.80201 0.5704 0.0
C1262 C 0.95477 0.78614 0.59938 0.0
C1263 C 0.96907 0.80622 0.65199 0.0
N1264 N 0.89839 0.79969 0.57911 0.0
N1265 N 0.94386 0.81235 0.64044 0.0
H1266 H 0.50177 0.2342 0.09766 0.0
H1267 H 0.64722 0.15555 0.12206 0.0
H1268 H 0.52087 0.1834 0.17003 0.0
H1269 H 0.63058 0.21001 0.05174 0.0
H1270 H 0.59795 0.15864 0.13532 0.0
H1271 H 0.54569 0.21882 0.0761 0.0
C1272 C 0.51499 0.21955 0.10885 0.0
C1273 C 0.50793 0.21053 0.13592 0.0
C1274 C 0.60501 0.16967 0.1168 0.0
C1275 C 0.55813 0.19293 0.11147 0.0
C1276 C 0.63317 0.16789 0.1092 0.0
C1277 C 0.6432 0.18301 0.08608 0.0
C1278 C 0.58678 0.18679 0.10126 0.0
C1279 C 0.6239 0.19836 0.07 0.0
C1280 C 0.54007 0.21081 0.09656 0.0
C1281 C 0.52574 0.19135 0.14935 0.0
N1282 N 0.5967 0.20016 0.07812 0.0
N1283 N 0.55013 0.18345 0.13713 0.0
H1284 H 0.35151 0.66222 0.38443 0.0
H1285 H 0.49781 0.74115 0.39917 0.0
H1286 H 0.3708 0.71557 0.45471 0.0
H1287 H 0.4762 0.68409 0.33241 0.0
H1288 H 0.45462 0.72769 0.42374 0.0
H1289 H 0.40016 0.66485 0.36943 0.0
C1290 C 0.36623 0.67414 0.39697 0.0
C1291 C 0.3572 0.68885 0.42069 0.0
C1292 C 0.45958 0.7179 0.40389 0.0
C1293 C 0.41293 0.69272 0.40322 0.0
C1294 C 0.48422 0.72555 0.38987 0.0
C1295 C 0.49037 0.71409 0.36344 0.0
C1296 C 0.44113 0.69862 0.39139 0.0
C1297 C 0.47208 0.69388 0.35246 0.0
C1298 C 0.39403 0.67573 0.38837 0.0
C1299 C 0.37706 0.70388 0.4363 0.0
N1300 N 0.44828 0.68702 0.36634 0.0
N1301 N 0.404 0.70588 0.427 0.0
H1302 H 0.13496 0.35607 0.89598 0.0
H1303 H 0.99858 0.26018 0.90384 0.0
H1304 H 0.12441 0.28876 0.95547 0.0
H1305 H 0.01655 0.3195 0.83801 0.0
H1306 H 0.03906 0.27797 0.93003 0.0
H1307 H 0.086 0.35101 0.88238 0.0
C1308 C 0.12223 0.34053 0.90653 0.0
C1309 C 0.134 0.32234 0.92638 0.0
C1310 C 0.03386 0.28732 0.91003 0.0
C1311 C 0.07801 0.31618 0.91064 0.0
C1312 C 0.01077 0.27721 0.89511 0.0
C1313 C 0.00463 0.28797 0.86846 0.0
C1314 C 0.05067 0.30842 0.89823 0.0
C1315 C 0.02094 0.31016 0.85822 0.0
C1316 C 0.09427 0.33761 0.89871 0.0
C1317 C 0.11634 0.30295 0.93973 0.0
N1318 N 0.04335 0.31944 0.87298 0.0
N1319 N 0.08933 0.3 0.93123 0.0
H1320 H 0.66479 0.97962 0.81968 0.0
H1321 H 0.55278 0.8634 0.77694 0.0
H1322 H 0.60132 0.99297 0.7567 0.0
H1323 H 0.619 0.85097 0.83734 0.0
H1324 H 0.56519 0.91301 0.77437 0.0
H1325 H 0.64304 0.93512 0.83167 0.0
C1326 C 0.64605 0.97328 0.80854 0.0
C1327 C 0.6351 0.9898 0.78684 0.0
C1328 C 0.57678 0.89948 0.78841 0.0
C1329 C 0.61019 0.93855 0.80028 0.0
C1330 C 0.5697 0.87113 0.78994 0.0
C1331 C 0.58516 0.85284 0.80708 0.0
C1332 C 0.59945 0.90963 0.80415 0.0
C1333 C 0.60673 0.86415 0.82355 0.0
C1334 C 0.63362 0.94783 0.81541 0.0
C1335 C 0.61053 0.98078 0.77345 0.0
N1336 N 0.61338 0.89172 0.82146 0.0
N1337 N 0.59911 0.9555 0.7801 0.0
H1338 H 0.16671 0.51905 0.18114 0.0
H1339 H 0.04974 0.63095 0.21946 0.0
H1340 H 0.10427 0.50527 0.24505 0.0
H1341 H 0.11059 0.64132 0.15331 0.0
H1342 H 0.06405 0.58203 0.22417 0.0
H1343 H 0.14139 0.56057 0.16587 0.0
C1344 C 0.14748 0.52467 0.19182 0.0
C1345 C 0.13784 0.50901 0.21472 0.0
C1346 C 0.07396 0.5949 0.20834 0.0
C1347 C 0.10879 0.55681 0.19751 0.0
C1348 C 0.06578 0.62286 0.20559 0.0
C1349 C 0.07942 0.64048 0.18636 0.0
C1350 C 0.09597 0.58454 0.1918 0.0
C1351 C 0.09983 0.6287 0.16877 0.0
C1352 C 0.13296 0.54837 0.18304 0.0
C1353 C 0.11254 0.51693 0.22744 0.0
N1354 N 0.10774 0.60161 0.1722 0.0
N1355 N 0.0991 0.5406 0.21896 0.0
H1356 H 0.45054 0.36409 0.70882 0.0
H1357 H 0.32709 0.47433 0.68234 0.0
H1358 H 0.3743 0.34689 0.66342 0.0
H1359 H 0.39633 0.49101 0.73809 0.0
H1360 H 0.34926 0.43064 0.66851 0.0
H1361 H 0.43605 0.41337 0.71313 0.0
C1362 C 0.43105 0.37079 0.69931 0.0
C1363 C 0.41341 0.35136 0.68603 0.0
C1364 C 0.35979 0.44387 0.68364 0.0
C1365 C 0.39677 0.40737 0.69091 0.0
C1366 C 0.34709 0.46888 0.69159 0.0
C1367 C 0.35962 0.48617 0.71179 0.0
C1368 C 0.38518 0.43578 0.69609 0.0
C1369 C 0.38582 0.47819 0.72262 0.0
C1370 C 0.42273 0.39883 0.70192 0.0
C1371 C 0.38835 0.36108 0.67417 0.0
N1372 N 0.39759 0.45335 0.7149 0.0
N1373 N 0.38074 0.38829 0.67705 0.0
H1374 H 0.94431 0.13683 0.27408 0.0
H1375 H 0.83842 0.01742 0.32433 0.0
H1376 H 0.88097 0.14921 0.33753 0.0
H1377 H 0.88649 0.01282 0.24776 0.0
H1378 H 0.86074 0.06208 0.33508 0.0
H1379 H 0.93011 0.08788 0.27016 0.0
C1380 C 0.92763 0.12921 0.28745 0.0
C1381 C 0.91354 0.1473 0.30592 0.0
C1382 C 0.86655 0.05118 0.31604 0.0
C1383 C 0.89724 0.09123 0.30146 0.0
C1384 C 0.85387 0.02562 0.30987 0.0
C1385 C 0.86028 0.01147 0.28485 0.0
C1386 C 0.88591 0.06268 0.29717 0.0
C1387 C 0.88066 0.0231 0.26712 0.0
C1388 C 0.9195 0.10126 0.2851 0.0
C1389 C 0.8922 0.13613 0.32279 0.0
N1390 N 0.89261 0.04814 0.27353 0.0
N1391 N 0.88458 0.10885 0.32001 0.0
H1392 H 0.16777 0.40043 0.34654 0.0
H1393 H 0.23307 0.252 0.36433 0.0
H1394 H 0.23281 0.36712 0.29351 0.0
H1395 H 0.20058 0.2938 0.43751 0.0
H1396 H 0.2333 0.29599 0.33938 0.0
H1397 H 0.17958 0.36474 0.3822 0.0
C1398 C 0.18504 0.38618 0.34284 0.0
C1399 C 0.19912 0.38622 0.31702 0.0
C1400 C 0.22653 0.29593 0.36104 0.0
C1401 C 0.21249 0.34582 0.35708 0.0
C1402 C 0.22647 0.27072 0.37533 0.0
C1403 C 0.2171 0.26937 0.40305 0.0
C1404 C 0.21614 0.32012 0.3741 0.0
C1405 C 0.20819 0.29417 0.41614 0.0
C1406 C 0.19173 0.36588 0.36307 0.0
C1407 C 0.22121 0.36741 0.313 0.0
N1408 N 0.20736 0.31864 0.4013 0.0
N1409 N 0.22697 0.34782 0.33261 0.0
H1410 H 0.3036 0.70268 0.93611 0.0
H1411 H 0.28155 0.64076 0.78263 0.0
H1412 H 0.25963 0.74197 0.8678 0.0
H1413 H 0.33144 0.59694 0.84378 0.0
H1414 H 0.26591 0.67282 0.8184 0.0
H1415 H 0.30759 0.65948 0.90761 0.0
C1416 C 0.29404 0.70187 0.91554 0.0
C1417 C 0.28115 0.72573 0.90417 0.0
C1418 C 0.28017 0.65622 0.82437 0.0
C1419 C 0.28564 0.67712 0.87183 0.0
C1420 C 0.28904 0.6378 0.80382 0.0
C1421 C 0.30797 0.61639 0.81021 0.0
C1422 C 0.29101 0.65405 0.85163 0.0
C1423 C 0.31691 0.61339 0.83809 0.0
C1424 C 0.29647 0.6774 0.89928 0.0
C1425 C 0.26949 0.72397 0.87738 0.0
N1426 N 0.30879 0.63249 0.85783 0.0
N1427 N 0.27213 0.70026 0.86219 0.0
H1428 H 0.75767 0.23498 0.62399 0.0
H1429 H 0.66747 0.09799 0.65725 0.0
H1430 H 0.69028 0.20917 0.56995 0.0
H1431 H 0.71707 0.14533 0.71611 0.0
H1432 H 0.68304 0.13001 0.61956 0.0
H1433 H 0.75219 0.19226 0.65107 0.0
C1434 C 0.74235 0.21971 0.61728 0.0
C1435 C 0.7247 0.22531 0.59461 0.0
C1436 C 0.69066 0.13303 0.64072 0.0
C1437 C 0.71693 0.17702 0.62655 0.0
C1438 C 0.68186 0.11484 0.66211 0.0
C1439 C 0.69072 0.11937 0.68981 0.0
C1440 C 0.7089 0.15525 0.64721 0.0
C1441 C 0.70937 0.14137 0.69513 0.0
C1442 C 0.73889 0.19548 0.63296 0.0
C1443 C 0.70452 0.20527 0.58717 0.0
N1444 N 0.71776 0.15841 0.67411 0.0
N1445 N 0.70076 0.18209 0.6035 0.0
H1446 H 0.73418 0.76058 0.1279 0.0
H1447 H 0.84214 0.8796 0.17117 0.0
H1448 H 0.80894 0.77819 0.08021 0.0
H1449 H 0.76267 0.86505 0.21167 0.0
H1450 H 0.82834 0.8469 0.13389 0.0
H1451 H 0.74168 0.80321 0.1547 0.0
C1452 C 0.75197 0.77369 0.12278 0.0
C1453 C 0.77112 0.76569 0.10203 0.0
C1454 C 0.81384 0.85116 0.15081 0.0
C1455 C 0.78031 0.81434 0.13312 0.0
C1456 C 0.82171 0.86977 0.17205 0.0
C1457 C 0.80379 0.87443 0.19489 0.0
C1458 C 0.78789 0.83731 0.15254 0.0
C1459 C 0.77747 0.86141 0.19492 0.0
C1460 C 0.75631 0.79806 0.13813 0.0
C1461 C 0.79372 0.78358 0.09614 0.0
N1462 N 0.77045 0.84328 0.17427 0.0
N1463 N 0.798 0.80687 0.11199 0.0
H1464 H 0.41567 0.19116 0.27693 0.0
H1465 H 0.28028 0.23757 0.36365 0.0
H1466 H 0.36254 0.2614 0.25638 0.0
H1467 H 0.32185 0.15841 0.37669 0.0
H1468 H 0.31624 0.25063 0.33015 0.0
H1469 H 0.38749 0.18303 0.31913 0.0
C1470 C 0.39845 0.20519 0.28154 0.0
C1471 C 0.39129 0.22687 0.26296 0.0
C1472 C 0.31766 0.23042 0.34035 0.0
C1473 C 0.35908 0.21764 0.311 0.0
C1474 C 0.29699 0.22288 0.35941 0.0
C1475 C 0.29766 0.19658 0.37244 0.0
C1476 C 0.33924 0.2115 0.33407 0.0
C1477 C 0.3204 0.17878 0.36684 0.0
C1478 C 0.38231 0.20043 0.30553 0.0
C1479 C 0.36872 0.24433 0.26994 0.0
N1480 N 0.34018 0.18643 0.34774 0.0
N1481 N 0.35335 0.23921 0.29326 0.0
H1482 H 0.21379 0.75918 0.86755 0.0
H1483 H 0.08343 0.81434 0.77828 0.0
H1484 H 0.17692 0.84067 0.88026 0.0
H1485 H 0.1344 0.74285 0.75664 0.0
H1486 H 0.11063 0.81986 0.8216 0.0
H1487 H 0.17781 0.74855 0.83313 0.0
C1488 C 0.19807 0.77486 0.86308 0.0
C1489 C 0.19878 0.8011 0.87622 0.0
C1490 C 0.11556 0.80279 0.80749 0.0
C1491 C 0.15727 0.78904 0.83682 0.0
C1492 C 0.09999 0.79952 0.78289 0.0
C1493 C 0.10694 0.77829 0.76373 0.0
C1494 C 0.13793 0.78448 0.81299 0.0
C1495 C 0.12861 0.75974 0.77064 0.0
C1496 C 0.17742 0.76873 0.8435 0.0
C1497 C 0.17727 0.82028 0.87035 0.0
N1498 N 0.14341 0.76337 0.79461 0.0
N1499 N 0.15752 0.81401 0.85072 0.0
H1500 H 0.8005 0.25687 0.622 0.0
H1501 H 0.9228 0.31182 0.72146 0.0
H1502 H 0.82878 0.34258 0.62268 0.0
H1503 H 0.88195 0.23159 0.72887 0.0
H1504 H 0.89712 0.32016 0.67774 0.0
H1505 H 0.83877 0.24425 0.65326 0.0
C1506 C 0.81485 0.27301 0.62877 0.0
C1507 C 0.81104 0.30088 0.62053 0.0
C1508 C 0.89422 0.30052 0.68871 0.0
C1509 C 0.85502 0.28672 0.65624 0.0
C1510 C 0.90896 0.29567 0.71353 0.0
C1511 C 0.90411 0.27111 0.72897 0.0
C1512 C 0.87477 0.28055 0.6793 0.0
C1513 C 0.88592 0.25096 0.71788 0.0
C1514 C 0.83682 0.26581 0.64645 0.0
C1515 C 0.83087 0.32087 0.62892 0.0
N1516 N 0.87172 0.25624 0.69388 0.0
N1517 N 0.85182 0.3135 0.6468 0.0
H1518 H 0.5752 0.68165 0.21913 0.0
H1519 H 0.69567 0.73017 0.11324 0.0
H1520 H 0.62688 0.7549 0.2306 0.0
H1521 H 0.66578 0.64524 0.11784 0.0
H1522 H 0.6607 0.74406 0.14815 0.0
H1523 H 0.59892 0.67263 0.1744 0.0
C1524 C 0.59116 0.69611 0.21201 0.0
C1525 C 0.59934 0.7189 0.22873 0.0
C1526 C 0.66136 0.72248 0.14115 0.0
C1527 C 0.62631 0.70878 0.1777 0.0
C1528 C 0.68115 0.71465 0.12117 0.0
C1529 C 0.68332 0.68666 0.1128 0.0
C1530 C 0.64378 0.70206 0.15293 0.0
C1531 C 0.66439 0.6671 0.12371 0.0
C1532 C 0.60474 0.69087 0.18658 0.0
C1533 C 0.6202 0.7369 0.21855 0.0
N1534 N 0.64547 0.67513 0.1435 0.0
N1535 N 0.63305 0.73138 0.19377 0.0
H1536 H 0.38514 0.33936 0.1471 0.0
H1537 H 0.27487 0.38017 0.26469 0.0
H1538 H 0.38053 0.30032 0.22825 0.0
H1539 H 0.28366 0.42647 0.18756 0.0
H1540 H 0.31841 0.35562 0.25438 0.0
H1541 H 0.35303 0.3762 0.16362 0.0
C1542 C 0.3778 0.33903 0.16858 0.0
C1543 C 0.38507 0.31696 0.18643 0.0
C1544 C 0.31112 0.37143 0.23985 0.0
C1545 C 0.34839 0.35827 0.20529 0.0
C1546 C 0.28622 0.38543 0.24576 0.0
C1547 C 0.27547 0.40505 0.22677 0.0
C1548 C 0.32513 0.37669 0.21449 0.0
C1549 C 0.29119 0.41136 0.20271 0.0
C1550 C 0.35947 0.35989 0.178 0.0
C1551 C 0.37502 0.317 0.21393 0.0
N1552 N 0.31501 0.39682 0.19697 0.0
N1553 N 0.35695 0.33717 0.22246 0.0
H1554 H 0.87889 0.19996 0.76566 0.0
H1555 H 0.77964 0.07415 0.81284 0.0
H1556 H 0.88605 0.15962 0.84592 0.0
H1557 H 0.76314 0.13012 0.74376 0.0
H1558 H 0.82517 0.0969 0.81969 0.0
H1559 H 0.84398 0.16542 0.75153 0.0
C1560 C 0.87351 0.18328 0.77999 0.0
C1561 C 0.88515 0.18245 0.80683 0.0
C1562 C 0.8117 0.10389 0.80283 0.0
C1563 C 0.84467 0.1434 0.7914 0.0
C1564 C 0.78577 0.09092 0.79883 0.0
C1565 C 0.76743 0.10056 0.77792 0.0
C1566 C 0.81939 0.12641 0.78557 0.0
C1567 C 0.77644 0.12231 0.76039 0.0
C1568 C 0.85349 0.16369 0.77206 0.0
C1569 C 0.87754 0.16066 0.82492 0.0
N1570 N 0.80169 0.13459 0.76473 0.0
N1571 N 0.85734 0.14211 0.81701 0.0
H1572 H 0.70708 0.93387 0.29776 0.0
H1573 H 0.64095 0.78202 0.27327 0.0
H1574 H 0.74749 0.86293 0.25917 0.0
H1575 H 0.60252 0.84155 0.32928 0.0
H1576 H 0.67381 0.81764 0.25821 0.0
H1577 H 0.66334 0.90612 0.30104 0.0
C1578 C 0.70648 0.91282 0.2893 0.0
C1579 C 0.73077 0.90054 0.27815 0.0
C1580 C 0.65816 0.8232 0.27368 0.0
C1581 C 0.68149 0.86914 0.28164 0.0
C1582 C 0.63936 0.80281 0.28224 0.0
C1583 C 0.61939 0.8088 0.30283 0.0
C1584 C 0.65768 0.84974 0.28634 0.0
C1585 C 0.61789 0.83618 0.31348 0.0
C1586 C 0.6817 0.897 0.29132 0.0
C1587 C 0.7292 0.87318 0.2678 0.0
N1588 N 0.63727 0.85565 0.30552 0.0
N1589 N 0.70513 0.85847 0.26988 0.0
H1590 H 0.23951 0.63298 0.7573 0.0
H1591 H 0.10168 0.66112 0.6663 0.0
H1592 H 0.21671 0.57797 0.68926 0.0
H1593 H 0.15121 0.72424 0.70794 0.0
H1594 H 0.13555 0.62524 0.68233 0.0
H1595 H 0.19774 0.66069 0.74837 0.0
C1596 C 0.22557 0.62653 0.74064 0.0
C1597 C 0.23201 0.60349 0.72361 0.0
C1598 C 0.13868 0.64698 0.68804 0.0
C1599 C 0.184 0.63533 0.71315 0.0
C1600 C 0.11944 0.66733 0.67898 0.0
C1601 C 0.12392 0.69565 0.68555 0.0
C1602 C 0.16185 0.65515 0.70432 0.0
C1603 C 0.14715 0.70271 0.70207 0.0
C1604 C 0.20169 0.64239 0.73554 0.0
C1605 C 0.21269 0.59578 0.70271 0.0
N1606 N 0.16513 0.68266 0.71088 0.0
N1607 N 0.18966 0.61196 0.69775 0.0
H1608 H 0.83847 0.61541 0.6693 0.0
H1609 H 0.73368 0.73977 0.63135 0.0
H1610 H 0.76739 0.64029 0.71948 0.0
H1611 H 0.80631 0.71935 0.58144 0.0
H1612 H 0.7414 0.69772 0.65902 0.0
H1613 H 0.82326 0.64812 0.63276 0.0
C1614 C 0.81956 0.62754 0.67253 0.0
C1615 C 0.80445 0.62548 0.69768 0.0
C1616 C 0.7555 0.70218 0.64182 0.0
C1617 C 0.78691 0.66268 0.65603 0.0
C1618 C 0.75104 0.72619 0.62594 0.0
C1619 C 0.76963 0.7333 0.60433 0.0
C1620 C 0.77895 0.68528 0.63633 0.0
C1621 C 0.79159 0.71474 0.59806 0.0
C1622 C 0.81089 0.64616 0.65167 0.0
C1623 C 0.77998 0.64151 0.70066 0.0
N1624 N 0.79594 0.69177 0.61433 0.0
N1625 N 0.77213 0.65955 0.6802 0.0
H1626 H 0.67676 0.27894 0.07875 0.0
H1627 H 0.734 0.36298 0.21032 0.0
H1628 H 0.75977 0.26941 0.11261 0.0
H1629 H 0.65465 0.3818 0.17124 0.0
H1630 H 0.74564 0.33254 0.17112 0.0
H1631 H 0.67023 0.32096 0.10779 0.0
C1632 C 0.69396 0.28641 0.09155 0.0
C1633 C 0.71894 0.27113 0.09322 0.0
C1634 C 0.72576 0.34348 0.17089 0.0
C1635 C 0.71139 0.31815 0.12715 0.0
C1636 C 0.71904 0.36079 0.1934 0.0
C1637 C 0.69313 0.37465 0.19428 0.0
C1638 C 0.70631 0.33958 0.14915 0.0
C1639 C 0.67477 0.37134 0.17151 0.0
C1640 C 0.69017 0.31015 0.10833 0.0
C1641 C 0.74034 0.28093 0.11066 0.0
N1642 N 0.68155 0.35381 0.15004 0.0
N1643 N 0.73597 0.30363 0.12722 0.0
H1644 H 0.31953 0.78339 0.42542 0.0
H1645 H 0.2714 0.88703 0.30306 0.0
H1646 H 0.24562 0.77191 0.37461 0.0
H1647 H 0.35619 0.88287 0.33355 0.0
H1648 H 0.25719 0.85314 0.33884 0.0
H1649 H 0.32864 0.82772 0.40112 0.0
C1650 C 0.30495 0.79044 0.40953 0.0
C1651 C 0.28197 0.77381 0.40172 0.0
C1652 C 0.27881 0.86 0.3381 0.0
C1653 C 0.29221 0.82434 0.37408 0.0
C1654 C 0.28683 0.87936 0.31783 0.0
C1655 C 0.31488 0.88752 0.31563 0.0
C1656 C 0.29911 0.84861 0.35609 0.0
C1657 C 0.33431 0.87706 0.33492 0.0
C1658 C 0.31024 0.81564 0.39562 0.0
C1659 C 0.26379 0.78389 0.38098 0.0
N1660 N 0.3261 0.85783 0.3543 0.0
N1661 N 0.26939 0.80843 0.36777 0.0
H1662 H 0.16035 0.23297 0.9095 0.0
H1663 H 0.2373 0.13553 0.80263 0.0
H1664 H 0.25032 0.2262 0.90851 0.0
H1665 H 0.15357 0.11715 0.8314 0.0
H1666 H 0.2429 0.16833 0.84163 0.0
H1667 H 0.15717 0.18969 0.88208 0.0
C1668 C 0.17938 0.22176 0.90419 0.0
C1669 C 0.2056 0.23268 0.91147 0.0
C1670 C 0.22346 0.1568 0.83964 0.0
C1671 C 0.20229 0.18413 0.8792 0.0
C1672 C 0.22019 0.13822 0.81729 0.0
C1673 C 0.19482 0.12382 0.81359 0.0
C1674 C 0.20102 0.16143 0.85808 0.0
C1675 C 0.17344 0.1279 0.83338 0.0
C1676 C 0.17761 0.1972 0.88847 0.0
C1677 C 0.22974 0.21799 0.90362 0.0
N1678 N 0.17685 0.14668 0.85451 0.0
N1679 N 0.22755 0.19466 0.88739 0.0
H1680 H 0.69415 0.76802 0.61088 0.0
H1681 H 0.56908 0.81391 0.71243 0.0
H1682 H 0.66265 0.85239 0.61574 0.0
H1683 H 0.61941 0.73981 0.72311 0.0
H1684 H 0.59327 0.82327 0.66784 0.0
H1685 H 0.65685 0.75263 0.64259 0.0
C1686 C 0.67889 0.78313 0.61824 0.0
C1687 C 0.68125 0.81139 0.61095 0.0
C1688 C 0.59847 0.80458 0.6796 0.0
C1689 C 0.63896 0.79425 0.64737 0.0
C1690 C 0.58452 0.79913 0.70479 0.0
C1691 C 0.59225 0.77596 0.72105 0.0
C1692 C 0.62012 0.78664 0.67082 0.0
C1693 C 0.61282 0.75775 0.71088 0.0
C1694 C 0.65772 0.77442 0.63634 0.0
C1695 C 0.66125 0.83036 0.62095 0.0
N1696 N 0.62619 0.76356 0.68647 0.0
N1697 N 0.64101 0.82149 0.63898 0.0
H1698 H 0.89229 0.26782 0.22253 0.0
H1699 H 0.83261 0.15955 0.1098 0.0
H1700 H 0.92237 0.18319 0.21445 0.0
H1701 H 0.79166 0.23609 0.13519 0.0
H1702 H 0.87305 0.17235 0.13884 0.0
H1703 H 0.86397 0.2614 0.18025 0.0
C1704 C 0.8937 0.24825 0.2111 0.0
C1705 C 0.90975 0.22609 0.22152 0.0
C1706 C 0.85531 0.18645 0.13771 0.0
C1707 C 0.8767 0.21808 0.17412 0.0
C1708 C 0.83223 0.17917 0.1212 0.0
C1709 C 0.80853 0.1966 0.12041 0.0
C1710 C 0.85475 0.21145 0.15323 0.0
C1711 C 0.80927 0.22184 0.13546 0.0
C1712 C 0.87733 0.24444 0.18723 0.0
C1713 C 0.91047 0.20084 0.2066 0.0
N1714 N 0.8319 0.22841 0.15134 0.0
N1715 N 0.89379 0.19733 0.18378 0.0
H1716 H 0.21803 0.72844 0.35966 0.0
H1717 H 0.06509 0.70408 0.2953 0.0
H1718 H 0.15871 0.67357 0.39995 0.0
H1719 H 0.13709 0.73759 0.25233 0.0
H1720 H 0.09336 0.70153 0.33882 0.0
H1721 H 0.18234 0.74216 0.32623 0.0
C1722 C 0.19728 0.71944 0.36155 0.0
C1723 C 0.1914 0.69953 0.38223 0.0
C1724 C 0.10261 0.70996 0.31991 0.0
C1725 C 0.15033 0.71455 0.34333 0.0
C1726 C 0.0865 0.71159 0.29524 0.0
C1727 C 0.09885 0.72118 0.27032 0.0
C1728 C 0.13085 0.7185 0.31939 0.0
C1729 C 0.12671 0.73026 0.2711 0.0
C1730 C 0.17686 0.72723 0.34241 0.0
C1731 C 0.16403 0.68886 0.38407 0.0
N1732 N 0.14166 0.72865 0.29508 0.0
N1733 N 0.1445 0.6961 0.36441 0.0
H1734 H 0.26822 0.26586 0.85494 0.0
H1735 H 0.41261 0.30495 0.77989 0.0
H1736 H 0.32054 0.33498 0.88085 0.0
H1737 H 0.35791 0.23786 0.75374 0.0
H1738 H 0.38275 0.31244 0.82096 0.0
H1739 H 0.30407 0.2519 0.82145 0.0
C1740 C 0.28728 0.2781 0.85362 0.0
C1741 C 0.29118 0.3019 0.87044 0.0
C1742 C 0.3775 0.29587 0.80637 0.0
C1743 C 0.33246 0.28594 0.83206 0.0
C1744 C 0.39462 0.29149 0.78302 0.0
C1745 C 0.38748 0.27103 0.76313 0.0
C1746 C 0.35319 0.27963 0.80981 0.0
C1747 C 0.36394 0.25419 0.76825 0.0
C1748 C 0.30783 0.27005 0.83453 0.0
C1749 C 0.31654 0.31665 0.86811 0.0
N1750 N 0.34752 0.25904 0.79092 0.0
N1751 N 0.33613 0.30858 0.84907 0.0
H1752 H 0.73081 0.58318 0.8291 0.0
H1753 H 0.64141 0.70338 0.75936 0.0
H1754 H 0.73383 0.6011 0.74077 0.0
H1755 H 0.62014 0.6681 0.83985 0.0
H1756 H 0.67376 0.66454 0.75144 0.0
H1757 H 0.68817 0.61163 0.83302 0.0
C1758 C 0.7218 0.59235 0.81039 0.0
C1759 C 0.73531 0.58955 0.78451 0.0
C1760 C 0.66178 0.66509 0.7707 0.0
C1761 C 0.68759 0.62304 0.7889 0.0
C1762 C 0.64341 0.68736 0.7753 0.0
C1763 C 0.62827 0.68917 0.80044 0.0
C1764 C 0.66542 0.64467 0.79157 0.0
C1765 C 0.63149 0.66762 0.82022 0.0
C1766 C 0.69767 0.60875 0.81261 0.0
C1767 C 0.72357 0.60248 0.76096 0.0
N1768 N 0.65001 0.64648 0.81554 0.0
N1769 N 0.70058 0.61905 0.76377 0.0
H1770 H 0.24106 0.86887 0.26468 0.0
H1771 H 0.12058 0.82586 0.15775 0.0
H1772 H 0.22132 0.91795 0.19137 0.0
H1773 H 0.13616 0.7849 0.23679 0.0
H1774 H 0.15385 0.86278 0.1712 0.0
H1775 H 0.19911 0.84108 0.25684 0.0
C1776 C 0.22765 0.87406 0.24714 0.0
C1777 C 0.23483 0.89558 0.22853 0.0
C1778 C 0.14973 0.84581 0.18566 0.0
C1779 C 0.18691 0.86339 0.21897 0.0
C1780 C 0.13077 0.82477 0.178 0.0
C1781 C 0.12614 0.80193 0.19591 0.0
C1782 C 0.16395 0.84389 0.21141 0.0
C1783 C 0.13969 0.80166 0.22199 0.0
C1784 C 0.20366 0.85814 0.2426 0.0
C1785 C 0.21656 0.90148 0.20621 0.0
N1786 N 0.15811 0.82212 0.22881 0.0
N1787 N 0.19363 0.88514 0.20176 0.0
H1788 H 0.29102 0.06423 0.69525 0.0
H1789 H 0.34927 0.21432 0.70776 0.0
H1790 H 0.27042 0.11913 0.76383 0.0
H1791 H 0.40409 0.15125 0.67325 0.0
H1792 H 0.31968 0.17789 0.72688 0.0
H1793 H 0.33349 0.09228 0.68632 0.0
C1794 C 0.29617 0.0814 0.70918 0.0
C1795 C 0.27743 0.08956 0.7303 0.0
C1796 C 0.3383 0.17183 0.71539 0.0
C1797 C 0.32489 0.12186 0.71978 0.0
C1798 C 0.35511 0.19268 0.70423 0.0
C1799 C 0.37907 0.18578 0.68876 0.0
C1800 C 0.34488 0.14364 0.71049 0.0
C1801 C 0.38569 0.15734 0.68503 0.0
C1802 C 0.32021 0.09746 0.70397 0.0
C1803 C 0.28446 0.11228 0.74737 0.0
N1804 N 0.36829 0.13713 0.69541 0.0
N1805 N 0.30735 0.12794 0.74145 0.0
H1806 H 0.7701 0.39623 0.23546 0.0
H1807 H 0.88627 0.33383 0.33863 0.0
H1808 H 0.77547 0.41685 0.32313 0.0
H1809 H 0.86396 0.29771 0.25873 0.0
H1810 H 0.85454 0.37301 0.32908 0.0
H1811 H 0.81378 0.36943 0.23952 0.0
C1812 C 0.78112 0.39586 0.25531 0.0
C1813 C 0.76965 0.40881 0.27895 0.0
C1814 C 0.8569 0.35665 0.31353 0.0
C1815 C 0.81877 0.37778 0.28403 0.0
C1816 C 0.875 0.33431 0.31893 0.0
C1817 C 0.87738 0.31223 0.29965 0.0
C1818 C 0.84133 0.35701 0.28857 0.0
C1819 C 0.8624 0.31404 0.2744 0.0
C1820 C 0.80581 0.3804 0.25772 0.0
C1821 C 0.78409 0.40732 0.30442 0.0
N1822 N 0.84487 0.33592 0.26969 0.0
N1823 N 0.80785 0.39177 0.3064 0.0
loop_
_geom_bond_atom_site_label_1
_geom_bond_atom_site_label_2
_geom_bond_distance
_geom_bond_site_symmetry_2
_ccdc_geom_bond_type
Fe0 O2 1.918 . S
Fe0 O5 1.997 . S
Fe0 O6 2.002 . S
Fe0 O11 1.976 . S
Fe0 O14 1.996 . S
Fe1 O2 1.918 . S
Fe1 O9 1.997 . S
Fe1 O12 1.996 . S
Fe1 O16 1.976 . S
Fe1 O19 2.002 . S
O2 Fe0 1.918 . S
O2 Fe1 1.918 . S
O2 Fe3 1.918 . S
Fe3 O2 1.918 . S
Fe3 O4 2.002 . S
Fe3 O13 1.976 . S
Fe3 O17 1.996 . S
Fe3 O20 1.997 . S
O4 Fe3 2.002 . S
O4 C21 1.295 . S
O5 Fe0 1.997 . S
O5 C21 1.235 . S
O6 Fe0 2.002 . S
O6 C7 1.295 . S
C7 O6 1.295 . S
C7 O9 1.235 . S
C8 O13 1.287 . S
C8 O14 1.255 . S
O9 Fe1 1.997 . S
O9 C7 1.235 . S
C10 O16 1.287 . S
C10 O17 1.255 . S
O11 Fe0 1.976 . S
O11 C18 1.287 . S
O12 Fe1 1.996 . S
O12 C18 1.255 . S
O13 Fe3 1.976 . S
O13 C8 1.287 . S
O14 Fe0 1.996 . S
O14 C8 1.255 . S
C15 O19 1.295 . S
C15 O20 1.235 . S
O16 Fe1 1.976 . S
O16 C10 1.287 . S
O17 Fe3 1.996 . S
O17 C10 1.255 . S
C18 O11 1.287 . S
C18 O12 1.255 . S
O19 Fe1 2.002 . S
O19 C15 1.295 . S
O20 Fe3 1.997 . S
O20 C15 1.235 . S
C21 O4 1.295 . S
C21 O5 1.235 . S
Fe22 O24 1.918 . S
Fe22 O27 1.997 . S
Fe22 O28 2.002 . S
Fe22 O33 1.976 . S
Fe22 O36 1.996 . S
Fe23 O24 1.918 . S
Fe23 O31 1.997 . S
Fe23 O34 1.996 . S
Fe23 O38 1.976 . S
Fe23 O41 2.002 . S
O24 Fe22 1.918 . S
O24 Fe23 1.918 . S
O24 Fe25 1.918 . S
Fe25 O24 1.918 . S
Fe25 O26 2.002 . S
Fe25 O35 1.976 . S
Fe25 O39 1.996 . S
Fe25 O42 1.997 . S
O26 Fe25 2.002 . S
O26 C43 1.295 . S
O27 Fe22 1.997 . S
O27 C43 1.235 . S
O28 Fe22 2.002 . S
O28 C29 1.295 . S
C29 O28 1.295 . S
C29 O31 1.235 . S
C30 O35 1.287 . S
C30 O36 1.255 . S
O31 Fe23 1.997 . S
O31 C29 1.235 . S
C32 O38 1.287 . S
C32 O39 1.255 . S
O33 Fe22 1.976 . S
O33 C40 1.287 . S
O34 Fe23 1.996 . S
O34 C40 1.255 . S
O35 Fe25 1.976 . S
O35 C30 1.287 . S
O36 Fe22 1.996 . S
O36 C30 1.255 . S
C37 O41 1.295 . S
C37 O42 1.235 . S
O38 Fe23 1.976 . S
O38 C32 1.287 . S
O39 Fe25 1.996 . S
O39 C32 1.255 . S
C40 O33 1.287 . S
C40 O34 1.255 . S
O41 Fe23 2.002 . S
O41 C37 1.295 . S
O42 Fe25 1.997 . S
O42 C37 1.235 . S
C43 O26 1.295 . S
C43 O27 1.235 . S
Fe44 O46 1.918 . S
Fe44 O49 1.997 . S
Fe44 O50 2.002 . S
Fe44 O55 1.976 . S
Fe44 O58 1.996 . S
Fe45 O46 1.918 . S
Fe45 O53 1.997 . S
Fe45 O56 1.996 . S
Fe45 O60 1.976 . S
Fe45 O63 2.002 . S
O46 Fe44 1.918 . S
O46 Fe45 1.918 . S
O46 Fe47 1.918 . S
Fe47 O46 1.918 . S
Fe47 O48 2.002 . S
Fe47 O57 1.976 . S
Fe47 O61 1.996 . S
Fe47 O64 1.997 . S
O48 Fe47 2.002 . S
O48 C65 1.295 . S
O49 Fe44 1.997 . S
O49 C65 1.235 . S
O50 Fe44 2.002 . S
O50 C51 1.295 . S
C51 O50 1.295 . S
C51 O53 1.235 . S
C52 O57 1.287 . S
C52 O58 1.255 . S
O53 Fe45 1.997 . S
O53 C51 1.235 . S
C54 O60 1.287 . S
C54 O61 1.255 . S
O55 Fe44 1.976 . S
O55 C62 1.287 . S
O56 Fe45 1.996 . S
O56 C62 1.255 . S
O57 Fe47 1.976 . S
O57 C52 1.287 . S
O58 Fe44 1.996 . S
O58 C52 1.255 . S
C59 O63 1.295 . S
C59 O64 1.235 . S
O60 Fe45 1.976 . S
O60 C54 1.287 . S
O61 Fe47 1.996 . S
O61 C54 1.255 . S
C62 O55 1.287 . S
C62 O56 1.255 . S
O63 Fe45 2.002 . S
O63 C59 1.295 . S
O64 Fe47 1.997 . S
O64 C59 1.235 . S
C65 O48 1.295 . S
C65 O49 1.235 . S
Fe66 O68 1.918 . S
Fe66 O71 1.997 . S
Fe66 O72 2.002 . S
Fe66 O77 1.976 . S
Fe66 O80 1.996 . S
Fe67 O68 1.918 . S
Fe67 O75 1.997 . S
Fe67 O78 1.996 . S
Fe67 O82 1.976 . S
Fe67 O85 2.002 . S
O68 Fe66 1.918 . S
O68 Fe67 1.918 . S
O68 Fe69 1.918 . S
Fe69 O68 1.918 . S
Fe69 O70 2.002 . S
Fe69 O79 1.976 . S
Fe69 O83 1.996 . S
Fe69 O86 1.997 . S
O70 Fe69 2.002 . S
O70 C87 1.295 . S
O71 Fe66 1.997 . S
O71 C87 1.235 . S
O72 Fe66 2.002 . S
O72 C73 1.295 . S
C73 O72 1.295 . S
C73 O75 1.235 . S
C74 O79 1.287 . S
C74 O80 1.255 . S
O75 Fe67 1.997 . S
O75 C73 1.235 . S
C76 O82 1.287 . S
C76 O83 1.255 . S
O77 Fe66 1.976 . S
O77 C84 1.287 . S
O78 Fe67 1.996 . S
O78 C84 1.255 . S
O79 Fe69 1.976 . S
O79 C74 1.287 . S
O80 Fe66 1.996 . S
O80 C74 1.255 . S
C81 O85 1.295 . S
C81 O86 1.235 . S
O82 Fe67 1.976 . S
O82 C76 1.287 . S
O83 Fe69 1.996 . S
O83 C76 1.255 . S
C84 O77 1.287 . S
C84 O78 1.255 . S
O85 Fe67 2.002 . S
O85 C81 1.295 . S
O86 Fe69 1.997 . S
O86 C81 1.235 . S
C87 O70 1.295 . S
C87 O71 1.235 . S
Fe88 O90 1.918 . S
Fe88 O93 1.997 . S
Fe88 O94 2.002 . S
Fe88 O99 1.976 . S
Fe88 O102 1.996 . S
Fe89 O90 1.918 . S
Fe89 O97 1.997 . S
Fe89 O100 1.996 . S
Fe89 O104 1.976 . S
Fe89 O107 2.002 . S
O90 Fe88 1.918 . S
O90 Fe89 1.918 . S
O90 Fe91 1.918 . S
Fe91 O90 1.918 . S
Fe91 O92 2.002 . S
Fe91 O101 1.976 . S
Fe91 O105 1.996 . S
Fe91 O108 1.997 . S
O92 Fe91 2.002 . S
O92 C109 1.295 . S
O93 Fe88 1.997 . S
O93 C109 1.235 . S
O94 Fe88 2.002 . S
O94 C95 1.295 . S
C95 O94 1.295 . S
C95 O97 1.235 . S
C96 O101 1.287 . S
C96 O102 1.255 . S
O97 Fe89 1.997 . S
O97 C95 1.235 . S
C98 O104 1.287 . S
C98 O105 1.255 . S
O99 Fe88 1.976 . S
O99 C106 1.287 . S
O100 Fe89 1.996 . S
O100 C106 1.255 . S
O101 Fe91 1.976 . S
O101 C96 1.287 . S
O102 Fe88 1.996 . S
O102 C96 1.255 . S
C103 O107 1.295 . S
C103 O108 1.235 . S
O104 Fe89 1.976 . S
O104 C98 1.287 . S
O105 Fe91 1.996 . S
O105 C98 1.255 . S
C106 O99 1.287 . S
C106 O100 1.255 . S
O107 Fe89 2.002 . S
O107 C103 1.295 . S
O108 Fe91 1.997 . S
O108 C103 1.235 . S
C109 O92 1.295 . S
C109 O93 1.235 . S
Fe110 O112 1.918 . S
Fe110 O115 1.997 . S
Fe110 O116 2.002 . S
Fe110 O121 1.976 . S
Fe110 O124 1.996 . S
Fe111 O112 1.918 . S
Fe111 O119 1.997 . S
Fe111 O122 1.996 . S
Fe111 O126 1.976 . S
Fe111 O129 2.002 . S
O112 Fe110 1.918 . S
O112 Fe111 1.918 . S
O112 Fe113 1.918 . S
Fe113 O112 1.918 . S
Fe113 O114 2.002 . S
Fe113 O123 1.976 . S
Fe113 O127 1.996 . S
Fe113 O130 1.997 . S
O114 Fe113 2.002 . S
O114 C131 1.295 . S
O115 Fe110 1.997 . S
O115 C131 1.235 . S
O116 Fe110 2.002 . S
O116 C117 1.295 . S
C117 O116 1.295 . S
C117 O119 1.235 . S
C118 O123 1.287 . S
C118 O124 1.255 . S
O119 Fe111 1.997 . S
O119 C117 1.235 . S
C120 O126 1.287 . S
C120 O127 1.255 . S
O121 Fe110 1.976 . S
O121 C128 1.287 . S
O122 Fe111 1.996 . S
O122 C128 1.255 . S
O123 Fe113 1.976 . S
O123 C118 1.287 . S
O124 Fe110 1.996 . S
O124 C118 1.255 . S
C125 O129 1.295 . S
C125 O130 1.235 . S
O126 Fe111 1.976 . S
O126 C120 1.287 . S
O127 Fe113 1.996 . S
O127 C120 1.255 . S
C128 O121 1.287 . S
C128 O122 1.255 . S
O129 Fe111 2.002 . S
O129 C125 1.295 . S
O130 Fe113 1.997 . S
O130 C125 1.235 . S
C131 O114 1.295 . S
C131 O115 1.235 . S
Fe132 O134 1.918 . S
Fe132 O137 1.997 . S
Fe132 O138 2.002 . S
Fe132 O143 1.976 . S
Fe132 O146 1.996 . S
Fe133 O134 1.918 . S
Fe133 O141 1.997 . S
Fe133 O144 1.996 . S
Fe133 O148 1.976 . S
Fe133 O151 2.002 . S
O134 Fe132 1.918 . S
O134 Fe133 1.918 . S
O134 Fe135 1.918 . S
Fe135 O134 1.918 . S
Fe135 O136 2.002 . S
Fe135 O145 1.976 . S
Fe135 O149 1.996 . S
Fe135 O152 1.997 . S
O136 Fe135 2.002 . S
O136 C153 1.295 . S
O137 Fe132 1.997 . S
O137 C153 1.235 . S
O138 Fe132 2.002 . S
O138 C139 1.295 . S
C139 O138 1.295 . S
C139 O141 1.235 . S
C140 O145 1.287 . S
C140 O146 1.255 . S
O141 Fe133 1.997 . S
O141 C139 1.235 . S
C142 O148 1.287 . S
C142 O149 1.255 . S
O143 Fe132 1.976 . S
O143 C150 1.287 . S
O144 Fe133 1.996 . S
O144 C150 1.255 . S
O145 Fe135 1.976 . S
O145 C140 1.287 . S
O146 Fe132 1.996 . S
O146 C140 1.255 . S
C147 O151 1.295 . S
C147 O152 1.235 . S
O148 Fe133 1.976 . S
O148 C142 1.287 . S
O149 Fe135 1.996 . S
O149 C142 1.255 . S
C150 O143 1.287 . S
C150 O144 1.255 . S
O151 Fe133 2.002 . S
O151 C147 1.295 . S
O152 Fe135 1.997 . S
O152 C147 1.235 . S
C153 O136 1.295 . S
C153 O137 1.235 . S
Fe154 O156 1.918 . S
Fe154 O159 1.997 . S
Fe154 O160 2.002 . S
Fe154 O165 1.976 . S
Fe154 O168 1.996 . S
Fe155 O156 1.918 . S
Fe155 O163 1.997 . S
Fe155 O166 1.996 . S
Fe155 O170 1.976 . S
Fe155 O173 2.002 . S
O156 Fe154 1.918 . S
O156 Fe155 1.918 . S
O156 Fe157 1.918 . S
Fe157 O156 1.918 . S
Fe157 O158 2.002 . S
Fe157 O167 1.976 . S
Fe157 O171 1.996 . S
Fe157 O174 1.997 . S
O158 Fe157 2.002 . S
O158 C175 1.295 . S
O159 Fe154 1.997 . S
O159 C175 1.235 . S
O160 Fe154 2.002 . S
O160 C161 1.295 . S
C161 O160 1.295 . S
C161 O163 1.235 . S
C162 O167 1.287 . S
C162 O168 1.255 . S
O163 Fe155 1.997 . S
O163 C161 1.235 . S
C164 O170 1.287 . S
C164 O171 1.255 . S
O165 Fe154 1.976 . S
O165 C172 1.287 . S
O166 Fe155 1.996 . S
O166 C172 1.255 . S
O167 Fe157 1.976 . S
O167 C162 1.287 . S
O168 Fe154 1.996 . S
O168 C162 1.255 . S
C169 O173 1.295 . S
C169 O174 1.235 . S
O170 Fe155 1.976 . S
O170 C164 1.287 . S
O171 Fe157 1.996 . S
O171 C164 1.255 . S
C172 O165 1.287 . S
C172 O166 1.255 . S
O173 Fe155 2.002 . S
O173 C169 1.295 . S
O174 Fe157 1.997 . S
O174 C169 1.235 . S
C175 O158 1.295 . S
C175 O159 1.235 . S
Fe176 O178 1.918 . S
Fe176 O181 1.997 . S
Fe176 O182 2.002 . S
Fe176 O187 1.976 . S
Fe176 O190 1.996 . S
Fe177 O178 1.918 . S
Fe177 O185 1.997 . S
Fe177 O188 1.996 . S
Fe177 O192 1.976 . S
Fe177 O195 2.002 . S
O178 Fe176 1.918 . S
O178 Fe177 1.918 . S
O178 Fe179 1.918 . S
Fe179 O178 1.918 . S
Fe179 O180 2.002 . S
Fe179 O189 1.976 . S
Fe179 O193 1.996 . S
Fe179 O196 1.997 . S
O180 Fe179 2.002 . S
O180 C197 1.295 . S
O181 Fe176 1.997 . S
O181 C197 1.235 . S
O182 Fe176 2.002 . S
O182 C183 1.295 . S
C183 O182 1.295 . S
C183 O185 1.235 . S
C184 O189 1.287 . S
C184 O190 1.255 . S
O185 Fe177 1.997 . S
O185 C183 1.235 . S
C186 O192 1.287 . S
C186 O193 1.255 . S
O187 Fe176 1.976 . S
O187 C194 1.287 . S
O188 Fe177 1.996 . S
O188 C194 1.255 . S
O189 Fe179 1.976 . S
O189 C184 1.287 . S
O190 Fe176 1.996 . S
O190 C184 1.255 . S
C191 O195 1.295 . S
C191 O196 1.235 . S
O192 Fe177 1.976 . S
O192 C186 1.287 . S
O193 Fe179 1.996 . S
O193 C186 1.255 . S
C194 O187 1.287 . S
C194 O188 1.255 . S
O195 Fe177 2.002 . S
O195 C191 1.295 . S
O196 Fe179 1.997 . S
O196 C191 1.235 . S
C197 O180 1.295 . S
C197 O181 1.235 . S
Fe198 O200 1.918 . S
Fe198 O203 1.997 . S
Fe198 O204 2.002 . S
Fe198 O209 1.976 . S
Fe198 O212 1.996 . S
Fe199 O200 1.918 . S
Fe199 O207 1.997 . S
Fe199 O210 1.996 . S
Fe199 O214 1.976 . S
Fe199 O217 2.002 . S
O200 Fe198 1.918 . S
O200 Fe199 1.918 . S
O200 Fe201 1.918 . S
Fe201 O200 1.918 . S
Fe201 O202 2.002 . S
Fe201 O211 1.976 . S
Fe201 O215 1.996 . S
Fe201 O218 1.997 . S
O202 Fe201 2.002 . S
O202 C219 1.295 . S
O203 Fe198 1.997 . S
O203 C219 1.235 . S
O204 Fe198 2.002 . S
O204 C205 1.295 . S
C205 O204 1.295 . S
C205 O207 1.235 . S
C206 O211 1.287 . S
C206 O212 1.255 . S
O207 Fe199 1.997 . S
O207 C205 1.235 . S
C208 O214 1.287 . S
C208 O215 1.255 . S
O209 Fe198 1.976 . S
O209 C216 1.287 . S
O210 Fe199 1.996 . S
O210 C216 1.255 . S
O211 Fe201 1.976 . S
O211 C206 1.287 . S
O212 Fe198 1.996 . S
O212 C206 1.255 . S
C213 O217 1.295 . S
C213 O218 1.235 . S
O214 Fe199 1.976 . S
O214 C208 1.287 . S
O215 Fe201 1.996 . S
O215 C208 1.255 . S
C216 O209 1.287 . S
C216 O210 1.255 . S
O217 Fe199 2.002 . S
O217 C213 1.295 . S
O218 Fe201 1.997 . S
O218 C213 1.235 . S
C219 O202 1.295 . S
C219 O203 1.235 . S
Fe220 O222 1.918 . S
Fe220 O225 1.997 . S
Fe220 O226 2.002 . S
Fe220 O231 1.976 . S
Fe220 O234 1.996 . S
Fe221 O222 1.918 . S
Fe221 O229 1.997 . S
Fe221 O232 1.996 . S
Fe221 O236 1.976 . S
Fe221 O239 2.002 . S
O222 Fe220 1.918 . S
O222 Fe221 1.918 . S
O222 Fe223 1.918 . S
Fe223 O222 1.918 . S
Fe223 O224 2.002 . S
Fe223 O233 1.976 . S
Fe223 O237 1.996 . S
Fe223 O240 1.997 . S
O224 Fe223 2.002 . S
O224 C241 1.295 . S
O225 Fe220 1.997 . S
O225 C241 1.235 . S
O226 Fe220 2.002 . S
O226 C227 1.295 . S
C227 O226 1.295 . S
C227 O229 1.235 . S
C228 O233 1.287 . S
C228 O234 1.255 . S
O229 Fe221 1.997 . S
O229 C227 1.235 . S
C230 O236 1.287 . S
C230 O237 1.255 . S
O231 Fe220 1.976 . S
O231 C238 1.287 . S
O232 Fe221 1.996 . S
O232 C238 1.255 . S
O233 Fe223 1.976 . S
O233 C228 1.287 . S
O234 Fe220 1.996 . S
O234 C228 1.255 . S
C235 O239 1.295 . S
C235 O240 1.235 . S
O236 Fe221 1.976 . S
O236 C230 1.287 . S
O237 Fe223 1.996 . S
O237 C230 1.255 . S
C238 O231 1.287 . S
C238 O232 1.255 . S
O239 Fe221 2.002 . S
O239 C235 1.295 . S
O240 Fe223 1.997 . S
O240 C235 1.235 . S
C241 O224 1.295 . S
C241 O225 1.235 . S
Fe242 O244 1.918 . S
Fe242 O247 1.997 . S
Fe242 O248 2.002 . S
Fe242 O253 1.976 . S
Fe242 O256 1.996 . S
Fe243 O244 1.918 . S
Fe243 O251 1.997 . S
Fe243 O254 1.996 . S
Fe243 O258 1.976 . S
Fe243 O261 2.002 . S
O244 Fe242 1.918 . S
O244 Fe243 1.918 . S
O244 Fe245 1.918 . S
Fe245 O244 1.918 . S
Fe245 O246 2.002 . S
Fe245 O255 1.976 . S
Fe245 O259 1.996 . S
Fe245 O262 1.997 . S
O246 Fe245 2.002 . S
O246 C263 1.295 . S
O247 Fe242 1.997 . S
O247 C263 1.235 . S
O248 Fe242 2.002 . S
O248 C249 1.295 . S
C249 O248 1.295 . S
C249 O251 1.235 . S
C250 O255 1.287 . S
C250 O256 1.255 . S
O251 Fe243 1.997 . S
O251 C249 1.235 . S
C252 O258 1.287 . S
C252 O259 1.255 . S
O253 Fe242 1.976 . S
O253 C260 1.287 . S
O254 Fe243 1.996 . S
O254 C260 1.255 . S
O255 Fe245 1.976 . S
O255 C250 1.287 . S
O256 Fe242 1.996 . S
O256 C250 1.255 . S
C257 O261 1.295 . S
C257 O262 1.235 . S
O258 Fe243 1.976 . S
O258 C252 1.287 . S
O259 Fe245 1.996 . S
O259 C252 1.255 . S
C260 O253 1.287 . S
C260 O254 1.255 . S
O261 Fe243 2.002 . S
O261 C257 1.295 . S
O262 Fe245 1.997 . S
O262 C257 1.235 . S
C263 O246 1.295 . S
C263 O247 1.235 . S
Fe264 O266 1.918 . S
Fe264 O269 1.997 . S
Fe264 O270 2.002 . S
Fe264 O275 1.976 . S
Fe264 O278 1.996 . S
Fe265 O266 1.918 . S
Fe265 O273 1.997 . S
Fe265 O276 1.996 . S
Fe265 O280 1.976 . S
Fe265 O283 2.002 . S
O266 Fe264 1.918 . S
O266 Fe265 1.918 . S
O266 Fe267 1.918 . S
Fe267 O266 1.918 . S
Fe267 O268 2.002 . S
Fe267 O277 1.976 . S
Fe267 O281 1.996 . S
Fe267 O284 1.997 . S
O268 Fe267 2.002 . S
O268 C285 1.295 . S
O269 Fe264 1.997 . S
O269 C285 1.235 . S
O270 Fe264 2.002 . S
O270 C271 1.295 . S
C271 O270 1.295 . S
C271 O273 1.235 . S
C272 O277 1.287 . S
C272 O278 1.255 . S
O273 Fe265 1.997 . S
O273 C271 1.235 . S
C274 O280 1.287 . S
C274 O281 1.255 . S
O275 Fe264 1.976 . S
O275 C282 1.287 . S
O276 Fe265 1.996 . S
O276 C282 1.255 . S
O277 Fe267 1.976 . S
O277 C272 1.287 . S
O278 Fe264 1.996 . S
O278 C272 1.255 . S
C279 O283 1.295 . S
C279 O284 1.235 . S
O280 Fe265 1.976 . S
O280 C274 1.287 . S
O281 Fe267 1.996 . S
O281 C274 1.255 . S
C282 O275 1.287 . S
C282 O276 1.255 . S
O283 Fe265 2.002 . S
O283 C279 1.295 . S
O284 Fe267 1.997 . S
O284 C279 1.235 . S
C285 O268 1.295 . S
C285 O269 1.235 . S
Fe286 O288 1.918 . S
Fe286 O291 1.997 . S
Fe286 O292 2.002 . S
Fe286 O297 1.976 . S
Fe286 O300 1.996 . S
Fe287 O288 1.918 . S
Fe287 O295 1.997 . S
Fe287 O298 1.996 . S
Fe287 O302 1.976 . S
Fe287 O305 2.002 . S
O288 Fe286 1.918 . S
O288 Fe287 1.918 . S
O288 Fe289 1.918 . S
Fe289 O288 1.918 . S
Fe289 O290 2.002 . S
Fe289 O299 1.976 . S
Fe289 O303 1.996 . S
Fe289 O306 1.997 . S
O290 Fe289 2.002 . S
O290 C307 1.295 . S
O291 Fe286 1.997 . S
O291 C307 1.235 . S
O292 Fe286 2.002 . S
O292 C293 1.295 . S
C293 O292 1.295 . S
C293 O295 1.235 . S
C294 O299 1.287 . S
C294 O300 1.255 . S
O295 Fe287 1.997 . S
O295 C293 1.235 . S
C296 O302 1.287 . S
C296 O303 1.255 . S
O297 Fe286 1.976 . S
O297 C304 1.287 . S
O298 Fe287 1.996 . S
O298 C304 1.255 . S
O299 Fe289 1.976 . S
O299 C294 1.287 . S
O300 Fe286 1.996 . S
O300 C294 1.255 . S
C301 O305 1.295 . S
C301 O306 1.235 . S
O302 Fe287 1.976 . S
O302 C296 1.287 . S
O303 Fe289 1.996 . S
O303 C296 1.255 . S
C304 O297 1.287 . S
C304 O298 1.255 . S
O305 Fe287 2.002 . S
O305 C301 1.295 . S
O306 Fe289 1.997 . S
O306 C301 1.235 . S
C307 O290 1.295 . S
C307 O291 1.235 . S
Fe308 O310 1.918 . S
Fe308 O313 1.997 . S
Fe308 O314 2.002 . S
Fe308 O319 1.976 . S
Fe308 O322 1.996 . S
Fe309 O310 1.918 . S
Fe309 O317 1.997 . S
Fe309 O320 1.996 . S
Fe309 O324 1.976 . S
Fe309 O327 2.002 . S
O310 Fe308 1.918 . S
O310 Fe309 1.918 . S
O310 Fe311 1.918 . S
Fe311 O310 1.918 . S
Fe311 O312 2.002 . S
Fe311 O321 1.976 . S
Fe311 O325 1.996 . S
Fe311 O328 1.997 . S
O312 Fe311 2.002 . S
O312 C329 1.295 . S
O313 Fe308 1.997 . S
O313 C329 1.235 . S
O314 Fe308 2.002 . S
O314 C315 1.295 . S
C315 O314 1.295 . S
C315 O317 1.235 . S
C316 O321 1.287 . S
C316 O322 1.255 . S
O317 Fe309 1.997 . S
O317 C315 1.235 . S
C318 O324 1.287 . S
C318 O325 1.255 . S
O319 Fe308 1.976 . S
O319 C326 1.287 . S
O320 Fe309 1.996 . S
O320 C326 1.255 . S
O321 Fe311 1.976 . S
O321 C316 1.287 . S
O322 Fe308 1.996 . S
O322 C316 1.255 . S
C323 O327 1.295 . S
C323 O328 1.235 . S
O324 Fe309 1.976 . S
O324 C318 1.287 . S
O325 Fe311 1.996 . S
O325 C318 1.255 . S
C326 O319 1.287 . S
C326 O320 1.255 . S
O327 Fe309 2.002 . S
O327 C323 1.295 . S
O328 Fe311 1.997 . S
O328 C323 1.235 . S
C329 O312 1.295 . S
C329 O313 1.235 . S
Fe330 O332 1.918 . S
Fe330 O335 1.997 . S
Fe330 O336 2.002 . S
Fe330 O341 1.976 . S
Fe330 O344 1.996 . S
Fe331 O332 1.918 . S
Fe331 O339 1.997 . S
Fe331 O342 1.996 . S
Fe331 O346 1.976 . S
Fe331 O349 2.002 . S
O332 Fe330 1.918 . S
O332 Fe331 1.918 . S
O332 Fe333 1.918 . S
Fe333 O332 1.918 . S
Fe333 O334 2.002 . S
Fe333 O343 1.976 . S
Fe333 O347 1.996 . S
Fe333 O350 1.997 . S
O334 Fe333 2.002 . S
O334 C351 1.295 . S
O335 Fe330 1.997 . S
O335 C351 1.235 . S
O336 Fe330 2.002 . S
O336 C337 1.295 . S
C337 O336 1.295 . S
C337 O339 1.235 . S
C338 O343 1.287 . S
C338 O344 1.255 . S
O339 Fe331 1.997 . S
O339 C337 1.235 . S
C340 O346 1.287 . S
C340 O347 1.255 . S
O341 Fe330 1.976 . S
O341 C348 1.287 . S
O342 Fe331 1.996 . S
O342 C348 1.255 . S
O343 Fe333 1.976 . S
O343 C338 1.287 . S
O344 Fe330 1.996 . S
O344 C338 1.255 . S
C345 O349 1.295 . S
C345 O350 1.235 . S
O346 Fe331 1.976 . S
O346 C340 1.287 . S
O347 Fe333 1.996 . S
O347 C340 1.255 . S
C348 O341 1.287 . S
C348 O342 1.255 . S
O349 Fe331 2.002 . S
O349 C345 1.295 . S
O350 Fe333 1.997 . S
O350 C345 1.235 . S
C351 O334 1.295 . S
C351 O335 1.235 . S
Fe352 O354 1.918 . S
Fe352 O357 1.997 . S
Fe352 O358 2.002 . S
Fe352 O363 1.976 . S
Fe352 O366 1.996 . S
Fe353 O354 1.918 . S
Fe353 O361 1.997 . S
Fe353 O364 1.996 . S
Fe353 O368 1.976 . S
Fe353 O371 2.002 . S
O354 Fe352 1.918 . S
O354 Fe353 1.918 . S
O354 Fe355 1.918 . S
Fe355 O354 1.918 . S
Fe355 O356 2.002 . S
Fe355 O365 1.976 . S
Fe355 O369 1.996 . S
Fe355 O372 1.997 . S
O356 Fe355 2.002 . S
O356 C373 1.295 . S
O357 Fe352 1.997 . S
O357 C373 1.235 . S
O358 Fe352 2.002 . S
O358 C359 1.295 . S
C359 O358 1.295 . S
C359 O361 1.235 . S
C360 O365 1.287 . S
C360 O366 1.255 . S
O361 Fe353 1.997 . S
O361 C359 1.235 . S
C362 O368 1.287 . S
C362 O369 1.255 . S
O363 Fe352 1.976 . S
O363 C370 1.287 . S
O364 Fe353 1.996 . S
O364 C370 1.255 . S
O365 Fe355 1.976 . S
O365 C360 1.287 . S
O366 Fe352 1.996 . S
O366 C360 1.255 . S
C367 O371 1.295 . S
C367 O372 1.235 . S
O368 Fe353 1.976 . S
O368 C362 1.287 . S
O369 Fe355 1.996 . S
O369 C362 1.255 . S
C370 O363 1.287 . S
C370 O364 1.255 . S
O371 Fe353 2.002 . S
O371 C367 1.295 . S
O372 Fe355 1.997 . S
O372 C367 1.235 . S
C373 O356 1.295 . S
C373 O357 1.235 . S
Fe374 O376 1.918 . S
Fe374 O379 1.997 . S
Fe374 O380 2.002 . S
Fe374 O385 1.976 . S
Fe374 O388 1.996 . S
Fe375 O376 1.918 . S
Fe375 O383 1.997 . S
Fe375 O386 1.996 . S
Fe375 O390 1.976 . S
Fe375 O393 2.002 . S
O376 Fe374 1.918 . S
O376 Fe375 1.918 . S
O376 Fe377 1.918 . S
Fe377 O376 1.918 . S
Fe377 O378 2.002 . S
Fe377 O387 1.976 . S
Fe377 O391 1.996 . S
Fe377 O394 1.997 . S
O378 Fe377 2.002 . S
O378 C395 1.295 . S
O379 Fe374 1.997 . S
O379 C395 1.235 . S
O380 Fe374 2.002 . S
O380 C381 1.295 . S
C381 O380 1.295 . S
C381 O383 1.235 . S
C382 O387 1.287 . S
C382 O388 1.255 . S
O383 Fe375 1.997 . S
O383 C381 1.235 . S
C384 O390 1.287 . S
C384 O391 1.255 . S
O385 Fe374 1.976 . S
O385 C392 1.287 . S
O386 Fe375 1.996 . S
O386 C392 1.255 . S
O387 Fe377 1.976 . S
O387 C382 1.287 . S
O388 Fe374 1.996 . S
O388 C382 1.255 . S
C389 O393 1.295 . S
C389 O394 1.235 . S
O390 Fe375 1.976 . S
O390 C384 1.287 . S
O391 Fe377 1.996 . S
O391 C384 1.255 . S
C392 O385 1.287 . S
C392 O386 1.255 . S
O393 Fe375 2.002 . S
O393 C389 1.295 . S
O394 Fe377 1.997 . S
O394 C389 1.235 . S
C395 O378 1.295 . S
C395 O379 1.235 . S
Fe396 O398 1.918 . S
Fe396 O401 1.997 . S
Fe396 O402 2.002 . S
Fe396 O407 1.976 . S
Fe396 O410 1.996 . S
Fe397 O398 1.918 . S
Fe397 O405 1.997 . S
Fe397 O408 1.996 . S
Fe397 O412 1.976 . S
Fe397 O415 2.002 . S
O398 Fe396 1.918 . S
O398 Fe397 1.918 . S
O398 Fe399 1.918 . S
Fe399 O398 1.918 . S
Fe399 O400 2.002 . S
Fe399 O409 1.976 . S
Fe399 O413 1.996 . S
Fe399 O416 1.997 . S
O400 Fe399 2.002 . S
O400 C417 1.295 . S
O401 Fe396 1.997 . S
O401 C417 1.235 . S
O402 Fe396 2.002 . S
O402 C403 1.295 . S
C403 O402 1.295 . S
C403 O405 1.235 . S
C404 O409 1.287 . S
C404 O410 1.255 . S
O405 Fe397 1.997 . S
O405 C403 1.235 . S
C406 O412 1.287 . S
C406 O413 1.255 . S
O407 Fe396 1.976 . S
O407 C414 1.287 . S
O408 Fe397 1.996 . S
O408 C414 1.255 . S
O409 Fe399 1.976 . S
O409 C404 1.287 . S
O410 Fe396 1.996 . S
O410 C404 1.255 . S
C411 O415 1.295 . S
C411 O416 1.235 . S
O412 Fe397 1.976 . S
O412 C406 1.287 . S
O413 Fe399 1.996 . S
O413 C406 1.255 . S
C414 O407 1.287 . S
C414 O408 1.255 . S
O415 Fe397 2.002 . S
O415 C411 1.295 . S
O416 Fe399 1.997 . S
O416 C411 1.235 . S
C417 O400 1.295 . S
C417 O401 1.235 . S
Fe418 O420 1.918 . S
Fe418 O423 1.997 . S
Fe418 O424 2.002 . S
Fe418 O429 1.976 . S
Fe418 O432 1.996 . S
Fe419 O420 1.918 . S
Fe419 O427 1.997 . S
Fe419 O430 1.996 . S
Fe419 O434 1.976 . S
Fe419 O437 2.002 . S
O420 Fe418 1.918 . S
O420 Fe419 1.918 . S
O420 Fe421 1.918 . S
Fe421 O420 1.918 . S
Fe421 O422 2.002 . S
Fe421 O431 1.976 . S
Fe421 O435 1.996 . S
Fe421 O438 1.997 . S
O422 Fe421 2.002 . S
O422 C439 1.295 . S
O423 Fe418 1.997 . S
O423 C439 1.235 . S
O424 Fe418 2.002 . S
O424 C425 1.295 . S
C425 O424 1.295 . S
C425 O427 1.235 . S
C426 O431 1.287 . S
C426 O432 1.255 . S
O427 Fe419 1.997 . S
O427 C425 1.235 . S
C428 O434 1.287 . S
C428 O435 1.255 . S
O429 Fe418 1.976 . S
O429 C436 1.287 . S
O430 Fe419 1.996 . S
O430 C436 1.255 . S
O431 Fe421 1.976 . S
O431 C426 1.287 . S
O432 Fe418 1.996 . S
O432 C426 1.255 . S
C433 O437 1.295 . S
C433 O438 1.235 . S
O434 Fe419 1.976 . S
O434 C428 1.287 . S
O435 Fe421 1.996 . S
O435 C428 1.255 . S
C436 O429 1.287 . S
C436 O430 1.255 . S
O437 Fe419 2.002 . S
O437 C433 1.295 . S
O438 Fe421 1.997 . S
O438 C433 1.235 . S
C439 O422 1.295 . S
C439 O423 1.235 . S
Fe440 O442 1.918 . S
Fe440 O445 1.997 . S
Fe440 O446 2.002 . S
Fe440 O451 1.976 . S
Fe440 O454 1.996 . S
Fe441 O442 1.918 . S
Fe441 O449 1.997 . S
Fe441 O452 1.996 . S
Fe441 O456 1.976 . S
Fe441 O459 2.002 . S
O442 Fe440 1.918 . S
O442 Fe441 1.918 . S
O442 Fe443 1.918 . S
Fe443 O442 1.918 . S
Fe443 O444 2.002 . S
Fe443 O453 1.976 . S
Fe443 O457 1.996 . S
Fe443 O460 1.997 . S
O444 Fe443 2.002 . S
O444 C461 1.295 . S
O445 Fe440 1.997 . S
O445 C461 1.235 . S
O446 Fe440 2.002 . S
O446 C447 1.295 . S
C447 O446 1.295 . S
C447 O449 1.235 . S
C448 O453 1.287 . S
C448 O454 1.255 . S
O449 Fe441 1.997 . S
O449 C447 1.235 . S
C450 O456 1.287 . S
C450 O457 1.255 . S
O451 Fe440 1.976 . S
O451 C458 1.287 . S
O452 Fe441 1.996 . S
O452 C458 1.255 . S
O453 Fe443 1.976 . S
O453 C448 1.287 . S
O454 Fe440 1.996 . S
O454 C448 1.255 . S
C455 O459 1.295 . S
C455 O460 1.235 . S
O456 Fe441 1.976 . S
O456 C450 1.287 . S
O457 Fe443 1.996 . S
O457 C450 1.255 . S
C458 O451 1.287 . S
C458 O452 1.255 . S
O459 Fe441 2.002 . S
O459 C455 1.295 . S
O460 Fe443 1.997 . S
O460 C455 1.235 . S
C461 O444 1.295 . S
C461 O445 1.235 . S
Fe462 O464 1.918 . S
Fe462 O467 1.997 . S
Fe462 O468 2.002 . S
Fe462 O473 1.976 . S
Fe462 O476 1.996 . S
Fe463 O464 1.918 . S
Fe463 O471 1.997 . S
Fe463 O474 1.996 . S
Fe463 O478 1.976 . S
Fe463 O481 2.002 . S
O464 Fe462 1.918 . S
O464 Fe463 1.918 . S
O464 Fe465 1.918 . S
Fe465 O464 1.918 . S
Fe465 O466 2.002 . S
Fe465 O475 1.976 . S
Fe465 O479 1.996 . S
Fe465 O482 1.997 . S
O466 Fe465 2.002 . S
O466 C483 1.295 . S
O467 Fe462 1.997 . S
O467 C483 1.235 . S
O468 Fe462 2.002 . S
O468 C469 1.295 . S
C469 O468 1.295 . S
C469 O471 1.235 . S
C470 O475 1.287 . S
C470 O476 1.255 . S
O471 Fe463 1.997 . S
O471 C469 1.235 . S
C472 O478 1.287 . S
C472 O479 1.255 . S
O473 Fe462 1.976 . S
O473 C480 1.287 . S
O474 Fe463 1.996 . S
O474 C480 1.255 . S
O475 Fe465 1.976 . S
O475 C470 1.287 . S
O476 Fe462 1.996 . S
O476 C470 1.255 . S
C477 O481 1.295 . S
C477 O482 1.235 . S
O478 Fe463 1.976 . S
O478 C472 1.287 . S
O479 Fe465 1.996 . S
O479 C472 1.255 . S
C480 O473 1.287 . S
C480 O474 1.255 . S
O481 Fe463 2.002 . S
O481 C477 1.295 . S
O482 Fe465 1.997 . S
O482 C477 1.235 . S
C483 O466 1.295 . S
C483 O467 1.235 . S
Fe484 O486 1.918 . S
Fe484 O489 1.997 . S
Fe484 O490 2.002 . S
Fe484 O495 1.976 . S
Fe484 O498 1.996 . S
Fe485 O486 1.918 . S
Fe485 O493 1.997 . S
Fe485 O496 1.996 . S
Fe485 O500 1.976 . S
Fe485 O503 2.002 . S
O486 Fe484 1.918 . S
O486 Fe485 1.918 . S
O486 Fe487 1.918 . S
Fe487 O486 1.918 . S
Fe487 O488 2.002 . S
Fe487 O497 1.976 . S
Fe487 O501 1.996 . S
Fe487 O504 1.997 . S
O488 Fe487 2.002 . S
O488 C505 1.295 . S
O489 Fe484 1.997 . S
O489 C505 1.235 . S
O490 Fe484 2.002 . S
O490 C491 1.295 . S
C491 O490 1.295 . S
C491 O493 1.235 . S
C492 O497 1.287 . S
C492 O498 1.255 . S
O493 Fe485 1.997 . S
O493 C491 1.235 . S
C494 O500 1.287 . S
C494 O501 1.255 . S
O495 Fe484 1.976 . S
O495 C502 1.287 . S
O496 Fe485 1.996 . S
O496 C502 1.255 . S
O497 Fe487 1.976 . S
O497 C492 1.287 . S
O498 Fe484 1.996 . S
O498 C492 1.255 . S
C499 O503 1.295 . S
C499 O504 1.235 . S
O500 Fe485 1.976 . S
O500 C494 1.287 . S
O501 Fe487 1.996 . S
O501 C494 1.255 . S
C502 O495 1.287 . S
C502 O496 1.255 . S
O503 Fe485 2.002 . S
O503 C499 1.295 . S
O504 Fe487 1.997 . S
O504 C499 1.235 . S
C505 O488 1.295 . S
C505 O489 1.235 . S
Fe506 O508 1.918 . S
Fe506 O511 1.997 . S
Fe506 O512 2.002 . S
Fe506 O517 1.976 . S
Fe506 O520 1.996 . S
Fe507 O508 1.918 . S
Fe507 O515 1.997 . S
Fe507 O518 1.996 . S
Fe507 O522 1.976 . S
Fe507 O525 2.002 . S
O508 Fe506 1.918 . S
O508 Fe507 1.918 . S
O508 Fe509 1.918 . S
Fe509 O508 1.918 . S
Fe509 O510 2.002 . S
Fe509 O519 1.976 . S
Fe509 O523 1.996 . S
Fe509 O526 1.997 . S
O510 Fe509 2.002 . S
O510 C527 1.295 . S
O511 Fe506 1.997 . S
O511 C527 1.235 . S
O512 Fe506 2.002 . S
O512 C513 1.295 . S
C513 O512 1.295 . S
C513 O515 1.235 . S
C514 O519 1.287 . S
C514 O520 1.255 . S
O515 Fe507 1.997 . S
O515 C513 1.235 . S
C516 O522 1.287 . S
C516 O523 1.255 . S
O517 Fe506 1.976 . S
O517 C524 1.287 . S
O518 Fe507 1.996 . S
O518 C524 1.255 . S
O519 Fe509 1.976 . S
O519 C514 1.287 . S
O520 Fe506 1.996 . S
O520 C514 1.255 . S
C521 O525 1.295 . S
C521 O526 1.235 . S
O522 Fe507 1.976 . S
O522 C516 1.287 . S
O523 Fe509 1.996 . S
O523 C516 1.255 . S
C524 O517 1.287 . S
C524 O518 1.255 . S
O525 Fe507 2.002 . S
O525 C521 1.295 . S
O526 Fe509 1.997 . S
O526 C521 1.235 . S
C527 O510 1.295 . S
C527 O511 1.235 . S
H528 C534 0.930 . S
H529 C538 0.930 . S
H530 C543 0.929 . S
H531 C541 0.929 . S
H532 C536 0.929 . S
H533 C542 0.929 . S
C534 H528 0.930 . S
C534 C535 1.367 . S
C534 C542 1.378 . S
C535 C534 1.367 . S
C535 C543 1.433 . S
C536 H532 0.929 . S
C536 C538 1.378 . S
C536 C540 1.350 . S
C537 C540 1.463 . S
C537 C542 1.350 . S
C537 N545 1.427 . S
C538 H529 0.930 . S
C538 C536 1.378 . S
C538 C539 1.367 . S
C539 C538 1.367 . S
C539 C541 1.433 . S
C540 C536 1.350 . S
C540 C537 1.463 . S
C540 N544 1.427 . S
C541 H531 0.929 . S
C541 C539 1.433 . S
C541 N544 1.384 . S
C542 H533 0.929 . S
C542 C534 1.378 . S
C542 C537 1.350 . S
C543 H530 0.929 . S
C543 C535 1.433 . S
C543 N545 1.384 . S
N544 C540 1.427 . S
N544 C541 1.384 . S
N545 C537 1.427 . S
N545 C543 1.384 . S
H546 C552 0.930 . S
H547 C556 0.930 . S
H548 C561 0.929 . S
H549 C559 0.929 . S
H550 C554 0.929 . S
H551 C560 0.929 . S
C552 H546 0.930 . S
C552 C553 1.367 . S
C552 C560 1.378 . S
C553 C552 1.367 . S
C553 C561 1.433 . S
C554 H550 0.929 . S
C554 C556 1.378 . S
C554 C558 1.350 . S
C555 C558 1.463 . S
C555 C560 1.350 . S
C555 N563 1.427 . S
C556 H547 0.930 . S
C556 C554 1.378 . S
C556 C557 1.367 . S
C557 C556 1.367 . S
C557 C559 1.433 . S
C558 C554 1.350 . S
C558 C555 1.463 . S
C558 N562 1.427 . S
C559 H549 0.929 . S
C559 C557 1.433 . S
C559 N562 1.384 . S
C560 H551 0.929 . S
C560 C552 1.378 . S
C560 C555 1.350 . S
C561 H548 0.929 . S
C561 C553 1.433 . S
C561 N563 1.384 . S
N562 C558 1.427 . S
N562 C559 1.384 . S
N563 C555 1.427 . S
N563 C561 1.384 . S
H564 C570 0.930 . S
H565 C574 0.930 . S
H566 C579 0.929 . S
H567 C577 0.929 . S
H568 C572 0.929 . S
H569 C578 0.929 . S
C570 H564 0.930 . S
C570 C571 1.367 . S
C570 C578 1.378 . S
C571 C570 1.367 . S
C571 C579 1.433 . S
C572 H568 0.929 . S
C572 C574 1.378 . S
C572 C576 1.350 . S
C573 C576 1.463 . S
C573 C578 1.350 . S
C573 N581 1.427 . S
C574 H565 0.930 . S
C574 C572 1.378 . S
C574 C575 1.367 1_565 S
C575 C574 1.367 1_545 S
C575 C577 1.433 . S
C576 C572 1.350 . S
C576 C573 1.463 . S
C576 N580 1.427 1_565 S
C577 H567 0.929 . S
C577 C575 1.433 . S
C577 N580 1.384 . S
C578 H569 0.929 . S
C578 C570 1.378 . S
C578 C573 1.350 . S
C579 H566 0.929 . S
C579 C571 1.433 . S
C579 N581 1.384 . S
N580 C576 1.427 1_545 S
N580 C577 1.384 . S
N581 C573 1.427 . S
N581 C579 1.384 . S
H582 C588 0.930 . S
H583 C592 0.930 . S
H584 C597 0.929 . S
H585 C595 0.929 . S
H586 C590 0.929 . S
H587 C596 0.929 . S
C588 H582 0.930 . S
C588 C589 1.367 1_545 S
C588 C596 1.378 . S
C589 C588 1.367 1_565 S
C589 C597 1.433 . S
C590 H586 0.929 . S
C590 C592 1.378 . S
C590 C594 1.350 . S
C591 C594 1.463 . S
C591 C596 1.350 . S
C591 N599 1.438 . S
C592 H583 0.930 . S
C592 C590 1.378 . S
C592 C593 1.367 . S
C593 C592 1.367 . S
C593 C595 1.433 . S
C594 C590 1.350 . S
C594 C591 1.463 . S
C594 N598 1.427 . S
C595 H585 0.929 . S
C595 C593 1.433 . S
C595 N598 1.384 . S
C596 H587 0.929 . S
C596 C588 1.378 . S
C596 C591 1.350 . S
C597 H584 0.929 . S
C597 C589 1.433 . S
C597 N599 1.374 1_565 S
N598 C594 1.427 . S
N598 C595 1.384 . S
N599 C591 1.438 . S
N599 C597 1.374 1_545 S
H600 C606 0.930 . S
H601 C610 0.930 . S
H602 C615 0.929 . S
H603 C613 0.929 . S
H604 C608 0.929 . S
H605 C614 0.929 . S
C606 H600 0.930 . S
C606 C607 1.367 . S
C606 C614 1.378 . S
C607 C606 1.367 . S
C607 C615 1.433 . S
C608 H604 0.929 . S
C608 C610 1.378 . S
C608 C612 1.350 . S
C609 C612 1.463 . S
C609 C614 1.350 . S
C609 N617 1.427 . S
C610 H601 0.930 . S
C610 C608 1.378 . S
C610 C611 1.367 . S
C611 C610 1.367 . S
C611 C613 1.433 . S
C612 C608 1.350 . S
C612 C609 1.463 . S
C612 N616 1.427 . S
C613 H603 0.929 . S
C613 C611 1.433 . S
C613 N616 1.384 . S
C614 H605 0.929 . S
C614 C606 1.378 . S
C614 C609 1.350 . S
C615 H602 0.929 . S
C615 C607 1.433 . S
C615 N617 1.384 . S
N616 C612 1.427 . S
N616 C613 1.384 . S
N617 C609 1.427 . S
N617 C615 1.384 . S
H618 C624 0.930 . S
H619 C628 0.930 . S
H620 C633 0.929 . S
H621 C631 0.929 . S
H622 C626 0.928 1_556 S
H623 C632 0.929 . S
C624 H618 0.930 . S
C624 C625 1.367 . S
C624 C632 1.378 . S
C625 C624 1.367 . S
C625 C633 1.433 . S
C626 H622 0.928 1_554 S
C626 C628 1.376 1_554 S
C626 C630 1.352 . S
C627 C630 1.463 . S
C627 C632 1.350 . S
C627 N635 1.427 . S
C628 H619 0.930 . S
C628 C626 1.376 1_556 S
C628 C629 1.367 . S
C629 C628 1.367 . S
C629 C631 1.433 1_556 S
C630 C626 1.352 . S
C630 C627 1.463 . S
C630 N634 1.427 . S
C631 H621 0.929 . S
C631 C629 1.433 1_554 S
C631 N634 1.384 . S
C632 H623 0.929 . S
C632 C624 1.378 . S
C632 C627 1.350 . S
C633 H620 0.929 . S
C633 C625 1.433 . S
C633 N635 1.384 . S
N634 C630 1.427 . S
N634 C631 1.384 . S
N635 C627 1.427 . S
N635 C633 1.384 . S
H636 C642 0.930 . S
H637 C646 0.930 . S
H638 C651 0.929 . S
H639 C649 0.929 . S
H640 C644 0.929 . S
H641 C650 0.929 . S
C642 H636 0.930 . S
C642 C643 1.367 . S
C642 C650 1.378 . S
C643 C642 1.367 . S
C643 C651 1.433 . S
C644 H640 0.929 . S
C644 C646 1.378 . S
C644 C648 1.350 . S
C645 C648 1.463 . S
C645 C650 1.350 . S
C645 N653 1.427 . S
C646 H637 0.930 . S
C646 C644 1.378 . S
C646 C647 1.367 . S
C647 C646 1.367 . S
C647 C649 1.433 . S
C648 C644 1.350 . S
C648 C645 1.463 . S
C648 N652 1.427 . S
C649 H639 0.929 . S
C649 C647 1.433 . S
C649 N652 1.384 . S
C650 H641 0.929 . S
C650 C642 1.378 . S
C650 C645 1.350 . S
C651 H638 0.929 . S
C651 C643 1.433 . S
C651 N653 1.384 . S
N652 C648 1.427 . S
N652 C649 1.384 . S
N653 C645 1.427 . S
N653 C651 1.384 . S
H654 C660 0.930 . S
H655 C664 0.930 . S
H656 C669 0.929 . S
H657 C667 0.929 . S
H658 C662 0.929 . S
H659 C668 0.929 . S
C660 H654 0.930 . S
C660 C661 1.367 . S
C660 C668 1.378 . S
C661 C660 1.367 . S
C661 C669 1.433 . S
C662 H658 0.929 . S
C662 C664 1.378 . S
C662 C666 1.350 1_554 S
C663 C666 1.463 . S
C663 C668 1.350 . S
C663 N671 1.427 . S
C664 H655 0.930 . S
C664 C662 1.378 . S
C664 C665 1.367 . S
C665 C664 1.367 . S
C665 C667 1.433 1_554 S
C666 C662 1.350 1_556 S
C666 C663 1.463 . S
C666 N670 1.427 . S
C667 H657 0.929 . S
C667 C665 1.433 1_556 S
C667 N670 1.384 . S
C668 H659 0.929 . S
C668 C660 1.378 . S
C668 C663 1.350 . S
C669 H656 0.929 . S
C669 C661 1.433 . S
C669 N671 1.384 . S
N670 C666 1.427 . S
N670 C667 1.384 . S
N671 C663 1.427 . S
N671 C669 1.384 . S
H672 C678 0.930 . S
H673 C682 0.930 . S
H674 C687 0.929 . S
H675 C685 0.929 . S
H676 C680 0.929 . S
H677 C686 0.929 . S
C678 H672 0.930 . S
C678 C679 1.367 . S
C678 C686 1.378 . S
C679 C678 1.367 . S
C679 C687 1.433 . S
C680 H676 0.929 . S
C680 C682 1.378 . S
C680 C684 1.350 . S
C681 C684 1.463 . S
C681 C686 1.350 . S
C681 N689 1.427 . S
C682 H673 0.930 . S
C682 C680 1.378 . S
C682 C683 1.367 . S
C683 C682 1.367 . S
C683 C685 1.433 . S
C684 C680 1.350 . S
C684 C681 1.463 . S
C684 N688 1.427 . S
C685 H675 0.929 . S
C685 C683 1.433 . S
C685 N688 1.384 . S
C686 H677 0.929 . S
C686 C678 1.378 . S
C686 C681 1.350 . S
C687 H674 0.929 . S
C687 C679 1.433 . S
C687 N689 1.384 . S
N688 C684 1.427 . S
N688 C685 1.384 . S
N689 C681 1.427 . S
N689 C687 1.384 . S
H690 C696 0.930 . S
H691 C700 0.930 . S
H692 C705 0.929 . S
H693 C703 0.929 . S
H694 C698 0.929 . S
H695 C704 0.929 . S
C696 H690 0.930 . S
C696 C697 1.367 . S
C696 C704 1.378 1_655 S
C697 C696 1.367 . S
C697 C705 1.433 . S
C698 H694 0.929 . S
C698 C700 1.378 . S
C698 C702 1.350 . S
C699 C702 1.463 . S
C699 C704 1.350 . S
C699 N707 1.427 . S
C700 H691 0.930 . S
C700 C698 1.378 . S
C700 C701 1.367 . S
C701 C700 1.367 . S
C701 C703 1.433 . S
C702 C698 1.350 . S
C702 C699 1.463 . S
C702 N706 1.427 . S
C703 H693 0.929 . S
C703 C701 1.433 . S
C703 N706 1.384 . S
C704 H695 0.929 . S
C704 C696 1.378 1_455 S
C704 C699 1.350 . S
C705 H692 0.929 . S
C705 C697 1.433 . S
C705 N707 1.384 1_655 S
N706 C702 1.427 . S
N706 C703 1.384 . S
N707 C699 1.427 . S
N707 C705 1.384 1_455 S
H708 C714 0.930 . S
H709 C718 0.930 . S
H710 C723 0.929 . S
H711 C721 0.929 . S
H712 C716 0.929 . S
H713 C722 0.929 . S
C714 H708 0.930 . S
C714 C715 1.367 . S
C714 C722 1.378 . S
C715 C714 1.367 . S
C715 C723 1.433 . S
C716 H712 0.929 . S
C716 C718 1.378 . S
C716 C720 1.350 . S
C717 C720 1.463 . S
C717 C722 1.350 . S
C717 N725 1.427 . S
C718 H709 0.930 . S
C718 C716 1.378 . S
C718 C719 1.367 . S
C719 C718 1.367 . S
C719 C721 1.433 . S
C720 C716 1.350 . S
C720 C717 1.463 . S
C720 N724 1.427 . S
C721 H711 0.929 . S
C721 C719 1.433 . S
C721 N724 1.384 . S
C722 H713 0.929 . S
C722 C714 1.378 . S
C722 C717 1.350 . S
C723 H710 0.929 . S
C723 C715 1.433 . S
C723 N725 1.384 . S
N724 C720 1.427 . S
N724 C721 1.384 . S
N725 C717 1.427 . S
N725 C723 1.384 . S
H726 C732 0.930 . S
H727 C736 0.930 . S
H728 C741 0.929 . S
H729 C739 0.932 . S
H730 C734 0.929 . S
H731 C740 0.929 . S
C732 H726 0.930 . S
C732 C733 1.367 . S
C732 C740 1.378 . S
C733 C732 1.367 . S
C733 C741 1.433 . S
C734 H730 0.929 . S
C734 C736 1.378 1_655 S
C734 C738 1.350 . S
C735 C738 1.463 . S
C735 C740 1.350 . S
C735 N743 1.427 . S
C736 H727 0.930 . S
C736 C734 1.378 1_455 S
C736 C737 1.367 . S
C737 C736 1.367 . S
C737 C739 1.433 1_455 S
C738 C734 1.350 . S
C738 C735 1.463 . S
C738 N742 1.427 . S
C739 H729 0.932 . S
C739 C737 1.433 1_655 S
C739 N742 1.384 . S
C740 H731 0.929 . S
C740 C732 1.378 . S
C740 C735 1.350 . S
C741 H728 0.929 . S
C741 C733 1.433 . S
C741 N743 1.384 . S
N742 C738 1.427 . S
N742 C739 1.384 . S
N743 C735 1.427 . S
N743 C741 1.384 . S
H744 C750 0.930 . S
H745 C754 0.930 . S
H746 C759 0.929 . S
H747 C757 0.929 . S
H748 C752 0.929 . S
H749 C758 0.929 . S
C750 H744 0.930 . S
C750 C751 1.367 . S
C750 C758 1.378 . S
C751 C750 1.367 . S
C751 C759 1.433 . S
C752 H748 0.929 . S
C752 C754 1.378 . S
C752 C756 1.350 . S
C753 C756 1.463 . S
C753 C758 1.350 . S
C753 N761 1.427 . S
C754 H745 0.930 . S
C754 C752 1.378 . S
C754 C755 1.367 . S
C755 C754 1.367 . S
C755 C757 1.433 . S
C756 C752 1.350 . S
C756 C753 1.463 . S
C756 N760 1.427 . S
C757 H747 0.929 . S
C757 C755 1.433 . S
C757 N760 1.384 . S
C758 H749 0.929 . S
C758 C750 1.378 . S
C758 C753 1.350 . S
C759 H746 0.929 . S
C759 C751 1.433 . S
C759 N761 1.384 . S
N760 C756 1.427 . S
N760 C757 1.384 . S
N761 C753 1.427 . S
N761 C759 1.384 . S
H762 C768 0.930 . S
H763 C772 0.930 . S
H764 C777 0.929 . S
H765 C775 0.929 . S
H766 C770 0.929 . S
H767 C776 0.929 . S
C768 H762 0.930 . S
C768 C769 1.367 . S
C768 C776 1.378 . S
C769 C768 1.367 . S
C769 C777 1.433 . S
C770 H766 0.929 . S
C770 C772 1.378 . S
C770 C774 1.350 . S
C771 C774 1.463 . S
C771 C776 1.350 . S
C771 N779 1.427 . S
C772 H763 0.930 . S
C772 C770 1.378 . S
C772 C773 1.367 . S
C773 C772 1.367 . S
C773 C775 1.433 . S
C774 C770 1.350 . S
C774 C771 1.463 . S
C774 N778 1.427 . S
C775 H765 0.929 . S
C775 C773 1.433 . S
C775 N778 1.384 . S
C776 H767 0.929 . S
C776 C768 1.378 . S
C776 C771 1.350 . S
C777 H764 0.929 . S
C777 C769 1.433 . S
C777 N779 1.384 . S
N778 C774 1.427 . S
N778 C775 1.384 . S
N779 C771 1.427 . S
N779 C777 1.384 . S
H780 C786 0.930 . S
H781 C790 0.930 . S
H782 C795 0.929 . S
H783 C793 0.929 . S
H784 C788 0.929 . S
H785 C794 0.929 . S
C786 H780 0.930 . S
C786 C787 1.367 . S
C786 C794 1.378 . S
C787 C786 1.367 . S
C787 C795 1.433 . S
C788 H784 0.929 . S
C788 C790 1.378 . S
C788 C792 1.350 1_565 S
C789 C792 1.463 . S
C789 C794 1.350 . S
C789 N797 1.427 . S
C790 H781 0.930 . S
C790 C788 1.378 . S
C790 C791 1.367 . S
C791 C790 1.367 . S
C791 C793 1.433 1_565 S
C792 C788 1.350 1_545 S
C792 C789 1.463 . S
C792 N796 1.427 . S
C793 H783 0.929 . S
C793 C791 1.433 1_545 S
C793 N796 1.384 . S
C794 H785 0.929 . S
C794 C786 1.378 . S
C794 C789 1.350 . S
C795 H782 0.929 . S
C795 C787 1.433 . S
C795 N797 1.384 . S
N796 C792 1.427 . S
N796 C793 1.384 . S
N797 C789 1.427 . S
N797 C795 1.384 . S
H798 C804 0.930 . S
H799 C808 0.930 . S
H800 C813 0.929 . S
H801 C811 0.929 . S
H802 C806 0.929 . S
H803 C812 0.929 . S
C804 H798 0.930 . S
C804 C805 1.367 . S
C804 C812 1.378 . S
C805 C804 1.367 . S
C805 C813 1.433 . S
C806 H802 0.929 . S
C806 C808 1.378 . S
C806 C810 1.350 1_545 S
C807 C810 1.463 . S
C807 C812 1.350 . S
C807 N815 1.427 . S
C808 H799 0.930 . S
C808 C806 1.378 . S
C808 C809 1.367 . S
C809 C808 1.367 . S
C809 C811 1.433 1_545 S
C810 C806 1.350 1_565 S
C810 C807 1.463 . S
C810 N814 1.427 . S
C811 H801 0.929 . S
C811 C809 1.433 1_565 S
C811 N814 1.384 . S
C812 H803 0.929 . S
C812 C804 1.378 . S
C812 C807 1.350 . S
C813 H800 0.929 . S
C813 C805 1.433 . S
C813 N815 1.384 . S
N814 C810 1.427 . S
N814 C811 1.384 . S
N815 C807 1.427 . S
N815 C813 1.384 . S
H816 C822 0.930 . S
H817 C826 0.930 . S
H818 C831 0.929 . S
H819 C829 0.929 . S
H820 C824 0.929 . S
H821 C830 0.929 . S
C822 H816 0.930 . S
C822 C823 1.367 . S
C822 C830 1.378 . S
C823 C822 1.367 . S
C823 C831 1.433 . S
C824 H820 0.929 . S
C824 C826 1.378 . S
C824 C828 1.350 . S
C825 C828 1.463 . S
C825 C830 1.350 . S
C825 N833 1.427 . S
C826 H817 0.930 . S
C826 C824 1.378 . S
C826 C827 1.367 . S
C827 C826 1.367 . S
C827 C829 1.433 . S
C828 C824 1.350 . S
C828 C825 1.463 . S
C828 N832 1.427 . S
C829 H819 0.929 . S
C829 C827 1.433 . S
C829 N832 1.384 . S
C830 H821 0.929 . S
C830 C822 1.378 . S
C830 C825 1.350 . S
C831 H818 0.929 . S
C831 C823 1.433 . S
C831 N833 1.384 . S
N832 C828 1.427 . S
N832 C829 1.384 . S
N833 C825 1.427 . S
N833 C831 1.384 . S
H834 C840 0.930 . S
H835 C844 0.930 1_554 S
H836 C849 0.929 . S
H837 C847 0.929 . S
H838 C842 0.929 . S
H839 C848 0.929 . S
C840 H834 0.930 . S
C840 C841 1.367 . S
C840 C848 1.378 . S
C841 C840 1.367 . S
C841 C849 1.433 . S
C842 H838 0.929 . S
C842 C844 1.379 . S
C842 C846 1.350 . S
C843 C846 1.463 . S
C843 C848 1.350 . S
C843 N851 1.427 . S
C844 H835 0.930 1_556 S
C844 C842 1.379 . S
C844 C845 1.366 1_556 S
C845 C844 1.366 1_554 S
C845 C847 1.433 . S
C846 C842 1.350 . S
C846 C843 1.463 . S
C846 N850 1.427 . S
C847 H837 0.929 . S
C847 C845 1.433 . S
C847 N850 1.384 1_554 S
C848 H839 0.929 . S
C848 C840 1.378 . S
C848 C843 1.350 . S
C849 H836 0.929 . S
C849 C841 1.433 . S
C849 N851 1.384 . S
N850 C846 1.427 . S
N850 C847 1.384 1_556 S
N851 C843 1.427 . S
N851 C849 1.384 . S
H852 C858 0.930 . S
H853 C862 0.930 . S
H854 C867 0.929 . S
H855 C865 0.929 . S
H856 C860 0.929 . S
H857 C866 0.929 . S
C858 H852 0.930 . S
C858 C859 1.367 . S
C858 C866 1.378 . S
C859 C858 1.367 . S
C859 C867 1.433 . S
C860 H856 0.929 . S
C860 C862 1.378 . S
C860 C864 1.350 . S
C861 C864 1.463 . S
C861 C866 1.350 . S
C861 N869 1.427 . S
C862 H853 0.930 . S
C862 C860 1.378 . S
C862 C863 1.367 . S
C863 C862 1.367 . S
C863 C865 1.433 . S
C864 C860 1.350 . S
C864 C861 1.463 . S
C864 N868 1.427 . S
C865 H855 0.929 . S
C865 C863 1.433 . S
C865 N868 1.384 . S
C866 H857 0.929 . S
C866 C858 1.378 . S
C866 C861 1.350 . S
C867 H854 0.929 . S
C867 C859 1.433 . S
C867 N869 1.384 . S
N868 C864 1.427 . S
N868 C865 1.384 . S
N869 C861 1.427 . S
N869 C867 1.384 . S
H870 C876 0.930 . S
H871 C880 0.930 . S
H872 C885 0.929 . S
H873 C883 0.929 . S
H874 C878 0.929 . S
H875 C884 0.929 . S
C876 H870 0.930 . S
C876 C877 1.367 1_554 S
C876 C884 1.378 . S
C877 C876 1.367 1_556 S
C877 C885 1.433 . S
C878 H874 0.929 . S
C878 C880 1.378 . S
C878 C882 1.350 . S
C879 C882 1.463 . S
C879 C884 1.350 . S
C879 N887 1.427 . S
C880 H871 0.930 . S
C880 C878 1.378 . S
C880 C881 1.367 . S
C881 C880 1.367 . S
C881 C883 1.433 . S
C882 C878 1.350 . S
C882 C879 1.463 . S
C882 N886 1.427 . S
C883 H873 0.929 . S
C883 C881 1.433 . S
C883 N886 1.384 . S
C884 H875 0.929 . S
C884 C876 1.378 . S
C884 C879 1.350 . S
C885 H872 0.929 . S
C885 C877 1.433 . S
C885 N887 1.384 1_556 S
N886 C882 1.427 . S
N886 C883 1.384 . S
N887 C879 1.427 . S
N887 C885 1.384 1_554 S
H888 C894 0.930 . S
H889 C898 0.930 . S
H890 C903 0.929 . S
H891 C901 0.929 . S
H892 C896 0.929 . S
H893 C902 0.929 . S
C894 H888 0.930 . S
C894 C895 1.367 . S
C894 C902 1.378 . S
C895 C894 1.367 . S
C895 C903 1.433 . S
C896 H892 0.929 . S
C896 C898 1.378 . S
C896 C900 1.350 . S
C897 C900 1.463 . S
C897 C902 1.350 . S
C897 N905 1.427 . S
C898 H889 0.930 . S
C898 C896 1.378 . S
C898 C899 1.367 . S
C899 C898 1.367 . S
C899 C901 1.433 . S
C900 C896 1.350 . S
C900 C897 1.463 . S
C900 N904 1.427 . S
C901 H891 0.929 . S
C901 C899 1.433 . S
C901 N904 1.384 . S
C902 H893 0.929 . S
C902 C894 1.378 . S
C902 C897 1.350 . S
C903 H890 0.929 . S
C903 C895 1.433 . S
C903 N905 1.384 . S
N904 C900 1.427 . S
N904 C901 1.384 . S
N905 C897 1.427 . S
N905 C903 1.384 . S
H906 C912 0.930 . S
H907 C916 0.930 . S
H908 C921 0.929 . S
H909 C919 0.929 . S
H910 C914 0.929 . S
H911 C920 0.929 . S
C912 H906 0.930 . S
C912 C913 1.367 . S
C912 C920 1.378 1_455 S
C913 C912 1.367 . S
C913 C921 1.433 . S
C914 H910 0.929 . S
C914 C916 1.378 . S
C914 C918 1.350 . S
C915 C918 1.463 . S
C915 C920 1.350 . S
C915 N923 1.427 . S
C916 H907 0.930 . S
C916 C914 1.378 . S
C916 C917 1.367 . S
C917 C916 1.367 . S
C917 C919 1.433 . S
C918 C914 1.350 . S
C918 C915 1.463 . S
C918 N922 1.427 . S
C919 H909 0.929 . S
C919 C917 1.433 . S
C919 N922 1.384 . S
C920 H911 0.929 . S
C920 C912 1.378 1_655 S
C920 C915 1.350 . S
C921 H908 0.929 . S
C921 C913 1.433 . S
C921 N923 1.384 1_455 S
N922 C918 1.427 . S
N922 C919 1.384 . S
N923 C915 1.427 . S
N923 C921 1.384 1_655 S
H924 C930 0.930 . S
H925 C934 0.930 . S
H926 C939 0.929 . S
H927 C937 0.929 . S
H928 C932 0.929 . S
H929 C938 0.929 . S
C930 H924 0.930 . S
C930 C931 1.367 . S
C930 C938 1.378 . S
C931 C930 1.367 . S
C931 C939 1.433 . S
C932 H928 0.929 . S
C932 C934 1.378 . S
C932 C936 1.350 . S
C933 C936 1.463 . S
C933 C938 1.350 . S
C933 N941 1.427 . S
C934 H925 0.930 . S
C934 C932 1.378 . S
C934 C935 1.367 . S
C935 C934 1.367 . S
C935 C937 1.433 . S
C936 C932 1.350 . S
C936 C933 1.463 . S
C936 N940 1.427 . S
C937 H927 0.929 . S
C937 C935 1.433 . S
C937 N940 1.384 . S
C938 H929 0.929 . S
C938 C930 1.378 . S
C938 C933 1.350 . S
C939 H926 0.929 . S
C939 C931 1.433 . S
C939 N941 1.384 . S
N940 C936 1.427 . S
N940 C937 1.384 . S
N941 C933 1.427 . S
N941 C939 1.384 . S
H942 C948 0.930 . S
H943 C952 0.930 . S
H944 C957 0.929 . S
H945 C955 0.929 . S
H946 C950 0.928 1_655 S
H947 C956 0.929 . S
C948 H942 0.930 . S
C948 C949 1.367 . S
C948 C956 1.378 . S
C949 C948 1.367 . S
C949 C957 1.433 . S
C950 H946 0.928 1_455 S
C950 C952 1.370 1_455 S
C950 C954 1.359 . S
C951 C954 1.463 . S
C951 C956 1.350 . S
C951 N959 1.427 . S
C952 H943 0.930 . S
C952 C950 1.370 1_655 S
C952 C953 1.367 . S
C953 C952 1.367 . S
C953 C955 1.433 1_655 S
C954 C950 1.359 . S
C954 C951 1.463 . S
C954 N958 1.427 . S
C955 H945 0.929 . S
C955 C953 1.433 1_455 S
C955 N958 1.384 . S
C956 H947 0.929 . S
C956 C948 1.378 . S
C956 C951 1.350 . S
C957 H944 0.929 . S
C957 C949 1.433 . S
C957 N959 1.384 . S
N958 C954 1.427 . S
N958 C955 1.384 . S
N959 C951 1.427 . S
N959 C957 1.384 . S
H960 C966 0.930 . S
H961 C970 0.930 . S
H962 C975 0.929 1_556 S
H963 C973 0.929 . S
H964 C968 0.929 . S
H965 C974 0.929 . S
C966 H960 0.930 . S
C966 C967 1.367 1_554 S
C966 C974 1.378 . S
C967 C966 1.367 1_556 S
C967 C975 1.433 1_556 S
C968 H964 0.929 . S
C968 C970 1.378 . S
C968 C972 1.350 . S
C969 C972 1.463 . S
C969 C974 1.350 . S
C969 N977 1.427 . S
C970 H961 0.930 . S
C970 C968 1.378 . S
C970 C971 1.367 . S
C971 C970 1.367 . S
C971 C973 1.433 . S
C972 C968 1.350 . S
C972 C969 1.463 . S
C972 N976 1.427 . S
C973 H963 0.929 . S
C973 C971 1.433 . S
C973 N976 1.384 . S
C974 H965 0.929 . S
C974 C966 1.378 . S
C974 C969 1.350 . S
C975 H962 0.929 1_554 S
C975 C967 1.433 1_554 S
C975 N977 1.384 . S
N976 C972 1.427 . S
N976 C973 1.384 . S
N977 C969 1.427 . S
N977 C975 1.384 . S
H978 C984 0.930 . S
H979 C988 0.930 . S
H980 C993 0.929 . S
H981 C991 0.929 . S
H982 C986 0.929 . S
H983 C992 0.929 . S
C984 H978 0.930 . S
C984 C985 1.367 . S
C984 C992 1.378 . S
C985 C984 1.367 . S
C985 C993 1.433 . S
C986 H982 0.929 . S
C986 C988 1.378 . S
C986 C990 1.350 . S
C987 C990 1.463 . S
C987 C992 1.350 . S
C987 N995 1.427 . S
C988 H979 0.930 . S
C988 C986 1.378 . S
C988 C989 1.367 . S
C989 C988 1.367 . S
C989 C991 1.433 . S
C990 C986 1.350 . S
C990 C987 1.463 . S
C990 N994 1.427 . S
C991 H981 0.929 . S
C991 C989 1.433 . S
C991 N994 1.384 . S
C992 H983 0.929 . S
C992 C984 1.378 . S
C992 C987 1.350 . S
C993 H980 0.929 . S
C993 C985 1.433 . S
C993 N995 1.384 . S
N994 C990 1.427 . S
N994 C991 1.384 . S
N995 C987 1.427 . S
N995 C993 1.384 . S
H996 C1002 0.930 . S
H997 C1006 0.930 . S
H998 C1011 0.929 1_554 S
H999 C1009 0.929 . S
H1000 C1004 0.929 . S
H1001 C1010 0.929 . S
C1002 H996 0.930 . S
C1002 C1003 1.367 1_556 S
C1002 C1010 1.378 . S
C1003 C1002 1.367 1_554 S
C1003 C1011 1.433 1_554 S
C1004 H1000 0.929 . S
C1004 C1006 1.378 . S
C1004 C1008 1.350 . S
C1005 C1008 1.463 . S
C1005 C1010 1.350 . S
C1005 N1013 1.427 . S
C1006 H997 0.930 . S
C1006 C1004 1.378 . S
C1006 C1007 1.367 . S
C1007 C1006 1.367 . S
C1007 C1009 1.433 . S
C1008 C1004 1.350 . S
C1008 C1005 1.463 . S
C1008 N1012 1.427 . S
C1009 H999 0.929 . S
C1009 C1007 1.433 . S
C1009 N1012 1.384 . S
C1010 H1001 0.929 . S
C1010 C1002 1.378 . S
C1010 C1005 1.350 . S
C1011 H998 0.929 1_556 S
C1011 C1003 1.433 1_556 S
C1011 N1013 1.384 . S
N1012 C1008 1.427 . S
N1012 C1009 1.384 . S
N1013 C1005 1.427 . S
N1013 C1011 1.384 . S
H1014 C1020 0.930 . S
H1015 C1024 0.930 . S
H1016 C1029 0.929 . S
H1017 C1027 0.929 . S
H1018 C1022 0.929 . S
H1019 C1028 0.929 . S
C1020 H1014 0.930 . S
C1020 C1021 1.367 . S
C1020 C1028 1.378 . S
C1021 C1020 1.367 . S
C1021 C1029 1.433 . S
C1022 H1018 0.929 . S
C1022 C1024 1.378 . S
C1022 C1026 1.350 . S
C1023 C1026 1.463 . S
C1023 C1028 1.350 . S
C1023 N1031 1.427 . S
C1024 H1015 0.930 . S
C1024 C1022 1.378 . S
C1024 C1025 1.367 . S
C1025 C1024 1.367 . S
C1025 C1027 1.433 . S
C1026 C1022 1.350 . S
C1026 C1023 1.463 . S
C1026 N1030 1.427 . S
C1027 H1017 0.929 . S
C1027 C1025 1.433 . S
C1027 N1030 1.384 . S
C1028 H1019 0.929 . S
C1028 C1020 1.378 . S
C1028 C1023 1.350 . S
C1029 H1016 0.929 . S
C1029 C1021 1.433 . S
C1029 N1031 1.384 . S
N1030 C1026 1.427 . S
N1030 C1027 1.384 . S
N1031 C1023 1.427 . S
N1031 C1029 1.384 . S
H1032 C1038 0.930 . S
H1033 C1042 0.930 . S
H1034 C1047 0.929 . S
H1035 C1045 0.929 1_655 S
H1036 C1040 0.929 . S
H1037 C1046 0.929 . S
C1038 H1032 0.930 . S
C1038 C1039 1.367 . S
C1038 C1046 1.378 . S
C1039 C1038 1.367 . S
C1039 C1047 1.433 . S
C1040 H1036 0.929 . S
C1040 C1042 1.378 . S
C1040 C1044 1.350 . S
C1041 C1044 1.463 . S
C1041 C1046 1.350 . S
C1041 N1049 1.427 . S
C1042 H1033 0.930 . S
C1042 C1040 1.378 . S
C1042 C1043 1.367 1_455 S
C1043 C1042 1.367 1_655 S
C1043 C1045 1.433 1_655 S
C1044 C1040 1.350 . S
C1044 C1041 1.463 . S
C1044 N1048 1.427 . S
C1045 H1035 0.929 1_455 S
C1045 C1043 1.433 1_455 S
C1045 N1048 1.384 . S
C1046 H1037 0.929 . S
C1046 C1038 1.378 . S
C1046 C1041 1.350 . S
C1047 H1034 0.929 . S
C1047 C1039 1.433 . S
C1047 N1049 1.384 . S
N1048 C1044 1.427 . S
N1048 C1045 1.384 . S
N1049 C1041 1.427 . S
N1049 C1047 1.384 . S
H1050 C1056 0.930 . S
H1051 C1060 0.930 . S
H1052 C1065 0.929 . S
H1053 C1063 0.929 . S
H1054 C1058 0.929 . S
H1055 C1064 0.929 . S
C1056 H1050 0.930 . S
C1056 C1057 1.367 . S
C1056 C1064 1.378 . S
C1057 C1056 1.367 . S
C1057 C1065 1.433 . S
C1058 H1054 0.929 . S
C1058 C1060 1.378 . S
C1058 C1062 1.350 . S
C1059 C1062 1.463 . S
C1059 C1064 1.350 . S
C1059 N1067 1.427 . S
C1060 H1051 0.930 . S
C1060 C1058 1.378 . S
C1060 C1061 1.367 . S
C1061 C1060 1.367 . S
C1061 C1063 1.433 . S
C1062 C1058 1.350 . S
C1062 C1059 1.463 . S
C1062 N1066 1.427 . S
C1063 H1053 0.929 . S
C1063 C1061 1.433 . S
C1063 N1066 1.384 . S
C1064 H1055 0.929 . S
C1064 C1056 1.378 . S
C1064 C1059 1.350 . S
C1065 H1052 0.929 . S
C1065 C1057 1.433 . S
C1065 N1067 1.384 . S
N1066 C1062 1.427 . S
N1066 C1063 1.384 . S
N1067 C1059 1.427 . S
N1067 C1065 1.384 . S
H1068 C1074 0.930 . S
H1069 C1078 0.930 . S
H1070 C1083 0.929 . S
H1071 C1081 0.929 . S
H1072 C1076 0.929 . S
H1073 C1082 0.929 . S
C1074 H1068 0.930 . S
C1074 C1075 1.367 . S
C1074 C1082 1.378 . S
C1075 C1074 1.367 . S
C1075 C1083 1.433 . S
C1076 H1072 0.929 . S
C1076 C1078 1.378 . S
C1076 C1080 1.350 . S
C1077 C1080 1.463 . S
C1077 C1082 1.350 . S
C1077 N1085 1.427 . S
C1078 H1069 0.930 . S
C1078 C1076 1.378 . S
C1078 C1079 1.367 . S
C1079 C1078 1.367 . S
C1079 C1081 1.433 . S
C1080 C1076 1.350 . S
C1080 C1077 1.463 . S
C1080 N1084 1.427 . S
C1081 H1071 0.929 . S
C1081 C1079 1.433 . S
C1081 N1084 1.384 . S
C1082 H1073 0.929 . S
C1082 C1074 1.378 . S
C1082 C1077 1.350 . S
C1083 H1070 0.929 . S
C1083 C1075 1.433 . S
C1083 N1085 1.384 . S
N1084 C1080 1.427 . S
N1084 C1081 1.384 . S
N1085 C1077 1.427 . S
N1085 C1083 1.384 . S
H1086 C1092 0.930 . S
H1087 C1096 0.930 . S
H1088 C1101 0.929 1_455 S
H1089 C1099 0.929 . S
H1090 C1094 0.929 . S
H1091 C1100 0.929 . S
C1092 H1086 0.930 . S
C1092 C1093 1.367 1_655 S
C1092 C1100 1.378 . S
C1093 C1092 1.367 1_455 S
C1093 C1101 1.433 1_455 S
C1094 H1090 0.929 . S
C1094 C1096 1.378 . S
C1094 C1098 1.350 . S
C1095 C1098 1.463 . S
C1095 C1100 1.350 . S
C1095 N1103 1.427 . S
C1096 H1087 0.930 . S
C1096 C1094 1.378 . S
C1096 C1097 1.367 . S
C1097 C1096 1.367 . S
C1097 C1099 1.433 . S
C1098 C1094 1.350 . S
C1098 C1095 1.463 . S
C1098 N1102 1.427 . S
C1099 H1089 0.929 . S
C1099 C1097 1.433 . S
C1099 N1102 1.384 . S
C1100 H1091 0.929 . S
C1100 C1092 1.378 . S
C1100 C1095 1.350 . S
C1101 H1088 0.929 1_655 S
C1101 C1093 1.433 1_655 S
C1101 N1103 1.384 . S
N1102 C1098 1.427 . S
N1102 C1099 1.384 . S
N1103 C1095 1.427 . S
N1103 C1101 1.384 . S
H1104 C1110 0.930 . S
H1105 C1114 0.930 . S
H1106 C1119 0.929 1_565 S
H1107 C1117 0.929 . S
H1108 C1112 0.929 . S
H1109 C1118 0.929 . S
C1110 H1104 0.930 . S
C1110 C1111 1.367 1_545 S
C1110 C1118 1.378 . S
C1111 C1110 1.367 1_565 S
C1111 C1119 1.433 1_565 S
C1112 H1108 0.929 . S
C1112 C1114 1.378 . S
C1112 C1116 1.350 . S
C1113 C1116 1.463 . S
C1113 C1118 1.350 . S
C1113 N1121 1.427 . S
C1114 H1105 0.930 . S
C1114 C1112 1.378 . S
C1114 C1115 1.367 . S
C1115 C1114 1.367 . S
C1115 C1117 1.433 . S
C1116 C1112 1.350 . S
C1116 C1113 1.463 . S
C1116 N1120 1.427 . S
C1117 H1107 0.929 . S
C1117 C1115 1.433 . S
C1117 N1120 1.384 . S
C1118 H1109 0.929 . S
C1118 C1110 1.378 . S
C1118 C1113 1.350 . S
C1119 H1106 0.929 1_545 S
C1119 C1111 1.433 1_545 S
C1119 N1121 1.384 . S
N1120 C1116 1.427 . S
N1120 C1117 1.384 . S
N1121 C1113 1.427 . S
N1121 C1119 1.384 . S
H1122 C1128 0.930 . S
H1123 C1132 0.930 . S
H1124 C1137 0.929 . S
H1125 C1135 0.929 . S
H1126 C1130 0.929 . S
H1127 C1136 0.929 . S
C1128 H1122 0.930 . S
C1128 C1129 1.367 . S
C1128 C1136 1.378 . S
C1129 C1128 1.367 . S
C1129 C1137 1.433 . S
C1130 H1126 0.929 . S
C1130 C1132 1.378 . S
C1130 C1134 1.350 . S
C1131 C1134 1.463 . S
C1131 C1136 1.350 . S
C1131 N1139 1.427 . S
C1132 H1123 0.930 . S
C1132 C1130 1.378 . S
C1132 C1133 1.367 . S
C1133 C1132 1.367 . S
C1133 C1135 1.433 . S
C1134 C1130 1.350 . S
C1134 C1131 1.463 . S
C1134 N1138 1.427 . S
C1135 H1125 0.929 . S
C1135 C1133 1.433 . S
C1135 N1138 1.384 . S
C1136 H1127 0.929 . S
C1136 C1128 1.378 . S
C1136 C1131 1.350 . S
C1137 H1124 0.929 . S
C1137 C1129 1.433 . S
C1137 N1139 1.384 . S
N1138 C1134 1.427 . S
N1138 C1135 1.384 . S
N1139 C1131 1.427 . S
N1139 C1137 1.384 . S
H1140 C1146 0.930 . S
H1141 C1150 0.930 . S
H1142 C1155 0.929 . S
H1143 C1153 0.929 . S
H1144 C1148 0.929 . S
H1145 C1154 0.929 . S
C1146 H1140 0.930 . S
C1146 C1147 1.367 . S
C1146 C1154 1.378 . S
C1147 C1146 1.367 . S
C1147 C1155 1.433 . S
C1148 H1144 0.929 . S
C1148 C1150 1.378 . S
C1148 C1152 1.350 . S
C1149 C1152 1.463 . S
C1149 C1154 1.350 . S
C1149 N1157 1.427 . S
C1150 H1141 0.930 . S
C1150 C1148 1.378 . S
C1150 C1151 1.367 . S
C1151 C1150 1.367 . S
C1151 C1153 1.433 . S
C1152 C1148 1.350 . S
C1152 C1149 1.463 . S
C1152 N1156 1.427 . S
C1153 H1143 0.929 . S
C1153 C1151 1.433 . S
C1153 N1156 1.384 . S
C1154 H1145 0.929 . S
C1154 C1146 1.378 . S
C1154 C1149 1.350 . S
C1155 H1142 0.929 . S
C1155 C1147 1.433 . S
C1155 N1157 1.384 . S
N1156 C1152 1.427 . S
N1156 C1153 1.384 . S
N1157 C1149 1.427 . S
N1157 C1155 1.384 . S
H1158 C1164 0.930 . S
H1159 C1168 0.930 . S
H1160 C1173 0.929 1_545 S
H1161 C1171 0.929 . S
H1162 C1166 0.929 . S
H1163 C1172 0.929 . S
C1164 H1158 0.930 . S
C1164 C1165 1.367 1_565 S
C1164 C1172 1.378 . S
C1165 C1164 1.367 1_545 S
C1165 C1173 1.433 1_545 S
C1166 H1162 0.929 . S
C1166 C1168 1.378 . S
C1166 C1170 1.350 . S
C1167 C1170 1.463 . S
C1167 C1172 1.350 . S
C1167 N1175 1.427 . S
C1168 H1159 0.930 . S
C1168 C1166 1.378 . S
C1168 C1169 1.367 . S
C1169 C1168 1.367 . S
C1169 C1171 1.433 . S
C1170 C1166 1.350 . S
C1170 C1167 1.463 . S
C1170 N1174 1.427 . S
C1171 H1161 0.929 . S
C1171 C1169 1.433 . S
C1171 N1174 1.384 . S
C1172 H1163 0.929 . S
C1172 C1164 1.378 . S
C1172 C1167 1.350 . S
C1173 H1160 0.929 1_565 S
C1173 C1165 1.433 1_565 S
C1173 N1175 1.384 . S
N1174 C1170 1.427 . S
N1174 C1171 1.384 . S
N1175 C1167 1.427 . S
N1175 C1173 1.384 . S
H1176 C1182 0.930 . S
H1177 C1186 0.930 . S
H1178 C1191 0.929 . S
H1179 C1189 0.929 1_554 S
H1180 C1184 0.929 . S
H1181 C1190 0.929 . S
C1182 H1176 0.930 . S
C1182 C1183 1.367 . S
C1182 C1190 1.378 . S
C1183 C1182 1.367 . S
C1183 C1191 1.433 . S
C1184 H1180 0.929 . S
C1184 C1186 1.378 . S
C1184 C1188 1.350 . S
C1185 C1188 1.463 . S
C1185 C1190 1.350 . S
C1185 N1193 1.427 . S
C1186 H1177 0.930 . S
C1186 C1184 1.378 . S
C1186 C1187 1.367 1_556 S
C1187 C1186 1.367 1_554 S
C1187 C1189 1.433 1_554 S
C1188 C1184 1.350 . S
C1188 C1185 1.463 . S
C1188 N1192 1.427 . S
C1189 H1179 0.929 1_556 S
C1189 C1187 1.433 1_556 S
C1189 N1192 1.384 . S
C1190 H1181 0.929 . S
C1190 C1182 1.378 . S
C1190 C1185 1.350 . S
C1191 H1178 0.929 . S
C1191 C1183 1.433 . S
C1191 N1193 1.384 . S
N1192 C1188 1.427 . S
N1192 C1189 1.384 . S
N1193 C1185 1.427 . S
N1193 C1191 1.384 . S
H1194 C1200 0.930 . S
H1195 C1204 0.930 . S
H1196 C1209 0.929 . S
H1197 C1207 0.929 . S
H1198 C1202 0.929 . S
H1199 C1208 0.929 . S
C1200 H1194 0.930 . S
C1200 C1201 1.367 . S
C1200 C1208 1.378 . S
C1201 C1200 1.367 . S
C1201 C1209 1.433 . S
C1202 H1198 0.929 . S
C1202 C1204 1.378 . S
C1202 C1206 1.350 . S
C1203 C1206 1.463 . S
C1203 C1208 1.350 . S
C1203 N1211 1.427 . S
C1204 H1195 0.930 . S
C1204 C1202 1.378 . S
C1204 C1205 1.367 . S
C1205 C1204 1.367 . S
C1205 C1207 1.433 . S
C1206 C1202 1.350 . S
C1206 C1203 1.463 . S
C1206 N1210 1.427 . S
C1207 H1197 0.929 . S
C1207 C1205 1.433 . S
C1207 N1210 1.384 . S
C1208 H1199 0.929 . S
C1208 C1200 1.378 . S
C1208 C1203 1.350 . S
C1209 H1196 0.929 . S
C1209 C1201 1.433 . S
C1209 N1211 1.384 . S
N1210 C1206 1.427 . S
N1210 C1207 1.384 . S
N1211 C1203 1.427 . S
N1211 C1209 1.384 . S
H1212 C1218 0.930 . S
H1213 C1222 0.930 1_556 S
H1214 C1227 0.929 . S
H1215 C1225 0.929 . S
H1216 C1220 0.929 . S
H1217 C1226 0.929 . S
C1218 H1212 0.930 . S
C1218 C1219 1.367 . S
C1218 C1226 1.378 . S
C1219 C1218 1.367 . S
C1219 C1227 1.433 . S
C1220 H1216 0.929 . S
C1220 C1222 1.378 . S
C1220 C1224 1.350 . S
C1221 C1224 1.463 . S
C1221 C1226 1.350 . S
C1221 N1229 1.427 . S
C1222 H1213 0.930 1_554 S
C1222 C1220 1.378 . S
C1222 C1223 1.367 1_554 S
C1223 C1222 1.367 1_556 S
C1223 C1225 1.433 1_556 S
C1224 C1220 1.350 . S
C1224 C1221 1.463 . S
C1224 N1228 1.427 . S
C1225 H1215 0.929 . S
C1225 C1223 1.433 1_554 S
C1225 N1228 1.384 . S
C1226 H1217 0.929 . S
C1226 C1218 1.378 . S
C1226 C1221 1.350 . S
C1227 H1214 0.929 . S
C1227 C1219 1.433 . S
C1227 N1229 1.384 . S
N1228 C1224 1.427 . S
N1228 C1225 1.384 . S
N1229 C1221 1.427 . S
N1229 C1227 1.384 . S
H1230 C1236 0.930 . S
H1231 C1240 0.930 . S
H1232 C1245 0.929 . S
H1233 C1243 0.929 . S
H1234 C1238 0.929 . S
H1235 C1244 0.929 . S
C1236 H1230 0.930 . S
C1236 C1237 1.367 . S
C1236 C1244 1.378 . S
C1237 C1236 1.367 . S
C1237 C1245 1.433 . S
C1238 H1234 0.929 . S
C1238 C1240 1.378 . S
C1238 C1242 1.350 . S
C1239 C1242 1.463 . S
C1239 C1244 1.350 . S
C1239 N1247 1.427 . S
C1240 H1231 0.930 . S
C1240 C1238 1.378 . S
C1240 C1241 1.367 . S
C1241 C1240 1.367 . S
C1241 C1243 1.433 . S
C1242 C1238 1.350 . S
C1242 C1239 1.463 . S
C1242 N1246 1.427 . S
C1243 H1233 0.929 . S
C1243 C1241 1.433 . S
C1243 N1246 1.384 . S
C1244 H1235 0.929 . S
C1244 C1236 1.378 . S
C1244 C1239 1.350 . S
C1245 H1232 0.929 . S
C1245 C1237 1.433 . S
C1245 N1247 1.384 . S
N1246 C1242 1.427 . S
N1246 C1243 1.384 . S
N1247 C1239 1.427 . S
N1247 C1245 1.384 . S
H1248 C1254 0.930 1_455 S
H1249 C1258 0.930 . S
H1250 C1263 0.929 . S
H1251 C1261 0.929 . S
H1252 C1256 0.929 . S
H1253 C1262 0.929 . S
C1254 H1248 0.930 1_655 S
C1254 C1255 1.367 1_655 S
C1254 C1262 1.378 . S
C1255 C1254 1.367 1_455 S
C1255 C1263 1.433 1_455 S
C1256 H1252 0.929 . S
C1256 C1258 1.378 . S
C1256 C1260 1.350 . S
C1257 C1260 1.463 . S
C1257 C1262 1.350 . S
C1257 N1265 1.427 . S
C1258 H1249 0.930 . S
C1258 C1256 1.378 . S
C1258 C1259 1.367 . S
C1259 C1258 1.367 . S
C1259 C1261 1.433 . S
C1260 C1256 1.350 . S
C1260 C1257 1.463 . S
C1260 N1264 1.427 . S
C1261 H1251 0.929 . S
C1261 C1259 1.433 . S
C1261 N1264 1.384 . S
C1262 H1253 0.929 . S
C1262 C1254 1.378 . S
C1262 C1257 1.350 . S
C1263 H1250 0.929 . S
C1263 C1255 1.433 1_655 S
C1263 N1265 1.384 . S
N1264 C1260 1.427 . S
N1264 C1261 1.384 . S
N1265 C1257 1.427 . S
N1265 C1263 1.384 . S
H1266 C1272 0.930 . S
H1267 C1276 0.930 . S
H1268 C1281 0.929 . S
H1269 C1279 0.929 . S
H1270 C1274 0.929 . S
H1271 C1280 0.929 . S
C1272 H1266 0.930 . S
C1272 C1273 1.367 . S
C1272 C1280 1.378 . S
C1273 C1272 1.367 . S
C1273 C1281 1.433 . S
C1274 H1270 0.929 . S
C1274 C1276 1.378 . S
C1274 C1278 1.350 . S
C1275 C1278 1.463 . S
C1275 C1280 1.350 . S
C1275 N1283 1.427 . S
C1276 H1267 0.930 . S
C1276 C1274 1.378 . S
C1276 C1277 1.367 . S
C1277 C1276 1.367 . S
C1277 C1279 1.433 . S
C1278 C1274 1.350 . S
C1278 C1275 1.463 . S
C1278 N1282 1.427 . S
C1279 H1269 0.929 . S
C1279 C1277 1.433 . S
C1279 N1282 1.384 . S
C1280 H1271 0.929 . S
C1280 C1272 1.378 . S
C1280 C1275 1.350 . S
C1281 H1268 0.929 . S
C1281 C1273 1.433 . S
C1281 N1283 1.384 . S
N1282 C1278 1.427 . S
N1282 C1279 1.384 . S
N1283 C1275 1.427 . S
N1283 C1281 1.384 . S
H1284 C1290 0.930 . S
H1285 C1294 0.930 . S
H1286 C1299 0.929 . S
H1287 C1297 0.929 . S
H1288 C1292 0.929 . S
H1289 C1298 0.929 . S
C1290 H1284 0.930 . S
C1290 C1291 1.367 . S
C1290 C1298 1.378 . S
C1291 C1290 1.367 . S
C1291 C1299 1.433 . S
C1292 H1288 0.929 . S
C1292 C1294 1.378 . S
C1292 C1296 1.350 . S
C1293 C1296 1.463 . S
C1293 C1298 1.350 . S
C1293 N1301 1.427 . S
C1294 H1285 0.930 . S
C1294 C1292 1.378 . S
C1294 C1295 1.367 . S
C1295 C1294 1.367 . S
C1295 C1297 1.433 . S
C1296 C1292 1.350 . S
C1296 C1293 1.463 . S
C1296 N1300 1.427 . S
C1297 H1287 0.929 . S
C1297 C1295 1.433 . S
C1297 N1300 1.384 . S
C1298 H1289 0.929 . S
C1298 C1290 1.378 . S
C1298 C1293 1.350 . S
C1299 H1286 0.929 . S
C1299 C1291 1.433 . S
C1299 N1301 1.384 . S
N1300 C1296 1.427 . S
N1300 C1297 1.384 . S
N1301 C1293 1.427 . S
N1301 C1299 1.384 . S
H1302 C1308 0.930 . S
H1303 C1312 0.930 1_655 S
H1304 C1317 0.929 . S
H1305 C1315 0.929 . S
H1306 C1310 0.929 . S
H1307 C1316 0.929 . S
C1308 H1302 0.930 . S
C1308 C1309 1.367 . S
C1308 C1316 1.378 . S
C1309 C1308 1.367 . S
C1309 C1317 1.433 . S
C1310 H1306 0.929 . S
C1310 C1312 1.378 . S
C1310 C1314 1.350 . S
C1311 C1314 1.463 . S
C1311 C1316 1.350 . S
C1311 N1319 1.427 . S
C1312 H1303 0.930 1_455 S
C1312 C1310 1.378 . S
C1312 C1313 1.367 1_455 S
C1313 C1312 1.367 1_655 S
C1313 C1315 1.433 1_655 S
C1314 C1310 1.350 . S
C1314 C1311 1.463 . S
C1314 N1318 1.427 . S
C1315 H1305 0.929 . S
C1315 C1313 1.433 1_455 S
C1315 N1318 1.384 . S
C1316 H1307 0.929 . S
C1316 C1308 1.378 . S
C1316 C1311 1.350 . S
C1317 H1304 0.929 . S
C1317 C1309 1.433 . S
C1317 N1319 1.384 . S
N1318 C1314 1.427 . S
N1318 C1315 1.384 . S
N1319 C1311 1.427 . S
N1319 C1317 1.384 . S
H1320 C1326 0.930 . S
H1321 C1330 0.930 . S
H1322 C1335 0.929 1_545 S
H1323 C1333 0.929 . S
H1324 C1328 0.929 . S
H1325 C1334 0.929 . S
C1326 H1320 0.930 . S
C1326 C1327 1.367 1_565 S
C1326 C1334 1.378 . S
C1327 C1326 1.367 1_545 S
C1327 C1335 1.433 1_545 S
C1328 H1324 0.929 . S
C1328 C1330 1.378 . S
C1328 C1332 1.350 . S
C1329 C1332 1.463 . S
C1329 C1334 1.350 . S
C1329 N1337 1.427 . S
C1330 H1321 0.930 . S
C1330 C1328 1.378 . S
C1330 C1331 1.367 . S
C1331 C1330 1.367 . S
C1331 C1333 1.433 . S
C1332 C1328 1.350 . S
C1332 C1329 1.463 . S
C1332 N1336 1.427 . S
C1333 H1323 0.929 . S
C1333 C1331 1.433 . S
C1333 N1336 1.384 . S
C1334 H1325 0.929 . S
C1334 C1326 1.378 . S
C1334 C1329 1.350 . S
C1335 H1322 0.929 1_565 S
C1335 C1327 1.433 1_565 S
C1335 N1337 1.384 . S
N1336 C1332 1.427 . S
N1336 C1333 1.384 . S
N1337 C1329 1.427 . S
N1337 C1335 1.384 . S
H1338 C1344 0.930 . S
H1339 C1348 0.930 . S
H1340 C1353 0.929 . S
H1341 C1351 0.929 . S
H1342 C1346 0.929 . S
H1343 C1352 0.929 . S
C1344 H1338 0.930 . S
C1344 C1345 1.367 . S
C1344 C1352 1.378 . S
C1345 C1344 1.367 . S
C1345 C1353 1.433 . S
C1346 H1342 0.929 . S
C1346 C1348 1.378 . S
C1346 C1350 1.350 . S
C1347 C1350 1.463 . S
C1347 C1352 1.350 . S
C1347 N1355 1.427 . S
C1348 H1339 0.930 . S
C1348 C1346 1.378 . S
C1348 C1349 1.367 . S
C1349 C1348 1.367 . S
C1349 C1351 1.433 . S
C1350 C1346 1.350 . S
C1350 C1347 1.463 . S
C1350 N1354 1.427 . S
C1351 H1341 0.929 . S
C1351 C1349 1.433 . S
C1351 N1354 1.384 . S
C1352 H1343 0.929 . S
C1352 C1344 1.378 . S
C1352 C1347 1.350 . S
C1353 H1340 0.929 . S
C1353 C1345 1.433 . S
C1353 N1355 1.384 . S
N1354 C1350 1.427 . S
N1354 C1351 1.384 . S
N1355 C1347 1.427 . S
N1355 C1353 1.384 . S
H1356 C1362 0.930 . S
H1357 C1366 0.930 . S
H1358 C1371 0.929 . S
H1359 C1369 0.929 . S
H1360 C1364 0.929 . S
H1361 C1370 0.929 . S
C1362 H1356 0.930 . S
C1362 C1363 1.367 . S
C1362 C1370 1.378 . S
C1363 C1362 1.367 . S
C1363 C1371 1.433 . S
C1364 H1360 0.929 . S
C1364 C1366 1.378 . S
C1364 C1368 1.350 . S
C1365 C1368 1.463 . S
C1365 C1370 1.350 . S
C1365 N1373 1.427 . S
C1366 H1357 0.930 . S
C1366 C1364 1.378 . S
C1366 C1367 1.367 . S
C1367 C1366 1.367 . S
C1367 C1369 1.433 . S
C1368 C1364 1.350 . S
C1368 C1365 1.463 . S
C1368 N1372 1.427 . S
C1369 H1359 0.929 . S
C1369 C1367 1.433 . S
C1369 N1372 1.384 . S
C1370 H1361 0.929 . S
C1370 C1362 1.378 . S
C1370 C1365 1.350 . S
C1371 H1358 0.929 . S
C1371 C1363 1.433 . S
C1371 N1373 1.384 . S
N1372 C1368 1.427 . S
N1372 C1369 1.384 . S
N1373 C1365 1.427 . S
N1373 C1371 1.384 . S
H1374 C1380 0.930 . S
H1375 C1384 0.930 1_565 S
H1376 C1389 0.929 . S
H1377 C1387 0.929 . S
H1378 C1382 0.929 . S
H1379 C1388 0.929 . S
C1380 H1374 0.930 . S
C1380 C1381 1.367 . S
C1380 C1388 1.378 . S
C1381 C1380 1.367 . S
C1381 C1389 1.433 . S
C1382 H1378 0.929 . S
C1382 C1384 1.378 . S
C1382 C1386 1.350 . S
C1383 C1386 1.463 . S
C1383 C1388 1.350 . S
C1383 N1391 1.427 . S
C1384 H1375 0.930 1_545 S
C1384 C1382 1.378 . S
C1384 C1385 1.367 1_545 S
C1385 C1384 1.367 1_565 S
C1385 C1387 1.433 1_565 S
C1386 C1382 1.350 . S
C1386 C1383 1.463 . S
C1386 N1390 1.427 . S
C1387 H1377 0.929 . S
C1387 C1385 1.433 1_545 S
C1387 N1390 1.384 . S
C1388 H1379 0.929 . S
C1388 C1380 1.378 . S
C1388 C1383 1.350 . S
C1389 H1376 0.929 . S
C1389 C1381 1.433 . S
C1389 N1391 1.384 . S
N1390 C1386 1.427 . S
N1390 C1387 1.384 . S
N1391 C1383 1.427 . S
N1391 C1389 1.384 . S
H1392 C1398 0.930 . S
H1393 C1402 0.930 . S
H1394 C1407 0.929 . S
H1395 C1405 0.929 . S
H1396 C1400 0.929 . S
H1397 C1406 0.929 . S
C1398 H1392 0.930 . S
C1398 C1399 1.367 . S
C1398 C1406 1.378 . S
C1399 C1398 1.367 . S
C1399 C1407 1.433 . S
C1400 H1396 0.929 . S
C1400 C1402 1.378 . S
C1400 C1404 1.350 . S
C1401 C1404 1.463 . S
C1401 C1406 1.350 . S
C1401 N1409 1.427 . S
C1402 H1393 0.930 . S
C1402 C1400 1.378 . S
C1402 C1403 1.367 . S
C1403 C1402 1.367 . S
C1403 C1405 1.433 . S
C1404 C1400 1.350 . S
C1404 C1401 1.463 . S
C1404 N1408 1.427 . S
C1405 H1395 0.929 . S
C1405 C1403 1.433 . S
C1405 N1408 1.384 . S
C1406 H1397 0.929 . S
C1406 C1398 1.378 . S
C1406 C1401 1.350 . S
C1407 H1394 0.929 . S
C1407 C1399 1.433 . S
C1407 N1409 1.384 . S
N1408 C1404 1.427 . S
N1408 C1405 1.384 . S
N1409 C1401 1.427 . S
N1409 C1407 1.384 . S
H1410 C1416 0.930 . S
H1411 C1420 0.930 . S
H1412 C1425 0.929 . S
H1413 C1423 0.929 . S
H1414 C1418 0.929 . S
H1415 C1424 0.929 . S
C1416 H1410 0.930 . S
C1416 C1417 1.367 . S
C1416 C1424 1.378 . S
C1417 C1416 1.367 . S
C1417 C1425 1.433 . S
C1418 H1414 0.929 . S
C1418 C1420 1.378 . S
C1418 C1422 1.350 . S
C1419 C1422 1.463 . S
C1419 C1424 1.350 . S
C1419 N1427 1.427 . S
C1420 H1411 0.930 . S
C1420 C1418 1.378 . S
C1420 C1421 1.367 . S
C1421 C1420 1.367 . S
C1421 C1423 1.433 . S
C1422 C1418 1.350 . S
C1422 C1419 1.463 . S
C1422 N1426 1.427 . S
C1423 H1413 0.929 . S
C1423 C1421 1.433 . S
C1423 N1426 1.384 . S
C1424 H1415 0.929 . S
C1424 C1416 1.378 . S
C1424 C1419 1.350 . S
C1425 H1412 0.929 . S
C1425 C1417 1.433 . S
C1425 N1427 1.384 . S
N1426 C1422 1.427 . S
N1426 C1423 1.384 . S
N1427 C1419 1.427 . S
N1427 C1425 1.384 . S
H1428 C1434 0.930 . S
H1429 C1438 0.930 . S
H1430 C1443 0.929 . S
H1431 C1441 0.929 . S
H1432 C1436 0.929 . S
H1433 C1442 0.929 . S
C1434 H1428 0.930 . S
C1434 C1435 1.367 . S
C1434 C1442 1.378 . S
C1435 C1434 1.367 . S
C1435 C1443 1.433 . S
C1436 H1432 0.929 . S
C1436 C1438 1.378 . S
C1436 C1440 1.350 . S
C1437 C1440 1.463 . S
C1437 C1442 1.350 . S
C1437 N1445 1.427 . S
C1438 H1429 0.930 . S
C1438 C1436 1.378 . S
C1438 C1439 1.367 . S
C1439 C1438 1.367 . S
C1439 C1441 1.433 . S
C1440 C1436 1.350 . S
C1440 C1437 1.463 . S
C1440 N1444 1.427 . S
C1441 H1431 0.929 . S
C1441 C1439 1.433 . S
C1441 N1444 1.384 . S
C1442 H1433 0.929 . S
C1442 C1434 1.378 . S
C1442 C1437 1.350 . S
C1443 H1430 0.929 . S
C1443 C1435 1.433 . S
C1443 N1445 1.384 . S
N1444 C1440 1.427 . S
N1444 C1441 1.384 . S
N1445 C1437 1.427 . S
N1445 C1443 1.384 . S
H1446 C1452 0.930 . S
H1447 C1456 0.930 . S
H1448 C1461 0.929 . S
H1449 C1459 0.929 . S
H1450 C1454 0.929 . S
H1451 C1460 0.929 . S
C1452 H1446 0.930 . S
C1452 C1453 1.367 . S
C1452 C1460 1.378 . S
C1453 C1452 1.367 . S
C1453 C1461 1.433 . S
C1454 H1450 0.929 . S
C1454 C1456 1.378 . S
C1454 C1458 1.350 . S
C1455 C1458 1.463 . S
C1455 C1460 1.350 . S
C1455 N1463 1.427 . S
C1456 H1447 0.930 . S
C1456 C1454 1.378 . S
C1456 C1457 1.367 . S
C1457 C1456 1.367 . S
C1457 C1459 1.433 . S
C1458 C1454 1.350 . S
C1458 C1455 1.463 . S
C1458 N1462 1.427 . S
C1459 H1449 0.929 . S
C1459 C1457 1.433 . S
C1459 N1462 1.384 . S
C1460 H1451 0.929 . S
C1460 C1452 1.378 . S
C1460 C1455 1.350 . S
C1461 H1448 0.929 . S
C1461 C1453 1.433 . S
C1461 N1463 1.384 . S
N1462 C1458 1.427 . S
N1462 C1459 1.384 . S
N1463 C1455 1.427 . S
N1463 C1461 1.384 . S
H1464 C1470 0.930 . S
H1465 C1474 0.930 . S
H1466 C1479 0.929 . S
H1467 C1477 0.929 . S
H1468 C1472 0.929 . S
H1469 C1478 0.929 . S
C1470 H1464 0.930 . S
C1470 C1471 1.367 . S
C1470 C1478 1.378 . S
C1471 C1470 1.367 . S
C1471 C1479 1.433 . S
C1472 H1468 0.929 . S
C1472 C1474 1.378 . S
C1472 C1476 1.350 . S
C1473 C1476 1.463 . S
C1473 C1478 1.350 . S
C1473 N1481 1.427 . S
C1474 H1465 0.930 . S
C1474 C1472 1.378 . S
C1474 C1475 1.367 . S
C1475 C1474 1.367 . S
C1475 C1477 1.433 . S
C1476 C1472 1.350 . S
C1476 C1473 1.463 . S
C1476 N1480 1.427 . S
C1477 H1467 0.929 . S
C1477 C1475 1.433 . S
C1477 N1480 1.384 . S
C1478 H1469 0.929 . S
C1478 C1470 1.378 . S
C1478 C1473 1.350 . S
C1479 H1466 0.929 . S
C1479 C1471 1.433 . S
C1479 N1481 1.384 . S
N1480 C1476 1.427 . S
N1480 C1477 1.384 . S
N1481 C1473 1.427 . S
N1481 C1479 1.384 . S
H1482 C1488 0.930 . S
H1483 C1492 0.930 . S
H1484 C1497 0.929 . S
H1485 C1495 0.929 . S
H1486 C1490 0.929 . S
H1487 C1496 0.929 . S
C1488 H1482 0.930 . S
C1488 C1489 1.367 . S
C1488 C1496 1.378 . S
C1489 C1488 1.367 . S
C1489 C1497 1.433 . S
C1490 H1486 0.929 . S
C1490 C1492 1.378 . S
C1490 C1494 1.350 . S
C1491 C1494 1.463 . S
C1491 C1496 1.350 . S
C1491 N1499 1.427 . S
C1492 H1483 0.930 . S
C1492 C1490 1.378 . S
C1492 C1493 1.367 . S
C1493 C1492 1.367 . S
C1493 C1495 1.433 . S
C1494 C1490 1.350 . S
C1494 C1491 1.463 . S
C1494 N1498 1.427 . S
C1495 H1485 0.929 . S
C1495 C1493 1.433 . S
C1495 N1498 1.384 . S
C1496 H1487 0.929 . S
C1496 C1488 1.378 . S
C1496 C1491 1.350 . S
C1497 H1484 0.929 . S
C1497 C1489 1.433 . S
C1497 N1499 1.384 . S
N1498 C1494 1.427 . S
N1498 C1495 1.384 . S
N1499 C1491 1.427 . S
N1499 C1497 1.384 . S
H1500 C1506 0.930 . S
H1501 C1510 0.930 . S
H1502 C1515 0.929 . S
H1503 C1513 0.929 . S
H1504 C1508 0.929 . S
H1505 C1514 0.929 . S
C1506 H1500 0.930 . S
C1506 C1507 1.367 . S
C1506 C1514 1.378 . S
C1507 C1506 1.367 . S
C1507 C1515 1.433 . S
C1508 H1504 0.929 . S
C1508 C1510 1.378 . S
C1508 C1512 1.350 . S
C1509 C1512 1.463 . S
C1509 C1514 1.350 . S
C1509 N1517 1.427 . S
C1510 H1501 0.930 . S
C1510 C1508 1.378 . S
C1510 C1511 1.367 . S
C1511 C1510 1.367 . S
C1511 C1513 1.433 . S
C1512 C1508 1.350 . S
C1512 C1509 1.463 . S
C1512 N1516 1.427 . S
C1513 H1503 0.929 . S
C1513 C1511 1.433 . S
C1513 N1516 1.384 . S
C1514 H1505 0.929 . S
C1514 C1506 1.378 . S
C1514 C1509 1.350 . S
C1515 H1502 0.929 . S
C1515 C1507 1.433 . S
C1515 N1517 1.384 . S
N1516 C1512 1.427 . S
N1516 C1513 1.384 . S
N1517 C1509 1.427 . S
N1517 C1515 1.384 . S
H1518 C1524 0.930 . S
H1519 C1528 0.930 . S
H1520 C1533 0.929 . S
H1521 C1531 0.929 . S
H1522 C1526 0.929 . S
H1523 C1532 0.929 . S
C1524 H1518 0.930 . S
C1524 C1525 1.367 . S
C1524 C1532 1.378 . S
C1525 C1524 1.367 . S
C1525 C1533 1.433 . S
C1526 H1522 0.929 . S
C1526 C1528 1.378 . S
C1526 C1530 1.350 . S
C1527 C1530 1.463 . S
C1527 C1532 1.350 . S
C1527 N1535 1.427 . S
C1528 H1519 0.930 . S
C1528 C1526 1.378 . S
C1528 C1529 1.367 . S
C1529 C1528 1.367 . S
C1529 C1531 1.433 . S
C1530 C1526 1.350 . S
C1530 C1527 1.463 . S
C1530 N1534 1.427 . S
C1531 H1521 0.929 . S
C1531 C1529 1.433 . S
C1531 N1534 1.384 . S
C1532 H1523 0.929 . S
C1532 C1524 1.378 . S
C1532 C1527 1.350 . S
C1533 H1520 0.929 . S
C1533 C1525 1.433 . S
C1533 N1535 1.384 . S
N1534 C1530 1.427 . S
N1534 C1531 1.384 . S
N1535 C1527 1.427 . S
N1535 C1533 1.384 . S
H1536 C1542 0.930 . S
H1537 C1546 0.930 . S
H1538 C1551 0.929 . S
H1539 C1549 0.929 . S
H1540 C1544 0.929 . S
H1541 C1550 0.929 . S
C1542 H1536 0.930 . S
C1542 C1543 1.367 . S
C1542 C1550 1.378 . S
C1543 C1542 1.367 . S
C1543 C1551 1.433 . S
C1544 H1540 0.929 . S
C1544 C1546 1.378 . S
C1544 C1548 1.350 . S
C1545 C1548 1.463 . S
C1545 C1550 1.350 . S
C1545 N1553 1.427 . S
C1546 H1537 0.930 . S
C1546 C1544 1.378 . S
C1546 C1547 1.367 . S
C1547 C1546 1.367 . S
C1547 C1549 1.433 . S
C1548 C1544 1.350 . S
C1548 C1545 1.463 . S
C1548 N1552 1.427 . S
C1549 H1539 0.929 . S
C1549 C1547 1.433 . S
C1549 N1552 1.384 . S
C1550 H1541 0.929 . S
C1550 C1542 1.378 . S
C1550 C1545 1.350 . S
C1551 H1538 0.929 . S
C1551 C1543 1.433 . S
C1551 N1553 1.384 . S
N1552 C1548 1.427 . S
N1552 C1549 1.384 . S
N1553 C1545 1.427 . S
N1553 C1551 1.384 . S
H1554 C1560 0.930 . S
H1555 C1564 0.930 . S
H1556 C1569 0.929 . S
H1557 C1567 0.929 . S
H1558 C1562 0.929 . S
H1559 C1568 0.929 . S
C1560 H1554 0.930 . S
C1560 C1561 1.367 . S
C1560 C1568 1.378 . S
C1561 C1560 1.367 . S
C1561 C1569 1.433 . S
C1562 H1558 0.929 . S
C1562 C1564 1.378 . S
C1562 C1566 1.350 . S
C1563 C1566 1.463 . S
C1563 C1568 1.350 . S
C1563 N1571 1.427 . S
C1564 H1555 0.930 . S
C1564 C1562 1.378 . S
C1564 C1565 1.367 . S
C1565 C1564 1.367 . S
C1565 C1567 1.433 . S
C1566 C1562 1.350 . S
C1566 C1563 1.463 . S
C1566 N1570 1.427 . S
C1567 H1557 0.929 . S
C1567 C1565 1.433 . S
C1567 N1570 1.384 . S
C1568 H1559 0.929 . S
C1568 C1560 1.378 . S
C1568 C1563 1.350 . S
C1569 H1556 0.929 . S
C1569 C1561 1.433 . S
C1569 N1571 1.384 . S
N1570 C1566 1.427 . S
N1570 C1567 1.384 . S
N1571 C1563 1.427 . S
N1571 C1569 1.384 . S
H1572 C1578 0.930 . S
H1573 C1582 0.930 . S
H1574 C1587 0.929 . S
H1575 C1585 0.929 . S
H1576 C1580 0.929 . S
H1577 C1586 0.929 . S
C1578 H1572 0.930 . S
C1578 C1579 1.367 . S
C1578 C1586 1.378 . S
C1579 C1578 1.367 . S
C1579 C1587 1.433 . S
C1580 H1576 0.929 . S
C1580 C1582 1.378 . S
C1580 C1584 1.350 . S
C1581 C1584 1.463 . S
C1581 C1586 1.350 . S
C1581 N1589 1.427 . S
C1582 H1573 0.930 . S
C1582 C1580 1.378 . S
C1582 C1583 1.367 . S
C1583 C1582 1.367 . S
C1583 C1585 1.433 . S
C1584 C1580 1.350 . S
C1584 C1581 1.463 . S
C1584 N1588 1.427 . S
C1585 H1575 0.929 . S
C1585 C1583 1.433 . S
C1585 N1588 1.384 . S
C1586 H1577 0.929 . S
C1586 C1578 1.378 . S
C1586 C1581 1.350 . S
C1587 H1574 0.929 . S
C1587 C1579 1.433 . S
C1587 N1589 1.384 . S
N1588 C1584 1.427 . S
N1588 C1585 1.384 . S
N1589 C1581 1.427 . S
N1589 C1587 1.384 . S
H1590 C1596 0.930 . S
H1591 C1600 0.930 . S
H1592 C1605 0.929 . S
H1593 C1603 0.929 . S
H1594 C1598 0.929 . S
H1595 C1604 0.929 . S
C1596 H1590 0.930 . S
C1596 C1597 1.367 . S
C1596 C1604 1.378 . S
C1597 C1596 1.367 . S
C1597 C1605 1.433 . S
C1598 H1594 0.929 . S
C1598 C1600 1.378 . S
C1598 C1602 1.350 . S
C1599 C1602 1.463 . S
C1599 C1604 1.350 . S
C1599 N1607 1.427 . S
C1600 H1591 0.930 . S
C1600 C1598 1.378 . S
C1600 C1601 1.367 . S
C1601 C1600 1.367 . S
C1601 C1603 1.433 . S
C1602 C1598 1.350 . S
C1602 C1599 1.463 . S
C1602 N1606 1.427 . S
C1603 H1593 0.929 . S
C1603 C1601 1.433 . S
C1603 N1606 1.384 . S
C1604 H1595 0.929 . S
C1604 C1596 1.378 . S
C1604 C1599 1.350 . S
C1605 H1592 0.929 . S
C1605 C1597 1.433 . S
C1605 N1607 1.384 . S
N1606 C1602 1.427 . S
N1606 C1603 1.384 . S
N1607 C1599 1.427 . S
N1607 C1605 1.384 . S
H1608 C1614 0.930 . S
H1609 C1618 0.930 . S
H1610 C1623 0.929 . S
H1611 C1621 0.929 . S
H1612 C1616 0.929 . S
H1613 C1622 0.929 . S
C1614 H1608 0.930 . S
C1614 C1615 1.367 . S
C1614 C1622 1.378 . S
C1615 C1614 1.367 . S
C1615 C1623 1.433 . S
C1616 H1612 0.929 . S
C1616 C1618 1.378 . S
C1616 C1620 1.350 . S
C1617 C1620 1.463 . S
C1617 C1622 1.350 . S
C1617 N1625 1.427 . S
C1618 H1609 0.930 . S
C1618 C1616 1.378 . S
C1618 C1619 1.367 . S
C1619 C1618 1.367 . S
C1619 C1621 1.433 . S
C1620 C1616 1.350 . S
C1620 C1617 1.463 . S
C1620 N1624 1.427 . S
C1621 H1611 0.929 . S
C1621 C1619 1.433 . S
C1621 N1624 1.384 . S
C1622 H1613 0.929 . S
C1622 C1614 1.378 . S
C1622 C1617 1.350 . S
C1623 H1610 0.929 . S
C1623 C1615 1.433 . S
C1623 N1625 1.384 . S
N1624 C1620 1.427 . S
N1624 C1621 1.384 . S
N1625 C1617 1.427 . S
N1625 C1623 1.384 . S
H1626 C1632 0.930 . S
H1627 C1636 0.930 . S
H1628 C1641 0.929 . S
H1629 C1639 0.929 . S
H1630 C1634 0.929 . S
H1631 C1640 0.929 . S
C1632 H1626 0.930 . S
C1632 C1633 1.367 . S
C1632 C1640 1.378 . S
C1633 C1632 1.367 . S
C1633 C1641 1.433 . S
C1634 H1630 0.929 . S
C1634 C1636 1.378 . S
C1634 C1638 1.350 . S
C1635 C1638 1.463 . S
C1635 C1640 1.350 . S
C1635 N1643 1.427 . S
C1636 H1627 0.930 . S
C1636 C1634 1.378 . S
C1636 C1637 1.367 . S
C1637 C1636 1.367 . S
C1637 C1639 1.433 . S
C1638 C1634 1.350 . S
C1638 C1635 1.463 . S
C1638 N1642 1.427 . S
C1639 H1629 0.929 . S
C1639 C1637 1.433 . S
C1639 N1642 1.384 . S
C1640 H1631 0.929 . S
C1640 C1632 1.378 . S
C1640 C1635 1.350 . S
C1641 H1628 0.929 . S
C1641 C1633 1.433 . S
C1641 N1643 1.384 . S
N1642 C1638 1.427 . S
N1642 C1639 1.384 . S
N1643 C1635 1.427 . S
N1643 C1641 1.384 . S
H1644 C1650 0.930 . S
H1645 C1654 0.930 . S
H1646 C1659 0.929 . S
H1647 C1657 0.929 . S
H1648 C1652 0.929 . S
H1649 C1658 0.929 . S
C1650 H1644 0.930 . S
C1650 C1651 1.367 . S
C1650 C1658 1.378 . S
C1651 C1650 1.367 . S
C1651 C1659 1.433 . S
C1652 H1648 0.929 . S
C1652 C1654 1.378 . S
C1652 C1656 1.350 . S
C1653 C1656 1.463 . S
C1653 C1658 1.350 . S
C1653 N1661 1.427 . S
C1654 H1645 0.930 . S
C1654 C1652 1.378 . S
C1654 C1655 1.367 . S
C1655 C1654 1.367 . S
C1655 C1657 1.433 . S
C1656 C1652 1.350 . S
C1656 C1653 1.463 . S
C1656 N1660 1.427 . S
C1657 H1647 0.929 . S
C1657 C1655 1.433 . S
C1657 N1660 1.384 . S
C1658 H1649 0.929 . S
C1658 C1650 1.378 . S
C1658 C1653 1.350 . S
C1659 H1646 0.929 . S
C1659 C1651 1.433 . S
C1659 N1661 1.384 . S
N1660 C1656 1.427 . S
N1660 C1657 1.384 . S
N1661 C1653 1.427 . S
N1661 C1659 1.384 . S
H1662 C1668 0.930 . S
H1663 C1672 0.930 . S
H1664 C1677 0.929 . S
H1665 C1675 0.929 . S
H1666 C1670 0.929 . S
H1667 C1676 0.929 . S
C1668 H1662 0.930 . S
C1668 C1669 1.367 . S
C1668 C1676 1.378 . S
C1669 C1668 1.367 . S
C1669 C1677 1.433 . S
C1670 H1666 0.929 . S
C1670 C1672 1.378 . S
C1670 C1674 1.350 . S
C1671 C1674 1.463 . S
C1671 C1676 1.350 . S
C1671 N1679 1.427 . S
C1672 H1663 0.930 . S
C1672 C1670 1.378 . S
C1672 C1673 1.367 . S
C1673 C1672 1.367 . S
C1673 C1675 1.433 . S
C1674 C1670 1.350 . S
C1674 C1671 1.463 . S
C1674 N1678 1.427 . S
C1675 H1665 0.929 . S
C1675 C1673 1.433 . S
C1675 N1678 1.384 . S
C1676 H1667 0.929 . S
C1676 C1668 1.378 . S
C1676 C1671 1.350 . S
C1677 H1664 0.929 . S
C1677 C1669 1.433 . S
C1677 N1679 1.384 . S
N1678 C1674 1.427 . S
N1678 C1675 1.384 . S
N1679 C1671 1.427 . S
N1679 C1677 1.384 . S
H1680 C1686 0.930 . S
H1681 C1690 0.930 . S
H1682 C1695 0.929 . S
H1683 C1693 0.929 . S
H1684 C1688 0.929 . S
H1685 C1694 0.929 . S
C1686 H1680 0.930 . S
C1686 C1687 1.367 . S
C1686 C1694 1.378 . S
C1687 C1686 1.367 . S
C1687 C1695 1.433 . S
C1688 H1684 0.929 . S
C1688 C1690 1.378 . S
C1688 C1692 1.350 . S
C1689 C1692 1.463 . S
C1689 C1694 1.350 . S
C1689 N1697 1.427 . S
C1690 H1681 0.930 . S
C1690 C1688 1.378 . S
C1690 C1691 1.367 . S
C1691 C1690 1.367 . S
C1691 C1693 1.433 . S
C1692 C1688 1.350 . S
C1692 C1689 1.463 . S
C1692 N1696 1.427 . S
C1693 H1683 0.929 . S
C1693 C1691 1.433 . S
C1693 N1696 1.384 . S
C1694 H1685 0.929 . S
C1694 C1686 1.378 . S
C1694 C1689 1.350 . S
C1695 H1682 0.929 . S
C1695 C1687 1.433 . S
C1695 N1697 1.384 . S
N1696 C1692 1.427 . S
N1696 C1693 1.384 . S
N1697 C1689 1.427 . S
N1697 C1695 1.384 . S
H1698 C1704 0.930 . S
H1699 C1708 0.930 . S
H1700 C1713 0.929 . S
H1701 C1711 0.929 . S
H1702 C1706 0.929 . S
H1703 C1712 0.929 . S
C1704 H1698 0.930 . S
C1704 C1705 1.367 . S
C1704 C1712 1.378 . S
C1705 C1704 1.367 . S
C1705 C1713 1.433 . S
C1706 H1702 0.929 . S
C1706 C1708 1.378 . S
C1706 C1710 1.350 . S
C1707 C1710 1.463 . S
C1707 C1712 1.350 . S
C1707 N1715 1.427 . S
C1708 H1699 0.930 . S
C1708 C1706 1.378 . S
C1708 C1709 1.367 . S
C1709 C1708 1.367 . S
C1709 C1711 1.433 . S
C1710 C1706 1.350 . S
C1710 C1707 1.463 . S
C1710 N1714 1.427 . S
C1711 H1701 0.929 . S
C1711 C1709 1.433 . S
C1711 N1714 1.384 . S
C1712 H1703 0.929 . S
C1712 C1704 1.378 . S
C1712 C1707 1.350 . S
C1713 H1700 0.929 . S
C1713 C1705 1.433 . S
C1713 N1715 1.384 . S
N1714 C1710 1.427 . S
N1714 C1711 1.384 . S
N1715 C1707 1.427 . S
N1715 C1713 1.384 . S
H1716 C1722 0.930 . S
H1717 C1726 0.930 . S
H1718 C1731 0.929 . S
H1719 C1729 0.929 . S
H1720 C1724 0.929 . S
H1721 C1730 0.929 . S
C1722 H1716 0.930 . S
C1722 C1723 1.367 . S
C1722 C1730 1.378 . S
C1723 C1722 1.367 . S
C1723 C1731 1.433 . S
C1724 H1720 0.929 . S
C1724 C1726 1.378 . S
C1724 C1728 1.350 . S
C1725 C1728 1.463 . S
C1725 C1730 1.350 . S
C1725 N1733 1.427 . S
C1726 H1717 0.930 . S
C1726 C1724 1.378 . S
C1726 C1727 1.367 . S
C1727 C1726 1.367 . S
C1727 C1729 1.433 . S
C1728 C1724 1.350 . S
C1728 C1725 1.463 . S
C1728 N1732 1.427 . S
C1729 H1719 0.929 . S
C1729 C1727 1.433 . S
C1729 N1732 1.384 . S
C1730 H1721 0.929 . S
C1730 C1722 1.378 . S
C1730 C1725 1.350 . S
C1731 H1718 0.929 . S
C1731 C1723 1.433 . S
C1731 N1733 1.384 . S
N1732 C1728 1.427 . S
N1732 C1729 1.384 . S
N1733 C1725 1.427 . S
N1733 C1731 1.384 . S
H1734 C1740 0.930 . S
H1735 C1744 0.930 . S
H1736 C1749 0.929 . S
H1737 C1747 0.929 . S
H1738 C1742 0.929 . S
H1739 C1748 0.929 . S
C1740 H1734 0.930 . S
C1740 C1741 1.367 . S
C1740 C1748 1.378 . S
C1741 C1740 1.367 . S
C1741 C1749 1.433 . S
C1742 H1738 0.929 . S
C1742 C1744 1.378 . S
C1742 C1746 1.350 . S
C1743 C1746 1.463 . S
C1743 C1748 1.350 . S
C1743 N1751 1.427 . S
C1744 H1735 0.930 . S
C1744 C1742 1.378 . S
C1744 C1745 1.367 . S
C1745 C1744 1.367 . S
C1745 C1747 1.433 . S
C1746 C1742 1.350 . S
C1746 C1743 1.463 . S
C1746 N1750 1.427 . S
C1747 H1737 0.929 . S
C1747 C1745 1.433 . S
C1747 N1750 1.384 . S
C1748 H1739 0.929 . S
C1748 C1740 1.378 . S
C1748 C1743 1.350 . S
C1749 H1736 0.929 . S
C1749 C1741 1.433 . S
C1749 N1751 1.384 . S
N1750 C1746 1.427 . S
N1750 C1747 1.384 . S
N1751 C1743 1.427 . S
N1751 C1749 1.384 . S
H1752 C1758 0.930 . S
H1753 C1762 0.930 . S
H1754 C1767 0.929 . S
H1755 C1765 0.929 . S
H1756 C1760 0.929 . S
H1757 C1766 0.929 . S
C1758 H1752 0.930 . S
C1758 C1759 1.367 . S
C1758 C1766 1.378 . S
C1759 C1758 1.367 . S
C1759 C1767 1.433 . S
C1760 H1756 0.929 . S
C1760 C1762 1.378 . S
C1760 C1764 1.350 . S
C1761 C1764 1.463 . S
C1761 C1766 1.350 . S
C1761 N1769 1.427 . S
C1762 H1753 0.930 . S
C1762 C1760 1.378 . S
C1762 C1763 1.367 . S
C1763 C1762 1.367 . S
C1763 C1765 1.433 . S
C1764 C1760 1.350 . S
C1764 C1761 1.463 . S
C1764 N1768 1.427 . S
C1765 H1755 0.929 . S
C1765 C1763 1.433 . S
C1765 N1768 1.384 . S
C1766 H1757 0.929 . S
C1766 C1758 1.378 . S
C1766 C1761 1.350 . S
C1767 H1754 0.929 . S
C1767 C1759 1.433 . S
C1767 N1769 1.384 . S
N1768 C1764 1.427 . S
N1768 C1765 1.384 . S
N1769 C1761 1.427 . S
N1769 C1767 1.384 . S
H1770 C1776 0.930 . S
H1771 C1780 0.930 . S
H1772 C1785 0.929 . S
H1773 C1783 0.929 . S
H1774 C1778 0.929 . S
H1775 C1784 0.929 . S
C1776 H1770 0.930 . S
C1776 C1777 1.367 . S
C1776 C1784 1.378 . S
C1777 C1776 1.367 . S
C1777 C1785 1.433 . S
C1778 H1774 0.929 . S
C1778 C1780 1.378 . S
C1778 C1782 1.350 . S
C1779 C1782 1.463 . S
C1779 C1784 1.350 . S
C1779 N1787 1.427 . S
C1780 H1771 0.930 . S
C1780 C1778 1.378 . S
C1780 C1781 1.367 . S
C1781 C1780 1.367 . S
C1781 C1783 1.433 . S
C1782 C1778 1.350 . S
C1782 C1779 1.463 . S
C1782 N1786 1.427 . S
C1783 H1773 0.929 . S
C1783 C1781 1.433 . S
C1783 N1786 1.384 . S
C1784 H1775 0.929 . S
C1784 C1776 1.378 . S
C1784 C1779 1.350 . S
C1785 H1772 0.929 . S
C1785 C1777 1.433 . S
C1785 N1787 1.384 . S
N1786 C1782 1.427 . S
N1786 C1783 1.384 . S
N1787 C1779 1.427 . S
N1787 C1785 1.384 . S
H1788 C1794 0.930 . S
H1789 C1798 0.930 . S
H1790 C1803 0.929 . S
H1791 C1801 0.929 . S
H1792 C1796 0.929 . S
H1793 C1802 0.929 . S
C1794 H1788 0.930 . S
C1794 C1795 1.367 . S
C1794 C1802 1.378 . S
C1795 C1794 1.367 . S
C1795 C1803 1.433 . S
C1796 H1792 0.929 . S
C1796 C1798 1.378 . S
C1796 C1800 1.350 . S
C1797 C1800 1.463 . S
C1797 C1802 1.350 . S
C1797 N1805 1.427 . S
C1798 H1789 0.930 . S
C1798 C1796 1.378 . S
C1798 C1799 1.367 . S
C1799 C1798 1.367 . S
C1799 C1801 1.433 . S
C1800 C1796 1.350 . S
C1800 C1797 1.463 . S
C1800 N1804 1.427 . S
C1801 H1791 0.929 . S
C1801 C1799 1.433 . S
C1801 N1804 1.384 . S
C1802 H1793 0.929 . S
C1802 C1794 1.378 . S
C1802 C1797 1.350 . S
C1803 H1790 0.929 . S
C1803 C1795 1.433 . S
C1803 N1805 1.384 . S
N1804 C1800 1.427 . S
N1804 C1801 1.384 . S
N1805 C1797 1.427 . S
N1805 C1803 1.384 . S
H1806 C1812 0.930 . S
H1807 C1816 0.930 . S
H1808 C1821 0.929 . S
H1809 C1819 0.929 . S
H1810 C1814 0.929 . S
H1811 C1820 0.929 . S
C1812 H1806 0.930 . S
C1812 C1813 1.367 . S
C1812 C1820 1.378 . S
C1813 C1812 1.367 . S
C1813 C1821 1.433 . S
C1814 H1810 0.929 . S
C1814 C1816 1.378 . S
C1814 C1818 1.350 . S
C1815 C1818 1.463 . S
C1815 C1820 1.350 . S
C1815 N1823 1.427 . S
C1816 H1807 0.930 . S
C1816 C1814 1.378 . S
C1816 C1817 1.367 . S
C1817 C1816 1.367 . S
C1817 C1819 1.433 . S
C1818 C1814 1.350 . S
C1818 C1815 1.463 . S
C1818 N1822 1.427 . S
C1819 H1809 0.929 . S
C1819 C1817 1.433 . S
C1819 N1822 1.384 . S
C1820 H1811 0.929 . S
C1820 C1812 1.378 . S
C1820 C1815 1.350 . S
C1821 H1808 0.929 . S
C1821 C1813 1.433 . S
C1821 N1823 1.384 . S
N1822 C1818 1.427 . S
N1822 C1819 1.384 . S
N1823 C1815 1.427 . S
N1823 C1821 1.384 . S
C535 C21 1.526 . S
C539 C406 1.507 . S
C553 C436 1.509 . S
C557 C43 1.522 . S
C571 C370 1.514 . S
C575 C51 1.521 . S
C589 C87 1.522 . S
C593 C392 1.513 . S
C607 C502 1.517 . S
C611 C95 1.518 . S
C625 C472 1.504 . S
C629 C125 1.528 . S
C643 C516 1.516 . S
C647 C139 1.518 . S
C661 C448 1.505 . S
C665 C161 1.526 . S
C679 C183 1.519 . S
C683 C296 1.513 . S
C697 C205 1.520 . S
C701 C348 1.511 . S
C715 C235 1.521 . S
C719 C318 1.510 . S
C733 C282 1.505 . S
C737 C249 1.527 . S
C751 C142 1.516 . S
C755 C279 1.517 . S
C769 C307 1.515 . S
C773 C164 1.516 . S
C787 C98 1.504 . S
C791 C329 1.525 . S
C805 C118 1.504 . S
C809 C345 1.525 . S
C823 C367 1.525 . S
C827 C228 1.506 . S
C841 C208 1.511 . S
C845 C389 1.522 . S
C859 C252 1.512 . S
C863 C417 1.516 . S
C877 C433 1.521 . S
C881 C186 1.512 . S
C895 C447 1.516 . S
C899 C40 1.512 . S
C913 C483 1.516 . S
C917 C84 1.512 . S
C931 C499 1.515 . S
C935 C54 1.516 . S
C949 C18 1.507 . S
C953 C527 1.520 . S
C967 C428 1.159 . S
C971 C10 1.165 . S
C985 C404 1.159 . S
C989 C32 1.166 . S
C1003 C384 1.158 . S
C1007 C52 1.164 . S
C1021 C362 1.158 . S
C1025 C76 1.163 . S
C1039 C96 1.158 . S
C1043 C514 1.159 . S
C1057 C128 1.163 . S
C1061 C458 1.169 . S
C1075 C494 1.158 . S
C1079 C140 1.163 . S
C1093 C470 1.158 . S
C1097 C162 1.161 . S
C1111 C316 1.167 . S
C1115 C184 1.166 . S
C1129 C206 1.154 . S
C1133 C274 1.167 . S
C1147 C294 1.164 . S
C1151 C238 1.154 . S
C1165 C340 1.166 . S
C1169 C250 1.166 . S
C1183 C272 1.170 . S
C1187 C172 1.166 . S
C1201 C150 1.165 . S
C1205 C304 1.163 . S
C1219 C326 1.158 . S
C1223 C120 1.169 . S
C1237 C338 1.157 . S
C1241 C106 1.172 . S
C1255 C260 1.175 . S
C1259 C360 1.159 . S
C1273 C194 1.166 . S
C1277 C382 1.170 . S
C1291 C414 1.163 . S
C1295 C230 1.174 . S
C1309 C426 1.159 . S
C1313 C216 1.175 . S
C1327 C62 1.164 . S
C1331 C450 1.169 . S
C1345 C8 1.172 . S
C1349 C480 1.157 . S
C1363 C492 1.158 . S
C1367 C30 1.168 . S
C1381 C524 1.157 . S
C1385 C74 1.172 . S
C1399 C7 0.953 . S
C1403 C109 0.938 . S
C1417 C117 0.948 . S
C1421 C29 0.944 . S
C1435 C153 0.940 . S
C1439 C59 0.952 . S
C1453 C175 0.934 . S
C1457 C73 0.955 . S
C1471 C197 0.937 . S
C1475 C103 0.953 . S
C1489 C131 0.954 . S
C1493 C263 0.936 . S
C1507 C147 0.947 . S
C1511 C219 0.944 . S
C1525 C227 0.938 . S
C1529 C169 0.952 . S
C1543 C191 0.944 . S
C1547 C15 0.949 . S
C1561 C213 0.947 . S
C1565 C65 0.944 . S
C1579 C81 0.949 . S
C1583 C241 0.944 . S
C1597 C37 0.944 . S
C1601 C257 0.948 . S
C1615 C271 0.956 . S
C1619 C373 0.940 . S
C1633 C395 0.954 . S
C1637 C301 0.941 . S
C1651 C403 0.943 . S
C1655 C323 0.951 . S
C1669 C439 0.942 . S
C1673 C337 0.952 . S
C1687 C359 0.947 . S
C1691 C455 0.947 . S
C1705 C513 0.953 . S
C1709 C381 0.944 . S
C1723 C411 0.944 . S
C1727 C469 0.950 . S
C1741 C425 0.955 . S
C1745 C505 0.939 . S
C1759 C285 0.944 . S
C1763 C461 0.950 . S
C1777 C315 0.939 . S
C1781 C477 0.956 . S
C1795 C351 0.944 . S
C1799 C491 0.950 . S
C1813 C293 0.940 . S
C1817 C521 0.956 . S
