# Generated by pormake.
# Topology wmx, (6)-cn, num edge types: 1
# Building blocks:
#     Node 0, Type 0, BuildingBlock: IZENUY_clean_sbu_0, # of connection points: 6
#     Node 1, Type 0, BuildingBlock: IZENUY_clean_sbu_0, # of connection points: 6
#     Node 2, Type 0, BuildingBlock: IZENUY_clean_sbu_0, # of connection points: 6
#     Node 3, Type 0, BuildingBlock: IZENUY_clean_sbu_0, # of connection points: 6
#     Node 4, Type 0, BuildingBlock: IZENUY_clean_sbu_0, # of connection points: 6
#     Node 5, Type 0, BuildingBlock: IZENUY_clean_sbu_0, # of connection points: 6
#     Node 6, Type 0, BuildingBlock: IZENUY_clean_sbu_0, # of connection points: 6
#     Node 7, Type 0, BuildingBlock: IZENUY_clean_sbu_0, # of connection points: 6
#     Node 8, Type 0, BuildingBlock: IZENUY_clean_sbu_0, # of connection points: 6
#     Node 9, Type 0, BuildingBlock: IZENUY_clean_sbu_0, # of connection points: 6
#     Node 10, Type 0, BuildingBlock: IZENUY_clean_sbu_0, # of connection points: 6
#     Node 11, Type 0, BuildingBlock: IZENUY_clean_sbu_0, # of connection points: 6
#     Node 12, Type 0, BuildingBlock: IZENUY_clean_sbu_0, # of connection points: 6
#     Node 13, Type 0, BuildingBlock: IZENUY_clean_sbu_0, # of connection points: 6
#     Node 14, Type 0, BuildingBlock: IZENUY_clean_sbu_0, # of connection points: 6
#     Node 15, Type 0, BuildingBlock: IZENUY_clean_sbu_0, # of connection points: 6
#     Node 16, Type 0, BuildingBlock: IZENUY_clean_sbu_0, # of connection points: 6
#     Node 17, Type 0, BuildingBlock: IZENUY_clean_sbu_0, # of connection points: 6
#     Node 18, Type 0, BuildingBlock: IZENUY_clean_sbu_0, # of connection points: 6
#     Node 19, Type 0, BuildingBlock: IZENUY_clean_sbu_0, # of connection points: 6
#     Node 20, Type 0, BuildingBlock: IZENUY_clean_sbu_0, # of connection points: 6
#     Node 21, Type 0, BuildingBlock: IZENUY_clean_sbu_0, # of connection points: 6
#     Node 22, Type 0, BuildingBlock: IZENUY_clean_sbu_0, # of connection points: 6
#     Node 23, Type 0, BuildingBlock: IZENUY_clean_sbu_0, # of connection points: 6
#     Node 24, Type 0, BuildingBlock: IZENUY_clean_sbu_0, # of connection points: 6
#     Node 25, Type 0, BuildingBlock: IZENUY_clean_sbu_0, # of connection points: 6
#     Node 26, Type 0, BuildingBlock: IZENUY_clean_sbu_0, # of connection points: 6
#     Node 27, Type 0, BuildingBlock: IZENUY_clean_sbu_0, # of connection points: 6
#     Node 28, Type 0, BuildingBlock: IZENUY_clean_sbu_0, # of connection points: 6
#     Node 29, Type 0, BuildingBlock: IZENUY_clean_sbu_0, # of connection points: 6
#     Node 30, Type 0, BuildingBlock: IZENUY_clean_sbu_0, # of connection points: 6
#     Node 31, Type 0, BuildingBlock: IZENUY_clean_sbu_0, # of connection points: 6
#     Node 32, Type 0, BuildingBlock: IZENUY_clean_sbu_0, # of connection points: 6
#     Node 33, Type 0, BuildingBlock: IZENUY_clean_sbu_0, # of connection points: 6
#     Node 34, Type 0, BuildingBlock: IZENUY_clean_sbu_0, # of connection points: 6
#     Node 35, Type 0, BuildingBlock: IZENUY_clean_sbu_0, # of connection points: 6
#     Edge 36, Type (0, 0), None
#     Edge 37, Type (0, 0), None
#     Edge 38, Type (0, 0), None
#     Edge 39, Type (0, 0), None
#     Edge 40, Type (0, 0), None
#     Edge 41, Type (0, 0), None
#     Edge 42, Type (0, 0), None
#     Edge 43, Type (0, 0), None
#     Edge 44, Type (0, 0), None
#     Edge 45, Type (0, 0), None
#     Edge 46, Type (0, 0), None
#     Edge 47, Type (0, 0), None
#     Edge 48, Type (0, 0), None
#     Edge 49, Type (0, 0), None
#     Edge 50, Type (0, 0), None
#     Edge 51, Type (0, 0), None
#     Edge 52, Type (0, 0), None
#     Edge 53, Type (0, 0), None
#     Edge 54, Type (0, 0), None
#     Edge 55, Type (0, 0), None
#     Edge 56, Type (0, 0), None
#     Edge 57, Type (0, 0), None
#     Edge 58, Type (0, 0), None
#     Edge 59, Type (0, 0), None
#     Edge 60, Type (0, 0), None
#     Edge 61, Type (0, 0), None
#     Edge 62, Type (0, 0), None
#     Edge 63, Type (0, 0), None
#     Edge 64, Type (0, 0), None
#     Edge 65, Type (0, 0), None
#     Edge 66, Type (0, 0), None
#     Edge 67, Type (0, 0), None
#     Edge 68, Type (0, 0), None
#     Edge 69, Type (0, 0), None
#     Edge 70, Type (0, 0), None
#     Edge 71, Type (0, 0), None
#     Edge 72, Type (0, 0), None
#     Edge 73, Type (0, 0), None
#     Edge 74, Type (0, 0), None
#     Edge 75, Type (0, 0), None
#     Edge 76, Type (0, 0), None
#     Edge 77, Type (0, 0), None
#     Edge 78, Type (0, 0), None
#     Edge 79, Type (0, 0), None
#     Edge 80, Type (0, 0), None
#     Edge 81, Type (0, 0), None
#     Edge 82, Type (0, 0), None
#     Edge 83, Type (0, 0), None
#     Edge 84, Type (0, 0), None
#     Edge 85, Type (0, 0), None
#     Edge 86, Type (0, 0), None
#     Edge 87, Type (0, 0), None
#     Edge 88, Type (0, 0), None
#     Edge 89, Type (0, 0), None
#     Edge 90, Type (0, 0), None
#     Edge 91, Type (0, 0), None
#     Edge 92, Type (0, 0), None
#     Edge 93, Type (0, 0), None
#     Edge 94, Type (0, 0), None
#     Edge 95, Type (0, 0), None
#     Edge 96, Type (0, 0), None
#     Edge 97, Type (0, 0), None
#     Edge 98, Type (0, 0), None
#     Edge 99, Type (0, 0), None
#     Edge 100, Type (0, 0), None
#     Edge 101, Type (0, 0), None
#     Edge 102, Type (0, 0), None
#     Edge 103, Type (0, 0), None
#     Edge 104, Type (0, 0), None
#     Edge 105, Type (0, 0), None
#     Edge 106, Type (0, 0), None
#     Edge 107, Type (0, 0), None
#     Edge 108, Type (0, 0), None
#     Edge 109, Type (0, 0), None
#     Edge 110, Type (0, 0), None
#     Edge 111, Type (0, 0), None
#     Edge 112, Type (0, 0), None
#     Edge 113, Type (0, 0), None
#     Edge 114, Type (0, 0), None
#     Edge 115, Type (0, 0), None
#     Edge 116, Type (0, 0), None
#     Edge 117, Type (0, 0), None
#     Edge 118, Type (0, 0), None
#     Edge 119, Type (0, 0), None
#     Edge 120, Type (0, 0), None
#     Edge 121, Type (0, 0), None
#     Edge 122, Type (0, 0), None
#     Edge 123, Type (0, 0), None
#     Edge 124, Type (0, 0), None
#     Edge 125, Type (0, 0), None
#     Edge 126, Type (0, 0), None
#     Edge 127, Type (0, 0), None
#     Edge 128, Type (0, 0), None
#     Edge 129, Type (0, 0), None
#     Edge 130, Type (0, 0), None
#     Edge 131, Type (0, 0), None
#     Edge 132, Type (0, 0), None
#     Edge 133, Type (0, 0), None
#     Edge 134, Type (0, 0), None
#     Edge 135, Type (0, 0), None
#     Edge 136, Type (0, 0), None
#     Edge 137, Type (0, 0), None
#     Edge 138, Type (0, 0), None
#     Edge 139, Type (0, 0), None
#     Edge 140, Type (0, 0), None
#     Edge 141, Type (0, 0), None
#     Edge 142, Type (0, 0), None
#     Edge 143, Type (0, 0), None
# Relax obj value: 0.563
# Max RMSD: 0.244
# Mean RMSD: 0.244
data_MOF--net-wmx--node1-IZENUY_clean_sbu_0--edge1-none
_symmetry_space_group_name_H-M    P1
_symmetry_Int_Tables_number       1
_symmetry_cell_setting            triclinic
loop_
_symmetry_equiv_pos_as_xyz
'x, y, z'
_cell_length_a     25.50811
_cell_length_b     25.508877
_cell_length_c     22.368061
_cell_angle_alpha  90.001585
_cell_angle_beta   89.998797
_cell_angle_gamma 120.00033
loop_
_atom_site_label
_atom_site_type_symbol
_atom_site_fract_x
_atom_site_fract_y
_atom_site_fract_z
_atom_type_partial_charge
Fe0 Fe 0.18921 0.05796 0.23156 0.0
Fe1 Fe 0.16914 0.08687 0.10537 0.0
O2 O 0.19254 0.11066 0.17713 0.0
Fe3 Fe 0.22044 0.18772 0.19515 0.0
O4 O 0.21767 0.17726 0.27385 0.0
O5 O 0.15351 0.0858 0.28913 0.0
O6 O 0.11194 0.99836 0.22068 0.0
C7 C 0.09193 0.97705 0.17044 0.0
C8 C 0.30944 0.16229 0.22871 0.0
O9 O 0.11469 0.0089 0.12535 0.0
C10 C 0.23041 0.20577 1.06813 0.0
O11 O 0.21487 0.01814 0.17471 0.0
O12 O 0.23234 0.07575 0.09735 0.0
O13 O 0.29685 0.19746 0.19747 0.0
O14 O 0.26873 0.11184 0.25091 0.0
C15 C 0.09852 0.13122 0.1617 0.0
O16 O 0.21994 0.15364 1.06268 0.0
O17 O 0.22983 0.22264 0.12068 0.0
C18 C 0.23046 0.03029 0.11891 0.0
O19 O 0.10757 0.10308 0.11907 0.0
O20 O 0.14134 0.17127 0.19433 0.0
C21 C 0.1695 0.14081 0.29781 0.0
Fe22 Fe 0.92609 0.08483 0.10538 0.0
Fe23 Fe 0.82523 0.03528 0.19515 0.0
O24 O 0.9023 0.08444 0.17714 0.0
Fe25 Fe 0.955 0.13381 0.23157 0.0
O26 O 0.0146 0.11614 0.22069 0.0
O27 O 1.00406 0.10835 0.12535 0.0
O28 O 0.90988 0.00706 0.11907 0.0
C29 C 0.88173 0.96987 0.16169 0.0
C30 C 0.98268 0.20274 0.11893 0.0
O31 O 0.84168 0.97263 0.19433 0.0
C32 C 0.85067 0.14972 0.2287 0.0
O33 O 0.85932 0.06887 1.06268 0.0
O34 O 0.79032 0.00975 0.12067 0.0
O35 O 0.99482 0.19929 0.17473 0.0
O36 O 0.93722 0.15915 0.09737 0.0
C37 C 0.87214 0.03126 0.29781 0.0
O38 O 0.8155 0.10196 0.19746 0.0
O39 O 0.90111 0.15944 0.25092 0.0
C40 C 0.80719 0.0272 1.06813 0.0
O41 O 0.83569 0.04297 0.27385 0.0
O42 O 0.92715 0.07027 0.28913 0.0
C43 C 0.03591 0.11744 0.17045 0.0
Fe44 Fe 0.92813 0.84383 0.10537 0.0
Fe45 Fe 0.97768 0.79253 0.19514 0.0
O46 O 0.92851 0.82043 0.17713 0.0
Fe47 Fe 0.87914 0.82376 0.23155 0.0
O48 O 0.89681 0.90103 0.22068 0.0
O49 O 0.90461 0.89828 0.12535 0.0
O50 O 1.00591 0.9054 0.11907 0.0
C51 C 0.04309 0.91444 0.16169 0.0
C52 C 0.81022 0.78252 0.11891 0.0
O53 O 0.04032 0.87162 0.19433 0.0
C54 C 0.86323 0.70353 0.2287 0.0
O55 O 0.94409 0.79303 1.06267 0.0
O56 O 1.00321 0.78315 0.12067 0.0
O57 O 0.81366 0.79811 0.17471 0.0
O58 O 0.85381 0.78064 0.09735 0.0
C59 C 0.98169 0.84346 0.2978 0.0
O60 O 0.91099 0.71612 0.19745 0.0
O61 O 0.8535 0.74424 0.2509 0.0
C62 C 0.98576 0.78257 1.06812 0.0
O63 O 0.96998 0.79529 0.27384 0.0
O64 O 0.94268 0.85946 0.28912 0.0
C65 C 0.89552 0.92105 0.17044 0.0
Fe66 Fe 0.19026 0.21782 0.44395 0.0
Fe67 Fe 0.06049 0.1866 0.40757 0.0
O68 O 0.11319 0.18992 0.46198 0.0
Fe69 Fe 0.08943 0.16651 0.53375 0.0
O70 O 0.1057 0.10499 0.52004 0.0
O71 O 0.17381 0.13874 0.4447 0.0
O72 O 0.17981 0.21512 0.36525 0.0
C73 C 0.14335 0.16697 0.34125 0.0
C74 C 0.20833 0.22781 0.57096 0.0
O75 O 0.08834 0.15093 0.34998 0.0
C76 C 0.03277 0.22779 0.52022 0.0
O77 O 0.19998 0.29422 0.44173 0.0
O78 O 0.11438 0.26614 0.38827 0.0
O79 O 0.15621 0.21739 0.5764 0.0
O80 O 0.22516 0.22714 0.51842 0.0
C81 C 0.97962 0.08927 0.46865 0.0
O82 O 0.02065 0.21222 0.46442 0.0
O83 O 0.07824 0.22967 0.54179 0.0
C84 C 0.1648 0.30683 0.41054 0.0
O85 O 1.00091 0.10933 0.41842 0.0
O86 O 0.01147 0.11203 0.51376 0.0
C87 C 0.1338 0.09593 0.47738 0.0
Fe88 Fe 0.82634 0.87646 0.40756 0.0
Fe89 Fe 0.84643 0.92548 0.53374 0.0
O90 O 0.82303 0.92584 0.46198 0.0
Fe91 Fe 0.79513 0.97501 0.44396 0.0
O92 O 0.79783 0.96727 0.36526 0.0
O93 O 0.86201 0.93997 0.34998 0.0
O94 O 0.90361 0.89414 0.41841 0.0
C95 C 0.92366 0.8929 0.46864 0.0
C96 C 0.70612 0.86054 0.41054 0.0
O97 O 0.90091 0.902 0.51375 0.0
C98 C 0.78514 0.98308 0.57098 0.0
O99 O 0.80072 0.81099 0.46441 0.0
O100 O 0.78327 0.85114 0.54178 0.0
O101 O 0.71873 0.90833 0.44173 0.0
O102 O 0.74681 0.85081 0.38827 0.0
C103 C 0.91702 0.04043 0.47739 0.0
O104 O 0.79558 0.9414 0.57642 0.0
O105 O 0.78579 1.00057 0.51843 0.0
C106 C 0.78514 0.80755 0.52022 0.0
O107 O 0.90797 1.00327 0.52004 0.0
O108 O 0.87421 0.03764 0.44472 0.0
C109 C 0.84597 0.97895 0.34126 0.0
Fe110 Fe 0.08746 0.92352 0.53373 0.0
Fe111 Fe 0.03794 0.8227 0.44393 0.0
O112 O 0.0871 0.89976 0.46196 0.0
Fe113 Fe 0.1365 0.95246 0.40755 0.0
O114 O 0.11882 0.01205 0.41841 0.0
O115 O 0.11092 1.00147 0.51374 0.0
O116 O 0.00966 0.90725 0.52002 0.0
C117 C 0.97251 0.87915 0.47737 0.0
C118 C 0.2054 0.98018 0.52021 0.0
O119 O 0.97531 0.83914 0.44468 0.0
C120 C 0.15241 0.84816 0.41053 0.0
O121 O 0.07156 0.85674 0.57638 0.0
O122 O 0.01236 0.7878 0.5184 0.0
O123 O 0.20196 0.9923 0.4644 0.0
O124 O 0.16181 0.93472 0.54178 0.0
C125 C 0.03402 0.86961 0.34123 0.0
O126 O 0.10462 0.81298 0.44172 0.0
O127 O 0.16214 0.89857 0.38825 0.0
C128 C 0.02986 0.80463 0.57094 0.0
O129 O 0.0457 0.83315 0.36523 0.0
O130 O 0.07298 0.92462 0.34997 0.0
C131 C 0.12004 0.03333 0.46864 0.0
Fe132 Fe 0.84646 0.9235 1.03372 0.0
Fe133 Fe 0.79516 0.82265 0.94393 0.0
O134 O 0.82305 0.89972 0.96196 0.0
Fe135 Fe 0.82636 0.95241 0.90753 0.0
O136 O 0.90363 0.012 0.91838 0.0
O137 O 0.90089 1.00146 1.01372 0.0
O138 O 0.90802 0.90729 1.01999 0.0
C139 C 0.91706 0.87915 0.97736 0.0
C140 C 0.7851 0.98005 1.02016 0.0
O141 O 0.87425 0.83911 0.94471 0.0
C142 C 0.70614 0.8481 0.91049 0.0
O143 O 0.79566 0.85674 0.07641 0.0
O144 O 0.78581 0.78773 1.01839 0.0
O145 O 0.80072 0.99224 0.96437 0.0
O146 O 0.78327 0.93463 1.04178 0.0
C147 C 0.84605 0.86957 0.84127 0.0
O148 O 0.71876 0.81292 0.94168 0.0
O149 O 0.74683 0.89851 0.88822 0.0
C150 C 0.78518 0.80461 0.07092 0.0
O151 O 0.79788 0.83312 0.86524 0.0
O152 O 0.86205 0.92458 0.84995 0.0
C153 C 0.92366 0.03331 0.96862 0.0
Fe154 Fe 0.19032 0.97509 0.94392 0.0
Fe155 Fe 0.06056 0.87652 0.90753 0.0
O156 O 0.11325 0.92591 0.96195 0.0
Fe157 Fe 0.08947 0.92554 1.03372 0.0
O158 O 0.10569 1.00332 1.01999 0.0
O159 O 0.17386 0.03772 0.94469 0.0
O160 O 0.17984 0.96734 0.86523 0.0
C161 C 0.14339 0.97904 0.84127 0.0
C162 C 0.20837 0.98316 0.07091 0.0
O163 O 0.08838 0.94003 0.84994 0.0
C164 C 0.03292 0.80764 1.02016 0.0
O165 O 0.20006 0.90843 0.94169 0.0
O166 O 0.11446 0.8509 0.88823 0.0
O167 O 0.15624 0.94151 0.0764 0.0
O168 O 0.22524 1.00068 1.01839 0.0
C169 C 0.97966 0.89292 0.96861 0.0
O170 O 0.02073 0.81105 0.96437 0.0
O171 O 0.07833 0.85122 1.04179 0.0
C172 C 0.16488 0.86063 0.9105 0.0
O173 O 1.00096 0.89418 0.91838 0.0
O174 O 0.01151 0.90202 1.01372 0.0
C175 C 0.13382 0.04049 0.97735 0.0
Fe176 Fe 0.08744 0.16651 1.03373 0.0
Fe177 Fe 0.03788 0.21781 0.94395 0.0
O178 O 0.08706 0.18993 0.96197 0.0
Fe179 Fe 0.13645 0.18662 0.90754 0.0
O180 O 0.11878 0.10936 0.91838 0.0
O181 O 0.11097 0.11208 1.01372 0.0
O182 O 0.00966 0.10495 1.02 0.0
C183 C 0.97249 0.09591 0.97737 0.0
C184 C 0.20534 0.22787 1.02016 0.0
O185 O 0.97525 0.13872 0.94472 0.0
C186 C 0.15234 0.30683 0.91051 0.0
O187 O 0.07146 0.2173 0.07643 0.0
O188 O 0.0123 0.22715 1.01841 0.0
O189 O 0.20192 0.21226 0.96437 0.0
O190 O 0.16175 0.2297 1.0418 0.0
C191 C 0.03391 0.16693 0.84128 0.0
O192 O 0.10455 0.29421 0.9417 0.0
O193 O 0.16207 0.26615 0.88824 0.0
C194 C 0.02982 0.22778 0.07094 0.0
O195 O 0.04562 0.21509 0.86525 0.0
O196 O 0.07292 0.15093 0.84996 0.0
C197 C 0.12005 0.08932 0.96861 0.0
Fe198 Fe 0.92615 0.84384 0.60539 0.0
Fe199 Fe 0.8253 0.7925 0.69519 0.0
O200 O 0.90237 0.82041 0.67715 0.0
Fe201 Fe 0.95509 0.82376 0.73157 0.0
O202 O 0.01466 0.90104 0.7207 0.0
O203 O 1.00411 0.89829 0.62537 0.0
O204 O 0.90991 0.90538 0.61911 0.0
C205 C 0.88175 0.9144 0.66174 0.0
C206 C 0.98272 0.78252 0.61894 0.0
O207 O 0.84172 0.87158 0.69438 0.0
C208 C 0.85076 0.70351 0.72872 0.0
O209 O 0.85939 0.79304 0.56268 0.0
O210 O 0.79036 0.78311 0.62072 0.0
O211 O 0.99493 0.79814 0.67472 0.0
O212 O 0.93729 0.78066 0.59733 0.0
C213 C 0.87222 0.8434 0.79786 0.0
O214 O 0.81559 0.7161 0.69748 0.0
O215 O 0.90122 0.74423 0.75091 0.0
C216 C 0.80726 0.78252 0.56819 0.0
O217 O 0.83576 0.79525 0.77388 0.0
O218 O 0.92723 0.85944 0.78914 0.0
C219 C 0.03596 0.92107 0.67047 0.0
Fe220 Fe 0.18918 0.13389 0.73158 0.0
Fe221 Fe 0.16911 0.0849 0.60539 0.0
O222 O 0.19254 0.08453 0.67715 0.0
Fe223 Fe 0.22046 0.03538 0.69518 0.0
O224 O 0.2177 0.04307 0.77387 0.0
O225 O 0.1535 0.07034 0.78914 0.0
O226 O 0.1119 0.11617 0.72072 0.0
C227 C 0.09188 0.11747 0.67049 0.0
C228 C 0.30943 0.14982 0.72874 0.0
O229 O 0.11467 0.10842 0.62538 0.0
C230 C 0.23043 0.02733 0.56817 0.0
O231 O 0.2148 0.19936 0.67475 0.0
O232 O 0.2323 0.15921 0.59735 0.0
O233 O 0.29686 0.10208 0.69749 0.0
O234 O 0.26871 0.15955 0.75093 0.0
C235 C 0.09855 0.96993 0.66172 0.0
O236 O 0.21989 0.06893 0.56267 0.0
O237 O 0.22987 0.00986 0.6207 0.0
C238 C 0.23044 0.20278 0.61896 0.0
O239 O 0.10756 0.00712 0.61911 0.0
O240 O 0.14138 0.97272 0.69435 0.0
C241 C 0.16955 0.03137 0.79785 0.0
Fe242 Fe 0.92806 0.0868 0.6054 0.0
Fe243 Fe 0.97757 0.18765 0.6952 0.0
O244 O 0.92842 0.11058 0.67717 0.0
Fe245 Fe 0.87906 0.05787 0.73159 0.0
O246 O 0.89677 0.9983 0.72072 0.0
O247 O 0.90455 0.00884 0.62539 0.0
O248 O 1.00584 0.10304 0.61912 0.0
C249 C 0.04302 0.1312 0.66174 0.0
C250 C 0.81016 0.03022 0.61897 0.0
O251 O 0.04023 0.17123 0.69439 0.0
C252 C 0.86312 0.16218 0.72874 0.0
O253 O 0.94401 0.15355 0.56269 0.0
O254 O 1.00311 0.22258 0.62073 0.0
O255 O 0.81359 0.01801 0.67475 0.0
O256 O 0.85373 0.07566 0.59736 0.0
C257 C 0.98157 0.14075 0.79787 0.0
O258 O 0.91088 0.19735 0.6975 0.0
O259 O 0.85339 0.11173 0.75094 0.0
C260 C 0.98563 0.20568 0.5682 0.0
O261 O 0.96986 0.1772 0.77389 0.0
O262 O 0.94261 0.08573 0.78915 0.0
C263 C 0.89549 0.97699 0.67049 0.0
Fe264 Fe 0.85588 0.39128 0.56518 0.0
Fe265 Fe 0.83578 0.42022 0.439 0.0
O266 O 0.85916 0.44397 0.51077 0.0
Fe267 Fe 0.88703 0.52103 0.52881 0.0
O268 O 0.88435 0.51057 0.60751 0.0
O269 O 0.82019 0.4191 0.62279 0.0
O270 O 0.77861 0.33169 0.55433 0.0
C271 C 0.75855 0.3104 0.50409 0.0
C272 C 0.97607 0.49561 0.56217 0.0
O273 O 0.7813 0.34226 0.45899 0.0
C274 C 0.89706 0.53912 0.40181 0.0
O275 O 0.8815 0.35146 0.50833 0.0
O276 O 0.89893 0.40903 0.43095 0.0
O277 O 0.96344 0.53078 0.53101 0.0
O278 O 0.9354 0.44519 0.58446 0.0
C279 C 0.76514 0.46452 0.49539 0.0
O280 O 0.88667 0.48702 0.39638 0.0
O281 O 0.89633 0.55593 0.45435 0.0
C282 C 0.89708 0.36358 0.45252 0.0
O283 O 0.77423 0.43646 0.45271 0.0
O284 O 0.80793 0.50454 0.52807 0.0
C285 C 0.8362 0.47411 0.63149 0.0
Fe286 Fe 0.5927 0.41812 0.43907 0.0
Fe287 Fe 0.4919 0.36859 0.52888 0.0
O288 O 0.56896 0.41777 0.51084 0.0
Fe289 Fe 0.62166 0.46717 0.56524 0.0
O290 O 0.68126 0.44951 0.55439 0.0
O291 O 0.67064 0.44154 0.45905 0.0
O292 O 0.57639 0.34031 0.45277 0.0
C293 C 0.54835 0.30317 0.49546 0.0
C294 C 0.6494 0.53607 0.4526 0.0
O295 O 0.50837 0.30597 0.52818 0.0
C296 C 0.51734 0.48306 0.5622 0.0
O297 O 0.5259 0.40226 0.39647 0.0
O298 O 0.45701 0.34295 0.45442 0.0
O299 O 0.66149 0.53262 0.50841 0.0
O300 O 0.60395 0.49249 0.43101 0.0
C301 C 0.53881 0.36469 0.63157 0.0
O302 O 0.48216 0.43525 0.53104 0.0
O303 O 0.56774 0.49279 0.58452 0.0
C304 C 0.47381 0.3605 0.40188 0.0
O305 O 0.50237 0.3764 0.60758 0.0
O306 O 0.59383 0.40366 0.62284 0.0
C307 C 0.70252 0.4507 0.50415 0.0
Fe308 Fe 0.59476 0.17718 0.43904 0.0
Fe309 Fe 0.64435 0.12591 0.52878 0.0
O310 O 0.59516 0.15378 0.51079 0.0
Fe311 Fe 0.54576 0.15705 0.56523 0.0
O312 O 0.56342 0.23431 0.55441 0.0
O313 O 0.57124 0.23162 0.45906 0.0
O314 O 0.67254 0.23875 0.45273 0.0
C315 C 0.70973 0.24781 0.49535 0.0
C316 C 0.47684 0.11585 0.45258 0.0
O317 O 0.70697 0.205 0.52801 0.0
C318 C 0.5299 0.03686 0.56218 0.0
O319 O 0.61072 0.12638 0.39633 0.0
O320 O 0.6699 0.11658 0.4543 0.0
O321 O 0.48029 0.13142 0.50839 0.0
O322 O 0.52043 0.11399 0.43101 0.0
C323 C 0.64831 0.17676 0.63147 0.0
O324 O 0.5777 0.0495 0.531 0.0
O325 O 0.52016 0.07753 0.58449 0.0
C326 C 0.6524 0.11594 0.40177 0.0
O327 O 0.63664 0.12862 0.60748 0.0
O328 O 0.60927 0.19272 0.62282 0.0
C329 C 0.56215 0.25436 0.50418 0.0
Fe330 Fe 0.72719 0.51993 0.74125 0.0
Fe331 Fe 0.75612 0.49986 0.86743 0.0
O332 O 0.7799 0.52326 0.79566 0.0
Fe333 Fe 0.85696 0.55115 0.77764 0.0
O334 O 0.84651 0.5484 0.69894 0.0
O335 O 0.75503 0.48423 0.68368 0.0
O336 O 0.6676 0.44266 0.75212 0.0
C337 C 0.64629 0.42263 0.80236 0.0
C338 C 0.83153 0.64016 0.7441 0.0
O339 O 0.67815 0.4454 0.84746 0.0
C340 C 0.87502 0.56114 0.90466 0.0
O341 O 0.68737 0.54557 0.79809 0.0
O342 O 0.74499 0.56305 0.87544 0.0
O343 O 0.8667 0.62757 0.77534 0.0
O344 O 0.78108 0.59945 0.7219 0.0
C345 C 0.80048 0.42926 0.8111 0.0
O346 O 0.82289 0.55068 0.91011 0.0
O347 O 0.89188 0.56053 0.85211 0.0
C348 C 0.69951 0.56116 0.8539 0.0
O349 O 0.77235 0.4383 0.85373 0.0
O350 O 0.84052 0.47207 0.77844 0.0
C351 C 0.81005 0.50026 0.67495 0.0
Fe352 Fe 0.49302 0.20986 0.74128 0.0
Fe353 Fe 0.51309 0.25885 0.86746 0.0
O354 O 0.48968 0.25922 0.7957 0.0
Fe355 Fe 0.46178 0.30838 0.77767 0.0
O356 O 0.4645 0.30066 0.69897 0.0
O357 O 0.52871 0.2734 0.68372 0.0
O358 O 0.5703 0.22754 0.75215 0.0
C359 C 0.59033 0.22627 0.80239 0.0
C360 C 0.37278 0.19394 0.74415 0.0
O361 O 0.56756 0.23535 0.84749 0.0
C362 C 0.45181 0.31646 0.9047 0.0
O363 O 0.46739 0.14438 0.79812 0.0
O364 O 0.44991 0.18452 0.87548 0.0
O365 O 0.38537 0.24169 0.77539 0.0
O366 O 0.4135 0.18421 0.72194 0.0
C367 C 0.58368 0.3738 0.81112 0.0
O368 O 0.46225 0.27479 0.91014 0.0
O369 O 0.45242 0.33393 0.85215 0.0
C370 C 0.4518 0.14094 0.85393 0.0
O371 O 0.57464 0.33664 0.85376 0.0
O372 O 0.54087 0.37102 0.77846 0.0
C373 C 0.51265 0.31235 0.67498 0.0
Fe374 Fe 0.70456 0.15599 0.77766 0.0
Fe375 Fe 0.80311 0.28575 0.74125 0.0
O376 O 0.75373 0.23305 0.79568 0.0
Fe377 Fe 0.75413 0.25684 0.86744 0.0
O378 O 0.67634 0.24062 0.85376 0.0
O379 O 0.64193 0.17245 0.77848 0.0
O380 O 0.71224 0.16642 0.69896 0.0
C381 C 0.70058 0.20289 0.67497 0.0
C382 C 0.6965 0.13795 0.90469 0.0
O383 O 0.73957 0.2579 0.68368 0.0
C384 C 0.87203 0.31344 0.85389 0.0
O385 O 0.77123 0.14625 0.77535 0.0
O386 O 0.82874 0.23186 0.72191 0.0
O387 O 0.73817 0.19007 0.91013 0.0
O388 O 0.67904 0.12109 0.85214 0.0
C389 C 0.78671 0.36665 0.80236 0.0
O390 O 0.86858 0.32558 0.79809 0.0
O391 O 0.82845 0.26797 0.87544 0.0
C392 C 0.819 0.18141 0.74412 0.0
O393 O 0.78543 0.34534 0.75212 0.0
O394 O 0.77764 0.33481 0.84746 0.0
C395 C 0.63916 0.21249 0.81113 0.0
Fe396 Fe 0.51312 0.25687 0.36742 0.0
Fe397 Fe 0.46178 0.15603 0.27762 0.0
O398 O 0.4897 0.23309 0.29565 0.0
Fe399 Fe 0.49306 0.28581 0.24123 0.0
O400 O 0.57034 0.34537 0.25211 0.0
O401 O 0.56754 0.33485 0.34744 0.0
O402 O 0.57469 0.24068 0.35369 0.0
C403 C 0.58371 0.21251 0.31107 0.0
C404 C 0.45177 0.3134 0.35386 0.0
O405 O 0.54087 0.17246 0.27844 0.0
C406 C 0.3728 0.18151 0.24409 0.0
O407 O 0.46235 0.19012 0.41013 0.0
O408 O 0.45238 0.12108 0.35208 0.0
O409 O 0.46742 0.32564 0.29808 0.0
O410 O 0.44991 0.26797 0.37545 0.0
C411 C 0.51271 0.20293 0.17498 0.0
O412 O 0.38538 0.14632 0.27532 0.0
O413 O 0.41352 0.23195 0.22188 0.0
C414 C 0.45181 0.13798 0.40462 0.0
O415 O 0.46454 0.1665 0.19894 0.0
O416 O 0.52874 0.25795 0.18366 0.0
C417 C 0.59035 0.36669 0.30235 0.0
Fe418 Fe 0.72718 0.20984 0.24117 0.0
Fe419 Fe 0.75613 0.25885 0.36735 0.0
O420 O 0.7799 0.2592 0.29559 0.0
Fe421 Fe 0.85697 0.30834 0.27755 0.0
O422 O 0.84649 0.30058 0.19886 0.0
O423 O 0.75505 0.27339 0.18361 0.0
O424 O 0.66761 0.22755 0.25205 0.0
C425 C 0.64631 0.22628 0.30229 0.0
C426 C 0.83146 0.19386 0.24406 0.0
O427 O 0.67817 0.23536 0.34738 0.0
C428 C 0.87501 0.31643 0.40455 0.0
O429 O 0.68733 0.14437 0.298 0.0
O430 O 0.74498 0.18453 0.3754 0.0
O431 O 0.86665 0.24163 0.27528 0.0
O432 O 0.78104 0.18417 0.22182 0.0
C433 C 0.80054 0.37381 0.31099 0.0
O434 O 0.82289 0.27479 0.41004 0.0
O435 O 0.89191 0.33391 0.35202 0.0
C436 C 0.69954 0.14095 0.35378 0.0
O437 O 0.77239 0.33664 0.35363 0.0
O438 O 0.84057 0.37101 0.27834 0.0
C439 C 0.81007 0.31234 0.1749 0.0
Fe440 Fe 0.80315 0.51994 0.24118 0.0
Fe441 Fe 0.75419 0.49984 0.36738 0.0
O442 O 0.75379 0.52328 0.29564 0.0
Fe443 Fe 0.70464 0.5512 0.27766 0.0
O444 O 0.7123 0.54841 0.19897 0.0
O445 O 0.73961 0.48427 0.18362 0.0
O446 O 0.78545 0.44266 0.25203 0.0
C447 C 0.78681 0.42266 0.30225 0.0
C448 C 0.8191 0.64018 0.24407 0.0
O449 O 0.77779 0.44546 0.34736 0.0
C450 C 0.69658 0.56112 0.40467 0.0
O451 O 0.86864 0.54558 0.29802 0.0
O452 O 0.82848 0.56309 0.37539 0.0
O453 O 0.77134 0.6276 0.27531 0.0
O454 O 0.82881 0.59947 0.22185 0.0
C455 C 0.63922 0.42927 0.3111 0.0
O456 O 0.73815 0.55051 0.41018 0.0
O457 O 0.67916 0.56064 0.35213 0.0
C458 C 0.87206 0.56123 0.3538 0.0
O459 O 0.67644 0.43825 0.35367 0.0
O460 O 0.64198 0.47212 0.27851 0.0
C461 C 0.70057 0.50025 0.175 0.0
Fe462 Fe 0.62172 0.15709 1.06529 0.0
Fe463 Fe 0.59279 0.1772 0.93911 0.0
O464 O 0.56902 0.15379 1.01087 0.0
Fe465 Fe 0.49196 0.1259 1.02891 0.0
O466 O 0.50242 0.12858 0.1076 0.0
O467 O 0.59389 0.19278 0.12287 0.0
O468 O 0.68131 0.23436 1.05445 0.0
C469 C 0.7026 0.2544 1.00422 0.0
C470 C 0.51742 0.03688 1.06225 0.0
O471 O 0.67076 0.23165 0.95911 0.0
C472 C 0.47391 0.11592 0.90192 0.0
O473 O 0.66156 0.13147 1.00845 0.0
O474 O 0.60394 0.11402 0.93104 0.0
O475 O 0.48224 0.0495 1.03109 0.0
O476 O 0.56782 0.07756 0.08457 0.0
C477 C 0.54843 0.24778 0.99549 0.0
O478 O 0.52602 0.12638 0.89643 0.0
O479 O 0.45704 0.11658 0.95445 0.0
C480 C 0.64936 0.11585 0.95266 0.0
O481 O 0.57656 0.23874 0.95284 0.0
O482 O 0.50842 0.20498 1.02817 0.0
C483 C 0.53887 0.17673 0.1316 0.0
Fe484 Fe 0.85589 0.4672 1.06525 0.0
Fe485 Fe 0.83578 0.41817 0.93908 0.0
O486 O 0.8592 0.41782 1.01084 0.0
Fe487 Fe 0.8871 0.36865 1.02887 0.0
O488 O 0.88444 0.37645 0.10757 0.0
O489 O 0.82021 0.40368 0.12282 0.0
O490 O 0.77862 0.44951 1.05442 0.0
C491 C 0.75857 0.45076 1.00419 0.0
C492 C 0.97611 0.48314 1.06221 0.0
O493 O 0.78132 0.44167 0.95908 0.0
C494 C 0.89706 0.36056 0.90189 0.0
O495 O 0.8815 0.53266 1.00841 0.0
O496 O 0.89895 0.49249 0.931 0.0
O497 O 0.96349 0.43533 1.03104 0.0
O498 O 0.93543 0.49285 0.08453 0.0
C499 C 0.7652 0.30323 0.99547 0.0
O500 O 0.88661 0.40223 0.8964 0.0
O501 O 0.89639 0.34303 0.95441 0.0
C502 C 0.89712 0.53608 0.95263 0.0
O503 O 0.77425 0.34038 0.95281 0.0
O504 O 0.80801 0.30603 1.02815 0.0
C505 C 0.83629 0.36475 0.13157 0.0
Fe506 Fe 0.59478 0.42017 0.9391 0.0
Fe507 Fe 0.64433 0.52101 1.02889 0.0
O508 O 0.59515 0.44395 1.01086 0.0
Fe509 Fe 0.54576 0.39126 1.06528 0.0
O510 O 0.56344 0.33168 1.05445 0.0
O511 O 0.57127 0.34221 0.95911 0.0
O512 O 0.67256 0.4364 0.95282 0.0
C513 C 0.70973 0.46452 0.99546 0.0
C514 C 0.47687 0.36361 0.95266 0.0
O515 O 0.70695 0.50454 1.02814 0.0
C516 C 0.52985 0.49555 1.06224 0.0
O517 O 0.61073 0.48693 0.89641 0.0
O518 O 0.66993 0.55592 0.95442 0.0
O519 O 0.48029 0.35141 1.00845 0.0
O520 O 0.52046 0.40903 0.93104 0.0
C521 C 0.64825 0.47411 0.13158 0.0
O522 O 0.57766 0.53074 1.03108 0.0
O523 O 0.52012 0.44516 0.08456 0.0
C524 C 0.6524 0.53905 0.9019 0.0
O525 O 0.63657 0.51057 0.10758 0.0
O526 O 0.60927 0.4191 0.12287 0.0
C527 C 0.56219 0.31037 1.00422 0.0
Fe528 Fe 0.52255 0.72461 0.89828 0.0
Fe529 Fe 0.50246 0.75353 0.7721 0.0
O530 O 0.52586 0.7773 0.84386 0.0
Fe531 Fe 0.55377 0.85437 0.86187 0.0
O532 O 0.55109 0.84392 0.94056 0.0
O533 O 0.48689 0.75247 0.95586 0.0
O534 O 0.44528 0.66503 0.88743 0.0
C535 C 0.42524 0.64372 0.8372 0.0
C536 C 0.64278 0.8289 0.89526 0.0
O537 O 0.44799 0.67557 0.79209 0.0
C538 C 0.56373 0.87242 0.73486 0.0
O539 O 0.54817 0.68477 0.84144 0.0
O540 O 0.56565 0.74239 0.76409 0.0
O541 O 0.63017 0.86408 0.86408 0.0
O542 O 0.60209 0.7785 0.91756 0.0
C543 C 0.43186 0.79788 0.82845 0.0
O544 O 0.5533 0.8203 0.72942 0.0
O545 O 0.56308 0.88926 0.7874 0.0
C546 C 0.56376 0.69692 0.78564 0.0
O547 O 0.44091 0.76977 0.7858 0.0
O548 O 0.47467 0.83791 0.86112 0.0
C549 C 0.50293 0.80749 0.96456 0.0
Fe550 Fe 0.28837 0.80053 0.89829 0.0
Fe551 Fe 0.25944 0.75151 0.77211 0.0
O552 O 0.23567 0.75114 0.84388 0.0
Fe553 Fe 0.15861 0.70198 0.8619 0.0
O554 O 0.16906 0.70975 0.94059 0.0
O555 O 0.26052 0.73701 0.95588 0.0
O556 O 0.34796 0.78285 0.88744 0.0
C557 C 0.36925 0.7841 0.8372 0.0
C558 C 0.18407 0.81646 0.89528 0.0
O559 O 0.3374 0.77501 0.7921 0.0
C560 C 0.14054 0.69388 0.73489 0.0
O561 O 0.3282 0.86599 0.84145 0.0
O562 O 0.27058 0.82584 0.7641 0.0
O563 O 0.14889 0.76866 0.86411 0.0
O564 O 0.23447 0.82617 0.91758 0.0
C565 C 0.21508 0.63656 0.82847 0.0
O566 O 0.19265 0.73558 0.72945 0.0
O567 O 0.1237 0.6764 0.78743 0.0
C568 C 0.31605 0.86942 0.78565 0.0
O569 O 0.24319 0.67372 0.78581 0.0
O570 O 0.17506 0.63935 0.86114 0.0
C571 C 0.2055 0.69803 0.96457 0.0
Fe572 Fe 0.21244 0.49042 0.89829 0.0
Fe573 Fe 0.26145 0.51051 0.77211 0.0
O574 O 0.26183 0.48711 0.84387 0.0
Fe575 Fe 0.31099 0.45921 0.86188 0.0
O576 O 0.30323 0.4619 0.94057 0.0
O577 O 0.27596 0.52608 0.95588 0.0
O578 O 0.23012 0.56769 0.88744 0.0
C579 C 0.22886 0.58773 0.83721 0.0
C580 C 0.19651 0.3702 0.89528 0.0
O581 O 0.23795 0.56497 0.7921 0.0
C582 C 0.31907 0.44924 0.73487 0.0
O583 O 0.14697 0.4648 0.84145 0.0
O584 O 0.18712 0.44733 0.7641 0.0
O585 O 0.24431 0.38281 0.8641 0.0
O586 O 0.18679 0.41088 0.91758 0.0
C587 C 0.3764 0.58111 0.82846 0.0
O588 O 0.27738 0.45967 0.72943 0.0
O589 O 0.33656 0.44989 0.78741 0.0
C590 C 0.14353 0.44921 0.78565 0.0
O591 O 0.33924 0.57206 0.78581 0.0
O592 O 0.37362 0.5383 0.86112 0.0
C593 C 0.31494 0.51005 0.96457 0.0
Fe594 Fe 0.42286 0.83319 0.20047 0.0
Fe595 Fe 0.52368 0.88445 0.11068 0.0
O596 O 0.44663 0.85658 0.12871 0.0
Fe597 Fe 0.39394 0.8533 0.0743 0.0
O598 O 0.33433 0.77605 0.08514 0.0
O599 O 0.3449 0.77872 0.18047 0.0
O600 O 0.43911 0.77165 0.18676 0.0
C601 C 0.46718 0.76257 0.14409 0.0
C602 C 0.36625 0.89451 0.18694 0.0
O603 O 0.50719 0.80535 0.11139 0.0
C604 C 0.49825 0.9735 0.07738 0.0
O605 O 0.48966 0.88406 0.24312 0.0
O606 O 0.55857 0.89371 0.18515 0.0
O607 O 0.35411 0.87894 0.13114 0.0
O608 O 0.41171 0.89637 0.2085 0.0
C609 C 0.47679 0.83369 1.00796 0.0
O610 O 0.53343 0.96086 0.10853 0.0
O611 O 0.44786 0.93283 1.05504 0.0
C612 C 0.54175 0.89441 0.23769 0.0
O613 O 0.51325 0.88181 1.03198 0.0
O614 O 0.42177 0.81762 1.01672 0.0
C615 C 0.31304 0.75599 0.13537 0.0
Fe616 Fe 0.12853 0.64181 0.11069 0.0
Fe617 Fe 0.15968 0.54323 0.07431 0.0
O618 O 0.1564 0.59263 0.12872 0.0
Fe619 Fe 0.17978 0.59225 0.20048 0.0
O620 O 0.24134 0.67003 0.18678 0.0
O621 O 0.20763 0.70441 0.11142 0.0
O622 O 0.13118 0.63402 1.032 0.0
C623 C 0.17931 0.64569 1.00798 0.0
C624 C 0.11855 0.64991 0.2377 0.0
O625 O 0.19537 0.60674 1.01673 0.0
C626 C 0.11845 0.47433 0.18695 0.0
O627 O 0.05212 0.57515 0.10852 0.0
O628 O 0.08016 0.51761 1.05503 0.0
O629 O 0.12893 0.60819 0.24313 0.0
O630 O 0.11925 0.66742 0.18516 0.0
C631 C 0.25698 0.55963 0.13539 0.0
O632 O 0.13404 0.47776 0.13115 0.0
O633 O 0.1166 0.51793 0.20851 0.0
C634 C 0.03948 0.52734 0.07736 0.0
O635 O 0.23694 0.56088 0.08515 0.0
O636 O 0.23424 0.56874 0.18049 0.0
C637 C 0.25042 0.70718 0.14411 0.0
Fe638 Fe 0.37117 0.4893 0.11071 0.0
Fe639 Fe 0.46976 0.61903 0.0743 0.0
O640 O 0.42035 0.56636 0.12872 0.0
Fe641 Fe 0.42074 0.59014 0.20047 0.0
O642 O 0.34297 0.57393 0.18677 0.0
O643 O 0.30856 0.5058 0.11144 0.0
O644 O 0.37893 0.49973 1.03201 0.0
C645 C 0.36727 0.53619 1.00799 0.0
C646 C 0.36307 0.47125 0.23771 0.0
O647 O 0.40624 0.5912 1.01672 0.0
C648 C 0.53866 0.64671 0.18694 0.0
O649 O 0.43783 0.47955 0.10853 0.0
O650 O 0.49537 0.56511 1.05503 0.0
O651 O 0.40478 0.52336 0.24315 0.0
O652 O 0.34557 0.45442 0.18517 0.0
C653 C 0.45338 0.69995 0.13536 0.0
O654 O 0.53522 0.65886 0.13114 0.0
O655 O 0.49506 0.60125 0.20849 0.0
C656 C 0.48564 0.51473 0.07737 0.0
O657 O 0.45211 0.67864 0.08513 0.0
O658 O 0.44427 0.66811 0.18047 0.0
C659 C 0.3058 0.54583 0.14412 0.0
Fe660 Fe 0.12847 0.48934 0.61069 0.0
Fe661 Fe 0.15967 0.6191 0.57429 0.0
O662 O 0.15637 0.5664 0.62871 0.0
Fe663 Fe 0.17978 0.59018 0.70047 0.0
O664 O 0.24132 0.57395 0.68674 0.0
O665 O 0.20756 0.5058 0.61142 0.0
O666 O 0.13113 0.4998 0.532 0.0
C667 C 0.17929 0.53623 0.50801 0.0
C668 C 0.1185 0.4713 0.73766 0.0
O669 O 0.19532 0.59124 0.51669 0.0
C670 C 0.11844 0.64675 0.68691 0.0
O671 O 0.05207 0.47962 0.6085 0.0
O672 O 0.08012 0.5652 0.55502 0.0
O673 O 0.12896 0.52342 0.74316 0.0
O674 O 0.11916 0.45443 0.68514 0.0
C675 C 0.25699 0.69998 0.63535 0.0
O676 O 0.13406 0.65895 0.63113 0.0
O677 O 0.1166 0.60132 0.70852 0.0
C678 C 0.03945 0.5148 0.57734 0.0
O679 O 0.23694 0.67868 0.58512 0.0
O680 O 0.23423 0.66814 0.68046 0.0
C681 C 0.25037 0.54583 0.64409 0.0
Fe682 Fe 0.42278 0.59219 0.70045 0.0
Fe683 Fe 0.52361 0.64173 0.61067 0.0
O684 O 0.44655 0.59256 0.62869 0.0
Fe685 Fe 0.39386 0.54316 0.57427 0.0
O686 O 0.33427 0.56084 0.58511 0.0
O687 O 0.34482 0.56869 0.68045 0.0
O688 O 0.43902 0.66998 0.68673 0.0
C689 C 0.46713 0.70714 0.64407 0.0
C690 C 0.36621 0.47429 0.68689 0.0
O691 O 0.50715 0.70435 0.6114 0.0
C692 C 0.49815 0.52725 0.57734 0.0
O693 O 0.48955 0.60814 0.74313 0.0
O694 O 0.55853 0.66734 0.68512 0.0
O695 O 0.35401 0.4777 0.63111 0.0
O696 O 0.41164 0.51788 0.70851 0.0
C697 C 0.47672 0.64564 0.50799 0.0
O698 O 0.53334 0.57506 0.60849 0.0
O699 O 0.44776 0.51752 0.55501 0.0
C700 C 0.54166 0.6498 0.73764 0.0
O701 O 0.51315 0.63392 0.53198 0.0
O702 O 0.4217 0.60667 0.51668 0.0
C703 C 0.31297 0.55959 0.63534 0.0
Fe704 Fe 0.4698 0.85328 0.57427 0.0
Fe705 Fe 0.42078 0.83317 0.70045 0.0
O706 O 0.4204 0.85658 0.6287 0.0
Fe707 Fe 0.37123 0.88447 0.61068 0.0
O708 O 0.37902 0.8818 0.53199 0.0
O709 O 0.40629 0.81762 0.51668 0.0
O710 O 0.45211 0.77601 0.5851 0.0
C711 C 0.45336 0.75597 0.63533 0.0
C712 C 0.48572 0.97349 0.57734 0.0
O713 O 0.44428 0.77872 0.68044 0.0
C714 C 0.36317 0.89445 0.73765 0.0
O715 O 0.53526 0.87889 0.63111 0.0
O716 O 0.4951 0.89635 0.7085 0.0
O717 O 0.43791 0.96087 0.6085 0.0
O718 O 0.49544 0.93282 0.55501 0.0
C719 C 0.30583 0.76258 0.64409 0.0
O720 O 0.40483 0.88399 0.74315 0.0
O721 O 0.34563 0.89378 0.68514 0.0
C722 C 0.53868 0.89451 0.68689 0.0
O723 O 0.34299 0.77163 0.68674 0.0
O724 O 0.30861 0.80538 0.61142 0.0
C725 C 0.36731 0.83365 0.508 0.0
Fe726 Fe 0.25939 0.51051 0.27213 0.0
Fe727 Fe 0.15855 0.45922 0.36192 0.0
O728 O 0.23561 0.4871 0.34389 0.0
Fe729 Fe 0.28831 0.49041 0.39831 0.0
O730 O 0.3479 0.56768 0.38746 0.0
O731 O 0.33736 0.56495 0.29213 0.0
O732 O 0.24317 0.57206 0.28585 0.0
C733 C 0.21505 0.58112 0.3285 0.0
C734 C 0.31594 0.44916 0.2857 0.0
O735 O 0.17503 0.53831 0.36117 0.0
C736 C 0.18399 0.37019 0.39531 0.0
O737 O 0.19262 0.4597 0.22944 0.0
O738 O 0.12364 0.44991 0.28746 0.0
O739 O 0.32815 0.46478 0.34148 0.0
O740 O 0.27051 0.44731 0.26409 0.0
C741 C 0.20545 0.51004 0.46462 0.0
O742 O 0.14881 0.38281 0.36413 0.0
O743 O 0.2344 0.41088 0.4176 0.0
C744 C 0.14051 0.44926 0.23493 0.0
O745 O 0.169 0.4619 0.44062 0.0
O746 O 0.26046 0.5261 0.45588 0.0
C747 C 0.36921 0.58771 0.33723 0.0
Fe748 Fe 0.52253 0.80047 0.3983 0.0
Fe749 Fe 0.50244 0.75146 0.27212 0.0
O750 O 0.52584 0.75109 0.34388 0.0
Fe751 Fe 0.55372 0.70191 0.36191 0.0
O752 O 0.55104 0.70968 0.4406 0.0
O753 O 0.48685 0.73695 0.45587 0.0
O754 O 0.44527 0.7828 0.38745 0.0
C755 C 0.42524 0.78408 0.33721 0.0
C756 C 0.64275 0.81637 0.39531 0.0
O757 O 0.44801 0.77501 0.29211 0.0
C758 C 0.5637 0.69383 0.23493 0.0
O759 O 0.54817 0.86594 0.34146 0.0
O760 O 0.56565 0.82577 0.26407 0.0
O761 O 0.63013 0.76858 0.36412 0.0
O762 O 0.60206 0.8261 0.41759 0.0
C763 C 0.43182 0.63653 0.32848 0.0
O764 O 0.55324 0.73549 0.22943 0.0
O765 O 0.56304 0.67631 0.28745 0.0
C766 C 0.56381 0.86935 0.28568 0.0
O767 O 0.44087 0.67369 0.28583 0.0
O768 O 0.47462 0.6393 0.36115 0.0
C769 C 0.5029 0.69799 0.4646 0.0
Fe770 Fe 0.26147 0.75353 0.27213 0.0
Fe771 Fe 0.31104 0.85439 0.3619 0.0
O772 O 0.26186 0.77733 0.34388 0.0
Fe773 Fe 0.21247 0.72464 0.39831 0.0
O774 O 0.23014 0.66504 0.38747 0.0
O775 O 0.23791 0.67556 0.29213 0.0
O776 O 0.33924 0.76972 0.28584 0.0
C777 C 0.37642 0.79786 0.32847 0.0
C778 C 0.14358 0.69703 0.28569 0.0
O779 O 0.37366 0.8379 0.36113 0.0
C780 C 0.19658 0.82896 0.39531 0.0
O781 O 0.27747 0.82029 0.22941 0.0
O782 O 0.33663 0.8893 0.28744 0.0
O783 O 0.147 0.68481 0.34147 0.0
O784 O 0.18717 0.74246 0.26409 0.0
C785 C 0.31497 0.80749 0.46459 0.0
O786 O 0.24438 0.86413 0.36412 0.0
O787 O 0.18685 0.77855 0.4176 0.0
C788 C 0.31912 0.87242 0.23491 0.0
O789 O 0.30329 0.84395 0.44059 0.0
O790 O 0.276 0.75248 0.45588 0.0
C791 C 0.22884 0.64372 0.33724 0.0
loop_
_geom_bond_atom_site_label_1
_geom_bond_atom_site_label_2
_geom_bond_distance
_geom_bond_site_symmetry_2
_ccdc_geom_bond_type
Fe0 O2 1.918 . S
Fe0 O5 1.997 . S
Fe0 O6 2.002 1_545 S
Fe0 O11 1.976 . S
Fe0 O14 1.996 . S
Fe1 O2 1.918 . S
Fe1 O9 1.997 1_545 S
Fe1 O12 1.996 . S
Fe1 O16 1.976 . S
Fe1 O19 2.002 . S
O2 Fe0 1.918 . S
O2 Fe1 1.918 . S
O2 Fe3 1.918 . S
Fe3 O2 1.918 . S
Fe3 O4 2.002 . S
Fe3 O13 1.976 . S
Fe3 O17 1.996 . S
Fe3 O20 1.997 . S
O4 Fe3 2.002 . S
O4 C21 1.295 . S
O5 Fe0 1.997 . S
O5 C21 1.235 . S
O6 Fe0 2.002 1_565 S
O6 C7 1.295 . S
C7 O6 1.295 . S
C7 O9 1.235 . S
C8 O13 1.287 . S
C8 O14 1.255 . S
O9 Fe1 1.997 1_565 S
O9 C7 1.235 . S
C10 O16 1.287 . S
C10 O17 1.255 . S
O11 Fe0 1.976 . S
O11 C18 1.287 . S
O12 Fe1 1.996 . S
O12 C18 1.255 . S
O13 Fe3 1.976 . S
O13 C8 1.287 . S
O14 Fe0 1.996 . S
O14 C8 1.255 . S
C15 O19 1.295 . S
C15 O20 1.235 . S
O16 Fe1 1.976 . S
O16 C10 1.287 . S
O17 Fe3 1.996 . S
O17 C10 1.255 . S
C18 O11 1.287 . S
C18 O12 1.255 . S
O19 Fe1 2.002 . S
O19 C15 1.295 . S
O20 Fe3 1.997 . S
O20 C15 1.235 . S
C21 O4 1.295 . S
C21 O5 1.235 . S
Fe22 O24 1.918 . S
Fe22 O27 1.997 1_655 S
Fe22 O28 2.002 1_545 S
Fe22 O33 1.976 . S
Fe22 O36 1.996 . S
Fe23 O24 1.918 . S
Fe23 O31 1.997 1_545 S
Fe23 O34 1.996 1_545 S
Fe23 O38 1.976 . S
Fe23 O41 2.002 . S
O24 Fe22 1.918 . S
O24 Fe23 1.918 . S
O24 Fe25 1.918 . S
Fe25 O24 1.918 . S
Fe25 O26 2.002 1_655 S
Fe25 O35 1.976 . S
Fe25 O39 1.996 . S
Fe25 O42 1.997 . S
O26 Fe25 2.002 1_455 S
O26 C43 1.295 . S
O27 Fe22 1.997 1_455 S
O27 C43 1.235 . S
O28 Fe22 2.002 1_565 S
O28 C29 1.295 . S
C29 O28 1.295 . S
C29 O31 1.235 . S
C30 O35 1.287 . S
C30 O36 1.255 . S
O31 Fe23 1.997 1_565 S
O31 C29 1.235 . S
C32 O38 1.287 . S
C32 O39 1.255 . S
O33 Fe22 1.976 . S
O33 C40 1.287 1_545 S
O34 Fe23 1.996 1_565 S
O34 C40 1.255 . S
O35 Fe25 1.976 . S
O35 C30 1.287 . S
O36 Fe22 1.996 . S
O36 C30 1.255 . S
C37 O41 1.295 . S
C37 O42 1.235 . S
O38 Fe23 1.976 . S
O38 C32 1.287 . S
O39 Fe25 1.996 . S
O39 C32 1.255 . S
C40 O33 1.287 1_565 S
C40 O34 1.255 . S
O41 Fe23 2.002 . S
O41 C37 1.295 . S
O42 Fe25 1.997 . S
O42 C37 1.235 . S
C43 O26 1.295 . S
C43 O27 1.235 . S
Fe44 O46 1.918 . S
Fe44 O49 1.997 . S
Fe44 O50 2.002 1_655 S
Fe44 O55 1.976 . S
Fe44 O58 1.996 . S
Fe45 O46 1.918 . S
Fe45 O53 1.997 1_655 S
Fe45 O56 1.996 1_655 S
Fe45 O60 1.976 . S
Fe45 O63 2.002 . S
O46 Fe44 1.918 . S
O46 Fe45 1.918 . S
O46 Fe47 1.918 . S
Fe47 O46 1.918 . S
Fe47 O48 2.002 . S
Fe47 O57 1.976 . S
Fe47 O61 1.996 . S
Fe47 O64 1.997 . S
O48 Fe47 2.002 . S
O48 C65 1.295 . S
O49 Fe44 1.997 . S
O49 C65 1.235 . S
O50 Fe44 2.002 1_455 S
O50 C51 1.295 . S
C51 O50 1.295 . S
C51 O53 1.235 . S
C52 O57 1.287 . S
C52 O58 1.255 . S
O53 Fe45 1.997 1_455 S
O53 C51 1.235 . S
C54 O60 1.287 . S
C54 O61 1.255 . S
O55 Fe44 1.976 . S
O55 C62 1.287 1_655 S
O56 Fe45 1.996 1_455 S
O56 C62 1.255 . S
O57 Fe47 1.976 . S
O57 C52 1.287 . S
O58 Fe44 1.996 . S
O58 C52 1.255 . S
C59 O63 1.295 . S
C59 O64 1.235 . S
O60 Fe45 1.976 . S
O60 C54 1.287 . S
O61 Fe47 1.996 . S
O61 C54 1.255 . S
C62 O55 1.287 1_455 S
C62 O56 1.255 . S
O63 Fe45 2.002 . S
O63 C59 1.295 . S
O64 Fe47 1.997 . S
O64 C59 1.235 . S
C65 O48 1.295 . S
C65 O49 1.235 . S
Fe66 O68 1.918 . S
Fe66 O71 1.997 . S
Fe66 O72 2.002 . S
Fe66 O77 1.976 . S
Fe66 O80 1.996 . S
Fe67 O68 1.918 . S
Fe67 O75 1.997 . S
Fe67 O78 1.996 . S
Fe67 O82 1.976 . S
Fe67 O85 2.002 1_455 S
O68 Fe66 1.918 . S
O68 Fe67 1.918 . S
O68 Fe69 1.918 . S
Fe69 O68 1.918 . S
Fe69 O70 2.002 . S
Fe69 O79 1.976 . S
Fe69 O83 1.996 . S
Fe69 O86 1.997 1_455 S
O70 Fe69 2.002 . S
O70 C87 1.295 . S
O71 Fe66 1.997 . S
O71 C87 1.235 . S
O72 Fe66 2.002 . S
O72 C73 1.295 . S
C73 O72 1.295 . S
C73 O75 1.235 . S
C74 O79 1.287 . S
C74 O80 1.255 . S
O75 Fe67 1.997 . S
O75 C73 1.235 . S
C76 O82 1.287 . S
C76 O83 1.255 . S
O77 Fe66 1.976 . S
O77 C84 1.287 . S
O78 Fe67 1.996 . S
O78 C84 1.255 . S
O79 Fe69 1.976 . S
O79 C74 1.287 . S
O80 Fe66 1.996 . S
O80 C74 1.255 . S
C81 O85 1.295 . S
C81 O86 1.235 . S
O82 Fe67 1.976 . S
O82 C76 1.287 . S
O83 Fe69 1.996 . S
O83 C76 1.255 . S
C84 O77 1.287 . S
C84 O78 1.255 . S
O85 Fe67 2.002 1_655 S
O85 C81 1.295 . S
O86 Fe69 1.997 1_655 S
O86 C81 1.235 . S
C87 O70 1.295 . S
C87 O71 1.235 . S
Fe88 O90 1.918 . S
Fe88 O93 1.997 . S
Fe88 O94 2.002 . S
Fe88 O99 1.976 . S
Fe88 O102 1.996 . S
Fe89 O90 1.918 . S
Fe89 O97 1.997 . S
Fe89 O100 1.996 . S
Fe89 O104 1.976 . S
Fe89 O107 2.002 1_565 S
O90 Fe88 1.918 . S
O90 Fe89 1.918 . S
O90 Fe91 1.918 . S
Fe91 O90 1.918 . S
Fe91 O92 2.002 . S
Fe91 O101 1.976 . S
Fe91 O105 1.996 1_565 S
Fe91 O108 1.997 1_565 S
O92 Fe91 2.002 . S
O92 C109 1.295 . S
O93 Fe88 1.997 . S
O93 C109 1.235 . S
O94 Fe88 2.002 . S
O94 C95 1.295 . S
C95 O94 1.295 . S
C95 O97 1.235 . S
C96 O101 1.287 . S
C96 O102 1.255 . S
O97 Fe89 1.997 . S
O97 C95 1.235 . S
C98 O104 1.287 1_545 S
C98 O105 1.255 . S
O99 Fe88 1.976 . S
O99 C106 1.287 . S
O100 Fe89 1.996 . S
O100 C106 1.255 . S
O101 Fe91 1.976 . S
O101 C96 1.287 . S
O102 Fe88 1.996 . S
O102 C96 1.255 . S
C103 O107 1.295 . S
C103 O108 1.235 . S
O104 Fe89 1.976 . S
O104 C98 1.287 1_565 S
O105 Fe91 1.996 1_545 S
O105 C98 1.255 . S
C106 O99 1.287 . S
C106 O100 1.255 . S
O107 Fe89 2.002 1_545 S
O107 C103 1.295 . S
O108 Fe91 1.997 1_545 S
O108 C103 1.235 . S
C109 O92 1.295 . S
C109 O93 1.235 . S
Fe110 O112 1.918 . S
Fe110 O115 1.997 1_565 S
Fe110 O116 2.002 1_455 S
Fe110 O121 1.976 . S
Fe110 O124 1.996 . S
Fe111 O112 1.918 . S
Fe111 O119 1.997 1_455 S
Fe111 O122 1.996 1_455 S
Fe111 O126 1.976 . S
Fe111 O129 2.002 . S
O112 Fe110 1.918 . S
O112 Fe111 1.918 . S
O112 Fe113 1.918 . S
Fe113 O112 1.918 . S
Fe113 O114 2.002 1_565 S
Fe113 O123 1.976 . S
Fe113 O127 1.996 . S
Fe113 O130 1.997 . S
O114 Fe113 2.002 1_545 S
O114 C131 1.295 . S
O115 Fe110 1.997 1_545 S
O115 C131 1.235 . S
O116 Fe110 2.002 1_655 S
O116 C117 1.295 . S
C117 O116 1.295 . S
C117 O119 1.235 . S
C118 O123 1.287 . S
C118 O124 1.255 . S
O119 Fe111 1.997 1_655 S
O119 C117 1.235 . S
C120 O126 1.287 . S
C120 O127 1.255 . S
O121 Fe110 1.976 . S
O121 C128 1.287 1_455 S
O122 Fe111 1.996 1_655 S
O122 C128 1.255 . S
O123 Fe113 1.976 . S
O123 C118 1.287 . S
O124 Fe110 1.996 . S
O124 C118 1.255 . S
C125 O129 1.295 . S
C125 O130 1.235 . S
O126 Fe111 1.976 . S
O126 C120 1.287 . S
O127 Fe113 1.996 . S
O127 C120 1.255 . S
C128 O121 1.287 1_655 S
C128 O122 1.255 . S
O129 Fe111 2.002 . S
O129 C125 1.295 . S
O130 Fe113 1.997 . S
O130 C125 1.235 . S
C131 O114 1.295 . S
C131 O115 1.235 . S
Fe132 O134 1.918 . S
Fe132 O137 1.997 1_565 S
Fe132 O138 2.002 . S
Fe132 O143 1.976 . S
Fe132 O146 1.996 . S
Fe133 O134 1.918 . S
Fe133 O141 1.997 . S
Fe133 O144 1.996 . S
Fe133 O148 1.976 . S
Fe133 O151 2.002 . S
O134 Fe132 1.918 . S
O134 Fe133 1.918 . S
O134 Fe135 1.918 . S
Fe135 O134 1.918 . S
Fe135 O136 2.002 1_565 S
Fe135 O145 1.976 . S
Fe135 O149 1.996 . S
Fe135 O152 1.997 . S
O136 Fe135 2.002 1_545 S
O136 C153 1.295 . S
O137 Fe132 1.997 1_545 S
O137 C153 1.235 . S
O138 Fe132 2.002 . S
O138 C139 1.295 . S
C139 O138 1.295 . S
C139 O141 1.235 . S
C140 O145 1.287 . S
C140 O146 1.255 . S
O141 Fe133 1.997 . S
O141 C139 1.235 . S
C142 O148 1.287 . S
C142 O149 1.255 . S
O143 Fe132 1.976 . S
O143 C150 1.287 . S
O144 Fe133 1.996 . S
O144 C150 1.255 . S
O145 Fe135 1.976 . S
O145 C140 1.287 . S
O146 Fe132 1.996 . S
O146 C140 1.255 . S
C147 O151 1.295 . S
C147 O152 1.235 . S
O148 Fe133 1.976 . S
O148 C142 1.287 . S
O149 Fe135 1.996 . S
O149 C142 1.255 . S
C150 O143 1.287 . S
C150 O144 1.255 . S
O151 Fe133 2.002 . S
O151 C147 1.295 . S
O152 Fe135 1.997 . S
O152 C147 1.235 . S
C153 O136 1.295 . S
C153 O137 1.235 . S
Fe154 O156 1.918 . S
Fe154 O159 1.997 1_565 S
Fe154 O160 2.002 . S
Fe154 O165 1.976 . S
Fe154 O168 1.996 1_565 S
Fe155 O156 1.918 . S
Fe155 O163 1.997 . S
Fe155 O166 1.996 . S
Fe155 O170 1.976 . S
Fe155 O173 2.002 1_455 S
O156 Fe154 1.918 . S
O156 Fe155 1.918 . S
O156 Fe157 1.918 . S
Fe157 O156 1.918 . S
Fe157 O158 2.002 1_565 S
Fe157 O167 1.976 . S
Fe157 O171 1.996 . S
Fe157 O174 1.997 1_455 S
O158 Fe157 2.002 1_545 S
O158 C175 1.295 . S
O159 Fe154 1.997 1_545 S
O159 C175 1.235 . S
O160 Fe154 2.002 . S
O160 C161 1.295 . S
C161 O160 1.295 . S
C161 O163 1.235 . S
C162 O167 1.287 1_545 S
C162 O168 1.255 . S
O163 Fe155 1.997 . S
O163 C161 1.235 . S
C164 O170 1.287 . S
C164 O171 1.255 . S
O165 Fe154 1.976 . S
O165 C172 1.287 . S
O166 Fe155 1.996 . S
O166 C172 1.255 . S
O167 Fe157 1.976 . S
O167 C162 1.287 1_565 S
O168 Fe154 1.996 1_545 S
O168 C162 1.255 . S
C169 O173 1.295 . S
C169 O174 1.235 . S
O170 Fe155 1.976 . S
O170 C164 1.287 . S
O171 Fe157 1.996 . S
O171 C164 1.255 . S
C172 O165 1.287 . S
C172 O166 1.255 . S
O173 Fe155 2.002 1_655 S
O173 C169 1.295 . S
O174 Fe157 1.997 1_655 S
O174 C169 1.235 . S
C175 O158 1.295 . S
C175 O159 1.235 . S
Fe176 O178 1.918 . S
Fe176 O181 1.997 . S
Fe176 O182 2.002 1_455 S
Fe176 O187 1.976 . S
Fe176 O190 1.996 . S
Fe177 O178 1.918 . S
Fe177 O185 1.997 1_455 S
Fe177 O188 1.996 1_455 S
Fe177 O192 1.976 . S
Fe177 O195 2.002 . S
O178 Fe176 1.918 . S
O178 Fe177 1.918 . S
O178 Fe179 1.918 . S
Fe179 O178 1.918 . S
Fe179 O180 2.002 . S
Fe179 O189 1.976 . S
Fe179 O193 1.996 . S
Fe179 O196 1.997 . S
O180 Fe179 2.002 . S
O180 C197 1.295 . S
O181 Fe176 1.997 . S
O181 C197 1.235 . S
O182 Fe176 2.002 1_655 S
O182 C183 1.295 . S
C183 O182 1.295 . S
C183 O185 1.235 . S
C184 O189 1.287 . S
C184 O190 1.255 . S
O185 Fe177 1.997 1_655 S
O185 C183 1.235 . S
C186 O192 1.287 . S
C186 O193 1.255 . S
O187 Fe176 1.976 . S
O187 C194 1.287 1_455 S
O188 Fe177 1.996 1_655 S
O188 C194 1.255 . S
O189 Fe179 1.976 . S
O189 C184 1.287 . S
O190 Fe176 1.996 . S
O190 C184 1.255 . S
C191 O195 1.295 . S
C191 O196 1.235 . S
O192 Fe177 1.976 . S
O192 C186 1.287 . S
O193 Fe179 1.996 . S
O193 C186 1.255 . S
C194 O187 1.287 1_655 S
C194 O188 1.255 . S
O195 Fe177 2.002 . S
O195 C191 1.295 . S
O196 Fe179 1.997 . S
O196 C191 1.235 . S
C197 O180 1.295 . S
C197 O181 1.235 . S
Fe198 O200 1.918 . S
Fe198 O203 1.997 1_655 S
Fe198 O204 2.002 . S
Fe198 O209 1.976 . S
Fe198 O212 1.996 . S
Fe199 O200 1.918 . S
Fe199 O207 1.997 . S
Fe199 O210 1.996 . S
Fe199 O214 1.976 . S
Fe199 O217 2.002 . S
O200 Fe198 1.918 . S
O200 Fe199 1.918 . S
O200 Fe201 1.918 . S
Fe201 O200 1.918 . S
Fe201 O202 2.002 1_655 S
Fe201 O211 1.976 . S
Fe201 O215 1.996 . S
Fe201 O218 1.997 . S
O202 Fe201 2.002 1_455 S
O202 C219 1.295 . S
O203 Fe198 1.997 1_455 S
O203 C219 1.235 . S
O204 Fe198 2.002 . S
O204 C205 1.295 . S
C205 O204 1.295 . S
C205 O207 1.235 . S
C206 O211 1.287 . S
C206 O212 1.255 . S
O207 Fe199 1.997 . S
O207 C205 1.235 . S
C208 O214 1.287 . S
C208 O215 1.255 . S
O209 Fe198 1.976 . S
O209 C216 1.287 . S
O210 Fe199 1.996 . S
O210 C216 1.255 . S
O211 Fe201 1.976 . S
O211 C206 1.287 . S
O212 Fe198 1.996 . S
O212 C206 1.255 . S
C213 O217 1.295 . S
C213 O218 1.235 . S
O214 Fe199 1.976 . S
O214 C208 1.287 . S
O215 Fe201 1.996 . S
O215 C208 1.255 . S
C216 O209 1.287 . S
C216 O210 1.255 . S
O217 Fe199 2.002 . S
O217 C213 1.295 . S
O218 Fe201 1.997 . S
O218 C213 1.235 . S
C219 O202 1.295 . S
C219 O203 1.235 . S
Fe220 O222 1.918 . S
Fe220 O225 1.997 . S
Fe220 O226 2.002 . S
Fe220 O231 1.976 . S
Fe220 O234 1.996 . S
Fe221 O222 1.918 . S
Fe221 O229 1.997 . S
Fe221 O232 1.996 . S
Fe221 O236 1.976 . S
Fe221 O239 2.002 1_545 S
O222 Fe220 1.918 . S
O222 Fe221 1.918 . S
O222 Fe223 1.918 . S
Fe223 O222 1.918 . S
Fe223 O224 2.002 . S
Fe223 O233 1.976 . S
Fe223 O237 1.996 1_545 S
Fe223 O240 1.997 1_545 S
O224 Fe223 2.002 . S
O224 C241 1.295 . S
O225 Fe220 1.997 . S
O225 C241 1.235 . S
O226 Fe220 2.002 . S
O226 C227 1.295 . S
C227 O226 1.295 . S
C227 O229 1.235 . S
C228 O233 1.287 . S
C228 O234 1.255 . S
O229 Fe221 1.997 . S
O229 C227 1.235 . S
C230 O236 1.287 1_565 S
C230 O237 1.255 . S
O231 Fe220 1.976 . S
O231 C238 1.287 . S
O232 Fe221 1.996 . S
O232 C238 1.255 . S
O233 Fe223 1.976 . S
O233 C228 1.287 . S
O234 Fe220 1.996 . S
O234 C228 1.255 . S
C235 O239 1.295 . S
C235 O240 1.235 . S
O236 Fe221 1.976 . S
O236 C230 1.287 1_545 S
O237 Fe223 1.996 1_565 S
O237 C230 1.255 . S
C238 O231 1.287 . S
C238 O232 1.255 . S
O239 Fe221 2.002 1_565 S
O239 C235 1.295 . S
O240 Fe223 1.997 1_565 S
O240 C235 1.235 . S
C241 O224 1.295 . S
C241 O225 1.235 . S
Fe242 O244 1.918 . S
Fe242 O247 1.997 1_545 S
Fe242 O248 2.002 1_655 S
Fe242 O253 1.976 . S
Fe242 O256 1.996 . S
Fe243 O244 1.918 . S
Fe243 O251 1.997 1_655 S
Fe243 O254 1.996 1_655 S
Fe243 O258 1.976 . S
Fe243 O261 2.002 . S
O244 Fe242 1.918 . S
O244 Fe243 1.918 . S
O244 Fe245 1.918 . S
Fe245 O244 1.918 . S
Fe245 O246 2.002 1_545 S
Fe245 O255 1.976 . S
Fe245 O259 1.996 . S
Fe245 O262 1.997 . S
O246 Fe245 2.002 1_565 S
O246 C263 1.295 . S
O247 Fe242 1.997 1_565 S
O247 C263 1.235 . S
O248 Fe242 2.002 1_455 S
O248 C249 1.295 . S
C249 O248 1.295 . S
C249 O251 1.235 . S
C250 O255 1.287 . S
C250 O256 1.255 . S
O251 Fe243 1.997 1_455 S
O251 C249 1.235 . S
C252 O258 1.287 . S
C252 O259 1.255 . S
O253 Fe242 1.976 . S
O253 C260 1.287 1_655 S
O254 Fe243 1.996 1_455 S
O254 C260 1.255 . S
O255 Fe245 1.976 . S
O255 C250 1.287 . S
O256 Fe242 1.996 . S
O256 C250 1.255 . S
C257 O261 1.295 . S
C257 O262 1.235 . S
O258 Fe243 1.976 . S
O258 C252 1.287 . S
O259 Fe245 1.996 . S
O259 C252 1.255 . S
C260 O253 1.287 1_455 S
C260 O254 1.255 . S
O261 Fe243 2.002 . S
O261 C257 1.295 . S
O262 Fe245 1.997 . S
O262 C257 1.235 . S
C263 O246 1.295 . S
C263 O247 1.235 . S
Fe264 O266 1.918 . S
Fe264 O269 1.997 . S
Fe264 O270 2.002 . S
Fe264 O275 1.976 . S
Fe264 O278 1.996 . S
Fe265 O266 1.918 . S
Fe265 O273 1.997 . S
Fe265 O276 1.996 . S
Fe265 O280 1.976 . S
Fe265 O283 2.002 . S
O266 Fe264 1.918 . S
O266 Fe265 1.918 . S
O266 Fe267 1.918 . S
Fe267 O266 1.918 . S
Fe267 O268 2.002 . S
Fe267 O277 1.976 . S
Fe267 O281 1.996 . S
Fe267 O284 1.997 . S
O268 Fe267 2.002 . S
O268 C285 1.295 . S
O269 Fe264 1.997 . S
O269 C285 1.235 . S
O270 Fe264 2.002 . S
O270 C271 1.295 . S
C271 O270 1.295 . S
C271 O273 1.235 . S
C272 O277 1.287 . S
C272 O278 1.255 . S
O273 Fe265 1.997 . S
O273 C271 1.235 . S
C274 O280 1.287 . S
C274 O281 1.255 . S
O275 Fe264 1.976 . S
O275 C282 1.287 . S
O276 Fe265 1.996 . S
O276 C282 1.255 . S
O277 Fe267 1.976 . S
O277 C272 1.287 . S
O278 Fe264 1.996 . S
O278 C272 1.255 . S
C279 O283 1.295 . S
C279 O284 1.235 . S
O280 Fe265 1.976 . S
O280 C274 1.287 . S
O281 Fe267 1.996 . S
O281 C274 1.255 . S
C282 O275 1.287 . S
C282 O276 1.255 . S
O283 Fe265 2.002 . S
O283 C279 1.295 . S
O284 Fe267 1.997 . S
O284 C279 1.235 . S
C285 O268 1.295 . S
C285 O269 1.235 . S
Fe286 O288 1.918 . S
Fe286 O291 1.997 . S
Fe286 O292 2.002 . S
Fe286 O297 1.976 . S
Fe286 O300 1.996 . S
Fe287 O288 1.918 . S
Fe287 O295 1.997 . S
Fe287 O298 1.996 . S
Fe287 O302 1.976 . S
Fe287 O305 2.002 . S
O288 Fe286 1.918 . S
O288 Fe287 1.918 . S
O288 Fe289 1.918 . S
Fe289 O288 1.918 . S
Fe289 O290 2.002 . S
Fe289 O299 1.976 . S
Fe289 O303 1.996 . S
Fe289 O306 1.997 . S
O290 Fe289 2.002 . S
O290 C307 1.295 . S
O291 Fe286 1.997 . S
O291 C307 1.235 . S
O292 Fe286 2.002 . S
O292 C293 1.295 . S
C293 O292 1.295 . S
C293 O295 1.235 . S
C294 O299 1.287 . S
C294 O300 1.255 . S
O295 Fe287 1.997 . S
O295 C293 1.235 . S
C296 O302 1.287 . S
C296 O303 1.255 . S
O297 Fe286 1.976 . S
O297 C304 1.287 . S
O298 Fe287 1.996 . S
O298 C304 1.255 . S
O299 Fe289 1.976 . S
O299 C294 1.287 . S
O300 Fe286 1.996 . S
O300 C294 1.255 . S
C301 O305 1.295 . S
C301 O306 1.235 . S
O302 Fe287 1.976 . S
O302 C296 1.287 . S
O303 Fe289 1.996 . S
O303 C296 1.255 . S
C304 O297 1.287 . S
C304 O298 1.255 . S
O305 Fe287 2.002 . S
O305 C301 1.295 . S
O306 Fe289 1.997 . S
O306 C301 1.235 . S
C307 O290 1.295 . S
C307 O291 1.235 . S
Fe308 O310 1.918 . S
Fe308 O313 1.997 . S
Fe308 O314 2.002 . S
Fe308 O319 1.976 . S
Fe308 O322 1.996 . S
Fe309 O310 1.918 . S
Fe309 O317 1.997 . S
Fe309 O320 1.996 . S
Fe309 O324 1.976 . S
Fe309 O327 2.002 . S
O310 Fe308 1.918 . S
O310 Fe309 1.918 . S
O310 Fe311 1.918 . S
Fe311 O310 1.918 . S
Fe311 O312 2.002 . S
Fe311 O321 1.976 . S
Fe311 O325 1.996 . S
Fe311 O328 1.997 . S
O312 Fe311 2.002 . S
O312 C329 1.295 . S
O313 Fe308 1.997 . S
O313 C329 1.235 . S
O314 Fe308 2.002 . S
O314 C315 1.295 . S
C315 O314 1.295 . S
C315 O317 1.235 . S
C316 O321 1.287 . S
C316 O322 1.255 . S
O317 Fe309 1.997 . S
O317 C315 1.235 . S
C318 O324 1.287 . S
C318 O325 1.255 . S
O319 Fe308 1.976 . S
O319 C326 1.287 . S
O320 Fe309 1.996 . S
O320 C326 1.255 . S
O321 Fe311 1.976 . S
O321 C316 1.287 . S
O322 Fe308 1.996 . S
O322 C316 1.255 . S
C323 O327 1.295 . S
C323 O328 1.235 . S
O324 Fe309 1.976 . S
O324 C318 1.287 . S
O325 Fe311 1.996 . S
O325 C318 1.255 . S
C326 O319 1.287 . S
C326 O320 1.255 . S
O327 Fe309 2.002 . S
O327 C323 1.295 . S
O328 Fe311 1.997 . S
O328 C323 1.235 . S
C329 O312 1.295 . S
C329 O313 1.235 . S
Fe330 O332 1.918 . S
Fe330 O335 1.997 . S
Fe330 O336 2.002 . S
Fe330 O341 1.976 . S
Fe330 O344 1.996 . S
Fe331 O332 1.918 . S
Fe331 O339 1.997 . S
Fe331 O342 1.996 . S
Fe331 O346 1.976 . S
Fe331 O349 2.002 . S
O332 Fe330 1.918 . S
O332 Fe331 1.918 . S
O332 Fe333 1.918 . S
Fe333 O332 1.918 . S
Fe333 O334 2.002 . S
Fe333 O343 1.976 . S
Fe333 O347 1.996 . S
Fe333 O350 1.997 . S
O334 Fe333 2.002 . S
O334 C351 1.295 . S
O335 Fe330 1.997 . S
O335 C351 1.235 . S
O336 Fe330 2.002 . S
O336 C337 1.295 . S
C337 O336 1.295 . S
C337 O339 1.235 . S
C338 O343 1.287 . S
C338 O344 1.255 . S
O339 Fe331 1.997 . S
O339 C337 1.235 . S
C340 O346 1.287 . S
C340 O347 1.255 . S
O341 Fe330 1.976 . S
O341 C348 1.287 . S
O342 Fe331 1.996 . S
O342 C348 1.255 . S
O343 Fe333 1.976 . S
O343 C338 1.287 . S
O344 Fe330 1.996 . S
O344 C338 1.255 . S
C345 O349 1.295 . S
C345 O350 1.235 . S
O346 Fe331 1.976 . S
O346 C340 1.287 . S
O347 Fe333 1.996 . S
O347 C340 1.255 . S
C348 O341 1.287 . S
C348 O342 1.255 . S
O349 Fe331 2.002 . S
O349 C345 1.295 . S
O350 Fe333 1.997 . S
O350 C345 1.235 . S
C351 O334 1.295 . S
C351 O335 1.235 . S
Fe352 O354 1.918 . S
Fe352 O357 1.997 . S
Fe352 O358 2.002 . S
Fe352 O363 1.976 . S
Fe352 O366 1.996 . S
Fe353 O354 1.918 . S
Fe353 O361 1.997 . S
Fe353 O364 1.996 . S
Fe353 O368 1.976 . S
Fe353 O371 2.002 . S
O354 Fe352 1.918 . S
O354 Fe353 1.918 . S
O354 Fe355 1.918 . S
Fe355 O354 1.918 . S
Fe355 O356 2.002 . S
Fe355 O365 1.976 . S
Fe355 O369 1.996 . S
Fe355 O372 1.997 . S
O356 Fe355 2.002 . S
O356 C373 1.295 . S
O357 Fe352 1.997 . S
O357 C373 1.235 . S
O358 Fe352 2.002 . S
O358 C359 1.295 . S
C359 O358 1.295 . S
C359 O361 1.235 . S
C360 O365 1.287 . S
C360 O366 1.255 . S
O361 Fe353 1.997 . S
O361 C359 1.235 . S
C362 O368 1.287 . S
C362 O369 1.255 . S
O363 Fe352 1.976 . S
O363 C370 1.287 . S
O364 Fe353 1.996 . S
O364 C370 1.255 . S
O365 Fe355 1.976 . S
O365 C360 1.287 . S
O366 Fe352 1.996 . S
O366 C360 1.255 . S
C367 O371 1.295 . S
C367 O372 1.235 . S
O368 Fe353 1.976 . S
O368 C362 1.287 . S
O369 Fe355 1.996 . S
O369 C362 1.255 . S
C370 O363 1.287 . S
C370 O364 1.255 . S
O371 Fe353 2.002 . S
O371 C367 1.295 . S
O372 Fe355 1.997 . S
O372 C367 1.235 . S
C373 O356 1.295 . S
C373 O357 1.235 . S
Fe374 O376 1.918 . S
Fe374 O379 1.997 . S
Fe374 O380 2.002 . S
Fe374 O385 1.976 . S
Fe374 O388 1.996 . S
Fe375 O376 1.918 . S
Fe375 O383 1.997 . S
Fe375 O386 1.996 . S
Fe375 O390 1.976 . S
Fe375 O393 2.002 . S
O376 Fe374 1.918 . S
O376 Fe375 1.918 . S
O376 Fe377 1.918 . S
Fe377 O376 1.918 . S
Fe377 O378 2.002 . S
Fe377 O387 1.976 . S
Fe377 O391 1.996 . S
Fe377 O394 1.997 . S
O378 Fe377 2.002 . S
O378 C395 1.295 . S
O379 Fe374 1.997 . S
O379 C395 1.235 . S
O380 Fe374 2.002 . S
O380 C381 1.295 . S
C381 O380 1.295 . S
C381 O383 1.235 . S
C382 O387 1.287 . S
C382 O388 1.255 . S
O383 Fe375 1.997 . S
O383 C381 1.235 . S
C384 O390 1.287 . S
C384 O391 1.255 . S
O385 Fe374 1.976 . S
O385 C392 1.287 . S
O386 Fe375 1.996 . S
O386 C392 1.255 . S
O387 Fe377 1.976 . S
O387 C382 1.287 . S
O388 Fe374 1.996 . S
O388 C382 1.255 . S
C389 O393 1.295 . S
C389 O394 1.235 . S
O390 Fe375 1.976 . S
O390 C384 1.287 . S
O391 Fe377 1.996 . S
O391 C384 1.255 . S
C392 O385 1.287 . S
C392 O386 1.255 . S
O393 Fe375 2.002 . S
O393 C389 1.295 . S
O394 Fe377 1.997 . S
O394 C389 1.235 . S
C395 O378 1.295 . S
C395 O379 1.235 . S
Fe396 O398 1.918 . S
Fe396 O401 1.997 . S
Fe396 O402 2.002 . S
Fe396 O407 1.976 . S
Fe396 O410 1.996 . S
Fe397 O398 1.918 . S
Fe397 O405 1.997 . S
Fe397 O408 1.996 . S
Fe397 O412 1.976 . S
Fe397 O415 2.002 . S
O398 Fe396 1.918 . S
O398 Fe397 1.918 . S
O398 Fe399 1.918 . S
Fe399 O398 1.918 . S
Fe399 O400 2.002 . S
Fe399 O409 1.976 . S
Fe399 O413 1.996 . S
Fe399 O416 1.997 . S
O400 Fe399 2.002 . S
O400 C417 1.295 . S
O401 Fe396 1.997 . S
O401 C417 1.235 . S
O402 Fe396 2.002 . S
O402 C403 1.295 . S
C403 O402 1.295 . S
C403 O405 1.235 . S
C404 O409 1.287 . S
C404 O410 1.255 . S
O405 Fe397 1.997 . S
O405 C403 1.235 . S
C406 O412 1.287 . S
C406 O413 1.255 . S
O407 Fe396 1.976 . S
O407 C414 1.287 . S
O408 Fe397 1.996 . S
O408 C414 1.255 . S
O409 Fe399 1.976 . S
O409 C404 1.287 . S
O410 Fe396 1.996 . S
O410 C404 1.255 . S
C411 O415 1.295 . S
C411 O416 1.235 . S
O412 Fe397 1.976 . S
O412 C406 1.287 . S
O413 Fe399 1.996 . S
O413 C406 1.255 . S
C414 O407 1.287 . S
C414 O408 1.255 . S
O415 Fe397 2.002 . S
O415 C411 1.295 . S
O416 Fe399 1.997 . S
O416 C411 1.235 . S
C417 O400 1.295 . S
C417 O401 1.235 . S
Fe418 O420 1.918 . S
Fe418 O423 1.997 . S
Fe418 O424 2.002 . S
Fe418 O429 1.976 . S
Fe418 O432 1.996 . S
Fe419 O420 1.918 . S
Fe419 O427 1.997 . S
Fe419 O430 1.996 . S
Fe419 O434 1.976 . S
Fe419 O437 2.002 . S
O420 Fe418 1.918 . S
O420 Fe419 1.918 . S
O420 Fe421 1.918 . S
Fe421 O420 1.918 . S
Fe421 O422 2.002 . S
Fe421 O431 1.976 . S
Fe421 O435 1.996 . S
Fe421 O438 1.997 . S
O422 Fe421 2.002 . S
O422 C439 1.295 . S
O423 Fe418 1.997 . S
O423 C439 1.235 . S
O424 Fe418 2.002 . S
O424 C425 1.295 . S
C425 O424 1.295 . S
C425 O427 1.235 . S
C426 O431 1.287 . S
C426 O432 1.255 . S
O427 Fe419 1.997 . S
O427 C425 1.235 . S
C428 O434 1.287 . S
C428 O435 1.255 . S
O429 Fe418 1.976 . S
O429 C436 1.287 . S
O430 Fe419 1.996 . S
O430 C436 1.255 . S
O431 Fe421 1.976 . S
O431 C426 1.287 . S
O432 Fe418 1.996 . S
O432 C426 1.255 . S
C433 O437 1.295 . S
C433 O438 1.235 . S
O434 Fe419 1.976 . S
O434 C428 1.287 . S
O435 Fe421 1.996 . S
O435 C428 1.255 . S
C436 O429 1.287 . S
C436 O430 1.255 . S
O437 Fe419 2.002 . S
O437 C433 1.295 . S
O438 Fe421 1.997 . S
O438 C433 1.235 . S
C439 O422 1.295 . S
C439 O423 1.235 . S
Fe440 O442 1.918 . S
Fe440 O445 1.997 . S
Fe440 O446 2.002 . S
Fe440 O451 1.976 . S
Fe440 O454 1.996 . S
Fe441 O442 1.918 . S
Fe441 O449 1.997 . S
Fe441 O452 1.996 . S
Fe441 O456 1.976 . S
Fe441 O459 2.002 . S
O442 Fe440 1.918 . S
O442 Fe441 1.918 . S
O442 Fe443 1.918 . S
Fe443 O442 1.918 . S
Fe443 O444 2.002 . S
Fe443 O453 1.976 . S
Fe443 O457 1.996 . S
Fe443 O460 1.997 . S
O444 Fe443 2.002 . S
O444 C461 1.295 . S
O445 Fe440 1.997 . S
O445 C461 1.235 . S
O446 Fe440 2.002 . S
O446 C447 1.295 . S
C447 O446 1.295 . S
C447 O449 1.235 . S
C448 O453 1.287 . S
C448 O454 1.255 . S
O449 Fe441 1.997 . S
O449 C447 1.235 . S
C450 O456 1.287 . S
C450 O457 1.255 . S
O451 Fe440 1.976 . S
O451 C458 1.287 . S
O452 Fe441 1.996 . S
O452 C458 1.255 . S
O453 Fe443 1.976 . S
O453 C448 1.287 . S
O454 Fe440 1.996 . S
O454 C448 1.255 . S
C455 O459 1.295 . S
C455 O460 1.235 . S
O456 Fe441 1.976 . S
O456 C450 1.287 . S
O457 Fe443 1.996 . S
O457 C450 1.255 . S
C458 O451 1.287 . S
C458 O452 1.255 . S
O459 Fe441 2.002 . S
O459 C455 1.295 . S
O460 Fe443 1.997 . S
O460 C455 1.235 . S
C461 O444 1.295 . S
C461 O445 1.235 . S
Fe462 O464 1.918 . S
Fe462 O467 1.997 1_556 S
Fe462 O468 2.002 . S
Fe462 O473 1.976 . S
Fe462 O476 1.996 . S
Fe463 O464 1.918 . S
Fe463 O471 1.997 . S
Fe463 O474 1.996 . S
Fe463 O478 1.976 . S
Fe463 O481 2.002 . S
O464 Fe462 1.918 . S
O464 Fe463 1.918 . S
O464 Fe465 1.918 . S
Fe465 O464 1.918 . S
Fe465 O466 2.002 1_556 S
Fe465 O475 1.976 . S
Fe465 O479 1.996 . S
Fe465 O482 1.997 . S
O466 Fe465 2.002 1_554 S
O466 C483 1.295 . S
O467 Fe462 1.997 1_554 S
O467 C483 1.235 . S
O468 Fe462 2.002 . S
O468 C469 1.295 . S
C469 O468 1.295 . S
C469 O471 1.235 . S
C470 O475 1.287 . S
C470 O476 1.255 . S
O471 Fe463 1.997 . S
O471 C469 1.235 . S
C472 O478 1.287 . S
C472 O479 1.255 . S
O473 Fe462 1.976 . S
O473 C480 1.287 . S
O474 Fe463 1.996 . S
O474 C480 1.255 . S
O475 Fe465 1.976 . S
O475 C470 1.287 . S
O476 Fe462 1.996 . S
O476 C470 1.255 . S
C477 O481 1.295 . S
C477 O482 1.235 . S
O478 Fe463 1.976 . S
O478 C472 1.287 . S
O479 Fe465 1.996 . S
O479 C472 1.255 . S
C480 O473 1.287 . S
C480 O474 1.255 . S
O481 Fe463 2.002 . S
O481 C477 1.295 . S
O482 Fe465 1.997 . S
O482 C477 1.235 . S
C483 O466 1.295 . S
C483 O467 1.235 . S
Fe484 O486 1.918 . S
Fe484 O489 1.997 1_556 S
Fe484 O490 2.002 . S
Fe484 O495 1.976 . S
Fe484 O498 1.996 . S
Fe485 O486 1.918 . S
Fe485 O493 1.997 . S
Fe485 O496 1.996 . S
Fe485 O500 1.976 . S
Fe485 O503 2.002 . S
O486 Fe484 1.918 . S
O486 Fe485 1.918 . S
O486 Fe487 1.918 . S
Fe487 O486 1.918 . S
Fe487 O488 2.002 1_556 S
Fe487 O497 1.976 . S
Fe487 O501 1.996 . S
Fe487 O504 1.997 . S
O488 Fe487 2.002 1_554 S
O488 C505 1.295 . S
O489 Fe484 1.997 1_554 S
O489 C505 1.235 . S
O490 Fe484 2.002 . S
O490 C491 1.295 . S
C491 O490 1.295 . S
C491 O493 1.235 . S
C492 O497 1.287 . S
C492 O498 1.255 . S
O493 Fe485 1.997 . S
O493 C491 1.235 . S
C494 O500 1.287 . S
C494 O501 1.255 . S
O495 Fe484 1.976 . S
O495 C502 1.287 . S
O496 Fe485 1.996 . S
O496 C502 1.255 . S
O497 Fe487 1.976 . S
O497 C492 1.287 . S
O498 Fe484 1.996 . S
O498 C492 1.255 . S
C499 O503 1.295 . S
C499 O504 1.235 . S
O500 Fe485 1.976 . S
O500 C494 1.287 . S
O501 Fe487 1.996 . S
O501 C494 1.255 . S
C502 O495 1.287 . S
C502 O496 1.255 . S
O503 Fe485 2.002 . S
O503 C499 1.295 . S
O504 Fe487 1.997 . S
O504 C499 1.235 . S
C505 O488 1.295 . S
C505 O489 1.235 . S
Fe506 O508 1.918 . S
Fe506 O511 1.997 . S
Fe506 O512 2.002 . S
Fe506 O517 1.976 . S
Fe506 O520 1.996 . S
Fe507 O508 1.918 . S
Fe507 O515 1.997 . S
Fe507 O518 1.996 . S
Fe507 O522 1.976 . S
Fe507 O525 2.002 1_556 S
O508 Fe506 1.918 . S
O508 Fe507 1.918 . S
O508 Fe509 1.918 . S
Fe509 O508 1.918 . S
Fe509 O510 2.002 . S
Fe509 O519 1.976 . S
Fe509 O523 1.996 . S
Fe509 O526 1.997 1_556 S
O510 Fe509 2.002 . S
O510 C527 1.295 . S
O511 Fe506 1.997 . S
O511 C527 1.235 . S
O512 Fe506 2.002 . S
O512 C513 1.295 . S
C513 O512 1.295 . S
C513 O515 1.235 . S
C514 O519 1.287 . S
C514 O520 1.255 . S
O515 Fe507 1.997 . S
O515 C513 1.235 . S
C516 O522 1.287 . S
C516 O523 1.255 . S
O517 Fe506 1.976 . S
O517 C524 1.287 . S
O518 Fe507 1.996 . S
O518 C524 1.255 . S
O519 Fe509 1.976 . S
O519 C514 1.287 . S
O520 Fe506 1.996 . S
O520 C514 1.255 . S
C521 O525 1.295 . S
C521 O526 1.235 . S
O522 Fe507 1.976 . S
O522 C516 1.287 . S
O523 Fe509 1.996 . S
O523 C516 1.255 . S
C524 O517 1.287 . S
C524 O518 1.255 . S
O525 Fe507 2.002 1_554 S
O525 C521 1.295 . S
O526 Fe509 1.997 1_554 S
O526 C521 1.235 . S
C527 O510 1.295 . S
C527 O511 1.235 . S
Fe528 O530 1.918 . S
Fe528 O533 1.997 . S
Fe528 O534 2.002 . S
Fe528 O539 1.976 . S
Fe528 O542 1.996 . S
Fe529 O530 1.918 . S
Fe529 O537 1.997 . S
Fe529 O540 1.996 . S
Fe529 O544 1.976 . S
Fe529 O547 2.002 . S
O530 Fe528 1.918 . S
O530 Fe529 1.918 . S
O530 Fe531 1.918 . S
Fe531 O530 1.918 . S
Fe531 O532 2.002 . S
Fe531 O541 1.976 . S
Fe531 O545 1.996 . S
Fe531 O548 1.997 . S
O532 Fe531 2.002 . S
O532 C549 1.295 . S
O533 Fe528 1.997 . S
O533 C549 1.235 . S
O534 Fe528 2.002 . S
O534 C535 1.295 . S
C535 O534 1.295 . S
C535 O537 1.235 . S
C536 O541 1.287 . S
C536 O542 1.255 . S
O537 Fe529 1.997 . S
O537 C535 1.235 . S
C538 O544 1.287 . S
C538 O545 1.255 . S
O539 Fe528 1.976 . S
O539 C546 1.287 . S
O540 Fe529 1.996 . S
O540 C546 1.255 . S
O541 Fe531 1.976 . S
O541 C536 1.287 . S
O542 Fe528 1.996 . S
O542 C536 1.255 . S
C543 O547 1.295 . S
C543 O548 1.235 . S
O544 Fe529 1.976 . S
O544 C538 1.287 . S
O545 Fe531 1.996 . S
O545 C538 1.255 . S
C546 O539 1.287 . S
C546 O540 1.255 . S
O547 Fe529 2.002 . S
O547 C543 1.295 . S
O548 Fe531 1.997 . S
O548 C543 1.235 . S
C549 O532 1.295 . S
C549 O533 1.235 . S
Fe550 O552 1.918 . S
Fe550 O555 1.997 . S
Fe550 O556 2.002 . S
Fe550 O561 1.976 . S
Fe550 O564 1.996 . S
Fe551 O552 1.918 . S
Fe551 O559 1.997 . S
Fe551 O562 1.996 . S
Fe551 O566 1.976 . S
Fe551 O569 2.002 . S
O552 Fe550 1.918 . S
O552 Fe551 1.918 . S
O552 Fe553 1.918 . S
Fe553 O552 1.918 . S
Fe553 O554 2.002 . S
Fe553 O563 1.976 . S
Fe553 O567 1.996 . S
Fe553 O570 1.997 . S
O554 Fe553 2.002 . S
O554 C571 1.295 . S
O555 Fe550 1.997 . S
O555 C571 1.235 . S
O556 Fe550 2.002 . S
O556 C557 1.295 . S
C557 O556 1.295 . S
C557 O559 1.235 . S
C558 O563 1.287 . S
C558 O564 1.255 . S
O559 Fe551 1.997 . S
O559 C557 1.235 . S
C560 O566 1.287 . S
C560 O567 1.255 . S
O561 Fe550 1.976 . S
O561 C568 1.287 . S
O562 Fe551 1.996 . S
O562 C568 1.255 . S
O563 Fe553 1.976 . S
O563 C558 1.287 . S
O564 Fe550 1.996 . S
O564 C558 1.255 . S
C565 O569 1.295 . S
C565 O570 1.235 . S
O566 Fe551 1.976 . S
O566 C560 1.287 . S
O567 Fe553 1.996 . S
O567 C560 1.255 . S
C568 O561 1.287 . S
C568 O562 1.255 . S
O569 Fe551 2.002 . S
O569 C565 1.295 . S
O570 Fe553 1.997 . S
O570 C565 1.235 . S
C571 O554 1.295 . S
C571 O555 1.235 . S
Fe572 O574 1.918 . S
Fe572 O577 1.997 . S
Fe572 O578 2.002 . S
Fe572 O583 1.976 . S
Fe572 O586 1.996 . S
Fe573 O574 1.918 . S
Fe573 O581 1.997 . S
Fe573 O584 1.996 . S
Fe573 O588 1.976 . S
Fe573 O591 2.002 . S
O574 Fe572 1.918 . S
O574 Fe573 1.918 . S
O574 Fe575 1.918 . S
Fe575 O574 1.918 . S
Fe575 O576 2.002 . S
Fe575 O585 1.976 . S
Fe575 O589 1.996 . S
Fe575 O592 1.997 . S
O576 Fe575 2.002 . S
O576 C593 1.295 . S
O577 Fe572 1.997 . S
O577 C593 1.235 . S
O578 Fe572 2.002 . S
O578 C579 1.295 . S
C579 O578 1.295 . S
C579 O581 1.235 . S
C580 O585 1.287 . S
C580 O586 1.255 . S
O581 Fe573 1.997 . S
O581 C579 1.235 . S
C582 O588 1.287 . S
C582 O589 1.255 . S
O583 Fe572 1.976 . S
O583 C590 1.287 . S
O584 Fe573 1.996 . S
O584 C590 1.255 . S
O585 Fe575 1.976 . S
O585 C580 1.287 . S
O586 Fe572 1.996 . S
O586 C580 1.255 . S
C587 O591 1.295 . S
C587 O592 1.235 . S
O588 Fe573 1.976 . S
O588 C582 1.287 . S
O589 Fe575 1.996 . S
O589 C582 1.255 . S
C590 O583 1.287 . S
C590 O584 1.255 . S
O591 Fe573 2.002 . S
O591 C587 1.295 . S
O592 Fe575 1.997 . S
O592 C587 1.235 . S
C593 O576 1.295 . S
C593 O577 1.235 . S
Fe594 O596 1.918 . S
Fe594 O599 1.997 . S
Fe594 O600 2.002 . S
Fe594 O605 1.976 . S
Fe594 O608 1.996 . S
Fe595 O596 1.918 . S
Fe595 O603 1.997 . S
Fe595 O606 1.996 . S
Fe595 O610 1.976 . S
Fe595 O613 2.002 1_554 S
O596 Fe594 1.918 . S
O596 Fe595 1.918 . S
O596 Fe597 1.918 . S
Fe597 O596 1.918 . S
Fe597 O598 2.002 . S
Fe597 O607 1.976 . S
Fe597 O611 1.996 . S
Fe597 O614 1.997 1_554 S
O598 Fe597 2.002 . S
O598 C615 1.295 . S
O599 Fe594 1.997 . S
O599 C615 1.235 . S
O600 Fe594 2.002 . S
O600 C601 1.295 . S
C601 O600 1.295 . S
C601 O603 1.235 . S
C602 O607 1.287 . S
C602 O608 1.255 . S
O603 Fe595 1.997 . S
O603 C601 1.235 . S
C604 O610 1.287 . S
C604 O611 1.255 . S
O605 Fe594 1.976 . S
O605 C612 1.287 . S
O606 Fe595 1.996 . S
O606 C612 1.255 . S
O607 Fe597 1.976 . S
O607 C602 1.287 . S
O608 Fe594 1.996 . S
O608 C602 1.255 . S
C609 O613 1.295 . S
C609 O614 1.235 . S
O610 Fe595 1.976 . S
O610 C604 1.287 . S
O611 Fe597 1.996 . S
O611 C604 1.255 . S
C612 O605 1.287 . S
C612 O606 1.255 . S
O613 Fe595 2.002 1_556 S
O613 C609 1.295 . S
O614 Fe597 1.997 1_556 S
O614 C609 1.235 . S
C615 O598 1.295 . S
C615 O599 1.235 . S
Fe616 O618 1.918 . S
Fe616 O621 1.997 . S
Fe616 O622 2.002 1_554 S
Fe616 O627 1.976 . S
Fe616 O630 1.996 . S
Fe617 O618 1.918 . S
Fe617 O625 1.997 1_554 S
Fe617 O628 1.996 . S
Fe617 O632 1.976 . S
Fe617 O635 2.002 . S
O618 Fe616 1.918 . S
O618 Fe617 1.918 . S
O618 Fe619 1.918 . S
Fe619 O618 1.918 . S
Fe619 O620 2.002 . S
Fe619 O629 1.976 . S
Fe619 O633 1.996 . S
Fe619 O636 1.997 . S
O620 Fe619 2.002 . S
O620 C637 1.295 . S
O621 Fe616 1.997 . S
O621 C637 1.235 . S
O622 Fe616 2.002 1_556 S
O622 C623 1.295 . S
C623 O622 1.295 . S
C623 O625 1.235 . S
C624 O629 1.287 . S
C624 O630 1.255 . S
O625 Fe617 1.997 1_556 S
O625 C623 1.235 . S
C626 O632 1.287 . S
C626 O633 1.255 . S
O627 Fe616 1.976 . S
O627 C634 1.287 . S
O628 Fe617 1.996 . S
O628 C634 1.255 . S
O629 Fe619 1.976 . S
O629 C624 1.287 . S
O630 Fe616 1.996 . S
O630 C624 1.255 . S
C631 O635 1.295 . S
C631 O636 1.235 . S
O632 Fe617 1.976 . S
O632 C626 1.287 . S
O633 Fe619 1.996 . S
O633 C626 1.255 . S
C634 O627 1.287 . S
C634 O628 1.255 . S
O635 Fe617 2.002 . S
O635 C631 1.295 . S
O636 Fe619 1.997 . S
O636 C631 1.235 . S
C637 O620 1.295 . S
C637 O621 1.235 . S
Fe638 O640 1.918 . S
Fe638 O643 1.997 . S
Fe638 O644 2.002 1_554 S
Fe638 O649 1.976 . S
Fe638 O652 1.996 . S
Fe639 O640 1.918 . S
Fe639 O647 1.997 1_554 S
Fe639 O650 1.996 . S
Fe639 O654 1.976 . S
Fe639 O657 2.002 . S
O640 Fe638 1.918 . S
O640 Fe639 1.918 . S
O640 Fe641 1.918 . S
Fe641 O640 1.918 . S
Fe641 O642 2.002 . S
Fe641 O651 1.976 . S
Fe641 O655 1.996 . S
Fe641 O658 1.997 . S
O642 Fe641 2.002 . S
O642 C659 1.295 . S
O643 Fe638 1.997 . S
O643 C659 1.235 . S
O644 Fe638 2.002 1_556 S
O644 C645 1.295 . S
C645 O644 1.295 . S
C645 O647 1.235 . S
C646 O651 1.287 . S
C646 O652 1.255 . S
O647 Fe639 1.997 1_556 S
O647 C645 1.235 . S
C648 O654 1.287 . S
C648 O655 1.255 . S
O649 Fe638 1.976 . S
O649 C656 1.287 . S
O650 Fe639 1.996 . S
O650 C656 1.255 . S
O651 Fe641 1.976 . S
O651 C646 1.287 . S
O652 Fe638 1.996 . S
O652 C646 1.255 . S
C653 O657 1.295 . S
C653 O658 1.235 . S
O654 Fe639 1.976 . S
O654 C648 1.287 . S
O655 Fe641 1.996 . S
O655 C648 1.255 . S
C656 O649 1.287 . S
C656 O650 1.255 . S
O657 Fe639 2.002 . S
O657 C653 1.295 . S
O658 Fe641 1.997 . S
O658 C653 1.235 . S
C659 O642 1.295 . S
C659 O643 1.235 . S
Fe660 O662 1.918 . S
Fe660 O665 1.997 . S
Fe660 O666 2.002 . S
Fe660 O671 1.976 . S
Fe660 O674 1.996 . S
Fe661 O662 1.918 . S
Fe661 O669 1.997 . S
Fe661 O672 1.996 . S
Fe661 O676 1.976 . S
Fe661 O679 2.002 . S
O662 Fe660 1.918 . S
O662 Fe661 1.918 . S
O662 Fe663 1.918 . S
Fe663 O662 1.918 . S
Fe663 O664 2.002 . S
Fe663 O673 1.976 . S
Fe663 O677 1.996 . S
Fe663 O680 1.997 . S
O664 Fe663 2.002 . S
O664 C681 1.295 . S
O665 Fe660 1.997 . S
O665 C681 1.235 . S
O666 Fe660 2.002 . S
O666 C667 1.295 . S
C667 O666 1.295 . S
C667 O669 1.235 . S
C668 O673 1.287 . S
C668 O674 1.255 . S
O669 Fe661 1.997 . S
O669 C667 1.235 . S
C670 O676 1.287 . S
C670 O677 1.255 . S
O671 Fe660 1.976 . S
O671 C678 1.287 . S
O672 Fe661 1.996 . S
O672 C678 1.255 . S
O673 Fe663 1.976 . S
O673 C668 1.287 . S
O674 Fe660 1.996 . S
O674 C668 1.255 . S
C675 O679 1.295 . S
C675 O680 1.235 . S
O676 Fe661 1.976 . S
O676 C670 1.287 . S
O677 Fe663 1.996 . S
O677 C670 1.255 . S
C678 O671 1.287 . S
C678 O672 1.255 . S
O679 Fe661 2.002 . S
O679 C675 1.295 . S
O680 Fe663 1.997 . S
O680 C675 1.235 . S
C681 O664 1.295 . S
C681 O665 1.235 . S
Fe682 O684 1.918 . S
Fe682 O687 1.997 . S
Fe682 O688 2.002 . S
Fe682 O693 1.976 . S
Fe682 O696 1.996 . S
Fe683 O684 1.918 . S
Fe683 O691 1.997 . S
Fe683 O694 1.996 . S
Fe683 O698 1.976 . S
Fe683 O701 2.002 . S
O684 Fe682 1.918 . S
O684 Fe683 1.918 . S
O684 Fe685 1.918 . S
Fe685 O684 1.918 . S
Fe685 O686 2.002 . S
Fe685 O695 1.976 . S
Fe685 O699 1.996 . S
Fe685 O702 1.997 . S
O686 Fe685 2.002 . S
O686 C703 1.295 . S
O687 Fe682 1.997 . S
O687 C703 1.235 . S
O688 Fe682 2.002 . S
O688 C689 1.295 . S
C689 O688 1.295 . S
C689 O691 1.235 . S
C690 O695 1.287 . S
C690 O696 1.255 . S
O691 Fe683 1.997 . S
O691 C689 1.235 . S
C692 O698 1.287 . S
C692 O699 1.255 . S
O693 Fe682 1.976 . S
O693 C700 1.287 . S
O694 Fe683 1.996 . S
O694 C700 1.255 . S
O695 Fe685 1.976 . S
O695 C690 1.287 . S
O696 Fe682 1.996 . S
O696 C690 1.255 . S
C697 O701 1.295 . S
C697 O702 1.235 . S
O698 Fe683 1.976 . S
O698 C692 1.287 . S
O699 Fe685 1.996 . S
O699 C692 1.255 . S
C700 O693 1.287 . S
C700 O694 1.255 . S
O701 Fe683 2.002 . S
O701 C697 1.295 . S
O702 Fe685 1.997 . S
O702 C697 1.235 . S
C703 O686 1.295 . S
C703 O687 1.235 . S
Fe704 O706 1.918 . S
Fe704 O709 1.997 . S
Fe704 O710 2.002 . S
Fe704 O715 1.976 . S
Fe704 O718 1.996 . S
Fe705 O706 1.918 . S
Fe705 O713 1.997 . S
Fe705 O716 1.996 . S
Fe705 O720 1.976 . S
Fe705 O723 2.002 . S
O706 Fe704 1.918 . S
O706 Fe705 1.918 . S
O706 Fe707 1.918 . S
Fe707 O706 1.918 . S
Fe707 O708 2.002 . S
Fe707 O717 1.976 . S
Fe707 O721 1.996 . S
Fe707 O724 1.997 . S
O708 Fe707 2.002 . S
O708 C725 1.295 . S
O709 Fe704 1.997 . S
O709 C725 1.235 . S
O710 Fe704 2.002 . S
O710 C711 1.295 . S
C711 O710 1.295 . S
C711 O713 1.235 . S
C712 O717 1.287 . S
C712 O718 1.255 . S
O713 Fe705 1.997 . S
O713 C711 1.235 . S
C714 O720 1.287 . S
C714 O721 1.255 . S
O715 Fe704 1.976 . S
O715 C722 1.287 . S
O716 Fe705 1.996 . S
O716 C722 1.255 . S
O717 Fe707 1.976 . S
O717 C712 1.287 . S
O718 Fe704 1.996 . S
O718 C712 1.255 . S
C719 O723 1.295 . S
C719 O724 1.235 . S
O720 Fe705 1.976 . S
O720 C714 1.287 . S
O721 Fe707 1.996 . S
O721 C714 1.255 . S
C722 O715 1.287 . S
C722 O716 1.255 . S
O723 Fe705 2.002 . S
O723 C719 1.295 . S
O724 Fe707 1.997 . S
O724 C719 1.235 . S
C725 O708 1.295 . S
C725 O709 1.235 . S
Fe726 O728 1.918 . S
Fe726 O731 1.997 . S
Fe726 O732 2.002 . S
Fe726 O737 1.976 . S
Fe726 O740 1.996 . S
Fe727 O728 1.918 . S
Fe727 O735 1.997 . S
Fe727 O738 1.996 . S
Fe727 O742 1.976 . S
Fe727 O745 2.002 . S
O728 Fe726 1.918 . S
O728 Fe727 1.918 . S
O728 Fe729 1.918 . S
Fe729 O728 1.918 . S
Fe729 O730 2.002 . S
Fe729 O739 1.976 . S
Fe729 O743 1.996 . S
Fe729 O746 1.997 . S
O730 Fe729 2.002 . S
O730 C747 1.295 . S
O731 Fe726 1.997 . S
O731 C747 1.235 . S
O732 Fe726 2.002 . S
O732 C733 1.295 . S
C733 O732 1.295 . S
C733 O735 1.235 . S
C734 O739 1.287 . S
C734 O740 1.255 . S
O735 Fe727 1.997 . S
O735 C733 1.235 . S
C736 O742 1.287 . S
C736 O743 1.255 . S
O737 Fe726 1.976 . S
O737 C744 1.287 . S
O738 Fe727 1.996 . S
O738 C744 1.255 . S
O739 Fe729 1.976 . S
O739 C734 1.287 . S
O740 Fe726 1.996 . S
O740 C734 1.255 . S
C741 O745 1.295 . S
C741 O746 1.235 . S
O742 Fe727 1.976 . S
O742 C736 1.287 . S
O743 Fe729 1.996 . S
O743 C736 1.255 . S
C744 O737 1.287 . S
C744 O738 1.255 . S
O745 Fe727 2.002 . S
O745 C741 1.295 . S
O746 Fe729 1.997 . S
O746 C741 1.235 . S
C747 O730 1.295 . S
C747 O731 1.235 . S
Fe748 O750 1.918 . S
Fe748 O753 1.997 . S
Fe748 O754 2.002 . S
Fe748 O759 1.976 . S
Fe748 O762 1.996 . S
Fe749 O750 1.918 . S
Fe749 O757 1.997 . S
Fe749 O760 1.996 . S
Fe749 O764 1.976 . S
Fe749 O767 2.002 . S
O750 Fe748 1.918 . S
O750 Fe749 1.918 . S
O750 Fe751 1.918 . S
Fe751 O750 1.918 . S
Fe751 O752 2.002 . S
Fe751 O761 1.976 . S
Fe751 O765 1.996 . S
Fe751 O768 1.997 . S
O752 Fe751 2.002 . S
O752 C769 1.295 . S
O753 Fe748 1.997 . S
O753 C769 1.235 . S
O754 Fe748 2.002 . S
O754 C755 1.295 . S
C755 O754 1.295 . S
C755 O757 1.235 . S
C756 O761 1.287 . S
C756 O762 1.255 . S
O757 Fe749 1.997 . S
O757 C755 1.235 . S
C758 O764 1.287 . S
C758 O765 1.255 . S
O759 Fe748 1.976 . S
O759 C766 1.287 . S
O760 Fe749 1.996 . S
O760 C766 1.255 . S
O761 Fe751 1.976 . S
O761 C756 1.287 . S
O762 Fe748 1.996 . S
O762 C756 1.255 . S
C763 O767 1.295 . S
C763 O768 1.235 . S
O764 Fe749 1.976 . S
O764 C758 1.287 . S
O765 Fe751 1.996 . S
O765 C758 1.255 . S
C766 O759 1.287 . S
C766 O760 1.255 . S
O767 Fe749 2.002 . S
O767 C763 1.295 . S
O768 Fe751 1.997 . S
O768 C763 1.235 . S
C769 O752 1.295 . S
C769 O753 1.235 . S
Fe770 O772 1.918 . S
Fe770 O775 1.997 . S
Fe770 O776 2.002 . S
Fe770 O781 1.976 . S
Fe770 O784 1.996 . S
Fe771 O772 1.918 . S
Fe771 O779 1.997 . S
Fe771 O782 1.996 . S
Fe771 O786 1.976 . S
Fe771 O789 2.002 . S
O772 Fe770 1.918 . S
O772 Fe771 1.918 . S
O772 Fe773 1.918 . S
Fe773 O772 1.918 . S
Fe773 O774 2.002 . S
Fe773 O783 1.976 . S
Fe773 O787 1.996 . S
Fe773 O790 1.997 . S
O774 Fe773 2.002 . S
O774 C791 1.295 . S
O775 Fe770 1.997 . S
O775 C791 1.235 . S
O776 Fe770 2.002 . S
O776 C777 1.295 . S
C777 O776 1.295 . S
C777 O779 1.235 . S
C778 O783 1.287 . S
C778 O784 1.255 . S
O779 Fe771 1.997 . S
O779 C777 1.235 . S
C780 O786 1.287 . S
C780 O787 1.255 . S
O781 Fe770 1.976 . S
O781 C788 1.287 . S
O782 Fe771 1.996 . S
O782 C788 1.255 . S
O783 Fe773 1.976 . S
O783 C778 1.287 . S
O784 Fe770 1.996 . S
O784 C778 1.255 . S
C785 O789 1.295 . S
C785 O790 1.235 . S
O786 Fe771 1.976 . S
O786 C780 1.287 . S
O787 Fe773 1.996 . S
O787 C780 1.255 . S
C788 O781 1.287 . S
C788 O782 1.255 . S
O789 Fe771 2.002 . S
O789 C785 1.295 . S
O790 Fe773 1.997 . S
O790 C785 1.235 . S
C791 O774 1.295 . S
C791 O775 1.235 . S
C21 C73 2.944 . S
C37 C109 2.944 1_545 S
C125 C59 2.944 1_455 S
C147 C213 2.944 . S
C161 C241 2.944 1_565 S
C191 C257 2.944 1_455 S
C351 C285 2.944 . S
C301 C373 2.944 . S
C323 C381 2.944 . S
C411 C483 2.944 . S
C439 C505 2.944 . S
C461 C521 2.944 . S
C549 C609 2.944 . S
C571 C623 2.944 . S
C645 C593 2.944 . S
C667 C741 2.944 . S
C697 C769 2.944 . S
C725 C785 2.944 . S
C8 C406 2.218 . S
C32 C426 2.218 . S
C54 C448 2.218 . S
C736 C84 2.218 . S
C96 C756 2.218 . S
C780 C120 2.218 . S
C142 C536 2.218 . S
C172 C558 2.218 . S
C580 C186 2.218 . S
C208 C338 2.218 . S
C360 C228 2.218 . S
C252 C392 2.218 . S
C272 C678 2.218 1_655 S
C296 C692 2.218 . S
C712 C318 2.218 1_565 S
C604 C470 2.218 1_564 S
C634 C492 2.218 1_454 S
C516 C656 2.218 1_556 S
C43 C15 1.033 . S
C29 C65 1.033 . S
C51 C7 1.033 . S
C87 C131 1.033 . S
C103 C81 1.033 . S
C117 C95 1.033 . S
C169 C139 1.033 . S
C197 C175 1.033 . S
C183 C153 1.033 . S
C205 C263 1.033 . S
C219 C235 1.033 . S
C227 C249 1.033 . S
C307 C279 1.033 . S
C329 C293 1.033 . S
C315 C271 1.033 . S
C389 C345 1.033 . S
C337 C367 1.033 . S
C395 C359 1.033 . S
C403 C425 1.033 . S
C447 C433 1.033 . S
C455 C417 1.033 . S
C477 C527 1.033 . S
C499 C469 1.033 . S
C513 C491 1.033 . S
C557 C543 1.033 . S
C565 C579 1.033 . S
C587 C535 1.033 . S
C653 C601 1.033 . S
C615 C637 1.033 . S
C659 C631 1.033 . S
C681 C703 1.033 . S
C711 C689 1.033 . S
C675 C719 1.033 . S
C791 C733 1.033 . S
C763 C747 1.033 . S
C777 C755 1.033 . S
C162 C18 1.497 1_556 S
C30 C194 1.497 1_554 S
C52 C150 1.497 1_554 S
C76 C260 1.497 . S
C216 C106 1.497 . S
C230 C118 1.497 . S
C40 C140 1.497 1_554 S
C164 C62 1.497 1_556 S
C184 C10 1.497 1_556 S
C128 C206 1.497 . S
C74 C238 1.497 . S
C250 C98 1.497 . S
C282 C428 1.497 . S
C294 C450 1.497 . S
C316 C414 1.497 . S
C524 C348 1.497 . S
C370 C472 1.497 . S
C494 C384 1.497 . S
C304 C404 1.497 . S
C326 C436 1.497 . S
C274 C458 1.497 . S
C382 C480 1.497 . S
C340 C502 1.497 . S
C514 C362 1.497 . S
C546 C700 1.497 . S
C568 C714 1.497 . S
C668 C590 1.497 . S
C788 C602 1.497 . S
C744 C626 1.497 . S
C648 C758 1.497 . S
C670 C560 1.497 . S
C690 C582 1.497 . S
C722 C538 1.497 . S
C734 C646 1.497 . S
C766 C612 1.497 . S
C624 C778 1.497 . S
