# Generated by pormake.
# Topology afi, (4)-cn, num edge types: 1
# Building blocks:
#     Node 0, Type 0, BuildingBlock: GALJAG_clean_sbu_0, # of connection points: 4
#     Node 1, Type 0, BuildingBlock: GALJAG_clean_sbu_0, # of connection points: 4
#     Node 2, Type 0, BuildingBlock: GALJAG_clean_sbu_0, # of connection points: 4
#     Node 3, Type 0, BuildingBlock: GALJAG_clean_sbu_0, # of connection points: 4
#     Node 4, Type 0, BuildingBlock: GALJAG_clean_sbu_0, # of connection points: 4
#     Node 5, Type 0, BuildingBlock: GALJAG_clean_sbu_0, # of connection points: 4
#     Node 6, Type 0, BuildingBlock: GALJAG_clean_sbu_0, # of connection points: 4
#     Node 7, Type 0, BuildingBlock: GALJAG_clean_sbu_0, # of connection points: 4
#     Node 8, Type 0, BuildingBlock: GALJAG_clean_sbu_0, # of connection points: 4
#     Node 9, Type 0, BuildingBlock: GALJAG_clean_sbu_0, # of connection points: 4
#     Node 10, Type 0, BuildingBlock: GALJAG_clean_sbu_0, # of connection points: 4
#     Node 11, Type 0, BuildingBlock: GALJAG_clean_sbu_0, # of connection points: 4
#     Node 12, Type 0, BuildingBlock: GALJAG_clean_sbu_0, # of connection points: 4
#     Node 13, Type 0, BuildingBlock: GALJAG_clean_sbu_0, # of connection points: 4
#     Node 14, Type 0, BuildingBlock: GALJAG_clean_sbu_0, # of connection points: 4
#     Node 15, Type 0, BuildingBlock: GALJAG_clean_sbu_0, # of connection points: 4
#     Node 16, Type 0, BuildingBlock: GALJAG_clean_sbu_0, # of connection points: 4
#     Node 17, Type 0, BuildingBlock: GALJAG_clean_sbu_0, # of connection points: 4
#     Node 18, Type 0, BuildingBlock: GALJAG_clean_sbu_0, # of connection points: 4
#     Node 19, Type 0, BuildingBlock: GALJAG_clean_sbu_0, # of connection points: 4
#     Node 20, Type 0, BuildingBlock: GALJAG_clean_sbu_0, # of connection points: 4
#     Node 21, Type 0, BuildingBlock: GALJAG_clean_sbu_0, # of connection points: 4
#     Node 22, Type 0, BuildingBlock: GALJAG_clean_sbu_0, # of connection points: 4
#     Node 23, Type 0, BuildingBlock: GALJAG_clean_sbu_0, # of connection points: 4
#     Edge 24, Type (0, 0), BuildingBlock: CIFDUS_clean_linker_0, # of connection points: 2
#     Edge 25, Type (0, 0), BuildingBlock: CIFDUS_clean_linker_0, # of connection points: 2
#     Edge 26, Type (0, 0), BuildingBlock: CIFDUS_clean_linker_0, # of connection points: 2
#     Edge 27, Type (0, 0), BuildingBlock: CIFDUS_clean_linker_0, # of connection points: 2
#     Edge 28, Type (0, 0), BuildingBlock: CIFDUS_clean_linker_0, # of connection points: 2
#     Edge 29, Type (0, 0), BuildingBlock: CIFDUS_clean_linker_0, # of connection points: 2
#     Edge 30, Type (0, 0), BuildingBlock: CIFDUS_clean_linker_0, # of connection points: 2
#     Edge 31, Type (0, 0), BuildingBlock: CIFDUS_clean_linker_0, # of connection points: 2
#     Edge 32, Type (0, 0), BuildingBlock: CIFDUS_clean_linker_0, # of connection points: 2
#     Edge 33, Type (0, 0), BuildingBlock: CIFDUS_clean_linker_0, # of connection points: 2
#     Edge 34, Type (0, 0), BuildingBlock: CIFDUS_clean_linker_0, # of connection points: 2
#     Edge 35, Type (0, 0), BuildingBlock: CIFDUS_clean_linker_0, # of connection points: 2
#     Edge 36, Type (0, 0), BuildingBlock: CIFDUS_clean_linker_0, # of connection points: 2
#     Edge 37, Type (0, 0), BuildingBlock: CIFDUS_clean_linker_0, # of connection points: 2
#     Edge 38, Type (0, 0), BuildingBlock: CIFDUS_clean_linker_0, # of connection points: 2
#     Edge 39, Type (0, 0), BuildingBlock: CIFDUS_clean_linker_0, # of connection points: 2
#     Edge 40, Type (0, 0), BuildingBlock: CIFDUS_clean_linker_0, # of connection points: 2
#     Edge 41, Type (0, 0), BuildingBlock: CIFDUS_clean_linker_0, # of connection points: 2
#     Edge 42, Type (0, 0), BuildingBlock: CIFDUS_clean_linker_0, # of connection points: 2
#     Edge 43, Type (0, 0), BuildingBlock: CIFDUS_clean_linker_0, # of connection points: 2
#     Edge 44, Type (0, 0), BuildingBlock: CIFDUS_clean_linker_0, # of connection points: 2
#     Edge 45, Type (0, 0), BuildingBlock: CIFDUS_clean_linker_0, # of connection points: 2
#     Edge 46, Type (0, 0), BuildingBlock: CIFDUS_clean_linker_0, # of connection points: 2
#     Edge 47, Type (0, 0), BuildingBlock: CIFDUS_clean_linker_0, # of connection points: 2
#     Edge 48, Type (0, 0), BuildingBlock: CIFDUS_clean_linker_0, # of connection points: 2
#     Edge 49, Type (0, 0), BuildingBlock: CIFDUS_clean_linker_0, # of connection points: 2
#     Edge 50, Type (0, 0), BuildingBlock: CIFDUS_clean_linker_0, # of connection points: 2
#     Edge 51, Type (0, 0), BuildingBlock: CIFDUS_clean_linker_0, # of connection points: 2
#     Edge 52, Type (0, 0), BuildingBlock: CIFDUS_clean_linker_0, # of connection points: 2
#     Edge 53, Type (0, 0), BuildingBlock: CIFDUS_clean_linker_0, # of connection points: 2
#     Edge 54, Type (0, 0), BuildingBlock: CIFDUS_clean_linker_0, # of connection points: 2
#     Edge 55, Type (0, 0), BuildingBlock: CIFDUS_clean_linker_0, # of connection points: 2
#     Edge 56, Type (0, 0), BuildingBlock: CIFDUS_clean_linker_0, # of connection points: 2
#     Edge 57, Type (0, 0), BuildingBlock: CIFDUS_clean_linker_0, # of connection points: 2
#     Edge 58, Type (0, 0), BuildingBlock: CIFDUS_clean_linker_0, # of connection points: 2
#     Edge 59, Type (0, 0), BuildingBlock: CIFDUS_clean_linker_0, # of connection points: 2
#     Edge 60, Type (0, 0), BuildingBlock: CIFDUS_clean_linker_0, # of connection points: 2
#     Edge 61, Type (0, 0), BuildingBlock: CIFDUS_clean_linker_0, # of connection points: 2
#     Edge 62, Type (0, 0), BuildingBlock: CIFDUS_clean_linker_0, # of connection points: 2
#     Edge 63, Type (0, 0), BuildingBlock: CIFDUS_clean_linker_0, # of connection points: 2
#     Edge 64, Type (0, 0), BuildingBlock: CIFDUS_clean_linker_0, # of connection points: 2
#     Edge 65, Type (0, 0), BuildingBlock: CIFDUS_clean_linker_0, # of connection points: 2
#     Edge 66, Type (0, 0), BuildingBlock: CIFDUS_clean_linker_0, # of connection points: 2
#     Edge 67, Type (0, 0), BuildingBlock: CIFDUS_clean_linker_0, # of connection points: 2
#     Edge 68, Type (0, 0), BuildingBlock: CIFDUS_clean_linker_0, # of connection points: 2
#     Edge 69, Type (0, 0), BuildingBlock: CIFDUS_clean_linker_0, # of connection points: 2
#     Edge 70, Type (0, 0), BuildingBlock: CIFDUS_clean_linker_0, # of connection points: 2
#     Edge 71, Type (0, 0), BuildingBlock: CIFDUS_clean_linker_0, # of connection points: 2
# Relax obj value: 0.135
# Max RMSD: 0.138
# Mean RMSD: 0.138
data_MOF--net-afi--node1-GALJAG_clean_sbu_0--edge1-CIFDUS_clean_linker_0
_symmetry_space_group_name_H-M    P1
_symmetry_Int_Tables_number       1
_symmetry_cell_setting            triclinic
loop_
_symmetry_equiv_pos_as_xyz
'x, y, z'
_cell_length_a     59.433779
_cell_length_b     59.503536
_cell_length_c     35.031793
_cell_angle_alpha  89.94073
_cell_angle_beta   90.05974
_cell_angle_gamma 119.97129
loop_
_atom_site_label
_atom_site_type_symbol
_atom_site_fract_x
_atom_site_fract_y
_atom_site_fract_z
_atom_type_partial_charge
In0 In 0.45433 0.12245 0.19297 0.0
O1 O 0.47269 0.1327 0.13397 0.0
O2 O 0.43194 0.11737 0.13724 0.0
C3 C 0.49553 0.12104 0.22284 0.0
C4 C 0.45617 0.16659 0.21735 0.0
C5 C 0.41776 0.07459 0.21617 0.0
O6 O 0.49329 0.12382 0.18757 0.0
O7 O 0.47702 0.119 0.24299 0.0
O8 O 0.42255 0.09493 0.234 0.0
O9 O 0.43087 0.07847 0.18611 0.0
C10 C 0.45179 0.12591 0.11625 0.0
O11 O 0.47603 0.16452 0.21254 0.0
O12 O 0.43504 0.14631 0.20976 0.0
In13 In 0.34633 0.46696 0.17735 0.0
O14 O 0.30308 0.44665 0.19338 0.0
O15 O 0.32438 0.48773 0.19426 0.0
C16 C 0.35511 0.42753 0.19388 0.0
C17 C 0.34669 0.47009 0.10046 0.0
C18 C 0.38676 0.50619 0.21442 0.0
O19 O 0.34348 0.4348 0.21646 0.0
O20 O 0.36153 0.43956 0.16257 0.0
O21 O 0.38059 0.50835 0.18072 0.0
O22 O 0.37234 0.48438 0.22959 0.0
C23 C 0.30286 0.46742 0.19948 0.0
O24 O 0.36556 0.48549 0.12107 0.0
O25 O 0.32737 0.45291 0.11865 0.0
In26 In 0.88123 0.33484 0.19714 0.0
O27 O 0.88056 0.34897 0.13702 0.0
O28 O 0.87869 0.31251 0.14256 0.0
C29 C 0.88213 0.37663 0.22908 0.0
C30 C 0.8361 0.29326 0.21999 0.0
C31 C 0.92882 0.34407 0.21889 0.0
O32 O 0.87827 0.37168 0.19389 0.0
O33 O 0.88531 0.36043 0.2481 0.0
O34 O 0.90874 0.33086 0.23875 0.0
O35 O 0.92479 0.35203 0.18769 0.0
C36 C 0.87912 0.32949 0.12043 0.0
O37 O 0.85696 0.29269 0.2173 0.0
O38 O 0.83799 0.31463 0.21089 0.0
In39 In 0.54702 0.87547 0.20226 0.0
O40 O 0.53227 0.86046 0.14233 0.0
O41 O 0.57264 0.88674 0.14893 0.0
C42 C 0.50222 0.87507 0.21786 0.0
C43 C 0.54799 0.83405 0.23303 0.0
C44 C 0.5809 0.92325 0.2289 0.0
O45 O 0.50674 0.86841 0.18591 0.0
O46 O 0.52026 0.88193 0.24193 0.0
O47 O 0.57461 0.90291 0.24788 0.0
O48 O 0.57046 0.91941 0.19639 0.0
C49 C 0.55414 0.87322 0.12644 0.0
O50 O 0.56767 0.85261 0.21765 0.0
O51 O 0.52815 0.83647 0.23284 0.0
In52 In 0.67185 0.54184 0.20189 0.0
O53 O 0.71474 0.56243 0.22119 0.0
O54 O 0.69271 0.52147 0.22502 0.0
C55 C 0.6598 0.57919 0.21691 0.0
C56 C 0.67884 0.54049 0.12596 0.0
C57 C 0.62809 0.5017 0.2311 0.0
O58 O 0.67267 0.57364 0.23992 0.0
O59 O 0.65371 0.56643 0.18625 0.0
O60 O 0.63312 0.50425 0.19588 0.0
O61 O 0.64515 0.51941 0.25171 0.0
C62 C 0.7143 0.54167 0.23018 0.0
O63 O 0.66549 0.5204 0.14574 0.0
O64 O 0.68922 0.56146 0.14461 0.0
In65 In 0.12561 0.66606 0.18523 0.0
O66 O 0.13807 0.66116 0.12591 0.0
O67 O 0.12309 0.68678 0.13169 0.0
C68 C 0.12328 0.62071 0.20292 0.0
C69 C 0.16881 0.70817 0.21227 0.0
C70 C 0.07812 0.65472 0.21122 0.0
O71 O 0.11392 0.62402 0.17251 0.0
O72 O 0.13363 0.64021 0.22464 0.0
O73 O 0.0968 0.65974 0.23338 0.0
O74 O 0.08364 0.65615 0.17628 0.0
C75 C 0.13211 0.6764 0.10969 0.0
O76 O 0.14697 0.70693 0.21193 0.0
O77 O 0.16862 0.68836 0.19928 0.0
In78 In 0.88842 0.54954 0.32576 0.0
O79 O 0.87084 0.57447 0.30627 0.0
O80 O 0.846 0.53375 0.31033 0.0
C81 C 0.93848 0.58419 0.30818 0.0
C82 C 0.88054 0.54685 0.40192 0.0
C83 C 0.88586 0.50724 0.29273 0.0
O84 O 0.91993 0.57883 0.28561 0.0
O85 O 0.93171 0.57263 0.33983 0.0
O86 O 0.89069 0.5124 0.3277 0.0
O87 O 0.88237 0.52346 0.27429 0.0
C88 C 0.84817 0.55539 0.30238 0.0
O89 O 0.87399 0.52715 0.38136 0.0
O90 O 0.89091 0.56813 0.384 0.0
In91 In 0.3346 0.88089 0.31164 0.0
O92 O 0.33614 0.86227 0.36759 0.0
O93 O 0.3245 0.89067 0.37015 0.0
C94 C 0.37972 0.88238 0.29505 0.0
C95 C 0.28868 0.84072 0.28767 0.0
C96 C 0.34615 0.92617 0.2772 0.0
O97 O 0.37707 0.89363 0.32376 0.0
O98 O 0.35963 0.87037 0.2747 0.0
O99 O 0.34149 0.90608 0.25888 0.0
O100 O 0.34416 0.92323 0.31294 0.0
C101 C 0.32917 0.87507 0.38821 0.0
O102 O 0.2912 0.86237 0.29671 0.0
O103 O 0.30916 0.83951 0.29064 0.0
In104 In 0.45036 0.33388 0.31128 0.0
O105 O 0.46972 0.34069 0.36953 0.0
O106 O 0.42877 0.31583 0.3669 0.0
C107 C 0.49448 0.37431 0.28339 0.0
C108 C 0.44454 0.28808 0.28711 0.0
C109 C 0.41671 0.34971 0.28955 0.0
O110 O 0.48726 0.37339 0.31749 0.0
O111 O 0.47949 0.35486 0.26347 0.0
O112 O 0.42454 0.35139 0.3234 0.0
O113 O 0.42538 0.33953 0.26668 0.0
C114 C 0.44891 0.32653 0.38747 0.0
O115 O 0.42576 0.2923 0.28868 0.0
O116 O 0.46597 0.30682 0.2978 0.0
In117 In 0.12578 0.4517 0.29769 0.0
O118 O 0.16809 0.47033 0.2788 0.0
O119 O 0.14517 0.42935 0.27533 0.0
C120 C 0.07906 0.41651 0.26855 0.0
C121 C 0.12423 0.4449 0.37414 0.0
C122 C 0.13101 0.49831 0.27941 0.0
O123 O 0.08304 0.42048 0.3039 0.0
O124 O 0.09881 0.42965 0.24805 0.0
O125 O 0.1412 0.49493 0.30886 0.0
O126 O 0.11863 0.47837 0.25903 0.0
C127 C 0.16707 0.44928 0.27019 0.0
O128 O 0.13419 0.4356 0.35187 0.0
O129 O 0.11487 0.45731 0.35779 0.0
In130 In 0.66703 0.12043 0.31028 0.0
O131 O 0.70981 0.13839 0.29334 0.0
O132 O 0.69407 0.16336 0.29803 0.0
C133 C 0.65427 0.07306 0.28238 0.0
C134 C 0.66948 0.12443 0.38718 0.0
C135 C 0.62658 0.12346 0.28091 0.0
O136 O 0.6629 0.09303 0.26179 0.0
O137 O 0.65273 0.07703 0.31735 0.0
O138 O 0.62557 0.11323 0.3129 0.0
O139 O 0.64804 0.1323 0.26383 0.0
C140 C 0.71361 0.16116 0.2905 0.0
O141 O 0.6553 0.12997 0.36707 0.0
O142 O 0.68277 0.11704 0.3685 0.0
In143 In 0.5581 0.66881 0.32408 0.0
O144 O 0.53518 0.65386 0.37923 0.0
O145 O 0.57386 0.68548 0.38325 0.0
C146 C 0.51528 0.63076 0.28962 0.0
C147 C 0.56426 0.71542 0.30364 0.0
C148 C 0.59425 0.65577 0.30413 0.0
O149 O 0.52321 0.62768 0.32155 0.0
O150 O 0.52897 0.65294 0.27509 0.0
O151 O 0.58213 0.66143 0.28003 0.0
O152 O 0.58874 0.65742 0.33832 0.0
C153 C 0.55323 0.66984 0.40053 0.0
O154 O 0.58243 0.71033 0.30074 0.0
O155 O 0.54348 0.69727 0.31724 0.0
In156 In 0.54515 0.88465 0.82495 0.0
O157 O 0.52415 0.86222 0.87837 0.0
O158 O 0.56446 0.88951 0.88324 0.0
C159 C 0.50218 0.88643 0.80425 0.0
C160 C 0.54793 0.84482 0.79214 0.0
C161 C 0.58203 0.93394 0.80757 0.0
O162 O 0.5074 0.88431 0.8385 0.0
O163 O 0.51872 0.88784 0.78039 0.0
O164 O 0.57692 0.91498 0.78605 0.0
O165 O 0.56897 0.92795 0.83795 0.0
C166 C 0.54386 0.87304 0.89974 0.0
O167 O 0.56609 0.86173 0.8123 0.0
O168 O 0.52881 0.84825 0.78827 0.0
In169 In 0.67445 0.55179 0.82396 0.0
O170 O 0.70877 0.57138 0.78244 0.0
O171 O 0.70933 0.5455 0.82363 0.0
C172 C 0.65419 0.58316 0.81303 0.0
C173 C 0.68388 0.55601 0.8997 0.0
C174 C 0.63753 0.50721 0.79092 0.0
O175 O 0.67541 0.58777 0.79817 0.0
O176 O 0.64357 0.56311 0.83357 0.0
O177 O 0.63902 0.51091 0.82643 0.0
O178 O 0.65503 0.52571 0.77204 0.0
C179 C 0.72071 0.56066 0.79613 0.0
O180 O 0.67221 0.53448 0.88261 0.0
O181 O 0.69122 0.57563 0.87844 0.0
In182 In 0.13411 0.6673 0.80699 0.0
O183 O 0.15537 0.71035 0.78925 0.0
O184 O 0.17606 0.68993 0.7868 0.0
C185 C 0.08797 0.65862 0.77876 0.0
C186 C 0.14188 0.67283 0.88325 0.0
C187 C 0.12923 0.62127 0.78653 0.0
O188 O 0.10724 0.66398 0.75776 0.0
O189 O 0.09223 0.65846 0.81399 0.0
O190 O 0.11876 0.62408 0.81606 0.0
O191 O 0.14208 0.64167 0.7671 0.0
C192 C 0.1765 0.7111 0.78175 0.0
O193 O 0.14996 0.66102 0.8626 0.0
O194 O 0.13016 0.68238 0.86537 0.0
In195 In 0.47151 0.13111 0.81361 0.0
O196 O 0.49261 0.17368 0.79682 0.0
O197 O 0.4515 0.15396 0.79453 0.0
C198 C 0.4347 0.08637 0.78117 0.0
C199 C 0.47129 0.13644 0.89029 0.0
C200 C 0.51292 0.12635 0.7941 0.0
O201 O 0.44938 0.10636 0.762 0.0
O202 O 0.43795 0.08921 0.81678 0.0
O203 O 0.49863 0.1147 0.82233 0.0
O204 O 0.50623 0.14026 0.77559 0.0
C205 C 0.47254 0.17495 0.78951 0.0
O206 O 0.49175 0.14411 0.87105 0.0
O207 O 0.45065 0.12632 0.87079 0.0
In208 In 0.34028 0.46046 0.79692 0.0
O209 O 0.31884 0.48071 0.77527 0.0
O210 O 0.29809 0.43967 0.77446 0.0
C211 C 0.35251 0.42333 0.78047 0.0
C212 C 0.33451 0.45894 0.87349 0.0
C213 C 0.38277 0.50329 0.77027 0.0
O214 O 0.35379 0.432 0.81367 0.0
O215 O 0.34417 0.4327 0.75555 0.0
O216 O 0.37221 0.48194 0.75272 0.0
O217 O 0.37177 0.50315 0.80114 0.0
C218 C 0.29785 0.46037 0.76772 0.0
O219 O 0.35499 0.47535 0.85674 0.0
O220 O 0.31673 0.44318 0.85157 0.0
In221 In 0.88613 0.34143 0.81621 0.0
O222 O 0.86382 0.298 0.79971 0.0
O223 O 0.84528 0.32012 0.79153 0.0
C224 C 0.93454 0.35043 0.80062 0.0
C225 C 0.8822 0.34147 0.89321 0.0
C226 C 0.88711 0.38282 0.78242 0.0
O227 O 0.91591 0.33903 0.77739 0.0
O228 O 0.92848 0.35641 0.83194 0.0
O229 O 0.87192 0.37052 0.80952 0.0
O230 O 0.90157 0.37408 0.77203 0.0
C231 C 0.84374 0.29832 0.78882 0.0
O232 O 0.88628 0.36047 0.87252 0.0
O233 O 0.87995 0.32212 0.87509 0.0
In234 In 0.12105 0.44981 0.67826 0.0
O235 O 0.13961 0.42565 0.69758 0.0
O236 O 0.16367 0.4664 0.69413 0.0
C237 C 0.07389 0.41329 0.7047 0.0
C238 C 0.1171 0.44848 0.60136 0.0
C239 C 0.1286 0.49653 0.70126 0.0
O240 O 0.09207 0.42847 0.72653 0.0
O241 O 0.0798 0.41596 0.66979 0.0
O242 O 0.13829 0.49352 0.67104 0.0
O243 O 0.11535 0.47602 0.72026 0.0
C244 C 0.16207 0.44497 0.70163 0.0
O245 O 0.1076 0.45877 0.62251 0.0
O246 O 0.12851 0.43849 0.619 0.0
In247 In 0.67987 0.12301 0.69052 0.0
O248 O 0.66458 0.12209 0.63082 0.0
O249 O 0.70118 0.12407 0.63527 0.0
C250 C 0.63979 0.12937 0.71265 0.0
C251 C 0.72475 0.16328 0.7182 0.0
C252 C 0.66387 0.0738 0.71353 0.0
O253 O 0.65316 0.13999 0.68325 0.0
O254 O 0.64684 0.11578 0.73127 0.0
O255 O 0.66457 0.07997 0.67893 0.0
O256 O 0.67191 0.09256 0.73655 0.0
C257 C 0.68375 0.12323 0.61364 0.0
O258 O 0.72165 0.14087 0.71406 0.0
O259 O 0.70537 0.16519 0.70868 0.0
In260 In 0.5575 0.67835 0.7044 0.0
O261 O 0.54097 0.66629 0.64431 0.0
O262 O 0.57971 0.69744 0.64955 0.0
C263 C 0.51121 0.63777 0.72532 0.0
C264 C 0.56233 0.72367 0.72937 0.0
C265 C 0.59152 0.66456 0.7323 0.0
O266 O 0.52476 0.63639 0.69867 0.0
O267 O 0.52093 0.65968 0.74125 0.0
O268 O 0.57207 0.66162 0.75079 0.0
O269 O 0.59429 0.67514 0.70016 0.0
C270 C 0.56131 0.68292 0.62755 0.0
O271 O 0.57745 0.71574 0.74002 0.0
O272 O 0.54501 0.70885 0.70624 0.0
In273 In 0.88903 0.55669 0.70474 0.0
O274 O 0.86497 0.55561 0.75611 0.0
O275 O 0.8584 0.56947 0.70392 0.0
C276 C 0.93745 0.59131 0.73013 0.0
C277 C 0.88409 0.55995 0.62867 0.0
C278 C 0.88115 0.50866 0.72042 0.0
O279 O 0.91761 0.58284 0.75102 0.0
O280 O 0.93277 0.58293 0.69642 0.0
O281 O 0.90276 0.52703 0.70953 0.0
O282 O 0.86339 0.5143 0.72259 0.0
C283 C 0.85207 0.56388 0.73845 0.0
O284 O 0.87622 0.5386 0.64574 0.0
O285 O 0.89397 0.57965 0.65013 0.0
In286 In 0.33772 0.89072 0.69076 0.0
O287 O 0.33865 0.87566 0.63145 0.0
O288 O 0.32261 0.9004 0.63663 0.0
C289 C 0.38115 0.88976 0.71128 0.0
C290 C 0.29324 0.84879 0.7152 0.0
C291 C 0.35212 0.9383 0.71937 0.0
O292 O 0.37707 0.89441 0.67763 0.0
O293 O 0.36326 0.88543 0.73457 0.0
O294 O 0.3391 0.91774 0.73839 0.0
O295 O 0.35724 0.93477 0.68575 0.0
C296 C 0.32848 0.88722 0.61484 0.0
O297 O 0.29515 0.87071 0.71058 0.0
O298 O 0.31365 0.84817 0.7077 0.0
In299 In 0.4658 0.34099 0.68966 0.0
O300 O 0.44098 0.29864 0.70968 0.0
O301 O 0.48178 0.31475 0.70713 0.0
C302 C 0.43099 0.35696 0.70275 0.0
C303 C 0.46755 0.33539 0.61344 0.0
C304 C 0.50792 0.38043 0.72378 0.0
O305 O 0.43519 0.34354 0.72654 0.0
O306 O 0.44406 0.36202 0.67249 0.0
O307 O 0.50561 0.37777 0.68805 0.0
O308 O 0.48895 0.36324 0.7424 0.0
C309 C 0.46009 0.29525 0.71477 0.0
O310 O 0.48741 0.34972 0.63317 0.0
O311 O 0.44672 0.32342 0.63228 0.0
H312 H 0.40105 0.0287 0.17978 0.0
H313 H 0.3954 0.06151 0.28664 0.0
H314 H 0.37098 0.01811 0.3144 0.0
H315 H 0.35443 0.97113 0.30983 0.0
H316 H 0.35984 0.93841 0.20271 0.0
H317 H 0.38092 0.98141 0.17346 0.0
C318 C 0.3942 0.02632 0.209 0.0
C319 C 0.40021 0.04827 0.23122 0.0
C320 C 0.38024 1.00132 0.2248 0.0
C321 C 0.39105 0.0449 0.26895 0.0
C322 C 0.37717 0.0201 0.28489 0.0
C323 C 0.35994 0.9734 0.27997 0.0
C324 C 0.35579 0.95166 0.25857 0.0
C325 C 0.37214 0.99821 0.26333 0.0
C326 C 0.36287 0.95484 0.21984 0.0
C327 C 0.37501 0.97945 0.20311 0.0
H328 H 0.40704 0.35865 0.21702 0.0
H329 H 0.39041 0.36603 0.3347 0.0
H330 H 0.36731 0.38847 0.315 0.0
H331 H 0.35508 0.4092 0.26479 0.0
H332 H 0.37414 0.40423 0.14746 0.0
H333 H 0.39279 0.37743 0.16646 0.0
C334 C 0.39804 0.36485 0.23829 0.0
C335 C 0.40047 0.36077 0.27724 0.0
C336 C 0.38533 0.37829 0.22681 0.0
C337 C 0.38887 0.36905 0.30453 0.0
C338 C 0.37569 0.38191 0.29329 0.0
C339 C 0.36294 0.40189 0.24333 0.0
C340 C 0.36327 0.40868 0.20481 0.0
C341 C 0.37426 0.3871 0.25458 0.0
C342 C 0.37371 0.39928 0.17733 0.0
C343 C 0.38444 0.38402 0.18818 0.0
H344 H 0.9736 0.36715 0.17821 0.0
H345 H 0.94321 0.33885 0.29078 0.0
H346 H 0.98733 0.35704 0.31575 0.0
H347 H 0.03451 0.38445 0.30664 0.0
H348 H 0.06478 0.41245 0.19389 0.0
H349 H 0.02078 0.39069 0.16788 0.0
C350 C 0.97665 0.36469 0.20811 0.0
C351 C 0.95523 0.35192 0.2327 0.0
C352 C 1.00205 0.37526 0.22227 0.0
C353 C 0.95942 0.34866 0.27129 0.0
C354 C 0.98464 0.35914 0.28562 0.0
C355 C 0.03147 0.38547 0.2763 0.0
C356 C 0.05283 0.40023 0.25229 0.0
C357 C 1.0061 0.373 0.26155 0.0
C358 C 0.04865 0.40125 0.21299 0.0
C359 C 0.02349 0.3889 0.19811 0.0
H360 H 0.60338 0.96854 0.18975 0.0
H361 H 0.59543 0.93691 0.303 0.0
H362 H 0.61891 0.98074 0.32962 0.0
H363 H 0.63892 0.02801 0.32102 0.0
H364 H 0.64743 0.05939 0.20743 0.0
H365 H 0.62671 0.01573 0.1806 0.0
C366 C 0.60701 0.97127 0.22022 0.0
C367 C 0.59751 0.94958 0.24443 0.0
C368 C 0.62053 0.99647 0.23527 0.0
C369 C 0.60255 0.95334 0.28379 0.0
C370 C 0.61588 0.97838 0.29904 0.0
C371 C 0.63647 0.02527 0.29038 0.0
C372 C 0.64449 0.04686 0.26627 0.0
C373 C 0.62455 1.00008 0.27511 0.0
C374 C 0.64138 0.04308 0.2266 0.0
C375 C 0.62946 0.01811 0.21123 0.0
H376 H 0.6029 0.64387 0.23295 0.0
H377 H 0.62382 0.64426 0.35099 0.0
H378 H 0.64822 0.62266 0.33387 0.0
H379 H 0.66046 0.60035 0.28604 0.0
H380 H 0.63761 0.59829 0.16857 0.0
H381 H 0.61734 0.62402 0.18469 0.0
C382 C 0.6131 0.63955 0.25485 0.0
C383 C 0.61147 0.64555 0.29319 0.0
C384 C 0.62663 0.62668 0.24491 0.0
C385 C 0.62472 0.63976 0.32127 0.0
C386 C 0.63863 0.62736 0.31151 0.0
C387 C 0.65138 0.60588 0.26391 0.0
C388 C 0.65044 0.59735 0.22621 0.0
C389 C 0.63926 0.62023 0.27353 0.0
C390 C 0.63849 0.60453 0.19785 0.0
C391 C 0.62685 0.61921 0.20704 0.0
H392 H 0.05977 0.6424 0.28386 0.0
H393 H 0.03626 0.6461 0.16853 0.0
H394 H 0.99107 0.62651 0.189 0.0
H395 H 0.95781 0.60522 0.23863 0.0
H396 H 0.98108 0.60001 0.35349 0.0
H397 H 0.02669 0.62344 0.33435 0.0
C398 C 0.04479 0.63923 0.26333 0.0
C399 C 0.05135 0.6456 0.22473 0.0
C400 C 0.01875 0.62753 0.27518 0.0
C401 C 0.03171 0.6413 0.19842 0.0
C402 C 1.00585 0.63004 0.21007 0.0
C403 C 0.97289 0.60951 0.25957 0.0
C404 C 0.96606 0.6008 0.29737 0.0
C405 C 0.99907 0.62261 0.24822 0.0
C406 C 0.98582 0.60644 0.32416 0.0
C407 C 0.01191 0.61979 0.31323 0.0
H408 H 0.60402 0.95261 0.7382 0.0
H409 H 0.60084 0.97646 0.85337 0.0
H410 H 0.62793 0.02192 0.83514 0.0
H411 H 0.64989 0.05501 0.7855 0.0
H412 H 0.65109 0.03131 0.66955 0.0
H413 H 0.62765 0.98577 0.68904 0.0
C414 C 0.60954 0.96776 0.75938 0.0
C415 C 0.6004 0.96119 0.79705 0.0
C416 C 0.62468 0.99391 0.7485 0.0
C417 C 0.60756 0.98103 0.82414 0.0
C418 C 0.62303 0.00703 0.81374 0.0
C419 C 0.64533 0.03988 0.76461 0.0
C420 C 0.65219 0.04651 0.72615 0.0
C421 C 0.63132 0.01373 0.77586 0.0
C422 C 0.64597 0.02669 0.69934 0.0
C423 C 0.63252 1.00065 0.71045 0.0
H424 H 0.66752 0.62079 0.75923 0.0
H425 H 0.61282 0.58066 0.84995 0.0
H426 H 0.58987 0.60398 0.8349 0.0
H427 H 0.58358 0.63358 0.79344 0.0
H428 H 0.63678 0.67224 0.7006 0.0
H429 H 0.66219 0.65191 0.71916 0.0
C430 C 0.65074 0.61739 0.77593 0.0
C431 C 0.64184 0.59899 0.80557 0.0
C432 C 0.63731 0.63054 0.76665 0.0
C433 C 0.62 0.59466 0.82687 0.0
C434 C 0.60685 0.60798 0.81829 0.0
C435 C 0.60091 0.6378 0.77755 0.0
C436 C 0.60828 0.65435 0.74569 0.0
C437 C 0.61507 0.62564 0.78787 0.0
C438 C 0.63069 0.65952 0.72523 0.0
C439 C 0.64519 0.64787 0.73577 0.0
H440 H 0.98219 0.61288 0.68928 0.0
H441 H 0.95277 0.60587 0.80382 0.0
H442 H 0.99711 0.62804 0.82885 0.0
H443 H 0.044 0.64609 0.81862 0.0
H444 H 0.07326 0.65267 0.70403 0.0
H445 H 0.02926 0.63422 0.67858 0.0
C446 C 0.9855 0.61649 0.71968 0.0
C447 C 0.96422 0.60757 0.74469 0.0
C448 C 0.01102 0.62904 0.73388 0.0
C449 C 0.96881 0.6125 0.78397 0.0
C450 C 0.99417 0.62509 0.79832 0.0
C451 C 0.04078 0.64379 0.78804 0.0
C452 C 0.06184 0.65056 0.76328 0.0
C453 C 0.01538 0.63295 0.77362 0.0
C454 C 0.05737 0.64756 0.72372 0.0
C455 C 0.0322 0.63693 0.70915 0.0
H456 H 0.40144 0.04106 0.81669 0.0
H457 H 0.42889 0.07467 0.70532 0.0
H458 H 0.40419 0.03187 0.676 0.0
H459 H 0.37768 0.98454 0.68252 0.0
H460 H 0.35028 0.95078 0.7938 0.0
H461 H 0.37188 0.99398 0.82257 0.0
C462 C 0.40174 0.03905 0.78596 0.0
C463 C 0.41713 0.06099 0.76326 0.0
C464 C 0.38763 0.01433 0.76929 0.0
C465 C 0.41725 0.05809 0.72346 0.0
C466 C 0.4032 0.0336 0.70666 0.0
C467 C 0.37619 0.98666 0.71301 0.0
C468 C 0.36258 0.96449 0.73603 0.0
C469 C 0.38877 0.01153 0.72937 0.0
C470 C 0.36069 0.96754 0.77546 0.0
C471 C 0.37311 0.99224 0.79195 0.0
H472 H 0.36594 0.41416 0.71061 0.0
H473 H 0.36317 0.39441 0.82967 0.0
H474 H 0.38544 0.3702 0.81565 0.0
H475 H 0.4088 0.35759 0.77033 0.0
H476 H 0.41383 0.37969 0.65196 0.0
H477 H 0.38757 0.3999 0.66485 0.0
C478 C 0.36984 0.40419 0.73336 0.0
C479 C 0.36291 0.40604 0.77109 0.0
C480 C 0.38331 0.39093 0.72525 0.0
C481 C 0.36834 0.39328 0.80037 0.0
C482 C 0.38115 0.3795 0.7924 0.0
C483 C 0.40388 0.36658 0.74731 0.0
C484 C 0.41331 0.36722 0.71029 0.0
C485 C 0.38921 0.37865 0.75508 0.0
C486 C 0.40691 0.37904 0.68076 0.0
C487 C 0.39189 0.39061 0.68809 0.0
H488 H 0.05565 0.4079 0.77723 0.0
H489 H 0.03181 0.37999 0.66234 0.0
H490 H 0.98649 0.35578 0.68276 0.0
H491 H 0.9533 0.34598 0.73191 0.0
H492 H 0.97716 0.37498 0.84635 0.0
H493 H 0.0227 0.39503 0.82757 0.0
C494 C 0.04057 0.3962 0.75679 0.0
C495 C 0.04707 0.3959 0.71829 0.0
C496 C 0.01449 0.38263 0.76861 0.0
C497 C 0.02732 0.38064 0.69214 0.0
C498 C 1.00137 0.36683 0.70376 0.0
C499 C 0.96848 0.35632 0.75288 0.0
C500 C 0.96184 0.35912 0.79039 0.0
C501 C 0.99467 0.36819 0.74173 0.0
C502 C 0.98173 0.37261 0.81723 0.0
C503 C 0.0078 0.38417 0.8065 0.0
H504 H 0.41666 0.17697 0.22669 0.0
H505 H 0.49965 0.21077 0.23875 0.0
H506 H 0.50322 0.25109 0.26158 0.0
H507 H 0.48302 0.27686 0.27804 0.0
H508 H 0.40022 0.24392 0.26562 0.0
H509 H 0.39632 0.20318 0.24303 0.0
C510 C 0.4355 0.19318 0.23434 0.0
C511 C 0.45785 0.19087 0.23104 0.0
C512 C 0.43746 0.21645 0.24738 0.0
C513 C 0.48214 0.21204 0.24098 0.0
C514 C 0.48422 0.23512 0.25407 0.0
C515 C 0.46409 0.26077 0.27044 0.0
C516 C 0.44194 0.26337 0.27355 0.0
C517 C 0.46204 0.23755 0.25737 0.0
C518 C 0.41758 0.24237 0.26348 0.0
C519 C 0.41534 0.21909 0.25057 0.0
H520 H 0.21522 0.48972 0.25617 0.0
H521 H 0.17002 0.40616 0.25217 0.0
H522 H 0.20799 0.40429 0.22961 0.0
H523 H 0.25428 0.4265 0.21167 0.0
H524 H 0.29914 0.51011 0.21575 0.0
H525 H 0.26107 0.51184 0.23759 0.0
C526 C 0.21366 0.4711 0.25031 0.0
C527 C 0.18987 0.44812 0.25588 0.0
C528 C 0.23553 0.47017 0.23738 0.0
C529 C 0.18814 0.42414 0.24811 0.0
C530 C 0.20984 0.42305 0.23524 0.0
C531 C 0.25568 0.44508 0.2173 0.0
C532 C 0.2795 0.46813 0.21214 0.0
C533 C 0.23367 0.44595 0.22987 0.0
C534 C 0.28103 0.49207 0.2195 0.0
C535 C 0.25927 0.4931 0.23201 0.0
H536 H 0.72389 0.21 0.27516 0.0
H537 H 0.75948 0.16213 0.27823 0.0
H538 H 0.8007 0.19886 0.25691 0.0
H539 H 0.82651 0.24458 0.23687 0.0
H540 H 0.79031 0.29191 0.23275 0.0
H541 H 0.74945 0.25537 0.25494 0.0
C542 C 0.74069 0.20762 0.27128 0.0
C543 C 0.73868 0.18342 0.27833 0.0
C544 C 0.7642 0.22871 0.25873 0.0
C545 C 0.76056 0.18059 0.27299 0.0
C546 C 0.78412 0.20157 0.26079 0.0
C547 C 0.80966 0.24687 0.24085 0.0
C548 C 0.81143 0.2709 0.23318 0.0
C549 C 0.78614 0.22571 0.25347 0.0
C550 C 0.78945 0.27359 0.23839 0.0
C551 C 0.76607 0.25272 0.25112 0.0
H552 H 0.58746 0.82309 0.23426 0.0
H553 H 0.50783 0.79336 0.26885 0.0
H554 H 0.50631 0.75463 0.29484 0.0
H555 H 0.52696 0.72864 0.30631 0.0
H556 H 0.6063 0.75736 0.27143 0.0
H557 H 0.60863 0.79711 0.24718 0.0
C558 C 0.56984 0.80816 0.24761 0.0
C559 C 0.54778 0.81107 0.24952 0.0
C560 C 0.56903 0.78577 0.26243 0.0
C561 C 0.52507 0.79158 0.26691 0.0
C562 C 0.52416 0.7694 0.28181 0.0
C563 C 0.54483 0.74364 0.29357 0.0
C564 C 0.56641 0.74006 0.29062 0.0
C565 C 0.54594 0.76623 0.27951 0.0
C566 C 0.58941 0.75967 0.27404 0.0
C567 C 0.59073 0.78237 0.26011 0.0
H568 H 0.76375 0.58193 0.24141 0.0
H569 H 0.71581 0.49883 0.25251 0.0
H570 H 0.75283 0.49596 0.27614 0.0
H571 H 0.79873 0.51664 0.29291 0.0
H572 H 0.84748 0.59957 0.28202 0.0
H573 H 0.81028 0.60292 0.25912 0.0
C574 C 0.76145 0.56324 0.2491 0.0
C575 C 0.73705 0.54063 0.24515 0.0
C576 C 0.78295 0.56167 0.26266 0.0
C577 C 0.73436 0.51653 0.25521 0.0
C578 C 0.75553 0.51484 0.26874 0.0
C579 C 0.80126 0.53549 0.2856 0.0
C580 C 0.82583 0.55782 0.28912 0.0
C581 C 0.77989 0.53723 0.27245 0.0
C582 C 0.82874 0.58208 0.27955 0.0
C583 C 0.80749 0.58399 0.26644 0.0
H584 H 0.17585 0.75505 0.23593 0.0
H585 H 0.21606 0.71216 0.21995 0.0
H586 H 0.25641 0.74925 0.24196 0.0
H587 H 0.28049 0.7938 0.26526 0.0
H588 H 0.24124 0.83757 0.28095 0.0
H589 H 0.20036 0.80027 0.25952 0.0
C590 C 0.19345 0.75386 0.23738 0.0
C591 C 0.19293 0.73087 0.22633 0.0
C592 C 0.21677 0.77541 0.24992 0.0
C593 C 0.2159 0.72962 0.22824 0.0
C594 C 0.23902 0.75082 0.24082 0.0
C595 C 0.263 0.79521 0.26402 0.0
C596 C 0.26388 0.81839 0.27468 0.0
C597 C 0.2397 0.77381 0.25163 0.0
C598 C 0.24106 0.81991 0.27286 0.0
C599 C 0.21768 0.7986 0.26064 0.0
H600 H 0.53027 0.74233 0.71251 0.0
H601 H 0.59868 0.75961 0.77767 0.0
H602 H 0.601 0.79932 0.8018 0.0
H603 H 0.58277 0.82856 0.8056 0.0
H604 H 0.51368 0.81018 0.74132 0.0
H605 H 0.51254 0.77158 0.71551 0.0
C606 C 0.54575 0.75482 0.73189 0.0
C607 C 0.56426 0.74803 0.74331 0.0
C608 C 0.54684 0.77744 0.74582 0.0
C609 C 0.58417 0.7644 0.76848 0.0
C610 C 0.58551 0.78711 0.78228 0.0
C611 C 0.56759 0.81617 0.78575 0.0
C612 C 0.54834 0.82222 0.7754 0.0
C613 C 0.56685 0.79376 0.7713 0.0
C614 C 0.5287 0.80593 0.74981 0.0
C615 C 0.52801 0.78383 0.73504 0.0
H616 H 0.75452 0.54911 0.83045 0.0
H617 H 0.7431 0.58212 0.72767 0.0
H618 H 0.78351 0.58725 0.70119 0.0
H619 H 0.82114 0.5805 0.70629 0.0
H620 H 0.8327 0.54832 0.80998 0.0
H621 H 0.7934 0.54502 0.83721 0.0
C622 C 0.76093 0.5575 0.8023 0.0
C623 C 0.74577 0.56502 0.7809 0.0
C624 C 0.78425 0.5606 0.78747 0.0
C625 C 0.75444 0.57615 0.74467 0.0
C626 C 0.77752 0.57906 0.72951 0.0
C627 C 0.81518 0.57301 0.73498 0.0
C628 C 0.82976 0.56455 0.75599 0.0
C629 C 0.79247 0.57112 0.75051 0.0
C630 C 0.82183 0.55495 0.79317 0.0
C631 C 0.79929 0.55296 0.80874 0.0
H632 H 0.28566 0.80043 0.72569 0.0
H633 H 0.24667 0.84496 0.73353 0.0
H634 H 0.20688 0.80626 0.75459 0.0
H635 H 0.18321 0.75958 0.77095 0.0
H636 H 0.22289 0.71565 0.76285 0.0
H637 H 0.26229 0.75426 0.74168 0.0
C638 C 0.26847 0.8017 0.73201 0.0
C639 C 0.26912 0.82554 0.72808 0.0
C640 C 0.24574 0.77944 0.74404 0.0
C641 C 0.24667 0.82683 0.73635 0.0
C642 C 0.22391 0.80471 0.74838 0.0
C643 C 0.20048 0.75849 0.76448 0.0
C644 C 0.20009 0.73476 0.76849 0.0
C645 C 0.22322 0.78088 0.75233 0.0
C646 C 0.22264 0.73366 0.76004 0.0
C647 C 0.24521 0.75574 0.74793 0.0
H648 H 0.499 0.28559 0.73051 0.0
H649 H 0.41549 0.24963 0.73048 0.0
H650 H 0.41174 0.20903 0.75363 0.0
H651 H 0.43245 0.18374 0.7739 0.0
H652 H 0.51612 0.22063 0.77408 0.0
H653 H 0.5195 0.2608 0.7509 0.0
C654 C 0.47996 0.26888 0.73553 0.0
C655 C 0.45757 0.27061 0.72874 0.0
C656 C 0.47798 0.24573 0.74892 0.0
C657 C 0.43304 0.24879 0.73549 0.0
C658 C 0.43089 0.22557 0.74872 0.0
C659 C 0.45139 0.20059 0.76886 0.0
C660 C 0.47399 0.19916 0.77572 0.0
C661 C 0.45325 0.22381 0.75554 0.0
C662 C 0.4984 0.22117 0.7691 0.0
C663 C 0.50039 0.24419 0.7558 0.0
H664 H 0.21147 0.48423 0.70997 0.0
H665 H 0.16381 0.40117 0.7207 0.0
H666 H 0.20174 0.39832 0.7412 0.0
H667 H 0.24858 0.41975 0.75695 0.0
H668 H 0.29549 0.50297 0.74634 0.0
H669 H 0.25778 0.50538 0.72477 0.0
C670 C 0.20934 0.46547 0.71677 0.0
C671 C 0.18485 0.44295 0.71389 0.0
C672 C 0.23115 0.46401 0.72851 0.0
C673 C 0.18246 0.41881 0.72273 0.0
C674 C 0.20414 0.41717 0.73444 0.0
C675 C 0.25052 0.43837 0.74972 0.0
C676 C 0.27482 0.46114 0.75328 0.0
C677 C 0.22861 0.43967 0.73752 0.0
C678 C 0.27702 0.48514 0.74394 0.0
C679 C 0.25545 0.48657 0.73161 0.0
H680 H 0.83469 0.24869 0.78081 0.0
H681 H 0.79933 0.29617 0.76483 0.0
H682 H 0.75963 0.25868 0.74198 0.0
H683 H 0.73477 0.21256 0.72657 0.0
H684 H 0.7693 0.16436 0.74178 0.0
H685 H 0.80943 0.20189 0.7649 0.0
C686 C 0.81829 0.25078 0.77226 0.0
C687 C 0.82001 0.27521 0.77453 0.0
C688 C 0.79535 0.22901 0.75905 0.0
C689 C 0.79858 0.27762 0.76338 0.0
C690 C 0.77582 0.25617 0.7503 0.0
C691 C 0.75106 0.21022 0.73496 0.0
C692 C 0.74905 0.18571 0.7325 0.0
C693 C 0.77397 0.23181 0.74806 0.0
C694 C 0.77036 0.18304 0.74344 0.0
C695 C 0.7933 0.20449 0.75663 0.0
H696 H 0.49246 0.14641 0.0674 0.0
H697 H 0.40882 0.10841 0.07072 0.0
H698 H 0.40735 0.10911 1.0009 0.0
H699 H 0.42996 0.11925 0.93874 0.0
H700 H 0.51368 0.15722 0.93643 0.0
H701 H 0.51497 0.15791 0.00597 0.0
C702 C 0.47389 0.13836 0.05287 0.0
C703 C 0.45078 0.12727 0.07417 0.0
C704 C 0.47322 0.13881 0.01287 0.0
C705 C 0.4269 0.11703 0.05494 0.0
C706 C 0.42605 0.1174 0.01503 0.0
C707 C 0.44847 0.12781 0.9535 0.0
C708 C 0.47168 0.13809 0.93243 0.0
C709 C 0.44909 0.12806 0.99366 0.0
C710 C 0.49552 0.14914 0.95194 0.0
C711 C 0.49629 0.14951 0.99174 0.0
H712 H 0.36994 0.49148 0.92465 0.0
H713 H 0.29349 0.42404 0.9166 0.0
H714 H 0.29018 0.42172 0.98629 0.0
H715 H 0.30954 0.43845 0.04963 0.0
H716 H 0.38614 0.50586 0.05681 0.0
H717 H 0.38881 0.50861 0.98738 0.0
C718 C 0.35251 0.4763 0.93812 0.0
C719 C 0.33203 0.45793 0.91553 0.0
C720 C 0.35078 0.47507 0.97808 0.0
C721 C 0.30955 0.43842 0.9334 0.0
C722 C 0.30765 0.43707 0.97323 0.0
C723 C 0.32676 0.45377 0.03595 0.0
C724 C 0.34763 0.47187 0.05835 0.0
C725 C 0.32822 0.45522 0.99588 0.0
C726 C 0.36982 0.49164 0.04025 0.0
C727 C 0.37138 0.49324 1.00052 0.0
H728 H 0.87775 0.30495 0.94455 0.0
H729 H 0.88376 0.38014 0.93628 0.0
H730 H 0.88284 0.38277 0.00564 0.0
H731 H 0.88116 0.36425 0.06866 0.0
H732 H 0.87573 0.28939 0.07785 0.0
H733 H 0.87556 0.28608 0.0082 0.0
C734 C 0.87876 0.32184 0.95798 0.0
C735 C 0.88084 0.34232 0.93529 0.0
C736 C 0.87838 0.32333 0.99803 0.0
C737 C 0.88219 0.36412 0.95307 0.0
C738 C 0.88167 0.36566 0.99276 0.0
C739 C 0.87988 0.34717 0.05545 0.0
C740 C 0.87849 0.32712 0.07837 0.0
C741 C 0.87991 0.34546 0.01551 0.0
C742 C 0.87684 0.30512 0.06081 0.0
C743 C 0.87675 0.30321 0.02099 0.0
H744 H 0.51701 0.84595 0.07363 0.0
H745 H 0.59852 0.90201 0.08525 0.0
H746 H 0.60294 0.90588 0.0158 0.0
H747 H 0.58297 0.89526 0.95188 0.0
H748 H 0.50128 0.83955 0.94079 0.0
H749 H 0.49765 0.83353 0.00987 0.0
C750 C 0.5358 0.85884 0.06097 0.0
C751 C 0.55737 0.87376 0.08454 0.0
C752 C 0.53814 0.86112 0.02109 0.0
C753 C 0.5816 0.89033 0.06771 0.0
C754 C 0.58412 0.8926 0.02801 0.0
C755 C 0.56444 0.88163 0.96459 0.0
C756 C 0.54241 0.86798 0.94126 0.0
C757 C 0.56243 0.87839 0.00443 0.0
C758 C 0.51853 0.85036 0.95811 0.0
C759 C 0.51642 0.84693 0.99763 0.0
H760 H 0.7002 0.58104 0.07606 0.0
H761 H 0.66098 0.49745 0.08164 0.0
H762 H 0.66034 0.49502 0.01211 0.0
H763 H 0.66873 0.51638 0.94982 0.0
H764 H 0.70698 0.59987 0.94354 0.0
H765 H 0.7103 0.60261 0.0132 0.0
C766 C 0.69176 0.56233 0.06202 0.0
C767 C 0.68059 0.53946 0.08397 0.0
C768 C 0.69115 0.56104 0.02192 0.0
C769 C 0.66964 0.51534 0.0654 0.0
C770 C 0.66923 0.51391 0.02563 0.0
C771 C 0.67796 0.5352 0.96366 0.0
C772 C 0.6875 0.55788 0.94158 0.0
C773 C 0.67958 0.5366 0.00363 0.0
C774 C 0.69944 0.58211 0.95993 0.0
C775 C 0.70131 0.58369 0.99975 0.0
H776 H 0.1252 0.69601 0.93405 0.0
H777 H 0.16434 0.65155 0.92671 0.0
H778 H 0.16583 0.64981 0.99615 0.0
H779 H 0.15399 0.65884 0.05886 0.0
H780 H 0.11483 0.70321 0.06694 0.0
H781 H 0.11551 0.7072 0.99737 0.0
C782 C 0.13424 0.68614 0.9477 0.0
C783 C 0.14451 0.67381 0.92526 0.0
C784 C 0.13493 0.6851 0.98775 0.0
C785 C 0.15623 0.66114 0.94331 0.0
C786 C 0.15705 0.66009 0.98304 0.0
C787 C 0.14576 0.66953 0.04542 0.0
C788 C 0.13424 0.68057 0.06796 0.0
C789 C 0.14614 0.67167 0.00551 0.0
C790 C 0.12378 0.6945 0.05017 0.0
C791 C 0.12411 0.69674 0.0104 0.0
H792 H 0.86485 0.52046 0.57759 0.0
H793 H 0.9015 0.60378 0.58552 0.0
H794 H 0.90269 0.60711 0.5159 0.0
H795 H 0.89508 0.58641 0.45269 0.0
H796 H 0.85888 0.50307 0.44528 0.0
H797 H 0.85568 0.49971 0.51468 0.0
C798 C 0.87293 0.53934 0.56409 0.0
C799 C 0.88314 0.56183 0.58667 0.0
C800 C 0.87372 0.54112 0.5241 0.0
C801 C 0.89353 0.58615 0.56876 0.0
C802 C 0.89426 0.58809 0.52895 0.0
C803 C 0.88634 0.56752 0.46629 0.0
C804 C 0.87733 0.54505 0.44386 0.0
C805 C 0.88469 0.56571 0.50632 0.0
C806 C 0.86603 0.52069 0.46188 0.0
C807 C 0.8642 0.51873 0.50159 0.0
H808 H 0.33736 0.85819 0.56415 0.0
H809 H 0.31185 0.91438 0.57161 0.0
H810 H 0.30878 0.91489 0.50199 0.0
H811 H 0.31523 0.90071 0.43882 0.0
H812 H 0.34078 0.84449 0.43204 0.0
H813 H 0.34183 0.84258 0.50153 0.0
C814 C 0.33098 0.87044 0.55056 0.0
C815 C 0.32497 0.88631 0.57297 0.0
C816 C 0.32933 0.87068 0.51061 0.0
C817 C 0.31662 0.90199 0.55497 0.0
C818 C 0.31491 0.90233 0.51516 0.0
C819 C 0.32085 0.88792 0.45259 0.0
C820 C 0.32802 0.87286 0.4303 0.0
C821 C 0.3215 0.88696 0.49267 0.0
C822 C 0.33521 0.85633 0.44853 0.0
C823 C 0.33586 0.85524 0.48828 0.0
H824 H 0.42705 0.30927 0.56449 0.0
H825 H 0.5103 0.35902 0.56797 0.0
H826 H 0.51197 0.35976 0.49835 0.0
H827 H 0.48965 0.34797 0.43652 0.0
H828 H 0.40636 0.29875 0.43262 0.0
H829 H 0.40484 0.29603 0.50231 0.0
C830 C 0.44556 0.32009 0.54998 0.0
C831 C 0.4685 0.33413 0.57136 0.0
C832 C 0.44637 0.32063 0.50988 0.0
C833 C 0.49235 0.34809 0.55218 0.0
C834 C 0.49333 0.34856 0.51236 0.0
C835 C 0.47118 0.33652 0.45091 0.0
C836 C 0.44815 0.32367 0.42946 0.0
C837 C 0.47044 0.33518 0.49093 0.0
C838 C 0.42437 0.30887 0.4485 0.0
C839 C 0.42348 0.30733 0.48835 0.0
H840 H 0.13599 0.42793 0.54952 0.0
H841 H 0.09425 0.46977 0.55882 0.0
H842 H 0.09228 0.47179 0.48947 0.0
H843 H 0.10323 0.46266 0.42621 0.0
H844 H 0.14501 0.42095 0.41614 0.0
H845 H 0.14607 0.41781 0.4857 0.0
C846 C 0.1264 0.4374 0.53632 0.0
C847 C 0.11535 0.44874 0.55929 0.0
C848 C 0.12536 0.43855 0.4963 0.0
C849 C 0.10294 0.46091 0.54181 0.0
C850 C 0.10181 0.4621 0.50213 0.0
C851 C 0.11249 0.4528 0.43921 0.0
C852 C 0.12407 0.44211 0.41608 0.0
C853 C 0.11308 0.45114 0.47912 0.0
C854 C 0.13596 0.42935 0.43335 0.0
C855 C 0.1366 0.42758 0.47311 0.0
H856 H 0.70194 0.11898 0.43659 0.0
H857 H 0.63727 0.1328 0.43229 0.0
H858 H 0.6361 0.13364 0.50181 0.0
H859 H 0.65284 0.12981 0.56377 0.0
H860 H 0.71824 0.11726 0.56914 0.0
H861 H 0.71979 0.11661 0.49927 0.0
C862 C 0.68765 0.12222 0.45093 0.0
C863 C 0.66966 0.12573 0.42932 0.0
C864 C 0.68719 0.12287 0.49106 0.0
C865 C 0.65134 0.13006 0.44825 0.0
C866 C 0.65062 0.1305 0.48802 0.0
C867 C 0.66745 0.12693 0.54967 0.0
C868 C 0.68531 0.12344 0.57153 0.0
C869 C 0.66835 0.12682 0.50968 0.0
C870 C 0.70427 0.11997 0.55288 0.0
C871 C 0.70514 0.11957 0.51297 0.0
H872 H 0.58937 0.70158 0.45223 0.0
H873 H 0.51073 0.63782 0.44291 0.0
H874 H 0.50612 0.63666 0.51221 0.0
H875 H 0.52463 0.6531 0.57554 0.0
H876 H 0.60332 0.71665 0.58527 0.0
H877 H 0.60767 0.7186 0.51577 0.0
C878 C 0.57121 0.68749 0.46539 0.0
C879 C 0.55045 0.66979 0.44247 0.0
C880 C 0.5687 0.68687 0.50532 0.0
C881 C 0.52703 0.65165 0.45991 0.0
C882 C 0.52436 0.65096 0.49955 0.0
C883 C 0.5427 0.66744 0.56244 0.0
C884 C 0.56363 0.68468 0.5855 0.0
C885 C 0.5451 0.66838 0.52253 0.0
C886 C 0.58692 0.70315 0.56813 0.0
C887 C 0.58943 0.70426 0.5284 0.0
H888 H 0.54073 0.13276 0.18748 0.0
H889 H 0.50074 0.10773 0.29535 0.0
H890 H 0.53773 0.10614 0.32282 0.0
H891 H 0.58137 0.11171 0.31614 0.0
H892 H 0.62193 0.13802 0.20889 0.0
H893 H 0.58482 0.13932 0.18124 0.0
C894 C 0.54012 0.12693 0.21698 0.0
C895 C 0.51802 0.12029 0.23932 0.0
C896 C 0.56156 0.12632 0.2327 0.0
C897 C 0.51755 0.11295 0.27757 0.0
C898 C 0.53868 0.11202 0.2933 0.0
C899 C 0.58207 0.11773 0.28672 0.0
C900 C 0.6043 0.12468 0.26455 0.0
C901 C 0.56077 0.11864 0.27112 0.0
C902 C 0.60503 0.13259 0.22655 0.0
C903 C 0.58381 0.13331 0.2107 0.0
H904 H 0.48119 0.58304 0.31758 0.0
H905 H 0.4967 0.63232 0.21915 0.0
H906 H 0.45807 0.59827 0.18742 0.0
H907 H 0.42013 0.55434 0.18733 0.0
H908 H 0.40443 0.5051 0.28584 0.0
H909 H 0.44281 0.53932 0.3179 0.0
C910 C 0.4761 0.58631 0.28919 0.0
C911 C 0.49181 0.61012 0.2707 0.0
C912 C 0.45381 0.56668 0.27115 0.0
C913 C 0.48493 0.61413 0.23398 0.0
C914 C 0.46284 0.59468 0.21581 0.0
C915 C 0.42507 0.55114 0.21586 0.0
C916 C 0.40949 0.52724 0.23417 0.0
C917 C 0.44717 0.57087 0.23409 0.0
C918 C 0.41612 0.52336 0.27114 0.0
C919 C 0.43808 0.54289 0.28947 0.0
H920 H 0.89138 0.46957 0.32761 0.0
H921 H 0.87671 0.49273 0.21789 0.0
H922 H 0.87405 0.45424 0.18846 0.0
H923 H 0.87607 0.41404 0.19392 0.0
H924 H 0.89069 0.39101 0.30382 0.0
H925 H 0.89314 0.42938 0.33315 0.0
C926 C 0.88761 0.4662 0.29725 0.0
C927 C 0.88428 0.48398 0.27495 0.0
C928 C 0.88607 0.44403 0.28056 0.0
C929 C 0.87936 0.47933 0.23567 0.0
C930 C 0.87783 0.45732 0.21882 0.0
C931 C 0.87976 0.41742 0.22429 0.0
C932 C 0.88319 0.39972 0.24665 0.0
C933 C 0.88117 0.43955 0.24099 0.0
C934 C 0.88796 0.40434 0.28597 0.0
C935 C 0.88939 0.42628 0.30277 0.0
H936 H 0.4906 0.8932 0.28151 0.0
H937 H 0.45884 0.85605 0.17342 0.0
H938 H 0.41804 0.85488 0.18785 0.0
H939 H 0.39133 0.86427 0.23131 0.0
H940 H 0.42346 0.90228 0.33877 0.0
H941 H 0.46417 0.90327 0.32445 0.0
C942 C 0.47473 0.88484 0.26113 0.0
C943 C 0.47769 0.87467 0.22651 0.0
C944 C 0.45141 0.88439 0.2695 0.0
C945 C 0.45704 0.86402 0.20028 0.0
C946 C 0.4337 0.86332 0.20852 0.0
C947 C 0.40725 0.87275 0.25159 0.0
C948 C 0.40438 0.88312 0.28608 0.0
C949 C 0.43066 0.87342 0.24305 0.0
C950 C 0.4252 0.89417 0.312 0.0
C951 C 0.44847 0.89473 0.30386 0.0
H952 H 0.59126 0.45982 0.1928 0.0
H953 H 0.61129 0.49423 0.30494 0.0
H954 H 0.57162 0.45791 0.33107 0.0
H955 H 0.53119 0.41634 0.32198 0.0
H956 H 0.51165 0.38171 0.20991 0.0
H957 H 0.55117 0.41813 0.18384 0.0
C958 C 0.58693 0.45937 0.22295 0.0
C959 C 0.60415 0.47969 0.24689 0.0
C960 C 0.56418 0.43839 0.23779 0.0
C961 C 0.59834 0.47881 0.28592 0.0
C962 C 0.57565 0.45806 0.30088 0.0
C963 C 0.53559 0.41679 0.29186 0.0
C964 C 0.5185 0.39638 0.26791 0.0
C965 C 0.55843 0.43774 0.27708 0.0
C966 C 0.52449 0.39718 0.22896 0.0
C967 C 0.54708 0.418 0.21401 0.0
H968 H 0.14471 0.61025 0.26417 0.0
H969 H 0.10026 0.57592 0.16176 0.0
H970 H 0.09912 0.5352 0.17612 0.0
H971 H 0.11048 0.50925 0.21787 0.0
H972 H 0.15507 0.54342 0.32019 0.0
H973 H 0.15652 0.58434 0.30568 0.0
C974 C 0.13475 0.59384 0.24504 0.0
C975 C 0.12252 0.59607 0.21201 0.0
C976 C 0.13425 0.57049 0.25339 0.0
C977 C 0.10978 0.57468 0.18741 0.0
C978 C 0.10914 0.55139 0.19557 0.0
C979 C 0.12059 0.52568 0.23694 0.0
C980 C 0.13265 0.52332 0.27004 0.0
C981 C 0.12129 0.54908 0.22848 0.0
C982 C 0.14566 0.54476 0.29449 0.0
C983 C 0.14646 0.56815 0.28625 0.0
H984 H 0.4879 0.89236 0.73291 0.0
H985 H 0.46296 0.88113 0.85046 0.0
H986 H 0.42321 0.88093 0.83206 0.0
H987 H 0.39545 0.88385 0.78256 0.0
H988 H 0.42059 0.89555 0.66509 0.0
H989 H 0.4603 0.89563 0.68346 0.0
C990 C 0.47377 0.8899 0.75449 0.0
C991 C 0.47837 0.88675 0.79298 0.0
C992 C 0.45097 0.88985 0.74372 0.0
C993 C 0.4599 0.88361 0.82063 0.0
C994 C 0.43715 0.88347 0.81014 0.0
C995 C 0.40961 0.88638 0.76099 0.0
C996 C 0.40507 0.88964 0.72253 0.0
C997 C 0.43246 0.88654 0.77177 0.0
C998 C 0.42363 0.893 0.6949 0.0
C999 C 0.44635 0.89305 0.70537 0.0
H1000 H 0.59608 0.46719 0.82585 0.0
H1001 H 0.63072 0.49508 0.71515 0.0
H1002 H 0.5939 0.45801 0.68465 0.0
H1003 H 0.55117 0.41846 0.68927 0.0
H1004 H 0.51633 0.39082 0.79993 0.0
H1005 H 0.5539 0.42701 0.83059 0.0
C1006 C 0.59566 0.46506 0.79507 0.0
C1007 C 0.61609 0.48387 0.77279 0.0
C1008 C 0.57432 0.44382 0.7777 0.0
C1009 C 0.61523 0.48087 0.73294 0.0
C1010 C 0.59416 0.45971 0.71547 0.0
C1011 C 0.55183 0.42034 0.7201 0.0
C1012 C 0.53095 0.40205 0.74228 0.0
C1013 C 0.57347 0.44121 0.73754 0.0
C1014 C 0.53213 0.40468 0.7822 0.0
C1015 C 0.55361 0.42536 0.79976 0.0
H1016 H 0.15075 0.61095 0.72543 0.0
H1017 H 0.10227 0.57511 0.82392 0.0
H1018 H 0.09818 0.53346 0.80668 0.0
H1019 H 0.10805 0.50709 0.76332 0.0
H1020 H 0.15642 0.5429 0.66472 0.0
H1021 H 0.16094 0.58467 0.68238 0.0
C1022 C 0.13928 0.59402 0.7431 0.0
C1023 C 0.1268 0.59611 0.77585 0.0
C1024 C 0.13703 0.57012 0.73304 0.0
C1025 C 0.11205 0.57401 0.79851 0.0
C1026 C 0.10971 0.55018 0.7887 0.0
C1027 C 0.11965 0.52406 0.74578 0.0
C1028 C 0.13189 0.5219 0.71278 0.0
C1029 C 0.12208 0.548 0.75601 0.0
C1030 C 0.14681 0.54405 0.69029 0.0
C1031 C 0.14938 0.56794 0.70033 0.0
H1032 H 0.60664 0.10597 0.77185 0.0
H1033 H 0.62229 0.15869 0.67785 0.0
H1034 H 0.58442 0.1624 0.69473 0.0
H1035 H 0.54662 0.15037 0.73582 0.0
H1036 H 0.53077 0.09749 0.82966 0.0
H1037 H 0.5689 0.09408 0.81317 0.0
C1038 C 0.6018 0.11833 0.75516 0.0
C1039 C 0.61726 0.13205 0.72368 0.0
C1040 C 0.57991 0.12027 0.76491 0.0
C1041 C 0.61071 0.14794 0.70224 0.0
C1042 C 0.58904 0.15005 0.71184 0.0
C1043 C 0.55151 0.13809 0.75264 0.0
C1044 C 0.53588 0.12418 0.78387 0.0
C1045 C 0.57346 0.13624 0.74303 0.0
C1046 C 0.54247 0.10838 0.80544 0.0
C1047 C 0.56428 0.10643 0.79606 0.0
H1048 H 0.40674 0.55189 0.80034 0.0
H1049 H 0.41208 0.50646 0.70857 0.0
H1050 H 0.45207 0.54415 0.68621 0.0
H1051 H 0.48601 0.58978 0.69345 0.0
H1052 H 0.48053 0.63538 0.78483 0.0
H1053 H 0.44009 0.5979 0.80653 0.0
C1054 C 0.41663 0.55027 0.77539 0.0
C1055 C 0.4065 0.52641 0.7562 0.0
C1056 C 0.4396 0.57204 0.76264 0.0
C1057 C 0.41948 0.52462 0.72384 0.0
C1058 C 0.44237 0.54615 0.71106 0.0
C1059 C 0.47592 0.59153 0.71805 0.0
C1060 C 0.48629 0.61529 0.73756 0.0
C1061 C 0.45268 0.56992 0.73034 0.0
C1062 C 0.47296 0.61729 0.76932 0.0
C1063 C 0.44985 0.59586 0.78178 0.0
H1064 H 0.85297 0.40017 0.79099 0.0
H1065 H 0.9248 0.41801 0.73553 0.0
H1066 H 0.92899 0.45827 0.71046 0.0
H1067 H 0.91316 0.48932 0.70657 0.0
H1068 H 0.84058 0.47076 0.76022 0.0
H1069 H 0.83568 0.42983 0.78355 0.0
C1070 C 0.86946 0.41283 0.77326 0.0
C1071 C 0.88864 0.40625 0.76535 0.0
C1072 C 0.87163 0.43583 0.75868 0.0
C1073 C 0.90979 0.42268 0.74206 0.0
C1074 C 0.91223 0.44573 0.72778 0.0
C1075 C 0.8962 0.47622 0.72317 0.0
C1076 C 0.87735 0.48309 0.73187 0.0
C1077 C 0.89342 0.45263 0.73625 0.0
C1078 C 0.85536 0.46588 0.75313 0.0
C1079 C 0.85258 0.44251 0.76658 0.0
loop_
_geom_bond_atom_site_label_1
_geom_bond_atom_site_label_2
_geom_bond_distance
_geom_bond_site_symmetry_2
_ccdc_geom_bond_type
In0 O1 2.294 . S
In0 O2 2.326 . S
In0 O6 2.266 . S
In0 O7 2.326 . S
In0 O8 2.266 . S
In0 O9 2.326 . S
In0 O11 2.294 . S
In0 O12 2.326 . S
O1 In0 2.294 . S
O1 C10 1.240 . S
O2 In0 2.326 . S
O2 C10 1.252 . S
C3 O6 1.252 . S
C3 O7 1.260 . S
C4 O11 1.240 . S
C4 O12 1.252 . S
C5 O8 1.252 . S
C5 O9 1.260 . S
O6 In0 2.266 . S
O6 C3 1.252 . S
O7 In0 2.326 . S
O7 C3 1.260 . S
O8 In0 2.266 . S
O8 C5 1.252 . S
O9 In0 2.326 . S
O9 C5 1.260 . S
C10 O1 1.240 . S
C10 O2 1.252 . S
O11 In0 2.294 . S
O11 C4 1.240 . S
O12 In0 2.326 . S
O12 C4 1.252 . S
In13 O14 2.294 . S
In13 O15 2.326 . S
In13 O19 2.266 . S
In13 O20 2.326 . S
In13 O21 2.266 . S
In13 O22 2.326 . S
In13 O24 2.294 . S
In13 O25 2.326 . S
O14 In13 2.294 . S
O14 C23 1.240 . S
O15 In13 2.326 . S
O15 C23 1.252 . S
C16 O19 1.252 . S
C16 O20 1.260 . S
C17 O24 1.240 . S
C17 O25 1.252 . S
C18 O21 1.252 . S
C18 O22 1.260 . S
O19 In13 2.266 . S
O19 C16 1.252 . S
O20 In13 2.326 . S
O20 C16 1.260 . S
O21 In13 2.266 . S
O21 C18 1.252 . S
O22 In13 2.326 . S
O22 C18 1.260 . S
C23 O14 1.240 . S
C23 O15 1.252 . S
O24 In13 2.294 . S
O24 C17 1.240 . S
O25 In13 2.326 . S
O25 C17 1.252 . S
In26 O27 2.294 . S
In26 O28 2.326 . S
In26 O32 2.266 . S
In26 O33 2.326 . S
In26 O34 2.266 . S
In26 O35 2.326 . S
In26 O37 2.294 . S
In26 O38 2.326 . S
O27 In26 2.294 . S
O27 C36 1.240 . S
O28 In26 2.326 . S
O28 C36 1.252 . S
C29 O32 1.252 . S
C29 O33 1.260 . S
C30 O37 1.240 . S
C30 O38 1.252 . S
C31 O34 1.252 . S
C31 O35 1.260 . S
O32 In26 2.266 . S
O32 C29 1.252 . S
O33 In26 2.326 . S
O33 C29 1.260 . S
O34 In26 2.266 . S
O34 C31 1.252 . S
O35 In26 2.326 . S
O35 C31 1.260 . S
C36 O27 1.240 . S
C36 O28 1.252 . S
O37 In26 2.294 . S
O37 C30 1.240 . S
O38 In26 2.326 . S
O38 C30 1.252 . S
In39 O40 2.294 . S
In39 O41 2.326 . S
In39 O45 2.266 . S
In39 O46 2.326 . S
In39 O47 2.266 . S
In39 O48 2.326 . S
In39 O50 2.294 . S
In39 O51 2.326 . S
O40 In39 2.294 . S
O40 C49 1.240 . S
O41 In39 2.326 . S
O41 C49 1.252 . S
C42 O45 1.252 . S
C42 O46 1.260 . S
C43 O50 1.240 . S
C43 O51 1.252 . S
C44 O47 1.252 . S
C44 O48 1.260 . S
O45 In39 2.266 . S
O45 C42 1.252 . S
O46 In39 2.326 . S
O46 C42 1.260 . S
O47 In39 2.266 . S
O47 C44 1.252 . S
O48 In39 2.326 . S
O48 C44 1.260 . S
C49 O40 1.240 . S
C49 O41 1.252 . S
O50 In39 2.294 . S
O50 C43 1.240 . S
O51 In39 2.326 . S
O51 C43 1.252 . S
In52 O53 2.294 . S
In52 O54 2.326 . S
In52 O58 2.266 . S
In52 O59 2.326 . S
In52 O60 2.266 . S
In52 O61 2.326 . S
In52 O63 2.294 . S
In52 O64 2.326 . S
O53 In52 2.294 . S
O53 C62 1.240 . S
O54 In52 2.326 . S
O54 C62 1.252 . S
C55 O58 1.252 . S
C55 O59 1.260 . S
C56 O63 1.240 . S
C56 O64 1.252 . S
C57 O60 1.252 . S
C57 O61 1.260 . S
O58 In52 2.266 . S
O58 C55 1.252 . S
O59 In52 2.326 . S
O59 C55 1.260 . S
O60 In52 2.266 . S
O60 C57 1.252 . S
O61 In52 2.326 . S
O61 C57 1.260 . S
C62 O53 1.240 . S
C62 O54 1.252 . S
O63 In52 2.294 . S
O63 C56 1.240 . S
O64 In52 2.326 . S
O64 C56 1.252 . S
In65 O66 2.294 . S
In65 O67 2.326 . S
In65 O71 2.266 . S
In65 O72 2.326 . S
In65 O73 2.266 . S
In65 O74 2.326 . S
In65 O76 2.294 . S
In65 O77 2.326 . S
O66 In65 2.294 . S
O66 C75 1.240 . S
O67 In65 2.326 . S
O67 C75 1.252 . S
C68 O71 1.252 . S
C68 O72 1.260 . S
C69 O76 1.240 . S
C69 O77 1.252 . S
C70 O73 1.252 . S
C70 O74 1.260 . S
O71 In65 2.266 . S
O71 C68 1.252 . S
O72 In65 2.326 . S
O72 C68 1.260 . S
O73 In65 2.266 . S
O73 C70 1.252 . S
O74 In65 2.326 . S
O74 C70 1.260 . S
C75 O66 1.240 . S
C75 O67 1.252 . S
O76 In65 2.294 . S
O76 C69 1.240 . S
O77 In65 2.326 . S
O77 C69 1.252 . S
In78 O79 2.294 . S
In78 O80 2.326 . S
In78 O84 2.266 . S
In78 O85 2.326 . S
In78 O86 2.266 . S
In78 O87 2.326 . S
In78 O89 2.294 . S
In78 O90 2.326 . S
O79 In78 2.294 . S
O79 C88 1.240 . S
O80 In78 2.326 . S
O80 C88 1.252 . S
C81 O84 1.252 . S
C81 O85 1.260 . S
C82 O89 1.240 . S
C82 O90 1.252 . S
C83 O86 1.252 . S
C83 O87 1.260 . S
O84 In78 2.266 . S
O84 C81 1.252 . S
O85 In78 2.326 . S
O85 C81 1.260 . S
O86 In78 2.266 . S
O86 C83 1.252 . S
O87 In78 2.326 . S
O87 C83 1.260 . S
C88 O79 1.240 . S
C88 O80 1.252 . S
O89 In78 2.294 . S
O89 C82 1.240 . S
O90 In78 2.326 . S
O90 C82 1.252 . S
In91 O92 2.294 . S
In91 O93 2.326 . S
In91 O97 2.266 . S
In91 O98 2.326 . S
In91 O99 2.266 . S
In91 O100 2.326 . S
In91 O102 2.294 . S
In91 O103 2.326 . S
O92 In91 2.294 . S
O92 C101 1.240 . S
O93 In91 2.326 . S
O93 C101 1.252 . S
C94 O97 1.252 . S
C94 O98 1.260 . S
C95 O102 1.240 . S
C95 O103 1.252 . S
C96 O99 1.252 . S
C96 O100 1.260 . S
O97 In91 2.266 . S
O97 C94 1.252 . S
O98 In91 2.326 . S
O98 C94 1.260 . S
O99 In91 2.266 . S
O99 C96 1.252 . S
O100 In91 2.326 . S
O100 C96 1.260 . S
C101 O92 1.240 . S
C101 O93 1.252 . S
O102 In91 2.294 . S
O102 C95 1.240 . S
O103 In91 2.326 . S
O103 C95 1.252 . S
In104 O105 2.294 . S
In104 O106 2.326 . S
In104 O110 2.266 . S
In104 O111 2.326 . S
In104 O112 2.266 . S
In104 O113 2.326 . S
In104 O115 2.294 . S
In104 O116 2.326 . S
O105 In104 2.294 . S
O105 C114 1.240 . S
O106 In104 2.326 . S
O106 C114 1.252 . S
C107 O110 1.252 . S
C107 O111 1.260 . S
C108 O115 1.240 . S
C108 O116 1.252 . S
C109 O112 1.252 . S
C109 O113 1.260 . S
O110 In104 2.266 . S
O110 C107 1.252 . S
O111 In104 2.326 . S
O111 C107 1.260 . S
O112 In104 2.266 . S
O112 C109 1.252 . S
O113 In104 2.326 . S
O113 C109 1.260 . S
C114 O105 1.240 . S
C114 O106 1.252 . S
O115 In104 2.294 . S
O115 C108 1.240 . S
O116 In104 2.326 . S
O116 C108 1.252 . S
In117 O118 2.294 . S
In117 O119 2.326 . S
In117 O123 2.266 . S
In117 O124 2.326 . S
In117 O125 2.266 . S
In117 O126 2.326 . S
In117 O128 2.294 . S
In117 O129 2.326 . S
O118 In117 2.294 . S
O118 C127 1.240 . S
O119 In117 2.326 . S
O119 C127 1.252 . S
C120 O123 1.252 . S
C120 O124 1.260 . S
C121 O128 1.240 . S
C121 O129 1.252 . S
C122 O125 1.252 . S
C122 O126 1.260 . S
O123 In117 2.266 . S
O123 C120 1.252 . S
O124 In117 2.326 . S
O124 C120 1.260 . S
O125 In117 2.266 . S
O125 C122 1.252 . S
O126 In117 2.326 . S
O126 C122 1.260 . S
C127 O118 1.240 . S
C127 O119 1.252 . S
O128 In117 2.294 . S
O128 C121 1.240 . S
O129 In117 2.326 . S
O129 C121 1.252 . S
In130 O131 2.294 . S
In130 O132 2.326 . S
In130 O136 2.266 . S
In130 O137 2.326 . S
In130 O138 2.266 . S
In130 O139 2.326 . S
In130 O141 2.294 . S
In130 O142 2.326 . S
O131 In130 2.294 . S
O131 C140 1.240 . S
O132 In130 2.326 . S
O132 C140 1.252 . S
C133 O136 1.252 . S
C133 O137 1.260 . S
C134 O141 1.240 . S
C134 O142 1.252 . S
C135 O138 1.252 . S
C135 O139 1.260 . S
O136 In130 2.266 . S
O136 C133 1.252 . S
O137 In130 2.326 . S
O137 C133 1.260 . S
O138 In130 2.266 . S
O138 C135 1.252 . S
O139 In130 2.326 . S
O139 C135 1.260 . S
C140 O131 1.240 . S
C140 O132 1.252 . S
O141 In130 2.294 . S
O141 C134 1.240 . S
O142 In130 2.326 . S
O142 C134 1.252 . S
In143 O144 2.294 . S
In143 O145 2.326 . S
In143 O149 2.266 . S
In143 O150 2.326 . S
In143 O151 2.266 . S
In143 O152 2.326 . S
In143 O154 2.294 . S
In143 O155 2.326 . S
O144 In143 2.294 . S
O144 C153 1.240 . S
O145 In143 2.326 . S
O145 C153 1.252 . S
C146 O149 1.252 . S
C146 O150 1.260 . S
C147 O154 1.240 . S
C147 O155 1.252 . S
C148 O151 1.252 . S
C148 O152 1.260 . S
O149 In143 2.266 . S
O149 C146 1.252 . S
O150 In143 2.326 . S
O150 C146 1.260 . S
O151 In143 2.266 . S
O151 C148 1.252 . S
O152 In143 2.326 . S
O152 C148 1.260 . S
C153 O144 1.240 . S
C153 O145 1.252 . S
O154 In143 2.294 . S
O154 C147 1.240 . S
O155 In143 2.326 . S
O155 C147 1.252 . S
In156 O157 2.294 . S
In156 O158 2.326 . S
In156 O162 2.266 . S
In156 O163 2.326 . S
In156 O164 2.266 . S
In156 O165 2.326 . S
In156 O167 2.294 . S
In156 O168 2.326 . S
O157 In156 2.294 . S
O157 C166 1.240 . S
O158 In156 2.326 . S
O158 C166 1.252 . S
C159 O162 1.252 . S
C159 O163 1.260 . S
C160 O167 1.240 . S
C160 O168 1.252 . S
C161 O164 1.252 . S
C161 O165 1.260 . S
O162 In156 2.266 . S
O162 C159 1.252 . S
O163 In156 2.326 . S
O163 C159 1.260 . S
O164 In156 2.266 . S
O164 C161 1.252 . S
O165 In156 2.326 . S
O165 C161 1.260 . S
C166 O157 1.240 . S
C166 O158 1.252 . S
O167 In156 2.294 . S
O167 C160 1.240 . S
O168 In156 2.326 . S
O168 C160 1.252 . S
In169 O170 2.294 . S
In169 O171 2.326 . S
In169 O175 2.266 . S
In169 O176 2.326 . S
In169 O177 2.266 . S
In169 O178 2.326 . S
In169 O180 2.294 . S
In169 O181 2.326 . S
O170 In169 2.294 . S
O170 C179 1.240 . S
O171 In169 2.326 . S
O171 C179 1.252 . S
C172 O175 1.252 . S
C172 O176 1.260 . S
C173 O180 1.240 . S
C173 O181 1.252 . S
C174 O177 1.252 . S
C174 O178 1.260 . S
O175 In169 2.266 . S
O175 C172 1.252 . S
O176 In169 2.326 . S
O176 C172 1.260 . S
O177 In169 2.266 . S
O177 C174 1.252 . S
O178 In169 2.326 . S
O178 C174 1.260 . S
C179 O170 1.240 . S
C179 O171 1.252 . S
O180 In169 2.294 . S
O180 C173 1.240 . S
O181 In169 2.326 . S
O181 C173 1.252 . S
In182 O183 2.294 . S
In182 O184 2.326 . S
In182 O188 2.266 . S
In182 O189 2.326 . S
In182 O190 2.266 . S
In182 O191 2.326 . S
In182 O193 2.294 . S
In182 O194 2.326 . S
O183 In182 2.294 . S
O183 C192 1.240 . S
O184 In182 2.326 . S
O184 C192 1.252 . S
C185 O188 1.252 . S
C185 O189 1.260 . S
C186 O193 1.240 . S
C186 O194 1.252 . S
C187 O190 1.252 . S
C187 O191 1.260 . S
O188 In182 2.266 . S
O188 C185 1.252 . S
O189 In182 2.326 . S
O189 C185 1.260 . S
O190 In182 2.266 . S
O190 C187 1.252 . S
O191 In182 2.326 . S
O191 C187 1.260 . S
C192 O183 1.240 . S
C192 O184 1.252 . S
O193 In182 2.294 . S
O193 C186 1.240 . S
O194 In182 2.326 . S
O194 C186 1.252 . S
In195 O196 2.294 . S
In195 O197 2.326 . S
In195 O201 2.266 . S
In195 O202 2.326 . S
In195 O203 2.266 . S
In195 O204 2.326 . S
In195 O206 2.294 . S
In195 O207 2.326 . S
O196 In195 2.294 . S
O196 C205 1.240 . S
O197 In195 2.326 . S
O197 C205 1.252 . S
C198 O201 1.252 . S
C198 O202 1.260 . S
C199 O206 1.240 . S
C199 O207 1.252 . S
C200 O203 1.252 . S
C200 O204 1.260 . S
O201 In195 2.266 . S
O201 C198 1.252 . S
O202 In195 2.326 . S
O202 C198 1.260 . S
O203 In195 2.266 . S
O203 C200 1.252 . S
O204 In195 2.326 . S
O204 C200 1.260 . S
C205 O196 1.240 . S
C205 O197 1.252 . S
O206 In195 2.294 . S
O206 C199 1.240 . S
O207 In195 2.326 . S
O207 C199 1.252 . S
In208 O209 2.294 . S
In208 O210 2.326 . S
In208 O214 2.266 . S
In208 O215 2.326 . S
In208 O216 2.266 . S
In208 O217 2.326 . S
In208 O219 2.294 . S
In208 O220 2.326 . S
O209 In208 2.294 . S
O209 C218 1.240 . S
O210 In208 2.326 . S
O210 C218 1.252 . S
C211 O214 1.252 . S
C211 O215 1.260 . S
C212 O219 1.240 . S
C212 O220 1.252 . S
C213 O216 1.252 . S
C213 O217 1.260 . S
O214 In208 2.266 . S
O214 C211 1.252 . S
O215 In208 2.326 . S
O215 C211 1.260 . S
O216 In208 2.266 . S
O216 C213 1.252 . S
O217 In208 2.326 . S
O217 C213 1.260 . S
C218 O209 1.240 . S
C218 O210 1.252 . S
O219 In208 2.294 . S
O219 C212 1.240 . S
O220 In208 2.326 . S
O220 C212 1.252 . S
In221 O222 2.294 . S
In221 O223 2.326 . S
In221 O227 2.266 . S
In221 O228 2.326 . S
In221 O229 2.266 . S
In221 O230 2.326 . S
In221 O232 2.294 . S
In221 O233 2.326 . S
O222 In221 2.294 . S
O222 C231 1.240 . S
O223 In221 2.326 . S
O223 C231 1.252 . S
C224 O227 1.252 . S
C224 O228 1.260 . S
C225 O232 1.240 . S
C225 O233 1.252 . S
C226 O229 1.252 . S
C226 O230 1.260 . S
O227 In221 2.266 . S
O227 C224 1.252 . S
O228 In221 2.326 . S
O228 C224 1.260 . S
O229 In221 2.266 . S
O229 C226 1.252 . S
O230 In221 2.326 . S
O230 C226 1.260 . S
C231 O222 1.240 . S
C231 O223 1.252 . S
O232 In221 2.294 . S
O232 C225 1.240 . S
O233 In221 2.326 . S
O233 C225 1.252 . S
In234 O235 2.294 . S
In234 O236 2.326 . S
In234 O240 2.266 . S
In234 O241 2.326 . S
In234 O242 2.266 . S
In234 O243 2.326 . S
In234 O245 2.294 . S
In234 O246 2.326 . S
O235 In234 2.294 . S
O235 C244 1.240 . S
O236 In234 2.326 . S
O236 C244 1.252 . S
C237 O240 1.252 . S
C237 O241 1.260 . S
C238 O245 1.240 . S
C238 O246 1.252 . S
C239 O242 1.252 . S
C239 O243 1.260 . S
O240 In234 2.266 . S
O240 C237 1.252 . S
O241 In234 2.326 . S
O241 C237 1.260 . S
O242 In234 2.266 . S
O242 C239 1.252 . S
O243 In234 2.326 . S
O243 C239 1.260 . S
C244 O235 1.240 . S
C244 O236 1.252 . S
O245 In234 2.294 . S
O245 C238 1.240 . S
O246 In234 2.326 . S
O246 C238 1.252 . S
In247 O248 2.294 . S
In247 O249 2.326 . S
In247 O253 2.266 . S
In247 O254 2.326 . S
In247 O255 2.266 . S
In247 O256 2.326 . S
In247 O258 2.294 . S
In247 O259 2.326 . S
O248 In247 2.294 . S
O248 C257 1.240 . S
O249 In247 2.326 . S
O249 C257 1.252 . S
C250 O253 1.252 . S
C250 O254 1.260 . S
C251 O258 1.240 . S
C251 O259 1.252 . S
C252 O255 1.252 . S
C252 O256 1.260 . S
O253 In247 2.266 . S
O253 C250 1.252 . S
O254 In247 2.326 . S
O254 C250 1.260 . S
O255 In247 2.266 . S
O255 C252 1.252 . S
O256 In247 2.326 . S
O256 C252 1.260 . S
C257 O248 1.240 . S
C257 O249 1.252 . S
O258 In247 2.294 . S
O258 C251 1.240 . S
O259 In247 2.326 . S
O259 C251 1.252 . S
In260 O261 2.294 . S
In260 O262 2.326 . S
In260 O266 2.266 . S
In260 O267 2.326 . S
In260 O268 2.266 . S
In260 O269 2.326 . S
In260 O271 2.294 . S
In260 O272 2.326 . S
O261 In260 2.294 . S
O261 C270 1.240 . S
O262 In260 2.326 . S
O262 C270 1.252 . S
C263 O266 1.252 . S
C263 O267 1.260 . S
C264 O271 1.240 . S
C264 O272 1.252 . S
C265 O268 1.252 . S
C265 O269 1.260 . S
O266 In260 2.266 . S
O266 C263 1.252 . S
O267 In260 2.326 . S
O267 C263 1.260 . S
O268 In260 2.266 . S
O268 C265 1.252 . S
O269 In260 2.326 . S
O269 C265 1.260 . S
C270 O261 1.240 . S
C270 O262 1.252 . S
O271 In260 2.294 . S
O271 C264 1.240 . S
O272 In260 2.326 . S
O272 C264 1.252 . S
In273 O274 2.294 . S
In273 O275 2.326 . S
In273 O279 2.266 . S
In273 O280 2.326 . S
In273 O281 2.266 . S
In273 O282 2.326 . S
In273 O284 2.294 . S
In273 O285 2.326 . S
O274 In273 2.294 . S
O274 C283 1.240 . S
O275 In273 2.326 . S
O275 C283 1.252 . S
C276 O279 1.252 . S
C276 O280 1.260 . S
C277 O284 1.240 . S
C277 O285 1.252 . S
C278 O281 1.252 . S
C278 O282 1.260 . S
O279 In273 2.266 . S
O279 C276 1.252 . S
O280 In273 2.326 . S
O280 C276 1.260 . S
O281 In273 2.266 . S
O281 C278 1.252 . S
O282 In273 2.326 . S
O282 C278 1.260 . S
C283 O274 1.240 . S
C283 O275 1.252 . S
O284 In273 2.294 . S
O284 C277 1.240 . S
O285 In273 2.326 . S
O285 C277 1.252 . S
In286 O287 2.294 . S
In286 O288 2.326 . S
In286 O292 2.266 . S
In286 O293 2.326 . S
In286 O294 2.266 . S
In286 O295 2.326 . S
In286 O297 2.294 . S
In286 O298 2.326 . S
O287 In286 2.294 . S
O287 C296 1.240 . S
O288 In286 2.326 . S
O288 C296 1.252 . S
C289 O292 1.252 . S
C289 O293 1.260 . S
C290 O297 1.240 . S
C290 O298 1.252 . S
C291 O294 1.252 . S
C291 O295 1.260 . S
O292 In286 2.266 . S
O292 C289 1.252 . S
O293 In286 2.326 . S
O293 C289 1.260 . S
O294 In286 2.266 . S
O294 C291 1.252 . S
O295 In286 2.326 . S
O295 C291 1.260 . S
C296 O287 1.240 . S
C296 O288 1.252 . S
O297 In286 2.294 . S
O297 C290 1.240 . S
O298 In286 2.326 . S
O298 C290 1.252 . S
In299 O300 2.294 . S
In299 O301 2.326 . S
In299 O305 2.266 . S
In299 O306 2.326 . S
In299 O307 2.266 . S
In299 O308 2.326 . S
In299 O310 2.294 . S
In299 O311 2.326 . S
O300 In299 2.294 . S
O300 C309 1.240 . S
O301 In299 2.326 . S
O301 C309 1.252 . S
C302 O305 1.252 . S
C302 O306 1.260 . S
C303 O310 1.240 . S
C303 O311 1.252 . S
C304 O307 1.252 . S
C304 O308 1.260 . S
O305 In299 2.266 . S
O305 C302 1.252 . S
O306 In299 2.326 . S
O306 C302 1.260 . S
O307 In299 2.266 . S
O307 C304 1.252 . S
O308 In299 2.326 . S
O308 C304 1.260 . S
C309 O300 1.240 . S
C309 O301 1.252 . S
O310 In299 2.294 . S
O310 C303 1.240 . S
O311 In299 2.326 . S
O311 C303 1.252 . S
H312 C318 0.930 . S
H313 C321 0.930 . S
H314 C322 0.930 . S
H315 C323 0.930 . S
H316 C326 0.930 . S
H317 C327 0.930 . S
C318 H312 0.930 . S
C318 C319 1.355 . S
C318 C320 1.415 . S
C319 C318 1.355 . S
C319 C321 1.419 . S
C320 C318 1.415 . S
C320 C325 1.425 1_545 S
C320 C327 1.409 1_545 S
C321 H313 0.930 . S
C321 C319 1.419 . S
C321 C322 1.362 . S
C322 H314 0.930 . S
C322 C321 1.362 . S
C322 C325 1.409 1_545 S
C323 H315 0.930 . S
C323 C324 1.355 . S
C323 C325 1.415 . S
C324 C323 1.355 . S
C324 C326 1.419 . S
C325 C320 1.425 1_565 S
C325 C322 1.409 1_565 S
C325 C323 1.415 . S
C326 H316 0.930 . S
C326 C324 1.419 . S
C326 C327 1.362 . S
C327 H317 0.930 . S
C327 C320 1.409 1_565 S
C327 C326 1.362 . S
H328 C334 0.930 . S
H329 C337 0.930 . S
H330 C338 0.930 . S
H331 C339 0.930 . S
H332 C342 0.930 . S
H333 C343 0.930 . S
C334 H328 0.930 . S
C334 C335 1.355 . S
C334 C336 1.415 . S
C335 C334 1.355 . S
C335 C337 1.419 . S
C336 C334 1.415 . S
C336 C341 1.425 . S
C336 C343 1.409 . S
C337 H329 0.930 . S
C337 C335 1.419 . S
C337 C338 1.362 . S
C338 H330 0.930 . S
C338 C337 1.362 . S
C338 C341 1.409 . S
C339 H331 0.930 . S
C339 C340 1.355 . S
C339 C341 1.415 . S
C340 C339 1.355 . S
C340 C342 1.419 . S
C341 C336 1.425 . S
C341 C338 1.409 . S
C341 C339 1.415 . S
C342 H332 0.930 . S
C342 C340 1.419 . S
C342 C343 1.362 . S
C343 H333 0.930 . S
C343 C336 1.409 . S
C343 C342 1.362 . S
H344 C350 0.930 . S
H345 C353 0.930 . S
H346 C354 0.930 . S
H347 C355 0.930 . S
H348 C358 0.930 . S
H349 C359 0.930 . S
C350 H344 0.930 . S
C350 C351 1.355 . S
C350 C352 1.415 . S
C351 C350 1.355 . S
C351 C353 1.419 . S
C352 C350 1.415 . S
C352 C357 1.425 1_655 S
C352 C359 1.409 1_655 S
C353 H345 0.930 . S
C353 C351 1.419 . S
C353 C354 1.362 . S
C354 H346 0.930 . S
C354 C353 1.362 . S
C354 C357 1.409 1_655 S
C355 H347 0.930 . S
C355 C356 1.355 . S
C355 C357 1.415 . S
C356 C355 1.355 . S
C356 C358 1.419 . S
C357 C352 1.425 1_455 S
C357 C354 1.409 1_455 S
C357 C355 1.415 . S
C358 H348 0.930 . S
C358 C356 1.419 . S
C358 C359 1.362 . S
C359 H349 0.930 . S
C359 C352 1.409 1_455 S
C359 C358 1.362 . S
H360 C366 0.930 . S
H361 C369 0.930 . S
H362 C370 0.930 . S
H363 C371 0.930 . S
H364 C374 0.930 . S
H365 C375 0.930 . S
C366 H360 0.930 . S
C366 C367 1.355 . S
C366 C368 1.411 . S
C367 C366 1.355 . S
C367 C369 1.419 . S
C368 C366 1.411 . S
C368 C373 1.423 1_565 S
C368 C375 1.414 1_565 S
C369 H361 0.930 . S
C369 C367 1.419 . S
C369 C370 1.362 . S
C370 H362 0.930 . S
C370 C369 1.362 . S
C370 C373 1.414 1_565 S
C371 H363 0.930 . S
C371 C372 1.355 . S
C371 C373 1.411 . S
C372 C371 1.355 . S
C372 C374 1.419 . S
C373 C368 1.423 1_545 S
C373 C370 1.414 1_545 S
C373 C371 1.411 . S
C374 H364 0.930 . S
C374 C372 1.419 . S
C374 C375 1.362 . S
C375 H365 0.930 . S
C375 C368 1.414 1_545 S
C375 C374 1.362 . S
H376 C382 0.930 . S
H377 C385 0.930 . S
H378 C386 0.930 . S
H379 C387 0.930 . S
H380 C390 0.930 . S
H381 C391 0.930 . S
C382 H376 0.930 . S
C382 C383 1.355 . S
C382 C384 1.415 . S
C383 C382 1.355 . S
C383 C385 1.419 . S
C384 C382 1.415 . S
C384 C389 1.425 . S
C384 C391 1.409 . S
C385 H377 0.930 . S
C385 C383 1.419 . S
C385 C386 1.362 . S
C386 H378 0.930 . S
C386 C385 1.362 . S
C386 C389 1.409 . S
C387 H379 0.930 . S
C387 C388 1.355 . S
C387 C389 1.415 . S
C388 C387 1.355 . S
C388 C390 1.419 . S
C389 C384 1.425 . S
C389 C386 1.409 . S
C389 C387 1.415 . S
C390 H380 0.930 . S
C390 C388 1.419 . S
C390 C391 1.362 . S
C391 H381 0.930 . S
C391 C384 1.409 . S
C391 C390 1.362 . S
H392 C398 0.930 . S
H393 C401 0.930 . S
H394 C402 0.901 1_655 S
H395 C403 0.930 . S
H396 C406 0.930 . S
H397 C407 0.901 1_455 S
C398 H392 0.930 . S
C398 C399 1.355 . S
C398 C400 1.415 . S
C399 C398 1.355 . S
C399 C401 1.419 . S
C400 C398 1.415 . S
C400 C405 1.425 1_455 S
C400 C407 1.395 1_455 S
C401 H393 0.930 . S
C401 C399 1.419 . S
C401 C402 1.407 . S
C402 H394 0.901 1_455 S
C402 C401 1.407 . S
C402 C405 1.395 1_455 S
C403 H395 0.930 . S
C403 C404 1.355 . S
C403 C405 1.415 . S
C404 C403 1.355 . S
C404 C406 1.419 . S
C405 C400 1.425 1_655 S
C405 C402 1.395 1_655 S
C405 C403 1.415 . S
C406 H396 0.930 . S
C406 C404 1.419 . S
C406 C407 1.407 . S
C407 H397 0.901 1_655 S
C407 C400 1.395 1_655 S
C407 C406 1.407 . S
H408 C414 0.930 . S
H409 C417 0.930 . S
H410 C418 0.930 . S
H411 C419 0.930 . S
H412 C422 0.930 . S
H413 C423 0.930 . S
C414 H408 0.930 . S
C414 C415 1.355 . S
C414 C416 1.415 . S
C415 C414 1.355 . S
C415 C417 1.419 . S
C416 C414 1.415 . S
C416 C421 1.425 1_565 S
C416 C423 1.409 1_565 S
C417 H409 0.930 . S
C417 C415 1.419 . S
C417 C418 1.362 . S
C418 H410 0.930 . S
C418 C417 1.362 . S
C418 C421 1.409 1_565 S
C419 H411 0.930 . S
C419 C420 1.355 . S
C419 C421 1.415 . S
C420 C419 1.355 . S
C420 C422 1.419 . S
C421 C416 1.425 1_545 S
C421 C418 1.409 1_545 S
C421 C419 1.415 . S
C422 H412 0.930 . S
C422 C420 1.419 . S
C422 C423 1.362 . S
C423 H413 0.930 . S
C423 C416 1.409 1_545 S
C423 C422 1.362 . S
H424 C430 0.930 . S
H425 C433 0.930 . S
H426 C434 0.930 . S
H427 C435 0.930 . S
H428 C438 0.930 . S
H429 C439 0.930 . S
C430 H424 0.930 . S
C430 C431 1.355 . S
C430 C432 1.415 . S
C431 C430 1.355 . S
C431 C433 1.419 . S
C432 C430 1.415 . S
C432 C437 1.425 . S
C432 C439 1.409 . S
C433 H425 0.930 . S
C433 C431 1.419 . S
C433 C434 1.362 . S
C434 H426 0.930 . S
C434 C433 1.362 . S
C434 C437 1.409 . S
C435 H427 0.930 . S
C435 C436 1.355 . S
C435 C437 1.415 . S
C436 C435 1.355 . S
C436 C438 1.419 . S
C437 C432 1.425 . S
C437 C434 1.409 . S
C437 C435 1.415 . S
C438 H428 0.930 . S
C438 C436 1.419 . S
C438 C439 1.362 . S
C439 H429 0.930 . S
C439 C432 1.409 . S
C439 C438 1.362 . S
H440 C446 0.930 . S
H441 C449 0.930 . S
H442 C450 0.930 . S
H443 C451 0.930 . S
H444 C454 0.930 . S
H445 C455 0.930 . S
C446 H440 0.930 . S
C446 C447 1.355 . S
C446 C448 1.411 . S
C447 C446 1.355 . S
C447 C449 1.419 . S
C448 C446 1.411 . S
C448 C453 1.427 1_655 S
C448 C455 1.412 1_655 S
C449 H441 0.930 . S
C449 C447 1.419 . S
C449 C450 1.362 . S
C450 H442 0.930 . S
C450 C449 1.362 . S
C450 C453 1.411 1_655 S
C451 H443 0.930 . S
C451 C452 1.355 . S
C451 C453 1.412 . S
C452 C451 1.355 . S
C452 C454 1.419 . S
C453 C448 1.427 1_455 S
C453 C450 1.411 1_455 S
C453 C451 1.412 . S
C454 H444 0.930 . S
C454 C452 1.419 . S
C454 C455 1.362 . S
C455 H445 0.930 . S
C455 C448 1.412 1_455 S
C455 C454 1.362 . S
H456 C462 0.930 . S
H457 C465 0.930 . S
H458 C466 0.930 . S
H459 C467 0.930 . S
H460 C470 0.930 . S
H461 C471 0.930 . S
C462 H456 0.930 . S
C462 C463 1.355 . S
C462 C464 1.438 . S
C463 C462 1.355 . S
C463 C465 1.419 . S
C464 C462 1.438 . S
C464 C469 1.407 1_545 S
C464 C471 1.395 1_545 S
C465 H457 0.930 . S
C465 C463 1.419 . S
C465 C466 1.362 . S
C466 H458 0.930 . S
C466 C465 1.362 . S
C466 C469 1.395 1_545 S
C467 H459 0.930 . S
C467 C468 1.355 . S
C467 C469 1.438 . S
C468 C467 1.355 . S
C468 C470 1.419 . S
C469 C464 1.407 1_565 S
C469 C466 1.395 1_565 S
C469 C467 1.438 . S
C470 H460 0.930 . S
C470 C468 1.419 . S
C470 C471 1.362 . S
C471 H461 0.930 . S
C471 C464 1.395 1_565 S
C471 C470 1.362 . S
H472 C478 0.930 . S
H473 C481 0.930 . S
H474 C482 0.930 . S
H475 C483 0.930 . S
H476 C486 0.930 . S
H477 C487 0.930 . S
C478 H472 0.930 . S
C478 C479 1.355 . S
C478 C480 1.415 . S
C479 C478 1.355 . S
C479 C481 1.419 . S
C480 C478 1.415 . S
C480 C485 1.425 . S
C480 C487 1.409 . S
C481 H473 0.930 . S
C481 C479 1.419 . S
C481 C482 1.362 . S
C482 H474 0.930 . S
C482 C481 1.362 . S
C482 C485 1.409 . S
C483 H475 0.930 . S
C483 C484 1.355 . S
C483 C485 1.415 . S
C484 C483 1.355 . S
C484 C486 1.419 . S
C485 C480 1.425 . S
C485 C482 1.409 . S
C485 C483 1.415 . S
C486 H476 0.930 . S
C486 C484 1.419 . S
C486 C487 1.362 . S
C487 H477 0.930 . S
C487 C480 1.409 . S
C487 C486 1.362 . S
H488 C494 0.930 . S
H489 C497 0.930 . S
H490 C498 0.930 1_655 S
H491 C499 0.930 . S
H492 C502 0.930 . S
H493 C503 0.930 1_455 S
C494 H488 0.930 . S
C494 C495 1.355 . S
C494 C496 1.415 . S
C495 C494 1.355 . S
C495 C497 1.419 . S
C496 C494 1.415 . S
C496 C501 1.425 1_455 S
C496 C503 1.409 1_455 S
C497 H489 0.930 . S
C497 C495 1.419 . S
C497 C498 1.362 . S
C498 H490 0.930 1_455 S
C498 C497 1.362 . S
C498 C501 1.409 1_455 S
C499 H491 0.930 . S
C499 C500 1.355 . S
C499 C501 1.415 . S
C500 C499 1.355 . S
C500 C502 1.419 . S
C501 C496 1.425 1_655 S
C501 C498 1.409 1_655 S
C501 C499 1.415 . S
C502 H492 0.930 . S
C502 C500 1.419 . S
C502 C503 1.362 . S
C503 H493 0.930 1_655 S
C503 C496 1.409 1_655 S
C503 C502 1.362 . S
H504 C510 0.930 . S
H505 C513 0.930 . S
H506 C514 0.930 . S
H507 C515 0.930 . S
H508 C518 0.930 . S
H509 C519 0.930 . S
C510 H504 0.930 . S
C510 C511 1.355 . S
C510 C512 1.415 . S
C511 C510 1.355 . S
C511 C513 1.419 . S
C512 C510 1.415 . S
C512 C517 1.425 . S
C512 C519 1.409 . S
C513 H505 0.930 . S
C513 C511 1.419 . S
C513 C514 1.362 . S
C514 H506 0.930 . S
C514 C513 1.362 . S
C514 C517 1.409 . S
C515 H507 0.930 . S
C515 C516 1.355 . S
C515 C517 1.415 . S
C516 C515 1.355 . S
C516 C518 1.419 . S
C517 C512 1.425 . S
C517 C514 1.409 . S
C517 C515 1.415 . S
C518 H508 0.930 . S
C518 C516 1.419 . S
C518 C519 1.362 . S
C519 H509 0.930 . S
C519 C512 1.409 . S
C519 C518 1.362 . S
H520 C526 0.930 . S
H521 C529 0.930 . S
H522 C530 0.930 . S
H523 C531 0.930 . S
H524 C534 0.930 . S
H525 C535 0.930 . S
C526 H520 0.930 . S
C526 C527 1.355 . S
C526 C528 1.415 . S
C527 C526 1.355 . S
C527 C529 1.419 . S
C528 C526 1.415 . S
C528 C533 1.425 . S
C528 C535 1.409 . S
C529 H521 0.930 . S
C529 C527 1.419 . S
C529 C530 1.362 . S
C530 H522 0.930 . S
C530 C529 1.362 . S
C530 C533 1.409 . S
C531 H523 0.930 . S
C531 C532 1.355 . S
C531 C533 1.415 . S
C532 C531 1.355 . S
C532 C534 1.419 . S
C533 C528 1.425 . S
C533 C530 1.409 . S
C533 C531 1.415 . S
C534 H524 0.930 . S
C534 C532 1.419 . S
C534 C535 1.362 . S
C535 H525 0.930 . S
C535 C528 1.409 . S
C535 C534 1.362 . S
H536 C542 0.930 . S
H537 C545 0.930 . S
H538 C546 0.930 . S
H539 C547 0.930 . S
H540 C550 0.930 . S
H541 C551 0.930 . S
C542 H536 0.930 . S
C542 C543 1.355 . S
C542 C544 1.415 . S
C543 C542 1.355 . S
C543 C545 1.419 . S
C544 C542 1.415 . S
C544 C549 1.425 . S
C544 C551 1.409 . S
C545 H537 0.930 . S
C545 C543 1.419 . S
C545 C546 1.362 . S
C546 H538 0.930 . S
C546 C545 1.362 . S
C546 C549 1.409 . S
C547 H539 0.930 . S
C547 C548 1.355 . S
C547 C549 1.415 . S
C548 C547 1.355 . S
C548 C550 1.419 . S
C549 C544 1.425 . S
C549 C546 1.409 . S
C549 C547 1.415 . S
C550 H540 0.930 . S
C550 C548 1.419 . S
C550 C551 1.362 . S
C551 H541 0.930 . S
C551 C544 1.409 . S
C551 C550 1.362 . S
H552 C558 0.930 . S
H553 C561 0.930 . S
H554 C562 0.930 . S
H555 C563 0.930 . S
H556 C566 0.930 . S
H557 C567 0.930 . S
C558 H552 0.930 . S
C558 C559 1.355 . S
C558 C560 1.415 . S
C559 C558 1.355 . S
C559 C561 1.419 . S
C560 C558 1.415 . S
C560 C565 1.425 . S
C560 C567 1.409 . S
C561 H553 0.930 . S
C561 C559 1.419 . S
C561 C562 1.362 . S
C562 H554 0.930 . S
C562 C561 1.362 . S
C562 C565 1.409 . S
C563 H555 0.930 . S
C563 C564 1.355 . S
C563 C565 1.415 . S
C564 C563 1.355 . S
C564 C566 1.419 . S
C565 C560 1.425 . S
C565 C562 1.409 . S
C565 C563 1.415 . S
C566 H556 0.930 . S
C566 C564 1.419 . S
C566 C567 1.362 . S
C567 H557 0.930 . S
C567 C560 1.409 . S
C567 C566 1.362 . S
H568 C574 0.930 . S
H569 C577 0.930 . S
H570 C578 0.930 . S
H571 C579 0.930 . S
H572 C582 0.930 . S
H573 C583 0.930 . S
C574 H568 0.930 . S
C574 C575 1.355 . S
C574 C576 1.415 . S
C575 C574 1.355 . S
C575 C577 1.419 . S
C576 C574 1.415 . S
C576 C581 1.425 . S
C576 C583 1.409 . S
C577 H569 0.930 . S
C577 C575 1.419 . S
C577 C578 1.362 . S
C578 H570 0.930 . S
C578 C577 1.362 . S
C578 C581 1.409 . S
C579 H571 0.930 . S
C579 C580 1.355 . S
C579 C581 1.415 . S
C580 C579 1.355 . S
C580 C582 1.419 . S
C581 C576 1.425 . S
C581 C578 1.409 . S
C581 C579 1.415 . S
C582 H572 0.930 . S
C582 C580 1.419 . S
C582 C583 1.362 . S
C583 H573 0.930 . S
C583 C576 1.409 . S
C583 C582 1.362 . S
H584 C590 0.930 . S
H585 C593 0.930 . S
H586 C594 0.930 . S
H587 C595 0.930 . S
H588 C598 0.930 . S
H589 C599 0.930 . S
C590 H584 0.930 . S
C590 C591 1.355 . S
C590 C592 1.415 . S
C591 C590 1.355 . S
C591 C593 1.419 . S
C592 C590 1.415 . S
C592 C597 1.425 . S
C592 C599 1.409 . S
C593 H585 0.930 . S
C593 C591 1.419 . S
C593 C594 1.362 . S
C594 H586 0.930 . S
C594 C593 1.362 . S
C594 C597 1.409 . S
C595 H587 0.930 . S
C595 C596 1.355 . S
C595 C597 1.415 . S
C596 C595 1.355 . S
C596 C598 1.419 . S
C597 C592 1.425 . S
C597 C594 1.409 . S
C597 C595 1.415 . S
C598 H588 0.930 . S
C598 C596 1.419 . S
C598 C599 1.362 . S
C599 H589 0.930 . S
C599 C592 1.409 . S
C599 C598 1.362 . S
H600 C606 0.930 . S
H601 C609 0.930 . S
H602 C610 0.930 . S
H603 C611 0.930 . S
H604 C614 0.930 . S
H605 C615 0.930 . S
C606 H600 0.930 . S
C606 C607 1.355 . S
C606 C608 1.415 . S
C607 C606 1.355 . S
C607 C609 1.419 . S
C608 C606 1.415 . S
C608 C613 1.425 . S
C608 C615 1.409 . S
C609 H601 0.930 . S
C609 C607 1.419 . S
C609 C610 1.362 . S
C610 H602 0.930 . S
C610 C609 1.362 . S
C610 C613 1.409 . S
C611 H603 0.930 . S
C611 C612 1.355 . S
C611 C613 1.415 . S
C612 C611 1.355 . S
C612 C614 1.419 . S
C613 C608 1.425 . S
C613 C610 1.409 . S
C613 C611 1.415 . S
C614 H604 0.930 . S
C614 C612 1.419 . S
C614 C615 1.362 . S
C615 H605 0.930 . S
C615 C608 1.409 . S
C615 C614 1.362 . S
H616 C622 0.930 . S
H617 C625 0.930 . S
H618 C626 0.930 . S
H619 C627 0.930 . S
H620 C630 0.930 . S
H621 C631 0.930 . S
C622 H616 0.930 . S
C622 C623 1.355 . S
C622 C624 1.415 . S
C623 C622 1.355 . S
C623 C625 1.419 . S
C624 C622 1.415 . S
C624 C629 1.425 . S
C624 C631 1.409 . S
C625 H617 0.930 . S
C625 C623 1.419 . S
C625 C626 1.362 . S
C626 H618 0.930 . S
C626 C625 1.362 . S
C626 C629 1.409 . S
C627 H619 0.930 . S
C627 C628 1.355 . S
C627 C629 1.415 . S
C628 C627 1.355 . S
C628 C630 1.419 . S
C629 C624 1.425 . S
C629 C626 1.409 . S
C629 C627 1.415 . S
C630 H620 0.930 . S
C630 C628 1.419 . S
C630 C631 1.362 . S
C631 H621 0.930 . S
C631 C624 1.409 . S
C631 C630 1.362 . S
H632 C638 0.930 . S
H633 C641 0.930 . S
H634 C642 0.930 . S
H635 C643 0.930 . S
H636 C646 0.930 . S
H637 C647 0.930 . S
C638 H632 0.930 . S
C638 C639 1.355 . S
C638 C640 1.415 . S
C639 C638 1.355 . S
C639 C641 1.419 . S
C640 C638 1.415 . S
C640 C645 1.425 . S
C640 C647 1.409 . S
C641 H633 0.930 . S
C641 C639 1.419 . S
C641 C642 1.362 . S
C642 H634 0.930 . S
C642 C641 1.362 . S
C642 C645 1.409 . S
C643 H635 0.930 . S
C643 C644 1.355 . S
C643 C645 1.415 . S
C644 C643 1.355 . S
C644 C646 1.419 . S
C645 C640 1.425 . S
C645 C642 1.409 . S
C645 C643 1.415 . S
C646 H636 0.930 . S
C646 C644 1.419 . S
C646 C647 1.362 . S
C647 H637 0.930 . S
C647 C640 1.409 . S
C647 C646 1.362 . S
H648 C654 0.930 . S
H649 C657 0.930 . S
H650 C658 0.930 . S
H651 C659 0.930 . S
H652 C662 0.930 . S
H653 C663 0.930 . S
C654 H648 0.930 . S
C654 C655 1.355 . S
C654 C656 1.415 . S
C655 C654 1.355 . S
C655 C657 1.419 . S
C656 C654 1.415 . S
C656 C661 1.425 . S
C656 C663 1.409 . S
C657 H649 0.930 . S
C657 C655 1.419 . S
C657 C658 1.362 . S
C658 H650 0.930 . S
C658 C657 1.362 . S
C658 C661 1.409 . S
C659 H651 0.930 . S
C659 C660 1.355 . S
C659 C661 1.415 . S
C660 C659 1.355 . S
C660 C662 1.419 . S
C661 C656 1.425 . S
C661 C658 1.409 . S
C661 C659 1.415 . S
C662 H652 0.930 . S
C662 C660 1.419 . S
C662 C663 1.362 . S
C663 H653 0.930 . S
C663 C656 1.409 . S
C663 C662 1.362 . S
H664 C670 0.930 . S
H665 C673 0.930 . S
H666 C674 0.930 . S
H667 C675 0.930 . S
H668 C678 0.930 . S
H669 C679 0.930 . S
C670 H664 0.930 . S
C670 C671 1.355 . S
C670 C672 1.415 . S
C671 C670 1.355 . S
C671 C673 1.419 . S
C672 C670 1.415 . S
C672 C677 1.425 . S
C672 C679 1.409 . S
C673 H665 0.930 . S
C673 C671 1.419 . S
C673 C674 1.362 . S
C674 H666 0.930 . S
C674 C673 1.362 . S
C674 C677 1.409 . S
C675 H667 0.930 . S
C675 C676 1.355 . S
C675 C677 1.415 . S
C676 C675 1.355 . S
C676 C678 1.419 . S
C677 C672 1.425 . S
C677 C674 1.409 . S
C677 C675 1.415 . S
C678 H668 0.930 . S
C678 C676 1.419 . S
C678 C679 1.362 . S
C679 H669 0.930 . S
C679 C672 1.409 . S
C679 C678 1.362 . S
H680 C686 0.930 . S
H681 C689 0.930 . S
H682 C690 0.930 . S
H683 C691 0.930 . S
H684 C694 0.930 . S
H685 C695 0.930 . S
C686 H680 0.930 . S
C686 C687 1.355 . S
C686 C688 1.415 . S
C687 C686 1.355 . S
C687 C689 1.419 . S
C688 C686 1.415 . S
C688 C693 1.425 . S
C688 C695 1.409 . S
C689 H681 0.930 . S
C689 C687 1.419 . S
C689 C690 1.362 . S
C690 H682 0.930 . S
C690 C689 1.362 . S
C690 C693 1.409 . S
C691 H683 0.930 . S
C691 C692 1.355 . S
C691 C693 1.415 . S
C692 C691 1.355 . S
C692 C694 1.419 . S
C693 C688 1.425 . S
C693 C690 1.409 . S
C693 C691 1.415 . S
C694 H684 0.930 . S
C694 C692 1.419 . S
C694 C695 1.362 . S
C695 H685 0.930 . S
C695 C688 1.409 . S
C695 C694 1.362 . S
H696 C702 0.930 . S
H697 C705 0.930 . S
H698 C706 0.930 . S
H699 C707 0.930 . S
H700 C710 0.930 . S
H701 C711 0.930 . S
C702 H696 0.930 . S
C702 C703 1.355 . S
C702 C704 1.415 . S
C703 C702 1.355 . S
C703 C705 1.419 . S
C704 C702 1.415 . S
C704 C709 1.425 1_554 S
C704 C711 1.409 1_554 S
C705 H697 0.930 . S
C705 C703 1.419 . S
C705 C706 1.362 . S
C706 H698 0.930 . S
C706 C705 1.362 . S
C706 C709 1.409 1_554 S
C707 H699 0.930 . S
C707 C708 1.355 . S
C707 C709 1.415 . S
C708 C707 1.355 . S
C708 C710 1.419 . S
C709 C704 1.425 1_556 S
C709 C706 1.409 1_556 S
C709 C707 1.415 . S
C710 H700 0.930 . S
C710 C708 1.419 . S
C710 C711 1.362 . S
C711 H701 0.930 . S
C711 C704 1.409 1_556 S
C711 C710 1.362 . S
H712 C718 0.930 . S
H713 C721 0.930 . S
H714 C722 0.930 . S
H715 C723 0.930 . S
H716 C726 0.930 . S
H717 C727 0.930 . S
C718 H712 0.930 . S
C718 C719 1.355 . S
C718 C720 1.415 . S
C719 C718 1.355 . S
C719 C721 1.419 . S
C720 C718 1.415 . S
C720 C725 1.425 1_556 S
C720 C727 1.409 1_556 S
C721 H713 0.930 . S
C721 C719 1.419 . S
C721 C722 1.362 . S
C722 H714 0.930 . S
C722 C721 1.362 . S
C722 C725 1.409 1_556 S
C723 H715 0.930 . S
C723 C724 1.355 . S
C723 C725 1.415 . S
C724 C723 1.355 . S
C724 C726 1.419 . S
C725 C720 1.425 1_554 S
C725 C722 1.409 1_554 S
C725 C723 1.415 . S
C726 H716 0.930 . S
C726 C724 1.419 . S
C726 C727 1.362 . S
C727 H717 0.930 . S
C727 C720 1.409 1_554 S
C727 C726 1.362 . S
H728 C734 0.930 . S
H729 C737 0.930 . S
H730 C738 0.930 . S
H731 C739 0.930 . S
H732 C742 0.930 . S
H733 C743 0.930 . S
C734 H728 0.930 . S
C734 C735 1.355 . S
C734 C736 1.415 . S
C735 C734 1.355 . S
C735 C737 1.419 . S
C736 C734 1.415 . S
C736 C741 1.425 1_556 S
C736 C743 1.409 1_556 S
C737 H729 0.930 . S
C737 C735 1.419 . S
C737 C738 1.362 . S
C738 H730 0.930 . S
C738 C737 1.362 . S
C738 C741 1.409 1_556 S
C739 H731 0.930 . S
C739 C740 1.355 . S
C739 C741 1.415 . S
C740 C739 1.355 . S
C740 C742 1.419 . S
C741 C736 1.425 1_554 S
C741 C738 1.409 1_554 S
C741 C739 1.415 . S
C742 H732 0.930 . S
C742 C740 1.419 . S
C742 C743 1.362 . S
C743 H733 0.930 . S
C743 C736 1.409 1_554 S
C743 C742 1.362 . S
H744 C750 0.930 . S
H745 C753 0.930 . S
H746 C754 0.930 . S
H747 C755 0.930 . S
H748 C758 0.930 . S
H749 C759 0.930 . S
C750 H744 0.930 . S
C750 C751 1.355 . S
C750 C752 1.415 . S
C751 C750 1.355 . S
C751 C753 1.419 . S
C752 C750 1.415 . S
C752 C757 1.425 1_554 S
C752 C759 1.409 1_554 S
C753 H745 0.930 . S
C753 C751 1.419 . S
C753 C754 1.362 . S
C754 H746 0.930 . S
C754 C753 1.362 . S
C754 C757 1.409 1_554 S
C755 H747 0.930 . S
C755 C756 1.355 . S
C755 C757 1.415 . S
C756 C755 1.355 . S
C756 C758 1.419 . S
C757 C752 1.425 1_556 S
C757 C754 1.409 1_556 S
C757 C755 1.415 . S
C758 H748 0.930 . S
C758 C756 1.419 . S
C758 C759 1.362 . S
C759 H749 0.930 . S
C759 C752 1.409 1_556 S
C759 C758 1.362 . S
H760 C766 0.930 . S
H761 C769 0.930 . S
H762 C770 0.930 . S
H763 C771 0.930 . S
H764 C774 0.930 . S
H765 C775 0.930 . S
C766 H760 0.930 . S
C766 C767 1.355 . S
C766 C768 1.415 . S
C767 C766 1.355 . S
C767 C769 1.419 . S
C768 C766 1.415 . S
C768 C773 1.425 1_554 S
C768 C775 1.409 1_554 S
C769 H761 0.930 . S
C769 C767 1.419 . S
C769 C770 1.362 . S
C770 H762 0.930 . S
C770 C769 1.362 . S
C770 C773 1.409 1_554 S
C771 H763 0.930 . S
C771 C772 1.355 . S
C771 C773 1.415 . S
C772 C771 1.355 . S
C772 C774 1.419 . S
C773 C768 1.425 1_556 S
C773 C770 1.409 1_556 S
C773 C771 1.415 . S
C774 H764 0.930 . S
C774 C772 1.419 . S
C774 C775 1.362 . S
C775 H765 0.930 . S
C775 C768 1.409 1_556 S
C775 C774 1.362 . S
H776 C782 0.930 . S
H777 C785 0.930 . S
H778 C786 0.930 . S
H779 C787 0.930 . S
H780 C790 0.930 . S
H781 C791 0.930 . S
C782 H776 0.930 . S
C782 C783 1.355 . S
C782 C784 1.415 . S
C783 C782 1.355 . S
C783 C785 1.419 . S
C784 C782 1.415 . S
C784 C789 1.425 1_556 S
C784 C791 1.409 1_556 S
C785 H777 0.930 . S
C785 C783 1.419 . S
C785 C786 1.362 . S
C786 H778 0.930 . S
C786 C785 1.362 . S
C786 C789 1.409 1_556 S
C787 H779 0.930 . S
C787 C788 1.355 . S
C787 C789 1.415 . S
C788 C787 1.355 . S
C788 C790 1.419 . S
C789 C784 1.425 1_554 S
C789 C786 1.409 1_554 S
C789 C787 1.415 . S
C790 H780 0.930 . S
C790 C788 1.419 . S
C790 C791 1.362 . S
C791 H781 0.930 . S
C791 C784 1.409 1_554 S
C791 C790 1.362 . S
H792 C798 0.930 . S
H793 C801 0.930 . S
H794 C802 0.930 . S
H795 C803 0.930 . S
H796 C806 0.930 . S
H797 C807 0.930 . S
C798 H792 0.930 . S
C798 C799 1.355 . S
C798 C800 1.415 . S
C799 C798 1.355 . S
C799 C801 1.419 . S
C800 C798 1.415 . S
C800 C805 1.425 . S
C800 C807 1.409 . S
C801 H793 0.930 . S
C801 C799 1.419 . S
C801 C802 1.362 . S
C802 H794 0.930 . S
C802 C801 1.362 . S
C802 C805 1.409 . S
C803 H795 0.930 . S
C803 C804 1.355 . S
C803 C805 1.415 . S
C804 C803 1.355 . S
C804 C806 1.419 . S
C805 C800 1.425 . S
C805 C802 1.409 . S
C805 C803 1.415 . S
C806 H796 0.930 . S
C806 C804 1.419 . S
C806 C807 1.362 . S
C807 H797 0.930 . S
C807 C800 1.409 . S
C807 C806 1.362 . S
H808 C814 0.930 . S
H809 C817 0.930 . S
H810 C818 0.930 . S
H811 C819 0.930 . S
H812 C822 0.930 . S
H813 C823 0.930 . S
C814 H808 0.930 . S
C814 C815 1.355 . S
C814 C816 1.415 . S
C815 C814 1.355 . S
C815 C817 1.419 . S
C816 C814 1.415 . S
C816 C821 1.425 . S
C816 C823 1.409 . S
C817 H809 0.930 . S
C817 C815 1.419 . S
C817 C818 1.362 . S
C818 H810 0.930 . S
C818 C817 1.362 . S
C818 C821 1.409 . S
C819 H811 0.930 . S
C819 C820 1.355 . S
C819 C821 1.415 . S
C820 C819 1.355 . S
C820 C822 1.419 . S
C821 C816 1.425 . S
C821 C818 1.409 . S
C821 C819 1.415 . S
C822 H812 0.930 . S
C822 C820 1.419 . S
C822 C823 1.362 . S
C823 H813 0.930 . S
C823 C816 1.409 . S
C823 C822 1.362 . S
H824 C830 0.930 . S
H825 C833 0.930 . S
H826 C834 0.930 . S
H827 C835 0.930 . S
H828 C838 0.930 . S
H829 C839 0.930 . S
C830 H824 0.930 . S
C830 C831 1.355 . S
C830 C832 1.415 . S
C831 C830 1.355 . S
C831 C833 1.419 . S
C832 C830 1.415 . S
C832 C837 1.425 . S
C832 C839 1.409 . S
C833 H825 0.930 . S
C833 C831 1.419 . S
C833 C834 1.362 . S
C834 H826 0.930 . S
C834 C833 1.362 . S
C834 C837 1.409 . S
C835 H827 0.930 . S
C835 C836 1.355 . S
C835 C837 1.415 . S
C836 C835 1.355 . S
C836 C838 1.419 . S
C837 C832 1.425 . S
C837 C834 1.409 . S
C837 C835 1.415 . S
C838 H828 0.930 . S
C838 C836 1.419 . S
C838 C839 1.362 . S
C839 H829 0.930 . S
C839 C832 1.409 . S
C839 C838 1.362 . S
H840 C846 0.930 . S
H841 C849 0.930 . S
H842 C850 0.930 . S
H843 C851 0.930 . S
H844 C854 0.930 . S
H845 C855 0.930 . S
C846 H840 0.930 . S
C846 C847 1.355 . S
C846 C848 1.415 . S
C847 C846 1.355 . S
C847 C849 1.419 . S
C848 C846 1.415 . S
C848 C853 1.425 . S
C848 C855 1.409 . S
C849 H841 0.930 . S
C849 C847 1.419 . S
C849 C850 1.362 . S
C850 H842 0.930 . S
C850 C849 1.362 . S
C850 C853 1.409 . S
C851 H843 0.930 . S
C851 C852 1.355 . S
C851 C853 1.415 . S
C852 C851 1.355 . S
C852 C854 1.419 . S
C853 C848 1.425 . S
C853 C850 1.409 . S
C853 C851 1.415 . S
C854 H844 0.930 . S
C854 C852 1.419 . S
C854 C855 1.362 . S
C855 H845 0.930 . S
C855 C848 1.409 . S
C855 C854 1.362 . S
H856 C862 0.930 . S
H857 C865 0.930 . S
H858 C866 0.930 . S
H859 C867 0.930 . S
H860 C870 0.930 . S
H861 C871 0.930 . S
C862 H856 0.930 . S
C862 C863 1.355 . S
C862 C864 1.415 . S
C863 C862 1.355 . S
C863 C865 1.419 . S
C864 C862 1.415 . S
C864 C869 1.425 . S
C864 C871 1.409 . S
C865 H857 0.930 . S
C865 C863 1.419 . S
C865 C866 1.362 . S
C866 H858 0.930 . S
C866 C865 1.362 . S
C866 C869 1.409 . S
C867 H859 0.930 . S
C867 C868 1.355 . S
C867 C869 1.415 . S
C868 C867 1.355 . S
C868 C870 1.419 . S
C869 C864 1.425 . S
C869 C866 1.409 . S
C869 C867 1.415 . S
C870 H860 0.930 . S
C870 C868 1.419 . S
C870 C871 1.362 . S
C871 H861 0.930 . S
C871 C864 1.409 . S
C871 C870 1.362 . S
H872 C878 0.930 . S
H873 C881 0.930 . S
H874 C882 0.930 . S
H875 C883 0.930 . S
H876 C886 0.930 . S
H877 C887 0.930 . S
C878 H872 0.930 . S
C878 C879 1.355 . S
C878 C880 1.415 . S
C879 C878 1.355 . S
C879 C881 1.419 . S
C880 C878 1.415 . S
C880 C885 1.425 . S
C880 C887 1.409 . S
C881 H873 0.930 . S
C881 C879 1.419 . S
C881 C882 1.362 . S
C882 H874 0.930 . S
C882 C881 1.362 . S
C882 C885 1.409 . S
C883 H875 0.930 . S
C883 C884 1.355 . S
C883 C885 1.415 . S
C884 C883 1.355 . S
C884 C886 1.419 . S
C885 C880 1.425 . S
C885 C882 1.409 . S
C885 C883 1.415 . S
C886 H876 0.930 . S
C886 C884 1.419 . S
C886 C887 1.362 . S
C887 H877 0.930 . S
C887 C880 1.409 . S
C887 C886 1.362 . S
H888 C894 0.930 . S
H889 C897 0.930 . S
H890 C898 0.930 . S
H891 C899 0.930 . S
H892 C902 0.930 . S
H893 C903 0.930 . S
C894 H888 0.930 . S
C894 C895 1.355 . S
C894 C896 1.415 . S
C895 C894 1.355 . S
C895 C897 1.419 . S
C896 C894 1.415 . S
C896 C901 1.425 . S
C896 C903 1.409 . S
C897 H889 0.930 . S
C897 C895 1.419 . S
C897 C898 1.362 . S
C898 H890 0.930 . S
C898 C897 1.362 . S
C898 C901 1.409 . S
C899 H891 0.930 . S
C899 C900 1.355 . S
C899 C901 1.415 . S
C900 C899 1.355 . S
C900 C902 1.419 . S
C901 C896 1.425 . S
C901 C898 1.409 . S
C901 C899 1.415 . S
C902 H892 0.930 . S
C902 C900 1.419 . S
C902 C903 1.362 . S
C903 H893 0.930 . S
C903 C896 1.409 . S
C903 C902 1.362 . S
H904 C910 0.930 . S
H905 C913 0.930 . S
H906 C914 0.930 . S
H907 C915 0.930 . S
H908 C918 0.930 . S
H909 C919 0.930 . S
C910 H904 0.930 . S
C910 C911 1.355 . S
C910 C912 1.415 . S
C911 C910 1.355 . S
C911 C913 1.419 . S
C912 C910 1.415 . S
C912 C917 1.425 . S
C912 C919 1.409 . S
C913 H905 0.930 . S
C913 C911 1.419 . S
C913 C914 1.362 . S
C914 H906 0.930 . S
C914 C913 1.362 . S
C914 C917 1.409 . S
C915 H907 0.930 . S
C915 C916 1.355 . S
C915 C917 1.415 . S
C916 C915 1.355 . S
C916 C918 1.419 . S
C917 C912 1.425 . S
C917 C914 1.409 . S
C917 C915 1.415 . S
C918 H908 0.930 . S
C918 C916 1.419 . S
C918 C919 1.362 . S
C919 H909 0.930 . S
C919 C912 1.409 . S
C919 C918 1.362 . S
H920 C926 0.930 . S
H921 C929 0.930 . S
H922 C930 0.930 . S
H923 C931 0.930 . S
H924 C934 0.930 . S
H925 C935 0.930 . S
C926 H920 0.930 . S
C926 C927 1.355 . S
C926 C928 1.415 . S
C927 C926 1.355 . S
C927 C929 1.419 . S
C928 C926 1.415 . S
C928 C933 1.425 . S
C928 C935 1.409 . S
C929 H921 0.930 . S
C929 C927 1.419 . S
C929 C930 1.362 . S
C930 H922 0.930 . S
C930 C929 1.362 . S
C930 C933 1.409 . S
C931 H923 0.930 . S
C931 C932 1.355 . S
C931 C933 1.415 . S
C932 C931 1.355 . S
C932 C934 1.419 . S
C933 C928 1.425 . S
C933 C930 1.409 . S
C933 C931 1.415 . S
C934 H924 0.930 . S
C934 C932 1.419 . S
C934 C935 1.362 . S
C935 H925 0.930 . S
C935 C928 1.409 . S
C935 C934 1.362 . S
H936 C942 0.930 . S
H937 C945 0.930 . S
H938 C946 0.930 . S
H939 C947 0.930 . S
H940 C950 0.930 . S
H941 C951 0.930 . S
C942 H936 0.930 . S
C942 C943 1.355 . S
C942 C944 1.415 . S
C943 C942 1.355 . S
C943 C945 1.419 . S
C944 C942 1.415 . S
C944 C949 1.425 . S
C944 C951 1.409 . S
C945 H937 0.930 . S
C945 C943 1.419 . S
C945 C946 1.362 . S
C946 H938 0.930 . S
C946 C945 1.362 . S
C946 C949 1.409 . S
C947 H939 0.930 . S
C947 C948 1.355 . S
C947 C949 1.415 . S
C948 C947 1.355 . S
C948 C950 1.419 . S
C949 C944 1.425 . S
C949 C946 1.409 . S
C949 C947 1.415 . S
C950 H940 0.930 . S
C950 C948 1.419 . S
C950 C951 1.362 . S
C951 H941 0.930 . S
C951 C944 1.409 . S
C951 C950 1.362 . S
H952 C958 0.930 . S
H953 C961 0.930 . S
H954 C962 0.930 . S
H955 C963 0.930 . S
H956 C966 0.930 . S
H957 C967 0.930 . S
C958 H952 0.930 . S
C958 C959 1.355 . S
C958 C960 1.415 . S
C959 C958 1.355 . S
C959 C961 1.419 . S
C960 C958 1.415 . S
C960 C965 1.425 . S
C960 C967 1.409 . S
C961 H953 0.930 . S
C961 C959 1.419 . S
C961 C962 1.362 . S
C962 H954 0.930 . S
C962 C961 1.362 . S
C962 C965 1.409 . S
C963 H955 0.930 . S
C963 C964 1.355 . S
C963 C965 1.415 . S
C964 C963 1.355 . S
C964 C966 1.419 . S
C965 C960 1.425 . S
C965 C962 1.409 . S
C965 C963 1.415 . S
C966 H956 0.930 . S
C966 C964 1.419 . S
C966 C967 1.362 . S
C967 H957 0.930 . S
C967 C960 1.409 . S
C967 C966 1.362 . S
H968 C974 0.930 . S
H969 C977 0.930 . S
H970 C978 0.930 . S
H971 C979 0.930 . S
H972 C982 0.930 . S
H973 C983 0.930 . S
C974 H968 0.930 . S
C974 C975 1.355 . S
C974 C976 1.415 . S
C975 C974 1.355 . S
C975 C977 1.419 . S
C976 C974 1.415 . S
C976 C981 1.425 . S
C976 C983 1.409 . S
C977 H969 0.930 . S
C977 C975 1.419 . S
C977 C978 1.362 . S
C978 H970 0.930 . S
C978 C977 1.362 . S
C978 C981 1.409 . S
C979 H971 0.930 . S
C979 C980 1.355 . S
C979 C981 1.415 . S
C980 C979 1.355 . S
C980 C982 1.419 . S
C981 C976 1.425 . S
C981 C978 1.409 . S
C981 C979 1.415 . S
C982 H972 0.930 . S
C982 C980 1.419 . S
C982 C983 1.362 . S
C983 H973 0.930 . S
C983 C976 1.409 . S
C983 C982 1.362 . S
H984 C990 0.930 . S
H985 C993 0.930 . S
H986 C994 0.930 . S
H987 C995 0.930 . S
H988 C998 0.930 . S
H989 C999 0.930 . S
C990 H984 0.930 . S
C990 C991 1.355 . S
C990 C992 1.415 . S
C991 C990 1.355 . S
C991 C993 1.419 . S
C992 C990 1.415 . S
C992 C997 1.425 . S
C992 C999 1.409 . S
C993 H985 0.930 . S
C993 C991 1.419 . S
C993 C994 1.362 . S
C994 H986 0.930 . S
C994 C993 1.362 . S
C994 C997 1.409 . S
C995 H987 0.930 . S
C995 C996 1.355 . S
C995 C997 1.415 . S
C996 C995 1.355 . S
C996 C998 1.419 . S
C997 C992 1.425 . S
C997 C994 1.409 . S
C997 C995 1.415 . S
C998 H988 0.930 . S
C998 C996 1.419 . S
C998 C999 1.362 . S
C999 H989 0.930 . S
C999 C992 1.409 . S
C999 C998 1.362 . S
H1000 C1006 0.930 . S
H1001 C1009 0.930 . S
H1002 C1010 0.930 . S
H1003 C1011 0.930 . S
H1004 C1014 0.930 . S
H1005 C1015 0.930 . S
C1006 H1000 0.930 . S
C1006 C1007 1.355 . S
C1006 C1008 1.415 . S
C1007 C1006 1.355 . S
C1007 C1009 1.419 . S
C1008 C1006 1.415 . S
C1008 C1013 1.425 . S
C1008 C1015 1.409 . S
C1009 H1001 0.930 . S
C1009 C1007 1.419 . S
C1009 C1010 1.362 . S
C1010 H1002 0.930 . S
C1010 C1009 1.362 . S
C1010 C1013 1.409 . S
C1011 H1003 0.930 . S
C1011 C1012 1.355 . S
C1011 C1013 1.415 . S
C1012 C1011 1.355 . S
C1012 C1014 1.419 . S
C1013 C1008 1.425 . S
C1013 C1010 1.409 . S
C1013 C1011 1.415 . S
C1014 H1004 0.930 . S
C1014 C1012 1.419 . S
C1014 C1015 1.362 . S
C1015 H1005 0.930 . S
C1015 C1008 1.409 . S
C1015 C1014 1.362 . S
H1016 C1022 0.930 . S
H1017 C1025 0.930 . S
H1018 C1026 0.930 . S
H1019 C1027 0.930 . S
H1020 C1030 0.930 . S
H1021 C1031 0.930 . S
C1022 H1016 0.930 . S
C1022 C1023 1.355 . S
C1022 C1024 1.415 . S
C1023 C1022 1.355 . S
C1023 C1025 1.419 . S
C1024 C1022 1.415 . S
C1024 C1029 1.425 . S
C1024 C1031 1.409 . S
C1025 H1017 0.930 . S
C1025 C1023 1.419 . S
C1025 C1026 1.362 . S
C1026 H1018 0.930 . S
C1026 C1025 1.362 . S
C1026 C1029 1.409 . S
C1027 H1019 0.930 . S
C1027 C1028 1.355 . S
C1027 C1029 1.415 . S
C1028 C1027 1.355 . S
C1028 C1030 1.419 . S
C1029 C1024 1.425 . S
C1029 C1026 1.409 . S
C1029 C1027 1.415 . S
C1030 H1020 0.930 . S
C1030 C1028 1.419 . S
C1030 C1031 1.362 . S
C1031 H1021 0.930 . S
C1031 C1024 1.409 . S
C1031 C1030 1.362 . S
H1032 C1038 0.930 . S
H1033 C1041 0.930 . S
H1034 C1042 0.930 . S
H1035 C1043 0.930 . S
H1036 C1046 0.930 . S
H1037 C1047 0.930 . S
C1038 H1032 0.930 . S
C1038 C1039 1.355 . S
C1038 C1040 1.415 . S
C1039 C1038 1.355 . S
C1039 C1041 1.419 . S
C1040 C1038 1.415 . S
C1040 C1045 1.425 . S
C1040 C1047 1.409 . S
C1041 H1033 0.930 . S
C1041 C1039 1.419 . S
C1041 C1042 1.362 . S
C1042 H1034 0.930 . S
C1042 C1041 1.362 . S
C1042 C1045 1.409 . S
C1043 H1035 0.930 . S
C1043 C1044 1.355 . S
C1043 C1045 1.415 . S
C1044 C1043 1.355 . S
C1044 C1046 1.419 . S
C1045 C1040 1.425 . S
C1045 C1042 1.409 . S
C1045 C1043 1.415 . S
C1046 H1036 0.930 . S
C1046 C1044 1.419 . S
C1046 C1047 1.362 . S
C1047 H1037 0.930 . S
C1047 C1040 1.409 . S
C1047 C1046 1.362 . S
H1048 C1054 0.930 . S
H1049 C1057 0.930 . S
H1050 C1058 0.930 . S
H1051 C1059 0.930 . S
H1052 C1062 0.930 . S
H1053 C1063 0.930 . S
C1054 H1048 0.930 . S
C1054 C1055 1.355 . S
C1054 C1056 1.415 . S
C1055 C1054 1.355 . S
C1055 C1057 1.419 . S
C1056 C1054 1.415 . S
C1056 C1061 1.425 . S
C1056 C1063 1.409 . S
C1057 H1049 0.930 . S
C1057 C1055 1.419 . S
C1057 C1058 1.362 . S
C1058 H1050 0.930 . S
C1058 C1057 1.362 . S
C1058 C1061 1.409 . S
C1059 H1051 0.930 . S
C1059 C1060 1.355 . S
C1059 C1061 1.415 . S
C1060 C1059 1.355 . S
C1060 C1062 1.419 . S
C1061 C1056 1.425 . S
C1061 C1058 1.409 . S
C1061 C1059 1.415 . S
C1062 H1052 0.930 . S
C1062 C1060 1.419 . S
C1062 C1063 1.362 . S
C1063 H1053 0.930 . S
C1063 C1056 1.409 . S
C1063 C1062 1.362 . S
H1064 C1070 0.930 . S
H1065 C1073 0.930 . S
H1066 C1074 0.930 . S
H1067 C1075 0.930 . S
H1068 C1078 0.930 . S
H1069 C1079 0.930 . S
C1070 H1064 0.930 . S
C1070 C1071 1.355 . S
C1070 C1072 1.415 . S
C1071 C1070 1.355 . S
C1071 C1073 1.419 . S
C1072 C1070 1.415 . S
C1072 C1077 1.425 . S
C1072 C1079 1.409 . S
C1073 H1065 0.930 . S
C1073 C1071 1.419 . S
C1073 C1074 1.362 . S
C1074 H1066 0.930 . S
C1074 C1073 1.362 . S
C1074 C1077 1.409 . S
C1075 H1067 0.930 . S
C1075 C1076 1.355 . S
C1075 C1077 1.415 . S
C1076 C1075 1.355 . S
C1076 C1078 1.419 . S
C1077 C1072 1.425 . S
C1077 C1074 1.409 . S
C1077 C1075 1.415 . S
C1078 H1068 0.930 . S
C1078 C1076 1.419 . S
C1078 C1079 1.362 . S
C1079 H1069 0.930 . S
C1079 C1072 1.409 . S
C1079 C1078 1.362 . S
C319 C5 1.558 . S
C324 C96 1.544 . S
C335 C109 1.560 . S
C340 C16 1.553 . S
C351 C31 1.559 . S
C356 C120 1.545 . S
C367 C44 1.554 . S
C372 C133 1.544 . S
C383 C148 1.548 . S
C388 C55 1.561 . S
C399 C70 1.555 . S
C404 C81 1.559 . S
C415 C161 1.549 . S
C420 C252 1.561 . S
C431 C172 1.557 . S
C436 C265 1.557 . S
C447 C276 1.544 . S
C452 C185 1.554 . S
C463 C198 1.544 . S
C468 C291 1.556 . S
C479 C211 1.559 . S
C484 C302 1.545 . S
C495 C237 1.558 . S
C500 C224 1.556 . S
C511 C4 1.558 . S
C516 C108 1.558 . S
C527 C127 1.583 . S
C532 C23 1.582 . S
C543 C140 1.572 . S
C548 C30 1.572 . S
C559 C43 1.559 . S
C564 C147 1.559 . S
C575 C62 1.559 . S
C580 C88 1.559 . S
C591 C69 1.564 . S
C596 C95 1.564 . S
C607 C264 1.572 . S
C612 C160 1.571 . S
C623 C179 1.557 . S
C628 C283 1.556 . S
C639 C290 1.563 . S
C644 C192 1.562 . S
C655 C309 1.556 . S
C660 C205 1.556 . S
C671 C244 1.557 . S
C676 C218 1.557 . S
C687 C231 1.563 . S
C692 C251 1.563 . S
C703 C10 1.659 . S
C708 C199 1.660 . S
C719 C212 1.669 . S
C724 C17 1.650 . S
C735 C225 1.644 . S
C740 C36 1.676 . S
C751 C49 1.676 . S
C756 C166 1.644 . S
C767 C56 1.655 . S
C772 C173 1.664 . S
C783 C186 1.670 . S
C788 C75 1.649 . S
C799 C277 1.659 . S
C804 C82 1.661 . S
C815 C296 1.671 . S
C820 C101 1.648 . S
C831 C303 1.656 . S
C836 C114 1.663 . S
C847 C238 1.648 . S
C852 C121 1.671 . S
C863 C134 1.643 . S
C868 C257 1.676 . S
C879 C153 1.655 . S
C884 C270 1.665 . S
C895 C3 1.572 . S
C900 C135 1.579 . S
C911 C146 1.580 . S
C916 C18 1.586 . S
C927 C83 1.589 . S
C932 C29 1.584 . S
C943 C42 1.559 . S
C948 C94 1.553 . S
C959 C57 1.582 . S
C964 C107 1.588 . S
C975 C68 1.550 . S
C980 C122 1.547 . S
C991 C159 1.549 . S
C996 C289 1.554 . S
C1007 C174 1.589 . S
C1012 C304 1.591 . S
C1023 C187 1.558 . S
C1028 C239 1.566 . S
C1039 C250 1.549 . S
C1044 C200 1.547 . S
C1055 C213 1.571 . S
C1060 C263 1.579 . S
C1071 C226 1.575 . S
C1076 C278 1.567 . S
