# Generated by pormake.
# Topology wji, (4)-cn, num edge types: 1
# Building blocks:
#     Node 0, Type 0, BuildingBlock: KUFVIS_clean_sbu_0, # of connection points: 4
#     Node 1, Type 0, BuildingBlock: KUFVIS_clean_sbu_0, # of connection points: 4
#     Node 2, Type 0, BuildingBlock: KUFVIS_clean_sbu_0, # of connection points: 4
#     Node 3, Type 0, BuildingBlock: KUFVIS_clean_sbu_0, # of connection points: 4
#     Node 4, Type 0, BuildingBlock: KUFVIS_clean_sbu_0, # of connection points: 4
#     Node 5, Type 0, BuildingBlock: KUFVIS_clean_sbu_0, # of connection points: 4
#     Node 6, Type 0, BuildingBlock: KUFVIS_clean_sbu_0, # of connection points: 4
#     Node 7, Type 0, BuildingBlock: KUFVIS_clean_sbu_0, # of connection points: 4
#     Node 8, Type 0, BuildingBlock: KUFVIS_clean_sbu_0, # of connection points: 4
#     Node 9, Type 0, BuildingBlock: KUFVIS_clean_sbu_0, # of connection points: 4
#     Node 10, Type 0, BuildingBlock: KUFVIS_clean_sbu_0, # of connection points: 4
#     Node 11, Type 0, BuildingBlock: KUFVIS_clean_sbu_0, # of connection points: 4
#     Edge 12, Type (0, 0), BuildingBlock: XIVTED_clean_linker_0, # of connection points: 2
#     Edge 13, Type (0, 0), BuildingBlock: XIVTED_clean_linker_0, # of connection points: 2
#     Edge 14, Type (0, 0), BuildingBlock: XIVTED_clean_linker_0, # of connection points: 2
#     Edge 15, Type (0, 0), BuildingBlock: XIVTED_clean_linker_0, # of connection points: 2
#     Edge 16, Type (0, 0), BuildingBlock: XIVTED_clean_linker_0, # of connection points: 2
#     Edge 17, Type (0, 0), BuildingBlock: XIVTED_clean_linker_0, # of connection points: 2
#     Edge 18, Type (0, 0), BuildingBlock: XIVTED_clean_linker_0, # of connection points: 2
#     Edge 19, Type (0, 0), BuildingBlock: XIVTED_clean_linker_0, # of connection points: 2
#     Edge 20, Type (0, 0), BuildingBlock: XIVTED_clean_linker_0, # of connection points: 2
#     Edge 21, Type (0, 0), BuildingBlock: XIVTED_clean_linker_0, # of connection points: 2
#     Edge 22, Type (0, 0), BuildingBlock: XIVTED_clean_linker_0, # of connection points: 2
#     Edge 23, Type (0, 0), BuildingBlock: XIVTED_clean_linker_0, # of connection points: 2
#     Edge 24, Type (0, 0), BuildingBlock: XIVTED_clean_linker_0, # of connection points: 2
#     Edge 25, Type (0, 0), BuildingBlock: XIVTED_clean_linker_0, # of connection points: 2
#     Edge 26, Type (0, 0), BuildingBlock: XIVTED_clean_linker_0, # of connection points: 2
#     Edge 27, Type (0, 0), BuildingBlock: XIVTED_clean_linker_0, # of connection points: 2
#     Edge 28, Type (0, 0), BuildingBlock: XIVTED_clean_linker_0, # of connection points: 2
#     Edge 29, Type (0, 0), BuildingBlock: XIVTED_clean_linker_0, # of connection points: 2
#     Edge 30, Type (0, 0), BuildingBlock: XIVTED_clean_linker_0, # of connection points: 2
#     Edge 31, Type (0, 0), BuildingBlock: XIVTED_clean_linker_0, # of connection points: 2
#     Edge 32, Type (0, 0), BuildingBlock: XIVTED_clean_linker_0, # of connection points: 2
#     Edge 33, Type (0, 0), BuildingBlock: XIVTED_clean_linker_0, # of connection points: 2
#     Edge 34, Type (0, 0), BuildingBlock: XIVTED_clean_linker_0, # of connection points: 2
#     Edge 35, Type (0, 0), BuildingBlock: XIVTED_clean_linker_0, # of connection points: 2
# Relax obj value: 0.184
# Max RMSD: 0.114
# Mean RMSD: 0.114
data_MOF--net-wji--node1-KUFVIS_clean_sbu_0--edge1-XIVTED_clean_linker_0
_symmetry_space_group_name_H-M    P1
_symmetry_Int_Tables_number       1
_symmetry_cell_setting            triclinic
loop_
_symmetry_equiv_pos_as_xyz
'x, y, z'
_cell_length_a     56.878904
_cell_length_b     56.886966
_cell_length_c     23.439626
_cell_angle_alpha  90.005613
_cell_angle_beta   90.019013
_cell_angle_gamma 119.98724
loop_
_atom_site_label
_atom_site_type_symbol
_atom_site_fract_x
_atom_site_fract_y
_atom_site_fract_z
_atom_type_partial_charge
Mn0 Mn 0.42349 0.32637 0.44009 0.0
Mn1 Mn 0.43169 0.38928 0.4272 0.0
C2 C 0.39724 0.3389 0.49269 0.0
C3 C 0.43251 0.29479 0.48479 0.0
C4 C 0.40105 0.34491 0.341 0.0
O5 O 0.46172 0.34788 0.4081 0.0
O6 O 0.46374 0.38824 0.39576 0.0
C7 C 0.47934 0.42092 0.50212 0.0
N8 N 0.45302 0.41242 0.48829 0.0
C9 C 0.45161 0.44435 0.55356 0.0
C10 C 0.47881 0.45366 0.56791 0.0
C11 C 0.49261 0.44164 0.5426 0.0
C12 C 0.43941 0.42353 0.51322 0.0
H13 H 0.49032 0.41233 0.48179 0.0
C14 C 0.4742 0.37282 0.39333 0.0
O15 O 0.42309 0.29109 0.43307 0.0
O16 O 0.43758 0.3172 0.50959 0.0
N17 N 0.40278 0.39351 0.45754 0.0
C18 C 0.37619 0.38099 0.44179 0.0
C19 C 0.35884 0.38893 0.46694 0.0
C20 C 0.36914 0.41 0.50731 0.0
C21 C 0.39658 0.42256 0.5229 0.0
C22 C 0.41272 0.41331 0.49736 0.0
H23 H 0.36825 0.36477 0.41108 0.0
O24 O 0.38823 0.31356 0.48026 0.0
O25 O 0.42088 0.35634 0.47231 0.0
O26 O 0.40624 0.32736 0.36255 0.0
O27 O 0.40919 0.36819 0.36267 0.0
C28 C 0.40858 0.44388 0.56275 0.0
C29 C 0.43618 0.45504 0.57734 0.0
H30 H 0.48928 0.46994 0.59844 0.0
H31 H 0.51358 0.44866 0.55356 0.0
H32 H 0.33763 0.37895 0.45502 0.0
H33 H 0.35577 0.41625 0.52631 0.0
H34 H 0.39678 0.45185 0.58246 0.0
H35 H 0.44526 0.47172 0.60725 0.0
Mn36 Mn 0.09763 0.41333 0.60571 0.0
Mn37 Mn 0.04378 0.42319 0.59852 0.0
C38 C 0.06062 0.38952 0.66433 0.0
C39 C 0.139 0.42251 0.64633 0.0
C40 C 0.05346 0.38931 0.51291 0.0
O41 O 0.1141 0.45043 0.5682 0.0
O42 O 0.07628 0.45387 0.5619 0.0
C43 C 0.06307 0.47279 0.66871 0.0
N44 N 0.04451 0.44625 0.65865 0.0
C45 C 0.01407 0.44708 0.7288 0.0
C46 C 0.03268 0.47454 0.73921 0.0
C47 C 0.05743 0.48734 0.70955 0.0
C48 C 0.0208 0.43364 0.68762 0.0
H49 H 0.08181 0.48298 0.64506 0.0
C50 C 0.10181 0.46325 0.55474 0.0
O51 O 0.13146 0.41103 0.5966 0.0
O52 O 0.12316 0.4296 0.67113 0.0
N53 N 0.01136 0.39555 0.63397 0.0
C54 C 0.99633 0.36866 0.62108 0.0
C55 C 0.972 0.35228 0.65053 0.0
C56 C 0.9632 0.36381 0.6924 0.0
C57 C 0.97905 0.39152 0.70503 0.0
C58 C 1.00336 0.4067 0.67499 0.0
H59 H 1.00322 0.35971 0.58959 0.0
O60 O 0.07608 0.37961 0.65117 0.0
O61 O 0.06667 0.41271 0.64158 0.0
O62 O 0.07648 0.39395 0.53191 0.0
O63 O 0.0398 0.399 0.53541 0.0
C64 C 0.97175 0.40468 0.74633 0.0
C65 C 0.98899 0.43256 0.7573 0.0
H66 H 0.02823 0.48601 0.76992 0.0
H67 H 0.07194 0.50851 0.71747 0.0
H68 H 0.96005 0.33085 0.64094 0.0
H69 H 0.94436 0.35116 0.71488 0.0
H70 H 0.95288 0.39361 0.76971 0.0
H71 H 0.98282 0.44258 0.78796 0.0
Mn72 Mn 0.68501 0.09935 0.77205 0.0
Mn73 Mn 0.62239 0.04432 0.75854 0.0
C74 C 0.67272 0.0607 0.82478 0.0
C75 C 0.7158 0.14005 0.81746 0.0
C76 C 0.66705 0.05856 0.67279 0.0
O77 O 0.66328 0.11569 0.73941 0.0
O78 O 0.62294 0.07726 0.72763 0.0
C79 C 0.58959 0.05908 0.83273 0.0
N80 N 0.59892 0.04187 0.81945 0.0
C81 C 0.5671 0.00793 0.88384 0.0
C82 C 0.55688 0.02514 0.89744 0.0
C83 C 0.56844 0.05097 0.87239 0.0
C84 C 0.58821 0.01713 0.84412 0.0
H85 H 0.59779 0.07863 0.81244 0.0
C86 C 0.63828 0.10314 0.72506 0.0
O87 O 0.72004 0.13457 0.76594 0.0
O88 O 0.69336 0.12238 0.84159 0.0
N89 N 0.6188 0.01138 0.78854 0.0
C90 C 0.63187 0.99784 0.77286 0.0
C91 C 0.62441 0.97264 0.79785 0.0
C92 C 0.60327 0.96141 0.83799 0.0
C93 C 0.59018 0.97578 0.85356 0.0
C94 C 0.59898 1.00113 0.82828 0.0
H95 H 0.64816 0.00649 0.74235 0.0
O96 O 0.69807 0.07723 0.81279 0.0
O97 O 0.65519 0.06666 0.80384 0.0
O98 O 0.68457 0.08125 0.69462 0.0
O99 O 0.64369 0.04344 0.69405 0.0
C100 C 0.56871 0.96597 0.89311 0.0
C101 C 0.55696 0.98188 0.90761 0.0
H102 H 0.54027 0.0188 0.92734 0.0
H103 H 0.56074 0.06442 0.88285 0.0
H104 H 0.63483 0.96183 0.78596 0.0
H105 H 0.59739 0.94185 0.85683 0.0
H106 H 0.56108 0.94621 0.91263 0.0
H107 H 0.54016 0.97387 0.93714 0.0
Mn108 Mn 0.58475 0.67906 0.94671 0.0
Mn109 Mn 0.5713 0.61415 0.94322 0.0
C110 C 0.61136 0.66631 -0.00181 0.0
C111 C 0.57841 0.71267 0.99019 0.0
C112 C 0.59716 0.65342 0.84477 0.0
O113 O 0.54521 0.65807 0.91982 0.0
O114 O 0.53772 0.61516 0.92614 0.0
C115 C 0.53187 0.5872 0.03644 0.0
N116 N 0.5566 0.5951 0.0129 0.0
C117 C 0.56491 0.56778 0.07916 0.0
C118 C 0.53928 0.55895 0.10334 0.0
C119 C 0.52287 0.56901 0.08246 0.0
C120 C 0.57269 0.58578 0.03316 0.0
H121 H 0.51882 0.59421 0.01941 0.0
C122 C 0.52974 0.6323 0.91751 0.0
O123 O 0.58652 0.715 0.93757 0.0
O124 O 0.57331 0.69063 0.01655 0.0
N125 N 0.60254 0.61114 0.96066 0.0
C126 C 0.62669 0.62186 0.93255 0.0
C127 C 0.6464 0.61559 0.95108 0.0
C128 C 0.64087 0.59801 -0.00241 0.0
C129 C 0.6158 0.58717 0.02562 0.0
C130 C 0.59724 0.59468 0.00612 0.0
H131 H 0.63092 0.63513 0.89638 0.0
O132 O 0.62099 0.69143 0.983 0.0
O133 O 0.58685 0.64942 0.98133 0.0
O134 O 0.59937 0.67473 0.86826 0.0
O135 O 0.58618 0.63046 0.86933 0.0
C136 C 0.60843 0.56906 0.07188 0.0
C137 C 0.58288 0.55911 0.09813 0.0
H138 H 0.5319 0.54446 0.13794 0.0
H139 H 0.50313 0.56235 0.10111 0.0
H140 H 0.6657 0.62407 0.92923 0.0
H141 H 0.65599 0.59297 0.01138 0.0
H142 H 0.6222 0.56256 0.08747 0.0
H143 H 0.57734 0.54479 0.13279 0.0
Mn144 Mn 0.90956 0.59 0.09664 0.0
Mn145 Mn 0.96425 0.58189 0.08116 0.0
C146 C 0.94896 0.61665 0.14765 0.0
C147 C 0.86937 0.5805 0.14372 0.0
C148 C 0.94793 0.61001 0.99358 0.0
O149 O 0.89283 0.5515 0.06542 0.0
O150 O 0.93079 0.54834 0.05683 0.0
C151 C 0.95299 0.53732 0.16137 0.0
N152 N 0.96905 0.56355 0.14443 0.0
C153 C 1.00496 0.56922 0.20739 0.0
C154 C 0.98895 0.54211 0.22466 0.0
C155 C 0.96271 0.52624 0.20221 0.0
C156 C 0.99419 0.57912 0.16649 0.0
H157 H 0.93315 0.52473 0.14296 0.0
C158 C 0.90499 0.53829 0.05391 0.0
O159 O 0.87433 0.58984 0.09191 0.0
O160 O 0.88729 0.57591 0.16731 0.0
N161 N 0.99748 0.61278 0.10525 0.0
C162 C 0.01005 0.63862 0.08461 0.0
C163 C 0.03558 0.65781 0.10619 0.0
C164 C 0.04812 0.6501 0.14797 0.0
C165 C 0.03478 0.62336 0.16841 0.0
C166 C 0.00906 0.60534 0.14641 0.0
H167 H 1.00059 0.64453 0.0522 0.0
O168 O 0.93239 0.62552 0.13636 0.0
O169 O 0.94262 0.59312 0.1266 0.0
O170 O 0.92657 0.60694 0.01827 0.0
O171 O 0.96272 0.60113 0.01362 0.0
C172 C 0.04609 0.61381 0.20939 0.0
C173 C 0.03135 0.58668 0.22825 0.0
H174 H 0.9965 0.53324 0.25525 0.0
H175 H 0.95022 0.50534 0.21554 0.0
H176 H 0.04568 0.67842 0.09027 0.0
H177 H 0.06796 0.66486 0.16404 0.0
H178 H 0.06616 0.62712 0.2265 0.0
H179 H 0.04065 0.57954 0.25859 0.0
Mn180 Mn 0.32585 0.90862 0.27139 0.0
Mn181 Mn 0.38981 0.96199 0.26664 0.0
C182 C 0.33874 0.94593 0.32918 0.0
C183 C 0.29312 0.86731 0.31183 0.0
C184 C 0.34744 0.95287 0.17845 0.0
O185 O 0.34674 0.89169 0.23687 0.0
O186 O 0.38791 0.92948 0.23011 0.0
C187 C 0.41805 0.94125 0.33964 0.0
N188 N 0.4112 0.96054 0.32801 0.0
C189 C 0.44286 0.99076 0.39797 0.0
C190 C 0.45042 0.97132 0.41024 0.0
C191 C 0.43771 0.94633 0.38143 0.0
C192 C 0.42291 0.98442 0.3564 0.0
H193 H 0.40893 0.92233 0.31666 0.0
C194 C 0.37186 0.90391 0.22359 0.0
O195 O 0.28997 0.87447 0.261 0.0
O196 O 0.31554 0.88359 0.33784 0.0
N197 N 0.39498 0.99459 0.30196 0.0
C198 C 0.38377 0.01014 0.28846 0.0
C199 C 0.39269 0.03496 0.31668 0.0
C200 C 0.41337 0.04373 0.35779 0.0
C201 C 0.42446 0.02726 0.37124 0.0
C202 C 0.41423 1.00242 0.34276 0.0
H203 H 0.36778 0.00334 0.2573 0.0
O204 O 0.31346 0.93071 0.31481 0.0
O205 O 0.35583 0.9395 0.30782 0.0
O206 O 0.32889 0.92968 0.19643 0.0
O207 O 0.37042 0.96656 0.20259 0.0
C208 C 0.44523 0.03447 0.4118 0.0
C209 C 0.45456 0.01632 0.42479 0.0
H210 H 0.46596 0.97533 0.44163 0.0
H211 H 0.44342 0.9312 0.39066 0.0
H212 H 0.38377 0.04738 0.30654 0.0
H213 H 0.4204 0.063 0.37912 0.0
H214 H 0.45404 0.05384 0.43358 0.0
H215 H 0.47072 0.02224 0.45552 0.0
Mn216 Mn 0.68467 0.58814 0.40322 0.0
Mn217 Mn 0.62164 0.57999 0.40974 0.0
C218 C 0.67323 0.61473 0.34815 0.0
C219 C 0.71605 0.5784 0.36006 0.0
C220 C 0.66345 0.60723 0.50293 0.0
O221 O 0.66196 0.5496 0.43428 0.0
O222 O 0.62046 0.54602 0.43458 0.0
C223 C 0.59136 0.53687 0.32459 0.0
N224 N 0.60106 0.56286 0.34278 0.0
C225 C 0.57649 0.57111 0.26941 0.0
C226 C 0.56578 0.54424 0.25081 0.0
C227 C 0.57349 0.52716 0.27804 0.0
C228 C 0.59383 0.57949 0.31666 0.0
H229 H 0.59678 0.52347 0.34605 0.0
C230 C 0.63621 0.53615 0.44151 0.0
O231 O 0.71963 0.58783 0.41178 0.0
O232 O 0.69392 0.57375 0.33467 0.0
N233 N 0.62073 0.61153 0.38457 0.0
C234 C 0.63315 0.63693 0.40757 0.0
C235 C 0.62913 0.6571 0.38265 0.0
C236 C 0.61219 0.65087 0.33474 0.0
C237 C 0.59958 0.62457 0.31196 0.0
C238 C 0.60459 0.6054 0.33822 0.0
H239 H 0.64617 0.64182 0.44438 0.0
O240 O 0.69839 0.62365 0.36218 0.0
O241 O 0.65571 0.5914 0.3693 0.0
O242 O 0.68279 0.60526 0.48011 0.0
O243 O 0.64016 0.59797 0.48038 0.0
C244 C 0.58234 0.61664 0.26406 0.0
C245 C 0.57056 0.58985 0.24324 0.0
H246 H 0.55148 0.53638 0.21596 0.0
H247 H 0.56537 0.50645 0.26368 0.0
H248 H 0.639 0.67737 0.40041 0.0
H249 H 0.60908 0.66646 0.31569 0.0
H250 H 0.57795 0.63096 0.24297 0.0
H251 H 0.55712 0.58401 0.20691 0.0
Mn252 Mn 0.09909 0.67572 0.55439 0.0
Mn253 Mn 0.04608 0.61184 0.54443 0.0
C254 C 0.06242 0.66625 0.49645 0.0
C255 C 0.14085 0.70956 0.51754 0.0
C256 C 0.05624 0.64792 0.64775 0.0
O257 O 0.11517 0.65254 0.58202 0.0
O258 O 0.07903 0.61066 0.56707 0.0
C259 C 0.06152 0.58729 0.45116 0.0
N260 N 0.04441 0.59534 0.47254 0.0
C261 C 0.01255 0.57323 0.39621 0.0
C262 C 0.02955 0.56416 0.37425 0.0
C263 C 0.05429 0.57153 0.40134 0.0
C264 C 0.0206 0.58848 0.44652 0.0
H265 H 0.08022 0.59229 0.47265 0.0
C266 C 0.10388 0.62664 0.58071 0.0
O267 O 0.13369 0.71087 0.56963 0.0
O268 O 0.12443 0.68827 0.48856 0.0
N269 N 0.01343 0.61107 0.52119 0.0
C270 C 0.99934 0.62137 0.54823 0.0
C271 C 0.97505 0.61754 0.52423 0.0
C272 C 0.96533 0.60289 0.47315 0.0
C273 C 0.98014 0.59238 0.4463 0.0
C274 C 1.00443 0.59722 0.47174 0.0
H275 H 0.00663 0.63254 0.58763 0.0
O276 O 0.07782 0.69065 0.51577 0.0
O277 O 0.06847 0.6482 0.51316 0.0
O278 O 0.07711 0.66949 0.62957 0.0
O279 O 0.04478 0.62596 0.6193 0.0
C280 C 0.97177 0.57732 0.39529 0.0
C281 C 0.98779 0.56747 0.37068 0.0
H282 H 0.02372 0.55129 0.33698 0.0
H283 H 0.06753 0.56465 0.38445 0.0
H284 H 0.96377 0.62575 0.5452 0.0
H285 H 0.94651 0.59985 0.45491 0.0
H286 H 0.95298 0.57309 0.37476 0.0
H287 H 0.98086 0.55558 0.33205 0.0
Mn288 Mn 0.42571 0.09989 0.73272 0.0
Mn289 Mn 0.43718 0.04707 0.72885 0.0
C290 C 0.40103 0.06364 0.67234 0.0
C291 C 0.43411 0.14184 0.69597 0.0
C292 C 0.40432 0.05402 0.82194 0.0
O293 O 0.46371 0.1164 0.76657 0.0
O294 O 0.46829 0.07922 0.7646 0.0
C295 C 0.48464 0.06887 0.65135 0.0
N296 N 0.45883 0.04932 0.6645 0.0
C297 C 0.45916 0.01977 0.59147 0.0
C298 C 0.48584 0.0395 0.57748 0.0
C299 C 0.4985 0.06429 0.60709 0.0
C300 C 0.44625 0.02565 0.63539 0.0
H301 H 0.49476 0.08762 0.67498 0.0
C302 C 0.47732 0.10441 0.77498 0.0
O303 O 0.42385 0.13388 0.74663 0.0
O304 O 0.44032 0.12603 0.66834 0.0
N305 N 0.40916 0.01478 0.69381 0.0
C306 C 0.38268 0.99899 0.70925 0.0
C307 C 0.36639 0.97434 0.68071 0.0
C308 C 0.37765 0.96599 0.63732 0.0
C309 C 0.40491 0.98272 0.6219 0.0
C310 C 0.41989 0.00739 0.65077 0.0
H311 H 0.37398 0.00543 0.74235 0.0
O312 O 0.39109 0.07861 0.68926 0.0
O313 O 0.42475 0.06984 0.69227 0.0
O314 O 0.4077 0.07708 0.80604 0.0
O315 O 0.41457 0.04173 0.79561 0.0
C316 C 0.41783 0.97592 0.57905 0.0
C317 C 0.44498 0.99436 0.56416 0.0
H318 H 0.49681 0.03585 0.54417 0.0
H319 H 0.51908 0.07962 0.59655 0.0
H320 H 0.34528 0.96172 0.6924 0.0
H321 H 0.36512 0.94684 0.61577 0.0
H322 H 0.40701 0.95667 0.5569 0.0
H323 H 0.45474 0.98876 0.53165 0.0
Mn324 Mn 0.32491 0.41862 0.90133 0.0
Mn325 Mn 0.38994 0.43266 0.89102 0.0
C326 C 0.33693 0.39643 0.83511 0.0
C327 C 0.29025 0.4265 0.87073 0.0
C328 C 0.35197 0.39777 0.98513 0.0
O329 O 0.34571 0.45565 0.93981 0.0
O330 O 0.38839 0.46311 0.92884 0.0
C331 C 0.41354 0.48031 0.81413 0.0
N332 N 0.40778 0.45452 0.82591 0.0
C333 C 0.4349 0.4548 0.74693 0.0
C334 C 0.44138 0.48148 0.73434 0.0
C335 C 0.43041 0.49417 0.76771 0.0
C336 C 0.41795 0.442 0.79358 0.0
H337 H 0.40568 0.49038 0.84042 0.0
C338 C 0.37144 0.47042 0.94476 0.0
O339 O 0.28847 0.4145 0.91906 0.0
O340 O 0.3123 0.43465 0.84169 0.0
N341 N 0.39411 0.40502 0.85377 0.0
C342 C 0.3842 0.37861 0.86904 0.0
C343 C 0.39143 0.3623 0.83713 0.0
C344 C 0.40898 0.37337 0.79026 0.0
C345 C 0.41879 0.40056 0.77521 0.0
C346 C 0.41053 0.4157 0.80806 0.0
H347 H 0.3705 0.36995 0.90464 0.0
O348 O 0.31211 0.38542 0.85321 0.0
O349 O 0.35411 0.41977 0.8571 0.0
O350 O 0.33104 0.39924 0.97045 0.0
O351 O 0.3744 0.40993 0.95842 0.0
C352 C 0.43631 0.41321 0.72873 0.0
C353 C 0.44472 0.44044 0.71532 0.0
H354 H 0.45474 0.49245 0.69922 0.0
H355 H 0.43527 0.51474 0.7582 0.0
H356 H 0.38352 0.34125 0.84867 0.0
H357 H 0.41459 0.36076 0.76582 0.0
H358 H 0.44347 0.40221 0.70307 0.0
H359 H 0.45874 0.45013 0.68062 0.0
Mn360 Mn 0.90792 0.3282 0.06782 0.0
Mn361 Mn 0.96273 0.39123 0.06113 0.0
C362 C 0.9431 0.33749 0.00629 0.0
C363 C 0.86523 0.2957 0.03235 0.0
C364 C 0.95439 0.35152 0.15564 0.0
O365 O 0.89341 0.35141 0.10165 0.0
O366 O 0.93159 0.3924 0.09677 0.0
C367 C 0.94346 0.41911 0.98352 0.0
N368 N 0.96157 0.41081 -0.00398 0.0
C369 C 0.99124 0.43801 0.92028 0.0
C370 C 0.97309 0.44717 0.90721 0.0
C371 C 0.94894 0.4374 0.9385 0.0
C372 C 0.9847 0.41981 0.96561 0.0
H373 H 0.92523 0.41229 0.00837 0.0
C374 C 0.90636 0.37713 0.10848 0.0
O375 O 0.87313 0.29328 0.08301 0.0
O376 O 0.88144 0.3174 0.00428 0.0
N377 N 0.99395 0.393 0.02595 0.0
C378 C 0.00832 0.38077 0.04166 0.0
C379 C 0.0319 0.38649 0.0114 0.0
C380 C 0.04058 0.40489 0.96567 0.0
C381 C 0.02529 0.41701 0.94998 0.0
C382 C 1.00171 0.41015 0.98108 0.0
H383 H 1.00142 0.36622 0.07596 0.0
O384 O 0.92736 0.31293 0.02437 0.0
O385 O 0.93833 0.35608 0.02578 0.0
O386 O 0.93094 0.33228 0.14047 0.0
O387 O 0.96713 0.37381 0.12864 0.0
C388 C 0.03243 0.43552 0.90454 0.0
C389 C 0.0157 0.44642 0.89055 0.0
H390 H 0.97747 0.46171 0.87331 0.0
H391 H 0.93481 0.44433 0.9286 0.0
H392 H 0.04334 0.37672 0.02327 0.0
H393 H 0.05883 0.40934 0.94253 0.0
H394 H 0.05078 0.44161 0.88022 0.0
H395 H 0.02179 0.46119 0.8567 0.0
Mn396 Mn 0.58632 0.90948 0.23135 0.0
Mn397 Mn 0.57606 0.9629 0.22073 0.0
C398 C 0.61169 0.94448 0.16881 0.0
C399 C 0.57717 0.86688 0.19713 0.0
C400 C 0.60712 0.95614 0.31837 0.0
O401 O 0.54821 0.89428 0.2641 0.0
O402 O 0.54363 0.93134 0.2545 0.0
C403 C 0.53023 0.9428 0.13938 0.0
N404 N 0.55637 0.96117 0.15336 0.0
C405 C 0.56 0.98995 0.07471 0.0
C406 C 0.53294 0.9716 0.06023 0.0
C407 C 0.51812 0.94776 0.09224 0.0
C408 C 0.5709 0.98404 0.12241 0.0
H409 H 0.51849 0.92479 0.16468 0.0
C410 C 0.53446 0.90641 0.26789 0.0
O411 O 0.58728 0.87516 0.24784 0.0
O412 O 0.57137 0.88267 0.16832 0.0
N413 N 0.6058 0.99436 0.18695 0.0
C414 C 0.63196 0.00934 0.20526 0.0
C415 C 0.65017 0.0328 0.17514 0.0
C416 C 0.64124 0.04074 0.12684 0.0
C417 C 0.61427 0.02488 0.10862 0.0
C418 C 0.59718 1.00147 0.1398 0.0
H419 H 0.639 1.00315 0.2419 0.0
O420 O 0.62117 0.92946 0.18799 0.0
O421 O 0.58815 0.93913 0.1881 0.0
O422 O 0.60454 0.93325 0.30362 0.0
O423 O 0.59667 0.96777 0.29038 0.0
C424 C 0.6037 0.03129 0.06057 0.0
C425 C 0.57648 0.01403 0.0442 0.0
H426 H 0.52323 0.97569 0.02498 0.0
H427 H 0.49725 0.93348 0.08125 0.0
H428 H 0.67103 0.04475 0.18914 0.0
H429 H 0.65531 0.0589 0.1038 0.0
H430 H 0.61629 0.04945 0.03598 0.0
H431 H 0.56848 0.01948 0.00805 0.0
H432 H 0.31915 0.38192 0.08178 0.0
H433 H 0.41296 0.33274 0.2358 0.0
H434 H 0.38403 0.37556 0.00134 0.0
H435 H 0.3543 0.34602 0.32442 0.0
H436 H 0.39453 0.33774 0.14482 0.0
H437 H 0.32445 0.3595 0.16691 0.0
C438 C 0.33408 0.3754 0.08149 0.0
C439 C 0.35135 0.38101 0.03447 0.0
C440 C 0.3853 0.33903 0.18421 0.0
C441 C 0.35747 0.35533 0.13112 0.0
C442 C 0.39564 0.33582 0.23605 0.0
C443 C 0.38533 0.33927 0.28759 0.0
C444 C 0.36466 0.34592 0.18417 0.0
C445 C 0.36315 0.34371 0.28562 0.0
C446 C 0.33716 0.36267 0.13005 0.0
C447 C 0.37038 0.37205 0.03655 0.0
N448 N 0.35381 0.34731 0.23488 0.0
N449 N 0.37303 0.35994 0.08395 0.0
H450 H 1.00248 0.34631 0.49911 0.0
H451 H 0.00894 0.3773 0.17061 0.0
H452 H 0.07657 0.39662 0.40717 0.0
H453 H 0.93433 0.32019 0.25427 0.0
H454 H 0.03427 0.37796 0.25343 0.0
H455 H 0.97834 0.32981 0.40905 0.0
C456 C 0.01387 0.35335 0.4599 0.0
C457 C 0.04157 0.3731 0.46067 0.0
C458 C 0.01242 0.36494 0.25385 0.0
C459 C 0.01381 0.35467 0.35699 0.0
C460 C 0.99774 0.36446 0.20613 0.0
C461 C 0.96921 0.34871 0.20511 0.0
C462 C 0.9987 0.35013 0.30237 0.0
C463 C 0.95622 0.33269 0.25309 0.0
C464 C 0.99998 0.34393 0.40835 0.0
C465 C 0.05527 0.38132 0.40852 0.0
N466 N 0.97104 0.3342 0.3003 0.0
N467 N 0.04113 0.37247 0.35875 0.0
H468 H 0.6234 0.93847 0.41396 0.0
H469 H 0.67768 0.08237 0.56763 0.0
H470 H 0.62946 0.01023 0.33667 0.0
H471 H 0.6667 0.01109 0.65547 0.0
H472 H 0.67041 0.05836 0.47678 0.0
H473 H 0.64768 0.96615 0.49814 0.0
C474 C 0.6301 0.95994 0.41417 0.0
C475 C 0.62396 0.97179 0.36823 0.0
C476 C 0.67013 0.04809 0.51587 0.0
C477 C 0.65192 0.00356 0.46354 0.0
C478 C 0.67471 0.06201 0.56762 0.0
C479 C 0.67251 0.04861 0.61906 0.0
C480 C 0.66301 0.0205 0.51582 0.0
C481 C 0.66808 0.02199 0.61677 0.0
C482 C 0.64396 0.97575 0.46211 0.0
C483 C 0.63331 0.99986 0.37092 0.0
N484 N 0.663 0.00862 0.56617 0.0
N485 N 0.64654 0.01458 0.41754 0.0
H486 H 0.64871 0.5813 0.6037 0.0
H487 H 0.64546 0.69338 0.79648 0.0
H488 H 0.68109 0.66045 0.52794 0.0
H489 H 0.57679 0.61371 0.76594 0.0
H490 H 0.66912 0.68629 0.71508 0.0
H491 H 0.63542 0.59746 0.68774 0.0
C492 C 0.65425 0.60248 0.60608 0.0
C493 C 0.66643 0.6197 0.55945 0.0
C494 C 0.64871 0.67068 0.7261 0.0
C495 C 0.65037 0.63805 0.65429 0.0
C496 C 0.63509 0.67484 0.77182 0.0
C497 C 0.60914 0.65405 0.78815 0.0
C498 C 0.63638 0.64543 0.69808 0.0
C499 C 0.59685 0.63019 0.75532 0.0
C500 C 0.64625 0.61156 0.65349 0.0
C501 C 0.67221 0.64675 0.56371 0.0
N502 N 0.61071 0.62637 0.71282 0.0
N503 N 0.66382 0.65512 0.61014 0.0
H504 H 0.0604 0.69077 0.71422 0.0
H505 H 0.92848 0.58703 0.89084 0.0
H506 H 0.01865 0.60323 0.70389 0.0
H507 H 0.98879 0.66125 0.96978 0.0
H508 H 0.95508 0.6006 0.80272 0.0
H509 H 0.03023 0.68664 0.79462 0.0
C510 C 0.04525 0.67082 0.72896 0.0
C511 C 0.04207 0.64737 0.70168 0.0
C512 C 0.96214 0.61433 0.83882 0.0
C513 C 0.00703 0.64264 0.79106 0.0
C514 C 0.94666 0.60681 0.88868 0.0
C515 C 0.9564 0.6231 0.93736 0.0
C516 C 0.98764 0.63823 0.83782 0.0
C517 C 0.98062 0.64818 0.93288 0.0
C518 C 0.02789 0.66851 0.77425 0.0
C519 C 0.02186 0.62202 0.72255 0.0
N520 N 0.99574 0.65485 0.88422 0.0
N521 N 1.00509 0.62041 0.76516 0.0
H522 H 0.39353 0.0746 0.91993 0.0
H523 H 0.32731 0.92923 0.07398 0.0
H524 H 0.37645 0.99955 0.83889 0.0
H525 H 0.3602 0.00532 0.16377 0.0
H526 H 0.33331 0.95371 0.98383 0.0
H527 H 0.37044 0.04858 0.00646 0.0
C528 C 0.38449 0.05273 0.91978 0.0
C529 C 0.38726 0.03938 0.87214 0.0
C530 C 0.33866 0.96495 0.02353 0.0
C531 C 0.36073 0.00953 0.97024 0.0
C532 C 0.33496 0.9509 0.07494 0.0
C533 C 0.34355 0.96527 0.12636 0.0
C534 C 0.35097 0.9935 0.02385 0.0
C535 C 0.35364 0.99345 0.12511 0.0
C536 C 0.37138 0.03787 0.9691 0.0
C537 C 0.37511 0.01091 0.87445 0.0
N538 N 0.3574 0.00667 0.07478 0.0
N539 N 0.36264 0.99707 0.92252 0.0
H540 H 0.64028 0.50311 0.36458 0.0
H541 H 0.50942 0.36848 0.46407 0.0
H542 H 0.59865 0.50215 0.51885 0.0
H543 H 0.5063 0.41148 0.3155 0.0
H544 H 0.55658 0.40437 0.48015 0.0
H545 H 0.60498 0.45587 0.34617 0.0
C546 C 0.6246 0.49244 0.39626 0.0
C547 C 0.62246 0.50634 0.44369 0.0
C548 C 0.54587 0.40517 0.44263 0.0
C549 C 0.5825 0.45267 0.42302 0.0
C550 C 0.51914 0.38461 0.43293 0.0
C551 C 0.50402 0.38702 0.38818 0.0
C552 C 0.5577 0.42765 0.40618 0.0
C553 C 0.51734 0.40883 0.3502 0.0
C554 C 0.60439 0.46569 0.3853 0.0
C555 C 0.60116 0.49197 0.48229 0.0
N556 N 0.5434 0.42853 0.3604 0.0
N557 N 0.58181 0.4659 0.47087 0.0
H558 H 0.14279 0.5 0.6203 0.0
H559 H 0.13541 0.62595 0.49628 0.0
H560 H 0.09517 0.49319 0.47165 0.0
H561 H 0.10736 0.59567 0.6657 0.0
H562 H 0.14686 0.59005 0.48213 0.0
H563 H 0.15574 0.54803 0.62865 0.0
C564 C 0.13636 0.509 0.58749 0.0
C565 C 0.118 0.49273 0.54498 0.0
C566 C 0.13944 0.59216 0.52328 0.0
C567 C 0.13291 0.54733 0.55416 0.0
C568 C 0.1332 0.61274 0.53168 0.0
C569 C 0.1208 0.61387 0.58253 0.0
C570 C 0.13384 0.57315 0.56663 0.0
C571 C 0.11731 0.59567 0.62633 0.0
C572 C 0.1435 0.53624 0.59279 0.0
C573 C 0.10952 0.50515 0.50468 0.0
N574 N 0.12358 0.57581 0.61722 0.0
N575 N 0.11685 0.53173 0.51054 0.0
H576 H 0.51205 0.14657 0.70917 0.0
H577 H 0.59927 0.09631 0.64796 0.0
H578 H 0.50955 0.0968 0.85023 0.0
H579 H 0.64285 0.14277 0.79579 0.0
H580 H 0.5651 0.10999 0.66388 0.0
H581 H 0.55904 0.15797 0.6899 0.0
C582 C 0.52193 0.13943 0.7383 0.0
C583 C 0.50699 0.12077 0.78152 0.0
C584 C 0.58279 0.11806 0.69131 0.0
C585 C 0.56035 0.13377 0.75974 0.0
C586 C 0.6023 0.1104 0.68209 0.0
C587 C 0.62406 0.11874 0.72014 0.0
C588 C 0.58463 0.13327 0.73997 0.0
C589 C 0.62662 0.13634 0.76489 0.0
C590 C 0.54855 0.14566 0.7267 0.0
C591 C 0.52047 0.11138 0.81681 0.0
N592 N 0.60653 0.14219 0.77496 0.0
N593 N 0.54634 0.11769 0.80466 0.0
H594 H 0.49924 0.63176 0.00547 0.0
H595 H 0.36543 0.50629 0.88049 0.0
H596 H 0.49378 0.60368 0.83275 0.0
H597 H 0.40674 0.50055 0.02927 0.0
H598 H 0.39931 0.55477 0.87318 0.0
H599 H 0.45181 0.59645 0.02109 0.0
C600 C 0.48752 0.61923 0.96982 0.0
C601 C 0.50018 0.6207 0.91755 0.0
C602 C 0.40008 0.54311 0.90895 0.0
C603 C 0.44634 0.58062 0.93512 0.0
C604 C 0.38066 0.51561 0.91362 0.0
C605 C 0.38329 0.49959 0.95585 0.0
C606 C 0.42167 0.55463 0.94781 0.0
C607 C 0.40393 0.51236 -0.00346 0.0
C608 C 0.46065 0.59898 0.97902 0.0
C609 C 0.48453 0.60338 0.87332 0.0
N610 N 0.42256 0.53916 0.99121 0.0
N611 N 0.4584 0.58377 0.88327 0.0
H612 H 0.91516 0.4169 0.185 0.0
H613 H 0.90753 0.50413 0.97542 0.0
H614 H 0.86518 0.37177 0.04228 0.0
H615 H 0.86931 0.50546 0.13311 0.0
H616 H 0.89504 0.45684 0.9948 0.0
H617 H 0.90173 0.45132 0.16997 0.0
C618 C 0.90035 0.41363 0.15231 0.0
C619 C 0.89091 0.39135 0.11537 0.0
C620 C 0.88843 0.4672 0.0239 0.0
C621 C 0.87686 0.43112 0.09603 0.0
C622 C 0.89538 0.49402 0.01267 0.0
C623 C 0.88904 0.50846 0.05229 0.0
C624 C 0.87621 0.45534 0.07613 0.0
C625 C 0.87406 0.49477 0.10103 0.0
C626 C 0.89286 0.43328 0.1435 0.0
C627 C 0.87245 0.38844 0.07231 0.0
N628 N 0.86904 0.46924 0.11276 0.0
N629 N 0.86681 0.40867 0.06234 0.0
H630 H 0.40938 0.91078 0.14295 0.0
H631 H 0.50018 0.86397 0.20221 0.0
H632 H 0.36744 0.86333 0.29085 0.0
H633 H 0.50178 0.9145 0.34082 0.0
H634 H 0.45267 0.85099 0.18332 0.0
H635 H 0.44442 0.89814 0.1566 0.0
C636 C 0.40684 0.89658 0.17646 0.0
C637 C 0.38539 0.88783 0.21545 0.0
C638 C 0.46313 0.86386 0.21951 0.0
C639 C 0.42586 0.87456 0.23286 0.0
C640 C 0.49004 0.87102 0.23084 0.0
C641 C 0.50476 0.89015 0.27349 0.0
C642 C 0.45086 0.87537 0.25219 0.0
C643 C 0.49101 0.8995 0.30801 0.0
C644 C 0.42688 0.88956 0.18448 0.0
C645 C 0.38345 0.8701 0.25932 0.0
N646 N 0.46484 0.89224 0.2962 0.0
N647 N 0.4041 0.86496 0.26839 0.0
H648 H 0.3661 0.42698 0.74585 0.0
H649 H 0.34354 0.31644 0.52182 0.0
H650 H 0.3191 0.34397 0.80225 0.0
H651 H 0.42444 0.37566 0.57526 0.0
H652 H 0.32531 0.32881 0.60519 0.0
H653 H 0.37864 0.4115 0.65976 0.0
C654 C 0.35866 0.4055 0.74018 0.0
C655 C 0.34295 0.38676 0.78224 0.0
C656 C 0.347 0.33915 0.59779 0.0
C657 C 0.35542 0.36899 0.68271 0.0
C658 C 0.35734 0.33225 0.55058 0.0
C659 C 0.38539 0.34605 0.54053 0.0
C660 C 0.36498 0.36 0.6341 0.0
C661 C 0.40261 0.36571 0.57978 0.0
C662 C 0.36546 0.39674 0.6909 0.0
C663 C 0.3321 0.359 0.77131 0.0
N664 N 0.39211 0.37248 0.62438 0.0
N665 N 0.33875 0.35081 0.72239 0.0
H666 H 0.97411 0.31466 0.97974 0.0
H667 H 0.02808 0.33654 0.6958 0.0
H668 H 0.94786 0.36884 0.91562 0.0
H669 H 0.0546 0.41876 0.74785 0.0
H670 H 0.9985 0.32009 0.78076 0.0
H671 H 1.0024 0.32383 0.89365 0.0
C672 C 0.97445 0.32853 0.94765 0.0
C673 C 0.95982 0.34209 0.9555 0.0
C674 C 0.01083 0.34169 0.77305 0.0
C675 C 0.99129 0.3522 0.85839 0.0
C676 C 0.02745 0.35102 0.72487 0.0
C677 C 0.04268 0.37894 0.71394 0.0
C678 C 0.00969 0.36058 0.80969 0.0
C679 C 0.04201 0.39706 0.7534 0.0
C680 C 0.99033 0.33357 0.89882 0.0
C681 C 0.96007 0.35919 0.9123 0.0
N682 N 0.02529 0.38755 0.79909 0.0
N683 N 0.97611 0.36428 0.86599 0.0
H684 H 0.58273 0.94368 0.07748 0.0
H685 H 0.69534 0.0298 0.85624 0.0
H686 H 0.66497 0.97789 0.13819 0.0
H687 H 0.63587 0.05169 0.90647 0.0
H688 H 0.68273 0.99967 0.94056 0.0
H689 H 0.59965 0.97132 0.99145 0.0
C690 C 0.60437 0.9572 0.07268 0.0
C691 C 0.62248 0.95985 0.11592 0.0
C692 C 0.67244 0.01102 0.93231 0.0
C693 C 0.64185 0.98975 0.0164 0.0
C694 C 0.67946 0.02795 0.88453 0.0
C695 C 0.66561 0.04207 0.87325 0.0
C696 C 0.65147 0.00836 0.96792 0.0
C697 C 0.64587 0.0399 0.9119 0.0
C698 C 0.61394 0.97254 0.0234 0.0
C699 C 0.65044 0.97616 0.10623 0.0
N700 N 0.63901 0.02294 0.95701 0.0
N701 N 0.65944 0.9909 0.05725 0.0
H702 H 0.66526 0.68535 0.0215 0.0
H703 H 0.64214 0.58361 0.26196 0.0
H704 H 0.58468 0.63532 0.08899 0.0
H705 H 0.69176 0.66733 0.31207 0.0
H706 H 0.62917 0.59813 0.17555 0.0
H707 H 0.68388 0.67557 0.10805 0.0
C708 C 0.65156 0.67201 0.054 0.0
C709 C 0.62337 0.65992 0.04707 0.0
C710 C 0.64304 0.61328 0.20528 0.0
C711 C 0.64424 0.64918 0.1447 0.0
C712 C 0.6501 0.60509 0.25492 0.0
C713 C 0.66681 0.62432 0.29541 0.0
C714 C 0.65378 0.64092 0.19469 0.0
C715 C 0.67809 0.65196 0.28245 0.0
C716 C 0.66214 0.66669 0.10315 0.0
C717 C 0.60641 0.64363 0.09109 0.0
N718 N 0.6712 0.65959 0.23289 0.0
N719 N 0.61706 0.63829 0.1376 0.0
H720 H 0.06413 0.64039 0.40211 0.0
H721 H 0.98093 0.66983 0.18146 0.0
H722 H 0.02725 0.68473 0.47003 0.0
H723 H 0.95586 0.58742 0.22939 0.0
H724 H 0.0097 0.68574 0.26815 0.0
H725 H 0.03686 0.63097 0.31587 0.0
C726 C 0.05007 0.64794 0.39891 0.0
C727 C 0.04666 0.66202 0.44413 0.0
C728 C 0.99794 0.66424 0.25888 0.0
C729 C 0.01727 0.65317 0.34414 0.0
C730 C 0.98182 0.65522 0.20969 0.0
C731 C 0.96719 0.6274 0.19709 0.0
C732 C 0.99925 0.64517 0.29463 0.0
C733 C 0.96811 0.6091 0.23575 0.0
C734 C 0.03497 0.64296 0.34945 0.0
C735 C 0.02962 0.673 0.43648 0.0
N736 N 0.98429 0.61833 0.28224 0.0
N737 N 0.01519 0.66814 0.38717 0.0
H738 H 0.37243 0.94935 0.41308 0.0
H739 H 0.42996 0.06132 0.58414 0.0
H740 H 0.31928 0.97939 0.3632 0.0
H741 H 0.34769 0.03013 0.64197 0.0
H742 H 0.41286 0.03221 0.50042 0.0
H743 H 0.38659 0.97921 0.49565 0.0
C744 C 0.36402 0.96255 0.41928 0.0
C745 C 0.34587 0.96318 0.37995 0.0
C746 C 0.3986 0.03182 0.53134 0.0
C747 C 0.36068 0.9959 0.47614 0.0
C748 C 0.40828 0.04802 0.57941 0.0
C749 C 0.39019 0.04682 0.62117 0.0
C750 C 0.37063 0.01496 0.52405 0.0
C751 C 0.3622 0.03077 0.61122 0.0
C752 C 0.37181 0.9792 0.46674 0.0
C753 C 0.33405 0.97916 0.39197 0.0
N754 N 0.3531 0.0151 0.56342 0.0
N755 N 0.34181 0.99521 0.43933 0.0
H756 H 0.43193 0.24987 0.44063 0.0
H757 H 0.42659 0.18225 0.74245 0.0
H758 H 0.43961 0.29145 0.59947 0.0
H759 H 0.44732 0.15741 0.5853 0.0
H760 H 0.42832 0.22096 0.69171 0.0
H761 H 0.43441 0.21402 0.49341 0.0
C762 C 0.43428 0.25153 0.48657 0.0
C763 C 0.43562 0.27372 0.51562 0.0
C764 C 0.43267 0.20709 0.66859 0.0
C765 C 0.43807 0.23254 0.57652 0.0
C766 C 0.43167 0.18502 0.69751 0.0
C767 C 0.4368 0.16653 0.66816 0.0
C768 C 0.43841 0.21041 0.60978 0.0
C769 C 0.44324 0.1711 0.60982 0.0
C770 C 0.43573 0.23108 0.51671 0.0
C771 C 0.43862 0.27477 0.57528 0.0
N772 N 0.44362 0.19237 0.58256 0.0
N773 N 0.43951 0.25437 0.60381 0.0
H774 H 0.2921 0.46977 0.81667 0.0
H775 H 0.1582 0.38714 0.64466 0.0
H776 H 0.23713 0.38681 0.86477 0.0
H777 H 0.17334 0.46288 0.71853 0.0
H778 H 0.19447 0.38875 0.70482 0.0
H779 H 0.25522 0.4701 0.76214 0.0
C780 C 0.27213 0.4518 0.81643 0.0
C781 C 0.26741 0.42835 0.84581 0.0
C782 C 0.18989 0.40506 0.70734 0.0
C783 C 0.22593 0.42821 0.78161 0.0
C784 C 0.16951 0.40433 0.67272 0.0
C785 C 0.16293 0.42498 0.67657 0.0
C786 C 0.20428 0.42698 0.74462 0.0
C787 C 0.17788 0.4466 0.71433 0.0
C788 C 0.25126 0.45199 0.78527 0.0
C789 C 0.24137 0.40542 0.84347 0.0
N790 N 0.19812 0.44723 0.74654 0.0
N791 N 0.22168 0.40572 0.81094 0.0
H792 H 0.82509 0.24742 0.07811 0.0
H793 H 0.76031 0.18525 0.77466 0.0
H794 H 0.84931 0.29395 0.92215 0.0
H795 H 0.71796 0.15006 0.93208 0.0
H796 H 0.79494 0.22406 0.82858 0.0
H797 H 0.78702 0.2102 0.02643 0.0
C798 C 0.82227 0.24993 0.03328 0.0
C799 C 0.84046 0.27385 0.00449 0.0
C800 C 0.77797 0.20792 0.8513 0.0
C801 C 0.79737 0.23128 0.94501 0.0
C802 C 0.75823 0.18575 0.82051 0.0
C803 C 0.7362 0.16441 0.84885 0.0
C804 C 0.77594 0.20858 0.91102 0.0
C805 C 0.73456 0.16613 0.90844 0.0
C806 C 0.80058 0.2287 0.00381 0.0
C807 C 0.83585 0.27593 0.94624 0.0
N808 N 0.75428 0.18769 0.93761 0.0
N809 N 0.815 0.25489 0.91842 0.0
H810 H 0.58509 0.82692 0.24491 0.0
H811 H 0.57955 0.75771 0.94449 0.0
H812 H 0.56385 0.85064 0.08689 0.0
H813 H 0.57277 0.71746 0.10472 0.0
H814 H 0.57744 0.79406 -0.00369 0.0
H815 H 0.5839 0.78827 0.19501 0.0
C816 C 0.57999 0.82391 0.19998 0.0
C817 C 0.57456 0.84206 0.17014 0.0
C818 C 0.57629 0.77719 0.0201 0.0
C819 C 0.57363 0.7983 0.11268 0.0
C820 C 0.57755 0.75648 0.99051 0.0
C821 C 0.57627 0.73449 0.02024 0.0
C822 C 0.57417 0.77614 0.07997 0.0
C823 C 0.5737 0.73398 0.07999 0.0
C824 C 0.57933 0.80189 0.17151 0.0
C825 C 0.56814 0.83719 0.1118 0.0
N826 N 0.57293 0.75456 0.1079 0.0
N827 N 0.56809 0.816 0.085 0.0
H828 H 0.71669 0.5669 0.24722 0.0
H829 H 0.85939 0.57121 0.25808 0.0
H830 H 0.76326 0.58261 0.4021 0.0
H831 H 0.82471 0.58175 0.10315 0.0
H832 H 0.82108 0.56821 0.31185 0.0
H833 H 0.75275 0.56497 0.19465 0.0
C834 C 0.73439 0.5697 0.27036 0.0
C835 C 0.73697 0.57502 0.32925 0.0
C836 C 0.82181 0.57106 0.26607 0.0
C837 C 0.77843 0.57282 0.26899 0.0
C838 C 0.8436 0.57266 0.23525 0.0
C839 C 0.84531 0.57681 0.17595 0.0
C840 C 0.80135 0.5733 0.23738 0.0
C841 C 0.82428 0.57863 0.14878 0.0
C842 C 0.75504 0.56872 0.24017 0.0
C843 C 0.76045 0.57853 0.35676 0.0
N844 N 0.80318 0.57684 0.17967 0.0
N845 N 0.78028 0.57738 0.32641 0.0
H846 H 0.18254 0.75603 0.56604 0.0
H847 H 0.2468 0.82493 0.26583 0.0
H848 H 0.15434 0.71442 0.40499 0.0
H849 H 0.29036 0.85399 0.42457 0.0
H850 H 0.21081 0.78579 0.31675 0.0
H851 H 0.22069 0.79382 0.51591 0.0
C852 C 0.18445 0.75475 0.52033 0.0
C853 C 0.16521 0.73199 0.48977 0.0
C854 C 0.22833 0.80067 0.34035 0.0
C855 C 0.20845 0.77524 0.4321 0.0
C856 C 0.24885 0.82302 0.31128 0.0
C857 C 0.27166 0.84273 0.34089 0.0
C858 C 0.23041 0.79822 0.39963 0.0
C859 C 0.2732 0.83923 0.39992 0.0
C860 C 0.2062 0.77629 0.49174 0.0
C861 C 0.16868 0.73148 0.43045 0.0
N862 N 0.2528 0.81756 0.42739 0.0
N863 N 0.18967 0.75281 0.4036 0.0
loop_
_geom_bond_atom_site_label_1
_geom_bond_atom_site_label_2
_geom_bond_distance
_geom_bond_site_symmetry_2
_ccdc_geom_bond_type
Mn0 O5 2.095 . S
Mn0 O15 2.162 . S
Mn0 O16 2.297 . S
Mn0 O24 2.385 . S
Mn0 O25 2.209 . S
Mn0 O26 2.094 . S
Mn1 O6 2.121 . S
Mn1 N8 2.257 . S
Mn1 N17 2.282 . S
Mn1 O25 2.215 . S
Mn1 O27 2.117 . S
C2 O24 1.234 . S
C2 O25 1.283 . S
C3 O15 1.281 . S
C3 O16 1.236 . S
C4 O26 1.240 . S
C4 O27 1.264 . S
O5 Mn0 2.095 . S
O5 C14 1.250 . S
O6 Mn1 2.121 . S
O6 C14 1.258 . S
C7 N8 1.326 . S
C7 C11 1.460 . S
C7 H13 0.929 . S
N8 Mn1 2.257 . S
N8 C7 1.326 . S
N8 C12 1.362 . S
C9 C10 1.258 . S
C9 C12 1.431 . S
C9 C29 1.449 . S
C10 C9 1.258 . S
C10 C11 1.477 . S
C10 H30 0.931 . S
C11 C7 1.460 . S
C11 C10 1.477 . S
C11 H31 0.930 . S
C12 N8 1.362 . S
C12 C9 1.431 . S
C12 C22 1.476 . S
H13 C7 0.929 . S
C14 O5 1.250 . S
C14 O6 1.258 . S
O15 Mn0 2.162 . S
O15 C3 1.281 . S
O16 Mn0 2.297 . S
O16 C3 1.236 . S
N17 Mn1 2.282 . S
N17 C18 1.328 . S
N17 C22 1.318 . S
C18 N17 1.328 . S
C18 C19 1.457 . S
C18 H23 0.929 . S
C19 C18 1.457 . S
C19 C20 1.291 . S
C19 H32 0.931 . S
C20 C19 1.291 . S
C20 C21 1.373 . S
C20 H33 0.929 . S
C21 C20 1.373 . S
C21 C22 1.396 . S
C21 C28 1.403 . S
C22 C12 1.476 . S
C22 N17 1.318 . S
C22 C21 1.396 . S
H23 C18 0.929 . S
O24 Mn0 2.385 . S
O24 C2 1.234 . S
O25 Mn0 2.209 . S
O25 Mn1 2.215 . S
O25 C2 1.283 . S
O26 Mn0 2.094 . S
O26 C4 1.240 . S
O27 Mn1 2.117 . S
O27 C4 1.264 . S
C28 C21 1.403 . S
C28 C29 1.399 . S
C28 H34 0.929 . S
C29 C9 1.449 . S
C29 C28 1.399 . S
C29 H35 0.930 . S
H30 C10 0.931 . S
H31 C11 0.930 . S
H32 C19 0.931 . S
H33 C20 0.929 . S
H34 C28 0.929 . S
H35 C29 0.930 . S
Mn36 O41 2.095 . S
Mn36 O51 2.162 . S
Mn36 O52 2.297 . S
Mn36 O60 2.385 . S
Mn36 O61 2.209 . S
Mn36 O62 2.094 . S
Mn37 O42 2.121 . S
Mn37 N44 2.257 . S
Mn37 N53 2.282 . S
Mn37 O61 2.215 . S
Mn37 O63 2.117 . S
C38 O60 1.234 . S
C38 O61 1.283 . S
C39 O51 1.281 . S
C39 O52 1.236 . S
C40 O62 1.240 . S
C40 O63 1.264 . S
O41 Mn36 2.095 . S
O41 C50 1.250 . S
O42 Mn37 2.121 . S
O42 C50 1.258 . S
C43 N44 1.326 . S
C43 C47 1.460 . S
C43 H49 0.929 . S
N44 Mn37 2.257 . S
N44 C43 1.326 . S
N44 C48 1.362 . S
C45 C46 1.258 . S
C45 C48 1.431 1_655 S
C45 C65 1.449 . S
C46 C45 1.258 . S
C46 C47 1.477 1_655 S
C46 H66 0.931 . S
C47 C43 1.460 . S
C47 C46 1.477 1_455 S
C47 H67 0.930 . S
C48 N44 1.362 . S
C48 C45 1.431 1_455 S
C48 C58 1.476 1_455 S
H49 C43 0.929 . S
C50 O41 1.250 . S
C50 O42 1.258 . S
O51 Mn36 2.162 . S
O51 C39 1.281 . S
O52 Mn36 2.297 . S
O52 C39 1.236 . S
N53 Mn37 2.282 . S
N53 C54 1.328 1_455 S
N53 C58 1.318 1_455 S
C54 N53 1.328 1_655 S
C54 C55 1.457 . S
C54 H59 0.929 1_655 S
C55 C54 1.457 . S
C55 C56 1.291 . S
C55 H68 0.931 . S
C56 C55 1.291 . S
C56 C57 1.373 . S
C56 H69 0.929 . S
C57 C56 1.373 . S
C57 C58 1.396 . S
C57 C64 1.403 . S
C58 C48 1.476 1_655 S
C58 N53 1.318 1_655 S
C58 C57 1.396 . S
H59 C54 0.929 1_455 S
O60 Mn36 2.385 . S
O60 C38 1.234 . S
O61 Mn36 2.209 . S
O61 Mn37 2.215 . S
O61 C38 1.283 . S
O62 Mn36 2.094 . S
O62 C40 1.240 . S
O63 Mn37 2.117 . S
O63 C40 1.264 . S
C64 C57 1.403 . S
C64 C65 1.399 . S
C64 H70 0.929 . S
C65 C45 1.449 . S
C65 C64 1.399 . S
C65 H71 0.930 . S
H66 C46 0.931 . S
H67 C47 0.930 . S
H68 C55 0.931 . S
H69 C56 0.929 . S
H70 C64 0.929 . S
H71 C65 0.930 . S
Mn72 O77 2.095 . S
Mn72 O87 2.162 . S
Mn72 O88 2.297 . S
Mn72 O96 2.385 . S
Mn72 O97 2.209 . S
Mn72 O98 2.094 . S
Mn73 O78 2.121 . S
Mn73 N80 2.257 . S
Mn73 N89 2.282 . S
Mn73 O97 2.215 . S
Mn73 O99 2.117 . S
C74 O96 1.234 . S
C74 O97 1.283 . S
C75 O87 1.281 . S
C75 O88 1.236 . S
C76 O98 1.240 . S
C76 O99 1.264 . S
O77 Mn72 2.095 . S
O77 C86 1.250 . S
O78 Mn73 2.121 . S
O78 C86 1.258 . S
C79 N80 1.326 . S
C79 C83 1.460 . S
C79 H85 0.929 . S
N80 Mn73 2.257 . S
N80 C79 1.326 . S
N80 C84 1.362 . S
C81 C82 1.258 . S
C81 C84 1.431 1_565 S
C81 C101 1.449 . S
C82 C81 1.258 . S
C82 C83 1.477 1_565 S
C82 H102 0.931 . S
C83 C79 1.460 . S
C83 C82 1.477 1_545 S
C83 H103 0.930 . S
C84 N80 1.362 . S
C84 C81 1.431 1_545 S
C84 C94 1.476 1_545 S
H85 C79 0.929 . S
C86 O77 1.250 . S
C86 O78 1.258 . S
O87 Mn72 2.162 . S
O87 C75 1.281 . S
O88 Mn72 2.297 . S
O88 C75 1.236 . S
N89 Mn73 2.282 . S
N89 C90 1.328 1_545 S
N89 C94 1.318 1_545 S
C90 N89 1.328 1_565 S
C90 C91 1.457 . S
C90 H95 0.929 1_565 S
C91 C90 1.457 . S
C91 C92 1.291 . S
C91 H104 0.931 . S
C92 C91 1.291 . S
C92 C93 1.373 . S
C92 H105 0.929 . S
C93 C92 1.373 . S
C93 C94 1.396 . S
C93 C100 1.403 . S
C94 C84 1.476 1_565 S
C94 N89 1.318 1_565 S
C94 C93 1.396 . S
H95 C90 0.929 1_545 S
O96 Mn72 2.385 . S
O96 C74 1.234 . S
O97 Mn72 2.209 . S
O97 Mn73 2.215 . S
O97 C74 1.283 . S
O98 Mn72 2.094 . S
O98 C76 1.240 . S
O99 Mn73 2.117 . S
O99 C76 1.264 . S
C100 C93 1.403 . S
C100 C101 1.399 . S
C100 H106 0.929 . S
C101 C81 1.449 . S
C101 C100 1.399 . S
C101 H107 0.930 . S
H102 C82 0.931 . S
H103 C83 0.930 . S
H104 C91 0.931 . S
H105 C92 0.929 . S
H106 C100 0.929 . S
H107 C101 0.930 . S
Mn108 O113 2.095 . S
Mn108 O123 2.162 . S
Mn108 O124 2.292 1_556 S
Mn108 O132 2.385 . S
Mn108 O133 2.209 . S
Mn108 O134 2.094 . S
Mn109 O114 2.121 . S
Mn109 N116 2.257 1_556 S
Mn109 N125 2.282 . S
Mn109 O133 2.215 . S
Mn109 O135 2.117 . S
C110 O132 1.234 1_554 S
C110 O133 1.283 1_554 S
C111 O123 1.281 . S
C111 O124 1.232 1_556 S
C112 O134 1.240 . S
C112 O135 1.264 . S
O113 Mn108 2.095 . S
O113 C122 1.250 . S
O114 Mn109 2.121 . S
O114 C122 1.258 . S
C115 N116 1.326 . S
C115 C119 1.460 . S
C115 H121 0.929 . S
N116 Mn109 2.257 1_554 S
N116 C115 1.326 . S
N116 C120 1.362 . S
C117 C118 1.258 . S
C117 C120 1.431 . S
C117 C137 1.449 . S
C118 C117 1.258 . S
C118 C119 1.477 . S
C118 H138 0.931 . S
C119 C115 1.460 . S
C119 C118 1.477 . S
C119 H139 0.930 . S
C120 N116 1.362 . S
C120 C117 1.431 . S
C120 C130 1.479 . S
H121 C115 0.929 . S
C122 O113 1.250 . S
C122 O114 1.258 . S
O123 Mn108 2.162 . S
O123 C111 1.281 . S
O124 Mn108 2.292 1_554 S
O124 C111 1.232 1_554 S
N125 Mn109 2.282 . S
N125 C126 1.328 . S
N125 C130 1.311 1_556 S
C126 N125 1.328 . S
C126 C127 1.457 . S
C126 H131 0.929 . S
C127 C126 1.457 . S
C127 C128 1.291 . S
C127 H140 0.931 . S
C128 C127 1.291 . S
C128 C129 1.373 1_556 S
C128 H141 0.929 1_556 S
C129 C128 1.373 1_554 S
C129 C130 1.399 . S
C129 C136 1.403 . S
C130 C120 1.479 . S
C130 N125 1.311 1_554 S
C130 C129 1.399 . S
H131 C126 0.929 . S
O132 Mn108 2.385 . S
O132 C110 1.234 1_556 S
O133 Mn108 2.209 . S
O133 Mn109 2.215 . S
O133 C110 1.283 1_556 S
O134 Mn108 2.094 . S
O134 C112 1.240 . S
O135 Mn109 2.117 . S
O135 C112 1.264 . S
C136 C129 1.403 . S
C136 C137 1.399 . S
C136 H142 0.929 . S
C137 C117 1.449 . S
C137 C136 1.399 . S
C137 H143 0.930 . S
H138 C118 0.931 . S
H139 C119 0.930 . S
H140 C127 0.931 . S
H141 C128 0.929 1_554 S
H142 C136 0.929 . S
H143 C137 0.930 . S
Mn144 O149 2.095 . S
Mn144 O159 2.162 . S
Mn144 O160 2.297 . S
Mn144 O168 2.385 . S
Mn144 O169 2.209 . S
Mn144 O170 2.094 . S
Mn145 O150 2.121 . S
Mn145 N152 2.257 . S
Mn145 N161 2.282 . S
Mn145 O169 2.215 . S
Mn145 O171 2.117 . S
C146 O168 1.234 . S
C146 O169 1.283 . S
C147 O159 1.281 . S
C147 O160 1.236 . S
C148 O170 1.235 1_556 S
C148 O171 1.256 1_556 S
O149 Mn144 2.095 . S
O149 C158 1.250 . S
O150 Mn145 2.121 . S
O150 C158 1.258 . S
C151 N152 1.326 . S
C151 C155 1.460 . S
C151 H157 0.929 . S
N152 Mn145 2.257 . S
N152 C151 1.326 . S
N152 C156 1.362 . S
C153 C154 1.258 . S
C153 C156 1.431 1_455 S
C153 C173 1.449 . S
C154 C153 1.258 . S
C154 C155 1.477 1_455 S
C154 H174 0.931 . S
C155 C151 1.460 . S
C155 C154 1.477 1_655 S
C155 H175 0.930 . S
C156 N152 1.362 . S
C156 C153 1.431 1_655 S
C156 C166 1.476 1_655 S
H157 C151 0.929 . S
C158 O149 1.250 . S
C158 O150 1.258 . S
O159 Mn144 2.162 . S
O159 C147 1.281 . S
O160 Mn144 2.297 . S
O160 C147 1.236 . S
N161 Mn145 2.282 . S
N161 C162 1.328 1_655 S
N161 C166 1.318 1_655 S
C162 N161 1.328 1_455 S
C162 C163 1.457 . S
C162 H167 0.929 1_455 S
C163 C162 1.457 . S
C163 C164 1.291 . S
C163 H176 0.931 . S
C164 C163 1.291 . S
C164 C165 1.373 . S
C164 H177 0.929 . S
C165 C164 1.373 . S
C165 C166 1.396 . S
C165 C172 1.403 . S
C166 C156 1.476 1_455 S
C166 N161 1.318 1_455 S
C166 C165 1.396 . S
H167 C162 0.929 1_655 S
O168 Mn144 2.385 . S
O168 C146 1.234 . S
O169 Mn144 2.209 . S
O169 Mn145 2.215 . S
O169 C146 1.283 . S
O170 Mn144 2.094 . S
O170 C148 1.235 1_554 S
O171 Mn145 2.117 . S
O171 C148 1.256 1_554 S
C172 C165 1.403 . S
C172 C173 1.399 . S
C172 H178 0.929 . S
C173 C153 1.449 . S
C173 C172 1.399 . S
C173 H179 0.930 . S
H174 C154 0.931 . S
H175 C155 0.930 . S
H176 C163 0.931 . S
H177 C164 0.929 . S
H178 C172 0.929 . S
H179 C173 0.930 . S
Mn180 O185 2.095 . S
Mn180 O195 2.162 . S
Mn180 O196 2.297 . S
Mn180 O204 2.385 . S
Mn180 O205 2.209 . S
Mn180 O206 2.094 . S
Mn181 O186 2.121 . S
Mn181 N188 2.257 . S
Mn181 N197 2.282 . S
Mn181 O205 2.215 . S
Mn181 O207 2.117 . S
C182 O204 1.234 . S
C182 O205 1.283 . S
C183 O195 1.281 . S
C183 O196 1.236 . S
C184 O206 1.240 . S
C184 O207 1.264 . S
O185 Mn180 2.095 . S
O185 C194 1.250 . S
O186 Mn181 2.121 . S
O186 C194 1.258 . S
C187 N188 1.326 . S
C187 C191 1.460 . S
C187 H193 0.929 . S
N188 Mn181 2.257 . S
N188 C187 1.326 . S
N188 C192 1.362 . S
C189 C190 1.258 . S
C189 C192 1.431 1_545 S
C189 C209 1.449 . S
C190 C189 1.258 . S
C190 C191 1.477 1_545 S
C190 H210 0.931 . S
C191 C187 1.460 . S
C191 C190 1.477 1_565 S
C191 H211 0.930 . S
C192 N188 1.362 . S
C192 C189 1.431 1_565 S
C192 C202 1.476 1_565 S
H193 C187 0.929 . S
C194 O185 1.250 . S
C194 O186 1.258 . S
O195 Mn180 2.162 . S
O195 C183 1.281 . S
O196 Mn180 2.297 . S
O196 C183 1.236 . S
N197 Mn181 2.282 . S
N197 C198 1.328 1_565 S
N197 C202 1.318 1_565 S
C198 N197 1.328 1_545 S
C198 C199 1.457 . S
C198 H203 0.929 1_545 S
C199 C198 1.457 . S
C199 C200 1.291 . S
C199 H212 0.931 . S
C200 C199 1.291 . S
C200 C201 1.373 . S
C200 H213 0.929 . S
C201 C200 1.373 . S
C201 C202 1.396 . S
C201 C208 1.403 . S
C202 C192 1.476 1_545 S
C202 N197 1.318 1_545 S
C202 C201 1.396 . S
H203 C198 0.929 1_565 S
O204 Mn180 2.385 . S
O204 C182 1.234 . S
O205 Mn180 2.209 . S
O205 Mn181 2.215 . S
O205 C182 1.283 . S
O206 Mn180 2.094 . S
O206 C184 1.240 . S
O207 Mn181 2.117 . S
O207 C184 1.264 . S
C208 C201 1.403 . S
C208 C209 1.399 . S
C208 H214 0.929 . S
C209 C189 1.449 . S
C209 C208 1.399 . S
C209 H215 0.930 . S
H210 C190 0.931 . S
H211 C191 0.930 . S
H212 C199 0.931 . S
H213 C200 0.929 . S
H214 C208 0.929 . S
H215 C209 0.930 . S
Mn216 O221 2.095 . S
Mn216 O231 2.162 . S
Mn216 O232 2.297 . S
Mn216 O240 2.385 . S
Mn216 O241 2.209 . S
Mn216 O242 2.094 . S
Mn217 O222 2.121 . S
Mn217 N224 2.257 . S
Mn217 N233 2.282 . S
Mn217 O241 2.215 . S
Mn217 O243 2.117 . S
C218 O240 1.234 . S
C218 O241 1.283 . S
C219 O231 1.281 . S
C219 O232 1.236 . S
C220 O242 1.240 . S
C220 O243 1.264 . S
O221 Mn216 2.095 . S
O221 C230 1.250 . S
O222 Mn217 2.121 . S
O222 C230 1.258 . S
C223 N224 1.326 . S
C223 C227 1.460 . S
C223 H229 0.929 . S
N224 Mn217 2.257 . S
N224 C223 1.326 . S
N224 C228 1.362 . S
C225 C226 1.258 . S
C225 C228 1.431 . S
C225 C245 1.449 . S
C226 C225 1.258 . S
C226 C227 1.477 . S
C226 H246 0.931 . S
C227 C223 1.460 . S
C227 C226 1.477 . S
C227 H247 0.930 . S
C228 N224 1.362 . S
C228 C225 1.431 . S
C228 C238 1.476 . S
H229 C223 0.929 . S
C230 O221 1.250 . S
C230 O222 1.258 . S
O231 Mn216 2.162 . S
O231 C219 1.281 . S
O232 Mn216 2.297 . S
O232 C219 1.236 . S
N233 Mn217 2.282 . S
N233 C234 1.328 . S
N233 C238 1.318 . S
C234 N233 1.328 . S
C234 C235 1.457 . S
C234 H239 0.929 . S
C235 C234 1.457 . S
C235 C236 1.291 . S
C235 H248 0.931 . S
C236 C235 1.291 . S
C236 C237 1.373 . S
C236 H249 0.929 . S
C237 C236 1.373 . S
C237 C238 1.396 . S
C237 C244 1.403 . S
C238 C228 1.476 . S
C238 N233 1.318 . S
C238 C237 1.396 . S
H239 C234 0.929 . S
O240 Mn216 2.385 . S
O240 C218 1.234 . S
O241 Mn216 2.209 . S
O241 Mn217 2.215 . S
O241 C218 1.283 . S
O242 Mn216 2.094 . S
O242 C220 1.240 . S
O243 Mn217 2.117 . S
O243 C220 1.264 . S
C244 C237 1.403 . S
C244 C245 1.399 . S
C244 H250 0.929 . S
C245 C225 1.449 . S
C245 C244 1.399 . S
C245 H251 0.930 . S
H246 C226 0.931 . S
H247 C227 0.930 . S
H248 C235 0.931 . S
H249 C236 0.929 . S
H250 C244 0.929 . S
H251 C245 0.930 . S
Mn252 O257 2.095 . S
Mn252 O267 2.162 . S
Mn252 O268 2.297 . S
Mn252 O276 2.385 . S
Mn252 O277 2.209 . S
Mn252 O278 2.094 . S
Mn253 O258 2.121 . S
Mn253 N260 2.257 . S
Mn253 N269 2.282 . S
Mn253 O277 2.215 . S
Mn253 O279 2.117 . S
C254 O276 1.234 . S
C254 O277 1.283 . S
C255 O267 1.281 . S
C255 O268 1.236 . S
C256 O278 1.240 . S
C256 O279 1.264 . S
O257 Mn252 2.095 . S
O257 C266 1.250 . S
O258 Mn253 2.121 . S
O258 C266 1.258 . S
C259 N260 1.326 . S
C259 C263 1.460 . S
C259 H265 0.929 . S
N260 Mn253 2.257 . S
N260 C259 1.326 . S
N260 C264 1.362 . S
C261 C262 1.258 . S
C261 C264 1.431 1_655 S
C261 C281 1.449 . S
C262 C261 1.258 . S
C262 C263 1.477 1_655 S
C262 H282 0.931 . S
C263 C259 1.460 . S
C263 C262 1.477 1_455 S
C263 H283 0.930 . S
C264 N260 1.362 . S
C264 C261 1.431 1_455 S
C264 C274 1.476 1_455 S
H265 C259 0.929 . S
C266 O257 1.250 . S
C266 O258 1.258 . S
O267 Mn252 2.162 . S
O267 C255 1.281 . S
O268 Mn252 2.297 . S
O268 C255 1.236 . S
N269 Mn253 2.282 . S
N269 C270 1.328 1_455 S
N269 C274 1.318 1_455 S
C270 N269 1.328 1_655 S
C270 C271 1.457 . S
C270 H275 0.929 1_655 S
C271 C270 1.457 . S
C271 C272 1.291 . S
C271 H284 0.931 . S
C272 C271 1.291 . S
C272 C273 1.373 . S
C272 H285 0.929 . S
C273 C272 1.373 . S
C273 C274 1.396 . S
C273 C280 1.403 . S
C274 C264 1.476 1_655 S
C274 N269 1.318 1_655 S
C274 C273 1.396 . S
H275 C270 0.929 1_455 S
O276 Mn252 2.385 . S
O276 C254 1.234 . S
O277 Mn252 2.209 . S
O277 Mn253 2.215 . S
O277 C254 1.283 . S
O278 Mn252 2.094 . S
O278 C256 1.240 . S
O279 Mn253 2.117 . S
O279 C256 1.264 . S
C280 C273 1.403 . S
C280 C281 1.399 . S
C280 H286 0.929 . S
C281 C261 1.449 . S
C281 C280 1.399 . S
C281 H287 0.930 . S
H282 C262 0.931 . S
H283 C263 0.930 . S
H284 C271 0.931 . S
H285 C272 0.929 . S
H286 C280 0.929 . S
H287 C281 0.930 . S
Mn288 O293 2.095 . S
Mn288 O303 2.162 . S
Mn288 O304 2.297 . S
Mn288 O312 2.385 . S
Mn288 O313 2.209 . S
Mn288 O314 2.094 . S
Mn289 O294 2.121 . S
Mn289 N296 2.257 . S
Mn289 N305 2.282 . S
Mn289 O313 2.215 . S
Mn289 O315 2.117 . S
C290 O312 1.234 . S
C290 O313 1.283 . S
C291 O303 1.281 . S
C291 O304 1.236 . S
C292 O314 1.240 . S
C292 O315 1.264 . S
O293 Mn288 2.095 . S
O293 C302 1.250 . S
O294 Mn289 2.121 . S
O294 C302 1.258 . S
C295 N296 1.326 . S
C295 C299 1.460 . S
C295 H301 0.929 . S
N296 Mn289 2.257 . S
N296 C295 1.326 . S
N296 C300 1.362 . S
C297 C298 1.258 . S
C297 C300 1.431 1_565 S
C297 C317 1.449 . S
C298 C297 1.258 . S
C298 C299 1.477 1_565 S
C298 H318 0.931 . S
C299 C295 1.460 . S
C299 C298 1.477 1_545 S
C299 H319 0.930 . S
C300 N296 1.362 . S
C300 C297 1.431 1_545 S
C300 C310 1.476 1_545 S
H301 C295 0.929 . S
C302 O293 1.250 . S
C302 O294 1.258 . S
O303 Mn288 2.162 . S
O303 C291 1.281 . S
O304 Mn288 2.297 . S
O304 C291 1.236 . S
N305 Mn289 2.282 . S
N305 C306 1.328 1_545 S
N305 C310 1.318 1_545 S
C306 N305 1.328 1_565 S
C306 C307 1.457 . S
C306 H311 0.929 1_565 S
C307 C306 1.457 . S
C307 C308 1.291 . S
C307 H320 0.931 . S
C308 C307 1.291 . S
C308 C309 1.373 . S
C308 H321 0.929 . S
C309 C308 1.373 . S
C309 C310 1.396 . S
C309 C316 1.403 . S
C310 C300 1.476 1_565 S
C310 N305 1.318 1_565 S
C310 C309 1.396 . S
H311 C306 0.929 1_545 S
O312 Mn288 2.385 . S
O312 C290 1.234 . S
O313 Mn288 2.209 . S
O313 Mn289 2.215 . S
O313 C290 1.283 . S
O314 Mn288 2.094 . S
O314 C292 1.240 . S
O315 Mn289 2.117 . S
O315 C292 1.264 . S
C316 C309 1.403 . S
C316 C317 1.399 . S
C316 H322 0.929 . S
C317 C297 1.449 . S
C317 C316 1.399 . S
C317 H323 0.930 . S
H318 C298 0.931 . S
H319 C299 0.930 . S
H320 C307 0.931 . S
H321 C308 0.929 . S
H322 C316 0.929 . S
H323 C317 0.930 . S
Mn324 O329 2.095 . S
Mn324 O339 2.162 . S
Mn324 O340 2.297 . S
Mn324 O348 2.385 . S
Mn324 O349 2.209 . S
Mn324 O350 2.094 . S
Mn325 O330 2.121 . S
Mn325 N332 2.257 . S
Mn325 N341 2.282 . S
Mn325 O349 2.215 . S
Mn325 O351 2.117 . S
C326 O348 1.234 . S
C326 O349 1.283 . S
C327 O339 1.281 . S
C327 O340 1.236 . S
C328 O350 1.235 1_554 S
C328 O351 1.255 1_554 S
O329 Mn324 2.095 . S
O329 C338 1.250 . S
O330 Mn325 2.121 . S
O330 C338 1.258 . S
C331 N332 1.326 . S
C331 C335 1.460 . S
C331 H337 0.929 . S
N332 Mn325 2.257 . S
N332 C331 1.326 . S
N332 C336 1.362 . S
C333 C334 1.258 . S
C333 C336 1.431 . S
C333 C353 1.449 . S
C334 C333 1.258 . S
C334 C335 1.477 . S
C334 H354 0.931 . S
C335 C331 1.460 . S
C335 C334 1.477 . S
C335 H355 0.930 . S
C336 N332 1.362 . S
C336 C333 1.431 . S
C336 C346 1.476 . S
H337 C331 0.929 . S
C338 O329 1.250 . S
C338 O330 1.258 . S
O339 Mn324 2.162 . S
O339 C327 1.281 . S
O340 Mn324 2.297 . S
O340 C327 1.236 . S
N341 Mn325 2.282 . S
N341 C342 1.328 . S
N341 C346 1.318 . S
C342 N341 1.328 . S
C342 C343 1.457 . S
C342 H347 0.929 . S
C343 C342 1.457 . S
C343 C344 1.291 . S
C343 H356 0.931 . S
C344 C343 1.291 . S
C344 C345 1.373 . S
C344 H357 0.929 . S
C345 C344 1.373 . S
C345 C346 1.396 . S
C345 C352 1.403 . S
C346 C336 1.476 . S
C346 N341 1.318 . S
C346 C345 1.396 . S
H347 C342 0.929 . S
O348 Mn324 2.385 . S
O348 C326 1.234 . S
O349 Mn324 2.209 . S
O349 Mn325 2.215 . S
O349 C326 1.283 . S
O350 Mn324 2.094 . S
O350 C328 1.235 1_556 S
O351 Mn325 2.117 . S
O351 C328 1.255 1_556 S
C352 C345 1.403 . S
C352 C353 1.399 . S
C352 H358 0.929 . S
C353 C333 1.449 . S
C353 C352 1.399 . S
C353 H359 0.930 . S
H354 C334 0.931 . S
H355 C335 0.930 . S
H356 C343 0.931 . S
H357 C344 0.929 . S
H358 C352 0.929 . S
H359 C353 0.930 . S
Mn360 O365 2.095 . S
Mn360 O375 2.162 . S
Mn360 O376 2.292 1_554 S
Mn360 O384 2.385 . S
Mn360 O385 2.209 . S
Mn360 O386 2.094 . S
Mn361 O366 2.121 . S
Mn361 N368 2.257 1_554 S
Mn361 N377 2.282 . S
Mn361 O385 2.215 . S
Mn361 O387 2.117 . S
C362 O384 1.234 1_556 S
C362 O385 1.283 1_556 S
C363 O375 1.281 . S
C363 O376 1.232 1_554 S
C364 O386 1.240 . S
C364 O387 1.264 . S
O365 Mn360 2.095 . S
O365 C374 1.250 . S
O366 Mn361 2.121 . S
O366 C374 1.258 . S
C367 N368 1.326 . S
C367 C371 1.460 . S
C367 H373 0.929 . S
N368 Mn361 2.257 1_556 S
N368 C367 1.326 . S
N368 C372 1.362 . S
C369 C370 1.258 . S
C369 C372 1.431 1_455 S
C369 C389 1.449 . S
C370 C369 1.258 . S
C370 C371 1.477 1_455 S
C370 H390 0.931 . S
C371 C367 1.460 . S
C371 C370 1.477 1_655 S
C371 H391 0.930 . S
C372 N368 1.362 . S
C372 C369 1.431 1_655 S
C372 C382 1.479 1_655 S
H373 C367 0.929 . S
C374 O365 1.250 . S
C374 O366 1.258 . S
O375 Mn360 2.162 . S
O375 C363 1.281 . S
O376 Mn360 2.292 1_556 S
O376 C363 1.232 1_556 S
N377 Mn361 2.282 . S
N377 C378 1.328 1_655 S
N377 C382 1.311 1_654 S
C378 N377 1.328 1_455 S
C378 C379 1.457 . S
C378 H383 0.929 1_455 S
C379 C378 1.457 . S
C379 C380 1.291 . S
C379 H392 0.931 . S
C380 C379 1.291 . S
C380 C381 1.373 1_554 S
C380 H393 0.929 1_554 S
C381 C380 1.373 1_556 S
C381 C382 1.399 . S
C381 C388 1.403 . S
C382 C372 1.479 1_455 S
C382 N377 1.311 1_456 S
C382 C381 1.399 . S
H383 C378 0.929 1_655 S
O384 Mn360 2.385 . S
O384 C362 1.234 1_554 S
O385 Mn360 2.209 . S
O385 Mn361 2.215 . S
O385 C362 1.283 1_554 S
O386 Mn360 2.094 . S
O386 C364 1.240 . S
O387 Mn361 2.117 . S
O387 C364 1.264 . S
C388 C381 1.403 . S
C388 C389 1.399 . S
C388 H394 0.929 . S
C389 C369 1.449 . S
C389 C388 1.399 . S
C389 H395 0.930 . S
H390 C370 0.931 . S
H391 C371 0.930 . S
H392 C379 0.931 . S
H393 C380 0.929 1_556 S
H394 C388 0.929 . S
H395 C389 0.930 . S
Mn396 O401 2.095 . S
Mn396 O411 2.162 . S
Mn396 O412 2.297 . S
Mn396 O420 2.385 . S
Mn396 O421 2.209 . S
Mn396 O422 2.094 . S
Mn397 O402 2.121 . S
Mn397 N404 2.257 . S
Mn397 N413 2.282 . S
Mn397 O421 2.215 . S
Mn397 O423 2.117 . S
C398 O420 1.234 . S
C398 O421 1.283 . S
C399 O411 1.281 . S
C399 O412 1.236 . S
C400 O422 1.240 . S
C400 O423 1.264 . S
O401 Mn396 2.095 . S
O401 C410 1.250 . S
O402 Mn397 2.121 . S
O402 C410 1.258 . S
C403 N404 1.326 . S
C403 C407 1.460 . S
C403 H409 0.929 . S
N404 Mn397 2.257 . S
N404 C403 1.326 . S
N404 C408 1.362 . S
C405 C406 1.258 . S
C405 C408 1.431 1_545 S
C405 C425 1.449 . S
C406 C405 1.258 . S
C406 C407 1.477 1_545 S
C406 H426 0.931 . S
C407 C403 1.460 . S
C407 C406 1.477 1_565 S
C407 H427 0.930 . S
C408 N404 1.362 . S
C408 C405 1.431 1_565 S
C408 C418 1.476 1_565 S
H409 C403 0.929 . S
C410 O401 1.250 . S
C410 O402 1.258 . S
O411 Mn396 2.162 . S
O411 C399 1.281 . S
O412 Mn396 2.297 . S
O412 C399 1.236 . S
N413 Mn397 2.282 . S
N413 C414 1.328 1_565 S
N413 C418 1.318 1_565 S
C414 N413 1.328 1_545 S
C414 C415 1.457 . S
C414 H419 0.929 1_545 S
C415 C414 1.457 . S
C415 C416 1.291 . S
C415 H428 0.931 . S
C416 C415 1.291 . S
C416 C417 1.373 . S
C416 H429 0.929 . S
C417 C416 1.373 . S
C417 C418 1.396 . S
C417 C424 1.403 . S
C418 C408 1.476 1_545 S
C418 N413 1.318 1_545 S
C418 C417 1.396 . S
H419 C414 0.929 1_565 S
O420 Mn396 2.385 . S
O420 C398 1.234 . S
O421 Mn396 2.209 . S
O421 Mn397 2.215 . S
O421 C398 1.283 . S
O422 Mn396 2.094 . S
O422 C400 1.240 . S
O423 Mn397 2.117 . S
O423 C400 1.264 . S
C424 C417 1.403 . S
C424 C425 1.399 . S
C424 H430 0.929 . S
C425 C405 1.449 . S
C425 C424 1.399 . S
C425 H431 0.930 . S
H426 C406 0.931 . S
H427 C407 0.930 . S
H428 C415 0.931 . S
H429 C416 0.929 . S
H430 C424 0.929 . S
H431 C425 0.930 . S
H432 C438 0.930 . S
H433 C442 0.930 . S
H434 C447 0.929 . S
H435 C445 0.929 . S
H436 C440 0.929 . S
H437 C446 0.929 . S
C438 H432 0.930 . S
C438 C439 1.367 . S
C438 C446 1.378 . S
C439 C438 1.367 . S
C439 C447 1.433 . S
C440 H436 0.929 . S
C440 C442 1.378 . S
C440 C444 1.350 . S
C441 C444 1.463 . S
C441 C446 1.350 . S
C441 N449 1.427 . S
C442 H433 0.930 . S
C442 C440 1.378 . S
C442 C443 1.367 . S
C443 C442 1.367 . S
C443 C445 1.433 . S
C444 C440 1.350 . S
C444 C441 1.463 . S
C444 N448 1.427 . S
C445 H435 0.929 . S
C445 C443 1.433 . S
C445 N448 1.384 . S
C446 H437 0.929 . S
C446 C438 1.378 . S
C446 C441 1.350 . S
C447 H434 0.929 . S
C447 C439 1.433 . S
C447 N449 1.384 . S
N448 C444 1.427 . S
N448 C445 1.384 . S
N449 C441 1.427 . S
N449 C447 1.384 . S
H450 C456 0.930 . S
H451 C460 0.930 . S
H452 C465 0.929 . S
H453 C463 0.929 . S
H454 C458 0.940 . S
H455 C464 0.940 . S
C456 H450 0.930 . S
C456 C457 1.367 . S
C456 C464 1.369 1_455 S
C457 C456 1.367 . S
C457 C465 1.433 . S
C458 H454 0.940 . S
C458 C460 1.370 1_455 S
C458 C462 1.347 1_455 S
C459 C462 1.463 1_455 S
C459 C464 1.346 1_455 S
C459 N467 1.427 . S
C460 H451 0.930 . S
C460 C458 1.370 1_655 S
C460 C461 1.367 . S
C461 C460 1.367 . S
C461 C463 1.433 . S
C462 C458 1.347 1_655 S
C462 C459 1.463 1_655 S
C462 N466 1.427 . S
C463 H453 0.929 . S
C463 C461 1.433 . S
C463 N466 1.384 . S
C464 H455 0.940 . S
C464 C456 1.369 1_655 S
C464 C459 1.346 1_655 S
C465 H452 0.929 . S
C465 C457 1.433 . S
C465 N467 1.384 . S
N466 C462 1.427 . S
N466 C463 1.384 . S
N467 C459 1.427 . S
N467 C465 1.384 . S
H468 C474 0.930 . S
H469 C478 0.930 . S
H470 C483 0.929 . S
H471 C481 0.929 . S
H472 C476 0.929 . S
H473 C482 0.929 . S
C474 H468 0.930 . S
C474 C475 1.367 . S
C474 C482 1.378 . S
C475 C474 1.367 . S
C475 C483 1.433 . S
C476 H472 0.929 . S
C476 C478 1.378 . S
C476 C480 1.350 . S
C477 C480 1.463 1_565 S
C477 C482 1.350 . S
C477 N485 1.427 . S
C478 H469 0.930 . S
C478 C476 1.378 . S
C478 C479 1.367 . S
C479 C478 1.367 . S
C479 C481 1.433 . S
C480 C476 1.350 . S
C480 C477 1.463 1_545 S
C480 N484 1.427 . S
C481 H471 0.929 . S
C481 C479 1.433 . S
C481 N484 1.384 . S
C482 H473 0.929 . S
C482 C474 1.378 . S
C482 C477 1.350 . S
C483 H470 0.929 . S
C483 C475 1.433 . S
C483 N485 1.384 . S
N484 C480 1.427 . S
N484 C481 1.384 . S
N485 C477 1.427 . S
N485 C483 1.384 . S
H486 C492 0.930 . S
H487 C496 0.930 . S
H488 C501 0.929 . S
H489 C499 0.929 . S
H490 C494 0.929 . S
H491 C500 0.929 . S
C492 H486 0.930 . S
C492 C493 1.367 . S
C492 C500 1.378 . S
C493 C492 1.367 . S
C493 C501 1.433 . S
C494 H490 0.929 . S
C494 C496 1.378 . S
C494 C498 1.350 . S
C495 C498 1.463 . S
C495 C500 1.350 . S
C495 N503 1.427 . S
C496 H487 0.930 . S
C496 C494 1.378 . S
C496 C497 1.367 . S
C497 C496 1.367 . S
C497 C499 1.433 . S
C498 C494 1.350 . S
C498 C495 1.463 . S
C498 N502 1.427 . S
C499 H489 0.929 . S
C499 C497 1.433 . S
C499 N502 1.384 . S
C500 H491 0.929 . S
C500 C492 1.378 . S
C500 C495 1.350 . S
C501 H488 0.929 . S
C501 C493 1.433 . S
C501 N503 1.384 . S
N502 C498 1.427 . S
N502 C499 1.384 . S
N503 C495 1.427 . S
N503 C501 1.384 . S
H504 C510 0.930 . S
H505 C514 0.930 . S
H506 C519 0.929 . S
H507 C517 0.929 . S
H508 C512 0.929 . S
H509 C518 0.929 . S
C510 H504 0.930 . S
C510 C511 1.367 . S
C510 C518 1.378 . S
C511 C510 1.367 . S
C511 C519 1.433 . S
C512 H508 0.929 . S
C512 C514 1.378 . S
C512 C516 1.350 . S
C513 C516 1.463 1_455 S
C513 C518 1.350 . S
C513 N521 1.427 . S
C514 H505 0.930 . S
C514 C512 1.378 . S
C514 C515 1.367 . S
C515 C514 1.367 . S
C515 C517 1.433 . S
C516 C512 1.350 . S
C516 C513 1.463 1_655 S
C516 N520 1.427 . S
C517 H507 0.929 . S
C517 C515 1.433 . S
C517 N520 1.384 . S
C518 H509 0.929 . S
C518 C510 1.378 . S
C518 C513 1.350 . S
C519 H506 0.929 . S
C519 C511 1.433 . S
C519 N521 1.384 . S
N520 C516 1.427 . S
N520 C517 1.384 . S
N521 C513 1.427 . S
N521 C519 1.384 . S
H522 C528 0.930 . S
H523 C532 0.930 . S
H524 C537 0.929 . S
H525 C535 0.929 . S
H526 C530 0.929 1_556 S
H527 C536 0.929 1_554 S
C528 H522 0.930 . S
C528 C529 1.367 . S
C528 C536 1.378 . S
C529 C528 1.367 . S
C529 C537 1.433 . S
C530 H526 0.929 1_554 S
C530 C532 1.378 . S
C530 C534 1.350 . S
C531 C534 1.463 1_546 S
C531 C536 1.350 . S
C531 N539 1.419 1_545 S
C532 H523 0.930 . S
C532 C530 1.378 . S
C532 C533 1.367 . S
C533 C532 1.367 . S
C533 C535 1.433 . S
C534 C530 1.350 . S
C534 C531 1.463 1_564 S
C534 N538 1.419 1_565 S
C535 H525 0.929 . S
C535 C533 1.433 . S
C535 N538 1.369 1_565 S
C536 H527 0.929 1_556 S
C536 C528 1.378 . S
C536 C531 1.350 . S
C537 H524 0.929 . S
C537 C529 1.433 . S
C537 N539 1.369 1_545 S
N538 C534 1.419 1_545 S
N538 C535 1.369 1_545 S
N539 C531 1.419 1_565 S
N539 C537 1.369 1_565 S
H540 C546 0.930 . S
H541 C550 0.930 . S
H542 C555 0.929 . S
H543 C553 0.929 . S
H544 C548 0.929 . S
H545 C554 0.929 . S
C546 H540 0.930 . S
C546 C547 1.367 . S
C546 C554 1.378 . S
C547 C546 1.367 . S
C547 C555 1.433 . S
C548 H544 0.929 . S
C548 C550 1.378 . S
C548 C552 1.350 . S
C549 C552 1.463 . S
C549 C554 1.350 . S
C549 N557 1.427 . S
C550 H541 0.930 . S
C550 C548 1.378 . S
C550 C551 1.367 . S
C551 C550 1.367 . S
C551 C553 1.433 . S
C552 C548 1.350 . S
C552 C549 1.463 . S
C552 N556 1.427 . S
C553 H543 0.929 . S
C553 C551 1.433 . S
C553 N556 1.384 . S
C554 H545 0.929 . S
C554 C546 1.378 . S
C554 C549 1.350 . S
C555 H542 0.929 . S
C555 C547 1.433 . S
C555 N557 1.384 . S
N556 C552 1.427 . S
N556 C553 1.384 . S
N557 C549 1.427 . S
N557 C555 1.384 . S
H558 C564 0.930 . S
H559 C568 0.930 . S
H560 C573 0.929 . S
H561 C571 0.929 . S
H562 C566 0.929 . S
H563 C572 0.929 . S
C564 H558 0.930 . S
C564 C565 1.367 . S
C564 C572 1.378 . S
C565 C564 1.367 . S
C565 C573 1.433 . S
C566 H562 0.929 . S
C566 C568 1.378 . S
C566 C570 1.350 . S
C567 C570 1.463 . S
C567 C572 1.350 . S
C567 N575 1.427 . S
C568 H559 0.930 . S
C568 C566 1.378 . S
C568 C569 1.367 . S
C569 C568 1.367 . S
C569 C571 1.433 . S
C570 C566 1.350 . S
C570 C567 1.463 . S
C570 N574 1.427 . S
C571 H561 0.929 . S
C571 C569 1.433 . S
C571 N574 1.384 . S
C572 H563 0.929 . S
C572 C564 1.378 . S
C572 C567 1.350 . S
C573 H560 0.929 . S
C573 C565 1.433 . S
C573 N575 1.384 . S
N574 C570 1.427 . S
N574 C571 1.384 . S
N575 C567 1.427 . S
N575 C573 1.384 . S
H576 C582 0.930 . S
H577 C586 0.930 . S
H578 C591 0.929 . S
H579 C589 0.929 . S
H580 C584 0.929 . S
H581 C590 0.929 . S
C582 H576 0.930 . S
C582 C583 1.367 . S
C582 C590 1.378 . S
C583 C582 1.367 . S
C583 C591 1.433 . S
C584 H580 0.929 . S
C584 C586 1.378 . S
C584 C588 1.350 . S
C585 C588 1.463 . S
C585 C590 1.350 . S
C585 N593 1.427 . S
C586 H577 0.930 . S
C586 C584 1.378 . S
C586 C587 1.367 . S
C587 C586 1.367 . S
C587 C589 1.433 . S
C588 C584 1.350 . S
C588 C585 1.463 . S
C588 N592 1.427 . S
C589 H579 0.929 . S
C589 C587 1.433 . S
C589 N592 1.384 . S
C590 H581 0.929 . S
C590 C582 1.378 . S
C590 C585 1.350 . S
C591 H578 0.929 . S
C591 C583 1.433 . S
C591 N593 1.384 . S
N592 C588 1.427 . S
N592 C589 1.384 . S
N593 C585 1.427 . S
N593 C591 1.384 . S
H594 C600 0.930 . S
H595 C604 0.930 . S
H596 C609 0.929 . S
H597 C607 0.929 1_554 S
H598 C602 0.929 . S
H599 C608 0.929 1_554 S
C600 H594 0.930 . S
C600 C601 1.367 . S
C600 C608 1.378 . S
C601 C600 1.367 . S
C601 C609 1.433 . S
C602 H598 0.929 . S
C602 C604 1.378 . S
C602 C606 1.350 . S
C603 C606 1.463 . S
C603 C608 1.350 . S
C603 N611 1.427 . S
C604 H595 0.930 . S
C604 C602 1.378 . S
C604 C605 1.367 . S
C605 C604 1.367 . S
C605 C607 1.433 . S
C606 C602 1.350 . S
C606 C603 1.463 . S
C606 N610 1.427 . S
C607 H597 0.929 1_556 S
C607 C605 1.433 . S
C607 N610 1.384 . S
C608 H599 0.929 1_556 S
C608 C600 1.378 . S
C608 C603 1.350 . S
C609 H596 0.929 . S
C609 C601 1.433 . S
C609 N611 1.384 . S
N610 C606 1.427 . S
N610 C607 1.384 . S
N611 C603 1.427 . S
N611 C609 1.384 . S
H612 C618 0.930 . S
H613 C622 0.930 1_556 S
H614 C627 0.929 . S
H615 C625 0.929 . S
H616 C620 0.931 . S
H617 C626 0.929 . S
C618 H612 0.930 . S
C618 C619 1.367 . S
C618 C626 1.378 . S
C619 C618 1.367 . S
C619 C627 1.433 . S
C620 H616 0.931 . S
C620 C622 1.378 . S
C620 C624 1.350 . S
C621 C624 1.463 . S
C621 C626 1.350 . S
C621 N629 1.427 . S
C622 H613 0.930 1_554 S
C622 C620 1.378 . S
C622 C623 1.367 . S
C623 C622 1.367 . S
C623 C625 1.433 . S
C624 C620 1.350 . S
C624 C621 1.463 . S
C624 N628 1.427 . S
C625 H615 0.929 . S
C625 C623 1.433 . S
C625 N628 1.384 . S
C626 H617 0.929 . S
C626 C618 1.378 . S
C626 C621 1.350 . S
C627 H614 0.929 . S
C627 C619 1.433 . S
C627 N629 1.384 . S
N628 C624 1.427 . S
N628 C625 1.384 . S
N629 C621 1.427 . S
N629 C627 1.384 . S
H630 C636 0.930 . S
H631 C640 0.930 . S
H632 C645 0.929 . S
H633 C643 0.929 . S
H634 C638 0.929 . S
H635 C644 0.929 . S
C636 H630 0.930 . S
C636 C637 1.367 . S
C636 C644 1.378 . S
C637 C636 1.367 . S
C637 C645 1.433 . S
C638 H634 0.929 . S
C638 C640 1.378 . S
C638 C642 1.350 . S
C639 C642 1.463 . S
C639 C644 1.350 . S
C639 N647 1.427 . S
C640 H631 0.930 . S
C640 C638 1.378 . S
C640 C641 1.367 . S
C641 C640 1.367 . S
C641 C643 1.433 . S
C642 C638 1.350 . S
C642 C639 1.463 . S
C642 N646 1.427 . S
C643 H633 0.929 . S
C643 C641 1.433 . S
C643 N646 1.384 . S
C644 H635 0.929 . S
C644 C636 1.378 . S
C644 C639 1.350 . S
C645 H632 0.929 . S
C645 C637 1.433 . S
C645 N647 1.384 . S
N646 C642 1.427 . S
N646 C643 1.384 . S
N647 C639 1.427 . S
N647 C645 1.384 . S
H648 C654 0.930 . S
H649 C658 0.930 . S
H650 C663 0.929 . S
H651 C661 0.929 . S
H652 C656 0.929 . S
H653 C662 0.929 . S
C654 H648 0.930 . S
C654 C655 1.367 . S
C654 C662 1.378 . S
C655 C654 1.367 . S
C655 C663 1.433 . S
C656 H652 0.929 . S
C656 C658 1.378 . S
C656 C660 1.350 . S
C657 C660 1.463 . S
C657 C662 1.350 . S
C657 N665 1.427 . S
C658 H649 0.930 . S
C658 C656 1.378 . S
C658 C659 1.367 . S
C659 C658 1.367 . S
C659 C661 1.433 . S
C660 C656 1.350 . S
C660 C657 1.463 . S
C660 N664 1.427 . S
C661 H651 0.929 . S
C661 C659 1.433 . S
C661 N664 1.384 . S
C662 H653 0.929 . S
C662 C654 1.378 . S
C662 C657 1.350 . S
C663 H650 0.929 . S
C663 C655 1.433 . S
C663 N665 1.384 . S
N664 C660 1.427 . S
N664 C661 1.384 . S
N665 C657 1.427 . S
N665 C663 1.384 . S
H666 C672 0.930 . S
H667 C676 0.930 . S
H668 C681 0.929 . S
H669 C679 0.929 . S
H670 C674 0.958 . S
H671 C680 0.958 . S
C672 H666 0.930 . S
C672 C673 1.367 . S
C672 C680 1.358 1_655 S
C673 C672 1.367 . S
C673 C681 1.433 . S
C674 H670 0.958 . S
C674 C676 1.358 1_655 S
C674 C678 1.341 1_655 S
C675 C678 1.463 1_655 S
C675 C680 1.341 1_655 S
C675 N683 1.427 . S
C676 H667 0.930 . S
C676 C674 1.358 1_455 S
C676 C677 1.367 . S
C677 C676 1.367 . S
C677 C679 1.433 . S
C678 C674 1.341 1_455 S
C678 C675 1.463 1_455 S
C678 N682 1.427 . S
C679 H669 0.929 . S
C679 C677 1.433 . S
C679 N682 1.384 . S
C680 H671 0.958 . S
C680 C672 1.358 1_455 S
C680 C675 1.341 1_455 S
C681 H668 0.929 . S
C681 C673 1.433 . S
C681 N683 1.384 . S
N682 C678 1.427 . S
N682 C679 1.384 . S
N683 C675 1.427 . S
N683 C681 1.384 . S
H684 C690 0.930 . S
H685 C694 0.930 . S
H686 C699 0.929 . S
H687 C697 0.929 . S
H688 C692 0.929 1_554 S
H689 C698 0.929 1_556 S
C690 H684 0.930 . S
C690 C691 1.367 . S
C690 C698 1.378 . S
C691 C690 1.367 . S
C691 C699 1.433 . S
C692 H688 0.929 1_556 S
C692 C694 1.378 . S
C692 C696 1.350 . S
C693 C696 1.463 1_564 S
C693 C698 1.350 . S
C693 N701 1.427 . S
C694 H685 0.930 . S
C694 C692 1.378 . S
C694 C695 1.367 . S
C695 C694 1.367 . S
C695 C697 1.433 . S
C696 C692 1.350 . S
C696 C693 1.463 1_546 S
C696 N700 1.427 . S
C697 H687 0.929 . S
C697 C695 1.433 . S
C697 N700 1.384 . S
C698 H689 0.929 1_554 S
C698 C690 1.378 . S
C698 C693 1.350 . S
C699 H686 0.929 . S
C699 C691 1.433 . S
C699 N701 1.384 . S
N700 C696 1.427 . S
N700 C697 1.384 . S
N701 C693 1.427 . S
N701 C699 1.384 . S
H702 C708 0.930 . S
H703 C712 0.930 . S
H704 C717 0.929 . S
H705 C715 0.929 . S
H706 C710 0.929 . S
H707 C716 0.929 . S
C708 H702 0.930 . S
C708 C709 1.367 . S
C708 C716 1.378 . S
C709 C708 1.367 . S
C709 C717 1.433 . S
C710 H706 0.929 . S
C710 C712 1.378 . S
C710 C714 1.350 . S
C711 C714 1.463 . S
C711 C716 1.350 . S
C711 N719 1.427 . S
C712 H703 0.930 . S
C712 C710 1.378 . S
C712 C713 1.367 . S
C713 C712 1.367 . S
C713 C715 1.433 . S
C714 C710 1.350 . S
C714 C711 1.463 . S
C714 N718 1.427 . S
C715 H705 0.929 . S
C715 C713 1.433 . S
C715 N718 1.384 . S
C716 H707 0.929 . S
C716 C708 1.378 . S
C716 C711 1.350 . S
C717 H704 0.929 . S
C717 C709 1.433 . S
C717 N719 1.384 . S
N718 C714 1.427 . S
N718 C715 1.384 . S
N719 C711 1.427 . S
N719 C717 1.384 . S
H720 C726 0.930 . S
H721 C730 0.930 . S
H722 C735 0.929 . S
H723 C733 0.929 . S
H724 C728 0.929 1_455 S
H725 C734 0.929 1_655 S
C726 H720 0.930 . S
C726 C727 1.367 . S
C726 C734 1.378 . S
C727 C726 1.367 . S
C727 C735 1.433 . S
C728 H724 0.929 1_655 S
C728 C730 1.378 . S
C728 C732 1.350 . S
C729 C732 1.463 1_455 S
C729 C734 1.350 . S
C729 N737 1.427 . S
C730 H721 0.930 . S
C730 C728 1.378 . S
C730 C731 1.367 . S
C731 C730 1.367 . S
C731 C733 1.433 . S
C732 C728 1.350 . S
C732 C729 1.463 1_655 S
C732 N736 1.427 . S
C733 H723 0.929 . S
C733 C731 1.433 . S
C733 N736 1.384 . S
C734 H725 0.929 1_455 S
C734 C726 1.378 . S
C734 C729 1.350 . S
C735 H722 0.929 . S
C735 C727 1.433 . S
C735 N737 1.384 . S
N736 C732 1.427 . S
N736 C733 1.384 . S
N737 C729 1.427 . S
N737 C735 1.384 . S
H738 C744 0.930 . S
H739 C748 0.930 . S
H740 C753 0.929 . S
H741 C751 0.929 . S
H742 C746 0.929 . S
H743 C752 0.929 . S
C744 H738 0.930 . S
C744 C745 1.367 . S
C744 C752 1.378 . S
C745 C744 1.367 . S
C745 C753 1.433 . S
C746 H742 0.929 . S
C746 C748 1.378 . S
C746 C750 1.350 . S
C747 C750 1.463 1_565 S
C747 C752 1.350 . S
C747 N755 1.419 1_565 S
C748 H739 0.930 . S
C748 C746 1.378 . S
C748 C749 1.367 . S
C749 C748 1.367 . S
C749 C751 1.433 . S
C750 C746 1.350 . S
C750 C747 1.463 1_545 S
C750 N754 1.419 1_545 S
C751 H741 0.929 . S
C751 C749 1.433 . S
C751 N754 1.372 1_545 S
C752 H743 0.929 . S
C752 C744 1.378 . S
C752 C747 1.350 . S
C753 H740 0.929 . S
C753 C745 1.433 . S
C753 N755 1.371 1_565 S
N754 C750 1.419 1_565 S
N754 C751 1.372 1_565 S
N755 C747 1.419 1_545 S
N755 C753 1.371 1_545 S
H756 C762 0.930 . S
H757 C766 0.930 . S
H758 C771 0.929 . S
H759 C769 0.929 . S
H760 C764 0.929 . S
H761 C770 0.929 . S
C762 H756 0.930 . S
C762 C763 1.367 . S
C762 C770 1.378 . S
C763 C762 1.367 . S
C763 C771 1.433 . S
C764 H760 0.929 . S
C764 C766 1.378 . S
C764 C768 1.350 . S
C765 C768 1.463 . S
C765 C770 1.350 . S
C765 N773 1.427 . S
C766 H757 0.930 . S
C766 C764 1.378 . S
C766 C767 1.367 . S
C767 C766 1.367 . S
C767 C769 1.433 . S
C768 C764 1.350 . S
C768 C765 1.463 . S
C768 N772 1.427 . S
C769 H759 0.929 . S
C769 C767 1.433 . S
C769 N772 1.384 . S
C770 H761 0.929 . S
C770 C762 1.378 . S
C770 C765 1.350 . S
C771 H758 0.929 . S
C771 C763 1.433 . S
C771 N773 1.384 . S
N772 C768 1.427 . S
N772 C769 1.384 . S
N773 C765 1.427 . S
N773 C771 1.384 . S
H774 C780 0.930 . S
H775 C784 0.930 . S
H776 C789 0.929 . S
H777 C787 0.929 . S
H778 C782 0.929 . S
H779 C788 0.929 . S
C780 H774 0.930 . S
C780 C781 1.367 . S
C780 C788 1.378 . S
C781 C780 1.367 . S
C781 C789 1.433 . S
C782 H778 0.929 . S
C782 C784 1.378 . S
C782 C786 1.350 . S
C783 C786 1.463 . S
C783 C788 1.350 . S
C783 N791 1.427 . S
C784 H775 0.930 . S
C784 C782 1.378 . S
C784 C785 1.367 . S
C785 C784 1.367 . S
C785 C787 1.433 . S
C786 C782 1.350 . S
C786 C783 1.463 . S
C786 N790 1.427 . S
C787 H777 0.929 . S
C787 C785 1.433 . S
C787 N790 1.384 . S
C788 H779 0.929 . S
C788 C780 1.378 . S
C788 C783 1.350 . S
C789 H776 0.929 . S
C789 C781 1.433 . S
C789 N791 1.384 . S
N790 C786 1.427 . S
N790 C787 1.384 . S
N791 C783 1.427 . S
N791 C789 1.384 . S
H792 C798 0.930 . S
H793 C802 0.930 . S
H794 C807 0.929 . S
H795 C805 0.929 . S
H796 C800 0.929 . S
H797 C806 0.929 . S
C798 H792 0.930 . S
C798 C799 1.367 . S
C798 C806 1.378 1_554 S
C799 C798 1.367 . S
C799 C807 1.433 1_554 S
C800 H796 0.929 . S
C800 C802 1.378 . S
C800 C804 1.350 . S
C801 C804 1.463 . S
C801 C806 1.350 . S
C801 N809 1.427 . S
C802 H793 0.930 . S
C802 C800 1.378 . S
C802 C803 1.367 . S
C803 C802 1.367 . S
C803 C805 1.433 . S
C804 C800 1.350 . S
C804 C801 1.463 . S
C804 N808 1.427 . S
C805 H795 0.929 . S
C805 C803 1.433 . S
C805 N808 1.384 . S
C806 H797 0.929 . S
C806 C798 1.378 1_556 S
C806 C801 1.350 . S
C807 H794 0.929 . S
C807 C799 1.433 1_556 S
C807 N809 1.384 . S
N808 C804 1.427 . S
N808 C805 1.384 . S
N809 C801 1.427 . S
N809 C807 1.384 . S
H810 C816 0.930 . S
H811 C820 0.930 1_556 S
H812 C825 0.929 . S
H813 C823 0.929 . S
H814 C818 0.929 . S
H815 C824 0.929 . S
C816 H810 0.930 . S
C816 C817 1.367 . S
C816 C824 1.378 . S
C817 C816 1.367 . S
C817 C825 1.433 . S
C818 H814 0.929 . S
C818 C820 1.378 . S
C818 C822 1.350 . S
C819 C822 1.463 . S
C819 C824 1.350 . S
C819 N827 1.427 . S
C820 H811 0.930 1_554 S
C820 C818 1.378 . S
C820 C821 1.367 1_554 S
C821 C820 1.367 1_556 S
C821 C823 1.433 1_556 S
C822 C818 1.350 . S
C822 C819 1.463 . S
C822 N826 1.427 . S
C823 H813 0.929 . S
C823 C821 1.433 1_554 S
C823 N826 1.384 . S
C824 H815 0.929 . S
C824 C816 1.378 . S
C824 C819 1.350 . S
C825 H812 0.929 . S
C825 C817 1.433 . S
C825 N827 1.384 . S
N826 C822 1.427 . S
N826 C823 1.384 . S
N827 C819 1.427 . S
N827 C825 1.384 . S
H828 C834 0.930 . S
H829 C838 0.930 . S
H830 C843 0.929 . S
H831 C841 0.929 . S
H832 C836 0.929 . S
H833 C842 0.929 . S
C834 H828 0.930 . S
C834 C835 1.367 . S
C834 C842 1.378 . S
C835 C834 1.367 . S
C835 C843 1.433 . S
C836 H832 0.929 . S
C836 C838 1.378 . S
C836 C840 1.350 . S
C837 C840 1.463 . S
C837 C842 1.350 . S
C837 N845 1.427 . S
C838 H829 0.930 . S
C838 C836 1.378 . S
C838 C839 1.367 . S
C839 C838 1.367 . S
C839 C841 1.433 . S
C840 C836 1.350 . S
C840 C837 1.463 . S
C840 N844 1.427 . S
C841 H831 0.929 . S
C841 C839 1.433 . S
C841 N844 1.384 . S
C842 H833 0.929 . S
C842 C834 1.378 . S
C842 C837 1.350 . S
C843 H830 0.929 . S
C843 C835 1.433 . S
C843 N845 1.384 . S
N844 C840 1.427 . S
N844 C841 1.384 . S
N845 C837 1.427 . S
N845 C843 1.384 . S
H846 C852 0.930 . S
H847 C856 0.930 . S
H848 C861 0.929 . S
H849 C859 0.929 . S
H850 C854 0.929 . S
H851 C860 0.929 . S
C852 H846 0.930 . S
C852 C853 1.367 . S
C852 C860 1.378 . S
C853 C852 1.367 . S
C853 C861 1.433 . S
C854 H850 0.929 . S
C854 C856 1.378 . S
C854 C858 1.350 . S
C855 C858 1.463 . S
C855 C860 1.350 . S
C855 N863 1.427 . S
C856 H847 0.930 . S
C856 C854 1.378 . S
C856 C857 1.367 . S
C857 C856 1.367 . S
C857 C859 1.433 . S
C858 C854 1.350 . S
C858 C855 1.463 . S
C858 N862 1.427 . S
C859 H849 0.929 . S
C859 C857 1.433 . S
C859 N862 1.384 . S
C860 H851 0.929 . S
C860 C852 1.378 . S
C860 C855 1.350 . S
C861 H848 0.929 . S
C861 C853 1.433 . S
C861 N863 1.384 . S
N862 C858 1.427 . S
N862 C859 1.384 . S
N863 C855 1.427 . S
N863 C861 1.384 . S
C439 C328 1.480 . S
C443 C4 1.463 . S
C457 C40 1.457 . S
C461 C364 1.455 . S
C475 C400 1.466 . S
C479 C76 1.462 . S
C493 C220 1.459 . S
C497 C112 1.466 . S
C511 C256 1.464 . S
C515 C148 1.470 . S
C529 C292 1.464 . S
C533 C184 1.464 . S
C547 C230 1.386 . S
C551 C14 1.381 . S
C565 C50 1.387 . S
C569 C266 1.381 . S
C583 C302 1.395 . S
C587 C86 1.373 . S
C601 C122 1.385 . S
C605 C338 1.382 . S
C619 C374 1.381 . S
C623 C158 1.389 . S
C637 C194 1.374 . S
C641 C410 1.394 . S
C655 C326 1.392 . S
C659 C2 1.393 . S
C673 C362 1.392 . S
C677 C38 1.392 . S
C691 C398 1.392 . S
C695 C74 1.393 . S
C709 C110 1.393 . S
C713 C218 1.392 . S
C727 C254 1.391 . S
C731 C146 1.393 . S
C745 C182 1.392 . S
C749 C290 1.393 . S
C763 C3 1.209 . S
C767 C291 1.209 . S
C781 C327 1.206 . S
C785 C39 1.206 . S
C799 C363 1.209 . S
C803 C75 1.209 . S
C817 C399 1.208 . S
C821 C111 1.208 . S
C835 C219 1.205 . S
C839 C147 1.205 . S
C853 C255 1.210 . S
C857 C183 1.210 . S
