# Generated by pormake.
# Topology xfu, (5)-cn, num edge types: 1
# Building blocks:
#     Node 0, Type 0, BuildingBlock: XOMCOT_clean_sbu_0, # of connection points: 5
#     Node 1, Type 0, BuildingBlock: XOMCOT_clean_sbu_0, # of connection points: 5
#     Node 2, Type 0, BuildingBlock: XOMCOT_clean_sbu_0, # of connection points: 5
#     Node 3, Type 0, BuildingBlock: XOMCOT_clean_sbu_0, # of connection points: 5
#     Node 4, Type 0, BuildingBlock: XOMCOT_clean_sbu_0, # of connection points: 5
#     Node 5, Type 0, BuildingBlock: XOMCOT_clean_sbu_0, # of connection points: 5
#     Node 6, Type 0, BuildingBlock: XOMCOT_clean_sbu_0, # of connection points: 5
#     Node 7, Type 0, BuildingBlock: XOMCOT_clean_sbu_0, # of connection points: 5
#     Edge 8, Type (0, 0), BuildingBlock: XIVTED_clean_linker_0, # of connection points: 2
#     Edge 9, Type (0, 0), BuildingBlock: XIVTED_clean_linker_0, # of connection points: 2
#     Edge 10, Type (0, 0), BuildingBlock: XIVTED_clean_linker_0, # of connection points: 2
#     Edge 11, Type (0, 0), BuildingBlock: XIVTED_clean_linker_0, # of connection points: 2
#     Edge 12, Type (0, 0), BuildingBlock: XIVTED_clean_linker_0, # of connection points: 2
#     Edge 13, Type (0, 0), BuildingBlock: XIVTED_clean_linker_0, # of connection points: 2
#     Edge 14, Type (0, 0), BuildingBlock: XIVTED_clean_linker_0, # of connection points: 2
#     Edge 15, Type (0, 0), BuildingBlock: XIVTED_clean_linker_0, # of connection points: 2
#     Edge 16, Type (0, 0), BuildingBlock: XIVTED_clean_linker_0, # of connection points: 2
#     Edge 17, Type (0, 0), BuildingBlock: XIVTED_clean_linker_0, # of connection points: 2
#     Edge 18, Type (0, 0), BuildingBlock: XIVTED_clean_linker_0, # of connection points: 2
#     Edge 19, Type (0, 0), BuildingBlock: XIVTED_clean_linker_0, # of connection points: 2
#     Edge 20, Type (0, 0), BuildingBlock: XIVTED_clean_linker_0, # of connection points: 2
#     Edge 21, Type (0, 0), BuildingBlock: XIVTED_clean_linker_0, # of connection points: 2
#     Edge 22, Type (0, 0), BuildingBlock: XIVTED_clean_linker_0, # of connection points: 2
#     Edge 23, Type (0, 0), BuildingBlock: XIVTED_clean_linker_0, # of connection points: 2
#     Edge 24, Type (0, 0), BuildingBlock: XIVTED_clean_linker_0, # of connection points: 2
#     Edge 25, Type (0, 0), BuildingBlock: XIVTED_clean_linker_0, # of connection points: 2
#     Edge 26, Type (0, 0), BuildingBlock: XIVTED_clean_linker_0, # of connection points: 2
#     Edge 27, Type (0, 0), BuildingBlock: XIVTED_clean_linker_0, # of connection points: 2
# Relax obj value: 0.384
# Max RMSD: 0.269
# Mean RMSD: 0.269
data_MOF--net-xfu--node1-XOMCOT_clean_sbu_0--edge1-XIVTED_clean_linker_0
_symmetry_space_group_name_H-M    P1
_symmetry_Int_Tables_number       1
_symmetry_cell_setting            triclinic
loop_
_symmetry_equiv_pos_as_xyz
'x, y, z'
_cell_length_a     30.348727
_cell_length_b     30.271493
_cell_length_c     50.022618
_cell_angle_alpha  90.021295
_cell_angle_beta   89.899355
_cell_angle_gamma 89.906291
loop_
_atom_site_label
_atom_site_type_symbol
_atom_site_fract_x
_atom_site_fract_y
_atom_site_fract_z
_atom_type_partial_charge
Co0 Co 0.12349 0.24116 0.61588 0.0
C1 C 0.1033 0.16599 0.58129 0.0
C2 C 0.13623 0.14477 0.61702 0.0
C3 C 0.12973 0.10853 0.60082 0.0
N4 N 0.11951 0.18058 0.60468 0.0
N5 N 0.10934 0.12212 0.57831 0.0
H6 H 0.08818 0.18732 0.56656 0.0
H7 H 0.15336 0.14516 0.63595 0.0
C8 C 0.10786 0.23814 0.67527 0.0
O9 O 0.0822 0.27303 0.67358 0.0
N10 N 0.12875 0.30264 0.62698 0.0
C11 C 0.1113 0.3391 0.61558 0.0
C12 C 0.12261 0.3755 0.6305 0.0
C13 C 0.1527 0.318 0.64771 0.0
N14 N 0.14823 0.36209 0.6509 0.0
C15 C 0.03975 0.26827 0.59576 0.0
C16 C 0.98885 0.22412 0.63291 0.0
C17 C 0.96841 0.25245 0.6146 0.0
C18 C -0.00572 0.27357 0.59531 0.0
C19 C 0.03458 0.21961 0.63249 0.0
N20 N 0.05965 0.24437 0.61545 0.0
H21 H 0.05885 0.28348 0.58013 0.0
H22 H 0.04956 0.196 0.64583 0.0
H23 H 0.09205 0.34008 0.59756 0.0
H24 H 0.17144 0.29694 0.66096 0.0
O25 O 0.13524 0.25909 0.57947 0.0
O26 O 0.18576 0.23958 0.6094 0.0
O27 O 0.1251 0.22108 0.65434 0.0
C28 C 0.17645 0.2528 0.58531 0.0
H29 H 0.14092 0.07519 0.60476 0.0
H30 H 0.11244 0.4092 0.6267 0.0
H31 H 0.96968 0.20548 0.64728 0.0
H32 H 0.97972 0.29482 0.5803 0.0
Co33 Co 0.84147 0.64016 0.11058 0.0
C34 C 0.9127 0.59927 0.07835 0.0
C35 C 0.9377 0.63249 0.11291 0.0
C36 C 0.97281 0.61877 0.09761 0.0
N37 N 0.89992 0.61954 0.10111 0.0
N38 N 0.95695 0.59804 0.07583 0.0
H39 H 0.89048 0.58935 0.06268 0.0
H40 H 0.93971 0.65309 0.13052 0.0
C41 C 0.87903 0.61526 0.16493 0.0
O42 O 0.8949 0.57756 0.15609 0.0
N43 N 0.78371 0.66177 0.12029 0.0
C44 C 0.74479 0.6513 0.10902 0.0
C45 C 0.7113 0.66616 0.1255 0.0
C46 C 0.7735 0.68337 0.14298 0.0
N47 N 0.72963 0.68574 0.14702 0.0
C48 C 0.81403 0.55725 0.08933 0.0
C49 C 0.78764 0.51997 0.13711 0.0
C50 C 0.78616 0.49433 0.11375 0.0
C51 C 0.79798 0.51427 0.08949 0.0
C52 C 0.80276 0.5634 0.13587 0.0
N53 N 0.81875 0.58041 0.1125 0.0
H54 H 0.82172 0.57212 0.07036 0.0
H55 H 0.80121 0.58323 0.15375 0.0
H56 H 0.74106 0.63161 0.09113 0.0
H57 H 0.79771 0.69536 0.15696 0.0
O58 O 0.82895 0.65285 0.07343 0.0
O59 O 0.86012 0.69894 0.10236 0.0
O60 O 0.85807 0.64121 0.1494 0.0
C61 C 0.84613 0.69137 0.07824 0.0
H62 H 0.00721 0.62535 0.10162 0.0
H63 H 0.67645 0.66003 0.12287 0.0
H64 H 0.77795 0.50668 0.15631 0.0
H65 H 0.79482 0.49699 0.07064 0.0
Co66 Co 0.49747 0.36561 0.62052 0.0
C67 C 0.5301 0.43789 0.58696 0.0
C68 C 0.49525 0.46239 0.62134 0.0
C69 C 0.50637 0.49764 0.60533 0.0
N70 N 0.51012 0.42513 0.6097 0.0
N71 N 0.5281 0.48206 0.58372 0.0
H72 H 0.54338 0.41506 0.57235 0.0
H73 H 0.47594 0.46368 0.63951 0.0
C74 C 0.51709 0.36915 0.67952 0.0
O75 O 0.54309 0.33461 0.67704 0.0
N76 N 0.48286 0.3054 0.63144 0.0
C77 C 0.48527 0.26772 0.61697 0.0
C78 C 0.47004 0.23302 0.6322 0.0
C79 C 0.46329 0.29313 0.65453 0.0
N80 N 0.45679 0.24915 0.65595 0.0
C81 C 0.57594 0.32161 0.60374 0.0
C82 C 0.63385 0.37089 0.63408 0.0
C83 C 0.65013 0.33651 0.61813 0.0
C84 C 0.62068 0.31216 0.60253 0.0
C85 C 0.58865 0.37938 0.63455 0.0
N86 N 0.5601 0.35323 0.6206 0.0
H87 H 0.55435 0.30425 0.59043 0.0
H88 H 0.57664 0.40714 0.64603 0.0
H89 H 0.49585 0.26517 0.59644 0.0
H90 H 0.45264 0.31587 0.66987 0.0
O91 O 0.485 0.35014 0.5839 0.0
O92 O 0.43623 0.37593 0.6133 0.0
O93 O 0.49785 0.38542 0.65903 0.0
C94 C 0.44471 0.36183 0.58922 0.0
H95 H 0.49788 0.53188 0.6089 0.0
H96 H 0.46934 0.1986 0.62635 0.0
H97 H 0.65586 0.3915 0.64567 0.0
H98 H 0.63203 0.28589 0.58951 0.0
Co99 Co 0.7566 0.01264 0.12843 0.0
C100 C 0.6838 0.03492 0.0924 0.0
C101 C 0.66132 -0.00325 0.12591 0.0
C102 C 0.62634 0.00361 0.10891 0.0
N103 N 0.69713 0.0165 0.11548 0.0
N104 N 0.64067 0.02737 0.08778 0.0
H105 H 0.70562 0.05249 0.079 0.0
H106 H 0.66104 0.97715 0.14398 0.0
C107 C 0.7493 0.02412 0.18754 0.0
O108 O 0.78468 0.04906 0.18701 0.0
N109 N 0.81662 0.00684 0.14166 0.0
C110 C 0.85323 0.03037 0.13595 0.0
C111 C 0.88782 0.01403 0.15071 0.0
C112 C 0.83009 0.97559 0.15914 0.0
N113 N 0.87316 0.97971 0.16534 0.0
C114 C 0.78214 0.09855 0.111 0.0
C115 C 0.72508 0.14531 0.14353 0.0
C116 C 0.75143 0.16834 0.12525 0.0
C117 C 0.78041 0.14429 0.10895 0.0
C118 C 0.72836 0.09943 0.14518 0.0
N119 N 0.75793 0.07666 0.12976 0.0
H120 H 0.80205 0.08068 0.09677 0.0
H121 H 0.70528 0.0823 0.15787 0.0
H122 H 0.85567 0.05756 0.12224 0.0
H123 H 0.8082 0.95148 0.16801 0.0
O124 O 0.77769 0.00424 0.0923 0.0
O125 O 0.75649 0.95081 0.12 0.0
O126 O 0.73346 0.00808 0.166 0.0
C127 C 0.77075 0.96252 0.0965 0.0
H128 H 0.59353 0.9902 0.11128 0.0
H129 H 0.92119 0.02659 0.15074 0.0
H130 H 0.70088 0.16229 0.15572 0.0
H131 H 0.80126 0.16048 0.09437 0.0
Co132 Co 0.98064 0.83274 0.38363 0.0
C133 C 0.02385 0.90029 0.41617 0.0
C134 C -0.00346 0.92818 0.38037 0.0
C135 C 0.01303 0.9619 0.39586 0.0
N136 N 0.00342 0.88975 0.3932 0.0
N137 N 0.0299 0.94431 0.41845 0.0
H138 H 0.03259 0.87623 0.43124 0.0
H139 H 0.97875 0.93173 0.36178 0.0
C140 C -0.00324 0.82816 0.32391 0.0
O141 O 0.01145 0.78743 0.32588 0.0
N142 N 0.95635 0.77532 0.37416 0.0
C143 C 0.96039 0.73637 0.38709 0.0
C144 C 0.94065 0.70379 0.37214 0.0
C145 C 0.93129 0.76618 0.35264 0.0
N146 N 0.92292 0.72257 0.35026 0.0
C147 C 0.05232 0.78063 0.40397 0.0
C148 C 0.11381 0.80804 0.36681 0.0
C149 C 0.12537 0.775 0.38509 0.0
C150 C 0.09444 0.76214 0.40436 0.0
C151 C 0.07143 0.82565 0.36724 0.0
N152 N 0.04031 0.80958 0.38439 0.0
H153 H 0.02972 0.77223 0.41978 0.0
H154 H 0.06406 0.85273 0.35398 0.0
H155 H 0.97638 0.73121 0.40601 0.0
H156 H 0.92143 0.79068 0.33812 0.0
O157 O 0.96349 0.8226 0.42051 0.0
O158 O 0.92227 0.85452 0.38927 0.0
O159 O 0.98509 0.84983 0.34469 0.0
C160 C 0.92657 0.84165 0.41392 0.0
H161 H 0.01035 -0.00319 0.39149 0.0
H162 H 0.94038 0.66885 0.37671 0.0
H163 H 0.1376 0.82094 0.35267 0.0
H164 H 0.1026 0.73803 0.41956 0.0
Co165 Co 0.24711 0.46889 0.88376 0.0
C166 C 0.17133 0.507 0.91313 0.0
C167 C 0.15072 0.46606 0.88059 0.0
C168 C 0.114 0.47844 0.89493 0.0
N169 N 0.18665 0.48464 0.89173 0.0
N170 N 0.12713 0.50407 0.91546 0.0
H171 H 0.19207 0.52173 0.92812 0.0
H172 H 0.15139 0.44302 0.86406 0.0
C173 C 0.20866 0.49103 0.8294 0.0
O174 O 0.18705 0.52502 0.83922 0.0
N175 N 0.30718 0.45224 0.87595 0.0
C176 C 0.34378 0.46441 0.88928 0.0
C177 C 0.38018 0.45316 0.87408 0.0
C178 C 0.32163 0.43313 0.85332 0.0
N179 N 0.36589 0.43407 0.85136 0.0
C180 C 0.26983 0.55237 0.90653 0.0
C181 C 0.29516 0.59303 0.85956 0.0
C182 C 0.29758 0.61693 0.88354 0.0
C183 C 0.2855 0.59554 0.9073 0.0
C184 C 0.28027 0.54946 0.8598 0.0
N185 N 0.26548 0.53038 0.88288 0.0
H186 H 0.26277 0.53621 0.92522 0.0
H187 H 0.28209 0.531 0.84143 0.0
H188 H 0.34393 0.48291 0.90778 0.0
H189 H 0.30024 0.42065 0.83791 0.0
O190 O 0.25741 0.45605 0.92119 0.0
O191 O 0.23252 0.40852 0.89095 0.0
O192 O 0.23349 0.46759 0.84434 0.0
C193 C 0.24384 0.41642 0.91553 0.0
H194 H 0.08055 0.46783 0.89116 0.0
H195 H 0.41409 0.46161 0.87836 0.0
H196 H 0.30474 0.60755 0.84066 0.0
H197 H 0.289 0.6115 0.92655 0.0
Co198 Co 0.59819 0.77083 0.38138 0.0
C199 C 0.58743 0.69347 0.41533 0.0
C200 C 0.63442 0.68045 0.38419 0.0
C201 C 0.63173 0.64373 0.40047 0.0
N202 N 0.6065 0.71133 0.39366 0.0
N203 N 0.60206 0.65213 0.41998 0.0
H204 H 0.56454 0.71121 0.42802 0.0
H205 H 0.65585 0.68469 0.36708 0.0
C206 C 0.58997 0.76424 0.32189 0.0
O207 O 0.55664 0.79195 0.32287 0.0
N208 N 0.59114 0.83117 0.36897 0.0
C209 C 0.55816 0.86063 0.37259 0.0
C210 C 0.56748 0.89821 0.35815 0.0
C211 C 0.62042 0.85184 0.35302 0.0
N212 N 0.60661 0.89248 0.34591 0.0
C213 C 0.5093 0.77714 0.39945 0.0
C214 C 0.47409 0.71639 0.36425 0.0
C215 C 0.4465 0.73661 0.3831 0.0
C216 C 0.46472 0.76696 0.40104 0.0
C217 C 0.51869 0.72744 0.36345 0.0
N218 N 0.53536 0.7592 0.38002 0.0
H219 H 0.52292 0.79951 0.41405 0.0
H220 H 0.53987 0.7092 0.35009 0.0
H221 H 0.52873 0.85575 0.38421 0.0
H222 H 0.65013 0.83631 0.34552 0.0
O223 O 0.60253 0.79174 0.41798 0.0
O224 O 0.6585 0.78323 0.38964 0.0
O225 O 0.60821 0.75085 0.34343 0.0
C226 C 0.64459 0.79398 0.41335 0.0
H227 H 0.65041 0.61347 0.39823 0.0
H228 H 0.54669 0.92715 0.35636 0.0
H229 H 0.46154 0.69157 0.35066 0.0
H230 H 0.44465 0.78318 0.41606 0.0
Co231 Co 0.35808 0.09443 0.87921 0.0
C232 C 0.43126 0.07881 0.91612 0.0
C233 C 0.45194 0.11735 0.88234 0.0
C234 C 0.48692 0.1133 0.89967 0.0
N235 N 0.41727 0.09559 0.89273 0.0
N236 N 0.4737 0.08929 0.92095 0.0
H237 H 0.4104 0.06011 0.92952 0.0
H238 H 0.45139 0.13623 0.864 0.0
C239 C 0.36799 0.0837 0.81981 0.0
O240 O 0.33654 0.0539 0.81976 0.0
N241 N 0.29817 0.09472 0.86543 0.0
C242 C 0.26359 0.06859 0.87164 0.0
C243 C 0.22836 0.08003 0.85582 0.0
C244 C 0.28267 0.12286 0.8467 0.0
N245 N 0.24052 0.114 0.84012 0.0
C246 C 0.33856 0.00788 0.89813 0.0
C247 C 0.39315 0.96213 0.86362 0.0
C248 C 0.36712 0.93841 0.88179 0.0
C249 C 0.34001 0.96207 0.89943 0.0
C250 C 0.39028 0.00821 0.86284 0.0
N251 N 0.36122 0.03034 0.87892 0.0
H252 H 0.31889 0.02526 0.9127 0.0
H253 H 0.41231 0.02588 0.84974 0.0
H254 H 0.26305 0.04278 0.88637 0.0
H255 H 0.30261 0.14793 0.83713 0.0
O256 O 0.33528 0.10335 0.91504 0.0
O257 O 0.35327 0.15642 0.88634 0.0
O258 O 0.38168 0.10011 0.84179 0.0
C259 C 0.33896 0.14525 0.90989 0.0
H260 H 0.51892 0.12858 0.89735 0.0
H261 H 0.19636 0.06427 0.85566 0.0
H262 H 0.41604 0.9454 0.85041 0.0
H263 H 0.31945 0.94551 0.914 0.0
H264 H 0.03102 0.91593 0.47012 0.0
H265 H 0.10675 0.15017 0.52688 0.0
H266 H 0.06366 0.0273 0.41997 0.0
H267 H 0.09024 0.03468 0.57639 0.0
H268 H 0.09 0.10576 0.48755 0.0
H269 H 0.05296 0.95843 0.50919 0.0
C270 C 0.0433 0.94909 0.4672 0.0
C271 C 0.04535 0.96804 0.44158 0.0
C272 C 0.09009 0.09005 0.507 0.0
C273 C 0.06979 0.01726 0.48649 0.0
C274 C 0.09927 0.1155 0.52951 0.0
C275 C 0.09956 0.09614 0.55499 0.0
C276 C 0.08089 0.04489 0.50996 0.0
C277 C 0.09061 0.05082 0.5571 0.0
C278 C 0.05556 0.97348 0.48962 0.0
C279 C 0.06086 0.01154 0.43929 0.0
N280 N 0.08143 0.02675 0.53488 0.0
N281 N 0.07228 0.03472 0.46145 0.0
H282 H 0.93413 0.53354 0.04096 0.0
H283 H 0.14429 0.57426 0.9474 0.0
H284 H 0.03531 0.62953 0.05781 0.0
H285 H 0.05022 0.46973 0.93421 0.0
H286 H 0.10267 0.59721 0.98679 0.0
H287 H 0.97434 0.51154 0.00069 0.0
C288 C 0.96478 0.54999 0.03617 0.0
C289 C 0.98137 0.5834 0.05278 0.0
C290 C 0.09106 0.5693 0.97525 0.0
C291 C 0.0276 0.55842 0.0068 0.0
C292 C 0.1149 0.5561 0.95279 0.0
C293 C 0.10095 0.51981 0.93754 0.0
C294 C 0.05288 0.54611 0.98256 0.0
C295 C 0.06207 0.49809 0.94518 0.0
C296 C 0.98779 0.53735 0.01324 0.0
C297 C 0.02154 0.60325 0.04581 0.0
N298 N 0.03949 0.51148 0.96722 0.0
N299 N 0.04319 0.59055 0.02331 0.0
H300 H 0.59566 0.46389 0.54992 0.0
H301 H 0.5257 0.65432 0.44804 0.0
H302 H 0.48864 0.5551 0.56367 0.0
H303 H 0.65098 0.58704 0.44305 0.0
H304 H 0.5083 0.61238 0.48813 0.0
H305 H 0.61373 0.50349 0.50858 0.0
C306 C 0.57607 0.49228 0.54424 0.0
C307 C 0.54071 0.50635 0.56025 0.0
C308 C 0.53963 0.60676 0.47829 0.0
C309 C 0.5609 0.55145 0.51312 0.0
C310 C 0.54967 0.63081 0.45541 0.0
C311 C 0.59016 0.62468 0.44234 0.0
C312 C 0.57014 0.57603 0.48819 0.0
C313 C 0.61934 0.59275 0.45242 0.0
C314 C 0.58644 0.51488 0.52074 0.0
C315 C 0.51654 0.5435 0.55214 0.0
N316 N 0.60883 0.56968 0.47486 0.0
N317 N 0.52695 0.56461 0.52908 0.0
H318 H 0.56249 0.0826 0.92571 0.0
H319 H 0.55223 0.03821 0.08336 0.0
H320 H 0.44147 0.07569 0.97095 0.0
H321 H 0.67309 0.04092 0.03777 0.0
H322 H 0.51109 0.05339 0.04247 0.0
H323 H 0.60384 0.069 0.96676 0.0
C324 C 0.54462 0.07832 0.94427 0.0
C325 C 0.49844 0.08018 0.94485 0.0
C326 C 0.54664 0.05078 0.04143 0.0
C327 C 0.54547 0.0644 0.99189 0.0
C328 C 0.57012 0.04195 0.06477 0.0
C329 C 0.61619 0.03825 0.06405 0.0
C330 C 0.56938 0.05589 0.01715 0.0
C331 C 0.63771 0.04407 0.03941 0.0
C332 C 0.56822 0.07039 0.96769 0.0
C333 C 0.47696 0.07386 0.96943 0.0
N334 N 0.6141 0.05247 0.01695 0.0
N335 N 0.50066 0.06633 0.99196 0.0
H336 H 0.18514 0.07098 0.80695 0.0
H337 H 0.11873 0.28355 0.722 0.0
H338 H 0.24027 0.19924 0.82351 0.0
H339 H 0.12649 0.1528 0.68798 0.0
H340 H 0.14738 0.25408 0.76437 0.0
H341 H 0.14709 0.10196 0.76811 0.0
C342 C 0.18867 0.10583 0.8026 0.0
C343 C 0.21585 0.13267 0.81837 0.0
C344 C 0.14235 0.23191 0.74766 0.0
C345 C 0.17246 0.16821 0.77415 0.0
C346 C 0.12573 0.24855 0.72364 0.0
C347 C 0.12032 0.22044 0.70159 0.0
C348 C 0.15259 0.1868 0.74967 0.0
C349 C 0.13041 0.17551 0.70454 0.0
C350 C 0.16725 0.12336 0.78039 0.0
C351 C 0.21985 0.17749 0.81167 0.0
N352 N 0.14594 0.16001 0.72818 0.0
N353 N 0.19826 0.19399 0.79004 0.0
H354 H 0.9457 0.64058 0.3326 0.0
H355 H 0.85573 0.6937 0.1874 0.0
H356 H 0.86694 0.7548 0.3129 0.0
H357 H 0.91098 0.56642 0.20744 0.0
H358 H 0.85878 0.71481 0.23389 0.0
H359 H 0.9308 0.6102 0.28826 0.0
C360 C 0.92447 0.65887 0.31922 0.0
C361 C 0.90797 0.70066 0.32639 0.0
C362 C 0.86998 0.68209 0.22831 0.0
C363 C 0.89168 0.66646 0.27545 0.0
C364 C 0.8682 0.66987 0.2016 0.0
C365 C 0.8827 0.62793 0.1934 0.0
C366 C 0.88708 0.65255 0.2472 0.0
C367 C 0.89947 0.59908 0.21287 0.0
C368 C 0.9163 0.64161 0.29381 0.0
C369 C 0.88109 0.72297 0.30806 0.0
N370 N 0.90142 0.61202 0.23894 0.0
N371 N 0.87421 0.70583 0.28337 0.0
H372 H 0.34146 0.45534 0.80132 0.0
H373 H 0.54035 0.3353 0.72862 0.0
H374 H 0.44739 0.39754 0.84675 0.0
H375 H 0.46021 0.43612 0.69159 0.0
H376 H 0.50697 0.3538 0.77194 0.0
H377 H 0.3832 0.4432 0.76039 0.0
C378 C 0.37347 0.43966 0.80258 0.0
C379 C 0.39084 0.42679 0.82732 0.0
C380 C 0.49727 0.37218 0.75433 0.0
C381 C 0.43925 0.41326 0.78053 0.0
C382 C 0.51632 0.36174 0.72962 0.0
C383 C 0.50276 0.3839 0.70636 0.0
C384 C 0.4642 0.40459 0.75561 0.0
C385 C 0.47145 0.41782 0.70887 0.0
C386 C 0.39754 0.43321 0.77926 0.0
C387 C 0.43299 0.40771 0.82796 0.0
N388 N 0.4529 0.42671 0.73296 0.0
N389 N 0.45573 0.40104 0.80479 0.0
H390 H 0.56479 0.94264 0.3091 0.0
H391 H 0.78679 0.02042 0.23717 0.0
H392 H 0.69368 0.90531 0.33739 0.0
H393 H 0.66323 0.00319 0.19594 0.0
H394 H 0.75142 -0.00453 0.27871 0.0
H395 H 0.59931 0.98299 0.2722 0.0
C396 C 0.60038 0.94368 0.3078 0.0
C397 C 0.62652 0.92048 0.32613 0.0
C398 C 0.73209 -0.00237 0.26057 0.0
C399 C 0.66606 0.96626 0.28411 0.0
C400 C 0.75211 0.01201 0.23698 0.0
C401 C 0.72789 0.01346 0.21315 0.0
C402 C 0.68746 0.98549 0.2603 0.0
C403 C 0.68314 0.00203 0.21386 0.0
C404 C 0.62 0.96637 0.28668 0.0
C405 C 0.67249 0.9224 0.32341 0.0
N406 N 0.66434 0.9885 0.23708 0.0
N407 N 0.69089 0.94482 0.30269 0.0
H408 H 0.97015 0.78597 0.27831 0.0
H409 H 0.93868 0.01094 0.19669 0.0
H410 H 0.00081 0.91479 0.31003 0.0
H411 H 0.86215 0.89414 0.18028 0.0
H412 H 0.9758 0.97166 0.23289 0.0
H413 H 0.94446 0.82112 0.23683 0.0
C414 C 0.9724 0.82153 0.27628 0.0
C415 C 0.9876 0.84765 0.29751 0.0
C416 C 0.95111 0.95452 0.22123 0.0
C417 C 0.95839 0.88777 0.25047 0.0
C418 C 0.93012 0.97681 0.20046 0.0
C419 C 0.89715 0.9558 0.18552 0.0
C420 C 0.93944 0.91071 0.227 0.0
C421 C 0.887 0.91166 0.19154 0.0
C422 C 0.95738 0.84153 0.25278 0.0
C423 C 0.98916 0.89358 0.29412 0.0
N424 N 0.90806 0.89051 0.21186 0.0
N425 N 0.97471 0.91219 0.27105 0.0
H426 H 0.25985 0.43335 0.80116 0.0
H427 H 0.10913 0.43597 0.67092 0.0
H428 H 0.14808 0.52033 0.79235 0.0
H429 H 0.21819 0.3467 0.68333 0.0
H430 H 0.12785 0.47379 0.7125 0.0
H431 H 0.24988 0.40803 0.75573 0.0
C432 C 0.23326 0.44739 0.78968 0.0
C433 C 0.2045 0.47873 0.80085 0.0
C434 C 0.14792 0.4462 0.70598 0.0
C435 C 0.19254 0.44935 0.74832 0.0
C436 C 0.13748 0.42474 0.68211 0.0
C437 C 0.16196 0.3878 0.67366 0.0
C438 C 0.18311 0.43065 0.72153 0.0
C439 C 0.19796 0.37448 0.68925 0.0
C440 C 0.22758 0.43283 0.76357 0.0
C441 C 0.17092 0.49595 0.78463 0.0
N442 N 0.20725 0.3957 0.71247 0.0
N443 N 0.16556 0.48069 0.75921 0.0
H444 H 0.66305 0.71364 0.31283 0.0
H445 H 0.6471 0.71946 0.15316 0.0
H446 H 0.55916 0.78308 0.27144 0.0
H447 H 0.76238 0.6789 0.19718 0.0
H448 H 0.61055 0.73762 0.19572 0.0
H449 H 0.69583 0.6944 0.26995 0.0
C450 C 0.64691 0.72465 0.29472 0.0
C451 C 0.60829 0.75014 0.29579 0.0
C452 C 0.64394 0.72495 0.19595 0.0
C453 C 0.64595 0.72824 0.2464 0.0
C454 C 0.66469 0.71451 0.17172 0.0
C455 C 0.70797 0.69809 0.17158 0.0
C456 C 0.6665 0.71826 0.22014 0.0
C457 C 0.72937 0.69231 0.19621 0.0
C458 C 0.66581 0.71379 0.27018 0.0
C459 C 0.58899 0.76343 0.27156 0.0
N460 N 0.70839 0.70221 0.2194 0.0
N461 N 0.60805 0.75235 0.24782 0.0
H462 H 0.34247 0.06394 0.76834 0.0
H463 H 0.46933 0.27164 0.70766 0.0
H464 H 0.42968 0.14824 0.81349 0.0
H465 H 0.41409 0.17012 0.65733 0.0
H466 H 0.44914 0.22878 0.7469 0.0
H467 H 0.36429 0.10303 0.72742 0.0
C468 C 0.36652 0.09024 0.76964 0.0
C469 C 0.38412 0.10291 0.79443 0.0
C470 C 0.44139 0.21574 0.7273 0.0
C471 C 0.40856 0.14801 0.74791 0.0
C472 C 0.45249 0.24049 0.70486 0.0
C473 C 0.44316 0.22455 0.67916 0.0
C474 C 0.42048 0.17473 0.72417 0.0
C475 C 0.42209 0.18345 0.67679 0.0
C476 C 0.37884 0.11258 0.7463 0.0
C477 C 0.41505 0.13734 0.79491 0.0
N478 N 0.41125 0.15995 0.69905 0.0
N479 N 0.42595 0.15883 0.77208 0.0
H480 H 0.91821 0.26804 0.65895 0.0
H481 H 0.70088 0.31906 0.57431 0.0
H482 H 0.91023 0.25701 0.57306 0.0
H483 H 0.70691 0.32975 0.66027 0.0
H484 H 0.77788 0.29618 0.57367 0.0
H485 H 0.84038 0.2889 0.66022 0.0
C486 C 0.89988 0.26948 0.64041 0.0
C487 C 0.9206 0.261 0.61585 0.0
C488 C 0.76246 0.30356 0.5927 0.0
C489 C 0.83208 0.28548 0.61709 0.0
C490 C 0.71851 0.31653 0.59307 0.0
C491 C 0.69756 0.32597 0.61741 0.0
C492 C 0.78563 0.29996 0.61686 0.0
C493 C 0.72204 0.323 0.64108 0.0
C494 C 0.85563 0.28175 0.64112 0.0
C495 C 0.89561 0.2639 0.59237 0.0
N496 N 0.76485 0.31003 0.64024 0.0
N497 N 0.85266 0.27604 0.59358 0.0
H498 H 0.7273 0.45234 0.14758 0.0
H499 H 0.75598 0.21746 0.07934 0.0
H500 H 0.81722 0.42734 0.08205 0.0
H501 H 0.7383 0.23016 0.16477 0.0
H502 H 0.75821 0.2977 0.07573 0.0
H503 H 0.71235 0.37298 0.15 0.0
C504 C 0.74387 0.43049 0.13368 0.0
C505 C 0.77378 0.4469 0.11461 0.0
C506 C 0.75354 0.28275 0.0952 0.0
C507 C 0.75539 0.35668 0.11679 0.0
C508 C 0.75262 0.23702 0.09736 0.0
C509 C 0.74808 0.21694 0.12252 0.0
C510 C 0.74914 0.30866 0.11824 0.0
C511 C 0.74198 0.24417 0.14499 0.0
C512 C 0.73499 0.38532 0.13501 0.0
C513 C 0.79327 0.41678 0.09673 0.0
N514 N 0.74294 0.28882 0.14235 0.0
N515 N 0.78364 0.37321 0.09824 0.0
H516 H 0.39389 0.7233 0.42686 0.0
H517 H 0.17386 0.74952 0.34171 0.0
H518 H 0.39039 0.72942 0.34069 0.0
H519 H 0.17916 0.75782 0.42779 0.0
H520 H 0.25119 0.72714 0.34112 0.0
H521 H 0.31349 0.72049 0.42761 0.0
C522 C 0.37615 0.72364 0.40809 0.0
C523 C 0.39869 0.7275 0.38369 0.0
C524 C 0.2353 0.73334 0.36016 0.0
C525 C 0.30691 0.72421 0.38438 0.0
C526 C 0.19128 0.74632 0.3605 0.0
C527 C 0.17036 0.75623 0.3848 0.0
C528 C 0.25862 0.73051 0.38431 0.0
C529 C 0.19404 0.75054 0.4086 0.0
C530 C 0.33032 0.72187 0.40852 0.0
C531 C 0.37427 0.72662 0.35993 0.0
N532 N 0.23714 0.73858 0.40774 0.0
N533 N 0.32959 0.72571 0.36089 0.0
H534 H 0.3736 0.88108 0.83929 0.0
H535 H 0.27103 0.68355 0.91717 0.0
H536 H 0.36043 0.88363 0.92532 0.0
H537 H 0.35887 0.65754 0.85077 0.0
H538 H 0.29625 0.75969 0.91779 0.0
H539 H 0.36303 0.80092 0.84024 0.0
C540 C 0.36924 0.86486 0.85839 0.0
C541 C 0.36704 0.88939 0.88222 0.0
C542 C 0.31016 0.7371 0.90323 0.0
C543 C 0.35378 0.79825 0.88321 0.0
C544 C 0.29597 0.69346 0.9029 0.0
C545 C 0.3129 0.66359 0.88396 0.0
C546 C 0.3407 0.75149 0.88413 0.0
C547 C 0.34416 0.6793 0.86545 0.0
C548 C 0.36301 0.81919 0.85886 0.0
C549 C 0.36089 0.86644 0.90635 0.0
N550 N 0.35675 0.72236 0.86581 0.0
N551 N 0.3537 0.82227 0.90618 0.0
H552 H 0.43901 0.2952 0.55303 0.0
H553 H 0.18123 0.32676 0.55491 0.0
H554 H 0.36915 0.40906 0.58304 0.0
H555 H 0.25173 0.20764 0.57495 0.0
H556 H 0.2498 0.35832 0.53721 0.0
H557 H 0.37035 0.26831 0.53313 0.0
C558 C 0.40963 0.31547 0.5544 0.0
C559 C 0.40897 0.35359 0.57029 0.0
C560 C 0.24965 0.32451 0.54431 0.0
C561 C 0.33139 0.3236 0.54745 0.0
C562 C 0.21073 0.30655 0.55439 0.0
C563 C 0.21166 0.26519 0.56689 0.0
C564 C 0.28901 0.30043 0.5466 0.0
C565 C 0.25034 0.24013 0.56592 0.0
C566 C 0.37064 0.30016 0.54302 0.0
C567 C 0.37039 0.37884 0.57147 0.0
N568 N 0.28787 0.25847 0.55635 0.0
N569 N 0.33272 0.36295 0.56061 0.0
H570 H 0.90632 0.75619 0.07049 0.0
H571 H 0.71709 0.89554 0.08237 0.0
H572 H 0.78037 0.70928 0.043 0.0
H573 H 0.84224 0.95511 0.0638 0.0
H574 H 0.73759 0.83117 0.0559 0.0
H575 H 0.88804 0.82976 0.05432 0.0
C576 C 0.87549 0.76115 0.06 0.0
C577 C 0.84399 0.72753 0.05892 0.0
C578 C 0.76021 0.85877 0.05676 0.0
C579 C 0.822 0.81152 0.04161 0.0
C580 C 0.74859 0.89524 0.07212 0.0
C581 C 0.77872 0.92952 0.07577 0.0
C582 C 0.80311 0.85582 0.04625 0.0
C583 C 0.81865 0.92852 0.06176 0.0
C584 C 0.86499 0.80315 0.05069 0.0
C585 C 0.80497 0.73498 0.04476 0.0
N586 N 0.83049 0.89134 0.0483 0.0
N587 N 0.79417 0.77684 0.03755 0.0
H588 H 0.69486 0.73828 0.44201 0.0
H589 H 0.90446 0.78719 0.45559 0.0
H590 H 0.66781 0.87624 0.42939 0.0
H591 H 0.86398 0.90527 0.41421 0.0
H592 H 0.83091 0.78208 0.47559 0.0
H593 H 0.76565 0.75721 0.46135 0.0
C594 C 0.70322 0.77282 0.44463 0.0
C595 C 0.67627 0.80584 0.43397 0.0
C596 C 0.83819 0.80947 0.46243 0.0
C597 C 0.75771 0.82819 0.45526 0.0
C598 C 0.88036 0.81264 0.4513 0.0
C599 C 0.88925 0.84558 0.4324 0.0
C600 C 0.80514 0.83911 0.45407 0.0
C601 C 0.85758 0.87835 0.42793 0.0
C602 C 0.74379 0.78385 0.45574 0.0
C603 C 0.6882 0.84999 0.43738 0.0
N604 N 0.81657 0.87376 0.43821 0.0
N605 N 0.72873 0.85991 0.4471 0.0
H606 H 0.26581 0.14735 0.94172 0.0
H607 H 0.18762 0.34756 0.9208 0.0
H608 H 0.38299 0.22021 0.92134 0.0
H609 H 0.30754 0.40206 0.9527 0.0
H610 H 0.20745 0.27581 0.93903 0.0
H611 H 0.23552 0.21411 0.96303 0.0
C612 C 0.28567 0.17703 0.94258 0.0
C613 C 0.32612 0.17926 0.92914 0.0
C614 C 0.22855 0.30371 0.94335 0.0
C615 C 0.29209 0.25479 0.95297 0.0
C616 C 0.21729 0.34466 0.9327 0.0
C617 C 0.24668 0.38004 0.93471 0.0
C618 C 0.27029 0.29811 0.95501 0.0
C619 C 0.28444 0.3751 0.95044 0.0
C620 C 0.2684 0.21499 0.95461 0.0
C621 C 0.35101 0.21793 0.93089 0.0
N622 N 0.29617 0.33423 0.9591 0.0
N623 N 0.33328 0.25451 0.9422 0.0
loop_
_geom_bond_atom_site_label_1
_geom_bond_atom_site_label_2
_geom_bond_distance
_geom_bond_site_symmetry_2
_ccdc_geom_bond_type
Co0 N4 2.148 . S
Co0 N10 2.128 . S
Co0 N20 2.194 . S
Co0 O25 2.351 . S
Co0 O26 2.155 . S
Co0 O27 2.096 . S
C1 N4 1.301 . S
C1 N5 1.328 . S
C1 H6 0.930 . S
C2 C3 1.333 . S
C2 N4 1.317 . S
C2 H7 0.930 . S
C3 C2 1.333 . S
C3 N5 1.350 . S
C3 H29 0.931 . S
N4 Co0 2.148 . S
N4 C1 1.301 . S
N4 C2 1.317 . S
N5 C1 1.328 . S
N5 C3 1.350 . S
H6 C1 0.930 . S
H7 C2 0.930 . S
C8 O9 1.224 . S
C8 O27 1.247 . S
O9 C8 1.224 . S
N10 Co0 2.128 . S
N10 C11 1.355 . S
N10 C13 1.311 . S
C11 N10 1.355 . S
C11 C12 1.363 . S
C11 H23 0.929 . S
C12 C11 1.363 . S
C12 N14 1.375 . S
C12 H30 0.931 . S
C13 N10 1.311 . S
C13 N14 1.347 . S
C13 H24 0.929 . S
N14 C12 1.375 . S
N14 C13 1.347 . S
C15 C18 1.365 1_455 S
C15 N20 1.328 . S
C15 H21 0.929 . S
C16 C17 1.362 . S
C16 C19 1.378 1_655 S
C16 H31 0.929 . S
C17 C16 1.362 . S
C17 C18 1.366 . S
C18 C15 1.365 1_655 S
C18 C17 1.366 . S
C18 H32 0.930 . S
C19 C16 1.378 1_455 S
C19 N20 1.315 . S
C19 H22 0.930 . S
N20 Co0 2.194 . S
N20 C15 1.328 . S
N20 C19 1.315 . S
H21 C15 0.929 . S
H22 C19 0.930 . S
H23 C11 0.929 . S
H24 C13 0.929 . S
O25 Co0 2.351 . S
O25 C28 1.244 . S
O26 Co0 2.155 . S
O26 C28 1.240 . S
O27 Co0 2.096 . S
O27 C8 1.247 . S
C28 O25 1.244 . S
C28 O26 1.240 . S
H29 C3 0.931 . S
H30 C12 0.931 . S
H31 C16 0.929 . S
H32 C18 0.930 . S
Co33 N37 2.148 . S
Co33 N43 2.128 . S
Co33 N53 2.194 . S
Co33 O58 2.351 . S
Co33 O59 2.155 . S
Co33 O60 2.096 . S
C34 N37 1.301 . S
C34 N38 1.328 . S
C34 H39 0.930 . S
C35 C36 1.333 . S
C35 N37 1.317 . S
C35 H40 0.930 . S
C36 C35 1.333 . S
C36 N38 1.350 . S
C36 H62 0.931 . S
N37 Co33 2.148 . S
N37 C34 1.301 . S
N37 C35 1.317 . S
N38 C34 1.328 . S
N38 C36 1.350 . S
H39 C34 0.930 . S
H40 C35 0.930 . S
C41 O42 1.224 . S
C41 O60 1.247 . S
O42 C41 1.224 . S
N43 Co33 2.128 . S
N43 C44 1.355 . S
N43 C46 1.311 . S
C44 N43 1.355 . S
C44 C45 1.363 . S
C44 H56 0.929 . S
C45 C44 1.363 . S
C45 N47 1.375 . S
C45 H63 0.931 . S
C46 N43 1.311 . S
C46 N47 1.347 . S
C46 H57 0.929 . S
N47 C45 1.375 . S
N47 C46 1.347 . S
C48 C51 1.365 . S
C48 N53 1.328 . S
C48 H54 0.929 . S
C49 C50 1.362 . S
C49 C52 1.378 . S
C49 H64 0.929 . S
C50 C49 1.362 . S
C50 C51 1.366 . S
C51 C48 1.365 . S
C51 C50 1.366 . S
C51 H65 0.930 . S
C52 C49 1.378 . S
C52 N53 1.315 . S
C52 H55 0.930 . S
N53 Co33 2.194 . S
N53 C48 1.328 . S
N53 C52 1.315 . S
H54 C48 0.929 . S
H55 C52 0.930 . S
H56 C44 0.929 . S
H57 C46 0.929 . S
O58 Co33 2.351 . S
O58 C61 1.244 . S
O59 Co33 2.155 . S
O59 C61 1.240 . S
O60 Co33 2.096 . S
O60 C41 1.247 . S
C61 O58 1.244 . S
C61 O59 1.240 . S
H62 C36 0.931 . S
H63 C45 0.931 . S
H64 C49 0.929 . S
H65 C51 0.930 . S
Co66 N70 2.148 . S
Co66 N76 2.128 . S
Co66 N86 2.194 . S
Co66 O91 2.351 . S
Co66 O92 2.155 . S
Co66 O93 2.096 . S
C67 N70 1.301 . S
C67 N71 1.328 . S
C67 H72 0.930 . S
C68 C69 1.333 . S
C68 N70 1.317 . S
C68 H73 0.930 . S
C69 C68 1.333 . S
C69 N71 1.350 . S
C69 H95 0.931 . S
N70 Co66 2.148 . S
N70 C67 1.301 . S
N70 C68 1.317 . S
N71 C67 1.328 . S
N71 C69 1.350 . S
H72 C67 0.930 . S
H73 C68 0.930 . S
C74 O75 1.224 . S
C74 O93 1.247 . S
O75 C74 1.224 . S
N76 Co66 2.128 . S
N76 C77 1.355 . S
N76 C79 1.311 . S
C77 N76 1.355 . S
C77 C78 1.363 . S
C77 H89 0.929 . S
C78 C77 1.363 . S
C78 N80 1.375 . S
C78 H96 0.931 . S
C79 N76 1.311 . S
C79 N80 1.347 . S
C79 H90 0.929 . S
N80 C78 1.375 . S
N80 C79 1.347 . S
C81 C84 1.365 . S
C81 N86 1.328 . S
C81 H87 0.929 . S
C82 C83 1.362 . S
C82 C85 1.378 . S
C82 H97 0.929 . S
C83 C82 1.362 . S
C83 C84 1.366 . S
C84 C81 1.365 . S
C84 C83 1.366 . S
C84 H98 0.930 . S
C85 C82 1.378 . S
C85 N86 1.315 . S
C85 H88 0.930 . S
N86 Co66 2.194 . S
N86 C81 1.328 . S
N86 C85 1.315 . S
H87 C81 0.929 . S
H88 C85 0.930 . S
H89 C77 0.929 . S
H90 C79 0.929 . S
O91 Co66 2.351 . S
O91 C94 1.244 . S
O92 Co66 2.155 . S
O92 C94 1.240 . S
O93 Co66 2.096 . S
O93 C74 1.247 . S
C94 O91 1.244 . S
C94 O92 1.240 . S
H95 C69 0.931 . S
H96 C78 0.931 . S
H97 C82 0.929 . S
H98 C84 0.930 . S
Co99 N103 2.148 1_565 S
Co99 N109 2.128 . S
Co99 N119 2.195 1_565 S
Co99 O124 2.351 . S
Co99 O125 2.153 . S
Co99 O126 2.095 . S
C100 N103 1.301 . S
C100 N104 1.328 . S
C100 H105 0.930 . S
C101 C102 1.333 . S
C101 N103 1.317 . S
C101 H106 0.926 1_545 S
C102 C101 1.333 . S
C102 N104 1.350 . S
C102 H128 0.931 . S
N103 Co99 2.148 1_545 S
N103 C100 1.301 . S
N103 C101 1.317 . S
N104 C100 1.328 . S
N104 C102 1.350 . S
H105 C100 0.930 . S
H106 C101 0.926 1_565 S
C107 O108 1.224 1_565 S
C107 O126 1.247 . S
O108 C107 1.224 1_545 S
N109 Co99 2.128 . S
N109 C110 1.352 1_565 S
N109 C112 1.313 . S
C110 N109 1.352 1_545 S
C110 C111 1.363 . S
C110 H122 0.929 . S
C111 C110 1.363 . S
C111 N113 1.375 1_545 S
C111 H129 0.931 . S
C112 N109 1.313 . S
C112 N113 1.347 . S
C112 H123 0.929 . S
N113 C111 1.375 1_565 S
N113 C112 1.347 . S
C114 C117 1.365 . S
C114 N119 1.328 . S
C114 H120 0.929 . S
C115 C116 1.362 . S
C115 C118 1.378 . S
C115 H130 0.929 . S
C116 C115 1.362 . S
C116 C117 1.366 . S
C117 C114 1.365 . S
C117 C116 1.366 . S
C117 H131 0.930 . S
C118 C115 1.378 . S
C118 N119 1.315 . S
C118 H121 0.930 . S
N119 Co99 2.195 1_545 S
N119 C114 1.328 . S
N119 C118 1.315 . S
H120 C114 0.929 . S
H121 C118 0.930 . S
H122 C110 0.929 . S
H123 C112 0.929 . S
O124 Co99 2.351 . S
O124 C127 1.244 . S
O125 Co99 2.153 . S
O125 C127 1.240 . S
O126 Co99 2.095 . S
O126 C107 1.247 . S
C127 O124 1.244 . S
C127 O125 1.240 . S
H128 C102 0.931 . S
H129 C111 0.931 . S
H130 C115 0.929 . S
H131 C117 0.930 . S
Co132 N136 2.148 1_655 S
Co132 N142 2.128 . S
Co132 N152 2.194 1_655 S
Co132 O157 2.351 . S
Co132 O158 2.154 . S
Co132 O159 2.095 . S
C133 N136 1.301 . S
C133 N137 1.328 . S
C133 H138 0.930 . S
C134 C135 1.333 . S
C134 N136 1.317 . S
C134 H139 0.926 1_455 S
C135 C134 1.333 . S
C135 N137 1.350 . S
C135 H161 0.931 . S
N136 Co132 2.148 1_455 S
N136 C133 1.301 . S
N136 C134 1.317 . S
N137 C133 1.328 . S
N137 C135 1.350 . S
H138 C133 0.930 . S
H139 C134 0.926 1_655 S
C140 O141 1.224 1_655 S
C140 O159 1.247 . S
O141 C140 1.224 1_455 S
N142 Co132 2.128 . S
N142 C143 1.351 1_655 S
N142 C145 1.313 . S
C143 N142 1.351 1_455 S
C143 C144 1.363 . S
C143 H155 0.929 . S
C144 C143 1.363 . S
C144 N146 1.375 1_455 S
C144 H162 0.931 . S
C145 N142 1.313 . S
C145 N146 1.347 . S
C145 H156 0.929 . S
N146 C144 1.375 1_655 S
N146 C145 1.347 . S
C147 C150 1.365 . S
C147 N152 1.328 . S
C147 H153 0.929 . S
C148 C149 1.362 . S
C148 C151 1.378 . S
C148 H163 0.929 . S
C149 C148 1.362 . S
C149 C150 1.366 . S
C150 C147 1.365 . S
C150 C149 1.366 . S
C150 H164 0.930 . S
C151 C148 1.378 . S
C151 N152 1.315 . S
C151 H154 0.930 . S
N152 Co132 2.194 1_455 S
N152 C147 1.328 . S
N152 C151 1.315 . S
H153 C147 0.929 . S
H154 C151 0.930 . S
H155 C143 0.929 . S
H156 C145 0.929 . S
O157 Co132 2.351 . S
O157 C160 1.244 . S
O158 Co132 2.154 . S
O158 C160 1.240 . S
O159 Co132 2.095 . S
O159 C140 1.247 . S
C160 O157 1.244 . S
C160 O158 1.240 . S
H161 C135 0.931 . S
H162 C144 0.931 . S
H163 C148 0.929 . S
H164 C150 0.930 . S
Co165 N169 2.148 . S
Co165 N175 2.128 . S
Co165 N185 2.194 . S
Co165 O190 2.351 . S
Co165 O191 2.155 . S
Co165 O192 2.096 . S
C166 N169 1.301 . S
C166 N170 1.328 . S
C166 H171 0.930 . S
C167 C168 1.333 . S
C167 N169 1.317 . S
C167 H172 0.930 . S
C168 C167 1.333 . S
C168 N170 1.350 . S
C168 H194 0.931 . S
N169 Co165 2.148 . S
N169 C166 1.301 . S
N169 C167 1.317 . S
N170 C166 1.328 . S
N170 C168 1.350 . S
H171 C166 0.930 . S
H172 C167 0.930 . S
C173 O174 1.224 . S
C173 O192 1.247 . S
O174 C173 1.224 . S
N175 Co165 2.128 . S
N175 C176 1.355 . S
N175 C178 1.311 . S
C176 N175 1.355 . S
C176 C177 1.363 . S
C176 H188 0.929 . S
C177 C176 1.363 . S
C177 N179 1.375 . S
C177 H195 0.931 . S
C178 N175 1.311 . S
C178 N179 1.347 . S
C178 H189 0.929 . S
N179 C177 1.375 . S
N179 C178 1.347 . S
C180 C183 1.365 . S
C180 N185 1.328 . S
C180 H186 0.929 . S
C181 C182 1.362 . S
C181 C184 1.378 . S
C181 H196 0.929 . S
C182 C181 1.362 . S
C182 C183 1.366 . S
C183 C180 1.365 . S
C183 C182 1.366 . S
C183 H197 0.930 . S
C184 C181 1.378 . S
C184 N185 1.315 . S
C184 H187 0.930 . S
N185 Co165 2.194 . S
N185 C180 1.328 . S
N185 C184 1.315 . S
H186 C180 0.929 . S
H187 C184 0.930 . S
H188 C176 0.929 . S
H189 C178 0.929 . S
O190 Co165 2.351 . S
O190 C193 1.244 . S
O191 Co165 2.155 . S
O191 C193 1.240 . S
O192 Co165 2.096 . S
O192 C173 1.247 . S
C193 O190 1.244 . S
C193 O191 1.240 . S
H194 C168 0.931 . S
H195 C177 0.931 . S
H196 C181 0.929 . S
H197 C183 0.930 . S
Co198 N202 2.148 . S
Co198 N208 2.128 . S
Co198 N218 2.194 . S
Co198 O223 2.351 . S
Co198 O224 2.155 . S
Co198 O225 2.096 . S
C199 N202 1.301 . S
C199 N203 1.328 . S
C199 H204 0.930 . S
C200 C201 1.333 . S
C200 N202 1.317 . S
C200 H205 0.930 . S
C201 C200 1.333 . S
C201 N203 1.350 . S
C201 H227 0.931 . S
N202 Co198 2.148 . S
N202 C199 1.301 . S
N202 C200 1.317 . S
N203 C199 1.328 . S
N203 C201 1.350 . S
H204 C199 0.930 . S
H205 C200 0.930 . S
C206 O207 1.224 . S
C206 O225 1.247 . S
O207 C206 1.224 . S
N208 Co198 2.128 . S
N208 C209 1.355 . S
N208 C211 1.311 . S
C209 N208 1.355 . S
C209 C210 1.363 . S
C209 H221 0.929 . S
C210 C209 1.363 . S
C210 N212 1.375 . S
C210 H228 0.931 . S
C211 N208 1.311 . S
C211 N212 1.347 . S
C211 H222 0.929 . S
N212 C210 1.375 . S
N212 C211 1.347 . S
C213 C216 1.365 . S
C213 N218 1.328 . S
C213 H219 0.929 . S
C214 C215 1.362 . S
C214 C217 1.378 . S
C214 H229 0.929 . S
C215 C214 1.362 . S
C215 C216 1.366 . S
C216 C213 1.365 . S
C216 C215 1.366 . S
C216 H230 0.930 . S
C217 C214 1.378 . S
C217 N218 1.315 . S
C217 H220 0.930 . S
N218 Co198 2.194 . S
N218 C213 1.328 . S
N218 C217 1.315 . S
H219 C213 0.929 . S
H220 C217 0.930 . S
H221 C209 0.929 . S
H222 C211 0.929 . S
O223 Co198 2.351 . S
O223 C226 1.244 . S
O224 Co198 2.155 . S
O224 C226 1.240 . S
O225 Co198 2.096 . S
O225 C206 1.247 . S
C226 O223 1.244 . S
C226 O224 1.240 . S
H227 C201 0.931 . S
H228 C210 0.931 . S
H229 C214 0.929 . S
H230 C216 0.930 . S
Co231 N235 2.148 . S
Co231 N241 2.128 . S
Co231 N251 2.194 . S
Co231 O256 2.351 . S
Co231 O257 2.155 . S
Co231 O258 2.096 . S
C232 N235 1.301 . S
C232 N236 1.328 . S
C232 H237 0.930 . S
C233 C234 1.333 . S
C233 N235 1.317 . S
C233 H238 0.930 . S
C234 C233 1.333 . S
C234 N236 1.350 . S
C234 H260 0.931 . S
N235 Co231 2.148 . S
N235 C232 1.301 . S
N235 C233 1.317 . S
N236 C232 1.328 . S
N236 C234 1.350 . S
H237 C232 0.930 . S
H238 C233 0.930 . S
C239 O240 1.224 . S
C239 O258 1.247 . S
O240 C239 1.224 . S
N241 Co231 2.128 . S
N241 C242 1.355 . S
N241 C244 1.311 . S
C242 N241 1.355 . S
C242 C243 1.363 . S
C242 H254 0.929 . S
C243 C242 1.363 . S
C243 N245 1.375 . S
C243 H261 0.931 . S
C244 N241 1.311 . S
C244 N245 1.347 . S
C244 H255 0.929 . S
N245 C243 1.375 . S
N245 C244 1.347 . S
C246 C249 1.365 1_545 S
C246 N251 1.328 . S
C246 H252 0.929 . S
C247 C248 1.362 . S
C247 C250 1.378 1_565 S
C247 H262 0.929 . S
C248 C247 1.362 . S
C248 C249 1.366 . S
C249 C246 1.365 1_565 S
C249 C248 1.366 . S
C249 H263 0.930 . S
C250 C247 1.378 1_545 S
C250 N251 1.315 . S
C250 H253 0.930 . S
N251 Co231 2.194 . S
N251 C246 1.328 . S
N251 C250 1.315 . S
H252 C246 0.929 . S
H253 C250 0.930 . S
H254 C242 0.929 . S
H255 C244 0.929 . S
O256 Co231 2.351 . S
O256 C259 1.244 . S
O257 Co231 2.155 . S
O257 C259 1.240 . S
O258 Co231 2.096 . S
O258 C239 1.247 . S
C259 O256 1.244 . S
C259 O257 1.240 . S
H260 C234 0.931 . S
H261 C243 0.931 . S
H262 C247 0.929 . S
H263 C249 0.930 . S
H264 C270 0.930 . S
H265 C274 0.930 . S
H266 C279 0.929 . S
H267 C277 0.929 . S
H268 C272 0.929 . S
H269 C278 0.929 . S
C270 H264 0.930 . S
C270 C271 1.367 . S
C270 C278 1.378 . S
C271 C270 1.367 . S
C271 C279 1.433 1_565 S
C272 H268 0.929 . S
C272 C274 1.378 . S
C272 C276 1.350 . S
C273 C276 1.463 . S
C273 C278 1.350 1_545 S
C273 N281 1.427 . S
C274 H265 0.930 . S
C274 C272 1.378 . S
C274 C275 1.367 . S
C275 C274 1.367 . S
C275 C277 1.433 . S
C276 C272 1.350 . S
C276 C273 1.463 . S
C276 N280 1.427 . S
C277 H267 0.929 . S
C277 C275 1.433 . S
C277 N280 1.384 . S
C278 H269 0.929 . S
C278 C270 1.378 . S
C278 C273 1.350 1_565 S
C279 H266 0.929 . S
C279 C271 1.433 1_545 S
C279 N281 1.384 . S
N280 C276 1.427 . S
N280 C277 1.384 . S
N281 C273 1.427 . S
N281 C279 1.384 . S
H282 C288 0.930 . S
H283 C292 0.930 . S
H284 C297 0.929 . S
H285 C295 0.929 . S
H286 C290 0.929 1_554 S
H287 C296 0.931 1_556 S
C288 H282 0.930 . S
C288 C289 1.367 . S
C288 C296 1.393 . S
C289 C288 1.367 . S
C289 C297 1.433 1_655 S
C290 H286 0.929 1_556 S
C290 C292 1.378 . S
C290 C294 1.350 . S
C291 C294 1.463 1_554 S
C291 C296 1.332 1_455 S
C291 N299 1.427 . S
C292 H283 0.930 . S
C292 C290 1.378 . S
C292 C293 1.367 . S
C293 C292 1.367 . S
C293 C295 1.433 . S
C294 C290 1.350 . S
C294 C291 1.463 1_556 S
C294 N298 1.427 . S
C295 H285 0.929 . S
C295 C293 1.433 . S
C295 N298 1.384 . S
C296 H287 0.931 1_554 S
C296 C288 1.393 . S
C296 C291 1.332 1_655 S
C297 H284 0.929 . S
C297 C289 1.433 1_455 S
C297 N299 1.384 . S
N298 C294 1.427 . S
N298 C295 1.384 . S
N299 C291 1.427 . S
N299 C297 1.384 . S
H300 C306 0.930 . S
H301 C310 0.930 . S
H302 C315 0.929 . S
H303 C313 0.929 . S
H304 C308 0.929 . S
H305 C314 0.929 . S
C306 H300 0.930 . S
C306 C307 1.367 . S
C306 C314 1.378 . S
C307 C306 1.367 . S
C307 C315 1.433 . S
C308 H304 0.929 . S
C308 C310 1.378 . S
C308 C312 1.350 . S
C309 C312 1.463 . S
C309 C314 1.350 . S
C309 N317 1.427 . S
C310 H301 0.930 . S
C310 C308 1.378 . S
C310 C311 1.367 . S
C311 C310 1.367 . S
C311 C313 1.433 . S
C312 C308 1.350 . S
C312 C309 1.463 . S
C312 N316 1.427 . S
C313 H303 0.929 . S
C313 C311 1.433 . S
C313 N316 1.384 . S
C314 H305 0.929 . S
C314 C306 1.378 . S
C314 C309 1.350 . S
C315 H302 0.929 . S
C315 C307 1.433 . S
C315 N317 1.384 . S
N316 C312 1.427 . S
N316 C313 1.384 . S
N317 C309 1.427 . S
N317 C315 1.384 . S
H318 C324 0.930 . S
H319 C328 0.930 . S
H320 C333 0.929 . S
H321 C331 0.929 1_565 S
H322 C326 0.929 . S
H323 C332 0.929 . S
C324 H318 0.930 . S
C324 C325 1.367 . S
C324 C332 1.378 . S
C325 C324 1.367 . S
C325 C333 1.433 . S
C326 H322 0.929 . S
C326 C328 1.378 . S
C326 C330 1.350 . S
C327 C330 1.463 1_556 S
C327 C332 1.350 . S
C327 N335 1.416 1_556 S
C328 H319 0.930 . S
C328 C326 1.378 . S
C328 C329 1.367 . S
C329 C328 1.367 . S
C329 C331 1.433 . S
C330 C326 1.350 . S
C330 C327 1.463 1_554 S
C330 N334 1.416 1_554 S
C331 H321 0.929 1_545 S
C331 C329 1.433 . S
C331 N334 1.364 1_554 S
C332 H323 0.929 . S
C332 C324 1.378 . S
C332 C327 1.350 . S
C333 H320 0.929 . S
C333 C325 1.433 . S
C333 N335 1.364 1_556 S
N334 C330 1.416 1_556 S
N334 C331 1.364 1_556 S
N335 C327 1.416 1_554 S
N335 C333 1.364 1_554 S
H336 C342 0.930 . S
H337 C346 0.930 . S
H338 C351 0.929 . S
H339 C349 0.929 . S
H340 C344 0.929 . S
H341 C350 0.929 . S
C342 H336 0.930 . S
C342 C343 1.367 . S
C342 C350 1.378 . S
C343 C342 1.367 . S
C343 C351 1.433 . S
C344 H340 0.929 . S
C344 C346 1.378 . S
C344 C348 1.350 . S
C345 C348 1.463 . S
C345 C350 1.350 . S
C345 N353 1.427 . S
C346 H337 0.930 . S
C346 C344 1.378 . S
C346 C347 1.367 . S
C347 C346 1.367 . S
C347 C349 1.433 . S
C348 C344 1.350 . S
C348 C345 1.463 . S
C348 N352 1.427 . S
C349 H339 0.929 . S
C349 C347 1.433 . S
C349 N352 1.384 . S
C350 H341 0.929 . S
C350 C342 1.378 . S
C350 C345 1.350 . S
C351 H338 0.929 . S
C351 C343 1.433 . S
C351 N353 1.384 . S
N352 C348 1.427 . S
N352 C349 1.384 . S
N353 C345 1.427 . S
N353 C351 1.384 . S
H354 C360 0.930 . S
H355 C364 0.930 . S
H356 C369 0.929 . S
H357 C367 0.929 . S
H358 C362 0.929 . S
H359 C368 0.929 1_455 S
C360 H354 0.930 . S
C360 C361 1.367 1_455 S
C360 C368 1.378 1_455 S
C361 C360 1.367 1_655 S
C361 C369 1.433 . S
C362 H358 0.929 . S
C362 C364 1.378 . S
C362 C366 1.350 . S
C363 C366 1.463 . S
C363 C368 1.350 . S
C363 N371 1.427 . S
C364 H355 0.930 . S
C364 C362 1.378 . S
C364 C365 1.367 . S
C365 C364 1.367 . S
C365 C367 1.433 . S
C366 C362 1.350 . S
C366 C363 1.463 . S
C366 N370 1.427 . S
C367 H357 0.929 . S
C367 C365 1.433 . S
C367 N370 1.384 . S
C368 H359 0.929 1_655 S
C368 C360 1.378 1_655 S
C368 C363 1.350 . S
C369 H356 0.929 . S
C369 C361 1.433 . S
C369 N371 1.384 . S
N370 C366 1.427 . S
N370 C367 1.384 . S
N371 C363 1.427 . S
N371 C369 1.384 . S
H372 C378 0.930 . S
H373 C382 0.930 . S
H374 C387 0.929 . S
H375 C385 0.929 . S
H376 C380 0.929 . S
H377 C386 0.929 . S
C378 H372 0.930 . S
C378 C379 1.367 . S
C378 C386 1.378 . S
C379 C378 1.367 . S
C379 C387 1.433 . S
C380 H376 0.929 . S
C380 C382 1.378 . S
C380 C384 1.350 . S
C381 C384 1.463 . S
C381 C386 1.350 . S
C381 N389 1.427 . S
C382 H373 0.930 . S
C382 C380 1.378 . S
C382 C383 1.367 . S
C383 C382 1.367 . S
C383 C385 1.433 . S
C384 C380 1.350 . S
C384 C381 1.463 . S
C384 N388 1.427 . S
C385 H375 0.929 . S
C385 C383 1.433 . S
C385 N388 1.384 . S
C386 H377 0.929 . S
C386 C378 1.378 . S
C386 C381 1.350 . S
C387 H374 0.929 . S
C387 C379 1.433 . S
C387 N389 1.384 . S
N388 C384 1.427 . S
N388 C385 1.384 . S
N389 C381 1.427 . S
N389 C387 1.384 . S
H390 C396 0.930 . S
H391 C400 0.930 . S
H392 C405 0.929 . S
H393 C403 0.929 . S
H394 C398 0.929 . S
H395 C404 0.929 . S
C396 H390 0.930 . S
C396 C397 1.367 . S
C396 C404 1.378 . S
C397 C396 1.367 . S
C397 C405 1.433 . S
C398 H394 0.929 . S
C398 C400 1.378 . S
C398 C402 1.350 . S
C399 C402 1.463 . S
C399 C404 1.350 . S
C399 N407 1.427 . S
C400 H391 0.930 . S
C400 C398 1.378 . S
C400 C401 1.367 . S
C401 C400 1.367 . S
C401 C403 1.433 . S
C402 C398 1.350 . S
C402 C399 1.463 . S
C402 N406 1.427 . S
C403 H393 0.929 . S
C403 C401 1.433 . S
C403 N406 1.384 . S
C404 H395 0.929 . S
C404 C396 1.378 . S
C404 C399 1.350 . S
C405 H392 0.929 . S
C405 C397 1.433 . S
C405 N407 1.384 . S
N406 C402 1.427 . S
N406 C403 1.384 . S
N407 C399 1.427 . S
N407 C405 1.384 . S
H408 C414 0.930 . S
H409 C418 0.930 . S
H410 C423 0.929 . S
H411 C421 0.929 . S
H412 C416 0.919 1_545 S
H413 C422 0.929 . S
C414 H408 0.930 . S
C414 C415 1.367 . S
C414 C422 1.378 . S
C415 C414 1.367 . S
C415 C423 1.433 . S
C416 H412 0.919 1_565 S
C416 C418 1.372 1_565 S
C416 C420 1.365 . S
C417 C420 1.463 . S
C417 C422 1.350 . S
C417 N425 1.427 . S
C418 H409 0.930 . S
C418 C416 1.372 1_545 S
C418 C419 1.367 1_545 S
C419 C418 1.367 1_565 S
C419 C421 1.433 . S
C420 C416 1.365 . S
C420 C417 1.463 . S
C420 N424 1.427 . S
C421 H411 0.929 . S
C421 C419 1.433 . S
C421 N424 1.384 . S
C422 H413 0.929 . S
C422 C414 1.378 . S
C422 C417 1.350 . S
C423 H410 0.929 . S
C423 C415 1.433 . S
C423 N425 1.384 . S
N424 C420 1.427 . S
N424 C421 1.384 . S
N425 C417 1.427 . S
N425 C423 1.384 . S
H426 C432 0.930 . S
H427 C436 0.930 . S
H428 C441 0.929 . S
H429 C439 0.929 . S
H430 C434 0.929 . S
H431 C440 0.929 . S
C432 H426 0.930 . S
C432 C433 1.367 . S
C432 C440 1.378 . S
C433 C432 1.367 . S
C433 C441 1.433 . S
C434 H430 0.929 . S
C434 C436 1.378 . S
C434 C438 1.350 . S
C435 C438 1.463 . S
C435 C440 1.350 . S
C435 N443 1.427 . S
C436 H427 0.930 . S
C436 C434 1.378 . S
C436 C437 1.367 . S
C437 C436 1.367 . S
C437 C439 1.433 . S
C438 C434 1.350 . S
C438 C435 1.463 . S
C438 N442 1.427 . S
C439 H429 0.929 . S
C439 C437 1.433 . S
C439 N442 1.384 . S
C440 H431 0.929 . S
C440 C432 1.378 . S
C440 C435 1.350 . S
C441 H428 0.929 . S
C441 C433 1.433 . S
C441 N443 1.384 . S
N442 C438 1.427 . S
N442 C439 1.384 . S
N443 C435 1.427 . S
N443 C441 1.384 . S
H444 C450 0.930 . S
H445 C454 0.930 . S
H446 C459 0.929 . S
H447 C457 0.929 . S
H448 C452 0.929 . S
H449 C458 0.929 . S
C450 H444 0.930 . S
C450 C451 1.367 . S
C450 C458 1.378 . S
C451 C450 1.367 . S
C451 C459 1.433 . S
C452 H448 0.929 . S
C452 C454 1.378 . S
C452 C456 1.350 . S
C453 C456 1.463 . S
C453 C458 1.350 . S
C453 N461 1.427 . S
C454 H445 0.930 . S
C454 C452 1.378 . S
C454 C455 1.367 . S
C455 C454 1.367 . S
C455 C457 1.433 . S
C456 C452 1.350 . S
C456 C453 1.463 . S
C456 N460 1.427 . S
C457 H447 0.929 . S
C457 C455 1.433 . S
C457 N460 1.384 . S
C458 H449 0.929 . S
C458 C450 1.378 . S
C458 C453 1.350 . S
C459 H446 0.929 . S
C459 C451 1.433 . S
C459 N461 1.384 . S
N460 C456 1.427 . S
N460 C457 1.384 . S
N461 C453 1.427 . S
N461 C459 1.384 . S
H462 C468 0.930 . S
H463 C472 0.930 . S
H464 C477 0.929 . S
H465 C475 0.929 . S
H466 C470 0.929 . S
H467 C476 0.929 . S
C468 H462 0.930 . S
C468 C469 1.367 . S
C468 C476 1.378 . S
C469 C468 1.367 . S
C469 C477 1.433 . S
C470 H466 0.929 . S
C470 C472 1.378 . S
C470 C474 1.350 . S
C471 C474 1.463 . S
C471 C476 1.350 . S
C471 N479 1.427 . S
C472 H463 0.930 . S
C472 C470 1.378 . S
C472 C473 1.367 . S
C473 C472 1.367 . S
C473 C475 1.433 . S
C474 C470 1.350 . S
C474 C471 1.463 . S
C474 N478 1.427 . S
C475 H465 0.929 . S
C475 C473 1.433 . S
C475 N478 1.384 . S
C476 H467 0.929 . S
C476 C468 1.378 . S
C476 C471 1.350 . S
C477 H464 0.929 . S
C477 C469 1.433 . S
C477 N479 1.384 . S
N478 C474 1.427 . S
N478 C475 1.384 . S
N479 C471 1.427 . S
N479 C477 1.384 . S
H480 C486 0.930 . S
H481 C490 0.930 . S
H482 C495 0.929 . S
H483 C493 0.929 . S
H484 C488 0.929 . S
H485 C494 0.929 . S
C486 H480 0.930 . S
C486 C487 1.367 . S
C486 C494 1.378 . S
C487 C486 1.367 . S
C487 C495 1.433 . S
C488 H484 0.929 . S
C488 C490 1.378 . S
C488 C492 1.350 . S
C489 C492 1.463 . S
C489 C494 1.350 . S
C489 N497 1.427 . S
C490 H481 0.930 . S
C490 C488 1.378 . S
C490 C491 1.367 . S
C491 C490 1.367 . S
C491 C493 1.433 . S
C492 C488 1.350 . S
C492 C489 1.463 . S
C492 N496 1.427 . S
C493 H483 0.929 . S
C493 C491 1.433 . S
C493 N496 1.384 . S
C494 H485 0.929 . S
C494 C486 1.378 . S
C494 C489 1.350 . S
C495 H482 0.929 . S
C495 C487 1.433 . S
C495 N497 1.384 . S
N496 C492 1.427 . S
N496 C493 1.384 . S
N497 C489 1.427 . S
N497 C495 1.384 . S
H498 C504 0.930 . S
H499 C508 0.930 . S
H500 C513 0.929 . S
H501 C511 0.929 . S
H502 C506 0.929 . S
H503 C512 0.929 . S
C504 H498 0.930 . S
C504 C505 1.367 . S
C504 C512 1.378 . S
C505 C504 1.367 . S
C505 C513 1.433 . S
C506 H502 0.929 . S
C506 C508 1.378 . S
C506 C510 1.350 . S
C507 C510 1.463 . S
C507 C512 1.350 . S
C507 N515 1.427 . S
C508 H499 0.930 . S
C508 C506 1.378 . S
C508 C509 1.367 . S
C509 C508 1.367 . S
C509 C511 1.433 . S
C510 C506 1.350 . S
C510 C507 1.463 . S
C510 N514 1.427 . S
C511 H501 0.929 . S
C511 C509 1.433 . S
C511 N514 1.384 . S
C512 H503 0.929 . S
C512 C504 1.378 . S
C512 C507 1.350 . S
C513 H500 0.929 . S
C513 C505 1.433 . S
C513 N515 1.384 . S
N514 C510 1.427 . S
N514 C511 1.384 . S
N515 C507 1.427 . S
N515 C513 1.384 . S
H516 C522 0.930 . S
H517 C526 0.930 . S
H518 C531 0.929 . S
H519 C529 0.929 . S
H520 C524 0.929 . S
H521 C530 0.929 . S
C522 H516 0.930 . S
C522 C523 1.367 . S
C522 C530 1.378 . S
C523 C522 1.367 . S
C523 C531 1.433 . S
C524 H520 0.929 . S
C524 C526 1.378 . S
C524 C528 1.350 . S
C525 C528 1.463 . S
C525 C530 1.350 . S
C525 N533 1.427 . S
C526 H517 0.930 . S
C526 C524 1.378 . S
C526 C527 1.367 . S
C527 C526 1.367 . S
C527 C529 1.433 . S
C528 C524 1.350 . S
C528 C525 1.463 . S
C528 N532 1.427 . S
C529 H519 0.929 . S
C529 C527 1.433 . S
C529 N532 1.384 . S
C530 H521 0.929 . S
C530 C522 1.378 . S
C530 C525 1.350 . S
C531 H518 0.929 . S
C531 C523 1.433 . S
C531 N533 1.384 . S
N532 C528 1.427 . S
N532 C529 1.384 . S
N533 C525 1.427 . S
N533 C531 1.384 . S
H534 C540 0.930 . S
H535 C544 0.930 . S
H536 C549 0.929 . S
H537 C547 0.929 . S
H538 C542 0.929 . S
H539 C548 0.929 . S
C540 H534 0.930 . S
C540 C541 1.367 . S
C540 C548 1.378 . S
C541 C540 1.367 . S
C541 C549 1.433 . S
C542 H538 0.929 . S
C542 C544 1.378 . S
C542 C546 1.350 . S
C543 C546 1.463 . S
C543 C548 1.350 . S
C543 N551 1.427 . S
C544 H535 0.930 . S
C544 C542 1.378 . S
C544 C545 1.367 . S
C545 C544 1.367 . S
C545 C547 1.433 . S
C546 C542 1.350 . S
C546 C543 1.463 . S
C546 N550 1.427 . S
C547 H537 0.929 . S
C547 C545 1.433 . S
C547 N550 1.384 . S
C548 H539 0.929 . S
C548 C540 1.378 . S
C548 C543 1.350 . S
C549 H536 0.929 . S
C549 C541 1.433 . S
C549 N551 1.384 . S
N550 C546 1.427 . S
N550 C547 1.384 . S
N551 C543 1.427 . S
N551 C549 1.384 . S
H552 C558 0.930 . S
H553 C562 0.930 . S
H554 C567 0.929 . S
H555 C565 0.929 . S
H556 C560 0.929 . S
H557 C566 0.929 . S
C558 H552 0.930 . S
C558 C559 1.367 . S
C558 C566 1.378 . S
C559 C558 1.367 . S
C559 C567 1.433 . S
C560 H556 0.929 . S
C560 C562 1.378 . S
C560 C564 1.350 . S
C561 C564 1.463 . S
C561 C566 1.350 . S
C561 N569 1.427 . S
C562 H553 0.930 . S
C562 C560 1.378 . S
C562 C563 1.367 . S
C563 C562 1.367 . S
C563 C565 1.433 . S
C564 C560 1.350 . S
C564 C561 1.463 . S
C564 N568 1.427 . S
C565 H555 0.929 . S
C565 C563 1.433 . S
C565 N568 1.384 . S
C566 H557 0.929 . S
C566 C558 1.378 . S
C566 C561 1.350 . S
C567 H554 0.929 . S
C567 C559 1.433 . S
C567 N569 1.384 . S
N568 C564 1.427 . S
N568 C565 1.384 . S
N569 C561 1.427 . S
N569 C567 1.384 . S
H570 C576 0.930 . S
H571 C580 0.930 . S
H572 C585 0.929 . S
H573 C583 0.929 . S
H574 C578 0.929 . S
H575 C584 0.929 . S
C576 H570 0.930 . S
C576 C577 1.367 . S
C576 C584 1.378 . S
C577 C576 1.367 . S
C577 C585 1.433 . S
C578 H574 0.929 . S
C578 C580 1.378 . S
C578 C582 1.350 . S
C579 C582 1.463 . S
C579 C584 1.350 . S
C579 N587 1.427 . S
C580 H571 0.930 . S
C580 C578 1.378 . S
C580 C581 1.367 . S
C581 C580 1.367 . S
C581 C583 1.433 . S
C582 C578 1.350 . S
C582 C579 1.463 . S
C582 N586 1.427 . S
C583 H573 0.929 . S
C583 C581 1.433 . S
C583 N586 1.384 . S
C584 H575 0.929 . S
C584 C576 1.378 . S
C584 C579 1.350 . S
C585 H572 0.929 . S
C585 C577 1.433 . S
C585 N587 1.384 . S
N586 C582 1.427 . S
N586 C583 1.384 . S
N587 C579 1.427 . S
N587 C585 1.384 . S
H588 C594 0.930 . S
H589 C598 0.930 . S
H590 C603 0.929 . S
H591 C601 0.929 . S
H592 C596 0.929 . S
H593 C602 0.929 . S
C594 H588 0.930 . S
C594 C595 1.367 . S
C594 C602 1.378 . S
C595 C594 1.367 . S
C595 C603 1.433 . S
C596 H592 0.929 . S
C596 C598 1.378 . S
C596 C600 1.350 . S
C597 C600 1.463 . S
C597 C602 1.350 . S
C597 N605 1.427 . S
C598 H589 0.930 . S
C598 C596 1.378 . S
C598 C599 1.367 . S
C599 C598 1.367 . S
C599 C601 1.433 . S
C600 C596 1.350 . S
C600 C597 1.463 . S
C600 N604 1.427 . S
C601 H591 0.929 . S
C601 C599 1.433 . S
C601 N604 1.384 . S
C602 H593 0.929 . S
C602 C594 1.378 . S
C602 C597 1.350 . S
C603 H590 0.929 . S
C603 C595 1.433 . S
C603 N605 1.384 . S
N604 C600 1.427 . S
N604 C601 1.384 . S
N605 C597 1.427 . S
N605 C603 1.384 . S
H606 C612 0.930 . S
H607 C616 0.930 . S
H608 C621 0.929 . S
H609 C619 0.929 . S
H610 C614 0.929 . S
H611 C620 0.929 . S
C612 H606 0.930 . S
C612 C613 1.367 . S
C612 C620 1.378 . S
C613 C612 1.367 . S
C613 C621 1.433 . S
C614 H610 0.929 . S
C614 C616 1.378 . S
C614 C618 1.350 . S
C615 C618 1.463 . S
C615 C620 1.350 . S
C615 N623 1.427 . S
C616 H607 0.930 . S
C616 C614 1.378 . S
C616 C617 1.367 . S
C617 C616 1.367 . S
C617 C619 1.433 . S
C618 C614 1.350 . S
C618 C615 1.463 . S
C618 N622 1.427 . S
C619 H609 0.929 . S
C619 C617 1.433 . S
C619 N622 1.384 . S
C620 H611 0.929 . S
C620 C612 1.378 . S
C620 C615 1.350 . S
C621 H608 0.929 . S
C621 C613 1.433 . S
C621 N623 1.384 . S
N622 C618 1.427 . S
N622 C619 1.384 . S
N623 C615 1.427 . S
N623 C621 1.384 . S
C271 N137 1.537 . S
C275 N5 1.537 . S
C289 N38 1.535 . S
C293 N170 1.535 . S
C307 N71 1.535 . S
C311 N203 1.535 . S
C325 N236 1.525 . S
C329 N104 1.525 . S
C343 N245 1.014 . S
C347 C8 1.003 . S
C361 N146 1.015 . S
C365 C41 1.004 . S
C379 N179 1.011 . S
C383 C74 1.012 . S
C397 N212 1.015 . S
C401 C107 1.004 . S
C415 C140 1.003 . S
C419 N113 1.015 . S
C433 C173 1.007 . S
C437 N14 1.015 . S
C451 C206 1.004 . S
C455 N47 1.013 . S
C469 C239 1.010 . S
C473 N80 1.013 . S
C487 C17 1.038 . S
C491 C83 1.041 . S
C505 C50 1.042 . S
C509 C116 1.045 . S
C523 C215 1.044 . S
C527 C149 1.041 . S
C541 C248 1.033 . S
C545 C182 1.036 . S
C559 C94 0.877 . S
C563 C28 0.882 . S
C577 C61 0.852 . S
C581 C127 0.879 . S
C595 C226 0.884 . S
C599 C160 0.852 . S
C613 C259 0.852 . S
C617 C193 0.885 . S
