# Generated by pormake.
# Topology mok, (4)-cn, num edge types: 1
# Building blocks:
#     Node 0, Type 0, BuildingBlock: UXUYUI_clean_sbu_0, # of connection points: 4
#     Node 1, Type 0, BuildingBlock: UXUYUI_clean_sbu_0, # of connection points: 4
#     Node 2, Type 0, BuildingBlock: UXUYUI_clean_sbu_0, # of connection points: 4
#     Node 3, Type 0, BuildingBlock: UXUYUI_clean_sbu_0, # of connection points: 4
#     Node 4, Type 0, BuildingBlock: UXUYUI_clean_sbu_0, # of connection points: 4
#     Node 5, Type 0, BuildingBlock: UXUYUI_clean_sbu_0, # of connection points: 4
#     Node 6, Type 0, BuildingBlock: UXUYUI_clean_sbu_0, # of connection points: 4
#     Node 7, Type 0, BuildingBlock: UXUYUI_clean_sbu_0, # of connection points: 4
#     Edge 8, Type (0, 0), BuildingBlock: XIVTED_clean_linker_0, # of connection points: 2
#     Edge 9, Type (0, 0), BuildingBlock: XIVTED_clean_linker_0, # of connection points: 2
#     Edge 10, Type (0, 0), BuildingBlock: XIVTED_clean_linker_0, # of connection points: 2
#     Edge 11, Type (0, 0), BuildingBlock: XIVTED_clean_linker_0, # of connection points: 2
#     Edge 12, Type (0, 0), BuildingBlock: XIVTED_clean_linker_0, # of connection points: 2
#     Edge 13, Type (0, 0), BuildingBlock: XIVTED_clean_linker_0, # of connection points: 2
#     Edge 14, Type (0, 0), BuildingBlock: XIVTED_clean_linker_0, # of connection points: 2
#     Edge 15, Type (0, 0), BuildingBlock: XIVTED_clean_linker_0, # of connection points: 2
#     Edge 16, Type (0, 0), BuildingBlock: XIVTED_clean_linker_0, # of connection points: 2
#     Edge 17, Type (0, 0), BuildingBlock: XIVTED_clean_linker_0, # of connection points: 2
#     Edge 18, Type (0, 0), BuildingBlock: XIVTED_clean_linker_0, # of connection points: 2
#     Edge 19, Type (0, 0), BuildingBlock: XIVTED_clean_linker_0, # of connection points: 2
#     Edge 20, Type (0, 0), BuildingBlock: XIVTED_clean_linker_0, # of connection points: 2
#     Edge 21, Type (0, 0), BuildingBlock: XIVTED_clean_linker_0, # of connection points: 2
#     Edge 22, Type (0, 0), BuildingBlock: XIVTED_clean_linker_0, # of connection points: 2
#     Edge 23, Type (0, 0), BuildingBlock: XIVTED_clean_linker_0, # of connection points: 2
# Relax obj value: 0.076
# Max RMSD: 0.067
# Mean RMSD: 0.067
data_MOF--net-mok--node1-UXUYUI_clean_sbu_0--edge1-XIVTED_clean_linker_0
_symmetry_space_group_name_H-M    P1
_symmetry_Int_Tables_number       1
_symmetry_cell_setting            triclinic
loop_
_symmetry_equiv_pos_as_xyz
'x, y, z'
_cell_length_a     67.447671
_cell_length_b     30.947321
_cell_length_c     37.808487
_cell_angle_alpha  89.986689
_cell_angle_beta   89.983475
_cell_angle_gamma 90.01109
loop_
_atom_site_label
_atom_site_type_symbol
_atom_site_fract_x
_atom_site_fract_y
_atom_site_fract_z
_atom_type_partial_charge
Li0 Li 0.58167 0.33963 0.03815 0.0
Li1 Li 0.60957 0.30074 0.00643 0.0
Li2 Li 0.58313 0.33663 0.9736 0.0
Li3 Li 0.5763 0.26941 0.00336 0.0
C4 C 0.6078 0.39936 0.98914 0.0
N5 N 0.61715 0.47156 0.94956 0.0
C6 C 0.62472 0.39951 0.9678 0.0
C7 C 0.5957 0.43597 0.99058 0.0
C8 C 0.62917 0.43633 0.94794 0.0
C9 C 0.60067 0.47215 0.97031 0.0
C10 C 0.6046 0.26019 0.07042 0.0
C11 C 0.6251 0.19999 0.08773 0.0
N12 N 0.62949 0.22061 0.11852 0.0
C13 C 0.60919 0.28068 0.10232 0.0
C14 C 0.61248 0.21941 0.06312 0.0
C15 C 0.62184 0.26016 0.12628 0.0
C16 C 0.56098 0.35781 0.1019 0.0
N17 N 0.57529 0.37189 0.07936 0.0
C18 C 0.58262 0.43164 0.11718 0.0
C19 C 0.58606 0.408 0.08635 0.0
C20 C 0.5681 0.41772 0.14128 0.0
C21 C 0.55714 0.38032 0.13326 0.0
H22 H 0.55274 0.32877 0.09573 0.0
H23 H 0.5976 0.41802 0.06827 0.0
C24 C 0.64622 0.2757 0.97715 0.0
N25 N 0.63737 0.28915 0.00753 0.0
C26 C 0.66666 0.26838 0.97617 0.0
C27 C 0.66849 0.28856 0.03783 0.0
C28 C 0.64808 0.29632 0.03742 0.0
C29 C 0.678 0.27461 0.00686 0.0
H30 H 0.63745 0.27122 0.9535 0.0
H31 H 0.64087 0.30861 0.06084 0.0
C32 C 0.54333 0.34126 0.99126 0.0
N33 N 0.50931 0.37767 0.96366 0.0
C34 C 0.53471 0.32398 0.96079 0.0
C35 C 0.53463 0.37689 0.00784 0.0
C36 C 0.51752 0.34293 0.94719 0.0
C37 C 0.51742 0.39486 0.99344 0.0
C38 C 0.59431 0.24508 0.94265 0.0
C39 C 0.58346 0.24718 0.9112 0.0
C40 C 0.60402 0.20681 0.95181 0.0
C41 C 0.5823 0.21063 0.88961 0.0
C42 C 0.60249 0.17096 0.92953 0.0
N43 N 0.59174 0.17359 0.89917 0.0
C44 C 0.59311 0.36266 0.90535 0.0
C45 C 0.56504 0.4005 0.92681 0.0
C46 C 0.59285 0.38661 0.87407 0.0
N47 N 0.57933 0.36982 0.93097 0.0
C48 C 0.56393 0.42446 0.89552 0.0
C49 C 0.57806 0.41777 0.86889 0.0
H50 H 0.6046 0.33885 0.90959 0.0
H51 H 0.5548 0.40735 0.94796 0.0
C52 C 0.5615 0.19186 0.03333 0.0
N53 N 0.56165 0.21618 0.00336 0.0
C54 C 0.5512 0.15266 0.03436 0.0
C55 C 0.54128 0.16425 0.97371 0.0
C56 C 0.55155 0.20344 0.97402 0.0
C57 C 0.54104 0.13825 0.00415 0.0
H58 H 0.56938 0.2029 0.05652 0.0
H59 H 0.55142 0.22362 0.95078 0.0
O60 O 0.60282 0.36313 0.00782 0.0
O61 O 0.59233 0.27989 0.04658 0.0
O62 O 0.56006 0.32313 0.00517 0.0
O63 O 0.59553 0.28044 0.96421 0.0
H64 H 0.63417 0.37131 0.96629 0.0
H65 H 0.58243 0.43614 0.0067 0.0
H66 H 0.64215 0.43684 0.93112 0.0
H67 H 0.59136 0.5006 0.97092 0.0
H68 H 0.63138 0.16851 0.08237 0.0
H69 H 0.60316 0.31222 0.10842 0.0
H70 H 0.60891 0.20297 0.03871 0.0
H71 H 0.62561 0.27571 0.151 0.0
H72 H 0.59166 0.45981 0.12258 0.0
H73 H 0.54574 0.3686 0.15102 0.0
H74 H 0.6735 0.2577 0.95177 0.0
H75 H 0.67682 0.29443 0.06184 0.0
H76 H 0.54137 0.29669 0.9475 0.0
H77 H 0.54113 0.39058 0.03148 0.0
H78 H 0.51075 0.33008 0.92349 0.0
H79 H 0.51054 0.42251 0.00591 0.0
H80 H 0.57577 0.2765 0.9038 0.0
H81 H 0.61264 0.20482 0.97586 0.0
H82 H 0.57385 0.21168 0.86532 0.0
H83 H 0.60986 0.14106 0.93636 0.0
H84 H 0.60405 0.38079 0.85409 0.0
H85 H 0.55253 0.44886 0.89259 0.0
H86 H 0.55142 0.13353 0.05834 0.0
H87 H 0.53337 0.15469 0.95005 0.0
Li88 Li 0.39298 0.70343 0.00297 0.0
Li89 Li 0.42117 0.66439 0.03296 0.0
Li90 Li 0.42605 0.73147 0.99884 0.0
Li91 Li 0.41855 0.66722 0.96675 0.0
C92 C 0.39823 0.74097 0.0668 0.0
N93 N 0.37264 0.77683 0.11569 0.0
C94 C 0.3924 0.71723 0.09648 0.0
C95 C 0.39123 0.78308 0.06215 0.0
C96 C 0.3794 0.73591 0.12086 0.0
C97 C 0.37825 0.80059 0.08712 0.0
C98 C 0.39316 0.60536 0.98507 0.0
C99 C 0.39887 0.5332 0.9633 0.0
N100 N 0.38087 0.534 0.9471 0.0
C101 C 0.37469 0.60545 0.96832 0.0
C102 C 0.40533 0.56893 0.98271 0.0
C103 C 0.36875 0.56903 0.94923 0.0
C104 C 0.35651 0.73585 0.97804 0.0
N105 N 0.36525 0.71523 0.00567 0.0
C106 C 0.33394 0.70755 0.03471 0.0
C107 C 0.35442 0.7007 0.03356 0.0
C108 C 0.32445 0.72886 0.00653 0.0
C109 C 0.33608 0.74305 0.97792 0.0
H110 H 0.36533 0.74586 0.95564 0.0
H111 H 0.36162 0.68325 0.05471 0.0
C112 C 0.44058 0.64688 0.09798 0.0
N113 N 0.42771 0.63101 0.07357 0.0
C114 C 0.44427 0.62399 0.1292 0.0
C115 C 0.42147 0.56883 0.1094 0.0
C116 C 0.4182 0.59279 0.07867 0.0
C117 C 0.43454 0.58449 0.13535 0.0
H118 H 0.44764 0.67779 0.09356 0.0
H119 H 0.40766 0.58142 0.05928 0.0
C120 C 0.40762 0.75939 0.93878 0.0
N121 N 0.41017 0.83116 0.8956 0.0
C122 C 0.41604 0.75592 0.90512 0.0
C123 C 0.40029 0.79919 0.95033 0.0
C124 C 0.41724 0.79264 0.88371 0.0
C125 C 0.40179 0.83515 0.92816 0.0
C126 C 0.46044 0.69235 0.98939 0.0
C127 C 0.46586 0.70107 0.95442 0.0
C128 C 0.47376 0.70105 0.01676 0.0
C129 C 0.48457 0.71844 0.94741 0.0
C130 C 0.49233 0.71847 0.00866 0.0
N131 N 0.4973 0.72673 0.97445 0.0
C132 C 0.44437 0.80357 0.03099 0.0
C133 C 0.44969 0.80034 0.96919 0.0
C134 C 0.45556 0.84149 0.03333 0.0
N135 N 0.44152 0.78394 0.99923 0.0
C136 C 0.46079 0.8384 0.97022 0.0
C137 C 0.4639 0.85966 0.00262 0.0
H138 H 0.43805 0.78955 0.05465 0.0
H139 H 0.44772 0.78388 0.94431 0.0
C140 C 0.40636 0.63369 0.90151 0.0
N141 N 0.42182 0.63437 0.92456 0.0
C142 C 0.40734 0.6086 0.8709 0.0
C143 C 0.44048 0.58675 0.88754 0.0
C144 C 0.43867 0.61143 0.91834 0.0
C145 C 0.42459 0.58494 0.86366 0.0
H146 H 0.39316 0.65226 0.90721 0.0
H147 H 0.45062 0.61209 0.93738 0.0
O148 O 0.41087 0.72323 0.04257 0.0
O149 O 0.39949 0.64116 0.00299 0.0
O150 O 0.40624 0.72377 0.96001 0.0
O151 O 0.4421 0.6758 0.99679 0.0
H152 H 0.39769 0.68461 0.1005 0.0
H153 H 0.3958 0.80203 0.03954 0.0
H154 H 0.37466 0.71784 0.14386 0.0
H155 H 0.37265 0.8331 0.0838 0.0
H156 H 0.40819 0.50491 0.96101 0.0
H157 H 0.36514 0.63348 0.96975 0.0
H158 H 0.41976 0.56857 0.99526 0.0
H159 H 0.35454 0.56869 0.93598 0.0
H160 H 0.32567 0.69625 0.05745 0.0
H161 H 0.32944 0.75864 0.95519 0.0
H162 H 0.45454 0.6372 0.14837 0.0
H163 H 0.41332 0.53904 0.11329 0.0
H164 H 0.42173 0.7253 0.89576 0.0
H165 H 0.39356 0.80226 0.97617 0.0
H166 H 0.42382 0.79053 0.85767 0.0
H167 H 0.39627 0.86621 0.93682 0.0
H168 H 0.4556 0.69524 0.93296 0.0
H169 H 0.46978 0.69459 0.04396 0.0
H170 H 0.48891 0.72558 0.92049 0.0
H171 H 0.50279 0.72546 0.02958 0.0
H172 H 0.45785 0.85603 0.05905 0.0
H173 H 0.46666 0.85117 0.94571 0.0
H174 H 0.39485 0.60796 0.85291 0.0
H175 H 0.45394 0.56858 0.88276 0.0
Li176 Li 0.57566 0.72945 0.50324 0.0
Li177 Li 0.58295 0.66573 0.53626 0.0
Li178 Li 0.60881 0.69863 0.50173 0.0
Li179 Li 0.58096 0.66052 0.47281 0.0
C180 C 0.60328 0.76237 0.551 0.0
N181 N 0.62045 0.84093 0.56732 0.0
C182 C 0.60771 0.77265 0.58609 0.0
C183 C 0.60763 0.79201 0.52416 0.0
C184 C 0.61637 0.81255 0.59382 0.0
C185 C 0.6163 0.83156 0.53297 0.0
C186 C 0.54263 0.68431 0.5256 0.0
C187 C 0.50717 0.68149 0.53339 0.0
N188 N 0.50909 0.70225 0.56491 0.0
C189 C 0.54426 0.70565 0.55806 0.0
C190 C 0.52395 0.67215 0.51312 0.0
C191 C 0.52713 0.71442 0.57754 0.0
C192 C 0.55262 0.79473 0.47078 0.0
N193 N 0.56068 0.78196 0.50204 0.0
C194 C 0.54749 0.84423 0.53117 0.0
C195 C 0.55817 0.80563 0.53202 0.0
C196 C 0.53911 0.8585 0.49923 0.0
C197 C 0.54167 0.83304 0.46878 0.0
H198 H 0.55476 0.77516 0.44739 0.0
H199 H 0.56446 0.79458 0.5567 0.0
C200 C 0.59533 0.63477 0.60168 0.0
N201 N 0.57939 0.63497 0.57976 0.0
C202 C 0.59481 0.61163 0.63335 0.0
C203 C 0.56122 0.59016 0.61985 0.0
C204 C 0.56256 0.61297 0.58801 0.0
C205 C 0.57754 0.589 0.64308 0.0
H206 H 0.60864 0.65196 0.59412 0.0
H207 H 0.5502 0.6128 0.56983 0.0
C208 C 0.60179 0.71622 0.42909 0.0
N209 N 0.6207 0.71078 0.36442 0.0
C210 C 0.61527 0.68285 0.42251 0.0
C211 C 0.5979 0.74676 0.40277 0.0
C212 C 0.62468 0.68068 0.38965 0.0
C213 C 0.60763 0.74348 0.37025 0.0
C214 C 0.60211 0.5956 0.51687 0.0
C215 C 0.61905 0.57946 0.53354 0.0
C216 C 0.58506 0.57002 0.51485 0.0
C217 C 0.6186 0.53801 0.54817 0.0
C218 C 0.5852 0.52875 0.5298 0.0
N219 N 0.60183 0.51374 0.54604 0.0
C220 C 0.64768 0.69267 0.52672 0.0
C221 C 0.64475 0.73848 0.47678 0.0
C222 C 0.66809 0.69998 0.52821 0.0
N223 N 0.63654 0.71128 0.50096 0.0
C224 C 0.66514 0.74652 0.47715 0.0
C225 C 0.67711 0.72694 0.503 0.0
H226 H 0.64066 0.67223 0.54623 0.0
H227 H 0.63553 0.75422 0.45732 0.0
C228 C 0.55954 0.63938 0.41046 0.0
N229 N 0.57442 0.62658 0.43233 0.0
C230 C 0.55576 0.61671 0.37914 0.0
C231 C 0.58247 0.56787 0.39386 0.0
C232 C 0.58584 0.59163 0.42462 0.0
C233 C 0.56736 0.58048 0.37048 0.0
H234 H 0.55088 0.66769 0.41702 0.0
H235 H 0.59795 0.58282 0.44188 0.0
O236 O 0.59488 0.72326 0.54322 0.0
O237 O 0.55913 0.67566 0.50577 0.0
O238 O 0.5921 0.71871 0.46081 0.0
O239 O 0.60199 0.63661 0.50333 0.0
H240 H 0.60447 0.74998 0.60714 0.0
H241 H 0.60432 0.78473 0.49684 0.0
H242 H 0.61986 0.82095 0.62088 0.0
H243 H 0.61972 0.85481 0.51249 0.0
H244 H 0.49261 0.67225 0.52405 0.0
H245 H 0.55858 0.71519 0.56823 0.0
H246 H 0.52246 0.65571 0.48798 0.0
H247 H 0.52817 0.73087 0.60271 0.0
H248 H 0.54561 0.86247 0.55538 0.0
H249 H 0.53557 0.84298 0.44357 0.0
H250 H 0.60801 0.61096 0.6496 0.0
H251 H 0.54747 0.57384 0.62611 0.0
H252 H 0.61848 0.65892 0.44254 0.0
H253 H 0.58746 0.7727 0.40743 0.0
H254 H 0.63515 0.65504 0.38421 0.0
H255 H 0.60477 0.76691 0.34964 0.0
H256 H 0.6324 0.59869 0.53524 0.0
H257 H 0.57176 0.5822 0.50231 0.0
H258 H 0.63158 0.52515 0.56125 0.0
H259 H 0.57207 0.50872 0.52864 0.0
H260 H 0.67675 0.68417 0.54856 0.0
H261 H 0.67141 0.76829 0.4577 0.0
H262 H 0.54394 0.62746 0.36188 0.0
H263 H 0.59203 0.54072 0.38788 0.0
Li264 Li 0.42169 0.33632 0.53143 0.0
Li265 Li 0.4277 0.26957 0.50093 0.0
Li266 Li 0.42234 0.3398 0.46678 0.0
Li267 Li 0.3948 0.30148 0.49936 0.0
C268 C 0.46076 0.34439 0.51078 0.0
N269 N 0.49424 0.38736 0.53392 0.0
C270 C 0.47139 0.32879 0.53982 0.0
C271 C 0.46718 0.38175 0.49341 0.0
C272 C 0.48826 0.35103 0.55116 0.0
C273 C 0.48414 0.40302 0.50553 0.0
C274 C 0.41185 0.24485 0.56202 0.0
C275 C 0.4055 0.17001 0.57568 0.0
N276 N 0.41768 0.17311 0.60424 0.0
C277 C 0.42423 0.24739 0.5916 0.0
C278 C 0.40232 0.20597 0.55407 0.0
C279 C 0.42701 0.21072 0.61258 0.0
C280 C 0.4125 0.36054 0.60029 0.0
N281 N 0.42591 0.36882 0.57433 0.0
C282 C 0.44147 0.42262 0.61036 0.0
C283 C 0.44004 0.39976 0.57859 0.0
C284 C 0.42782 0.41471 0.63778 0.0
C285 C 0.41309 0.38327 0.63213 0.0
H286 H 0.40101 0.33676 0.59593 0.0
H287 H 0.45002 0.40751 0.55727 0.0
C288 C 0.43996 0.1889 0.47244 0.0
N289 N 0.44219 0.21619 0.50035 0.0
C290 C 0.45043 0.14992 0.4712 0.0
C291 C 0.46532 0.16781 0.52739 0.0
C292 C 0.45469 0.2065 0.52741 0.0
C293 C 0.46336 0.13886 0.49895 0.0
H294 H 0.43021 0.19756 0.45092 0.0
H295 H 0.4564 0.22872 0.54915 0.0
C296 C 0.3973 0.39993 0.51694 0.0
N297 N 0.38884 0.4724 0.55676 0.0
C298 C 0.38071 0.40044 0.53908 0.0
C299 C 0.40952 0.4363 0.51484 0.0
C300 C 0.3767 0.4374 0.55905 0.0
C301 C 0.40501 0.47262 0.53525 0.0
C302 C 0.39771 0.26278 0.43557 0.0
C303 C 0.39286 0.28414 0.40416 0.0
C304 C 0.38868 0.22334 0.44362 0.0
C305 C 0.37883 0.26583 0.38147 0.0
C306 C 0.37471 0.20614 0.42028 0.0
N307 N 0.37011 0.22757 0.38996 0.0
C308 C 0.44237 0.35877 0.40244 0.0
C309 C 0.41708 0.40804 0.41883 0.0
C310 C 0.44582 0.38163 0.3711 0.0
N311 N 0.42816 0.37228 0.42542 0.0
C312 C 0.4201 0.43195 0.38801 0.0
C313 C 0.43455 0.41873 0.36351 0.0
H314 H 0.45086 0.32999 0.40831 0.0
H315 H 0.40563 0.41757 0.43725 0.0
C316 C 0.35831 0.27444 0.52853 0.0
N317 N 0.36691 0.29138 0.49913 0.0
C318 C 0.3378 0.26842 0.52996 0.0
C319 C 0.33537 0.2971 0.47069 0.0
C320 C 0.35587 0.30332 0.4707 0.0
C321 C 0.32596 0.27964 0.50071 0.0
H322 H 0.36736 0.26637 0.55119 0.0
H323 H 0.36297 0.31798 0.44807 0.0
O324 O 0.44438 0.32282 0.49891 0.0
O325 O 0.40905 0.2803 0.54101 0.0
O326 O 0.40183 0.36357 0.4981 0.0
O327 O 0.41128 0.28037 0.45825 0.0
H328 H 0.46653 0.30023 0.55377 0.0
H329 H 0.45913 0.3943 0.47092 0.0
H330 H 0.49658 0.33947 0.57372 0.0
H331 H 0.48926 0.43201 0.49241 0.0
H332 H 0.39828 0.13965 0.56976 0.0
H333 H 0.43184 0.27715 0.598 0.0
H334 H 0.3926 0.20356 0.53142 0.0
H335 H 0.43664 0.21213 0.63543 0.0
H336 H 0.45319 0.44623 0.61322 0.0
H337 H 0.40178 0.37673 0.65173 0.0
H338 H 0.44866 0.12909 0.44841 0.0
H339 H 0.47486 0.16056 0.54965 0.0
H340 H 0.37117 0.37241 0.54111 0.0
H341 H 0.42254 0.43619 0.49808 0.0
H342 H 0.36398 0.4382 0.57647 0.0
H343 H 0.41442 0.5009 0.53412 0.0
H344 H 0.39974 0.31465 0.39749 0.0
H345 H 0.39235 0.20633 0.46773 0.0
H346 H 0.37486 0.28209 0.35716 0.0
H347 H 0.36752 0.17576 0.42626 0.0
H348 H 0.45719 0.37045 0.35306 0.0
H349 H 0.41082 0.45984 0.38296 0.0
H350 H 0.33132 0.25595 0.55408 0.0
H351 H 0.32706 0.30585 0.44728 0.0
Li352 Li 0.08272 0.84033 0.03863 0.0
Li353 Li 0.10816 0.80536 0.00637 0.0
Li354 Li 0.08258 0.84452 0.9749 0.0
Li355 Li 0.07511 0.7726 0.00369 0.0
C356 C 0.10588 0.90374 0.02782 0.0
N357 N 0.11112 0.97474 0.07121 0.0
C358 C 0.11971 0.90242 0.05536 0.0
C359 C 0.09474 0.94126 0.02237 0.0
C360 C 0.12213 0.93861 0.077 0.0
C361 C 0.09762 0.9768 0.04456 0.0
C362 C 0.10568 0.75165 0.06075 0.0
C363 C 0.11685 0.6787 0.07133 0.0
N364 N 0.1324 0.69431 0.09031 0.0
C365 C 0.12176 0.76693 0.08047 0.0
C366 C 0.10319 0.70713 0.05618 0.0
C367 C 0.13512 0.73745 0.09514 0.0
C368 C 0.06322 0.90335 0.0825 0.0
N369 N 0.07639 0.87007 0.08191 0.0
C370 C 0.08359 0.88042 0.14325 0.0
C371 C 0.08624 0.85793 0.11163 0.0
C372 C 0.07047 0.91565 0.14458 0.0
C373 C 0.06005 0.92676 0.11366 0.0
H374 H 0.05547 0.91233 0.05863 0.0
H375 H 0.09651 0.83129 0.11066 0.0
C376 C 0.14881 0.82631 1.0024 0.0
N377 N 0.13611 0.79228 0.00413 0.0
C378 C 0.16925 0.81955 1.00137 0.0
C379 C 0.1633 0.74262 1.00236 0.0
C380 C 0.14294 0.75092 0.00352 0.0
C381 C 0.1768 0.77723 1.00156 0.0
H382 H 0.14308 0.85889 1.00184 0.0
H383 H 0.13261 0.72426 0.00396 0.0
C384 C 0.04381 0.84331 0.98835 0.0
N385 N 0.01177 0.8734 0.95003 0.0
C386 C 0.0307 0.8142 0.97246 0.0
C387 C 0.04054 0.88773 0.98493 0.0
C388 C 0.0146 0.83005 0.95318 0.0
C389 C 0.02429 0.90229 0.96537 0.0
C390 C 0.10741 0.77276 0.94135 0.0
C391 C 0.11859 0.80338 0.92287 0.0
C392 C 0.11168 0.72883 0.93747 0.0
C393 C 0.13394 0.78948 0.90083 0.0
C394 C 0.12715 0.71624 0.91515 0.0
N395 N 0.13787 0.74657 0.89746 0.0
C396 C 0.08868 0.9141 0.92766 0.0
C397 C 0.06449 0.86386 0.90843 0.0
C398 C 0.08641 0.93819 0.89671 0.0
N399 N 0.07764 0.87797 0.93313 0.0
C400 C 0.06167 0.88709 0.87708 0.0
C401 C 0.07276 0.92483 0.87082 0.0
H402 H 0.09967 0.92362 0.9469 0.0
H403 H 0.05633 0.83428 0.91286 0.0
C404 C 0.04914 0.70955 0.03082 0.0
N405 N 0.05956 0.72127 1.00157 0.0
C406 C 0.03786 0.67166 0.0308 0.0
C407 C 0.04807 0.65888 0.97041 0.0
C408 C 0.05907 0.69716 0.97154 0.0
C409 C 0.03734 0.64557 1.00038 0.0
H410 H 0.0498 0.72946 0.0543 0.0
H411 H 0.0672 0.70769 0.94845 0.0
O412 O 0.10288 0.86811 0.00701 0.0
O413 O 0.09238 0.77997 0.04616 0.0
O414 O 0.05973 0.82838 0.00714 0.0
O415 O 0.09264 0.78584 0.96368 0.0
H416 H 0.1283 0.87356 0.0603 0.0
H417 H 0.08374 0.94276 1.00162 0.0
H418 H 0.13269 0.9379 0.09852 0.0
H419 H 0.08902 0.00593 0.04074 0.0
H420 H 0.11512 0.6442 0.06791 0.0
H421 H 0.12418 0.8012 0.08385 0.0
H422 H 0.09095 0.69457 0.0409 0.0
H423 H 0.1477 0.74889 0.11021 0.0
H424 H 0.09218 0.87091 0.16614 0.0
H425 H 0.04958 0.95328 0.11348 0.0
H426 H 0.17902 0.84731 1.001 0.0
H427 H 0.16837 0.70944 1.00175 0.0
H428 H 0.03295 0.77974 0.97486 0.0
H429 H 0.05062 0.91073 0.99671 0.0
H430 H 0.00437 0.80789 0.94066 0.0
H431 H 0.02167 0.93658 0.96229 0.0
H432 H 0.11561 0.83752 0.92588 0.0
H433 H 0.10338 0.70475 0.952 0.0
H434 H 0.14278 0.81282 0.8865 0.0
H435 H 0.13069 0.68236 0.91204 0.0
H436 H 0.09569 0.96632 0.89269 0.0
H437 H 0.05096 0.87554 0.85798 0.0
H438 H 0.02997 0.66246 0.05459 0.0
H439 H 0.04783 0.64013 0.94624 0.0
Li440 Li 0.8941 0.20104 0.00577 0.0
Li441 Li 0.92166 0.16333 0.03767 0.0
Li442 Li 0.92688 0.23305 0.00359 0.0
Li443 Li 0.92092 0.16568 0.97275 0.0
C444 C 0.89684 0.24001 0.06872 0.0
N445 N 0.86849 0.27456 0.11324 0.0
C446 C 0.89171 0.21856 0.09995 0.0
C447 C 0.88768 0.27918 0.06026 0.0
C448 C 0.87732 0.23654 0.12209 0.0
C449 C 0.87334 0.29605 0.08307 0.0
C450 C 0.89469 0.10381 0.98768 0.0
C451 C 0.89989 0.03187 0.96496 0.0
N452 N 0.88212 0.03399 0.94805 0.0
C453 C 0.87643 0.10518 0.97025 0.0
C454 C 0.90647 0.06677 0.98522 0.0
C455 C 0.87035 0.06957 0.9503 0.0
C456 C 0.85755 0.23228 0.97918 0.0
N457 N 0.86624 0.2118 0.00692 0.0
C458 C 0.83491 0.20422 0.03585 0.0
C459 C 0.85535 0.19723 0.03472 0.0
C460 C 0.82539 0.22531 0.00756 0.0
C461 C 0.83708 0.23924 0.97887 0.0
H462 H 0.86647 0.24258 0.95697 0.0
H463 H 0.86255 0.18005 0.05603 0.0
C464 C 0.93991 0.1485 0.10424 0.0
N465 N 0.92777 0.1313 0.07924 0.0
C466 C 0.94334 0.12634 0.1359 0.0
C467 C 0.92209 0.06885 0.11503 0.0
C468 C 0.91894 0.09225 0.08397 0.0
C469 C 0.93427 0.08604 0.14169 0.0
H470 H 0.94663 0.17979 0.09981 0.0
H471 H 0.90914 0.07962 0.06385 0.0
C472 C 0.91166 0.25619 0.94182 0.0
N473 N 0.91927 0.32586 0.89819 0.0
C474 C 0.92377 0.25119 0.91209 0.0
C475 C 0.90329 0.29649 0.94921 0.0
C476 C 0.92746 0.28684 0.89038 0.0
C477 C 0.90737 0.33136 0.92689 0.0
C478 C 0.96021 0.15572 0.99935 0.0
C479 C 0.97649 0.17364 0.98177 0.0
C480 C 0.96125 0.11326 0.01186 0.0
C481 C 0.99348 0.14857 0.97665 0.0
C482 C 0.9785 0.08926 0.00623 0.0
N483 N 0.99412 0.10725 0.98887 0.0
C484 C 0.93861 0.31555 0.02923 0.0
C485 C 0.95448 0.29394 0.97623 0.0
C486 C 0.94893 0.35474 0.02906 0.0
N487 N 0.94145 0.28624 0.00294 0.0
C488 C 0.96502 0.33278 0.97488 0.0
C489 C 0.96234 0.36392 1.00155 0.0
H490 H 0.92843 0.30843 0.0505 0.0
H491 H 0.9566 0.27002 0.95578 0.0
C492 C 0.90948 0.13472 0.90704 0.0
N493 N 0.92519 0.13392 0.92953 0.0
C494 C 0.91003 0.11196 0.8752 0.0
C495 C 0.94332 0.08916 0.88925 0.0
C496 C 0.94199 0.11182 0.92116 0.0
C497 C 0.92714 0.08871 0.86575 0.0
H498 H 0.89633 0.15275 0.91413 0.0
H499 H 0.95441 0.11154 0.93898 0.0
O500 O 0.91073 0.22267 0.04652 0.0
O501 O 0.90111 0.13876 0.00665 0.0
O502 O 0.90807 0.22183 0.96364 0.0
O503 O 0.94355 0.17996 0.00483 0.0
H504 H 0.89863 0.18819 0.10689 0.0
H505 H 0.89149 0.29616 0.0362 0.0
H506 H 0.87313 0.22021 0.14627 0.0
H507 H 0.86605 0.3262 0.07675 0.0
H508 H 0.90892 0.00314 0.96261 0.0
H509 H 0.86713 0.13358 0.97177 0.0
H510 H 0.92065 0.06516 0.99847 0.0
H511 H 0.8563 0.07028 0.93651 0.0
H512 H 0.82673 0.19331 0.05881 0.0
H513 H 0.83051 0.25463 0.95601 0.0
H514 H 0.95293 0.14063 0.15567 0.0
H515 H 0.91455 0.03825 0.1186 0.0
H516 H 0.93044 0.22027 0.90606 0.0
H517 H 0.89385 0.30085 0.97206 0.0
H518 H 0.93688 0.28352 0.86739 0.0
H519 H 0.90109 0.3628 0.9324 0.0
H520 H 0.97601 0.20651 0.97211 0.0
H521 H 0.94885 0.09885 0.02555 0.0
H522 H 0.00616 0.16197 0.96297 0.0
H523 H 0.97947 0.05631 0.01564 0.0
H524 H 0.94663 0.37727 0.05056 0.0
H525 H 0.97498 0.33848 0.95291 0.0
H526 H 0.89699 0.11215 0.85853 0.0
H527 H 0.957 0.07251 0.88303 0.0
Li528 Li 0.07626 0.23405 0.50409 0.0
Li529 Li 0.0834 0.16932 0.53752 0.0
Li530 Li 0.10974 0.20602 0.50567 0.0
Li531 Li 0.0846 0.1674 0.47349 0.0
C532 C 0.10129 0.26732 0.55665 0.0
N533 N 0.11613 0.34625 0.57826 0.0
C534 C 0.10541 0.27472 0.59236 0.0
C535 C 0.10468 0.30012 0.53195 0.0
C536 C 0.11292 0.31483 0.60276 0.0
C537 C 0.11219 0.33978 0.54339 0.0
C538 C 0.04345 0.18452 0.52123 0.0
C539 C 0.00783 0.17832 0.52348 0.0
N540 N 0.00792 0.19628 0.55632 0.0
C541 C 0.04319 0.20288 0.55501 0.0
C542 C 0.02565 0.1721 0.50532 0.0
C543 C 0.02508 0.20857 0.5723 0.0
C544 C 0.05525 0.30201 0.4705 0.0
N545 N 0.06044 0.28545 0.50248 0.0
C546 C 0.04433 0.34387 0.53228 0.0
C547 C 0.05512 0.30539 0.53309 0.0
C548 C 0.03897 0.36222 0.49964 0.0
C549 C 0.04445 0.34053 0.46844 0.0
H550 H 0.05971 0.28553 0.44656 0.0
H551 H 0.05945 0.2917 0.55823 0.0
C552 C 0.09127 0.14497 0.60692 0.0
N553 N 0.07838 0.13764 0.57999 0.0
C554 C 0.08917 0.12312 0.639 0.0
C555 C 0.06068 0.08599 0.61495 0.0
C556 C 0.06325 0.10884 0.58333 0.0
C557 C 0.07373 0.09311 0.64336 0.0
H558 H 0.10331 0.16764 0.60333 0.0
H559 H 0.05321 0.1035 0.56147 0.0
C560 C 0.10637 0.22585 0.43401 0.0
N561 N 0.12976 0.22438 0.37399 0.0
C562 C 0.1211 0.19443 0.43013 0.0
C563 C 0.10357 0.25658 0.40739 0.0
C564 C 0.13276 0.19421 0.3996 0.0
C565 C 0.11553 0.25528 0.37724 0.0
C566 C 0.10248 0.09902 0.50935 0.0
C567 C 0.11924 0.0734 0.51506 0.0
C568 C 0.08392 0.07937 0.50561 0.0
C569 C 0.11715 0.02855 0.51705 0.0
C570 C 0.08245 0.03443 0.50777 0.0
N571 N 0.09895 0.01016 0.5134 0.0
C572 C 0.14952 0.19057 0.52279 0.0
C573 C 0.1446 0.25648 0.49219 0.0
C574 C 0.16998 0.19732 0.52338 0.0
N575 N 0.13733 0.2198 0.50715 0.0
C576 C 0.16495 0.26493 0.49271 0.0
C577 C 0.17804 0.23496 0.50819 0.0
H578 H 0.14333 0.16166 0.53443 0.0
H579 H 0.13464 0.27906 0.47956 0.0
C580 C 0.06328 0.14056 0.41231 0.0
N581 N 0.07998 0.13378 0.43168 0.0
C582 C 0.05991 0.11689 0.38131 0.0
C583 C 0.09092 0.07962 0.39102 0.0
C584 C 0.09378 0.10427 0.42145 0.0
C585 C 0.07381 0.08573 0.3705 0.0
H586 H 0.05261 0.16448 0.42088 0.0
H587 H 0.10715 0.09999 0.43677 0.0
O588 O 0.09387 0.22818 0.54622 0.0
O589 O 0.06096 0.1786 0.50362 0.0
O590 O 0.09472 0.22685 0.46363 0.0
O591 O 0.10437 0.14303 0.50745 0.0
H592 H 0.10279 0.24974 0.61186 0.0
H593 H 0.1015 0.29514 0.50423 0.0
H594 H 0.11617 0.32099 0.63032 0.0
H595 H 0.11488 0.36542 0.52454 0.0
H596 H 0.99393 0.16888 0.51148 0.0
H597 H 0.05681 0.2126 0.5678 0.0
H598 H 0.02561 0.15782 0.47918 0.0
H599 H 0.02467 0.22275 0.59844 0.0
H600 H 0.04018 0.35897 0.55703 0.0
H601 H 0.04084 0.35364 0.44268 0.0
H602 H 0.09978 0.1291 0.65994 0.0
H603 H 0.0485 0.06336 0.61726 0.0
H604 H 0.12357 0.17049 0.45047 0.0
H605 H 0.09227 0.28119 0.41002 0.0
H606 H 0.1442 0.17006 0.39627 0.0
H607 H 0.11352 0.27886 0.35642 0.0
H608 H 0.13373 0.08798 0.51786 0.0
H609 H 0.07078 0.09847 0.50096 0.0
H610 H 0.13 0.00835 0.52146 0.0
H611 H 0.06818 0.01886 0.50493 0.0
H612 H 0.17934 0.17276 0.53503 0.0
H613 H 0.17029 0.29474 0.48116 0.0
H614 H 0.04651 0.12249 0.36623 0.0
H615 H 0.10217 0.05651 0.38328 0.0
Li616 Li 0.91914 0.83613 0.53595 0.0
Li617 Li 0.92619 0.77135 0.50248 0.0
Li618 Li 0.91918 0.83896 0.47201 0.0
Li619 Li 0.89304 0.80072 0.50229 0.0
C620 C 0.95928 0.81865 0.5216 0.0
N621 N 0.99411 0.80321 0.5579 0.0
C622 C 0.95879 0.79928 0.555 0.0
C623 C 0.97747 0.83014 0.50666 0.0
C624 C 0.97656 0.79175 0.57292 0.0
C625 C 0.99493 0.82209 0.52543 0.0
C626 C 0.89985 0.73909 0.55353 0.0
C627 C 0.88773 0.6679 0.53919 0.0
N628 N 0.88342 0.66119 0.57391 0.0
C629 C 0.89529 0.73153 0.58903 0.0
C630 C 0.89604 0.70707 0.52835 0.0
C631 C 0.88699 0.69192 0.59882 0.0
C632 C 0.90723 0.86993 0.6004 0.0
N633 N 0.92314 0.86853 0.57836 0.0
C634 C 0.9415 0.91511 0.6168 0.0
C635 C 0.94005 0.8908 0.58573 0.0
C636 C 0.92521 0.91736 0.63987 0.0
C637 C 0.9079 0.89446 0.63134 0.0
H638 H 0.8939 0.85235 0.59359 0.0
H639 H 0.95231 0.89025 0.56733 0.0
C640 C 0.94776 0.70353 0.46982 0.0
N641 N 0.94155 0.71928 0.50151 0.0
C642 C 0.9588 0.66531 0.46824 0.0
C643 C 0.95697 0.66045 0.53193 0.0
C644 C 0.94592 0.69858 0.53227 0.0
C645 C 0.96358 0.64325 0.49962 0.0
H646 H 0.94413 0.72072 0.44577 0.0
H647 H 0.94073 0.71152 0.55715 0.0
C648 C 0.90063 0.90707 0.50763 0.0
N649 N 0.90383 0.99574 0.51395 0.0
C650 C 0.88366 0.93231 0.51224 0.0
C651 C 0.91925 0.92691 0.50629 0.0
C652 C 0.88558 0.9771 0.51535 0.0
C653 C 0.92055 0.97177 0.50953 0.0
C654 C 0.89784 0.78225 0.43038 0.0
C655 C 0.88338 0.81417 0.42599 0.0
C656 C 0.90124 0.75243 0.40332 0.0
C657 C 0.87257 0.81573 0.39452 0.0
C658 C 0.89011 0.75505 0.37223 0.0
N659 N 0.87613 0.78639 0.36851 0.0
C660 C 0.94161 0.86581 0.41213 0.0
C661 C 0.91131 0.90325 0.42025 0.0
C662 C 0.94546 0.88923 0.38118 0.0
N663 N 0.92475 0.87318 0.43091 0.0
C664 C 0.91464 0.92761 0.38979 0.0
C665 C 0.93186 0.92068 0.36972 0.0
H666 H 0.95197 0.84144 0.42102 0.0
H667 H 0.89779 0.90795 0.43505 0.0
C668 C 0.85354 0.81356 0.5226 0.0
N669 N 0.86541 0.78773 0.50271 0.0
C670 C 0.83308 0.80671 0.52336 0.0
C671 C 0.83747 0.74651 0.48339 0.0
C672 C 0.85786 0.75441 0.48353 0.0
C673 C 0.82477 0.77298 0.50337 0.0
H674 H 0.85999 0.83974 0.53766 0.0
H675 H 0.86764 0.73411 0.46813 0.0
O676 O 0.94212 0.82597 0.50326 0.0
O677 O 0.90791 0.77784 0.54368 0.0
O678 O 0.89893 0.86313 0.50494 0.0
O679 O 0.90874 0.78007 0.46086 0.0
H680 H 0.94484 0.7903 0.56705 0.0
H681 H 0.97809 0.84507 0.48078 0.0
H682 H 0.97639 0.77681 0.59879 0.0
H683 H 0.00912 0.83081 0.51418 0.0
H684 H 0.88471 0.64283 0.52 0.0
H685 H 0.89814 0.75606 0.60881 0.0
H686 H 0.89948 0.71229 0.50075 0.0
H687 H 0.88339 0.68561 0.62622 0.0
H688 H 0.955 0.93283 0.62232 0.0
H689 H 0.89506 0.89535 0.64854 0.0
H690 H 0.96376 0.65349 0.44277 0.0
H691 H 0.96004 0.64426 0.55673 0.0
H692 H 0.86915 0.91742 0.51339 0.0
H693 H 0.93257 0.90796 0.50281 0.0
H694 H 0.87256 0.99704 0.5189 0.0
H695 H 0.93485 0.98754 0.50854 0.0
H696 H 0.88047 0.83745 0.44665 0.0
H697 H 0.91237 0.7275 0.40631 0.0
H698 H 0.86134 0.84026 0.39078 0.0
H699 H 0.89259 0.73217 0.35106 0.0
H700 H 0.95894 0.88297 0.36649 0.0
H701 H 0.90358 0.9509 0.38157 0.0
H702 H 0.82383 0.82814 0.53887 0.0
H703 H 0.83174 0.71978 0.468 0.0
H704 H 0.79634 0.1732 0.03631 0.0
H705 H 0.70507 0.30567 0.95944 0.0
H706 H 0.80404 0.29299 0.97908 0.0
H707 H 0.70019 0.22718 0.0533 0.0
H708 H 0.74105 0.29382 0.95954 0.0
H709 H 0.76063 0.18554 0.03673 0.0
C710 C 0.79066 0.20229 0.02407 0.0
C711 C 0.80346 0.23217 0.00776 0.0
C712 C 0.73208 0.27926 0.98011 0.0
C713 C 0.76234 0.24561 0.00729 0.0
C714 C 0.7116 0.28578 0.97994 0.0
C715 C 0.69971 0.26737 0.00642 0.0
C716 C 0.74067 0.25349 0.00654 0.0
C717 C 0.70888 0.24215 0.03257 0.0
C718 C 0.7702 0.20909 0.02416 0.0
C719 C 0.79491 0.26857 0.99148 0.0
N720 N 0.72882 0.23567 0.03184 0.0
N721 N 0.77491 0.27413 0.99151 0.0
H722 H 0.20557 0.82228 0.96554 0.0
H723 H 0.29539 0.67416 0.03136 0.0
H724 H 0.19789 0.71437 0.03668 0.0
H725 H 0.30338 0.79849 0.98139 0.0
H726 H 0.25955 0.68538 0.03013 0.0
H727 H 0.24134 0.81073 0.96715 0.0
C728 C 0.21137 0.79627 0.98166 0.0
C729 C 0.1986 0.76944 1.00118 0.0
C730 C 0.26917 0.71021 0.01949 0.0
C731 C 0.23967 0.75562 0.00267 0.0
C732 C 0.28968 0.70399 0.02038 0.0
C733 C 0.30255 0.73543 0.00649 0.0
C734 C 0.26139 0.74801 0.00437 0.0
C735 C 0.29413 0.77299 0.99193 0.0
C736 C 0.23182 0.78959 0.98243 0.0
C737 C 0.20706 0.7356 0.02088 0.0
N738 N 0.27412 0.77815 0.99119 0.0
N739 N 0.22704 0.72969 0.02113 0.0
H740 H 0.80109 0.75346 0.44666 0.0
H741 H 0.70106 0.741 0.56054 0.0
H742 H 0.79877 0.77639 0.55917 0.0
H743 H 0.70278 0.72982 0.4468 0.0
H744 H 0.73696 0.75185 0.56087 0.0
H745 H 0.76523 0.74227 0.4465 0.0
C746 C 0.79306 0.75588 0.47139 0.0
C747 C 0.80298 0.76583 0.50299 0.0
C748 C 0.72949 0.74709 0.53583 0.0
C749 C 0.76183 0.75343 0.50296 0.0
C750 C 0.709 0.74066 0.53564 0.0
C751 C 0.69888 0.73443 0.50359 0.0
C752 C 0.74001 0.74708 0.50375 0.0
C753 C 0.70992 0.73496 0.47209 0.0
C754 C 0.77255 0.74977 0.47124 0.0
C755 C 0.79172 0.76923 0.53413 0.0
N756 N 0.72987 0.74103 0.47298 0.0
N757 N 0.77178 0.76295 0.53334 0.0
H758 H 0.20561 0.21107 0.55846 0.0
H759 H 0.2971 0.32972 0.4691 0.0
H760 H 0.20074 0.27607 0.45761 0.0
H761 H 0.30429 0.21645 0.53482 0.0
H762 H 0.26128 0.31901 0.47069 0.0
H763 H 0.24146 0.22145 0.55646 0.0
C764 C 0.21197 0.22729 0.53577 0.0
C765 C 0.19992 0.24245 0.50804 0.0
C766 C 0.27076 0.29655 0.48469 0.0
C767 C 0.24106 0.25549 0.5063 0.0
C768 C 0.29128 0.30239 0.48364 0.0
C769 C 0.30397 0.27384 0.50171 0.0
C770 C 0.26275 0.26242 0.50446 0.0
C771 C 0.29526 0.23981 0.52093 0.0
C772 C 0.23247 0.23339 0.53482 0.0
C773 C 0.20921 0.26436 0.47992 0.0
N774 N 0.27522 0.2352 0.52193 0.0
N775 N 0.22918 0.27035 0.47985 0.0
H776 H 0.56283 0.38375 0.20762 0.0
H777 H 0.56095 0.61419 0.30436 0.0
H778 H 0.56663 0.50534 0.15214 0.0
H779 H 0.56727 0.49291 0.35952 0.0
H780 H 0.55864 0.57469 0.24844 0.0
H781 H 0.56008 0.42314 0.26348 0.0
C782 C 0.56284 0.41875 0.20713 0.0
C783 C 0.56506 0.44127 0.17513 0.0
C784 C 0.56042 0.55671 0.2728 0.0
C785 C 0.5621 0.4866 0.23907 0.0
C786 C 0.5616 0.57922 0.30476 0.0
C787 C 0.56441 0.55683 0.33667 0.0
C788 C 0.56194 0.51142 0.27271 0.0
C789 C 0.56539 0.51151 0.33551 0.0
C790 C 0.56141 0.44122 0.23907 0.0
C791 C 0.56523 0.48665 0.17621 0.0
N792 N 0.5642 0.49034 0.30409 0.0
N793 N 0.56382 0.50779 0.20763 0.0
H794 H 0.43727 0.61767 0.20249 0.0
H795 H 0.44019 0.38587 0.29684 0.0
H796 H 0.43778 0.49684 0.14549 0.0
H797 H 0.43496 0.5065 0.35331 0.0
H798 H 0.44253 0.42612 0.24132 0.0
H799 H 0.43966 0.57767 0.25801 0.0
C800 C 0.43812 0.58274 0.20158 0.0
C801 C 0.43724 0.56062 0.16919 0.0
C802 C 0.44096 0.44381 0.26587 0.0
C803 C 0.43971 0.5145 0.23286 0.0
C804 C 0.43976 0.42084 0.29762 0.0
C805 C 0.43727 0.44281 0.32981 0.0
C806 C 0.43973 0.48913 0.26625 0.0
C807 C 0.43656 0.48817 0.3291 0.0
C808 C 0.43934 0.55988 0.23336 0.0
C809 C 0.43811 0.51525 0.16981 0.0
N810 N 0.43772 0.50978 0.29786 0.0
N811 N 0.43923 0.49373 0.2011 0.0
H812 H 0.40051 0.51843 0.84439 0.0
H813 H 0.44013 0.4989 0.64874 0.0
H814 H 0.45138 0.59141 0.8098 0.0
H815 H 0.41726 0.3877 0.7048 0.0
H816 H 0.4407 0.53881 0.70439 0.0
H817 H 0.40224 0.47556 0.78977 0.0
C818 C 0.41203 0.52529 0.82521 0.0
C819 C 0.42585 0.55825 0.83138 0.0
C820 C 0.43564 0.5056 0.70433 0.0
C821 C 0.42771 0.51022 0.76901 0.0
C822 C 0.43541 0.48254 0.67259 0.0
C823 C 0.42861 0.43954 0.67167 0.0
C824 C 0.42861 0.48602 0.73533 0.0
C825 C 0.4222 0.42092 0.70369 0.0
C826 C 0.41306 0.50084 0.79426 0.0
C827 C 0.44054 0.56603 0.80591 0.0
N828 N 0.42218 0.44438 0.73407 0.0
N829 N 0.44097 0.54246 0.77556 0.0
H830 H 0.60757 0.46848 0.84256 0.0
H831 H 0.55683 0.51395 0.65779 0.0
H832 H 0.54789 0.4261 0.8212 0.0
H833 H 0.59639 0.60662 0.70628 0.0
H834 H 0.55613 0.47367 0.71331 0.0
H835 H 0.60695 0.51133 0.78786 0.0
C836 C 0.59437 0.46821 0.82622 0.0
C837 C 0.57775 0.44392 0.83619 0.0
C838 C 0.5649 0.50292 0.71163 0.0
C839 C 0.57703 0.49206 0.77373 0.0
C840 C 0.56524 0.52623 0.67999 0.0
C841 C 0.57672 0.56406 0.67694 0.0
C842 C 0.57642 0.51686 0.74029 0.0
C843 C 0.58767 0.57729 0.70674 0.0
C844 C 0.59399 0.49272 0.79523 0.0
C845 C 0.56095 0.44466 0.81435 0.0
N846 N 0.58738 0.55356 0.73698 0.0
N847 N 0.56106 0.46805 0.78387 0.0
H848 H 0.06587 0.0036 0.15214 0.0
H849 H 0.07903 0.99883 0.36182 0.0
H850 H 0.06994 0.88589 0.21306 0.0
H851 H 0.06183 0.1137 0.30495 0.0
H852 H 0.07615 0.95723 0.30717 0.0
H853 H 0.06432 0.0448 0.20726 0.0
C854 C 0.06619 0.9863 0.17703 0.0
C855 C 0.06818 0.94109 0.17781 0.0
C856 C 0.07287 0.99148 0.30661 0.0
C857 C 0.06678 0.9883 0.24109 0.0
C858 C 0.0746 0.01527 0.33778 0.0
C859 C 0.07077 0.05983 0.33788 0.0
C860 C 0.06746 0.01239 0.27508 0.0
C861 C 0.06483 0.07936 0.30607 0.0
C862 C 0.06542 0.00993 0.20852 0.0
C863 C 0.06883 0.92069 0.21101 0.0
N864 N 0.06353 0.0556 0.27586 0.0
N865 N 0.06827 0.94442 0.24122 0.0
H866 H 0.94464 0.89051 0.30539 0.0
H867 H 0.93356 0.11979 0.20868 0.0
H868 H 0.92641 0.0073 0.35851 0.0
H869 H 0.94033 0.9993 0.15256 0.0
H870 H 0.93542 0.08043 0.26466 0.0
H871 H 0.94762 0.93129 0.25009 0.0
C872 C 0.94149 0.92482 0.30551 0.0
C873 C 0.93516 0.94548 0.33657 0.0
C874 C 0.93659 0.06261 0.2401 0.0
C875 C 0.93841 0.99228 0.27338 0.0
C876 C 0.93568 0.08511 0.20812 0.0
C877 C 0.93671 0.0628 0.17585 0.0
C878 C 0.93868 0.01744 0.23991 0.0
C879 C 0.9392 0.01774 0.1768 0.0
C880 C 0.94306 0.94802 0.27389 0.0
C881 C 0.93108 0.98995 0.33508 0.0
N882 N 0.94007 0.99655 0.20828 0.0
N883 N 0.93274 0.01181 0.30404 0.0
H884 H 0.8985 0.9777 0.66213 0.0
H885 H 0.94654 0.01203 0.85168 0.0
H886 H 0.95376 0.91745 0.69138 0.0
H887 H 0.90967 0.10871 0.80188 0.0
H888 H 0.94711 0.97183 0.7961 0.0
H889 H 0.89966 0.02053 0.71661 0.0
C890 C 0.91086 0.9735 0.68011 0.0
C891 C 0.92605 0.94404 0.67237 0.0
C892 C 0.93896 1.00195 0.79744 0.0
C893 C 0.9274 0.99254 0.73472 0.0
C894 C 0.9387 0.02516 0.82913 0.0
C895 C 0.92799 0.06404 0.83182 0.0
C896 C 0.92818 0.01721 0.76828 0.0
C897 C 0.91778 0.07857 0.80161 0.0
C898 C 0.91157 0.99805 0.71104 0.0
C899 C 0.94182 0.94003 0.69636 0.0
N900 N 0.91801 0.05502 0.77127 0.0
N901 N 0.94201 0.96373 0.72667 0.0
H902 H 0.06744 0.89304 0.8035 0.0
H903 H 0.07728 0.12454 0.71079 0.0
H904 H 0.07347 0.01279 0.86107 0.0
H905 H 0.06526 0.00708 0.65318 0.0
H906 H 0.07546 0.08403 0.76612 0.0
H907 H 0.06576 0.93405 0.74835 0.0
C908 C 0.0682 0.92796 0.80466 0.0
C909 C 0.07069 0.9494 0.83712 0.0
C910 C 0.07312 0.06708 0.74142 0.0
C911 C 0.06908 0.99659 0.77381 0.0
C912 C 0.07426 0.09018 0.70978 0.0
C913 C 0.07154 0.06915 0.67724 0.0
C914 C 0.06934 0.02245 0.74066 0.0
C915 C 0.06733 0.02469 0.67763 0.0
C916 C 0.06735 0.95136 0.77307 0.0
C917 C 0.07189 0.99474 0.83673 0.0
N918 N 0.06649 1.00277 0.70881 0.0
N919 N 0.07116 0.01673 0.80563 0.0
H920 H 0.45821 0.9303 0.04587 0.0
H921 H 0.54124 0.07525 0.95336 0.0
H922 H 0.49657 0.88266 0.96306 0.0
H923 H 0.51615 0.1062 0.05521 0.0
H924 H 0.52285 0.00706 0.95357 0.0
H925 H 0.47745 0.99713 0.04734 0.0
C926 C 0.47075 0.93358 0.02817 0.0
C927 C 0.47567 0.90049 0.00424 0.0
C928 C 0.52142 0.02869 0.97593 0.0
C929 C 0.49752 0.97767 0.00535 0.0
C930 C 0.53181 0.06772 0.97572 0.0
C931 C 0.5302 0.09645 0.00429 0.0
C932 C 0.5091 0.01849 0.00471 0.0
C933 C 0.51794 0.08482 0.03278 0.0
C934 C 0.48166 0.97195 0.02893 0.0
C935 C 0.49189 0.90735 0.98151 0.0
N936 N 0.50776 0.04686 0.03217 0.0
N937 N 0.50214 0.94516 0.98252 0.0
H938 H 0.50401 0.87536 0.46506 0.0
H939 H 0.50152 0.12464 0.52159 0.0
H940 H 0.54866 0.93577 0.53014 0.0
H941 H 0.4516 0.05905 0.47435 0.0
H942 H 0.51991 0.05682 0.52121 0.0
H943 H 0.48566 0.94365 0.46392 0.0
C944 C 0.51001 0.90304 0.47894 0.0
C945 C 0.52788 0.8998 0.4978 0.0
C946 C 0.50492 0.05724 0.51094 0.0
C947 C 0.50693 0.97798 0.49671 0.0
C948 C 0.49433 0.09598 0.51133 0.0
C949 C 0.47487 0.09773 0.49817 0.0
C950 C 0.4961 0.0198 0.49709 0.0
C951 C 0.46661 0.05953 0.48442 0.0
C952 C 0.49947 0.94193 0.47845 0.0
C953 C 0.53483 0.93661 0.51563 0.0
N954 N 0.47726 0.02219 0.48426 0.0
N955 N 0.52437 0.97413 0.51458 0.0
H956 H 1.00026 0.63027 0.02766 0.0
H957 H 1.00088 0.37799 0.98061 0.0
H958 H 0.04824 0.56722 0.97256 0.0
H959 H 0.94944 0.44496 0.02084 0.0
H960 H 0.01886 0.44642 0.9794 0.0
H961 H 0.98195 0.56204 0.02787 0.0
C962 C 0.00698 0.60204 0.0157 0.0
C963 C 0.02584 0.60452 1.00008 0.0
C964 C 0.00362 0.44616 0.98845 0.0
C965 C 0.00489 0.52624 1.0001 0.0
C966 C 0.99328 0.40706 0.98897 0.0
C967 C 0.97353 0.40549 1.0008 0.0
C968 C 0.99425 0.48414 0.99999 0.0
C969 C 0.96469 0.4443 0.01198 0.0
C970 C 0.99646 0.56314 0.01566 0.0
C971 C 0.03367 0.56698 0.98456 0.0
N972 N 0.9751 0.48194 0.01134 0.0
N973 N 0.0232 0.52941 0.98508 0.0
H974 H 0.00898 0.38636 0.45432 0.0
H975 H 0.99335 0.6182 0.54455 0.0
H976 H 0.04393 0.43363 0.54179 0.0
H977 H 0.96064 0.57541 0.45294 0.0
H978 H 0.01181 0.55038 0.54402 0.0
H979 H 0.99113 0.45514 0.45309 0.0
C980 C 0.013 0.41123 0.47314 0.0
C981 C 0.02798 0.40398 0.49828 0.0
C982 C 1.00062 0.5558 0.52397 0.0
C983 C 0.00741 0.48278 0.49724 0.0
C984 C 0.98998 0.59447 0.52437 0.0
C985 C 0.97533 0.60254 0.49883 0.0
C986 C 0.99659 0.52467 0.4979 0.0
C987 C 0.97191 0.57081 0.47295 0.0
C988 C 0.00272 0.45045 0.47253 0.0
C989 C 0.0323 0.43733 0.52232 0.0
N990 N 0.98239 0.53325 0.47323 0.0
N991 N 0.02207 0.47513 0.52121 0.0
loop_
_geom_bond_atom_site_label_1
_geom_bond_atom_site_label_2
_geom_bond_distance
_geom_bond_site_symmetry_2
_ccdc_geom_bond_type
Li0 N17 1.990 . S
Li0 O60 1.935 1_554 S
Li0 O61 1.970 . S
Li0 O62 1.961 . S
Li1 N25 1.990 . S
Li1 O60 1.969 1_554 S
Li1 O61 1.956 . S
Li1 O63 1.961 1_554 S
Li2 N47 1.990 . S
Li2 O60 1.981 . S
Li2 O62 1.956 1_556 S
Li2 O63 1.970 . S
Li3 N53 1.991 . S
Li3 O61 1.938 1_556 S
Li3 O62 1.969 1_556 S
Li3 O63 1.978 . S
C4 C6 1.349 1_556 S
C4 C7 1.355 . S
C4 O60 1.324 . S
N5 C8 1.314 . S
N5 C9 1.279 1_554 S
C6 C4 1.349 1_554 S
C6 C8 1.353 . S
C6 H64 0.929 . S
C7 C4 1.355 . S
C7 C9 1.358 . S
C7 H65 0.930 . S
C8 N5 1.314 . S
C8 C6 1.353 . S
C8 H66 0.930 . S
C9 N5 1.279 1_556 S
C9 C7 1.358 . S
C9 H67 0.930 . S
C10 C13 1.348 . S
C10 C14 1.356 . S
C10 O61 1.325 . S
C11 N12 1.279 . S
C11 C14 1.358 . S
C11 H68 0.930 . S
N12 C11 1.279 . S
N12 C15 1.314 . S
C13 C10 1.348 . S
C13 C15 1.353 . S
C13 H69 0.929 . S
C14 C10 1.356 . S
C14 C11 1.358 . S
C14 H70 0.930 . S
C15 N12 1.314 . S
C15 C13 1.353 . S
C15 H71 0.930 . S
C16 N17 1.314 . S
C16 C21 1.353 . S
C16 H22 0.930 . S
N17 Li0 1.990 . S
N17 C16 1.314 . S
N17 C19 1.279 . S
C18 C19 1.358 . S
C18 C20 1.356 . S
C18 H72 0.930 . S
C19 N17 1.279 . S
C19 C18 1.358 . S
C19 H23 0.930 . S
C20 C18 1.356 . S
C20 C21 1.348 . S
C21 C16 1.353 . S
C21 C20 1.348 . S
C21 H73 0.929 . S
H22 C16 0.930 . S
H23 C19 0.930 . S
C24 N25 1.314 1_556 S
C24 C26 1.353 . S
C24 H30 0.930 . S
N25 Li1 1.990 . S
N25 C24 1.314 1_554 S
N25 C28 1.279 . S
C26 C24 1.353 . S
C26 C29 1.345 1_556 S
C26 H74 0.929 . S
C27 C28 1.358 . S
C27 C29 1.359 . S
C27 H75 0.930 . S
C28 N25 1.279 . S
C28 C27 1.358 . S
C28 H31 0.930 . S
C29 C26 1.345 1_554 S
C29 C27 1.359 . S
H30 C24 0.930 . S
H31 C28 0.930 . S
C32 C34 1.346 1_554 S
C32 C35 1.357 . S
C32 O62 1.325 . S
N33 C36 1.314 . S
N33 C37 1.279 1_556 S
C34 C32 1.346 1_556 S
C34 C36 1.353 . S
C34 H76 0.929 . S
C35 C32 1.357 . S
C35 C37 1.358 . S
C35 H77 0.930 . S
C36 N33 1.314 . S
C36 C34 1.353 . S
C36 H78 0.930 . S
C37 N33 1.279 1_554 S
C37 C35 1.358 . S
C37 H79 0.930 . S
C38 C39 1.348 . S
C38 C40 1.356 . S
C38 O63 1.325 . S
C39 C38 1.348 . S
C39 C41 1.353 . S
C39 H80 0.929 . S
C40 C38 1.356 . S
C40 C42 1.358 . S
C40 H81 0.930 . S
C41 C39 1.353 . S
C41 N43 1.314 . S
C41 H82 0.930 . S
C42 C40 1.358 . S
C42 N43 1.279 . S
C42 H83 0.930 . S
N43 C41 1.314 . S
N43 C42 1.279 . S
C44 C46 1.353 . S
C44 N47 1.314 . S
C44 H50 0.930 . S
C45 N47 1.279 . S
C45 C48 1.358 . S
C45 H51 0.930 . S
C46 C44 1.353 . S
C46 C49 1.348 . S
C46 H84 0.929 . S
N47 Li2 1.990 . S
N47 C44 1.314 . S
N47 C45 1.279 . S
C48 C45 1.358 . S
C48 C49 1.356 . S
C48 H85 0.930 . S
C49 C46 1.348 . S
C49 C48 1.356 . S
H50 C44 0.930 . S
H51 C45 0.930 . S
C52 N53 1.314 1_554 S
C52 C54 1.353 . S
C52 H58 0.930 . S
N53 Li3 1.991 . S
N53 C52 1.314 1_556 S
N53 C56 1.279 . S
C54 C52 1.353 . S
C54 C57 1.345 . S
C54 H86 0.929 . S
C55 C56 1.358 . S
C55 C57 1.359 1_556 S
C55 H87 0.930 . S
C56 N53 1.279 . S
C56 C55 1.358 . S
C56 H59 0.930 . S
C57 C54 1.345 . S
C57 C55 1.359 1_554 S
H58 C52 0.930 . S
H59 C56 0.930 . S
O60 Li0 1.935 1_556 S
O60 Li1 1.969 1_556 S
O60 Li2 1.981 . S
O60 C4 1.324 . S
O61 Li0 1.970 . S
O61 Li1 1.956 . S
O61 Li3 1.938 1_554 S
O61 C10 1.325 . S
O62 Li0 1.961 . S
O62 Li2 1.956 1_554 S
O62 Li3 1.969 1_554 S
O62 C32 1.325 . S
O63 Li1 1.961 1_556 S
O63 Li2 1.970 . S
O63 Li3 1.978 . S
O63 C38 1.325 . S
H64 C6 0.929 . S
H65 C7 0.930 . S
H66 C8 0.930 . S
H67 C9 0.930 . S
H68 C11 0.930 . S
H69 C13 0.929 . S
H70 C14 0.930 . S
H71 C15 0.930 . S
H72 C18 0.930 . S
H73 C21 0.929 . S
H74 C26 0.929 . S
H75 C27 0.930 . S
H76 C34 0.929 . S
H77 C35 0.930 . S
H78 C36 0.930 . S
H79 C37 0.930 . S
H80 C39 0.929 . S
H81 C40 0.930 . S
H82 C41 0.930 . S
H83 C42 0.930 . S
H84 C46 0.929 . S
H85 C48 0.930 . S
H86 C54 0.929 . S
H87 C55 0.930 . S
Li88 N105 1.990 . S
Li88 O148 1.956 . S
Li88 O149 1.969 1_554 S
Li88 O150 1.961 1_554 S
Li89 N113 1.990 . S
Li89 O148 1.970 . S
Li89 O149 1.935 1_554 S
Li89 O151 1.961 . S
Li90 N135 1.991 . S
Li90 O148 1.938 1_556 S
Li90 O150 1.978 . S
Li90 O151 1.969 1_556 S
Li91 N141 1.990 . S
Li91 O149 1.981 . S
Li91 O150 1.970 . S
Li91 O151 1.956 1_556 S
C92 C94 1.348 . S
C92 C95 1.356 . S
C92 O148 1.325 . S
N93 C96 1.314 . S
N93 C97 1.279 . S
C94 C92 1.348 . S
C94 C96 1.353 . S
C94 H152 0.929 . S
C95 C92 1.356 . S
C95 C97 1.358 . S
C95 H153 0.930 . S
C96 N93 1.314 . S
C96 C94 1.353 . S
C96 H154 0.930 . S
C97 N93 1.279 . S
C97 C95 1.358 . S
C97 H155 0.930 . S
C98 C101 1.349 1_556 S
C98 C102 1.355 . S
C98 O149 1.324 . S
C99 N100 1.279 1_556 S
C99 C102 1.358 . S
C99 H156 0.930 . S
N100 C99 1.279 1_554 S
N100 C103 1.314 . S
C101 C98 1.349 1_554 S
C101 C103 1.353 . S
C101 H157 0.929 . S
C102 C98 1.355 . S
C102 C99 1.358 . S
C102 H158 0.930 . S
C103 N100 1.314 . S
C103 C101 1.353 . S
C103 H159 0.930 . S
C104 N105 1.314 1_556 S
C104 C109 1.353 . S
C104 H110 0.930 . S
N105 Li88 1.990 . S
N105 C104 1.314 1_554 S
N105 C107 1.279 . S
C106 C107 1.358 . S
C106 C108 1.359 . S
C106 H160 0.930 . S
C107 N105 1.279 . S
C107 C106 1.358 . S
C107 H111 0.930 . S
C108 C106 1.359 . S
C108 C109 1.345 1_554 S
C109 C104 1.353 . S
C109 C108 1.345 1_556 S
C109 H161 0.929 . S
H110 C104 0.930 . S
H111 C107 0.930 . S
C112 N113 1.314 . S
C112 C114 1.353 . S
C112 H118 0.930 . S
N113 Li89 1.990 . S
N113 C112 1.314 . S
N113 C116 1.279 . S
C114 C112 1.353 . S
C114 C117 1.348 . S
C114 H162 0.929 . S
C115 C116 1.358 . S
C115 C117 1.356 . S
C115 H163 0.930 . S
C116 N113 1.279 . S
C116 C115 1.358 . S
C116 H119 0.930 . S
C117 C114 1.348 . S
C117 C115 1.356 . S
H118 C112 0.930 . S
H119 C116 0.930 . S
C120 C122 1.348 . S
C120 C123 1.356 . S
C120 O150 1.325 . S
N121 C124 1.314 . S
N121 C125 1.279 . S
C122 C120 1.348 . S
C122 C124 1.353 . S
C122 H164 0.929 . S
C123 C120 1.356 . S
C123 C125 1.358 . S
C123 H165 0.930 . S
C124 N121 1.314 . S
C124 C122 1.353 . S
C124 H166 0.930 . S
C125 N121 1.279 . S
C125 C123 1.358 . S
C125 H167 0.930 . S
C126 C127 1.346 1_554 S
C126 C128 1.357 . S
C126 O151 1.325 . S
C127 C126 1.346 1_556 S
C127 C129 1.353 . S
C127 H168 0.929 . S
C128 C126 1.357 . S
C128 C130 1.358 . S
C128 H169 0.930 . S
C129 C127 1.353 . S
C129 N131 1.314 . S
C129 H170 0.930 . S
C130 C128 1.358 . S
C130 N131 1.279 1_554 S
C130 H171 0.930 . S
N131 C129 1.314 . S
N131 C130 1.279 1_556 S
C132 C134 1.353 . S
C132 N135 1.314 1_554 S
C132 H138 0.930 . S
C133 N135 1.279 . S
C133 C136 1.358 . S
C133 H139 0.930 . S
C134 C132 1.353 . S
C134 C137 1.345 . S
C134 H172 0.929 . S
N135 Li90 1.991 . S
N135 C132 1.314 1_556 S
N135 C133 1.279 . S
C136 C133 1.358 . S
C136 C137 1.359 1_556 S
C136 H173 0.930 . S
C137 C134 1.345 . S
C137 C136 1.359 1_554 S
H138 C132 0.930 . S
H139 C133 0.930 . S
C140 N141 1.314 . S
C140 C142 1.353 . S
C140 H146 0.930 . S
N141 Li91 1.990 . S
N141 C140 1.314 . S
N141 C144 1.279 . S
C142 C140 1.353 . S
C142 C145 1.348 . S
C142 H174 0.929 . S
C143 C144 1.358 . S
C143 C145 1.356 . S
C143 H175 0.930 . S
C144 N141 1.279 . S
C144 C143 1.358 . S
C144 H147 0.930 . S
C145 C142 1.348 . S
C145 C143 1.356 . S
H146 C140 0.930 . S
H147 C144 0.930 . S
O148 Li88 1.956 . S
O148 Li89 1.970 . S
O148 Li90 1.938 1_554 S
O148 C92 1.325 . S
O149 Li88 1.969 1_556 S
O149 Li89 1.935 1_556 S
O149 Li91 1.981 . S
O149 C98 1.324 . S
O150 Li88 1.961 1_556 S
O150 Li90 1.978 . S
O150 Li91 1.970 . S
O150 C120 1.325 . S
O151 Li89 1.961 . S
O151 Li90 1.969 1_554 S
O151 Li91 1.956 1_554 S
O151 C126 1.325 . S
H152 C94 0.929 . S
H153 C95 0.930 . S
H154 C96 0.930 . S
H155 C97 0.930 . S
H156 C99 0.930 . S
H157 C101 0.929 . S
H158 C102 0.930 . S
H159 C103 0.930 . S
H160 C106 0.930 . S
H161 C109 0.929 . S
H162 C114 0.929 . S
H163 C115 0.930 . S
H164 C122 0.929 . S
H165 C123 0.930 . S
H166 C124 0.930 . S
H167 C125 0.930 . S
H168 C127 0.929 . S
H169 C128 0.930 . S
H170 C129 0.930 . S
H171 C130 0.930 . S
H172 C134 0.929 . S
H173 C136 0.930 . S
H174 C142 0.929 . S
H175 C143 0.930 . S
Li176 N193 1.990 . S
Li176 O236 1.956 . S
Li176 O237 1.970 . S
Li176 O238 1.961 . S
Li177 N201 1.990 . S
Li177 O236 1.970 . S
Li177 O237 1.956 . S
Li177 O239 1.961 . S
Li178 N223 1.990 . S
Li178 O236 1.961 . S
Li178 O238 1.956 . S
Li178 O239 1.970 . S
Li179 N229 1.990 . S
Li179 O237 1.961 . S
Li179 O238 1.970 . S
Li179 O239 1.956 . S
C180 C182 1.348 . S
C180 C183 1.356 . S
C180 O236 1.325 . S
N181 C184 1.314 . S
N181 C185 1.279 . S
C182 C180 1.348 . S
C182 C184 1.353 . S
C182 H240 0.929 . S
C183 C180 1.356 . S
C183 C185 1.358 . S
C183 H241 0.930 . S
C184 N181 1.314 . S
C184 C182 1.353 . S
C184 H242 0.930 . S
C185 N181 1.279 . S
C185 C183 1.358 . S
C185 H243 0.930 . S
C186 C189 1.348 . S
C186 C190 1.356 . S
C186 O237 1.325 . S
C187 N188 1.279 . S
C187 C190 1.358 . S
C187 H244 0.930 . S
N188 C187 1.279 . S
N188 C191 1.314 . S
C189 C186 1.348 . S
C189 C191 1.353 . S
C189 H245 0.929 . S
C190 C186 1.356 . S
C190 C187 1.358 . S
C190 H246 0.930 . S
C191 N188 1.314 . S
C191 C189 1.353 . S
C191 H247 0.930 . S
C192 N193 1.314 . S
C192 C197 1.353 . S
C192 H198 0.930 . S
N193 Li176 1.990 . S
N193 C192 1.314 . S
N193 C195 1.279 . S
C194 C195 1.358 . S
C194 C196 1.356 . S
C194 H248 0.930 . S
C195 N193 1.279 . S
C195 C194 1.358 . S
C195 H199 0.930 . S
C196 C194 1.356 . S
C196 C197 1.348 . S
C197 C192 1.353 . S
C197 C196 1.348 . S
C197 H249 0.929 . S
H198 C192 0.930 . S
H199 C195 0.930 . S
C200 N201 1.314 . S
C200 C202 1.353 . S
C200 H206 0.930 . S
N201 Li177 1.990 . S
N201 C200 1.314 . S
N201 C204 1.279 . S
C202 C200 1.353 . S
C202 C205 1.348 . S
C202 H250 0.929 . S
C203 C204 1.358 . S
C203 C205 1.356 . S
C203 H251 0.930 . S
C204 N201 1.279 . S
C204 C203 1.358 . S
C204 H207 0.930 . S
C205 C202 1.348 . S
C205 C203 1.356 . S
H206 C200 0.930 . S
H207 C204 0.930 . S
C208 C210 1.348 . S
C208 C211 1.356 . S
C208 O238 1.325 . S
N209 C212 1.314 . S
N209 C213 1.279 . S
C210 C208 1.348 . S
C210 C212 1.353 . S
C210 H252 0.929 . S
C211 C208 1.356 . S
C211 C213 1.358 . S
C211 H253 0.930 . S
C212 N209 1.314 . S
C212 C210 1.353 . S
C212 H254 0.930 . S
C213 N209 1.279 . S
C213 C211 1.358 . S
C213 H255 0.930 . S
C214 C215 1.348 . S
C214 C216 1.356 . S
C214 O239 1.325 . S
C215 C214 1.348 . S
C215 C217 1.353 . S
C215 H256 0.929 . S
C216 C214 1.356 . S
C216 C218 1.358 . S
C216 H257 0.930 . S
C217 C215 1.353 . S
C217 N219 1.314 . S
C217 H258 0.930 . S
C218 C216 1.358 . S
C218 N219 1.279 . S
C218 H259 0.930 . S
N219 C217 1.314 . S
N219 C218 1.279 . S
C220 C222 1.353 . S
C220 N223 1.314 . S
C220 H226 0.930 . S
C221 N223 1.279 . S
C221 C224 1.358 . S
C221 H227 0.930 . S
C222 C220 1.353 . S
C222 C225 1.348 . S
C222 H260 0.929 . S
N223 Li178 1.990 . S
N223 C220 1.314 . S
N223 C221 1.279 . S
C224 C221 1.358 . S
C224 C225 1.356 . S
C224 H261 0.930 . S
C225 C222 1.348 . S
C225 C224 1.356 . S
H226 C220 0.930 . S
H227 C221 0.930 . S
C228 N229 1.314 . S
C228 C230 1.353 . S
C228 H234 0.930 . S
N229 Li179 1.990 . S
N229 C228 1.314 . S
N229 C232 1.279 . S
C230 C228 1.353 . S
C230 C233 1.348 . S
C230 H262 0.929 . S
C231 C232 1.358 . S
C231 C233 1.356 . S
C231 H263 0.930 . S
C232 N229 1.279 . S
C232 C231 1.358 . S
C232 H235 0.930 . S
C233 C230 1.348 . S
C233 C231 1.356 . S
H234 C228 0.930 . S
H235 C232 0.930 . S
O236 Li176 1.956 . S
O236 Li177 1.970 . S
O236 Li178 1.961 . S
O236 C180 1.325 . S
O237 Li176 1.970 . S
O237 Li177 1.956 . S
O237 Li179 1.961 . S
O237 C186 1.325 . S
O238 Li176 1.961 . S
O238 Li178 1.956 . S
O238 Li179 1.970 . S
O238 C208 1.325 . S
O239 Li177 1.961 . S
O239 Li178 1.970 . S
O239 Li179 1.956 . S
O239 C214 1.325 . S
H240 C182 0.929 . S
H241 C183 0.930 . S
H242 C184 0.930 . S
H243 C185 0.930 . S
H244 C187 0.930 . S
H245 C189 0.929 . S
H246 C190 0.930 . S
H247 C191 0.930 . S
H248 C194 0.930 . S
H249 C197 0.929 . S
H250 C202 0.929 . S
H251 C203 0.930 . S
H252 C210 0.929 . S
H253 C211 0.930 . S
H254 C212 0.930 . S
H255 C213 0.930 . S
H256 C215 0.929 . S
H257 C216 0.930 . S
H258 C217 0.930 . S
H259 C218 0.930 . S
H260 C222 0.929 . S
H261 C224 0.930 . S
H262 C230 0.929 . S
H263 C231 0.930 . S
Li264 N281 1.990 . S
Li264 O324 1.956 . S
Li264 O325 1.970 . S
Li264 O326 1.961 . S
Li265 N289 1.990 . S
Li265 O324 1.970 . S
Li265 O325 1.956 . S
Li265 O327 1.961 . S
Li266 N311 1.990 . S
Li266 O324 1.961 . S
Li266 O326 1.956 . S
Li266 O327 1.970 . S
Li267 N317 1.990 . S
Li267 O325 1.961 . S
Li267 O326 1.970 . S
Li267 O327 1.956 . S
C268 C270 1.348 . S
C268 C271 1.356 . S
C268 O324 1.325 . S
N269 C272 1.314 . S
N269 C273 1.279 . S
C270 C268 1.348 . S
C270 C272 1.353 . S
C270 H328 0.929 . S
C271 C268 1.356 . S
C271 C273 1.358 . S
C271 H329 0.930 . S
C272 N269 1.314 . S
C272 C270 1.353 . S
C272 H330 0.930 . S
C273 N269 1.279 . S
C273 C271 1.358 . S
C273 H331 0.930 . S
C274 C277 1.348 . S
C274 C278 1.356 . S
C274 O325 1.325 . S
C275 N276 1.279 . S
C275 C278 1.358 . S
C275 H332 0.930 . S
N276 C275 1.279 . S
N276 C279 1.314 . S
C277 C274 1.348 . S
C277 C279 1.353 . S
C277 H333 0.929 . S
C278 C274 1.356 . S
C278 C275 1.358 . S
C278 H334 0.930 . S
C279 N276 1.314 . S
C279 C277 1.353 . S
C279 H335 0.930 . S
C280 N281 1.314 . S
C280 C285 1.353 . S
C280 H286 0.930 . S
N281 Li264 1.990 . S
N281 C280 1.314 . S
N281 C283 1.279 . S
C282 C283 1.358 . S
C282 C284 1.356 . S
C282 H336 0.930 . S
C283 N281 1.279 . S
C283 C282 1.358 . S
C283 H287 0.930 . S
C284 C282 1.356 . S
C284 C285 1.348 . S
C285 C280 1.353 . S
C285 C284 1.348 . S
C285 H337 0.929 . S
H286 C280 0.930 . S
H287 C283 0.930 . S
C288 N289 1.314 . S
C288 C290 1.353 . S
C288 H294 0.930 . S
N289 Li265 1.990 . S
N289 C288 1.314 . S
N289 C292 1.279 . S
C290 C288 1.353 . S
C290 C293 1.348 . S
C290 H338 0.929 . S
C291 C292 1.358 . S
C291 C293 1.356 . S
C291 H339 0.930 . S
C292 N289 1.279 . S
C292 C291 1.358 . S
C292 H295 0.930 . S
C293 C290 1.348 . S
C293 C291 1.356 . S
H294 C288 0.930 . S
H295 C292 0.930 . S
C296 C298 1.348 . S
C296 C299 1.356 . S
C296 O326 1.325 . S
N297 C300 1.314 . S
N297 C301 1.279 . S
C298 C296 1.348 . S
C298 C300 1.353 . S
C298 H340 0.929 . S
C299 C296 1.356 . S
C299 C301 1.358 . S
C299 H341 0.930 . S
C300 N297 1.314 . S
C300 C298 1.353 . S
C300 H342 0.930 . S
C301 N297 1.279 . S
C301 C299 1.358 . S
C301 H343 0.930 . S
C302 C303 1.348 . S
C302 C304 1.356 . S
C302 O327 1.325 . S
C303 C302 1.348 . S
C303 C305 1.353 . S
C303 H344 0.929 . S
C304 C302 1.356 . S
C304 C306 1.358 . S
C304 H345 0.930 . S
C305 C303 1.353 . S
C305 N307 1.314 . S
C305 H346 0.930 . S
C306 C304 1.358 . S
C306 N307 1.279 . S
C306 H347 0.930 . S
N307 C305 1.314 . S
N307 C306 1.279 . S
C308 C310 1.353 . S
C308 N311 1.314 . S
C308 H314 0.930 . S
C309 N311 1.279 . S
C309 C312 1.358 . S
C309 H315 0.930 . S
C310 C308 1.353 . S
C310 C313 1.348 . S
C310 H348 0.929 . S
N311 Li266 1.990 . S
N311 C308 1.314 . S
N311 C309 1.279 . S
C312 C309 1.358 . S
C312 C313 1.356 . S
C312 H349 0.930 . S
C313 C310 1.348 . S
C313 C312 1.356 . S
H314 C308 0.930 . S
H315 C309 0.930 . S
C316 N317 1.314 . S
C316 C318 1.353 . S
C316 H322 0.930 . S
N317 Li267 1.990 . S
N317 C316 1.314 . S
N317 C320 1.279 . S
C318 C316 1.353 . S
C318 C321 1.348 . S
C318 H350 0.929 . S
C319 C320 1.358 . S
C319 C321 1.356 . S
C319 H351 0.930 . S
C320 N317 1.279 . S
C320 C319 1.358 . S
C320 H323 0.930 . S
C321 C318 1.348 . S
C321 C319 1.356 . S
H322 C316 0.930 . S
H323 C320 0.930 . S
O324 Li264 1.956 . S
O324 Li265 1.970 . S
O324 Li266 1.961 . S
O324 C268 1.325 . S
O325 Li264 1.970 . S
O325 Li265 1.956 . S
O325 Li267 1.961 . S
O325 C274 1.325 . S
O326 Li264 1.961 . S
O326 Li266 1.956 . S
O326 Li267 1.970 . S
O326 C296 1.325 . S
O327 Li265 1.961 . S
O327 Li266 1.970 . S
O327 Li267 1.956 . S
O327 C302 1.325 . S
H328 C270 0.929 . S
H329 C271 0.930 . S
H330 C272 0.930 . S
H331 C273 0.930 . S
H332 C275 0.930 . S
H333 C277 0.929 . S
H334 C278 0.930 . S
H335 C279 0.930 . S
H336 C282 0.930 . S
H337 C285 0.929 . S
H338 C290 0.929 . S
H339 C291 0.930 . S
H340 C298 0.929 . S
H341 C299 0.930 . S
H342 C300 0.930 . S
H343 C301 0.930 . S
H344 C303 0.929 . S
H345 C304 0.930 . S
H346 C305 0.930 . S
H347 C306 0.930 . S
H348 C310 0.929 . S
H349 C312 0.930 . S
H350 C318 0.929 . S
H351 C319 0.930 . S
Li352 N369 1.990 . S
Li352 O412 1.935 1_554 S
Li352 O413 1.970 . S
Li352 O414 1.961 . S
Li353 N377 1.990 . S
Li353 O412 1.969 1_554 S
Li353 O413 1.956 . S
Li353 O415 1.961 1_554 S
Li354 N399 1.990 . S
Li354 O412 1.981 . S
Li354 O414 1.956 1_556 S
Li354 O415 1.970 . S
Li355 N405 1.991 . S
Li355 O413 1.938 1_556 S
Li355 O414 1.969 1_556 S
Li355 O415 1.978 . S
C356 C358 1.349 1_556 S
C356 C359 1.355 . S
C356 O412 1.324 . S
N357 C360 1.314 . S
N357 C361 1.279 1_554 S
C358 C356 1.349 1_554 S
C358 C360 1.353 . S
C358 H416 0.929 . S
C359 C356 1.355 . S
C359 C361 1.358 . S
C359 H417 0.930 . S
C360 N357 1.314 . S
C360 C358 1.353 . S
C360 H418 0.930 . S
C361 N357 1.279 1_556 S
C361 C359 1.358 . S
C361 H419 0.954 . S
C362 C365 1.348 . S
C362 C366 1.356 . S
C362 O413 1.325 . S
C363 N364 1.279 . S
C363 C366 1.358 . S
C363 H420 0.930 . S
N364 C363 1.279 . S
N364 C367 1.314 . S
C365 C362 1.348 . S
C365 C367 1.353 . S
C365 H421 0.929 . S
C366 C362 1.356 . S
C366 C363 1.358 . S
C366 H422 0.930 . S
C367 N364 1.314 . S
C367 C365 1.353 . S
C367 H423 0.930 . S
C368 N369 1.314 . S
C368 C373 1.353 . S
C368 H374 0.930 . S
N369 Li352 1.990 . S
N369 C368 1.314 . S
N369 C371 1.279 . S
C370 C371 1.358 . S
C370 C372 1.356 . S
C370 H424 0.930 . S
C371 N369 1.279 . S
C371 C370 1.358 . S
C371 H375 0.930 . S
C372 C370 1.356 . S
C372 C373 1.348 . S
C373 C368 1.353 . S
C373 C372 1.348 . S
C373 H425 0.929 . S
H374 C368 0.930 . S
H375 C371 0.930 . S
C376 N377 1.314 1_556 S
C376 C378 1.353 . S
C376 H382 0.930 . S
N377 Li353 1.990 . S
N377 C376 1.314 1_554 S
N377 C380 1.279 . S
C378 C376 1.353 . S
C378 C381 1.345 1_556 S
C378 H426 0.929 . S
C379 C380 1.358 . S
C379 C381 1.359 . S
C379 H427 0.930 . S
C380 N377 1.279 . S
C380 C379 1.358 . S
C380 H383 0.930 . S
C381 C378 1.345 1_554 S
C381 C379 1.359 . S
H382 C376 0.930 . S
H383 C380 0.930 . S
C384 C386 1.346 1_554 S
C384 C387 1.357 . S
C384 O414 1.325 . S
N385 C388 1.314 . S
N385 C389 1.279 1_556 S
C386 C384 1.346 1_556 S
C386 C388 1.353 . S
C386 H428 0.929 . S
C387 C384 1.357 . S
C387 C389 1.358 . S
C387 H429 0.930 . S
C388 N385 1.314 . S
C388 C386 1.353 . S
C388 H430 0.930 1_455 S
C389 N385 1.279 1_554 S
C389 C387 1.358 . S
C389 H431 0.930 . S
C390 C391 1.348 . S
C390 C392 1.356 . S
C390 O415 1.325 . S
C391 C390 1.348 . S
C391 C393 1.353 . S
C391 H432 0.929 . S
C392 C390 1.356 . S
C392 C394 1.358 . S
C392 H433 0.930 . S
C393 C391 1.353 . S
C393 N395 1.314 . S
C393 H434 0.930 . S
C394 C392 1.358 . S
C394 N395 1.279 . S
C394 H435 0.930 . S
N395 C393 1.314 . S
N395 C394 1.279 . S
C396 C398 1.353 . S
C396 N399 1.314 . S
C396 H402 0.930 . S
C397 N399 1.279 . S
C397 C400 1.358 . S
C397 H403 0.930 . S
C398 C396 1.353 . S
C398 C401 1.348 . S
C398 H436 0.929 . S
N399 Li354 1.990 . S
N399 C396 1.314 . S
N399 C397 1.279 . S
C400 C397 1.358 . S
C400 C401 1.356 . S
C400 H437 0.930 . S
C401 C398 1.348 . S
C401 C400 1.356 . S
H402 C396 0.930 . S
H403 C397 0.930 . S
C404 N405 1.314 1_554 S
C404 C406 1.353 . S
C404 H410 0.930 . S
N405 Li355 1.991 . S
N405 C404 1.314 1_556 S
N405 C408 1.279 . S
C406 C404 1.353 . S
C406 C409 1.345 . S
C406 H438 0.929 . S
C407 C408 1.358 . S
C407 C409 1.359 1_556 S
C407 H439 0.930 . S
C408 N405 1.279 . S
C408 C407 1.358 . S
C408 H411 0.930 . S
C409 C406 1.345 . S
C409 C407 1.359 1_554 S
H410 C404 0.930 . S
H411 C408 0.930 . S
O412 Li352 1.935 1_556 S
O412 Li353 1.969 1_556 S
O412 Li354 1.981 . S
O412 C356 1.324 . S
O413 Li352 1.970 . S
O413 Li353 1.956 . S
O413 Li355 1.938 1_554 S
O413 C362 1.325 . S
O414 Li352 1.961 . S
O414 Li354 1.956 1_554 S
O414 Li355 1.969 1_554 S
O414 C384 1.325 . S
O415 Li353 1.961 1_556 S
O415 Li354 1.970 . S
O415 Li355 1.978 . S
O415 C390 1.325 . S
H416 C358 0.929 . S
H417 C359 0.930 . S
H418 C360 0.930 . S
H419 C361 0.954 . S
H420 C363 0.930 . S
H421 C365 0.929 . S
H422 C366 0.930 . S
H423 C367 0.930 . S
H424 C370 0.930 . S
H425 C373 0.929 . S
H426 C378 0.929 . S
H427 C379 0.930 . S
H428 C386 0.929 . S
H429 C387 0.930 . S
H430 C388 0.930 1_655 S
H431 C389 0.930 . S
H432 C391 0.929 . S
H433 C392 0.930 . S
H434 C393 0.930 . S
H435 C394 0.930 . S
H436 C398 0.929 . S
H437 C400 0.930 . S
H438 C406 0.929 . S
H439 C407 0.930 . S
Li440 N457 1.990 . S
Li440 O500 1.956 . S
Li440 O501 1.969 1_554 S
Li440 O502 1.961 1_554 S
Li441 N465 1.990 . S
Li441 O500 1.970 . S
Li441 O501 1.935 1_554 S
Li441 O503 1.961 . S
Li442 N487 1.991 . S
Li442 O500 1.938 1_556 S
Li442 O502 1.978 . S
Li442 O503 1.969 1_556 S
Li443 N493 1.990 . S
Li443 O501 1.981 . S
Li443 O502 1.970 . S
Li443 O503 1.956 1_556 S
C444 C446 1.348 . S
C444 C447 1.356 . S
C444 O500 1.325 . S
N445 C448 1.314 . S
N445 C449 1.279 . S
C446 C444 1.348 . S
C446 C448 1.353 . S
C446 H504 0.929 . S
C447 C444 1.356 . S
C447 C449 1.358 . S
C447 H505 0.930 . S
C448 N445 1.314 . S
C448 C446 1.353 . S
C448 H506 0.930 . S
C449 N445 1.279 . S
C449 C447 1.358 . S
C449 H507 0.930 . S
C450 C453 1.349 1_556 S
C450 C454 1.355 . S
C450 O501 1.324 . S
C451 N452 1.279 1_556 S
C451 C454 1.358 . S
C451 H508 0.954 . S
N452 C451 1.279 1_554 S
N452 C455 1.314 . S
C453 C450 1.349 1_554 S
C453 C455 1.353 . S
C453 H509 0.929 . S
C454 C450 1.355 . S
C454 C451 1.358 . S
C454 H510 0.930 . S
C455 N452 1.314 . S
C455 C453 1.353 . S
C455 H511 0.930 . S
C456 N457 1.314 1_556 S
C456 C461 1.353 . S
C456 H462 0.930 . S
N457 Li440 1.990 . S
N457 C456 1.314 1_554 S
N457 C459 1.279 . S
C458 C459 1.358 . S
C458 C460 1.359 . S
C458 H512 0.930 . S
C459 N457 1.279 . S
C459 C458 1.358 . S
C459 H463 0.930 . S
C460 C458 1.359 . S
C460 C461 1.345 1_554 S
C461 C456 1.353 . S
C461 C460 1.345 1_556 S
C461 H513 0.929 . S
H462 C456 0.930 . S
H463 C459 0.930 . S
C464 N465 1.314 . S
C464 C466 1.353 . S
C464 H470 0.930 . S
N465 Li441 1.990 . S
N465 C464 1.314 . S
N465 C468 1.279 . S
C466 C464 1.353 . S
C466 C469 1.348 . S
C466 H514 0.929 . S
C467 C468 1.358 . S
C467 C469 1.356 . S
C467 H515 0.930 . S
C468 N465 1.279 . S
C468 C467 1.358 . S
C468 H471 0.930 . S
C469 C466 1.348 . S
C469 C467 1.356 . S
H470 C464 0.930 . S
H471 C468 0.930 . S
C472 C474 1.348 . S
C472 C475 1.356 . S
C472 O502 1.325 . S
N473 C476 1.314 . S
N473 C477 1.279 . S
C474 C472 1.348 . S
C474 C476 1.353 . S
C474 H516 0.929 . S
C475 C472 1.356 . S
C475 C477 1.358 . S
C475 H517 0.930 . S
C476 N473 1.314 . S
C476 C474 1.353 . S
C476 H518 0.930 . S
C477 N473 1.279 . S
C477 C475 1.358 . S
C477 H519 0.930 . S
C478 C479 1.346 1_554 S
C478 C480 1.357 . S
C478 O503 1.325 . S
C479 C478 1.346 1_556 S
C479 C481 1.353 . S
C479 H520 0.929 . S
C480 C478 1.357 . S
C480 C482 1.358 . S
C480 H521 0.930 . S
C481 C479 1.353 . S
C481 N483 1.314 . S
C481 H522 0.930 1_655 S
C482 C480 1.358 . S
C482 N483 1.279 1_554 S
C482 H523 0.930 . S
N483 C481 1.314 . S
N483 C482 1.279 1_556 S
C484 C486 1.353 . S
C484 N487 1.314 1_554 S
C484 H490 0.930 . S
C485 N487 1.279 . S
C485 C488 1.358 . S
C485 H491 0.930 . S
C486 C484 1.353 . S
C486 C489 1.345 . S
C486 H524 0.929 . S
N487 Li442 1.991 . S
N487 C484 1.314 1_556 S
N487 C485 1.279 . S
C488 C485 1.358 . S
C488 C489 1.359 1_556 S
C488 H525 0.930 . S
C489 C486 1.345 . S
C489 C488 1.359 1_554 S
H490 C484 0.930 . S
H491 C485 0.930 . S
C492 N493 1.314 . S
C492 C494 1.353 . S
C492 H498 0.930 . S
N493 Li443 1.990 . S
N493 C492 1.314 . S
N493 C496 1.279 . S
C494 C492 1.353 . S
C494 C497 1.348 . S
C494 H526 0.929 . S
C495 C496 1.358 . S
C495 C497 1.356 . S
C495 H527 0.930 . S
C496 N493 1.279 . S
C496 C495 1.358 . S
C496 H499 0.930 . S
C497 C494 1.348 . S
C497 C495 1.356 . S
H498 C492 0.930 . S
H499 C496 0.930 . S
O500 Li440 1.956 . S
O500 Li441 1.970 . S
O500 Li442 1.938 1_554 S
O500 C444 1.325 . S
O501 Li440 1.969 1_556 S
O501 Li441 1.935 1_556 S
O501 Li443 1.981 . S
O501 C450 1.324 . S
O502 Li440 1.961 1_556 S
O502 Li442 1.978 . S
O502 Li443 1.970 . S
O502 C472 1.325 . S
O503 Li441 1.961 . S
O503 Li442 1.969 1_554 S
O503 Li443 1.956 1_554 S
O503 C478 1.325 . S
H504 C446 0.929 . S
H505 C447 0.930 . S
H506 C448 0.930 . S
H507 C449 0.930 . S
H508 C451 0.954 . S
H509 C453 0.929 . S
H510 C454 0.930 . S
H511 C455 0.930 . S
H512 C458 0.930 . S
H513 C461 0.929 . S
H514 C466 0.929 . S
H515 C467 0.930 . S
H516 C474 0.929 . S
H517 C475 0.930 . S
H518 C476 0.930 . S
H519 C477 0.930 . S
H520 C479 0.929 . S
H521 C480 0.930 . S
H522 C481 0.930 1_455 S
H523 C482 0.930 . S
H524 C486 0.929 . S
H525 C488 0.930 . S
H526 C494 0.929 . S
H527 C495 0.930 . S
Li528 N545 1.990 . S
Li528 O588 1.956 . S
Li528 O589 1.970 . S
Li528 O590 1.961 . S
Li529 N553 1.990 . S
Li529 O588 1.970 . S
Li529 O589 1.956 . S
Li529 O591 1.961 . S
Li530 N575 1.990 . S
Li530 O588 1.961 . S
Li530 O590 1.956 . S
Li530 O591 1.970 . S
Li531 N581 1.990 . S
Li531 O589 1.961 . S
Li531 O590 1.970 . S
Li531 O591 1.956 . S
C532 C534 1.348 . S
C532 C535 1.356 . S
C532 O588 1.325 . S
N533 C536 1.314 . S
N533 C537 1.279 . S
C534 C532 1.348 . S
C534 C536 1.353 . S
C534 H592 0.929 . S
C535 C532 1.356 . S
C535 C537 1.358 . S
C535 H593 0.930 . S
C536 N533 1.314 . S
C536 C534 1.353 . S
C536 H594 0.930 . S
C537 N533 1.279 . S
C537 C535 1.358 . S
C537 H595 0.930 . S
C538 C541 1.348 . S
C538 C542 1.356 . S
C538 O589 1.325 . S
C539 N540 1.279 . S
C539 C542 1.358 . S
C539 H596 0.930 . S
N540 C539 1.279 . S
N540 C543 1.314 . S
C541 C538 1.348 . S
C541 C543 1.353 . S
C541 H597 0.929 . S
C542 C538 1.356 . S
C542 C539 1.358 . S
C542 H598 0.930 . S
C543 N540 1.314 . S
C543 C541 1.353 . S
C543 H599 0.930 1_455 S
C544 N545 1.314 . S
C544 C549 1.353 . S
C544 H550 0.930 . S
N545 Li528 1.990 . S
N545 C544 1.314 . S
N545 C547 1.279 . S
C546 C547 1.358 . S
C546 C548 1.356 . S
C546 H600 0.930 . S
C547 N545 1.279 . S
C547 C546 1.358 . S
C547 H551 0.930 . S
C548 C546 1.356 . S
C548 C549 1.348 . S
C549 C544 1.353 . S
C549 C548 1.348 . S
C549 H601 0.929 . S
H550 C544 0.930 . S
H551 C547 0.930 . S
C552 N553 1.314 . S
C552 C554 1.353 . S
C552 H558 0.930 . S
N553 Li529 1.990 . S
N553 C552 1.314 . S
N553 C556 1.279 . S
C554 C552 1.353 . S
C554 C557 1.348 . S
C554 H602 0.929 . S
C555 C556 1.358 . S
C555 C557 1.356 . S
C555 H603 0.930 . S
C556 N553 1.279 . S
C556 C555 1.358 . S
C556 H559 0.930 . S
C557 C554 1.348 . S
C557 C555 1.356 . S
H558 C552 0.930 . S
H559 C556 0.930 . S
C560 C562 1.348 . S
C560 C563 1.356 . S
C560 O590 1.325 . S
N561 C564 1.314 . S
N561 C565 1.279 . S
C562 C560 1.348 . S
C562 C564 1.353 . S
C562 H604 0.929 . S
C563 C560 1.356 . S
C563 C565 1.358 . S
C563 H605 0.930 . S
C564 N561 1.314 . S
C564 C562 1.353 . S
C564 H606 0.930 . S
C565 N561 1.279 . S
C565 C563 1.358 . S
C565 H607 0.930 . S
C566 C567 1.348 . S
C566 C568 1.356 . S
C566 O591 1.325 . S
C567 C566 1.348 . S
C567 C569 1.353 . S
C567 H608 0.929 . S
C568 C566 1.356 . S
C568 C570 1.358 . S
C568 H609 0.930 . S
C569 C567 1.353 . S
C569 N571 1.314 . S
C569 H610 0.930 . S
C570 C568 1.358 . S
C570 N571 1.279 . S
C570 H611 0.954 . S
N571 C569 1.314 . S
N571 C570 1.279 . S
C572 C574 1.353 . S
C572 N575 1.314 . S
C572 H578 0.930 . S
C573 N575 1.279 . S
C573 C576 1.358 . S
C573 H579 0.930 . S
C574 C572 1.353 . S
C574 C577 1.348 . S
C574 H612 0.929 . S
N575 Li530 1.990 . S
N575 C572 1.314 . S
N575 C573 1.279 . S
C576 C573 1.358 . S
C576 C577 1.356 . S
C576 H613 0.930 . S
C577 C574 1.348 . S
C577 C576 1.356 . S
H578 C572 0.930 . S
H579 C573 0.930 . S
C580 N581 1.314 . S
C580 C582 1.353 . S
C580 H586 0.930 . S
N581 Li531 1.990 . S
N581 C580 1.314 . S
N581 C584 1.279 . S
C582 C580 1.353 . S
C582 C585 1.348 . S
C582 H614 0.929 . S
C583 C584 1.358 . S
C583 C585 1.356 . S
C583 H615 0.930 . S
C584 N581 1.279 . S
C584 C583 1.358 . S
C584 H587 0.930 . S
C585 C582 1.348 . S
C585 C583 1.356 . S
H586 C580 0.930 . S
H587 C584 0.930 . S
O588 Li528 1.956 . S
O588 Li529 1.970 . S
O588 Li530 1.961 . S
O588 C532 1.325 . S
O589 Li528 1.970 . S
O589 Li529 1.956 . S
O589 Li531 1.961 . S
O589 C538 1.325 . S
O590 Li528 1.961 . S
O590 Li530 1.956 . S
O590 Li531 1.970 . S
O590 C560 1.325 . S
O591 Li529 1.961 . S
O591 Li530 1.970 . S
O591 Li531 1.956 . S
O591 C566 1.325 . S
H592 C534 0.929 . S
H593 C535 0.930 . S
H594 C536 0.930 . S
H595 C537 0.930 . S
H596 C539 0.930 . S
H597 C541 0.929 . S
H598 C542 0.930 . S
H599 C543 0.930 1_655 S
H600 C546 0.930 . S
H601 C549 0.929 . S
H602 C554 0.929 . S
H603 C555 0.930 . S
H604 C562 0.929 . S
H605 C563 0.930 . S
H606 C564 0.930 . S
H607 C565 0.930 . S
H608 C567 0.929 . S
H609 C568 0.930 . S
H610 C569 0.930 . S
H611 C570 0.954 . S
H612 C574 0.929 . S
H613 C576 0.930 . S
H614 C582 0.929 . S
H615 C583 0.930 . S
Li616 N633 1.990 . S
Li616 O676 1.956 . S
Li616 O677 1.970 . S
Li616 O678 1.961 . S
Li617 N641 1.990 . S
Li617 O676 1.970 . S
Li617 O677 1.956 . S
Li617 O679 1.961 . S
Li618 N663 1.990 . S
Li618 O676 1.961 . S
Li618 O678 1.956 . S
Li618 O679 1.970 . S
Li619 N669 1.990 . S
Li619 O677 1.961 . S
Li619 O678 1.970 . S
Li619 O679 1.956 . S
C620 C622 1.348 . S
C620 C623 1.356 . S
C620 O676 1.325 . S
N621 C624 1.314 . S
N621 C625 1.279 . S
C622 C620 1.348 . S
C622 C624 1.353 . S
C622 H680 0.929 . S
C623 C620 1.356 . S
C623 C625 1.358 . S
C623 H681 0.930 . S
C624 N621 1.314 . S
C624 C622 1.353 . S
C624 H682 0.930 1_655 S
C625 N621 1.279 . S
C625 C623 1.358 . S
C625 H683 0.930 . S
C626 C629 1.348 . S
C626 C630 1.356 . S
C626 O677 1.325 . S
C627 N628 1.279 . S
C627 C630 1.358 . S
C627 H684 0.930 . S
N628 C627 1.279 . S
N628 C631 1.314 . S
C629 C626 1.348 . S
C629 C631 1.353 . S
C629 H685 0.929 . S
C630 C626 1.356 . S
C630 C627 1.358 . S
C630 H686 0.930 . S
C631 N628 1.314 . S
C631 C629 1.353 . S
C631 H687 0.930 . S
C632 N633 1.314 . S
C632 C637 1.353 . S
C632 H638 0.930 . S
N633 Li616 1.990 . S
N633 C632 1.314 . S
N633 C635 1.279 . S
C634 C635 1.358 . S
C634 C636 1.356 . S
C634 H688 0.930 . S
C635 N633 1.279 . S
C635 C634 1.358 . S
C635 H639 0.930 . S
C636 C634 1.356 . S
C636 C637 1.348 . S
C637 C632 1.353 . S
C637 C636 1.348 . S
C637 H689 0.929 . S
H638 C632 0.930 . S
H639 C635 0.930 . S
C640 N641 1.314 . S
C640 C642 1.353 . S
C640 H646 0.930 . S
N641 Li617 1.990 . S
N641 C640 1.314 . S
N641 C644 1.279 . S
C642 C640 1.353 . S
C642 C645 1.348 . S
C642 H690 0.929 . S
C643 C644 1.358 . S
C643 C645 1.356 . S
C643 H691 0.930 . S
C644 N641 1.279 . S
C644 C643 1.358 . S
C644 H647 0.930 . S
C645 C642 1.348 . S
C645 C643 1.356 . S
H646 C640 0.930 . S
H647 C644 0.930 . S
C648 C650 1.348 . S
C648 C651 1.356 . S
C648 O678 1.325 . S
N649 C652 1.314 . S
N649 C653 1.279 . S
C650 C648 1.348 . S
C650 C652 1.353 . S
C650 H692 0.929 . S
C651 C648 1.356 . S
C651 C653 1.358 . S
C651 H693 0.930 . S
C652 N649 1.314 . S
C652 C650 1.353 . S
C652 H694 0.930 . S
C653 N649 1.279 . S
C653 C651 1.358 . S
C653 H695 0.954 . S
C654 C655 1.348 . S
C654 C656 1.356 . S
C654 O679 1.325 . S
C655 C654 1.348 . S
C655 C657 1.353 . S
C655 H696 0.929 . S
C656 C654 1.356 . S
C656 C658 1.358 . S
C656 H697 0.930 . S
C657 C655 1.353 . S
C657 N659 1.314 . S
C657 H698 0.930 . S
C658 C656 1.358 . S
C658 N659 1.279 . S
C658 H699 0.930 . S
N659 C657 1.314 . S
N659 C658 1.279 . S
C660 C662 1.353 . S
C660 N663 1.314 . S
C660 H666 0.930 . S
C661 N663 1.279 . S
C661 C664 1.358 . S
C661 H667 0.930 . S
C662 C660 1.353 . S
C662 C665 1.348 . S
C662 H700 0.929 . S
N663 Li618 1.990 . S
N663 C660 1.314 . S
N663 C661 1.279 . S
C664 C661 1.358 . S
C664 C665 1.356 . S
C664 H701 0.930 . S
C665 C662 1.348 . S
C665 C664 1.356 . S
H666 C660 0.930 . S
H667 C661 0.930 . S
C668 N669 1.314 . S
C668 C670 1.353 . S
C668 H674 0.930 . S
N669 Li619 1.990 . S
N669 C668 1.314 . S
N669 C672 1.279 . S
C670 C668 1.353 . S
C670 C673 1.348 . S
C670 H702 0.929 . S
C671 C672 1.358 . S
C671 C673 1.356 . S
C671 H703 0.930 . S
C672 N669 1.279 . S
C672 C671 1.358 . S
C672 H675 0.930 . S
C673 C670 1.348 . S
C673 C671 1.356 . S
H674 C668 0.930 . S
H675 C672 0.930 . S
O676 Li616 1.956 . S
O676 Li617 1.970 . S
O676 Li618 1.961 . S
O676 C620 1.325 . S
O677 Li616 1.970 . S
O677 Li617 1.956 . S
O677 Li619 1.961 . S
O677 C626 1.325 . S
O678 Li616 1.961 . S
O678 Li618 1.956 . S
O678 Li619 1.970 . S
O678 C648 1.325 . S
O679 Li617 1.961 . S
O679 Li618 1.970 . S
O679 Li619 1.956 . S
O679 C654 1.325 . S
H680 C622 0.929 . S
H681 C623 0.930 . S
H682 C624 0.930 1_455 S
H683 C625 0.930 . S
H684 C627 0.930 . S
H685 C629 0.929 . S
H686 C630 0.930 . S
H687 C631 0.930 . S
H688 C634 0.930 . S
H689 C637 0.929 . S
H690 C642 0.929 . S
H691 C643 0.930 . S
H692 C650 0.929 . S
H693 C651 0.930 . S
H694 C652 0.930 . S
H695 C653 0.954 . S
H696 C655 0.929 . S
H697 C656 0.930 . S
H698 C657 0.930 . S
H699 C658 0.930 . S
H700 C662 0.929 . S
H701 C664 0.930 . S
H702 C670 0.929 . S
H703 C671 0.930 . S
H704 C710 0.930 . S
H705 C714 0.930 . S
H706 C719 0.929 . S
H707 C717 0.929 . S
H708 C712 0.929 . S
H709 C718 0.929 . S
C710 H704 0.930 . S
C710 C711 1.368 . S
C710 C718 1.378 . S
C711 C710 1.368 . S
C711 C719 1.432 1_554 S
C712 H708 0.929 . S
C712 C714 1.378 . S
C712 C716 1.355 . S
C713 C716 1.462 1_554 S
C713 C718 1.353 . S
C713 N721 1.425 1_554 S
C714 H705 0.930 . S
C714 C712 1.378 . S
C714 C715 1.370 . S
C715 C714 1.370 . S
C715 C717 1.430 1_556 S
C716 C712 1.355 . S
C716 C713 1.462 1_556 S
C716 N720 1.422 1_556 S
C717 H707 0.929 . S
C717 C715 1.430 1_554 S
C717 N720 1.384 . S
C718 H709 0.929 . S
C718 C710 1.378 . S
C718 C713 1.353 . S
C719 H706 0.929 . S
C719 C711 1.432 1_556 S
C719 N721 1.384 . S
N720 C716 1.422 1_554 S
N720 C717 1.384 . S
N721 C713 1.425 1_556 S
N721 C719 1.384 . S
H722 C728 0.930 . S
H723 C732 0.930 . S
H724 C737 0.929 . S
H725 C735 0.929 . S
H726 C730 0.929 . S
H727 C736 0.929 . S
C728 H722 0.930 . S
C728 C729 1.390 . S
C728 C736 1.378 . S
C729 C728 1.390 . S
C729 C737 1.410 1_556 S
C730 H726 0.929 . S
C730 C732 1.378 . S
C730 C734 1.378 . S
C731 C734 1.461 1_556 S
C731 C736 1.350 . S
C731 N739 1.427 1_556 S
C732 H723 0.930 . S
C732 C730 1.378 . S
C732 C733 1.384 . S
C733 C732 1.384 . S
C733 C735 1.416 1_554 S
C734 C730 1.378 . S
C734 C731 1.461 1_554 S
C734 N738 1.399 1_554 S
C735 H725 0.929 . S
C735 C733 1.416 1_556 S
C735 N738 1.384 . S
C736 H727 0.929 . S
C736 C728 1.378 . S
C736 C731 1.350 . S
C737 H724 0.929 . S
C737 C729 1.410 1_554 S
C737 N739 1.384 . S
N738 C734 1.399 1_556 S
N738 C735 1.384 . S
N739 C731 1.427 1_554 S
N739 C737 1.384 . S
H740 C746 0.930 . S
H741 C750 0.930 . S
H742 C755 0.929 . S
H743 C753 0.929 . S
H744 C748 0.929 . S
H745 C754 0.929 . S
C746 H740 0.930 . S
C746 C747 1.367 . S
C746 C754 1.378 . S
C747 C746 1.367 . S
C747 C755 1.433 . S
C748 H744 0.929 . S
C748 C750 1.378 . S
C748 C752 1.350 . S
C749 C752 1.463 . S
C749 C754 1.350 . S
C749 N757 1.427 . S
C750 H741 0.930 . S
C750 C748 1.378 . S
C750 C751 1.367 . S
C751 C750 1.367 . S
C751 C753 1.433 . S
C752 C748 1.350 . S
C752 C749 1.463 . S
C752 N756 1.427 . S
C753 H743 0.929 . S
C753 C751 1.433 . S
C753 N756 1.384 . S
C754 H745 0.929 . S
C754 C746 1.378 . S
C754 C749 1.350 . S
C755 H742 0.929 . S
C755 C747 1.433 . S
C755 N757 1.384 . S
N756 C752 1.427 . S
N756 C753 1.384 . S
N757 C749 1.427 . S
N757 C755 1.384 . S
H758 C764 0.930 . S
H759 C768 0.930 . S
H760 C773 0.929 . S
H761 C771 0.929 . S
H762 C766 0.929 . S
H763 C772 0.929 . S
C764 H758 0.930 . S
C764 C765 1.367 . S
C764 C772 1.378 . S
C765 C764 1.367 . S
C765 C773 1.433 . S
C766 H762 0.929 . S
C766 C768 1.378 . S
C766 C770 1.350 . S
C767 C770 1.463 . S
C767 C772 1.350 . S
C767 N775 1.427 . S
C768 H759 0.930 . S
C768 C766 1.378 . S
C768 C769 1.367 . S
C769 C768 1.367 . S
C769 C771 1.433 . S
C770 C766 1.350 . S
C770 C767 1.463 . S
C770 N774 1.427 . S
C771 H761 0.929 . S
C771 C769 1.433 . S
C771 N774 1.384 . S
C772 H763 0.929 . S
C772 C764 1.378 . S
C772 C767 1.350 . S
C773 H760 0.929 . S
C773 C765 1.433 . S
C773 N775 1.384 . S
N774 C770 1.427 . S
N774 C771 1.384 . S
N775 C767 1.427 . S
N775 C773 1.384 . S
H776 C782 0.930 . S
H777 C786 0.930 . S
H778 C791 0.929 . S
H779 C789 0.929 . S
H780 C784 0.929 . S
H781 C790 0.929 . S
C782 H776 0.930 . S
C782 C783 1.367 . S
C782 C790 1.378 . S
C783 C782 1.367 . S
C783 C791 1.433 . S
C784 H780 0.929 . S
C784 C786 1.378 . S
C784 C788 1.350 . S
C785 C788 1.463 . S
C785 C790 1.350 . S
C785 N793 1.427 . S
C786 H777 0.930 . S
C786 C784 1.378 . S
C786 C787 1.367 . S
C787 C786 1.367 . S
C787 C789 1.433 . S
C788 C784 1.350 . S
C788 C785 1.463 . S
C788 N792 1.427 . S
C789 H779 0.929 . S
C789 C787 1.433 . S
C789 N792 1.384 . S
C790 H781 0.929 . S
C790 C782 1.378 . S
C790 C785 1.350 . S
C791 H778 0.929 . S
C791 C783 1.433 . S
C791 N793 1.384 . S
N792 C788 1.427 . S
N792 C789 1.384 . S
N793 C785 1.427 . S
N793 C791 1.384 . S
H794 C800 0.930 . S
H795 C804 0.930 . S
H796 C809 0.929 . S
H797 C807 0.929 . S
H798 C802 0.929 . S
H799 C808 0.929 . S
C800 H794 0.930 . S
C800 C801 1.367 . S
C800 C808 1.378 . S
C801 C800 1.367 . S
C801 C809 1.433 . S
C802 H798 0.929 . S
C802 C804 1.378 . S
C802 C806 1.350 . S
C803 C806 1.463 . S
C803 C808 1.350 . S
C803 N811 1.427 . S
C804 H795 0.930 . S
C804 C802 1.378 . S
C804 C805 1.367 . S
C805 C804 1.367 . S
C805 C807 1.433 . S
C806 C802 1.350 . S
C806 C803 1.463 . S
C806 N810 1.427 . S
C807 H797 0.929 . S
C807 C805 1.433 . S
C807 N810 1.384 . S
C808 H799 0.929 . S
C808 C800 1.378 . S
C808 C803 1.350 . S
C809 H796 0.929 . S
C809 C801 1.433 . S
C809 N811 1.384 . S
N810 C806 1.427 . S
N810 C807 1.384 . S
N811 C803 1.427 . S
N811 C809 1.384 . S
H812 C818 0.930 . S
H813 C822 0.930 . S
H814 C827 0.929 . S
H815 C825 0.929 . S
H816 C820 0.929 . S
H817 C826 0.929 . S
C818 H812 0.930 . S
C818 C819 1.367 . S
C818 C826 1.378 . S
C819 C818 1.367 . S
C819 C827 1.433 . S
C820 H816 0.929 . S
C820 C822 1.378 . S
C820 C824 1.350 . S
C821 C824 1.463 . S
C821 C826 1.350 . S
C821 N829 1.427 . S
C822 H813 0.930 . S
C822 C820 1.378 . S
C822 C823 1.367 . S
C823 C822 1.367 . S
C823 C825 1.433 . S
C824 C820 1.350 . S
C824 C821 1.463 . S
C824 N828 1.427 . S
C825 H815 0.929 . S
C825 C823 1.433 . S
C825 N828 1.384 . S
C826 H817 0.929 . S
C826 C818 1.378 . S
C826 C821 1.350 . S
C827 H814 0.929 . S
C827 C819 1.433 . S
C827 N829 1.384 . S
N828 C824 1.427 . S
N828 C825 1.384 . S
N829 C821 1.427 . S
N829 C827 1.384 . S
H830 C836 0.930 . S
H831 C840 0.930 . S
H832 C845 0.929 . S
H833 C843 0.929 . S
H834 C838 0.929 . S
H835 C844 0.929 . S
C836 H830 0.930 . S
C836 C837 1.367 . S
C836 C844 1.378 . S
C837 C836 1.367 . S
C837 C845 1.433 . S
C838 H834 0.929 . S
C838 C840 1.378 . S
C838 C842 1.350 . S
C839 C842 1.463 . S
C839 C844 1.350 . S
C839 N847 1.427 . S
C840 H831 0.930 . S
C840 C838 1.378 . S
C840 C841 1.367 . S
C841 C840 1.367 . S
C841 C843 1.433 . S
C842 C838 1.350 . S
C842 C839 1.463 . S
C842 N846 1.427 . S
C843 H833 0.929 . S
C843 C841 1.433 . S
C843 N846 1.384 . S
C844 H835 0.929 . S
C844 C836 1.378 . S
C844 C839 1.350 . S
C845 H832 0.929 . S
C845 C837 1.433 . S
C845 N847 1.384 . S
N846 C842 1.427 . S
N846 C843 1.384 . S
N847 C839 1.427 . S
N847 C845 1.384 . S
H848 C854 0.930 . S
H849 C858 0.930 . S
H850 C863 0.929 . S
H851 C861 0.929 . S
H852 C856 0.929 . S
H853 C862 0.929 . S
C854 H848 0.930 . S
C854 C855 1.367 . S
C854 C862 1.378 1_565 S
C855 C854 1.367 . S
C855 C863 1.433 . S
C856 H852 0.929 . S
C856 C858 1.378 1_565 S
C856 C860 1.350 1_565 S
C857 C860 1.463 1_565 S
C857 C862 1.350 1_565 S
C857 N865 1.427 . S
C858 H849 0.930 . S
C858 C856 1.378 1_545 S
C858 C859 1.367 . S
C859 C858 1.367 . S
C859 C861 1.433 . S
C860 C856 1.350 1_545 S
C860 C857 1.463 1_545 S
C860 N864 1.427 . S
C861 H851 0.929 . S
C861 C859 1.433 . S
C861 N864 1.384 . S
C862 H853 0.929 . S
C862 C854 1.378 1_545 S
C862 C857 1.350 1_545 S
C863 H850 0.929 . S
C863 C855 1.433 . S
C863 N865 1.384 . S
N864 C860 1.427 . S
N864 C861 1.384 . S
N865 C857 1.427 . S
N865 C863 1.384 . S
H866 C872 0.930 . S
H867 C876 0.930 . S
H868 C881 0.929 1_545 S
H869 C879 0.929 1_565 S
H870 C874 0.929 . S
H871 C880 0.929 . S
C872 H866 0.930 . S
C872 C873 1.367 . S
C872 C880 1.378 . S
C873 C872 1.367 . S
C873 C881 1.433 . S
C874 H870 0.929 . S
C874 C876 1.378 . S
C874 C878 1.350 . S
C875 C878 1.463 1_565 S
C875 C880 1.350 . S
C875 N883 1.427 1_565 S
C876 H867 0.930 . S
C876 C874 1.378 . S
C876 C877 1.367 . S
C877 C876 1.367 . S
C877 C879 1.433 . S
C878 C874 1.350 . S
C878 C875 1.463 1_545 S
C878 N882 1.427 1_545 S
C879 H869 0.929 1_545 S
C879 C877 1.433 . S
C879 N882 1.384 1_545 S
C880 H871 0.929 . S
C880 C872 1.378 . S
C880 C875 1.350 . S
C881 H868 0.929 1_565 S
C881 C873 1.433 . S
C881 N883 1.384 1_565 S
N882 C878 1.427 1_565 S
N882 C879 1.384 1_565 S
N883 C875 1.427 1_545 S
N883 C881 1.384 1_545 S
H884 C890 0.930 1_545 S
H885 C894 0.930 1_565 S
H886 C899 0.929 . S
H887 C897 0.929 . S
H888 C892 0.929 . S
H889 C898 0.929 . S
C890 H884 0.930 1_565 S
C890 C891 1.367 . S
C890 C898 1.378 1_565 S
C891 C890 1.367 . S
C891 C899 1.433 . S
C892 H888 0.929 . S
C892 C894 1.378 1_565 S
C892 C896 1.350 1_565 S
C893 C896 1.463 1_565 S
C893 C898 1.350 1_565 S
C893 N901 1.427 . S
C894 H885 0.930 1_545 S
C894 C892 1.378 1_545 S
C894 C895 1.367 . S
C895 C894 1.367 . S
C895 C897 1.433 . S
C896 C892 1.350 1_545 S
C896 C893 1.463 1_545 S
C896 N900 1.427 . S
C897 H887 0.929 . S
C897 C895 1.433 . S
C897 N900 1.384 . S
C898 H889 0.929 . S
C898 C890 1.378 1_545 S
C898 C893 1.350 1_545 S
C899 H886 0.929 . S
C899 C891 1.433 . S
C899 N901 1.384 . S
N900 C896 1.427 . S
N900 C897 1.384 . S
N901 C893 1.427 . S
N901 C899 1.384 . S
H902 C908 0.930 . S
H903 C912 0.930 . S
H904 C917 0.929 1_545 S
H905 C915 0.929 1_565 S
H906 C910 0.929 . S
H907 C916 0.929 . S
C908 H902 0.930 . S
C908 C909 1.367 . S
C908 C916 1.378 . S
C909 C908 1.367 . S
C909 C917 1.433 . S
C910 H906 0.929 . S
C910 C912 1.378 . S
C910 C914 1.350 . S
C911 C914 1.463 1_565 S
C911 C916 1.350 . S
C911 N919 1.427 1_565 S
C912 H903 0.930 . S
C912 C910 1.378 . S
C912 C913 1.367 . S
C913 C912 1.367 . S
C913 C915 1.433 . S
C914 C910 1.350 . S
C914 C911 1.463 1_545 S
C914 N918 1.427 1_545 S
C915 H905 0.929 1_545 S
C915 C913 1.433 . S
C915 N918 1.384 1_545 S
C916 H907 0.929 . S
C916 C908 1.378 . S
C916 C911 1.350 . S
C917 H904 0.929 1_565 S
C917 C909 1.433 . S
C917 N919 1.384 1_565 S
N918 C914 1.427 1_565 S
N918 C915 1.384 1_565 S
N919 C911 1.427 1_545 S
N919 C917 1.384 1_545 S
H920 C926 0.930 . S
H921 C930 0.930 . S
H922 C935 0.929 . S
H923 C933 0.929 . S
H924 C928 0.929 . S
H925 C934 0.929 . S
C926 H920 0.930 . S
C926 C927 1.379 . S
C926 C934 1.378 . S
C927 C926 1.379 . S
C927 C935 1.421 1_554 S
C928 H924 0.929 . S
C928 C930 1.378 . S
C928 C932 1.354 . S
C929 C932 1.462 1_564 S
C929 C934 1.366 . S
C929 N937 1.412 1_554 S
C930 H921 0.930 . S
C930 C928 1.378 . S
C930 C931 1.367 . S
C931 C930 1.367 . S
C931 C933 1.433 1_556 S
C932 C928 1.354 . S
C932 C929 1.462 1_546 S
C932 N936 1.423 1_556 S
C933 H923 0.929 . S
C933 C931 1.433 1_554 S
C933 N936 1.384 . S
C934 H925 0.929 . S
C934 C926 1.378 . S
C934 C929 1.366 . S
C935 H922 0.929 . S
C935 C927 1.421 1_556 S
C935 N937 1.384 . S
N936 C932 1.423 1_554 S
N936 C933 1.384 . S
N937 C929 1.412 1_556 S
N937 C935 1.384 . S
H938 C944 0.930 . S
H939 C948 0.930 . S
H940 C953 0.929 . S
H941 C951 0.929 . S
H942 C946 0.929 . S
H943 C952 0.929 . S
C944 H938 0.930 . S
C944 C945 1.367 . S
C944 C952 1.378 . S
C945 C944 1.367 . S
C945 C953 1.433 . S
C946 H942 0.929 . S
C946 C948 1.378 . S
C946 C950 1.350 . S
C947 C950 1.463 1_565 S
C947 C952 1.350 . S
C947 N955 1.427 . S
C948 H939 0.930 . S
C948 C946 1.378 . S
C948 C949 1.367 . S
C949 C948 1.367 . S
C949 C951 1.433 . S
C950 C946 1.350 . S
C950 C947 1.463 1_545 S
C950 N954 1.427 . S
C951 H941 0.929 . S
C951 C949 1.433 . S
C951 N954 1.384 . S
C952 H943 0.929 . S
C952 C944 1.378 . S
C952 C947 1.350 . S
C953 H940 0.929 . S
C953 C945 1.433 . S
C953 N955 1.384 . S
N954 C950 1.427 . S
N954 C951 1.384 . S
N955 C947 1.427 . S
N955 C953 1.384 . S
H956 C962 0.904 1_655 S
H957 C966 0.904 1_455 S
H958 C971 0.929 . S
H959 C969 0.929 . S
H960 C964 0.929 . S
H961 C970 0.929 . S
C962 H956 0.904 1_455 S
C962 C963 1.428 . S
C962 C970 1.358 1_455 S
C963 C962 1.428 . S
C963 C971 1.421 1_554 S
C964 H960 0.929 . S
C964 C966 1.358 1_455 S
C964 C968 1.354 1_455 S
C965 C968 1.462 1_454 S
C965 C970 1.366 1_455 S
C965 N973 1.412 1_554 S
C966 H957 0.904 1_655 S
C966 C964 1.358 1_655 S
C966 C967 1.417 . S
C967 C966 1.417 . S
C967 C969 1.433 1_556 S
C968 C964 1.354 1_655 S
C968 C965 1.462 1_656 S
C968 N972 1.423 1_556 S
C969 H959 0.929 . S
C969 C967 1.433 1_554 S
C969 N972 1.384 . S
C970 H961 0.929 . S
C970 C962 1.358 1_655 S
C970 C965 1.366 1_655 S
C971 H958 0.929 . S
C971 C963 1.421 1_556 S
C971 N973 1.384 . S
N972 C968 1.423 1_554 S
N972 C969 1.384 . S
N973 C965 1.412 1_556 S
N973 C971 1.384 . S
H974 C980 0.930 1_655 S
H975 C984 0.930 1_455 S
H976 C989 0.929 . S
H977 C987 0.929 . S
H978 C982 0.929 . S
H979 C988 0.929 . S
C980 H974 0.930 1_455 S
C980 C981 1.367 . S
C980 C988 1.378 1_455 S
C981 C980 1.367 . S
C981 C989 1.433 . S
C982 H978 0.929 . S
C982 C984 1.378 1_455 S
C982 C986 1.350 1_455 S
C983 C986 1.463 1_455 S
C983 C988 1.350 1_455 S
C983 N991 1.427 . S
C984 H975 0.930 1_655 S
C984 C982 1.378 1_655 S
C984 C985 1.367 . S
C985 C984 1.367 . S
C985 C987 1.433 . S
C986 C982 1.350 1_655 S
C986 C983 1.463 1_655 S
C986 N990 1.427 . S
C987 H977 0.929 . S
C987 C985 1.433 . S
C987 N990 1.384 . S
C988 H979 0.929 . S
C988 C980 1.378 1_655 S
C988 C983 1.350 1_655 S
C989 H976 0.929 . S
C989 C981 1.433 . S
C989 N991 1.384 . S
N990 C986 1.427 . S
N990 C987 1.384 . S
N991 C983 1.427 . S
N991 C989 1.384 . S
C711 C460 1.571 . S
C715 C29 1.571 1_556 S
C729 C381 1.573 1_556 S
C733 C108 1.573 . S
C747 C673 1.574 . S
C751 C225 1.574 . S
C765 C577 1.574 . S
C769 C321 1.573 . S
C783 C20 1.338 . S
C787 C233 1.338 . S
C801 C117 1.338 . S
C805 C313 1.338 . S
C819 C145 1.340 . S
C823 C284 1.346 . S
C837 C49 1.340 . S
C841 C205 1.346 . S
C855 C372 1.344 . S
C859 C585 1.336 . S
C873 C665 1.339 . S
C877 C469 1.337 . S
C891 C636 1.340 . S
C895 C497 1.346 . S
C909 C401 1.340 . S
C913 C557 1.341 . S
C927 C137 1.599 . S
C931 C57 1.599 1_556 S
C945 C196 1.605 . S
C949 C293 1.604 . S
C963 C409 1.605 . S
C967 C489 1.605 1_556 S
C981 C548 1.605 . S
C985 C645 1.605 . S
