# Generated by pormake.
# Topology etb, (3)-cn, num edge types: 1
# Building blocks:
#     Node 0, Type 0, BuildingBlock: OLANEW_clean_sbu_2, # of connection points: 3
#     Node 1, Type 0, BuildingBlock: OLANEW_clean_sbu_2, # of connection points: 3
#     Node 2, Type 0, BuildingBlock: OLANEW_clean_sbu_2, # of connection points: 3
#     Node 3, Type 0, BuildingBlock: OLANEW_clean_sbu_2, # of connection points: 3
#     Node 4, Type 0, BuildingBlock: OLANEW_clean_sbu_2, # of connection points: 3
#     Node 5, Type 0, BuildingBlock: OLANEW_clean_sbu_2, # of connection points: 3
#     Node 6, Type 0, BuildingBlock: OLANEW_clean_sbu_2, # of connection points: 3
#     Node 7, Type 0, BuildingBlock: OLANEW_clean_sbu_2, # of connection points: 3
#     Node 8, Type 0, BuildingBlock: OLANEW_clean_sbu_2, # of connection points: 3
#     Node 9, Type 0, BuildingBlock: OLANEW_clean_sbu_2, # of connection points: 3
#     Node 10, Type 0, BuildingBlock: OLANEW_clean_sbu_2, # of connection points: 3
#     Node 11, Type 0, BuildingBlock: OLANEW_clean_sbu_2, # of connection points: 3
#     Node 12, Type 0, BuildingBlock: OLANEW_clean_sbu_2, # of connection points: 3
#     Node 13, Type 0, BuildingBlock: OLANEW_clean_sbu_2, # of connection points: 3
#     Node 14, Type 0, BuildingBlock: OLANEW_clean_sbu_2, # of connection points: 3
#     Node 15, Type 0, BuildingBlock: OLANEW_clean_sbu_2, # of connection points: 3
#     Node 16, Type 0, BuildingBlock: OLANEW_clean_sbu_2, # of connection points: 3
#     Node 17, Type 0, BuildingBlock: OLANEW_clean_sbu_2, # of connection points: 3
#     Edge 18, Type (0, 0), BuildingBlock: XUDNAN_clean_linker_2, # of connection points: 2
#     Edge 19, Type (0, 0), BuildingBlock: XUDNAN_clean_linker_2, # of connection points: 2
#     Edge 20, Type (0, 0), BuildingBlock: XUDNAN_clean_linker_2, # of connection points: 2
#     Edge 21, Type (0, 0), BuildingBlock: XUDNAN_clean_linker_2, # of connection points: 2
#     Edge 22, Type (0, 0), BuildingBlock: XUDNAN_clean_linker_2, # of connection points: 2
#     Edge 23, Type (0, 0), BuildingBlock: XUDNAN_clean_linker_2, # of connection points: 2
#     Edge 24, Type (0, 0), BuildingBlock: XUDNAN_clean_linker_2, # of connection points: 2
#     Edge 25, Type (0, 0), BuildingBlock: XUDNAN_clean_linker_2, # of connection points: 2
#     Edge 26, Type (0, 0), BuildingBlock: XUDNAN_clean_linker_2, # of connection points: 2
#     Edge 27, Type (0, 0), BuildingBlock: XUDNAN_clean_linker_2, # of connection points: 2
#     Edge 28, Type (0, 0), BuildingBlock: XUDNAN_clean_linker_2, # of connection points: 2
#     Edge 29, Type (0, 0), BuildingBlock: XUDNAN_clean_linker_2, # of connection points: 2
#     Edge 30, Type (0, 0), BuildingBlock: XUDNAN_clean_linker_2, # of connection points: 2
#     Edge 31, Type (0, 0), BuildingBlock: XUDNAN_clean_linker_2, # of connection points: 2
#     Edge 32, Type (0, 0), BuildingBlock: XUDNAN_clean_linker_2, # of connection points: 2
#     Edge 33, Type (0, 0), BuildingBlock: XUDNAN_clean_linker_2, # of connection points: 2
#     Edge 34, Type (0, 0), BuildingBlock: XUDNAN_clean_linker_2, # of connection points: 2
#     Edge 35, Type (0, 0), BuildingBlock: XUDNAN_clean_linker_2, # of connection points: 2
#     Edge 36, Type (0, 0), BuildingBlock: XUDNAN_clean_linker_2, # of connection points: 2
#     Edge 37, Type (0, 0), BuildingBlock: XUDNAN_clean_linker_2, # of connection points: 2
#     Edge 38, Type (0, 0), BuildingBlock: XUDNAN_clean_linker_2, # of connection points: 2
#     Edge 39, Type (0, 0), BuildingBlock: XUDNAN_clean_linker_2, # of connection points: 2
#     Edge 40, Type (0, 0), BuildingBlock: XUDNAN_clean_linker_2, # of connection points: 2
#     Edge 41, Type (0, 0), BuildingBlock: XUDNAN_clean_linker_2, # of connection points: 2
#     Edge 42, Type (0, 0), BuildingBlock: XUDNAN_clean_linker_2, # of connection points: 2
#     Edge 43, Type (0, 0), BuildingBlock: XUDNAN_clean_linker_2, # of connection points: 2
#     Edge 44, Type (0, 0), BuildingBlock: XUDNAN_clean_linker_2, # of connection points: 2
# Relax obj value: 0.017
# Max RMSD: 0.079
# Mean RMSD: 0.069
data_MOF--net-etb--node1-OLANEW_clean_sbu_2--edge1-XUDNAN_clean_linker_2
_symmetry_space_group_name_H-M    P1
_symmetry_Int_Tables_number       1
_symmetry_cell_setting            triclinic
loop_
_symmetry_equiv_pos_as_xyz
'x, y, z'
_cell_length_a     96.942566
_cell_length_b     91.512544
_cell_length_c     29.521148
_cell_angle_alpha  83.328051
_cell_angle_beta   96.226587
_cell_angle_gamma 124.5376
loop_
_atom_site_label
_atom_site_type_symbol
_atom_site_fract_x
_atom_site_fract_y
_atom_site_fract_z
_atom_type_partial_charge
O0 O 0.45424 0.07 0.00788 0.0
Cd1 Cd 0.4572 0.05082 0.06763 0.0
O2 O 0.44 0.07403 0.05224 0.0
Cd3 Cd 0.43689 0.05371 0.10493 0.0
O4 O 0.42265 0.03038 0.15183 0.0
C5 C 0.40893 0.02746 0.16268 0.0
O6 O 0.4048 0.0385 0.14584 0.0
C7 C 0.44697 0.07749 0.01481 0.0
C8 C 0.48775 0.05424 0.06907 0.0
O9 O 0.47461 0.04177 0.04835 0.0
O10 O 0.48648 0.06517 0.08873 0.0
O11 O 0.09869 0.50519 0.12466 0.0
Cd12 Cd 0.09769 0.52357 0.05879 0.0
O13 O 0.09811 0.49037 0.07071 0.0
Cd14 Cd 0.09545 0.4677 0.04309 0.0
O15 O 0.08922 0.44387 0.01297 0.0
C16 C 0.09368 0.43396 0.03267 0.0
O17 O 0.10246 0.43833 0.0718 0.0
C18 C 0.09872 0.49226 0.11305 0.0
C19 C 0.0811 0.53974 0.06891 0.0
O20 O 0.07292 0.52344 0.05928 0.0
O21 O 0.09708 0.54826 0.07499 0.0
O22 O 0.61865 0.6357 0.9749 0.0
Cd23 Cd 0.59954 0.62507 0.03657 0.0
O24 O 0.63978 0.65243 0.02258 0.0
Cd25 Cd 0.62565 0.64891 0.08021 0.0
O26 O 0.627 0.661 0.14145 0.0
C27 C 0.63923 0.6772 0.14286 0.0
O28 O 0.64901 0.68475 0.10818 0.0
C29 C 0.63433 0.64635 0.98331 0.0
C30 C 0.58819 0.59005 0.06527 0.0
O31 O 0.57902 0.59355 0.03817 0.0
O32 O 0.6026 0.60307 0.07918 0.0
O33 O 0.62358 0.03588 0.0891 0.0
Cd34 Cd 0.60327 0.03404 0.02884 0.0
O35 O 0.64147 0.05282 0.0368 0.0
Cd36 Cd 0.66544 0.06781 0.00382 0.0
O37 O 0.6851 0.08109 0.9546 0.0
C38 C 0.68908 0.09601 0.93495 0.0
O39 O 0.68167 0.10337 0.94604 0.0
C40 C 0.63863 0.04535 0.07697 0.0
C41 C 0.58188 0.04305 0.0513 0.0
O42 O 0.57709 0.02675 0.05301 0.0
O43 O 0.5969 0.05508 0.04014 0.0
O44 O 0.05287 0.6671 0.09541 0.0
Cd45 Cd 0.03871 0.64755 0.03229 0.0
O46 O 0.03544 0.64773 0.14695 0.0
Cd47 Cd 0.01687 0.63314 0.0925 0.0
O48 O 0.00189 0.63358 0.03219 0.0
C49 C 0.00541 0.64902 0.01911 0.0
O50 O 0.01721 0.66255 0.0422 0.0
C51 C 0.04895 0.66253 0.13685 0.0
C52 C 0.04304 0.61961 0.04433 0.0
O53 O 0.05426 0.63481 0.02623 0.0
O54 O 0.02969 0.61751 0.0563 0.0
O55 O 0.48405 0.41101 0.11192 0.0
Cd56 Cd 0.50694 0.42574 0.16965 0.0
O57 O 0.4701 0.4145 0.15807 0.0
Cd58 Cd 0.44802 0.41101 0.18377 0.0
O59 O 0.42684 0.40793 0.21368 0.0
C60 C 0.41275 0.39301 0.21445 0.0
O61 O 0.41109 0.37959 0.19647 0.0
C62 C 0.47054 0.40905 0.12085 0.0
C63 C 0.52903 0.46194 0.14681 0.0
O64 O 0.5326 0.45088 0.14018 0.0
O65 O 0.51503 0.45591 0.16407 0.0
O66 O 0.08925 0.36093 0.52235 0.0
Cd67 Cd 0.10513 0.37753 0.45475 0.0
O68 O 0.0655 0.35677 0.49308 0.0
Cd69 Cd 0.07695 0.37481 0.43282 0.0
O70 O 0.08563 0.394 0.3734 0.0
C71 C 0.08144 0.40501 0.36728 0.0
O72 O 0.07211 0.40464 0.3971 0.0
C73 C 0.07369 0.35397 0.52546 0.0
C74 C 0.13144 0.37337 0.45248 0.0
O75 O 0.134 0.38735 0.46752 0.0
O76 O 0.11656 0.36154 0.43792 0.0
O77 O 0.73114 0.78505 0.54682 0.0
Cd78 Cd 0.71381 0.78759 0.48388 0.0
O79 O 0.74514 0.78138 0.50065 0.0
Cd80 Cd 0.7292 0.77969 0.44065 0.0
O81 O 0.70996 0.76584 0.38686 0.0
C82 C 0.69532 0.75321 0.39818 0.0
O83 O 0.69205 0.74971 0.44163 0.0
C84 C 0.74266 0.78289 0.54076 0.0
C85 C 0.71864 0.82087 0.47198 0.0
O86 O 0.70724 0.80828 0.49731 0.0
O87 O 0.72791 0.8178 0.45276 0.0
O88 O 0.32755 0.93132 0.41588 0.0
Cd89 Cd 0.30973 0.91879 0.48136 0.0
O90 O 0.32471 0.95371 0.40674 0.0
Cd91 Cd 0.31348 0.94879 0.47155 0.0
O92 O 0.31605 0.96091 0.53398 0.0
C93 C 0.33022 0.97548 0.53933 0.0
O94 O 0.34141 0.98113 0.50872 0.0
C95 C 0.33025 0.94534 0.39328 0.0
C96 C 0.27556 0.89923 0.45531 0.0
O97 O 0.28413 0.91618 0.45591 0.0
O98 O 0.28313 0.89144 0.46684 0.0
O99 O 0.24203 0.31944 0.507 0.0
Cd100 Cd 0.21925 0.31242 0.44961 0.0
O101 O 0.25783 0.33283 0.4485 0.0
Cd102 Cd 0.28138 0.34674 0.4139 0.0
O103 O 0.30553 0.36102 0.3827 0.0
C104 C 0.3093 0.35277 0.36042 0.0
O105 O 0.29843 0.33564 0.35639 0.0
C106 C 0.25653 0.32849 0.49114 0.0
C107 C 0.20487 0.33134 0.45422 0.0
O108 O 0.19787 0.31535 0.47178 0.0
O109 O 0.21876 0.33847 0.43507 0.0
O110 O 0.76309 0.99488 0.35093 0.0
Cd111 Cd 0.75226 0.9693 0.30587 0.0
O112 O 0.73919 0.99204 0.33269 0.0
Cd113 Cd 0.72288 0.00165 0.32718 0.0
O114 O 0.7082 0.01191 0.29599 0.0
C115 C 0.71592 0.02795 0.27966 0.0
O116 O 0.73237 0.038 0.28425 0.0
C117 C 0.75362 0.00021 0.35311 0.0
C118 C 0.74307 0.93784 0.35778 0.0
O119 O 0.75761 0.94788 0.34133 0.0
O120 O 0.733 0.94281 0.35027 0.0
O121 O 0.11104 0.76198 0.37654 0.0
Cd122 Cd 0.11974 0.78669 0.42282 0.0
O123 O 0.10879 0.77455 0.31053 0.0
Cd124 Cd 0.11081 0.79545 0.3454 0.0
O125 O 0.09813 0.8005 0.39171 0.0
C126 C 0.08511 0.80006 0.37669 0.0
O127 O 0.08075 0.7983 0.33292 0.0
C128 C 0.1082 0.76156 0.33345 0.0
C129 C 0.15362 0.81422 0.41721 0.0
O130 O 0.1489 0.80057 0.44507 0.0
O131 O 0.14234 0.81481 0.39175 0.0
O132 O 0.8187 0.75257 0.74447 0.0
Cd133 Cd 0.8321 0.73976 0.79195 0.0
O134 O 0.79722 0.73396 0.78598 0.0
Cd135 Cd 0.77125 0.72064 0.80433 0.0
O136 O 0.74595 0.707 0.82789 0.0
C137 C 0.73294 0.69799 0.80193 0.0
O138 O 0.73466 0.6969 0.75915 0.0
C139 C 0.80387 0.7464 0.75472 0.0
C140 C 0.8583 0.74198 0.75357 0.0
O141 O 0.8432 0.72836 0.74886 0.0
O142 O 0.86092 0.75471 0.77546 0.0
O143 O 0.41038 0.15512 0.82881 0.0
Cd144 Cd 0.39166 0.16192 0.78385 0.0
O145 O 0.39964 0.135 0.77884 0.0
Cd146 Cd 0.39421 0.11078 0.75278 0.0
O147 O 0.38392 0.08522 0.72514 0.0
C148 C 0.37049 0.0715 0.74036 0.0
O149 O 0.36336 0.07299 0.77331 0.0
C150 C 0.40944 0.14216 0.81344 0.0
C151 C 0.39712 0.19502 0.78987 0.0
O152 O 0.3872 0.18163 0.81642 0.0
O153 O 0.40494 0.1929 0.76172 0.0
O154 O 0.98353 0.25418 0.73822 0.0
Cd155 Cd 0.96223 0.23368 0.79274 0.0
O156 O 0.9984 0.26708 0.79982 0.0
Cd157 Cd 0.0197 0.28856 0.83766 0.0
O158 O 0.03777 0.31114 0.87778 0.0
C159 C 0.03938 0.32586 0.86698 0.0
O160 O 0.03048 0.32698 0.83157 0.0
C161 C 0.99717 0.26654 0.75662 0.0
C162 C 0.92915 0.21429 0.75731 0.0
O163 O 0.93617 0.23021 0.76891 0.0
O164 O 0.93789 0.20767 0.76144 0.0
O165 O 0.95888 0.68759 0.71669 0.0
Cd166 Cd 0.95534 0.70335 0.64827 0.0
O167 O 0.98046 0.71197 0.74561 0.0
Cd168 Cd 0.98321 0.72926 0.68497 0.0
O169 O 0.9952 0.74681 0.62477 0.0
C170 C 0.01111 0.75554 0.6264 0.0
O171 O 0.01891 0.75389 0.66386 0.0
C172 C 0.96986 0.69521 0.74893 0.0
C173 C 0.93773 0.71777 0.66527 0.0
O174 O 0.92998 0.70183 0.65309 0.0
O175 O 0.95377 0.72689 0.66917 0.0
O176 O 0.38517 0.33151 0.86895 0.0
Cd177 Cd 0.36881 0.31231 0.8065 0.0
O178 O 0.37021 0.34271 0.86964 0.0
Cd179 Cd 0.35341 0.32966 0.81054 0.0
O180 O 0.33718 0.32751 0.75035 0.0
C181 C 0.34307 0.34108 0.72224 0.0
O182 O 0.35844 0.35488 0.73006 0.0
C183 C 0.38231 0.34161 0.88602 0.0
C184 C 0.37957 0.29031 0.79663 0.0
O185 O 0.38619 0.30557 0.77473 0.0
O186 O 0.36772 0.28537 0.8228 0.0
O187 O 0.77385 0.07869 0.60792 0.0
Cd188 Cd 0.7775 0.09315 0.67734 0.0
O189 O 0.77448 0.09932 0.55962 0.0
Cd190 Cd 0.77034 0.11 0.61517 0.0
O191 O 0.75992 0.11202 0.67442 0.0
C192 C 0.75846 0.12482 0.67758 0.0
O193 O 0.76378 0.13754 0.64476 0.0
C194 C 0.77419 0.08519 0.56725 0.0
C195 C 0.81007 0.12353 0.6888 0.0
O196 O 0.80661 0.10804 0.70252 0.0
O197 O 0.79817 0.12467 0.66986 0.0
H198 H 0.54758 0.02183 0.04626 0.0
H199 H 0.58984 0.07517 0.07441 0.0
H200 H 0.57029 0.08359 0.08474 0.0
H201 H 0.52325 0.0351 0.97979 0.0
H202 H 0.50342 0.01651 -3e-05 0.0
H203 H 0.52064 0.01425 0.99852 0.0
H204 H 0.5183 0.00425 0.08475 0.0
H205 H 0.501 0.00639 0.08642 0.0
H206 H 0.51915 0.01818 0.12492 0.0
H207 H 0.54608 0.08624 0.0911 0.0
H208 H 0.51908 0.08336 0.08934 0.0
H209 H 0.49282 0.02882 0.05244 0.0
C210 C 0.55271 0.03521 0.05528 0.0
C211 C 0.57021 0.04782 0.05999 0.0
C212 C 0.57646 0.06529 0.07082 0.0
C213 C 0.56547 0.07019 0.07682 0.0
C214 C 0.54827 0.05749 0.07139 0.0
C215 C 0.54193 0.04039 0.06063 0.0
C216 C 0.52299 0.02957 0.05415 0.0
C217 C 0.51725 0.02351 0.0052 0.0
C218 C 0.51489 0.01366 0.08968 0.0
C219 C 0.51967 0.04328 0.06272 0.0
C220 C 0.53439 0.05923 0.07316 0.0
C221 C 0.53447 0.07382 0.08289 0.0
C222 C 0.51909 0.07206 0.08183 0.0
C223 C 0.50388 0.05591 0.0705 0.0
C224 C 0.50425 0.04138 0.06083 0.0
H225 H 0.09472 0.57546 0.05994 0.0
H226 H 0.04778 0.52417 0.08063 0.0
H227 H 0.03301 0.53911 0.07938 0.0
H228 H 0.08672 0.6007 0.12682 0.0
H229 H 0.09651 0.62009 0.08748 0.0
H230 H 0.1035 0.60541 0.09352 0.0
H231 H 0.09818 0.60157 0.00641 0.0
H232 H 0.09109 0.61615 0.00014 0.0
H233 H 0.07771 0.59407 0.98025 0.0
H234 H 0.02334 0.55972 0.07463 0.0
H235 H 0.01929 0.58427 0.06343 0.0
H236 H 0.07234 0.62183 0.04165 0.0
C237 C 0.08138 0.56739 0.06491 0.0
C238 C 0.0724 0.54867 0.07084 0.0
C239 C 0.05489 0.53854 0.07623 0.0
C240 C 0.04641 0.54691 0.07564 0.0
C241 C 0.0556 0.56538 0.06916 0.0
C242 C 0.07269 0.57549 0.06368 0.0
C243 C 0.07949 0.59503 0.05471 0.0
C244 C 0.09231 0.60595 0.09292 0.0
C245 C 0.08706 0.60212 0.00757 0.0
C246 C 0.06355 0.59434 0.0558 0.0
C247 C 0.04994 0.57715 0.06468 0.0
C248 C 0.03391 0.57323 0.06761 0.0
C249 C 0.03173 0.58725 0.06122 0.0
C250 C 0.04548 0.60493 0.05144 0.0
C251 C 0.06157 0.60844 0.04875 0.0
H252 H 0.52142 0.48648 0.12301 0.0
H253 H 0.56308 0.48063 0.14439 0.0
H254 H 0.58289 0.51298 0.12729 0.0
H255 H 0.53836 0.51882 0.02702 0.0
H256 H 0.53024 0.53097 0.04237 0.0
H257 H 0.51947 0.5075 0.0579 0.0
H258 H 0.52133 0.5135 0.14275 0.0
H259 H 0.53215 0.53699 0.12752 0.0
H260 H 0.54151 0.52885 0.16995 0.0
H261 H 0.59814 0.54615 0.11158 0.0
H262 H 0.60764 0.57733 0.09009 0.0
H263 H 0.55586 0.56106 0.07262 0.0
C264 C 0.53472 0.49204 0.12422 0.0
C265 C 0.54079 0.48115 0.13538 0.0
C266 C 0.55823 0.4888 0.1359 0.0
C267 C 0.56955 0.50713 0.12642 0.0
C268 C 0.56318 0.51754 0.1157 0.0
C269 C 0.54616 0.51023 0.11383 0.0
C270 C 0.54251 0.52421 0.09948 0.0
C271 C 0.53203 0.52013 0.05399 0.0
C272 C 0.53387 0.52599 0.13718 0.0
C273 C 0.56015 0.54055 0.09397 0.0
C274 C 0.5719 0.53646 0.10409 0.0
C275 C 0.58906 0.54949 0.10312 0.0
C276 C 0.59433 0.56714 0.09108 0.0
C277 C 0.58247 0.57152 0.07939 0.0
C278 C 0.56518 0.55802 0.08087 0.0
H279 H 0.17156 0.31735 0.45966 0.0
H280 H 0.22026 0.36736 0.44946 0.0
H281 H 0.20688 0.38373 0.44934 0.0
H282 H 0.14957 0.33168 0.38299 0.0
H283 H 0.13066 0.31913 0.41401 0.0
H284 H 0.14419 0.31142 0.41596 0.0
H285 H 0.14645 0.31083 0.50436 0.0
H286 H 0.13289 0.31849 0.5027 0.0
H287 H 0.1533 0.33067 0.53182 0.0
H288 H 0.18808 0.39453 0.45222 0.0
H289 H 0.16515 0.39897 0.45194 0.0
H290 H 0.12868 0.34189 0.45423 0.0
C291 C 0.17942 0.33175 0.45785 0.0
C292 C 0.19695 0.34113 0.45505 0.0
C293 C 0.2068 0.35995 0.45177 0.0
C294 C 0.19932 0.36934 0.45178 0.0
C295 C 0.18196 0.35969 0.45436 0.0
C296 C 0.17212 0.34131 0.45685 0.0
C297 C 0.15369 0.3341 0.45707 0.0
C298 C 0.14396 0.32346 0.415 0.0
C299 C 0.14615 0.32286 0.50164 0.0
C300 C 0.15469 0.35129 0.45453 0.0
C301 C 0.17111 0.3659 0.45355 0.0
C302 C 0.17517 0.38319 0.45262 0.0
C303 C 0.16209 0.38558 0.45255 0.0
C304 C 0.14517 0.37079 0.45263 0.0
C305 C 0.14149 0.35346 0.45352 0.0
H306 H 0.75778 0.91951 0.36061 0.0
H307 H 0.71624 0.91726 0.41163 0.0
H308 H 0.70655 0.88787 0.45082 0.0
H309 H 0.73483 0.87448 0.33585 0.0
H310 H 0.75172 0.8717 0.35224 0.0
H311 H 0.75631 0.89326 0.33189 0.0
H312 H 0.77443 0.90653 0.40603 0.0
H313 H 0.76992 0.88499 0.4266 0.0
H314 H 0.7654 0.89677 0.46066 0.0
H315 H 0.70069 0.85818 0.48163 0.0
H316 H 0.69841 0.82987 0.49922 0.0
H317 H 0.74325 0.85109 0.42587 0.0
C318 C 0.7468 0.91296 0.38064 0.0
C319 C 0.73783 0.92072 0.38336 0.0
C320 C 0.72333 0.91158 0.40918 0.0
C321 C 0.71776 0.89491 0.43167 0.0
C322 C 0.72678 0.88753 0.42782 0.0
C323 C 0.74097 0.89624 0.40286 0.0
C324 C 0.74777 0.88492 0.40175 0.0
C325 C 0.74764 0.88085 0.35251 0.0
C326 C 0.76543 0.89384 0.42517 0.0
C327 C 0.73505 0.86838 0.42941 0.0
C328 C 0.72317 0.87024 0.44462 0.0
C329 C 0.70996 0.8566 0.47009 0.0
C330 C 0.70878 0.84057 0.47991 0.0
C331 C 0.72064 0.83824 0.4639 0.0
C332 C 0.734 0.85244 0.43865 0.0
H333 H 0.2521 0.86374 0.47449 0.0
H334 H 0.25804 0.91167 0.40762 0.0
H335 H 0.22761 0.89479 0.38757 0.0
H336 H 0.21943 0.83248 0.39634 0.0
H337 H 0.20831 0.81553 0.44107 0.0
H338 H 0.2307 0.83112 0.44759 0.0
H339 H 0.22726 0.84008 0.5236 0.0
H340 H 0.20487 0.82454 0.5173 0.0
H341 H 0.21366 0.84762 0.52426 0.0
H342 H 0.19651 0.87276 0.37543 0.0
H343 H 0.16673 0.84758 0.37602 0.0
H344 H 0.18094 0.81441 0.45411 0.0
C345 C 0.24702 0.87063 0.45518 0.0
C346 C 0.25743 0.88898 0.44229 0.0
C347 C 0.25028 0.89761 0.41777 0.0
C348 C 0.23303 0.88813 0.40611 0.0
C349 C 0.22309 0.87008 0.41959 0.0
C350 C 0.2298 0.86144 0.44385 0.0
C351 C 0.21625 0.84219 0.45632 0.0
C352 C 0.21883 0.82959 0.43399 0.0
C353 C 0.21547 0.8384 0.50846 0.0
C354 C 0.20087 0.84138 0.43547 0.0
C355 C 0.20511 0.85754 0.41398 0.0
C356 C 0.19304 0.86003 0.39217 0.0
C357 C 0.17616 0.84565 0.39263 0.0
C358 C 0.17151 0.82906 0.41523 0.0
C359 C 0.18409 0.82695 0.43672 0.0
H360 H 0.90363 0.70103 0.66568 0.0
H361 H 0.95089 0.75157 0.68837 0.0
H362 H 0.93553 0.76391 0.70839 0.0
H363 H 0.87961 0.71932 0.61728 0.0
H364 H 0.86083 0.70195 0.64496 0.0
H365 H 0.87548 0.69745 0.6294 0.0
H366 H 0.87776 0.68655 0.71316 0.0
H367 H 0.86313 0.69099 0.72894 0.0
H368 H 0.88348 0.70099 0.75832 0.0
H369 H 0.91519 0.77021 0.73029 0.0
H370 H 0.89129 0.76991 0.75331 0.0
H371 H 0.8573 0.71532 0.71599 0.0
C372 C 0.91075 0.71476 0.67434 0.0
C373 C 0.92847 0.72535 0.67534 0.0
C374 C 0.93731 0.7432 0.68729 0.0
C375 C 0.9287 0.75035 0.69861 0.0
C376 C 0.91125 0.7395 0.69766 0.0
C377 C 0.90236 0.7221 0.68576 0.0
C378 C 0.88369 0.71303 0.6894 0.0
C379 C 0.87436 0.70763 0.64246 0.0
C380 C 0.87661 0.69695 0.72455 0.0
C381 C 0.8835 0.72795 0.70602 0.0
C382 C 0.89951 0.74315 0.71024 0.0
C383 C 0.90257 0.75844 0.72674 0.0
C384 C 0.88892 0.75814 0.73977 0.0
C385 C 0.87242 0.74263 0.7363 0.0
C386 C 0.86973 0.72745 0.71863 0.0
H387 H 0.36781 0.25713 0.83819 0.0
H388 H 0.40468 0.29741 0.74444 0.0
H389 H 0.41438 0.27811 0.73614 0.0
H390 H 0.39358 0.24233 0.89419 0.0
H391 H 0.37625 0.21932 0.89915 0.0
H392 H 0.37266 0.2366 0.89922 0.0
H393 H 0.3508 0.22326 0.83126 0.0
H394 H 0.35427 0.20591 0.83113 0.0
H395 H 0.35677 0.21979 0.77984 0.0
H396 H 0.41928 0.2539 0.7356 0.0
H397 H 0.41859 0.22635 0.74165 0.0
H398 H 0.37872 0.20207 0.83633 0.0
C399 C 0.37799 0.26196 0.8161 0.0
C400 C 0.38549 0.2788 0.79198 0.0
C401 C 0.39873 0.28456 0.76328 0.0
C402 C 0.40437 0.27371 0.75843 0.0
C403 C 0.39668 0.25718 0.78263 0.0
C404 C 0.38378 0.25132 0.8109 0.0
C405 C 0.37728 0.23276 0.83197 0.0
C406 C 0.38012 0.23276 0.88424 0.0
C407 C 0.35868 0.21966 0.81767 0.0
C408 C 0.38839 0.229 0.81064 0.0
C409 C 0.39956 0.24328 0.7825 0.0
C410 C 0.41067 0.24268 0.75781 0.0
C411 C 0.41019 0.22697 0.76148 0.0
C412 C 0.39866 0.21207 0.78961 0.0
C413 C 0.3878 0.21327 0.81491 0.0
H414 H 0.90854 0.17818 0.75174 0.0
H415 H 0.90928 0.22632 0.7281 0.0
H416 H 0.87904 0.20838 0.70541 0.0
H417 H 0.87839 0.15413 0.65895 0.0
H418 H 0.86832 0.13306 0.6918 0.0
H419 H 0.89022 0.1498 0.70321 0.0
H420 H 0.88462 0.14833 0.78803 0.0
H421 H 0.8627 0.13165 0.77686 0.0
H422 H 0.86905 0.1518 0.80176 0.0
H423 H 0.84862 0.18513 0.68691 0.0
H424 H 0.82002 0.15823 0.6761 0.0
H425 H 0.83899 0.12522 0.71478 0.0
C426 C 0.9024 0.18497 0.74119 0.0
C427 C 0.91128 0.20366 0.74135 0.0
C428 C 0.90272 0.21202 0.72811 0.0
C429 C 0.88556 0.20195 0.7151 0.0
C430 C 0.87714 0.18354 0.71583 0.0
C431 C 0.88525 0.17512 0.72864 0.0
C432 C 0.87315 0.1551 0.72858 0.0
C433 C 0.8778 0.14759 0.69354 0.0
C434 C 0.87233 0.1462 0.77667 0.0
C435 C 0.85693 0.15357 0.71399 0.0
C436 C 0.85953 0.17013 0.70641 0.0
C437 C 0.84643 0.1721 0.6927 0.0
C438 C 0.83024 0.15674 0.68664 0.0
C439 C 0.82726 0.13962 0.6947 0.0
C440 C 0.84084 0.1381 0.70851 0.0
H441 H 0.33491 0.97239 0.33236 0.0
H442 H 0.35053 0.93621 0.36599 0.0
H443 H 0.37149 0.9522 0.30681 0.0
H444 H 0.34065 0.97808 0.20847 0.0
H445 H 0.34805 0.00119 0.20606 0.0
H446 H 0.33319 0.98561 0.24741 0.0
H447 H 0.35333 0.00525 0.31229 0.0
H448 H 0.36833 0.02076 0.27132 0.0
H449 H 0.37448 0.01082 0.31829 0.0
H450 H 0.3929 0.97446 0.24963 0.0
H451 H 0.41153 0.99972 0.19616 0.0
H452 H 0.3812 0.02063 0.20042 0.0
C453 C 0.34249 0.96756 0.32676 0.0
C454 C 0.34107 0.95304 0.35381 0.0
C455 C 0.35131 0.94723 0.34546 0.0
C456 C 0.36328 0.95627 0.31201 0.0
C457 C 0.36468 0.97091 0.28694 0.0
C458 C 0.35437 0.97633 0.29354 0.0
C459 C 0.35885 0.99293 0.26395 0.0
C460 C 0.34432 0.98922 0.22942 0.0
C461 C 0.36406 0.00834 0.29322 0.0
C462 C 0.37359 0.99632 0.24045 0.0
C463 C 0.37677 0.98348 0.25391 0.0
C464 C 0.39037 0.98444 0.23837 0.0
C465 C 0.40091 0.99887 0.20819 0.0
C466 C 0.39777 0.0121 0.19395 0.0
C467 C 0.38386 0.01066 0.21025 0.0
H468 H 0.07378 0.42962 0.34326 0.0
H469 H 0.10082 0.40927 0.29922 0.0
H470 H 0.10892 0.43009 0.23064 0.0
H471 H 0.05752 0.43476 0.2329 0.0
H472 H 0.05966 0.45495 0.24383 0.0
H473 H 0.0565 0.4389 0.29027 0.0
H474 H 0.08354 0.46321 0.33277 0.0
H475 H 0.08679 0.47933 0.28643 0.0
H476 H 0.10304 0.47569 0.30445 0.0
H477 H 0.11359 0.45265 0.16613 0.0
H478 H 0.11432 0.47524 0.10988 0.0
H479 H 0.08403 0.4807 0.1954 0.0
C480 C 0.08149 0.42959 0.31937 0.0
C481 C 0.08668 0.4178 0.32668 0.0
C482 C 0.0967 0.41817 0.29442 0.0
C483 C 0.10139 0.42997 0.25538 0.0
C484 C 0.09599 0.44134 0.24914 0.0
C485 C 0.08628 0.44127 0.28025 0.0
C486 C 0.08185 0.45459 0.265 0.0
C487 C 0.06275 0.44524 0.25755 0.0
C488 C 0.08925 0.46906 0.2992 0.0
C489 C 0.09046 0.46206 0.22023 0.0
C490 C 0.09857 0.45425 0.21179 0.0
C491 C 0.1072 0.45877 0.17225 0.0
C492 C 0.10738 0.47146 0.14027 0.0
C493 C 0.09892 0.4794 0.14785 0.0
C494 C 0.09059 0.47481 0.18873 0.0
H495 H 0.69913 0.75512 0.30661 0.0
H496 H 0.6634 0.72402 0.41184 0.0
H497 H 0.64383 0.70225 0.35587 0.0
H498 H 0.66799 0.74618 0.21051 0.0
H499 H 0.68029 0.74503 0.17121 0.0
H500 H 0.69053 0.75917 0.21823 0.0
H501 H 0.70556 0.74334 0.24496 0.0
H502 H 0.69531 0.72911 0.19831 0.0
H503 H 0.69324 0.71953 0.25613 0.0
H504 H 0.62949 0.68223 0.29035 0.0
H505 H 0.62137 0.66613 0.22019 0.0
H506 H 0.66649 0.71063 0.15846 0.0
C507 C 0.68705 0.74395 0.31774 0.0
C508 C 0.6828 0.74131 0.36361 0.0
C509 C 0.66693 0.72637 0.37683 0.0
C510 C 0.65571 0.71393 0.34527 0.0
C511 C 0.66049 0.7167 0.30057 0.0
C512 C 0.67572 0.73144 0.28674 0.0
C513 C 0.67837 0.73078 0.23765 0.0
C514 C 0.67935 0.74621 0.20763 0.0
C515 C 0.69404 0.73068 0.23409 0.0
C516 C 0.66246 0.71312 0.2264 0.0
C517 C 0.65221 0.70525 0.26292 0.0
C518 C 0.6373 0.68839 0.26129 0.0
C519 C 0.63281 0.67933 0.22137 0.0
C520 C 0.64325 0.68714 0.18377 0.0
C521 C 0.65814 0.70435 0.18637 0.0
H522 H 0.07497 0.42098 0.95307 0.0
H523 H 0.10036 0.40928 0.06691 0.0
H524 H 0.0905 0.38095 0.03468 0.0
H525 H 0.03884 0.37737 0.94603 0.0
H526 H 0.03647 0.37872 0.88458 0.0
H527 H 0.04644 0.39855 0.91506 0.0
H528 H 0.07273 0.41312 0.86763 0.0
H529 H 0.06282 0.39333 0.83693 0.0
H530 H 0.08306 0.40189 0.86603 0.0
H531 H 0.07658 0.35314 0.99191 0.0
H532 H 0.05966 0.32807 0.94214 0.0
H533 H 0.04359 0.35827 0.85653 0.0
C534 C 0.07862 0.41257 0.97107 0.0
C535 C 0.08846 0.41737 0.01251 0.0
C536 C 0.09285 0.4059 0.03506 0.0
C537 C 0.08734 0.38979 0.017 0.0
C538 C 0.07751 0.3854 0.97629 0.0
C539 C 0.07324 0.39649 0.95356 0.0
C540 C 0.06205 0.38843 0.9113 0.0
C541 C 0.04494 0.3856 0.91446 0.0
C542 C 0.07069 0.39988 0.86791 0.0
C543 C 0.06045 0.37092 0.91419 0.0
C544 C 0.06953 0.36945 0.95173 0.0
C545 C 0.06952 0.3542 0.96222 0.0
C546 C 0.05986 0.34003 0.93377 0.0
C547 C 0.05032 0.3412 0.89537 0.0
C548 C 0.0508 0.35696 0.88542 0.0
H549 H 0.72545 0.69774 0.88876 0.0
H550 H 0.7023 0.67708 0.75656 0.0
H551 H 0.67426 0.66131 0.78811 0.0
H552 H 0.69681 0.65864 0.95656 0.0
H553 H 0.69705 0.67088 0.00064 0.0
H554 H 0.71514 0.68048 0.96728 0.0
H555 H 0.71411 0.7081 0.94434 0.0
H556 H 0.69604 0.69859 0.97768 0.0
H557 H 0.69507 0.70511 0.91804 0.0
H558 H 0.64858 0.64762 0.83533 0.0
H559 H 0.62781 0.63768 0.89349 0.0
H560 H 0.66845 0.66772 0.99337 0.0
C561 C 0.71452 0.68993 0.86629 0.0
C562 C 0.71608 0.68865 0.82017 0.0
C563 C 0.70141 0.67826 0.79204 0.0
C564 C 0.68544 0.66925 0.80965 0.0
C565 C 0.68438 0.67078 0.85539 0.0
C566 C 0.69856 0.6809 0.88322 0.0
C567 C 0.69415 0.68048 0.93111 0.0
C568 C 0.7012 0.67212 0.96594 0.0
C569 C 0.7002 0.69918 0.94349 0.0
C570 C 0.67525 0.66857 0.92598 0.0
C571 C 0.66978 0.66304 0.88218 0.0
C572 C 0.65275 0.65189 0.86973 0.0
C573 C 0.64105 0.6463 0.90297 0.0
C574 C 0.64647 0.65193 0.94799 0.0
C575 C 0.66383 0.66318 0.95931 0.0
H576 H 0.43577 0.09859 0.02272 0.0
H577 H 0.45465 0.08285 0.92497 0.0
H578 H 0.44935 0.10008 0.86332 0.0
H579 H 0.4027 0.09479 0.95372 0.0
H580 H 0.40455 0.11382 0.97314 0.0
H581 H 0.41151 0.10192 0.01023 0.0
H582 H 0.44102 0.13103 0.01962 0.0
H583 H 0.43412 0.14308 0.98267 0.0
H584 H 0.4523 0.14391 0.9696 0.0
H585 H 0.43886 0.11595 0.81127 0.0
H586 H 0.42534 0.13065 0.77329 0.0
H587 H 0.41421 0.13689 0.90523 0.0
C588 C 0.43909 0.09901 0.9885 0.0
C589 C 0.44562 0.08935 0.97868 0.0
C590 C 0.44971 0.0902 0.93338 0.0
C591 C 0.44674 0.09995 0.89813 0.0
C592 C 0.43992 0.10897 0.90888 0.0
C593 C 0.43635 0.10878 0.95307 0.0
C594 C 0.42832 0.11884 0.95528 0.0
C595 C 0.41073 0.10661 0.9742 0.0
C596 C 0.43962 0.13519 0.98346 0.0
C597 C 0.42743 0.12426 0.90519 0.0
C598 C 0.43424 0.11849 0.879 0.0
C599 C 0.43373 0.12076 0.83149 0.0
C600 C 0.42593 0.12899 0.81022 0.0
C601 C 0.41878 0.13486 0.83644 0.0
C602 C 0.41984 0.13276 0.88452 0.0
H603 H 0.74528 0.09989 0.74973 0.0
H604 H 0.75214 0.14943 0.69303 0.0
H605 H 0.73649 0.14835 0.75544 0.0
H606 H 0.70379 0.07892 0.78142 0.0
H607 H 0.7062 0.06795 0.83342 0.0
H608 H 0.719 0.0733 0.78632 0.0
H609 H 0.74583 0.09087 0.83884 0.0
H610 H 0.7331 0.08552 0.88621 0.0
H611 H 0.74893 0.1084 0.87006 0.0
H612 H 0.71866 0.14092 0.82151 0.0
H613 H 0.70006 0.12777 0.88617 0.0
H614 H 0.70495 0.08312 0.89954 0.0
C615 C 0.74368 0.11064 0.75066 0.0
C616 C 0.74997 0.12477 0.71646 0.0
C617 C 0.74748 0.13849 0.71886 0.0
C618 C 0.73862 0.138 0.75422 0.0
C619 C 0.73241 0.12376 0.78704 0.0
C620 C 0.73489 0.11037 0.78567 0.0
C621 C 0.72638 0.0962 0.82403 0.0
C622 C 0.71305 0.07802 0.80515 0.0
C623 C 0.73934 0.0952 0.85672 0.0
C624 C 0.71843 0.10352 0.84667 0.0
C625 C 0.72216 0.11949 0.82505 0.0
C626 C 0.71577 0.12849 0.83894 0.0
C627 C 0.7052 0.1209 0.8757 0.0
C628 C 0.70107 0.10443 0.89805 0.0
C629 C 0.70794 0.09577 0.88343 0.0
H630 H 0.99116 0.70763 0.82468 0.0
H631 H 0.95156 0.6588 0.76381 0.0
H632 H 0.95542 0.64135 0.82814 0.0
H633 H 0.01788 0.69384 0.86237 0.0
H634 H 0.02495 0.70505 0.91469 0.0
H635 H 0.01817 0.71356 0.86576 0.0
H636 H 0.99643 0.71198 0.91373 0.0
H637 H 0.00322 0.70356 0.96297 0.0
H638 H 0.98143 0.69125 0.94357 0.0
H639 H 0.96514 0.62937 0.89702 0.0
H640 H 0.97916 0.62396 0.96565 0.0
H641 H 0.01206 0.68082 0.98041 0.0
C642 C 0.98313 0.69326 0.82503 0.0
C643 C 0.97105 0.6846 0.78915 0.0
C644 C 0.96086 0.66575 0.79098 0.0
C645 C 0.96298 0.65573 0.82736 0.0
C646 C 0.97524 0.66474 0.86173 0.0
C647 C 0.98503 0.68309 0.86099 0.0
C648 C 0.9977 0.68965 0.90113 0.0
C649 C 0.01574 0.7012 0.88501 0.0
C650 C 0.9945 0.6997 0.93219 0.0
C651 C 0.99372 0.67213 0.92424 0.0
C652 C 0.9807 0.65789 0.9012 0.0
C653 C 0.97524 0.64042 0.91554 0.0
C654 C 0.9833 0.63748 0.95447 0.0
C655 C 0.99667 0.65195 0.97849 0.0
C656 C 0.00182 0.66945 0.96305 0.0
H657 H 0.46168 0.38324 0.06368 0.0
H658 H 0.44637 0.41596 0.10366 0.0
H659 H 0.42139 0.4012 0.05083 0.0
H660 H 0.44976 0.38451 0.94503 0.0
H661 H 0.44269 0.36192 0.93799 0.0
H662 H 0.45889 0.37441 0.98081 0.0
H663 H 0.44129 0.34977 0.04295 0.0
H664 H 0.42501 0.33721 0.0003 0.0
H665 H 0.42014 0.34304 0.04969 0.0
H666 H 0.39849 0.38345 0.99219 0.0
H667 H 0.37956 0.36441 0.93072 0.0
H668 H 0.41013 0.34367 0.92742 0.0
C669 C 0.45301 0.38722 0.06144 0.0
C670 C 0.45566 0.40034 0.08887 0.0
C671 C 0.44418 0.40538 0.08457 0.0
C672 C 0.43007 0.39723 0.05419 0.0
C673 C 0.42769 0.38416 0.02809 0.0
C674 C 0.43887 0.37922 0.03125 0.0
C675 C 0.43364 0.36516 0.99845 0.0
C676 C 0.44704 0.37191 0.9635 0.0
C677 C 0.42979 0.34776 0.02441 0.0
C678 C 0.41785 0.36307 0.97608 0.0
C679 C 0.41462 0.37411 0.99379 0.0
C680 C 0.40087 0.37472 0.97811 0.0
C681 C 0.39018 0.36384 0.94316 0.0
C682 C 0.39332 0.35252 0.92418 0.0
C683 C 0.40732 0.35212 0.94122 0.0
H684 H 0.1037 0.75684 0.2415 0.0
H685 H 0.0991 0.72915 0.37465 0.0
H686 H 0.08553 0.70088 0.33803 0.0
H687 H 0.06506 0.72494 0.19459 0.0
H688 H 0.07184 0.72741 0.13806 0.0
H689 H 0.08307 0.74583 0.17394 0.0
H690 H 0.11067 0.74834 0.16529 0.0
H691 H 0.09954 0.72999 0.12895 0.0
H692 H 0.11147 0.72911 0.17919 0.0
H693 H 0.06867 0.67515 0.28827 0.0
H694 H 0.05214 0.6542 0.22776 0.0
H695 H 0.06916 0.69871 0.12685 0.0
C696 C 0.10021 0.74491 0.2629 0.0
C697 C 0.10247 0.74523 0.31095 0.0
C698 C 0.0976 0.72928 0.33775 0.0
C699 C 0.08985 0.71313 0.31727 0.0
C700 C 0.08733 0.71318 0.26993 0.0
C701 C 0.09265 0.7287 0.24298 0.0
C702 C 0.08769 0.725 0.1931 0.0
C703 C 0.07623 0.73116 0.17383 0.0
C704 C 0.10327 0.73362 0.16498 0.0
C705 C 0.07823 0.70493 0.19642 0.0
C706 C 0.07817 0.69836 0.24102 0.0
C707 C 0.06895 0.68014 0.25307 0.0
C708 C 0.05955 0.66836 0.2186 0.0
C709 C 0.05959 0.67486 0.17268 0.0
C710 C 0.06923 0.69337 0.16154 0.0
H711 H 0.32132 0.33898 0.31111 0.0
H712 H 0.3346 0.38813 0.36324 0.0
H713 H 0.36225 0.40393 0.32986 0.0
H714 H 0.36156 0.3461 0.3322 0.0
H715 H 0.36042 0.33642 0.28096 0.0
H716 H 0.34149 0.32908 0.30778 0.0
H717 H 0.32982 0.3365 0.23195 0.0
H718 H 0.34873 0.34385 0.20487 0.0
H719 H 0.34192 0.35856 0.2045 0.0
H720 H 0.38867 0.41423 0.29234 0.0
H721 H 0.41203 0.4183 0.2535 0.0
H722 H 0.38142 0.36242 0.22579 0.0
C723 C 0.32999 0.35308 0.31539 0.0
C724 C 0.32577 0.36232 0.33978 0.0
C725 C 0.33753 0.38076 0.34466 0.0
C726 C 0.35327 0.38987 0.3258 0.0
C727 C 0.35704 0.38034 0.3021 0.0
C728 C 0.34574 0.36237 0.29678 0.0
C729 C 0.35299 0.3552 0.27039 0.0
C730 C 0.35418 0.34085 0.29959 0.0
C731 C 0.34276 0.34811 0.22525 0.0
C732 C 0.37019 0.37192 0.26201 0.0
C733 C 0.37226 0.38629 0.28045 0.0
C734 C 0.38718 0.4031 0.27762 0.0
C735 C 0.40038 0.40527 0.25551 0.0
C736 C 0.39857 0.39069 0.23655 0.0
C737 C 0.38321 0.37384 0.23977 0.0
H738 H 0.63692 0.02022 0.14053 0.0
H739 H 0.67115 0.07405 0.08417 0.0
H740 H 0.69438 0.07608 0.13352 0.0
H741 H 0.65562 0.02722 0.25742 0.0
H742 H 0.65233 0.00565 0.26523 0.0
H743 H 0.6382 0.00887 0.22765 0.0
H744 H 0.64377 0.99686 0.16148 0.0
H745 H 0.65789 0.9936 0.19881 0.0
H746 H 0.66501 0.00704 0.14595 0.0
H747 H 0.71407 0.07176 0.18648 0.0
H748 H 0.72903 0.06116 0.23738 0.0
H749 H 0.68197 0.00999 0.2591 0.0
C750 C 0.64928 0.0325 0.13903 0.0
C751 C 0.65233 0.04691 0.10814 0.0
C752 C 0.66866 0.06271 0.10679 0.0
C753 C 0.68188 0.06405 0.13507 0.0
C754 C 0.67853 0.04948 0.16458 0.0
C755 C 0.66263 0.034 0.16679 0.0
C756 C 0.66256 0.01997 0.19973 0.0
C757 C 0.65152 0.01515 0.23989 0.0
C758 C 0.65698 0.00339 0.175 0.0
C759 C 0.68095 0.02989 0.21519 0.0
C760 C 0.6899 0.04695 0.19489 0.0
C761 C 0.70718 0.05847 0.20281 0.0
C762 C 0.71556 0.05231 0.2318 0.0
C763 C 0.70669 0.03474 0.25231 0.0
C764 C 0.68912 0.02352 0.2442 0.0
H765 H 0.03978 0.3323 0.53729 0.0
H766 H 0.08804 0.34885 0.60544 0.0
H767 H 0.07369 0.32857 0.67227 0.0
H768 H 0.01893 0.32775 0.63781 0.0
H769 H 0.99917 0.30837 0.61962 0.0
H770 H 0.01327 0.32467 0.57779 0.0
H771 H 0.01296 0.3001 0.54105 0.0
H772 H 0.99893 0.28374 0.58287 0.0
H773 H 0.01852 0.28647 0.5759 0.0
H774 H 0.05416 0.3061 0.73105 0.0
H775 H 0.0307 0.28281 0.77752 0.0
H776 H 0.99514 0.28064 0.67112 0.0
C777 C 0.04735 0.33178 0.56639 0.0
C778 C 0.06506 0.34223 0.56615 0.0
C779 C 0.07447 0.34099 0.60479 0.0
C780 C 0.06644 0.32952 0.64295 0.0
C781 C 0.04898 0.31931 0.6419 0.0
C782 C 0.03954 0.32031 0.60464 0.0
C783 C 0.02094 0.30757 0.61176 0.0
C784 C 0.01259 0.3177 0.61175 0.0
C785 C 0.01234 0.29364 0.57576 0.0
C786 C 0.0214 0.29921 0.65881 0.0
C787 C 0.03771 0.30625 0.67567 0.0
C788 C 0.04134 0.30062 0.7184 0.0
C789 C 0.02794 0.28752 0.74475 0.0
C790 C 0.01115 0.28023 0.72832 0.0
C791 C 0.00788 0.28604 0.68456 0.0
H792 H 0.80377 0.75667 0.664 0.0
H793 H 0.7832 0.75256 0.79178 0.0
H794 H 0.7668 0.76367 0.75166 0.0
H795 H 0.80668 0.79693 0.61501 0.0
H796 H 0.80056 0.78934 0.55807 0.0
H797 H 0.81154 0.7822 0.59734 0.0
H798 H 0.7876 0.74926 0.58584 0.0
H799 H 0.77661 0.7563 0.54644 0.0
H800 H 0.76635 0.74152 0.59552 0.0
H801 H 0.75188 0.77413 0.69721 0.0
H802 H 0.73823 0.7815 0.63177 0.0
H803 H 0.76835 0.77851 0.53928 0.0
C804 C 0.79593 0.7583 0.68349 0.0
C805 C 0.79452 0.75355 0.73078 0.0
C806 C 0.78409 0.75572 0.75527 0.0
C807 C 0.77491 0.76222 0.7329 0.0
C808 C 0.77636 0.76655 0.68606 0.0
C809 C 0.78657 0.76463 0.66158 0.0
C810 C 0.78513 0.76924 0.61112 0.0
C811 C 0.80198 0.78539 0.59441 0.0
C812 C 0.77852 0.75312 0.5831 0.0
C813 C 0.77234 0.77379 0.61099 0.0
C814 C 0.76761 0.77238 0.65461 0.0
C815 C 0.75555 0.77538 0.6629 0.0
C816 C 0.74789 0.7796 0.62549 0.0
C817 C 0.7522 0.78061 0.58035 0.0
C818 C 0.76481 0.77794 0.57332 0.0
H819 H 0.35846 0.00832 0.5547 0.0
H820 H 0.3102 0.96783 0.60967 0.0
H821 H 0.31602 0.98733 0.67062 0.0
H822 H 0.38159 0.02432 0.66374 0.0
H823 H 0.39386 0.04712 0.64116 0.0
H824 H 0.38636 0.02939 0.60431 0.0
H825 H 0.37198 0.04172 0.54927 0.0
H826 H 0.37939 0.05944 0.58594 0.0
H827 H 0.35729 0.04496 0.57106 0.0
H828 H 0.3266 0.01209 0.72293 0.0
H829 H 0.3408 0.04011 0.76153 0.0
H830 H 0.38191 0.06418 0.67108 0.0
C831 C 0.34917 0.00341 0.57984 0.0
C832 C 0.33389 0.98652 0.57751 0.0
C833 C 0.32202 0.98071 0.61087 0.0
C834 C 0.32523 0.99167 0.64564 0.0
C835 C 0.34036 0.00835 0.64655 0.0
C836 C 0.35215 0.01416 0.61454 0.0
C837 C 0.36706 0.03295 0.62153 0.0
C838 C 0.38317 0.03347 0.6334 0.0
C839 C 0.36903 0.0455 0.57946 0.0
C840 C 0.36172 0.03697 0.66201 0.0
C841 C 0.34637 0.02258 0.67626 0.0
C842 C 0.33868 0.02339 0.71226 0.0
C843 C 0.34684 0.03937 0.73394 0.0
C844 C 0.36247 0.05435 0.71935 0.0
C845 C 0.37001 0.05298 0.6832 0.0
H846 H 0.73655 0.00294 0.41514 0.0
H847 H 0.78384 0.03219 0.34932 0.0
H848 H 0.7937 0.05821 0.3935 0.0
H849 H 0.73298 0.03986 0.42583 0.0
H850 H 0.72475 0.03185 0.48184 0.0
H851 H 0.7209 0.01635 0.44176 0.0
H852 H 0.73376 0.00341 0.50083 0.0
H853 H 0.73764 0.01884 0.54107 0.0
H854 H 0.75466 0.01809 0.52522 0.0
H855 H 0.79811 0.08108 0.44475 0.0
H856 H 0.79815 0.09762 0.50583 0.0
H857 H 0.74924 0.05204 0.54352 0.0
C858 C 0.74887 0.01495 0.40964 0.0
C859 C 0.75938 0.01581 0.37847 0.0
C860 C 0.77562 0.03145 0.37293 0.0
C861 C 0.78127 0.04625 0.39768 0.0
C862 C 0.77062 0.04499 0.42841 0.0
C863 C 0.75486 0.02962 0.43498 0.0
C864 C 0.74644 0.03107 0.47285 0.0
C865 C 0.73031 0.02971 0.45446 0.0
C866 C 0.74293 0.01702 0.51232 0.0
C867 C 0.75992 0.04963 0.48674 0.0
C868 C 0.77363 0.05761 0.46006 0.0
C869 C 0.7875 0.07493 0.466 0.0
C870 C 0.78741 0.08422 0.50054 0.0
C871 C 0.77376 0.07596 0.52912 0.0
C872 C 0.75986 0.05852 0.52207 0.0
H873 H 0.08806 0.79794 0.47014 0.0
H874 H 0.05561 0.79755 0.35608 0.0
H875 H 0.03416 0.78973 0.40957 0.0
H876 H 0.05767 0.76076 0.52849 0.0
H877 H 0.06578 0.76836 0.58499 0.0
H878 H 0.07976 0.77711 0.53911 0.0
H879 H 0.08991 0.80918 0.55426 0.0
H880 H 0.07604 0.80053 0.60065 0.0
H881 H 0.07479 0.81469 0.55497 0.0
H882 H 0.01468 0.77749 0.47393 0.0
H883 H 0.99917 0.76274 0.54419 0.0
H884 H 0.04448 0.77135 0.61589 0.0
C885 C 0.07667 0.79676 0.45646 0.0
C886 C 0.07354 0.79841 0.40891 0.0
C887 C 0.05833 0.79643 0.39239 0.0
C888 C 0.04607 0.79201 0.42253 0.0
C889 C 0.04929 0.78981 0.4691 0.0
C890 C 0.06432 0.79233 0.48603 0.0
C891 C 0.06408 0.7875 0.53687 0.0
C892 C 0.06699 0.77254 0.54797 0.0
C893 C 0.07697 0.80396 0.56324 0.0
C894 C 0.04635 0.78115 0.54556 0.0
C895 C 0.03807 0.7828 0.50623 0.0
C896 C 0.02114 0.77646 0.50514 0.0
C897 C 0.01241 0.76804 0.54517 0.0
C898 C 0.02063 0.76597 0.5856 0.0
C899 C 0.03788 0.77294 0.58576 0.0
H900 H 0.25901 0.30938 0.56638 0.0
H901 H 0.2877 0.35936 0.48571 0.0
H902 H 0.31311 0.36741 0.53427 0.0
H903 H 0.27926 0.32695 0.67528 0.0
H904 H 0.27878 0.30746 0.69735 0.0
H905 H 0.26291 0.30547 0.65554 0.0
H906 H 0.27018 0.29014 0.60318 0.0
H907 H 0.28613 0.29217 0.64474 0.0
H908 H 0.29148 0.3012 0.58687 0.0
H909 H 0.33529 0.37013 0.59152 0.0
H910 H 0.35276 0.36785 0.6553 0.0
H911 H 0.3097 0.31626 0.70018 0.0
C912 C 0.27066 0.32201 0.55904 0.0
C913 C 0.27154 0.33354 0.52148 0.0
C914 C 0.28692 0.35002 0.51313 0.0
C915 C 0.30137 0.35479 0.54085 0.0
C916 C 0.30019 0.34298 0.57702 0.0
C917 C 0.28523 0.32697 0.5864 0.0
C918 C 0.28737 0.31682 0.62779 0.0
C919 C 0.27643 0.31402 0.66627 0.0
C920 C 0.28357 0.29903 0.61485 0.0
C921 C 0.30586 0.32966 0.64026 0.0
C922 C 0.31299 0.34464 0.61045 0.0
C923 C 0.32985 0.35846 0.61511 0.0
C924 C 0.33968 0.35703 0.65147 0.0
C925 C 0.33263 0.34188 0.68279 0.0
C926 C 0.31549 0.32798 0.67676 0.0
loop_
_geom_bond_atom_site_label_1
_geom_bond_atom_site_label_2
_geom_bond_distance
_geom_bond_site_symmetry_2
_ccdc_geom_bond_type
O0 Cd1 2.300 . S
O0 C7 1.275 . S
Cd1 O0 2.300 . S
Cd1 O9 2.381 . S
Cd1 O10 2.378 . S
O2 Cd3 2.385 . S
O2 C7 1.255 . S
Cd3 O2 2.385 . S
Cd3 O4 2.317 . S
O4 Cd3 2.317 . S
O4 C5 1.232 . S
C5 O4 1.232 . S
C5 O6 1.218 . S
O6 C5 1.218 . S
C7 O0 1.275 . S
C7 O2 1.255 . S
C8 O9 1.258 . S
C8 O10 1.256 . S
O9 Cd1 2.381 . S
O9 C8 1.258 . S
O10 Cd1 2.378 . S
O10 C8 1.256 . S
O11 Cd12 2.300 . S
O11 C18 1.275 . S
Cd12 O11 2.300 . S
Cd12 O20 2.381 . S
Cd12 O21 2.378 . S
O13 Cd14 2.385 . S
O13 C18 1.255 . S
Cd14 O13 2.385 . S
Cd14 O15 2.317 1_554 S
O15 Cd14 2.317 1_556 S
O15 C16 1.232 . S
C16 O15 1.232 . S
C16 O17 1.218 1_556 S
O17 C16 1.218 1_554 S
C18 O11 1.275 . S
C18 O13 1.255 . S
C19 O20 1.258 . S
C19 O21 1.256 . S
O20 Cd12 2.381 . S
O20 C19 1.258 . S
O21 Cd12 2.378 . S
O21 C19 1.256 . S
O22 Cd23 2.300 . S
O22 C29 1.275 . S
Cd23 O22 2.300 . S
Cd23 O31 2.381 . S
Cd23 O32 2.378 . S
O24 Cd25 2.385 . S
O24 C29 1.255 . S
Cd25 O24 2.385 . S
Cd25 O26 2.317 . S
O26 Cd25 2.317 . S
O26 C27 1.232 . S
C27 O26 1.232 . S
C27 O28 1.218 . S
O28 C27 1.218 . S
C29 O22 1.275 . S
C29 O24 1.255 . S
C30 O31 1.258 . S
C30 O32 1.256 . S
O31 Cd23 2.381 . S
O31 C30 1.258 . S
O32 Cd23 2.378 . S
O32 C30 1.256 . S
O33 Cd34 2.300 . S
O33 C40 1.275 . S
Cd34 O33 2.300 . S
Cd34 O42 2.381 . S
Cd34 O43 2.378 . S
O35 Cd36 2.385 . S
O35 C40 1.255 . S
Cd36 O35 2.385 . S
Cd36 O37 2.317 1_554 S
O37 Cd36 2.317 1_556 S
O37 C38 1.232 . S
C38 O37 1.232 . S
C38 O39 1.218 . S
O39 C38 1.218 . S
C40 O33 1.275 . S
C40 O35 1.255 . S
C41 O42 1.258 . S
C41 O43 1.256 . S
O42 Cd34 2.381 . S
O42 C41 1.258 . S
O43 Cd34 2.378 . S
O43 C41 1.256 . S
O44 Cd45 2.300 . S
O44 C51 1.275 . S
Cd45 O44 2.300 . S
Cd45 O53 2.381 . S
Cd45 O54 2.378 . S
O46 Cd47 2.385 1_455 S
O46 C51 1.255 . S
Cd47 O46 2.385 1_655 S
Cd47 O48 2.317 1_655 S
O48 Cd47 2.317 1_455 S
O48 C49 1.238 . S
C49 O48 1.238 . S
C49 O50 1.291 . S
O50 C49 1.291 . S
C51 O44 1.275 . S
C51 O46 1.255 . S
C52 O53 1.258 . S
C52 O54 1.256 . S
O53 Cd45 2.381 . S
O53 C52 1.258 . S
O54 Cd45 2.378 . S
O54 C52 1.256 . S
O55 Cd56 2.300 . S
O55 C62 1.275 . S
Cd56 O55 2.300 . S
Cd56 O64 2.381 . S
Cd56 O65 2.378 . S
O57 Cd58 2.385 . S
O57 C62 1.255 . S
Cd58 O57 2.385 . S
Cd58 O59 2.317 . S
O59 Cd58 2.317 . S
O59 C60 1.232 . S
C60 O59 1.232 . S
C60 O61 1.218 . S
O61 C60 1.218 . S
C62 O55 1.275 . S
C62 O57 1.255 . S
C63 O64 1.258 . S
C63 O65 1.256 . S
O64 Cd56 2.381 . S
O64 C63 1.258 . S
O65 Cd56 2.378 . S
O65 C63 1.256 . S
O66 Cd67 2.300 . S
O66 C73 1.275 . S
Cd67 O66 2.300 . S
Cd67 O75 2.381 . S
Cd67 O76 2.378 . S
O68 Cd69 2.385 . S
O68 C73 1.255 . S
Cd69 O68 2.385 . S
Cd69 O70 2.317 . S
O70 Cd69 2.317 . S
O70 C71 1.232 . S
C71 O70 1.232 . S
C71 O72 1.218 . S
O72 C71 1.218 . S
C73 O66 1.275 . S
C73 O68 1.255 . S
C74 O75 1.258 . S
C74 O76 1.256 . S
O75 Cd67 2.381 . S
O75 C74 1.258 . S
O76 Cd67 2.378 . S
O76 C74 1.256 . S
O77 Cd78 2.300 . S
O77 C84 1.275 . S
Cd78 O77 2.300 . S
Cd78 O86 2.381 . S
Cd78 O87 2.378 . S
O79 Cd80 2.385 . S
O79 C84 1.255 . S
Cd80 O79 2.385 . S
Cd80 O81 2.317 . S
O81 Cd80 2.317 . S
O81 C82 1.232 . S
C82 O81 1.232 . S
C82 O83 1.218 . S
O83 C82 1.218 . S
C84 O77 1.275 . S
C84 O79 1.255 . S
C85 O86 1.258 . S
C85 O87 1.256 . S
O86 Cd78 2.381 . S
O86 C85 1.258 . S
O87 Cd78 2.378 . S
O87 C85 1.256 . S
O88 Cd89 2.300 . S
O88 C95 1.275 . S
Cd89 O88 2.300 . S
Cd89 O97 2.381 . S
Cd89 O98 2.378 . S
O90 Cd91 2.385 . S
O90 C95 1.255 . S
Cd91 O90 2.385 . S
Cd91 O92 2.317 . S
O92 Cd91 2.317 . S
O92 C93 1.232 . S
C93 O92 1.232 . S
C93 O94 1.218 . S
O94 C93 1.218 . S
C95 O88 1.275 . S
C95 O90 1.255 . S
C96 O97 1.258 . S
C96 O98 1.256 . S
O97 Cd89 2.381 . S
O97 C96 1.258 . S
O98 Cd89 2.378 . S
O98 C96 1.256 . S
O99 Cd100 2.300 . S
O99 C106 1.275 . S
Cd100 O99 2.300 . S
Cd100 O108 2.381 . S
Cd100 O109 2.378 . S
O101 Cd102 2.385 . S
O101 C106 1.255 . S
Cd102 O101 2.385 . S
Cd102 O103 2.317 . S
O103 Cd102 2.317 . S
O103 C104 1.232 . S
C104 O103 1.232 . S
C104 O105 1.218 . S
O105 C104 1.218 . S
C106 O99 1.275 . S
C106 O101 1.255 . S
C107 O108 1.258 . S
C107 O109 1.256 . S
O108 Cd100 2.381 . S
O108 C107 1.258 . S
O109 Cd100 2.378 . S
O109 C107 1.256 . S
O110 Cd111 2.300 . S
O110 C117 1.275 . S
Cd111 O110 2.300 . S
Cd111 O119 2.381 . S
Cd111 O120 2.378 . S
O112 Cd113 2.385 . S
O112 C117 1.255 . S
Cd113 O112 2.385 . S
Cd113 O114 2.317 . S
O114 Cd113 2.317 . S
O114 C115 1.232 . S
C115 O114 1.232 . S
C115 O116 1.218 1_565 S
O116 C115 1.218 1_545 S
C117 O110 1.275 . S
C117 O112 1.255 . S
C118 O119 1.258 . S
C118 O120 1.256 . S
O119 Cd111 2.381 . S
O119 C118 1.258 . S
O120 Cd111 2.378 . S
O120 C118 1.256 . S
O121 Cd122 2.300 . S
O121 C128 1.275 . S
Cd122 O121 2.300 . S
Cd122 O130 2.381 . S
Cd122 O131 2.378 . S
O123 Cd124 2.385 . S
O123 C128 1.255 . S
Cd124 O123 2.385 . S
Cd124 O125 2.317 . S
O125 Cd124 2.317 . S
O125 C126 1.232 . S
C126 O125 1.232 . S
C126 O127 1.218 . S
O127 C126 1.218 . S
C128 O121 1.275 . S
C128 O123 1.255 . S
C129 O130 1.258 . S
C129 O131 1.256 . S
O130 Cd122 2.381 . S
O130 C129 1.258 . S
O131 Cd122 2.378 . S
O131 C129 1.256 . S
O132 Cd133 2.300 . S
O132 C139 1.275 . S
Cd133 O132 2.300 . S
Cd133 O141 2.381 . S
Cd133 O142 2.378 . S
O134 Cd135 2.385 . S
O134 C139 1.255 . S
Cd135 O134 2.385 . S
Cd135 O136 2.317 . S
O136 Cd135 2.317 . S
O136 C137 1.232 . S
C137 O136 1.232 . S
C137 O138 1.218 . S
O138 C137 1.218 . S
C139 O132 1.275 . S
C139 O134 1.255 . S
C140 O141 1.258 . S
C140 O142 1.256 . S
O141 Cd133 2.381 . S
O141 C140 1.258 . S
O142 Cd133 2.378 . S
O142 C140 1.256 . S
O143 Cd144 2.300 . S
O143 C150 1.275 . S
Cd144 O143 2.300 . S
Cd144 O152 2.381 . S
Cd144 O153 2.378 . S
O145 Cd146 2.385 . S
O145 C150 1.255 . S
Cd146 O145 2.385 . S
Cd146 O147 2.317 . S
O147 Cd146 2.317 . S
O147 C148 1.232 . S
C148 O147 1.232 . S
C148 O149 1.218 . S
O149 C148 1.218 . S
C150 O143 1.275 . S
C150 O145 1.255 . S
C151 O152 1.258 . S
C151 O153 1.256 . S
O152 Cd144 2.381 . S
O152 C151 1.258 . S
O153 Cd144 2.378 . S
O153 C151 1.256 . S
O154 Cd155 2.300 1_455 S
O154 C161 1.275 . S
Cd155 O154 2.300 1_655 S
Cd155 O163 2.381 . S
Cd155 O164 2.378 . S
O156 Cd157 2.385 . S
O156 C161 1.255 . S
Cd157 O156 2.385 . S
Cd157 O158 2.317 . S
O158 Cd157 2.317 . S
O158 C159 1.232 . S
C159 O158 1.232 . S
C159 O160 1.218 . S
O160 C159 1.218 . S
C161 O154 1.275 . S
C161 O156 1.255 . S
C162 O163 1.258 . S
C162 O164 1.256 . S
O163 Cd155 2.381 . S
O163 C162 1.258 . S
O164 Cd155 2.378 . S
O164 C162 1.256 . S
O165 Cd166 2.300 . S
O165 C172 1.275 . S
Cd166 O165 2.300 . S
Cd166 O174 2.381 . S
Cd166 O175 2.378 . S
O167 Cd168 2.385 . S
O167 C172 1.255 . S
Cd168 O167 2.385 . S
Cd168 O169 2.317 . S
O169 Cd168 2.317 . S
O169 C170 1.232 . S
C170 O169 1.232 . S
C170 O171 1.208 1_655 S
O171 C170 1.208 1_455 S
C172 O165 1.275 . S
C172 O167 1.255 . S
C173 O174 1.258 . S
C173 O175 1.256 . S
O174 Cd166 2.381 . S
O174 C173 1.258 . S
O175 Cd166 2.378 . S
O175 C173 1.256 . S
O176 Cd177 2.300 . S
O176 C183 1.275 . S
Cd177 O176 2.300 . S
Cd177 O185 2.381 . S
Cd177 O186 2.378 . S
O178 Cd179 2.385 . S
O178 C183 1.255 . S
Cd179 O178 2.385 . S
Cd179 O180 2.317 . S
O180 Cd179 2.317 . S
O180 C181 1.232 . S
C181 O180 1.232 . S
C181 O182 1.218 . S
O182 C181 1.218 . S
C183 O176 1.275 . S
C183 O178 1.255 . S
C184 O185 1.258 . S
C184 O186 1.256 . S
O185 Cd177 2.381 . S
O185 C184 1.258 . S
O186 Cd177 2.378 . S
O186 C184 1.256 . S
O187 Cd188 2.300 . S
O187 C194 1.275 . S
Cd188 O187 2.300 . S
Cd188 O196 2.381 . S
Cd188 O197 2.378 . S
O189 Cd190 2.385 . S
O189 C194 1.255 . S
Cd190 O189 2.385 . S
Cd190 O191 2.317 . S
O191 Cd190 2.317 . S
O191 C192 1.232 . S
C192 O191 1.232 . S
C192 O193 1.218 . S
O193 C192 1.218 . S
C194 O187 1.275 . S
C194 O189 1.255 . S
C195 O196 1.258 . S
C195 O197 1.256 . S
O196 Cd188 2.381 . S
O196 C195 1.258 . S
O197 Cd188 2.378 . S
O197 C195 1.256 . S
H198 C210 0.930 . S
H199 C212 0.930 . S
H200 C213 0.930 . S
H201 C217 0.959 . S
H202 C217 0.959 . S
H203 C217 0.961 . S
H204 C218 0.960 . S
H205 C218 0.961 . S
H206 C218 0.959 . S
H207 C221 0.929 . S
H208 C222 0.931 . S
H209 C224 0.930 . S
C210 H198 0.930 . S
C210 C211 1.399 . S
C210 C215 1.399 . S
C211 C210 1.399 . S
C211 C212 1.376 . S
C212 H199 0.930 . S
C212 C211 1.376 . S
C212 C213 1.388 . S
C213 H200 0.930 . S
C213 C212 1.388 . S
C213 C214 1.390 . S
C214 C213 1.390 . S
C214 C215 1.394 . S
C214 C220 1.465 . S
C215 C210 1.399 . S
C215 C214 1.394 . S
C215 C216 1.516 . S
C216 C215 1.516 . S
C216 C217 1.502 . S
C216 C218 1.561 . S
C216 C219 1.526 . S
C217 H201 0.959 . S
C217 H202 0.959 . S
C217 H203 0.961 . S
C217 C216 1.502 . S
C218 H204 0.960 . S
C218 H205 0.961 . S
C218 H206 0.959 . S
C218 C216 1.561 . S
C219 C216 1.526 . S
C219 C220 1.396 . S
C219 C224 1.390 . S
C220 C214 1.465 . S
C220 C219 1.396 . S
C220 C221 1.399 . S
C221 H207 0.929 . S
C221 C220 1.399 . S
C221 C222 1.385 . S
C222 H208 0.931 . S
C222 C221 1.385 . S
C222 C223 1.389 . S
C223 C222 1.389 . S
C223 C224 1.387 . S
C224 H209 0.930 . S
C224 C219 1.390 . S
C224 C223 1.387 . S
H225 C237 0.930 . S
H226 C239 0.930 . S
H227 C240 0.930 . S
H228 C244 0.959 . S
H229 C244 0.959 1_556 S
H230 C244 0.961 1_556 S
H231 C245 0.960 . S
H232 C245 0.961 . S
H233 C245 0.959 1_554 S
H234 C248 0.929 . S
H235 C249 0.931 . S
H236 C251 0.930 . S
C237 H225 0.930 . S
C237 C238 1.399 . S
C237 C242 1.399 . S
C238 C237 1.399 . S
C238 C239 1.376 . S
C239 H226 0.930 . S
C239 C238 1.376 . S
C239 C240 1.388 . S
C240 H227 0.930 . S
C240 C239 1.388 . S
C240 C241 1.390 . S
C241 C240 1.390 . S
C241 C242 1.394 . S
C241 C247 1.465 . S
C242 C237 1.399 . S
C242 C241 1.394 . S
C242 C243 1.516 . S
C243 C242 1.516 . S
C243 C244 1.502 . S
C243 C245 1.561 1_554 S
C243 C246 1.526 . S
C244 H228 0.959 . S
C244 H229 0.959 1_554 S
C244 H230 0.961 1_554 S
C244 C243 1.502 . S
C245 H231 0.960 . S
C245 H232 0.961 . S
C245 H233 0.959 1_556 S
C245 C243 1.561 1_556 S
C246 C243 1.526 . S
C246 C247 1.396 . S
C246 C251 1.390 . S
C247 C241 1.465 . S
C247 C246 1.396 . S
C247 C248 1.399 . S
C248 H234 0.929 . S
C248 C247 1.399 . S
C248 C249 1.385 . S
C249 H235 0.931 . S
C249 C248 1.385 . S
C249 C250 1.389 . S
C250 C249 1.389 . S
C250 C251 1.387 . S
C251 H236 0.930 . S
C251 C246 1.390 . S
C251 C250 1.387 . S
H252 C264 0.930 . S
H253 C266 0.930 . S
H254 C267 0.930 . S
H255 C271 0.959 . S
H256 C271 0.959 . S
H257 C271 0.961 . S
H258 C272 0.960 . S
H259 C272 0.961 . S
H260 C272 0.959 . S
H261 C275 0.929 . S
H262 C276 0.931 . S
H263 C278 0.930 . S
C264 H252 0.930 . S
C264 C265 1.399 . S
C264 C269 1.399 . S
C265 C264 1.399 . S
C265 C266 1.376 . S
C266 H253 0.930 . S
C266 C265 1.376 . S
C266 C267 1.388 . S
C267 H254 0.930 . S
C267 C266 1.388 . S
C267 C268 1.390 . S
C268 C267 1.390 . S
C268 C269 1.394 . S
C268 C274 1.465 . S
C269 C264 1.399 . S
C269 C268 1.394 . S
C269 C270 1.516 . S
C270 C269 1.516 . S
C270 C271 1.502 . S
C270 C272 1.561 . S
C270 C273 1.526 . S
C271 H255 0.959 . S
C271 H256 0.959 . S
C271 H257 0.961 . S
C271 C270 1.502 . S
C272 H258 0.960 . S
C272 H259 0.961 . S
C272 H260 0.959 . S
C272 C270 1.561 . S
C273 C270 1.526 . S
C273 C274 1.396 . S
C273 C278 1.390 . S
C274 C268 1.465 . S
C274 C273 1.396 . S
C274 C275 1.399 . S
C275 H261 0.929 . S
C275 C274 1.399 . S
C275 C276 1.385 . S
C276 H262 0.931 . S
C276 C275 1.385 . S
C276 C277 1.389 . S
C277 C276 1.389 . S
C277 C278 1.387 . S
C278 H263 0.930 . S
C278 C273 1.390 . S
C278 C277 1.387 . S
H279 C291 0.930 . S
H280 C293 0.930 . S
H281 C294 0.930 . S
H282 C298 0.959 . S
H283 C298 0.959 . S
H284 C298 0.961 . S
H285 C299 0.960 . S
H286 C299 0.961 . S
H287 C299 0.959 . S
H288 C302 0.929 . S
H289 C303 0.931 . S
H290 C305 0.930 . S
C291 H279 0.930 . S
C291 C292 1.399 . S
C291 C296 1.399 . S
C292 C291 1.399 . S
C292 C293 1.376 . S
C293 H280 0.930 . S
C293 C292 1.376 . S
C293 C294 1.388 . S
C294 H281 0.930 . S
C294 C293 1.388 . S
C294 C295 1.390 . S
C295 C294 1.390 . S
C295 C296 1.394 . S
C295 C301 1.465 . S
C296 C291 1.399 . S
C296 C295 1.394 . S
C296 C297 1.516 . S
C297 C296 1.516 . S
C297 C298 1.502 . S
C297 C299 1.561 . S
C297 C300 1.526 . S
C298 H282 0.959 . S
C298 H283 0.959 . S
C298 H284 0.961 . S
C298 C297 1.502 . S
C299 H285 0.960 . S
C299 H286 0.961 . S
C299 H287 0.959 . S
C299 C297 1.561 . S
C300 C297 1.526 . S
C300 C301 1.396 . S
C300 C305 1.390 . S
C301 C295 1.465 . S
C301 C300 1.396 . S
C301 C302 1.399 . S
C302 H288 0.929 . S
C302 C301 1.399 . S
C302 C303 1.385 . S
C303 H289 0.931 . S
C303 C302 1.385 . S
C303 C304 1.389 . S
C304 C303 1.389 . S
C304 C305 1.387 . S
C305 H290 0.930 . S
C305 C300 1.390 . S
C305 C304 1.387 . S
H306 C318 0.930 . S
H307 C320 0.930 . S
H308 C321 0.930 . S
H309 C325 0.959 . S
H310 C325 0.959 . S
H311 C325 0.961 . S
H312 C326 0.960 . S
H313 C326 0.961 . S
H314 C326 0.959 . S
H315 C329 0.929 . S
H316 C330 0.931 . S
H317 C332 0.930 . S
C318 H306 0.930 . S
C318 C319 1.399 . S
C318 C323 1.399 . S
C319 C318 1.399 . S
C319 C320 1.376 . S
C320 H307 0.930 . S
C320 C319 1.376 . S
C320 C321 1.388 . S
C321 H308 0.930 . S
C321 C320 1.388 . S
C321 C322 1.390 . S
C322 C321 1.390 . S
C322 C323 1.394 . S
C322 C328 1.465 . S
C323 C318 1.399 . S
C323 C322 1.394 . S
C323 C324 1.516 . S
C324 C323 1.516 . S
C324 C325 1.502 . S
C324 C326 1.561 . S
C324 C327 1.526 . S
C325 H309 0.959 . S
C325 H310 0.959 . S
C325 H311 0.961 . S
C325 C324 1.502 . S
C326 H312 0.960 . S
C326 H313 0.961 . S
C326 H314 0.959 . S
C326 C324 1.561 . S
C327 C324 1.526 . S
C327 C328 1.396 . S
C327 C332 1.390 . S
C328 C322 1.465 . S
C328 C327 1.396 . S
C328 C329 1.399 . S
C329 H315 0.929 . S
C329 C328 1.399 . S
C329 C330 1.385 . S
C330 H316 0.931 . S
C330 C329 1.385 . S
C330 C331 1.389 . S
C331 C330 1.389 . S
C331 C332 1.387 . S
C332 H317 0.930 . S
C332 C327 1.390 . S
C332 C331 1.387 . S
H333 C345 0.930 . S
H334 C347 0.930 . S
H335 C348 0.930 . S
H336 C352 0.959 . S
H337 C352 0.959 . S
H338 C352 0.961 . S
H339 C353 0.960 . S
H340 C353 0.961 . S
H341 C353 0.959 . S
H342 C356 0.929 . S
H343 C357 0.931 . S
H344 C359 0.930 . S
C345 H333 0.930 . S
C345 C346 1.399 . S
C345 C350 1.399 . S
C346 C345 1.399 . S
C346 C347 1.376 . S
C347 H334 0.930 . S
C347 C346 1.376 . S
C347 C348 1.388 . S
C348 H335 0.930 . S
C348 C347 1.388 . S
C348 C349 1.390 . S
C349 C348 1.390 . S
C349 C350 1.394 . S
C349 C355 1.465 . S
C350 C345 1.399 . S
C350 C349 1.394 . S
C350 C351 1.516 . S
C351 C350 1.516 . S
C351 C352 1.502 . S
C351 C353 1.561 . S
C351 C354 1.526 . S
C352 H336 0.959 . S
C352 H337 0.959 . S
C352 H338 0.961 . S
C352 C351 1.502 . S
C353 H339 0.960 . S
C353 H340 0.961 . S
C353 H341 0.959 . S
C353 C351 1.561 . S
C354 C351 1.526 . S
C354 C355 1.396 . S
C354 C359 1.390 . S
C355 C349 1.465 . S
C355 C354 1.396 . S
C355 C356 1.399 . S
C356 H342 0.929 . S
C356 C355 1.399 . S
C356 C357 1.385 . S
C357 H343 0.931 . S
C357 C356 1.385 . S
C357 C358 1.389 . S
C358 C357 1.389 . S
C358 C359 1.387 . S
C359 H344 0.930 . S
C359 C354 1.390 . S
C359 C358 1.387 . S
H360 C372 0.930 . S
H361 C374 0.930 . S
H362 C375 0.930 . S
H363 C379 0.959 . S
H364 C379 0.959 . S
H365 C379 0.961 . S
H366 C380 0.960 . S
H367 C380 0.961 . S
H368 C380 0.959 . S
H369 C383 0.929 . S
H370 C384 0.931 . S
H371 C386 0.930 . S
C372 H360 0.930 . S
C372 C373 1.399 . S
C372 C377 1.399 . S
C373 C372 1.399 . S
C373 C374 1.376 . S
C374 H361 0.930 . S
C374 C373 1.376 . S
C374 C375 1.388 . S
C375 H362 0.930 . S
C375 C374 1.388 . S
C375 C376 1.390 . S
C376 C375 1.390 . S
C376 C377 1.394 . S
C376 C382 1.465 . S
C377 C372 1.399 . S
C377 C376 1.394 . S
C377 C378 1.516 . S
C378 C377 1.516 . S
C378 C379 1.502 . S
C378 C380 1.561 . S
C378 C381 1.526 . S
C379 H363 0.959 . S
C379 H364 0.959 . S
C379 H365 0.961 . S
C379 C378 1.502 . S
C380 H366 0.960 . S
C380 H367 0.961 . S
C380 H368 0.959 . S
C380 C378 1.561 . S
C381 C378 1.526 . S
C381 C382 1.396 . S
C381 C386 1.390 . S
C382 C376 1.465 . S
C382 C381 1.396 . S
C382 C383 1.399 . S
C383 H369 0.929 . S
C383 C382 1.399 . S
C383 C384 1.385 . S
C384 H370 0.931 . S
C384 C383 1.385 . S
C384 C385 1.389 . S
C385 C384 1.389 . S
C385 C386 1.387 . S
C386 H371 0.930 . S
C386 C381 1.390 . S
C386 C385 1.387 . S
H387 C399 0.930 . S
H388 C401 0.930 . S
H389 C402 0.930 . S
H390 C406 0.959 . S
H391 C406 0.959 . S
H392 C406 0.961 . S
H393 C407 0.960 . S
H394 C407 0.961 . S
H395 C407 0.959 . S
H396 C410 0.929 . S
H397 C411 0.931 . S
H398 C413 0.930 . S
C399 H387 0.930 . S
C399 C400 1.399 . S
C399 C404 1.399 . S
C400 C399 1.399 . S
C400 C401 1.376 . S
C401 H388 0.930 . S
C401 C400 1.376 . S
C401 C402 1.388 . S
C402 H389 0.930 . S
C402 C401 1.388 . S
C402 C403 1.390 . S
C403 C402 1.390 . S
C403 C404 1.394 . S
C403 C409 1.465 . S
C404 C399 1.399 . S
C404 C403 1.394 . S
C404 C405 1.516 . S
C405 C404 1.516 . S
C405 C406 1.502 . S
C405 C407 1.561 . S
C405 C408 1.526 . S
C406 H390 0.959 . S
C406 H391 0.959 . S
C406 H392 0.961 . S
C406 C405 1.502 . S
C407 H393 0.960 . S
C407 H394 0.961 . S
C407 H395 0.959 . S
C407 C405 1.561 . S
C408 C405 1.526 . S
C408 C409 1.396 . S
C408 C413 1.390 . S
C409 C403 1.465 . S
C409 C408 1.396 . S
C409 C410 1.399 . S
C410 H396 0.929 . S
C410 C409 1.399 . S
C410 C411 1.385 . S
C411 H397 0.931 . S
C411 C410 1.385 . S
C411 C412 1.389 . S
C412 C411 1.389 . S
C412 C413 1.387 . S
C413 H398 0.930 . S
C413 C408 1.390 . S
C413 C412 1.387 . S
H414 C426 0.930 . S
H415 C428 0.930 . S
H416 C429 0.930 . S
H417 C433 0.959 . S
H418 C433 0.959 . S
H419 C433 0.961 . S
H420 C434 0.960 . S
H421 C434 0.961 . S
H422 C434 0.959 . S
H423 C437 0.929 . S
H424 C438 0.931 . S
H425 C440 0.930 . S
C426 H414 0.930 . S
C426 C427 1.399 . S
C426 C431 1.399 . S
C427 C426 1.399 . S
C427 C428 1.376 . S
C428 H415 0.930 . S
C428 C427 1.376 . S
C428 C429 1.388 . S
C429 H416 0.930 . S
C429 C428 1.388 . S
C429 C430 1.390 . S
C430 C429 1.390 . S
C430 C431 1.394 . S
C430 C436 1.465 . S
C431 C426 1.399 . S
C431 C430 1.394 . S
C431 C432 1.516 . S
C432 C431 1.516 . S
C432 C433 1.502 . S
C432 C434 1.561 . S
C432 C435 1.526 . S
C433 H417 0.959 . S
C433 H418 0.959 . S
C433 H419 0.961 . S
C433 C432 1.502 . S
C434 H420 0.960 . S
C434 H421 0.961 . S
C434 H422 0.959 . S
C434 C432 1.561 . S
C435 C432 1.526 . S
C435 C436 1.396 . S
C435 C440 1.390 . S
C436 C430 1.465 . S
C436 C435 1.396 . S
C436 C437 1.399 . S
C437 H423 0.929 . S
C437 C436 1.399 . S
C437 C438 1.385 . S
C438 H424 0.931 . S
C438 C437 1.385 . S
C438 C439 1.389 . S
C439 C438 1.389 . S
C439 C440 1.387 . S
C440 H425 0.930 . S
C440 C435 1.390 . S
C440 C439 1.387 . S
H441 C453 0.930 1_545 S
H442 C455 0.930 . S
H443 C456 0.930 . S
H444 C460 0.959 . S
H445 C460 0.959 . S
H446 C460 0.961 . S
H447 C461 0.960 . S
H448 C461 0.961 . S
H449 C461 0.959 . S
H450 C464 0.929 . S
H451 C465 0.956 . S
H452 C467 0.930 . S
C453 H441 0.930 1_565 S
C453 C454 1.399 . S
C453 C458 1.410 1_565 S
C454 C453 1.399 . S
C454 C455 1.376 . S
C455 H442 0.930 . S
C455 C454 1.376 . S
C455 C456 1.388 . S
C456 H443 0.930 . S
C456 C455 1.388 . S
C456 C457 1.390 . S
C457 C456 1.390 . S
C457 C458 1.345 1_565 S
C457 C463 1.465 . S
C458 C453 1.410 1_545 S
C458 C457 1.345 1_545 S
C458 C459 1.549 . S
C459 C458 1.549 . S
C459 C460 1.502 . S
C459 C461 1.561 . S
C459 C462 1.526 . S
C460 H444 0.959 . S
C460 H445 0.959 . S
C460 H446 0.961 . S
C460 C459 1.502 . S
C461 H447 0.960 . S
C461 H448 0.961 . S
C461 H449 0.959 . S
C461 C459 1.561 . S
C462 C459 1.526 . S
C462 C463 1.396 1_545 S
C462 C467 1.390 . S
C463 C457 1.465 . S
C463 C462 1.396 1_565 S
C463 C464 1.399 . S
C464 H450 0.929 . S
C464 C463 1.399 . S
C464 C465 1.385 1_565 S
C465 H451 0.956 . S
C465 C464 1.385 1_545 S
C465 C466 1.389 . S
C466 C465 1.389 . S
C466 C467 1.387 . S
C467 H452 0.930 . S
C467 C462 1.390 . S
C467 C466 1.387 . S
H468 C480 0.930 . S
H469 C482 0.930 . S
H470 C483 0.930 . S
H471 C487 0.959 . S
H472 C487 0.959 . S
H473 C487 0.961 . S
H474 C488 0.960 . S
H475 C488 0.961 . S
H476 C488 0.959 . S
H477 C491 0.929 . S
H478 C492 0.931 . S
H479 C494 0.930 . S
C480 H468 0.930 . S
C480 C481 1.399 . S
C480 C485 1.399 . S
C481 C480 1.399 . S
C481 C482 1.376 . S
C482 H469 0.930 . S
C482 C481 1.376 . S
C482 C483 1.388 . S
C483 H470 0.930 . S
C483 C482 1.388 . S
C483 C484 1.390 . S
C484 C483 1.390 . S
C484 C485 1.394 . S
C484 C490 1.465 . S
C485 C480 1.399 . S
C485 C484 1.394 . S
C485 C486 1.516 . S
C486 C485 1.516 . S
C486 C487 1.502 . S
C486 C488 1.561 . S
C486 C489 1.526 . S
C487 H471 0.959 . S
C487 H472 0.959 . S
C487 H473 0.961 . S
C487 C486 1.502 . S
C488 H474 0.960 . S
C488 H475 0.961 . S
C488 H476 0.959 . S
C488 C486 1.561 . S
C489 C486 1.526 . S
C489 C490 1.396 . S
C489 C494 1.390 . S
C490 C484 1.465 . S
C490 C489 1.396 . S
C490 C491 1.399 . S
C491 H477 0.929 . S
C491 C490 1.399 . S
C491 C492 1.385 . S
C492 H478 0.931 . S
C492 C491 1.385 . S
C492 C493 1.389 . S
C493 C492 1.389 . S
C493 C494 1.387 . S
C494 H479 0.930 . S
C494 C489 1.390 . S
C494 C493 1.387 . S
H495 C507 0.930 . S
H496 C509 0.930 . S
H497 C510 0.930 . S
H498 C514 0.959 . S
H499 C514 0.959 . S
H500 C514 0.961 . S
H501 C515 0.960 . S
H502 C515 0.961 . S
H503 C515 0.959 . S
H504 C518 0.929 . S
H505 C519 0.931 . S
H506 C521 0.930 . S
C507 H495 0.930 . S
C507 C508 1.399 . S
C507 C512 1.399 . S
C508 C507 1.399 . S
C508 C509 1.376 . S
C509 H496 0.930 . S
C509 C508 1.376 . S
C509 C510 1.388 . S
C510 H497 0.930 . S
C510 C509 1.388 . S
C510 C511 1.390 . S
C511 C510 1.390 . S
C511 C512 1.394 . S
C511 C517 1.465 . S
C512 C507 1.399 . S
C512 C511 1.394 . S
C512 C513 1.516 . S
C513 C512 1.516 . S
C513 C514 1.502 . S
C513 C515 1.561 . S
C513 C516 1.526 . S
C514 H498 0.959 . S
C514 H499 0.959 . S
C514 H500 0.961 . S
C514 C513 1.502 . S
C515 H501 0.960 . S
C515 H502 0.961 . S
C515 H503 0.959 . S
C515 C513 1.561 . S
C516 C513 1.526 . S
C516 C517 1.396 . S
C516 C521 1.390 . S
C517 C511 1.465 . S
C517 C516 1.396 . S
C517 C518 1.399 . S
C518 H504 0.929 . S
C518 C517 1.399 . S
C518 C519 1.385 . S
C519 H505 0.931 . S
C519 C518 1.385 . S
C519 C520 1.389 . S
C520 C519 1.389 . S
C520 C521 1.387 . S
C521 H506 0.930 . S
C521 C516 1.390 . S
C521 C520 1.387 . S
H522 C534 0.930 . S
H523 C536 0.930 . S
H524 C537 0.930 1_554 S
H525 C541 0.959 . S
H526 C541 0.959 . S
H527 C541 0.961 . S
H528 C542 0.960 . S
H529 C542 0.961 . S
H530 C542 0.959 . S
H531 C545 0.929 . S
H532 C546 0.931 . S
H533 C548 0.930 . S
C534 H522 0.930 . S
C534 C535 1.399 . S
C534 C539 1.399 . S
C535 C534 1.399 . S
C535 C536 1.376 1_556 S
C536 H523 0.930 . S
C536 C535 1.376 1_554 S
C536 C537 1.388 1_554 S
C537 H524 0.930 1_556 S
C537 C536 1.388 1_556 S
C537 C538 1.390 . S
C538 C537 1.390 . S
C538 C539 1.394 . S
C538 C544 1.465 . S
C539 C534 1.399 . S
C539 C538 1.394 . S
C539 C540 1.516 . S
C540 C539 1.516 . S
C540 C541 1.502 . S
C540 C542 1.561 . S
C540 C543 1.526 . S
C541 H525 0.959 . S
C541 H526 0.959 . S
C541 H527 0.961 . S
C541 C540 1.502 . S
C542 H528 0.960 . S
C542 H529 0.961 . S
C542 H530 0.959 . S
C542 C540 1.561 . S
C543 C540 1.526 . S
C543 C544 1.396 . S
C543 C548 1.390 . S
C544 C538 1.465 . S
C544 C543 1.396 . S
C544 C545 1.399 . S
C545 H531 0.929 . S
C545 C544 1.399 . S
C545 C546 1.385 . S
C546 H532 0.931 . S
C546 C545 1.385 . S
C546 C547 1.389 . S
C547 C546 1.389 . S
C547 C548 1.387 . S
C548 H533 0.930 . S
C548 C543 1.390 . S
C548 C547 1.387 . S
H549 C561 0.930 . S
H550 C563 0.930 . S
H551 C564 0.930 . S
H552 C568 0.959 . S
H553 C568 0.959 . S
H554 C568 0.961 . S
H555 C569 0.960 . S
H556 C569 0.961 . S
H557 C569 0.959 . S
H558 C572 0.929 . S
H559 C573 0.931 . S
H560 C575 0.930 . S
C561 H549 0.930 . S
C561 C562 1.399 . S
C561 C566 1.399 . S
C562 C561 1.399 . S
C562 C563 1.376 . S
C563 H550 0.930 . S
C563 C562 1.376 . S
C563 C564 1.388 . S
C564 H551 0.930 . S
C564 C563 1.388 . S
C564 C565 1.390 . S
C565 C564 1.390 . S
C565 C566 1.394 . S
C565 C571 1.465 . S
C566 C561 1.399 . S
C566 C565 1.394 . S
C566 C567 1.516 . S
C567 C566 1.516 . S
C567 C568 1.502 1_556 S
C567 C569 1.561 . S
C567 C570 1.526 . S
C568 H552 0.959 . S
C568 H553 0.959 . S
C568 H554 0.961 . S
C568 C567 1.502 1_554 S
C569 H555 0.960 . S
C569 H556 0.961 . S
C569 H557 0.959 . S
C569 C567 1.561 . S
C570 C567 1.526 . S
C570 C571 1.396 . S
C570 C575 1.390 1_556 S
C571 C565 1.465 . S
C571 C570 1.396 . S
C571 C572 1.399 . S
C572 H558 0.929 . S
C572 C571 1.399 . S
C572 C573 1.385 . S
C573 H559 0.931 . S
C573 C572 1.385 . S
C573 C574 1.389 1_556 S
C574 C573 1.389 1_554 S
C574 C575 1.387 . S
C575 H560 0.930 . S
C575 C570 1.390 1_554 S
C575 C574 1.387 . S
H576 C588 0.930 . S
H577 C590 0.930 . S
H578 C591 0.930 . S
H579 C595 0.964 . S
H580 C595 0.959 . S
H581 C595 0.961 . S
H582 C596 0.960 1_554 S
H583 C596 0.961 . S
H584 C596 0.959 . S
H585 C599 0.929 . S
H586 C600 0.931 . S
H587 C602 0.930 . S
C588 H576 0.930 . S
C588 C589 1.399 . S
C588 C593 1.399 1_554 S
C589 C588 1.399 . S
C589 C590 1.376 1_554 S
C590 H577 0.930 . S
C590 C589 1.376 1_556 S
C590 C591 1.388 . S
C591 H578 0.930 . S
C591 C590 1.388 . S
C591 C592 1.390 . S
C592 C591 1.390 . S
C592 C593 1.394 . S
C592 C598 1.465 . S
C593 C588 1.399 1_556 S
C593 C592 1.394 . S
C593 C594 1.516 . S
C594 C593 1.516 . S
C594 C595 1.502 1_556 S
C594 C596 1.561 . S
C594 C597 1.526 . S
C595 H579 0.964 . S
C595 H580 0.959 . S
C595 H581 0.961 . S
C595 C594 1.502 1_554 S
C596 H582 0.960 1_556 S
C596 H583 0.961 . S
C596 H584 0.959 . S
C596 C594 1.561 . S
C597 C594 1.526 . S
C597 C598 1.396 . S
C597 C602 1.390 . S
C598 C592 1.465 . S
C598 C597 1.396 . S
C598 C599 1.399 . S
C599 H585 0.929 . S
C599 C598 1.399 . S
C599 C600 1.385 . S
C600 H586 0.931 . S
C600 C599 1.385 . S
C600 C601 1.389 . S
C601 C600 1.389 . S
C601 C602 1.387 . S
C602 H587 0.930 . S
C602 C597 1.390 . S
C602 C601 1.387 . S
H603 C615 0.930 . S
H604 C617 0.930 . S
H605 C618 0.930 . S
H606 C622 0.959 . S
H607 C622 0.959 . S
H608 C622 0.961 . S
H609 C623 0.960 . S
H610 C623 0.961 . S
H611 C623 0.959 . S
H612 C626 0.929 . S
H613 C627 0.931 . S
H614 C629 0.930 . S
C615 H603 0.930 . S
C615 C616 1.399 . S
C615 C620 1.399 . S
C616 C615 1.399 . S
C616 C617 1.376 . S
C617 H604 0.930 . S
C617 C616 1.376 . S
C617 C618 1.388 . S
C618 H605 0.930 . S
C618 C617 1.388 . S
C618 C619 1.390 . S
C619 C618 1.390 . S
C619 C620 1.394 . S
C619 C625 1.465 . S
C620 C615 1.399 . S
C620 C619 1.394 . S
C620 C621 1.516 . S
C621 C620 1.516 . S
C621 C622 1.502 . S
C621 C623 1.561 . S
C621 C624 1.526 . S
C622 H606 0.959 . S
C622 H607 0.959 . S
C622 H608 0.961 . S
C622 C621 1.502 . S
C623 H609 0.960 . S
C623 H610 0.961 . S
C623 H611 0.959 . S
C623 C621 1.561 . S
C624 C621 1.526 . S
C624 C625 1.396 . S
C624 C629 1.390 . S
C625 C619 1.465 . S
C625 C624 1.396 . S
C625 C626 1.399 . S
C626 H612 0.929 . S
C626 C625 1.399 . S
C626 C627 1.385 . S
C627 H613 0.931 . S
C627 C626 1.385 . S
C627 C628 1.389 . S
C628 C627 1.389 . S
C628 C629 1.387 . S
C629 H614 0.930 . S
C629 C624 1.390 . S
C629 C628 1.387 . S
H630 C642 0.930 . S
H631 C644 0.930 . S
H632 C645 0.930 . S
H633 C649 0.959 . S
H634 C649 0.959 . S
H635 C649 0.961 . S
H636 C650 0.960 . S
H637 C650 0.961 . S
H638 C650 0.959 . S
H639 C653 0.929 . S
H640 C654 0.931 . S
H641 C656 0.930 . S
C642 H630 0.930 . S
C642 C643 1.399 . S
C642 C647 1.399 . S
C643 C642 1.399 . S
C643 C644 1.376 . S
C644 H631 0.930 . S
C644 C643 1.376 . S
C644 C645 1.388 . S
C645 H632 0.930 . S
C645 C644 1.388 . S
C645 C646 1.390 . S
C646 C645 1.390 . S
C646 C647 1.394 . S
C646 C652 1.465 . S
C647 C642 1.399 . S
C647 C646 1.394 . S
C647 C648 1.516 . S
C648 C647 1.516 . S
C648 C649 1.502 . S
C648 C650 1.561 . S
C648 C651 1.526 . S
C649 H633 0.959 . S
C649 H634 0.959 . S
C649 H635 0.961 . S
C649 C648 1.502 . S
C650 H636 0.960 . S
C650 H637 0.961 . S
C650 H638 0.959 . S
C650 C648 1.561 . S
C651 C648 1.526 . S
C651 C652 1.396 . S
C651 C656 1.390 . S
C652 C646 1.465 . S
C652 C651 1.396 . S
C652 C653 1.399 1_655 S
C653 H639 0.929 . S
C653 C652 1.399 1_455 S
C653 C654 1.385 . S
C654 H640 0.931 . S
C654 C653 1.385 . S
C654 C655 1.389 . S
C655 C654 1.389 . S
C655 C656 1.387 1_455 S
C656 H641 0.930 . S
C656 C651 1.390 . S
C656 C655 1.387 1_655 S
H657 C669 0.930 . S
H658 C671 0.930 . S
H659 C672 0.930 . S
H660 C676 0.959 1_556 S
H661 C676 0.959 . S
H662 C676 0.961 . S
H663 C677 0.960 . S
H664 C677 0.961 . S
H665 C677 0.959 . S
H666 C680 0.929 . S
H667 C681 0.931 . S
H668 C683 0.930 . S
C669 H657 0.930 . S
C669 C670 1.399 . S
C669 C674 1.399 . S
C670 C669 1.399 . S
C670 C671 1.376 1_554 S
C671 H658 0.930 . S
C671 C670 1.376 1_556 S
C671 C672 1.388 . S
C672 H659 0.930 . S
C672 C671 1.388 . S
C672 C673 1.390 . S
C673 C672 1.390 . S
C673 C674 1.394 1_556 S
C673 C679 1.465 . S
C674 C669 1.399 . S
C674 C673 1.394 1_554 S
C674 C675 1.516 . S
C675 C674 1.516 . S
C675 C676 1.502 . S
C675 C677 1.561 . S
C675 C678 1.526 1_554 S
C676 H660 0.959 1_554 S
C676 H661 0.959 . S
C676 H662 0.961 . S
C676 C675 1.502 . S
C677 H663 0.960 . S
C677 H664 0.961 . S
C677 H665 0.959 . S
C677 C675 1.561 . S
C678 C675 1.526 1_556 S
C678 C679 1.396 . S
C678 C683 1.390 . S
C679 C673 1.465 . S
C679 C678 1.396 . S
C679 C680 1.399 . S
C680 H666 0.929 . S
C680 C679 1.399 . S
C680 C681 1.385 . S
C681 H667 0.931 . S
C681 C680 1.385 . S
C681 C682 1.389 . S
C682 C681 1.389 . S
C682 C683 1.387 . S
C683 H668 0.930 . S
C683 C678 1.390 . S
C683 C682 1.387 . S
H684 C696 0.930 . S
H685 C698 0.930 . S
H686 C699 0.930 . S
H687 C703 0.959 . S
H688 C703 0.959 . S
H689 C703 0.961 . S
H690 C704 0.960 . S
H691 C704 0.961 . S
H692 C704 0.959 . S
H693 C707 0.929 . S
H694 C708 0.931 . S
H695 C710 0.930 . S
C696 H684 0.930 . S
C696 C697 1.399 . S
C696 C701 1.399 . S
C697 C696 1.399 . S
C697 C698 1.376 . S
C698 H685 0.930 . S
C698 C697 1.376 . S
C698 C699 1.388 . S
C699 H686 0.930 . S
C699 C698 1.388 . S
C699 C700 1.390 . S
C700 C699 1.390 . S
C700 C701 1.394 . S
C700 C706 1.465 . S
C701 C696 1.399 . S
C701 C700 1.394 . S
C701 C702 1.516 . S
C702 C701 1.516 . S
C702 C703 1.502 . S
C702 C704 1.561 . S
C702 C705 1.526 . S
C703 H687 0.959 . S
C703 H688 0.959 . S
C703 H689 0.961 . S
C703 C702 1.502 . S
C704 H690 0.960 . S
C704 H691 0.961 . S
C704 H692 0.959 . S
C704 C702 1.561 . S
C705 C702 1.526 . S
C705 C706 1.396 . S
C705 C710 1.390 . S
C706 C700 1.465 . S
C706 C705 1.396 . S
C706 C707 1.399 . S
C707 H693 0.929 . S
C707 C706 1.399 . S
C707 C708 1.385 . S
C708 H694 0.931 . S
C708 C707 1.385 . S
C708 C709 1.389 . S
C709 C708 1.389 . S
C709 C710 1.387 . S
C710 H695 0.930 . S
C710 C705 1.390 . S
C710 C709 1.387 . S
H711 C723 0.930 . S
H712 C725 0.930 . S
H713 C726 0.930 . S
H714 C730 0.959 . S
H715 C730 0.959 . S
H716 C730 0.961 . S
H717 C731 0.960 . S
H718 C731 0.961 . S
H719 C731 0.959 . S
H720 C734 0.929 . S
H721 C735 0.931 . S
H722 C737 0.930 . S
C723 H711 0.930 . S
C723 C724 1.399 . S
C723 C728 1.399 . S
C724 C723 1.399 . S
C724 C725 1.376 . S
C725 H712 0.930 . S
C725 C724 1.376 . S
C725 C726 1.388 . S
C726 H713 0.930 . S
C726 C725 1.388 . S
C726 C727 1.390 . S
C727 C726 1.390 . S
C727 C728 1.394 . S
C727 C733 1.465 . S
C728 C723 1.399 . S
C728 C727 1.394 . S
C728 C729 1.516 . S
C729 C728 1.516 . S
C729 C730 1.502 . S
C729 C731 1.561 . S
C729 C732 1.526 . S
C730 H714 0.959 . S
C730 H715 0.959 . S
C730 H716 0.961 . S
C730 C729 1.502 . S
C731 H717 0.960 . S
C731 H718 0.961 . S
C731 H719 0.959 . S
C731 C729 1.561 . S
C732 C729 1.526 . S
C732 C733 1.396 . S
C732 C737 1.390 . S
C733 C727 1.465 . S
C733 C732 1.396 . S
C733 C734 1.399 . S
C734 H720 0.929 . S
C734 C733 1.399 . S
C734 C735 1.385 . S
C735 H721 0.931 . S
C735 C734 1.385 . S
C735 C736 1.389 . S
C736 C735 1.389 . S
C736 C737 1.387 . S
C737 H722 0.930 . S
C737 C732 1.390 . S
C737 C736 1.387 . S
H738 C750 0.930 . S
H739 C752 0.930 . S
H740 C753 0.930 . S
H741 C757 0.959 . S
H742 C757 0.959 . S
H743 C757 0.961 . S
H744 C758 0.960 . S
H745 C758 0.961 . S
H746 C758 0.959 . S
H747 C761 0.929 . S
H748 C762 0.931 . S
H749 C764 0.930 . S
C750 H738 0.930 . S
C750 C751 1.399 . S
C750 C755 1.399 . S
C751 C750 1.399 . S
C751 C752 1.376 . S
C752 H739 0.930 . S
C752 C751 1.376 . S
C752 C753 1.388 . S
C753 H740 0.930 . S
C753 C752 1.388 . S
C753 C754 1.390 . S
C754 C753 1.390 . S
C754 C755 1.394 . S
C754 C760 1.465 . S
C755 C750 1.399 . S
C755 C754 1.394 . S
C755 C756 1.516 1_545 S
C756 C755 1.516 1_565 S
C756 C757 1.502 . S
C756 C758 1.561 . S
C756 C759 1.526 1_565 S
C757 H741 0.959 . S
C757 H742 0.959 . S
C757 H743 0.961 . S
C757 C756 1.502 . S
C758 H744 0.960 . S
C758 H745 0.961 . S
C758 H746 0.959 . S
C758 C756 1.561 . S
C759 C756 1.526 1_545 S
C759 C760 1.396 . S
C759 C764 1.390 1_545 S
C760 C754 1.465 . S
C760 C759 1.396 . S
C760 C761 1.399 . S
C761 H747 0.929 . S
C761 C760 1.399 . S
C761 C762 1.385 . S
C762 H748 0.931 . S
C762 C761 1.385 . S
C762 C763 1.389 . S
C763 C762 1.389 . S
C763 C764 1.387 1_545 S
C764 H749 0.930 . S
C764 C759 1.390 1_565 S
C764 C763 1.387 1_565 S
H765 C777 0.930 . S
H766 C779 0.930 . S
H767 C780 0.930 . S
H768 C784 0.959 . S
H769 C784 0.959 . S
H770 C784 0.961 . S
H771 C785 0.960 . S
H772 C785 0.961 . S
H773 C785 0.959 . S
H774 C788 0.929 . S
H775 C789 0.931 . S
H776 C791 0.930 . S
C777 H765 0.930 . S
C777 C778 1.399 . S
C777 C782 1.399 . S
C778 C777 1.399 . S
C778 C779 1.376 . S
C779 H766 0.930 . S
C779 C778 1.376 . S
C779 C780 1.388 . S
C780 H767 0.930 . S
C780 C779 1.388 . S
C780 C781 1.390 . S
C781 C780 1.390 . S
C781 C782 1.394 . S
C781 C787 1.465 . S
C782 C777 1.399 . S
C782 C781 1.394 . S
C782 C783 1.516 . S
C783 C782 1.516 . S
C783 C784 1.502 . S
C783 C785 1.561 . S
C783 C786 1.526 . S
C784 H768 0.959 . S
C784 H769 0.959 . S
C784 H770 0.961 . S
C784 C783 1.502 . S
C785 H771 0.960 . S
C785 H772 0.961 . S
C785 H773 0.959 . S
C785 C783 1.561 . S
C786 C783 1.526 . S
C786 C787 1.396 . S
C786 C791 1.390 . S
C787 C781 1.465 . S
C787 C786 1.396 . S
C787 C788 1.399 . S
C788 H774 0.929 . S
C788 C787 1.399 . S
C788 C789 1.385 . S
C789 H775 0.931 . S
C789 C788 1.385 . S
C789 C790 1.389 . S
C790 C789 1.389 . S
C790 C791 1.387 . S
C791 H776 0.930 . S
C791 C786 1.390 . S
C791 C790 1.387 . S
H792 C804 0.930 . S
H793 C806 0.930 . S
H794 C807 0.930 . S
H795 C811 0.959 . S
H796 C811 0.959 . S
H797 C811 0.961 . S
H798 C812 0.960 . S
H799 C812 0.961 . S
H800 C812 0.959 . S
H801 C815 0.929 . S
H802 C816 0.931 . S
H803 C818 0.930 . S
C804 H792 0.930 . S
C804 C805 1.399 . S
C804 C809 1.399 . S
C805 C804 1.399 . S
C805 C806 1.376 . S
C806 H793 0.930 . S
C806 C805 1.376 . S
C806 C807 1.388 . S
C807 H794 0.930 . S
C807 C806 1.388 . S
C807 C808 1.390 . S
C808 C807 1.390 . S
C808 C809 1.394 . S
C808 C814 1.465 . S
C809 C804 1.399 . S
C809 C808 1.394 . S
C809 C810 1.516 . S
C810 C809 1.516 . S
C810 C811 1.502 . S
C810 C812 1.561 . S
C810 C813 1.526 . S
C811 H795 0.959 . S
C811 H796 0.959 . S
C811 H797 0.961 . S
C811 C810 1.502 . S
C812 H798 0.960 . S
C812 H799 0.961 . S
C812 H800 0.959 . S
C812 C810 1.561 . S
C813 C810 1.526 . S
C813 C814 1.396 . S
C813 C818 1.390 . S
C814 C808 1.465 . S
C814 C813 1.396 . S
C814 C815 1.399 . S
C815 H801 0.929 . S
C815 C814 1.399 . S
C815 C816 1.385 . S
C816 H802 0.931 . S
C816 C815 1.385 . S
C816 C817 1.389 . S
C817 C816 1.389 . S
C817 C818 1.387 . S
C818 H803 0.930 . S
C818 C813 1.390 . S
C818 C817 1.387 . S
H819 C831 0.930 . S
H820 C833 0.938 . S
H821 C834 0.930 . S
H822 C838 0.959 . S
H823 C838 0.959 . S
H824 C838 0.961 . S
H825 C839 0.960 . S
H826 C839 0.961 . S
H827 C839 0.959 . S
H828 C842 0.929 . S
H829 C843 0.931 . S
H830 C845 0.930 . S
C831 H819 0.930 . S
C831 C832 1.399 . S
C831 C836 1.399 . S
C832 C831 1.399 . S
C832 C833 1.376 . S
C833 H820 0.938 . S
C833 C832 1.376 . S
C833 C834 1.388 . S
C834 H821 0.930 . S
C834 C833 1.388 . S
C834 C835 1.390 . S
C835 C834 1.390 . S
C835 C836 1.394 . S
C835 C841 1.465 . S
C836 C831 1.399 . S
C836 C835 1.394 . S
C836 C837 1.516 . S
C837 C836 1.516 . S
C837 C838 1.502 . S
C837 C839 1.561 . S
C837 C840 1.526 . S
C838 H822 0.959 . S
C838 H823 0.959 . S
C838 H824 0.961 . S
C838 C837 1.502 . S
C839 H825 0.960 . S
C839 H826 0.961 . S
C839 H827 0.959 . S
C839 C837 1.561 . S
C840 C837 1.526 . S
C840 C841 1.396 . S
C840 C845 1.390 . S
C841 C835 1.465 . S
C841 C840 1.396 . S
C841 C842 1.399 . S
C842 H828 0.929 . S
C842 C841 1.399 . S
C842 C843 1.385 . S
C843 H829 0.931 . S
C843 C842 1.385 . S
C843 C844 1.389 . S
C844 C843 1.389 . S
C844 C845 1.387 . S
C845 H830 0.930 . S
C845 C840 1.390 . S
C845 C844 1.387 . S
H846 C858 0.930 . S
H847 C860 0.930 . S
H848 C861 0.930 . S
H849 C865 0.959 . S
H850 C865 0.959 . S
H851 C865 0.961 . S
H852 C866 0.960 . S
H853 C866 0.961 . S
H854 C866 0.959 . S
H855 C869 0.929 . S
H856 C870 0.931 . S
H857 C872 0.930 . S
C858 H846 0.930 . S
C858 C859 1.399 . S
C858 C863 1.399 . S
C859 C858 1.399 . S
C859 C860 1.376 . S
C860 H847 0.930 . S
C860 C859 1.376 . S
C860 C861 1.388 . S
C861 H848 0.930 . S
C861 C860 1.388 . S
C861 C862 1.390 . S
C862 C861 1.390 . S
C862 C863 1.394 . S
C862 C868 1.465 . S
C863 C858 1.399 . S
C863 C862 1.394 . S
C863 C864 1.516 . S
C864 C863 1.516 . S
C864 C865 1.502 . S
C864 C866 1.561 . S
C864 C867 1.526 . S
C865 H849 0.959 . S
C865 H850 0.959 . S
C865 H851 0.961 . S
C865 C864 1.502 . S
C866 H852 0.960 . S
C866 H853 0.961 . S
C866 H854 0.959 . S
C866 C864 1.561 . S
C867 C864 1.526 . S
C867 C868 1.396 . S
C867 C872 1.390 . S
C868 C862 1.465 . S
C868 C867 1.396 . S
C868 C869 1.399 . S
C869 H855 0.929 . S
C869 C868 1.399 . S
C869 C870 1.385 . S
C870 H856 0.931 . S
C870 C869 1.385 . S
C870 C871 1.389 . S
C871 C870 1.389 . S
C871 C872 1.387 . S
C872 H857 0.930 . S
C872 C867 1.390 . S
C872 C871 1.387 . S
H873 C885 0.930 . S
H874 C887 0.930 . S
H875 C888 0.930 . S
H876 C892 0.959 . S
H877 C892 0.959 . S
H878 C892 0.961 . S
H879 C893 0.960 . S
H880 C893 0.961 . S
H881 C893 0.959 . S
H882 C896 0.929 . S
H883 C897 0.931 . S
H884 C899 0.930 . S
C885 H873 0.930 . S
C885 C886 1.399 . S
C885 C890 1.399 . S
C886 C885 1.399 . S
C886 C887 1.376 . S
C887 H874 0.930 . S
C887 C886 1.376 . S
C887 C888 1.388 . S
C888 H875 0.930 . S
C888 C887 1.388 . S
C888 C889 1.390 . S
C889 C888 1.390 . S
C889 C890 1.394 . S
C889 C895 1.465 . S
C890 C885 1.399 . S
C890 C889 1.394 . S
C890 C891 1.516 . S
C891 C890 1.516 . S
C891 C892 1.502 . S
C891 C893 1.561 . S
C891 C894 1.526 . S
C892 H876 0.959 . S
C892 H877 0.959 . S
C892 H878 0.961 . S
C892 C891 1.502 . S
C893 H879 0.960 . S
C893 H880 0.961 . S
C893 H881 0.959 . S
C893 C891 1.561 . S
C894 C891 1.526 . S
C894 C895 1.396 . S
C894 C899 1.390 . S
C895 C889 1.465 . S
C895 C894 1.396 . S
C895 C896 1.399 1_455 S
C896 H882 0.929 . S
C896 C895 1.399 1_655 S
C896 C897 1.385 . S
C897 H883 0.931 . S
C897 C896 1.385 . S
C897 C898 1.389 . S
C898 C897 1.389 . S
C898 C899 1.387 1_655 S
C899 H884 0.930 . S
C899 C894 1.390 . S
C899 C898 1.387 1_455 S
H900 C912 0.930 . S
H901 C914 0.930 . S
H902 C915 0.930 . S
H903 C919 0.959 . S
H904 C919 0.959 . S
H905 C919 0.961 . S
H906 C920 0.960 . S
H907 C920 0.961 . S
H908 C920 0.959 . S
H909 C923 0.929 . S
H910 C924 0.931 . S
H911 C926 0.930 . S
C912 H900 0.930 . S
C912 C913 1.399 . S
C912 C917 1.399 . S
C913 C912 1.399 . S
C913 C914 1.376 . S
C914 H901 0.930 . S
C914 C913 1.376 . S
C914 C915 1.388 . S
C915 H902 0.930 . S
C915 C914 1.388 . S
C915 C916 1.390 . S
C916 C915 1.390 . S
C916 C917 1.394 . S
C916 C922 1.465 . S
C917 C912 1.399 . S
C917 C916 1.394 . S
C917 C918 1.516 . S
C918 C917 1.516 . S
C918 C919 1.502 . S
C918 C920 1.561 . S
C918 C921 1.526 . S
C919 H903 0.959 . S
C919 H904 0.959 . S
C919 H905 0.961 . S
C919 C918 1.502 . S
C920 H906 0.960 . S
C920 H907 0.961 . S
C920 H908 0.959 . S
C920 C918 1.561 . S
C921 C918 1.526 . S
C921 C922 1.396 . S
C921 C926 1.390 . S
C922 C916 1.465 . S
C922 C921 1.396 . S
C922 C923 1.399 . S
C923 H909 0.929 . S
C923 C922 1.399 . S
C923 C924 1.385 . S
C924 H910 0.931 . S
C924 C923 1.385 . S
C924 C925 1.389 . S
C925 C924 1.389 . S
C925 C926 1.387 . S
C926 H911 0.930 . S
C926 C921 1.390 . S
C926 C925 1.387 . S
C211 C41 1.481 . S
C223 C8 1.516 . S
C238 C19 1.546 . S
C250 C52 1.539 . S
C265 C63 1.524 . S
C277 C30 1.514 . S
C292 C107 1.540 . S
C304 C74 1.559 . S
C319 C118 1.545 . S
C331 C85 1.560 . S
C346 C96 1.611 . S
C358 C129 1.611 . S
C373 C173 1.476 . S
C385 C140 1.506 . S
C400 C184 1.678 . S
C412 C151 1.681 . S
C427 C162 1.610 . S
C439 C195 1.604 . S
C454 C95 1.462 . S
C466 C5 1.403 . S
C481 C71 1.340 . S
C493 C18 1.482 . S
C508 C82 1.381 . S
C520 C27 1.311 . S
C535 C16 1.406 . S
C547 C159 1.412 . S
C562 C137 1.343 . S
C574 C29 1.414 . S
C589 C7 1.422 . S
C601 C150 1.482 . S
C616 C192 1.329 . S
C628 C38 1.396 . S
C643 C172 1.572 . S
C655 C49 1.472 1_556 S
C670 C62 1.414 . S
C682 C183 1.474 . S
C697 C128 1.470 . S
C709 C51 1.434 . S
C724 C104 1.327 . S
C736 C60 1.365 . S
C751 C40 1.530 . S
C763 C115 1.454 1_545 S
C778 C73 1.427 . S
C790 C161 1.492 . S
C805 C139 1.459 . S
C817 C84 1.465 . S
C832 C93 1.521 1_545 S
C844 C148 1.529 . S
C859 C117 1.416 1_545 S
C871 C194 1.382 . S
C886 C126 1.347 . S
C898 C170 1.384 . S
C913 C106 1.481 . S
C925 C181 1.445 . S
