# Generated by pormake.
# Topology sxb, (6)-cn, num edge types: 1
# Building blocks:
#     Node 0, Type 0, BuildingBlock: PAMTOO_clean_sbu_0, # of connection points: 6
#     Node 1, Type 0, BuildingBlock: PAMTOO_clean_sbu_0, # of connection points: 6
#     Node 2, Type 0, BuildingBlock: PAMTOO_clean_sbu_0, # of connection points: 6
#     Node 3, Type 0, BuildingBlock: PAMTOO_clean_sbu_0, # of connection points: 6
#     Edge 4, Type (0, 0), BuildingBlock: AJUNOK_clean_linker_0, # of connection points: 2
#     Edge 5, Type (0, 0), BuildingBlock: AJUNOK_clean_linker_0, # of connection points: 2
#     Edge 6, Type (0, 0), BuildingBlock: AJUNOK_clean_linker_0, # of connection points: 2
#     Edge 7, Type (0, 0), BuildingBlock: AJUNOK_clean_linker_0, # of connection points: 2
#     Edge 8, Type (0, 0), BuildingBlock: AJUNOK_clean_linker_0, # of connection points: 2
#     Edge 9, Type (0, 0), BuildingBlock: AJUNOK_clean_linker_0, # of connection points: 2
#     Edge 10, Type (0, 0), BuildingBlock: AJUNOK_clean_linker_0, # of connection points: 2
#     Edge 11, Type (0, 0), BuildingBlock: AJUNOK_clean_linker_0, # of connection points: 2
#     Edge 12, Type (0, 0), BuildingBlock: AJUNOK_clean_linker_0, # of connection points: 2
#     Edge 13, Type (0, 0), BuildingBlock: AJUNOK_clean_linker_0, # of connection points: 2
#     Edge 14, Type (0, 0), BuildingBlock: AJUNOK_clean_linker_0, # of connection points: 2
#     Edge 15, Type (0, 0), BuildingBlock: AJUNOK_clean_linker_0, # of connection points: 2
# Relax obj value: 0.705
# Max RMSD: 0.113
# Mean RMSD: 0.106
data_MOF--net-sxb--node1-PAMTOO_clean_sbu_0--edge1-AJUNOK_clean_linker_0
_symmetry_space_group_name_H-M    P1
_symmetry_Int_Tables_number       1
_symmetry_cell_setting            triclinic
loop_
_symmetry_equiv_pos_as_xyz
'x, y, z'
_cell_length_a     11.904574
_cell_length_b     27.328148
_cell_length_c     22.709074
_cell_angle_alpha  95.503845
_cell_angle_beta   96.601322
_cell_angle_gamma 57.637417
loop_
_atom_site_label
_atom_site_type_symbol
_atom_site_fract_x
_atom_site_fract_y
_atom_site_fract_z
_atom_type_partial_charge
Dy0 Dy 0.17189 0.16216 -0.00823 0.0
Dy1 Dy 0.88764 0.18412 0.9599 0.0
C2 C 0.06389 0.1709 0.85575 0.0
O3 O 1.02397 0.2605 0.00444 0.0
O4 O 0.86531 0.26631 0.93523 0.0
O5 O 0.38595 1.10405 0.00638 0.0
O6 O 0.29183 0.1942 0.03634 0.0
O7 O 0.90156 0.20697 0.05719 0.0
O8 O 0.11539 1.13611 0.06778 0.0
O9 O 1.01884 1.08763 -0.02248 0.0
O10 O 0.21664 1.07394 0.95757 0.0
O11 O 0.74977 1.15481 0.93976 0.0
O12 O 0.67473 0.24621 0.95443 0.0
C13 C 0.91627 0.29232 0.96899 0.0
O14 O 0.14887 0.17567 0.89466 0.0
O15 O 0.9673 0.16585 0.87118 0.0
C16 C 0.42966 1.12372 0.1063 0.0
C17 C 0.50857 1.11005 0.22713 0.0
C18 C 0.59667 1.07047 0.18475 0.0
C19 C 0.55782 1.07861 0.12413 0.0
C20 C 0.3335 1.15019 0.14838 0.0
C21 C 0.37186 1.13946 0.20842 0.0
C22 C 0.39267 1.14137 0.0443 0.0
C23 C 1.00298 0.17056 0.09135 0.0
C24 C 0.14528 1.05214 0.96657 0.0
C25 C 0.61648 0.20445 0.02034 0.0
C26 C 0.63965 0.20172 0.14579 0.0
C27 C 0.5709 0.25489 0.11756 0.0
C28 C 0.55803 0.25625 0.05562 0.0
C29 C 0.68063 1.15155 0.04861 0.0
C30 C 0.69493 1.15024 0.11008 0.0
C31 C 0.65458 0.20466 0.96073 0.0
H32 H 0.70117 1.04048 0.19717 0.0
H33 H 0.63072 1.05337 0.09188 0.0
H34 H 0.23034 0.1819 0.13563 0.0
H35 H 0.29677 0.16352 0.23989 0.0
H36 H 0.53004 0.29556 0.14301 0.0
H37 H 0.51104 0.29786 0.0355 0.0
H38 H 0.72872 1.11056 0.02347 0.0
H39 H 0.74883 1.10812 0.1293 0.0
Dy40 Dy 0.97872 0.21999 0.47571 0.0
Dy41 Dy 0.09096 1.12803 0.47848 0.0
C42 C 0.99278 0.1713 0.34821 0.0
O43 O 0.85789 0.17847 0.49011 0.0
O44 O 0.86182 0.17738 0.48733 0.0
O45 O 0.83624 0.30814 0.45068 0.0
O46 O 0.98187 0.28905 0.52683 0.0
O47 O 0.1613 1.13961 0.57181 0.0
O48 O 0.95768 0.21593 0.571 0.0
O49 O 0.21028 0.16934 0.46124 0.0
O50 O 0.20702 0.1699 0.46297 0.0
O51 O 0.11001 1.0574 0.52231 0.0
O52 O 0.23012 1.04015 0.44856 0.0
C53 C 0.78746 0.16437 0.45014 0.0
O54 O 0.93037 0.22046 0.37804 0.0
O55 O 0.06721 1.1248 0.37876 0.0
C56 C 0.94357 0.36088 0.46806 0.0
C57 C 0.09792 0.40237 0.43799 0.0
C58 C 0.06308 0.37099 0.39556 0.0
C59 C 0.98744 0.34969 0.4107 0.0
C60 C 0.97157 0.39524 0.50917 0.0
C61 C 0.0483 0.41592 0.49422 0.0
C62 C 0.89453 0.32781 0.48971 0.0
C63 C 0.06457 0.17976 0.60219 0.0
C64 C 0.28458 0.18001 0.5021 0.0
C65 C 0.12709 0.98663 0.45205 0.0
C66 C 0.96307 0.94608 0.40419 0.0
C67 C 1.02088 0.93356 0.46242 0.0
C68 C 0.10138 0.95426 0.48641 0.0
C69 C 0.07737 0.99523 0.39221 0.0
C70 C 0.99484 0.97532 0.36853 0.0
C71 C 0.18332 1.01965 0.48197 0.0
H72 H 0.09957 0.36072 0.35181 0.0
H73 H 0.96901 0.32226 0.37868 0.0
H74 H 0.94019 0.40338 0.55388 0.0
H75 H 0.075 0.43975 0.52769 0.0
H76 H 0.99553 0.91161 0.49068 0.0
H77 H 0.13759 0.94776 0.53276 0.0
H78 H 0.09493 1.02041 0.36481 0.0
H79 H 0.95018 0.98536 0.32361 0.0
Dy80 Dy 0.65835 0.66447 -0.00948 0.0
Dy81 Dy 0.38029 0.6803 0.95051 0.0
C82 C 0.57942 0.65459 0.85406 0.0
O83 O 0.54007 0.76253 -0.00783 0.0
O84 O 0.34162 0.77147 0.95653 0.0
O85 O 0.84295 0.65511 0.97149 0.0
O86 O 0.832 0.62325 0.05306 0.0
O87 O 0.39958 0.67628 0.05074 0.0
O88 O 0.55102 0.70381 0.0721 0.0
O89 O 0.5012 0.58264 0.94578 0.0
O90 O 0.68676 0.57531 -0.00532 0.0
O91 O 0.21526 0.7203 0.88429 0.0
O92 O 0.20438 0.67785 0.95775 0.0
C93 C 0.41223 0.79521 0.97429 0.0
O94 O 0.63267 0.67642 0.89258 0.0
O95 O 0.50137 0.63999 0.87177 0.0
C96 C 0.99161 0.55608 -0.0107 0.0
C97 C 0.1522 0.44354 0.94176 0.0
C98 C 1.02331 0.48038 0.91038 0.0
C99 C 0.94378 0.53678 0.93817 0.0
C100 C 0.11238 0.51723 0.01942 0.0
C101 C 0.19174 0.46098 -0.00379 0.0
C102 C 0.90783 0.61649 0.01204 0.0
C103 C 0.46433 0.69367 0.08929 0.0
C104 C 0.6221 0.55067 0.97084 0.0
C105 C 0.14009 0.65657 0.86314 0.0
C106 C 0.16381 0.55061 0.82669 0.0
C107 C 1.04554 0.59727 0.84974 0.0
C108 C 1.03419 0.64968 0.86798 0.0
C109 C 0.24752 0.61458 0.83084 0.0
C110 C 0.25884 0.56209 0.8123 0.0
C111 C 0.15648 0.69715 0.90442 0.0
H112 H 1.0049 0.43948 0.80781 0.0
H113 H 0.848 0.56788 0.91691 0.0
H114 H 0.14735 0.53103 0.05988 0.0
H115 H 0.28951 0.43257 0.01786 0.0
H116 H 0.96612 0.5933 0.86049 0.0
H117 H 0.94927 0.6822 0.89171 0.0
H118 H 0.32924 0.61973 0.82521 0.0
H119 H 0.34888 0.5283 0.79261 0.0
Dy120 Dy 0.51342 0.72005 0.4801 0.0
Dy121 Dy 0.61863 0.62954 0.46435 0.0
C122 C 0.4942 0.68844 0.34729 0.0
O123 O 0.39789 0.67391 0.48904 0.0
O124 O 0.39866 0.67388 0.48787 0.0
O125 O 0.33736 0.80316 0.45825 0.0
O126 O 0.48816 0.79651 0.52732 0.0
O127 O 0.61899 0.61646 0.56056 0.0
O128 O 0.57458 0.706 0.57734 0.0
O129 O 0.73526 0.67522 0.45909 0.0
O130 O 0.73465 0.67521 0.45986 0.0
O131 O 0.76899 0.54283 0.49091 0.0
O132 O 0.68957 0.55905 0.39902 0.0
C133 C 0.30864 0.67291 0.44865 0.0
O134 O 0.51238 0.72493 0.38156 0.0
O135 O 0.51069 0.64476 0.37373 0.0
C136 C 0.41059 0.86898 0.46091 0.0
C137 C 0.53475 0.91501 0.40923 0.0
C138 C 0.48011 0.8871 0.37327 0.0
C139 C 0.41711 0.86453 0.39897 0.0
C140 C 0.45536 0.90125 0.49582 0.0
C141 C 0.51641 0.9244 0.47009 0.0
C142 C 0.38747 0.83032 0.49088 0.0
C143 C 0.6043 0.65767 0.59895 0.0
C144 C 0.82321 0.67448 0.50129 0.0
C145 C 0.69257 0.48491 0.44135 0.0
C146 C 0.51217 0.44863 0.43223 0.0
C147 C 0.5375 0.47117 0.4865 0.0
C148 C 0.62749 0.48906 0.49117 0.0
C149 C 0.67494 0.45802 0.38838 0.0
C150 C 0.5853 0.43966 0.38389 0.0
C151 C 0.7489 0.52088 0.43995 0.0
H152 H 0.49415 0.87941 0.32623 0.0
H153 H 0.38282 0.84003 0.37093 0.0
H154 H 0.45153 0.90506 0.54361 0.0
H155 H 0.55901 0.94553 0.49855 0.0
H156 H 0.48321 0.4773 0.5245 0.0
H157 H 0.63861 0.50977 0.5326 0.0
H158 H 0.7234 0.45495 0.34941 0.0
H159 H 0.56712 0.42182 0.34181 0.0
C160 C 0.41559 0.88861 -0.02184 0.0
C161 C 0.34274 0.86097 0.97309 0.0
C162 C 0.35172 0.94968 0.97522 0.0
C163 C 0.21119 0.98678 0.96787 0.0
H164 H 0.52344 0.86284 -0.01612 0.0
H165 H 0.41365 0.968 -0.02055 0.0
S166 S 0.97188 0.93778 0.95274 0.0
N167 N 0.11931 0.8772 0.96023 0.0
N168 N 1.00179 0.9904 0.95565 0.0
C169 C 0.13714 0.95986 0.96318 0.0
C170 C 0.2019 0.89774 0.96548 0.0
C171 C 0.78735 0.45302 0.01759 0.0
C172 C 0.69131 0.48498 0.97125 0.0
C173 C 0.86047 0.39135 0.01684 0.0
C174 C 0.84414 0.35816 0.96888 0.0
H175 H 0.80603 0.47595 0.05516 0.0
H176 H 0.93005 0.3696 0.05433 0.0
S177 S 0.63509 0.41914 0.82901 0.0
N178 N 0.59809 0.47708 0.87261 0.0
N179 N 0.74107 0.3629 0.86927 0.0
C180 C 0.75331 0.38957 0.92107 0.0
C181 C 0.67519 0.45217 0.92287 0.0
C182 C 0.17308 0.47148 0.43936 0.0
C183 C 0.19841 0.41525 0.42705 0.0
C184 C 0.27479 0.48246 0.43901 0.0
C185 C 0.40393 0.43759 0.42582 0.0
H186 H 0.07541 0.50663 0.45131 0.0
H187 H 0.2534 0.5259 0.4505 0.0
S188 S 0.52013 0.28412 0.3892 0.0
N189 N 0.36163 0.31449 0.40142 0.0
N190 N 0.55128 0.33638 0.39802 0.0
C191 C 0.42908 0.38203 0.41093 0.0
C192 C 0.32645 0.3705 0.41224 0.0
C193 C 0.72108 0.98691 0.39217 0.0
C194 C 0.8506 0.93879 0.38617 0.0
C195 C 0.61346 0.97986 0.39322 0.0
C196 C 0.63294 0.92432 0.38746 0.0
H197 H 0.70539 1.02947 0.40151 0.0
H198 H 0.51705 1.01729 0.40332 0.0
S199 S 0.95049 0.78558 0.36291 0.0
N200 N 0.99129 0.83494 0.36899 0.0
N201 N 0.78823 0.82108 0.36957 0.0
C202 C 0.76005 0.8764 0.37606 0.0
C203 C 0.86966 0.88371 0.37593 0.0
C204 C 0.6942 1.11947 0.27379 0.0
C205 C 0.5567 1.14065 0.27226 0.0
C206 C 0.73415 1.14651 0.2389 0.0
C207 C 0.63616 0.19814 0.21062 0.0
H208 H 0.76632 1.07521 0.2856 0.0
H209 H 0.83493 1.12173 0.22519 0.0
S210 S 0.29575 0.29574 0.26047 0.0
N211 N 0.35173 0.23326 0.29071 0.0
N212 N 0.41838 0.28621 0.2238 0.0
C213 C 0.51298 0.23044 0.23614 0.0
C214 C 0.47688 0.20172 0.27194 0.0
C215 C 0.47734 1.1501 0.43544 0.0
C216 C 0.41213 0.17614 0.48809 0.0
C217 C 0.59833 1.14601 0.42553 0.0
C218 C 0.66085 0.16826 0.46631 0.0
H219 H 0.4362 1.13185 0.40187 0.0
H220 H 0.64556 1.12418 0.38551 0.0
S221 S 0.53 0.24187 0.61108 0.0
N222 N 0.42128 0.22464 0.58202 0.0
N223 N 0.64324 0.21833 0.56246 0.0
C224 C 0.59621 0.19458 0.51912 0.0
C225 C 0.47399 0.19815 0.52979 0.0
C226 C 0.35529 0.40228 0.89289 0.0
C227 C 0.2514 0.39541 0.90435 0.0
C228 C 0.32794 0.45129 0.86332 0.0
C229 C 0.20445 0.48907 0.83205 0.0
H230 H 0.44855 0.37922 0.91982 0.0
H231 H 0.39806 0.46462 0.8735 0.0
S232 S 0.84324 0.4806 0.85197 0.0
N233 N 1.02901 0.40026 0.87379 0.0
N234 N 0.9474 0.5166 0.81943 0.0
C235 C 0.11493 0.47063 0.82342 0.0
C236 C 0.16578 0.40008 0.85706 0.0
C237 C 0.11802 0.65597 0.42084 0.0
C238 C 0.18815 0.67207 0.46504 0.0
C239 C 1.00091 0.65702 0.43152 0.0
C240 C 0.94731 0.67371 0.48761 0.0
H241 H 0.15357 0.6428 0.37681 0.0
H242 H 0.95278 0.64422 0.39549 0.0
S243 S 0.08938 0.71996 0.61956 0.0
N244 N 0.19119 0.70561 0.56789 0.0
N245 N 0.976 0.70643 0.58809 0.0
C246 C 1.0174 0.68906 0.53241 0.0
C247 C 0.13588 0.68849 0.52138 0.0
C248 C 0.89861 0.21835 0.24966 0.0
C249 C 0.99034 0.16893 0.28221 0.0
C250 C 0.90024 0.21818 0.18773 0.0
C251 C 0.99483 0.16887 0.15598 0.0
H252 H 0.82517 0.2577 0.27219 0.0
H253 H 0.82886 0.25743 0.16481 0.0
S254 S 0.25674 1.02805 0.21964 0.0
N255 N 0.17795 1.06902 0.27726 0.0
N256 N 0.1812 1.06888 0.16166 0.0
C257 C 0.08624 1.11902 0.18785 0.0
C258 C 0.084 1.119 0.25067 0.0
C259 C 0.18635 1.14268 0.76361 0.0
C260 C 0.06763 0.17635 0.79235 0.0
C261 C 0.18595 1.14454 0.7019 0.0
C262 C 0.06736 0.1811 0.6676 0.0
H263 H 0.27873 1.11334 0.78858 0.0
H264 H 0.27845 1.11665 0.6809 0.0
S265 S 0.73344 0.28255 0.72427 0.0
N266 N 0.83134 0.24975 0.78345 0.0
N267 N 0.83009 0.25497 0.66847 0.0
C268 C 0.94951 0.21701 0.69683 0.0
C269 C 0.94979 0.21416 0.75901 0.0
C270 C 0.49053 0.73166 0.25395 0.0
C271 C 0.4699 0.6934 0.28154 0.0
C272 C 0.48251 0.73312 0.19187 0.0
C273 C 0.45124 0.69714 0.15441 0.0
H274 H 0.51806 0.75933 0.28043 0.0
H275 H 0.50418 0.76189 0.17306 0.0
S276 S 0.37787 0.59225 0.20408 0.0
N277 N 0.40961 0.6207 0.26637 0.0
N278 N 0.39265 0.62415 0.14983 0.0
C279 C 0.42397 0.66065 0.18133 0.0
C280 C 0.43398 0.65855 0.24475 0.0
C281 C 0.63376 0.68856 0.70459 0.0
C282 C 0.61034 0.65201 0.66407 0.0
C283 C 0.62967 0.68723 0.7661 0.0
C284 C 0.59901 0.65021 0.78958 0.0
H285 H 0.65392 0.71902 0.68864 0.0
H286 H 0.64585 0.71704 0.79523 0.0
S287 S 0.53593 0.54379 0.70284 0.0
N288 N 0.56112 0.57583 0.65231 0.0
N289 N 0.55191 0.57381 0.76729 0.0
C290 C 0.57893 0.61234 0.74964 0.0
C291 C 0.585 0.6131 0.68712 0.0
loop_
_geom_bond_atom_site_label_1
_geom_bond_atom_site_label_2
_geom_bond_distance
_geom_bond_site_symmetry_2
_ccdc_geom_bond_type
Dy0 O3 2.307 1_455 S
Dy0 O5 2.395 1_544 S
Dy0 O6 2.379 . S
Dy0 O8 2.339 . S
Dy0 O10 2.298 1_545 S
Dy0 O14 2.275 1_554 S
Dy0 C22 2.738 1_545 S
Dy1 O4 2.298 1_565 S
Dy1 O7 2.275 1_556 S
Dy1 O9 2.307 1_655 S
Dy1 O11 2.395 1_566 S
Dy1 O12 2.379 . S
Dy1 O15 2.339 . S
Dy1 C31 2.738 1_565 S
C2 O14 1.254 1_665 S
C2 O15 1.257 . S
O3 Dy0 2.307 1_655 S
O3 C13 1.266 . S
O4 Dy1 2.298 1_545 S
O4 C13 1.236 1_556 S
O5 Dy0 2.395 1_566 S
O5 C22 1.255 1_556 S
O6 Dy0 2.379 . S
O6 C22 1.249 1_545 S
O7 Dy1 2.275 1_554 S
O7 C23 1.254 1_665 S
O8 Dy0 2.339 . S
O8 C23 1.257 . S
O9 Dy1 2.307 1_455 S
O9 C24 1.266 . S
O10 Dy0 2.298 1_565 S
O10 C24 1.236 1_554 S
O11 Dy1 2.395 1_544 S
O11 C31 1.255 1_554 S
O12 Dy1 2.379 . S
O12 C31 1.249 1_565 S
C13 O3 1.266 . S
C13 O4 1.236 1_554 S
O14 Dy0 2.275 1_556 S
O14 C2 1.254 1_445 S
O15 Dy1 2.339 . S
O15 C2 1.257 . S
C16 C19 1.344 1_554 S
C16 C20 1.328 . S
C16 C22 1.516 . S
C17 C18 1.304 1_554 S
C17 C21 1.323 . S
C18 C17 1.304 1_556 S
C18 C19 1.371 . S
C18 H32 0.930 . S
C19 C16 1.344 1_556 S
C19 C18 1.371 . S
C19 H33 0.931 . S
C20 C16 1.328 . S
C20 C21 1.433 . S
C20 H34 0.935 . S
C21 C17 1.323 . S
C21 C20 1.433 . S
C21 H35 0.933 . S
C22 Dy0 2.738 1_565 S
C22 O5 1.255 1_554 S
C22 O6 1.249 1_565 S
C22 C16 1.516 . S
C23 O7 1.254 1_445 S
C23 O8 1.257 . S
C24 O9 1.266 . S
C24 O10 1.236 1_556 S
C25 C28 1.344 1_556 S
C25 C29 1.328 . S
C25 C31 1.516 . S
C26 C27 1.304 1_556 S
C26 C30 1.323 . S
C27 C26 1.304 1_554 S
C27 C28 1.371 . S
C27 H36 0.930 . S
C28 C25 1.344 1_554 S
C28 C27 1.371 . S
C28 H37 0.931 . S
C29 C25 1.328 . S
C29 C30 1.433 . S
C29 H38 0.931 . S
C30 C26 1.323 . S
C30 C29 1.433 . S
C30 H39 0.933 . S
C31 Dy1 2.738 1_545 S
C31 O11 1.255 1_556 S
C31 O12 1.249 1_545 S
C31 C25 1.516 . S
H32 C18 0.930 . S
H33 C19 0.931 . S
H34 C20 0.935 . S
H35 C21 0.933 . S
H36 C27 0.930 . S
H37 C28 0.931 . S
H38 C29 0.931 . S
H39 C30 0.933 . S
Dy40 O43 2.307 . S
Dy40 O45 2.395 1_655 S
Dy40 O46 2.379 1_655 S
Dy40 O48 2.339 . S
Dy40 O50 2.298 1_655 S
Dy40 O54 2.275 . S
Dy40 C62 2.738 1_655 S
Dy41 O44 2.298 1_455 S
Dy41 O47 2.275 . S
Dy41 O49 2.307 . S
Dy41 O51 2.395 1_455 S
Dy41 O52 2.379 1_455 S
Dy41 O55 2.339 . S
Dy41 C71 2.738 1_455 S
C42 O54 1.254 1_565 S
C42 O55 1.257 1_655 S
O43 Dy40 2.307 . S
O43 C53 1.266 . S
O44 Dy41 2.298 1_655 S
O44 C53 1.236 1_565 S
O45 Dy40 2.395 1_455 S
O45 C62 1.255 . S
O46 Dy40 2.379 1_455 S
O46 C62 1.249 . S
O47 Dy41 2.275 . S
O47 C63 1.254 1_565 S
O48 Dy40 2.339 . S
O48 C63 1.257 1_655 S
O49 Dy41 2.307 . S
O49 C64 1.266 . S
O50 Dy40 2.298 1_455 S
O50 C64 1.236 1_545 S
O51 Dy41 2.395 1_655 S
O51 C71 1.255 . S
O52 Dy41 2.379 1_655 S
O52 C71 1.249 . S
C53 O43 1.266 . S
C53 O44 1.236 1_545 S
O54 Dy40 2.275 . S
O54 C42 1.254 1_545 S
O55 Dy41 2.339 . S
O55 C42 1.257 1_455 S
C56 C59 1.344 . S
C56 C60 1.328 . S
C56 C62 1.516 . S
C57 C58 1.304 . S
C57 C61 1.323 . S
C58 C57 1.304 . S
C58 C59 1.371 . S
C58 H72 0.930 . S
C59 C56 1.344 . S
C59 C58 1.371 . S
C59 H73 0.931 . S
C60 C56 1.328 . S
C60 C61 1.433 . S
C60 H74 0.931 . S
C61 C57 1.323 . S
C61 C60 1.433 . S
C61 H75 0.933 . S
C62 Dy40 2.738 1_455 S
C62 O45 1.255 . S
C62 O46 1.249 . S
C62 C56 1.516 . S
C63 O47 1.254 1_545 S
C63 O48 1.257 1_455 S
C64 O49 1.266 . S
C64 O50 1.236 1_565 S
C65 C68 1.344 . S
C65 C69 1.328 . S
C65 C71 1.516 . S
C66 C67 1.304 . S
C66 C70 1.323 . S
C67 C66 1.304 . S
C67 C68 1.371 . S
C67 H76 0.930 . S
C68 C65 1.344 . S
C68 C67 1.371 . S
C68 H77 0.931 . S
C69 C65 1.328 . S
C69 C70 1.433 . S
C69 H78 0.931 . S
C70 C66 1.323 . S
C70 C69 1.433 . S
C70 H79 0.933 . S
C71 Dy41 2.738 1_655 S
C71 O51 1.255 . S
C71 O52 1.249 . S
C71 C65 1.516 . S
H72 C58 0.930 . S
H73 C59 0.931 . S
H74 C60 0.931 . S
H75 C61 0.933 . S
H76 C67 0.930 . S
H77 C68 0.931 . S
H78 C69 0.931 . S
H79 C70 0.933 . S
Dy80 O83 2.307 . S
Dy80 O85 2.395 1_554 S
Dy80 O86 2.379 . S
Dy80 O88 2.339 . S
Dy80 O90 2.298 . S
Dy80 O94 2.275 1_554 S
Dy80 C102 2.738 . S
Dy81 O84 2.298 . S
Dy81 O87 2.275 1_556 S
Dy81 O89 2.307 . S
Dy81 O91 2.395 1_556 S
Dy81 O92 2.379 . S
Dy81 O95 2.339 . S
Dy81 C111 2.738 . S
C82 O94 1.254 . S
C82 O95 1.257 . S
O83 Dy80 2.307 . S
O83 C93 1.266 . S
O84 Dy81 2.298 . S
O84 C93 1.236 1_556 S
O85 Dy80 2.395 1_556 S
O85 C102 1.255 1_556 S
O86 Dy80 2.379 . S
O86 C102 1.249 . S
O87 Dy81 2.275 1_554 S
O87 C103 1.254 . S
O88 Dy80 2.339 . S
O88 C103 1.257 . S
O89 Dy81 2.307 . S
O89 C104 1.266 . S
O90 Dy80 2.298 . S
O90 C104 1.236 1_554 S
O91 Dy81 2.395 1_554 S
O91 C111 1.255 1_554 S
O92 Dy81 2.379 . S
O92 C111 1.249 . S
C93 O83 1.266 . S
C93 O84 1.236 1_554 S
O94 Dy80 2.275 1_556 S
O94 C82 1.254 . S
O95 Dy81 2.339 . S
O95 C82 1.257 . S
C96 C99 1.344 1_554 S
C96 C100 1.328 . S
C96 C102 1.516 . S
C97 C98 1.304 1_454 S
C97 C101 1.323 1_455 S
C98 C97 1.304 1_656 S
C98 C99 1.371 . S
C98 H112 0.930 . S
C99 C96 1.344 1_556 S
C99 C98 1.371 . S
C99 H113 0.931 . S
C100 C96 1.328 . S
C100 C101 1.433 . S
C100 H114 0.931 . S
C101 C97 1.323 1_655 S
C101 C100 1.433 . S
C101 H115 0.933 1_655 S
C102 Dy80 2.738 . S
C102 O85 1.255 1_554 S
C102 O86 1.249 . S
C102 C96 1.516 . S
C103 O87 1.254 . S
C103 O88 1.257 . S
C104 O89 1.266 . S
C104 O90 1.236 1_556 S
C105 C108 1.344 1_556 S
C105 C109 1.328 . S
C105 C111 1.516 . S
C106 C107 1.304 1_656 S
C106 C110 1.323 1_655 S
C107 C106 1.304 1_454 S
C107 C108 1.371 . S
C107 H116 0.930 . S
C108 C105 1.344 1_554 S
C108 C107 1.371 . S
C108 H117 0.931 . S
C109 C105 1.328 . S
C109 C110 1.433 . S
C109 H118 0.931 . S
C110 C106 1.323 1_455 S
C110 C109 1.433 . S
C110 H119 0.933 1_455 S
C111 Dy81 2.738 . S
C111 O91 1.255 1_556 S
C111 O92 1.249 . S
C111 C105 1.516 . S
H112 C98 0.930 . S
H113 C99 0.931 . S
H114 C100 0.931 . S
H115 C101 0.933 1_455 S
H116 C107 0.930 . S
H117 C108 0.931 . S
H118 C109 0.931 . S
H119 C110 0.933 1_655 S
Dy120 O123 2.307 . S
Dy120 O125 2.395 . S
Dy120 O126 2.379 . S
Dy120 O128 2.339 . S
Dy120 O130 2.298 . S
Dy120 O134 2.275 . S
Dy120 C142 2.738 . S
Dy121 O124 2.298 . S
Dy121 O127 2.275 . S
Dy121 O129 2.307 . S
Dy121 O131 2.395 . S
Dy121 O132 2.379 . S
Dy121 O135 2.339 . S
Dy121 C151 2.738 . S
C122 O134 1.254 . S
C122 O135 1.257 . S
O123 Dy120 2.307 . S
O123 C133 1.266 . S
O124 Dy121 2.298 . S
O124 C133 1.236 . S
O125 Dy120 2.395 . S
O125 C142 1.255 . S
O126 Dy120 2.379 . S
O126 C142 1.249 . S
O127 Dy121 2.275 . S
O127 C143 1.254 . S
O128 Dy120 2.339 . S
O128 C143 1.257 . S
O129 Dy121 2.307 . S
O129 C144 1.266 . S
O130 Dy120 2.298 . S
O130 C144 1.236 . S
O131 Dy121 2.395 . S
O131 C151 1.255 . S
O132 Dy121 2.379 . S
O132 C151 1.249 . S
C133 O123 1.266 . S
C133 O124 1.236 . S
O134 Dy120 2.275 . S
O134 C122 1.254 . S
O135 Dy121 2.339 . S
O135 C122 1.257 . S
C136 C139 1.344 . S
C136 C140 1.328 . S
C136 C142 1.516 . S
C137 C138 1.304 . S
C137 C141 1.323 . S
C138 C137 1.304 . S
C138 C139 1.371 . S
C138 H152 0.930 . S
C139 C136 1.344 . S
C139 C138 1.371 . S
C139 H153 0.931 . S
C140 C136 1.328 . S
C140 C141 1.433 . S
C140 H154 0.931 . S
C141 C137 1.323 . S
C141 C140 1.433 . S
C141 H155 0.933 . S
C142 Dy120 2.738 . S
C142 O125 1.255 . S
C142 O126 1.249 . S
C142 C136 1.516 . S
C143 O127 1.254 . S
C143 O128 1.257 . S
C144 O129 1.266 . S
C144 O130 1.236 . S
C145 C148 1.344 . S
C145 C149 1.328 . S
C145 C151 1.516 . S
C146 C147 1.304 . S
C146 C150 1.323 . S
C147 C146 1.304 . S
C147 C148 1.371 . S
C147 H156 0.930 . S
C148 C145 1.344 . S
C148 C147 1.371 . S
C148 H157 0.931 . S
C149 C145 1.328 . S
C149 C150 1.433 . S
C149 H158 0.931 . S
C150 C146 1.323 . S
C150 C149 1.433 . S
C150 H159 0.933 . S
C151 Dy121 2.738 . S
C151 O131 1.255 . S
C151 O132 1.249 . S
C151 C145 1.516 . S
H152 C138 0.930 . S
H153 C139 0.931 . S
H154 C140 0.931 . S
H155 C141 0.933 . S
H156 C147 0.930 . S
H157 C148 0.931 . S
H158 C149 0.931 . S
H159 C150 0.933 . S
C160 C161 1.369 . S
C160 C162 1.419 . S
C160 H164 0.930 . S
C161 C160 1.369 . S
C161 C170 1.429 1_554 S
C162 C160 1.419 . S
C162 C163 1.363 1_554 S
C162 H165 0.929 . S
C163 C162 1.363 1_556 S
C163 C169 1.428 . S
H164 C160 0.930 . S
H165 C162 0.929 . S
S166 N167 1.613 . S
S166 N168 1.610 . S
N167 S166 1.613 . S
N167 C170 1.350 . S
N168 S166 1.610 . S
N168 C169 1.351 . S
C169 C163 1.428 . S
C169 N168 1.351 . S
C169 C170 1.434 . S
C170 C161 1.429 1_556 S
C170 N167 1.350 . S
C170 C169 1.434 . S
C171 C172 1.369 . S
C171 C173 1.419 . S
C171 H175 0.930 . S
C172 C171 1.369 . S
C172 C181 1.429 1_556 S
C173 C171 1.419 . S
C173 C174 1.363 1_556 S
C173 H176 0.929 . S
C174 C173 1.363 1_554 S
C174 C180 1.428 . S
H175 C171 0.930 . S
H176 C173 0.929 . S
S177 N178 1.613 . S
S177 N179 1.610 . S
N178 S177 1.613 . S
N178 C181 1.350 . S
N179 S177 1.610 . S
N179 C180 1.351 . S
C180 C174 1.428 . S
C180 N179 1.351 . S
C180 C181 1.434 . S
C181 C172 1.429 1_554 S
C181 N178 1.350 . S
C181 C180 1.434 . S
C182 C183 1.369 . S
C182 C184 1.419 . S
C182 H186 0.930 . S
C183 C182 1.369 . S
C183 C192 1.429 . S
C184 C182 1.419 . S
C184 C185 1.363 . S
C184 H187 0.929 . S
C185 C184 1.363 . S
C185 C191 1.428 . S
H186 C182 0.930 . S
H187 C184 0.929 . S
S188 N189 1.613 . S
S188 N190 1.610 . S
N189 S188 1.613 . S
N189 C192 1.350 . S
N190 S188 1.610 . S
N190 C191 1.351 . S
C191 C185 1.428 . S
C191 N190 1.351 . S
C191 C192 1.434 . S
C192 C183 1.429 . S
C192 N189 1.350 . S
C192 C191 1.434 . S
C193 C194 1.369 . S
C193 C195 1.419 . S
C193 H197 0.930 . S
C194 C193 1.369 . S
C194 C203 1.429 . S
C195 C193 1.419 . S
C195 C196 1.363 . S
C195 H198 0.929 . S
C196 C195 1.363 . S
C196 C202 1.428 . S
H197 C193 0.930 . S
H198 C195 0.929 . S
S199 N200 1.613 . S
S199 N201 1.610 . S
N200 S199 1.613 . S
N200 C203 1.350 . S
N201 S199 1.610 . S
N201 C202 1.351 . S
C202 C196 1.428 . S
C202 N201 1.351 . S
C202 C203 1.434 . S
C203 C194 1.429 . S
C203 N200 1.350 . S
C203 C202 1.434 . S
C204 C205 1.369 1_556 S
C204 C206 1.419 1_565 S
C204 H208 0.930 . S
C205 C204 1.369 1_554 S
C205 C214 1.429 . S
C206 C204 1.419 1_545 S
C206 C207 1.363 . S
C206 H209 0.929 . S
C207 C206 1.363 . S
C207 C213 1.428 1_556 S
H208 C204 0.930 . S
H209 C206 0.929 . S
S210 N211 1.613 1_545 S
S210 N212 1.610 . S
N211 S210 1.613 1_565 S
N211 C214 1.350 . S
N212 S210 1.610 . S
N212 C213 1.351 . S
C213 C207 1.428 1_554 S
C213 N212 1.351 . S
C213 C214 1.434 1_545 S
C214 C205 1.429 . S
C214 N211 1.350 . S
C214 C213 1.434 1_565 S
C215 C216 1.369 . S
C215 C217 1.419 . S
C215 H219 0.930 . S
C216 C215 1.369 . S
C216 C225 1.429 1_565 S
C217 C215 1.419 . S
C217 C218 1.363 1_565 S
C217 H220 0.929 . S
C218 C217 1.363 1_545 S
C218 C224 1.428 . S
H219 C215 0.930 . S
H220 C217 0.929 . S
S221 N222 1.613 . S
S221 N223 1.610 . S
N222 S221 1.613 . S
N222 C225 1.350 . S
N223 S221 1.610 . S
N223 C224 1.351 . S
C224 C218 1.428 . S
C224 N223 1.351 . S
C224 C225 1.434 . S
C225 C216 1.429 1_545 S
C225 N222 1.350 . S
C225 C224 1.434 . S
C226 C227 1.369 . S
C226 C228 1.419 . S
C226 H230 0.930 . S
C227 C226 1.369 . S
C227 C236 1.429 1_454 S
C228 C226 1.419 . S
C228 C229 1.363 1_454 S
C228 H231 0.929 . S
C229 C228 1.363 1_656 S
C229 C235 1.428 . S
H230 C226 0.930 . S
H231 C228 0.929 . S
S232 N233 1.613 . S
S232 N234 1.610 . S
N233 S232 1.613 . S
N233 C236 1.350 . S
N234 S232 1.610 . S
N234 C235 1.351 . S
C235 C229 1.428 . S
C235 N234 1.351 . S
C235 C236 1.434 . S
C236 C227 1.429 1_656 S
C236 N233 1.350 . S
C236 C235 1.434 . S
C237 C238 1.369 . S
C237 C239 1.419 1_455 S
C237 H241 0.930 . S
C238 C237 1.369 . S
C238 C247 1.429 . S
C239 C237 1.419 1_655 S
C239 C240 1.363 . S
C239 H242 0.929 . S
C240 C239 1.363 . S
C240 C246 1.428 . S
H241 C237 0.930 . S
H242 C239 0.929 . S
S243 N244 1.613 1_655 S
S243 N245 1.610 . S
N244 S243 1.613 1_455 S
N244 C247 1.350 . S
N245 S243 1.610 . S
N245 C246 1.351 . S
C246 C240 1.428 . S
C246 N245 1.351 . S
C246 C247 1.434 1_655 S
C247 C238 1.429 . S
C247 N244 1.350 . S
C247 C246 1.434 1_455 S
C248 C249 1.369 . S
C248 C250 1.419 . S
C248 H252 0.930 . S
C249 C248 1.369 . S
C249 C258 1.429 1_645 S
C250 C248 1.419 . S
C250 C251 1.376 . S
C250 H253 0.929 . S
C251 C250 1.376 . S
C251 C257 1.418 1_645 S
H252 C248 0.930 . S
H253 C250 0.929 . S
S254 N255 1.613 . S
S254 N256 1.610 . S
N255 S254 1.613 . S
N255 C258 1.350 . S
N256 S254 1.610 . S
N256 C257 1.351 . S
C257 C251 1.418 1_465 S
C257 N256 1.351 . S
C257 C258 1.434 . S
C258 C249 1.429 1_465 S
C258 N255 1.350 . S
C258 C257 1.434 . S
C259 C260 1.369 1_545 S
C259 C261 1.419 . S
C259 H263 0.930 . S
C260 C259 1.369 1_565 S
C260 C269 1.429 1_455 S
C261 C259 1.419 . S
C261 C262 1.363 1_545 S
C261 H264 0.929 . S
C262 C261 1.363 1_565 S
C262 C268 1.428 1_455 S
H263 C259 0.930 . S
H264 C261 0.929 . S
S265 N266 1.613 . S
S265 N267 1.610 . S
N266 S265 1.613 . S
N266 C269 1.350 . S
N267 S265 1.610 . S
N267 C268 1.351 . S
C268 C262 1.428 1_655 S
C268 N267 1.351 . S
C268 C269 1.434 . S
C269 C260 1.429 1_655 S
C269 N266 1.350 . S
C269 C268 1.434 . S
C270 C271 1.369 . S
C270 C272 1.419 . S
C270 H274 0.930 . S
C271 C270 1.369 . S
C271 C280 1.429 . S
C272 C270 1.419 . S
C272 C273 1.363 . S
C272 H275 0.929 . S
C273 C272 1.363 . S
C273 C279 1.428 . S
H274 C270 0.930 . S
H275 C272 0.929 . S
S276 N277 1.613 . S
S276 N278 1.610 . S
N277 S276 1.613 . S
N277 C280 1.350 . S
N278 S276 1.610 . S
N278 C279 1.351 . S
C279 C273 1.428 . S
C279 N278 1.351 . S
C279 C280 1.434 . S
C280 C271 1.429 . S
C280 N277 1.350 . S
C280 C279 1.434 . S
C281 C282 1.369 . S
C281 C283 1.419 . S
C281 H285 0.930 . S
C282 C281 1.369 . S
C282 C291 1.429 . S
C283 C281 1.419 . S
C283 C284 1.363 . S
C283 H286 0.929 . S
C284 C283 1.363 . S
C284 C290 1.428 . S
H285 C281 0.930 . S
H286 C283 0.929 . S
S287 N288 1.613 . S
S287 N289 1.610 . S
N288 S287 1.613 . S
N288 C291 1.350 . S
N289 S287 1.610 . S
N289 C290 1.351 . S
C290 C284 1.428 . S
C290 N289 1.351 . S
C290 C291 1.434 . S
C291 C282 1.429 . S
C291 N288 1.350 . S
C291 C290 1.434 . S
C161 C93 3.733 . S
C163 C24 3.734 . S
C172 C104 3.733 . S
C174 C13 3.734 . S
C183 C57 0.724 . S
C185 C146 0.751 . S
C194 C66 0.749 . S
C196 C137 0.731 . S
C205 C17 0.825 . S
C207 C26 0.837 . S
C216 C64 4.771 . S
C218 C53 4.772 . S
C227 C97 0.824 . S
C229 C106 0.838 . S
C238 C133 4.772 . S
C240 C144 4.771 . S
C249 C42 1.470 1_545 S
C251 C23 1.463 1_655 S
C260 C2 1.470 1_455 S
C262 C63 1.473 1_565 S
C271 C122 1.466 . S
C273 C103 1.473 . S
C282 C143 1.467 . S
C284 C82 1.472 . S
