# Generated by pormake.
# Topology zfa, (5)-cn, num edge types: 1
# Building blocks:
#     Node 0, Type 0, BuildingBlock: BEQFEK_clean_sbu_0, # of connection points: 5
#     Node 1, Type 0, BuildingBlock: BEQFEK_clean_sbu_0, # of connection points: 5
#     Node 2, Type 0, BuildingBlock: BEQFEK_clean_sbu_0, # of connection points: 5
#     Node 3, Type 0, BuildingBlock: BEQFEK_clean_sbu_0, # of connection points: 5
#     Node 4, Type 0, BuildingBlock: BEQFEK_clean_sbu_0, # of connection points: 5
#     Node 5, Type 0, BuildingBlock: BEQFEK_clean_sbu_0, # of connection points: 5
#     Node 6, Type 0, BuildingBlock: BEQFEK_clean_sbu_0, # of connection points: 5
#     Node 7, Type 0, BuildingBlock: BEQFEK_clean_sbu_0, # of connection points: 5
#     Edge 8, Type (0, 0), BuildingBlock: XUDNAN_clean_linker_2, # of connection points: 2
#     Edge 9, Type (0, 0), BuildingBlock: XUDNAN_clean_linker_2, # of connection points: 2
#     Edge 10, Type (0, 0), BuildingBlock: XUDNAN_clean_linker_2, # of connection points: 2
#     Edge 11, Type (0, 0), BuildingBlock: XUDNAN_clean_linker_2, # of connection points: 2
#     Edge 12, Type (0, 0), BuildingBlock: XUDNAN_clean_linker_2, # of connection points: 2
#     Edge 13, Type (0, 0), BuildingBlock: XUDNAN_clean_linker_2, # of connection points: 2
#     Edge 14, Type (0, 0), BuildingBlock: XUDNAN_clean_linker_2, # of connection points: 2
#     Edge 15, Type (0, 0), BuildingBlock: XUDNAN_clean_linker_2, # of connection points: 2
#     Edge 16, Type (0, 0), BuildingBlock: XUDNAN_clean_linker_2, # of connection points: 2
#     Edge 17, Type (0, 0), BuildingBlock: XUDNAN_clean_linker_2, # of connection points: 2
#     Edge 18, Type (0, 0), BuildingBlock: XUDNAN_clean_linker_2, # of connection points: 2
#     Edge 19, Type (0, 0), BuildingBlock: XUDNAN_clean_linker_2, # of connection points: 2
#     Edge 20, Type (0, 0), BuildingBlock: XUDNAN_clean_linker_2, # of connection points: 2
#     Edge 21, Type (0, 0), BuildingBlock: XUDNAN_clean_linker_2, # of connection points: 2
#     Edge 22, Type (0, 0), BuildingBlock: XUDNAN_clean_linker_2, # of connection points: 2
#     Edge 23, Type (0, 0), BuildingBlock: XUDNAN_clean_linker_2, # of connection points: 2
#     Edge 24, Type (0, 0), BuildingBlock: XUDNAN_clean_linker_2, # of connection points: 2
#     Edge 25, Type (0, 0), BuildingBlock: XUDNAN_clean_linker_2, # of connection points: 2
#     Edge 26, Type (0, 0), BuildingBlock: XUDNAN_clean_linker_2, # of connection points: 2
#     Edge 27, Type (0, 0), BuildingBlock: XUDNAN_clean_linker_2, # of connection points: 2
# Relax obj value: 0.369
# Max RMSD: 0.183
# Mean RMSD: 0.183
data_MOF--net-zfa--node1-BEQFEK_clean_sbu_0--edge1-XUDNAN_clean_linker_2
_symmetry_space_group_name_H-M    P1
_symmetry_Int_Tables_number       1
_symmetry_cell_setting            triclinic
loop_
_symmetry_equiv_pos_as_xyz
'x, y, z'
_cell_length_a     30.98218
_cell_length_b     31.112189
_cell_length_c     37.558602
_cell_angle_alpha  89.795705
_cell_angle_beta   89.749732
_cell_angle_gamma 89.987214
loop_
_atom_site_label
_atom_site_type_symbol
_atom_site_fract_x
_atom_site_fract_y
_atom_site_fract_z
_atom_type_partial_charge
Co0 Co 0.17813 0.22247 0.32614 0.0
Co1 Co 0.18988 0.32134 0.33591 0.0
C2 C 0.20128 0.26148 0.39697 0.0
O3 O 0.1912 0.22906 0.37818 0.0
O4 O 0.20251 0.29908 0.38373 0.0
C5 C 0.13083 0.15039 0.34426 0.0
O6 O 0.12589 0.17425 0.37276 0.0
C7 C 0.1747 0.40634 0.36551 0.0
C8 C 0.17049 0.44559 0.31671 0.0
C9 C 0.16128 0.44624 0.35292 0.0
N10 N 0.18802 0.38259 0.33774 0.0
N11 N 0.18732 0.40689 0.30887 0.0
C12 C 0.17277 0.38988 0.40302 0.0
H13 H 0.14771 0.36452 0.4053 0.0
H14 H 0.1659 0.41611 0.42217 0.0
H15 H 0.20425 0.37518 0.41 0.0
C16 C 0.09204 0.25233 0.29779 0.0
N17 N 0.13188 0.25984 0.3113 0.0
N18 N 0.13502 0.30076 0.31929 0.0
C19 C 0.09652 0.31993 0.31312 0.0
C20 C 0.06784 0.29014 0.2987 0.0
C21 C 0.07801 0.21039 0.28238 0.0
H22 H 0.10622 0.19239 0.27201 0.0
H23 H 0.06172 0.19113 0.30337 0.0
H24 H 0.05474 0.21559 0.26039 0.0
O25 O 0.23429 0.23271 0.30024 0.0
O26 O 0.23935 0.3039 0.30465 0.0
H27 H 0.0983 0.38816 0.3063 0.0
H28 H 0.05011 0.36884 0.32835 0.0
C29 C 0.08542 0.36422 0.3255 0.0
H30 H 0.09996 0.36956 0.35186 0.0
H31 H 0.19425 0.39574 0.28331 0.0
O32 O 0.15628 0.16326 0.31979 0.0
C33 C 0.25434 0.26787 0.29413 0.0
Co34 Co 0.34329 0.67373 0.82596 0.0
Co35 Co 0.24411 0.67895 0.8409 0.0
C36 C 0.30719 0.68307 0.90019 0.0
O37 O 0.33896 0.68169 0.8787 0.0
O38 O 0.26851 0.68154 0.88926 0.0
C39 C 0.41798 0.6277 0.83877 0.0
O40 O 0.39431 0.61843 0.86684 0.0
C41 C 0.16095 0.65233 0.87038 0.0
C42 C 0.11542 0.67731 0.83028 0.0
C43 C 0.11774 0.65201 0.86073 0.0
N44 N 0.18301 0.67591 0.84636 0.0
N45 N 0.15542 0.69188 0.8231 0.0
C46 C 0.18197 0.62609 0.89905 0.0
H47 H 0.21639 0.62014 0.89264 0.0
H48 H 0.16548 0.59473 0.90264 0.0
H49 H 0.18005 0.6439 0.92455 0.0
C50 C 0.31559 0.58868 0.79443 0.0
N51 N 0.30672 0.62704 0.80992 0.0
N52 N 0.2651 0.62876 0.81694 0.0
C53 C 0.24643 0.5915 0.80652 0.0
C54 C 0.27796 0.5645 0.79224 0.0
C55 C 0.35878 0.57565 0.78016 0.0
H56 H 0.37661 0.60408 0.77009 0.0
H57 H 0.37747 0.55994 0.80168 0.0
H58 H 0.35526 0.55219 0.75817 0.0
O59 O 0.32917 0.73083 0.80321 0.0
O60 O 0.25846 0.73304 0.814 0.0
H61 H 0.17917 0.60735 0.80336 0.0
H62 H 0.1897 0.55065 0.7997 0.0
C63 C 0.19987 0.58066 0.81282 0.0
H64 H 0.19453 0.57589 0.84164 0.0
H65 H 0.16432 0.71033 0.801 0.0
O66 O 0.40372 0.65514 0.81651 0.0
C67 C 0.29277 0.75004 0.80134 0.0
Co68 Co 0.87671 0.85686 0.33384 0.0
Co69 Co 0.87299 0.75721 0.33623 0.0
C70 C 0.87396 0.81338 0.40288 0.0
O71 O 0.87532 0.84867 0.38576 0.0
O72 O 0.87321 0.77727 0.38696 0.0
C73 C 0.89257 0.94671 0.34516 0.0
O74 O 0.88252 0.93829 0.37848 0.0
C75 C 0.91642 0.67991 0.35696 0.0
C76 C 0.8806 0.62793 0.33026 0.0
C77 C 0.91593 0.63607 0.35171 0.0
N78 N 0.88317 0.69727 0.33926 0.0
N79 N 0.86148 0.66609 0.32358 0.0
C80 C 0.94738 0.70499 0.37934 0.0
H81 H 0.93886 0.70018 0.40779 0.0
H82 H 0.94576 0.73975 0.37299 0.0
H83 H 0.98095 0.69357 0.37561 0.0
C84 C 0.96257 0.83808 0.3025 0.0
N85 N 0.92324 0.82514 0.31373 0.0
N86 N 0.92048 0.78319 0.31096 0.0
C87 C 0.95765 0.76834 0.29616 0.0
C88 C 0.98586 0.80265 0.29061 0.0
C89 C 0.97945 0.88274 0.30744 0.0
H90 H 0.9674 0.89601 0.33294 0.0
H91 H 1.01524 0.88349 0.30781 0.0
H92 H 0.96786 0.90328 0.28527 0.0
O93 O 0.81896 0.84103 0.31541 0.0
O94 O 0.81416 0.7699 0.31554 0.0
H95 H 0.98555 0.72082 0.26168 0.0
H96 H 0.98494 0.70713 0.30795 0.0
C97 C 0.96603 0.72254 0.2865 0.0
H98 H 0.93531 0.70491 0.28278 0.0
H99 H 0.83432 0.67093 0.30771 0.0
O100 O 0.888 0.91752 0.32197 0.0
C101 C 0.79734 0.80681 0.31003 0.0
Co102 Co 0.71953 0.37633 0.8188 0.0
Co103 Co 0.81494 0.36624 0.84392 0.0
C104 C 0.74213 0.36622 0.8962 0.0
O105 O 0.71487 0.3718 0.87139 0.0
O106 O 0.78232 0.36288 0.88963 0.0
C107 C 0.62912 0.39553 0.82102 0.0
O108 O 0.63054 0.37594 0.85203 0.0
C109 C 0.89288 0.39457 0.87931 0.0
C110 C 0.94357 0.36825 0.84423 0.0
C111 C 0.9369 0.39625 0.87244 0.0
N112 N 0.87454 0.36813 0.85556 0.0
N113 N 0.90519 0.35112 0.83557 0.0
C114 C 0.86763 0.42258 0.90425 0.0
H115 H 0.83475 0.42847 0.89376 0.0
H116 H 0.88405 0.45373 0.90884 0.0
H117 H 0.86446 0.40579 0.93024 0.0
C118 C 0.75104 0.46134 0.79588 0.0
N119 N 0.75901 0.42108 0.80756 0.0
N120 N 0.7995 0.41821 0.8177 0.0
C121 C 0.8186 0.45702 0.81186 0.0
C122 C 0.78812 0.48604 0.7989 0.0
C123 C 0.70765 0.47694 0.78415 0.0
H124 H 0.69466 0.45474 0.76383 0.0
H125 H 0.6853 0.47736 0.80731 0.0
H126 H 0.70944 0.50966 0.77237 0.0
O127 O 0.73619 0.31952 0.79828 0.0
O128 O 0.80357 0.31143 0.81717 0.0
H129 H 0.87673 0.49345 0.80242 0.0
H130 H 0.86673 0.47966 0.84785 0.0
C131 C 0.8645 0.46767 0.82021 0.0
H132 H 0.88515 0.43904 0.81663 0.0
H133 H 0.89947 0.33089 0.814 0.0
O134 O 0.66227 0.39482 0.801 0.0
C135 C 0.77061 0.29717 0.8007 0.0
Co136 Co 0.66941 0.34422 0.22585 0.0
Co137 Co 0.68708 0.24796 0.20565 0.0
C138 C 0.68127 0.31489 0.14961 0.0
O139 O 0.67254 0.34318 0.17284 0.0
O140 O 0.68882 0.27622 0.15845 0.0
C141 C 0.60631 0.40421 0.21755 0.0
O142 O 0.59573 0.37246 0.19633 0.0
C143 C 0.66678 0.16806 0.16987 0.0
C144 C 0.68978 0.11855 0.2074 0.0
C145 C 0.66674 0.12414 0.17616 0.0
N146 N 0.68795 0.18759 0.19648 0.0
N147 N 0.70261 0.15772 0.21841 0.0
C148 C 0.64604 0.19145 0.13945 0.0
H149 H 0.62693 0.21905 0.14942 0.0
H150 H 0.6254 0.17007 0.12323 0.0
H151 H 0.67178 0.2046 0.12191 0.0
C152 C 0.59293 0.30514 0.26078 0.0
N153 N 0.63128 0.30091 0.24395 0.0
N154 N 0.6343 0.26179 0.2311 0.0
C155 C 0.59635 0.24124 0.23763 0.0
C156 C 0.56842 0.2684 0.25601 0.0
C157 C 0.57955 0.34301 0.28265 0.0
H158 H 0.60729 0.36443 0.2881 0.0
H159 H 0.55344 0.36075 0.26909 0.0
H160 H 0.5659 0.33153 0.30835 0.0
O161 O 0.72997 0.33609 0.24334 0.0
O162 O 0.74151 0.26666 0.23168 0.0
H163 H 0.55483 0.18557 0.23647 0.0
H164 H 0.57797 0.20133 0.1945 0.0
C165 C 0.58441 0.19819 0.22334 0.0
H166 H 0.61107 0.17515 0.22768 0.0
H167 H 0.71896 0.16423 0.24202 0.0
O168 O 0.64136 0.40135 0.23515 0.0
C169 C 0.75456 0.30294 0.24359 0.0
Co170 Co 0.22153 0.17293 0.71502 0.0
Co171 Co 0.3225 0.18047 0.71095 0.0
C172 C 0.26459 0.18797 0.64606 0.0
O173 O 0.23002 0.17848 0.66267 0.0
O174 O 0.30048 0.19052 0.66222 0.0
C175 C 0.13721 0.14181 0.70034 0.0
O176 O 0.15208 0.14131 0.66755 0.0
C177 C 0.40345 0.15284 0.67895 0.0
C178 C 0.44839 0.15452 0.72421 0.0
C179 C 0.44414 0.13941 0.68967 0.0
N180 N 0.3838 0.17264 0.70639 0.0
N181 N 0.41151 0.17506 0.73295 0.0
C182 C 0.38272 0.14549 0.64352 0.0
H183 H 0.35433 0.12408 0.64681 0.0
H184 H 0.40567 0.13155 0.62398 0.0
H185 H 0.37143 0.17667 0.63266 0.0
C186 C 0.24337 0.08691 0.74422 0.0
N187 N 0.25533 0.12675 0.73368 0.0
N188 N 0.2976 0.1282 0.73073 0.0
C189 C 0.31355 0.08853 0.73849 0.0
C190 C 0.27957 0.06075 0.74686 0.0
C191 C 0.19771 0.07328 0.75079 0.0
H192 H 0.18164 0.06782 0.7249 0.0
H193 H 0.19625 0.04309 0.76658 0.0
H194 H 0.18028 0.09869 0.7656 0.0
O195 O 0.23627 0.2303 0.73505 0.0
O196 O 0.30781 0.23544 0.73744 0.0
H197 H 0.38064 0.09698 0.74901 0.0
H198 H 0.36571 0.04194 0.74089 0.0
C199 C 0.35956 0.07574 0.73314 0.0
H200 H 0.36775 0.07944 0.70467 0.0
H201 H 0.40395 0.18724 0.75807 0.0
O202 O 0.16008 0.15877 0.72455 0.0
C203 C 0.2703 0.25169 0.74227 0.0
Co204 Co 0.37428 0.72912 0.23043 0.0
Co205 Co 0.37914 0.81962 0.19429 0.0
C206 C 0.3729 0.74426 0.14943 0.0
O207 O 0.36966 0.72148 0.17756 0.0
O208 O 0.3792 0.78451 0.15111 0.0
C209 C 0.42546 0.65871 0.23271 0.0
O210 O 0.44592 0.68539 0.21134 0.0
C211 C 0.41032 0.89378 0.15363 0.0
C212 C 0.40354 0.94535 0.19335 0.0
C213 C 0.4227 0.93584 0.16084 0.0
N214 N 0.38747 0.87863 0.18151 0.0
N215 N 0.38201 0.9102 0.20449 0.0
C216 C 0.42105 0.86772 0.12129 0.0
H217 H 0.39111 0.85279 0.11099 0.0
H218 H 0.44353 0.84135 0.12841 0.0
H219 H 0.43549 0.88793 0.09994 0.0
C220 C 0.45655 0.76123 0.26373 0.0
N221 N 0.42108 0.76659 0.24314 0.0
N222 N 0.42515 0.80258 0.22502 0.0
C223 C 0.46404 0.82009 0.23226 0.0
C224 C 0.48526 0.79463 0.25711 0.0
C225 C 0.46244 0.72598 0.29046 0.0
H226 H 0.43098 0.71121 0.29759 0.0
H227 H 0.48423 0.70112 0.27934 0.0
H228 H 0.478 0.73881 0.31478 0.0
O229 O 0.31619 0.75069 0.24663 0.0
O230 O 0.32058 0.81281 0.21733 0.0
H231 H 0.46784 0.88756 0.22193 0.0
H232 H 0.5184 0.85977 0.2159 0.0
C233 C 0.48298 0.85741 0.21246 0.0
H234 H 0.47662 0.85347 0.1838 0.0
H235 H 0.36703 0.90659 0.22926 0.0
O236 O 0.38967 0.67026 0.24652 0.0
C237 C 0.29913 0.78606 0.23641 0.0
Co238 Co 0.85829 0.87343 0.7336 0.0
Co239 Co 0.76064 0.86609 0.71416 0.0
C240 C 0.83182 0.85741 0.6592 0.0
O241 O 0.86131 0.86198 0.68226 0.0
O242 O 0.792 0.85921 0.66768 0.0
C243 C 0.94802 0.89355 0.72902 0.0
O244 O 0.94551 0.87399 0.69817 0.0
C245 C 0.68528 0.90143 0.67933 0.0
C246 C 0.6311 0.86924 0.70689 0.0
C247 C 0.64066 0.90072 0.68184 0.0
N248 N 0.70133 0.87244 0.70234 0.0
N249 N 0.6688 0.85264 0.71827 0.0
C250 C 0.71266 0.92896 0.65544 0.0
H251 H 0.73647 0.94709 0.67142 0.0
H252 H 0.69303 0.95144 0.63924 0.0
H253 H 0.73118 0.90792 0.63715 0.0
C254 C 0.82899 0.96321 0.75019 0.0
N255 N 0.82103 0.92153 0.74225 0.0
N256 N 0.77928 0.91631 0.73857 0.0
C257 C 0.75916 0.95349 0.74681 0.0
C258 C 0.78987 0.98515 0.7533 0.0
C259 C 0.8732 0.98257 0.74995 0.0
H260 H 0.88934 0.97492 0.7755 0.0
H261 H 0.89251 0.96858 0.72796 0.0
H262 H 0.87223 1.01794 0.74642 0.0
O263 O 0.83965 0.81769 0.75699 0.0
O264 O 0.76981 0.81346 0.74341 0.0
H265 H 0.6966 0.92677 0.75841 0.0
H266 H 0.70382 0.98206 0.77217 0.0
C267 C 0.71139 0.95808 0.75123 0.0
H268 H 0.69723 0.96967 0.72612 0.0
H269 H 0.67236 0.82921 0.73798 0.0
O270 O 0.916 0.89178 0.75022 0.0
C271 C 0.80351 0.79788 0.758 0.0
H272 H 1.00021 0.63908 0.33235 0.0
H273 H 0.90721 0.56324 0.39168 0.0
H274 H 0.96502 0.51148 0.40762 0.0
H275 H 0.05482 0.55402 0.29456 0.0
H276 H 0.10754 0.57842 0.2964 0.0
H277 H 0.06026 0.61174 0.29411 0.0
H278 H 0.08384 0.65091 0.35153 0.0
H279 H 0.13118 0.61738 0.35413 0.0
H280 H 0.09436 0.6202 0.39135 0.0
H281 H 1.03018 0.4654 0.4115 0.0
H282 H 0.09497 0.42387 0.39866 0.0
H283 H 0.14767 0.53088 0.33804 0.0
C284 C 0.99238 0.61225 0.34956 0.0
C285 C 0.94982 0.60541 0.36168 0.0
C286 C 0.93997 0.56898 0.38266 0.0
C287 C 0.97259 0.53983 0.39204 0.0
C288 C 1.01458 0.54785 0.38008 0.0
C289 C 1.02446 0.58305 0.35908 0.0
C290 C 0.07091 0.58199 0.34643 0.0
C291 C 0.07349 0.58147 0.30546 0.0
C292 C 0.09658 0.61987 0.3618 0.0
C293 C 0.08527 0.53968 0.36245 0.0
C294 C 0.05256 0.52107 0.3824 0.0
C295 C 0.05652 0.48013 0.39689 0.0
C296 C 0.09416 0.45686 0.38977 0.0
C297 C 0.12764 0.47457 0.36836 0.0
C298 C 0.12335 0.51701 0.35541 0.0
H299 H 0.97147 0.44985 0.82359 0.0
H300 H 0.96272 0.42769 0.93734 0.0
H301 H 1.00431 0.49485 0.94793 0.0
H302 H 0.07809 0.49243 0.8207 0.0
H303 H 0.06541 0.53119 0.78654 0.0
H304 H 0.03579 0.48155 0.78916 0.0
H305 H 0.96415 0.5247 0.79284 0.0
H306 H 0.99366 0.57454 0.79093 0.0
H307 H 0.95712 0.56411 0.82742 0.0
H308 H 0.04895 0.56416 0.94486 0.0
H309 H 0.09424 0.62708 0.92856 0.0
H310 H 0.06946 0.60309 0.8169 0.0
C311 C 0.9789 0.45877 0.85074 0.0
C312 C 0.96476 0.43352 0.87973 0.0
C313 C 0.97393 0.44664 0.91489 0.0
C314 C 0.99717 0.48473 0.92106 0.0
C315 C 1.01016 0.50933 0.89172 0.0
C316 C 1.00122 0.49672 0.85728 0.0
C317 C 1.01823 0.52848 0.83019 0.0
C318 C 0.05135 0.50713 0.8052 0.0
C319 C 0.98108 0.54917 0.80912 0.0
C320 C 0.03934 0.56055 0.85461 0.0
C321 C 0.0342 0.54931 0.89004 0.0
C322 C 0.05291 0.57333 0.91722 0.0
C323 C 0.07853 0.60892 0.90777 0.0
C324 C 0.08522 0.61978 0.87154 0.0
C325 C 0.06432 0.59595 0.84485 0.0
H326 H 0.43524 1.02241 0.15945 0.0
H327 H 0.49896 0.90165 0.13572 0.0
H328 H 0.56755 0.93938 0.12761 0.0
H329 H 0.50516 0.09297 0.09975 0.0
H330 H 0.50479 0.1355 0.13222 0.0
H331 H 0.45865 0.10058 0.12805 0.0
H332 H 0.46367 0.08218 0.19526 0.0
H333 H 0.50995 0.11649 0.19951 0.0
H334 H 0.51341 0.06085 0.21274 0.0
H335 H 0.63183 0.987 0.13528 0.0
H336 H 0.68479 0.04288 0.15275 0.0
H337 H 0.57998 0.13253 0.16985 0.0
C338 C 0.46325 1.00427 0.15091 0.0
C339 C 0.46105 0.95921 0.14709 0.0
C340 C 0.49886 0.93629 0.13731 0.0
C341 C 0.53843 0.95749 0.133 0.0
C342 C 0.5398 1.00168 0.13833 0.0
C343 C 0.50303 1.025 0.14646 0.0
C344 C 0.51396 0.07126 0.15487 0.0
C345 C 0.49449 0.10188 0.12705 0.0
C346 C 0.4994 0.08336 0.19283 0.0
C347 C 0.56265 0.06972 0.15179 0.0
C348 C 0.57706 1.02945 0.142 0.0
C349 C 0.62096 1.01911 0.14174 0.0
C350 C 0.65078 0.05083 0.15177 0.0
C351 C 0.63646 0.09229 0.16145 0.0
C352 C 0.59192 0.10171 0.16114 0.0
H353 H 0.64831 0.98805 0.685 0.0
H354 H 0.56182 0.88623 0.65258 0.0
H355 H 0.50503 0.94026 0.64054 0.0
H356 H 0.57435 0.04094 0.73479 0.0
H357 H 0.59301 0.09464 0.72518 0.0
H358 H 0.62997 0.05025 0.72267 0.0
H359 H 0.64903 0.07041 0.65766 0.0
H360 H 0.61231 0.1153 0.65987 0.0
H361 H 0.60662 0.07579 0.62522 0.0
H362 H 0.45546 1.00239 0.64094 0.0
H363 H 0.41446 0.06657 0.65673 0.0
H364 H 0.53185 0.12895 0.69223 0.0
C365 C 0.61808 0.97722 0.67407 0.0
C366 C 0.6097 0.93309 0.66881 0.0
C367 C 0.56899 0.92003 0.65601 0.0
C368 C 0.53672 0.95049 0.64902 0.0
C369 C 0.54567 0.99374 0.65544 0.0
C370 C 0.58536 1.00712 0.66779 0.0
C371 C 0.58469 0.05425 0.67794 0.0
C372 C 0.59616 0.06033 0.71748 0.0
C373 C 0.61496 0.08048 0.65371 0.0
C374 C 0.53782 0.0649 0.67078 0.0
C375 C 0.51633 1.02982 0.65688 0.0
C376 C 0.47214 1.03046 0.6508 0.0
C377 C 0.44909 0.06754 0.65967 0.0
C378 C 0.4701 0.10373 0.6746 0.0
C379 C 0.51517 0.10234 0.67989 0.0
H380 H 0.50839 0.21885 0.29342 0.0
H381 H 0.52032 0.31789 0.21271 0.0
H382 H 0.44103 0.32514 0.21054 0.0
H383 H 0.40971 0.16934 0.25522 0.0
H384 H 0.38662 0.15733 0.29826 0.0
H385 H 0.44443 0.15852 0.29258 0.0
H386 H 0.45051 0.21453 0.34315 0.0
H387 H 0.39282 0.21345 0.34903 0.0
H388 H 0.41989 0.26371 0.34037 0.0
H389 H 0.36145 0.32728 0.22154 0.0
H390 H 0.28585 0.32087 0.2424 0.0
H391 H 0.3227 0.21598 0.31214 0.0
C392 C 0.49407 0.24158 0.27505 0.0
C393 C 0.5204 0.26854 0.25368 0.0
C394 C 0.50064 0.29781 0.22986 0.0
C395 C 0.45565 0.30185 0.22824 0.0
C396 C 0.43045 0.27562 0.25009 0.0
C397 C 0.44878 0.24558 0.2727 0.0
C398 C 0.41391 0.222 0.29369 0.0
C399 C 0.41366 0.17394 0.28438 0.0
C400 C 0.41964 0.22885 0.33394 0.0
C401 C 0.37345 0.24433 0.28005 0.0
C402 C 0.38388 0.27518 0.25491 0.0
C403 C 0.35271 0.30255 0.24057 0.0
C404 C 0.30985 0.29868 0.25251 0.0
C405 C 0.29821 0.2672 0.27805 0.0
C406 C 0.33043 0.23929 0.2916 0.0
H407 H 0.32821 1.00568 0.78954 0.0
H408 H 0.2311 1.00663 0.70671 0.0
H409 H 0.22595 0.92773 0.71023 0.0
H410 H 0.38227 0.90688 0.75779 0.0
H411 H 0.39434 0.88811 0.8021 0.0
H412 H 0.39078 0.94496 0.79313 0.0
H413 H 0.33323 0.95269 0.8429 0.0
H414 H 0.33656 0.89592 0.85197 0.0
H415 H 0.28522 0.92001 0.84151 0.0
H416 H 0.22644 0.84943 0.7261 0.0
H417 H 0.23709 0.77597 0.74997 0.0
H418 H 0.3394 0.82273 0.81792 0.0
C419 C 0.3064 0.98916 0.77179 0.0
C420 C 0.27962 1.0126 0.74814 0.0
C421 C 0.25126 0.98966 0.72558 0.0
C422 C 0.24832 0.9447 0.72719 0.0
C423 C 0.27466 0.92261 0.75099 0.0
C424 C 0.30369 0.94388 0.77252 0.0
C425 C 0.32837 0.91199 0.79557 0.0
C426 C 0.37682 0.91305 0.78661 0.0
C427 C 0.32035 0.92068 0.83534 0.0
C428 C 0.30801 0.86972 0.78413 0.0
C429 C 0.27689 0.87677 0.75851 0.0
C430 C 0.25135 0.84339 0.7456 0.0
C431 C 0.25759 0.80177 0.75927 0.0
C432 C 0.2897 0.79351 0.78507 0.0
C433 C 0.31551 0.82795 0.79739 0.0
H434 H 0.55343 0.73683 0.26022 0.0
H435 H 0.51731 0.86806 0.28514 0.0
H436 H 0.59295 0.88451 0.30007 0.0
H437 H 0.63463 0.72667 0.33242 0.0
H438 H 0.67057 0.69427 0.30585 0.0
H439 H 0.61318 0.69199 0.29845 0.0
H440 H 0.62558 0.71097 0.23217 0.0
H441 H 0.68295 0.71407 0.23935 0.0
H442 H 0.65458 0.75931 0.22055 0.0
H443 H 0.6719 0.88923 0.30643 0.0
H444 H 0.74987 0.88016 0.31337 0.0
H445 H 0.73769 0.74419 0.28894 0.0
C446 C 0.56137 0.76867 0.2697 0.0
C447 C 0.52955 0.8014 0.27127 0.0
C448 C 0.54126 0.84276 0.28339 0.0
C449 C 0.58413 0.85239 0.29188 0.0
C450 C 0.615 0.82006 0.28878 0.0
C451 C 0.60426 0.77875 0.2788 0.0
C452 C 0.64429 0.75026 0.27789 0.0
C453 C 0.64043 0.71363 0.30529 0.0
C454 C 0.65231 0.73262 0.24024 0.0
C455 C 0.67913 0.78232 0.2884 0.0
C456 C 0.6612 0.82239 0.29411 0.0
C457 C 0.6863 0.85789 0.30255 0.0
C458 C 0.73085 0.85233 0.30619 0.0
C459 C 0.75039 0.81138 0.30188 0.0
C460 C 0.72395 0.77588 0.29257 0.0
H461 H 0.82039 0.22818 0.82214 0.0
H462 H 0.72018 0.2648 0.74758 0.0
H463 H 0.71584 0.18976 0.72669 0.0
H464 H 0.87307 0.14706 0.76633 0.0
H465 H 0.88316 0.1111 0.80309 0.0
H466 H 0.88086 0.16827 0.81045 0.0
H467 H 0.82159 0.15681 0.85838 0.0
H468 H 0.82357 0.09966 0.85108 0.0
H469 H 0.7731 0.12805 0.84698 0.0
H470 H 0.72141 0.1107 0.71432 0.0
H471 H 0.73542 0.0329 0.71208 0.0
H472 H 0.82811 0.04517 0.7977 0.0
C473 C 0.7981 0.22055 0.80096 0.0
C474 C 0.77091 0.25263 0.78622 0.0
C475 C 0.74145 0.24098 0.75917 0.0
C476 C 0.73877 0.19838 0.74711 0.0
C477 C 0.76545 0.16748 0.76256 0.0
C478 C 0.79451 0.17791 0.78895 0.0
C479 C 0.81785 0.138 0.8023 0.0
C480 C 0.86663 0.14132 0.79511 0.0
C481 C 0.80845 0.13018 0.84204 0.0
C482 C 0.79728 0.10354 0.77936 0.0
C483 C 0.7674 0.12142 0.75645 0.0
C484 C 0.74448 0.09636 0.73237 0.0
C485 C 0.7523 0.05195 0.73162 0.0
C486 C 0.78228 0.03256 0.75515 0.0
C487 C 0.80505 0.05894 0.77932 0.0
H488 H 0.99545 0.2368 0.30564 0.0
H489 H 0.03623 0.36066 0.26393 0.0
H490 H 0.96084 0.37807 0.24938 0.0
H491 H 0.91646 0.21874 0.23434 0.0
H492 H 0.87895 0.19091 0.26309 0.0
H493 H 0.93599 0.18875 0.27214 0.0
H494 H 0.92171 0.21729 0.33569 0.0
H495 H 0.86469 0.22013 0.32674 0.0
H496 H 0.89316 0.2673 0.34147 0.0
H497 H 0.88081 0.38462 0.2431 0.0
H498 H 0.80258 0.37523 0.23491 0.0
H499 H 0.81254 0.24334 0.27208 0.0
C500 C 0.98873 0.26733 0.29297 0.0
C501 C 1.02211 0.2979 0.287 0.0
C502 C 1.01138 0.33734 0.27021 0.0
C503 C 0.96854 0.34746 0.26157 0.0
C504 C 0.93644 0.31726 0.26868 0.0
C505 C 0.94601 0.27748 0.28304 0.0
C506 C 0.90536 0.25003 0.28579 0.0
C507 C 0.90944 0.20972 0.26244 0.0
C508 C 0.89567 0.23798 0.32474 0.0
C509 C 0.87149 0.28089 0.27117 0.0
C510 C 0.89027 0.31974 0.26216 0.0
C511 C 0.86583 0.35415 0.24962 0.0
C512 C 0.82121 0.34858 0.24533 0.0
C513 C 0.80113 0.30858 0.25277 0.0
C514 C 0.82683 0.27428 0.26601 0.0
H515 H 0.32689 0.49255 0.80917 0.0
H516 H 0.21902 0.5345 0.74456 0.0
H517 H 0.2045 0.45927 0.72791 0.0
H518 H 0.36287 0.41014 0.74487 0.0
H519 H 0.38048 0.37331 0.779 0.0
H520 H 0.38193 0.43041 0.78687 0.0
H521 H 0.33535 0.41983 0.84349 0.0
H522 H 0.33321 0.36277 0.83563 0.0
H523 H 0.28391 0.39306 0.84025 0.0
H524 H 0.19732 0.38021 0.72262 0.0
H525 H 0.20525 0.30199 0.71874 0.0
H526 H 0.32387 0.30868 0.77974 0.0
C527 C 0.30051 0.48587 0.79122 0.0
C528 C 0.27289 0.51936 0.77928 0.0
C529 C 0.23929 0.5093 0.75534 0.0
C530 C 0.23102 0.46666 0.74551 0.0
C531 C 0.25764 0.4343 0.7588 0.0
C532 C 0.29253 0.44331 0.78024 0.0
C533 C 0.31719 0.40222 0.78915 0.0
C534 C 0.36336 0.40414 0.77407 0.0
C535 C 0.31741 0.394 0.82953 0.0
C536 C 0.29012 0.36872 0.76987 0.0
C537 C 0.25558 0.38825 0.75313 0.0
C538 C 0.22455 0.3646 0.73515 0.0
C539 C 0.22924 0.31992 0.73342 0.0
C540 C 0.26518 0.29877 0.74893 0.0
C541 C 0.29612 0.32373 0.7675 0.0
H542 H 0.05457 0.74842 0.30767 0.0
H543 H 1.01943 0.85732 0.24138 0.0
H544 H 0.09524 0.86516 0.22243 0.0
H545 H 0.15658 0.7873 0.33631 0.0
H546 H 0.18437 0.73648 0.33376 0.0
H547 H 0.12704 0.73778 0.34191 0.0
H548 H 0.11394 0.68902 0.28752 0.0
H549 H 0.17127 0.68691 0.27943 0.0
H550 H 0.13538 0.70446 0.24464 0.0
H551 H 0.17429 0.86538 0.21396 0.0
H552 H 0.25211 0.85248 0.20942 0.0
H553 H 0.23901 0.73992 0.27756 0.0
C554 C 0.06275 0.77332 0.28862 0.0
C555 C 1.03098 0.8027 0.27633 0.0
C556 C 0.0432 0.83501 0.25164 0.0
C557 C 0.08622 0.83967 0.24068 0.0
C558 C 0.11692 0.81127 0.25407 0.0
C559 C 0.10585 0.77813 0.27692 0.0
C560 C 0.14572 0.75194 0.28676 0.0
C561 C 0.1539 0.75349 0.32709 0.0
C562 C 0.14131 0.70532 0.2738 0.0
C563 C 0.18081 0.77599 0.26616 0.0
C564 C 0.16315 0.8103 0.24786 0.0
C565 C 0.18849 0.83832 0.22781 0.0
C566 C 0.23296 0.83074 0.22559 0.0
C567 C 0.25225 0.79504 0.24298 0.0
C568 C 0.22555 0.76746 0.26385 0.0
H569 H 0.85418 0.72764 0.74343 0.0
H570 H 0.74428 0.76933 0.80612 0.0
H571 H 0.7334 0.69479 0.82753 0.0
H572 H 0.80542 0.6326 0.71348 0.0
H573 H 0.85369 0.60024 0.71379 0.0
H574 H 0.85753 0.65753 0.70773 0.0
H575 H 0.90931 0.66247 0.76155 0.0
H576 H 0.90572 0.60507 0.76765 0.0
H577 H 0.8928 0.64056 0.80398 0.0
H578 H 0.73204 0.61592 0.83987 0.0
H579 H 0.73618 0.53683 0.83887 0.0
H580 H 0.84241 0.54363 0.76348 0.0
C581 C 0.82873 0.72112 0.76256 0.0
C582 C 0.80071 0.75435 0.774 0.0
C583 C 0.76651 0.74444 0.79768 0.0
C584 C 0.76015 0.70222 0.80994 0.0
C585 C 0.78782 0.67 0.79778 0.0
C586 C 0.82128 0.67877 0.7744 0.0
C587 C 0.84326 0.6374 0.76253 0.0
C588 C 0.83975 0.63162 0.72198 0.0
C589 C 0.89058 0.63633 0.77465 0.0
C590 C 0.81649 0.60407 0.78243 0.0
C591 C 0.78529 0.62382 0.80313 0.0
C592 C 0.75628 0.60015 0.82371 0.0
C593 C 0.75874 0.55519 0.8228 0.0
C594 C 0.78934 0.53396 0.80091 0.0
C595 C 0.81897 0.55886 0.78076 0.0
H596 H 0.17024 0.20472 0.44759 0.0
H597 H 0.26581 0.30445 0.4294 0.0
H598 H 0.29405 0.29342 0.49 0.0
H599 H 0.14784 0.23564 0.53882 0.0
H600 H 0.13971 0.18134 0.55434 0.0
H601 H 0.12821 0.19514 0.50874 0.0
H602 H 0.17993 0.13503 0.48736 0.0
H603 H 0.19179 0.12121 0.53291 0.0
H604 H 0.23504 0.13459 0.5026 0.0
H605 H 0.31413 0.27005 0.55067 0.0
H606 H 0.31887 0.24295 0.61213 0.0
H607 H 0.20619 0.16286 0.59466 0.0
C608 C 0.19716 0.22405 0.45649 0.0
C609 C 0.21614 0.25523 0.43386 0.0
C610 C 0.25083 0.28049 0.44642 0.0
C611 C 0.26724 0.27429 0.48068 0.0
C612 C 0.24806 0.24327 0.50232 0.0
C613 C 0.21326 0.21911 0.49114 0.0
C614 C 0.19713 0.1899 0.52083 0.0
C615 C 0.15046 0.2012 0.5313 0.0
C616 C 0.20123 0.14236 0.51028 0.0
C617 C 0.22854 0.20133 0.55024 0.0
C618 C 0.25805 0.23162 0.53859 0.0
C619 C 0.29104 0.24658 0.56026 0.0
C620 C 0.29359 0.23078 0.59508 0.0
C621 C 0.26285 0.2009 0.6082 0.0
C622 C 0.22997 0.18587 0.58537 0.0
H623 H 0.39866 0.77328 0.08347 0.0
H624 H 0.32773 0.67085 0.13633 0.0
H625 H 0.30573 0.64243 0.07794 0.0
H626 H 0.3255 0.79294 1.01479 0.0
H627 H 0.36544 0.80181 0.98052 0.0
H628 H 0.37834 0.81262 0.0263 0.0
H629 H 0.44404 0.76133 1.02243 0.0
H630 H 0.43161 0.75063 0.97647 0.0
H631 H 0.43631 0.70678 1.00771 0.0
H632 H 0.28333 0.63118 1.01484 0.0
H633 H 0.27046 0.63139 0.94988 0.0
H634 H 0.36105 0.73653 0.93704 0.0
C635 C 0.37909 0.74447 0.0827 0.0
C636 C 0.36478 0.72433 0.11442 0.0
C637 C 0.33928 0.68664 0.11237 0.0
C638 C 0.32646 0.67036 0.07934 0.0
C639 C 0.34018 0.69157 0.04861 0.0
C640 C 0.36674 0.7272 0.04989 0.0
C641 C 0.37656 0.74412 1.01282 0.0
C642 C 0.36049 0.79062 1.00836 0.0
C643 C 0.42501 0.74048 1.00436 0.0
C644 C 0.35035 0.71315 0.99059 0.0
C645 C 0.32931 0.68335 1.01185 0.0
C646 C 0.30037 0.65368 0.99783 0.0
C647 C 0.29305 0.65419 0.96104 0.0
C648 C 0.3152 0.68359 0.93873 0.0
C649 C 0.34442 0.71322 0.95363 0.0
H650 H 0.79751 0.88795 0.59666 0.0
H651 H 0.89483 0.8021 0.63937 0.0
H652 H 0.9155 0.7807 0.57834 0.0
H653 H 0.7653 0.82405 0.52206 0.0
H654 H 0.76017 0.86896 0.49191 0.0
H655 H 0.75189 0.87658 0.53897 0.0
H656 H 0.81024 0.93622 0.53914 0.0
H657 H 0.81864 0.92884 0.49207 0.0
H658 H 0.86351 0.92453 0.52225 0.0
H659 H 0.92232 0.76518 0.51323 0.0
H660 H 0.92143 0.76338 0.44736 0.0
H661 H 0.82557 0.86489 0.44629 0.0
C662 C 0.82306 0.8646 0.59301 0.0
C663 C 0.8444 0.84628 0.62252 0.0
C664 C 0.8782 0.81642 0.61695 0.0
C665 C 0.89002 0.80397 0.58246 0.0
C666 C 0.86836 0.82246 0.55385 0.0
C667 C 0.83618 0.85274 0.55864 0.0
C668 C 0.81966 0.86918 0.52318 0.0
C669 C 0.77139 0.85907 0.51878 0.0
C670 C 0.82856 0.91756 0.51892 0.0
C671 C 0.84713 0.84292 0.4978 0.0
C672 C 0.87452 0.81571 0.5161 0.0
C673 C 0.90146 0.78672 0.49856 0.0
C674 C 0.90062 0.78576 0.46126 0.0
C675 C 0.87377 0.81422 0.44204 0.0
C676 C 0.84684 0.84326 0.46053 0.0
H677 H 0.73596 0.28439 0.09816 0.0
H678 H 0.63123 0.37439 0.11603 0.0
H679 H 0.63444 0.3963 0.05267 0.0
H680 H 0.79648 0.3544 0.04017 0.0
H681 H 0.81583 0.31162 1.01206 0.0
H682 H 0.80353 0.30108 0.05818 0.0
H683 H 0.75088 0.24049 0.0397 0.0
H684 H 0.76309 0.25078 0.99352 0.0
H685 H 0.70794 0.25235 1.00894 0.0
H686 H 0.64738 0.40632 0.98702 0.0
H687 H 0.67381 0.40918 0.92484 0.0
H688 H 0.77486 0.31802 0.95106 0.0
C689 C 0.7135 0.30843 0.08857 0.0
C690 C 0.68301 0.32744 0.11172 0.0
C691 C 0.65472 0.35944 0.09857 0.0
C692 C 0.65624 0.37196 0.06268 0.0
C693 C 0.68682 0.35277 0.04053 0.0
C694 C 0.71536 0.32214 0.05305 0.0
C695 C 0.74668 0.30832 0.02416 0.0
C696 C 0.79339 0.31954 0.03425 0.0
C697 C 0.74184 0.26013 1.01611 0.0
C698 C 0.73109 0.33572 0.99337 0.0
C699 C 0.69612 0.36064 1.00326 0.0
C700 C 0.675 0.38729 0.97905 0.0
C701 C 0.69015 0.38863 0.94383 0.0
C702 C 0.72656 0.36415 0.93336 0.0
C703 C 0.74733 0.33753 0.95854 0.0
H704 H 0.92916 1.00366 0.3915 0.0
H705 H 0.92183 0.9714 0.27929 0.0
H706 H 0.98373 1.01898 0.26683 0.0
H707 H 0.96205 0.11784 0.37747 0.0
H708 H 0.99645 0.11656 0.41604 0.0
H709 H 0.94853 0.08383 0.41485 0.0
H710 H 0.99544 1.01665 0.42813 0.0
H711 H 0.04366 0.04887 0.4281 0.0
H712 H 0.03953 1.00345 0.39865 0.0
H713 H 0.05246 0.06215 0.26804 0.0
H714 H 0.11456 0.10934 0.28103 0.0
H715 H 0.07515 0.11431 0.39204 0.0
C716 C 0.9396 1.00761 0.36413 0.0
C717 C 0.921 0.9834 0.33646 0.0
C718 C 0.93582 0.9894 0.30101 0.0
C719 C 0.9711 1.01619 0.29365 0.0
C720 C 0.99052 0.03738 0.32194 0.0
C721 C 0.97452 0.03444 0.35628 0.0
C722 C 1.00184 0.05973 0.38204 0.0
C723 C 0.97566 0.09669 0.39856 0.0
C724 C 1.02125 1.0304 0.41092 0.0
C725 C 0.0363 0.07639 0.35697 0.0
C726 C 1.02939 0.06302 0.32245 0.0
C727 C 0.05784 0.07342 0.29488 0.0
C728 C 0.09327 0.09981 0.30259 0.0
C729 C 0.09946 0.11576 0.33748 0.0
C730 C 0.07116 0.10285 0.36505 0.0
H731 H 0.45217 0.56448 0.88014 0.0
H732 H 0.46508 0.62506 0.77634 0.0
H733 H 0.51781 0.56913 0.75868 0.0
H734 H 0.56348 0.53209 0.8899 0.0
H735 H 0.54921 0.4824 0.91178 0.0
H736 H 0.51458 0.52857 0.91594 0.0
H737 H 0.45051 0.48323 0.89249 0.0
H738 H 0.4852 0.4372 0.88736 0.0
H739 H 0.45503 0.45717 0.84984 0.0
H740 H 0.56732 0.50428 0.75211 0.0
H741 H 0.6149 0.44108 0.75933 0.0
H742 H 0.56692 0.42349 0.86716 0.0
C743 C 0.46648 0.56652 0.85383 0.0
C744 C 0.45456 0.59922 0.82963 0.0
C745 C 0.474 0.60049 0.79542 0.0
C746 C 0.50365 0.56865 0.78507 0.0
C747 C 0.5134 0.53594 0.80925 0.0
C748 C 0.49573 0.53507 0.84306 0.0
C749 C 0.51107 0.49656 0.86413 0.0
C750 C 0.53608 0.51076 0.89739 0.0
C751 C 0.47319 0.46679 0.87402 0.0
C752 C 0.54048 0.47586 0.83699 0.0
C753 C 0.54126 0.4988 0.8054 0.0
C754 C 0.56699 0.48617 0.77677 0.0
C755 C 0.59378 0.45014 0.78108 0.0
C756 C 0.59478 0.4274 0.81386 0.0
C757 C 0.56673 0.43985 0.84166 0.0
H758 H 0.51065 0.64014 0.24011 0.0
H759 H 0.3834 0.58216 0.23958 0.0
H760 H 0.41687 0.50989 0.24064 0.0
H761 H 0.562 0.57005 0.18452 0.0
H762 H 0.61254 0.56741 0.20802 0.0
H763 H 0.57916 0.61449 0.21172 0.0
H764 H 0.57768 0.60681 0.28027 0.0
H765 H 0.61177 0.56 0.27702 0.0
H766 H 0.5608 0.55672 0.30021 0.0
H767 H 0.46329 0.4467 0.22899 0.0
H768 H 0.51979 0.39353 0.21686 0.0
H769 H 0.61847 0.49024 0.2332 0.0
C770 C 0.4899 0.61215 0.24125 0.0
C771 C 0.44452 0.61633 0.23977 0.0
C772 C 0.41819 0.57934 0.24105 0.0
C773 C 0.43694 0.53833 0.24153 0.0
C774 C 0.48189 0.53524 0.24185 0.0
C775 C 0.50808 0.57109 0.24285 0.0
C776 C 0.5555 0.55879 0.24201 0.0
C777 C 0.57863 0.57888 0.20964 0.0
C778 C 0.57774 0.57132 0.27697 0.0
C779 C 0.55186 0.51042 0.23848 0.0
C780 C 0.50901 0.49777 0.23822 0.0
C781 C 0.49693 0.45585 0.2306 0.0
C782 C 0.52937 0.4259 0.22357 0.0
C783 C 0.57356 0.43742 0.22527 0.0
C784 C 0.58499 0.48028 0.23301 0.0
H785 H 0.10124 0.07931 0.65933 0.0
H786 H 0.0965 0.1346 0.76524 0.0
H787 H 0.05009 0.0745 0.78544 0.0
H788 H 0.99134 0.03697 0.65797 0.0
H789 H 1.00768 0.98959 0.63395 0.0
H790 H 0.03682 0.03915 0.62791 0.0
H791 H 0.10765 0.99966 0.64471 0.0
H792 H 0.07855 0.95031 0.65198 0.0
H793 H 0.11129 0.97237 0.68701 0.0
H794 H 1.00731 1.00582 0.79452 0.0
H795 H 0.96532 0.93849 0.79007 0.0
H796 H 1.00186 0.92787 0.67873 0.0
C797 C 0.08957 0.07956 0.68655 0.0
C798 C 0.10232 0.11181 0.71067 0.0
C799 C 0.08687 0.11036 0.74623 0.0
C800 C 0.06082 0.07619 0.75801 0.0
C801 C 0.05066 0.04382 0.73389 0.0
C802 C 0.0641 0.04558 0.6988 0.0
C803 C 0.05005 1.00625 0.67839 0.0
C804 C 1.01966 1.01874 0.64776 0.0
C805 C 0.08923 0.98065 0.66473 0.0
C806 C 1.02642 0.98202 0.70744 0.0
C807 C 1.02717 1.00407 0.73931 0.0
C808 C 1.0065 0.98831 0.76969 0.0
C809 C 0.98302 0.9499 0.76697 0.0
C810 C 0.98039 0.92783 0.73409 0.0
C811 C 1.0036 0.94357 0.70437 0.0
loop_
_geom_bond_atom_site_label_1
_geom_bond_atom_site_label_2
_geom_bond_distance
_geom_bond_site_symmetry_2
_ccdc_geom_bond_type
Co0 O3 1.970 . S
Co0 N17 1.989 . S
Co0 O25 1.967 . S
Co0 O32 1.920 . S
Co1 O4 1.966 . S
Co1 N10 2.022 . S
Co1 N18 1.993 . S
Co1 O26 1.941 . S
C2 O3 1.258 . S
C2 O4 1.263 . S
O3 Co0 1.970 . S
O3 C2 1.258 . S
O4 Co1 1.966 . S
O4 C2 1.263 . S
C5 O6 1.235 . S
C5 O32 1.289 . S
O6 C5 1.235 . S
C7 C9 1.400 . S
C7 N10 1.351 . S
C7 C12 1.501 . S
C8 C9 1.387 . S
C8 N11 1.341 . S
C9 C7 1.400 . S
C9 C8 1.387 . S
N10 Co1 2.022 . S
N10 C7 1.351 . S
N10 N11 1.365 . S
N11 C8 1.341 . S
N11 N10 1.365 . S
N11 H31 0.862 . S
C12 C7 1.501 . S
C12 H13 0.961 . S
C12 H14 0.961 . S
C12 H15 0.960 . S
H13 C12 0.961 . S
H14 C12 0.961 . S
H15 C12 0.960 . S
C16 N17 1.342 1_655 S
C16 C20 1.401 . S
C16 C21 1.499 . S
N17 Co0 1.989 . S
N17 C16 1.342 1_455 S
N17 N18 1.388 . S
N18 Co1 1.993 . S
N18 N17 1.388 . S
N18 C19 1.346 1_455 S
C19 N18 1.346 1_655 S
C19 C20 1.396 . S
C19 C29 1.510 . S
C20 C16 1.401 . S
C20 C19 1.396 . S
C21 C16 1.499 . S
C21 H22 0.959 . S
C21 H23 0.960 . S
C21 H24 0.961 . S
H22 C21 0.959 . S
H23 C21 0.960 . S
H24 C21 0.961 . S
O25 Co0 1.967 . S
O25 C33 1.258 . S
O26 Co1 1.941 . S
O26 C33 1.266 . S
H27 C29 0.959 . S
H28 C29 0.961 . S
C29 C19 1.510 . S
C29 H27 0.959 . S
C29 H28 0.961 . S
C29 H30 0.960 . S
H30 C29 0.960 . S
H31 N11 0.862 . S
O32 Co0 1.920 . S
O32 C5 1.289 . S
C33 O25 1.258 . S
C33 O26 1.266 . S
Co34 O37 1.970 . S
Co34 N51 1.989 . S
Co34 O59 1.967 . S
Co34 O66 1.920 . S
Co35 O38 1.966 . S
Co35 N44 2.022 . S
Co35 N52 1.993 . S
Co35 O60 1.941 . S
C36 O37 1.258 . S
C36 O38 1.263 . S
O37 Co34 1.970 . S
O37 C36 1.258 . S
O38 Co35 1.966 . S
O38 C36 1.263 . S
C39 O40 1.235 . S
C39 O66 1.289 . S
O40 C39 1.235 . S
C41 C43 1.400 . S
C41 N44 1.351 . S
C41 C46 1.501 . S
C42 C43 1.387 . S
C42 N45 1.341 . S
C43 C41 1.400 . S
C43 C42 1.387 . S
N44 Co35 2.022 . S
N44 C41 1.351 . S
N44 N45 1.365 . S
N45 C42 1.341 . S
N45 N44 1.365 . S
N45 H65 0.862 . S
C46 C41 1.501 . S
C46 H47 0.961 . S
C46 H48 0.961 . S
C46 H49 0.960 . S
H47 C46 0.961 . S
H48 C46 0.961 . S
H49 C46 0.960 . S
C50 N51 1.342 . S
C50 C54 1.401 . S
C50 C55 1.499 . S
N51 Co34 1.989 . S
N51 C50 1.342 . S
N51 N52 1.388 . S
N52 Co35 1.993 . S
N52 N51 1.388 . S
N52 C53 1.346 . S
C53 N52 1.346 . S
C53 C54 1.396 . S
C53 C63 1.510 . S
C54 C50 1.401 . S
C54 C53 1.396 . S
C55 C50 1.499 . S
C55 H56 0.959 . S
C55 H57 0.960 . S
C55 H58 0.961 . S
H56 C55 0.959 . S
H57 C55 0.960 . S
H58 C55 0.961 . S
O59 Co34 1.967 . S
O59 C67 1.258 . S
O60 Co35 1.941 . S
O60 C67 1.266 . S
H61 C63 0.959 . S
H62 C63 0.961 . S
C63 C53 1.510 . S
C63 H61 0.959 . S
C63 H62 0.961 . S
C63 H64 0.960 . S
H64 C63 0.960 . S
H65 N45 0.862 . S
O66 Co34 1.920 . S
O66 C39 1.289 . S
C67 O59 1.258 . S
C67 O60 1.266 . S
Co68 O71 1.970 . S
Co68 N85 1.989 . S
Co68 O93 1.967 . S
Co68 O100 1.920 . S
Co69 O72 1.966 . S
Co69 N78 2.022 . S
Co69 N86 1.993 . S
Co69 O94 1.941 . S
C70 O71 1.258 . S
C70 O72 1.263 . S
O71 Co68 1.970 . S
O71 C70 1.258 . S
O72 Co69 1.966 . S
O72 C70 1.263 . S
C73 O74 1.235 . S
C73 O100 1.289 . S
O74 C73 1.235 . S
C75 C77 1.400 . S
C75 N78 1.351 . S
C75 C80 1.501 . S
C76 C77 1.387 . S
C76 N79 1.341 . S
C77 C75 1.400 . S
C77 C76 1.387 . S
N78 Co69 2.022 . S
N78 C75 1.351 . S
N78 N79 1.365 . S
N79 C76 1.341 . S
N79 N78 1.365 . S
N79 H99 0.862 . S
C80 C75 1.501 . S
C80 H81 0.961 . S
C80 H82 0.961 . S
C80 H83 0.960 . S
H81 C80 0.961 . S
H82 C80 0.961 . S
H83 C80 0.960 . S
C84 N85 1.342 1_455 S
C84 C88 1.401 . S
C84 C89 1.499 . S
N85 Co68 1.989 . S
N85 C84 1.342 1_655 S
N85 N86 1.388 . S
N86 Co69 1.993 . S
N86 N85 1.388 . S
N86 C87 1.346 1_655 S
C87 N86 1.346 1_455 S
C87 C88 1.396 . S
C87 C97 1.510 . S
C88 C84 1.401 . S
C88 C87 1.396 . S
C89 C84 1.499 . S
C89 H90 0.959 . S
C89 H91 0.960 . S
C89 H92 0.961 . S
H90 C89 0.959 . S
H91 C89 0.960 . S
H92 C89 0.961 . S
O93 Co68 1.967 . S
O93 C101 1.258 . S
O94 Co69 1.941 . S
O94 C101 1.266 . S
H95 C97 0.959 . S
H96 C97 0.961 . S
C97 C87 1.510 . S
C97 H95 0.959 . S
C97 H96 0.961 . S
C97 H98 0.960 . S
H98 C97 0.960 . S
H99 N79 0.862 . S
O100 Co68 1.920 . S
O100 C73 1.289 . S
C101 O93 1.258 . S
C101 O94 1.266 . S
Co102 O105 1.970 . S
Co102 N119 1.989 . S
Co102 O127 1.967 . S
Co102 O134 1.920 . S
Co103 O106 1.966 . S
Co103 N112 2.022 . S
Co103 N120 1.993 . S
Co103 O128 1.941 . S
C104 O105 1.258 . S
C104 O106 1.263 . S
O105 Co102 1.970 . S
O105 C104 1.258 . S
O106 Co103 1.966 . S
O106 C104 1.263 . S
C107 O108 1.235 . S
C107 O134 1.289 . S
O108 C107 1.235 . S
C109 C111 1.400 . S
C109 N112 1.351 . S
C109 C114 1.501 . S
C110 C111 1.387 . S
C110 N113 1.341 . S
C111 C109 1.400 . S
C111 C110 1.387 . S
N112 Co103 2.022 . S
N112 C109 1.351 . S
N112 N113 1.365 . S
N113 C110 1.341 . S
N113 N112 1.365 . S
N113 H133 0.862 . S
C114 C109 1.501 . S
C114 H115 0.961 . S
C114 H116 0.961 . S
C114 H117 0.960 . S
H115 C114 0.961 . S
H116 C114 0.961 . S
H117 C114 0.960 . S
C118 N119 1.342 . S
C118 C122 1.401 . S
C118 C123 1.499 . S
N119 Co102 1.989 . S
N119 C118 1.342 . S
N119 N120 1.388 . S
N120 Co103 1.993 . S
N120 N119 1.388 . S
N120 C121 1.346 . S
C121 N120 1.346 . S
C121 C122 1.396 . S
C121 C131 1.510 . S
C122 C118 1.401 . S
C122 C121 1.396 . S
C123 C118 1.499 . S
C123 H124 0.959 . S
C123 H125 0.960 . S
C123 H126 0.961 . S
H124 C123 0.959 . S
H125 C123 0.960 . S
H126 C123 0.961 . S
O127 Co102 1.967 . S
O127 C135 1.258 . S
O128 Co103 1.941 . S
O128 C135 1.266 . S
H129 C131 0.959 . S
H130 C131 0.961 . S
C131 C121 1.510 . S
C131 H129 0.959 . S
C131 H130 0.961 . S
C131 H132 0.960 . S
H132 C131 0.960 . S
H133 N113 0.862 . S
O134 Co102 1.920 . S
O134 C107 1.289 . S
C135 O127 1.258 . S
C135 O128 1.266 . S
Co136 O139 1.970 . S
Co136 N153 1.989 . S
Co136 O161 1.967 . S
Co136 O168 1.920 . S
Co137 O140 1.966 . S
Co137 N146 2.022 . S
Co137 N154 1.993 . S
Co137 O162 1.941 . S
C138 O139 1.258 . S
C138 O140 1.263 . S
O139 Co136 1.970 . S
O139 C138 1.258 . S
O140 Co137 1.966 . S
O140 C138 1.263 . S
C141 O142 1.235 . S
C141 O168 1.289 . S
O142 C141 1.235 . S
C143 C145 1.400 . S
C143 N146 1.351 . S
C143 C148 1.501 . S
C144 C145 1.387 . S
C144 N147 1.341 . S
C145 C143 1.400 . S
C145 C144 1.387 . S
N146 Co137 2.022 . S
N146 C143 1.351 . S
N146 N147 1.365 . S
N147 C144 1.341 . S
N147 N146 1.365 . S
N147 H167 0.862 . S
C148 C143 1.501 . S
C148 H149 0.961 . S
C148 H150 0.961 . S
C148 H151 0.960 . S
H149 C148 0.961 . S
H150 C148 0.961 . S
H151 C148 0.960 . S
C152 N153 1.342 . S
C152 C156 1.401 . S
C152 C157 1.499 . S
N153 Co136 1.989 . S
N153 C152 1.342 . S
N153 N154 1.388 . S
N154 Co137 1.993 . S
N154 N153 1.388 . S
N154 C155 1.346 . S
C155 N154 1.346 . S
C155 C156 1.396 . S
C155 C165 1.510 . S
C156 C152 1.401 . S
C156 C155 1.396 . S
C157 C152 1.499 . S
C157 H158 0.959 . S
C157 H159 0.960 . S
C157 H160 0.961 . S
H158 C157 0.959 . S
H159 C157 0.960 . S
H160 C157 0.961 . S
O161 Co136 1.967 . S
O161 C169 1.258 . S
O162 Co137 1.941 . S
O162 C169 1.266 . S
H163 C165 0.959 . S
H164 C165 0.961 . S
C165 C155 1.510 . S
C165 H163 0.959 . S
C165 H164 0.961 . S
C165 H166 0.960 . S
H166 C165 0.960 . S
H167 N147 0.862 . S
O168 Co136 1.920 . S
O168 C141 1.289 . S
C169 O161 1.258 . S
C169 O162 1.266 . S
Co170 O173 1.970 . S
Co170 N187 1.989 . S
Co170 O195 1.967 . S
Co170 O202 1.920 . S
Co171 O174 1.966 . S
Co171 N180 2.022 . S
Co171 N188 1.993 . S
Co171 O196 1.941 . S
C172 O173 1.258 . S
C172 O174 1.263 . S
O173 Co170 1.970 . S
O173 C172 1.258 . S
O174 Co171 1.966 . S
O174 C172 1.263 . S
C175 O176 1.235 . S
C175 O202 1.289 . S
O176 C175 1.235 . S
C177 C179 1.400 . S
C177 N180 1.351 . S
C177 C182 1.501 . S
C178 C179 1.387 . S
C178 N181 1.341 . S
C179 C177 1.400 . S
C179 C178 1.387 . S
N180 Co171 2.022 . S
N180 C177 1.351 . S
N180 N181 1.365 . S
N181 C178 1.341 . S
N181 N180 1.365 . S
N181 H201 0.862 . S
C182 C177 1.501 . S
C182 H183 0.961 . S
C182 H184 0.961 . S
C182 H185 0.960 . S
H183 C182 0.961 . S
H184 C182 0.961 . S
H185 C182 0.960 . S
C186 N187 1.342 1_565 S
C186 C190 1.401 . S
C186 C191 1.499 . S
N187 Co170 1.989 . S
N187 C186 1.342 1_545 S
N187 N188 1.388 . S
N188 Co171 1.993 . S
N188 N187 1.388 . S
N188 C189 1.346 1_545 S
C189 N188 1.346 1_565 S
C189 C190 1.396 . S
C189 C199 1.510 . S
C190 C186 1.401 . S
C190 C189 1.396 . S
C191 C186 1.499 . S
C191 H192 0.959 . S
C191 H193 0.960 . S
C191 H194 0.961 . S
H192 C191 0.959 . S
H193 C191 0.960 . S
H194 C191 0.961 . S
O195 Co170 1.967 . S
O195 C203 1.258 . S
O196 Co171 1.941 . S
O196 C203 1.266 . S
H197 C199 0.959 . S
H198 C199 0.961 . S
C199 C189 1.510 . S
C199 H197 0.959 . S
C199 H198 0.961 . S
C199 H200 0.960 . S
H200 C199 0.960 . S
H201 N181 0.862 . S
O202 Co170 1.920 . S
O202 C175 1.289 . S
C203 O195 1.258 . S
C203 O196 1.266 . S
Co204 O207 1.970 . S
Co204 N221 1.989 . S
Co204 O229 1.967 . S
Co204 O236 1.920 . S
Co205 O208 1.966 . S
Co205 N214 2.022 . S
Co205 N222 1.993 . S
Co205 O230 1.941 . S
C206 O207 1.258 . S
C206 O208 1.263 . S
O207 Co204 1.970 . S
O207 C206 1.258 . S
O208 Co205 1.966 . S
O208 C206 1.263 . S
C209 O210 1.235 . S
C209 O236 1.289 . S
O210 C209 1.235 . S
C211 C213 1.400 . S
C211 N214 1.351 . S
C211 C216 1.501 . S
C212 C213 1.387 . S
C212 N215 1.341 . S
C213 C211 1.400 . S
C213 C212 1.387 . S
N214 Co205 2.022 . S
N214 C211 1.351 . S
N214 N215 1.365 . S
N215 C212 1.341 . S
N215 N214 1.365 . S
N215 H235 0.862 . S
C216 C211 1.501 . S
C216 H217 0.961 . S
C216 H218 0.961 . S
C216 H219 0.960 . S
H217 C216 0.961 . S
H218 C216 0.961 . S
H219 C216 0.960 . S
C220 N221 1.342 . S
C220 C224 1.401 . S
C220 C225 1.499 . S
N221 Co204 1.989 . S
N221 C220 1.342 . S
N221 N222 1.388 . S
N222 Co205 1.993 . S
N222 N221 1.388 . S
N222 C223 1.346 . S
C223 N222 1.346 . S
C223 C224 1.396 . S
C223 C233 1.510 . S
C224 C220 1.401 . S
C224 C223 1.396 . S
C225 C220 1.499 . S
C225 H226 0.959 . S
C225 H227 0.960 . S
C225 H228 0.961 . S
H226 C225 0.959 . S
H227 C225 0.960 . S
H228 C225 0.961 . S
O229 Co204 1.967 . S
O229 C237 1.258 . S
O230 Co205 1.941 . S
O230 C237 1.266 . S
H231 C233 0.959 . S
H232 C233 0.961 . S
C233 C223 1.510 . S
C233 H231 0.959 . S
C233 H232 0.961 . S
C233 H234 0.960 . S
H234 C233 0.960 . S
H235 N215 0.862 . S
O236 Co204 1.920 . S
O236 C209 1.289 . S
C237 O229 1.258 . S
C237 O230 1.266 . S
Co238 O241 1.970 . S
Co238 N255 1.989 . S
Co238 O263 1.967 . S
Co238 O270 1.920 . S
Co239 O242 1.966 . S
Co239 N248 2.022 . S
Co239 N256 1.993 . S
Co239 O264 1.941 . S
C240 O241 1.258 . S
C240 O242 1.263 . S
O241 Co238 1.970 . S
O241 C240 1.258 . S
O242 Co239 1.966 . S
O242 C240 1.263 . S
C243 O244 1.235 . S
C243 O270 1.289 . S
O244 C243 1.235 . S
C245 C247 1.400 . S
C245 N248 1.351 . S
C245 C250 1.501 . S
C246 C247 1.387 . S
C246 N249 1.341 . S
C247 C245 1.400 . S
C247 C246 1.387 . S
N248 Co239 2.022 . S
N248 C245 1.351 . S
N248 N249 1.365 . S
N249 C246 1.341 . S
N249 N248 1.365 . S
N249 H269 0.862 . S
C250 C245 1.501 . S
C250 H251 0.961 . S
C250 H252 0.961 . S
C250 H253 0.960 . S
H251 C250 0.961 . S
H252 C250 0.961 . S
H253 C250 0.960 . S
C254 N255 1.342 1_545 S
C254 C258 1.401 . S
C254 C259 1.499 . S
N255 Co238 1.989 . S
N255 C254 1.342 1_565 S
N255 N256 1.388 . S
N256 Co239 1.993 . S
N256 N255 1.388 . S
N256 C257 1.346 1_565 S
C257 N256 1.346 1_545 S
C257 C258 1.396 . S
C257 C267 1.510 . S
C258 C254 1.401 . S
C258 C257 1.396 . S
C259 C254 1.499 . S
C259 H260 0.959 . S
C259 H261 0.960 . S
C259 H262 0.961 . S
H260 C259 0.959 . S
H261 C259 0.960 . S
H262 C259 0.961 . S
O263 Co238 1.967 . S
O263 C271 1.258 . S
O264 Co239 1.941 . S
O264 C271 1.266 . S
H265 C267 0.959 . S
H266 C267 0.961 . S
C267 C257 1.510 . S
C267 H265 0.959 . S
C267 H266 0.961 . S
C267 H268 0.960 . S
H268 C267 0.960 . S
H269 N249 0.862 . S
O270 Co238 1.920 . S
O270 C243 1.289 . S
C271 O263 1.258 . S
C271 O264 1.266 . S
H272 C284 0.930 . S
H273 C286 0.930 . S
H274 C287 0.930 . S
H275 C291 0.959 . S
H276 C291 0.959 . S
H277 C291 0.961 . S
H278 C292 0.960 . S
H279 C292 0.961 1_455 S
H280 C292 0.959 . S
H281 C295 0.929 . S
H282 C296 0.931 . S
H283 C298 0.930 . S
C284 H272 0.930 . S
C284 C285 1.399 . S
C284 C289 1.399 . S
C285 C284 1.399 . S
C285 C286 1.376 . S
C286 H273 0.930 . S
C286 C285 1.376 . S
C286 C287 1.388 . S
C287 H274 0.930 . S
C287 C286 1.388 . S
C287 C288 1.390 . S
C288 C287 1.390 . S
C288 C289 1.394 . S
C288 C294 1.465 . S
C289 C284 1.399 . S
C289 C288 1.394 . S
C289 C290 1.516 1_655 S
C290 C289 1.516 1_455 S
C290 C291 1.502 . S
C290 C292 1.561 1_455 S
C290 C293 1.526 . S
C291 H275 0.959 . S
C291 H276 0.959 . S
C291 H277 0.961 . S
C291 C290 1.502 . S
C292 H278 0.960 . S
C292 H279 0.961 1_655 S
C292 H280 0.959 . S
C292 C290 1.561 1_655 S
C293 C290 1.526 . S
C293 C294 1.396 1_455 S
C293 C298 1.390 . S
C294 C288 1.465 . S
C294 C293 1.396 1_655 S
C294 C295 1.399 . S
C295 H281 0.929 . S
C295 C294 1.399 . S
C295 C296 1.385 1_655 S
C296 H282 0.931 . S
C296 C295 1.385 1_455 S
C296 C297 1.389 . S
C297 C296 1.389 . S
C297 C298 1.387 . S
C298 H283 0.930 . S
C298 C293 1.390 . S
C298 C297 1.387 . S
H299 C311 0.930 . S
H300 C313 0.930 . S
H301 C314 0.930 . S
H302 C318 0.959 . S
H303 C318 0.959 . S
H304 C318 0.961 1_655 S
H305 C319 0.960 . S
H306 C319 0.961 1_455 S
H307 C319 0.959 . S
H308 C322 0.929 . S
H309 C323 0.931 . S
H310 C325 0.930 . S
C311 H299 0.930 . S
C311 C312 1.399 . S
C311 C316 1.399 . S
C312 C311 1.399 . S
C312 C313 1.376 . S
C313 H300 0.930 . S
C313 C312 1.376 . S
C313 C314 1.388 . S
C314 H301 0.930 . S
C314 C313 1.388 . S
C314 C315 1.390 . S
C315 C314 1.390 . S
C315 C316 1.394 . S
C315 C321 1.465 1_655 S
C316 C311 1.399 . S
C316 C315 1.394 . S
C316 C317 1.516 . S
C317 C316 1.516 . S
C317 C318 1.502 1_655 S
C317 C319 1.561 . S
C317 C320 1.526 1_655 S
C318 H302 0.959 . S
C318 H303 0.959 . S
C318 H304 0.961 1_455 S
C318 C317 1.502 1_455 S
C319 H305 0.960 . S
C319 H306 0.961 1_655 S
C319 H307 0.959 . S
C319 C317 1.561 . S
C320 C317 1.526 1_455 S
C320 C321 1.396 . S
C320 C325 1.390 . S
C321 C315 1.465 1_455 S
C321 C320 1.396 . S
C321 C322 1.399 . S
C322 H308 0.929 . S
C322 C321 1.399 . S
C322 C323 1.385 . S
C323 H309 0.931 . S
C323 C322 1.385 . S
C323 C324 1.389 . S
C324 C323 1.389 . S
C324 C325 1.387 . S
C325 H310 0.930 . S
C325 C320 1.390 . S
C325 C324 1.387 . S
H326 C338 0.930 . S
H327 C340 0.930 . S
H328 C341 0.930 . S
H329 C345 0.959 . S
H330 C345 0.959 . S
H331 C345 0.961 . S
H332 C346 0.960 1_565 S
H333 C346 0.961 . S
H334 C346 0.959 1_565 S
H335 C349 0.929 . S
H336 C350 0.931 . S
H337 C352 0.930 . S
C338 H326 0.930 . S
C338 C339 1.399 . S
C338 C343 1.399 . S
C339 C338 1.399 . S
C339 C340 1.376 . S
C340 H327 0.930 . S
C340 C339 1.376 . S
C340 C341 1.388 . S
C341 H328 0.930 . S
C341 C340 1.388 . S
C341 C342 1.390 . S
C342 C341 1.390 . S
C342 C343 1.394 . S
C342 C348 1.465 1_565 S
C343 C338 1.399 . S
C343 C342 1.394 . S
C343 C344 1.516 1_565 S
C344 C343 1.516 1_545 S
C344 C345 1.502 . S
C344 C346 1.561 . S
C344 C347 1.526 . S
C345 H329 0.959 . S
C345 H330 0.959 . S
C345 H331 0.961 . S
C345 C344 1.502 . S
C346 H332 0.960 1_545 S
C346 H333 0.961 . S
C346 H334 0.959 1_545 S
C346 C344 1.561 . S
C347 C344 1.526 . S
C347 C348 1.396 . S
C347 C352 1.390 . S
C348 C342 1.465 1_545 S
C348 C347 1.396 . S
C348 C349 1.399 . S
C349 H335 0.929 . S
C349 C348 1.399 . S
C349 C350 1.385 . S
C350 H336 0.931 . S
C350 C349 1.385 . S
C350 C351 1.389 . S
C351 C350 1.389 . S
C351 C352 1.387 . S
C352 H337 0.930 . S
C352 C347 1.390 . S
C352 C351 1.387 . S
H353 C365 0.930 . S
H354 C367 0.930 . S
H355 C368 0.930 . S
H356 C372 0.959 . S
H357 C372 0.959 . S
H358 C372 0.961 . S
H359 C373 0.960 . S
H360 C373 0.961 . S
H361 C373 0.959 . S
H362 C376 0.929 1_565 S
H363 C377 0.931 . S
H364 C379 0.930 . S
C365 H353 0.930 . S
C365 C366 1.399 . S
C365 C370 1.399 . S
C366 C365 1.399 . S
C366 C367 1.376 . S
C367 H354 0.930 . S
C367 C366 1.376 . S
C367 C368 1.388 . S
C368 H355 0.930 . S
C368 C367 1.388 . S
C368 C369 1.390 . S
C369 C368 1.390 . S
C369 C370 1.394 . S
C369 C375 1.466 . S
C370 C365 1.399 . S
C370 C369 1.394 . S
C370 C371 1.516 1_565 S
C371 C370 1.516 1_545 S
C371 C372 1.502 . S
C371 C373 1.561 1_545 S
C371 C374 1.526 . S
C372 H356 0.959 . S
C372 H357 0.959 . S
C372 H358 0.961 . S
C372 C371 1.502 . S
C373 H359 0.960 . S
C373 H360 0.961 . S
C373 H361 0.959 . S
C373 C371 1.561 1_565 S
C374 C371 1.526 . S
C374 C375 1.396 1_545 S
C374 C379 1.390 . S
C375 C369 1.466 . S
C375 C374 1.396 1_565 S
C375 C376 1.399 1_565 S
C376 H362 0.929 1_545 S
C376 C375 1.399 1_545 S
C376 C377 1.385 . S
C377 H363 0.931 . S
C377 C376 1.385 . S
C377 C378 1.389 . S
C378 C377 1.389 . S
C378 C379 1.387 . S
C379 H364 0.930 . S
C379 C374 1.390 . S
C379 C378 1.387 . S
H380 C392 0.930 . S
H381 C394 0.930 . S
H382 C395 0.930 . S
H383 C399 0.959 . S
H384 C399 0.959 . S
H385 C399 0.961 . S
H386 C400 0.960 . S
H387 C400 0.961 . S
H388 C400 0.959 . S
H389 C403 0.929 . S
H390 C404 0.931 . S
H391 C406 0.930 . S
C392 H380 0.930 . S
C392 C393 1.399 . S
C392 C397 1.399 . S
C393 C392 1.399 . S
C393 C394 1.376 . S
C394 H381 0.930 . S
C394 C393 1.376 . S
C394 C395 1.388 . S
C395 H382 0.930 . S
C395 C394 1.388 . S
C395 C396 1.390 . S
C396 C395 1.390 . S
C396 C397 1.394 . S
C396 C402 1.465 . S
C397 C392 1.399 . S
C397 C396 1.394 . S
C397 C398 1.516 . S
C398 C397 1.516 . S
C398 C399 1.502 . S
C398 C400 1.561 . S
C398 C401 1.526 . S
C399 H383 0.959 . S
C399 H384 0.959 . S
C399 H385 0.961 . S
C399 C398 1.502 . S
C400 H386 0.960 . S
C400 H387 0.961 . S
C400 H388 0.959 . S
C400 C398 1.561 . S
C401 C398 1.526 . S
C401 C402 1.396 . S
C401 C406 1.390 . S
C402 C396 1.465 . S
C402 C401 1.396 . S
C402 C403 1.399 . S
C403 H389 0.929 . S
C403 C402 1.399 . S
C403 C404 1.385 . S
C404 H390 0.931 . S
C404 C403 1.385 . S
C404 C405 1.389 . S
C405 C404 1.389 . S
C405 C406 1.387 . S
C406 H391 0.930 . S
C406 C401 1.390 . S
C406 C405 1.387 . S
H407 C419 0.930 . S
H408 C421 0.930 . S
H409 C422 0.930 . S
H410 C426 0.959 . S
H411 C426 0.959 . S
H412 C426 0.961 . S
H413 C427 0.960 . S
H414 C427 0.961 . S
H415 C427 0.959 . S
H416 C430 0.929 . S
H417 C431 0.931 . S
H418 C433 0.930 . S
C419 H407 0.930 . S
C419 C420 1.399 . S
C419 C424 1.399 . S
C420 C419 1.399 . S
C420 C421 1.376 . S
C421 H408 0.930 . S
C421 C420 1.376 . S
C421 C422 1.388 . S
C422 H409 0.930 . S
C422 C421 1.388 . S
C422 C423 1.390 . S
C423 C422 1.390 . S
C423 C424 1.394 . S
C423 C429 1.465 . S
C424 C419 1.399 . S
C424 C423 1.394 . S
C424 C425 1.516 . S
C425 C424 1.516 . S
C425 C426 1.502 . S
C425 C427 1.561 . S
C425 C428 1.526 . S
C426 H410 0.959 . S
C426 H411 0.959 . S
C426 H412 0.961 . S
C426 C425 1.502 . S
C427 H413 0.960 . S
C427 H414 0.961 . S
C427 H415 0.959 . S
C427 C425 1.561 . S
C428 C425 1.526 . S
C428 C429 1.396 . S
C428 C433 1.390 . S
C429 C423 1.465 . S
C429 C428 1.396 . S
C429 C430 1.399 . S
C430 H416 0.929 . S
C430 C429 1.399 . S
C430 C431 1.385 . S
C431 H417 0.931 . S
C431 C430 1.385 . S
C431 C432 1.389 . S
C432 C431 1.389 . S
C432 C433 1.387 . S
C433 H418 0.930 . S
C433 C428 1.390 . S
C433 C432 1.387 . S
H434 C446 0.930 . S
H435 C448 0.930 . S
H436 C449 0.930 . S
H437 C453 0.959 . S
H438 C453 0.959 . S
H439 C453 0.961 . S
H440 C454 0.960 . S
H441 C454 0.961 . S
H442 C454 0.959 . S
H443 C457 0.929 . S
H444 C458 0.931 . S
H445 C460 0.930 . S
C446 H434 0.930 . S
C446 C447 1.399 . S
C446 C451 1.399 . S
C447 C446 1.399 . S
C447 C448 1.376 . S
C448 H435 0.930 . S
C448 C447 1.376 . S
C448 C449 1.388 . S
C449 H436 0.930 . S
C449 C448 1.388 . S
C449 C450 1.390 . S
C450 C449 1.390 . S
C450 C451 1.394 . S
C450 C456 1.465 . S
C451 C446 1.399 . S
C451 C450 1.394 . S
C451 C452 1.516 . S
C452 C451 1.516 . S
C452 C453 1.502 . S
C452 C454 1.561 . S
C452 C455 1.526 . S
C453 H437 0.959 . S
C453 H438 0.959 . S
C453 H439 0.961 . S
C453 C452 1.502 . S
C454 H440 0.960 . S
C454 H441 0.961 . S
C454 H442 0.959 . S
C454 C452 1.561 . S
C455 C452 1.526 . S
C455 C456 1.396 . S
C455 C460 1.390 . S
C456 C450 1.465 . S
C456 C455 1.396 . S
C456 C457 1.399 . S
C457 H443 0.929 . S
C457 C456 1.399 . S
C457 C458 1.385 . S
C458 H444 0.931 . S
C458 C457 1.385 . S
C458 C459 1.389 . S
C459 C458 1.389 . S
C459 C460 1.387 . S
C460 H445 0.930 . S
C460 C455 1.390 . S
C460 C459 1.387 . S
H461 C473 0.930 . S
H462 C475 0.930 . S
H463 C476 0.930 . S
H464 C480 0.959 . S
H465 C480 0.959 . S
H466 C480 0.961 . S
H467 C481 0.960 . S
H468 C481 0.961 . S
H469 C481 0.959 . S
H470 C484 0.929 . S
H471 C485 0.931 . S
H472 C487 0.930 . S
C473 H461 0.930 . S
C473 C474 1.399 . S
C473 C478 1.399 . S
C474 C473 1.399 . S
C474 C475 1.376 . S
C475 H462 0.930 . S
C475 C474 1.376 . S
C475 C476 1.388 . S
C476 H463 0.930 . S
C476 C475 1.388 . S
C476 C477 1.390 . S
C477 C476 1.390 . S
C477 C478 1.394 . S
C477 C483 1.465 . S
C478 C473 1.399 . S
C478 C477 1.394 . S
C478 C479 1.516 . S
C479 C478 1.516 . S
C479 C480 1.502 . S
C479 C481 1.561 . S
C479 C482 1.526 . S
C480 H464 0.959 . S
C480 H465 0.959 . S
C480 H466 0.961 . S
C480 C479 1.502 . S
C481 H467 0.960 . S
C481 H468 0.961 . S
C481 H469 0.959 . S
C481 C479 1.561 . S
C482 C479 1.526 . S
C482 C483 1.396 . S
C482 C487 1.390 . S
C483 C477 1.465 . S
C483 C482 1.396 . S
C483 C484 1.399 . S
C484 H470 0.929 . S
C484 C483 1.399 . S
C484 C485 1.385 . S
C485 H471 0.931 . S
C485 C484 1.385 . S
C485 C486 1.389 . S
C486 C485 1.389 . S
C486 C487 1.387 . S
C487 H472 0.930 . S
C487 C482 1.390 . S
C487 C486 1.387 . S
H488 C500 0.930 . S
H489 C502 0.930 . S
H490 C503 0.930 . S
H491 C507 0.959 . S
H492 C507 0.959 . S
H493 C507 0.961 . S
H494 C508 0.960 . S
H495 C508 0.961 . S
H496 C508 0.959 . S
H497 C511 0.929 . S
H498 C512 0.931 . S
H499 C514 0.930 . S
C500 H488 0.930 . S
C500 C501 1.399 . S
C500 C505 1.399 . S
C501 C500 1.399 . S
C501 C502 1.376 . S
C502 H489 0.930 . S
C502 C501 1.376 . S
C502 C503 1.388 . S
C503 H490 0.930 . S
C503 C502 1.388 . S
C503 C504 1.390 . S
C504 C503 1.390 . S
C504 C505 1.394 . S
C504 C510 1.465 . S
C505 C500 1.399 . S
C505 C504 1.394 . S
C505 C506 1.516 . S
C506 C505 1.516 . S
C506 C507 1.502 . S
C506 C508 1.561 . S
C506 C509 1.526 . S
C507 H491 0.959 . S
C507 H492 0.959 . S
C507 H493 0.961 . S
C507 C506 1.502 . S
C508 H494 0.960 . S
C508 H495 0.961 . S
C508 H496 0.959 . S
C508 C506 1.561 . S
C509 C506 1.526 . S
C509 C510 1.396 . S
C509 C514 1.390 . S
C510 C504 1.465 . S
C510 C509 1.396 . S
C510 C511 1.399 . S
C511 H497 0.929 . S
C511 C510 1.399 . S
C511 C512 1.385 . S
C512 H498 0.931 . S
C512 C511 1.385 . S
C512 C513 1.389 . S
C513 C512 1.389 . S
C513 C514 1.387 . S
C514 H499 0.930 . S
C514 C509 1.390 . S
C514 C513 1.387 . S
H515 C527 0.930 . S
H516 C529 0.930 . S
H517 C530 0.930 . S
H518 C534 0.959 . S
H519 C534 0.959 . S
H520 C534 0.961 . S
H521 C535 0.960 . S
H522 C535 0.961 . S
H523 C535 0.959 . S
H524 C538 0.929 . S
H525 C539 0.931 . S
H526 C541 0.930 . S
C527 H515 0.930 . S
C527 C528 1.399 . S
C527 C532 1.399 . S
C528 C527 1.399 . S
C528 C529 1.376 . S
C529 H516 0.930 . S
C529 C528 1.376 . S
C529 C530 1.388 . S
C530 H517 0.930 . S
C530 C529 1.388 . S
C530 C531 1.390 . S
C531 C530 1.390 . S
C531 C532 1.394 . S
C531 C537 1.465 . S
C532 C527 1.399 . S
C532 C531 1.394 . S
C532 C533 1.516 . S
C533 C532 1.516 . S
C533 C534 1.502 . S
C533 C535 1.561 . S
C533 C536 1.526 . S
C534 H518 0.959 . S
C534 H519 0.959 . S
C534 H520 0.961 . S
C534 C533 1.502 . S
C535 H521 0.960 . S
C535 H522 0.961 . S
C535 H523 0.959 . S
C535 C533 1.561 . S
C536 C533 1.526 . S
C536 C537 1.396 . S
C536 C541 1.390 . S
C537 C531 1.465 . S
C537 C536 1.396 . S
C537 C538 1.399 . S
C538 H524 0.929 . S
C538 C537 1.399 . S
C538 C539 1.385 . S
C539 H525 0.931 . S
C539 C538 1.385 . S
C539 C540 1.389 . S
C540 C539 1.389 . S
C540 C541 1.387 . S
C541 H526 0.930 . S
C541 C536 1.390 . S
C541 C540 1.387 . S
H542 C554 0.930 . S
H543 C556 0.930 . S
H544 C557 0.930 . S
H545 C561 0.959 . S
H546 C561 0.959 . S
H547 C561 0.961 . S
H548 C562 0.960 . S
H549 C562 0.961 . S
H550 C562 0.959 . S
H551 C565 0.929 . S
H552 C566 0.931 . S
H553 C568 0.930 . S
C554 H542 0.930 . S
C554 C555 1.399 . S
C554 C559 1.399 . S
C555 C554 1.399 . S
C555 C556 1.376 . S
C556 H543 0.930 . S
C556 C555 1.376 . S
C556 C557 1.388 . S
C557 H544 0.930 . S
C557 C556 1.388 . S
C557 C558 1.390 . S
C558 C557 1.390 . S
C558 C559 1.394 . S
C558 C564 1.465 . S
C559 C554 1.399 . S
C559 C558 1.394 . S
C559 C560 1.516 . S
C560 C559 1.516 . S
C560 C561 1.502 . S
C560 C562 1.561 . S
C560 C563 1.526 . S
C561 H545 0.959 . S
C561 H546 0.959 . S
C561 H547 0.961 . S
C561 C560 1.502 . S
C562 H548 0.960 . S
C562 H549 0.961 . S
C562 H550 0.959 . S
C562 C560 1.561 . S
C563 C560 1.526 . S
C563 C564 1.396 . S
C563 C568 1.390 . S
C564 C558 1.465 . S
C564 C563 1.396 . S
C564 C565 1.399 . S
C565 H551 0.929 . S
C565 C564 1.399 . S
C565 C566 1.385 . S
C566 H552 0.931 . S
C566 C565 1.385 . S
C566 C567 1.389 . S
C567 C566 1.389 . S
C567 C568 1.387 . S
C568 H553 0.930 . S
C568 C563 1.390 . S
C568 C567 1.387 . S
H569 C581 0.930 . S
H570 C583 0.930 . S
H571 C584 0.930 . S
H572 C588 0.959 . S
H573 C588 0.959 . S
H574 C588 0.961 . S
H575 C589 0.960 . S
H576 C589 0.961 . S
H577 C589 0.959 . S
H578 C592 0.929 . S
H579 C593 0.931 . S
H580 C595 0.930 . S
C581 H569 0.930 . S
C581 C582 1.399 . S
C581 C586 1.399 . S
C582 C581 1.399 . S
C582 C583 1.376 . S
C583 H570 0.930 . S
C583 C582 1.376 . S
C583 C584 1.388 . S
C584 H571 0.930 . S
C584 C583 1.388 . S
C584 C585 1.390 . S
C585 C584 1.390 . S
C585 C586 1.394 . S
C585 C591 1.465 . S
C586 C581 1.399 . S
C586 C585 1.394 . S
C586 C587 1.516 . S
C587 C586 1.516 . S
C587 C588 1.502 . S
C587 C589 1.561 . S
C587 C590 1.526 . S
C588 H572 0.959 . S
C588 H573 0.959 . S
C588 H574 0.961 . S
C588 C587 1.502 . S
C589 H575 0.960 . S
C589 H576 0.961 . S
C589 H577 0.959 . S
C589 C587 1.561 . S
C590 C587 1.526 . S
C590 C591 1.396 . S
C590 C595 1.390 . S
C591 C585 1.465 . S
C591 C590 1.396 . S
C591 C592 1.399 . S
C592 H578 0.929 . S
C592 C591 1.399 . S
C592 C593 1.385 . S
C593 H579 0.931 . S
C593 C592 1.385 . S
C593 C594 1.389 . S
C594 C593 1.389 . S
C594 C595 1.387 . S
C595 H580 0.930 . S
C595 C590 1.390 . S
C595 C594 1.387 . S
H596 C608 0.930 . S
H597 C610 0.930 . S
H598 C611 0.930 . S
H599 C615 0.959 . S
H600 C615 0.959 . S
H601 C615 0.961 . S
H602 C616 0.960 . S
H603 C616 0.961 . S
H604 C616 0.959 . S
H605 C619 0.929 . S
H606 C620 0.931 . S
H607 C622 0.930 . S
C608 H596 0.930 . S
C608 C609 1.399 . S
C608 C613 1.399 . S
C609 C608 1.399 . S
C609 C610 1.376 . S
C610 H597 0.930 . S
C610 C609 1.376 . S
C610 C611 1.388 . S
C611 H598 0.930 . S
C611 C610 1.388 . S
C611 C612 1.390 . S
C612 C611 1.390 . S
C612 C613 1.394 . S
C612 C618 1.465 . S
C613 C608 1.399 . S
C613 C612 1.394 . S
C613 C614 1.516 . S
C614 C613 1.516 . S
C614 C615 1.502 . S
C614 C616 1.561 . S
C614 C617 1.526 . S
C615 H599 0.959 . S
C615 H600 0.959 . S
C615 H601 0.961 . S
C615 C614 1.502 . S
C616 H602 0.960 . S
C616 H603 0.961 . S
C616 H604 0.959 . S
C616 C614 1.561 . S
C617 C614 1.526 . S
C617 C618 1.396 . S
C617 C622 1.390 . S
C618 C612 1.465 . S
C618 C617 1.396 . S
C618 C619 1.399 . S
C619 H605 0.929 . S
C619 C618 1.399 . S
C619 C620 1.385 . S
C620 H606 0.931 . S
C620 C619 1.385 . S
C620 C621 1.389 . S
C621 C620 1.389 . S
C621 C622 1.387 . S
C622 H607 0.930 . S
C622 C617 1.390 . S
C622 C621 1.387 . S
H623 C635 0.930 . S
H624 C637 0.930 . S
H625 C638 0.930 . S
H626 C642 0.960 1_554 S
H627 C642 0.959 . S
H628 C642 0.961 . S
H629 C643 0.960 . S
H630 C643 0.961 . S
H631 C643 0.959 . S
H632 C646 0.929 . S
H633 C647 0.931 . S
H634 C649 0.930 . S
C635 H623 0.930 . S
C635 C636 1.399 . S
C635 C640 1.399 . S
C636 C635 1.399 . S
C636 C637 1.376 . S
C637 H624 0.930 . S
C637 C636 1.376 . S
C637 C638 1.388 . S
C638 H625 0.930 . S
C638 C637 1.388 . S
C638 C639 1.390 . S
C639 C638 1.390 . S
C639 C640 1.394 . S
C639 C645 1.465 1_554 S
C640 C635 1.399 . S
C640 C639 1.394 . S
C640 C641 1.516 1_554 S
C641 C640 1.516 1_556 S
C641 C642 1.502 . S
C641 C643 1.561 . S
C641 C644 1.526 . S
C642 H626 0.960 1_556 S
C642 H627 0.959 . S
C642 H628 0.961 . S
C642 C641 1.502 . S
C643 H629 0.960 . S
C643 H630 0.961 . S
C643 H631 0.959 . S
C643 C641 1.561 . S
C644 C641 1.526 . S
C644 C645 1.396 . S
C644 C649 1.390 . S
C645 C639 1.465 1_556 S
C645 C644 1.396 . S
C645 C646 1.399 . S
C646 H632 0.929 . S
C646 C645 1.399 . S
C646 C647 1.385 . S
C647 H633 0.931 . S
C647 C646 1.385 . S
C647 C648 1.389 . S
C648 C647 1.389 . S
C648 C649 1.387 . S
C649 H634 0.930 . S
C649 C644 1.390 . S
C649 C648 1.387 . S
H650 C662 0.930 . S
H651 C664 0.930 . S
H652 C665 0.930 . S
H653 C669 0.959 . S
H654 C669 0.959 . S
H655 C669 0.961 . S
H656 C670 0.960 . S
H657 C670 0.961 . S
H658 C670 0.959 . S
H659 C673 0.929 . S
H660 C674 0.931 . S
H661 C676 0.930 . S
C662 H650 0.930 . S
C662 C663 1.399 . S
C662 C667 1.399 . S
C663 C662 1.399 . S
C663 C664 1.376 . S
C664 H651 0.930 . S
C664 C663 1.376 . S
C664 C665 1.388 . S
C665 H652 0.930 . S
C665 C664 1.388 . S
C665 C666 1.390 . S
C666 C665 1.390 . S
C666 C667 1.394 . S
C666 C672 1.465 . S
C667 C662 1.399 . S
C667 C666 1.394 . S
C667 C668 1.516 . S
C668 C667 1.516 . S
C668 C669 1.502 . S
C668 C670 1.561 . S
C668 C671 1.526 . S
C669 H653 0.959 . S
C669 H654 0.959 . S
C669 H655 0.961 . S
C669 C668 1.502 . S
C670 H656 0.960 . S
C670 H657 0.961 . S
C670 H658 0.959 . S
C670 C668 1.561 . S
C671 C668 1.526 . S
C671 C672 1.396 . S
C671 C676 1.390 . S
C672 C666 1.465 . S
C672 C671 1.396 . S
C672 C673 1.399 . S
C673 H659 0.929 . S
C673 C672 1.399 . S
C673 C674 1.385 . S
C674 H660 0.931 . S
C674 C673 1.385 . S
C674 C675 1.389 . S
C675 C674 1.389 . S
C675 C676 1.387 . S
C676 H661 0.930 . S
C676 C671 1.390 . S
C676 C675 1.387 . S
H677 C689 0.930 . S
H678 C691 0.930 . S
H679 C692 0.930 . S
H680 C696 0.959 1_554 S
H681 C696 0.959 . S
H682 C696 0.961 . S
H683 C697 0.960 . S
H684 C697 0.961 . S
H685 C697 0.959 . S
H686 C700 0.929 . S
H687 C701 0.931 . S
H688 C703 0.930 . S
C689 H677 0.930 . S
C689 C690 1.399 . S
C689 C694 1.399 . S
C690 C689 1.399 . S
C690 C691 1.376 . S
C691 H678 0.930 . S
C691 C690 1.376 . S
C691 C692 1.388 . S
C692 H679 0.930 . S
C692 C691 1.388 . S
C692 C693 1.390 . S
C693 C692 1.390 . S
C693 C694 1.394 . S
C693 C699 1.465 1_554 S
C694 C689 1.399 . S
C694 C693 1.394 . S
C694 C695 1.516 1_554 S
C695 C694 1.516 1_556 S
C695 C696 1.502 . S
C695 C697 1.561 . S
C695 C698 1.526 . S
C696 H680 0.959 1_556 S
C696 H681 0.959 . S
C696 H682 0.961 . S
C696 C695 1.502 . S
C697 H683 0.960 . S
C697 H684 0.961 . S
C697 H685 0.959 . S
C697 C695 1.561 . S
C698 C695 1.526 . S
C698 C699 1.396 . S
C698 C703 1.390 . S
C699 C693 1.465 1_556 S
C699 C698 1.396 . S
C699 C700 1.399 . S
C700 H686 0.929 . S
C700 C699 1.399 . S
C700 C701 1.385 . S
C701 H687 0.931 . S
C701 C700 1.385 . S
C701 C702 1.389 . S
C702 C701 1.389 . S
C702 C703 1.387 . S
C703 H688 0.930 . S
C703 C698 1.390 . S
C703 C702 1.387 . S
H704 C716 0.930 . S
H705 C718 0.930 . S
H706 C719 0.930 1_455 S
H707 C723 0.959 . S
H708 C723 0.959 . S
H709 C723 0.943 1_565 S
H710 C724 0.960 . S
H711 C724 0.961 1_545 S
H712 C724 0.959 . S
H713 C727 0.929 . S
H714 C728 0.931 . S
H715 C730 0.930 . S
C716 H704 0.930 . S
C716 C717 1.399 . S
C716 C721 1.399 . S
C717 C716 1.399 . S
C717 C718 1.376 . S
C718 H705 0.930 . S
C718 C717 1.376 . S
C718 C719 1.388 . S
C719 H706 0.930 1_655 S
C719 C718 1.388 . S
C719 C720 1.389 1_655 S
C720 C719 1.389 1_455 S
C720 C721 1.390 1_455 S
C720 C726 1.469 1_565 S
C721 C716 1.399 . S
C721 C720 1.390 1_655 S
C721 C722 1.516 1_565 S
C722 C721 1.516 1_545 S
C722 C723 1.502 . S
C722 C724 1.561 1_645 S
C722 C725 1.526 1_655 S
C723 H707 0.959 . S
C723 H708 0.959 . S
C723 H709 0.943 1_545 S
C723 C722 1.502 . S
C724 H710 0.960 . S
C724 H711 0.961 1_565 S
C724 H712 0.959 . S
C724 C722 1.561 1_465 S
C725 C722 1.526 1_455 S
C725 C726 1.396 . S
C725 C730 1.390 . S
C726 C720 1.469 1_545 S
C726 C725 1.396 . S
C726 C727 1.399 . S
C727 H713 0.929 . S
C727 C726 1.399 . S
C727 C728 1.385 . S
C728 H714 0.931 . S
C728 C727 1.385 . S
C728 C729 1.389 . S
C729 C728 1.389 . S
C729 C730 1.387 . S
C730 H715 0.930 . S
C730 C725 1.390 . S
C730 C729 1.387 . S
H731 C743 0.930 . S
H732 C745 0.930 . S
H733 C746 0.930 . S
H734 C750 0.959 . S
H735 C750 0.959 . S
H736 C750 0.961 . S
H737 C751 0.960 . S
H738 C751 0.961 . S
H739 C751 0.959 . S
H740 C754 0.929 . S
H741 C755 0.931 . S
H742 C757 0.930 . S
C743 H731 0.930 . S
C743 C744 1.399 . S
C743 C748 1.399 . S
C744 C743 1.399 . S
C744 C745 1.376 . S
C745 H732 0.930 . S
C745 C744 1.376 . S
C745 C746 1.388 . S
C746 H733 0.930 . S
C746 C745 1.388 . S
C746 C747 1.390 . S
C747 C746 1.390 . S
C747 C748 1.394 . S
C747 C753 1.465 . S
C748 C743 1.399 . S
C748 C747 1.394 . S
C748 C749 1.516 . S
C749 C748 1.516 . S
C749 C750 1.502 . S
C749 C751 1.561 . S
C749 C752 1.526 . S
C750 H734 0.959 . S
C750 H735 0.959 . S
C750 H736 0.961 . S
C750 C749 1.502 . S
C751 H737 0.960 . S
C751 H738 0.961 . S
C751 H739 0.959 . S
C751 C749 1.561 . S
C752 C749 1.526 . S
C752 C753 1.396 . S
C752 C757 1.390 . S
C753 C747 1.465 . S
C753 C752 1.396 . S
C753 C754 1.399 . S
C754 H740 0.929 . S
C754 C753 1.399 . S
C754 C755 1.385 . S
C755 H741 0.931 . S
C755 C754 1.385 . S
C755 C756 1.389 . S
C756 C755 1.389 . S
C756 C757 1.387 . S
C757 H742 0.930 . S
C757 C752 1.390 . S
C757 C756 1.387 . S
H758 C770 0.930 . S
H759 C772 0.930 . S
H760 C773 0.930 . S
H761 C777 0.959 . S
H762 C777 0.959 . S
H763 C777 0.961 . S
H764 C778 0.960 . S
H765 C778 0.961 . S
H766 C778 0.959 . S
H767 C781 0.929 . S
H768 C782 0.931 . S
H769 C784 0.930 . S
C770 H758 0.930 . S
C770 C771 1.399 . S
C770 C775 1.399 . S
C771 C770 1.399 . S
C771 C772 1.376 . S
C772 H759 0.930 . S
C772 C771 1.376 . S
C772 C773 1.388 . S
C773 H760 0.930 . S
C773 C772 1.388 . S
C773 C774 1.390 . S
C774 C773 1.390 . S
C774 C775 1.394 . S
C774 C780 1.465 . S
C775 C770 1.399 . S
C775 C774 1.394 . S
C775 C776 1.516 . S
C776 C775 1.516 . S
C776 C777 1.502 . S
C776 C778 1.561 . S
C776 C779 1.526 . S
C777 H761 0.959 . S
C777 H762 0.959 . S
C777 H763 0.961 . S
C777 C776 1.502 . S
C778 H764 0.960 . S
C778 H765 0.961 . S
C778 H766 0.959 . S
C778 C776 1.561 . S
C779 C776 1.526 . S
C779 C780 1.396 . S
C779 C784 1.390 . S
C780 C774 1.465 . S
C780 C779 1.396 . S
C780 C781 1.399 . S
C781 H767 0.929 . S
C781 C780 1.399 . S
C781 C782 1.385 . S
C782 H768 0.931 . S
C782 C781 1.385 . S
C782 C783 1.389 . S
C783 C782 1.389 . S
C783 C784 1.387 . S
C784 H769 0.930 . S
C784 C779 1.390 . S
C784 C783 1.387 . S
H785 C797 0.930 . S
H786 C799 0.930 . S
H787 C800 0.930 . S
H788 C804 0.959 . S
H789 C804 0.959 . S
H790 C804 0.961 . S
H791 C805 0.960 1_545 S
H792 C805 0.961 1_655 S
H793 C805 0.959 . S
H794 C808 0.929 . S
H795 C809 0.931 . S
H796 C811 0.930 . S
C797 H785 0.930 . S
C797 C798 1.399 . S
C797 C802 1.399 . S
C798 C797 1.399 . S
C798 C799 1.376 . S
C799 H786 0.930 . S
C799 C798 1.376 . S
C799 C800 1.388 1_545 S
C800 H787 0.930 . S
C800 C799 1.388 1_565 S
C800 C801 1.390 . S
C801 C800 1.390 . S
C801 C802 1.394 1_565 S
C801 C807 1.465 1_455 S
C802 C797 1.399 . S
C802 C801 1.394 1_545 S
C802 C803 1.516 1_455 S
C803 C802 1.516 1_655 S
C803 C804 1.502 . S
C803 C805 1.561 1_645 S
C803 C806 1.526 1_545 S
C804 H788 0.959 . S
C804 H789 0.959 . S
C804 H790 0.961 . S
C804 C803 1.502 . S
C805 H791 0.960 1_565 S
C805 H792 0.961 1_455 S
C805 H793 0.959 . S
C805 C803 1.561 1_465 S
C806 C803 1.526 1_565 S
C806 C807 1.396 . S
C806 C811 1.390 . S
C807 C801 1.465 1_655 S
C807 C806 1.396 . S
C807 C808 1.399 . S
C808 H794 0.929 . S
C808 C807 1.399 . S
C808 C809 1.385 . S
C809 H795 0.931 . S
C809 C808 1.385 . S
C809 C810 1.389 . S
C810 C809 1.389 . S
C810 C811 1.387 . S
C811 H796 0.930 . S
C811 C806 1.390 . S
C811 C810 1.387 . S
C285 C77 0.376 . S
C297 C9 0.363 . S
C312 C111 0.604 . S
C324 C43 0.606 . S
C339 C213 0.560 . S
C351 C145 0.570 . S
C366 C247 0.358 . S
C378 C179 0.347 . S
C393 C156 2.414 . S
C405 C33 2.392 . S
C420 C190 2.397 . S
C432 C67 2.409 . S
C447 C224 2.401 . S
C459 C101 2.415 . S
C474 C135 2.417 . S
C486 C258 2.397 . S
C501 C20 2.405 . S
C513 C169 2.412 . S
C528 C54 2.409 . S
C540 C203 2.409 . S
C555 C88 2.414 . S
C567 C237 2.392 . S
C582 C271 2.416 . S
C594 C122 2.395 . S
C609 C2 1.746 . S
C621 C172 1.724 . S
C636 C206 1.705 . S
C648 C36 1.723 . S
C663 C240 1.697 . S
C675 C70 1.738 . S
C690 C138 1.706 . S
C702 C104 1.722 . S
C717 C73 0.429 . S
C729 C5 0.543 . S
C744 C39 0.367 . S
C756 C107 0.562 . S
C771 C209 0.483 . S
C783 C141 0.338 . S
C798 C175 0.406 . S
C810 C243 0.553 . S
