# Generated by pormake.
# Topology nfc, (4)-cn, num edge types: 1
# Building blocks:
#     Node 0, Type 0, BuildingBlock: KOZSID_clean_sbu_0, # of connection points: 4
#     Node 1, Type 0, BuildingBlock: KOZSID_clean_sbu_0, # of connection points: 4
#     Node 2, Type 0, BuildingBlock: KOZSID_clean_sbu_0, # of connection points: 4
#     Node 3, Type 0, BuildingBlock: KOZSID_clean_sbu_0, # of connection points: 4
#     Node 4, Type 0, BuildingBlock: KOZSID_clean_sbu_0, # of connection points: 4
#     Node 5, Type 0, BuildingBlock: KOZSID_clean_sbu_0, # of connection points: 4
#     Node 6, Type 0, BuildingBlock: KOZSID_clean_sbu_0, # of connection points: 4
#     Node 7, Type 0, BuildingBlock: KOZSID_clean_sbu_0, # of connection points: 4
#     Node 8, Type 0, BuildingBlock: KOZSID_clean_sbu_0, # of connection points: 4
#     Node 9, Type 0, BuildingBlock: KOZSID_clean_sbu_0, # of connection points: 4
#     Node 10, Type 0, BuildingBlock: KOZSID_clean_sbu_0, # of connection points: 4
#     Node 11, Type 0, BuildingBlock: KOZSID_clean_sbu_0, # of connection points: 4
#     Node 12, Type 0, BuildingBlock: KOZSID_clean_sbu_0, # of connection points: 4
#     Node 13, Type 0, BuildingBlock: KOZSID_clean_sbu_0, # of connection points: 4
#     Node 14, Type 0, BuildingBlock: KOZSID_clean_sbu_0, # of connection points: 4
#     Node 15, Type 0, BuildingBlock: KOZSID_clean_sbu_0, # of connection points: 4
#     Edge 16, Type (0, 0), BuildingBlock: KIFKEQ_clean_linker_1, # of connection points: 2
#     Edge 17, Type (0, 0), BuildingBlock: KIFKEQ_clean_linker_1, # of connection points: 2
#     Edge 18, Type (0, 0), BuildingBlock: KIFKEQ_clean_linker_1, # of connection points: 2
#     Edge 19, Type (0, 0), BuildingBlock: KIFKEQ_clean_linker_1, # of connection points: 2
#     Edge 20, Type (0, 0), BuildingBlock: KIFKEQ_clean_linker_1, # of connection points: 2
#     Edge 21, Type (0, 0), BuildingBlock: KIFKEQ_clean_linker_1, # of connection points: 2
#     Edge 22, Type (0, 0), BuildingBlock: KIFKEQ_clean_linker_1, # of connection points: 2
#     Edge 23, Type (0, 0), BuildingBlock: KIFKEQ_clean_linker_1, # of connection points: 2
#     Edge 24, Type (0, 0), BuildingBlock: KIFKEQ_clean_linker_1, # of connection points: 2
#     Edge 25, Type (0, 0), BuildingBlock: KIFKEQ_clean_linker_1, # of connection points: 2
#     Edge 26, Type (0, 0), BuildingBlock: KIFKEQ_clean_linker_1, # of connection points: 2
#     Edge 27, Type (0, 0), BuildingBlock: KIFKEQ_clean_linker_1, # of connection points: 2
#     Edge 28, Type (0, 0), BuildingBlock: KIFKEQ_clean_linker_1, # of connection points: 2
#     Edge 29, Type (0, 0), BuildingBlock: KIFKEQ_clean_linker_1, # of connection points: 2
#     Edge 30, Type (0, 0), BuildingBlock: KIFKEQ_clean_linker_1, # of connection points: 2
#     Edge 31, Type (0, 0), BuildingBlock: KIFKEQ_clean_linker_1, # of connection points: 2
#     Edge 32, Type (0, 0), BuildingBlock: KIFKEQ_clean_linker_1, # of connection points: 2
#     Edge 33, Type (0, 0), BuildingBlock: KIFKEQ_clean_linker_1, # of connection points: 2
#     Edge 34, Type (0, 0), BuildingBlock: KIFKEQ_clean_linker_1, # of connection points: 2
#     Edge 35, Type (0, 0), BuildingBlock: KIFKEQ_clean_linker_1, # of connection points: 2
#     Edge 36, Type (0, 0), BuildingBlock: KIFKEQ_clean_linker_1, # of connection points: 2
#     Edge 37, Type (0, 0), BuildingBlock: KIFKEQ_clean_linker_1, # of connection points: 2
#     Edge 38, Type (0, 0), BuildingBlock: KIFKEQ_clean_linker_1, # of connection points: 2
#     Edge 39, Type (0, 0), BuildingBlock: KIFKEQ_clean_linker_1, # of connection points: 2
#     Edge 40, Type (0, 0), BuildingBlock: KIFKEQ_clean_linker_1, # of connection points: 2
#     Edge 41, Type (0, 0), BuildingBlock: KIFKEQ_clean_linker_1, # of connection points: 2
#     Edge 42, Type (0, 0), BuildingBlock: KIFKEQ_clean_linker_1, # of connection points: 2
#     Edge 43, Type (0, 0), BuildingBlock: KIFKEQ_clean_linker_1, # of connection points: 2
#     Edge 44, Type (0, 0), BuildingBlock: KIFKEQ_clean_linker_1, # of connection points: 2
#     Edge 45, Type (0, 0), BuildingBlock: KIFKEQ_clean_linker_1, # of connection points: 2
#     Edge 46, Type (0, 0), BuildingBlock: KIFKEQ_clean_linker_1, # of connection points: 2
#     Edge 47, Type (0, 0), BuildingBlock: KIFKEQ_clean_linker_1, # of connection points: 2
# Relax obj value: 0.074
# Max RMSD: 0.147
# Mean RMSD: 0.115
data_MOF--net-nfc--node1-KOZSID_clean_sbu_0--edge1-KIFKEQ_clean_linker_1
_symmetry_space_group_name_H-M    P1
_symmetry_Int_Tables_number       1
_symmetry_cell_setting            triclinic
loop_
_symmetry_equiv_pos_as_xyz
'x, y, z'
_cell_length_a     43.791947
_cell_length_b     43.874659
_cell_length_c     35.902756
_cell_angle_alpha  84.094781
_cell_angle_beta   86.250281
_cell_angle_gamma 84.923605
loop_
_atom_site_label
_atom_site_type_symbol
_atom_site_fract_x
_atom_site_fract_y
_atom_site_fract_z
_atom_type_partial_charge
C0 C 0.97701 0.02125 0.08698 0.0
C1 C 0.95424 0.04076 0.1028 0.0
C2 C 0.93804 0.05562 0.07405 0.0
C3 C 0.95151 0.04444 0.04211 0.0
N4 N 0.97514 0.02296 0.04858 0.0
Co5 Co 1.00103 0.00238 0.00778 0.0
N6 N 0.97757 0.02503 0.96509 0.0
C7 C 0.95277 0.04517 0.96974 0.0
C8 C 0.94021 0.05687 0.93674 0.0
C9 C 0.95771 0.04313 0.90921 0.0
C10 C 0.98009 0.02343 0.92677 0.0
N11 N 0.02765 0.98267 0.9669 0.0
C12 C 0.0264 0.98504 0.92837 0.0
C13 C 0.04938 0.9657 0.91262 0.0
C14 C 0.06563 0.951 0.94141 0.0
C15 C 0.05182 0.96184 0.97335 0.0
N16 N 0.02385 0.97901 0.05056 0.0
C17 C 0.04746 0.95748 0.04606 0.0
C18 C 0.05973 0.9454 0.07909 0.0
C19 C 0.04306 0.96008 0.10652 0.0
C20 C 0.02119 0.9804 0.08891 0.0
N21 N 0.97274 0.9693 0.0099 0.0
C22 C 0.93214 0.92696 0.99374 0.0
C23 C 0.96378 0.91899 0.99355 0.0
C24 C 0.98344 0.94013 1.00251 0.0
C25 C 0.92108 0.95496 0.00696 0.0
C26 C 0.94163 0.97567 0.01469 0.0
N27 N 0.0291 0.03548 1.00572 0.0
C28 C 0.0785 0.05076 0.01904 0.0
C29 C 0.06558 0.08041 0.02363 0.0
C30 C 0.03521 0.08823 0.0147 0.0
C31 C 0.01766 0.0656 1.00495 0.0
C32 C 0.0599 0.02871 0.00996 0.0
H33 H 0.99448 0.07268 0.99893 0.0
H34 H 0.07053 0.00606 0.0086 0.0
H35 H 0.00726 0.93281 1.00147 0.0
H36 H 0.93167 0.9971 0.02297 0.0
C37 C 0.94225 0.05305 1.00554 0.0
C38 C 0.99932 0.00124 0.11009 0.0
C39 C 0.00328 0.00405 0.90535 0.0
C40 C 0.05917 0.95103 0.01014 0.0
H41 H 0.94963 0.04389 0.13219 0.0
H42 H 0.91865 0.07257 0.0762 0.0
H43 H 0.92062 0.07354 0.93309 0.0
H44 H 0.95433 0.04728 0.87949 0.0
H45 H 0.05357 0.96186 0.88339 0.0
H46 H 0.08469 0.93366 0.93937 0.0
H47 H 0.07917 0.92856 0.08274 0.0
H48 H 0.04713 0.95665 0.13609 0.0
H49 H 0.97374 0.89739 0.98432 0.0
H50 H 0.89669 0.96161 0.00965 0.0
H51 H 0.10217 0.044 0.02523 0.0
H52 H 0.02468 0.1113 0.01703 0.0
C53 C 0.24952 0.79231 0.30689 0.0
C54 C 0.26525 0.81393 0.32176 0.0
C55 C 0.29549 0.80824 0.311 0.0
C56 C 0.29649 0.78364 0.29021 0.0
N57 N 0.26867 0.77338 0.2867 0.0
Co58 Co 0.2597 0.73768 0.25954 0.0
N59 N 0.30447 0.72821 0.24562 0.0
C60 C 0.32823 0.74324 0.25469 0.0
C61 C 0.35631 0.73162 0.24101 0.0
C62 C 0.35019 0.7079 0.2217 0.0
C63 C 0.31855 0.70653 0.22459 0.0
N64 N 0.25073 0.70198 0.23235 0.0
C65 C 0.26991 0.68289 0.21239 0.0
C66 C 0.25403 0.66174 0.19683 0.0
C67 C 0.22377 0.66764 0.20729 0.0
C68 C 0.22284 0.69202 0.22841 0.0
N69 N 0.21491 0.74711 0.27357 0.0
C70 C 0.19118 0.73192 0.2648 0.0
C71 C 0.16318 0.74306 0.27929 0.0
C72 C 0.16934 0.76665 0.29881 0.0
C73 C 0.20089 0.76857 0.29498 0.0
N74 N 0.25569 0.76522 0.21241 0.0
C75 C 0.25352 0.7987 0.14141 0.0
C76 C 0.22973 0.78084 0.15537 0.0
C77 C 0.2313 0.76439 0.19063 0.0
C78 C 0.27751 0.80103 0.1644 0.0
C79 C 0.27794 0.7845 0.19976 0.0
N80 N 0.26363 0.7102 0.30669 0.0
C81 C 0.24085 0.6755 0.35513 0.0
C82 C 0.26378 0.67919 0.37907 0.0
C83 C 0.28794 0.69658 0.36521 0.0
C84 C 0.28741 0.71179 0.32919 0.0
C85 C 0.24148 0.69075 0.31905 0.0
H86 H 0.30582 0.7257 0.32083 0.0
H87 H 0.2232 0.68733 0.30224 0.0
H88 H 0.21297 0.75042 0.19905 0.0
H89 H 0.29692 0.78706 0.21586 0.0
C90 C 0.32331 0.76883 0.27512 0.0
C91 C 0.2165 0.79044 0.3133 0.0
C92 C 0.30301 0.6846 0.20625 0.0
C93 C 0.19606 0.70662 0.24389 0.0
H94 H 0.25586 0.83174 0.33898 0.0
H95 H 0.31454 0.82025 0.31807 0.0
H96 H 0.37855 0.7397 0.24427 0.0
H97 H 0.36711 0.69343 0.20682 0.0
H98 H 0.26327 0.64415 0.17921 0.0
H99 H 0.20466 0.6559 0.19984 0.0
H100 H 0.141 0.73468 0.27655 0.0
H101 H 0.15254 0.78055 0.31459 0.0
H102 H 0.21075 0.7782 0.13839 0.0
H103 H 0.29624 0.81497 0.15479 0.0
H104 H 0.22195 0.66175 0.36464 0.0
H105 H 0.30622 0.70008 0.38288 0.0
C106 C 0.44399 0.98181 0.55444 0.0
C107 C 0.4176 0.99558 0.57125 0.0
C108 C 0.41668 0.02629 0.55932 0.0
C109 C 0.44256 0.02974 0.53612 0.0
N110 N 0.46009 0.00324 0.53288 0.0
Co111 Co 0.49939 0.99919 0.50105 0.0
N112 N 0.50287 0.0448 0.49323 0.0
C113 C 0.4802 0.06626 0.50147 0.0
C114 C 0.4882 0.0958 0.49286 0.0
C115 C 0.51768 0.09298 0.47762 0.0
C116 C 0.52609 0.06174 0.47754 0.0
N117 N 0.53852 0.99509 0.46892 0.0
C118 C 0.55879 0.0161 0.45512 0.0
C119 C 0.58208 0.00274 0.43253 0.0
C120 C 0.57617 0.9727 0.43172 0.0
C121 C 0.54965 0.96926 0.45373 0.0
N122 N 0.49592 0.95362 0.50897 0.0
C123 C 0.51221 0.93282 0.48892 0.0
C124 C 0.50507 0.90319 0.4993 0.0
C125 C 0.48257 0.90531 0.52748 0.0
C126 C 0.47717 0.93623 0.53289 0.0
N127 N 0.47571 0.00176 0.45627 0.0
C128 C 0.4431 0.00496 0.39158 0.0
C129 C 0.43464 0.98571 0.4233 0.0
C130 C 0.45098 0.98481 0.45562 0.0
C131 C 0.46782 0.02274 0.39281 0.0
C132 C 0.484 0.02055 0.42515 0.0
N133 N 0.52294 0.99664 0.54566 0.0
C134 C 0.56134 0.97017 0.58487 0.0
C135 C 0.55311 0.99007 0.61258 0.0
C136 C 0.53036 0.01409 0.60539 0.0
C137 C 0.5156 0.01694 0.57187 0.0
C138 C 0.54608 0.97395 0.55155 0.0
H139 H 0.4976 0.03505 0.56776 0.0
H140 H 0.55252 0.95799 0.53103 0.0
H141 H 0.44374 0.97009 0.47981 0.0
H142 H 0.50351 0.03382 0.42452 0.0
C143 C 0.45285 0.05775 0.52038 0.0
C144 C 0.45169 0.94812 0.55794 0.0
C145 C 0.55515 0.04949 0.45904 0.0
C146 C 0.53608 0.94165 0.46342 0.0
H147 H 0.40059 0.98458 0.58996 0.0
H148 H 0.3995 0.04408 0.56731 0.0
H149 H 0.47438 0.11691 0.49751 0.0
H150 H 0.53121 0.11182 0.46706 0.0
H151 H 0.60096 0.01375 0.41738 0.0
H152 H 0.58974 0.95537 0.41701 0.0
H153 H 0.51528 0.88244 0.48806 0.0
H154 H 0.47093 0.88631 0.54178 0.0
H155 H 0.41571 0.97144 0.42303 0.0
H156 H 0.47532 0.03743 0.36839 0.0
H157 H 0.57897 0.95143 0.58919 0.0
H158 H 0.52291 0.02976 0.62624 0.0
C159 C 0.27291 0.18226 0.78338 0.0
C160 C 0.26176 0.15428 0.79651 0.0
C161 C 0.23104 0.15725 0.79117 0.0
C162 C 0.22521 0.18674 0.77511 0.0
N163 N 0.25047 0.20265 0.76915 0.0
Co164 Co 0.25208 0.24693 0.7489 0.0
N165 N 0.20632 0.25241 0.74491 0.0
C166 C 0.18614 0.23081 0.75401 0.0
C167 C 0.15644 0.24086 0.74652 0.0
C168 C 0.15773 0.2705 0.73112 0.0
C169 C 0.18828 0.27685 0.73016 0.0
N170 N 0.25367 0.2913 0.72912 0.0
C171 C 0.23108 0.31208 0.71609 0.0
C172 C 0.24217 0.34028 0.7039 0.0
C173 C 0.27298 0.33708 0.70874 0.0
C174 C 0.27891 0.30727 0.72364 0.0
N175 N 0.29786 0.24134 0.75252 0.0
C176 C 0.31816 0.26264 0.74232 0.0
C177 C 0.34789 0.25253 0.74955 0.0
C178 C 0.34651 0.22318 0.76594 0.0
C179 C 0.31586 0.21706 0.76775 0.0
N180 N 0.25654 0.23526 0.69666 0.0
C181 C 0.2567 0.22534 0.6203 0.0
C182 C 0.27692 0.24456 0.63262 0.0
C183 C 0.27656 0.24903 0.67061 0.0
C184 C 0.23765 0.20982 0.64717 0.0
C185 C 0.2381 0.21491 0.68488 0.0
N186 N 0.24754 0.25861 0.80106 0.0
C187 C 0.26695 0.28259 0.85142 0.0
C188 C 0.24585 0.26893 0.87738 0.0
C189 C 0.22459 0.25135 0.86408 0.0
C190 C 0.22577 0.24662 0.82616 0.0
C191 C 0.26728 0.2773 0.81369 0.0
H192 H 0.20924 0.23261 0.81802 0.0
H193 H 0.28424 0.28793 0.79547 0.0
H194 H 0.2921 0.26442 0.678 0.0
H195 H 0.22279 0.20264 0.70379 0.0
C196 C 0.19604 0.20083 0.76775 0.0
C197 C 0.30471 0.18871 0.78647 0.0
C198 C 0.19922 0.30583 0.71313 0.0
C199 C 0.30818 0.29286 0.72967 0.0
H200 H 0.27444 0.13407 0.80946 0.0
H201 H 0.21471 0.14028 0.7992 0.0
H202 H 0.13638 0.2279 0.75076 0.0
H203 H 0.13849 0.28551 0.72087 0.0
H204 H 0.2294 0.3608 0.69187 0.0
H205 H 0.28928 0.35414 0.7011 0.0
H206 H 0.36799 0.26542 0.74497 0.0
H207 H 0.36573 0.20834 0.77654 0.0
H208 H 0.2922 0.25708 0.61291 0.0
H209 H 0.22215 0.19404 0.63913 0.0
H210 H 0.28393 0.29643 0.86029 0.0
H211 H 0.20725 0.24094 0.88292 0.0
C212 C 0.98667 0.98009 0.59148 0.0
C213 C 0.96959 0.95848 0.6123 0.0
C214 C 0.95497 0.94411 0.58737 0.0
C215 C 0.96402 0.9573 0.55257 0.0
N216 N 0.98386 0.97906 0.55356 0.0
Co217 Co 1.00168 0.00352 0.50753 0.0
N218 N 0.97781 0.98424 0.47087 0.0
C219 C 0.95707 0.96343 0.48096 0.0
C220 C 0.9442 0.95341 0.45109 0.0
C221 C 0.9577 0.96844 0.41987 0.0
C222 C 0.97848 0.98674 0.43219 0.0
N223 N 0.01994 0.02756 0.4614 0.0
C224 C 0.01749 0.0261 0.42348 0.0
C225 C 0.03683 0.04557 0.40254 0.0
C226 C 0.05174 0.05971 0.42739 0.0
C227 C 0.04109 0.04808 0.46225 0.0
N228 N 0.02511 0.02323 0.54431 0.0
C229 C 0.04455 0.04531 0.53432 0.0
C230 C 0.05581 0.05686 0.56422 0.0
C231 C 0.04258 0.04155 0.59539 0.0
C232 C 0.02401 0.02106 0.58302 0.0
N233 N 0.03566 0.97087 0.50204 0.0
C234 C 0.08198 0.92837 0.47567 0.0
C235 C 0.08881 0.95748 0.48351 0.0
C236 C 0.06555 0.97809 0.49698 0.0
C237 C 0.05223 0.91984 0.48505 0.0
C238 C 0.02968 0.9412 0.4985 0.0
N239 N 0.96778 0.03627 0.51298 0.0
C240 C 0.95228 0.08919 0.52294 0.0
C241 C 0.92362 0.08123 0.53841 0.0
C242 C 0.91636 0.05097 0.5373 0.0
C243 C 0.93854 0.02908 0.52422 0.0
C244 C 0.9737 0.0666 0.51007 0.0
H245 H 0.93191 0.00625 0.52502 0.0
H246 H 0.99528 0.07405 0.49923 0.0
H247 H 0.07211 1.00009 0.50168 0.0
H248 H 0.00729 0.93357 0.50422 0.0
C249 C 0.95234 0.95175 0.51861 0.0
C250 C 0.00503 1.00096 0.60948 0.0
C251 C 0.99824 0.00592 0.40565 0.0
C252 C 0.05102 0.05529 0.49644 0.0
H253 H 0.96755 0.95376 0.64248 0.0
H254 H 0.93899 0.9266 0.59394 0.0
H255 H 0.92753 0.93653 0.45186 0.0
H256 H 0.953 0.96587 0.3912 0.0
H257 H 0.04042 0.0488 0.37236 0.0
H258 H 0.06888 0.07606 0.42078 0.0
H259 H 0.07129 0.07486 0.56347 0.0
H260 H 0.04578 0.04566 0.624 0.0
H261 H 0.11184 0.96474 0.4782 0.0
H262 H 0.0458 0.89738 0.4801 0.0
H263 H 0.95854 0.11263 0.52181 0.0
H264 H 0.89427 0.04372 0.54839 0.0
C265 C 0.27137 0.806 0.70744 0.0
C266 C 0.25752 0.83248 0.68899 0.0
C267 C 0.22655 0.83126 0.69541 0.0
C268 C 0.22303 0.80433 0.71762 0.0
N269 N 0.24987 0.78815 0.72589 0.0
Co270 Co 0.25413 0.74811 0.75898 0.0
N271 N 0.20826 0.74614 0.76794 0.0
C272 C 0.18661 0.76736 0.75388 0.0
C273 C 0.15715 0.76077 0.76468 0.0
C274 C 0.15997 0.7336 0.78689 0.0
C275 C 0.19116 0.72486 0.7883 0.0
N276 N 0.25839 0.7082 0.79236 0.0
C277 C 0.23688 0.69029 0.81069 0.0
C278 C 0.25076 0.66419 0.8299 0.0
C279 C 0.28174 0.66572 0.82407 0.0
C280 C 0.28525 0.69245 0.80148 0.0
N281 N 0.3 0.7499 0.74965 0.0
C282 C 0.32163 0.72848 0.76334 0.0
C283 C 0.35107 0.73476 0.75191 0.0
C284 C 0.34824 0.76186 0.72954 0.0
C285 C 0.31708 0.7709 0.72873 0.0
N286 N 0.255 0.77126 0.80354 0.0
C287 C 0.25462 0.80112 0.86925 0.0
C288 C 0.27835 0.77924 0.86052 0.0
C289 C 0.27799 0.76459 0.82793 0.0
C290 C 0.23158 0.80863 0.84407 0.0
C291 C 0.23243 0.7938 0.81136 0.0
N292 N 0.25327 0.72494 0.71453 0.0
C293 C 0.27542 0.68547 0.67624 0.0
C294 C 0.25369 0.69409 0.64965 0.0
C295 C 0.23122 0.71774 0.65642 0.0
C296 C 0.23156 0.73289 0.68868 0.0
C297 C 0.27456 0.70085 0.70847 0.0
H298 H 0.21436 0.75128 0.69172 0.0
H299 H 0.2916 0.69304 0.72776 0.0
H300 H 0.29625 0.7475 0.8236 0.0
H301 H 0.21432 0.80068 0.79322 0.0
C302 C 0.19484 0.79358 0.73114 0.0
C303 C 0.30507 0.79941 0.70708 0.0
C304 C 0.20315 0.69643 0.81012 0.0
C305 C 0.31344 0.70281 0.7872 0.0
H306 H 0.26859 0.85101 0.67278 0.0
H307 H 0.2087 0.84812 0.68525 0.0
H308 H 0.13608 0.77427 0.7575 0.0
H309 H 0.1411 0.72177 0.80078 0.0
H310 H 0.23971 0.64565 0.8461 0.0
H311 H 0.2996 0.64903 0.83461 0.0
H312 H 0.37214 0.72118 0.75891 0.0
H313 H 0.36708 0.77349 0.71525 0.0
H314 H 0.29649 0.77244 0.87956 0.0
H315 H 0.21282 0.82562 0.84979 0.0
H316 H 0.29314 0.6671 0.67204 0.0
H317 H 0.21415 0.72536 0.63621 0.0
C318 C 0.44258 0.01223 0.95682 0.0
C319 C 0.41952 0.99837 0.94178 0.0
C320 C 0.42276 0.96793 0.95446 0.0
C321 C 0.44766 0.96483 0.97613 0.0
N322 N 0.46043 0.99149 0.97837 0.0
Co323 Co 0.49875 0.99641 1.00419 0.0
N324 N 0.50223 0.95201 0.02487 0.0
C325 C 0.48218 0.93097 0.02101 0.0
C326 C 0.48962 0.90273 0.03971 0.0
C327 C 0.51586 0.90598 0.05694 0.0
C328 C 0.52298 0.93613 0.04759 0.0
N329 N 0.53819 1.00093 0.02784 0.0
C330 C 0.55668 0.97997 0.04821 0.0
C331 C 0.58253 0.99271 0.05816 0.0
C332 C 0.58031 0.02274 0.04358 0.0
C333 C 0.55339 0.02663 0.02557 0.0
N334 N 0.49406 0.04131 0.98589 0.0
C335 C 0.51245 0.06297 0.99296 0.0
C336 C 0.50283 0.0921 0.97852 0.0
C337 C 0.47665 0.08892 0.96119 0.0
C338 C 0.47198 0.05782 0.96571 0.0
N339 N 0.47447 0.0058 0.05067 0.0
C340 C 0.44364 0.01371 0.12077 0.0
C341 C 0.47002 0.02877 0.10921 0.0
C342 C 0.48471 0.02483 0.07421 0.0
C343 C 0.43205 0.996 0.09558 0.0
C344 C 0.44776 0.99227 0.06104 0.0
N345 N 0.52297 0.98683 0.95757 0.0
C346 C 0.55305 0.00368 0.90156 0.0
C347 C 0.55079 0.97578 0.88671 0.0
C348 C 0.5364 0.95275 0.90926 0.0
C349 C 0.52257 0.95876 0.9441 0.0
C350 C 0.53947 0.00851 0.93698 0.0
H351 H 0.51107 0.94047 0.95904 0.0
H352 H 0.54192 0.03033 0.94653 0.0
H353 H 0.50481 0.03676 0.06726 0.0
H354 H 0.4382 0.97775 0.04361 0.0
C355 C 0.45809 0.93783 0.99715 0.0
C356 C 0.44664 0.04509 0.94962 0.0
C357 C 0.55016 0.94825 0.06009 0.0
C358 C 0.54005 0.05476 0.01016 0.0
H359 H 0.4021 0.00913 0.92356 0.0
H360 H 0.40842 0.95022 0.9489 0.0
H361 H 0.4777 0.88209 0.04022 0.0
H362 H 0.52855 0.88807 0.07404 0.0
H363 H 0.60078 0.98163 0.07492 0.0
H364 H 0.59594 0.03995 0.04679 0.0
H365 H 0.5139 0.11305 0.97976 0.0
H366 H 0.46281 0.10739 0.94646 0.0
H367 H 0.48025 0.04257 0.12759 0.0
H368 H 0.41129 0.98447 0.10267 0.0
H369 H 0.56399 0.02235 0.88542 0.0
H370 H 0.53493 0.93033 0.89971 0.0
C371 C 0.21696 0.24932 0.32351 0.0
C372 C 0.19228 0.26412 0.34246 0.0
C373 C 0.18037 0.28716 0.31771 0.0
C374 C 0.19838 0.28507 0.28518 0.0
N375 N 0.22069 0.26168 0.28754 0.0
Co376 Co 0.25285 0.25081 0.2477 0.0
N377 N 0.23914 0.288 0.2138 0.0
C378 C 0.21732 0.31059 0.22172 0.0
C379 C 0.21242 0.33252 0.19215 0.0
C380 C 0.23183 0.32304 0.16348 0.0
C381 C 0.24739 0.29575 0.17732 0.0
N382 N 0.28418 0.23924 0.20723 0.0
C383 C 0.28732 0.25133 0.17106 0.0
C384 C 0.31021 0.23499 0.15096 0.0
C385 C 0.32152 0.21124 0.17514 0.0
C386 C 0.30486 0.2144 0.2084 0.0
N387 N 0.26743 0.21436 0.2823 0.0
C388 C 0.29062 0.19285 0.27535 0.0
C389 C 0.29689 0.17212 0.3057 0.0
C390 C 0.27708 0.18146 0.33404 0.0
C391 C 0.25983 0.20736 0.31916 0.0
N392 N 0.22363 0.2265 0.226 0.0
C393 C 0.18652 0.19533 0.18397 0.0
C394 C 0.21312 0.18049 0.19922 0.0
C395 C 0.23126 0.19641 0.21982 0.0
C396 C 0.17793 0.22544 0.1922 0.0
C397 C 0.19633 0.24021 0.21364 0.0
N398 N 0.2821 0.27522 0.26901 0.0
C399 C 0.33337 0.28189 0.2861 0.0
C400 C 0.32309 0.30925 0.30133 0.0
C401 C 0.29201 0.31931 0.29997 0.0
C402 C 0.27214 0.30219 0.28368 0.0
C403 C 0.31262 0.26533 0.27026 0.0
H404 H 0.24877 0.31112 0.28369 0.0
H405 H 0.3218 0.24454 0.25942 0.0
H406 H 0.25166 0.18407 0.22967 0.0
H407 H 0.1884 0.26309 0.21878 0.0
C408 C 0.19838 0.30763 0.25463 0.0
C409 C 0.23807 0.22581 0.34168 0.0
C410 C 0.2673 0.27638 0.15389 0.0
C411 C 0.30703 0.19372 0.2406 0.0
H412 H 0.18465 0.25962 0.37164 0.0
H413 H 0.16207 0.30457 0.32349 0.0
H414 H 0.19536 0.35198 0.19084 0.0
H415 H 0.23333 0.33403 0.13509 0.0
H416 H 0.31722 0.23919 0.12155 0.0
H417 H 0.33899 0.19318 0.16885 0.0
H418 H 0.31449 0.15317 0.30737 0.0
H419 H 0.27604 0.17104 0.36272 0.0
H420 H 0.22028 0.15679 0.19496 0.0
H421 H 0.15762 0.23818 0.18119 0.0
H422 H 0.35733 0.27332 0.28615 0.0
H423 H 0.2828 0.34008 0.31201 0.0
C424 C 0.725 0.32263 0.80067 0.0
C425 C 0.73944 0.34465 0.8166 0.0
C426 C 0.76967 0.34147 0.80468 0.0
C427 C 0.77202 0.31766 0.78252 0.0
N428 N 0.74509 0.30558 0.77921 0.0
Co429 Co 0.7389 0.26891 0.75233 0.0
N430 N 0.783 0.26554 0.73287 0.0
C431 C 0.80457 0.28475 0.73793 0.0
C432 C 0.83216 0.2782 0.71902 0.0
C433 C 0.82795 0.25344 0.70045 0.0
C434 C 0.79798 0.24607 0.70952 0.0
N435 N 0.7331 0.23122 0.72722 0.0
C436 C 0.75327 0.21376 0.70636 0.0
C437 C 0.74005 0.18855 0.69585 0.0
C438 C 0.71037 0.19041 0.71009 0.0
C439 C 0.70723 0.21636 0.72868 0.0
N440 N 0.69434 0.2735 0.76959 0.0
C441 C 0.67219 0.25583 0.76192 0.0
C442 C 0.64352 0.26512 0.77629 0.0
C443 C 0.64755 0.29025 0.79427 0.0
C444 C 0.67866 0.29465 0.79011 0.0
N445 N 0.7292 0.29552 0.70609 0.0
C446 C 0.72556 0.32517 0.63336 0.0
C447 C 0.70669 0.30171 0.646 0.0
C448 C 0.70871 0.28742 0.68238 0.0
C449 C 0.7437 0.33578 0.65906 0.0
C450 C 0.74496 0.32087 0.69521 0.0
N451 N 0.74891 0.24218 0.79873 0.0
C452 C 0.7327 0.20953 0.85355 0.0
C453 C 0.76113 0.21002 0.86897 0.0
C454 C 0.78399 0.22505 0.84729 0.0
C455 C 0.77738 0.24107 0.81282 0.0
C456 C 0.72729 0.22523 0.81846 0.0
H457 H 0.79563 0.25291 0.79868 0.0
H458 H 0.70511 0.22391 0.80849 0.0
H459 H 0.69472 0.26882 0.69005 0.0
H460 H 0.76001 0.3293 0.71321 0.0
C461 C 0.79861 0.30767 0.76222 0.0
C462 C 0.6923 0.31861 0.80716 0.0
C463 C 0.7849 0.2203 0.69544 0.0
C464 C 0.67959 0.22909 0.74421 0.0
H465 H 0.72921 0.3613 0.83495 0.0
H466 H 0.78772 0.35511 0.8111 0.0
H467 H 0.8529 0.28993 0.71888 0.0
H468 H 0.84507 0.24209 0.68231 0.0
H469 H 0.75063 0.17085 0.6792 0.0
H470 H 0.69294 0.17511 0.70647 0.0
H471 H 0.62235 0.25445 0.77467 0.0
H472 H 0.62968 0.30351 0.80931 0.0
H473 H 0.69209 0.29279 0.62718 0.0
H474 H 0.75808 0.35445 0.65073 0.0
H475 H 0.71409 0.19826 0.869 0.0
H476 H 0.80678 0.22528 0.85723 0.0
C477 C 0.77509 0.692 0.29421 0.0
C478 C 0.76527 0.6634 0.30724 0.0
C479 C 0.73434 0.66534 0.30347 0.0
C480 C 0.72703 0.69488 0.28847 0.0
N481 N 0.75152 0.71184 0.28178 0.0
Co482 Co 0.75099 0.75645 0.26224 0.0
N483 N 0.70509 0.76013 0.26016 0.0
C484 C 0.68585 0.73795 0.27089 0.0
C485 C 0.6557 0.74684 0.26439 0.0
C486 C 0.65572 0.77627 0.24783 0.0
C487 C 0.68602 0.78359 0.24511 0.0
N488 N 0.75044 0.80104 0.24254 0.0
C489 C 0.72697 0.82061 0.22928 0.0
C490 C 0.73676 0.84917 0.21604 0.0
C491 C 0.76759 0.84746 0.22047 0.0
C492 C 0.77488 0.81807 0.23603 0.0
N493 N 0.79689 0.75281 0.26437 0.0
C494 C 0.81606 0.77515 0.25415 0.0
C495 C 0.84624 0.76621 0.26039 0.0
C496 C 0.84633 0.73655 0.27618 0.0
C497 C 0.81606 0.72914 0.27874 0.0
N498 N 0.75474 0.74521 0.20989 0.0
C499 C 0.7546 0.73507 0.13369 0.0
C500 C 0.77496 0.75425 0.14578 0.0
C501 C 0.77471 0.75888 0.1837 0.0
C502 C 0.73539 0.71986 0.16065 0.0
C503 C 0.73597 0.72507 0.1983 0.0
N504 N 0.74731 0.76766 0.31469 0.0
C505 C 0.76725 0.79257 0.36393 0.0
C506 C 0.74898 0.7765 0.39117 0.0
C507 C 0.72851 0.75735 0.37923 0.0
C508 C 0.72796 0.75342 0.34117 0.0
C509 C 0.76589 0.78802 0.32617 0.0
H510 H 0.71232 0.73804 0.33405 0.0
H511 H 0.78067 0.80068 0.30694 0.0
H512 H 0.79033 0.77424 0.19096 0.0
H513 H 0.72055 0.71304 0.21736 0.0
C514 C 0.69717 0.70811 0.28337 0.0
C515 C 0.80656 0.69984 0.29662 0.0
C516 C 0.69571 0.81246 0.22618 0.0
C517 C 0.80472 0.80496 0.24152 0.0
H518 H 0.77888 0.6435 0.31936 0.0
H519 H 0.71885 0.64768 0.31203 0.0
H520 H 0.63622 0.73312 0.2696 0.0
H521 H 0.63586 0.79043 0.23779 0.0
H522 H 0.72322 0.86886 0.20329 0.0
H523 H 0.78308 0.86511 0.21184 0.0
H524 H 0.8657 0.77996 0.25527 0.0
H525 H 0.86628 0.72223 0.28567 0.0
H526 H 0.7903 0.76658 0.12595 0.0
H527 H 0.71972 0.70419 0.15275 0.0
H528 H 0.78287 0.80835 0.3717 0.0
H529 H 0.71377 0.74445 0.39924 0.0
C530 C 0.76935 0.30489 0.20275 0.0
C531 C 0.75527 0.33138 0.18462 0.0
C532 C 0.72437 0.33026 0.19206 0.0
C533 C 0.72115 0.30323 0.2142 0.0
N534 N 0.74809 0.28682 0.22126 0.0
Co535 Co 0.75283 0.2464 0.2535 0.0
N536 N 0.70705 0.244 0.26283 0.0
C537 C 0.68519 0.26476 0.24838 0.0
C538 C 0.65583 0.25781 0.25923 0.0
C539 C 0.65899 0.23087 0.28185 0.0
C540 C 0.69026 0.22265 0.28352 0.0
N541 N 0.75761 0.20666 0.28701 0.0
C542 C 0.7364 0.189 0.3064 0.0
C543 C 0.75064 0.1635 0.3264 0.0
C544 C 0.78156 0.16526 0.32009 0.0
C545 C 0.78467 0.19154 0.2965 0.0
N546 N 0.79855 0.24807 0.24269 0.0
C547 C 0.82038 0.22653 0.25554 0.0
C548 C 0.84969 0.23294 0.24352 0.0
C549 C 0.8465 0.26014 0.22138 0.0
C550 C 0.81528 0.26893 0.22104 0.0
N551 N 0.75416 0.26933 0.29814 0.0
C552 C 0.75419 0.29808 0.36488 0.0
C553 C 0.77984 0.27978 0.35243 0.0
C554 C 0.77919 0.26547 0.31962 0.0
C555 C 0.72915 0.30301 0.34216 0.0
C556 C 0.72981 0.28892 0.30897 0.0
N557 N 0.75155 0.2235 0.20897 0.0
C558 C 0.77295 0.18361 0.17089 0.0
C559 C 0.75374 0.19486 0.14222 0.0
C560 C 0.73236 0.21965 0.14828 0.0
C561 C 0.73168 0.23352 0.18156 0.0
C562 C 0.77127 0.19799 0.20398 0.0
H563 H 0.71547 0.25284 0.18399 0.0
H564 H 0.78661 0.18847 0.22472 0.0
H565 H 0.79912 0.25105 0.31267 0.0
H566 H 0.71003 0.29383 0.29306 0.0
C567 C 0.69312 0.29175 0.22701 0.0
C568 C 0.80296 0.29782 0.20061 0.0
C569 C 0.70265 0.19488 0.30626 0.0
C570 C 0.81258 0.20159 0.28083 0.0
H571 H 0.76618 0.34952 0.16742 0.0
H572 H 0.70635 0.34698 0.182 0.0
H573 H 0.63463 0.27115 0.25224 0.0
H574 H 0.64028 0.21899 0.29607 0.0
H575 H 0.73986 0.14522 0.34348 0.0
H576 H 0.79964 0.14897 0.33091 0.0
H577 H 0.87091 0.21966 0.25054 0.0
H578 H 0.86514 0.27234 0.20749 0.0
H579 H 0.80031 0.27593 0.3682 0.0
H580 H 0.70856 0.31682 0.35035 0.0
H581 H 0.78963 0.16418 0.16751 0.0
H582 H 0.71718 0.22938 0.1267 0.0
C583 C 0.71714 0.75316 0.83656 0.0
C584 C 0.69236 0.76862 0.85452 0.0
C585 C 0.68118 0.79141 0.82895 0.0
C586 C 0.69975 0.78854 0.79702 0.0
N587 N 0.72163 0.76479 0.80039 0.0
Co588 Co 0.75519 0.75353 0.76238 0.0
N589 N 0.74171 0.78968 0.72662 0.0
C590 C 0.71845 0.81148 0.7322 0.0
C591 C 0.71363 0.83221 0.70144 0.0
C592 C 0.73451 0.8226 0.67429 0.0
C593 C 0.75086 0.79651 0.69022 0.0
N594 N 0.78876 0.74231 0.72435 0.0
C595 C 0.79311 0.7538 0.6881 0.0
C596 C 0.81796 0.73843 0.67017 0.0
C597 C 0.82934 0.71584 0.69586 0.0
C598 C 0.81082 0.71873 0.72784 0.0
N599 N 0.76863 0.71733 0.79807 0.0
C600 C 0.79191 0.69555 0.79247 0.0
C601 C 0.79664 0.67474 0.82317 0.0
C602 C 0.77566 0.68425 0.85029 0.0
C603 C 0.75936 0.71039 0.8344 0.0
N604 N 0.72767 0.72817 0.73952 0.0
C605 C 0.69014 0.69366 0.70235 0.0
C606 C 0.7192 0.68148 0.71298 0.0
C607 C 0.73749 0.69906 0.73107 0.0
C608 C 0.67993 0.72317 0.71153 0.0
C609 C 0.69876 0.73971 0.73033 0.0
N610 N 0.78265 0.77881 0.78553 0.0
C611 C 0.82822 0.78192 0.81893 0.0
C612 C 0.8171 0.81069 0.82947 0.0
C613 C 0.78943 0.82409 0.81602 0.0
C614 C 0.77263 0.80782 0.79434 0.0
C615 C 0.81098 0.76673 0.79646 0.0
H616 H 0.7512 0.81882 0.78609 0.0
H617 H 0.8207 0.74492 0.78916 0.0
H618 H 0.75961 0.68868 0.73752 0.0
H619 H 0.68958 0.76198 0.73653 0.0
C620 C 0.69945 0.80975 0.76512 0.0
C621 C 0.73752 0.72958 0.85583 0.0
C622 C 0.77261 0.77722 0.66877 0.0
C623 C 0.81106 0.69746 0.75968 0.0
H624 H 0.68409 0.76463 0.88354 0.0
H625 H 0.66277 0.80896 0.8337 0.0
H626 H 0.69597 0.85104 0.69849 0.0
H627 H 0.73661 0.83274 0.64555 0.0
H628 H 0.82613 0.74234 0.6411 0.0
H629 H 0.84781 0.69833 0.69115 0.0
H630 H 0.81431 0.65592 0.82613 0.0
H631 H 0.77348 0.67403 0.87899 0.0
H632 H 0.72797 0.65844 0.70738 0.0
H633 H 0.65776 0.73389 0.70362 0.0
H634 H 0.85002 0.77113 0.82818 0.0
H635 H 0.78019 0.84655 0.82342 0.0
C636 C 0.45801 0.50672 0.57237 0.0
C637 C 0.43075 0.52216 0.58451 0.0
C638 C 0.42165 0.54249 0.55512 0.0
C639 C 0.44375 0.5382 0.52682 0.0
N640 N 0.4661 0.51597 0.53625 0.0
Co641 Co 0.50302 0.5025 0.50422 0.0
N642 N 0.49245 0.53562 0.46336 0.0
C643 C 0.4697 0.55849 0.46457 0.0
C644 C 0.4678 0.57726 0.43165 0.0
C645 C 0.4903 0.56527 0.40787 0.0
C646 C 0.5046 0.53979 0.42777 0.0
N647 N 0.53891 0.48789 0.47122 0.0
C648 C 0.54543 0.49578 0.43432 0.0
C649 C 0.57073 0.4782 0.42055 0.0
C650 C 0.58015 0.45783 0.44973 0.0
C651 C 0.56002 0.46412 0.47938 0.0
N652 N 0.51455 0.47044 0.54594 0.0
C653 C 0.5394 0.44978 0.54636 0.0
C654 C 0.54261 0.43254 0.58017 0.0
C655 C 0.51886 0.44341 0.60303 0.0
C656 C 0.50247 0.46663 0.58164 0.0
N657 N 0.47822 0.47409 0.48231 0.0
C658 C 0.4472 0.43538 0.44318 0.0
C659 C 0.47236 0.42372 0.46359 0.0
C660 C 0.48752 0.44339 0.48277 0.0
C661 C 0.43692 0.4663 0.44396 0.0
C662 C 0.45243 0.48504 0.46397 0.0
N663 N 0.52796 0.531 0.52603 0.0
C664 C 0.57626 0.54274 0.54764 0.0
C665 C 0.56239 0.56952 0.56114 0.0
C666 C 0.5313 0.57722 0.55624 0.0
C667 C 0.51472 0.55799 0.53821 0.0
C668 C 0.55868 0.52377 0.53059 0.0
H669 H 0.49117 0.56539 0.53485 0.0
H670 H 0.57044 0.50322 0.52189 0.0
H671 H 0.50711 0.43338 0.497 0.0
H672 H 0.44348 0.50844 0.46354 0.0
C673 C 0.44712 0.55802 0.49399 0.0
C674 C 0.47705 0.48596 0.59713 0.0
C675 C 0.52695 0.51812 0.41072 0.0
C676 C 0.55953 0.44754 0.51475 0.0
H677 H 0.41952 0.51996 0.61231 0.0
H678 H 0.40234 0.55968 0.55519 0.0
H679 H 0.45072 0.59605 0.42488 0.0
H680 H 0.4946 0.57335 0.37865 0.0
H681 H 0.58065 0.47941 0.39207 0.0
H682 H 0.59875 0.43989 0.44906 0.0
H683 H 0.56054 0.41478 0.5876 0.0
H684 H 0.51456 0.43576 0.63239 0.0
H685 H 0.48091 0.39977 0.46378 0.0
H686 H 0.41701 0.47602 0.4291 0.0
H687 H 0.60041 0.53605 0.55115 0.0
H688 H 0.5199 0.59808 0.5661 0.0
C689 C 0.94744 0.47952 0.0577 0.0
C690 C 0.92373 0.49327 0.07936 0.0
C691 C 0.93001 0.52313 0.0806 0.0
C692 C 0.95694 0.52624 0.05937 0.0
N693 N 0.96796 0.50037 0.04416 0.0
Co694 Co 0.00681 0.49622 0.01151 0.0
N695 N 0.01088 0.54175 1.00443 0.0
C696 C 0.99487 0.56247 0.02484 0.0
C697 C 0.00233 0.59206 0.01491 0.0
C698 C 0.02475 0.59 0.98665 0.0
C699 C 0.02977 0.55916 0.98073 0.0
N700 N 0.04588 0.49212 0.97923 0.0
C701 C 0.0622 0.51357 0.95803 0.0
C702 C 0.08841 0.49972 0.94091 0.0
C703 C 0.08898 0.46893 0.95226 0.0
C704 C 0.0631 0.46551 0.97547 0.0
N705 N 0.00269 0.4507 0.01838 0.0
C706 C 0.0252 0.42915 0.00988 0.0
C707 C 0.01712 0.39966 0.01858 0.0
C708 C 0.98774 0.40258 0.03408 0.0
C709 C 0.97932 0.43385 0.03392 0.0
N710 N 0.98293 0.49977 0.96709 0.0
C711 C 0.95267 0.50804 0.9002 0.0
C712 C 0.97503 0.48355 0.90682 0.0
C713 C 0.98985 0.47986 0.94035 0.0
C714 C 0.9448 0.52749 0.92848 0.0
C715 C 0.96008 0.52286 0.96176 0.0
N716 N 0.03085 0.4927 0.05606 0.0
C717 C 0.03865 0.47137 0.11943 0.0
C718 C 0.06334 0.48918 0.12091 0.0
C719 C 0.07198 0.50839 0.08924 0.0
C720 C 0.05572 0.50944 0.05686 0.0
C721 C 0.02254 0.47371 0.08699 0.0
H722 H 0.06304 0.52424 0.03279 0.0
H723 H 0.00299 0.46052 0.08746 0.0
H724 H 0.00759 0.46143 0.94402 0.0
H725 H 0.95394 0.53852 0.98267 0.0
C726 C 0.97083 0.5537 0.05006 0.0
C727 C 0.9506 0.44614 0.05323 0.0
C728 C 0.05499 0.5473 0.95531 0.0
C729 C 0.05258 0.43754 0.99096 0.0
H730 H 0.90406 0.48279 0.09327 0.0
H731 H 0.91624 0.54066 0.09476 0.0
H732 H 0.99233 0.61275 0.02646 0.0
H733 H 0.03654 0.60898 0.97257 0.0
H734 H 0.10555 0.51075 0.92244 0.0
H735 H 0.10597 0.45108 0.94398 0.0
H736 H 0.03092 0.3785 0.0141 0.0
H737 H 0.97446 0.38375 0.04533 0.0
H738 H 0.98217 0.46819 0.88554 0.0
H739 H 0.92745 0.54656 0.9246 0.0
H740 H 0.03101 0.45669 0.14377 0.0
H741 H 0.0909 0.52265 0.08965 0.0
C742 C 0.46288 0.56379 0.01741 0.0
C743 C 0.46795 0.59475 0.01418 0.0
C744 C 0.49737 0.59692 0.99974 0.0
C745 C 0.50853 0.5673 0.99504 0.0
N746 N 0.48779 0.54637 1.00487 0.0
Co747 Co 0.49476 0.50052 1.00502 0.0
N748 N 0.53912 0.50331 0.98827 0.0
C749 C 0.55435 0.52904 0.98197 0.0
C750 C 0.58431 0.52371 0.96902 0.0
C751 C 0.58829 0.49282 0.96613 0.0
C752 C 0.5604 0.48112 0.97751 0.0
N753 N 0.50171 0.45467 1.00513 0.0
C754 C 0.52668 0.43724 0.99275 0.0
C755 C 0.52162 0.40628 0.99593 0.0
C756 C 0.49214 0.40411 0.01017 0.0
C757 C 0.48095 0.43374 0.01483 0.0
N758 N 0.45041 0.49773 0.02183 0.0
C759 C 0.43517 0.472 0.02813 0.0
C760 C 0.40527 0.47733 0.04131 0.0
C761 C 0.40136 0.5082 0.0444 0.0
C762 C 0.42923 0.51988 0.03291 0.0
N763 N 0.48427 0.50346 0.95173 0.0
C764 C 0.47506 0.50295 0.87489 0.0
C765 C 0.46089 0.48267 0.90173 0.0
C766 C 0.46563 0.48343 0.93968 0.0
C767 C 0.49281 0.5244 0.88729 0.0
C768 C 0.49701 0.5243 0.92551 0.0
N769 N 0.50524 0.49756 0.0583 0.0
C770 C 0.49673 0.47641 0.12263 0.0
C771 C 0.51447 0.4978 0.13517 0.0
C772 C 0.52863 0.51819 0.10843 0.0
C773 C 0.52382 0.51761 0.07045 0.0
C774 C 0.49256 0.47661 0.08441 0.0
H775 H 0.53479 0.5341 0.05159 0.0
H776 H 0.4785 0.45997 0.07681 0.0
H777 H 0.45444 0.46716 0.9586 0.0
H778 H 0.51128 0.54082 0.93302 0.0
C779 C 0.53911 0.55811 0.98507 0.0
C780 C 0.43506 0.55174 0.03538 0.0
C781 C 0.55463 0.44924 0.97515 0.0
C782 C 0.45038 0.44292 0.02488 0.0
H783 H 0.4524 0.61366 0.0227 0.0
H784 H 0.50961 0.61748 0.99488 0.0
H785 H 0.60088 0.54046 0.9611 0.0
H786 H 0.60902 0.48041 0.95566 0.0
H787 H 0.53728 0.38738 0.98757 0.0
H788 H 0.47992 0.38355 0.01502 0.0
H789 H 0.38871 0.46058 0.04928 0.0
H790 H 0.3807 0.5206 0.05507 0.0
H791 H 0.44636 0.46605 0.89352 0.0
H792 H 0.50434 0.54056 0.86754 0.0
H793 H 0.48586 0.45966 0.14223 0.0
H794 H 0.54256 0.53526 0.11675 0.0
C795 C 0.94617 0.52566 0.46455 0.0
C796 C 0.91977 0.51387 0.45463 0.0
C797 C 0.92131 0.48368 0.46854 0.0
C798 C 0.9484 0.47876 0.48614 0.0
N799 N 0.96438 0.50392 0.48419 0.0
Co800 Co 0.00429 0.50695 0.50754 0.0
N801 N 0.00779 0.46188 0.52513 0.0
C802 C 0.98857 0.44097 0.51799 0.0
C803 C 0.99753 0.41148 0.53178 0.0
C804 C 0.02416 0.41361 0.54869 0.0
C805 C 0.02975 0.44448 0.54459 0.0
N806 N 0.04313 0.51038 0.53301 0.0
C807 C 0.06078 0.48886 0.55376 0.0
C808 C 0.08455 0.50172 0.56868 0.0
C809 C 0.08201 0.53232 0.5567 0.0
C810 C 0.05679 0.53649 0.53553 0.0
N811 N 0.00193 0.55153 0.48761 0.0
C812 C 0.02271 0.57183 0.4916 0.0
C813 C 0.01582 0.60045 0.47357 0.0
C814 C 0.98916 0.59827 0.45672 0.0
C815 C 0.98126 0.56832 0.46559 0.0
N816 N 0.98074 0.51663 0.55456 0.0
C817 C 0.95374 0.52744 0.6259 0.0
C818 C 0.96892 0.55017 0.60377 0.0
C819 C 0.98233 0.54427 0.56868 0.0
C820 C 0.95033 0.50006 0.6104 0.0
C821 C 0.96352 0.49536 0.57478 0.0
N822 N 0.02792 0.4974 0.46069 0.0
C823 C 0.07084 0.50553 0.41597 0.0
C824 C 0.05892 0.48775 0.39113 0.0
C825 C 0.03185 0.47385 0.40256 0.0
C826 C 0.01706 0.47866 0.43727 0.0
C827 C 0.05503 0.51014 0.45023 0.0
H828 H 0.99649 0.46751 0.44414 0.0
H829 H 0.06495 0.52457 0.46747 0.0
H830 H 0.99447 0.56225 0.55406 0.0
H831 H 0.96016 0.47395 0.56475 0.0
C832 C 0.96102 0.45016 0.50109 0.0
C833 C 0.95338 0.55729 0.45345 0.0
C834 C 0.05593 0.45614 0.56019 0.0
C835 C 0.04693 0.56397 0.51507 0.0
H836 H 0.90156 0.52572 0.43838 0.0
H837 H 0.90506 0.46708 0.46525 0.0
H838 H 0.98582 0.39096 0.5303 0.0
H839 H 0.03773 0.39458 0.56278 0.0
H840 H 0.10202 0.49018 0.58631 0.0
H841 H 0.09705 0.54941 0.5623 0.0
H842 H 0.02836 0.62066 0.47333 0.0
H843 H 0.9767 0.61676 0.44023 0.0
H844 H 0.97132 0.57222 0.61384 0.0
H845 H 0.93876 0.48164 0.62618 0.0
H846 H 0.09204 0.51631 0.40889 0.0
H847 H 0.02127 0.46017 0.38434 0.0
H848 H 0.99174 0.95392 0.16816 0.0
H849 H 0.00678 0.04994 0.15275 0.0
H850 H 0.99129 0.95484 0.23627 0.0
H851 H 0.00674 0.05115 0.2208 0.0
H852 H 0.98508 0.05359 0.34898 0.0
H853 H 0.98524 0.05259 0.28092 0.0
H854 H 0.01206 0.95529 0.29352 0.0
H855 H 0.01147 0.95658 0.3616 0.0
C856 C 0.99522 0.97536 0.17911 0.0
C857 C 0.99937 0.00181 0.15367 0.0
C858 C 0.99507 0.97596 0.21892 0.0
C859 C 0.99899 0.00311 0.23604 0.0
C860 C 0.00312 0.02958 0.21034 0.0
C861 C 0.0033 0.02893 0.17054 0.0
C862 C 0.9912 0.03189 0.33739 0.0
C863 C 0.99837 0.00522 0.36207 0.0
C864 C 0.99142 0.03125 0.29759 0.0
C865 C 0.99874 0.00383 0.27971 0.0
C866 C 0.00579 0.9771 0.30464 0.0
C867 C 0.0056 0.9778 0.34445 0.0
H868 H 0.30701 0.648 0.42356 0.0
H869 H 0.21348 0.68833 0.42574 0.0
H870 H 0.30428 0.64068 0.49206 0.0
H871 H 0.21098 0.68252 0.49364 0.0
H872 H 0.20837 0.66996 0.61622 0.0
H873 H 0.21029 0.65474 0.55249 0.0
H874 H 0.30559 0.67477 0.53767 0.0
H875 H 0.3038 0.68829 0.6017 0.0
C876 C 0.28573 0.65479 0.43877 0.0
C877 C 0.26052 0.66887 0.41951 0.0
C878 C 0.28417 0.65083 0.47796 0.0
C879 C 0.25759 0.66147 0.49857 0.0
C880 C 0.23172 0.67361 0.47899 0.0
C881 C 0.23313 0.67708 0.43991 0.0
C882 C 0.22982 0.67038 0.5994 0.0
C883 C 0.25586 0.68048 0.61356 0.0
C884 C 0.23094 0.66183 0.56288 0.0
C885 C 0.25796 0.66393 0.53957 0.0
C886 C 0.28448 0.67237 0.55475 0.0
C887 C 0.28347 0.68035 0.59145 0.0
H888 H 0.52273 0.94486 0.83816 0.0
H889 H 0.60028 0.99841 0.8444 0.0
H890 H 0.53385 0.94372 0.77152 0.0
H891 H 0.6107 0.99808 0.77665 0.0
H892 H 0.57154 0.03189 0.65623 0.0
H893 H 0.57999 0.02355 0.72313 0.0
H894 H 0.57115 0.92648 0.72111 0.0
H895 H 0.56186 0.9349 0.6545 0.0
C896 C 0.54273 0.95566 0.82564 0.0
C897 C 0.56052 0.97182 0.84689 0.0
C898 C 0.54908 0.95503 0.78722 0.0
C899 C 0.57316 0.97079 0.76888 0.0
C900 C 0.59187 0.98588 0.79013 0.0
C901 C 0.58574 0.98622 0.82884 0.0
C902 C 0.57203 0.00869 0.66995 0.0
C903 C 0.56548 0.98415 0.65032 0.0
C904 C 0.57721 0.00386 0.70815 0.0
C905 C 0.57581 0.97442 0.72737 0.0
C906 C 0.57199 0.94947 0.70701 0.0
C907 C 0.5669 0.95428 0.66881 0.0
H908 H 0.2387 0.22414 0.93519 0.0
H909 H 0.2559 0.31991 0.91186 0.0
H910 H 0.2423 0.22781 1.00187 0.0
H911 H 0.2597 0.3235 0.97884 0.0
H912 H 0.30125 0.30413 0.09594 0.0
H913 H 0.29454 0.30387 0.02865 0.0
H914 H 0.21528 0.25168 0.05454 0.0
H915 H 0.22256 0.25169 0.12158 0.0
C916 C 0.24278 0.24613 0.94433 0.0
C917 C 0.2469 0.27177 0.91816 0.0
C918 C 0.24489 0.24821 0.98258 0.0
C919 C 0.25123 0.27596 0.99565 0.0
C920 C 0.25515 0.3017 0.96958 0.0
C921 C 0.25297 0.29963 0.93124 0.0
C922 C 0.28237 0.29286 0.08693 0.0
C923 C 0.26244 0.27787 0.11338 0.0
C924 C 0.27838 0.29281 0.04861 0.0
C925 C 0.25443 0.27767 0.03628 0.0
C926 C 0.23417 0.26319 0.06311 0.0
C927 C 0.23816 0.26332 0.10135 0.0
H928 H 0.95567 0.01113 0.66202 0.0
H929 H 0.05364 0.99143 0.65801 0.0
H930 H 0.955 0.01198 0.73024 0.0
H931 H 0.05327 0.99222 0.72616 0.0
H932 H 0.04967 0.01703 0.84951 0.0
H933 H 0.05015 0.01629 0.78134 0.0
H934 H 0.95735 0.98963 0.79197 0.0
H935 H 0.95716 0.99045 0.86015 0.0
C936 C 0.97725 0.00682 0.67551 0.0
C937 C 0.00472 0.00135 0.65315 0.0
C938 C 0.97691 0.00721 0.71538 0.0
C939 C 0.00409 0.00226 0.7356 0.0
C940 C 0.03158 0.99673 0.71304 0.0
C941 C 0.03185 0.99619 0.67322 0.0
C942 C 0.02931 0.01081 0.83753 0.0
C943 C 0.00341 0.00375 0.86168 0.0
C944 C 0.02956 0.01027 0.79771 0.0
C945 C 0.0038 0.00283 0.77925 0.0
C946 C 0.97781 0.99594 0.80357 0.0
C947 C 0.97766 0.99632 0.84342 0.0
H948 H 0.77993 0.27062 0.42857 0.0
H949 H 0.72449 0.35214 0.38697 0.0
H950 H 0.77484 0.28758 0.49083 0.0
H951 H 0.71797 0.36801 0.4506 0.0
H952 H 0.68178 0.33783 0.58127 0.0
H953 H 0.69092 0.33947 0.5131 0.0
H954 H 0.78862 0.33414 0.52563 0.0
H955 H 0.77973 0.3322 0.59341 0.0
C956 C 0.76721 0.29249 0.43231 0.0
C957 C 0.75275 0.31 0.40237 0.0
C958 C 0.76419 0.30211 0.46819 0.0
C959 C 0.74619 0.32916 0.4753 0.0
C960 C 0.73199 0.34705 0.44563 0.0
C961 C 0.73555 0.33775 0.40935 0.0
C962 C 0.70514 0.33791 0.56934 0.0
C963 C 0.73003 0.33452 0.59268 0.0
C964 C 0.71034 0.33909 0.5304 0.0
C965 C 0.74047 0.3366 0.51441 0.0
C966 C 0.7652 0.33597 0.53746 0.0
C967 C 0.76004 0.33506 0.57625 0.0
H968 H 0.43926 0.06157 0.16498 0.0
H969 H 0.41742 0.96731 0.16556 0.0
H970 H 0.42857 0.05881 0.23207 0.0
H971 H 0.40376 0.96551 0.23223 0.0
H972 H 0.44402 0.95719 0.3497 0.0
H973 H 0.43331 0.96001 0.28388 0.0
H974 H 0.39834 0.05521 0.28718 0.0
H975 H 0.41124 0.0525 0.35269 0.0
C976 C 0.43154 0.04043 0.17926 0.0
C977 C 0.43018 0.01439 0.15986 0.0
C978 C 0.42476 0.039 0.21787 0.0
C979 C 0.41578 0.01167 0.238 0.0
C980 C 0.41143 0.98666 0.21792 0.0
C981 C 0.41884 0.98788 0.1794 0.0
C982 C 0.4332 0.97838 0.33648 0.0
C983 C 0.42862 0.00467 0.35581 0.0
C984 C 0.42688 0.98008 0.29871 0.0
C985 C 0.41541 0.00807 0.27974 0.0
C986 C 0.40799 0.03354 0.30046 0.0
C987 C 0.415 0.03198 0.33804 0.0
H988 H 0.70275 0.73461 0.09554 0.0
H989 H 0.80168 0.72902 0.08012 0.0
H990 H 0.69894 0.73212 0.02857 0.0
H991 H 0.79789 0.7264 0.01302 0.0
H992 H 0.77677 0.75958 0.89089 0.0
H993 H 0.78138 0.75967 0.95847 0.0
H994 H 0.70918 0.69782 0.97951 0.0
H995 H 0.70439 0.6985 0.91174 0.0
C996 C 0.72371 0.73236 0.07792 0.0
C997 C 0.75253 0.73198 0.09315 0.0
C998 C 0.72153 0.73095 0.03952 0.0
C999 C 0.74811 0.7291 0.01543 0.0
C1000 C 0.77695 0.7283 0.03073 0.0
C1001 C 0.77914 0.72976 0.06916 0.0
C1002 C 0.762 0.74607 0.91021 0.0
C1003 C 0.74018 0.72913 0.89668 0.0
C1004 C 0.76472 0.7459 0.94876 0.0
C1005 C 0.74567 0.72871 0.9744 0.0
C1006 C 0.72393 0.71159 0.96053 0.0
C1007 C 0.72122 0.71182 0.92193 0.0
H1008 H 0.50239 0.52768 0.63313 0.0
H1009 H 0.44614 0.45117 0.65172 0.0
H1010 H 0.50003 0.53234 0.70062 0.0
H1011 H 0.443 0.45599 0.71937 0.0
H1012 H 0.47809 0.45108 0.83842 0.0
H1013 H 0.4766 0.4475 0.77133 0.0
H1014 H 0.46486 0.54659 0.75225 0.0
H1015 H 0.46651 0.55015 0.81947 0.0
C1016 C 0.48931 0.51207 0.65191 0.0
C1017 C 0.47449 0.48906 0.63781 0.0
C1018 C 0.48776 0.5148 0.69039 0.0
C1019 C 0.47128 0.49455 0.71538 0.0
C1020 C 0.45616 0.4717 0.70092 0.0
C1021 C 0.45777 0.46898 0.66237 0.0
C1022 C 0.47472 0.47209 0.81997 0.0
C1023 C 0.47242 0.50091 0.83424 0.0
C1024 C 0.47387 0.47004 0.7815 0.0
C1025 C 0.47066 0.49676 0.75642 0.0
C1026 C 0.46783 0.52558 0.77077 0.0
C1027 C 0.46874 0.52763 0.80926 0.0
H1028 H 0.79494 0.23329 0.91911 0.0
H1029 H 0.73764 0.15937 0.90924 0.0
H1030 H 0.79743 0.21815 0.98549 0.0
H1031 H 0.73918 0.14511 0.97682 0.0
H1032 H 0.70946 0.18178 0.09737 0.0
H1033 H 0.71594 0.17555 0.03046 0.0
H1034 H 0.81414 0.17631 0.03533 0.0
H1035 H 0.80765 0.18305 0.10207 0.0
C1036 C 0.78357 0.21323 0.93072 0.0
C1037 C 0.76594 0.1977 0.90855 0.0
C1038 C 0.78499 0.20458 0.96901 0.0
C1039 C 0.76851 0.18045 0.98629 0.0
C1040 C 0.75198 0.16391 0.96412 0.0
C1041 C 0.75092 0.17228 0.92552 0.0
C1042 C 0.73247 0.17984 0.08429 0.0
C1043 C 0.758 0.18342 0.10471 0.0
C1044 C 0.73621 0.17597 0.0461 0.0
C1045 C 0.76552 0.17583 0.02771 0.0
C1046 C 0.79127 0.17661 0.04885 0.0
C1047 C 0.78755 0.18029 0.08707 0.0
H1048 H 0.09303 0.44155 0.16234 0.0
H1049 H 0.0637 0.53804 0.16075 0.0
H1050 H 0.10517 0.44021 0.22796 0.0
H1051 H 0.07362 0.53667 0.22663 0.0
H1052 H 0.0874 0.53208 0.34526 0.0
H1053 H 0.10218 0.53158 0.27904 0.0
H1054 H 0.07421 0.43915 0.2824 0.0
H1055 H 0.06239 0.43861 0.34911 0.0
C1056 C 0.08984 0.46259 0.17602 0.0
C1057 C 0.07736 0.48986 0.15691 0.0
C1058 C 0.09643 0.46183 0.21365 0.0
C1059 C 0.08971 0.48812 0.23311 0.0
C1060 C 0.07947 0.51597 0.21282 0.0
C1061 C 0.0736 0.51684 0.17499 0.0
C1062 C 0.08549 0.51119 0.33224 0.0
C1063 C 0.07293 0.48561 0.3525 0.0
C1064 C 0.09357 0.51109 0.29397 0.0
C1065 C 0.08867 0.48567 0.27486 0.0
C1066 C 0.07847 0.45921 0.29583 0.0
C1067 C 0.07103 0.45909 0.3342 0.0
H1068 H 0.80457 0.80917 0.61242 0.0
H1069 H 0.73389 0.74625 0.63418 0.0
H1070 H 0.79844 0.81066 0.5448 0.0
H1071 H 0.72796 0.747 0.56674 0.0
H1072 H 0.70345 0.78022 0.44707 0.0
H1073 H 0.70926 0.78117 0.51407 0.0
H1074 H 0.8078 0.77787 0.49399 0.0
H1075 H 0.80198 0.77702 0.4271 0.0
C1076 C 0.7879 0.79555 0.60246 0.0
C1077 C 0.76973 0.77756 0.62794 0.0
C1078 C 0.78441 0.79626 0.56393 0.0
C1079 C 0.76266 0.77898 0.55036 0.0
C1080 C 0.74458 0.76092 0.57623 0.0
C1081 C 0.74808 0.76026 0.6147 0.0
C1082 C 0.72634 0.77965 0.457 0.0
C1083 C 0.75224 0.77859 0.43175 0.0
C1084 C 0.72968 0.78014 0.49539 0.0
C1085 C 0.75901 0.77951 0.50942 0.0
C1086 C 0.78487 0.77884 0.48408 0.0
C1087 C 0.78152 0.77839 0.44572 0.0
H1088 H 0.46928 0.49324 0.19104 0.0
H1089 H 0.56576 0.50673 0.17123 0.0
H1090 H 0.47316 0.49746 0.25762 0.0
H1091 H 0.56963 0.511 0.23801 0.0
H1092 H 0.55431 0.55195 0.3521 0.0
H1093 H 0.55198 0.54632 0.28509 0.0
H1094 H 0.49607 0.46979 0.3127 0.0
H1095 H 0.49811 0.47605 0.37945 0.0
C1096 C 0.49142 0.4967 0.20098 0.0
C1097 C 0.51724 0.49954 0.17586 0.0
C1098 C 0.49363 0.49915 0.23914 0.0
C1099 C 0.52171 0.50454 0.25309 0.0
C1100 C 0.54758 0.50726 0.22803 0.0
C1101 C 0.54537 0.50479 0.18981 0.0
C1102 C 0.54163 0.534 0.34352 0.0
C1103 C 0.52628 0.51449 0.37036 0.0
C1104 C 0.54042 0.5306 0.30537 0.0
C1105 C 0.5238 0.50763 0.2936 0.0
C1106 C 0.50872 0.48794 0.32082 0.0
C1107 C 0.50999 0.49135 0.35889 0.0
H1108 H 0.30209 0.79412 0.09088 0.0
H1109 H 0.20773 0.83132 0.10219 0.0
H1110 H 0.30169 0.805 0.02337 0.0
H1111 H 0.20746 0.84344 0.03424 0.0
H1112 H 0.20568 0.80269 0.91959 0.0
H1113 H 0.20553 0.81235 0.98499 0.0
H1114 H 0.29903 0.83769 0.96754 0.0
H1115 H 0.29937 0.82657 0.90223 0.0
C1116 C 0.28158 0.80571 0.07893 0.0
C1117 C 0.25485 0.81158 0.10166 0.0
C1118 C 0.28133 0.81209 0.0401 0.0
C1119 C 0.25439 0.82481 0.02313 0.0
C1120 C 0.22838 0.833 0.04626 0.0
C1121 C 0.22854 0.82621 0.08515 0.0
C1122 C 0.22588 0.81111 0.92955 0.0
C1123 C 0.25266 0.81352 0.90614 0.0
C1124 C 0.22582 0.81682 0.96708 0.0
C1125 C 0.25245 0.8254 0.98184 0.0
C1126 C 0.27838 0.83037 0.95739 0.0
C1127 C 0.27857 0.82418 0.91998 0.0
H1128 H 0.94518 0.56395 0.85968 0.0
H1129 H 0.93322 0.46771 0.85528 0.0
H1130 H 0.93583 0.57389 0.79317 0.0
H1131 H 0.92461 0.47758 0.78848 0.0
H1132 H 0.90361 0.50593 0.66793 0.0
H1133 H 0.89375 0.50517 0.73586 0.0
H1134 H 0.97265 0.55651 0.742 0.0
H1135 H 0.98324 0.55636 0.67514 0.0
C1136 C 0.93962 0.54508 0.8448 0.0
C1137 C 0.94038 0.51495 0.86251 0.0
C1138 C 0.93448 0.55076 0.80667 0.0
C1139 C 0.92993 0.52644 0.78561 0.0
C1140 C 0.92795 0.49679 0.80404 0.0
C1141 C 0.93321 0.49108 0.84217 0.0
C1142 C 0.91874 0.51722 0.68375 0.0
C1143 C 0.94438 0.53101 0.6659 0.0
C1144 C 0.91293 0.51694 0.72256 0.0
C1145 C 0.93237 0.53085 0.74413 0.0
C1146 C 0.95689 0.54611 0.72604 0.0
C1147 C 0.96293 0.54605 0.6875 0.0
H1148 H 0.27726 0.25501 0.37786 0.0
H1149 H 0.20559 0.19301 0.39676 0.0
H1150 H 0.2823 0.25329 0.44557 0.0
H1151 H 0.21082 0.19053 0.46465 0.0
H1152 H 0.20472 0.22459 0.58243 0.0
H1153 H 0.20058 0.22323 0.51533 0.0
H1154 H 0.29943 0.21905 0.49891 0.0
H1155 H 0.30356 0.22053 0.56615 0.0
C1156 C 0.26274 0.24089 0.39677 0.0
C1157 C 0.241 0.22422 0.38264 0.0
C1158 C 0.26572 0.23969 0.4354 0.0
C1159 C 0.247 0.22171 0.46055 0.0
C1160 C 0.22533 0.20487 0.44609 0.0
C1161 C 0.22237 0.20613 0.4074 0.0
C1162 C 0.2256 0.22289 0.56459 0.0
C1163 C 0.25448 0.22267 0.57965 0.0
C1164 C 0.22322 0.22214 0.52609 0.0
C1165 C 0.24966 0.22111 0.5017 0.0
C1166 C 0.27858 0.22035 0.51684 0.0
C1167 C 0.28096 0.22115 0.55537 0.0
H1168 H 0.12162 0.10203 1.00383 0.0
H1169 H 0.04688 0.10426 0.08815 0.0
H1170 H 0.15038 0.1327 0.04025 0.0
H1171 H 0.07594 0.13287 0.12584 0.0
H1172 H 0.1241 0.2018 0.17686 0.0
H1173 H 0.09494 0.17866 0.13392 0.0
H1174 H 0.17795 0.12833 0.09376 0.0
H1175 H 0.2076 0.1541 0.13374 0.0
C1176 C 0.1114 0.10931 0.03011 0.0
C1177 C 0.08205 0.10128 0.04313 0.0
C1178 C 0.12791 0.12652 0.05123 0.0
C1179 C 0.11563 0.13525 0.08622 0.0
C1180 C 0.08598 0.12733 0.09876 0.0
C1181 C 0.06929 0.11081 0.07726 0.0
C1182 C 0.13633 0.18633 0.15834 0.0
C1183 C 0.16833 0.17991 0.15896 0.0
C1184 C 0.11944 0.17258 0.13404 0.0
C1185 C 0.13394 0.15138 0.11036 0.0
C1186 C 0.16594 0.14487 0.11106 0.0
C1187 C 0.18294 0.15919 0.13473 0.0
H1188 H 0.09348 0.86553 0.48701 0.0
H1189 H 0.12177 0.9454 0.41709 0.0
H1190 H 0.12728 0.83239 0.44862 0.0
H1191 H 0.15621 0.91244 0.37967 0.0
H1192 H 0.18088 0.84256 0.29312 0.0
H1193 H 0.15007 0.87602 0.33429 0.0
H1194 H 0.18154 0.81784 0.43117 0.0
H1195 H 0.21198 0.78425 0.38954 0.0
C1196 C 0.10711 0.87603 0.46371 0.0
C1197 C 0.10485 0.90813 0.45513 0.0
C1198 C 0.12668 0.85706 0.4419 0.0
C1199 C 0.14429 0.86977 0.41093 0.0
C1200 C 0.14265 0.90189 0.40303 0.0
C1201 C 0.12319 0.92082 0.42483 0.0
C1202 C 0.18116 0.83717 0.32324 0.0
C1203 C 0.19857 0.81107 0.33842 0.0
C1204 C 0.16374 0.8563 0.34682 0.0
C1205 C 0.16342 0.84964 0.38605 0.0
C1206 C 0.18108 0.82345 0.40111 0.0
C1207 C 0.19858 0.80435 0.37745 0.0
H1208 H 0.31007 0.8171 0.63068 0.0
H1209 H 0.34962 0.8316 0.73336 0.0
H1210 H 0.34474 0.85194 0.59541 0.0
H1211 H 0.38437 0.86655 0.6984 0.0
H1212 H 0.46267 0.90772 0.62101 0.0
H1213 H 0.42835 0.87235 0.65627 0.0
H1214 H 0.35734 0.90339 0.57997 0.0
H1215 H 0.39198 0.93826 0.54473 0.0
C1216 C 0.3261 0.82784 0.64585 0.0
C1217 C 0.32677 0.8213 0.68511 0.0
C1218 C 0.3461 0.84809 0.62554 0.0
C1219 C 0.36788 0.86261 0.64354 0.0
C1220 C 0.36854 0.85586 0.68291 0.0
C1221 C 0.34838 0.83577 0.70322 0.0
C1222 C 0.43969 0.90701 0.61184 0.0
C1223 C 0.4302 0.92625 0.58007 0.0
C1224 C 0.41975 0.88673 0.63226 0.0
C1225 C 0.38951 0.88456 0.62155 0.0
C1226 C 0.38027 0.90371 0.58939 0.0
C1227 C 0.40016 0.92409 0.56915 0.0
H1228 H 0.30643 0.18333 0.86237 0.0
H1229 H 0.3489 0.14571 0.76365 0.0
H1230 H 0.34059 0.14854 0.90178 0.0
H1231 H 0.38269 0.11016 0.80276 0.0
H1232 H 0.45983 0.07414 0.88037 0.0
H1233 H 0.42561 0.10878 0.84097 0.0
H1234 H 0.35114 0.0958 0.92472 0.0
H1235 H 0.38591 0.06198 0.96437 0.0
C1236 C 0.32306 0.16738 0.84927 0.0
C1237 C 0.32528 0.16711 0.81018 0.0
C1238 C 0.3425 0.14731 0.87175 0.0
C1239 C 0.36451 0.12642 0.85556 0.0
C1240 C 0.36642 0.12618 0.81624 0.0
C1241 C 0.347 0.14633 0.79381 0.0
C1242 C 0.43612 0.07882 0.89017 0.0
C1243 C 0.42542 0.06552 0.92528 0.0
C1244 C 0.41641 0.09846 0.86757 0.0
C1245 C 0.38548 0.10518 0.87953 0.0
C1246 C 0.37485 0.09158 0.91473 0.0
C1247 C 0.39463 0.07202 0.93736 0.0
H1248 H 0.88212 0.9474 0.95364 0.0
H1249 H 0.93553 0.86389 0.99287 0.0
H1250 H 0.8525 0.91821 0.91783 0.0
H1251 H 0.90748 0.83503 0.95407 0.0
H1252 H 0.8357 0.78815 0.8984 0.0
H1253 H 0.86063 0.81529 0.94266 0.0
H1254 H 0.86143 0.89534 0.86148 0.0
H1255 H 0.83533 0.86854 0.81836 0.0
C1256 C 0.88735 0.92274 0.9552 0.0
C1257 C 0.9115 0.90813 0.97614 0.0
C1258 C 0.87069 0.90605 0.93388 0.0
C1259 C 0.87808 0.87439 0.93225 0.0
C1260 C 0.90116 0.85941 0.95461 0.0
C1261 C 0.91754 0.87607 0.97653 0.0
C1262 C 0.84143 0.81152 0.89021 0.0
C1263 C 0.83373 0.8264 0.85518 0.0
C1264 C 0.85569 0.82705 0.91543 0.0
C1265 C 0.86281 0.85761 0.90581 0.0
C1266 C 0.85556 0.87213 0.8703 0.0
C1267 C 0.84089 0.85677 0.8454 0.0
H1268 H 0.77954 0.21385 0.62148 0.0
H1269 H 0.8337 0.18086 0.71562 0.0
H1270 H 0.8126 0.18094 0.58142 0.0
H1271 H 0.86678 0.14798 0.67594 0.0
H1272 H 0.93904 0.1211 0.58605 0.0
H1273 H 0.90497 0.15516 0.62252 0.0
H1274 H 0.82653 0.12508 0.57392 0.0
H1275 H 0.86081 0.0913 0.5366 0.0
C1276 C 0.7985 0.19939 0.63347 0.0
C1277 C 0.80435 0.19982 0.67137 0.0
C1278 C 0.8173 0.18056 0.61071 0.0
C1279 C 0.8424 0.16204 0.62547 0.0
C1280 C 0.84792 0.16234 0.6636 0.0
C1281 C 0.829 0.18097 0.68634 0.0
C1282 C 0.91457 0.12211 0.58258 0.0
C1283 C 0.90265 0.10354 0.5583 0.0
C1284 C 0.89502 0.14135 0.60386 0.0
C1285 C 0.86305 0.14261 0.60133 0.0
C1286 C 0.85108 0.12468 0.57635 0.0
C1287 C 0.87068 0.10521 0.55519 0.0
H1288 H 0.69716 0.17947 0.38314 0.0
H1289 H 0.6593 0.16072 0.28107 0.0
H1290 H 0.66258 0.14508 0.41953 0.0
H1291 H 0.6246 0.12636 0.31714 0.0
H1292 H 0.61487 0.05908 0.47276 0.0
H1293 H 0.65013 0.09314 0.4368 0.0
H1294 H 0.58003 0.12277 0.3588 0.0
H1295 H 0.54518 0.08846 0.39476 0.0
C1296 C 0.68154 0.16788 0.36836 0.0
C1297 C 0.68126 0.17311 0.32893 0.0
C1298 C 0.6616 0.14793 0.38932 0.0
C1299 C 0.64026 0.1325 0.37178 0.0
C1300 C 0.64008 0.13784 0.33224 0.0
C1301 C 0.6602 0.15759 0.31131 0.0
C1302 C 0.60699 0.07296 0.44799 0.0
C1303 C 0.57695 0.07105 0.43702 0.0
C1304 C 0.62723 0.09276 0.42727 0.0
C1305 C 0.61839 0.11122 0.39441 0.0
C1306 C 0.58827 0.10899 0.38343 0.0
C1307 C 0.56801 0.08938 0.40432 0.0
H1308 H 0.68087 0.80411 0.15589 0.0
H1309 H 0.66244 0.86552 0.24234 0.0
H1310 H 0.64541 0.83666 0.11569 0.0
H1311 H 0.62719 0.89852 0.20222 0.0
H1312 H 0.5422 0.93169 0.13506 0.0
H1313 H 0.57717 0.8987 0.17553 0.0
H1314 H 0.64107 0.88722 0.08007 0.0
H1315 H 0.60573 0.91992 0.03986 0.0
C1316 C 0.6692 0.82472 0.16609 0.0
C1317 C 0.6743 0.83253 0.20194 0.0
C1318 C 0.64906 0.84344 0.14311 0.0
C1319 C 0.63345 0.87029 0.15564 0.0
C1320 C 0.63854 0.87788 0.1918 0.0
C1321 C 0.6588 0.85918 0.21469 0.0
C1322 C 0.56376 0.922 0.12296 0.0
C1323 C 0.57143 0.92818 0.08455 0.0
C1324 C 0.58386 0.90329 0.14605 0.0
C1325 C 0.612 0.89028 0.1311 0.0
C1326 C 0.61948 0.89652 0.09247 0.0
C1327 C 0.59941 0.91533 0.06946 0.0
H1328 H 0.55079 0.58556 0.63185 0.0
H1329 H 0.61386 0.59668 0.53497 0.0
H1330 H 0.58163 0.61554 0.66626 0.0
H1331 H 0.64393 0.62828 0.56824 0.0
H1332 H 0.70916 0.65465 0.64904 0.0
H1333 H 0.67802 0.62464 0.61588 0.0
H1334 H 0.59602 0.6647 0.67203 0.0
H1335 H 0.62743 0.69251 0.70786 0.0
C1336 C 0.57108 0.59494 0.61786 0.0
C1337 C 0.58018 0.58895 0.58101 0.0
C1338 C 0.58866 0.61225 0.63738 0.0
C1339 C 0.61535 0.62437 0.62009 0.0
C1340 C 0.62394 0.61878 0.58277 0.0
C1341 C 0.60668 0.60094 0.56356 0.0
C1342 C 0.68454 0.65663 0.65493 0.0
C1343 C 0.67089 0.67591 0.68139 0.0
C1344 C 0.66658 0.63982 0.63531 0.0
C1345 C 0.63443 0.64231 0.64106 0.0
C1346 C 0.62073 0.66184 0.66722 0.0
C1347 C 0.63875 0.67823 0.68737 0.0
H1348 H 0.60137 0.40723 0.99632 0.0
H1349 H 0.55414 0.44884 0.89991 0.0
H1350 H 0.63577 0.37598 0.95589 0.0
H1351 H 0.58788 0.41731 0.85927 0.0
H1352 H 0.67321 0.37921 0.7935 0.0
H1353 H 0.64065 0.41136 0.83465 0.0
H1354 H 0.63486 0.33334 0.91808 0.0
H1355 H 0.66805 0.30167 0.87704 0.0
C1356 C 0.59843 0.40947 0.96641 0.0
C1357 C 0.57536 0.43017 0.95094 0.0
C1358 C 0.6179 0.39156 0.94329 0.0
C1359 C 0.61459 0.39413 0.9043 0.0
C1360 C 0.59137 0.41506 0.88904 0.0
C1361 C 0.57195 0.43294 0.91219 0.0
C1362 C 0.66499 0.36918 0.82076 0.0
C1363 C 0.67296 0.33818 0.83236 0.0
C1364 C 0.64623 0.38741 0.8442 0.0
C1365 C 0.63507 0.37491 0.87966 0.0
C1366 C 0.64335 0.34381 0.89119 0.0
C1367 C 0.66213 0.32562 0.86773 0.0
H1368 H 0.8155 0.35599 0.2152 0.0
H1369 H 0.83915 0.28958 0.1357 0.0
H1370 H 0.85004 0.39116 0.18016 0.0
H1371 H 0.87404 0.32442 0.10059 0.0
H1372 H 0.91447 0.40573 0.02564 0.0
H1373 H 0.87934 0.37071 0.05997 0.0
H1374 H 0.90215 0.40146 0.1643 0.0
H1375 H 0.93717 0.43625 0.12977 0.0
C1376 C 0.82811 0.34886 0.19017 0.0
C1377 C 0.82434 0.31979 0.17846 0.0
C1378 C 0.84825 0.36903 0.17002 0.0
C1379 C 0.86537 0.3611 0.13707 0.0
C1380 C 0.86131 0.33197 0.12532 0.0
C1381 C 0.84132 0.31172 0.14566 0.0
C1382 C 0.91195 0.40503 0.05592 0.0
C1383 C 0.92857 0.42435 0.07464 0.0
C1384 C 0.8918 0.3847 0.07584 0.0
C1385 C 0.88728 0.38288 0.1154 0.0
C1386 C 0.90415 0.40219 0.13402 0.0
C1387 C 0.92446 0.42229 0.11411 0.0
H1388 H 0.96023 0.57582 0.37884 0.0
H1389 H 0.89874 0.58603 0.47624 0.0
H1390 H 0.92507 0.61058 0.34054 0.0
H1391 H 0.8632 0.62047 0.43818 0.0
H1392 H 0.82337 0.70598 0.36675 0.0
H1393 H 0.85925 0.67186 0.40467 0.0
H1394 H 0.87435 0.61253 0.31515 0.0
H1395 H 0.83871 0.6471 0.27731 0.0
C1396 C 0.93908 0.58556 0.39189 0.0
C1397 C 0.93203 0.57844 0.43029 0.0
C1398 C 0.91887 0.60527 0.37004 0.0
C1399 C 0.89126 0.61835 0.38625 0.0
C1400 C 0.8844 0.61114 0.42486 0.0
C1401 C 0.90458 0.59135 0.44663 0.0
C1402 C 0.83447 0.68561 0.35538 0.0
C1403 C 0.82838 0.67895 0.31936 0.0
C1404 C 0.85485 0.66598 0.37706 0.0
C1405 C 0.86968 0.63936 0.36303 0.0
C1406 C 0.86362 0.63296 0.3267 0.0
C1407 C 0.84314 0.65256 0.3051 0.0
H1408 H 0.32433 0.37163 0.29679 0.0
H1409 H 0.36986 0.28709 0.34625 0.0
H1410 H 0.35617 0.40101 0.33011 0.0
H1411 H 0.40314 0.31657 0.37783 0.0
H1412 H 0.42677 0.37919 0.46551 0.0
H1413 H 0.39906 0.34781 0.42902 0.0
H1414 H 0.4069 0.41548 0.3331 0.0
H1415 H 0.43366 0.44717 0.37016 0.0
C1416 C 0.3413 0.35932 0.31459 0.0
C1417 C 0.34435 0.32703 0.31915 0.0
C1418 C 0.35989 0.37617 0.33328 0.0
C1419 C 0.3822 0.36114 0.35668 0.0
C1420 C 0.38588 0.32884 0.36041 0.0
C1421 C 0.36708 0.31195 0.34191 0.0
C1422 C 0.42267 0.38712 0.43654 0.0
C1423 C 0.43194 0.41562 0.42065 0.0
C1424 C 0.40699 0.36914 0.41556 0.0
C1425 C 0.40064 0.37921 0.37818 0.0
C1426 C 0.41086 0.40736 0.36204 0.0
C1427 C 0.4262 0.42546 0.38315 0.0
H1428 H 0.39029 0.59624 0.01478 0.0
H1429 H 0.43419 0.54947 0.11103 0.0
H1430 H 0.35689 0.62786 0.05581 0.0
H1431 H 0.40148 0.58133 0.15229 0.0
H1432 H 0.31819 0.62301 0.21816 0.0
H1433 H 0.34894 0.59008 0.17626 0.0
H1434 H 0.35986 0.66893 0.09524 0.0
H1435 H 0.3284 0.70141 0.13697 0.0
C1436 C 0.3927 0.59291 0.04479 0.0
C1437 C 0.41461 0.57071 0.06002 0.0
C1438 C 0.3738 0.61102 0.06826 0.0
C1439 C 0.37653 0.60718 0.10737 0.0
C1440 C 0.39846 0.58463 0.12241 0.0
C1441 C 0.41729 0.56654 0.09891 0.0
C1442 C 0.32708 0.63304 0.19123 0.0
C1443 C 0.32101 0.66451 0.18048 0.0
C1444 C 0.34483 0.61436 0.16737 0.0
C1445 C 0.35692 0.62686 0.13237 0.0
C1446 C 0.35057 0.65845 0.12171 0.0
C1447 C 0.33277 0.67709 0.14557 0.0
H1448 H 0.19697 0.67865 0.88646 0.0
H1449 H 0.15954 0.66386 0.78255 0.0
H1450 H 0.162 0.64359 0.92076 0.0
H1451 H 0.12443 0.62877 0.81657 0.0
H1452 H 0.04487 0.58792 0.89222 0.0
H1453 H 0.07966 0.62329 0.85785 0.0
H1454 H 0.1496 0.59175 0.93542 0.0
H1455 H 0.11451 0.55678 0.9697 0.0
C1456 C 0.18136 0.66778 0.87081 0.0
C1457 C 0.18139 0.6743 0.83149 0.0
C1458 C 0.16118 0.64743 0.89057 0.0
C1459 C 0.13988 0.63282 0.87192 0.0
C1460 C 0.1399 0.63953 0.8325 0.0
C1461 C 0.16026 0.65971 0.81276 0.0
C1462 C 0.06772 0.5885 0.90185 0.0
C1463 C 0.07678 0.56912 0.93369 0.0
C1464 C 0.08792 0.60878 0.88194 0.0
C1465 C 0.11799 0.61083 0.89331 0.0
C1466 C 0.12681 0.59151 0.92553 0.0
C1467 C 0.10667 0.5711 0.94521 0.0
H1468 H 0.04393 0.42609 0.62917 0.0
H1469 H 0.11588 0.43808 0.54252 0.0
H1470 H 0.07844 0.38977 0.66619 0.0
H1471 H 0.15097 0.40256 0.57977 0.0
H1472 H 0.19494 0.31275 0.63757 0.0
H1473 H 0.16039 0.34918 0.60067 0.0
H1474 H 0.12279 0.38634 0.7025 0.0
H1475 H 0.15694 0.34917 0.7391 0.0
C1476 C 0.06728 0.421 0.61828 0.0
C1477 C 0.07734 0.43472 0.58311 0.0
C1478 C 0.08715 0.4004 0.63951 0.0
C1479 C 0.1176 0.39313 0.62607 0.0
C1480 C 0.12761 0.40718 0.59084 0.0
C1481 C 0.10766 0.4277 0.56959 0.0
C1482 C 0.17919 0.32878 0.65183 0.0
C1483 C 0.17836 0.32829 0.69097 0.0
C1484 C 0.15955 0.34978 0.63079 0.0
C1485 C 0.13872 0.37083 0.64851 0.0
C1486 C 0.13814 0.37025 0.68788 0.0
C1487 C 0.15776 0.34916 0.70888 0.0
loop_
_geom_bond_atom_site_label_1
_geom_bond_atom_site_label_2
_geom_bond_distance
_geom_bond_site_symmetry_2
_ccdc_geom_bond_type
C0 C1 1.443 . S
C0 N4 1.376 . S
C0 C38 1.389 1_545 S
C1 C0 1.443 . S
C1 C2 1.340 . S
C1 H41 0.951 . S
C2 C1 1.340 . S
C2 C3 1.439 . S
C2 H42 0.950 . S
C3 C2 1.439 . S
C3 N4 1.374 . S
C3 C37 1.395 1_554 S
N4 C0 1.376 . S
N4 C3 1.374 . S
N4 Co5 2.008 1_655 S
Co5 N4 2.008 1_455 S
Co5 N6 1.995 1_454 S
Co5 N11 2.008 1_544 S
Co5 N16 1.995 1_545 S
Co5 N21 2.282 1_444 S
Co5 N27 2.282 . S
N6 Co5 1.995 1_656 S
N6 C7 1.376 . S
N6 C10 1.383 . S
C7 N6 1.376 . S
C7 C8 1.446 . S
C7 C37 1.391 . S
C8 C7 1.446 . S
C8 C9 1.339 . S
C8 H43 0.949 . S
C9 C8 1.339 . S
C9 C10 1.439 . S
C9 H44 0.950 . S
C10 N6 1.383 . S
C10 C9 1.439 . S
C10 C39 1.392 1_655 S
N11 Co5 2.008 1_566 S
N11 C12 1.376 . S
N11 C15 1.374 . S
C12 N11 1.376 . S
C12 C13 1.443 . S
C12 C39 1.389 1_565 S
C13 C12 1.443 . S
C13 C14 1.340 . S
C13 H45 0.951 . S
C14 C13 1.340 . S
C14 C15 1.439 . S
C14 H46 0.950 . S
C15 N11 1.374 . S
C15 C14 1.439 . S
C15 C40 1.395 1_556 S
N16 Co5 1.995 1_565 S
N16 C17 1.376 . S
N16 C20 1.383 . S
C17 N16 1.376 . S
C17 C18 1.446 . S
C17 C40 1.391 . S
C18 C17 1.446 . S
C18 C19 1.339 . S
C18 H47 0.949 . S
C19 C18 1.339 . S
C19 C20 1.439 . S
C19 H48 0.950 . S
C20 N16 1.383 . S
C20 C19 1.439 . S
C20 C38 1.392 1_455 S
N21 Co5 2.282 1_666 S
N21 C24 1.332 . S
N21 C26 1.332 . S
C22 C23 1.386 . S
C22 C25 1.388 . S
C23 C22 1.386 . S
C23 C24 1.382 . S
C23 H49 0.950 . S
C24 N21 1.332 . S
C24 C23 1.382 . S
C24 H35 0.952 . S
C25 C22 1.388 . S
C25 C26 1.382 . S
C25 H50 0.950 . S
C26 N21 1.332 . S
C26 C25 1.382 . S
C26 H36 0.915 1_565 S
N27 Co5 2.282 . S
N27 C31 1.332 . S
N27 C32 1.332 . S
C28 C29 1.388 . S
C28 C32 1.382 . S
C28 H51 0.950 . S
C29 C28 1.388 . S
C29 C30 1.386 . S
C30 C29 1.386 . S
C30 C31 1.382 . S
C30 H52 0.950 . S
C31 N27 1.332 . S
C31 C30 1.382 . S
C31 H33 0.952 . S
C32 N27 1.332 . S
C32 C28 1.382 . S
C32 H34 0.924 1_545 S
H33 C31 0.952 . S
H34 C32 0.924 1_565 S
H35 C24 0.952 . S
H36 C26 0.915 1_545 S
C37 C3 1.395 1_556 S
C37 C7 1.391 . S
C38 C0 1.389 1_565 S
C38 C20 1.392 1_655 S
C39 C10 1.392 1_455 S
C39 C12 1.389 1_545 S
C40 C15 1.395 1_554 S
C40 C17 1.391 . S
H41 C1 0.951 . S
H42 C2 0.950 . S
H43 C8 0.949 . S
H44 C9 0.950 . S
H45 C13 0.951 . S
H46 C14 0.950 . S
H47 C18 0.949 . S
H48 C19 0.950 . S
H49 C23 0.950 . S
H50 C25 0.950 . S
H51 C28 0.950 . S
H52 C30 0.950 . S
C53 C54 1.443 . S
C53 N57 1.376 . S
C53 C91 1.389 . S
C54 C53 1.443 . S
C54 C55 1.340 . S
C54 H94 0.951 . S
C55 C54 1.340 . S
C55 C56 1.439 . S
C55 H95 0.950 . S
C56 C55 1.439 . S
C56 N57 1.374 . S
C56 C90 1.395 . S
N57 C53 1.376 . S
N57 C56 1.374 . S
N57 Co58 2.008 . S
Co58 N57 2.008 . S
Co58 N59 1.995 . S
Co58 N64 2.008 . S
Co58 N69 1.995 . S
Co58 N74 2.282 . S
Co58 N80 2.282 . S
N59 Co58 1.995 . S
N59 C60 1.376 . S
N59 C63 1.383 . S
C60 N59 1.376 . S
C60 C61 1.446 . S
C60 C90 1.391 . S
C61 C60 1.446 . S
C61 C62 1.339 . S
C61 H96 0.949 . S
C62 C61 1.339 . S
C62 C63 1.439 . S
C62 H97 0.950 . S
C63 N59 1.383 . S
C63 C62 1.439 . S
C63 C92 1.392 . S
N64 Co58 2.008 . S
N64 C65 1.376 . S
N64 C68 1.374 . S
C65 N64 1.376 . S
C65 C66 1.443 . S
C65 C92 1.389 . S
C66 C65 1.443 . S
C66 C67 1.340 . S
C66 H98 0.951 . S
C67 C66 1.340 . S
C67 C68 1.439 . S
C67 H99 0.950 . S
C68 N64 1.374 . S
C68 C67 1.439 . S
C68 C93 1.395 . S
N69 Co58 1.995 . S
N69 C70 1.376 . S
N69 C73 1.383 . S
C70 N69 1.376 . S
C70 C71 1.446 . S
C70 C93 1.391 . S
C71 C70 1.446 . S
C71 C72 1.339 . S
C71 H100 0.949 . S
C72 C71 1.339 . S
C72 C73 1.439 . S
C72 H101 0.950 . S
C73 N69 1.383 . S
C73 C72 1.439 . S
C73 C91 1.392 . S
N74 Co58 2.282 . S
N74 C77 1.332 . S
N74 C79 1.332 . S
C75 C76 1.386 . S
C75 C78 1.388 . S
C76 C75 1.386 . S
C76 C77 1.382 . S
C76 H102 0.950 . S
C77 N74 1.332 . S
C77 C76 1.382 . S
C77 H88 0.952 . S
C78 C75 1.388 . S
C78 C79 1.382 . S
C78 H103 0.950 . S
C79 N74 1.332 . S
C79 C78 1.382 . S
C79 H89 0.948 . S
N80 Co58 2.282 . S
N80 C84 1.332 . S
N80 C85 1.332 . S
C81 C82 1.388 . S
C81 C85 1.382 . S
C81 H104 0.950 . S
C82 C81 1.388 . S
C82 C83 1.386 . S
C83 C82 1.386 . S
C83 C84 1.382 . S
C83 H105 0.950 . S
C84 N80 1.332 . S
C84 C83 1.382 . S
C84 H86 0.952 . S
C85 N80 1.332 . S
C85 C81 1.382 . S
C85 H87 0.948 . S
H86 C84 0.952 . S
H87 C85 0.948 . S
H88 C77 0.952 . S
H89 C79 0.948 . S
C90 C56 1.395 . S
C90 C60 1.391 . S
C91 C53 1.389 . S
C91 C73 1.392 . S
C92 C63 1.392 . S
C92 C65 1.389 . S
C93 C68 1.395 . S
C93 C70 1.391 . S
H94 C54 0.951 . S
H95 C55 0.950 . S
H96 C61 0.949 . S
H97 C62 0.950 . S
H98 C66 0.951 . S
H99 C67 0.950 . S
H100 C71 0.949 . S
H101 C72 0.950 . S
H102 C76 0.950 . S
H103 C78 0.950 . S
H104 C81 0.950 . S
H105 C83 0.950 . S
C106 C107 1.443 . S
C106 N110 1.376 1_565 S
C106 C144 1.389 . S
C107 C106 1.443 . S
C107 C108 1.340 1_565 S
C107 H147 0.951 . S
C108 C107 1.340 1_545 S
C108 C109 1.439 . S
C108 H148 0.950 . S
C109 C108 1.439 . S
C109 N110 1.374 . S
C109 C143 1.395 . S
N110 C106 1.376 1_545 S
N110 C109 1.374 . S
N110 Co111 2.008 . S
Co111 N110 2.008 . S
Co111 N112 1.995 . S
Co111 N117 2.008 1_545 S
Co111 N122 1.995 1_545 S
Co111 N127 2.282 1_545 S
Co111 N133 2.282 . S
N112 Co111 1.995 . S
N112 C113 1.376 . S
N112 C116 1.383 . S
C113 N112 1.376 . S
C113 C114 1.446 . S
C113 C143 1.391 . S
C114 C113 1.446 . S
C114 C115 1.339 . S
C114 H149 0.949 . S
C115 C114 1.339 . S
C115 C116 1.439 . S
C115 H150 0.950 . S
C116 N112 1.383 . S
C116 C115 1.439 . S
C116 C145 1.392 . S
N117 Co111 2.008 1_565 S
N117 C118 1.376 1_565 S
N117 C121 1.374 . S
C118 N117 1.376 1_545 S
C118 C119 1.443 . S
C118 C145 1.389 . S
C119 C118 1.443 . S
C119 C120 1.340 1_545 S
C119 H151 0.951 . S
C120 C119 1.340 1_565 S
C120 C121 1.439 . S
C120 H152 0.950 . S
C121 N117 1.374 . S
C121 C120 1.439 . S
C121 C146 1.395 . S
N122 Co111 1.995 1_565 S
N122 C123 1.376 . S
N122 C126 1.383 . S
C123 N122 1.376 . S
C123 C124 1.446 . S
C123 C146 1.391 . S
C124 C123 1.446 . S
C124 C125 1.339 . S
C124 H153 0.949 . S
C125 C124 1.339 . S
C125 C126 1.439 . S
C125 H154 0.950 . S
C126 N122 1.383 . S
C126 C125 1.439 . S
C126 C144 1.392 . S
N127 Co111 2.282 1_565 S
N127 C130 1.332 . S
N127 C132 1.332 1_565 S
C128 C129 1.386 . S
C128 C131 1.388 1_565 S
C129 C128 1.386 . S
C129 C130 1.382 . S
C129 H155 0.950 . S
C130 N127 1.332 . S
C130 C129 1.382 . S
C130 H141 0.952 . S
C131 C128 1.388 1_545 S
C131 C132 1.382 . S
C131 H156 0.950 . S
C132 N127 1.332 1_545 S
C132 C131 1.382 . S
C132 H142 0.948 . S
N133 Co111 2.282 . S
N133 C137 1.332 . S
N133 C138 1.332 1_545 S
C134 C135 1.388 1_565 S
C134 C138 1.382 . S
C134 H157 0.950 . S
C135 C134 1.388 1_545 S
C135 C136 1.386 . S
C136 C135 1.386 . S
C136 C137 1.382 . S
C136 H158 0.950 . S
C137 N133 1.332 . S
C137 C136 1.382 . S
C137 H139 0.952 . S
C138 N133 1.332 1_565 S
C138 C134 1.382 . S
C138 H140 0.948 . S
H139 C137 0.952 . S
H140 C138 0.948 . S
H141 C130 0.952 . S
H142 C132 0.948 . S
C143 C109 1.395 . S
C143 C113 1.391 . S
C144 C106 1.389 . S
C144 C126 1.392 . S
C145 C116 1.392 . S
C145 C118 1.389 . S
C146 C121 1.395 . S
C146 C123 1.391 . S
H147 C107 0.951 . S
H148 C108 0.950 . S
H149 C114 0.949 . S
H150 C115 0.950 . S
H151 C119 0.951 . S
H152 C120 0.950 . S
H153 C124 0.949 . S
H154 C125 0.950 . S
H155 C129 0.950 . S
H156 C131 0.950 . S
H157 C134 0.950 . S
H158 C136 0.950 . S
C159 C160 1.443 . S
C159 N163 1.376 . S
C159 C197 1.389 . S
C160 C159 1.443 . S
C160 C161 1.340 . S
C160 H200 0.951 . S
C161 C160 1.340 . S
C161 C162 1.439 . S
C161 H201 0.950 . S
C162 C161 1.439 . S
C162 N163 1.374 . S
C162 C196 1.395 . S
N163 C159 1.376 . S
N163 C162 1.374 . S
N163 Co164 2.008 . S
Co164 N163 2.008 . S
Co164 N165 1.995 . S
Co164 N170 2.008 . S
Co164 N175 1.995 . S
Co164 N180 2.282 . S
Co164 N186 2.282 . S
N165 Co164 1.995 . S
N165 C166 1.376 . S
N165 C169 1.383 . S
C166 N165 1.376 . S
C166 C167 1.446 . S
C166 C196 1.391 . S
C167 C166 1.446 . S
C167 C168 1.339 . S
C167 H202 0.949 . S
C168 C167 1.339 . S
C168 C169 1.439 . S
C168 H203 0.950 . S
C169 N165 1.383 . S
C169 C168 1.439 . S
C169 C198 1.392 . S
N170 Co164 2.008 . S
N170 C171 1.376 . S
N170 C174 1.374 . S
C171 N170 1.376 . S
C171 C172 1.443 . S
C171 C198 1.389 . S
C172 C171 1.443 . S
C172 C173 1.340 . S
C172 H204 0.951 . S
C173 C172 1.340 . S
C173 C174 1.439 . S
C173 H205 0.950 . S
C174 N170 1.374 . S
C174 C173 1.439 . S
C174 C199 1.395 . S
N175 Co164 1.995 . S
N175 C176 1.376 . S
N175 C179 1.383 . S
C176 N175 1.376 . S
C176 C177 1.446 . S
C176 C199 1.391 . S
C177 C176 1.446 . S
C177 C178 1.339 . S
C177 H206 0.949 . S
C178 C177 1.339 . S
C178 C179 1.439 . S
C178 H207 0.950 . S
C179 N175 1.383 . S
C179 C178 1.439 . S
C179 C197 1.392 . S
N180 Co164 2.282 . S
N180 C183 1.332 . S
N180 C185 1.332 . S
C181 C182 1.386 . S
C181 C184 1.388 . S
C182 C181 1.386 . S
C182 C183 1.382 . S
C182 H208 0.950 . S
C183 N180 1.332 . S
C183 C182 1.382 . S
C183 H194 0.952 . S
C184 C181 1.388 . S
C184 C185 1.382 . S
C184 H209 0.950 . S
C185 N180 1.332 . S
C185 C184 1.382 . S
C185 H195 0.948 . S
N186 Co164 2.282 . S
N186 C190 1.332 . S
N186 C191 1.332 . S
C187 C188 1.388 . S
C187 C191 1.382 . S
C187 H210 0.950 . S
C188 C187 1.388 . S
C188 C189 1.386 . S
C189 C188 1.386 . S
C189 C190 1.382 . S
C189 H211 0.950 . S
C190 N186 1.332 . S
C190 C189 1.382 . S
C190 H192 0.952 . S
C191 N186 1.332 . S
C191 C187 1.382 . S
C191 H193 0.948 . S
H192 C190 0.952 . S
H193 C191 0.948 . S
H194 C183 0.952 . S
H195 C185 0.948 . S
C196 C162 1.395 . S
C196 C166 1.391 . S
C197 C159 1.389 . S
C197 C179 1.392 . S
C198 C169 1.392 . S
C198 C171 1.389 . S
C199 C174 1.395 . S
C199 C176 1.391 . S
H200 C160 0.951 . S
H201 C161 0.950 . S
H202 C167 0.949 . S
H203 C168 0.950 . S
H204 C172 0.951 . S
H205 C173 0.950 . S
H206 C177 0.949 . S
H207 C178 0.950 . S
H208 C182 0.950 . S
H209 C184 0.950 . S
H210 C187 0.950 . S
H211 C189 0.950 . S
C212 C213 1.443 . S
C212 N216 1.376 . S
C212 C250 1.389 1_655 S
C213 C212 1.443 . S
C213 C214 1.340 . S
C213 H253 0.951 . S
C214 C213 1.340 . S
C214 C215 1.439 . S
C214 H254 0.950 . S
C215 C214 1.439 . S
C215 N216 1.374 . S
C215 C249 1.395 . S
N216 C212 1.376 . S
N216 C215 1.374 . S
N216 Co217 2.008 1_665 S
Co217 N216 2.008 1_445 S
Co217 N218 1.995 1_445 S
Co217 N223 2.008 . S
Co217 N228 1.995 . S
Co217 N233 2.282 1_545 S
Co217 N239 2.282 1_455 S
N218 Co217 1.995 1_665 S
N218 C219 1.376 . S
N218 C222 1.383 . S
C219 N218 1.376 . S
C219 C220 1.446 . S
C219 C249 1.391 . S
C220 C219 1.446 . S
C220 C221 1.339 . S
C220 H255 0.949 . S
C221 C220 1.339 . S
C221 C222 1.439 . S
C221 H256 0.950 . S
C222 N218 1.383 . S
C222 C221 1.439 . S
C222 C251 1.392 1_565 S
N223 Co217 2.008 . S
N223 C224 1.376 . S
N223 C227 1.374 . S
C224 N223 1.376 . S
C224 C225 1.443 . S
C224 C251 1.389 1_455 S
C225 C224 1.443 . S
C225 C226 1.340 . S
C225 H257 0.951 . S
C226 C225 1.340 . S
C226 C227 1.439 . S
C226 H258 0.950 . S
C227 N223 1.374 . S
C227 C226 1.439 . S
C227 C252 1.395 . S
N228 Co217 1.995 . S
N228 C229 1.376 . S
N228 C232 1.383 . S
C229 N228 1.376 . S
C229 C230 1.446 . S
C229 C252 1.391 . S
C230 C229 1.446 . S
C230 C231 1.339 . S
C230 H259 0.949 . S
C231 C230 1.339 . S
C231 C232 1.439 . S
C231 H260 0.950 . S
C232 N228 1.383 . S
C232 C231 1.439 . S
C232 C250 1.392 1_545 S
N233 Co217 2.282 1_565 S
N233 C236 1.332 . S
N233 C238 1.332 . S
C234 C235 1.386 . S
C234 C237 1.388 . S
C235 C234 1.386 . S
C235 C236 1.382 . S
C235 H261 0.950 . S
C236 N233 1.332 . S
C236 C235 1.382 . S
C236 H247 0.952 . S
C237 C234 1.388 . S
C237 C238 1.382 . S
C237 H262 0.950 . S
C238 N233 1.332 . S
C238 C237 1.382 . S
C238 H248 0.948 . S
N239 Co217 2.282 1_655 S
N239 C243 1.332 . S
N239 C244 1.332 . S
C240 C241 1.388 . S
C240 C244 1.382 . S
C240 H263 0.950 . S
C241 C240 1.388 . S
C241 C242 1.386 . S
C242 C241 1.386 . S
C242 C243 1.382 . S
C242 H264 0.950 . S
C243 N239 1.332 . S
C243 C242 1.382 . S
C243 H245 0.952 . S
C244 N239 1.332 . S
C244 C240 1.382 . S
C244 H246 0.948 . S
H245 C243 0.952 . S
H246 C244 0.948 . S
H247 C236 0.952 . S
H248 C238 0.948 . S
C249 C215 1.395 . S
C249 C219 1.391 . S
C250 C212 1.389 1_455 S
C250 C232 1.392 1_565 S
C251 C222 1.392 1_545 S
C251 C224 1.389 1_655 S
C252 C227 1.395 . S
C252 C229 1.391 . S
H253 C213 0.951 . S
H254 C214 0.950 . S
H255 C220 0.949 . S
H256 C221 0.950 . S
H257 C225 0.951 . S
H258 C226 0.950 . S
H259 C230 0.949 . S
H260 C231 0.950 . S
H261 C235 0.950 . S
H262 C237 0.950 . S
H263 C240 0.950 . S
H264 C242 0.950 . S
C265 C266 1.443 . S
C265 N269 1.376 . S
C265 C303 1.389 . S
C266 C265 1.443 . S
C266 C267 1.340 . S
C266 H306 0.951 . S
C267 C266 1.340 . S
C267 C268 1.439 . S
C267 H307 0.950 . S
C268 C267 1.439 . S
C268 N269 1.374 . S
C268 C302 1.395 . S
N269 C265 1.376 . S
N269 C268 1.374 . S
N269 Co270 2.008 . S
Co270 N269 2.008 . S
Co270 N271 1.995 . S
Co270 N276 2.008 . S
Co270 N281 1.995 . S
Co270 N286 2.282 . S
Co270 N292 2.282 . S
N271 Co270 1.995 . S
N271 C272 1.376 . S
N271 C275 1.383 . S
C272 N271 1.376 . S
C272 C273 1.446 . S
C272 C302 1.391 . S
C273 C272 1.446 . S
C273 C274 1.339 . S
C273 H308 0.949 . S
C274 C273 1.339 . S
C274 C275 1.439 . S
C274 H309 0.950 . S
C275 N271 1.383 . S
C275 C274 1.439 . S
C275 C304 1.392 . S
N276 Co270 2.008 . S
N276 C277 1.376 . S
N276 C280 1.374 . S
C277 N276 1.376 . S
C277 C278 1.443 . S
C277 C304 1.389 . S
C278 C277 1.443 . S
C278 C279 1.340 . S
C278 H310 0.951 . S
C279 C278 1.340 . S
C279 C280 1.439 . S
C279 H311 0.950 . S
C280 N276 1.374 . S
C280 C279 1.439 . S
C280 C305 1.395 . S
N281 Co270 1.995 . S
N281 C282 1.376 . S
N281 C285 1.383 . S
C282 N281 1.376 . S
C282 C283 1.446 . S
C282 C305 1.391 . S
C283 C282 1.446 . S
C283 C284 1.339 . S
C283 H312 0.949 . S
C284 C283 1.339 . S
C284 C285 1.439 . S
C284 H313 0.950 . S
C285 N281 1.383 . S
C285 C284 1.439 . S
C285 C303 1.392 . S
N286 Co270 2.282 . S
N286 C289 1.332 . S
N286 C291 1.332 . S
C287 C288 1.386 . S
C287 C290 1.388 . S
C288 C287 1.386 . S
C288 C289 1.382 . S
C288 H314 0.950 . S
C289 N286 1.332 . S
C289 C288 1.382 . S
C289 H300 0.952 . S
C290 C287 1.388 . S
C290 C291 1.382 . S
C290 H315 0.950 . S
C291 N286 1.332 . S
C291 C290 1.382 . S
C291 H301 0.948 . S
N292 Co270 2.282 . S
N292 C296 1.332 . S
N292 C297 1.332 . S
C293 C294 1.388 . S
C293 C297 1.382 . S
C293 H316 0.950 . S
C294 C293 1.388 . S
C294 C295 1.386 . S
C295 C294 1.386 . S
C295 C296 1.382 . S
C295 H317 0.950 . S
C296 N292 1.332 . S
C296 C295 1.382 . S
C296 H298 0.952 . S
C297 N292 1.332 . S
C297 C293 1.382 . S
C297 H299 0.948 . S
H298 C296 0.952 . S
H299 C297 0.948 . S
H300 C289 0.952 . S
H301 C291 0.948 . S
C302 C268 1.395 . S
C302 C272 1.391 . S
C303 C265 1.389 . S
C303 C285 1.392 . S
C304 C275 1.392 . S
C304 C277 1.389 . S
C305 C280 1.395 . S
C305 C282 1.391 . S
H306 C266 0.951 . S
H307 C267 0.950 . S
H308 C273 0.949 . S
H309 C274 0.950 . S
H310 C278 0.951 . S
H311 C279 0.950 . S
H312 C283 0.949 . S
H313 C284 0.950 . S
H314 C288 0.950 . S
H315 C290 0.950 . S
H316 C293 0.950 . S
H317 C295 0.950 . S
C318 C319 1.443 . S
C318 N322 1.362 1_545 S
C318 C356 1.389 . S
C319 C318 1.443 . S
C319 C320 1.340 1_545 S
C319 H359 0.951 . S
C320 C319 1.340 1_565 S
C320 C321 1.439 . S
C320 H360 0.950 . S
C321 C320 1.439 . S
C321 N322 1.392 . S
C321 C355 1.395 1_556 S
N322 C318 1.362 1_565 S
N322 C321 1.392 . S
N322 Co323 2.006 1_566 S
Co323 N322 2.006 1_544 S
Co323 N324 1.995 1_545 S
Co323 N329 2.005 . S
Co323 N334 1.995 1_554 S
Co323 N339 2.282 . S
Co323 N345 2.282 1_544 S
N324 Co323 1.995 1_565 S
N324 C325 1.376 . S
N324 C328 1.383 . S
C325 N324 1.376 . S
C325 C326 1.446 . S
C325 C355 1.391 . S
C326 C325 1.446 . S
C326 C327 1.339 . S
C326 H361 0.949 . S
C327 C326 1.339 . S
C327 C328 1.439 . S
C327 H362 0.950 . S
C328 N324 1.383 . S
C328 C327 1.439 . S
C328 C357 1.392 . S
N329 Co323 2.005 . S
N329 C330 1.356 1_545 S
N329 C333 1.399 . S
C330 N329 1.356 1_565 S
C330 C331 1.443 . S
C330 C357 1.389 . S
C331 C330 1.443 . S
C331 C332 1.340 1_565 S
C331 H363 0.951 . S
C332 C331 1.340 1_545 S
C332 C333 1.439 . S
C332 H364 0.950 . S
C333 N329 1.399 . S
C333 C332 1.439 . S
C333 C358 1.395 1_554 S
N334 Co323 1.995 1_556 S
N334 C335 1.376 . S
N334 C338 1.383 . S
C335 N334 1.376 . S
C335 C336 1.446 . S
C335 C358 1.391 . S
C336 C335 1.446 . S
C336 C337 1.339 . S
C336 H365 0.949 . S
C337 C336 1.339 . S
C337 C338 1.439 . S
C337 H366 0.950 . S
C338 N334 1.383 . S
C338 C337 1.439 . S
C338 C356 1.392 . S
N339 Co323 2.282 . S
N339 C342 1.332 . S
N339 C344 1.332 1_545 S
C340 C341 1.386 . S
C340 C343 1.388 1_545 S
C341 C340 1.386 . S
C341 C342 1.382 . S
C341 H367 0.950 . S
C342 N339 1.332 . S
C342 C341 1.382 . S
C342 H353 0.952 . S
C343 C340 1.388 1_565 S
C343 C344 1.382 . S
C343 H368 0.950 . S
C344 N339 1.332 1_565 S
C344 C343 1.382 . S
C344 H354 0.948 . S
N345 Co323 2.282 1_566 S
N345 C349 1.332 . S
N345 C350 1.332 1_565 S
C346 C347 1.388 1_545 S
C346 C350 1.382 . S
C346 H369 0.950 . S
C347 C346 1.388 1_565 S
C347 C348 1.386 . S
C348 C347 1.386 . S
C348 C349 1.382 . S
C348 H370 0.950 . S
C349 N345 1.332 . S
C349 C348 1.382 . S
C349 H351 0.952 . S
C350 N345 1.332 1_545 S
C350 C346 1.382 . S
C350 H352 0.948 . S
H351 C349 0.952 . S
H352 C350 0.948 . S
H353 C342 0.952 . S
H354 C344 0.948 . S
C355 C321 1.395 1_554 S
C355 C325 1.391 . S
C356 C318 1.389 . S
C356 C338 1.392 . S
C357 C328 1.392 . S
C357 C330 1.389 . S
C358 C333 1.395 1_556 S
C358 C335 1.391 . S
H359 C319 0.951 . S
H360 C320 0.950 . S
H361 C326 0.949 . S
H362 C327 0.950 . S
H363 C331 0.951 . S
H364 C332 0.950 . S
H365 C336 0.949 . S
H366 C337 0.950 . S
H367 C341 0.950 . S
H368 C343 0.950 . S
H369 C346 0.950 . S
H370 C348 0.950 . S
C371 C372 1.443 . S
C371 N375 1.376 . S
C371 C409 1.389 . S
C372 C371 1.443 . S
C372 C373 1.340 . S
C372 H412 0.951 . S
C373 C372 1.340 . S
C373 C374 1.439 . S
C373 H413 0.950 . S
C374 C373 1.439 . S
C374 N375 1.374 . S
C374 C408 1.395 . S
N375 C371 1.376 . S
N375 C374 1.374 . S
N375 Co376 2.008 . S
Co376 N375 2.008 . S
Co376 N377 1.995 . S
Co376 N382 2.008 . S
Co376 N387 1.995 . S
Co376 N392 2.282 . S
Co376 N398 2.282 . S
N377 Co376 1.995 . S
N377 C378 1.376 . S
N377 C381 1.383 . S
C378 N377 1.376 . S
C378 C379 1.446 . S
C378 C408 1.391 . S
C379 C378 1.446 . S
C379 C380 1.339 . S
C379 H414 0.949 . S
C380 C379 1.339 . S
C380 C381 1.439 . S
C380 H415 0.950 . S
C381 N377 1.383 . S
C381 C380 1.439 . S
C381 C410 1.392 . S
N382 Co376 2.008 . S
N382 C383 1.376 . S
N382 C386 1.374 . S
C383 N382 1.376 . S
C383 C384 1.443 . S
C383 C410 1.389 . S
C384 C383 1.443 . S
C384 C385 1.340 . S
C384 H416 0.951 . S
C385 C384 1.340 . S
C385 C386 1.439 . S
C385 H417 0.950 . S
C386 N382 1.374 . S
C386 C385 1.439 . S
C386 C411 1.395 . S
N387 Co376 1.995 . S
N387 C388 1.376 . S
N387 C391 1.383 . S
C388 N387 1.376 . S
C388 C389 1.446 . S
C388 C411 1.391 . S
C389 C388 1.446 . S
C389 C390 1.339 . S
C389 H418 0.949 . S
C390 C389 1.339 . S
C390 C391 1.439 . S
C390 H419 0.950 . S
C391 N387 1.383 . S
C391 C390 1.439 . S
C391 C409 1.392 . S
N392 Co376 2.282 . S
N392 C395 1.332 . S
N392 C397 1.332 . S
C393 C394 1.386 . S
C393 C396 1.388 . S
C394 C393 1.386 . S
C394 C395 1.382 . S
C394 H420 0.950 . S
C395 N392 1.332 . S
C395 C394 1.382 . S
C395 H406 0.952 . S
C396 C393 1.388 . S
C396 C397 1.382 . S
C396 H421 0.950 . S
C397 N392 1.332 . S
C397 C396 1.382 . S
C397 H407 0.948 . S
N398 Co376 2.282 . S
N398 C402 1.332 . S
N398 C403 1.332 . S
C399 C400 1.388 . S
C399 C403 1.382 . S
C399 H422 0.950 . S
C400 C399 1.388 . S
C400 C401 1.386 . S
C401 C400 1.386 . S
C401 C402 1.382 . S
C401 H423 0.950 . S
C402 N398 1.332 . S
C402 C401 1.382 . S
C402 H404 0.952 . S
C403 N398 1.332 . S
C403 C399 1.382 . S
C403 H405 0.948 . S
H404 C402 0.952 . S
H405 C403 0.948 . S
H406 C395 0.952 . S
H407 C397 0.948 . S
C408 C374 1.395 . S
C408 C378 1.391 . S
C409 C371 1.389 . S
C409 C391 1.392 . S
C410 C381 1.392 . S
C410 C383 1.389 . S
C411 C386 1.395 . S
C411 C388 1.391 . S
H412 C372 0.951 . S
H413 C373 0.950 . S
H414 C379 0.949 . S
H415 C380 0.950 . S
H416 C384 0.951 . S
H417 C385 0.950 . S
H418 C389 0.949 . S
H419 C390 0.950 . S
H420 C394 0.950 . S
H421 C396 0.950 . S
H422 C399 0.950 . S
H423 C401 0.950 . S
C424 C425 1.443 . S
C424 N428 1.376 . S
C424 C462 1.389 . S
C425 C424 1.443 . S
C425 C426 1.340 . S
C425 H465 0.951 . S
C426 C425 1.340 . S
C426 C427 1.439 . S
C426 H466 0.950 . S
C427 C426 1.439 . S
C427 N428 1.374 . S
C427 C461 1.395 . S
N428 C424 1.376 . S
N428 C427 1.374 . S
N428 Co429 2.008 . S
Co429 N428 2.008 . S
Co429 N430 1.995 . S
Co429 N435 2.008 . S
Co429 N440 1.995 . S
Co429 N445 2.282 . S
Co429 N451 2.282 . S
N430 Co429 1.995 . S
N430 C431 1.376 . S
N430 C434 1.383 . S
C431 N430 1.376 . S
C431 C432 1.446 . S
C431 C461 1.391 . S
C432 C431 1.446 . S
C432 C433 1.339 . S
C432 H467 0.949 . S
C433 C432 1.339 . S
C433 C434 1.439 . S
C433 H468 0.950 . S
C434 N430 1.383 . S
C434 C433 1.439 . S
C434 C463 1.392 . S
N435 Co429 2.008 . S
N435 C436 1.376 . S
N435 C439 1.374 . S
C436 N435 1.376 . S
C436 C437 1.443 . S
C436 C463 1.389 . S
C437 C436 1.443 . S
C437 C438 1.340 . S
C437 H469 0.951 . S
C438 C437 1.340 . S
C438 C439 1.439 . S
C438 H470 0.950 . S
C439 N435 1.374 . S
C439 C438 1.439 . S
C439 C464 1.395 . S
N440 Co429 1.995 . S
N440 C441 1.376 . S
N440 C444 1.383 . S
C441 N440 1.376 . S
C441 C442 1.446 . S
C441 C464 1.391 . S
C442 C441 1.446 . S
C442 C443 1.339 . S
C442 H471 0.949 . S
C443 C442 1.339 . S
C443 C444 1.439 . S
C443 H472 0.950 . S
C444 N440 1.383 . S
C444 C443 1.439 . S
C444 C462 1.392 . S
N445 Co429 2.282 . S
N445 C448 1.332 . S
N445 C450 1.332 . S
C446 C447 1.386 . S
C446 C449 1.388 . S
C447 C446 1.386 . S
C447 C448 1.382 . S
C447 H473 0.950 . S
C448 N445 1.332 . S
C448 C447 1.382 . S
C448 H459 0.952 . S
C449 C446 1.388 . S
C449 C450 1.382 . S
C449 H474 0.950 . S
C450 N445 1.332 . S
C450 C449 1.382 . S
C450 H460 0.948 . S
N451 Co429 2.282 . S
N451 C455 1.332 . S
N451 C456 1.332 . S
C452 C453 1.388 . S
C452 C456 1.382 . S
C452 H475 0.950 . S
C453 C452 1.388 . S
C453 C454 1.386 . S
C454 C453 1.386 . S
C454 C455 1.382 . S
C454 H476 0.950 . S
C455 N451 1.332 . S
C455 C454 1.382 . S
C455 H457 0.952 . S
C456 N451 1.332 . S
C456 C452 1.382 . S
C456 H458 0.948 . S
H457 C455 0.952 . S
H458 C456 0.948 . S
H459 C448 0.952 . S
H460 C450 0.948 . S
C461 C427 1.395 . S
C461 C431 1.391 . S
C462 C424 1.389 . S
C462 C444 1.392 . S
C463 C434 1.392 . S
C463 C436 1.389 . S
C464 C439 1.395 . S
C464 C441 1.391 . S
H465 C425 0.951 . S
H466 C426 0.950 . S
H467 C432 0.949 . S
H468 C433 0.950 . S
H469 C437 0.951 . S
H470 C438 0.950 . S
H471 C442 0.949 . S
H472 C443 0.950 . S
H473 C447 0.950 . S
H474 C449 0.950 . S
H475 C452 0.950 . S
H476 C454 0.950 . S
C477 C478 1.443 . S
C477 N481 1.376 . S
C477 C515 1.389 . S
C478 C477 1.443 . S
C478 C479 1.340 . S
C478 H518 0.951 . S
C479 C478 1.340 . S
C479 C480 1.439 . S
C479 H519 0.950 . S
C480 C479 1.439 . S
C480 N481 1.374 . S
C480 C514 1.395 . S
N481 C477 1.376 . S
N481 C480 1.374 . S
N481 Co482 2.008 . S
Co482 N481 2.008 . S
Co482 N483 1.995 . S
Co482 N488 2.008 . S
Co482 N493 1.995 . S
Co482 N498 2.282 . S
Co482 N504 2.282 . S
N483 Co482 1.995 . S
N483 C484 1.376 . S
N483 C487 1.383 . S
C484 N483 1.376 . S
C484 C485 1.446 . S
C484 C514 1.391 . S
C485 C484 1.446 . S
C485 C486 1.339 . S
C485 H520 0.949 . S
C486 C485 1.339 . S
C486 C487 1.439 . S
C486 H521 0.950 . S
C487 N483 1.383 . S
C487 C486 1.439 . S
C487 C516 1.392 . S
N488 Co482 2.008 . S
N488 C489 1.376 . S
N488 C492 1.374 . S
C489 N488 1.376 . S
C489 C490 1.443 . S
C489 C516 1.389 . S
C490 C489 1.443 . S
C490 C491 1.340 . S
C490 H522 0.951 . S
C491 C490 1.340 . S
C491 C492 1.439 . S
C491 H523 0.950 . S
C492 N488 1.374 . S
C492 C491 1.439 . S
C492 C517 1.395 . S
N493 Co482 1.995 . S
N493 C494 1.376 . S
N493 C497 1.383 . S
C494 N493 1.376 . S
C494 C495 1.446 . S
C494 C517 1.391 . S
C495 C494 1.446 . S
C495 C496 1.339 . S
C495 H524 0.949 . S
C496 C495 1.339 . S
C496 C497 1.439 . S
C496 H525 0.950 . S
C497 N493 1.383 . S
C497 C496 1.439 . S
C497 C515 1.392 . S
N498 Co482 2.282 . S
N498 C501 1.332 . S
N498 C503 1.332 . S
C499 C500 1.386 . S
C499 C502 1.388 . S
C500 C499 1.386 . S
C500 C501 1.382 . S
C500 H526 0.950 . S
C501 N498 1.332 . S
C501 C500 1.382 . S
C501 H512 0.952 . S
C502 C499 1.388 . S
C502 C503 1.382 . S
C502 H527 0.950 . S
C503 N498 1.332 . S
C503 C502 1.382 . S
C503 H513 0.948 . S
N504 Co482 2.282 . S
N504 C508 1.332 . S
N504 C509 1.332 . S
C505 C506 1.388 . S
C505 C509 1.382 . S
C505 H528 0.950 . S
C506 C505 1.388 . S
C506 C507 1.386 . S
C507 C506 1.386 . S
C507 C508 1.382 . S
C507 H529 0.950 . S
C508 N504 1.332 . S
C508 C507 1.382 . S
C508 H510 0.952 . S
C509 N504 1.332 . S
C509 C505 1.382 . S
C509 H511 0.948 . S
H510 C508 0.952 . S
H511 C509 0.948 . S
H512 C501 0.952 . S
H513 C503 0.948 . S
C514 C480 1.395 . S
C514 C484 1.391 . S
C515 C477 1.389 . S
C515 C497 1.392 . S
C516 C487 1.392 . S
C516 C489 1.389 . S
C517 C492 1.395 . S
C517 C494 1.391 . S
H518 C478 0.951 . S
H519 C479 0.950 . S
H520 C485 0.949 . S
H521 C486 0.950 . S
H522 C490 0.951 . S
H523 C491 0.950 . S
H524 C495 0.949 . S
H525 C496 0.950 . S
H526 C500 0.950 . S
H527 C502 0.950 . S
H528 C505 0.950 . S
H529 C507 0.950 . S
C530 C531 1.443 . S
C530 N534 1.376 . S
C530 C568 1.389 . S
C531 C530 1.443 . S
C531 C532 1.340 . S
C531 H571 0.951 . S
C532 C531 1.340 . S
C532 C533 1.439 . S
C532 H572 0.950 . S
C533 C532 1.439 . S
C533 N534 1.374 . S
C533 C567 1.395 . S
N534 C530 1.376 . S
N534 C533 1.374 . S
N534 Co535 2.008 . S
Co535 N534 2.008 . S
Co535 N536 1.995 . S
Co535 N541 2.008 . S
Co535 N546 1.995 . S
Co535 N551 2.282 . S
Co535 N557 2.282 . S
N536 Co535 1.995 . S
N536 C537 1.376 . S
N536 C540 1.383 . S
C537 N536 1.376 . S
C537 C538 1.446 . S
C537 C567 1.391 . S
C538 C537 1.446 . S
C538 C539 1.339 . S
C538 H573 0.949 . S
C539 C538 1.339 . S
C539 C540 1.439 . S
C539 H574 0.950 . S
C540 N536 1.383 . S
C540 C539 1.439 . S
C540 C569 1.392 . S
N541 Co535 2.008 . S
N541 C542 1.376 . S
N541 C545 1.374 . S
C542 N541 1.376 . S
C542 C543 1.443 . S
C542 C569 1.389 . S
C543 C542 1.443 . S
C543 C544 1.340 . S
C543 H575 0.951 . S
C544 C543 1.340 . S
C544 C545 1.439 . S
C544 H576 0.950 . S
C545 N541 1.374 . S
C545 C544 1.439 . S
C545 C570 1.395 . S
N546 Co535 1.995 . S
N546 C547 1.376 . S
N546 C550 1.383 . S
C547 N546 1.376 . S
C547 C548 1.446 . S
C547 C570 1.391 . S
C548 C547 1.446 . S
C548 C549 1.339 . S
C548 H577 0.949 . S
C549 C548 1.339 . S
C549 C550 1.439 . S
C549 H578 0.950 . S
C550 N546 1.383 . S
C550 C549 1.439 . S
C550 C568 1.392 . S
N551 Co535 2.282 . S
N551 C554 1.332 . S
N551 C556 1.332 . S
C552 C553 1.386 . S
C552 C555 1.388 . S
C553 C552 1.386 . S
C553 C554 1.382 . S
C553 H579 0.950 . S
C554 N551 1.332 . S
C554 C553 1.382 . S
C554 H565 0.952 . S
C555 C552 1.388 . S
C555 C556 1.382 . S
C555 H580 0.950 . S
C556 N551 1.332 . S
C556 C555 1.382 . S
C556 H566 0.948 . S
N557 Co535 2.282 . S
N557 C561 1.332 . S
N557 C562 1.332 . S
C558 C559 1.388 . S
C558 C562 1.382 . S
C558 H581 0.950 . S
C559 C558 1.388 . S
C559 C560 1.386 . S
C560 C559 1.386 . S
C560 C561 1.382 . S
C560 H582 0.950 . S
C561 N557 1.332 . S
C561 C560 1.382 . S
C561 H563 0.952 . S
C562 N557 1.332 . S
C562 C558 1.382 . S
C562 H564 0.948 . S
H563 C561 0.952 . S
H564 C562 0.948 . S
H565 C554 0.952 . S
H566 C556 0.948 . S
C567 C533 1.395 . S
C567 C537 1.391 . S
C568 C530 1.389 . S
C568 C550 1.392 . S
C569 C540 1.392 . S
C569 C542 1.389 . S
C570 C545 1.395 . S
C570 C547 1.391 . S
H571 C531 0.951 . S
H572 C532 0.950 . S
H573 C538 0.949 . S
H574 C539 0.950 . S
H575 C543 0.951 . S
H576 C544 0.950 . S
H577 C548 0.949 . S
H578 C549 0.950 . S
H579 C553 0.950 . S
H580 C555 0.950 . S
H581 C558 0.950 . S
H582 C560 0.950 . S
C583 C584 1.443 . S
C583 N587 1.376 . S
C583 C621 1.389 . S
C584 C583 1.443 . S
C584 C585 1.340 . S
C584 H624 0.951 . S
C585 C584 1.340 . S
C585 C586 1.439 . S
C585 H625 0.950 . S
C586 C585 1.439 . S
C586 N587 1.374 . S
C586 C620 1.395 . S
N587 C583 1.376 . S
N587 C586 1.374 . S
N587 Co588 2.008 . S
Co588 N587 2.008 . S
Co588 N589 1.995 . S
Co588 N594 2.008 . S
Co588 N599 1.995 . S
Co588 N604 2.282 . S
Co588 N610 2.282 . S
N589 Co588 1.995 . S
N589 C590 1.376 . S
N589 C593 1.383 . S
C590 N589 1.376 . S
C590 C591 1.446 . S
C590 C620 1.391 . S
C591 C590 1.446 . S
C591 C592 1.339 . S
C591 H626 0.949 . S
C592 C591 1.339 . S
C592 C593 1.439 . S
C592 H627 0.950 . S
C593 N589 1.383 . S
C593 C592 1.439 . S
C593 C622 1.392 . S
N594 Co588 2.008 . S
N594 C595 1.376 . S
N594 C598 1.374 . S
C595 N594 1.376 . S
C595 C596 1.443 . S
C595 C622 1.389 . S
C596 C595 1.443 . S
C596 C597 1.340 . S
C596 H628 0.951 . S
C597 C596 1.340 . S
C597 C598 1.439 . S
C597 H629 0.950 . S
C598 N594 1.374 . S
C598 C597 1.439 . S
C598 C623 1.395 . S
N599 Co588 1.995 . S
N599 C600 1.376 . S
N599 C603 1.383 . S
C600 N599 1.376 . S
C600 C601 1.446 . S
C600 C623 1.391 . S
C601 C600 1.446 . S
C601 C602 1.339 . S
C601 H630 0.949 . S
C602 C601 1.339 . S
C602 C603 1.439 . S
C602 H631 0.950 . S
C603 N599 1.383 . S
C603 C602 1.439 . S
C603 C621 1.392 . S
N604 Co588 2.282 . S
N604 C607 1.332 . S
N604 C609 1.332 . S
C605 C606 1.386 . S
C605 C608 1.388 . S
C606 C605 1.386 . S
C606 C607 1.382 . S
C606 H632 0.950 . S
C607 N604 1.332 . S
C607 C606 1.382 . S
C607 H618 0.952 . S
C608 C605 1.388 . S
C608 C609 1.382 . S
C608 H633 0.950 . S
C609 N604 1.332 . S
C609 C608 1.382 . S
C609 H619 0.948 . S
N610 Co588 2.282 . S
N610 C614 1.332 . S
N610 C615 1.332 . S
C611 C612 1.388 . S
C611 C615 1.382 . S
C611 H634 0.950 . S
C612 C611 1.388 . S
C612 C613 1.386 . S
C613 C612 1.386 . S
C613 C614 1.382 . S
C613 H635 0.950 . S
C614 N610 1.332 . S
C614 C613 1.382 . S
C614 H616 0.952 . S
C615 N610 1.332 . S
C615 C611 1.382 . S
C615 H617 0.948 . S
H616 C614 0.952 . S
H617 C615 0.948 . S
H618 C607 0.952 . S
H619 C609 0.948 . S
C620 C586 1.395 . S
C620 C590 1.391 . S
C621 C583 1.389 . S
C621 C603 1.392 . S
C622 C593 1.392 . S
C622 C595 1.389 . S
C623 C598 1.395 . S
C623 C600 1.391 . S
H624 C584 0.951 . S
H625 C585 0.950 . S
H626 C591 0.949 . S
H627 C592 0.950 . S
H628 C596 0.951 . S
H629 C597 0.950 . S
H630 C601 0.949 . S
H631 C602 0.950 . S
H632 C606 0.950 . S
H633 C608 0.950 . S
H634 C611 0.950 . S
H635 C613 0.950 . S
C636 C637 1.443 . S
C636 N640 1.376 . S
C636 C674 1.389 . S
C637 C636 1.443 . S
C637 C638 1.340 . S
C637 H677 0.951 . S
C638 C637 1.340 . S
C638 C639 1.439 . S
C638 H678 0.950 . S
C639 C638 1.439 . S
C639 N640 1.374 . S
C639 C673 1.395 . S
N640 C636 1.376 . S
N640 C639 1.374 . S
N640 Co641 2.008 . S
Co641 N640 2.008 . S
Co641 N642 1.995 . S
Co641 N647 2.008 . S
Co641 N652 1.995 . S
Co641 N657 2.282 . S
Co641 N663 2.282 . S
N642 Co641 1.995 . S
N642 C643 1.376 . S
N642 C646 1.383 . S
C643 N642 1.376 . S
C643 C644 1.446 . S
C643 C673 1.391 . S
C644 C643 1.446 . S
C644 C645 1.339 . S
C644 H679 0.949 . S
C645 C644 1.339 . S
C645 C646 1.439 . S
C645 H680 0.950 . S
C646 N642 1.383 . S
C646 C645 1.439 . S
C646 C675 1.392 . S
N647 Co641 2.008 . S
N647 C648 1.376 . S
N647 C651 1.374 . S
C648 N647 1.376 . S
C648 C649 1.443 . S
C648 C675 1.389 . S
C649 C648 1.443 . S
C649 C650 1.340 . S
C649 H681 0.951 . S
C650 C649 1.340 . S
C650 C651 1.439 . S
C650 H682 0.950 . S
C651 N647 1.374 . S
C651 C650 1.439 . S
C651 C676 1.395 . S
N652 Co641 1.995 . S
N652 C653 1.376 . S
N652 C656 1.383 . S
C653 N652 1.376 . S
C653 C654 1.446 . S
C653 C676 1.391 . S
C654 C653 1.446 . S
C654 C655 1.339 . S
C654 H683 0.949 . S
C655 C654 1.339 . S
C655 C656 1.439 . S
C655 H684 0.950 . S
C656 N652 1.383 . S
C656 C655 1.439 . S
C656 C674 1.392 . S
N657 Co641 2.282 . S
N657 C660 1.332 . S
N657 C662 1.332 . S
C658 C659 1.386 . S
C658 C661 1.388 . S
C659 C658 1.386 . S
C659 C660 1.382 . S
C659 H685 0.950 . S
C660 N657 1.332 . S
C660 C659 1.382 . S
C660 H671 0.952 . S
C661 C658 1.388 . S
C661 C662 1.382 . S
C661 H686 0.950 . S
C662 N657 1.332 . S
C662 C661 1.382 . S
C662 H672 0.948 . S
N663 Co641 2.282 . S
N663 C667 1.332 . S
N663 C668 1.332 . S
C664 C665 1.388 . S
C664 C668 1.382 . S
C664 H687 0.950 . S
C665 C664 1.388 . S
C665 C666 1.386 . S
C666 C665 1.386 . S
C666 C667 1.382 . S
C666 H688 0.950 . S
C667 N663 1.332 . S
C667 C666 1.382 . S
C667 H669 0.952 . S
C668 N663 1.332 . S
C668 C664 1.382 . S
C668 H670 0.948 . S
H669 C667 0.952 . S
H670 C668 0.948 . S
H671 C660 0.952 . S
H672 C662 0.948 . S
C673 C639 1.395 . S
C673 C643 1.391 . S
C674 C636 1.389 . S
C674 C656 1.392 . S
C675 C646 1.392 . S
C675 C648 1.389 . S
C676 C651 1.395 . S
C676 C653 1.391 . S
H677 C637 0.951 . S
H678 C638 0.950 . S
H679 C644 0.949 . S
H680 C645 0.950 . S
H681 C649 0.951 . S
H682 C650 0.950 . S
H683 C654 0.949 . S
H684 C655 0.950 . S
H685 C659 0.950 . S
H686 C661 0.950 . S
H687 C664 0.950 . S
H688 C666 0.950 . S
C689 C690 1.443 . S
C689 N693 1.376 . S
C689 C727 1.389 . S
C690 C689 1.443 . S
C690 C691 1.340 . S
C690 H730 0.951 . S
C691 C690 1.340 . S
C691 C692 1.439 . S
C691 H731 0.950 . S
C692 C691 1.439 . S
C692 N693 1.374 . S
C692 C726 1.395 . S
N693 C689 1.376 . S
N693 C692 1.374 . S
N693 Co694 2.008 1_655 S
Co694 N693 2.008 1_455 S
Co694 N695 1.997 1_454 S
Co694 N700 2.008 1_554 S
Co694 N705 1.997 . S
Co694 N710 2.282 1_454 S
Co694 N716 2.282 . S
N695 Co694 1.997 1_656 S
N695 C696 1.396 . S
N695 C699 1.361 1_655 S
C696 N695 1.396 . S
C696 C697 1.446 . S
C696 C726 1.391 1_556 S
C697 C696 1.446 . S
C697 C698 1.339 1_655 S
C697 H732 0.949 . S
C698 C697 1.339 1_455 S
C698 C699 1.439 . S
C698 H733 0.950 . S
C699 N695 1.361 1_455 S
C699 C698 1.439 . S
C699 C728 1.392 . S
N700 Co694 2.008 1_556 S
N700 C701 1.376 . S
N700 C704 1.374 . S
C701 N700 1.376 . S
C701 C702 1.443 . S
C701 C728 1.389 . S
C702 C701 1.443 . S
C702 C703 1.340 . S
C702 H734 0.951 . S
C703 C702 1.340 . S
C703 C704 1.439 . S
C703 H735 0.950 . S
C704 N700 1.374 . S
C704 C703 1.439 . S
C704 C729 1.395 . S
N705 Co694 1.997 . S
N705 C706 1.402 . S
N705 C709 1.354 1_455 S
C706 N705 1.402 . S
C706 C707 1.446 . S
C706 C729 1.391 1_554 S
C707 C706 1.446 . S
C707 C708 1.339 1_455 S
C707 H736 0.949 . S
C708 C707 1.339 1_655 S
C708 C709 1.439 . S
C708 H737 0.950 . S
C709 N705 1.354 1_655 S
C709 C708 1.439 . S
C709 C727 1.392 . S
N710 Co694 2.282 1_656 S
N710 C713 1.332 1_655 S
N710 C715 1.332 . S
C711 C712 1.386 1_655 S
C711 C714 1.388 . S
C712 C711 1.386 1_455 S
C712 C713 1.382 . S
C712 H738 0.950 . S
C713 N710 1.332 1_455 S
C713 C712 1.382 . S
C713 H724 0.952 . S
C714 C711 1.388 . S
C714 C715 1.382 . S
C714 H739 0.950 . S
C715 N710 1.332 . S
C715 C714 1.382 . S
C715 H725 0.948 . S
N716 Co694 2.282 . S
N716 C720 1.332 1_455 S
N716 C721 1.332 . S
C717 C718 1.388 . S
C717 C721 1.382 . S
C717 H740 0.950 . S
C718 C717 1.388 . S
C718 C719 1.386 1_455 S
C719 C718 1.386 1_655 S
C719 C720 1.382 . S
C719 H741 0.950 . S
C720 N716 1.332 1_655 S
C720 C719 1.382 . S
C720 H722 0.952 . S
C721 N716 1.332 . S
C721 C717 1.382 . S
C721 H723 0.948 . S
H722 C720 0.952 . S
H723 C721 0.948 . S
H724 C713 0.952 . S
H725 C715 0.948 . S
C726 C692 1.395 . S
C726 C696 1.391 1_554 S
C727 C689 1.389 . S
C727 C709 1.392 . S
C728 C699 1.392 . S
C728 C701 1.389 . S
C729 C704 1.395 . S
C729 C706 1.391 1_556 S
H730 C690 0.951 . S
H731 C691 0.950 . S
H732 C697 0.949 . S
H733 C698 0.950 . S
H734 C702 0.951 . S
H735 C703 0.950 . S
H736 C707 0.949 . S
H737 C708 0.950 . S
H738 C712 0.950 . S
H739 C714 0.950 . S
H740 C717 0.950 . S
H741 C719 0.950 . S
C742 C743 1.443 . S
C742 N746 1.376 . S
C742 C780 1.389 . S
C743 C742 1.443 . S
C743 C744 1.340 . S
C743 H783 0.951 . S
C744 C743 1.340 . S
C744 C745 1.439 . S
C744 H784 0.950 . S
C745 C744 1.439 . S
C745 N746 1.374 . S
C745 C779 1.395 1_554 S
N746 C742 1.376 . S
N746 C745 1.374 . S
N746 Co747 2.008 . S
Co747 N746 2.008 . S
Co747 N748 1.995 1_554 S
Co747 N753 2.008 1_554 S
Co747 N758 1.995 . S
Co747 N763 2.282 1_554 S
Co747 N769 2.282 . S
N748 Co747 1.995 1_556 S
N748 C749 1.376 . S
N748 C752 1.383 . S
C749 N748 1.376 . S
C749 C750 1.446 . S
C749 C779 1.391 . S
C750 C749 1.446 . S
C750 C751 1.339 . S
C750 H785 0.949 . S
C751 C750 1.339 . S
C751 C752 1.439 . S
C751 H786 0.950 . S
C752 N748 1.383 . S
C752 C751 1.439 . S
C752 C781 1.392 . S
N753 Co747 2.008 1_556 S
N753 C754 1.376 . S
N753 C757 1.374 . S
C754 N753 1.376 . S
C754 C755 1.443 . S
C754 C781 1.389 . S
C755 C754 1.443 . S
C755 C756 1.340 . S
C755 H787 0.951 . S
C756 C755 1.340 . S
C756 C757 1.439 . S
C756 H788 0.950 . S
C757 N753 1.374 . S
C757 C756 1.439 . S
C757 C782 1.395 1_556 S
N758 Co747 1.995 . S
N758 C759 1.376 . S
N758 C762 1.383 . S
C759 N758 1.376 . S
C759 C760 1.446 . S
C759 C782 1.391 . S
C760 C759 1.446 . S
C760 C761 1.339 . S
C760 H789 0.949 . S
C761 C760 1.339 . S
C761 C762 1.439 . S
C761 H790 0.950 . S
C762 N758 1.383 . S
C762 C761 1.439 . S
C762 C780 1.392 . S
N763 Co747 2.282 1_556 S
N763 C766 1.332 . S
N763 C768 1.332 . S
C764 C765 1.386 . S
C764 C767 1.388 . S
C765 C764 1.386 . S
C765 C766 1.382 . S
C765 H791 0.950 . S
C766 N763 1.332 . S
C766 C765 1.382 . S
C766 H777 0.952 . S
C767 C764 1.388 . S
C767 C768 1.382 . S
C767 H792 0.950 . S
C768 N763 1.332 . S
C768 C767 1.382 . S
C768 H778 0.948 . S
N769 Co747 2.282 . S
N769 C773 1.332 . S
N769 C774 1.332 . S
C770 C771 1.388 . S
C770 C774 1.382 . S
C770 H793 0.950 . S
C771 C770 1.388 . S
C771 C772 1.386 . S
C772 C771 1.386 . S
C772 C773 1.382 . S
C772 H794 0.950 . S
C773 N769 1.332 . S
C773 C772 1.382 . S
C773 H775 0.952 . S
C774 N769 1.332 . S
C774 C770 1.382 . S
C774 H776 0.948 . S
H775 C773 0.952 . S
H776 C774 0.948 . S
H777 C766 0.952 . S
H778 C768 0.948 . S
C779 C745 1.395 1_556 S
C779 C749 1.391 . S
C780 C742 1.389 . S
C780 C762 1.392 . S
C781 C752 1.392 . S
C781 C754 1.389 . S
C782 C757 1.395 1_554 S
C782 C759 1.391 . S
H783 C743 0.951 . S
H784 C744 0.950 . S
H785 C750 0.949 . S
H786 C751 0.950 . S
H787 C755 0.951 . S
H788 C756 0.950 . S
H789 C760 0.949 . S
H790 C761 0.950 . S
H791 C765 0.950 . S
H792 C767 0.950 . S
H793 C770 0.950 . S
H794 C772 0.950 . S
C795 C796 1.443 . S
C795 N799 1.376 . S
C795 C833 1.389 . S
C796 C795 1.443 . S
C796 C797 1.340 . S
C796 H836 0.951 . S
C797 C796 1.340 . S
C797 C798 1.439 . S
C797 H837 0.950 . S
C798 C797 1.439 . S
C798 N799 1.374 . S
C798 C832 1.395 . S
N799 C795 1.376 . S
N799 C798 1.374 . S
N799 Co800 2.008 1_655 S
Co800 N799 2.008 1_455 S
Co800 N801 1.995 . S
Co800 N806 2.008 . S
Co800 N811 1.995 1_455 S
Co800 N816 2.282 1_455 S
Co800 N822 2.282 . S
N801 Co800 1.995 . S
N801 C802 1.376 1_455 S
N801 C805 1.383 . S
C802 N801 1.376 1_655 S
C802 C803 1.446 . S
C802 C832 1.391 . S
C803 C802 1.446 . S
C803 C804 1.339 1_655 S
C803 H838 0.949 . S
C804 C803 1.339 1_455 S
C804 C805 1.439 . S
C804 H839 0.950 . S
C805 N801 1.383 . S
C805 C804 1.439 . S
C805 C834 1.392 . S
N806 Co800 2.008 . S
N806 C807 1.376 . S
N806 C810 1.374 . S
C807 N806 1.376 . S
C807 C808 1.443 . S
C807 C834 1.389 . S
C808 C807 1.443 . S
C808 C809 1.340 . S
C808 H840 0.951 . S
C809 C808 1.340 . S
C809 C810 1.439 . S
C809 H841 0.950 . S
C810 N806 1.374 . S
C810 C809 1.439 . S
C810 C835 1.395 . S
N811 Co800 1.995 1_655 S
N811 C812 1.376 1_655 S
N811 C815 1.383 . S
C812 N811 1.376 1_455 S
C812 C813 1.446 . S
C812 C835 1.391 . S
C813 C812 1.446 . S
C813 C814 1.339 1_455 S
C813 H842 0.949 . S
C814 C813 1.339 1_655 S
C814 C815 1.439 . S
C814 H843 0.950 . S
C815 N811 1.383 . S
C815 C814 1.439 . S
C815 C833 1.392 . S
N816 Co800 2.282 1_655 S
N816 C819 1.332 1_655 S
N816 C821 1.332 . S
C817 C818 1.386 1_655 S
C817 C820 1.388 . S
C818 C817 1.386 1_455 S
C818 C819 1.382 . S
C818 H844 0.950 . S
C819 N816 1.332 1_455 S
C819 C818 1.382 . S
C819 H830 0.952 . S
C820 C817 1.388 . S
C820 C821 1.382 . S
C820 H845 0.950 . S
C821 N816 1.332 . S
C821 C820 1.382 . S
C821 H831 0.948 . S
N822 Co800 2.282 . S
N822 C826 1.332 1_455 S
N822 C827 1.332 . S
C823 C824 1.388 . S
C823 C827 1.382 . S
C823 H846 0.950 . S
C824 C823 1.388 . S
C824 C825 1.386 1_455 S
C825 C824 1.386 1_655 S
C825 C826 1.382 . S
C825 H847 0.950 . S
C826 N822 1.332 1_655 S
C826 C825 1.382 . S
C826 H828 0.952 . S
C827 N822 1.332 . S
C827 C823 1.382 . S
C827 H829 0.948 . S
H828 C826 0.952 . S
H829 C827 0.948 . S
H830 C819 0.952 . S
H831 C821 0.948 . S
C832 C798 1.395 . S
C832 C802 1.391 . S
C833 C795 1.389 . S
C833 C815 1.392 . S
C834 C805 1.392 . S
C834 C807 1.389 . S
C835 C810 1.395 . S
C835 C812 1.391 . S
H836 C796 0.951 . S
H837 C797 0.950 . S
H838 C803 0.949 . S
H839 C804 0.950 . S
H840 C808 0.951 . S
H841 C809 0.950 . S
H842 C813 0.949 . S
H843 C814 0.950 . S
H844 C818 0.950 . S
H845 C820 0.950 . S
H846 C823 0.950 . S
H847 C825 0.950 . S
H848 C856 0.950 . S
H849 C861 0.941 1_455 S
H850 C858 0.950 . S
H851 C860 0.941 1_455 S
H852 C862 0.944 1_455 S
H853 C864 0.950 1_455 S
H854 C866 0.950 . S
H855 C867 0.950 . S
C856 H848 0.950 . S
C856 C857 1.386 . S
C856 C858 1.391 . S
C857 C856 1.386 . S
C857 C861 1.405 1_565 S
C858 H850 0.950 . S
C858 C856 1.391 . S
C858 C859 1.400 . S
C859 C858 1.400 . S
C859 C860 1.406 1_565 S
C859 C865 1.491 1_565 S
C860 H851 0.941 1_655 S
C860 C859 1.406 1_545 S
C860 C861 1.390 . S
C861 H849 0.941 1_655 S
C861 C857 1.405 1_545 S
C861 C860 1.390 . S
C862 H852 0.944 1_655 S
C862 C863 1.386 . S
C862 C864 1.391 . S
C863 C862 1.386 . S
C863 C867 1.393 1_545 S
C864 H853 0.950 1_655 S
C864 C862 1.391 . S
C864 C865 1.400 . S
C865 C859 1.491 1_545 S
C865 C864 1.400 . S
C865 C866 1.398 1_545 S
C866 H854 0.950 . S
C866 C865 1.398 1_565 S
C866 C867 1.391 . S
C867 H855 0.950 . S
C867 C863 1.393 1_565 S
C867 C866 1.391 . S
H868 C876 0.950 . S
H869 C881 0.950 . S
H870 C878 0.950 . S
H871 C880 0.950 . S
H872 C882 0.950 . S
H873 C884 0.950 . S
H874 C886 0.950 . S
H875 C887 0.950 . S
C876 H868 0.950 . S
C876 C877 1.386 . S
C876 C878 1.391 . S
C877 C876 1.386 . S
C877 C881 1.393 . S
C878 H870 0.950 . S
C878 C876 1.391 . S
C878 C879 1.400 . S
C879 C878 1.400 . S
C879 C880 1.398 . S
C879 C885 1.491 . S
C880 H871 0.950 . S
C880 C879 1.398 . S
C880 C881 1.391 . S
C881 H869 0.950 . S
C881 C877 1.393 . S
C881 C880 1.391 . S
C882 H872 0.950 . S
C882 C883 1.386 . S
C882 C884 1.391 . S
C883 C882 1.386 . S
C883 C887 1.393 . S
C884 H873 0.950 . S
C884 C882 1.391 . S
C884 C885 1.400 . S
C885 C879 1.491 . S
C885 C884 1.400 . S
C885 C886 1.398 . S
C886 H874 0.950 . S
C886 C885 1.398 . S
C886 C887 1.391 . S
C887 H875 0.950 . S
C887 C883 1.393 . S
C887 C886 1.391 . S
H888 C896 0.950 . S
H889 C901 0.950 . S
H890 C898 0.950 . S
H891 C900 0.950 . S
H892 C902 0.950 . S
H893 C904 0.954 1_565 S
H894 C906 0.952 . S
H895 C907 0.950 . S
C896 H888 0.950 . S
C896 C897 1.386 . S
C896 C898 1.391 . S
C897 C896 1.386 . S
C897 C901 1.393 . S
C898 H890 0.950 . S
C898 C896 1.391 . S
C898 C899 1.400 . S
C899 C898 1.400 . S
C899 C900 1.398 . S
C899 C905 1.491 . S
C900 H891 0.950 . S
C900 C899 1.398 . S
C900 C901 1.391 . S
C901 H889 0.950 . S
C901 C897 1.393 . S
C901 C900 1.391 . S
C902 H892 0.950 . S
C902 C903 1.386 . S
C902 C904 1.391 . S
C903 C902 1.386 . S
C903 C907 1.393 . S
C904 H893 0.954 1_545 S
C904 C902 1.391 . S
C904 C905 1.400 1_545 S
C905 C899 1.491 . S
C905 C904 1.400 1_565 S
C905 C906 1.397 . S
C906 H894 0.952 . S
C906 C905 1.397 . S
C906 C907 1.390 1_565 S
C907 H895 0.950 . S
C907 C903 1.393 . S
C907 C906 1.390 1_545 S
H908 C916 0.950 . S
H909 C921 0.950 . S
H910 C918 0.950 . S
H911 C920 0.950 . S
H912 C922 0.950 . S
H913 C924 0.950 . S
H914 C926 0.950 . S
H915 C927 0.950 . S
C916 H908 0.950 . S
C916 C917 1.386 . S
C916 C918 1.391 . S
C917 C916 1.386 . S
C917 C921 1.393 . S
C918 H910 0.950 . S
C918 C916 1.391 . S
C918 C919 1.412 . S
C919 C918 1.412 . S
C919 C920 1.409 . S
C919 C925 1.470 1_556 S
C920 H911 0.950 . S
C920 C919 1.409 . S
C920 C921 1.391 . S
C921 H909 0.950 . S
C921 C917 1.393 . S
C921 C920 1.391 . S
C922 H912 0.950 . S
C922 C923 1.386 . S
C922 C924 1.391 . S
C923 C922 1.386 . S
C923 C927 1.393 . S
C924 H913 0.950 . S
C924 C922 1.391 . S
C924 C925 1.400 . S
C925 C919 1.470 1_554 S
C925 C924 1.400 . S
C925 C926 1.398 . S
C926 H914 0.950 . S
C926 C925 1.398 . S
C926 C927 1.391 . S
C927 H915 0.950 . S
C927 C923 1.393 . S
C927 C926 1.391 . S
H928 C936 0.950 . S
H929 C941 0.950 . S
H930 C938 0.950 . S
H931 C940 0.950 . S
H932 C942 0.950 . S
H933 C944 0.950 . S
H934 C946 0.950 . S
H935 C947 0.950 . S
C936 H928 0.950 . S
C936 C937 1.386 1_645 S
C936 C938 1.391 . S
C937 C936 1.386 1_465 S
C937 C941 1.393 . S
C938 H930 0.950 . S
C938 C936 1.391 . S
C938 C939 1.400 1_645 S
C939 C938 1.400 1_465 S
C939 C940 1.398 . S
C939 C945 1.491 1_565 S
C940 H931 0.950 . S
C940 C939 1.398 . S
C940 C941 1.391 . S
C941 H929 0.950 . S
C941 C937 1.393 . S
C941 C940 1.391 . S
C942 H932 0.950 . S
C942 C943 1.386 1_565 S
C942 C944 1.391 . S
C943 C942 1.386 1_545 S
C943 C947 1.393 1_455 S
C944 H933 0.950 . S
C944 C942 1.391 . S
C944 C945 1.400 1_565 S
C945 C939 1.491 1_545 S
C945 C944 1.400 1_545 S
C945 C946 1.398 1_455 S
C946 H934 0.950 . S
C946 C945 1.398 1_655 S
C946 C947 1.391 . S
C947 H935 0.950 . S
C947 C943 1.393 1_655 S
C947 C946 1.391 . S
H948 C956 0.950 . S
H949 C961 0.950 . S
H950 C958 0.950 . S
H951 C960 0.950 . S
H952 C962 0.950 . S
H953 C964 0.950 . S
H954 C966 0.950 . S
H955 C967 0.950 . S
C956 H948 0.950 . S
C956 C957 1.386 . S
C956 C958 1.391 . S
C957 C956 1.386 . S
C957 C961 1.393 . S
C958 H950 0.950 . S
C958 C956 1.391 . S
C958 C959 1.400 . S
C959 C958 1.400 . S
C959 C960 1.398 . S
C959 C965 1.491 . S
C960 H951 0.950 . S
C960 C959 1.398 . S
C960 C961 1.391 . S
C961 H949 0.950 . S
C961 C957 1.393 . S
C961 C960 1.391 . S
C962 H952 0.950 . S
C962 C963 1.386 . S
C962 C964 1.391 . S
C963 C962 1.386 . S
C963 C967 1.393 . S
C964 H953 0.950 . S
C964 C962 1.391 . S
C964 C965 1.400 . S
C965 C959 1.491 . S
C965 C964 1.400 . S
C965 C966 1.398 . S
C966 H954 0.950 . S
C966 C965 1.398 . S
C966 C967 1.391 . S
C967 H955 0.950 . S
C967 C963 1.393 . S
C967 C966 1.391 . S
H968 C976 0.950 . S
H969 C981 0.951 1_565 S
H970 C978 0.950 . S
H971 C980 0.950 . S
H972 C982 0.950 . S
H973 C984 0.950 . S
H974 C986 0.950 . S
H975 C987 0.950 . S
C976 H968 0.950 . S
C976 C977 1.386 . S
C976 C978 1.391 . S
C977 C976 1.386 . S
C977 C981 1.392 . S
C978 H970 0.950 . S
C978 C976 1.391 . S
C978 C979 1.400 . S
C979 C978 1.400 . S
C979 C980 1.398 1_545 S
C979 C985 1.491 . S
C980 H971 0.950 . S
C980 C979 1.398 1_565 S
C980 C981 1.391 1_565 S
C981 H969 0.951 1_545 S
C981 C977 1.392 . S
C981 C980 1.391 1_545 S
C982 H972 0.950 . S
C982 C983 1.386 . S
C982 C984 1.391 . S
C983 C982 1.386 . S
C983 C987 1.393 1_565 S
C984 H973 0.950 . S
C984 C982 1.391 . S
C984 C985 1.400 1_565 S
C985 C979 1.491 . S
C985 C984 1.400 1_545 S
C985 C986 1.398 . S
C986 H974 0.950 . S
C986 C985 1.398 . S
C986 C987 1.391 . S
C987 H975 0.950 . S
C987 C983 1.393 1_545 S
C987 C986 1.391 . S
H988 C996 0.950 . S
H989 C1001 0.950 . S
H990 C998 0.950 . S
H991 C1000 0.950 1_556 S
H992 C1002 0.950 . S
H993 C1004 0.950 . S
H994 C1006 0.950 . S
H995 C1007 0.950 . S
C996 H988 0.950 . S
C996 C997 1.386 . S
C996 C998 1.391 . S
C997 C996 1.386 . S
C997 C1001 1.393 . S
C998 H990 0.950 . S
C998 C996 1.391 . S
C998 C999 1.411 . S
C999 C998 1.411 . S
C999 C1000 1.406 . S
C999 C1005 1.473 1_554 S
C1000 H991 0.950 1_554 S
C1000 C999 1.406 . S
C1000 C1001 1.391 . S
C1001 H989 0.950 . S
C1001 C997 1.393 . S
C1001 C1000 1.391 . S
C1002 H992 0.950 . S
C1002 C1003 1.386 . S
C1002 C1004 1.391 . S
C1003 C1002 1.386 . S
C1003 C1007 1.393 . S
C1004 H993 0.950 . S
C1004 C1002 1.391 . S
C1004 C1005 1.400 . S
C1005 C999 1.473 1_556 S
C1005 C1004 1.400 . S
C1005 C1006 1.398 . S
C1006 H994 0.950 . S
C1006 C1005 1.398 . S
C1006 C1007 1.391 . S
C1007 H995 0.950 . S
C1007 C1003 1.393 . S
C1007 C1006 1.391 . S
H1008 C1016 0.950 . S
H1009 C1021 0.950 . S
H1010 C1018 0.950 . S
H1011 C1020 0.950 . S
H1012 C1022 0.950 . S
H1013 C1024 0.950 . S
H1014 C1026 0.950 . S
H1015 C1027 0.950 . S
C1016 H1008 0.950 . S
C1016 C1017 1.386 . S
C1016 C1018 1.391 . S
C1017 C1016 1.386 . S
C1017 C1021 1.393 . S
C1018 H1010 0.950 . S
C1018 C1016 1.391 . S
C1018 C1019 1.400 . S
C1019 C1018 1.400 . S
C1019 C1020 1.398 . S
C1019 C1025 1.491 . S
C1020 H1011 0.950 . S
C1020 C1019 1.398 . S
C1020 C1021 1.391 . S
C1021 H1009 0.950 . S
C1021 C1017 1.393 . S
C1021 C1020 1.391 . S
C1022 H1012 0.950 . S
C1022 C1023 1.386 . S
C1022 C1024 1.391 . S
C1023 C1022 1.386 . S
C1023 C1027 1.393 . S
C1024 H1013 0.950 . S
C1024 C1022 1.391 . S
C1024 C1025 1.400 . S
C1025 C1019 1.491 . S
C1025 C1024 1.400 . S
C1025 C1026 1.398 . S
C1026 H1014 0.950 . S
C1026 C1025 1.398 . S
C1026 C1027 1.391 . S
C1027 H1015 0.950 . S
C1027 C1023 1.393 . S
C1027 C1026 1.391 . S
H1028 C1036 0.950 . S
H1029 C1041 0.950 . S
H1030 C1038 0.950 . S
H1031 C1040 0.950 . S
H1032 C1042 0.950 . S
H1033 C1044 0.950 . S
H1034 C1046 0.950 . S
H1035 C1047 0.950 . S
C1036 H1028 0.950 . S
C1036 C1037 1.386 . S
C1036 C1038 1.391 . S
C1037 C1036 1.386 . S
C1037 C1041 1.393 . S
C1038 H1030 0.950 . S
C1038 C1036 1.391 . S
C1038 C1039 1.400 . S
C1039 C1038 1.400 . S
C1039 C1040 1.398 . S
C1039 C1045 1.491 1_556 S
C1040 H1031 0.950 . S
C1040 C1039 1.398 . S
C1040 C1041 1.391 . S
C1041 H1029 0.950 . S
C1041 C1037 1.393 . S
C1041 C1040 1.391 . S
C1042 H1032 0.950 . S
C1042 C1043 1.386 . S
C1042 C1044 1.391 . S
C1043 C1042 1.386 . S
C1043 C1047 1.393 . S
C1044 H1033 0.950 . S
C1044 C1042 1.391 . S
C1044 C1045 1.400 . S
C1045 C1039 1.491 1_554 S
C1045 C1044 1.400 . S
C1045 C1046 1.398 . S
C1046 H1034 0.950 . S
C1046 C1045 1.398 . S
C1046 C1047 1.391 . S
C1047 H1035 0.950 . S
C1047 C1043 1.393 . S
C1047 C1046 1.391 . S
H1048 C1056 0.950 . S
H1049 C1061 0.950 . S
H1050 C1058 0.950 . S
H1051 C1060 0.950 . S
H1052 C1062 0.950 . S
H1053 C1064 0.950 . S
H1054 C1066 0.950 . S
H1055 C1067 0.950 . S
C1056 H1048 0.950 . S
C1056 C1057 1.386 . S
C1056 C1058 1.391 . S
C1057 C1056 1.386 . S
C1057 C1061 1.393 1_455 S
C1058 H1050 0.950 . S
C1058 C1056 1.391 . S
C1058 C1059 1.400 . S
C1059 C1058 1.400 . S
C1059 C1060 1.398 1_455 S
C1059 C1065 1.491 . S
C1060 H1051 0.950 . S
C1060 C1059 1.398 1_655 S
C1060 C1061 1.391 . S
C1061 H1049 0.950 . S
C1061 C1057 1.393 1_655 S
C1061 C1060 1.391 . S
C1062 H1052 0.950 . S
C1062 C1063 1.386 1_655 S
C1062 C1064 1.391 . S
C1063 C1062 1.386 1_455 S
C1063 C1067 1.393 . S
C1064 H1053 0.950 . S
C1064 C1062 1.391 . S
C1064 C1065 1.400 1_655 S
C1065 C1059 1.491 . S
C1065 C1064 1.400 1_455 S
C1065 C1066 1.398 . S
C1066 H1054 0.950 . S
C1066 C1065 1.398 . S
C1066 C1067 1.391 . S
C1067 H1055 0.950 . S
C1067 C1063 1.393 . S
C1067 C1066 1.391 . S
H1068 C1076 0.950 . S
H1069 C1081 0.950 . S
H1070 C1078 0.950 . S
H1071 C1080 0.950 . S
H1072 C1082 0.950 . S
H1073 C1084 0.950 . S
H1074 C1086 0.950 . S
H1075 C1087 0.950 . S
C1076 H1068 0.950 . S
C1076 C1077 1.386 . S
C1076 C1078 1.391 . S
C1077 C1076 1.386 . S
C1077 C1081 1.393 . S
C1078 H1070 0.950 . S
C1078 C1076 1.391 . S
C1078 C1079 1.400 . S
C1079 C1078 1.400 . S
C1079 C1080 1.398 . S
C1079 C1085 1.491 . S
C1080 H1071 0.950 . S
C1080 C1079 1.398 . S
C1080 C1081 1.391 . S
C1081 H1069 0.950 . S
C1081 C1077 1.393 . S
C1081 C1080 1.391 . S
C1082 H1072 0.950 . S
C1082 C1083 1.386 . S
C1082 C1084 1.391 . S
C1083 C1082 1.386 . S
C1083 C1087 1.393 . S
C1084 H1073 0.950 . S
C1084 C1082 1.391 . S
C1084 C1085 1.400 . S
C1085 C1079 1.491 . S
C1085 C1084 1.400 . S
C1085 C1086 1.398 . S
C1086 H1074 0.950 . S
C1086 C1085 1.398 . S
C1086 C1087 1.391 . S
C1087 H1075 0.950 . S
C1087 C1083 1.393 . S
C1087 C1086 1.391 . S
H1088 C1096 0.950 . S
H1089 C1101 0.950 . S
H1090 C1098 0.950 . S
H1091 C1100 0.950 . S
H1092 C1102 0.950 . S
H1093 C1104 0.950 . S
H1094 C1106 0.950 . S
H1095 C1107 0.950 . S
C1096 H1088 0.950 . S
C1096 C1097 1.386 . S
C1096 C1098 1.391 . S
C1097 C1096 1.386 . S
C1097 C1101 1.393 . S
C1098 H1090 0.950 . S
C1098 C1096 1.391 . S
C1098 C1099 1.400 . S
C1099 C1098 1.400 . S
C1099 C1100 1.398 . S
C1099 C1105 1.491 . S
C1100 H1091 0.950 . S
C1100 C1099 1.398 . S
C1100 C1101 1.391 . S
C1101 H1089 0.950 . S
C1101 C1097 1.393 . S
C1101 C1100 1.391 . S
C1102 H1092 0.950 . S
C1102 C1103 1.386 . S
C1102 C1104 1.391 . S
C1103 C1102 1.386 . S
C1103 C1107 1.393 . S
C1104 H1093 0.950 . S
C1104 C1102 1.391 . S
C1104 C1105 1.400 . S
C1105 C1099 1.491 . S
C1105 C1104 1.400 . S
C1105 C1106 1.398 . S
C1106 H1094 0.950 . S
C1106 C1105 1.398 . S
C1106 C1107 1.391 . S
C1107 H1095 0.950 . S
C1107 C1103 1.393 . S
C1107 C1106 1.391 . S
H1108 C1116 0.950 . S
H1109 C1121 0.950 . S
H1110 C1118 0.950 . S
H1111 C1120 0.950 . S
H1112 C1122 0.950 . S
H1113 C1124 0.950 . S
H1114 C1126 0.950 . S
H1115 C1127 0.950 . S
C1116 H1108 0.950 . S
C1116 C1117 1.386 . S
C1116 C1118 1.391 . S
C1117 C1116 1.386 . S
C1117 C1121 1.393 . S
C1118 H1110 0.950 . S
C1118 C1116 1.391 . S
C1118 C1119 1.400 . S
C1119 C1118 1.400 . S
C1119 C1120 1.398 . S
C1119 C1125 1.491 1_554 S
C1120 H1111 0.950 . S
C1120 C1119 1.398 . S
C1120 C1121 1.391 . S
C1121 H1109 0.950 . S
C1121 C1117 1.393 . S
C1121 C1120 1.391 . S
C1122 H1112 0.950 . S
C1122 C1123 1.386 . S
C1122 C1124 1.391 . S
C1123 C1122 1.386 . S
C1123 C1127 1.393 . S
C1124 H1113 0.950 . S
C1124 C1122 1.391 . S
C1124 C1125 1.400 . S
C1125 C1119 1.491 1_556 S
C1125 C1124 1.400 . S
C1125 C1126 1.398 . S
C1126 H1114 0.950 . S
C1126 C1125 1.398 . S
C1126 C1127 1.391 . S
C1127 H1115 0.950 . S
C1127 C1123 1.393 . S
C1127 C1126 1.391 . S
H1128 C1136 0.950 . S
H1129 C1141 0.950 . S
H1130 C1138 0.950 . S
H1131 C1140 0.950 . S
H1132 C1142 0.950 . S
H1133 C1144 0.950 . S
H1134 C1146 0.950 . S
H1135 C1147 0.950 . S
C1136 H1128 0.950 . S
C1136 C1137 1.386 1_455 S
C1136 C1138 1.391 . S
C1137 C1136 1.386 1_655 S
C1137 C1141 1.393 . S
C1138 H1130 0.950 . S
C1138 C1136 1.391 . S
C1138 C1139 1.400 1_455 S
C1139 C1138 1.400 1_655 S
C1139 C1140 1.398 . S
C1139 C1145 1.491 . S
C1140 H1131 0.950 . S
C1140 C1139 1.398 . S
C1140 C1141 1.391 . S
C1141 H1129 0.950 . S
C1141 C1137 1.393 . S
C1141 C1140 1.391 . S
C1142 H1132 0.950 . S
C1142 C1143 1.386 . S
C1142 C1144 1.391 . S
C1143 C1142 1.386 . S
C1143 C1147 1.393 1_655 S
C1144 H1133 0.950 . S
C1144 C1142 1.391 . S
C1144 C1145 1.400 . S
C1145 C1139 1.491 . S
C1145 C1144 1.400 . S
C1145 C1146 1.398 1_655 S
C1146 H1134 0.950 . S
C1146 C1145 1.398 1_455 S
C1146 C1147 1.391 . S
C1147 H1135 0.950 . S
C1147 C1143 1.393 1_455 S
C1147 C1146 1.391 . S
H1148 C1156 0.950 . S
H1149 C1161 0.950 . S
H1150 C1158 0.950 . S
H1151 C1160 0.950 . S
H1152 C1162 0.950 . S
H1153 C1164 0.950 . S
H1154 C1166 0.950 . S
H1155 C1167 0.950 . S
C1156 H1148 0.950 . S
C1156 C1157 1.386 . S
C1156 C1158 1.391 . S
C1157 C1156 1.386 . S
C1157 C1161 1.393 . S
C1158 H1150 0.950 . S
C1158 C1156 1.391 . S
C1158 C1159 1.400 . S
C1159 C1158 1.400 . S
C1159 C1160 1.398 . S
C1159 C1165 1.491 . S
C1160 H1151 0.950 . S
C1160 C1159 1.398 . S
C1160 C1161 1.391 . S
C1161 H1149 0.950 . S
C1161 C1157 1.393 . S
C1161 C1160 1.391 . S
C1162 H1152 0.950 . S
C1162 C1163 1.386 . S
C1162 C1164 1.391 . S
C1163 C1162 1.386 . S
C1163 C1167 1.393 . S
C1164 H1153 0.950 . S
C1164 C1162 1.391 . S
C1164 C1165 1.400 . S
C1165 C1159 1.491 . S
C1165 C1164 1.400 . S
C1165 C1166 1.398 . S
C1166 H1154 0.950 . S
C1166 C1165 1.398 . S
C1166 C1167 1.391 . S
C1167 H1155 0.950 . S
C1167 C1163 1.393 . S
C1167 C1166 1.391 . S
H1168 C1176 0.950 . S
H1169 C1181 0.950 . S
H1170 C1178 0.950 . S
H1171 C1180 0.950 . S
H1172 C1182 0.950 . S
H1173 C1184 0.950 . S
H1174 C1186 0.950 . S
H1175 C1187 0.950 . S
C1176 H1168 0.950 . S
C1176 C1177 1.386 . S
C1176 C1178 1.391 . S
C1177 C1176 1.386 . S
C1177 C1181 1.393 . S
C1178 H1170 0.950 . S
C1178 C1176 1.391 . S
C1178 C1179 1.400 . S
C1179 C1178 1.400 . S
C1179 C1180 1.398 . S
C1179 C1185 1.491 . S
C1180 H1171 0.950 . S
C1180 C1179 1.398 . S
C1180 C1181 1.391 . S
C1181 H1169 0.950 . S
C1181 C1177 1.393 . S
C1181 C1180 1.391 . S
C1182 H1172 0.950 . S
C1182 C1183 1.386 . S
C1182 C1184 1.391 . S
C1183 C1182 1.386 . S
C1183 C1187 1.393 . S
C1184 H1173 0.950 . S
C1184 C1182 1.391 . S
C1184 C1185 1.400 . S
C1185 C1179 1.491 . S
C1185 C1184 1.400 . S
C1185 C1186 1.398 . S
C1186 H1174 0.950 . S
C1186 C1185 1.398 . S
C1186 C1187 1.391 . S
C1187 H1175 0.950 . S
C1187 C1183 1.393 . S
C1187 C1186 1.391 . S
H1188 C1196 0.950 . S
H1189 C1201 0.950 . S
H1190 C1198 0.950 . S
H1191 C1200 0.950 . S
H1192 C1202 0.950 . S
H1193 C1204 0.950 . S
H1194 C1206 0.950 . S
H1195 C1207 0.950 . S
C1196 H1188 0.950 . S
C1196 C1197 1.386 . S
C1196 C1198 1.391 . S
C1197 C1196 1.386 . S
C1197 C1201 1.393 . S
C1198 H1190 0.950 . S
C1198 C1196 1.391 . S
C1198 C1199 1.400 . S
C1199 C1198 1.400 . S
C1199 C1200 1.398 . S
C1199 C1205 1.491 . S
C1200 H1191 0.950 . S
C1200 C1199 1.398 . S
C1200 C1201 1.391 . S
C1201 H1189 0.950 . S
C1201 C1197 1.393 . S
C1201 C1200 1.391 . S
C1202 H1192 0.950 . S
C1202 C1203 1.386 . S
C1202 C1204 1.391 . S
C1203 C1202 1.386 . S
C1203 C1207 1.393 . S
C1204 H1193 0.950 . S
C1204 C1202 1.391 . S
C1204 C1205 1.400 . S
C1205 C1199 1.491 . S
C1205 C1204 1.400 . S
C1205 C1206 1.398 . S
C1206 H1194 0.950 . S
C1206 C1205 1.398 . S
C1206 C1207 1.391 . S
C1207 H1195 0.950 . S
C1207 C1203 1.393 . S
C1207 C1206 1.391 . S
H1208 C1216 0.950 . S
H1209 C1221 0.950 . S
H1210 C1218 0.950 . S
H1211 C1220 0.950 . S
H1212 C1222 0.950 . S
H1213 C1224 0.950 . S
H1214 C1226 0.950 . S
H1215 C1227 0.950 . S
C1216 H1208 0.950 . S
C1216 C1217 1.386 . S
C1216 C1218 1.391 . S
C1217 C1216 1.386 . S
C1217 C1221 1.393 . S
C1218 H1210 0.950 . S
C1218 C1216 1.391 . S
C1218 C1219 1.400 . S
C1219 C1218 1.400 . S
C1219 C1220 1.398 . S
C1219 C1225 1.491 . S
C1220 H1211 0.950 . S
C1220 C1219 1.398 . S
C1220 C1221 1.391 . S
C1221 H1209 0.950 . S
C1221 C1217 1.393 . S
C1221 C1220 1.391 . S
C1222 H1212 0.950 . S
C1222 C1223 1.386 . S
C1222 C1224 1.391 . S
C1223 C1222 1.386 . S
C1223 C1227 1.393 . S
C1224 H1213 0.950 . S
C1224 C1222 1.391 . S
C1224 C1225 1.400 . S
C1225 C1219 1.491 . S
C1225 C1224 1.400 . S
C1225 C1226 1.398 . S
C1226 H1214 0.950 . S
C1226 C1225 1.398 . S
C1226 C1227 1.391 . S
C1227 H1215 0.950 . S
C1227 C1223 1.393 . S
C1227 C1226 1.391 . S
H1228 C1236 0.950 . S
H1229 C1241 0.950 . S
H1230 C1238 0.950 . S
H1231 C1240 0.950 . S
H1232 C1242 0.950 . S
H1233 C1244 0.950 . S
H1234 C1246 0.950 . S
H1235 C1247 0.950 . S
C1236 H1228 0.950 . S
C1236 C1237 1.386 . S
C1236 C1238 1.391 . S
C1237 C1236 1.386 . S
C1237 C1241 1.393 . S
C1238 H1230 0.950 . S
C1238 C1236 1.391 . S
C1238 C1239 1.400 . S
C1239 C1238 1.400 . S
C1239 C1240 1.398 . S
C1239 C1245 1.491 . S
C1240 H1231 0.950 . S
C1240 C1239 1.398 . S
C1240 C1241 1.391 . S
C1241 H1229 0.950 . S
C1241 C1237 1.393 . S
C1241 C1240 1.391 . S
C1242 H1232 0.950 . S
C1242 C1243 1.386 . S
C1242 C1244 1.391 . S
C1243 C1242 1.386 . S
C1243 C1247 1.393 . S
C1244 H1233 0.950 . S
C1244 C1242 1.391 . S
C1244 C1245 1.400 . S
C1245 C1239 1.491 . S
C1245 C1244 1.400 . S
C1245 C1246 1.398 . S
C1246 H1234 0.950 . S
C1246 C1245 1.398 . S
C1246 C1247 1.391 . S
C1247 H1235 0.950 . S
C1247 C1243 1.393 . S
C1247 C1246 1.391 . S
H1248 C1256 0.950 . S
H1249 C1261 0.950 . S
H1250 C1258 0.950 . S
H1251 C1260 0.950 . S
H1252 C1262 0.950 . S
H1253 C1264 0.950 . S
H1254 C1266 0.950 . S
H1255 C1267 0.950 . S
C1256 H1248 0.950 . S
C1256 C1257 1.386 . S
C1256 C1258 1.391 . S
C1257 C1256 1.386 . S
C1257 C1261 1.393 . S
C1258 H1250 0.950 . S
C1258 C1256 1.391 . S
C1258 C1259 1.400 . S
C1259 C1258 1.400 . S
C1259 C1260 1.398 . S
C1259 C1265 1.491 . S
C1260 H1251 0.950 . S
C1260 C1259 1.398 . S
C1260 C1261 1.391 . S
C1261 H1249 0.950 . S
C1261 C1257 1.393 . S
C1261 C1260 1.391 . S
C1262 H1252 0.950 . S
C1262 C1263 1.386 . S
C1262 C1264 1.391 . S
C1263 C1262 1.386 . S
C1263 C1267 1.393 . S
C1264 H1253 0.950 . S
C1264 C1262 1.391 . S
C1264 C1265 1.400 . S
C1265 C1259 1.491 . S
C1265 C1264 1.400 . S
C1265 C1266 1.398 . S
C1266 H1254 0.950 . S
C1266 C1265 1.398 . S
C1266 C1267 1.391 . S
C1267 H1255 0.950 . S
C1267 C1263 1.393 . S
C1267 C1266 1.391 . S
H1268 C1276 0.950 . S
H1269 C1281 0.950 . S
H1270 C1278 0.950 . S
H1271 C1280 0.950 . S
H1272 C1282 0.950 . S
H1273 C1284 0.950 . S
H1274 C1286 0.950 . S
H1275 C1287 0.950 . S
C1276 H1268 0.950 . S
C1276 C1277 1.386 . S
C1276 C1278 1.391 . S
C1277 C1276 1.386 . S
C1277 C1281 1.393 . S
C1278 H1270 0.950 . S
C1278 C1276 1.391 . S
C1278 C1279 1.400 . S
C1279 C1278 1.400 . S
C1279 C1280 1.398 . S
C1279 C1285 1.491 . S
C1280 H1271 0.950 . S
C1280 C1279 1.398 . S
C1280 C1281 1.391 . S
C1281 H1269 0.950 . S
C1281 C1277 1.393 . S
C1281 C1280 1.391 . S
C1282 H1272 0.950 . S
C1282 C1283 1.386 . S
C1282 C1284 1.391 . S
C1283 C1282 1.386 . S
C1283 C1287 1.393 . S
C1284 H1273 0.950 . S
C1284 C1282 1.391 . S
C1284 C1285 1.400 . S
C1285 C1279 1.491 . S
C1285 C1284 1.400 . S
C1285 C1286 1.398 . S
C1286 H1274 0.950 . S
C1286 C1285 1.398 . S
C1286 C1287 1.391 . S
C1287 H1275 0.950 . S
C1287 C1283 1.393 . S
C1287 C1286 1.391 . S
H1288 C1296 0.950 . S
H1289 C1301 0.950 . S
H1290 C1298 0.950 . S
H1291 C1300 0.950 . S
H1292 C1302 0.950 . S
H1293 C1304 0.950 . S
H1294 C1306 0.950 . S
H1295 C1307 0.950 . S
C1296 H1288 0.950 . S
C1296 C1297 1.386 . S
C1296 C1298 1.391 . S
C1297 C1296 1.386 . S
C1297 C1301 1.393 . S
C1298 H1290 0.950 . S
C1298 C1296 1.391 . S
C1298 C1299 1.400 . S
C1299 C1298 1.400 . S
C1299 C1300 1.398 . S
C1299 C1305 1.491 . S
C1300 H1291 0.950 . S
C1300 C1299 1.398 . S
C1300 C1301 1.391 . S
C1301 H1289 0.950 . S
C1301 C1297 1.393 . S
C1301 C1300 1.391 . S
C1302 H1292 0.950 . S
C1302 C1303 1.386 . S
C1302 C1304 1.391 . S
C1303 C1302 1.386 . S
C1303 C1307 1.393 . S
C1304 H1293 0.950 . S
C1304 C1302 1.391 . S
C1304 C1305 1.400 . S
C1305 C1299 1.491 . S
C1305 C1304 1.400 . S
C1305 C1306 1.398 . S
C1306 H1294 0.950 . S
C1306 C1305 1.398 . S
C1306 C1307 1.391 . S
C1307 H1295 0.950 . S
C1307 C1303 1.393 . S
C1307 C1306 1.391 . S
H1308 C1316 0.950 . S
H1309 C1321 0.950 . S
H1310 C1318 0.950 . S
H1311 C1320 0.950 . S
H1312 C1322 0.950 . S
H1313 C1324 0.950 . S
H1314 C1326 0.950 . S
H1315 C1327 0.950 . S
C1316 H1308 0.950 . S
C1316 C1317 1.386 . S
C1316 C1318 1.391 . S
C1317 C1316 1.386 . S
C1317 C1321 1.393 . S
C1318 H1310 0.950 . S
C1318 C1316 1.391 . S
C1318 C1319 1.400 . S
C1319 C1318 1.400 . S
C1319 C1320 1.398 . S
C1319 C1325 1.491 . S
C1320 H1311 0.950 . S
C1320 C1319 1.398 . S
C1320 C1321 1.391 . S
C1321 H1309 0.950 . S
C1321 C1317 1.393 . S
C1321 C1320 1.391 . S
C1322 H1312 0.950 . S
C1322 C1323 1.386 . S
C1322 C1324 1.391 . S
C1323 C1322 1.386 . S
C1323 C1327 1.393 . S
C1324 H1313 0.950 . S
C1324 C1322 1.391 . S
C1324 C1325 1.400 . S
C1325 C1319 1.491 . S
C1325 C1324 1.400 . S
C1325 C1326 1.398 . S
C1326 H1314 0.950 . S
C1326 C1325 1.398 . S
C1326 C1327 1.391 . S
C1327 H1315 0.950 . S
C1327 C1323 1.393 . S
C1327 C1326 1.391 . S
H1328 C1336 0.950 . S
H1329 C1341 0.950 . S
H1330 C1338 0.950 . S
H1331 C1340 0.950 . S
H1332 C1342 0.950 . S
H1333 C1344 0.950 . S
H1334 C1346 0.950 . S
H1335 C1347 0.950 . S
C1336 H1328 0.950 . S
C1336 C1337 1.386 . S
C1336 C1338 1.391 . S
C1337 C1336 1.386 . S
C1337 C1341 1.393 . S
C1338 H1330 0.950 . S
C1338 C1336 1.391 . S
C1338 C1339 1.400 . S
C1339 C1338 1.400 . S
C1339 C1340 1.398 . S
C1339 C1345 1.491 . S
C1340 H1331 0.950 . S
C1340 C1339 1.398 . S
C1340 C1341 1.391 . S
C1341 H1329 0.950 . S
C1341 C1337 1.393 . S
C1341 C1340 1.391 . S
C1342 H1332 0.950 . S
C1342 C1343 1.386 . S
C1342 C1344 1.391 . S
C1343 C1342 1.386 . S
C1343 C1347 1.393 . S
C1344 H1333 0.950 . S
C1344 C1342 1.391 . S
C1344 C1345 1.400 . S
C1345 C1339 1.491 . S
C1345 C1344 1.400 . S
C1345 C1346 1.398 . S
C1346 H1334 0.950 . S
C1346 C1345 1.398 . S
C1346 C1347 1.391 . S
C1347 H1335 0.950 . S
C1347 C1343 1.393 . S
C1347 C1346 1.391 . S
H1348 C1356 0.950 . S
H1349 C1361 0.950 . S
H1350 C1358 0.950 . S
H1351 C1360 0.950 . S
H1352 C1362 0.950 . S
H1353 C1364 0.950 . S
H1354 C1366 0.950 . S
H1355 C1367 0.950 . S
C1356 H1348 0.950 . S
C1356 C1357 1.386 . S
C1356 C1358 1.391 . S
C1357 C1356 1.386 . S
C1357 C1361 1.393 . S
C1358 H1350 0.950 . S
C1358 C1356 1.391 . S
C1358 C1359 1.400 . S
C1359 C1358 1.400 . S
C1359 C1360 1.398 . S
C1359 C1365 1.491 . S
C1360 H1351 0.950 . S
C1360 C1359 1.398 . S
C1360 C1361 1.391 . S
C1361 H1349 0.950 . S
C1361 C1357 1.393 . S
C1361 C1360 1.391 . S
C1362 H1352 0.950 . S
C1362 C1363 1.386 . S
C1362 C1364 1.391 . S
C1363 C1362 1.386 . S
C1363 C1367 1.393 . S
C1364 H1353 0.950 . S
C1364 C1362 1.391 . S
C1364 C1365 1.400 . S
C1365 C1359 1.491 . S
C1365 C1364 1.400 . S
C1365 C1366 1.398 . S
C1366 H1354 0.950 . S
C1366 C1365 1.398 . S
C1366 C1367 1.391 . S
C1367 H1355 0.950 . S
C1367 C1363 1.393 . S
C1367 C1366 1.391 . S
H1368 C1376 0.950 . S
H1369 C1381 0.950 . S
H1370 C1378 0.950 . S
H1371 C1380 0.950 . S
H1372 C1382 0.950 . S
H1373 C1384 0.950 . S
H1374 C1386 0.950 . S
H1375 C1387 0.950 . S
C1376 H1368 0.950 . S
C1376 C1377 1.386 . S
C1376 C1378 1.391 . S
C1377 C1376 1.386 . S
C1377 C1381 1.393 . S
C1378 H1370 0.950 . S
C1378 C1376 1.391 . S
C1378 C1379 1.400 . S
C1379 C1378 1.400 . S
C1379 C1380 1.398 . S
C1379 C1385 1.491 . S
C1380 H1371 0.950 . S
C1380 C1379 1.398 . S
C1380 C1381 1.391 . S
C1381 H1369 0.950 . S
C1381 C1377 1.393 . S
C1381 C1380 1.391 . S
C1382 H1372 0.950 . S
C1382 C1383 1.386 . S
C1382 C1384 1.391 . S
C1383 C1382 1.386 . S
C1383 C1387 1.393 . S
C1384 H1373 0.950 . S
C1384 C1382 1.391 . S
C1384 C1385 1.400 . S
C1385 C1379 1.491 . S
C1385 C1384 1.400 . S
C1385 C1386 1.398 . S
C1386 H1374 0.950 . S
C1386 C1385 1.398 . S
C1386 C1387 1.391 . S
C1387 H1375 0.950 . S
C1387 C1383 1.393 . S
C1387 C1386 1.391 . S
H1388 C1396 0.950 . S
H1389 C1401 0.950 . S
H1390 C1398 0.950 . S
H1391 C1400 0.950 . S
H1392 C1402 0.950 . S
H1393 C1404 0.950 . S
H1394 C1406 0.950 . S
H1395 C1407 0.950 . S
C1396 H1388 0.950 . S
C1396 C1397 1.386 . S
C1396 C1398 1.391 . S
C1397 C1396 1.386 . S
C1397 C1401 1.393 . S
C1398 H1390 0.950 . S
C1398 C1396 1.391 . S
C1398 C1399 1.400 . S
C1399 C1398 1.400 . S
C1399 C1400 1.398 . S
C1399 C1405 1.491 . S
C1400 H1391 0.950 . S
C1400 C1399 1.398 . S
C1400 C1401 1.391 . S
C1401 H1389 0.950 . S
C1401 C1397 1.393 . S
C1401 C1400 1.391 . S
C1402 H1392 0.950 . S
C1402 C1403 1.386 . S
C1402 C1404 1.391 . S
C1403 C1402 1.386 . S
C1403 C1407 1.393 . S
C1404 H1393 0.950 . S
C1404 C1402 1.391 . S
C1404 C1405 1.400 . S
C1405 C1399 1.491 . S
C1405 C1404 1.400 . S
C1405 C1406 1.398 . S
C1406 H1394 0.950 . S
C1406 C1405 1.398 . S
C1406 C1407 1.391 . S
C1407 H1395 0.950 . S
C1407 C1403 1.393 . S
C1407 C1406 1.391 . S
H1408 C1416 0.950 . S
H1409 C1421 0.950 . S
H1410 C1418 0.950 . S
H1411 C1420 0.950 . S
H1412 C1422 0.950 . S
H1413 C1424 0.950 . S
H1414 C1426 0.950 . S
H1415 C1427 0.950 . S
C1416 H1408 0.950 . S
C1416 C1417 1.386 . S
C1416 C1418 1.391 . S
C1417 C1416 1.386 . S
C1417 C1421 1.393 . S
C1418 H1410 0.950 . S
C1418 C1416 1.391 . S
C1418 C1419 1.400 . S
C1419 C1418 1.400 . S
C1419 C1420 1.398 . S
C1419 C1425 1.491 . S
C1420 H1411 0.950 . S
C1420 C1419 1.398 . S
C1420 C1421 1.391 . S
C1421 H1409 0.950 . S
C1421 C1417 1.393 . S
C1421 C1420 1.391 . S
C1422 H1412 0.950 . S
C1422 C1423 1.386 . S
C1422 C1424 1.391 . S
C1423 C1422 1.386 . S
C1423 C1427 1.393 . S
C1424 H1413 0.950 . S
C1424 C1422 1.391 . S
C1424 C1425 1.400 . S
C1425 C1419 1.491 . S
C1425 C1424 1.400 . S
C1425 C1426 1.398 . S
C1426 H1414 0.950 . S
C1426 C1425 1.398 . S
C1426 C1427 1.391 . S
C1427 H1415 0.950 . S
C1427 C1423 1.393 . S
C1427 C1426 1.391 . S
H1428 C1436 0.950 . S
H1429 C1441 0.950 . S
H1430 C1438 0.950 . S
H1431 C1440 0.950 . S
H1432 C1442 0.950 . S
H1433 C1444 0.950 . S
H1434 C1446 0.950 . S
H1435 C1447 0.950 . S
C1436 H1428 0.950 . S
C1436 C1437 1.386 . S
C1436 C1438 1.391 . S
C1437 C1436 1.386 . S
C1437 C1441 1.393 . S
C1438 H1430 0.950 . S
C1438 C1436 1.391 . S
C1438 C1439 1.400 . S
C1439 C1438 1.400 . S
C1439 C1440 1.398 . S
C1439 C1445 1.491 . S
C1440 H1431 0.950 . S
C1440 C1439 1.398 . S
C1440 C1441 1.391 . S
C1441 H1429 0.950 . S
C1441 C1437 1.393 . S
C1441 C1440 1.391 . S
C1442 H1432 0.950 . S
C1442 C1443 1.386 . S
C1442 C1444 1.391 . S
C1443 C1442 1.386 . S
C1443 C1447 1.393 . S
C1444 H1433 0.950 . S
C1444 C1442 1.391 . S
C1444 C1445 1.400 . S
C1445 C1439 1.491 . S
C1445 C1444 1.400 . S
C1445 C1446 1.398 . S
C1446 H1434 0.950 . S
C1446 C1445 1.398 . S
C1446 C1447 1.391 . S
C1447 H1435 0.950 . S
C1447 C1443 1.393 . S
C1447 C1446 1.391 . S
H1448 C1456 0.950 . S
H1449 C1461 0.950 . S
H1450 C1458 0.950 . S
H1451 C1460 0.950 . S
H1452 C1462 0.950 . S
H1453 C1464 0.950 . S
H1454 C1466 0.950 . S
H1455 C1467 0.950 . S
C1456 H1448 0.950 . S
C1456 C1457 1.386 . S
C1456 C1458 1.391 . S
C1457 C1456 1.386 . S
C1457 C1461 1.393 . S
C1458 H1450 0.950 . S
C1458 C1456 1.391 . S
C1458 C1459 1.400 . S
C1459 C1458 1.400 . S
C1459 C1460 1.398 . S
C1459 C1465 1.491 . S
C1460 H1451 0.950 . S
C1460 C1459 1.398 . S
C1460 C1461 1.391 . S
C1461 H1449 0.950 . S
C1461 C1457 1.393 . S
C1461 C1460 1.391 . S
C1462 H1452 0.950 . S
C1462 C1463 1.386 . S
C1462 C1464 1.391 . S
C1463 C1462 1.386 . S
C1463 C1467 1.393 . S
C1464 H1453 0.950 . S
C1464 C1462 1.391 . S
C1464 C1465 1.400 . S
C1465 C1459 1.491 . S
C1465 C1464 1.400 . S
C1465 C1466 1.398 . S
C1466 H1454 0.950 . S
C1466 C1465 1.398 . S
C1466 C1467 1.391 . S
C1467 H1455 0.950 . S
C1467 C1463 1.393 . S
C1467 C1466 1.391 . S
H1468 C1476 0.950 . S
H1469 C1481 0.950 . S
H1470 C1478 0.950 . S
H1471 C1480 0.950 . S
H1472 C1482 0.950 . S
H1473 C1484 0.950 . S
H1474 C1486 0.950 . S
H1475 C1487 0.950 . S
C1476 H1468 0.950 . S
C1476 C1477 1.386 . S
C1476 C1478 1.391 . S
C1477 C1476 1.386 . S
C1477 C1481 1.393 . S
C1478 H1470 0.950 . S
C1478 C1476 1.391 . S
C1478 C1479 1.400 . S
C1479 C1478 1.400 . S
C1479 C1480 1.398 . S
C1479 C1485 1.491 . S
C1480 H1471 0.950 . S
C1480 C1479 1.398 . S
C1480 C1481 1.391 . S
C1481 H1469 0.950 . S
C1481 C1477 1.393 . S
C1481 C1480 1.391 . S
C1482 H1472 0.950 . S
C1482 C1483 1.386 . S
C1482 C1484 1.391 . S
C1483 C1482 1.386 . S
C1483 C1487 1.393 . S
C1484 H1473 0.950 . S
C1484 C1482 1.391 . S
C1484 C1485 1.400 . S
C1485 C1479 1.491 . S
C1485 C1484 1.400 . S
C1485 C1486 1.398 . S
C1486 H1474 0.950 . S
C1486 C1485 1.398 . S
C1486 C1487 1.391 . S
C1487 H1475 0.950 . S
C1487 C1483 1.393 . S
C1487 C1486 1.391 . S
C857 C38 2.145 . S
C863 C251 2.146 . S
C877 C82 0.528 . S
C883 C294 0.527 . S
C897 C347 0.485 . S
C903 C135 0.486 . S
C917 C188 1.311 . S
C923 C410 1.311 . S
C937 C250 2.149 . S
C943 C39 2.151 . S
C957 C552 0.537 . S
C963 C446 0.541 . S
C977 C340 0.485 . S
C983 C128 0.482 . S
C997 C499 1.313 . S
C1003 C621 1.317 . S
C1017 C674 1.353 . S
C1023 C764 1.351 . S
C1037 C453 0.476 . S
C1043 C559 0.476 . S
C1057 C718 0.502 . S
C1063 C824 0.505 . S
C1077 C622 1.342 . S
C1083 C506 1.344 . S
C1097 C771 1.353 . S
C1103 C675 1.351 . S
C1117 C75 0.491 . S
C1123 C287 0.489 . S
C1137 C711 0.502 . S
C1143 C817 0.510 . S
C1157 C409 1.343 . S
C1163 C181 1.345 . S
C1177 C29 1.205 . S
C1183 C393 1.200 . S
C1197 C234 1.449 . S
C1203 C91 1.451 . S
C1217 C303 1.993 . S
C1223 C144 1.998 . S
C1237 C197 1.660 . S
C1243 C356 1.660 . S
C1257 C22 1.192 . S
C1263 C612 1.198 . S
C1277 C463 1.457 . S
C1283 C241 1.455 . S
C1297 C569 1.994 . S
C1303 C145 1.993 . S
C1317 C516 1.657 . S
C1323 C357 1.657 . S
C1337 C665 1.206 . S
C1343 C605 1.206 . S
C1357 C781 1.481 . S
C1363 C462 1.481 . S
C1377 C568 1.998 . S
C1383 C727 2.000 . S
C1397 C833 1.653 . S
C1403 C515 1.656 . S
C1417 C400 1.209 . S
C1423 C658 1.210 . S
C1437 C780 1.488 . S
C1443 C92 1.485 . S
C1457 C304 1.997 . S
C1463 C728 1.995 . S
C1477 C834 1.660 . S
C1483 C198 1.657 . S
