# Generated by pormake.
# Topology smn, (6)-cn, num edge types: 1
# Building blocks:
#     Node 0, Type 0, BuildingBlock: OJICUG_clean_sbu_0, # of connection points: 6
#     Node 1, Type 0, BuildingBlock: OJICUG_clean_sbu_0, # of connection points: 6
#     Node 2, Type 0, BuildingBlock: OJICUG_clean_sbu_0, # of connection points: 6
#     Node 3, Type 0, BuildingBlock: OJICUG_clean_sbu_0, # of connection points: 6
#     Node 4, Type 0, BuildingBlock: OJICUG_clean_sbu_0, # of connection points: 6
#     Node 5, Type 0, BuildingBlock: OJICUG_clean_sbu_0, # of connection points: 6
#     Node 6, Type 0, BuildingBlock: OJICUG_clean_sbu_0, # of connection points: 6
#     Node 7, Type 0, BuildingBlock: OJICUG_clean_sbu_0, # of connection points: 6
#     Node 8, Type 0, BuildingBlock: OJICUG_clean_sbu_0, # of connection points: 6
#     Node 9, Type 0, BuildingBlock: OJICUG_clean_sbu_0, # of connection points: 6
#     Node 10, Type 0, BuildingBlock: OJICUG_clean_sbu_0, # of connection points: 6
#     Node 11, Type 0, BuildingBlock: OJICUG_clean_sbu_0, # of connection points: 6
#     Node 12, Type 0, BuildingBlock: OJICUG_clean_sbu_0, # of connection points: 6
#     Node 13, Type 0, BuildingBlock: OJICUG_clean_sbu_0, # of connection points: 6
#     Node 14, Type 0, BuildingBlock: OJICUG_clean_sbu_0, # of connection points: 6
#     Node 15, Type 0, BuildingBlock: OJICUG_clean_sbu_0, # of connection points: 6
#     Node 16, Type 0, BuildingBlock: OJICUG_clean_sbu_0, # of connection points: 6
#     Node 17, Type 0, BuildingBlock: OJICUG_clean_sbu_0, # of connection points: 6
#     Edge 18, Type (0, 0), BuildingBlock: TEMPAE_clean_linker_10, # of connection points: 2
#     Edge 19, Type (0, 0), BuildingBlock: TEMPAE_clean_linker_10, # of connection points: 2
#     Edge 20, Type (0, 0), BuildingBlock: TEMPAE_clean_linker_10, # of connection points: 2
#     Edge 21, Type (0, 0), BuildingBlock: TEMPAE_clean_linker_10, # of connection points: 2
#     Edge 22, Type (0, 0), BuildingBlock: TEMPAE_clean_linker_10, # of connection points: 2
#     Edge 23, Type (0, 0), BuildingBlock: TEMPAE_clean_linker_10, # of connection points: 2
#     Edge 24, Type (0, 0), BuildingBlock: TEMPAE_clean_linker_10, # of connection points: 2
#     Edge 25, Type (0, 0), BuildingBlock: TEMPAE_clean_linker_10, # of connection points: 2
#     Edge 26, Type (0, 0), BuildingBlock: TEMPAE_clean_linker_10, # of connection points: 2
#     Edge 27, Type (0, 0), BuildingBlock: TEMPAE_clean_linker_10, # of connection points: 2
#     Edge 28, Type (0, 0), BuildingBlock: TEMPAE_clean_linker_10, # of connection points: 2
#     Edge 29, Type (0, 0), BuildingBlock: TEMPAE_clean_linker_10, # of connection points: 2
#     Edge 30, Type (0, 0), BuildingBlock: TEMPAE_clean_linker_10, # of connection points: 2
#     Edge 31, Type (0, 0), BuildingBlock: TEMPAE_clean_linker_10, # of connection points: 2
#     Edge 32, Type (0, 0), BuildingBlock: TEMPAE_clean_linker_10, # of connection points: 2
#     Edge 33, Type (0, 0), BuildingBlock: TEMPAE_clean_linker_10, # of connection points: 2
#     Edge 34, Type (0, 0), BuildingBlock: TEMPAE_clean_linker_10, # of connection points: 2
#     Edge 35, Type (0, 0), BuildingBlock: TEMPAE_clean_linker_10, # of connection points: 2
#     Edge 36, Type (0, 0), BuildingBlock: TEMPAE_clean_linker_10, # of connection points: 2
#     Edge 37, Type (0, 0), BuildingBlock: TEMPAE_clean_linker_10, # of connection points: 2
#     Edge 38, Type (0, 0), BuildingBlock: TEMPAE_clean_linker_10, # of connection points: 2
#     Edge 39, Type (0, 0), BuildingBlock: TEMPAE_clean_linker_10, # of connection points: 2
#     Edge 40, Type (0, 0), BuildingBlock: TEMPAE_clean_linker_10, # of connection points: 2
#     Edge 41, Type (0, 0), BuildingBlock: TEMPAE_clean_linker_10, # of connection points: 2
#     Edge 42, Type (0, 0), BuildingBlock: TEMPAE_clean_linker_10, # of connection points: 2
#     Edge 43, Type (0, 0), BuildingBlock: TEMPAE_clean_linker_10, # of connection points: 2
#     Edge 44, Type (0, 0), BuildingBlock: TEMPAE_clean_linker_10, # of connection points: 2
#     Edge 45, Type (0, 0), BuildingBlock: TEMPAE_clean_linker_10, # of connection points: 2
#     Edge 46, Type (0, 0), BuildingBlock: TEMPAE_clean_linker_10, # of connection points: 2
#     Edge 47, Type (0, 0), BuildingBlock: TEMPAE_clean_linker_10, # of connection points: 2
#     Edge 48, Type (0, 0), BuildingBlock: TEMPAE_clean_linker_10, # of connection points: 2
#     Edge 49, Type (0, 0), BuildingBlock: TEMPAE_clean_linker_10, # of connection points: 2
#     Edge 50, Type (0, 0), BuildingBlock: TEMPAE_clean_linker_10, # of connection points: 2
#     Edge 51, Type (0, 0), BuildingBlock: TEMPAE_clean_linker_10, # of connection points: 2
#     Edge 52, Type (0, 0), BuildingBlock: TEMPAE_clean_linker_10, # of connection points: 2
#     Edge 53, Type (0, 0), BuildingBlock: TEMPAE_clean_linker_10, # of connection points: 2
#     Edge 54, Type (0, 0), BuildingBlock: TEMPAE_clean_linker_10, # of connection points: 2
#     Edge 55, Type (0, 0), BuildingBlock: TEMPAE_clean_linker_10, # of connection points: 2
#     Edge 56, Type (0, 0), BuildingBlock: TEMPAE_clean_linker_10, # of connection points: 2
#     Edge 57, Type (0, 0), BuildingBlock: TEMPAE_clean_linker_10, # of connection points: 2
#     Edge 58, Type (0, 0), BuildingBlock: TEMPAE_clean_linker_10, # of connection points: 2
#     Edge 59, Type (0, 0), BuildingBlock: TEMPAE_clean_linker_10, # of connection points: 2
#     Edge 60, Type (0, 0), BuildingBlock: TEMPAE_clean_linker_10, # of connection points: 2
#     Edge 61, Type (0, 0), BuildingBlock: TEMPAE_clean_linker_10, # of connection points: 2
#     Edge 62, Type (0, 0), BuildingBlock: TEMPAE_clean_linker_10, # of connection points: 2
#     Edge 63, Type (0, 0), BuildingBlock: TEMPAE_clean_linker_10, # of connection points: 2
#     Edge 64, Type (0, 0), BuildingBlock: TEMPAE_clean_linker_10, # of connection points: 2
#     Edge 65, Type (0, 0), BuildingBlock: TEMPAE_clean_linker_10, # of connection points: 2
#     Edge 66, Type (0, 0), BuildingBlock: TEMPAE_clean_linker_10, # of connection points: 2
#     Edge 67, Type (0, 0), BuildingBlock: TEMPAE_clean_linker_10, # of connection points: 2
#     Edge 68, Type (0, 0), BuildingBlock: TEMPAE_clean_linker_10, # of connection points: 2
#     Edge 69, Type (0, 0), BuildingBlock: TEMPAE_clean_linker_10, # of connection points: 2
#     Edge 70, Type (0, 0), BuildingBlock: TEMPAE_clean_linker_10, # of connection points: 2
#     Edge 71, Type (0, 0), BuildingBlock: TEMPAE_clean_linker_10, # of connection points: 2
# Relax obj value: 0.148
# Max RMSD: 0.236
# Mean RMSD: 0.236
data_MOF--net-smn--node1-OJICUG_clean_sbu_0--edge1-TEMPAE_clean_linker_10
_symmetry_space_group_name_H-M    P1
_symmetry_Int_Tables_number       1
_symmetry_cell_setting            triclinic
loop_
_symmetry_equiv_pos_as_xyz
'x, y, z'
_cell_length_a     66.2715
_cell_length_b     66.277213
_cell_length_c     18.352742
_cell_angle_alpha  89.994152
_cell_angle_beta   89.989979
_cell_angle_gamma 120.00372
loop_
_atom_site_label
_atom_site_type_symbol
_atom_site_fract_x
_atom_site_fract_y
_atom_site_fract_z
_atom_type_partial_charge
Sc0 Sc 0.0064 0.1722 0.7511 0.0
Sc1 Sc 0.02219 0.22612 0.83257 0.0
Sc2 Sc 0.99208 0.21077 0.66576 0.0
O3 O 0.0069 0.203 0.74981 0.0
C4 C 0.02028 0.18957 0.58678 0.0
C5 C 0.0562 0.20498 0.82102 0.0
C6 C 0.03858 0.25973 0.69618 0.0
C7 C 0.99265 0.17734 0.91425 0.0
C8 C 0.9567 0.15606 0.68123 0.0
C9 C 0.97717 0.23077 0.79837 0.0
O10 O 0.01816 0.17644 0.6403 0.0
O11 O 0.05089 0.21966 0.84538 0.0
O12 O 0.01976 0.24637 0.66257 0.0
O13 O 0.99466 0.16583 0.86202 0.0
O14 O 0.96249 0.17606 0.65589 0.0
O15 O 0.99578 0.23586 0.83264 0.0
O16 O 0.97039 0.15223 0.71944 0.0
O17 O 1.00116 0.19939 0.91199 0.0
O18 O 0.97155 0.21933 0.73878 0.0
O19 O 0.04231 0.18757 0.78287 0.0
O20 O 0.01212 0.2034 0.58747 0.0
O21 O 0.04357 0.25443 0.75785 0.0
Sc22 Sc 0.78613 0.80115 0.83397 0.0
Sc23 Sc 0.8013 0.78618 0.66717 0.0
Sc24 Sc 0.83993 0.83918 0.75176 0.0
O25 O 0.80915 0.80886 0.75097 0.0
C26 C 0.80726 0.85629 0.82162 0.0
C27 C 0.75242 0.78389 0.69792 0.0
C28 C 0.82249 0.83547 0.58749 0.0
C29 C 0.78131 0.75139 0.80012 0.0
C30 C 0.83496 0.8205 0.91514 0.0
C31 C 0.85604 0.80555 0.68241 0.0
O32 O 0.79268 0.83634 0.84661 0.0
O33 O 0.76569 0.7783 0.6643 0.0
O34 O 0.83568 0.84654 0.64083 0.0
O35 O 0.77627 0.76497 0.83428 0.0
O36 O 0.84637 0.83401 0.86276 0.0
O37 O 0.83603 0.7913 0.65712 0.0
O38 O 0.81292 0.80687 0.91312 0.0
O39 O 0.79276 0.75715 0.74053 0.0
O40 O 0.85985 0.82308 0.72049 0.0
O41 O 0.75782 0.79426 0.75945 0.0
O42 O 0.82457 0.85974 0.78301 0.0
O43 O 0.80861 0.8135 0.58851 0.0
Sc44 Sc 0.17279 0.00531 0.75306 0.0
Sc45 Sc 0.211 0.9896 0.83425 0.0
Sc46 Sc 0.22582 0.01997 0.66799 0.0
O47 O 0.20317 0.00496 0.75178 0.0
C48 C 0.17651 0.99173 0.58858 0.0
C49 C 0.15587 0.95547 0.82251 0.0
C50 C 0.22839 0.9735 0.69781 0.0
C51 C 0.19157 0.01883 0.91639 0.0
C52 C 0.20616 0.05511 0.68349 0.0
C53 C 0.26065 0.03475 0.80063 0.0
O54 O 0.16542 0.99376 0.64206 0.0
O55 O 0.17587 0.96087 0.84709 0.0
O56 O 0.23396 0.99244 0.66469 0.0
O57 O 0.17802 0.01681 0.86423 0.0
O58 O 0.22046 0.04943 0.65818 0.0
O59 O 0.24718 0.01601 0.83442 0.0
O60 O 0.1887 0.04137 0.72183 0.0
O61 O 0.20525 0.01049 0.91388 0.0
O62 O 0.25479 0.04052 0.7414 0.0
O63 O 0.15232 0.96932 0.78422 0.0
O64 O 0.1985 0.9999 0.58944 0.0
O65 O 0.2179 0.96833 0.75914 0.0
Sc66 Sc 0.0055 0.83846 0.25195 0.0
Sc67 Sc 0.99058 0.78499 0.16949 0.0
Sc68 Sc 0.0212 0.80058 0.33494 0.0
O69 O 0.00576 0.80806 0.25214 0.0
C70 C 0.05543 0.8556 0.32075 0.0
C71 C 0.01917 0.83391 0.08817 0.0
C72 C 0.03642 0.78152 0.20139 0.0
C73 C 0.95574 0.80509 0.18308 0.0
C74 C 0.99219 0.82045 0.41604 0.0
C75 C 0.97563 0.75096 0.30376 0.0
O76 O 0.04156 0.85902 0.28207 0.0
O77 O 0.01123 0.81194 0.09029 0.0
O78 O 0.0423 0.7933 0.26033 0.0
O79 O 0.96939 0.82243 0.22188 0.0
O80 O 1.00045 0.80671 0.41413 0.0
O81 O 0.96969 0.7566 0.2444 0.0
O82 O 0.99424 0.83386 0.36338 0.0
O83 O 0.9615 0.79088 0.15748 0.0
O84 O 0.99461 0.76447 0.33637 0.0
O85 O 0.01676 0.84514 0.14051 0.0
O86 O 0.04999 0.83571 0.34631 0.0
O87 O 0.0174 0.77578 0.16864 0.0
Sc88 Sc 0.22683 0.21013 0.16685 0.0
Sc89 Sc 0.21163 0.2253 0.33284 0.0
Sc90 Sc 0.17355 0.17167 0.25043 0.0
O91 O 0.20396 0.20233 0.25005 0.0
C92 C 0.17778 0.18972 0.08655 0.0
C93 C 0.23047 0.25952 0.1989 0.0
C94 C 0.15658 0.20453 0.31953 0.0
C95 C 0.26118 0.22936 0.30018 0.0
C96 C 0.20679 0.15523 0.18103 0.0
C97 C 0.19179 0.17644 0.41425 0.0
O98 O 0.19973 0.20378 0.08827 0.0
O99 O 0.21885 0.2537 0.2582 0.0
O100 O 0.15309 0.18726 0.2807 0.0
O101 O 0.25538 0.21768 0.24104 0.0
O102 O 0.18956 0.15157 0.22037 0.0
O103 O 0.20563 0.19844 0.41212 0.0
O104 O 0.22088 0.17516 0.15485 0.0
O105 O 0.24774 0.23483 0.3333 0.0
O106 O 0.17827 0.16511 0.36181 0.0
O107 O 0.23605 0.24615 0.16593 0.0
O108 O 0.16667 0.17609 0.13905 0.0
O109 O 0.17651 0.21896 0.34497 0.0
Sc110 Sc 0.84026 0.00681 0.25103 0.0
Sc111 Sc 0.80159 0.02117 0.16664 0.0
Sc112 Sc 0.78639 0.99086 0.33301 0.0
O113 O 0.80945 0.00629 0.25025 0.0
C114 C 0.80766 0.95698 0.32077 0.0
C115 C 0.82277 0.9931 0.08681 0.0
C116 C 0.75275 0.9745 0.19695 0.0
C117 C 0.85634 0.05656 0.18177 0.0
C118 C 0.83514 0.02032 0.41454 0.0
C119 C 0.78141 0.03572 0.29938 0.0
O120 O 0.82494 0.97084 0.28206 0.0
O121 O 0.80886 0.00116 0.08795 0.0
O122 O 0.75821 0.9694 0.25817 0.0
O123 O 0.86017 0.04287 0.21996 0.0
O124 O 0.8131 0.01196 0.41233 0.0
O125 O 0.79305 0.04161 0.24016 0.0
O126 O 0.84661 0.01829 0.3622 0.0
O127 O 0.83632 0.05077 0.15647 0.0
O128 O 0.77633 0.01704 0.33319 0.0
O129 O 0.83603 0.99527 0.14 0.0
O130 O 0.79308 0.96233 0.34576 0.0
O131 O 0.76596 0.99347 0.16377 0.0
Sc132 Sc 0.67282 0.50508 0.08473 0.0
Sc133 Sc 0.68858 0.55887 0.167 0.0
Sc134 Sc 0.65797 0.54353 0.00079 0.0
O135 O 0.67314 0.53581 0.08416 0.0
C136 C 0.68622 0.52258 0.92034 0.0
C137 C 0.72295 0.53826 0.15282 0.0
C138 C 0.70416 0.59275 0.03076 0.0
C139 C 0.65967 0.50993 0.24871 0.0
C140 C 0.62289 0.48876 0.01618 0.0
C141 C 0.64276 0.56246 0.13626 0.0
O142 O 0.68447 0.50959 0.97387 0.0
O143 O 0.71781 0.55312 0.1767 0.0
O144 O 0.68548 0.57914 0.99695 0.0
O145 O 0.66114 0.4984 0.1956 0.0
O146 O 0.62844 0.50878 0.99154 0.0
O147 O 0.6614 0.56746 0.17017 0.0
O148 O 0.63681 0.48499 0.0533 0.0
O149 O 0.66845 0.53201 0.24702 0.0
O150 O 0.63759 0.55204 0.07484 0.0
O151 O 0.70877 0.52054 0.11631 0.0
O152 O 0.67784 0.53623 0.92141 0.0
O153 O 0.70923 0.58757 0.09248 0.0
Sc154 Sc 0.50687 0.17337 0.08534 0.0
Sc155 Sc 0.45312 0.13512 0.16758 0.0
Sc156 Sc 0.46861 0.12004 0.00122 0.0
O157 O 0.47621 0.14287 0.0847 0.0
C158 C 0.48944 0.16923 0.92091 0.0
C159 C 0.4735 0.19007 0.15345 0.0
C160 C 0.41927 0.11675 0.03128 0.0
C161 C 0.50205 0.15539 0.24931 0.0
C162 C 0.52342 0.13995 0.01677 0.0
C163 C 0.44978 0.08583 0.13657 0.0
O164 O 0.50237 0.18049 0.97449 0.0
O165 O 0.4587 0.17004 0.17735 0.0
O166 O 0.43295 0.11182 0.99731 0.0
O167 O 0.51356 0.16842 0.1962 0.0
O168 O 0.50342 0.12541 0.99209 0.0
O169 O 0.44472 0.0994 0.17068 0.0
O170 O 0.5271 0.1576 0.05392 0.0
O171 O 0.47999 0.14198 0.2476 0.0
O172 O 0.46016 0.09115 0.07508 0.0
O173 O 0.49125 0.19369 0.11689 0.0
O174 O 0.47586 0.1472 0.92192 0.0
O175 O 0.42439 0.12693 0.09311 0.0
Sc176 Sc 0.83919 0.33849 0.08496 0.0
Sc177 Sc 0.87757 0.32298 0.16601 0.0
Sc178 Sc 0.89236 0.35363 0.00022 0.0
O179 O 0.86967 0.33836 0.08374 0.0
C180 C 0.84318 0.32525 0.92029 0.0
C181 C 0.82251 0.2886 0.15335 0.0
C182 C 0.8953 0.30733 0.02934 0.0
C183 C 0.85776 0.35184 0.24855 0.0
C184 C 0.8724 0.38847 0.0166 0.0
C185 C 0.92707 0.36839 0.13307 0.0
O186 O 0.832 0.32715 0.97373 0.0
O187 O 0.84249 0.29408 0.17826 0.0
O188 O 0.90077 0.32629 0.99653 0.0
O189 O 0.84421 0.34977 0.19633 0.0
O190 O 0.88678 0.38295 0.99095 0.0
O191 O 0.91367 0.34957 0.1666 0.0
O192 O 0.85495 0.37457 0.05466 0.0
O193 O 0.87157 0.34365 0.24597 0.0
O194 O 0.9212 0.37419 0.07393 0.0
O195 O 0.81891 0.30245 0.11527 0.0
O196 O 0.86519 0.33354 0.92133 0.0
O197 O 0.88475 0.30198 0.09058 0.0
Sc198 Sc 0.6571 0.11918 0.50068 0.0
Sc199 Sc 0.68757 0.13433 0.66726 0.0
Sc200 Sc 0.67238 0.17267 0.58412 0.0
O201 O 0.67235 0.14207 0.58404 0.0
C202 C 0.68577 0.16829 0.42003 0.0
C203 C 0.70306 0.11582 0.53123 0.0
C204 C 0.72238 0.18919 0.65251 0.0
C205 C 0.64147 0.08513 0.63655 0.0
C206 C 0.62238 0.13931 0.51565 0.0
C207 C 0.65911 0.15494 0.74831 0.0
O208 O 0.67714 0.14623 0.42126 0.0
O209 O 0.70802 0.12593 0.59315 0.0
O210 O 0.70831 0.19288 0.61591 0.0
O211 O 0.63656 0.09034 0.57464 0.0
O212 O 0.63644 0.15701 0.55245 0.0
O213 O 0.66769 0.14148 0.74699 0.0
O214 O 0.62771 0.12464 0.49129 0.0
O215 O 0.66006 0.09871 0.67083 0.0
O216 O 0.66065 0.16788 0.6949 0.0
O217 O 0.68449 0.11089 0.49702 0.0
O218 O 0.68415 0.17966 0.47335 0.0
O219 O 0.71705 0.16915 0.67657 0.0
Sc220 Sc 0.89246 0.54266 0.50091 0.0
Sc221 Sc 0.87698 0.55776 0.66715 0.0
Sc222 Sc 0.83896 0.50415 0.58398 0.0
O223 O 0.86945 0.53483 0.58404 0.0
C224 C 0.84335 0.52203 0.41999 0.0
C225 C 0.89559 0.59186 0.5316 0.0
C226 C 0.82206 0.53732 0.65238 0.0
C227 C 0.92645 0.56136 0.63675 0.0
C228 C 0.87255 0.48781 0.51533 0.0
C229 C 0.85668 0.50871 0.74821 0.0
O230 O 0.86539 0.53562 0.42138 0.0
O231 O 0.88512 0.58653 0.59296 0.0
O232 O 0.8185 0.51964 0.6156 0.0
O233 O 0.92127 0.55101 0.57519 0.0
O234 O 0.85485 0.48403 0.5524 0.0
O235 O 0.87007 0.53078 0.74685 0.0
O236 O 0.88711 0.50785 0.49101 0.0
O237 O 0.91274 0.56629 0.6706 0.0
O238 O 0.84375 0.49727 0.69484 0.0
O239 O 0.90073 0.57832 0.49777 0.0
O240 O 0.83202 0.5089 0.47315 0.0
O241 O 0.84205 0.55208 0.67657 0.0
Sc242 Sc 0.46856 0.3548 0.50119 0.0
Sc243 Sc 0.45316 0.32403 0.66677 0.0
Sc244 Sc 0.507 0.33994 0.58478 0.0
O245 O 0.47629 0.33961 0.58428 0.0
C246 C 0.48954 0.32666 0.42037 0.0
C247 C 0.41963 0.30817 0.53043 0.0
C248 C 0.47414 0.28996 0.65316 0.0
C249 C 0.44852 0.36919 0.63486 0.0
C250 C 0.52335 0.38992 0.51686 0.0
C251 C 0.50188 0.3531 0.74872 0.0
O252 O 0.47578 0.3349 0.4218 0.0
O253 O 0.42499 0.30291 0.59153 0.0
O254 O 0.49154 0.30391 0.61505 0.0
O255 O 0.46007 0.37512 0.57545 0.0
O256 O 0.52707 0.37603 0.5544 0.0
O257 O 0.47985 0.34474 0.74654 0.0
O258 O 0.50337 0.38433 0.49173 0.0
O259 O 0.44339 0.35041 0.66815 0.0
O260 O 0.51336 0.35121 0.69615 0.0
O261 O 0.43291 0.3272 0.49767 0.0
O262 O 0.50272 0.3286 0.47354 0.0
O263 O 0.45957 0.29529 0.67829 0.0
Sc264 Sc 0.34012 0.83911 0.41655 0.0
Sc265 Sc 0.35535 0.89273 0.4985 0.0
Sc266 Sc 0.32458 0.87707 0.33337 0.0
O267 O 0.34003 0.8696 0.41613 0.0
C268 C 0.35338 0.85699 0.25229 0.0
C269 C 0.39 0.87239 0.48492 0.0
C270 C 0.37014 0.92672 0.36429 0.0
C271 C 0.32676 0.84394 0.58042 0.0
C272 C 0.29023 0.82208 0.34782 0.0
C273 C 0.30949 0.89621 0.467 0.0
O274 O 0.35125 0.84356 0.30497 0.0
O275 O 0.38438 0.88674 0.51026 0.0
O276 O 0.35113 0.9132 0.33186 0.0
O277 O 0.32898 0.83259 0.5281 0.0
O278 O 0.29577 0.84196 0.32197 0.0
O279 O 0.32856 0.902 0.49951 0.0
O280 O 0.30401 0.81863 0.38681 0.0
O281 O 0.33479 0.86591 0.57806 0.0
O282 O 0.30354 0.88438 0.40814 0.0
O283 O 0.37624 0.85501 0.44639 0.0
O284 O 0.34528 0.87087 0.25421 0.0
O285 O 0.3762 0.92105 0.42337 0.0
Sc286 Sc 0.11904 0.46754 0.50004 0.0
Sc287 Sc 0.13467 0.45309 0.33319 0.0
Sc288 Sc 0.17273 0.50617 0.41831 0.0
O289 O 0.14217 0.47563 0.41719 0.0
C290 C 0.13947 0.52257 0.48803 0.0
C291 C 0.08545 0.45006 0.36378 0.0
C292 C 0.15532 0.5024 0.25395 0.0
C293 C 0.11492 0.41812 0.46565 0.0
C294 C 0.16786 0.48738 0.58156 0.0
C295 C 0.18951 0.4731 0.3488 0.0
O296 O 0.12512 0.50256 0.51309 0.0
O297 O 0.09892 0.44472 0.33021 0.0
O298 O 0.16842 0.51351 0.3074 0.0
O299 O 0.10958 0.43146 0.49989 0.0
O300 O 0.1792 0.50105 0.52938 0.0
O301 O 0.16958 0.45871 0.3233 0.0
O302 O 0.14587 0.4735 0.5793 0.0
O303 O 0.12647 0.42409 0.40626 0.0
O304 O 0.19308 0.49051 0.38708 0.0
O305 O 0.0907 0.4604 0.42535 0.0
O306 O 0.15687 0.52629 0.44944 0.0
O307 O 0.14166 0.48038 0.25474 0.0
Sc308 Sc 0.50622 0.67243 0.419 0.0
Sc309 Sc 0.54465 0.65711 0.50033 0.0
Sc310 Sc 0.55951 0.68773 0.33488 0.0
O311 O 0.53674 0.67241 0.41808 0.0
C312 C 0.51047 0.65894 0.25472 0.0
C313 C 0.4896 0.62258 0.48753 0.0
C314 C 0.56353 0.64213 0.36577 0.0
C315 C 0.52465 0.6858 0.58268 0.0
C316 C 0.53906 0.72223 0.34969 0.0
C317 C 0.59399 0.70286 0.46781 0.0
O318 O 0.49933 0.66126 0.30751 0.0
O319 O 0.50958 0.62818 0.51279 0.0
O320 O 0.56901 0.66113 0.33331 0.0
O321 O 0.511 0.68357 0.53057 0.0
O322 O 0.55327 0.71656 0.32344 0.0
O323 O 0.58076 0.68381 0.50057 0.0
O324 O 0.52192 0.70856 0.38919 0.0
O325 O 0.53861 0.67779 0.58003 0.0
O326 O 0.588 0.70881 0.40917 0.0
O327 O 0.48599 0.63633 0.44891 0.0
O328 O 0.53245 0.66696 0.25626 0.0
O329 O 0.5519 0.63612 0.42505 0.0
Sc330 Sc 0.33913 0.50613 0.91802 0.0
Sc331 Sc 0.32409 0.45267 0.83481 0.0
Sc332 Sc 0.35444 0.46791 0.00143 0.0
O333 O 0.33922 0.47559 0.91811 0.0
C334 C 0.38908 0.52283 0.98726 0.0
C335 C 0.35283 0.50183 0.75424 0.0
C336 C 0.37008 0.44941 0.86587 0.0
C337 C 0.28925 0.47271 0.84872 0.0
C338 C 0.32567 0.48828 0.08204 0.0
C339 C 0.30852 0.41856 0.97049 0.0
O340 O 0.37504 0.52647 0.9503 0.0
O341 O 0.34427 0.47977 0.75551 0.0
O342 O 0.37511 0.45972 0.92747 0.0
O343 O 0.3032 0.4904 0.88579 0.0
O344 O 0.3343 0.47485 0.08084 0.0
O345 O 0.30346 0.42382 0.90886 0.0
O346 O 0.32727 0.50126 0.02867 0.0
O347 O 0.29469 0.45809 0.82464 0.0
O348 O 0.32713 0.43219 0.00456 0.0
O349 O 0.35104 0.51316 0.80739 0.0
O350 O 0.38377 0.5028 0.01128 0.0
O351 O 0.35144 0.44435 0.83184 0.0
Sc352 Sc 0.55987 0.87715 0.83443 0.0
Sc353 Sc 0.54465 0.89233 0.00023 0.0
Sc354 Sc 0.50645 0.83884 0.91747 0.0
O355 O 0.53695 0.86939 0.91741 0.0
C356 C 0.51095 0.85709 0.75368 0.0
C357 C 0.56379 0.92662 0.86687 0.0
C358 C 0.48966 0.87186 0.98637 0.0
C359 C 0.5941 0.89609 0.96798 0.0
C360 C 0.53945 0.82215 0.848 0.0
C361 C 0.5245 0.84348 0.08153 0.0
O362 O 0.53291 0.87114 0.7557 0.0
O363 O 0.55192 0.92071 0.92565 0.0
O364 O 0.48612 0.85462 0.94727 0.0
O365 O 0.58824 0.88433 0.90897 0.0
O366 O 0.52232 0.81858 0.88771 0.0
O367 O 0.53848 0.86545 0.07938 0.0
O368 O 0.55359 0.84206 0.82182 0.0
O369 O 0.58075 0.90175 0.00081 0.0
O370 O 0.51096 0.83221 0.02904 0.0
O371 O 0.56947 0.9133 0.83407 0.0
O372 O 0.49978 0.84337 0.80595 0.0
O373 O 0.50957 0.88613 0.01227 0.0
Sc374 Sc 0.13502 0.6884 0.83319 0.0
Sc375 Sc 0.12007 0.65789 0.99924 0.0
Sc376 Sc 0.17331 0.67292 0.91491 0.0
O377 O 0.14283 0.67307 0.91579 0.0
C378 C 0.1547 0.65933 0.75146 0.0
C379 C 0.08537 0.64318 0.86615 0.0
C380 C 0.13998 0.62296 0.98357 0.0
C381 C 0.11748 0.70436 0.96967 0.0
C382 C 0.19008 0.72273 0.84567 0.0
C383 C 0.16927 0.68618 0.07945 0.0
O384 O 0.14093 0.66757 0.75375 0.0
O385 O 0.09115 0.6374 0.92554 0.0
O386 O 0.15753 0.63689 0.94592 0.0
O387 O 0.12794 0.70956 0.90829 0.0
O388 O 0.19366 0.70893 0.8841 0.0
O389 O 0.14725 0.67785 0.07836 0.0
O390 O 0.17011 0.71722 0.82069 0.0
O391 O 0.11193 0.68543 0.00277 0.0
O392 O 0.18049 0.68439 0.02596 0.0
O393 O 0.09889 0.66192 0.83251 0.0
O394 O 0.16827 0.66147 0.8037 0.0
O395 O 0.12548 0.62845 0.00855 0.0
C396 C 0.04311 0.17433 0.52274 0.0
C397 C 0.03567 0.19077 0.5261 0.0
C398 C 0.06159 0.17777 0.47759 0.0
C399 C 0.07276 0.19798 0.43358 0.0
C400 C 0.06405 0.21361 0.43171 0.0
C401 C 0.04563 0.20989 0.47833 0.0
C402 C 0.07026 0.16059 0.48132 0.0
C403 C 0.07512 0.23505 0.38414 0.0
C404 C 0.13661 0.21769 0.40699 0.0
C405 C 0.13612 0.2065 0.34165 0.0
C406 C 0.11628 0.21626 0.43535 0.0
C407 C 0.09502 0.20373 0.39668 0.0
C408 C 0.09483 0.19407 0.32774 0.0
C409 C 0.11533 0.19532 0.3014 0.0
C410 C 0.11723 0.22666 0.5094 0.0
C411 C 0.0727 0.18119 0.28381 0.0
H412 H 0.03534 0.15931 0.55856 0.0
H413 H 0.03999 0.22267 0.48022 0.0
H414 H 0.0717 0.15481 0.42583 0.0
H415 H 0.08792 0.16915 0.50595 0.0
H416 H 0.05866 0.14497 0.51434 0.0
H417 H 0.0638 0.24289 0.37834 0.0
H418 H 0.09188 0.24826 0.40866 0.0
H419 H 0.07899 0.23086 0.32918 0.0
H420 H 0.15259 0.22637 0.43839 0.0
H421 H 0.1149 0.18693 0.25025 0.0
H422 H 0.10751 0.21246 0.54936 0.0
H423 H 0.10878 0.23747 0.5077 0.0
H424 H 0.13539 0.2376 0.52932 0.0
H425 H 0.06139 0.16377 0.30824 0.0
H426 H 0.07629 0.17874 0.22632 0.0
H427 H 0.06284 0.19066 0.28452 0.0
C428 C 0.81683 0.92492 0.30249 0.0
C429 C 0.80581 0.93462 0.34308 0.0
C430 C 0.81804 0.90563 0.32866 0.0
C431 C 0.80853 0.89624 0.39784 0.0
C432 C 0.79621 0.90511 0.43698 0.0
C433 C 0.79479 0.92403 0.40874 0.0
C434 C 0.83068 0.89623 0.28422 0.0
C435 C 0.78601 0.89578 0.51132 0.0
C436 C 0.80208 0.84057 0.47944 0.0
C437 C 0.82132 0.84964 0.52669 0.0
C438 C 0.79841 0.85532 0.43291 0.0
C439 C 0.81422 0.87964 0.43438 0.0
C440 C 0.83454 0.88857 0.4778 0.0
C441 C 0.83792 0.87347 0.52283 0.0
C442 C 0.77685 0.84506 0.38593 0.0
C443 C 0.8519 0.91438 0.48112 0.0
H444 H 0.82509 0.93281 0.2511 0.0
H445 H 0.78623 0.93141 0.4404 0.0
H446 H 0.84815 0.90224 0.30814 0.0
H447 H 0.8211 0.8769 0.28505 0.0
H448 H 0.83302 0.90224 0.22672 0.0
H449 H 0.77527 0.90316 0.53177 0.0
H450 H 0.77504 0.87653 0.5098 0.0
H451 H 0.80031 0.90015 0.55078 0.0
H452 H 0.78918 0.82219 0.48171 0.0
H453 H 0.85303 0.88064 0.55823 0.0
H454 H 0.78095 0.85307 0.33089 0.0
H455 H 0.76379 0.84875 0.41088 0.0
H456 H 0.76887 0.82588 0.38022 0.0
H457 H 0.85755 0.92153 0.4255 0.0
H458 H 0.86758 0.9183 0.51363 0.0
H459 H 0.84354 0.92363 0.50611 0.0
C460 C 0.17162 0.96667 0.47947 0.0
C461 C 0.16237 0.97642 0.52769 0.0
C462 C 0.15699 0.94832 0.43255 0.0
C463 C 0.13261 0.93944 0.43464 0.0
C464 C 0.12347 0.95041 0.47913 0.0
C465 C 0.13845 0.96884 0.5245 0.0
C466 C 0.16747 0.93749 0.38442 0.0
C467 C 0.09759 0.94155 0.48315 0.0
C468 C 0.08733 0.89692 0.30261 0.0
C469 C 0.07786 0.87609 0.34262 0.0
C470 C 0.10658 0.91743 0.32888 0.0
C471 C 0.11619 0.91721 0.39752 0.0
C472 C 0.10763 0.89591 0.43587 0.0
C473 C 0.08872 0.87557 0.40757 0.0
C474 C 0.11566 0.93961 0.28525 0.0
C475 C 0.11723 0.89491 0.50959 0.0
H476 H 0.19007 0.97242 0.48118 0.0
H477 H 0.13113 0.97645 0.56065 0.0
H478 H 0.16418 0.92078 0.40873 0.0
H479 H 0.1593 0.93357 0.32963 0.0
H480 H 0.18659 0.94899 0.37826 0.0
H481 H 0.09347 0.953 0.51663 0.0
H482 H 0.09032 0.94019 0.42778 0.0
H483 H 0.08861 0.92384 0.50741 0.0
H484 H 0.07925 0.89738 0.25173 0.0
H485 H 0.08156 0.85956 0.43878 0.0
H486 H 0.13499 0.94958 0.2858 0.0
H487 H 0.10946 0.95079 0.31004 0.0
H488 H 0.10958 0.93607 0.22781 0.0
H489 H 0.1365 0.90347 0.50755 0.0
H490 H 0.11015 0.87674 0.52919 0.0
H491 H 0.11273 0.9045 0.54998 0.0
C492 C 0.21308 0.04482 0.02245 0.0
C493 C 0.19326 0.03423 0.97765 0.0
C494 C 0.21705 0.06335 0.06898 0.0
C495 C 0.20096 0.07152 0.06991 0.0
C496 C 0.1801 0.05965 0.02918 0.0
C497 C 0.17643 0.04108 0.98418 0.0
C498 C 0.23919 0.07512 0.11322 0.0
C499 C 0.16241 0.06771 0.02849 0.0
C500 C 0.199 0.11456 0.20149 0.0
C501 C 0.20911 0.13496 0.15929 0.0
C502 C 0.19804 0.09411 0.17592 0.0
C503 C 0.20682 0.09394 0.10575 0.0
C504 C 0.21832 0.11488 0.06497 0.0
C505 C 0.21955 0.1352 0.09263 0.0
C506 C 0.18636 0.07238 0.22213 0.0
C507 C 0.22772 0.11544 0.98954 0.0
H508 H 0.22616 0.03963 0.01812 0.0
H509 H 0.16087 0.03277 0.95076 0.0
H510 H 0.25188 0.09166 0.08628 0.0
H511 H 0.23578 0.0795 0.16855 0.0
H512 H 0.2473 0.06403 0.11836 0.0
H513 H 0.14639 0.05563 0.99785 0.0
H514 H 0.15739 0.06933 0.08488 0.0
H515 H 0.1702 0.08519 0.00284 0.0
H516 H 0.19122 0.11436 0.25365 0.0
H517 H 0.2274 0.15089 0.05976 0.0
H518 H 0.19615 0.06285 0.21981 0.0
H519 H 0.16859 0.06057 0.20089 0.0
H520 H 0.18484 0.07643 0.27994 0.0
H521 H 0.23897 0.10747 0.9899 0.0
H522 H 0.23795 0.13345 0.96775 0.0
H523 H 0.21301 0.10507 0.95179 0.0
C524 C 0.87605 0.08956 0.09377 0.0
C525 C 0.87655 0.07921 0.15986 0.0
C526 C 0.89631 0.10858 0.06543 0.0
C527 C 0.91747 0.11781 0.10493 0.0
C528 C 0.91758 0.10874 0.17468 0.0
C529 C 0.89719 0.08933 0.20093 0.0
C530 C 0.89543 0.11754 0.99049 0.0
C531 C 0.93956 0.11856 0.21959 0.0
C532 C 0.96983 0.1398 0.98099 0.0
C533 C 0.9771 0.1636 0.97529 0.0
C534 C 0.95124 0.12499 0.02617 0.0
C535 C 0.93978 0.1342 0.06801 0.0
C536 C 0.94832 0.15853 0.06767 0.0
C537 C 0.96684 0.17298 0.02091 0.0
C538 C 0.94278 0.09916 0.02473 0.0
C539 C 0.93698 0.16911 0.11304 0.0
H540 H 0.86019 0.08185 0.06174 0.0
H541 H 0.8976 0.08163 0.25264 0.0
H542 H 0.90369 0.13679 0.99101 0.0
H543 H 0.90537 0.11298 0.95164 0.0
H544 H 0.87731 0.11003 0.96996 0.0
H545 H 0.93581 0.11293 0.27742 0.0
H546 H 0.95113 0.11247 0.19703 0.0
H547 H 0.94923 0.13788 0.2175 0.0
H548 H 0.97784 0.13239 0.94691 0.0
H549 H 0.97234 0.19135 0.01722 0.0
H550 H 0.92513 0.08973 1.00008 0.0
H551 H 0.94138 0.09242 0.08089 0.0
H552 H 0.95449 0.09501 0.99284 0.0
H553 H 0.92038 0.16547 0.08706 0.0
H554 H 0.94829 0.18829 0.11815 0.0
H555 H 0.93278 0.16131 0.16836 0.0
C556 C 0.87272 0.83513 0.98045 0.0
C557 C 0.84881 0.81882 0.97603 0.0
C558 C 0.88753 0.83139 0.02565 0.0
C559 C 0.87823 0.81101 0.06892 0.0
C560 C 0.85384 0.79547 0.06982 0.0
C561 C 0.83938 0.79948 0.02292 0.0
C562 C 0.91343 0.84845 0.02279 0.0
C563 C 0.84319 0.77389 0.11676 0.0
C564 C 0.92247 0.79148 0.09595 0.0
C565 C 0.93314 0.80278 0.1612 0.0
C566 C 0.90343 0.79269 0.06764 0.0
C567 C 0.89455 0.80509 0.10627 0.0
C568 C 0.90394 0.81475 0.17528 0.0
C569 C 0.92333 0.81374 0.20155 0.0
C570 C 0.89408 0.78229 0.99353 0.0
C571 C 0.89451 0.82746 0.21925 0.0
H572 H 0.88018 0.85033 0.9454 0.0
H573 H 0.82095 0.7868 0.02026 0.0
H574 H 0.92044 0.85418 0.0785 0.0
H575 H 0.92254 0.83981 0.99879 0.0
H576 H 0.91769 0.86411 0.98966 0.0
H577 H 0.82406 0.76633 0.12265 0.0
H578 H 0.84643 0.76056 0.09158 0.0
H579 H 0.85124 0.77779 0.17172 0.0
H580 H 0.9299 0.78294 0.0645 0.0
H581 H 0.93125 0.82218 0.25268 0.0
H582 H 0.89866 0.7965 0.95351 0.0
H583 H 0.87481 0.77151 0.99495 0.0
H584 H 0.90129 0.77132 0.9739 0.0
H585 H 0.90065 0.84494 0.19524 0.0
H586 H 0.9004 0.82978 0.27688 0.0
H587 H 0.87518 0.81794 0.21803 0.0
C588 C 0.87581 0.79222 0.59485 0.0
C589 C 0.87626 0.80313 0.66076 0.0
C590 C 0.89609 0.79346 0.56675 0.0
C591 C 0.91723 0.80547 0.60631 0.0
C592 C 0.91731 0.81473 0.67588 0.0
C593 C 0.89688 0.81372 0.7019 0.0
C594 C 0.89525 0.78352 0.49201 0.0
C595 C 0.93928 0.82699 0.72081 0.0
C596 C 0.96653 0.79941 0.52328 0.0
C597 C 0.97677 0.81892 0.4771 0.0
C598 C 0.94805 0.79549 0.56995 0.0
C599 C 0.93955 0.81131 0.56967 0.0
C600 C 0.95102 0.83188 0.52736 0.0
C601 C 0.96957 0.83551 0.48223 0.0
C602 C 0.93668 0.77368 0.61581 0.0
C603 C 0.94261 0.84928 0.52534 0.0
H604 H 0.85995 0.784 0.56277 0.0
H605 H 0.89726 0.82188 0.75348 0.0
H606 H 0.90523 0.79797 0.45302 0.0
H607 H 0.9035 0.77252 0.49292 0.0
H608 H 0.87714 0.7729 0.47139 0.0
H609 H 0.9355 0.82897 0.77854 0.0
H610 H 0.94896 0.81735 0.71913 0.0
H611 H 0.95084 0.8446 0.69798 0.0
H612 H 0.97199 0.78651 0.52005 0.0
H613 H 0.97758 0.85083 0.44771 0.0
H614 H 0.92007 0.76068 0.58998 0.0
H615 H 0.9325 0.77741 0.67096 0.0
H616 H 0.94796 0.76578 0.62131 0.0
H617 H 0.92499 0.84106 0.50046 0.0
H618 H 0.95438 0.86511 0.49336 0.0
H619 H 0.94115 0.8547 0.58134 0.0
C620 C 0.19762 0.08763 0.70172 0.0
C621 C 0.20847 0.0777 0.66139 0.0
C622 C 0.19666 0.10704 0.67525 0.0
C623 C 0.20622 0.1163 0.60599 0.0
C624 C 0.21843 0.10723 0.56723 0.0
C625 C 0.21962 0.08822 0.59579 0.0
C626 C 0.18417 0.11667 0.71939 0.0
C627 C 0.22868 0.11639 0.49281 0.0
C628 C 0.17665 0.13868 0.48017 0.0
C629 C 0.19324 0.1625 0.47538 0.0
C630 C 0.18013 0.12373 0.52563 0.0
C631 C 0.20053 0.13281 0.56874 0.0
C632 C 0.21634 0.15714 0.56927 0.0
C633 C 0.21259 0.17173 0.52218 0.0
C634 C 0.16276 0.09791 0.52318 0.0
C635 C 0.23796 0.16757 0.616 0.0
H636 H 0.18925 0.07981 0.75305 0.0
H637 H 0.22805 0.08067 0.56429 0.0
H638 H 0.19379 0.136 0.71784 0.0
H639 H 0.16665 0.1106 0.69577 0.0
H640 H 0.18195 0.11087 0.7771 0.0
H641 H 0.2394 0.10894 0.47281 0.0
H642 H 0.2144 0.11196 0.45321 0.0
H643 H 0.23968 0.13564 0.49392 0.0
H644 H 0.16144 0.13137 0.44518 0.0
H645 H 0.22548 0.1901 0.51925 0.0
H646 H 0.15709 0.09099 0.57901 0.0
H647 H 0.17112 0.08855 0.49894 0.0
H648 H 0.14708 0.09386 0.49042 0.0
H649 H 0.23397 0.15965 0.67116 0.0
H650 H 0.24585 0.18675 0.62139 0.0
H651 H 0.25106 0.16394 0.59099 0.0
C652 C 0.87267 0.04268 0.48155 0.0
C653 C 0.84894 0.03571 0.47574 0.0
C654 C 0.88761 0.06115 0.52682 0.0
C655 C 0.87859 0.07279 0.56865 0.0
C656 C 0.85431 0.06453 0.5683 0.0
C657 C 0.83973 0.04612 0.52143 0.0
C658 C 0.91338 0.06933 0.52537 0.0
C659 C 0.84394 0.07606 0.61371 0.0
C660 C 0.92381 0.1153 0.70084 0.0
C661 C 0.93402 0.13589 0.65951 0.0
C662 C 0.90426 0.09496 0.67493 0.0
C663 C 0.89517 0.09508 0.60524 0.0
C664 C 0.90452 0.1162 0.56543 0.0
C665 C 0.92367 0.1364 0.59346 0.0
C666 C 0.8943 0.07303 0.72016 0.0
C667 C 0.89555 0.11708 0.49051 0.0
H668 H 0.87993 0.03452 0.44745 0.0
H669 H 0.82142 0.04083 0.51767 0.0
H670 H 0.92297 0.08695 0.50055 0.0
H671 H 0.92011 0.0707 0.58152 0.0
H672 H 0.91735 0.05747 0.49362 0.0
H673 H 0.82474 0.06489 0.61898 0.0
H674 H 0.85179 0.08023 0.66896 0.0
H675 H 0.84771 0.09269 0.58764 0.0
H676 H 0.93151 0.11488 0.75253 0.0
H677 H 0.93144 0.15223 0.56123 0.0
H678 H 0.90025 0.06133 0.69781 0.0
H679 H 0.87498 0.0635 0.71818 0.0
H680 H 0.89997 0.07684 0.77794 0.0
H681 H 0.89989 0.10694 0.4518 0.0
H682 H 0.90323 0.13518 0.46965 0.0
H683 H 0.87632 0.10903 0.49126 0.0
C684 C 0.80215 0.96745 0.97927 0.0
C685 C 0.82148 0.97767 0.02613 0.0
C686 C 0.79833 0.94892 0.93307 0.0
C687 C 0.81409 0.94035 0.93447 0.0
C688 C 0.83451 0.95179 0.97745 0.0
C689 C 0.83803 0.97038 0.02217 0.0
C690 C 0.77667 0.93756 0.88655 0.0
C691 C 0.85183 0.94329 0.98063 0.0
C692 C 0.79451 0.87647 0.9096 0.0
C693 C 0.80539 0.87679 0.84376 0.0
C694 C 0.79602 0.89687 0.93768 0.0
C695 C 0.80829 0.918 0.89819 0.0
C696 C 0.81764 0.918 0.82885 0.0
C697 C 0.81634 0.89745 0.80283 0.0
C698 C 0.78598 0.89612 0.01219 0.0
C699 C 0.83023 0.93998 0.78407 0.0
H700 H 0.78928 0.97297 0.98163 0.0
H701 H 0.85321 0.97836 0.05728 0.0
H702 H 0.78063 0.93353 0.8315 0.0
H703 H 0.76364 0.92087 0.9119 0.0
H704 H 0.7687 0.94877 0.88084 0.0
H705 H 0.86759 0.95509 0.01278 0.0
H706 H 0.84348 0.92573 0.00595 0.0
H707 H 0.85735 0.94168 0.92494 0.0
H708 H 0.78602 0.86058 0.94152 0.0
H709 H 0.82449 0.89773 0.75131 0.0
H710 H 0.77505 0.90445 0.01082 0.0
H711 H 0.80037 0.90607 0.05136 0.0
H712 H 0.77524 0.87803 0.0329 0.0
H713 H 0.82066 0.94975 0.78494 0.0
H714 H 0.83246 0.93623 0.72656 0.0
H715 H 0.84774 0.95146 0.80768 0.0
C716 C 0.11482 0.92309 0.80374 0.0
C717 C 0.13545 0.93305 0.84484 0.0
C718 C 0.09435 0.90373 0.82981 0.0
C719 C 0.09438 0.89454 0.89942 0.0
C720 C 0.11549 0.90369 0.93916 0.0
C721 C 0.13582 0.92266 0.91099 0.0
C722 C 0.07242 0.89401 0.7847 0.0
C723 C 0.11626 0.89461 0.01401 0.0
C724 C 0.04174 0.87172 0.02253 0.0
C725 C 0.03467 0.84794 0.0274 0.0
C726 C 0.06035 0.8868 0.97786 0.0
C727 C 0.07203 0.8779 0.9357 0.0
C728 C 0.06369 0.85361 0.93516 0.0
C729 C 0.04515 0.83888 0.9814 0.0
C730 C 0.06861 0.91258 0.98025 0.0
C731 C 0.07528 0.84336 0.88944 0.0
H732 H 0.11451 0.93083 0.752 0.0
H733 H 0.15168 0.93025 0.94306 0.0
H734 H 0.06285 0.87468 0.78594 0.0
H735 H 0.06074 0.89989 0.80776 0.0
H736 H 0.0762 0.89991 0.72711 0.0
H737 H 0.13434 0.90221 0.03501 0.0
H738 H 0.10611 0.89894 0.05272 0.0
H739 H 0.10815 0.87537 0.01303 0.0
H740 H 0.03356 0.87889 0.05692 0.0
H741 H 0.0398 0.82055 0.98444 0.0
H742 H 0.07017 0.91955 0.92434 0.0
H743 H 0.08616 0.92201 0.00556 0.0
H744 H 0.0567 0.91648 0.01201 0.0
H745 H 0.07942 0.8513 0.8343 0.0
H746 H 0.06417 0.82417 0.8839 0.0
H747 H 0.09193 0.84715 0.91537 0.0
C748 C 0.08913 0.21786 0.90911 0.0
C749 C 0.07859 0.2069 0.84336 0.0
C750 C 0.10807 0.21646 0.93735 0.0
C751 C 0.11701 0.20422 0.89811 0.0
C752 C 0.10767 0.19477 0.82885 0.0
C753 C 0.08836 0.19596 0.80269 0.0
C754 C 0.11733 0.22658 0.0118 0.0
C755 C 0.11714 0.18222 0.78429 0.0
C756 C 0.17268 0.2105 0.97939 0.0
C757 C 0.16361 0.19113 0.0261 0.0
C758 C 0.15793 0.2143 0.93323 0.0
C759 C 0.13361 0.19851 0.9346 0.0
C760 C 0.12467 0.17809 0.97756 0.0
C761 C 0.13977 0.17456 0.02212 0.0
C762 C 0.16821 0.23595 0.88666 0.0
C763 C 0.09885 0.16074 0.98082 0.0
H764 H 0.08169 0.22635 0.94084 0.0
H765 H 0.0805 0.18774 0.75125 0.0
H766 H 0.11294 0.21223 0.05112 0.0
H767 H 0.13658 0.23756 0.01042 0.0
H768 H 0.10992 0.23727 0.03233 0.0
H769 H 0.11113 0.17989 0.72679 0.0
H770 H 0.13648 0.19187 0.78508 0.0
H771 H 0.1112 0.16476 0.80813 0.0
H772 H 0.19107 0.22338 0.98171 0.0
H773 H 0.13258 0.15934 0.05708 0.0
H774 H 0.16453 0.24897 0.912 0.0
H775 H 0.16019 0.23198 0.83164 0.0
H776 H 0.18739 0.24394 0.88087 0.0
H777 H 0.0896 0.16909 0.00587 0.0
H778 H 0.0949 0.14503 0.01323 0.0
H779 H 0.09172 0.15513 0.92517 0.0
C780 C 0.78084 0.52812 0.63374 0.0
C781 C 0.80164 0.53943 0.67387 0.0
C782 C 0.76035 0.52699 0.65978 0.0
C783 C 0.76057 0.53684 0.7284 0.0
C784 C 0.78185 0.54952 0.76684 0.0
C785 C 0.80217 0.55087 0.73869 0.0
C786 C 0.73821 0.514 0.61598 0.0
C787 C 0.78284 0.56011 0.84059 0.0
C788 C 0.71118 0.54283 0.81103 0.0
C789 C 0.70142 0.52377 0.85905 0.0
C790 C 0.72949 0.54655 0.76385 0.0
C791 C 0.73832 0.53101 0.76553 0.0
C792 C 0.72732 0.51084 0.80979 0.0
C793 C 0.70892 0.50739 0.85536 0.0
C794 C 0.74032 0.5679 0.71588 0.0
C795 C 0.73613 0.49377 0.81343 0.0
H796 H 0.78038 0.51954 0.58297 0.0
H797 H 0.81817 0.55965 0.76999 0.0
H798 H 0.72699 0.49656 0.64043 0.0
H799 H 0.72826 0.52337 0.61673 0.0
H800 H 0.7418 0.51157 0.55848 0.0
H801 H 0.80101 0.57114 0.86029 0.0
H802 H 0.77434 0.57087 0.83854 0.0
H803 H 0.77318 0.546 0.88091 0.0
H804 H 0.70548 0.55556 0.81313 0.0
H805 H 0.70129 0.4924 0.89131 0.0
H806 H 0.74429 0.56371 0.66107 0.0
H807 H 0.75699 0.58132 0.74033 0.0
H808 H 0.72878 0.57548 0.70975 0.0
H809 H 0.73742 0.48789 0.75796 0.0
H810 H 0.72469 0.4782 0.8469 0.0
H811 H 0.75387 0.50246 0.8375 0.0
C812 C 0.46919 0.17384 0.81155 0.0
C813 C 0.48822 0.18321 0.85962 0.0
C814 C 0.46539 0.18837 0.76441 0.0
C815 C 0.48085 0.21276 0.76618 0.0
C816 C 0.50101 0.22201 0.81045 0.0
C817 C 0.50453 0.20712 0.85599 0.0
C818 C 0.44405 0.17779 0.71642 0.0
C819 C 0.51799 0.2479 0.81416 0.0
C820 C 0.4835 0.25805 0.63451 0.0
C821 C 0.47217 0.26749 0.67475 0.0
C822 C 0.48474 0.23876 0.66051 0.0
C823 C 0.47492 0.2291 0.72914 0.0
C824 C 0.46219 0.23763 0.76768 0.0
C825 C 0.46077 0.25657 0.73963 0.0
C826 C 0.49781 0.22971 0.61666 0.0
C827 C 0.45161 0.22798 0.84141 0.0
H828 H 0.45651 0.15539 0.8136 0.0
H829 H 0.51951 0.21452 0.89198 0.0
H830 H 0.43057 0.18094 0.74092 0.0
H831 H 0.44822 0.18598 0.66164 0.0
H832 H 0.43656 0.15868 0.71022 0.0
H833 H 0.53358 0.2521 0.84756 0.0
H834 H 0.52384 0.25512 0.75871 0.0
H835 H 0.50922 0.25687 0.83835 0.0
H836 H 0.49204 0.26618 0.58367 0.0
H837 H 0.45194 0.26372 0.77098 0.0
H838 H 0.4885 0.21038 0.61736 0.0
H839 H 0.51525 0.23598 0.64114 0.0
H840 H 0.50024 0.23575 0.55918 0.0
H841 H 0.44093 0.20871 0.83932 0.0
H842 H 0.44049 0.23502 0.86112 0.0
H843 H 0.46572 0.23249 0.88173 0.0
C844 C 0.83853 0.30025 0.81126 0.0
C845 C 0.82915 0.30992 0.8593 0.0
C846 C 0.82401 0.28186 0.76433 0.0
C847 C 0.79961 0.27285 0.76622 0.0
C848 C 0.79033 0.28373 0.81055 0.0
C849 C 0.80521 0.30221 0.85593 0.0
C850 C 0.83462 0.27113 0.71636 0.0
C851 C 0.76442 0.27474 0.81435 0.0
C852 C 0.75443 0.23038 0.63401 0.0
C853 C 0.74495 0.20955 0.67399 0.0
C854 C 0.7737 0.25087 0.66026 0.0
C855 C 0.7833 0.25062 0.7289 0.0
C856 C 0.77475 0.2293 0.76714 0.0
C857 C 0.75583 0.20897 0.73881 0.0
C858 C 0.78278 0.27305 0.61671 0.0
C859 C 0.78434 0.22827 0.84086 0.0
H860 H 0.857 0.30611 0.81313 0.0
H861 H 0.79778 0.30976 0.89194 0.0
H862 H 0.83143 0.25447 0.74075 0.0
H863 H 0.82649 0.26715 0.66152 0.0
H864 H 0.85374 0.28273 0.71029 0.0
H865 H 0.76018 0.28608 0.84792 0.0
H866 H 0.7572 0.27341 0.75893 0.0
H867 H 0.75549 0.25699 0.83838 0.0
H868 H 0.74631 0.23086 0.58323 0.0
H869 H 0.74863 0.19295 0.76998 0.0
H870 H 0.80211 0.28307 0.61748 0.0
H871 H 0.7765 0.28419 0.6414 0.0
H872 H 0.77677 0.26952 0.5592 0.0
H873 H 0.80361 0.23693 0.83897 0.0
H874 H 0.77733 0.21009 0.86025 0.0
H875 H 0.77973 0.23776 0.88133 0.0
C876 C 0.86432 0.44694 0.53487 0.0
C877 C 0.87492 0.46755 0.4937 0.0
C878 C 0.86339 0.42653 0.509 0.0
C879 C 0.87267 0.42661 0.43945 0.0
C880 C 0.88464 0.44774 0.3998 0.0
C881 C 0.88585 0.46801 0.42782 0.0
C882 C 0.85121 0.40459 0.5541 0.0
C883 C 0.89457 0.44858 0.32502 0.0
C884 C 0.87887 0.37746 0.35585 0.0
C885 C 0.85932 0.36718 0.3099 0.0
C886 C 0.88275 0.39588 0.40276 0.0
C887 C 0.86686 0.40429 0.40285 0.0
C888 C 0.84624 0.39277 0.36078 0.0
C889 C 0.84265 0.37427 0.31552 0.0
C890 C 0.90458 0.40726 0.44848 0.0
C891 C 0.82878 0.40111 0.35904 0.0
H892 H 0.85614 0.44656 0.58643 0.0
H893 H 0.89406 0.48387 0.39572 0.0
H894 H 0.83357 0.393 0.5315 0.0
H895 H 0.86088 0.39494 0.55232 0.0
H896 H 0.84929 0.40839 0.61183 0.0
H897 H 0.9051 0.46668 0.30421 0.0
H898 H 0.90566 0.44043 0.32598 0.0
H899 H 0.88012 0.4385 0.28615 0.0
H900 H 0.89183 0.37208 0.35228 0.0
H901 H 0.82727 0.36622 0.28122 0.0
H902 H 0.90088 0.41148 0.50362 0.0
H903 H 0.91758 0.42385 0.4225 0.0
H904 H 0.91247 0.39597 0.454 0.0
H905 H 0.82336 0.40249 0.41511 0.0
H906 H 0.81296 0.38933 0.32709 0.0
H907 H 0.83695 0.41874 0.3343 0.0
C908 C 0.54324 0.42317 0.42985 0.0
C909 C 0.54367 0.41254 0.4954 0.0
C910 C 0.56359 0.4421 0.40161 0.0
C911 C 0.5848 0.45092 0.44068 0.0
C912 C 0.58487 0.44161 0.51001 0.0
C913 C 0.56436 0.42231 0.53617 0.0
C914 C 0.56275 0.45136 0.32714 0.0
C915 C 0.60691 0.451 0.55447 0.0
C916 C 0.63673 0.47238 0.31524 0.0
C917 C 0.64433 0.49626 0.31019 0.0
C918 C 0.61819 0.45769 0.36076 0.0
C919 C 0.60713 0.46712 0.40356 0.0
C920 C 0.61604 0.49151 0.40389 0.0
C921 C 0.6345 0.50584 0.35681 0.0
C922 C 0.60933 0.43179 0.35864 0.0
C923 C 0.60513 0.50231 0.45025 0.0
H924 H 0.52733 0.41575 0.39806 0.0
H925 H 0.56473 0.4144 0.5875 0.0
H926 H 0.5713 0.47063 0.3282 0.0
H927 H 0.57242 0.44667 0.28765 0.0
H928 H 0.54462 0.44418 0.30706 0.0
H929 H 0.60318 0.44527 0.61222 0.0
H930 H 0.61819 0.44467 0.53127 0.0
H931 H 0.61686 0.47033 0.55275 0.0
H932 H 0.64442 0.46483 0.28035 0.0
H933 H 0.64026 0.52427 0.35359 0.0
H934 H 0.59163 0.42265 0.33429 0.0
H935 H 0.60793 0.42489 0.41458 0.0
H936 H 0.6208 0.42745 0.32615 0.0
H937 H 0.58858 0.49906 0.4248 0.0
H938 H 0.61673 0.52144 0.45577 0.0
H939 H 0.60091 0.49437 0.50538 0.0
C940 C 0.59008 0.148 0.5355 0.0
C941 C 0.59979 0.1371 0.4944 0.0
C942 C 0.57073 0.14919 0.50977 0.0
C943 C 0.56134 0.13982 0.4405 0.0
C944 C 0.57015 0.1275 0.40105 0.0
C945 C 0.5891 0.12607 0.4289 0.0
C946 C 0.56134 0.16176 0.55465 0.0
C947 C 0.56081 0.11743 0.32659 0.0
C948 C 0.50628 0.13441 0.3574 0.0
C949 C 0.51576 0.15382 0.3108 0.0
C950 C 0.52068 0.13035 0.40434 0.0
C951 C 0.54505 0.14592 0.40385 0.0
C952 C 0.55438 0.16643 0.36117 0.0
C953 C 0.53962 0.17021 0.31581 0.0
C954 C 0.50998 0.10863 0.45065 0.0
C955 C 0.58027 0.18355 0.35888 0.0
H956 H 0.59804 0.15626 0.5868 0.0
H957 H 0.5965 0.1176 0.39688 0.0
H958 H 0.56764 0.1794 0.53166 0.0
H959 H 0.54202 0.15236 0.55313 0.0
H960 H 0.56713 0.16372 0.61232 0.0
H961 H 0.56804 0.10657 0.30609 0.0
H962 H 0.54154 0.10664 0.32793 0.0
H963 H 0.56538 0.13182 0.28729 0.0
H964 H 0.48786 0.12167 0.35423 0.0
H965 H 0.5471 0.18546 0.28097 0.0
H966 H 0.51799 0.11236 0.50568 0.0
H967 H 0.51325 0.09538 0.425 0.0
H968 H 0.49085 0.10105 0.45643 0.0
H969 H 0.5872 0.18902 0.41479 0.0
H970 H 0.58452 0.19937 0.32656 0.0
H971 H 0.58944 0.17507 0.33424 0.0
C972 C 0.56448 0.14872 0.03585 0.0
C973 C 0.54374 0.13768 0.99534 0.0
C974 C 0.58494 0.1498 0.0098 0.0
C975 C 0.58477 0.14018 0.94081 0.0
C976 C 0.56352 0.12772 0.902 0.0
C977 C 0.54322 0.1264 0.93016 0.0
C978 C 0.60702 0.16254 0.05398 0.0
C979 C 0.56258 0.11737 0.82787 0.0
C980 C 0.63649 0.17001 0.8144 0.0
C981 C 0.64394 0.15359 0.80986 0.0
C982 C 0.6181 0.16643 0.86015 0.0
C983 C 0.60703 0.14611 0.90368 0.0
C984 C 0.61581 0.13052 0.90454 0.0
C985 C 0.63413 0.13437 0.85723 0.0
C986 C 0.60936 0.18357 0.85743 0.0
C987 C 0.6049 0.10899 0.95171 0.0
H988 H 0.56491 0.15715 0.08691 0.0
H989 H 0.52727 0.11782 0.89858 0.0
H990 H 0.61695 0.15314 0.05263 0.0
H991 H 0.61831 0.18009 0.03029 0.0
H992 H 0.60336 0.16472 0.11164 0.0
H993 H 0.54443 0.10643 0.80794 0.0
H994 H 0.57229 0.13161 0.78799 0.0
H995 H 0.57105 0.10658 0.82941 0.0
H996 H 0.64418 0.18512 0.77895 0.0
H997 H 0.63978 0.12161 0.85444 0.0
H998 H 0.60805 0.18925 0.91317 0.0
H999 H 0.59163 0.17501 0.83324 0.0
H1000 H 0.62085 0.19926 0.82449 0.0
H1001 H 0.60086 0.11297 0.00673 0.0
H1002 H 0.61642 0.10137 0.95743 0.0
H1003 H 0.58826 0.09567 0.92683 0.0
C1004 C 0.8858 0.42182 0.93003 0.0
C1005 C 0.87457 0.41104 0.99525 0.0
C1006 C 0.88437 0.44075 0.90192 0.0
C1007 C 0.87183 0.44943 0.94077 0.0
C1008 C 0.86224 0.43995 0.0098 0.0
C1009 C 0.86346 0.42065 0.03584 0.0
C1010 C 0.89469 0.45019 0.82777 0.0
C1011 C 0.84941 0.44918 0.05402 0.0
C1012 C 0.87732 0.50445 0.85717 0.0
C1013 C 0.85811 0.49494 0.80978 0.0
C1014 C 0.88126 0.49006 0.90451 0.0
C1015 C 0.86577 0.46567 0.90366 0.0
C1016 C 0.84545 0.45631 0.86013 0.0
C1017 C 0.84178 0.47106 0.81434 0.0
C1018 C 0.90278 0.50078 0.95169 0.0
C1019 C 0.82842 0.43041 0.85745 0.0
H1020 H 0.89444 0.41453 0.89839 0.0
H1021 H 0.85506 0.41262 0.08693 0.0
H1022 H 0.88044 0.44558 0.78791 0.0
H1023 H 0.90539 0.46946 0.8293 0.0
H1024 H 0.90572 0.44308 0.80783 0.0
H1025 H 0.84728 0.44336 0.1117 0.0
H1026 H 0.8587 0.4685 0.05258 0.0
H1027 H 0.83183 0.44279 0.03042 0.0
H1028 H 0.89 0.52289 0.85438 0.0
H1029 H 0.82668 0.46355 0.77888 0.0
H1030 H 0.91617 0.49757 0.9268 0.0
H1031 H 0.89883 0.49276 0.0067 0.0
H1032 H 0.91029 0.51991 0.95743 0.0
H1033 H 0.83705 0.42132 0.83323 0.0
H1034 H 0.8127 0.42612 0.82455 0.0
H1035 H 0.82276 0.4234 0.91321 0.0
C1036 C 0.59031 0.44786 0.03572 0.0
C1037 C 0.60023 0.46852 0.99479 0.0
C1038 C 0.57083 0.42747 0.00985 0.0
C1039 C 0.56152 0.42761 0.94058 0.0
C1040 C 0.57055 0.4488 0.90129 0.0
C1041 C 0.58962 0.46905 0.92929 0.0
C1042 C 0.56121 0.40546 0.05458 0.0
C1043 C 0.56131 0.44971 0.82684 0.0
C1044 C 0.53944 0.37559 0.81546 0.0
C1045 C 0.51564 0.36836 0.81019 0.0
C1046 C 0.55429 0.39403 0.86101 0.0
C1047 C 0.5451 0.40533 0.90371 0.0
C1048 C 0.52076 0.39676 0.90393 0.0
C1049 C 0.50628 0.37841 0.85674 0.0
C1050 C 0.58012 0.40254 0.85894 0.0
C1051 C 0.51021 0.40791 0.95029 0.0
H1052 H 0.59821 0.44744 0.08702 0.0
H1053 H 0.59717 0.48494 0.89739 0.0
H1054 H 0.54188 0.3957 0.05293 0.0
H1055 H 0.56734 0.39399 0.03157 0.0
H1056 H 0.56696 0.4092 0.1123 0.0
H1057 H 0.56873 0.46784 0.80646 0.0
H1058 H 0.56574 0.4398 0.78746 0.0
H1059 H 0.54206 0.44143 0.8281 0.0
H1060 H 0.54683 0.36771 0.7807 0.0
H1061 H 0.48791 0.37291 0.85344 0.0
H1062 H 0.58698 0.40385 0.91489 0.0
H1063 H 0.58948 0.42023 0.83455 0.0
H1064 H 0.58425 0.39091 0.82649 0.0
H1065 H 0.51821 0.41211 0.00534 0.0
H1066 H 0.49106 0.39648 0.95603 0.0
H1067 H 0.51361 0.42449 0.92469 0.0
C1068 C 0.48268 0.23126 0.1347 0.0
C1069 C 0.47143 0.2105 0.17505 0.0
C1070 C 0.48401 0.25181 0.16087 0.0
C1071 C 0.47439 0.2517 0.22983 0.0
C1072 C 0.46174 0.23046 0.26854 0.0
C1073 C 0.46021 0.21006 0.24027 0.0
C1074 C 0.49696 0.27391 0.11681 0.0
C1075 C 0.4514 0.22958 0.34262 0.0
C1076 C 0.5044 0.30363 0.35554 0.0
C1077 C 0.48813 0.31128 0.35936 0.0
C1078 C 0.50069 0.28505 0.31043 0.0
C1079 C 0.48039 0.27402 0.2668 0.0
C1080 C 0.46494 0.28296 0.26528 0.0
C1081 C 0.46892 0.30145 0.31195 0.0
C1082 C 0.51767 0.27614 0.31383 0.0
C1083 C 0.44343 0.27207 0.21803 0.0
H1084 H 0.4911 0.23163 0.08364 0.0
H1085 H 0.45148 0.1941 0.27174 0.0
H1086 H 0.48762 0.28389 0.1177 0.0
H1087 H 0.51444 0.28513 0.141 0.0
H1088 H 0.4993 0.27026 0.05928 0.0
H1089 H 0.44034 0.21145 0.36254 0.0
H1090 H 0.46564 0.23921 0.38254 0.0
H1091 H 0.44072 0.23818 0.341 0.0
H1092 H 0.51948 0.31129 0.39107 0.0
H1093 H 0.45626 0.30725 0.31417 0.0
H1094 H 0.52338 0.27468 0.25826 0.0
H1095 H 0.50897 0.25845 0.33832 0.0
H1096 H 0.53336 0.28759 0.34682 0.0
H1097 H 0.44744 0.268 0.16309 0.0
H1098 H 0.43585 0.28361 0.21211 0.0
H1099 H 0.43008 0.25545 0.24293 0.0
C1100 C 0.80246 0.25554 0.24096 0.0
C1101 C 0.8021 0.26611 0.1752 0.0
C1102 C 0.78206 0.23665 0.26912 0.0
C1103 C 0.76091 0.22781 0.22979 0.0
C1104 C 0.7609 0.23711 0.16038 0.0
C1105 C 0.78145 0.25636 0.13428 0.0
C1106 C 0.78282 0.2274 0.34369 0.0
C1107 C 0.7389 0.22773 0.11572 0.0
C1108 C 0.71117 0.17269 0.31236 0.0
C1109 C 0.70119 0.18212 0.35893 0.0
C1110 C 0.72972 0.18714 0.26577 0.0
C1111 C 0.73854 0.21151 0.26651 0.0
C1112 C 0.72734 0.22081 0.30922 0.0
C1113 C 0.70872 0.206 0.35431 0.0
C1114 C 0.74081 0.1765 0.21955 0.0
C1115 C 0.73611 0.24669 0.3117 0.0
H1116 H 0.81834 0.26296 0.27285 0.0
H1117 H 0.78114 0.26424 0.08279 0.0
H1118 H 0.77305 0.23204 0.38296 0.0
H1119 H 0.77431 0.20812 0.3426 0.0
H1120 H 0.80093 0.23461 0.36407 0.0
H1121 H 0.74266 0.23356 0.05806 0.0
H1122 H 0.72902 0.2084 0.1171 0.0
H1123 H 0.72754 0.23394 0.13903 0.0
H1124 H 0.70546 0.15426 0.31528 0.0
H1125 H 0.70092 0.21344 0.38919 0.0
H1126 H 0.75741 0.17993 0.24505 0.0
H1127 H 0.74498 0.18443 0.16441 0.0
H1128 H 0.72936 0.15734 0.21406 0.0
H1129 H 0.75374 0.25583 0.33655 0.0
H1130 H 0.72451 0.25091 0.34393 0.0
H1131 H 0.73765 0.25369 0.25583 0.0
C1132 C 0.80548 0.50731 0.35514 0.0
C1133 C 0.82943 0.52351 0.35891 0.0
C1134 C 0.79066 0.51105 0.30992 0.0
C1135 C 0.79999 0.5313 0.26604 0.0
C1136 C 0.82441 0.54667 0.26446 0.0
C1137 C 0.83887 0.54268 0.31131 0.0
C1138 C 0.76474 0.49415 0.31346 0.0
C1139 C 0.83509 0.56811 0.21689 0.0
C1140 C 0.75487 0.52893 0.13411 0.0
C1141 C 0.74544 0.54028 0.17433 0.0
C1142 C 0.77412 0.52762 0.16019 0.0
C1143 C 0.78373 0.53735 0.22895 0.0
C1144 C 0.77521 0.55009 0.26749 0.0
C1145 C 0.75633 0.55161 0.2393 0.0
C1146 C 0.78317 0.51456 0.11628 0.0
C1147 C 0.78478 0.56055 0.34137 0.0
H1148 H 0.798 0.49224 0.39078 0.0
H1149 H 0.85734 0.55527 0.31348 0.0
H1150 H 0.75581 0.50295 0.33765 0.0
H1151 H 0.75756 0.48836 0.25795 0.0
H1152 H 0.76045 0.47851 0.34677 0.0
H1153 H 0.8542 0.57557 0.21079 0.0
H1154 H 0.82696 0.56408 0.16204 0.0
H1155 H 0.83197 0.58158 0.24166 0.0
H1156 H 0.74675 0.52043 0.08323 0.0
H1157 H 0.74917 0.56042 0.27066 0.0
H1158 H 0.77686 0.49709 0.14063 0.0
H1159 H 0.8025 0.52385 0.11709 0.0
H1160 H 0.77717 0.51219 0.05877 0.0
H1161 H 0.78017 0.54637 0.38154 0.0
H1162 H 0.77777 0.57168 0.3611 0.0
H1163 H 0.80405 0.57118 0.33951 0.0
C1164 C 0.37576 0.84167 0.1861 0.0
C1165 C 0.36871 0.85837 0.19115 0.0
C1166 C 0.39426 0.84515 0.14096 0.0
C1167 C 0.40583 0.8657 0.09859 0.0
C1168 C 0.39746 0.88162 0.09816 0.0
C1169 C 0.37903 0.87784 0.14482 0.0
C1170 C 0.40255 0.82765 0.14316 0.0
C1171 C 0.40893 0.90341 0.05219 0.0
C1172 C 0.46961 0.88478 0.07424 0.0
C1173 C 0.46927 0.87398 0.00823 0.0
C1174 C 0.44927 0.88346 0.10217 0.0
C1175 C 0.42819 0.87147 0.06232 0.0
C1176 C 0.4282 0.86225 0.99277 0.0
C1177 C 0.44868 0.86335 0.96692 0.0
C1178 C 0.45001 0.89334 0.17693 0.0
C1179 C 0.40629 0.85 0.94757 0.0
H1180 H 0.36769 0.82636 0.22071 0.0
H1181 H 0.37367 0.89082 0.14797 0.0
H1182 H 0.40408 0.82226 0.08721 0.0
H1183 H 0.42011 0.83578 0.16839 0.0
H1184 H 0.39066 0.81183 0.17493 0.0
H1185 H 0.39773 0.91138 0.04655 0.0
H1186 H 0.42556 0.91636 0.07802 0.0
H1187 H 0.41309 0.89961 0.99709 0.0
H1188 H 0.48543 0.89304 0.10646 0.0
H1189 H 0.44839 0.85527 0.91525 0.0
H1190 H 0.43988 0.87888 0.21572 0.0
H1191 H 0.44186 0.90443 0.1758 0.0
H1192 H 0.46808 0.90387 0.19795 0.0
H1193 H 0.39469 0.8324 0.97037 0.0
H1194 H 0.41013 0.84802 0.88992 0.0
H1195 H 0.39662 0.85966 0.94901 0.0
C1196 C 0.16997 0.54053 0.19066 0.0
C1197 C 0.15399 0.51651 0.19317 0.0
C1198 C 0.16636 0.55536 0.14502 0.0
C1199 C 0.14647 0.54596 0.09949 0.0
C1200 C 0.13133 0.52153 0.09694 0.0
C1201 C 0.13519 0.50705 0.14419 0.0
C1202 C 0.183 0.58131 0.14962 0.0
C1203 C 0.11027 0.51079 0.04775 0.0
C1204 C 0.126 0.58935 0.06958 0.0
C1205 C 0.13782 0.60042 0.00534 0.0
C1206 C 0.1274 0.57048 0.09839 0.0
C1207 C 0.14056 0.56216 0.06132 0.0
C1208 C 0.1508 0.57193 0.99319 0.0
C1209 C 0.14954 0.59113 0.96637 0.0
C1210 C 0.11633 0.5607 0.1715 0.0
C1211 C 0.16436 0.56312 0.95086 0.0
H1212 H 0.18475 0.54804 0.22742 0.0
H1213 H 0.12276 0.48852 0.14537 0.0
H1214 H 0.18922 0.58868 0.09452 0.0
H1215 H 0.17382 0.59 0.17275 0.0
H1216 H 0.19839 0.58567 0.18432 0.0
H1217 H 0.10296 0.49171 0.04163 0.0
H1218 H 0.09656 0.5138 0.07108 0.0
H1219 H 0.11471 0.519 0.99301 0.0
H1220 H 0.11687 0.59637 0.09998 0.0
H1221 H 0.15842 0.59935 0.91604 0.0
H1222 H 0.13018 0.56542 0.21298 0.0
H1223 H 0.10593 0.54142 0.16931 0.0
H1224 H 0.10485 0.56747 0.18977 0.0
H1225 H 0.18163 0.56949 0.97677 0.0
H1226 H 0.1672 0.56924 0.89343 0.0
H1227 H 0.1552 0.54379 0.95132 0.0
C1228 C 0.42119 0.56404 0.96908 0.0
C1229 C 0.4116 0.54321 0.00909 0.0
C1230 C 0.44053 0.58448 0.99535 0.0
C1231 C 0.45008 0.58419 0.06408 0.0
C1232 C 0.44136 0.56288 0.10246 0.0
C1233 C 0.42239 0.5426 0.07409 0.0
C1234 C 0.44979 0.60665 0.95164 0.0
C1235 C 0.45085 0.56182 0.17631 0.0
C1236 C 0.50557 0.63358 0.14626 0.0
C1237 C 0.49635 0.6435 0.19398 0.0
C1238 C 0.49091 0.61518 0.09948 0.0
C1239 C 0.46655 0.60641 0.10125 0.0
C1240 C 0.45745 0.61751 0.14531 0.0
C1241 C 0.47245 0.636 0.19045 0.0
C1242 C 0.50135 0.60423 0.05173 0.0
C1243 C 0.43158 0.60876 0.14905 0.0
H1244 H 0.41315 0.56455 0.91819 0.0
H1245 H 0.4151 0.52659 0.10531 0.0
H1246 H 0.44367 0.61794 0.97623 0.0
H1247 H 0.46912 0.61651 0.95234 0.0
H1248 H 0.44375 0.60313 0.89415 0.0
H1249 H 0.44365 0.54364 0.19596 0.0
H1250 H 0.47011 0.57028 0.17447 0.0
H1251 H 0.44639 0.57148 0.21656 0.0
H1252 H 0.524 0.63927 0.1482 0.0
H1253 H 0.46515 0.64373 0.22617 0.0
H1254 H 0.49322 0.60028 0.99687 0.0
H1255 H 0.49798 0.58753 0.07629 0.0
H1256 H 0.52049 0.61567 0.04566 0.0
H1257 H 0.42439 0.60747 0.09361 0.0
H1258 H 0.42749 0.62024 0.18248 0.0
H1259 H 0.4225 0.59103 0.1732 0.0
C1260 C 0.55196 0.80205 0.75898 0.0
C1261 C 0.54161 0.80181 0.82583 0.0
C1262 C 0.55068 0.78174 0.73109 0.0
C1263 C 0.53923 0.76078 0.77182 0.0
C1264 C 0.53047 0.76092 0.84205 0.0
C1265 C 0.53147 0.78137 0.86785 0.0
C1266 C 0.56005 0.78233 0.65557 0.0
C1267 C 0.51882 0.73917 0.88817 0.0
C1268 C 0.50921 0.70784 0.65026 0.0
C1269 C 0.52617 0.70115 0.64391 0.0
C1270 C 0.51271 0.72638 0.69519 0.0
C1271 C 0.53354 0.73838 0.73603 0.0
C1272 C 0.54977 0.73039 0.73524 0.0
C1273 C 0.54595 0.71189 0.68881 0.0
C1274 C 0.49488 0.73426 0.69431 0.0
C1275 C 0.57188 0.74232 0.77957 0.0
H1276 H 0.55982 0.81777 0.72621 0.0
H1277 H 0.52374 0.78116 0.92012 0.0
H1278 H 0.57139 0.77447 0.65584 0.0
H1279 H 0.54533 0.77187 0.61795 0.0
H1280 H 0.57016 0.80034 0.63369 0.0
H1281 H 0.51719 0.74317 0.94595 0.0
H1282 H 0.50109 0.72729 0.86672 0.0
H1283 H 0.5287 0.72973 0.88601 0.0
H1284 H 0.49367 0.69944 0.61675 0.0
H1285 H 0.55914 0.70683 0.68463 0.0
H1286 H 0.50256 0.7517 0.66844 0.0
H1287 H 0.48985 0.73591 0.75065 0.0
H1288 H 0.47889 0.72206 0.66377 0.0
H1289 H 0.58444 0.75895 0.75285 0.0
H1290 H 0.58019 0.7314 0.78452 0.0
H1291 H 0.56837 0.74654 0.83497 0.0
C1292 C 0.30086 0.83921 0.68708 0.0
C1293 C 0.31134 0.83005 0.64147 0.0
C1294 C 0.28231 0.82457 0.73342 0.0
C1295 C 0.27399 0.80028 0.73339 0.0
C1296 C 0.2857 0.79131 0.69176 0.0
C1297 C 0.30431 0.8063 0.64696 0.0
C1298 C 0.27068 0.83489 0.77859 0.0
C1299 C 0.27746 0.76553 0.68999 0.0
C1300 C 0.23101 0.75523 0.86516 0.0
C1301 C 0.21047 0.7452 0.82361 0.0
C1302 C 0.2515 0.7746 0.8393 0.0
C1303 C 0.25159 0.78371 0.76946 0.0
C1304 C 0.23055 0.7745 0.72929 0.0
C1305 C 0.21019 0.75552 0.75726 0.0
C1306 C 0.27335 0.78439 0.88485 0.0
C1307 C 0.2299 0.78351 0.65421 0.0
H1308 H 0.30618 0.85753 0.68357 0.0
H1309 H 0.31251 0.79907 0.61289 0.0
H1310 H 0.2541 0.83113 0.75225 0.0
H1311 H 0.26642 0.82701 0.83379 0.0
H1312 H 0.28183 0.85409 0.78402 0.0
H1313 H 0.28943 0.76159 0.65871 0.0
H1314 H 0.27584 0.75867 0.74609 0.0
H1315 H 0.25995 0.75604 0.66447 0.0
H1316 H 0.23124 0.74754 0.91707 0.0
H1317 H 0.1944 0.74787 0.72487 0.0
H1318 H 0.28295 0.80372 0.88321 0.0
H1319 H 0.28505 0.77844 0.86248 0.0
H1320 H 0.26945 0.77862 0.94253 0.0
H1321 H 0.23801 0.80274 0.65494 0.0
H1322 H 0.21186 0.77589 0.63288 0.0
H1323 H 0.24012 0.77914 0.61588 0.0
C1324 C 0.17256 0.46641 0.68902 0.0
C1325 C 0.1818 0.48583 0.64246 0.0
C1326 C 0.18715 0.46257 0.73583 0.0
C1327 C 0.21148 0.47836 0.7352 0.0
C1328 C 0.22058 0.49881 0.69233 0.0
C1329 C 0.20563 0.50238 0.6472 0.0
C1330 C 0.1767 0.44091 0.78236 0.0
C1331 C 0.24641 0.51614 0.68976 0.0
C1332 C 0.25676 0.48123 0.86747 0.0
C1333 C 0.26666 0.4704 0.82688 0.0
C1334 C 0.23731 0.48216 0.84136 0.0
C1335 C 0.22798 0.4726 0.77218 0.0
C1336 C 0.23702 0.46041 0.73316 0.0
C1337 C 0.25608 0.45923 0.7614 0.0
C1338 C 0.22769 0.4946 0.88579 0.0
C1339 C 0.22779 0.45018 0.65879 0.0
H1340 H 0.15418 0.45355 0.68613 0.0
H1341 H 0.21295 0.51765 0.61242 0.0
H1342 H 0.18021 0.42778 0.75695 0.0
H1343 H 0.1847 0.4448 0.8374 0.0
H1344 H 0.15754 0.43309 0.78809 0.0
H1345 H 0.25048 0.53183 0.65705 0.0
H1346 H 0.25335 0.52179 0.74558 0.0
H1347 H 0.25573 0.50776 0.66543 0.0
H1348 H 0.26465 0.48959 0.91873 0.0
H1349 H 0.26361 0.45082 0.72974 0.0
H1350 H 0.20836 0.48496 0.88447 0.0
H1351 H 0.23371 0.51212 0.86225 0.0
H1352 H 0.23356 0.49682 0.94343 0.0
H1353 H 0.20854 0.43919 0.66009 0.0
H1354 H 0.23523 0.43947 0.63859 0.0
H1355 H 0.23219 0.46448 0.61925 0.0
C1356 C 0.23053 0.48175 0.36824 0.0
C1357 C 0.20989 0.47092 0.32723 0.0
C1358 C 0.25102 0.48286 0.34236 0.0
C1359 C 0.25098 0.47347 0.27305 0.0
C1360 C 0.22983 0.46126 0.23363 0.0
C1361 C 0.2095 0.45992 0.26159 0.0
C1362 C 0.27299 0.49534 0.38717 0.0
C1363 C 0.22903 0.45118 0.15914 0.0
C1364 C 0.3031 0.5034 0.14817 0.0
C1365 C 0.31039 0.48686 0.14336 0.0
C1366 C 0.28463 0.49983 0.19356 0.0
C1367 C 0.27332 0.47937 0.23643 0.0
C1368 C 0.28192 0.46363 0.23704 0.0
C1369 C 0.30033 0.4675 0.19012 0.0
C1370 C 0.2761 0.51712 0.19115 0.0
C1371 C 0.27073 0.44195 0.2835 0.0
H1372 H 0.23086 0.48998 0.41963 0.0
H1373 H 0.19362 0.45151 0.22961 0.0
H1374 H 0.28281 0.48583 0.38572 0.0
H1375 H 0.28443 0.51294 0.36406 0.0
H1376 H 0.26921 0.49737 0.44484 0.0
H1377 H 0.21093 0.44044 0.1386 0.0
H1378 H 0.23895 0.46556 0.11987 0.0
H1379 H 0.23737 0.44026 0.16045 0.0
H1380 H 0.31099 0.51862 0.11319 0.0
H1381 H 0.30586 0.45464 0.1871 0.0
H1382 H 0.27464 0.52263 0.24702 0.0
H1383 H 0.25846 0.50878 0.16637 0.0
H1384 H 0.28779 0.5329 0.15887 0.0
H1385 H 0.26661 0.4458 0.33857 0.0
H1386 H 0.2821 0.43415 0.28913 0.0
H1387 H 0.2541 0.42882 0.25807 0.0
C1388 C 0.55212 0.75522 0.26183 0.0
C1389 C 0.54114 0.74471 0.32763 0.0
C1390 C 0.55082 0.77421 0.23361 0.0
C1391 C 0.53867 0.78324 0.27291 0.0
C1392 C 0.52927 0.77396 0.34229 0.0
C1393 C 0.53034 0.75459 0.36845 0.0
C1394 C 0.56091 0.7834 0.15905 0.0
C1395 C 0.51684 0.78356 0.38695 0.0
C1396 C 0.54515 0.83871 0.18961 0.0
C1397 C 0.52581 0.82953 0.14278 0.0
C1398 C 0.54883 0.82409 0.23671 0.0
C1399 C 0.53295 0.79978 0.23618 0.0
C1400 C 0.51252 0.79077 0.19322 0.0
C1401 C 0.50912 0.80575 0.14768 0.0
C1402 C 0.57048 0.83445 0.28329 0.0
C1403 C 0.49508 0.76497 0.19087 0.0
H1404 H 0.56051 0.74772 0.22998 0.0
H1405 H 0.52213 0.74678 0.41995 0.0
H1406 H 0.54655 0.77904 0.11983 0.0
H1407 H 0.57195 0.80265 0.16027 0.0
H1408 H 0.57154 0.77592 0.13851 0.0
H1409 H 0.51477 0.77777 0.44464 0.0
H1410 H 0.52643 0.80289 0.3854 0.0
H1411 H 0.49927 0.77746 0.36377 0.0
H1412 H 0.5581 0.85706 0.18662 0.0
H1413 H 0.49391 0.79849 0.11269 0.0
H1414 H 0.58354 0.83082 0.25803 0.0
H1415 H 0.56653 0.82649 0.3384 0.0
H1416 H 0.5784 0.85363 0.28885 0.0
H1417 H 0.50331 0.75557 0.16614 0.0
H1418 H 0.47933 0.76099 0.15858 0.0
H1419 H 0.48953 0.75804 0.24676 0.0
C1420 C 0.25709 0.8021 0.26047 0.0
C1421 C 0.26777 0.80162 0.32588 0.0
C1422 C 0.23817 0.78178 0.2322 0.0
C1423 C 0.22939 0.76054 0.27104 0.0
C1424 C 0.23882 0.76037 0.34008 0.0
C1425 C 0.25811 0.78087 0.36631 0.0
C1426 C 0.22879 0.78271 0.15802 0.0
C1427 C 0.2295 0.73828 0.38423 0.0
C1428 C 0.174 0.71127 0.18829 0.0
C1429 C 0.18326 0.70137 0.14072 0.0
C1430 C 0.18859 0.7296 0.23536 0.0
C1431 C 0.21294 0.73828 0.2341 0.0
C1432 C 0.22207 0.72713 0.19036 0.0
C1433 C 0.20712 0.70874 0.1448 0.0
C1434 C 0.17813 0.74062 0.28268 0.0
C1435 C 0.24791 0.73576 0.18724 0.0
H1436 H 0.26442 0.81806 0.22893 0.0
H1437 H 0.26605 0.78045 0.41752 0.0
H1438 H 0.23327 0.77294 0.11824 0.0
H1439 H 0.20952 0.77429 0.1596 0.0
H1440 H 0.23604 0.80086 0.13796 0.0
H1441 H 0.23542 0.74191 0.44182 0.0
H1442 H 0.21017 0.7284 0.38315 0.0
H1443 H 0.23568 0.72697 0.36027 0.0
H1444 H 0.15559 0.70569 0.18586 0.0
H1445 H 0.21444 0.70099 0.10917 0.0
H1446 H 0.18159 0.75733 0.25793 0.0
H1447 H 0.18616 0.74457 0.33768 0.0
H1448 H 0.15897 0.72923 0.28844 0.0
H1449 H 0.25709 0.75344 0.16271 0.0
H1450 H 0.25199 0.72417 0.15441 0.0
H1451 H 0.255 0.73715 0.2429 0.0
C1452 C 0.1332 0.63311 0.64579 0.0
C1453 C 0.15302 0.64382 0.69055 0.0
C1454 C 0.12923 0.61448 0.59974 0.0
C1455 C 0.14532 0.60632 0.59925 0.0
C1456 C 0.16617 0.61826 0.63999 0.0
C1457 C 0.16984 0.63694 0.68449 0.0
C1458 C 0.1071 0.60262 0.55549 0.0
C1459 C 0.18386 0.6102 0.64115 0.0
C1460 C 0.12676 0.54261 0.57661 0.0
C1461 C 0.1372 0.54285 0.50996 0.0
C1462 C 0.12801 0.56294 0.60429 0.0
C1463 C 0.13952 0.58388 0.56353 0.0
C1464 C 0.14834 0.58372 0.49342 0.0
C1465 C 0.14736 0.56328 0.46784 0.0
C1466 C 0.11858 0.56237 0.67968 0.0
C1467 C 0.16005 0.60546 0.44726 0.0
H1468 H 0.12013 0.63832 0.64978 0.0
H1469 H 0.18541 0.64531 0.7179 0.0
H1470 H 0.11054 0.59824 0.50021 0.0
H1471 H 0.09445 0.58608 0.58247 0.0
H1472 H 0.09891 0.61365 0.55023 0.0
H1473 H 0.19985 0.62231 0.67184 0.0
H1474 H 0.17604 0.59274 0.66699 0.0
H1475 H 0.18892 0.60852 0.58488 0.0
H1476 H 0.11888 0.5269 0.60941 0.0
H1477 H 0.15515 0.56347 0.4157 0.0
H1478 H 0.10733 0.57035 0.67924 0.0
H1479 H 0.13327 0.57276 0.71746 0.0
H1480 H 0.10834 0.54437 0.70146 0.0
H1481 H 0.15018 0.61492 0.44917 0.0
H1482 H 0.16174 0.60145 0.38955 0.0
H1483 H 0.17776 0.61733 0.46888 0.0
C1484 C 0.37574 0.53959 0.68867 0.0
C1485 C 0.36833 0.51574 0.69334 0.0
C1486 C 0.39437 0.55449 0.64375 0.0
C1487 C 0.40573 0.54532 0.60123 0.0
C1488 C 0.39707 0.52097 0.60059 0.0
C1489 C 0.37849 0.50643 0.64701 0.0
C1490 C 0.40298 0.58034 0.64619 0.0
C1491 C 0.40833 0.51046 0.55457 0.0
C1492 C 0.44854 0.59023 0.46877 0.0
C1493 C 0.46921 0.60009 0.50965 0.0
C1494 C 0.42803 0.57096 0.49501 0.0
C1495 C 0.42808 0.56174 0.56454 0.0
C1496 C 0.44925 0.57071 0.6039 0.0
C1497 C 0.4696 0.58962 0.5756 0.0
C1498 C 0.40603 0.56143 0.45031 0.0
C1499 C 0.45005 0.56156 0.67859 0.0
H1500 H 0.36781 0.54694 0.72336 0.0
H1501 H 0.37289 0.48803 0.64997 0.0
H1502 H 0.42059 0.58958 0.67115 0.0
H1503 H 0.40452 0.58732 0.5903 0.0
H1504 H 0.39128 0.58446 0.67828 0.0
H1505 H 0.39702 0.49128 0.54924 0.0
H1506 H 0.41243 0.51834 0.49936 0.0
H1507 H 0.42498 0.51407 0.58012 0.0
H1508 H 0.4482 0.59802 0.41716 0.0
H1509 H 0.48549 0.59712 0.60749 0.0
H1510 H 0.39457 0.56754 0.47359 0.0
H1511 H 0.39626 0.5421 0.45172 0.0
H1512 H 0.40977 0.56726 0.39265 0.0
H1513 H 0.44019 0.56613 0.7177 0.0
H1514 H 0.46816 0.56891 0.69907 0.0
H1515 H 0.44167 0.5423 0.67766 0.0
C1516 C 0.42345 0.88618 0.57154 0.0
C1517 C 0.41254 0.87456 0.50692 0.0
C1518 C 0.4424 0.88488 0.60015 0.0
C1519 C 0.45096 0.87203 0.56249 0.0
C1520 C 0.44133 0.86198 0.49406 0.0
C1521 C 0.42204 0.86312 0.46746 0.0
C1522 C 0.45203 0.89573 0.67359 0.0
C1523 C 0.45039 0.84875 0.45112 0.0
C1524 C 0.50622 0.87762 0.64501 0.0
C1525 C 0.49686 0.85858 0.69312 0.0
C1526 C 0.49168 0.88151 0.59813 0.0
C1527 C 0.46727 0.86618 0.60027 0.0
C1528 C 0.45798 0.8461 0.64491 0.0
C1529 C 0.47288 0.84245 0.69007 0.0
C1530 C 0.50232 0.90276 0.54976 0.0
C1531 C 0.43205 0.82927 0.64913 0.0
H1532 H 0.41627 0.89509 0.60231 0.0
H1533 H 0.41394 0.85441 0.41682 0.0
H1534 H 0.44742 0.88176 0.71455 0.0
H1535 H 0.47131 0.90632 0.67157 0.0
H1536 H 0.44505 0.90698 0.69241 0.0
H1537 H 0.44429 0.84602 0.39368 0.0
H1538 H 0.46972 0.85812 0.45162 0.0
H1539 H 0.4442 0.83144 0.47652 0.0
H1540 H 0.52472 0.89016 0.64656 0.0
H1541 H 0.46542 0.82748 0.72611 0.0
H1542 H 0.49923 0.91633 0.57392 0.0
H1543 H 0.49411 0.89852 0.49502 0.0
H1544 H 0.52142 0.91019 0.54348 0.0
H1545 H 0.4232 0.83824 0.67265 0.0
H1546 H 0.42778 0.8138 0.6833 0.0
H1547 H 0.42478 0.8232 0.59386 0.0
C1548 C 0.07266 0.30097 0.69918 0.0
C1549 C 0.05468 0.2824 0.66065 0.0
C1550 C 0.08587 0.3231 0.66662 0.0
C1551 C 0.08088 0.32669 0.59415 0.0
C1552 C 0.06377 0.30764 0.55377 0.0
C1553 C 0.05102 0.28582 0.58728 0.0
C1554 C 0.10427 0.34291 0.71107 0.0
C1555 C 0.05773 0.31059 0.47657 0.0
C1556 C 0.08717 0.38498 0.54336 0.0
C1557 C 0.10674 0.39468 0.49745 0.0
C1558 C 0.07901 0.36318 0.57611 0.0
C1559 C 0.09086 0.3507 0.56378 0.0
C1560 C 0.11087 0.36047 0.51841 0.0
C1561 C 0.11846 0.38229 0.48506 0.0
C1562 C 0.0573 0.35327 0.62267 0.0
C1563 C 0.12416 0.34783 0.50494 0.0
H1564 H 0.07582 0.2985 0.75554 0.0
H1565 H 0.03753 0.27153 0.5562 0.0
H1566 H 0.12038 0.3531 0.67852 0.0
H1567 H 0.09789 0.35492 0.72677 0.0
H1568 H 0.10865 0.33665 0.76152 0.0
H1569 H 0.04581 0.29363 0.45016 0.0
H1570 H 0.04913 0.32129 0.47683 0.0
H1571 H 0.07371 0.3199 0.44296 0.0
H1572 H 0.07789 0.39434 0.55294 0.0
H1573 H 0.13374 0.38979 0.45034 0.0
H1574 H 0.06098 0.34912 0.6779 0.0
H1575 H 0.04347 0.33678 0.59837 0.0
H1576 H 0.05045 0.36545 0.62819 0.0
H1577 H 0.12907 0.34324 0.5576 0.0
H1578 H 0.14021 0.35841 0.47233 0.0
H1579 H 0.11295 0.33128 0.47561 0.0
C1580 C 0.72615 0.77009 0.58948 0.0
C1581 C 0.72975 0.77742 0.66259 0.0
C1582 C 0.70433 0.76124 0.5562 0.0
C1583 C 0.68546 0.75976 0.59657 0.0
C1584 C 0.68927 0.76859 0.66875 0.0
C1585 C 0.71139 0.77729 0.70108 0.0
C1586 C 0.70114 0.75197 0.4793 0.0
C1587 C 0.66966 0.76765 0.71317 0.0
C1588 C 0.62997 0.74215 0.48748 0.0
C1589 C 0.61736 0.71805 0.50028 0.0
C1590 C 0.65182 0.75626 0.52079 0.0
C1591 C 0.66138 0.74592 0.5666 0.0
C1592 C 0.64864 0.72163 0.5796 0.0
C1593 C 0.62684 0.70811 0.54681 0.0
C1594 C 0.66475 0.78215 0.50658 0.0
C1595 C 0.65831 0.70974 0.62676 0.0
H1596 H 0.74028 0.77054 0.55843 0.0
H1597 H 0.71401 0.78312 0.75723 0.0
H1598 H 0.69017 0.7327 0.48016 0.0
H1599 H 0.69201 0.75878 0.44542 0.0
H1600 H 0.718 0.75664 0.4528 0.0
H1601 H 0.67612 0.77846 0.76324 0.0
H1602 H 0.65962 0.77369 0.68036 0.0
H1603 H 0.65747 0.74938 0.72953 0.0
H1604 H 0.62266 0.74999 0.45226 0.0
H1605 H 0.61733 0.68949 0.55678 0.0
H1606 H 0.68111 0.78713 0.47652 0.0
H1607 H 0.6697 0.79182 0.55894 0.0
H1608 H 0.65422 0.78775 0.47431 0.0
H1609 H 0.67465 0.71202 0.60244 0.0
H1610 H 0.64589 0.69079 0.63306 0.0
H1611 H 0.66265 0.7178 0.68167 0.0
C1612 C 0.23427 0.93861 0.69943 0.0
C1613 C 0.23503 0.95747 0.66218 0.0
C1614 C 0.24293 0.92517 0.66698 0.0
C1615 C 0.25266 0.93083 0.59597 0.0
C1616 C 0.25218 0.94894 0.55674 0.0
C1617 C 0.24333 0.9619 0.59006 0.0
C1618 C 0.24279 0.90572 0.71011 0.0
C1619 C 0.26246 0.95574 0.48114 0.0
C1620 C 0.304 0.92303 0.54911 0.0
C1621 C 0.29425 0.90426 0.50004 0.0
C1622 C 0.29047 0.93129 0.58199 0.0
C1623 C 0.26637 0.9204 0.56639 0.0
C1624 C 0.25619 0.9011 0.51815 0.0
C1625 C 0.27032 0.89337 0.48492 0.0
C1626 C 0.3022 0.9522 0.63188 0.0
C1627 C 0.23049 0.88884 0.50109 0.0
H1628 H 0.22768 0.93484 0.75476 0.0
H1629 H 0.24362 0.97611 0.55988 0.0
H1630 H 0.23679 0.88997 0.6757 0.0
H1631 H 0.26076 0.91117 0.72832 0.0
H1632 H 0.23142 0.90106 0.75897 0.0
H1633 H 0.25863 0.9686 0.45524 0.0
H1634 H 0.28166 0.96349 0.4842 0.0
H1635 H 0.25567 0.94019 0.44549 0.0
H1636 H 0.32249 0.93169 0.56101 0.0
H1637 H 0.2626 0.87871 0.44771 0.0
H1638 H 0.29344 0.94801 0.68574 0.0
H1639 H 0.3007 0.96684 0.60852 0.0
H1640 H 0.32095 0.95816 0.64032 0.0
H1641 H 0.22021 0.88391 0.55231 0.0
H1642 H 0.22488 0.87292 0.46771 0.0
H1643 H 0.22628 0.90078 0.47096 0.0
C1644 C 0.29684 0.07392 0.81938 0.0
C1645 C 0.28406 0.04987 0.83287 0.0
C1646 C 0.31867 0.08801 0.8528 0.0
C1647 C 0.32806 0.07771 0.89946 0.0
C1648 C 0.31517 0.05346 0.91307 0.0
C1649 C 0.29338 0.03995 0.88014 0.0
C1650 C 0.33176 0.11386 0.83788 0.0
C1651 C 0.32466 0.04159 0.96111 0.0
C1652 C 0.39285 0.10202 0.92322 0.0
C1653 C 0.39646 0.10976 0.99593 0.0
C1654 C 0.371 0.09288 0.88987 0.0
C1655 C 0.35211 0.09154 0.9297 0.0
C1656 C 0.35587 0.10067 0.00149 0.0
C1657 C 0.37802 0.10964 0.03393 0.0
C1658 C 0.36785 0.08327 0.81343 0.0
C1659 C 0.33623 0.09987 0.04532 0.0
H1660 H 0.28965 0.08175 0.7836 0.0
H1661 H 0.28373 0.02136 0.89066 0.0
H1662 H 0.33661 0.12367 0.88998 0.0
H1663 H 0.34818 0.11868 0.80846 0.0
H1664 H 0.32139 0.11946 0.80474 0.0
H1665 H 0.31215 0.02268 0.96779 0.0
H1666 H 0.341 0.04371 0.9373 0.0
H1667 H 0.32896 0.0498 0.01581 0.0
H1668 H 0.40701 0.10241 0.89249 0.0
H1669 H 0.38063 0.11577 0.08975 0.0
H1670 H 0.35887 0.09005 0.77873 0.0
H1671 H 0.35675 0.06402 0.815 0.0
H1672 H 0.38471 0.0877 0.78737 0.0
H1673 H 0.32631 0.10592 0.012 0.0
H1674 H 0.34263 0.11074 0.09529 0.0
H1675 H 0.32395 0.08163 0.06178 0.0
C1676 C 0.93807 0.22808 0.8153 0.0
C1677 C 0.962 0.239 0.83052 0.0
C1678 C 0.9239 0.23577 0.84846 0.0
C1679 C 0.93403 0.25507 0.89668 0.0
C1680 C 0.95815 0.26607 0.91212 0.0
C1681 C 0.97173 0.25783 0.87935 0.0
C1682 C 0.89819 0.2234 0.83154 0.0
C1683 C 0.96983 0.287 0.96193 0.0
C1684 C 0.91044 0.29608 0.9213 0.0
C1685 C 0.90216 0.29151 0.99344 0.0
C1686 C 0.9195 0.28335 0.88771 0.0
C1687 C 0.92021 0.26532 0.92668 0.0
C1688 C 0.91052 0.25951 0.99772 0.0
C1689 C 0.90164 0.27272 0.03045 0.0
C1690 C 0.92973 0.29029 0.8121 0.0
C1691 C 0.91064 0.24014 0.04057 0.0
H1692 H 0.93038 0.21337 0.7783 0.0
H1693 H 0.99022 0.26651 0.89125 0.0
H1694 H 0.88795 0.21818 0.88285 0.0
H1695 H 0.89382 0.23538 0.80233 0.0
H1696 H 0.89267 0.20765 0.79742 0.0
H1697 H 0.98864 0.29311 0.96998 0.0
H1698 H 0.96815 0.30155 0.93878 0.0
H1699 H 0.96117 0.28274 0.01596 0.0
H1700 H 0.91054 0.31023 0.89131 0.0
H1701 H 0.89509 0.26885 0.0858 0.0
H1702 H 0.92305 0.27479 0.77628 0.0
H1703 H 0.94895 0.29821 0.81505 0.0
H1704 H 0.92573 0.30307 0.78644 0.0
H1705 H 0.90468 0.22442 0.00607 0.0
H1706 H 0.89935 0.2354 0.08966 0.0
H1707 H 0.92868 0.24572 0.05838 0.0
C1708 C 0.75386 0.7188 0.88024 0.0
C1709 C 0.77295 0.72796 0.83235 0.0
C1710 C 0.74551 0.69699 0.91314 0.0
C1711 C 0.75665 0.68393 0.89886 0.0
C1712 C 0.7762 0.69317 0.85158 0.0
C1713 C 0.784 0.71502 0.81821 0.0
C1714 C 0.72431 0.68767 0.96183 0.0
C1715 C 0.78873 0.67989 0.83593 0.0
C1716 C 0.73854 0.63386 0.03302 0.0
C1717 C 0.72003 0.61553 0.99532 0.0
C1718 C 0.7518 0.65599 0.00052 0.0
C1719 C 0.74632 0.65986 0.929 0.0
C1720 C 0.72856 0.64106 0.88945 0.0
C1721 C 0.71577 0.61923 0.92283 0.0
C1722 C 0.77088 0.67553 0.04403 0.0
C1723 C 0.72196 0.64432 0.81332 0.0
H1724 H 0.74509 0.72857 0.89127 0.0
H1725 H 0.79891 0.72209 0.78195 0.0
H1726 H 0.70992 0.67139 0.93826 0.0
H1727 H 0.72831 0.68328 0.01629 0.0
H1728 H 0.71809 0.7003 0.96902 0.0
H1729 H 0.80463 0.69017 0.80244 0.0
H1730 H 0.79374 0.67494 0.88774 0.0
H1731 H 0.77695 0.66353 0.80657 0.0
H1732 H 0.74217 0.63118 0.08866 0.0
H1733 H 0.70184 0.60515 0.89232 0.0
H1734 H 0.76514 0.68794 0.06093 0.0
H1735 H 0.78679 0.68533 0.0103 0.0
H1736 H 0.77539 0.66903 0.09371 0.0
H1737 H 0.71399 0.65558 0.8154 0.0
H1738 H 0.70934 0.62752 0.7874 0.0
H1739 H 0.73764 0.65318 0.7782 0.0
C1740 C 0.91289 0.61951 0.42707 0.0
C1741 C 0.90263 0.61475 0.49668 0.0
C1742 C 0.9216 0.6414 0.3944 0.0
C1743 C 0.91991 0.65916 0.43162 0.0
C1744 C 0.90839 0.65421 0.49997 0.0
C1745 C 0.89995 0.63207 0.53193 0.0
C1746 C 0.93391 0.64587 0.32182 0.0
C1747 C 0.90592 0.67262 0.54078 0.0
C1748 C 0.96993 0.71966 0.39099 0.0
C1749 C 0.96051 0.72771 0.33738 0.0
C1750 C 0.9566 0.6978 0.42368 0.0
C1751 C 0.93304 0.68348 0.40315 0.0
C1752 C 0.9231 0.69166 0.35065 0.0
C1753 C 0.93702 0.71363 0.31783 0.0
C1754 C 0.9681 0.68969 0.47839 0.0
C1755 C 0.89793 0.677 0.32819 0.0
H1756 H 0.9148 0.60626 0.39839 0.0
H1757 H 0.89184 0.62857 0.58521 0.0
H1758 H 0.92706 0.65381 0.28301 0.0
H1759 H 0.95276 0.6584 0.32922 0.0
H1760 H 0.93197 0.6297 0.29707 0.0
H1761 H 0.89358 0.66517 0.58719 0.0
H1762 H 0.92316 0.68589 0.56236 0.0
H1763 H 0.89982 0.6817 0.50371 0.0
H1764 H 0.98805 0.73027 0.40659 0.0
H1765 H 0.92951 0.71977 0.27712 0.0
H1766 H 0.96838 0.67419 0.45683 0.0
H1767 H 0.958 0.68442 0.52991 0.0
H1768 H 0.98628 0.70337 0.49094 0.0
H1769 H 0.89546 0.66143 0.29799 0.0
H1770 H 0.89215 0.68678 0.29289 0.0
H1771 H 0.88655 0.6707 0.37704 0.0
C1772 C 0.29797 0.22725 0.31654 0.0
C1773 C 0.28455 0.23766 0.33287 0.0
C1774 C 0.31991 0.23524 0.34943 0.0
C1775 C 0.32873 0.25429 0.39858 0.0
C1776 C 0.31515 0.26469 0.41539 0.0
C1777 C 0.29329 0.2562 0.3828 0.0
C1778 C 0.33377 0.22351 0.33104 0.0
C1779 C 0.32399 0.28532 0.46632 0.0
C1780 C 0.37916 0.2728 0.53116 0.0
C1781 C 0.39703 0.29206 0.49458 0.0
C1782 C 0.35714 0.25915 0.49852 0.0
C1783 C 0.3529 0.265 0.428 0.0
C1784 C 0.37128 0.28354 0.38938 0.0
C1785 C 0.39303 0.29671 0.42289 0.0
C1786 C 0.33806 0.23926 0.54096 0.0
C1787 C 0.3676 0.29053 0.31434 0.0
H1788 H 0.29125 0.21278 0.27864 0.0
H1789 H 0.28319 0.26449 0.39563 0.0
H1790 H 0.34982 0.23582 0.30111 0.0
H1791 H 0.33932 0.21851 0.38171 0.0
H1792 H 0.32369 0.20771 0.29698 0.0
H1793 H 0.31093 0.29089 0.47561 0.0
H1794 H 0.32872 0.28102 0.51973 0.0
H1795 H 0.33997 0.30027 0.44334 0.0
H1796 H 0.3821 0.26886 0.58613 0.0
H1797 H 0.40677 0.31122 0.39321 0.0
H1798 H 0.32859 0.22364 0.50584 0.0
H1799 H 0.32525 0.24424 0.5599 0.0
H1800 H 0.34496 0.23458 0.58932 0.0
H1801 H 0.35908 0.27514 0.278 0.0
H1802 H 0.3842 0.30375 0.28872 0.0
H1803 H 0.35587 0.29794 0.31826 0.0
C1804 C 0.75322 0.04028 0.37745 0.0
C1805 C 0.77277 0.05056 0.33147 0.0
C1806 C 0.74464 0.05352 0.41049 0.0
C1807 C 0.75602 0.07784 0.39833 0.0
C1808 C 0.77599 0.0885 0.35285 0.0
C1809 C 0.78403 0.07467 0.31926 0.0
C1810 C 0.72299 0.04129 0.45717 0.0
C1811 C 0.78877 0.11443 0.3395 0.0
C1812 C 0.71527 0.1018 0.42263 0.0
C1813 C 0.71903 0.10904 0.49584 0.0
C1814 C 0.72822 0.09298 0.38898 0.0
C1815 C 0.74561 0.09143 0.42907 0.0
C1816 C 0.75058 0.10005 0.50148 0.0
C1817 C 0.7372 0.10874 0.53416 0.0
C1818 C 0.72219 0.08392 0.31185 0.0
C1819 C 0.76924 0.09901 0.54564 0.0
H1820 H 0.74429 0.02164 0.38689 0.0
H1821 H 0.79928 0.08276 0.28446 0.0
H1822 H 0.72655 0.0491 0.51243 0.0
H1823 H 0.7089 0.04357 0.43304 0.0
H1824 H 0.71656 0.02234 0.46261 0.0
H1825 H 0.80483 0.12026 0.30666 0.0
H1826 H 0.77724 0.11942 0.31047 0.0
H1827 H 0.79357 0.12391 0.3922 0.0
H1828 H 0.70163 0.10236 0.39169 0.0
H1829 H 0.74043 0.1145 0.59038 0.0
H1830 H 0.71401 0.06465 0.31213 0.0
H1831 H 0.73814 0.09092 0.27794 0.0
H1832 H 0.70992 0.08855 0.28574 0.0
H1833 H 0.76326 0.08066 0.56078 0.0
H1834 H 0.77339 0.10948 0.59639 0.0
H1835 H 0.7854 0.10537 0.51304 0.0
C1836 C 0.62638 0.92299 0.05004 0.0
C1837 C 0.61744 0.90427 0.00076 0.0
C1838 C 0.64824 0.9314 0.0826 0.0
C1839 C 0.66161 0.92072 0.06648 0.0
C1840 C 0.65257 0.90147 0.01805 0.0
C1841 C 0.63064 0.89359 0.98513 0.0
C1842 C 0.6573 0.95225 0.1327 0.0
C1843 C 0.66619 0.88943 0.00044 0.0
C1844 C 0.72607 0.96272 0.08954 0.0
C1845 C 0.73009 0.95832 0.16152 0.0
C1846 C 0.70425 0.94959 0.05642 0.0
C1847 C 0.6858 0.93134 0.09571 0.0
C1848 C 0.69004 0.92571 0.16655 0.0
C1849 C 0.71215 0.93932 0.19881 0.0
C1850 C 0.70058 0.95636 0.98102 0.0
C1851 C 0.6709 0.90611 0.20973 0.0
H1852 H 0.61643 0.9315 0.06233 0.0
H1853 H 0.62378 0.87898 0.94776 0.0
H1854 H 0.66201 0.94809 0.18637 0.0
H1855 H 0.67334 0.96701 0.10926 0.0
H1856 H 0.64439 0.95804 0.14154 0.0
H1857 H 0.65594 0.87351 0.96706 0.0
H1858 H 0.68224 0.9015 0.97008 0.0
H1859 H 0.67171 0.88457 0.05143 0.0
H1860 H 0.73986 0.97703 0.05932 0.0
H1861 H 0.71508 0.93557 0.25402 0.0
H1862 H 0.689 0.96395 0.98446 0.0
H1863 H 0.69189 0.94082 0.94529 0.0
H1864 H 0.7172 0.96935 0.95498 0.0
H1865 H 0.65826 0.91137 0.22834 0.0
H1866 H 0.67776 0.90152 0.25834 0.0
H1867 H 0.66123 0.89038 0.17522 0.0
C1868 C 0.07563 0.78448 0.1831 0.0
C1869 C 0.05165 0.77345 0.1685 0.0
C1870 C 0.08976 0.77678 0.14977 0.0
C1871 C 0.07955 0.75736 0.10199 0.0
C1872 C 0.0554 0.7463 0.08701 0.0
C1873 C 0.04187 0.75454 0.11995 0.0
C1874 C 0.11551 0.78921 0.16616 0.0
C1875 C 0.04364 0.72526 0.03765 0.0
C1876 C 0.11144 0.73915 0.96813 0.0
C1877 C 0.11088 0.7204 0.00547 0.0
C1878 C 0.10279 0.75258 0.0008 0.0
C1879 C 0.0933 0.74701 0.07213 0.0
C1880 C 0.09402 0.72904 0.11143 0.0
C1881 C 0.10285 0.71608 0.07787 0.0
C1882 C 0.10267 0.77188 0.95758 0.0
C1883 C 0.08401 0.72236 0.18737 0.0
H1884 H 0.08337 0.79925 0.2199 0.0
H1885 H 0.02334 0.74577 0.1085 0.0
H1886 H 0.11992 0.77738 0.19605 0.0
H1887 H 0.12565 0.79416 0.11466 0.0
H1888 H 0.1211 0.80513 0.19948 0.0
H1889 H 0.02483 0.71914 0.02979 0.0
H1890 H 0.05222 0.72939 0.98351 0.0
H1891 H 0.04535 0.71075 0.0611 0.0
H1892 H 0.11783 0.74283 0.91258 0.0
H1893 H 0.10273 0.70198 0.1081 0.0
H1894 H 0.10869 0.78768 0.99175 0.0
H1895 H 0.08462 0.76629 0.93987 0.0
H1896 H 0.1139 0.7765 0.90839 0.0
H1897 H 0.09079 0.73798 0.22269 0.0
H1898 H 0.08807 0.70965 0.21327 0.0
H1899 H 0.06478 0.71444 0.1849 0.0
C1900 C 0.22836 0.29636 0.18308 0.0
C1901 C 0.23859 0.28284 0.16585 0.0
C1902 C 0.23627 0.3183 0.15016 0.0
C1903 C 0.25508 0.32703 0.10003 0.0
C1904 C 0.26525 0.31332 0.08216 0.0
C1905 C 0.25684 0.29147 0.11481 0.0
C1906 C 0.22476 0.33228 0.16972 0.0
C1907 C 0.28563 0.32205 0.03018 0.0
C1908 C 0.27332 0.3779 0.96902 0.0
C1909 C 0.29266 0.39568 0.00554 0.0
C1910 C 0.25979 0.35575 0.00113 0.0
C1911 C 0.26586 0.35127 0.071 0.0
C1912 C 0.28457 0.36951 0.10946 0.0
C1913 C 0.29759 0.39139 0.07656 0.0
C1914 C 0.23972 0.33683 0.95888 0.0
C1915 C 0.29183 0.36557 0.18375 0.0
H1916 H 0.21412 0.28975 0.22182 0.0
H1917 H 0.26501 0.2813 0.10119 0.0
H1918 H 0.23722 0.34818 0.19994 0.0
H1919 H 0.21975 0.33805 0.11956 0.0
H1920 H 0.209 0.3222 0.20397 0.0
H1921 H 0.29097 0.30886 0.01986 0.0
H1922 H 0.28117 0.32694 0.97731 0.0
H1923 H 0.30078 0.33791 0.05287 0.0
H1924 H 0.26916 0.38104 0.9146 0.0
H1925 H 0.3122 0.40501 0.10623 0.0
H1926 H 0.22419 0.3274 0.99441 0.0
H1927 H 0.24451 0.32395 0.93926 0.0
H1928 H 0.23498 0.34387 0.91101 0.0
H1929 H 0.2766 0.35718 0.22081 0.0
H1930 H 0.30533 0.38204 0.20924 0.0
H1931 H 0.29896 0.35363 0.17868 0.0
C1932 C 0.96311 0.40762 0.15218 0.0
C1933 C 0.95044 0.38356 0.16541 0.0
C1934 C 0.98493 0.42176 0.18557 0.0
C1935 C 0.99441 0.41147 0.23191 0.0
C1936 C 0.98163 0.38721 0.24529 0.0
C1937 C 0.95984 0.37365 0.2124 0.0
C1938 C 0.9979 0.44763 0.17095 0.0
C1939 C 0.99123 0.37537 0.29298 0.0
C1940 C 0.05918 0.43579 0.25541 0.0
C1941 C 0.06274 0.44333 0.32832 0.0
C1942 C 0.03735 0.42677 0.22202 0.0
C1943 C 0.01845 0.42534 0.26204 0.0
C1944 C 0.0222 0.43433 0.334 0.0
C1945 C 0.04432 0.44319 0.36647 0.0
C1946 C 0.03422 0.41733 0.14536 0.0
C1947 C 0.00255 0.43344 0.37803 0.0
H1948 H 0.95585 0.41543 0.11662 0.0
H1949 H 0.95028 0.35506 0.2227 0.0
H1950 H 0.00277 0.45738 0.22316 0.0
H1951 H 0.01431 0.45255 0.1413 0.0
H1952 H 0.98745 0.45319 0.13813 0.0
H1953 H 0.97879 0.35643 0.29949 0.0
H1954 H 0.00759 0.37759 0.26899 0.0
H1955 H 0.99552 0.38351 0.34777 0.0
H1956 H 0.07334 0.43622 0.2246 0.0
H1957 H 0.04691 0.44917 0.42245 0.0
H1958 H 0.02515 0.42408 0.11101 0.0
H1959 H 0.02321 0.39806 0.14661 0.0
H1960 H 0.05109 0.4219 0.11913 0.0
H1961 H 0.99255 0.43945 0.34487 0.0
H1962 H 0.00895 0.4443 0.42802 0.0
H1963 H 0.99033 0.41519 0.39448 0.0
C1964 C 0.63223 0.57933 0.24156 0.0
C1965 C 0.62694 0.56951 0.17135 0.0
C1966 C 0.61904 0.58798 0.27457 0.0
C1967 C 0.59981 0.5867 0.23703 0.0
C1968 C 0.59346 0.57563 0.16798 0.0
C1969 C 0.60715 0.56722 0.13574 0.0
C1970 C 0.62663 0.59978 0.34794 0.0
C1971 C 0.57284 0.57362 0.12675 0.0
C1972 C 0.56215 0.6035 0.35057 0.0
C1973 C 0.57177 0.6271 0.33214 0.0
C1974 C 0.57028 0.58968 0.31754 0.0
C1975 C 0.58868 0.59982 0.26601 0.0
C1976 C 0.59818 0.62352 0.24675 0.0
C1977 C 0.58957 0.63675 0.2796 0.0
C1978 C 0.55949 0.56436 0.33863 0.0
C1979 C 0.6181 0.63523 0.19316 0.0
H1980 H 0.64721 0.58091 0.27052 0.0
H1981 H 0.6027 0.55945 0.08197 0.0
H1982 H 0.63319 0.61872 0.34166 0.0
H1983 H 0.61166 0.59283 0.38611 0.0
H1984 H 0.64064 0.59749 0.37282 0.0
H1985 H 0.56808 0.56161 0.07952 0.0
H1986 H 0.55751 0.56736 0.16324 0.0
H1987 H 0.57703 0.59105 0.10631 0.0
H1988 H 0.54826 0.59583 0.39048 0.0
H1989 H 0.59726 0.65497 0.26495 0.0
H1990 H 0.57242 0.56156 0.36863 0.0
H1991 H 0.55447 0.55327 0.28915 0.0
H1992 H 0.54386 0.55851 0.37364 0.0
H1993 H 0.63368 0.63519 0.2151 0.0
H1994 H 0.62284 0.65355 0.18169 0.0
H1995 H 0.61347 0.62549 0.14099 0.0
C1996 C 0.40883 0.96379 0.34824 0.0
C1997 C 0.38511 0.95003 0.33099 0.0
C1998 C 0.42264 0.98578 0.31539 0.0
C1999 C 0.41236 0.99429 0.2653 0.0
C2000 C 0.38852 0.98033 0.24731 0.0
C2001 C 0.3753 0.95844 0.27991 0.0
C2002 C 0.4481 1.00005 0.33505 0.0
C2003 C 0.37667 0.98882 0.19532 0.0
C2004 C 0.43346 0.05851 0.24223 0.0
C2005 C 0.44281 0.06295 0.17138 0.0
C2006 C 0.42479 0.03662 0.27495 0.0
C2007 C 0.42556 0.01856 0.23642 0.0
C2008 C 0.43619 0.02319 0.16668 0.0
C2009 C 0.44465 0.04534 0.13478 0.0
C2010 C 0.41348 0.0325 0.34914 0.0
C2011 C 0.43765 0.00445 0.12436 0.0
H2012 H 0.41662 0.95736 0.38702 0.0
H2013 H 0.35698 0.94807 0.26626 0.0
H2014 H 0.45891 0.00601 0.28493 0.0
H2015 H 0.45129 0.01584 0.36543 0.0
H2016 H 0.45398 0.99011 0.36918 0.0
H2017 H 0.35822 0.97544 0.18483 0.0
H2018 H 0.3771 0.00454 0.2181 0.0
H2019 H 0.38607 0.99387 0.14253 0.0
H2020 H 0.43226 0.072 0.27192 0.0
H2021 H 0.45205 0.0486 0.08048 0.0
H2022 H 0.42048 0.02427 0.38624 0.0
H2023 H 0.39446 0.02034 0.34391 0.0
H2024 H 0.41619 0.04887 0.37467 0.0
H2025 H 0.44393 0.99517 0.15984 0.0
H2026 H 0.44941 0.01162 0.07649 0.0
H2027 H 0.42004 0.9914 0.10471 0.0
C2028 C 0.5607 0.9627 0.84703 0.0
C2029 C 0.57208 0.94999 0.83436 0.0
C2030 C 0.56855 0.98455 0.81365 0.0
C2031 C 0.58847 0.99402 0.76791 0.0
C2032 C 0.59993 0.9812 0.75509 0.0
C2033 C 0.59153 0.95938 0.78795 0.0
C2034 C 0.55568 0.99759 0.82768 0.0
C2035 C 0.62151 0.99077 0.70804 0.0
C2036 C 0.60722 0.044 0.63324 0.0
C2037 C 0.62544 0.06237 0.67172 0.0
C2038 C 0.5938 0.02188 0.66559 0.0
C2039 C 0.5988 0.01809 0.7378 0.0
C2040 C 0.61622 0.03693 0.7781 0.0
C2041 C 0.6292 0.05875 0.7448 0.0
C2042 C 0.57511 0.00228 0.62122 0.0
C2043 C 0.62227 0.03374 0.85504 0.0
H2044 H 0.54552 0.95545 0.88218 0.0
H2045 H 0.60057 0.9498 0.77811 0.0
H2046 H 0.56712 0.01396 0.85756 0.0
H2047 H 0.55099 0.00253 0.77526 0.0
H2048 H 0.53955 0.98715 0.86005 0.0
H2049 H 0.62797 0.97829 0.70189 0.0
H2050 H 0.61787 0.99513 0.65307 0.0
H2051 H 0.63561 0.00708 0.73236 0.0
H2052 H 0.60398 0.04663 0.57712 0.0
H2053 H 0.64288 0.07288 0.77586 0.0
H2054 H 0.55899 0.99235 0.65395 0.0
H2055 H 0.58111 0.98999 0.60528 0.0
H2056 H 0.57086 0.00872 0.57092 0.0
H2057 H 0.60633 0.0247 0.88895 0.0
H2058 H 0.63453 0.05059 0.88144 0.0
H2059 H 0.63048 0.02269 0.85428 0.0
C2060 C 0.04873 0.60419 0.84945 0.0
C2061 C 0.06199 0.62806 0.83354 0.0
C2062 C 0.02684 0.59013 0.81629 0.0
C2063 C 0.0179 0.60029 0.76732 0.0
C2064 C 0.03131 0.62433 0.751 0.0
C2065 C 0.05313 0.6378 0.78383 0.0
C2066 C 0.01319 0.56449 0.83417 0.0
C2067 C 0.02233 0.63606 0.70035 0.0
C2068 C 0.96742 0.56769 0.63494 0.0
C2069 C 0.94933 0.56854 0.67194 0.0
C2070 C 0.98959 0.57658 0.66718 0.0
C2071 C 0.99375 0.58666 0.73771 0.0
C2072 C 0.97521 0.5864 0.7766 0.0
C2073 C 0.95332 0.5773 0.74352 0.0
C2074 C 0.00885 0.57621 0.62444 0.0
C2075 C 0.97879 0.59706 0.85162 0.0
H2076 H 0.05554 0.59647 0.88713 0.0
H2077 H 0.06313 0.65624 0.77132 0.0
H2078 H 0.99703 0.56051 0.86383 0.0
H2079 H 0.00785 0.55405 0.78328 0.0
H2080 H 0.02333 0.55886 0.86828 0.0
H2081 H 0.03527 0.65475 0.69139 0.0
H2082 H 0.01771 0.62713 0.64678 0.0
H2083 H 0.00626 0.63481 0.72336 0.0
H2084 H 0.96452 0.56076 0.58005 0.0
H2085 H 0.93945 0.57772 0.77354 0.0
H2086 H 0.01847 0.57015 0.65923 0.0
H2087 H 0.0215 0.59412 0.60603 0.0
H2088 H 0.00211 0.56478 0.57574 0.0
H2089 H 0.98739 0.59028 0.88799 0.0
H2090 H 0.96215 0.59355 0.87722 0.0
H2091 H 0.99042 0.61622 0.84774 0.0
C2092 C 0.45062 0.40803 0.6526 0.0
C2093 C 0.44011 0.38413 0.66788 0.0
C2094 C 0.44263 0.4219 0.68612 0.0
C2095 C 0.42345 0.41151 0.73482 0.0
C2096 C 0.41293 0.38744 0.75052 0.0
C2097 C 0.42144 0.37416 0.71736 0.0
C2098 C 0.45451 0.44758 0.6689 0.0
C2099 C 0.39214 0.37547 0.80083 0.0
C2100 C 0.40495 0.44343 0.86783 0.0
C2101 C 0.38599 0.4425 0.83068 0.0
C2102 C 0.41844 0.43481 0.83546 0.0
C2103 C 0.41273 0.42493 0.76464 0.0
C2104 C 0.39444 0.42512 0.72563 0.0
C2105 C 0.38144 0.43395 0.75884 0.0
C2106 C 0.43808 0.43524 0.87834 0.0
C2107 C 0.38758 0.41465 0.65029 0.0
H2108 H 0.4652 0.41591 0.6151 0.0
H2109 H 0.41307 0.3557 0.72938 0.0
H2110 H 0.44232 0.45153 0.6392 0.0
H2111 H 0.45944 0.45788 0.72006 0.0
H2112 H 0.47038 0.45339 0.63507 0.0
H2113 H 0.38649 0.35679 0.80936 0.0
H2114 H 0.39631 0.38427 0.85461 0.0
H2115 H 0.37729 0.37666 0.77777 0.0
H2116 H 0.40881 0.4502 0.92292 0.0
H2117 H 0.36715 0.43349 0.72871 0.0
H2118 H 0.45383 0.4415 0.84377 0.0
H2119 H 0.43291 0.41732 0.89634 0.0
H2120 H 0.4426 0.44655 0.9273 0.0
H2121 H 0.40305 0.42165 0.6142 0.0
H2122 H 0.37441 0.41811 0.62468 0.0
H2123 H 0.38017 0.39551 0.65366 0.0
loop_
_geom_bond_atom_site_label_1
_geom_bond_atom_site_label_2
_geom_bond_distance
_geom_bond_site_symmetry_2
_ccdc_geom_bond_type
Sc0 O3 2.025 . S
Sc0 O10 2.105 . S
Sc0 O13 2.105 1_455 S
Sc0 O16 2.105 1_455 S
Sc0 O19 2.105 . S
Sc1 O3 2.025 . S
Sc1 O11 2.105 . S
Sc1 O15 2.105 1_455 S
Sc1 O17 2.105 1_455 S
Sc1 O21 2.105 . S
Sc2 O3 2.025 . S
Sc2 O12 2.105 . S
Sc2 O14 2.105 1_455 S
Sc2 O18 2.105 1_455 S
Sc2 O20 2.105 . S
O3 Sc0 2.025 . S
O3 Sc1 2.025 . S
O3 Sc2 2.025 . S
C4 O10 1.268 . S
C4 O20 1.268 . S
C5 O11 1.268 . S
C5 O19 1.268 . S
C6 O12 1.268 . S
C6 O21 1.268 . S
C7 O13 1.268 . S
C7 O17 1.268 . S
C8 O14 1.268 . S
C8 O16 1.268 . S
C9 O15 1.268 . S
C9 O18 1.268 . S
O10 Sc0 2.105 . S
O10 C4 1.268 . S
O11 Sc1 2.105 . S
O11 C5 1.268 . S
O12 Sc2 2.105 . S
O12 C6 1.268 . S
O13 Sc0 2.105 1_655 S
O13 C7 1.268 . S
O14 Sc2 2.105 1_655 S
O14 C8 1.268 . S
O15 Sc1 2.105 1_655 S
O15 C9 1.268 . S
O16 Sc0 2.105 1_655 S
O16 C8 1.268 . S
O17 Sc1 2.105 1_655 S
O17 C7 1.268 . S
O18 Sc2 2.105 1_655 S
O18 C9 1.268 . S
O19 Sc0 2.105 . S
O19 C5 1.268 . S
O20 Sc2 2.105 . S
O20 C4 1.268 . S
O21 Sc1 2.105 . S
O21 C6 1.268 . S
Sc22 O25 2.025 . S
Sc22 O32 2.105 . S
Sc22 O35 2.105 . S
Sc22 O38 2.105 . S
Sc22 O41 2.105 . S
Sc23 O25 2.025 . S
Sc23 O33 2.105 . S
Sc23 O37 2.105 . S
Sc23 O39 2.105 . S
Sc23 O43 2.105 . S
Sc24 O25 2.025 . S
Sc24 O34 2.105 . S
Sc24 O36 2.105 . S
Sc24 O40 2.105 . S
Sc24 O42 2.105 . S
O25 Sc22 2.025 . S
O25 Sc23 2.025 . S
O25 Sc24 2.025 . S
C26 O32 1.268 . S
C26 O42 1.268 . S
C27 O33 1.268 . S
C27 O41 1.268 . S
C28 O34 1.268 . S
C28 O43 1.268 . S
C29 O35 1.268 . S
C29 O39 1.268 . S
C30 O36 1.268 . S
C30 O38 1.268 . S
C31 O37 1.268 . S
C31 O40 1.268 . S
O32 Sc22 2.105 . S
O32 C26 1.268 . S
O33 Sc23 2.105 . S
O33 C27 1.268 . S
O34 Sc24 2.105 . S
O34 C28 1.268 . S
O35 Sc22 2.105 . S
O35 C29 1.268 . S
O36 Sc24 2.105 . S
O36 C30 1.268 . S
O37 Sc23 2.105 . S
O37 C31 1.268 . S
O38 Sc22 2.105 . S
O38 C30 1.268 . S
O39 Sc23 2.105 . S
O39 C29 1.268 . S
O40 Sc24 2.105 . S
O40 C31 1.268 . S
O41 Sc22 2.105 . S
O41 C27 1.268 . S
O42 Sc24 2.105 . S
O42 C26 1.268 . S
O43 Sc23 2.105 . S
O43 C28 1.268 . S
Sc44 O47 2.025 . S
Sc44 O54 2.105 1_545 S
Sc44 O57 2.105 . S
Sc44 O60 2.105 . S
Sc44 O63 2.105 1_545 S
Sc45 O47 2.025 . S
Sc45 O55 2.105 1_545 S
Sc45 O59 2.105 . S
Sc45 O61 2.105 . S
Sc45 O65 2.105 1_545 S
Sc46 O47 2.025 . S
Sc46 O56 2.105 1_545 S
Sc46 O58 2.105 . S
Sc46 O62 2.105 . S
Sc46 O64 2.105 1_545 S
O47 Sc44 2.025 . S
O47 Sc45 2.025 . S
O47 Sc46 2.025 . S
C48 O54 1.268 . S
C48 O64 1.268 . S
C49 O55 1.268 . S
C49 O63 1.268 . S
C50 O56 1.268 . S
C50 O65 1.268 . S
C51 O57 1.268 . S
C51 O61 1.268 . S
C52 O58 1.268 . S
C52 O60 1.268 . S
C53 O59 1.268 . S
C53 O62 1.268 . S
O54 Sc44 2.105 1_565 S
O54 C48 1.268 . S
O55 Sc45 2.105 1_565 S
O55 C49 1.268 . S
O56 Sc46 2.105 1_565 S
O56 C50 1.268 . S
O57 Sc44 2.105 . S
O57 C51 1.268 . S
O58 Sc46 2.105 . S
O58 C52 1.268 . S
O59 Sc45 2.105 . S
O59 C53 1.268 . S
O60 Sc44 2.105 . S
O60 C52 1.268 . S
O61 Sc45 2.105 . S
O61 C51 1.268 . S
O62 Sc46 2.105 . S
O62 C53 1.268 . S
O63 Sc44 2.105 1_565 S
O63 C49 1.268 . S
O64 Sc46 2.105 1_565 S
O64 C48 1.268 . S
O65 Sc45 2.105 1_565 S
O65 C50 1.268 . S
Sc66 O69 2.025 . S
Sc66 O76 2.105 . S
Sc66 O79 2.105 1_455 S
Sc66 O82 2.105 1_455 S
Sc66 O85 2.105 . S
Sc67 O69 2.025 . S
Sc67 O77 2.105 . S
Sc67 O81 2.105 1_455 S
Sc67 O83 2.105 1_455 S
Sc67 O87 2.105 . S
Sc68 O69 2.025 . S
Sc68 O78 2.105 . S
Sc68 O80 2.105 1_455 S
Sc68 O84 2.105 1_455 S
Sc68 O86 2.105 . S
O69 Sc66 2.025 . S
O69 Sc67 2.025 . S
O69 Sc68 2.025 . S
C70 O76 1.268 . S
C70 O86 1.268 . S
C71 O77 1.268 . S
C71 O85 1.268 . S
C72 O78 1.268 . S
C72 O87 1.268 . S
C73 O79 1.268 . S
C73 O83 1.268 . S
C74 O80 1.268 . S
C74 O82 1.268 . S
C75 O81 1.268 . S
C75 O84 1.268 . S
O76 Sc66 2.105 . S
O76 C70 1.268 . S
O77 Sc67 2.105 . S
O77 C71 1.268 . S
O78 Sc68 2.105 . S
O78 C72 1.268 . S
O79 Sc66 2.105 1_655 S
O79 C73 1.268 . S
O80 Sc68 2.105 1_655 S
O80 C74 1.268 . S
O81 Sc67 2.105 1_655 S
O81 C75 1.268 . S
O82 Sc66 2.105 1_655 S
O82 C74 1.268 . S
O83 Sc67 2.105 1_655 S
O83 C73 1.268 . S
O84 Sc68 2.105 1_655 S
O84 C75 1.268 . S
O85 Sc66 2.105 . S
O85 C71 1.268 . S
O86 Sc68 2.105 . S
O86 C70 1.268 . S
O87 Sc67 2.105 . S
O87 C72 1.268 . S
Sc88 O91 2.025 . S
Sc88 O98 2.105 . S
Sc88 O101 2.105 . S
Sc88 O104 2.105 . S
Sc88 O107 2.105 . S
Sc89 O91 2.025 . S
Sc89 O99 2.105 . S
Sc89 O103 2.105 . S
Sc89 O105 2.105 . S
Sc89 O109 2.105 . S
Sc90 O91 2.025 . S
Sc90 O100 2.105 . S
Sc90 O102 2.105 . S
Sc90 O106 2.105 . S
Sc90 O108 2.105 . S
O91 Sc88 2.025 . S
O91 Sc89 2.025 . S
O91 Sc90 2.025 . S
C92 O98 1.268 . S
C92 O108 1.268 . S
C93 O99 1.268 . S
C93 O107 1.268 . S
C94 O100 1.268 . S
C94 O109 1.268 . S
C95 O101 1.268 . S
C95 O105 1.268 . S
C96 O102 1.268 . S
C96 O104 1.268 . S
C97 O103 1.268 . S
C97 O106 1.268 . S
O98 Sc88 2.105 . S
O98 C92 1.268 . S
O99 Sc89 2.105 . S
O99 C93 1.268 . S
O100 Sc90 2.105 . S
O100 C94 1.268 . S
O101 Sc88 2.105 . S
O101 C95 1.268 . S
O102 Sc90 2.105 . S
O102 C96 1.268 . S
O103 Sc89 2.105 . S
O103 C97 1.268 . S
O104 Sc88 2.105 . S
O104 C96 1.268 . S
O105 Sc89 2.105 . S
O105 C95 1.268 . S
O106 Sc90 2.105 . S
O106 C97 1.268 . S
O107 Sc88 2.105 . S
O107 C93 1.268 . S
O108 Sc90 2.105 . S
O108 C92 1.268 . S
O109 Sc89 2.105 . S
O109 C94 1.268 . S
Sc110 O113 2.025 . S
Sc110 O120 2.105 1_545 S
Sc110 O123 2.105 . S
Sc110 O126 2.105 . S
Sc110 O129 2.105 1_545 S
Sc111 O113 2.025 . S
Sc111 O121 2.105 1_545 S
Sc111 O125 2.105 . S
Sc111 O127 2.105 . S
Sc111 O131 2.105 1_545 S
Sc112 O113 2.025 . S
Sc112 O122 2.105 1_545 S
Sc112 O124 2.105 . S
Sc112 O128 2.105 . S
Sc112 O130 2.105 1_545 S
O113 Sc110 2.025 . S
O113 Sc111 2.025 . S
O113 Sc112 2.025 . S
C114 O120 1.268 . S
C114 O130 1.268 . S
C115 O121 1.268 . S
C115 O129 1.268 . S
C116 O122 1.268 . S
C116 O131 1.268 . S
C117 O123 1.268 . S
C117 O127 1.268 . S
C118 O124 1.268 . S
C118 O126 1.268 . S
C119 O125 1.268 . S
C119 O128 1.268 . S
O120 Sc110 2.105 1_565 S
O120 C114 1.268 . S
O121 Sc111 2.105 1_565 S
O121 C115 1.268 . S
O122 Sc112 2.105 1_565 S
O122 C116 1.268 . S
O123 Sc110 2.105 . S
O123 C117 1.268 . S
O124 Sc112 2.105 . S
O124 C118 1.268 . S
O125 Sc111 2.105 . S
O125 C119 1.268 . S
O126 Sc110 2.105 . S
O126 C118 1.268 . S
O127 Sc111 2.105 . S
O127 C117 1.268 . S
O128 Sc112 2.105 . S
O128 C119 1.268 . S
O129 Sc110 2.105 1_565 S
O129 C115 1.268 . S
O130 Sc112 2.105 1_565 S
O130 C114 1.268 . S
O131 Sc111 2.105 1_565 S
O131 C116 1.268 . S
Sc132 O135 2.025 . S
Sc132 O142 2.105 1_554 S
Sc132 O145 2.105 . S
Sc132 O148 2.105 . S
Sc132 O151 2.105 . S
Sc133 O135 2.025 . S
Sc133 O143 2.105 . S
Sc133 O147 2.105 . S
Sc133 O149 2.105 . S
Sc133 O153 2.105 . S
Sc134 O135 2.025 1_556 S
Sc134 O144 2.105 1_556 S
Sc134 O146 2.105 . S
Sc134 O150 2.105 1_556 S
Sc134 O152 2.105 . S
O135 Sc132 2.025 . S
O135 Sc133 2.025 . S
O135 Sc134 2.025 1_554 S
C136 O142 1.268 . S
C136 O152 1.268 . S
C137 O143 1.268 . S
C137 O151 1.268 . S
C138 O144 1.268 . S
C138 O153 1.268 . S
C139 O145 1.268 . S
C139 O149 1.268 . S
C140 O146 1.268 . S
C140 O148 1.268 1_556 S
C141 O147 1.268 . S
C141 O150 1.268 . S
O142 Sc132 2.105 1_556 S
O142 C136 1.268 . S
O143 Sc133 2.105 . S
O143 C137 1.268 . S
O144 Sc134 2.105 1_554 S
O144 C138 1.268 . S
O145 Sc132 2.105 . S
O145 C139 1.268 . S
O146 Sc134 2.105 . S
O146 C140 1.268 . S
O147 Sc133 2.105 . S
O147 C141 1.268 . S
O148 Sc132 2.105 . S
O148 C140 1.268 1_554 S
O149 Sc133 2.105 . S
O149 C139 1.268 . S
O150 Sc134 2.105 1_554 S
O150 C141 1.268 . S
O151 Sc132 2.105 . S
O151 C137 1.268 . S
O152 Sc134 2.105 . S
O152 C136 1.268 . S
O153 Sc133 2.105 . S
O153 C138 1.268 . S
Sc154 O157 2.025 . S
Sc154 O164 2.105 1_554 S
Sc154 O167 2.105 . S
Sc154 O170 2.105 . S
Sc154 O173 2.105 . S
Sc155 O157 2.025 . S
Sc155 O165 2.105 . S
Sc155 O169 2.105 . S
Sc155 O171 2.105 . S
Sc155 O175 2.105 . S
Sc156 O157 2.025 1_556 S
Sc156 O166 2.105 1_556 S
Sc156 O168 2.105 . S
Sc156 O172 2.105 1_556 S
Sc156 O174 2.105 . S
O157 Sc154 2.025 . S
O157 Sc155 2.025 . S
O157 Sc156 2.025 1_554 S
C158 O164 1.268 . S
C158 O174 1.268 . S
C159 O165 1.268 . S
C159 O173 1.268 . S
C160 O166 1.268 . S
C160 O175 1.268 . S
C161 O167 1.268 . S
C161 O171 1.268 . S
C162 O168 1.268 . S
C162 O170 1.268 1_556 S
C163 O169 1.268 . S
C163 O172 1.268 . S
O164 Sc154 2.105 1_556 S
O164 C158 1.268 . S
O165 Sc155 2.105 . S
O165 C159 1.268 . S
O166 Sc156 2.105 1_554 S
O166 C160 1.268 . S
O167 Sc154 2.105 . S
O167 C161 1.268 . S
O168 Sc156 2.105 . S
O168 C162 1.268 . S
O169 Sc155 2.105 . S
O169 C163 1.268 . S
O170 Sc154 2.105 . S
O170 C162 1.268 1_554 S
O171 Sc155 2.105 . S
O171 C161 1.268 . S
O172 Sc156 2.105 1_554 S
O172 C163 1.268 . S
O173 Sc154 2.105 . S
O173 C159 1.268 . S
O174 Sc156 2.105 . S
O174 C158 1.268 . S
O175 Sc155 2.105 . S
O175 C160 1.268 . S
Sc176 O179 2.025 . S
Sc176 O186 2.105 1_554 S
Sc176 O189 2.105 . S
Sc176 O192 2.105 . S
Sc176 O195 2.105 . S
Sc177 O179 2.025 . S
Sc177 O187 2.105 . S
Sc177 O191 2.105 . S
Sc177 O193 2.105 . S
Sc177 O197 2.105 . S
Sc178 O179 2.025 1_556 S
Sc178 O188 2.105 1_556 S
Sc178 O190 2.105 . S
Sc178 O194 2.105 1_556 S
Sc178 O196 2.105 . S
O179 Sc176 2.025 . S
O179 Sc177 2.025 . S
O179 Sc178 2.025 1_554 S
C180 O186 1.268 . S
C180 O196 1.268 . S
C181 O187 1.268 . S
C181 O195 1.268 . S
C182 O188 1.268 . S
C182 O197 1.268 . S
C183 O189 1.268 . S
C183 O193 1.268 . S
C184 O190 1.268 . S
C184 O192 1.268 1_556 S
C185 O191 1.268 . S
C185 O194 1.268 . S
O186 Sc176 2.105 1_556 S
O186 C180 1.268 . S
O187 Sc177 2.105 . S
O187 C181 1.268 . S
O188 Sc178 2.105 1_554 S
O188 C182 1.268 . S
O189 Sc176 2.105 . S
O189 C183 1.268 . S
O190 Sc178 2.105 . S
O190 C184 1.268 . S
O191 Sc177 2.105 . S
O191 C185 1.268 . S
O192 Sc176 2.105 . S
O192 C184 1.268 1_554 S
O193 Sc177 2.105 . S
O193 C183 1.268 . S
O194 Sc178 2.105 1_554 S
O194 C185 1.268 . S
O195 Sc176 2.105 . S
O195 C181 1.268 . S
O196 Sc178 2.105 . S
O196 C180 1.268 . S
O197 Sc177 2.105 . S
O197 C182 1.268 . S
Sc198 O201 2.025 . S
Sc198 O208 2.105 . S
Sc198 O211 2.105 . S
Sc198 O214 2.105 . S
Sc198 O217 2.105 . S
Sc199 O201 2.025 . S
Sc199 O209 2.105 . S
Sc199 O213 2.105 . S
Sc199 O215 2.105 . S
Sc199 O219 2.105 . S
Sc200 O201 2.025 . S
Sc200 O210 2.105 . S
Sc200 O212 2.105 . S
Sc200 O216 2.105 . S
Sc200 O218 2.105 . S
O201 Sc198 2.025 . S
O201 Sc199 2.025 . S
O201 Sc200 2.025 . S
C202 O208 1.268 . S
C202 O218 1.268 . S
C203 O209 1.268 . S
C203 O217 1.268 . S
C204 O210 1.268 . S
C204 O219 1.268 . S
C205 O211 1.268 . S
C205 O215 1.268 . S
C206 O212 1.268 . S
C206 O214 1.268 . S
C207 O213 1.268 . S
C207 O216 1.268 . S
O208 Sc198 2.105 . S
O208 C202 1.268 . S
O209 Sc199 2.105 . S
O209 C203 1.268 . S
O210 Sc200 2.105 . S
O210 C204 1.268 . S
O211 Sc198 2.105 . S
O211 C205 1.268 . S
O212 Sc200 2.105 . S
O212 C206 1.268 . S
O213 Sc199 2.105 . S
O213 C207 1.268 . S
O214 Sc198 2.105 . S
O214 C206 1.268 . S
O215 Sc199 2.105 . S
O215 C205 1.268 . S
O216 Sc200 2.105 . S
O216 C207 1.268 . S
O217 Sc198 2.105 . S
O217 C203 1.268 . S
O218 Sc200 2.105 . S
O218 C202 1.268 . S
O219 Sc199 2.105 . S
O219 C204 1.268 . S
Sc220 O223 2.025 . S
Sc220 O230 2.105 . S
Sc220 O233 2.105 . S
Sc220 O236 2.105 . S
Sc220 O239 2.105 . S
Sc221 O223 2.025 . S
Sc221 O231 2.105 . S
Sc221 O235 2.105 . S
Sc221 O237 2.105 . S
Sc221 O241 2.105 . S
Sc222 O223 2.025 . S
Sc222 O232 2.105 . S
Sc222 O234 2.105 . S
Sc222 O238 2.105 . S
Sc222 O240 2.105 . S
O223 Sc220 2.025 . S
O223 Sc221 2.025 . S
O223 Sc222 2.025 . S
C224 O230 1.268 . S
C224 O240 1.268 . S
C225 O231 1.268 . S
C225 O239 1.268 . S
C226 O232 1.268 . S
C226 O241 1.268 . S
C227 O233 1.268 . S
C227 O237 1.268 . S
C228 O234 1.268 . S
C228 O236 1.268 . S
C229 O235 1.268 . S
C229 O238 1.268 . S
O230 Sc220 2.105 . S
O230 C224 1.268 . S
O231 Sc221 2.105 . S
O231 C225 1.268 . S
O232 Sc222 2.105 . S
O232 C226 1.268 . S
O233 Sc220 2.105 . S
O233 C227 1.268 . S
O234 Sc222 2.105 . S
O234 C228 1.268 . S
O235 Sc221 2.105 . S
O235 C229 1.268 . S
O236 Sc220 2.105 . S
O236 C228 1.268 . S
O237 Sc221 2.105 . S
O237 C227 1.268 . S
O238 Sc222 2.105 . S
O238 C229 1.268 . S
O239 Sc220 2.105 . S
O239 C225 1.268 . S
O240 Sc222 2.105 . S
O240 C224 1.268 . S
O241 Sc221 2.105 . S
O241 C226 1.268 . S
Sc242 O245 2.025 . S
Sc242 O252 2.105 . S
Sc242 O255 2.105 . S
Sc242 O258 2.105 . S
Sc242 O261 2.105 . S
Sc243 O245 2.025 . S
Sc243 O253 2.105 . S
Sc243 O257 2.105 . S
Sc243 O259 2.105 . S
Sc243 O263 2.105 . S
Sc244 O245 2.025 . S
Sc244 O254 2.105 . S
Sc244 O256 2.105 . S
Sc244 O260 2.105 . S
Sc244 O262 2.105 . S
O245 Sc242 2.025 . S
O245 Sc243 2.025 . S
O245 Sc244 2.025 . S
C246 O252 1.268 . S
C246 O262 1.268 . S
C247 O253 1.268 . S
C247 O261 1.268 . S
C248 O254 1.268 . S
C248 O263 1.268 . S
C249 O255 1.268 . S
C249 O259 1.268 . S
C250 O256 1.268 . S
C250 O258 1.268 . S
C251 O257 1.268 . S
C251 O260 1.268 . S
O252 Sc242 2.105 . S
O252 C246 1.268 . S
O253 Sc243 2.105 . S
O253 C247 1.268 . S
O254 Sc244 2.105 . S
O254 C248 1.268 . S
O255 Sc242 2.105 . S
O255 C249 1.268 . S
O256 Sc244 2.105 . S
O256 C250 1.268 . S
O257 Sc243 2.105 . S
O257 C251 1.268 . S
O258 Sc242 2.105 . S
O258 C250 1.268 . S
O259 Sc243 2.105 . S
O259 C249 1.268 . S
O260 Sc244 2.105 . S
O260 C251 1.268 . S
O261 Sc242 2.105 . S
O261 C247 1.268 . S
O262 Sc244 2.105 . S
O262 C246 1.268 . S
O263 Sc243 2.105 . S
O263 C248 1.268 . S
Sc264 O267 2.025 . S
Sc264 O274 2.105 . S
Sc264 O277 2.105 . S
Sc264 O280 2.105 . S
Sc264 O283 2.105 . S
Sc265 O267 2.025 . S
Sc265 O275 2.105 . S
Sc265 O279 2.105 . S
Sc265 O281 2.105 . S
Sc265 O285 2.105 . S
Sc266 O267 2.025 . S
Sc266 O276 2.105 . S
Sc266 O278 2.105 . S
Sc266 O282 2.105 . S
Sc266 O284 2.105 . S
O267 Sc264 2.025 . S
O267 Sc265 2.025 . S
O267 Sc266 2.025 . S
C268 O274 1.268 . S
C268 O284 1.268 . S
C269 O275 1.268 . S
C269 O283 1.268 . S
C270 O276 1.268 . S
C270 O285 1.268 . S
C271 O277 1.268 . S
C271 O281 1.268 . S
C272 O278 1.268 . S
C272 O280 1.268 . S
C273 O279 1.268 . S
C273 O282 1.268 . S
O274 Sc264 2.105 . S
O274 C268 1.268 . S
O275 Sc265 2.105 . S
O275 C269 1.268 . S
O276 Sc266 2.105 . S
O276 C270 1.268 . S
O277 Sc264 2.105 . S
O277 C271 1.268 . S
O278 Sc266 2.105 . S
O278 C272 1.268 . S
O279 Sc265 2.105 . S
O279 C273 1.268 . S
O280 Sc264 2.105 . S
O280 C272 1.268 . S
O281 Sc265 2.105 . S
O281 C271 1.268 . S
O282 Sc266 2.105 . S
O282 C273 1.268 . S
O283 Sc264 2.105 . S
O283 C269 1.268 . S
O284 Sc266 2.105 . S
O284 C268 1.268 . S
O285 Sc265 2.105 . S
O285 C270 1.268 . S
Sc286 O289 2.025 . S
Sc286 O296 2.105 . S
Sc286 O299 2.105 . S
Sc286 O302 2.105 . S
Sc286 O305 2.105 . S
Sc287 O289 2.025 . S
Sc287 O297 2.105 . S
Sc287 O301 2.105 . S
Sc287 O303 2.105 . S
Sc287 O307 2.105 . S
Sc288 O289 2.025 . S
Sc288 O298 2.105 . S
Sc288 O300 2.105 . S
Sc288 O304 2.105 . S
Sc288 O306 2.105 . S
O289 Sc286 2.025 . S
O289 Sc287 2.025 . S
O289 Sc288 2.025 . S
C290 O296 1.268 . S
C290 O306 1.268 . S
C291 O297 1.268 . S
C291 O305 1.268 . S
C292 O298 1.268 . S
C292 O307 1.268 . S
C293 O299 1.268 . S
C293 O303 1.268 . S
C294 O300 1.268 . S
C294 O302 1.268 . S
C295 O301 1.268 . S
C295 O304 1.268 . S
O296 Sc286 2.105 . S
O296 C290 1.268 . S
O297 Sc287 2.105 . S
O297 C291 1.268 . S
O298 Sc288 2.105 . S
O298 C292 1.268 . S
O299 Sc286 2.105 . S
O299 C293 1.268 . S
O300 Sc288 2.105 . S
O300 C294 1.268 . S
O301 Sc287 2.105 . S
O301 C295 1.268 . S
O302 Sc286 2.105 . S
O302 C294 1.268 . S
O303 Sc287 2.105 . S
O303 C293 1.268 . S
O304 Sc288 2.105 . S
O304 C295 1.268 . S
O305 Sc286 2.105 . S
O305 C291 1.268 . S
O306 Sc288 2.105 . S
O306 C290 1.268 . S
O307 Sc287 2.105 . S
O307 C292 1.268 . S
Sc308 O311 2.025 . S
Sc308 O318 2.105 . S
Sc308 O321 2.105 . S
Sc308 O324 2.105 . S
Sc308 O327 2.105 . S
Sc309 O311 2.025 . S
Sc309 O319 2.105 . S
Sc309 O323 2.105 . S
Sc309 O325 2.105 . S
Sc309 O329 2.105 . S
Sc310 O311 2.025 . S
Sc310 O320 2.105 . S
Sc310 O322 2.105 . S
Sc310 O326 2.105 . S
Sc310 O328 2.105 . S
O311 Sc308 2.025 . S
O311 Sc309 2.025 . S
O311 Sc310 2.025 . S
C312 O318 1.268 . S
C312 O328 1.268 . S
C313 O319 1.268 . S
C313 O327 1.268 . S
C314 O320 1.268 . S
C314 O329 1.268 . S
C315 O321 1.268 . S
C315 O325 1.268 . S
C316 O322 1.268 . S
C316 O324 1.268 . S
C317 O323 1.268 . S
C317 O326 1.268 . S
O318 Sc308 2.105 . S
O318 C312 1.268 . S
O319 Sc309 2.105 . S
O319 C313 1.268 . S
O320 Sc310 2.105 . S
O320 C314 1.268 . S
O321 Sc308 2.105 . S
O321 C315 1.268 . S
O322 Sc310 2.105 . S
O322 C316 1.268 . S
O323 Sc309 2.105 . S
O323 C317 1.268 . S
O324 Sc308 2.105 . S
O324 C316 1.268 . S
O325 Sc309 2.105 . S
O325 C315 1.268 . S
O326 Sc310 2.105 . S
O326 C317 1.268 . S
O327 Sc308 2.105 . S
O327 C313 1.268 . S
O328 Sc310 2.105 . S
O328 C312 1.268 . S
O329 Sc309 2.105 . S
O329 C314 1.268 . S
Sc330 O333 2.025 . S
Sc330 O340 2.105 . S
Sc330 O343 2.105 . S
Sc330 O346 2.105 1_556 S
Sc330 O349 2.105 . S
Sc331 O333 2.025 . S
Sc331 O341 2.105 . S
Sc331 O345 2.105 . S
Sc331 O347 2.105 . S
Sc331 O351 2.105 . S
Sc332 O333 2.025 1_554 S
Sc332 O342 2.105 1_554 S
Sc332 O344 2.105 . S
Sc332 O348 2.105 1_554 S
Sc332 O350 2.105 . S
O333 Sc330 2.025 . S
O333 Sc331 2.025 . S
O333 Sc332 2.025 1_556 S
C334 O340 1.268 1_554 S
C334 O350 1.268 . S
C335 O341 1.268 . S
C335 O349 1.268 . S
C336 O342 1.268 . S
C336 O351 1.268 . S
C337 O343 1.268 . S
C337 O347 1.268 . S
C338 O344 1.268 . S
C338 O346 1.268 . S
C339 O345 1.268 . S
C339 O348 1.268 . S
O340 Sc330 2.105 . S
O340 C334 1.268 1_556 S
O341 Sc331 2.105 . S
O341 C335 1.268 . S
O342 Sc332 2.105 1_556 S
O342 C336 1.268 . S
O343 Sc330 2.105 . S
O343 C337 1.268 . S
O344 Sc332 2.105 . S
O344 C338 1.268 . S
O345 Sc331 2.105 . S
O345 C339 1.268 . S
O346 Sc330 2.105 1_554 S
O346 C338 1.268 . S
O347 Sc331 2.105 . S
O347 C337 1.268 . S
O348 Sc332 2.105 1_556 S
O348 C339 1.268 . S
O349 Sc330 2.105 . S
O349 C335 1.268 . S
O350 Sc332 2.105 . S
O350 C334 1.268 . S
O351 Sc331 2.105 . S
O351 C336 1.268 . S
Sc352 O355 2.025 . S
Sc352 O362 2.105 . S
Sc352 O365 2.105 . S
Sc352 O368 2.105 . S
Sc352 O371 2.105 . S
Sc353 O355 2.025 1_554 S
Sc353 O363 2.105 1_554 S
Sc353 O367 2.105 . S
Sc353 O369 2.105 1_554 S
Sc353 O373 2.105 . S
Sc354 O355 2.025 . S
Sc354 O364 2.105 . S
Sc354 O366 2.105 . S
Sc354 O370 2.105 1_556 S
Sc354 O372 2.105 . S
O355 Sc352 2.025 . S
O355 Sc353 2.025 1_556 S
O355 Sc354 2.025 . S
C356 O362 1.268 . S
C356 O372 1.268 . S
C357 O363 1.268 . S
C357 O371 1.268 . S
C358 O364 1.268 1_554 S
C358 O373 1.268 . S
C359 O365 1.268 . S
C359 O369 1.268 . S
C360 O366 1.268 . S
C360 O368 1.268 . S
C361 O367 1.268 . S
C361 O370 1.268 . S
O362 Sc352 2.105 . S
O362 C356 1.268 . S
O363 Sc353 2.105 1_556 S
O363 C357 1.268 . S
O364 Sc354 2.105 . S
O364 C358 1.268 1_556 S
O365 Sc352 2.105 . S
O365 C359 1.268 . S
O366 Sc354 2.105 . S
O366 C360 1.268 . S
O367 Sc353 2.105 . S
O367 C361 1.268 . S
O368 Sc352 2.105 . S
O368 C360 1.268 . S
O369 Sc353 2.105 1_556 S
O369 C359 1.268 . S
O370 Sc354 2.105 1_554 S
O370 C361 1.268 . S
O371 Sc352 2.105 . S
O371 C357 1.268 . S
O372 Sc354 2.105 . S
O372 C356 1.268 . S
O373 Sc353 2.105 . S
O373 C358 1.268 . S
Sc374 O377 2.025 . S
Sc374 O384 2.105 . S
Sc374 O387 2.105 . S
Sc374 O390 2.105 . S
Sc374 O393 2.105 . S
Sc375 O377 2.025 1_554 S
Sc375 O385 2.105 1_554 S
Sc375 O389 2.105 . S
Sc375 O391 2.105 1_554 S
Sc375 O395 2.105 . S
Sc376 O377 2.025 . S
Sc376 O386 2.105 . S
Sc376 O388 2.105 . S
Sc376 O392 2.105 1_556 S
Sc376 O394 2.105 . S
O377 Sc374 2.025 . S
O377 Sc375 2.025 1_556 S
O377 Sc376 2.025 . S
C378 O384 1.268 . S
C378 O394 1.268 . S
C379 O385 1.268 . S
C379 O393 1.268 . S
C380 O386 1.268 1_554 S
C380 O395 1.268 . S
C381 O387 1.268 . S
C381 O391 1.268 . S
C382 O388 1.268 . S
C382 O390 1.268 . S
C383 O389 1.268 . S
C383 O392 1.268 . S
O384 Sc374 2.105 . S
O384 C378 1.268 . S
O385 Sc375 2.105 1_556 S
O385 C379 1.268 . S
O386 Sc376 2.105 . S
O386 C380 1.268 1_556 S
O387 Sc374 2.105 . S
O387 C381 1.268 . S
O388 Sc376 2.105 . S
O388 C382 1.268 . S
O389 Sc375 2.105 . S
O389 C383 1.268 . S
O390 Sc374 2.105 . S
O390 C382 1.268 . S
O391 Sc375 2.105 1_556 S
O391 C381 1.268 . S
O392 Sc376 2.105 1_554 S
O392 C383 1.268 . S
O393 Sc374 2.105 . S
O393 C379 1.268 . S
O394 Sc376 2.105 . S
O394 C378 1.268 . S
O395 Sc375 2.105 . S
O395 C380 1.268 . S
C396 C397 1.391 . S
C396 C398 1.394 . S
C396 H412 0.931 . S
C397 C396 1.391 . S
C397 C401 1.376 . S
C398 C396 1.394 . S
C398 C399 1.369 . S
C398 C402 1.531 . S
C399 C398 1.369 . S
C399 C400 1.410 . S
C399 C407 1.503 . S
C400 C399 1.410 . S
C400 C401 1.392 . S
C400 C403 1.511 . S
C401 C397 1.376 . S
C401 C400 1.392 . S
C401 H413 0.929 . S
C402 C398 1.531 . S
C402 H414 0.960 . S
C402 H415 0.962 . S
C402 H416 0.960 . S
C403 C400 1.511 . S
C403 H417 0.961 . S
C403 H418 0.961 . S
C403 H419 0.961 . S
C404 C405 1.370 . S
C404 C406 1.363 . S
C404 H420 0.931 . S
C405 C404 1.370 . S
C405 C409 1.408 . S
C406 C404 1.363 . S
C406 C407 1.370 . S
C406 C410 1.524 . S
C407 C399 1.503 . S
C407 C406 1.370 . S
C407 C408 1.403 . S
C408 C407 1.403 . S
C408 C409 1.404 . S
C408 C411 1.539 . S
C409 C405 1.408 . S
C409 C408 1.404 . S
C409 H421 0.930 . S
C410 C406 1.524 . S
C410 H422 0.956 . S
C410 H423 0.961 . S
C410 H424 0.961 . S
C411 C408 1.539 . S
C411 H425 0.958 . S
C411 H426 0.961 . S
C411 H427 0.960 . S
H412 C396 0.931 . S
H413 C401 0.929 . S
H414 C402 0.960 . S
H415 C402 0.962 . S
H416 C402 0.960 . S
H417 C403 0.961 . S
H418 C403 0.961 . S
H419 C403 0.961 . S
H420 C404 0.931 . S
H421 C409 0.930 . S
H422 C410 0.956 . S
H423 C410 0.961 . S
H424 C410 0.961 . S
H425 C411 0.958 . S
H426 C411 0.961 . S
H427 C411 0.960 . S
C428 C429 1.391 . S
C428 C430 1.394 . S
C428 H444 0.931 . S
C429 C428 1.391 . S
C429 C433 1.376 . S
C430 C428 1.394 . S
C430 C431 1.369 . S
C430 C434 1.531 . S
C431 C430 1.369 . S
C431 C432 1.410 . S
C431 C439 1.503 . S
C432 C431 1.410 . S
C432 C433 1.392 . S
C432 C435 1.511 . S
C433 C429 1.376 . S
C433 C432 1.392 . S
C433 H445 0.929 . S
C434 C430 1.531 . S
C434 H446 0.960 . S
C434 H447 0.962 . S
C434 H448 0.960 . S
C435 C432 1.511 . S
C435 H449 0.961 . S
C435 H450 0.961 . S
C435 H451 0.961 . S
C436 C437 1.370 . S
C436 C438 1.363 . S
C436 H452 0.931 . S
C437 C436 1.370 . S
C437 C441 1.408 . S
C438 C436 1.363 . S
C438 C439 1.370 . S
C438 C442 1.524 . S
C439 C431 1.503 . S
C439 C438 1.370 . S
C439 C440 1.403 . S
C440 C439 1.403 . S
C440 C441 1.404 . S
C440 C443 1.539 . S
C441 C437 1.408 . S
C441 C440 1.404 . S
C441 H453 0.930 . S
C442 C438 1.524 . S
C442 H454 0.956 . S
C442 H455 0.961 . S
C442 H456 0.961 . S
C443 C440 1.539 . S
C443 H457 0.958 . S
C443 H458 0.961 . S
C443 H459 0.960 . S
H444 C428 0.931 . S
H445 C433 0.929 . S
H446 C434 0.960 . S
H447 C434 0.962 . S
H448 C434 0.960 . S
H449 C435 0.961 . S
H450 C435 0.961 . S
H451 C435 0.961 . S
H452 C436 0.931 . S
H453 C441 0.930 . S
H454 C442 0.956 . S
H455 C442 0.961 . S
H456 C442 0.961 . S
H457 C443 0.958 . S
H458 C443 0.961 . S
H459 C443 0.960 . S
C460 C461 1.391 . S
C460 C462 1.394 . S
C460 H476 0.931 . S
C461 C460 1.391 . S
C461 C465 1.376 . S
C462 C460 1.394 . S
C462 C463 1.369 . S
C462 C466 1.531 . S
C463 C462 1.369 . S
C463 C464 1.410 . S
C463 C471 1.503 . S
C464 C463 1.410 . S
C464 C465 1.392 . S
C464 C467 1.511 . S
C465 C461 1.376 . S
C465 C464 1.392 . S
C465 H477 0.929 . S
C466 C462 1.531 . S
C466 H478 0.960 . S
C466 H479 0.962 . S
C466 H480 0.960 . S
C467 C464 1.511 . S
C467 H481 0.961 . S
C467 H482 0.961 . S
C467 H483 0.961 . S
C468 C469 1.370 . S
C468 C470 1.363 . S
C468 H484 0.931 . S
C469 C468 1.370 . S
C469 C473 1.408 . S
C470 C468 1.363 . S
C470 C471 1.370 . S
C470 C474 1.524 . S
C471 C463 1.503 . S
C471 C470 1.370 . S
C471 C472 1.403 . S
C472 C471 1.403 . S
C472 C473 1.404 . S
C472 C475 1.539 . S
C473 C469 1.408 . S
C473 C472 1.404 . S
C473 H485 0.930 . S
C474 C470 1.524 . S
C474 H486 0.956 . S
C474 H487 0.961 . S
C474 H488 0.961 . S
C475 C472 1.539 . S
C475 H489 0.958 . S
C475 H490 0.961 . S
C475 H491 0.960 . S
H476 C460 0.931 . S
H477 C465 0.929 . S
H478 C466 0.960 . S
H479 C466 0.962 . S
H480 C466 0.960 . S
H481 C467 0.961 . S
H482 C467 0.961 . S
H483 C467 0.961 . S
H484 C468 0.931 . S
H485 C473 0.930 . S
H486 C474 0.956 . S
H487 C474 0.961 . S
H488 C474 0.961 . S
H489 C475 0.958 . S
H490 C475 0.961 . S
H491 C475 0.960 . S
C492 C493 1.391 . S
C492 C494 1.394 . S
C492 H508 0.931 . S
C493 C492 1.391 . S
C493 C497 1.376 . S
C494 C492 1.394 . S
C494 C495 1.369 . S
C494 C498 1.531 . S
C495 C494 1.369 . S
C495 C496 1.410 . S
C495 C503 1.503 1_556 S
C496 C495 1.410 . S
C496 C497 1.392 . S
C496 C499 1.511 . S
C497 C493 1.376 . S
C497 C496 1.392 . S
C497 H509 0.929 . S
C498 C494 1.531 . S
C498 H510 0.960 . S
C498 H511 0.962 1_556 S
C498 H512 0.960 . S
C499 C496 1.511 . S
C499 H513 0.961 1_556 S
C499 H514 0.961 1_556 S
C499 H515 0.961 . S
C500 C501 1.370 . S
C500 C502 1.363 . S
C500 H516 0.931 . S
C501 C500 1.370 . S
C501 C505 1.408 . S
C502 C500 1.363 . S
C502 C503 1.370 . S
C502 C506 1.524 . S
C503 C495 1.503 1_554 S
C503 C502 1.370 . S
C503 C504 1.403 1_554 S
C504 C503 1.403 1_556 S
C504 C505 1.404 1_556 S
C504 C507 1.539 . S
C505 C501 1.408 . S
C505 C504 1.404 1_554 S
C505 H517 0.930 . S
C506 C502 1.524 . S
C506 H518 0.956 . S
C506 H519 0.961 . S
C506 H520 0.961 . S
C507 C504 1.539 . S
C507 H521 0.958 . S
C507 H522 0.961 . S
C507 H523 0.960 . S
H508 C492 0.931 . S
H509 C497 0.929 . S
H510 C498 0.960 . S
H511 C498 0.962 1_554 S
H512 C498 0.960 . S
H513 C499 0.961 1_554 S
H514 C499 0.961 1_554 S
H515 C499 0.961 . S
H516 C500 0.931 . S
H517 C505 0.930 . S
H518 C506 0.956 . S
H519 C506 0.961 . S
H520 C506 0.961 . S
H521 C507 0.958 . S
H522 C507 0.961 . S
H523 C507 0.960 . S
C524 C525 1.391 . S
C524 C526 1.394 . S
C524 H540 0.931 . S
C525 C524 1.391 . S
C525 C529 1.376 . S
C526 C524 1.394 . S
C526 C527 1.369 . S
C526 C530 1.531 1_554 S
C527 C526 1.369 . S
C527 C528 1.410 . S
C527 C535 1.503 . S
C528 C527 1.410 . S
C528 C529 1.392 . S
C528 C531 1.511 . S
C529 C525 1.376 . S
C529 C528 1.392 . S
C529 H541 0.929 . S
C530 C526 1.531 1_556 S
C530 H542 0.960 . S
C530 H543 0.962 . S
C530 H544 0.960 1_556 S
C531 C528 1.511 . S
C531 H545 0.961 . S
C531 H546 0.961 . S
C531 H547 0.961 . S
C532 C533 1.370 . S
C532 C534 1.363 . S
C532 H548 0.931 . S
C533 C532 1.370 . S
C533 C537 1.408 . S
C534 C532 1.363 . S
C534 C535 1.370 1_556 S
C534 C538 1.524 . S
C535 C527 1.503 . S
C535 C534 1.370 1_554 S
C535 C536 1.403 . S
C536 C535 1.403 . S
C536 C537 1.404 1_554 S
C536 C539 1.539 . S
C537 C533 1.408 . S
C537 C536 1.404 1_556 S
C537 H549 0.930 1_556 S
C538 C534 1.524 . S
C538 H550 0.956 . S
C538 H551 0.961 . S
C538 H552 0.961 . S
C539 C536 1.539 . S
C539 H553 0.958 . S
C539 H554 0.961 . S
C539 H555 0.960 . S
H540 C524 0.931 . S
H541 C529 0.929 . S
H542 C530 0.960 . S
H543 C530 0.962 . S
H544 C530 0.960 1_554 S
H545 C531 0.961 . S
H546 C531 0.961 . S
H547 C531 0.961 . S
H548 C532 0.931 . S
H549 C537 0.930 1_554 S
H550 C538 0.956 . S
H551 C538 0.961 . S
H552 C538 0.961 . S
H553 C539 0.958 . S
H554 C539 0.961 . S
H555 C539 0.960 . S
C556 C557 1.391 . S
C556 C558 1.394 . S
C556 H572 0.931 . S
C557 C556 1.391 . S
C557 C561 1.376 . S
C558 C556 1.394 . S
C558 C559 1.369 . S
C558 C562 1.531 . S
C559 C558 1.369 . S
C559 C560 1.410 1_556 S
C559 C567 1.503 1_556 S
C560 C559 1.410 1_554 S
C560 C561 1.392 1_554 S
C560 C563 1.511 . S
C561 C557 1.376 . S
C561 C560 1.392 1_556 S
C561 H573 0.929 . S
C562 C558 1.531 . S
C562 H574 0.960 . S
C562 H575 0.962 . S
C562 H576 0.960 . S
C563 C560 1.511 . S
C563 H577 0.961 . S
C563 H578 0.961 . S
C563 H579 0.961 . S
C564 C565 1.370 . S
C564 C566 1.363 . S
C564 H580 0.931 . S
C565 C564 1.370 . S
C565 C569 1.408 . S
C566 C564 1.363 . S
C566 C567 1.370 . S
C566 C570 1.524 . S
C567 C559 1.503 1_554 S
C567 C566 1.370 . S
C567 C568 1.403 . S
C568 C567 1.403 . S
C568 C569 1.404 . S
C568 C571 1.539 1_554 S
C569 C565 1.408 . S
C569 C568 1.404 . S
C569 H581 0.930 . S
C570 C566 1.524 . S
C570 H582 0.956 . S
C570 H583 0.961 . S
C570 H584 0.961 . S
C571 C568 1.539 1_556 S
C571 H585 0.958 . S
C571 H586 0.961 . S
C571 H587 0.960 . S
H572 C556 0.931 . S
H573 C561 0.929 . S
H574 C562 0.960 . S
H575 C562 0.962 . S
H576 C562 0.960 . S
H577 C563 0.961 . S
H578 C563 0.961 . S
H579 C563 0.961 . S
H580 C564 0.931 . S
H581 C569 0.930 . S
H582 C570 0.956 . S
H583 C570 0.961 . S
H584 C570 0.961 . S
H585 C571 0.958 . S
H586 C571 0.961 . S
H587 C571 0.960 . S
C588 C589 1.391 . S
C588 C590 1.394 . S
C588 H604 0.931 . S
C589 C588 1.391 . S
C589 C593 1.376 . S
C590 C588 1.394 . S
C590 C591 1.369 . S
C590 C594 1.531 . S
C591 C590 1.369 . S
C591 C592 1.410 . S
C591 C599 1.503 . S
C592 C591 1.410 . S
C592 C593 1.392 . S
C592 C595 1.511 . S
C593 C589 1.376 . S
C593 C592 1.392 . S
C593 H605 0.929 . S
C594 C590 1.531 . S
C594 H606 0.960 . S
C594 H607 0.962 . S
C594 H608 0.960 . S
C595 C592 1.511 . S
C595 H609 0.961 . S
C595 H610 0.961 . S
C595 H611 0.961 . S
C596 C597 1.370 . S
C596 C598 1.363 . S
C596 H612 0.931 . S
C597 C596 1.370 . S
C597 C601 1.408 . S
C598 C596 1.363 . S
C598 C599 1.370 . S
C598 C602 1.524 . S
C599 C591 1.503 . S
C599 C598 1.370 . S
C599 C600 1.403 . S
C600 C599 1.403 . S
C600 C601 1.404 . S
C600 C603 1.539 . S
C601 C597 1.408 . S
C601 C600 1.404 . S
C601 H613 0.930 . S
C602 C598 1.524 . S
C602 H614 0.956 . S
C602 H615 0.961 . S
C602 H616 0.961 . S
C603 C600 1.539 . S
C603 H617 0.958 . S
C603 H618 0.961 . S
C603 H619 0.960 . S
H604 C588 0.931 . S
H605 C593 0.929 . S
H606 C594 0.960 . S
H607 C594 0.962 . S
H608 C594 0.960 . S
H609 C595 0.961 . S
H610 C595 0.961 . S
H611 C595 0.961 . S
H612 C596 0.931 . S
H613 C601 0.930 . S
H614 C602 0.956 . S
H615 C602 0.961 . S
H616 C602 0.961 . S
H617 C603 0.958 . S
H618 C603 0.961 . S
H619 C603 0.960 . S
C620 C621 1.391 . S
C620 C622 1.394 . S
C620 H636 0.931 . S
C621 C620 1.391 . S
C621 C625 1.376 . S
C622 C620 1.394 . S
C622 C623 1.369 . S
C622 C626 1.531 . S
C623 C622 1.369 . S
C623 C624 1.410 . S
C623 C631 1.503 . S
C624 C623 1.410 . S
C624 C625 1.392 . S
C624 C627 1.511 . S
C625 C621 1.376 . S
C625 C624 1.392 . S
C625 H637 0.929 . S
C626 C622 1.531 . S
C626 H638 0.960 . S
C626 H639 0.962 . S
C626 H640 0.960 . S
C627 C624 1.511 . S
C627 H641 0.961 . S
C627 H642 0.961 . S
C627 H643 0.961 . S
C628 C629 1.370 . S
C628 C630 1.363 . S
C628 H644 0.931 . S
C629 C628 1.370 . S
C629 C633 1.408 . S
C630 C628 1.363 . S
C630 C631 1.370 . S
C630 C634 1.524 . S
C631 C623 1.503 . S
C631 C630 1.370 . S
C631 C632 1.403 . S
C632 C631 1.403 . S
C632 C633 1.404 . S
C632 C635 1.539 . S
C633 C629 1.408 . S
C633 C632 1.404 . S
C633 H645 0.930 . S
C634 C630 1.524 . S
C634 H646 0.956 . S
C634 H647 0.961 . S
C634 H648 0.961 . S
C635 C632 1.539 . S
C635 H649 0.958 . S
C635 H650 0.961 . S
C635 H651 0.960 . S
H636 C620 0.931 . S
H637 C625 0.929 . S
H638 C626 0.960 . S
H639 C626 0.962 . S
H640 C626 0.960 . S
H641 C627 0.961 . S
H642 C627 0.961 . S
H643 C627 0.961 . S
H644 C628 0.931 . S
H645 C633 0.930 . S
H646 C634 0.956 . S
H647 C634 0.961 . S
H648 C634 0.961 . S
H649 C635 0.958 . S
H650 C635 0.961 . S
H651 C635 0.960 . S
C652 C653 1.391 . S
C652 C654 1.394 . S
C652 H668 0.931 . S
C653 C652 1.391 . S
C653 C657 1.376 . S
C654 C652 1.394 . S
C654 C655 1.369 . S
C654 C658 1.531 . S
C655 C654 1.369 . S
C655 C656 1.410 . S
C655 C663 1.503 . S
C656 C655 1.410 . S
C656 C657 1.392 . S
C656 C659 1.511 . S
C657 C653 1.376 . S
C657 C656 1.392 . S
C657 H669 0.929 . S
C658 C654 1.531 . S
C658 H670 0.960 . S
C658 H671 0.962 . S
C658 H672 0.960 . S
C659 C656 1.511 . S
C659 H673 0.961 . S
C659 H674 0.961 . S
C659 H675 0.961 . S
C660 C661 1.370 . S
C660 C662 1.363 . S
C660 H676 0.931 . S
C661 C660 1.370 . S
C661 C665 1.408 . S
C662 C660 1.363 . S
C662 C663 1.370 . S
C662 C666 1.524 . S
C663 C655 1.503 . S
C663 C662 1.370 . S
C663 C664 1.403 . S
C664 C663 1.403 . S
C664 C665 1.404 . S
C664 C667 1.539 . S
C665 C661 1.408 . S
C665 C664 1.404 . S
C665 H677 0.930 . S
C666 C662 1.524 . S
C666 H678 0.956 . S
C666 H679 0.961 . S
C666 H680 0.961 . S
C667 C664 1.539 . S
C667 H681 0.958 . S
C667 H682 0.961 . S
C667 H683 0.960 . S
H668 C652 0.931 . S
H669 C657 0.929 . S
H670 C658 0.960 . S
H671 C658 0.962 . S
H672 C658 0.960 . S
H673 C659 0.961 . S
H674 C659 0.961 . S
H675 C659 0.961 . S
H676 C660 0.931 . S
H677 C665 0.930 . S
H678 C666 0.956 . S
H679 C666 0.961 . S
H680 C666 0.961 . S
H681 C667 0.958 . S
H682 C667 0.961 . S
H683 C667 0.960 . S
C684 C685 1.391 . S
C684 C686 1.394 1_554 S
C684 H700 0.931 1_554 S
C685 C684 1.391 . S
C685 C689 1.376 . S
C686 C684 1.394 1_556 S
C686 C687 1.369 . S
C686 C690 1.531 . S
C687 C686 1.369 . S
C687 C688 1.410 1_556 S
C687 C695 1.503 . S
C688 C687 1.410 1_554 S
C688 C689 1.392 . S
C688 C691 1.511 . S
C689 C685 1.376 . S
C689 C688 1.392 . S
C689 H701 0.929 . S
C690 C686 1.531 . S
C690 H702 0.960 . S
C690 H703 0.962 . S
C690 H704 0.960 . S
C691 C688 1.511 . S
C691 H705 0.961 . S
C691 H706 0.961 . S
C691 H707 0.961 . S
C692 C693 1.370 . S
C692 C694 1.363 . S
C692 H708 0.931 . S
C693 C692 1.370 . S
C693 C697 1.408 . S
C694 C692 1.363 . S
C694 C695 1.370 . S
C694 C698 1.524 1_556 S
C695 C687 1.503 . S
C695 C694 1.370 . S
C695 C696 1.403 . S
C696 C695 1.403 . S
C696 C697 1.404 . S
C696 C699 1.539 . S
C697 C693 1.408 . S
C697 C696 1.404 . S
C697 H709 0.930 . S
C698 C694 1.524 1_554 S
C698 H710 0.959 . S
C698 H711 0.961 . S
C698 H712 0.961 . S
C699 C696 1.539 . S
C699 H713 0.958 . S
C699 H714 0.961 . S
C699 H715 0.960 . S
H700 C684 0.931 1_556 S
H701 C689 0.929 . S
H702 C690 0.960 . S
H703 C690 0.962 . S
H704 C690 0.960 . S
H705 C691 0.961 . S
H706 C691 0.961 . S
H707 C691 0.961 . S
H708 C692 0.931 . S
H709 C697 0.930 . S
H710 C698 0.959 . S
H711 C698 0.961 . S
H712 C698 0.961 . S
H713 C699 0.958 . S
H714 C699 0.961 . S
H715 C699 0.960 . S
C716 C717 1.391 . S
C716 C718 1.394 . S
C716 H732 0.931 . S
C717 C716 1.391 . S
C717 C721 1.376 . S
C718 C716 1.394 . S
C718 C719 1.369 . S
C718 C722 1.531 . S
C719 C718 1.369 . S
C719 C720 1.410 . S
C719 C727 1.503 1_556 S
C720 C719 1.410 . S
C720 C721 1.392 . S
C720 C723 1.511 1_556 S
C721 C717 1.376 . S
C721 C720 1.392 . S
C721 H733 0.929 . S
C722 C718 1.531 . S
C722 H734 0.960 . S
C722 H735 0.962 . S
C722 H736 0.960 . S
C723 C720 1.511 1_554 S
C723 H737 0.961 . S
C723 H738 0.961 . S
C723 H739 0.961 . S
C724 C725 1.370 . S
C724 C726 1.363 1_554 S
C724 H740 0.926 1_554 S
C725 C724 1.370 . S
C725 C729 1.408 . S
C726 C724 1.363 1_556 S
C726 C727 1.370 1_556 S
C726 C730 1.524 . S
C727 C719 1.503 1_554 S
C727 C726 1.370 1_554 S
C727 C728 1.403 . S
C728 C727 1.403 . S
C728 C729 1.404 . S
C728 C731 1.539 . S
C729 C725 1.408 . S
C729 C728 1.404 . S
C729 H741 0.930 . S
C730 C726 1.524 . S
C730 H742 0.956 . S
C730 H743 0.961 . S
C730 H744 0.961 . S
C731 C728 1.539 . S
C731 H745 0.958 . S
C731 H746 0.961 . S
C731 H747 0.960 . S
H732 C716 0.931 . S
H733 C721 0.929 . S
H734 C722 0.960 . S
H735 C722 0.962 . S
H736 C722 0.960 . S
H737 C723 0.961 . S
H738 C723 0.961 . S
H739 C723 0.961 . S
H740 C724 0.926 1_556 S
H741 C729 0.930 . S
H742 C730 0.956 . S
H743 C730 0.961 . S
H744 C730 0.961 . S
H745 C731 0.958 . S
H746 C731 0.961 . S
H747 C731 0.960 . S
C748 C749 1.391 . S
C748 C750 1.394 . S
C748 H764 0.931 . S
C749 C748 1.391 . S
C749 C753 1.376 . S
C750 C748 1.394 . S
C750 C751 1.369 . S
C750 C754 1.531 1_556 S
C751 C750 1.369 . S
C751 C752 1.410 . S
C751 C759 1.503 . S
C752 C751 1.410 . S
C752 C753 1.392 . S
C752 C755 1.511 . S
C753 C749 1.376 . S
C753 C752 1.392 . S
C753 H765 0.929 . S
C754 C750 1.531 1_554 S
C754 H766 0.960 . S
C754 H767 0.962 . S
C754 H768 0.960 . S
C755 C752 1.511 . S
C755 H769 0.961 . S
C755 H770 0.961 . S
C755 H771 0.961 . S
C756 C757 1.370 . S
C756 C758 1.363 . S
C756 H772 0.931 . S
C757 C756 1.370 . S
C757 C761 1.408 . S
C758 C756 1.363 . S
C758 C759 1.370 1_554 S
C758 C762 1.524 . S
C759 C751 1.503 . S
C759 C758 1.370 1_556 S
C759 C760 1.403 . S
C760 C759 1.403 . S
C760 C761 1.404 1_556 S
C760 C763 1.539 . S
C761 C757 1.408 . S
C761 C760 1.404 1_554 S
C761 H773 0.930 . S
C762 C758 1.524 . S
C762 H774 0.956 . S
C762 H775 0.961 . S
C762 H776 0.961 . S
C763 C760 1.539 . S
C763 H777 0.958 . S
C763 H778 0.961 . S
C763 H779 0.960 . S
H764 C748 0.931 . S
H765 C753 0.929 . S
H766 C754 0.960 . S
H767 C754 0.962 . S
H768 C754 0.960 . S
H769 C755 0.961 . S
H770 C755 0.961 . S
H771 C755 0.961 . S
H772 C756 0.931 . S
H773 C761 0.930 . S
H774 C762 0.956 . S
H775 C762 0.961 . S
H776 C762 0.961 . S
H777 C763 0.958 . S
H778 C763 0.961 . S
H779 C763 0.960 . S
C780 C781 1.391 . S
C780 C782 1.394 . S
C780 H796 0.931 . S
C781 C780 1.391 . S
C781 C785 1.376 . S
C782 C780 1.394 . S
C782 C783 1.369 . S
C782 C786 1.531 . S
C783 C782 1.369 . S
C783 C784 1.410 . S
C783 C791 1.503 . S
C784 C783 1.410 . S
C784 C785 1.392 . S
C784 C787 1.511 . S
C785 C781 1.376 . S
C785 C784 1.392 . S
C785 H797 0.929 . S
C786 C782 1.531 . S
C786 H798 0.960 . S
C786 H799 0.962 . S
C786 H800 0.960 . S
C787 C784 1.511 . S
C787 H801 0.961 . S
C787 H802 0.961 . S
C787 H803 0.961 . S
C788 C789 1.370 . S
C788 C790 1.363 . S
C788 H804 0.931 . S
C789 C788 1.370 . S
C789 C793 1.408 . S
C790 C788 1.363 . S
C790 C791 1.370 . S
C790 C794 1.524 . S
C791 C783 1.503 . S
C791 C790 1.370 . S
C791 C792 1.403 . S
C792 C791 1.403 . S
C792 C793 1.404 . S
C792 C795 1.539 . S
C793 C789 1.408 . S
C793 C792 1.404 . S
C793 H805 0.930 . S
C794 C790 1.524 . S
C794 H806 0.956 . S
C794 H807 0.961 . S
C794 H808 0.961 . S
C795 C792 1.539 . S
C795 H809 0.958 . S
C795 H810 0.961 . S
C795 H811 0.960 . S
H796 C780 0.931 . S
H797 C785 0.929 . S
H798 C786 0.960 . S
H799 C786 0.962 . S
H800 C786 0.960 . S
H801 C787 0.961 . S
H802 C787 0.961 . S
H803 C787 0.961 . S
H804 C788 0.931 . S
H805 C793 0.930 . S
H806 C794 0.956 . S
H807 C794 0.961 . S
H808 C794 0.961 . S
H809 C795 0.958 . S
H810 C795 0.961 . S
H811 C795 0.960 . S
C812 C813 1.391 . S
C812 C814 1.394 . S
C812 H828 0.931 . S
C813 C812 1.391 . S
C813 C817 1.376 . S
C814 C812 1.394 . S
C814 C815 1.369 . S
C814 C818 1.531 . S
C815 C814 1.369 . S
C815 C816 1.410 . S
C815 C823 1.503 . S
C816 C815 1.410 . S
C816 C817 1.392 . S
C816 C819 1.511 . S
C817 C813 1.376 . S
C817 C816 1.392 . S
C817 H829 0.929 . S
C818 C814 1.531 . S
C818 H830 0.960 . S
C818 H831 0.962 . S
C818 H832 0.960 . S
C819 C816 1.511 . S
C819 H833 0.961 . S
C819 H834 0.961 . S
C819 H835 0.961 . S
C820 C821 1.370 . S
C820 C822 1.363 . S
C820 H836 0.931 . S
C821 C820 1.370 . S
C821 C825 1.408 . S
C822 C820 1.363 . S
C822 C823 1.370 . S
C822 C826 1.524 . S
C823 C815 1.503 . S
C823 C822 1.370 . S
C823 C824 1.403 . S
C824 C823 1.403 . S
C824 C825 1.404 . S
C824 C827 1.539 . S
C825 C821 1.408 . S
C825 C824 1.404 . S
C825 H837 0.930 . S
C826 C822 1.524 . S
C826 H838 0.956 . S
C826 H839 0.961 . S
C826 H840 0.961 . S
C827 C824 1.539 . S
C827 H841 0.958 . S
C827 H842 0.961 . S
C827 H843 0.960 . S
H828 C812 0.931 . S
H829 C817 0.929 . S
H830 C818 0.960 . S
H831 C818 0.962 . S
H832 C818 0.960 . S
H833 C819 0.961 . S
H834 C819 0.961 . S
H835 C819 0.961 . S
H836 C820 0.931 . S
H837 C825 0.930 . S
H838 C826 0.956 . S
H839 C826 0.961 . S
H840 C826 0.961 . S
H841 C827 0.958 . S
H842 C827 0.961 . S
H843 C827 0.960 . S
C844 C845 1.391 . S
C844 C846 1.394 . S
C844 H860 0.931 . S
C845 C844 1.391 . S
C845 C849 1.376 . S
C846 C844 1.394 . S
C846 C847 1.369 . S
C846 C850 1.531 . S
C847 C846 1.369 . S
C847 C848 1.410 . S
C847 C855 1.503 . S
C848 C847 1.410 . S
C848 C849 1.392 . S
C848 C851 1.511 . S
C849 C845 1.376 . S
C849 C848 1.392 . S
C849 H861 0.929 . S
C850 C846 1.531 . S
C850 H862 0.960 . S
C850 H863 0.962 . S
C850 H864 0.960 . S
C851 C848 1.511 . S
C851 H865 0.961 . S
C851 H866 0.961 . S
C851 H867 0.961 . S
C852 C853 1.370 . S
C852 C854 1.363 . S
C852 H868 0.931 . S
C853 C852 1.370 . S
C853 C857 1.408 . S
C854 C852 1.363 . S
C854 C855 1.370 . S
C854 C858 1.524 . S
C855 C847 1.503 . S
C855 C854 1.370 . S
C855 C856 1.403 . S
C856 C855 1.403 . S
C856 C857 1.404 . S
C856 C859 1.539 . S
C857 C853 1.408 . S
C857 C856 1.404 . S
C857 H869 0.930 . S
C858 C854 1.524 . S
C858 H870 0.956 . S
C858 H871 0.961 . S
C858 H872 0.961 . S
C859 C856 1.539 . S
C859 H873 0.958 . S
C859 H874 0.961 . S
C859 H875 0.960 . S
H860 C844 0.931 . S
H861 C849 0.929 . S
H862 C850 0.960 . S
H863 C850 0.962 . S
H864 C850 0.960 . S
H865 C851 0.961 . S
H866 C851 0.961 . S
H867 C851 0.961 . S
H868 C852 0.931 . S
H869 C857 0.930 . S
H870 C858 0.956 . S
H871 C858 0.961 . S
H872 C858 0.961 . S
H873 C859 0.958 . S
H874 C859 0.961 . S
H875 C859 0.960 . S
C876 C877 1.391 . S
C876 C878 1.394 . S
C876 H892 0.931 . S
C877 C876 1.391 . S
C877 C881 1.376 . S
C878 C876 1.394 . S
C878 C879 1.369 . S
C878 C882 1.531 . S
C879 C878 1.369 . S
C879 C880 1.410 . S
C879 C887 1.503 . S
C880 C879 1.410 . S
C880 C881 1.392 . S
C880 C883 1.511 . S
C881 C877 1.376 . S
C881 C880 1.392 . S
C881 H893 0.929 . S
C882 C878 1.531 . S
C882 H894 0.960 . S
C882 H895 0.962 . S
C882 H896 0.960 . S
C883 C880 1.511 . S
C883 H897 0.961 . S
C883 H898 0.961 . S
C883 H899 0.961 . S
C884 C885 1.370 . S
C884 C886 1.363 . S
C884 H900 0.931 . S
C885 C884 1.370 . S
C885 C889 1.408 . S
C886 C884 1.363 . S
C886 C887 1.370 . S
C886 C890 1.524 . S
C887 C879 1.503 . S
C887 C886 1.370 . S
C887 C888 1.403 . S
C888 C887 1.403 . S
C888 C889 1.404 . S
C888 C891 1.539 . S
C889 C885 1.408 . S
C889 C888 1.404 . S
C889 H901 0.930 . S
C890 C886 1.524 . S
C890 H902 0.956 . S
C890 H903 0.961 . S
C890 H904 0.961 . S
C891 C888 1.539 . S
C891 H905 0.958 . S
C891 H906 0.961 . S
C891 H907 0.960 . S
H892 C876 0.931 . S
H893 C881 0.929 . S
H894 C882 0.960 . S
H895 C882 0.962 . S
H896 C882 0.960 . S
H897 C883 0.961 . S
H898 C883 0.961 . S
H899 C883 0.961 . S
H900 C884 0.931 . S
H901 C889 0.930 . S
H902 C890 0.956 . S
H903 C890 0.961 . S
H904 C890 0.961 . S
H905 C891 0.958 . S
H906 C891 0.961 . S
H907 C891 0.960 . S
C908 C909 1.391 . S
C908 C910 1.394 . S
C908 H924 0.931 . S
C909 C908 1.391 . S
C909 C913 1.376 . S
C910 C908 1.394 . S
C910 C911 1.369 . S
C910 C914 1.531 . S
C911 C910 1.369 . S
C911 C912 1.410 . S
C911 C919 1.503 . S
C912 C911 1.410 . S
C912 C913 1.392 . S
C912 C915 1.511 . S
C913 C909 1.376 . S
C913 C912 1.392 . S
C913 H925 0.929 . S
C914 C910 1.531 . S
C914 H926 0.960 . S
C914 H927 0.962 . S
C914 H928 0.960 . S
C915 C912 1.511 . S
C915 H929 0.961 . S
C915 H930 0.961 . S
C915 H931 0.961 . S
C916 C917 1.370 . S
C916 C918 1.363 . S
C916 H932 0.931 . S
C917 C916 1.370 . S
C917 C921 1.408 . S
C918 C916 1.363 . S
C918 C919 1.370 . S
C918 C922 1.524 . S
C919 C911 1.503 . S
C919 C918 1.370 . S
C919 C920 1.403 . S
C920 C919 1.403 . S
C920 C921 1.404 . S
C920 C923 1.539 . S
C921 C917 1.408 . S
C921 C920 1.404 . S
C921 H933 0.930 . S
C922 C918 1.524 . S
C922 H934 0.956 . S
C922 H935 0.961 . S
C922 H936 0.961 . S
C923 C920 1.539 . S
C923 H937 0.958 . S
C923 H938 0.961 . S
C923 H939 0.960 . S
H924 C908 0.931 . S
H925 C913 0.929 . S
H926 C914 0.960 . S
H927 C914 0.962 . S
H928 C914 0.960 . S
H929 C915 0.961 . S
H930 C915 0.961 . S
H931 C915 0.961 . S
H932 C916 0.931 . S
H933 C921 0.930 . S
H934 C922 0.956 . S
H935 C922 0.961 . S
H936 C922 0.961 . S
H937 C923 0.958 . S
H938 C923 0.961 . S
H939 C923 0.960 . S
C940 C941 1.391 . S
C940 C942 1.394 . S
C940 H956 0.931 . S
C941 C940 1.391 . S
C941 C945 1.376 . S
C942 C940 1.394 . S
C942 C943 1.369 . S
C942 C946 1.531 . S
C943 C942 1.369 . S
C943 C944 1.410 . S
C943 C951 1.503 . S
C944 C943 1.410 . S
C944 C945 1.392 . S
C944 C947 1.511 . S
C945 C941 1.376 . S
C945 C944 1.392 . S
C945 H957 0.929 . S
C946 C942 1.531 . S
C946 H958 0.960 . S
C946 H959 0.962 . S
C946 H960 0.960 . S
C947 C944 1.511 . S
C947 H961 0.961 . S
C947 H962 0.961 . S
C947 H963 0.961 . S
C948 C949 1.370 . S
C948 C950 1.363 . S
C948 H964 0.931 . S
C949 C948 1.370 . S
C949 C953 1.408 . S
C950 C948 1.363 . S
C950 C951 1.370 . S
C950 C954 1.524 . S
C951 C943 1.503 . S
C951 C950 1.370 . S
C951 C952 1.403 . S
C952 C951 1.403 . S
C952 C953 1.404 . S
C952 C955 1.539 . S
C953 C949 1.408 . S
C953 C952 1.404 . S
C953 H965 0.930 . S
C954 C950 1.524 . S
C954 H966 0.956 . S
C954 H967 0.961 . S
C954 H968 0.961 . S
C955 C952 1.539 . S
C955 H969 0.958 . S
C955 H970 0.961 . S
C955 H971 0.960 . S
H956 C940 0.931 . S
H957 C945 0.929 . S
H958 C946 0.960 . S
H959 C946 0.962 . S
H960 C946 0.960 . S
H961 C947 0.961 . S
H962 C947 0.961 . S
H963 C947 0.961 . S
H964 C948 0.931 . S
H965 C953 0.930 . S
H966 C954 0.956 . S
H967 C954 0.961 . S
H968 C954 0.961 . S
H969 C955 0.958 . S
H970 C955 0.961 . S
H971 C955 0.960 . S
C972 C973 1.391 . S
C972 C974 1.394 . S
C972 H988 0.931 1_556 S
C973 C972 1.391 . S
C973 C977 1.376 . S
C974 C972 1.394 . S
C974 C975 1.369 . S
C974 C978 1.531 . S
C975 C974 1.369 . S
C975 C976 1.410 . S
C975 C983 1.503 . S
C976 C975 1.410 . S
C976 C977 1.392 . S
C976 C979 1.511 . S
C977 C973 1.376 . S
C977 C976 1.392 . S
C977 H989 0.929 . S
C978 C974 1.531 . S
C978 H990 0.960 . S
C978 H991 0.962 . S
C978 H992 0.960 1_556 S
C979 C976 1.511 . S
C979 H993 0.961 . S
C979 H994 0.961 . S
C979 H995 0.961 . S
C980 C981 1.370 . S
C980 C982 1.363 . S
C980 H996 0.931 . S
C981 C980 1.370 . S
C981 C985 1.408 . S
C982 C980 1.363 . S
C982 C983 1.370 . S
C982 C986 1.524 . S
C983 C975 1.503 . S
C983 C982 1.370 . S
C983 C984 1.403 . S
C984 C983 1.403 . S
C984 C985 1.404 . S
C984 C987 1.539 . S
C985 C981 1.408 . S
C985 C984 1.404 . S
C985 H997 0.930 . S
C986 C982 1.524 . S
C986 H998 0.956 . S
C986 H999 0.961 . S
C986 H1000 0.961 . S
C987 C984 1.539 . S
C987 H1001 0.958 . S
C987 H1002 0.961 . S
C987 H1003 0.960 . S
H988 C972 0.931 1_554 S
H989 C977 0.929 . S
H990 C978 0.960 . S
H991 C978 0.962 . S
H992 C978 0.960 1_554 S
H993 C979 0.961 . S
H994 C979 0.961 . S
H995 C979 0.961 . S
H996 C980 0.931 . S
H997 C985 0.930 . S
H998 C986 0.956 . S
H999 C986 0.961 . S
H1000 C986 0.961 . S
H1001 C987 0.958 . S
H1002 C987 0.961 . S
H1003 C987 0.960 . S
C1004 C1005 1.391 . S
C1004 C1006 1.394 . S
C1004 H1020 0.931 . S
C1005 C1004 1.391 . S
C1005 C1009 1.376 . S
C1006 C1004 1.394 . S
C1006 C1007 1.369 . S
C1006 C1010 1.531 . S
C1007 C1006 1.369 . S
C1007 C1008 1.410 . S
C1007 C1015 1.503 . S
C1008 C1007 1.410 . S
C1008 C1009 1.392 . S
C1008 C1011 1.511 . S
C1009 C1005 1.376 . S
C1009 C1008 1.392 . S
C1009 H1021 0.929 1_556 S
C1010 C1006 1.531 . S
C1010 H1022 0.960 . S
C1010 H1023 0.962 . S
C1010 H1024 0.960 . S
C1011 C1008 1.511 . S
C1011 H1025 0.961 1_556 S
C1011 H1026 0.961 . S
C1011 H1027 0.961 1_556 S
C1012 C1013 1.370 . S
C1012 C1014 1.363 . S
C1012 H1028 0.931 . S
C1013 C1012 1.370 . S
C1013 C1017 1.408 . S
C1014 C1012 1.363 . S
C1014 C1015 1.370 . S
C1014 C1018 1.524 . S
C1015 C1007 1.503 . S
C1015 C1014 1.370 . S
C1015 C1016 1.403 . S
C1016 C1015 1.403 . S
C1016 C1017 1.404 . S
C1016 C1019 1.539 . S
C1017 C1013 1.408 . S
C1017 C1016 1.404 . S
C1017 H1029 0.930 . S
C1018 C1014 1.524 . S
C1018 H1030 0.956 . S
C1018 H1031 0.961 . S
C1018 H1032 0.961 . S
C1019 C1016 1.539 . S
C1019 H1033 0.958 . S
C1019 H1034 0.961 . S
C1019 H1035 0.960 . S
H1020 C1004 0.931 . S
H1021 C1009 0.929 1_554 S
H1022 C1010 0.960 . S
H1023 C1010 0.962 . S
H1024 C1010 0.960 . S
H1025 C1011 0.961 1_554 S
H1026 C1011 0.961 . S
H1027 C1011 0.961 1_554 S
H1028 C1012 0.931 . S
H1029 C1017 0.930 . S
H1030 C1018 0.956 . S
H1031 C1018 0.961 . S
H1032 C1018 0.961 . S
H1033 C1019 0.958 . S
H1034 C1019 0.961 . S
H1035 C1019 0.960 . S
C1036 C1037 1.391 . S
C1036 C1038 1.394 . S
C1036 H1052 0.931 1_556 S
C1037 C1036 1.391 . S
C1037 C1041 1.376 . S
C1038 C1036 1.394 . S
C1038 C1039 1.369 . S
C1038 C1042 1.531 . S
C1039 C1038 1.369 . S
C1039 C1040 1.410 . S
C1039 C1047 1.503 . S
C1040 C1039 1.410 . S
C1040 C1041 1.392 . S
C1040 C1043 1.511 . S
C1041 C1037 1.376 . S
C1041 C1040 1.392 . S
C1041 H1053 0.929 . S
C1042 C1038 1.531 . S
C1042 H1054 0.960 . S
C1042 H1055 0.962 . S
C1042 H1056 0.960 . S
C1043 C1040 1.511 . S
C1043 H1057 0.961 . S
C1043 H1058 0.961 . S
C1043 H1059 0.961 . S
C1044 C1045 1.370 . S
C1044 C1046 1.363 . S
C1044 H1060 0.931 . S
C1045 C1044 1.370 . S
C1045 C1049 1.408 . S
C1046 C1044 1.363 . S
C1046 C1047 1.370 . S
C1046 C1050 1.524 . S
C1047 C1039 1.503 . S
C1047 C1046 1.370 . S
C1047 C1048 1.403 . S
C1048 C1047 1.403 . S
C1048 C1049 1.404 . S
C1048 C1051 1.539 . S
C1049 C1045 1.408 . S
C1049 C1048 1.404 . S
C1049 H1061 0.930 . S
C1050 C1046 1.524 . S
C1050 H1062 0.956 . S
C1050 H1063 0.961 . S
C1050 H1064 0.961 . S
C1051 C1048 1.539 . S
C1051 H1065 0.958 . S
C1051 H1066 0.961 . S
C1051 H1067 0.960 . S
H1052 C1036 0.931 1_554 S
H1053 C1041 0.929 . S
H1054 C1042 0.960 . S
H1055 C1042 0.962 . S
H1056 C1042 0.960 . S
H1057 C1043 0.961 . S
H1058 C1043 0.961 . S
H1059 C1043 0.961 . S
H1060 C1044 0.931 . S
H1061 C1049 0.930 . S
H1062 C1050 0.956 . S
H1063 C1050 0.961 . S
H1064 C1050 0.961 . S
H1065 C1051 0.958 . S
H1066 C1051 0.961 . S
H1067 C1051 0.960 . S
C1068 C1069 1.391 . S
C1068 C1070 1.394 . S
C1068 H1084 0.931 . S
C1069 C1068 1.391 . S
C1069 C1073 1.376 . S
C1070 C1068 1.394 . S
C1070 C1071 1.369 . S
C1070 C1074 1.531 . S
C1071 C1070 1.369 . S
C1071 C1072 1.410 . S
C1071 C1079 1.503 . S
C1072 C1071 1.410 . S
C1072 C1073 1.392 . S
C1072 C1075 1.511 . S
C1073 C1069 1.376 . S
C1073 C1072 1.392 . S
C1073 H1085 0.929 . S
C1074 C1070 1.531 . S
C1074 H1086 0.960 . S
C1074 H1087 0.962 . S
C1074 H1088 0.960 . S
C1075 C1072 1.511 . S
C1075 H1089 0.961 . S
C1075 H1090 0.961 . S
C1075 H1091 0.961 . S
C1076 C1077 1.370 . S
C1076 C1078 1.363 . S
C1076 H1092 0.931 . S
C1077 C1076 1.370 . S
C1077 C1081 1.408 . S
C1078 C1076 1.363 . S
C1078 C1079 1.370 . S
C1078 C1082 1.524 . S
C1079 C1071 1.503 . S
C1079 C1078 1.370 . S
C1079 C1080 1.403 . S
C1080 C1079 1.403 . S
C1080 C1081 1.404 . S
C1080 C1083 1.539 . S
C1081 C1077 1.408 . S
C1081 C1080 1.404 . S
C1081 H1093 0.930 . S
C1082 C1078 1.524 . S
C1082 H1094 0.956 . S
C1082 H1095 0.961 . S
C1082 H1096 0.961 . S
C1083 C1080 1.539 . S
C1083 H1097 0.958 . S
C1083 H1098 0.961 . S
C1083 H1099 0.960 . S
H1084 C1068 0.931 . S
H1085 C1073 0.929 . S
H1086 C1074 0.960 . S
H1087 C1074 0.962 . S
H1088 C1074 0.960 . S
H1089 C1075 0.961 . S
H1090 C1075 0.961 . S
H1091 C1075 0.961 . S
H1092 C1076 0.931 . S
H1093 C1081 0.930 . S
H1094 C1082 0.956 . S
H1095 C1082 0.961 . S
H1096 C1082 0.961 . S
H1097 C1083 0.958 . S
H1098 C1083 0.961 . S
H1099 C1083 0.960 . S
C1100 C1101 1.391 . S
C1100 C1102 1.394 . S
C1100 H1116 0.931 . S
C1101 C1100 1.391 . S
C1101 C1105 1.376 . S
C1102 C1100 1.394 . S
C1102 C1103 1.369 . S
C1102 C1106 1.531 . S
C1103 C1102 1.369 . S
C1103 C1104 1.410 . S
C1103 C1111 1.503 . S
C1104 C1103 1.410 . S
C1104 C1105 1.392 . S
C1104 C1107 1.511 . S
C1105 C1101 1.376 . S
C1105 C1104 1.392 . S
C1105 H1117 0.929 . S
C1106 C1102 1.531 . S
C1106 H1118 0.960 . S
C1106 H1119 0.962 . S
C1106 H1120 0.960 . S
C1107 C1104 1.511 . S
C1107 H1121 0.961 . S
C1107 H1122 0.961 . S
C1107 H1123 0.961 . S
C1108 C1109 1.370 . S
C1108 C1110 1.363 . S
C1108 H1124 0.931 . S
C1109 C1108 1.370 . S
C1109 C1113 1.408 . S
C1110 C1108 1.363 . S
C1110 C1111 1.370 . S
C1110 C1114 1.524 . S
C1111 C1103 1.503 . S
C1111 C1110 1.370 . S
C1111 C1112 1.403 . S
C1112 C1111 1.403 . S
C1112 C1113 1.404 . S
C1112 C1115 1.539 . S
C1113 C1109 1.408 . S
C1113 C1112 1.404 . S
C1113 H1125 0.930 . S
C1114 C1110 1.524 . S
C1114 H1126 0.956 . S
C1114 H1127 0.961 . S
C1114 H1128 0.961 . S
C1115 C1112 1.539 . S
C1115 H1129 0.958 . S
C1115 H1130 0.961 . S
C1115 H1131 0.960 . S
H1116 C1100 0.931 . S
H1117 C1105 0.929 . S
H1118 C1106 0.960 . S
H1119 C1106 0.962 . S
H1120 C1106 0.960 . S
H1121 C1107 0.961 . S
H1122 C1107 0.961 . S
H1123 C1107 0.961 . S
H1124 C1108 0.931 . S
H1125 C1113 0.930 . S
H1126 C1114 0.956 . S
H1127 C1114 0.961 . S
H1128 C1114 0.961 . S
H1129 C1115 0.958 . S
H1130 C1115 0.961 . S
H1131 C1115 0.960 . S
C1132 C1133 1.391 . S
C1132 C1134 1.394 . S
C1132 H1148 0.931 . S
C1133 C1132 1.391 . S
C1133 C1137 1.376 . S
C1134 C1132 1.394 . S
C1134 C1135 1.369 . S
C1134 C1138 1.531 . S
C1135 C1134 1.369 . S
C1135 C1136 1.410 . S
C1135 C1143 1.503 . S
C1136 C1135 1.410 . S
C1136 C1137 1.392 . S
C1136 C1139 1.511 . S
C1137 C1133 1.376 . S
C1137 C1136 1.392 . S
C1137 H1149 0.929 . S
C1138 C1134 1.531 . S
C1138 H1150 0.960 . S
C1138 H1151 0.962 . S
C1138 H1152 0.960 . S
C1139 C1136 1.511 . S
C1139 H1153 0.961 . S
C1139 H1154 0.961 . S
C1139 H1155 0.961 . S
C1140 C1141 1.370 . S
C1140 C1142 1.363 . S
C1140 H1156 0.931 . S
C1141 C1140 1.370 . S
C1141 C1145 1.408 . S
C1142 C1140 1.363 . S
C1142 C1143 1.370 . S
C1142 C1146 1.524 . S
C1143 C1135 1.503 . S
C1143 C1142 1.370 . S
C1143 C1144 1.403 . S
C1144 C1143 1.403 . S
C1144 C1145 1.404 . S
C1144 C1147 1.539 . S
C1145 C1141 1.408 . S
C1145 C1144 1.404 . S
C1145 H1157 0.930 . S
C1146 C1142 1.524 . S
C1146 H1158 0.956 . S
C1146 H1159 0.961 . S
C1146 H1160 0.961 . S
C1147 C1144 1.539 . S
C1147 H1161 0.958 . S
C1147 H1162 0.961 . S
C1147 H1163 0.960 . S
H1148 C1132 0.931 . S
H1149 C1137 0.929 . S
H1150 C1138 0.960 . S
H1151 C1138 0.962 . S
H1152 C1138 0.960 . S
H1153 C1139 0.961 . S
H1154 C1139 0.961 . S
H1155 C1139 0.961 . S
H1156 C1140 0.931 . S
H1157 C1145 0.930 . S
H1158 C1146 0.956 . S
H1159 C1146 0.961 . S
H1160 C1146 0.961 . S
H1161 C1147 0.958 . S
H1162 C1147 0.961 . S
H1163 C1147 0.960 . S
C1164 C1165 1.391 . S
C1164 C1166 1.394 . S
C1164 H1180 0.931 . S
C1165 C1164 1.391 . S
C1165 C1169 1.376 . S
C1166 C1164 1.394 . S
C1166 C1167 1.369 . S
C1166 C1170 1.531 . S
C1167 C1166 1.369 . S
C1167 C1168 1.410 . S
C1167 C1175 1.503 . S
C1168 C1167 1.410 . S
C1168 C1169 1.392 . S
C1168 C1171 1.511 . S
C1169 C1165 1.376 . S
C1169 C1168 1.392 . S
C1169 H1181 0.929 . S
C1170 C1166 1.531 . S
C1170 H1182 0.960 . S
C1170 H1183 0.962 . S
C1170 H1184 0.960 . S
C1171 C1168 1.511 . S
C1171 H1185 0.961 . S
C1171 H1186 0.961 . S
C1171 H1187 0.961 . S
C1172 C1173 1.370 . S
C1172 C1174 1.363 . S
C1172 H1188 0.931 . S
C1173 C1172 1.370 . S
C1173 C1177 1.408 . S
C1174 C1172 1.363 . S
C1174 C1175 1.370 . S
C1174 C1178 1.524 . S
C1175 C1167 1.503 . S
C1175 C1174 1.370 . S
C1175 C1176 1.403 . S
C1176 C1175 1.403 . S
C1176 C1177 1.404 . S
C1176 C1179 1.539 . S
C1177 C1173 1.408 . S
C1177 C1176 1.404 . S
C1177 H1189 0.930 . S
C1178 C1174 1.524 . S
C1178 H1190 0.956 . S
C1178 H1191 0.961 . S
C1178 H1192 0.961 . S
C1179 C1176 1.539 . S
C1179 H1193 0.958 . S
C1179 H1194 0.961 . S
C1179 H1195 0.960 . S
H1180 C1164 0.931 . S
H1181 C1169 0.929 . S
H1182 C1170 0.960 . S
H1183 C1170 0.962 . S
H1184 C1170 0.960 . S
H1185 C1171 0.961 . S
H1186 C1171 0.961 . S
H1187 C1171 0.961 . S
H1188 C1172 0.931 . S
H1189 C1177 0.930 . S
H1190 C1178 0.956 . S
H1191 C1178 0.961 . S
H1192 C1178 0.961 . S
H1193 C1179 0.958 . S
H1194 C1179 0.961 . S
H1195 C1179 0.960 . S
C1196 C1197 1.391 . S
C1196 C1198 1.394 . S
C1196 H1212 0.931 . S
C1197 C1196 1.391 . S
C1197 C1201 1.376 . S
C1198 C1196 1.394 . S
C1198 C1199 1.369 . S
C1198 C1202 1.531 . S
C1199 C1198 1.369 . S
C1199 C1200 1.410 . S
C1199 C1207 1.503 . S
C1200 C1199 1.410 . S
C1200 C1201 1.392 . S
C1200 C1203 1.511 . S
C1201 C1197 1.376 . S
C1201 C1200 1.392 . S
C1201 H1213 0.929 . S
C1202 C1198 1.531 . S
C1202 H1214 0.960 . S
C1202 H1215 0.962 . S
C1202 H1216 0.960 . S
C1203 C1200 1.511 . S
C1203 H1217 0.961 . S
C1203 H1218 0.961 . S
C1203 H1219 0.961 . S
C1204 C1205 1.370 . S
C1204 C1206 1.363 . S
C1204 H1220 0.931 . S
C1205 C1204 1.370 . S
C1205 C1209 1.408 . S
C1206 C1204 1.363 . S
C1206 C1207 1.370 . S
C1206 C1210 1.524 . S
C1207 C1199 1.503 . S
C1207 C1206 1.370 . S
C1207 C1208 1.403 . S
C1208 C1207 1.403 . S
C1208 C1209 1.404 . S
C1208 C1211 1.539 . S
C1209 C1205 1.408 . S
C1209 C1208 1.404 . S
C1209 H1221 0.930 . S
C1210 C1206 1.524 . S
C1210 H1222 0.956 . S
C1210 H1223 0.961 . S
C1210 H1224 0.961 . S
C1211 C1208 1.539 . S
C1211 H1225 0.958 . S
C1211 H1226 0.961 . S
C1211 H1227 0.960 . S
H1212 C1196 0.931 . S
H1213 C1201 0.929 . S
H1214 C1202 0.960 . S
H1215 C1202 0.962 . S
H1216 C1202 0.960 . S
H1217 C1203 0.961 . S
H1218 C1203 0.961 . S
H1219 C1203 0.961 . S
H1220 C1204 0.931 . S
H1221 C1209 0.930 . S
H1222 C1210 0.956 . S
H1223 C1210 0.961 . S
H1224 C1210 0.961 . S
H1225 C1211 0.958 . S
H1226 C1211 0.961 . S
H1227 C1211 0.960 . S
C1228 C1229 1.391 . S
C1228 C1230 1.394 . S
C1228 H1244 0.931 1_554 S
C1229 C1228 1.391 . S
C1229 C1233 1.376 . S
C1230 C1228 1.394 . S
C1230 C1231 1.369 . S
C1230 C1234 1.531 . S
C1231 C1230 1.369 . S
C1231 C1232 1.410 . S
C1231 C1239 1.503 . S
C1232 C1231 1.410 . S
C1232 C1233 1.392 . S
C1232 C1235 1.511 . S
C1233 C1229 1.376 . S
C1233 C1232 1.392 . S
C1233 H1245 0.929 . S
C1234 C1230 1.531 . S
C1234 H1246 0.960 . S
C1234 H1247 0.964 . S
C1234 H1248 0.960 1_554 S
C1235 C1232 1.511 . S
C1235 H1249 0.961 . S
C1235 H1250 0.961 . S
C1235 H1251 0.961 . S
C1236 C1237 1.370 . S
C1236 C1238 1.363 . S
C1236 H1252 0.931 . S
C1237 C1236 1.370 . S
C1237 C1241 1.408 . S
C1238 C1236 1.363 . S
C1238 C1239 1.370 . S
C1238 C1242 1.524 . S
C1239 C1231 1.503 . S
C1239 C1238 1.370 . S
C1239 C1240 1.403 . S
C1240 C1239 1.403 . S
C1240 C1241 1.404 . S
C1240 C1243 1.539 . S
C1241 C1237 1.408 . S
C1241 C1240 1.404 . S
C1241 H1253 0.930 . S
C1242 C1238 1.524 . S
C1242 H1254 0.956 . S
C1242 H1255 0.961 . S
C1242 H1256 0.961 . S
C1243 C1240 1.539 . S
C1243 H1257 0.958 . S
C1243 H1258 0.961 . S
C1243 H1259 0.960 . S
H1244 C1228 0.931 1_556 S
H1245 C1233 0.929 . S
H1246 C1234 0.960 . S
H1247 C1234 0.964 . S
H1248 C1234 0.960 1_556 S
H1249 C1235 0.961 . S
H1250 C1235 0.961 . S
H1251 C1235 0.961 . S
H1252 C1236 0.931 . S
H1253 C1241 0.930 . S
H1254 C1242 0.956 . S
H1255 C1242 0.961 . S
H1256 C1242 0.961 . S
H1257 C1243 0.958 . S
H1258 C1243 0.961 . S
H1259 C1243 0.960 . S
C1260 C1261 1.391 . S
C1260 C1262 1.394 . S
C1260 H1276 0.931 . S
C1261 C1260 1.391 . S
C1261 C1265 1.376 . S
C1262 C1260 1.394 . S
C1262 C1263 1.369 . S
C1262 C1266 1.531 . S
C1263 C1262 1.369 . S
C1263 C1264 1.410 . S
C1263 C1271 1.503 . S
C1264 C1263 1.410 . S
C1264 C1265 1.392 . S
C1264 C1267 1.511 . S
C1265 C1261 1.376 . S
C1265 C1264 1.392 . S
C1265 H1277 0.929 . S
C1266 C1262 1.531 . S
C1266 H1278 0.960 . S
C1266 H1279 0.962 . S
C1266 H1280 0.960 . S
C1267 C1264 1.511 . S
C1267 H1281 0.961 . S
C1267 H1282 0.961 . S
C1267 H1283 0.961 . S
C1268 C1269 1.370 . S
C1268 C1270 1.363 . S
C1268 H1284 0.931 . S
C1269 C1268 1.370 . S
C1269 C1273 1.408 . S
C1270 C1268 1.363 . S
C1270 C1271 1.370 . S
C1270 C1274 1.524 . S
C1271 C1263 1.503 . S
C1271 C1270 1.370 . S
C1271 C1272 1.403 . S
C1272 C1271 1.403 . S
C1272 C1273 1.404 . S
C1272 C1275 1.539 . S
C1273 C1269 1.408 . S
C1273 C1272 1.404 . S
C1273 H1285 0.930 . S
C1274 C1270 1.524 . S
C1274 H1286 0.956 . S
C1274 H1287 0.961 . S
C1274 H1288 0.961 . S
C1275 C1272 1.539 . S
C1275 H1289 0.958 . S
C1275 H1290 0.961 . S
C1275 H1291 0.960 . S
H1276 C1260 0.931 . S
H1277 C1265 0.929 . S
H1278 C1266 0.960 . S
H1279 C1266 0.962 . S
H1280 C1266 0.960 . S
H1281 C1267 0.961 . S
H1282 C1267 0.961 . S
H1283 C1267 0.961 . S
H1284 C1268 0.931 . S
H1285 C1273 0.930 . S
H1286 C1274 0.956 . S
H1287 C1274 0.961 . S
H1288 C1274 0.961 . S
H1289 C1275 0.958 . S
H1290 C1275 0.961 . S
H1291 C1275 0.960 . S
C1292 C1293 1.391 . S
C1292 C1294 1.394 . S
C1292 H1308 0.931 . S
C1293 C1292 1.391 . S
C1293 C1297 1.376 . S
C1294 C1292 1.394 . S
C1294 C1295 1.369 . S
C1294 C1298 1.531 . S
C1295 C1294 1.369 . S
C1295 C1296 1.410 . S
C1295 C1303 1.503 . S
C1296 C1295 1.410 . S
C1296 C1297 1.392 . S
C1296 C1299 1.511 . S
C1297 C1293 1.376 . S
C1297 C1296 1.392 . S
C1297 H1309 0.929 . S
C1298 C1294 1.531 . S
C1298 H1310 0.960 . S
C1298 H1311 0.962 . S
C1298 H1312 0.960 . S
C1299 C1296 1.511 . S
C1299 H1313 0.961 . S
C1299 H1314 0.961 . S
C1299 H1315 0.961 . S
C1300 C1301 1.370 . S
C1300 C1302 1.363 . S
C1300 H1316 0.931 . S
C1301 C1300 1.370 . S
C1301 C1305 1.408 . S
C1302 C1300 1.363 . S
C1302 C1303 1.370 . S
C1302 C1306 1.524 . S
C1303 C1295 1.503 . S
C1303 C1302 1.370 . S
C1303 C1304 1.403 . S
C1304 C1303 1.403 . S
C1304 C1305 1.404 . S
C1304 C1307 1.539 . S
C1305 C1301 1.408 . S
C1305 C1304 1.404 . S
C1305 H1317 0.930 . S
C1306 C1302 1.524 . S
C1306 H1318 0.956 . S
C1306 H1319 0.961 . S
C1306 H1320 0.961 . S
C1307 C1304 1.539 . S
C1307 H1321 0.958 . S
C1307 H1322 0.961 . S
C1307 H1323 0.960 . S
H1308 C1292 0.931 . S
H1309 C1297 0.929 . S
H1310 C1298 0.960 . S
H1311 C1298 0.962 . S
H1312 C1298 0.960 . S
H1313 C1299 0.961 . S
H1314 C1299 0.961 . S
H1315 C1299 0.961 . S
H1316 C1300 0.931 . S
H1317 C1305 0.930 . S
H1318 C1306 0.956 . S
H1319 C1306 0.961 . S
H1320 C1306 0.961 . S
H1321 C1307 0.958 . S
H1322 C1307 0.961 . S
H1323 C1307 0.960 . S
C1324 C1325 1.391 . S
C1324 C1326 1.394 . S
C1324 H1340 0.931 . S
C1325 C1324 1.391 . S
C1325 C1329 1.376 . S
C1326 C1324 1.394 . S
C1326 C1327 1.369 . S
C1326 C1330 1.531 . S
C1327 C1326 1.369 . S
C1327 C1328 1.410 . S
C1327 C1335 1.503 . S
C1328 C1327 1.410 . S
C1328 C1329 1.392 . S
C1328 C1331 1.511 . S
C1329 C1325 1.376 . S
C1329 C1328 1.392 . S
C1329 H1341 0.929 . S
C1330 C1326 1.531 . S
C1330 H1342 0.960 . S
C1330 H1343 0.962 . S
C1330 H1344 0.960 . S
C1331 C1328 1.511 . S
C1331 H1345 0.961 . S
C1331 H1346 0.961 . S
C1331 H1347 0.961 . S
C1332 C1333 1.370 . S
C1332 C1334 1.363 . S
C1332 H1348 0.931 . S
C1333 C1332 1.370 . S
C1333 C1337 1.408 . S
C1334 C1332 1.363 . S
C1334 C1335 1.370 . S
C1334 C1338 1.524 . S
C1335 C1327 1.503 . S
C1335 C1334 1.370 . S
C1335 C1336 1.403 . S
C1336 C1335 1.403 . S
C1336 C1337 1.404 . S
C1336 C1339 1.539 . S
C1337 C1333 1.408 . S
C1337 C1336 1.404 . S
C1337 H1349 0.930 . S
C1338 C1334 1.524 . S
C1338 H1350 0.956 . S
C1338 H1351 0.961 . S
C1338 H1352 0.961 . S
C1339 C1336 1.539 . S
C1339 H1353 0.958 . S
C1339 H1354 0.961 . S
C1339 H1355 0.960 . S
H1340 C1324 0.931 . S
H1341 C1329 0.929 . S
H1342 C1330 0.960 . S
H1343 C1330 0.962 . S
H1344 C1330 0.960 . S
H1345 C1331 0.961 . S
H1346 C1331 0.961 . S
H1347 C1331 0.961 . S
H1348 C1332 0.931 . S
H1349 C1337 0.930 . S
H1350 C1338 0.956 . S
H1351 C1338 0.961 . S
H1352 C1338 0.961 . S
H1353 C1339 0.958 . S
H1354 C1339 0.961 . S
H1355 C1339 0.960 . S
C1356 C1357 1.391 . S
C1356 C1358 1.394 . S
C1356 H1372 0.931 . S
C1357 C1356 1.391 . S
C1357 C1361 1.376 . S
C1358 C1356 1.394 . S
C1358 C1359 1.369 . S
C1358 C1362 1.531 . S
C1359 C1358 1.369 . S
C1359 C1360 1.410 . S
C1359 C1367 1.503 . S
C1360 C1359 1.410 . S
C1360 C1361 1.392 . S
C1360 C1363 1.511 . S
C1361 C1357 1.376 . S
C1361 C1360 1.392 . S
C1361 H1373 0.929 . S
C1362 C1358 1.531 . S
C1362 H1374 0.960 . S
C1362 H1375 0.962 . S
C1362 H1376 0.960 . S
C1363 C1360 1.511 . S
C1363 H1377 0.961 . S
C1363 H1378 0.961 . S
C1363 H1379 0.961 . S
C1364 C1365 1.370 . S
C1364 C1366 1.363 . S
C1364 H1380 0.931 . S
C1365 C1364 1.370 . S
C1365 C1369 1.408 . S
C1366 C1364 1.363 . S
C1366 C1367 1.370 . S
C1366 C1370 1.524 . S
C1367 C1359 1.503 . S
C1367 C1366 1.370 . S
C1367 C1368 1.403 . S
C1368 C1367 1.403 . S
C1368 C1369 1.404 . S
C1368 C1371 1.539 . S
C1369 C1365 1.408 . S
C1369 C1368 1.404 . S
C1369 H1381 0.930 . S
C1370 C1366 1.524 . S
C1370 H1382 0.956 . S
C1370 H1383 0.961 . S
C1370 H1384 0.961 . S
C1371 C1368 1.539 . S
C1371 H1385 0.958 . S
C1371 H1386 0.961 . S
C1371 H1387 0.960 . S
H1372 C1356 0.931 . S
H1373 C1361 0.929 . S
H1374 C1362 0.960 . S
H1375 C1362 0.962 . S
H1376 C1362 0.960 . S
H1377 C1363 0.961 . S
H1378 C1363 0.961 . S
H1379 C1363 0.961 . S
H1380 C1364 0.931 . S
H1381 C1369 0.930 . S
H1382 C1370 0.956 . S
H1383 C1370 0.961 . S
H1384 C1370 0.961 . S
H1385 C1371 0.958 . S
H1386 C1371 0.961 . S
H1387 C1371 0.960 . S
C1388 C1389 1.391 . S
C1388 C1390 1.394 . S
C1388 H1404 0.931 . S
C1389 C1388 1.391 . S
C1389 C1393 1.376 . S
C1390 C1388 1.394 . S
C1390 C1391 1.369 . S
C1390 C1394 1.531 . S
C1391 C1390 1.369 . S
C1391 C1392 1.410 . S
C1391 C1399 1.503 . S
C1392 C1391 1.410 . S
C1392 C1393 1.392 . S
C1392 C1395 1.511 . S
C1393 C1389 1.376 . S
C1393 C1392 1.392 . S
C1393 H1405 0.929 . S
C1394 C1390 1.531 . S
C1394 H1406 0.960 . S
C1394 H1407 0.962 . S
C1394 H1408 0.960 . S
C1395 C1392 1.511 . S
C1395 H1409 0.961 . S
C1395 H1410 0.961 . S
C1395 H1411 0.961 . S
C1396 C1397 1.370 . S
C1396 C1398 1.363 . S
C1396 H1412 0.931 . S
C1397 C1396 1.370 . S
C1397 C1401 1.408 . S
C1398 C1396 1.363 . S
C1398 C1399 1.370 . S
C1398 C1402 1.524 . S
C1399 C1391 1.503 . S
C1399 C1398 1.370 . S
C1399 C1400 1.403 . S
C1400 C1399 1.403 . S
C1400 C1401 1.404 . S
C1400 C1403 1.539 . S
C1401 C1397 1.408 . S
C1401 C1400 1.404 . S
C1401 H1413 0.930 1_554 S
C1402 C1398 1.524 . S
C1402 H1414 0.956 . S
C1402 H1415 0.961 . S
C1402 H1416 0.961 . S
C1403 C1400 1.539 . S
C1403 H1417 0.958 . S
C1403 H1418 0.961 1_554 S
C1403 H1419 0.960 . S
H1404 C1388 0.931 . S
H1405 C1393 0.929 . S
H1406 C1394 0.960 . S
H1407 C1394 0.962 . S
H1408 C1394 0.960 . S
H1409 C1395 0.961 . S
H1410 C1395 0.961 . S
H1411 C1395 0.961 . S
H1412 C1396 0.931 . S
H1413 C1401 0.930 1_556 S
H1414 C1402 0.956 . S
H1415 C1402 0.961 . S
H1416 C1402 0.961 . S
H1417 C1403 0.958 . S
H1418 C1403 0.961 1_556 S
H1419 C1403 0.960 . S
C1420 C1421 1.391 . S
C1420 C1422 1.394 . S
C1420 H1436 0.931 . S
C1421 C1420 1.391 . S
C1421 C1425 1.376 . S
C1422 C1420 1.394 . S
C1422 C1423 1.369 . S
C1422 C1426 1.531 . S
C1423 C1422 1.369 . S
C1423 C1424 1.410 . S
C1423 C1431 1.503 . S
C1424 C1423 1.410 . S
C1424 C1425 1.392 . S
C1424 C1427 1.511 . S
C1425 C1421 1.376 . S
C1425 C1424 1.392 . S
C1425 H1437 0.929 . S
C1426 C1422 1.531 . S
C1426 H1438 0.960 . S
C1426 H1439 0.962 . S
C1426 H1440 0.960 . S
C1427 C1424 1.511 . S
C1427 H1441 0.961 . S
C1427 H1442 0.961 . S
C1427 H1443 0.961 . S
C1428 C1429 1.370 . S
C1428 C1430 1.363 . S
C1428 H1444 0.931 . S
C1429 C1428 1.370 . S
C1429 C1433 1.408 . S
C1430 C1428 1.363 . S
C1430 C1431 1.370 . S
C1430 C1434 1.524 . S
C1431 C1423 1.503 . S
C1431 C1430 1.370 . S
C1431 C1432 1.403 . S
C1432 C1431 1.403 . S
C1432 C1433 1.404 . S
C1432 C1435 1.539 . S
C1433 C1429 1.408 . S
C1433 C1432 1.404 . S
C1433 H1445 0.930 . S
C1434 C1430 1.524 . S
C1434 H1446 0.956 . S
C1434 H1447 0.961 . S
C1434 H1448 0.961 . S
C1435 C1432 1.539 . S
C1435 H1449 0.958 . S
C1435 H1450 0.961 . S
C1435 H1451 0.960 . S
H1436 C1420 0.931 . S
H1437 C1425 0.929 . S
H1438 C1426 0.960 . S
H1439 C1426 0.962 . S
H1440 C1426 0.960 . S
H1441 C1427 0.961 . S
H1442 C1427 0.961 . S
H1443 C1427 0.961 . S
H1444 C1428 0.931 . S
H1445 C1433 0.930 . S
H1446 C1434 0.956 . S
H1447 C1434 0.961 . S
H1448 C1434 0.961 . S
H1449 C1435 0.958 . S
H1450 C1435 0.961 . S
H1451 C1435 0.960 . S
C1452 C1453 1.391 . S
C1452 C1454 1.394 . S
C1452 H1468 0.931 . S
C1453 C1452 1.391 . S
C1453 C1457 1.376 . S
C1454 C1452 1.394 . S
C1454 C1455 1.369 . S
C1454 C1458 1.531 . S
C1455 C1454 1.369 . S
C1455 C1456 1.410 . S
C1455 C1463 1.503 . S
C1456 C1455 1.410 . S
C1456 C1457 1.392 . S
C1456 C1459 1.511 . S
C1457 C1453 1.376 . S
C1457 C1456 1.392 . S
C1457 H1469 0.929 . S
C1458 C1454 1.531 . S
C1458 H1470 0.960 . S
C1458 H1471 0.962 . S
C1458 H1472 0.960 . S
C1459 C1456 1.511 . S
C1459 H1473 0.961 . S
C1459 H1474 0.961 . S
C1459 H1475 0.961 . S
C1460 C1461 1.370 . S
C1460 C1462 1.363 . S
C1460 H1476 0.931 . S
C1461 C1460 1.370 . S
C1461 C1465 1.408 . S
C1462 C1460 1.363 . S
C1462 C1463 1.370 . S
C1462 C1466 1.524 . S
C1463 C1455 1.503 . S
C1463 C1462 1.370 . S
C1463 C1464 1.403 . S
C1464 C1463 1.403 . S
C1464 C1465 1.404 . S
C1464 C1467 1.539 . S
C1465 C1461 1.408 . S
C1465 C1464 1.404 . S
C1465 H1477 0.930 . S
C1466 C1462 1.524 . S
C1466 H1478 0.956 . S
C1466 H1479 0.961 . S
C1466 H1480 0.961 . S
C1467 C1464 1.539 . S
C1467 H1481 0.958 . S
C1467 H1482 0.961 . S
C1467 H1483 0.960 . S
H1468 C1452 0.931 . S
H1469 C1457 0.929 . S
H1470 C1458 0.960 . S
H1471 C1458 0.962 . S
H1472 C1458 0.960 . S
H1473 C1459 0.961 . S
H1474 C1459 0.961 . S
H1475 C1459 0.961 . S
H1476 C1460 0.931 . S
H1477 C1465 0.930 . S
H1478 C1466 0.956 . S
H1479 C1466 0.961 . S
H1480 C1466 0.961 . S
H1481 C1467 0.958 . S
H1482 C1467 0.961 . S
H1483 C1467 0.960 . S
C1484 C1485 1.391 . S
C1484 C1486 1.394 . S
C1484 H1500 0.931 . S
C1485 C1484 1.391 . S
C1485 C1489 1.376 . S
C1486 C1484 1.394 . S
C1486 C1487 1.369 . S
C1486 C1490 1.531 . S
C1487 C1486 1.369 . S
C1487 C1488 1.410 . S
C1487 C1495 1.503 . S
C1488 C1487 1.410 . S
C1488 C1489 1.392 . S
C1488 C1491 1.511 . S
C1489 C1485 1.376 . S
C1489 C1488 1.392 . S
C1489 H1501 0.929 . S
C1490 C1486 1.531 . S
C1490 H1502 0.960 . S
C1490 H1503 0.962 . S
C1490 H1504 0.960 . S
C1491 C1488 1.511 . S
C1491 H1505 0.961 . S
C1491 H1506 0.961 . S
C1491 H1507 0.961 . S
C1492 C1493 1.370 . S
C1492 C1494 1.363 . S
C1492 H1508 0.931 . S
C1493 C1492 1.370 . S
C1493 C1497 1.408 . S
C1494 C1492 1.363 . S
C1494 C1495 1.370 . S
C1494 C1498 1.524 . S
C1495 C1487 1.503 . S
C1495 C1494 1.370 . S
C1495 C1496 1.403 . S
C1496 C1495 1.403 . S
C1496 C1497 1.404 . S
C1496 C1499 1.539 . S
C1497 C1493 1.408 . S
C1497 C1496 1.404 . S
C1497 H1509 0.930 . S
C1498 C1494 1.524 . S
C1498 H1510 0.956 . S
C1498 H1511 0.961 . S
C1498 H1512 0.961 . S
C1499 C1496 1.539 . S
C1499 H1513 0.958 . S
C1499 H1514 0.961 . S
C1499 H1515 0.960 . S
H1500 C1484 0.931 . S
H1501 C1489 0.929 . S
H1502 C1490 0.960 . S
H1503 C1490 0.962 . S
H1504 C1490 0.960 . S
H1505 C1491 0.961 . S
H1506 C1491 0.961 . S
H1507 C1491 0.961 . S
H1508 C1492 0.931 . S
H1509 C1497 0.930 . S
H1510 C1498 0.956 . S
H1511 C1498 0.961 . S
H1512 C1498 0.961 . S
H1513 C1499 0.958 . S
H1514 C1499 0.961 . S
H1515 C1499 0.960 . S
C1516 C1517 1.391 . S
C1516 C1518 1.394 . S
C1516 H1532 0.931 . S
C1517 C1516 1.391 . S
C1517 C1521 1.376 . S
C1518 C1516 1.394 . S
C1518 C1519 1.369 . S
C1518 C1522 1.531 . S
C1519 C1518 1.369 . S
C1519 C1520 1.410 . S
C1519 C1527 1.503 . S
C1520 C1519 1.410 . S
C1520 C1521 1.392 . S
C1520 C1523 1.511 . S
C1521 C1517 1.376 . S
C1521 C1520 1.392 . S
C1521 H1533 0.929 . S
C1522 C1518 1.531 . S
C1522 H1534 0.960 . S
C1522 H1535 0.962 . S
C1522 H1536 0.960 . S
C1523 C1520 1.511 . S
C1523 H1537 0.961 . S
C1523 H1538 0.961 . S
C1523 H1539 0.961 . S
C1524 C1525 1.370 . S
C1524 C1526 1.363 . S
C1524 H1540 0.931 . S
C1525 C1524 1.370 . S
C1525 C1529 1.408 . S
C1526 C1524 1.363 . S
C1526 C1527 1.370 . S
C1526 C1530 1.524 . S
C1527 C1519 1.503 . S
C1527 C1526 1.370 . S
C1527 C1528 1.403 . S
C1528 C1527 1.403 . S
C1528 C1529 1.404 . S
C1528 C1531 1.539 . S
C1529 C1525 1.408 . S
C1529 C1528 1.404 . S
C1529 H1541 0.930 . S
C1530 C1526 1.524 . S
C1530 H1542 0.956 . S
C1530 H1543 0.961 . S
C1530 H1544 0.961 . S
C1531 C1528 1.539 . S
C1531 H1545 0.958 . S
C1531 H1546 0.961 . S
C1531 H1547 0.960 . S
H1532 C1516 0.931 . S
H1533 C1521 0.929 . S
H1534 C1522 0.960 . S
H1535 C1522 0.962 . S
H1536 C1522 0.960 . S
H1537 C1523 0.961 . S
H1538 C1523 0.961 . S
H1539 C1523 0.961 . S
H1540 C1524 0.931 . S
H1541 C1529 0.930 . S
H1542 C1530 0.956 . S
H1543 C1530 0.961 . S
H1544 C1530 0.961 . S
H1545 C1531 0.958 . S
H1546 C1531 0.961 . S
H1547 C1531 0.960 . S
C1548 C1549 1.391 . S
C1548 C1550 1.394 . S
C1548 H1564 0.931 . S
C1549 C1548 1.391 . S
C1549 C1553 1.376 . S
C1550 C1548 1.394 . S
C1550 C1551 1.369 . S
C1550 C1554 1.531 . S
C1551 C1550 1.369 . S
C1551 C1552 1.410 . S
C1551 C1559 1.503 . S
C1552 C1551 1.410 . S
C1552 C1553 1.392 . S
C1552 C1555 1.511 . S
C1553 C1549 1.376 . S
C1553 C1552 1.392 . S
C1553 H1565 0.929 . S
C1554 C1550 1.531 . S
C1554 H1566 0.960 . S
C1554 H1567 0.962 . S
C1554 H1568 0.960 . S
C1555 C1552 1.511 . S
C1555 H1569 0.961 . S
C1555 H1570 0.961 . S
C1555 H1571 0.961 . S
C1556 C1557 1.370 . S
C1556 C1558 1.363 . S
C1556 H1572 0.931 . S
C1557 C1556 1.370 . S
C1557 C1561 1.408 . S
C1558 C1556 1.363 . S
C1558 C1559 1.370 . S
C1558 C1562 1.524 . S
C1559 C1551 1.503 . S
C1559 C1558 1.370 . S
C1559 C1560 1.403 . S
C1560 C1559 1.403 . S
C1560 C1561 1.404 . S
C1560 C1563 1.539 . S
C1561 C1557 1.408 . S
C1561 C1560 1.404 . S
C1561 H1573 0.930 . S
C1562 C1558 1.524 . S
C1562 H1574 0.956 . S
C1562 H1575 0.961 . S
C1562 H1576 0.961 . S
C1563 C1560 1.539 . S
C1563 H1577 0.958 . S
C1563 H1578 0.961 . S
C1563 H1579 0.960 . S
H1564 C1548 0.931 . S
H1565 C1553 0.929 . S
H1566 C1554 0.960 . S
H1567 C1554 0.962 . S
H1568 C1554 0.960 . S
H1569 C1555 0.961 . S
H1570 C1555 0.961 . S
H1571 C1555 0.961 . S
H1572 C1556 0.931 . S
H1573 C1561 0.930 . S
H1574 C1562 0.956 . S
H1575 C1562 0.961 . S
H1576 C1562 0.961 . S
H1577 C1563 0.958 . S
H1578 C1563 0.961 . S
H1579 C1563 0.960 . S
C1580 C1581 1.391 . S
C1580 C1582 1.394 . S
C1580 H1596 0.931 . S
C1581 C1580 1.391 . S
C1581 C1585 1.376 . S
C1582 C1580 1.394 . S
C1582 C1583 1.369 . S
C1582 C1586 1.531 . S
C1583 C1582 1.369 . S
C1583 C1584 1.410 . S
C1583 C1591 1.503 . S
C1584 C1583 1.410 . S
C1584 C1585 1.392 . S
C1584 C1587 1.511 . S
C1585 C1581 1.376 . S
C1585 C1584 1.392 . S
C1585 H1597 0.929 . S
C1586 C1582 1.531 . S
C1586 H1598 0.960 . S
C1586 H1599 0.962 . S
C1586 H1600 0.960 . S
C1587 C1584 1.511 . S
C1587 H1601 0.961 . S
C1587 H1602 0.961 . S
C1587 H1603 0.961 . S
C1588 C1589 1.370 . S
C1588 C1590 1.363 . S
C1588 H1604 0.931 . S
C1589 C1588 1.370 . S
C1589 C1593 1.408 . S
C1590 C1588 1.363 . S
C1590 C1591 1.370 . S
C1590 C1594 1.524 . S
C1591 C1583 1.503 . S
C1591 C1590 1.370 . S
C1591 C1592 1.403 . S
C1592 C1591 1.403 . S
C1592 C1593 1.404 . S
C1592 C1595 1.539 . S
C1593 C1589 1.408 . S
C1593 C1592 1.404 . S
C1593 H1605 0.930 . S
C1594 C1590 1.524 . S
C1594 H1606 0.956 . S
C1594 H1607 0.961 . S
C1594 H1608 0.961 . S
C1595 C1592 1.539 . S
C1595 H1609 0.958 . S
C1595 H1610 0.961 . S
C1595 H1611 0.960 . S
H1596 C1580 0.931 . S
H1597 C1585 0.929 . S
H1598 C1586 0.960 . S
H1599 C1586 0.962 . S
H1600 C1586 0.960 . S
H1601 C1587 0.961 . S
H1602 C1587 0.961 . S
H1603 C1587 0.961 . S
H1604 C1588 0.931 . S
H1605 C1593 0.930 . S
H1606 C1594 0.956 . S
H1607 C1594 0.961 . S
H1608 C1594 0.961 . S
H1609 C1595 0.958 . S
H1610 C1595 0.961 . S
H1611 C1595 0.960 . S
C1612 C1613 1.391 . S
C1612 C1614 1.394 . S
C1612 H1628 0.931 . S
C1613 C1612 1.391 . S
C1613 C1617 1.376 . S
C1614 C1612 1.394 . S
C1614 C1615 1.369 . S
C1614 C1618 1.531 . S
C1615 C1614 1.369 . S
C1615 C1616 1.410 . S
C1615 C1623 1.503 . S
C1616 C1615 1.410 . S
C1616 C1617 1.392 . S
C1616 C1619 1.511 . S
C1617 C1613 1.376 . S
C1617 C1616 1.392 . S
C1617 H1629 0.929 . S
C1618 C1614 1.531 . S
C1618 H1630 0.960 . S
C1618 H1631 0.962 . S
C1618 H1632 0.960 . S
C1619 C1616 1.511 . S
C1619 H1633 0.961 . S
C1619 H1634 0.961 . S
C1619 H1635 0.961 . S
C1620 C1621 1.370 . S
C1620 C1622 1.363 . S
C1620 H1636 0.931 . S
C1621 C1620 1.370 . S
C1621 C1625 1.408 . S
C1622 C1620 1.363 . S
C1622 C1623 1.370 . S
C1622 C1626 1.524 . S
C1623 C1615 1.503 . S
C1623 C1622 1.370 . S
C1623 C1624 1.403 . S
C1624 C1623 1.403 . S
C1624 C1625 1.404 . S
C1624 C1627 1.539 . S
C1625 C1621 1.408 . S
C1625 C1624 1.404 . S
C1625 H1637 0.930 . S
C1626 C1622 1.524 . S
C1626 H1638 0.956 . S
C1626 H1639 0.961 . S
C1626 H1640 0.961 . S
C1627 C1624 1.539 . S
C1627 H1641 0.958 . S
C1627 H1642 0.961 . S
C1627 H1643 0.960 . S
H1628 C1612 0.931 . S
H1629 C1617 0.929 . S
H1630 C1618 0.960 . S
H1631 C1618 0.962 . S
H1632 C1618 0.960 . S
H1633 C1619 0.961 . S
H1634 C1619 0.961 . S
H1635 C1619 0.961 . S
H1636 C1620 0.931 . S
H1637 C1625 0.930 . S
H1638 C1626 0.956 . S
H1639 C1626 0.961 . S
H1640 C1626 0.961 . S
H1641 C1627 0.958 . S
H1642 C1627 0.961 . S
H1643 C1627 0.960 . S
C1644 C1645 1.391 . S
C1644 C1646 1.394 . S
C1644 H1660 0.931 . S
C1645 C1644 1.391 . S
C1645 C1649 1.376 . S
C1646 C1644 1.394 . S
C1646 C1647 1.369 . S
C1646 C1650 1.531 . S
C1647 C1646 1.369 . S
C1647 C1648 1.410 . S
C1647 C1655 1.503 . S
C1648 C1647 1.410 . S
C1648 C1649 1.392 . S
C1648 C1651 1.511 . S
C1649 C1645 1.376 . S
C1649 C1648 1.392 . S
C1649 H1661 0.929 . S
C1650 C1646 1.531 . S
C1650 H1662 0.960 . S
C1650 H1663 0.962 . S
C1650 H1664 0.960 . S
C1651 C1648 1.511 . S
C1651 H1665 0.961 . S
C1651 H1666 0.961 . S
C1651 H1667 0.961 . S
C1652 C1653 1.370 1_556 S
C1652 C1654 1.363 . S
C1652 H1668 0.931 . S
C1653 C1652 1.370 1_554 S
C1653 C1657 1.408 . S
C1654 C1652 1.363 . S
C1654 C1655 1.370 . S
C1654 C1658 1.524 . S
C1655 C1647 1.503 . S
C1655 C1654 1.370 . S
C1655 C1656 1.403 1_556 S
C1656 C1655 1.403 1_554 S
C1656 C1657 1.404 . S
C1656 C1659 1.539 . S
C1657 C1653 1.408 . S
C1657 C1656 1.404 . S
C1657 H1669 0.930 . S
C1658 C1654 1.524 . S
C1658 H1670 0.956 . S
C1658 H1671 0.961 . S
C1658 H1672 0.961 . S
C1659 C1656 1.539 . S
C1659 H1673 0.958 . S
C1659 H1674 0.961 . S
C1659 H1675 0.960 . S
H1660 C1644 0.931 . S
H1661 C1649 0.929 . S
H1662 C1650 0.960 . S
H1663 C1650 0.962 . S
H1664 C1650 0.960 . S
H1665 C1651 0.961 . S
H1666 C1651 0.961 . S
H1667 C1651 0.961 . S
H1668 C1652 0.931 . S
H1669 C1657 0.930 . S
H1670 C1658 0.956 . S
H1671 C1658 0.961 . S
H1672 C1658 0.961 . S
H1673 C1659 0.958 . S
H1674 C1659 0.961 . S
H1675 C1659 0.960 . S
C1676 C1677 1.391 . S
C1676 C1678 1.394 . S
C1676 H1692 0.931 . S
C1677 C1676 1.391 . S
C1677 C1681 1.376 . S
C1678 C1676 1.394 . S
C1678 C1679 1.369 . S
C1678 C1682 1.531 . S
C1679 C1678 1.369 . S
C1679 C1680 1.410 . S
C1679 C1687 1.503 . S
C1680 C1679 1.410 . S
C1680 C1681 1.392 . S
C1680 C1683 1.511 . S
C1681 C1677 1.376 . S
C1681 C1680 1.392 . S
C1681 H1693 0.929 . S
C1682 C1678 1.531 . S
C1682 H1694 0.960 . S
C1682 H1695 0.962 . S
C1682 H1696 0.960 . S
C1683 C1680 1.511 . S
C1683 H1697 0.961 . S
C1683 H1698 0.961 . S
C1683 H1699 0.961 . S
C1684 C1685 1.370 1_556 S
C1684 C1686 1.363 . S
C1684 H1700 0.931 . S
C1685 C1684 1.370 1_554 S
C1685 C1689 1.408 . S
C1686 C1684 1.363 . S
C1686 C1687 1.370 . S
C1686 C1690 1.524 . S
C1687 C1679 1.503 . S
C1687 C1686 1.370 . S
C1687 C1688 1.403 1_556 S
C1688 C1687 1.403 1_554 S
C1688 C1689 1.404 . S
C1688 C1691 1.539 . S
C1689 C1685 1.408 . S
C1689 C1688 1.404 . S
C1689 H1701 0.930 . S
C1690 C1686 1.524 . S
C1690 H1702 0.956 . S
C1690 H1703 0.961 . S
C1690 H1704 0.961 . S
C1691 C1688 1.539 . S
C1691 H1705 0.958 . S
C1691 H1706 0.961 . S
C1691 H1707 0.960 . S
H1692 C1676 0.931 . S
H1693 C1681 0.929 . S
H1694 C1682 0.960 . S
H1695 C1682 0.962 . S
H1696 C1682 0.960 . S
H1697 C1683 0.961 . S
H1698 C1683 0.961 . S
H1699 C1683 0.961 . S
H1700 C1684 0.931 . S
H1701 C1689 0.930 . S
H1702 C1690 0.956 . S
H1703 C1690 0.961 . S
H1704 C1690 0.961 . S
H1705 C1691 0.958 . S
H1706 C1691 0.961 . S
H1707 C1691 0.960 . S
C1708 C1709 1.391 . S
C1708 C1710 1.394 . S
C1708 H1724 0.931 . S
C1709 C1708 1.391 . S
C1709 C1713 1.376 . S
C1710 C1708 1.394 . S
C1710 C1711 1.369 . S
C1710 C1714 1.531 . S
C1711 C1710 1.369 . S
C1711 C1712 1.410 . S
C1711 C1719 1.503 . S
C1712 C1711 1.410 . S
C1712 C1713 1.392 . S
C1712 C1715 1.511 . S
C1713 C1709 1.376 . S
C1713 C1712 1.392 . S
C1713 H1725 0.929 . S
C1714 C1710 1.531 . S
C1714 H1726 0.960 . S
C1714 H1727 0.962 . S
C1714 H1728 0.960 . S
C1715 C1712 1.511 . S
C1715 H1729 0.961 . S
C1715 H1730 0.961 . S
C1715 H1731 0.961 . S
C1716 C1717 1.370 . S
C1716 C1718 1.363 . S
C1716 H1732 0.931 . S
C1717 C1716 1.370 . S
C1717 C1721 1.408 1_554 S
C1718 C1716 1.363 . S
C1718 C1719 1.370 1_554 S
C1718 C1722 1.524 . S
C1719 C1711 1.503 . S
C1719 C1718 1.370 1_556 S
C1719 C1720 1.403 . S
C1720 C1719 1.403 . S
C1720 C1721 1.404 . S
C1720 C1723 1.539 . S
C1721 C1717 1.408 1_556 S
C1721 C1720 1.404 . S
C1721 H1733 0.930 . S
C1722 C1718 1.524 . S
C1722 H1734 0.956 . S
C1722 H1735 0.961 . S
C1722 H1736 0.961 . S
C1723 C1720 1.539 . S
C1723 H1737 0.958 . S
C1723 H1738 0.961 . S
C1723 H1739 0.960 . S
H1724 C1708 0.931 . S
H1725 C1713 0.929 . S
H1726 C1714 0.960 . S
H1727 C1714 0.962 . S
H1728 C1714 0.960 . S
H1729 C1715 0.961 . S
H1730 C1715 0.961 . S
H1731 C1715 0.961 . S
H1732 C1716 0.931 . S
H1733 C1721 0.930 . S
H1734 C1722 0.956 . S
H1735 C1722 0.961 . S
H1736 C1722 0.961 . S
H1737 C1723 0.958 . S
H1738 C1723 0.961 . S
H1739 C1723 0.960 . S
C1740 C1741 1.391 . S
C1740 C1742 1.394 . S
C1740 H1756 0.931 . S
C1741 C1740 1.391 . S
C1741 C1745 1.376 . S
C1742 C1740 1.394 . S
C1742 C1743 1.369 . S
C1742 C1746 1.531 . S
C1743 C1742 1.369 . S
C1743 C1744 1.410 . S
C1743 C1751 1.503 . S
C1744 C1743 1.410 . S
C1744 C1745 1.392 . S
C1744 C1747 1.511 . S
C1745 C1741 1.376 . S
C1745 C1744 1.392 . S
C1745 H1757 0.929 . S
C1746 C1742 1.531 . S
C1746 H1758 0.960 . S
C1746 H1759 0.962 . S
C1746 H1760 0.960 . S
C1747 C1744 1.511 . S
C1747 H1761 0.961 . S
C1747 H1762 0.961 . S
C1747 H1763 0.961 . S
C1748 C1749 1.370 . S
C1748 C1750 1.363 . S
C1748 H1764 0.931 . S
C1749 C1748 1.370 . S
C1749 C1753 1.408 . S
C1750 C1748 1.363 . S
C1750 C1751 1.370 . S
C1750 C1754 1.524 . S
C1751 C1743 1.503 . S
C1751 C1750 1.370 . S
C1751 C1752 1.403 . S
C1752 C1751 1.403 . S
C1752 C1753 1.404 . S
C1752 C1755 1.539 . S
C1753 C1749 1.408 . S
C1753 C1752 1.404 . S
C1753 H1765 0.930 . S
C1754 C1750 1.524 . S
C1754 H1766 0.956 . S
C1754 H1767 0.961 . S
C1754 H1768 0.961 . S
C1755 C1752 1.539 . S
C1755 H1769 0.958 . S
C1755 H1770 0.961 . S
C1755 H1771 0.960 . S
H1756 C1740 0.931 . S
H1757 C1745 0.929 . S
H1758 C1746 0.960 . S
H1759 C1746 0.962 . S
H1760 C1746 0.960 . S
H1761 C1747 0.961 . S
H1762 C1747 0.961 . S
H1763 C1747 0.961 . S
H1764 C1748 0.931 . S
H1765 C1753 0.930 . S
H1766 C1754 0.956 . S
H1767 C1754 0.961 . S
H1768 C1754 0.961 . S
H1769 C1755 0.958 . S
H1770 C1755 0.961 . S
H1771 C1755 0.960 . S
C1772 C1773 1.391 . S
C1772 C1774 1.394 . S
C1772 H1788 0.931 . S
C1773 C1772 1.391 . S
C1773 C1777 1.376 . S
C1774 C1772 1.394 . S
C1774 C1775 1.369 . S
C1774 C1778 1.531 . S
C1775 C1774 1.369 . S
C1775 C1776 1.410 . S
C1775 C1783 1.503 . S
C1776 C1775 1.410 . S
C1776 C1777 1.392 . S
C1776 C1779 1.511 . S
C1777 C1773 1.376 . S
C1777 C1776 1.392 . S
C1777 H1789 0.929 . S
C1778 C1774 1.531 . S
C1778 H1790 0.960 . S
C1778 H1791 0.962 . S
C1778 H1792 0.960 . S
C1779 C1776 1.511 . S
C1779 H1793 0.961 . S
C1779 H1794 0.961 . S
C1779 H1795 0.961 . S
C1780 C1781 1.370 . S
C1780 C1782 1.363 . S
C1780 H1796 0.931 . S
C1781 C1780 1.370 . S
C1781 C1785 1.408 . S
C1782 C1780 1.363 . S
C1782 C1783 1.370 . S
C1782 C1786 1.524 . S
C1783 C1775 1.503 . S
C1783 C1782 1.370 . S
C1783 C1784 1.403 . S
C1784 C1783 1.403 . S
C1784 C1785 1.404 . S
C1784 C1787 1.539 . S
C1785 C1781 1.408 . S
C1785 C1784 1.404 . S
C1785 H1797 0.930 . S
C1786 C1782 1.524 . S
C1786 H1798 0.956 . S
C1786 H1799 0.961 . S
C1786 H1800 0.961 . S
C1787 C1784 1.539 . S
C1787 H1801 0.958 . S
C1787 H1802 0.961 . S
C1787 H1803 0.960 . S
H1788 C1772 0.931 . S
H1789 C1777 0.929 . S
H1790 C1778 0.960 . S
H1791 C1778 0.962 . S
H1792 C1778 0.960 . S
H1793 C1779 0.961 . S
H1794 C1779 0.961 . S
H1795 C1779 0.961 . S
H1796 C1780 0.931 . S
H1797 C1785 0.930 . S
H1798 C1786 0.956 . S
H1799 C1786 0.961 . S
H1800 C1786 0.961 . S
H1801 C1787 0.958 . S
H1802 C1787 0.961 . S
H1803 C1787 0.960 . S
C1804 C1805 1.391 . S
C1804 C1806 1.394 . S
C1804 H1820 0.931 . S
C1805 C1804 1.391 . S
C1805 C1809 1.376 . S
C1806 C1804 1.394 . S
C1806 C1807 1.369 . S
C1806 C1810 1.531 . S
C1807 C1806 1.369 . S
C1807 C1808 1.410 . S
C1807 C1815 1.503 . S
C1808 C1807 1.410 . S
C1808 C1809 1.392 . S
C1808 C1811 1.511 . S
C1809 C1805 1.376 . S
C1809 C1808 1.392 . S
C1809 H1821 0.929 . S
C1810 C1806 1.531 . S
C1810 H1822 0.960 . S
C1810 H1823 0.962 . S
C1810 H1824 0.960 . S
C1811 C1808 1.511 . S
C1811 H1825 0.961 . S
C1811 H1826 0.961 . S
C1811 H1827 0.961 . S
C1812 C1813 1.370 . S
C1812 C1814 1.363 . S
C1812 H1828 0.931 . S
C1813 C1812 1.370 . S
C1813 C1817 1.408 . S
C1814 C1812 1.363 . S
C1814 C1815 1.370 . S
C1814 C1818 1.524 . S
C1815 C1807 1.503 . S
C1815 C1814 1.370 . S
C1815 C1816 1.403 . S
C1816 C1815 1.403 . S
C1816 C1817 1.404 . S
C1816 C1819 1.539 . S
C1817 C1813 1.408 . S
C1817 C1816 1.404 . S
C1817 H1829 0.930 . S
C1818 C1814 1.524 . S
C1818 H1830 0.956 . S
C1818 H1831 0.961 . S
C1818 H1832 0.961 . S
C1819 C1816 1.539 . S
C1819 H1833 0.958 . S
C1819 H1834 0.961 . S
C1819 H1835 0.960 . S
H1820 C1804 0.931 . S
H1821 C1809 0.929 . S
H1822 C1810 0.960 . S
H1823 C1810 0.962 . S
H1824 C1810 0.960 . S
H1825 C1811 0.961 . S
H1826 C1811 0.961 . S
H1827 C1811 0.961 . S
H1828 C1812 0.931 . S
H1829 C1817 0.930 . S
H1830 C1818 0.956 . S
H1831 C1818 0.961 . S
H1832 C1818 0.961 . S
H1833 C1819 0.958 . S
H1834 C1819 0.961 . S
H1835 C1819 0.960 . S
C1836 C1837 1.391 1_554 S
C1836 C1838 1.394 . S
C1836 H1852 0.931 . S
C1837 C1836 1.391 1_556 S
C1837 C1841 1.376 . S
C1838 C1836 1.394 . S
C1838 C1839 1.369 . S
C1838 C1842 1.531 . S
C1839 C1838 1.369 . S
C1839 C1840 1.410 . S
C1839 C1847 1.503 . S
C1840 C1839 1.410 . S
C1840 C1841 1.392 1_554 S
C1840 C1843 1.511 . S
C1841 C1837 1.376 . S
C1841 C1840 1.392 1_556 S
C1841 H1853 0.929 . S
C1842 C1838 1.531 . S
C1842 H1854 0.960 . S
C1842 H1855 0.962 . S
C1842 H1856 0.960 . S
C1843 C1840 1.511 . S
C1843 H1857 0.961 . S
C1843 H1858 0.961 . S
C1843 H1859 0.961 . S
C1844 C1845 1.370 . S
C1844 C1846 1.363 . S
C1844 H1860 0.931 . S
C1845 C1844 1.370 . S
C1845 C1849 1.408 . S
C1846 C1844 1.363 . S
C1846 C1847 1.370 . S
C1846 C1850 1.538 . S
C1847 C1839 1.503 . S
C1847 C1846 1.370 . S
C1847 C1848 1.403 . S
C1848 C1847 1.403 . S
C1848 C1849 1.404 . S
C1848 C1851 1.539 . S
C1849 C1845 1.408 . S
C1849 C1848 1.404 . S
C1849 H1861 0.930 . S
C1850 C1846 1.538 . S
C1850 H1862 0.953 1_554 S
C1850 H1863 0.954 1_554 S
C1850 H1864 0.957 1_554 S
C1851 C1848 1.539 . S
C1851 H1865 0.958 . S
C1851 H1866 0.961 . S
C1851 H1867 0.960 . S
H1852 C1836 0.931 . S
H1853 C1841 0.929 . S
H1854 C1842 0.960 . S
H1855 C1842 0.962 . S
H1856 C1842 0.960 . S
H1857 C1843 0.961 . S
H1858 C1843 0.961 . S
H1859 C1843 0.961 . S
H1860 C1844 0.931 . S
H1861 C1849 0.930 . S
H1862 C1850 0.953 1_556 S
H1863 C1850 0.954 1_556 S
H1864 C1850 0.957 1_556 S
H1865 C1851 0.958 . S
H1866 C1851 0.961 . S
H1867 C1851 0.960 . S
C1868 C1869 1.391 . S
C1868 C1870 1.394 . S
C1868 H1884 0.931 . S
C1869 C1868 1.391 . S
C1869 C1873 1.376 . S
C1870 C1868 1.394 . S
C1870 C1871 1.369 . S
C1870 C1874 1.531 . S
C1871 C1870 1.369 . S
C1871 C1872 1.410 . S
C1871 C1879 1.503 . S
C1872 C1871 1.410 . S
C1872 C1873 1.392 . S
C1872 C1875 1.511 . S
C1873 C1869 1.376 . S
C1873 C1872 1.392 . S
C1873 H1885 0.929 . S
C1874 C1870 1.531 . S
C1874 H1886 0.960 . S
C1874 H1887 0.962 . S
C1874 H1888 0.960 . S
C1875 C1872 1.511 . S
C1875 H1889 0.961 . S
C1875 H1890 0.961 . S
C1875 H1891 0.961 . S
C1876 C1877 1.370 . S
C1876 C1878 1.363 . S
C1876 H1892 0.931 . S
C1877 C1876 1.370 . S
C1877 C1881 1.408 1_556 S
C1878 C1876 1.363 . S
C1878 C1879 1.370 1_556 S
C1878 C1882 1.524 . S
C1879 C1871 1.503 . S
C1879 C1878 1.370 1_554 S
C1879 C1880 1.403 . S
C1880 C1879 1.403 . S
C1880 C1881 1.404 . S
C1880 C1883 1.539 . S
C1881 C1877 1.408 1_554 S
C1881 C1880 1.404 . S
C1881 H1893 0.930 . S
C1882 C1878 1.524 . S
C1882 H1894 0.956 . S
C1882 H1895 0.961 . S
C1882 H1896 0.961 . S
C1883 C1880 1.539 . S
C1883 H1897 0.958 . S
C1883 H1898 0.961 . S
C1883 H1899 0.960 . S
H1884 C1868 0.931 . S
H1885 C1873 0.929 . S
H1886 C1874 0.960 . S
H1887 C1874 0.962 . S
H1888 C1874 0.960 . S
H1889 C1875 0.961 . S
H1890 C1875 0.961 . S
H1891 C1875 0.961 . S
H1892 C1876 0.931 . S
H1893 C1881 0.930 . S
H1894 C1882 0.956 . S
H1895 C1882 0.961 . S
H1896 C1882 0.961 . S
H1897 C1883 0.958 . S
H1898 C1883 0.961 . S
H1899 C1883 0.960 . S
C1900 C1901 1.391 . S
C1900 C1902 1.394 . S
C1900 H1916 0.931 . S
C1901 C1900 1.391 . S
C1901 C1905 1.376 . S
C1902 C1900 1.394 . S
C1902 C1903 1.369 . S
C1902 C1906 1.531 . S
C1903 C1902 1.369 . S
C1903 C1904 1.410 . S
C1903 C1911 1.503 . S
C1904 C1903 1.410 . S
C1904 C1905 1.392 . S
C1904 C1907 1.511 . S
C1905 C1901 1.376 . S
C1905 C1904 1.392 . S
C1905 H1917 0.929 . S
C1906 C1902 1.531 . S
C1906 H1918 0.960 . S
C1906 H1919 0.962 . S
C1906 H1920 0.960 . S
C1907 C1904 1.511 . S
C1907 H1921 0.961 . S
C1907 H1922 0.961 . S
C1907 H1923 0.961 . S
C1908 C1909 1.370 . S
C1908 C1910 1.363 1_556 S
C1908 H1924 0.931 . S
C1909 C1908 1.370 . S
C1909 C1913 1.408 1_556 S
C1910 C1908 1.363 1_554 S
C1910 C1911 1.370 . S
C1910 C1914 1.524 1_554 S
C1911 C1903 1.503 . S
C1911 C1910 1.370 . S
C1911 C1912 1.403 . S
C1912 C1911 1.403 . S
C1912 C1913 1.404 . S
C1912 C1915 1.539 . S
C1913 C1909 1.408 1_554 S
C1913 C1912 1.404 . S
C1913 H1925 0.930 . S
C1914 C1910 1.524 1_556 S
C1914 H1926 0.956 1_556 S
C1914 H1927 0.961 . S
C1914 H1928 0.961 . S
C1915 C1912 1.539 . S
C1915 H1929 0.958 . S
C1915 H1930 0.961 . S
C1915 H1931 0.960 . S
H1916 C1900 0.931 . S
H1917 C1905 0.929 . S
H1918 C1906 0.960 . S
H1919 C1906 0.962 . S
H1920 C1906 0.960 . S
H1921 C1907 0.961 . S
H1922 C1907 0.961 . S
H1923 C1907 0.961 . S
H1924 C1908 0.931 . S
H1925 C1913 0.930 . S
H1926 C1914 0.956 1_554 S
H1927 C1914 0.961 . S
H1928 C1914 0.961 . S
H1929 C1915 0.958 . S
H1930 C1915 0.961 . S
H1931 C1915 0.960 . S
C1932 C1933 1.391 . S
C1932 C1934 1.394 . S
C1932 H1948 0.931 . S
C1933 C1932 1.391 . S
C1933 C1937 1.376 . S
C1934 C1932 1.394 . S
C1934 C1935 1.369 . S
C1934 C1938 1.531 . S
C1935 C1934 1.369 . S
C1935 C1936 1.410 . S
C1935 C1943 1.503 1_655 S
C1936 C1935 1.410 . S
C1936 C1937 1.392 . S
C1936 C1939 1.511 . S
C1937 C1933 1.376 . S
C1937 C1936 1.392 . S
C1937 H1949 0.929 . S
C1938 C1934 1.531 . S
C1938 H1950 0.960 . S
C1938 H1951 0.962 . S
C1938 H1952 0.960 . S
C1939 C1936 1.511 . S
C1939 H1953 0.961 . S
C1939 H1954 0.961 1_655 S
C1939 H1955 0.961 . S
C1940 C1941 1.370 . S
C1940 C1942 1.363 . S
C1940 H1956 0.931 . S
C1941 C1940 1.370 . S
C1941 C1945 1.408 . S
C1942 C1940 1.363 . S
C1942 C1943 1.370 . S
C1942 C1946 1.524 . S
C1943 C1935 1.503 1_455 S
C1943 C1942 1.370 . S
C1943 C1944 1.403 . S
C1944 C1943 1.403 . S
C1944 C1945 1.404 . S
C1944 C1947 1.539 1_455 S
C1945 C1941 1.408 . S
C1945 C1944 1.404 . S
C1945 H1957 0.930 . S
C1946 C1942 1.524 . S
C1946 H1958 0.956 . S
C1946 H1959 0.961 . S
C1946 H1960 0.961 . S
C1947 C1944 1.539 1_655 S
C1947 H1961 0.958 . S
C1947 H1962 0.961 . S
C1947 H1963 0.960 . S
H1948 C1932 0.931 . S
H1949 C1937 0.929 . S
H1950 C1938 0.960 . S
H1951 C1938 0.962 . S
H1952 C1938 0.960 . S
H1953 C1939 0.961 . S
H1954 C1939 0.961 1_455 S
H1955 C1939 0.961 . S
H1956 C1940 0.931 . S
H1957 C1945 0.930 . S
H1958 C1946 0.956 . S
H1959 C1946 0.961 . S
H1960 C1946 0.961 . S
H1961 C1947 0.958 . S
H1962 C1947 0.961 . S
H1963 C1947 0.960 . S
C1964 C1965 1.391 . S
C1964 C1966 1.394 . S
C1964 H1980 0.931 . S
C1965 C1964 1.391 . S
C1965 C1969 1.376 . S
C1966 C1964 1.394 . S
C1966 C1967 1.369 . S
C1966 C1970 1.531 . S
C1967 C1966 1.369 . S
C1967 C1968 1.410 . S
C1967 C1975 1.503 . S
C1968 C1967 1.410 . S
C1968 C1969 1.392 . S
C1968 C1971 1.511 . S
C1969 C1965 1.376 . S
C1969 C1968 1.392 . S
C1969 H1981 0.929 . S
C1970 C1966 1.531 . S
C1970 H1982 0.960 . S
C1970 H1983 0.962 . S
C1970 H1984 0.960 . S
C1971 C1968 1.511 . S
C1971 H1985 0.961 . S
C1971 H1986 0.961 . S
C1971 H1987 0.961 . S
C1972 C1973 1.370 . S
C1972 C1974 1.363 . S
C1972 H1988 0.931 . S
C1973 C1972 1.370 . S
C1973 C1977 1.408 . S
C1974 C1972 1.363 . S
C1974 C1975 1.370 . S
C1974 C1978 1.524 . S
C1975 C1967 1.503 . S
C1975 C1974 1.370 . S
C1975 C1976 1.403 . S
C1976 C1975 1.403 . S
C1976 C1977 1.404 . S
C1976 C1979 1.539 . S
C1977 C1973 1.408 . S
C1977 C1976 1.404 . S
C1977 H1989 0.930 . S
C1978 C1974 1.524 . S
C1978 H1990 0.956 . S
C1978 H1991 0.961 . S
C1978 H1992 0.961 . S
C1979 C1976 1.539 . S
C1979 H1993 0.958 . S
C1979 H1994 0.961 . S
C1979 H1995 0.960 . S
H1980 C1964 0.931 . S
H1981 C1969 0.929 . S
H1982 C1970 0.960 . S
H1983 C1970 0.962 . S
H1984 C1970 0.960 . S
H1985 C1971 0.961 . S
H1986 C1971 0.961 . S
H1987 C1971 0.961 . S
H1988 C1972 0.931 . S
H1989 C1977 0.930 . S
H1990 C1978 0.956 . S
H1991 C1978 0.961 . S
H1992 C1978 0.961 . S
H1993 C1979 0.958 . S
H1994 C1979 0.961 . S
H1995 C1979 0.960 . S
C1996 C1997 1.391 . S
C1996 C1998 1.394 . S
C1996 H2012 0.931 . S
C1997 C1996 1.391 . S
C1997 C2001 1.376 . S
C1998 C1996 1.394 . S
C1998 C1999 1.369 . S
C1998 C2002 1.531 . S
C1999 C1998 1.369 . S
C1999 C2000 1.410 . S
C1999 C2007 1.503 1_565 S
C2000 C1999 1.410 . S
C2000 C2001 1.392 . S
C2000 C2003 1.511 . S
C2001 C1997 1.376 . S
C2001 C2000 1.392 . S
C2001 H2013 0.929 . S
C2002 C1998 1.531 . S
C2002 H2014 0.960 . S
C2002 H2015 0.964 . S
C2002 H2016 0.960 . S
C2003 C2000 1.511 . S
C2003 H2017 0.961 . S
C2003 H2018 0.961 1_565 S
C2003 H2019 0.961 . S
C2004 C2005 1.370 . S
C2004 C2006 1.363 . S
C2004 H2020 0.931 . S
C2005 C2004 1.370 . S
C2005 C2009 1.408 . S
C2006 C2004 1.363 . S
C2006 C2007 1.370 . S
C2006 C2010 1.524 . S
C2007 C1999 1.503 1_545 S
C2007 C2006 1.370 . S
C2007 C2008 1.403 . S
C2008 C2007 1.403 . S
C2008 C2009 1.404 . S
C2008 C2011 1.539 1_545 S
C2009 C2005 1.408 . S
C2009 C2008 1.404 . S
C2009 H2021 0.930 . S
C2010 C2006 1.524 . S
C2010 H2022 0.956 . S
C2010 H2023 0.961 . S
C2010 H2024 0.961 . S
C2011 C2008 1.539 1_565 S
C2011 H2025 0.958 . S
C2011 H2026 0.961 . S
C2011 H2027 0.960 . S
H2012 C1996 0.931 . S
H2013 C2001 0.929 . S
H2014 C2002 0.960 . S
H2015 C2002 0.964 . S
H2016 C2002 0.960 . S
H2017 C2003 0.961 . S
H2018 C2003 0.961 1_545 S
H2019 C2003 0.961 . S
H2020 C2004 0.931 . S
H2021 C2009 0.930 . S
H2022 C2010 0.956 . S
H2023 C2010 0.961 . S
H2024 C2010 0.961 . S
H2025 C2011 0.958 . S
H2026 C2011 0.961 . S
H2027 C2011 0.960 . S
C2028 C2029 1.391 . S
C2028 C2030 1.394 . S
C2028 H2044 0.931 . S
C2029 C2028 1.391 . S
C2029 C2033 1.376 . S
C2030 C2028 1.394 . S
C2030 C2031 1.369 . S
C2030 C2034 1.531 . S
C2031 C2030 1.369 . S
C2031 C2032 1.410 . S
C2031 C2039 1.503 1_565 S
C2032 C2031 1.410 . S
C2032 C2033 1.392 . S
C2032 C2035 1.511 1_565 S
C2033 C2029 1.376 . S
C2033 C2032 1.392 . S
C2033 H2045 0.929 . S
C2034 C2030 1.531 . S
C2034 H2046 0.960 1_565 S
C2034 H2047 0.962 . S
C2034 H2048 0.960 . S
C2035 C2032 1.511 1_545 S
C2035 H2049 0.961 1_545 S
C2035 H2050 0.961 . S
C2035 H2051 0.961 . S
C2036 C2037 1.370 . S
C2036 C2038 1.363 . S
C2036 H2052 0.931 . S
C2037 C2036 1.370 . S
C2037 C2041 1.408 . S
C2038 C2036 1.363 . S
C2038 C2039 1.370 . S
C2038 C2042 1.524 1_545 S
C2039 C2031 1.503 1_545 S
C2039 C2038 1.370 . S
C2039 C2040 1.403 . S
C2040 C2039 1.403 . S
C2040 C2041 1.404 . S
C2040 C2043 1.539 . S
C2041 C2037 1.408 . S
C2041 C2040 1.404 . S
C2041 H2053 0.930 . S
C2042 C2038 1.524 1_565 S
C2042 H2054 0.956 . S
C2042 H2055 0.961 . S
C2042 H2056 0.961 . S
C2043 C2040 1.539 . S
C2043 H2057 0.958 . S
C2043 H2058 0.961 . S
C2043 H2059 0.960 . S
H2044 C2028 0.931 . S
H2045 C2033 0.929 . S
H2046 C2034 0.960 1_545 S
H2047 C2034 0.962 . S
H2048 C2034 0.960 . S
H2049 C2035 0.961 1_565 S
H2050 C2035 0.961 . S
H2051 C2035 0.961 . S
H2052 C2036 0.931 . S
H2053 C2041 0.930 . S
H2054 C2042 0.956 . S
H2055 C2042 0.961 . S
H2056 C2042 0.961 . S
H2057 C2043 0.958 . S
H2058 C2043 0.961 . S
H2059 C2043 0.960 . S
C2060 C2061 1.391 . S
C2060 C2062 1.394 . S
C2060 H2076 0.931 . S
C2061 C2060 1.391 . S
C2061 C2065 1.376 . S
C2062 C2060 1.394 . S
C2062 C2063 1.369 . S
C2062 C2066 1.531 . S
C2063 C2062 1.369 . S
C2063 C2064 1.410 . S
C2063 C2071 1.503 1_455 S
C2064 C2063 1.410 . S
C2064 C2065 1.392 . S
C2064 C2067 1.511 . S
C2065 C2061 1.376 . S
C2065 C2064 1.392 . S
C2065 H2077 0.929 . S
C2066 C2062 1.531 . S
C2066 H2078 0.960 1_455 S
C2066 H2079 0.962 . S
C2066 H2080 0.960 . S
C2067 C2064 1.511 . S
C2067 H2081 0.961 . S
C2067 H2082 0.961 . S
C2067 H2083 0.961 . S
C2068 C2069 1.370 . S
C2068 C2070 1.363 . S
C2068 H2084 0.931 . S
C2069 C2068 1.370 . S
C2069 C2073 1.408 . S
C2070 C2068 1.363 . S
C2070 C2071 1.370 . S
C2070 C2074 1.524 1_655 S
C2071 C2063 1.503 1_655 S
C2071 C2070 1.370 . S
C2071 C2072 1.403 . S
C2072 C2071 1.403 . S
C2072 C2073 1.404 . S
C2072 C2075 1.539 . S
C2073 C2069 1.408 . S
C2073 C2072 1.404 . S
C2073 H2085 0.930 . S
C2074 C2070 1.524 1_455 S
C2074 H2086 0.956 . S
C2074 H2087 0.961 . S
C2074 H2088 0.961 . S
C2075 C2072 1.539 . S
C2075 H2089 0.958 . S
C2075 H2090 0.961 . S
C2075 H2091 0.960 . S
H2076 C2060 0.931 . S
H2077 C2065 0.929 . S
H2078 C2066 0.960 1_655 S
H2079 C2066 0.962 . S
H2080 C2066 0.960 . S
H2081 C2067 0.961 . S
H2082 C2067 0.961 . S
H2083 C2067 0.961 . S
H2084 C2068 0.931 . S
H2085 C2073 0.930 . S
H2086 C2074 0.956 . S
H2087 C2074 0.961 . S
H2088 C2074 0.961 . S
H2089 C2075 0.958 . S
H2090 C2075 0.961 . S
H2091 C2075 0.960 . S
C2092 C2093 1.391 . S
C2092 C2094 1.394 . S
C2092 H2108 0.931 . S
C2093 C2092 1.391 . S
C2093 C2097 1.376 . S
C2094 C2092 1.394 . S
C2094 C2095 1.369 . S
C2094 C2098 1.531 . S
C2095 C2094 1.369 . S
C2095 C2096 1.410 . S
C2095 C2103 1.503 . S
C2096 C2095 1.410 . S
C2096 C2097 1.392 . S
C2096 C2099 1.511 . S
C2097 C2093 1.376 . S
C2097 C2096 1.392 . S
C2097 H2109 0.929 . S
C2098 C2094 1.531 . S
C2098 H2110 0.960 . S
C2098 H2111 0.962 . S
C2098 H2112 0.960 . S
C2099 C2096 1.511 . S
C2099 H2113 0.961 . S
C2099 H2114 0.961 . S
C2099 H2115 0.961 . S
C2100 C2101 1.370 . S
C2100 C2102 1.363 . S
C2100 H2116 0.931 . S
C2101 C2100 1.370 . S
C2101 C2105 1.408 . S
C2102 C2100 1.363 . S
C2102 C2103 1.370 . S
C2102 C2106 1.524 . S
C2103 C2095 1.503 . S
C2103 C2102 1.370 . S
C2103 C2104 1.403 . S
C2104 C2103 1.403 . S
C2104 C2105 1.404 . S
C2104 C2107 1.539 . S
C2105 C2101 1.408 . S
C2105 C2104 1.404 . S
C2105 H2117 0.930 . S
C2106 C2102 1.524 . S
C2106 H2118 0.956 . S
C2106 H2119 0.961 . S
C2106 H2120 0.961 . S
C2107 C2104 1.539 . S
C2107 H2121 0.958 . S
C2107 H2122 0.961 . S
C2107 H2123 0.960 . S
H2108 C2092 0.931 . S
H2109 C2097 0.929 . S
H2110 C2098 0.960 . S
H2111 C2098 0.962 . S
H2112 C2098 0.960 . S
H2113 C2099 0.961 . S
H2114 C2099 0.961 . S
H2115 C2099 0.961 . S
H2116 C2100 0.931 . S
H2117 C2105 0.930 . S
H2118 C2106 0.956 . S
H2119 C2106 0.961 . S
H2120 C2106 0.961 . S
H2121 C2107 0.958 . S
H2122 C2107 0.961 . S
H2123 C2107 0.960 . S
C397 C4 1.314 . S
C405 C94 1.307 . S
C429 C114 1.285 . S
C437 C28 1.318 . S
C461 C48 1.329 . S
C469 C70 1.317 . S
C493 C51 1.313 . S
C501 C96 1.301 . S
C525 C117 1.323 . S
C533 C7 1.324 . S
C557 C30 1.308 . S
C565 C73 1.299 . S
C589 C31 1.294 . S
C597 C74 1.319 . S
C621 C52 1.326 . S
C629 C97 1.326 . S
C653 C118 1.318 . S
C661 C8 1.308 . S
C685 C115 1.311 . S
C693 C26 1.301 . S
C717 C49 1.310 . S
C725 C71 1.323 . S
C749 C5 1.294 . S
C757 C92 1.319 . S
C781 C226 1.285 . S
C789 C136 1.317 . S
C813 C158 1.329 . S
C821 C248 1.317 . S
C845 C180 1.325 . S
C853 C204 1.311 . S
C877 C228 1.283 . S
C885 C183 1.317 . S
C909 C250 1.325 . S
C917 C139 1.325 . S
C941 C206 1.297 . S
C949 C161 1.318 . S
C973 C162 1.322 . S
C981 C207 1.325 . S
C1005 C184 1.293 . S
C1013 C229 1.319 . S
C1037 C140 1.314 . S
C1045 C251 1.323 . S
C1069 C159 1.311 . S
C1077 C246 1.323 . S
C1101 C181 1.284 . S
C1109 C202 1.317 . S
C1133 C224 1.311 . S
C1141 C137 1.302 . S
C1165 C268 1.308 . S
C1173 C358 1.301 . S
C1197 C292 1.308 . S
C1205 C380 1.299 . S
C1229 C334 1.284 . S
C1237 C312 1.317 . S
C1261 C360 1.311 . S
C1269 C315 1.324 . S
C1293 C271 1.308 . S
C1301 C382 1.299 . S
C1325 C294 1.329 . S
C1333 C337 1.315 . S
C1357 C295 1.312 . S
C1365 C338 1.323 . S
C1389 C316 1.296 . S
C1397 C361 1.320 . S
C1421 C272 1.283 . S
C1429 C383 1.317 . S
C1453 C378 1.317 . S
C1461 C290 1.307 . S
C1485 C335 1.321 . S
C1493 C313 1.311 . S
C1517 C269 1.307 . S
C1525 C356 1.322 . S
C1549 C6 1.843 . S
C1557 C293 1.824 . S
C1581 C27 1.781 . S
C1589 C317 1.810 . S
C1613 C50 1.824 . S
C1621 C273 1.830 . S
C1645 C53 1.791 . S
C1653 C160 1.823 . S
C1677 C9 1.787 . S
C1685 C182 1.821 . S
C1709 C29 1.840 . S
C1717 C138 1.815 . S
C1741 C225 1.820 . S
C1749 C75 1.829 . S
C1773 C95 1.824 . S
C1781 C247 1.804 . S
C1805 C119 1.784 . S
C1813 C203 1.823 . S
C1837 C359 1.796 . S
C1845 C116 1.828 . S
C1869 C72 1.828 . S
C1877 C381 1.805 . S
C1901 C93 1.812 . S
C1909 C339 1.803 . S
C1933 C185 1.787 . S
C1941 C291 1.821 . S
C1965 C141 1.800 . S
C1973 C314 1.803 . S
C1997 C270 1.789 . S
C2005 C163 1.822 . S
C2029 C357 1.840 . S
C2037 C205 1.810 . S
C2061 C379 1.824 . S
C2069 C227 1.804 . S
C2093 C249 1.822 . S
C2101 C336 1.804 . S
