# Generated by pormake.
# Topology gsi, (4)-cn, num edge types: 1
# Building blocks:
#     Node 0, Type 0, BuildingBlock: CEKHIL_clean_sbu_0, # of connection points: 4
#     Node 1, Type 0, BuildingBlock: CEKHIL_clean_sbu_0, # of connection points: 4
#     Node 2, Type 0, BuildingBlock: CEKHIL_clean_sbu_0, # of connection points: 4
#     Node 3, Type 0, BuildingBlock: CEKHIL_clean_sbu_0, # of connection points: 4
#     Node 4, Type 0, BuildingBlock: CEKHIL_clean_sbu_0, # of connection points: 4
#     Node 5, Type 0, BuildingBlock: CEKHIL_clean_sbu_0, # of connection points: 4
#     Node 6, Type 0, BuildingBlock: CEKHIL_clean_sbu_0, # of connection points: 4
#     Node 7, Type 0, BuildingBlock: CEKHIL_clean_sbu_0, # of connection points: 4
#     Node 8, Type 0, BuildingBlock: CEKHIL_clean_sbu_0, # of connection points: 4
#     Node 9, Type 0, BuildingBlock: CEKHIL_clean_sbu_0, # of connection points: 4
#     Node 10, Type 0, BuildingBlock: CEKHIL_clean_sbu_0, # of connection points: 4
#     Node 11, Type 0, BuildingBlock: CEKHIL_clean_sbu_0, # of connection points: 4
#     Node 12, Type 0, BuildingBlock: CEKHIL_clean_sbu_0, # of connection points: 4
#     Node 13, Type 0, BuildingBlock: CEKHIL_clean_sbu_0, # of connection points: 4
#     Node 14, Type 0, BuildingBlock: CEKHIL_clean_sbu_0, # of connection points: 4
#     Node 15, Type 0, BuildingBlock: CEKHIL_clean_sbu_0, # of connection points: 4
#     Edge 16, Type (0, 0), BuildingBlock: UVAHIK_clean_linker_0, # of connection points: 2
#     Edge 17, Type (0, 0), BuildingBlock: UVAHIK_clean_linker_0, # of connection points: 2
#     Edge 18, Type (0, 0), BuildingBlock: UVAHIK_clean_linker_0, # of connection points: 2
#     Edge 19, Type (0, 0), BuildingBlock: UVAHIK_clean_linker_0, # of connection points: 2
#     Edge 20, Type (0, 0), BuildingBlock: UVAHIK_clean_linker_0, # of connection points: 2
#     Edge 21, Type (0, 0), BuildingBlock: UVAHIK_clean_linker_0, # of connection points: 2
#     Edge 22, Type (0, 0), BuildingBlock: UVAHIK_clean_linker_0, # of connection points: 2
#     Edge 23, Type (0, 0), BuildingBlock: UVAHIK_clean_linker_0, # of connection points: 2
#     Edge 24, Type (0, 0), BuildingBlock: UVAHIK_clean_linker_0, # of connection points: 2
#     Edge 25, Type (0, 0), BuildingBlock: UVAHIK_clean_linker_0, # of connection points: 2
#     Edge 26, Type (0, 0), BuildingBlock: UVAHIK_clean_linker_0, # of connection points: 2
#     Edge 27, Type (0, 0), BuildingBlock: UVAHIK_clean_linker_0, # of connection points: 2
#     Edge 28, Type (0, 0), BuildingBlock: UVAHIK_clean_linker_0, # of connection points: 2
#     Edge 29, Type (0, 0), BuildingBlock: UVAHIK_clean_linker_0, # of connection points: 2
#     Edge 30, Type (0, 0), BuildingBlock: UVAHIK_clean_linker_0, # of connection points: 2
#     Edge 31, Type (0, 0), BuildingBlock: UVAHIK_clean_linker_0, # of connection points: 2
#     Edge 32, Type (0, 0), BuildingBlock: UVAHIK_clean_linker_0, # of connection points: 2
#     Edge 33, Type (0, 0), BuildingBlock: UVAHIK_clean_linker_0, # of connection points: 2
#     Edge 34, Type (0, 0), BuildingBlock: UVAHIK_clean_linker_0, # of connection points: 2
#     Edge 35, Type (0, 0), BuildingBlock: UVAHIK_clean_linker_0, # of connection points: 2
#     Edge 36, Type (0, 0), BuildingBlock: UVAHIK_clean_linker_0, # of connection points: 2
#     Edge 37, Type (0, 0), BuildingBlock: UVAHIK_clean_linker_0, # of connection points: 2
#     Edge 38, Type (0, 0), BuildingBlock: UVAHIK_clean_linker_0, # of connection points: 2
#     Edge 39, Type (0, 0), BuildingBlock: UVAHIK_clean_linker_0, # of connection points: 2
#     Edge 40, Type (0, 0), BuildingBlock: UVAHIK_clean_linker_0, # of connection points: 2
#     Edge 41, Type (0, 0), BuildingBlock: UVAHIK_clean_linker_0, # of connection points: 2
#     Edge 42, Type (0, 0), BuildingBlock: UVAHIK_clean_linker_0, # of connection points: 2
#     Edge 43, Type (0, 0), BuildingBlock: UVAHIK_clean_linker_0, # of connection points: 2
#     Edge 44, Type (0, 0), BuildingBlock: UVAHIK_clean_linker_0, # of connection points: 2
#     Edge 45, Type (0, 0), BuildingBlock: UVAHIK_clean_linker_0, # of connection points: 2
#     Edge 46, Type (0, 0), BuildingBlock: UVAHIK_clean_linker_0, # of connection points: 2
#     Edge 47, Type (0, 0), BuildingBlock: UVAHIK_clean_linker_0, # of connection points: 2
# Relax obj value: 0.149
# Max RMSD: 0.205
# Mean RMSD: 0.126
data_MOF--net-gsi--node1-CEKHIL_clean_sbu_0--edge1-UVAHIK_clean_linker_0
_symmetry_space_group_name_H-M    P1
_symmetry_Int_Tables_number       1
_symmetry_cell_setting            triclinic
loop_
_symmetry_equiv_pos_as_xyz
'x, y, z'
_cell_length_a     50.271613
_cell_length_b     56.579216
_cell_length_c     53.204106
_cell_angle_alpha  91.068068
_cell_angle_beta   93.374511
_cell_angle_gamma 97.807146
loop_
_atom_site_label
_atom_site_type_symbol
_atom_site_fract_x
_atom_site_fract_y
_atom_site_fract_z
_atom_type_partial_charge
Co0 Co 0.15726 0.1472 0.12198 0.0
O1 O 0.1794 0.12471 0.13637 0.0
O2 O 0.13754 0.12716 0.14567 0.0
C3 C 0.16828 0.14079 0.08175 0.0
O4 O 0.12727 0.16723 0.11175 0.0
Co5 Co 0.17834 0.19137 0.09183 0.0
O6 O 0.1402 0.19473 0.08349 0.0
C7 C 0.18741 0.19172 0.14769 0.0
C8 C 0.15889 0.1167 0.14902 0.0
C9 C 0.12226 0.18385 0.0966 0.0
O10 O 0.17235 0.17152 0.14923 0.0
O11 O 0.19315 0.20147 0.12679 0.0
O12 O 0.14918 0.12665 0.09144 0.0
O13 O 0.1801 0.1578 0.09653 0.0
Co14 Co 0.8616 0.3491 0.13068 0.0
O15 O 0.84239 0.3735 0.14385 0.0
O16 O 0.88319 0.36754 0.15761 0.0
C17 C 0.851 0.35601 0.08967 0.0
O18 O 0.88863 0.32646 0.1217 0.0
Co19 Co 0.83334 0.30593 0.09773 0.0
O20 O 0.87024 0.29914 0.09219 0.0
C21 C 0.8226 0.31119 0.15144 0.0
C22 C 0.86322 0.37975 0.15931 0.0
C23 C 0.89032 0.30903 0.1061 0.0
O24 O 0.84438 0.32596 0.15533 0.0
O25 O 0.81342 0.30328 0.12947 0.0
O26 O 0.87107 0.36926 0.10177 0.0
O27 O 0.83772 0.34019 0.10283 0.0
Co28 Co 0.16641 0.87529 0.32706 0.0
O29 O 0.1879 0.90342 0.31512 0.0
O30 O 0.14382 0.89458 0.30799 0.0
C31 C 0.1855 0.8779 0.36697 0.0
O32 O 0.13692 0.84849 0.33595 0.0
Co33 Co 0.19132 0.83122 0.34722 0.0
O34 O 0.15443 0.81931 0.35665 0.0
C35 C 0.19121 0.84285 0.29318 0.0
C36 C 0.16563 0.90911 0.30485 0.0
C37 C 0.13433 0.82871 0.34785 0.0
O38 O 0.17348 0.857 0.29571 0.0
O39 O 0.20267 0.83322 0.31172 0.0
O40 O 0.16654 0.89061 0.36076 0.0
O41 O 0.19309 0.86549 0.34891 0.0
Co42 Co 0.85808 0.62694 0.33009 0.0
O43 O 0.88892 0.641 0.31255 0.0
O44 O 0.88113 0.64976 0.35188 0.0
C45 C 0.8596 0.58864 0.31722 0.0
O46 O 0.82969 0.61693 0.35538 0.0
Co47 Co 0.80608 0.59938 0.30368 0.0
O48 O 0.79355 0.5934 0.33793 0.0
C49 C 0.81982 0.65143 0.29785 0.0
C50 C 0.89642 0.65352 0.33313 0.0
C51 C 0.80655 0.60423 0.35699 0.0
O52 O 0.83723 0.65257 0.31675 0.0
O53 O 0.80751 0.63166 0.2884 0.0
O54 O 0.87516 0.59799 0.3363 0.0
O55 O 0.84502 0.60284 0.30616 0.0
Co56 Co 0.36157 0.8483 0.6325 0.0
O57 O 0.34206 0.87218 0.6465 0.0
O58 O 0.38326 0.86664 0.65939 0.0
C59 C 0.3501 0.85562 0.5918 0.0
O60 O 0.38911 0.82635 0.62284 0.0
Co61 Co 0.33444 0.80521 0.599 0.0
O62 O 0.37151 0.79985 0.59231 0.0
C63 C 0.32536 0.80769 0.6535 0.0
C64 C 0.36309 0.87849 0.66173 0.0
C65 C 0.39134 0.80961 0.60658 0.0
O66 O 0.34528 0.82459 0.65707 0.0
O67 O 0.31677 0.79916 0.63159 0.0
O68 O 0.37013 0.86899 0.60383 0.0
O69 O 0.33739 0.83933 0.60482 0.0
Co70 Co 0.86276 0.86384 0.88739 0.0
O71 O 0.87354 0.83411 0.89918 0.0
O72 O 0.89898 0.86107 0.87838 0.0
C73 C 0.84457 0.87362 0.92372 0.0
O74 O 0.85995 0.89659 0.87216 0.0
Co75 Co 0.80375 0.87455 0.88361 0.0
O76 O 0.81926 0.90768 0.87672 0.0
C77 C 0.82245 0.84214 0.84597 0.0
C78 C 0.89629 0.84055 0.88918 0.0
C79 C 0.84332 0.91203 0.87009 0.0
O80 O 0.84697 0.84692 0.85504 0.0
O81 O 0.80261 0.8503 0.85547 0.0
O82 O 0.87037 0.87848 0.92145 0.0
O83 O 0.83116 0.86239 0.90474 0.0
Co84 Co 0.1428 0.66912 0.88328 0.0
O85 O 0.13101 0.69749 0.89722 0.0
O86 O 0.1065 0.67192 0.87033 0.0
C87 C 0.16063 0.65672 0.9202 0.0
O88 O 0.14738 0.63782 0.86502 0.0
Co89 Co 0.20332 0.66176 0.88611 0.0
O90 O 0.18942 0.62915 0.87281 0.0
C91 C 0.18361 0.69772 0.85289 0.0
C92 C 0.10848 0.69146 0.88398 0.0
C93 C 0.16544 0.62381 0.86325 0.0
O94 O 0.15898 0.68841 0.85489 0.0
O95 O 0.20349 0.69138 0.866 0.0
O96 O 0.13489 0.65183 0.91454 0.0
O97 O 0.17382 0.66993 0.90448 0.0
Co98 Co 0.84805 0.14201 0.68017 0.0
O99 O 0.81638 0.12405 0.66333 0.0
O100 O 0.84842 0.1461 0.64413 0.0
C101 C 0.85746 0.11263 0.7066 0.0
O102 O 0.88361 0.16297 0.69068 0.0
Co103 Co 0.85013 0.15429 0.73731 0.0
O104 O 0.88737 0.16961 0.73259 0.0
C105 C 0.81557 0.17764 0.70184 0.0
C106 C 0.82521 0.13263 0.64246 0.0
C107 C 0.89663 0.17232 0.71086 0.0
O108 O 0.82791 0.1703 0.68335 0.0
O109 O 0.81936 0.17098 0.72449 0.0
O110 O 0.86534 0.11288 0.68372 0.0
O111 O 0.84297 0.12894 0.71193 0.0
Co112 Co 0.17311 0.38305 0.6834 0.0
O113 O 0.20449 0.3987 0.66791 0.0
O114 O 0.17279 0.37271 0.64847 0.0
C115 C 0.16296 0.41623 0.70346 0.0
O116 O 0.13778 0.3633 0.69223 0.0
Co117 Co 0.16971 0.38148 0.74157 0.0
O118 O 0.13259 0.36511 0.73385 0.0
C119 C 0.20554 0.35292 0.71598 0.0
C120 C 0.19553 0.38659 0.64745 0.0
C121 C 0.12412 0.35789 0.7116 0.0
O122 O 0.19399 0.35654 0.69439 0.0
O123 O 0.20071 0.36343 0.7364 0.0
O124 O 0.15513 0.41193 0.67985 0.0
O125 O 0.17763 0.40144 0.71321 0.0
Co126 Co 0.64149 0.16825 0.38124 0.0
O127 O 0.63068 0.19711 0.39511 0.0
O128 O 0.60469 0.17095 0.36993 0.0
C129 C 0.66125 0.15668 0.41764 0.0
O130 O 0.64466 0.13646 0.36338 0.0
Co131 Co 0.70157 0.15998 0.38105 0.0
O132 O 0.68662 0.12711 0.3692 0.0
C133 C 0.68029 0.19446 0.34687 0.0
C134 C 0.60749 0.19085 0.38304 0.0
C135 C 0.66217 0.12204 0.36088 0.0
O136 O 0.65587 0.1865 0.3515 0.0
O137 O 0.70098 0.1879 0.35844 0.0
O138 O 0.63531 0.1519 0.41325 0.0
O139 O 0.67367 0.16931 0.40097 0.0
Co140 Co 0.65842 0.64737 0.62207 0.0
O141 O 0.68063 0.62457 0.63564 0.0
O142 O 0.63941 0.62746 0.64637 0.0
C143 C 0.66834 0.64092 0.5815 0.0
O144 O 0.62838 0.66762 0.61265 0.0
Co145 Co 0.67903 0.69149 0.59166 0.0
O146 O 0.6408 0.69494 0.58404 0.0
C147 C 0.68937 0.6918 0.64738 0.0
C148 C 0.66061 0.61669 0.64897 0.0
C149 C 0.62313 0.68421 0.59754 0.0
O150 O 0.6744 0.67158 0.64912 0.0
O151 O 0.6946 0.7016 0.62639 0.0
O152 O 0.64939 0.62689 0.59155 0.0
O153 O 0.68059 0.65786 0.59611 0.0
Co154 Co 0.66598 0.37421 0.8248 0.0
O155 O 0.68818 0.40124 0.81136 0.0
O156 O 0.64391 0.39397 0.80583 0.0
C157 C 0.68695 0.37741 0.86402 0.0
O158 O 0.63553 0.34903 0.83538 0.0
Co159 Co 0.68786 0.32933 0.8464 0.0
O160 O 0.65148 0.32068 0.85856 0.0
C161 C 0.68079 0.33506 0.79099 0.0
C162 C 0.66602 0.40769 0.80167 0.0
C163 C 0.63195 0.33028 0.8489 0.0
O164 O 0.67007 0.35432 0.79365 0.0
O165 O 0.69004 0.32367 0.80937 0.0
O166 O 0.66853 0.39074 0.85803 0.0
O167 O 0.69284 0.36375 0.84616 0.0
Co168 Co 0.35847 0.12582 0.83059 0.0
O169 O 0.38911 0.14025 0.81293 0.0
O170 O 0.38106 0.14912 0.85216 0.0
C171 C 0.36078 0.08751 0.81816 0.0
O172 O 0.33034 0.11567 0.85603 0.0
Co173 Co 0.30684 0.09712 0.80478 0.0
O174 O 0.29457 0.09131 0.83916 0.0
C175 C 0.31887 0.14932 0.79866 0.0
C176 C 0.39634 0.153 0.83342 0.0
C177 C 0.30746 0.10266 0.85798 0.0
O178 O 0.33693 0.15091 0.81706 0.0
O179 O 0.30675 0.12933 0.7896 0.0
O180 O 0.37621 0.0973 0.83712 0.0
O181 O 0.34581 0.1013 0.80692 0.0
Co182 Co 0.36169 0.36309 0.38771 0.0
O183 O 0.37261 0.33338 0.39941 0.0
O184 O 0.39795 0.36049 0.3787 0.0
C185 C 0.34344 0.37268 0.42406 0.0
O186 O 0.35876 0.39588 0.3726 0.0
Co187 Co 0.30263 0.37367 0.38398 0.0
O188 O 0.31805 0.40687 0.37732 0.0
C189 C 0.32147 0.34148 0.34619 0.0
C190 C 0.39536 0.33994 0.38945 0.0
C191 C 0.34209 0.41129 0.37066 0.0
O192 O 0.34598 0.34624 0.35529 0.0
O193 O 0.3016 0.34957 0.35571 0.0
O194 O 0.36923 0.37763 0.42182 0.0
O195 O 0.33007 0.36148 0.40504 0.0
Co196 Co 0.34829 0.64237 0.18181 0.0
O197 O 0.31507 0.62555 0.16651 0.0
O198 O 0.3472 0.64558 0.14563 0.0
C199 C 0.35694 0.61282 0.20829 0.0
O200 O 0.38536 0.66188 0.19031 0.0
Co201 Co 0.35536 0.65588 0.23864 0.0
O202 O 0.39328 0.66711 0.23213 0.0
C203 C 0.32419 0.68386 0.20432 0.0
C204 C 0.32343 0.63313 0.14507 0.0
C205 C 0.40072 0.66983 0.20978 0.0
O206 O 0.33034 0.67194 0.18521 0.0
O207 O 0.331 0.67942 0.22713 0.0
O208 O 0.36367 0.61233 0.18505 0.0
O209 O 0.34406 0.63015 0.2142 0.0
Co210 Co 0.67383 0.8837 0.18258 0.0
O211 O 0.70468 0.90031 0.16704 0.0
O212 O 0.67387 0.87343 0.1477 0.0
C213 C 0.66217 0.91625 0.20269 0.0
O214 O 0.6392 0.86282 0.19139 0.0
Co215 Co 0.67052 0.88183 0.24076 0.0
O216 O 0.63417 0.8638 0.23306 0.0
C217 C 0.70764 0.85465 0.21515 0.0
C218 C 0.69616 0.88792 0.14663 0.0
C219 C 0.6259 0.85658 0.21076 0.0
O220 O 0.69594 0.85801 0.19356 0.0
O221 O 0.70235 0.86487 0.23559 0.0
O222 O 0.65452 0.9118 0.17907 0.0
O223 O 0.67759 0.90204 0.21242 0.0
C224 C 0.20312 0.22959 0.1715 0.0
C225 C 0.19971 0.20457 0.17077 0.0
C226 C 0.21864 0.24242 0.19102 0.0
C227 C 0.25157 0.23839 0.2547 0.0
H228 H 0.29396 0.29657 0.23421 0.0
C229 C 0.32388 0.30299 0.32307 0.0
C230 C 0.31515 0.32553 0.32388 0.0
C231 C 0.31368 0.28634 0.30386 0.0
C232 C 0.28242 0.28026 0.24013 0.0
H233 H 0.20884 0.1732 0.19042 0.0
H234 H 0.23673 0.19573 0.22461 0.0
H235 H 0.26726 0.2704 0.20258 0.0
H236 H 0.29022 0.34891 0.30494 0.0
H237 H 0.27341 0.32032 0.27084 0.0
H238 H 0.26705 0.2486 0.29241 0.0
C239 C 0.22706 0.20543 0.21017 0.0
C240 C 0.26687 0.26538 0.2221 0.0
C241 C 0.21106 0.19252 0.19068 0.0
C242 C 0.29731 0.33165 0.3046 0.0
C243 C 0.28772 0.31533 0.28514 0.0
C244 C 0.26751 0.2532 0.27275 0.0
C245 C 0.23167 0.23056 0.21012 0.0
C246 C 0.25049 0.24469 0.22923 0.0
C247 C 0.29528 0.29235 0.28492 0.0
C248 C 0.28243 0.27459 0.26565 0.0
H249 H 0.19429 0.23931 0.15653 0.0
H250 H 0.22087 0.26172 0.19083 0.0
H251 H 0.23922 0.22264 0.26086 0.0
H252 H 0.3374 0.29783 0.33797 0.0
H253 H 0.31977 0.26869 0.30399 0.0
C254 C 0.81825 0.29834 0.19612 0.0
C255 C 0.80633 0.30365 0.17279 0.0
C256 C 0.80214 0.28946 0.21539 0.0
C257 C 0.7321 0.26064 0.22462 0.0
H258 H 0.75563 0.27028 0.29511 0.0
C259 C 0.68453 0.20162 0.30149 0.0
C260 C 0.68551 0.21082 0.32617 0.0
C261 C 0.69611 0.21557 0.28254 0.0
C262 C 0.74838 0.26774 0.27556 0.0
H263 H 0.76851 0.30553 0.15172 0.0
H264 H 0.74053 0.29153 0.18549 0.0
H265 H 0.78242 0.29055 0.26347 0.0
H266 H 0.69799 0.2418 0.35056 0.0
H267 H 0.71678 0.26684 0.31723 0.0
H268 H 0.69752 0.23865 0.2367 0.0
C269 C 0.76215 0.29286 0.18877 0.0
C270 C 0.76412 0.27906 0.2573 0.0
C271 C 0.77819 0.30108 0.16942 0.0
C272 C 0.69678 0.23454 0.33147 0.0
C273 C 0.70792 0.24868 0.31245 0.0
C274 C 0.71612 0.24972 0.24287 0.0
C275 C 0.77381 0.28631 0.21184 0.0
C276 C 0.75642 0.27539 0.23153 0.0
C277 C 0.70866 0.2391 0.28791 0.0
C278 C 0.72425 0.25274 0.26859 0.0
H279 H 0.83994 0.30018 0.19913 0.0
H280 H 0.81196 0.2844 0.23272 0.0
H281 H 0.72555 0.25696 0.20503 0.0
H282 H 0.67647 0.18313 0.29723 0.0
H283 H 0.69657 0.20733 0.26407 0.0
C284 C 0.28754 0.70239 0.18135 0.0
C285 C 0.3088 0.70395 0.19997 0.0
C286 C 0.27159 0.72082 0.17905 0.0
C287 C 0.26964 0.7839 0.19309 0.0
H288 H 0.19902 0.76612 0.21808 0.0
C289 C 0.22711 0.83969 0.26433 0.0
C290 C 0.19955 0.83698 0.2681 0.0
C291 C 0.23666 0.82806 0.24415 0.0
C292 C 0.21821 0.77154 0.2102 0.0
H293 H 0.33107 0.72631 0.22972 0.0
H294 H 0.30389 0.75875 0.22512 0.0
H295 H 0.22438 0.7352 0.20385 0.0
H296 H 0.15997 0.82176 0.25286 0.0
H297 H 0.17665 0.80122 0.21713 0.0
H298 H 0.26417 0.82015 0.20047 0.0
C299 C 0.29932 0.74324 0.21256 0.0
C300 C 0.23277 0.75374 0.20213 0.0
C301 C 0.31469 0.72463 0.21534 0.0
C302 C 0.18134 0.82421 0.25011 0.0
C303 C 0.19094 0.81231 0.22986 0.0
C304 C 0.25492 0.80172 0.20071 0.0
C305 C 0.27735 0.74133 0.19475 0.0
C306 C 0.2592 0.75977 0.19498 0.0
C307 C 0.21883 0.81319 0.22739 0.0
C308 C 0.22981 0.79567 0.21102 0.0
H309 H 0.28259 0.68654 0.16933 0.0
H310 H 0.25456 0.71894 0.16536 0.0
H311 H 0.28994 0.78892 0.18743 0.0
H312 H 0.24148 0.84938 0.27811 0.0
H313 H 0.25824 0.82903 0.24322 0.0
C314 C 0.82035 0.69601 0.29845 0.0
C315 C 0.8135 0.67367 0.28607 0.0
C316 C 0.81304 0.71664 0.28735 0.0
C317 C 0.76353 0.73479 0.24001 0.0
H318 H 0.80747 0.79662 0.24764 0.0
C319 C 0.72566 0.81821 0.19943 0.0
C320 C 0.72666 0.83691 0.21734 0.0
C321 C 0.74055 0.79937 0.20397 0.0
C322 C 0.79504 0.77943 0.24531 0.0
H323 H 0.79492 0.65568 0.25171 0.0
H324 H 0.7828 0.69145 0.23233 0.0
H325 H 0.82509 0.76128 0.26382 0.0
H326 H 0.74573 0.85158 0.25298 0.0
H327 H 0.7715 0.81887 0.26082 0.0
H328 H 0.73331 0.75289 0.22198 0.0
C329 C 0.79305 0.69307 0.2509 0.0
C330 C 0.80505 0.75923 0.25469 0.0
C331 C 0.80009 0.67253 0.26203 0.0
C332 C 0.74427 0.83728 0.23893 0.0
C333 C 0.75925 0.81862 0.24334 0.0
C334 C 0.75361 0.75491 0.23055 0.0
C335 C 0.79896 0.71531 0.26357 0.0
C336 C 0.78924 0.73672 0.25245 0.0
C337 C 0.75688 0.79908 0.22634 0.0
C338 C 0.76906 0.77751 0.23342 0.0
H339 H 0.83074 0.69749 0.31696 0.0
H340 H 0.8177 0.73348 0.29774 0.0
H341 H 0.75058 0.71782 0.23834 0.0
H342 H 0.71235 0.81746 0.18258 0.0
H343 H 0.73859 0.78464 0.19038 0.0
C344 C 0.31677 0.80842 0.69968 0.0
C345 C 0.31049 0.79838 0.67532 0.0
C346 C 0.30119 0.80058 0.71966 0.0
C347 C 0.23397 0.7699 0.73301 0.0
H348 H 0.26895 0.75576 0.79672 0.0
C349 C 0.18093 0.71134 0.80852 0.0
C350 C 0.19042 0.71559 0.83373 0.0
C351 C 0.19294 0.72511 0.78954 0.0
C352 C 0.25873 0.76008 0.77926 0.0
H353 H 0.2831 0.77183 0.6531 0.0
H354 H 0.25632 0.75822 0.68783 0.0
H355 H 0.29603 0.77242 0.76329 0.0
H356 H 0.21783 0.73871 0.85931 0.0
H357 H 0.23782 0.76343 0.82651 0.0
H358 H 0.19665 0.75732 0.74892 0.0
C359 C 0.27298 0.77239 0.69142 0.0
C360 C 0.27434 0.76957 0.76006 0.0
C361 C 0.28855 0.78009 0.67154 0.0
C362 C 0.21034 0.73501 0.83992 0.0
C363 C 0.22198 0.74898 0.8211 0.0
C364 C 0.2183 0.76053 0.7523 0.0
C365 C 0.27895 0.78266 0.71564 0.0
C366 C 0.26219 0.77426 0.73662 0.0
C367 C 0.21437 0.74349 0.7956 0.0
C368 C 0.23052 0.75525 0.77559 0.0
H369 H 0.33341 0.82261 0.70326 0.0
H370 H 0.30622 0.80887 0.73815 0.0
H371 H 0.22401 0.77365 0.71522 0.0
H372 H 0.16577 0.69627 0.80332 0.0
H373 H 0.18661 0.72031 0.7701 0.0
C374 C 0.70549 0.72973 0.67096 0.0
C375 C 0.70201 0.7047 0.67032 0.0
C376 C 0.721 0.74258 0.69047 0.0
C377 C 0.75351 0.73864 0.75432 0.0
H378 H 0.79571 0.79703 0.7341 0.0
C379 C 0.82526 0.80373 0.82283 0.0
C380 C 0.81612 0.82609 0.82373 0.0
C381 C 0.81524 0.78701 0.80363 0.0
C382 C 0.78424 0.78065 0.73995 0.0
H383 H 0.71106 0.67337 0.69007 0.0
H384 H 0.73895 0.69595 0.72423 0.0
H385 H 0.76946 0.77073 0.7023 0.0
H386 H 0.79059 0.84909 0.80497 0.0
H387 H 0.77409 0.82039 0.77087 0.0
H388 H 0.76862 0.74892 0.79212 0.0
C389 C 0.72934 0.70563 0.70973 0.0
C390 C 0.76893 0.76569 0.72183 0.0
C391 C 0.71334 0.69269 0.69025 0.0
C392 C 0.79799 0.83198 0.80456 0.0
C393 C 0.78858 0.8156 0.78511 0.0
C394 C 0.76921 0.75352 0.77247 0.0
C395 C 0.73395 0.73076 0.70964 0.0
C396 C 0.75261 0.74493 0.72885 0.0
C397 C 0.7966 0.79279 0.78479 0.0
C398 C 0.78405 0.77498 0.76546 0.0
H399 H 0.69665 0.73943 0.65598 0.0
H400 H 0.72322 0.76188 0.69023 0.0
H401 H 0.74119 0.72283 0.76041 0.0
H402 H 0.83901 0.79876 0.83764 0.0
H403 H 0.82167 0.7695 0.80368 0.0
C404 C 0.67371 0.3004 0.76156 0.0
C405 C 0.68281 0.32474 0.76577 0.0
C406 C 0.6823 0.28807 0.74136 0.0
C407 C 0.74365 0.29046 0.70844 0.0
H408 H 0.70796 0.2285 0.68408 0.0
C409 C 0.8017 0.21326 0.67981 0.0
C410 C 0.79653 0.19496 0.69711 0.0
C411 C 0.78491 0.23105 0.67754 0.0
C412 C 0.71811 0.24595 0.69025 0.0
H413 H 0.70608 0.35593 0.75124 0.0
H414 H 0.72126 0.33431 0.71548 0.0
H415 H 0.68114 0.25887 0.69733 0.0
H416 H 0.76907 0.18 0.7244 0.0
H417 H 0.73937 0.21055 0.71985 0.0
H418 H 0.78066 0.27699 0.70238 0.0
C419 C 0.70753 0.32471 0.72789 0.0
C420 C 0.70282 0.26331 0.69796 0.0
C421 C 0.69867 0.33714 0.74815 0.0
C422 C 0.77358 0.19399 0.71104 0.0
C423 C 0.75648 0.21133 0.70827 0.0
C424 C 0.75892 0.27321 0.70031 0.0
C425 C 0.70048 0.29977 0.72503 0.0
C426 C 0.71548 0.28517 0.70876 0.0
C427 C 0.76228 0.23029 0.69193 0.0
C428 C 0.7463 0.25037 0.6926 0.0
H429 H 0.66156 0.2905 0.77505 0.0
H430 H 0.67661 0.26891 0.7401 0.0
H431 H 0.75418 0.307 0.71671 0.0
H432 H 0.81935 0.2144 0.66892 0.0
H433 H 0.78985 0.24563 0.66498 0.0
C434 C 0.22149 0.31525 0.70095 0.0
C435 C 0.22389 0.33464 0.71819 0.0
C436 C 0.23585 0.2961 0.70567 0.0
C437 C 0.29162 0.27637 0.74528 0.0
H438 H 0.24571 0.21541 0.74259 0.0
C439 C 0.31936 0.1939 0.79873 0.0
C440 C 0.3115 0.17133 0.78708 0.0
C441 C 0.31134 0.21435 0.78782 0.0
C442 C 0.25902 0.23217 0.74306 0.0
H443 H 0.24479 0.35012 0.75273 0.0
H444 H 0.26979 0.31691 0.76083 0.0
H445 H 0.22828 0.25038 0.72607 0.0
H446 H 0.29005 0.15273 0.75425 0.0
H447 H 0.27666 0.18817 0.73519 0.0
H448 H 0.32227 0.25814 0.76264 0.0
C449 C 0.2568 0.31635 0.74378 0.0
C450 C 0.24901 0.25222 0.73352 0.0
C451 C 0.24229 0.3353 0.73922 0.0
C452 C 0.29614 0.16976 0.764 0.0
C453 C 0.28835 0.19012 0.75305 0.0
C454 C 0.30172 0.25623 0.75472 0.0
C455 C 0.2531 0.29621 0.7275 0.0
C456 C 0.26505 0.27459 0.73482 0.0
C457 C 0.29548 0.21262 0.76497 0.0
C458 C 0.28542 0.23394 0.75398 0.0
H459 H 0.20749 0.31427 0.68457 0.0
H460 H 0.23285 0.28088 0.69267 0.0
H461 H 0.30449 0.29338 0.74639 0.0
H462 H 0.33123 0.19573 0.81649 0.0
H463 H 0.31697 0.2314 0.79762 0.0
C464 C 0.18608 0.93817 0.27417 0.0
C465 C 0.16521 0.93085 0.28984 0.0
C466 C 0.18532 0.95829 0.25931 0.0
C467 C 0.13885 1.00228 0.23745 0.0
H468 H 0.20516 0.03496 0.21417 0.0
C469 C 0.13679 0.07914 0.16727 0.0
C470 C 0.15956 0.09626 0.16591 0.0
C471 C 0.13763 0.05924 0.18244 0.0
C472 C 0.18635 0.02654 0.22079 0.0
H473 H 0.12758 0.93914 0.30297 0.0
H474 H 0.12713 0.9752 0.27894 0.0
H475 H 0.20662 1.00166 0.2414 0.0
H476 H 0.20081 0.10657 0.17994 0.0
H477 H 0.20185 0.07321 0.20798 0.0
H478 H 0.11883 0.02845 0.21878 0.0
C479 C 0.14351 0.96494 0.2767 0.0
C480 C 0.18712 0.00675 0.23614 0.0
C481 C 0.14383 0.9443 0.29083 0.0
C482 C 0.18303 0.09346 0.18048 0.0
C483 C 0.18362 0.07404 0.1964 0.0
C484 C 0.13817 0.02257 0.22286 0.0
C485 C 0.1641 0.97223 0.26039 0.0
C486 C 0.16336 0.994 0.24454 0.0
C487 C 0.16102 0.05633 0.19749 0.0
C488 C 0.16187 0.03497 0.21394 0.0
H489 H 0.20269 0.92793 0.27286 0.0
H490 H 0.20128 0.96251 0.2467 0.0
H491 H 0.11986 0.99303 0.24285 0.0
H492 H 0.1185 0.08075 0.15598 0.0
H493 H 0.11993 0.04601 0.18186 0.0
C494 C 0.84205 0.41285 0.17847 0.0
C495 C 0.86397 0.3999 0.1778 0.0
C496 C 0.84267 0.43218 0.19534 0.0
C497 C 0.87609 0.46047 0.25452 0.0
H498 H 0.84752 0.51618 0.22885 0.0
C499 C 0.88206 0.55188 0.31043 0.0
C500 C 0.85972 0.56419 0.30671 0.0
C501 C 0.8834 0.53064 0.29665 0.0
C502 C 0.85529 0.50069 0.23649 0.0
H503 H 0.90362 0.39695 0.19476 0.0
H504 H 0.90476 0.43091 0.22425 0.0
H505 H 0.84862 0.48193 0.20096 0.0
H506 H 0.82049 0.56297 0.28709 0.0
H507 H 0.82249 0.52604 0.26383 0.0
H508 H 0.88268 0.4795 0.29019 0.0
C509 C 0.887 0.42595 0.21175 0.0
C510 C 0.85594 0.481 0.22043 0.0
C511 C 0.88641 0.40657 0.19475 0.0
C512 C 0.83816 0.55412 0.29019 0.0
C513 C 0.8394 0.53299 0.27665 0.0
C514 C 0.8754 0.48028 0.2707 0.0
C515 C 0.86522 0.43916 0.21207 0.0
C516 C 0.86596 0.46047 0.22926 0.0
C517 C 0.86238 0.52136 0.279 0.0
C518 C 0.86457 0.5005 0.26195 0.0
H519 H 0.82436 0.40814 0.16582 0.0
H520 H 0.82533 0.44164 0.19534 0.0
H521 H 0.88387 0.44492 0.26198 0.0
H522 H 0.89903 0.55926 0.32297 0.0
H523 H 0.90139 0.52213 0.29896 0.0
C524 C 0.30365 0.12054 0.90105 0.0
C525 C 0.29417 0.10307 0.88228 0.0
C526 C 0.28907 0.12324 0.9223 0.0
C527 C 0.23664 0.09386 0.96145 0.0
H528 H 0.22536 0.15872 0.97754 0.0
C529 C 0.16909 0.11604 0.04177 0.0
C530 C 0.17867 0.13652 0.05672 0.0
C531 C 0.18132 0.11133 0.01944 0.0
C532 C 0.22852 0.1405 0.97359 0.0
H533 H 0.26246 0.0739 0.87203 0.0
H534 H 0.23732 0.07841 0.90938 0.0
H535 H 0.2518 0.15095 0.94222 0.0
H536 H 0.20827 0.16831 0.05961 0.0
H537 H 0.22963 0.16 0.02149 0.0
H538 H 0.2139 0.08346 0.99326 0.0
C539 C 0.25597 0.09013 0.90747 0.0
C540 C 0.24371 0.13606 0.95326 0.0
C541 C 0.27038 0.08759 0.88602 0.0
C542 C 0.20022 0.1524 0.04854 0.0
C543 C 0.21245 0.14768 0.02645 0.0
C544 C 0.22165 0.09833 0.98205 0.0
C545 C 0.26479 0.10838 0.92554 0.0
C546 C 0.24819 0.11274 0.94706 0.0
C547 C 0.20339 0.127 0.01161 0.0
C548 C 0.21762 0.12178 0.9886 0.0
H549 H 0.32183 0.13281 0.8989 0.0
H550 H 0.29663 0.13726 0.93607 0.0
H551 H 0.23978 0.07569 0.95718 0.0
H552 H 0.15257 0.10341 0.04758 0.0
H553 H 0.17353 0.09537 0.00838 0.0
C554 C 0.82733 0.34136 0.049 0.0
C555 C 0.84045 0.36061 0.06397 0.0
C556 C 0.81167 0.34525 0.02733 0.0
C557 C 0.79271 0.39125 0.98265 0.0
H558 H 0.72781 0.34561 0.97261 0.0
C559 C 0.70635 0.39805 0.90478 0.0
C560 C 0.70077 0.37729 0.88938 0.0
C561 C 0.72261 0.39815 0.92724 0.0
C562 C 0.74581 0.35853 0.9752 0.0
H563 H 0.84851 0.39912 0.06747 0.0
H564 H 0.82055 0.40609 0.0297 0.0
H565 H 0.75922 0.34191 0.00837 0.0
H566 H 0.70696 0.34023 0.88589 0.0
H567 H 0.73424 0.34018 0.92515 0.0
H568 H 0.77868 0.40793 0.94931 0.0
C569 C 0.82273 0.3879 0.03446 0.0
C570 C 0.76403 0.3563 0.99557 0.0
C571 C 0.83887 0.38395 0.05605 0.0
C572 C 0.71084 0.3565 0.89731 0.0
C573 C 0.72647 0.35645 0.91985 0.0
C574 C 0.7742 0.39364 0.96232 0.0
C575 C 0.80813 0.36855 0.02032 0.0
C576 C 0.78812 0.37223 0.99927 0.0
C577 C 0.73291 0.37732 0.9349 0.0
C578 C 0.75085 0.37696 0.95811 0.0
H579 H 0.82831 0.32317 0.05462 0.0
H580 H 0.80161 0.32987 0.0165 0.0
H581 H 0.81098 0.40385 0.98482 0.0
H582 H 0.69906 0.41439 0.89898 0.0
H583 H 0.7272 0.41446 0.93856 0.0
C584 C 0.32605 0.84121 0.55122 0.0
C585 C 0.3391 0.8604 0.56631 0.0
C586 C 0.31008 0.84517 0.52977 0.0
C587 C 0.2902 0.89134 0.48582 0.0
H588 H 0.22565 0.84527 0.47584 0.0
C589 C 0.2039 0.89815 0.40815 0.0
C590 C 0.19847 0.87747 0.39263 0.0
C591 C 0.21997 0.89813 0.43071 0.0
C592 C 0.24354 0.85832 0.47841 0.0
H593 H 0.34671 0.8989 0.57025 0.0
H594 H 0.31823 0.90599 0.53287 0.0
H595 H 0.2574 0.84157 0.51134 0.0
H596 H 0.20455 0.84041 0.38901 0.0
H597 H 0.23151 0.84013 0.42846 0.0
H598 H 0.27577 0.90812 0.45273 0.0
C599 C 0.32068 0.8878 0.53736 0.0
C600 C 0.26196 0.85609 0.49863 0.0
C601 C 0.33712 0.88378 0.55873 0.0
C602 C 0.20834 0.85661 0.40056 0.0
C603 C 0.22378 0.85643 0.4232 0.0
C604 C 0.27151 0.89371 0.46565 0.0
C605 C 0.30618 0.86847 0.52312 0.0
C606 C 0.28593 0.87216 0.50229 0.0
C607 C 0.23022 0.87726 0.43832 0.0
C608 C 0.24828 0.87689 0.46145 0.0
H609 H 0.32734 0.82299 0.55657 0.0
H610 H 0.30009 0.82982 0.51884 0.0
H611 H 0.30838 0.90405 0.48797 0.0
H612 H 0.19678 0.91455 0.40232 0.0
H613 H 0.22455 0.91441 0.44208 0.0
C614 C 0.7003 0.65192 0.54816 0.0
C615 C 0.67859 0.63629 0.55648 0.0
C616 C 0.71293 0.64652 0.52652 0.0
C617 C 0.70584 0.61173 0.46715 0.0
H618 H 0.78379 0.61921 0.47432 0.0
C619 C 0.7693 0.58878 0.38463 0.0
C620 C 0.79329 0.60411 0.38134 0.0
C621 C 0.75526 0.59046 0.40645 0.0
C622 C 0.76207 0.61728 0.47179 0.0
H623 H 0.65232 0.60316 0.54779 0.0
H624 H 0.67424 0.59388 0.50936 0.0
H625 H 0.75836 0.62697 0.5104 0.0
H626 H 0.82143 0.633 0.39889 0.0
H627 H 0.79682 0.63629 0.43645 0.0
H628 H 0.70951 0.60279 0.42833 0.0
C629 C 0.68153 0.61027 0.51991 0.0
C630 C 0.74747 0.62164 0.49257 0.0
C631 C 0.66896 0.61559 0.54186 0.0
C632 C 0.80319 0.62073 0.40078 0.0
C633 C 0.78903 0.62256 0.42247 0.0
C634 C 0.72048 0.60761 0.44621 0.0
C635 C 0.7041 0.62542 0.51239 0.0
C636 C 0.71921 0.61922 0.49046 0.0
C637 C 0.76466 0.60766 0.42553 0.0
C638 C 0.74887 0.6106 0.44815 0.0
H639 H 0.70819 0.66812 0.55881 0.0
H640 H 0.7299 0.6588 0.52098 0.0
H641 H 0.6841 0.60983 0.46489 0.0
H642 H 0.76109 0.57566 0.37014 0.0
H643 H 0.73691 0.57833 0.40825 0.0
C644 C 0.9227 0.2883 0.08261 0.0
C645 C 0.91594 0.29871 0.10517 0.0
C646 C 0.94542 0.2765 0.08199 0.0
C647 C 0.98646 0.24109 0.11946 0.0
H648 H 0.04109 0.25748 0.07195 0.0
C649 C 0.08255 0.19406 0.11909 0.0
C650 C 0.09593 0.1931 0.09671 0.0
C651 C 0.06026 0.20645 0.12032 0.0
C652 C 0.02582 0.25217 0.08501 0.0
H653 H 0.92785 0.30488 0.1448 0.0
H654 H 0.96721 0.28348 0.14386 0.0
H655 H 1.00374 0.28056 0.07376 0.0
H656 H 0.09543 0.20322 0.05768 0.0
H657 H 0.05567 0.22324 0.05917 0.0
H658 H 0.00747 0.21202 0.13 0.0
C659 C 0.95504 0.28486 0.1266 0.0
C660 C 1.00453 0.26569 0.0862 0.0
C661 C 0.93266 0.29725 0.12709 0.0
C662 C 0.08566 0.20374 0.07525 0.0
C663 C 0.06299 0.21558 0.07628 0.0
C664 C 0.00743 0.22717 0.1179 0.0
C665 C 0.96155 0.27426 0.10405 0.0
C666 C 0.98465 0.26035 0.10346 0.0
C667 C 0.05032 0.2178 0.09902 0.0
C668 C 0.02754 0.23245 0.10062 0.0
H669 H 0.91023 0.28909 0.06541 0.0
H670 H 0.94992 0.26845 0.06437 0.0
H671 H 0.97122 0.2364 0.13276 0.0
H672 H 0.0902 0.18636 0.13607 0.0
H673 H 0.05158 0.20784 0.13833 0.0
C674 C 0.93291 0.67961 0.35869 0.0
C675 C 0.92064 0.67181 0.335 0.0
C676 C 0.95536 0.69729 0.36062 0.0
C677 C 0.98829 0.74911 0.32986 0.0
H678 H 0.05364 0.73662 0.36643 0.0
C679 C 0.08792 0.81445 0.32879 0.0
C680 C 0.10725 0.81467 0.349 0.0
C681 C 0.06419 0.79816 0.32786 0.0
C682 C 0.03547 0.7408 0.35661 0.0
H683 H 0.92208 0.6767 0.29478 0.0
H684 H 0.96093 0.70821 0.29825 0.0
H685 H 0.01447 0.70609 0.36335 0.0
H686 H 0.11609 0.79906 0.38485 0.0
H687 H 0.07415 0.77189 0.38419 0.0
H688 H 0.00861 0.78407 0.32384 0.0
C689 C 0.9533 0.70034 0.31526 0.0
C690 C 0.01305 0.72309 0.35467 0.0
C691 C 0.93121 0.68223 0.31328 0.0
C692 C 0.10165 0.7992 0.36892 0.0
C693 C 0.07767 0.78334 0.36832 0.0
C694 C 0.01051 0.76707 0.33226 0.0
C695 C 0.96565 0.70799 0.33895 0.0
C696 C 0.9893 0.72698 0.34114 0.0
C697 C 0.05887 0.78199 0.34741 0.0
C698 C 0.03459 0.76319 0.34556 0.0
H699 H 0.92523 0.67194 0.37577 0.0
H700 H 0.96444 0.70291 0.37912 0.0
H701 H 0.9701 0.75266 0.31952 0.0
H702 H 0.09181 0.82594 0.31298 0.0
H703 H 0.05063 0.79767 0.31124 0.0
C704 C 0.58641 0.70429 0.57659 0.0
C705 C 0.59679 0.69343 0.59792 0.0
C706 C 0.56354 0.71584 0.57779 0.0
C707 C 0.52848 0.74954 0.62053 0.0
H708 H 0.46717 0.73607 0.57239 0.0
C709 C 0.43316 0.79702 0.62765 0.0
C710 C 0.4171 0.79953 0.6056 0.0
C711 C 0.45526 0.78429 0.6271 0.0
C712 C 0.48428 0.74057 0.58573 0.0
H713 H 0.59106 0.68612 0.63722 0.0
H714 H 0.55145 0.70692 0.63946 0.0
H715 H 0.50444 0.71292 0.57048 0.0
H716 H 0.41255 0.79184 0.56546 0.0
H717 H 0.45182 0.77122 0.56406 0.0
H718 H 0.50924 0.77788 0.63515 0.0
C719 C 0.5609 0.70614 0.62174 0.0
C720 C 0.50556 0.727 0.58474 0.0
C721 C 0.58341 0.69404 0.62037 0.0
C722 C 0.42441 0.79005 0.58282 0.0
C723 C 0.44683 0.77787 0.58214 0.0
C724 C 0.50747 0.7635 0.6212 0.0
C725 C 0.55088 0.71736 0.60052 0.0
C726 C 0.52788 0.7313 0.60213 0.0
C727 C 0.46226 0.77415 0.60436 0.0
C728 C 0.48496 0.7593 0.60377 0.0
H729 H 0.59631 0.70424 0.55905 0.0
H730 H 0.55632 0.72437 0.56116 0.0
H731 H 0.54559 0.75343 0.63402 0.0
H732 H 0.42786 0.80387 0.64556 0.0
H733 H 0.4662 0.78173 0.64474 0.0
C734 C 0.87541 0.07438 0.71836 0.0
C735 C 0.86171 0.09355 0.72467 0.0
C736 C 0.87683 0.05542 0.7349 0.0
C737 C 0.83898 0.0251 0.78482 0.0
H738 H 0.90343 0.99698 0.80264 0.0
C739 C 0.83706 0.95422 0.86057 0.0
C740 C 0.85103 0.93467 0.85689 0.0
C741 C 0.84116 0.97426 0.84555 0.0
C742 C 0.88515 1.00441 0.79766 0.0
H743 H 0.83971 0.10821 0.75377 0.0
H744 H 0.84206 0.07535 0.78224 0.0
H745 H 0.90547 0.0302 0.77358 0.0
H746 H 0.8811 0.92131 0.83501 0.0
H747 H 0.88778 0.95601 0.80829 0.0
H748 H 0.81834 0.99924 0.80804 0.0
C749 C 0.8515 0.07477 0.76449 0.0
C750 C 0.88637 0.02349 0.78102 0.0
C751 C 0.85029 0.0937 0.74817 0.0
C752 C 0.87013 0.93613 0.83848 0.0
C753 C 0.87396 0.95609 0.82313 0.0
C754 C 0.83768 1.00597 0.80114 0.0
C755 C 0.86434 0.05518 0.75792 0.0
C756 C 0.86334 0.03425 0.77468 0.0
C757 C 0.859 0.97521 0.82602 0.0
C758 C 0.86078 0.99549 0.80814 0.0
H759 H 0.88442 0.07373 0.70041 0.0
H760 H 0.88683 0.04055 0.72928 0.0
H761 H 0.82073 0.03263 0.77992 0.0
H762 H 0.82241 0.95382 0.87476 0.0
H763 H 0.82988 0.98886 0.84901 0.0
C764 C 0.13945 0.59891 0.82774 0.0
C765 C 0.1592 0.60133 0.84784 0.0
C766 C 0.13658 0.57904 0.81107 0.0
C767 C 0.17648 0.53257 0.78958 0.0
H768 H 0.10869 0.50123 0.75872 0.0
C769 C 0.16798 0.44019 0.74356 0.0
C770 C 0.15726 0.43714 0.71851 0.0
C771 C 0.16541 0.46062 0.7577 0.0
C772 C 0.12775 0.51003 0.76701 0.0
H773 H 0.19004 0.58394 0.86721 0.0
H774 H 0.18443 0.54918 0.83899 0.0
H775 H 0.10915 0.53573 0.78758 0.0
H776 H 0.13427 0.45284 0.68906 0.0
H777 H 0.1294 0.48887 0.71429 0.0
H778 H 0.19499 0.50657 0.76974 0.0
C779 C 0.17183 0.56296 0.83534 0.0
C780 C 0.12806 0.52977 0.78354 0.0
C781 C 0.17491 0.58284 0.85172 0.0
C782 C 0.1428 0.4547 0.70828 0.0
C783 C 0.13997 0.47525 0.72269 0.0
C784 C 0.17612 0.51284 0.77338 0.0
C785 C 0.15326 0.56109 0.81429 0.0
C786 C 0.15244 0.54099 0.79546 0.0
C787 C 0.15185 0.47859 0.74736 0.0
C788 C 0.15177 0.50107 0.76227 0.0
H789 H 0.12709 0.61289 0.82417 0.0
H790 H 0.12208 0.57827 0.7951 0.0
H791 H 0.19574 0.54114 0.79764 0.0
H792 H 0.17908 0.42702 0.75219 0.0
H793 H 0.17443 0.46254 0.77677 0.0
C794 C 0.70103 0.87724 0.10129 0.0
C795 C 0.71183 0.88919 0.12374 0.0
C796 C 0.7163 0.87721 0.08012 0.0
C797 C 0.77809 0.90737 0.05201 0.0
H798 H 0.76909 0.84926 0.01085 0.0
C799 C 0.84516 0.8894 0.96865 0.0
C800 C 0.83092 0.87888 0.9468 0.0
C801 C 0.8318 0.89221 0.99081 0.0
C802 C 0.77174 0.86569 0.02205 0.0
H803 H 0.74713 0.91079 0.14142 0.0
H804 H 0.774 0.91033 0.1047 0.0
H805 H 0.74363 0.85105 0.04811 0.0
H806 H 0.79131 0.86386 0.93093 0.0
H807 H 0.76837 0.86867 0.96918 0.0
H808 H 0.80665 0.92174 0.02583 0.0
C809 C 0.75354 0.9013 0.10323 0.0
C810 C 0.757 0.86679 0.04341 0.0
C811 C 0.73815 0.90148 0.12437 0.0
C812 C 0.80303 0.87189 0.94741 0.0
C813 C 0.78983 0.87451 0.96943 0.0
C814 C 0.79306 0.90618 0.03066 0.0
C815 C 0.74294 0.88893 0.08086 0.0
C816 C 0.7596 0.88774 0.05854 0.0
C817 C 0.80405 0.88432 0.99154 0.0
C818 C 0.78973 0.88543 0.01522 0.0
H819 H 0.68077 0.86773 0.10008 0.0
H820 H 0.70713 0.86795 0.06312 0.0
H821 H 0.78055 0.92389 0.06303 0.0
H822 H 0.86665 0.89496 0.9688 0.0
H823 H 0.84332 0.89983 0.00757 0.0
C824 C 0.20301 0.65228 0.9452 0.0
C825 C 0.17475 0.64803 0.94275 0.0
C826 C 0.21707 0.6459 0.96681 0.0
C827 C 0.21016 0.63523 0.03412 0.0
H828 H 0.2797 0.61356 0.02917 0.0
C829 C 0.27862 0.61956 0.1223 0.0
C830 C 0.30578 0.6295 0.12157 0.0
C831 C 0.2613 0.61808 0.10055 0.0
C832 C 0.26037 0.61968 0.03089 0.0
H833 H 0.13909 0.63328 0.96105 0.0
H834 H 0.16386 0.62198 0.99923 0.0
H835 H 0.25112 0.61676 0.9911 0.0
H836 H 0.33615 0.64514 0.09725 0.0
H837 H 0.30604 0.64243 0.05932 0.0
H838 H 0.2197 0.6385 0.07395 0.0
C839 C 0.17504 0.63042 0.98426 0.0
C840 C 0.24395 0.62151 0.00907 0.0
C841 C 0.16085 0.63674 0.96237 0.0
C842 C 0.31538 0.63731 0.09845 0.0
C843 C 0.29812 0.63567 0.07668 0.0
C844 C 0.22657 0.6333 0.05601 0.0
C845 C 0.20337 0.63507 0.98675 0.0
C846 C 0.21893 0.6299 0.0103 0.0
C847 C 0.27078 0.62631 0.07751 0.0
C848 C 0.25216 0.62604 0.05459 0.0
H849 H 0.21445 0.66102 0.93055 0.0
H850 H 0.23878 0.6502 0.96816 0.0
H851 H 0.19116 0.64196 0.03578 0.0
H852 H 0.27055 0.61341 0.13982 0.0
H853 H 0.24044 0.61056 0.1018 0.0
C854 C 0.66316 0.13672 0.45971 0.0
C855 C 0.67628 0.14861 0.43999 0.0
C856 C 0.67802 0.13069 0.4813 0.0
C857 C 0.74809 0.1243 0.50524 0.0
H858 H 0.72241 0.13713 0.57071 0.0
C859 C 0.8181 0.13852 0.59598 0.0
C860 C 0.80836 0.12916 0.61847 0.0
C861 C 0.80125 0.13726 0.57393 0.0
C862 C 0.72972 0.13312 0.55258 0.0
H863 H 0.7153 0.16311 0.42734 0.0
H864 H 0.74084 0.15295 0.46461 0.0
H865 H 0.69376 0.14103 0.53277 0.0
H866 H 0.77339 0.1106 0.63525 0.0
H867 H 0.74405 0.10843 0.59681 0.0
H868 H 0.78436 0.11709 0.52502 0.0
C869 C 0.71923 0.14787 0.46349 0.0
C870 C 0.71324 0.1353 0.5308 0.0
C871 C 0.70448 0.15388 0.4421 0.0
C872 C 0.78157 0.11798 0.61824 0.0
C873 C 0.76467 0.11687 0.59626 0.0
C874 C 0.76459 0.12225 0.52697 0.0
C875 C 0.70628 0.13635 0.4835 0.0
C876 C 0.72242 0.13137 0.5068 0.0
C877 C 0.7742 0.12675 0.5739 0.0
C878 C 0.75581 0.12703 0.5509 0.0
H879 H 0.64146 0.13242 0.45864 0.0
H880 H 0.6674 0.12165 0.49627 0.0
H881 H 0.75563 0.12062 0.48712 0.0
H882 H 0.83858 0.14733 0.59552 0.0
H883 H 0.80918 0.14525 0.5571 0.0
C884 C 0.2376 0.39957 0.62512 0.0
C885 C 0.21112 0.38763 0.62451 0.0
C886 C 0.25284 0.39937 0.60389 0.0
C887 C 0.2555 0.36544 0.54357 0.0
H888 H 0.30578 0.42018 0.52657 0.0
C889 C 0.30182 0.37093 0.44766 0.0
C890 C 0.32974 0.37783 0.44715 0.0
C891 C 0.28858 0.37346 0.46967 0.0
C892 C 0.29201 0.40468 0.53123 0.0
H893 H 0.17966 0.36669 0.60081 0.0
H894 H 0.2058 0.36686 0.56369 0.0
H895 H 0.27981 0.42219 0.56386 0.0
H896 H 0.36547 0.39365 0.46931 0.0
H897 H 0.34207 0.39833 0.50806 0.0
H898 H 0.2673 0.34811 0.51076 0.0
C899 C 0.21518 0.37589 0.58074 0.0
C900 C 0.27711 0.40579 0.55264 0.0
C901 C 0.20005 0.37594 0.602 0.0
C902 C 0.34397 0.38817 0.46909 0.0
C903 C 0.33056 0.39087 0.49124 0.0
C904 C 0.27018 0.36442 0.52215 0.0
C905 C 0.24194 0.38733 0.58143 0.0
C906 C 0.25843 0.38623 0.55898 0.0
C907 C 0.30277 0.38306 0.49187 0.0
C908 C 0.28842 0.38409 0.51554 0.0
H909 H 0.2468 0.40867 0.6422 0.0
H910 H 0.27341 0.40817 0.60533 0.0
H911 H 0.24194 0.34976 0.5481 0.0
H912 H 0.29012 0.36305 0.43111 0.0
H913 H 0.2671 0.36769 0.46934 0.0
C914 C 0.05965 0.69662 0.8776 0.0
C915 C 0.08638 0.70637 0.88433 0.0
C916 C 0.03881 0.71072 0.87852 0.0
C917 C 0.02394 0.76991 0.90383 0.0
H918 H 0.96039 0.75606 0.85828 0.0
C919 C 0.94464 0.83473 0.88614 0.0
C920 C 0.91784 0.82501 0.88942 0.0
C921 C 0.96496 0.82005 0.88607 0.0
C922 C 0.978 0.76004 0.87119 0.0
H923 H 0.11232 0.73874 0.89658 0.0
H924 H 0.07656 0.76361 0.89686 0.0
H925 H 0.99637 0.73131 0.85633 0.0
H926 H 0.8913 0.79222 0.89479 0.0
H927 H 0.92675 0.76646 0.8938 0.0
H928 H 1.00578 0.79938 0.91775 0.0
C929 C 0.07119 0.74486 0.89192 0.0
C930 C 0.99864 0.74575 0.87025 0.0
C931 C 0.09188 0.73062 0.89156 0.0
C932 C 0.91177 0.80025 0.89238 0.0
C933 C 0.932 0.78549 0.89168 0.0
C934 C 1.00357 0.7845 0.90434 0.0
C935 C 0.04422 0.73514 0.88565 0.0
C936 C 0.02199 0.75039 0.8866 0.0
C937 C 0.95882 0.79526 0.88863 0.0
C938 C 0.98036 0.77968 0.88809 0.0
H939 H 0.05476 0.67793 0.8721 0.0
H940 H 0.01843 0.70227 0.874 0.0
H941 H 0.04107 0.7739 0.91724 0.0
H942 H 0.94995 0.85374 0.88383 0.0
H943 H 0.98544 0.82802 0.88358 0.0
C944 C 0.08388 0.33442 0.72954 0.0
C945 C 0.09862 0.34092 0.70847 0.0
C946 C 0.06152 0.31673 0.72749 0.0
C947 C 0.03013 0.26457 0.68767 0.0
H948 H 0.97025 0.269 0.72941 0.0
C949 C 0.93196 0.19509 0.6852 0.0
C950 C 0.92204 0.189 0.70879 0.0
C951 C 0.95381 0.21318 0.68337 0.0
C952 C 0.98691 0.26739 0.71776 0.0
H953 H 0.10062 0.33409 0.6684 0.0
H954 H 0.06118 0.30346 0.66474 0.0
H955 H 1.00621 0.30236 0.72874 0.0
H956 H 0.92847 0.19659 0.74904 0.0
H957 H 0.96622 0.22784 0.74577 0.0
H958 H 0.0104 0.2295 0.67662 0.0
C959 C 0.0673 0.31186 0.683 0.0
C960 C 0.0076 0.28655 0.71738 0.0
C961 C 0.08981 0.32962 0.68506 0.0
C962 C 0.93529 0.20079 0.73051 0.0
C963 C 0.95689 0.2189 0.72865 0.0
C964 C 0.00922 0.24541 0.6879 0.0
C965 C 0.05301 0.30499 0.70428 0.0
C966 C 0.02981 0.28528 0.70273 0.0
C967 C 0.96606 0.22571 0.70506 0.0
C968 C 0.98762 0.24643 0.70334 0.0
H969 H 0.08999 0.34257 0.74793 0.0
H970 H 0.05141 0.31175 0.74442 0.0
H971 H 0.04697 0.2628 0.67631 0.0
H972 H 0.92233 0.18645 0.66806 0.0
H973 H 0.96042 0.218 0.66491 0.0
C974 C 0.55863 0.19609 0.37802 0.0
C975 C 0.58551 0.20587 0.38395 0.0
C976 C 0.53791 0.21029 0.37916 0.0
C977 C 0.52369 0.26997 0.40359 0.0
H978 H 0.45938 0.25537 0.35912 0.0
C979 C 0.44376 0.33433 0.38629 0.0
C980 C 0.41703 0.32452 0.38971 0.0
C981 C 0.46418 0.31975 0.38622 0.0
C982 C 0.47719 0.25957 0.37173 0.0
H983 H 0.61183 0.23834 0.39515 0.0
H984 H 0.57617 0.26335 0.39586 0.0
H985 H 0.49531 0.23061 0.35707 0.0
H986 H 0.3907 0.29168 0.39539 0.0
H987 H 0.42631 0.26609 0.39444 0.0
H988 H 0.50574 0.29965 0.41732 0.0
C989 C 0.57066 0.24454 0.39133 0.0
C990 C 0.49781 0.24526 0.37073 0.0
C991 C 0.59127 0.23021 0.39072 0.0
C992 C 0.41113 0.29978 0.39285 0.0
C993 C 0.43145 0.28512 0.39218 0.0
C994 C 0.50332 0.28455 0.40416 0.0
C995 C 0.54356 0.23481 0.38573 0.0
C996 C 0.52143 0.25015 0.38671 0.0
C997 C 0.4582 0.29497 0.38896 0.0
C998 C 0.47982 0.27946 0.38832 0.0
H999 H 0.55353 0.17733 0.3729 0.0
H1000 H 0.51742 0.20183 0.37521 0.0
H1001 H 0.54107 0.27417 0.41668 0.0
H1002 H 0.44895 0.35333 0.38384 0.0
H1003 H 0.48461 0.32779 0.38359 0.0
C1004 C 0.63847 0.58539 0.67681 0.0
C1005 C 0.6617 0.5961 0.6658 0.0
C1006 C 0.6393 0.56546 0.69196 0.0
C1007 C 0.68093 0.51698 0.70702 0.0
H1008 H 0.63613 0.50809 0.76388 0.0
C1009 C 0.6901 0.44238 0.77937 0.0
C1010 C 0.66591 0.42955 0.78658 0.0
C1011 C 0.6899 0.46288 0.76497 0.0
C1012 C 0.64862 0.51021 0.74795 0.0
H1013 H 0.7042 0.59452 0.66257 0.0
H1014 H 0.70589 0.56032 0.6895 0.0
H1015 H 0.63548 0.54359 0.7387 0.0
H1016 H 0.62255 0.42838 0.78444 0.0
H1017 H 0.62224 0.4642 0.75954 0.0
H1018 H 0.69431 0.4837 0.71662 0.0
C1019 C 0.68678 0.56683 0.68596 0.0
C1020 C 0.6482 0.53058 0.73341 0.0
C1021 C 0.68588 0.58662 0.67062 0.0
C1022 C 0.64155 0.43782 0.77921 0.0
C1023 C 0.64137 0.45844 0.76505 0.0
C1024 C 0.68152 0.49673 0.72172 0.0
C1025 C 0.66346 0.55581 0.69674 0.0
C1026 C 0.66426 0.53425 0.71262 0.0
C1027 C 0.66554 0.47121 0.75767 0.0
C1028 C 0.66528 0.49302 0.7423 0.0
H1029 H 0.61947 0.59214 0.67338 0.0
H1030 H 0.6208 0.55735 0.69951 0.0
H1031 H 0.69322 0.51882 0.69095 0.0
H1032 H 0.70922 0.43652 0.78473 0.0
H1033 H 0.70889 0.47239 0.75982 0.0
C1034 C 0.33963 0.05226 0.79187 0.0
C1035 C 0.36099 0.06279 0.80839 0.0
C1036 C 0.34059 0.03028 0.77985 0.0
C1037 C 0.38827 0.99213 0.75752 0.0
H1038 H 0.32393 0.94621 0.74549 0.0
C1039 C 0.38664 0.9047 0.69739 0.0
C1040 C 0.36385 0.89814 0.68083 0.0
C1041 C 0.38719 0.92329 0.71533 0.0
C1042 C 0.34205 0.95891 0.74846 0.0
H1043 H 0.39993 0.05815 0.82571 0.0
H1044 H 0.40176 0.01948 0.80446 0.0
H1045 H 0.32324 0.9806 0.77355 0.0
H1046 H 0.32379 0.90608 0.67018 0.0
H1047 H 0.32483 0.93851 0.70108 0.0
H1048 H 0.40689 0.97071 0.73191 0.0
C1049 C 0.38423 0.0284 0.80086 0.0
C1050 C 0.34168 0.97862 0.76466 0.0
C1051 C 0.3831 0.05042 0.8132 0.0
C1052 C 0.34164 0.91058 0.68268 0.0
C1053 C 0.34217 0.92911 0.70058 0.0
C1054 C 0.38863 0.9724 0.74122 0.0
C1055 C 0.36307 0.0182 0.7838 0.0
C1056 C 0.36461 0.99576 0.76903 0.0
C1057 C 0.36492 0.93574 0.7172 0.0
C1058 C 0.36535 0.95576 0.73608 0.0
H1059 H 0.32229 0.06129 0.78769 0.0
H1060 H 0.32409 0.02319 0.76665 0.0
H1061 H 0.40621 1.00509 0.76024 0.0
H1062 H 0.40408 0.89546 0.69652 0.0
H1063 H 0.40495 0.92772 0.72793 0.0
C1064 C 0.43096 0.18194 0.81356 0.0
C1065 C 0.42024 0.17165 0.83528 0.0
C1066 C 0.45269 0.20042 0.81557 0.0
C1067 C 0.51122 0.22492 0.85616 0.0
H1068 H 0.50662 0.28471 0.82285 0.0
C1069 C 0.59816 0.30239 0.87065 0.0
C1070 C 0.60451 0.31697 0.85016 0.0
C1071 C 0.57421 0.28647 0.86993 0.0
C1072 C 0.50856 0.26805 0.832 0.0
H1073 H 0.42421 0.1724 0.87608 0.0
H1074 H 0.46273 0.20401 0.87951 0.0
H1075 H 0.4688 0.25263 0.81829 0.0
H1076 H 0.5903 0.32668 0.81308 0.0
H1077 H 0.54917 0.29838 0.81126 0.0
H1078 H 0.55119 0.23949 0.86898 0.0
C1079 C 0.45408 0.19801 0.86098 0.0
C1080 C 0.48673 0.24969 0.82944 0.0
C1081 C 0.43201 0.17995 0.859 0.0
C1082 C 0.58583 0.31594 0.82933 0.0
C1083 C 0.56213 0.2996 0.82834 0.0
C1084 C 0.53323 0.24304 0.85831 0.0
C1085 C 0.46453 0.20858 0.83931 0.0
C1086 C 0.48781 0.22798 0.84158 0.0
C1087 C 0.55621 0.28417 0.84839 0.0
C1088 C 0.53228 0.265 0.84639 0.0
H1089 H 0.42222 0.17604 0.79503 0.0
H1090 H 0.46045 0.20816 0.79855 0.0
H1091 H 0.51271 0.20827 0.86552 0.0
H1092 H 0.6121 0.30285 0.88704 0.0
H1093 H 0.57017 0.27562 0.88617 0.0
C1094 C 0.34983 0.59398 0.24994 0.0
C1095 C 0.3608 0.59358 0.22625 0.0
C1096 C 0.35086 0.57498 0.26621 0.0
C1097 C 0.38496 0.52311 0.28208 0.0
H1098 H 0.31718 0.4995 0.30994 0.0
C1099 C 0.36863 0.43551 0.33899 0.0
C1100 C 0.34975 0.43401 0.35759 0.0
C1101 C 0.37242 0.45558 0.32379 0.0
C1102 C 0.33646 0.50605 0.30282 0.0
H1103 H 0.38247 0.5732 0.20154 0.0
H1104 H 0.38459 0.53994 0.23032 0.0
H1105 H 0.31963 0.53307 0.28204 0.0
H1106 H 0.32145 0.45315 0.37594 0.0
H1107 H 0.32889 0.4884 0.35049 0.0
H1108 H 0.40192 0.49629 0.30325 0.0
C1109 C 0.37508 0.55505 0.23614 0.0
C1110 C 0.33779 0.52529 0.28663 0.0
C1111 C 0.37381 0.57405 0.21965 0.0
C1112 C 0.33594 0.4536 0.3616 0.0
C1113 C 0.34002 0.47376 0.34674 0.0
C1114 C 0.38372 0.50395 0.29861 0.0
C1115 C 0.36309 0.55509 0.25939 0.0
C1116 C 0.36204 0.53417 0.27615 0.0
C1117 C 0.35765 0.47478 0.32704 0.0
C1118 C 0.35945 0.49522 0.30937 0.0
H1119 H 0.33977 0.60875 0.25573 0.0
H1120 H 0.34178 0.57574 0.28413 0.0
H1121 H 0.40397 0.52962 0.27439 0.0
H1122 H 0.37946 0.42065 0.33526 0.0
H1123 H 0.38607 0.45552 0.3088 0.0
C1124 C 0.63448 0.09775 0.3261 0.0
C1125 C 0.65445 0.09944 0.34598 0.0
C1126 C 0.6296 0.07738 0.31015 0.0
C1127 C 0.63726 0.01383 0.30631 0.0
H1128 H 0.64443 0.02229 0.23473 0.0
C1129 C 0.66443 0.93904 0.24339 0.0
C1130 C 0.65474 0.93628 0.21803 0.0
C1131 C 0.65931 0.95828 0.25819 0.0
C1132 C 0.64177 0.01953 0.25456 0.0
H1133 H 0.68418 0.08073 0.36528 0.0
H1134 H 0.67505 0.04499 0.33803 0.0
H1135 H 0.64421 0.05714 0.26265 0.0
H1136 H 0.63163 0.95157 0.18842 0.0
H1137 H 0.62221 0.98539 0.2146 0.0
H1138 H 0.63481 0.97639 0.29854 0.0
C1139 C 0.66338 0.05949 0.33459 0.0
C1140 C 0.64173 0.03953 0.27056 0.0
C1141 C 0.66866 0.07998 0.35015 0.0
C1142 C 0.63933 0.95318 0.20791 0.0
C1143 C 0.63409 0.97261 0.22288 0.0
C1144 C 0.63691 0.99387 0.29034 0.0
C1145 C 0.64414 0.05811 0.31416 0.0
C1146 C 0.64029 0.0369 0.2967 0.0
C1147 C 0.64413 0.97543 0.24825 0.0
C1148 C 0.64011 0.99646 0.26436 0.0
H1149 H 0.62336 0.11252 0.32225 0.0
H1150 H 0.6146 0.07675 0.29459 0.0
H1151 H 0.63568 0.01124 0.32632 0.0
H1152 H 0.67653 0.9265 0.25186 0.0
H1153 H 0.66799 0.96002 0.27736 0.0
C1154 C 0.59121 0.82918 0.18359 0.0
C1155 C 0.60137 0.83842 0.20756 0.0
C1156 C 0.57 0.81019 0.18114 0.0
C1157 C 0.53975 0.75918 0.21647 0.0
H1158 H 0.47669 0.75839 0.17074 0.0
C1159 C 0.44371 0.69356 0.22762 0.0
C1160 C 0.42682 0.6851 0.20641 0.0
C1161 C 0.46629 0.71055 0.22532 0.0
C1162 C 0.49438 0.75806 0.18329 0.0
H1163 H 0.59624 0.83524 0.24768 0.0
H1164 H 0.5597 0.80233 0.24334 0.0
H1165 H 0.51283 0.7921 0.17109 0.0
H1166 H 0.42137 0.68742 0.16582 0.0
H1167 H 0.46126 0.71677 0.16171 0.0
H1168 H 0.52174 0.72526 0.22865 0.0
C1169 C 0.56826 0.80961 0.22645 0.0
C1170 C 0.51504 0.77747 0.18354 0.0
C1171 C 0.58915 0.82866 0.22889 0.0
C1172 C 0.43388 0.69345 0.1826 0.0
C1173 C 0.45663 0.71051 0.18027 0.0
C1174 C 0.51933 0.73973 0.21604 0.0
C1175 C 0.55873 0.79984 0.20261 0.0
C1176 C 0.53767 0.7785 0.20057 0.0
C1177 C 0.47291 0.71959 0.20169 0.0
C1178 C 0.49601 0.73911 0.1999 0.0
H1179 H 0.60007 0.8362 0.16673 0.0
H1180 H 0.56306 0.80306 0.16251 0.0
H1181 H 0.5572 0.75917 0.22942 0.0
H1182 H 0.43903 0.68767 0.24631 0.0
H1183 H 0.47796 0.71726 0.24234 0.0
loop_
_geom_bond_atom_site_label_1
_geom_bond_atom_site_label_2
_geom_bond_distance
_geom_bond_site_symmetry_2
_ccdc_geom_bond_type
Co0 O1 2.216 . S
Co0 O2 2.091 . S
Co0 O4 2.004 . S
Co0 O10 2.021 . S
Co0 O12 2.137 . S
Co0 O13 2.244 . S
O1 Co0 2.216 . S
O1 C8 1.247 . S
O2 Co0 2.091 . S
O2 C8 1.261 . S
C3 O12 1.247 . S
C3 O13 1.272 . S
O4 Co0 2.004 . S
O4 C9 1.259 . S
Co5 O6 2.061 . S
Co5 O11 2.052 . S
Co5 O13 2.135 . S
O6 Co5 2.061 . S
O6 C9 1.235 . S
C7 O10 1.238 . S
C7 O11 1.241 . S
C8 O1 1.247 . S
C8 O2 1.261 . S
C9 O4 1.259 . S
C9 O6 1.235 . S
O10 Co0 2.021 . S
O10 C7 1.238 . S
O11 Co5 2.052 . S
O11 C7 1.241 . S
O12 Co0 2.137 . S
O12 C3 1.247 . S
O13 Co0 2.244 . S
O13 C3 1.272 . S
O13 Co5 2.135 . S
Co14 O15 2.216 . S
Co14 O16 2.091 . S
Co14 O18 2.004 . S
Co14 O24 2.021 . S
Co14 O26 2.137 . S
Co14 O27 2.244 . S
O15 Co14 2.216 . S
O15 C22 1.247 . S
O16 Co14 2.091 . S
O16 C22 1.261 . S
C17 O26 1.247 . S
C17 O27 1.272 . S
O18 Co14 2.004 . S
O18 C23 1.259 . S
Co19 O20 2.061 . S
Co19 O25 2.052 . S
Co19 O27 2.135 . S
O20 Co19 2.061 . S
O20 C23 1.235 . S
C21 O24 1.238 . S
C21 O25 1.241 . S
C22 O15 1.247 . S
C22 O16 1.261 . S
C23 O18 1.259 . S
C23 O20 1.235 . S
O24 Co14 2.021 . S
O24 C21 1.238 . S
O25 Co19 2.052 . S
O25 C21 1.241 . S
O26 Co14 2.137 . S
O26 C17 1.247 . S
O27 Co14 2.244 . S
O27 C17 1.272 . S
O27 Co19 2.135 . S
Co28 O29 2.216 . S
Co28 O30 2.091 . S
Co28 O32 2.004 . S
Co28 O38 2.021 . S
Co28 O40 2.137 . S
Co28 O41 2.244 . S
O29 Co28 2.216 . S
O29 C36 1.247 . S
O30 Co28 2.091 . S
O30 C36 1.261 . S
C31 O40 1.247 . S
C31 O41 1.272 . S
O32 Co28 2.004 . S
O32 C37 1.259 . S
Co33 O34 2.061 . S
Co33 O39 2.052 . S
Co33 O41 2.135 . S
O34 Co33 2.061 . S
O34 C37 1.235 . S
C35 O38 1.238 . S
C35 O39 1.241 . S
C36 O29 1.247 . S
C36 O30 1.261 . S
C37 O32 1.259 . S
C37 O34 1.235 . S
O38 Co28 2.021 . S
O38 C35 1.238 . S
O39 Co33 2.052 . S
O39 C35 1.241 . S
O40 Co28 2.137 . S
O40 C31 1.247 . S
O41 Co28 2.244 . S
O41 C31 1.272 . S
O41 Co33 2.135 . S
Co42 O43 2.216 . S
Co42 O44 2.091 . S
Co42 O46 2.004 . S
Co42 O52 2.021 . S
Co42 O54 2.137 . S
Co42 O55 2.244 . S
O43 Co42 2.216 . S
O43 C50 1.247 . S
O44 Co42 2.091 . S
O44 C50 1.261 . S
C45 O54 1.247 . S
C45 O55 1.272 . S
O46 Co42 2.004 . S
O46 C51 1.259 . S
Co47 O48 2.061 . S
Co47 O53 2.052 . S
Co47 O55 2.135 . S
O48 Co47 2.061 . S
O48 C51 1.235 . S
C49 O52 1.238 . S
C49 O53 1.241 . S
C50 O43 1.247 . S
C50 O44 1.261 . S
C51 O46 1.259 . S
C51 O48 1.235 . S
O52 Co42 2.021 . S
O52 C49 1.238 . S
O53 Co47 2.052 . S
O53 C49 1.241 . S
O54 Co42 2.137 . S
O54 C45 1.247 . S
O55 Co42 2.244 . S
O55 C45 1.272 . S
O55 Co47 2.135 . S
Co56 O57 2.216 . S
Co56 O58 2.091 . S
Co56 O60 2.004 . S
Co56 O66 2.021 . S
Co56 O68 2.137 . S
Co56 O69 2.244 . S
O57 Co56 2.216 . S
O57 C64 1.247 . S
O58 Co56 2.091 . S
O58 C64 1.261 . S
C59 O68 1.247 . S
C59 O69 1.272 . S
O60 Co56 2.004 . S
O60 C65 1.259 . S
Co61 O62 2.061 . S
Co61 O67 2.052 . S
Co61 O69 2.135 . S
O62 Co61 2.061 . S
O62 C65 1.235 . S
C63 O66 1.238 . S
C63 O67 1.241 . S
C64 O57 1.247 . S
C64 O58 1.261 . S
C65 O60 1.259 . S
C65 O62 1.235 . S
O66 Co56 2.021 . S
O66 C63 1.238 . S
O67 Co61 2.052 . S
O67 C63 1.241 . S
O68 Co56 2.137 . S
O68 C59 1.247 . S
O69 Co56 2.244 . S
O69 C59 1.272 . S
O69 Co61 2.135 . S
Co70 O71 2.216 . S
Co70 O72 2.091 . S
Co70 O74 2.004 . S
Co70 O80 2.021 . S
Co70 O82 2.137 . S
Co70 O83 2.244 . S
O71 Co70 2.216 . S
O71 C78 1.247 . S
O72 Co70 2.091 . S
O72 C78 1.261 . S
C73 O82 1.247 . S
C73 O83 1.272 . S
O74 Co70 2.004 . S
O74 C79 1.259 . S
Co75 O76 2.061 . S
Co75 O81 2.052 . S
Co75 O83 2.135 . S
O76 Co75 2.061 . S
O76 C79 1.235 . S
C77 O80 1.238 . S
C77 O81 1.241 . S
C78 O71 1.247 . S
C78 O72 1.261 . S
C79 O74 1.259 . S
C79 O76 1.235 . S
O80 Co70 2.021 . S
O80 C77 1.238 . S
O81 Co75 2.052 . S
O81 C77 1.241 . S
O82 Co70 2.137 . S
O82 C73 1.247 . S
O83 Co70 2.244 . S
O83 C73 1.272 . S
O83 Co75 2.135 . S
Co84 O85 2.216 . S
Co84 O86 2.091 . S
Co84 O88 2.004 . S
Co84 O94 2.021 . S
Co84 O96 2.137 . S
Co84 O97 2.244 . S
O85 Co84 2.216 . S
O85 C92 1.247 . S
O86 Co84 2.091 . S
O86 C92 1.261 . S
C87 O96 1.247 . S
C87 O97 1.272 . S
O88 Co84 2.004 . S
O88 C93 1.259 . S
Co89 O90 2.061 . S
Co89 O95 2.052 . S
Co89 O97 2.135 . S
O90 Co89 2.061 . S
O90 C93 1.235 . S
C91 O94 1.238 . S
C91 O95 1.241 . S
C92 O85 1.247 . S
C92 O86 1.261 . S
C93 O88 1.259 . S
C93 O90 1.235 . S
O94 Co84 2.021 . S
O94 C91 1.238 . S
O95 Co89 2.052 . S
O95 C91 1.241 . S
O96 Co84 2.137 . S
O96 C87 1.247 . S
O97 Co84 2.244 . S
O97 C87 1.272 . S
O97 Co89 2.135 . S
Co98 O99 2.216 . S
Co98 O100 2.091 . S
Co98 O102 2.004 . S
Co98 O108 2.021 . S
Co98 O110 2.137 . S
Co98 O111 2.244 . S
O99 Co98 2.216 . S
O99 C106 1.247 . S
O100 Co98 2.091 . S
O100 C106 1.261 . S
C101 O110 1.247 . S
C101 O111 1.272 . S
O102 Co98 2.004 . S
O102 C107 1.259 . S
Co103 O104 2.061 . S
Co103 O109 2.052 . S
Co103 O111 2.135 . S
O104 Co103 2.061 . S
O104 C107 1.235 . S
C105 O108 1.238 . S
C105 O109 1.241 . S
C106 O99 1.247 . S
C106 O100 1.261 . S
C107 O102 1.259 . S
C107 O104 1.235 . S
O108 Co98 2.021 . S
O108 C105 1.238 . S
O109 Co103 2.052 . S
O109 C105 1.241 . S
O110 Co98 2.137 . S
O110 C101 1.247 . S
O111 Co98 2.244 . S
O111 C101 1.272 . S
O111 Co103 2.135 . S
Co112 O113 2.216 . S
Co112 O114 2.091 . S
Co112 O116 2.004 . S
Co112 O122 2.021 . S
Co112 O124 2.137 . S
Co112 O125 2.244 . S
O113 Co112 2.216 . S
O113 C120 1.247 . S
O114 Co112 2.091 . S
O114 C120 1.261 . S
C115 O124 1.247 . S
C115 O125 1.272 . S
O116 Co112 2.004 . S
O116 C121 1.259 . S
Co117 O118 2.061 . S
Co117 O123 2.052 . S
Co117 O125 2.135 . S
O118 Co117 2.061 . S
O118 C121 1.235 . S
C119 O122 1.238 . S
C119 O123 1.241 . S
C120 O113 1.247 . S
C120 O114 1.261 . S
C121 O116 1.259 . S
C121 O118 1.235 . S
O122 Co112 2.021 . S
O122 C119 1.238 . S
O123 Co117 2.052 . S
O123 C119 1.241 . S
O124 Co112 2.137 . S
O124 C115 1.247 . S
O125 Co112 2.244 . S
O125 C115 1.272 . S
O125 Co117 2.135 . S
Co126 O127 2.216 . S
Co126 O128 2.091 . S
Co126 O130 2.004 . S
Co126 O136 2.021 . S
Co126 O138 2.137 . S
Co126 O139 2.244 . S
O127 Co126 2.216 . S
O127 C134 1.247 . S
O128 Co126 2.091 . S
O128 C134 1.261 . S
C129 O138 1.247 . S
C129 O139 1.272 . S
O130 Co126 2.004 . S
O130 C135 1.259 . S
Co131 O132 2.061 . S
Co131 O137 2.052 . S
Co131 O139 2.135 . S
O132 Co131 2.061 . S
O132 C135 1.235 . S
C133 O136 1.238 . S
C133 O137 1.241 . S
C134 O127 1.247 . S
C134 O128 1.261 . S
C135 O130 1.259 . S
C135 O132 1.235 . S
O136 Co126 2.021 . S
O136 C133 1.238 . S
O137 Co131 2.052 . S
O137 C133 1.241 . S
O138 Co126 2.137 . S
O138 C129 1.247 . S
O139 Co126 2.244 . S
O139 C129 1.272 . S
O139 Co131 2.135 . S
Co140 O141 2.216 . S
Co140 O142 2.091 . S
Co140 O144 2.004 . S
Co140 O150 2.021 . S
Co140 O152 2.137 . S
Co140 O153 2.244 . S
O141 Co140 2.216 . S
O141 C148 1.247 . S
O142 Co140 2.091 . S
O142 C148 1.261 . S
C143 O152 1.247 . S
C143 O153 1.272 . S
O144 Co140 2.004 . S
O144 C149 1.259 . S
Co145 O146 2.061 . S
Co145 O151 2.052 . S
Co145 O153 2.135 . S
O146 Co145 2.061 . S
O146 C149 1.235 . S
C147 O150 1.238 . S
C147 O151 1.241 . S
C148 O141 1.247 . S
C148 O142 1.261 . S
C149 O144 1.259 . S
C149 O146 1.235 . S
O150 Co140 2.021 . S
O150 C147 1.238 . S
O151 Co145 2.052 . S
O151 C147 1.241 . S
O152 Co140 2.137 . S
O152 C143 1.247 . S
O153 Co140 2.244 . S
O153 C143 1.272 . S
O153 Co145 2.135 . S
Co154 O155 2.216 . S
Co154 O156 2.091 . S
Co154 O158 2.004 . S
Co154 O164 2.021 . S
Co154 O166 2.137 . S
Co154 O167 2.244 . S
O155 Co154 2.216 . S
O155 C162 1.247 . S
O156 Co154 2.091 . S
O156 C162 1.261 . S
C157 O166 1.247 . S
C157 O167 1.272 . S
O158 Co154 2.004 . S
O158 C163 1.259 . S
Co159 O160 2.061 . S
Co159 O165 2.052 . S
Co159 O167 2.135 . S
O160 Co159 2.061 . S
O160 C163 1.235 . S
C161 O164 1.238 . S
C161 O165 1.241 . S
C162 O155 1.247 . S
C162 O156 1.261 . S
C163 O158 1.259 . S
C163 O160 1.235 . S
O164 Co154 2.021 . S
O164 C161 1.238 . S
O165 Co159 2.052 . S
O165 C161 1.241 . S
O166 Co154 2.137 . S
O166 C157 1.247 . S
O167 Co154 2.244 . S
O167 C157 1.272 . S
O167 Co159 2.135 . S
Co168 O169 2.216 . S
Co168 O170 2.091 . S
Co168 O172 2.004 . S
Co168 O178 2.021 . S
Co168 O180 2.137 . S
Co168 O181 2.244 . S
O169 Co168 2.216 . S
O169 C176 1.247 . S
O170 Co168 2.091 . S
O170 C176 1.261 . S
C171 O180 1.247 . S
C171 O181 1.272 . S
O172 Co168 2.004 . S
O172 C177 1.259 . S
Co173 O174 2.061 . S
Co173 O179 2.052 . S
Co173 O181 2.135 . S
O174 Co173 2.061 . S
O174 C177 1.235 . S
C175 O178 1.238 . S
C175 O179 1.241 . S
C176 O169 1.247 . S
C176 O170 1.261 . S
C177 O172 1.259 . S
C177 O174 1.235 . S
O178 Co168 2.021 . S
O178 C175 1.238 . S
O179 Co173 2.052 . S
O179 C175 1.241 . S
O180 Co168 2.137 . S
O180 C171 1.247 . S
O181 Co168 2.244 . S
O181 C171 1.272 . S
O181 Co173 2.135 . S
Co182 O183 2.216 . S
Co182 O184 2.091 . S
Co182 O186 2.004 . S
Co182 O192 2.021 . S
Co182 O194 2.137 . S
Co182 O195 2.244 . S
O183 Co182 2.216 . S
O183 C190 1.247 . S
O184 Co182 2.091 . S
O184 C190 1.261 . S
C185 O194 1.247 . S
C185 O195 1.272 . S
O186 Co182 2.004 . S
O186 C191 1.259 . S
Co187 O188 2.061 . S
Co187 O193 2.052 . S
Co187 O195 2.135 . S
O188 Co187 2.061 . S
O188 C191 1.235 . S
C189 O192 1.238 . S
C189 O193 1.241 . S
C190 O183 1.247 . S
C190 O184 1.261 . S
C191 O186 1.259 . S
C191 O188 1.235 . S
O192 Co182 2.021 . S
O192 C189 1.238 . S
O193 Co187 2.052 . S
O193 C189 1.241 . S
O194 Co182 2.137 . S
O194 C185 1.247 . S
O195 Co182 2.244 . S
O195 C185 1.272 . S
O195 Co187 2.135 . S
Co196 O197 2.216 . S
Co196 O198 2.091 . S
Co196 O200 2.004 . S
Co196 O206 2.021 . S
Co196 O208 2.137 . S
Co196 O209 2.244 . S
O197 Co196 2.216 . S
O197 C204 1.247 . S
O198 Co196 2.091 . S
O198 C204 1.261 . S
C199 O208 1.247 . S
C199 O209 1.272 . S
O200 Co196 2.004 . S
O200 C205 1.259 . S
Co201 O202 2.061 . S
Co201 O207 2.052 . S
Co201 O209 2.135 . S
O202 Co201 2.061 . S
O202 C205 1.235 . S
C203 O206 1.238 . S
C203 O207 1.241 . S
C204 O197 1.247 . S
C204 O198 1.261 . S
C205 O200 1.259 . S
C205 O202 1.235 . S
O206 Co196 2.021 . S
O206 C203 1.238 . S
O207 Co201 2.052 . S
O207 C203 1.241 . S
O208 Co196 2.137 . S
O208 C199 1.247 . S
O209 Co196 2.244 . S
O209 C199 1.272 . S
O209 Co201 2.135 . S
Co210 O211 2.216 . S
Co210 O212 2.091 . S
Co210 O214 2.004 . S
Co210 O220 2.021 . S
Co210 O222 2.137 . S
Co210 O223 2.244 . S
O211 Co210 2.216 . S
O211 C218 1.247 . S
O212 Co210 2.091 . S
O212 C218 1.261 . S
C213 O222 1.247 . S
C213 O223 1.272 . S
O214 Co210 2.004 . S
O214 C219 1.259 . S
Co215 O216 2.061 . S
Co215 O221 2.052 . S
Co215 O223 2.135 . S
O216 Co215 2.061 . S
O216 C219 1.235 . S
C217 O220 1.238 . S
C217 O221 1.241 . S
C218 O211 1.247 . S
C218 O212 1.261 . S
C219 O214 1.259 . S
C219 O216 1.235 . S
O220 Co210 2.021 . S
O220 C217 1.238 . S
O221 Co215 2.052 . S
O221 C217 1.241 . S
O222 Co210 2.137 . S
O222 C213 1.247 . S
O223 Co210 2.244 . S
O223 C213 1.272 . S
O223 Co215 2.135 . S
C224 C225 1.349 . S
C224 C226 1.327 . S
C224 H249 0.950 . S
C225 C224 1.349 . S
C225 C241 1.349 . S
C226 C224 1.327 . S
C226 C245 1.429 . S
C226 H250 0.950 . S
C227 C244 1.574 . S
C227 C246 1.368 . S
C227 H251 0.949 . S
H228 C232 0.949 . S
C229 C230 1.349 . S
C229 C231 1.327 . S
C229 H252 0.950 . S
C230 C229 1.349 . S
C230 C242 1.349 . S
C231 C229 1.327 . S
C231 C247 1.429 . S
C231 H253 0.950 . S
C232 H228 0.949 . S
C232 C240 1.574 . S
C232 C248 1.368 . S
H233 C241 0.950 . S
H234 C239 0.950 . S
H235 C240 0.949 . S
H236 C242 0.950 . S
H237 C243 0.950 . S
H238 C244 0.949 . S
C239 H234 0.950 . S
C239 C241 1.327 . S
C239 C245 1.429 . S
C240 C232 1.574 . S
C240 H235 0.949 . S
C240 C246 1.368 . S
C241 C225 1.349 . S
C241 H233 0.950 . S
C241 C239 1.327 . S
C242 C230 1.349 . S
C242 H236 0.950 . S
C242 C243 1.327 . S
C243 H237 0.950 . S
C243 C242 1.327 . S
C243 C247 1.429 . S
C244 C227 1.574 . S
C244 H238 0.949 . S
C244 C248 1.368 . S
C245 C226 1.429 . S
C245 C239 1.429 . S
C245 C246 1.523 . S
C246 C227 1.368 . S
C246 C240 1.368 . S
C246 C245 1.523 . S
C247 C231 1.429 . S
C247 C243 1.429 . S
C247 C248 1.523 . S
C248 C232 1.368 . S
C248 C244 1.368 . S
C248 C247 1.523 . S
H249 C224 0.950 . S
H250 C226 0.950 . S
H251 C227 0.949 . S
H252 C229 0.950 . S
H253 C231 0.950 . S
C254 C255 1.349 . S
C254 C256 1.327 . S
C254 H279 0.950 . S
C255 C254 1.349 . S
C255 C271 1.349 . S
C256 C254 1.327 . S
C256 C275 1.429 . S
C256 H280 0.950 . S
C257 C274 1.574 . S
C257 C276 1.368 . S
C257 H281 0.949 . S
H258 C262 0.949 . S
C259 C260 1.349 . S
C259 C261 1.327 . S
C259 H282 0.950 . S
C260 C259 1.349 . S
C260 C272 1.349 . S
C261 C259 1.327 . S
C261 C277 1.429 . S
C261 H283 0.950 . S
C262 H258 0.949 . S
C262 C270 1.574 . S
C262 C278 1.368 . S
H263 C271 0.950 . S
H264 C269 0.950 . S
H265 C270 0.949 . S
H266 C272 0.950 . S
H267 C273 0.950 . S
H268 C274 0.949 . S
C269 H264 0.950 . S
C269 C271 1.327 . S
C269 C275 1.429 . S
C270 C262 1.574 . S
C270 H265 0.949 . S
C270 C276 1.368 . S
C271 C255 1.349 . S
C271 H263 0.950 . S
C271 C269 1.327 . S
C272 C260 1.349 . S
C272 H266 0.950 . S
C272 C273 1.327 . S
C273 H267 0.950 . S
C273 C272 1.327 . S
C273 C277 1.429 . S
C274 C257 1.574 . S
C274 H268 0.949 . S
C274 C278 1.368 . S
C275 C256 1.429 . S
C275 C269 1.429 . S
C275 C276 1.523 . S
C276 C257 1.368 . S
C276 C270 1.368 . S
C276 C275 1.523 . S
C277 C261 1.429 . S
C277 C273 1.429 . S
C277 C278 1.523 . S
C278 C262 1.368 . S
C278 C274 1.368 . S
C278 C277 1.523 . S
H279 C254 0.950 . S
H280 C256 0.950 . S
H281 C257 0.949 . S
H282 C259 0.950 . S
H283 C261 0.950 . S
C284 C285 1.349 . S
C284 C286 1.327 . S
C284 H309 0.950 . S
C285 C284 1.349 . S
C285 C301 1.349 . S
C286 C284 1.327 . S
C286 C305 1.429 . S
C286 H310 0.950 . S
C287 C304 1.574 . S
C287 C306 1.368 . S
C287 H311 0.949 . S
H288 C292 0.949 . S
C289 C290 1.349 . S
C289 C291 1.327 . S
C289 H312 0.950 . S
C290 C289 1.349 . S
C290 C302 1.349 . S
C291 C289 1.327 . S
C291 C307 1.429 . S
C291 H313 0.950 . S
C292 H288 0.949 . S
C292 C300 1.574 . S
C292 C308 1.368 . S
H293 C301 0.950 . S
H294 C299 0.950 . S
H295 C300 0.949 . S
H296 C302 0.950 . S
H297 C303 0.950 . S
H298 C304 0.949 . S
C299 H294 0.950 . S
C299 C301 1.327 . S
C299 C305 1.429 . S
C300 C292 1.574 . S
C300 H295 0.949 . S
C300 C306 1.368 . S
C301 C285 1.349 . S
C301 H293 0.950 . S
C301 C299 1.327 . S
C302 C290 1.349 . S
C302 H296 0.950 . S
C302 C303 1.327 . S
C303 H297 0.950 . S
C303 C302 1.327 . S
C303 C307 1.429 . S
C304 C287 1.574 . S
C304 H298 0.949 . S
C304 C308 1.368 . S
C305 C286 1.429 . S
C305 C299 1.429 . S
C305 C306 1.523 . S
C306 C287 1.368 . S
C306 C300 1.368 . S
C306 C305 1.523 . S
C307 C291 1.429 . S
C307 C303 1.429 . S
C307 C308 1.523 . S
C308 C292 1.368 . S
C308 C304 1.368 . S
C308 C307 1.523 . S
H309 C284 0.950 . S
H310 C286 0.950 . S
H311 C287 0.949 . S
H312 C289 0.950 . S
H313 C291 0.950 . S
C314 C315 1.349 . S
C314 C316 1.327 . S
C314 H339 0.950 . S
C315 C314 1.349 . S
C315 C331 1.349 . S
C316 C314 1.327 . S
C316 C335 1.429 . S
C316 H340 0.950 . S
C317 C334 1.574 . S
C317 C336 1.368 . S
C317 H341 0.949 . S
H318 C322 0.949 . S
C319 C320 1.349 . S
C319 C321 1.327 . S
C319 H342 0.950 . S
C320 C319 1.349 . S
C320 C332 1.349 . S
C321 C319 1.327 . S
C321 C337 1.429 . S
C321 H343 0.950 . S
C322 H318 0.949 . S
C322 C330 1.574 . S
C322 C338 1.368 . S
H323 C331 0.950 . S
H324 C329 0.950 . S
H325 C330 0.949 . S
H326 C332 0.950 . S
H327 C333 0.950 . S
H328 C334 0.949 . S
C329 H324 0.950 . S
C329 C331 1.327 . S
C329 C335 1.429 . S
C330 C322 1.574 . S
C330 H325 0.949 . S
C330 C336 1.368 . S
C331 C315 1.349 . S
C331 H323 0.950 . S
C331 C329 1.327 . S
C332 C320 1.349 . S
C332 H326 0.950 . S
C332 C333 1.327 . S
C333 H327 0.950 . S
C333 C332 1.327 . S
C333 C337 1.429 . S
C334 C317 1.574 . S
C334 H328 0.949 . S
C334 C338 1.368 . S
C335 C316 1.429 . S
C335 C329 1.429 . S
C335 C336 1.523 . S
C336 C317 1.368 . S
C336 C330 1.368 . S
C336 C335 1.523 . S
C337 C321 1.429 . S
C337 C333 1.429 . S
C337 C338 1.523 . S
C338 C322 1.368 . S
C338 C334 1.368 . S
C338 C337 1.523 . S
H339 C314 0.950 . S
H340 C316 0.950 . S
H341 C317 0.949 . S
H342 C319 0.950 . S
H343 C321 0.950 . S
C344 C345 1.349 . S
C344 C346 1.327 . S
C344 H369 0.950 . S
C345 C344 1.349 . S
C345 C361 1.349 . S
C346 C344 1.327 . S
C346 C365 1.429 . S
C346 H370 0.950 . S
C347 C364 1.574 . S
C347 C366 1.368 . S
C347 H371 0.949 . S
H348 C352 0.949 . S
C349 C350 1.349 . S
C349 C351 1.327 . S
C349 H372 0.950 . S
C350 C349 1.349 . S
C350 C362 1.349 . S
C351 C349 1.327 . S
C351 C367 1.429 . S
C351 H373 0.950 . S
C352 H348 0.949 . S
C352 C360 1.574 . S
C352 C368 1.368 . S
H353 C361 0.950 . S
H354 C359 0.950 . S
H355 C360 0.949 . S
H356 C362 0.950 . S
H357 C363 0.950 . S
H358 C364 0.949 . S
C359 H354 0.950 . S
C359 C361 1.327 . S
C359 C365 1.429 . S
C360 C352 1.574 . S
C360 H355 0.949 . S
C360 C366 1.368 . S
C361 C345 1.349 . S
C361 H353 0.950 . S
C361 C359 1.327 . S
C362 C350 1.349 . S
C362 H356 0.950 . S
C362 C363 1.327 . S
C363 H357 0.950 . S
C363 C362 1.327 . S
C363 C367 1.429 . S
C364 C347 1.574 . S
C364 H358 0.949 . S
C364 C368 1.368 . S
C365 C346 1.429 . S
C365 C359 1.429 . S
C365 C366 1.523 . S
C366 C347 1.368 . S
C366 C360 1.368 . S
C366 C365 1.523 . S
C367 C351 1.429 . S
C367 C363 1.429 . S
C367 C368 1.523 . S
C368 C352 1.368 . S
C368 C364 1.368 . S
C368 C367 1.523 . S
H369 C344 0.950 . S
H370 C346 0.950 . S
H371 C347 0.949 . S
H372 C349 0.950 . S
H373 C351 0.950 . S
C374 C375 1.349 . S
C374 C376 1.327 . S
C374 H399 0.950 . S
C375 C374 1.349 . S
C375 C391 1.349 . S
C376 C374 1.327 . S
C376 C395 1.429 . S
C376 H400 0.950 . S
C377 C394 1.574 . S
C377 C396 1.368 . S
C377 H401 0.949 . S
H378 C382 0.949 . S
C379 C380 1.349 . S
C379 C381 1.327 . S
C379 H402 0.950 . S
C380 C379 1.349 . S
C380 C392 1.349 . S
C381 C379 1.327 . S
C381 C397 1.429 . S
C381 H403 0.950 . S
C382 H378 0.949 . S
C382 C390 1.574 . S
C382 C398 1.368 . S
H383 C391 0.950 . S
H384 C389 0.950 . S
H385 C390 0.949 . S
H386 C392 0.950 . S
H387 C393 0.950 . S
H388 C394 0.949 . S
C389 H384 0.950 . S
C389 C391 1.327 . S
C389 C395 1.429 . S
C390 C382 1.574 . S
C390 H385 0.949 . S
C390 C396 1.368 . S
C391 C375 1.349 . S
C391 H383 0.950 . S
C391 C389 1.327 . S
C392 C380 1.349 . S
C392 H386 0.950 . S
C392 C393 1.327 . S
C393 H387 0.950 . S
C393 C392 1.327 . S
C393 C397 1.429 . S
C394 C377 1.574 . S
C394 H388 0.949 . S
C394 C398 1.368 . S
C395 C376 1.429 . S
C395 C389 1.429 . S
C395 C396 1.523 . S
C396 C377 1.368 . S
C396 C390 1.368 . S
C396 C395 1.523 . S
C397 C381 1.429 . S
C397 C393 1.429 . S
C397 C398 1.523 . S
C398 C382 1.368 . S
C398 C394 1.368 . S
C398 C397 1.523 . S
H399 C374 0.950 . S
H400 C376 0.950 . S
H401 C377 0.949 . S
H402 C379 0.950 . S
H403 C381 0.950 . S
C404 C405 1.349 . S
C404 C406 1.327 . S
C404 H429 0.950 . S
C405 C404 1.349 . S
C405 C421 1.349 . S
C406 C404 1.327 . S
C406 C425 1.429 . S
C406 H430 0.950 . S
C407 C424 1.574 . S
C407 C426 1.368 . S
C407 H431 0.949 . S
H408 C412 0.949 . S
C409 C410 1.349 . S
C409 C411 1.327 . S
C409 H432 0.950 . S
C410 C409 1.349 . S
C410 C422 1.349 . S
C411 C409 1.327 . S
C411 C427 1.429 . S
C411 H433 0.950 . S
C412 H408 0.949 . S
C412 C420 1.574 . S
C412 C428 1.368 . S
H413 C421 0.950 . S
H414 C419 0.950 . S
H415 C420 0.949 . S
H416 C422 0.950 . S
H417 C423 0.950 . S
H418 C424 0.949 . S
C419 H414 0.950 . S
C419 C421 1.327 . S
C419 C425 1.429 . S
C420 C412 1.574 . S
C420 H415 0.949 . S
C420 C426 1.368 . S
C421 C405 1.349 . S
C421 H413 0.950 . S
C421 C419 1.327 . S
C422 C410 1.349 . S
C422 H416 0.950 . S
C422 C423 1.327 . S
C423 H417 0.950 . S
C423 C422 1.327 . S
C423 C427 1.429 . S
C424 C407 1.574 . S
C424 H418 0.949 . S
C424 C428 1.368 . S
C425 C406 1.429 . S
C425 C419 1.429 . S
C425 C426 1.523 . S
C426 C407 1.368 . S
C426 C420 1.368 . S
C426 C425 1.523 . S
C427 C411 1.429 . S
C427 C423 1.429 . S
C427 C428 1.523 . S
C428 C412 1.368 . S
C428 C424 1.368 . S
C428 C427 1.523 . S
H429 C404 0.950 . S
H430 C406 0.950 . S
H431 C407 0.949 . S
H432 C409 0.950 . S
H433 C411 0.950 . S
C434 C435 1.349 . S
C434 C436 1.327 . S
C434 H459 0.950 . S
C435 C434 1.349 . S
C435 C451 1.349 . S
C436 C434 1.327 . S
C436 C455 1.429 . S
C436 H460 0.950 . S
C437 C454 1.574 . S
C437 C456 1.368 . S
C437 H461 0.949 . S
H438 C442 0.949 . S
C439 C440 1.349 . S
C439 C441 1.327 . S
C439 H462 0.950 . S
C440 C439 1.349 . S
C440 C452 1.349 . S
C441 C439 1.327 . S
C441 C457 1.429 . S
C441 H463 0.950 . S
C442 H438 0.949 . S
C442 C450 1.574 . S
C442 C458 1.368 . S
H443 C451 0.950 . S
H444 C449 0.950 . S
H445 C450 0.949 . S
H446 C452 0.950 . S
H447 C453 0.950 . S
H448 C454 0.949 . S
C449 H444 0.950 . S
C449 C451 1.327 . S
C449 C455 1.429 . S
C450 C442 1.574 . S
C450 H445 0.949 . S
C450 C456 1.368 . S
C451 C435 1.349 . S
C451 H443 0.950 . S
C451 C449 1.327 . S
C452 C440 1.349 . S
C452 H446 0.950 . S
C452 C453 1.327 . S
C453 H447 0.950 . S
C453 C452 1.327 . S
C453 C457 1.429 . S
C454 C437 1.574 . S
C454 H448 0.949 . S
C454 C458 1.368 . S
C455 C436 1.429 . S
C455 C449 1.429 . S
C455 C456 1.523 . S
C456 C437 1.368 . S
C456 C450 1.368 . S
C456 C455 1.523 . S
C457 C441 1.429 . S
C457 C453 1.429 . S
C457 C458 1.523 . S
C458 C442 1.368 . S
C458 C454 1.368 . S
C458 C457 1.523 . S
H459 C434 0.950 . S
H460 C436 0.950 . S
H461 C437 0.949 . S
H462 C439 0.950 . S
H463 C441 0.950 . S
C464 C465 1.349 . S
C464 C466 1.327 . S
C464 H489 0.950 . S
C465 C464 1.349 . S
C465 C481 1.349 . S
C466 C464 1.327 . S
C466 C485 1.429 . S
C466 H490 0.950 . S
C467 C484 1.574 1_565 S
C467 C486 1.368 . S
C467 H491 0.949 . S
H468 C472 0.949 . S
C469 C470 1.349 . S
C469 C471 1.327 . S
C469 H492 0.950 . S
C470 C469 1.349 . S
C470 C482 1.349 . S
C471 C469 1.327 . S
C471 C487 1.429 . S
C471 H493 0.950 . S
C472 H468 0.949 . S
C472 C480 1.574 1_545 S
C472 C488 1.368 . S
H473 C481 0.950 . S
H474 C479 0.950 . S
H475 C480 0.949 . S
H476 C482 0.950 . S
H477 C483 0.950 . S
H478 C484 0.949 . S
C479 H474 0.950 . S
C479 C481 1.327 . S
C479 C485 1.429 . S
C480 C472 1.574 1_565 S
C480 H475 0.949 . S
C480 C486 1.368 . S
C481 C465 1.349 . S
C481 H473 0.950 . S
C481 C479 1.327 . S
C482 C470 1.349 . S
C482 H476 0.950 . S
C482 C483 1.327 . S
C483 H477 0.950 . S
C483 C482 1.327 . S
C483 C487 1.429 . S
C484 C467 1.574 1_545 S
C484 H478 0.949 . S
C484 C488 1.368 . S
C485 C466 1.429 . S
C485 C479 1.429 . S
C485 C486 1.523 . S
C486 C467 1.368 . S
C486 C480 1.368 . S
C486 C485 1.523 . S
C487 C471 1.429 . S
C487 C483 1.429 . S
C487 C488 1.523 . S
C488 C472 1.368 . S
C488 C484 1.368 . S
C488 C487 1.523 . S
H489 C464 0.950 . S
H490 C466 0.950 . S
H491 C467 0.949 . S
H492 C469 0.950 . S
H493 C471 0.950 . S
C494 C495 1.349 . S
C494 C496 1.327 . S
C494 H519 0.950 . S
C495 C494 1.349 . S
C495 C511 1.349 . S
C496 C494 1.327 . S
C496 C515 1.429 . S
C496 H520 0.950 . S
C497 C514 1.574 . S
C497 C516 1.368 . S
C497 H521 0.949 . S
H498 C502 0.949 . S
C499 C500 1.349 . S
C499 C501 1.327 . S
C499 H522 0.950 . S
C500 C499 1.349 . S
C500 C512 1.349 . S
C501 C499 1.327 . S
C501 C517 1.429 . S
C501 H523 0.950 . S
C502 H498 0.949 . S
C502 C510 1.574 . S
C502 C518 1.368 . S
H503 C511 0.950 . S
H504 C509 0.950 . S
H505 C510 0.949 . S
H506 C512 0.950 . S
H507 C513 0.950 . S
H508 C514 0.949 . S
C509 H504 0.950 . S
C509 C511 1.327 . S
C509 C515 1.429 . S
C510 C502 1.574 . S
C510 H505 0.949 . S
C510 C516 1.368 . S
C511 C495 1.349 . S
C511 H503 0.950 . S
C511 C509 1.327 . S
C512 C500 1.349 . S
C512 H506 0.950 . S
C512 C513 1.327 . S
C513 H507 0.950 . S
C513 C512 1.327 . S
C513 C517 1.429 . S
C514 C497 1.574 . S
C514 H508 0.949 . S
C514 C518 1.368 . S
C515 C496 1.429 . S
C515 C509 1.429 . S
C515 C516 1.523 . S
C516 C497 1.368 . S
C516 C510 1.368 . S
C516 C515 1.523 . S
C517 C501 1.429 . S
C517 C513 1.429 . S
C517 C518 1.523 . S
C518 C502 1.368 . S
C518 C514 1.368 . S
C518 C517 1.523 . S
H519 C494 0.950 . S
H520 C496 0.950 . S
H521 C497 0.949 . S
H522 C499 0.950 . S
H523 C501 0.950 . S
C524 C525 1.349 . S
C524 C526 1.327 . S
C524 H549 0.950 . S
C525 C524 1.349 . S
C525 C541 1.349 . S
C526 C524 1.327 . S
C526 C545 1.429 . S
C526 H550 0.950 . S
C527 C544 1.574 . S
C527 C546 1.368 . S
C527 H551 0.949 . S
H528 C532 0.949 . S
C529 C530 1.349 . S
C529 C531 1.327 . S
C529 H552 0.950 . S
C530 C529 1.349 . S
C530 C542 1.349 . S
C531 C529 1.327 . S
C531 C547 1.429 . S
C531 H553 0.950 . S
C532 H528 0.949 . S
C532 C540 1.574 . S
C532 C548 1.379 . S
H533 C541 0.950 . S
H534 C539 0.950 . S
H535 C540 0.949 . S
H536 C542 0.950 . S
H537 C543 0.950 . S
H538 C544 0.949 1_554 S
C539 H534 0.950 . S
C539 C541 1.327 . S
C539 C545 1.429 . S
C540 C532 1.574 . S
C540 H535 0.949 . S
C540 C546 1.368 . S
C541 C525 1.349 . S
C541 H533 0.950 . S
C541 C539 1.327 . S
C542 C530 1.349 . S
C542 H536 0.950 . S
C542 C543 1.327 . S
C543 H537 0.950 . S
C543 C542 1.327 . S
C543 C547 1.429 . S
C544 C527 1.574 . S
C544 H538 0.949 1_556 S
C544 C548 1.375 . S
C545 C526 1.429 . S
C545 C539 1.429 . S
C545 C546 1.523 . S
C546 C527 1.368 . S
C546 C540 1.368 . S
C546 C545 1.523 . S
C547 C531 1.429 . S
C547 C543 1.429 . S
C547 C548 1.501 1_554 S
C548 C532 1.379 . S
C548 C544 1.375 . S
C548 C547 1.501 1_556 S
H549 C524 0.950 . S
H550 C526 0.950 . S
H551 C527 0.949 . S
H552 C529 0.950 . S
H553 C531 0.950 . S
C554 C555 1.349 . S
C554 C556 1.327 . S
C554 H579 0.950 . S
C555 C554 1.349 . S
C555 C571 1.349 . S
C556 C554 1.327 . S
C556 C575 1.429 . S
C556 H580 0.950 . S
C557 C574 1.574 . S
C557 C576 1.368 . S
C557 H581 0.949 . S
H558 C562 0.949 . S
C559 C560 1.349 . S
C559 C561 1.327 . S
C559 H582 0.950 . S
C560 C559 1.349 . S
C560 C572 1.349 . S
C561 C559 1.327 . S
C561 C577 1.429 . S
C561 H583 0.950 . S
C562 H558 0.949 . S
C562 C570 1.574 . S
C562 C578 1.368 . S
H563 C571 0.950 . S
H564 C569 0.950 . S
H565 C570 0.949 1_554 S
H566 C572 0.950 . S
H567 C573 0.950 . S
H568 C574 0.949 . S
C569 H564 0.950 . S
C569 C571 1.327 . S
C569 C575 1.429 . S
C570 C562 1.574 . S
C570 H565 0.949 1_556 S
C570 C576 1.368 . S
C571 C555 1.349 . S
C571 H563 0.950 . S
C571 C569 1.327 . S
C572 C560 1.349 . S
C572 H566 0.950 . S
C572 C573 1.327 . S
C573 H567 0.950 . S
C573 C572 1.327 . S
C573 C577 1.429 . S
C574 C557 1.574 . S
C574 H568 0.949 . S
C574 C578 1.368 . S
C575 C556 1.429 . S
C575 C569 1.429 . S
C575 C576 1.523 1_554 S
C576 C557 1.368 . S
C576 C570 1.368 . S
C576 C575 1.523 1_556 S
C577 C561 1.429 . S
C577 C573 1.429 . S
C577 C578 1.523 . S
C578 C562 1.368 . S
C578 C574 1.368 . S
C578 C577 1.523 . S
H579 C554 0.950 . S
H580 C556 0.950 . S
H581 C557 0.949 . S
H582 C559 0.950 . S
H583 C561 0.950 . S
C584 C585 1.349 . S
C584 C586 1.327 . S
C584 H609 0.950 . S
C585 C584 1.349 . S
C585 C601 1.349 . S
C586 C584 1.327 . S
C586 C605 1.429 . S
C586 H610 0.950 . S
C587 C604 1.574 . S
C587 C606 1.368 . S
C587 H611 0.949 . S
H588 C592 0.949 . S
C589 C590 1.349 . S
C589 C591 1.327 . S
C589 H612 0.950 . S
C590 C589 1.349 . S
C590 C602 1.349 . S
C591 C589 1.327 . S
C591 C607 1.429 . S
C591 H613 0.950 . S
C592 H588 0.949 . S
C592 C600 1.574 . S
C592 C608 1.368 . S
H593 C601 0.950 . S
H594 C599 0.950 . S
H595 C600 0.949 . S
H596 C602 0.950 . S
H597 C603 0.950 . S
H598 C604 0.949 . S
C599 H594 0.950 . S
C599 C601 1.327 . S
C599 C605 1.429 . S
C600 C592 1.574 . S
C600 H595 0.949 . S
C600 C606 1.368 . S
C601 C585 1.349 . S
C601 H593 0.950 . S
C601 C599 1.327 . S
C602 C590 1.349 . S
C602 H596 0.950 . S
C602 C603 1.327 . S
C603 H597 0.950 . S
C603 C602 1.327 . S
C603 C607 1.429 . S
C604 C587 1.574 . S
C604 H598 0.949 . S
C604 C608 1.368 . S
C605 C586 1.429 . S
C605 C599 1.429 . S
C605 C606 1.523 . S
C606 C587 1.368 . S
C606 C600 1.368 . S
C606 C605 1.523 . S
C607 C591 1.429 . S
C607 C603 1.429 . S
C607 C608 1.523 . S
C608 C592 1.368 . S
C608 C604 1.368 . S
C608 C607 1.523 . S
H609 C584 0.950 . S
H610 C586 0.950 . S
H611 C587 0.949 . S
H612 C589 0.950 . S
H613 C591 0.950 . S
C614 C615 1.349 . S
C614 C616 1.327 . S
C614 H639 0.950 . S
C615 C614 1.349 . S
C615 C631 1.349 . S
C616 C614 1.327 . S
C616 C635 1.429 . S
C616 H640 0.950 . S
C617 C634 1.574 . S
C617 C636 1.368 . S
C617 H641 0.949 . S
H618 C622 0.949 . S
C619 C620 1.349 . S
C619 C621 1.327 . S
C619 H642 0.950 . S
C620 C619 1.349 . S
C620 C632 1.349 . S
C621 C619 1.327 . S
C621 C637 1.429 . S
C621 H643 0.950 . S
C622 H618 0.949 . S
C622 C630 1.574 . S
C622 C638 1.368 . S
H623 C631 0.950 . S
H624 C629 0.950 . S
H625 C630 0.949 . S
H626 C632 0.950 . S
H627 C633 0.950 . S
H628 C634 0.949 . S
C629 H624 0.950 . S
C629 C631 1.327 . S
C629 C635 1.429 . S
C630 C622 1.574 . S
C630 H625 0.949 . S
C630 C636 1.368 . S
C631 C615 1.349 . S
C631 H623 0.950 . S
C631 C629 1.327 . S
C632 C620 1.349 . S
C632 H626 0.950 . S
C632 C633 1.327 . S
C633 H627 0.950 . S
C633 C632 1.327 . S
C633 C637 1.429 . S
C634 C617 1.574 . S
C634 H628 0.949 . S
C634 C638 1.368 . S
C635 C616 1.429 . S
C635 C629 1.429 . S
C635 C636 1.523 . S
C636 C617 1.368 . S
C636 C630 1.368 . S
C636 C635 1.523 . S
C637 C621 1.429 . S
C637 C633 1.429 . S
C637 C638 1.523 . S
C638 C622 1.368 . S
C638 C634 1.368 . S
C638 C637 1.523 . S
H639 C614 0.950 . S
H640 C616 0.950 . S
H641 C617 0.949 . S
H642 C619 0.950 . S
H643 C621 0.950 . S
C644 C645 1.349 . S
C644 C646 1.327 . S
C644 H669 0.950 . S
C645 C644 1.349 . S
C645 C661 1.349 . S
C646 C644 1.327 . S
C646 C665 1.429 . S
C646 H670 0.950 . S
C647 C664 1.580 . S
C647 C666 1.368 . S
C647 H671 0.949 . S
H648 C652 0.949 . S
C649 C650 1.349 . S
C649 C651 1.327 . S
C649 H672 0.950 . S
C650 C649 1.349 . S
C650 C662 1.349 . S
C651 C649 1.327 . S
C651 C667 1.429 . S
C651 H673 0.950 . S
C652 H648 0.949 . S
C652 C660 1.574 1_455 S
C652 C668 1.368 . S
H653 C661 0.950 . S
H654 C659 0.950 . S
H655 C660 0.949 . S
H656 C662 0.950 . S
H657 C663 0.950 . S
H658 C664 0.947 1_455 S
C659 H654 0.950 . S
C659 C661 1.327 . S
C659 C665 1.429 . S
C660 C652 1.574 1_655 S
C660 H655 0.949 . S
C660 C666 1.368 . S
C661 C645 1.349 . S
C661 H653 0.950 . S
C661 C659 1.327 . S
C662 C650 1.349 . S
C662 H656 0.950 . S
C662 C663 1.327 . S
C663 H657 0.950 . S
C663 C662 1.327 . S
C663 C667 1.429 . S
C664 C647 1.580 . S
C664 H658 0.947 1_655 S
C664 C668 1.364 1_655 S
C665 C646 1.429 . S
C665 C659 1.429 . S
C665 C666 1.523 . S
C666 C647 1.368 . S
C666 C660 1.368 . S
C666 C665 1.523 . S
C667 C651 1.429 . S
C667 C663 1.429 . S
C667 C668 1.523 . S
C668 C652 1.368 . S
C668 C664 1.364 1_455 S
C668 C667 1.523 . S
H669 C644 0.950 . S
H670 C646 0.950 . S
H671 C647 0.949 . S
H672 C649 0.950 . S
H673 C651 0.950 . S
C674 C675 1.349 . S
C674 C676 1.327 . S
C674 H699 0.950 . S
C675 C674 1.349 . S
C675 C691 1.349 . S
C676 C674 1.327 . S
C676 C695 1.429 . S
C676 H700 0.950 . S
C677 C694 1.574 1_655 S
C677 C696 1.368 . S
C677 H701 0.949 . S
H678 C682 0.949 . S
C679 C680 1.349 . S
C679 C681 1.327 . S
C679 H702 0.950 . S
C680 C679 1.349 . S
C680 C692 1.349 . S
C681 C679 1.327 . S
C681 C697 1.429 . S
C681 H703 0.950 . S
C682 H678 0.949 . S
C682 C690 1.574 . S
C682 C698 1.368 . S
H683 C691 0.950 . S
H684 C689 0.950 . S
H685 C690 0.949 . S
H686 C692 0.950 . S
H687 C693 0.950 . S
H688 C694 0.949 . S
C689 H684 0.950 . S
C689 C691 1.327 . S
C689 C695 1.429 . S
C690 C682 1.574 . S
C690 H685 0.949 . S
C690 C696 1.368 1_455 S
C691 C675 1.349 . S
C691 H683 0.950 . S
C691 C689 1.327 . S
C692 C680 1.349 . S
C692 H686 0.950 . S
C692 C693 1.327 . S
C693 H687 0.950 . S
C693 C692 1.327 . S
C693 C697 1.429 . S
C694 C677 1.574 1_455 S
C694 H688 0.949 . S
C694 C698 1.368 . S
C695 C676 1.429 . S
C695 C689 1.429 . S
C695 C696 1.523 . S
C696 C677 1.368 . S
C696 C690 1.368 1_655 S
C696 C695 1.523 . S
C697 C681 1.429 . S
C697 C693 1.429 . S
C697 C698 1.523 . S
C698 C682 1.368 . S
C698 C694 1.368 . S
C698 C697 1.523 . S
H699 C674 0.950 . S
H700 C676 0.950 . S
H701 C677 0.949 . S
H702 C679 0.950 . S
H703 C681 0.950 . S
C704 C705 1.349 . S
C704 C706 1.327 . S
C704 H729 0.950 . S
C705 C704 1.349 . S
C705 C721 1.349 . S
C706 C704 1.327 . S
C706 C725 1.429 . S
C706 H730 0.950 . S
C707 C724 1.574 . S
C707 C726 1.368 . S
C707 H731 0.949 . S
H708 C712 0.949 . S
C709 C710 1.349 . S
C709 C711 1.327 . S
C709 H732 0.950 . S
C710 C709 1.349 . S
C710 C722 1.349 . S
C711 C709 1.327 . S
C711 C727 1.429 . S
C711 H733 0.950 . S
C712 H708 0.949 . S
C712 C720 1.574 . S
C712 C728 1.368 . S
H713 C721 0.950 . S
H714 C719 0.950 . S
H715 C720 0.949 . S
H716 C722 0.950 . S
H717 C723 0.950 . S
H718 C724 0.949 . S
C719 H714 0.950 . S
C719 C721 1.327 . S
C719 C725 1.429 . S
C720 C712 1.574 . S
C720 H715 0.949 . S
C720 C726 1.368 . S
C721 C705 1.349 . S
C721 H713 0.950 . S
C721 C719 1.327 . S
C722 C710 1.349 . S
C722 H716 0.950 . S
C722 C723 1.327 . S
C723 H717 0.950 . S
C723 C722 1.327 . S
C723 C727 1.429 . S
C724 C707 1.574 . S
C724 H718 0.949 . S
C724 C728 1.368 . S
C725 C706 1.429 . S
C725 C719 1.429 . S
C725 C726 1.523 . S
C726 C707 1.368 . S
C726 C720 1.368 . S
C726 C725 1.523 . S
C727 C711 1.429 . S
C727 C723 1.429 . S
C727 C728 1.523 . S
C728 C712 1.368 . S
C728 C724 1.368 . S
C728 C727 1.523 . S
H729 C704 0.950 . S
H730 C706 0.950 . S
H731 C707 0.949 . S
H732 C709 0.950 . S
H733 C711 0.950 . S
C734 C735 1.349 . S
C734 C736 1.327 . S
C734 H759 0.950 . S
C735 C734 1.349 . S
C735 C751 1.349 . S
C736 C734 1.327 . S
C736 C755 1.429 . S
C736 H760 0.950 . S
C737 C754 1.574 . S
C737 C756 1.368 . S
C737 H761 0.949 . S
H738 C742 0.949 . S
C739 C740 1.349 . S
C739 C741 1.327 . S
C739 H762 0.950 . S
C740 C739 1.349 . S
C740 C752 1.349 . S
C741 C739 1.327 . S
C741 C757 1.429 . S
C741 H763 0.950 . S
C742 H738 0.949 . S
C742 C750 1.574 1_565 S
C742 C758 1.368 . S
H743 C751 0.950 . S
H744 C749 0.950 . S
H745 C750 0.949 . S
H746 C752 0.950 . S
H747 C753 0.950 . S
H748 C754 0.949 . S
C749 H744 0.950 . S
C749 C751 1.327 . S
C749 C755 1.429 . S
C750 C742 1.574 1_545 S
C750 H745 0.949 . S
C750 C756 1.368 . S
C751 C735 1.349 . S
C751 H743 0.950 . S
C751 C749 1.327 . S
C752 C740 1.349 . S
C752 H746 0.950 . S
C752 C753 1.327 . S
C753 H747 0.950 . S
C753 C752 1.327 . S
C753 C757 1.429 . S
C754 C737 1.574 . S
C754 H748 0.949 . S
C754 C758 1.368 1_545 S
C755 C736 1.429 . S
C755 C749 1.429 . S
C755 C756 1.523 . S
C756 C737 1.368 . S
C756 C750 1.368 . S
C756 C755 1.523 . S
C757 C741 1.429 . S
C757 C753 1.429 . S
C757 C758 1.523 . S
C758 C742 1.368 . S
C758 C754 1.368 1_565 S
C758 C757 1.523 . S
H759 C734 0.950 . S
H760 C736 0.950 . S
H761 C737 0.949 . S
H762 C739 0.950 . S
H763 C741 0.950 . S
C764 C765 1.349 . S
C764 C766 1.327 . S
C764 H789 0.950 . S
C765 C764 1.349 . S
C765 C781 1.349 . S
C766 C764 1.327 . S
C766 C785 1.429 . S
C766 H790 0.950 . S
C767 C784 1.574 . S
C767 C786 1.368 . S
C767 H791 0.949 . S
H768 C772 0.949 . S
C769 C770 1.349 . S
C769 C771 1.327 . S
C769 H792 0.950 . S
C770 C769 1.349 . S
C770 C782 1.349 . S
C771 C769 1.327 . S
C771 C787 1.429 . S
C771 H793 0.950 . S
C772 H768 0.949 . S
C772 C780 1.574 . S
C772 C788 1.368 . S
H773 C781 0.950 . S
H774 C779 0.950 . S
H775 C780 0.949 . S
H776 C782 0.950 . S
H777 C783 0.950 . S
H778 C784 0.949 . S
C779 H774 0.950 . S
C779 C781 1.327 . S
C779 C785 1.429 . S
C780 C772 1.574 . S
C780 H775 0.949 . S
C780 C786 1.368 . S
C781 C765 1.349 . S
C781 H773 0.950 . S
C781 C779 1.327 . S
C782 C770 1.349 . S
C782 H776 0.950 . S
C782 C783 1.327 . S
C783 H777 0.950 . S
C783 C782 1.327 . S
C783 C787 1.429 . S
C784 C767 1.574 . S
C784 H778 0.949 . S
C784 C788 1.368 . S
C785 C766 1.429 . S
C785 C779 1.429 . S
C785 C786 1.523 . S
C786 C767 1.368 . S
C786 C780 1.368 . S
C786 C785 1.523 . S
C787 C771 1.429 . S
C787 C783 1.429 . S
C787 C788 1.523 . S
C788 C772 1.368 . S
C788 C784 1.368 . S
C788 C787 1.523 . S
H789 C764 0.950 . S
H790 C766 0.950 . S
H791 C767 0.949 . S
H792 C769 0.950 . S
H793 C771 0.950 . S
C794 C795 1.349 . S
C794 C796 1.327 . S
C794 H819 0.950 . S
C795 C794 1.349 . S
C795 C811 1.349 . S
C796 C794 1.327 . S
C796 C815 1.429 . S
C796 H820 0.950 . S
C797 C814 1.574 . S
C797 C816 1.368 . S
C797 H821 0.949 . S
H798 C802 0.949 1_556 S
C799 C800 1.349 . S
C799 C801 1.327 . S
C799 H822 0.950 . S
C800 C799 1.349 . S
C800 C812 1.349 . S
C801 C799 1.327 . S
C801 C817 1.429 . S
C801 H823 0.950 . S
C802 H798 0.949 1_554 S
C802 C810 1.574 . S
C802 C818 1.368 . S
H803 C811 0.950 . S
H804 C809 0.950 . S
H805 C810 0.949 . S
H806 C812 0.950 . S
H807 C813 0.950 . S
H808 C814 0.949 . S
C809 H804 0.950 . S
C809 C811 1.327 . S
C809 C815 1.429 . S
C810 C802 1.574 . S
C810 H805 0.949 . S
C810 C816 1.368 . S
C811 C795 1.349 . S
C811 H803 0.950 . S
C811 C809 1.327 . S
C812 C800 1.349 . S
C812 H806 0.950 . S
C812 C813 1.327 . S
C813 H807 0.950 . S
C813 C812 1.327 . S
C813 C817 1.429 . S
C814 C797 1.574 . S
C814 H808 0.949 . S
C814 C818 1.368 . S
C815 C796 1.429 . S
C815 C809 1.429 . S
C815 C816 1.523 . S
C816 C797 1.368 . S
C816 C810 1.368 . S
C816 C815 1.523 . S
C817 C801 1.429 . S
C817 C813 1.429 . S
C817 C818 1.523 1_556 S
C818 C802 1.368 . S
C818 C814 1.368 . S
C818 C817 1.523 1_554 S
H819 C794 0.950 . S
H820 C796 0.950 . S
H821 C797 0.949 . S
H822 C799 0.950 . S
H823 C801 0.950 . S
C824 C825 1.349 . S
C824 C826 1.327 . S
C824 H849 0.950 . S
C825 C824 1.349 . S
C825 C841 1.349 . S
C826 C824 1.327 . S
C826 C845 1.429 . S
C826 H850 0.950 . S
C827 C844 1.574 . S
C827 C846 1.368 1_554 S
C827 H851 0.949 . S
H828 C832 0.949 . S
C829 C830 1.349 . S
C829 C831 1.327 . S
C829 H852 0.950 . S
C830 C829 1.349 . S
C830 C842 1.349 . S
C831 C829 1.327 . S
C831 C847 1.429 . S
C831 H853 0.950 . S
C832 H828 0.949 . S
C832 C840 1.574 1_554 S
C832 C848 1.368 . S
H833 C841 0.950 . S
H834 C839 0.950 . S
H835 C840 0.949 . S
H836 C842 0.950 . S
H837 C843 0.950 . S
H838 C844 0.949 . S
C839 H834 0.950 . S
C839 C841 1.327 . S
C839 C845 1.429 . S
C840 C832 1.574 1_556 S
C840 H835 0.949 . S
C840 C846 1.368 . S
C841 C825 1.349 . S
C841 H833 0.950 . S
C841 C839 1.327 . S
C842 C830 1.349 . S
C842 H836 0.950 . S
C842 C843 1.327 . S
C843 H837 0.950 . S
C843 C842 1.327 . S
C843 C847 1.429 . S
C844 C827 1.574 . S
C844 H838 0.949 . S
C844 C848 1.368 . S
C845 C826 1.429 . S
C845 C839 1.429 . S
C845 C846 1.523 . S
C846 C827 1.368 1_556 S
C846 C840 1.368 . S
C846 C845 1.523 . S
C847 C831 1.429 . S
C847 C843 1.429 . S
C847 C848 1.523 . S
C848 C832 1.368 . S
C848 C844 1.368 . S
C848 C847 1.523 . S
H849 C824 0.950 . S
H850 C826 0.950 . S
H851 C827 0.949 . S
H852 C829 0.950 . S
H853 C831 0.950 . S
C854 C855 1.349 . S
C854 C856 1.327 . S
C854 H879 0.950 . S
C855 C854 1.349 . S
C855 C871 1.349 . S
C856 C854 1.327 . S
C856 C875 1.429 . S
C856 H880 0.950 . S
C857 C874 1.574 . S
C857 C876 1.368 . S
C857 H881 0.949 . S
H858 C862 0.949 . S
C859 C860 1.349 . S
C859 C861 1.327 . S
C859 H882 0.950 . S
C860 C859 1.349 . S
C860 C872 1.349 . S
C861 C859 1.327 . S
C861 C877 1.429 . S
C861 H883 0.950 . S
C862 H858 0.949 . S
C862 C870 1.574 . S
C862 C878 1.368 . S
H863 C871 0.950 . S
H864 C869 0.950 . S
H865 C870 0.949 . S
H866 C872 0.950 . S
H867 C873 0.950 . S
H868 C874 0.949 . S
C869 H864 0.950 . S
C869 C871 1.327 . S
C869 C875 1.429 . S
C870 C862 1.574 . S
C870 H865 0.949 . S
C870 C876 1.368 . S
C871 C855 1.349 . S
C871 H863 0.950 . S
C871 C869 1.327 . S
C872 C860 1.349 . S
C872 H866 0.950 . S
C872 C873 1.327 . S
C873 H867 0.950 . S
C873 C872 1.327 . S
C873 C877 1.429 . S
C874 C857 1.574 . S
C874 H868 0.949 . S
C874 C878 1.368 . S
C875 C856 1.429 . S
C875 C869 1.429 . S
C875 C876 1.523 . S
C876 C857 1.368 . S
C876 C870 1.368 . S
C876 C875 1.523 . S
C877 C861 1.429 . S
C877 C873 1.429 . S
C877 C878 1.523 . S
C878 C862 1.368 . S
C878 C874 1.368 . S
C878 C877 1.523 . S
H879 C854 0.950 . S
H880 C856 0.950 . S
H881 C857 0.949 . S
H882 C859 0.950 . S
H883 C861 0.950 . S
C884 C885 1.349 . S
C884 C886 1.327 . S
C884 H909 0.950 . S
C885 C884 1.349 . S
C885 C901 1.349 . S
C886 C884 1.327 . S
C886 C905 1.429 . S
C886 H910 0.950 . S
C887 C904 1.574 . S
C887 C906 1.368 . S
C887 H911 0.949 . S
H888 C892 0.949 . S
C889 C890 1.349 . S
C889 C891 1.327 . S
C889 H912 0.950 . S
C890 C889 1.349 . S
C890 C902 1.349 . S
C891 C889 1.327 . S
C891 C907 1.429 . S
C891 H913 0.950 . S
C892 H888 0.949 . S
C892 C900 1.574 . S
C892 C908 1.368 . S
H893 C901 0.950 . S
H894 C899 0.950 . S
H895 C900 0.949 . S
H896 C902 0.950 . S
H897 C903 0.950 . S
H898 C904 0.949 . S
C899 H894 0.950 . S
C899 C901 1.327 . S
C899 C905 1.429 . S
C900 C892 1.574 . S
C900 H895 0.949 . S
C900 C906 1.368 . S
C901 C885 1.349 . S
C901 H893 0.950 . S
C901 C899 1.327 . S
C902 C890 1.349 . S
C902 H896 0.950 . S
C902 C903 1.327 . S
C903 H897 0.950 . S
C903 C902 1.327 . S
C903 C907 1.429 . S
C904 C887 1.574 . S
C904 H898 0.949 . S
C904 C908 1.368 . S
C905 C886 1.429 . S
C905 C899 1.429 . S
C905 C906 1.523 . S
C906 C887 1.368 . S
C906 C900 1.368 . S
C906 C905 1.523 . S
C907 C891 1.429 . S
C907 C903 1.429 . S
C907 C908 1.523 . S
C908 C892 1.368 . S
C908 C904 1.368 . S
C908 C907 1.523 . S
H909 C884 0.950 . S
H910 C886 0.950 . S
H911 C887 0.949 . S
H912 C889 0.950 . S
H913 C891 0.950 . S
C914 C915 1.349 . S
C914 C916 1.327 . S
C914 H939 0.950 . S
C915 C914 1.349 . S
C915 C931 1.349 . S
C916 C914 1.327 . S
C916 C935 1.429 . S
C916 H940 0.950 . S
C917 C934 1.553 1_455 S
C917 C936 1.368 . S
C917 H941 0.949 . S
H918 C922 0.949 . S
C919 C920 1.349 . S
C919 C921 1.327 . S
C919 H942 0.950 . S
C920 C919 1.349 . S
C920 C932 1.349 . S
C921 C919 1.327 . S
C921 C937 1.429 . S
C921 H943 0.950 . S
C922 H918 0.949 . S
C922 C930 1.574 . S
C922 C938 1.368 . S
H923 C931 0.950 . S
H924 C929 0.950 . S
H925 C930 0.949 . S
H926 C932 0.950 . S
H927 C933 0.950 . S
H928 C934 0.954 1_455 S
C929 H924 0.950 . S
C929 C931 1.327 . S
C929 C935 1.429 . S
C930 C922 1.574 . S
C930 H925 0.949 . S
C930 C936 1.368 1_655 S
C931 C915 1.349 . S
C931 H923 0.950 . S
C931 C929 1.327 . S
C932 C920 1.349 . S
C932 H926 0.950 . S
C932 C933 1.327 . S
C933 H927 0.950 . S
C933 C932 1.327 . S
C933 C937 1.429 . S
C934 C917 1.553 1_655 S
C934 H928 0.954 1_655 S
C934 C938 1.386 . S
C935 C916 1.429 . S
C935 C929 1.429 . S
C935 C936 1.523 . S
C936 C917 1.368 . S
C936 C930 1.368 1_455 S
C936 C935 1.523 . S
C937 C921 1.429 . S
C937 C933 1.429 . S
C937 C938 1.523 . S
C938 C922 1.368 . S
C938 C934 1.386 . S
C938 C937 1.523 . S
H939 C914 0.950 . S
H940 C916 0.950 . S
H941 C917 0.949 . S
H942 C919 0.950 . S
H943 C921 0.950 . S
C944 C945 1.349 . S
C944 C946 1.327 . S
C944 H969 0.950 . S
C945 C944 1.349 . S
C945 C961 1.349 . S
C946 C944 1.327 . S
C946 C965 1.429 . S
C946 H970 0.950 . S
C947 C964 1.574 1_455 S
C947 C966 1.368 . S
C947 H971 0.949 . S
H948 C952 0.949 . S
C949 C950 1.349 . S
C949 C951 1.327 . S
C949 H972 0.950 . S
C950 C949 1.349 . S
C950 C962 1.349 . S
C951 C949 1.327 . S
C951 C967 1.429 . S
C951 H973 0.950 . S
C952 H948 0.949 . S
C952 C960 1.574 1_655 S
C952 C968 1.368 . S
H953 C961 0.950 . S
H954 C959 0.950 . S
H955 C960 0.949 . S
H956 C962 0.950 . S
H957 C963 0.950 . S
H958 C964 0.949 . S
C959 H954 0.950 . S
C959 C961 1.327 . S
C959 C965 1.429 . S
C960 C952 1.574 1_455 S
C960 H955 0.949 . S
C960 C966 1.368 . S
C961 C945 1.349 . S
C961 H953 0.950 . S
C961 C959 1.327 . S
C962 C950 1.349 . S
C962 H956 0.950 . S
C962 C963 1.327 . S
C963 H957 0.950 . S
C963 C962 1.327 . S
C963 C967 1.429 . S
C964 C947 1.574 1_655 S
C964 H958 0.949 . S
C964 C968 1.368 . S
C965 C946 1.429 . S
C965 C959 1.429 . S
C965 C966 1.523 . S
C966 C947 1.368 . S
C966 C960 1.368 . S
C966 C965 1.523 . S
C967 C951 1.429 . S
C967 C963 1.429 . S
C967 C968 1.523 . S
C968 C952 1.368 . S
C968 C964 1.368 . S
C968 C967 1.523 . S
H969 C944 0.950 . S
H970 C946 0.950 . S
H971 C947 0.949 . S
H972 C949 0.950 . S
H973 C951 0.950 . S
C974 C975 1.349 . S
C974 C976 1.327 . S
C974 H999 0.950 . S
C975 C974 1.349 . S
C975 C991 1.349 . S
C976 C974 1.327 . S
C976 C995 1.429 . S
C976 H1000 0.950 . S
C977 C994 1.574 . S
C977 C996 1.368 . S
C977 H1001 0.949 . S
H978 C982 0.949 . S
C979 C980 1.349 . S
C979 C981 1.327 . S
C979 H1002 0.950 . S
C980 C979 1.349 . S
C980 C992 1.349 . S
C981 C979 1.327 . S
C981 C997 1.429 . S
C981 H1003 0.950 . S
C982 H978 0.949 . S
C982 C990 1.574 . S
C982 C998 1.368 . S
H983 C991 0.950 . S
H984 C989 0.950 . S
H985 C990 0.949 . S
H986 C992 0.950 . S
H987 C993 0.950 . S
H988 C994 0.949 . S
C989 H984 0.950 . S
C989 C991 1.327 . S
C989 C995 1.429 . S
C990 C982 1.574 . S
C990 H985 0.949 . S
C990 C996 1.368 . S
C991 C975 1.349 . S
C991 H983 0.950 . S
C991 C989 1.327 . S
C992 C980 1.349 . S
C992 H986 0.950 . S
C992 C993 1.327 . S
C993 H987 0.950 . S
C993 C992 1.327 . S
C993 C997 1.429 . S
C994 C977 1.574 . S
C994 H988 0.949 . S
C994 C998 1.368 . S
C995 C976 1.429 . S
C995 C989 1.429 . S
C995 C996 1.523 . S
C996 C977 1.368 . S
C996 C990 1.368 . S
C996 C995 1.523 . S
C997 C981 1.429 . S
C997 C993 1.429 . S
C997 C998 1.523 . S
C998 C982 1.368 . S
C998 C994 1.368 . S
C998 C997 1.523 . S
H999 C974 0.950 . S
H1000 C976 0.950 . S
H1001 C977 0.949 . S
H1002 C979 0.950 . S
H1003 C981 0.950 . S
C1004 C1005 1.349 . S
C1004 C1006 1.327 . S
C1004 H1029 0.950 . S
C1005 C1004 1.349 . S
C1005 C1021 1.349 . S
C1006 C1004 1.327 . S
C1006 C1025 1.429 . S
C1006 H1030 0.950 . S
C1007 C1024 1.574 . S
C1007 C1026 1.368 . S
C1007 H1031 0.949 . S
H1008 C1012 0.949 . S
C1009 C1010 1.349 . S
C1009 C1011 1.327 . S
C1009 H1032 0.950 . S
C1010 C1009 1.349 . S
C1010 C1022 1.349 . S
C1011 C1009 1.327 . S
C1011 C1027 1.429 . S
C1011 H1033 0.950 . S
C1012 H1008 0.949 . S
C1012 C1020 1.574 . S
C1012 C1028 1.368 . S
H1013 C1021 0.950 . S
H1014 C1019 0.950 . S
H1015 C1020 0.949 . S
H1016 C1022 0.950 . S
H1017 C1023 0.950 . S
H1018 C1024 0.949 . S
C1019 H1014 0.950 . S
C1019 C1021 1.327 . S
C1019 C1025 1.429 . S
C1020 C1012 1.574 . S
C1020 H1015 0.949 . S
C1020 C1026 1.368 . S
C1021 C1005 1.349 . S
C1021 H1013 0.950 . S
C1021 C1019 1.327 . S
C1022 C1010 1.349 . S
C1022 H1016 0.950 . S
C1022 C1023 1.327 . S
C1023 H1017 0.950 . S
C1023 C1022 1.327 . S
C1023 C1027 1.429 . S
C1024 C1007 1.574 . S
C1024 H1018 0.949 . S
C1024 C1028 1.368 . S
C1025 C1006 1.429 . S
C1025 C1019 1.429 . S
C1025 C1026 1.523 . S
C1026 C1007 1.368 . S
C1026 C1020 1.368 . S
C1026 C1025 1.523 . S
C1027 C1011 1.429 . S
C1027 C1023 1.429 . S
C1027 C1028 1.523 . S
C1028 C1012 1.368 . S
C1028 C1024 1.368 . S
C1028 C1027 1.523 . S
H1029 C1004 0.950 . S
H1030 C1006 0.950 . S
H1031 C1007 0.949 . S
H1032 C1009 0.950 . S
H1033 C1011 0.950 . S
C1034 C1035 1.349 . S
C1034 C1036 1.327 . S
C1034 H1059 0.950 . S
C1035 C1034 1.349 . S
C1035 C1051 1.349 . S
C1036 C1034 1.327 . S
C1036 C1055 1.429 . S
C1036 H1060 0.950 . S
C1037 C1054 1.574 1_545 S
C1037 C1056 1.368 . S
C1037 H1061 0.949 . S
H1038 C1042 0.949 . S
C1039 C1040 1.349 . S
C1039 C1041 1.327 . S
C1039 H1062 0.950 . S
C1040 C1039 1.349 . S
C1040 C1052 1.349 . S
C1041 C1039 1.327 . S
C1041 C1057 1.429 . S
C1041 H1063 0.950 . S
C1042 H1038 0.949 . S
C1042 C1050 1.574 . S
C1042 C1058 1.368 . S
H1043 C1051 0.950 . S
H1044 C1049 0.950 . S
H1045 C1050 0.949 . S
H1046 C1052 0.950 . S
H1047 C1053 0.950 . S
H1048 C1054 0.949 . S
C1049 H1044 0.950 . S
C1049 C1051 1.327 . S
C1049 C1055 1.429 . S
C1050 C1042 1.574 . S
C1050 H1045 0.949 . S
C1050 C1056 1.368 1_565 S
C1051 C1035 1.349 . S
C1051 H1043 0.950 . S
C1051 C1049 1.327 . S
C1052 C1040 1.349 . S
C1052 H1046 0.950 . S
C1052 C1053 1.327 . S
C1053 H1047 0.950 . S
C1053 C1052 1.327 . S
C1053 C1057 1.429 . S
C1054 C1037 1.574 1_565 S
C1054 H1048 0.949 . S
C1054 C1058 1.368 . S
C1055 C1036 1.429 . S
C1055 C1049 1.429 . S
C1055 C1056 1.523 . S
C1056 C1037 1.368 . S
C1056 C1050 1.368 1_545 S
C1056 C1055 1.523 . S
C1057 C1041 1.429 . S
C1057 C1053 1.429 . S
C1057 C1058 1.523 . S
C1058 C1042 1.368 . S
C1058 C1054 1.368 . S
C1058 C1057 1.523 . S
H1059 C1034 0.950 . S
H1060 C1036 0.950 . S
H1061 C1037 0.949 . S
H1062 C1039 0.950 . S
H1063 C1041 0.950 . S
C1064 C1065 1.349 . S
C1064 C1066 1.327 . S
C1064 H1089 0.950 . S
C1065 C1064 1.349 . S
C1065 C1081 1.349 . S
C1066 C1064 1.327 . S
C1066 C1085 1.429 . S
C1066 H1090 0.950 . S
C1067 C1084 1.574 . S
C1067 C1086 1.368 . S
C1067 H1091 0.949 . S
H1068 C1072 0.949 . S
C1069 C1070 1.349 . S
C1069 C1071 1.327 . S
C1069 H1092 0.950 . S
C1070 C1069 1.349 . S
C1070 C1082 1.349 . S
C1071 C1069 1.327 . S
C1071 C1087 1.429 . S
C1071 H1093 0.950 . S
C1072 H1068 0.949 . S
C1072 C1080 1.574 . S
C1072 C1088 1.368 . S
H1073 C1081 0.950 . S
H1074 C1079 0.950 . S
H1075 C1080 0.949 . S
H1076 C1082 0.950 . S
H1077 C1083 0.950 . S
H1078 C1084 0.949 . S
C1079 H1074 0.950 . S
C1079 C1081 1.327 . S
C1079 C1085 1.429 . S
C1080 C1072 1.574 . S
C1080 H1075 0.949 . S
C1080 C1086 1.368 . S
C1081 C1065 1.349 . S
C1081 H1073 0.950 . S
C1081 C1079 1.327 . S
C1082 C1070 1.349 . S
C1082 H1076 0.950 . S
C1082 C1083 1.327 . S
C1083 H1077 0.950 . S
C1083 C1082 1.327 . S
C1083 C1087 1.429 . S
C1084 C1067 1.574 . S
C1084 H1078 0.949 . S
C1084 C1088 1.368 . S
C1085 C1066 1.429 . S
C1085 C1079 1.429 . S
C1085 C1086 1.523 . S
C1086 C1067 1.368 . S
C1086 C1080 1.368 . S
C1086 C1085 1.523 . S
C1087 C1071 1.429 . S
C1087 C1083 1.429 . S
C1087 C1088 1.523 . S
C1088 C1072 1.368 . S
C1088 C1084 1.368 . S
C1088 C1087 1.523 . S
H1089 C1064 0.950 . S
H1090 C1066 0.950 . S
H1091 C1067 0.949 . S
H1092 C1069 0.950 . S
H1093 C1071 0.950 . S
C1094 C1095 1.349 . S
C1094 C1096 1.327 . S
C1094 H1119 0.950 . S
C1095 C1094 1.349 . S
C1095 C1111 1.349 . S
C1096 C1094 1.327 . S
C1096 C1115 1.429 . S
C1096 H1120 0.950 . S
C1097 C1114 1.574 . S
C1097 C1116 1.368 . S
C1097 H1121 0.949 . S
H1098 C1102 0.949 . S
C1099 C1100 1.349 . S
C1099 C1101 1.327 . S
C1099 H1122 0.950 . S
C1100 C1099 1.349 . S
C1100 C1112 1.349 . S
C1101 C1099 1.327 . S
C1101 C1117 1.429 . S
C1101 H1123 0.950 . S
C1102 H1098 0.949 . S
C1102 C1110 1.574 . S
C1102 C1118 1.368 . S
H1103 C1111 0.950 . S
H1104 C1109 0.950 . S
H1105 C1110 0.949 . S
H1106 C1112 0.950 . S
H1107 C1113 0.950 . S
H1108 C1114 0.949 . S
C1109 H1104 0.950 . S
C1109 C1111 1.327 . S
C1109 C1115 1.429 . S
C1110 C1102 1.574 . S
C1110 H1105 0.949 . S
C1110 C1116 1.368 . S
C1111 C1095 1.349 . S
C1111 H1103 0.950 . S
C1111 C1109 1.327 . S
C1112 C1100 1.349 . S
C1112 H1106 0.950 . S
C1112 C1113 1.327 . S
C1113 H1107 0.950 . S
C1113 C1112 1.327 . S
C1113 C1117 1.429 . S
C1114 C1097 1.574 . S
C1114 H1108 0.949 . S
C1114 C1118 1.368 . S
C1115 C1096 1.429 . S
C1115 C1109 1.429 . S
C1115 C1116 1.523 . S
C1116 C1097 1.368 . S
C1116 C1110 1.368 . S
C1116 C1115 1.523 . S
C1117 C1101 1.429 . S
C1117 C1113 1.429 . S
C1117 C1118 1.523 . S
C1118 C1102 1.368 . S
C1118 C1114 1.368 . S
C1118 C1117 1.523 . S
H1119 C1094 0.950 . S
H1120 C1096 0.950 . S
H1121 C1097 0.949 . S
H1122 C1099 0.950 . S
H1123 C1101 0.950 . S
C1124 C1125 1.349 . S
C1124 C1126 1.327 . S
C1124 H1149 0.950 . S
C1125 C1124 1.349 . S
C1125 C1141 1.349 . S
C1126 C1124 1.327 . S
C1126 C1145 1.429 . S
C1126 H1150 0.950 . S
C1127 C1144 1.574 . S
C1127 C1146 1.368 1_565 S
C1127 H1151 0.949 . S
H1128 C1132 0.949 . S
C1129 C1130 1.349 . S
C1129 C1131 1.327 . S
C1129 H1152 0.950 . S
C1130 C1129 1.349 . S
C1130 C1142 1.349 . S
C1131 C1129 1.327 . S
C1131 C1147 1.429 . S
C1131 H1153 0.950 . S
C1132 H1128 0.949 . S
C1132 C1140 1.574 1_565 S
C1132 C1148 1.368 . S
H1133 C1141 0.950 . S
H1134 C1139 0.950 . S
H1135 C1140 0.949 . S
H1136 C1142 0.950 . S
H1137 C1143 0.950 . S
H1138 C1144 0.949 . S
C1139 H1134 0.950 . S
C1139 C1141 1.327 . S
C1139 C1145 1.429 . S
C1140 C1132 1.574 1_545 S
C1140 H1135 0.949 . S
C1140 C1146 1.368 . S
C1141 C1125 1.349 . S
C1141 H1133 0.950 . S
C1141 C1139 1.327 . S
C1142 C1130 1.349 . S
C1142 H1136 0.950 . S
C1142 C1143 1.327 . S
C1143 H1137 0.950 . S
C1143 C1142 1.327 . S
C1143 C1147 1.429 . S
C1144 C1127 1.574 . S
C1144 H1138 0.949 . S
C1144 C1148 1.368 . S
C1145 C1126 1.429 . S
C1145 C1139 1.429 . S
C1145 C1146 1.523 . S
C1146 C1127 1.368 1_545 S
C1146 C1140 1.368 . S
C1146 C1145 1.523 . S
C1147 C1131 1.429 . S
C1147 C1143 1.429 . S
C1147 C1148 1.523 . S
C1148 C1132 1.368 . S
C1148 C1144 1.368 . S
C1148 C1147 1.523 . S
H1149 C1124 0.950 . S
H1150 C1126 0.950 . S
H1151 C1127 0.949 . S
H1152 C1129 0.950 . S
H1153 C1131 0.950 . S
C1154 C1155 1.349 . S
C1154 C1156 1.327 . S
C1154 H1179 0.950 . S
C1155 C1154 1.349 . S
C1155 C1171 1.349 . S
C1156 C1154 1.327 . S
C1156 C1175 1.429 . S
C1156 H1180 0.950 . S
C1157 C1174 1.574 . S
C1157 C1176 1.368 . S
C1157 H1181 0.949 . S
H1158 C1162 0.949 . S
C1159 C1160 1.349 . S
C1159 C1161 1.327 . S
C1159 H1182 0.950 . S
C1160 C1159 1.349 . S
C1160 C1172 1.349 . S
C1161 C1159 1.327 . S
C1161 C1177 1.429 . S
C1161 H1183 0.950 . S
C1162 H1158 0.949 . S
C1162 C1170 1.574 . S
C1162 C1178 1.368 . S
H1163 C1171 0.950 . S
H1164 C1169 0.950 . S
H1165 C1170 0.949 . S
H1166 C1172 0.950 . S
H1167 C1173 0.950 . S
H1168 C1174 0.949 . S
C1169 H1164 0.950 . S
C1169 C1171 1.327 . S
C1169 C1175 1.429 . S
C1170 C1162 1.574 . S
C1170 H1165 0.949 . S
C1170 C1176 1.368 . S
C1171 C1155 1.349 . S
C1171 H1163 0.950 . S
C1171 C1169 1.327 . S
C1172 C1160 1.349 . S
C1172 H1166 0.950 . S
C1172 C1173 1.327 . S
C1173 H1167 0.950 . S
C1173 C1172 1.327 . S
C1173 C1177 1.429 . S
C1174 C1157 1.574 . S
C1174 H1168 0.949 . S
C1174 C1178 1.368 . S
C1175 C1156 1.429 . S
C1175 C1169 1.429 . S
C1175 C1176 1.523 . S
C1176 C1157 1.368 . S
C1176 C1170 1.368 . S
C1176 C1175 1.523 . S
C1177 C1161 1.429 . S
C1177 C1173 1.429 . S
C1177 C1178 1.523 . S
C1178 C1162 1.368 . S
C1178 C1174 1.368 . S
C1178 C1177 1.523 . S
H1179 C1154 0.950 . S
H1180 C1156 0.950 . S
H1181 C1157 0.949 . S
H1182 C1159 0.950 . S
H1183 C1161 0.950 . S
C225 C7 1.273 . S
C230 C189 1.287 . S
C255 C21 1.377 . S
C260 C133 1.376 . S
C285 C203 0.294 . S
C290 C35 0.500 . S
C315 C49 0.524 . S
C320 C217 0.543 . S
C345 C63 1.377 . S
C350 C91 1.376 . S
C375 C147 1.273 . S
C380 C77 1.287 . S
C405 C161 0.500 . S
C410 C105 0.294 . S
C435 C119 0.543 . S
C440 C175 0.524 . S
C465 C36 1.557 . S
C470 C8 1.576 . S
C495 C22 1.600 . S
C500 C45 1.596 . S
C525 C177 1.472 . S
C530 C3 1.478 . S
C555 C17 1.562 . S
C560 C157 1.556 . S
C585 C59 1.562 . S
C590 C31 1.556 . S
C615 C143 1.478 . S
C620 C51 1.472 . S
C645 C23 2.092 . S
C650 C9 2.087 . S
C675 C50 1.533 . S
C680 C37 1.532 . S
C705 C149 2.087 . S
C710 C65 2.092 . S
C735 C101 1.909 . S
C740 C79 1.890 . S
C765 C93 1.507 . S
C770 C115 1.532 . S
C795 C218 1.931 . S
C800 C73 1.938 . S
C825 C87 1.356 . S
C830 C204 1.348 . S
C855 C129 1.356 . S
C860 C106 1.348 . S
C885 C120 1.931 . S
C890 C185 1.938 . S
C915 C92 1.551 . S
C920 C78 1.547 . S
C945 C121 1.675 . S
C950 C107 1.675 . S
C975 C134 1.551 . S
C980 C190 1.547 . S
C1005 C148 1.576 . S
C1010 C162 1.557 . S
C1035 C171 1.596 . S
C1040 C64 1.600 . S
C1065 C176 1.533 . S
C1070 C163 1.532 . S
C1095 C199 1.909 . S
C1100 C191 1.890 . S
C1125 C135 1.507 . S
C1130 C213 1.532 . S
C1155 C219 1.675 . S
C1160 C205 1.675 . S
