# Generated by pormake.
# Topology qtz-e, (6)-cn, num edge types: 1
# Building blocks:
#     Node 0, Type 0, BuildingBlock: PAMTOO_clean_sbu_0, # of connection points: 6
#     Node 1, Type 0, BuildingBlock: PAMTOO_clean_sbu_0, # of connection points: 6
#     Node 2, Type 0, BuildingBlock: PAMTOO_clean_sbu_0, # of connection points: 6
#     Node 3, Type 0, BuildingBlock: PAMTOO_clean_sbu_0, # of connection points: 6
#     Node 4, Type 0, BuildingBlock: PAMTOO_clean_sbu_0, # of connection points: 6
#     Node 5, Type 0, BuildingBlock: PAMTOO_clean_sbu_0, # of connection points: 6
#     Edge 6, Type (0, 0), BuildingBlock: TEMPAE_clean_linker_10, # of connection points: 2
#     Edge 7, Type (0, 0), BuildingBlock: TEMPAE_clean_linker_10, # of connection points: 2
#     Edge 8, Type (0, 0), BuildingBlock: TEMPAE_clean_linker_10, # of connection points: 2
#     Edge 9, Type (0, 0), BuildingBlock: TEMPAE_clean_linker_10, # of connection points: 2
#     Edge 10, Type (0, 0), BuildingBlock: TEMPAE_clean_linker_10, # of connection points: 2
#     Edge 11, Type (0, 0), BuildingBlock: TEMPAE_clean_linker_10, # of connection points: 2
#     Edge 12, Type (0, 0), BuildingBlock: TEMPAE_clean_linker_10, # of connection points: 2
#     Edge 13, Type (0, 0), BuildingBlock: TEMPAE_clean_linker_10, # of connection points: 2
#     Edge 14, Type (0, 0), BuildingBlock: TEMPAE_clean_linker_10, # of connection points: 2
#     Edge 15, Type (0, 0), BuildingBlock: TEMPAE_clean_linker_10, # of connection points: 2
#     Edge 16, Type (0, 0), BuildingBlock: TEMPAE_clean_linker_10, # of connection points: 2
#     Edge 17, Type (0, 0), BuildingBlock: TEMPAE_clean_linker_10, # of connection points: 2
#     Edge 18, Type (0, 0), BuildingBlock: TEMPAE_clean_linker_10, # of connection points: 2
#     Edge 19, Type (0, 0), BuildingBlock: TEMPAE_clean_linker_10, # of connection points: 2
#     Edge 20, Type (0, 0), BuildingBlock: TEMPAE_clean_linker_10, # of connection points: 2
#     Edge 21, Type (0, 0), BuildingBlock: TEMPAE_clean_linker_10, # of connection points: 2
#     Edge 22, Type (0, 0), BuildingBlock: TEMPAE_clean_linker_10, # of connection points: 2
#     Edge 23, Type (0, 0), BuildingBlock: TEMPAE_clean_linker_10, # of connection points: 2
# Relax obj value: 0.194
# Max RMSD: 0.211
# Mean RMSD: 0.211
data_MOF--net-qtz-e--node1-PAMTOO_clean_sbu_0--edge1-TEMPAE_clean_linker_10
_symmetry_space_group_name_H-M    P1
_symmetry_Int_Tables_number       1
_symmetry_cell_setting            triclinic
loop_
_symmetry_equiv_pos_as_xyz
'x, y, z'
_cell_length_a     27.131412
_cell_length_b     27.166863
_cell_length_c     51.809187
_cell_angle_alpha  89.910724
_cell_angle_beta   90.138824
_cell_angle_gamma 119.81757
loop_
_atom_site_label
_atom_site_type_symbol
_atom_site_fract_x
_atom_site_fract_y
_atom_site_fract_z
_atom_type_partial_charge
Dy0 Dy 0.13843 0.35704 0.14227 0.0
Dy1 Dy 0.1978 0.48721 0.16641 0.0
C2 C 0.26114 0.41939 0.16819 0.0
O3 O 0.11745 0.34281 0.18441 0.0
O4 O 0.12908 0.4309 0.19362 0.0
O5 O 0.13211 0.2749 0.13734 0.0
O6 O 0.07703 0.29637 0.11562 0.0
O7 O 0.14063 0.48038 0.13416 0.0
O8 O 0.07532 0.38781 0.14142 0.0
O9 O 0.24876 0.4985 0.13098 0.0
O10 O 0.18567 0.41608 0.1099 0.0
O11 O 0.18592 0.55653 0.17845 0.0
O12 O 0.26829 0.56246 0.18282 0.0
C13 C 0.11153 0.37785 0.19995 0.0
O14 O 0.23111 0.38863 0.14851 0.0
O15 O 0.23987 0.44247 0.18342 0.0
C16 C 0.11279 0.24549 0.09324 0.0
C17 C 0.14278 0.22317 0.04407 0.0
C18 C 0.18401 0.24857 0.06358 0.0
C19 C 0.16929 0.26006 0.08786 0.0
C20 C 0.07149 0.2191 0.0739 0.0
C21 C 0.08633 0.20832 0.04956 0.0
C22 C 0.09697 0.26169 0.11788 0.0
C23 C 0.08868 0.43801 0.13224 0.0
C24 C 0.23215 0.4661 0.11032 0.0
C25 C 0.23764 0.60176 0.21592 0.0
C26 C 0.23299 0.63035 0.2678 0.0
C27 C 0.20551 0.64393 0.2484 0.0
C28 C 0.20809 0.63003 0.22269 0.0
C29 C 0.26526 0.5882 0.23534 0.0
C30 C 0.26319 0.60269 0.26104 0.0
C31 C 0.23634 0.58417 0.18887 0.0
H32 H 0.22792 0.26091 0.05983 0.0
H33 H 0.20234 0.28131 0.10221 0.0
H34 H 0.02778 0.20785 0.07748 0.0
H35 H 0.05357 0.18828 0.03498 0.0
H36 H 0.18256 0.66591 0.25307 0.0
H37 H 0.18641 0.64085 0.20808 0.0
H38 H 0.28797 0.56593 0.23078 0.0
H39 H 0.28453 0.59156 0.27568 0.0
Dy40 Dy 0.89361 0.24521 0.43169 0.0
Dy41 Dy 0.8094 0.28584 0.4022 0.0
C42 C 0.76994 0.15916 0.41081 0.0
O43 O 0.91371 0.24779 0.38954 0.0
O44 O 0.87976 0.30551 0.37464 0.0
O45 O 0.91948 0.18255 0.43784 0.0
O46 O 0.95777 0.26016 0.46023 0.0
O47 O 0.86381 0.35159 0.43075 0.0
O48 O 0.94155 0.33991 0.42886 0.0
O49 O 0.76885 0.25581 0.44068 0.0
O50 O 0.8419 0.25402 0.46303 0.0
O51 O 0.79797 0.35333 0.38716 0.0
O52 O 0.72915 0.26631 0.38464 0.0
C53 C 0.90931 0.27956 0.37144 0.0
O54 O 0.80545 0.17239 0.43014 0.0
O55 O 0.78057 0.19597 0.39232 0.0
C56 C 0.93551 0.17605 0.48224 0.0
C57 C 0.90809 0.1189 0.53028 0.0
C58 C 0.86608 0.1218 0.51544 0.0
C59 C 0.87968 0.15011 0.4917 0.0
C60 C 0.97751 0.173 0.49679 0.0
C61 C 0.96395 0.14464 0.52059 0.0
C62 C 0.95021 0.20902 0.45803 0.0
C63 C 0.91812 0.37079 0.43447 0.0
C64 C 0.79218 0.25156 0.46223 0.0
C65 C 0.73591 0.33013 0.35191 0.0
C66 C 0.72087 0.36377 0.30243 0.0
C67 C 0.76425 0.35068 0.307 0.0
C68 C 0.77169 0.33403 0.33158 0.0
C69 C 0.69141 0.34108 0.34725 0.0
C70 C 0.68386 0.35769 0.32271 0.0
C71 C 0.74704 0.31907 0.37839 0.0
H72 H 0.82288 0.10328 0.52243 0.0
H73 H 0.8467 0.15249 0.48088 0.0
H74 H 0.02089 0.19302 0.48989 0.0
H75 H 0.99721 0.14274 0.53138 0.0
H76 H 0.79381 0.35547 0.29188 0.0
H77 H 0.8064 0.32594 0.33495 0.0
H78 H 0.66338 0.3382 0.36277 0.0
H79 H 0.64958 0.36667 0.3197 0.0
Dy80 Dy 0.67454 0.78584 0.8051 0.0
Dy81 Dy 0.55199 0.69871 0.83286 0.0
C82 C 0.59093 0.83068 0.82523 0.0
O83 O 0.69258 0.76055 0.84423 0.0
O84 O 0.61219 0.74753 0.86423 0.0
O85 O 0.74523 0.8695 0.79739 0.0
O86 O 0.74508 0.79577 0.78176 0.0
O87 O 0.60127 0.65596 0.82271 0.0
O88 O 0.63715 0.7018 0.78542 0.0
O89 O 0.52967 0.69568 0.79114 0.0
O90 O 0.60819 0.77828 0.77711 0.0
O91 O 0.50426 0.61575 0.85022 0.0
O92 O 0.46762 0.67034 0.84749 0.0
C93 C 0.66354 0.75471 0.86553 0.0
O94 O 0.6431 0.8428 0.81961 0.0
O95 O 0.54942 0.7788 0.8294 0.0
C96 C 0.78269 0.87758 0.75555 0.0
C97 C 0.80895 0.92827 0.70603 0.0
C98 C 0.75458 0.90807 0.71673 0.0
C99 C 0.74158 0.88291 0.74122 0.0
C100 C 0.83682 0.8974 0.74497 0.0
C101 C 0.84987 0.92248 0.72045 0.0
C102 C 0.76915 0.85091 0.78133 0.0
C103 C 0.61478 0.65481 0.7987 0.0
C104 C 0.55575 0.73626 0.7739 0.0
C105 C 0.44775 0.61349 0.88509 0.0
C106 C 0.41833 0.59127 0.93758 0.0
C107 C 0.42692 0.55296 0.92277 0.0
C108 C 0.44122 0.56386 0.8967 0.0
C109 C 0.4402 0.65234 0.90006 0.0
C110 C 0.42547 0.64121 0.92605 0.0
C111 C 0.46339 0.62443 0.8576 0.0
H112 H 0.72181 0.91111 0.70606 0.0
H113 H 0.69938 0.8676 0.74898 0.0
H114 H 0.86909 0.89361 0.75571 0.0
H115 H 0.89229 0.93808 0.71292 0.0
H116 H 0.42105 0.51384 0.93115 0.0
H117 H 0.44692 0.53332 0.88557 0.0
H118 H 0.44541 0.69125 0.89174 0.0
H119 H 0.41946 0.67159 0.93714 0.0
Dy120 Dy 0.79121 0.66869 0.10049 0.0
Dy121 Dy 0.69297 0.54907 0.07454 0.0
C122 C 0.82136 0.57455 0.08038 0.0
O123 O 0.76796 0.68838 0.06126 0.0
O124 O 0.74603 0.60409 0.04258 0.0
O125 O 0.87899 0.7287 0.10935 0.0
O126 O 0.813 0.74712 0.12028 0.0
O127 O 0.66037 0.60738 0.08468 0.0
O128 O 0.70968 0.64175 0.12134 0.0
O129 O 0.68768 0.5293 0.11664 0.0
O130 O 0.77684 0.60053 0.12886 0.0
O131 O 0.6115 0.51127 0.05542 0.0
O132 O 0.65211 0.46129 0.0627 0.0
C133 C 0.7585 0.65705 0.04041 0.0
O134 O 0.83882 0.62889 0.08354 0.0
O135 O 0.76739 0.53605 0.07842 0.0
C136 C 0.89198 0.77686 0.14903 0.0
C137 C 0.94272 0.80515 0.19875 0.0
C138 C 0.97495 0.80874 0.17684 0.0
C139 C 0.94994 0.79499 0.15232 0.0
C140 C 0.8596 0.77331 0.17085 0.0
C141 C 0.88469 0.78736 0.19539 0.0
C142 C 0.86632 0.76129 0.12285 0.0
C143 C 0.66203 0.62271 0.10864 0.0
C144 C 0.73031 0.55161 0.13314 0.0
C145 C 0.60181 0.44637 0.02344 0.0
C146 C 0.58318 0.41633 0.97098 0.0
C147 C 0.54001 0.41627 0.98591 0.0
C148 C 0.54923 0.43098 0.01199 0.0
C149 C 0.64543 0.44759 0.0084 0.0
C150 C 0.636 0.43226 0.98241 0.0
C151 C 0.61148 0.46427 0.05058 0.0
H152 H 0.01947 0.82141 0.17865 0.0
H153 H 0.97594 0.79807 0.13588 0.0
H154 H 0.81482 0.7596 0.16904 0.0
H155 H 0.85867 0.78485 0.2117 0.0
H156 H 0.49879 0.40371 0.97753 0.0
H157 H 0.51536 0.43055 0.02322 0.0
H158 H 0.68681 0.46053 0.01667 0.0
H159 H 0.67002 0.43305 0.97118 0.0
Dy160 Dy 0.2469 0.89256 0.47608 0.0
Dy161 Dy 0.28627 0.80646 0.50379 0.0
C162 C 0.15986 0.76902 0.49651 0.0
O163 O 0.2505 0.91154 0.51839 0.0
O164 O 0.30812 0.87638 0.53191 0.0
O165 O 0.18436 0.91866 0.46985 0.0
O166 O 0.2631 0.95826 0.44828 0.0
O167 O 0.35173 0.86132 0.47526 0.0
O168 O 0.34168 0.93961 0.47902 0.0
O169 O 0.25198 0.76584 0.46551 0.0
O170 O 0.25669 0.8427 0.44419 0.0
O171 O 0.35452 0.7937 0.51692 0.0
O172 O 0.26705 0.72715 0.52195 0.0
C173 C 0.28269 0.90613 0.53598 0.0
O174 O 0.17301 0.80495 0.47739 0.0
O175 O 0.19721 0.77916 0.51472 0.0
C176 C 0.17973 0.9348 0.42532 0.0
C177 C 0.12631 0.90635 0.37632 0.0
C178 C 0.12715 0.86455 0.39211 0.0
C179 C 0.1537 0.87866 0.41628 0.0
C180 C 0.17864 0.9766 0.40985 0.0
C181 C 0.15209 0.96254 0.38559 0.0
C182 C 0.2115 0.94985 0.4499 0.0
C183 C 0.3719 0.91595 0.47253 0.0
C184 C 0.24996 0.79124 0.4442 0.0
C185 C 0.33446 0.73646 0.55359 0.0
C186 C 0.37003 0.72881 0.60393 0.0
C187 C 0.3287 0.74509 0.60002 0.0
C188 C 0.31126 0.74916 0.57503 0.0
C189 C 0.375 0.71961 0.55738 0.0
C190 C 0.39278 0.71598 0.58225 0.0
C191 C 0.32033 0.7444 0.5271 0.0
H192 H 0.10719 0.82078 0.38584 0.0
H193 H 0.1545 0.84575 0.4278 0.0
H194 H 0.19919 0.02028 0.41632 0.0
H195 H 0.153 0.99597 0.37384 0.0
H196 H 0.30991 0.75483 0.61623 0.0
H197 H 0.2803 0.7629 0.57244 0.0
H198 H 0.39394 0.71046 0.541 0.0
H199 H 0.42556 0.70458 0.58439 0.0
Dy200 Dy 0.35934 0.13307 0.76602 0.0
Dy201 Dy 0.4881 0.20322 0.74022 0.0
C202 C 0.409 0.25387 0.74 0.0
O203 O 0.34529 0.11029 0.72396 0.0
O204 O 0.43613 0.13007 0.71418 0.0
O205 O 0.2738 0.1179 0.77153 0.0
O206 O 0.30396 0.07023 0.7936 0.0
O207 O 0.48955 0.14824 0.77162 0.0
O208 O 0.39827 0.07695 0.76611 0.0
O209 O 0.49657 0.25236 0.77598 0.0
O210 O 0.41892 0.18314 0.79783 0.0
O211 O 0.56547 0.2049 0.72944 0.0
O212 O 0.55404 0.2765 0.72031 0.0
C213 C 0.38199 0.10737 0.70829 0.0
O214 O 0.3822 0.22358 0.76029 0.0
O215 O 0.43264 0.23434 0.72416 0.0
C216 C 0.24851 0.10037 0.81599 0.0
C217 C 0.22614 0.13002 0.86536 0.0
C218 C 0.25523 0.17187 0.8464 0.0
C219 C 0.26664 0.15728 0.8221 0.0
C220 C 0.21888 0.05846 0.83464 0.0
C221 C 0.20797 0.07305 0.85903 0.0
C222 C 0.26508 0.08487 0.79143 0.0
C223 C 0.45049 0.09494 0.77408 0.0
C224 C 0.4663 0.23238 0.79714 0.0
C225 C 0.60043 0.25023 0.68922 0.0
C226 C 0.63177 0.24828 0.63745 0.0
C227 C 0.6047 0.19799 0.65201 0.0
C228 C 0.58894 0.19888 0.67754 0.0
C229 C 0.62705 0.30043 0.67472 0.0
C230 C 0.64232 0.29947 0.64905 0.0
C231 C 0.58396 0.25171 0.71622 0.0
H232 H 0.26932 0.21606 0.85028 0.0
H233 H 0.29047 0.19069 0.80825 0.0
H234 H 0.20542 0.01445 0.83055 0.0
H235 H 0.18655 0.03963 0.87314 0.0
H236 H 0.59659 0.15794 0.64389 0.0
H237 H 0.56803 0.15926 0.68811 0.0
H238 H 0.63588 0.34042 0.68323 0.0
H239 H 0.66219 0.33886 0.63829 0.0
C240 C 0.242 0.78985 0.39616 0.0
C241 C 0.24103 0.76189 0.41912 0.0
C242 C 0.2365 0.76421 0.37209 0.0
C243 C 0.22969 0.70914 0.3709 0.0
C244 C 0.22652 0.67974 0.39398 0.0
C245 C 0.2322 0.70649 0.41787 0.0
C246 C 0.23973 0.79687 0.34791 0.0
C247 C 0.21791 0.62041 0.39343 0.0
C248 C 0.17969 0.63491 0.30624 0.0
C249 C 0.23128 0.64647 0.29494 0.0
C250 C 0.17809 0.65301 0.33143 0.0
C251 C 0.22942 0.6841 0.34539 0.0
C252 C 0.28143 0.69467 0.33426 0.0
C253 C 0.28166 0.6754 0.3092 0.0
C254 C 0.12176 0.64031 0.34279 0.0
C255 C 0.33711 0.72812 0.34847 0.0
H256 H 0.24807 0.83239 0.39687 0.0
H257 H 0.23039 0.68417 0.43551 0.0
H258 H 0.2776 0.80494 0.3365 0.0
H259 H 0.20184 0.77165 0.33561 0.0
H260 H 0.24248 0.83822 0.35222 0.0
H261 H 0.21803 0.60403 0.41308 0.0
H262 H 0.1768 0.5913 0.38398 0.0
H263 H 0.25184 0.61953 0.38188 0.0
H264 H 0.14061 0.61192 0.2953 0.0
H265 H 0.3216 0.6847 0.3004 0.0
H266 H 0.12038 0.68026 0.34477 0.0
H267 H 0.11655 0.62187 0.36239 0.0
H268 H 0.08532 0.61047 0.33061 0.0
H269 H 0.34552 0.77193 0.35199 0.0
H270 H 0.37344 0.73052 0.33757 0.0
H271 H 0.33486 0.70862 0.36758 0.0
C272 C 0.70271 0.29156 0.60167 0.0
C273 C 0.6505 0.24744 0.61056 0.0
C274 C 0.72221 0.29038 0.57678 0.0
C275 C 0.68922 0.24343 0.56051 0.0
C276 C 0.63626 0.19895 0.56918 0.0
C277 C 0.6173 0.20172 0.59403 0.0
C278 C 0.77864 0.33898 0.56806 0.0
C279 C 0.6002 0.14798 0.55241 0.0
C280 C 0.72379 0.26538 0.48909 0.0
C281 C 0.76221 0.24531 0.48678 0.0
C282 C 0.69852 0.26379 0.51289 0.0
C283 C 0.71121 0.24056 0.53469 0.0
C284 C 0.74795 0.21784 0.53215 0.0
C285 C 0.77349 0.22104 0.50826 0.0
C286 C 0.66017 0.28913 0.51495 0.0
C287 C 0.76147 0.19149 0.55481 0.0
H288 H 0.72915 0.32659 0.61437 0.0
H289 H 0.57646 0.16789 0.60053 0.0
H290 H 0.80898 0.32352 0.5646 0.0
H291 H 0.77342 0.35652 0.54956 0.0
H292 H 0.79755 0.37379 0.5825 0.0
H293 H 0.55945 0.11761 0.56182 0.0
H294 H 0.5907 0.16163 0.53377 0.0
H295 H 0.62391 0.12552 0.54794 0.0
H296 H 0.71507 0.28429 0.47252 0.0
H297 H 0.80259 0.20478 0.50645 0.0
H298 H 0.68002 0.32672 0.52783 0.0
H299 H 0.61893 0.25816 0.52369 0.0
H300 H 0.65195 0.30246 0.49589 0.0
H301 H 0.7856 0.22444 0.56956 0.0
H302 H 0.78703 0.17159 0.54909 0.0
H303 H 0.72166 0.15877 0.56402 0.0
C304 C 0.31216 0.54147 0.08454 0.0
C305 C 0.26676 0.48574 0.08661 0.0
C306 C 0.34332 0.56078 0.06157 0.0
C307 C 0.32873 0.52334 0.04033 0.0
C308 C 0.28476 0.46632 0.04274 0.0
C309 C 0.25425 0.44826 0.06583 0.0
C310 C 0.39006 0.62186 0.05967 0.0
C311 C 0.26826 0.42491 0.02058 0.0
C312 C 0.35173 0.5822 0.97257 0.0
C313 C 0.39845 0.57749 0.96454 0.0
C314 C 0.32961 0.566 0.99745 0.0
C315 C 0.35512 0.54489 0.01477 0.0
C316 C 0.40337 0.54151 0.00706 0.0
C317 C 0.42435 0.55761 0.98189 0.0
C318 C 0.27773 0.56968 0.00491 0.0
C319 C 0.43203 0.51992 0.02521 0.0
H320 H 0.32255 0.57048 0.10062 0.0
H321 H 0.21997 0.40475 0.06741 0.0
H322 H 0.42844 0.62487 0.05058 0.0
H323 H 0.37569 0.64564 0.04725 0.0
H324 H 0.40191 0.6428 0.07887 0.0
H325 H 0.23667 0.38089 0.02637 0.0
H326 H 0.24976 0.43812 0.00473 0.0
H327 H 0.30626 0.42489 0.01275 0.0
H328 H 0.33127 0.59691 0.95905 0.0
H329 H 0.46088 0.55452 0.97572 0.0
H330 H 0.28614 0.59493 0.02284 0.0
H331 H 0.24177 0.52655 0.00892 0.0
H332 H 0.26452 0.58931 0.98954 0.0
H333 H 0.47057 0.52219 0.01658 0.0
H334 H 0.40202 0.47519 0.0305 0.0
H335 H 0.4443 0.54495 0.04334 0.0
C336 C 0.72321 0.36416 0.25397 0.0
C337 C 0.71644 0.38696 0.27708 0.0
C338 C 0.72241 0.38809 0.23004 0.0
C339 C 0.71484 0.43602 0.22924 0.0
C340 C 0.7068 0.45847 0.25246 0.0
C341 C 0.70772 0.4337 0.27608 0.0
C342 C 0.73091 0.36288 0.20565 0.0
C343 C 0.69904 0.50982 0.25241 0.0
C344 C 0.77478 0.53662 0.17236 0.0
C345 C 0.72594 0.52147 0.15757 0.0
C346 C 0.77174 0.5087 0.19557 0.0
C347 C 0.7185 0.46472 0.20429 0.0
C348 C 0.66898 0.44918 0.18947 0.0
C349 C 0.67331 0.47765 0.1662 0.0
C350 C 0.82555 0.52652 0.21083 0.0
C351 C 0.61141 0.40281 0.19827 0.0
H352 H 0.72935 0.32769 0.25462 0.0
H353 H 0.70336 0.45211 0.29388 0.0
H354 H 0.69557 0.3524 0.19194 0.0
H355 H 0.77077 0.39438 0.19602 0.0
H356 H 0.73332 0.32388 0.20947 0.0
H357 H 0.6899 0.51995 0.27197 0.0
H358 H 0.73813 0.5472 0.24504 0.0
H359 H 0.66375 0.50283 0.2393 0.0
H360 H 0.81569 0.57017 0.16573 0.0
H361 H 0.63533 0.46599 0.15495 0.0
H362 H 0.83221 0.48974 0.21359 0.0
H363 H 0.8217 0.54131 0.23028 0.0
H364 H 0.86364 0.56108 0.20121 0.0
H365 H 0.61209 0.3626 0.20084 0.0
H366 H 0.57715 0.39546 0.18438 0.0
H367 H 0.60096 0.41401 0.21728 0.0
C368 C 0.46633 0.7018 0.74818 0.0
C369 C 0.52572 0.73429 0.74973 0.0
C370 C 0.43748 0.70031 0.7254 0.0
C371 C 0.4689 0.73122 0.70354 0.0
C372 C 0.52887 0.76396 0.70498 0.0
C373 C 0.5565 0.76543 0.72811 0.0
C374 C 0.37344 0.66574 0.72471 0.0
C375 C 0.56399 0.79684 0.68197 0.0
C376 C 0.4048 0.68494 0.63675 0.0
C377 C 0.39107 0.72692 0.63031 0.0
C378 C 0.42932 0.68536 0.66067 0.0
C379 C 0.4394 0.72817 0.67886 0.0
C380 C 0.42358 0.76935 0.67298 0.0
C381 C 0.40001 0.76851 0.6487 0.0
C382 C 0.44596 0.64091 0.66617 0.0
C383 C 0.43296 0.8152 0.69206 0.0
H384 H 0.44226 0.67803 0.7649 0.0
H385 H 0.60243 0.79037 0.72909 0.0
H386 H 0.35551 0.69306 0.71905 0.0
H387 H 0.35962 0.6318 0.70998 0.0
H388 H 0.35521 0.64581 0.74365 0.0
H389 H 0.61022 0.8205 0.68635 0.0
H390 H 0.55656 0.76738 0.66571 0.0
H391 H 0.5509 0.8275 0.67536 0.0
H392 H 0.39693 0.65189 0.62294 0.0
H393 H 0.39021 0.80153 0.64388 0.0
H394 H 0.42543 0.61773 0.68418 0.0
H395 H 0.49258 0.66168 0.66916 0.0
H396 H 0.43396 0.6097 0.65022 0.0
H397 H 0.41416 0.79616 0.71102 0.0
H398 H 0.41417 0.84119 0.68537 0.0
H399 H 0.47916 0.84368 0.69515 0.0
C400 C 0.58384 0.35484 0.93565 0.0
C401 C 0.57209 0.39698 0.9439 0.0
C402 C 0.56945 0.3324 0.91069 0.0
C403 C 0.54337 0.35323 0.89354 0.0
C404 C 0.53349 0.39745 0.90143 0.0
C405 C 0.54756 0.41853 0.92669 0.0
C406 C 0.57983 0.28465 0.90309 0.0
C407 C 0.50683 0.42142 0.88342 0.0
C408 C 0.53999 0.31348 0.82314 0.0
C409 C 0.48561 0.26569 0.82124 0.0
C410 C 0.55899 0.3436 0.84642 0.0
C411 C 0.5226 0.32549 0.86814 0.0
C412 C 0.46711 0.27834 0.86609 0.0
C413 C 0.44929 0.2491 0.84266 0.0
C414 C 0.61857 0.39354 0.84802 0.0
C415 C 0.42696 0.25779 0.88883 0.0
H416 H 0.60235 0.33789 0.94908 0.0
H417 H 0.53909 0.4516 0.93307 0.0
H418 H 0.53858 0.24549 0.89966 0.0
H419 H 0.60422 0.29506 0.88483 0.0
H420 H 0.60343 0.27562 0.91818 0.0
H421 H 0.50609 0.45863 0.89186 0.0
H422 H 0.53042 0.43435 0.86491 0.0
H423 H 0.46257 0.38834 0.8789 0.0
H424 H 0.56817 0.32675 0.80662 0.0
H425 H 0.40683 0.21277 0.84127 0.0
H426 H 0.64505 0.38234 0.86033 0.0
H427 H 0.61837 0.43038 0.85714 0.0
H428 H 0.63887 0.40647 0.82874 0.0
H429 H 0.44628 0.24674 0.90512 0.0
H430 H 0.38545 0.21997 0.88403 0.0
H431 H 0.41916 0.29203 0.89561 0.0
C432 C 0.34754 0.41875 0.152 0.0
C433 C 0.32358 0.44366 0.16749 0.0
C434 C 0.40571 0.44805 0.14603 0.0
C435 C 0.4404 0.50407 0.15529 0.0
C436 C 0.41724 0.52789 0.17233 0.0
C437 C 0.35927 0.49706 0.17853 0.0
C438 C 0.42915 0.42042 0.12843 0.0
C439 C 0.45246 0.58777 0.18229 0.0
C440 C 0.60059 0.57453 0.14665 0.0
C441 C 0.60774 0.60077 0.12254 0.0
C442 C 0.54644 0.54318 0.15777 0.0
C443 C 0.49877 0.53973 0.14483 0.0
C444 C 0.5064 0.56876 0.12111 0.0
C445 C 0.56069 0.59809 0.11004 0.0
C446 C 0.5399 0.51115 0.18254 0.0
C447 C 0.45694 0.56723 0.10691 0.0
H448 H 0.32031 0.37739 0.14352 0.0
H449 H 0.34125 0.51679 0.1905 0.0
H450 H 0.43705 0.44029 0.10904 0.0
H451 H 0.47032 0.42685 0.13589 0.0
H452 H 0.39937 0.37418 0.12625 0.0
H453 H 0.42998 0.59786 0.19747 0.0
H454 H 0.49338 0.59469 0.19028 0.0
H455 H 0.46251 0.61802 0.16607 0.0
H456 H 0.63678 0.57551 0.15609 0.0
H457 H 0.56622 0.61798 0.0913 0.0
H458 H 0.51533 0.46486 0.1787 0.0
H459 H 0.51572 0.5208 0.19695 0.0
H460 H 0.58153 0.52129 0.19106 0.0
H461 H 0.42809 0.5237 0.09969 0.0
H462 H 0.47105 0.59675 0.0902 0.0
H463 H 0.43198 0.57857 0.12011 0.0
C464 C 0.10771 0.66614 0.50848 0.0
C465 C 0.11355 0.71012 0.49225 0.0
C466 C 0.07354 0.60915 0.50122 0.0
C467 C 0.04486 0.59609 0.47719 0.0
C468 C 0.04779 0.64013 0.46152 0.0
C469 C 0.08167 0.69656 0.46935 0.0
C470 C 0.0706 0.56311 0.5186 0.0
C471 C 0.01783 0.62792 0.43573 0.0
C472 C 0.0105 0.45974 0.44242 0.0
C473 C 0.95189 0.42708 0.44651 0.0
C474 C 0.04165 0.5147 0.45271 0.0
C475 C 0.01349 0.53666 0.46783 0.0
C476 C 0.9547 0.50296 0.47276 0.0
C477 C 0.92453 0.44875 0.46186 0.0
C478 C 0.10424 0.54994 0.44671 0.0
C479 C 0.92338 0.52465 0.48902 0.0
H480 H 0.13208 0.67615 0.52622 0.0
H481 H 0.08565 0.73018 0.4567 0.0
H482 H 0.02577 0.52977 0.52172 0.0
H483 H 0.09249 0.54257 0.50924 0.0
H484 H 0.09084 0.57987 0.53767 0.0
H485 H 0.02155 0.66669 0.42664 0.0
H486 H 0.03635 0.60948 0.42242 0.0
H487 H 0.97214 0.59626 0.43797 0.0
H488 H 0.03164 0.44306 0.43051 0.0
H489 H 0.87927 0.42324 0.46538 0.0
H490 H 0.12911 0.56597 0.46482 0.0
H491 H 0.11209 0.58746 0.43506 0.0
H492 H 0.12033 0.5256 0.43584 0.0
H493 H 0.94505 0.54014 0.50789 0.0
H494 H 0.87856 0.49155 0.49258 0.0
H495 H 0.92364 0.5611 0.4792 0.0
C496 C 0.44418 0.0001 0.77564 0.0
C497 C 0.4671 0.05536 0.78519 0.0
C498 C 0.46498 0.96467 0.78411 0.0
C499 C 0.50839 0.98463 0.80311 0.0
C500 C 0.52964 0.03952 0.81367 0.0
C501 C 0.50932 0.07454 0.80429 0.0
C502 C 0.44217 0.90685 0.77197 0.0
C503 C 0.57479 0.06176 0.83442 0.0
C504 C 0.52922 0.87161 0.83637 0.0
C505 C 0.57582 0.87571 0.82286 0.0
C506 C 0.50823 0.90846 0.83092 0.0
C507 C 0.5335 0.94914 0.81099 0.0
C508 C 0.58168 0.95457 0.79786 0.0
C509 C 0.60272 0.91823 0.8042 0.0
C510 C 0.45786 0.90255 0.84586 0.0
C511 C 0.60922 0.99674 0.77617 0.0
H512 H 0.4119 0.98554 0.7607 0.0
H513 H 0.52672 0.11724 0.81181 0.0
H514 H 0.477 0.90449 0.7619 0.0
H515 H 0.42562 0.87351 0.78708 0.0
H516 H 0.40767 0.89724 0.75784 0.0
H517 H 0.5831 0.10332 0.84216 0.0
H518 H 0.5619 0.03098 0.85058 0.0
H519 H 0.61504 0.06692 0.8265 0.0
H520 H 0.50832 0.83868 0.85079 0.0
H521 H 0.63815 0.92087 0.7934 0.0
H522 H 0.42044 0.88679 0.8329 0.0
H523 H 0.4668 0.94447 0.85332 0.0
H524 H 0.44669 0.87271 0.86236 0.0
H525 H 0.57824 0.98651 0.76021 0.0
H526 H 0.64734 0.99672 0.7684 0.0
H527 H 0.62191 0.04018 0.78291 0.0
C528 C 0.58674 0.55274 0.79775 0.0
C529 C 0.58894 0.59963 0.78546 0.0
C530 C 0.55583 0.49833 0.78699 0.0
C531 C 0.52457 0.49047 0.7639 0.0
C532 C 0.52676 0.53788 0.75139 0.0
C533 C 0.55985 0.59217 0.7621 0.0
C534 C 0.55586 0.44915 0.80061 0.0
C535 C 0.49209 0.53098 0.72743 0.0
C536 C 0.48233 0.35299 0.72872 0.0
C537 C 0.43076 0.3158 0.74086 0.0
C538 C 0.5124 0.41074 0.73517 0.0
C539 C 0.48908 0.43227 0.75334 0.0
C540 C 0.43421 0.39615 0.76353 0.0
C541 C 0.40606 0.33808 0.75749 0.0
C542 C 0.57131 0.44735 0.72433 0.0
C543 C 0.40682 0.41797 0.78216 0.0
H544 H 0.60884 0.55865 0.81595 0.0
H545 H 0.56043 0.62836 0.75293 0.0
H546 H 0.51266 0.41919 0.80786 0.0
H547 H 0.56788 0.42545 0.78697 0.0
H548 H 0.58574 0.46337 0.8172 0.0
H549 H 0.49952 0.57231 0.71972 0.0
H550 H 0.50217 0.50888 0.71213 0.0
H551 H 0.44623 0.50422 0.73192 0.0
H552 H 0.50158 0.33637 0.71565 0.0
H553 H 0.36596 0.3097 0.76676 0.0
H554 H 0.60306 0.45803 0.73998 0.0
H555 H 0.57648 0.48786 0.7168 0.0
H556 H 0.58105 0.42575 0.70861 0.0
H557 H 0.42752 0.42491 0.80134 0.0
H558 H 0.36073 0.38757 0.78455 0.0
H559 H 0.41236 0.45927 0.77551 0.0
C560 C 0.05984 0.48519 0.09926 0.0
C561 C 0.04543 0.44896 0.12063 0.0
C562 C 0.02231 0.5023 0.08969 0.0
C563 C 0.96996 0.48433 0.1024 0.0
C564 C 0.95447 0.44627 0.12355 0.0
C565 C 0.99216 0.42828 0.13218 0.0
C566 C 0.03973 0.54146 0.06664 0.0
C567 C 0.89966 0.42725 0.13802 0.0
C568 C 0.9096 0.58388 0.09971 0.0
C569 C 0.8631 0.55494 0.08306 0.0
C570 C 0.94463 0.56129 0.10611 0.0
C571 C 0.93389 0.50925 0.095 0.0
C572 C 0.88851 0.4811 0.07726 0.0
C573 C 0.85302 0.50382 0.07183 0.0
C574 C 0.99178 0.59208 0.12555 0.0
C575 C 0.87683 0.42649 0.06443 0.0
H576 H 0.10102 0.50088 0.09025 0.0
H577 H 0.98139 0.40071 0.14887 0.0
H578 H 0.0047 0.5257 0.0523 0.0
H579 H 0.04874 0.58421 0.07285 0.0
H580 H 0.07826 0.54571 0.05707 0.0
H581 H 0.89238 0.39517 0.15308 0.0
H582 H 0.90066 0.46439 0.14745 0.0
H583 H 0.86311 0.409 0.12449 0.0
H584 H 0.91692 0.62284 0.10885 0.0
H585 H 0.81695 0.48127 0.05901 0.0
H586 H 0.03326 0.60269 0.1169 0.0
H587 H 0.98505 0.56415 0.14239 0.0
H588 H 0.99424 0.63189 0.13253 0.0
H589 H 0.91601 0.43187 0.05512 0.0
H590 H 0.84277 0.41227 0.04962 0.0
H591 H 0.86383 0.39256 0.07913 0.0
C592 C 0.46141 0.00808 0.46525 0.0
C593 C 0.4282 0.94982 0.46051 0.0
C594 C 0.51633 0.03931 0.4549 0.0
C595 C 0.53767 0.01161 0.43909 0.0
C596 C 0.50343 0.95323 0.43353 0.0
C597 C 0.44928 0.92294 0.44449 0.0
C598 C 0.55214 0.10147 0.46153 0.0
C599 C 0.52448 0.92245 0.41651 0.0
C600 C 0.66695 0.10758 0.39878 0.0
C601 C 0.71107 0.11251 0.41472 0.0
C602 C 0.60994 0.07304 0.40596 0.0
C603 C 0.59703 0.04302 0.4296 0.0
C604 C 0.6412 0.04488 0.44487 0.0
C605 C 0.69765 0.07924 0.43713 0.0
C606 C 0.56376 0.07123 0.38899 0.0
C607 C 0.62911 0.01333 0.4702 0.0
H608 H 0.44517 0.02885 0.47766 0.0
H609 H 0.42335 0.87797 0.44048 0.0
H610 H 0.5903 0.10864 0.47254 0.0
H611 H 0.56725 0.12717 0.44363 0.0
H612 H 0.52851 0.11712 0.47326 0.0
H613 H 0.49101 0.87799 0.41258 0.0
H614 H 0.53981 0.94501 0.39784 0.0
H615 H 0.56097 0.92188 0.42592 0.0
H616 H 0.67687 0.13301 0.3814 0.0
H617 H 0.73141 0.08246 0.44952 0.0
H618 H 0.54369 0.09303 0.39885 0.0
H619 H 0.53003 0.02671 0.38556 0.0
H620 H 0.58036 0.09216 0.37005 0.0
H621 H 0.61081 0.03101 0.48405 0.0
H622 H 0.66796 0.01639 0.47896 0.0
H623 H 0.59732 0.96788 0.46743 0.0
C624 C 0.16522 0.1095 0.90508 0.0
C625 C 0.21547 0.14564 0.89167 0.0
C626 C 0.15508 0.12294 0.92999 0.0
C627 C 0.19562 0.17432 0.94181 0.0
C628 C 0.24618 0.21131 0.92839 0.0
C629 C 0.25563 0.19641 0.90363 0.0
C630 C 0.10081 0.08202 0.94367 0.0
C631 C 0.29032 0.26676 0.94016 0.0
C632 C 0.14064 0.22932 0.99579 0.0
C633 C 0.15846 0.21269 0.01794 0.0
C634 C 0.15373 0.21845 0.97095 0.0
C635 C 0.18463 0.18937 0.96811 0.0
C636 C 0.20324 0.173 0.99044 0.0
C637 C 0.19036 0.18529 0.01507 0.0
C638 C 0.13401 0.23766 0.94772 0.0
C639 C 0.23558 0.14126 0.98832 0.0
H640 H 0.13327 0.07073 0.89601 0.0
H641 H 0.29498 0.22443 0.89379 0.0
H642 H 0.11081 0.06963 0.96254 0.0
H643 H 0.07532 0.10283 0.94766 0.0
H644 H 0.07444 0.04298 0.93221 0.0
H645 H 0.32716 0.29106 0.92715 0.0
H646 H 0.27101 0.29339 0.94471 0.0
H647 H 0.30603 0.25873 0.95858 0.0
H648 H 0.11664 0.25121 0.99793 0.0
H649 H 0.20395 0.17209 0.03214 0.0
H650 H 0.10372 0.20029 0.93622 0.0
H651 H 0.17066 0.26446 0.93505 0.0
H652 H 0.11287 0.26217 0.95319 0.0
H653 H 0.20895 0.10017 0.97837 0.0
H654 H 0.24827 0.13277 0.00748 0.0
H655 H 0.27434 0.16582 0.9765 0.0
C656 C 0.91877 0.30235 0.32436 0.0
C657 C 0.93848 0.28703 0.34631 0.0
C658 C 0.94665 0.31228 0.30055 0.0
C659 C 0.99622 0.30765 0.29858 0.0
C660 C 0.01582 0.29105 0.32051 0.0
C661 C 0.9864 0.28043 0.34409 0.0
C662 C 0.92368 0.32906 0.27764 0.0
C663 C 0.06896 0.28646 0.31931 0.0
C664 C 0.04591 0.30081 0.23047 0.0
C665 C 0.08437 0.3582 0.22559 0.0
C666 C 0.01778 0.28331 0.2544 0.0
C667 C 0.02925 0.32406 0.274 0.0
C668 C 0.06977 0.38169 0.26944 0.0
C669 C 0.09638 0.39805 0.2453 0.0
C670 C 0.9743 0.22161 0.25837 0.0
C671 C 0.08407 0.42651 0.28986 0.0
H672 H 0.88133 0.30671 0.32577 0.0
H673 H 0.00196 0.26869 0.36096 0.0
H674 H 0.95459 0.37311 0.27174 0.0
H675 H 0.9178 0.30108 0.26096 0.0
H676 H 0.88245 0.32675 0.28189 0.0
H677 H 0.07667 0.26973 0.33753 0.0
H678 H 0.06607 0.25835 0.30318 0.0
H679 H 0.10616 0.32892 0.31546 0.0
H680 H 0.03644 0.26984 0.21534 0.0
H681 H 0.12672 0.44243 0.24184 0.0
H682 H 0.93159 0.2171 0.26069 0.0
H683 H 0.98369 0.20546 0.27631 0.0
H684 H 0.97284 0.1947 0.24193 0.0
H685 H 0.04633 0.43104 0.29375 0.0
H686 H 0.11973 0.46858 0.284 0.0
H687 H 0.09564 0.41367 0.30821 0.0
C688 C 0.85451 0.94318 0.6623 0.0
C689 C 0.82302 0.95549 0.68 0.0
C690 C 0.86838 0.96882 0.63779 0.0
C691 C 0.85058 0.00797 0.63074 0.0
C692 C 0.81867 0.0205 0.64848 0.0
C693 C 0.80522 0.99408 0.67283 0.0
C694 C 0.90209 0.95394 0.61941 0.0
C695 C 0.7991 0.06219 0.64181 0.0
C696 C 0.93043 0.1142 0.5771 0.0
C697 C 0.89377 0.08996 0.55593 0.0
C698 C 0.91696 0.08799 0.60149 0.0
C699 C 0.8656 0.03609 0.60488 0.0
C700 C 0.82853 0.01123 0.58359 0.0
C701 C 0.84299 0.03844 0.55942 0.0
C702 C 0.95752 0.11611 0.6237 0.0
C703 C 0.77352 0.95581 0.58632 0.0
H704 H 0.86779 0.91287 0.66751 0.0
H705 H 0.78148 0.00441 0.68646 0.0
H706 H 0.8778 0.93645 0.60126 0.0
H707 H 0.94235 0.99271 0.61424 0.0
H708 H 0.91237 0.92239 0.62772 0.0
H709 H 0.77434 0.06705 0.65766 0.0
H710 H 0.83636 0.10434 0.63755 0.0
H711 H 0.77233 0.04809 0.62417 0.0
H712 H 0.96933 0.15437 0.57472 0.0
H713 H 0.8147 0.019 0.54314 0.0
H714 H 0.97121 0.08694 0.63175 0.0
H715 H 0.93579 0.1256 0.63942 0.0
H716 H 0.99588 0.15622 0.61787 0.0
H717 H 0.78228 0.92217 0.59313 0.0
H718 H 0.74951 0.94185 0.56787 0.0
H719 H 0.74624 0.96011 0.60103 0.0
C720 C 0.64839 0.73204 0.91276 0.0
C721 C 0.68512 0.74954 0.89138 0.0
C722 C 0.66509 0.72156 0.93689 0.0
C723 C 0.72039 0.72941 0.94009 0.0
C724 C 0.75846 0.74889 0.91888 0.0
C725 C 0.74029 0.75835 0.89474 0.0
C726 C 0.62257 0.69997 0.95871 0.0
C727 C 0.8179 0.75822 0.92151 0.0
C728 C 0.76771 0.7345 0.01019 0.0
C729 C 0.75483 0.67824 0.01425 0.0
C730 C 0.7591 0.75254 0.98586 0.0
C731 C 0.73639 0.71329 0.96515 0.0
C732 C 0.7247 0.65688 0.969 0.0
C733 C 0.73438 0.64026 0.99332 0.0
C734 C 0.77257 0.81316 0.98254 0.0
C735 C 0.69963 0.61317 0.94773 0.0
H736 H 0.60552 0.72471 0.91054 0.0
H737 H 0.76905 0.77185 0.87843 0.0
H738 H 0.61325 0.65679 0.96442 0.0
H739 H 0.6405 0.72769 0.97588 0.0
H740 H 0.58194 0.69801 0.95338 0.0
H741 H 0.84389 0.77799 0.90399 0.0
H742 H 0.83952 0.78575 0.93839 0.0
H743 H 0.81604 0.71702 0.92498 0.0
H744 H 0.78354 0.76423 0.02613 0.0
H745 H 0.72397 0.59658 0.99607 0.0
H746 H 0.73264 0.81426 0.97949 0.0
H747 H 0.79939 0.83216 0.9652 0.0
H748 H 0.7949 0.83974 0.9996 0.0
H749 H 0.6569 0.60606 0.94248 0.0
H750 H 0.69544 0.5718 0.95344 0.0
H751 H 0.72644 0.62869 0.93019 0.0
C752 C 0.10545 0.85283 0.33436 0.0
C753 C 0.09929 0.89137 0.3502 0.0
C754 C 0.08 0.83801 0.30982 0.0
C755 C 0.04776 0.86249 0.30069 0.0
C756 C 0.04151 0.90154 0.3165 0.0
C757 C 0.06721 0.91541 0.34103 0.0
C758 C 0.0879 0.79631 0.29359 0.0
C759 C 0.00747 0.92858 0.30754 0.0
C760 C 0.02488 0.86576 0.22823 0.0
C761 C 0.96957 0.81986 0.22493 0.0
C762 C 0.05087 0.87983 0.25268 0.0
C763 C 0.02085 0.84757 0.27454 0.0
C764 C 0.96501 0.80131 0.27142 0.0
C765 C 0.94015 0.78794 0.2467 0.0
C766 C 0.11048 0.92945 0.25513 0.0
C767 C 0.93151 0.7658 0.2942 0.0
H768 H 0.13089 0.83468 0.34102 0.0
H769 H 0.0615 0.9446 0.35319 0.0
H770 H 0.04594 0.75955 0.28853 0.0
H771 H 0.10937 0.81668 0.27524 0.0
H772 H 0.11346 0.78038 0.30364 0.0
H773 H 0.00687 0.95832 0.32206 0.0
H774 H 0.02548 0.95218 0.2893 0.0
H775 H 0.96307 0.89527 0.30342 0.0
H776 H 0.04777 0.8913 0.21168 0.0
H777 H 0.89781 0.75188 0.2444 0.0
H778 H 0.13874 0.91525 0.26381 0.0
H779 H 0.11071 0.96183 0.26823 0.0
H780 H 0.12844 0.94972 0.23622 0.0
H781 H 0.9546 0.74638 0.30353 0.0
H782 H 0.88847 0.73145 0.28859 0.0
H783 H 0.92696 0.79303 0.30884 0.0
C784 C 0.30606 0.03798 0.67824 0.0
C785 C 0.36307 0.07838 0.68293 0.0
C786 C 0.28907 0.0093 0.65441 0.0
C787 C 0.32987 0.02214 0.63468 0.0
C788 C 0.38717 0.06403 0.63913 0.0
C789 C 0.40307 0.09118 0.66319 0.0
C790 C 0.22778 0.96429 0.65057 0.0
C791 C 0.432 0.07979 0.61857 0.0
C792 C 0.30878 0.91466 0.58273 0.0
C793 C 0.29146 0.93443 0.56144 0.0
C794 C 0.31943 0.94161 0.60684 0.0
C795 C 0.31359 0.99028 0.60976 0.0
C796 C 0.2953 0.01002 0.58846 0.0
C797 C 0.28393 0.98154 0.56461 0.0
C798 C 0.338 0.91852 0.62907 0.0
C799 C 0.28945 0.06228 0.59066 0.0
H800 H 0.27496 0.0278 0.69339 0.0
H801 H 0.44715 0.12287 0.66649 0.0
H802 H 0.21015 0.97401 0.63321 0.0
H803 H 0.22496 0.92262 0.64721 0.0
H804 H 0.20096 0.96047 0.66746 0.0
H805 H 0.47393 0.11555 0.62458 0.0
H806 H 0.43716 0.04269 0.61409 0.0
H807 H 0.41865 0.09185 0.60049 0.0
H808 H 0.31407 0.87786 0.58057 0.0
H809 H 0.27071 0.99715 0.54826 0.0
H810 H 0.31039 0.91121 0.64607 0.0
H811 H 0.38204 0.94996 0.63483 0.0
H812 H 0.33666 0.87807 0.62412 0.0
H813 H 0.26095 0.05767 0.60692 0.0
H814 H 0.27241 0.07074 0.57271 0.0
H815 H 0.33156 0.09972 0.59489 0.0
loop_
_geom_bond_atom_site_label_1
_geom_bond_atom_site_label_2
_geom_bond_distance
_geom_bond_site_symmetry_2
_ccdc_geom_bond_type
Dy0 O3 2.307 . S
Dy0 O5 2.395 . S
Dy0 O6 2.379 . S
Dy0 O8 2.339 . S
Dy0 O10 2.298 . S
Dy0 O14 2.275 . S
Dy0 C22 2.738 . S
Dy1 O4 2.298 . S
Dy1 O7 2.275 . S
Dy1 O9 2.307 . S
Dy1 O11 2.395 . S
Dy1 O12 2.379 . S
Dy1 O15 2.339 . S
Dy1 C31 2.738 . S
C2 O14 1.254 . S
C2 O15 1.257 . S
O3 Dy0 2.307 . S
O3 C13 1.266 . S
O4 Dy1 2.298 . S
O4 C13 1.236 . S
O5 Dy0 2.395 . S
O5 C22 1.255 . S
O6 Dy0 2.379 . S
O6 C22 1.249 . S
O7 Dy1 2.275 . S
O7 C23 1.254 . S
O8 Dy0 2.339 . S
O8 C23 1.257 . S
O9 Dy1 2.307 . S
O9 C24 1.266 . S
O10 Dy0 2.298 . S
O10 C24 1.236 . S
O11 Dy1 2.395 . S
O11 C31 1.255 . S
O12 Dy1 2.379 . S
O12 C31 1.249 . S
C13 O3 1.266 . S
C13 O4 1.236 . S
O14 Dy0 2.275 . S
O14 C2 1.254 . S
O15 Dy1 2.339 . S
O15 C2 1.257 . S
C16 C19 1.344 . S
C16 C20 1.328 . S
C16 C22 1.516 . S
C17 C18 1.304 . S
C17 C21 1.323 . S
C18 C17 1.304 . S
C18 C19 1.371 . S
C18 H32 0.930 . S
C19 C16 1.344 . S
C19 C18 1.371 . S
C19 H33 0.931 . S
C20 C16 1.328 . S
C20 C21 1.433 . S
C20 H34 0.931 . S
C21 C17 1.323 . S
C21 C20 1.433 . S
C21 H35 0.933 . S
C22 Dy0 2.738 . S
C22 O5 1.255 . S
C22 O6 1.249 . S
C22 C16 1.516 . S
C23 O7 1.254 . S
C23 O8 1.257 . S
C24 O9 1.266 . S
C24 O10 1.236 . S
C25 C28 1.344 . S
C25 C29 1.328 . S
C25 C31 1.516 . S
C26 C27 1.304 . S
C26 C30 1.323 . S
C27 C26 1.304 . S
C27 C28 1.371 . S
C27 H36 0.930 . S
C28 C25 1.344 . S
C28 C27 1.371 . S
C28 H37 0.931 . S
C29 C25 1.328 . S
C29 C30 1.433 . S
C29 H38 0.931 . S
C30 C26 1.323 . S
C30 C29 1.433 . S
C30 H39 0.933 . S
C31 Dy1 2.738 . S
C31 O11 1.255 . S
C31 O12 1.249 . S
C31 C25 1.516 . S
H32 C18 0.930 . S
H33 C19 0.931 . S
H34 C20 0.931 . S
H35 C21 0.933 . S
H36 C27 0.930 . S
H37 C28 0.931 . S
H38 C29 0.931 . S
H39 C30 0.933 . S
Dy40 O43 2.307 . S
Dy40 O45 2.395 . S
Dy40 O46 2.379 . S
Dy40 O48 2.339 . S
Dy40 O50 2.298 . S
Dy40 O54 2.275 . S
Dy40 C62 2.738 . S
Dy41 O44 2.298 . S
Dy41 O47 2.275 . S
Dy41 O49 2.307 . S
Dy41 O51 2.395 . S
Dy41 O52 2.379 . S
Dy41 O55 2.339 . S
Dy41 C71 2.738 . S
C42 O54 1.254 . S
C42 O55 1.257 . S
O43 Dy40 2.307 . S
O43 C53 1.266 . S
O44 Dy41 2.298 . S
O44 C53 1.236 . S
O45 Dy40 2.395 . S
O45 C62 1.255 . S
O46 Dy40 2.379 . S
O46 C62 1.249 . S
O47 Dy41 2.275 . S
O47 C63 1.254 . S
O48 Dy40 2.339 . S
O48 C63 1.257 . S
O49 Dy41 2.307 . S
O49 C64 1.266 . S
O50 Dy40 2.298 . S
O50 C64 1.236 . S
O51 Dy41 2.395 . S
O51 C71 1.255 . S
O52 Dy41 2.379 . S
O52 C71 1.249 . S
C53 O43 1.266 . S
C53 O44 1.236 . S
O54 Dy40 2.275 . S
O54 C42 1.254 . S
O55 Dy41 2.339 . S
O55 C42 1.257 . S
C56 C59 1.344 . S
C56 C60 1.328 . S
C56 C62 1.516 . S
C57 C58 1.304 . S
C57 C61 1.323 . S
C58 C57 1.304 . S
C58 C59 1.371 . S
C58 H72 0.930 . S
C59 C56 1.344 . S
C59 C58 1.371 . S
C59 H73 0.931 . S
C60 C56 1.328 . S
C60 C61 1.433 . S
C60 H74 0.931 . S
C61 C57 1.323 . S
C61 C60 1.433 . S
C61 H75 0.933 . S
C62 Dy40 2.738 . S
C62 O45 1.255 . S
C62 O46 1.249 . S
C62 C56 1.516 . S
C63 O47 1.254 . S
C63 O48 1.257 . S
C64 O49 1.266 . S
C64 O50 1.236 . S
C65 C68 1.344 . S
C65 C69 1.328 . S
C65 C71 1.516 . S
C66 C67 1.304 . S
C66 C70 1.323 . S
C67 C66 1.304 . S
C67 C68 1.371 . S
C67 H76 0.930 . S
C68 C65 1.344 . S
C68 C67 1.371 . S
C68 H77 0.931 . S
C69 C65 1.328 . S
C69 C70 1.433 . S
C69 H78 0.931 . S
C70 C66 1.323 . S
C70 C69 1.433 . S
C70 H79 0.933 . S
C71 Dy41 2.738 . S
C71 O51 1.255 . S
C71 O52 1.249 . S
C71 C65 1.516 . S
H72 C58 0.930 . S
H73 C59 0.931 . S
H74 C60 0.931 . S
H75 C61 0.933 . S
H76 C67 0.930 . S
H77 C68 0.931 . S
H78 C69 0.931 . S
H79 C70 0.933 . S
Dy80 O83 2.307 . S
Dy80 O85 2.395 . S
Dy80 O86 2.379 . S
Dy80 O88 2.339 . S
Dy80 O90 2.298 . S
Dy80 O94 2.275 . S
Dy80 C102 2.738 . S
Dy81 O84 2.298 . S
Dy81 O87 2.275 . S
Dy81 O89 2.307 . S
Dy81 O91 2.395 . S
Dy81 O92 2.379 . S
Dy81 O95 2.339 . S
Dy81 C111 2.738 . S
C82 O94 1.254 . S
C82 O95 1.257 . S
O83 Dy80 2.307 . S
O83 C93 1.266 . S
O84 Dy81 2.298 . S
O84 C93 1.236 . S
O85 Dy80 2.395 . S
O85 C102 1.255 . S
O86 Dy80 2.379 . S
O86 C102 1.249 . S
O87 Dy81 2.275 . S
O87 C103 1.254 . S
O88 Dy80 2.339 . S
O88 C103 1.257 . S
O89 Dy81 2.307 . S
O89 C104 1.266 . S
O90 Dy80 2.298 . S
O90 C104 1.236 . S
O91 Dy81 2.395 . S
O91 C111 1.255 . S
O92 Dy81 2.379 . S
O92 C111 1.249 . S
C93 O83 1.266 . S
C93 O84 1.236 . S
O94 Dy80 2.275 . S
O94 C82 1.254 . S
O95 Dy81 2.339 . S
O95 C82 1.257 . S
C96 C99 1.344 . S
C96 C100 1.328 . S
C96 C102 1.516 . S
C97 C98 1.304 . S
C97 C101 1.323 . S
C98 C97 1.304 . S
C98 C99 1.371 . S
C98 H112 0.930 . S
C99 C96 1.344 . S
C99 C98 1.371 . S
C99 H113 0.931 . S
C100 C96 1.328 . S
C100 C101 1.433 . S
C100 H114 0.931 . S
C101 C97 1.323 . S
C101 C100 1.433 . S
C101 H115 0.933 . S
C102 Dy80 2.738 . S
C102 O85 1.255 . S
C102 O86 1.249 . S
C102 C96 1.516 . S
C103 O87 1.254 . S
C103 O88 1.257 . S
C104 O89 1.266 . S
C104 O90 1.236 . S
C105 C108 1.344 . S
C105 C109 1.328 . S
C105 C111 1.516 . S
C106 C107 1.304 . S
C106 C110 1.323 . S
C107 C106 1.304 . S
C107 C108 1.371 . S
C107 H116 0.930 . S
C108 C105 1.344 . S
C108 C107 1.371 . S
C108 H117 0.931 . S
C109 C105 1.328 . S
C109 C110 1.433 . S
C109 H118 0.931 . S
C110 C106 1.323 . S
C110 C109 1.433 . S
C110 H119 0.933 . S
C111 Dy81 2.738 . S
C111 O91 1.255 . S
C111 O92 1.249 . S
C111 C105 1.516 . S
H112 C98 0.930 . S
H113 C99 0.931 . S
H114 C100 0.931 . S
H115 C101 0.933 . S
H116 C107 0.930 . S
H117 C108 0.931 . S
H118 C109 0.931 . S
H119 C110 0.933 . S
Dy120 O123 2.307 . S
Dy120 O125 2.395 . S
Dy120 O126 2.379 . S
Dy120 O128 2.339 . S
Dy120 O130 2.298 . S
Dy120 O134 2.275 . S
Dy120 C142 2.738 . S
Dy121 O124 2.298 . S
Dy121 O127 2.275 . S
Dy121 O129 2.307 . S
Dy121 O131 2.395 . S
Dy121 O132 2.379 . S
Dy121 O135 2.339 . S
Dy121 C151 2.738 . S
C122 O134 1.254 . S
C122 O135 1.257 . S
O123 Dy120 2.307 . S
O123 C133 1.266 . S
O124 Dy121 2.298 . S
O124 C133 1.236 . S
O125 Dy120 2.395 . S
O125 C142 1.255 . S
O126 Dy120 2.379 . S
O126 C142 1.249 . S
O127 Dy121 2.275 . S
O127 C143 1.254 . S
O128 Dy120 2.339 . S
O128 C143 1.257 . S
O129 Dy121 2.307 . S
O129 C144 1.266 . S
O130 Dy120 2.298 . S
O130 C144 1.236 . S
O131 Dy121 2.395 . S
O131 C151 1.255 . S
O132 Dy121 2.379 . S
O132 C151 1.249 . S
C133 O123 1.266 . S
C133 O124 1.236 . S
O134 Dy120 2.275 . S
O134 C122 1.254 . S
O135 Dy121 2.339 . S
O135 C122 1.257 . S
C136 C139 1.344 . S
C136 C140 1.328 . S
C136 C142 1.516 . S
C137 C138 1.304 . S
C137 C141 1.323 . S
C138 C137 1.304 . S
C138 C139 1.371 . S
C138 H152 0.930 . S
C139 C136 1.344 . S
C139 C138 1.371 . S
C139 H153 0.931 . S
C140 C136 1.328 . S
C140 C141 1.433 . S
C140 H154 0.931 . S
C141 C137 1.323 . S
C141 C140 1.433 . S
C141 H155 0.933 . S
C142 Dy120 2.738 . S
C142 O125 1.255 . S
C142 O126 1.249 . S
C142 C136 1.516 . S
C143 O127 1.254 . S
C143 O128 1.257 . S
C144 O129 1.266 . S
C144 O130 1.236 . S
C145 C148 1.344 . S
C145 C149 1.328 . S
C145 C151 1.516 1_556 S
C146 C147 1.304 . S
C146 C150 1.323 . S
C147 C146 1.304 . S
C147 C148 1.371 . S
C147 H156 0.930 . S
C148 C145 1.344 . S
C148 C147 1.371 . S
C148 H157 0.931 . S
C149 C145 1.328 . S
C149 C150 1.433 . S
C149 H158 0.931 . S
C150 C146 1.323 . S
C150 C149 1.433 . S
C150 H159 0.933 . S
C151 Dy121 2.738 . S
C151 O131 1.255 . S
C151 O132 1.249 . S
C151 C145 1.516 1_554 S
H152 C138 0.930 . S
H153 C139 0.931 . S
H154 C140 0.931 . S
H155 C141 0.933 . S
H156 C147 0.930 . S
H157 C148 0.931 . S
H158 C149 0.931 . S
H159 C150 0.933 . S
Dy160 O163 2.307 . S
Dy160 O165 2.395 . S
Dy160 O166 2.379 . S
Dy160 O168 2.339 . S
Dy160 O170 2.298 . S
Dy160 O174 2.275 . S
Dy160 C182 2.738 . S
Dy161 O164 2.298 . S
Dy161 O167 2.275 . S
Dy161 O169 2.307 . S
Dy161 O171 2.395 . S
Dy161 O172 2.379 . S
Dy161 O175 2.339 . S
Dy161 C191 2.738 . S
C162 O174 1.254 . S
C162 O175 1.257 . S
O163 Dy160 2.307 . S
O163 C173 1.266 . S
O164 Dy161 2.298 . S
O164 C173 1.236 . S
O165 Dy160 2.395 . S
O165 C182 1.255 . S
O166 Dy160 2.379 . S
O166 C182 1.249 . S
O167 Dy161 2.275 . S
O167 C183 1.254 . S
O168 Dy160 2.339 . S
O168 C183 1.257 . S
O169 Dy161 2.307 . S
O169 C184 1.266 . S
O170 Dy160 2.298 . S
O170 C184 1.236 . S
O171 Dy161 2.395 . S
O171 C191 1.255 . S
O172 Dy161 2.379 . S
O172 C191 1.249 . S
C173 O163 1.266 . S
C173 O164 1.236 . S
O174 Dy160 2.275 . S
O174 C162 1.254 . S
O175 Dy161 2.339 . S
O175 C162 1.257 . S
C176 C179 1.344 . S
C176 C180 1.328 . S
C176 C182 1.516 . S
C177 C178 1.304 . S
C177 C181 1.323 . S
C178 C177 1.304 . S
C178 C179 1.371 . S
C178 H192 0.930 . S
C179 C176 1.344 . S
C179 C178 1.371 . S
C179 H193 0.931 . S
C180 C176 1.328 . S
C180 C181 1.433 . S
C180 H194 0.931 . S
C181 C177 1.323 . S
C181 C180 1.433 . S
C181 H195 0.933 . S
C182 Dy160 2.738 . S
C182 O165 1.255 . S
C182 O166 1.249 . S
C182 C176 1.516 . S
C183 O167 1.254 . S
C183 O168 1.257 . S
C184 O169 1.266 . S
C184 O170 1.236 . S
C185 C188 1.344 . S
C185 C189 1.328 . S
C185 C191 1.516 . S
C186 C187 1.304 . S
C186 C190 1.323 . S
C187 C186 1.304 . S
C187 C188 1.371 . S
C187 H196 0.930 . S
C188 C185 1.344 . S
C188 C187 1.371 . S
C188 H197 0.931 . S
C189 C185 1.328 . S
C189 C190 1.433 . S
C189 H198 0.931 . S
C190 C186 1.323 . S
C190 C189 1.433 . S
C190 H199 0.933 . S
C191 Dy161 2.738 . S
C191 O171 1.255 . S
C191 O172 1.249 . S
C191 C185 1.516 . S
H192 C178 0.930 . S
H193 C179 0.931 . S
H194 C180 0.931 . S
H195 C181 0.933 . S
H196 C187 0.930 . S
H197 C188 0.931 . S
H198 C189 0.931 . S
H199 C190 0.933 . S
Dy200 O203 2.307 . S
Dy200 O205 2.395 . S
Dy200 O206 2.379 . S
Dy200 O208 2.339 . S
Dy200 O210 2.298 . S
Dy200 O214 2.275 . S
Dy200 C222 2.738 . S
Dy201 O204 2.298 . S
Dy201 O207 2.275 . S
Dy201 O209 2.307 . S
Dy201 O211 2.395 . S
Dy201 O212 2.379 . S
Dy201 O215 2.339 . S
Dy201 C231 2.738 . S
C202 O214 1.254 . S
C202 O215 1.257 . S
O203 Dy200 2.307 . S
O203 C213 1.266 . S
O204 Dy201 2.298 . S
O204 C213 1.236 . S
O205 Dy200 2.395 . S
O205 C222 1.255 . S
O206 Dy200 2.379 . S
O206 C222 1.249 . S
O207 Dy201 2.275 . S
O207 C223 1.254 . S
O208 Dy200 2.339 . S
O208 C223 1.257 . S
O209 Dy201 2.307 . S
O209 C224 1.266 . S
O210 Dy200 2.298 . S
O210 C224 1.236 . S
O211 Dy201 2.395 . S
O211 C231 1.255 . S
O212 Dy201 2.379 . S
O212 C231 1.249 . S
C213 O203 1.266 . S
C213 O204 1.236 . S
O214 Dy200 2.275 . S
O214 C202 1.254 . S
O215 Dy201 2.339 . S
O215 C202 1.257 . S
C216 C219 1.344 . S
C216 C220 1.328 . S
C216 C222 1.516 . S
C217 C218 1.304 . S
C217 C221 1.323 . S
C218 C217 1.304 . S
C218 C219 1.371 . S
C218 H232 0.930 . S
C219 C216 1.344 . S
C219 C218 1.371 . S
C219 H233 0.931 . S
C220 C216 1.328 . S
C220 C221 1.433 . S
C220 H234 0.931 . S
C221 C217 1.323 . S
C221 C220 1.433 . S
C221 H235 0.933 . S
C222 Dy200 2.738 . S
C222 O205 1.255 . S
C222 O206 1.249 . S
C222 C216 1.516 . S
C223 O207 1.254 . S
C223 O208 1.257 . S
C224 O209 1.266 . S
C224 O210 1.236 . S
C225 C228 1.344 . S
C225 C229 1.328 . S
C225 C231 1.516 . S
C226 C227 1.304 . S
C226 C230 1.323 . S
C227 C226 1.304 . S
C227 C228 1.371 . S
C227 H236 0.930 . S
C228 C225 1.344 . S
C228 C227 1.371 . S
C228 H237 0.931 . S
C229 C225 1.328 . S
C229 C230 1.433 . S
C229 H238 0.931 . S
C230 C226 1.323 . S
C230 C229 1.433 . S
C230 H239 0.933 . S
C231 Dy201 2.738 . S
C231 O211 1.255 . S
C231 O212 1.249 . S
C231 C225 1.516 . S
H232 C218 0.930 . S
H233 C219 0.931 . S
H234 C220 0.931 . S
H235 C221 0.933 . S
H236 C227 0.930 . S
H237 C228 0.931 . S
H238 C229 0.931 . S
H239 C230 0.933 . S
C240 C241 1.391 . S
C240 C242 1.394 . S
C240 H256 0.931 . S
C241 C240 1.391 . S
C241 C245 1.376 . S
C242 C240 1.394 . S
C242 C243 1.369 . S
C242 C246 1.531 . S
C243 C242 1.369 . S
C243 C244 1.410 . S
C243 C251 1.503 . S
C244 C243 1.410 . S
C244 C245 1.392 . S
C244 C247 1.511 . S
C245 C241 1.376 . S
C245 C244 1.392 . S
C245 H257 0.929 . S
C246 C242 1.531 . S
C246 H258 0.960 . S
C246 H259 0.962 . S
C246 H260 0.960 . S
C247 C244 1.511 . S
C247 H261 0.961 . S
C247 H262 0.961 . S
C247 H263 0.961 . S
C248 C249 1.370 . S
C248 C250 1.363 . S
C248 H264 0.931 . S
C249 C248 1.370 . S
C249 C253 1.408 . S
C250 C248 1.363 . S
C250 C251 1.370 . S
C250 C254 1.524 . S
C251 C243 1.503 . S
C251 C250 1.370 . S
C251 C252 1.403 . S
C252 C251 1.403 . S
C252 C253 1.404 . S
C252 C255 1.539 . S
C253 C249 1.408 . S
C253 C252 1.404 . S
C253 H265 0.930 . S
C254 C250 1.524 . S
C254 H266 0.956 . S
C254 H267 0.961 . S
C254 H268 0.961 . S
C255 C252 1.539 . S
C255 H269 0.958 . S
C255 H270 0.961 . S
C255 H271 0.960 . S
H256 C240 0.931 . S
H257 C245 0.929 . S
H258 C246 0.960 . S
H259 C246 0.962 . S
H260 C246 0.960 . S
H261 C247 0.961 . S
H262 C247 0.961 . S
H263 C247 0.961 . S
H264 C248 0.931 . S
H265 C253 0.930 . S
H266 C254 0.956 . S
H267 C254 0.961 . S
H268 C254 0.961 . S
H269 C255 0.958 . S
H270 C255 0.961 . S
H271 C255 0.960 . S
C272 C273 1.391 . S
C272 C274 1.394 . S
C272 H288 0.931 . S
C273 C272 1.391 . S
C273 C277 1.376 . S
C274 C272 1.394 . S
C274 C275 1.369 . S
C274 C278 1.531 . S
C275 C274 1.369 . S
C275 C276 1.410 . S
C275 C283 1.503 . S
C276 C275 1.410 . S
C276 C277 1.392 . S
C276 C279 1.511 . S
C277 C273 1.376 . S
C277 C276 1.392 . S
C277 H289 0.929 . S
C278 C274 1.531 . S
C278 H290 0.960 . S
C278 H291 0.962 . S
C278 H292 0.960 . S
C279 C276 1.511 . S
C279 H293 0.961 . S
C279 H294 0.961 . S
C279 H295 0.961 . S
C280 C281 1.370 . S
C280 C282 1.363 . S
C280 H296 0.931 . S
C281 C280 1.370 . S
C281 C285 1.408 . S
C282 C280 1.363 . S
C282 C283 1.370 . S
C282 C286 1.524 . S
C283 C275 1.503 . S
C283 C282 1.370 . S
C283 C284 1.403 . S
C284 C283 1.403 . S
C284 C285 1.404 . S
C284 C287 1.539 . S
C285 C281 1.408 . S
C285 C284 1.404 . S
C285 H297 0.930 . S
C286 C282 1.524 . S
C286 H298 0.956 . S
C286 H299 0.961 . S
C286 H300 0.961 . S
C287 C284 1.539 . S
C287 H301 0.958 . S
C287 H302 0.961 . S
C287 H303 0.960 . S
H288 C272 0.931 . S
H289 C277 0.929 . S
H290 C278 0.960 . S
H291 C278 0.962 . S
H292 C278 0.960 . S
H293 C279 0.961 . S
H294 C279 0.961 . S
H295 C279 0.961 . S
H296 C280 0.931 . S
H297 C285 0.930 . S
H298 C286 0.956 . S
H299 C286 0.961 . S
H300 C286 0.961 . S
H301 C287 0.958 . S
H302 C287 0.961 . S
H303 C287 0.960 . S
C304 C305 1.391 . S
C304 C306 1.394 . S
C304 H320 0.931 . S
C305 C304 1.391 . S
C305 C309 1.376 . S
C306 C304 1.394 . S
C306 C307 1.369 . S
C306 C310 1.531 . S
C307 C306 1.369 . S
C307 C308 1.410 . S
C307 C315 1.503 . S
C308 C307 1.410 . S
C308 C309 1.392 . S
C308 C311 1.511 . S
C309 C305 1.376 . S
C309 C308 1.392 . S
C309 H321 0.929 . S
C310 C306 1.531 . S
C310 H322 0.960 . S
C310 H323 0.962 . S
C310 H324 0.960 . S
C311 C308 1.511 . S
C311 H325 0.961 . S
C311 H326 0.961 . S
C311 H327 0.961 . S
C312 C313 1.370 . S
C312 C314 1.363 . S
C312 H328 0.931 . S
C313 C312 1.370 . S
C313 C317 1.408 . S
C314 C312 1.363 . S
C314 C315 1.370 1_556 S
C314 C318 1.524 . S
C315 C307 1.503 . S
C315 C314 1.370 1_554 S
C315 C316 1.403 . S
C316 C315 1.403 . S
C316 C317 1.404 1_554 S
C316 C319 1.539 . S
C317 C313 1.408 . S
C317 C316 1.404 1_556 S
C317 H329 0.930 . S
C318 C314 1.524 . S
C318 H330 0.960 . S
C318 H331 0.961 1_556 S
C318 H332 0.961 . S
C319 C316 1.539 . S
C319 H333 0.958 . S
C319 H334 0.961 . S
C319 H335 0.960 . S
H320 C304 0.931 . S
H321 C309 0.929 . S
H322 C310 0.960 . S
H323 C310 0.962 . S
H324 C310 0.960 . S
H325 C311 0.961 . S
H326 C311 0.961 . S
H327 C311 0.961 . S
H328 C312 0.931 . S
H329 C317 0.930 . S
H330 C318 0.960 . S
H331 C318 0.961 1_554 S
H332 C318 0.961 . S
H333 C319 0.958 . S
H334 C319 0.961 . S
H335 C319 0.960 . S
C336 C337 1.391 . S
C336 C338 1.394 . S
C336 H352 0.931 . S
C337 C336 1.391 . S
C337 C341 1.376 . S
C338 C336 1.394 . S
C338 C339 1.369 . S
C338 C342 1.531 . S
C339 C338 1.369 . S
C339 C340 1.410 . S
C339 C347 1.503 . S
C340 C339 1.410 . S
C340 C341 1.392 . S
C340 C343 1.511 . S
C341 C337 1.376 . S
C341 C340 1.392 . S
C341 H353 0.929 . S
C342 C338 1.531 . S
C342 H354 0.960 . S
C342 H355 0.962 . S
C342 H356 0.960 . S
C343 C340 1.511 . S
C343 H357 0.961 . S
C343 H358 0.961 . S
C343 H359 0.961 . S
C344 C345 1.370 . S
C344 C346 1.363 . S
C344 H360 0.931 . S
C345 C344 1.370 . S
C345 C349 1.408 . S
C346 C344 1.363 . S
C346 C347 1.370 . S
C346 C350 1.524 . S
C347 C339 1.503 . S
C347 C346 1.370 . S
C347 C348 1.403 . S
C348 C347 1.403 . S
C348 C349 1.404 . S
C348 C351 1.539 . S
C349 C345 1.408 . S
C349 C348 1.404 . S
C349 H361 0.930 . S
C350 C346 1.524 . S
C350 H362 0.956 . S
C350 H363 0.961 . S
C350 H364 0.961 . S
C351 C348 1.539 . S
C351 H365 0.958 . S
C351 H366 0.961 . S
C351 H367 0.960 . S
H352 C336 0.931 . S
H353 C341 0.929 . S
H354 C342 0.960 . S
H355 C342 0.962 . S
H356 C342 0.960 . S
H357 C343 0.961 . S
H358 C343 0.961 . S
H359 C343 0.961 . S
H360 C344 0.931 . S
H361 C349 0.930 . S
H362 C350 0.956 . S
H363 C350 0.961 . S
H364 C350 0.961 . S
H365 C351 0.958 . S
H366 C351 0.961 . S
H367 C351 0.960 . S
C368 C369 1.391 . S
C368 C370 1.394 . S
C368 H384 0.931 . S
C369 C368 1.391 . S
C369 C373 1.376 . S
C370 C368 1.394 . S
C370 C371 1.369 . S
C370 C374 1.531 . S
C371 C370 1.369 . S
C371 C372 1.410 . S
C371 C379 1.503 . S
C372 C371 1.410 . S
C372 C373 1.392 . S
C372 C375 1.511 . S
C373 C369 1.376 . S
C373 C372 1.392 . S
C373 H385 0.929 . S
C374 C370 1.531 . S
C374 H386 0.960 . S
C374 H387 0.962 . S
C374 H388 0.960 . S
C375 C372 1.511 . S
C375 H389 0.961 . S
C375 H390 0.961 . S
C375 H391 0.961 . S
C376 C377 1.370 . S
C376 C378 1.363 . S
C376 H392 0.931 . S
C377 C376 1.370 . S
C377 C381 1.408 . S
C378 C376 1.363 . S
C378 C379 1.370 . S
C378 C382 1.524 . S
C379 C371 1.503 . S
C379 C378 1.370 . S
C379 C380 1.403 . S
C380 C379 1.403 . S
C380 C381 1.404 . S
C380 C383 1.539 . S
C381 C377 1.408 . S
C381 C380 1.404 . S
C381 H393 0.930 . S
C382 C378 1.524 . S
C382 H394 0.956 . S
C382 H395 0.961 . S
C382 H396 0.961 . S
C383 C380 1.539 . S
C383 H397 0.958 . S
C383 H398 0.961 . S
C383 H399 0.960 . S
H384 C368 0.931 . S
H385 C373 0.929 . S
H386 C374 0.960 . S
H387 C374 0.962 . S
H388 C374 0.960 . S
H389 C375 0.961 . S
H390 C375 0.961 . S
H391 C375 0.961 . S
H392 C376 0.931 . S
H393 C381 0.930 . S
H394 C382 0.956 . S
H395 C382 0.961 . S
H396 C382 0.961 . S
H397 C383 0.958 . S
H398 C383 0.961 . S
H399 C383 0.960 . S
C400 C401 1.391 . S
C400 C402 1.394 . S
C400 H416 0.931 . S
C401 C400 1.391 . S
C401 C405 1.376 . S
C402 C400 1.394 . S
C402 C403 1.369 . S
C402 C406 1.531 . S
C403 C402 1.369 . S
C403 C404 1.410 . S
C403 C411 1.503 . S
C404 C403 1.410 . S
C404 C405 1.392 . S
C404 C407 1.511 . S
C405 C401 1.376 . S
C405 C404 1.392 . S
C405 H417 0.929 . S
C406 C402 1.531 . S
C406 H418 0.960 . S
C406 H419 0.962 . S
C406 H420 0.960 . S
C407 C404 1.511 . S
C407 H421 0.961 . S
C407 H422 0.961 . S
C407 H423 0.961 . S
C408 C409 1.370 . S
C408 C410 1.363 . S
C408 H424 0.931 . S
C409 C408 1.370 . S
C409 C413 1.408 . S
C410 C408 1.363 . S
C410 C411 1.370 . S
C410 C414 1.524 . S
C411 C403 1.503 . S
C411 C410 1.370 . S
C411 C412 1.403 . S
C412 C411 1.403 . S
C412 C413 1.404 . S
C412 C415 1.539 . S
C413 C409 1.408 . S
C413 C412 1.404 . S
C413 H425 0.930 . S
C414 C410 1.524 . S
C414 H426 0.956 . S
C414 H427 0.961 . S
C414 H428 0.961 . S
C415 C412 1.539 . S
C415 H429 0.958 . S
C415 H430 0.961 . S
C415 H431 0.960 . S
H416 C400 0.931 . S
H417 C405 0.929 . S
H418 C406 0.960 . S
H419 C406 0.962 . S
H420 C406 0.960 . S
H421 C407 0.961 . S
H422 C407 0.961 . S
H423 C407 0.961 . S
H424 C408 0.931 . S
H425 C413 0.930 . S
H426 C414 0.956 . S
H427 C414 0.961 . S
H428 C414 0.961 . S
H429 C415 0.958 . S
H430 C415 0.961 . S
H431 C415 0.960 . S
C432 C433 1.391 . S
C432 C434 1.394 . S
C432 H448 0.931 . S
C433 C432 1.391 . S
C433 C437 1.376 . S
C434 C432 1.394 . S
C434 C435 1.369 . S
C434 C438 1.531 . S
C435 C434 1.369 . S
C435 C436 1.410 . S
C435 C443 1.503 . S
C436 C435 1.410 . S
C436 C437 1.392 . S
C436 C439 1.511 . S
C437 C433 1.376 . S
C437 C436 1.392 . S
C437 H449 0.929 . S
C438 C434 1.531 . S
C438 H450 0.960 . S
C438 H451 0.962 . S
C438 H452 0.960 . S
C439 C436 1.511 . S
C439 H453 0.961 . S
C439 H454 0.961 . S
C439 H455 0.961 . S
C440 C441 1.370 . S
C440 C442 1.363 . S
C440 H456 0.931 . S
C441 C440 1.370 . S
C441 C445 1.408 . S
C442 C440 1.363 . S
C442 C443 1.370 . S
C442 C446 1.524 . S
C443 C435 1.503 . S
C443 C442 1.370 . S
C443 C444 1.403 . S
C444 C443 1.403 . S
C444 C445 1.404 . S
C444 C447 1.539 . S
C445 C441 1.408 . S
C445 C444 1.404 . S
C445 H457 0.930 . S
C446 C442 1.524 . S
C446 H458 0.956 . S
C446 H459 0.961 . S
C446 H460 0.961 . S
C447 C444 1.539 . S
C447 H461 0.958 . S
C447 H462 0.961 . S
C447 H463 0.960 . S
H448 C432 0.931 . S
H449 C437 0.929 . S
H450 C438 0.960 . S
H451 C438 0.962 . S
H452 C438 0.960 . S
H453 C439 0.961 . S
H454 C439 0.961 . S
H455 C439 0.961 . S
H456 C440 0.931 . S
H457 C445 0.930 . S
H458 C446 0.956 . S
H459 C446 0.961 . S
H460 C446 0.961 . S
H461 C447 0.958 . S
H462 C447 0.961 . S
H463 C447 0.960 . S
C464 C465 1.391 . S
C464 C466 1.394 . S
C464 H480 0.931 . S
C465 C464 1.391 . S
C465 C469 1.376 . S
C466 C464 1.394 . S
C466 C467 1.369 . S
C466 C470 1.531 . S
C467 C466 1.369 . S
C467 C468 1.410 . S
C467 C475 1.503 . S
C468 C467 1.410 . S
C468 C469 1.392 . S
C468 C471 1.511 . S
C469 C465 1.376 . S
C469 C468 1.392 . S
C469 H481 0.929 . S
C470 C466 1.531 . S
C470 H482 0.960 . S
C470 H483 0.962 . S
C470 H484 0.960 . S
C471 C468 1.511 . S
C471 H485 0.961 . S
C471 H486 0.961 . S
C471 H487 0.961 1_455 S
C472 C473 1.370 . S
C472 C474 1.363 . S
C472 H488 0.931 . S
C473 C472 1.370 . S
C473 C477 1.408 1_455 S
C474 C472 1.363 . S
C474 C475 1.370 . S
C474 C478 1.524 . S
C475 C467 1.503 . S
C475 C474 1.370 . S
C475 C476 1.403 . S
C476 C475 1.403 . S
C476 C477 1.404 1_455 S
C476 C479 1.539 1_455 S
C477 C473 1.408 1_655 S
C477 C476 1.404 1_655 S
C477 H489 0.930 . S
C478 C474 1.524 . S
C478 H490 0.956 . S
C478 H491 0.961 . S
C478 H492 0.961 . S
C479 C476 1.539 1_655 S
C479 H493 0.958 . S
C479 H494 0.961 . S
C479 H495 0.960 . S
H480 C464 0.931 . S
H481 C469 0.929 . S
H482 C470 0.960 . S
H483 C470 0.962 . S
H484 C470 0.960 . S
H485 C471 0.961 . S
H486 C471 0.961 . S
H487 C471 0.961 1_655 S
H488 C472 0.931 . S
H489 C477 0.930 . S
H490 C478 0.956 . S
H491 C478 0.961 . S
H492 C478 0.961 . S
H493 C479 0.958 . S
H494 C479 0.961 . S
H495 C479 0.960 . S
C496 C497 1.391 1_565 S
C496 C498 1.394 . S
C496 H512 0.931 . S
C497 C496 1.391 1_545 S
C497 C501 1.376 . S
C498 C496 1.394 . S
C498 C499 1.369 . S
C498 C502 1.531 . S
C499 C498 1.369 . S
C499 C500 1.410 1_565 S
C499 C507 1.503 . S
C500 C499 1.410 1_545 S
C500 C501 1.392 . S
C500 C503 1.511 . S
C501 C497 1.376 . S
C501 C500 1.392 . S
C501 H513 0.929 . S
C502 C498 1.531 . S
C502 H514 0.960 . S
C502 H515 0.962 . S
C502 H516 0.960 . S
C503 C500 1.511 . S
C503 H517 0.961 . S
C503 H518 0.961 . S
C503 H519 0.961 . S
C504 C505 1.370 . S
C504 C506 1.363 . S
C504 H520 0.931 . S
C505 C504 1.370 . S
C505 C509 1.408 . S
C506 C504 1.363 . S
C506 C507 1.370 . S
C506 C510 1.524 . S
C507 C499 1.503 . S
C507 C506 1.370 . S
C507 C508 1.403 . S
C508 C507 1.403 . S
C508 C509 1.404 . S
C508 C511 1.539 . S
C509 C505 1.408 . S
C509 C508 1.404 . S
C509 H521 0.930 . S
C510 C506 1.524 . S
C510 H522 0.956 . S
C510 H523 0.961 . S
C510 H524 0.961 . S
C511 C508 1.539 . S
C511 H525 0.958 . S
C511 H526 0.961 . S
C511 H527 0.960 1_565 S
H512 C496 0.931 . S
H513 C501 0.929 . S
H514 C502 0.960 . S
H515 C502 0.962 . S
H516 C502 0.960 . S
H517 C503 0.961 . S
H518 C503 0.961 . S
H519 C503 0.961 . S
H520 C504 0.931 . S
H521 C509 0.930 . S
H522 C510 0.956 . S
H523 C510 0.961 . S
H524 C510 0.961 . S
H525 C511 0.958 . S
H526 C511 0.961 . S
H527 C511 0.960 1_545 S
C528 C529 1.391 . S
C528 C530 1.394 . S
C528 H544 0.931 . S
C529 C528 1.391 . S
C529 C533 1.376 . S
C530 C528 1.394 . S
C530 C531 1.369 . S
C530 C534 1.531 . S
C531 C530 1.369 . S
C531 C532 1.410 . S
C531 C539 1.503 . S
C532 C531 1.410 . S
C532 C533 1.392 . S
C532 C535 1.511 . S
C533 C529 1.376 . S
C533 C532 1.392 . S
C533 H545 0.929 . S
C534 C530 1.531 . S
C534 H546 0.960 . S
C534 H547 0.962 . S
C534 H548 0.960 . S
C535 C532 1.511 . S
C535 H549 0.961 . S
C535 H550 0.961 . S
C535 H551 0.961 . S
C536 C537 1.370 . S
C536 C538 1.363 . S
C536 H552 0.931 . S
C537 C536 1.370 . S
C537 C541 1.408 . S
C538 C536 1.363 . S
C538 C539 1.370 . S
C538 C542 1.524 . S
C539 C531 1.503 . S
C539 C538 1.370 . S
C539 C540 1.403 . S
C540 C539 1.403 . S
C540 C541 1.404 . S
C540 C543 1.539 . S
C541 C537 1.408 . S
C541 C540 1.404 . S
C541 H553 0.930 . S
C542 C538 1.524 . S
C542 H554 0.956 . S
C542 H555 0.961 . S
C542 H556 0.961 . S
C543 C540 1.539 . S
C543 H557 0.958 . S
C543 H558 0.961 . S
C543 H559 0.960 . S
H544 C528 0.931 . S
H545 C533 0.929 . S
H546 C534 0.960 . S
H547 C534 0.962 . S
H548 C534 0.960 . S
H549 C535 0.961 . S
H550 C535 0.961 . S
H551 C535 0.961 . S
H552 C536 0.931 . S
H553 C541 0.930 . S
H554 C542 0.956 . S
H555 C542 0.961 . S
H556 C542 0.961 . S
H557 C543 0.958 . S
H558 C543 0.961 . S
H559 C543 0.960 . S
C560 C561 1.391 . S
C560 C562 1.394 . S
C560 H576 0.931 . S
C561 C560 1.391 . S
C561 C565 1.376 . S
C562 C560 1.394 . S
C562 C563 1.369 . S
C562 C566 1.531 . S
C563 C562 1.369 . S
C563 C564 1.410 . S
C563 C571 1.503 . S
C564 C563 1.410 . S
C564 C565 1.392 . S
C564 C567 1.511 . S
C565 C561 1.376 . S
C565 C564 1.392 . S
C565 H577 0.929 . S
C566 C562 1.531 . S
C566 H578 0.960 . S
C566 H579 0.962 . S
C566 H580 0.960 . S
C567 C564 1.511 . S
C567 H581 0.961 . S
C567 H582 0.961 . S
C567 H583 0.961 . S
C568 C569 1.370 . S
C568 C570 1.363 . S
C568 H584 0.931 . S
C569 C568 1.370 . S
C569 C573 1.408 . S
C570 C568 1.363 . S
C570 C571 1.370 . S
C570 C574 1.524 1_655 S
C571 C563 1.503 . S
C571 C570 1.370 . S
C571 C572 1.403 . S
C572 C571 1.403 . S
C572 C573 1.404 . S
C572 C575 1.539 . S
C573 C569 1.408 . S
C573 C572 1.404 . S
C573 H585 0.930 . S
C574 C570 1.524 1_455 S
C574 H586 0.956 . S
C574 H587 0.961 . S
C574 H588 0.961 . S
C575 C572 1.539 . S
C575 H589 0.958 . S
C575 H590 0.961 . S
C575 H591 0.960 . S
H576 C560 0.931 . S
H577 C565 0.929 . S
H578 C566 0.960 . S
H579 C566 0.962 . S
H580 C566 0.960 . S
H581 C567 0.961 . S
H582 C567 0.961 . S
H583 C567 0.961 . S
H584 C568 0.931 . S
H585 C573 0.930 . S
H586 C574 0.956 . S
H587 C574 0.961 . S
H588 C574 0.961 . S
H589 C575 0.958 . S
H590 C575 0.961 . S
H591 C575 0.960 . S
C592 C593 1.391 . S
C592 C594 1.394 . S
C592 H608 0.931 . S
C593 C592 1.391 . S
C593 C597 1.376 1_545 S
C594 C592 1.394 . S
C594 C595 1.369 . S
C594 C598 1.531 . S
C595 C594 1.369 . S
C595 C596 1.410 . S
C595 C603 1.503 . S
C596 C595 1.410 . S
C596 C597 1.392 1_545 S
C596 C599 1.511 1_545 S
C597 C593 1.376 1_565 S
C597 C596 1.392 1_565 S
C597 H609 0.929 . S
C598 C594 1.531 . S
C598 H610 0.960 . S
C598 H611 0.962 . S
C598 H612 0.960 . S
C599 C596 1.511 1_565 S
C599 H613 0.961 . S
C599 H614 0.961 . S
C599 H615 0.961 . S
C600 C601 1.370 . S
C600 C602 1.363 . S
C600 H616 0.931 . S
C601 C600 1.370 . S
C601 C605 1.408 . S
C602 C600 1.363 . S
C602 C603 1.370 . S
C602 C606 1.524 . S
C603 C595 1.503 . S
C603 C602 1.370 . S
C603 C604 1.403 . S
C604 C603 1.403 . S
C604 C605 1.404 . S
C604 C607 1.539 . S
C605 C601 1.408 . S
C605 C604 1.404 . S
C605 H617 0.930 . S
C606 C602 1.524 . S
C606 H618 0.956 . S
C606 H619 0.961 . S
C606 H620 0.961 . S
C607 C604 1.539 . S
C607 H621 0.958 . S
C607 H622 0.961 . S
C607 H623 0.960 . S
H608 C592 0.931 . S
H609 C597 0.929 . S
H610 C598 0.960 . S
H611 C598 0.962 . S
H612 C598 0.960 . S
H613 C599 0.961 . S
H614 C599 0.961 . S
H615 C599 0.961 . S
H616 C600 0.931 . S
H617 C605 0.930 . S
H618 C606 0.956 . S
H619 C606 0.961 . S
H620 C606 0.961 . S
H621 C607 0.958 . S
H622 C607 0.961 . S
H623 C607 0.960 . S
C624 C625 1.391 . S
C624 C626 1.394 . S
C624 H640 0.931 . S
C625 C624 1.391 . S
C625 C629 1.376 . S
C626 C624 1.394 . S
C626 C627 1.369 . S
C626 C630 1.531 . S
C627 C626 1.369 . S
C627 C628 1.410 . S
C627 C635 1.503 . S
C628 C627 1.410 . S
C628 C629 1.392 . S
C628 C631 1.511 . S
C629 C625 1.376 . S
C629 C628 1.392 . S
C629 H641 0.929 . S
C630 C626 1.531 . S
C630 H642 0.960 . S
C630 H643 0.962 . S
C630 H644 0.960 . S
C631 C628 1.511 . S
C631 H645 0.961 . S
C631 H646 0.961 . S
C631 H647 0.961 . S
C632 C633 1.370 1_556 S
C632 C634 1.363 . S
C632 H648 0.931 . S
C633 C632 1.370 1_554 S
C633 C637 1.408 . S
C634 C632 1.363 . S
C634 C635 1.370 . S
C634 C638 1.524 . S
C635 C627 1.503 . S
C635 C634 1.370 . S
C635 C636 1.403 . S
C636 C635 1.403 . S
C636 C637 1.404 1_556 S
C636 C639 1.539 . S
C637 C633 1.408 . S
C637 C636 1.404 1_554 S
C637 H649 0.930 . S
C638 C634 1.524 . S
C638 H650 0.956 . S
C638 H651 0.961 . S
C638 H652 0.961 . S
C639 C636 1.539 . S
C639 H653 0.958 . S
C639 H654 0.961 1_556 S
C639 H655 0.960 . S
H640 C624 0.931 . S
H641 C629 0.929 . S
H642 C630 0.960 . S
H643 C630 0.962 . S
H644 C630 0.960 . S
H645 C631 0.961 . S
H646 C631 0.961 . S
H647 C631 0.961 . S
H648 C632 0.931 . S
H649 C637 0.930 . S
H650 C638 0.956 . S
H651 C638 0.961 . S
H652 C638 0.961 . S
H653 C639 0.958 . S
H654 C639 0.961 1_554 S
H655 C639 0.960 . S
C656 C657 1.391 . S
C656 C658 1.394 . S
C656 H672 0.931 . S
C657 C656 1.391 . S
C657 C661 1.376 . S
C658 C656 1.394 . S
C658 C659 1.369 1_655 S
C658 C662 1.531 1_655 S
C659 C658 1.369 1_455 S
C659 C660 1.410 . S
C659 C667 1.503 . S
C660 C659 1.410 . S
C660 C661 1.392 1_455 S
C660 C663 1.511 . S
C661 C657 1.376 . S
C661 C660 1.392 1_655 S
C661 H673 0.929 . S
C662 C658 1.531 1_455 S
C662 H674 0.960 . S
C662 H675 0.962 1_455 S
C662 H676 0.960 . S
C663 C660 1.511 . S
C663 H677 0.961 . S
C663 H678 0.961 . S
C663 H679 0.961 . S
C664 C665 1.370 . S
C664 C666 1.363 1_455 S
C664 H680 0.931 1_455 S
C665 C664 1.370 . S
C665 C669 1.408 . S
C666 C664 1.363 1_655 S
C666 C667 1.370 1_655 S
C666 C670 1.524 . S
C667 C659 1.503 . S
C667 C666 1.370 1_455 S
C667 C668 1.403 . S
C668 C667 1.403 . S
C668 C669 1.404 . S
C668 C671 1.539 . S
C669 C665 1.408 . S
C669 C668 1.404 . S
C669 H681 0.930 . S
C670 C666 1.524 . S
C670 H682 0.956 . S
C670 H683 0.961 . S
C670 H684 0.961 . S
C671 C668 1.539 . S
C671 H685 0.958 . S
C671 H686 0.961 . S
C671 H687 0.960 . S
H672 C656 0.931 . S
H673 C661 0.929 . S
H674 C662 0.960 . S
H675 C662 0.962 1_655 S
H676 C662 0.960 . S
H677 C663 0.961 . S
H678 C663 0.961 . S
H679 C663 0.961 . S
H680 C664 0.931 1_655 S
H681 C669 0.930 . S
H682 C670 0.956 . S
H683 C670 0.961 . S
H684 C670 0.961 . S
H685 C671 0.958 . S
H686 C671 0.961 . S
H687 C671 0.960 . S
C688 C689 1.391 . S
C688 C690 1.394 . S
C688 H704 0.931 . S
C689 C688 1.391 . S
C689 C693 1.376 . S
C690 C688 1.394 . S
C690 C691 1.369 . S
C690 C694 1.531 . S
C691 C690 1.369 . S
C691 C692 1.410 . S
C691 C699 1.503 1_565 S
C692 C691 1.410 . S
C692 C693 1.392 . S
C692 C695 1.511 1_565 S
C693 C689 1.376 . S
C693 C692 1.392 . S
C693 H705 0.929 . S
C694 C690 1.531 . S
C694 H706 0.960 . S
C694 H707 0.962 . S
C694 H708 0.960 . S
C695 C692 1.511 1_545 S
C695 H709 0.961 . S
C695 H710 0.961 . S
C695 H711 0.961 . S
C696 C697 1.370 . S
C696 C698 1.363 . S
C696 H712 0.931 . S
C697 C696 1.370 . S
C697 C701 1.408 . S
C698 C696 1.363 . S
C698 C699 1.370 . S
C698 C702 1.524 . S
C699 C691 1.503 1_545 S
C699 C698 1.370 . S
C699 C700 1.403 . S
C700 C699 1.403 . S
C700 C701 1.404 . S
C700 C703 1.539 1_545 S
C701 C697 1.408 . S
C701 C700 1.404 . S
C701 H713 0.930 . S
C702 C698 1.524 . S
C702 H714 0.956 . S
C702 H715 0.961 . S
C702 H716 0.961 . S
C703 C700 1.539 1_565 S
C703 H717 0.958 . S
C703 H718 0.961 . S
C703 H719 0.960 . S
H704 C688 0.931 . S
H705 C693 0.929 . S
H706 C694 0.960 . S
H707 C694 0.962 . S
H708 C694 0.960 . S
H709 C695 0.961 . S
H710 C695 0.961 . S
H711 C695 0.961 . S
H712 C696 0.931 . S
H713 C701 0.930 . S
H714 C702 0.956 . S
H715 C702 0.961 . S
H716 C702 0.961 . S
H717 C703 0.958 . S
H718 C703 0.961 . S
H719 C703 0.960 . S
C720 C721 1.391 . S
C720 C722 1.394 . S
C720 H736 0.931 . S
C721 C720 1.391 . S
C721 C725 1.376 . S
C722 C720 1.394 . S
C722 C723 1.369 . S
C722 C726 1.531 . S
C723 C722 1.369 . S
C723 C724 1.410 . S
C723 C731 1.503 . S
C724 C723 1.410 . S
C724 C725 1.392 . S
C724 C727 1.511 . S
C725 C721 1.376 . S
C725 C724 1.392 . S
C725 H737 0.929 . S
C726 C722 1.531 . S
C726 H738 0.960 . S
C726 H739 0.962 . S
C726 H740 0.960 . S
C727 C724 1.511 . S
C727 H741 0.961 . S
C727 H742 0.961 . S
C727 H743 0.961 . S
C728 C729 1.370 . S
C728 C730 1.363 1_554 S
C728 H744 0.931 . S
C729 C728 1.370 . S
C729 C733 1.408 1_554 S
C730 C728 1.363 1_556 S
C730 C731 1.370 . S
C730 C734 1.524 . S
C731 C723 1.503 . S
C731 C730 1.370 . S
C731 C732 1.403 . S
C732 C731 1.403 . S
C732 C733 1.404 . S
C732 C735 1.539 . S
C733 C729 1.408 1_556 S
C733 C732 1.404 . S
C733 H745 0.930 . S
C734 C730 1.524 . S
C734 H746 0.956 . S
C734 H747 0.961 . S
C734 H748 0.961 . S
C735 C732 1.539 . S
C735 H749 0.958 . S
C735 H750 0.961 . S
C735 H751 0.960 . S
H736 C720 0.931 . S
H737 C725 0.929 . S
H738 C726 0.960 . S
H739 C726 0.962 . S
H740 C726 0.960 . S
H741 C727 0.961 . S
H742 C727 0.961 . S
H743 C727 0.961 . S
H744 C728 0.931 . S
H745 C733 0.930 . S
H746 C734 0.956 . S
H747 C734 0.961 . S
H748 C734 0.961 . S
H749 C735 0.958 . S
H750 C735 0.961 . S
H751 C735 0.960 . S
C752 C753 1.391 . S
C752 C754 1.394 . S
C752 H768 0.931 . S
C753 C752 1.391 . S
C753 C757 1.376 . S
C754 C752 1.394 . S
C754 C755 1.369 . S
C754 C758 1.531 1_455 S
C755 C754 1.369 . S
C755 C756 1.410 . S
C755 C763 1.503 1_455 S
C756 C755 1.410 . S
C756 C757 1.392 . S
C756 C759 1.511 . S
C757 C753 1.376 . S
C757 C756 1.392 . S
C757 H769 0.929 . S
C758 C754 1.531 1_655 S
C758 H770 0.960 . S
C758 H771 0.962 1_655 S
C758 H772 0.960 . S
C759 C756 1.511 . S
C759 H773 0.961 1_565 S
C759 H774 0.961 . S
C759 H775 0.961 . S
C760 C761 1.370 . S
C760 C762 1.363 1_655 S
C760 H776 0.931 . S
C761 C760 1.370 . S
C761 C765 1.408 . S
C762 C760 1.363 1_455 S
C762 C763 1.370 1_455 S
C762 C766 1.524 . S
C763 C755 1.503 1_655 S
C763 C762 1.370 1_655 S
C763 C764 1.403 . S
C764 C763 1.403 . S
C764 C765 1.404 . S
C764 C767 1.539 . S
C765 C761 1.408 . S
C765 C764 1.404 . S
C765 H777 0.930 . S
C766 C762 1.524 . S
C766 H778 0.956 . S
C766 H779 0.961 . S
C766 H780 0.961 . S
C767 C764 1.539 . S
C767 H781 0.958 . S
C767 H782 0.961 . S
C767 H783 0.960 . S
H768 C752 0.931 . S
H769 C757 0.929 . S
H770 C758 0.960 . S
H771 C758 0.962 1_455 S
H772 C758 0.960 . S
H773 C759 0.961 1_545 S
H774 C759 0.961 . S
H775 C759 0.961 . S
H776 C760 0.931 . S
H777 C765 0.930 . S
H778 C766 0.956 . S
H779 C766 0.961 . S
H780 C766 0.961 . S
H781 C767 0.958 . S
H782 C767 0.961 . S
H783 C767 0.960 . S
C784 C785 1.391 . S
C784 C786 1.394 . S
C784 H800 0.931 . S
C785 C784 1.391 . S
C785 C789 1.376 . S
C786 C784 1.394 . S
C786 C787 1.369 . S
C786 C790 1.531 . S
C787 C786 1.369 . S
C787 C788 1.410 . S
C787 C795 1.503 . S
C788 C787 1.410 . S
C788 C789 1.392 . S
C788 C791 1.511 1_545 S
C789 C785 1.376 . S
C789 C788 1.392 . S
C789 H801 0.929 . S
C790 C786 1.531 . S
C790 H802 0.960 . S
C790 H803 0.962 . S
C790 H804 0.960 . S
C791 C788 1.511 1_565 S
C791 H805 0.961 . S
C791 H806 0.961 . S
C791 H807 0.961 1_565 S
C792 C793 1.370 . S
C792 C794 1.363 . S
C792 H808 0.931 . S
C793 C792 1.370 . S
C793 C797 1.408 1_565 S
C794 C792 1.363 . S
C794 C795 1.370 1_565 S
C794 C798 1.524 . S
C795 C787 1.503 . S
C795 C794 1.370 1_545 S
C795 C796 1.403 . S
C796 C795 1.403 . S
C796 C797 1.404 . S
C796 C799 1.539 . S
C797 C793 1.408 1_545 S
C797 C796 1.404 . S
C797 H809 0.930 . S
C798 C794 1.524 . S
C798 H810 0.956 . S
C798 H811 0.961 . S
C798 H812 0.961 . S
C799 C796 1.539 . S
C799 H813 0.958 . S
C799 H814 0.961 . S
C799 H815 0.960 . S
H800 C784 0.931 . S
H801 C789 0.929 . S
H802 C790 0.960 . S
H803 C790 0.962 . S
H804 C790 0.960 . S
H805 C791 0.961 . S
H806 C791 0.961 . S
H807 C791 0.961 1_545 S
H808 C792 0.931 . S
H809 C797 0.930 . S
H810 C798 0.956 . S
H811 C798 0.961 . S
H812 C798 0.961 . S
H813 C799 0.958 . S
H814 C799 0.961 . S
H815 C799 0.960 . S
C241 C184 1.369 . S
C249 C26 1.353 . S
C273 C226 1.374 . S
C281 C64 1.347 . S
C305 C24 1.358 . S
C313 C106 1.356 . S
C337 C66 1.336 . S
C345 C144 1.365 . S
C369 C104 1.330 . S
C377 C186 1.367 . S
C401 C146 1.374 . S
C409 C224 1.347 . S
C433 C2 1.550 . S
C441 C143 1.677 . S
C465 C162 1.623 . S
C473 C63 1.664 1_455 S
C497 C223 1.682 . S
C505 C82 1.609 . S
C529 C103 1.697 . S
C537 C202 1.598 . S
C561 C23 1.687 1_655 S
C569 C122 1.578 . S
C593 C183 1.690 1_545 S
C601 C42 1.604 . S
C625 C217 0.768 . S
C633 C17 0.758 . S
C657 C53 1.570 . S
C665 C13 1.558 . S
C689 C97 0.749 . S
C697 C57 0.753 . S
C721 C93 1.565 . S
C729 C133 1.556 . S
C753 C177 0.777 . S
C761 C137 0.784 . S
C785 C213 1.542 . S
C793 C173 1.564 . S
