# Generated by pormake.
# Topology vby, (6)-cn, num edge types: 1
# Building blocks:
#     Node 0, Type 0, BuildingBlock: BETGAK_clean_sbu_0, # of connection points: 6
#     Node 1, Type 0, BuildingBlock: BETGAK_clean_sbu_0, # of connection points: 6
#     Node 2, Type 0, BuildingBlock: BETGAK_clean_sbu_0, # of connection points: 6
#     Node 3, Type 0, BuildingBlock: BETGAK_clean_sbu_0, # of connection points: 6
#     Node 4, Type 0, BuildingBlock: BETGAK_clean_sbu_0, # of connection points: 6
#     Node 5, Type 0, BuildingBlock: BETGAK_clean_sbu_0, # of connection points: 6
#     Node 6, Type 0, BuildingBlock: BETGAK_clean_sbu_0, # of connection points: 6
#     Node 7, Type 0, BuildingBlock: BETGAK_clean_sbu_0, # of connection points: 6
#     Edge 8, Type (0, 0), BuildingBlock: AJUNOK_clean_linker_0, # of connection points: 2
#     Edge 9, Type (0, 0), BuildingBlock: AJUNOK_clean_linker_0, # of connection points: 2
#     Edge 10, Type (0, 0), BuildingBlock: AJUNOK_clean_linker_0, # of connection points: 2
#     Edge 11, Type (0, 0), BuildingBlock: AJUNOK_clean_linker_0, # of connection points: 2
#     Edge 12, Type (0, 0), BuildingBlock: AJUNOK_clean_linker_0, # of connection points: 2
#     Edge 13, Type (0, 0), BuildingBlock: AJUNOK_clean_linker_0, # of connection points: 2
#     Edge 14, Type (0, 0), BuildingBlock: AJUNOK_clean_linker_0, # of connection points: 2
#     Edge 15, Type (0, 0), BuildingBlock: AJUNOK_clean_linker_0, # of connection points: 2
#     Edge 16, Type (0, 0), BuildingBlock: AJUNOK_clean_linker_0, # of connection points: 2
#     Edge 17, Type (0, 0), BuildingBlock: AJUNOK_clean_linker_0, # of connection points: 2
#     Edge 18, Type (0, 0), BuildingBlock: AJUNOK_clean_linker_0, # of connection points: 2
#     Edge 19, Type (0, 0), BuildingBlock: AJUNOK_clean_linker_0, # of connection points: 2
#     Edge 20, Type (0, 0), BuildingBlock: AJUNOK_clean_linker_0, # of connection points: 2
#     Edge 21, Type (0, 0), BuildingBlock: AJUNOK_clean_linker_0, # of connection points: 2
#     Edge 22, Type (0, 0), BuildingBlock: AJUNOK_clean_linker_0, # of connection points: 2
#     Edge 23, Type (0, 0), BuildingBlock: AJUNOK_clean_linker_0, # of connection points: 2
#     Edge 24, Type (0, 0), BuildingBlock: AJUNOK_clean_linker_0, # of connection points: 2
#     Edge 25, Type (0, 0), BuildingBlock: AJUNOK_clean_linker_0, # of connection points: 2
#     Edge 26, Type (0, 0), BuildingBlock: AJUNOK_clean_linker_0, # of connection points: 2
#     Edge 27, Type (0, 0), BuildingBlock: AJUNOK_clean_linker_0, # of connection points: 2
#     Edge 28, Type (0, 0), BuildingBlock: AJUNOK_clean_linker_0, # of connection points: 2
#     Edge 29, Type (0, 0), BuildingBlock: AJUNOK_clean_linker_0, # of connection points: 2
#     Edge 30, Type (0, 0), BuildingBlock: AJUNOK_clean_linker_0, # of connection points: 2
#     Edge 31, Type (0, 0), BuildingBlock: AJUNOK_clean_linker_0, # of connection points: 2
# Relax obj value: 0.198
# Max RMSD: 0.219
# Mean RMSD: 0.219
data_MOF--net-vby--node1-BETGAK_clean_sbu_0--edge1-AJUNOK_clean_linker_0
_symmetry_space_group_name_H-M    P1
_symmetry_Int_Tables_number       1
_symmetry_cell_setting            triclinic
loop_
_symmetry_equiv_pos_as_xyz
'x, y, z'
_cell_length_a     11.522001
_cell_length_b     87.667486
_cell_length_c     21.469053
_cell_angle_alpha  89.876895
_cell_angle_beta   85.50875
_cell_angle_gamma 90.265469
loop_
_atom_site_label
_atom_site_type_symbol
_atom_site_fract_x
_atom_site_fract_y
_atom_site_fract_z
_atom_type_partial_charge
La0 La 0.07575 0.41997 0.03181 0.0
La1 La 0.06404 0.38713 0.02737 0.0
C2 C 0.06151 0.44867 0.02518 0.0
C3 C 1.05182 0.46564 0.02296 0.0
C4 C 1.00657 0.47377 0.07581 0.0
C5 C 1.00484 0.48978 0.07578 0.0
C6 C 1.04787 0.49814 0.02283 0.0
C7 C 0.09226 0.48999 0.96973 0.0
C8 C 0.09412 0.47395 0.96979 0.0
C9 C 0.09131 0.40649 0.14297 0.0
C10 C 0.82785 0.40378 0.03233 0.0
C11 C 0.07429 0.35846 0.04554 0.0
C12 C 0.14301 0.34405 0.04118 0.0
C13 C 0.17361 0.337 0.98333 0.0
C14 C 0.21899 0.32213 0.9807 0.0
C15 C 0.23503 0.31388 0.03575 0.0
C16 C 0.20721 0.32111 0.09348 0.0
C17 C 0.16185 0.33595 0.0961 0.0
C18 C 1.04303 0.4002 0.91599 0.0
C19 C 0.3158 0.40376 0.02114 0.0
O20 O 1.02173 0.44072 0.07377 0.0
O21 O 0.10583 0.44034 0.9788 0.0
O22 O 0.15482 0.41774 0.12099 0.0
O23 O 1.02222 0.40294 0.10214 0.0
O24 O 0.89218 0.41574 0.01339 0.0
O25 O 0.87931 0.39142 0.0519 0.0
O26 O 1.04479 0.3648 0.99408 0.0
O27 O 0.09646 0.36867 0.08743 0.0
O28 O 0.98722 0.38826 0.93752 0.0
O29 O 0.11355 0.40415 0.95577 0.0
O30 O 0.25512 0.39088 0.02992 0.0
O31 O 0.26186 0.4168 0.01398 0.0
H32 H 0.97386 0.46776 0.11776 0.0
H33 H 0.96959 0.49563 0.11738 0.0
H34 H 0.12828 0.49601 0.92851 0.0
H35 H 0.13074 0.46808 0.92853 0.0
H36 H 0.15891 0.34275 0.93997 0.0
H37 H 0.23985 0.31698 0.93542 0.0
H38 H 0.21579 0.31505 0.13687 0.0
H39 H 0.13673 0.34087 0.14139 0.0
La40 La 1.04682 0.67625 0.03057 0.0
La41 La 1.0343 0.64345 0.02722 0.0
C42 C 1.03567 0.70481 1.01028 0.0
C43 C 0.96777 0.71925 0.01667 0.0
C44 C 0.94176 0.72622 0.07511 0.0
C45 C 0.89753 0.74114 0.07901 0.0
C46 C 0.87913 0.74954 0.02463 0.0
C47 C 0.90018 0.74228 0.96645 0.0
C48 C 0.9443 0.72738 0.96256 0.0
C49 C 0.06727 0.66361 0.14265 0.0
C50 C 0.79444 0.6599 0.03739 0.0
C51 C 1.04806 0.61473 0.03319 0.0
C52 C 0.05793 0.59776 0.03439 0.0
C53 C 0.10405 0.58988 0.98108 0.0
C54 C 0.10415 0.57388 0.97945 0.0
C55 C 0.05757 0.56527 0.03095 0.0
C56 C 1.01456 0.57315 0.08501 0.0
C57 C 1.01433 0.58919 0.08663 0.0
C58 C 1.01632 0.65691 0.91615 0.0
C59 C 0.28248 0.65974 0.0246 0.0
O60 O 0.07399 0.69874 0.06026 0.0
O61 O 1.00551 0.69441 0.97099 0.0
O62 O 0.12319 0.67547 0.12045 0.0
O63 O 0.99731 0.65939 0.10296 0.0
O64 O 0.85647 0.67265 0.02942 0.0
O65 O 0.84687 0.6467 0.04422 0.0
O66 O 0.08865 0.62279 0.98506 0.0
O67 O 1.00348 0.62298 0.07983 0.0
O68 O 0.95323 0.64568 0.93852 0.0
O69 O 0.08713 0.66033 0.9562 0.0
O70 O 0.21935 0.64776 0.0449 0.0
O71 O 0.22939 0.67178 1.00352 0.0
H72 H 0.95911 0.72037 0.11784 0.0
H73 H 0.87956 0.7462 0.1247 0.0
H74 H 0.88721 0.74836 0.9236 0.0
H75 H 0.96486 0.72245 0.91682 0.0
H76 H 0.13852 0.59607 0.93996 0.0
H77 H 0.14068 0.56824 0.93761 0.0
H78 H 0.97819 0.56689 0.12558 0.0
H79 H 0.97773 0.59487 0.12835 0.0
La80 La 0.0589 0.6763 0.52725 0.0
La81 La 0.06824 0.64356 0.53191 0.0
C82 C 0.07176 0.70488 0.54659 0.0
C83 C 0.13962 0.71937 0.5379 0.0
C84 C 0.14978 0.72706 0.48003 0.0
C85 C 0.19475 0.74198 0.47517 0.0
C86 C 0.23072 0.74965 0.52801 0.0
C87 C 0.22348 0.74178 0.58545 0.0
C88 C 0.17851 0.72688 0.59031 0.0
C89 C 1.03815 0.66357 0.41554 0.0
C90 C 0.3098 0.65971 0.52071 0.0
C91 C 1.05314 0.61484 0.52679 0.0
C92 C 1.04272 0.59788 0.52542 0.0
C93 C 0.99032 0.58992 0.57733 0.0
C94 C 0.99085 0.57392 0.57933 0.0
C95 C 1.04438 0.56541 0.52963 0.0
C96 C 0.09344 0.57336 0.47678 0.0
C97 C 0.09297 0.58939 0.47479 0.0
C98 C 0.08515 0.65704 0.64286 0.0
C99 C 0.82189 0.65963 0.53238 0.0
O100 O 1.0291 0.69872 0.49796 0.0
O101 O 0.10513 0.69452 0.58526 0.0
O102 O 0.98455 0.67559 0.4368 0.0
O103 O 0.10739 0.65937 0.45552 0.0
O104 O 0.25019 0.67262 0.52837 0.0
O105 O 0.25466 0.64667 0.51442 0.0
O106 O 1.01057 0.62289 0.57422 0.0
O107 O 0.10005 0.62308 0.48045 0.0
O108 O 0.14826 0.64586 0.62088 0.0
O109 O 1.01569 0.66049 0.60221 0.0
O110 O 0.88543 0.64778 0.51258 0.0
O111 O 0.87434 0.67186 0.55285 0.0
H112 H 0.11871 0.72181 0.43882 0.0
H113 H 0.1967 0.74774 0.43043 0.0
H114 H 0.25077 0.74728 0.62705 0.0
H115 H 0.17004 0.72143 0.63578 0.0
H116 H 0.95064 0.59606 0.61717 0.0
H117 H 0.94961 0.56821 0.62008 0.0
H118 H 0.13526 0.56718 0.43762 0.0
H119 H 0.13459 0.59514 0.43422 0.0
La120 La 1.0389 0.42023 0.52785 0.0
La121 La 1.04921 0.38743 0.53087 0.0
C122 C 1.05275 0.44891 0.53575 0.0
C123 C 0.06233 0.46587 0.53882 0.0
C124 C 0.1127 0.4742 0.48741 0.0
C125 C 0.11281 0.4902 0.48759 0.0
C126 C 0.06279 0.49836 0.53924 0.0
C127 C 1.0136 0.49002 0.59103 0.0
C128 C 1.01353 0.47398 0.59084 0.0
C129 C 1.02044 0.40711 0.41642 0.0
C130 C 0.2862 0.40396 0.52497 0.0
C131 C 1.03759 0.35888 0.51109 0.0
C132 C 0.96856 0.34442 0.51506 0.0
C133 C 0.94135 0.33691 0.57246 0.0
C134 C 0.89708 0.32193 0.57415 0.0
C135 C 0.88011 0.31402 0.51855 0.0
C136 C 0.90201 0.32181 0.46143 0.0
C137 C 0.94605 0.33677 0.45973 0.0
C138 C 0.07149 0.39998 0.64288 0.0
C139 C 0.79806 0.40372 0.53725 0.0
O140 O 0.09413 0.44117 0.48713 0.0
O141 O 1.00772 0.44036 0.58161 0.0
O142 O 0.95861 0.41836 0.43883 0.0
O143 O 0.09042 0.40348 0.45658 0.0
O144 O 0.22407 0.41597 0.54484 0.0
O145 O 0.23229 0.39189 0.50441 0.0
O146 O 0.06929 0.36496 0.56257 0.0
O147 O 1.01404 0.36927 0.47019 0.0
O148 O 0.12747 0.38825 0.6203 0.0
O149 O 1.00101 0.40415 0.60345 0.0
O150 O 0.85923 0.39099 0.52901 0.0
O151 O 0.85134 0.41689 0.54439 0.0
H152 H 0.15045 0.46835 0.44634 0.0
H153 H 0.15197 0.49622 0.44706 0.0
H154 H 0.97217 0.49587 0.63113 0.0
H155 H 0.97272 0.46795 0.6309 0.0
H156 H 0.95859 0.34235 0.61605 0.0
H157 H 0.88092 0.3163 0.61897 0.0
H158 H 0.88733 0.31623 0.41777 0.0
H159 H 0.96704 0.34215 0.41474 0.0
La160 La 0.56838 0.91961 0.02496 0.0
La161 La 0.55598 0.88679 0.0205 0.0
C162 C 0.55609 0.94835 0.01881 0.0
C163 C 0.54786 0.96534 0.01822 0.0
C164 C 0.52192 0.97334 0.07434 0.0
C165 C 0.52322 0.98934 0.07555 0.0
C166 C 0.55066 0.99784 0.02069 0.0
C167 C 0.57344 0.98987 0.96415 0.0
C168 C 0.57272 0.97381 0.96299 0.0
C169 C 0.58551 0.90596 0.1358 0.0
C170 C 0.31975 0.90327 0.02734 0.0
C171 C 0.56675 0.85813 0.03858 0.0
C172 C 0.63692 0.84383 0.03498 0.0
C173 C 0.66451 0.83637 0.9777 0.0
C174 C 0.71108 0.82157 0.97616 0.0
C175 C 0.73127 0.8138 0.03176 0.0
C176 C 0.70667 0.82145 0.08885 0.0
C177 C 0.66015 0.83623 0.09039 0.0
C178 C 0.53476 0.8998 0.90913 0.0
C179 C 0.80795 0.90315 0.01495 0.0
O180 O 0.52047 0.94037 0.06808 0.0
O181 O 0.59467 0.94002 0.9711 0.0
O182 O 0.64827 0.91729 0.11395 0.0
O183 O 0.51541 0.90258 0.09531 0.0
O184 O 0.3825 0.91542 1.00858 0.0
O185 O 0.37292 0.89105 0.04665 0.0
O186 O 0.53869 0.86444 0.98677 0.0
O187 O 0.5867 0.86834 0.0808 0.0
O188 O 0.4775 0.88802 0.93124 0.0
O189 O 0.60556 0.90378 0.94878 0.0
O190 O 0.74587 0.89041 0.02337 0.0
O191 O 0.7556 0.91632 1.00757 0.0
H192 H 0.5025 0.96723 0.11784 0.0
H193 H 0.50269 0.99506 0.11967 0.0
H194 H 0.5947 0.99605 0.921 0.0
H195 H 0.59342 0.96804 0.919 0.0
H196 H 0.64641 0.84173 0.93404 0.0
H197 H 0.72942 0.81608 0.93134 0.0
H198 H 0.71858 0.81576 0.1327 0.0
H199 H 0.6375 0.84146 0.13535 0.0
La200 La 0.54466 0.17601 0.0267 0.0
La201 La 0.53255 0.14318 0.02246 0.0
C202 C 0.53399 0.20462 1.00726 0.0
C203 C 0.46686 0.21912 0.01389 0.0
C204 C 0.4371 0.22573 0.0727 0.0
C205 C 0.39381 0.24069 0.07739 0.0
C206 C 0.38003 0.2495 0.02349 0.0
C207 C 0.40487 0.24262 0.96481 0.0
C208 C 0.44812 0.22768 0.96012 0.0
C209 C 0.56451 0.16314 0.13841 0.0
C210 C 0.29256 0.1594 0.03396 0.0
C211 C 0.54663 0.11445 0.02816 0.0
C212 C 0.55581 0.09747 0.02896 0.0
C213 C 0.58146 0.0894 0.97297 0.0
C214 C 0.58322 0.0734 0.97241 0.0
C215 C 0.56026 0.06497 0.02789 0.0
C216 C 0.53545 0.07305 0.08404 0.0
C217 C 0.53307 0.08909 0.08454 0.0
C218 C 0.51719 0.15678 0.91146 0.0
C219 C 0.78057 0.15931 0.02188 0.0
O220 O 0.57109 0.19842 0.05727 0.0
O221 O 0.50435 0.19431 0.96741 0.0
O222 O 0.61949 0.17514 0.117 0.0
O223 O 0.49472 0.15903 0.09847 0.0
O224 O 0.35333 0.17227 0.02504 0.0
O225 O 0.34649 0.14635 0.04102 0.0
O226 O 0.58195 0.12248 0.97898 0.0
O227 O 0.5069 0.12272 0.07579 0.0
O228 O 0.45271 0.14563 0.93349 0.0
O229 O 0.58683 0.16018 0.95217 0.0
O230 O 0.71611 0.14738 0.04097 0.0
O231 O 0.72918 0.17162 1.00174 0.0
H232 H 0.45078 0.21954 0.1152 0.0
H233 H 0.37287 0.24545 0.12338 0.0
H234 H 0.39553 0.24902 0.9223 0.0
H235 H 0.4717 0.22303 0.91416 0.0
H236 H 0.59855 0.09546 0.92917 0.0
H237 H 0.60298 0.06759 0.9284 0.0
H238 H 0.5153 0.06695 0.1275 0.0
H239 H 0.51199 0.09492 0.12837 0.0
La240 La 0.55794 0.17649 0.52321 0.0
La241 La 0.56847 0.14376 0.52712 0.0
C242 C 0.57039 0.20505 0.54278 0.0
C243 C 0.63964 0.21947 0.53676 0.0
C244 C 0.66773 0.22647 0.47838 0.0
C245 C 0.71395 0.24134 0.47464 0.0
C246 C 0.73301 0.24962 0.52912 0.0
C247 C 0.70807 0.24242 0.5873 0.0
C248 C 0.6621 0.22756 0.59103 0.0
C249 C 0.53641 0.16388 0.41136 0.0
C250 C 0.80929 0.16021 0.51653 0.0
C251 C 0.554 0.11505 0.52155 0.0
C252 C 0.54434 0.09808 0.52131 0.0
C253 C 0.51553 0.09011 0.57742 0.0
C254 C 0.51416 0.07412 0.57894 0.0
C255 C 0.54076 0.06559 0.52429 0.0
C256 C 0.56915 0.07356 0.468 0.0
C257 C 0.57088 0.0896 0.46653 0.0
C258 C 0.58712 0.15717 0.63805 0.0
C259 C 0.32105 0.15997 0.52971 0.0
O260 O 0.53381 0.19895 0.49243 0.0
O261 O 0.59812 0.19467 0.58279 0.0
O262 O 0.48082 0.17567 0.43355 0.0
O263 O 0.6064 0.15967 0.451 0.0
O264 O 0.74806 0.17294 0.52471 0.0
O265 O 0.75594 0.14704 0.50957 0.0
O266 O 0.51739 0.12303 0.57035 0.0
O267 O 0.59471 0.12335 0.47391 0.0
O268 O 0.65008 0.14603 0.61565 0.0
O269 O 0.51641 0.16057 0.59796 0.0
O270 O 0.38324 0.14796 0.51002 0.0
O271 O 0.37502 0.17205 0.55019 0.0
H272 H 0.64993 0.22071 0.43556 0.0
H273 H 0.73014 0.24658 0.42905 0.0
H274 H 0.72219 0.24839 0.63019 0.0
H275 H 0.63979 0.22261 0.63671 0.0
H276 H 0.49637 0.09624 0.62074 0.0
H277 H 0.49491 0.06845 0.62342 0.0
H278 H 0.58994 0.06737 0.42499 0.0
H279 H 0.59424 0.09536 0.42262 0.0
La280 La 0.53358 0.92039 0.52099 0.0
La281 La 0.54402 0.88761 0.52379 0.0
C282 C 0.54799 0.94906 0.52922 0.0
C283 C 0.55752 0.96602 0.5315 0.0
C284 C 0.5865 0.9744 0.47645 0.0
C285 C 0.58587 0.9904 0.47684 0.0
C286 C 0.55601 0.9985 0.53225 0.0
C287 C 0.5302 0.9901 0.58773 0.0
C288 C 0.53045 0.97406 0.5873 0.0
C289 C 0.51646 0.9074 0.40923 0.0
C290 C 0.78089 0.90414 0.51736 0.0
C291 C 0.5316 0.85907 0.50372 0.0
C292 C 0.46323 0.84458 0.51066 0.0
C293 C 0.45458 0.83636 0.5673 0.0
C294 C 0.41042 0.82138 0.57005 0.0
C295 C 0.37497 0.81416 0.51614 0.0
C296 C 0.37848 0.82264 0.46027 0.0
C297 C 0.42248 0.83761 0.45752 0.0
C298 C 0.56509 0.90019 0.63591 0.0
C299 C 0.29272 0.90389 0.53019 0.0
O300 O 0.58437 0.94136 0.47955 0.0
O301 O 0.50745 0.94047 0.57603 0.0
O302 O 0.45384 0.91856 0.43188 0.0
O303 O 0.58582 0.90367 0.44961 0.0
O304 O 0.71881 0.9161 0.53771 0.0
O305 O 0.72675 0.89213 0.49642 0.0
O306 O 0.57146 0.86513 0.55333 0.0
O307 O 0.50089 0.8695 0.46465 0.0
O308 O 0.6204 0.88836 0.61383 0.0
O309 O 0.49482 0.90428 0.59632 0.0
O310 O 0.35398 0.89116 0.52205 0.0
O311 O 0.34593 0.91706 0.53754 0.0
H312 H 0.60708 0.9686 0.43251 0.0
H313 H 0.60584 0.99644 0.43322 0.0
H314 H 0.50959 0.99593 0.6316 0.0
H315 H 0.50796 0.96797 0.63054 0.0
H316 H 0.48635 0.84123 0.60908 0.0
H317 H 0.40885 0.81521 0.61387 0.0
H318 H 0.34937 0.81759 0.41818 0.0
H319 H 0.42893 0.84352 0.41301 0.0
C320 C 0.50746 0.39066 0.0384 0.0
C321 C 0.44687 0.40382 0.02171 0.0
C322 C 0.62952 0.39076 0.04209 0.0
C323 C 0.69751 0.40402 0.02907 0.0
H324 H 0.4602 0.38017 0.04941 0.0
H325 H 0.6708 0.38029 0.05523 0.0
S326 S 0.58322 0.44158 0.98226 0.0
N327 N 0.46668 0.43056 0.99132 0.0
N328 N 0.69347 0.43069 0.9982 0.0
C329 C 0.63818 0.41723 0.0119 0.0
C330 C 0.51409 0.41715 1.00825 0.0
C331 C 0.47385 0.64681 0.04349 0.0
C332 C 0.41298 0.66003 0.0278 0.0
C333 C 0.5959 0.64691 0.04714 0.0
C334 C 0.66358 0.66027 0.03584 0.0
H335 H 0.42703 0.6362 0.0527 0.0
H336 H 0.63745 0.63634 0.05879 0.0
S337 S 0.54745 0.69818 0.99462 0.0
N338 N 0.43139 0.68703 1.00188 0.0
N339 N 0.65824 0.68721 1.009 0.0
C340 C 0.60358 0.67362 0.02077 0.0
C341 C 0.47951 0.6735 0.01667 0.0
C342 C 0.62565 0.67293 0.53727 0.0
C343 C 0.69153 0.65942 0.52932 0.0
C344 C 0.50358 0.67302 0.53341 0.0
C345 C 0.4409 0.65959 0.52167 0.0
H346 H 0.66871 0.68362 0.54627 0.0
H347 H 0.45802 0.68374 0.5402 0.0
S348 S 0.57124 0.621 0.49842 0.0
N349 N 0.68325 0.63217 0.5097 0.0
N350 N 0.45652 0.63225 0.5026 0.0
C351 C 0.50606 0.64599 0.5137 0.0
C352 C 0.63013 0.64592 0.51745 0.0
C353 C 0.60107 0.41683 0.54522 0.0
C354 C 0.66719 0.40337 0.53583 0.0
C355 C 0.47902 0.41696 0.54174 0.0
C356 C 0.41661 0.40365 0.52816 0.0
H357 H 0.64387 0.42748 0.55516 0.0
H358 H 0.43344 0.42765 0.54934 0.0
S359 S 0.54638 0.36518 0.50117 0.0
N360 N 0.65859 0.37622 0.51349 0.0
N361 N 0.43167 0.37643 0.50671 0.0
C362 C 0.48151 0.39007 0.51908 0.0
C363 C 0.60559 0.38993 0.52299 0.0
C364 C 1.00611 0.9162 1.0064 0.0
C365 C 0.93873 0.90278 0.01653 0.0
C366 C 0.12814 0.9163 1.00996 0.0
C367 C 0.18927 0.903 0.02431 0.0
H368 H 0.96434 0.92683 0.99576 0.0
H369 H 0.17475 0.92696 1.00169 0.0
S370 S 0.0556 0.86465 0.05393 0.0
N371 N 0.94457 0.87569 0.04075 0.0
N372 N 0.17143 0.87585 0.04764 0.0
C373 C 0.12303 0.88946 0.03424 0.0
C374 C 0.99896 0.88936 0.03029 0.0
C375 C 0.10126 0.17238 0.01489 0.0
C376 C 0.16146 0.15935 0.03347 0.0
C377 C 0.97926 0.17225 1.0109 0.0
C378 C 0.9109 0.1591 0.02551 0.0
H379 H 0.14883 0.18277 1.00249 0.0
H380 H 0.93833 0.1826 0.9962 0.0
S381 S 1.02403 0.12197 0.07817 0.0
N382 N 0.14085 0.13291 0.06773 0.0
N383 N 0.91417 0.13271 0.06033 0.0
C384 C 0.96983 0.14604 0.04473 0.0
C385 C 0.09387 0.14616 0.04867 0.0
C386 C 0.1286 0.14705 0.51139 0.0
C387 C 0.19062 0.16028 0.52641 0.0
C388 C 1.00661 0.14718 0.50761 0.0
C389 C 0.94015 0.16057 0.51812 0.0
H390 H 0.17447 0.13641 0.50281 0.0
H391 H 0.96413 0.13659 0.49651 0.0
S392 S 0.05966 0.19855 0.55715 0.0
N393 N 0.17466 0.18735 0.55069 0.0
N394 N 0.94789 0.18757 0.54334 0.0
C395 C 1.00131 0.17394 0.53247 0.0
C396 C 0.12533 0.17379 0.53669 0.0
C397 C 0.97285 0.9169 0.53785 0.0
C398 C 0.9114 0.90383 0.52032 0.0
C399 C 0.09487 0.91677 0.54152 0.0
C400 C 0.1619 0.90353 0.52844 0.0
H401 H 0.92652 0.9274 0.54861 0.0
H402 H 0.13688 0.92722 0.55469 0.0
S403 S 1.0442 0.86605 0.48155 0.0
N404 N 0.92864 0.87711 0.49039 0.0
N405 N 0.15543 0.87687 0.49767 0.0
C406 C 0.10134 0.89033 0.51144 0.0
C407 C 0.97731 0.89049 0.50728 0.0
C408 C 0.0904 0.53925 0.07745 0.0
C409 C 0.05327 0.54816 0.02807 0.0
C410 C 0.08827 0.52319 0.07537 0.0
C411 C 1.04874 0.51527 0.02387 0.0
H412 H 0.12309 0.54475 0.11774 0.0
H413 H 0.11946 0.51691 0.11419 0.0
S414 S 0.93166 0.53314 0.88503 0.0
N415 N 0.96885 0.54774 0.92778 0.0
N416 N 0.96488 0.5177 0.92396 0.0
C417 C 1.00955 0.52404 0.97467 0.0
C418 C 1.01174 0.54039 0.97676 0.0
C419 C 1.02526 0.52325 0.4848 0.0
C420 C 0.05929 0.51548 0.538 0.0
C421 C 1.02088 0.53929 0.4824 0.0
C422 C 1.05009 0.54832 0.53314 0.0
H423 H 1.00021 0.51686 0.44482 0.0
H424 H 0.9928 0.54466 0.44069 0.0
S425 S 0.15473 0.53378 0.68134 0.0
N426 N 0.12926 0.51822 0.64129 0.0
N427 N 0.12098 0.54823 0.63688 0.0
C428 C 0.08588 0.54072 0.58628 0.0
C429 C 0.09042 0.52439 0.58869 0.0
C430 C 0.49859 1.02381 0.97971 0.0
C431 C 0.55591 1.01496 0.02267 0.0
C432 C 0.50056 0.03988 0.98166 0.0
C433 C 0.56008 0.04784 0.02662 0.0
H434 H 0.4501 1.01826 0.94484 0.0
H435 H 0.45355 0.04612 0.94815 0.0
S436 S 0.73437 1.03013 0.14556 0.0
N437 N 0.68076 1.01547 0.10883 0.0
N438 N 0.68442 0.04552 0.11242 0.0
C439 C 0.61969 0.03913 0.06902 0.0
C440 C 0.61768 1.02277 0.06704 0.0
C441 C 0.63537 0.04029 0.49649 0.0
C442 C 0.54191 0.04847 0.52642 0.0
C443 C 0.63959 1.02425 0.49896 0.0
C444 C 0.55059 1.01562 0.53148 0.0
H445 H 0.70697 0.04635 0.47165 0.0
H446 H 0.71408 1.01855 0.47568 0.0
S447 S 0.28149 0.03136 0.61322 0.0
N448 N 0.35479 0.04657 0.58669 0.0
N449 N 0.36266 1.01656 0.59126 0.0
C450 C 0.45585 1.02364 0.56089 0.0
C451 C 0.45153 0.03998 0.55837 0.0
C452 C 0.22466 0.28708 0.99302 0.0
C453 C 0.27484 0.29757 0.03294 0.0
C454 C 0.2583 0.27164 0.99056 0.0
C455 C 0.34359 0.26594 0.028 0.0
H456 H 0.1573 0.29078 0.96398 0.0
H457 H 0.21609 0.26406 0.95948 0.0
S458 S 0.50971 0.28887 0.13638 0.0
N459 N 0.41949 0.30122 0.10813 0.0
N460 N 0.4825 0.27235 0.10354 0.0
C461 C 0.39567 0.27635 0.06747 0.0
C462 C 0.36146 0.29207 0.06993 0.0
C463 C 0.71914 0.78668 0.99291 0.0
C464 C 0.77173 0.79752 0.03032 0.0
C465 C 0.75346 0.77127 0.99173 0.0
C466 C 0.84188 0.76595 0.02798 0.0
H467 H 0.64944 0.79007 0.96488 0.0
H468 H 0.70939 0.76341 0.96255 0.0
S469 S 1.01459 0.78988 0.12979 0.0
N470 N 0.9216 0.80191 0.10191 0.0
N471 N 0.98595 0.77309 0.09968 0.0
C472 C 0.89625 0.77671 0.06498 0.0
C473 C 0.86132 0.79241 0.06615 0.0
C474 C 0.226 0.77665 0.56915 0.0
C475 C 0.26991 0.76601 0.52414 0.0
C476 C 0.25973 0.79211 0.56615 0.0
C477 C 0.33866 0.79768 0.51788 0.0
H478 H 0.16358 0.77304 0.60669 0.0
H479 H 0.22258 0.79982 0.60162 0.0
S480 S 0.48723 0.77439 0.39142 0.0
N481 N 0.40207 0.7621 0.43176 0.0
N482 N 0.46508 0.79104 0.42605 0.0
C483 C 0.38444 0.78714 0.47304 0.0
C484 C 0.35023 0.77139 0.47615 0.0
C485 C 0.75077 0.29249 0.56176 0.0
C486 C 0.84368 0.29755 0.52015 0.0
C487 C 0.71613 0.27705 0.56442 0.0
C488 C 0.77299 0.26595 0.52572 0.0
H489 H 0.7034 0.30056 0.5921 0.0
H490 H 0.64296 0.27383 0.59658 0.0
S491 S 1.02834 0.27293 0.4127 0.0
N492 N 0.99645 0.28994 0.44198 0.0
N493 N 0.93151 0.26106 0.44702 0.0
C494 C 0.86711 0.27081 0.48457 0.0
C495 C 0.90235 0.28653 0.48182 0.0
C496 C 0.16564 0.40389 0.25002 0.0
C497 C 0.07063 0.40397 0.21222 0.0
C498 C 0.14941 0.40381 0.31608 0.0
C499 C 1.03726 0.40431 0.34729 0.0
H500 H 0.25367 0.40429 0.22826 0.0
H501 H 0.22537 0.40421 0.34275 0.0
S502 S 0.75907 0.40418 0.2709 0.0
N503 N 0.85998 0.40379 0.21184 0.0
N504 N 0.8296 0.40434 0.33502 0.0
C505 C 0.94164 0.40401 0.31011 0.0
C506 C 0.95814 0.40365 0.24298 0.0
C507 C 0.15977 0.66122 0.24478 0.0
C508 C 0.05864 0.66029 0.21161 0.0
C509 C 0.1543 0.66093 0.31089 0.0
C510 C 1.04693 0.66011 0.34687 0.0
H511 H 0.24399 0.66274 0.2193 0.0
H512 H 0.23405 0.66236 0.33386 0.0
S513 S 0.75669 0.65681 0.28393 0.0
N514 N 0.8483 0.65761 0.22078 0.0
N515 N 0.83739 0.65774 0.34417 0.0
C516 C 0.94563 0.65866 0.31435 0.0
C517 C 0.95149 0.65855 0.2471 0.0
C518 C 0.14583 0.65928 0.81559 0.0
C519 C 1.03389 0.65968 0.84704 0.0
C520 C 0.16139 0.65907 0.74956 0.0
C521 C 0.06613 0.6597 0.71202 0.0
H522 H 0.22165 0.65827 0.8421 0.0
H523 H 0.24889 0.65798 0.72764 0.0
S524 S 0.75556 0.66203 0.77144 0.0
N525 N 0.82649 0.6613 0.83537 0.0
N526 N 0.85593 0.66159 0.71212 0.0
C527 C 0.95428 0.66094 0.74299 0.0
C528 C 0.93825 0.66073 0.81014 0.0
C529 C 0.16477 0.40153 0.74506 0.0
C530 C 0.06428 0.40326 0.71187 0.0
C531 C 0.15965 0.40187 0.81114 0.0
C532 C 1.05312 0.40358 0.84717 0.0
H533 H 0.24798 0.39935 0.71964 0.0
H534 H 0.23853 0.3998 0.83411 0.0
S535 S 0.76523 0.40932 0.78432 0.0
N536 N 0.85592 0.40773 0.72113 0.0
N537 N 0.8454 0.40771 0.84454 0.0
C538 C 0.95275 0.40586 0.81467 0.0
C539 C 0.95843 0.4059 0.74739 0.0
C540 C 0.45581 0.90728 0.23614 0.0
C541 C 0.56399 0.90357 0.20494 0.0
C542 C 0.44067 0.90787 0.3021 0.0
C543 C 0.53218 0.90449 0.34 0.0
H544 H 0.38392 0.91054 0.20939 0.0
H545 H 0.35705 0.91145 0.32362 0.0
S546 S 0.83008 0.89283 0.28119 0.0
N547 N 0.76272 0.89577 0.21705 0.0
N548 N 0.73323 0.89627 0.34034 0.0
C549 C 0.63898 0.89995 0.30928 0.0
C550 C 0.65511 0.8997 0.24207 0.0
C551 C 0.44784 0.16169 0.24325 0.0
C552 C 0.55421 0.1598 0.20725 0.0
C553 C 0.44286 0.16217 0.30931 0.0
C554 C 0.54332 0.16043 0.34251 0.0
H555 H 0.36906 0.16379 0.22023 0.0
H556 H 0.35981 0.16449 0.33467 0.0
S557 S 0.84195 0.15399 0.27017 0.0
N558 N 0.76174 0.15552 0.20994 0.0
N559 N 0.75144 0.15578 0.33335 0.0
C560 C 0.64897 0.15762 0.30707 0.0
C561 C 0.65453 0.15751 0.23979 0.0
C562 C 0.44145 0.15888 0.80459 0.0
C563 C 0.53653 0.15954 0.84227 0.0
C564 C 0.45727 0.15923 0.73856 0.0
C565 C 0.56931 0.15979 0.70721 0.0
H566 H 0.35385 0.15768 0.8264 0.0
H567 H 0.38154 0.1582 0.71195 0.0
S568 S 0.84733 0.16227 0.78319 0.0
N569 N 0.74674 0.16163 0.8424 0.0
N570 N 0.77665 0.16159 0.71917 0.0
C571 C 0.66479 0.16086 0.74426 0.0
C572 C 0.64851 0.16094 0.81141 0.0
C573 C 0.44856 0.90249 0.74066 0.0
C574 C 0.556 0.90344 0.70481 0.0
C575 C 0.4428 0.90214 0.80678 0.0
C576 C 0.54368 0.90315 0.84013 0.0
H577 H 0.36898 0.90103 0.71756 0.0
H578 H 0.35853 0.90053 0.83211 0.0
S579 S 0.84567 0.907 0.76821 0.0
N580 N 0.76534 0.90603 0.70784 0.0
N581 N 0.75386 0.90605 0.83125 0.0
C582 C 0.65087 0.90501 0.80478 0.0
C583 C 0.65705 0.90496 0.7375 0.0
loop_
_geom_bond_atom_site_label_1
_geom_bond_atom_site_label_2
_geom_bond_distance
_geom_bond_site_symmetry_2
_ccdc_geom_bond_type
La0 C2 2.928 1_455 S
La0 O20 2.521 . S
La0 O21 2.628 1_454 S
La0 O22 2.554 . S
La0 O23 2.757 . S
La0 O24 2.470 1_455 S
La0 O29 2.482 1_554 S
La0 O31 2.503 . S
La1 C11 2.928 . S
La1 O23 2.482 . S
La1 O25 2.503 1_455 S
La1 O26 2.521 1_554 S
La1 O27 2.628 . S
La1 O28 2.554 1_554 S
La1 O29 2.757 1_554 S
La1 O30 2.470 1_554 S
C2 La0 2.928 1_655 S
C2 C3 1.503 . S
C2 O20 1.261 1_655 S
C2 O21 1.243 1_554 S
C3 C2 1.503 . S
C3 C4 1.394 . S
C3 C8 1.373 1_554 S
C4 C3 1.394 . S
C4 C5 1.380 . S
C4 H32 0.930 . S
C5 C4 1.380 . S
C5 C6 1.385 . S
C5 H33 0.930 . S
C6 C5 1.385 . S
C6 C7 1.362 1_554 S
C7 C6 1.362 1_556 S
C7 C8 1.396 . S
C7 H34 0.929 . S
C8 C3 1.373 1_556 S
C8 C7 1.396 . S
C8 H35 0.929 . S
C9 O22 1.240 . S
C9 O23 1.289 . S
C10 O24 1.258 . S
C10 O25 1.256 . S
C11 La1 2.928 . S
C11 C12 1.503 . S
C11 O26 1.261 1_554 S
C11 O27 1.243 . S
C12 C11 1.503 . S
C12 C13 1.394 1_554 S
C12 C17 1.373 . S
C13 C12 1.394 1_556 S
C13 C14 1.380 . S
C13 H36 0.930 . S
C14 C13 1.380 . S
C14 C15 1.376 1_556 S
C14 H37 0.930 . S
C15 C14 1.376 1_554 S
C15 C16 1.370 . S
C16 C15 1.370 . S
C16 C17 1.396 . S
C16 H38 0.929 . S
C17 C12 1.373 . S
C17 C16 1.396 . S
C17 H39 0.929 . S
C18 O28 1.240 . S
C18 O29 1.289 . S
C19 O30 1.258 1_554 S
C19 O31 1.256 . S
O20 La0 2.521 . S
O20 C2 1.261 1_455 S
O21 La0 2.628 1_656 S
O21 C2 1.243 1_556 S
O22 La0 2.554 . S
O22 C9 1.240 . S
O23 La0 2.757 . S
O23 La1 2.482 . S
O23 C9 1.289 . S
O24 La0 2.470 1_655 S
O24 C10 1.258 . S
O25 La1 2.503 1_655 S
O25 C10 1.256 . S
O26 La1 2.521 1_556 S
O26 C11 1.261 1_556 S
O27 La1 2.628 . S
O27 C11 1.243 . S
O28 La1 2.554 1_556 S
O28 C18 1.240 . S
O29 La0 2.482 1_556 S
O29 La1 2.757 1_556 S
O29 C18 1.289 . S
O30 La1 2.470 1_556 S
O30 C19 1.258 1_556 S
O31 La0 2.503 . S
O31 C19 1.256 . S
H32 C4 0.930 . S
H33 C5 0.930 . S
H34 C7 0.929 . S
H35 C8 0.929 . S
H36 C13 0.930 . S
H37 C14 0.930 . S
H38 C16 0.929 . S
H39 C17 0.929 . S
La40 C42 2.928 . S
La40 O60 2.521 . S
La40 O61 2.628 1_554 S
La40 O62 2.554 . S
La40 O63 2.757 . S
La40 O64 2.470 . S
La40 O69 2.482 1_554 S
La40 O71 2.503 1_655 S
La41 C51 2.928 1_655 S
La41 O63 2.482 . S
La41 O65 2.503 . S
La41 O66 2.521 1_554 S
La41 O67 2.628 1_655 S
La41 O68 2.554 1_554 S
La41 O69 2.757 1_554 S
La41 O70 2.470 1_654 S
C42 La40 2.928 . S
C42 C43 1.503 . S
C42 O60 1.261 . S
C42 O61 1.243 1_554 S
C43 C42 1.503 . S
C43 C44 1.394 . S
C43 C48 1.373 1_554 S
C44 C43 1.394 . S
C44 C45 1.380 . S
C44 H72 0.930 . S
C45 C44 1.380 . S
C45 C46 1.376 . S
C45 H73 0.930 . S
C46 C45 1.376 . S
C46 C47 1.370 1_554 S
C47 C46 1.370 1_556 S
C47 C48 1.396 . S
C47 H74 0.929 . S
C48 C43 1.373 1_556 S
C48 C47 1.396 . S
C48 H75 0.929 . S
C49 O62 1.240 . S
C49 O63 1.289 . S
C50 O64 1.258 . S
C50 O65 1.256 . S
C51 La41 2.928 1_455 S
C51 C52 1.503 . S
C51 O66 1.261 1_454 S
C51 O67 1.243 . S
C52 C51 1.503 . S
C52 C53 1.394 1_554 S
C52 C57 1.373 . S
C53 C52 1.394 1_556 S
C53 C54 1.380 . S
C53 H76 0.930 . S
C54 C53 1.380 . S
C54 C55 1.376 1_556 S
C54 H77 0.930 . S
C55 C54 1.376 1_554 S
C55 C56 1.370 . S
C56 C55 1.370 . S
C56 C57 1.396 . S
C56 H78 0.929 . S
C57 C52 1.373 . S
C57 C56 1.396 . S
C57 H79 0.929 . S
C58 O68 1.240 . S
C58 O69 1.289 . S
C59 O70 1.258 1_554 S
C59 O71 1.256 . S
O60 La40 2.521 . S
O60 C42 1.261 . S
O61 La40 2.628 1_556 S
O61 C42 1.243 1_556 S
O62 La40 2.554 . S
O62 C49 1.240 . S
O63 La40 2.757 . S
O63 La41 2.482 . S
O63 C49 1.289 . S
O64 La40 2.470 . S
O64 C50 1.258 . S
O65 La41 2.503 . S
O65 C50 1.256 . S
O66 La41 2.521 1_556 S
O66 C51 1.261 1_656 S
O67 La41 2.628 1_455 S
O67 C51 1.243 . S
O68 La41 2.554 1_556 S
O68 C58 1.240 . S
O69 La40 2.482 1_556 S
O69 La41 2.757 1_556 S
O69 C58 1.289 . S
O70 La41 2.470 1_456 S
O70 C59 1.258 1_556 S
O71 La40 2.503 1_455 S
O71 C59 1.256 . S
H72 C44 0.930 . S
H73 C45 0.930 . S
H74 C47 0.929 . S
H75 C48 0.929 . S
H76 C53 0.930 . S
H77 C54 0.930 . S
H78 C56 0.929 . S
H79 C57 0.929 . S
La80 C82 2.928 . S
La80 O100 2.521 . S
La80 O101 2.628 . S
La80 O102 2.554 . S
La80 O103 2.757 . S
La80 O104 2.470 . S
La80 O109 2.482 . S
La80 O111 2.503 1_455 S
La81 C91 2.928 1_455 S
La81 O103 2.482 . S
La81 O105 2.503 . S
La81 O106 2.521 . S
La81 O107 2.628 1_455 S
La81 O108 2.554 . S
La81 O109 2.757 . S
La81 O110 2.470 1_455 S
C82 La80 2.928 . S
C82 C83 1.503 . S
C82 O100 1.261 . S
C82 O101 1.243 . S
C83 C82 1.503 . S
C83 C84 1.394 . S
C83 C88 1.373 . S
C84 C83 1.394 . S
C84 C85 1.380 . S
C84 H112 0.930 . S
C85 C84 1.380 . S
C85 C86 1.376 . S
C85 H113 0.930 . S
C86 C85 1.376 . S
C86 C87 1.370 . S
C87 C86 1.370 . S
C87 C88 1.396 . S
C87 H114 0.929 . S
C88 C83 1.373 . S
C88 C87 1.396 . S
C88 H115 0.929 . S
C89 O102 1.240 . S
C89 O103 1.289 . S
C90 O104 1.258 . S
C90 O105 1.256 . S
C91 La81 2.928 1_655 S
C91 C92 1.503 . S
C91 O106 1.261 1_655 S
C91 O107 1.243 . S
C92 C91 1.503 . S
C92 C93 1.394 . S
C92 C97 1.373 . S
C93 C92 1.394 . S
C93 C94 1.380 . S
C93 H116 0.930 . S
C94 C93 1.380 . S
C94 C95 1.376 . S
C94 H117 0.930 . S
C95 C94 1.376 . S
C95 C96 1.370 . S
C96 C95 1.370 . S
C96 C97 1.396 . S
C96 H118 0.929 . S
C97 C92 1.373 . S
C97 C96 1.396 . S
C97 H119 0.929 . S
C98 O108 1.240 . S
C98 O109 1.289 . S
C99 O110 1.258 . S
C99 O111 1.256 . S
O100 La80 2.521 . S
O100 C82 1.261 . S
O101 La80 2.628 . S
O101 C82 1.243 . S
O102 La80 2.554 . S
O102 C89 1.240 . S
O103 La80 2.757 . S
O103 La81 2.482 . S
O103 C89 1.289 . S
O104 La80 2.470 . S
O104 C90 1.258 . S
O105 La81 2.503 . S
O105 C90 1.256 . S
O106 La81 2.521 . S
O106 C91 1.261 1_455 S
O107 La81 2.628 1_655 S
O107 C91 1.243 . S
O108 La81 2.554 . S
O108 C98 1.240 . S
O109 La80 2.482 . S
O109 La81 2.757 . S
O109 C98 1.289 . S
O110 La81 2.470 1_655 S
O110 C99 1.258 . S
O111 La80 2.503 1_655 S
O111 C99 1.256 . S
H112 C84 0.930 . S
H113 C85 0.930 . S
H114 C87 0.929 . S
H115 C88 0.929 . S
H116 C93 0.930 . S
H117 C94 0.930 . S
H118 C96 0.929 . S
H119 C97 0.929 . S
La120 C122 2.928 1_655 S
La120 O140 2.521 . S
La120 O141 2.628 1_655 S
La120 O142 2.554 . S
La120 O143 2.757 . S
La120 O144 2.470 1_655 S
La120 O149 2.482 . S
La120 O151 2.503 . S
La121 C131 2.928 . S
La121 O143 2.482 . S
La121 O145 2.503 1_655 S
La121 O146 2.521 . S
La121 O147 2.628 . S
La121 O148 2.554 . S
La121 O149 2.757 . S
La121 O150 2.470 . S
C122 La120 2.928 1_455 S
C122 C123 1.503 . S
C122 O140 1.261 1_455 S
C122 O141 1.243 . S
C123 C122 1.503 . S
C123 C124 1.394 . S
C123 C128 1.373 . S
C124 C123 1.394 . S
C124 C125 1.380 . S
C124 H152 0.930 . S
C125 C124 1.380 . S
C125 C126 1.376 . S
C125 H153 0.930 . S
C126 C125 1.376 . S
C126 C127 1.370 . S
C127 C126 1.370 . S
C127 C128 1.396 . S
C127 H154 0.929 . S
C128 C123 1.373 . S
C128 C127 1.396 . S
C128 H155 0.929 . S
C129 O142 1.240 . S
C129 O143 1.289 . S
C130 O144 1.258 . S
C130 O145 1.256 . S
C131 La121 2.928 . S
C131 C132 1.503 . S
C131 O146 1.261 . S
C131 O147 1.243 . S
C132 C131 1.503 . S
C132 C133 1.394 . S
C132 C137 1.373 . S
C133 C132 1.394 . S
C133 C134 1.380 . S
C133 H156 0.930 . S
C134 C133 1.380 . S
C134 C135 1.376 . S
C134 H157 0.930 . S
C135 C134 1.376 . S
C135 C136 1.370 . S
C136 C135 1.370 . S
C136 C137 1.396 . S
C136 H158 0.929 . S
C137 C132 1.373 . S
C137 C136 1.396 . S
C137 H159 0.929 . S
C138 O148 1.240 . S
C138 O149 1.289 . S
C139 O150 1.258 . S
C139 O151 1.256 . S
O140 La120 2.521 . S
O140 C122 1.261 1_655 S
O141 La120 2.628 1_455 S
O141 C122 1.243 . S
O142 La120 2.554 . S
O142 C129 1.240 . S
O143 La120 2.757 . S
O143 La121 2.482 . S
O143 C129 1.289 . S
O144 La120 2.470 1_455 S
O144 C130 1.258 . S
O145 La121 2.503 1_455 S
O145 C130 1.256 . S
O146 La121 2.521 . S
O146 C131 1.261 . S
O147 La121 2.628 . S
O147 C131 1.243 . S
O148 La121 2.554 . S
O148 C138 1.240 . S
O149 La120 2.482 . S
O149 La121 2.757 . S
O149 C138 1.289 . S
O150 La121 2.470 . S
O150 C139 1.258 . S
O151 La120 2.503 . S
O151 C139 1.256 . S
H152 C124 0.930 . S
H153 C125 0.930 . S
H154 C127 0.929 . S
H155 C128 0.929 . S
H156 C133 0.930 . S
H157 C134 0.930 . S
H158 C136 0.929 . S
H159 C137 0.929 . S
La160 C162 2.928 . S
La160 O180 2.521 . S
La160 O181 2.628 1_554 S
La160 O182 2.554 . S
La160 O183 2.757 . S
La160 O184 2.470 . S
La160 O189 2.482 1_554 S
La160 O191 2.503 . S
La161 C171 2.928 . S
La161 O183 2.482 . S
La161 O185 2.503 . S
La161 O186 2.521 1_554 S
La161 O187 2.628 . S
La161 O188 2.554 1_554 S
La161 O189 2.757 1_554 S
La161 O190 2.470 1_554 S
C162 La160 2.928 . S
C162 C163 1.503 . S
C162 O180 1.261 . S
C162 O181 1.243 1_554 S
C163 C162 1.503 . S
C163 C164 1.394 . S
C163 C168 1.373 1_554 S
C164 C163 1.394 . S
C164 C165 1.380 . S
C164 H192 0.930 . S
C165 C164 1.380 . S
C165 C166 1.386 . S
C165 H193 0.930 . S
C166 C165 1.386 . S
C166 C167 1.362 1_554 S
C167 C166 1.362 1_556 S
C167 C168 1.396 . S
C167 H194 0.929 . S
C168 C163 1.373 1_556 S
C168 C167 1.396 . S
C168 H195 0.929 . S
C169 O182 1.240 . S
C169 O183 1.289 . S
C170 O184 1.258 . S
C170 O185 1.256 . S
C171 La161 2.928 . S
C171 C172 1.503 . S
C171 O186 1.261 1_554 S
C171 O187 1.243 . S
C172 C171 1.503 . S
C172 C173 1.394 1_554 S
C172 C177 1.373 . S
C173 C172 1.394 1_556 S
C173 C174 1.380 . S
C173 H196 0.930 . S
C174 C173 1.380 . S
C174 C175 1.376 1_556 S
C174 H197 0.930 . S
C175 C174 1.376 1_554 S
C175 C176 1.370 . S
C176 C175 1.370 . S
C176 C177 1.396 . S
C176 H198 0.929 . S
C177 C172 1.373 . S
C177 C176 1.396 . S
C177 H199 0.929 . S
C178 O188 1.240 . S
C178 O189 1.289 . S
C179 O190 1.258 1_554 S
C179 O191 1.256 . S
O180 La160 2.521 . S
O180 C162 1.261 . S
O181 La160 2.628 1_556 S
O181 C162 1.243 1_556 S
O182 La160 2.554 . S
O182 C169 1.240 . S
O183 La160 2.757 . S
O183 La161 2.482 . S
O183 C169 1.289 . S
O184 La160 2.470 . S
O184 C170 1.258 . S
O185 La161 2.503 . S
O185 C170 1.256 . S
O186 La161 2.521 1_556 S
O186 C171 1.261 1_556 S
O187 La161 2.628 . S
O187 C171 1.243 . S
O188 La161 2.554 1_556 S
O188 C178 1.240 . S
O189 La160 2.482 1_556 S
O189 La161 2.757 1_556 S
O189 C178 1.289 . S
O190 La161 2.470 1_556 S
O190 C179 1.258 1_556 S
O191 La160 2.503 . S
O191 C179 1.256 . S
H192 C164 0.930 . S
H193 C165 0.930 . S
H194 C167 0.929 . S
H195 C168 0.929 . S
H196 C173 0.930 . S
H197 C174 0.930 . S
H198 C176 0.929 . S
H199 C177 0.929 . S
La200 C202 2.928 . S
La200 O220 2.521 . S
La200 O221 2.628 1_554 S
La200 O222 2.554 . S
La200 O223 2.757 . S
La200 O224 2.470 . S
La200 O229 2.482 1_554 S
La200 O231 2.503 . S
La201 C211 2.928 . S
La201 O223 2.482 . S
La201 O225 2.503 . S
La201 O226 2.521 1_554 S
La201 O227 2.628 . S
La201 O228 2.554 1_554 S
La201 O229 2.757 1_554 S
La201 O230 2.470 1_554 S
C202 La200 2.928 . S
C202 C203 1.503 . S
C202 O220 1.261 . S
C202 O221 1.243 1_554 S
C203 C202 1.503 . S
C203 C204 1.394 . S
C203 C208 1.373 1_554 S
C204 C203 1.394 . S
C204 C205 1.380 . S
C204 H232 0.930 . S
C205 C204 1.380 . S
C205 C206 1.376 . S
C205 H233 0.930 . S
C206 C205 1.376 . S
C206 C207 1.370 1_554 S
C207 C206 1.370 1_556 S
C207 C208 1.396 . S
C207 H234 0.929 . S
C208 C203 1.373 1_556 S
C208 C207 1.396 . S
C208 H235 0.929 . S
C209 O222 1.240 . S
C209 O223 1.289 . S
C210 O224 1.258 . S
C210 O225 1.256 . S
C211 La201 2.928 . S
C211 C212 1.503 . S
C211 O226 1.261 1_554 S
C211 O227 1.243 . S
C212 C211 1.503 . S
C212 C213 1.394 1_554 S
C212 C217 1.373 . S
C213 C212 1.394 1_556 S
C213 C214 1.380 . S
C213 H236 0.930 . S
C214 C213 1.380 . S
C214 C215 1.376 1_556 S
C214 H237 0.930 . S
C215 C214 1.376 1_554 S
C215 C216 1.370 . S
C216 C215 1.370 . S
C216 C217 1.396 . S
C216 H238 0.929 . S
C217 C212 1.373 . S
C217 C216 1.396 . S
C217 H239 0.929 . S
C218 O228 1.240 . S
C218 O229 1.289 . S
C219 O230 1.258 1_554 S
C219 O231 1.256 . S
O220 La200 2.521 . S
O220 C202 1.261 . S
O221 La200 2.628 1_556 S
O221 C202 1.243 1_556 S
O222 La200 2.554 . S
O222 C209 1.240 . S
O223 La200 2.757 . S
O223 La201 2.482 . S
O223 C209 1.289 . S
O224 La200 2.470 . S
O224 C210 1.258 . S
O225 La201 2.503 . S
O225 C210 1.256 . S
O226 La201 2.521 1_556 S
O226 C211 1.261 1_556 S
O227 La201 2.628 . S
O227 C211 1.243 . S
O228 La201 2.554 1_556 S
O228 C218 1.240 . S
O229 La200 2.482 1_556 S
O229 La201 2.757 1_556 S
O229 C218 1.289 . S
O230 La201 2.470 1_556 S
O230 C219 1.258 1_556 S
O231 La200 2.503 . S
O231 C219 1.256 . S
H232 C204 0.930 . S
H233 C205 0.930 . S
H234 C207 0.929 . S
H235 C208 0.929 . S
H236 C213 0.930 . S
H237 C214 0.930 . S
H238 C216 0.929 . S
H239 C217 0.929 . S
La240 C242 2.928 . S
La240 O260 2.521 . S
La240 O261 2.628 . S
La240 O262 2.554 . S
La240 O263 2.757 . S
La240 O264 2.470 . S
La240 O269 2.482 . S
La240 O271 2.503 . S
La241 C251 2.928 . S
La241 O263 2.482 . S
La241 O265 2.503 . S
La241 O266 2.521 . S
La241 O267 2.628 . S
La241 O268 2.554 . S
La241 O269 2.757 . S
La241 O270 2.470 . S
C242 La240 2.928 . S
C242 C243 1.503 . S
C242 O260 1.261 . S
C242 O261 1.243 . S
C243 C242 1.503 . S
C243 C244 1.394 . S
C243 C248 1.373 . S
C244 C243 1.394 . S
C244 C245 1.380 . S
C244 H272 0.930 . S
C245 C244 1.380 . S
C245 C246 1.376 . S
C245 H273 0.930 . S
C246 C245 1.376 . S
C246 C247 1.370 . S
C247 C246 1.370 . S
C247 C248 1.396 . S
C247 H274 0.929 . S
C248 C243 1.373 . S
C248 C247 1.396 . S
C248 H275 0.929 . S
C249 O262 1.240 . S
C249 O263 1.289 . S
C250 O264 1.258 . S
C250 O265 1.256 . S
C251 La241 2.928 . S
C251 C252 1.503 . S
C251 O266 1.261 . S
C251 O267 1.243 . S
C252 C251 1.503 . S
C252 C253 1.394 . S
C252 C257 1.373 . S
C253 C252 1.394 . S
C253 C254 1.380 . S
C253 H276 0.930 . S
C254 C253 1.380 . S
C254 C255 1.376 . S
C254 H277 0.930 . S
C255 C254 1.376 . S
C255 C256 1.370 . S
C256 C255 1.370 . S
C256 C257 1.396 . S
C256 H278 0.929 . S
C257 C252 1.373 . S
C257 C256 1.396 . S
C257 H279 0.929 . S
C258 O268 1.240 . S
C258 O269 1.289 . S
C259 O270 1.258 . S
C259 O271 1.256 . S
O260 La240 2.521 . S
O260 C242 1.261 . S
O261 La240 2.628 . S
O261 C242 1.243 . S
O262 La240 2.554 . S
O262 C249 1.240 . S
O263 La240 2.757 . S
O263 La241 2.482 . S
O263 C249 1.289 . S
O264 La240 2.470 . S
O264 C250 1.258 . S
O265 La241 2.503 . S
O265 C250 1.256 . S
O266 La241 2.521 . S
O266 C251 1.261 . S
O267 La241 2.628 . S
O267 C251 1.243 . S
O268 La241 2.554 . S
O268 C258 1.240 . S
O269 La240 2.482 . S
O269 La241 2.757 . S
O269 C258 1.289 . S
O270 La241 2.470 . S
O270 C259 1.258 . S
O271 La240 2.503 . S
O271 C259 1.256 . S
H272 C244 0.930 . S
H273 C245 0.930 . S
H274 C247 0.929 . S
H275 C248 0.929 . S
H276 C253 0.930 . S
H277 C254 0.930 . S
H278 C256 0.929 . S
H279 C257 0.929 . S
La280 C282 2.928 . S
La280 O300 2.521 . S
La280 O301 2.628 . S
La280 O302 2.554 . S
La280 O303 2.757 . S
La280 O304 2.470 . S
La280 O309 2.482 . S
La280 O311 2.503 . S
La281 C291 2.928 . S
La281 O303 2.482 . S
La281 O305 2.503 . S
La281 O306 2.521 . S
La281 O307 2.628 . S
La281 O308 2.554 . S
La281 O309 2.757 . S
La281 O310 2.470 . S
C282 La280 2.928 . S
C282 C283 1.503 . S
C282 O300 1.261 . S
C282 O301 1.243 . S
C283 C282 1.503 . S
C283 C284 1.394 . S
C283 C288 1.373 . S
C284 C283 1.394 . S
C284 C285 1.380 . S
C284 H312 0.930 . S
C285 C284 1.380 . S
C285 C286 1.376 . S
C285 H313 0.930 . S
C286 C285 1.376 . S
C286 C287 1.370 . S
C287 C286 1.370 . S
C287 C288 1.396 . S
C287 H314 0.929 . S
C288 C283 1.373 . S
C288 C287 1.396 . S
C288 H315 0.929 . S
C289 O302 1.240 . S
C289 O303 1.289 . S
C290 O304 1.258 . S
C290 O305 1.256 . S
C291 La281 2.928 . S
C291 C292 1.503 . S
C291 O306 1.261 . S
C291 O307 1.243 . S
C292 C291 1.503 . S
C292 C293 1.394 . S
C292 C297 1.373 . S
C293 C292 1.394 . S
C293 C294 1.380 . S
C293 H316 0.930 . S
C294 C293 1.380 . S
C294 C295 1.376 . S
C294 H317 0.930 . S
C295 C294 1.376 . S
C295 C296 1.370 . S
C296 C295 1.370 . S
C296 C297 1.396 . S
C296 H318 0.929 . S
C297 C292 1.373 . S
C297 C296 1.396 . S
C297 H319 0.929 . S
C298 O308 1.240 . S
C298 O309 1.289 . S
C299 O310 1.258 . S
C299 O311 1.256 . S
O300 La280 2.521 . S
O300 C282 1.261 . S
O301 La280 2.628 . S
O301 C282 1.243 . S
O302 La280 2.554 . S
O302 C289 1.240 . S
O303 La280 2.757 . S
O303 La281 2.482 . S
O303 C289 1.289 . S
O304 La280 2.470 . S
O304 C290 1.258 . S
O305 La281 2.503 . S
O305 C290 1.256 . S
O306 La281 2.521 . S
O306 C291 1.261 . S
O307 La281 2.628 . S
O307 C291 1.243 . S
O308 La281 2.554 . S
O308 C298 1.240 . S
O309 La280 2.482 . S
O309 La281 2.757 . S
O309 C298 1.289 . S
O310 La281 2.470 . S
O310 C299 1.258 . S
O311 La280 2.503 . S
O311 C299 1.256 . S
H312 C284 0.930 . S
H313 C285 0.930 . S
H314 C287 0.929 . S
H315 C288 0.929 . S
H316 C293 0.930 . S
H317 C294 0.930 . S
H318 C296 0.929 . S
H319 C297 0.929 . S
C320 C321 1.369 . S
C320 C322 1.419 . S
C320 H324 0.930 . S
C321 C320 1.369 . S
C321 C330 1.429 . S
C322 C320 1.419 . S
C322 C323 1.363 . S
C322 H325 0.929 . S
C323 C322 1.363 . S
C323 C329 1.428 . S
H324 C320 0.930 . S
H325 C322 0.929 . S
S326 N327 1.613 1_556 S
S326 N328 1.610 1_556 S
N327 S326 1.613 1_554 S
N327 C330 1.350 . S
N328 S326 1.610 1_554 S
N328 C329 1.351 . S
C329 C323 1.428 . S
C329 N328 1.351 . S
C329 C330 1.434 . S
C330 C321 1.429 . S
C330 N327 1.350 . S
C330 C329 1.434 . S
C331 C332 1.369 . S
C331 C333 1.419 . S
C331 H335 0.930 . S
C332 C331 1.369 . S
C332 C341 1.429 1_554 S
C333 C331 1.419 . S
C333 C334 1.363 . S
C333 H336 0.929 . S
C334 C333 1.363 . S
C334 C340 1.428 1_554 S
H335 C331 0.930 . S
H336 C333 0.929 . S
S337 N338 1.613 . S
S337 N339 1.610 . S
N338 S337 1.613 . S
N338 C341 1.350 . S
N339 S337 1.610 . S
N339 C340 1.351 . S
C340 C334 1.428 1_556 S
C340 N339 1.351 . S
C340 C341 1.434 . S
C341 C332 1.429 1_556 S
C341 N338 1.350 . S
C341 C340 1.434 . S
C342 C343 1.369 . S
C342 C344 1.419 . S
C342 H346 0.930 . S
C343 C342 1.369 . S
C343 C352 1.429 . S
C344 C342 1.419 . S
C344 C345 1.363 . S
C344 H347 0.929 . S
C345 C344 1.363 . S
C345 C351 1.428 . S
H346 C342 0.930 . S
H347 C344 0.929 . S
S348 N349 1.613 . S
S348 N350 1.610 . S
N349 S348 1.613 . S
N349 C352 1.350 . S
N350 S348 1.610 . S
N350 C351 1.351 . S
C351 C345 1.428 . S
C351 N350 1.351 . S
C351 C352 1.434 . S
C352 C343 1.429 . S
C352 N349 1.350 . S
C352 C351 1.434 . S
C353 C354 1.369 . S
C353 C355 1.419 . S
C353 H357 0.930 . S
C354 C353 1.369 . S
C354 C363 1.429 . S
C355 C353 1.419 . S
C355 C356 1.363 . S
C355 H358 0.929 . S
C356 C355 1.363 . S
C356 C362 1.428 . S
H357 C353 0.930 . S
H358 C355 0.929 . S
S359 N360 1.613 . S
S359 N361 1.610 . S
N360 S359 1.613 . S
N360 C363 1.350 . S
N361 S359 1.610 . S
N361 C362 1.351 . S
C362 C356 1.428 . S
C362 N361 1.351 . S
C362 C363 1.434 . S
C363 C354 1.429 . S
C363 N360 1.350 . S
C363 C362 1.434 . S
C364 C365 1.369 . S
C364 C366 1.419 1_655 S
C364 H368 0.930 . S
C365 C364 1.369 . S
C365 C374 1.429 1_654 S
C366 C364 1.419 1_455 S
C366 C367 1.363 . S
C366 H369 0.929 . S
C367 C366 1.363 . S
C367 C373 1.428 1_554 S
H368 C364 0.930 . S
H369 C366 0.929 . S
S370 N371 1.613 . S
S370 N372 1.610 . S
N371 S370 1.613 . S
N371 C374 1.350 . S
N372 S370 1.610 . S
N372 C373 1.351 . S
C373 C367 1.428 1_556 S
C373 N372 1.351 . S
C373 C374 1.434 . S
C374 C365 1.429 1_456 S
C374 N371 1.350 . S
C374 C373 1.434 . S
C375 C376 1.369 1_656 S
C375 C377 1.419 . S
C375 H379 0.930 1_655 S
C376 C375 1.369 1_454 S
C376 C385 1.429 . S
C377 C375 1.419 . S
C377 C378 1.363 1_556 S
C377 H380 0.929 . S
C378 C377 1.363 1_554 S
C378 C384 1.428 . S
H379 C375 0.930 1_455 S
H380 C377 0.929 . S
S381 N382 1.613 1_655 S
S381 N383 1.610 . S
N382 S381 1.613 1_455 S
N382 C385 1.350 . S
N383 S381 1.610 . S
N383 C384 1.351 . S
C384 C378 1.428 . S
C384 N383 1.351 . S
C384 C385 1.434 1_655 S
C385 C376 1.429 . S
C385 N382 1.350 . S
C385 C384 1.434 1_455 S
C386 C387 1.369 . S
C386 C388 1.419 1_455 S
C386 H390 0.930 . S
C387 C386 1.369 . S
C387 C396 1.429 . S
C388 C386 1.419 1_655 S
C388 C389 1.363 . S
C388 H391 0.929 . S
C389 C388 1.363 . S
C389 C395 1.428 1_655 S
H390 C386 0.930 . S
H391 C388 0.929 . S
S392 N393 1.613 . S
S392 N394 1.610 . S
N393 S392 1.613 . S
N393 C396 1.350 . S
N394 S392 1.610 . S
N394 C395 1.351 . S
C395 C389 1.428 1_455 S
C395 N394 1.351 . S
C395 C396 1.434 . S
C396 C387 1.429 . S
C396 N393 1.350 . S
C396 C395 1.434 . S
C397 C398 1.369 . S
C397 C399 1.419 . S
C397 H401 0.930 . S
C398 C397 1.369 . S
C398 C407 1.429 . S
C399 C397 1.419 . S
C399 C400 1.363 1_655 S
C399 H402 0.929 1_655 S
C400 C399 1.363 1_455 S
C400 C406 1.428 1_455 S
H401 C397 0.930 . S
H402 C399 0.929 1_455 S
S403 N404 1.613 . S
S403 N405 1.610 1_655 S
N404 S403 1.613 . S
N404 C407 1.350 . S
N405 S403 1.610 1_455 S
N405 C406 1.351 1_455 S
C406 C400 1.428 1_655 S
C406 N405 1.351 1_655 S
C406 C407 1.434 . S
C407 C398 1.429 . S
C407 N404 1.350 . S
C407 C406 1.434 . S
C408 C409 1.369 . S
C408 C410 1.419 . S
C408 H412 0.930 . S
C409 C408 1.369 . S
C409 C418 1.429 1_454 S
C410 C408 1.419 . S
C410 C411 1.363 1_455 S
C410 H413 0.929 . S
C411 C410 1.363 1_655 S
C411 C417 1.428 1_554 S
H412 C408 0.930 . S
H413 C410 0.929 . S
S414 N415 1.613 . S
S414 N416 1.610 . S
N415 S414 1.613 . S
N415 C418 1.350 . S
N416 S414 1.610 . S
N416 C417 1.351 . S
C417 C411 1.428 1_556 S
C417 N416 1.351 . S
C417 C418 1.434 . S
C418 C409 1.429 1_656 S
C418 N415 1.350 . S
C418 C417 1.434 . S
C419 C420 1.369 . S
C419 C421 1.419 1_455 S
C419 H423 0.930 . S
C420 C419 1.369 . S
C420 C429 1.429 . S
C421 C419 1.419 1_655 S
C421 C422 1.363 . S
C421 H424 0.929 . S
C422 C421 1.363 . S
C422 C428 1.428 . S
H423 C419 0.930 . S
H424 C421 0.929 . S
S425 N426 1.613 . S
S425 N427 1.610 1_455 S
N426 S425 1.613 . S
N426 C429 1.350 . S
N427 S425 1.610 1_655 S
N427 C428 1.351 . S
C428 C422 1.428 . S
C428 N427 1.351 . S
C428 C429 1.434 1_655 S
C429 C420 1.429 . S
C429 N426 1.350 . S
C429 C428 1.434 1_455 S
C430 C431 1.369 1_545 S
C430 C432 1.419 . S
C430 H434 0.930 . S
C431 C430 1.369 1_565 S
C431 C440 1.429 . S
C432 C430 1.419 . S
C432 C433 1.363 . S
C432 H435 0.929 . S
C433 C432 1.363 . S
C433 C439 1.428 1_545 S
H434 C430 0.930 . S
H435 C432 0.929 . S
S436 N437 1.614 . S
S436 N438 1.610 . S
N437 S436 1.614 . S
N437 C440 1.350 . S
N438 S436 1.610 . S
N438 C439 1.351 . S
C439 C433 1.428 1_565 S
C439 N438 1.351 . S
C439 C440 1.434 . S
C440 C431 1.429 . S
C440 N437 1.350 . S
C440 C439 1.434 . S
C441 C442 1.369 . S
C441 C443 1.419 1_545 S
C441 H445 0.930 . S
C442 C441 1.369 . S
C442 C451 1.429 . S
C443 C441 1.419 1_565 S
C443 C444 1.363 . S
C443 H446 0.929 . S
C444 C443 1.363 . S
C444 C450 1.428 . S
H445 C441 0.930 . S
H446 C443 0.929 . S
S447 N448 1.554 1_565 S
S447 N449 1.610 . S
N448 S447 1.554 1_545 S
N448 C451 1.353 . S
N449 S447 1.610 . S
N449 C450 1.351 . S
C450 C444 1.428 . S
C450 N449 1.351 . S
C450 C451 1.434 1_565 S
C451 C442 1.429 . S
C451 N448 1.353 . S
C451 C450 1.434 1_545 S
C452 C453 1.369 1_556 S
C452 C454 1.419 . S
C452 H456 0.930 . S
C453 C452 1.369 1_554 S
C453 C462 1.429 . S
C454 C452 1.419 . S
C454 C455 1.363 1_556 S
C454 H457 0.929 . S
C455 C454 1.363 1_554 S
C455 C461 1.428 . S
H456 C452 0.930 . S
H457 C454 0.929 . S
S458 N459 1.613 . S
S458 N460 1.610 . S
N459 S458 1.613 . S
N459 C462 1.350 . S
N460 S458 1.610 . S
N460 C461 1.351 . S
C461 C455 1.428 . S
C461 N460 1.351 . S
C461 C462 1.434 . S
C462 C453 1.429 . S
C462 N459 1.350 . S
C462 C461 1.434 . S
C463 C464 1.369 1_556 S
C463 C465 1.419 . S
C463 H467 0.930 . S
C464 C463 1.369 1_554 S
C464 C473 1.429 . S
C465 C463 1.419 . S
C465 C466 1.363 1_556 S
C465 H468 0.929 . S
C466 C465 1.363 1_554 S
C466 C472 1.428 . S
H467 C463 0.930 . S
H468 C465 0.929 . S
S469 N470 1.613 . S
S469 N471 1.610 . S
N470 S469 1.613 . S
N470 C473 1.350 . S
N471 S469 1.610 . S
N471 C472 1.351 . S
C472 C466 1.428 . S
C472 N471 1.351 . S
C472 C473 1.434 . S
C473 C464 1.429 . S
C473 N470 1.350 . S
C473 C472 1.434 . S
C474 C475 1.369 . S
C474 C476 1.419 . S
C474 H478 0.930 . S
C475 C474 1.369 . S
C475 C484 1.429 . S
C476 C474 1.419 . S
C476 C477 1.363 . S
C476 H479 0.929 . S
C477 C476 1.363 . S
C477 C483 1.428 . S
H478 C474 0.930 . S
H479 C476 0.929 . S
S480 N481 1.613 . S
S480 N482 1.610 . S
N481 S480 1.613 . S
N481 C484 1.350 . S
N482 S480 1.610 . S
N482 C483 1.351 . S
C483 C477 1.428 . S
C483 N482 1.351 . S
C483 C484 1.434 . S
C484 C475 1.429 . S
C484 N481 1.350 . S
C484 C483 1.434 . S
C485 C486 1.369 . S
C485 C487 1.419 . S
C485 H489 0.930 . S
C486 C485 1.369 . S
C486 C495 1.429 . S
C487 C485 1.419 . S
C487 C488 1.363 . S
C487 H490 0.929 . S
C488 C487 1.363 . S
C488 C494 1.428 . S
H489 C485 0.930 . S
H490 C487 0.929 . S
S491 N492 1.613 . S
S491 N493 1.610 . S
N492 S491 1.613 . S
N492 C495 1.350 . S
N493 S491 1.610 . S
N493 C494 1.351 . S
C494 C488 1.428 . S
C494 N493 1.351 . S
C494 C495 1.434 . S
C495 C486 1.429 . S
C495 N492 1.350 . S
C495 C494 1.434 . S
C496 C497 1.369 . S
C496 C498 1.419 . S
C496 H500 0.930 . S
C497 C496 1.369 . S
C497 C506 1.429 1_455 S
C498 C496 1.419 . S
C498 C499 1.363 1_455 S
C498 H501 0.929 . S
C499 C498 1.363 1_655 S
C499 C505 1.428 . S
H500 C496 0.930 . S
H501 C498 0.929 . S
S502 N503 1.613 . S
S502 N504 1.610 . S
N503 S502 1.613 . S
N503 C506 1.350 . S
N504 S502 1.610 . S
N504 C505 1.351 . S
C505 C499 1.428 . S
C505 N504 1.351 . S
C505 C506 1.434 . S
C506 C497 1.429 1_655 S
C506 N503 1.350 . S
C506 C505 1.434 . S
C507 C508 1.369 1_455 S
C507 C509 1.419 . S
C507 H511 0.930 . S
C508 C507 1.369 1_655 S
C508 C517 1.429 . S
C509 C507 1.419 . S
C509 C510 1.363 . S
C509 H512 0.929 . S
C510 C509 1.363 . S
C510 C516 1.428 1_455 S
H511 C507 0.930 . S
H512 C509 0.929 . S
S513 N514 1.613 . S
S513 N515 1.610 . S
N514 S513 1.613 . S
N514 C517 1.350 . S
N515 S513 1.610 . S
N515 C516 1.351 . S
C516 C510 1.428 1_655 S
C516 N515 1.351 . S
C516 C517 1.434 . S
C517 C508 1.429 . S
C517 N514 1.350 . S
C517 C516 1.434 . S
C518 C519 1.369 1_455 S
C518 C520 1.419 . S
C518 H522 0.930 . S
C519 C518 1.369 1_655 S
C519 C528 1.429 . S
C520 C518 1.419 . S
C520 C521 1.363 . S
C520 H523 0.929 . S
C521 C520 1.363 . S
C521 C527 1.428 1_455 S
H522 C518 0.930 . S
H523 C520 0.929 . S
S524 N525 1.613 . S
S524 N526 1.610 . S
N525 S524 1.613 . S
N525 C528 1.350 . S
N526 S524 1.610 . S
N526 C527 1.351 . S
C527 C521 1.428 1_655 S
C527 N526 1.351 . S
C527 C528 1.434 . S
C528 C519 1.429 . S
C528 N525 1.350 . S
C528 C527 1.434 . S
C529 C530 1.369 1_455 S
C529 C531 1.419 . S
C529 H533 0.930 . S
C530 C529 1.369 1_655 S
C530 C539 1.429 . S
C531 C529 1.419 . S
C531 C532 1.363 . S
C531 H534 0.929 . S
C532 C531 1.363 . S
C532 C538 1.428 1_455 S
H533 C529 0.930 . S
H534 C531 0.929 . S
S535 N536 1.613 . S
S535 N537 1.610 . S
N536 S535 1.613 . S
N536 C539 1.350 . S
N537 S535 1.610 . S
N537 C538 1.351 . S
C538 C532 1.428 1_655 S
C538 N537 1.351 . S
C538 C539 1.434 . S
C539 C530 1.429 . S
C539 N536 1.350 . S
C539 C538 1.434 . S
C540 C541 1.369 . S
C540 C542 1.419 . S
C540 H544 0.930 . S
C541 C540 1.369 . S
C541 C550 1.429 . S
C542 C540 1.419 . S
C542 C543 1.363 . S
C542 H545 0.929 . S
C543 C542 1.363 . S
C543 C549 1.428 . S
H544 C540 0.930 . S
H545 C542 0.929 . S
S546 N547 1.613 . S
S546 N548 1.610 . S
N547 S546 1.613 . S
N547 C550 1.350 . S
N548 S546 1.610 . S
N548 C549 1.351 . S
C549 C543 1.428 . S
C549 N548 1.351 . S
C549 C550 1.434 . S
C550 C541 1.429 . S
C550 N547 1.350 . S
C550 C549 1.434 . S
C551 C552 1.369 . S
C551 C553 1.419 . S
C551 H555 0.930 . S
C552 C551 1.369 . S
C552 C561 1.429 . S
C553 C551 1.419 . S
C553 C554 1.363 . S
C553 H556 0.929 . S
C554 C553 1.363 . S
C554 C560 1.428 . S
H555 C551 0.930 . S
H556 C553 0.929 . S
S557 N558 1.613 . S
S557 N559 1.610 . S
N558 S557 1.613 . S
N558 C561 1.350 . S
N559 S557 1.610 . S
N559 C560 1.351 . S
C560 C554 1.428 . S
C560 N559 1.351 . S
C560 C561 1.434 . S
C561 C552 1.429 . S
C561 N558 1.350 . S
C561 C560 1.434 . S
C562 C563 1.369 . S
C562 C564 1.419 . S
C562 H566 0.930 . S
C563 C562 1.369 . S
C563 C572 1.429 . S
C564 C562 1.419 . S
C564 C565 1.363 . S
C564 H567 0.929 . S
C565 C564 1.363 . S
C565 C571 1.428 . S
H566 C562 0.930 . S
H567 C564 0.929 . S
S568 N569 1.613 . S
S568 N570 1.610 . S
N569 S568 1.613 . S
N569 C572 1.350 . S
N570 S568 1.610 . S
N570 C571 1.351 . S
C571 C565 1.428 . S
C571 N570 1.351 . S
C571 C572 1.434 . S
C572 C563 1.429 . S
C572 N569 1.350 . S
C572 C571 1.434 . S
C573 C574 1.369 . S
C573 C575 1.419 . S
C573 H577 0.930 . S
C574 C573 1.369 . S
C574 C583 1.429 . S
C575 C573 1.419 . S
C575 C576 1.363 . S
C575 H578 0.929 . S
C576 C575 1.363 . S
C576 C582 1.428 . S
H577 C573 0.930 . S
H578 C575 0.929 . S
S579 N580 1.613 . S
S579 N581 1.610 . S
N580 S579 1.613 . S
N580 C583 1.350 . S
N581 S579 1.610 . S
N581 C582 1.351 . S
C582 C576 1.428 . S
C582 N581 1.351 . S
C582 C583 1.434 . S
C583 C574 1.429 . S
C583 N580 1.350 . S
C583 C582 1.434 . S
C321 C19 2.248 . S
C323 C10 2.254 . S
C332 C59 2.248 . S
C334 C50 2.254 . S
C343 C99 2.252 . S
C345 C90 2.251 . S
C354 C139 2.253 . S
C356 C130 2.250 . S
C365 C179 2.254 . S
C367 C170 2.249 . S
C376 C210 2.248 . S
C378 C219 2.254 . S
C387 C259 2.248 . S
C389 C250 2.254 . S
C398 C290 2.248 . S
C400 C299 2.254 . S
C409 C55 2.902 . S
C411 C6 2.911 . S
C420 C126 2.906 . S
C422 C95 2.905 . S
C431 C166 2.902 . S
C433 C215 2.909 . S
C442 C255 2.907 . S
C444 C286 2.906 . S
C453 C15 2.027 . S
C455 C206 2.019 . S
C464 C175 2.027 . S
C466 C46 2.019 . S
C475 C86 2.024 . S
C477 C295 2.021 . S
C486 C135 2.021 . S
C488 C246 2.023 . S
C497 C9 1.488 . S
C499 C129 1.490 . S
C508 C49 1.574 . S
C510 C89 1.570 . S
C519 C58 1.494 . S
C521 C98 1.492 . S
C530 C138 1.579 . S
C532 C18 1.576 . S
C541 C169 1.498 . S
C543 C289 1.497 . S
C552 C209 1.576 . S
C554 C249 1.578 . S
C563 C218 1.495 . S
C565 C258 1.496 . S
C574 C298 1.572 . S
C576 C178 1.578 . S
