# Generated by pormake.
# Topology wiv, (6)-cn, num edge types: 1
# Building blocks:
#     Node 0, Type 0, BuildingBlock: BETFAJ_clean_sbu_0, # of connection points: 6
#     Node 1, Type 0, BuildingBlock: BETFAJ_clean_sbu_0, # of connection points: 6
#     Node 2, Type 0, BuildingBlock: BETFAJ_clean_sbu_0, # of connection points: 6
#     Node 3, Type 0, BuildingBlock: BETFAJ_clean_sbu_0, # of connection points: 6
#     Node 4, Type 0, BuildingBlock: BETFAJ_clean_sbu_0, # of connection points: 6
#     Node 5, Type 0, BuildingBlock: BETFAJ_clean_sbu_0, # of connection points: 6
#     Node 6, Type 0, BuildingBlock: BETFAJ_clean_sbu_0, # of connection points: 6
#     Node 7, Type 0, BuildingBlock: BETFAJ_clean_sbu_0, # of connection points: 6
#     Node 8, Type 0, BuildingBlock: BETFAJ_clean_sbu_0, # of connection points: 6
#     Node 9, Type 0, BuildingBlock: BETFAJ_clean_sbu_0, # of connection points: 6
#     Node 10, Type 0, BuildingBlock: BETFAJ_clean_sbu_0, # of connection points: 6
#     Node 11, Type 0, BuildingBlock: BETFAJ_clean_sbu_0, # of connection points: 6
#     Node 12, Type 0, BuildingBlock: BETFAJ_clean_sbu_0, # of connection points: 6
#     Node 13, Type 0, BuildingBlock: BETFAJ_clean_sbu_0, # of connection points: 6
#     Node 14, Type 0, BuildingBlock: BETFAJ_clean_sbu_0, # of connection points: 6
#     Node 15, Type 0, BuildingBlock: BETFAJ_clean_sbu_0, # of connection points: 6
#     Edge 16, Type (0, 0), BuildingBlock: XIVTED_clean_linker_0, # of connection points: 2
#     Edge 17, Type (0, 0), BuildingBlock: XIVTED_clean_linker_0, # of connection points: 2
#     Edge 18, Type (0, 0), BuildingBlock: XIVTED_clean_linker_0, # of connection points: 2
#     Edge 19, Type (0, 0), BuildingBlock: XIVTED_clean_linker_0, # of connection points: 2
#     Edge 20, Type (0, 0), BuildingBlock: XIVTED_clean_linker_0, # of connection points: 2
#     Edge 21, Type (0, 0), BuildingBlock: XIVTED_clean_linker_0, # of connection points: 2
#     Edge 22, Type (0, 0), BuildingBlock: XIVTED_clean_linker_0, # of connection points: 2
#     Edge 23, Type (0, 0), BuildingBlock: XIVTED_clean_linker_0, # of connection points: 2
#     Edge 24, Type (0, 0), BuildingBlock: XIVTED_clean_linker_0, # of connection points: 2
#     Edge 25, Type (0, 0), BuildingBlock: XIVTED_clean_linker_0, # of connection points: 2
#     Edge 26, Type (0, 0), BuildingBlock: XIVTED_clean_linker_0, # of connection points: 2
#     Edge 27, Type (0, 0), BuildingBlock: XIVTED_clean_linker_0, # of connection points: 2
#     Edge 28, Type (0, 0), BuildingBlock: XIVTED_clean_linker_0, # of connection points: 2
#     Edge 29, Type (0, 0), BuildingBlock: XIVTED_clean_linker_0, # of connection points: 2
#     Edge 30, Type (0, 0), BuildingBlock: XIVTED_clean_linker_0, # of connection points: 2
#     Edge 31, Type (0, 0), BuildingBlock: XIVTED_clean_linker_0, # of connection points: 2
#     Edge 32, Type (0, 0), BuildingBlock: XIVTED_clean_linker_0, # of connection points: 2
#     Edge 33, Type (0, 0), BuildingBlock: XIVTED_clean_linker_0, # of connection points: 2
#     Edge 34, Type (0, 0), BuildingBlock: XIVTED_clean_linker_0, # of connection points: 2
#     Edge 35, Type (0, 0), BuildingBlock: XIVTED_clean_linker_0, # of connection points: 2
#     Edge 36, Type (0, 0), BuildingBlock: XIVTED_clean_linker_0, # of connection points: 2
#     Edge 37, Type (0, 0), BuildingBlock: XIVTED_clean_linker_0, # of connection points: 2
#     Edge 38, Type (0, 0), BuildingBlock: XIVTED_clean_linker_0, # of connection points: 2
#     Edge 39, Type (0, 0), BuildingBlock: XIVTED_clean_linker_0, # of connection points: 2
#     Edge 40, Type (0, 0), BuildingBlock: XIVTED_clean_linker_0, # of connection points: 2
#     Edge 41, Type (0, 0), BuildingBlock: XIVTED_clean_linker_0, # of connection points: 2
#     Edge 42, Type (0, 0), BuildingBlock: XIVTED_clean_linker_0, # of connection points: 2
#     Edge 43, Type (0, 0), BuildingBlock: XIVTED_clean_linker_0, # of connection points: 2
#     Edge 44, Type (0, 0), BuildingBlock: XIVTED_clean_linker_0, # of connection points: 2
#     Edge 45, Type (0, 0), BuildingBlock: XIVTED_clean_linker_0, # of connection points: 2
#     Edge 46, Type (0, 0), BuildingBlock: XIVTED_clean_linker_0, # of connection points: 2
#     Edge 47, Type (0, 0), BuildingBlock: XIVTED_clean_linker_0, # of connection points: 2
#     Edge 48, Type (0, 0), BuildingBlock: XIVTED_clean_linker_0, # of connection points: 2
#     Edge 49, Type (0, 0), BuildingBlock: XIVTED_clean_linker_0, # of connection points: 2
#     Edge 50, Type (0, 0), BuildingBlock: XIVTED_clean_linker_0, # of connection points: 2
#     Edge 51, Type (0, 0), BuildingBlock: XIVTED_clean_linker_0, # of connection points: 2
#     Edge 52, Type (0, 0), BuildingBlock: XIVTED_clean_linker_0, # of connection points: 2
#     Edge 53, Type (0, 0), BuildingBlock: XIVTED_clean_linker_0, # of connection points: 2
#     Edge 54, Type (0, 0), BuildingBlock: XIVTED_clean_linker_0, # of connection points: 2
#     Edge 55, Type (0, 0), BuildingBlock: XIVTED_clean_linker_0, # of connection points: 2
#     Edge 56, Type (0, 0), BuildingBlock: XIVTED_clean_linker_0, # of connection points: 2
#     Edge 57, Type (0, 0), BuildingBlock: XIVTED_clean_linker_0, # of connection points: 2
#     Edge 58, Type (0, 0), BuildingBlock: XIVTED_clean_linker_0, # of connection points: 2
#     Edge 59, Type (0, 0), BuildingBlock: XIVTED_clean_linker_0, # of connection points: 2
#     Edge 60, Type (0, 0), BuildingBlock: XIVTED_clean_linker_0, # of connection points: 2
#     Edge 61, Type (0, 0), BuildingBlock: XIVTED_clean_linker_0, # of connection points: 2
#     Edge 62, Type (0, 0), BuildingBlock: XIVTED_clean_linker_0, # of connection points: 2
#     Edge 63, Type (0, 0), BuildingBlock: XIVTED_clean_linker_0, # of connection points: 2
# Relax obj value: 0.126
# Max RMSD: 0.181
# Mean RMSD: 0.181
data_MOF--net-wiv--node1-BETFAJ_clean_sbu_0--edge1-XIVTED_clean_linker_0
_symmetry_space_group_name_H-M    P1
_symmetry_Int_Tables_number       1
_symmetry_cell_setting            triclinic
loop_
_symmetry_equiv_pos_as_xyz
'x, y, z'
_cell_length_a     51.544806
_cell_length_b     51.59045
_cell_length_c     25.099817
_cell_angle_alpha  89.99672
_cell_angle_beta   89.948921
_cell_angle_gamma 89.978761
loop_
_atom_site_label
_atom_site_type_symbol
_atom_site_fract_x
_atom_site_fract_y
_atom_site_fract_z
_atom_type_partial_charge
Sm0 Sm 0.34641 0.10577 0.1615 0.0
Sm1 Sm 0.38428 0.11177 0.07221 0.0
C2 C 0.3241 0.09405 0.2541 0.0
C3 C 0.33118 0.09514 0.31134 0.0
C4 C 0.35628 0.08882 0.32902 0.0
C5 C 0.36269 0.09058 0.38323 0.0
C6 C 0.34419 0.09877 0.42105 0.0
C7 C 0.31906 0.10497 0.40303 0.0
C8 C 0.31267 0.10317 0.34888 0.0
C9 C 0.34943 0.15592 0.12402 0.0
C10 C 0.40892 0.11788 0.18726 0.0
C11 C 0.40739 0.12234 0.98 0.0
C12 C 0.40052 0.12045 0.92268 0.0
C13 C 0.37575 0.1274 0.90411 0.0
C14 C 0.36946 0.12506 0.84997 0.0
C15 C 0.38781 0.11579 0.81291 0.0
C16 C 0.41262 0.10889 0.83177 0.0
C17 C 0.41886 0.11118 0.88596 0.0
C18 C 0.38306 0.06308 0.11767 0.0
C19 C 0.32219 0.10037 0.04352 0.0
O20 O 0.33623 0.07709 0.22438 0.0
O21 O 0.32095 0.11627 0.23006 0.0
O22 O 0.3687 0.14117 0.1316 0.0
O23 O 0.3279 0.14407 0.13528 0.0
O24 O 0.38694 0.10701 0.20308 0.0
O25 O 0.41189 0.12578 0.13763 0.0
O26 O 0.39501 0.13968 1.00842 0.0
O27 O 0.41055 0.10046 1.00546 0.0
O28 O 0.36342 0.07654 0.10565 0.0
O29 O 0.40427 0.07495 0.10411 0.0
O30 O 0.34491 0.10956 0.02834 0.0
O31 O 0.31776 0.09449 0.0941 0.0
H32 H 0.37099 0.08267 0.30094 0.0
H33 H 0.38231 0.08594 0.39533 0.0
H34 H 0.30417 0.11098 0.43087 0.0
H35 H 0.29319 0.10813 0.33626 0.0
H36 H 0.36115 0.13454 0.93147 0.0
H37 H 0.35004 0.13019 0.83735 0.0
H38 H 0.42741 0.10202 0.80455 0.0
H39 H 0.4381 0.10572 0.89922 0.0
Sm40 Sm 0.11023 0.62125 0.97666 0.0
Sm41 Sm 0.10774 0.65862 0.88612 0.0
C42 C 0.11954 0.59769 0.06878 0.0
C43 C 0.11914 0.60473 0.12591 0.0
C44 C 0.12735 0.62925 0.14345 0.0
C45 C 0.12606 0.63582 0.19755 0.0
C46 C 0.11663 0.61797 0.23535 0.0
C47 C 0.10857 0.59338 0.21753 0.0
C48 C 0.10978 0.58687 0.16341 0.0
C49 C 0.06215 0.62432 0.92907 0.0
C50 C 0.10165 0.68374 1.00359 0.0
C51 C 0.09877 0.68182 0.79331 0.0
C52 C 0.10062 0.6748 0.73632 0.0
C53 C 0.09529 0.6495 0.71874 0.0
C54 C 0.09726 0.64316 0.66463 0.0
C55 C 0.10468 0.66196 0.62683 0.0
C56 C 0.1101 0.68725 0.64481 0.0
C57 C 0.10808 0.69357 0.69894 0.0
C58 C 0.15692 0.65363 0.92724 0.0
C59 C 0.11694 0.59526 0.86224 0.0
O60 O 0.13771 0.60814 0.0393 0.0
O61 O 0.09705 0.59696 0.04484 0.0
O62 O 0.07656 0.64348 0.93977 0.0
O63 O 0.07238 0.60289 0.94616 0.0
O64 O 0.10944 0.66074 1.01997 0.0
O65 O 0.09676 0.68803 0.95252 0.0
O66 O 0.08085 0.67014 0.82123 0.0
O67 O 0.12064 0.68396 0.81913 0.0
O68 O 0.14147 0.63494 0.91898 0.0
O69 O 0.14597 0.67559 0.91573 0.0
O70 O 0.10986 0.61827 0.84376 0.0
O71 O 0.1214 0.59154 0.91336 0.0
H72 H 0.13471 0.64338 0.11535 0.0
H73 H 0.13271 0.65482 0.2098 0.0
H74 H 0.10087 0.57926 0.24528 0.0
H75 H 0.10321 0.5679 0.15075 0.0
H76 H 0.08952 0.63461 0.74676 0.0
H77 H 0.09261 0.62358 0.65238 0.0
H78 H 0.11627 0.70215 0.61718 0.0
H79 H 0.11244 0.71316 0.71166 0.0
Sm80 Sm 0.65915 0.8969 0.15888 0.0
Sm81 Sm 0.62193 0.89357 0.06833 0.0
C82 C 0.68213 0.90643 0.2517 0.0
C83 C 0.67515 0.90463 0.3087 0.0
C84 C 0.6495 0.9085 0.32598 0.0
C85 C 0.64321 0.90667 0.38014 0.0
C86 C 0.66241 0.90087 0.41821 0.0
C87 C 0.68806 0.89689 0.40058 0.0
C88 C 0.69433 0.89877 0.34641 0.0
C89 C 0.65556 0.84767 0.11742 0.0
C90 C 0.59602 0.88629 0.18259 0.0
C91 C 0.59861 0.88366 0.97622 0.0
C92 C 0.60558 0.8843 0.91908 0.0
C93 C 0.63068 0.87793 0.90162 0.0
C94 C 0.63714 0.87944 0.84749 0.0
C95 C 0.6186 0.88728 0.80954 0.0
C96 C 0.59342 0.89347 0.82732 0.0
C97 C 0.58702 0.89203 0.88148 0.0
C98 C 0.62375 0.94163 0.11619 0.0
C99 C 0.68423 0.9038 0.04169 0.0
O100 O 0.67012 0.92407 0.22368 0.0
O101 O 0.6846 0.88455 0.22609 0.0
O102 O 0.63644 0.86261 0.12564 0.0
O103 O 0.67721 0.85912 0.12933 0.0
O104 O 0.61883 0.89393 0.20109 0.0
O105 O 0.59244 0.88169 0.1315 0.0
O106 O 0.60969 0.86582 1.0055 0.0
O107 O 0.59723 0.90608 1.00028 0.0
O108 O 0.6433 0.92775 0.10525 0.0
O109 O 0.60257 0.93087 0.09912 0.0
O110 O 0.6614 0.89561 0.0251 0.0
O111 O 0.68842 0.90857 0.09281 0.0
H112 H 0.6343 0.91292 0.29766 0.0
H113 H 0.62321 0.90948 0.39209 0.0
H114 H 0.7034 0.89269 0.42875 0.0
H115 H 0.71423 0.89572 0.33394 0.0
H116 H 0.64538 0.87194 0.92986 0.0
H117 H 0.65681 0.87487 0.83554 0.0
H118 H 0.57851 0.89919 0.79933 0.0
H119 H 0.56753 0.89701 0.89405 0.0
Sm120 Sm 0.89407 0.38537 0.98094 0.0
Sm121 Sm 0.89735 0.34768 0.89103 0.0
C122 C 0.88565 0.4092 0.07322 0.0
C123 C 0.88631 0.40241 0.13055 0.0
C124 C 0.87791 0.37809 0.14895 0.0
C125 C 0.8794 0.37182 0.20323 0.0
C126 C 0.88919 0.38979 0.24039 0.0
C127 C 0.89748 0.41416 0.22166 0.0
C128 C 0.89608 0.42035 0.16739 0.0
C129 C 0.94178 0.38318 0.93139 0.0
C130 C 0.90372 0.32311 1.00868 0.0
C131 C 0.90771 0.32486 0.79846 0.0
C132 C 0.90623 0.33173 0.74125 0.0
C133 C 0.91206 0.35685 0.72319 0.0
C134 C 0.91035 0.36297 0.66887 0.0
C135 C 0.90268 0.34414 0.63135 0.0
C136 C 0.89675 0.31904 0.64986 0.0
C137 C 0.89853 0.31294 0.70413 0.0
C138 C 0.84827 0.35124 0.93326 0.0
C139 C 0.88618 0.41074 0.8666 0.0
O140 O 0.86716 0.39893 0.04438 0.0
O141 O 0.90799 0.40957 0.04859 0.0
O142 O 0.92812 0.36382 0.94423 0.0
O143 O 0.93064 0.40459 0.94593 0.0
O144 O 0.89535 0.34599 0.02459 0.0
O145 O 0.90889 0.31873 0.95776 0.0
O146 O 0.92518 0.33684 0.82709 0.0
O147 O 0.88564 0.32221 0.82347 0.0
O148 O 0.86298 0.37044 0.92427 0.0
O149 O 0.85968 0.3296 0.92106 0.0
O150 O 0.89394 0.3879 0.84832 0.0
O151 O 0.88157 0.41446 0.91769 0.0
H152 H 0.87024 0.36388 0.12138 0.0
H153 H 0.87257 0.35298 0.21612 0.0
H154 H 0.90548 0.42836 0.24883 0.0
H155 H 0.90282 0.43917 0.1541 0.0
H156 H 0.918 0.37177 0.75099 0.0
H157 H 0.91538 0.3824 0.65627 0.0
H158 H 0.89035 0.30413 0.62253 0.0
H159 H 0.89376 0.29349 0.71717 0.0
Sm160 Sm 0.34156 0.4039 0.12572 0.0
Sm161 Sm 0.38028 0.39163 0.22146 0.0
C162 C 0.32381 0.42677 0.03859 0.0
C163 C 0.32897 0.42333 0.98059 0.0
C164 C 0.35427 0.42562 0.95989 0.0
C165 C 0.35908 0.4222 0.90542 0.0
C166 C 0.33878 0.41634 0.86992 0.0
C167 C 0.31348 0.41395 0.89068 0.0
C168 C 0.30864 0.41747 0.94532 0.0
C169 C 0.3448 0.35068 0.13791 0.0
C170 C 0.40337 0.38591 0.10406 0.0
C171 C 0.40094 0.37759 0.31394 0.0
C172 C 0.39368 0.38001 0.37102 0.0
C173 C 0.36807 0.37601 0.38853 0.0
C174 C 0.3614 0.37962 0.44226 0.0
C175 C 0.38019 0.38728 0.47987 0.0
C176 C 0.40588 0.39095 0.46213 0.0
C177 C 0.4125 0.38739 0.40842 0.0
C178 C 0.38136 0.44089 0.17907 0.0
C179 C 0.31784 0.40611 0.24706 0.0
O180 O 0.34292 0.43601 0.06722 0.0
O181 O 0.31107 0.40824 0.06302 0.0
O182 O 0.35666 0.36744 0.1654 0.0
O183 O 0.32981 0.3622 0.10393 0.0
O184 O 0.3828 0.39947 0.08856 0.0
O185 O 0.40538 0.37637 0.15284 0.0
O186 O 0.38704 0.36195 0.28428 0.0
O187 O 0.40694 0.39916 0.28949 0.0
O188 O 0.36129 0.42761 0.18857 0.0
O189 O 0.40208 0.42836 0.19358 0.0
O190 O 0.34103 0.39855 0.26354 0.0
O191 O 0.31273 0.41063 0.19591 0.0
H192 H 0.37049 0.42996 0.98576 0.0
H193 H 0.37887 0.42379 0.89128 0.0
H194 H 0.2973 0.40972 0.8646 0.0
H195 H 0.28896 0.41563 0.96003 0.0
H196 H 0.35309 0.37039 0.36059 0.0
H197 H 0.34136 0.37692 0.45403 0.0
H198 H 0.42101 0.39641 0.48982 0.0
H199 H 0.43238 0.39058 0.396 0.0
Sm200 Sm 0.39527 0.62026 0.81721 0.0
Sm201 Sm 0.39905 0.65713 0.90827 0.0
C202 C 0.38478 0.59707 0.72527 0.0
C203 C 0.38542 0.60385 0.66804 0.0
C204 C 0.37826 0.62863 0.65006 0.0
C205 C 0.37969 0.63485 0.5958 0.0
C206 C 0.38821 0.61639 0.55832 0.0
C207 C 0.39527 0.59157 0.57662 0.0
C208 C 0.39391 0.58541 0.63088 0.0
C209 C 0.44382 0.62239 0.86291 0.0
C210 C 0.4051 0.68261 0.79118 0.0
C211 C 0.40889 0.68011 1.00091 0.0
C212 C 0.40672 0.67347 0.05802 0.0
C213 C 0.41114 0.64811 0.07626 0.0
C214 C 0.40899 0.64219 0.13054 0.0
C215 C 0.40226 0.66149 0.16781 0.0
C216 C 0.39769 0.68684 0.14915 0.0
C217 C 0.39991 0.69274 0.09488 0.0
C218 C 0.34954 0.65322 0.86834 0.0
C219 C 0.38918 0.59389 0.93138 0.0
O220 O 0.36716 0.60848 0.75468 0.0
O221 O 0.40724 0.59533 0.74909 0.0
O222 O 0.4296 0.64183 0.85323 0.0
O223 O 0.43313 0.60121 0.84576 0.0
O224 O 0.39671 0.65988 0.77447 0.0
O225 O 0.41042 0.6865 0.84218 0.0
O226 O 0.42632 0.66754 0.97327 0.0
O227 O 0.38715 0.6831 0.97499 0.0
O228 O 0.36465 0.63419 0.87606 0.0
O229 O 0.36097 0.67491 0.87986 0.0
O230 O 0.39671 0.61669 0.95012 0.0
O231 O 0.38418 0.59051 0.88039 0.0
H232 H 0.37159 0.64321 0.67791 0.0
H233 H 0.37383 0.65405 0.58317 0.0
H234 H 0.40227 0.57698 0.54912 0.0
H235 H 0.39967 0.56622 0.6439 0.0
H236 H 0.41638 0.63285 0.04863 0.0
H237 H 0.41297 0.62255 0.14334 0.0
H238 H 0.39206 0.70212 0.17638 0.0
H239 H 0.39624 0.71239 0.08163 0.0
Sm240 Sm 0.66152 0.60446 0.1303 0.0
Sm241 Sm 0.62407 0.60999 0.22018 0.0
C242 C 0.68424 0.59387 0.03753 0.0
C243 C 0.67717 0.59526 0.9804 0.0
C244 C 0.65217 0.58871 0.96265 0.0
C245 C 0.64575 0.59053 0.90852 0.0
C246 C 0.66418 0.599 0.87082 0.0
C247 C 0.6892 0.60555 0.88893 0.0
C248 C 0.69559 0.60369 0.94306 0.0
C249 C 0.65805 0.65454 0.16781 0.0
C250 C 0.5989 0.61582 0.10555 0.0
C251 C 0.6012 0.62115 0.31227 0.0
C252 C 0.60804 0.6192 0.36953 0.0
C253 C 0.63259 0.62674 0.38832 0.0
C254 C 0.63888 0.62433 0.4424 0.0
C255 C 0.62075 0.61441 0.47911 0.0
C256 C 0.59614 0.60695 0.4601 0.0
C257 C 0.5899 0.6093 0.40596 0.0
C258 C 0.62595 0.56091 0.1765 0.0
C259 C 0.68617 0.59916 0.24799 0.0
O260 O 0.67232 0.57654 0.06654 0.0
O261 O 0.68692 0.61595 0.0623 0.0
O262 O 0.63893 0.63956 0.16045 0.0
O263 O 0.67967 0.64278 0.1569 0.0
O264 O 0.62083 0.605 0.08929 0.0
O265 O 0.59615 0.62368 0.15521 0.0
O266 O 0.61394 0.63818 0.28379 0.0
O267 O 0.59754 0.59932 0.28694 0.0
O268 O 0.64544 0.57495 0.18668 0.0
O269 O 0.60468 0.57217 0.19184 0.0
O270 O 0.66351 0.60831 0.26352 0.0
O271 O 0.69038 0.59319 0.19737 0.0
H272 H 0.63756 0.58216 0.99059 0.0
H273 H 0.62641 0.58499 0.89619 0.0
H274 H 0.7038 0.61253 0.86142 0.0
H275 H 0.71495 0.609 0.95583 0.0
H276 H 0.64699 0.63449 0.36123 0.0
H277 H 0.65789 0.63058 0.45551 0.0
H278 H 0.58179 0.5989 0.48692 0.0
H279 H 0.57088 0.60326 0.39245 0.0
Sm280 Sm 0.61131 0.37839 0.82795 0.0
Sm281 Sm 0.60061 0.33989 0.92412 0.0
C282 C 0.62541 0.39891 0.73525 0.0
C283 C 0.62184 0.39194 0.67842 0.0
C284 C 0.64026 0.39966 0.64043 0.0
C285 C 0.63727 0.3929 0.58664 0.0
C286 C 0.61582 0.37814 0.56958 0.0
C287 C 0.59744 0.37037 0.60799 0.0
C288 C 0.60039 0.37726 0.66172 0.0
C289 C 0.56149 0.37746 0.86852 0.0
C290 C 0.59864 0.31588 0.80256 0.0
C291 C 0.5788 0.32131 1.0119 0.0
C292 C 0.58477 0.32399 0.06926 0.0
C293 C 0.56749 0.31451 0.1078 0.0
C294 C 0.57178 0.31934 0.16213 0.0
C295 C 0.5934 0.3339 0.17908 0.0
C296 C 0.61093 0.3429 0.14011 0.0
C297 C 0.60663 0.33805 0.08588 0.0
C298 C 0.65369 0.34494 0.91296 0.0
C299 C 0.61698 0.40207 0.94441 0.0
O300 O 0.64048 0.38368 0.7632 0.0
O301 O 0.60462 0.40601 0.76142 0.0
O302 O 0.57591 0.35799 0.86098 0.0
O303 O 0.57289 0.39847 0.85201 0.0
O304 O 0.60577 0.33914 0.78606 0.0
O305 O 0.59411 0.31083 0.8538 0.0
O306 O 0.57141 0.34275 0.98862 0.0
O307 O 0.59518 0.30788 0.98285 0.0
O308 O 0.63676 0.35609 0.88457 0.0
O309 O 0.64248 0.32964 0.94676 0.0
O310 O 0.60362 0.38145 0.96024 0.0
O311 O 0.62639 0.40398 0.89557 0.0
H312 H 0.65703 0.41087 0.65241 0.0
H313 H 0.65202 0.39895 0.55853 0.0
H314 H 0.58053 0.35927 0.59649 0.0
H315 H 0.58589 0.37106 0.69027 0.0
H316 H 0.55032 0.30391 0.0958 0.0
H317 H 0.55767 0.31235 0.19069 0.0
H318 H 0.62798 0.35384 0.15144 0.0
H319 H 0.62012 0.34574 0.05676 0.0
Sm320 Sm 0.84502 0.6045 0.65942 0.0
Sm321 Sm 0.88284 0.611 0.56999 0.0
C322 C 0.82298 0.59219 0.75195 0.0
C323 C 0.83005 0.59353 0.80919 0.0
C324 C 0.85504 0.58696 0.82711 0.0
C325 C 0.86143 0.58888 0.8813 0.0
C326 C 0.84301 0.59749 0.91888 0.0
C327 C 0.81799 0.60397 0.90064 0.0
C328 C 0.81162 0.602 0.84651 0.0
C329 C 0.8478 0.65485 0.623 0.0
C330 C 0.90748 0.61703 0.68503 0.0
C331 C 0.90592 0.62176 0.47784 0.0
C332 C 0.89913 0.6199 0.42046 0.0
C333 C 0.87461 0.62752 0.40154 0.0
C334 C 0.86838 0.62518 0.34737 0.0
C335 C 0.88653 0.61523 0.31063 0.0
C336 C 0.91109 0.60769 0.32983 0.0
C337 C 0.91727 0.60999 0.38405 0.0
C338 C 0.88153 0.56211 0.61459 0.0
C339 C 0.82081 0.5995 0.54151 0.0
O340 O 0.83558 0.57556 0.72226 0.0
O341 O 0.81916 0.61429 0.72781 0.0
O342 O 0.86711 0.64006 0.62987 0.0
O343 O 0.82636 0.64289 0.6345 0.0
O344 O 0.88558 0.60599 0.7008 0.0
O345 O 0.91041 0.62502 0.63545 0.0
O346 O 0.89347 0.63902 0.50632 0.0
O347 O 0.90917 0.59987 0.5032 0.0
O348 O 0.86196 0.57567 0.60272 0.0
O349 O 0.90278 0.57401 0.60149 0.0
O350 O 0.84339 0.60908 0.52645 0.0
O351 O 0.81654 0.59316 0.59189 0.0
H352 H 0.8697 0.58046 0.79922 0.0
H353 H 0.88098 0.58402 0.89357 0.0
H354 H 0.80317 0.61032 0.92831 0.0
H355 H 0.79222 0.60716 0.83373 0.0
H356 H 0.86015 0.63516 0.42864 0.0
H357 H 0.84916 0.63084 0.33447 0.0
H358 H 0.92573 0.60029 0.30286 0.0
H359 H 0.93631 0.60401 0.39757 0.0
Sm360 Sm 0.61136 0.11932 0.47918 0.0
Sm361 Sm 0.60609 0.15733 0.38995 0.0
C362 C 0.62244 0.09641 0.57124 0.0
C363 C 0.62042 0.10321 0.62859 0.0
C364 C 0.62806 0.12768 0.64761 0.0
C365 C 0.62566 0.1339 0.70177 0.0
C366 C 0.61565 0.11578 0.73841 0.0
C367 C 0.60808 0.09126 0.71913 0.0
C368 C 0.61043 0.08509 0.66492 0.0
C369 C 0.56241 0.12136 0.43495 0.0
C370 C 0.60025 0.18117 0.50845 0.0
C371 C 0.59599 0.18027 0.29715 0.0
C372 C 0.59766 0.1734 0.23986 0.0
C373 C 0.59115 0.14849 0.22149 0.0
C374 C 0.59314 0.14232 0.16721 0.0
C375 C 0.60177 0.16087 0.13 0.0
C376 C 0.60826 0.18579 0.14871 0.0
C377 C 0.60621 0.19195 0.20295 0.0
C378 C 0.65617 0.15333 0.4277 0.0
C379 C 0.61726 0.09474 0.36407 0.0
O380 O 0.63952 0.10915 0.54283 0.0
O381 O 0.60064 0.09273 0.54577 0.0
O382 O 0.57646 0.1408 0.44543 0.0
O383 O 0.57354 0.10008 0.45047 0.0
O384 O 0.60946 0.15846 0.52329 0.0
O385 O 0.5945 0.18578 0.45784 0.0
O386 O 0.57851 0.16827 0.32565 0.0
O387 O 0.61793 0.18292 0.32247 0.0
O388 O 0.64104 0.13441 0.41967 0.0
O389 O 0.6445 0.17506 0.41748 0.0
O390 O 0.60656 0.1168 0.34829 0.0
O391 O 0.62506 0.09167 0.41369 0.0
H392 H 0.63576 0.14213 0.62059 0.0
H393 H 0.63133 0.1531 0.71475 0.0
H394 H 0.60063 0.07665 0.74605 0.0
H395 H 0.60445 0.06608 0.65133 0.0
H396 H 0.58462 0.13373 0.24909 0.0
H397 H 0.58829 0.12285 0.15455 0.0
H398 H 0.61465 0.2007 0.12132 0.0
H399 H 0.61132 0.21129 0.21611 0.0
Sm400 Sm 0.15658 0.3984 0.65489 0.0
Sm401 Sm 0.11889 0.39415 0.56567 0.0
C402 C 0.17891 0.40964 0.74754 0.0
C403 C 0.17203 0.4076 0.80474 0.0
C404 C 0.14666 0.41247 0.82284 0.0
C405 C 0.14054 0.41031 0.87712 0.0
C406 C 0.1596 0.40311 0.91452 0.0
C407 C 0.18493 0.39815 0.89607 0.0
C408 C 0.19105 0.4004 0.84184 0.0
C409 C 0.15365 0.34877 0.61504 0.0
C410 C 0.0937 0.38616 0.68009 0.0
C411 C 0.09524 0.38522 0.47339 0.0
C412 C 0.10204 0.38622 0.41603 0.0
C413 C 0.12647 0.37813 0.39742 0.0
C414 C 0.13279 0.38007 0.34319 0.0
C415 C 0.1148 0.39004 0.30622 0.0
C416 C 0.09027 0.39788 0.32514 0.0
C417 C 0.08402 0.39603 0.37936 0.0
C418 C 0.12048 0.44211 0.61426 0.0
C419 C 0.18091 0.40466 0.53702 0.0
O420 O 0.16605 0.42654 0.71907 0.0
O421 O 0.18278 0.38786 0.72219 0.0
O422 O 0.1343 0.36349 0.62286 0.0
O423 O 0.17514 0.3606 0.62682 0.0
O424 O 0.11646 0.39438 0.69794 0.0
O425 O 0.08996 0.38135 0.62912 0.0
O426 O 0.10605 0.36699 0.50212 0.0
O427 O 0.09418 0.40746 0.49822 0.0
O428 O 0.14 0.42873 0.60114 0.0
O429 O 0.09918 0.43054 0.60045 0.0
O430 O 0.15815 0.39577 0.52168 0.0
O431 O 0.18534 0.41014 0.58776 0.0
H432 H 0.13152 0.41788 0.79508 0.0
H433 H 0.12076 0.41393 0.88965 0.0
H434 H 0.20018 0.39286 0.92366 0.0
H435 H 0.21073 0.39654 0.82885 0.0
H436 H 0.14078 0.37053 0.42484 0.0
H437 H 0.15198 0.37416 0.33047 0.0
H438 H 0.07573 0.40526 0.29798 0.0
H439 H 0.06505 0.40235 0.39272 0.0
Sm440 Sm 0.39521 0.88405 0.47931 0.0
Sm441 Sm 0.39968 0.84679 0.38873 0.0
C442 C 0.38559 0.90754 0.57143 0.0
C443 C 0.38631 0.90071 0.62868 0.0
C444 C 0.37918 0.87593 0.64665 0.0
C445 C 0.38088 0.86956 0.70083 0.0
C446 C 0.38967 0.88789 0.73833 0.0
C447 C 0.39657 0.91277 0.72005 0.0
C448 C 0.39494 0.91906 0.66586 0.0
C449 C 0.44339 0.88238 0.43173 0.0
C450 C 0.40539 0.8217 0.50599 0.0
C451 C 0.41122 0.82457 0.29618 0.0
C452 C 0.40947 0.8316 0.23914 0.0
C453 C 0.41367 0.85716 0.22178 0.0
C454 C 0.41166 0.86348 0.16764 0.0
C455 C 0.40531 0.84441 0.12967 0.0
C456 C 0.40105 0.81885 0.14737 0.0
C457 C 0.40313 0.81255 0.20149 0.0
C458 C 0.35001 0.85001 0.42833 0.0
C459 C 0.3879 0.90978 0.36491 0.0
O460 O 0.36759 0.89659 0.54233 0.0
O461 O 0.40799 0.90873 0.54716 0.0
O462 O 0.42973 0.8629 0.44364 0.0
O463 O 0.432 0.90366 0.44627 0.0
O464 O 0.39679 0.84444 0.52233 0.0
O465 O 0.41091 0.81766 0.45514 0.0
O466 O 0.42809 0.83727 0.32502 0.0
O467 O 0.38925 0.82086 0.32103 0.0
O468 O 0.36489 0.86924 0.4209 0.0
O469 O 0.36165 0.82848 0.41613 0.0
O470 O 0.396 0.88709 0.34652 0.0
O471 O 0.38297 0.91328 0.41595 0.0
H472 H 0.37248 0.86138 0.61877 0.0
H473 H 0.37572 0.85012 0.71312 0.0
H474 H 0.40302 0.92754 0.74767 0.0
H475 H 0.40052 0.93831 0.65293 0.0
H476 H 0.41842 0.8723 0.25003 0.0
H477 H 0.41473 0.88341 0.15564 0.0
H478 H 0.39643 0.80361 0.11929 0.0
H479 H 0.39979 0.79272 0.21397 0.0
Sm480 Sm 0.84531 0.8988 0.63392 0.0
Sm481 Sm 0.88279 0.89196 0.72319 0.0
C482 C 0.8233 0.91118 0.54151 0.0
C483 C 0.83016 0.90972 0.48415 0.0
C484 C 0.85471 0.91733 0.4653 0.0
C485 C 0.86081 0.91545 0.41095 0.0
C486 C 0.84255 0.90586 0.37409 0.0
C487 C 0.81803 0.89822 0.39333 0.0
C488 C 0.81194 0.90015 0.44761 0.0
C489 C 0.84741 0.84843 0.6705 0.0
C490 C 0.90757 0.88548 0.60832 0.0
C491 C 0.90586 0.8812 0.81525 0.0
C492 C 0.89931 0.88332 0.87273 0.0
C493 C 0.87525 0.87489 0.89273 0.0
C494 C 0.8693 0.87743 0.94702 0.0
C495 C 0.88728 0.8884 0.98276 0.0
C496 C 0.91136 0.89678 0.96248 0.0
C497 C 0.91726 0.89427 0.90818 0.0
C498 C 0.88221 0.94086 0.67852 0.0
C499 C 0.82088 0.90384 0.75166 0.0
O500 O 0.83608 0.92773 0.57097 0.0
O501 O 0.81931 0.88915 0.5658 0.0
O502 O 0.86693 0.86292 0.66348 0.0
O503 O 0.82613 0.86072 0.6592 0.0
O504 O 0.88586 0.89683 0.5924 0.0
O505 O 0.91024 0.87745 0.65791 0.0
O506 O 0.89317 0.864 0.78714 0.0
O507 O 0.90932 0.90297 0.78957 0.0
O508 O 0.86241 0.92763 0.69038 0.0
O509 O 0.90325 0.92858 0.6915 0.0
O510 O 0.84332 0.89399 0.76673 0.0
O511 O 0.81684 0.91042 0.70135 0.0
H512 H 0.8692 0.92476 0.49253 0.0
H513 H 0.87977 0.92184 0.39778 0.0
H514 H 0.80358 0.89033 0.36658 0.0
H515 H 0.79294 0.89401 0.46116 0.0
H516 H 0.86097 0.86634 0.86643 0.0
H517 H 0.8507 0.87046 0.96106 0.0
H518 H 0.92557 0.90567 0.98843 0.0
H519 H 0.93589 0.90103 0.89378 0.0
Sm520 Sm 0.89505 0.1211 0.31967 0.0
Sm521 Sm 0.89808 0.15838 0.41023 0.0
C522 C 0.88537 0.09767 0.22757 0.0
C523 C 0.88596 0.10449 0.17034 0.0
C524 C 0.8787 0.12925 0.15244 0.0
C525 C 0.88006 0.13553 0.09819 0.0
C526 C 0.88858 0.11712 0.0606 0.0
C527 C 0.89574 0.0923 0.07881 0.0
C528 C 0.89448 0.0861 0.13307 0.0
C529 C 0.94322 0.12344 0.36712 0.0
C530 C 0.90452 0.18342 0.29279 0.0
C531 C 0.90737 0.18153 0.50298 0.0
C532 C 0.90541 0.17478 0.56009 0.0
C533 C 0.90991 0.14938 0.57807 0.0
C534 C 0.90796 0.14336 0.63235 0.0
C535 C 0.9014 0.16259 0.6699 0.0
C536 C 0.89675 0.18797 0.6515 0.0
C537 C 0.89875 0.19397 0.59722 0.0
C538 C 0.84888 0.15427 0.36882 0.0
C539 C 0.88791 0.09516 0.43392 0.0
O540 O 0.8674 0.10862 0.25682 0.0
O541 O 0.9078 0.09647 0.25164 0.0
O542 O 0.92907 0.14283 0.35654 0.0
O543 O 0.93265 0.10218 0.35002 0.0
O544 O 0.89645 0.16052 0.27642 0.0
O545 O 0.90944 0.18767 0.34385 0.0
O546 O 0.92509 0.16944 0.47525 0.0
O547 O 0.88554 0.18397 0.47712 0.0
O548 O 0.86398 0.1353 0.37725 0.0
O549 O 0.86018 0.17603 0.38045 0.0
O550 O 0.89536 0.11803 0.45251 0.0
O551 O 0.88336 0.09158 0.38282 0.0
H552 H 0.87199 0.14378 0.18037 0.0
H553 H 0.87412 0.15472 0.08564 0.0
H554 H 0.90274 0.07775 0.05123 0.0
H555 H 0.90032 0.06693 0.14601 0.0
H556 H 0.91505 0.13419 0.55023 0.0
H557 H 0.91199 0.12369 0.64491 0.0
H558 H 0.89124 0.20321 0.67894 0.0
H559 H 0.89503 0.21365 0.58419 0.0
Sm560 Sm 0.16044 0.10511 0.63644 0.0
Sm561 Sm 0.1229 0.11195 0.72558 0.0
C562 C 0.18208 0.09256 0.54368 0.0
C563 C 0.17516 0.09441 0.4863 0.0
C564 C 0.15193 0.08392 0.46621 0.0
C565 C 0.14582 0.08608 0.4119 0.0
C566 C 0.16266 0.09893 0.37643 0.0
C567 C 0.18585 0.1094 0.39676 0.0
C568 C 0.19204 0.10708 0.45092 0.0
C569 C 0.15755 0.15576 0.67133 0.0
C570 C 0.09808 0.11814 0.61088 0.0
C571 C 0.10018 0.12322 0.81785 0.0
C572 C 0.10663 0.11995 0.87502 0.0
C573 C 0.09839 0.13854 0.91216 0.0
C574 C 0.10463 0.13597 0.96629 0.0
C575 C 0.11921 0.11466 0.9846 0.0
C576 C 0.12748 0.09606 0.94713 0.0
C577 C 0.12134 0.09873 0.89296 0.0
C578 C 0.12392 0.06281 0.68188 0.0
C579 C 0.18488 0.10048 0.75439 0.0
O580 O 0.16907 0.07616 0.57311 0.0
O581 O 0.1867 0.11436 0.56838 0.0
O582 O 0.13829 0.14087 0.66502 0.0
O583 O 0.17901 0.14372 0.66032 0.0
O584 O 0.11981 0.10673 0.5951 0.0
O585 O 0.09546 0.12641 0.66033 0.0
O586 O 0.11431 0.13982 0.79119 0.0
O587 O 0.09532 0.10213 0.79068 0.0
O588 O 0.14359 0.07632 0.69334 0.0
O589 O 0.10279 0.07489 0.69519 0.0
O590 O 0.16225 0.10997 0.76923 0.0
O591 O 0.18915 0.09402 0.70404 0.0
H592 H 0.13839 0.07415 0.49242 0.0
H593 H 0.12767 0.07803 0.39785 0.0
H594 H 0.19945 0.11913 0.37062 0.0
H595 H 0.21009 0.11527 0.46524 0.0
H596 H 0.08709 0.15511 0.89928 0.0
H597 H 0.0977 0.15053 0.99394 0.0
H598 H 0.13906 0.07962 0.95955 0.0
H599 H 0.12822 0.08426 0.86504 0.0
Sm600 Sm 0.11136 0.88373 0.31919 0.0
Sm601 Sm 0.10795 0.84647 0.40986 0.0
C602 C 0.12145 0.9071 0.22716 0.0
C603 C 0.12081 0.90031 0.1699 0.0
C604 C 0.12841 0.87567 0.1518 0.0
C605 C 0.12702 0.86942 0.09754 0.0
C606 C 0.11812 0.88773 0.06013 0.0
C607 C 0.11064 0.91242 0.07853 0.0
C608 C 0.11194 0.91859 0.13279 0.0
C609 C 0.06293 0.8811 0.36554 0.0
C610 C 0.102 0.82136 0.29232 0.0
C611 C 0.09816 0.8235 0.50259 0.0
C612 C 0.10038 0.83021 0.5597 0.0
C613 C 0.09587 0.85558 0.57787 0.0
C614 C 0.098 0.86155 0.63214 0.0
C615 C 0.10477 0.84231 0.66949 0.0
C616 C 0.10944 0.81697 0.65089 0.0
C617 C 0.10725 0.81101 0.59663 0.0
C618 C 0.15739 0.85082 0.36965 0.0
C619 C 0.11798 0.90972 0.43371 0.0
O620 O 0.13924 0.89591 0.25642 0.0
O621 O 0.09901 0.90859 0.25122 0.0
O622 O 0.07727 0.86182 0.35532 0.0
O623 O 0.07344 0.90243 0.34865 0.0
O624 O 0.11019 0.84424 0.27597 0.0
O625 O 0.09681 0.8172 0.34333 0.0
O626 O 0.08072 0.83607 0.47502 0.0
O627 O 0.11986 0.82043 0.47648 0.0
O628 O 0.14211 0.86971 0.37752 0.0
O629 O 0.14617 0.82902 0.38124 0.0
O630 O 0.11058 0.8868 0.45218 0.0
O631 O 0.12262 0.91335 0.38261 0.0
H632 H 0.1354 0.86121 0.17958 0.0
H633 H 0.13322 0.85034 0.08485 0.0
H634 H 0.10336 0.92688 0.05108 0.0
H635 H 0.10585 0.93767 0.14586 0.0
H636 H 0.09057 0.87079 0.55021 0.0
H637 H 0.09394 0.88119 0.64484 0.0
H638 H 0.11512 0.80172 0.67816 0.0
H639 H 0.11098 0.79135 0.58346 0.0
H640 H 0.37531 0.9092 0.25841 0.0
H641 H 0.41746 0.05206 0.19635 0.0
H642 H 0.3951 0.9611 0.38677 0.0
H643 H 0.34788 0.02301 0.12233 0.0
H644 H 0.41711 0.01488 0.25734 0.0
H645 H 0.37231 0.94676 0.19793 0.0
C646 C 0.37897 0.92846 0.27386 0.0
C647 C 0.3853 0.93207 0.3278 0.0
C648 C 0.40196 0.01665 0.22767 0.0
C649 C 0.38258 0.97477 0.25875 0.0
C650 C 0.40219 0.03774 0.19277 0.0
C651 C 0.38268 0.04054 0.15425 0.0
C652 C 0.3826 0.99769 0.22292 0.0
C653 C 0.36323 0.02153 0.15158 0.0
C654 C 0.37715 0.94981 0.23945 0.0
C655 C 0.38992 0.95745 0.34566 0.0
N656 N 0.36387 1.00064 0.18499 0.0
N657 N 0.38885 0.97777 0.31111 0.0
H658 H 0.91652 0.58765 0.77364 0.0
H659 H 0.03929 0.66632 0.87948 0.0
H660 H 0.94819 0.65163 0.6841 0.0
H661 H 0.02963 0.58431 0.90585 0.0
H662 H 1.00126 0.66565 0.82009 0.0
H663 H 0.95309 0.59066 0.83549 0.0
C664 C 0.93104 0.6025 0.76722 0.0
C665 C 0.92928 0.6194 0.7235 0.0
C666 C 0.00754 0.64786 0.839 0.0
C667 C 0.97115 0.62307 0.79466 0.0
C668 C 0.02924 0.6482 0.87274 0.0
C669 C 0.03798 0.62524 0.89683 0.0
C670 C 0.99405 0.62453 0.83066 0.0
C671 C 0.02375 0.60244 0.88783 0.0
C672 C 0.95198 0.6041 0.80241 0.0
C673 C 0.94886 0.63811 0.71706 0.0
N674 N 0.00249 0.60268 0.85573 0.0
N675 N 0.96891 0.63956 0.75241 0.0
H676 H 0.58288 0.9731 0.1393 0.0
H677 H 0.65202 0.05433 0.36572 0.0
H678 H 0.66516 0.9655 0.16594 0.0
H679 H 0.58836 0.0856 0.27464 0.0
H680 H 0.65514 0.01822 0.30202 0.0
H681 H 0.58237 0.01129 0.1971 0.0
C682 C 0.60088 0.97946 0.15729 0.0
C683 C 0.62405 0.96582 0.14835 0.0
C684 C 0.64062 0.03311 0.29593 0.0
C685 C 0.62345 0.00933 0.2155 0.0
C686 C 0.63872 0.05362 0.33236 0.0
C687 C 0.61991 0.07305 0.32549 0.0
C688 C 0.62316 0.03165 0.25309 0.0
C689 C 0.60326 0.07118 0.28136 0.0
C690 C 0.60055 1.00129 0.19025 0.0
C691 C 0.64678 0.97509 0.17261 0.0
N692 N 0.60507 0.05073 0.24727 0.0
N693 N 0.64587 0.99607 0.2057 0.0
H694 H 0.95198 0.41656 0.85043 0.0
H695 H 0.09479 0.37413 0.78687 0.0
H696 H 0.98181 0.34797 0.92697 0.0
H697 H 0.04221 0.39293 0.659 0.0
H698 H 0.05748 0.37148 0.84821 0.0
H699 H 0.98884 0.41564 0.78841 0.0
C700 C 0.96641 0.40139 0.85432 0.0
C701 C 0.96396 0.38233 0.89388 0.0
C702 C 0.05423 0.37601 0.8066 0.0
C703 C 0.00638 0.38159 0.82401 0.0
C704 C 0.07543 0.37762 0.7717 0.0
C705 C 0.07156 0.38358 0.71766 0.0
C706 C 0.02914 0.38128 0.78767 0.0
C707 C 0.04606 0.38802 0.70018 0.0
C708 C 0.98731 0.40083 0.81884 0.0
C709 C 0.98305 0.36297 0.89691 0.0
N710 N 0.02588 0.38716 0.73518 0.0
N711 N 0.00374 0.36328 0.86289 0.0
H712 H 0.34642 0.4809 0.17481 0.0
H713 H 0.39806 0.54295 0.90852 0.0
H714 H 0.41721 0.4531 0.10331 0.0
H715 H 0.37594 0.59354 0.03761 0.0
H716 H 0.39601 0.50589 0.96979 0.0
H717 H 0.3479 0.51901 0.11534 0.0
C718 C 0.36223 0.48285 0.14662 0.0
C719 C 0.38186 0.46403 0.14418 0.0
C720 C 0.39152 0.52512 0.9845 0.0
C721 C 0.38319 0.50684 0.07546 0.0
C722 C 0.39254 0.54623 0.94963 0.0
C723 C 0.38715 0.57137 0.96801 0.0
C724 C 0.38431 0.52901 0.03781 0.0
C725 C 0.38031 0.57449 1.02187 0.0
C726 C 0.36308 0.50453 0.11295 0.0
C727 C 0.40187 0.46734 0.10681 0.0
N728 N 0.37879 0.55351 0.05482 0.0
N729 N 0.40185 0.48814 0.07343 0.0
H730 H 0.55824 0.65025 0.10916 0.0
H731 H 0.4762 0.58186 0.88291 0.0
H732 H 0.58947 0.58747 1.01545 0.0
H733 H 0.46745 0.66363 0.9136 0.0
H734 H 0.5149 0.5814 0.93926 0.0
H735 H 0.52167 0.65345 0.04664 0.0
C736 C 0.55743 0.63717 0.07546 0.0
C737 C 0.57697 0.61856 0.06753 0.0
C738 C 0.50454 0.59946 0.9336 0.0
C739 C 0.53505 0.62191 0.99644 0.0
C740 C 0.48242 0.59976 0.90146 0.0
C741 C 0.46831 0.62276 0.89409 0.0
C742 C 0.51243 0.62221 0.95958 0.0
C743 C 0.47743 0.64537 0.91902 0.0
C744 C 0.53665 0.63911 0.0397 0.0
C745 C 0.57496 0.60219 0.023 0.0
N746 N 0.49871 0.64448 0.95129 0.0
N747 N 0.55425 0.60404 0.98956 0.0
H748 H 0.66776 0.5364 0.12977 0.0
H749 H 0.58733 0.41321 0.03189 0.0
H750 H 0.58537 0.52876 0.15488 0.0
H751 H 0.65291 0.44165 0.94237 0.0
H752 H 0.59064 0.45084 0.09085 0.0
H753 H 0.66679 0.49721 0.07379 0.0
C754 C 0.6495 0.52653 0.1235 0.0
C755 C 0.62653 0.53615 0.14625 0.0
C756 C 0.60436 0.44878 0.05841 0.0
C757 C 0.62546 0.49093 0.08391 0.0
C758 C 0.60258 0.42724 0.02483 0.0
C759 C 0.6198 0.42427 0.98183 0.0
C760 C 0.62384 0.46735 0.04984 0.0
C761 C 0.63911 0.44323 0.97473 0.0
C762 C 0.64898 0.50417 0.09168 0.0
C763 C 0.60351 0.52218 0.13785 0.0
N764 N 0.64069 0.46389 1.00851 0.0
N765 N 0.60358 0.50028 0.10762 0.0
H766 H 0.41543 0.41745 1.02022 0.0
H767 H 0.5356 0.33567 0.91133 0.0
H768 H 0.4421 0.34893 0.1021 0.0
H769 H 0.53084 0.41874 0.89507 0.0
H770 H 0.49665 0.33666 0.96813 0.0
H771 H 0.45284 0.41456 0.96048 0.0
C772 C 0.429 0.40162 0.02536 0.0
C773 C 0.42556 0.38339 0.06638 0.0
C774 C 0.50416 0.35462 0.95199 0.0
C775 C 0.46846 0.37991 0.99751 0.0
C776 C 0.52634 0.3541 0.91957 0.0
C777 C 0.53679 0.37722 0.89924 0.0
C778 C 0.49184 0.37836 0.96268 0.0
C779 C 0.52365 0.40046 0.91029 0.0
C780 C 0.45045 0.4001 0.99138 0.0
C781 C 0.44402 0.36346 0.07125 0.0
N782 N 0.50187 0.40044 0.94106 0.0
N783 N 0.4646 0.36215 0.03704 0.0
H784 H 0.89461 0.46179 0.88851 0.0
H785 H 0.8453 0.52312 0.61955 0.0
H786 H 0.87308 0.41052 0.76024 0.0
H787 H 0.91622 0.54975 0.69207 0.0
H788 H 0.84553 0.48538 0.68022 0.0
H789 H 0.8928 0.49851 0.82645 0.0
C790 C 0.88921 0.4583 0.84744 0.0
C791 C 0.88395 0.43306 0.82952 0.0
C792 C 0.86099 0.49954 0.68257 0.0
C793 C 0.88139 0.47506 0.75878 0.0
C794 C 0.86084 0.52102 0.64827 0.0
C795 C 0.88091 0.53936 0.65057 0.0
C796 C 0.88084 0.49701 0.72056 0.0
C797 C 0.90055 0.53587 0.68861 0.0
C798 C 0.88833 0.47922 0.81211 0.0
C799 C 0.87731 0.42966 0.77564 0.0
N800 N 0.89987 0.5153 0.72254 0.0
N801 N 0.87595 0.45048 0.74219 0.0
H802 H 0.53119 0.08062 0.40921 0.0
H803 H 0.44957 0.15246 0.18655 0.0
H804 H 0.53832 0.16321 0.38751 0.0
H805 H 0.41822 0.08806 0.27525 0.0
H806 H 0.48591 0.15468 0.25 0.0
H807 H 0.49304 0.08077 0.35112 0.0
C808 C 0.52473 0.09882 0.39226 0.0
C809 C 0.53822 0.1219 0.4027 0.0
C810 C 0.47095 0.1402 0.2556 0.0
C811 C 0.4948 0.12208 0.33518 0.0
C812 C 0.45031 0.13882 0.21933 0.0
C813 C 0.43077 0.12009 0.22565 0.0
C814 C 0.47243 0.12228 0.29766 0.0
C815 C 0.4327 0.10295 0.26899 0.0
C816 C 0.50295 0.09887 0.35911 0.0
C817 C 0.52884 0.1449 0.3797 0.0
N818 N 0.45327 0.10425 0.30289 0.0
N819 N 0.50792 0.14438 0.34641 0.0
H820 H 0.12986 0.59567 0.75583 0.0
H821 H 0.0868 0.45264 0.69463 0.0
H822 H 0.10871 0.54403 0.88382 0.0
H823 H 0.15553 0.4823 0.61809 0.0
H824 H 0.08734 0.4898 0.75571 0.0
H825 H 0.13252 0.5581 0.69534 0.0
C826 C 0.1258 0.57647 0.77119 0.0
C827 C 0.11918 0.57295 0.82504 0.0
C828 C 0.10227 0.48817 0.72549 0.0
C829 C 0.12157 0.53021 0.75594 0.0
C830 C 0.10192 0.46709 0.69052 0.0
C831 C 0.12112 0.46449 0.65123 0.0
C832 C 0.12145 0.50727 0.72009 0.0
C833 C 0.14042 0.48364 0.64795 0.0
C834 C 0.12744 0.55511 0.73677 0.0
C835 C 0.11409 0.54762 0.84277 0.0
N836 N 0.13991 0.50448 0.68148 0.0
N837 N 0.11503 0.5273 0.80821 0.0
H838 H 0.59661 0.87307 0.28868 0.0
H839 H 0.45403 0.9165 0.35231 0.0
H840 H 0.54472 0.89426 0.16118 0.0
H841 H 0.48325 0.84705 0.42657 0.0
H842 H 0.49104 0.91591 0.29067 0.0
H843 H 0.5591 0.87029 0.34942 0.0
C844 C 0.57736 0.87709 0.27348 0.0
C845 C 0.57374 0.88377 0.21973 0.0
C846 C 0.48934 0.90084 0.32052 0.0
C847 C 0.5311 0.88127 0.28907 0.0
C848 C 0.46836 0.90122 0.3558 0.0
C849 C 0.46571 0.88183 0.39461 0.0
C850 C 0.50826 0.88142 0.32515 0.0
C851 C 0.48466 0.86232 0.39711 0.0
C852 C 0.55604 0.87539 0.30804 0.0
C853 C 0.54837 0.88882 0.20216 0.0
N854 N 0.50541 0.86279 0.3633 0.0
N855 N 0.52808 0.88784 0.23687 0.0
H856 H 0.91644 0.95165 0.59928 0.0
H857 H 0.875 0.09542 0.54038 0.0
H858 H 0.84772 0.98156 0.67555 0.0
H859 H 0.89565 0.04397 0.4117 0.0
H860 H 0.87192 0.05766 0.60034 0.0
H861 H 0.91649 0.98917 0.53918 0.0
C862 C 0.90146 0.96624 0.60357 0.0
C863 C 0.88207 0.9636 0.64246 0.0
C864 C 0.87698 0.05476 0.55887 0.0
C865 C 0.88242 0.00679 0.57475 0.0
C866 C 0.87887 0.07623 0.52476 0.0
C867 C 0.88546 0.0728 0.47088 0.0
C868 C 0.88259 0.02987 0.53932 0.0
C869 C 0.89029 0.04748 0.45278 0.0
C870 C 0.90144 0.98753 0.56916 0.0
C871 C 0.86297 0.98293 0.64599 0.0
N872 N 0.88912 0.02706 0.48703 0.0
N873 N 0.86381 0.00398 0.61302 0.0
H874 H 0.0573 0.15253 0.61392 0.0
H875 H 0.97554 0.08303 0.38857 0.0
H876 H 0.08885 0.08965 0.52089 0.0
H877 H 0.96667 0.16494 0.41733 0.0
H878 H 0.01414 0.0829 0.44525 0.0
H879 H 0.02072 0.15538 0.5513 0.0
C880 C 0.05656 0.13936 0.58036 0.0
C881 C 0.07619 0.12081 0.57269 0.0
C882 C 0.00377 0.10092 0.43911 0.0
C883 C 0.03424 0.12375 0.50153 0.0
C884 C 0.98171 0.10103 0.40679 0.0
C885 C 0.9676 0.12398 0.39873 0.0
C886 C 0.01161 0.12382 0.46462 0.0
C887 C 0.97664 0.14673 0.42327 0.0
C888 C 0.03577 0.1411 0.54455 0.0
C889 C 0.07425 0.10431 0.52832 0.0
N890 N 0.99787 0.14602 0.45573 0.0
N891 N 0.05353 0.10596 0.49487 0.0
H892 H 0.13094 0.90907 0.54005 0.0
H893 H 0.0899 0.05266 0.602 0.0
H894 H 0.11042 0.96109 0.41233 0.0
H895 H 0.15834 0.02203 0.67784 0.0
H896 H 0.08989 0.01555 0.54082 0.0
H897 H 0.13417 0.94656 0.60062 0.0
C898 C 0.12713 0.92834 0.52477 0.0
C899 C 0.12052 0.93198 0.47097 0.0
C900 C 0.10487 0.01695 0.57092 0.0
C901 C 0.12357 0.97465 0.54017 0.0
C902 C 0.10484 0.03801 0.60595 0.0
C903 C 0.12413 0.04033 0.64508 0.0
C904 C 0.1238 0.99757 0.57609 0.0
C905 C 0.14317 0.02091 0.64814 0.0
C906 C 0.1291 0.94966 0.55923 0.0
C907 C 0.11577 0.95739 0.45333 0.0
N908 N 0.14233 1.00009 0.61457 0.0
N909 N 0.11703 0.97768 0.48794 0.0
H910 H 0.0303 0.9213 0.38681 0.0
H911 H 0.94837 0.85109 0.61129 0.0
H912 H 0.03958 0.8394 0.4153 0.0
H913 H 0.91692 0.91411 0.51863 0.0
H914 H 0.98509 0.84842 0.54879 0.0
H915 H 0.99157 0.92114 0.44322 0.0
C916 C 0.02419 0.90324 0.40491 0.0
C917 C 0.03846 0.88038 0.39688 0.0
C918 C 0.97002 0.86269 0.54208 0.0
C919 C 0.99429 0.88021 0.46244 0.0
C920 C 0.94915 0.86432 0.57781 0.0
C921 C 0.92951 0.88284 0.57019 0.0
C922 C 0.97159 0.88013 0.4992 0.0
C923 C 0.9315 0.89944 0.52597 0.0
C924 C 1.00205 0.90318 0.43708 0.0
C925 C 0.02948 0.85756 0.42124 0.0
N926 N 0.95228 0.89789 0.49259 0.0
N927 N 0.00817 0.8581 0.45355 0.0
H928 H 0.39178 0.18756 0.14278 0.0
H929 H 0.30797 0.31714 0.10713 0.0
H930 H 0.31012 0.18969 0.10594 0.0
H931 H 0.38442 0.31908 0.17651 0.0
H932 H 0.31015 0.27024 0.10321 0.0
H933 H 0.39157 0.23525 0.15037 0.0
C934 C 0.37391 0.19806 0.13571 0.0
C935 C 0.35091 0.18465 0.12359 0.0
C936 C 0.32649 0.2807 0.11969 0.0
C937 C 0.3505 0.23896 0.13265 0.0
C938 C 0.32523 0.3076 0.12205 0.0
C939 C 0.346 0.32206 0.14234 0.0
C940 C 0.3489 0.26779 0.1371 0.0
C941 C 0.36788 0.30859 0.16103 0.0
C942 C 0.37376 0.22521 0.14052 0.0
C943 C 0.32828 0.19917 0.11534 0.0
N944 N 0.36887 0.28212 0.15756 0.0
N945 N 0.32868 0.22539 0.11999 0.0
H946 H 0.31507 0.69266 0.8598 0.0
H947 H 0.18678 0.60941 0.9153 0.0
H948 H 0.31863 0.60992 0.8833 0.0
H949 H 0.19236 0.69243 0.93198 0.0
H950 H 0.23386 0.60771 0.89815 0.0
H951 H 0.26859 0.69148 0.87652 0.0
C952 C 0.30599 0.67414 0.86795 0.0
C953 C 0.32083 0.65139 0.87047 0.0
C954 C 0.22473 0.62622 0.90601 0.0
C955 C 0.26728 0.64989 0.89043 0.0
C956 C 0.19793 0.62719 0.91612 0.0
C957 C 0.18559 0.65113 0.92485 0.0
C958 C 0.23913 0.64937 0.90417 0.0
C959 C 0.20096 0.67357 0.92517 0.0
C960 C 0.27941 0.6735 0.87792 0.0
C961 C 0.30791 0.62793 0.88096 0.0
N962 N 0.22674 0.67215 0.91454 0.0
N963 N 0.28183 0.62778 0.89082 0.0
H964 H 0.61201 0.81676 0.12759 0.0
H965 H 0.69779 0.68896 0.17233 0.0
H966 H 0.69526 0.81322 0.11158 0.0
H967 H 0.61452 0.68542 0.15707 0.0
H968 H 0.69611 0.73555 0.15742 0.0
H969 H 0.61131 0.76952 0.14203 0.0
C970 C 0.63007 0.80603 0.12638 0.0
C971 C 0.65376 0.81897 0.11858 0.0
C972 C 0.67812 0.72471 0.15742 0.0
C973 C 0.65315 0.7652 0.13605 0.0
C974 C 0.67907 0.69805 0.16631 0.0
C975 C 0.65629 0.68322 0.1657 0.0
C976 C 0.65418 0.73689 0.14792 0.0
C977 C 0.63257 0.69615 0.15788 0.0
C978 C 0.62967 0.77912 0.13495 0.0
C979 C 0.67657 0.80413 0.11769 0.0
N980 N 0.63212 0.72227 0.14908 0.0
N981 N 0.67569 0.77819 0.12671 0.0
H982 H 0.81531 0.31325 0.96302 0.0
H983 H 0.68424 0.38427 0.86935 0.0
H984 H 0.81595 0.39201 0.90565 0.0
H985 H 0.6883 0.31116 0.95222 0.0
H986 H 0.73208 0.38779 0.87616 0.0
H987 H 0.7683 0.31263 0.9554 0.0
C988 C 0.80545 0.33057 0.94935 0.0
C989 C 0.81956 0.3527 0.93516 0.0
C990 C 0.72236 0.37099 0.89259 0.0
C991 C 0.76533 0.3521 0.92519 0.0
C992 C 0.69517 0.36889 0.88827 0.0
C993 C 0.68231 0.34736 0.91016 0.0
C994 C 0.73655 0.35131 0.91854 0.0
C995 C 0.69732 0.32813 0.93485 0.0
C996 C 0.77853 0.33022 0.94474 0.0
C997 C 0.80574 0.3746 0.91745 0.0
N998 N 0.72342 0.33056 0.93829 0.0
N999 N 0.77934 0.3737 0.91254 0.0
H1000 H 0.8913 0.68589 0.62939 0.0
H1001 H 0.80688 0.81481 0.67467 0.0
H1002 H 0.80776 0.68921 0.62275 0.0
H1003 H 0.89028 0.81662 0.66103 0.0
H1004 H 0.80774 0.76806 0.66114 0.0
H1005 H 0.89229 0.73311 0.64332 0.0
C1006 C 0.87321 0.69657 0.63025 0.0
C1007 C 0.84939 0.68357 0.62503 0.0
C1008 C 0.82593 0.77856 0.66123 0.0
C1009 C 0.85035 0.73741 0.64178 0.0
C1010 C 0.82545 0.80531 0.66928 0.0
C1011 C 0.84852 0.8197 0.66879 0.0
C1012 C 0.84969 0.76585 0.65261 0.0
C1013 C 0.87202 0.80626 0.66175 0.0
C1014 C 0.87378 0.72348 0.6385 0.0
C1015 C 0.82655 0.69836 0.62674 0.0
N1016 N 0.872 0.78009 0.65371 0.0
N1017 N 0.82761 0.72434 0.63523 0.0
H1018 H 0.81427 0.19353 0.35858 0.0
H1019 H 0.68668 0.10953 0.41759 0.0
H1020 H 0.81811 0.11095 0.38413 0.0
H1021 H 0.69097 0.19288 0.42792 0.0
H1022 H 0.7337 0.10825 0.39991 0.0
H1023 H 0.7677 0.19222 0.37452 0.0
C1024 C 0.80524 0.17502 0.36699 0.0
C1025 C 0.82017 0.15235 0.37033 0.0
C1026 C 0.72431 0.12676 0.40642 0.0
C1027 C 0.76654 0.15071 0.38941 0.0
C1028 C 0.69753 0.1275 0.41681 0.0
C1029 C 0.68485 0.15137 0.42409 0.0
C1030 C 0.73835 0.15008 0.40286 0.0
C1031 C 0.69984 0.17405 0.42237 0.0
C1032 C 0.7786 0.1743 0.37649 0.0
C1033 C 0.80732 0.12889 0.38115 0.0
N1034 N 0.72564 0.17283 0.41158 0.0
N1035 N 0.78121 0.12867 0.3906 0.0
H1036 H 0.11053 0.31736 0.62611 0.0
H1037 H 0.19748 0.19018 0.67123 0.0
H1038 H 0.19382 0.31471 0.61053 0.0
H1039 H 0.11401 0.18669 0.66203 0.0
H1040 H 0.1956 0.23668 0.6548 0.0
H1041 H 0.11036 0.27022 0.64174 0.0
C1042 C 0.12871 0.30684 0.62525 0.0
C1043 C 0.15225 0.32003 0.61716 0.0
C1044 C 0.17762 0.22586 0.65647 0.0
C1045 C 0.15225 0.26631 0.63595 0.0
C1046 C 0.17869 0.19926 0.66621 0.0
C1047 C 0.15589 0.18446 0.66784 0.0
C1048 C 0.15354 0.23802 0.64834 0.0
C1049 C 0.13208 0.19737 0.66114 0.0
C1050 C 0.12862 0.27998 0.63451 0.0
C1051 C 0.17523 0.30543 0.61679 0.0
N1052 N 0.13151 0.22342 0.6515 0.0
N1053 N 0.17465 0.27952 0.6264 0.0
H1054 H 0.31565 0.81029 0.43415 0.0
H1055 H 0.18764 0.8947 0.38181 0.0
H1056 H 0.319 0.89336 0.41593 0.0
H1057 H 0.19244 0.81163 0.36497 0.0
H1058 H 0.2347 0.89591 0.39893 0.0
H1059 H 0.26916 0.81165 0.4175 0.0
C1060 C 0.30652 0.8289 0.42718 0.0
C1061 C 0.3213 0.85171 0.42614 0.0
C1062 C 0.22541 0.87749 0.39107 0.0
C1063 C 0.26776 0.85343 0.40628 0.0
C1064 C 0.19862 0.8768 0.38096 0.0
C1065 C 0.18607 0.853 0.37216 0.0
C1066 C 0.2396 0.85419 0.39277 0.0
C1067 C 0.20122 0.8304 0.37182 0.0
C1068 C 0.27994 0.82966 0.41726 0.0
C1069 C 0.30833 0.8753 0.4171 0.0
N1070 N 0.22701 0.83155 0.38238 0.0
N1071 N 0.28227 0.87556 0.40726 0.0
H1072 H 0.17825 0.10285 0.8624 0.0
H1073 H 0.32923 0.09694 0.93575 0.0
H1074 H 0.23804 0.09168 0.74423 0.0
H1075 H 0.26861 0.09645 0.0542 0.0
H1076 H 0.29649 0.09506 0.86573 0.0
H1077 H 0.21089 0.10053 0.93228 0.0
C1078 C 0.19826 0.09982 0.85089 0.0
C1079 C 0.20523 0.09755 0.79675 0.0
C1080 C 0.29025 0.09524 0.90694 0.0
C1081 C 0.24319 0.09502 0.87792 0.0
C1082 C 0.309 0.09645 0.94723 0.0
C1083 C 0.30181 0.09714 1.0014 0.0
C1084 C 0.26381 0.09486 0.92033 0.0
C1085 C 0.27518 0.09596 1.01325 0.0
C1086 C 0.21697 0.09845 0.89119 0.0
C1087 C 0.23162 0.09351 0.78512 0.0
N1088 N 0.25722 0.0951 0.97316 0.0
N1089 N 0.24959 0.09258 0.82522 0.0
H1090 H 0.09711 0.73705 0.99016 0.0
H1091 H 0.09692 0.7681 0.30579 0.0
H1092 H 0.0999 0.67818 0.11203 0.0
H1093 H 0.10048 0.82692 0.18389 0.0
H1094 H 0.09496 0.73486 0.23555 0.0
H1095 H 0.09531 0.7703 0.0604 0.0
C1096 C 0.0972 0.73105 0.0315 0.0
C1097 C 0.09892 0.70465 0.04481 0.0
C1098 C 0.09612 0.75508 0.22422 0.0
C1099 C 0.09686 0.74272 0.12588 0.0
C1100 C 0.09715 0.77409 0.26444 0.0
C1101 C 0.09913 0.80047 0.25112 0.0
C1102 C 0.0969 0.76241 0.17007 0.0
C1103 C 0.09936 0.8069 0.19648 0.0
C1104 C 0.09626 0.75007 0.07173 0.0
C1105 C 0.09898 0.69821 0.09944 0.0
N1106 N 0.09832 0.78815 0.1583 0.0
N1107 N 0.09803 0.71697 0.13764 0.0
H1108 H 0.73762 0.90693 0.05508 0.0
H1109 H 0.768 0.91234 0.73952 0.0
H1110 H 0.67842 0.90816 0.93379 0.0
H1111 H 0.82682 0.90245 0.85995 0.0
H1112 H 0.73506 0.91458 0.81038 0.0
H1113 H 0.77081 0.90909 0.98466 0.0
C1114 C 0.73156 0.90784 1.01382 0.0
C1115 C 0.70509 0.90708 1.00063 0.0
C1116 C 0.75521 0.91198 0.82125 0.0
C1117 C 0.74304 0.90954 0.91946 0.0
C1118 C 0.77405 0.91079 0.7807 0.0
C1119 C 0.80031 0.90695 0.79342 0.0
C1120 C 0.76262 0.90952 0.87512 0.0
C1121 C 0.80686 0.90506 0.84783 0.0
C1122 C 0.75052 0.90896 0.97351 0.0
C1123 C 0.69852 0.90827 0.94616 0.0
N1124 N 0.78827 0.90631 0.88636 0.0
N1125 N 0.71723 0.90938 0.90787 0.0
H1126 H 0.90495 0.3292 0.11693 0.0
H1127 H 0.90751 0.17744 0.18472 0.0
H1128 H 0.90939 0.26979 0.99641 0.0
H1129 H 0.90827 0.2369 0.30548 0.0
H1130 H 0.90906 0.21076 0.11602 0.0
H1131 H 0.90697 0.29598 0.18579 0.0
C1132 C 0.90633 0.30914 0.10472 0.0
C1133 C 0.90673 0.30244 0.05028 0.0
C1134 C 0.90898 0.21663 0.15744 0.0
C1135 C 0.90922 0.26385 0.13011 0.0
C1136 C 0.90799 0.19754 0.19702 0.0
C1137 C 0.90748 0.20421 0.25146 0.0
C1138 C 0.90941 0.24292 0.17181 0.0
C1139 C 0.90862 0.23071 0.26429 0.0
C1140 C 0.90759 0.2901 0.14439 0.0
C1141 C 0.90899 0.276 0.03759 0.0
N1142 N 0.90935 0.24903 0.22486 0.0
N1143 N 0.90999 0.25774 0.07709 0.0
H1144 H 0.32495 0.41091 0.35464 0.0
H1145 H 0.17384 0.40645 0.42925 0.0
H1146 H 0.26412 0.40864 0.23685 0.0
H1147 H 0.23442 0.41061 0.54732 0.0
H1148 H 0.20638 0.40872 0.35907 0.0
H1149 H 0.29234 0.41233 0.42488 0.0
C1150 C 0.3047 0.41069 0.34331 0.0
C1151 C 0.29744 0.40931 0.28924 0.0
C1152 C 0.21267 0.40922 0.40021 0.0
C1153 C 0.25957 0.4112 0.37069 0.0
C1154 C 0.19403 0.4078 0.44064 0.0
C1155 C 0.20125 0.40801 0.49479 0.0
C1156 C 0.23907 0.41087 0.41336 0.0
C1157 C 0.22782 0.41034 0.5064 0.0
C1158 C 0.28602 0.41162 0.38377 0.0
C1159 C 0.27077 0.40966 0.27769 0.0
N1160 N 0.24571 0.41152 0.46613 0.0
N1161 N 0.25287 0.41039 0.31797 0.0
H1162 H 0.41046 0.73569 0.80604 0.0
H1163 H 0.41075 0.76863 0.49142 0.0
H1164 H 0.40649 0.67766 0.68262 0.0
H1165 H 0.40662 0.82677 0.61459 0.0
H1166 H 0.41265 0.73502 0.56083 0.0
H1167 H 0.41249 0.76936 0.73671 0.0
C1168 C 0.41017 0.72997 0.76453 0.0
C1169 C 0.40805 0.70369 0.7505 0.0
C1170 C 0.41138 0.75517 0.57264 0.0
C1171 C 0.41039 0.74223 0.67054 0.0
C1172 C 0.41039 0.77439 0.53291 0.0
C1173 C 0.40826 0.80068 0.54684 0.0
C1174 C 0.41044 0.7622 0.62693 0.0
C1175 C 0.40785 0.80682 0.60159 0.0
C1176 C 0.41124 0.74923 0.72485 0.0
C1177 C 0.40774 0.69759 0.69572 0.0
N1178 N 0.40888 0.78786 0.63933 0.0
N1179 N 0.40884 0.71659 0.65806 0.0
H1180 H 0.73954 0.59386 0.23625 0.0
H1181 H 0.76757 0.5932 0.5529 0.0
H1182 H 0.67955 0.59714 0.35595 0.0
H1183 H 0.82754 0.59834 0.43346 0.0
H1184 H 0.73504 0.5909 0.48134 0.0
H1185 H 0.77216 0.59176 0.30772 0.0
C1186 C 0.73318 0.59397 0.27738 0.0
C1187 C 0.70667 0.59598 0.28978 0.0
C1188 C 0.75535 0.59248 0.47083 0.0
C1189 C 0.74396 0.59356 0.37214 0.0
C1190 C 0.77395 0.59369 0.51179 0.0
C1191 C 0.80042 0.59627 0.49951 0.0
C1192 C 0.76322 0.59362 0.41702 0.0
C1193 C 0.80741 0.59682 0.44519 0.0
C1194 C 0.75182 0.59287 0.31829 0.0
C1195 C 0.69971 0.59605 0.34413 0.0
N1196 N 0.78905 0.59557 0.40626 0.0
N1197 N 0.7181 0.59493 0.38299 0.0
H1198 H 0.59712 0.17308 0.61579 0.0
H1199 H 0.59737 0.32329 0.69479 0.0
H1200 H 0.59514 0.2348 0.50002 0.0
H1201 H 0.59354 0.26208 0.81164 0.0
H1202 H 0.59547 0.2913 0.62406 0.0
H1203 H 0.59482 0.20496 0.68724 0.0
C1204 C 0.59624 0.19338 0.60518 0.0
C1205 C 0.59667 0.20112 0.55131 0.0
C1206 C 0.59492 0.28473 0.66503 0.0
C1207 C 0.5938 0.23815 0.63415 0.0
C1208 C 0.59603 0.30309 0.70592 0.0
C1209 C 0.59574 0.2956 0.75997 0.0
C1210 C 0.59364 0.25828 0.6775 0.0
C1211 C 0.59381 0.26894 0.77089 0.0
C1212 C 0.59479 0.21164 0.64633 0.0
C1213 C 0.5949 0.2278 0.54067 0.0
N1214 N 0.59301 0.25129 0.73012 0.0
N1215 N 0.59374 0.24529 0.58162 0.0
H1216 H 0.37496 0.06643 0.4816 0.0
H1217 H 0.35801 0.14853 0.75133 0.0
H1218 H 0.32908 0.1362 0.49301 0.0
H1219 H 0.40238 0.07771 0.7416 0.0
H1220 H 0.34734 0.1443 0.65692 0.0
H1221 H 0.38574 0.0705 0.57616 0.0
C1222 C 0.36725 0.0827 0.50379 0.0
C1223 C 0.35102 0.10097 0.4789 0.0
C1224 C 0.35941 0.12966 0.6754 0.0
C1225 C 0.36317 0.10563 0.58792 0.0
C1226 C 0.36541 0.13198 0.72958 0.0
C1227 C 0.38116 0.11345 0.75496 0.0
C1228 C 0.36917 0.10865 0.64587 0.0
C1229 C 0.39049 0.0927 0.72393 0.0
C1230 C 0.3733 0.08492 0.558 0.0
C1231 C 0.34134 0.1214 0.51033 0.0
N1232 N 0.38435 0.09088 0.67125 0.0
N1233 N 0.34757 0.12317 0.56294 0.0
H1234 H 0.12267 0.61676 0.58147 0.0
H1235 H 0.10191 0.6644 0.28019 0.0
H1236 H 0.09146 0.69174 0.53982 0.0
H1237 H 0.1278 0.58753 0.32236 0.0
H1238 H 0.09936 0.67529 0.37488 0.0
H1239 H 0.12552 0.60607 0.48685 0.0
C1240 C 0.11625 0.63096 0.55256 0.0
C1241 C 0.10675 0.65522 0.56903 0.0
C1242 C 0.10559 0.65603 0.36344 0.0
C1243 C 0.11034 0.64315 0.46002 0.0
C1244 C 0.10722 0.64983 0.30928 0.0
C1245 C 0.11509 0.62497 0.29302 0.0
C1246 C 0.11195 0.63729 0.40193 0.0
C1247 C 0.12131 0.60682 0.33282 0.0
C1248 C 0.11805 0.62487 0.49839 0.0
C1249 C 0.09924 0.67294 0.5293 0.0
N1250 N 0.11965 0.61334 0.38525 0.0
N1251 N 0.10119 0.66655 0.47683 0.0
H1252 H 0.62947 0.93191 0.4762 0.0
H1253 H 0.6499 0.85482 0.75058 0.0
H1254 H 0.68017 0.86579 0.49234 0.0
H1255 H 0.60305 0.92384 0.73627 0.0
H1256 H 0.66083 0.8582 0.65608 0.0
H1257 H 0.61878 0.92861 0.57085 0.0
C1258 C 0.63826 0.91659 0.49952 0.0
C1259 C 0.65576 0.89909 0.47601 0.0
C1260 C 0.64816 0.87261 0.67361 0.0
C1261 C 0.64373 0.89533 0.58497 0.0
C1262 C 0.64201 0.87079 0.72777 0.0
C1263 C 0.62547 0.88906 0.75178 0.0
C1264 C 0.63772 0.89285 0.64287 0.0
C1265 C 0.61554 0.90905 0.71959 0.0
C1266 C 0.63226 0.91482 0.55373 0.0
C1267 C 0.66683 0.87992 0.50869 0.0
N1268 N 0.6218 0.91039 0.66698 0.0
N1269 N 0.6606 0.87853 0.56134 0.0
H1270 H 0.87897 0.42113 0.32662 0.0
H1271 H 0.91521 0.31352 0.54505 0.0
H1272 H 0.90315 0.34341 0.28678 0.0
H1273 H 0.88595 0.38955 0.58454 0.0
H1274 H 0.91152 0.32427 0.45059 0.0
H1275 H 0.88243 0.41023 0.42109 0.0
C1276 C 0.88513 0.40179 0.33763 0.0
C1277 C 0.89082 0.38321 0.29834 0.0
C1278 C 0.9059 0.33861 0.4799 0.0
C1279 C 0.89461 0.37048 0.40708 0.0
C1280 C 0.90786 0.33243 0.53403 0.0
C1281 C 0.90084 0.3506 0.57329 0.0
C1282 C 0.89691 0.3632 0.46446 0.0
C1283 C 0.89194 0.37498 0.55606 0.0
C1284 C 0.88696 0.39553 0.39173 0.0
C1285 C 0.89828 0.35832 0.31541 0.0
N1286 N 0.89023 0.38053 0.50313 0.0
N1287 N 0.90001 0.35274 0.36834 0.0
H1288 H 0.34577 0.35975 0.54253 0.0
H1289 H 0.37217 0.44402 0.80599 0.0
H1290 H 0.39826 0.42484 0.54855 0.0
H1291 H 0.3177 0.38059 0.80045 0.0
H1292 H 0.38176 0.43717 0.71175 0.0
H1293 H 0.33481 0.3672 0.63619 0.0
C1294 C 0.35491 0.37571 0.56328 0.0
C1295 C 0.37309 0.39161 0.53716 0.0
C1296 C 0.36768 0.42474 0.73103 0.0
C1297 C 0.36073 0.4001 0.64522 0.0
C1298 C 0.36227 0.42855 0.78511 0.0
C1299 C 0.34415 0.41279 0.81168 0.0
C1300 C 0.35497 0.40495 0.70279 0.0
C1301 C 0.33163 0.3934 0.7818 0.0
C1302 C 0.34872 0.37986 0.617 0.0
C1303 C 0.38449 0.41175 0.56685 0.0
N1304 N 0.33733 0.38998 0.72919 0.0
N1305 N 0.37815 0.41537 0.61902 0.0
H1306 H 0.41681 0.69137 0.25366 0.0
H1307 H 0.37537 0.58591 0.47246 0.0
H1308 H 0.38279 0.6173 0.21475 0.0
H1309 H 0.40472 0.66186 0.51192 0.0
H1310 H 0.37879 0.59676 0.37797 0.0
H1311 H 0.41291 0.68081 0.34819 0.0
C1312 C 0.40836 0.67295 0.26485 0.0
C1313 C 0.40009 0.65525 0.2258 0.0
C1314 C 0.38445 0.61108 0.40726 0.0
C1315 C 0.39591 0.64285 0.33454 0.0
C1316 C 0.38266 0.60484 0.46133 0.0
C1317 C 0.38981 0.62295 0.50047 0.0
C1318 C 0.39356 0.63563 0.39185 0.0
C1319 C 0.39869 0.64735 0.48336 0.0
C1320 C 0.40629 0.66686 0.31898 0.0
C1321 C 0.38977 0.63146 0.24313 0.0
N1322 N 0.40037 0.65292 0.43045 0.0
N1323 N 0.38798 0.62599 0.29605 0.0
H1324 H 0.61812 0.61509 0.82587 0.0
H1325 H 0.6671 0.59921 0.52394 0.0
H1326 H 0.69456 0.5878 0.7833 0.0
H1327 H 0.58975 0.62375 0.56653 0.0
H1328 H 0.67768 0.59552 0.61855 0.0
H1329 H 0.60743 0.61841 0.73129 0.0
C1330 C 0.63264 0.60962 0.79677 0.0
C1331 C 0.65733 0.60111 0.81301 0.0
C1332 C 0.65838 0.60169 0.60724 0.0
C1333 C 0.64523 0.60525 0.70399 0.0
C1334 C 0.65234 0.60397 0.55308 0.0
C1335 C 0.62745 0.61185 0.53688 0.0
C1336 C 0.63945 0.60737 0.64586 0.0
C1337 C 0.60908 0.61729 0.57683 0.0
C1338 C 0.62655 0.61169 0.74262 0.0
C1339 C 0.67541 0.5948 0.77302 0.0
N1340 N 0.61545 0.615 0.62927 0.0
N1341 N 0.66901 0.59698 0.72058 0.0
H1342 H 0.59803 0.33221 0.5267 0.0
H1343 H 0.61123 0.37945 0.22296 0.0
H1344 H 0.62618 0.40775 0.48069 0.0
H1345 H 0.58414 0.30331 0.2675 0.0
H1346 H 0.61708 0.38986 0.31706 0.0
H1347 H 0.5926 0.32126 0.43248 0.0
C1348 C 0.60296 0.34658 0.49691 0.0
C1349 C 0.61258 0.37101 0.51207 0.0
C1350 C 0.60989 0.37085 0.30633 0.0
C1351 C 0.60661 0.3584 0.40351 0.0
C1352 C 0.6067 0.36478 0.25239 0.0
C1353 C 0.59724 0.34036 0.23679 0.0
C1354 C 0.60359 0.35243 0.34552 0.0
C1355 C 0.59121 0.32247 0.2773 0.0
C1356 C 0.59999 0.34023 0.44298 0.0
C1357 C 0.61902 0.38858 0.47126 0.0
N1358 N 0.5945 0.32884 0.32959 0.0
N1359 N 0.61588 0.38196 0.41912 0.0
H1360 H 0.87312 0.56485 0.98011 0.0
H1361 H 0.85776 0.64851 0.2482 0.0
H1362 H 0.82851 0.63549 0.9901 0.0
H1363 H 0.90017 0.57646 0.24015 0.0
H1364 H 0.8471 0.64412 0.1538 0.0
H1365 H 0.88388 0.56912 0.07463 0.0
C1366 C 0.86568 0.58136 1.00198 0.0
C1367 C 0.84982 0.59982 0.97671 0.0
C1368 C 0.85874 0.62926 0.17264 0.0
C1369 C 0.86196 0.60471 0.08568 0.0
C1370 C 0.86473 0.63166 0.22682 0.0
C1371 C 0.87992 0.61282 0.25267 0.0
C1372 C 0.86796 0.60785 0.14361 0.0
C1373 C 0.88872 0.59169 0.22211 0.0
C1374 C 0.87173 0.58369 0.05617 0.0
C1375 C 0.84049 0.62055 1.00773 0.0
N1376 N 0.88262 0.58978 0.16943 0.0
N1377 N 0.8467 0.62243 0.06033 0.0
H1378 H 0.57663 0.1024 0.80845 0.0
H1379 H 0.6399 0.17546 0.05914 0.0
H1380 H 0.64902 0.14427 0.80117 0.0
H1381 H 0.56898 0.13124 0.0682 0.0
H1382 H 0.64311 0.16486 0.96445 0.0
H1383 H 0.5733 0.11301 0.90314 0.0
C1384 C 0.59193 0.11369 0.82668 0.0
C1385 C 0.61319 0.12236 0.79636 0.0
C1386 C 0.62684 0.15746 0.9871 0.0
C1387 C 0.60929 0.1349 0.90532 0.0
C1388 C 0.62489 0.16364 0.04126 0.0
C1389 C 0.60409 0.15431 0.07206 0.0
C1390 C 0.60782 0.14183 0.96307 0.0
C1391 C 0.58553 0.13866 0.04648 0.0
C1392 C 0.58992 0.11988 0.88085 0.0
C1393 C 0.6321 0.13739 0.82242 0.0
N1394 N 0.58781 0.13299 0.99365 0.0
N1395 N 0.62971 0.14312 0.87519 0.0
H1396 H 0.10149 0.42883 0.23585 0.0
H1397 H 0.17604 0.3662 0.9862 0.0
H1398 H 0.14359 0.35659 0.2439 0.0
H1399 H 0.12841 0.4348 0.97541 0.0
H1400 H 0.1656 0.36314 0.08108 0.0
H1401 H 0.11206 0.43188 0.14119 0.0
C1402 C 0.11282 0.41349 0.21779 0.0
C1403 C 0.12152 0.39234 0.24832 0.0
C1404 C 0.15741 0.37886 0.05799 0.0
C1405 C 0.13407 0.39596 0.13934 0.0
C1406 C 0.16349 0.38072 1.00375 0.0
C1407 C 0.15314 0.40082 0.97247 0.0
C1408 C 0.14092 0.39729 0.08155 0.0
C1409 C 0.13663 0.41879 0.99757 0.0
C1410 C 0.11898 0.41534 0.16362 0.0
C1411 C 0.13665 0.37342 0.22246 0.0
N1412 N 0.13111 0.41663 0.05048 0.0
N1413 N 0.14239 0.37567 0.16966 0.0
H1414 H 0.43647 0.87679 0.07056 0.0
H1415 H 0.35678 0.85771 0.79884 0.0
H1416 H 0.36935 0.82728 0.05671 0.0
H1417 H 0.42727 0.90251 0.81024 0.0
H1418 H 0.36062 0.84692 0.89332 0.0
H1419 H 0.43265 0.88742 0.97595 0.0
C1420 C 0.42082 0.86825 0.04776 0.0
C1421 C 0.4032 0.85109 0.0719 0.0
C1422 C 0.37526 0.85911 0.87515 0.0
C1423 C 0.39884 0.86306 0.96297 0.0
C1424 C 0.37317 0.86518 0.82099 0.0
C1425 C 0.39172 0.8811 0.79614 0.0
C1426 C 0.39604 0.86902 0.90509 0.0
C1427 C 0.41226 0.89051 0.82755 0.0
C1428 C 0.41875 0.87422 0.99356 0.0
C1429 C 0.38358 0.84035 0.03986 0.0
N1430 N 0.41385 0.88435 0.88018 0.0
N1431 N 0.38191 0.84654 0.98724 0.0
H1432 H 0.81079 0.91474 0.28761 0.0
H1433 H 0.9196 0.88144 0.06902 0.0
H1434 H 0.88907 0.89214 0.32729 0.0
H1435 H 0.8406 0.90142 0.02956 0.0
H1436 H 0.90904 0.88615 0.16346 0.0
H1437 H 0.82146 0.91038 0.1932 0.0
C1438 C 0.8302 0.90872 0.27666 0.0
C1439 C 0.849 0.90374 0.31598 0.0
C1440 C 0.89399 0.8895 0.13417 0.0
C1441 C 0.86149 0.89904 0.2071 0.0
C1442 C 0.90005 0.88697 0.08004 0.0
C1443 C 0.88101 0.89106 0.04082 0.0
C1444 C 0.86866 0.89623 0.14966 0.0
C1445 C 0.85589 0.89773 0.05807 0.0
C1446 C 0.83633 0.90639 0.22253 0.0
C1447 C 0.87397 0.89652 0.29876 0.0
N1448 N 0.8505 0.90013 0.111 0.0
N1449 N 0.87944 0.89437 0.24581 0.0
H1450 H 0.87567 0.08663 0.97475 0.0
H1451 H 0.91625 0.19235 0.75573 0.0
H1452 H 0.90484 0.16266 1.01409 0.0
H1453 H 0.88217 0.11829 0.71695 0.0
H1454 H 0.9127 0.18168 0.85026 0.0
H1455 H 0.87883 0.09754 0.88023 0.0
C1456 C 0.88286 0.10559 0.96359 0.0
C1457 C 0.89005 0.12371 1.00271 0.0
C1458 C 0.90598 0.16776 0.82108 0.0
C1459 C 0.8935 0.13646 0.89404 0.0
C1460 C 0.90786 0.17391 0.76695 0.0
C1461 C 0.89947 0.15625 0.72791 0.0
C1462 C 0.89568 0.14372 0.8367 0.0
C1463 C 0.88924 0.13242 0.7453 0.0
C1464 C 0.88452 0.11187 0.9095 0.0
C1465 C 0.89881 0.14814 0.98555 0.0
N1466 N 0.88764 0.12689 0.79823 0.0
N1467 N 0.90034 0.15375 0.93263 0.0
H1468 H 0.11875 0.07048 0.04621 0.0
H1469 H 0.16896 0.14139 0.31144 0.0
H1470 H 0.13457 0.15247 0.05526 0.0
H1471 H 0.14142 0.06245 0.30915 0.0
H1472 H 0.1587 0.14513 0.21661 0.0
H1473 H 0.12927 0.06648 0.141 0.0
C1474 C 0.12457 0.08764 0.06798 0.0
C1475 C 0.12572 0.11187 0.04244 0.0
C1476 C 0.15486 0.12698 0.23681 0.0
C1477 C 0.13772 0.10742 0.15151 0.0
C1478 C 0.16086 0.12477 0.291 0.0
C1479 C 0.15611 0.10153 0.31858 0.0
C1480 C 0.14417 0.10575 0.20947 0.0
C1481 C 0.1452 0.08082 0.28985 0.0
C1482 C 0.13041 0.08536 0.12228 0.0
C1483 C 0.13308 0.13344 0.07318 0.0
N1484 N 0.13972 0.08338 0.23698 0.0
N1485 N 0.13885 0.1307 0.12584 0.0
H1486 H 0.09044 0.81236 0.7555 0.0
H1487 H 0.13034 0.91844 0.97413 0.0
H1488 H 0.12382 0.88671 0.7164 0.0
H1489 H 0.1024 0.84197 1.01376 0.0
H1490 H 0.12709 0.90752 0.87964 0.0
H1491 H 0.09415 0.82301 0.85 0.0
C1492 C 0.09872 0.83087 0.76663 0.0
C1493 C 0.10686 0.84861 0.72751 0.0
C1494 C 0.1217 0.8931 0.90897 0.0
C1495 C 0.11081 0.86112 0.83627 0.0
C1496 C 0.1234 0.89938 0.96305 0.0
C1497 C 0.11659 0.88115 1.00225 0.0
C1498 C 0.11304 0.86839 0.8936 0.0
C1499 C 0.10815 0.85659 0.98517 0.0
C1500 C 0.10068 0.837 0.82075 0.0
C1501 C 0.11694 0.87251 0.7448 0.0
N1502 N 0.10656 0.85098 0.93226 0.0
N1503 N 0.11862 0.87803 0.79773 0.0
loop_
_geom_bond_atom_site_label_1
_geom_bond_atom_site_label_2
_geom_bond_distance
_geom_bond_site_symmetry_2
_ccdc_geom_bond_type
Sm0 C2 2.846 . S
Sm0 O20 2.543 . S
Sm0 O21 2.450 . S
Sm0 O22 2.681 . S
Sm0 O23 2.464 . S
Sm0 O24 2.396 . S
Sm0 O28 2.386 . S
Sm0 O31 2.408 . S
Sm1 C11 2.846 1_554 S
Sm1 O22 2.386 . S
Sm1 O25 2.408 . S
Sm1 O26 2.543 1_554 S
Sm1 O27 2.450 1_554 S
Sm1 O28 2.681 . S
Sm1 O29 2.464 . S
Sm1 O30 2.396 . S
C2 Sm0 2.846 . S
C2 C3 1.506 . S
C2 O20 1.261 . S
C2 O21 1.242 . S
C3 C2 1.506 . S
C3 C4 1.358 . S
C3 C8 1.382 . S
C4 C3 1.358 . S
C4 C5 1.385 . S
C4 H32 0.930 . S
C5 C4 1.385 . S
C5 C6 1.395 . S
C5 H33 0.929 . S
C6 C5 1.395 . S
C6 C7 1.335 . S
C7 C6 1.335 . S
C7 C8 1.398 . S
C7 H34 0.930 . S
C8 C3 1.382 . S
C8 C7 1.398 . S
C8 H35 0.929 . S
C9 O22 1.271 . S
C9 O23 1.251 . S
C10 O24 1.252 . S
C10 O25 1.272 . S
C11 Sm1 2.846 1_556 S
C11 C12 1.506 . S
C11 O26 1.261 . S
C11 O27 1.242 . S
C12 C11 1.506 . S
C12 C13 1.358 . S
C12 C17 1.382 . S
C13 C12 1.358 . S
C13 C14 1.385 . S
C13 H36 0.930 . S
C14 C13 1.385 . S
C14 C15 1.395 . S
C14 H37 0.929 . S
C15 C14 1.395 . S
C15 C16 1.335 . S
C16 C15 1.335 . S
C16 C17 1.398 . S
C16 H38 0.930 . S
C17 C12 1.382 . S
C17 C16 1.398 . S
C17 H39 0.929 . S
C18 O28 1.271 . S
C18 O29 1.251 . S
C19 O30 1.252 . S
C19 O31 1.272 . S
O20 Sm0 2.543 . S
O20 C2 1.261 . S
O21 Sm0 2.450 . S
O21 C2 1.242 . S
O22 Sm0 2.681 . S
O22 Sm1 2.386 . S
O22 C9 1.271 . S
O23 Sm0 2.464 . S
O23 C9 1.251 . S
O24 Sm0 2.396 . S
O24 C10 1.252 . S
O25 Sm1 2.408 . S
O25 C10 1.272 . S
O26 Sm1 2.543 1_556 S
O26 C11 1.261 . S
O27 Sm1 2.450 1_556 S
O27 C11 1.242 . S
O28 Sm0 2.386 . S
O28 Sm1 2.681 . S
O28 C18 1.271 . S
O29 Sm1 2.464 . S
O29 C18 1.251 . S
O30 Sm1 2.396 . S
O30 C19 1.252 . S
O31 Sm0 2.408 . S
O31 C19 1.272 . S
H32 C4 0.930 . S
H33 C5 0.929 . S
H34 C7 0.930 . S
H35 C8 0.929 . S
H36 C13 0.930 . S
H37 C14 0.929 . S
H38 C16 0.930 . S
H39 C17 0.929 . S
Sm40 C42 2.846 1_556 S
Sm40 O60 2.543 1_556 S
Sm40 O61 2.450 1_556 S
Sm40 O62 2.681 . S
Sm40 O63 2.464 . S
Sm40 O64 2.396 . S
Sm40 O68 2.386 . S
Sm40 O71 2.408 . S
Sm41 C51 2.846 . S
Sm41 O62 2.386 . S
Sm41 O65 2.408 . S
Sm41 O66 2.543 . S
Sm41 O67 2.450 . S
Sm41 O68 2.681 . S
Sm41 O69 2.464 . S
Sm41 O70 2.396 . S
C42 Sm40 2.846 1_554 S
C42 C43 1.506 . S
C42 O60 1.261 . S
C42 O61 1.242 . S
C43 C42 1.506 . S
C43 C44 1.358 . S
C43 C48 1.382 . S
C44 C43 1.358 . S
C44 C45 1.385 . S
C44 H72 0.930 . S
C45 C44 1.385 . S
C45 C46 1.395 . S
C45 H73 0.929 . S
C46 C45 1.395 . S
C46 C47 1.335 . S
C47 C46 1.335 . S
C47 C48 1.398 . S
C47 H74 0.930 . S
C48 C43 1.382 . S
C48 C47 1.398 . S
C48 H75 0.929 . S
C49 O62 1.271 . S
C49 O63 1.251 . S
C50 O64 1.252 . S
C50 O65 1.272 . S
C51 Sm41 2.846 . S
C51 C52 1.506 . S
C51 O66 1.261 . S
C51 O67 1.242 . S
C52 C51 1.506 . S
C52 C53 1.358 . S
C52 C57 1.382 . S
C53 C52 1.358 . S
C53 C54 1.385 . S
C53 H76 0.930 . S
C54 C53 1.385 . S
C54 C55 1.395 . S
C54 H77 0.929 . S
C55 C54 1.395 . S
C55 C56 1.335 . S
C56 C55 1.335 . S
C56 C57 1.398 . S
C56 H78 0.930 . S
C57 C52 1.382 . S
C57 C56 1.398 . S
C57 H79 0.929 . S
C58 O68 1.271 . S
C58 O69 1.251 . S
C59 O70 1.252 . S
C59 O71 1.272 . S
O60 Sm40 2.543 1_554 S
O60 C42 1.261 . S
O61 Sm40 2.450 1_554 S
O61 C42 1.242 . S
O62 Sm40 2.681 . S
O62 Sm41 2.386 . S
O62 C49 1.271 . S
O63 Sm40 2.464 . S
O63 C49 1.251 . S
O64 Sm40 2.396 . S
O64 C50 1.252 . S
O65 Sm41 2.408 . S
O65 C50 1.272 . S
O66 Sm41 2.543 . S
O66 C51 1.261 . S
O67 Sm41 2.450 . S
O67 C51 1.242 . S
O68 Sm40 2.386 . S
O68 Sm41 2.681 . S
O68 C58 1.271 . S
O69 Sm41 2.464 . S
O69 C58 1.251 . S
O70 Sm41 2.396 . S
O70 C59 1.252 . S
O71 Sm40 2.408 . S
O71 C59 1.272 . S
H72 C44 0.930 . S
H73 C45 0.929 . S
H74 C47 0.930 . S
H75 C48 0.929 . S
H76 C53 0.930 . S
H77 C54 0.929 . S
H78 C56 0.930 . S
H79 C57 0.929 . S
Sm80 C82 2.846 . S
Sm80 O100 2.543 . S
Sm80 O101 2.450 . S
Sm80 O102 2.681 . S
Sm80 O103 2.464 . S
Sm80 O104 2.396 . S
Sm80 O108 2.386 . S
Sm80 O111 2.408 . S
Sm81 C91 2.846 1_554 S
Sm81 O102 2.386 . S
Sm81 O105 2.408 . S
Sm81 O106 2.543 1_554 S
Sm81 O107 2.450 1_554 S
Sm81 O108 2.681 . S
Sm81 O109 2.464 . S
Sm81 O110 2.396 . S
C82 Sm80 2.846 . S
C82 C83 1.506 . S
C82 O100 1.261 . S
C82 O101 1.242 . S
C83 C82 1.506 . S
C83 C84 1.358 . S
C83 C88 1.382 . S
C84 C83 1.358 . S
C84 C85 1.385 . S
C84 H112 0.930 . S
C85 C84 1.385 . S
C85 C86 1.395 . S
C85 H113 0.929 . S
C86 C85 1.395 . S
C86 C87 1.335 . S
C87 C86 1.335 . S
C87 C88 1.398 . S
C87 H114 0.930 . S
C88 C83 1.382 . S
C88 C87 1.398 . S
C88 H115 0.929 . S
C89 O102 1.271 . S
C89 O103 1.251 . S
C90 O104 1.252 . S
C90 O105 1.272 . S
C91 Sm81 2.846 1_556 S
C91 C92 1.506 . S
C91 O106 1.261 . S
C91 O107 1.242 . S
C92 C91 1.506 . S
C92 C93 1.358 . S
C92 C97 1.382 . S
C93 C92 1.358 . S
C93 C94 1.385 . S
C93 H116 0.930 . S
C94 C93 1.385 . S
C94 C95 1.395 . S
C94 H117 0.929 . S
C95 C94 1.395 . S
C95 C96 1.335 . S
C96 C95 1.335 . S
C96 C97 1.398 . S
C96 H118 0.930 . S
C97 C92 1.382 . S
C97 C96 1.398 . S
C97 H119 0.929 . S
C98 O108 1.271 . S
C98 O109 1.251 . S
C99 O110 1.252 . S
C99 O111 1.272 . S
O100 Sm80 2.543 . S
O100 C82 1.261 . S
O101 Sm80 2.450 . S
O101 C82 1.242 . S
O102 Sm80 2.681 . S
O102 Sm81 2.386 . S
O102 C89 1.271 . S
O103 Sm80 2.464 . S
O103 C89 1.251 . S
O104 Sm80 2.396 . S
O104 C90 1.252 . S
O105 Sm81 2.408 . S
O105 C90 1.272 . S
O106 Sm81 2.543 1_556 S
O106 C91 1.261 . S
O107 Sm81 2.450 1_556 S
O107 C91 1.242 . S
O108 Sm80 2.386 . S
O108 Sm81 2.681 . S
O108 C98 1.271 . S
O109 Sm81 2.464 . S
O109 C98 1.251 . S
O110 Sm81 2.396 . S
O110 C99 1.252 . S
O111 Sm80 2.408 . S
O111 C99 1.272 . S
H112 C84 0.930 . S
H113 C85 0.929 . S
H114 C87 0.930 . S
H115 C88 0.929 . S
H116 C93 0.930 . S
H117 C94 0.929 . S
H118 C96 0.930 . S
H119 C97 0.929 . S
Sm120 C122 2.846 1_556 S
Sm120 O140 2.543 1_556 S
Sm120 O141 2.450 1_556 S
Sm120 O142 2.681 . S
Sm120 O143 2.464 . S
Sm120 O144 2.396 . S
Sm120 O148 2.386 . S
Sm120 O151 2.408 . S
Sm121 C131 2.846 . S
Sm121 O142 2.386 . S
Sm121 O145 2.408 . S
Sm121 O146 2.543 . S
Sm121 O147 2.450 . S
Sm121 O148 2.681 . S
Sm121 O149 2.464 . S
Sm121 O150 2.396 . S
C122 Sm120 2.846 1_554 S
C122 C123 1.506 . S
C122 O140 1.261 . S
C122 O141 1.242 . S
C123 C122 1.506 . S
C123 C124 1.358 . S
C123 C128 1.382 . S
C124 C123 1.358 . S
C124 C125 1.385 . S
C124 H152 0.930 . S
C125 C124 1.385 . S
C125 C126 1.395 . S
C125 H153 0.929 . S
C126 C125 1.395 . S
C126 C127 1.335 . S
C127 C126 1.335 . S
C127 C128 1.398 . S
C127 H154 0.930 . S
C128 C123 1.382 . S
C128 C127 1.398 . S
C128 H155 0.929 . S
C129 O142 1.271 . S
C129 O143 1.251 . S
C130 O144 1.252 . S
C130 O145 1.272 . S
C131 Sm121 2.846 . S
C131 C132 1.506 . S
C131 O146 1.261 . S
C131 O147 1.242 . S
C132 C131 1.506 . S
C132 C133 1.358 . S
C132 C137 1.382 . S
C133 C132 1.358 . S
C133 C134 1.385 . S
C133 H156 0.930 . S
C134 C133 1.385 . S
C134 C135 1.395 . S
C134 H157 0.929 . S
C135 C134 1.395 . S
C135 C136 1.335 . S
C136 C135 1.335 . S
C136 C137 1.398 . S
C136 H158 0.930 . S
C137 C132 1.382 . S
C137 C136 1.398 . S
C137 H159 0.929 . S
C138 O148 1.271 . S
C138 O149 1.251 . S
C139 O150 1.252 . S
C139 O151 1.272 . S
O140 Sm120 2.543 1_554 S
O140 C122 1.261 . S
O141 Sm120 2.450 1_554 S
O141 C122 1.242 . S
O142 Sm120 2.681 . S
O142 Sm121 2.386 . S
O142 C129 1.271 . S
O143 Sm120 2.464 . S
O143 C129 1.251 . S
O144 Sm120 2.396 . S
O144 C130 1.252 . S
O145 Sm121 2.408 . S
O145 C130 1.272 . S
O146 Sm121 2.543 . S
O146 C131 1.261 . S
O147 Sm121 2.450 . S
O147 C131 1.242 . S
O148 Sm120 2.386 . S
O148 Sm121 2.681 . S
O148 C138 1.271 . S
O149 Sm121 2.464 . S
O149 C138 1.251 . S
O150 Sm121 2.396 . S
O150 C139 1.252 . S
O151 Sm120 2.408 . S
O151 C139 1.272 . S
H152 C124 0.930 . S
H153 C125 0.929 . S
H154 C127 0.930 . S
H155 C128 0.929 . S
H156 C133 0.930 . S
H157 C134 0.929 . S
H158 C136 0.930 . S
H159 C137 0.929 . S
Sm160 C162 2.846 1_554 S
Sm160 O180 2.543 1_554 S
Sm160 O181 2.450 1_554 S
Sm160 O182 2.681 . S
Sm160 O183 2.464 . S
Sm160 O184 2.396 . S
Sm160 O188 2.386 . S
Sm160 O191 2.408 . S
Sm161 C171 2.846 . S
Sm161 O182 2.386 . S
Sm161 O185 2.408 . S
Sm161 O186 2.543 . S
Sm161 O187 2.450 . S
Sm161 O188 2.681 . S
Sm161 O189 2.464 . S
Sm161 O190 2.396 . S
C162 Sm160 2.846 1_556 S
C162 C163 1.506 . S
C162 O180 1.261 . S
C162 O181 1.242 . S
C163 C162 1.506 . S
C163 C164 1.358 . S
C163 C168 1.382 . S
C164 C163 1.358 . S
C164 C165 1.385 . S
C164 H192 0.930 . S
C165 C164 1.385 . S
C165 C166 1.395 . S
C165 H193 0.929 . S
C166 C165 1.395 . S
C166 C167 1.335 . S
C167 C166 1.335 . S
C167 C168 1.398 . S
C167 H194 0.930 . S
C168 C163 1.382 . S
C168 C167 1.398 . S
C168 H195 0.929 . S
C169 O182 1.271 . S
C169 O183 1.251 . S
C170 O184 1.252 . S
C170 O185 1.272 . S
C171 Sm161 2.846 . S
C171 C172 1.506 . S
C171 O186 1.261 . S
C171 O187 1.242 . S
C172 C171 1.506 . S
C172 C173 1.358 . S
C172 C177 1.382 . S
C173 C172 1.358 . S
C173 C174 1.385 . S
C173 H196 0.930 . S
C174 C173 1.385 . S
C174 C175 1.395 . S
C174 H197 0.929 . S
C175 C174 1.395 . S
C175 C176 1.335 . S
C176 C175 1.335 . S
C176 C177 1.398 . S
C176 H198 0.930 . S
C177 C172 1.382 . S
C177 C176 1.398 . S
C177 H199 0.929 . S
C178 O188 1.271 . S
C178 O189 1.251 . S
C179 O190 1.252 . S
C179 O191 1.272 . S
O180 Sm160 2.543 1_556 S
O180 C162 1.261 . S
O181 Sm160 2.450 1_556 S
O181 C162 1.242 . S
O182 Sm160 2.681 . S
O182 Sm161 2.386 . S
O182 C169 1.271 . S
O183 Sm160 2.464 . S
O183 C169 1.251 . S
O184 Sm160 2.396 . S
O184 C170 1.252 . S
O185 Sm161 2.408 . S
O185 C170 1.272 . S
O186 Sm161 2.543 . S
O186 C171 1.261 . S
O187 Sm161 2.450 . S
O187 C171 1.242 . S
O188 Sm160 2.386 . S
O188 Sm161 2.681 . S
O188 C178 1.271 . S
O189 Sm161 2.464 . S
O189 C178 1.251 . S
O190 Sm161 2.396 . S
O190 C179 1.252 . S
O191 Sm160 2.408 . S
O191 C179 1.272 . S
H192 C164 0.930 . S
H193 C165 0.929 . S
H194 C167 0.930 . S
H195 C168 0.929 . S
H196 C173 0.930 . S
H197 C174 0.929 . S
H198 C176 0.930 . S
H199 C177 0.929 . S
Sm200 C202 2.846 . S
Sm200 O220 2.543 . S
Sm200 O221 2.450 . S
Sm200 O222 2.681 . S
Sm200 O223 2.464 . S
Sm200 O224 2.396 . S
Sm200 O228 2.386 . S
Sm200 O231 2.408 . S
Sm201 C211 2.846 1_556 S
Sm201 O222 2.386 . S
Sm201 O225 2.408 . S
Sm201 O226 2.543 1_556 S
Sm201 O227 2.450 1_556 S
Sm201 O228 2.681 . S
Sm201 O229 2.464 . S
Sm201 O230 2.396 . S
C202 Sm200 2.846 . S
C202 C203 1.506 . S
C202 O220 1.261 . S
C202 O221 1.242 . S
C203 C202 1.506 . S
C203 C204 1.358 . S
C203 C208 1.382 . S
C204 C203 1.358 . S
C204 C205 1.385 . S
C204 H232 0.930 . S
C205 C204 1.385 . S
C205 C206 1.395 . S
C205 H233 0.929 . S
C206 C205 1.395 . S
C206 C207 1.335 . S
C207 C206 1.335 . S
C207 C208 1.398 . S
C207 H234 0.930 . S
C208 C203 1.382 . S
C208 C207 1.398 . S
C208 H235 0.929 . S
C209 O222 1.271 . S
C209 O223 1.251 . S
C210 O224 1.252 . S
C210 O225 1.272 . S
C211 Sm201 2.846 1_554 S
C211 C212 1.506 . S
C211 O226 1.261 . S
C211 O227 1.242 . S
C212 C211 1.506 . S
C212 C213 1.358 . S
C212 C217 1.382 . S
C213 C212 1.358 . S
C213 C214 1.385 . S
C213 H236 0.930 . S
C214 C213 1.385 . S
C214 C215 1.395 . S
C214 H237 0.929 . S
C215 C214 1.395 . S
C215 C216 1.335 . S
C216 C215 1.335 . S
C216 C217 1.398 . S
C216 H238 0.930 . S
C217 C212 1.382 . S
C217 C216 1.398 . S
C217 H239 0.929 . S
C218 O228 1.271 . S
C218 O229 1.251 . S
C219 O230 1.252 . S
C219 O231 1.272 . S
O220 Sm200 2.543 . S
O220 C202 1.261 . S
O221 Sm200 2.450 . S
O221 C202 1.242 . S
O222 Sm200 2.681 . S
O222 Sm201 2.386 . S
O222 C209 1.271 . S
O223 Sm200 2.464 . S
O223 C209 1.251 . S
O224 Sm200 2.396 . S
O224 C210 1.252 . S
O225 Sm201 2.408 . S
O225 C210 1.272 . S
O226 Sm201 2.543 1_554 S
O226 C211 1.261 . S
O227 Sm201 2.450 1_554 S
O227 C211 1.242 . S
O228 Sm200 2.386 . S
O228 Sm201 2.681 . S
O228 C218 1.271 . S
O229 Sm201 2.464 . S
O229 C218 1.251 . S
O230 Sm201 2.396 . S
O230 C219 1.252 . S
O231 Sm200 2.408 . S
O231 C219 1.272 . S
H232 C204 0.930 . S
H233 C205 0.929 . S
H234 C207 0.930 . S
H235 C208 0.929 . S
H236 C213 0.930 . S
H237 C214 0.929 . S
H238 C216 0.930 . S
H239 C217 0.929 . S
Sm240 C242 2.846 1_554 S
Sm240 O260 2.543 1_554 S
Sm240 O261 2.450 1_554 S
Sm240 O262 2.681 . S
Sm240 O263 2.464 . S
Sm240 O264 2.396 . S
Sm240 O268 2.386 . S
Sm240 O271 2.408 . S
Sm241 C251 2.846 . S
Sm241 O262 2.386 . S
Sm241 O265 2.408 . S
Sm241 O266 2.543 . S
Sm241 O267 2.450 . S
Sm241 O268 2.681 . S
Sm241 O269 2.464 . S
Sm241 O270 2.396 . S
C242 Sm240 2.846 1_556 S
C242 C243 1.506 . S
C242 O260 1.261 . S
C242 O261 1.242 . S
C243 C242 1.506 . S
C243 C244 1.358 . S
C243 C248 1.382 . S
C244 C243 1.358 . S
C244 C245 1.385 . S
C244 H272 0.930 . S
C245 C244 1.385 . S
C245 C246 1.395 . S
C245 H273 0.929 . S
C246 C245 1.395 . S
C246 C247 1.335 . S
C247 C246 1.335 . S
C247 C248 1.398 . S
C247 H274 0.930 . S
C248 C243 1.382 . S
C248 C247 1.398 . S
C248 H275 0.929 . S
C249 O262 1.271 . S
C249 O263 1.251 . S
C250 O264 1.252 . S
C250 O265 1.272 . S
C251 Sm241 2.846 . S
C251 C252 1.506 . S
C251 O266 1.261 . S
C251 O267 1.242 . S
C252 C251 1.506 . S
C252 C253 1.358 . S
C252 C257 1.382 . S
C253 C252 1.358 . S
C253 C254 1.385 . S
C253 H276 0.930 . S
C254 C253 1.385 . S
C254 C255 1.395 . S
C254 H277 0.929 . S
C255 C254 1.395 . S
C255 C256 1.335 . S
C256 C255 1.335 . S
C256 C257 1.398 . S
C256 H278 0.930 . S
C257 C252 1.382 . S
C257 C256 1.398 . S
C257 H279 0.929 . S
C258 O268 1.271 . S
C258 O269 1.251 . S
C259 O270 1.252 . S
C259 O271 1.272 . S
O260 Sm240 2.543 1_556 S
O260 C242 1.261 . S
O261 Sm240 2.450 1_556 S
O261 C242 1.242 . S
O262 Sm240 2.681 . S
O262 Sm241 2.386 . S
O262 C249 1.271 . S
O263 Sm240 2.464 . S
O263 C249 1.251 . S
O264 Sm240 2.396 . S
O264 C250 1.252 . S
O265 Sm241 2.408 . S
O265 C250 1.272 . S
O266 Sm241 2.543 . S
O266 C251 1.261 . S
O267 Sm241 2.450 . S
O267 C251 1.242 . S
O268 Sm240 2.386 . S
O268 Sm241 2.681 . S
O268 C258 1.271 . S
O269 Sm241 2.464 . S
O269 C258 1.251 . S
O270 Sm241 2.396 . S
O270 C259 1.252 . S
O271 Sm240 2.408 . S
O271 C259 1.272 . S
H272 C244 0.930 . S
H273 C245 0.929 . S
H274 C247 0.930 . S
H275 C248 0.929 . S
H276 C253 0.930 . S
H277 C254 0.929 . S
H278 C256 0.930 . S
H279 C257 0.929 . S
Sm280 C282 2.846 . S
Sm280 O300 2.543 . S
Sm280 O301 2.450 . S
Sm280 O302 2.681 . S
Sm280 O303 2.464 . S
Sm280 O304 2.396 . S
Sm280 O308 2.386 . S
Sm280 O311 2.408 . S
Sm281 C291 2.846 1_556 S
Sm281 O302 2.386 . S
Sm281 O305 2.408 . S
Sm281 O306 2.543 1_556 S
Sm281 O307 2.450 1_556 S
Sm281 O308 2.681 . S
Sm281 O309 2.464 . S
Sm281 O310 2.396 . S
C282 Sm280 2.846 . S
C282 C283 1.506 . S
C282 O300 1.261 . S
C282 O301 1.242 . S
C283 C282 1.506 . S
C283 C284 1.358 . S
C283 C288 1.382 . S
C284 C283 1.358 . S
C284 C285 1.385 . S
C284 H312 0.930 . S
C285 C284 1.385 . S
C285 C286 1.395 . S
C285 H313 0.929 . S
C286 C285 1.395 . S
C286 C287 1.335 . S
C287 C286 1.335 . S
C287 C288 1.398 . S
C287 H314 0.930 . S
C288 C283 1.382 . S
C288 C287 1.398 . S
C288 H315 0.929 . S
C289 O302 1.271 . S
C289 O303 1.251 . S
C290 O304 1.252 . S
C290 O305 1.272 . S
C291 Sm281 2.846 1_554 S
C291 C292 1.506 . S
C291 O306 1.261 . S
C291 O307 1.242 . S
C292 C291 1.506 . S
C292 C293 1.358 . S
C292 C297 1.382 . S
C293 C292 1.358 . S
C293 C294 1.385 . S
C293 H316 0.930 . S
C294 C293 1.385 . S
C294 C295 1.395 . S
C294 H317 0.929 . S
C295 C294 1.395 . S
C295 C296 1.335 . S
C296 C295 1.335 . S
C296 C297 1.398 . S
C296 H318 0.930 . S
C297 C292 1.382 . S
C297 C296 1.398 . S
C297 H319 0.929 . S
C298 O308 1.271 . S
C298 O309 1.251 . S
C299 O310 1.252 . S
C299 O311 1.272 . S
O300 Sm280 2.543 . S
O300 C282 1.261 . S
O301 Sm280 2.450 . S
O301 C282 1.242 . S
O302 Sm280 2.681 . S
O302 Sm281 2.386 . S
O302 C289 1.271 . S
O303 Sm280 2.464 . S
O303 C289 1.251 . S
O304 Sm280 2.396 . S
O304 C290 1.252 . S
O305 Sm281 2.408 . S
O305 C290 1.272 . S
O306 Sm281 2.543 1_554 S
O306 C291 1.261 . S
O307 Sm281 2.450 1_554 S
O307 C291 1.242 . S
O308 Sm280 2.386 . S
O308 Sm281 2.681 . S
O308 C298 1.271 . S
O309 Sm281 2.464 . S
O309 C298 1.251 . S
O310 Sm281 2.396 . S
O310 C299 1.252 . S
O311 Sm280 2.408 . S
O311 C299 1.272 . S
H312 C284 0.930 . S
H313 C285 0.929 . S
H314 C287 0.930 . S
H315 C288 0.929 . S
H316 C293 0.930 . S
H317 C294 0.929 . S
H318 C296 0.930 . S
H319 C297 0.929 . S
Sm320 C322 2.846 . S
Sm320 O340 2.543 . S
Sm320 O341 2.450 . S
Sm320 O342 2.681 . S
Sm320 O343 2.464 . S
Sm320 O344 2.396 . S
Sm320 O348 2.386 . S
Sm320 O351 2.408 . S
Sm321 C331 2.846 . S
Sm321 O342 2.386 . S
Sm321 O345 2.408 . S
Sm321 O346 2.543 . S
Sm321 O347 2.450 . S
Sm321 O348 2.681 . S
Sm321 O349 2.464 . S
Sm321 O350 2.396 . S
C322 Sm320 2.846 . S
C322 C323 1.506 . S
C322 O340 1.261 . S
C322 O341 1.242 . S
C323 C322 1.506 . S
C323 C324 1.358 . S
C323 C328 1.382 . S
C324 C323 1.358 . S
C324 C325 1.385 . S
C324 H352 0.930 . S
C325 C324 1.385 . S
C325 C326 1.395 . S
C325 H353 0.929 . S
C326 C325 1.395 . S
C326 C327 1.335 . S
C327 C326 1.335 . S
C327 C328 1.398 . S
C327 H354 0.930 . S
C328 C323 1.382 . S
C328 C327 1.398 . S
C328 H355 0.929 . S
C329 O342 1.271 . S
C329 O343 1.251 . S
C330 O344 1.252 . S
C330 O345 1.272 . S
C331 Sm321 2.846 . S
C331 C332 1.506 . S
C331 O346 1.261 . S
C331 O347 1.242 . S
C332 C331 1.506 . S
C332 C333 1.358 . S
C332 C337 1.382 . S
C333 C332 1.358 . S
C333 C334 1.385 . S
C333 H356 0.930 . S
C334 C333 1.385 . S
C334 C335 1.395 . S
C334 H357 0.929 . S
C335 C334 1.395 . S
C335 C336 1.335 . S
C336 C335 1.335 . S
C336 C337 1.398 . S
C336 H358 0.930 . S
C337 C332 1.382 . S
C337 C336 1.398 . S
C337 H359 0.929 . S
C338 O348 1.271 . S
C338 O349 1.251 . S
C339 O350 1.252 . S
C339 O351 1.272 . S
O340 Sm320 2.543 . S
O340 C322 1.261 . S
O341 Sm320 2.450 . S
O341 C322 1.242 . S
O342 Sm320 2.681 . S
O342 Sm321 2.386 . S
O342 C329 1.271 . S
O343 Sm320 2.464 . S
O343 C329 1.251 . S
O344 Sm320 2.396 . S
O344 C330 1.252 . S
O345 Sm321 2.408 . S
O345 C330 1.272 . S
O346 Sm321 2.543 . S
O346 C331 1.261 . S
O347 Sm321 2.450 . S
O347 C331 1.242 . S
O348 Sm320 2.386 . S
O348 Sm321 2.681 . S
O348 C338 1.271 . S
O349 Sm321 2.464 . S
O349 C338 1.251 . S
O350 Sm321 2.396 . S
O350 C339 1.252 . S
O351 Sm320 2.408 . S
O351 C339 1.272 . S
H352 C324 0.930 . S
H353 C325 0.929 . S
H354 C327 0.930 . S
H355 C328 0.929 . S
H356 C333 0.930 . S
H357 C334 0.929 . S
H358 C336 0.930 . S
H359 C337 0.929 . S
Sm360 C362 2.846 . S
Sm360 O380 2.543 . S
Sm360 O381 2.450 . S
Sm360 O382 2.681 . S
Sm360 O383 2.464 . S
Sm360 O384 2.396 . S
Sm360 O388 2.386 . S
Sm360 O391 2.408 . S
Sm361 C371 2.846 . S
Sm361 O382 2.386 . S
Sm361 O385 2.408 . S
Sm361 O386 2.543 . S
Sm361 O387 2.450 . S
Sm361 O388 2.681 . S
Sm361 O389 2.464 . S
Sm361 O390 2.396 . S
C362 Sm360 2.846 . S
C362 C363 1.506 . S
C362 O380 1.261 . S
C362 O381 1.242 . S
C363 C362 1.506 . S
C363 C364 1.358 . S
C363 C368 1.382 . S
C364 C363 1.358 . S
C364 C365 1.385 . S
C364 H392 0.930 . S
C365 C364 1.385 . S
C365 C366 1.395 . S
C365 H393 0.929 . S
C366 C365 1.395 . S
C366 C367 1.335 . S
C367 C366 1.335 . S
C367 C368 1.398 . S
C367 H394 0.930 . S
C368 C363 1.382 . S
C368 C367 1.398 . S
C368 H395 0.929 . S
C369 O382 1.271 . S
C369 O383 1.251 . S
C370 O384 1.252 . S
C370 O385 1.272 . S
C371 Sm361 2.846 . S
C371 C372 1.506 . S
C371 O386 1.261 . S
C371 O387 1.242 . S
C372 C371 1.506 . S
C372 C373 1.358 . S
C372 C377 1.382 . S
C373 C372 1.358 . S
C373 C374 1.385 . S
C373 H396 0.930 . S
C374 C373 1.385 . S
C374 C375 1.395 . S
C374 H397 0.929 . S
C375 C374 1.395 . S
C375 C376 1.335 . S
C376 C375 1.335 . S
C376 C377 1.398 . S
C376 H398 0.930 . S
C377 C372 1.382 . S
C377 C376 1.398 . S
C377 H399 0.929 . S
C378 O388 1.271 . S
C378 O389 1.251 . S
C379 O390 1.252 . S
C379 O391 1.272 . S
O380 Sm360 2.543 . S
O380 C362 1.261 . S
O381 Sm360 2.450 . S
O381 C362 1.242 . S
O382 Sm360 2.681 . S
O382 Sm361 2.386 . S
O382 C369 1.271 . S
O383 Sm360 2.464 . S
O383 C369 1.251 . S
O384 Sm360 2.396 . S
O384 C370 1.252 . S
O385 Sm361 2.408 . S
O385 C370 1.272 . S
O386 Sm361 2.543 . S
O386 C371 1.261 . S
O387 Sm361 2.450 . S
O387 C371 1.242 . S
O388 Sm360 2.386 . S
O388 Sm361 2.681 . S
O388 C378 1.271 . S
O389 Sm361 2.464 . S
O389 C378 1.251 . S
O390 Sm361 2.396 . S
O390 C379 1.252 . S
O391 Sm360 2.408 . S
O391 C379 1.272 . S
H392 C364 0.930 . S
H393 C365 0.929 . S
H394 C367 0.930 . S
H395 C368 0.929 . S
H396 C373 0.930 . S
H397 C374 0.929 . S
H398 C376 0.930 . S
H399 C377 0.929 . S
Sm400 C402 2.846 . S
Sm400 O420 2.543 . S
Sm400 O421 2.450 . S
Sm400 O422 2.681 . S
Sm400 O423 2.464 . S
Sm400 O424 2.396 . S
Sm400 O428 2.386 . S
Sm400 O431 2.408 . S
Sm401 C411 2.846 . S
Sm401 O422 2.386 . S
Sm401 O425 2.408 . S
Sm401 O426 2.543 . S
Sm401 O427 2.450 . S
Sm401 O428 2.681 . S
Sm401 O429 2.464 . S
Sm401 O430 2.396 . S
C402 Sm400 2.846 . S
C402 C403 1.506 . S
C402 O420 1.261 . S
C402 O421 1.242 . S
C403 C402 1.506 . S
C403 C404 1.358 . S
C403 C408 1.382 . S
C404 C403 1.358 . S
C404 C405 1.385 . S
C404 H432 0.930 . S
C405 C404 1.385 . S
C405 C406 1.395 . S
C405 H433 0.929 . S
C406 C405 1.395 . S
C406 C407 1.335 . S
C407 C406 1.335 . S
C407 C408 1.398 . S
C407 H434 0.930 . S
C408 C403 1.382 . S
C408 C407 1.398 . S
C408 H435 0.929 . S
C409 O422 1.271 . S
C409 O423 1.251 . S
C410 O424 1.252 . S
C410 O425 1.272 . S
C411 Sm401 2.846 . S
C411 C412 1.506 . S
C411 O426 1.261 . S
C411 O427 1.242 . S
C412 C411 1.506 . S
C412 C413 1.358 . S
C412 C417 1.382 . S
C413 C412 1.358 . S
C413 C414 1.385 . S
C413 H436 0.930 . S
C414 C413 1.385 . S
C414 C415 1.395 . S
C414 H437 0.929 . S
C415 C414 1.395 . S
C415 C416 1.335 . S
C416 C415 1.335 . S
C416 C417 1.398 . S
C416 H438 0.930 . S
C417 C412 1.382 . S
C417 C416 1.398 . S
C417 H439 0.929 . S
C418 O428 1.271 . S
C418 O429 1.251 . S
C419 O430 1.252 . S
C419 O431 1.272 . S
O420 Sm400 2.543 . S
O420 C402 1.261 . S
O421 Sm400 2.450 . S
O421 C402 1.242 . S
O422 Sm400 2.681 . S
O422 Sm401 2.386 . S
O422 C409 1.271 . S
O423 Sm400 2.464 . S
O423 C409 1.251 . S
O424 Sm400 2.396 . S
O424 C410 1.252 . S
O425 Sm401 2.408 . S
O425 C410 1.272 . S
O426 Sm401 2.543 . S
O426 C411 1.261 . S
O427 Sm401 2.450 . S
O427 C411 1.242 . S
O428 Sm400 2.386 . S
O428 Sm401 2.681 . S
O428 C418 1.271 . S
O429 Sm401 2.464 . S
O429 C418 1.251 . S
O430 Sm401 2.396 . S
O430 C419 1.252 . S
O431 Sm400 2.408 . S
O431 C419 1.272 . S
H432 C404 0.930 . S
H433 C405 0.929 . S
H434 C407 0.930 . S
H435 C408 0.929 . S
H436 C413 0.930 . S
H437 C414 0.929 . S
H438 C416 0.930 . S
H439 C417 0.929 . S
Sm440 C442 2.846 . S
Sm440 O460 2.543 . S
Sm440 O461 2.450 . S
Sm440 O462 2.681 . S
Sm440 O463 2.464 . S
Sm440 O464 2.396 . S
Sm440 O468 2.386 . S
Sm440 O471 2.408 . S
Sm441 C451 2.846 . S
Sm441 O462 2.386 . S
Sm441 O465 2.408 . S
Sm441 O466 2.543 . S
Sm441 O467 2.450 . S
Sm441 O468 2.681 . S
Sm441 O469 2.464 . S
Sm441 O470 2.396 . S
C442 Sm440 2.846 . S
C442 C443 1.506 . S
C442 O460 1.261 . S
C442 O461 1.242 . S
C443 C442 1.506 . S
C443 C444 1.358 . S
C443 C448 1.382 . S
C444 C443 1.358 . S
C444 C445 1.385 . S
C444 H472 0.930 . S
C445 C444 1.385 . S
C445 C446 1.395 . S
C445 H473 0.929 . S
C446 C445 1.395 . S
C446 C447 1.335 . S
C447 C446 1.335 . S
C447 C448 1.398 . S
C447 H474 0.930 . S
C448 C443 1.382 . S
C448 C447 1.398 . S
C448 H475 0.929 . S
C449 O462 1.271 . S
C449 O463 1.251 . S
C450 O464 1.252 . S
C450 O465 1.272 . S
C451 Sm441 2.846 . S
C451 C452 1.506 . S
C451 O466 1.261 . S
C451 O467 1.242 . S
C452 C451 1.506 . S
C452 C453 1.358 . S
C452 C457 1.382 . S
C453 C452 1.358 . S
C453 C454 1.385 . S
C453 H476 0.930 . S
C454 C453 1.385 . S
C454 C455 1.395 . S
C454 H477 0.929 . S
C455 C454 1.395 . S
C455 C456 1.335 . S
C456 C455 1.335 . S
C456 C457 1.398 . S
C456 H478 0.930 . S
C457 C452 1.382 . S
C457 C456 1.398 . S
C457 H479 0.929 . S
C458 O468 1.271 . S
C458 O469 1.251 . S
C459 O470 1.252 . S
C459 O471 1.272 . S
O460 Sm440 2.543 . S
O460 C442 1.261 . S
O461 Sm440 2.450 . S
O461 C442 1.242 . S
O462 Sm440 2.681 . S
O462 Sm441 2.386 . S
O462 C449 1.271 . S
O463 Sm440 2.464 . S
O463 C449 1.251 . S
O464 Sm440 2.396 . S
O464 C450 1.252 . S
O465 Sm441 2.408 . S
O465 C450 1.272 . S
O466 Sm441 2.543 . S
O466 C451 1.261 . S
O467 Sm441 2.450 . S
O467 C451 1.242 . S
O468 Sm440 2.386 . S
O468 Sm441 2.681 . S
O468 C458 1.271 . S
O469 Sm441 2.464 . S
O469 C458 1.251 . S
O470 Sm441 2.396 . S
O470 C459 1.252 . S
O471 Sm440 2.408 . S
O471 C459 1.272 . S
H472 C444 0.930 . S
H473 C445 0.929 . S
H474 C447 0.930 . S
H475 C448 0.929 . S
H476 C453 0.930 . S
H477 C454 0.929 . S
H478 C456 0.930 . S
H479 C457 0.929 . S
Sm480 C482 2.846 . S
Sm480 O500 2.543 . S
Sm480 O501 2.450 . S
Sm480 O502 2.681 . S
Sm480 O503 2.464 . S
Sm480 O504 2.396 . S
Sm480 O508 2.386 . S
Sm480 O511 2.408 . S
Sm481 C491 2.846 . S
Sm481 O502 2.386 . S
Sm481 O505 2.408 . S
Sm481 O506 2.543 . S
Sm481 O507 2.450 . S
Sm481 O508 2.681 . S
Sm481 O509 2.464 . S
Sm481 O510 2.396 . S
C482 Sm480 2.846 . S
C482 C483 1.506 . S
C482 O500 1.261 . S
C482 O501 1.242 . S
C483 C482 1.506 . S
C483 C484 1.358 . S
C483 C488 1.382 . S
C484 C483 1.358 . S
C484 C485 1.385 . S
C484 H512 0.930 . S
C485 C484 1.385 . S
C485 C486 1.395 . S
C485 H513 0.929 . S
C486 C485 1.395 . S
C486 C487 1.335 . S
C487 C486 1.335 . S
C487 C488 1.398 . S
C487 H514 0.930 . S
C488 C483 1.382 . S
C488 C487 1.398 . S
C488 H515 0.929 . S
C489 O502 1.271 . S
C489 O503 1.251 . S
C490 O504 1.252 . S
C490 O505 1.272 . S
C491 Sm481 2.846 . S
C491 C492 1.506 . S
C491 O506 1.261 . S
C491 O507 1.242 . S
C492 C491 1.506 . S
C492 C493 1.358 . S
C492 C497 1.382 . S
C493 C492 1.358 . S
C493 C494 1.385 . S
C493 H516 0.930 . S
C494 C493 1.385 . S
C494 C495 1.395 . S
C494 H517 0.929 . S
C495 C494 1.395 . S
C495 C496 1.335 . S
C496 C495 1.335 . S
C496 C497 1.398 . S
C496 H518 0.930 . S
C497 C492 1.382 . S
C497 C496 1.398 . S
C497 H519 0.929 . S
C498 O508 1.271 . S
C498 O509 1.251 . S
C499 O510 1.252 . S
C499 O511 1.272 . S
O500 Sm480 2.543 . S
O500 C482 1.261 . S
O501 Sm480 2.450 . S
O501 C482 1.242 . S
O502 Sm480 2.681 . S
O502 Sm481 2.386 . S
O502 C489 1.271 . S
O503 Sm480 2.464 . S
O503 C489 1.251 . S
O504 Sm480 2.396 . S
O504 C490 1.252 . S
O505 Sm481 2.408 . S
O505 C490 1.272 . S
O506 Sm481 2.543 . S
O506 C491 1.261 . S
O507 Sm481 2.450 . S
O507 C491 1.242 . S
O508 Sm480 2.386 . S
O508 Sm481 2.681 . S
O508 C498 1.271 . S
O509 Sm481 2.464 . S
O509 C498 1.251 . S
O510 Sm481 2.396 . S
O510 C499 1.252 . S
O511 Sm480 2.408 . S
O511 C499 1.272 . S
H512 C484 0.930 . S
H513 C485 0.929 . S
H514 C487 0.930 . S
H515 C488 0.929 . S
H516 C493 0.930 . S
H517 C494 0.929 . S
H518 C496 0.930 . S
H519 C497 0.929 . S
Sm520 C522 2.846 . S
Sm520 O540 2.543 . S
Sm520 O541 2.450 . S
Sm520 O542 2.681 . S
Sm520 O543 2.464 . S
Sm520 O544 2.396 . S
Sm520 O548 2.386 . S
Sm520 O551 2.408 . S
Sm521 C531 2.846 . S
Sm521 O542 2.386 . S
Sm521 O545 2.408 . S
Sm521 O546 2.543 . S
Sm521 O547 2.450 . S
Sm521 O548 2.681 . S
Sm521 O549 2.464 . S
Sm521 O550 2.396 . S
C522 Sm520 2.846 . S
C522 C523 1.506 . S
C522 O540 1.261 . S
C522 O541 1.242 . S
C523 C522 1.506 . S
C523 C524 1.358 . S
C523 C528 1.382 . S
C524 C523 1.358 . S
C524 C525 1.385 . S
C524 H552 0.930 . S
C525 C524 1.385 . S
C525 C526 1.395 . S
C525 H553 0.929 . S
C526 C525 1.395 . S
C526 C527 1.335 . S
C527 C526 1.335 . S
C527 C528 1.398 . S
C527 H554 0.930 . S
C528 C523 1.382 . S
C528 C527 1.398 . S
C528 H555 0.929 . S
C529 O542 1.271 . S
C529 O543 1.251 . S
C530 O544 1.252 . S
C530 O545 1.272 . S
C531 Sm521 2.846 . S
C531 C532 1.506 . S
C531 O546 1.261 . S
C531 O547 1.242 . S
C532 C531 1.506 . S
C532 C533 1.358 . S
C532 C537 1.382 . S
C533 C532 1.358 . S
C533 C534 1.385 . S
C533 H556 0.930 . S
C534 C533 1.385 . S
C534 C535 1.395 . S
C534 H557 0.929 . S
C535 C534 1.395 . S
C535 C536 1.335 . S
C536 C535 1.335 . S
C536 C537 1.398 . S
C536 H558 0.930 . S
C537 C532 1.382 . S
C537 C536 1.398 . S
C537 H559 0.929 . S
C538 O548 1.271 . S
C538 O549 1.251 . S
C539 O550 1.252 . S
C539 O551 1.272 . S
O540 Sm520 2.543 . S
O540 C522 1.261 . S
O541 Sm520 2.450 . S
O541 C522 1.242 . S
O542 Sm520 2.681 . S
O542 Sm521 2.386 . S
O542 C529 1.271 . S
O543 Sm520 2.464 . S
O543 C529 1.251 . S
O544 Sm520 2.396 . S
O544 C530 1.252 . S
O545 Sm521 2.408 . S
O545 C530 1.272 . S
O546 Sm521 2.543 . S
O546 C531 1.261 . S
O547 Sm521 2.450 . S
O547 C531 1.242 . S
O548 Sm520 2.386 . S
O548 Sm521 2.681 . S
O548 C538 1.271 . S
O549 Sm521 2.464 . S
O549 C538 1.251 . S
O550 Sm521 2.396 . S
O550 C539 1.252 . S
O551 Sm520 2.408 . S
O551 C539 1.272 . S
H552 C524 0.930 . S
H553 C525 0.929 . S
H554 C527 0.930 . S
H555 C528 0.929 . S
H556 C533 0.930 . S
H557 C534 0.929 . S
H558 C536 0.930 . S
H559 C537 0.929 . S
Sm560 C562 2.846 . S
Sm560 O580 2.543 . S
Sm560 O581 2.450 . S
Sm560 O582 2.681 . S
Sm560 O583 2.464 . S
Sm560 O584 2.396 . S
Sm560 O588 2.386 . S
Sm560 O591 2.408 . S
Sm561 C571 2.846 . S
Sm561 O582 2.386 . S
Sm561 O585 2.408 . S
Sm561 O586 2.543 . S
Sm561 O587 2.450 . S
Sm561 O588 2.681 . S
Sm561 O589 2.464 . S
Sm561 O590 2.396 . S
C562 Sm560 2.846 . S
C562 C563 1.506 . S
C562 O580 1.261 . S
C562 O581 1.242 . S
C563 C562 1.506 . S
C563 C564 1.358 . S
C563 C568 1.382 . S
C564 C563 1.358 . S
C564 C565 1.385 . S
C564 H592 0.930 . S
C565 C564 1.385 . S
C565 C566 1.395 . S
C565 H593 0.929 . S
C566 C565 1.395 . S
C566 C567 1.335 . S
C567 C566 1.335 . S
C567 C568 1.398 . S
C567 H594 0.930 . S
C568 C563 1.382 . S
C568 C567 1.398 . S
C568 H595 0.929 . S
C569 O582 1.271 . S
C569 O583 1.251 . S
C570 O584 1.252 . S
C570 O585 1.272 . S
C571 Sm561 2.846 . S
C571 C572 1.506 . S
C571 O586 1.261 . S
C571 O587 1.242 . S
C572 C571 1.506 . S
C572 C573 1.358 . S
C572 C577 1.382 . S
C573 C572 1.358 . S
C573 C574 1.385 . S
C573 H596 0.930 . S
C574 C573 1.385 . S
C574 C575 1.395 . S
C574 H597 0.929 . S
C575 C574 1.395 . S
C575 C576 1.335 . S
C576 C575 1.335 . S
C576 C577 1.398 . S
C576 H598 0.930 . S
C577 C572 1.382 . S
C577 C576 1.398 . S
C577 H599 0.929 . S
C578 O588 1.271 . S
C578 O589 1.251 . S
C579 O590 1.252 . S
C579 O591 1.272 . S
O580 Sm560 2.543 . S
O580 C562 1.261 . S
O581 Sm560 2.450 . S
O581 C562 1.242 . S
O582 Sm560 2.681 . S
O582 Sm561 2.386 . S
O582 C569 1.271 . S
O583 Sm560 2.464 . S
O583 C569 1.251 . S
O584 Sm560 2.396 . S
O584 C570 1.252 . S
O585 Sm561 2.408 . S
O585 C570 1.272 . S
O586 Sm561 2.543 . S
O586 C571 1.261 . S
O587 Sm561 2.450 . S
O587 C571 1.242 . S
O588 Sm560 2.386 . S
O588 Sm561 2.681 . S
O588 C578 1.271 . S
O589 Sm561 2.464 . S
O589 C578 1.251 . S
O590 Sm561 2.396 . S
O590 C579 1.252 . S
O591 Sm560 2.408 . S
O591 C579 1.272 . S
H592 C564 0.930 . S
H593 C565 0.929 . S
H594 C567 0.930 . S
H595 C568 0.929 . S
H596 C573 0.930 . S
H597 C574 0.929 . S
H598 C576 0.930 . S
H599 C577 0.929 . S
Sm600 C602 2.846 . S
Sm600 O620 2.543 . S
Sm600 O621 2.450 . S
Sm600 O622 2.681 . S
Sm600 O623 2.464 . S
Sm600 O624 2.396 . S
Sm600 O628 2.386 . S
Sm600 O631 2.408 . S
Sm601 C611 2.846 . S
Sm601 O622 2.386 . S
Sm601 O625 2.408 . S
Sm601 O626 2.543 . S
Sm601 O627 2.450 . S
Sm601 O628 2.681 . S
Sm601 O629 2.464 . S
Sm601 O630 2.396 . S
C602 Sm600 2.846 . S
C602 C603 1.506 . S
C602 O620 1.261 . S
C602 O621 1.242 . S
C603 C602 1.506 . S
C603 C604 1.358 . S
C603 C608 1.382 . S
C604 C603 1.358 . S
C604 C605 1.385 . S
C604 H632 0.930 . S
C605 C604 1.385 . S
C605 C606 1.395 . S
C605 H633 0.929 . S
C606 C605 1.395 . S
C606 C607 1.335 . S
C607 C606 1.335 . S
C607 C608 1.398 . S
C607 H634 0.930 . S
C608 C603 1.382 . S
C608 C607 1.398 . S
C608 H635 0.929 . S
C609 O622 1.271 . S
C609 O623 1.251 . S
C610 O624 1.252 . S
C610 O625 1.272 . S
C611 Sm601 2.846 . S
C611 C612 1.506 . S
C611 O626 1.261 . S
C611 O627 1.242 . S
C612 C611 1.506 . S
C612 C613 1.358 . S
C612 C617 1.382 . S
C613 C612 1.358 . S
C613 C614 1.385 . S
C613 H636 0.930 . S
C614 C613 1.385 . S
C614 C615 1.395 . S
C614 H637 0.929 . S
C615 C614 1.395 . S
C615 C616 1.335 . S
C616 C615 1.335 . S
C616 C617 1.398 . S
C616 H638 0.930 . S
C617 C612 1.382 . S
C617 C616 1.398 . S
C617 H639 0.929 . S
C618 O628 1.271 . S
C618 O629 1.251 . S
C619 O630 1.252 . S
C619 O631 1.272 . S
O620 Sm600 2.543 . S
O620 C602 1.261 . S
O621 Sm600 2.450 . S
O621 C602 1.242 . S
O622 Sm600 2.681 . S
O622 Sm601 2.386 . S
O622 C609 1.271 . S
O623 Sm600 2.464 . S
O623 C609 1.251 . S
O624 Sm600 2.396 . S
O624 C610 1.252 . S
O625 Sm601 2.408 . S
O625 C610 1.272 . S
O626 Sm601 2.543 . S
O626 C611 1.261 . S
O627 Sm601 2.450 . S
O627 C611 1.242 . S
O628 Sm600 2.386 . S
O628 Sm601 2.681 . S
O628 C618 1.271 . S
O629 Sm601 2.464 . S
O629 C618 1.251 . S
O630 Sm601 2.396 . S
O630 C619 1.252 . S
O631 Sm600 2.408 . S
O631 C619 1.272 . S
H632 C604 0.930 . S
H633 C605 0.929 . S
H634 C607 0.930 . S
H635 C608 0.929 . S
H636 C613 0.930 . S
H637 C614 0.929 . S
H638 C616 0.930 . S
H639 C617 0.929 . S
H640 C646 0.930 . S
H641 C650 0.930 . S
H642 C655 0.929 . S
H643 C653 0.929 . S
H644 C648 0.929 . S
H645 C654 0.929 . S
C646 H640 0.930 . S
C646 C647 1.367 . S
C646 C654 1.378 . S
C647 C646 1.367 . S
C647 C655 1.433 . S
C648 H644 0.929 . S
C648 C650 1.378 . S
C648 C652 1.350 1_545 S
C649 C652 1.463 . S
C649 C654 1.350 . S
C649 N657 1.427 . S
C650 H641 0.930 . S
C650 C648 1.378 . S
C650 C651 1.367 . S
C651 C650 1.367 . S
C651 C653 1.433 . S
C652 C648 1.350 1_565 S
C652 C649 1.463 . S
C652 N656 1.427 . S
C653 H643 0.929 . S
C653 C651 1.433 . S
C653 N656 1.384 1_545 S
C654 H645 0.929 . S
C654 C646 1.378 . S
C654 C649 1.350 . S
C655 H642 0.929 . S
C655 C647 1.433 . S
C655 N657 1.384 . S
N656 C652 1.427 . S
N656 C653 1.384 1_565 S
N657 C649 1.427 . S
N657 C655 1.384 . S
H658 C664 0.930 . S
H659 C668 0.930 . S
H660 C673 0.929 . S
H661 C671 0.929 . S
H662 C666 0.929 1_655 S
H663 C672 0.929 . S
C664 H658 0.930 . S
C664 C665 1.367 . S
C664 C672 1.378 . S
C665 C664 1.367 . S
C665 C673 1.433 . S
C666 H662 0.929 1_455 S
C666 C668 1.378 . S
C666 C670 1.350 1_455 S
C667 C670 1.463 . S
C667 C672 1.350 . S
C667 N675 1.427 . S
C668 H659 0.930 . S
C668 C666 1.378 . S
C668 C669 1.367 . S
C669 C668 1.367 . S
C669 C671 1.433 . S
C670 C666 1.350 1_655 S
C670 C667 1.463 . S
C670 N674 1.427 . S
C671 H661 0.929 . S
C671 C669 1.433 . S
C671 N674 1.384 1_455 S
C672 H663 0.929 . S
C672 C664 1.378 . S
C672 C667 1.350 . S
C673 H660 0.929 . S
C673 C665 1.433 . S
C673 N675 1.384 . S
N674 C670 1.427 . S
N674 C671 1.384 1_655 S
N675 C667 1.427 . S
N675 C673 1.384 . S
H676 C682 0.930 . S
H677 C686 0.930 . S
H678 C691 0.929 . S
H679 C689 0.929 . S
H680 C684 0.929 . S
H681 C690 0.929 . S
C682 H676 0.930 . S
C682 C683 1.367 . S
C682 C690 1.378 1_565 S
C683 C682 1.367 . S
C683 C691 1.433 . S
C684 H680 0.929 . S
C684 C686 1.378 . S
C684 C688 1.350 . S
C685 C688 1.463 . S
C685 C690 1.350 . S
C685 N693 1.427 1_545 S
C686 H677 0.930 . S
C686 C684 1.378 . S
C686 C687 1.367 . S
C687 C686 1.367 . S
C687 C689 1.433 . S
C688 C684 1.350 . S
C688 C685 1.463 . S
C688 N692 1.427 . S
C689 H679 0.929 . S
C689 C687 1.433 . S
C689 N692 1.384 . S
C690 H681 0.929 . S
C690 C682 1.378 1_545 S
C690 C685 1.350 . S
C691 H678 0.929 . S
C691 C683 1.433 . S
C691 N693 1.384 . S
N692 C688 1.427 . S
N692 C689 1.384 . S
N693 C685 1.427 1_565 S
N693 C691 1.384 . S
H694 C700 0.930 . S
H695 C704 0.930 . S
H696 C709 0.929 . S
H697 C707 0.929 . S
H698 C702 0.929 . S
H699 C708 0.929 . S
C700 H694 0.930 . S
C700 C701 1.367 . S
C700 C708 1.378 . S
C701 C700 1.367 . S
C701 C709 1.433 . S
C702 H698 0.929 . S
C702 C704 1.378 . S
C702 C706 1.350 . S
C703 C706 1.463 . S
C703 C708 1.350 1_455 S
C703 N711 1.427 . S
C704 H695 0.930 . S
C704 C702 1.378 . S
C704 C705 1.367 . S
C705 C704 1.367 . S
C705 C707 1.433 . S
C706 C702 1.350 . S
C706 C703 1.463 . S
C706 N710 1.427 . S
C707 H697 0.929 . S
C707 C705 1.433 . S
C707 N710 1.384 . S
C708 H699 0.929 . S
C708 C700 1.378 . S
C708 C703 1.350 1_655 S
C709 H696 0.929 . S
C709 C701 1.433 . S
C709 N711 1.384 1_655 S
N710 C706 1.427 . S
N710 C707 1.384 . S
N711 C703 1.427 . S
N711 C709 1.384 1_455 S
H712 C718 0.930 . S
H713 C722 0.930 . S
H714 C727 0.929 . S
H715 C725 0.929 . S
H716 C720 0.929 . S
H717 C726 0.929 . S
C718 H712 0.930 . S
C718 C719 1.367 . S
C718 C726 1.378 . S
C719 C718 1.367 . S
C719 C727 1.433 . S
C720 H716 0.929 . S
C720 C722 1.378 . S
C720 C724 1.350 1_556 S
C721 C724 1.463 . S
C721 C726 1.350 . S
C721 N729 1.427 . S
C722 H713 0.930 . S
C722 C720 1.378 . S
C722 C723 1.367 . S
C723 C722 1.367 . S
C723 C725 1.433 1_556 S
C724 C720 1.350 1_554 S
C724 C721 1.463 . S
C724 N728 1.427 . S
C725 H715 0.929 . S
C725 C723 1.433 1_554 S
C725 N728 1.384 . S
C726 H717 0.929 . S
C726 C718 1.378 . S
C726 C721 1.350 . S
C727 H714 0.929 . S
C727 C719 1.433 . S
C727 N729 1.384 . S
N728 C724 1.427 . S
N728 C725 1.384 . S
N729 C721 1.427 . S
N729 C727 1.384 . S
H730 C736 0.930 . S
H731 C740 0.930 . S
H732 C745 0.929 . S
H733 C743 0.929 . S
H734 C738 0.929 . S
H735 C744 0.929 . S
C736 H730 0.930 . S
C736 C737 1.367 . S
C736 C744 1.378 1_554 S
C737 C736 1.367 . S
C737 C745 1.433 . S
C738 H734 0.929 . S
C738 C740 1.378 . S
C738 C742 1.350 . S
C739 C742 1.463 . S
C739 C744 1.350 . S
C739 N747 1.427 . S
C740 H731 0.930 . S
C740 C738 1.378 . S
C740 C741 1.367 . S
C741 C740 1.367 . S
C741 C743 1.433 . S
C742 C738 1.350 . S
C742 C739 1.463 . S
C742 N746 1.427 . S
C743 H733 0.929 . S
C743 C741 1.433 . S
C743 N746 1.384 . S
C744 H735 0.929 . S
C744 C736 1.378 1_556 S
C744 C739 1.350 . S
C745 H732 0.929 . S
C745 C737 1.433 . S
C745 N747 1.384 1_554 S
N746 C742 1.427 . S
N746 C743 1.384 . S
N747 C739 1.427 . S
N747 C745 1.384 1_556 S
H748 C754 0.930 . S
H749 C758 0.930 . S
H750 C763 0.929 . S
H751 C761 0.929 . S
H752 C756 0.929 . S
H753 C762 0.929 1_556 S
C754 H748 0.930 . S
C754 C755 1.367 . S
C754 C762 1.378 . S
C755 C754 1.367 . S
C755 C763 1.433 . S
C756 H752 0.929 . S
C756 C758 1.378 . S
C756 C760 1.350 . S
C757 C760 1.463 . S
C757 C762 1.350 . S
C757 N765 1.427 . S
C758 H749 0.930 . S
C758 C756 1.378 . S
C758 C759 1.367 1_554 S
C759 C758 1.367 1_556 S
C759 C761 1.433 . S
C760 C756 1.350 . S
C760 C757 1.463 . S
C760 N764 1.427 1_554 S
C761 H751 0.929 . S
C761 C759 1.433 . S
C761 N764 1.384 . S
C762 H753 0.929 1_554 S
C762 C754 1.378 . S
C762 C757 1.350 . S
C763 H750 0.929 . S
C763 C755 1.433 . S
C763 N765 1.384 . S
N764 C760 1.427 1_556 S
N764 C761 1.384 . S
N765 C757 1.427 . S
N765 C763 1.384 . S
H766 C772 0.930 . S
H767 C776 0.930 . S
H768 C781 0.929 . S
H769 C779 0.929 . S
H770 C774 0.929 . S
H771 C780 0.929 . S
C772 H766 0.930 . S
C772 C773 1.367 . S
C772 C780 1.378 1_554 S
C773 C772 1.367 . S
C773 C781 1.433 . S
C774 H770 0.929 . S
C774 C776 1.378 . S
C774 C778 1.350 . S
C775 C778 1.463 . S
C775 C780 1.350 . S
C775 N783 1.427 . S
C776 H767 0.930 . S
C776 C774 1.378 . S
C776 C777 1.367 . S
C777 C776 1.367 . S
C777 C779 1.433 . S
C778 C774 1.350 . S
C778 C775 1.463 . S
C778 N782 1.427 . S
C779 H769 0.929 . S
C779 C777 1.433 . S
C779 N782 1.384 . S
C780 H771 0.929 . S
C780 C772 1.378 1_556 S
C780 C775 1.350 . S
C781 H768 0.929 . S
C781 C773 1.433 . S
C781 N783 1.384 1_554 S
N782 C778 1.427 . S
N782 C779 1.384 . S
N783 C775 1.427 . S
N783 C781 1.384 1_556 S
H784 C790 0.930 . S
H785 C794 0.930 . S
H786 C799 0.929 . S
H787 C797 0.929 . S
H788 C792 0.929 . S
H789 C798 0.929 . S
C790 H784 0.930 . S
C790 C791 1.367 . S
C790 C798 1.378 . S
C791 C790 1.367 . S
C791 C799 1.433 . S
C792 H788 0.929 . S
C792 C794 1.378 . S
C792 C796 1.350 . S
C793 C796 1.463 . S
C793 C798 1.350 . S
C793 N801 1.427 . S
C794 H785 0.930 . S
C794 C792 1.378 . S
C794 C795 1.367 . S
C795 C794 1.367 . S
C795 C797 1.433 . S
C796 C792 1.350 . S
C796 C793 1.463 . S
C796 N800 1.427 . S
C797 H787 0.929 . S
C797 C795 1.433 . S
C797 N800 1.384 . S
C798 H789 0.929 . S
C798 C790 1.378 . S
C798 C793 1.350 . S
C799 H786 0.929 . S
C799 C791 1.433 . S
C799 N801 1.384 . S
N800 C796 1.427 . S
N800 C797 1.384 . S
N801 C793 1.427 . S
N801 C799 1.384 . S
H802 C808 0.930 . S
H803 C812 0.930 . S
H804 C817 0.929 . S
H805 C815 0.929 . S
H806 C810 0.929 . S
H807 C816 0.929 . S
C808 H802 0.930 . S
C808 C809 1.367 . S
C808 C816 1.378 . S
C809 C808 1.367 . S
C809 C817 1.433 . S
C810 H806 0.929 . S
C810 C812 1.378 . S
C810 C814 1.350 . S
C811 C814 1.463 . S
C811 C816 1.350 . S
C811 N819 1.427 . S
C812 H803 0.930 . S
C812 C810 1.378 . S
C812 C813 1.367 . S
C813 C812 1.367 . S
C813 C815 1.433 . S
C814 C810 1.350 . S
C814 C811 1.463 . S
C814 N818 1.427 . S
C815 H805 0.929 . S
C815 C813 1.433 . S
C815 N818 1.384 . S
C816 H807 0.929 . S
C816 C808 1.378 . S
C816 C811 1.350 . S
C817 H804 0.929 . S
C817 C809 1.433 . S
C817 N819 1.384 . S
N818 C814 1.427 . S
N818 C815 1.384 . S
N819 C811 1.427 . S
N819 C817 1.384 . S
H820 C826 0.930 . S
H821 C830 0.930 . S
H822 C835 0.929 . S
H823 C833 0.929 . S
H824 C828 0.929 . S
H825 C834 0.929 . S
C826 H820 0.930 . S
C826 C827 1.367 . S
C826 C834 1.378 . S
C827 C826 1.367 . S
C827 C835 1.433 . S
C828 H824 0.929 . S
C828 C830 1.378 . S
C828 C832 1.350 . S
C829 C832 1.463 . S
C829 C834 1.350 . S
C829 N837 1.427 . S
C830 H821 0.930 . S
C830 C828 1.378 . S
C830 C831 1.367 . S
C831 C830 1.367 . S
C831 C833 1.433 . S
C832 C828 1.350 . S
C832 C829 1.463 . S
C832 N836 1.427 . S
C833 H823 0.929 . S
C833 C831 1.433 . S
C833 N836 1.384 . S
C834 H825 0.929 . S
C834 C826 1.378 . S
C834 C829 1.350 . S
C835 H822 0.929 . S
C835 C827 1.433 . S
C835 N837 1.384 . S
N836 C832 1.427 . S
N836 C833 1.384 . S
N837 C829 1.427 . S
N837 C835 1.384 . S
H838 C844 0.930 . S
H839 C848 0.930 . S
H840 C853 0.929 . S
H841 C851 0.929 . S
H842 C846 0.929 . S
H843 C852 0.929 . S
C844 H838 0.930 . S
C844 C845 1.367 . S
C844 C852 1.378 . S
C845 C844 1.367 . S
C845 C853 1.433 . S
C846 H842 0.929 . S
C846 C848 1.378 . S
C846 C850 1.350 . S
C847 C850 1.463 . S
C847 C852 1.350 . S
C847 N855 1.427 . S
C848 H839 0.930 . S
C848 C846 1.378 . S
C848 C849 1.367 . S
C849 C848 1.367 . S
C849 C851 1.433 . S
C850 C846 1.350 . S
C850 C847 1.463 . S
C850 N854 1.427 . S
C851 H841 0.929 . S
C851 C849 1.433 . S
C851 N854 1.384 . S
C852 H843 0.929 . S
C852 C844 1.378 . S
C852 C847 1.350 . S
C853 H840 0.929 . S
C853 C845 1.433 . S
C853 N855 1.384 . S
N854 C850 1.427 . S
N854 C851 1.384 . S
N855 C847 1.427 . S
N855 C853 1.384 . S
H856 C862 0.930 . S
H857 C866 0.930 . S
H858 C871 0.929 . S
H859 C869 0.929 . S
H860 C864 0.929 . S
H861 C870 0.929 . S
C862 H856 0.930 . S
C862 C863 1.367 . S
C862 C870 1.378 . S
C863 C862 1.367 . S
C863 C871 1.433 . S
C864 H860 0.929 . S
C864 C866 1.378 . S
C864 C868 1.350 . S
C865 C868 1.463 . S
C865 C870 1.350 1_545 S
C865 N873 1.427 . S
C866 H857 0.930 . S
C866 C864 1.378 . S
C866 C867 1.367 . S
C867 C866 1.367 . S
C867 C869 1.433 . S
C868 C864 1.350 . S
C868 C865 1.463 . S
C868 N872 1.427 . S
C869 H859 0.929 . S
C869 C867 1.433 . S
C869 N872 1.384 . S
C870 H861 0.929 . S
C870 C862 1.378 . S
C870 C865 1.350 1_565 S
C871 H858 0.929 . S
C871 C863 1.433 . S
C871 N873 1.384 1_565 S
N872 C868 1.427 . S
N872 C869 1.384 . S
N873 C865 1.427 . S
N873 C871 1.384 1_545 S
H874 C880 0.930 . S
H875 C884 0.930 . S
H876 C889 0.929 . S
H877 C887 0.929 . S
H878 C882 0.929 . S
H879 C888 0.929 . S
C880 H874 0.930 . S
C880 C881 1.367 . S
C880 C888 1.378 . S
C881 C880 1.367 . S
C881 C889 1.433 . S
C882 H878 0.929 . S
C882 C884 1.378 1_455 S
C882 C886 1.350 . S
C883 C886 1.463 . S
C883 C888 1.350 . S
C883 N891 1.427 . S
C884 H875 0.930 . S
C884 C882 1.378 1_655 S
C884 C885 1.367 . S
C885 C884 1.367 . S
C885 C887 1.433 . S
C886 C882 1.350 . S
C886 C883 1.463 . S
C886 N890 1.439 . S
C887 H877 0.929 . S
C887 C885 1.433 . S
C887 N890 1.360 1_655 S
C888 H879 0.929 . S
C888 C880 1.378 . S
C888 C883 1.350 . S
C889 H876 0.929 . S
C889 C881 1.433 . S
C889 N891 1.384 . S
N890 C886 1.439 . S
N890 C887 1.360 1_455 S
N891 C883 1.427 . S
N891 C889 1.384 . S
H892 C898 0.930 . S
H893 C902 0.930 . S
H894 C907 0.929 . S
H895 C905 0.929 . S
H896 C900 0.929 . S
H897 C906 0.929 . S
C898 H892 0.930 . S
C898 C899 1.367 . S
C898 C906 1.378 . S
C899 C898 1.367 . S
C899 C907 1.433 . S
C900 H896 0.929 . S
C900 C902 1.378 . S
C900 C904 1.350 1_545 S
C901 C904 1.463 . S
C901 C906 1.350 . S
C901 N909 1.427 . S
C902 H893 0.930 . S
C902 C900 1.378 . S
C902 C903 1.367 . S
C903 C902 1.367 . S
C903 C905 1.433 . S
C904 C900 1.350 1_565 S
C904 C901 1.463 . S
C904 N908 1.427 . S
C905 H895 0.929 . S
C905 C903 1.433 . S
C905 N908 1.384 1_545 S
C906 H897 0.929 . S
C906 C898 1.378 . S
C906 C901 1.350 . S
C907 H894 0.929 . S
C907 C899 1.433 . S
C907 N909 1.384 . S
N908 C904 1.427 . S
N908 C905 1.384 1_565 S
N909 C901 1.427 . S
N909 C907 1.384 . S
H910 C916 0.930 . S
H911 C920 0.930 . S
H912 C925 0.929 . S
H913 C923 0.929 . S
H914 C918 0.929 . S
H915 C924 0.929 . S
C916 H910 0.930 . S
C916 C917 1.367 . S
C916 C924 1.378 1_455 S
C917 C916 1.367 . S
C917 C925 1.433 . S
C918 H914 0.929 . S
C918 C920 1.378 . S
C918 C922 1.350 . S
C919 C922 1.463 . S
C919 C924 1.350 . S
C919 N927 1.427 1_655 S
C920 H911 0.930 . S
C920 C918 1.378 . S
C920 C921 1.367 . S
C921 C920 1.367 . S
C921 C923 1.433 . S
C922 C918 1.350 . S
C922 C919 1.463 . S
C922 N926 1.427 . S
C923 H913 0.929 . S
C923 C921 1.433 . S
C923 N926 1.384 . S
C924 H915 0.929 . S
C924 C916 1.378 1_655 S
C924 C919 1.350 . S
C925 H912 0.929 . S
C925 C917 1.433 . S
C925 N927 1.384 . S
N926 C922 1.427 . S
N926 C923 1.384 . S
N927 C919 1.427 1_455 S
N927 C925 1.384 . S
H928 C934 0.930 . S
H929 C938 0.930 . S
H930 C943 0.929 . S
H931 C941 0.929 . S
H932 C936 0.929 . S
H933 C942 0.929 . S
C934 H928 0.930 . S
C934 C935 1.367 . S
C934 C942 1.378 . S
C935 C934 1.367 . S
C935 C943 1.433 . S
C936 H932 0.929 . S
C936 C938 1.378 . S
C936 C940 1.350 . S
C937 C940 1.463 . S
C937 C942 1.350 . S
C937 N945 1.427 . S
C938 H929 0.930 . S
C938 C936 1.378 . S
C938 C939 1.367 . S
C939 C938 1.367 . S
C939 C941 1.433 . S
C940 C936 1.350 . S
C940 C937 1.463 . S
C940 N944 1.427 . S
C941 H931 0.929 . S
C941 C939 1.433 . S
C941 N944 1.384 . S
C942 H933 0.929 . S
C942 C934 1.378 . S
C942 C937 1.350 . S
C943 H930 0.929 . S
C943 C935 1.433 . S
C943 N945 1.384 . S
N944 C940 1.427 . S
N944 C941 1.384 . S
N945 C937 1.427 . S
N945 C943 1.384 . S
H946 C952 0.930 . S
H947 C956 0.930 . S
H948 C961 0.929 . S
H949 C959 0.929 . S
H950 C954 0.929 . S
H951 C960 0.929 . S
C952 H946 0.930 . S
C952 C953 1.367 . S
C952 C960 1.378 . S
C953 C952 1.367 . S
C953 C961 1.433 . S
C954 H950 0.929 . S
C954 C956 1.378 . S
C954 C958 1.350 . S
C955 C958 1.463 . S
C955 C960 1.350 . S
C955 N963 1.427 . S
C956 H947 0.930 . S
C956 C954 1.378 . S
C956 C957 1.367 . S
C957 C956 1.367 . S
C957 C959 1.433 . S
C958 C954 1.350 . S
C958 C955 1.463 . S
C958 N962 1.427 . S
C959 H949 0.929 . S
C959 C957 1.433 . S
C959 N962 1.384 . S
C960 H951 0.929 . S
C960 C952 1.378 . S
C960 C955 1.350 . S
C961 H948 0.929 . S
C961 C953 1.433 . S
C961 N963 1.384 . S
N962 C958 1.427 . S
N962 C959 1.384 . S
N963 C955 1.427 . S
N963 C961 1.384 . S
H964 C970 0.930 . S
H965 C974 0.930 . S
H966 C979 0.929 . S
H967 C977 0.929 . S
H968 C972 0.929 . S
H969 C978 0.929 . S
C970 H964 0.930 . S
C970 C971 1.367 . S
C970 C978 1.378 . S
C971 C970 1.367 . S
C971 C979 1.433 . S
C972 H968 0.929 . S
C972 C974 1.378 . S
C972 C976 1.350 . S
C973 C976 1.463 . S
C973 C978 1.350 . S
C973 N981 1.427 . S
C974 H965 0.930 . S
C974 C972 1.378 . S
C974 C975 1.367 . S
C975 C974 1.367 . S
C975 C977 1.433 . S
C976 C972 1.350 . S
C976 C973 1.463 . S
C976 N980 1.427 . S
C977 H967 0.929 . S
C977 C975 1.433 . S
C977 N980 1.384 . S
C978 H969 0.929 . S
C978 C970 1.378 . S
C978 C973 1.350 . S
C979 H966 0.929 . S
C979 C971 1.433 . S
C979 N981 1.384 . S
N980 C976 1.427 . S
N980 C977 1.384 . S
N981 C973 1.427 . S
N981 C979 1.384 . S
H982 C988 0.930 . S
H983 C992 0.930 . S
H984 C997 0.929 . S
H985 C995 0.929 . S
H986 C990 0.929 . S
H987 C996 0.929 . S
C988 H982 0.930 . S
C988 C989 1.367 . S
C988 C996 1.378 . S
C989 C988 1.367 . S
C989 C997 1.433 . S
C990 H986 0.929 . S
C990 C992 1.378 . S
C990 C994 1.350 . S
C991 C994 1.463 . S
C991 C996 1.350 . S
C991 N999 1.427 . S
C992 H983 0.930 . S
C992 C990 1.378 . S
C992 C993 1.367 . S
C993 C992 1.367 . S
C993 C995 1.433 . S
C994 C990 1.350 . S
C994 C991 1.463 . S
C994 N998 1.427 . S
C995 H985 0.929 . S
C995 C993 1.433 . S
C995 N998 1.384 . S
C996 H987 0.929 . S
C996 C988 1.378 . S
C996 C991 1.350 . S
C997 H984 0.929 . S
C997 C989 1.433 . S
C997 N999 1.384 . S
N998 C994 1.427 . S
N998 C995 1.384 . S
N999 C991 1.427 . S
N999 C997 1.384 . S
H1000 C1006 0.930 . S
H1001 C1010 0.930 . S
H1002 C1015 0.929 . S
H1003 C1013 0.929 . S
H1004 C1008 0.929 . S
H1005 C1014 0.929 . S
C1006 H1000 0.930 . S
C1006 C1007 1.367 . S
C1006 C1014 1.378 . S
C1007 C1006 1.367 . S
C1007 C1015 1.433 . S
C1008 H1004 0.929 . S
C1008 C1010 1.378 . S
C1008 C1012 1.350 . S
C1009 C1012 1.463 . S
C1009 C1014 1.350 . S
C1009 N1017 1.427 . S
C1010 H1001 0.930 . S
C1010 C1008 1.378 . S
C1010 C1011 1.367 . S
C1011 C1010 1.367 . S
C1011 C1013 1.433 . S
C1012 C1008 1.350 . S
C1012 C1009 1.463 . S
C1012 N1016 1.427 . S
C1013 H1003 0.929 . S
C1013 C1011 1.433 . S
C1013 N1016 1.384 . S
C1014 H1005 0.929 . S
C1014 C1006 1.378 . S
C1014 C1009 1.350 . S
C1015 H1002 0.929 . S
C1015 C1007 1.433 . S
C1015 N1017 1.384 . S
N1016 C1012 1.427 . S
N1016 C1013 1.384 . S
N1017 C1009 1.427 . S
N1017 C1015 1.384 . S
H1018 C1024 0.930 . S
H1019 C1028 0.930 . S
H1020 C1033 0.929 . S
H1021 C1031 0.929 . S
H1022 C1026 0.929 . S
H1023 C1032 0.929 . S
C1024 H1018 0.930 . S
C1024 C1025 1.367 . S
C1024 C1032 1.378 . S
C1025 C1024 1.367 . S
C1025 C1033 1.433 . S
C1026 H1022 0.929 . S
C1026 C1028 1.378 . S
C1026 C1030 1.350 . S
C1027 C1030 1.463 . S
C1027 C1032 1.350 . S
C1027 N1035 1.427 . S
C1028 H1019 0.930 . S
C1028 C1026 1.378 . S
C1028 C1029 1.367 . S
C1029 C1028 1.367 . S
C1029 C1031 1.433 . S
C1030 C1026 1.350 . S
C1030 C1027 1.463 . S
C1030 N1034 1.427 . S
C1031 H1021 0.929 . S
C1031 C1029 1.433 . S
C1031 N1034 1.384 . S
C1032 H1023 0.929 . S
C1032 C1024 1.378 . S
C1032 C1027 1.350 . S
C1033 H1020 0.929 . S
C1033 C1025 1.433 . S
C1033 N1035 1.384 . S
N1034 C1030 1.427 . S
N1034 C1031 1.384 . S
N1035 C1027 1.427 . S
N1035 C1033 1.384 . S
H1036 C1042 0.930 . S
H1037 C1046 0.930 . S
H1038 C1051 0.929 . S
H1039 C1049 0.929 . S
H1040 C1044 0.929 . S
H1041 C1050 0.929 . S
C1042 H1036 0.930 . S
C1042 C1043 1.367 . S
C1042 C1050 1.378 . S
C1043 C1042 1.367 . S
C1043 C1051 1.433 . S
C1044 H1040 0.929 . S
C1044 C1046 1.378 . S
C1044 C1048 1.350 . S
C1045 C1048 1.463 . S
C1045 C1050 1.350 . S
C1045 N1053 1.427 . S
C1046 H1037 0.930 . S
C1046 C1044 1.378 . S
C1046 C1047 1.367 . S
C1047 C1046 1.367 . S
C1047 C1049 1.433 . S
C1048 C1044 1.350 . S
C1048 C1045 1.463 . S
C1048 N1052 1.427 . S
C1049 H1039 0.929 . S
C1049 C1047 1.433 . S
C1049 N1052 1.384 . S
C1050 H1041 0.929 . S
C1050 C1042 1.378 . S
C1050 C1045 1.350 . S
C1051 H1038 0.929 . S
C1051 C1043 1.433 . S
C1051 N1053 1.384 . S
N1052 C1048 1.427 . S
N1052 C1049 1.384 . S
N1053 C1045 1.427 . S
N1053 C1051 1.384 . S
H1054 C1060 0.930 . S
H1055 C1064 0.930 . S
H1056 C1069 0.929 . S
H1057 C1067 0.929 . S
H1058 C1062 0.929 . S
H1059 C1068 0.929 . S
C1060 H1054 0.930 . S
C1060 C1061 1.367 . S
C1060 C1068 1.378 . S
C1061 C1060 1.367 . S
C1061 C1069 1.433 . S
C1062 H1058 0.929 . S
C1062 C1064 1.378 . S
C1062 C1066 1.350 . S
C1063 C1066 1.463 . S
C1063 C1068 1.350 . S
C1063 N1071 1.427 . S
C1064 H1055 0.930 . S
C1064 C1062 1.378 . S
C1064 C1065 1.367 . S
C1065 C1064 1.367 . S
C1065 C1067 1.433 . S
C1066 C1062 1.350 . S
C1066 C1063 1.463 . S
C1066 N1070 1.427 . S
C1067 H1057 0.929 . S
C1067 C1065 1.433 . S
C1067 N1070 1.384 . S
C1068 H1059 0.929 . S
C1068 C1060 1.378 . S
C1068 C1063 1.350 . S
C1069 H1056 0.929 . S
C1069 C1061 1.433 . S
C1069 N1071 1.384 . S
N1070 C1066 1.427 . S
N1070 C1067 1.384 . S
N1071 C1063 1.427 . S
N1071 C1069 1.384 . S
H1072 C1078 0.930 . S
H1073 C1082 0.930 . S
H1074 C1087 0.929 . S
H1075 C1085 0.929 1_554 S
H1076 C1080 0.929 . S
H1077 C1086 0.929 . S
C1078 H1072 0.930 . S
C1078 C1079 1.367 . S
C1078 C1086 1.378 . S
C1079 C1078 1.367 . S
C1079 C1087 1.433 . S
C1080 H1076 0.929 . S
C1080 C1082 1.378 . S
C1080 C1084 1.350 . S
C1081 C1084 1.463 . S
C1081 C1086 1.350 . S
C1081 N1089 1.427 . S
C1082 H1073 0.930 . S
C1082 C1080 1.378 . S
C1082 C1083 1.367 . S
C1083 C1082 1.367 . S
C1083 C1085 1.433 . S
C1084 C1080 1.350 . S
C1084 C1081 1.463 . S
C1084 N1088 1.427 . S
C1085 H1075 0.929 1_556 S
C1085 C1083 1.433 . S
C1085 N1088 1.384 . S
C1086 H1077 0.929 . S
C1086 C1078 1.378 . S
C1086 C1081 1.350 . S
C1087 H1074 0.929 . S
C1087 C1079 1.433 . S
C1087 N1089 1.384 . S
N1088 C1084 1.427 . S
N1088 C1085 1.384 . S
N1089 C1081 1.427 . S
N1089 C1087 1.384 . S
H1090 C1096 0.930 1_556 S
H1091 C1100 0.930 . S
H1092 C1105 0.929 . S
H1093 C1103 0.929 . S
H1094 C1098 0.929 . S
H1095 C1104 0.929 . S
C1096 H1090 0.930 1_554 S
C1096 C1097 1.367 . S
C1096 C1104 1.378 . S
C1097 C1096 1.367 . S
C1097 C1105 1.433 . S
C1098 H1094 0.929 . S
C1098 C1100 1.378 . S
C1098 C1102 1.350 . S
C1099 C1102 1.463 . S
C1099 C1104 1.350 . S
C1099 N1107 1.427 . S
C1100 H1091 0.930 . S
C1100 C1098 1.378 . S
C1100 C1101 1.367 . S
C1101 C1100 1.367 . S
C1101 C1103 1.433 . S
C1102 C1098 1.350 . S
C1102 C1099 1.463 . S
C1102 N1106 1.427 . S
C1103 H1093 0.929 . S
C1103 C1101 1.433 . S
C1103 N1106 1.384 . S
C1104 H1095 0.929 . S
C1104 C1096 1.378 . S
C1104 C1099 1.350 . S
C1105 H1092 0.929 . S
C1105 C1097 1.433 . S
C1105 N1107 1.384 . S
N1106 C1102 1.427 . S
N1106 C1103 1.384 . S
N1107 C1099 1.427 . S
N1107 C1105 1.384 . S
H1108 C1114 0.932 . S
H1109 C1118 0.930 . S
H1110 C1123 0.929 . S
H1111 C1121 0.929 . S
H1112 C1116 0.929 . S
H1113 C1122 0.929 . S
C1114 H1108 0.932 . S
C1114 C1115 1.367 . S
C1114 C1122 1.378 . S
C1115 C1114 1.367 . S
C1115 C1123 1.433 . S
C1116 H1112 0.929 . S
C1116 C1118 1.378 . S
C1116 C1120 1.350 . S
C1117 C1120 1.463 . S
C1117 C1122 1.350 . S
C1117 N1125 1.427 . S
C1118 H1109 0.930 . S
C1118 C1116 1.378 . S
C1118 C1119 1.367 . S
C1119 C1118 1.367 . S
C1119 C1121 1.433 . S
C1120 C1116 1.350 . S
C1120 C1117 1.463 . S
C1120 N1124 1.427 . S
C1121 H1111 0.929 . S
C1121 C1119 1.433 . S
C1121 N1124 1.384 . S
C1122 H1113 0.929 . S
C1122 C1114 1.378 . S
C1122 C1117 1.350 . S
C1123 H1110 0.929 . S
C1123 C1115 1.433 . S
C1123 N1125 1.384 . S
N1124 C1120 1.427 . S
N1124 C1121 1.384 . S
N1125 C1117 1.427 . S
N1125 C1123 1.384 . S
H1126 C1132 0.930 . S
H1127 C1136 0.930 . S
H1128 C1141 0.929 1_556 S
H1129 C1139 0.929 . S
H1130 C1134 0.929 . S
H1131 C1140 0.929 . S
C1132 H1126 0.930 . S
C1132 C1133 1.367 . S
C1132 C1140 1.378 . S
C1133 C1132 1.367 . S
C1133 C1141 1.433 . S
C1134 H1130 0.929 . S
C1134 C1136 1.378 . S
C1134 C1138 1.350 . S
C1135 C1138 1.463 . S
C1135 C1140 1.350 . S
C1135 N1143 1.427 . S
C1136 H1127 0.930 . S
C1136 C1134 1.378 . S
C1136 C1137 1.367 . S
C1137 C1136 1.367 . S
C1137 C1139 1.433 . S
C1138 C1134 1.350 . S
C1138 C1135 1.463 . S
C1138 N1142 1.427 . S
C1139 H1129 0.929 . S
C1139 C1137 1.433 . S
C1139 N1142 1.384 . S
C1140 H1131 0.929 . S
C1140 C1132 1.378 . S
C1140 C1135 1.350 . S
C1141 H1128 0.929 1_554 S
C1141 C1133 1.433 . S
C1141 N1143 1.384 . S
N1142 C1138 1.427 . S
N1142 C1139 1.384 . S
N1143 C1135 1.427 . S
N1143 C1141 1.384 . S
H1144 C1150 0.930 . S
H1145 C1154 0.930 . S
H1146 C1159 0.929 . S
H1147 C1157 0.929 . S
H1148 C1152 0.929 . S
H1149 C1158 0.929 . S
C1150 H1144 0.930 . S
C1150 C1151 1.367 . S
C1150 C1158 1.378 . S
C1151 C1150 1.367 . S
C1151 C1159 1.433 . S
C1152 H1148 0.929 . S
C1152 C1154 1.378 . S
C1152 C1156 1.350 . S
C1153 C1156 1.463 . S
C1153 C1158 1.350 . S
C1153 N1161 1.427 . S
C1154 H1145 0.930 . S
C1154 C1152 1.378 . S
C1154 C1155 1.367 . S
C1155 C1154 1.367 . S
C1155 C1157 1.433 . S
C1156 C1152 1.350 . S
C1156 C1153 1.463 . S
C1156 N1160 1.427 . S
C1157 H1147 0.929 . S
C1157 C1155 1.433 . S
C1157 N1160 1.384 . S
C1158 H1149 0.929 . S
C1158 C1150 1.378 . S
C1158 C1153 1.350 . S
C1159 H1146 0.929 . S
C1159 C1151 1.433 . S
C1159 N1161 1.384 . S
N1160 C1156 1.427 . S
N1160 C1157 1.384 . S
N1161 C1153 1.427 . S
N1161 C1159 1.384 . S
H1162 C1168 0.930 . S
H1163 C1172 0.930 . S
H1164 C1177 0.929 . S
H1165 C1175 0.929 . S
H1166 C1170 0.929 . S
H1167 C1176 0.929 . S
C1168 H1162 0.930 . S
C1168 C1169 1.367 . S
C1168 C1176 1.378 . S
C1169 C1168 1.367 . S
C1169 C1177 1.433 . S
C1170 H1166 0.929 . S
C1170 C1172 1.378 . S
C1170 C1174 1.350 . S
C1171 C1174 1.463 . S
C1171 C1176 1.350 . S
C1171 N1179 1.427 . S
C1172 H1163 0.930 . S
C1172 C1170 1.378 . S
C1172 C1173 1.367 . S
C1173 C1172 1.367 . S
C1173 C1175 1.433 . S
C1174 C1170 1.350 . S
C1174 C1171 1.463 . S
C1174 N1178 1.427 . S
C1175 H1165 0.929 . S
C1175 C1173 1.433 . S
C1175 N1178 1.384 . S
C1176 H1167 0.929 . S
C1176 C1168 1.378 . S
C1176 C1171 1.350 . S
C1177 H1164 0.929 . S
C1177 C1169 1.433 . S
C1177 N1179 1.384 . S
N1178 C1174 1.427 . S
N1178 C1175 1.384 . S
N1179 C1171 1.427 . S
N1179 C1177 1.384 . S
H1180 C1186 0.930 . S
H1181 C1190 0.930 . S
H1182 C1195 0.929 . S
H1183 C1193 0.929 . S
H1184 C1188 0.929 . S
H1185 C1194 0.929 . S
C1186 H1180 0.930 . S
C1186 C1187 1.367 . S
C1186 C1194 1.378 . S
C1187 C1186 1.367 . S
C1187 C1195 1.433 . S
C1188 H1184 0.929 . S
C1188 C1190 1.378 . S
C1188 C1192 1.350 . S
C1189 C1192 1.463 . S
C1189 C1194 1.350 . S
C1189 N1197 1.427 . S
C1190 H1181 0.930 . S
C1190 C1188 1.378 . S
C1190 C1191 1.367 . S
C1191 C1190 1.367 . S
C1191 C1193 1.433 . S
C1192 C1188 1.350 . S
C1192 C1189 1.463 . S
C1192 N1196 1.427 . S
C1193 H1183 0.929 . S
C1193 C1191 1.433 . S
C1193 N1196 1.384 . S
C1194 H1185 0.929 . S
C1194 C1186 1.378 . S
C1194 C1189 1.350 . S
C1195 H1182 0.929 . S
C1195 C1187 1.433 . S
C1195 N1197 1.384 . S
N1196 C1192 1.427 . S
N1196 C1193 1.384 . S
N1197 C1189 1.427 . S
N1197 C1195 1.384 . S
H1198 C1204 0.930 . S
H1199 C1208 0.930 . S
H1200 C1213 0.929 . S
H1201 C1211 0.929 . S
H1202 C1206 0.929 . S
H1203 C1212 0.929 . S
C1204 H1198 0.930 . S
C1204 C1205 1.367 . S
C1204 C1212 1.378 . S
C1205 C1204 1.367 . S
C1205 C1213 1.433 . S
C1206 H1202 0.929 . S
C1206 C1208 1.378 . S
C1206 C1210 1.350 . S
C1207 C1210 1.463 . S
C1207 C1212 1.350 . S
C1207 N1215 1.427 . S
C1208 H1199 0.930 . S
C1208 C1206 1.378 . S
C1208 C1209 1.367 . S
C1209 C1208 1.367 . S
C1209 C1211 1.433 . S
C1210 C1206 1.350 . S
C1210 C1207 1.463 . S
C1210 N1214 1.427 . S
C1211 H1201 0.929 . S
C1211 C1209 1.433 . S
C1211 N1214 1.384 . S
C1212 H1203 0.929 . S
C1212 C1204 1.378 . S
C1212 C1207 1.350 . S
C1213 H1200 0.929 . S
C1213 C1205 1.433 . S
C1213 N1215 1.384 . S
N1214 C1210 1.427 . S
N1214 C1211 1.384 . S
N1215 C1207 1.427 . S
N1215 C1213 1.384 . S
H1216 C1222 0.930 . S
H1217 C1226 0.930 . S
H1218 C1231 0.929 . S
H1219 C1229 0.929 . S
H1220 C1224 0.929 . S
H1221 C1230 0.929 . S
C1222 H1216 0.930 . S
C1222 C1223 1.367 . S
C1222 C1230 1.378 . S
C1223 C1222 1.367 . S
C1223 C1231 1.433 . S
C1224 H1220 0.929 . S
C1224 C1226 1.378 . S
C1224 C1228 1.350 . S
C1225 C1228 1.463 . S
C1225 C1230 1.350 . S
C1225 N1233 1.427 . S
C1226 H1217 0.930 . S
C1226 C1224 1.378 . S
C1226 C1227 1.367 . S
C1227 C1226 1.367 . S
C1227 C1229 1.433 . S
C1228 C1224 1.350 . S
C1228 C1225 1.463 . S
C1228 N1232 1.427 . S
C1229 H1219 0.929 . S
C1229 C1227 1.433 . S
C1229 N1232 1.384 . S
C1230 H1221 0.929 . S
C1230 C1222 1.378 . S
C1230 C1225 1.350 . S
C1231 H1218 0.929 . S
C1231 C1223 1.433 . S
C1231 N1233 1.384 . S
N1232 C1228 1.427 . S
N1232 C1229 1.384 . S
N1233 C1225 1.427 . S
N1233 C1231 1.384 . S
H1234 C1240 0.930 . S
H1235 C1244 0.930 . S
H1236 C1249 0.929 . S
H1237 C1247 0.929 . S
H1238 C1242 0.929 . S
H1239 C1248 0.929 . S
C1240 H1234 0.930 . S
C1240 C1241 1.367 . S
C1240 C1248 1.378 . S
C1241 C1240 1.367 . S
C1241 C1249 1.433 . S
C1242 H1238 0.929 . S
C1242 C1244 1.378 . S
C1242 C1246 1.350 . S
C1243 C1246 1.463 . S
C1243 C1248 1.350 . S
C1243 N1251 1.427 . S
C1244 H1235 0.930 . S
C1244 C1242 1.378 . S
C1244 C1245 1.367 . S
C1245 C1244 1.367 . S
C1245 C1247 1.433 . S
C1246 C1242 1.350 . S
C1246 C1243 1.463 . S
C1246 N1250 1.427 . S
C1247 H1237 0.929 . S
C1247 C1245 1.433 . S
C1247 N1250 1.384 . S
C1248 H1239 0.929 . S
C1248 C1240 1.378 . S
C1248 C1243 1.350 . S
C1249 H1236 0.929 . S
C1249 C1241 1.433 . S
C1249 N1251 1.384 . S
N1250 C1246 1.427 . S
N1250 C1247 1.384 . S
N1251 C1243 1.427 . S
N1251 C1249 1.384 . S
H1252 C1258 0.930 . S
H1253 C1262 0.930 . S
H1254 C1267 0.929 . S
H1255 C1265 0.929 . S
H1256 C1260 0.929 . S
H1257 C1266 0.929 . S
C1258 H1252 0.930 . S
C1258 C1259 1.367 . S
C1258 C1266 1.378 . S
C1259 C1258 1.367 . S
C1259 C1267 1.433 . S
C1260 H1256 0.929 . S
C1260 C1262 1.378 . S
C1260 C1264 1.350 . S
C1261 C1264 1.463 . S
C1261 C1266 1.350 . S
C1261 N1269 1.427 . S
C1262 H1253 0.930 . S
C1262 C1260 1.378 . S
C1262 C1263 1.367 . S
C1263 C1262 1.367 . S
C1263 C1265 1.433 . S
C1264 C1260 1.350 . S
C1264 C1261 1.463 . S
C1264 N1268 1.427 . S
C1265 H1255 0.929 . S
C1265 C1263 1.433 . S
C1265 N1268 1.384 . S
C1266 H1257 0.929 . S
C1266 C1258 1.378 . S
C1266 C1261 1.350 . S
C1267 H1254 0.929 . S
C1267 C1259 1.433 . S
C1267 N1269 1.384 . S
N1268 C1264 1.427 . S
N1268 C1265 1.384 . S
N1269 C1261 1.427 . S
N1269 C1267 1.384 . S
H1270 C1276 0.930 . S
H1271 C1280 0.930 . S
H1272 C1285 0.929 . S
H1273 C1283 0.929 . S
H1274 C1278 0.929 . S
H1275 C1284 0.929 . S
C1276 H1270 0.930 . S
C1276 C1277 1.367 . S
C1276 C1284 1.378 . S
C1277 C1276 1.367 . S
C1277 C1285 1.433 . S
C1278 H1274 0.929 . S
C1278 C1280 1.378 . S
C1278 C1282 1.350 . S
C1279 C1282 1.463 . S
C1279 C1284 1.350 . S
C1279 N1287 1.427 . S
C1280 H1271 0.930 . S
C1280 C1278 1.378 . S
C1280 C1281 1.367 . S
C1281 C1280 1.367 . S
C1281 C1283 1.433 . S
C1282 C1278 1.350 . S
C1282 C1279 1.463 . S
C1282 N1286 1.427 . S
C1283 H1273 0.929 . S
C1283 C1281 1.433 . S
C1283 N1286 1.384 . S
C1284 H1275 0.929 . S
C1284 C1276 1.378 . S
C1284 C1279 1.350 . S
C1285 H1272 0.929 . S
C1285 C1277 1.433 . S
C1285 N1287 1.384 . S
N1286 C1282 1.427 . S
N1286 C1283 1.384 . S
N1287 C1279 1.427 . S
N1287 C1285 1.384 . S
H1288 C1294 0.930 . S
H1289 C1298 0.930 . S
H1290 C1303 0.929 . S
H1291 C1301 0.929 . S
H1292 C1296 0.929 . S
H1293 C1302 0.929 . S
C1294 H1288 0.930 . S
C1294 C1295 1.367 . S
C1294 C1302 1.378 . S
C1295 C1294 1.367 . S
C1295 C1303 1.433 . S
C1296 H1292 0.929 . S
C1296 C1298 1.378 . S
C1296 C1300 1.350 . S
C1297 C1300 1.463 . S
C1297 C1302 1.350 . S
C1297 N1305 1.427 . S
C1298 H1289 0.930 . S
C1298 C1296 1.378 . S
C1298 C1299 1.367 . S
C1299 C1298 1.367 . S
C1299 C1301 1.433 . S
C1300 C1296 1.350 . S
C1300 C1297 1.463 . S
C1300 N1304 1.427 . S
C1301 H1291 0.929 . S
C1301 C1299 1.433 . S
C1301 N1304 1.384 . S
C1302 H1293 0.929 . S
C1302 C1294 1.378 . S
C1302 C1297 1.350 . S
C1303 H1290 0.929 . S
C1303 C1295 1.433 . S
C1303 N1305 1.384 . S
N1304 C1300 1.427 . S
N1304 C1301 1.384 . S
N1305 C1297 1.427 . S
N1305 C1303 1.384 . S
H1306 C1312 0.930 . S
H1307 C1316 0.930 . S
H1308 C1321 0.929 . S
H1309 C1319 0.929 . S
H1310 C1314 0.929 . S
H1311 C1320 0.929 . S
C1312 H1306 0.930 . S
C1312 C1313 1.367 . S
C1312 C1320 1.378 . S
C1313 C1312 1.367 . S
C1313 C1321 1.433 . S
C1314 H1310 0.929 . S
C1314 C1316 1.378 . S
C1314 C1318 1.350 . S
C1315 C1318 1.463 . S
C1315 C1320 1.350 . S
C1315 N1323 1.427 . S
C1316 H1307 0.930 . S
C1316 C1314 1.378 . S
C1316 C1317 1.367 . S
C1317 C1316 1.367 . S
C1317 C1319 1.433 . S
C1318 C1314 1.350 . S
C1318 C1315 1.463 . S
C1318 N1322 1.427 . S
C1319 H1309 0.929 . S
C1319 C1317 1.433 . S
C1319 N1322 1.384 . S
C1320 H1311 0.929 . S
C1320 C1312 1.378 . S
C1320 C1315 1.350 . S
C1321 H1308 0.929 . S
C1321 C1313 1.433 . S
C1321 N1323 1.384 . S
N1322 C1318 1.427 . S
N1322 C1319 1.384 . S
N1323 C1315 1.427 . S
N1323 C1321 1.384 . S
H1324 C1330 0.930 . S
H1325 C1334 0.930 . S
H1326 C1339 0.929 . S
H1327 C1337 0.929 . S
H1328 C1332 0.929 . S
H1329 C1338 0.929 . S
C1330 H1324 0.930 . S
C1330 C1331 1.367 . S
C1330 C1338 1.378 . S
C1331 C1330 1.367 . S
C1331 C1339 1.433 . S
C1332 H1328 0.929 . S
C1332 C1334 1.378 . S
C1332 C1336 1.350 . S
C1333 C1336 1.463 . S
C1333 C1338 1.350 . S
C1333 N1341 1.427 . S
C1334 H1325 0.930 . S
C1334 C1332 1.378 . S
C1334 C1335 1.367 . S
C1335 C1334 1.367 . S
C1335 C1337 1.433 . S
C1336 C1332 1.350 . S
C1336 C1333 1.463 . S
C1336 N1340 1.427 . S
C1337 H1327 0.929 . S
C1337 C1335 1.433 . S
C1337 N1340 1.384 . S
C1338 H1329 0.929 . S
C1338 C1330 1.378 . S
C1338 C1333 1.350 . S
C1339 H1326 0.929 . S
C1339 C1331 1.433 . S
C1339 N1341 1.384 . S
N1340 C1336 1.427 . S
N1340 C1337 1.384 . S
N1341 C1333 1.427 . S
N1341 C1339 1.384 . S
H1342 C1348 0.930 . S
H1343 C1352 0.930 . S
H1344 C1357 0.929 . S
H1345 C1355 0.929 . S
H1346 C1350 0.929 . S
H1347 C1356 0.929 . S
C1348 H1342 0.930 . S
C1348 C1349 1.367 . S
C1348 C1356 1.378 . S
C1349 C1348 1.367 . S
C1349 C1357 1.433 . S
C1350 H1346 0.929 . S
C1350 C1352 1.378 . S
C1350 C1354 1.350 . S
C1351 C1354 1.463 . S
C1351 C1356 1.350 . S
C1351 N1359 1.427 . S
C1352 H1343 0.930 . S
C1352 C1350 1.378 . S
C1352 C1353 1.367 . S
C1353 C1352 1.367 . S
C1353 C1355 1.433 . S
C1354 C1350 1.350 . S
C1354 C1351 1.463 . S
C1354 N1358 1.427 . S
C1355 H1345 0.929 . S
C1355 C1353 1.433 . S
C1355 N1358 1.384 . S
C1356 H1347 0.929 . S
C1356 C1348 1.378 . S
C1356 C1351 1.350 . S
C1357 H1344 0.929 . S
C1357 C1349 1.433 . S
C1357 N1359 1.384 . S
N1358 C1354 1.427 . S
N1358 C1355 1.384 . S
N1359 C1351 1.427 . S
N1359 C1357 1.384 . S
H1360 C1366 0.930 1_556 S
H1361 C1370 0.930 . S
H1362 C1375 0.929 . S
H1363 C1373 0.929 . S
H1364 C1368 0.929 . S
H1365 C1374 0.929 . S
C1366 H1360 0.930 1_554 S
C1366 C1367 1.367 1_554 S
C1366 C1374 1.378 . S
C1367 C1366 1.367 1_556 S
C1367 C1375 1.433 1_556 S
C1368 H1364 0.929 . S
C1368 C1370 1.378 . S
C1368 C1372 1.350 . S
C1369 C1372 1.463 . S
C1369 C1374 1.350 . S
C1369 N1377 1.427 . S
C1370 H1361 0.930 . S
C1370 C1368 1.378 . S
C1370 C1371 1.367 . S
C1371 C1370 1.367 . S
C1371 C1373 1.433 . S
C1372 C1368 1.350 . S
C1372 C1369 1.463 . S
C1372 N1376 1.427 . S
C1373 H1363 0.929 . S
C1373 C1371 1.433 . S
C1373 N1376 1.384 . S
C1374 H1365 0.929 . S
C1374 C1366 1.378 . S
C1374 C1369 1.350 . S
C1375 H1362 0.929 . S
C1375 C1367 1.433 1_554 S
C1375 N1377 1.384 . S
N1376 C1372 1.427 . S
N1376 C1373 1.384 . S
N1377 C1369 1.427 . S
N1377 C1375 1.384 . S
H1378 C1384 0.930 . S
H1379 C1388 0.930 . S
H1380 C1393 0.929 . S
H1381 C1391 0.929 1_554 S
H1382 C1386 0.929 . S
H1383 C1392 0.929 . S
C1384 H1378 0.930 . S
C1384 C1385 1.367 . S
C1384 C1392 1.378 . S
C1385 C1384 1.367 . S
C1385 C1393 1.433 . S
C1386 H1382 0.929 . S
C1386 C1388 1.378 . S
C1386 C1390 1.350 . S
C1387 C1390 1.463 . S
C1387 C1392 1.350 . S
C1387 N1395 1.427 . S
C1388 H1379 0.930 . S
C1388 C1386 1.378 . S
C1388 C1389 1.367 1_556 S
C1389 C1388 1.367 1_554 S
C1389 C1391 1.433 1_554 S
C1390 C1386 1.350 . S
C1390 C1387 1.463 . S
C1390 N1394 1.427 . S
C1391 H1381 0.929 1_556 S
C1391 C1389 1.433 1_556 S
C1391 N1394 1.384 . S
C1392 H1383 0.929 . S
C1392 C1384 1.378 . S
C1392 C1387 1.350 . S
C1393 H1380 0.929 . S
C1393 C1385 1.433 . S
C1393 N1395 1.384 . S
N1394 C1390 1.427 . S
N1394 C1391 1.384 . S
N1395 C1387 1.427 . S
N1395 C1393 1.384 . S
H1396 C1402 0.930 . S
H1397 C1406 0.930 . S
H1398 C1411 0.929 . S
H1399 C1409 0.929 1_556 S
H1400 C1404 0.929 . S
H1401 C1410 0.929 . S
C1402 H1396 0.930 . S
C1402 C1403 1.367 . S
C1402 C1410 1.378 . S
C1403 C1402 1.367 . S
C1403 C1411 1.433 . S
C1404 H1400 0.929 . S
C1404 C1406 1.378 . S
C1404 C1408 1.350 . S
C1405 C1408 1.463 . S
C1405 C1410 1.350 . S
C1405 N1413 1.427 . S
C1406 H1397 0.930 . S
C1406 C1404 1.378 . S
C1406 C1407 1.367 1_554 S
C1407 C1406 1.367 1_556 S
C1407 C1409 1.433 1_556 S
C1408 C1404 1.350 . S
C1408 C1405 1.463 . S
C1408 N1412 1.427 . S
C1409 H1399 0.929 1_554 S
C1409 C1407 1.433 1_554 S
C1409 N1412 1.384 . S
C1410 H1401 0.929 . S
C1410 C1402 1.378 . S
C1410 C1405 1.350 . S
C1411 H1398 0.929 . S
C1411 C1403 1.433 . S
C1411 N1413 1.384 . S
N1412 C1408 1.427 . S
N1412 C1409 1.384 . S
N1413 C1405 1.427 . S
N1413 C1411 1.384 . S
H1414 C1420 0.930 1_554 S
H1415 C1424 0.930 . S
H1416 C1429 0.929 . S
H1417 C1427 0.929 . S
H1418 C1422 0.929 . S
H1419 C1428 0.929 . S
C1420 H1414 0.930 1_556 S
C1420 C1421 1.367 1_556 S
C1420 C1428 1.378 . S
C1421 C1420 1.367 1_554 S
C1421 C1429 1.433 1_554 S
C1422 H1418 0.929 . S
C1422 C1424 1.378 . S
C1422 C1426 1.350 . S
C1423 C1426 1.463 . S
C1423 C1428 1.350 . S
C1423 N1431 1.427 . S
C1424 H1415 0.930 . S
C1424 C1422 1.378 . S
C1424 C1425 1.367 . S
C1425 C1424 1.367 . S
C1425 C1427 1.433 . S
C1426 C1422 1.350 . S
C1426 C1423 1.463 . S
C1426 N1430 1.427 . S
C1427 H1417 0.929 . S
C1427 C1425 1.433 . S
C1427 N1430 1.384 . S
C1428 H1419 0.929 . S
C1428 C1420 1.378 . S
C1428 C1423 1.350 . S
C1429 H1416 0.929 . S
C1429 C1421 1.433 1_556 S
C1429 N1431 1.384 . S
N1430 C1426 1.427 . S
N1430 C1427 1.384 . S
N1431 C1423 1.427 . S
N1431 C1429 1.384 . S
H1432 C1438 0.930 . S
H1433 C1442 0.930 . S
H1434 C1447 0.929 . S
H1435 C1445 0.929 1_556 S
H1436 C1440 0.929 . S
H1437 C1446 0.929 . S
C1438 H1432 0.930 . S
C1438 C1439 1.367 . S
C1438 C1446 1.378 . S
C1439 C1438 1.367 . S
C1439 C1447 1.433 . S
C1440 H1436 0.929 . S
C1440 C1442 1.378 . S
C1440 C1444 1.350 . S
C1441 C1444 1.463 . S
C1441 C1446 1.350 . S
C1441 N1449 1.427 . S
C1442 H1433 0.930 . S
C1442 C1440 1.378 . S
C1442 C1443 1.367 1_554 S
C1443 C1442 1.367 1_556 S
C1443 C1445 1.433 1_556 S
C1444 C1440 1.350 . S
C1444 C1441 1.463 . S
C1444 N1448 1.427 . S
C1445 H1435 0.929 1_554 S
C1445 C1443 1.433 1_554 S
C1445 N1448 1.384 . S
C1446 H1437 0.929 . S
C1446 C1438 1.378 . S
C1446 C1441 1.350 . S
C1447 H1434 0.929 . S
C1447 C1439 1.433 . S
C1447 N1449 1.384 . S
N1448 C1444 1.427 . S
N1448 C1445 1.384 . S
N1449 C1441 1.427 . S
N1449 C1447 1.384 . S
H1450 C1456 0.940 . S
H1451 C1460 0.930 . S
H1452 C1465 0.929 1_554 S
H1453 C1463 0.929 . S
H1454 C1458 0.929 . S
H1455 C1464 0.929 . S
C1456 H1450 0.940 . S
C1456 C1457 1.367 1_556 S
C1456 C1464 1.378 . S
C1457 C1456 1.367 1_554 S
C1457 C1465 1.433 1_554 S
C1458 H1454 0.929 . S
C1458 C1460 1.378 . S
C1458 C1462 1.350 . S
C1459 C1462 1.463 . S
C1459 C1464 1.350 . S
C1459 N1467 1.427 . S
C1460 H1451 0.930 . S
C1460 C1458 1.378 . S
C1460 C1461 1.367 . S
C1461 C1460 1.367 . S
C1461 C1463 1.433 . S
C1462 C1458 1.350 . S
C1462 C1459 1.463 . S
C1462 N1466 1.427 . S
C1463 H1453 0.929 . S
C1463 C1461 1.433 . S
C1463 N1466 1.384 . S
C1464 H1455 0.929 . S
C1464 C1456 1.378 . S
C1464 C1459 1.350 . S
C1465 H1452 0.929 1_556 S
C1465 C1457 1.433 1_556 S
C1465 N1467 1.384 . S
N1466 C1462 1.427 . S
N1466 C1463 1.384 . S
N1467 C1459 1.427 . S
N1467 C1465 1.384 . S
H1468 C1474 0.930 . S
H1469 C1478 0.930 . S
H1470 C1483 0.929 1_556 S
H1471 C1481 0.929 . S
H1472 C1476 0.929 . S
H1473 C1482 0.929 . S
C1474 H1468 0.930 . S
C1474 C1475 1.367 1_554 S
C1474 C1482 1.378 . S
C1475 C1474 1.367 1_556 S
C1475 C1483 1.433 1_556 S
C1476 H1472 0.929 . S
C1476 C1478 1.378 . S
C1476 C1480 1.350 . S
C1477 C1480 1.463 . S
C1477 C1482 1.350 . S
C1477 N1485 1.427 . S
C1478 H1469 0.930 . S
C1478 C1476 1.378 . S
C1478 C1479 1.367 . S
C1479 C1478 1.367 . S
C1479 C1481 1.433 . S
C1480 C1476 1.350 . S
C1480 C1477 1.463 . S
C1480 N1484 1.427 . S
C1481 H1471 0.929 . S
C1481 C1479 1.433 . S
C1481 N1484 1.384 . S
C1482 H1473 0.929 . S
C1482 C1474 1.378 . S
C1482 C1477 1.350 . S
C1483 H1470 0.929 1_554 S
C1483 C1475 1.433 1_554 S
C1483 N1485 1.384 . S
N1484 C1480 1.427 . S
N1484 C1481 1.384 . S
N1485 C1477 1.427 . S
N1485 C1483 1.384 . S
H1486 C1492 0.930 . S
H1487 C1496 0.930 . S
H1488 C1501 0.929 . S
H1489 C1499 0.929 1_554 S
H1490 C1494 0.929 . S
H1491 C1500 0.929 . S
C1492 H1486 0.930 . S
C1492 C1493 1.367 . S
C1492 C1500 1.378 . S
C1493 C1492 1.367 . S
C1493 C1501 1.433 . S
C1494 H1490 0.929 . S
C1494 C1496 1.378 . S
C1494 C1498 1.350 . S
C1495 C1498 1.463 . S
C1495 C1500 1.350 . S
C1495 N1503 1.427 . S
C1496 H1487 0.930 . S
C1496 C1494 1.378 . S
C1496 C1497 1.367 1_556 S
C1497 C1496 1.367 1_554 S
C1497 C1499 1.433 1_554 S
C1498 C1494 1.350 . S
C1498 C1495 1.463 . S
C1498 N1502 1.427 . S
C1499 H1489 0.929 1_556 S
C1499 C1497 1.433 1_556 S
C1499 N1502 1.384 . S
C1500 H1491 0.929 . S
C1500 C1492 1.378 . S
C1500 C1495 1.350 . S
C1501 H1488 0.929 . S
C1501 C1493 1.433 . S
C1501 N1503 1.384 . S
N1502 C1498 1.427 . S
N1502 C1499 1.384 . S
N1503 C1495 1.427 . S
N1503 C1501 1.384 . S
C647 C459 1.721 . S
C651 C18 1.720 . S
C665 C330 1.725 . S
C669 C49 1.726 . S
C683 C98 1.721 . S
C687 C379 1.716 . S
C701 C129 1.721 . S
C705 C410 1.721 . S
C719 C178 1.718 . S
C723 C219 1.715 . S
C737 C250 1.717 . S
C741 C209 1.717 . S
C755 C258 1.726 . S
C759 C299 1.725 . S
C773 C170 1.723 . S
C777 C289 1.726 . S
C791 C139 1.721 . S
C795 C338 1.725 . S
C809 C369 1.718 . S
C813 C10 1.715 . S
C827 C59 1.718 . S
C831 C418 1.718 . S
C845 C90 1.719 . S
C849 C449 1.719 . S
C863 C498 1.718 . S
C867 C539 1.718 . S
C881 C570 1.715 . S
C885 C529 1.717 . S
C899 C619 1.720 . S
C903 C578 1.719 . S
C917 C609 1.722 . S
C921 C490 1.717 . S
C935 C9 1.173 . S
C939 C169 1.165 . S
C953 C218 1.162 . S
C957 C58 1.164 . S
C971 C89 1.167 . S
C975 C249 1.162 . S
C989 C138 1.172 . S
C993 C298 1.180 . S
C1007 C329 1.164 . S
C1011 C489 1.162 . S
C1025 C538 1.170 . S
C1029 C378 1.178 . S
C1043 C409 1.166 . S
C1047 C569 1.162 . S
C1061 C458 1.183 . S
C1065 C618 1.185 . S
C1079 C579 2.294 . S
C1083 C19 2.293 1_556 S
C1097 C50 2.300 1_554 S
C1101 C610 2.300 . S
C1115 C99 2.297 1_556 S
C1119 C499 2.299 . S
C1133 C130 2.295 1_554 S
C1137 C530 2.294 . S
C1151 C179 2.294 . S
C1155 C419 2.296 . S
C1169 C210 2.299 . S
C1173 C450 2.300 . S
C1187 C259 2.298 . S
C1191 C339 2.300 . S
C1205 C370 2.295 . S
C1209 C290 2.294 . S
C1223 C6 1.079 . S
C1227 C15 1.079 . S
C1241 C55 1.079 . S
C1245 C46 1.079 . S
C1259 C86 1.079 . S
C1263 C95 1.079 . S
C1277 C126 1.081 . S
C1281 C135 1.081 . S
C1295 C175 1.079 . S
C1299 C166 1.079 . S
C1313 C215 1.084 . S
C1317 C206 1.084 . S
C1331 C246 1.079 . S
C1335 C255 1.079 . S
C1349 C286 1.084 . S
C1353 C295 1.084 . S
C1367 C326 1.079 . S
C1371 C335 1.079 . S
C1385 C366 1.084 . S
C1389 C375 1.084 . S
C1403 C415 1.085 . S
C1407 C406 1.085 . S
C1421 C455 1.079 . S
C1425 C446 1.079 . S
C1439 C486 1.085 . S
C1443 C495 1.085 . S
C1457 C526 1.081 . S
C1461 C535 1.081 . S
C1475 C575 1.085 . S
C1479 C566 1.085 . S
C1493 C615 1.084 . S
C1497 C606 1.084 . S
