# Generated by pormake.
# Topology yfm, (5)-cn, num edge types: 1
# Building blocks:
#     Node 0, Type 0, BuildingBlock: XOMCOT_clean_sbu_1, # of connection points: 5
#     Node 1, Type 0, BuildingBlock: XOMCOT_clean_sbu_1, # of connection points: 5
#     Node 2, Type 0, BuildingBlock: XOMCOT_clean_sbu_1, # of connection points: 5
#     Node 3, Type 0, BuildingBlock: XOMCOT_clean_sbu_1, # of connection points: 5
#     Node 4, Type 0, BuildingBlock: XOMCOT_clean_sbu_1, # of connection points: 5
#     Node 5, Type 0, BuildingBlock: XOMCOT_clean_sbu_1, # of connection points: 5
#     Node 6, Type 0, BuildingBlock: XOMCOT_clean_sbu_1, # of connection points: 5
#     Node 7, Type 0, BuildingBlock: XOMCOT_clean_sbu_1, # of connection points: 5
#     Node 8, Type 0, BuildingBlock: XOMCOT_clean_sbu_1, # of connection points: 5
#     Node 9, Type 0, BuildingBlock: XOMCOT_clean_sbu_1, # of connection points: 5
#     Node 10, Type 0, BuildingBlock: XOMCOT_clean_sbu_1, # of connection points: 5
#     Node 11, Type 0, BuildingBlock: XOMCOT_clean_sbu_1, # of connection points: 5
#     Node 12, Type 0, BuildingBlock: XOMCOT_clean_sbu_1, # of connection points: 5
#     Node 13, Type 0, BuildingBlock: XOMCOT_clean_sbu_1, # of connection points: 5
#     Node 14, Type 0, BuildingBlock: XOMCOT_clean_sbu_1, # of connection points: 5
#     Node 15, Type 0, BuildingBlock: XOMCOT_clean_sbu_1, # of connection points: 5
#     Node 16, Type 0, BuildingBlock: XOMCOT_clean_sbu_1, # of connection points: 5
#     Node 17, Type 0, BuildingBlock: XOMCOT_clean_sbu_1, # of connection points: 5
#     Node 18, Type 0, BuildingBlock: XOMCOT_clean_sbu_1, # of connection points: 5
#     Node 19, Type 0, BuildingBlock: XOMCOT_clean_sbu_1, # of connection points: 5
#     Node 20, Type 0, BuildingBlock: XOMCOT_clean_sbu_1, # of connection points: 5
#     Node 21, Type 0, BuildingBlock: XOMCOT_clean_sbu_1, # of connection points: 5
#     Node 22, Type 0, BuildingBlock: XOMCOT_clean_sbu_1, # of connection points: 5
#     Node 23, Type 0, BuildingBlock: XOMCOT_clean_sbu_1, # of connection points: 5
#     Node 24, Type 0, BuildingBlock: XOMCOT_clean_sbu_1, # of connection points: 5
#     Node 25, Type 0, BuildingBlock: XOMCOT_clean_sbu_1, # of connection points: 5
#     Node 26, Type 0, BuildingBlock: XOMCOT_clean_sbu_1, # of connection points: 5
#     Node 27, Type 0, BuildingBlock: XOMCOT_clean_sbu_1, # of connection points: 5
#     Node 28, Type 0, BuildingBlock: XOMCOT_clean_sbu_1, # of connection points: 5
#     Node 29, Type 0, BuildingBlock: XOMCOT_clean_sbu_1, # of connection points: 5
#     Node 30, Type 0, BuildingBlock: XOMCOT_clean_sbu_1, # of connection points: 5
#     Node 31, Type 0, BuildingBlock: XOMCOT_clean_sbu_1, # of connection points: 5
#     Edge 32, Type (0, 0), BuildingBlock: OJICUG_clean_linker_0, # of connection points: 2
#     Edge 33, Type (0, 0), BuildingBlock: OJICUG_clean_linker_0, # of connection points: 2
#     Edge 34, Type (0, 0), BuildingBlock: OJICUG_clean_linker_0, # of connection points: 2
#     Edge 35, Type (0, 0), BuildingBlock: OJICUG_clean_linker_0, # of connection points: 2
#     Edge 36, Type (0, 0), BuildingBlock: OJICUG_clean_linker_0, # of connection points: 2
#     Edge 37, Type (0, 0), BuildingBlock: OJICUG_clean_linker_0, # of connection points: 2
#     Edge 38, Type (0, 0), BuildingBlock: OJICUG_clean_linker_0, # of connection points: 2
#     Edge 39, Type (0, 0), BuildingBlock: OJICUG_clean_linker_0, # of connection points: 2
#     Edge 40, Type (0, 0), BuildingBlock: OJICUG_clean_linker_0, # of connection points: 2
#     Edge 41, Type (0, 0), BuildingBlock: OJICUG_clean_linker_0, # of connection points: 2
#     Edge 42, Type (0, 0), BuildingBlock: OJICUG_clean_linker_0, # of connection points: 2
#     Edge 43, Type (0, 0), BuildingBlock: OJICUG_clean_linker_0, # of connection points: 2
#     Edge 44, Type (0, 0), BuildingBlock: OJICUG_clean_linker_0, # of connection points: 2
#     Edge 45, Type (0, 0), BuildingBlock: OJICUG_clean_linker_0, # of connection points: 2
#     Edge 46, Type (0, 0), BuildingBlock: OJICUG_clean_linker_0, # of connection points: 2
#     Edge 47, Type (0, 0), BuildingBlock: OJICUG_clean_linker_0, # of connection points: 2
#     Edge 48, Type (0, 0), BuildingBlock: OJICUG_clean_linker_0, # of connection points: 2
#     Edge 49, Type (0, 0), BuildingBlock: OJICUG_clean_linker_0, # of connection points: 2
#     Edge 50, Type (0, 0), BuildingBlock: OJICUG_clean_linker_0, # of connection points: 2
#     Edge 51, Type (0, 0), BuildingBlock: OJICUG_clean_linker_0, # of connection points: 2
#     Edge 52, Type (0, 0), BuildingBlock: OJICUG_clean_linker_0, # of connection points: 2
#     Edge 53, Type (0, 0), BuildingBlock: OJICUG_clean_linker_0, # of connection points: 2
#     Edge 54, Type (0, 0), BuildingBlock: OJICUG_clean_linker_0, # of connection points: 2
#     Edge 55, Type (0, 0), BuildingBlock: OJICUG_clean_linker_0, # of connection points: 2
#     Edge 56, Type (0, 0), BuildingBlock: OJICUG_clean_linker_0, # of connection points: 2
#     Edge 57, Type (0, 0), BuildingBlock: OJICUG_clean_linker_0, # of connection points: 2
#     Edge 58, Type (0, 0), BuildingBlock: OJICUG_clean_linker_0, # of connection points: 2
#     Edge 59, Type (0, 0), BuildingBlock: OJICUG_clean_linker_0, # of connection points: 2
#     Edge 60, Type (0, 0), BuildingBlock: OJICUG_clean_linker_0, # of connection points: 2
#     Edge 61, Type (0, 0), BuildingBlock: OJICUG_clean_linker_0, # of connection points: 2
#     Edge 62, Type (0, 0), BuildingBlock: OJICUG_clean_linker_0, # of connection points: 2
#     Edge 63, Type (0, 0), BuildingBlock: OJICUG_clean_linker_0, # of connection points: 2
#     Edge 64, Type (0, 0), BuildingBlock: OJICUG_clean_linker_0, # of connection points: 2
#     Edge 65, Type (0, 0), BuildingBlock: OJICUG_clean_linker_0, # of connection points: 2
#     Edge 66, Type (0, 0), BuildingBlock: OJICUG_clean_linker_0, # of connection points: 2
#     Edge 67, Type (0, 0), BuildingBlock: OJICUG_clean_linker_0, # of connection points: 2
#     Edge 68, Type (0, 0), BuildingBlock: OJICUG_clean_linker_0, # of connection points: 2
#     Edge 69, Type (0, 0), BuildingBlock: OJICUG_clean_linker_0, # of connection points: 2
#     Edge 70, Type (0, 0), BuildingBlock: OJICUG_clean_linker_0, # of connection points: 2
#     Edge 71, Type (0, 0), BuildingBlock: OJICUG_clean_linker_0, # of connection points: 2
#     Edge 72, Type (0, 0), BuildingBlock: OJICUG_clean_linker_0, # of connection points: 2
#     Edge 73, Type (0, 0), BuildingBlock: OJICUG_clean_linker_0, # of connection points: 2
#     Edge 74, Type (0, 0), BuildingBlock: OJICUG_clean_linker_0, # of connection points: 2
#     Edge 75, Type (0, 0), BuildingBlock: OJICUG_clean_linker_0, # of connection points: 2
#     Edge 76, Type (0, 0), BuildingBlock: OJICUG_clean_linker_0, # of connection points: 2
#     Edge 77, Type (0, 0), BuildingBlock: OJICUG_clean_linker_0, # of connection points: 2
#     Edge 78, Type (0, 0), BuildingBlock: OJICUG_clean_linker_0, # of connection points: 2
#     Edge 79, Type (0, 0), BuildingBlock: OJICUG_clean_linker_0, # of connection points: 2
#     Edge 80, Type (0, 0), BuildingBlock: OJICUG_clean_linker_0, # of connection points: 2
#     Edge 81, Type (0, 0), BuildingBlock: OJICUG_clean_linker_0, # of connection points: 2
#     Edge 82, Type (0, 0), BuildingBlock: OJICUG_clean_linker_0, # of connection points: 2
#     Edge 83, Type (0, 0), BuildingBlock: OJICUG_clean_linker_0, # of connection points: 2
#     Edge 84, Type (0, 0), BuildingBlock: OJICUG_clean_linker_0, # of connection points: 2
#     Edge 85, Type (0, 0), BuildingBlock: OJICUG_clean_linker_0, # of connection points: 2
#     Edge 86, Type (0, 0), BuildingBlock: OJICUG_clean_linker_0, # of connection points: 2
#     Edge 87, Type (0, 0), BuildingBlock: OJICUG_clean_linker_0, # of connection points: 2
#     Edge 88, Type (0, 0), BuildingBlock: OJICUG_clean_linker_0, # of connection points: 2
#     Edge 89, Type (0, 0), BuildingBlock: OJICUG_clean_linker_0, # of connection points: 2
#     Edge 90, Type (0, 0), BuildingBlock: OJICUG_clean_linker_0, # of connection points: 2
#     Edge 91, Type (0, 0), BuildingBlock: OJICUG_clean_linker_0, # of connection points: 2
#     Edge 92, Type (0, 0), BuildingBlock: OJICUG_clean_linker_0, # of connection points: 2
#     Edge 93, Type (0, 0), BuildingBlock: OJICUG_clean_linker_0, # of connection points: 2
#     Edge 94, Type (0, 0), BuildingBlock: OJICUG_clean_linker_0, # of connection points: 2
#     Edge 95, Type (0, 0), BuildingBlock: OJICUG_clean_linker_0, # of connection points: 2
#     Edge 96, Type (0, 0), BuildingBlock: OJICUG_clean_linker_0, # of connection points: 2
#     Edge 97, Type (0, 0), BuildingBlock: OJICUG_clean_linker_0, # of connection points: 2
#     Edge 98, Type (0, 0), BuildingBlock: OJICUG_clean_linker_0, # of connection points: 2
#     Edge 99, Type (0, 0), BuildingBlock: OJICUG_clean_linker_0, # of connection points: 2
#     Edge 100, Type (0, 0), BuildingBlock: OJICUG_clean_linker_0, # of connection points: 2
#     Edge 101, Type (0, 0), BuildingBlock: OJICUG_clean_linker_0, # of connection points: 2
#     Edge 102, Type (0, 0), BuildingBlock: OJICUG_clean_linker_0, # of connection points: 2
#     Edge 103, Type (0, 0), BuildingBlock: OJICUG_clean_linker_0, # of connection points: 2
#     Edge 104, Type (0, 0), BuildingBlock: OJICUG_clean_linker_0, # of connection points: 2
#     Edge 105, Type (0, 0), BuildingBlock: OJICUG_clean_linker_0, # of connection points: 2
#     Edge 106, Type (0, 0), BuildingBlock: OJICUG_clean_linker_0, # of connection points: 2
#     Edge 107, Type (0, 0), BuildingBlock: OJICUG_clean_linker_0, # of connection points: 2
#     Edge 108, Type (0, 0), BuildingBlock: OJICUG_clean_linker_0, # of connection points: 2
#     Edge 109, Type (0, 0), BuildingBlock: OJICUG_clean_linker_0, # of connection points: 2
#     Edge 110, Type (0, 0), BuildingBlock: OJICUG_clean_linker_0, # of connection points: 2
#     Edge 111, Type (0, 0), BuildingBlock: OJICUG_clean_linker_0, # of connection points: 2
# Relax obj value: 0.631
# Max RMSD: 0.258
# Mean RMSD: 0.257
data_MOF--net-yfm--node1-XOMCOT_clean_sbu_1--edge1-OJICUG_clean_linker_0
_symmetry_space_group_name_H-M    P1
_symmetry_Int_Tables_number       1
_symmetry_cell_setting            triclinic
loop_
_symmetry_equiv_pos_as_xyz
'x, y, z'
_cell_length_a     50.360562
_cell_length_b     50.254681
_cell_length_c     34.910489
_cell_angle_alpha  89.950274
_cell_angle_beta   89.987467
_cell_angle_gamma 89.996943
loop_
_atom_site_label
_atom_site_type_symbol
_atom_site_fract_x
_atom_site_fract_y
_atom_site_fract_z
_atom_type_partial_charge
C0 C 0.31244 0.13087 0.15636 0.0
C1 C 0.30626 0.13464 0.19424 0.0
N2 N 0.29027 0.156 0.19681 0.0
N3 N 0.30079 0.15004 0.1353 0.0
C4 C 0.28719 0.16501 0.16067 0.0
H5 H 0.3238 0.11455 0.14455 0.0
Co6 Co 0.30158 0.14912 0.08274 0.0
C7 C 0.27323 0.19935 0.05826 0.0
O8 O 0.25979 0.18641 0.0319 0.0
N9 N 0.30378 0.14652 0.02882 0.0
C10 C 0.31858 0.15412 0.96967 0.0
C11 C 0.31129 0.16563 0.00385 0.0
C12 C 0.30713 0.12352 0.00908 0.0
N13 N 0.3164 0.12749 0.97307 0.0
O14 O 0.33731 0.16286 0.08492 0.0
H15 H 0.31396 0.18637 0.01096 0.0
H16 H 0.30595 0.10413 0.02231 0.0
O17 O 0.28917 0.18653 0.0801 0.0
C18 C 0.35789 0.14861 0.07934 0.0
O19 O 0.35647 0.12933 0.05405 0.0
N20 N 0.26682 0.13411 0.08431 0.0
C21 C 0.22497 0.10589 0.11934 0.0
C22 C 0.22368 0.13359 0.11448 0.0
C23 C 0.24478 0.14732 0.09727 0.0
C24 C 0.2676 0.107 0.08653 0.0
C25 C 0.2469 0.09252 0.10358 0.0
H26 H 0.24424 0.16866 0.09879 0.0
H27 H 0.28569 0.09663 0.07932 0.0
H28 H 0.274 0.18109 0.15274 0.0
H29 H 0.31138 0.12149 0.2177 0.0
H30 H 0.32664 0.16458 0.9452 0.0
H31 H 0.20717 0.14486 0.12596 0.0
H32 H 0.24921 0.07125 0.10721 0.0
C33 C 0.0805 0.04097 0.38254 0.0
C34 C 0.0748 0.03388 0.41939 0.0
N35 N 0.09503 0.01914 0.43286 0.0
N36 N 0.10432 0.03092 0.37231 0.0
C37 C 0.11318 0.01845 0.4043 0.0
H38 H 0.06759 0.05224 0.36394 0.0
Co39 Co 0.11637 0.03245 0.32124 0.0
C40 C 0.06542 1.00443 0.29239 0.0
O41 O 0.07627 0.98157 0.28305 0.0
N42 N 0.12815 0.03508 0.26936 0.0
C43 C 0.13537 0.02797 0.20718 0.0
C44 C 0.12161 0.0197 0.23914 0.0
C45 C 0.14613 0.05253 0.25475 0.0
N46 N 0.15092 0.0487 0.21692 0.0
O47 O 0.10667 0.06946 0.32085 0.0
H48 H 0.10815 1.00309 0.24001 0.0
H49 H 0.1562 0.06733 0.27172 0.0
O50 O 0.07991 0.02336 0.30514 0.0
C51 C 0.12529 0.08369 0.33452 0.0
O52 O 0.14817 0.07219 0.34184 0.0
N53 N 0.12834 0.99639 0.32449 0.0
C54 C 0.15763 0.95464 0.35783 0.0
C55 C 0.12979 0.95595 0.36175 0.0
C56 C 0.11545 0.97673 0.34431 0.0
C57 C 0.1548 0.99378 0.31703 0.0
C58 C 0.16954 0.97277 0.33237 0.0
H59 H 0.09472 0.97901 0.35164 0.0
H60 H 0.16536 0.00941 0.30223 0.0
H61 H 0.13151 0.00724 0.40561 0.0
H62 H 0.05658 0.03832 0.43456 0.0
H63 H 0.1339 0.01928 0.17891 0.0
H64 H 0.1193 0.94268 0.38089 0.0
H65 H 0.19059 0.97212 0.32633 0.0
C66 C 0.22391 0.88871 0.6525 0.0
C67 C 0.22734 0.88129 0.68992 0.0
N68 N 0.23884 0.85716 0.69044 0.0
N69 N 0.23275 0.86918 0.62931 0.0
C70 C 0.24193 0.85019 0.65339 0.0
H71 H 0.21706 0.90795 0.64296 0.0
Co72 Co 0.23407 0.87256 0.57621 0.0
C73 C 0.25049 0.81799 0.54947 0.0
O74 O 0.26744 0.82839 0.52516 0.0
N75 N 0.23479 0.87742 0.52134 0.0
C76 C 0.24858 0.89043 0.46339 0.0
C77 C 0.25634 0.88128 0.49881 0.0
C78 C 0.21409 0.88389 0.49794 0.0
N79 N 0.22196 0.89235 0.46295 0.0
O80 O 0.19625 0.86972 0.57591 0.0
H81 H 0.27674 0.87922 0.50791 0.0
H82 H 0.19361 0.88453 0.50695 0.0
O83 O 0.23688 0.83335 0.57113 0.0
C84 C 0.18617 0.89282 0.58018 0.0
O85 O 0.20126 0.91356 0.57282 0.0
N86 N 0.27098 0.87847 0.58058 0.0
C87 C 0.31648 0.89938 0.6158 0.0
C88 C 0.31227 0.87171 0.61395 0.0
C89 C 0.28938 0.8616 0.59608 0.0
C90 C 0.27571 0.90517 0.57976 0.0
C91 C 0.29834 0.91599 0.5968 0.0
H92 H 0.28544 0.84057 0.5982 0.0
H93 H 0.26052 0.91842 0.56893 0.0
H94 H 0.25206 0.83233 0.64419 0.0
H95 H 0.22402 0.89373 0.7148 0.0
H96 H 0.26166 0.89669 0.44047 0.0
H97 H 0.32576 0.85808 0.62804 0.0
H98 H 0.3003 0.93743 0.59787 0.0
C99 C 0.387 0.9525 0.90996 0.0
C100 C 0.39133 0.95701 0.94814 0.0
N101 N 0.41212 0.97364 0.95155 0.0
N102 N 0.40537 0.96559 0.88916 0.0
C103 C 0.42033 0.97859 0.91533 0.0
H104 H 0.37052 0.94153 0.89796 0.0
Co105 Co 0.40218 0.9677 0.8363 0.0
C106 C 0.45246 0.99392 0.80833 0.0
O107 O 0.43875 0.00834 0.78405 0.0
N108 N 0.39667 0.96917 0.7815 0.0
C109 C 0.37991 0.98267 0.72537 0.0
C110 C 0.38847 0.99054 0.76098 0.0
C111 C 0.393 0.94855 0.75676 0.0
N112 N 0.38228 0.9561 0.72288 0.0
O113 O 0.41349 0.93101 0.83387 0.0
H114 H 0.38703 0.01065 0.77168 0.0
H115 H 0.39684 0.92802 0.76366 0.0
O116 O 0.44021 0.97818 0.8312 0.0
C117 C 0.39551 0.91315 0.83446 0.0
O118 O 0.37115 0.9202 0.82546 0.0
N119 N 0.38938 1.00283 0.84291 0.0
C120 C 0.36341 0.04633 0.87669 0.0
C121 C 0.39117 0.04607 0.87238 0.0
C122 C 0.4038 0.02409 0.8557 0.0
C123 C 0.36233 1.00337 0.8449 0.0
C124 C 0.34896 0.0249 0.8615 0.0
H125 H 0.42516 0.02341 0.85643 0.0
H126 H 0.35115 0.98607 0.83597 0.0
H127 H 0.43569 0.99277 0.90805 0.0
H128 H 0.37866 0.95053 0.97142 0.0
H129 H 0.37049 0.99535 0.70428 0.0
H130 H 0.40327 0.06184 0.88427 0.0
H131 H 0.32753 0.02424 0.86373 0.0
C132 C 0.31175 0.87923 0.86792 0.0
C133 C 0.3095 0.87342 0.82971 0.0
N134 N 0.29511 0.85099 0.82614 0.0
N135 N 0.2993 0.86031 0.88854 0.0
C136 C 0.28934 0.84329 0.86227 0.0
H137 H 0.32063 0.89695 0.8799 0.0
Co138 Co 0.29434 0.86387 0.94079 0.0
C139 C 0.26757 0.81245 0.96437 0.0
O140 O 0.25045 0.8248 0.98638 0.0
N141 N 0.28993 0.8695 0.995 0.0
C142 C 0.27313 0.88648 0.04902 0.0
C143 C 0.26725 0.87574 0.01379 0.0
C144 C 0.30922 0.87616 0.02049 0.0
N145 N 0.29969 0.88728 0.05304 0.0
O146 O 0.33081 0.85292 0.94727 0.0
H147 H 0.24753 0.87486 1.00169 0.0
H148 H 0.33011 0.87425 0.01483 0.0
O149 O 0.28442 0.82594 0.94499 0.0
C150 C 0.34872 0.87082 0.94608 0.0
O151 O 0.34154 0.89562 0.95211 0.0
N152 N 0.25939 0.87605 0.93039 0.0
C153 C 0.21793 0.90232 0.8916 0.0
C154 C 0.21949 0.87433 0.89238 0.0
C155 C 0.24018 0.8616 0.91217 0.0
C156 C 0.25738 0.90306 0.93198 0.0
C157 C 0.23661 0.91649 0.91363 0.0
H158 H 0.24189 0.8403 0.90963 0.0
H159 H 0.27299 0.91443 0.9456 0.0
H160 H 0.27643 0.82676 0.86915 0.0
H161 H 0.31565 0.88613 0.80625 0.0
H162 H 0.25888 0.89524 0.06849 0.0
H163 H 0.206 0.8622 0.87578 0.0
H164 H 0.23607 0.93796 0.91548 0.0
C165 C 0.37861 0.05406 0.12518 0.0
C166 C 0.38561 0.04979 0.08771 0.0
N167 N 0.40632 0.03288 0.08708 0.0
N168 N 0.39514 0.04038 0.1483 0.0
C169 C 0.4118 0.02752 0.12421 0.0
H170 H 0.36163 0.06535 0.1349 0.0
Co171 Co 0.38934 0.03785 0.20076 0.0
C172 C 0.43975 0.0125 0.23166 0.0
O173 O 0.42717 0.99789 0.25699 0.0
N174 N 0.3814 0.03586 0.25467 0.0
C175 C 0.3626 0.02122 0.30878 0.0
C176 C 0.37422 0.01394 0.2747 0.0
C177 C 0.37416 0.0562 0.27814 0.0
N178 N 0.36209 0.04796 0.31078 0.0
O179 O 0.40118 0.07418 0.20508 0.0
H180 H 0.37539 0.99373 0.26427 0.0
H181 H 0.37647 0.07686 0.27091 0.0
O182 O 0.42663 0.02736 0.20871 0.0
C183 C 0.38443 0.09297 0.2012 0.0
O184 O 0.35909 0.08736 0.20527 0.0
N185 N 0.37683 1.00278 0.19262 0.0
C186 C 0.35274 0.95878 0.15756 0.0
C187 C 0.3803 0.95948 0.16367 0.0
C188 C 0.39198 0.98164 0.18125 0.0
C189 C 0.34989 1.00179 0.18896 0.0
C190 C 0.33742 0.97992 0.17183 0.0
H191 H 0.41333 0.98246 0.18259 0.0
H192 H 0.33817 0.01896 0.19691 0.0
H193 H 0.4266 0.0133 0.13345 0.0
H194 H 0.37485 0.05675 0.06278 0.0
H195 H 0.35327 0.00775 0.32888 0.0
H196 H 0.39292 0.94359 0.15332 0.0
H197 H 0.31615 0.98051 0.16738 0.0
C198 C 0.20313 0.1305 0.36719 0.0
C199 C 0.20968 0.13443 0.32949 0.0
N200 N 0.22594 0.15563 0.32747 0.0
N201 N 0.21476 0.14942 0.38869 0.0
C202 C 0.2288 0.16437 0.36376 0.0
H203 H 0.19145 0.11425 0.3786 0.0
Co204 Co 0.21262 0.14835 0.44115 0.0
C205 C 0.23942 0.19898 0.46731 0.0
O206 O 0.25206 0.18621 0.49467 0.0
N207 N 0.20907 0.14537 0.49496 0.0
C208 C 0.19214 0.15166 0.55325 0.0
C209 C 0.20061 0.16394 0.52011 0.0
C210 C 0.20531 0.12197 0.51363 0.0
N211 N 0.19467 0.12513 0.54898 0.0
O212 O 0.17658 0.16145 0.43672 0.0
H213 H 0.19796 0.18479 0.51353 0.0
H214 H 0.20692 0.10286 0.49974 0.0
O215 O 0.22433 0.18598 0.4445 0.0
C216 C 0.15545 0.14878 0.44523 0.0
O217 O 0.15578 0.13273 0.47491 0.0
N218 N 0.24771 0.13404 0.44163 0.0
C219 C 0.29152 0.10669 0.41065 0.0
C220 C 0.29191 0.13444 0.41488 0.0
C221 C 0.26985 0.14773 0.43012 0.0
C222 C 0.24771 0.10689 0.43984 0.0
C223 C 0.26943 0.09284 0.42495 0.0
H224 H 0.26989 0.16906 0.42816 0.0
H225 H 0.22963 0.09609 0.44561 0.0
H226 H 0.24195 0.18038 0.3721 0.0
H227 H 0.20456 0.12154 0.30577 0.0
H228 H 0.18298 0.16152 0.57742 0.0
H229 H 0.30846 0.14603 0.40415 0.0
H230 H 0.26784 0.07149 0.4215 0.0
C231 C 0.07119 0.94675 0.62734 0.0
C232 C 0.068 0.94915 0.58842 0.0
N233 N 0.08892 0.96268 0.57416 0.0
N234 N 0.09401 0.95873 0.63777 0.0
C235 C 0.10465 0.96763 0.60461 0.0
H236 H 0.05737 0.93746 0.64691 0.0
Co237 Co 0.10674 0.96349 0.68764 0.0
C238 C 0.05907 0.99493 0.72083 0.0
O239 O 0.07258 0.01275 0.74015 0.0
N240 N 0.12045 0.96755 0.73796 0.0
C241 C 0.14081 0.98414 0.78938 0.0
C242 C 0.12575 0.9901 0.75761 0.0
C243 C 0.13268 0.94817 0.75862 0.0
N244 N 0.1452 0.95774 0.79 0.0
O245 O 0.09381 0.92854 0.70144 0.0
H246 H 0.12113 0.00998 0.74794 0.0
H247 H 0.13421 0.92771 0.74926 0.0
O248 O 0.07134 0.97711 0.70164 0.0
C249 C 0.10052 0.90573 0.68855 0.0
O250 O 0.08787 0.88462 0.7012 0.0
N251 N 0.1203 0.99747 0.67327 0.0
C252 C 0.14532 0.04123 0.63836 0.0
C253 C 0.11747 0.03986 0.64124 0.0
C254 C 0.10533 0.01776 0.65863 0.0
C255 C 0.14736 0.99894 0.67202 0.0
C256 C 0.16021 0.02059 0.6549 0.0
H257 H 0.08396 0.01617 0.65775 0.0
H258 H 0.15915 0.98269 0.6831 0.0
H259 H 0.1229 0.97891 0.6031 0.0
H260 H 0.05106 0.94221 0.5722 0.0
H261 H 0.14905 0.99833 0.80944 0.0
H262 H 0.10506 0.05501 0.62836 0.0
H263 H 0.1817 0.02083 0.65399 0.0
C264 C 0.70361 0.88613 0.86884 0.0
C265 C 0.7076 0.8845 0.83022 0.0
N266 N 0.71751 0.86026 0.82223 0.0
N267 N 0.71036 0.86291 0.88546 0.0
C268 C 0.71893 0.8474 0.85633 0.0
H269 H 0.69811 0.90387 0.88444 0.0
Co270 Co 0.71467 0.8637 0.93792 0.0
C271 C 0.74747 0.81331 0.95335 0.0
O272 O 0.7657 0.82539 0.97375 0.0
N273 N 0.71785 0.8676 0.99157 0.0
C274 C 0.73196 0.88146 0.0487 0.0
C275 C 0.73948 0.87069 0.01402 0.0
C276 C 0.69752 0.87687 0.01341 0.0
N277 N 0.70552 0.88548 0.04824 0.0
O278 O 0.68042 0.84661 0.94566 0.0
H279 H 0.75977 0.86846 0.00461 0.0
H280 H 0.67765 0.87993 1.00247 0.0
O281 O 0.72862 0.82685 0.93837 0.0
C282 C 0.65692 0.84776 0.9321 0.0
O283 O 0.63901 0.83082 0.94441 0.0
N284 N 0.74845 0.87991 0.9292 0.0
C285 C 0.79049 0.90967 0.89729 0.0
C286 C 0.78849 0.88207 0.89146 0.0
C287 C 0.76755 0.86764 0.90767 0.0
C288 C 0.75057 0.90644 0.93681 0.0
C289 C 0.77156 0.92157 0.92166 0.0
H290 H 0.76562 0.847 0.89983 0.0
H291 H 0.73506 0.91627 0.95293 0.0
H292 H 0.72823 0.8282 0.86044 0.0
H293 H 0.7057 0.90079 0.81011 0.0
H294 H 0.74523 0.88769 0.07137 0.0
H295 H 0.8019 0.87173 0.87237 0.0
H296 H 0.77226 0.94263 0.92796 0.0
C297 C 0.87808 0.9629 0.61569 0.0
C298 C 0.88492 0.96672 0.57809 0.0
N299 N 0.907 0.98175 0.57698 0.0
N300 N 0.89606 0.97488 0.63848 0.0
C301 C 0.91342 0.98645 0.61396 0.0
H302 H 0.86022 0.95324 0.62573 0.0
Co303 Co 0.89092 0.97752 0.69116 0.0
C304 C 0.94321 0.99953 0.72103 0.0
O305 O 0.93141 0.0155 0.74536 0.0
N306 N 0.88357 0.97986 0.74552 0.0
C307 C 0.86593 0.9964 0.79938 0.0
C308 C 0.87826 1.00243 0.76533 0.0
C309 C 0.87467 0.96032 0.7694 0.0
N310 N 0.86329 0.96985 0.80176 0.0
O311 O 0.89922 0.94015 0.69476 0.0
H312 H 0.88111 0.02243 0.75473 0.0
H313 H 0.87438 0.93948 0.7623 0.0
O314 O 0.92921 0.98504 0.69862 0.0
C315 C 0.87949 0.92443 0.69182 0.0
O316 O 0.85553 0.93437 0.69629 0.0
N317 N 0.88106 0.01335 0.68355 0.0
C318 C 0.85829 0.05781 0.64797 0.0
C319 C 0.88597 0.05579 0.65242 0.0
C320 C 0.89701 0.0334 0.67044 0.0
C321 C 0.85415 0.01575 0.68153 0.0
C322 C 0.84235 0.03787 0.66424 0.0
H323 H 0.91831 0.03133 0.67066 0.0
H324 H 0.84178 0.99935 0.69077 0.0
H325 H 0.92942 0.99942 0.62279 0.0
H326 H 0.87322 0.96098 0.55342 0.0
H327 H 0.85797 0.0106 0.81966 0.0
H328 H 0.89905 0.07073 0.64041 0.0
H329 H 0.82097 0.03825 0.66106 0.0
C330 C 0.80977 0.13183 0.35307 0.0
C331 C 0.80447 0.13671 0.31517 0.0
N332 N 0.78667 0.15662 0.31317 0.0
N333 N 0.79586 0.14897 0.37493 0.0
C334 C 0.78188 0.16384 0.34976 0.0
H335 H 0.82163 0.1156 0.36406 0.0
Co336 Co 0.79313 0.14542 0.42762 0.0
C337 C 0.76793 0.19688 0.45438 0.0
O338 O 0.75382 0.18477 0.48074 0.0
N339 N 0.7908 0.13995 0.48215 0.0
C340 C 0.77608 0.12361 0.53785 0.0
C341 C 0.76893 0.1327 0.50218 0.0
C342 C 0.81096 0.13534 0.50724 0.0
N343 N 0.80267 0.12478 0.54089 0.0
O344 O 0.82958 0.15678 0.43117 0.0
H345 H 0.74893 0.13223 0.49102 0.0
H346 H 0.83162 0.13838 0.5007 0.0
O347 O 0.78274 0.18323 0.43202 0.0
C348 C 0.84733 0.13871 0.43035 0.0
O349 O 0.8401 0.11411 0.43785 0.0
N350 N 0.75827 0.13256 0.42017 0.0
C351 C 0.71533 0.10611 0.3861 0.0
C352 C 0.7149 0.13385 0.39132 0.0
C353 C 0.73658 0.14675 0.40844 0.0
C354 C 0.75838 0.10553 0.41733 0.0
C355 C 0.73714 0.09191 0.40062 0.0
H356 H 0.73658 0.16818 0.40924 0.0
H357 H 0.776 0.09462 0.42557 0.0
H358 H 0.767 0.17826 0.35798 0.0
H359 H 0.8111 0.12478 0.29116 0.0
H360 H 0.76279 0.11467 0.55856 0.0
H361 H 0.69842 0.14566 0.38089 0.0
H362 H 0.73869 0.07058 0.39689 0.0
C363 C 0.56941 0.0328 0.12465 0.0
C364 C 0.56902 0.02827 0.08593 0.0
N365 N 0.59357 0.0208 0.07506 0.0
N366 N 0.59404 0.02792 0.13821 0.0
C367 C 0.60842 0.0211 0.10723 0.0
H368 H 0.55274 0.0393 0.14164 0.0
Co369 Co 0.60557 0.03036 0.18859 0.0
C370 C 0.55481 1.00459 0.21988 0.0
O371 O 0.56604 0.98175 0.2283 0.0
N372 N 0.6173 0.03394 0.24036 0.0
C373 C 0.62488 0.02736 0.30257 0.0
C374 C 0.61149 0.01838 0.27077 0.0
C375 C 0.6345 0.05221 0.25475 0.0
N376 N 0.6395 0.04871 0.29256 0.0
O377 O 0.59821 0.06781 0.18554 0.0
H378 H 0.59899 1.00105 0.2701 0.0
H379 H 0.64391 0.06741 0.23769 0.0
O380 O 0.56873 0.02356 0.20586 0.0
C381 C 0.6187 0.07839 0.17035 0.0
O382 O 0.64009 0.0636 0.16672 0.0
N383 N 0.61581 0.99364 0.1871 0.0
C384 C 0.64369 0.95145 0.15206 0.0
C385 C 0.61607 0.95438 0.14722 0.0
C386 C 0.60247 0.9753 0.16537 0.0
C387 C 0.64202 0.98955 0.19513 0.0
C388 C 0.65607 0.96837 0.17875 0.0
H389 H 0.58199 0.97873 0.15752 0.0
H390 H 0.65309 1.00427 0.21103 0.0
H391 H 0.62935 0.01628 0.10851 0.0
H392 H 0.55187 0.02991 0.06742 0.0
H393 H 0.62392 0.01859 0.33085 0.0
H394 H 0.60524 0.9422 0.12703 0.0
H395 H 0.677 0.96658 0.18516 0.0
C396 C 0.70753 0.12201 0.13978 0.0
C397 C 0.71113 0.12757 0.17791 0.0
N398 N 0.72433 0.15077 0.18069 0.0
N399 N 0.71795 0.14183 0.11856 0.0
C400 C 0.72796 0.15917 0.14433 0.0
H401 H 0.69935 0.10383 0.12817 0.0
Co402 Co 0.72202 0.13912 0.06595 0.0
C403 C 0.74511 0.19231 0.04251 0.0
O404 O 0.76248 0.18082 0.01995 0.0
N405 N 0.72582 0.13458 0.01121 0.0
C406 C 0.74338 0.12146 0.95545 0.0
C407 C 0.74874 0.12992 0.99203 0.0
C408 C 0.70678 0.12902 0.98465 0.0
N409 N 0.71691 0.12048 0.95085 0.0
O410 O 0.6847 0.14694 0.06134 0.0
H411 H 0.76843 0.13101 0.00418 0.0
H412 H 0.68575 0.12929 0.99043 0.0
O413 O 0.72919 0.17792 0.06227 0.0
C414 C 0.6694 0.12673 0.06165 0.0
O415 O 0.6798 0.10339 0.0536 0.0
N416 N 0.75787 0.12931 0.07479 0.0
C417 C 0.80068 0.10577 0.11332 0.0
C418 C 0.79803 0.13355 0.11168 0.0
C419 C 0.7766 0.14498 0.09199 0.0
C420 C 0.76106 0.10234 0.07421 0.0
C421 C 0.78251 0.09018 0.09282 0.0
H422 H 0.77395 0.1662 0.09397 0.0
H423 H 0.74566 0.09004 0.06183 0.0
H424 H 0.73952 0.17653 0.13674 0.0
H425 H 0.70679 0.1143 0.20156 0.0
H426 H 0.75794 0.11516 0.93452 0.0
H427 H 0.81167 0.1463 0.12711 0.0
H428 H 0.7837 0.06866 0.09361 0.0
C429 C 0.65349 0.98484 0.87625 0.0
C430 C 0.65289 0.98911 0.91498 0.0
N431 N 0.62735 0.992 0.92553 0.0
N432 N 0.62849 0.985 0.86256 0.0
C433 C 0.61286 0.98939 0.89322 0.0
H434 H 0.67105 0.98214 0.85884 0.0
Co435 Co 0.62277 0.98066 0.81116 0.0
C436 C 0.56783 1.00116 0.79754 0.0
O437 O 0.57753 0.01639 0.77027 0.0
N438 N 0.61941 0.97441 0.75804 0.0
C439 C 0.60728 0.95366 0.70434 0.0
C440 C 0.59849 0.96492 0.73799 0.0
C441 C 0.64067 0.96806 0.73606 0.0
N442 N 0.63396 0.95525 0.70335 0.0
O443 O 0.61685 0.94391 0.82062 0.0
H444 H 0.57846 0.96315 0.74866 0.0
H445 H 0.66087 0.9697 0.74619 0.0
O446 O 0.58373 0.98639 0.81682 0.0
C447 C 0.63663 0.92823 0.8206 0.0
O448 O 0.65942 0.93677 0.80714 0.0
N449 N 0.63037 0.01768 0.80516 0.0
C450 C 0.65769 0.0612 0.83709 0.0
C451 C 0.63056 0.05726 0.84427 0.0
C452 C 0.61727 0.03562 0.82794 0.0
C453 C 0.65571 0.02319 0.79379 0.0
C454 C 0.66963 0.04493 0.80913 0.0
H455 H 0.59789 0.03119 0.83932 0.0
H456 H 0.66663 0.00888 0.77708 0.0
H457 H 0.59145 0.99089 0.89189 0.0
H458 H 0.66992 0.99073 0.93374 0.0
H459 H 0.59502 0.94329 0.68375 0.0
H460 H 0.6202 0.06882 0.86572 0.0
H461 H 0.6903 0.04749 0.80145 0.0
C462 C 0.79238 0.82412 0.63293 0.0
C463 C 0.78498 0.82082 0.67049 0.0
N464 N 0.77203 0.84289 0.6817 0.0
N465 N 0.78418 0.84818 0.62037 0.0
C466 C 0.77232 0.85938 0.65109 0.0
H467 H 0.80267 0.8096 0.61565 0.0
Co468 Co 0.7863 0.86013 0.5696 0.0
C469 C 0.76054 0.81025 0.53511 0.0
O470 O 0.7401 0.82252 0.51988 0.0
N471 N 0.7888 0.8721 0.51717 0.0
C472 C 0.77622 0.88738 0.4598 0.0
C473 C 0.76839 0.87382 0.49205 0.0
C474 C 0.80912 0.8845 0.49855 0.0
N475 N 0.80185 0.89411 0.46386 0.0
O476 O 0.82348 0.85177 0.57112 0.0
H477 H 0.74826 0.86771 0.49775 0.0
H478 H 0.82848 0.88804 0.51081 0.0
O479 O 0.77822 0.82356 0.55308 0.0
C480 C 0.83545 0.87252 0.58307 0.0
O481 O 0.82212 0.89501 0.58355 0.0
N482 N 0.75047 0.87134 0.57253 0.0
C483 C 0.70751 0.89856 0.60524 0.0
C484 C 0.70823 0.87054 0.60487 0.0
C485 C 0.72999 0.85723 0.58838 0.0
C486 C 0.749 0.89839 0.57016 0.0
C487 C 0.7276 0.91229 0.58566 0.0
H488 H 0.73185 0.83602 0.59271 0.0
H489 H 0.76573 0.90956 0.55927 0.0
H490 H 0.76305 0.87881 0.6505 0.0
H491 H 0.78776 0.80307 0.6876 0.0
H492 H 0.76368 0.89304 0.43596 0.0
H493 H 0.69342 0.85905 0.6201 0.0
H494 H 0.72775 0.93382 0.58443 0.0
C495 C 0.88562 0.05796 0.39699 0.0
C496 C 0.88989 0.05423 0.4354 0.0
N497 N 0.91141 0.03865 0.43965 0.0
N498 N 0.90453 0.04517 0.37692 0.0
C499 C 0.92008 0.03352 0.40373 0.0
H500 H 0.86912 0.06853 0.38422 0.0
Co501 Co 0.90181 0.044 0.32402 0.0
C502 C 0.95013 0.0129 0.29952 0.0
O503 O 0.9355 0.99659 0.27901 0.0
N504 N 0.89703 0.04449 0.27 0.0
C505 C 0.9023 0.05279 0.20757 0.0
C506 C 0.91501 0.04637 0.24132 0.0
C507 C 0.87365 0.05068 0.2528 0.0
N508 N 0.87628 0.05588 0.21497 0.0
O509 O 0.91564 0.07997 0.32292 0.0
H510 H 0.93629 0.04592 0.24489 0.0
H511 H 0.85543 0.05404 0.26842 0.0
O512 O 0.93891 0.03141 0.3189 0.0
C513 C 0.90311 0.10124 0.3144 0.0
O514 O 0.88487 0.10028 0.28763 0.0
N515 N 0.88724 0.00889 0.32886 0.0
C516 C 0.85928 0.96683 0.36458 0.0
C517 C 0.88715 0.968 0.36537 0.0
C518 C 0.90065 0.98889 0.34727 0.0
C519 C 0.86028 0.00727 0.3258 0.0
C520 C 0.84607 0.98624 0.34252 0.0
H521 H 0.92169 0.99017 0.3521 0.0
H522 H 0.84924 0.02354 0.31361 0.0
H523 H 0.93651 0.02041 0.39723 0.0
H524 H 0.87694 0.06071 0.45835 0.0
H525 H 0.91181 0.05739 0.18055 0.0
H526 H 0.89868 0.95416 0.3823 0.0
H527 H 0.82468 0.98622 0.33973 0.0
C528 C 0.80506 0.62539 0.63013 0.0
C529 C 0.8013 0.62994 0.66852 0.0
N530 N 0.78656 0.65212 0.67233 0.0
N531 N 0.793 0.64476 0.60992 0.0
C532 C 0.78197 0.66088 0.63642 0.0
H533 H 0.81511 0.6085 0.61754 0.0
Co534 Co 0.79144 0.64388 0.55721 0.0
C535 C 0.76318 0.69438 0.5358 0.0
O536 O 0.7471 0.6812 0.51302 0.0
N537 N 0.79145 0.64165 0.50287 0.0
C538 C 0.80413 0.65076 0.44307 0.0
C539 C 0.79783 0.66136 0.47817 0.0
C540 C 0.79453 0.61913 0.48183 0.0
N541 N 0.80258 0.62406 0.44544 0.0
O542 O 0.82786 0.65574 0.55673 0.0
H543 H 0.80075 0.68196 0.48589 0.0
H544 H 0.79445 0.59944 0.49424 0.0
O545 O 0.78059 0.68167 0.55533 0.0
C546 C 0.84735 0.64063 0.54841 0.0
O547 O 0.84323 0.62066 0.52494 0.0
N548 N 0.75585 0.63063 0.5616 0.0
C549 C 0.71465 0.60302 0.59992 0.0
C550 C 0.71573 0.63099 0.59969 0.0
C551 C 0.7362 0.64432 0.58029 0.0
C552 C 0.75409 0.6036 0.55915 0.0
C553 C 0.73348 0.58955 0.57719 0.0
H554 H 0.73762 0.66544 0.58469 0.0
H555 H 0.7702 0.59241 0.54677 0.0
H556 H 0.76963 0.67787 0.6297 0.0
H557 H 0.80712 0.61684 0.6917 0.0
H558 H 0.81135 0.66187 0.41864 0.0
H559 H 0.70227 0.64273 0.6169 0.0
H560 H 0.73346 0.56809 0.575 0.0
C561 C 0.57461 0.54015 0.87444 0.0
C562 C 0.57244 0.53431 0.91282 0.0
N563 N 0.59505 0.52235 0.92403 0.0
N564 N 0.59853 0.53198 0.86151 0.0
C565 C 0.61068 0.5216 0.89261 0.0
H566 H 0.55946 0.54933 0.85693 0.0
Co567 Co 0.61048 0.53264 0.81075 0.0
C568 C 0.56058 0.50798 0.77474 0.0
O569 O 0.57298 0.4879 0.75875 0.0
N570 N 0.62295 0.53371 0.75839 0.0
C571 C 0.63928 0.51988 0.70224 0.0
C572 C 0.62575 0.51254 0.73476 0.0
C573 C 0.63476 0.55392 0.73859 0.0
N574 N 0.64501 0.54592 0.7046 0.0
O575 O 0.60292 0.57005 0.81025 0.0
H576 H 0.62017 0.49237 0.74161 0.0
H577 H 0.63735 0.57383 0.74954 0.0
O578 O 0.57373 0.52516 0.794 0.0
C579 C 0.62343 0.58255 0.82181 0.0
O580 O 0.64594 0.56941 0.82397 0.0
N581 N 0.62051 0.49648 0.81576 0.0
C582 C 0.64468 0.45293 0.85207 0.0
C583 C 0.61684 0.4548 0.8495 0.0
C584 C 0.60509 0.47687 0.83139 0.0
C585 C 0.64749 0.49394 0.81563 0.0
C586 C 0.65991 0.47229 0.8332 0.0
H587 H 0.58389 0.47963 0.83401 0.0
H588 H 0.65962 0.51006 0.8049 0.0
H589 H 0.63028 0.51279 0.89191 0.0
H590 H 0.55515 0.5375 0.93065 0.0
H591 H 0.64545 0.50678 0.67928 0.0
H592 H 0.60425 0.4406 0.86414 0.0
H593 H 0.6814 0.47159 0.83389 0.0
C594 C 0.70359 0.38094 0.1354 0.0
C595 C 0.70888 0.37837 0.17376 0.0
N596 N 0.72362 0.35632 0.17875 0.0
N597 N 0.71464 0.36045 0.11636 0.0
C598 C 0.72684 0.34573 0.14354 0.0
H599 H 0.69297 0.39715 0.1219 0.0
Co600 Co 0.71315 0.35917 0.06365 0.0
C601 C 0.74056 0.30827 0.04248 0.0
O602 O 0.7546 0.32109 0.01661 0.0
N603 N 0.70983 0.35964 0.00948 0.0
C604 C 0.69285 0.34953 0.95226 0.0
C605 C 0.70189 0.33947 0.98657 0.0
C606 C 0.70495 0.38177 0.98829 0.0
N607 N 0.69439 0.37627 0.9535 0.0
O608 O 0.67711 0.34686 0.06825 0.0
H609 H 0.69988 0.31898 0.99544 0.0
H610 H 0.70559 0.40163 0.99998 0.0
O611 O 0.72431 0.32129 0.06356 0.0
C612 C 0.65703 0.36186 0.06308 0.0
O613 O 0.659 0.38133 0.03813 0.0
N614 N 0.74873 0.37282 0.06268 0.0
C615 C 0.7922 0.40184 0.09257 0.0
C616 C 0.79111 0.37393 0.09523 0.0
C617 C 0.76946 0.35988 0.08005 0.0
C618 C 0.75028 0.39969 0.05759 0.0
C619 C 0.77197 0.41439 0.07133 0.0
H620 H 0.76825 0.33902 0.08673 0.0
H621 H 0.73343 0.41047 0.04664 0.0
H622 H 0.73884 0.32835 0.13764 0.0
H623 H 0.70387 0.39254 0.19596 0.0
H624 H 0.68402 0.33804 0.92937 0.0
H625 H 0.80562 0.36295 0.11171 0.0
H626 H 0.77181 0.43572 0.06726 0.0
C627 C 0.86895 0.4553 0.37218 0.0
C628 C 0.87101 0.46023 0.41057 0.0
N629 N 0.89302 0.47489 0.41679 0.0
N630 N 0.88967 0.46635 0.35375 0.0
C631 C 0.90413 0.47815 0.38165 0.0
H632 H 0.85231 0.44581 0.35822 0.0
Co633 Co 0.88858 0.46918 0.3007 0.0
C634 C 0.94172 0.494 0.2777 0.0
O635 O 0.93061 0.5086 0.25103 0.0
N636 N 0.88455 0.47151 0.24585 0.0
C637 C 0.86798 0.48771 0.1911 0.0
C638 C 0.87954 0.49397 0.2256 0.0
C639 C 0.87609 0.45182 0.22193 0.0
N640 N 0.86541 0.46115 0.18895 0.0
O641 O 0.9 0.43271 0.29773 0.0
H642 H 0.88151 0.514 0.23645 0.0
H643 H 0.87522 0.4311 0.22966 0.0
O644 O 0.92712 0.47916 0.29896 0.0
C645 C 0.88269 0.41434 0.30081 0.0
O646 O 0.85781 0.42024 0.29322 0.0
N647 N 0.876 0.50423 0.30747 0.0
C648 C 0.84994 0.54673 0.34337 0.0
C649 C 0.87776 0.54637 0.33997 0.0
C650 C 0.89045 0.52485 0.32217 0.0
C651 C 0.84894 0.50515 0.30807 0.0
C652 C 0.83551 0.52617 0.32584 0.0
H653 H 0.91179 0.5238 0.32368 0.0
H654 H 0.83774 0.48832 0.29749 0.0
H655 H 0.92144 0.49023 0.3759 0.0
H656 H 0.85619 0.45498 0.43169 0.0
H657 H 0.86005 0.50179 0.17058 0.0
H658 H 0.8898 0.56154 0.35351 0.0
H659 H 0.81404 0.5257 0.32732 0.0
C660 C 0.80576 0.38209 0.35474 0.0
C661 C 0.79986 0.37838 0.31676 0.0
N662 N 0.78339 0.35741 0.31398 0.0
N663 N 0.7934 0.3633 0.37571 0.0
C664 C 0.7797 0.34858 0.3501 0.0
H665 H 0.81771 0.39795 0.36661 0.0
Co666 Co 0.79514 0.36364 0.42839 0.0
C667 C 0.76782 0.31275 0.45227 0.0
O668 O 0.7538 0.32541 0.47829 0.0
N669 N 0.79855 0.36563 0.48241 0.0
C670 C 0.81306 0.35697 0.54159 0.0
C671 C 0.80467 0.34604 0.50752 0.0
C672 C 0.80429 0.38829 0.50185 0.0
N673 N 0.81308 0.38356 0.53783 0.0
O674 O 0.83104 0.35074 0.42431 0.0
H675 H 0.80609 0.32517 0.50051 0.0
H676 H 0.80491 0.40773 0.48857 0.0
O677 O 0.78366 0.32591 0.43069 0.0
C678 C 0.8512 0.36584 0.42787 0.0
O679 O 0.84907 0.38696 0.44976 0.0
N680 N 0.75987 0.37788 0.4288 0.0
C681 C 0.71645 0.40565 0.39691 0.0
C682 C 0.71635 0.37779 0.39972 0.0
C683 C 0.7382 0.36433 0.41528 0.0
C684 C 0.75941 0.40506 0.42904 0.0
C685 C 0.73791 0.41931 0.41351 0.0
H686 H 0.7385 0.3431 0.41192 0.0
H687 H 0.77704 0.4159 0.43718 0.0
H688 H 0.76643 0.3325 0.35772 0.0
H689 H 0.80577 0.39115 0.29325 0.0
H690 H 0.82136 0.3462 0.56565 0.0
H691 H 0.70026 0.36626 0.38758 0.0
H692 H 0.73924 0.44077 0.41159 0.0
C693 C 0.94056 0.54226 0.60758 0.0
C694 C 0.94136 0.5365 0.56907 0.0
N695 N 0.91782 0.52593 0.55896 0.0
N696 N 0.91662 0.53531 0.6218 0.0
C697 C 0.90305 0.52591 0.59133 0.0
H698 H 0.95662 0.55055 0.62423 0.0
Co699 Co 0.90557 0.53645 0.67301 0.0
C700 C 0.95575 0.51144 0.70753 0.0
O701 O 0.94305 0.49117 0.72254 0.0
N702 N 0.89376 0.53819 0.72578 0.0
C703 C 0.87907 0.52559 0.78342 0.0
C704 C 0.8921 0.5177 0.75076 0.0
C705 C 0.88146 0.55849 0.74472 0.0
N706 N 0.8721 0.55135 0.7798 0.0
O707 O 0.91308 0.5738 0.6723 0.0
H708 H 0.89796 0.49749 0.74482 0.0
H709 H 0.87864 0.57802 0.73265 0.0
O710 O 0.9428 0.52919 0.68897 0.0
C711 C 0.8923 0.58583 0.66076 0.0
O712 O 0.86998 0.57232 0.65933 0.0
N713 N 0.89553 0.50016 0.66929 0.0
C714 C 0.87071 0.45599 0.63552 0.0
C715 C 0.89854 0.45865 0.6351 0.0
C716 C 0.9106 0.4809 0.65216 0.0
C717 C 0.86867 0.49703 0.67192 0.0
C718 C 0.85595 0.47502 0.65576 0.0
H719 H 0.9316 0.48406 0.64767 0.0
H720 H 0.85665 0.51298 0.68341 0.0
H721 H 0.883 0.5183 0.59327 0.0
H722 H 0.95839 0.53874 0.55043 0.0
H723 H 0.8738 0.51262 0.80694 0.0
H724 H 0.91079 0.44451 0.61977 0.0
H725 H 0.83446 0.47422 0.6563 0.0
C726 C 0.70798 0.62878 0.85003 0.0
C727 C 0.71239 0.63308 0.81177 0.0
N728 N 0.72801 0.65466 0.80823 0.0
N729 N 0.72037 0.64778 0.87046 0.0
C730 C 0.73252 0.66331 0.84421 0.0
H731 H 0.6974 0.61214 0.86245 0.0
Co732 Co 0.72145 0.64593 0.92303 0.0
C733 C 0.74829 0.69731 0.9464 0.0
O734 O 0.76437 0.68442 0.96956 0.0
N735 N 0.72116 0.64218 0.97728 0.0
C736 C 0.71041 0.64839 0.0387 0.0
C737 C 0.71616 0.66071 0.0044 0.0
C738 C 0.71763 0.61871 0.99595 0.0
N739 N 0.71089 0.62192 0.03323 0.0
O740 O 0.68459 0.65718 0.92321 0.0
H741 H 0.71379 0.68174 0.99906 0.0
H742 H 0.71703 0.59969 0.98155 0.0
O743 O 0.73149 0.68418 0.92633 0.0
C744 C 0.66459 0.64325 0.93329 0.0
O745 O 0.66738 0.62618 0.96146 0.0
N746 N 0.75729 0.63331 0.91875 0.0
C747 C 0.80003 0.60771 0.88161 0.0
C748 C 0.79892 0.63553 0.88435 0.0
C749 C 0.77751 0.64791 0.9029 0.0
C750 C 0.75892 0.60618 0.91834 0.0
C751 C 0.78018 0.59303 0.90041 0.0
H752 H 0.77616 0.66917 0.90027 0.0
H753 H 0.74228 0.59448 0.92811 0.0
H754 H 0.74568 0.67961 0.85119 0.0
H755 H 0.70649 0.62009 0.78855 0.0
H756 H 0.70354 0.65815 0.0645 0.0
H757 H 0.81374 0.64776 0.87036 0.0
H758 H 0.77983 0.57152 0.8986 0.0
C759 C 0.64181 0.45689 0.11413 0.0
C760 C 0.63936 0.46015 0.07539 0.0
N761 N 0.61684 0.47377 0.0684 0.0
N762 N 0.62084 0.46801 0.13189 0.0
C763 C 0.60578 0.47809 0.10326 0.0
H764 H 0.65878 0.44844 0.12867 0.0
Co765 Co 0.62191 0.47192 0.18472 0.0
C766 C 0.56917 0.4972 0.20674 0.0
O767 O 0.58099 0.51341 0.23072 0.0
N768 N 0.62595 0.47503 0.23953 0.0
C769 C 0.64336 0.49034 0.29425 0.0
C770 C 0.63198 0.49721 0.25971 0.0
C771 C 0.6334 0.45501 0.26352 0.0
N772 N 0.64485 0.46363 0.29642 0.0
O773 O 0.61084 0.43542 0.18891 0.0
H774 H 0.63081 0.5173 0.24878 0.0
H775 H 0.632 0.43429 0.25629 0.0
O776 O 0.5833 0.48131 0.18649 0.0
C777 C 0.62805 0.41693 0.18664 0.0
O778 O 0.65299 0.4228 0.19393 0.0
N779 N 0.63398 0.50724 0.17655 0.0
C780 C 0.65976 0.54834 0.13692 0.0
C781 C 0.63196 0.54668 0.13746 0.0
C782 C 0.61939 0.52615 0.15779 0.0
C783 C 0.66097 0.50955 0.17833 0.0
C784 C 0.67425 0.53018 0.15916 0.0
H785 H 0.5982 0.52407 0.15478 0.0
H786 H 0.67244 0.49396 0.19189 0.0
H787 H 0.58797 0.48965 0.10802 0.0
H788 H 0.65414 0.45468 0.05432 0.0
H789 H 0.65214 0.50414 0.31437 0.0
H790 H 0.62006 0.56032 0.12062 0.0
H791 H 0.69575 0.53065 0.15927 0.0
C792 C 0.20731 0.38777 0.372 0.0
C793 C 0.21259 0.38819 0.33361 0.0
N794 N 0.22996 0.36856 0.32588 0.0
N795 N 0.22094 0.36777 0.38848 0.0
C796 C 0.23441 0.35611 0.35954 0.0
H797 H 0.19582 0.40238 0.38759 0.0
Co798 Co 0.22289 0.36702 0.44102 0.0
C799 C 0.24823 0.31455 0.46119 0.0
O800 O 0.264 0.32641 0.48587 0.0
N801 N 0.22322 0.3685 0.49519 0.0
C802 C 0.21077 0.3612 0.55566 0.0
C803 C 0.21641 0.34953 0.52087 0.0
C804 C 0.22088 0.39154 0.51509 0.0
N805 N 0.21313 0.38772 0.5518 0.0
O806 O 0.18618 0.35596 0.44147 0.0
H807 H 0.21259 0.32893 0.51398 0.0
H808 H 0.22172 0.41094 0.50179 0.0
O809 O 0.2324 0.32864 0.44081 0.0
C810 C 0.16681 0.37107 0.45025 0.0
O811 O 0.17116 0.3909 0.47388 0.0
N812 N 0.25885 0.37946 0.4369 0.0
C813 C 0.30199 0.40486 0.40066 0.0
C814 C 0.30057 0.37707 0.40284 0.0
C815 C 0.27904 0.36477 0.42117 0.0
C816 C 0.2608 0.40661 0.43692 0.0
C817 C 0.28235 0.41968 0.41948 0.0
H818 H 0.27747 0.34355 0.41817 0.0
H819 H 0.24423 0.41842 0.44663 0.0
H820 H 0.24925 0.3408 0.36353 0.0
H821 H 0.20619 0.40332 0.31352 0.0
H822 H 0.20254 0.3512 0.58045 0.0
H823 H 0.31518 0.36487 0.38834 0.0
H824 H 0.28241 0.44121 0.4179 0.0
C825 C 0.37783 0.4562 0.12065 0.0
C826 C 0.37726 0.46226 0.08244 0.0
N827 N 0.39829 0.47785 0.07456 0.0
N828 N 0.39921 0.46764 0.13694 0.0
C829 C 0.41161 0.48053 0.10801 0.0
H830 H 0.36283 0.44521 0.13622 0.0
Co831 Co 0.40048 0.46783 0.18976 0.0
C832 C 0.45283 0.49468 0.20969 0.0
O833 O 0.4408 0.50999 0.23482 0.0
N834 N 0.39868 0.46627 0.24408 0.0
C835 C 0.4051 0.45536 0.30546 0.0
C836 C 0.41731 0.46219 0.27134 0.0
C837 C 0.37546 0.46099 0.26235 0.0
N838 N 0.37872 0.45425 0.29956 0.0
O839 O 0.41273 0.43169 0.18789 0.0
H840 H 0.43845 0.46148 0.26628 0.0
H841 H 0.3566 0.45956 0.24775 0.0
O842 O 0.43892 0.47841 0.18972 0.0
C843 C 0.39774 0.41154 0.19228 0.0
O844 O 0.37647 0.41401 0.21371 0.0
N845 N 0.38721 0.50347 0.18803 0.0
C846 C 0.36033 0.54591 0.15272 0.0
C847 C 0.38808 0.54504 0.15337 0.0
C848 C 0.40115 0.5238 0.17124 0.0
C849 C 0.36012 0.50503 0.18975 0.0
C850 C 0.3463 0.52624 0.17268 0.0
H851 H 0.4222 0.5224 0.16674 0.0
H852 H 0.34882 0.48831 0.20017 0.0
H853 H 0.42871 0.49329 0.11187 0.0
H854 H 0.36199 0.45646 0.06228 0.0
H855 H 0.41501 0.44917 0.3315 0.0
H856 H 0.39959 0.55968 0.13774 0.0
H857 H 0.3248 0.52595 0.17216 0.0
C858 C 0.30737 0.62859 0.86697 0.0
C859 C 0.30147 0.63302 0.82913 0.0
N860 N 0.28477 0.65387 0.82713 0.0
N861 N 0.29487 0.64683 0.8887 0.0
C862 C 0.28101 0.66191 0.86364 0.0
H863 H 0.31938 0.61254 0.87823 0.0
Co864 Co 0.29651 0.64533 0.9415 0.0
C865 C 0.27052 0.69653 0.96733 0.0
O866 O 0.25664 0.68399 0.99365 0.0
N867 N 0.29951 0.64199 0.99556 0.0
C868 C 0.31311 0.64832 0.05574 0.0
C869 C 0.30656 0.66056 0.02166 0.0
C870 C 0.30272 0.61859 0.01446 0.0
N871 N 0.31107 0.62184 0.05103 0.0
O872 O 0.33277 0.65753 0.93797 0.0
H873 H 0.30939 0.68144 0.01554 0.0
H874 H 0.30151 0.5994 1.00068 0.0
O875 O 0.28577 0.6832 0.94513 0.0
C876 C 0.35311 0.64322 0.94485 0.0
O877 O 0.35102 0.62401 0.97018 0.0
N878 N 0.26112 0.63186 0.94133 0.0
C879 C 0.21665 0.60538 0.91087 0.0
C880 C 0.21697 0.63317 0.91459 0.0
C881 C 0.23937 0.64602 0.9295 0.0
C882 C 0.26044 0.60471 0.94009 0.0
C883 C 0.23837 0.59109 0.92544 0.0
H884 H 0.23989 0.66732 0.92714 0.0
H885 H 0.27821 0.59351 0.9463 0.0
H886 H 0.26757 0.67769 0.87193 0.0
H887 H 0.30751 0.62076 0.80516 0.0
H888 H 0.32131 0.65801 0.08077 0.0
H889 H 0.20073 0.64509 0.90365 0.0
H890 H 0.2394 0.56967 0.92241 0.0
C891 C 0.14375 0.55412 0.62747 0.0
C892 C 0.14184 0.54935 0.58896 0.0
N893 N 0.12026 0.53415 0.58283 0.0
N894 N 0.12334 0.5423 0.64575 0.0
C895 C 0.10907 0.53049 0.61768 0.0
H896 H 0.16003 0.56412 0.64158 0.0
Co897 Co 0.12415 0.53892 0.69867 0.0
C898 C 0.07144 0.51378 0.72062 0.0
O899 O 0.08255 0.49868 0.74675 0.0
N900 N 0.12762 0.53621 0.75338 0.0
C901 C 0.1441 0.52128 0.80886 0.0
C902 C 0.13355 0.51417 0.77397 0.0
C903 C 0.13433 0.55641 0.77737 0.0
N904 N 0.14516 0.54802 0.81081 0.0
O905 O 0.11224 0.57519 0.70199 0.0
H906 H 0.1328 0.49402 0.76324 0.0
H907 H 0.13289 0.57707 0.76977 0.0
O908 O 0.086 0.52888 0.6998 0.0
C909 C 0.12884 0.59424 0.69987 0.0
O910 O 0.15392 0.58923 0.7074 0.0
N911 N 0.13691 0.50384 0.69159 0.0
C912 C 0.16308 0.46201 0.65468 0.0
C913 C 0.13528 0.46291 0.65602 0.0
C914 C 0.12251 0.48386 0.67497 0.0
C915 C 0.16396 0.5023 0.69271 0.0
C916 C 0.17748 0.48134 0.67476 0.0
H917 H 0.10123 0.48523 0.67259 0.0
H918 H 0.17519 0.51863 0.70473 0.0
H919 H 0.09225 0.51761 0.62292 0.0
H920 H 0.15601 0.55549 0.56735 0.0
H921 H 0.15268 0.50766 0.82944 0.0
H922 H 0.12354 0.44837 0.64061 0.0
H923 H 0.19898 0.48143 0.67402 0.0
C924 C 0.2018 0.63306 0.65098 0.0
C925 C 0.20777 0.63591 0.68906 0.0
N926 N 0.22376 0.65717 0.6929 0.0
N927 N 0.21355 0.65269 0.6309 0.0
C928 C 0.22707 0.66703 0.65719 0.0
H929 H 0.19034 0.61712 0.63834 0.0
Co930 Co 0.21169 0.65244 0.57812 0.0
C931 C 0.23939 0.70232 0.55233 0.0
O932 O 0.25214 0.6885 0.52618 0.0
N933 N 0.20808 0.65029 0.52395 0.0
C934 C 0.19024 0.65902 0.46682 0.0
C935 C 0.19944 0.66985 0.50047 0.0
C936 C 0.20352 0.62765 0.50368 0.0
N937 N 0.19228 0.63234 0.46898 0.0
O938 O 0.17578 0.66555 0.58233 0.0
H939 H 0.19706 0.69045 0.50864 0.0
H940 H 0.20507 0.608 0.51606 0.0
O941 O 0.22369 0.6902 0.57542 0.0
C942 C 0.1552 0.65136 0.57643 0.0
O943 O 0.15621 0.63309 0.54961 0.0
N944 N 0.24683 0.63801 0.57783 0.0
C945 C 0.28913 0.61012 0.61232 0.0
C946 C 0.28956 0.63794 0.60932 0.0
C947 C 0.26833 0.65148 0.59215 0.0
C948 C 0.24702 0.61083 0.57808 0.0
C949 C 0.26802 0.59652 0.59477 0.0
H950 H 0.26816 0.67276 0.59507 0.0
H951 H 0.22941 0.60008 0.56967 0.0
H952 H 0.24011 0.68345 0.65024 0.0
H953 H 0.20235 0.62232 0.71184 0.0
H954 H 0.18093 0.66999 0.44377 0.0
H955 H 0.30541 0.64935 0.62235 0.0
H956 H 0.26651 0.57508 0.59687 0.0
C957 C 0.07258 0.46857 0.39074 0.0
C958 C 0.07119 0.4741 0.42925 0.0
N959 N 0.09446 0.48493 0.44022 0.0
N960 N 0.09659 0.47593 0.37729 0.0
C961 C 0.10962 0.48535 0.40823 0.0
H962 H 0.05698 0.45985 0.37366 0.0
Co963 Co 0.10828 0.47533 0.32645 0.0
C964 C 0.05761 0.4994 0.29092 0.0
O965 O 0.06985 0.5197 0.27517 0.0
N966 N 0.12085 0.47432 0.27392 0.0
C967 C 0.13754 0.48859 0.21813 0.0
C968 C 0.12317 0.49549 0.25014 0.0
C969 C 0.13382 0.45454 0.25469 0.0
N970 N 0.14434 0.46283 0.22093 0.0
O971 O 0.10112 0.4379 0.32616 0.0
H972 H 0.11679 0.51546 0.25669 0.0
H973 H 0.13709 0.43481 0.26599 0.0
O974 O 0.07103 0.48226 0.30993 0.0
C975 C 0.12184 0.42586 0.33792 0.0
O976 O 0.1441 0.43943 0.33982 0.0
N977 N 0.11807 0.51163 0.3314 0.0
C978 C 0.14222 0.55478 0.36893 0.0
C979 C 0.11436 0.55286 0.36625 0.0
C980 C 0.10263 0.531 0.34756 0.0
C981 C 0.14505 0.51427 0.33135 0.0
C982 C 0.15746 0.53566 0.34962 0.0
H983 H 0.08144 0.52816 0.3501 0.0
H984 H 0.15723 0.4983 0.32026 0.0
H985 H 0.1294 0.49363 0.4067 0.0
H986 H 0.05421 0.47055 0.44754 0.0
H987 H 0.14352 0.50187 0.19526 0.0
H988 H 0.10172 0.56689 0.38112 0.0
H989 H 0.17894 0.53639 0.35034 0.0
C990 C 0.31347 0.38879 0.14249 0.0
C991 C 0.31048 0.38931 0.18139 0.0
N992 N 0.2932 0.37006 0.19138 0.0
N993 N 0.29864 0.36898 0.12783 0.0
C994 C 0.28674 0.35758 0.15839 0.0
H995 H 0.3247 0.40288 0.12556 0.0
Co996 Co 0.29519 0.36706 0.0754 0.0
C997 C 0.26762 0.3151 0.05958 0.0
O998 O 0.25145 0.32697 0.03544 0.0
N999 N 0.2939 0.36736 0.0212 0.0
C1000 C 0.30792 0.35743 0.9623 0.0
C1001 C 0.30008 0.34725 0.99711 0.0
C1002 C 0.29858 0.3896 1.00012 0.0
N1003 N 0.30754 0.38419 0.96432 0.0
O1004 O 0.33125 0.35471 0.07331 0.0
H1005 H 0.30231 0.32666 0.00534 0.0
H1006 H 0.29913 0.40929 0.01253 0.0
O1007 O 0.28465 0.32905 0.07803 0.0
C1008 C 0.3511 0.36975 0.06697 0.0
O1009 O 0.3474 0.39146 0.04668 0.0
N1010 N 0.25947 0.38035 0.08094 0.0
C1011 C 0.21748 0.40744 0.1187 0.0
C1012 C 0.21937 0.37953 0.11919 0.0
C1013 C 0.24017 0.36649 0.10015 0.0
C1014 C 0.25706 0.40732 0.07784 0.0
C1015 C 0.23614 0.42112 0.09579 0.0
H1016 H 0.24205 0.34549 0.10528 0.0
H1017 H 0.27275 0.41867 0.06452 0.0
H1018 H 0.27193 0.34207 0.15629 0.0
H1019 H 0.31902 0.40393 0.20053 0.0
H1020 H 0.31553 0.34592 0.93853 0.0
H1021 H 0.20622 0.36759 0.13664 0.0
H1022 H 0.2356 0.44254 0.09309 0.0
C1023 C 0.43566 0.54188 0.87694 0.0
C1024 C 0.43912 0.53663 0.91521 0.0
N1025 N 0.41626 0.52662 0.9292 0.0
N1026 N 0.41071 0.53527 0.86657 0.0
C1027 C 0.39926 0.52643 0.89916 0.0
H1028 H 0.45049 0.55 0.8579 0.0
Co1029 Co 0.39688 0.53631 0.81685 0.0
C1030 C 0.44472 0.50874 0.77837 0.0
O1031 O 0.43157 0.48843 0.7643 0.0
N1032 N 0.38264 0.53775 0.76557 0.0
C1033 C 0.3655 0.52482 0.70961 0.0
C1034 C 0.37921 0.5169 0.74169 0.0
C1035 C 0.37076 0.55827 0.74666 0.0
N1036 N 0.35994 0.55097 0.71258 0.0
O1037 O 0.40679 0.57312 0.81496 0.0
H1038 H 0.38467 0.49661 0.74801 0.0
H1039 H 0.36947 0.57818 0.75794 0.0
O1040 O 0.43241 0.5266 0.79746 0.0
C1041 C 0.38767 0.58715 0.82773 0.0
O1042 O 0.36438 0.57566 0.83175 0.0
N1043 N 0.38475 0.50089 0.82328 0.0
C1044 C 0.35897 0.45902 0.86151 0.0
C1045 C 0.3868 0.4592 0.85728 0.0
C1046 C 0.39937 0.48045 0.83826 0.0
C1047 C 0.3577 0.50004 0.82485 0.0
C1048 C 0.34446 0.4793 0.84348 0.0
H1049 H 0.42076 0.48188 0.83949 0.0
H1050 H 0.34628 0.51683 0.8146 0.0
H1051 H 0.37922 0.51872 0.90021 0.0
H1052 H 0.45721 0.5398 0.93126 0.0
H1053 H 0.35896 0.51176 0.6869 0.0
H1054 H 0.3989 0.44423 0.87118 0.0
H1055 H 0.32301 0.47993 0.84544 0.0
C1056 C 0.17885 0.05174 0.15812 0.0
C1057 C 0.16915 0.0632 0.19223 0.0
H1058 H 0.2035 0.05607 0.10838 0.0
C1059 C 0.17766 0.08908 0.20161 0.0
H1060 H 0.17313 0.0318 0.14993 0.0
C1061 C 0.19531 0.10298 0.17774 0.0
C1062 C 0.20506 0.09146 0.14372 0.0
H1063 H 0.1706 0.09877 0.22733 0.0
H1064 H 0.20173 0.12262 0.18648 0.0
C1065 C 0.19654 0.06562 0.1343 0.0
C1066 C 0.16473 0.91334 0.39969 0.0
C1067 C 0.17453 0.93707 0.38315 0.0
H1068 H 0.17205 0.8806 0.43826 0.0
C1069 C 0.20051 0.94503 0.39318 0.0
H1070 H 0.14505 0.90615 0.39281 0.0
C1071 C 0.21608 0.92994 0.41822 0.0
C1072 C 0.20613 0.90665 0.43509 0.0
H1073 H 0.20884 0.96353 0.38288 0.0
H1074 H 0.23567 0.93715 0.42559 0.0
C1075 C 0.18023 0.8985 0.42565 0.0
C1076 C 0.34217 0.90105 0.67795 0.0
C1077 C 0.33742 0.91132 0.64101 0.0
H1078 H 0.36005 0.90716 0.73295 0.0
C1079 C 0.35048 0.93496 0.63029 0.0
H1080 H 0.33223 0.88313 0.68753 0.0
C1081 C 0.36638 0.94882 0.65649 0.0
C1082 C 0.36981 0.93944 0.69414 0.0
H1083 H 0.34769 0.94327 0.60195 0.0
H1084 H 0.37535 0.96741 0.64764 0.0
C1085 C 0.35817 0.9149 0.70415 0.0
C1086 C 0.32935 0.06137 0.92532 0.0
C1087 C 0.34996 0.06767 0.89954 0.0
H1088 H 0.30241 0.07531 0.96845 0.0
C1089 C 0.35848 0.09428 0.89734 0.0
H1090 H 0.32246 0.04106 0.92828 0.0
C1091 C 0.3471 0.1139 0.92067 0.0
C1092 C 0.32688 0.10752 0.94708 0.0
H1093 H 0.37413 0.09996 0.87769 0.0
H1094 H 0.3548 0.13393 0.91864 0.0
C1095 C 0.31801 0.081 0.94876 0.0
C1096 C 0.2048 0.94194 0.85072 0.0
C1097 C 0.19851 0.91667 0.86592 0.0
H1098 H 0.19288 0.97463 0.8152 0.0
C1099 C 0.17408 0.90511 0.85494 0.0
H1100 H 0.2236 0.95141 0.85686 0.0
C1101 C 0.15677 0.91832 0.82964 0.0
C1102 C 0.16308 0.94368 0.81536 0.0
H1103 H 0.16809 0.88593 0.86604 0.0
H1104 H 0.13819 0.90896 0.82178 0.0
C1105 C 0.18724 0.95532 0.82631 0.0
C1106 C 0.30263 0.90943 0.11669 0.0
C1107 C 0.31438 0.90245 0.08145 0.0
H1108 H 0.30547 0.93232 0.16842 0.0
C1109 C 0.33985 0.91259 0.07321 0.0
H1110 H 0.28329 0.90179 0.12448 0.0
C1111 C 0.35265 0.92993 0.09862 0.0
C1112 C 0.34037 0.93778 0.13301 0.0
H1113 H 0.34958 0.90822 0.04633 0.0
H1114 H 0.37169 0.93818 0.09037 0.0
C1115 C 0.31538 0.92695 0.142 0.0
C1116 C 0.32167 0.06741 0.39763 0.0
C1117 C 0.31213 0.0927 0.38717 0.0
H1118 H 0.34562 0.03382 0.38247 0.0
C1119 C 0.32093 0.10377 0.35234 0.0
H1120 H 0.31553 0.05837 0.42437 0.0
C1121 C 0.33798 0.0896 0.32804 0.0
C1122 C 0.34692 0.0639 0.33783 0.0
H1123 H 0.31367 0.12297 0.34291 0.0
H1124 H 0.34314 0.09851 0.30085 0.0
C1125 C 0.33893 0.05329 0.37344 0.0
C1126 C 0.18074 0.05788 0.59287 0.0
C1127 C 0.15872 0.06321 0.61659 0.0
H1128 H 0.20953 0.07324 0.55334 0.0
C1129 C 0.14933 0.08954 0.61851 0.0
H1130 H 0.18837 0.03783 0.59015 0.0
C1131 C 0.16143 0.10987 0.59714 0.0
C1132 C 0.18322 0.10447 0.57299 0.0
H1133 H 0.13258 0.0945 0.63661 0.0
H1134 H 0.15318 0.1297 0.59891 0.0
C1135 C 0.19277 0.07818 0.57139 0.0
C1136 C 0.85243 0.92934 0.83956 0.0
C1137 C 0.84631 0.95543 0.82811 0.0
H1138 H 0.84071 0.89501 0.87169 0.0
C1139 C 0.82248 0.96682 0.84127 0.0
H1140 H 0.87071 0.92009 0.83014 0.0
C1141 C 0.80485 0.9523 0.86426 0.0
C1142 C 0.81062 0.92597 0.87548 0.0
H1143 H 0.81687 0.9867 0.83245 0.0
H1144 H 0.7862 0.96156 0.87192 0.0
C1145 C 0.83502 0.91493 0.86326 0.0
C1146 C 0.84372 0.10096 0.56085 0.0
C1147 C 0.8186 0.11161 0.56987 0.0
H1148 H 0.87582 0.07569 0.57822 0.0
C1149 C 0.80818 0.10675 0.60664 0.0
H1150 H 0.85235 0.10386 0.53278 0.0
C1151 C 0.82168 0.09043 0.63276 0.0
C1152 C 0.84607 0.07862 0.62293 0.0
H1153 H 0.78915 0.11495 0.6149 0.0
H1154 H 0.81264 0.08647 0.66033 0.0
C1155 C 0.85727 0.08471 0.58703 0.0
C1156 C 0.68564 0.06656 0.3738 0.0
C1157 C 0.69435 0.09214 0.36331 0.0
H1158 H 0.66198 0.03272 0.35977 0.0
C1159 C 0.68406 0.10351 0.32954 0.0
H1160 H 0.69293 0.05721 0.3997 0.0
C1161 C 0.66596 0.08949 0.3066 0.0
C1162 C 0.6576 0.06366 0.31675 0.0
H1163 H 0.69054 0.12301 0.32019 0.0
H1164 H 0.6586 0.09895 0.28087 0.0
C1165 C 0.6676 0.05255 0.35091 0.0
C1166 C 0.70143 0.92355 0.09282 0.0
C1167 C 0.69023 0.90104 0.07536 0.0
H1168 H 0.69582 0.95728 0.12868 0.0
C1169 C 0.66372 0.8946 0.08394 0.0
H1170 H 0.7216 0.92942 0.08621 0.0
C1171 C 0.64885 0.91024 0.10963 0.0
C1172 C 0.6599 0.93316 0.12682 0.0
H1173 H 0.65458 0.87731 0.07098 0.0
H1174 H 0.62868 0.90424 0.11588 0.0
C1175 C 0.68649 0.93948 0.11768 0.0
C1176 C 0.83764 0.07297 0.12588 0.0
C1177 C 0.82056 0.09308 0.13921 0.0
H1178 H 0.86906 0.04559 0.13967 0.0
C1179 C 0.82177 0.10033 0.17809 0.0
H1180 H 0.83708 0.06692 0.09612 0.0
C1181 C 0.83954 0.08769 0.20311 0.0
C1182 C 0.85691 0.06785 0.18969 0.0
H1183 H 0.80864 0.11553 0.18931 0.0
H1184 H 0.84008 0.09384 0.23281 0.0
C1185 C 0.85588 0.06077 0.15074 0.0
C1186 C 0.66282 0.10137 0.88113 0.0
C1187 C 0.67396 0.07893 0.86278 0.0
H1188 H 0.66762 0.13206 0.92355 0.0
C1189 C 0.70013 0.07174 0.87265 0.0
H1190 H 0.64295 0.10797 0.87416 0.0
C1191 C 0.71433 0.08589 0.90042 0.0
C1192 C 0.70281 0.10755 0.91979 0.0
H1193 H 0.70942 0.05431 0.86037 0.0
H1194 H 0.734 0.07899 0.90798 0.0
C1195 C 0.67696 0.11531 0.90948 0.0
C1196 C 0.67835 0.95001 0.67356 0.0
C1197 C 0.65184 0.94167 0.67727 0.0
H1198 H 0.7165 0.94292 0.64893 0.0
C1199 C 0.64355 0.91917 0.65628 0.0
H1200 H 0.68549 0.96724 0.68899 0.0
C1201 C 0.66137 0.90528 0.63268 0.0
C1202 C 0.68793 0.91358 0.62922 0.0
H1203 H 0.62345 0.9118 0.65867 0.0
H1204 H 0.65432 0.88804 0.61711 0.0
C1205 C 0.6961 0.93616 0.65005 0.0
C1206 C 0.80484 0.93596 0.42716 0.0
C1207 C 0.81646 0.91201 0.43928 0.0
H1208 H 0.80911 0.97216 0.39611 0.0
C1209 C 0.84206 0.90571 0.42635 0.0
H1210 H 0.78521 0.9414 0.4371 0.0
C1211 C 0.85562 0.9229 0.40124 0.0
C1212 C 0.84421 0.94727 0.38929 0.0
H1213 H 0.8513 0.88722 0.43504 0.0
H1214 H 0.87499 0.91683 0.39114 0.0
C1215 C 0.81859 0.95347 0.40306 0.0
C1216 C 0.65552 0.58612 0.66588 0.0
C1217 C 0.6622 0.56054 0.67886 0.0
H1218 H 0.66555 0.61893 0.62954 0.0
C1219 C 0.68582 0.54895 0.66553 0.0
H1220 H 0.6373 0.59542 0.67545 0.0
C1221 C 0.70254 0.56259 0.64017 0.0
C1222 C 0.6959 0.58814 0.62625 0.0
H1223 H 0.69165 0.52938 0.67546 0.0
H1224 H 0.721 0.55308 0.63231 0.0
C1225 C 0.67193 0.5996 0.63956 0.0
C1226 C 0.67945 0.44 0.90069 0.0
C1227 C 0.65787 0.43269 0.87723 0.0
H1228 H 0.70804 0.42794 0.94273 0.0
C1229 C 0.64876 0.40627 0.87901 0.0
H1230 H 0.68674 0.46027 0.90075 0.0
C1231 C 0.66096 0.38769 0.90339 0.0
C1232 C 0.68249 0.39507 0.92697 0.0
H1233 H 0.63222 0.3999 0.86143 0.0
H1234 H 0.65307 0.36769 0.9043 0.0
C1235 C 0.69154 0.4215 0.92516 0.0
C1236 C 0.82385 0.45786 0.15141 0.0
C1237 C 0.8482 0.44677 0.16289 0.0
H1238 H 0.78715 0.45262 0.1222 0.0
C1239 C 0.85467 0.42113 0.14992 0.0
H1240 H 0.81795 0.47733 0.16157 0.0
C1241 C 0.83718 0.40695 0.12596 0.0
C1242 C 0.81235 0.41776 0.11509 0.0
H1243 H 0.87332 0.4121 0.15823 0.0
H1244 H 0.84322 0.38745 0.11621 0.0
C1245 C 0.80615 0.44355 0.12834 0.0
C1246 C 0.83335 0.61245 0.39227 0.0
C1247 C 0.81317 0.60504 0.41817 0.0
H1248 H 0.86047 0.60019 0.34836 0.0
C1249 C 0.80444 0.57846 0.41798 0.0
H1250 H 0.84098 0.63256 0.39176 0.0
C1251 C 0.81581 0.55978 0.39302 0.0
C1252 C 0.83637 0.56712 0.36771 0.0
H1253 H 0.78891 0.57205 0.43735 0.0
H1254 H 0.80903 0.53935 0.39441 0.0
C1255 C 0.84481 0.59377 0.36752 0.0
C1256 C 0.67032 0.42272 0.31357 0.0
C1257 C 0.66071 0.44817 0.32339 0.0
H1258 H 0.69525 0.38982 0.3283 0.0
C1259 C 0.66864 0.45891 0.35895 0.0
H1260 H 0.66538 0.41369 0.28641 0.0
C1261 C 0.68618 0.44505 0.3832 0.0
C1262 C 0.69614 0.41988 0.37287 0.0
H1263 H 0.66157 0.47824 0.36797 0.0
H1264 H 0.69204 0.45413 0.41002 0.0
C1265 C 0.68766 0.40886 0.33785 0.0
C1266 C 0.83353 0.42292 0.62443 0.0
C1267 C 0.85677 0.43568 0.61138 0.0
H1268 H 0.80155 0.396 0.61107 0.0
C1269 C 0.86537 0.43052 0.57371 0.0
H1270 H 0.82644 0.42614 0.65334 0.0
C1271 C 0.8506 0.41408 0.54932 0.0
C1272 C 0.82731 0.40168 0.56233 0.0
H1273 H 0.88324 0.43964 0.56265 0.0
H1274 H 0.85756 0.41069 0.5204 0.0
C1275 C 0.8192 0.40579 0.60031 0.0
C1276 C 0.84328 0.59061 0.79487 0.0
C1277 C 0.85553 0.56661 0.80618 0.0
H1278 H 0.81645 0.62219 0.80942 0.0
C1279 C 0.85025 0.55717 0.84357 0.0
H1280 H 0.8464 0.59868 0.76652 0.0
C1281 C 0.8327 0.57062 0.8681 0.0
C1282 C 0.82014 0.59425 0.85646 0.0
H1283 H 0.85948 0.5392 0.85413 0.0
H1284 H 0.82895 0.56248 0.89632 0.0
C1285 C 0.82598 0.60423 0.81966 0.0
C1286 C 0.66798 0.56638 0.07083 0.0
C1287 C 0.67354 0.56706 0.11032 0.0
H1288 H 0.676 0.58284 0.01525 0.0
C1289 C 0.69256 0.58529 0.12376 0.0
H1290 H 0.65361 0.55236 0.05961 0.0
C1291 C 0.70509 0.60302 0.09838 0.0
C1292 C 0.69951 0.60235 0.05888 0.0
H1293 H 0.69729 0.58618 0.15399 0.0
H1294 H 0.71915 0.61735 0.10954 0.0
C1295 C 0.68101 0.58361 0.04538 0.0
C1296 C 0.34086 0.42369 0.31106 0.0
C1297 C 0.35911 0.44257 0.32491 0.0
H1298 H 0.30916 0.39663 0.32434 0.0
C1299 C 0.35842 0.44909 0.36411 0.0
H1300 H 0.34105 0.41799 0.28116 0.0
C1301 C 0.33968 0.43726 0.38877 0.0
C1302 C 0.32183 0.41799 0.37496 0.0
H1303 H 0.37224 0.46355 0.37554 0.0
H1304 H 0.33942 0.44282 0.41873 0.0
C1305 C 0.32272 0.41133 0.33584 0.0
C1306 C 0.33041 0.58545 0.14141 0.0
C1307 C 0.34641 0.56491 0.12687 0.0
H1308 H 0.30674 0.61995 0.12837 0.0
C1309 C 0.34956 0.56266 0.08699 0.0
H1310 H 0.32766 0.58757 0.17203 0.0
C1311 C 0.33719 0.58071 0.06209 0.0
C1312 C 0.32176 0.60178 0.07653 0.0
H1313 H 0.36175 0.54694 0.07507 0.0
H1314 H 0.34045 0.57872 0.03158 0.0
C1315 C 0.31849 0.60391 0.11648 0.0
C1316 C 0.18556 0.56677 0.89802 0.0
C1317 C 0.19576 0.59178 0.88746 0.0
H1318 H 0.16086 0.53371 0.88287 0.0
C1319 C 0.18737 0.60294 0.85252 0.0
H1320 H 0.19139 0.55766 0.92486 0.0
C1321 C 0.17007 0.58914 0.8282 0.0
C1322 C 0.16045 0.56368 0.83805 0.0
H1323 H 0.19515 0.62192 0.84297 0.0
H1324 H 0.1653 0.59815 0.80094 0.0
C1325 C 0.16804 0.553 0.8738 0.0
C1326 C 0.17293 0.44527 0.58879 0.0
C1327 C 0.17678 0.44315 0.62853 0.0
H1328 H 0.18191 0.42964 0.53318 0.0
C1329 C 0.19374 0.42323 0.64264 0.0
H1330 H 0.16006 0.46059 0.57721 0.0
C1331 C 0.20598 0.40523 0.61741 0.0
C1332 C 0.2021 0.40732 0.5776 0.0
H1333 H 0.19707 0.42128 0.67316 0.0
H1334 H 0.21848 0.38962 0.62892 0.0
C1335 C 0.18564 0.42774 0.56359 0.0
C1336 C 0.33702 0.5571 0.64968 0.0
C1337 C 0.34361 0.5667 0.68651 0.0
H1338 H 0.31501 0.56302 0.59767 0.0
C1339 C 0.33296 0.59147 0.69766 0.0
H1340 H 0.34501 0.53849 0.63932 0.0
C1341 C 0.31597 0.60575 0.67323 0.0
C1342 C 0.30888 0.59572 0.63696 0.0
H1343 H 0.33707 0.59967 0.72564 0.0
H1344 H 0.30767 0.62432 0.68338 0.0
C1345 C 0.31979 0.57126 0.62549 0.0
C1346 C 0.18933 0.58669 0.44164 0.0
C1347 C 0.18013 0.61308 0.44331 0.0
H1348 H 0.1847 0.5478 0.41738 0.0
C1349 C 0.15829 0.62012 0.42006 0.0
H1350 H 0.20602 0.58047 0.459 0.0
C1351 C 0.14606 0.60139 0.396 0.0
C1352 C 0.15538 0.57507 0.39415 0.0
H1353 H 0.15018 0.64004 0.42087 0.0
H1354 H 0.12936 0.60762 0.37863 0.0
C1355 C 0.17721 0.568 0.41739 0.0
C1356 C 0.1855 0.46129 0.18204 0.0
C1357 C 0.16241 0.44874 0.19569 0.0
H1358 H 0.22103 0.45839 0.1491 0.0
C1359 C 0.15711 0.42268 0.18345 0.0
H1360 H 0.19031 0.48127 0.19129 0.0
C1361 C 0.17431 0.40965 0.15771 0.0
C1362 C 0.19783 0.42199 0.14424 0.0
H1363 H 0.13932 0.41262 0.19314 0.0
H1364 H 0.16885 0.3899 0.14829 0.0
C1365 C 0.20305 0.44808 0.15724 0.0
C1366 C 0.31215 0.42958 0.93668 0.0
C1367 C 0.31978 0.40268 0.93758 0.0
H1368 H 0.31844 0.46826 0.91249 0.0
C1369 C 0.34033 0.3944 0.91279 0.0
H1370 H 0.29648 0.43671 0.95524 0.0
C1371 C 0.35293 0.41249 0.88809 0.0
C1372 C 0.34525 0.43937 0.88715 0.0
H1373 H 0.34719 0.37401 0.91295 0.0
H1374 H 0.36865 0.40537 0.86958 0.0
C1375 C 0.32464 0.44763 0.91181 0.0
C1376 C 0.26974 0.16307 0.29868 0.0
C1377 C 0.24202 0.16215 0.29499 0.0
H1378 H 0.30715 0.16158 0.26932 0.0
C1379 C 0.23053 0.16322 0.25841 0.0
H1380 H 0.27895 0.16183 0.32666 0.0
C1381 C 0.24658 0.16362 0.22583 0.0
C1382 C 0.2743 0.1623 0.22948 0.0
H1383 H 0.20917 0.1623 0.25514 0.0
H1384 H 0.23734 0.1628 0.19785 0.0
C1385 C 0.28579 0.16282 0.26608 0.0
C1386 C 0.06985 0.99345 0.48058 0.0
C1387 C 0.09428 1.00322 0.46715 0.0
H1388 H 0.04893 0.97314 0.52462 0.0
C1389 C 0.11747 0.99737 0.48781 0.0
H1390 H 0.05169 0.99692 0.46478 0.0
C1391 C 0.11595 0.98316 0.52234 0.0
C1392 C 0.09123 0.97441 0.53656 0.0
H1393 H 0.13657 1.00444 0.47786 0.0
H1394 H 0.13405 0.9794 0.53813 0.0
C1395 C 0.06833 0.9793 0.51474 0.0
C1396 C 0.28039 0.84498 0.72231 0.0
C1397 C 0.25259 0.84668 0.723 0.0
H1398 H 0.3161 0.84508 0.75582 0.0
C1399 C 0.23914 0.84419 0.75799 0.0
H1400 H 0.29109 0.84733 0.69561 0.0
C1401 C 0.25335 0.84241 0.79221 0.0
C1402 C 0.28121 0.84376 0.79186 0.0
H1403 H 0.21771 0.84581 0.75895 0.0
H1404 H 0.24256 0.84279 0.81904 0.0
C1405 C 0.29464 0.84381 0.75661 0.0
C1406 C 0.41865 0.01644 0.9844 0.0
C1407 C 0.41795 0.98853 0.98564 0.0
H1408 H 0.41546 0.05266 0.01657 0.0
C1409 C 0.41789 0.97566 0.02138 0.0
H1410 H 0.41828 0.02681 0.9572 0.0
C1411 C 0.41654 0.9904 0.05525 0.0
C1412 C 0.41477 0.01827 0.05385 0.0
H1413 H 0.41717 0.95414 0.02289 0.0
H1414 H 0.41461 0.97994 0.08224 0.0
C1415 C 0.41685 0.03119 0.01826 0.0
C1416 C 0.76693 0.83446 0.75106 0.0
C1417 C 0.75779 0.84638 0.71707 0.0
H1418 H 0.76125 0.82953 0.81146 0.0
C1419 C 0.73408 0.86103 0.71784 0.0
H1420 H 0.78518 0.82309 0.75125 0.0
C1421 C 0.72017 0.86431 0.75205 0.0
C1422 C 0.72976 0.85325 0.78638 0.0
H1423 H 0.72616 0.86985 0.69194 0.0
H1424 H 0.70206 0.87593 0.75181 0.0
C1425 C 0.75309 0.83792 0.78544 0.0
C1426 C 0.91733 0.03813 0.50957 0.0
C1427 C 0.91787 0.02465 0.47433 0.0
H1428 H 0.91412 0.03467 0.57064 0.0
C1429 C 0.91967 0.99677 0.47416 0.0
H1430 H 0.91574 0.05961 0.51027 0.0
C1431 C 0.91832 0.98255 0.50854 0.0
C1432 C 0.91574 0.99599 0.5436 0.0
H1433 H 0.91967 0.98594 0.44735 0.0
H1434 H 0.91749 0.96103 0.50769 0.0
C1435 C 0.91654 0.02391 0.544 0.0
C1436 C 0.78206 0.16459 0.24413 0.0
C1437 C 0.77035 0.1619 0.28039 0.0
H1438 H 0.77616 0.16382 0.18344 0.0
C1439 C 0.74262 0.15971 0.28326 0.0
H1440 H 0.80344 0.16603 0.24142 0.0
C1441 C 0.72709 0.15794 0.25021 0.0
C1442 C 0.739 0.15894 0.21389 0.0
H1443 H 0.73323 0.15715 0.31093 0.0
H1444 H 0.70598 0.15426 0.25288 0.0
C1445 C 0.76647 0.16343 0.21111 0.0
C1446 C 0.5962 0.01527 0.96817 0.0
C1447 C 0.61805 0.99834 0.96321 0.0
H1448 H 0.57172 0.03635 0.00778 0.0
C1449 C 0.63153 0.98861 0.99549 0.0
H1450 H 0.58577 0.02335 0.94366 0.0
C1451 C 0.62346 0.99588 0.03218 0.0
C1452 C 0.60185 0.0132 0.03725 0.0
H1453 H 0.64823 0.97522 0.99232 0.0
H1454 H 0.63399 0.98771 0.05651 0.0
C1455 C 0.58822 0.02273 0.00487 0.0
C1456 C 0.7854 0.65956 0.74183 0.0
C1457 C 0.77237 0.6594 0.70631 0.0
H1458 H 0.78105 0.65912 0.8029 0.0
C1459 C 0.74463 0.66209 0.70511 0.0
H1460 H 0.80677 0.65732 0.74322 0.0
C1461 C 0.72998 0.66254 0.73902 0.0
C1462 C 0.74291 0.66099 0.77451 0.0
H1463 H 0.73418 0.6616 0.67801 0.0
H1464 H 0.7085 0.6625 0.73765 0.0
C1465 C 0.77077 0.66071 0.77576 0.0
C1466 C 0.61428 0.486 0.96246 0.0
C1467 C 0.59998 0.50992 0.96048 0.0
H1468 H 0.62977 0.45515 0.99804 0.0
C1469 C 0.58993 0.52106 0.99443 0.0
H1470 H 0.62169 0.47661 0.93668 0.0
C1471 C 0.59476 0.50889 0.02984 0.0
C1472 C 0.60949 0.48515 0.03192 0.0
H1473 H 0.57888 0.53953 0.99363 0.0
H1474 H 0.58763 0.51854 0.05555 0.0
C1475 C 0.6188 0.47367 0.99768 0.0
C1476 C 0.7404 0.35085 0.28231 0.0
C1477 C 0.76824 0.35083 0.2806 0.0
H1478 H 0.70412 0.35288 0.25021 0.0
C1479 C 0.78091 0.34865 0.24495 0.0
H1480 H 0.73032 0.35292 0.30955 0.0
C1481 C 0.76599 0.34801 0.21126 0.0
C1482 C 0.73824 0.35023 0.21282 0.0
H1483 H 0.80239 0.34885 0.24321 0.0
H1484 H 0.77618 0.34793 0.18393 0.0
C1485 C 0.7255 0.3509 0.24857 0.0
C1486 C 0.8939 0.4919 0.52166 0.0
C1487 C 0.91138 0.51358 0.52284 0.0
H1488 H 0.87556 0.46178 0.48816 0.0
C1489 C 0.92334 0.5221 0.48855 0.0
H1490 H 0.88459 0.48471 0.54755 0.0
C1491 C 0.9177 0.5093 0.45381 0.0
C1492 C 0.90021 0.48744 0.45266 0.0
H1493 H 0.93679 0.5389 0.48848 0.0
H1494 H 0.92677 0.5169 0.42795 0.0
C1495 C 0.88867 0.47879 0.48728 0.0
C1496 C 0.27419 0.39222 0.2477 0.0
C1497 C 0.27892 0.36874 0.22699 0.0
H1498 H 0.25492 0.41032 0.2954 0.0
C1499 C 0.26798 0.34467 0.24025 0.0
H1500 H 0.2819 0.41118 0.23811 0.0
C1501 C 0.25231 0.34428 0.27346 0.0
C1502 C 0.247 0.36804 0.29307 0.0
H1503 H 0.2714 0.32632 0.22479 0.0
H1504 H 0.24376 0.32572 0.28327 0.0
C1505 C 0.25838 0.39186 0.28022 0.0
C1506 C 0.38588 0.51186 0.98071 0.0
C1507 C 0.41182 0.51586 0.96705 0.0
H1508 H 0.3613 0.49694 0.02577 0.0
C1509 C 0.43333 0.50823 0.9905 0.0
H1510 H 0.36882 0.51798 0.96407 0.0
C1511 C 0.42895 0.49633 0.02618 0.0
C1512 C 0.40302 0.49152 0.03899 0.0
H1513 H 0.4536 0.51069 0.98099 0.0
H1514 H 0.4458 0.4901 0.04323 0.0
C1515 C 0.38154 0.49976 0.01615 0.0
C1516 C 0.22656 0.66273 0.76265 0.0
C1517 C 0.23896 0.66295 0.72662 0.0
H1518 H 0.23179 0.66032 0.82351 0.0
C1519 C 0.26676 0.66415 0.72456 0.0
H1520 H 0.20514 0.66157 0.76471 0.0
C1521 C 0.28196 0.66283 0.758 0.0
C1522 C 0.26955 0.66101 0.79394 0.0
H1523 H 0.27668 0.66395 0.69704 0.0
H1524 H 0.30339 0.66185 0.75581 0.0
C1525 C 0.24175 0.6621 0.79612 0.0
C1526 C 0.08077 0.50343 0.50319 0.0
C1527 C 0.10092 0.49611 0.47719 0.0
H1528 H 0.07121 0.52142 0.55724 0.0
C1529 C 0.1275 0.5008 0.4874 0.0
H1530 H 0.06006 0.50044 0.49632 0.0
C1531 C 0.13374 0.51312 0.52205 0.0
C1532 C 0.1136 0.52091 0.54756 0.0
H1533 H 0.14361 0.49495 0.46873 0.0
H1534 H 0.15443 0.5163 0.52902 0.0
C1535 C 0.08708 0.51557 0.53809 0.0
C1536 C 0.37609 0.13948 0.18091 0.0
C1537 C 0.39112 0.11614 0.17702 0.0
H1538 H 0.35526 0.17042 0.15165 0.0
C1539 C 0.40434 0.11155 0.1422 0.0
H1540 H 0.36636 0.14399 0.20782 0.0
C1541 C 0.39656 0.12553 0.10938 0.0
C1542 C 0.37658 0.145 0.11188 0.0
H1543 H 0.41708 0.09436 0.13876 0.0
H1544 H 0.40344 0.11857 0.08174 0.0
C1545 C 0.36954 0.15445 0.14845 0.0
C1546 C 0.13583 0.13094 0.34625 0.0
C1547 C 0.11987 0.10882 0.35457 0.0
H1548 H 0.15795 0.16357 0.36915 0.0
C1549 C 0.10779 0.10723 0.39073 0.0
H1550 H 0.14522 0.13279 0.31844 0.0
C1551 C 0.11631 0.12378 0.4204 0.0
C1552 C 0.13659 0.14243 0.41379 0.0
H1553 H 0.09505 0.09069 0.39789 0.0
H1554 H 0.10969 0.11946 0.44928 0.0
C1555 C 0.14343 0.14832 0.3756 0.0
C1556 C 0.14382 0.87622 0.61015 0.0
C1557 C 0.16252 0.89657 0.60463 0.0
H1558 H 0.10908 0.86344 0.64059 0.0
C1559 C 0.16041 0.91995 0.62652 0.0
H1560 H 0.14518 0.85786 0.59405 0.0
C1561 C 0.14071 0.92257 0.65419 0.0
C1562 C 0.12166 0.90262 0.65938 0.0
H1563 H 0.17482 0.93584 0.62376 0.0
H1564 H 0.14082 0.94005 0.672 0.0
C1565 C 0.12337 0.87935 0.63703 0.0
C1566 C 0.38123 0.8681 0.85414 0.0
C1567 C 0.39833 0.88981 0.85994 0.0
H1568 H 0.35322 0.8418 0.88021 0.0
C1569 C 0.40821 0.89419 0.89704 0.0
H1570 H 0.37397 0.86357 0.82566 0.0
C1571 C 0.39458 0.88347 0.92841 0.0
C1572 C 0.37264 0.86675 0.92229 0.0
H1573 H 0.42254 0.90983 0.90228 0.0
H1574 H 0.39842 0.89154 0.95665 0.0
C1575 C 0.3691 0.85583 0.8856 0.0
C1576 C 0.64098 0.88011 0.83735 0.0
C1577 C 0.63727 0.90659 0.84873 0.0
H1578 H 0.64969 0.8402 0.85574 0.0
C1579 C 0.6382 0.91313 0.88781 0.0
H1580 H 0.64061 0.8748 0.80729 0.0
C1581 C 0.64447 0.89383 0.91503 0.0
C1582 C 0.64924 0.86762 0.90355 0.0
H1583 H 0.63543 0.93343 0.89717 0.0
H1584 H 0.64615 0.89947 0.94489 0.0
C1585 C 0.64635 0.86052 0.86485 0.0
C1586 C 0.86348 0.87917 0.6775 0.0
C1587 C 0.88152 0.89966 0.66935 0.0
H1588 H 0.83573 0.85164 0.65438 0.0
C1589 C 0.89239 0.90113 0.63232 0.0
H1590 H 0.85503 0.87732 0.70594 0.0
C1591 C 0.8801 0.88745 0.60216 0.0
C1592 C 0.85817 0.87096 0.60947 0.0
H1593 H 0.90699 0.91621 0.62543 0.0
H1594 H 0.88514 0.89285 0.57299 0.0
C1595 C 0.85232 0.86441 0.64767 0.0
C1596 C 0.88231 0.14304 0.33901 0.0
C1597 C 0.90003 0.12176 0.34472 0.0
H1598 H 0.85248 0.16763 0.36442 0.0
C1599 C 0.90809 0.11597 0.38242 0.0
H1600 H 0.8765 0.14891 0.31034 0.0
C1601 C 0.89317 0.12554 0.41327 0.0
C1602 C 0.87132 0.14223 0.40658 0.0
H1603 H 0.92285 0.10078 0.38799 0.0
H1604 H 0.89637 0.11698 0.44139 0.0
C1605 C 0.86848 0.15378 0.37014 0.0
C1606 C 0.63301 0.12363 0.15254 0.0
C1607 C 0.61699 0.10147 0.14454 0.0
H1608 H 0.66093 0.15175 0.13015 0.0
C1609 C 0.61075 0.09593 0.10615 0.0
H1610 H 0.63824 0.12833 0.18188 0.0
C1611 C 0.6252 0.10797 0.07665 0.0
C1612 C 0.64503 0.12663 0.08529 0.0
H1613 H 0.59834 0.07909 0.09907 0.0
H1614 H 0.62349 0.09999 0.04793 0.0
C1615 C 0.64633 0.1368 0.12276 0.0
C1616 C 0.865 0.64549 0.61496 0.0
C1617 C 0.86914 0.63763 0.57672 0.0
H1618 H 0.86956 0.63406 0.67378 0.0
C1619 C 0.89 0.6199 0.56883 0.0
H1620 H 0.84978 0.65988 0.62208 0.0
C1621 C 0.90252 0.60627 0.59872 0.0
C1622 C 0.89376 0.60972 0.63656 0.0
H1623 H 0.89422 0.61394 0.53963 0.0
H1624 H 0.9158 0.59014 0.59152 0.0
C1625 C 0.87665 0.63098 0.6448 0.0
C1626 C 0.6478 0.64457 0.86565 0.0
C1627 C 0.64376 0.63747 0.90425 0.0
H1628 H 0.64438 0.6315 0.80735 0.0
C1629 C 0.62395 0.61865 0.9127 0.0
H1630 H 0.66201 0.65984 0.85803 0.0
C1631 C 0.61261 0.60352 0.88337 0.0
C1632 C 0.62133 0.60667 0.84545 0.0
H1633 H 0.61964 0.61325 0.94211 0.0
H1634 H 0.60024 0.58683 0.89125 0.0
C1635 C 0.63734 0.62862 0.8364 0.0
C1636 C 0.61051 0.39911 0.1256 0.0
C1637 C 0.62316 0.39425 0.1608 0.0
H1638 H 0.61182 0.39216 0.06519 0.0
C1639 C 0.63866 0.37122 0.16473 0.0
H1640 H 0.59776 0.41628 0.12194 0.0
C1641 C 0.64568 0.35647 0.13232 0.0
C1642 C 0.6385 0.36573 0.09567 0.0
H1643 H 0.64815 0.36667 0.19181 0.0
H1644 H 0.66014 0.34069 0.13566 0.0
C1645 C 0.61855 0.38521 0.09292 0.0
C1646 C 0.87101 0.36976 0.32618 0.0
C1647 C 0.88719 0.39244 0.32829 0.0
H1648 H 0.84817 0.34135 0.35755 0.0
C1649 C 0.89983 0.39826 0.3632 0.0
H1650 H 0.8615 0.36442 0.29942 0.0
C1651 C 0.89099 0.38611 0.39694 0.0
C1652 C 0.87035 0.3673 0.39559 0.0
H1653 H 0.91312 0.41512 0.36556 0.0
H1654 H 0.89769 0.39404 0.42413 0.0
C1655 C 0.86321 0.35668 0.35974 0.0
C1656 C 0.14848 0.36598 0.38406 0.0
C1657 C 0.14481 0.37418 0.42227 0.0
H1658 H 0.14369 0.37714 0.32516 0.0
C1659 C 0.12429 0.39228 0.43024 0.0
H1660 H 0.16345 0.35134 0.37688 0.0
C1661 C 0.11176 0.4059 0.40035 0.0
C1662 C 0.12017 0.4021 0.36241 0.0
H1663 H 0.12039 0.3985 0.45942 0.0
H1664 H 0.09879 0.42226 0.40758 0.0
C1665 C 0.13686 0.38051 0.3542 0.0
C1666 C 0.39372 0.38821 0.09182 0.0
C1667 C 0.37277 0.36997 0.09576 0.0
H1668 H 0.42009 0.41474 0.12061 0.0
C1669 C 0.36848 0.35823 0.1319 0.0
H1670 H 0.39819 0.39696 0.06419 0.0
C1671 C 0.37997 0.36947 0.16456 0.0
C1672 C 0.39684 0.39157 0.16107 0.0
H1673 H 0.35319 0.34332 0.13586 0.0
H1674 H 0.37306 0.36305 0.19247 0.0
C1675 C 0.40619 0.39851 0.12438 0.0
C1676 C 0.4036 0.60728 0.88743 0.0
C1677 C 0.39234 0.61105 0.85105 0.0
H1678 H 0.39963 0.61509 0.94737 0.0
C1679 C 0.37592 0.63321 0.84512 0.0
H1680 H 0.41665 0.59067 0.89281 0.0
C1681 C 0.367 0.64817 0.8764 0.0
C1682 C 0.37308 0.63982 0.91391 0.0
H1683 H 0.36708 0.6367 0.81726 0.0
H1684 H 0.35206 0.66327 0.87137 0.0
C1685 C 0.39372 0.62133 0.91891 0.0
C1686 C 0.11788 0.62621 0.60645 0.0
C1687 C 0.13708 0.64643 0.60926 0.0
H1688 H 0.09862 0.594 0.63513 0.0
C1689 C 0.144 0.65572 0.64597 0.0
H1690 H 0.11122 0.61925 0.5787 0.0
C1691 C 0.13771 0.64046 0.67826 0.0
C1692 C 0.12318 0.61683 0.67413 0.0
H1693 H 0.1578 0.67209 0.64937 0.0
H1694 H 0.14706 0.64524 0.70535 0.0
C1695 C 0.11063 0.61169 0.63896 0.0
C1696 C 0.28729 0.24386 0.08543 0.0
C1697 C 0.27061 0.22886 0.0613 0.0
H1698 H 0.29948 0.28276 0.10401 0.0
C1699 C 0.25199 0.2425 0.03858 0.0
H1700 H 0.30186 0.23406 0.10337 0.0
C1701 C 0.25054 0.27033 0.03908 0.0
C1702 C 0.26775 0.28544 0.0622 0.0
H1703 H 0.23871 0.23171 0.01977 0.0
H1704 H 0.23625 0.28001 0.02055 0.0
C1705 C 0.28592 0.27182 0.08581 0.0
C1706 C 0.99585 0.03202 0.30985 0.0
C1707 C 0.97962 0.01082 0.29789 0.0
H1708 H 0.03535 0.04714 0.3161 0.0
C1709 C 0.99185 0.98791 0.28292 0.0
H1710 H 0.98711 0.05011 0.32102 0.0
C1711 C 0.01959 0.98603 0.28057 0.0
C1712 C 0.03589 0.00716 0.29269 0.0
H1713 H 0.97999 0.97123 0.27328 0.0
H1714 H 0.02823 0.96789 0.26944 0.0
C1715 C 0.02359 0.0303 0.30694 0.0
C1716 C 0.22775 0.74802 0.57856 0.0
C1717 C 0.24267 0.73188 0.55353 0.0
H1718 H 0.21837 0.78778 0.59709 0.0
C1719 C 0.26042 0.7444 0.52814 0.0
H1720 H 0.21386 0.73911 0.59849 0.0
C1721 C 0.26297 0.77212 0.5273 0.0
C1722 C 0.24784 0.78838 0.5518 0.0
H1723 H 0.27231 0.73278 0.50843 0.0
H1724 H 0.27675 0.7808 0.50702 0.0
C1725 C 0.23029 0.77595 0.57769 0.0
C1726 C 0.4943 0.01537 0.78465 0.0
C1727 C 0.48205 0.9964 0.8085 0.0
H1728 H 0.53034 0.03183 0.76288 0.0
C1729 C 0.49845 0.97968 0.83069 0.0
H1730 H 0.48251 0.02875 0.76726 0.0
C1731 C 0.52636 0.98148 0.82812 0.0
C1732 C 0.53844 1.00005 0.80333 0.0
H1733 H 0.48975 0.96486 0.84942 0.0
H1734 H 0.53842 0.96798 0.84492 0.0
C1735 C 0.52193 0.01716 0.78213 0.0
C1736 C 0.28525 0.76858 0.93935 0.0
C1737 C 0.2676 0.78275 0.96308 0.0
H1738 H 0.29996 0.73034 0.92176 0.0
C1739 C 0.25031 0.76818 0.98684 0.0
H1740 H 0.29881 0.77909 0.9206 0.0
C1741 C 0.25103 0.74034 0.98759 0.0
C1742 C 0.26898 0.72612 0.96449 0.0
H1743 H 0.2364 0.77829 0.00548 0.0
H1744 H 0.23763 0.72997 0.00674 0.0
C1745 C 0.28589 0.7406 0.93998 0.0
C1746 C 0.51177 0.0292 0.20805 0.0
C1747 C 0.52547 0.00746 0.22411 0.0
H1748 H 0.47403 0.04763 0.1971 0.0
C1749 C 0.51065 0.98771 0.2431 0.0
H1750 H 0.52245 0.04492 0.1935 0.0
C1751 C 0.48296 0.98951 0.24574 0.0
C1752 C 0.46921 0.0109 0.22893 0.0
H1753 H 0.52043 0.9707 0.25594 0.0
H1754 H 0.47228 0.97386 0.26053 0.0
C1755 C 0.48396 0.03075 0.21006 0.0
C1756 C 0.22725 0.24331 0.43745 0.0
C1757 C 0.24266 0.2284 0.46343 0.0
H1758 H 0.21687 0.2821 0.41615 0.0
C1759 C 0.26082 0.24206 0.48688 0.0
H1760 H 0.21309 0.2335 0.41889 0.0
C1761 C 0.26309 0.2698 0.48515 0.0
C1762 C 0.2472 0.28485 0.46005 0.0
H1763 H 0.27315 0.23134 0.5071 0.0
H1764 H 0.27702 0.27948 0.50423 0.0
C1765 C 0.22944 0.27121 0.43585 0.0
C1766 C 0.01576 0.01458 0.74327 0.0
C1767 C 0.0294 0.99611 0.72028 0.0
H1768 H 0.97828 0.03014 0.76153 0.0
C1769 C 0.01435 0.97898 0.69685 0.0
H1770 H 0.02655 0.02813 0.76167 0.0
C1771 C 0.98645 0.98022 0.69659 0.0
C1772 C 0.97285 0.99854 0.71993 0.0
H1773 H 0.02407 0.96456 0.67864 0.0
H1774 H 0.97556 0.96665 0.67833 0.0
C1775 C 0.98795 0.01573 0.74316 0.0
C1776 C 0.76811 0.76885 0.968 0.0
C1777 C 0.74838 0.78372 0.94909 0.0
H1778 H 0.7836 0.7304 0.98189 0.0
C1779 C 0.72918 0.76985 0.92755 0.0
H1780 H 0.78327 0.7787 0.98481 0.0
C1781 C 0.72943 0.74186 0.92576 0.0
C1782 C 0.74881 0.72705 0.94559 0.0
H1783 H 0.71371 0.78058 0.91252 0.0
H1784 H 0.71411 0.73183 0.90947 0.0
C1785 C 0.76829 0.741 0.96634 0.0
C1786 C 0.74997 0.24107 0.47575 0.0
C1787 C 0.76684 0.22649 0.45143 0.0
H1788 H 0.73689 0.2793 0.49486 0.0
C1789 C 0.78314 0.24061 0.4257 0.0
H1790 H 0.73703 0.23099 0.49585 0.0
C1791 C 0.78306 0.2686 0.42514 0.0
C1792 C 0.76666 0.28311 0.45027 0.0
H1793 H 0.79635 0.23008 0.40648 0.0
H1794 H 0.79624 0.27885 0.40553 0.0
C1795 C 0.74987 0.26891 0.47516 0.0
C1796 C 0.76197 0.23714 0.0221 0.0
C1797 C 0.74442 0.222 0.04468 0.0
H1798 H 0.77465 0.27573 0.00391 0.0
C1799 C 0.72617 0.23562 0.06816 0.0
H1800 H 0.77639 0.22751 0.00373 0.0
C1801 C 0.72522 0.26363 0.06832 0.0
C1802 C 0.74245 0.27866 0.04496 0.0
H1803 H 0.7124 0.22466 0.08603 0.0
H1804 H 0.71066 0.27348 0.08622 0.0
C1805 C 0.76099 0.26496 0.02221 0.0
C1806 C 0.74133 0.76571 0.51723 0.0
C1807 C 0.76165 0.78058 0.53475 0.0
H1808 H 0.72579 0.72713 0.50399 0.0
C1809 C 0.78243 0.76673 0.55295 0.0
H1810 H 0.72497 0.77559 0.50297 0.0
C1811 C 0.78271 0.73881 0.55398 0.0
C1812 C 0.76239 0.724 0.53641 0.0
H1813 H 0.79856 0.7774 0.56645 0.0
H1814 H 0.79907 0.72885 0.56814 0.0
C1815 C 0.74174 0.73784 0.51794 0.0
C1816 C 0.51617 0.48811 0.75765 0.0
C1817 C 0.53093 0.50917 0.77357 0.0
H1818 H 0.47779 0.47142 0.74661 0.0
C1819 C 0.51695 0.53078 0.78945 0.0
H1820 H 0.52613 0.47113 0.74508 0.0
C1821 C 0.48905 0.53099 0.7902 0.0
C1822 C 0.47433 0.50954 0.77527 0.0
H1823 H 0.52755 0.5475 0.80163 0.0
H1824 H 0.47907 0.54792 0.80281 0.0
C1825 C 0.48832 0.48828 0.75853 0.0
C1826 C 0.01373 0.51601 0.26585 0.0
C1827 C 0.02792 0.49747 0.28809 0.0
H1828 H 0.97606 0.52951 0.24534 0.0
C1829 C 0.01329 0.47775 0.30771 0.0
H1830 H 0.02407 0.53153 0.2503 0.0
C1831 C 0.98533 0.47675 0.30517 0.0
C1832 C 0.97129 0.49524 0.28257 0.0
H1833 H 0.02339 0.46304 0.32501 0.0
H1834 H 0.97477 0.46126 0.32047 0.0
C1835 C 0.98599 0.51486 0.26303 0.0
C1836 C 0.0284 0.53214 0.69346 0.0
C1837 C 0.04192 0.51322 0.716 0.0
H1838 H 0.99077 0.54686 0.67356 0.0
C1839 C 0.02677 0.494 0.73556 0.0
H1840 H 0.03936 0.54734 0.67815 0.0
C1841 C 0.99903 0.49362 0.73275 0.0
C1842 C 0.98539 0.51257 0.71051 0.0
H1843 H 0.03634 0.47909 0.75322 0.0
H1844 H 0.98826 0.47839 0.74828 0.0
C1845 C 1.00048 0.53191 0.69092 0.0
C1846 C 0.49703 0.47805 0.18305 0.0
C1847 C 0.48254 0.49592 0.20616 0.0
H1848 H 0.53559 0.46432 0.1648 0.0
C1849 C 0.4969 0.51472 0.22767 0.0
H1850 H 0.48674 0.46327 0.16606 0.0
C1851 C 0.52472 0.51533 0.22693 0.0
C1852 C 0.53936 0.49714 0.20468 0.0
H1853 H 0.48666 0.52891 0.24573 0.0
H1854 H 0.53476 0.52996 0.24448 0.0
C1855 C 0.52509 0.47865 0.18232 0.0
loop_
_geom_bond_atom_site_label_1
_geom_bond_atom_site_label_2
_geom_bond_distance
_geom_bond_site_symmetry_2
_ccdc_geom_bond_type
C0 C1 1.351 . S
C0 N3 1.368 . S
C0 H5 0.931 . S
C1 C0 1.351 . S
C1 N2 1.373 . S
C1 H29 0.930 . S
N2 C1 1.373 . S
N2 C4 1.340 . S
N3 C0 1.368 . S
N3 C4 1.321 . S
N3 Co6 2.135 . S
C4 N2 1.340 . S
C4 N3 1.321 . S
C4 H28 0.930 . S
H5 C0 0.931 . S
Co6 N3 2.135 . S
Co6 N9 2.121 . S
Co6 O14 2.055 . S
Co6 O17 2.039 . S
Co6 N20 2.140 . S
C7 O8 1.227 . S
C7 O17 1.265 . S
O8 C7 1.227 . S
N9 Co6 2.121 . S
N9 C11 1.375 1_554 S
N9 C12 1.313 . S
C10 C11 1.338 . S
C10 N13 1.377 . S
C10 H30 0.930 . S
C11 N9 1.375 1_556 S
C11 C10 1.338 . S
C11 H15 0.931 1_556 S
C12 N9 1.313 . S
C12 N13 1.344 1_554 S
C12 H16 0.930 . S
N13 C10 1.377 . S
N13 C12 1.344 1_556 S
O14 Co6 2.055 . S
O14 C18 1.253 . S
H15 C11 0.931 1_554 S
H16 C12 0.930 . S
O17 Co6 2.039 . S
O17 C7 1.265 . S
C18 O14 1.253 . S
C18 O19 1.227 . S
O19 C18 1.227 . S
N20 Co6 2.140 . S
N20 C23 1.346 . S
N20 C24 1.345 . S
C21 C22 1.387 . S
C21 C25 1.391 . S
C22 C21 1.387 . S
C22 C23 1.369 . S
C22 H31 0.929 . S
C23 N20 1.346 . S
C23 C22 1.369 . S
C23 H26 0.928 . S
C24 N20 1.345 . S
C24 C25 1.371 . S
C24 H27 0.931 . S
C25 C21 1.391 . S
C25 C24 1.371 . S
C25 H32 0.930 . S
H26 C23 0.928 . S
H27 C24 0.931 . S
H28 C4 0.930 . S
H29 C1 0.930 . S
H30 C10 0.930 . S
H31 C22 0.929 . S
H32 C25 0.930 . S
C33 C34 1.351 . S
C33 N36 1.368 . S
C33 H38 0.931 . S
C34 C33 1.351 . S
C34 N35 1.373 . S
C34 H62 0.930 . S
N35 C34 1.373 . S
N35 C37 1.340 . S
N36 C33 1.368 . S
N36 C37 1.321 . S
N36 Co39 2.135 . S
C37 N35 1.340 . S
C37 N36 1.321 . S
C37 H61 0.930 . S
H38 C33 0.931 . S
Co39 N36 2.135 . S
Co39 N42 2.121 . S
Co39 O47 2.055 . S
Co39 O50 2.039 . S
Co39 N53 2.140 1_545 S
C40 O41 1.227 . S
C40 O50 1.265 1_565 S
O41 C40 1.227 . S
N42 Co39 2.121 . S
N42 C44 1.375 1_545 S
N42 C45 1.313 . S
C43 C44 1.338 . S
C43 N46 1.377 1_565 S
C43 H63 0.930 . S
C44 N42 1.375 1_565 S
C44 C43 1.338 . S
C44 H48 0.931 . S
C45 N42 1.313 . S
C45 N46 1.344 . S
C45 H49 0.930 . S
N46 C43 1.377 1_545 S
N46 C45 1.344 . S
O47 Co39 2.055 . S
O47 C51 1.253 . S
H48 C44 0.931 . S
H49 C45 0.930 . S
O50 Co39 2.039 . S
O50 C40 1.265 1_545 S
C51 O47 1.253 . S
C51 O52 1.227 . S
O52 C51 1.227 . S
N53 Co39 2.140 1_565 S
N53 C56 1.346 . S
N53 C57 1.345 . S
C54 C55 1.387 . S
C54 C58 1.391 . S
C55 C54 1.387 . S
C55 C56 1.369 . S
C55 H64 0.929 . S
C56 N53 1.346 . S
C56 C55 1.369 . S
C56 H59 0.928 . S
C57 N53 1.345 . S
C57 C58 1.371 . S
C57 H60 0.931 . S
C58 C54 1.391 . S
C58 C57 1.371 . S
C58 H65 0.930 . S
H59 C56 0.928 . S
H60 C57 0.931 . S
H61 C37 0.930 . S
H62 C34 0.930 . S
H63 C43 0.930 . S
H64 C55 0.929 . S
H65 C58 0.930 . S
C66 C67 1.351 . S
C66 N69 1.368 . S
C66 H71 0.931 . S
C67 C66 1.351 . S
C67 N68 1.373 . S
C67 H95 0.930 . S
N68 C67 1.373 . S
N68 C70 1.340 . S
N69 C66 1.368 . S
N69 C70 1.321 . S
N69 Co72 2.135 . S
C70 N68 1.340 . S
C70 N69 1.321 . S
C70 H94 0.930 . S
H71 C66 0.931 . S
Co72 N69 2.135 . S
Co72 N75 2.121 . S
Co72 O80 2.055 . S
Co72 O83 2.039 . S
Co72 N86 2.140 . S
C73 O74 1.227 . S
C73 O83 1.265 . S
O74 C73 1.227 . S
N75 Co72 2.121 . S
N75 C77 1.375 . S
N75 C78 1.313 . S
C76 C77 1.338 . S
C76 N79 1.377 . S
C76 H96 0.930 . S
C77 N75 1.375 . S
C77 C76 1.338 . S
C77 H81 0.931 . S
C78 N75 1.313 . S
C78 N79 1.344 . S
C78 H82 0.930 . S
N79 C76 1.377 . S
N79 C78 1.344 . S
O80 Co72 2.055 . S
O80 C84 1.253 . S
H81 C77 0.931 . S
H82 C78 0.930 . S
O83 Co72 2.039 . S
O83 C73 1.265 . S
C84 O80 1.253 . S
C84 O85 1.227 . S
O85 C84 1.227 . S
N86 Co72 2.140 . S
N86 C89 1.346 . S
N86 C90 1.345 . S
C87 C88 1.387 . S
C87 C91 1.391 . S
C88 C87 1.387 . S
C88 C89 1.369 . S
C88 H97 0.929 . S
C89 N86 1.346 . S
C89 C88 1.369 . S
C89 H92 0.928 . S
C90 N86 1.345 . S
C90 C91 1.371 . S
C90 H93 0.931 . S
C91 C87 1.391 . S
C91 C90 1.371 . S
C91 H98 0.930 . S
H92 C89 0.928 . S
H93 C90 0.931 . S
H94 C70 0.930 . S
H95 C67 0.930 . S
H96 C76 0.930 . S
H97 C88 0.929 . S
H98 C91 0.930 . S
C99 C100 1.351 . S
C99 N102 1.368 . S
C99 H104 0.931 . S
C100 C99 1.351 . S
C100 N101 1.373 . S
C100 H128 0.930 . S
N101 C100 1.373 . S
N101 C103 1.340 . S
N102 C99 1.368 . S
N102 C103 1.321 . S
N102 Co105 2.135 . S
C103 N101 1.340 . S
C103 N102 1.321 . S
C103 H127 0.930 . S
H104 C99 0.931 . S
Co105 N102 2.135 . S
Co105 N108 2.121 . S
Co105 O113 2.055 . S
Co105 O116 2.039 . S
Co105 N119 2.140 1_565 S
C106 O107 1.227 . S
C106 O116 1.265 1_545 S
O107 C106 1.227 . S
N108 Co105 2.121 . S
N108 C110 1.375 1_565 S
N108 C111 1.313 . S
C109 C110 1.338 . S
C109 N112 1.377 1_545 S
C109 H129 0.930 . S
C110 N108 1.375 1_545 S
C110 C109 1.338 . S
C110 H114 0.931 . S
C111 N108 1.313 . S
C111 N112 1.344 . S
C111 H115 0.930 . S
N112 C109 1.377 1_565 S
N112 C111 1.344 . S
O113 Co105 2.055 . S
O113 C117 1.253 . S
H114 C110 0.931 . S
H115 C111 0.930 . S
O116 Co105 2.039 . S
O116 C106 1.265 1_565 S
C117 O113 1.253 . S
C117 O118 1.227 . S
O118 C117 1.227 . S
N119 Co105 2.140 1_545 S
N119 C122 1.346 . S
N119 C123 1.345 . S
C120 C121 1.387 . S
C120 C124 1.391 . S
C121 C120 1.387 . S
C121 C122 1.369 . S
C121 H130 0.929 . S
C122 N119 1.346 . S
C122 C121 1.369 . S
C122 H125 0.928 . S
C123 N119 1.345 . S
C123 C124 1.371 . S
C123 H126 0.931 . S
C124 C120 1.391 . S
C124 C123 1.371 . S
C124 H131 0.930 . S
H125 C122 0.928 . S
H126 C123 0.931 . S
H127 C103 0.930 . S
H128 C100 0.930 . S
H129 C109 0.930 . S
H130 C121 0.929 . S
H131 C124 0.930 . S
C132 C133 1.351 . S
C132 N135 1.368 . S
C132 H137 0.931 . S
C133 C132 1.351 . S
C133 N134 1.373 . S
C133 H161 0.930 . S
N134 C133 1.373 . S
N134 C136 1.340 . S
N135 C132 1.368 . S
N135 C136 1.321 . S
N135 Co138 2.135 . S
C136 N134 1.340 . S
C136 N135 1.321 . S
C136 H160 0.930 . S
H137 C132 0.931 . S
Co138 N135 2.135 . S
Co138 N141 2.121 . S
Co138 O146 2.055 . S
Co138 O149 2.039 . S
Co138 N152 2.140 . S
C139 O140 1.227 . S
C139 O149 1.265 . S
O140 C139 1.227 . S
N141 Co138 2.121 . S
N141 C143 1.375 1_556 S
N141 C144 1.313 . S
C142 C143 1.338 . S
C142 N145 1.377 . S
C142 H162 0.930 . S
C143 N141 1.375 1_554 S
C143 C142 1.338 . S
C143 H147 0.931 1_554 S
C144 N141 1.313 . S
C144 N145 1.344 1_556 S
C144 H148 0.930 . S
N145 C142 1.377 . S
N145 C144 1.344 1_554 S
O146 Co138 2.055 . S
O146 C150 1.253 . S
H147 C143 0.931 1_556 S
H148 C144 0.930 . S
O149 Co138 2.039 . S
O149 C139 1.265 . S
C150 O146 1.253 . S
C150 O151 1.227 . S
O151 C150 1.227 . S
N152 Co138 2.140 . S
N152 C155 1.346 . S
N152 C156 1.345 . S
C153 C154 1.387 . S
C153 C157 1.391 . S
C154 C153 1.387 . S
C154 C155 1.369 . S
C154 H163 0.929 . S
C155 N152 1.346 . S
C155 C154 1.369 . S
C155 H158 0.928 . S
C156 N152 1.345 . S
C156 C157 1.371 . S
C156 H159 0.931 . S
C157 C153 1.391 . S
C157 C156 1.371 . S
C157 H164 0.930 . S
H158 C155 0.928 . S
H159 C156 0.931 . S
H160 C136 0.930 . S
H161 C133 0.930 . S
H162 C142 0.930 . S
H163 C154 0.929 . S
H164 C157 0.930 . S
C165 C166 1.351 . S
C165 N168 1.368 . S
C165 H170 0.931 . S
C166 C165 1.351 . S
C166 N167 1.373 . S
C166 H194 0.930 . S
N167 C166 1.373 . S
N167 C169 1.340 . S
N168 C165 1.368 . S
N168 C169 1.321 . S
N168 Co171 2.135 . S
C169 N167 1.340 . S
C169 N168 1.321 . S
C169 H193 0.930 . S
H170 C165 0.931 . S
Co171 N168 2.135 . S
Co171 N174 2.121 . S
Co171 O179 2.055 . S
Co171 O182 2.039 . S
Co171 N185 2.140 1_545 S
C172 O173 1.227 . S
C172 O182 1.265 1_565 S
O173 C172 1.227 . S
N174 Co171 2.121 . S
N174 C176 1.375 1_545 S
N174 C177 1.313 . S
C175 C176 1.338 . S
C175 N178 1.377 1_565 S
C175 H195 0.930 . S
C176 N174 1.375 1_565 S
C176 C175 1.338 . S
C176 H180 0.931 . S
C177 N174 1.313 . S
C177 N178 1.344 . S
C177 H181 0.930 . S
N178 C175 1.377 1_545 S
N178 C177 1.344 . S
O179 Co171 2.055 . S
O179 C183 1.253 . S
H180 C176 0.931 . S
H181 C177 0.930 . S
O182 Co171 2.039 . S
O182 C172 1.265 1_545 S
C183 O179 1.253 . S
C183 O184 1.227 . S
O184 C183 1.227 . S
N185 Co171 2.140 1_565 S
N185 C188 1.346 . S
N185 C189 1.345 . S
C186 C187 1.387 . S
C186 C190 1.391 . S
C187 C186 1.387 . S
C187 C188 1.369 . S
C187 H196 0.929 . S
C188 N185 1.346 . S
C188 C187 1.369 . S
C188 H191 0.928 . S
C189 N185 1.345 . S
C189 C190 1.371 . S
C189 H192 0.931 . S
C190 C186 1.391 . S
C190 C189 1.371 . S
C190 H197 0.930 . S
H191 C188 0.928 . S
H192 C189 0.931 . S
H193 C169 0.930 . S
H194 C166 0.930 . S
H195 C175 0.930 . S
H196 C187 0.929 . S
H197 C190 0.930 . S
C198 C199 1.351 . S
C198 N201 1.368 . S
C198 H203 0.931 . S
C199 C198 1.351 . S
C199 N200 1.373 . S
C199 H227 0.930 . S
N200 C199 1.373 . S
N200 C202 1.340 . S
N201 C198 1.368 . S
N201 C202 1.321 . S
N201 Co204 2.135 . S
C202 N200 1.340 . S
C202 N201 1.321 . S
C202 H226 0.930 . S
H203 C198 0.931 . S
Co204 N201 2.135 . S
Co204 N207 2.121 . S
Co204 O212 2.055 . S
Co204 O215 2.039 . S
Co204 N218 2.140 . S
C205 O206 1.227 . S
C205 O215 1.265 . S
O206 C205 1.227 . S
N207 Co204 2.121 . S
N207 C209 1.375 . S
N207 C210 1.313 . S
C208 C209 1.338 . S
C208 N211 1.377 . S
C208 H228 0.930 . S
C209 N207 1.375 . S
C209 C208 1.338 . S
C209 H213 0.931 . S
C210 N207 1.313 . S
C210 N211 1.344 . S
C210 H214 0.930 . S
N211 C208 1.377 . S
N211 C210 1.344 . S
O212 Co204 2.055 . S
O212 C216 1.253 . S
H213 C209 0.931 . S
H214 C210 0.930 . S
O215 Co204 2.039 . S
O215 C205 1.265 . S
C216 O212 1.253 . S
C216 O217 1.227 . S
O217 C216 1.227 . S
N218 Co204 2.140 . S
N218 C221 1.346 . S
N218 C222 1.345 . S
C219 C220 1.387 . S
C219 C223 1.391 . S
C220 C219 1.387 . S
C220 C221 1.369 . S
C220 H229 0.929 . S
C221 N218 1.346 . S
C221 C220 1.369 . S
C221 H224 0.928 . S
C222 N218 1.345 . S
C222 C223 1.371 . S
C222 H225 0.931 . S
C223 C219 1.391 . S
C223 C222 1.371 . S
C223 H230 0.930 . S
H224 C221 0.928 . S
H225 C222 0.931 . S
H226 C202 0.930 . S
H227 C199 0.930 . S
H228 C208 0.930 . S
H229 C220 0.929 . S
H230 C223 0.930 . S
C231 C232 1.351 . S
C231 N234 1.368 . S
C231 H236 0.931 . S
C232 C231 1.351 . S
C232 N233 1.373 . S
C232 H260 0.930 . S
N233 C232 1.373 . S
N233 C235 1.340 . S
N234 C231 1.368 . S
N234 C235 1.321 . S
N234 Co237 2.135 . S
C235 N233 1.340 . S
C235 N234 1.321 . S
C235 H259 0.930 . S
H236 C231 0.931 . S
Co237 N234 2.135 . S
Co237 N240 2.121 . S
Co237 O245 2.055 . S
Co237 O248 2.039 . S
Co237 N251 2.140 1_565 S
C238 O239 1.227 . S
C238 O248 1.265 1_545 S
O239 C238 1.227 . S
N240 Co237 2.121 . S
N240 C242 1.375 1_565 S
N240 C243 1.313 . S
C241 C242 1.338 . S
C241 N244 1.377 1_545 S
C241 H261 0.930 . S
C242 N240 1.375 1_545 S
C242 C241 1.338 . S
C242 H246 0.931 . S
C243 N240 1.313 . S
C243 N244 1.344 . S
C243 H247 0.930 . S
N244 C241 1.377 1_565 S
N244 C243 1.344 . S
O245 Co237 2.055 . S
O245 C249 1.253 . S
H246 C242 0.931 . S
H247 C243 0.930 . S
O248 Co237 2.039 . S
O248 C238 1.265 1_565 S
C249 O245 1.253 . S
C249 O250 1.227 . S
O250 C249 1.227 . S
N251 Co237 2.140 1_545 S
N251 C254 1.346 . S
N251 C255 1.345 . S
C252 C253 1.387 . S
C252 C256 1.391 . S
C253 C252 1.387 . S
C253 C254 1.369 . S
C253 H262 0.929 . S
C254 N251 1.346 . S
C254 C253 1.369 . S
C254 H257 0.928 . S
C255 N251 1.345 . S
C255 C256 1.371 . S
C255 H258 0.931 . S
C256 C252 1.391 . S
C256 C255 1.371 . S
C256 H263 0.930 . S
H257 C254 0.928 . S
H258 C255 0.931 . S
H259 C235 0.930 . S
H260 C232 0.930 . S
H261 C241 0.930 . S
H262 C253 0.929 . S
H263 C256 0.930 . S
C264 C265 1.351 . S
C264 N267 1.368 . S
C264 H269 0.931 . S
C265 C264 1.351 . S
C265 N266 1.373 . S
C265 H293 0.930 . S
N266 C265 1.373 . S
N266 C268 1.340 . S
N267 C264 1.368 . S
N267 C268 1.321 . S
N267 Co270 2.135 . S
C268 N266 1.340 . S
C268 N267 1.321 . S
C268 H292 0.930 . S
H269 C264 0.931 . S
Co270 N267 2.135 . S
Co270 N273 2.121 . S
Co270 O278 2.055 . S
Co270 O281 2.039 . S
Co270 N284 2.140 . S
C271 O272 1.227 . S
C271 O281 1.265 . S
O272 C271 1.227 . S
N273 Co270 2.121 . S
N273 C275 1.375 1_556 S
N273 C276 1.313 . S
C274 C275 1.338 . S
C274 N277 1.377 . S
C274 H294 0.930 . S
C275 N273 1.375 1_554 S
C275 C274 1.338 . S
C275 H279 0.931 1_554 S
C276 N273 1.313 . S
C276 N277 1.344 1_556 S
C276 H280 0.930 . S
N277 C274 1.377 . S
N277 C276 1.344 1_554 S
O278 Co270 2.055 . S
O278 C282 1.253 . S
H279 C275 0.931 1_556 S
H280 C276 0.930 . S
O281 Co270 2.039 . S
O281 C271 1.265 . S
C282 O278 1.253 . S
C282 O283 1.227 . S
O283 C282 1.227 . S
N284 Co270 2.140 . S
N284 C287 1.346 . S
N284 C288 1.345 . S
C285 C286 1.387 . S
C285 C289 1.391 . S
C286 C285 1.387 . S
C286 C287 1.369 . S
C286 H295 0.929 . S
C287 N284 1.346 . S
C287 C286 1.369 . S
C287 H290 0.928 . S
C288 N284 1.345 . S
C288 C289 1.371 . S
C288 H291 0.931 . S
C289 C285 1.391 . S
C289 C288 1.371 . S
C289 H296 0.930 . S
H290 C287 0.928 . S
H291 C288 0.931 . S
H292 C268 0.930 . S
H293 C265 0.930 . S
H294 C274 0.930 . S
H295 C286 0.929 . S
H296 C289 0.930 . S
C297 C298 1.351 . S
C297 N300 1.368 . S
C297 H302 0.931 . S
C298 C297 1.351 . S
C298 N299 1.373 . S
C298 H326 0.930 . S
N299 C298 1.373 . S
N299 C301 1.340 . S
N300 C297 1.368 . S
N300 C301 1.321 . S
N300 Co303 2.135 . S
C301 N299 1.340 . S
C301 N300 1.321 . S
C301 H325 0.930 . S
H302 C297 0.931 . S
Co303 N300 2.135 . S
Co303 N306 2.121 . S
Co303 O311 2.055 . S
Co303 O314 2.039 . S
Co303 N317 2.140 1_565 S
C304 O305 1.227 . S
C304 O314 1.265 1_545 S
O305 C304 1.227 . S
N306 Co303 2.121 . S
N306 C308 1.375 1_565 S
N306 C309 1.313 . S
C307 C308 1.338 . S
C307 N310 1.377 1_545 S
C307 H327 0.930 . S
C308 N306 1.375 1_545 S
C308 C307 1.338 . S
C308 H312 0.931 . S
C309 N306 1.313 . S
C309 N310 1.344 . S
C309 H313 0.930 . S
N310 C307 1.377 1_565 S
N310 C309 1.344 . S
O311 Co303 2.055 . S
O311 C315 1.253 . S
H312 C308 0.931 . S
H313 C309 0.930 . S
O314 Co303 2.039 . S
O314 C304 1.265 1_565 S
C315 O311 1.253 . S
C315 O316 1.227 . S
O316 C315 1.227 . S
N317 Co303 2.140 1_545 S
N317 C320 1.346 . S
N317 C321 1.345 . S
C318 C319 1.387 . S
C318 C322 1.391 . S
C319 C318 1.387 . S
C319 C320 1.369 . S
C319 H328 0.929 . S
C320 N317 1.346 . S
C320 C319 1.369 . S
C320 H323 0.928 . S
C321 N317 1.345 . S
C321 C322 1.371 . S
C321 H324 0.931 . S
C322 C318 1.391 . S
C322 C321 1.371 . S
C322 H329 0.930 . S
H323 C320 0.928 . S
H324 C321 0.931 . S
H325 C301 0.930 . S
H326 C298 0.930 . S
H327 C307 0.930 . S
H328 C319 0.929 . S
H329 C322 0.930 . S
C330 C331 1.351 . S
C330 N333 1.368 . S
C330 H335 0.931 . S
C331 C330 1.351 . S
C331 N332 1.373 . S
C331 H359 0.930 . S
N332 C331 1.373 . S
N332 C334 1.340 . S
N333 C330 1.368 . S
N333 C334 1.321 . S
N333 Co336 2.135 . S
C334 N332 1.340 . S
C334 N333 1.321 . S
C334 H358 0.930 . S
H335 C330 0.931 . S
Co336 N333 2.135 . S
Co336 N339 2.121 . S
Co336 O344 2.055 . S
Co336 O347 2.039 . S
Co336 N350 2.140 . S
C337 O338 1.227 . S
C337 O347 1.265 . S
O338 C337 1.227 . S
N339 Co336 2.121 . S
N339 C341 1.375 . S
N339 C342 1.313 . S
C340 C341 1.338 . S
C340 N343 1.377 . S
C340 H360 0.930 . S
C341 N339 1.375 . S
C341 C340 1.338 . S
C341 H345 0.931 . S
C342 N339 1.313 . S
C342 N343 1.344 . S
C342 H346 0.930 . S
N343 C340 1.377 . S
N343 C342 1.344 . S
O344 Co336 2.055 . S
O344 C348 1.253 . S
H345 C341 0.931 . S
H346 C342 0.930 . S
O347 Co336 2.039 . S
O347 C337 1.265 . S
C348 O344 1.253 . S
C348 O349 1.227 . S
O349 C348 1.227 . S
N350 Co336 2.140 . S
N350 C353 1.346 . S
N350 C354 1.345 . S
C351 C352 1.387 . S
C351 C355 1.391 . S
C352 C351 1.387 . S
C352 C353 1.369 . S
C352 H361 0.929 . S
C353 N350 1.346 . S
C353 C352 1.369 . S
C353 H356 0.928 . S
C354 N350 1.345 . S
C354 C355 1.371 . S
C354 H357 0.931 . S
C355 C351 1.391 . S
C355 C354 1.371 . S
C355 H362 0.930 . S
H356 C353 0.928 . S
H357 C354 0.931 . S
H358 C334 0.930 . S
H359 C331 0.930 . S
H360 C340 0.930 . S
H361 C352 0.929 . S
H362 C355 0.930 . S
C363 C364 1.351 . S
C363 N366 1.368 . S
C363 H368 0.931 . S
C364 C363 1.351 . S
C364 N365 1.373 . S
C364 H392 0.930 . S
N365 C364 1.373 . S
N365 C367 1.340 . S
N366 C363 1.368 . S
N366 C367 1.321 . S
N366 Co369 2.135 . S
C367 N365 1.340 . S
C367 N366 1.321 . S
C367 H391 0.930 . S
H368 C363 0.931 . S
Co369 N366 2.135 . S
Co369 N372 2.121 . S
Co369 O377 2.055 . S
Co369 O380 2.039 . S
Co369 N383 2.140 1_545 S
C370 O371 1.227 . S
C370 O380 1.265 1_565 S
O371 C370 1.227 . S
N372 Co369 2.121 . S
N372 C374 1.375 1_545 S
N372 C375 1.313 . S
C373 C374 1.338 . S
C373 N376 1.377 1_565 S
C373 H393 0.930 . S
C374 N372 1.375 1_565 S
C374 C373 1.338 . S
C374 H378 0.931 . S
C375 N372 1.313 . S
C375 N376 1.344 . S
C375 H379 0.930 . S
N376 C373 1.377 1_545 S
N376 C375 1.344 . S
O377 Co369 2.055 . S
O377 C381 1.253 . S
H378 C374 0.931 . S
H379 C375 0.930 . S
O380 Co369 2.039 . S
O380 C370 1.265 1_545 S
C381 O377 1.253 . S
C381 O382 1.227 . S
O382 C381 1.227 . S
N383 Co369 2.140 1_565 S
N383 C386 1.346 . S
N383 C387 1.345 . S
C384 C385 1.387 . S
C384 C388 1.391 . S
C385 C384 1.387 . S
C385 C386 1.369 . S
C385 H394 0.929 . S
C386 N383 1.346 . S
C386 C385 1.369 . S
C386 H389 0.928 . S
C387 N383 1.345 . S
C387 C388 1.371 . S
C387 H390 0.931 . S
C388 C384 1.391 . S
C388 C387 1.371 . S
C388 H395 0.930 . S
H389 C386 0.928 . S
H390 C387 0.931 . S
H391 C367 0.930 . S
H392 C364 0.930 . S
H393 C373 0.930 . S
H394 C385 0.929 . S
H395 C388 0.930 . S
C396 C397 1.351 . S
C396 N399 1.368 . S
C396 H401 0.931 . S
C397 C396 1.351 . S
C397 N398 1.373 . S
C397 H425 0.930 . S
N398 C397 1.373 . S
N398 C400 1.340 . S
N399 C396 1.368 . S
N399 C400 1.321 . S
N399 Co402 2.135 . S
C400 N398 1.340 . S
C400 N399 1.321 . S
C400 H424 0.930 . S
H401 C396 0.931 . S
Co402 N399 2.135 . S
Co402 N405 2.121 . S
Co402 O410 2.055 . S
Co402 O413 2.039 . S
Co402 N416 2.140 . S
C403 O404 1.227 . S
C403 O413 1.265 . S
O404 C403 1.227 . S
N405 Co402 2.121 . S
N405 C407 1.375 1_554 S
N405 C408 1.313 . S
C406 C407 1.338 . S
C406 N409 1.377 . S
C406 H426 0.930 . S
C407 N405 1.375 1_556 S
C407 C406 1.338 . S
C407 H411 0.931 1_556 S
C408 N405 1.313 . S
C408 N409 1.344 1_554 S
C408 H412 0.930 . S
N409 C406 1.377 . S
N409 C408 1.344 1_556 S
O410 Co402 2.055 . S
O410 C414 1.253 . S
H411 C407 0.931 1_554 S
H412 C408 0.930 . S
O413 Co402 2.039 . S
O413 C403 1.265 . S
C414 O410 1.253 . S
C414 O415 1.227 . S
O415 C414 1.227 . S
N416 Co402 2.140 . S
N416 C419 1.346 . S
N416 C420 1.345 . S
C417 C418 1.387 . S
C417 C421 1.391 . S
C418 C417 1.387 . S
C418 C419 1.369 . S
C418 H427 0.929 . S
C419 N416 1.346 . S
C419 C418 1.369 . S
C419 H422 0.928 . S
C420 N416 1.345 . S
C420 C421 1.371 . S
C420 H423 0.931 . S
C421 C417 1.391 . S
C421 C420 1.371 . S
C421 H428 0.930 . S
H422 C419 0.928 . S
H423 C420 0.931 . S
H424 C400 0.930 . S
H425 C397 0.930 . S
H426 C406 0.930 . S
H427 C418 0.929 . S
H428 C421 0.930 . S
C429 C430 1.351 . S
C429 N432 1.368 . S
C429 H434 0.931 . S
C430 C429 1.351 . S
C430 N431 1.373 . S
C430 H458 0.930 . S
N431 C430 1.373 . S
N431 C433 1.340 . S
N432 C429 1.368 . S
N432 C433 1.321 . S
N432 Co435 2.135 . S
C433 N431 1.340 . S
C433 N432 1.321 . S
C433 H457 0.930 . S
H434 C429 0.931 . S
Co435 N432 2.135 . S
Co435 N438 2.121 . S
Co435 O443 2.055 . S
Co435 O446 2.039 . S
Co435 N449 2.140 1_565 S
C436 O437 1.227 . S
C436 O446 1.265 1_545 S
O437 C436 1.227 . S
N438 Co435 2.121 . S
N438 C440 1.375 1_565 S
N438 C441 1.313 . S
C439 C440 1.338 . S
C439 N442 1.377 1_545 S
C439 H459 0.930 . S
C440 N438 1.375 1_545 S
C440 C439 1.338 . S
C440 H444 0.931 . S
C441 N438 1.313 . S
C441 N442 1.344 . S
C441 H445 0.930 . S
N442 C439 1.377 1_565 S
N442 C441 1.344 . S
O443 Co435 2.055 . S
O443 C447 1.253 . S
H444 C440 0.931 . S
H445 C441 0.930 . S
O446 Co435 2.039 . S
O446 C436 1.265 1_565 S
C447 O443 1.253 . S
C447 O448 1.227 . S
O448 C447 1.227 . S
N449 Co435 2.140 1_545 S
N449 C452 1.346 . S
N449 C453 1.345 . S
C450 C451 1.387 . S
C450 C454 1.391 . S
C451 C450 1.387 . S
C451 C452 1.369 . S
C451 H460 0.929 . S
C452 N449 1.346 . S
C452 C451 1.369 . S
C452 H455 0.928 . S
C453 N449 1.345 . S
C453 C454 1.371 . S
C453 H456 0.931 . S
C454 C450 1.391 . S
C454 C453 1.371 . S
C454 H461 0.930 . S
H455 C452 0.928 . S
H456 C453 0.931 . S
H457 C433 0.930 . S
H458 C430 0.930 . S
H459 C439 0.930 . S
H460 C451 0.929 . S
H461 C454 0.930 . S
C462 C463 1.351 . S
C462 N465 1.368 . S
C462 H467 0.931 . S
C463 C462 1.351 . S
C463 N464 1.373 . S
C463 H491 0.930 . S
N464 C463 1.373 . S
N464 C466 1.340 . S
N465 C462 1.368 . S
N465 C466 1.321 . S
N465 Co468 2.135 . S
C466 N464 1.340 . S
C466 N465 1.321 . S
C466 H490 0.930 . S
H467 C462 0.931 . S
Co468 N465 2.135 . S
Co468 N471 2.121 . S
Co468 O476 2.055 . S
Co468 O479 2.039 . S
Co468 N482 2.140 . S
C469 O470 1.227 . S
C469 O479 1.265 . S
O470 C469 1.227 . S
N471 Co468 2.121 . S
N471 C473 1.375 . S
N471 C474 1.313 . S
C472 C473 1.338 . S
C472 N475 1.377 . S
C472 H492 0.930 . S
C473 N471 1.375 . S
C473 C472 1.338 . S
C473 H477 0.931 . S
C474 N471 1.313 . S
C474 N475 1.344 . S
C474 H478 0.930 . S
N475 C472 1.377 . S
N475 C474 1.344 . S
O476 Co468 2.055 . S
O476 C480 1.253 . S
H477 C473 0.931 . S
H478 C474 0.930 . S
O479 Co468 2.039 . S
O479 C469 1.265 . S
C480 O476 1.253 . S
C480 O481 1.227 . S
O481 C480 1.227 . S
N482 Co468 2.140 . S
N482 C485 1.346 . S
N482 C486 1.345 . S
C483 C484 1.387 . S
C483 C487 1.391 . S
C484 C483 1.387 . S
C484 C485 1.369 . S
C484 H493 0.929 . S
C485 N482 1.346 . S
C485 C484 1.369 . S
C485 H488 0.928 . S
C486 N482 1.345 . S
C486 C487 1.371 . S
C486 H489 0.931 . S
C487 C483 1.391 . S
C487 C486 1.371 . S
C487 H494 0.930 . S
H488 C485 0.928 . S
H489 C486 0.931 . S
H490 C466 0.930 . S
H491 C463 0.930 . S
H492 C472 0.930 . S
H493 C484 0.929 . S
H494 C487 0.930 . S
C495 C496 1.351 . S
C495 N498 1.368 . S
C495 H500 0.931 . S
C496 C495 1.351 . S
C496 N497 1.373 . S
C496 H524 0.930 . S
N497 C496 1.373 . S
N497 C499 1.340 . S
N498 C495 1.368 . S
N498 C499 1.321 . S
N498 Co501 2.135 . S
C499 N497 1.340 . S
C499 N498 1.321 . S
C499 H523 0.930 . S
H500 C495 0.931 . S
Co501 N498 2.135 . S
Co501 N504 2.121 . S
Co501 O509 2.055 . S
Co501 O512 2.039 . S
Co501 N515 2.140 1_545 S
C502 O503 1.227 . S
C502 O512 1.265 1_565 S
O503 C502 1.227 . S
N504 Co501 2.121 . S
N504 C506 1.375 1_545 S
N504 C507 1.313 . S
C505 C506 1.338 . S
C505 N508 1.377 1_565 S
C505 H525 0.930 . S
C506 N504 1.375 1_565 S
C506 C505 1.338 . S
C506 H510 0.931 . S
C507 N504 1.313 . S
C507 N508 1.344 . S
C507 H511 0.930 . S
N508 C505 1.377 1_545 S
N508 C507 1.344 . S
O509 Co501 2.055 . S
O509 C513 1.253 . S
H510 C506 0.931 . S
H511 C507 0.930 . S
O512 Co501 2.039 . S
O512 C502 1.265 1_545 S
C513 O509 1.253 . S
C513 O514 1.227 . S
O514 C513 1.227 . S
N515 Co501 2.140 1_565 S
N515 C518 1.346 . S
N515 C519 1.345 . S
C516 C517 1.387 . S
C516 C520 1.391 . S
C517 C516 1.387 . S
C517 C518 1.369 . S
C517 H526 0.929 . S
C518 N515 1.346 . S
C518 C517 1.369 . S
C518 H521 0.928 . S
C519 N515 1.345 . S
C519 C520 1.371 . S
C519 H522 0.931 . S
C520 C516 1.391 . S
C520 C519 1.371 . S
C520 H527 0.930 . S
H521 C518 0.928 . S
H522 C519 0.931 . S
H523 C499 0.930 . S
H524 C496 0.930 . S
H525 C505 0.930 . S
H526 C517 0.929 . S
H527 C520 0.930 . S
C528 C529 1.351 . S
C528 N531 1.368 . S
C528 H533 0.931 . S
C529 C528 1.351 . S
C529 N530 1.373 . S
C529 H557 0.930 . S
N530 C529 1.373 . S
N530 C532 1.340 . S
N531 C528 1.368 . S
N531 C532 1.321 . S
N531 Co534 2.135 . S
C532 N530 1.340 . S
C532 N531 1.321 . S
C532 H556 0.930 . S
H533 C528 0.931 . S
Co534 N531 2.135 . S
Co534 N537 2.121 . S
Co534 O542 2.055 . S
Co534 O545 2.039 . S
Co534 N548 2.140 . S
C535 O536 1.227 . S
C535 O545 1.265 . S
O536 C535 1.227 . S
N537 Co534 2.121 . S
N537 C539 1.375 . S
N537 C540 1.313 . S
C538 C539 1.338 . S
C538 N541 1.377 . S
C538 H558 0.930 . S
C539 N537 1.375 . S
C539 C538 1.338 . S
C539 H543 0.931 . S
C540 N537 1.313 . S
C540 N541 1.344 . S
C540 H544 0.930 . S
N541 C538 1.377 . S
N541 C540 1.344 . S
O542 Co534 2.055 . S
O542 C546 1.253 . S
H543 C539 0.931 . S
H544 C540 0.930 . S
O545 Co534 2.039 . S
O545 C535 1.265 . S
C546 O542 1.253 . S
C546 O547 1.227 . S
O547 C546 1.227 . S
N548 Co534 2.140 . S
N548 C551 1.346 . S
N548 C552 1.345 . S
C549 C550 1.387 . S
C549 C553 1.391 . S
C550 C549 1.387 . S
C550 C551 1.369 . S
C550 H559 0.929 . S
C551 N548 1.346 . S
C551 C550 1.369 . S
C551 H554 0.928 . S
C552 N548 1.345 . S
C552 C553 1.371 . S
C552 H555 0.931 . S
C553 C549 1.391 . S
C553 C552 1.371 . S
C553 H560 0.930 . S
H554 C551 0.928 . S
H555 C552 0.931 . S
H556 C532 0.930 . S
H557 C529 0.930 . S
H558 C538 0.930 . S
H559 C550 0.929 . S
H560 C553 0.930 . S
C561 C562 1.351 . S
C561 N564 1.368 . S
C561 H566 0.931 . S
C562 C561 1.351 . S
C562 N563 1.373 . S
C562 H590 0.930 . S
N563 C562 1.373 . S
N563 C565 1.340 . S
N564 C561 1.368 . S
N564 C565 1.321 . S
N564 Co567 2.135 . S
C565 N563 1.340 . S
C565 N564 1.321 . S
C565 H589 0.930 . S
H566 C561 0.931 . S
Co567 N564 2.135 . S
Co567 N570 2.121 . S
Co567 O575 2.055 . S
Co567 O578 2.039 . S
Co567 N581 2.140 . S
C568 O569 1.227 . S
C568 O578 1.265 . S
O569 C568 1.227 . S
N570 Co567 2.121 . S
N570 C572 1.375 . S
N570 C573 1.313 . S
C571 C572 1.338 . S
C571 N574 1.377 . S
C571 H591 0.930 . S
C572 N570 1.375 . S
C572 C571 1.338 . S
C572 H576 0.931 . S
C573 N570 1.313 . S
C573 N574 1.344 . S
C573 H577 0.930 . S
N574 C571 1.377 . S
N574 C573 1.344 . S
O575 Co567 2.055 . S
O575 C579 1.253 . S
H576 C572 0.931 . S
H577 C573 0.930 . S
O578 Co567 2.039 . S
O578 C568 1.265 . S
C579 O575 1.253 . S
C579 O580 1.227 . S
O580 C579 1.227 . S
N581 Co567 2.140 . S
N581 C584 1.346 . S
N581 C585 1.345 . S
C582 C583 1.387 . S
C582 C586 1.391 . S
C583 C582 1.387 . S
C583 C584 1.369 . S
C583 H592 0.929 . S
C584 N581 1.346 . S
C584 C583 1.369 . S
C584 H587 0.928 . S
C585 N581 1.345 . S
C585 C586 1.371 . S
C585 H588 0.931 . S
C586 C582 1.391 . S
C586 C585 1.371 . S
C586 H593 0.930 . S
H587 C584 0.928 . S
H588 C585 0.931 . S
H589 C565 0.930 . S
H590 C562 0.930 . S
H591 C571 0.930 . S
H592 C583 0.929 . S
H593 C586 0.930 . S
C594 C595 1.351 . S
C594 N597 1.368 . S
C594 H599 0.931 . S
C595 C594 1.351 . S
C595 N596 1.373 . S
C595 H623 0.930 . S
N596 C595 1.373 . S
N596 C598 1.340 . S
N597 C594 1.368 . S
N597 C598 1.321 . S
N597 Co600 2.135 . S
C598 N596 1.340 . S
C598 N597 1.321 . S
C598 H622 0.930 . S
H599 C594 0.931 . S
Co600 N597 2.135 . S
Co600 N603 2.121 . S
Co600 O608 2.055 . S
Co600 O611 2.039 . S
Co600 N614 2.140 . S
C601 O602 1.227 . S
C601 O611 1.265 . S
O602 C601 1.227 . S
N603 Co600 2.121 . S
N603 C605 1.375 1_554 S
N603 C606 1.313 . S
C604 C605 1.338 . S
C604 N607 1.377 . S
C604 H624 0.930 . S
C605 N603 1.375 1_556 S
C605 C604 1.338 . S
C605 H609 0.931 1_556 S
C606 N603 1.313 . S
C606 N607 1.344 1_554 S
C606 H610 0.930 . S
N607 C604 1.377 . S
N607 C606 1.344 1_556 S
O608 Co600 2.055 . S
O608 C612 1.253 . S
H609 C605 0.931 1_554 S
H610 C606 0.930 . S
O611 Co600 2.039 . S
O611 C601 1.265 . S
C612 O608 1.253 . S
C612 O613 1.227 . S
O613 C612 1.227 . S
N614 Co600 2.140 . S
N614 C617 1.346 . S
N614 C618 1.345 . S
C615 C616 1.387 . S
C615 C619 1.391 . S
C616 C615 1.387 . S
C616 C617 1.369 . S
C616 H625 0.929 . S
C617 N614 1.346 . S
C617 C616 1.369 . S
C617 H620 0.928 . S
C618 N614 1.345 . S
C618 C619 1.371 . S
C618 H621 0.931 . S
C619 C615 1.391 . S
C619 C618 1.371 . S
C619 H626 0.930 . S
H620 C617 0.928 . S
H621 C618 0.931 . S
H622 C598 0.930 . S
H623 C595 0.930 . S
H624 C604 0.930 . S
H625 C616 0.929 . S
H626 C619 0.930 . S
C627 C628 1.351 . S
C627 N630 1.368 . S
C627 H632 0.931 . S
C628 C627 1.351 . S
C628 N629 1.373 . S
C628 H656 0.930 . S
N629 C628 1.373 . S
N629 C631 1.340 . S
N630 C627 1.368 . S
N630 C631 1.321 . S
N630 Co633 2.135 . S
C631 N629 1.340 . S
C631 N630 1.321 . S
C631 H655 0.930 . S
H632 C627 0.931 . S
Co633 N630 2.135 . S
Co633 N636 2.121 . S
Co633 O641 2.055 . S
Co633 O644 2.039 . S
Co633 N647 2.140 . S
C634 O635 1.227 . S
C634 O644 1.265 . S
O635 C634 1.227 . S
N636 Co633 2.121 . S
N636 C638 1.375 . S
N636 C639 1.313 . S
C637 C638 1.338 . S
C637 N640 1.377 . S
C637 H657 0.930 . S
C638 N636 1.375 . S
C638 C637 1.338 . S
C638 H642 0.931 . S
C639 N636 1.313 . S
C639 N640 1.344 . S
C639 H643 0.930 . S
N640 C637 1.377 . S
N640 C639 1.344 . S
O641 Co633 2.055 . S
O641 C645 1.253 . S
H642 C638 0.931 . S
H643 C639 0.930 . S
O644 Co633 2.039 . S
O644 C634 1.265 . S
C645 O641 1.253 . S
C645 O646 1.227 . S
O646 C645 1.227 . S
N647 Co633 2.140 . S
N647 C650 1.346 . S
N647 C651 1.345 . S
C648 C649 1.387 . S
C648 C652 1.391 . S
C649 C648 1.387 . S
C649 C650 1.369 . S
C649 H658 0.929 . S
C650 N647 1.346 . S
C650 C649 1.369 . S
C650 H653 0.928 . S
C651 N647 1.345 . S
C651 C652 1.371 . S
C651 H654 0.931 . S
C652 C648 1.391 . S
C652 C651 1.371 . S
C652 H659 0.930 . S
H653 C650 0.928 . S
H654 C651 0.931 . S
H655 C631 0.930 . S
H656 C628 0.930 . S
H657 C637 0.930 . S
H658 C649 0.929 . S
H659 C652 0.930 . S
C660 C661 1.351 . S
C660 N663 1.368 . S
C660 H665 0.931 . S
C661 C660 1.351 . S
C661 N662 1.373 . S
C661 H689 0.930 . S
N662 C661 1.373 . S
N662 C664 1.340 . S
N663 C660 1.368 . S
N663 C664 1.321 . S
N663 Co666 2.135 . S
C664 N662 1.340 . S
C664 N663 1.321 . S
C664 H688 0.930 . S
H665 C660 0.931 . S
Co666 N663 2.135 . S
Co666 N669 2.121 . S
Co666 O674 2.055 . S
Co666 O677 2.039 . S
Co666 N680 2.140 . S
C667 O668 1.227 . S
C667 O677 1.265 . S
O668 C667 1.227 . S
N669 Co666 2.121 . S
N669 C671 1.375 . S
N669 C672 1.313 . S
C670 C671 1.338 . S
C670 N673 1.377 . S
C670 H690 0.930 . S
C671 N669 1.375 . S
C671 C670 1.338 . S
C671 H675 0.931 . S
C672 N669 1.313 . S
C672 N673 1.344 . S
C672 H676 0.930 . S
N673 C670 1.377 . S
N673 C672 1.344 . S
O674 Co666 2.055 . S
O674 C678 1.253 . S
H675 C671 0.931 . S
H676 C672 0.930 . S
O677 Co666 2.039 . S
O677 C667 1.265 . S
C678 O674 1.253 . S
C678 O679 1.227 . S
O679 C678 1.227 . S
N680 Co666 2.140 . S
N680 C683 1.346 . S
N680 C684 1.345 . S
C681 C682 1.387 . S
C681 C685 1.391 . S
C682 C681 1.387 . S
C682 C683 1.369 . S
C682 H691 0.929 . S
C683 N680 1.346 . S
C683 C682 1.369 . S
C683 H686 0.928 . S
C684 N680 1.345 . S
C684 C685 1.371 . S
C684 H687 0.931 . S
C685 C681 1.391 . S
C685 C684 1.371 . S
C685 H692 0.930 . S
H686 C683 0.928 . S
H687 C684 0.931 . S
H688 C664 0.930 . S
H689 C661 0.930 . S
H690 C670 0.930 . S
H691 C682 0.929 . S
H692 C685 0.930 . S
C693 C694 1.351 . S
C693 N696 1.368 . S
C693 H698 0.931 . S
C694 C693 1.351 . S
C694 N695 1.373 . S
C694 H722 0.930 . S
N695 C694 1.373 . S
N695 C697 1.340 . S
N696 C693 1.368 . S
N696 C697 1.321 . S
N696 Co699 2.135 . S
C697 N695 1.340 . S
C697 N696 1.321 . S
C697 H721 0.930 . S
H698 C693 0.931 . S
Co699 N696 2.135 . S
Co699 N702 2.121 . S
Co699 O707 2.055 . S
Co699 O710 2.039 . S
Co699 N713 2.140 . S
C700 O701 1.227 . S
C700 O710 1.265 . S
O701 C700 1.227 . S
N702 Co699 2.121 . S
N702 C704 1.375 . S
N702 C705 1.313 . S
C703 C704 1.338 . S
C703 N706 1.377 . S
C703 H723 0.930 . S
C704 N702 1.375 . S
C704 C703 1.338 . S
C704 H708 0.931 . S
C705 N702 1.313 . S
C705 N706 1.344 . S
C705 H709 0.930 . S
N706 C703 1.377 . S
N706 C705 1.344 . S
O707 Co699 2.055 . S
O707 C711 1.253 . S
H708 C704 0.931 . S
H709 C705 0.930 . S
O710 Co699 2.039 . S
O710 C700 1.265 . S
C711 O707 1.253 . S
C711 O712 1.227 . S
O712 C711 1.227 . S
N713 Co699 2.140 . S
N713 C716 1.346 . S
N713 C717 1.345 . S
C714 C715 1.387 . S
C714 C718 1.391 . S
C715 C714 1.387 . S
C715 C716 1.369 . S
C715 H724 0.929 . S
C716 N713 1.346 . S
C716 C715 1.369 . S
C716 H719 0.928 . S
C717 N713 1.345 . S
C717 C718 1.371 . S
C717 H720 0.931 . S
C718 C714 1.391 . S
C718 C717 1.371 . S
C718 H725 0.930 . S
H719 C716 0.928 . S
H720 C717 0.931 . S
H721 C697 0.930 . S
H722 C694 0.930 . S
H723 C703 0.930 . S
H724 C715 0.929 . S
H725 C718 0.930 . S
C726 C727 1.351 . S
C726 N729 1.368 . S
C726 H731 0.931 . S
C727 C726 1.351 . S
C727 N728 1.373 . S
C727 H755 0.930 . S
N728 C727 1.373 . S
N728 C730 1.340 . S
N729 C726 1.368 . S
N729 C730 1.321 . S
N729 Co732 2.135 . S
C730 N728 1.340 . S
C730 N729 1.321 . S
C730 H754 0.930 . S
H731 C726 0.931 . S
Co732 N729 2.135 . S
Co732 N735 2.121 . S
Co732 O740 2.055 . S
Co732 O743 2.039 . S
Co732 N746 2.140 . S
C733 O734 1.227 . S
C733 O743 1.265 . S
O734 C733 1.227 . S
N735 Co732 2.121 . S
N735 C737 1.375 1_556 S
N735 C738 1.313 . S
C736 C737 1.338 . S
C736 N739 1.377 . S
C736 H756 0.930 . S
C737 N735 1.375 1_554 S
C737 C736 1.338 . S
C737 H741 0.931 1_554 S
C738 N735 1.313 . S
C738 N739 1.344 1_556 S
C738 H742 0.930 . S
N739 C736 1.377 . S
N739 C738 1.344 1_554 S
O740 Co732 2.055 . S
O740 C744 1.253 . S
H741 C737 0.931 1_556 S
H742 C738 0.930 . S
O743 Co732 2.039 . S
O743 C733 1.265 . S
C744 O740 1.253 . S
C744 O745 1.227 . S
O745 C744 1.227 . S
N746 Co732 2.140 . S
N746 C749 1.346 . S
N746 C750 1.345 . S
C747 C748 1.387 . S
C747 C751 1.391 . S
C748 C747 1.387 . S
C748 C749 1.369 . S
C748 H757 0.929 . S
C749 N746 1.346 . S
C749 C748 1.369 . S
C749 H752 0.928 . S
C750 N746 1.345 . S
C750 C751 1.371 . S
C750 H753 0.931 . S
C751 C747 1.391 . S
C751 C750 1.371 . S
C751 H758 0.930 . S
H752 C749 0.928 . S
H753 C750 0.931 . S
H754 C730 0.930 . S
H755 C727 0.930 . S
H756 C736 0.930 . S
H757 C748 0.929 . S
H758 C751 0.930 . S
C759 C760 1.351 . S
C759 N762 1.368 . S
C759 H764 0.931 . S
C760 C759 1.351 . S
C760 N761 1.373 . S
C760 H788 0.930 . S
N761 C760 1.373 . S
N761 C763 1.340 . S
N762 C759 1.368 . S
N762 C763 1.321 . S
N762 Co765 2.135 . S
C763 N761 1.340 . S
C763 N762 1.321 . S
C763 H787 0.930 . S
H764 C759 0.931 . S
Co765 N762 2.135 . S
Co765 N768 2.121 . S
Co765 O773 2.055 . S
Co765 O776 2.039 . S
Co765 N779 2.140 . S
C766 O767 1.227 . S
C766 O776 1.265 . S
O767 C766 1.227 . S
N768 Co765 2.121 . S
N768 C770 1.375 . S
N768 C771 1.313 . S
C769 C770 1.338 . S
C769 N772 1.377 . S
C769 H789 0.930 . S
C770 N768 1.375 . S
C770 C769 1.338 . S
C770 H774 0.931 . S
C771 N768 1.313 . S
C771 N772 1.344 . S
C771 H775 0.930 . S
N772 C769 1.377 . S
N772 C771 1.344 . S
O773 Co765 2.055 . S
O773 C777 1.253 . S
H774 C770 0.931 . S
H775 C771 0.930 . S
O776 Co765 2.039 . S
O776 C766 1.265 . S
C777 O773 1.253 . S
C777 O778 1.227 . S
O778 C777 1.227 . S
N779 Co765 2.140 . S
N779 C782 1.346 . S
N779 C783 1.345 . S
C780 C781 1.387 . S
C780 C784 1.391 . S
C781 C780 1.387 . S
C781 C782 1.369 . S
C781 H790 0.929 . S
C782 N779 1.346 . S
C782 C781 1.369 . S
C782 H785 0.928 . S
C783 N779 1.345 . S
C783 C784 1.371 . S
C783 H786 0.931 . S
C784 C780 1.391 . S
C784 C783 1.371 . S
C784 H791 0.930 . S
H785 C782 0.928 . S
H786 C783 0.931 . S
H787 C763 0.930 . S
H788 C760 0.930 . S
H789 C769 0.930 . S
H790 C781 0.929 . S
H791 C784 0.930 . S
C792 C793 1.351 . S
C792 N795 1.368 . S
C792 H797 0.931 . S
C793 C792 1.351 . S
C793 N794 1.373 . S
C793 H821 0.930 . S
N794 C793 1.373 . S
N794 C796 1.340 . S
N795 C792 1.368 . S
N795 C796 1.321 . S
N795 Co798 2.135 . S
C796 N794 1.340 . S
C796 N795 1.321 . S
C796 H820 0.930 . S
H797 C792 0.931 . S
Co798 N795 2.135 . S
Co798 N801 2.121 . S
Co798 O806 2.055 . S
Co798 O809 2.039 . S
Co798 N812 2.140 . S
C799 O800 1.227 . S
C799 O809 1.265 . S
O800 C799 1.227 . S
N801 Co798 2.121 . S
N801 C803 1.375 . S
N801 C804 1.313 . S
C802 C803 1.338 . S
C802 N805 1.377 . S
C802 H822 0.930 . S
C803 N801 1.375 . S
C803 C802 1.338 . S
C803 H807 0.931 . S
C804 N801 1.313 . S
C804 N805 1.344 . S
C804 H808 0.930 . S
N805 C802 1.377 . S
N805 C804 1.344 . S
O806 Co798 2.055 . S
O806 C810 1.253 . S
H807 C803 0.931 . S
H808 C804 0.930 . S
O809 Co798 2.039 . S
O809 C799 1.265 . S
C810 O806 1.253 . S
C810 O811 1.227 . S
O811 C810 1.227 . S
N812 Co798 2.140 . S
N812 C815 1.346 . S
N812 C816 1.345 . S
C813 C814 1.387 . S
C813 C817 1.391 . S
C814 C813 1.387 . S
C814 C815 1.369 . S
C814 H823 0.929 . S
C815 N812 1.346 . S
C815 C814 1.369 . S
C815 H818 0.928 . S
C816 N812 1.345 . S
C816 C817 1.371 . S
C816 H819 0.931 . S
C817 C813 1.391 . S
C817 C816 1.371 . S
C817 H824 0.930 . S
H818 C815 0.928 . S
H819 C816 0.931 . S
H820 C796 0.930 . S
H821 C793 0.930 . S
H822 C802 0.930 . S
H823 C814 0.929 . S
H824 C817 0.930 . S
C825 C826 1.351 . S
C825 N828 1.368 . S
C825 H830 0.931 . S
C826 C825 1.351 . S
C826 N827 1.373 . S
C826 H854 0.930 . S
N827 C826 1.373 . S
N827 C829 1.340 . S
N828 C825 1.368 . S
N828 C829 1.321 . S
N828 Co831 2.135 . S
C829 N827 1.340 . S
C829 N828 1.321 . S
C829 H853 0.930 . S
H830 C825 0.931 . S
Co831 N828 2.135 . S
Co831 N834 2.121 . S
Co831 O839 2.055 . S
Co831 O842 2.039 . S
Co831 N845 2.140 . S
C832 O833 1.227 . S
C832 O842 1.265 . S
O833 C832 1.227 . S
N834 Co831 2.121 . S
N834 C836 1.375 . S
N834 C837 1.313 . S
C835 C836 1.338 . S
C835 N838 1.377 . S
C835 H855 0.930 . S
C836 N834 1.375 . S
C836 C835 1.338 . S
C836 H840 0.931 . S
C837 N834 1.313 . S
C837 N838 1.344 . S
C837 H841 0.930 . S
N838 C835 1.377 . S
N838 C837 1.344 . S
O839 Co831 2.055 . S
O839 C843 1.253 . S
H840 C836 0.931 . S
H841 C837 0.930 . S
O842 Co831 2.039 . S
O842 C832 1.265 . S
C843 O839 1.253 . S
C843 O844 1.227 . S
O844 C843 1.227 . S
N845 Co831 2.140 . S
N845 C848 1.346 . S
N845 C849 1.345 . S
C846 C847 1.387 . S
C846 C850 1.391 . S
C847 C846 1.387 . S
C847 C848 1.369 . S
C847 H856 0.929 . S
C848 N845 1.346 . S
C848 C847 1.369 . S
C848 H851 0.928 . S
C849 N845 1.345 . S
C849 C850 1.371 . S
C849 H852 0.931 . S
C850 C846 1.391 . S
C850 C849 1.371 . S
C850 H857 0.930 . S
H851 C848 0.928 . S
H852 C849 0.931 . S
H853 C829 0.930 . S
H854 C826 0.930 . S
H855 C835 0.930 . S
H856 C847 0.929 . S
H857 C850 0.930 . S
C858 C859 1.351 . S
C858 N861 1.368 . S
C858 H863 0.931 . S
C859 C858 1.351 . S
C859 N860 1.373 . S
C859 H887 0.930 . S
N860 C859 1.373 . S
N860 C862 1.340 . S
N861 C858 1.368 . S
N861 C862 1.321 . S
N861 Co864 2.135 . S
C862 N860 1.340 . S
C862 N861 1.321 . S
C862 H886 0.930 . S
H863 C858 0.931 . S
Co864 N861 2.135 . S
Co864 N867 2.121 . S
Co864 O872 2.055 . S
Co864 O875 2.039 . S
Co864 N878 2.140 . S
C865 O866 1.227 . S
C865 O875 1.265 . S
O866 C865 1.227 . S
N867 Co864 2.121 . S
N867 C869 1.375 1_556 S
N867 C870 1.313 . S
C868 C869 1.338 . S
C868 N871 1.377 . S
C868 H888 0.930 . S
C869 N867 1.375 1_554 S
C869 C868 1.338 . S
C869 H873 0.931 1_554 S
C870 N867 1.313 . S
C870 N871 1.344 1_556 S
C870 H874 0.930 . S
N871 C868 1.377 . S
N871 C870 1.344 1_554 S
O872 Co864 2.055 . S
O872 C876 1.253 . S
H873 C869 0.931 1_556 S
H874 C870 0.930 . S
O875 Co864 2.039 . S
O875 C865 1.265 . S
C876 O872 1.253 . S
C876 O877 1.227 . S
O877 C876 1.227 . S
N878 Co864 2.140 . S
N878 C881 1.346 . S
N878 C882 1.345 . S
C879 C880 1.387 . S
C879 C883 1.391 . S
C880 C879 1.387 . S
C880 C881 1.369 . S
C880 H889 0.929 . S
C881 N878 1.346 . S
C881 C880 1.369 . S
C881 H884 0.928 . S
C882 N878 1.345 . S
C882 C883 1.371 . S
C882 H885 0.931 . S
C883 C879 1.391 . S
C883 C882 1.371 . S
C883 H890 0.930 . S
H884 C881 0.928 . S
H885 C882 0.931 . S
H886 C862 0.930 . S
H887 C859 0.930 . S
H888 C868 0.930 . S
H889 C880 0.929 . S
H890 C883 0.930 . S
C891 C892 1.351 . S
C891 N894 1.368 . S
C891 H896 0.931 . S
C892 C891 1.351 . S
C892 N893 1.373 . S
C892 H920 0.930 . S
N893 C892 1.373 . S
N893 C895 1.340 . S
N894 C891 1.368 . S
N894 C895 1.321 . S
N894 Co897 2.135 . S
C895 N893 1.340 . S
C895 N894 1.321 . S
C895 H919 0.930 . S
H896 C891 0.931 . S
Co897 N894 2.135 . S
Co897 N900 2.121 . S
Co897 O905 2.055 . S
Co897 O908 2.039 . S
Co897 N911 2.140 . S
C898 O899 1.227 . S
C898 O908 1.265 . S
O899 C898 1.227 . S
N900 Co897 2.121 . S
N900 C902 1.375 . S
N900 C903 1.313 . S
C901 C902 1.338 . S
C901 N904 1.377 . S
C901 H921 0.930 . S
C902 N900 1.375 . S
C902 C901 1.338 . S
C902 H906 0.931 . S
C903 N900 1.313 . S
C903 N904 1.344 . S
C903 H907 0.930 . S
N904 C901 1.377 . S
N904 C903 1.344 . S
O905 Co897 2.055 . S
O905 C909 1.253 . S
H906 C902 0.931 . S
H907 C903 0.930 . S
O908 Co897 2.039 . S
O908 C898 1.265 . S
C909 O905 1.253 . S
C909 O910 1.227 . S
O910 C909 1.227 . S
N911 Co897 2.140 . S
N911 C914 1.346 . S
N911 C915 1.345 . S
C912 C913 1.387 . S
C912 C916 1.391 . S
C913 C912 1.387 . S
C913 C914 1.369 . S
C913 H922 0.929 . S
C914 N911 1.346 . S
C914 C913 1.369 . S
C914 H917 0.928 . S
C915 N911 1.345 . S
C915 C916 1.371 . S
C915 H918 0.931 . S
C916 C912 1.391 . S
C916 C915 1.371 . S
C916 H923 0.930 . S
H917 C914 0.928 . S
H918 C915 0.931 . S
H919 C895 0.930 . S
H920 C892 0.930 . S
H921 C901 0.930 . S
H922 C913 0.929 . S
H923 C916 0.930 . S
C924 C925 1.351 . S
C924 N927 1.368 . S
C924 H929 0.931 . S
C925 C924 1.351 . S
C925 N926 1.373 . S
C925 H953 0.930 . S
N926 C925 1.373 . S
N926 C928 1.340 . S
N927 C924 1.368 . S
N927 C928 1.321 . S
N927 Co930 2.135 . S
C928 N926 1.340 . S
C928 N927 1.321 . S
C928 H952 0.930 . S
H929 C924 0.931 . S
Co930 N927 2.135 . S
Co930 N933 2.121 . S
Co930 O938 2.055 . S
Co930 O941 2.039 . S
Co930 N944 2.140 . S
C931 O932 1.227 . S
C931 O941 1.265 . S
O932 C931 1.227 . S
N933 Co930 2.121 . S
N933 C935 1.375 . S
N933 C936 1.313 . S
C934 C935 1.338 . S
C934 N937 1.377 . S
C934 H954 0.930 . S
C935 N933 1.375 . S
C935 C934 1.338 . S
C935 H939 0.931 . S
C936 N933 1.313 . S
C936 N937 1.344 . S
C936 H940 0.930 . S
N937 C934 1.377 . S
N937 C936 1.344 . S
O938 Co930 2.055 . S
O938 C942 1.253 . S
H939 C935 0.931 . S
H940 C936 0.930 . S
O941 Co930 2.039 . S
O941 C931 1.265 . S
C942 O938 1.253 . S
C942 O943 1.227 . S
O943 C942 1.227 . S
N944 Co930 2.140 . S
N944 C947 1.346 . S
N944 C948 1.345 . S
C945 C946 1.387 . S
C945 C949 1.391 . S
C946 C945 1.387 . S
C946 C947 1.369 . S
C946 H955 0.929 . S
C947 N944 1.346 . S
C947 C946 1.369 . S
C947 H950 0.928 . S
C948 N944 1.345 . S
C948 C949 1.371 . S
C948 H951 0.931 . S
C949 C945 1.391 . S
C949 C948 1.371 . S
C949 H956 0.930 . S
H950 C947 0.928 . S
H951 C948 0.931 . S
H952 C928 0.930 . S
H953 C925 0.930 . S
H954 C934 0.930 . S
H955 C946 0.929 . S
H956 C949 0.930 . S
C957 C958 1.351 . S
C957 N960 1.368 . S
C957 H962 0.931 . S
C958 C957 1.351 . S
C958 N959 1.373 . S
C958 H986 0.930 . S
N959 C958 1.373 . S
N959 C961 1.340 . S
N960 C957 1.368 . S
N960 C961 1.321 . S
N960 Co963 2.135 . S
C961 N959 1.340 . S
C961 N960 1.321 . S
C961 H985 0.930 . S
H962 C957 0.931 . S
Co963 N960 2.135 . S
Co963 N966 2.121 . S
Co963 O971 2.055 . S
Co963 O974 2.039 . S
Co963 N977 2.140 . S
C964 O965 1.227 . S
C964 O974 1.265 . S
O965 C964 1.227 . S
N966 Co963 2.121 . S
N966 C968 1.375 . S
N966 C969 1.313 . S
C967 C968 1.338 . S
C967 N970 1.377 . S
C967 H987 0.930 . S
C968 N966 1.375 . S
C968 C967 1.338 . S
C968 H972 0.931 . S
C969 N966 1.313 . S
C969 N970 1.344 . S
C969 H973 0.930 . S
N970 C967 1.377 . S
N970 C969 1.344 . S
O971 Co963 2.055 . S
O971 C975 1.253 . S
H972 C968 0.931 . S
H973 C969 0.930 . S
O974 Co963 2.039 . S
O974 C964 1.265 . S
C975 O971 1.253 . S
C975 O976 1.227 . S
O976 C975 1.227 . S
N977 Co963 2.140 . S
N977 C980 1.346 . S
N977 C981 1.345 . S
C978 C979 1.387 . S
C978 C982 1.391 . S
C979 C978 1.387 . S
C979 C980 1.369 . S
C979 H988 0.929 . S
C980 N977 1.346 . S
C980 C979 1.369 . S
C980 H983 0.928 . S
C981 N977 1.345 . S
C981 C982 1.371 . S
C981 H984 0.931 . S
C982 C978 1.391 . S
C982 C981 1.371 . S
C982 H989 0.930 . S
H983 C980 0.928 . S
H984 C981 0.931 . S
H985 C961 0.930 . S
H986 C958 0.930 . S
H987 C967 0.930 . S
H988 C979 0.929 . S
H989 C982 0.930 . S
C990 C991 1.351 . S
C990 N993 1.368 . S
C990 H995 0.931 . S
C991 C990 1.351 . S
C991 N992 1.373 . S
C991 H1019 0.930 . S
N992 C991 1.373 . S
N992 C994 1.340 . S
N993 C990 1.368 . S
N993 C994 1.321 . S
N993 Co996 2.135 . S
C994 N992 1.340 . S
C994 N993 1.321 . S
C994 H1018 0.930 . S
H995 C990 0.931 . S
Co996 N993 2.135 . S
Co996 N999 2.121 . S
Co996 O1004 2.055 . S
Co996 O1007 2.039 . S
Co996 N1010 2.140 . S
C997 O998 1.227 . S
C997 O1007 1.265 . S
O998 C997 1.227 . S
N999 Co996 2.121 . S
N999 C1001 1.375 1_554 S
N999 C1002 1.313 . S
C1000 C1001 1.338 . S
C1000 N1003 1.377 . S
C1000 H1020 0.930 . S
C1001 N999 1.375 1_556 S
C1001 C1000 1.338 . S
C1001 H1005 0.931 1_556 S
C1002 N999 1.313 . S
C1002 N1003 1.344 1_554 S
C1002 H1006 0.930 . S
N1003 C1000 1.377 . S
N1003 C1002 1.344 1_556 S
O1004 Co996 2.055 . S
O1004 C1008 1.253 . S
H1005 C1001 0.931 1_554 S
H1006 C1002 0.930 . S
O1007 Co996 2.039 . S
O1007 C997 1.265 . S
C1008 O1004 1.253 . S
C1008 O1009 1.227 . S
O1009 C1008 1.227 . S
N1010 Co996 2.140 . S
N1010 C1013 1.346 . S
N1010 C1014 1.345 . S
C1011 C1012 1.387 . S
C1011 C1015 1.391 . S
C1012 C1011 1.387 . S
C1012 C1013 1.369 . S
C1012 H1021 0.929 . S
C1013 N1010 1.346 . S
C1013 C1012 1.369 . S
C1013 H1016 0.928 . S
C1014 N1010 1.345 . S
C1014 C1015 1.371 . S
C1014 H1017 0.931 . S
C1015 C1011 1.391 . S
C1015 C1014 1.371 . S
C1015 H1022 0.930 . S
H1016 C1013 0.928 . S
H1017 C1014 0.931 . S
H1018 C994 0.930 . S
H1019 C991 0.930 . S
H1020 C1000 0.930 . S
H1021 C1012 0.929 . S
H1022 C1015 0.930 . S
C1023 C1024 1.351 . S
C1023 N1026 1.368 . S
C1023 H1028 0.931 . S
C1024 C1023 1.351 . S
C1024 N1025 1.373 . S
C1024 H1052 0.930 . S
N1025 C1024 1.373 . S
N1025 C1027 1.340 . S
N1026 C1023 1.368 . S
N1026 C1027 1.321 . S
N1026 Co1029 2.135 . S
C1027 N1025 1.340 . S
C1027 N1026 1.321 . S
C1027 H1051 0.930 . S
H1028 C1023 0.931 . S
Co1029 N1026 2.135 . S
Co1029 N1032 2.121 . S
Co1029 O1037 2.055 . S
Co1029 O1040 2.039 . S
Co1029 N1043 2.140 . S
C1030 O1031 1.227 . S
C1030 O1040 1.265 . S
O1031 C1030 1.227 . S
N1032 Co1029 2.121 . S
N1032 C1034 1.375 . S
N1032 C1035 1.313 . S
C1033 C1034 1.338 . S
C1033 N1036 1.377 . S
C1033 H1053 0.930 . S
C1034 N1032 1.375 . S
C1034 C1033 1.338 . S
C1034 H1038 0.931 . S
C1035 N1032 1.313 . S
C1035 N1036 1.344 . S
C1035 H1039 0.930 . S
N1036 C1033 1.377 . S
N1036 C1035 1.344 . S
O1037 Co1029 2.055 . S
O1037 C1041 1.253 . S
H1038 C1034 0.931 . S
H1039 C1035 0.930 . S
O1040 Co1029 2.039 . S
O1040 C1030 1.265 . S
C1041 O1037 1.253 . S
C1041 O1042 1.227 . S
O1042 C1041 1.227 . S
N1043 Co1029 2.140 . S
N1043 C1046 1.346 . S
N1043 C1047 1.345 . S
C1044 C1045 1.387 . S
C1044 C1048 1.391 . S
C1045 C1044 1.387 . S
C1045 C1046 1.369 . S
C1045 H1054 0.929 . S
C1046 N1043 1.346 . S
C1046 C1045 1.369 . S
C1046 H1049 0.928 . S
C1047 N1043 1.345 . S
C1047 C1048 1.371 . S
C1047 H1050 0.931 . S
C1048 C1044 1.391 . S
C1048 C1047 1.371 . S
C1048 H1055 0.930 . S
H1049 C1046 0.928 . S
H1050 C1047 0.931 . S
H1051 C1027 0.930 . S
H1052 C1024 0.930 . S
H1053 C1033 0.930 . S
H1054 C1045 0.929 . S
H1055 C1048 0.930 . S
C1056 C1057 1.387 . S
C1056 H1060 0.950 . S
C1056 C1065 1.390 . S
C1057 C1056 1.387 . S
C1057 C1059 1.387 . S
H1058 C1065 0.950 . S
C1059 C1057 1.387 . S
C1059 C1061 1.390 . S
C1059 H1063 0.950 . S
H1060 C1056 0.950 . S
C1061 C1059 1.390 . S
C1061 C1062 1.387 . S
C1061 H1064 0.950 . S
C1062 C1061 1.387 . S
C1062 C1065 1.387 . S
H1063 C1059 0.950 . S
H1064 C1061 0.950 . S
C1065 C1056 1.390 . S
C1065 H1058 0.950 . S
C1065 C1062 1.387 . S
C1066 C1067 1.387 . S
C1066 H1070 0.950 . S
C1066 C1075 1.390 . S
C1067 C1066 1.387 . S
C1067 C1069 1.387 . S
H1068 C1075 0.950 . S
C1069 C1067 1.387 . S
C1069 C1071 1.390 . S
C1069 H1073 0.950 . S
H1070 C1066 0.950 . S
C1071 C1069 1.390 . S
C1071 C1072 1.387 . S
C1071 H1074 0.950 . S
C1072 C1071 1.387 . S
C1072 C1075 1.387 . S
H1073 C1069 0.950 . S
H1074 C1071 0.950 . S
C1075 C1066 1.390 . S
C1075 H1068 0.950 . S
C1075 C1072 1.387 . S
C1076 C1077 1.387 . S
C1076 H1080 0.950 . S
C1076 C1085 1.390 . S
C1077 C1076 1.387 . S
C1077 C1079 1.387 . S
H1078 C1085 0.950 . S
C1079 C1077 1.387 . S
C1079 C1081 1.390 . S
C1079 H1083 0.950 . S
H1080 C1076 0.950 . S
C1081 C1079 1.390 . S
C1081 C1082 1.387 . S
C1081 H1084 0.950 . S
C1082 C1081 1.387 . S
C1082 C1085 1.387 . S
H1083 C1079 0.950 . S
H1084 C1081 0.950 . S
C1085 C1076 1.390 . S
C1085 H1078 0.950 . S
C1085 C1082 1.387 . S
C1086 C1087 1.387 . S
C1086 H1090 0.950 . S
C1086 C1095 1.390 . S
C1087 C1086 1.387 . S
C1087 C1089 1.387 . S
H1088 C1095 0.950 . S
C1089 C1087 1.387 . S
C1089 C1091 1.390 . S
C1089 H1093 0.950 . S
H1090 C1086 0.950 . S
C1091 C1089 1.390 . S
C1091 C1092 1.387 . S
C1091 H1094 0.950 . S
C1092 C1091 1.387 . S
C1092 C1095 1.387 . S
H1093 C1089 0.950 . S
H1094 C1091 0.950 . S
C1095 C1086 1.390 . S
C1095 H1088 0.950 . S
C1095 C1092 1.387 . S
C1096 C1097 1.387 . S
C1096 H1100 0.950 . S
C1096 C1105 1.390 . S
C1097 C1096 1.387 . S
C1097 C1099 1.387 . S
H1098 C1105 0.950 . S
C1099 C1097 1.387 . S
C1099 C1101 1.390 . S
C1099 H1103 0.950 . S
H1100 C1096 0.950 . S
C1101 C1099 1.390 . S
C1101 C1102 1.387 . S
C1101 H1104 0.950 . S
C1102 C1101 1.387 . S
C1102 C1105 1.387 . S
H1103 C1099 0.950 . S
H1104 C1101 0.950 . S
C1105 C1096 1.390 . S
C1105 H1098 0.950 . S
C1105 C1102 1.387 . S
C1106 C1107 1.387 . S
C1106 H1110 0.950 . S
C1106 C1115 1.390 . S
C1107 C1106 1.387 . S
C1107 C1109 1.387 . S
H1108 C1115 0.950 . S
C1109 C1107 1.387 . S
C1109 C1111 1.390 . S
C1109 H1113 0.950 . S
H1110 C1106 0.950 . S
C1111 C1109 1.390 . S
C1111 C1112 1.387 . S
C1111 H1114 0.950 . S
C1112 C1111 1.387 . S
C1112 C1115 1.387 . S
H1113 C1109 0.950 . S
H1114 C1111 0.950 . S
C1115 C1106 1.390 . S
C1115 H1108 0.950 . S
C1115 C1112 1.387 . S
C1116 C1117 1.387 . S
C1116 H1120 0.950 . S
C1116 C1125 1.390 . S
C1117 C1116 1.387 . S
C1117 C1119 1.387 . S
H1118 C1125 0.950 . S
C1119 C1117 1.387 . S
C1119 C1121 1.390 . S
C1119 H1123 0.950 . S
H1120 C1116 0.950 . S
C1121 C1119 1.390 . S
C1121 C1122 1.387 . S
C1121 H1124 0.950 . S
C1122 C1121 1.387 . S
C1122 C1125 1.387 . S
H1123 C1119 0.950 . S
H1124 C1121 0.950 . S
C1125 C1116 1.390 . S
C1125 H1118 0.950 . S
C1125 C1122 1.387 . S
C1126 C1127 1.387 . S
C1126 H1130 0.950 . S
C1126 C1135 1.390 . S
C1127 C1126 1.387 . S
C1127 C1129 1.387 . S
H1128 C1135 0.950 . S
C1129 C1127 1.387 . S
C1129 C1131 1.390 . S
C1129 H1133 0.950 . S
H1130 C1126 0.950 . S
C1131 C1129 1.390 . S
C1131 C1132 1.387 . S
C1131 H1134 0.950 . S
C1132 C1131 1.387 . S
C1132 C1135 1.387 . S
H1133 C1129 0.950 . S
H1134 C1131 0.950 . S
C1135 C1126 1.390 . S
C1135 H1128 0.950 . S
C1135 C1132 1.387 . S
C1136 C1137 1.387 . S
C1136 H1140 0.950 . S
C1136 C1145 1.390 . S
C1137 C1136 1.387 . S
C1137 C1139 1.387 . S
H1138 C1145 0.950 . S
C1139 C1137 1.387 . S
C1139 C1141 1.390 . S
C1139 H1143 0.950 . S
H1140 C1136 0.950 . S
C1141 C1139 1.390 . S
C1141 C1142 1.387 . S
C1141 H1144 0.950 . S
C1142 C1141 1.387 . S
C1142 C1145 1.387 . S
H1143 C1139 0.950 . S
H1144 C1141 0.950 . S
C1145 C1136 1.390 . S
C1145 H1138 0.950 . S
C1145 C1142 1.387 . S
C1146 C1147 1.387 . S
C1146 H1150 0.950 . S
C1146 C1155 1.390 . S
C1147 C1146 1.387 . S
C1147 C1149 1.387 . S
H1148 C1155 0.950 . S
C1149 C1147 1.387 . S
C1149 C1151 1.390 . S
C1149 H1153 0.950 . S
H1150 C1146 0.950 . S
C1151 C1149 1.390 . S
C1151 C1152 1.387 . S
C1151 H1154 0.950 . S
C1152 C1151 1.387 . S
C1152 C1155 1.387 . S
H1153 C1149 0.950 . S
H1154 C1151 0.950 . S
C1155 C1146 1.390 . S
C1155 H1148 0.950 . S
C1155 C1152 1.387 . S
C1156 C1157 1.387 . S
C1156 H1160 0.950 . S
C1156 C1165 1.390 . S
C1157 C1156 1.387 . S
C1157 C1159 1.387 . S
H1158 C1165 0.950 . S
C1159 C1157 1.387 . S
C1159 C1161 1.390 . S
C1159 H1163 0.950 . S
H1160 C1156 0.950 . S
C1161 C1159 1.390 . S
C1161 C1162 1.387 . S
C1161 H1164 0.950 . S
C1162 C1161 1.387 . S
C1162 C1165 1.387 . S
H1163 C1159 0.950 . S
H1164 C1161 0.950 . S
C1165 C1156 1.390 . S
C1165 H1158 0.950 . S
C1165 C1162 1.387 . S
C1166 C1167 1.387 . S
C1166 H1170 0.950 . S
C1166 C1175 1.390 . S
C1167 C1166 1.387 . S
C1167 C1169 1.387 . S
H1168 C1175 0.950 . S
C1169 C1167 1.387 . S
C1169 C1171 1.390 . S
C1169 H1173 0.950 . S
H1170 C1166 0.950 . S
C1171 C1169 1.390 . S
C1171 C1172 1.387 . S
C1171 H1174 0.950 . S
C1172 C1171 1.387 . S
C1172 C1175 1.387 . S
H1173 C1169 0.950 . S
H1174 C1171 0.950 . S
C1175 C1166 1.390 . S
C1175 H1168 0.950 . S
C1175 C1172 1.387 . S
C1176 C1177 1.387 . S
C1176 H1180 0.950 . S
C1176 C1185 1.390 . S
C1177 C1176 1.387 . S
C1177 C1179 1.387 . S
H1178 C1185 0.950 . S
C1179 C1177 1.387 . S
C1179 C1181 1.390 . S
C1179 H1183 0.950 . S
H1180 C1176 0.950 . S
C1181 C1179 1.390 . S
C1181 C1182 1.387 . S
C1181 H1184 0.950 . S
C1182 C1181 1.387 . S
C1182 C1185 1.387 . S
H1183 C1179 0.950 . S
H1184 C1181 0.950 . S
C1185 C1176 1.390 . S
C1185 H1178 0.950 . S
C1185 C1182 1.387 . S
C1186 C1187 1.387 . S
C1186 H1190 0.950 . S
C1186 C1195 1.390 . S
C1187 C1186 1.387 . S
C1187 C1189 1.387 . S
H1188 C1195 0.950 . S
C1189 C1187 1.387 . S
C1189 C1191 1.390 . S
C1189 H1193 0.950 . S
H1190 C1186 0.950 . S
C1191 C1189 1.390 . S
C1191 C1192 1.387 . S
C1191 H1194 0.950 . S
C1192 C1191 1.387 . S
C1192 C1195 1.387 . S
H1193 C1189 0.950 . S
H1194 C1191 0.950 . S
C1195 C1186 1.390 . S
C1195 H1188 0.950 . S
C1195 C1192 1.387 . S
C1196 C1197 1.387 . S
C1196 H1200 0.950 . S
C1196 C1205 1.390 . S
C1197 C1196 1.387 . S
C1197 C1199 1.387 . S
H1198 C1205 0.950 . S
C1199 C1197 1.387 . S
C1199 C1201 1.390 . S
C1199 H1203 0.950 . S
H1200 C1196 0.950 . S
C1201 C1199 1.390 . S
C1201 C1202 1.387 . S
C1201 H1204 0.950 . S
C1202 C1201 1.387 . S
C1202 C1205 1.387 . S
H1203 C1199 0.950 . S
H1204 C1201 0.950 . S
C1205 C1196 1.390 . S
C1205 H1198 0.950 . S
C1205 C1202 1.387 . S
C1206 C1207 1.387 . S
C1206 H1210 0.950 . S
C1206 C1215 1.390 . S
C1207 C1206 1.387 . S
C1207 C1209 1.387 . S
H1208 C1215 0.950 . S
C1209 C1207 1.387 . S
C1209 C1211 1.390 . S
C1209 H1213 0.950 . S
H1210 C1206 0.950 . S
C1211 C1209 1.390 . S
C1211 C1212 1.387 . S
C1211 H1214 0.950 . S
C1212 C1211 1.387 . S
C1212 C1215 1.387 . S
H1213 C1209 0.950 . S
H1214 C1211 0.950 . S
C1215 C1206 1.390 . S
C1215 H1208 0.950 . S
C1215 C1212 1.387 . S
C1216 C1217 1.387 . S
C1216 H1220 0.950 . S
C1216 C1225 1.390 . S
C1217 C1216 1.387 . S
C1217 C1219 1.387 . S
H1218 C1225 0.950 . S
C1219 C1217 1.387 . S
C1219 C1221 1.390 . S
C1219 H1223 0.950 . S
H1220 C1216 0.950 . S
C1221 C1219 1.390 . S
C1221 C1222 1.387 . S
C1221 H1224 0.950 . S
C1222 C1221 1.387 . S
C1222 C1225 1.387 . S
H1223 C1219 0.950 . S
H1224 C1221 0.950 . S
C1225 C1216 1.390 . S
C1225 H1218 0.950 . S
C1225 C1222 1.387 . S
C1226 C1227 1.387 . S
C1226 H1230 0.950 . S
C1226 C1235 1.390 . S
C1227 C1226 1.387 . S
C1227 C1229 1.387 . S
H1228 C1235 0.950 . S
C1229 C1227 1.387 . S
C1229 C1231 1.390 . S
C1229 H1233 0.950 . S
H1230 C1226 0.950 . S
C1231 C1229 1.390 . S
C1231 C1232 1.387 . S
C1231 H1234 0.950 . S
C1232 C1231 1.387 . S
C1232 C1235 1.387 . S
H1233 C1229 0.950 . S
H1234 C1231 0.950 . S
C1235 C1226 1.390 . S
C1235 H1228 0.950 . S
C1235 C1232 1.387 . S
C1236 C1237 1.387 . S
C1236 H1240 0.950 . S
C1236 C1245 1.390 . S
C1237 C1236 1.387 . S
C1237 C1239 1.387 . S
H1238 C1245 0.950 . S
C1239 C1237 1.387 . S
C1239 C1241 1.390 . S
C1239 H1243 0.950 . S
H1240 C1236 0.950 . S
C1241 C1239 1.390 . S
C1241 C1242 1.387 . S
C1241 H1244 0.950 . S
C1242 C1241 1.387 . S
C1242 C1245 1.387 . S
H1243 C1239 0.950 . S
H1244 C1241 0.950 . S
C1245 C1236 1.390 . S
C1245 H1238 0.950 . S
C1245 C1242 1.387 . S
C1246 C1247 1.387 . S
C1246 H1250 0.950 . S
C1246 C1255 1.390 . S
C1247 C1246 1.387 . S
C1247 C1249 1.387 . S
H1248 C1255 0.950 . S
C1249 C1247 1.387 . S
C1249 C1251 1.390 . S
C1249 H1253 0.950 . S
H1250 C1246 0.950 . S
C1251 C1249 1.390 . S
C1251 C1252 1.387 . S
C1251 H1254 0.950 . S
C1252 C1251 1.387 . S
C1252 C1255 1.387 . S
H1253 C1249 0.950 . S
H1254 C1251 0.950 . S
C1255 C1246 1.390 . S
C1255 H1248 0.950 . S
C1255 C1252 1.387 . S
C1256 C1257 1.387 . S
C1256 H1260 0.950 . S
C1256 C1265 1.390 . S
C1257 C1256 1.387 . S
C1257 C1259 1.387 . S
H1258 C1265 0.950 . S
C1259 C1257 1.387 . S
C1259 C1261 1.390 . S
C1259 H1263 0.950 . S
H1260 C1256 0.950 . S
C1261 C1259 1.390 . S
C1261 C1262 1.387 . S
C1261 H1264 0.950 . S
C1262 C1261 1.387 . S
C1262 C1265 1.387 . S
H1263 C1259 0.950 . S
H1264 C1261 0.950 . S
C1265 C1256 1.390 . S
C1265 H1258 0.950 . S
C1265 C1262 1.387 . S
C1266 C1267 1.387 . S
C1266 H1270 0.950 . S
C1266 C1275 1.390 . S
C1267 C1266 1.387 . S
C1267 C1269 1.387 . S
H1268 C1275 0.950 . S
C1269 C1267 1.387 . S
C1269 C1271 1.390 . S
C1269 H1273 0.950 . S
H1270 C1266 0.950 . S
C1271 C1269 1.390 . S
C1271 C1272 1.387 . S
C1271 H1274 0.950 . S
C1272 C1271 1.387 . S
C1272 C1275 1.387 . S
H1273 C1269 0.950 . S
H1274 C1271 0.950 . S
C1275 C1266 1.390 . S
C1275 H1268 0.950 . S
C1275 C1272 1.387 . S
C1276 C1277 1.387 . S
C1276 H1280 0.950 . S
C1276 C1285 1.390 . S
C1277 C1276 1.387 . S
C1277 C1279 1.387 . S
H1278 C1285 0.950 . S
C1279 C1277 1.387 . S
C1279 C1281 1.390 . S
C1279 H1283 0.950 . S
H1280 C1276 0.950 . S
C1281 C1279 1.390 . S
C1281 C1282 1.387 . S
C1281 H1284 0.950 . S
C1282 C1281 1.387 . S
C1282 C1285 1.387 . S
H1283 C1279 0.950 . S
H1284 C1281 0.950 . S
C1285 C1276 1.390 . S
C1285 H1278 0.950 . S
C1285 C1282 1.387 . S
C1286 C1287 1.387 . S
C1286 H1290 0.950 . S
C1286 C1295 1.390 . S
C1287 C1286 1.387 . S
C1287 C1289 1.387 . S
H1288 C1295 0.950 . S
C1289 C1287 1.387 . S
C1289 C1291 1.390 . S
C1289 H1293 0.950 . S
H1290 C1286 0.950 . S
C1291 C1289 1.390 . S
C1291 C1292 1.387 . S
C1291 H1294 0.950 . S
C1292 C1291 1.387 . S
C1292 C1295 1.387 . S
H1293 C1289 0.950 . S
H1294 C1291 0.950 . S
C1295 C1286 1.390 . S
C1295 H1288 0.950 . S
C1295 C1292 1.387 . S
C1296 C1297 1.387 . S
C1296 H1300 0.950 . S
C1296 C1305 1.390 . S
C1297 C1296 1.387 . S
C1297 C1299 1.387 . S
H1298 C1305 0.950 . S
C1299 C1297 1.387 . S
C1299 C1301 1.390 . S
C1299 H1303 0.950 . S
H1300 C1296 0.950 . S
C1301 C1299 1.390 . S
C1301 C1302 1.387 . S
C1301 H1304 0.950 . S
C1302 C1301 1.387 . S
C1302 C1305 1.387 . S
H1303 C1299 0.950 . S
H1304 C1301 0.950 . S
C1305 C1296 1.390 . S
C1305 H1298 0.950 . S
C1305 C1302 1.387 . S
C1306 C1307 1.387 . S
C1306 H1310 0.950 . S
C1306 C1315 1.390 . S
C1307 C1306 1.387 . S
C1307 C1309 1.387 . S
H1308 C1315 0.950 . S
C1309 C1307 1.387 . S
C1309 C1311 1.390 . S
C1309 H1313 0.950 . S
H1310 C1306 0.950 . S
C1311 C1309 1.390 . S
C1311 C1312 1.387 . S
C1311 H1314 0.950 . S
C1312 C1311 1.387 . S
C1312 C1315 1.387 . S
H1313 C1309 0.950 . S
H1314 C1311 0.950 . S
C1315 C1306 1.390 . S
C1315 H1308 0.950 . S
C1315 C1312 1.387 . S
C1316 C1317 1.387 . S
C1316 H1320 0.950 . S
C1316 C1325 1.390 . S
C1317 C1316 1.387 . S
C1317 C1319 1.387 . S
H1318 C1325 0.950 . S
C1319 C1317 1.387 . S
C1319 C1321 1.390 . S
C1319 H1323 0.950 . S
H1320 C1316 0.950 . S
C1321 C1319 1.390 . S
C1321 C1322 1.387 . S
C1321 H1324 0.950 . S
C1322 C1321 1.387 . S
C1322 C1325 1.387 . S
H1323 C1319 0.950 . S
H1324 C1321 0.950 . S
C1325 C1316 1.390 . S
C1325 H1318 0.950 . S
C1325 C1322 1.387 . S
C1326 C1327 1.387 . S
C1326 H1330 0.950 . S
C1326 C1335 1.390 . S
C1327 C1326 1.387 . S
C1327 C1329 1.387 . S
H1328 C1335 0.950 . S
C1329 C1327 1.387 . S
C1329 C1331 1.390 . S
C1329 H1333 0.950 . S
H1330 C1326 0.950 . S
C1331 C1329 1.390 . S
C1331 C1332 1.387 . S
C1331 H1334 0.950 . S
C1332 C1331 1.387 . S
C1332 C1335 1.387 . S
H1333 C1329 0.950 . S
H1334 C1331 0.950 . S
C1335 C1326 1.390 . S
C1335 H1328 0.950 . S
C1335 C1332 1.387 . S
C1336 C1337 1.387 . S
C1336 H1340 0.950 . S
C1336 C1345 1.390 . S
C1337 C1336 1.387 . S
C1337 C1339 1.387 . S
H1338 C1345 0.950 . S
C1339 C1337 1.387 . S
C1339 C1341 1.390 . S
C1339 H1343 0.950 . S
H1340 C1336 0.950 . S
C1341 C1339 1.390 . S
C1341 C1342 1.387 . S
C1341 H1344 0.950 . S
C1342 C1341 1.387 . S
C1342 C1345 1.387 . S
H1343 C1339 0.950 . S
H1344 C1341 0.950 . S
C1345 C1336 1.390 . S
C1345 H1338 0.950 . S
C1345 C1342 1.387 . S
C1346 C1347 1.387 . S
C1346 H1350 0.950 . S
C1346 C1355 1.390 . S
C1347 C1346 1.387 . S
C1347 C1349 1.387 . S
H1348 C1355 0.950 . S
C1349 C1347 1.387 . S
C1349 C1351 1.390 . S
C1349 H1353 0.950 . S
H1350 C1346 0.950 . S
C1351 C1349 1.390 . S
C1351 C1352 1.387 . S
C1351 H1354 0.950 . S
C1352 C1351 1.387 . S
C1352 C1355 1.387 . S
H1353 C1349 0.950 . S
H1354 C1351 0.950 . S
C1355 C1346 1.390 . S
C1355 H1348 0.950 . S
C1355 C1352 1.387 . S
C1356 C1357 1.387 . S
C1356 H1360 0.950 . S
C1356 C1365 1.390 . S
C1357 C1356 1.387 . S
C1357 C1359 1.387 . S
H1358 C1365 0.950 . S
C1359 C1357 1.387 . S
C1359 C1361 1.390 . S
C1359 H1363 0.950 . S
H1360 C1356 0.950 . S
C1361 C1359 1.390 . S
C1361 C1362 1.387 . S
C1361 H1364 0.950 . S
C1362 C1361 1.387 . S
C1362 C1365 1.387 . S
H1363 C1359 0.950 . S
H1364 C1361 0.950 . S
C1365 C1356 1.390 . S
C1365 H1358 0.950 . S
C1365 C1362 1.387 . S
C1366 C1367 1.387 . S
C1366 H1370 0.950 . S
C1366 C1375 1.390 . S
C1367 C1366 1.387 . S
C1367 C1369 1.387 . S
H1368 C1375 0.950 . S
C1369 C1367 1.387 . S
C1369 C1371 1.390 . S
C1369 H1373 0.950 . S
H1370 C1366 0.950 . S
C1371 C1369 1.390 . S
C1371 C1372 1.387 . S
C1371 H1374 0.950 . S
C1372 C1371 1.387 . S
C1372 C1375 1.387 . S
H1373 C1369 0.950 . S
H1374 C1371 0.950 . S
C1375 C1366 1.390 . S
C1375 H1368 0.950 . S
C1375 C1372 1.387 . S
C1376 C1377 1.387 . S
C1376 H1380 0.950 . S
C1376 C1385 1.390 . S
C1377 C1376 1.387 . S
C1377 C1379 1.387 . S
H1378 C1385 0.950 . S
C1379 C1377 1.387 . S
C1379 C1381 1.390 . S
C1379 H1383 0.950 . S
H1380 C1376 0.950 . S
C1381 C1379 1.390 . S
C1381 C1382 1.387 . S
C1381 H1384 0.950 . S
C1382 C1381 1.387 . S
C1382 C1385 1.387 . S
H1383 C1379 0.950 . S
H1384 C1381 0.950 . S
C1385 C1376 1.390 . S
C1385 H1378 0.950 . S
C1385 C1382 1.387 . S
C1386 C1387 1.387 . S
C1386 H1390 0.950 . S
C1386 C1395 1.390 1_545 S
C1387 C1386 1.387 . S
C1387 C1389 1.387 . S
H1388 C1395 0.950 . S
C1389 C1387 1.387 . S
C1389 C1391 1.390 1_545 S
C1389 H1393 0.950 . S
H1390 C1386 0.950 . S
C1391 C1389 1.390 1_565 S
C1391 C1392 1.387 . S
C1391 H1394 0.950 . S
C1392 C1391 1.387 . S
C1392 C1395 1.387 . S
H1393 C1389 0.950 . S
H1394 C1391 0.950 . S
C1395 C1386 1.390 1_565 S
C1395 H1388 0.950 . S
C1395 C1392 1.387 . S
C1396 C1397 1.387 . S
C1396 H1400 0.950 . S
C1396 C1405 1.390 . S
C1397 C1396 1.387 . S
C1397 C1399 1.387 . S
H1398 C1405 0.950 . S
C1399 C1397 1.387 . S
C1399 C1401 1.390 . S
C1399 H1403 0.950 . S
H1400 C1396 0.950 . S
C1401 C1399 1.390 . S
C1401 C1402 1.387 . S
C1401 H1404 0.950 . S
C1402 C1401 1.387 . S
C1402 C1405 1.387 . S
H1403 C1399 0.950 . S
H1404 C1401 0.950 . S
C1405 C1396 1.390 . S
C1405 H1398 0.950 . S
C1405 C1402 1.387 . S
C1406 C1407 1.387 . S
C1406 H1410 0.950 . S
C1406 C1415 1.390 1_566 S
C1407 C1406 1.387 . S
C1407 C1409 1.387 . S
H1408 C1415 0.950 . S
C1409 C1407 1.387 . S
C1409 C1411 1.390 1_566 S
C1409 H1413 0.950 . S
H1410 C1406 0.950 . S
C1411 C1409 1.390 1_544 S
C1411 C1412 1.387 . S
C1411 H1414 0.950 . S
C1412 C1411 1.387 . S
C1412 C1415 1.387 . S
H1413 C1409 0.950 . S
H1414 C1411 0.950 . S
C1415 C1406 1.390 1_544 S
C1415 H1408 0.950 . S
C1415 C1412 1.387 . S
C1416 C1417 1.387 . S
C1416 H1420 0.950 . S
C1416 C1425 1.390 . S
C1417 C1416 1.387 . S
C1417 C1419 1.387 . S
H1418 C1425 0.950 . S
C1419 C1417 1.387 . S
C1419 C1421 1.390 . S
C1419 H1423 0.950 . S
H1420 C1416 0.950 . S
C1421 C1419 1.390 . S
C1421 C1422 1.387 . S
C1421 H1424 0.950 . S
C1422 C1421 1.387 . S
C1422 C1425 1.387 . S
H1423 C1419 0.950 . S
H1424 C1421 0.950 . S
C1425 C1416 1.390 . S
C1425 H1418 0.950 . S
C1425 C1422 1.387 . S
C1426 C1427 1.387 . S
C1426 H1430 0.950 . S
C1426 C1435 1.390 1_545 S
C1427 C1426 1.387 . S
C1427 C1429 1.387 . S
H1428 C1435 0.950 . S
C1429 C1427 1.387 . S
C1429 C1431 1.390 1_545 S
C1429 H1433 0.950 . S
H1430 C1426 0.950 . S
C1431 C1429 1.390 1_565 S
C1431 C1432 1.387 . S
C1431 H1434 0.950 . S
C1432 C1431 1.387 . S
C1432 C1435 1.387 . S
H1433 C1429 0.950 . S
H1434 C1431 0.950 . S
C1435 C1426 1.390 1_565 S
C1435 H1428 0.950 . S
C1435 C1432 1.387 . S
C1436 C1437 1.387 . S
C1436 H1440 0.950 . S
C1436 C1445 1.390 . S
C1437 C1436 1.387 . S
C1437 C1439 1.387 . S
H1438 C1445 0.950 . S
C1439 C1437 1.387 . S
C1439 C1441 1.390 . S
C1439 H1443 0.950 . S
H1440 C1436 0.950 . S
C1441 C1439 1.390 . S
C1441 C1442 1.387 . S
C1441 H1444 0.950 . S
C1442 C1441 1.387 . S
C1442 C1445 1.387 . S
H1443 C1439 0.950 . S
H1444 C1441 0.950 . S
C1445 C1436 1.390 . S
C1445 H1438 0.950 . S
C1445 C1442 1.387 . S
C1446 C1447 1.387 . S
C1446 H1450 0.950 . S
C1446 C1455 1.390 1_566 S
C1447 C1446 1.387 . S
C1447 C1449 1.387 . S
H1448 C1455 0.950 . S
C1449 C1447 1.387 . S
C1449 C1451 1.390 1_566 S
C1449 H1453 0.950 . S
H1450 C1446 0.950 . S
C1451 C1449 1.390 1_544 S
C1451 C1452 1.387 . S
C1451 H1454 0.950 . S
C1452 C1451 1.387 . S
C1452 C1455 1.387 . S
H1453 C1449 0.950 . S
H1454 C1451 0.950 . S
C1455 C1446 1.390 1_544 S
C1455 H1448 0.950 . S
C1455 C1452 1.387 . S
C1456 C1457 1.387 . S
C1456 H1460 0.950 . S
C1456 C1465 1.390 . S
C1457 C1456 1.387 . S
C1457 C1459 1.387 . S
H1458 C1465 0.950 . S
C1459 C1457 1.387 . S
C1459 C1461 1.390 . S
C1459 H1463 0.950 . S
H1460 C1456 0.950 . S
C1461 C1459 1.390 . S
C1461 C1462 1.387 . S
C1461 H1464 0.950 . S
C1462 C1461 1.387 . S
C1462 C1465 1.387 . S
H1463 C1459 0.950 . S
H1464 C1461 0.950 . S
C1465 C1456 1.390 . S
C1465 H1458 0.950 . S
C1465 C1462 1.387 . S
C1466 C1467 1.387 . S
C1466 H1470 0.950 . S
C1466 C1475 1.390 1_556 S
C1467 C1466 1.387 . S
C1467 C1469 1.387 . S
H1468 C1475 0.950 . S
C1469 C1467 1.387 . S
C1469 C1471 1.390 1_556 S
C1469 H1473 0.950 . S
H1470 C1466 0.950 . S
C1471 C1469 1.390 1_554 S
C1471 C1472 1.387 . S
C1471 H1474 0.950 . S
C1472 C1471 1.387 . S
C1472 C1475 1.387 . S
H1473 C1469 0.950 . S
H1474 C1471 0.950 . S
C1475 C1466 1.390 1_554 S
C1475 H1468 0.950 . S
C1475 C1472 1.387 . S
C1476 C1477 1.387 . S
C1476 H1480 0.950 . S
C1476 C1485 1.390 . S
C1477 C1476 1.387 . S
C1477 C1479 1.387 . S
H1478 C1485 0.950 . S
C1479 C1477 1.387 . S
C1479 C1481 1.390 . S
C1479 H1483 0.950 . S
H1480 C1476 0.950 . S
C1481 C1479 1.390 . S
C1481 C1482 1.387 . S
C1481 H1484 0.950 . S
C1482 C1481 1.387 . S
C1482 C1485 1.387 . S
H1483 C1479 0.950 . S
H1484 C1481 0.950 . S
C1485 C1476 1.390 . S
C1485 H1478 0.950 . S
C1485 C1482 1.387 . S
C1486 C1487 1.387 . S
C1486 H1490 0.950 . S
C1486 C1495 1.390 . S
C1487 C1486 1.387 . S
C1487 C1489 1.387 . S
H1488 C1495 0.950 . S
C1489 C1487 1.387 . S
C1489 C1491 1.390 . S
C1489 H1493 0.950 . S
H1490 C1486 0.950 . S
C1491 C1489 1.390 . S
C1491 C1492 1.387 . S
C1491 H1494 0.950 . S
C1492 C1491 1.387 . S
C1492 C1495 1.387 . S
H1493 C1489 0.950 . S
H1494 C1491 0.950 . S
C1495 C1486 1.390 . S
C1495 H1488 0.950 . S
C1495 C1492 1.387 . S
C1496 C1497 1.387 . S
C1496 H1500 0.950 . S
C1496 C1505 1.390 . S
C1497 C1496 1.387 . S
C1497 C1499 1.387 . S
H1498 C1505 0.950 . S
C1499 C1497 1.387 . S
C1499 C1501 1.390 . S
C1499 H1503 0.950 . S
H1500 C1496 0.950 . S
C1501 C1499 1.390 . S
C1501 C1502 1.387 . S
C1501 H1504 0.950 . S
C1502 C1501 1.387 . S
C1502 C1505 1.387 . S
H1503 C1499 0.950 . S
H1504 C1501 0.950 . S
C1505 C1496 1.390 . S
C1505 H1498 0.950 . S
C1505 C1502 1.387 . S
C1506 C1507 1.387 . S
C1506 H1510 0.950 . S
C1506 C1515 1.390 1_556 S
C1507 C1506 1.387 . S
C1507 C1509 1.387 . S
H1508 C1515 0.950 . S
C1509 C1507 1.387 . S
C1509 C1511 1.390 1_556 S
C1509 H1513 0.950 . S
H1510 C1506 0.950 . S
C1511 C1509 1.390 1_554 S
C1511 C1512 1.387 . S
C1511 H1514 0.950 . S
C1512 C1511 1.387 . S
C1512 C1515 1.387 . S
H1513 C1509 0.950 . S
H1514 C1511 0.950 . S
C1515 C1506 1.390 1_554 S
C1515 H1508 0.950 . S
C1515 C1512 1.387 . S
C1516 C1517 1.387 . S
C1516 H1520 0.950 . S
C1516 C1525 1.390 . S
C1517 C1516 1.387 . S
C1517 C1519 1.387 . S
H1518 C1525 0.950 . S
C1519 C1517 1.387 . S
C1519 C1521 1.390 . S
C1519 H1523 0.950 . S
H1520 C1516 0.950 . S
C1521 C1519 1.390 . S
C1521 C1522 1.387 . S
C1521 H1524 0.950 . S
C1522 C1521 1.387 . S
C1522 C1525 1.387 . S
H1523 C1519 0.950 . S
H1524 C1521 0.950 . S
C1525 C1516 1.390 . S
C1525 H1518 0.950 . S
C1525 C1522 1.387 . S
C1526 C1527 1.387 . S
C1526 H1530 0.950 . S
C1526 C1535 1.390 . S
C1527 C1526 1.387 . S
C1527 C1529 1.387 . S
H1528 C1535 0.950 . S
C1529 C1527 1.387 . S
C1529 C1531 1.390 . S
C1529 H1533 0.950 . S
H1530 C1526 0.950 . S
C1531 C1529 1.390 . S
C1531 C1532 1.387 . S
C1531 H1534 0.950 . S
C1532 C1531 1.387 . S
C1532 C1535 1.387 . S
H1533 C1529 0.950 . S
H1534 C1531 0.950 . S
C1535 C1526 1.390 . S
C1535 H1528 0.950 . S
C1535 C1532 1.387 . S
C1536 C1537 1.387 . S
C1536 H1540 0.950 . S
C1536 C1545 1.390 . S
C1537 C1536 1.387 . S
C1537 C1539 1.387 . S
H1538 C1545 0.950 . S
C1539 C1537 1.387 . S
C1539 C1541 1.390 . S
C1539 H1543 0.950 . S
H1540 C1536 0.950 . S
C1541 C1539 1.390 . S
C1541 C1542 1.387 . S
C1541 H1544 0.950 . S
C1542 C1541 1.387 . S
C1542 C1545 1.387 . S
H1543 C1539 0.950 . S
H1544 C1541 0.950 . S
C1545 C1536 1.390 . S
C1545 H1538 0.950 . S
C1545 C1542 1.387 . S
C1546 C1547 1.387 . S
C1546 H1550 0.950 . S
C1546 C1555 1.390 . S
C1547 C1546 1.387 . S
C1547 C1549 1.387 . S
H1548 C1555 0.950 . S
C1549 C1547 1.387 . S
C1549 C1551 1.390 . S
C1549 H1553 0.950 . S
H1550 C1546 0.950 . S
C1551 C1549 1.390 . S
C1551 C1552 1.387 . S
C1551 H1554 0.950 . S
C1552 C1551 1.387 . S
C1552 C1555 1.387 . S
H1553 C1549 0.950 . S
H1554 C1551 0.950 . S
C1555 C1546 1.390 . S
C1555 H1548 0.950 . S
C1555 C1552 1.387 . S
C1556 C1557 1.387 . S
C1556 H1560 0.950 . S
C1556 C1565 1.390 . S
C1557 C1556 1.387 . S
C1557 C1559 1.387 . S
H1558 C1565 0.950 . S
C1559 C1557 1.387 . S
C1559 C1561 1.390 . S
C1559 H1563 0.950 . S
H1560 C1556 0.950 . S
C1561 C1559 1.390 . S
C1561 C1562 1.387 . S
C1561 H1564 0.950 . S
C1562 C1561 1.387 . S
C1562 C1565 1.387 . S
H1563 C1559 0.950 . S
H1564 C1561 0.950 . S
C1565 C1556 1.390 . S
C1565 H1558 0.950 . S
C1565 C1562 1.387 . S
C1566 C1567 1.387 . S
C1566 H1570 0.950 . S
C1566 C1575 1.390 . S
C1567 C1566 1.387 . S
C1567 C1569 1.387 . S
H1568 C1575 0.950 . S
C1569 C1567 1.387 . S
C1569 C1571 1.390 . S
C1569 H1573 0.950 . S
H1570 C1566 0.950 . S
C1571 C1569 1.390 . S
C1571 C1572 1.387 . S
C1571 H1574 0.950 . S
C1572 C1571 1.387 . S
C1572 C1575 1.387 . S
H1573 C1569 0.950 . S
H1574 C1571 0.950 . S
C1575 C1566 1.390 . S
C1575 H1568 0.950 . S
C1575 C1572 1.387 . S
C1576 C1577 1.387 . S
C1576 H1580 0.950 . S
C1576 C1585 1.390 . S
C1577 C1576 1.387 . S
C1577 C1579 1.387 . S
H1578 C1585 0.950 . S
C1579 C1577 1.387 . S
C1579 C1581 1.390 . S
C1579 H1583 0.950 . S
H1580 C1576 0.950 . S
C1581 C1579 1.390 . S
C1581 C1582 1.387 . S
C1581 H1584 0.950 . S
C1582 C1581 1.387 . S
C1582 C1585 1.387 . S
H1583 C1579 0.950 . S
H1584 C1581 0.950 . S
C1585 C1576 1.390 . S
C1585 H1578 0.950 . S
C1585 C1582 1.387 . S
C1586 C1587 1.387 . S
C1586 H1590 0.950 . S
C1586 C1595 1.390 . S
C1587 C1586 1.387 . S
C1587 C1589 1.387 . S
H1588 C1595 0.950 . S
C1589 C1587 1.387 . S
C1589 C1591 1.390 . S
C1589 H1593 0.950 . S
H1590 C1586 0.950 . S
C1591 C1589 1.390 . S
C1591 C1592 1.387 . S
C1591 H1594 0.950 . S
C1592 C1591 1.387 . S
C1592 C1595 1.387 . S
H1593 C1589 0.950 . S
H1594 C1591 0.950 . S
C1595 C1586 1.390 . S
C1595 H1588 0.950 . S
C1595 C1592 1.387 . S
C1596 C1597 1.387 . S
C1596 H1600 0.950 . S
C1596 C1605 1.390 . S
C1597 C1596 1.387 . S
C1597 C1599 1.387 . S
H1598 C1605 0.950 . S
C1599 C1597 1.387 . S
C1599 C1601 1.390 . S
C1599 H1603 0.950 . S
H1600 C1596 0.950 . S
C1601 C1599 1.390 . S
C1601 C1602 1.387 . S
C1601 H1604 0.950 . S
C1602 C1601 1.387 . S
C1602 C1605 1.387 . S
H1603 C1599 0.950 . S
H1604 C1601 0.950 . S
C1605 C1596 1.390 . S
C1605 H1598 0.950 . S
C1605 C1602 1.387 . S
C1606 C1607 1.387 . S
C1606 H1610 0.950 . S
C1606 C1615 1.390 . S
C1607 C1606 1.387 . S
C1607 C1609 1.387 . S
H1608 C1615 0.950 . S
C1609 C1607 1.387 . S
C1609 C1611 1.390 . S
C1609 H1613 0.950 . S
H1610 C1606 0.950 . S
C1611 C1609 1.390 . S
C1611 C1612 1.387 . S
C1611 H1614 0.950 . S
C1612 C1611 1.387 . S
C1612 C1615 1.387 . S
H1613 C1609 0.950 . S
H1614 C1611 0.950 . S
C1615 C1606 1.390 . S
C1615 H1608 0.950 . S
C1615 C1612 1.387 . S
C1616 C1617 1.387 . S
C1616 H1620 0.950 . S
C1616 C1625 1.390 . S
C1617 C1616 1.387 . S
C1617 C1619 1.387 . S
H1618 C1625 0.950 . S
C1619 C1617 1.387 . S
C1619 C1621 1.390 . S
C1619 H1623 0.950 . S
H1620 C1616 0.950 . S
C1621 C1619 1.390 . S
C1621 C1622 1.387 . S
C1621 H1624 0.950 . S
C1622 C1621 1.387 . S
C1622 C1625 1.387 . S
H1623 C1619 0.950 . S
H1624 C1621 0.950 . S
C1625 C1616 1.390 . S
C1625 H1618 0.950 . S
C1625 C1622 1.387 . S
C1626 C1627 1.387 . S
C1626 H1630 0.950 . S
C1626 C1635 1.390 . S
C1627 C1626 1.387 . S
C1627 C1629 1.387 . S
H1628 C1635 0.950 . S
C1629 C1627 1.387 . S
C1629 C1631 1.390 . S
C1629 H1633 0.950 . S
H1630 C1626 0.950 . S
C1631 C1629 1.390 . S
C1631 C1632 1.387 . S
C1631 H1634 0.950 . S
C1632 C1631 1.387 . S
C1632 C1635 1.387 . S
H1633 C1629 0.950 . S
H1634 C1631 0.950 . S
C1635 C1626 1.390 . S
C1635 H1628 0.950 . S
C1635 C1632 1.387 . S
C1636 C1637 1.387 . S
C1636 H1640 0.950 . S
C1636 C1645 1.390 . S
C1637 C1636 1.387 . S
C1637 C1639 1.387 . S
H1638 C1645 0.950 . S
C1639 C1637 1.387 . S
C1639 C1641 1.390 . S
C1639 H1643 0.950 . S
H1640 C1636 0.950 . S
C1641 C1639 1.390 . S
C1641 C1642 1.387 . S
C1641 H1644 0.950 . S
C1642 C1641 1.387 . S
C1642 C1645 1.387 . S
H1643 C1639 0.950 . S
H1644 C1641 0.950 . S
C1645 C1636 1.390 . S
C1645 H1638 0.950 . S
C1645 C1642 1.387 . S
C1646 C1647 1.387 . S
C1646 H1650 0.950 . S
C1646 C1655 1.390 . S
C1647 C1646 1.387 . S
C1647 C1649 1.387 . S
H1648 C1655 0.950 . S
C1649 C1647 1.387 . S
C1649 C1651 1.390 . S
C1649 H1653 0.950 . S
H1650 C1646 0.950 . S
C1651 C1649 1.390 . S
C1651 C1652 1.387 . S
C1651 H1654 0.950 . S
C1652 C1651 1.387 . S
C1652 C1655 1.387 . S
H1653 C1649 0.950 . S
H1654 C1651 0.950 . S
C1655 C1646 1.390 . S
C1655 H1648 0.950 . S
C1655 C1652 1.387 . S
C1656 C1657 1.387 . S
C1656 H1660 0.950 . S
C1656 C1665 1.390 . S
C1657 C1656 1.387 . S
C1657 C1659 1.387 . S
H1658 C1665 0.950 . S
C1659 C1657 1.387 . S
C1659 C1661 1.390 . S
C1659 H1663 0.950 . S
H1660 C1656 0.950 . S
C1661 C1659 1.390 . S
C1661 C1662 1.387 . S
C1661 H1664 0.950 . S
C1662 C1661 1.387 . S
C1662 C1665 1.387 . S
H1663 C1659 0.950 . S
H1664 C1661 0.950 . S
C1665 C1656 1.390 . S
C1665 H1658 0.950 . S
C1665 C1662 1.387 . S
C1666 C1667 1.387 . S
C1666 H1670 0.950 . S
C1666 C1675 1.390 . S
C1667 C1666 1.387 . S
C1667 C1669 1.387 . S
H1668 C1675 0.950 . S
C1669 C1667 1.387 . S
C1669 C1671 1.390 . S
C1669 H1673 0.950 . S
H1670 C1666 0.950 . S
C1671 C1669 1.390 . S
C1671 C1672 1.387 . S
C1671 H1674 0.950 . S
C1672 C1671 1.387 . S
C1672 C1675 1.387 . S
H1673 C1669 0.950 . S
H1674 C1671 0.950 . S
C1675 C1666 1.390 . S
C1675 H1668 0.950 . S
C1675 C1672 1.387 . S
C1676 C1677 1.387 . S
C1676 H1680 0.950 . S
C1676 C1685 1.390 . S
C1677 C1676 1.387 . S
C1677 C1679 1.387 . S
H1678 C1685 0.950 . S
C1679 C1677 1.387 . S
C1679 C1681 1.390 . S
C1679 H1683 0.950 . S
H1680 C1676 0.950 . S
C1681 C1679 1.390 . S
C1681 C1682 1.387 . S
C1681 H1684 0.950 . S
C1682 C1681 1.387 . S
C1682 C1685 1.387 . S
H1683 C1679 0.950 . S
H1684 C1681 0.950 . S
C1685 C1676 1.390 . S
C1685 H1678 0.950 . S
C1685 C1682 1.387 . S
C1686 C1687 1.387 . S
C1686 H1690 0.950 . S
C1686 C1695 1.390 . S
C1687 C1686 1.387 . S
C1687 C1689 1.387 . S
H1688 C1695 0.950 . S
C1689 C1687 1.387 . S
C1689 C1691 1.390 . S
C1689 H1693 0.950 . S
H1690 C1686 0.950 . S
C1691 C1689 1.390 . S
C1691 C1692 1.387 . S
C1691 H1694 0.950 . S
C1692 C1691 1.387 . S
C1692 C1695 1.387 . S
H1693 C1689 0.950 . S
H1694 C1691 0.950 . S
C1695 C1686 1.390 . S
C1695 H1688 0.950 . S
C1695 C1692 1.387 . S
C1696 C1697 1.387 . S
C1696 H1700 0.950 . S
C1696 C1705 1.390 . S
C1697 C1696 1.387 . S
C1697 C1699 1.387 . S
H1698 C1705 0.950 . S
C1699 C1697 1.387 . S
C1699 C1701 1.390 . S
C1699 H1703 0.950 . S
H1700 C1696 0.950 . S
C1701 C1699 1.390 . S
C1701 C1702 1.387 . S
C1701 H1704 0.950 . S
C1702 C1701 1.387 . S
C1702 C1705 1.387 . S
H1703 C1699 0.950 . S
H1704 C1701 0.950 . S
C1705 C1696 1.390 . S
C1705 H1698 0.950 . S
C1705 C1702 1.387 . S
C1706 C1707 1.387 1_545 S
C1706 H1710 0.950 . S
C1706 C1715 1.390 1_655 S
C1707 C1706 1.387 1_565 S
C1707 C1709 1.387 . S
H1708 C1715 0.950 . S
C1709 C1707 1.387 . S
C1709 C1711 1.390 1_655 S
C1709 H1713 0.950 . S
H1710 C1706 0.950 . S
C1711 C1709 1.390 1_455 S
C1711 C1712 1.387 . S
C1711 H1714 0.950 . S
C1712 C1711 1.387 . S
C1712 C1715 1.387 1_565 S
H1713 C1709 0.950 . S
H1714 C1711 0.950 . S
C1715 C1706 1.390 1_455 S
C1715 H1708 0.950 . S
C1715 C1712 1.387 1_545 S
C1716 C1717 1.387 . S
C1716 H1720 0.950 . S
C1716 C1725 1.390 . S
C1717 C1716 1.387 . S
C1717 C1719 1.387 . S
H1718 C1725 0.950 . S
C1719 C1717 1.387 . S
C1719 C1721 1.390 . S
C1719 H1723 0.950 . S
H1720 C1716 0.950 . S
C1721 C1719 1.390 . S
C1721 C1722 1.387 . S
C1721 H1724 0.950 . S
C1722 C1721 1.387 . S
C1722 C1725 1.387 . S
H1723 C1719 0.950 . S
H1724 C1721 0.950 . S
C1725 C1716 1.390 . S
C1725 H1718 0.950 . S
C1725 C1722 1.387 . S
C1726 C1727 1.387 . S
C1726 H1730 0.950 . S
C1726 C1735 1.390 . S
C1727 C1726 1.387 . S
C1727 C1729 1.387 1_545 S
H1728 C1735 0.950 . S
C1729 C1727 1.387 1_565 S
C1729 C1731 1.390 . S
C1729 H1733 0.950 . S
H1730 C1726 0.950 . S
C1731 C1729 1.390 . S
C1731 C1732 1.387 1_565 S
C1731 H1734 0.950 . S
C1732 C1731 1.387 1_545 S
C1732 C1735 1.387 . S
H1733 C1729 0.950 . S
H1734 C1731 0.950 . S
C1735 C1726 1.390 . S
C1735 H1728 0.950 . S
C1735 C1732 1.387 . S
C1736 C1737 1.387 . S
C1736 H1740 0.950 . S
C1736 C1745 1.390 . S
C1737 C1736 1.387 . S
C1737 C1739 1.387 . S
H1738 C1745 0.950 . S
C1739 C1737 1.387 . S
C1739 C1741 1.390 . S
C1739 H1743 0.950 . S
H1740 C1736 0.950 . S
C1741 C1739 1.390 . S
C1741 C1742 1.387 . S
C1741 H1744 0.948 . S
C1742 C1741 1.387 . S
C1742 C1745 1.387 . S
H1743 C1739 0.950 . S
H1744 C1741 0.948 . S
C1745 C1736 1.390 . S
C1745 H1738 0.950 . S
C1745 C1742 1.387 . S
C1746 C1747 1.387 1_545 S
C1746 H1750 0.950 . S
C1746 C1755 1.390 . S
C1747 C1746 1.387 1_565 S
C1747 C1749 1.387 . S
H1748 C1755 0.950 . S
C1749 C1747 1.387 . S
C1749 C1751 1.390 . S
C1749 H1753 0.950 . S
H1750 C1746 0.950 . S
C1751 C1749 1.390 . S
C1751 C1752 1.387 . S
C1751 H1754 0.950 . S
C1752 C1751 1.387 . S
C1752 C1755 1.387 1_565 S
H1753 C1749 0.950 . S
H1754 C1751 0.950 . S
C1755 C1746 1.390 . S
C1755 H1748 0.950 . S
C1755 C1752 1.387 1_545 S
C1756 C1757 1.387 . S
C1756 H1760 0.950 . S
C1756 C1765 1.390 . S
C1757 C1756 1.387 . S
C1757 C1759 1.387 . S
H1758 C1765 0.950 . S
C1759 C1757 1.387 . S
C1759 C1761 1.390 . S
C1759 H1763 0.950 . S
H1760 C1756 0.950 . S
C1761 C1759 1.390 . S
C1761 C1762 1.387 . S
C1761 H1764 0.950 . S
C1762 C1761 1.387 . S
C1762 C1765 1.387 . S
H1763 C1759 0.950 . S
H1764 C1761 0.950 . S
C1765 C1756 1.390 . S
C1765 H1758 0.950 . S
C1765 C1762 1.387 . S
C1766 C1767 1.387 . S
C1766 H1770 0.950 . S
C1766 C1775 1.390 1_455 S
C1767 C1766 1.387 . S
C1767 C1769 1.387 1_545 S
H1768 C1775 0.950 . S
C1769 C1767 1.387 1_565 S
C1769 C1771 1.390 1_455 S
C1769 H1773 0.950 . S
H1770 C1766 0.950 . S
C1771 C1769 1.390 1_655 S
C1771 C1772 1.387 1_565 S
C1771 H1774 0.950 . S
C1772 C1771 1.387 1_545 S
C1772 C1775 1.387 . S
H1773 C1769 0.950 . S
H1774 C1771 0.950 . S
C1775 C1766 1.390 1_655 S
C1775 H1768 0.950 . S
C1775 C1772 1.387 . S
C1776 C1777 1.387 . S
C1776 H1780 0.950 . S
C1776 C1785 1.390 . S
C1777 C1776 1.387 . S
C1777 C1779 1.387 . S
H1778 C1785 0.950 . S
C1779 C1777 1.387 . S
C1779 C1781 1.390 . S
C1779 H1783 0.950 . S
H1780 C1776 0.950 . S
C1781 C1779 1.390 . S
C1781 C1782 1.387 . S
C1781 H1784 0.950 . S
C1782 C1781 1.387 . S
C1782 C1785 1.387 . S
H1783 C1779 0.950 . S
H1784 C1781 0.950 . S
C1785 C1776 1.390 . S
C1785 H1778 0.950 . S
C1785 C1782 1.387 . S
C1786 C1787 1.387 . S
C1786 H1790 0.950 . S
C1786 C1795 1.390 . S
C1787 C1786 1.387 . S
C1787 C1789 1.387 . S
H1788 C1795 0.950 . S
C1789 C1787 1.387 . S
C1789 C1791 1.390 . S
C1789 H1793 0.950 . S
H1790 C1786 0.950 . S
C1791 C1789 1.390 . S
C1791 C1792 1.387 . S
C1791 H1794 0.950 . S
C1792 C1791 1.387 . S
C1792 C1795 1.387 . S
H1793 C1789 0.950 . S
H1794 C1791 0.950 . S
C1795 C1786 1.390 . S
C1795 H1788 0.950 . S
C1795 C1792 1.387 . S
C1796 C1797 1.387 . S
C1796 H1800 0.950 . S
C1796 C1805 1.390 . S
C1797 C1796 1.387 . S
C1797 C1799 1.387 . S
H1798 C1805 0.950 . S
C1799 C1797 1.387 . S
C1799 C1801 1.390 . S
C1799 H1803 0.950 . S
H1800 C1796 0.950 . S
C1801 C1799 1.390 . S
C1801 C1802 1.387 . S
C1801 H1804 0.950 . S
C1802 C1801 1.387 . S
C1802 C1805 1.387 . S
H1803 C1799 0.950 . S
H1804 C1801 0.950 . S
C1805 C1796 1.390 . S
C1805 H1798 0.950 . S
C1805 C1802 1.387 . S
C1806 C1807 1.387 . S
C1806 H1810 0.950 . S
C1806 C1815 1.390 . S
C1807 C1806 1.387 . S
C1807 C1809 1.387 . S
H1808 C1815 0.950 . S
C1809 C1807 1.387 . S
C1809 C1811 1.390 . S
C1809 H1813 0.950 . S
H1810 C1806 0.950 . S
C1811 C1809 1.390 . S
C1811 C1812 1.387 . S
C1811 H1814 0.950 . S
C1812 C1811 1.387 . S
C1812 C1815 1.387 . S
H1813 C1809 0.950 . S
H1814 C1811 0.950 . S
C1815 C1806 1.390 . S
C1815 H1808 0.950 . S
C1815 C1812 1.387 . S
C1816 C1817 1.387 . S
C1816 H1820 0.950 . S
C1816 C1825 1.390 . S
C1817 C1816 1.387 . S
C1817 C1819 1.387 . S
H1818 C1825 0.950 . S
C1819 C1817 1.387 . S
C1819 C1821 1.390 . S
C1819 H1823 0.950 . S
H1820 C1816 0.950 . S
C1821 C1819 1.390 . S
C1821 C1822 1.387 . S
C1821 H1824 0.950 . S
C1822 C1821 1.387 . S
C1822 C1825 1.387 . S
H1823 C1819 0.950 . S
H1824 C1821 0.950 . S
C1825 C1816 1.390 . S
C1825 H1818 0.950 . S
C1825 C1822 1.387 . S
C1826 C1827 1.387 . S
C1826 H1830 0.950 . S
C1826 C1835 1.390 1_455 S
C1827 C1826 1.387 . S
C1827 C1829 1.387 . S
H1828 C1835 0.950 . S
C1829 C1827 1.387 . S
C1829 C1831 1.390 1_455 S
C1829 H1833 0.950 . S
H1830 C1826 0.950 . S
C1831 C1829 1.390 1_655 S
C1831 C1832 1.387 . S
C1831 H1834 0.950 . S
C1832 C1831 1.387 . S
C1832 C1835 1.387 . S
H1833 C1829 0.950 . S
H1834 C1831 0.950 . S
C1835 C1826 1.390 1_655 S
C1835 H1828 0.950 . S
C1835 C1832 1.387 . S
C1836 C1837 1.387 . S
C1836 H1840 0.950 . S
C1836 C1845 1.390 1_455 S
C1837 C1836 1.387 . S
C1837 C1839 1.387 . S
H1838 C1845 0.950 . S
C1839 C1837 1.387 . S
C1839 C1841 1.390 1_455 S
C1839 H1843 0.950 . S
H1840 C1836 0.950 . S
C1841 C1839 1.390 1_655 S
C1841 C1842 1.387 . S
C1841 H1844 0.950 . S
C1842 C1841 1.387 . S
C1842 C1845 1.387 . S
H1843 C1839 0.950 . S
H1844 C1841 0.950 . S
C1845 C1836 1.390 1_655 S
C1845 H1838 0.950 . S
C1845 C1842 1.387 . S
C1846 C1847 1.387 . S
C1846 H1850 0.950 . S
C1846 C1855 1.390 . S
C1847 C1846 1.387 . S
C1847 C1849 1.387 . S
H1848 C1855 0.950 . S
C1849 C1847 1.387 . S
C1849 C1851 1.390 . S
C1849 H1853 0.950 . S
H1850 C1846 0.950 . S
C1851 C1849 1.390 . S
C1851 C1852 1.387 . S
C1851 H1854 0.950 . S
C1852 C1851 1.387 . S
C1852 C1855 1.387 . S
H1853 C1849 0.950 . S
H1854 C1851 0.950 . S
C1855 C1846 1.390 . S
C1855 H1848 0.950 . S
C1855 C1852 1.387 . S
C1057 N46 2.131 . S
C1062 C21 2.050 . S
C1067 C54 1.807 . S
C1072 N79 1.913 . S
C1077 C87 2.044 . S
C1082 N112 2.132 . S
C1087 C120 1.808 . S
C1092 N13 1.912 . S
C1097 C153 2.046 . S
C1102 N244 2.133 . S
C1107 N145 1.916 . S
C1112 C186 1.806 . S
C1117 C219 2.046 . S
C1122 N178 2.134 . S
C1127 C252 1.809 . S
C1132 N211 1.912 . S
C1137 N310 2.130 . S
C1142 C285 2.050 . S
C1147 N343 1.916 . S
C1152 C318 1.806 . S
C1157 C351 2.044 . S
C1162 N376 2.132 . S
C1167 N277 1.915 . S
C1172 C384 1.804 . S
C1177 C417 2.043 . S
C1182 N508 2.133 . S
C1187 C450 1.809 . S
C1192 N409 1.913 . S
C1197 N442 2.131 . S
C1202 C483 2.048 . S
C1207 N475 1.915 . S
C1212 C516 1.805 . S
C1217 N574 2.036 . S
C1222 C549 1.939 . S
C1227 C582 1.949 . S
C1232 N607 2.044 . S
C1237 N640 2.036 . S
C1242 C615 1.942 . S
C1247 N541 2.046 . S
C1252 C648 1.949 . S
C1257 N772 2.036 . S
C1262 C681 1.939 . S
C1267 C714 1.951 . S
C1272 N673 2.046 . S
C1277 N706 2.035 . S
C1282 C747 1.940 . S
C1287 C780 1.949 . S
C1292 N739 2.044 . S
C1297 N838 2.037 . S
C1302 C813 1.942 . S
C1307 C846 1.949 . S
C1312 N871 2.044 . S
C1317 C879 1.940 . S
C1322 N904 2.035 . S
C1327 C912 1.950 . S
C1332 N805 2.046 . S
C1337 N1036 2.036 . S
C1342 C945 1.939 . S
C1347 N937 2.046 . S
C1352 C978 1.949 . S
C1357 N970 2.036 . S
C1362 C1011 1.939 . S
C1367 N1003 2.046 . S
C1372 C1044 1.949 . S
C1377 N200 0.758 . S
C1382 N2 0.758 . S
C1387 N35 0.844 . S
C1392 N233 0.841 . S
C1397 N68 0.758 . S
C1402 N134 0.758 . S
C1407 N101 0.847 . S
C1412 N167 0.843 . S
C1417 N464 0.758 . S
C1422 N266 0.758 . S
C1427 N497 0.847 . S
C1432 N299 0.843 . S
C1437 N332 0.758 . S
C1442 N398 0.758 . S
C1447 N431 0.847 . S
C1452 N365 0.843 . S
C1457 N530 0.836 . S
C1462 N728 0.836 . S
C1467 N563 0.851 . S
C1472 N761 0.851 . S
C1477 N662 0.836 . S
C1482 N596 0.836 . S
C1487 N695 0.851 . S
C1492 N629 0.851 . S
C1497 N992 0.836 . S
C1502 N794 0.836 . S
C1507 N1025 0.851 . S
C1512 N827 0.851 . S
C1517 N926 0.837 . S
C1522 N860 0.837 . S
C1527 N959 0.851 . S
C1532 N893 0.851 . S
C1537 C183 1.142 . S
C1542 C18 1.142 . S
C1547 C51 1.143 . S
C1552 C216 1.143 . S
C1557 C84 1.140 . S
C1562 C249 1.147 . S
C1567 C117 1.142 . S
C1572 C150 1.142 . S
C1577 C447 1.140 . S
C1582 C282 1.139 . S
C1587 C315 1.144 . S
C1592 C480 1.140 . S
C1597 C513 1.144 . S
C1602 C348 1.140 . S
C1607 C381 1.141 . S
C1612 C414 1.138 . S
C1617 C546 1.040 . S
C1622 C711 1.038 . S
C1627 C744 1.040 . S
C1632 C579 1.038 . S
C1637 C777 1.040 . S
C1642 C612 1.038 . S
C1647 C645 1.038 . S
C1652 C678 1.040 . S
C1657 C810 1.035 . S
C1662 C975 1.036 . S
C1667 C1008 1.039 . S
C1672 C843 1.037 . S
C1677 C1041 1.038 . S
C1682 C876 1.040 . S
C1687 C942 1.040 . S
C1692 C909 1.037 . S
C1697 C7 1.032 . S
C1702 C997 1.029 . S
C1707 C502 1.026 . S
C1712 C40 1.023 . S
C1717 C931 1.028 . S
C1722 C73 1.033 . S
C1727 C106 1.026 . S
C1732 C436 1.023 . S
C1737 C139 1.033 . S
C1742 C865 1.027 . S
C1747 C370 1.026 . S
C1752 C172 1.023 . S
C1757 C205 1.032 . S
C1762 C799 1.029 . S
C1767 C238 1.026 . S
C1772 C304 1.023 . S
C1777 C271 1.032 . S
C1782 C733 1.029 . S
C1787 C337 1.032 . S
C1792 C667 1.029 . S
C1797 C403 1.032 . S
C1802 C601 1.029 . S
C1807 C469 1.032 . S
C1812 C535 1.029 . S
C1817 C568 1.012 . S
C1822 C1030 1.010 . S
C1827 C964 1.011 . S
C1832 C634 1.012 . S
C1837 C898 1.012 . S
C1842 C700 1.010 . S
C1847 C832 1.012 . S
C1852 C766 1.010 . S
