# Generated by pormake.
# Topology uoj, (4)-cn, num edge types: 1
# Building blocks:
#     Node 0, Type 0, BuildingBlock: KOZSID_clean_sbu_0, # of connection points: 4
#     Node 1, Type 0, BuildingBlock: KOZSID_clean_sbu_0, # of connection points: 4
#     Node 2, Type 0, BuildingBlock: KOZSID_clean_sbu_0, # of connection points: 4
#     Node 3, Type 0, BuildingBlock: KOZSID_clean_sbu_0, # of connection points: 4
#     Node 4, Type 0, BuildingBlock: KOZSID_clean_sbu_0, # of connection points: 4
#     Node 5, Type 0, BuildingBlock: KOZSID_clean_sbu_0, # of connection points: 4
#     Node 6, Type 0, BuildingBlock: KOZSID_clean_sbu_0, # of connection points: 4
#     Node 7, Type 0, BuildingBlock: KOZSID_clean_sbu_0, # of connection points: 4
#     Edge 8, Type (0, 0), BuildingBlock: EZIPEK_clean_linker_0, # of connection points: 2
#     Edge 9, Type (0, 0), BuildingBlock: EZIPEK_clean_linker_0, # of connection points: 2
#     Edge 10, Type (0, 0), BuildingBlock: EZIPEK_clean_linker_0, # of connection points: 2
#     Edge 11, Type (0, 0), BuildingBlock: EZIPEK_clean_linker_0, # of connection points: 2
#     Edge 12, Type (0, 0), BuildingBlock: EZIPEK_clean_linker_0, # of connection points: 2
#     Edge 13, Type (0, 0), BuildingBlock: EZIPEK_clean_linker_0, # of connection points: 2
#     Edge 14, Type (0, 0), BuildingBlock: EZIPEK_clean_linker_0, # of connection points: 2
#     Edge 15, Type (0, 0), BuildingBlock: EZIPEK_clean_linker_0, # of connection points: 2
#     Edge 16, Type (0, 0), BuildingBlock: EZIPEK_clean_linker_0, # of connection points: 2
#     Edge 17, Type (0, 0), BuildingBlock: EZIPEK_clean_linker_0, # of connection points: 2
#     Edge 18, Type (0, 0), BuildingBlock: EZIPEK_clean_linker_0, # of connection points: 2
#     Edge 19, Type (0, 0), BuildingBlock: EZIPEK_clean_linker_0, # of connection points: 2
#     Edge 20, Type (0, 0), BuildingBlock: EZIPEK_clean_linker_0, # of connection points: 2
#     Edge 21, Type (0, 0), BuildingBlock: EZIPEK_clean_linker_0, # of connection points: 2
#     Edge 22, Type (0, 0), BuildingBlock: EZIPEK_clean_linker_0, # of connection points: 2
#     Edge 23, Type (0, 0), BuildingBlock: EZIPEK_clean_linker_0, # of connection points: 2
# Relax obj value: 0.040
# Max RMSD: 0.327
# Mean RMSD: 0.302
data_MOF--net-uoj--node1-KOZSID_clean_sbu_0--edge1-EZIPEK_clean_linker_0
_symmetry_space_group_name_H-M    P1
_symmetry_Int_Tables_number       1
_symmetry_cell_setting            triclinic
loop_
_symmetry_equiv_pos_as_xyz
'x, y, z'
_cell_length_a     29.215942
_cell_length_b     31.185018
_cell_length_c     37.393253
_cell_angle_alpha  90.02354
_cell_angle_beta   89.89625
_cell_angle_gamma 95.80239
loop_
_atom_site_label
_atom_site_type_symbol
_atom_site_fract_x
_atom_site_fract_y
_atom_site_fract_z
_atom_type_partial_charge
C0 C 0.15061 0.33079 0.38499 0.0
C1 C 0.18961 0.35901 0.39115 0.0
C2 C 0.18894 0.36999 0.42665 0.0
C3 C 0.14986 0.34774 0.44033 0.0
N4 N 0.12631 0.32254 0.41589 0.0
Co5 Co 0.06599 0.28787 0.42508 0.0
N6 N 0.07115 0.29391 0.47825 0.0
C7 C 0.10263 0.32061 0.49563 0.0
C8 C 0.10077 0.31511 0.53209 0.0
C9 C 0.06567 0.28314 0.53808 0.0
C10 C 0.04746 0.2712 0.50492 0.0
N11 N 1.00446 0.25535 0.43372 0.0
C12 C 0.98357 0.24048 0.46439 0.0
C13 C 0.93848 0.22339 0.45812 0.0
C14 C 0.93112 0.2268 0.4223 0.0
C15 C 0.97169 0.24611 0.40881 0.0
N16 N 0.0609 0.2792 0.372 0.0
C17 C 1.02264 0.2633 0.35442 0.0
C18 C 1.02791 0.26173 0.31811 0.0
C19 C 0.07208 0.27849 0.31192 0.0
C20 C 0.09153 0.28946 0.34504 0.0
N21 N 0.09752 0.23451 0.42962 0.0
C22 C 0.14273 0.16034 0.44434 0.0
C23 C 0.10018 0.15703 0.42636 0.0
C24 C 0.07828 0.19461 0.41899 0.0
C25 C 0.16224 0.20129 0.45388 0.0
C26 C 0.1393 0.2374 0.4466 0.0
N27 N 0.03679 0.34294 0.42195 0.0
C28 C 0.03886 0.41313 0.3938 0.0
C29 C 1.02368 0.43152 0.42515 0.0
C30 C 1.01044 0.40378 0.45372 0.0
C31 C 1.01645 0.35953 0.45132 0.0
C32 C 0.04469 0.36909 0.39265 0.0
H33 H 1.00683 0.33944 0.47412 0.0
H34 H 0.05822 0.35734 0.3684 0.0
H35 H 0.04549 0.19127 0.40548 0.0
H36 H 0.15543 0.26755 0.45609 0.0
C37 C 0.13693 0.3458 0.47654 0.0
C38 C 0.13557 0.3165 0.34878 0.0
C39 C 1.00487 0.24167 0.49988 0.0
C40 C 0.98221 0.25038 0.37273 0.0
H41 H 0.21502 0.37148 0.3717 0.0
H42 H 0.21418 0.39137 0.44082 0.0
H43 H 0.12312 0.33146 0.55193 0.0
H44 H 0.05405 0.27075 0.56393 0.0
H45 H 0.91348 0.20954 0.47734 0.0
H46 H 0.90037 0.21525 0.40767 0.0
H47 H 1.00225 0.25084 0.29838 0.0
H48 H 0.08705 0.28425 0.28569 0.0
H49 H 0.08372 0.12574 0.41863 0.0
H50 H 0.19473 0.20533 0.46804 0.0
H51 H 0.04822 0.43313 0.37072 0.0
H52 H 0.9972 0.41646 0.47819 0.0
C53 C 0.41615 0.95008 0.58399 0.0
C54 C 0.44993 0.92595 0.5708 0.0
C55 C 0.42791 0.89219 0.55262 0.0
C56 C 0.38209 0.89693 0.55627 0.0
N57 N 0.37318 0.93158 0.5757 0.0
Co58 Co 0.31047 0.94594 0.59092 0.0
N59 N 0.2797 0.88915 0.57321 0.0
C60 C 0.30059 0.85961 0.55455 0.0
C61 C 0.27184 0.82486 0.54363 0.0
C62 C 0.22947 0.83286 0.55529 0.0
C63 C 0.23468 0.87224 0.5732 0.0
N64 N 0.24758 0.96035 0.60521 0.0
C65 C 0.20527 0.93735 0.60242 0.0
C66 C 0.1709 0.96115 0.61483 0.0
C67 C 0.19177 1.00093 0.62401 0.0
C68 C 0.23772 0.99917 0.61716 0.0
N69 N 0.34231 1.00157 0.60979 0.0
C70 C 0.32088 0.03558 0.62069 0.0
C71 C 0.35078 0.0701 0.63113 0.0
C72 C 0.39395 0.05734 0.62638 0.0
C73 C 0.38814 1.01549 0.61339 0.0
N74 N 0.30003 0.97425 0.54365 0.0
C75 C 0.25583 0.03011 0.49863 0.0
C76 C 0.2972 0.04425 0.51577 0.0
C77 C 0.31978 1.01534 0.53678 0.0
C78 C 0.2418 0.98598 0.49939 0.0
C79 C 0.26416 0.95873 0.52193 0.0
N80 N 0.31901 0.92011 0.6389 0.0
C81 C 0.31453 0.9278 0.70335 0.0
C82 C 0.33497 0.88984 0.70888 0.0
C83 C 0.34646 0.86652 0.67847 0.0
C84 C 0.33827 0.8822 0.64378 0.0
C85 C 0.30679 0.94208 0.66866 0.0
H86 H 0.34803 0.86386 0.62112 0.0
H87 H 0.2915 0.97166 0.66641 0.0
H88 H 0.35148 1.02771 0.54932 0.0
H89 H 0.24964 0.92591 0.52294 0.0
C90 C 0.34717 0.86566 0.54706 0.0
C91 C 0.42714 0.99157 0.6023 0.0
C92 C 0.19527 0.8954 0.58403 0.0
C93 C 0.27277 0.03266 0.62276 0.0
H94 H 0.4868 0.93181 0.5741 0.0
H95 H 0.4434 0.86603 0.53983 0.0
H96 H 0.28041 0.79765 0.52787 0.0
H97 H 0.19834 0.81268 0.54902 0.0
H98 H 0.13427 0.95146 0.61531 0.0
H99 H 0.17527 1.02815 0.63388 0.0
H100 H 0.34225 0.10084 0.64123 0.0
H101 H 0.42608 0.07682 0.6314 0.0
H102 H 0.31091 0.0778 0.5143 0.0
H103 H 0.21145 0.97317 0.48482 0.0
H104 H 0.305 0.94685 0.72591 0.0
H105 H 0.36224 0.83677 0.68149 0.0
C106 C 0.90544 0.72306 0.3827 0.0
C107 C 0.86593 0.6951 0.38762 0.0
C108 C 0.86425 0.68435 0.42317 0.0
C109 C 0.90264 0.70635 0.43808 0.0
N110 N 0.92798 0.73123 0.41435 0.0
Co111 Co 0.98858 0.76465 0.42529 0.0
N112 N 0.98089 0.75783 0.47826 0.0
C113 C 0.94756 0.73212 0.49468 0.0
C114 C 0.94807 0.73696 0.53122 0.0
C115 C 0.98422 0.76744 0.53832 0.0
C116 C 1.00433 0.77914 0.5057 0.0
N117 N 0.05049 0.79553 0.43552 0.0
C118 C 0.07086 0.80839 0.46686 0.0
C119 C 0.11651 0.82456 0.46165 0.0
C120 C 0.12476 0.82275 0.42582 0.0
C121 C 0.08413 0.80518 0.41128 0.0
N122 N 0.99597 0.77422 0.37239 0.0
C123 C 0.0347 0.7909 0.35576 0.0
C124 C 0.03053 0.79389 0.3194 0.0
C125 C 0.98658 0.77726 0.31217 0.0
C126 C 0.96636 0.76477 0.3447 0.0
N127 N 0.95842 0.81898 0.42987 0.0
C128 C 0.91653 0.89446 0.44743 0.0
C129 C 0.96013 0.89708 0.43098 0.0
C130 C 0.98028 0.85894 0.42209 0.0
C131 C 0.8941 0.85358 0.45362 0.0
C132 C 0.91539 0.8168 0.44498 0.0
N133 N 1.01662 0.70895 0.42236 0.0
C134 C 1.01545 0.63919 0.39354 0.0
C135 C 1.02867 0.62012 0.42519 0.0
C136 C 0.0406 0.64729 0.45432 0.0
C137 C 0.03521 0.69164 0.45212 0.0
C138 C 1.01013 0.68339 0.39259 0.0
H139 H 0.04402 0.71125 0.47531 0.0
H140 H 0.9984 0.69588 0.36802 0.0
H141 H 1.014 0.86191 0.40999 0.0
H142 H 0.89703 0.78665 0.45222 0.0
C143 C 0.91359 0.70798 0.47461 0.0
C144 C 0.92253 0.73732 0.34701 0.0
C145 C 0.04831 0.80691 0.50192 0.0
C146 C 0.07462 0.80275 0.37495 0.0
H147 H 0.84172 0.68271 0.36733 0.0
H148 H 0.83804 0.66313 0.43656 0.0
H149 H 0.92431 0.72104 0.55039 0.0
H150 H 0.99528 0.77891 0.56453 0.0
H151 H 0.14123 0.83692 0.48159 0.0
H152 H 0.15616 0.83421 0.41193 0.0
H153 H 0.05675 0.80564 0.30031 0.0
H154 H 0.97204 0.77261 0.28569 0.0
H155 H 0.97883 0.92822 0.42577 0.0
H156 H 0.86064 0.84999 0.46645 0.0
H157 H 1.00735 0.61964 0.37 0.0
H158 H 0.05244 0.63412 0.47904 0.0
C159 C 0.63657 0.09751 0.58072 0.0
C160 C 0.60273 0.11997 0.56548 0.0
C161 C 0.6241 0.15765 0.55274 0.0
C162 C 0.6695 0.15647 0.56106 0.0
N163 N 0.67898 0.12017 0.57786 0.0
Co164 Co 0.74099 0.10923 0.59727 0.0
N165 N 0.77243 0.16202 0.57354 0.0
C166 C 0.7511 0.19354 0.55805 0.0
C167 C 0.78035 0.22494 0.54219 0.0
C168 C 0.82319 0.21282 0.54785 0.0
C169 C 0.81776 0.17485 0.56762 0.0
N170 N 0.80325 0.09816 0.6151 0.0
C171 C 0.84625 0.11574 0.60508 0.0
C172 C 0.87993 0.09714 0.62391 0.0
C173 C 0.8575 0.06697 0.64625 0.0
C174 C 0.8114 0.06879 0.63995 0.0
N175 N 0.70815 0.05852 0.62299 0.0
C176 C 0.72766 0.03473 0.64767 0.0
C177 C 0.69772 1.00209 0.66146 0.0
C178 C 0.65646 1.00576 0.64489 0.0
C179 C 0.66322 0.0408 0.62198 0.0
N180 N 0.75375 0.07208 0.55498 0.0
C181 C 0.80462 1.02029 0.51022 0.0
C182 C 0.77639 1.00206 0.53747 0.0
C183 C 0.75135 1.02802 0.55913 0.0
C184 C 0.80238 0.06417 0.50285 0.0
C185 C 0.77586 0.0891 0.52488 0.0
N186 N 0.73094 0.1439 0.64082 0.0
C187 C 0.68383 0.15325 0.69311 0.0
C188 C 0.72209 0.17079 0.7126 0.0
C189 C 0.76422 0.17802 0.6944 0.0
C190 C 0.76768 0.16514 0.65845 0.0
C191 C 0.6889 0.14034 0.6575 0.0
H192 H 0.80084 0.17039 0.64567 0.0
H193 H 0.65892 0.1252 0.64448 0.0
H194 H 0.73247 1.01139 0.5803 0.0
H195 H 0.77549 0.12255 0.51806 0.0
C196 C 0.70389 0.18906 0.55354 0.0
C197 C 0.62544 0.05757 0.6014 0.0
C198 C 0.85646 0.15177 0.57952 0.0
C199 C 0.77507 0.04128 0.65423 0.0
H200 H 0.56597 0.11126 0.56503 0.0
H201 H 0.60821 0.1834 0.53977 0.0
H202 H 0.77144 0.25206 0.52651 0.0
H203 H 0.85448 0.22969 0.53741 0.0
H204 H 0.9168 0.10479 0.62176 0.0
H205 H 0.87305 0.04565 0.66439 0.0
H206 H 0.70518 0.97794 0.6808 0.0
H207 H 0.6248 0.98536 0.64951 0.0
H208 H 0.77565 0.96798 0.5434 0.0
H209 H 0.82238 0.07952 0.48112 0.0
H210 H 0.65041 0.14782 0.70584 0.0
H211 H 0.79458 0.19232 0.70819 0.0
C212 C 0.39714 0.75482 0.99358 0.0
C213 C 0.36521 0.74702 0.02098 0.0
C214 C 0.36267 0.78524 0.03811 0.0
C215 C 0.39282 0.81417 1.02023 0.0
N216 N 0.41438 0.79706 0.99256 0.0
Co217 Co 0.46063 0.82922 0.95998 0.0
N218 N 0.46289 0.8834 0.9898 0.0
C219 C 0.43843 0.88825 1.01989 0.0
C220 C 0.44999 0.92633 0.03746 0.0
C221 C 0.48319 0.94794 1.01687 0.0
C222 C 0.48914 0.92216 0.98727 0.0
N223 N 0.50646 0.86309 0.92756 0.0
C224 C 0.52332 0.90618 0.92752 0.0
C225 C 0.54574 0.91701 0.89557 0.0
C226 C 0.54297 0.88046 0.87503 0.0
C227 C 0.51857 0.84912 0.89507 0.0
N228 N 0.45795 0.77492 0.93079 0.0
C229 C 0.47566 0.77221 0.89775 0.0
C230 C 0.46865 0.73142 0.88355 0.0
C231 C 0.44445 0.70689 0.90912 0.0
C232 C 0.43794 0.7341 0.93758 0.0
N233 N 0.41042 0.84764 0.92889 0.0
C234 C 0.37222 0.85921 0.86049 0.0
C235 C 0.36058 0.82126 0.88007 0.0
C236 C 0.37872 0.81682 0.91468 0.0
C237 C 0.39744 0.8933 0.87824 0.0
C238 C 0.41553 0.88694 0.91235 0.0
N239 N 0.51201 0.80763 0.98838 0.0
C240 C 0.57333 0.76052 0.98778 0.0
C241 C 0.57911 0.76259 0.02499 0.0
C242 C 0.55018 0.78891 0.04352 0.0
C243 C 0.51596 0.80975 0.02499 0.0
C244 C 0.54252 0.78492 0.97032 0.0
H245 H 0.4929 0.82729 0.04043 0.0
H246 H 0.54312 0.7841 0.94175 0.0
H247 H 0.37085 0.78652 0.92811 0.0
H248 H 0.43769 0.91258 0.92317 0.0
C249 C 0.40579 0.85593 0.03155 0.0
C250 C 0.40903 0.72098 0.96904 0.0
C251 C 0.51355 0.93918 0.95499 0.0
C252 C 0.50253 0.80764 0.88297 0.0
H253 H 0.34599 0.71675 0.02816 0.0
H254 H 0.34244 0.79094 0.06161 0.0
H255 H 0.43562 0.93727 0.06214 0.0
H256 H 0.49931 0.98013 0.02202 0.0
H257 H 0.56032 0.94859 0.88702 0.0
H258 H 0.55498 0.87774 0.8478 0.0
H259 H 0.48028 0.72061 0.8579 0.0
H260 H 0.43209 0.67309 0.90684 0.0
H261 H 0.33977 0.79437 0.86803 0.0
H262 H 0.4061 0.92379 0.86475 0.0
H263 H 0.59395 0.741 0.97157 0.0
H264 H 0.55342 0.79303 0.07217 0.0
C265 C 0.72835 0.62121 0.09619 0.0
C266 C 0.68734 0.59611 0.10312 0.0
C267 C 0.69855 0.55662 0.11433 0.0
C268 C 0.74569 0.55913 0.11311 0.0
N269 N 0.76526 0.598 0.10244 0.0
Co270 Co 0.83208 0.60945 0.08873 0.0
N271 N 0.85049 0.55506 0.11074 0.0
C272 C 0.82052 0.52212 0.12176 0.0
C273 C 0.8417 0.48744 0.13364 0.0
C274 C 0.88806 0.49901 0.12958 0.0
C275 C 0.89287 0.54034 0.11548 0.0
N276 N 0.89833 0.62146 0.07376 0.0
C277 C 0.93683 0.6033 0.08396 0.0
C278 C 0.97636 0.62632 0.0705 0.0
C279 C 0.96248 0.65846 0.04989 0.0
C280 C 0.91553 0.65426 0.05254 0.0
N281 N 0.81517 0.66501 0.06771 0.0
C282 C 0.84382 0.69412 0.04987 0.0
C283 C 0.82733 0.73341 0.04594 0.0
C284 C 0.78501 0.72892 0.06158 0.0
C285 C 0.77724 0.68639 0.07296 0.0
N286 N 0.84566 0.63908 0.13526 0.0
C287 C 0.86648 0.67502 0.20372 0.0
C288 C 0.88579 0.69451 0.17254 0.0
C289 C 0.87488 0.67616 0.13864 0.0
C290 C 0.83598 0.63785 0.19972 0.0
C291 C 0.82622 0.62057 0.16568 0.0
N292 N 0.81618 0.57651 0.04357 0.0
C293 C 0.75109 0.54807 1.00732 0.0
C294 C 0.76835 0.50786 1.0043 0.0
C295 C 0.81317 0.50501 1.01706 0.0
C296 C 0.83683 0.53998 0.03571 0.0
C297 C 0.77562 0.58175 0.02659 0.0
H298 H 0.87 0.53555 0.04666 0.0
H299 H 0.75905 0.61015 0.03102 0.0
H300 H 0.89073 0.69173 0.11543 0.0
H301 H 0.80338 0.59145 0.16436 0.0
C302 C 0.77298 0.52576 0.12114 0.0
C303 C 0.73071 0.66566 0.08083 0.0
C304 C 0.93795 0.56258 0.10376 0.0
C305 C 0.88857 0.68618 0.04236 0.0
H306 H 0.65278 0.6048 0.09936 0.0
H307 H 0.67497 0.52889 0.12141 0.0
H308 H 0.82542 0.45715 0.14378 0.0
H309 H 0.91521 0.47891 0.13541 0.0
H310 H 1.0118 0.62083 0.07522 0.0
H311 H 0.98425 0.6837 0.03651 0.0
H312 H 0.84463 0.76232 0.03409 0.0
H313 H 0.76149 0.75356 0.06274 0.0
H314 H 0.90974 0.72328 0.1744 0.0
H315 H 0.82041 0.6216 0.223 0.0
H316 H 0.71715 0.55244 0.99723 0.0
H317 H 0.82879 0.47511 1.01454 0.0
C318 C 0.6755 0.31172 0.98408 0.0
C319 C 0.71378 0.31865 1.00615 0.0
C320 C 0.71467 0.28264 0.02674 0.0
C321 C 0.6773 0.25564 1.01607 0.0
N322 N 0.65308 0.27173 0.98948 0.0
Co323 Co 0.59621 0.24185 0.96711 0.0
N324 N 0.60544 0.18577 0.99065 0.0
C325 C 0.63259 0.18111 1.01915 0.0
C326 C 0.63125 0.13946 0.03113 0.0
C327 C 0.60158 0.11603 1.00869 0.0
C328 C 0.5867 0.14477 0.98394 0.0
N329 N 0.54125 0.21009 0.94379 0.0
C330 C 0.53025 0.1667 0.93848 0.0
C331 C 0.49071 0.1596 0.91797 0.0
C332 C 0.47614 0.19938 0.911 0.0
C333 C 0.50767 0.22886 0.9272 0.0
N334 N 0.5863 0.29847 0.94498 0.0
C335 C 0.54651 0.30725 0.92978 0.0
C336 C 0.54719 0.34951 0.91924 0.0
C337 C 0.58966 0.36881 0.92908 0.0
C338 C 0.61274 0.33729 0.94525 0.0
N339 N 0.63239 0.22706 0.92469 0.0
C340 C 0.67716 0.2056 0.86094 0.0
C341 C 0.63709 0.22618 0.86007 0.0
C342 C 0.61563 0.23653 0.89172 0.0
C343 C 0.69509 0.19615 0.89473 0.0
C344 C 0.67205 0.20711 0.92638 0.0
N345 N 0.55715 0.25897 1.00804 0.0
C346 C 0.47908 0.26072 0.03058 0.0
C347 C 0.48946 0.30269 0.04405 0.0
C348 C 0.53561 0.31974 0.04293 0.0
C349 C 0.56858 0.29754 0.02519 0.0
C350 C 0.51351 0.23912 1.0135 0.0
H351 H 0.60258 0.31372 0.02355 0.0
H352 H 0.50365 0.20742 1.00277 0.0
H353 H 0.58474 0.2519 0.88896 0.0
H354 H 0.68601 0.19931 0.95202 0.0
C355 C 0.66488 0.21455 0.0296 0.0
C356 C 0.65763 0.34666 0.9636 0.0
C357 C 0.55425 0.13155 0.95501 0.0
C358 C 0.51134 0.27394 0.92282 0.0
H359 H 0.73733 0.34761 1.00851 0.0
H360 H 0.73929 0.27706 0.04739 0.0
H361 H 0.65117 0.12724 0.05254 0.0
H362 H 0.59243 0.08158 1.0102 0.0
H363 H 0.47387 0.12887 0.9093 0.0
H364 H 0.44698 0.20602 0.89484 0.0
H365 H 0.52014 0.36452 0.90584 0.0
H366 H 0.60181 0.40254 0.92579 0.0
H367 H 0.62204 0.23412 0.83475 0.0
H368 H 0.72628 0.18027 0.8966 0.0
H369 H 0.44418 0.24537 0.03189 0.0
H370 H 0.54577 0.35137 0.054 0.0
C371 C 0.3345 0.4416 0.10961 0.0
C372 C 0.37164 0.46161 0.12823 0.0
C373 C 0.35599 0.49576 0.14598 0.0
C374 C 0.31019 0.49472 0.13735 0.0
N375 N 0.29562 0.46207 0.11536 0.0
Co376 Co 0.23165 0.45161 0.09505 0.0
N377 N 0.20792 0.50127 0.12143 0.0
C378 C 0.23345 0.52866 0.143 0.0
C379 C 0.20932 0.56008 0.15741 0.0
C380 C 0.16553 0.55216 0.14424 0.0
C381 C 0.1651 0.51603 0.12261 0.0
N382 N 0.16817 0.44139 0.07344 0.0
C383 C 0.12887 0.46114 0.07855 0.0
C384 C 0.09209 0.4401 0.05985 0.0
C385 C 0.10858 0.40716 0.0417 0.0
C386 C 0.15408 0.40917 0.0507 0.0
N387 N 0.25397 0.40053 0.06953 0.0
C388 C 0.22857 0.37331 0.04768 0.0
C389 C 0.25134 0.34041 0.03447 0.0
C390 C 0.29434 0.34688 0.04866 0.0
C391 C 0.2953 0.38351 0.06987 0.0
N392 N 0.21224 0.41384 0.13694 0.0
C393 C 0.19289 0.37683 0.20552 0.0
C394 C 0.23521 0.37372 0.18856 0.0
C395 C 0.24363 0.39139 0.15427 0.0
C396 C 0.15939 0.39622 0.18628 0.0
C397 C 0.1697 0.41445 0.15246 0.0
N398 N 0.25328 0.49158 0.05478 0.0
C399 C 0.31842 0.51973 1.01799 0.0
C400 C 0.30294 0.56077 1.0168 0.0
C401 C 0.25938 0.56495 0.03158 0.0
C402 C 0.2349 0.52998 0.0497 0.0
C403 C 0.29317 0.48589 0.03666 0.0
H404 H 0.20206 0.53517 0.0609 0.0
H405 H 0.30778 0.45592 0.03768 0.0
H406 H 0.27649 0.38812 0.1427 0.0
H407 H 0.14331 0.43034 0.13996 0.0
C408 C 0.2799 0.52383 0.14887 0.0
C409 C 0.33741 0.40236 0.08762 0.0
C410 C 0.12356 0.49792 0.10263 0.0
C411 C 0.18339 0.37935 0.0402 0.0
H412 H 0.40635 0.45236 0.12887 0.0
H413 H 0.37574 0.51872 0.16306 0.0
H414 H 0.22209 0.58587 0.17526 0.0
H415 H 0.13719 0.57101 0.14973 0.0
H416 H 0.05648 0.44669 0.06004 0.0
H417 H 0.08926 0.3835 0.02494 0.0
H418 H 0.23826 0.31488 1.01647 0.0
H419 H 0.32208 0.3272 0.04345 0.0
H420 H 0.26209 0.35851 0.20204 0.0
H421 H 0.12585 0.39891 0.19799 0.0
H422 H 0.35105 0.51428 1.00591 0.0
H423 H 0.24495 0.59557 0.03026 0.0
C424 C 0.18585 0.31857 0.2541 0.0
C425 C 0.18429 0.36235 0.2438 0.0
C426 C 0.1564 0.37828 0.30425 0.0
C427 C 0.15936 0.33478 0.31495 0.0
N428 N 0.1889 0.26707 0.30267 0.0
N429 N 0.1817 0.4359 0.26302 0.0
C430 C 0.17847 0.30628 0.29071 0.0
C431 C 0.17372 0.39279 0.27013 0.0
N432 N 0.19147 0.28807 0.22866 0.0
N433 N 0.13544 0.40565 0.3259 0.0
H434 H 0.1958 0.44789 0.23894 0.0
H435 H 0.17908 0.45964 0.28232 0.0
H436 H 0.12443 0.39768 0.35168 0.0
H437 H 0.12658 0.43554 0.31741 0.0
H438 H 0.18805 0.25512 0.23399 0.0
H439 H 0.19526 0.29529 0.20154 0.0
H440 H 0.20666 0.24628 0.28733 0.0
H441 H 0.18371 0.2573 0.32919 0.0
C442 C 0.39056 0.87901 0.75973 0.0
C443 C 0.3447 0.87619 0.74667 0.0
C444 C 0.31608 0.86222 0.80832 0.0
C445 C 0.36197 0.86254 0.82098 0.0
N446 N 0.44224 0.86032 0.80659 0.0
N447 N 0.26414 0.8558 0.75743 0.0
C448 C 0.39898 0.86761 0.79597 0.0
C449 C 0.30758 0.86486 0.7707 0.0
N450 N 0.42618 0.89465 0.73812 0.0
N451 N 0.28063 0.86143 0.83227 0.0
H452 H 0.25686 0.85688 0.73015 0.0
H453 H 0.23628 0.84326 0.77291 0.0
H454 H 0.28544 0.85991 0.85985 0.0
H455 H 0.24705 0.86593 0.82503 0.0
H456 H 0.45962 0.90226 0.7474 0.0
H457 H 0.42176 0.9036 0.71159 0.0
H458 H 0.46969 0.8592 0.78891 0.0
H459 H 0.44965 0.85097 0.83252 0.0
C460 C 0.91343 0.67811 0.29966 0.0
C461 C 0.90131 0.71842 0.31251 0.0
C462 C 0.86213 0.72877 0.25491 0.0
C463 C 0.87958 0.69128 0.24076 0.0
N464 N 0.92834 0.63407 0.24824 0.0
N465 N 0.86595 0.78356 0.30154 0.0
C466 C 0.90696 0.66701 0.26282 0.0
C467 C 0.87594 0.74404 0.28986 0.0
N468 N 0.93001 0.64966 0.32283 0.0
N469 N 0.8313 0.7491 0.23536 0.0
H470 H 0.87322 0.79457 0.32748 0.0
H471 H 0.85271 0.80624 0.28512 0.0
H472 H 0.82093 0.73917 0.20973 0.0
H473 H 0.81343 0.77372 0.24543 0.0
H474 H 0.93548 0.61825 0.31586 0.0
H475 H 0.93296 0.65551 0.35011 0.0
H476 H 0.9529 0.61833 0.26179 0.0
H477 H 0.92498 0.62517 0.22141 0.0
C478 C 0.69305 0.15231 0.81198 0.0
C479 C 0.69866 0.195 0.82575 0.0
C480 C 0.72242 0.22213 0.76578 0.0
C481 C 0.71783 0.17934 0.75216 0.0
N482 N 0.71049 0.10309 0.76463 0.0
N483 N 0.72951 0.26887 0.81799 0.0
C484 C 0.70685 0.14424 0.77607 0.0
C485 C 0.71704 0.2293 0.80328 0.0
N486 N 0.67236 0.11967 0.83253 0.0
N487 N 0.72934 0.25616 0.74272 0.0
H488 H 0.72626 0.27488 0.84529 0.0
H489 H 0.74709 0.29429 0.80396 0.0
H490 H 0.73292 0.25239 0.71518 0.0
H491 H 0.72779 0.28806 0.75044 0.0
H492 H 0.66202 0.089 0.82262 0.0
H493 H 0.66265 0.124 0.85902 0.0
H494 H 0.70737 0.07648 0.78159 0.0
H495 H 0.72112 0.09599 0.73883 0.0
C496 C 0.18752 0.0737 0.50425 0.0
C497 C 0.22485 0.06138 0.48331 0.0
C498 C 0.20133 0.10685 0.43377 0.0
C499 C 0.16665 0.12197 0.45584 0.0
N500 N 0.12824 0.12219 0.51283 0.0
N501 N 0.26903 0.06736 0.42892 0.0
C502 C 0.1599 0.10564 0.49117 0.0
C503 C 0.23206 0.07816 0.44817 0.0
N504 N 0.17839 0.05468 0.53679 0.0
N505 N 0.20445 0.11977 0.39884 0.0
H506 H 0.29104 0.0455 0.43819 0.0
H507 H 0.2796 0.08155 0.40472 0.0
H508 H 0.18277 0.14084 0.38781 0.0
H509 H 0.22595 0.10749 0.38005 0.0
H510 H 0.14856 0.0576 0.55145 0.0
H511 H 0.19955 0.03372 0.54855 0.0
H512 H 0.12531 0.11624 0.54015 0.0
H513 H 0.10607 0.14403 0.50381 0.0
C514 C 0.12843 0.83615 0.58243 0.0
C515 C 0.14686 0.8781 0.57162 0.0
C516 C 0.08284 0.87732 0.52838 0.0
C517 C 0.07341 0.83198 0.53227 0.0
N518 N 0.09258 0.76722 0.56167 0.0
N519 N 0.14004 0.93879 0.53235 0.0
C520 C 0.09682 0.81112 0.55956 0.0
C521 C 0.12296 0.89921 0.54461 0.0
N522 N 0.14337 0.81931 0.61344 0.0
N523 N 0.05442 0.89908 0.50773 0.0
H524 H 0.16905 0.95604 0.543 0.0
H525 H 0.12724 0.95327 0.50988 0.0
H526 H 1.02565 0.88345 0.49501 0.0
H527 H 0.05682 0.93259 0.50617 0.0
H528 H 0.12901 0.79001 0.62392 0.0
H529 H 0.16693 0.83689 0.63017 0.0
H530 H 0.11267 0.75038 0.57862 0.0
H531 H 0.07208 0.74755 0.54428 0.0
C532 C 0.83137 0.97997 0.45559 0.0
C533 C 0.83804 0.99345 0.49176 0.0
C534 C 0.90074 0.94617 0.49726 0.0
C535 C 0.89455 0.93318 0.46099 0.0
N536 N 0.86021 0.94358 0.40372 0.0
N537 N 0.88537 0.99601 0.54467 0.0
C538 C 0.86193 0.95221 0.43955 0.0
C539 C 0.87482 0.97864 0.51176 0.0
N540 N 0.79425 0.9917 0.43717 0.0
N541 N 0.92997 0.92591 0.51847 0.0
H542 H 0.86651 1.01866 0.5568 0.0
H543 H 0.91493 0.99068 0.55881 0.0
H544 H 0.95052 0.90308 0.50869 0.0
H545 H 0.93181 0.92954 0.54612 0.0
H546 H 0.78418 0.97922 0.41227 0.0
H547 H 0.77132 1.01182 0.4479 0.0
H548 H 0.84058 0.95934 0.3857 0.0
H549 H 0.88162 0.92308 0.39149 0.0
C550 C 0.93014 0.14833 0.54247 0.0
C551 C 0.90518 0.16948 0.56864 0.0
C552 C 0.95381 0.23716 0.55629 0.0
C553 C 0.97862 0.21634 0.5297 0.0
N554 N 0.99907 0.1493 0.50566 0.0
N555 N 0.9054 0.22915 0.60933 0.0
C556 C 0.97 0.17077 0.52604 0.0
C557 C 0.92203 0.212 0.57898 0.0
N558 N 0.91412 0.10789 0.5315 0.0
N559 N 0.95671 0.28109 0.55773 0.0
H560 H 0.8817 0.21139 0.62588 0.0
H561 H 0.91856 0.25893 0.6196 0.0
H562 H 0.97696 0.3009 0.54024 0.0
H563 H 0.93562 0.29775 0.57407 0.0
H564 H 0.92743 0.09253 0.50964 0.0
H565 H 0.88544 0.09079 0.54309 0.0
H566 H 0.997 0.11582 0.50402 0.0
H567 H 1.0279 0.16517 0.49309 0.0
C568 C 0.31976 0.6201 0.96982 0.0
C569 C 0.33291 0.59924 1.00151 0.0
C570 C 0.40333 0.65075 1.00388 0.0
C571 C 0.38688 0.67512 0.9754 0.0
N572 N 0.32703 0.68452 0.93278 0.0
N573 N 0.38526 0.59852 0.05132 0.0
C574 C 0.3446 0.65994 0.95858 0.0
C575 C 0.3745 0.61535 1.01901 0.0
N576 N 0.28414 0.60122 0.94985 0.0
N577 N 0.44672 0.6618 1.01664 0.0
H578 H 0.36485 0.57352 0.06382 0.0
H579 H 0.41218 0.61176 0.06734 0.0
H580 H 0.46829 0.68754 1.00622 0.0
H581 H 0.46286 0.64325 0.03498 0.0
H582 H 0.2757 0.61216 0.92463 0.0
H583 H 0.26552 0.57219 0.95707 0.0
H584 H 0.2938 0.67845 0.92271 0.0
H585 H 0.34489 0.71259 0.92281 0.0
C586 C 0.65048 0.69521 0.08946 0.0
C587 C 0.68858 0.68743 0.06714 0.0
C588 C 0.6599 0.73825 0.02404 0.0
C589 C 0.61729 0.73904 0.04229 0.0
N590 N 0.56963 0.70727 0.09042 0.0
N591 N 0.71749 0.69303 1.00612 0.0
C592 C 0.61176 0.71441 0.07458 0.0
C593 C 0.68909 0.70582 0.03212 0.0
N594 N 0.65162 0.68624 0.1251 0.0
N595 N 0.67427 0.76983 1.00009 0.0
H596 H 0.73881 0.66881 1.00993 0.0
H597 H 0.71622 0.70399 0.97981 0.0
H598 H 0.65651 0.79682 0.99606 0.0
H599 H 0.70667 0.77174 0.98806 0.0
H600 H 0.62636 0.69457 0.14281 0.0
H601 H 0.67996 0.67455 0.13725 0.0
H602 H 0.56361 0.6869 0.1124 0.0
H603 H 0.53997 0.71741 0.07917 0.0
C604 C 0.74786 0.4468 0.95908 0.0
C605 C 0.73792 0.4684 0.99133 0.0
C606 C 0.66759 0.41762 0.9982 0.0
C607 C 0.68085 0.39246 0.96893 0.0
N608 N 0.73554 0.38198 0.92243 0.0
N609 N 0.69184 0.46877 0.04495 0.0
C610 C 0.72147 0.40698 0.94951 0.0
C611 C 0.69851 0.45242 1.01163 0.0
N612 N 0.78181 0.46492 0.93706 0.0
N613 N 0.62508 0.40857 1.01316 0.0
H614 H 0.71422 0.49302 0.05644 0.0
H615 H 0.66685 0.45535 0.06268 0.0
H616 H 0.60122 0.38434 1.00351 0.0
H617 H 0.61154 0.42811 0.03225 0.0
H618 H 0.78797 0.45338 0.91156 0.0
H619 H 0.80146 0.49379 0.94316 0.0
H620 H 0.76747 0.38753 0.90996 0.0
H621 H 0.71595 0.35412 0.91365 0.0
C622 C 0.42812 0.31956 0.08972 0.0
C623 C 0.45248 0.32989 0.05735 0.0
C624 C 0.41083 0.39505 0.05197 0.0
C625 C 0.38205 0.38154 0.08138 0.0
N626 N 0.36212 0.32925 0.12757 0.0
N627 N 0.46191 0.37493 1.00487 0.0
C628 C 0.39065 0.3434 0.10017 0.0
C629 C 0.44261 0.36717 0.03787 0.0
N630 N 0.44171 0.28771 0.11114 0.0
N631 N 0.40823 0.435 0.03769 0.0
H632 H 0.48436 0.35507 0.99313 0.0
H633 H 0.45237 0.39867 0.98762 0.0
H634 H 0.38658 0.45647 0.04811 0.0
H635 H 0.43099 0.44865 1.01841 0.0
H636 H 0.42888 0.28141 0.1368 0.0
H637 H 0.46876 0.2698 0.10443 0.0
H638 H 0.36223 0.29903 0.13938 0.0
H639 H 0.33663 0.34715 0.1374 0.0
C640 C 0.06906 0.55156 0.4278 0.0
C641 C 1.02759 0.57176 0.42789 0.0
C642 C 0.98303 0.50001 0.42626 0.0
C643 C 1.02444 0.47983 0.42817 0.0
N644 N 0.10646 0.48636 0.43752 0.0
N645 N 0.94501 0.56524 0.43399 0.0
C646 C 0.06734 0.50569 0.43096 0.0
C647 C 0.98454 0.54591 0.42913 0.0
N648 N 0.11014 0.5761 0.42328 0.0
N649 N 0.94233 0.47543 0.42031 0.0
H650 H 0.94466 0.59855 0.4363 0.0
H651 H 0.91309 0.54826 0.43889 0.0
H652 H 0.93979 0.44189 0.41853 0.0
H653 H 0.9117 0.48831 0.41445 0.0
H654 H 0.14113 0.56318 0.41879 0.0
H655 H 0.11281 0.60961 0.4212 0.0
H656 H 0.13801 0.50336 0.44357 0.0
H657 H 0.10662 0.45306 0.44008 0.0
C658 C 0.5488 0.03753 0.63566 0.0
C659 C 0.57505 0.03796 0.60335 0.0
C660 C 0.50238 1.01862 0.5707 0.0
C661 C 0.47738 1.01153 0.60323 0.0
N662 N 0.4801 1.00789 0.66755 0.0
N663 N 0.57618 1.01884 0.54092 0.0
C664 C 0.5016 1.01915 0.636 0.0
C665 C 0.55153 1.02513 0.57119 0.0
N666 N 0.56796 0.05637 0.66578 0.0
N667 N 0.47911 1.01993 0.53915 0.0
H668 H 0.61209 1.02246 0.5404 0.0
H669 H 0.5611 1.00591 0.51754 0.0
H670 H 0.44325 1.01677 0.53787 0.0
H671 H 0.49529 1.02864 0.51499 0.0
H672 H 0.5491 0.06086 0.68892 0.0
H673 H 0.60157 0.07103 0.66659 0.0
H674 H 0.49736 1.00849 0.69194 0.0
H675 H 0.44591 0.99458 0.66889 0.0
C676 C 0.57523 0.05574 0.93833 0.0
C677 C 0.5411 0.08284 0.94906 0.0
C678 C 0.48683 1.01681 0.95511 0.0
C679 C 0.52272 0.98902 0.94981 0.0
N680 N 0.60475 0.98612 0.94512 0.0
N681 N 0.46748 0.08563 0.9776 0.0
C682 C 0.56792 1.0097 0.9435 0.0
C683 C 0.49767 0.06239 0.95994 0.0
N684 N 0.61529 0.07407 0.92361 0.0
N685 N 0.44186 1.00018 0.95601 0.0
H686 H 0.47462 0.11826 0.98358 0.0
H687 H 0.43755 0.07142 0.98973 0.0
H688 H 0.4313 0.96753 0.95474 0.0
H689 H 0.41474 1.0195 0.95546 0.0
H690 H 0.63978 0.05603 0.91234 0.0
H691 H 0.62178 0.10726 0.91963 0.0
H692 H 0.63871 1.00003 0.94435 0.0
H693 H 0.60148 0.95326 0.95094 0.0
C694 C 0.05026 0.51614 0.13717 0.0
C695 C 0.0766 0.51648 0.10488 0.0
C696 C 1.00761 0.53501 0.07248 0.0
C697 C 0.98363 0.5416 0.10493 0.0
N698 N 0.98715 0.54444 0.16928 0.0
N699 N 0.08187 0.53881 0.04317 0.0
C700 C 1.00642 0.53379 0.13765 0.0
C701 C 0.05569 0.53005 0.07306 0.0
N702 N 0.06605 0.49766 0.16718 0.0
N703 N 0.98441 0.53315 0.0408 0.0
H704 H 0.11732 0.53692 0.04281 0.0
H705 H 0.06912 0.55222 1.02016 0.0
H706 H 0.94911 0.53528 0.03935 0.0
H707 H 0.99938 0.52495 1.01673 0.0
H708 H 0.04639 0.49262 0.19036 0.0
H709 H 0.09716 0.48402 0.16786 0.0
H710 H 1.00422 0.54369 0.19368 0.0
H711 H 0.95562 0.55734 0.1707 0.0
loop_
_geom_bond_atom_site_label_1
_geom_bond_atom_site_label_2
_geom_bond_distance
_geom_bond_site_symmetry_2
_ccdc_geom_bond_type
C0 C1 1.443 . S
C0 N4 1.376 . S
C0 C38 1.389 . S
C1 C0 1.443 . S
C1 C2 1.340 . S
C1 H41 0.951 . S
C2 C1 1.340 . S
C2 C3 1.439 . S
C2 H42 0.950 . S
C3 C2 1.439 . S
C3 N4 1.374 . S
C3 C37 1.395 . S
N4 C0 1.376 . S
N4 C3 1.374 . S
N4 Co5 2.008 . S
Co5 N4 2.008 . S
Co5 N6 1.995 . S
Co5 N11 2.008 1_455 S
Co5 N16 1.995 . S
Co5 N21 2.282 . S
Co5 N27 2.282 1_455 S
N6 Co5 1.995 . S
N6 C7 1.376 . S
N6 C10 1.383 1_455 S
C7 N6 1.376 . S
C7 C8 1.446 . S
C7 C37 1.391 . S
C8 C7 1.446 . S
C8 C9 1.339 . S
C8 H43 0.949 . S
C9 C8 1.339 . S
C9 C10 1.439 1_455 S
C9 H44 0.950 1_455 S
C10 N6 1.383 1_655 S
C10 C9 1.439 1_655 S
C10 C39 1.392 . S
N11 Co5 2.008 1_655 S
N11 C12 1.376 . S
N11 C15 1.374 . S
C12 N11 1.376 . S
C12 C13 1.443 . S
C12 C39 1.389 . S
C13 C12 1.443 . S
C13 C14 1.340 . S
C13 H45 0.951 . S
C14 C13 1.340 . S
C14 C15 1.439 . S
C14 H46 0.950 . S
C15 N11 1.374 . S
C15 C14 1.439 . S
C15 C40 1.395 . S
N16 Co5 1.995 . S
N16 C17 1.376 1_455 S
N16 C20 1.383 . S
C17 N16 1.376 1_655 S
C17 C18 1.446 1_655 S
C17 C40 1.391 . S
C18 C17 1.446 1_455 S
C18 C19 1.339 . S
C18 H47 0.949 1_455 S
C19 C18 1.339 . S
C19 C20 1.439 . S
C19 H48 0.950 . S
C20 N16 1.383 . S
C20 C19 1.439 . S
C20 C38 1.392 . S
N21 Co5 2.282 . S
N21 C24 1.332 . S
N21 C26 1.332 . S
C22 C23 1.386 . S
C22 C25 1.388 . S
C23 C22 1.386 . S
C23 C24 1.382 . S
C23 H49 0.950 . S
C24 N21 1.332 . S
C24 C23 1.382 . S
C24 H35 0.952 . S
C25 C22 1.388 . S
C25 C26 1.382 . S
C25 H50 0.950 . S
C26 N21 1.332 . S
C26 C25 1.382 . S
C26 H36 0.948 . S
N27 Co5 2.282 1_655 S
N27 C31 1.330 1_655 S
N27 C32 1.332 . S
C28 C29 1.388 . S
C28 C32 1.382 . S
C28 H51 0.950 . S
C29 C28 1.388 . S
C29 C30 1.386 . S
C30 C29 1.386 . S
C30 C31 1.374 1_655 S
C30 H52 0.950 . S
C31 N27 1.330 1_455 S
C31 C30 1.374 1_455 S
C31 H33 0.963 . S
C32 N27 1.332 . S
C32 C28 1.382 . S
C32 H34 0.948 . S
H33 C31 0.963 . S
H34 C32 0.948 . S
H35 C24 0.952 . S
H36 C26 0.948 . S
C37 C3 1.395 . S
C37 C7 1.391 . S
C38 C0 1.389 . S
C38 C20 1.392 . S
C39 C10 1.392 . S
C39 C12 1.389 . S
C40 C15 1.395 . S
C40 C17 1.391 . S
H41 C1 0.951 . S
H42 C2 0.950 . S
H43 C8 0.949 . S
H44 C9 0.950 1_655 S
H45 C13 0.951 . S
H46 C14 0.950 . S
H47 C18 0.949 1_655 S
H48 C19 0.950 . S
H49 C23 0.950 . S
H50 C25 0.950 . S
H51 C28 0.950 . S
H52 C30 0.950 . S
C53 C54 1.443 . S
C53 N57 1.376 . S
C53 C91 1.389 . S
C54 C53 1.443 . S
C54 C55 1.340 . S
C54 H94 0.951 . S
C55 C54 1.340 . S
C55 C56 1.439 . S
C55 H95 0.950 . S
C56 C55 1.439 . S
C56 N57 1.374 . S
C56 C90 1.395 . S
N57 C53 1.376 . S
N57 C56 1.374 . S
N57 Co58 2.008 . S
Co58 N57 2.008 . S
Co58 N59 1.995 . S
Co58 N64 2.008 . S
Co58 N69 1.995 . S
Co58 N74 2.282 . S
Co58 N80 2.282 . S
N59 Co58 1.995 . S
N59 C60 1.376 . S
N59 C63 1.383 . S
C60 N59 1.376 . S
C60 C61 1.446 . S
C60 C90 1.391 . S
C61 C60 1.446 . S
C61 C62 1.339 . S
C61 H96 0.949 . S
C62 C61 1.339 . S
C62 C63 1.439 . S
C62 H97 0.950 . S
C63 N59 1.383 . S
C63 C62 1.439 . S
C63 C92 1.392 . S
N64 Co58 2.008 . S
N64 C65 1.376 . S
N64 C68 1.374 . S
C65 N64 1.376 . S
C65 C66 1.443 . S
C65 C92 1.389 . S
C66 C65 1.443 . S
C66 C67 1.340 . S
C66 H98 0.951 . S
C67 C66 1.340 . S
C67 C68 1.439 . S
C67 H99 0.950 . S
C68 N64 1.374 . S
C68 C67 1.439 . S
C68 C93 1.395 . S
N69 Co58 1.995 . S
N69 C70 1.376 . S
N69 C73 1.383 . S
C70 N69 1.376 . S
C70 C71 1.446 1_565 S
C70 C93 1.391 . S
C71 C70 1.446 1_545 S
C71 C72 1.339 . S
C71 H100 0.949 . S
C72 C71 1.339 . S
C72 C73 1.439 1_545 S
C72 H101 0.950 . S
C73 N69 1.383 . S
C73 C72 1.439 1_565 S
C73 C91 1.392 . S
N74 Co58 2.282 . S
N74 C77 1.332 1_565 S
N74 C79 1.332 . S
C75 C76 1.386 . S
C75 C78 1.388 1_545 S
C76 C75 1.386 . S
C76 C77 1.382 . S
C76 H102 0.950 . S
C77 N74 1.332 1_545 S
C77 C76 1.382 . S
C77 H88 0.952 . S
C78 C75 1.388 1_565 S
C78 C79 1.382 . S
C78 H103 0.950 . S
C79 N74 1.332 . S
C79 C78 1.382 . S
C79 H89 0.948 . S
N80 Co58 2.282 . S
N80 C84 1.332 . S
N80 C85 1.332 . S
C81 C82 1.388 . S
C81 C85 1.382 . S
C81 H104 0.950 . S
C82 C81 1.388 . S
C82 C83 1.386 . S
C83 C82 1.386 . S
C83 C84 1.382 . S
C83 H105 0.950 . S
C84 N80 1.332 . S
C84 C83 1.382 . S
C84 H86 0.952 . S
C85 N80 1.332 . S
C85 C81 1.382 . S
C85 H87 0.948 . S
H86 C84 0.952 . S
H87 C85 0.948 . S
H88 C77 0.952 . S
H89 C79 0.948 . S
C90 C56 1.395 . S
C90 C60 1.391 . S
C91 C53 1.389 . S
C91 C73 1.392 . S
C92 C63 1.392 . S
C92 C65 1.389 . S
C93 C68 1.395 . S
C93 C70 1.391 . S
H94 C54 0.951 . S
H95 C55 0.950 . S
H96 C61 0.949 . S
H97 C62 0.950 . S
H98 C66 0.951 . S
H99 C67 0.950 . S
H100 C71 0.949 . S
H101 C72 0.950 . S
H102 C76 0.950 . S
H103 C78 0.950 . S
H104 C81 0.950 . S
H105 C83 0.950 . S
C106 C107 1.443 . S
C106 N110 1.376 . S
C106 C144 1.389 . S
C107 C106 1.443 . S
C107 C108 1.340 . S
C107 H147 0.951 . S
C108 C107 1.340 . S
C108 C109 1.439 . S
C108 H148 0.950 . S
C109 C108 1.439 . S
C109 N110 1.374 . S
C109 C143 1.395 . S
N110 C106 1.376 . S
N110 C109 1.374 . S
N110 Co111 2.008 . S
Co111 N110 2.008 . S
Co111 N112 1.995 . S
Co111 N117 2.008 1_655 S
Co111 N122 1.995 . S
Co111 N127 2.282 . S
Co111 N133 2.282 1_655 S
N112 Co111 1.995 . S
N112 C113 1.376 . S
N112 C116 1.383 1_655 S
C113 N112 1.376 . S
C113 C114 1.446 . S
C113 C143 1.391 . S
C114 C113 1.446 . S
C114 C115 1.339 . S
C114 H149 0.949 . S
C115 C114 1.339 . S
C115 C116 1.439 1_655 S
C115 H150 0.950 1_655 S
C116 N112 1.383 1_455 S
C116 C115 1.439 1_455 S
C116 C145 1.392 . S
N117 Co111 2.008 1_455 S
N117 C118 1.376 . S
N117 C121 1.374 . S
C118 N117 1.376 . S
C118 C119 1.443 . S
C118 C145 1.389 . S
C119 C118 1.443 . S
C119 C120 1.340 . S
C119 H151 0.951 . S
C120 C119 1.340 . S
C120 C121 1.439 . S
C120 H152 0.950 . S
C121 N117 1.374 . S
C121 C120 1.439 . S
C121 C146 1.395 . S
N122 Co111 1.995 . S
N122 C123 1.376 1_655 S
N122 C126 1.383 . S
C123 N122 1.376 1_455 S
C123 C124 1.446 1_455 S
C123 C146 1.391 . S
C124 C123 1.446 1_655 S
C124 C125 1.339 . S
C124 H153 0.949 1_655 S
C125 C124 1.339 . S
C125 C126 1.439 . S
C125 H154 0.950 . S
C126 N122 1.383 . S
C126 C125 1.439 . S
C126 C144 1.392 . S
N127 Co111 2.282 . S
N127 C130 1.332 . S
N127 C132 1.332 . S
C128 C129 1.386 . S
C128 C131 1.388 . S
C129 C128 1.386 . S
C129 C130 1.382 . S
C129 H155 0.950 . S
C130 N127 1.332 . S
C130 C129 1.382 . S
C130 H141 0.952 . S
C131 C128 1.388 . S
C131 C132 1.382 . S
C131 H156 0.950 . S
C132 N127 1.332 . S
C132 C131 1.382 . S
C132 H142 0.948 . S
N133 Co111 2.282 1_455 S
N133 C137 1.330 1_455 S
N133 C138 1.332 . S
C134 C135 1.388 . S
C134 C138 1.382 . S
C134 H157 0.950 . S
C135 C134 1.388 . S
C135 C136 1.386 . S
C136 C135 1.386 . S
C136 C137 1.374 1_455 S
C136 H158 0.950 . S
C137 N133 1.330 1_655 S
C137 C136 1.374 1_655 S
C137 H139 0.963 . S
C138 N133 1.332 . S
C138 C134 1.382 . S
C138 H140 0.948 . S
H139 C137 0.963 . S
H140 C138 0.948 . S
H141 C130 0.952 . S
H142 C132 0.948 . S
C143 C109 1.395 . S
C143 C113 1.391 . S
C144 C106 1.389 . S
C144 C126 1.392 . S
C145 C116 1.392 . S
C145 C118 1.389 . S
C146 C121 1.395 . S
C146 C123 1.391 . S
H147 C107 0.951 . S
H148 C108 0.950 . S
H149 C114 0.949 . S
H150 C115 0.950 1_455 S
H151 C119 0.951 . S
H152 C120 0.950 . S
H153 C124 0.949 1_455 S
H154 C125 0.950 . S
H155 C129 0.950 . S
H156 C131 0.950 . S
H157 C134 0.950 . S
H158 C136 0.950 . S
C159 C160 1.443 . S
C159 N163 1.376 . S
C159 C197 1.389 . S
C160 C159 1.443 . S
C160 C161 1.340 . S
C160 H200 0.951 . S
C161 C160 1.340 . S
C161 C162 1.439 . S
C161 H201 0.950 . S
C162 C161 1.439 . S
C162 N163 1.374 . S
C162 C196 1.395 . S
N163 C159 1.376 . S
N163 C162 1.374 . S
N163 Co164 2.008 . S
Co164 N163 2.008 . S
Co164 N165 1.995 . S
Co164 N170 2.008 . S
Co164 N175 1.995 . S
Co164 N180 2.282 . S
Co164 N186 2.282 . S
N165 Co164 1.995 . S
N165 C166 1.376 . S
N165 C169 1.383 . S
C166 N165 1.376 . S
C166 C167 1.446 . S
C166 C196 1.391 . S
C167 C166 1.446 . S
C167 C168 1.339 . S
C167 H202 0.949 . S
C168 C167 1.339 . S
C168 C169 1.439 . S
C168 H203 0.950 . S
C169 N165 1.383 . S
C169 C168 1.439 . S
C169 C198 1.392 . S
N170 Co164 2.008 . S
N170 C171 1.376 . S
N170 C174 1.374 . S
C171 N170 1.376 . S
C171 C172 1.443 . S
C171 C198 1.389 . S
C172 C171 1.443 . S
C172 C173 1.340 . S
C172 H204 0.951 . S
C173 C172 1.340 . S
C173 C174 1.439 . S
C173 H205 0.950 . S
C174 N170 1.374 . S
C174 C173 1.439 . S
C174 C199 1.395 . S
N175 Co164 1.995 . S
N175 C176 1.376 . S
N175 C179 1.383 . S
C176 N175 1.376 . S
C176 C177 1.446 1_545 S
C176 C199 1.391 . S
C177 C176 1.446 1_565 S
C177 C178 1.339 . S
C177 H206 0.949 . S
C178 C177 1.339 . S
C178 C179 1.439 1_565 S
C178 H207 0.950 . S
C179 N175 1.383 . S
C179 C178 1.439 1_545 S
C179 C197 1.392 . S
N180 Co164 2.282 . S
N180 C183 1.332 1_545 S
N180 C185 1.332 . S
C181 C182 1.386 . S
C181 C184 1.388 1_565 S
C182 C181 1.386 . S
C182 C183 1.382 . S
C182 H208 0.950 . S
C183 N180 1.332 1_565 S
C183 C182 1.382 . S
C183 H194 0.952 . S
C184 C181 1.388 1_545 S
C184 C185 1.382 . S
C184 H209 0.950 . S
C185 N180 1.332 . S
C185 C184 1.382 . S
C185 H195 0.948 . S
N186 Co164 2.282 . S
N186 C190 1.332 . S
N186 C191 1.332 . S
C187 C188 1.388 . S
C187 C191 1.382 . S
C187 H210 0.950 . S
C188 C187 1.388 . S
C188 C189 1.386 . S
C189 C188 1.386 . S
C189 C190 1.382 . S
C189 H211 0.950 . S
C190 N186 1.332 . S
C190 C189 1.382 . S
C190 H192 0.952 . S
C191 N186 1.332 . S
C191 C187 1.382 . S
C191 H193 0.948 . S
H192 C190 0.952 . S
H193 C191 0.948 . S
H194 C183 0.952 . S
H195 C185 0.948 . S
C196 C162 1.395 . S
C196 C166 1.391 . S
C197 C159 1.389 . S
C197 C179 1.392 . S
C198 C169 1.392 . S
C198 C171 1.389 . S
C199 C174 1.395 . S
C199 C176 1.391 . S
H200 C160 0.951 . S
H201 C161 0.950 . S
H202 C167 0.949 . S
H203 C168 0.950 . S
H204 C172 0.951 . S
H205 C173 0.950 . S
H206 C177 0.949 . S
H207 C178 0.950 . S
H208 C182 0.950 . S
H209 C184 0.950 . S
H210 C187 0.950 . S
H211 C189 0.950 . S
C212 C213 1.455 . S
C212 N216 1.376 . S
C212 C250 1.389 . S
C213 C212 1.455 . S
C213 C214 1.334 1_556 S
C213 H253 0.946 1_556 S
C214 C213 1.334 1_554 S
C214 C215 1.439 1_554 S
C214 H254 0.950 . S
C215 C214 1.439 1_556 S
C215 N216 1.374 . S
C215 C249 1.395 1_556 S
N216 C212 1.376 . S
N216 C215 1.374 . S
N216 Co217 2.008 . S
Co217 N216 2.008 . S
Co217 N218 1.995 . S
Co217 N223 2.008 . S
Co217 N228 1.995 . S
Co217 N233 2.282 . S
Co217 N239 2.282 . S
N218 Co217 1.995 . S
N218 C219 1.376 . S
N218 C222 1.383 . S
C219 N218 1.376 . S
C219 C220 1.446 . S
C219 C249 1.391 1_556 S
C220 C219 1.446 . S
C220 C221 1.339 . S
C220 H255 0.949 1_556 S
C221 C220 1.339 . S
C221 C222 1.439 . S
C221 H256 0.950 . S
C222 N218 1.383 . S
C222 C221 1.439 . S
C222 C251 1.392 . S
N223 Co217 2.008 . S
N223 C224 1.376 . S
N223 C227 1.374 . S
C224 N223 1.376 . S
C224 C225 1.443 . S
C224 C251 1.389 . S
C225 C224 1.443 . S
C225 C226 1.340 . S
C225 H257 0.951 . S
C226 C225 1.340 . S
C226 C227 1.439 . S
C226 H258 0.950 . S
C227 N223 1.374 . S
C227 C226 1.439 . S
C227 C252 1.395 . S
N228 Co217 1.995 . S
N228 C229 1.376 . S
N228 C232 1.383 . S
C229 N228 1.376 . S
C229 C230 1.446 . S
C229 C252 1.391 . S
C230 C229 1.446 . S
C230 C231 1.339 . S
C230 H259 0.949 . S
C231 C230 1.339 . S
C231 C232 1.439 . S
C231 H260 0.950 . S
C232 N228 1.383 . S
C232 C231 1.439 . S
C232 C250 1.392 . S
N233 Co217 2.282 . S
N233 C236 1.332 . S
N233 C238 1.332 . S
C234 C235 1.386 . S
C234 C237 1.388 . S
C235 C234 1.386 . S
C235 C236 1.382 . S
C235 H261 0.950 . S
C236 N233 1.332 . S
C236 C235 1.382 . S
C236 H247 0.952 . S
C237 C234 1.388 . S
C237 C238 1.382 . S
C237 H262 0.950 . S
C238 N233 1.332 . S
C238 C237 1.382 . S
C238 H248 0.948 . S
N239 Co217 2.282 . S
N239 C243 1.332 1_556 S
N239 C244 1.332 . S
C240 C241 1.388 1_556 S
C240 C244 1.382 . S
C240 H263 0.950 . S
C241 C240 1.388 1_554 S
C241 C242 1.386 . S
C242 C241 1.386 . S
C242 C243 1.382 . S
C242 H264 0.950 . S
C243 N239 1.332 1_554 S
C243 C242 1.382 . S
C243 H245 0.952 . S
C244 N239 1.332 . S
C244 C240 1.382 . S
C244 H246 0.948 . S
H245 C243 0.952 . S
H246 C244 0.948 . S
H247 C236 0.952 . S
H248 C238 0.948 . S
C249 C215 1.395 1_554 S
C249 C219 1.391 1_554 S
C250 C212 1.389 . S
C250 C232 1.392 . S
C251 C222 1.392 . S
C251 C224 1.389 . S
C252 C227 1.395 . S
C252 C229 1.391 . S
H253 C213 0.946 1_554 S
H254 C214 0.950 . S
H255 C220 0.949 1_554 S
H256 C221 0.950 . S
H257 C225 0.951 . S
H258 C226 0.950 . S
H259 C230 0.949 . S
H260 C231 0.950 . S
H261 C235 0.950 . S
H262 C237 0.950 . S
H263 C240 0.950 . S
H264 C242 0.950 . S
C265 C266 1.443 . S
C265 N269 1.376 . S
C265 C303 1.389 . S
C266 C265 1.443 . S
C266 C267 1.340 . S
C266 H306 0.951 . S
C267 C266 1.340 . S
C267 C268 1.439 . S
C267 H307 0.950 . S
C268 C267 1.439 . S
C268 N269 1.374 . S
C268 C302 1.395 . S
N269 C265 1.376 . S
N269 C268 1.374 . S
N269 Co270 2.008 . S
Co270 N269 2.008 . S
Co270 N271 1.995 . S
Co270 N276 2.008 . S
Co270 N281 1.995 . S
Co270 N286 2.282 . S
Co270 N292 2.282 . S
N271 Co270 1.995 . S
N271 C272 1.376 . S
N271 C275 1.383 . S
C272 N271 1.376 . S
C272 C273 1.446 . S
C272 C302 1.391 . S
C273 C272 1.446 . S
C273 C274 1.339 . S
C273 H308 0.949 . S
C274 C273 1.339 . S
C274 C275 1.439 . S
C274 H309 0.950 . S
C275 N271 1.383 . S
C275 C274 1.439 . S
C275 C304 1.392 . S
N276 Co270 2.008 . S
N276 C277 1.376 . S
N276 C280 1.374 . S
C277 N276 1.376 . S
C277 C278 1.443 . S
C277 C304 1.389 . S
C278 C277 1.443 . S
C278 C279 1.340 . S
C278 H310 0.951 . S
C279 C278 1.340 . S
C279 C280 1.439 . S
C279 H311 0.950 . S
C280 N276 1.374 . S
C280 C279 1.439 . S
C280 C305 1.395 . S
N281 Co270 1.995 . S
N281 C282 1.376 . S
N281 C285 1.383 . S
C282 N281 1.376 . S
C282 C283 1.446 . S
C282 C305 1.391 . S
C283 C282 1.446 . S
C283 C284 1.339 . S
C283 H312 0.935 1_554 S
C284 C283 1.339 . S
C284 C285 1.439 . S
C284 H313 0.950 . S
C285 N281 1.383 . S
C285 C284 1.439 . S
C285 C303 1.392 . S
N286 Co270 2.282 . S
N286 C289 1.332 . S
N286 C291 1.332 . S
C287 C288 1.386 . S
C287 C290 1.388 . S
C288 C287 1.386 . S
C288 C289 1.382 . S
C288 H314 0.950 . S
C289 N286 1.332 . S
C289 C288 1.382 . S
C289 H300 0.952 . S
C290 C287 1.388 . S
C290 C291 1.382 . S
C290 H315 0.950 . S
C291 N286 1.332 . S
C291 C290 1.382 . S
C291 H301 0.948 . S
N292 Co270 2.282 . S
N292 C296 1.332 . S
N292 C297 1.332 . S
C293 C294 1.388 1_556 S
C293 C297 1.382 1_556 S
C293 H316 0.950 . S
C294 C293 1.388 1_554 S
C294 C295 1.386 . S
C295 C294 1.386 . S
C295 C296 1.382 . S
C295 H317 0.950 . S
C296 N292 1.332 . S
C296 C295 1.382 . S
C296 H298 0.952 . S
C297 N292 1.332 . S
C297 C293 1.382 1_554 S
C297 H299 0.948 . S
H298 C296 0.952 . S
H299 C297 0.948 . S
H300 C289 0.952 . S
H301 C291 0.948 . S
C302 C268 1.395 . S
C302 C272 1.391 . S
C303 C265 1.389 . S
C303 C285 1.392 . S
C304 C275 1.392 . S
C304 C277 1.389 . S
C305 C280 1.395 . S
C305 C282 1.391 . S
H306 C266 0.951 . S
H307 C267 0.950 . S
H308 C273 0.949 . S
H309 C274 0.950 . S
H310 C278 0.951 . S
H311 C279 0.950 . S
H312 C283 0.935 1_556 S
H313 C284 0.950 . S
H314 C288 0.950 . S
H315 C290 0.950 . S
H316 C293 0.950 . S
H317 C295 0.950 . S
C318 C319 1.455 . S
C318 N322 1.376 . S
C318 C356 1.389 . S
C319 C318 1.455 . S
C319 C320 1.334 1_556 S
C319 H359 0.946 1_556 S
C320 C319 1.334 1_554 S
C320 C321 1.439 1_554 S
C320 H360 0.950 . S
C321 C320 1.439 1_556 S
C321 N322 1.374 . S
C321 C355 1.395 1_556 S
N322 C318 1.376 . S
N322 C321 1.374 . S
N322 Co323 2.008 . S
Co323 N322 2.008 . S
Co323 N324 1.995 . S
Co323 N329 2.008 . S
Co323 N334 1.995 . S
Co323 N339 2.282 . S
Co323 N345 2.282 . S
N324 Co323 1.995 . S
N324 C325 1.376 . S
N324 C328 1.383 . S
C325 N324 1.376 . S
C325 C326 1.446 . S
C325 C355 1.391 1_556 S
C326 C325 1.446 . S
C326 C327 1.339 . S
C326 H361 0.949 1_556 S
C327 C326 1.339 . S
C327 C328 1.439 . S
C327 H362 0.950 . S
C328 N324 1.383 . S
C328 C327 1.439 . S
C328 C357 1.392 . S
N329 Co323 2.008 . S
N329 C330 1.376 . S
N329 C333 1.374 . S
C330 N329 1.376 . S
C330 C331 1.443 . S
C330 C357 1.389 . S
C331 C330 1.443 . S
C331 C332 1.340 . S
C331 H363 0.951 . S
C332 C331 1.340 . S
C332 C333 1.439 . S
C332 H364 0.950 . S
C333 N329 1.374 . S
C333 C332 1.439 . S
C333 C358 1.395 . S
N334 Co323 1.995 . S
N334 C335 1.376 . S
N334 C338 1.383 . S
C335 N334 1.376 . S
C335 C336 1.446 . S
C335 C358 1.391 . S
C336 C335 1.446 . S
C336 C337 1.339 . S
C336 H365 0.949 . S
C337 C336 1.339 . S
C337 C338 1.439 . S
C337 H366 0.950 . S
C338 N334 1.383 . S
C338 C337 1.439 . S
C338 C356 1.392 . S
N339 Co323 2.282 . S
N339 C342 1.332 . S
N339 C344 1.332 . S
C340 C341 1.386 . S
C340 C343 1.388 . S
C341 C340 1.386 . S
C341 C342 1.382 . S
C341 H367 0.950 . S
C342 N339 1.332 . S
C342 C341 1.382 . S
C342 H353 0.952 . S
C343 C340 1.388 . S
C343 C344 1.382 . S
C343 H368 0.950 . S
C344 N339 1.332 . S
C344 C343 1.382 . S
C344 H354 0.948 . S
N345 Co323 2.282 . S
N345 C349 1.332 1_556 S
N345 C350 1.332 . S
C346 C347 1.388 1_556 S
C346 C350 1.382 . S
C346 H369 0.950 . S
C347 C346 1.388 1_554 S
C347 C348 1.386 . S
C348 C347 1.386 . S
C348 C349 1.382 . S
C348 H370 0.950 . S
C349 N345 1.332 1_554 S
C349 C348 1.382 . S
C349 H351 0.952 . S
C350 N345 1.332 . S
C350 C346 1.382 . S
C350 H352 0.948 . S
H351 C349 0.952 . S
H352 C350 0.948 . S
H353 C342 0.952 . S
H354 C344 0.948 . S
C355 C321 1.395 1_554 S
C355 C325 1.391 1_554 S
C356 C318 1.389 . S
C356 C338 1.392 . S
C357 C328 1.392 . S
C357 C330 1.389 . S
C358 C333 1.395 . S
C358 C335 1.391 . S
H359 C319 0.946 1_554 S
H360 C320 0.950 . S
H361 C326 0.949 1_554 S
H362 C327 0.950 . S
H363 C331 0.951 . S
H364 C332 0.950 . S
H365 C336 0.949 . S
H366 C337 0.950 . S
H367 C341 0.950 . S
H368 C343 0.950 . S
H369 C346 0.950 . S
H370 C348 0.950 . S
C371 C372 1.443 . S
C371 N375 1.376 . S
C371 C409 1.389 . S
C372 C371 1.443 . S
C372 C373 1.340 . S
C372 H412 0.951 . S
C373 C372 1.340 . S
C373 C374 1.439 . S
C373 H413 0.950 . S
C374 C373 1.439 . S
C374 N375 1.374 . S
C374 C408 1.395 . S
N375 C371 1.376 . S
N375 C374 1.374 . S
N375 Co376 2.008 . S
Co376 N375 2.008 . S
Co376 N377 1.995 . S
Co376 N382 2.008 . S
Co376 N387 1.995 . S
Co376 N392 2.282 . S
Co376 N398 2.282 . S
N377 Co376 1.995 . S
N377 C378 1.376 . S
N377 C381 1.383 . S
C378 N377 1.376 . S
C378 C379 1.446 . S
C378 C408 1.391 . S
C379 C378 1.446 . S
C379 C380 1.339 . S
C379 H414 0.949 . S
C380 C379 1.339 . S
C380 C381 1.439 . S
C380 H415 0.950 . S
C381 N377 1.383 . S
C381 C380 1.439 . S
C381 C410 1.392 . S
N382 Co376 2.008 . S
N382 C383 1.376 . S
N382 C386 1.374 . S
C383 N382 1.376 . S
C383 C384 1.443 . S
C383 C410 1.389 . S
C384 C383 1.443 . S
C384 C385 1.340 . S
C384 H416 0.951 . S
C385 C384 1.340 . S
C385 C386 1.439 . S
C385 H417 0.950 . S
C386 N382 1.374 . S
C386 C385 1.439 . S
C386 C411 1.395 . S
N387 Co376 1.995 . S
N387 C388 1.376 . S
N387 C391 1.383 . S
C388 N387 1.376 . S
C388 C389 1.446 . S
C388 C411 1.391 . S
C389 C388 1.446 . S
C389 C390 1.339 . S
C389 H418 0.935 1_554 S
C390 C389 1.339 . S
C390 C391 1.439 . S
C390 H419 0.950 . S
C391 N387 1.383 . S
C391 C390 1.439 . S
C391 C409 1.392 . S
N392 Co376 2.282 . S
N392 C395 1.332 . S
N392 C397 1.332 . S
C393 C394 1.386 . S
C393 C396 1.388 . S
C394 C393 1.386 . S
C394 C395 1.382 . S
C394 H420 0.950 . S
C395 N392 1.332 . S
C395 C394 1.382 . S
C395 H406 0.952 . S
C396 C393 1.388 . S
C396 C397 1.382 . S
C396 H421 0.950 . S
C397 N392 1.332 . S
C397 C396 1.382 . S
C397 H407 0.948 . S
N398 Co376 2.282 . S
N398 C402 1.332 . S
N398 C403 1.332 . S
C399 C400 1.388 1_556 S
C399 C403 1.382 1_556 S
C399 H422 0.950 . S
C400 C399 1.388 1_554 S
C400 C401 1.386 . S
C401 C400 1.386 . S
C401 C402 1.382 . S
C401 H423 0.950 . S
C402 N398 1.332 . S
C402 C401 1.382 . S
C402 H404 0.952 . S
C403 N398 1.332 . S
C403 C399 1.382 1_554 S
C403 H405 0.948 . S
H404 C402 0.952 . S
H405 C403 0.948 . S
H406 C395 0.952 . S
H407 C397 0.948 . S
C408 C374 1.395 . S
C408 C378 1.391 . S
C409 C371 1.389 . S
C409 C391 1.392 . S
C410 C381 1.392 . S
C410 C383 1.389 . S
C411 C386 1.395 . S
C411 C388 1.391 . S
H412 C372 0.951 . S
H413 C373 0.950 . S
H414 C379 0.949 . S
H415 C380 0.950 . S
H416 C384 0.951 . S
H417 C385 0.950 . S
H418 C389 0.935 1_556 S
H419 C390 0.950 . S
H420 C394 0.950 . S
H421 C396 0.950 . S
H422 C399 0.950 . S
H423 C401 0.950 . S
C424 C425 1.363 . S
C424 C430 1.379 . S
C424 N432 1.356 . S
C425 C424 1.363 . S
C425 C431 1.363 . S
C426 C427 1.363 . S
C426 C431 1.379 . S
C426 N433 1.356 . S
C427 C426 1.363 . S
C427 C430 1.363 . S
N428 C430 1.356 . S
N428 H440 0.984 . S
N428 H441 0.985 . S
N429 C431 1.356 . S
N429 H434 0.984 . S
N429 H435 0.985 . S
C430 C424 1.379 . S
C430 C427 1.363 . S
C430 N428 1.356 . S
C431 C425 1.363 . S
C431 C426 1.379 . S
C431 N429 1.356 . S
N432 C424 1.356 . S
N432 H438 0.984 . S
N432 H439 0.984 . S
N433 C426 1.356 . S
N433 H436 0.984 . S
N433 H437 0.985 . S
H434 N429 0.984 . S
H435 N429 0.985 . S
H436 N433 0.984 . S
H437 N433 0.985 . S
H438 N432 0.984 . S
H439 N432 0.984 . S
H440 N428 0.984 . S
H441 N428 0.985 . S
C442 C443 1.363 . S
C442 C448 1.379 . S
C442 N450 1.356 . S
C443 C442 1.363 . S
C443 C449 1.363 . S
C444 C445 1.363 . S
C444 C449 1.379 . S
C444 N451 1.356 . S
C445 C444 1.363 . S
C445 C448 1.363 . S
N446 C448 1.356 . S
N446 H458 0.984 . S
N446 H459 0.985 . S
N447 C449 1.356 . S
N447 H452 0.984 . S
N447 H453 0.985 . S
C448 C442 1.379 . S
C448 C445 1.363 . S
C448 N446 1.356 . S
C449 C443 1.363 . S
C449 C444 1.379 . S
C449 N447 1.356 . S
N450 C442 1.356 . S
N450 H456 0.984 . S
N450 H457 0.984 . S
N451 C444 1.356 . S
N451 H454 0.984 . S
N451 H455 0.985 . S
H452 N447 0.984 . S
H453 N447 0.985 . S
H454 N451 0.984 . S
H455 N451 0.985 . S
H456 N450 0.984 . S
H457 N450 0.984 . S
H458 N446 0.984 . S
H459 N446 0.985 . S
C460 C461 1.363 . S
C460 C466 1.379 . S
C460 N468 1.356 . S
C461 C460 1.363 . S
C461 C467 1.363 . S
C462 C463 1.363 . S
C462 C467 1.379 . S
C462 N469 1.356 . S
C463 C462 1.363 . S
C463 C466 1.363 . S
N464 C466 1.356 . S
N464 H476 0.984 . S
N464 H477 0.985 . S
N465 C467 1.356 . S
N465 H470 0.984 . S
N465 H471 0.985 . S
C466 C460 1.379 . S
C466 C463 1.363 . S
C466 N464 1.356 . S
C467 C461 1.363 . S
C467 C462 1.379 . S
C467 N465 1.356 . S
N468 C460 1.356 . S
N468 H474 0.984 . S
N468 H475 0.984 . S
N469 C462 1.356 . S
N469 H472 0.984 . S
N469 H473 0.985 . S
H470 N465 0.984 . S
H471 N465 0.985 . S
H472 N469 0.984 . S
H473 N469 0.985 . S
H474 N468 0.984 . S
H475 N468 0.984 . S
H476 N464 0.984 . S
H477 N464 0.985 . S
C478 C479 1.363 . S
C478 C484 1.379 . S
C478 N486 1.356 . S
C479 C478 1.363 . S
C479 C485 1.363 . S
C480 C481 1.363 . S
C480 C485 1.379 . S
C480 N487 1.356 . S
C481 C480 1.363 . S
C481 C484 1.363 . S
N482 C484 1.356 . S
N482 H494 0.984 . S
N482 H495 0.985 . S
N483 C485 1.356 . S
N483 H488 0.984 . S
N483 H489 0.985 . S
C484 C478 1.379 . S
C484 C481 1.363 . S
C484 N482 1.356 . S
C485 C479 1.363 . S
C485 C480 1.379 . S
C485 N483 1.356 . S
N486 C478 1.356 . S
N486 H492 0.984 . S
N486 H493 0.984 . S
N487 C480 1.356 . S
N487 H490 0.984 . S
N487 H491 0.985 . S
H488 N483 0.984 . S
H489 N483 0.985 . S
H490 N487 0.984 . S
H491 N487 0.985 . S
H492 N486 0.984 . S
H493 N486 0.984 . S
H494 N482 0.984 . S
H495 N482 0.985 . S
C496 C497 1.363 . S
C496 C502 1.379 . S
C496 N504 1.356 . S
C497 C496 1.363 . S
C497 C503 1.363 . S
C498 C499 1.363 . S
C498 C503 1.379 . S
C498 N505 1.356 . S
C499 C498 1.363 . S
C499 C502 1.363 . S
N500 C502 1.356 . S
N500 H512 0.984 . S
N500 H513 0.985 . S
N501 C503 1.356 . S
N501 H506 0.984 . S
N501 H507 0.985 . S
C502 C496 1.379 . S
C502 C499 1.363 . S
C502 N500 1.356 . S
C503 C497 1.363 . S
C503 C498 1.379 . S
C503 N501 1.356 . S
N504 C496 1.356 . S
N504 H510 0.984 . S
N504 H511 0.984 . S
N505 C498 1.356 . S
N505 H508 0.984 . S
N505 H509 0.985 . S
H506 N501 0.984 . S
H507 N501 0.985 . S
H508 N505 0.984 . S
H509 N505 0.985 . S
H510 N504 0.984 . S
H511 N504 0.984 . S
H512 N500 0.984 . S
H513 N500 0.985 . S
C514 C515 1.363 . S
C514 C520 1.379 . S
C514 N522 1.356 . S
C515 C514 1.363 . S
C515 C521 1.363 . S
C516 C517 1.363 . S
C516 C521 1.379 . S
C516 N523 1.356 . S
C517 C516 1.363 . S
C517 C520 1.363 . S
N518 C520 1.356 . S
N518 H530 0.984 . S
N518 H531 0.985 . S
N519 C521 1.356 . S
N519 H524 0.984 . S
N519 H525 0.985 . S
C520 C514 1.379 . S
C520 C517 1.363 . S
C520 N518 1.356 . S
C521 C515 1.363 . S
C521 C516 1.379 . S
C521 N519 1.356 . S
N522 C514 1.356 . S
N522 H528 0.984 . S
N522 H529 0.984 . S
N523 C516 1.356 . S
N523 H526 0.984 . S
N523 H527 0.985 . S
H524 N519 0.984 . S
H525 N519 0.985 . S
H526 N523 0.984 . S
H527 N523 0.985 . S
H528 N522 0.984 . S
H529 N522 0.984 . S
H530 N518 0.984 . S
H531 N518 0.985 . S
C532 C533 1.363 . S
C532 C538 1.379 . S
C532 N540 1.356 . S
C533 C532 1.363 . S
C533 C539 1.363 . S
C534 C535 1.363 . S
C534 C539 1.379 . S
C534 N541 1.356 . S
C535 C534 1.363 . S
C535 C538 1.363 . S
N536 C538 1.356 . S
N536 H548 0.984 . S
N536 H549 0.985 . S
N537 C539 1.356 1_545 S
N537 H542 0.984 . S
N537 H543 0.985 . S
C538 C532 1.379 . S
C538 C535 1.363 . S
C538 N536 1.356 . S
C539 C533 1.363 . S
C539 C534 1.379 . S
C539 N537 1.356 1_565 S
N540 C532 1.356 . S
N540 H546 0.984 . S
N540 H547 0.984 . S
N541 C534 1.356 . S
N541 H544 0.984 . S
N541 H545 0.985 . S
H542 N537 0.984 . S
H543 N537 0.985 . S
H544 N541 0.984 . S
H545 N541 0.985 . S
H546 N540 0.984 . S
H547 N540 0.984 . S
H548 N536 0.984 . S
H549 N536 0.985 . S
C550 C551 1.363 . S
C550 C556 1.379 . S
C550 N558 1.356 . S
C551 C550 1.363 . S
C551 C557 1.363 . S
C552 C553 1.363 . S
C552 C557 1.379 . S
C552 N559 1.356 . S
C553 C552 1.363 . S
C553 C556 1.363 . S
N554 C556 1.356 . S
N554 H566 0.984 . S
N554 H567 0.985 . S
N555 C557 1.356 . S
N555 H560 0.984 . S
N555 H561 0.985 . S
C556 C550 1.379 . S
C556 C553 1.363 . S
C556 N554 1.356 . S
C557 C551 1.363 . S
C557 C552 1.379 . S
C557 N555 1.356 . S
N558 C550 1.356 . S
N558 H564 0.984 . S
N558 H565 0.984 . S
N559 C552 1.356 . S
N559 H562 0.984 . S
N559 H563 0.985 . S
H560 N555 0.984 . S
H561 N555 0.985 . S
H562 N559 0.984 . S
H563 N559 0.985 . S
H564 N558 0.984 . S
H565 N558 0.984 . S
H566 N554 0.984 . S
H567 N554 0.985 . S
C568 C569 1.363 . S
C568 C574 1.379 . S
C568 N576 1.356 1_556 S
C569 C568 1.363 . S
C569 C575 1.363 . S
C570 C571 1.363 . S
C570 C575 1.379 . S
C570 N577 1.356 . S
C571 C570 1.363 . S
C571 C574 1.363 . S
N572 C574 1.356 . S
N572 H584 0.984 1_556 S
N572 H585 0.985 . S
N573 C575 1.356 . S
N573 H578 0.984 . S
N573 H579 0.985 . S
C574 C568 1.379 . S
C574 C571 1.363 . S
C574 N572 1.356 . S
C575 C569 1.363 . S
C575 C570 1.379 . S
C575 N573 1.356 . S
N576 C568 1.356 1_554 S
N576 H582 0.984 . S
N576 H583 0.984 . S
N577 C570 1.356 . S
N577 H580 0.984 . S
N577 H581 0.985 . S
H578 N573 0.984 . S
H579 N573 0.985 . S
H580 N577 0.984 . S
H581 N577 0.985 . S
H582 N576 0.984 . S
H583 N576 0.984 . S
H584 N572 0.984 1_554 S
H585 N572 0.985 . S
C586 C587 1.363 . S
C586 C592 1.379 . S
C586 N594 1.356 . S
C587 C586 1.363 . S
C587 C593 1.363 . S
C588 C589 1.363 . S
C588 C593 1.379 . S
C588 N595 1.356 1_554 S
C589 C588 1.363 . S
C589 C592 1.363 . S
N590 C592 1.356 . S
N590 H602 0.984 . S
N590 H603 0.985 . S
N591 C593 1.356 . S
N591 H596 0.984 . S
N591 H597 0.985 1_554 S
C592 C586 1.379 . S
C592 C589 1.363 . S
C592 N590 1.356 . S
C593 C587 1.363 . S
C593 C588 1.379 . S
C593 N591 1.356 . S
N594 C586 1.356 . S
N594 H600 0.984 . S
N594 H601 0.984 . S
N595 C588 1.356 1_556 S
N595 H598 0.984 . S
N595 H599 0.985 . S
H596 N591 0.984 . S
H597 N591 0.985 1_556 S
H598 N595 0.984 . S
H599 N595 0.985 . S
H600 N594 0.984 . S
H601 N594 0.984 . S
H602 N590 0.984 . S
H603 N590 0.985 . S
C604 C605 1.363 . S
C604 C610 1.379 . S
C604 N612 1.356 . S
C605 C604 1.363 . S
C605 C611 1.363 . S
C606 C607 1.363 . S
C606 C611 1.379 . S
C606 N613 1.356 . S
C607 C606 1.363 . S
C607 C610 1.363 . S
N608 C610 1.356 . S
N608 H620 0.984 . S
N608 H621 0.985 . S
N609 C611 1.356 . S
N609 H614 0.984 . S
N609 H615 0.985 . S
C610 C604 1.379 . S
C610 C607 1.363 . S
C610 N608 1.356 . S
C611 C605 1.363 . S
C611 C606 1.379 . S
C611 N609 1.356 . S
N612 C604 1.356 . S
N612 H618 0.984 . S
N612 H619 0.984 . S
N613 C606 1.356 . S
N613 H616 0.984 . S
N613 H617 0.985 . S
H614 N609 0.984 . S
H615 N609 0.985 . S
H616 N613 0.984 . S
H617 N613 0.985 . S
H618 N612 0.984 . S
H619 N612 0.984 . S
H620 N608 0.984 . S
H621 N608 0.985 . S
C622 C623 1.363 . S
C622 C628 1.379 . S
C622 N630 1.356 . S
C623 C622 1.363 . S
C623 C629 1.363 . S
C624 C625 1.363 . S
C624 C629 1.379 . S
C624 N631 1.356 . S
C625 C624 1.363 . S
C625 C628 1.363 . S
N626 C628 1.356 . S
N626 H638 0.984 . S
N626 H639 0.985 . S
N627 C629 1.356 . S
N627 H632 0.984 . S
N627 H633 0.985 1_554 S
C628 C622 1.379 . S
C628 C625 1.363 . S
C628 N626 1.356 . S
C629 C623 1.363 . S
C629 C624 1.379 . S
C629 N627 1.356 . S
N630 C622 1.356 . S
N630 H636 0.984 . S
N630 H637 0.984 . S
N631 C624 1.356 . S
N631 H634 0.984 . S
N631 H635 0.985 . S
H632 N627 0.984 . S
H633 N627 0.985 1_556 S
H634 N631 0.984 . S
H635 N631 0.985 . S
H636 N630 0.984 . S
H637 N630 0.984 . S
H638 N626 0.984 . S
H639 N626 0.985 . S
C640 C641 1.363 . S
C640 C646 1.379 . S
C640 N648 1.356 . S
C641 C640 1.363 . S
C641 C647 1.363 1_455 S
C642 C643 1.363 . S
C642 C647 1.379 . S
C642 N649 1.356 . S
C643 C642 1.363 . S
C643 C646 1.363 1_655 S
N644 C646 1.356 . S
N644 H656 0.984 . S
N644 H657 0.985 1_455 S
N645 C647 1.356 . S
N645 H650 0.984 1_655 S
N645 H651 0.985 . S
C646 C640 1.379 . S
C646 C643 1.363 1_455 S
C646 N644 1.356 . S
C647 C641 1.363 1_655 S
C647 C642 1.379 . S
C647 N645 1.356 . S
N648 C640 1.356 . S
N648 H654 0.984 . S
N648 H655 0.984 . S
N649 C642 1.356 . S
N649 H652 0.984 . S
N649 H653 0.985 . S
H650 N645 0.984 1_455 S
H651 N645 0.985 . S
H652 N649 0.984 . S
H653 N649 0.985 . S
H654 N648 0.984 . S
H655 N648 0.984 . S
H656 N644 0.984 . S
H657 N644 0.985 1_655 S
C658 C659 1.363 1_565 S
C658 C664 1.379 . S
C658 N666 1.356 . S
C659 C658 1.363 1_545 S
C659 C665 1.363 . S
C660 C661 1.363 1_545 S
C660 C665 1.379 . S
C660 N667 1.356 . S
C661 C660 1.363 1_565 S
C661 C664 1.363 . S
N662 C664 1.356 . S
N662 H674 0.984 . S
N662 H675 0.985 . S
N663 C665 1.356 . S
N663 H668 0.984 . S
N663 H669 0.985 . S
C664 C658 1.379 . S
C664 C661 1.363 . S
C664 N662 1.356 . S
C665 C659 1.363 . S
C665 C660 1.379 . S
C665 N663 1.356 . S
N666 C658 1.356 . S
N666 H672 0.984 . S
N666 H673 0.984 . S
N667 C660 1.356 . S
N667 H670 0.984 . S
N667 H671 0.985 . S
H668 N663 0.984 . S
H669 N663 0.985 . S
H670 N667 0.984 . S
H671 N667 0.985 . S
H672 N666 0.984 . S
H673 N666 0.984 . S
H674 N662 0.984 . S
H675 N662 0.985 . S
C676 C677 1.363 . S
C676 C682 1.379 1_545 S
C676 N684 1.356 . S
C677 C676 1.363 . S
C677 C683 1.363 . S
C678 C679 1.363 . S
C678 C683 1.379 1_565 S
C678 N685 1.356 . S
C679 C678 1.363 . S
C679 C682 1.363 . S
N680 C682 1.356 . S
N680 H692 0.984 . S
N680 H693 0.985 . S
N681 C683 1.356 . S
N681 H686 0.984 . S
N681 H687 0.985 . S
C682 C676 1.379 1_565 S
C682 C679 1.363 . S
C682 N680 1.356 . S
C683 C677 1.363 . S
C683 C678 1.379 1_545 S
C683 N681 1.356 . S
N684 C676 1.356 . S
N684 H690 0.984 . S
N684 H691 0.984 . S
N685 C678 1.356 . S
N685 H688 0.984 . S
N685 H689 0.985 . S
H686 N681 0.984 . S
H687 N681 0.985 . S
H688 N685 0.984 . S
H689 N685 0.985 . S
H690 N684 0.984 . S
H691 N684 0.984 . S
H692 N680 0.984 . S
H693 N680 0.985 . S
C694 C695 1.363 . S
C694 C700 1.379 1_455 S
C694 N702 1.356 . S
C695 C694 1.363 . S
C695 C701 1.363 . S
C696 C697 1.363 . S
C696 C701 1.379 1_655 S
C696 N703 1.356 . S
C697 C696 1.363 . S
C697 C700 1.363 . S
N698 C700 1.356 . S
N698 H710 0.984 . S
N698 H711 0.985 . S
N699 C701 1.356 . S
N699 H704 0.984 . S
N699 H705 0.985 . S
C700 C694 1.379 1_655 S
C700 C697 1.363 . S
C700 N698 1.356 . S
C701 C695 1.363 . S
C701 C696 1.379 1_455 S
C701 N699 1.356 . S
N702 C694 1.356 . S
N702 H708 0.984 . S
N702 H709 0.984 . S
N703 C696 1.356 . S
N703 H706 0.984 . S
N703 H707 0.985 . S
H704 N699 0.984 . S
H705 N699 0.985 . S
H706 N703 0.984 . S
H707 N703 0.985 . S
H708 N702 0.984 . S
H709 N702 0.984 . S
H710 N698 0.984 . S
H711 N698 0.985 . S
C425 C393 1.846 . S
C427 C38 1.880 . S
C443 C82 2.134 . S
C445 C234 2.162 . S
C461 C144 1.880 . S
C463 C287 1.846 . S
C479 C340 2.161 . S
C481 C188 2.134 . S
C497 C75 1.857 . S
C499 C22 1.830 . S
C515 C92 1.769 . S
C517 C145 1.791 . S
C533 C181 1.857 . S
C535 C128 1.830 . S
C551 C198 1.769 . S
C553 C39 1.791 . S
C569 C400 1.925 1_556 S
C571 C250 1.923 . S
C587 C303 2.066 . S
C589 C241 2.026 . S
C605 C294 1.925 1_556 S
C607 C356 1.923 . S
C623 C347 2.026 . S
C625 C409 2.066 . S
C641 C135 1.950 . S
C643 C29 1.950 . S
C659 C197 2.051 . S
C661 C91 2.051 . S
C677 C357 2.503 . S
C679 C251 2.503 . S
C695 C410 2.043 . S
C697 C304 2.043 . S
