# Generated by pormake.
# Topology unh, (4)-cn, num edge types: 1
# Building blocks:
#     Node 0, Type 0, BuildingBlock: ICAMEG_clean_sbu_1, # of connection points: 4
#     Node 1, Type 0, BuildingBlock: ICAMEG_clean_sbu_1, # of connection points: 4
#     Node 2, Type 0, BuildingBlock: ICAMEG_clean_sbu_1, # of connection points: 4
#     Node 3, Type 0, BuildingBlock: ICAMEG_clean_sbu_1, # of connection points: 4
#     Node 4, Type 0, BuildingBlock: ICAMEG_clean_sbu_1, # of connection points: 4
#     Node 5, Type 0, BuildingBlock: ICAMEG_clean_sbu_1, # of connection points: 4
#     Edge 6, Type (0, 0), BuildingBlock: FUNLAD_clean_linker_0, # of connection points: 2
#     Edge 7, Type (0, 0), BuildingBlock: FUNLAD_clean_linker_0, # of connection points: 2
#     Edge 8, Type (0, 0), BuildingBlock: FUNLAD_clean_linker_0, # of connection points: 2
#     Edge 9, Type (0, 0), BuildingBlock: FUNLAD_clean_linker_0, # of connection points: 2
#     Edge 10, Type (0, 0), BuildingBlock: FUNLAD_clean_linker_0, # of connection points: 2
#     Edge 11, Type (0, 0), BuildingBlock: FUNLAD_clean_linker_0, # of connection points: 2
#     Edge 12, Type (0, 0), BuildingBlock: FUNLAD_clean_linker_0, # of connection points: 2
#     Edge 13, Type (0, 0), BuildingBlock: FUNLAD_clean_linker_0, # of connection points: 2
#     Edge 14, Type (0, 0), BuildingBlock: FUNLAD_clean_linker_0, # of connection points: 2
#     Edge 15, Type (0, 0), BuildingBlock: FUNLAD_clean_linker_0, # of connection points: 2
#     Edge 16, Type (0, 0), BuildingBlock: FUNLAD_clean_linker_0, # of connection points: 2
#     Edge 17, Type (0, 0), BuildingBlock: FUNLAD_clean_linker_0, # of connection points: 2
# Relax obj value: 0.019
# Max RMSD: 0.107
# Mean RMSD: 0.107
data_MOF--net-unh--node1-ICAMEG_clean_sbu_1--edge1-FUNLAD_clean_linker_0
_symmetry_space_group_name_H-M    P1
_symmetry_Int_Tables_number       1
_symmetry_cell_setting            triclinic
loop_
_symmetry_equiv_pos_as_xyz
'x, y, z'
_cell_length_a     51.152903
_cell_length_b     51.115424
_cell_length_c     28.378414
_cell_angle_alpha  90.081162
_cell_angle_beta   90.035748
_cell_angle_gamma 119.99475
loop_
_atom_site_label
_atom_site_type_symbol
_atom_site_fract_x
_atom_site_fract_y
_atom_site_fract_z
_atom_type_partial_charge
Co0 Co 0.14599 0.54267 0.03636 0.0
Co1 Co 0.14382 0.59626 0.10785 0.0
O2 O 0.12466 0.55841 0.07286 0.0
C3 C 0.10443 0.54698 0.96928 0.0
O4 O 0.11501 0.57466 0.98488 0.0
C5 C 0.10743 0.54964 0.17771 0.0
O6 O 0.1202 0.53459 0.16188 0.0
O7 O 0.17318 0.58639 0.13708 0.0
O8 O 0.1772 0.55438 0.08703 0.0
H9 H 0.23102 0.69257 0.16997 0.0
H10 H 0.08051 0.50412 0.05547 0.0
O11 O 0.11489 0.53076 0.98535 0.0
H12 H 0.12828 0.44979 0.12449 0.0
H13 H 0.15189 0.46729 0.92912 0.0
H14 H 0.21019 0.56342 0.01529 0.0
H15 H 0.15896 0.49817 0.08318 0.0
H16 H 0.12593 0.48771 0.97709 0.0
O17 O 0.11487 0.57553 0.16079 0.0
H18 H 0.2069 0.64496 0.12466 0.0
H19 H 0.12025 0.62755 0.16825 0.0
H20 H 0.23709 0.54373 0.96804 0.0
H21 H 0.04893 0.45569 0.09615 0.0
H22 H 0.20788 0.49532 0.92454 0.0
H23 H 0.07284 0.42824 0.13117 0.0
O24 O 0.17131 0.58244 0.00519 0.0
H25 H 0.04104 0.57456 0.05517 0.0
H26 H 0.14947 0.65056 0.05931 0.0
H27 H 0.11387 0.66282 0.02016 0.0
H28 H 0.05923 0.62466 0.01791 0.0
H29 H 0.07743 0.56316 0.09368 0.0
H30 H 0.14342 0.67488 0.21433 0.0
H31 H 0.1992 0.7078 0.21522 0.0
O32 O 0.17286 0.61728 0.05541 0.0
C33 C 0.18507 0.57075 0.12416 0.0
C34 C 0.20669 0.67847 0.16973 0.0
C35 C 0.15753 0.66852 0.19469 0.0
N36 N 0.16221 0.63365 0.14353 0.0
C37 C 0.1929 0.65153 0.14404 0.0
C38 C 0.14454 0.64172 0.16862 0.0
C39 C 0.18882 0.68698 0.19516 0.0
C40 C 0.09104 0.49217 0.07021 0.0
N41 N 0.12154 0.50392 0.06684 0.0
C42 C 0.07306 0.46481 0.09337 0.0
C43 C 0.08649 0.44945 0.11308 0.0
C44 C 0.1176 0.46154 0.10937 0.0
C45 C 0.13487 0.48898 0.08605 0.0
C46 C 0.16487 0.48838 0.94799 0.0
C47 C 0.19735 0.54225 0.99669 0.0
C48 C 0.15029 0.50007 0.97512 0.0
N49 N 0.16656 0.52659 -0.00076 0.0
C50 C 0.2127 0.53126 0.96989 0.0
C51 C 0.19629 0.50411 0.94545 0.0
C52 C 0.18094 0.60979 0.01755 0.0
C53 C 0.06478 0.59141 0.05606 0.0
C54 C 0.12572 0.63383 0.05849 0.0
C55 C 0.10567 0.64092 0.03632 0.0
C56 C 0.07501 0.61951 0.03509 0.0
N57 N 0.11551 0.60623 0.079 0.0
C58 C 0.08548 0.58513 0.078 0.0
Co59 Co 0.60076 0.14361 0.20311 0.0
Co60 Co 0.55174 0.14252 0.28801 0.0
O61 O 0.56628 0.12264 0.24535 0.0
C62 C 0.54942 0.10304 0.14253 0.0
O63 O 0.5332 0.11189 0.16625 0.0
C64 C 0.56381 0.10322 0.3494 0.0
O65 O 0.59007 0.1142 0.32839 0.0
O66 O 0.59325 0.17 0.31185 0.0
O67 O 0.62474 0.17337 0.25374 0.0
H68 H 0.55249 0.23124 0.36593 0.0
H69 H 0.57239 0.07752 0.21779 0.0
O70 O 0.57735 0.11404 0.15179 0.0
H71 H 0.67847 0.11995 0.26702 0.0
H72 H 0.67248 0.14878 0.07722 0.0
H73 H 0.64466 0.20778 0.18252 0.0
H74 H 0.66024 0.15309 0.23626 0.0
H75 H 0.62954 0.12307 0.13194 0.0
O76 O 0.54571 0.11246 0.33793 0.0
H77 H 0.57058 0.20614 0.31137 0.0
H78 H 0.50154 0.12008 0.35767 0.0
H79 H 0.68792 0.23441 0.12863 0.0
H80 H 0.5897 0.0435 0.24793 0.0
H81 H 0.70207 0.20485 0.07549 0.0
H82 H 0.64307 0.06471 0.27298 0.0
O83 O 0.58602 0.17083 0.18036 0.0
H84 H 0.46344 0.04209 0.24186 0.0
H85 H 0.50197 0.1517 0.2527 0.0
H86 H 0.45082 0.11826 0.22127 0.0
H87 H 0.43123 0.06302 0.21577 0.0
H88 H 0.51456 0.07638 0.27259 0.0
H89 H 0.48283 0.14424 0.41301 0.0
H90 H 0.5083 0.20022 0.41724 0.0
O91 O 0.55759 0.17286 0.23903 0.0
C92 C 0.61956 0.181 0.29403 0.0
C93 C 0.54114 0.20683 0.36431 0.0
C94 C 0.50208 0.158 0.39078 0.0
N95 N 0.537 0.16169 0.3311 0.0
C96 C 0.55124 0.19249 0.3334 0.0
C97 C 0.51281 0.14445 0.35946 0.0
C98 C 0.51637 0.18941 0.39313 0.0
C99 C 0.59571 0.08688 0.22821 0.0
N100 N 0.6153 0.11726 0.22521 0.0
C101 C 0.60536 0.06752 0.24542 0.0
C102 C 0.63529 0.07944 0.25954 0.0
C103 C 0.65516 0.11044 0.25624 0.0
C104 C 0.6447 0.12911 0.23894 0.0
C105 C 0.66657 0.1619 0.10027 0.0
C106 C 0.65081 0.19477 0.15971 0.0
C107 C 0.64225 0.14748 0.13125 0.0
N108 N 0.63477 0.16393 0.16064 0.0
C109 C 0.67527 0.20997 0.12918 0.0
C110 C 0.68317 0.19337 0.09933 0.0
C111 C 0.57046 0.18133 0.19905 0.0
C112 C 0.47168 0.06611 0.24425 0.0
C113 C 0.49364 0.1277 0.25028 0.0
C114 C 0.46463 0.10887 0.23256 0.0
C115 C 0.45364 0.07787 0.22953 0.0
N116 N 0.51119 0.11599 0.26467 0.0
C117 C 0.50056 0.08562 0.26183 0.0
Co118 Co 0.39368 0.53731 0.46083 0.0
Co119 Co 0.44717 0.59066 0.38647 0.0
O120 O 0.43058 0.55381 0.42376 0.0
C121 C 0.44104 0.54635 0.52884 0.0
O122 O 0.45736 0.57341 0.51072 0.0
C123 C 0.43815 0.54291 0.31917 0.0
O124 O 0.41077 0.52715 0.33637 0.0
O125 O 0.40704 0.57823 0.35796 0.0
O126 O 0.37239 0.54562 0.40888 0.0
H127 H 0.4504 0.68313 0.31933 0.0
H128 H 0.42398 0.50146 0.4453 0.0
O129 O 0.4145 0.5287 0.5133 0.0
H130 H 0.32166 0.43984 0.37926 0.0
H131 H 0.31561 0.46267 0.57235 0.0
H132 H 0.34775 0.55523 0.47929 0.0
H133 H 0.33693 0.48894 0.41693 0.0
H134 H 0.36169 0.48383 0.52374 0.0
O135 O 0.4559 0.56951 0.33449 0.0
H136 H 0.42957 0.6368 0.36732 0.0
H137 H 0.50078 0.62233 0.32385 0.0
H138 H 0.30137 0.53472 0.5271 0.0
H139 H 0.40959 0.45238 0.40829 0.0
H140 H 0.28504 0.48812 0.57406 0.0
H141 H 0.35814 0.42126 0.37477 0.0
O142 O 0.40626 0.57756 0.48916 0.0
H143 H 0.5323 0.57523 0.43926 0.0
H144 H 0.49489 0.64728 0.43154 0.0
H145 H 0.54394 0.66277 0.46938 0.0
H146 H 0.56294 0.62661 0.4734 0.0
H147 H 0.48328 0.5606 0.40205 0.0
H148 H 0.52228 0.66839 0.27508 0.0
H149 H 0.4971 0.69919 0.27277 0.0
O150 O 0.43869 0.61209 0.43797 0.0
C151 C 0.37978 0.56127 0.37113 0.0
C152 C 0.46164 0.66995 0.32016 0.0
C153 C 0.50196 0.66165 0.29528 0.0
N154 N 0.46408 0.62704 0.34865 0.0
C155 C 0.44999 0.64375 0.34738 0.0
C156 C 0.48965 0.63557 0.32286 0.0
C157 C 0.48782 0.67893 0.29401 0.0
C158 C 0.40146 0.48793 0.43117 0.0
N159 N 0.3813 0.49804 0.43331 0.0
C160 C 0.39348 0.46021 0.4101 0.0
C161 C 0.36462 0.44278 0.39124 0.0
C162 C 0.34415 0.4532 0.39371 0.0
C163 C 0.35295 0.48106 0.41495 0.0
C164 C 0.32246 0.48296 0.55196 0.0
C165 C 0.34066 0.53482 0.4994 0.0
C166 C 0.34856 0.49507 0.52447 0.0
N167 N 0.35723 0.52058 0.49843 0.0
C168 C 0.31444 0.52337 0.52651 0.0
C169 C 0.30531 0.49724 0.55289 0.0
C170 C 0.42325 0.60482 0.47592 0.0
C171 C 0.52431 0.59122 0.4376 0.0
C172 C 0.503 0.63141 0.43318 0.0
C173 C 0.53081 0.64033 0.45458 0.0
C174 C 0.54147 0.62004 0.45681 0.0
N175 N 0.48631 0.60311 0.41437 0.0
C176 C 0.49662 0.5831 0.41638 0.0
Co177 Co 0.85758 0.46232 0.53424 0.0
Co178 Co 0.85707 0.40871 0.60862 0.0
O179 O 0.87769 0.44584 0.57211 0.0
C180 C 0.89873 0.4562 0.46845 0.0
O181 O 0.88746 0.42843 0.48392 0.0
C182 C 0.89563 0.45557 0.67719 0.0
O183 O 0.88401 0.47157 0.66086 0.0
O184 O 0.82948 0.42133 0.63721 0.0
O185 O 0.82626 0.452 0.58371 0.0
H186 H 0.76709 0.31631 0.67407 0.0
H187 H 0.92317 0.49958 0.55406 0.0
O188 O 0.88877 0.47292 0.48413 0.0
H189 H 0.87759 0.55672 0.6205 0.0
H190 H 0.85526 0.5384 0.42447 0.0
H191 H 0.79394 0.44335 0.51131 0.0
H192 H 0.84599 0.50815 0.57985 0.0
H193 H 0.87966 0.51708 0.47409 0.0
O194 O 0.88677 0.42918 0.66098 0.0
H195 H 0.79314 0.36293 0.62684 0.0
H196 H 0.87829 0.37612 0.67079 0.0
H197 H 0.76861 0.46397 0.4624 0.0
H198 H 0.95562 0.54814 0.59415 0.0
H199 H 0.79934 0.51184 0.41855 0.0
H200 H 0.93282 0.57701 0.62784 0.0
O201 O 0.83139 0.42248 0.50372 0.0
H202 H 0.95748 0.42387 0.55589 0.0
H203 H 0.84806 0.35206 0.56343 0.0
H204 H 0.88149 0.33649 0.52541 0.0
H205 H 0.93664 0.37253 0.52149 0.0
H206 H 0.9232 0.43857 0.59324 0.0
H207 H 0.85318 0.32977 0.7188 0.0
H208 H 0.79718 0.29946 0.72049 0.0
O209 O 0.82728 0.38784 0.55662 0.0
C210 C 0.81818 0.43706 0.62208 0.0
C211 C 0.79151 0.32926 0.6735 0.0
C212 C 0.83982 0.33684 0.69866 0.0
N213 N 0.83718 0.37206 0.64577 0.0
C214 C 0.80637 0.35562 0.64671 0.0
C215 C 0.85391 0.36309 0.6715 0.0
C216 C 0.8084 0.31984 0.69957 0.0
C217 C 0.91312 0.51216 0.56818 0.0
N218 N 0.88275 0.50113 0.56436 0.0
C219 C 0.9316 0.53959 0.59103 0.0
C220 C 0.91878 0.55575 0.60999 0.0
C221 C 0.88779 0.54436 0.60591 0.0
C222 C 0.87001 0.51683 0.58291 0.0
C223 C 0.84163 0.51755 0.44347 0.0
C224 C 0.80746 0.46428 0.49255 0.0
C225 C 0.85531 0.50535 0.47153 0.0
N226 N 0.83822 0.47912 0.4958 0.0
C227 C 0.79299 0.47581 0.46481 0.0
C228 C 0.81025 0.50264 0.44018 0.0
C229 C 0.8201 0.39524 0.51778 0.0
C230 C 0.9335 0.40794 0.55748 0.0
C231 C 0.872 0.36789 0.56172 0.0
C232 C 0.89084 0.35893 0.54027 0.0
C233 C 0.92179 0.37915 0.53812 0.0
N234 N 0.88366 0.39617 0.58062 0.0
C235 C 0.91399 0.41609 0.57875 0.0
Co236 Co 0.40096 0.85648 0.70586 0.0
Co237 Co 0.45407 0.85771 0.7825 0.0
O238 O 0.43796 0.87756 0.74286 0.0
C239 C 0.44802 0.89417 0.63729 0.0
O240 O 0.46448 0.88366 0.65572 0.0
C241 C 0.44728 0.90012 0.84439 0.0
O242 O 0.42064 0.88997 0.82501 0.0
O243 O 0.41406 0.83196 0.81224 0.0
O244 O 0.37982 0.82722 0.75816 0.0
H245 H 0.45479 0.7692 0.85788 0.0
H246 H 0.43014 0.9229 0.71783 0.0
O247 O 0.42154 0.88535 0.65285 0.0
H248 H 0.3283 0.8816 0.78556 0.0
H249 H 0.32232 0.85099 0.5932 0.0
H250 H 0.35564 0.79224 0.68817 0.0
H251 H 0.34439 0.84769 0.75069 0.0
H252 H 0.36841 0.87682 0.64186 0.0
O253 O 0.46393 0.88923 0.8324 0.0
H254 H 0.43476 0.79423 0.80698 0.0
H255 H 0.5081 0.88024 0.84462 0.0
H256 H 0.30928 0.76549 0.64032 0.0
H257 H 0.41483 0.95764 0.75179 0.0
H258 H 0.29235 0.79492 0.59239 0.0
H259 H 0.36363 0.93701 0.78617 0.0
O260 O 0.41391 0.82893 0.67903 0.0
H261 H 0.54049 0.95544 0.72357 0.0
H262 H 0.50039 0.84584 0.7397 0.0
H263 H 0.54939 0.87723 0.70048 0.0
H264 H 0.56975 0.93245 0.69222 0.0
H265 H 0.49149 0.92319 0.76226 0.0
H266 H 0.52882 0.85617 0.89624 0.0
H267 H 0.50216 0.80025 0.90295 0.0
O268 O 0.44438 0.82589 0.73327 0.0
C269 C 0.38694 0.82059 0.79769 0.0
C270 C 0.46667 0.79358 0.85512 0.0
C271 C 0.5082 0.8424 0.8767 0.0
N272 N 0.4704 0.83862 0.82252 0.0
C273 C 0.45549 0.80786 0.82624 0.0
C274 C 0.49634 0.8559 0.84749 0.0
C275 C 0.49323 0.81102 0.88044 0.0
C276 C 0.40769 0.91378 0.7322 0.0
N277 N 0.38813 0.88332 0.73206 0.0
C278 C 0.3992 0.93355 0.75158 0.0
C279 C 0.37049 0.92195 0.77095 0.0
C280 C 0.35067 0.89086 0.77067 0.0
C281 C 0.35993 0.87177 0.75099 0.0
C282 C 0.32942 0.83792 0.61402 0.0
C283 C 0.34829 0.8052 0.66765 0.0
C284 C 0.35552 0.85241 0.64157 0.0
N285 N 0.36452 0.83604 0.66815 0.0
C286 C 0.32208 0.78993 0.64052 0.0
C287 C 0.31261 0.80646 0.6136 0.0
C288 C 0.42975 0.81786 0.69443 0.0
C289 C 0.53191 0.93143 0.72709 0.0
C290 C 0.50909 0.86985 0.73622 0.0
C291 C 0.53687 0.88752 0.71404 0.0
C292 C 0.54829 0.9185 0.70945 0.0
N293 N 0.49318 0.8827 0.75349 0.0
C294 C 0.50424 0.91307 0.74916 0.0
Co295 Co 0.60183 0.45532 0.96369 0.0
Co296 Co 0.55142 0.40755 0.8807 0.0
O297 O 0.56699 0.44246 0.92248 0.0
C298 C 0.55341 0.44947 0.02692 0.0
O299 O 0.53634 0.4224 0.00905 0.0
C300 C 0.56109 0.45769 0.81826 0.0
O301 O 0.58823 0.47323 0.83657 0.0
O302 O 0.59225 0.4219 0.85386 0.0
O303 O 0.62363 0.44547 0.91455 0.0
H304 H 0.55137 0.31976 0.80073 0.0
H305 H 0.57785 0.4966 0.94581 0.0
O306 O 0.58068 0.46557 0.01344 0.0
H307 H 0.68329 0.55133 0.89049 0.0
H308 H 0.67792 0.52358 0.08394 0.0
H309 H 0.64242 0.43147 0.98778 0.0
H310 H 0.66203 0.50059 0.92543 0.0
H311 H 0.63456 0.50698 0.03006 0.0
O312 O 0.54334 0.4307 0.83168 0.0
H313 H 0.57056 0.36342 0.85466 0.0
H314 H 0.49892 0.37826 0.8151 0.0
H315 H 0.686 0.44736 0.04093 0.0
H316 H 0.59828 0.5474 0.91145 0.0
H317 H 0.70402 0.49374 0.08947 0.0
H318 H 0.65134 0.57508 0.88336 0.0
O319 O 0.58474 0.41384 0.98983 0.0
H320 H 0.4644 0.41914 0.93577 0.0
H321 H 0.50322 0.34862 0.91869 0.0
H322 H 0.45323 0.33079 0.9546 0.0
H323 H 0.43351 0.36616 0.9633 0.0
H324 H 0.51437 0.43609 0.90038 0.0
H325 H 0.47907 0.33489 0.76046 0.0
H326 H 0.5053 0.30525 0.75316 0.0
O327 O 0.55917 0.38376 0.92885 0.0
C328 C 0.61832 0.43436 0.87301 0.0
C329 C 0.53968 0.33244 0.80372 0.0
C330 C 0.49913 0.34095 0.78107 0.0
N331 N 0.53572 0.37319 0.83832 0.0
C332 C 0.55039 0.35712 0.83429 0.0
C333 C 0.5105 0.36551 0.812 0.0
C334 C 0.51385 0.32432 0.77701 0.0
C335 C 0.60105 0.50862 0.93412 0.0
N336 N 0.61876 0.4957 0.93786 0.0
C337 C 0.61246 0.53733 0.9145 0.0
C338 C 0.64221 0.55283 0.89868 0.0
C339 C 0.66014 0.53951 0.90264 0.0
C340 C 0.64796 0.51074 0.92237 0.0
C341 C 0.67032 0.50337 0.0629 0.0
C342 C 0.65025 0.45177 0.00859 0.0
C343 C 0.64575 0.49383 0.0324 0.0
N344 N 0.63615 0.46842 0.00554 0.0
C345 C 0.67488 0.46061 0.03871 0.0
C346 C 0.68496 0.48662 0.06598 0.0
C347 C 0.57053 0.38795 0.97011 0.0
C348 C 0.4727 0.40349 0.93203 0.0
C349 C 0.49481 0.36416 0.92242 0.0
C350 C 0.46647 0.35392 0.9427 0.0
C351 C 0.45541 0.37377 0.94754 0.0
N352 N 0.51163 0.39333 0.90724 0.0
C353 C 0.50092 0.41292 0.91183 0.0
C354 C 0.06592 0.55086 0.91977 0.0
C355 C 0.07931 0.53408 0.93485 0.0
C356 C 0.04154 0.53832 0.88842 0.0
C357 C 0.03011 0.5087 0.87121 0.0
C358 C 0.04345 0.49196 0.88655 0.0
C359 C 0.06781 0.50449 0.91786 0.0
C360 C 0.00381 0.49402 0.83859 0.0
C361 C 0.99472 0.50931 0.81068 0.0
C362 C 0.96869 0.49449 0.77753 0.0
C363 C 0.95532 0.51103 0.76131 0.0
C364 C 0.93132 0.49831 0.72927 0.0
C365 C 0.92024 0.46873 0.71249 0.0
H366 H 0.96782 0.4516 0.77058 0.0
C367 C 0.93365 0.45217 0.72853 0.0
C368 C 0.95766 0.4649 0.76048 0.0
H369 H 0.92591 0.42945 0.71587 0.0
H370 H 0.07398 0.57359 0.93268 0.0
H371 H 0.03142 0.55175 0.87883 0.0
H372 H 0.03501 0.46904 0.8742 0.0
H373 H 0.07748 0.49086 0.92895 0.0
H374 H 0.99189 0.46953 0.83745 0.0
H375 H 0.00659 0.5338 0.81191 0.0
H376 H 0.96349 0.53394 0.77344 0.0
H377 H 0.92167 0.51179 0.71736 0.0
C378 C 0.47801 0.92817 0.91474 0.0
C379 C 0.45895 0.92582 0.87736 0.0
C380 C 0.48947 0.95295 0.94535 0.0
C381 C 0.48278 0.97617 0.93809 0.0
C382 C 0.46415 0.97405 0.90031 0.0
C383 C 0.45185 0.94879 0.87069 0.0
C384 C 0.49611 0.00331 0.96848 0.0
C385 C 0.4948 0.00128 0.01569 0.0
C386 C 0.50833 0.02838 0.04625 0.0
C387 C 0.49221 0.02964 0.08532 0.0
C388 C 0.50514 0.0546 0.1156 0.0
C389 C 0.53482 0.07816 0.10817 0.0
H390 H 0.55078 0.05161 0.00857 0.0
C391 C 0.55103 0.07681 0.06922 0.0
C392 C 0.53774 0.05231 0.03811 0.0
H393 H 0.57401 0.09466 0.06293 0.0
H394 H 0.48386 0.91076 0.92044 0.0
H395 H 0.50417 0.95437 0.97396 0.0
H396 H 0.45892 0.99183 0.89397 0.0
H397 H 0.43744 0.94761 0.8418 0.0
H398 H 0.50581 0.02532 0.9517 0.0
H399 H 0.48232 0.97924 0.0323 0.0
H400 H 0.46958 0.01131 0.09236 0.0
H401 H 0.49232 0.05496 0.14571 0.0
C402 C 0.47886 0.54535 0.26722 0.0
C403 C 0.44901 0.52926 0.28376 0.0
C404 C 0.48954 0.53218 0.23504 0.0
C405 C 0.47047 0.50262 0.2182 0.0
C406 C 0.44069 0.48654 0.23499 0.0
C407 C 0.43003 0.4997 0.26729 0.0
C408 C 0.48107 0.4874 0.18475 0.0
C409 C 0.50521 0.50247 0.15638 0.0
C410 C 0.51676 0.48762 0.12407 0.0
C411 C 0.5469 0.50428 0.10919 0.0
C412 C 0.55884 0.49171 0.07827 0.0
C413 C 0.5408 0.46216 0.06103 0.0
H414 H 0.47504 0.44466 0.11624 0.0
C415 C 0.51055 0.44543 0.07563 0.0
C416 C 0.4986 0.45801 0.1068 0.0
H417 H 0.49596 0.42272 0.06258 0.0
H418 H 0.49422 0.56803 0.27965 0.0
H419 H 0.51294 0.54511 0.22459 0.0
H420 H 0.42558 0.46366 0.22307 0.0
H421 H 0.40697 0.48657 0.27959 0.0
H422 H 0.46836 0.46291 0.18379 0.0
H423 H 0.51777 0.52696 0.15714 0.0
H424 H 0.56137 0.52717 0.12164 0.0
H425 H 0.58219 0.50534 0.06759 0.0
C426 C 0.93694 0.45163 0.41905 0.0
C427 C 0.92408 0.46882 0.4346 0.0
C428 C 0.96156 0.4641 0.38822 0.0
C429 C 0.97375 0.49403 0.37218 0.0
C430 C 0.9609 0.51112 0.38798 0.0
C431 C 0.93632 0.49868 0.41865 0.0
C432 C 0.00021 0.50874 0.34012 0.0
C433 C 0.00926 0.49363 0.31171 0.0
C434 C 0.03504 0.50893 0.27846 0.0
C435 C 0.04957 0.49339 0.26276 0.0
C436 C 0.0734 0.50672 0.23059 0.0
C437 C 0.08307 0.53588 0.21318 0.0
H438 H 0.03342 0.55047 0.2703 0.0
C439 C 0.06844 0.55139 0.22864 0.0
C440 C 0.04463 0.53806 0.26069 0.0
H441 H 0.07505 0.57373 0.21544 0.0
H442 H 0.92825 0.42866 0.43115 0.0
H443 H 0.97124 0.45036 0.37808 0.0
H444 H 0.96988 0.53426 0.37647 0.0
H445 H 0.92708 0.51263 0.43008 0.0
H446 H 0.01229 0.53325 0.33955 0.0
H447 H 0.99756 0.46914 0.31247 0.0
H448 H 0.04247 0.47082 0.27542 0.0
H449 H 0.08401 0.49404 0.21907 0.0
C450 C 0.52649 0.06807 0.40814 0.0
C451 C 0.55438 0.07918 0.38518 0.0
C452 C 0.51687 0.04475 0.44087 0.0
C453 C 0.53479 0.03172 0.45116 0.0
C454 C 0.56301 0.04332 0.42917 0.0
C455 C 0.57268 0.06673 0.39627 0.0
C456 C 0.52492 0.00671 0.48566 0.0
C457 C 0.49556 0.98656 0.4933 0.0
C458 C 0.48429 0.96242 0.5296 0.0
C459 C 0.45394 0.94921 0.54329 0.0
C460 C 0.44217 0.92694 0.57795 0.0
C461 C 0.46044 0.91711 0.59955 0.0
H462 H 0.5258 0.96115 0.54036 0.0
C463 C 0.49069 0.9298 0.58531 0.0
C464 C 0.50253 0.95222 0.55063 0.0
H465 H 0.50532 0.9226 0.60116 0.0
H466 H 0.51198 0.07739 0.40088 0.0
H467 H 0.49554 0.03735 0.45847 0.0
H468 H 0.57742 0.03396 0.43695 0.0
H469 H 0.59435 0.07485 0.3793 0.0
H470 H 0.54242 0.0051 0.50479 0.0
H471 H 0.47852 0.98824 0.4728 0.0
H472 H 0.43928 0.95644 0.52755 0.0
H473 H 0.41872 0.91755 0.58792 0.0
C474 C 0.5219 0.45428 0.762 0.0
C475 C 0.55054 0.4715 0.78271 0.0
C476 C 0.51146 0.46713 0.729 0.0
C477 C 0.52932 0.49767 0.71619 0.0
C478 C 0.55819 0.51474 0.73617 0.0
C479 C 0.56868 0.50185 0.76929 0.0
C480 C 0.51887 0.51198 0.68096 0.0
C481 C 0.48941 0.50242 0.67333 0.0
C482 C 0.47791 0.51486 0.6366 0.0
C483 C 0.44767 0.49729 0.62239 0.0
C484 C 0.4357 0.50757 0.5876 0.0
C485 C 0.45367 0.53587 0.56641 0.0
H486 H 0.51898 0.55813 0.6266 0.0
C487 C 0.48381 0.55378 0.58109 0.0
C488 C 0.49583 0.54344 0.61589 0.0
H489 H 0.49821 0.57578 0.5656 0.0
H490 H 0.50747 0.43072 0.7711 0.0
H491 H 0.4896 0.4528 0.71309 0.0
H492 H 0.57256 0.5382 0.7265 0.0
H493 H 0.5909 0.51571 0.78449 0.0
H494 H 0.5361 0.53084 0.66112 0.0
H495 H 0.4725 0.48389 0.69419 0.0
H496 H 0.43325 0.47529 0.63789 0.0
H497 H 0.41235 0.49322 0.57727 0.0
C498 C 0.21875 0.55038 0.14803 0.0
C499 C 0.20956 0.57194 0.15365 0.0
C500 C 0.24209 0.55177 0.17558 0.0
C501 C 0.25694 0.57497 0.20901 0.0
C502 C 0.24813 0.59676 0.2141 0.0
C503 C 0.22448 0.5951 0.18713 0.0
C504 C 0.28234 0.57758 0.23786 0.0
C505 C 0.28365 0.55336 0.25322 0.0
C506 C 0.30861 0.55601 0.28324 0.0
C507 C 0.30243 0.53383 0.31732 0.0
C508 C 0.32545 0.53569 0.34619 0.0
C509 C 0.35533 0.55942 0.34074 0.0
H510 H 0.34408 0.59685 0.2509 0.0
C511 C 0.36159 0.58136 0.30595 0.0
C512 C 0.33846 0.57976 0.27764 0.0
H513 H 0.38435 0.59991 0.30075 0.0
H514 H 0.20796 0.53239 0.12234 0.0
H515 H 0.24886 0.53505 0.16994 0.0
H516 H 0.25941 0.615 0.23932 0.0
H517 H 0.21821 0.61226 0.19211 0.0
H518 H 0.29947 0.60005 0.24913 0.0
H519 H 0.26493 0.53082 0.24612 0.0
H520 H 0.27965 0.5152 0.32206 0.0
H521 H 0.31979 0.51836 0.37248 0.0
C522 C 0.64095 0.22084 0.35679 0.0
C523 C 0.64548 0.20432 0.32125 0.0
C524 C 0.66547 0.24362 0.38135 0.0
C525 C 0.69501 0.25009 0.3713 0.0
C526 C 0.69952 0.23309 0.33677 0.0
C527 C 0.67506 0.21072 0.3115 0.0
C528 C 0.72134 0.27395 0.3972 0.0
C529 C 0.72314 0.30019 0.40978 0.0
C530 C 0.74923 0.32425 0.43584 0.0
C531 C 0.75761 0.35453 0.42799 0.0
C532 C 0.78126 0.37766 0.45352 0.0
C533 C 0.79656 0.3709 0.48833 0.0
H534 H 0.75841 0.29425 0.47776 0.0
C535 C 0.78809 0.34051 0.49622 0.0
C536 C 0.7648 0.31743 0.47007 0.0
H537 H 0.79922 0.33445 0.52295 0.0
H538 H 0.61847 0.21648 0.36524 0.0
H539 H 0.66124 0.25589 0.4086 0.0
H540 H 0.72208 0.23751 0.32875 0.0
H541 H 0.67935 0.19836 0.28451 0.0
H542 H 0.74034 0.27048 0.40366 0.0
H543 H 0.70547 0.30481 0.39882 0.0
H544 H 0.74578 0.36032 0.40205 0.0
H545 H 0.787 0.40078 0.44677 0.0
C546 C 0.44334 0.77726 0.68355 0.0
C547 C 0.43124 0.79455 0.6653 0.0
C548 C 0.44404 0.75486 0.65605 0.0
C549 C 0.43278 0.74943 0.60964 0.0
C550 C 0.42136 0.76714 0.59116 0.0
C551 C 0.42034 0.78925 0.61872 0.0
C552 C 0.43317 0.72603 0.57905 0.0
C553 C 0.43109 0.70042 0.59583 0.0
C554 C 0.42965 0.67637 0.56461 0.0
C555 C 0.41402 0.64627 0.57997 0.0
C556 C 0.41178 0.62302 0.55117 0.0
C557 C 0.42556 0.62944 0.50654 0.0
H558 H 0.45686 0.70592 0.50782 0.0
C559 C 0.44178 0.6597 0.4916 0.0
C560 C 0.44382 0.6829 0.52028 0.0
H561 H 0.45292 0.66556 0.45765 0.0
H562 H 0.4521 0.78087 0.71917 0.0
H563 H 0.45378 0.7422 0.67102 0.0
H564 H 0.4128 0.76361 0.55539 0.0
H565 H 0.41109 0.80227 0.60331 0.0
H566 H 0.43298 0.72912 0.54121 0.0
H567 H 0.42819 0.69587 0.63341 0.0
H568 H 0.40313 0.64066 0.61413 0.0
H569 H 0.39929 0.60003 0.56403 0.0
C570 C 0.63955 0.42433 0.79987 0.0
C571 C 0.64369 0.43533 0.84632 0.0
C572 C 0.6633 0.42441 0.77538 0.0
C573 C 0.69175 0.43556 0.79683 0.0
C574 C 0.6958 0.44631 0.84327 0.0
C575 C 0.67215 0.44641 0.86767 0.0
C576 C 0.71732 0.43535 0.77242 0.0
C577 C 0.72071 0.43742 0.7253 0.0
C578 C 0.74646 0.43774 0.70064 0.0
C579 C 0.75534 0.45208 0.65676 0.0
C580 C 0.77893 0.45229 0.63177 0.0
C581 C 0.79396 0.43772 0.6498 0.0
H582 H 0.75469 0.41116 0.75203 0.0
C583 C 0.78497 0.42318 0.69371 0.0
C584 C 0.76147 0.42319 0.7189 0.0
H585 H 0.79587 0.41154 0.70849 0.0
H586 H 0.61788 0.41534 0.78246 0.0
H587 H 0.65904 0.4151 0.7401 0.0
H588 H 0.7174 0.4548 0.86074 0.0
H589 H 0.67618 0.45491 0.90349 0.0
H590 H 0.73467 0.43516 0.79426 0.0
H591 H 0.70494 0.44065 0.70389 0.0
H592 H 0.74403 0.46326 0.64174 0.0
H593 H 0.78507 0.46361 0.59798 0.0
C594 C 0.33272 0.78124 0.81059 0.0
C595 C 0.3624 0.7981 0.82793 0.0
C596 C 0.30981 0.75921 0.83851 0.0
C597 C 0.3161 0.75362 0.88447 0.0
C598 C 0.3455 0.77099 0.90224 0.0
C599 C 0.36848 0.79281 0.87421 0.0
C600 C 0.29244 0.7303 0.91507 0.0
C601 C 0.26881 0.70482 0.89802 0.0
C602 C 0.24598 0.68091 0.92891 0.0
C603 C 0.23146 0.65078 0.91349 0.0
C604 C 0.21029 0.62765 0.94212 0.0
C605 C 0.20284 0.63426 0.98657 0.0
H606 H 0.2482 0.71071 0.98536 0.0
C607 C 0.21684 0.66458 0.00142 0.0
C608 C 0.23816 0.68764 0.97295 0.0
H609 H 0.21151 0.67059 0.03524 0.0
H610 H 0.32714 0.78483 0.77525 0.0
H611 H 0.28719 0.74687 0.82416 0.0
H612 H 0.35085 0.76733 0.93771 0.0
H613 H 0.39102 0.80548 0.88886 0.0
H614 H 0.29579 0.73334 0.95292 0.0
H615 H 0.26714 0.7003 0.86039 0.0
H616 H 0.23686 0.64504 0.87948 0.0
H617 H 0.19983 0.6046 0.92938 0.0
C618 C 0.57981 0.3642 0.04094 0.0
C619 C 0.5681 0.3614 0.99519 0.0
C620 C 0.57898 0.3394 0.06321 0.0
C621 C 0.5664 0.31125 0.04015 0.0
C622 C 0.55465 0.30847 0.99462 0.0
C623 C 0.55526 0.33313 0.9725 0.0
C624 C 0.56649 0.28479 0.06146 0.0
C625 C 0.56591 0.28036 0.10826 0.0
C626 C 0.56614 0.25395 0.12948 0.0
C627 C 0.55307 0.24387 0.17397 0.0
C628 C 0.55379 0.21982 0.19592 0.0
C629 C 0.56807 0.20553 0.17414 0.0
H630 H 0.59128 0.24723 0.07362 0.0
C631 C 0.58116 0.2156 0.12947 0.0
C632 C 0.58022 0.23955 0.10736 0.0
H633 H 0.59256 0.20532 0.11183 0.0
H634 H 0.5901 0.38566 0.05931 0.0
H635 H 0.58901 0.34264 0.09785 0.0
H636 H 0.54501 0.28712 0.97596 0.0
H637 H 0.5461 0.33007 0.9372 0.0
H638 H 0.56559 0.26773 0.03757 0.0
H639 H 0.56376 0.29584 0.13207 0.0
H640 H 0.54227 0.25468 0.1919 0.0
H641 H 0.54356 0.21283 0.23039 0.0
loop_
_geom_bond_atom_site_label_1
_geom_bond_atom_site_label_2
_geom_bond_distance
_geom_bond_site_symmetry_2
_ccdc_geom_bond_type
Co0 O2 2.143 . S
Co0 O8 2.074 . S
Co0 O11 2.093 1_554 S
Co0 O24 2.097 . S
Co0 N41 2.151 . S
Co0 N49 2.214 1_554 S
Co1 O2 2.160 . S
Co1 O7 2.058 . S
Co1 O17 2.057 . S
Co1 O32 2.037 . S
Co1 N36 2.145 . S
Co1 N57 2.257 . S
O2 Co0 2.143 . S
O2 Co1 2.160 . S
C3 O4 1.278 1_556 S
C3 O11 1.224 . S
O4 C3 1.278 1_554 S
C5 O6 1.245 . S
C5 O17 1.232 . S
O6 C5 1.245 . S
O7 Co1 2.058 . S
O7 C33 1.269 . S
O8 Co0 2.074 . S
O8 C33 1.257 . S
H9 C34 0.930 . S
H10 C40 0.930 . S
O11 Co0 2.093 1_556 S
O11 C3 1.224 . S
H12 C44 0.929 . S
H13 C46 0.930 . S
H14 C47 0.930 1_554 S
H15 C45 0.929 . S
H16 C48 0.928 . S
O17 Co1 2.057 . S
O17 C5 1.232 . S
H18 C37 0.929 . S
H19 C38 0.929 . S
H20 C50 0.931 . S
H21 C42 0.929 . S
H22 C51 0.930 . S
H23 C43 0.931 . S
O24 Co0 2.097 . S
O24 C52 1.214 . S
H25 C53 0.929 . S
H26 C54 0.929 . S
H27 C55 0.930 . S
H28 C56 0.929 . S
H29 C58 0.930 . S
H30 C35 0.930 . S
H31 C39 0.930 . S
O32 Co1 2.037 . S
O32 C52 1.234 . S
C33 O7 1.269 . S
C33 O8 1.257 . S
C34 H9 0.930 . S
C34 C37 1.388 . S
C34 C39 1.418 . S
C35 H30 0.930 . S
C35 C38 1.404 . S
C35 C39 1.353 . S
N36 Co1 2.145 . S
N36 C37 1.397 . S
N36 C38 1.334 . S
C37 H18 0.929 . S
C37 C34 1.388 . S
C37 N36 1.397 . S
C38 H19 0.929 . S
C38 C35 1.404 . S
C38 N36 1.334 . S
C39 H31 0.930 . S
C39 C34 1.418 . S
C39 C35 1.353 . S
C40 H10 0.930 . S
C40 N41 1.330 . S
C40 C42 1.446 . S
N41 Co0 2.151 . S
N41 C40 1.330 . S
N41 C45 1.418 . S
C42 H21 0.929 . S
C42 C40 1.446 . S
C42 C43 1.332 . S
C43 H23 0.931 . S
C43 C42 1.332 . S
C43 C44 1.267 . S
C44 H12 0.929 . S
C44 C43 1.267 . S
C44 C45 1.251 . S
C45 H15 0.929 . S
C45 N41 1.418 . S
C45 C44 1.251 . S
C46 H13 0.930 . S
C46 C48 1.406 . S
C46 C51 1.261 . S
C47 H14 0.930 1_556 S
C47 N49 1.325 . S
C47 C50 1.357 . S
C48 H16 0.928 . S
C48 C46 1.406 . S
C48 N49 1.261 . S
N49 Co0 2.214 1_556 S
N49 C47 1.325 . S
N49 C48 1.261 . S
C50 H20 0.931 . S
C50 C47 1.357 . S
C50 C51 1.312 . S
C51 H22 0.930 . S
C51 C46 1.261 . S
C51 C50 1.312 . S
C52 O24 1.214 . S
C52 O32 1.234 . S
C53 H25 0.929 . S
C53 C56 1.391 . S
C53 C58 1.391 . S
C54 H26 0.929 . S
C54 C55 1.390 . S
C54 N57 1.391 . S
C55 H27 0.930 . S
C55 C54 1.390 . S
C55 C56 1.392 . S
C56 H28 0.929 . S
C56 C53 1.391 . S
C56 C55 1.392 . S
N57 Co1 2.257 . S
N57 C54 1.391 . S
N57 C58 1.388 . S
C58 H29 0.930 . S
C58 C53 1.391 . S
C58 N57 1.388 . S
Co59 O61 2.143 . S
Co59 O67 2.074 . S
Co59 O70 2.093 . S
Co59 O83 2.097 . S
Co59 N100 2.151 . S
Co59 N108 2.214 . S
Co60 O61 2.160 . S
Co60 O66 2.058 . S
Co60 O76 2.057 . S
Co60 O91 2.037 . S
Co60 N95 2.145 . S
Co60 N116 2.257 . S
O61 Co59 2.143 . S
O61 Co60 2.160 . S
C62 O63 1.278 . S
C62 O70 1.224 . S
O63 C62 1.278 . S
C64 O65 1.245 . S
C64 O76 1.232 . S
O65 C64 1.245 . S
O66 Co60 2.058 . S
O66 C92 1.269 . S
O67 Co59 2.074 . S
O67 C92 1.257 . S
H68 C93 0.930 . S
H69 C99 0.930 . S
O70 Co59 2.093 . S
O70 C62 1.224 . S
H71 C103 0.929 . S
H72 C105 0.930 . S
H73 C106 0.930 . S
H74 C104 0.929 . S
H75 C107 0.928 . S
O76 Co60 2.057 . S
O76 C64 1.232 . S
H77 C96 0.929 . S
H78 C97 0.929 . S
H79 C109 0.931 . S
H80 C101 0.929 . S
H81 C110 0.930 . S
H82 C102 0.931 . S
O83 Co59 2.097 . S
O83 C111 1.214 . S
H84 C112 0.929 . S
H85 C113 0.929 . S
H86 C114 0.930 . S
H87 C115 0.929 . S
H88 C117 0.930 . S
H89 C94 0.930 . S
H90 C98 0.930 . S
O91 Co60 2.037 . S
O91 C111 1.234 . S
C92 O66 1.269 . S
C92 O67 1.257 . S
C93 H68 0.930 . S
C93 C96 1.388 . S
C93 C98 1.418 . S
C94 H89 0.930 . S
C94 C97 1.404 . S
C94 C98 1.353 . S
N95 Co60 2.145 . S
N95 C96 1.397 . S
N95 C97 1.334 . S
C96 H77 0.929 . S
C96 C93 1.388 . S
C96 N95 1.397 . S
C97 H78 0.929 . S
C97 C94 1.404 . S
C97 N95 1.334 . S
C98 H90 0.930 . S
C98 C93 1.418 . S
C98 C94 1.353 . S
C99 H69 0.930 . S
C99 N100 1.330 . S
C99 C101 1.446 . S
N100 Co59 2.151 . S
N100 C99 1.330 . S
N100 C104 1.418 . S
C101 H80 0.929 . S
C101 C99 1.446 . S
C101 C102 1.332 . S
C102 H82 0.931 . S
C102 C101 1.332 . S
C102 C103 1.267 . S
C103 H71 0.929 . S
C103 C102 1.267 . S
C103 C104 1.251 . S
C104 H74 0.929 . S
C104 N100 1.418 . S
C104 C103 1.251 . S
C105 H72 0.930 . S
C105 C107 1.406 . S
C105 C110 1.261 . S
C106 H73 0.930 . S
C106 N108 1.325 . S
C106 C109 1.357 . S
C107 H75 0.928 . S
C107 C105 1.406 . S
C107 N108 1.261 . S
N108 Co59 2.214 . S
N108 C106 1.325 . S
N108 C107 1.261 . S
C109 H79 0.931 . S
C109 C106 1.357 . S
C109 C110 1.312 . S
C110 H81 0.930 . S
C110 C105 1.261 . S
C110 C109 1.312 . S
C111 O83 1.214 . S
C111 O91 1.234 . S
C112 H84 0.929 . S
C112 C115 1.391 . S
C112 C117 1.391 . S
C113 H85 0.929 . S
C113 C114 1.390 . S
C113 N116 1.391 . S
C114 H86 0.930 . S
C114 C113 1.390 . S
C114 C115 1.392 . S
C115 H87 0.929 . S
C115 C112 1.391 . S
C115 C114 1.392 . S
N116 Co60 2.257 . S
N116 C113 1.391 . S
N116 C117 1.388 . S
C117 H88 0.930 . S
C117 C112 1.391 . S
C117 N116 1.388 . S
Co118 O120 2.143 . S
Co118 O126 2.074 . S
Co118 O129 2.093 . S
Co118 O142 2.097 . S
Co118 N159 2.151 . S
Co118 N167 2.214 . S
Co119 O120 2.160 . S
Co119 O125 2.058 . S
Co119 O135 2.057 . S
Co119 O150 2.037 . S
Co119 N154 2.145 . S
Co119 N175 2.257 . S
O120 Co118 2.143 . S
O120 Co119 2.160 . S
C121 O122 1.278 . S
C121 O129 1.224 . S
O122 C121 1.278 . S
C123 O124 1.245 . S
C123 O135 1.232 . S
O124 C123 1.245 . S
O125 Co119 2.058 . S
O125 C151 1.269 . S
O126 Co118 2.074 . S
O126 C151 1.257 . S
H127 C152 0.930 . S
H128 C158 0.930 . S
O129 Co118 2.093 . S
O129 C121 1.224 . S
H130 C162 0.929 . S
H131 C164 0.930 . S
H132 C165 0.930 . S
H133 C163 0.929 . S
H134 C166 0.928 . S
O135 Co119 2.057 . S
O135 C123 1.232 . S
H136 C155 0.929 . S
H137 C156 0.929 . S
H138 C168 0.931 . S
H139 C160 0.929 . S
H140 C169 0.930 . S
H141 C161 0.931 . S
O142 Co118 2.097 . S
O142 C170 1.214 . S
H143 C171 0.929 . S
H144 C172 0.929 . S
H145 C173 0.930 . S
H146 C174 0.929 . S
H147 C176 0.930 . S
H148 C153 0.930 . S
H149 C157 0.930 . S
O150 Co119 2.037 . S
O150 C170 1.234 . S
C151 O125 1.269 . S
C151 O126 1.257 . S
C152 H127 0.930 . S
C152 C155 1.388 . S
C152 C157 1.418 . S
C153 H148 0.930 . S
C153 C156 1.404 . S
C153 C157 1.353 . S
N154 Co119 2.145 . S
N154 C155 1.397 . S
N154 C156 1.334 . S
C155 H136 0.929 . S
C155 C152 1.388 . S
C155 N154 1.397 . S
C156 H137 0.929 . S
C156 C153 1.404 . S
C156 N154 1.334 . S
C157 H149 0.930 . S
C157 C152 1.418 . S
C157 C153 1.353 . S
C158 H128 0.930 . S
C158 N159 1.330 . S
C158 C160 1.446 . S
N159 Co118 2.151 . S
N159 C158 1.330 . S
N159 C163 1.418 . S
C160 H139 0.929 . S
C160 C158 1.446 . S
C160 C161 1.332 . S
C161 H141 0.931 . S
C161 C160 1.332 . S
C161 C162 1.267 . S
C162 H130 0.929 . S
C162 C161 1.267 . S
C162 C163 1.251 . S
C163 H133 0.929 . S
C163 N159 1.418 . S
C163 C162 1.251 . S
C164 H131 0.930 . S
C164 C166 1.406 . S
C164 C169 1.261 . S
C165 H132 0.930 . S
C165 N167 1.325 . S
C165 C168 1.357 . S
C166 H134 0.928 . S
C166 C164 1.406 . S
C166 N167 1.261 . S
N167 Co118 2.214 . S
N167 C165 1.325 . S
N167 C166 1.261 . S
C168 H138 0.931 . S
C168 C165 1.357 . S
C168 C169 1.312 . S
C169 H140 0.930 . S
C169 C164 1.261 . S
C169 C168 1.312 . S
C170 O142 1.214 . S
C170 O150 1.234 . S
C171 H143 0.929 . S
C171 C174 1.391 . S
C171 C176 1.391 . S
C172 H144 0.929 . S
C172 C173 1.390 . S
C172 N175 1.391 . S
C173 H145 0.930 . S
C173 C172 1.390 . S
C173 C174 1.392 . S
C174 H146 0.929 . S
C174 C171 1.391 . S
C174 C173 1.392 . S
N175 Co119 2.257 . S
N175 C172 1.391 . S
N175 C176 1.388 . S
C176 H147 0.930 . S
C176 C171 1.391 . S
C176 N175 1.388 . S
Co177 O179 2.143 . S
Co177 O185 2.074 . S
Co177 O188 2.093 . S
Co177 O201 2.097 . S
Co177 N218 2.151 . S
Co177 N226 2.214 . S
Co178 O179 2.160 . S
Co178 O184 2.058 . S
Co178 O194 2.057 . S
Co178 O209 2.037 . S
Co178 N213 2.145 . S
Co178 N234 2.257 . S
O179 Co177 2.143 . S
O179 Co178 2.160 . S
C180 O181 1.278 . S
C180 O188 1.224 . S
O181 C180 1.278 . S
C182 O183 1.245 . S
C182 O194 1.232 . S
O183 C182 1.245 . S
O184 Co178 2.058 . S
O184 C210 1.269 . S
O185 Co177 2.074 . S
O185 C210 1.257 . S
H186 C211 0.930 . S
H187 C217 0.930 . S
O188 Co177 2.093 . S
O188 C180 1.224 . S
H189 C221 0.929 . S
H190 C223 0.930 . S
H191 C224 0.930 . S
H192 C222 0.929 . S
H193 C225 0.928 . S
O194 Co178 2.057 . S
O194 C182 1.232 . S
H195 C214 0.929 . S
H196 C215 0.929 . S
H197 C227 0.931 . S
H198 C219 0.929 . S
H199 C228 0.930 . S
H200 C220 0.931 . S
O201 Co177 2.097 . S
O201 C229 1.214 . S
H202 C230 0.929 . S
H203 C231 0.929 . S
H204 C232 0.930 . S
H205 C233 0.929 . S
H206 C235 0.930 . S
H207 C212 0.930 . S
H208 C216 0.930 . S
O209 Co178 2.037 . S
O209 C229 1.234 . S
C210 O184 1.269 . S
C210 O185 1.257 . S
C211 H186 0.930 . S
C211 C214 1.388 . S
C211 C216 1.418 . S
C212 H207 0.930 . S
C212 C215 1.404 . S
C212 C216 1.353 . S
N213 Co178 2.145 . S
N213 C214 1.397 . S
N213 C215 1.334 . S
C214 H195 0.929 . S
C214 C211 1.388 . S
C214 N213 1.397 . S
C215 H196 0.929 . S
C215 C212 1.404 . S
C215 N213 1.334 . S
C216 H208 0.930 . S
C216 C211 1.418 . S
C216 C212 1.353 . S
C217 H187 0.930 . S
C217 N218 1.330 . S
C217 C219 1.446 . S
N218 Co177 2.151 . S
N218 C217 1.330 . S
N218 C222 1.418 . S
C219 H198 0.929 . S
C219 C217 1.446 . S
C219 C220 1.332 . S
C220 H200 0.931 . S
C220 C219 1.332 . S
C220 C221 1.267 . S
C221 H189 0.929 . S
C221 C220 1.267 . S
C221 C222 1.251 . S
C222 H192 0.929 . S
C222 N218 1.418 . S
C222 C221 1.251 . S
C223 H190 0.930 . S
C223 C225 1.406 . S
C223 C228 1.261 . S
C224 H191 0.930 . S
C224 N226 1.325 . S
C224 C227 1.357 . S
C225 H193 0.928 . S
C225 C223 1.406 . S
C225 N226 1.261 . S
N226 Co177 2.214 . S
N226 C224 1.325 . S
N226 C225 1.261 . S
C227 H197 0.931 . S
C227 C224 1.357 . S
C227 C228 1.312 . S
C228 H199 0.930 . S
C228 C223 1.261 . S
C228 C227 1.312 . S
C229 O201 1.214 . S
C229 O209 1.234 . S
C230 H202 0.929 . S
C230 C233 1.391 . S
C230 C235 1.391 . S
C231 H203 0.929 . S
C231 C232 1.390 . S
C231 N234 1.391 . S
C232 H204 0.930 . S
C232 C231 1.390 . S
C232 C233 1.392 . S
C233 H205 0.929 . S
C233 C230 1.391 . S
C233 C232 1.392 . S
N234 Co178 2.257 . S
N234 C231 1.391 . S
N234 C235 1.388 . S
C235 H206 0.930 . S
C235 C230 1.391 . S
C235 N234 1.388 . S
Co236 O238 2.143 . S
Co236 O244 2.074 . S
Co236 O247 2.093 . S
Co236 O260 2.097 . S
Co236 N277 2.151 . S
Co236 N285 2.214 . S
Co237 O238 2.160 . S
Co237 O243 2.058 . S
Co237 O253 2.057 . S
Co237 O268 2.037 . S
Co237 N272 2.145 . S
Co237 N293 2.257 . S
O238 Co236 2.143 . S
O238 Co237 2.160 . S
C239 O240 1.278 . S
C239 O247 1.224 . S
O240 C239 1.278 . S
C241 O242 1.245 . S
C241 O253 1.232 . S
O242 C241 1.245 . S
O243 Co237 2.058 . S
O243 C269 1.269 . S
O244 Co236 2.074 . S
O244 C269 1.257 . S
H245 C270 0.930 . S
H246 C276 0.930 . S
O247 Co236 2.093 . S
O247 C239 1.224 . S
H248 C280 0.929 . S
H249 C282 0.930 . S
H250 C283 0.930 . S
H251 C281 0.929 . S
H252 C284 0.928 . S
O253 Co237 2.057 . S
O253 C241 1.232 . S
H254 C273 0.929 . S
H255 C274 0.929 . S
H256 C286 0.931 . S
H257 C278 0.929 . S
H258 C287 0.930 . S
H259 C279 0.931 . S
O260 Co236 2.097 . S
O260 C288 1.214 . S
H261 C289 0.929 . S
H262 C290 0.929 . S
H263 C291 0.930 . S
H264 C292 0.929 . S
H265 C294 0.930 . S
H266 C271 0.930 . S
H267 C275 0.930 . S
O268 Co237 2.037 . S
O268 C288 1.234 . S
C269 O243 1.269 . S
C269 O244 1.257 . S
C270 H245 0.930 . S
C270 C273 1.388 . S
C270 C275 1.418 . S
C271 H266 0.930 . S
C271 C274 1.404 . S
C271 C275 1.353 . S
N272 Co237 2.145 . S
N272 C273 1.397 . S
N272 C274 1.334 . S
C273 H254 0.929 . S
C273 C270 1.388 . S
C273 N272 1.397 . S
C274 H255 0.929 . S
C274 C271 1.404 . S
C274 N272 1.334 . S
C275 H267 0.930 . S
C275 C270 1.418 . S
C275 C271 1.353 . S
C276 H246 0.930 . S
C276 N277 1.330 . S
C276 C278 1.446 . S
N277 Co236 2.151 . S
N277 C276 1.330 . S
N277 C281 1.418 . S
C278 H257 0.929 . S
C278 C276 1.446 . S
C278 C279 1.332 . S
C279 H259 0.931 . S
C279 C278 1.332 . S
C279 C280 1.267 . S
C280 H248 0.929 . S
C280 C279 1.267 . S
C280 C281 1.251 . S
C281 H251 0.929 . S
C281 N277 1.418 . S
C281 C280 1.251 . S
C282 H249 0.930 . S
C282 C284 1.406 . S
C282 C287 1.261 . S
C283 H250 0.930 . S
C283 N285 1.325 . S
C283 C286 1.357 . S
C284 H252 0.928 . S
C284 C282 1.406 . S
C284 N285 1.261 . S
N285 Co236 2.214 . S
N285 C283 1.325 . S
N285 C284 1.261 . S
C286 H256 0.931 . S
C286 C283 1.357 . S
C286 C287 1.312 . S
C287 H258 0.930 . S
C287 C282 1.261 . S
C287 C286 1.312 . S
C288 O260 1.214 . S
C288 O268 1.234 . S
C289 H261 0.929 . S
C289 C292 1.391 . S
C289 C294 1.391 . S
C290 H262 0.929 . S
C290 C291 1.390 . S
C290 N293 1.391 . S
C291 H263 0.930 . S
C291 C290 1.390 . S
C291 C292 1.392 . S
C292 H264 0.929 . S
C292 C289 1.391 . S
C292 C291 1.392 . S
N293 Co237 2.257 . S
N293 C290 1.391 . S
N293 C294 1.388 . S
C294 H265 0.930 . S
C294 C289 1.391 . S
C294 N293 1.388 . S
Co295 O297 2.143 . S
Co295 O303 2.074 . S
Co295 O306 2.093 1_556 S
Co295 O319 2.097 . S
Co295 N336 2.151 . S
Co295 N344 2.214 1_556 S
Co296 O297 2.160 . S
Co296 O302 2.058 . S
Co296 O312 2.057 . S
Co296 O327 2.037 . S
Co296 N331 2.145 . S
Co296 N352 2.257 . S
O297 Co295 2.143 . S
O297 Co296 2.160 . S
C298 O299 1.278 1_554 S
C298 O306 1.224 . S
O299 C298 1.278 1_556 S
C300 O301 1.245 . S
C300 O312 1.232 . S
O301 C300 1.245 . S
O302 Co296 2.058 . S
O302 C328 1.269 . S
O303 Co295 2.074 . S
O303 C328 1.257 . S
H304 C329 0.930 . S
H305 C335 0.930 . S
O306 Co295 2.093 1_554 S
O306 C298 1.224 . S
H307 C339 0.929 . S
H308 C341 0.930 . S
H309 C342 0.930 1_556 S
H310 C340 0.929 . S
H311 C343 0.928 . S
O312 Co296 2.057 . S
O312 C300 1.232 . S
H313 C332 0.929 . S
H314 C333 0.929 . S
H315 C345 0.931 . S
H316 C337 0.929 . S
H317 C346 0.930 . S
H318 C338 0.931 . S
O319 Co295 2.097 . S
O319 C347 1.214 . S
H320 C348 0.929 . S
H321 C349 0.929 . S
H322 C350 0.930 . S
H323 C351 0.929 . S
H324 C353 0.930 . S
H325 C330 0.930 . S
H326 C334 0.930 . S
O327 Co296 2.037 . S
O327 C347 1.234 . S
C328 O302 1.269 . S
C328 O303 1.257 . S
C329 H304 0.930 . S
C329 C332 1.388 . S
C329 C334 1.418 . S
C330 H325 0.930 . S
C330 C333 1.404 . S
C330 C334 1.353 . S
N331 Co296 2.145 . S
N331 C332 1.397 . S
N331 C333 1.334 . S
C332 H313 0.929 . S
C332 C329 1.388 . S
C332 N331 1.397 . S
C333 H314 0.929 . S
C333 C330 1.404 . S
C333 N331 1.334 . S
C334 H326 0.930 . S
C334 C329 1.418 . S
C334 C330 1.353 . S
C335 H305 0.930 . S
C335 N336 1.330 . S
C335 C337 1.446 . S
N336 Co295 2.151 . S
N336 C335 1.330 . S
N336 C340 1.418 . S
C337 H316 0.929 . S
C337 C335 1.446 . S
C337 C338 1.332 . S
C338 H318 0.931 . S
C338 C337 1.332 . S
C338 C339 1.267 . S
C339 H307 0.929 . S
C339 C338 1.267 . S
C339 C340 1.251 . S
C340 H310 0.929 . S
C340 N336 1.418 . S
C340 C339 1.251 . S
C341 H308 0.930 . S
C341 C343 1.406 . S
C341 C346 1.261 . S
C342 H309 0.930 1_554 S
C342 N344 1.325 . S
C342 C345 1.357 . S
C343 H311 0.928 . S
C343 C341 1.406 . S
C343 N344 1.261 . S
N344 Co295 2.214 1_554 S
N344 C342 1.325 . S
N344 C343 1.261 . S
C345 H315 0.931 . S
C345 C342 1.357 . S
C345 C346 1.312 . S
C346 H317 0.930 . S
C346 C341 1.261 . S
C346 C345 1.312 . S
C347 O319 1.214 . S
C347 O327 1.234 . S
C348 H320 0.929 . S
C348 C351 1.391 . S
C348 C353 1.391 . S
C349 H321 0.929 . S
C349 C350 1.390 . S
C349 N352 1.391 . S
C350 H322 0.930 . S
C350 C349 1.390 . S
C350 C351 1.392 . S
C351 H323 0.929 . S
C351 C348 1.391 . S
C351 C350 1.392 . S
N352 Co296 2.257 . S
N352 C349 1.391 . S
N352 C353 1.388 . S
C353 H324 0.930 . S
C353 C348 1.391 . S
C353 N352 1.388 . S
C354 C355 1.386 . S
C354 C356 1.383 . S
C354 H370 0.951 . S
C355 C354 1.386 . S
C355 C359 1.383 . S
C356 C354 1.383 . S
C356 C357 1.402 . S
C356 H371 0.951 . S
C357 C356 1.402 . S
C357 C358 1.375 . S
C357 C360 1.481 . S
C358 C357 1.375 . S
C358 C359 1.367 . S
C358 H372 0.951 . S
C359 C355 1.383 . S
C359 C358 1.367 . S
C359 H373 0.950 . S
C360 C357 1.481 . S
C360 C361 1.297 . S
C360 H374 0.950 . S
C361 C360 1.297 . S
C361 C362 1.479 1_455 S
C361 H375 0.950 . S
C362 C361 1.479 1_655 S
C362 C363 1.375 . S
C362 C368 1.404 . S
C363 C362 1.375 . S
C363 C364 1.369 . S
C363 H376 0.950 . S
C364 C363 1.369 . S
C364 C365 1.392 . S
C364 H377 0.951 . S
C365 C364 1.392 . S
C365 C367 1.384 . S
H366 C368 0.949 . S
C367 C365 1.384 . S
C367 C368 1.385 . S
C367 H369 0.950 . S
C368 C362 1.404 . S
C368 H366 0.949 . S
C368 C367 1.385 . S
H369 C367 0.950 . S
H370 C354 0.951 . S
H371 C356 0.951 . S
H372 C358 0.951 . S
H373 C359 0.950 . S
H374 C360 0.950 . S
H375 C361 0.950 . S
H376 C363 0.950 . S
H377 C364 0.951 . S
C378 C379 1.386 . S
C378 C380 1.383 . S
C378 H394 0.951 . S
C379 C378 1.386 . S
C379 C383 1.383 . S
C380 C378 1.383 . S
C380 C381 1.402 . S
C380 H395 0.951 . S
C381 C380 1.402 . S
C381 C382 1.375 . S
C381 C384 1.481 1_565 S
C382 C381 1.375 . S
C382 C383 1.367 . S
C382 H396 0.951 1_565 S
C383 C379 1.383 . S
C383 C382 1.367 . S
C383 H397 0.950 . S
C384 C381 1.481 1_545 S
C384 C385 1.297 1_556 S
C384 H398 0.950 . S
C385 C384 1.297 1_554 S
C385 C386 1.479 . S
C385 H399 0.950 1_545 S
C386 C385 1.479 . S
C386 C387 1.375 . S
C386 C392 1.404 . S
C387 C386 1.375 . S
C387 C388 1.369 . S
C387 H400 0.950 1_545 S
C388 C387 1.369 . S
C388 C389 1.392 . S
C388 H401 0.951 . S
C389 C388 1.392 . S
C389 C391 1.384 . S
H390 C392 0.949 . S
C391 C389 1.384 . S
C391 C392 1.385 . S
C391 H393 0.950 . S
C392 C386 1.404 . S
C392 H390 0.949 . S
C392 C391 1.385 . S
H393 C391 0.950 . S
H394 C378 0.951 . S
H395 C380 0.951 . S
H396 C382 0.951 1_545 S
H397 C383 0.950 . S
H398 C384 0.950 . S
H399 C385 0.950 1_565 S
H400 C387 0.950 1_565 S
H401 C388 0.951 . S
C402 C403 1.386 . S
C402 C404 1.383 . S
C402 H418 0.951 . S
C403 C402 1.386 . S
C403 C407 1.383 . S
C404 C402 1.383 . S
C404 C405 1.402 . S
C404 H419 0.951 . S
C405 C404 1.402 . S
C405 C406 1.375 . S
C405 C408 1.481 . S
C406 C405 1.375 . S
C406 C407 1.367 . S
C406 H420 0.951 . S
C407 C403 1.383 . S
C407 C406 1.367 . S
C407 H421 0.950 . S
C408 C405 1.481 . S
C408 C409 1.297 . S
C408 H422 0.950 . S
C409 C408 1.297 . S
C409 C410 1.479 . S
C409 H423 0.950 . S
C410 C409 1.479 . S
C410 C411 1.375 . S
C410 C416 1.404 . S
C411 C410 1.375 . S
C411 C412 1.369 . S
C411 H424 0.950 . S
C412 C411 1.369 . S
C412 C413 1.392 . S
C412 H425 0.951 . S
C413 C412 1.392 . S
C413 C415 1.384 . S
H414 C416 0.949 . S
C415 C413 1.384 . S
C415 C416 1.385 . S
C415 H417 0.950 . S
C416 C410 1.404 . S
C416 H414 0.949 . S
C416 C415 1.385 . S
H417 C415 0.950 . S
H418 C402 0.951 . S
H419 C404 0.951 . S
H420 C406 0.951 . S
H421 C407 0.950 . S
H422 C408 0.950 . S
H423 C409 0.950 . S
H424 C411 0.950 . S
H425 C412 0.951 . S
C426 C427 1.386 . S
C426 C428 1.383 . S
C426 H442 0.951 . S
C427 C426 1.386 . S
C427 C431 1.383 . S
C428 C426 1.383 . S
C428 C429 1.402 . S
C428 H443 0.951 . S
C429 C428 1.402 . S
C429 C430 1.375 . S
C429 C432 1.481 . S
C430 C429 1.375 . S
C430 C431 1.367 . S
C430 H444 0.951 . S
C431 C427 1.383 . S
C431 C430 1.367 . S
C431 H445 0.950 . S
C432 C429 1.481 . S
C432 C433 1.297 . S
C432 H446 0.950 1_655 S
C433 C432 1.297 . S
C433 C434 1.479 1_655 S
C433 H447 0.950 . S
C434 C433 1.479 1_455 S
C434 C435 1.375 . S
C434 C440 1.404 . S
C435 C434 1.375 . S
C435 C436 1.369 . S
C435 H448 0.950 . S
C436 C435 1.369 . S
C436 C437 1.392 . S
C436 H449 0.951 . S
C437 C436 1.392 . S
C437 C439 1.384 . S
H438 C440 0.949 . S
C439 C437 1.384 . S
C439 C440 1.385 . S
C439 H441 0.950 . S
C440 C434 1.404 . S
C440 H438 0.949 . S
C440 C439 1.385 . S
H441 C439 0.950 . S
H442 C426 0.951 . S
H443 C428 0.951 . S
H444 C430 0.951 . S
H445 C431 0.950 . S
H446 C432 0.950 1_455 S
H447 C433 0.950 . S
H448 C435 0.950 . S
H449 C436 0.951 . S
C450 C451 1.386 . S
C450 C452 1.383 . S
C450 H466 0.951 . S
C451 C450 1.386 . S
C451 C455 1.383 . S
C452 C450 1.383 . S
C452 C453 1.402 . S
C452 H467 0.951 . S
C453 C452 1.402 . S
C453 C454 1.375 . S
C453 C456 1.481 . S
C454 C453 1.375 . S
C454 C455 1.367 . S
C454 H468 0.951 . S
C455 C451 1.383 . S
C455 C454 1.367 . S
C455 H469 0.950 . S
C456 C453 1.481 . S
C456 C457 1.297 1_545 S
C456 H470 0.950 . S
C457 C456 1.297 1_565 S
C457 C458 1.479 . S
C457 H471 0.950 . S
C458 C457 1.479 . S
C458 C459 1.375 . S
C458 C464 1.404 . S
C459 C458 1.375 . S
C459 C460 1.369 . S
C459 H472 0.950 . S
C460 C459 1.369 . S
C460 C461 1.392 . S
C460 H473 0.951 . S
C461 C460 1.392 . S
C461 C463 1.384 . S
H462 C464 0.949 . S
C463 C461 1.384 . S
C463 C464 1.385 . S
C463 H465 0.950 . S
C464 C458 1.404 . S
C464 H462 0.949 . S
C464 C463 1.385 . S
H465 C463 0.950 . S
H466 C450 0.951 . S
H467 C452 0.951 . S
H468 C454 0.951 . S
H469 C455 0.950 . S
H470 C456 0.950 . S
H471 C457 0.950 . S
H472 C459 0.950 . S
H473 C460 0.951 . S
C474 C475 1.386 . S
C474 C476 1.383 . S
C474 H490 0.951 . S
C475 C474 1.386 . S
C475 C479 1.383 . S
C476 C474 1.383 . S
C476 C477 1.402 . S
C476 H491 0.951 . S
C477 C476 1.402 . S
C477 C478 1.375 . S
C477 C480 1.481 . S
C478 C477 1.375 . S
C478 C479 1.367 . S
C478 H492 0.951 . S
C479 C475 1.383 . S
C479 C478 1.367 . S
C479 H493 0.950 . S
C480 C477 1.481 . S
C480 C481 1.297 . S
C480 H494 0.950 . S
C481 C480 1.297 . S
C481 C482 1.479 . S
C481 H495 0.950 . S
C482 C481 1.479 . S
C482 C483 1.375 . S
C482 C488 1.404 . S
C483 C482 1.375 . S
C483 C484 1.369 . S
C483 H496 0.950 . S
C484 C483 1.369 . S
C484 C485 1.392 . S
C484 H497 0.951 . S
C485 C484 1.392 . S
C485 C487 1.384 . S
H486 C488 0.949 . S
C487 C485 1.384 . S
C487 C488 1.385 . S
C487 H489 0.950 . S
C488 C482 1.404 . S
C488 H486 0.949 . S
C488 C487 1.385 . S
H489 C487 0.950 . S
H490 C474 0.951 . S
H491 C476 0.951 . S
H492 C478 0.951 . S
H493 C479 0.950 . S
H494 C480 0.950 . S
H495 C481 0.950 . S
H496 C483 0.950 . S
H497 C484 0.951 . S
C498 C499 1.386 . S
C498 C500 1.383 . S
C498 H514 0.951 . S
C499 C498 1.386 . S
C499 C503 1.383 . S
C500 C498 1.383 . S
C500 C501 1.402 . S
C500 H515 0.951 . S
C501 C500 1.402 . S
C501 C502 1.375 . S
C501 C504 1.481 . S
C502 C501 1.375 . S
C502 C503 1.367 . S
C502 H516 0.951 . S
C503 C499 1.383 . S
C503 C502 1.367 . S
C503 H517 0.950 . S
C504 C501 1.481 . S
C504 C505 1.297 . S
C504 H518 0.950 . S
C505 C504 1.297 . S
C505 C506 1.479 . S
C505 H519 0.950 . S
C506 C505 1.479 . S
C506 C507 1.375 . S
C506 C512 1.404 . S
C507 C506 1.375 . S
C507 C508 1.369 . S
C507 H520 0.950 . S
C508 C507 1.369 . S
C508 C509 1.392 . S
C508 H521 0.951 . S
C509 C508 1.392 . S
C509 C511 1.384 . S
H510 C512 0.949 . S
C511 C509 1.384 . S
C511 C512 1.385 . S
C511 H513 0.950 . S
C512 C506 1.404 . S
C512 H510 0.949 . S
C512 C511 1.385 . S
H513 C511 0.950 . S
H514 C498 0.951 . S
H515 C500 0.951 . S
H516 C502 0.951 . S
H517 C503 0.950 . S
H518 C504 0.950 . S
H519 C505 0.950 . S
H520 C507 0.950 . S
H521 C508 0.951 . S
C522 C523 1.386 . S
C522 C524 1.383 . S
C522 H538 0.951 . S
C523 C522 1.386 . S
C523 C527 1.383 . S
C524 C522 1.383 . S
C524 C525 1.402 . S
C524 H539 0.951 . S
C525 C524 1.402 . S
C525 C526 1.375 . S
C525 C528 1.481 . S
C526 C525 1.375 . S
C526 C527 1.367 . S
C526 H540 0.951 . S
C527 C523 1.383 . S
C527 C526 1.367 . S
C527 H541 0.950 . S
C528 C525 1.481 . S
C528 C529 1.297 . S
C528 H542 0.950 . S
C529 C528 1.297 . S
C529 C530 1.479 . S
C529 H543 0.950 . S
C530 C529 1.479 . S
C530 C531 1.375 . S
C530 C536 1.404 . S
C531 C530 1.375 . S
C531 C532 1.369 . S
C531 H544 0.950 . S
C532 C531 1.369 . S
C532 C533 1.392 . S
C532 H545 0.951 . S
C533 C532 1.392 . S
C533 C535 1.384 . S
H534 C536 0.949 . S
C535 C533 1.384 . S
C535 C536 1.385 . S
C535 H537 0.950 . S
C536 C530 1.404 . S
C536 H534 0.949 . S
C536 C535 1.385 . S
H537 C535 0.950 . S
H538 C522 0.951 . S
H539 C524 0.951 . S
H540 C526 0.951 . S
H541 C527 0.950 . S
H542 C528 0.950 . S
H543 C529 0.950 . S
H544 C531 0.950 . S
H545 C532 0.951 . S
C546 C547 1.386 . S
C546 C548 1.383 . S
C546 H562 0.951 . S
C547 C546 1.386 . S
C547 C551 1.383 . S
C548 C546 1.383 . S
C548 C549 1.402 . S
C548 H563 0.951 . S
C549 C548 1.402 . S
C549 C550 1.375 . S
C549 C552 1.481 . S
C550 C549 1.375 . S
C550 C551 1.367 . S
C550 H564 0.951 . S
C551 C547 1.383 . S
C551 C550 1.367 . S
C551 H565 0.950 . S
C552 C549 1.481 . S
C552 C553 1.297 . S
C552 H566 0.950 . S
C553 C552 1.297 . S
C553 C554 1.479 . S
C553 H567 0.950 . S
C554 C553 1.479 . S
C554 C555 1.375 . S
C554 C560 1.404 . S
C555 C554 1.375 . S
C555 C556 1.369 . S
C555 H568 0.950 . S
C556 C555 1.369 . S
C556 C557 1.392 . S
C556 H569 0.951 . S
C557 C556 1.392 . S
C557 C559 1.384 . S
H558 C560 0.949 . S
C559 C557 1.384 . S
C559 C560 1.385 . S
C559 H561 0.950 . S
C560 C554 1.404 . S
C560 H558 0.949 . S
C560 C559 1.385 . S
H561 C559 0.950 . S
H562 C546 0.951 . S
H563 C548 0.951 . S
H564 C550 0.951 . S
H565 C551 0.950 . S
H566 C552 0.950 . S
H567 C553 0.950 . S
H568 C555 0.950 . S
H569 C556 0.951 . S
C570 C571 1.386 . S
C570 C572 1.383 . S
C570 H586 0.951 . S
C571 C570 1.386 . S
C571 C575 1.383 . S
C572 C570 1.383 . S
C572 C573 1.402 . S
C572 H587 0.951 . S
C573 C572 1.402 . S
C573 C574 1.375 . S
C573 C576 1.481 . S
C574 C573 1.375 . S
C574 C575 1.367 . S
C574 H588 0.951 . S
C575 C571 1.383 . S
C575 C574 1.367 . S
C575 H589 0.950 . S
C576 C573 1.481 . S
C576 C577 1.297 . S
C576 H590 0.950 . S
C577 C576 1.297 . S
C577 C578 1.479 . S
C577 H591 0.950 . S
C578 C577 1.479 . S
C578 C579 1.375 . S
C578 C584 1.404 . S
C579 C578 1.375 . S
C579 C580 1.369 . S
C579 H592 0.950 . S
C580 C579 1.369 . S
C580 C581 1.392 . S
C580 H593 0.951 . S
C581 C580 1.392 . S
C581 C583 1.384 . S
H582 C584 0.949 . S
C583 C581 1.384 . S
C583 C584 1.385 . S
C583 H585 0.950 . S
C584 C578 1.404 . S
C584 H582 0.949 . S
C584 C583 1.385 . S
H585 C583 0.950 . S
H586 C570 0.951 . S
H587 C572 0.951 . S
H588 C574 0.951 . S
H589 C575 0.950 . S
H590 C576 0.950 . S
H591 C577 0.950 . S
H592 C579 0.950 . S
H593 C580 0.951 . S
C594 C595 1.386 . S
C594 C596 1.383 . S
C594 H610 0.951 . S
C595 C594 1.386 . S
C595 C599 1.383 . S
C596 C594 1.383 . S
C596 C597 1.402 . S
C596 H611 0.951 . S
C597 C596 1.402 . S
C597 C598 1.375 . S
C597 C600 1.481 . S
C598 C597 1.375 . S
C598 C599 1.367 . S
C598 H612 0.951 . S
C599 C595 1.383 . S
C599 C598 1.367 . S
C599 H613 0.950 . S
C600 C597 1.481 . S
C600 C601 1.297 . S
C600 H614 0.950 . S
C601 C600 1.297 . S
C601 C602 1.479 . S
C601 H615 0.950 . S
C602 C601 1.479 . S
C602 C603 1.375 . S
C602 C608 1.404 1_556 S
C603 C602 1.375 . S
C603 C604 1.369 . S
C603 H616 0.950 . S
C604 C603 1.369 . S
C604 C605 1.392 1_556 S
C604 H617 0.951 . S
C605 C604 1.392 1_554 S
C605 C607 1.384 . S
H606 C608 0.949 . S
C607 C605 1.384 . S
C607 C608 1.385 . S
C607 H609 0.950 . S
C608 C602 1.404 1_554 S
C608 H606 0.949 . S
C608 C607 1.385 . S
H609 C607 0.950 . S
H610 C594 0.951 . S
H611 C596 0.951 . S
H612 C598 0.951 . S
H613 C599 0.950 . S
H614 C600 0.950 . S
H615 C601 0.950 . S
H616 C603 0.950 . S
H617 C604 0.951 . S
C618 C619 1.386 1_554 S
C618 C620 1.383 . S
C618 H634 0.951 . S
C619 C618 1.386 1_556 S
C619 C623 1.383 . S
C620 C618 1.383 . S
C620 C621 1.402 . S
C620 H635 0.951 . S
C621 C620 1.402 . S
C621 C622 1.375 . S
C621 C624 1.481 . S
C622 C621 1.375 . S
C622 C623 1.367 1_554 S
C622 H636 0.951 . S
C623 C619 1.383 . S
C623 C622 1.367 1_556 S
C623 H637 0.950 . S
C624 C621 1.481 . S
C624 C625 1.297 . S
C624 H638 0.950 . S
C625 C624 1.297 . S
C625 C626 1.479 . S
C625 H639 0.950 . S
C626 C625 1.479 . S
C626 C627 1.375 . S
C626 C632 1.404 . S
C627 C626 1.375 . S
C627 C628 1.369 . S
C627 H640 0.950 . S
C628 C627 1.369 . S
C628 C629 1.392 . S
C628 H641 0.951 . S
C629 C628 1.392 . S
C629 C631 1.384 . S
H630 C632 0.949 . S
C631 C629 1.384 . S
C631 C632 1.385 . S
C631 H633 0.950 . S
C632 C626 1.404 . S
C632 H630 0.949 . S
C632 C631 1.385 . S
H633 C631 0.950 . S
H634 C618 0.951 . S
H635 C620 0.951 . S
H636 C622 0.951 . S
H637 C623 0.950 . S
H638 C624 0.950 . S
H639 C625 0.950 . S
H640 C627 0.950 . S
H641 C628 0.951 . S
C355 C3 1.259 . S
C365 C182 1.254 . S
C379 C241 1.266 . S
C389 C62 1.270 . S
C403 C123 1.259 . S
C413 C298 1.255 . S
C427 C180 1.264 . S
C437 C5 1.261 . S
C451 C64 1.250 . S
C461 C239 1.227 . S
C475 C300 1.259 . S
C485 C121 1.255 . S
C499 C33 1.492 . S
C509 C151 1.473 . S
C523 C92 1.499 . S
C533 C229 1.507 . S
C547 C288 1.492 . S
C557 C170 1.498 . S
C571 C328 1.503 . S
C581 C210 1.506 . S
C595 C269 1.492 . S
C605 C52 1.498 . S
C619 C347 1.509 . S
C629 C111 1.481 . S
