# Generated by pormake.
# Topology bsn, (6)-cn, num edge types: 1
# Building blocks:
#     Node 0, Type 0, BuildingBlock: MIFKUJ_clean_sbu_0, # of connection points: 6
#     Node 1, Type 0, BuildingBlock: MIFKUJ_clean_sbu_0, # of connection points: 6
#     Node 2, Type 0, BuildingBlock: MIFKUJ_clean_sbu_0, # of connection points: 6
#     Node 3, Type 0, BuildingBlock: MIFKUJ_clean_sbu_0, # of connection points: 6
#     Edge 4, Type (0, 0), BuildingBlock: UVAHIK_clean_linker_0, # of connection points: 2
#     Edge 5, Type (0, 0), BuildingBlock: UVAHIK_clean_linker_0, # of connection points: 2
#     Edge 6, Type (0, 0), BuildingBlock: UVAHIK_clean_linker_0, # of connection points: 2
#     Edge 7, Type (0, 0), BuildingBlock: UVAHIK_clean_linker_0, # of connection points: 2
#     Edge 8, Type (0, 0), BuildingBlock: UVAHIK_clean_linker_0, # of connection points: 2
#     Edge 9, Type (0, 0), BuildingBlock: UVAHIK_clean_linker_0, # of connection points: 2
#     Edge 10, Type (0, 0), BuildingBlock: UVAHIK_clean_linker_0, # of connection points: 2
#     Edge 11, Type (0, 0), BuildingBlock: UVAHIK_clean_linker_0, # of connection points: 2
#     Edge 12, Type (0, 0), BuildingBlock: UVAHIK_clean_linker_0, # of connection points: 2
#     Edge 13, Type (0, 0), BuildingBlock: UVAHIK_clean_linker_0, # of connection points: 2
#     Edge 14, Type (0, 0), BuildingBlock: UVAHIK_clean_linker_0, # of connection points: 2
#     Edge 15, Type (0, 0), BuildingBlock: UVAHIK_clean_linker_0, # of connection points: 2
# Relax obj value: 0.300
# Max RMSD: 0.241
# Mean RMSD: 0.239
data_MOF--net-bsn--node1-MIFKUJ_clean_sbu_0--edge1-UVAHIK_clean_linker_0
_symmetry_space_group_name_H-M    P1
_symmetry_Int_Tables_number       1
_symmetry_cell_setting            triclinic
loop_
_symmetry_equiv_pos_as_xyz
'x, y, z'
_cell_length_a     44.07771
_cell_length_b     44.422042
_cell_length_c     17.493866
_cell_angle_alpha  94.225119
_cell_angle_beta   94.946025
_cell_angle_gamma 90.395737
loop_
_atom_site_label
_atom_site_type_symbol
_atom_site_fract_x
_atom_site_fract_y
_atom_site_fract_z
_atom_type_partial_charge
Zn0 Zn 0.05224 0.28353 0.33213 0.0
Zn1 Zn 0.98951 0.21257 0.37998 0.0
C2 C 0.1157 0.26786 0.34433 0.0
O3 O 0.10964 0.26274 0.41444 0.0
C4 C 0.92686 0.20335 0.36914 0.0
O5 O 0.93681 0.17795 0.33757 0.0
O6 O 0.03829 0.32561 0.31239 0.0
O7 O 0.02237 0.25059 0.29006 0.0
O8 O 0.98927 0.21391 0.26344 0.0
C9 C 0.0515 0.34415 0.27377 0.0
O10 O 0.07429 0.33491 0.23476 0.0
O11 O 0.0944 0.27637 0.29741 0.0
C12 C 0.98995 0.1613 0.47443 0.0
O13 O 0.97261 0.17878 0.51556 0.0
O14 O 1.00009 0.17102 0.41471 0.0
O15 O 0.01932 0.24535 0.42592 0.0
O16 O 0.05206 0.28277 0.44787 0.0
O17 O 0.94626 0.22299 0.39938 0.0
C18 C 1.00435 0.23565 0.24104 0.0
C19 C 0.03383 0.26434 0.47327 0.0
Zn20 Zn 0.04804 0.71841 0.58694 0.0
Zn21 Zn 0.97958 0.78616 0.63148 0.0
C22 C 0.04045 0.65362 0.56534 0.0
O23 O 0.02799 0.6581 0.63064 0.0
C24 C 0.9857 0.84562 0.58695 0.0
O25 O 0.96964 0.83226 0.52717 0.0
O26 O 0.08994 0.73807 0.60341 0.0
O27 O 0.01488 0.74078 0.5241 0.0
O28 O 0.97726 0.77366 0.51797 0.0
C29 C 0.11089 0.73204 0.55924 0.0
O30 O 0.10434 0.71511 0.49505 0.0
O31 O 0.05117 0.67614 0.53512 0.0
C32 C 0.92164 0.80255 0.6875 0.0
O33 O 0.93388 0.82969 0.69028 0.0
O34 O 0.9374 0.7799 0.66727 0.0
O35 O 0.01039 0.75663 0.6669 0.0
O36 O 0.03359 0.71544 0.69265 0.0
O37 O 0.99338 0.8305 0.64454 0.0
C38 C 0.99434 0.7546 0.48494 0.0
C39 C 0.0143 0.73521 0.71044 0.0
Zn40 Zn 0.54123 0.78421 0.82781 0.0
Zn41 Zn 0.48657 0.70878 0.85852 0.0
C42 C 0.60558 0.78745 0.83626 0.0
O43 O 0.60009 0.79857 0.90529 0.0
C44 C 0.4283 0.71895 0.78234 0.0
O45 O 0.4413 0.70269 0.72883 0.0
O46 O 0.52683 0.82713 0.82606 0.0
O47 O 0.51102 0.75275 0.79081 0.0
O48 O 0.50308 0.70592 0.75339 0.0
C49 C 0.53753 0.84643 0.78496 0.0
O50 O 0.55694 0.83774 0.73511 0.0
O51 O 0.5832 0.77932 0.78815 0.0
C52 C 0.48323 0.6614 0.96342 0.0
O53 O 0.48235 0.68427 0.01518 0.0
O54 O 0.48431 0.66647 0.89307 0.0
O55 O 0.51599 0.7339 0.93951 0.0
O56 O 0.54592 0.7748 0.93691 0.0
O57 O 0.44339 0.72537 0.84702 0.0
C58 C 0.51422 0.73121 0.74105 0.0
C59 C 0.53508 0.75372 0.97256 0.0
Zn60 Zn 0.55677 0.22265 0.07426 0.0
Zn61 Zn 0.48555 0.28831 0.1235 0.0
C62 C 0.55212 0.15798 0.06453 0.0
O63 O 0.55921 0.16275 0.13892 0.0
C64 C 0.47755 0.3476 0.10559 0.0
O65 O 0.45686 0.33261 0.05883 0.0
O66 O 0.60114 0.23382 0.07478 0.0
O67 O 0.52572 0.25178 0.03486 0.0
O68 O 0.48821 0.28165 0.0085 0.0
C69 C 0.61412 0.25377 0.1227 0.0
O70 O 0.59741 0.27098 0.16625 0.0
O71 O 0.54984 0.1804 0.02335 0.0
C72 C 0.43056 0.28872 0.20449 0.0
O73 O 0.44782 0.30352 0.25999 0.0
O74 O 0.44186 0.28007 0.1423 0.0
O75 O 0.5127 0.25647 0.17221 0.0
O76 O 0.5474 0.22139 0.18402 0.0
O77 O 0.49528 0.3328 0.14999 0.0
C78 C 0.50768 0.26308 -0.0152 0.0
C79 C 0.52644 0.2371 0.21224 0.0
C80 C 0.02646 0.38706 0.34322 0.0
C81 C 0.04519 0.37682 0.28581 0.0
C82 C 0.02457 0.41779 0.36484 0.0
C83 C 0.03724 0.4948 0.31198 0.0
H84 H 0.05498 0.51205 0.53194 0.0
C85 C 0.05367 0.61702 0.45651 0.0
C86 C 0.04141 0.62268 0.52772 0.0
C87 C 0.05423 0.58754 0.42195 0.0
C88 C 0.04956 0.50772 0.47053 0.0
H89 H 0.07476 0.39111 0.20199 0.0
H90 H 0.07095 0.44515 0.23927 0.0
H91 H 0.05345 0.46005 0.47775 0.0
H92 H 0.01981 0.60184 0.61783 0.0
H93 H 0.02029 0.55102 0.55751 0.0
H94 H 0.03271 0.5426 0.30511 0.0
C95 C 0.05807 0.42916 0.26789 0.0
C96 C 0.04877 0.47788 0.43951 0.0
C97 C 0.06028 0.39824 0.24674 0.0
C98 C 0.02959 0.59834 0.56321 0.0
C99 C 0.03006 0.56906 0.52875 0.0
C100 C 0.03768 0.52481 0.34325 0.0
C101 C 0.04104 0.43908 0.32899 0.0
C102 C 0.04231 0.47106 0.36013 0.0
C103 C 0.04257 0.56317 0.45798 0.0
C104 C 0.04352 0.53159 0.42313 0.0
H105 H 0.01436 0.37127 0.37431 0.0
H106 H 0.01092 0.4249 0.41138 0.0
H107 H 0.03222 0.4901 0.25053 0.0
H108 H 0.0629 0.6353 0.42758 0.0
H109 H 0.06424 0.58381 0.3677 0.0
C110 C 0.66114 0.78629 0.87549 0.0
C111 C 0.63744 0.78487 0.81629 0.0
C112 C 0.69146 0.7858 0.85862 0.0
C113 C 0.74295 0.76908 0.70427 0.0
H114 H 0.79708 0.82319 0.83754 0.0
C115 C 0.87461 0.77049 0.6932 0.0
C116 C 0.88921 0.79895 0.70216 0.0
C117 C 0.84361 0.76771 0.70417 0.0
C118 C 0.78231 0.80813 0.79926 0.0
H119 H 0.62691 0.78088 0.6926 0.0
H120 H 0.68027 0.78087 0.66277 0.0
H121 H 0.74363 0.82045 0.85928 0.0
H122 H 0.88254 0.84678 0.72927 0.0
H123 H 0.82884 0.84198 0.74765 0.0
H124 H 0.78186 0.75753 0.64291 0.0
C125 C 0.67529 0.78191 0.72243 0.0
C126 C 0.75163 0.80623 0.8124 0.0
C127 C 0.64474 0.78205 0.73944 0.0
C128 C 0.87215 0.82447 0.7224 0.0
C129 C 0.84129 0.8217 0.73326 0.0
C130 C 0.77379 0.77108 0.69088 0.0
C131 C 0.69901 0.78434 0.78202 0.0
C132 C 0.73154 0.78654 0.76557 0.0
C133 C 0.8266 0.79331 0.72455 0.0
C134 C 0.79384 0.79065 0.73833 0.0
H135 H 0.6563 0.78795 0.93531 0.0
H136 H 0.70904 0.78681 0.906 0.0
H137 H 0.72817 0.75358 0.6673 0.0
H138 H 0.88707 0.75038 0.67737 0.0
H139 H 0.83308 0.74546 0.69773 0.0
C140 C 0.49529 0.39958 0.16108 0.0
C141 C 0.48051 0.38061 0.10123 0.0
C142 C 0.49619 0.43099 0.15559 0.0
C143 C 0.45646 0.49029 0.04624 0.0
H144 H 0.52824 0.53961 0.11156 0.0
C145 C 0.47613 0.60582 0.93199 0.0
C146 C 0.48347 0.63005 -0.01319 0.0
C147 C 0.47606 0.57622 0.95387 0.0
C148 C 0.50797 0.52607 0.09378 0.0
H149 H 0.45656 0.37947 -0.01271 0.0
H150 H 0.45898 0.43327 0.97678 0.0
H151 H 0.5279 0.48596 0.13639 0.0
H152 H 0.49726 0.6422 0.10727 0.0
H153 H 0.49766 0.59012 0.14514 0.0
H154 H 0.43703 0.52996 0.00091 0.0
C155 C 0.46881 0.42446 0.02934 0.0
C156 C 0.50771 0.49543 0.10822 0.0
C157 C 0.46761 0.39344 0.0352 0.0
C158 C 0.49127 0.624 0.06383 0.0
C159 C 0.49171 0.59425 0.08548 0.0
C160 C 0.45692 0.52063 0.03094 0.0
C161 C 0.48253 0.44379 0.08988 0.0
C162 C 0.48215 0.47701 0.08293 0.0
C163 C 0.48379 0.57015 0.03076 0.0
C164 C 0.48284 0.53868 0.05321 0.0
H165 H 0.50548 0.39027 0.2126 0.0
H166 H 0.50695 0.44524 0.2033 0.0
H167 H 0.43602 0.47708 0.02804 0.0
H168 H 0.47007 0.60973 0.87224 0.0
H169 H 0.4701 0.55798 0.91046 0.0
C170 C 0.87336 0.18809 0.3246 0.0
C171 C 0.89411 0.21051 0.35764 0.0
C172 C 0.84339 0.19538 0.30187 0.0
C173 C 0.78303 0.25067 0.32357 0.0
H174 H 0.75566 0.21993 0.1156 0.0
C175 C 0.66303 0.27714 0.18487 0.0
C176 C 0.6476 0.25336 0.13983 0.0
C177 C 0.69405 0.27488 0.20868 0.0
C178 C 0.76268 0.22843 0.17409 0.0
H179 H 0.89917 0.2579 0.39692 0.0
H180 H 0.84637 0.2706 0.35746 0.0
H181 H 0.80695 0.20943 0.16847 0.0
H182 H 0.65271 0.20869 0.08375 0.0
H183 H 0.70604 0.20428 0.12712 0.0
H184 H 0.7384 0.26876 0.33039 0.0
C185 C 0.85354 0.24741 0.34904 0.0
C186 C 0.79217 0.22247 0.20426 0.0
C187 C 0.88371 0.24012 0.37163 0.0
C188 C 0.66397 0.22763 0.11756 0.0
C189 C 0.69473 0.22515 0.14235 0.0
C190 C 0.75327 0.25631 0.29373 0.0
C191 C 0.83339 0.22523 0.31186 0.0
C192 C 0.80251 0.23314 0.27961 0.0
C193 C 0.71018 0.2486 0.18893 0.0
C194 C 0.74255 0.24487 0.21889 0.0
H195 H 0.88051 0.165 0.31377 0.0
H196 H 0.82814 0.17773 0.27482 0.0
H197 H 0.79045 0.25914 0.38188 0.0
H198 H 0.65104 0.29729 0.20278 0.0
H199 H 0.70526 0.29364 0.24323 0.0
C200 C 0.3874 0.28371 0.28674 0.0
C201 C 0.39805 0.28299 0.21325 0.0
C202 C 0.35655 0.27877 0.29495 0.0
C203 C 0.28109 0.28667 0.19885 0.0
H204 H 0.25593 0.2308 0.34214 0.0
C205 C 0.15409 0.26876 0.24622 0.0
C206 C 0.14734 0.26563 0.32235 0.0
C207 C 0.18427 0.26791 0.227 0.0
C208 C 0.26253 0.24677 0.30252 0.0
H209 H 0.38482 0.27663 0.09074 0.0
H210 H 0.33067 0.26871 0.10529 0.0
H211 H 0.30964 0.23546 0.32098 0.0
H212 H 0.16698 0.25901 0.43781 0.0
H213 H 0.2193 0.2585 0.40515 0.0
H214 H 0.23433 0.29908 0.18268 0.0
C215 C 0.3463 0.27282 0.15633 0.0
C216 C 0.29329 0.24928 0.29021 0.0
C217 C 0.37726 0.27722 0.14812 0.0
C218 C 0.17133 0.26131 0.37851 0.0
C219 C 0.20143 0.26079 0.35955 0.0
C220 C 0.25033 0.28452 0.21201 0.0
C221 C 0.3357 0.27353 0.22983 0.0
C222 C 0.30289 0.26949 0.23896 0.0
C223 C 0.20837 0.26418 0.28363 0.0
C224 C 0.24069 0.26482 0.26486 0.0
H225 H 0.40292 0.28798 0.33794 0.0
H226 H 0.34887 0.27964 0.35225 0.0
H227 H 0.28798 0.30259 0.15939 0.0
H228 H 0.13608 0.272 0.20151 0.0
H229 H 0.18867 0.27016 0.16773 0.0
C230 C 0.37832 0.73784 0.82635 0.0
C231 C 0.39631 0.72844 0.76665 0.0
C232 C 0.34743 0.7444 0.81001 0.0
C233 C 0.29062 0.7615 0.64926 0.0
H234 H 0.23214 0.72585 0.7704 0.0
C235 C 0.16596 0.7358 0.53473 0.0
C236 C 0.14306 0.73998 0.58546 0.0
C237 C 0.19666 0.73993 0.56139 0.0
C238 C 0.24815 0.73641 0.73672 0.0
H239 H 0.39626 0.71962 0.64298 0.0
H240 H 0.34291 0.73092 0.61482 0.0
H241 H 0.28646 0.72342 0.81037 0.0
H242 H 0.13448 0.75263 0.7038 0.0
H243 H 0.18809 0.7597 0.75025 0.0
H244 H 0.25239 0.77363 0.57429 0.0
C245 C 0.35244 0.73343 0.67415 0.0
C246 C 0.27931 0.73505 0.75972 0.0
C247 C 0.38306 0.72667 0.69044 0.0
C248 C 0.15153 0.7493 0.66306 0.0
C249 C 0.18226 0.75313 0.68988 0.0
C250 C 0.25953 0.76277 0.62618 0.0
C251 C 0.3341 0.74205 0.73364 0.0
C252 C 0.30095 0.74696 0.71524 0.0
C253 C 0.2052 0.74808 0.63956 0.0
C254 C 0.23796 0.74967 0.66868 0.0
H255 H 0.38787 0.73936 0.88568 0.0
H256 H 0.33395 0.75117 0.85713 0.0
H257 H 0.30665 0.77144 0.6145 0.0
H258 H 0.16025 0.72862 0.47467 0.0
H259 H 0.21376 0.73558 0.52121 0.0
C260 C 0.54172 0.90055 0.75438 0.0
C261 C 0.53221 0.87897 0.80253 0.0
C262 C 0.54041 0.93141 0.77662 0.0
C263 C 0.54722 0.98117 0.94985 0.0
H264 H 0.51284 0.04348 0.82594 0.0
C265 C 0.54227 0.10333 0.07711 0.0
C266 C 0.54712 0.12679 0.02989 0.0
C267 C 0.53844 0.07362 0.04578 0.0
C268 C 0.52295 0.02643 0.86088 0.0
H269 H 0.51262 0.87291 0.91016 0.0
H270 H 0.51092 0.92663 0.94928 0.0
H271 H 0.50917 0.99056 0.77548 0.0
H272 H 0.55137 0.13765 0.91246 0.0
H273 H 0.54586 0.0855 0.8578 0.0
H274 H 0.56216 0.0165 0.03398 0.0
C275 C 0.5193 0.91964 0.89437 0.0
C276 C 0.52066 0.99616 0.83205 0.0
C277 C 0.52015 0.8889 0.8717 0.0
C278 C 0.54764 0.11999 0.95029 0.0
C279 C 0.54428 0.0901 0.91895 0.0
C280 C 0.54997 0.01133 0.9781 0.0
C281 C 0.53001 0.94113 0.84787 0.0
C282 C 0.53248 0.97328 0.87676 0.0
C283 C 0.53991 0.06647 0.96649 0.0
C284 C 0.53756 0.0344 0.93452 0.0
H285 H 0.55102 0.8936 0.70062 0.0
H286 H 0.54885 0.94759 0.73989 0.0
H287 H 0.55706 0.96397 -0.01517 0.0
H288 H 0.54132 0.10788 0.13855 0.0
H289 H 0.53426 0.05627 0.08407 0.0
C290 C 0.99838 0.88914 0.51444 0.0
C291 C 0.99373 0.87785 0.58534 0.0
C292 C 1.00208 0.92001 0.50848 0.0
C293 C 0.01474 0.99458 0.61972 0.0
H294 H 0.97527 0.0229 0.43194 0.0
C295 C 0.98889 0.12051 0.5661 0.0
C296 C 0.99551 0.12983 0.49413 0.0
C297 C 0.99192 0.09024 0.58246 0.0
C298 C 0.98666 0.01532 0.48433 0.0
H299 H 0.99035 0.88978 0.70649 0.0
H300 H 0.99572 0.94433 0.69588 0.0
H301 H 0.97406 0.96949 0.45201 0.0
H302 H 0.01138 0.11487 0.38384 0.0
H303 H 0.01614 0.06201 0.41198 0.0
H304 H 0.0262 0.04114 0.65257 0.0
C305 C 0.99718 0.92918 0.64498 0.0
C306 C 0.98613 0.98462 0.49586 0.0
C307 C 0.99406 0.89798 0.6512 0.0
C308 C 0.00606 0.10843 0.43975 0.0
C309 C 0.00867 0.07816 0.45572 0.0
C310 C 0.01488 0.02553 0.60852 0.0
C311 C 1.00043 0.9406 0.57295 0.0
C312 C 1.00053 0.97369 0.56313 0.0
C313 C 1.0012 0.06868 0.52675 0.0
C314 C 1.00114 0.0361 0.54022 0.0
H315 H 0.99864 0.87406 0.46292 0.0
H316 H 1.00563 0.92773 0.45261 0.0
H317 H 0.02618 0.98703 0.67202 0.0
H318 H 0.98088 0.1365 0.60939 0.0
H319 H 0.98588 0.08351 0.63752 0.0
C320 C 1.00397 0.27578 0.15014 0.0
C321 C 0.99846 0.24554 0.16322 0.0
C322 C 0.99869 0.28569 0.07676 0.0
C323 C 0.96642 0.26322 0.87764 0.0
H324 H 0.03916 0.30351 0.82389 0.0
C325 C 0.01269 0.244 0.58574 0.0
C326 C 0.02607 0.26804 0.55296 0.0
C327 C 1.00258 0.24809 0.65882 0.0
C328 C 0.0183 0.293 0.83797 0.0
H329 H 0.98158 0.20216 0.11152 0.0
H330 H 0.97385 0.21901 -0.01845 0.0
H331 H 0.03177 0.29871 0.95792 0.0
H332 H 0.03958 0.31529 0.56988 0.0
H333 H 0.02214 0.32245 0.69876 0.0
H334 H 0.95405 0.256 0.75662 0.0
C335 C 0.9815 0.23532 0.02845 0.0
C336 C 0.01401 0.29026 0.9149 0.0
C337 C 0.98634 0.22553 0.10241 0.0
C338 C 0.02961 0.29628 0.59455 0.0
C339 C 0.01941 0.30045 0.66773 0.0
C340 C 0.97076 0.26594 0.80046 0.0
C341 C 0.9883 0.26535 0.01478 0.0
C342 C 0.98874 0.27415 0.93527 0.0
C343 C 0.00573 0.27639 0.70031 0.0
C344 C 0.99745 0.27963 0.78017 0.0
H345 H 0.01239 0.29184 0.19665 0.0
H346 H 1.00359 0.30907 0.06811 0.0
H347 H 0.94643 0.25127 0.89203 0.0
H348 H 0.0103 0.22201 0.55494 0.0
H349 H 0.99297 0.22891 0.68356 0.0
C350 C 0.99265 0.70154 0.79938 0.0
C351 C 0.99513 0.73057 0.77345 0.0
C352 C 0.98056 0.69752 0.86883 0.0
C353 C 0.94466 0.73422 0.03409 0.0
H354 H 0.01283 0.70002 0.15206 0.0
C355 C 0.97337 0.76724 0.35471 0.0
C356 C 0.98821 0.7467 0.4019 0.0
C357 C 0.96699 0.75975 0.27616 0.0
C358 C 0.99309 0.70888 0.12043 0.0
H359 H 0.98372 0.77761 0.79453 0.0
H360 H 0.96297 0.77069 0.91757 0.0
H361 H 0.0105 0.69576 0.01322 0.0
H362 H 0.00708 0.70184 0.40504 0.0
H363 H 0.99513 0.68828 0.26816 0.0
H364 H 0.92756 0.74785 0.14197 0.0
C365 C 0.97024 0.75104 0.88383 0.0
C366 C 0.99179 0.70646 0.04049 0.0
C367 C 0.98227 0.75506 0.81378 0.0
C368 C 0.99604 0.71827 0.36959 0.0
C369 C 0.98914 0.71054 0.29119 0.0
C370 C 0.9457 0.73624 0.11444 0.0
C371 C 0.97096 0.72249 0.91384 0.0
C372 C 0.96815 0.71998 -0.00335 0.0
C373 C 0.97487 0.73134 0.24328 0.0
C374 C 0.97058 0.72461 0.15857 0.0
H375 H 1.00173 0.68211 0.76833 0.0
H376 H 0.98084 0.67522 0.89014 0.0
H377 H 0.92609 0.7446 0.00138 0.0
H378 H 0.96718 0.78937 0.37824 0.0
H379 H 0.95667 0.77663 0.24101 0.0
C380 C 0.54445 0.72514 0.09018 0.0
C381 C 0.54553 0.75234 0.05444 0.0
C382 C 0.55342 0.72443 0.16853 0.0
C383 C 0.5522 0.77363 0.33999 0.0
H384 H 0.59341 0.7087 0.44136 0.0
C385 C 0.5391 0.76397 0.65481 0.0
C386 C 0.53189 0.73492 0.67459 0.0
C387 C 0.55281 0.76803 0.58755 0.0
C388 C 0.58186 0.727 0.41389 0.0
H389 H 0.55882 0.7997 0.07109 0.0
H390 H 0.57416 0.79847 0.20794 0.0
H391 H 0.59503 0.71156 0.30246 0.0
H392 H 0.5338 0.68715 0.64006 0.0
H393 H 0.55542 0.69421 0.51918 0.0
H394 H 0.53686 0.78797 0.44824 0.0
C395 C 0.56617 0.77778 0.17553 0.0
C396 C 0.58291 0.72866 0.33463 0.0
C397 C 0.55729 0.77846 0.09736 0.0
C398 C 0.53926 0.70985 0.62645 0.0
C399 C 0.55207 0.71392 0.55758 0.0
C400 C 0.55077 0.77176 0.4185 0.0
C401 C 0.56361 0.75095 0.21219 0.0
C402 C 0.56736 0.75156 0.29689 0.0
C403 C 0.55805 0.74317 0.53613 0.0
C404 C 0.56481 0.74794 0.45619 0.0
H405 H 0.53659 0.70447 0.05779 0.0
H406 H 0.55109 0.70347 0.1956 0.0
H407 H 0.53963 0.79128 0.31217 0.0
H408 H 0.53298 0.78373 0.68962 0.0
H409 H 0.55773 0.79085 0.57389 0.0
C410 C 0.49789 0.24932 0.32741 0.0
C411 C 0.51532 0.22909 0.28486 0.0
C412 C 0.48852 0.24177 0.39777 0.0
C413 C 0.51934 0.20198 0.5547 0.0
H414 H 0.44561 0.22693 0.64585 0.0
C415 C 0.51982 0.22485 0.88038 0.0
C416 C 0.50507 0.25138 0.90372 0.0
C417 C 0.51488 0.21235 0.80484 0.0
C418 C 0.46633 0.21979 0.62116 0.0
H419 H 0.53475 0.18423 0.27908 0.0
H420 H 0.5189 0.1714 0.40266 0.0
H421 H 0.44607 0.22205 0.50585 0.0
H422 H 0.47438 0.28638 0.86599 0.0
H423 H 0.46739 0.2659 0.73331 0.0
H424 H 0.54062 0.20234 0.66853 0.0
C425 C 0.51256 0.19304 0.38177 0.0
C426 C 0.46646 0.2168 0.54127 0.0
C427 C 0.5219 0.20059 0.31163 0.0
C428 C 0.4859 0.2657 0.84977 0.0
C429 C 0.48146 0.25363 0.77395 0.0
C430 C 0.51937 0.20542 0.63429 0.0
C431 C 0.4966 0.21391 0.42644 0.0
C432 C 0.49341 0.20924 0.50773 0.0
C433 C 0.49578 0.22673 0.75062 0.0
C434 C 0.49333 0.21587 0.6683 0.0
H435 H 0.49275 0.27141 0.308 0.0
H436 H 0.47665 0.25847 0.43187 0.0
H437 H 0.5405 0.19629 0.53019 0.0
H438 H 0.5349 0.21357 0.92048 0.0
H439 H 0.52621 0.19156 0.78891 0.0
loop_
_geom_bond_atom_site_label_1
_geom_bond_atom_site_label_2
_geom_bond_distance
_geom_bond_site_symmetry_2
_ccdc_geom_bond_type
Zn0 O6 1.969 . S
Zn0 O7 1.965 . S
Zn0 O11 2.024 . S
Zn0 O16 1.969 . S
Zn1 O8 1.969 . S
Zn1 O14 1.969 . S
Zn1 O15 1.965 1_655 S
Zn1 O17 2.024 . S
C2 O3 1.229 . S
C2 O11 1.058 . S
O3 C2 1.229 . S
C4 O5 1.229 . S
C4 O17 1.058 . S
O5 C4 1.229 . S
O6 Zn0 1.969 . S
O6 C9 1.267 . S
O7 Zn0 1.965 . S
O7 C18 1.260 . S
O8 Zn1 1.969 . S
O8 C18 1.258 1_655 S
C9 O6 1.267 . S
C9 O10 1.228 . S
O10 C9 1.228 . S
O11 Zn0 2.024 . S
O11 C2 1.058 . S
C12 O13 1.228 . S
C12 O14 1.267 . S
O13 C12 1.228 . S
O14 Zn1 1.969 . S
O14 C12 1.267 . S
O15 Zn1 1.965 1_455 S
O15 C19 1.260 . S
O16 Zn0 1.969 . S
O16 C19 1.258 . S
O17 Zn1 2.024 . S
O17 C4 1.058 . S
C18 O7 1.260 . S
C18 O8 1.258 1_455 S
C19 O15 1.260 . S
C19 O16 1.258 . S
Zn20 O26 1.969 . S
Zn20 O27 1.965 . S
Zn20 O31 2.024 . S
Zn20 O36 1.969 . S
Zn21 O28 1.969 . S
Zn21 O34 1.969 . S
Zn21 O35 1.965 . S
Zn21 O37 2.024 . S
C22 O23 1.229 . S
C22 O31 1.058 . S
O23 C22 1.229 . S
C24 O25 1.229 . S
C24 O37 1.058 . S
O25 C24 1.229 . S
O26 Zn20 1.969 . S
O26 C29 1.267 . S
O27 Zn20 1.965 . S
O27 C38 1.260 . S
O28 Zn21 1.969 . S
O28 C38 1.258 1_655 S
C29 O26 1.267 . S
C29 O30 1.228 . S
O30 C29 1.228 . S
O31 Zn20 2.024 . S
O31 C22 1.058 . S
C32 O33 1.228 . S
C32 O34 1.267 . S
O33 C32 1.228 . S
O34 Zn21 1.969 . S
O34 C32 1.267 . S
O35 Zn21 1.965 . S
O35 C39 1.260 1_655 S
O36 Zn20 1.969 . S
O36 C39 1.258 . S
O37 Zn21 2.024 . S
O37 C24 1.058 . S
C38 O27 1.260 . S
C38 O28 1.258 1_455 S
C39 O35 1.260 1_455 S
C39 O36 1.258 . S
Zn40 O46 1.969 . S
Zn40 O47 1.965 . S
Zn40 O51 2.024 . S
Zn40 O56 1.969 . S
Zn41 O48 1.969 . S
Zn41 O54 1.969 . S
Zn41 O55 1.965 . S
Zn41 O57 2.024 . S
C42 O43 1.229 . S
C42 O51 1.058 . S
O43 C42 1.229 . S
C44 O45 1.229 . S
C44 O57 1.058 . S
O45 C44 1.229 . S
O46 Zn40 1.969 . S
O46 C49 1.267 . S
O47 Zn40 1.965 . S
O47 C58 1.260 . S
O48 Zn41 1.969 . S
O48 C58 1.258 . S
C49 O46 1.267 . S
C49 O50 1.228 . S
O50 C49 1.228 . S
O51 Zn40 2.024 . S
O51 C42 1.058 . S
C52 O53 1.228 . S
C52 O54 1.267 . S
O53 C52 1.228 . S
O54 Zn41 1.969 . S
O54 C52 1.267 . S
O55 Zn41 1.965 . S
O55 C59 1.260 . S
O56 Zn40 1.969 . S
O56 C59 1.258 . S
O57 Zn41 2.024 . S
O57 C44 1.058 . S
C58 O47 1.260 . S
C58 O48 1.258 . S
C59 O55 1.260 . S
C59 O56 1.258 . S
Zn60 O66 1.969 . S
Zn60 O67 1.965 . S
Zn60 O71 2.024 . S
Zn60 O76 1.969 . S
Zn61 O68 1.969 . S
Zn61 O74 1.969 . S
Zn61 O75 1.965 . S
Zn61 O77 2.024 . S
C62 O63 1.229 . S
C62 O71 1.058 . S
O63 C62 1.229 . S
C64 O65 1.229 . S
C64 O77 1.058 . S
O65 C64 1.229 . S
O66 Zn60 1.969 . S
O66 C69 1.267 . S
O67 Zn60 1.965 . S
O67 C78 1.260 . S
O68 Zn61 1.969 . S
O68 C78 1.258 . S
C69 O66 1.267 . S
C69 O70 1.228 . S
O70 C69 1.228 . S
O71 Zn60 2.024 . S
O71 C62 1.058 . S
C72 O73 1.228 . S
C72 O74 1.267 . S
O73 C72 1.228 . S
O74 Zn61 1.969 . S
O74 C72 1.267 . S
O75 Zn61 1.965 . S
O75 C79 1.260 . S
O76 Zn60 1.969 . S
O76 C79 1.258 . S
O77 Zn61 2.024 . S
O77 C64 1.058 . S
C78 O67 1.260 . S
C78 O68 1.258 . S
C79 O75 1.260 . S
C79 O76 1.258 . S
C80 C81 1.349 . S
C80 C82 1.327 . S
C80 H105 0.950 . S
C81 C80 1.349 . S
C81 C97 1.349 . S
C82 C80 1.327 . S
C82 C101 1.429 . S
C82 H106 0.950 . S
C83 C100 1.574 . S
C83 C102 1.368 . S
C83 H107 0.949 . S
H84 C88 0.949 . S
C85 C86 1.349 . S
C85 C87 1.327 . S
C85 H108 0.950 . S
C86 C85 1.349 . S
C86 C98 1.349 . S
C87 C85 1.327 . S
C87 C103 1.429 . S
C87 H109 0.950 . S
C88 H84 0.949 . S
C88 C96 1.574 . S
C88 C104 1.368 . S
H89 C97 0.950 . S
H90 C95 0.950 . S
H91 C96 0.949 . S
H92 C98 0.950 . S
H93 C99 0.950 . S
H94 C100 0.949 . S
C95 H90 0.950 . S
C95 C97 1.327 . S
C95 C101 1.429 . S
C96 C88 1.574 . S
C96 H91 0.949 . S
C96 C102 1.368 . S
C97 C81 1.349 . S
C97 H89 0.950 . S
C97 C95 1.327 . S
C98 C86 1.349 . S
C98 H92 0.950 . S
C98 C99 1.327 . S
C99 H93 0.950 . S
C99 C98 1.327 . S
C99 C103 1.429 . S
C100 C83 1.574 . S
C100 H94 0.949 . S
C100 C104 1.368 . S
C101 C82 1.429 . S
C101 C95 1.429 . S
C101 C102 1.523 . S
C102 C83 1.368 . S
C102 C96 1.368 . S
C102 C101 1.523 . S
C103 C87 1.429 . S
C103 C99 1.429 . S
C103 C104 1.523 . S
C104 C88 1.368 . S
C104 C100 1.368 . S
C104 C103 1.523 . S
H105 C80 0.950 . S
H106 C82 0.950 . S
H107 C83 0.949 . S
H108 C85 0.950 . S
H109 C87 0.950 . S
C110 C111 1.349 . S
C110 C112 1.327 . S
C110 H135 0.950 . S
C111 C110 1.349 . S
C111 C127 1.349 . S
C112 C110 1.327 . S
C112 C131 1.429 . S
C112 H136 0.950 . S
C113 C130 1.574 . S
C113 C132 1.368 . S
C113 H137 0.949 . S
H114 C118 0.949 . S
C115 C116 1.349 . S
C115 C117 1.327 . S
C115 H138 0.950 . S
C116 C115 1.349 . S
C116 C128 1.349 . S
C117 C115 1.327 . S
C117 C133 1.429 . S
C117 H139 0.950 . S
C118 H114 0.949 . S
C118 C126 1.574 . S
C118 C134 1.368 . S
H119 C127 0.950 . S
H120 C125 0.950 . S
H121 C126 0.949 . S
H122 C128 0.950 . S
H123 C129 0.950 . S
H124 C130 0.949 . S
C125 H120 0.950 . S
C125 C127 1.327 . S
C125 C131 1.429 . S
C126 C118 1.574 . S
C126 H121 0.949 . S
C126 C132 1.368 . S
C127 C111 1.349 . S
C127 H119 0.950 . S
C127 C125 1.327 . S
C128 C116 1.349 . S
C128 H122 0.950 . S
C128 C129 1.327 . S
C129 H123 0.950 . S
C129 C128 1.327 . S
C129 C133 1.429 . S
C130 C113 1.574 . S
C130 H124 0.949 . S
C130 C134 1.368 . S
C131 C112 1.429 . S
C131 C125 1.429 . S
C131 C132 1.523 . S
C132 C113 1.368 . S
C132 C126 1.368 . S
C132 C131 1.523 . S
C133 C117 1.429 . S
C133 C129 1.429 . S
C133 C134 1.523 . S
C134 C118 1.368 . S
C134 C130 1.368 . S
C134 C133 1.523 . S
H135 C110 0.950 . S
H136 C112 0.950 . S
H137 C113 0.949 . S
H138 C115 0.950 . S
H139 C117 0.950 . S
C140 C141 1.349 . S
C140 C142 1.327 . S
C140 H165 0.950 . S
C141 C140 1.349 . S
C141 C157 1.349 . S
C142 C140 1.327 . S
C142 C161 1.429 . S
C142 H166 0.950 . S
C143 C160 1.574 . S
C143 C162 1.368 1_556 S
C143 H167 0.949 . S
H144 C148 0.949 . S
C145 C146 1.349 . S
C145 C147 1.327 . S
C145 H168 0.950 . S
C146 C145 1.349 . S
C146 C158 1.349 . S
C147 C145 1.327 . S
C147 C163 1.429 . S
C147 H169 0.950 . S
C148 H144 0.949 . S
C148 C156 1.574 . S
C148 C164 1.368 1_554 S
H149 C157 0.950 . S
H150 C155 0.950 1_556 S
H151 C156 0.949 . S
H152 C158 0.950 1_554 S
H153 C159 0.950 . S
H154 C160 0.949 . S
C155 H150 0.950 1_554 S
C155 C157 1.327 . S
C155 C161 1.429 . S
C156 C148 1.574 . S
C156 H151 0.949 . S
C156 C162 1.368 . S
C157 C141 1.349 . S
C157 H149 0.950 . S
C157 C155 1.327 . S
C158 C146 1.349 . S
C158 H152 0.950 1_556 S
C158 C159 1.327 1_556 S
C159 H153 0.950 . S
C159 C158 1.327 1_554 S
C159 C163 1.429 1_554 S
C160 C143 1.574 . S
C160 H154 0.949 . S
C160 C164 1.368 . S
C161 C142 1.429 . S
C161 C155 1.429 . S
C161 C162 1.523 . S
C162 C143 1.368 1_554 S
C162 C156 1.368 . S
C162 C161 1.523 . S
C163 C147 1.429 . S
C163 C159 1.429 1_556 S
C163 C164 1.523 . S
C164 C148 1.368 1_556 S
C164 C160 1.368 . S
C164 C163 1.523 . S
H165 C140 0.950 . S
H166 C142 0.950 . S
H167 C143 0.949 . S
H168 C145 0.950 . S
H169 C147 0.950 . S
C170 C171 1.349 . S
C170 C172 1.327 . S
C170 H195 0.950 . S
C171 C170 1.349 . S
C171 C187 1.349 . S
C172 C170 1.327 . S
C172 C191 1.429 . S
C172 H196 0.950 . S
C173 C190 1.574 . S
C173 C192 1.368 . S
C173 H197 0.949 . S
H174 C178 0.949 . S
C175 C176 1.349 . S
C175 C177 1.327 . S
C175 H198 0.950 . S
C176 C175 1.349 . S
C176 C188 1.349 . S
C177 C175 1.327 . S
C177 C193 1.429 . S
C177 H199 0.950 . S
C178 H174 0.949 . S
C178 C186 1.574 . S
C178 C194 1.368 . S
H179 C187 0.950 . S
H180 C185 0.950 . S
H181 C186 0.949 . S
H182 C188 0.950 . S
H183 C189 0.950 . S
H184 C190 0.949 . S
C185 H180 0.950 . S
C185 C187 1.327 . S
C185 C191 1.429 . S
C186 C178 1.574 . S
C186 H181 0.949 . S
C186 C192 1.368 . S
C187 C171 1.349 . S
C187 H179 0.950 . S
C187 C185 1.327 . S
C188 C176 1.349 . S
C188 H182 0.950 . S
C188 C189 1.327 . S
C189 H183 0.950 . S
C189 C188 1.327 . S
C189 C193 1.429 . S
C190 C173 1.574 . S
C190 H184 0.949 . S
C190 C194 1.368 . S
C191 C172 1.429 . S
C191 C185 1.429 . S
C191 C192 1.523 . S
C192 C173 1.368 . S
C192 C186 1.368 . S
C192 C191 1.523 . S
C193 C177 1.429 . S
C193 C189 1.429 . S
C193 C194 1.523 . S
C194 C178 1.368 . S
C194 C190 1.368 . S
C194 C193 1.523 . S
H195 C170 0.950 . S
H196 C172 0.950 . S
H197 C173 0.949 . S
H198 C175 0.950 . S
H199 C177 0.950 . S
C200 C201 1.349 . S
C200 C202 1.327 . S
C200 H225 0.950 . S
C201 C200 1.349 . S
C201 C217 1.349 . S
C202 C200 1.327 . S
C202 C221 1.429 . S
C202 H226 0.950 . S
C203 C220 1.574 . S
C203 C222 1.368 . S
C203 H227 0.949 . S
H204 C208 0.949 . S
C205 C206 1.349 . S
C205 C207 1.327 . S
C205 H228 0.950 . S
C206 C205 1.349 . S
C206 C218 1.349 . S
C207 C205 1.327 . S
C207 C223 1.429 . S
C207 H229 0.950 . S
C208 H204 0.949 . S
C208 C216 1.574 . S
C208 C224 1.368 . S
H209 C217 0.950 . S
H210 C215 0.950 . S
H211 C216 0.949 . S
H212 C218 0.950 . S
H213 C219 0.950 . S
H214 C220 0.949 . S
C215 H210 0.950 . S
C215 C217 1.327 . S
C215 C221 1.429 . S
C216 C208 1.574 . S
C216 H211 0.949 . S
C216 C222 1.368 . S
C217 C201 1.349 . S
C217 H209 0.950 . S
C217 C215 1.327 . S
C218 C206 1.349 . S
C218 H212 0.950 . S
C218 C219 1.327 . S
C219 H213 0.950 . S
C219 C218 1.327 . S
C219 C223 1.429 . S
C220 C203 1.574 . S
C220 H214 0.949 . S
C220 C224 1.368 . S
C221 C202 1.429 . S
C221 C215 1.429 . S
C221 C222 1.523 . S
C222 C203 1.368 . S
C222 C216 1.368 . S
C222 C221 1.523 . S
C223 C207 1.429 . S
C223 C219 1.429 . S
C223 C224 1.523 . S
C224 C208 1.368 . S
C224 C220 1.368 . S
C224 C223 1.523 . S
H225 C200 0.950 . S
H226 C202 0.950 . S
H227 C203 0.949 . S
H228 C205 0.950 . S
H229 C207 0.950 . S
C230 C231 1.349 . S
C230 C232 1.327 . S
C230 H255 0.950 . S
C231 C230 1.349 . S
C231 C247 1.349 . S
C232 C230 1.327 . S
C232 C251 1.429 . S
C232 H256 0.950 . S
C233 C250 1.574 . S
C233 C252 1.368 . S
C233 H257 0.949 . S
H234 C238 0.949 . S
C235 C236 1.349 . S
C235 C237 1.327 . S
C235 H258 0.950 . S
C236 C235 1.349 . S
C236 C248 1.349 . S
C237 C235 1.327 . S
C237 C253 1.429 . S
C237 H259 0.950 . S
C238 H234 0.949 . S
C238 C246 1.574 . S
C238 C254 1.368 . S
H239 C247 0.950 . S
H240 C245 0.950 . S
H241 C246 0.949 . S
H242 C248 0.950 . S
H243 C249 0.950 . S
H244 C250 0.949 . S
C245 H240 0.950 . S
C245 C247 1.327 . S
C245 C251 1.429 . S
C246 C238 1.574 . S
C246 H241 0.949 . S
C246 C252 1.368 . S
C247 C231 1.349 . S
C247 H239 0.950 . S
C247 C245 1.327 . S
C248 C236 1.349 . S
C248 H242 0.950 . S
C248 C249 1.327 . S
C249 H243 0.950 . S
C249 C248 1.327 . S
C249 C253 1.429 . S
C250 C233 1.574 . S
C250 H244 0.949 . S
C250 C254 1.368 . S
C251 C232 1.429 . S
C251 C245 1.429 . S
C251 C252 1.523 . S
C252 C233 1.368 . S
C252 C246 1.368 . S
C252 C251 1.523 . S
C253 C237 1.429 . S
C253 C249 1.429 . S
C253 C254 1.523 . S
C254 C238 1.368 . S
C254 C250 1.368 . S
C254 C253 1.523 . S
H255 C230 0.950 . S
H256 C232 0.950 . S
H257 C233 0.949 . S
H258 C235 0.950 . S
H259 C237 0.950 . S
C260 C261 1.349 . S
C260 C262 1.327 . S
C260 H285 0.950 . S
C261 C260 1.349 . S
C261 C277 1.349 . S
C262 C260 1.327 . S
C262 C281 1.429 . S
C262 H286 0.950 . S
C263 C280 1.574 1_565 S
C263 C282 1.368 1_554 S
C263 H287 0.949 . S
H264 C268 0.949 . S
C265 C266 1.349 . S
C265 C267 1.327 . S
C265 H288 0.950 . S
C266 C265 1.349 . S
C266 C278 1.349 . S
C267 C265 1.327 . S
C267 C283 1.429 . S
C267 H289 0.950 . S
C268 H264 0.949 . S
C268 C276 1.574 1_545 S
C268 C284 1.368 1_556 S
H269 C277 0.950 . S
H270 C275 0.950 1_554 S
H271 C276 0.949 . S
H272 C278 0.950 . S
H273 C279 0.950 1_556 S
H274 C280 0.949 . S
C275 H270 0.950 1_556 S
C275 C277 1.327 . S
C275 C281 1.429 . S
C276 C268 1.574 1_565 S
C276 H271 0.949 . S
C276 C282 1.368 . S
C277 C261 1.349 . S
C277 H269 0.950 . S
C277 C275 1.327 . S
C278 C266 1.349 . S
C278 H272 0.950 . S
C278 C279 1.327 . S
C279 H273 0.950 1_554 S
C279 C278 1.327 . S
C279 C283 1.429 . S
C280 C263 1.574 1_545 S
C280 H274 0.949 . S
C280 C284 1.368 . S
C281 C262 1.429 . S
C281 C275 1.429 . S
C281 C282 1.523 . S
C282 C263 1.368 1_556 S
C282 C276 1.368 . S
C282 C281 1.523 . S
C283 C267 1.429 . S
C283 C279 1.429 . S
C283 C284 1.523 . S
C284 C268 1.368 1_554 S
C284 C280 1.368 . S
C284 C283 1.523 . S
H285 C260 0.950 . S
H286 C262 0.950 . S
H287 C263 0.949 . S
H288 C265 0.950 . S
H289 C267 0.950 . S
C290 C291 1.349 . S
C290 C292 1.327 . S
C290 H315 0.950 . S
C291 C290 1.349 . S
C291 C307 1.349 . S
C292 C290 1.327 . S
C292 C311 1.429 . S
C292 H316 0.950 . S
C293 C310 1.574 1_565 S
C293 C312 1.381 . S
C293 H317 0.939 1_655 S
H294 C298 0.949 . S
C295 C296 1.349 . S
C295 C297 1.327 . S
C295 H318 0.950 1_655 S
C296 C295 1.349 . S
C296 C308 1.349 . S
C297 C295 1.327 . S
C297 C313 1.429 . S
C297 H319 0.950 1_655 S
C298 H294 0.949 . S
C298 C306 1.574 1_545 S
C298 C314 1.368 . S
H299 C307 0.950 1_455 S
H300 C305 0.950 1_455 S
H301 C306 0.949 . S
H302 C308 0.950 . S
H303 C309 0.950 . S
H304 C310 0.937 1_455 S
C305 H300 0.950 1_655 S
C305 C307 1.327 . S
C305 C311 1.429 . S
C306 C298 1.574 1_565 S
C306 H301 0.949 . S
C306 C312 1.368 . S
C307 C291 1.349 . S
C307 H299 0.950 1_655 S
C307 C305 1.327 . S
C308 C296 1.349 . S
C308 H302 0.950 . S
C308 C309 1.327 . S
C309 H303 0.950 . S
C309 C308 1.327 . S
C309 C313 1.429 . S
C310 C293 1.574 1_545 S
C310 H304 0.937 1_655 S
C310 C314 1.381 . S
C311 C292 1.429 . S
C311 C305 1.429 . S
C311 C312 1.523 . S
C312 C293 1.381 . S
C312 C306 1.368 . S
C312 C311 1.523 . S
C313 C297 1.429 . S
C313 C309 1.429 . S
C313 C314 1.523 . S
C314 C298 1.368 . S
C314 C310 1.381 . S
C314 C313 1.523 . S
H315 C290 0.950 . S
H316 C292 0.950 . S
H317 C293 0.939 1_455 S
H318 C295 0.950 1_455 S
H319 C297 0.950 1_455 S
C320 C321 1.349 . S
C320 C322 1.327 . S
C320 H345 0.950 . S
C321 C320 1.349 . S
C321 C337 1.349 1_455 S
C322 C320 1.327 . S
C322 C341 1.429 . S
C322 H346 0.950 . S
C323 C340 1.574 . S
C323 C342 1.368 1_655 S
C323 H347 0.949 . S
H324 C328 0.949 . S
C325 C326 1.349 1_655 S
C325 C327 1.327 . S
C325 H348 0.950 . S
C326 C325 1.349 1_455 S
C326 C338 1.349 . S
C327 C325 1.327 . S
C327 C343 1.429 1_655 S
C327 H349 0.950 . S
C328 H324 0.949 . S
C328 C336 1.574 . S
C328 C344 1.368 . S
H329 C337 0.950 . S
H330 C335 0.950 . S
H331 C336 0.949 . S
H332 C338 0.950 . S
H333 C339 0.950 . S
H334 C340 0.949 . S
C335 H330 0.950 . S
C335 C337 1.327 . S
C335 C341 1.429 1_655 S
C336 C328 1.574 . S
C336 H331 0.949 . S
C336 C342 1.368 . S
C337 C321 1.349 1_655 S
C337 H329 0.950 . S
C337 C335 1.327 . S
C338 C326 1.349 . S
C338 H332 0.950 . S
C338 C339 1.327 . S
C339 H333 0.950 . S
C339 C338 1.327 . S
C339 C343 1.429 . S
C340 C323 1.574 . S
C340 H334 0.949 . S
C340 C344 1.368 1_655 S
C341 C322 1.429 . S
C341 C335 1.429 1_455 S
C341 C342 1.523 1_554 S
C342 C323 1.368 1_455 S
C342 C336 1.368 . S
C342 C341 1.523 1_556 S
C343 C327 1.429 1_455 S
C343 C339 1.429 . S
C343 C344 1.523 . S
C344 C328 1.368 . S
C344 C340 1.368 1_455 S
C344 C343 1.523 . S
H345 C320 0.950 . S
H346 C322 0.950 . S
H347 C323 0.949 . S
H348 C325 0.950 . S
H349 C327 0.950 . S
C350 C351 1.349 . S
C350 C352 1.327 . S
C350 H375 0.950 . S
C351 C350 1.349 . S
C351 C367 1.349 1_455 S
C352 C350 1.327 . S
C352 C371 1.429 . S
C352 H376 0.950 . S
C353 C370 1.574 . S
C353 C372 1.368 1_655 S
C353 H377 0.949 . S
H354 C358 0.949 . S
C355 C356 1.349 1_655 S
C355 C357 1.327 . S
C355 H378 0.950 . S
C356 C355 1.349 1_455 S
C356 C368 1.349 . S
C357 C355 1.327 . S
C357 C373 1.429 1_655 S
C357 H379 0.950 . S
C358 H354 0.949 . S
C358 C366 1.574 . S
C358 C374 1.368 . S
H359 C367 0.950 . S
H360 C365 0.950 . S
H361 C366 0.949 . S
H362 C368 0.950 . S
H363 C369 0.950 . S
H364 C370 0.949 . S
C365 H360 0.950 . S
C365 C367 1.327 . S
C365 C371 1.429 1_655 S
C366 C358 1.574 . S
C366 H361 0.949 . S
C366 C372 1.368 . S
C367 C351 1.349 1_655 S
C367 H359 0.950 . S
C367 C365 1.327 . S
C368 C356 1.349 . S
C368 H362 0.950 . S
C368 C369 1.327 . S
C369 H363 0.950 . S
C369 C368 1.327 . S
C369 C373 1.429 . S
C370 C353 1.574 . S
C370 H364 0.949 . S
C370 C374 1.368 1_655 S
C371 C352 1.429 . S
C371 C365 1.429 1_455 S
C371 C372 1.523 1_556 S
C372 C353 1.368 1_455 S
C372 C366 1.368 . S
C372 C371 1.523 1_554 S
C373 C357 1.429 1_455 S
C373 C369 1.429 . S
C373 C374 1.523 . S
C374 C358 1.368 . S
C374 C370 1.368 1_455 S
C374 C373 1.523 . S
H375 C350 0.950 . S
H376 C352 0.950 . S
H377 C353 0.949 . S
H378 C355 0.950 . S
H379 C357 0.950 . S
C380 C381 1.349 . S
C380 C382 1.327 . S
C380 H405 0.950 . S
C381 C380 1.349 . S
C381 C397 1.349 . S
C382 C380 1.327 . S
C382 C401 1.429 . S
C382 H406 0.950 . S
C383 C400 1.574 . S
C383 C402 1.368 . S
C383 H407 0.949 . S
H384 C388 0.949 . S
C385 C386 1.349 . S
C385 C387 1.327 . S
C385 H408 0.950 . S
C386 C385 1.349 . S
C386 C398 1.349 . S
C387 C385 1.327 . S
C387 C403 1.429 . S
C387 H409 0.950 . S
C388 H384 0.949 . S
C388 C396 1.574 . S
C388 C404 1.368 . S
H389 C397 0.950 . S
H390 C395 0.950 . S
H391 C396 0.949 . S
H392 C398 0.950 . S
H393 C399 0.950 . S
H394 C400 0.949 . S
C395 H390 0.950 . S
C395 C397 1.327 . S
C395 C401 1.429 . S
C396 C388 1.574 . S
C396 H391 0.949 . S
C396 C402 1.368 . S
C397 C381 1.349 . S
C397 H389 0.950 . S
C397 C395 1.327 . S
C398 C386 1.349 . S
C398 H392 0.950 . S
C398 C399 1.327 . S
C399 H393 0.950 . S
C399 C398 1.327 . S
C399 C403 1.429 . S
C400 C383 1.574 . S
C400 H394 0.949 . S
C400 C404 1.368 . S
C401 C382 1.429 . S
C401 C395 1.429 . S
C401 C402 1.523 . S
C402 C383 1.368 . S
C402 C396 1.368 . S
C402 C401 1.523 . S
C403 C387 1.429 . S
C403 C399 1.429 . S
C403 C404 1.523 . S
C404 C388 1.368 . S
C404 C400 1.368 . S
C404 C403 1.523 . S
H405 C380 0.950 . S
H406 C382 0.950 . S
H407 C383 0.949 . S
H408 C385 0.950 . S
H409 C387 0.950 . S
C410 C411 1.349 . S
C410 C412 1.327 . S
C410 H435 0.950 . S
C411 C410 1.349 . S
C411 C427 1.349 . S
C412 C410 1.327 . S
C412 C431 1.429 . S
C412 H436 0.950 . S
C413 C430 1.574 . S
C413 C432 1.368 . S
C413 H437 0.949 . S
H414 C418 0.949 . S
C415 C416 1.349 . S
C415 C417 1.327 . S
C415 H438 0.950 . S
C416 C415 1.349 . S
C416 C428 1.349 . S
C417 C415 1.327 . S
C417 C433 1.429 . S
C417 H439 0.950 . S
C418 H414 0.949 . S
C418 C426 1.574 . S
C418 C434 1.368 . S
H419 C427 0.950 . S
H420 C425 0.950 . S
H421 C426 0.949 . S
H422 C428 0.950 . S
H423 C429 0.950 . S
H424 C430 0.949 . S
C425 H420 0.950 . S
C425 C427 1.327 . S
C425 C431 1.429 . S
C426 C418 1.574 . S
C426 H421 0.949 . S
C426 C432 1.368 . S
C427 C411 1.349 . S
C427 H419 0.950 . S
C427 C425 1.327 . S
C428 C416 1.349 . S
C428 H422 0.950 . S
C428 C429 1.327 . S
C429 H423 0.950 . S
C429 C428 1.327 . S
C429 C433 1.429 . S
C430 C413 1.574 . S
C430 H424 0.949 . S
C430 C434 1.368 . S
C431 C412 1.429 . S
C431 C425 1.429 . S
C431 C432 1.523 . S
C432 C413 1.368 . S
C432 C426 1.368 . S
C432 C431 1.523 . S
C433 C417 1.429 . S
C433 C429 1.429 . S
C433 C434 1.523 . S
C434 C418 1.368 . S
C434 C430 1.368 . S
C434 C433 1.523 . S
H435 C410 0.950 . S
H436 C412 0.950 . S
H437 C413 0.949 . S
H438 C415 0.950 . S
H439 C417 0.950 . S
C81 C9 1.784 . S
C86 C22 1.746 . S
C111 C42 1.932 . S
C116 C32 1.944 . S
C141 C64 1.893 . S
C146 C52 1.932 . S
C171 C4 1.707 . S
C176 C69 1.761 . S
C201 C72 1.943 . S
C206 C2 1.932 . S
C231 C44 1.707 . S
C236 C29 1.761 . S
C261 C49 1.784 . S
C266 C62 1.746 . S
C291 C24 1.893 . S
C296 C12 1.932 . S
C321 C18 0.788 . S
C326 C19 0.788 . S
C351 C39 0.785 . S
C356 C38 0.785 . S
C381 C59 0.788 1_554 S
C386 C58 0.788 . S
C411 C79 0.785 . S
C416 C78 0.785 1_556 S
