# Generated by pormake.
# Topology soi, (5)-cn, num edge types: 1
# Building blocks:
#     Node 0, Type 0, BuildingBlock: BEQFEK_clean_sbu_0, # of connection points: 5
#     Node 1, Type 0, BuildingBlock: BEQFEK_clean_sbu_0, # of connection points: 5
#     Node 2, Type 0, BuildingBlock: BEQFEK_clean_sbu_0, # of connection points: 5
#     Node 3, Type 0, BuildingBlock: BEQFEK_clean_sbu_0, # of connection points: 5
#     Node 4, Type 0, BuildingBlock: BEQFEK_clean_sbu_0, # of connection points: 5
#     Node 5, Type 0, BuildingBlock: BEQFEK_clean_sbu_0, # of connection points: 5
#     Node 6, Type 0, BuildingBlock: BEQFEK_clean_sbu_0, # of connection points: 5
#     Node 7, Type 0, BuildingBlock: BEQFEK_clean_sbu_0, # of connection points: 5
#     Node 8, Type 0, BuildingBlock: BEQFEK_clean_sbu_0, # of connection points: 5
#     Node 9, Type 0, BuildingBlock: BEQFEK_clean_sbu_0, # of connection points: 5
#     Node 10, Type 0, BuildingBlock: BEQFEK_clean_sbu_0, # of connection points: 5
#     Node 11, Type 0, BuildingBlock: BEQFEK_clean_sbu_0, # of connection points: 5
#     Node 12, Type 0, BuildingBlock: BEQFEK_clean_sbu_0, # of connection points: 5
#     Node 13, Type 0, BuildingBlock: BEQFEK_clean_sbu_0, # of connection points: 5
#     Node 14, Type 0, BuildingBlock: BEQFEK_clean_sbu_0, # of connection points: 5
#     Node 15, Type 0, BuildingBlock: BEQFEK_clean_sbu_0, # of connection points: 5
#     Edge 16, Type (0, 0), BuildingBlock: KIFKEQ_clean_linker_1, # of connection points: 2
#     Edge 17, Type (0, 0), BuildingBlock: KIFKEQ_clean_linker_1, # of connection points: 2
#     Edge 18, Type (0, 0), BuildingBlock: KIFKEQ_clean_linker_1, # of connection points: 2
#     Edge 19, Type (0, 0), BuildingBlock: KIFKEQ_clean_linker_1, # of connection points: 2
#     Edge 20, Type (0, 0), BuildingBlock: KIFKEQ_clean_linker_1, # of connection points: 2
#     Edge 21, Type (0, 0), BuildingBlock: KIFKEQ_clean_linker_1, # of connection points: 2
#     Edge 22, Type (0, 0), BuildingBlock: KIFKEQ_clean_linker_1, # of connection points: 2
#     Edge 23, Type (0, 0), BuildingBlock: KIFKEQ_clean_linker_1, # of connection points: 2
#     Edge 24, Type (0, 0), BuildingBlock: KIFKEQ_clean_linker_1, # of connection points: 2
#     Edge 25, Type (0, 0), BuildingBlock: KIFKEQ_clean_linker_1, # of connection points: 2
#     Edge 26, Type (0, 0), BuildingBlock: KIFKEQ_clean_linker_1, # of connection points: 2
#     Edge 27, Type (0, 0), BuildingBlock: KIFKEQ_clean_linker_1, # of connection points: 2
#     Edge 28, Type (0, 0), BuildingBlock: KIFKEQ_clean_linker_1, # of connection points: 2
#     Edge 29, Type (0, 0), BuildingBlock: KIFKEQ_clean_linker_1, # of connection points: 2
#     Edge 30, Type (0, 0), BuildingBlock: KIFKEQ_clean_linker_1, # of connection points: 2
#     Edge 31, Type (0, 0), BuildingBlock: KIFKEQ_clean_linker_1, # of connection points: 2
#     Edge 32, Type (0, 0), BuildingBlock: KIFKEQ_clean_linker_1, # of connection points: 2
#     Edge 33, Type (0, 0), BuildingBlock: KIFKEQ_clean_linker_1, # of connection points: 2
#     Edge 34, Type (0, 0), BuildingBlock: KIFKEQ_clean_linker_1, # of connection points: 2
#     Edge 35, Type (0, 0), BuildingBlock: KIFKEQ_clean_linker_1, # of connection points: 2
#     Edge 36, Type (0, 0), BuildingBlock: KIFKEQ_clean_linker_1, # of connection points: 2
#     Edge 37, Type (0, 0), BuildingBlock: KIFKEQ_clean_linker_1, # of connection points: 2
#     Edge 38, Type (0, 0), BuildingBlock: KIFKEQ_clean_linker_1, # of connection points: 2
#     Edge 39, Type (0, 0), BuildingBlock: KIFKEQ_clean_linker_1, # of connection points: 2
#     Edge 40, Type (0, 0), BuildingBlock: KIFKEQ_clean_linker_1, # of connection points: 2
#     Edge 41, Type (0, 0), BuildingBlock: KIFKEQ_clean_linker_1, # of connection points: 2
#     Edge 42, Type (0, 0), BuildingBlock: KIFKEQ_clean_linker_1, # of connection points: 2
#     Edge 43, Type (0, 0), BuildingBlock: KIFKEQ_clean_linker_1, # of connection points: 2
#     Edge 44, Type (0, 0), BuildingBlock: KIFKEQ_clean_linker_1, # of connection points: 2
#     Edge 45, Type (0, 0), BuildingBlock: KIFKEQ_clean_linker_1, # of connection points: 2
#     Edge 46, Type (0, 0), BuildingBlock: KIFKEQ_clean_linker_1, # of connection points: 2
#     Edge 47, Type (0, 0), BuildingBlock: KIFKEQ_clean_linker_1, # of connection points: 2
#     Edge 48, Type (0, 0), BuildingBlock: KIFKEQ_clean_linker_1, # of connection points: 2
#     Edge 49, Type (0, 0), BuildingBlock: KIFKEQ_clean_linker_1, # of connection points: 2
#     Edge 50, Type (0, 0), BuildingBlock: KIFKEQ_clean_linker_1, # of connection points: 2
#     Edge 51, Type (0, 0), BuildingBlock: KIFKEQ_clean_linker_1, # of connection points: 2
#     Edge 52, Type (0, 0), BuildingBlock: KIFKEQ_clean_linker_1, # of connection points: 2
#     Edge 53, Type (0, 0), BuildingBlock: KIFKEQ_clean_linker_1, # of connection points: 2
#     Edge 54, Type (0, 0), BuildingBlock: KIFKEQ_clean_linker_1, # of connection points: 2
#     Edge 55, Type (0, 0), BuildingBlock: KIFKEQ_clean_linker_1, # of connection points: 2
# Relax obj value: 0.121
# Max RMSD: 0.196
# Mean RMSD: 0.179
data_MOF--net-soi--node1-BEQFEK_clean_sbu_0--edge1-KIFKEQ_clean_linker_1
_symmetry_space_group_name_H-M    P1
_symmetry_Int_Tables_number       1
_symmetry_cell_setting            triclinic
loop_
_symmetry_equiv_pos_as_xyz
'x, y, z'
_cell_length_a     36.151616
_cell_length_b     28.122185
_cell_length_c     75.391123
_cell_angle_alpha  90.053731
_cell_angle_beta   89.981396
_cell_angle_gamma 90.873369
loop_
_atom_site_label
_atom_site_type_symbol
_atom_site_fract_x
_atom_site_fract_y
_atom_site_fract_z
_atom_type_partial_charge
Co0 Co 0.35909 0.06959 0.15512 0.0
Co1 Co 0.34216 0.064 0.11383 0.0
C2 C 0.29775 0.12458 0.13792 0.0
O3 O 0.31717 0.11348 0.15136 0.0
O4 O 0.30375 0.10688 0.12269 0.0
C5 C 0.33758 0.05677 0.19089 0.0
O6 O 0.30488 0.05907 0.18336 0.0
C7 C 0.30217 0.0599 0.0797 0.0
C8 C 0.34187 0.02313 0.06237 0.0
C9 C 0.30706 0.04297 0.0626 0.0
N10 N 0.33275 0.0506 0.08921 0.0
N11 N 0.35644 0.02887 0.07871 0.0
C12 C 0.26802 0.08154 0.08722 0.0
H13 H 0.26098 0.06412 0.10001 0.0
H14 H 0.24415 0.07772 0.07806 0.0
H15 H 0.27341 0.11987 0.0898 0.0
C16 C 0.34928 0.96535 0.15134 0.0
N17 N 0.35047 0.00948 0.14441 0.0
N18 N 0.34258 0.007 0.12737 0.0
C19 C 0.33525 0.96126 0.12307 0.0
C20 C 0.33954 0.93345 0.1381 0.0
C21 C 0.3579 0.95358 0.17024 0.0
H22 H 0.38176 0.97539 0.17491 0.0
H23 H 0.33351 0.96144 0.17861 0.0
H24 H 0.36448 0.91538 0.17175 0.0
O25 O 0.40292 0.10063 0.14461 0.0
O26 O 0.39033 0.09957 0.11569 0.0
H27 H 0.34423 0.94327 0.09591 0.0
H28 H 0.30734 0.90955 0.10623 0.0
C29 C 0.32087 0.94514 0.1054 0.0
H30 H 0.30056 0.97091 0.10032 0.0
H31 H 0.38245 0.01744 0.08276 0.0
O32 O 0.36624 0.06161 0.18124 0.0
C33 C 0.41118 0.11153 0.12867 0.0
Co34 Co 0.64915 0.42412 0.15238 0.0
Co35 Co 0.66575 0.42785 0.11101 0.0
C36 C 0.71287 0.37245 0.13538 0.0
O37 O 0.69254 0.38266 0.14862 0.0
O38 O 0.70678 0.38944 0.12005 0.0
C39 C 0.67109 0.43867 0.18812 0.0
O40 O 0.70384 0.43548 0.18069 0.0
C41 C 0.69992 0.42327 0.07529 0.0
C42 C 0.66543 0.4728 0.06005 0.0
C43 C 0.69629 0.44433 0.05867 0.0
N44 N 0.67331 0.43996 0.08607 0.0
N45 N 0.65241 0.46883 0.07673 0.0
C46 C 0.72549 0.38421 0.0804 0.0
H47 H 0.71092 0.35846 0.08917 0.0
H48 H 0.74949 0.39959 0.0877 0.0
H49 H 0.73548 0.36463 0.0686 0.0
C50 C 0.65444 0.52799 0.14788 0.0
N51 N 0.65492 0.4837 0.1411 0.0
N52 N 0.66335 0.48593 0.12411 0.0
C53 C 0.6699 0.53189 0.11979 0.0
C54 C 0.66398 0.55988 0.13466 0.0
C55 C 0.64484 0.53977 0.16668 0.0
H56 H 0.62146 0.51693 0.17123 0.0
H57 H 0.66916 0.53332 0.17525 0.0
H58 H 0.63705 0.57763 0.16803 0.0
O59 O 0.6064 0.3898 0.14256 0.0
O60 O 0.61926 0.3885 0.11368 0.0
H61 H 0.66354 0.55652 0.0932 0.0
H62 H 0.70311 0.58129 0.10443 0.0
C63 C 0.68621 0.54838 0.10256 0.0
H64 H 0.70387 0.52048 0.09678 0.0
H65 H 0.62941 0.48626 0.08181 0.0
O66 O 0.64247 0.43362 0.17845 0.0
C67 C 0.59876 0.37659 0.12679 0.0
Co68 Co 0.34945 0.91901 0.41252 0.0
Co69 Co 0.34001 0.91732 0.37072 0.0
C70 C 0.40351 0.86893 0.38982 0.0
O71 O 0.39336 0.88285 0.40519 0.0
O72 O 0.38567 0.88003 0.37579 0.0
C73 C 0.36071 0.93707 0.45278 0.0
O74 O 0.39621 0.94767 0.45222 0.0
C75 C 0.35329 0.94068 0.33224 0.0
C76 C 0.29843 0.92022 0.32154 0.0
C77 C 0.33267 0.93848 0.3166 0.0
N78 N 0.33185 0.92455 0.34568 0.0
N79 N 0.29919 0.91242 0.33908 0.0
C80 C 0.39294 0.95547 0.33435 0.0
H81 H 0.40439 0.94088 0.34684 0.0
H82 H 0.39501 -0.00519 0.33496 0.0
H83 H 0.40938 0.94326 0.32282 0.0
C84 C 0.34644 0.02223 0.4059 0.0
N85 N 0.34671 0.97716 0.39998 0.0
N86 N 0.34088 0.97686 0.38274 0.0
C87 C 0.33531 0.02184 0.37726 0.0
C88 C 0.33896 0.05217 0.39176 0.0
C89 C 0.35374 0.03602 0.42476 0.0
H90 H 0.37768 0.01594 0.42978 0.0
H91 H 0.35986 0.07464 0.42607 0.0
H92 H 0.32924 0.02651 0.43297 0.0
O93 O 0.30577 0.87853 0.40776 0.0
O94 O 0.29749 0.87855 0.37877 0.0
H95 H 0.3034 0.0064 0.35388 0.0
H96 H 0.30699 0.0687 0.35916 0.0
C97 C 0.32209 0.03467 0.35909 0.0
H98 H 0.34622 0.03837 0.3501 0.0
H99 H 0.27716 0.89898 0.34658 0.0
O100 O 0.3432 0.92715 0.4386 0.0
C101 C 0.28763 0.86545 0.39417 0.0
Co102 Co 0.65476 0.56552 0.41098 0.0
Co103 Co 0.66088 0.56858 0.36898 0.0
C104 C 0.59919 0.61647 0.38794 0.0
O105 O 0.61089 0.60241 0.40304 0.0
O106 O 0.6156 0.6055 0.37353 0.0
C107 C 0.64106 0.53672 0.44974 0.0
O108 O 0.61383 0.50688 0.44609 0.0
C109 C 0.651 0.55422 0.32947 0.0
C110 C 0.71005 0.553 0.3219 0.0
C111 C 0.67468 0.54917 0.315 0.0
N112 N 0.67177 0.56029 0.34421 0.0
N113 N 0.70694 0.55967 0.33945 0.0
C114 C 0.60965 0.55501 0.32921 0.0
H115 H 0.59898 0.57351 0.34111 0.0
H116 H 0.59861 0.51801 0.32924 0.0
H117 H 0.59976 0.57274 0.31698 0.0
C118 C 0.66239 0.46157 0.40348 0.0
N119 N 0.65866 0.50717 0.39832 0.0
N120 N 0.65888 0.50882 0.38084 0.0
C121 C 0.66132 0.4643 0.3744 0.0
C122 C 0.66374 0.43292 0.3885 0.0
C123 C 0.66967 0.44632 0.42214 0.0
H124 H 0.68335 0.47548 0.42967 0.0
H125 H 0.64306 0.43657 0.42859 0.0
H126 H 0.68764 0.41468 0.42245 0.0
O127 O 0.69857 0.60518 0.40668 0.0
O128 O 0.70329 0.60783 0.3775 0.0
H129 H 0.68752 0.46309 0.34898 0.0
H130 H 0.65636 0.41331 0.35292 0.0
C131 C 0.66086 0.45198 0.35509 0.0
H132 H 0.63827 0.47127 0.3485 0.0
H133 H 0.72902 0.5634 0.34828 0.0
O134 O 0.65725 0.55954 0.43735 0.0
C135 C 0.71501 0.61953 0.3928 0.0
Co136 Co 0.66787 0.92051 0.91885 0.0
Co137 Co 0.6518 0.91634 0.87742 0.0
C138 C 0.5999 0.87148 0.90412 0.0
O139 O 0.61974 0.88377 0.91748 0.0
O140 O 0.60906 0.88279 0.88829 0.0
C141 C 0.67458 0.9171 0.95815 0.0
O142 O 0.64633 0.88717 0.95833 0.0
C143 C 0.61953 0.93449 0.84126 0.0
C144 C 0.66806 0.91667 0.82485 0.0
C145 C 0.63202 0.93216 0.82381 0.0
N146 N 0.64727 0.92123 0.85207 0.0
N147 N 0.67599 0.91042 0.84207 0.0
C148 C 0.58151 0.94657 0.84745 0.0
H149 H 0.57872 0.94051 0.86194 0.0
H150 H 0.57575 0.98434 0.8445 0.0
H151 H 0.56077 0.92456 0.84016 0.0
C152 C 0.67285 0.02327 0.91028 0.0
N153 N 0.6659 0.97784 0.90548 0.0
N154 N 0.65957 0.9762 0.88829 0.0
C155 C 0.66244 0.02046 0.8816 0.0
C156 C 0.67088 0.05177 0.89529 0.0
C157 C 0.68503 0.03784 0.92849 0.0
H158 H 0.71088 0.01912 0.93188 0.0
H159 H 0.66358 0.02681 0.93825 0.0
H160 H 0.69011 0.07671 0.92953 0.0
O161 O 0.70702 0.87904 0.90965 0.0
O162 O 0.69546 0.87646 0.88086 0.0
H163 H 0.67768 0.01193 0.85434 0.0
H164 H 0.66154 0.07088 0.85975 0.0
C165 C 0.65773 0.03235 0.86239 0.0
H166 H 0.62943 0.02198 0.85823 0.0
H167 H 0.70135 0.89925 0.84702 0.0
O168 O 0.68525 0.93496 0.94349 0.0
C169 C 0.71469 0.8644 0.89416 0.0
Co170 Co 0.33095 0.57261 0.9223 0.0
Co171 Co 0.34784 0.56633 0.8811 0.0
C172 C 0.39855 0.62003 0.90516 0.0
O173 O 0.37849 0.60998 0.91872 0.0
O174 O 0.39033 0.60465 0.88968 0.0
C175 C 0.32746 0.54889 0.96138 0.0
O176 O 0.35755 0.52348 0.96021 0.0
C177 C 0.37678 0.54716 0.84425 0.0
C178 C 0.32472 0.52032 0.83223 0.0
C179 C 0.36188 0.52796 0.82876 0.0
N180 N 0.34951 0.54988 0.85642 0.0
N181 N 0.31848 0.53445 0.84896 0.0
C182 C 0.41645 0.55937 0.84785 0.0
H183 H 0.42271 0.55481 0.86215 0.0
H184 H 0.43494 0.53696 0.83971 0.0
H185 H 0.42164 0.59717 0.8443 0.0
C186 C 0.32566 0.46696 0.91721 0.0
N187 N 0.33298 0.51159 0.91146 0.0
N188 N 0.34323 0.50967 0.89471 0.0
C189 C 0.34494 0.46385 0.88966 0.0
C190 C 0.3333 0.43529 0.90359 0.0
C191 C 0.30699 0.45519 0.93441 0.0
H192 H 0.28998 0.48533 0.9389 0.0
H193 H 0.32829 0.44755 0.94455 0.0
H194 H 0.28895 0.42312 0.93303 0.0
O195 O 0.29125 0.60903 0.9116 0.0
O196 O 0.30317 0.60655 0.88286 0.0
H197 H 0.33644 0.44885 0.86213 0.0
H198 H 0.36861 0.41006 0.87283 0.0
C199 C 0.35898 0.44729 0.87206 0.0
H200 H 0.38231 0.47039 0.86767 0.0
H201 H 0.29313 0.53219 0.85555 0.0
O202 O 0.31517 0.5699 0.94772 0.0
C203 C 0.28347 0.62043 0.89578 0.0
Co204 Co 0.66052 0.06635 0.6085 0.0
Co205 Co 0.65168 0.0735 0.65036 0.0
C206 C 0.59677 0.11717 0.62519 0.0
O207 O 0.61368 0.10289 0.61132 0.0
O208 O 0.60837 0.10736 0.64074 0.0
C209 C 0.66377 0.03598 0.56934 0.0
O210 O 0.63355 0.00955 0.57008 0.0
C211 C 0.62188 0.05795 0.68721 0.0
C212 C 0.67265 0.07347 0.7026 0.0
C213 C 0.63589 0.05997 0.70441 0.0
N214 N 0.64942 0.06933 0.67582 0.0
N215 N 0.67951 0.07882 0.6852 0.0
C216 C 0.58277 0.04759 0.68179 0.0
H217 H 0.57791 0.05927 0.66795 0.0
H218 H 0.57704 0.00882 0.68263 0.0
H219 H 0.56341 0.06563 0.69094 0.0
C220 C 0.66748 0.96363 0.618 0.0
N221 N 0.66068 0.00929 0.62226 0.0
N222 N 0.65662 0.0125 0.63961 0.0
C223 C 0.66022 0.96898 0.64683 0.0
C224 C 0.66707 0.93658 0.6334 0.0
C225 C 0.67896 0.94731 0.59996 0.0
H226 H 0.6969 0.97469 0.59362 0.0
H227 H 0.65393 0.9416 0.59169 0.0
H228 H 0.69426 0.91346 0.60058 0.0
O229 O 0.70092 0.10794 0.61646 0.0
O230 O 0.69619 0.11367 0.6456 0.0
H231 H 0.67973 0.97904 0.67339 0.0
H232 H 0.66017 0.92039 0.66924 0.0
C233 C 0.65772 0.95881 0.66628 0.0
H234 H 0.6306 0.97057 0.67124 0.0
H235 H 0.705 0.08855 0.67971 0.0
O236 O 0.67519 0.05795 0.58308 0.0
C237 C 0.71254 0.12414 0.63117 0.0
Co238 Co 0.33892 0.42375 0.60921 0.0
Co239 Co 0.35733 0.42738 0.6502 0.0
C240 C 0.40627 0.37529 0.62605 0.0
O241 O 0.38595 0.38614 0.61274 0.0
O242 O 0.39909 0.38998 0.6417 0.0
C243 C 0.33316 0.45387 0.57074 0.0
O244 O 0.35894 0.48678 0.57289 0.0
C245 C 0.38422 0.44528 0.68765 0.0
C246 C 0.33233 0.47402 0.69857 0.0
C247 C 0.36874 0.46504 0.70282 0.0
N248 N 0.358 0.4435 0.67492 0.0
N249 N 0.32705 0.46011 0.68171 0.0
C250 C 0.42356 0.43145 0.68495 0.0
H251 H 0.43122 0.4345 0.67074 0.0
H252 H 0.44233 0.45394 0.69319 0.0
H253 H 0.42677 0.39387 0.68908 0.0
C254 C 0.33123 0.52869 0.61641 0.0
N255 N 0.34094 0.48401 0.62081 0.0
N256 N 0.35426 0.48457 0.63703 0.0
C257 C 0.35687 0.5297 0.6428 0.0
C258 C 0.34126 0.55943 0.63023 0.0
C259 C 0.30755 0.54022 0.60076 0.0
H260 H 0.29345 0.50771 0.59567 0.0
H261 H 0.32503 0.55595 0.59013 0.0
H262 H 0.28635 0.56658 0.60446 0.0
O263 O 0.29886 0.38584 0.61926 0.0
O264 O 0.31186 0.38646 0.6479 0.0
H265 H 0.35784 0.5432 0.67081 0.0
H266 H 0.38853 0.5809 0.6581 0.0
C267 C 0.37701 0.54424 0.65936 0.0
H268 H 0.39992 0.51942 0.66197 0.0
H269 H 0.30247 0.46331 0.67459 0.0
O270 O 0.32398 0.42719 0.58367 0.0
C271 C 0.29156 0.37302 0.635 0.0
Co272 Co 0.84699 0.56724 0.64989 0.0
Co273 Co 0.84095 0.57396 0.60804 0.0
C274 C 0.78797 0.62306 0.63347 0.0
O275 O 0.80251 0.60663 0.64755 0.0
O276 O 0.80063 0.61286 0.61817 0.0
C277 C 0.86205 0.57555 0.68829 0.0
O278 O 0.86455 0.62174 0.68587 0.0
C279 C 0.79827 0.5624 0.57528 0.0
C280 C 0.84139 0.56034 0.55457 0.0
C281 C 0.80344 0.55766 0.55714 0.0
N282 N 0.83153 0.56778 0.58309 0.0
N283 N 0.85721 0.56676 0.57061 0.0
C284 C 0.76258 0.55808 0.58523 0.0
H285 H 0.76752 0.54415 0.59878 0.0
H286 H 0.74277 0.53433 0.57811 0.0
H287 H 0.75016 0.59376 0.58638 0.0
C288 C 0.83818 0.46545 0.64133 0.0
N289 N 0.84214 0.51111 0.63627 0.0
N290 N 0.84198 0.51335 0.61885 0.0
C291 C 0.83922 0.46892 0.61225 0.0
C292 C 0.83656 0.43701 0.62628 0.0
C293 C 0.83172 0.45031 0.66013 0.0
H294 H 0.81551 0.4775 0.66725 0.0
H295 H 0.81644 0.41589 0.66088 0.0
H296 H 0.85882 0.44662 0.66685 0.0
O297 O 0.88975 0.60675 0.6418 0.0
O298 O 0.88787 0.60947 0.61228 0.0
H299 H 0.84634 0.41934 0.59059 0.0
H300 H 0.81235 0.46479 0.58704 0.0
C301 C 0.8398 0.45728 0.59287 0.0
H302 H 0.86087 0.47977 0.58609 0.0
H303 H 0.88559 0.56981 0.57307 0.0
O304 O 0.85501 0.54857 0.67513 0.0
C305 C 0.90299 0.62094 0.62699 0.0
Co306 Co 0.15601 0.92333 0.6571 0.0
Co307 Co 0.16952 0.9255 0.61544 0.0
C308 C 0.21967 0.87378 0.64057 0.0
O309 O 0.20129 0.8855 0.65428 0.0
O310 O 0.21062 0.88761 0.62511 0.0
C311 C 0.15495 0.90947 0.6957 0.0
O312 O 0.17171 0.86909 0.69276 0.0
C313 C 0.20693 0.92576 0.58031 0.0
C314 C 0.16789 0.9669 0.56413 0.0
C315 C 0.20195 0.94496 0.56347 0.0
N316 N 0.17774 0.93721 0.59052 0.0
N317 N 0.15431 0.9612 0.58064 0.0
C318 C 0.23701 0.89338 0.58621 0.0
H319 H 0.22498 0.86379 0.59413 0.0
H320 H 0.25684 0.9136 0.59467 0.0
H321 H 0.2519 0.87774 0.57481 0.0
C322 C 0.16076 0.02653 0.652 0.0
N323 N 0.16003 0.98221 0.64528 0.0
N324 N 0.16661 0.98404 0.62811 0.0
C325 C 0.17261 0.02991 0.62349 0.0
C326 C 0.16872 0.05821 0.63846 0.0
C327 C 0.15461 0.03811 0.67114 0.0
H328 H 0.12794 0.02198 0.67548 0.0
H329 H 0.17706 0.02262 0.67922 0.0
H330 H 0.15375 0.07703 0.67347 0.0
O331 O 0.11546 0.8845 0.64745 0.0
O332 O 0.12313 0.88592 0.61816 0.0
H333 H 0.16282 0.04862 0.59649 0.0
H334 H 0.20047 0.08126 0.60655 0.0
C335 C 0.18653 0.0459 0.60573 0.0
H336 H 0.20632 0.01983 0.60037 0.0
H337 H 0.12921 0.97431 0.58526 0.0
O338 O 0.14617 0.93554 0.68265 0.0
C339 C 0.10564 0.87171 0.63194 0.0
Co340 Co 0.84669 0.42482 0.90785 0.0
Co341 Co 0.84893 0.42071 0.86582 0.0
C342 C 0.90644 0.37313 0.88765 0.0
O343 O 0.89088 0.38637 0.90203 0.0
O344 O 0.89416 0.38525 0.87243 0.0
C345 C 0.83949 0.40512 0.945 0.0
O346 O 0.84513 0.36115 0.93988 0.0
C347 C 0.86543 0.4382 0.82708 0.0
C348 C 0.80833 0.43313 0.81672 0.0
C349 C 0.84452 0.44211 0.81161 0.0
N350 N 0.84228 0.42806 0.84066 0.0
N351 N 0.80833 0.42479 0.83424 0.0
C352 C 0.90658 0.44221 0.82884 0.0
H353 H 0.91597 0.42389 0.84102 0.0
H354 H 0.91497 0.48021 0.82978 0.0
H355 H 0.9202 0.42684 0.817 0.0
C356 C 0.84203 0.52718 0.90023 0.0
N357 N 0.8463 0.482 0.8948 0.0
N358 N 0.84762 0.48079 0.87736 0.0
C359 C 0.84453 0.52546 0.87114 0.0
C360 C 0.84087 0.55633 0.8854 0.0
C361 C 0.83445 0.54068 0.91909 0.0
H362 H 0.81092 0.51885 0.92416 0.0
H363 H 0.85904 0.5327 0.9273 0.0
H364 H 0.82762 0.57875 0.92054 0.0
O365 O 0.80305 0.3855 0.90238 0.0
O366 O 0.80611 0.38024 0.87313 0.0
H367 H 0.8193 0.52264 0.8455 0.0
H368 H 0.84473 0.57736 0.84986 0.0
C369 C 0.84428 0.5383 0.85189 0.0
H370 H 0.869 0.52342 0.84543 0.0
H371 H 0.78489 0.41765 0.84192 0.0
O372 O 0.84187 0.43841 0.93364 0.0
C373 C 0.79064 0.36946 0.88778 0.0
Co374 Co 0.15394 0.06317 0.91341 0.0
Co375 Co 0.16176 0.07008 0.87184 0.0
C376 C 0.09979 0.11741 0.89239 0.0
O377 O 0.11094 0.10229 0.9074 0.0
O378 O 0.11625 0.10663 0.87796 0.0
C379 C 0.15641 0.07829 0.95117 0.0
O380 O 0.14698 0.12189 0.94713 0.0
C381 C 0.14551 0.04387 0.83439 0.0
C382 C 0.19441 0.07538 0.821 0.0
C383 C 0.16243 0.04896 0.81791 0.0
N384 N 0.16691 0.06581 0.84662 0.0
N385 N 0.19593 0.08477 0.83846 0.0
C386 C 0.1087 0.02129 0.83837 0.0
H387 H 0.09861 0.03283 0.85158 0.0
H388 H 0.11112 0.98208 0.83843 0.0
H389 H 0.08844 0.03075 0.82793 0.0
C390 C 0.15545 0.96129 0.905 0.0
N391 N 0.15489 0.00688 0.89971 0.0
N392 N 0.1615 0.00905 0.88257 0.0
C393 C 0.16848 0.96484 0.87657 0.0
C394 C 0.16441 0.93298 0.89057 0.0
C395 C 0.14791 0.94566 0.92365 0.0
H396 H 0.1255 0.96729 0.92943 0.0
H397 H 0.13969 0.90751 0.92416 0.0
H398 H 0.1732 0.95137 0.93176 0.0
O399 O 0.19857 0.10299 0.90938 0.0
O400 O 0.2048 0.10749 0.88022 0.0
H401 H 0.19931 0.98613 0.85335 0.0
H402 H 0.20524 0.92509 0.85982 0.0
C403 C 0.18502 0.95427 0.8588 0.0
H404 H 0.16289 0.94256 0.84955 0.0
H405 H 0.21712 0.1037 0.84486 0.0
O406 O 0.15777 0.04716 0.93897 0.0
C407 C 0.21581 0.11804 0.89577 0.0
Co408 Co 0.17101 0.41263 0.4222 0.0
Co409 Co 0.15905 0.41686 0.38056 0.0
C410 C 0.10656 0.36269 0.40377 0.0
O411 O 0.12381 0.37486 0.41796 0.0
O412 O 0.11721 0.37674 0.38847 0.0
C413 C 0.17194 0.43827 0.46126 0.0
O414 O 0.14192 0.46361 0.4596 0.0
C415 C 0.13154 0.43473 0.34349 0.0
C416 C 0.18409 0.46029 0.33157 0.0
C417 C 0.14691 0.45322 0.328 0.0
N418 N 0.15857 0.43188 0.35576 0.0
N419 N 0.1899 0.44644 0.34836 0.0
C420 C 0.09164 0.42372 0.347 0.0
H421 H 0.0854 0.42785 0.36133 0.0
H422 H 0.07367 0.44712 0.33901 0.0
H423 H 0.08568 0.38628 0.34316 0.0
C424 C 0.176 0.51814 0.41653 0.0
N425 N 0.1696 0.47313 0.41092 0.0
N426 N 0.16105 0.47409 0.39394 0.0
C427 C 0.15945 0.5196 0.38855 0.0
C428 C 0.16947 0.54899 0.40253 0.0
C429 C 0.19302 0.53104 0.434 0.0
H430 H 0.20986 0.50139 0.43904 0.0
H431 H 0.17077 0.53891 0.44364 0.0
H432 H 0.21092 0.56328 0.43278 0.0
O433 O 0.21185 0.37586 0.41248 0.0
O434 O 0.20447 0.37902 0.3834 0.0
H435 H 0.17064 0.53228 0.36108 0.0
H436 H 0.13796 0.5725 0.37069 0.0
C437 C 0.14726 0.53507 0.37051 0.0
H438 H 0.12407 0.51206 0.36589 0.0
H439 H 0.21515 0.44855 0.35504 0.0
O440 O 0.18495 0.4167 0.44786 0.0
C441 C 0.22223 0.36509 0.39693 0.0
Co442 Co 0.83039 0.07303 0.42213 0.0
Co443 Co 0.84313 0.06815 0.38052 0.0
C444 C 0.89508 0.12292 0.40372 0.0
O445 O 0.87763 0.11089 0.41787 0.0
O446 O 0.88476 0.10856 0.3884 0.0
C447 C 0.8287 0.04656 0.46109 0.0
O448 O 0.85785 0.01966 0.4593 0.0
C449 C 0.86985 0.05034 0.34322 0.0
C450 C 0.81711 0.02405 0.33172 0.0
C451 C 0.85411 0.0316 0.32784 0.0
N452 N 0.84322 0.05283 0.35571 0.0
N453 N 0.81177 0.0378 0.34857 0.0
C454 C 0.90976 0.06204 0.3464 0.0
H455 H 0.91644 0.05875 0.36071 0.0
H456 H 0.92767 0.03844 0.33843 0.0
H457 H 0.91533 0.09933 0.34226 0.0
C458 C 0.82533 0.96721 0.41634 0.0
N459 N 0.83197 0.01228 0.41085 0.0
N460 N 0.84119 0.01128 0.39395 0.0
C461 C 0.843 0.96581 0.38853 0.0
C462 C 0.83242 0.93643 0.40237 0.0
C463 C 0.80746 0.95413 0.4336 0.0
H464 H 0.79103 0.98409 0.43873 0.0
H465 H 0.82918 0.94496 0.44333 0.0
H466 H 0.78902 0.9225 0.43199 0.0
O467 O 0.78959 0.11003 0.4124 0.0
O468 O 0.79772 0.10566 0.38339 0.0
H469 H 0.83239 0.95252 0.36104 0.0
H470 H 0.86531 0.91306 0.37082 0.0
C471 C 0.85566 0.95034 0.37055 0.0
H472 H 0.87868 0.97368 0.36597 0.0
H473 H 0.78676 0.03541 0.35544 0.0
O474 O 0.81641 0.06921 0.4478 0.0
C475 C 0.77965 0.12022 0.39674 0.0
Co476 Co 0.1626 0.57165 0.10915 0.0
Co477 Co 0.14901 0.5662 0.15052 0.0
C478 C 0.09726 0.61897 0.12761 0.0
O479 O 0.11509 0.60758 0.11356 0.0
O480 O 0.1071 0.60468 0.14295 0.0
C481 C 0.16573 0.54131 0.07076 0.0
O482 O 0.14059 0.50796 0.07357 0.0
C483 C 0.12336 0.54585 0.18787 0.0
C484 C 0.17661 0.5217 0.19884 0.0
C485 C 0.13972 0.52733 0.20301 0.0
N486 N 0.14957 0.55015 0.17521 0.0
N487 N 0.18132 0.53633 0.18204 0.0
C488 C 0.08331 0.55589 0.18511 0.0
H489 H 0.07622 0.55367 0.17081 0.0
H490 H 0.0658 0.53064 0.19285 0.0
H491 H 0.07764 0.59243 0.18984 0.0
C492 C 0.17433 0.46727 0.11574 0.0
N493 N 0.16301 0.51104 0.12051 0.0
N494 N 0.15143 0.50933 0.13703 0.0
C495 C 0.15166 0.46405 0.14272 0.0
C496 C 0.16726 0.43577 0.12968 0.0
C497 C 0.19742 0.45774 0.09967 0.0
H498 H 0.20995 0.49121 0.09455 0.0
H499 H 0.17986 0.44118 0.08923 0.0
H500 H 0.21987 0.43269 0.10288 0.0
O501 O 0.20288 0.61072 0.11864 0.0
O502 O 0.19438 0.60665 0.14764 0.0
H503 H 0.1557 0.45111 0.17067 0.0
H504 H 0.12573 0.41005 0.15904 0.0
C505 C 0.13498 0.4478 0.15991 0.0
H506 H 0.11094 0.47008 0.16328 0.0
H507 H 0.20611 0.53537 0.17496 0.0
O508 O 0.17562 0.5687 0.08338 0.0
C509 C 0.21252 0.62185 0.13429 0.0
Co510 Co 0.83668 0.92171 0.10768 0.0
Co511 Co 0.84945 0.9268 0.1492 0.0
C512 C 0.89987 0.87098 0.12649 0.0
O513 O 0.88297 0.88336 0.1123 0.0
O514 O 0.89 0.88577 0.14177 0.0
C515 C 0.83348 0.94837 0.06854 0.0
O516 O 0.8606 0.97969 0.07018 0.0
C517 C 0.87491 0.94541 0.18676 0.0
C518 C 0.82282 0.97461 0.19726 0.0
C519 C 0.85908 0.96555 0.20177 0.0
N520 N 0.84905 0.9435 0.17387 0.0
N521 N 0.81796 0.96037 0.18041 0.0
C522 C 0.91429 0.93141 0.18435 0.0
H523 H 0.9222 0.93356 0.17015 0.0
H524 H 0.93291 0.95444 0.19246 0.0
H525 H 0.91743 0.89412 0.18884 0.0
C526 C 0.82948 0.02704 0.11403 0.0
N527 N 0.83831 0.98246 0.11897 0.0
N528 N 0.84942 0.98352 0.13557 0.0
C529 C 0.85144 0.02886 0.14116 0.0
C530 C 0.83765 0.05823 0.12798 0.0
C531 C 0.80821 0.03811 0.09755 0.0
H532 H 0.79409 0.00569 0.09241 0.0
H533 H 0.82747 0.05223 0.08732 0.0
H534 H 0.78713 0.06547 0.10025 0.0
O535 O 0.79533 0.88483 0.11723 0.0
O536 O 0.8029 0.88871 0.14628 0.0
H537 H 0.84849 0.04271 0.16911 0.0
H538 H 0.88049 0.08074 0.15729 0.0
C539 C 0.86916 0.04393 0.15827 0.0
H540 H 0.8919 0.01951 0.16164 0.0
H541 H 0.79359 0.96356 0.17312 0.0
O542 O 0.82304 0.92419 0.08194 0.0
C543 C 0.78484 0.87425 0.1328 0.0
H544 H 0.29084 0.894 0.16126 0.0
H545 H 0.36705 0.85917 0.11939 0.0
H546 H 0.26935 0.81165 0.16235 0.0
H547 H 0.3467 0.77585 0.12079 0.0
H548 H 0.23888 0.66027 0.1654 0.0
H549 H 0.27932 0.73003 0.16852 0.0
H550 H 0.29243 0.73553 0.11154 0.0
H551 H 0.25363 0.66528 0.10851 0.0
C552 C 0.30364 0.86821 0.15262 0.0
C553 C 0.33024 0.88258 0.14014 0.0
C554 C 0.29158 0.82091 0.15331 0.0
C555 C 0.30616 0.78699 0.1416 0.0
C556 C 0.33442 0.80116 0.12979 0.0
C557 C 0.34616 0.84867 0.12898 0.0
C558 C 0.25118 0.67574 0.15359 0.0
C559 C 0.24241 0.65777 0.13669 0.0
C560 C 0.27416 0.7159 0.15537 0.0
C561 C 0.28859 0.739 0.14026 0.0
C562 C 0.28211 0.71866 0.1235 0.0
C563 C 0.25947 0.67842 0.12174 0.0
H564 H 0.63609 0.63275 0.11539 0.0
H565 H 0.71044 0.60141 0.15838 0.0
H566 H 0.65361 0.717 0.1173 0.0
H567 H 0.72935 0.68461 0.15991 0.0
H568 H 0.75713 0.83562 0.16361 0.0
H569 H 0.71736 0.7651 0.16612 0.0
H570 H 0.70612 0.7611 0.10903 0.0
H571 H 0.74397 0.83223 0.10662 0.0
C572 C 0.65601 0.64419 0.12531 0.0
C573 C 0.67209 0.61105 0.1367 0.0
C574 C 0.66613 0.69225 0.12641 0.0
C575 C 0.69309 0.70775 0.1387 0.0
C576 C 0.708 0.67442 0.15053 0.0
C577 C 0.69746 0.6266 0.14957 0.0
C578 C 0.74526 0.8204 0.15166 0.0
C579 C 0.75445 0.83889 0.1349 0.0
C580 C 0.72271 0.77974 0.15308 0.0
C581 C 0.70924 0.75662 0.13776 0.0
C582 C 0.71575 0.77781 0.12115 0.0
C583 C 0.73787 0.81861 0.11975 0.0
H584 H 0.29467 0.09591 0.41552 0.0
H585 H 0.36281 0.12311 0.36949 0.0
H586 H 0.27752 0.17904 0.41637 0.0
H587 H 0.34438 0.20691 0.36994 0.0
H588 H 0.24333 0.31844 0.36669 0.0
H589 H 0.28099 0.24722 0.36525 0.0
H590 H 0.30613 0.26137 0.42098 0.0
H591 H 0.26852 0.33227 0.42256 0.0
C592 C 0.30661 0.11998 0.4058 0.0
C593 C 0.33037 0.10331 0.39256 0.0
C594 C 0.29677 0.16758 0.40627 0.0
C595 C 0.31 0.19947 0.39334 0.0
C596 C 0.33396 0.18299 0.38009 0.0
C597 C 0.34432 0.13524 0.37979 0.0
C598 C 0.25777 0.30721 0.37852 0.0
C599 C 0.25215 0.33026 0.39485 0.0
C600 C 0.27945 0.26653 0.37766 0.0
C601 C 0.29578 0.24844 0.39309 0.0
C602 C 0.29325 0.27425 0.40897 0.0
C603 C 0.2717 0.31484 0.40984 0.0
H604 H 0.7389 0.16453 0.42225 0.0
H605 H 0.75357 0.15566 0.36541 0.0
H606 H 0.70207 0.23532 0.41849 0.0
H607 H 0.71593 0.22609 0.36168 0.0
H608 H 0.717 0.39089 0.36894 0.0
H609 H 0.73447 0.30781 0.36912 0.0
H610 H 0.6477 0.27656 0.40701 0.0
H611 H 0.63009 0.36045 0.40668 0.0
C612 C 0.7334 0.17684 0.40891 0.0
C613 C 0.75001 0.15518 0.39415 0.0
C614 C 0.71204 0.21732 0.40676 0.0
C615 C 0.70676 0.23679 0.38982 0.0
C616 C 0.72026 0.2124 0.37494 0.0
C617 C 0.74169 0.17195 0.37708 0.0
C618 C 0.70106 0.36603 0.37695 0.0
C619 C 0.67212 0.3818 0.38772 0.0
C620 C 0.71095 0.31838 0.37702 0.0
C621 C 0.69226 0.28552 0.38798 0.0
C622 C 0.66264 0.30113 0.39847 0.0
C623 C 0.65264 0.34896 0.39833 0.0
H624 H 0.72498 0.08799 0.87439 0.0
H625 H 0.64218 0.12822 0.91253 0.0
H626 H 0.74472 0.17078 0.87147 0.0
H627 H 0.66212 0.21185 0.90977 0.0
H628 H 0.75542 0.33172 0.91677 0.0
H629 H 0.71921 0.25814 0.91779 0.0
H630 H 0.72331 0.24879 0.86064 0.0
H631 H 0.76006 0.32206 0.85954 0.0
C632 C 0.71073 0.11487 0.88197 0.0
C633 C 0.68202 0.10215 0.89359 0.0
C634 C 0.72182 0.16225 0.88023 0.0
C635 C 0.7046 0.19787 0.89022 0.0
C636 C 0.67579 0.1851 0.9019 0.0
C637 C 0.66449 0.13749 0.90352 0.0
C638 C 0.74787 0.31467 0.90437 0.0
C639 C 0.76139 0.33216 0.88809 0.0
C640 C 0.72694 0.27257 0.90497 0.0
C641 C 0.71913 0.2473 0.88932 0.0
C642 C 0.72965 0.26712 0.87294 0.0
C643 C 0.75056 0.30919 0.87232 0.0
H644 H 0.35057 0.36578 0.92749 0.0
H645 H 0.29437 0.38997 0.8779 0.0
H646 H 0.33268 0.28122 0.92605 0.0
H647 H 0.27681 0.30657 0.87634 0.0
H648 H 0.26193 0.15456 0.87028 0.0
H649 H 0.3 0.22648 0.8726 0.0
H650 H 0.27409 0.23609 0.92843 0.0
H651 H 0.23691 0.16356 0.92627 0.0
C652 C 0.33468 0.35285 0.91625 0.0
C653 C 0.32412 0.38404 0.90272 0.0
C654 C 0.32457 0.30464 0.91539 0.0
C655 C 0.30381 0.28709 0.90095 0.0
C656 C 0.29373 0.31853 0.88737 0.0
C657 C 0.30368 0.36642 0.88828 0.0
C658 C 0.26514 0.17129 0.88315 0.0
C659 C 0.24566 0.15403 0.89799 0.0
C660 C 0.28684 0.21258 0.88446 0.0
C661 C 0.28924 0.23756 0.90059 0.0
C662 C 0.27279 0.2177 0.91581 0.0
C663 C 0.25128 0.17618 0.91453 0.0
H664 H 0.72077 0.90067 0.6544 0.0
H665 H 0.63746 0.85991 0.61613 0.0
H666 H 0.74115 0.81862 0.65608 0.0
H667 H 0.65783 0.77723 0.61772 0.0
H668 H 0.75018 0.66487 0.60643 0.0
H669 H 0.7138 0.73657 0.60797 0.0
H670 H 0.72425 0.73716 0.66505 0.0
H671 H 0.7613 0.66551 0.66353 0.0
C672 C 0.70631 0.87378 0.64665 0.0
C673 C 0.67744 0.88627 0.63524 0.0
C674 C 0.71785 0.82677 0.64764 0.0
C675 C 0.70092 0.79133 0.63712 0.0
C676 C 0.67147 0.80378 0.62594 0.0
C677 C 0.65984 0.85091 0.62501 0.0
C678 C 0.74406 0.67953 0.61936 0.0
C679 C 0.75924 0.65984 0.63483 0.0
C680 C 0.72299 0.72061 0.62025 0.0
C681 C 0.71664 0.74294 0.63661 0.0
C682 C 0.72929 0.72117 0.65221 0.0
C683 C 0.75033 0.67995 0.65134 0.0
H684 H 0.28077 0.85931 0.61984 0.0
H685 H 0.21924 0.80147 0.66408 0.0
H686 H 0.31797 0.78772 0.61876 0.0
H687 H 0.2534 0.72895 0.66218 0.0
H688 H 0.31934 0.60258 0.66087 0.0
H689 H 0.30239 0.68369 0.66552 0.0
H690 H 0.31571 0.71099 0.60934 0.0
H691 H 0.33922 0.63116 0.6054 0.0
C692 C 0.27556 0.83143 0.62946 0.0
C693 C 0.24721 0.8359 0.64205 0.0
C694 C 0.29648 0.79 0.6287 0.0
C695 C 0.28866 0.75159 0.64018 0.0
C696 C 0.26128 0.75751 0.6533 0.0
C697 C 0.24132 0.79936 0.65439 0.0
C698 C 0.3205 0.62624 0.64961 0.0
C699 C 0.33115 0.61007 0.63277 0.0
C700 C 0.3095 0.67294 0.65218 0.0
C701 C 0.30652 0.70438 0.63778 0.0
C702 C 0.31782 0.68845 0.6209 0.0
C703 C 0.33056 0.64209 0.6185 0.0
H704 H 0.86705 0.36577 0.64581 0.0
H705 H 0.78528 0.39285 0.60546 0.0
H706 H 0.84606 0.28238 0.64725 0.0
H707 H 0.76579 0.30971 0.60626 0.0
H708 H 0.7529 0.15399 0.60263 0.0
H709 H 0.79217 0.2248 0.60077 0.0
H710 H 0.7801 0.24716 0.65709 0.0
H711 H 0.74033 0.17626 0.6591 0.0
C712 C 0.8451 0.35366 0.63706 0.0
C713 C 0.82775 0.3856 0.62552 0.0
C714 C 0.83327 0.30614 0.63785 0.0
C715 C 0.80457 0.28981 0.62679 0.0
C716 C 0.78845 0.32131 0.61471 0.0
C717 C 0.79971 0.36884 0.61419 0.0
C718 C 0.75917 0.17328 0.61473 0.0
C719 C 0.74274 0.16015 0.63096 0.0
C720 C 0.78172 0.21375 0.61362 0.0
C721 C 0.78863 0.24153 0.62873 0.0
C722 C 0.77517 0.2261 0.64526 0.0
C723 C 0.75229 0.18568 0.64638 0.0
H724 H 0.27001 0.33041 0.66618 0.0
H725 H 0.24668 0.33274 0.60994 0.0
H726 H 0.23111 0.25925 0.66926 0.0
H727 H 0.20953 0.26105 0.61286 0.0
H728 H 0.13852 0.1331 0.62117 0.0
H729 H 0.15798 0.21679 0.62297 0.0
H730 H 0.24201 0.1793 0.66114 0.0
H731 H 0.22142 0.09666 0.65972 0.0
C732 C 0.25613 0.31628 0.65454 0.0
C733 C 0.26212 0.33666 0.63776 0.0
C734 C 0.23406 0.27528 0.65628 0.0
C735 C 0.21785 0.25372 0.64125 0.0
C736 C 0.22135 0.27658 0.62476 0.0
C737 C 0.24304 0.31769 0.62306 0.0
C738 C 0.16075 0.1433 0.6301 0.0
C739 C 0.17856 0.10895 0.64031 0.0
C740 C 0.17197 0.19101 0.63113 0.0
C741 C 0.20163 0.20491 0.64219 0.0
C742 C 0.21859 0.1703 0.65277 0.0
C743 C 0.20708 0.12285 0.65186 0.0
H744 H 0.78372 0.59327 0.86717 0.0
H745 H 0.87295 0.63175 0.90261 0.0
H746 H 0.76197 0.67469 0.86778 0.0
H747 H 0.85086 0.7139 0.90348 0.0
H748 H 0.75549 0.82055 0.91982 0.0
H749 H 0.79383 0.75074 0.91611 0.0
H750 H 0.77833 0.75755 0.85937 0.0
H751 H 0.73959 0.82691 0.86301 0.0
C752 C 0.79911 0.61957 0.87479 0.0
C753 C 0.83 0.60659 0.88479 0.0
C754 C 0.78676 0.6662 0.87512 0.0
C755 C 0.80488 0.70071 0.8856 0.0
C756 C 0.83636 0.68793 0.89533 0.0
C757 C 0.84893 0.64117 0.89486 0.0
C758 C 0.76089 0.80783 0.90651 0.0
C759 C 0.7438 0.82863 0.89174 0.0
C760 C 0.78306 0.76798 0.90439 0.0
C761 C 0.78852 0.74834 0.88747 0.0
C762 C 0.77397 0.77151 0.8726 0.0
C763 C 0.75184 0.81128 0.8747 0.0
H764 H 0.14568 0.86402 0.86639 0.0
H765 H 0.20692 0.88798 0.91483 0.0
H766 H 0.16574 0.78087 0.86613 0.0
H767 H 0.22537 0.80536 0.91498 0.0
H768 H 0.23256 0.65107 0.9197 0.0
H769 H 0.19543 0.72224 0.91749 0.0
H770 H 0.23111 0.74183 0.86332 0.0
H771 H 0.26847 0.67032 0.86541 0.0
C772 C 0.16301 0.85136 0.87705 0.0
C773 C 0.17433 0.88217 0.89077 0.0
C774 C 0.17428 0.80395 0.87693 0.0
C775 C 0.19653 0.78666 0.89069 0.0
C776 C 0.2074 0.81745 0.90446 0.0
C777 C 0.1967 0.86475 0.90442 0.0
C778 C 0.23187 0.66979 0.90715 0.0
C779 C 0.2542 0.65573 0.89287 0.0
C780 C 0.21058 0.71052 0.90592 0.0
C781 C 0.21106 0.73785 0.89037 0.0
C782 C 0.23033 0.72129 0.87547 0.0
C783 C 0.25179 0.68044 0.8767 0.0
H784 H 0.21094 0.59261 0.37738 0.0
H785 H 0.14991 0.61998 0.42543 0.0
H786 H 0.22843 0.67595 0.37541 0.0
H787 H 0.16791 0.70449 0.42363 0.0
H788 H 0.26486 0.82115 0.42463 0.0
H789 H 0.22724 0.74901 0.42674 0.0
H790 H 0.20463 0.75603 0.37055 0.0
H791 H 0.24306 0.82767 0.36828 0.0
C792 C 0.20057 0.61683 0.38732 0.0
C793 C 0.17874 0.60015 0.40143 0.0
C794 C 0.21048 0.66466 0.38617 0.0
C795 C 0.19906 0.69695 0.39922 0.0
C796 C 0.17699 0.68036 0.41336 0.0
C797 C 0.16684 0.63221 0.41444 0.0
C798 C 0.25119 0.80801 0.41278 0.0
C799 C 0.25781 0.82936 0.39618 0.0
C800 C 0.22938 0.76679 0.41403 0.0
C801 C 0.21369 0.74637 0.39874 0.0
C802 C 0.21714 0.77049 0.38249 0.0
C803 C 0.23907 0.81158 0.3812 0.0
H804 H 0.85235 0.86446 0.42467 0.0
H805 H 0.79019 0.89424 0.37722 0.0
H806 H 0.83487 0.77992 0.42215 0.0
H807 H 0.77275 0.81099 0.37465 0.0
H808 H 0.7568 0.66001 0.36637 0.0
H809 H 0.79503 0.73185 0.36872 0.0
H810 H 0.77768 0.73374 0.42543 0.0
H811 H 0.7406 0.66133 0.42322 0.0
C812 C 0.83518 0.85274 0.41368 0.0
C813 C 0.82289 0.88542 0.40103 0.0
C814 C 0.8253 0.80458 0.41219 0.0
C815 C 0.80292 0.78865 0.39803 0.0
C816 C 0.79096 0.82168 0.38539 0.0
C817 C 0.80077 0.86948 0.3869 0.0
C818 C 0.76195 0.67503 0.37939 0.0
C819 C 0.74485 0.6557 0.39454 0.0
C820 C 0.78372 0.71628 0.38073 0.0
C821 C 0.78853 0.7391 0.3972 0.0
C822 C 0.7745 0.7171 0.41254 0.0
C823 C 0.75297 0.67567 0.41123 0.0
H824 H 0.23397 0.13792 0.11917 0.0
H825 H 0.30412 0.20157 0.15923 0.0
H826 H 0.19671 0.20952 0.11847 0.0
H827 H 0.26945 0.27406 0.15763 0.0
H828 H 0.19713 0.39604 0.15931 0.0
H829 H 0.2192 0.31667 0.16334 0.0
H830 H 0.19648 0.28598 0.10808 0.0
H831 H 0.16885 0.36394 0.10493 0.0
C832 C 0.24119 0.16722 0.12791 0.0
C833 C 0.27176 0.16423 0.13931 0.0
C834 C 0.22017 0.20856 0.12737 0.0
C835 C 0.22997 0.24829 0.13786 0.0
C836 C 0.26009 0.2443 0.14962 0.0
C837 C 0.28029 0.20258 0.15053 0.0
C838 C 0.19521 0.37188 0.14819 0.0
C839 C 0.18059 0.38639 0.13185 0.0
C840 C 0.20902 0.32634 0.15036 0.0
C841 C 0.21054 0.29454 0.13599 0.0
C842 C 0.19553 0.30889 0.1196 0.0
C843 C 0.18029 0.35408 0.11764 0.0
H844 H 0.77577 0.35775 0.11591 0.0
H845 H 0.70878 0.29812 0.15798 0.0
H846 H 0.81301 0.2861 0.1155 0.0
H847 H 0.74304 0.22563 0.15665 0.0
H848 H 0.81085 0.10111 0.15773 0.0
H849 H 0.79216 0.18174 0.16169 0.0
H850 H 0.81316 0.20918 0.10605 0.0
H851 H 0.83833 0.12983 0.10301 0.0
C852 C 0.7693 0.32943 0.12518 0.0
C853 C 0.73953 0.33355 0.13703 0.0
C854 C 0.79028 0.28798 0.1248 0.0
C855 C 0.78118 0.24922 0.13591 0.0
C856 C 0.75202 0.25454 0.14815 0.0
C857 C 0.73196 0.29636 0.1489 0.0
C858 C 0.81334 0.12472 0.1465 0.0
C859 C 0.82666 0.10871 0.13008 0.0
C860 C 0.80132 0.17112 0.14863 0.0
C861 C 0.79993 0.2024 0.13412 0.0
C862 C 0.81391 0.18672 0.11767 0.0
C863 C 0.82768 0.14066 0.11578 0.0
H864 H 0.28266 0.97064 0.04153 0.0
H865 H 0.27431 0.12184 0.04948 0.0
H866 H 0.24089 0.97519 0.0162 0.0
H867 H 0.23466 0.12762 0.02349 0.0
H868 H 0.14599 0.12636 0.98231 0.0
H869 H 0.17808 0.11471 1.01037 0.0
H870 H 0.23774 -0.00225 0.98716 0.0
H871 H 0.20381 0.00753 0.95975 0.0
C872 C 0.27194 0.00492 0.03771 0.0
C873 C 0.28137 0.04582 0.04743 0.0
C874 C 0.24819 0.00774 0.02311 0.0
C875 C 0.2342 0.05186 0.01757 0.0
C876 C 0.24392 0.09279 0.02745 0.0
C877 C 0.26694 0.08969 0.04229 0.0
C878 C 0.16548 0.09763 0.98339 0.0
C879 C 0.17234 0.06792 0.96882 0.0
C880 C 0.18429 0.09121 0.99942 0.0
C881 C 0.21113 0.05563 1.00115 0.0
C882 C 0.217 0.02505 0.98664 0.0
C883 C 0.19759 0.0308 0.97078 0.0
H884 H 0.8407 0.34741 0.9742 0.0
H885 H 0.80255 0.48388 0.95607 0.0
H886 H 0.80831 0.35897 1.00239 0.0
H887 H 0.76971 0.49476 0.98406 0.0
H888 H 0.67501 0.45368 0.02424 0.0
H889 H 0.71299 0.44758 0.99755 0.0
H890 H 0.80868 0.41901 0.02975 0.0
H891 H 0.77135 0.42772 0.05651 0.0
C892 C 0.82582 0.38008 0.97631 0.0
C893 C 0.82414 0.41465 0.96288 0.0
C894 C 0.80735 0.38668 0.99243 0.0
C895 C 0.78627 0.42755 0.9953 0.0
C896 C 0.7855 0.46274 0.98211 0.0
C897 C 0.80453 0.45659 0.96614 0.0
C898 C 0.70416 0.44617 0.02567 0.0
C899 C 0.71974 0.43949 0.04256 0.0
C900 C 0.72589 0.44281 1.01038 0.0
C901 C 0.76367 0.4324 1.01161 0.0
C902 C 0.77946 0.42623 0.02844 0.0
C903 C 0.75786 0.43051 0.04377 0.0
H904 H 0.37864 0.98175 0.48422 0.0
H905 H 0.2956 0.8915 0.45966 0.0
H906 H 0.34113 0.98485 0.51124 0.0
H907 H 0.25918 0.8927 0.48662 0.0
H908 H 0.18159 0.9435 0.52881 0.0
H909 H 0.22099 0.94309 0.50269 0.0
H910 H 0.31792 0.94328 0.53627 0.0
H911 H 0.27831 0.94747 0.56236 0.0
C912 C 0.35265 0.9621 0.48468 0.0
C913 C 0.33995 0.93679 0.46975 0.0
C914 C 0.33116 0.96369 0.50018 0.0
C915 C 0.29674 0.93949 0.50113 0.0
C916 C 0.28489 0.91295 0.48631 0.0
C917 C 0.306 0.91194 0.47083 0.0
C918 C 0.21132 0.94347 0.53062 0.0
C919 C 0.22669 0.94373 0.54772 0.0
C920 C 0.23402 0.94277 0.51562 0.0
C921 C 0.27282 0.94212 0.51727 0.0
C922 C 0.28823 0.94363 0.53441 0.0
C923 C 0.26544 0.94492 0.54943 0.0
H924 H 0.7399 0.60757 0.5528 0.0
H925 H 0.80388 0.49517 0.52958 0.0
H926 H 0.6953 0.60103 0.52838 0.0
H927 H 0.75881 0.48793 0.50535 0.0
H928 H 0.64853 0.46491 0.4739 0.0
H929 H 0.68476 0.46758 0.50149 0.0
H930 H 0.70686 0.61718 0.49339 0.0
H931 H 0.67177 0.61427 0.46567 0.0
C932 C 0.74397 0.58083 0.54267 0.0
C933 C 0.77514 0.55162 0.5431 0.0
C934 C 0.71859 0.57726 0.5287 0.0
C935 C 0.72352 0.54373 0.51511 0.0
C936 C 0.75416 0.51365 0.5158 0.0
C937 C 0.78001 0.518 0.52955 0.0
C938 C 0.6605 0.4985 0.47824 0.0
C939 C 0.65729 0.53943 0.46771 0.0
C940 C 0.68141 0.49993 0.49391 0.0
C941 C 0.69854 0.54259 0.49951 0.0
C942 C 0.69372 0.58395 0.48942 0.0
C943 C 0.67369 0.58225 0.47358 0.0
H944 H 0.65639 0.89496 0.9925 0.0
H945 H 0.74319 0.95895 0.96075 0.0
H946 H 0.69458 0.9048 0.01893 0.0
H947 H 0.78205 0.96681 0.98694 0.0
H948 H 0.83278 0.00995 0.04026 0.0
H949 H 0.7933 0.00581 0.01402 0.0
H950 H 0.74654 0.87255 0.03266 0.0
H951 H 0.78477 0.87783 0.05908 0.0
C952 C 0.68364 0.9111 0.99115 0.0
C953 C 0.69669 0.926 0.97448 0.0
C954 C 0.70578 0.91638 1.0063 0.0
C955 C 0.7418 0.93612 1.00516 0.0
C956 C 0.75444 0.95197 0.98849 0.0
C957 C 0.73213 0.94723 0.97339 0.0
C958 C 0.8142 0.97967 0.03867 0.0
C959 C 0.81194 0.9443 0.0518 0.0
C960 C 0.79154 0.97718 0.02358 0.0
C961 C 0.76629 0.939 0.02116 0.0
C962 C 0.76481 0.90314 0.03417 0.0
C963 C 0.78711 0.9059 0.04929 0.0
H964 H 0.20446 0.61678 0.05722 0.0
H965 H 0.17553 0.47001 0.04644 0.0
H966 H 0.24386 0.61865 0.03091 0.0
H967 H 0.2155 0.47182 0.02015 0.0
H968 H 0.32734 0.48399 0.98854 0.0
H969 H 0.28651 0.48179 0.01452 0.0
H970 H 0.2357 0.61162 0.9972 0.0
H971 H 0.27599 0.6136 0.97121 0.0
C972 C 0.20629 0.58501 0.04914 0.0
C973 C 0.18674 0.5433 0.05387 0.0
C974 C 0.22885 0.58612 0.03408 0.0
C975 C 0.23292 0.54532 0.02354 0.0
C976 C 0.21312 0.50368 0.02813 0.0
C977 C 0.18997 0.5028 0.04306 0.0
C978 C 0.30768 0.51225 0.99037 0.0
C979 C 0.305 0.54906 0.97786 0.0
C980 C 0.28408 0.51072 1.00514 0.0
C981 C 0.25784 0.54645 1.00784 0.0
C982 C 0.25574 0.58372 0.99551 0.0
C983 C 0.27881 0.58479 0.98062 0.0
H984 H 0.71215 0.10619 0.55955 0.0
H985 H 0.66799 0.97009 0.54252 0.0
H986 H 0.7528 0.10858 0.53368 0.0
H987 H 0.70947 0.97218 0.5167 0.0
H988 H 0.82403 0.97615 0.48617 0.0
H989 H 0.78301 0.97291 0.51211 0.0
H990 H 0.74248 0.11221 0.49926 0.0
H991 H 0.78272 0.11514 0.47322 0.0
C992 C 0.71106 0.07681 0.55025 0.0
C993 C 0.68673 0.03802 0.55304 0.0
C994 C 0.73432 0.07825 0.53544 0.0
C995 C 0.73439 0.04049 0.52324 0.0
C996 C 0.71013 0.0016 0.52599 0.0
C997 C 0.68621 0.00061 0.54065 0.0
C998 C 0.80663 0.00624 0.489 0.0
C999 C 0.80673 0.04601 0.47771 0.0
C1000 C 0.78292 0.00416 0.50373 0.0
C1001 C 0.75949 0.04224 0.50764 0.0
C1002 C 0.76031 0.08242 0.49659 0.0
C1003 C 0.78336 0.08408 0.48169 0.0
H1004 H 0.29285 0.37808 0.55848 0.0
H1005 H 0.32338 0.52307 0.54562 0.0
H1006 H 0.25317 0.37424 0.53229 0.0
H1007 H 0.2831 0.5193 0.51946 0.0
H1008 H 0.17164 0.50551 0.48766 0.0
H1009 H 0.21185 0.50968 0.51384 0.0
H1010 H 0.26202 0.37762 0.49847 0.0
H1011 H 0.22239 0.37369 0.47227 0.0
C1012 C 0.29125 0.40907 0.55 0.0
C1013 C 0.31141 0.45083 0.55408 0.0
C1014 C 0.26854 0.40681 0.535 0.0
C1015 C 0.26489 0.44653 0.52389 0.0
C1016 C 0.28515 0.48828 0.52789 0.0
C1017 C 0.30846 0.49027 0.54275 0.0
C1018 C 0.191 0.47717 0.48998 0.0
C1019 C 0.19373 0.43918 0.47793 0.0
C1020 C 0.21424 0.47981 0.50485 0.0
C1021 C 0.24015 0.44406 0.50814 0.0
C1022 C 0.24223 0.40558 0.49632 0.0
C1023 C 0.21954 0.40338 0.48131 0.0
H1024 H 0.40037 0.04943 0.21137 0.0
H1025 H 0.28143 0.03201 0.21324 0.0
H1026 H 0.40443 0.02029 0.24201 0.0
H1027 H 0.28566 0.00296 0.2435 0.0
H1028 H 0.30767 0.89724 0.28648 0.0
H1029 H 0.31244 0.92716 0.25632 0.0
H1030 H 0.38219 0.0432 0.27444 0.0
H1031 H 0.37694 0.01361 0.30495 0.0
C1032 C 0.37513 0.03978 0.21833 0.0
C1033 C 0.34058 0.04282 0.20981 0.0
C1034 C 0.3775 0.02322 0.23585 0.0
C1035 C 0.34541 0.00882 0.24503 0.0
C1036 C 0.31092 0.01309 0.23665 0.0
C1037 C 0.30851 0.03001 0.21931 0.0
C1038 C 0.32449 0.9288 0.28407 0.0
C1039 C 0.34193 0.95295 0.29817 0.0
C1040 C 0.32709 0.946 0.26678 0.0
C1041 C 0.34723 0.98786 0.26308 0.0
C1042 C 0.36657 0.01071 0.27694 0.0
C1043 C 0.36379 0.99352 0.2944 0.0
H1044 H 0.72723 0.45314 0.21165 0.0
H1045 H 0.60813 0.4575 0.2073 0.0
H1046 H 0.72348 0.48219 0.24192 0.0
H1047 H 0.60447 0.48723 0.23783 0.0
H1048 H 0.62104 0.48979 0.30058 0.0
H1049 H 0.61682 0.46341 0.26965 0.0
H1050 H 0.70771 0.55786 0.25599 0.0
H1051 H 0.71194 0.58391 0.2867 0.0
C1052 C 0.70018 0.46017 0.21715 0.0
C1053 C 0.668 0.45318 0.20698 0.0
C1054 C 0.69805 0.4772 0.2345 0.0
C1055 C 0.66371 0.48774 0.2422 0.0
C1056 C 0.63133 0.47942 0.23227 0.0
C1057 C 0.63346 0.46245 0.21479 0.0
C1058 C 0.63929 0.50597 0.29087 0.0
C1059 C 0.66677 0.53905 0.29607 0.0
C1060 C 0.63706 0.49061 0.27317 0.0
C1061 C 0.66237 0.50793 0.26044 0.0
C1062 C 0.68836 0.54298 0.26554 0.0
C1063 C 0.69061 0.55816 0.28312 0.0
H1064 H 0.63082 0.88509 0.79256 0.0
H1065 H 0.59706 0.01602 0.81712 0.0
H1066 H 0.61823 0.91823 0.76341 0.0
H1067 H 0.58373 0.04924 0.78788 0.0
H1068 H 0.64369 0.10517 0.73589 0.0
H1069 H 0.62882 0.07404 0.76518 0.0
H1070 H 0.57607 0.95112 0.74114 0.0
H1071 H 0.59168 0.98214 0.71175 0.0
C1072 C 0.61929 0.92036 0.79172 0.0
C1073 C 0.6146 0.94779 0.8071 0.0
C1074 C 0.61191 0.93936 0.77501 0.0
C1075 C 0.60016 0.98655 0.77327 0.0
C1076 C 0.59293 0.01285 0.78877 0.0
C1077 C 0.60005 0.9936 0.80555 0.0
C1078 C 0.62792 0.07219 0.73686 0.0
C1079 C 0.61868 0.04627 0.72152 0.0
C1080 C 0.61916 0.05444 0.75366 0.0
C1081 C 0.60135 0.00993 0.75554 0.0
C1082 C 0.58994 0.98542 0.74014 0.0
C1083 C 0.59846 0.00348 0.72327 0.0
H1084 H 0.40764 0.40667 0.72482 0.0
H1085 H 0.3654 0.54869 0.72021 0.0
H1086 H 0.42046 0.42084 0.75641 0.0
H1087 H 0.37841 0.56313 0.75147 0.0
H1088 H 0.35497 0.44514 0.8109 0.0
H1089 H 0.37155 0.42994 0.78012 0.0
H1090 H 0.42378 0.56882 0.77696 0.0
H1091 H 0.40729 0.58376 0.80808 0.0
C1092 C 0.40247 0.44144 0.73041 0.0
C1093 C 0.38547 0.47657 0.72019 0.0
C1094 C 0.40957 0.44949 0.74847 0.0
C1095 C 0.4003 0.49306 0.75645 0.0
C1096 C 0.38627 0.52943 0.74574 0.0
C1097 C 0.37861 0.52109 0.72785 0.0
C1098 C 0.37104 0.4718 0.80378 0.0
C1099 C 0.37979 0.51564 0.81178 0.0
C1100 C 0.38078 0.46299 0.78618 0.0
C1101 C 0.39888 0.49823 0.77607 0.0
C1102 C 0.40978 0.54103 0.78444 0.0
C1103 C 0.40056 0.54951 0.80223 0.0
H1104 H 0.89642 0.5094 0.80112 0.0
H1105 H 0.81524 0.40907 0.78094 0.0
H1106 H 0.90648 0.53984 0.77108 0.0
H1107 H 0.8243 0.4402 0.7512 0.0
H1108 H 0.86366 0.48145 0.69721 0.0
H1109 H 0.8664 0.44662 0.72666 0.0
H1110 H 0.87152 0.58716 0.74978 0.0
H1111 H 0.86962 0.62217 0.72015 0.0
C1112 C 0.88149 0.49293 0.79025 0.0
C1113 C 0.85542 0.45631 0.79338 0.0
C1114 C 0.88678 0.51094 0.77306 0.0
C1115 C 0.86616 0.49257 0.75869 0.0
C1116 C 0.84108 0.45482 0.76184 0.0
C1117 C 0.83573 0.43708 0.77894 0.0
C1118 C 0.86561 0.50504 0.70853 0.0
C1119 C 0.86601 0.55468 0.70628 0.0
C1120 C 0.8671 0.485 0.72546 0.0
C1121 C 0.86886 0.51402 0.74064 0.0
C1122 C 0.87054 0.5637 0.73839 0.0
C1123 C 0.86916 0.5838 0.7214 0.0
H1124 H 0.13538 0.95931 0.81043 0.0
H1125 H 0.1685 0.09195 0.78597 0.0
H1126 H 0.12717 0.92343 0.78109 0.0
H1127 H 0.16099 0.05612 0.75675 0.0
H1128 H 0.12034 0.99063 0.70607 0.0
H1129 H 0.11513 0.02296 0.73589 0.0
H1130 H 0.17039 0.90014 0.75688 0.0
H1131 H 0.17543 0.86742 0.72696 0.0
C1132 C 0.13982 0.9812 0.79882 0.0
C1133 C 0.152 0.02868 0.80048 0.0
C1134 C 0.13569 0.96044 0.78201 0.0
C1135 C 0.14343 0.98691 0.76658 0.0
C1136 C 0.15431 0.03489 0.76832 0.0
C1137 C 0.15877 0.05539 0.78507 0.0
C1138 C 0.13117 0.97025 0.71702 0.0
C1139 C 0.14876 0.92667 0.71406 0.0
C1140 C 0.1282 0.98887 0.73413 0.0
C1141 C 0.1426 0.96433 0.74874 0.0
C1142 C 0.15874 0.91975 0.74592 0.0
C1143 C 0.16183 0.90114 0.72875 0.0
H1144 H 0.15308 0.53745 0.31112 0.0
H1145 H 0.10247 0.39812 0.30664 0.0
H1146 H 0.13632 0.55481 0.28053 0.0
H1147 H 0.08599 0.41516 0.27567 0.0
H1148 H 0.09889 0.5817 0.22561 0.0
H1149 H 0.08622 0.5642 0.25699 0.0
H1150 H 0.13248 0.42463 0.25034 0.0
H1151 H 0.14549 0.44248 0.21931 0.0
C1152 C 0.13737 0.51107 0.30367 0.0
C1153 C 0.12912 0.46645 0.31113 0.0
C1154 C 0.12754 0.5211 0.28619 0.0
C1155 C 0.10991 0.48632 0.27567 0.0
C1156 C 0.09957 0.44262 0.2835 0.0
C1157 C 0.10882 0.43292 0.30118 0.0
C1158 C 0.10505 0.54678 0.23078 0.0
C1159 C 0.12323 0.51344 0.22018 0.0
C1160 C 0.098 0.53682 0.24871 0.0
C1161 C 0.10847 0.49308 0.25613 0.0
C1162 C 0.1237 0.45839 0.24501 0.0
C1163 C 0.13135 0.46868 0.22727 0.0
H1164 H 0.84635 0.94854 0.31021 0.0
H1165 H 0.89878 0.08697 0.30665 0.0
H1166 H 0.86211 0.93259 0.27938 0.0
H1167 H 0.91438 0.0713 0.27547 0.0
H1168 H 0.85497 0.0494 0.21901 0.0
H1169 H 0.86811 0.06471 0.2502 0.0
H1170 H 0.91103 0.92297 0.25554 0.0
H1171 H 0.8981 0.90793 0.22401 0.0
C1172 C 0.86223 0.97502 0.30291 0.0
C1173 C 0.87129 0.019 0.31072 0.0
C1174 C 0.87149 0.96577 0.28529 0.0
C1175 C 0.8894 0.00073 0.27496 0.0
C1176 C 0.90054 0.04372 0.28312 0.0
C1177 C 0.89182 0.05263 0.30094 0.0
C1178 C 0.86835 0.02209 0.22672 0.0
C1179 C 0.87547 0.97749 0.21918 0.0
C1180 C 0.8761 0.03093 0.24456 0.0
C1181 C 0.89048 -0.00501 0.25536 0.0
C1182 C 0.8999 0.9513 0.24752 0.0
C1183 C 0.89272 0.94275 0.2295 0.0
H1184 H 0.58436 0.31981 0.09782 0.0
H1185 H 0.54422 0.35375 0.15029 0.0
H1186 H 0.54073 0.2524 0.09638 0.0
H1187 H 0.50084 0.28714 0.14873 0.0
H1188 H 0.4277 0.16333 0.09874 0.0
H1189 H 0.47251 0.22913 0.09636 0.0
H1190 H 0.51078 0.20002 0.14944 0.0
H1191 H 0.46609 0.13498 0.15195 0.0
C1192 C 0.56576 0.31356 0.10887 0.0
C1193 C 0.5681 0.34178 0.12427 0.0
C1194 C 0.5409 0.27489 0.10805 0.0
C1195 C 0.5181 0.26388 0.12262 0.0
C1196 C 0.51884 0.29397 0.1375 0.0
C1197 C 0.54352 0.33241 0.13832 0.0
C1198 C 0.44623 0.17036 0.10976 0.0
C1199 C 0.44294 0.14436 0.12565 0.0
C1200 C 0.4718 0.2081 0.10838 0.0
C1201 C 0.49442 0.22039 0.12288 0.0
C1202 C 0.49294 0.19217 0.13823 0.0
C1203 C 0.46751 0.15465 0.13961 0.0
H1204 H 0.42208 0.81328 0.36148 0.0
H1205 H 0.45445 0.84714 0.41525 0.0
H1206 H 0.46763 0.75052 0.3606 0.0
H1207 H 0.50099 0.78563 0.41415 0.0
H1208 H 0.5517 0.64017 0.41472 0.0
H1209 H 0.50503 0.70163 0.41447 0.0
H1210 H 0.53137 0.73296 0.35974 0.0
H1211 H 0.57696 0.67028 0.35979 0.0
C1212 C 0.4394 0.80797 0.373 0.0
C1213 C 0.43446 0.83514 0.38847 0.0
C1214 C 0.46561 0.77193 0.37249 0.0
C1215 C 0.48779 0.76249 0.38738 0.0
C1216 C 0.48379 0.79098 0.40259 0.0
C1217 C 0.45733 0.82667 0.40317 0.0
C1218 C 0.54724 0.6598 0.40257 0.0
C1219 C 0.56816 0.65029 0.3873 0.0
C1220 C 0.52072 0.69545 0.40247 0.0
C1221 C 0.51471 0.72286 0.38716 0.0
C1222 C 0.53494 0.7124 0.37173 0.0
C1223 C 0.5612 0.67641 0.37178 0.0
H1224 H 0.54531 0.85209 0.88021 0.0
H1225 H 0.58114 0.81735 0.93326 0.0
H1226 H 0.49734 0.79094 0.88198 0.0
H1227 H 0.53309 0.75514 0.9349 0.0
H1228 H 0.4181 0.67476 0.93406 0.0
H1229 H 0.46545 0.73778 0.93529 0.0
H1230 H 0.498 0.70455 0.88163 0.0
H1231 H 0.45067 0.64251 0.88025 0.0
C1232 C 0.54279 0.83163 0.89233 0.0
C1233 C 0.56738 0.83933 0.90652 0.0
C1234 C 0.51542 0.79626 0.89328 0.0
C1235 C 0.51192 0.7674 0.90842 0.0
C1236 C 0.53512 0.77672 0.92304 0.0
C1237 C 0.56261 0.81239 0.9221 0.0
C1238 C 0.43568 0.68054 0.92261 0.0
C1239 C 0.43027 0.65383 0.90699 0.0
C1240 C 0.46281 0.71667 0.92333 0.0
C1241 C 0.48502 0.7268 0.90845 0.0
C1242 C 0.48071 0.69854 0.89317 0.0
C1243 C 0.4537 0.66264 0.89244 0.0
H1244 H 0.46079 0.35478 0.6497 0.0
H1245 H 0.42013 0.31687 0.59759 0.0
H1246 H 0.50528 0.29111 0.64813 0.0
H1247 H 0.46443 0.2521 0.5962 0.0
H1248 H 0.54793 0.14299 0.65091 0.0
H1249 H 0.50253 0.20568 0.64968 0.0
H1250 H 0.52987 0.23115 0.59468 0.0
H1251 H 0.575 0.16734 0.59579 0.0
C1252 C 0.46148 0.33305 0.63783 0.0
C1253 C 0.43664 0.34082 0.62383 0.0
C1254 C 0.48681 0.29616 0.63701 0.0
C1255 C 0.48793 0.26575 0.6222 0.0
C1256 C 0.46431 0.27482 0.6078 0.0
C1257 C 0.43894 0.31202 0.6086 0.0
C1258 C 0.54402 0.16148 0.63847 0.0
C1259 C 0.56539 0.15031 0.62349 0.0
C1260 C 0.51818 0.19781 0.6378 0.0
C1261 C 0.5131 0.22425 0.62219 0.0
C1262 C 0.53308 0.21154 0.60693 0.0
C1263 C 0.55893 0.1749 0.60756 0.0
H1264 H 0.94946 0.64611 0.59956 0.0
H1265 H 0.92632 0.67515 0.65471 0.0
H1266 H 0.99899 0.70636 0.60002 0.0
H1267 H 0.97381 0.73651 0.65495 0.0
H1268 H 0.08357 0.80921 0.65716 0.0
H1269 H 0.03717 0.74688 0.65511 0.0
H1270 H 0.01262 0.78939 0.60131 0.0
H1271 H 0.06131 0.85085 0.60312 0.0
C1272 C 0.95496 0.66532 0.61176 0.0
C1273 C 0.93431 0.6554 0.62716 0.0
C1274 C 0.98307 0.7002 0.61198 0.0
C1275 C 0.99068 0.72628 0.62755 0.0
C1276 C 0.96961 0.71643 0.64284 0.0
C1277 C 0.94215 0.68118 0.6427 0.0
C1278 C 0.06817 0.80563 0.6449 0.0
C1279 C 0.07576 0.83546 0.63037 0.0
C1280 C 0.04132 0.76982 0.64373 0.0
C1281 C 0.02056 0.76335 0.62814 0.0
C1282 C 0.02826 0.79303 0.61349 0.0
C1283 C 0.05587 0.82852 0.61455 0.0
H1284 H 0.07528 0.17227 0.91962 0.0
H1285 H 0.05704 0.143 0.86403 0.0
H1286 H 0.0309 0.23592 0.91843 0.0
H1287 H 0.01084 0.20525 0.86299 0.0
H1288 H 0.95655 0.34968 0.86185 0.0
H1289 H 0.00308 0.28783 0.8631 0.0
H1290 H 0.96896 0.25386 0.91667 0.0
H1291 H 0.92424 0.31704 0.9157 0.0
C1292 C 0.06114 0.17875 0.9072 0.0
C1293 C 0.06962 0.15243 0.89193 0.0
C1294 C 0.03551 0.21534 0.90652 0.0
C1295 C 0.01709 0.22607 0.8906 0.0
C1296 C 0.02495 0.19884 0.8754 0.0
C1297 C 0.05114 0.16272 0.87602 0.0
C1298 C 0.95943 0.32935 0.87396 0.0
C1299 C 0.93686 0.33854 0.88871 0.0
C1300 C 0.98582 0.29346 0.87462 0.0
C1301 C 0.98982 0.26539 0.88996 0.0
C1302 C 0.96737 0.2751 0.90474 0.0
C1303 C 0.94153 0.31143 0.90417 0.0
H1304 H 0.06148 0.34117 0.43225 0.0
H1305 H 0.0814 0.30531 0.37739 0.0
H1306 H 0.00998 0.28358 0.43304 0.0
H1307 H 0.03211 0.24648 0.3784 0.0
H1308 H 0.9196 0.18103 0.37748 0.0
H1309 H 0.96873 0.24011 0.37851 0.0
H1310 H 0.99165 0.20219 0.43296 0.0
H1311 H 0.94031 0.14435 0.43216 0.0
C1312 C 0.05496 0.32086 0.42041 0.0
C1313 C 0.07515 0.32834 0.40469 0.0
C1314 C 0.02567 0.28755 0.42088 0.0
C1315 C 0.01641 0.26052 0.40572 0.0
C1316 C 0.03741 0.26747 0.39019 0.0
C1317 C 0.06598 0.30121 0.38963 0.0
C1318 C 0.93517 0.18501 0.38968 0.0
C1319 C 0.9263 0.15755 0.40468 0.0
C1320 C 0.96363 0.2189 0.39026 0.0
C1321 C 0.98482 0.22566 0.40573 0.0
C1322 C 0.97581 0.19836 0.42084 0.0
C1323 C 0.94661 0.1649 0.42036 0.0
H1324 H 0.91915 0.81042 0.15264 0.0
H1325 H 0.94548 0.84763 0.09849 0.0
H1326 H 0.96399 0.74781 0.15186 0.0
H1327 H 0.99287 0.7862 0.09799 0.0
H1328 H 0.05515 0.64422 0.09862 0.0
H1329 H 0.00693 0.70445 0.09753 0.0
H1330 H 0.02607 0.73569 0.15299 0.0
H1331 H 0.07177 0.67428 0.15426 0.0
C1332 C 0.93517 0.80584 0.14062 0.0
C1333 C 0.92906 0.83454 0.1257 0.0
C1334 C 0.9612 0.76986 0.14019 0.0
C1335 C 0.98285 0.76209 0.12497 0.0
C1336 C 0.97663 0.79069 0.10992 0.0
C1337 C 0.94973 0.82625 0.11023 0.0
C1338 C 0.04854 0.66366 0.11059 0.0
C1339 C 0.06692 0.65385 0.12658 0.0
C1340 C 0.02117 0.69857 0.10994 0.0
C1341 C 0.01209 0.72497 0.12521 0.0
C1342 C 0.03114 0.71538 0.14106 0.0
C1343 C 0.05769 0.68006 0.14178 0.0
loop_
_geom_bond_atom_site_label_1
_geom_bond_atom_site_label_2
_geom_bond_distance
_geom_bond_site_symmetry_2
_ccdc_geom_bond_type
Co0 O3 1.970 . S
Co0 N17 1.989 . S
Co0 O25 1.967 . S
Co0 O32 1.920 . S
Co1 O4 1.966 . S
Co1 N10 2.022 . S
Co1 N18 1.993 . S
Co1 O26 1.941 . S
C2 O3 1.258 . S
C2 O4 1.263 . S
O3 Co0 1.970 . S
O3 C2 1.258 . S
O4 Co1 1.966 . S
O4 C2 1.263 . S
C5 O6 1.235 . S
C5 O32 1.289 . S
O6 C5 1.235 . S
C7 C9 1.400 . S
C7 N10 1.351 . S
C7 C12 1.501 . S
C8 C9 1.387 . S
C8 N11 1.341 . S
C9 C7 1.400 . S
C9 C8 1.387 . S
N10 Co1 2.022 . S
N10 C7 1.351 . S
N10 N11 1.365 . S
N11 C8 1.341 . S
N11 N10 1.365 . S
N11 H31 0.862 . S
C12 C7 1.501 . S
C12 H13 0.961 . S
C12 H14 0.961 . S
C12 H15 0.960 . S
H13 C12 0.961 . S
H14 C12 0.961 . S
H15 C12 0.960 . S
C16 N17 1.342 1_565 S
C16 C20 1.401 . S
C16 C21 1.499 . S
N17 Co0 1.989 . S
N17 C16 1.342 1_545 S
N17 N18 1.388 . S
N18 Co1 1.993 . S
N18 N17 1.388 . S
N18 C19 1.346 . S
C19 N18 1.346 . S
C19 C20 1.396 1_545 S
C19 C29 1.510 1_545 S
C20 C16 1.401 . S
C20 C19 1.396 1_565 S
C21 C16 1.499 . S
C21 H22 0.959 1_565 S
C21 H23 0.960 . S
C21 H24 0.961 . S
H22 C21 0.959 1_545 S
H23 C21 0.960 . S
H24 C21 0.961 . S
O25 Co0 1.967 . S
O25 C33 1.258 . S
O26 Co1 1.941 . S
O26 C33 1.266 . S
H27 C29 0.959 . S
H28 C29 0.961 . S
C29 C19 1.510 1_565 S
C29 H27 0.959 . S
C29 H28 0.961 . S
C29 H30 0.960 1_565 S
H30 C29 0.960 1_545 S
H31 N11 0.862 . S
O32 Co0 1.920 . S
O32 C5 1.289 . S
C33 O25 1.258 . S
C33 O26 1.266 . S
Co34 O37 1.970 . S
Co34 N51 1.989 . S
Co34 O59 1.967 . S
Co34 O66 1.920 . S
Co35 O38 1.966 . S
Co35 N44 2.022 . S
Co35 N52 1.993 . S
Co35 O60 1.941 . S
C36 O37 1.258 . S
C36 O38 1.263 . S
O37 Co34 1.970 . S
O37 C36 1.258 . S
O38 Co35 1.966 . S
O38 C36 1.263 . S
C39 O40 1.235 . S
C39 O66 1.289 . S
O40 C39 1.235 . S
C41 C43 1.400 . S
C41 N44 1.351 . S
C41 C46 1.501 . S
C42 C43 1.387 . S
C42 N45 1.341 . S
C43 C41 1.400 . S
C43 C42 1.387 . S
N44 Co35 2.022 . S
N44 C41 1.351 . S
N44 N45 1.365 . S
N45 C42 1.341 . S
N45 N44 1.365 . S
N45 H65 0.862 . S
C46 C41 1.501 . S
C46 H47 0.961 . S
C46 H48 0.961 . S
C46 H49 0.960 . S
H47 C46 0.961 . S
H48 C46 0.961 . S
H49 C46 0.960 . S
C50 N51 1.342 . S
C50 C54 1.401 . S
C50 C55 1.499 . S
N51 Co34 1.989 . S
N51 C50 1.342 . S
N51 N52 1.388 . S
N52 Co35 1.993 . S
N52 N51 1.388 . S
N52 C53 1.346 . S
C53 N52 1.346 . S
C53 C54 1.396 . S
C53 C63 1.510 . S
C54 C50 1.401 . S
C54 C53 1.396 . S
C55 C50 1.499 . S
C55 H56 0.959 . S
C55 H57 0.960 . S
C55 H58 0.961 . S
H56 C55 0.959 . S
H57 C55 0.960 . S
H58 C55 0.961 . S
O59 Co34 1.967 . S
O59 C67 1.258 . S
O60 Co35 1.941 . S
O60 C67 1.266 . S
H61 C63 0.959 . S
H62 C63 0.961 . S
C63 C53 1.510 . S
C63 H61 0.959 . S
C63 H62 0.961 . S
C63 H64 0.960 . S
H64 C63 0.960 . S
H65 N45 0.862 . S
O66 Co34 1.920 . S
O66 C39 1.289 . S
C67 O59 1.258 . S
C67 O60 1.266 . S
Co68 O71 1.970 . S
Co68 N85 1.989 . S
Co68 O93 1.967 . S
Co68 O100 1.920 . S
Co69 O72 1.966 . S
Co69 N78 2.022 . S
Co69 N86 1.993 . S
Co69 O94 1.941 . S
C70 O71 1.258 . S
C70 O72 1.263 . S
O71 Co68 1.970 . S
O71 C70 1.258 . S
O72 Co69 1.966 . S
O72 C70 1.263 . S
C73 O74 1.235 . S
C73 O100 1.289 . S
O74 C73 1.235 . S
C75 C77 1.400 . S
C75 N78 1.351 . S
C75 C80 1.501 . S
C76 C77 1.387 . S
C76 N79 1.341 . S
C77 C75 1.400 . S
C77 C76 1.387 . S
N78 Co69 2.022 . S
N78 C75 1.351 . S
N78 N79 1.365 . S
N79 C76 1.341 . S
N79 N78 1.365 . S
N79 H99 0.862 . S
C80 C75 1.501 . S
C80 H81 0.961 . S
C80 H82 0.961 . S
C80 H83 0.960 . S
H81 C80 0.961 . S
H82 C80 0.961 . S
H83 C80 0.960 . S
C84 N85 1.342 1_545 S
C84 C88 1.401 . S
C84 C89 1.499 . S
N85 Co68 1.989 . S
N85 C84 1.342 1_565 S
N85 N86 1.388 . S
N86 Co69 1.993 . S
N86 N85 1.388 . S
N86 C87 1.346 1_565 S
C87 N86 1.346 1_545 S
C87 C88 1.396 . S
C87 C97 1.510 . S
C88 C84 1.401 . S
C88 C87 1.396 . S
C89 C84 1.499 . S
C89 H90 0.959 1_545 S
C89 H91 0.960 . S
C89 H92 0.961 . S
H90 C89 0.959 1_565 S
H91 C89 0.960 . S
H92 C89 0.961 . S
O93 Co68 1.967 . S
O93 C101 1.258 . S
O94 Co69 1.941 . S
O94 C101 1.266 . S
H95 C97 0.959 . S
H96 C97 0.961 . S
C97 C87 1.510 . S
C97 H95 0.959 . S
C97 H96 0.961 . S
C97 H98 0.960 . S
H98 C97 0.960 . S
H99 N79 0.862 . S
O100 Co68 1.920 . S
O100 C73 1.289 . S
C101 O93 1.258 . S
C101 O94 1.266 . S
Co102 O105 1.970 . S
Co102 N119 1.989 . S
Co102 O127 1.967 . S
Co102 O134 1.920 . S
Co103 O106 1.966 . S
Co103 N112 2.022 . S
Co103 N120 1.993 . S
Co103 O128 1.941 . S
C104 O105 1.258 . S
C104 O106 1.263 . S
O105 Co102 1.970 . S
O105 C104 1.258 . S
O106 Co103 1.966 . S
O106 C104 1.263 . S
C107 O108 1.235 . S
C107 O134 1.289 . S
O108 C107 1.235 . S
C109 C111 1.400 . S
C109 N112 1.351 . S
C109 C114 1.501 . S
C110 C111 1.387 . S
C110 N113 1.341 . S
C111 C109 1.400 . S
C111 C110 1.387 . S
N112 Co103 2.022 . S
N112 C109 1.351 . S
N112 N113 1.365 . S
N113 C110 1.341 . S
N113 N112 1.365 . S
N113 H133 0.862 . S
C114 C109 1.501 . S
C114 H115 0.961 . S
C114 H116 0.961 . S
C114 H117 0.960 . S
H115 C114 0.961 . S
H116 C114 0.961 . S
H117 C114 0.960 . S
C118 N119 1.342 . S
C118 C122 1.401 . S
C118 C123 1.499 . S
N119 Co102 1.989 . S
N119 C118 1.342 . S
N119 N120 1.388 . S
N120 Co103 1.993 . S
N120 N119 1.388 . S
N120 C121 1.346 . S
C121 N120 1.346 . S
C121 C122 1.396 . S
C121 C131 1.510 . S
C122 C118 1.401 . S
C122 C121 1.396 . S
C123 C118 1.499 . S
C123 H124 0.959 . S
C123 H125 0.960 . S
C123 H126 0.961 . S
H124 C123 0.959 . S
H125 C123 0.960 . S
H126 C123 0.961 . S
O127 Co102 1.967 . S
O127 C135 1.258 . S
O128 Co103 1.941 . S
O128 C135 1.266 . S
H129 C131 0.959 . S
H130 C131 0.961 . S
C131 C121 1.510 . S
C131 H129 0.959 . S
C131 H130 0.961 . S
C131 H132 0.960 . S
H132 C131 0.960 . S
H133 N113 0.862 . S
O134 Co102 1.920 . S
O134 C107 1.289 . S
C135 O127 1.258 . S
C135 O128 1.266 . S
Co136 O139 1.970 . S
Co136 N153 1.989 . S
Co136 O161 1.967 . S
Co136 O168 1.920 . S
Co137 O140 1.966 . S
Co137 N146 2.022 . S
Co137 N154 1.993 . S
Co137 O162 1.941 . S
C138 O139 1.258 . S
C138 O140 1.263 . S
O139 Co136 1.970 . S
O139 C138 1.258 . S
O140 Co137 1.966 . S
O140 C138 1.263 . S
C141 O142 1.235 . S
C141 O168 1.289 . S
O142 C141 1.235 . S
C143 C145 1.400 . S
C143 N146 1.351 . S
C143 C148 1.501 . S
C144 C145 1.387 . S
C144 N147 1.341 . S
C145 C143 1.400 . S
C145 C144 1.387 . S
N146 Co137 2.022 . S
N146 C143 1.351 . S
N146 N147 1.365 . S
N147 C144 1.341 . S
N147 N146 1.365 . S
N147 H167 0.862 . S
C148 C143 1.501 . S
C148 H149 0.961 . S
C148 H150 0.961 . S
C148 H151 0.960 . S
H149 C148 0.961 . S
H150 C148 0.961 . S
H151 C148 0.960 . S
C152 N153 1.342 1_545 S
C152 C156 1.401 . S
C152 C157 1.499 . S
N153 Co136 1.989 . S
N153 C152 1.342 1_565 S
N153 N154 1.388 . S
N154 Co137 1.993 . S
N154 N153 1.388 . S
N154 C155 1.346 1_565 S
C155 N154 1.346 1_545 S
C155 C156 1.396 . S
C155 C165 1.510 . S
C156 C152 1.401 . S
C156 C155 1.396 . S
C157 C152 1.499 . S
C157 H158 0.959 1_545 S
C157 H159 0.960 . S
C157 H160 0.961 . S
H158 C157 0.959 1_565 S
H159 C157 0.960 . S
H160 C157 0.961 . S
O161 Co136 1.967 . S
O161 C169 1.258 . S
O162 Co137 1.941 . S
O162 C169 1.266 . S
H163 C165 0.959 . S
H164 C165 0.961 . S
C165 C155 1.510 . S
C165 H163 0.959 . S
C165 H164 0.961 . S
C165 H166 0.960 . S
H166 C165 0.960 . S
H167 N147 0.862 . S
O168 Co136 1.920 . S
O168 C141 1.289 . S
C169 O161 1.258 . S
C169 O162 1.266 . S
Co170 O173 1.970 . S
Co170 N187 1.989 . S
Co170 O195 1.967 . S
Co170 O202 1.920 . S
Co171 O174 1.966 . S
Co171 N180 2.022 . S
Co171 N188 1.993 . S
Co171 O196 1.941 . S
C172 O173 1.258 . S
C172 O174 1.263 . S
O173 Co170 1.970 . S
O173 C172 1.258 . S
O174 Co171 1.966 . S
O174 C172 1.263 . S
C175 O176 1.235 . S
C175 O202 1.289 . S
O176 C175 1.235 . S
C177 C179 1.400 . S
C177 N180 1.351 . S
C177 C182 1.501 . S
C178 C179 1.387 . S
C178 N181 1.341 . S
C179 C177 1.400 . S
C179 C178 1.387 . S
N180 Co171 2.022 . S
N180 C177 1.351 . S
N180 N181 1.365 . S
N181 C178 1.341 . S
N181 N180 1.365 . S
N181 H201 0.862 . S
C182 C177 1.501 . S
C182 H183 0.961 . S
C182 H184 0.961 . S
C182 H185 0.960 . S
H183 C182 0.961 . S
H184 C182 0.961 . S
H185 C182 0.960 . S
C186 N187 1.342 . S
C186 C190 1.401 . S
C186 C191 1.499 . S
N187 Co170 1.989 . S
N187 C186 1.342 . S
N187 N188 1.388 . S
N188 Co171 1.993 . S
N188 N187 1.388 . S
N188 C189 1.346 . S
C189 N188 1.346 . S
C189 C190 1.396 . S
C189 C199 1.510 . S
C190 C186 1.401 . S
C190 C189 1.396 . S
C191 C186 1.499 . S
C191 H192 0.959 . S
C191 H193 0.960 . S
C191 H194 0.961 . S
H192 C191 0.959 . S
H193 C191 0.960 . S
H194 C191 0.961 . S
O195 Co170 1.967 . S
O195 C203 1.258 . S
O196 Co171 1.941 . S
O196 C203 1.266 . S
H197 C199 0.959 . S
H198 C199 0.961 . S
C199 C189 1.510 . S
C199 H197 0.959 . S
C199 H198 0.961 . S
C199 H200 0.960 . S
H200 C199 0.960 . S
H201 N181 0.862 . S
O202 Co170 1.920 . S
O202 C175 1.289 . S
C203 O195 1.258 . S
C203 O196 1.266 . S
Co204 O207 1.970 . S
Co204 N221 1.989 . S
Co204 O229 1.967 . S
Co204 O236 1.920 . S
Co205 O208 1.966 . S
Co205 N214 2.022 . S
Co205 N222 1.993 . S
Co205 O230 1.941 . S
C206 O207 1.258 . S
C206 O208 1.263 . S
O207 Co204 1.970 . S
O207 C206 1.258 . S
O208 Co205 1.966 . S
O208 C206 1.263 . S
C209 O210 1.235 . S
C209 O236 1.289 . S
O210 C209 1.235 . S
C211 C213 1.400 . S
C211 N214 1.351 . S
C211 C216 1.501 . S
C212 C213 1.387 . S
C212 N215 1.341 . S
C213 C211 1.400 . S
C213 C212 1.387 . S
N214 Co205 2.022 . S
N214 C211 1.351 . S
N214 N215 1.365 . S
N215 C212 1.341 . S
N215 N214 1.365 . S
N215 H235 0.862 . S
C216 C211 1.501 . S
C216 H217 0.961 . S
C216 H218 0.961 . S
C216 H219 0.960 . S
H217 C216 0.961 . S
H218 C216 0.961 . S
H219 C216 0.960 . S
C220 N221 1.342 . S
C220 C224 1.401 1_545 S
C220 C225 1.499 . S
N221 Co204 1.989 . S
N221 C220 1.342 . S
N221 N222 1.388 . S
N222 Co205 1.993 . S
N222 N221 1.388 . S
N222 C223 1.346 . S
C223 N222 1.346 . S
C223 C224 1.396 1_545 S
C223 C233 1.510 1_545 S
C224 C220 1.401 1_565 S
C224 C223 1.396 1_565 S
C225 C220 1.499 . S
C225 H226 0.959 . S
C225 H227 0.960 1_545 S
C225 H228 0.961 . S
H226 C225 0.959 . S
H227 C225 0.960 1_565 S
H228 C225 0.961 . S
O229 Co204 1.967 . S
O229 C237 1.258 . S
O230 Co205 1.941 . S
O230 C237 1.266 . S
H231 C233 0.959 . S
H232 C233 0.961 . S
C233 C223 1.510 1_565 S
C233 H231 0.959 . S
C233 H232 0.961 . S
C233 H234 0.960 1_565 S
H234 C233 0.960 1_545 S
H235 N215 0.862 . S
O236 Co204 1.920 . S
O236 C209 1.289 . S
C237 O229 1.258 . S
C237 O230 1.266 . S
Co238 O241 1.970 . S
Co238 N255 1.989 . S
Co238 O263 1.967 . S
Co238 O270 1.920 . S
Co239 O242 1.966 . S
Co239 N248 2.022 . S
Co239 N256 1.993 . S
Co239 O264 1.941 . S
C240 O241 1.258 . S
C240 O242 1.263 . S
O241 Co238 1.970 . S
O241 C240 1.258 . S
O242 Co239 1.966 . S
O242 C240 1.263 . S
C243 O244 1.235 . S
C243 O270 1.289 . S
O244 C243 1.235 . S
C245 C247 1.400 . S
C245 N248 1.351 . S
C245 C250 1.501 . S
C246 C247 1.387 . S
C246 N249 1.341 . S
C247 C245 1.400 . S
C247 C246 1.387 . S
N248 Co239 2.022 . S
N248 C245 1.351 . S
N248 N249 1.365 . S
N249 C246 1.341 . S
N249 N248 1.365 . S
N249 H269 0.862 . S
C250 C245 1.501 . S
C250 H251 0.961 . S
C250 H252 0.961 . S
C250 H253 0.960 . S
H251 C250 0.961 . S
H252 C250 0.961 . S
H253 C250 0.960 . S
C254 N255 1.342 . S
C254 C258 1.401 . S
C254 C259 1.499 . S
N255 Co238 1.989 . S
N255 C254 1.342 . S
N255 N256 1.388 . S
N256 Co239 1.993 . S
N256 N255 1.388 . S
N256 C257 1.346 . S
C257 N256 1.346 . S
C257 C258 1.396 . S
C257 C267 1.510 . S
C258 C254 1.401 . S
C258 C257 1.396 . S
C259 C254 1.499 . S
C259 H260 0.959 . S
C259 H261 0.960 . S
C259 H262 0.961 . S
H260 C259 0.959 . S
H261 C259 0.960 . S
H262 C259 0.961 . S
O263 Co238 1.967 . S
O263 C271 1.258 . S
O264 Co239 1.941 . S
O264 C271 1.266 . S
H265 C267 0.959 . S
H266 C267 0.961 . S
C267 C257 1.510 . S
C267 H265 0.959 . S
C267 H266 0.961 . S
C267 H268 0.960 . S
H268 C267 0.960 . S
H269 N249 0.862 . S
O270 Co238 1.920 . S
O270 C243 1.289 . S
C271 O263 1.258 . S
C271 O264 1.266 . S
Co272 O275 1.970 . S
Co272 N289 1.989 . S
Co272 O297 1.967 . S
Co272 O304 1.920 . S
Co273 O276 1.966 . S
Co273 N282 2.022 . S
Co273 N290 1.993 . S
Co273 O298 1.941 . S
C274 O275 1.258 . S
C274 O276 1.263 . S
O275 Co272 1.970 . S
O275 C274 1.258 . S
O276 Co273 1.966 . S
O276 C274 1.263 . S
C277 O278 1.235 . S
C277 O304 1.289 . S
O278 C277 1.235 . S
C279 C281 1.400 . S
C279 N282 1.351 . S
C279 C284 1.501 . S
C280 C281 1.387 . S
C280 N283 1.341 . S
C281 C279 1.400 . S
C281 C280 1.387 . S
N282 Co273 2.022 . S
N282 C279 1.351 . S
N282 N283 1.365 . S
N283 C280 1.341 . S
N283 N282 1.365 . S
N283 H303 0.862 . S
C284 C279 1.501 . S
C284 H285 0.961 . S
C284 H286 0.961 . S
C284 H287 0.960 . S
H285 C284 0.961 . S
H286 C284 0.961 . S
H287 C284 0.960 . S
C288 N289 1.342 . S
C288 C292 1.401 . S
C288 C293 1.499 . S
N289 Co272 1.989 . S
N289 C288 1.342 . S
N289 N290 1.388 . S
N290 Co273 1.993 . S
N290 N289 1.388 . S
N290 C291 1.346 . S
C291 N290 1.346 . S
C291 C292 1.396 . S
C291 C301 1.510 . S
C292 C288 1.401 . S
C292 C291 1.396 . S
C293 C288 1.499 . S
C293 H294 0.959 . S
C293 H295 0.960 . S
C293 H296 0.961 . S
H294 C293 0.959 . S
H295 C293 0.960 . S
H296 C293 0.961 . S
O297 Co272 1.967 . S
O297 C305 1.258 . S
O298 Co273 1.941 . S
O298 C305 1.266 . S
H299 C301 0.959 . S
H300 C301 0.961 . S
C301 C291 1.510 . S
C301 H299 0.959 . S
C301 H300 0.961 . S
C301 H302 0.960 . S
H302 C301 0.960 . S
H303 N283 0.862 . S
O304 Co272 1.920 . S
O304 C277 1.289 . S
C305 O297 1.258 . S
C305 O298 1.266 . S
Co306 O309 1.970 . S
Co306 N323 1.989 . S
Co306 O331 1.967 . S
Co306 O338 1.920 . S
Co307 O310 1.966 . S
Co307 N316 2.022 . S
Co307 N324 1.993 . S
Co307 O332 1.941 . S
C308 O309 1.258 . S
C308 O310 1.263 . S
O309 Co306 1.970 . S
O309 C308 1.258 . S
O310 Co307 1.966 . S
O310 C308 1.263 . S
C311 O312 1.235 . S
C311 O338 1.289 . S
O312 C311 1.235 . S
C313 C315 1.400 . S
C313 N316 1.351 . S
C313 C318 1.501 . S
C314 C315 1.387 . S
C314 N317 1.341 . S
C315 C313 1.400 . S
C315 C314 1.387 . S
N316 Co307 2.022 . S
N316 C313 1.351 . S
N316 N317 1.365 . S
N317 C314 1.341 . S
N317 N316 1.365 . S
N317 H337 0.862 . S
C318 C313 1.501 . S
C318 H319 0.961 . S
C318 H320 0.961 . S
C318 H321 0.960 . S
H319 C318 0.961 . S
H320 C318 0.961 . S
H321 C318 0.960 . S
C322 N323 1.342 1_545 S
C322 C326 1.401 . S
C322 C327 1.499 . S
N323 Co306 1.989 . S
N323 C322 1.342 1_565 S
N323 N324 1.388 . S
N324 Co307 1.993 . S
N324 N323 1.388 . S
N324 C325 1.346 . S
C325 N324 1.346 . S
C325 C326 1.396 1_565 S
C325 C335 1.510 1_565 S
C326 C322 1.401 . S
C326 C325 1.396 1_545 S
C327 C322 1.499 . S
C327 H328 0.959 1_545 S
C327 H329 0.960 . S
C327 H330 0.961 . S
H328 C327 0.959 1_565 S
H329 C327 0.960 . S
H330 C327 0.961 . S
O331 Co306 1.967 . S
O331 C339 1.258 . S
O332 Co307 1.941 . S
O332 C339 1.266 . S
H333 C335 0.959 . S
H334 C335 0.961 . S
C335 C325 1.510 1_545 S
C335 H333 0.959 . S
C335 H334 0.961 . S
C335 H336 0.960 1_545 S
H336 C335 0.960 1_565 S
H337 N317 0.862 . S
O338 Co306 1.920 . S
O338 C311 1.289 . S
C339 O331 1.258 . S
C339 O332 1.266 . S
Co340 O343 1.970 . S
Co340 N357 1.989 . S
Co340 O365 1.967 . S
Co340 O372 1.920 . S
Co341 O344 1.966 . S
Co341 N350 2.022 . S
Co341 N358 1.993 . S
Co341 O366 1.941 . S
C342 O343 1.258 . S
C342 O344 1.263 . S
O343 Co340 1.970 . S
O343 C342 1.258 . S
O344 Co341 1.966 . S
O344 C342 1.263 . S
C345 O346 1.235 . S
C345 O372 1.289 . S
O346 C345 1.235 . S
C347 C349 1.400 . S
C347 N350 1.351 . S
C347 C352 1.501 . S
C348 C349 1.387 . S
C348 N351 1.341 . S
C349 C347 1.400 . S
C349 C348 1.387 . S
N350 Co341 2.022 . S
N350 C347 1.351 . S
N350 N351 1.365 . S
N351 C348 1.341 . S
N351 N350 1.365 . S
N351 H371 0.862 . S
C352 C347 1.501 . S
C352 H353 0.961 . S
C352 H354 0.961 . S
C352 H355 0.960 . S
H353 C352 0.961 . S
H354 C352 0.961 . S
H355 C352 0.960 . S
C356 N357 1.342 . S
C356 C360 1.401 . S
C356 C361 1.499 . S
N357 Co340 1.989 . S
N357 C356 1.342 . S
N357 N358 1.388 . S
N358 Co341 1.993 . S
N358 N357 1.388 . S
N358 C359 1.346 . S
C359 N358 1.346 . S
C359 C360 1.396 . S
C359 C369 1.510 . S
C360 C356 1.401 . S
C360 C359 1.396 . S
C361 C356 1.499 . S
C361 H362 0.959 . S
C361 H363 0.960 . S
C361 H364 0.961 . S
H362 C361 0.959 . S
H363 C361 0.960 . S
H364 C361 0.961 . S
O365 Co340 1.967 . S
O365 C373 1.258 . S
O366 Co341 1.941 . S
O366 C373 1.266 . S
H367 C369 0.959 . S
H368 C369 0.961 . S
C369 C359 1.510 . S
C369 H367 0.959 . S
C369 H368 0.961 . S
C369 H370 0.960 . S
H370 C369 0.960 . S
H371 N351 0.862 . S
O372 Co340 1.920 . S
O372 C345 1.289 . S
C373 O365 1.258 . S
C373 O366 1.266 . S
Co374 O377 1.970 . S
Co374 N391 1.989 . S
Co374 O399 1.967 . S
Co374 O406 1.920 . S
Co375 O378 1.966 . S
Co375 N384 2.022 . S
Co375 N392 1.993 . S
Co375 O400 1.941 . S
C376 O377 1.258 . S
C376 O378 1.263 . S
O377 Co374 1.970 . S
O377 C376 1.258 . S
O378 Co375 1.966 . S
O378 C376 1.263 . S
C379 O380 1.235 . S
C379 O406 1.289 . S
O380 C379 1.235 . S
C381 C383 1.400 . S
C381 N384 1.351 . S
C381 C386 1.501 . S
C382 C383 1.387 . S
C382 N385 1.341 . S
C383 C381 1.400 . S
C383 C382 1.387 . S
N384 Co375 2.022 . S
N384 C381 1.351 . S
N384 N385 1.365 . S
N385 C382 1.341 . S
N385 N384 1.365 . S
N385 H405 0.862 . S
C386 C381 1.501 . S
C386 H387 0.961 . S
C386 H388 0.961 . S
C386 H389 0.960 . S
H387 C386 0.961 . S
H388 C386 0.961 . S
H389 C386 0.960 . S
C390 N391 1.342 1_565 S
C390 C394 1.401 . S
C390 C395 1.499 . S
N391 Co374 1.989 . S
N391 C390 1.342 1_545 S
N391 N392 1.388 . S
N392 Co375 1.993 . S
N392 N391 1.388 . S
N392 C393 1.346 1_545 S
C393 N392 1.346 1_565 S
C393 C394 1.396 . S
C393 C403 1.510 . S
C394 C390 1.401 . S
C394 C393 1.396 . S
C395 C390 1.499 . S
C395 H396 0.959 1_565 S
C395 H397 0.960 . S
C395 H398 0.961 . S
H396 C395 0.959 1_545 S
H397 C395 0.960 . S
H398 C395 0.961 . S
O399 Co374 1.967 . S
O399 C407 1.258 . S
O400 Co375 1.941 . S
O400 C407 1.266 . S
H401 C403 0.959 . S
H402 C403 0.961 . S
C403 C393 1.510 . S
C403 H401 0.959 . S
C403 H402 0.961 . S
C403 H404 0.960 . S
H404 C403 0.960 . S
H405 N385 0.862 . S
O406 Co374 1.920 . S
O406 C379 1.289 . S
C407 O399 1.258 . S
C407 O400 1.266 . S
Co408 O411 1.970 . S
Co408 N425 1.989 . S
Co408 O433 1.967 . S
Co408 O440 1.920 . S
Co409 O412 1.966 . S
Co409 N418 2.022 . S
Co409 N426 1.993 . S
Co409 O434 1.941 . S
C410 O411 1.258 . S
C410 O412 1.263 . S
O411 Co408 1.970 . S
O411 C410 1.258 . S
O412 Co409 1.966 . S
O412 C410 1.263 . S
C413 O414 1.235 . S
C413 O440 1.289 . S
O414 C413 1.235 . S
C415 C417 1.400 . S
C415 N418 1.351 . S
C415 C420 1.501 . S
C416 C417 1.387 . S
C416 N419 1.341 . S
C417 C415 1.400 . S
C417 C416 1.387 . S
N418 Co409 2.022 . S
N418 C415 1.351 . S
N418 N419 1.365 . S
N419 C416 1.341 . S
N419 N418 1.365 . S
N419 H439 0.862 . S
C420 C415 1.501 . S
C420 H421 0.961 . S
C420 H422 0.961 . S
C420 H423 0.960 . S
H421 C420 0.961 . S
H422 C420 0.961 . S
H423 C420 0.960 . S
C424 N425 1.342 . S
C424 C428 1.401 . S
C424 C429 1.499 . S
N425 Co408 1.989 . S
N425 C424 1.342 . S
N425 N426 1.388 . S
N426 Co409 1.993 . S
N426 N425 1.388 . S
N426 C427 1.346 . S
C427 N426 1.346 . S
C427 C428 1.396 . S
C427 C437 1.510 . S
C428 C424 1.401 . S
C428 C427 1.396 . S
C429 C424 1.499 . S
C429 H430 0.959 . S
C429 H431 0.960 . S
C429 H432 0.961 . S
H430 C429 0.959 . S
H431 C429 0.960 . S
H432 C429 0.961 . S
O433 Co408 1.967 . S
O433 C441 1.258 . S
O434 Co409 1.941 . S
O434 C441 1.266 . S
H435 C437 0.959 . S
H436 C437 0.961 . S
C437 C427 1.510 . S
C437 H435 0.959 . S
C437 H436 0.961 . S
C437 H438 0.960 . S
H438 C437 0.960 . S
H439 N419 0.862 . S
O440 Co408 1.920 . S
O440 C413 1.289 . S
C441 O433 1.258 . S
C441 O434 1.266 . S
Co442 O445 1.970 . S
Co442 N459 1.989 . S
Co442 O467 1.967 . S
Co442 O474 1.920 . S
Co443 O446 1.966 . S
Co443 N452 2.022 . S
Co443 N460 1.993 . S
Co443 O468 1.941 . S
C444 O445 1.258 . S
C444 O446 1.263 . S
O445 Co442 1.970 . S
O445 C444 1.258 . S
O446 Co443 1.966 . S
O446 C444 1.263 . S
C447 O448 1.235 . S
C447 O474 1.289 . S
O448 C447 1.235 . S
C449 C451 1.400 . S
C449 N452 1.351 . S
C449 C454 1.501 . S
C450 C451 1.387 . S
C450 N453 1.341 . S
C451 C449 1.400 . S
C451 C450 1.387 . S
N452 Co443 2.022 . S
N452 C449 1.351 . S
N452 N453 1.365 . S
N453 C450 1.341 . S
N453 N452 1.365 . S
N453 H473 0.862 . S
C454 C449 1.501 . S
C454 H455 0.961 . S
C454 H456 0.961 . S
C454 H457 0.960 . S
H455 C454 0.961 . S
H456 C454 0.961 . S
H457 C454 0.960 . S
C458 N459 1.342 1_565 S
C458 C462 1.401 . S
C458 C463 1.499 . S
N459 Co442 1.989 . S
N459 C458 1.342 1_545 S
N459 N460 1.388 . S
N460 Co443 1.993 . S
N460 N459 1.388 . S
N460 C461 1.346 1_545 S
C461 N460 1.346 1_565 S
C461 C462 1.396 . S
C461 C471 1.510 . S
C462 C458 1.401 . S
C462 C461 1.396 . S
C463 C458 1.499 . S
C463 H464 0.959 1_565 S
C463 H465 0.960 . S
C463 H466 0.961 . S
H464 C463 0.959 1_545 S
H465 C463 0.960 . S
H466 C463 0.961 . S
O467 Co442 1.967 . S
O467 C475 1.258 . S
O468 Co443 1.941 . S
O468 C475 1.266 . S
H469 C471 0.959 . S
H470 C471 0.961 . S
C471 C461 1.510 . S
C471 H469 0.959 . S
C471 H470 0.961 . S
C471 H472 0.960 . S
H472 C471 0.960 . S
H473 N453 0.862 . S
O474 Co442 1.920 . S
O474 C447 1.289 . S
C475 O467 1.258 . S
C475 O468 1.266 . S
Co476 O479 1.970 . S
Co476 N493 1.989 . S
Co476 O501 1.967 . S
Co476 O508 1.920 . S
Co477 O480 1.966 . S
Co477 N486 2.022 . S
Co477 N494 1.993 . S
Co477 O502 1.941 . S
C478 O479 1.258 . S
C478 O480 1.263 . S
O479 Co476 1.970 . S
O479 C478 1.258 . S
O480 Co477 1.966 . S
O480 C478 1.263 . S
C481 O482 1.235 . S
C481 O508 1.289 . S
O482 C481 1.235 . S
C483 C485 1.400 . S
C483 N486 1.351 . S
C483 C488 1.501 . S
C484 C485 1.387 . S
C484 N487 1.341 . S
C485 C483 1.400 . S
C485 C484 1.387 . S
N486 Co477 2.022 . S
N486 C483 1.351 . S
N486 N487 1.365 . S
N487 C484 1.341 . S
N487 N486 1.365 . S
N487 H507 0.862 . S
C488 C483 1.501 . S
C488 H489 0.961 . S
C488 H490 0.961 . S
C488 H491 0.960 . S
H489 C488 0.961 . S
H490 C488 0.961 . S
H491 C488 0.960 . S
C492 N493 1.342 . S
C492 C496 1.401 . S
C492 C497 1.499 . S
N493 Co476 1.989 . S
N493 C492 1.342 . S
N493 N494 1.388 . S
N494 Co477 1.993 . S
N494 N493 1.388 . S
N494 C495 1.346 . S
C495 N494 1.346 . S
C495 C496 1.396 . S
C495 C505 1.510 . S
C496 C492 1.401 . S
C496 C495 1.396 . S
C497 C492 1.499 . S
C497 H498 0.959 . S
C497 H499 0.960 . S
C497 H500 0.961 . S
H498 C497 0.959 . S
H499 C497 0.960 . S
H500 C497 0.961 . S
O501 Co476 1.967 . S
O501 C509 1.258 . S
O502 Co477 1.941 . S
O502 C509 1.266 . S
H503 C505 0.959 . S
H504 C505 0.961 . S
C505 C495 1.510 . S
C505 H503 0.959 . S
C505 H504 0.961 . S
C505 H506 0.960 . S
H506 C505 0.960 . S
H507 N487 0.862 . S
O508 Co476 1.920 . S
O508 C481 1.289 . S
C509 O501 1.258 . S
C509 O502 1.266 . S
Co510 O513 1.970 . S
Co510 N527 1.989 . S
Co510 O535 1.967 . S
Co510 O542 1.920 . S
Co511 O514 1.966 . S
Co511 N520 2.022 . S
Co511 N528 1.993 . S
Co511 O536 1.941 . S
C512 O513 1.258 . S
C512 O514 1.263 . S
O513 Co510 1.970 . S
O513 C512 1.258 . S
O514 Co511 1.966 . S
O514 C512 1.263 . S
C515 O516 1.235 . S
C515 O542 1.289 . S
O516 C515 1.235 . S
C517 C519 1.400 . S
C517 N520 1.351 . S
C517 C522 1.501 . S
C518 C519 1.387 . S
C518 N521 1.341 . S
C519 C517 1.400 . S
C519 C518 1.387 . S
N520 Co511 2.022 . S
N520 C517 1.351 . S
N520 N521 1.365 . S
N521 C518 1.341 . S
N521 N520 1.365 . S
N521 H541 0.862 . S
C522 C517 1.501 . S
C522 H523 0.961 . S
C522 H524 0.961 . S
C522 H525 0.960 . S
H523 C522 0.961 . S
H524 C522 0.961 . S
H525 C522 0.960 . S
C526 N527 1.342 . S
C526 C530 1.401 1_565 S
C526 C531 1.499 . S
N527 Co510 1.989 . S
N527 C526 1.342 . S
N527 N528 1.388 . S
N528 Co511 1.993 . S
N528 N527 1.388 . S
N528 C529 1.346 . S
C529 N528 1.346 . S
C529 C530 1.396 1_565 S
C529 C539 1.510 1_565 S
C530 C526 1.401 1_545 S
C530 C529 1.396 1_545 S
C531 C526 1.499 . S
C531 H532 0.959 . S
C531 H533 0.960 1_565 S
C531 H534 0.961 . S
H532 C531 0.959 . S
H533 C531 0.960 1_545 S
H534 C531 0.961 . S
O535 Co510 1.967 . S
O535 C543 1.258 . S
O536 Co511 1.941 . S
O536 C543 1.266 . S
H537 C539 0.959 . S
H538 C539 0.961 . S
C539 C529 1.510 1_545 S
C539 H537 0.959 . S
C539 H538 0.961 . S
C539 H540 0.960 1_545 S
H540 C539 0.960 1_565 S
H541 N521 0.862 . S
O542 Co510 1.920 . S
O542 C515 1.289 . S
C543 O535 1.258 . S
C543 O536 1.266 . S
H544 C552 0.950 . S
H545 C557 0.950 . S
H546 C554 0.950 . S
H547 C556 0.950 . S
H548 C558 0.950 . S
H549 C560 0.950 . S
H550 C562 0.950 . S
H551 C563 0.950 . S
C552 H544 0.950 . S
C552 C553 1.386 . S
C552 C554 1.391 . S
C553 C552 1.386 . S
C553 C557 1.393 . S
C554 H546 0.950 . S
C554 C552 1.391 . S
C554 C555 1.400 . S
C555 C554 1.400 . S
C555 C556 1.398 . S
C555 C561 1.491 . S
C556 H547 0.950 . S
C556 C555 1.398 . S
C556 C557 1.391 . S
C557 H545 0.950 . S
C557 C553 1.393 . S
C557 C556 1.391 . S
C558 H548 0.950 . S
C558 C559 1.386 . S
C558 C560 1.391 . S
C559 C558 1.386 . S
C559 C563 1.393 . S
C560 H549 0.950 . S
C560 C558 1.391 . S
C560 C561 1.400 . S
C561 C555 1.491 . S
C561 C560 1.400 . S
C561 C562 1.398 . S
C562 H550 0.950 . S
C562 C561 1.398 . S
C562 C563 1.391 . S
C563 H551 0.950 . S
C563 C559 1.393 . S
C563 C562 1.391 . S
H564 C572 0.950 . S
H565 C577 0.950 . S
H566 C574 0.950 . S
H567 C576 0.950 . S
H568 C578 0.950 . S
H569 C580 0.950 . S
H570 C582 0.950 . S
H571 C583 0.950 . S
C572 H564 0.950 . S
C572 C573 1.386 . S
C572 C574 1.391 . S
C573 C572 1.386 . S
C573 C577 1.393 . S
C574 H566 0.950 . S
C574 C572 1.391 . S
C574 C575 1.400 . S
C575 C574 1.400 . S
C575 C576 1.398 . S
C575 C581 1.491 . S
C576 H567 0.950 . S
C576 C575 1.398 . S
C576 C577 1.391 . S
C577 H565 0.950 . S
C577 C573 1.393 . S
C577 C576 1.391 . S
C578 H568 0.950 . S
C578 C579 1.386 . S
C578 C580 1.391 . S
C579 C578 1.386 . S
C579 C583 1.393 . S
C580 H569 0.950 . S
C580 C578 1.391 . S
C580 C581 1.400 . S
C581 C575 1.491 . S
C581 C580 1.400 . S
C581 C582 1.398 . S
C582 H570 0.950 . S
C582 C581 1.398 . S
C582 C583 1.391 . S
C583 H571 0.950 . S
C583 C579 1.393 . S
C583 C582 1.391 . S
H584 C592 0.950 . S
H585 C597 0.950 . S
H586 C594 0.950 . S
H587 C596 0.950 . S
H588 C598 0.950 . S
H589 C600 0.950 . S
H590 C602 0.950 . S
H591 C603 0.950 . S
C592 H584 0.950 . S
C592 C593 1.386 . S
C592 C594 1.391 . S
C593 C592 1.386 . S
C593 C597 1.393 . S
C594 H586 0.950 . S
C594 C592 1.391 . S
C594 C595 1.400 . S
C595 C594 1.400 . S
C595 C596 1.398 . S
C595 C601 1.491 . S
C596 H587 0.950 . S
C596 C595 1.398 . S
C596 C597 1.391 . S
C597 H585 0.950 . S
C597 C593 1.393 . S
C597 C596 1.391 . S
C598 H588 0.950 . S
C598 C599 1.386 . S
C598 C600 1.391 . S
C599 C598 1.386 . S
C599 C603 1.393 . S
C600 H589 0.950 . S
C600 C598 1.391 . S
C600 C601 1.400 . S
C601 C595 1.491 . S
C601 C600 1.400 . S
C601 C602 1.398 . S
C602 H590 0.950 . S
C602 C601 1.398 . S
C602 C603 1.391 . S
C603 H591 0.950 . S
C603 C599 1.393 . S
C603 C602 1.391 . S
H604 C612 0.950 . S
H605 C617 0.950 . S
H606 C614 0.950 . S
H607 C616 0.950 . S
H608 C618 0.950 . S
H609 C620 0.950 . S
H610 C622 0.950 . S
H611 C623 0.950 . S
C612 H604 0.950 . S
C612 C613 1.386 . S
C612 C614 1.391 . S
C613 C612 1.386 . S
C613 C617 1.393 . S
C614 H606 0.950 . S
C614 C612 1.391 . S
C614 C615 1.400 . S
C615 C614 1.400 . S
C615 C616 1.398 . S
C615 C621 1.491 . S
C616 H607 0.950 . S
C616 C615 1.398 . S
C616 C617 1.391 . S
C617 H605 0.950 . S
C617 C613 1.393 . S
C617 C616 1.391 . S
C618 H608 0.950 . S
C618 C619 1.386 . S
C618 C620 1.391 . S
C619 C618 1.386 . S
C619 C623 1.393 . S
C620 H609 0.950 . S
C620 C618 1.391 . S
C620 C621 1.400 . S
C621 C615 1.491 . S
C621 C620 1.400 . S
C621 C622 1.398 . S
C622 H610 0.950 . S
C622 C621 1.398 . S
C622 C623 1.391 . S
C623 H611 0.950 . S
C623 C619 1.393 . S
C623 C622 1.391 . S
H624 C632 0.950 . S
H625 C637 0.950 . S
H626 C634 0.950 . S
H627 C636 0.950 . S
H628 C638 0.950 . S
H629 C640 0.950 . S
H630 C642 0.950 . S
H631 C643 0.950 . S
C632 H624 0.950 . S
C632 C633 1.386 . S
C632 C634 1.391 . S
C633 C632 1.386 . S
C633 C637 1.393 . S
C634 H626 0.950 . S
C634 C632 1.391 . S
C634 C635 1.400 . S
C635 C634 1.400 . S
C635 C636 1.398 . S
C635 C641 1.491 . S
C636 H627 0.950 . S
C636 C635 1.398 . S
C636 C637 1.391 . S
C637 H625 0.950 . S
C637 C633 1.393 . S
C637 C636 1.391 . S
C638 H628 0.950 . S
C638 C639 1.386 . S
C638 C640 1.391 . S
C639 C638 1.386 . S
C639 C643 1.393 . S
C640 H629 0.950 . S
C640 C638 1.391 . S
C640 C641 1.400 . S
C641 C635 1.491 . S
C641 C640 1.400 . S
C641 C642 1.398 . S
C642 H630 0.950 . S
C642 C641 1.398 . S
C642 C643 1.391 . S
C643 H631 0.950 . S
C643 C639 1.393 . S
C643 C642 1.391 . S
H644 C652 0.950 . S
H645 C657 0.950 . S
H646 C654 0.950 . S
H647 C656 0.950 . S
H648 C658 0.950 . S
H649 C660 0.950 . S
H650 C662 0.950 . S
H651 C663 0.950 . S
C652 H644 0.950 . S
C652 C653 1.386 . S
C652 C654 1.391 . S
C653 C652 1.386 . S
C653 C657 1.393 . S
C654 H646 0.950 . S
C654 C652 1.391 . S
C654 C655 1.400 . S
C655 C654 1.400 . S
C655 C656 1.398 . S
C655 C661 1.491 . S
C656 H647 0.950 . S
C656 C655 1.398 . S
C656 C657 1.391 . S
C657 H645 0.950 . S
C657 C653 1.393 . S
C657 C656 1.391 . S
C658 H648 0.950 . S
C658 C659 1.386 . S
C658 C660 1.391 . S
C659 C658 1.386 . S
C659 C663 1.393 . S
C660 H649 0.950 . S
C660 C658 1.391 . S
C660 C661 1.400 . S
C661 C655 1.491 . S
C661 C660 1.400 . S
C661 C662 1.398 . S
C662 H650 0.950 . S
C662 C661 1.398 . S
C662 C663 1.391 . S
C663 H651 0.950 . S
C663 C659 1.393 . S
C663 C662 1.391 . S
H664 C672 0.950 . S
H665 C677 0.950 . S
H666 C674 0.950 . S
H667 C676 0.950 . S
H668 C678 0.950 . S
H669 C680 0.950 . S
H670 C682 0.950 . S
H671 C683 0.950 . S
C672 H664 0.950 . S
C672 C673 1.386 . S
C672 C674 1.391 . S
C673 C672 1.386 . S
C673 C677 1.393 . S
C674 H666 0.950 . S
C674 C672 1.391 . S
C674 C675 1.400 . S
C675 C674 1.400 . S
C675 C676 1.398 . S
C675 C681 1.491 . S
C676 H667 0.950 . S
C676 C675 1.398 . S
C676 C677 1.391 . S
C677 H665 0.950 . S
C677 C673 1.393 . S
C677 C676 1.391 . S
C678 H668 0.950 . S
C678 C679 1.386 . S
C678 C680 1.391 . S
C679 C678 1.386 . S
C679 C683 1.393 . S
C680 H669 0.950 . S
C680 C678 1.391 . S
C680 C681 1.400 . S
C681 C675 1.491 . S
C681 C680 1.400 . S
C681 C682 1.398 . S
C682 H670 0.950 . S
C682 C681 1.398 . S
C682 C683 1.391 . S
C683 H671 0.950 . S
C683 C679 1.393 . S
C683 C682 1.391 . S
H684 C692 0.950 . S
H685 C697 0.950 . S
H686 C694 0.950 . S
H687 C696 0.950 . S
H688 C698 0.950 . S
H689 C700 0.950 . S
H690 C702 0.950 . S
H691 C703 0.950 . S
C692 H684 0.950 . S
C692 C693 1.386 . S
C692 C694 1.391 . S
C693 C692 1.386 . S
C693 C697 1.393 . S
C694 H686 0.950 . S
C694 C692 1.391 . S
C694 C695 1.400 . S
C695 C694 1.400 . S
C695 C696 1.398 . S
C695 C701 1.491 . S
C696 H687 0.950 . S
C696 C695 1.398 . S
C696 C697 1.391 . S
C697 H685 0.950 . S
C697 C693 1.393 . S
C697 C696 1.391 . S
C698 H688 0.950 . S
C698 C699 1.386 . S
C698 C700 1.391 . S
C699 C698 1.386 . S
C699 C703 1.393 . S
C700 H689 0.950 . S
C700 C698 1.391 . S
C700 C701 1.400 . S
C701 C695 1.491 . S
C701 C700 1.400 . S
C701 C702 1.398 . S
C702 H690 0.950 . S
C702 C701 1.398 . S
C702 C703 1.391 . S
C703 H691 0.950 . S
C703 C699 1.393 . S
C703 C702 1.391 . S
H704 C712 0.950 . S
H705 C717 0.950 . S
H706 C714 0.950 . S
H707 C716 0.950 . S
H708 C718 0.950 . S
H709 C720 0.950 . S
H710 C722 0.950 . S
H711 C723 0.950 . S
C712 H704 0.950 . S
C712 C713 1.386 . S
C712 C714 1.391 . S
C713 C712 1.386 . S
C713 C717 1.393 . S
C714 H706 0.950 . S
C714 C712 1.391 . S
C714 C715 1.400 . S
C715 C714 1.400 . S
C715 C716 1.398 . S
C715 C721 1.491 . S
C716 H707 0.950 . S
C716 C715 1.398 . S
C716 C717 1.391 . S
C717 H705 0.950 . S
C717 C713 1.393 . S
C717 C716 1.391 . S
C718 H708 0.950 . S
C718 C719 1.386 . S
C718 C720 1.391 . S
C719 C718 1.386 . S
C719 C723 1.393 . S
C720 H709 0.950 . S
C720 C718 1.391 . S
C720 C721 1.400 . S
C721 C715 1.491 . S
C721 C720 1.400 . S
C721 C722 1.398 . S
C722 H710 0.950 . S
C722 C721 1.398 . S
C722 C723 1.391 . S
C723 H711 0.950 . S
C723 C719 1.393 . S
C723 C722 1.391 . S
H724 C732 0.950 . S
H725 C737 0.950 . S
H726 C734 0.950 . S
H727 C736 0.950 . S
H728 C738 0.950 . S
H729 C740 0.950 . S
H730 C742 0.950 . S
H731 C743 0.950 . S
C732 H724 0.950 . S
C732 C733 1.386 . S
C732 C734 1.391 . S
C733 C732 1.386 . S
C733 C737 1.393 . S
C734 H726 0.950 . S
C734 C732 1.391 . S
C734 C735 1.400 . S
C735 C734 1.400 . S
C735 C736 1.398 . S
C735 C741 1.491 . S
C736 H727 0.950 . S
C736 C735 1.398 . S
C736 C737 1.391 . S
C737 H725 0.950 . S
C737 C733 1.393 . S
C737 C736 1.391 . S
C738 H728 0.950 . S
C738 C739 1.386 . S
C738 C740 1.391 . S
C739 C738 1.386 . S
C739 C743 1.393 . S
C740 H729 0.950 . S
C740 C738 1.391 . S
C740 C741 1.400 . S
C741 C735 1.491 . S
C741 C740 1.400 . S
C741 C742 1.398 . S
C742 H730 0.950 . S
C742 C741 1.398 . S
C742 C743 1.391 . S
C743 H731 0.950 . S
C743 C739 1.393 . S
C743 C742 1.391 . S
H744 C752 0.950 . S
H745 C757 0.950 . S
H746 C754 0.950 . S
H747 C756 0.950 . S
H748 C758 0.950 . S
H749 C760 0.950 . S
H750 C762 0.950 . S
H751 C763 0.950 . S
C752 H744 0.950 . S
C752 C753 1.386 . S
C752 C754 1.391 . S
C753 C752 1.386 . S
C753 C757 1.393 . S
C754 H746 0.950 . S
C754 C752 1.391 . S
C754 C755 1.400 . S
C755 C754 1.400 . S
C755 C756 1.398 . S
C755 C761 1.491 . S
C756 H747 0.950 . S
C756 C755 1.398 . S
C756 C757 1.391 . S
C757 H745 0.950 . S
C757 C753 1.393 . S
C757 C756 1.391 . S
C758 H748 0.950 . S
C758 C759 1.386 . S
C758 C760 1.391 . S
C759 C758 1.386 . S
C759 C763 1.393 . S
C760 H749 0.950 . S
C760 C758 1.391 . S
C760 C761 1.400 . S
C761 C755 1.491 . S
C761 C760 1.400 . S
C761 C762 1.398 . S
C762 H750 0.950 . S
C762 C761 1.398 . S
C762 C763 1.391 . S
C763 H751 0.950 . S
C763 C759 1.393 . S
C763 C762 1.391 . S
H764 C772 0.950 . S
H765 C777 0.950 . S
H766 C774 0.950 . S
H767 C776 0.950 . S
H768 C778 0.950 . S
H769 C780 0.950 . S
H770 C782 0.950 . S
H771 C783 0.950 . S
C772 H764 0.950 . S
C772 C773 1.386 . S
C772 C774 1.391 . S
C773 C772 1.386 . S
C773 C777 1.393 . S
C774 H766 0.950 . S
C774 C772 1.391 . S
C774 C775 1.400 . S
C775 C774 1.400 . S
C775 C776 1.398 . S
C775 C781 1.491 . S
C776 H767 0.950 . S
C776 C775 1.398 . S
C776 C777 1.391 . S
C777 H765 0.950 . S
C777 C773 1.393 . S
C777 C776 1.391 . S
C778 H768 0.950 . S
C778 C779 1.386 . S
C778 C780 1.391 . S
C779 C778 1.386 . S
C779 C783 1.393 . S
C780 H769 0.950 . S
C780 C778 1.391 . S
C780 C781 1.400 . S
C781 C775 1.491 . S
C781 C780 1.400 . S
C781 C782 1.398 . S
C782 H770 0.950 . S
C782 C781 1.398 . S
C782 C783 1.391 . S
C783 H771 0.950 . S
C783 C779 1.393 . S
C783 C782 1.391 . S
H784 C792 0.950 . S
H785 C797 0.950 . S
H786 C794 0.950 . S
H787 C796 0.950 . S
H788 C798 0.950 . S
H789 C800 0.950 . S
H790 C802 0.950 . S
H791 C803 0.950 . S
C792 H784 0.950 . S
C792 C793 1.386 . S
C792 C794 1.391 . S
C793 C792 1.386 . S
C793 C797 1.393 . S
C794 H786 0.950 . S
C794 C792 1.391 . S
C794 C795 1.400 . S
C795 C794 1.400 . S
C795 C796 1.398 . S
C795 C801 1.491 . S
C796 H787 0.950 . S
C796 C795 1.398 . S
C796 C797 1.391 . S
C797 H785 0.950 . S
C797 C793 1.393 . S
C797 C796 1.391 . S
C798 H788 0.950 . S
C798 C799 1.386 . S
C798 C800 1.391 . S
C799 C798 1.386 . S
C799 C803 1.393 . S
C800 H789 0.950 . S
C800 C798 1.391 . S
C800 C801 1.400 . S
C801 C795 1.491 . S
C801 C800 1.400 . S
C801 C802 1.398 . S
C802 H790 0.950 . S
C802 C801 1.398 . S
C802 C803 1.391 . S
C803 H791 0.950 . S
C803 C799 1.393 . S
C803 C802 1.391 . S
H804 C812 0.950 . S
H805 C817 0.950 . S
H806 C814 0.950 . S
H807 C816 0.950 . S
H808 C818 0.950 . S
H809 C820 0.950 . S
H810 C822 0.950 . S
H811 C823 0.950 . S
C812 H804 0.950 . S
C812 C813 1.386 . S
C812 C814 1.391 . S
C813 C812 1.386 . S
C813 C817 1.393 . S
C814 H806 0.950 . S
C814 C812 1.391 . S
C814 C815 1.400 . S
C815 C814 1.400 . S
C815 C816 1.398 . S
C815 C821 1.491 . S
C816 H807 0.950 . S
C816 C815 1.398 . S
C816 C817 1.391 . S
C817 H805 0.950 . S
C817 C813 1.393 . S
C817 C816 1.391 . S
C818 H808 0.950 . S
C818 C819 1.386 . S
C818 C820 1.391 . S
C819 C818 1.386 . S
C819 C823 1.393 . S
C820 H809 0.950 . S
C820 C818 1.391 . S
C820 C821 1.400 . S
C821 C815 1.491 . S
C821 C820 1.400 . S
C821 C822 1.398 . S
C822 H810 0.950 . S
C822 C821 1.398 . S
C822 C823 1.391 . S
C823 H811 0.950 . S
C823 C819 1.393 . S
C823 C822 1.391 . S
H824 C832 0.950 . S
H825 C837 0.950 . S
H826 C834 0.950 . S
H827 C836 0.950 . S
H828 C838 0.950 . S
H829 C840 0.950 . S
H830 C842 0.950 . S
H831 C843 0.950 . S
C832 H824 0.950 . S
C832 C833 1.386 . S
C832 C834 1.391 . S
C833 C832 1.386 . S
C833 C837 1.393 . S
C834 H826 0.950 . S
C834 C832 1.391 . S
C834 C835 1.400 . S
C835 C834 1.400 . S
C835 C836 1.398 . S
C835 C841 1.491 . S
C836 H827 0.950 . S
C836 C835 1.398 . S
C836 C837 1.391 . S
C837 H825 0.950 . S
C837 C833 1.393 . S
C837 C836 1.391 . S
C838 H828 0.950 . S
C838 C839 1.386 . S
C838 C840 1.391 . S
C839 C838 1.386 . S
C839 C843 1.393 . S
C840 H829 0.950 . S
C840 C838 1.391 . S
C840 C841 1.400 . S
C841 C835 1.491 . S
C841 C840 1.400 . S
C841 C842 1.398 . S
C842 H830 0.950 . S
C842 C841 1.398 . S
C842 C843 1.391 . S
C843 H831 0.950 . S
C843 C839 1.393 . S
C843 C842 1.391 . S
H844 C852 0.950 . S
H845 C857 0.950 . S
H846 C854 0.950 . S
H847 C856 0.950 . S
H848 C858 0.950 . S
H849 C860 0.950 . S
H850 C862 0.950 . S
H851 C863 0.950 . S
C852 H844 0.950 . S
C852 C853 1.386 . S
C852 C854 1.391 . S
C853 C852 1.386 . S
C853 C857 1.393 . S
C854 H846 0.950 . S
C854 C852 1.391 . S
C854 C855 1.400 . S
C855 C854 1.400 . S
C855 C856 1.398 . S
C855 C861 1.491 . S
C856 H847 0.950 . S
C856 C855 1.398 . S
C856 C857 1.391 . S
C857 H845 0.950 . S
C857 C853 1.393 . S
C857 C856 1.391 . S
C858 H848 0.950 . S
C858 C859 1.386 . S
C858 C860 1.391 . S
C859 C858 1.386 . S
C859 C863 1.393 . S
C860 H849 0.950 . S
C860 C858 1.391 . S
C860 C861 1.400 . S
C861 C855 1.491 . S
C861 C860 1.400 . S
C861 C862 1.398 . S
C862 H850 0.950 . S
C862 C861 1.398 . S
C862 C863 1.391 . S
C863 H851 0.950 . S
C863 C859 1.393 . S
C863 C862 1.391 . S
H864 C872 0.950 . S
H865 C877 0.950 . S
H866 C874 0.950 1_556 S
H867 C876 0.950 . S
H868 C878 0.950 . S
H869 C880 0.950 . S
H870 C882 0.950 . S
H871 C883 0.950 . S
C872 H864 0.950 . S
C872 C873 1.386 . S
C872 C874 1.391 . S
C873 C872 1.386 . S
C873 C877 1.393 . S
C874 H866 0.950 1_554 S
C874 C872 1.391 . S
C874 C875 1.400 . S
C875 C874 1.400 . S
C875 C876 1.398 . S
C875 C881 1.491 1_554 S
C876 H867 0.950 . S
C876 C875 1.398 . S
C876 C877 1.391 . S
C877 H865 0.950 . S
C877 C873 1.393 . S
C877 C876 1.391 . S
C878 H868 0.950 . S
C878 C879 1.386 . S
C878 C880 1.391 . S
C879 C878 1.386 . S
C879 C883 1.393 . S
C880 H869 0.950 . S
C880 C878 1.391 . S
C880 C881 1.400 . S
C881 C875 1.491 1_556 S
C881 C880 1.400 . S
C881 C882 1.398 . S
C882 H870 0.950 . S
C882 C881 1.398 . S
C882 C883 1.391 . S
C883 H871 0.950 . S
C883 C879 1.393 . S
C883 C882 1.391 . S
H884 C892 0.950 . S
H885 C897 0.950 . S
H886 C894 0.950 . S
H887 C896 0.950 . S
H888 C898 0.950 . S
H889 C900 0.950 1_556 S
H890 C902 0.950 . S
H891 C903 0.950 . S
C892 H884 0.950 . S
C892 C893 1.386 . S
C892 C894 1.391 . S
C893 C892 1.386 . S
C893 C897 1.393 . S
C894 H886 0.950 . S
C894 C892 1.391 . S
C894 C895 1.400 . S
C895 C894 1.400 . S
C895 C896 1.398 . S
C895 C901 1.491 1_556 S
C896 H887 0.950 . S
C896 C895 1.398 . S
C896 C897 1.391 . S
C897 H885 0.950 . S
C897 C893 1.393 . S
C897 C896 1.391 . S
C898 H888 0.950 . S
C898 C899 1.386 . S
C898 C900 1.391 . S
C899 C898 1.386 . S
C899 C903 1.393 . S
C900 H889 0.950 1_554 S
C900 C898 1.391 . S
C900 C901 1.400 . S
C901 C895 1.491 1_554 S
C901 C900 1.400 . S
C901 C902 1.398 . S
C902 H890 0.950 . S
C902 C901 1.398 . S
C902 C903 1.391 . S
C903 H891 0.950 . S
C903 C899 1.393 . S
C903 C902 1.391 . S
H904 C912 0.950 . S
H905 C917 0.950 . S
H906 C914 0.950 . S
H907 C916 0.950 . S
H908 C918 0.950 . S
H909 C920 0.950 . S
H910 C922 0.950 . S
H911 C923 0.950 . S
C912 H904 0.950 . S
C912 C913 1.386 . S
C912 C914 1.391 . S
C913 C912 1.386 . S
C913 C917 1.393 . S
C914 H906 0.950 . S
C914 C912 1.391 . S
C914 C915 1.400 . S
C915 C914 1.400 . S
C915 C916 1.398 . S
C915 C921 1.491 . S
C916 H907 0.950 . S
C916 C915 1.398 . S
C916 C917 1.391 . S
C917 H905 0.950 . S
C917 C913 1.393 . S
C917 C916 1.391 . S
C918 H908 0.950 . S
C918 C919 1.386 . S
C918 C920 1.391 . S
C919 C918 1.386 . S
C919 C923 1.393 . S
C920 H909 0.950 . S
C920 C918 1.391 . S
C920 C921 1.400 . S
C921 C915 1.491 . S
C921 C920 1.400 . S
C921 C922 1.398 . S
C922 H910 0.950 . S
C922 C921 1.398 . S
C922 C923 1.391 . S
C923 H911 0.950 . S
C923 C919 1.393 . S
C923 C922 1.391 . S
H924 C932 0.950 . S
H925 C937 0.950 . S
H926 C934 0.950 . S
H927 C936 0.950 . S
H928 C938 0.950 . S
H929 C940 0.950 . S
H930 C942 0.950 . S
H931 C943 0.950 . S
C932 H924 0.950 . S
C932 C933 1.386 . S
C932 C934 1.391 . S
C933 C932 1.386 . S
C933 C937 1.393 . S
C934 H926 0.950 . S
C934 C932 1.391 . S
C934 C935 1.400 . S
C935 C934 1.400 . S
C935 C936 1.398 . S
C935 C941 1.491 . S
C936 H927 0.950 . S
C936 C935 1.398 . S
C936 C937 1.391 . S
C937 H925 0.950 . S
C937 C933 1.393 . S
C937 C936 1.391 . S
C938 H928 0.950 . S
C938 C939 1.386 . S
C938 C940 1.391 . S
C939 C938 1.386 . S
C939 C943 1.393 . S
C940 H929 0.950 . S
C940 C938 1.391 . S
C940 C941 1.400 . S
C941 C935 1.491 . S
C941 C940 1.400 . S
C941 C942 1.398 . S
C942 H930 0.950 . S
C942 C941 1.398 . S
C942 C943 1.391 . S
C943 H931 0.950 . S
C943 C939 1.393 . S
C943 C942 1.391 . S
H944 C952 0.950 . S
H945 C957 0.950 . S
H946 C954 0.950 1_554 S
H947 C956 0.950 . S
H948 C958 0.950 . S
H949 C960 0.964 . S
H950 C962 0.950 . S
H951 C963 0.950 . S
C952 H944 0.950 . S
C952 C953 1.386 . S
C952 C954 1.391 . S
C953 C952 1.386 . S
C953 C957 1.393 . S
C954 H946 0.950 1_556 S
C954 C952 1.391 . S
C954 C955 1.400 . S
C955 C954 1.400 . S
C955 C956 1.398 . S
C955 C961 1.491 1_556 S
C956 H947 0.950 . S
C956 C955 1.398 . S
C956 C957 1.391 . S
C957 H945 0.950 . S
C957 C953 1.393 . S
C957 C956 1.391 . S
C958 H948 0.950 . S
C958 C959 1.386 . S
C958 C960 1.391 . S
C959 C958 1.386 . S
C959 C963 1.393 . S
C960 H949 0.964 . S
C960 C958 1.391 . S
C960 C961 1.400 . S
C961 C955 1.491 1_554 S
C961 C960 1.400 . S
C961 C962 1.398 . S
C962 H950 0.950 . S
C962 C961 1.398 . S
C962 C963 1.391 . S
C963 H951 0.950 . S
C963 C959 1.393 . S
C963 C962 1.391 . S
H964 C972 0.950 . S
H965 C977 0.950 . S
H966 C974 0.950 . S
H967 C976 0.950 . S
H968 C978 0.950 . S
H969 C980 0.950 . S
H970 C982 0.950 . S
H971 C983 0.950 . S
C972 H964 0.950 . S
C972 C973 1.386 . S
C972 C974 1.391 . S
C973 C972 1.386 . S
C973 C977 1.393 . S
C974 H966 0.950 . S
C974 C972 1.391 . S
C974 C975 1.400 . S
C975 C974 1.400 . S
C975 C976 1.398 . S
C975 C981 1.491 1_554 S
C976 H967 0.950 . S
C976 C975 1.398 . S
C976 C977 1.391 . S
C977 H965 0.950 . S
C977 C973 1.393 . S
C977 C976 1.391 . S
C978 H968 0.950 . S
C978 C979 1.386 . S
C978 C980 1.391 . S
C979 C978 1.386 . S
C979 C983 1.393 . S
C980 H969 0.950 . S
C980 C978 1.391 . S
C980 C981 1.400 . S
C981 C975 1.491 1_556 S
C981 C980 1.400 . S
C981 C982 1.398 . S
C982 H970 0.950 . S
C982 C981 1.398 . S
C982 C983 1.391 . S
C983 H971 0.950 . S
C983 C979 1.393 . S
C983 C982 1.391 . S
H984 C992 0.950 . S
H985 C997 0.950 . S
H986 C994 0.950 . S
H987 C996 0.950 . S
H988 C998 0.950 . S
H989 C1000 0.950 . S
H990 C1002 0.950 . S
H991 C1003 0.950 . S
C992 H984 0.950 . S
C992 C993 1.386 . S
C992 C994 1.391 . S
C993 C992 1.386 . S
C993 C997 1.393 . S
C994 H986 0.950 . S
C994 C992 1.391 . S
C994 C995 1.400 . S
C995 C994 1.400 . S
C995 C996 1.398 . S
C995 C1001 1.491 . S
C996 H987 0.950 . S
C996 C995 1.398 . S
C996 C997 1.391 . S
C997 H985 0.950 . S
C997 C993 1.393 . S
C997 C996 1.391 . S
C998 H988 0.950 . S
C998 C999 1.386 . S
C998 C1000 1.391 . S
C999 C998 1.386 . S
C999 C1003 1.393 . S
C1000 H989 0.950 . S
C1000 C998 1.391 . S
C1000 C1001 1.400 . S
C1001 C995 1.491 . S
C1001 C1000 1.400 . S
C1001 C1002 1.398 . S
C1002 H990 0.950 . S
C1002 C1001 1.398 . S
C1002 C1003 1.391 . S
C1003 H991 0.950 . S
C1003 C999 1.393 . S
C1003 C1002 1.391 . S
H1004 C1012 0.950 . S
H1005 C1017 0.950 . S
H1006 C1014 0.950 . S
H1007 C1016 0.950 . S
H1008 C1018 0.950 . S
H1009 C1020 0.950 . S
H1010 C1022 0.950 . S
H1011 C1023 0.950 . S
C1012 H1004 0.950 . S
C1012 C1013 1.386 . S
C1012 C1014 1.391 . S
C1013 C1012 1.386 . S
C1013 C1017 1.393 . S
C1014 H1006 0.950 . S
C1014 C1012 1.391 . S
C1014 C1015 1.400 . S
C1015 C1014 1.400 . S
C1015 C1016 1.398 . S
C1015 C1021 1.491 . S
C1016 H1007 0.950 . S
C1016 C1015 1.398 . S
C1016 C1017 1.391 . S
C1017 H1005 0.950 . S
C1017 C1013 1.393 . S
C1017 C1016 1.391 . S
C1018 H1008 0.950 . S
C1018 C1019 1.386 . S
C1018 C1020 1.391 . S
C1019 C1018 1.386 . S
C1019 C1023 1.393 . S
C1020 H1009 0.950 . S
C1020 C1018 1.391 . S
C1020 C1021 1.400 . S
C1021 C1015 1.491 . S
C1021 C1020 1.400 . S
C1021 C1022 1.398 . S
C1022 H1010 0.950 . S
C1022 C1021 1.398 . S
C1022 C1023 1.391 . S
C1023 H1011 0.950 . S
C1023 C1019 1.393 . S
C1023 C1022 1.391 . S
H1024 C1032 0.950 . S
H1025 C1037 0.950 . S
H1026 C1034 0.950 . S
H1027 C1036 0.950 1_565 S
H1028 C1038 0.950 . S
H1029 C1040 0.950 . S
H1030 C1042 0.950 . S
H1031 C1043 0.950 . S
C1032 H1024 0.950 . S
C1032 C1033 1.386 . S
C1032 C1034 1.391 . S
C1033 C1032 1.386 . S
C1033 C1037 1.393 . S
C1034 H1026 0.950 . S
C1034 C1032 1.391 . S
C1034 C1035 1.400 . S
C1035 C1034 1.400 . S
C1035 C1036 1.398 . S
C1035 C1041 1.491 . S
C1036 H1027 0.950 1_545 S
C1036 C1035 1.398 . S
C1036 C1037 1.391 . S
C1037 H1025 0.950 . S
C1037 C1033 1.393 . S
C1037 C1036 1.391 . S
C1038 H1028 0.950 . S
C1038 C1039 1.386 . S
C1038 C1040 1.391 . S
C1039 C1038 1.386 . S
C1039 C1043 1.393 1_565 S
C1040 H1029 0.950 . S
C1040 C1038 1.391 . S
C1040 C1041 1.400 1_565 S
C1041 C1035 1.491 . S
C1041 C1040 1.400 1_545 S
C1041 C1042 1.398 . S
C1042 H1030 0.950 . S
C1042 C1041 1.398 . S
C1042 C1043 1.391 . S
C1043 H1031 0.950 . S
C1043 C1039 1.393 1_545 S
C1043 C1042 1.391 . S
H1044 C1052 0.950 . S
H1045 C1057 0.950 . S
H1046 C1054 0.950 . S
H1047 C1056 0.950 . S
H1048 C1058 0.950 . S
H1049 C1060 0.950 . S
H1050 C1062 0.950 . S
H1051 C1063 0.950 . S
C1052 H1044 0.950 . S
C1052 C1053 1.386 . S
C1052 C1054 1.391 . S
C1053 C1052 1.386 . S
C1053 C1057 1.393 . S
C1054 H1046 0.950 . S
C1054 C1052 1.391 . S
C1054 C1055 1.400 . S
C1055 C1054 1.400 . S
C1055 C1056 1.398 . S
C1055 C1061 1.491 . S
C1056 H1047 0.950 . S
C1056 C1055 1.398 . S
C1056 C1057 1.391 . S
C1057 H1045 0.950 . S
C1057 C1053 1.393 . S
C1057 C1056 1.391 . S
C1058 H1048 0.950 . S
C1058 C1059 1.386 . S
C1058 C1060 1.391 . S
C1059 C1058 1.386 . S
C1059 C1063 1.393 . S
C1060 H1049 0.950 . S
C1060 C1058 1.391 . S
C1060 C1061 1.400 . S
C1061 C1055 1.491 . S
C1061 C1060 1.400 . S
C1061 C1062 1.398 . S
C1062 H1050 0.950 . S
C1062 C1061 1.398 . S
C1062 C1063 1.391 . S
C1063 H1051 0.950 . S
C1063 C1059 1.393 . S
C1063 C1062 1.391 . S
H1064 C1072 0.950 . S
H1065 C1077 0.948 1_545 S
H1066 C1074 0.950 . S
H1067 C1076 0.950 . S
H1068 C1078 0.950 . S
H1069 C1080 0.950 . S
H1070 C1082 0.950 1_565 S
H1071 C1083 0.950 . S
C1072 H1064 0.950 . S
C1072 C1073 1.386 . S
C1072 C1074 1.391 . S
C1073 C1072 1.386 . S
C1073 C1077 1.393 . S
C1074 H1066 0.950 . S
C1074 C1072 1.391 . S
C1074 C1075 1.400 1_565 S
C1075 C1074 1.400 1_545 S
C1075 C1076 1.398 . S
C1075 C1081 1.491 . S
C1076 H1067 0.950 . S
C1076 C1075 1.398 . S
C1076 C1077 1.391 1_545 S
C1077 H1065 0.948 1_565 S
C1077 C1073 1.393 . S
C1077 C1076 1.391 1_565 S
C1078 H1068 0.950 . S
C1078 C1079 1.386 . S
C1078 C1080 1.391 . S
C1079 C1078 1.386 . S
C1079 C1083 1.393 . S
C1080 H1069 0.950 . S
C1080 C1078 1.391 . S
C1080 C1081 1.400 . S
C1081 C1075 1.491 . S
C1081 C1080 1.400 . S
C1081 C1082 1.398 . S
C1082 H1070 0.950 1_545 S
C1082 C1081 1.398 . S
C1082 C1083 1.391 . S
C1083 H1071 0.950 . S
C1083 C1079 1.393 . S
C1083 C1082 1.391 . S
H1084 C1092 0.950 . S
H1085 C1097 0.950 . S
H1086 C1094 0.950 . S
H1087 C1096 0.950 . S
H1088 C1098 0.950 . S
H1089 C1100 0.950 . S
H1090 C1102 0.950 . S
H1091 C1103 0.950 . S
C1092 H1084 0.950 . S
C1092 C1093 1.386 . S
C1092 C1094 1.391 . S
C1093 C1092 1.386 . S
C1093 C1097 1.393 . S
C1094 H1086 0.950 . S
C1094 C1092 1.391 . S
C1094 C1095 1.400 . S
C1095 C1094 1.400 . S
C1095 C1096 1.398 . S
C1095 C1101 1.491 . S
C1096 H1087 0.950 . S
C1096 C1095 1.398 . S
C1096 C1097 1.391 . S
C1097 H1085 0.950 . S
C1097 C1093 1.393 . S
C1097 C1096 1.391 . S
C1098 H1088 0.950 . S
C1098 C1099 1.386 . S
C1098 C1100 1.391 . S
C1099 C1098 1.386 . S
C1099 C1103 1.393 . S
C1100 H1089 0.950 . S
C1100 C1098 1.391 . S
C1100 C1101 1.400 . S
C1101 C1095 1.491 . S
C1101 C1100 1.400 . S
C1101 C1102 1.398 . S
C1102 H1090 0.950 . S
C1102 C1101 1.398 . S
C1102 C1103 1.391 . S
C1103 H1091 0.950 . S
C1103 C1099 1.393 . S
C1103 C1102 1.391 . S
H1104 C1112 0.950 . S
H1105 C1117 0.950 . S
H1106 C1114 0.950 . S
H1107 C1116 0.950 . S
H1108 C1118 0.950 . S
H1109 C1120 0.950 . S
H1110 C1122 0.950 . S
H1111 C1123 0.950 . S
C1112 H1104 0.950 . S
C1112 C1113 1.386 . S
C1112 C1114 1.391 . S
C1113 C1112 1.386 . S
C1113 C1117 1.393 . S
C1114 H1106 0.950 . S
C1114 C1112 1.391 . S
C1114 C1115 1.400 . S
C1115 C1114 1.400 . S
C1115 C1116 1.398 . S
C1115 C1121 1.491 . S
C1116 H1107 0.950 . S
C1116 C1115 1.398 . S
C1116 C1117 1.391 . S
C1117 H1105 0.950 . S
C1117 C1113 1.393 . S
C1117 C1116 1.391 . S
C1118 H1108 0.950 . S
C1118 C1119 1.386 . S
C1118 C1120 1.391 . S
C1119 C1118 1.386 . S
C1119 C1123 1.393 . S
C1120 H1109 0.950 . S
C1120 C1118 1.391 . S
C1120 C1121 1.400 . S
C1121 C1115 1.491 . S
C1121 C1120 1.400 . S
C1121 C1122 1.398 . S
C1122 H1110 0.950 . S
C1122 C1121 1.398 . S
C1122 C1123 1.391 . S
C1123 H1111 0.950 . S
C1123 C1119 1.393 . S
C1123 C1122 1.391 . S
H1124 C1132 0.950 . S
H1125 C1137 0.950 . S
H1126 C1134 0.950 . S
H1127 C1136 0.950 1_545 S
H1128 C1138 0.950 . S
H1129 C1140 0.950 . S
H1130 C1142 0.950 . S
H1131 C1143 0.950 . S
C1132 H1124 0.950 . S
C1132 C1133 1.386 1_565 S
C1132 C1134 1.391 . S
C1133 C1132 1.386 1_545 S
C1133 C1137 1.393 . S
C1134 H1126 0.950 . S
C1134 C1132 1.391 . S
C1134 C1135 1.400 . S
C1135 C1134 1.400 . S
C1135 C1136 1.398 . S
C1135 C1141 1.491 . S
C1136 H1127 0.950 1_565 S
C1136 C1135 1.398 . S
C1136 C1137 1.391 1_565 S
C1137 H1125 0.950 . S
C1137 C1133 1.393 . S
C1137 C1136 1.391 1_545 S
C1138 H1128 0.950 . S
C1138 C1139 1.386 . S
C1138 C1140 1.391 . S
C1139 C1138 1.386 . S
C1139 C1143 1.393 . S
C1140 H1129 0.950 . S
C1140 C1138 1.391 . S
C1140 C1141 1.400 . S
C1141 C1135 1.491 . S
C1141 C1140 1.400 . S
C1141 C1142 1.398 . S
C1142 H1130 0.950 . S
C1142 C1141 1.398 . S
C1142 C1143 1.391 . S
C1143 H1131 0.950 . S
C1143 C1139 1.393 . S
C1143 C1142 1.391 . S
H1144 C1152 0.950 . S
H1145 C1157 0.950 . S
H1146 C1154 0.950 . S
H1147 C1156 0.950 . S
H1148 C1158 0.950 . S
H1149 C1160 0.950 . S
H1150 C1162 0.950 . S
H1151 C1163 0.950 . S
C1152 H1144 0.950 . S
C1152 C1153 1.386 . S
C1152 C1154 1.391 . S
C1153 C1152 1.386 . S
C1153 C1157 1.393 . S
C1154 H1146 0.950 . S
C1154 C1152 1.391 . S
C1154 C1155 1.400 . S
C1155 C1154 1.400 . S
C1155 C1156 1.398 . S
C1155 C1161 1.491 . S
C1156 H1147 0.950 . S
C1156 C1155 1.398 . S
C1156 C1157 1.391 . S
C1157 H1145 0.950 . S
C1157 C1153 1.393 . S
C1157 C1156 1.391 . S
C1158 H1148 0.950 . S
C1158 C1159 1.386 . S
C1158 C1160 1.391 . S
C1159 C1158 1.386 . S
C1159 C1163 1.393 . S
C1160 H1149 0.950 . S
C1160 C1158 1.391 . S
C1160 C1161 1.400 . S
C1161 C1155 1.491 . S
C1161 C1160 1.400 . S
C1161 C1162 1.398 . S
C1162 H1150 0.950 . S
C1162 C1161 1.398 . S
C1162 C1163 1.391 . S
C1163 H1151 0.950 . S
C1163 C1159 1.393 . S
C1163 C1162 1.391 . S
H1164 C1172 0.950 . S
H1165 C1177 0.950 . S
H1166 C1174 0.950 . S
H1167 C1176 0.950 . S
H1168 C1178 0.950 . S
H1169 C1180 0.950 . S
H1170 C1182 0.950 . S
H1171 C1183 0.950 . S
C1172 H1164 0.950 . S
C1172 C1173 1.386 1_565 S
C1172 C1174 1.391 . S
C1173 C1172 1.386 1_545 S
C1173 C1177 1.393 . S
C1174 H1166 0.950 . S
C1174 C1172 1.391 . S
C1174 C1175 1.400 . S
C1175 C1174 1.400 . S
C1175 C1176 1.398 1_565 S
C1175 C1181 1.491 . S
C1176 H1167 0.950 . S
C1176 C1175 1.398 1_545 S
C1176 C1177 1.391 . S
C1177 H1165 0.950 . S
C1177 C1173 1.393 . S
C1177 C1176 1.391 . S
C1178 H1168 0.950 . S
C1178 C1179 1.386 1_545 S
C1178 C1180 1.391 . S
C1179 C1178 1.386 1_565 S
C1179 C1183 1.393 . S
C1180 H1169 0.950 . S
C1180 C1178 1.391 . S
C1180 C1181 1.400 1_545 S
C1181 C1175 1.491 . S
C1181 C1180 1.400 1_565 S
C1181 C1182 1.398 . S
C1182 H1170 0.950 . S
C1182 C1181 1.398 . S
C1182 C1183 1.391 . S
C1183 H1171 0.950 . S
C1183 C1179 1.393 . S
C1183 C1182 1.391 . S
H1184 C1192 0.950 . S
H1185 C1197 0.950 . S
H1186 C1194 0.950 . S
H1187 C1196 0.950 . S
H1188 C1198 0.950 . S
H1189 C1200 0.950 . S
H1190 C1202 0.950 . S
H1191 C1203 0.950 . S
C1192 H1184 0.950 . S
C1192 C1193 1.386 . S
C1192 C1194 1.391 . S
C1193 C1192 1.386 . S
C1193 C1197 1.393 . S
C1194 H1186 0.950 . S
C1194 C1192 1.391 . S
C1194 C1195 1.400 . S
C1195 C1194 1.400 . S
C1195 C1196 1.398 . S
C1195 C1201 1.491 . S
C1196 H1187 0.950 . S
C1196 C1195 1.398 . S
C1196 C1197 1.391 . S
C1197 H1185 0.950 . S
C1197 C1193 1.393 . S
C1197 C1196 1.391 . S
C1198 H1188 0.950 . S
C1198 C1199 1.386 . S
C1198 C1200 1.391 . S
C1199 C1198 1.386 . S
C1199 C1203 1.393 . S
C1200 H1189 0.950 . S
C1200 C1198 1.391 . S
C1200 C1201 1.400 . S
C1201 C1195 1.491 . S
C1201 C1200 1.400 . S
C1201 C1202 1.398 . S
C1202 H1190 0.950 . S
C1202 C1201 1.398 . S
C1202 C1203 1.391 . S
C1203 H1191 0.950 . S
C1203 C1199 1.393 . S
C1203 C1202 1.391 . S
H1204 C1212 0.950 . S
H1205 C1217 0.950 . S
H1206 C1214 0.950 . S
H1207 C1216 0.950 . S
H1208 C1218 0.950 . S
H1209 C1220 0.950 . S
H1210 C1222 0.950 . S
H1211 C1223 0.950 . S
C1212 H1204 0.950 . S
C1212 C1213 1.386 . S
C1212 C1214 1.391 . S
C1213 C1212 1.386 . S
C1213 C1217 1.393 . S
C1214 H1206 0.950 . S
C1214 C1212 1.391 . S
C1214 C1215 1.400 . S
C1215 C1214 1.400 . S
C1215 C1216 1.398 . S
C1215 C1221 1.491 . S
C1216 H1207 0.950 . S
C1216 C1215 1.398 . S
C1216 C1217 1.391 . S
C1217 H1205 0.950 . S
C1217 C1213 1.393 . S
C1217 C1216 1.391 . S
C1218 H1208 0.950 . S
C1218 C1219 1.386 . S
C1218 C1220 1.391 . S
C1219 C1218 1.386 . S
C1219 C1223 1.393 . S
C1220 H1209 0.950 . S
C1220 C1218 1.391 . S
C1220 C1221 1.400 . S
C1221 C1215 1.491 . S
C1221 C1220 1.400 . S
C1221 C1222 1.398 . S
C1222 H1210 0.950 . S
C1222 C1221 1.398 . S
C1222 C1223 1.391 . S
C1223 H1211 0.950 . S
C1223 C1219 1.393 . S
C1223 C1222 1.391 . S
H1224 C1232 0.950 . S
H1225 C1237 0.950 . S
H1226 C1234 0.950 . S
H1227 C1236 0.950 . S
H1228 C1238 0.950 . S
H1229 C1240 0.950 . S
H1230 C1242 0.950 . S
H1231 C1243 0.950 . S
C1232 H1224 0.950 . S
C1232 C1233 1.386 . S
C1232 C1234 1.391 . S
C1233 C1232 1.386 . S
C1233 C1237 1.393 . S
C1234 H1226 0.950 . S
C1234 C1232 1.391 . S
C1234 C1235 1.400 . S
C1235 C1234 1.400 . S
C1235 C1236 1.398 . S
C1235 C1241 1.491 . S
C1236 H1227 0.950 . S
C1236 C1235 1.398 . S
C1236 C1237 1.391 . S
C1237 H1225 0.950 . S
C1237 C1233 1.393 . S
C1237 C1236 1.391 . S
C1238 H1228 0.950 . S
C1238 C1239 1.386 . S
C1238 C1240 1.391 . S
C1239 C1238 1.386 . S
C1239 C1243 1.393 . S
C1240 H1229 0.950 . S
C1240 C1238 1.391 . S
C1240 C1241 1.400 . S
C1241 C1235 1.491 . S
C1241 C1240 1.400 . S
C1241 C1242 1.398 . S
C1242 H1230 0.950 . S
C1242 C1241 1.398 . S
C1242 C1243 1.391 . S
C1243 H1231 0.950 . S
C1243 C1239 1.393 . S
C1243 C1242 1.391 . S
H1244 C1252 0.950 . S
H1245 C1257 0.950 . S
H1246 C1254 0.950 . S
H1247 C1256 0.950 . S
H1248 C1258 0.950 . S
H1249 C1260 0.950 . S
H1250 C1262 0.950 . S
H1251 C1263 0.950 . S
C1252 H1244 0.950 . S
C1252 C1253 1.386 . S
C1252 C1254 1.391 . S
C1253 C1252 1.386 . S
C1253 C1257 1.393 . S
C1254 H1246 0.950 . S
C1254 C1252 1.391 . S
C1254 C1255 1.400 . S
C1255 C1254 1.400 . S
C1255 C1256 1.398 . S
C1255 C1261 1.491 . S
C1256 H1247 0.950 . S
C1256 C1255 1.398 . S
C1256 C1257 1.391 . S
C1257 H1245 0.950 . S
C1257 C1253 1.393 . S
C1257 C1256 1.391 . S
C1258 H1248 0.950 . S
C1258 C1259 1.386 . S
C1258 C1260 1.391 . S
C1259 C1258 1.386 . S
C1259 C1263 1.393 . S
C1260 H1249 0.950 . S
C1260 C1258 1.391 . S
C1260 C1261 1.400 . S
C1261 C1255 1.491 . S
C1261 C1260 1.400 . S
C1261 C1262 1.398 . S
C1262 H1250 0.950 . S
C1262 C1261 1.398 . S
C1262 C1263 1.391 . S
C1263 H1251 0.950 . S
C1263 C1259 1.393 . S
C1263 C1262 1.391 . S
H1264 C1272 0.950 . S
H1265 C1277 0.950 . S
H1266 C1274 0.950 . S
H1267 C1276 0.950 1_455 S
H1268 C1278 0.950 . S
H1269 C1280 0.950 . S
H1270 C1282 0.950 1_655 S
H1271 C1283 0.950 . S
C1272 H1264 0.950 . S
C1272 C1273 1.386 . S
C1272 C1274 1.391 . S
C1273 C1272 1.386 . S
C1273 C1277 1.393 . S
C1274 H1266 0.950 . S
C1274 C1272 1.391 . S
C1274 C1275 1.400 . S
C1275 C1274 1.400 . S
C1275 C1276 1.398 . S
C1275 C1281 1.491 1_655 S
C1276 H1267 0.950 1_655 S
C1276 C1275 1.398 . S
C1276 C1277 1.391 . S
C1277 H1265 0.950 . S
C1277 C1273 1.393 . S
C1277 C1276 1.391 . S
C1278 H1268 0.950 . S
C1278 C1279 1.386 . S
C1278 C1280 1.391 . S
C1279 C1278 1.386 . S
C1279 C1283 1.393 . S
C1280 H1269 0.950 . S
C1280 C1278 1.391 . S
C1280 C1281 1.400 . S
C1281 C1275 1.491 1_455 S
C1281 C1280 1.400 . S
C1281 C1282 1.398 . S
C1282 H1270 0.950 1_455 S
C1282 C1281 1.398 . S
C1282 C1283 1.391 . S
C1283 H1271 0.950 . S
C1283 C1279 1.393 . S
C1283 C1282 1.391 . S
H1284 C1292 0.950 . S
H1285 C1297 0.950 . S
H1286 C1294 0.950 1_655 S
H1287 C1296 0.950 . S
H1288 C1298 0.950 . S
H1289 C1300 0.950 1_455 S
H1290 C1302 0.950 . S
H1291 C1303 0.950 . S
C1292 H1284 0.950 . S
C1292 C1293 1.386 . S
C1292 C1294 1.391 . S
C1293 C1292 1.386 . S
C1293 C1297 1.393 . S
C1294 H1286 0.950 1_455 S
C1294 C1292 1.391 . S
C1294 C1295 1.400 . S
C1295 C1294 1.400 . S
C1295 C1296 1.398 . S
C1295 C1301 1.491 1_455 S
C1296 H1287 0.950 . S
C1296 C1295 1.398 . S
C1296 C1297 1.391 . S
C1297 H1285 0.950 . S
C1297 C1293 1.393 . S
C1297 C1296 1.391 . S
C1298 H1288 0.950 . S
C1298 C1299 1.386 . S
C1298 C1300 1.391 . S
C1299 C1298 1.386 . S
C1299 C1303 1.393 . S
C1300 H1289 0.950 1_655 S
C1300 C1298 1.391 . S
C1300 C1301 1.400 . S
C1301 C1295 1.491 1_655 S
C1301 C1300 1.400 . S
C1301 C1302 1.398 . S
C1302 H1290 0.950 . S
C1302 C1301 1.398 . S
C1302 C1303 1.391 . S
C1303 H1291 0.950 . S
C1303 C1299 1.393 . S
C1303 C1302 1.391 . S
H1304 C1312 0.950 . S
H1305 C1317 0.950 . S
H1306 C1314 0.950 . S
H1307 C1316 0.950 1_655 S
H1308 C1318 0.950 . S
H1309 C1320 0.950 . S
H1310 C1322 0.950 1_455 S
H1311 C1323 0.950 . S
C1312 H1304 0.950 . S
C1312 C1313 1.386 . S
C1312 C1314 1.391 . S
C1313 C1312 1.386 . S
C1313 C1317 1.393 . S
C1314 H1306 0.950 . S
C1314 C1312 1.391 . S
C1314 C1315 1.400 . S
C1315 C1314 1.400 . S
C1315 C1316 1.398 . S
C1315 C1321 1.491 1_455 S
C1316 H1307 0.950 1_455 S
C1316 C1315 1.398 . S
C1316 C1317 1.391 . S
C1317 H1305 0.950 . S
C1317 C1313 1.393 . S
C1317 C1316 1.391 . S
C1318 H1308 0.950 . S
C1318 C1319 1.386 . S
C1318 C1320 1.391 . S
C1319 C1318 1.386 . S
C1319 C1323 1.393 . S
C1320 H1309 0.950 . S
C1320 C1318 1.391 . S
C1320 C1321 1.400 . S
C1321 C1315 1.491 1_655 S
C1321 C1320 1.400 . S
C1321 C1322 1.398 . S
C1322 H1310 0.950 1_655 S
C1322 C1321 1.398 . S
C1322 C1323 1.391 . S
C1323 H1311 0.950 . S
C1323 C1319 1.393 . S
C1323 C1322 1.391 . S
H1324 C1332 0.950 . S
H1325 C1337 0.950 . S
H1326 C1334 0.950 . S
H1327 C1336 0.950 1_455 S
H1328 C1338 0.950 . S
H1329 C1340 0.950 . S
H1330 C1342 0.950 1_655 S
H1331 C1343 0.950 . S
C1332 H1324 0.950 . S
C1332 C1333 1.386 . S
C1332 C1334 1.391 . S
C1333 C1332 1.386 . S
C1333 C1337 1.393 . S
C1334 H1326 0.950 . S
C1334 C1332 1.391 . S
C1334 C1335 1.400 . S
C1335 C1334 1.400 . S
C1335 C1336 1.398 . S
C1335 C1341 1.491 1_655 S
C1336 H1327 0.950 1_655 S
C1336 C1335 1.398 . S
C1336 C1337 1.391 . S
C1337 H1325 0.950 . S
C1337 C1333 1.393 . S
C1337 C1336 1.391 . S
C1338 H1328 0.950 . S
C1338 C1339 1.386 . S
C1338 C1340 1.391 . S
C1339 C1338 1.386 . S
C1339 C1343 1.393 . S
C1340 H1329 0.950 . S
C1340 C1338 1.391 . S
C1340 C1341 1.400 . S
C1341 C1335 1.491 1_455 S
C1341 C1340 1.400 . S
C1341 C1342 1.398 . S
C1342 H1330 0.950 1_455 S
C1342 C1341 1.398 . S
C1342 C1343 1.391 . S
C1343 H1331 0.950 . S
C1343 C1339 1.393 . S
C1343 C1342 1.391 . S
C553 C20 0.772 . S
C559 C509 0.756 . S
C573 C54 0.752 . S
C579 C543 0.758 . S
C593 C88 0.849 . S
C599 C441 0.844 . S
C613 C475 0.845 . S
C619 C122 0.851 . S
C633 C156 1.100 . S
C639 C373 1.091 . S
C653 C190 1.113 . S
C659 C407 1.110 . S
C673 C224 0.904 . S
C679 C274 0.912 . S
C693 C308 0.925 . S
C699 C258 0.922 . S
C713 C292 0.745 . S
C719 C237 0.770 . S
C733 C271 0.767 . S
C739 C326 0.757 . S
C753 C360 0.858 . S
C759 C169 0.860 . S
C773 C394 0.861 . S
C779 C203 0.861 . S
C793 C428 1.099 . S
C799 C101 1.089 . S
C813 C462 1.110 . S
C819 C135 1.105 . S
C833 C2 0.918 . S
C839 C496 0.910 . S
C853 C36 0.924 . S
C859 C530 0.926 . S
C873 C9 1.689 . S
C879 C379 1.689 . S
C893 C345 1.689 . S
C899 C43 1.692 . S
C913 C73 1.688 . S
C919 C315 1.693 . S
C933 C281 1.682 . S
C939 C107 1.698 . S
C953 C141 2.064 . S
C959 C515 2.048 . S
C973 C481 2.047 . S
C979 C175 2.056 . S
C993 C209 2.046 . S
C999 C447 2.057 . S
C1013 C243 2.045 . S
C1019 C413 2.057 . S
C1033 C5 1.948 . S
C1039 C77 1.793 . S
C1053 C39 1.946 . S
C1059 C111 1.772 . S
C1073 C145 1.420 . S
C1079 C213 1.437 . S
C1093 C247 1.442 . S
C1099 C179 1.414 . S
C1113 C349 1.799 . S
C1119 C277 1.944 . S
C1133 C383 1.796 . S
C1139 C311 1.941 . S
C1153 C417 1.405 . S
C1159 C485 1.430 . S
C1173 C451 1.397 . S
C1179 C519 1.450 . S
C1193 C67 1.279 . S
C1199 C33 1.278 . S
C1213 C70 1.488 . S
C1219 C104 1.487 . S
C1233 C138 1.680 . S
C1239 C172 1.680 . S
C1253 C240 1.709 . S
C1259 C206 1.708 . S
C1273 C305 1.265 . S
C1279 C339 1.265 . S
C1293 C376 1.468 . S
C1299 C342 1.469 . S
C1313 C410 1.690 . S
C1319 C444 1.690 . S
C1333 C512 1.707 . S
C1339 C478 1.708 . S
