# Generated by pormake.
# Topology unb, (4)-cn, num edge types: 1
# Building blocks:
#     Node 0, Type 0, BuildingBlock: QUQFOY_clean_sbu_1, # of connection points: 4
#     Node 1, Type 0, BuildingBlock: QUQFOY_clean_sbu_1, # of connection points: 4
#     Node 2, Type 0, BuildingBlock: QUQFOY_clean_sbu_1, # of connection points: 4
#     Node 3, Type 0, BuildingBlock: QUQFOY_clean_sbu_1, # of connection points: 4
#     Node 4, Type 0, BuildingBlock: QUQFOY_clean_sbu_1, # of connection points: 4
#     Node 5, Type 0, BuildingBlock: QUQFOY_clean_sbu_1, # of connection points: 4
#     Node 6, Type 0, BuildingBlock: QUQFOY_clean_sbu_1, # of connection points: 4
#     Node 7, Type 0, BuildingBlock: QUQFOY_clean_sbu_1, # of connection points: 4
#     Node 8, Type 0, BuildingBlock: QUQFOY_clean_sbu_1, # of connection points: 4
#     Node 9, Type 0, BuildingBlock: QUQFOY_clean_sbu_1, # of connection points: 4
#     Node 10, Type 0, BuildingBlock: QUQFOY_clean_sbu_1, # of connection points: 4
#     Node 11, Type 0, BuildingBlock: QUQFOY_clean_sbu_1, # of connection points: 4
#     Node 12, Type 0, BuildingBlock: QUQFOY_clean_sbu_1, # of connection points: 4
#     Node 13, Type 0, BuildingBlock: QUQFOY_clean_sbu_1, # of connection points: 4
#     Node 14, Type 0, BuildingBlock: QUQFOY_clean_sbu_1, # of connection points: 4
#     Node 15, Type 0, BuildingBlock: QUQFOY_clean_sbu_1, # of connection points: 4
#     Node 16, Type 0, BuildingBlock: QUQFOY_clean_sbu_1, # of connection points: 4
#     Node 17, Type 0, BuildingBlock: QUQFOY_clean_sbu_1, # of connection points: 4
#     Edge 18, Type (0, 0), BuildingBlock: ZUJKAS_clean_linker_0, # of connection points: 2
#     Edge 19, Type (0, 0), BuildingBlock: ZUJKAS_clean_linker_0, # of connection points: 2
#     Edge 20, Type (0, 0), BuildingBlock: ZUJKAS_clean_linker_0, # of connection points: 2
#     Edge 21, Type (0, 0), BuildingBlock: ZUJKAS_clean_linker_0, # of connection points: 2
#     Edge 22, Type (0, 0), BuildingBlock: ZUJKAS_clean_linker_0, # of connection points: 2
#     Edge 23, Type (0, 0), BuildingBlock: ZUJKAS_clean_linker_0, # of connection points: 2
#     Edge 24, Type (0, 0), BuildingBlock: ZUJKAS_clean_linker_0, # of connection points: 2
#     Edge 25, Type (0, 0), BuildingBlock: ZUJKAS_clean_linker_0, # of connection points: 2
#     Edge 26, Type (0, 0), BuildingBlock: ZUJKAS_clean_linker_0, # of connection points: 2
#     Edge 27, Type (0, 0), BuildingBlock: ZUJKAS_clean_linker_0, # of connection points: 2
#     Edge 28, Type (0, 0), BuildingBlock: ZUJKAS_clean_linker_0, # of connection points: 2
#     Edge 29, Type (0, 0), BuildingBlock: ZUJKAS_clean_linker_0, # of connection points: 2
#     Edge 30, Type (0, 0), BuildingBlock: ZUJKAS_clean_linker_0, # of connection points: 2
#     Edge 31, Type (0, 0), BuildingBlock: ZUJKAS_clean_linker_0, # of connection points: 2
#     Edge 32, Type (0, 0), BuildingBlock: ZUJKAS_clean_linker_0, # of connection points: 2
#     Edge 33, Type (0, 0), BuildingBlock: ZUJKAS_clean_linker_0, # of connection points: 2
#     Edge 34, Type (0, 0), BuildingBlock: ZUJKAS_clean_linker_0, # of connection points: 2
#     Edge 35, Type (0, 0), BuildingBlock: ZUJKAS_clean_linker_0, # of connection points: 2
#     Edge 36, Type (0, 0), BuildingBlock: ZUJKAS_clean_linker_0, # of connection points: 2
#     Edge 37, Type (0, 0), BuildingBlock: ZUJKAS_clean_linker_0, # of connection points: 2
#     Edge 38, Type (0, 0), BuildingBlock: ZUJKAS_clean_linker_0, # of connection points: 2
#     Edge 39, Type (0, 0), BuildingBlock: ZUJKAS_clean_linker_0, # of connection points: 2
#     Edge 40, Type (0, 0), BuildingBlock: ZUJKAS_clean_linker_0, # of connection points: 2
#     Edge 41, Type (0, 0), BuildingBlock: ZUJKAS_clean_linker_0, # of connection points: 2
#     Edge 42, Type (0, 0), BuildingBlock: ZUJKAS_clean_linker_0, # of connection points: 2
#     Edge 43, Type (0, 0), BuildingBlock: ZUJKAS_clean_linker_0, # of connection points: 2
#     Edge 44, Type (0, 0), BuildingBlock: ZUJKAS_clean_linker_0, # of connection points: 2
#     Edge 45, Type (0, 0), BuildingBlock: ZUJKAS_clean_linker_0, # of connection points: 2
#     Edge 46, Type (0, 0), BuildingBlock: ZUJKAS_clean_linker_0, # of connection points: 2
#     Edge 47, Type (0, 0), BuildingBlock: ZUJKAS_clean_linker_0, # of connection points: 2
#     Edge 48, Type (0, 0), BuildingBlock: ZUJKAS_clean_linker_0, # of connection points: 2
#     Edge 49, Type (0, 0), BuildingBlock: ZUJKAS_clean_linker_0, # of connection points: 2
#     Edge 50, Type (0, 0), BuildingBlock: ZUJKAS_clean_linker_0, # of connection points: 2
#     Edge 51, Type (0, 0), BuildingBlock: ZUJKAS_clean_linker_0, # of connection points: 2
#     Edge 52, Type (0, 0), BuildingBlock: ZUJKAS_clean_linker_0, # of connection points: 2
#     Edge 53, Type (0, 0), BuildingBlock: ZUJKAS_clean_linker_0, # of connection points: 2
# Relax obj value: 0.088
# Max RMSD: 0.099
# Mean RMSD: 0.099
data_MOF--net-unb--node1-QUQFOY_clean_sbu_1--edge1-ZUJKAS_clean_linker_0
_symmetry_space_group_name_H-M    P1
_symmetry_Int_Tables_number       1
_symmetry_cell_setting            triclinic
loop_
_symmetry_equiv_pos_as_xyz
'x, y, z'
_cell_length_a     81.73341
_cell_length_b     81.772312
_cell_length_c     36.707435
_cell_angle_alpha  90.016353
_cell_angle_beta   90.008917
_cell_angle_gamma 120.01249
loop_
_atom_site_label
_atom_site_type_symbol
_atom_site_fract_x
_atom_site_fract_y
_atom_site_fract_z
_atom_type_partial_charge
O0 O 0.17174 0.27493 0.08158 0.0
Cd1 Cd 0.16078 0.29267 0.08627 0.0
Cd2 Cd 0.12829 0.26094 0.06106 0.0
O3 O 0.1447 0.24882 0.07126 0.0
O4 O 0.1759 0.3121 0.12363 0.0
O5 O 0.14553 0.29109 0.1304 0.0
C6 C 0.16089 0.30499 0.1436 0.0
C7 C 0.0954 0.24072 0.06015 0.0
C8 C 0.16246 0.2572 0.07625 0.0
C9 C 0.14862 0.2962 0.01284 0.0
O10 O 0.13609 0.27903 0.01744 0.0
O11 O 0.16007 0.30547 0.03833 0.0
O12 O 0.10642 0.2388 0.03788 0.0
O13 O 0.10305 0.25369 0.08471 0.0
O14 O 0.72258 0.89863 0.08168 0.0
Cd15 Cd 0.70415 0.87035 0.09011 0.0
Cd16 Cd 0.73408 0.86667 0.05896 0.0
O17 O 0.74658 0.89568 0.06251 0.0
O18 O 0.68665 0.86811 0.12994 0.0
O19 O 0.70659 0.85727 0.13433 0.0
C20 C 0.69368 0.85986 0.14908 0.0
C21 C 0.75533 0.85534 0.05315 0.0
C22 C 0.73952 0.90598 0.07051 0.0
C23 C 0.69545 0.84972 0.02052 0.0
O24 O 0.71226 0.85281 0.02258 0.0
O25 O 0.6887 0.85547 0.04531 0.0
O26 O 0.7538 0.86575 0.02881 0.0
O27 O 0.74519 0.85176 0.08217 0.0
O28 O 0.09694 0.82439 0.08311 0.0
Cd29 Cd 0.125 0.83285 0.09099 0.0
Cd30 Cd 0.13055 0.86701 0.05765 0.0
O31 O 0.10149 0.8514 0.06068 0.0
O32 O 0.12647 0.81721 0.13101 0.0
O33 O 0.13891 0.84823 0.13493 0.0
C34 C 0.13552 0.83251 0.14989 0.0
C35 C 0.14254 0.89955 0.04851 0.0
C36 C 0.09043 0.83439 0.07013 0.0
C37 C 0.1453 0.84307 0.02067 0.0
O38 O 0.14356 0.85762 0.02241 0.0
O39 O 0.13885 0.83075 0.04581 0.0
O40 O 0.13208 0.88712 0.02496 0.0
O41 O 0.14592 0.8936 0.07854 0.0
O42 O 0.27253 0.17147 0.92541 0.0
Cd43 Cd 0.28989 0.16022 0.91737 0.0
Cd44 Cd 0.2582 0.12766 0.94401 0.0
O45 O 0.24644 0.14458 0.93679 0.0
O46 O 0.30849 0.17547 0.87894 0.0
O47 O 0.28727 0.14515 0.87231 0.0
C48 C 0.30096 0.16053 0.85876 0.0
C49 C 0.23692 0.09501 0.94673 0.0
C50 C 0.25492 0.16235 0.93216 0.0
C51 C 0.29503 0.14718 0.98863 0.0
O52 O 0.27767 0.13496 0.98514 0.0
O53 O 0.3038 0.15883 0.96314 0.0
O54 O 0.23676 0.10656 0.97019 0.0
O55 O 0.24869 0.10203 0.92003 0.0
O56 O 0.82527 0.10291 0.92676 0.0
Cd57 Cd 0.83677 0.13165 0.92147 0.0
Cd58 Cd 0.86892 0.13202 0.94739 0.0
O59 O 0.85218 0.10352 0.93693 0.0
O60 O 0.8217 0.13635 0.88468 0.0
O61 O 0.85168 0.14441 0.87646 0.0
C62 C 0.83645 0.1435 0.86398 0.0
C63 C 0.90174 0.14435 0.94816 0.0
C64 C 0.8344 0.0943 0.93198 0.0
C65 C 0.84909 0.14771 0.99471 0.0
O66 O 0.86135 0.14266 0.99083 0.0
O67 O 0.83788 0.14567 0.96888 0.0
O68 O 0.89066 0.1315 0.97051 0.0
O69 O 0.89417 0.14975 0.9236 0.0
O70 O 0.89509 0.7241 0.91873 0.0
Cd71 Cd 0.86654 0.70556 0.91232 0.0
Cd72 Cd 0.8643 0.7366 0.94165 0.0
O73 O 0.89295 0.74918 0.93317 0.0
O74 O 0.86358 0.68723 0.87351 0.0
O75 O 0.85296 0.70728 0.86808 0.0
C76 C 0.85528 0.69408 0.85399 0.0
C77 C 0.85267 0.75754 0.94881 0.0
C78 C 0.9029 0.74156 0.92658 0.0
C79 C 0.84904 0.69939 0.98481 0.0
O80 O 0.85307 0.71645 0.9817 0.0
O81 O 0.85239 0.6912 0.95884 0.0
O82 O 0.8646 0.75718 0.971 0.0
O83 O 0.84774 0.74646 0.92096 0.0
O84 O 0.83068 0.60056 0.41934 0.0
Cd85 Cd 0.82205 0.62032 0.42315 0.0
Cd86 Cd 0.78846 0.59027 0.39384 0.0
O87 O 0.80312 0.57635 0.40329 0.0
O88 O 0.83811 0.63894 0.46103 0.0
O89 O 0.8072 0.62023 0.46695 0.0
C90 C 0.82308 0.63308 0.48059 0.0
C91 C 0.75547 0.57141 0.38927 0.0
C92 C 0.82046 0.58319 0.41129 0.0
C93 C 0.81181 0.62635 0.34909 0.0
O94 O 0.79825 0.60954 0.35233 0.0
O95 O 0.82317 0.63441 0.37542 0.0
O96 O 0.76671 0.56967 0.3673 0.0
O97 O 0.7629 0.58343 0.4155 0.0
O98 O 0.3861 0.22898 0.41653 0.0
Cd99 Cd 0.36938 0.2003 0.42484 0.0
Cd100 Cd 0.401 0.20004 0.39897 0.0
O101 O 0.41246 0.22873 0.40514 0.0
O102 O 0.35064 0.19652 0.46328 0.0
O103 O 0.3725 0.18828 0.47003 0.0
C104 C 0.35856 0.18954 0.48356 0.0
C105 C 0.42207 0.18843 0.40061 0.0
C106 C 0.40369 0.23775 0.40956 0.0
C107 C 0.36465 0.18204 0.35363 0.0
O108 O 0.38211 0.18758 0.35704 0.0
O109 O 0.35573 0.18468 0.37918 0.0
O110 O 0.42295 0.19995 0.37591 0.0
O111 O 0.40962 0.18398 0.42597 0.0
O112 O 0.7648 0.16147 0.42183 0.0
Cd113 Cd 0.79259 0.16896 0.43043 0.0
Cd114 Cd 0.80055 0.20319 0.39585 0.0
O115 O 0.77143 0.1881 0.39427 0.0
O116 O 0.79376 0.15336 0.47083 0.0
O117 O 0.80642 0.18443 0.47429 0.0
C118 C 0.80298 0.16874 0.48942 0.0
C119 C 0.8138 0.23605 0.3902 0.0
C120 C 0.75945 0.17165 0.40533 0.0
C121 C 0.81491 0.17865 0.36193 0.0
O122 O 0.8146 0.194 0.36302 0.0
O123 O 0.80652 0.16606 0.38612 0.0
O124 O 0.80408 0.22458 0.36466 0.0
O125 O 0.81571 0.22891 0.42013 0.0
O126 O 0.93612 0.50476 0.26064 0.0
Cd127 Cd 0.95823 0.49992 0.25224 0.0
Cd128 Cd 0.93565 0.46571 0.28983 0.0
O129 O 0.92048 0.47954 0.29531 0.0
O130 O 0.97342 0.51559 0.21029 0.0
O131 O 0.95816 0.4843 0.20989 0.0
C132 C 0.96877 0.50007 0.19315 0.0
C133 C 0.91694 0.43289 0.29891 0.0
C134 C 0.92237 0.49467 0.28167 0.0
C135 C 0.97429 0.49338 0.31982 0.0
O136 O 0.96048 0.4766 0.31838 0.0
O137 O 0.97584 0.50564 0.29672 0.0
O138 O 0.92022 0.44487 0.32438 0.0
O139 O 0.92417 0.43943 0.26735 0.0
O140 O 0.4867 0.43288 0.26144 0.0
Cd141 Cd 0.49946 0.46193 0.25804 0.0
Cd142 Cd 0.5296 0.45938 0.27786 0.0
O143 O 0.51306 0.43178 0.26169 0.0
O144 O 0.48502 0.468 0.22211 0.0
O145 O 0.51469 0.47505 0.21357 0.0
C146 C 0.49975 0.47488 0.20136 0.0
C147 C 0.56253 0.4736 0.27491 0.0
C148 C 0.49513 0.42337 0.26085 0.0
C149 C 0.51189 0.47376 0.33268 0.0
O150 O 0.52211 0.46646 0.32619 0.0
O151 O 0.50239 0.47557 0.30715 0.0
O152 O 0.55249 0.45899 0.29473 0.0
O153 O 0.55378 0.4796 0.25446 0.0
O154 O 0.56327 0.06141 0.25618 0.0
Cd155 Cd 0.53575 0.04035 0.24793 0.0
Cd156 Cd 0.52714 0.06602 0.28686 0.0
O157 O 0.55628 0.08014 0.28766 0.0
O158 O 0.53565 0.02461 0.20643 0.0
O159 O 0.52094 0.04114 0.20489 0.0
C160 C 0.52547 0.02992 0.18869 0.0
C161 C 0.5144 0.08558 0.30021 0.0
C162 C 0.56841 0.0764 0.27446 0.0
C163 C 0.51351 0.02614 0.31618 0.0
O164 O 0.5131 0.04144 0.31604 0.0
O165 O 0.52255 0.02283 0.29189 0.0
O166 O 0.52391 0.08209 0.32355 0.0
O167 O 0.51233 0.07831 0.26818 0.0
O168 O 0.50715 0.94273 0.75165 0.0
Cd169 Cd 0.49666 0.96083 0.75714 0.0
Cd170 Cd 0.46355 0.92956 0.7308 0.0
O171 O 0.47996 0.91725 0.73879 0.0
O172 O 0.51151 0.97963 0.79559 0.0
O173 O 0.48097 0.95884 0.80079 0.0
C174 C 0.49625 0.97247 0.81484 0.0
C175 C 0.43078 0.90875 0.72822 0.0
C176 C 0.49762 0.92517 0.74469 0.0
C177 C 0.48434 0.96582 0.68492 0.0
O178 O 0.47128 0.94884 0.68923 0.0
O179 O 0.4964 0.97437 0.70993 0.0
O180 O 0.44218 0.90825 0.70484 0.0
O181 O 0.438 0.92064 0.75469 0.0
O182 O 0.05982 0.56493 0.7529 0.0
Cd183 Cd 0.03753 0.53801 0.76047 0.0
Cd184 Cd 0.06073 0.52689 0.72326 0.0
O185 O 0.07659 0.55596 0.72009 0.0
O186 O 0.02207 0.53858 0.80186 0.0
O187 O 0.03705 0.52229 0.803 0.0
C188 C 0.02643 0.52758 0.8193 0.0
C189 C 0.07852 0.51174 0.71523 0.0
C190 C 0.07424 0.56895 0.73355 0.0
C191 C 0.02237 0.51652 0.69157 0.0
O192 O 0.0365 0.51405 0.69268 0.0
O193 O 0.02017 0.52643 0.71563 0.0
O194 O 0.07624 0.52109 0.68967 0.0
O195 O 0.07097 0.51117 0.7464 0.0
O196 O 0.43132 0.49481 0.75721 0.0
Cd197 Cd 0.45914 0.50242 0.76678 0.0
Cd198 Cd 0.46648 0.53661 0.73001 0.0
O199 O 0.43742 0.52124 0.72951 0.0
O200 O 0.4594 0.48672 0.80808 0.0
O201 O 0.47293 0.51788 0.81079 0.0
C202 C 0.46879 0.50212 0.82655 0.0
C203 C 0.4788 0.56911 0.7198 0.0
C204 C 0.42569 0.50476 0.74074 0.0
C205 C 0.48142 0.51183 0.69823 0.0
O206 O 0.48041 0.52682 0.69843 0.0
O207 O 0.4736 0.49955 0.7232 0.0
O208 O 0.46923 0.55662 0.69564 0.0
O209 O 0.48119 0.56325 0.75087 0.0
O210 O 0.6073 0.84042 0.58989 0.0
Cd211 Cd 0.62542 0.83011 0.58244 0.0
Cd212 Cd 0.59462 0.79676 0.61115 0.0
O213 O 0.58234 0.81336 0.60553 0.0
O214 O 0.64362 0.84543 0.54357 0.0
O215 O 0.62323 0.81481 0.53802 0.0
C216 C 0.63652 0.8303 0.52396 0.0
C217 C 0.57341 0.76414 0.61544 0.0
C218 C 0.58999 0.83092 0.59883 0.0
C219 C 0.63228 0.81769 0.65309 0.0
O220 O 0.61529 0.80442 0.65007 0.0
O221 O 0.63996 0.83 0.62818 0.0
O222 O 0.57398 0.77588 0.63928 0.0
O223 O 0.58446 0.77092 0.58764 0.0
O224 O 0.16121 0.7647 0.58722 0.0
Cd225 Cd 0.16764 0.79233 0.58135 0.0
Cd226 Cd 0.20246 0.80007 0.61641 0.0
O227 O 0.18798 0.77099 0.61389 0.0
O228 O 0.15138 0.79298 0.54163 0.0
O229 O 0.1826 0.80755 0.5381 0.0
C230 C 0.1666 0.8032 0.52313 0.0
C231 C 0.23509 0.81328 0.62689 0.0
C232 C 0.17163 0.75916 0.60208 0.0
C233 C 0.17648 0.81258 0.65207 0.0
O234 O 0.19194 0.81249 0.65034 0.0
O235 O 0.16406 0.80485 0.62729 0.0
O236 O 0.22262 0.80266 0.65023 0.0
O237 O 0.22915 0.81617 0.59635 0.0
O238 O 0.23072 0.39387 0.58649 0.0
Cd239 Cd 0.20344 0.37253 0.57712 0.0
Cd240 Cd 0.19373 0.39696 0.61515 0.0
O241 O 0.22284 0.41176 0.61852 0.0
O242 O 0.20377 0.35744 0.53478 0.0
O243 O 0.18862 0.37357 0.53435 0.0
C244 C 0.19342 0.36271 0.51751 0.0
C245 C 0.17941 0.41542 0.62457 0.0
C246 C 0.23536 0.40852 0.60558 0.0
C247 C 0.18063 0.35729 0.64433 0.0
O248 O 0.17972 0.37232 0.64416 0.0
O249 O 0.19019 0.35448 0.62041 0.0
O250 O 0.18859 0.41259 0.64972 0.0
O251 O 0.1787 0.40821 0.59295 0.0
H252 H 0.17035 0.36984 0.47404 0.0
H253 H 0.16098 0.3597 0.41085 0.0
H254 H 0.19418 0.33208 0.41146 0.0
H255 H 0.20326 0.34178 0.47451 0.0
H256 H 0.18271 0.36781 0.35003 0.0
H257 H 0.14422 0.29061 0.37269 0.0
H258 H 0.15077 0.30734 0.40957 0.0
H259 H 0.16771 0.30167 0.39095 0.0
C260 C 0.17553 0.36149 0.46078 0.0
C261 C 0.18746 0.35653 0.47941 0.0
C262 C 0.17017 0.35571 0.42467 0.0
C263 C 0.17658 0.34482 0.4066 0.0
C264 C 0.18864 0.34003 0.42508 0.0
H265 H 0.19173 0.33217 0.17974 0.0
H266 H 0.19365 0.34228 0.24285 0.0
C267 C 0.19393 0.34572 0.46112 0.0
C268 C 0.17139 0.33907 0.36798 0.0
H269 H 0.15371 0.30091 0.31112 0.0
C270 C 0.17615 0.35316 0.34156 0.0
C271 C 0.16251 0.31993 0.35692 0.0
C272 C 0.15582 0.30401 0.38408 0.0
C273 C 0.17308 0.34871 0.30429 0.0
C274 C 0.16539 0.32969 0.29307 0.0
C275 C 0.15982 0.31552 0.31962 0.0
C276 C 0.16384 0.32424 0.25402 0.0
C277 C 0.17813 0.36446 0.27734 0.0
C278 C 0.1465 0.31042 0.23931 0.0
C279 C 0.14538 0.30442 0.20317 0.0
C280 C 0.16162 0.31209 0.18111 0.0
C281 C 0.17891 0.32607 0.19583 0.0
C282 C 0.18002 0.33198 0.23192 0.0
H283 H 0.1777 0.37654 0.2902 0.0
H284 H 0.19274 0.3697 0.26737 0.0
H285 H 0.16842 0.35954 0.25358 0.0
H286 H 0.13385 0.30414 0.25592 0.0
H287 H 0.13186 0.29359 0.19273 0.0
H288 H 0.66086 0.86151 0.48509 0.0
H289 H 0.6703 0.86313 0.42158 0.0
H290 H 0.63697 0.80245 0.41342 0.0
H291 H 0.62697 0.80074 0.47694 0.0
H292 H 0.68918 0.84882 0.38604 0.0
H293 H 0.61685 0.81882 0.32886 0.0
H294 H 0.62218 0.82588 0.37589 0.0
H295 H 0.61955 0.80375 0.36089 0.0
C296 C 0.65553 0.84847 0.46987 0.0
C297 C 0.64303 0.831 0.48602 0.0
C298 C 0.66098 0.84943 0.43353 0.0
C299 C 0.65411 0.83295 0.4125 0.0
C300 C 0.64209 0.8154 0.42883 0.0
H301 H 0.70291 0.83923 0.19509 0.0
H302 H 0.69309 0.83074 0.25863 0.0
C303 C 0.63649 0.81443 0.46521 0.0
C304 C 0.65948 0.8344 0.37345 0.0
H305 H 0.64146 0.82597 0.28711 0.0
C306 C 0.67875 0.84374 0.36437 0.0
C307 C 0.64585 0.82794 0.34521 0.0
C308 C 0.62496 0.81869 0.35306 0.0
C309 C 0.6848 0.84711 0.32793 0.0
C310 C 0.67117 0.84052 0.2997 0.0
C311 C 0.65189 0.83087 0.30876 0.0
C312 C 0.67656 0.84473 0.2607 0.0
C313 C 0.70572 0.85841 0.32013 0.0
C314 C 0.67 0.85482 0.24034 0.0
C315 C 0.67535 0.85943 0.20398 0.0
C316 C 0.68743 0.85411 0.18716 0.0
C317 C 0.69372 0.84368 0.20735 0.0
C318 C 0.68821 0.83891 0.24373 0.0
H319 H 0.71393 0.86628 0.34453 0.0
H320 H 0.71079 0.84869 0.31166 0.0
H321 H 0.70873 0.86866 0.29774 0.0
H322 H 0.66096 0.85942 0.25278 0.0
H323 H 0.67023 0.86746 0.18926 0.0
H324 H 0.13486 0.79441 0.48402 0.0
H325 H 0.13277 0.80259 0.42094 0.0
H326 H 0.19358 0.83389 0.41378 0.0
H327 H 0.19582 0.82542 0.47692 0.0
H328 H 0.14582 0.83676 0.38703 0.0
H329 H 0.17903 0.79784 0.32767 0.0
H330 H 0.17139 0.795 0.3745 0.0
H331 H 0.19317 0.8154 0.36091 0.0
C332 C 0.14782 0.80307 0.46912 0.0
C333 C 0.16552 0.80914 0.48546 0.0
C334 C 0.14659 0.80776 0.43303 0.0
C335 C 0.163 0.81861 0.41242 0.0
C336 C 0.18072 0.82517 0.42892 0.0
H337 H 0.15591 0.86212 0.19668 0.0
H338 H 0.16436 0.86045 0.26013 0.0
C339 C 0.18198 0.82041 0.46507 0.0
C340 C 0.16134 0.8227 0.37358 0.0
H341 H 0.17053 0.81455 0.28674 0.0
C342 C 0.15133 0.83202 0.36507 0.0
C343 C 0.16836 0.81631 0.34498 0.0
C344 C 0.17845 0.80543 0.3523 0.0
C345 C 0.14787 0.83487 0.32877 0.0
C346 C 0.15497 0.82856 0.30017 0.0
C347 C 0.16524 0.81951 0.30869 0.0
C348 C 0.15071 0.82994 0.26129 0.0
C349 C 0.136 0.84391 0.32144 0.0
C350 C 0.14078 0.81342 0.2405 0.0
C351 C 0.13612 0.81434 0.20424 0.0
C352 C 0.14131 0.83182 0.1879 0.0
C353 C 0.1516 0.84842 0.20852 0.0
C354 C 0.15634 0.84749 0.24485 0.0
H355 H 0.12807 0.84391 0.34601 0.0
H356 H 0.14533 0.85879 0.31299 0.0
H357 H 0.12575 0.83647 0.29911 0.0
H358 H 0.13633 0.79973 0.25255 0.0
H359 H 0.12821 0.80127 0.18918 0.0
H360 H 0.33378 0.19589 0.52218 0.0
H361 H 0.32449 0.18825 0.58579 0.0
H362 H 0.35897 0.16216 0.59468 0.0
H363 H 0.36887 0.17037 0.53111 0.0
H364 H 0.30617 0.15563 0.62165 0.0
H365 H 0.3783 0.19824 0.67928 0.0
H366 H 0.37309 0.19977 0.63209 0.0
H367 H 0.37593 0.18047 0.64761 0.0
C368 C 0.33941 0.18851 0.5376 0.0
C369 C 0.35219 0.18387 0.52163 0.0
C370 C 0.33405 0.18413 0.57402 0.0
C371 C 0.34127 0.17491 0.5953 0.0
C372 C 0.35358 0.16971 0.57913 0.0
H373 H 0.29159 0.1311 0.81152 0.0
H374 H 0.30167 0.13296 0.74804 0.0
C375 C 0.35913 0.17429 0.54271 0.0
C376 C 0.33586 0.17097 0.63437 0.0
H377 H 0.35374 0.18019 0.72085 0.0
C378 C 0.31657 0.16093 0.64336 0.0
C379 C 0.34944 0.17809 0.66272 0.0
C380 C 0.37034 0.18989 0.65507 0.0
C381 C 0.31047 0.1581 0.67978 0.0
C382 C 0.32404 0.165 0.70812 0.0
C383 C 0.34334 0.17476 0.69914 0.0
C384 C 0.31859 0.16348 0.74718 0.0
C385 C 0.28953 0.14845 0.6874 0.0
C386 C 0.32533 0.17992 0.76831 0.0
C387 C 0.31987 0.17887 0.80469 0.0
C388 C 0.30747 0.16134 0.82076 0.0
C389 C 0.30102 0.14483 0.79984 0.0
C390 C 0.30667 0.14588 0.76347 0.0
H391 H 0.28142 0.14849 0.66314 0.0
H392 H 0.28437 0.13353 0.69501 0.0
H393 H 0.28647 0.15541 0.71028 0.0
H394 H 0.33457 0.19366 0.75644 0.0
H395 H 0.32511 0.19187 0.81999 0.0
H396 H 0.81481 0.19625 0.54184 0.0
H397 H 0.82265 0.19411 0.60543 0.0
H398 H 0.81306 0.13798 0.58558 0.0
H399 H 0.80456 0.13976 0.52257 0.0
H400 H 0.79564 0.13844 0.64504 0.0
H401 H 0.86912 0.19833 0.65126 0.0
H402 H 0.85261 0.20533 0.63648 0.0
H403 H 0.85661 0.18949 0.60881 0.0
C404 C 0.81456 0.18354 0.55098 0.0
C405 C 0.80904 0.16817 0.5272 0.0
C406 C 0.81918 0.18238 0.58729 0.0
C407 C 0.81873 0.16599 0.60026 0.0
C408 C 0.81355 0.15079 0.57627 0.0
H409 H 0.86114 0.15059 0.80771 0.0
H410 H 0.85724 0.15683 0.74391 0.0
C411 C 0.80869 0.15183 0.54021 0.0
C412 C 0.82244 0.16405 0.63926 0.0
H413 H 0.85463 0.18444 0.70807 0.0
C414 C 0.8086 0.14847 0.65872 0.0
C415 C 0.83943 0.177 0.6571 0.0
C416 C 0.85537 0.19337 0.63726 0.0
C417 C 0.81117 0.14552 0.69542 0.0
C418 C 0.8278 0.15888 0.7137 0.0
C419 C 0.84177 0.17436 0.6942 0.0
C420 C 0.83101 0.15673 0.75284 0.0
C421 C 0.79619 0.12782 0.71389 0.0
C422 C 0.81792 0.15523 0.77928 0.0
C423 C 0.81999 0.15144 0.81558 0.0
C424 C 0.83541 0.14945 0.82635 0.0
C425 C 0.84909 0.15202 0.80025 0.0
C426 C 0.84688 0.15558 0.76379 0.0
H427 H 0.78747 0.11666 0.69379 0.0
H428 H 0.80257 0.12208 0.73305 0.0
H429 H 0.78661 0.13117 0.7295 0.0
H430 H 0.80587 0.15663 0.77172 0.0
H431 H 0.80933 0.14979 0.83511 0.0
H432 H 0.86188 0.66948 0.81527 0.0
H433 H 0.85377 0.65973 0.75193 0.0
H434 H 0.82667 0.69328 0.74354 0.0
H435 H 0.83522 0.70354 0.80688 0.0
H436 H 0.82034 0.64076 0.71714 0.0
H437 H 0.8625 0.71253 0.65785 0.0
H438 H 0.86457 0.70754 0.70494 0.0
H439 H 0.84507 0.71025 0.69032 0.0
C440 C 0.85417 0.67479 0.80004 0.0
C441 C 0.84932 0.68741 0.81611 0.0
C442 C 0.84952 0.66918 0.76377 0.0
C443 C 0.83988 0.676 0.7427 0.0
C444 C 0.83451 0.68817 0.75895 0.0
H445 H 0.79408 0.62533 0.52799 0.0
H446 H 0.7966 0.63614 0.59112 0.0
C447 C 0.83929 0.69393 0.79525 0.0
C448 C 0.83565 0.67035 0.70377 0.0
H449 H 0.84432 0.68768 0.61689 0.0
C450 C 0.8255 0.65102 0.6952 0.0
C451 C 0.84259 0.68374 0.67513 0.0
C452 C 0.85444 0.70467 0.68237 0.0
C453 C 0.82232 0.6447 0.6589 0.0
C454 C 0.82907 0.65809 0.63026 0.0
C455 C 0.83899 0.67743 0.63883 0.0
C456 C 0.82718 0.65235 0.59131 0.0
C457 C 0.81245 0.62372 0.65165 0.0
C458 C 0.84344 0.65847 0.56992 0.0
C459 C 0.84203 0.65255 0.53376 0.0
C460 C 0.82429 0.64034 0.51814 0.0
C461 C 0.80795 0.63462 0.53927 0.0
C462 C 0.80939 0.64068 0.57546 0.0
H463 H 0.81242 0.61568 0.67607 0.0
H464 H 0.79755 0.61869 0.64402 0.0
H465 H 0.8193 0.62046 0.62886 0.0
H466 H 0.85732 0.66753 0.58146 0.0
H467 H 0.85491 0.65725 0.51831 0.0
H468 H 0.96043 0.4701 0.14801 0.0
H469 H 0.97058 0.47127 0.08471 0.0
H470 H 0.00142 0.53212 0.08911 0.0
H471 H 0.99157 0.53111 0.15219 0.0
H472 H 0.96368 0.48797 0.0253 0.0
H473 H 0.04065 0.52011 0.04818 0.0
H474 H 0.02361 0.5098 0.08456 0.0
H475 H 0.03103 0.53335 0.0689 0.0
C476 C 0.96951 0.48372 0.13559 0.0
C477 C 0.97524 0.50051 0.15523 0.0
C478 C 0.97528 0.48436 0.09941 0.0
C479 C 0.98702 0.50177 0.08237 0.0
C480 C 0.99273 0.51851 0.10194 0.0
H481 H 0.00342 0.53596 0.85923 0.0
H482 H 0.99331 0.5274 0.92227 0.0
C483 C 0.98697 0.5179 0.13798 0.0
C484 C 0.99259 0.50261 0.0436 0.0
H485 H 0.03091 0.52126 0.98706 0.0
C486 C 0.97837 0.49504 0.01694 0.0
C487 C 0.01176 0.51158 0.03271 0.0
C488 C 0.02764 0.519 0.06011 0.0
C489 C 0.98283 0.49698 0.97965 0.0
C490 C 0.002 0.50699 0.96874 0.0
C491 C 0.01621 0.51377 0.99541 0.0
C492 C 0.00761 0.51142 0.92992 0.0
C493 C 0.96694 0.48838 0.95227 0.0
C494 C 0.01934 0.50559 0.91337 0.0
C495 C 0.02527 0.51056 0.87722 0.0
C496 C 0.01969 0.5216 0.85711 0.0
C497 C 0.00791 0.52737 0.87382 0.0
C498 C 0.002 0.52238 0.90984 0.0
H499 H 0.9539 0.4766 0.96438 0.0
H500 H 0.96362 0.49932 0.94303 0.0
H501 H 0.97094 0.483 0.92807 0.0
H502 H 0.02396 0.49725 0.92847 0.0
H503 H 0.03438 0.50595 0.86521 0.0
H504 H 0.46904 0.47181 0.16571 0.0
H505 H 0.46695 0.4795 0.10229 0.0
H506 H 0.5266 0.50046 0.08862 0.0
H507 H 0.52871 0.49225 0.15199 0.0
H508 H 0.48327 0.51175 0.06368 0.0
H509 H 0.50472 0.46225 0.0073 0.0
H510 H 0.4992 0.46238 0.05482 0.0
H511 H 0.52183 0.47985 0.03725 0.0
C512 C 0.48177 0.47815 0.14933 0.0
C513 C 0.49902 0.48126 0.16387 0.0
C514 C 0.48054 0.48255 0.11302 0.0
C515 C 0.49653 0.49022 0.0904 0.0
C516 C 0.51396 0.4941 0.10524 0.0
H517 H 0.49174 0.53186 0.87115 0.0
H518 H 0.50015 0.53045 0.93473 0.0
C519 C 0.51518 0.48953 0.14156 0.0
C520 C 0.49465 0.49367 0.05122 0.0
H521 H 0.49945 0.48085 0.96502 0.0
C522 C 0.48689 0.50507 0.04207 0.0
C523 C 0.49915 0.48475 0.02304 0.0
C524 C 0.50652 0.47148 0.03097 0.0
C525 C 0.48327 0.50758 0.00567 0.0
C526 C 0.48797 0.49883 0.97747 0.0
C527 C 0.49599 0.48767 0.9866 0.0
C528 C 0.48353 0.49997 0.93855 0.0
C529 C 0.47372 0.51894 0.99792 0.0
C530 C 0.47192 0.48332 0.91911 0.0
C531 C 0.46733 0.48407 0.88272 0.0
C532 C 0.47422 0.50152 0.86488 0.0
C533 C 0.48607 0.51821 0.88418 0.0
C534 C 0.4908 0.51743 0.92061 0.0
H535 H 0.46679 0.52057 0.02261 0.0
H536 H 0.48444 0.53326 0.98857 0.0
H537 H 0.4629 0.51221 0.97619 0.0
H538 H 0.46617 0.46969 0.93228 0.0
H539 H 0.45818 0.47094 0.8687 0.0
H540 H 0.50292 0.0373 0.14418 0.0
H541 H 0.4938 0.02697 0.081 0.0
H542 H 0.52595 -0.00173 0.08398 0.0
H543 H 0.53478 0.00815 0.14702 0.0
H544 H 0.51598 0.03465 0.0212 0.0
H545 H 0.47613 0.95746 0.0436 0.0
H546 H 0.4826 0.9742 0.08046 0.0
H547 H 0.49941 0.96809 0.06279 0.0
C548 C 0.5079 0.02865 0.13146 0.0
C549 C 0.5195 0.02347 0.15073 0.0
C550 C 0.50268 0.02277 0.09536 0.0
C551 C 0.50889 0.01154 0.07794 0.0
C552 C 0.52056 0.00648 0.0971 0.0
H553 H 0.52678 -0.00101 0.8527 0.0
H554 H 0.52791 0.00885 0.91576 0.0
C555 C 0.52571 0.01227 0.13313 0.0
C556 C 0.50403 0.00585 0.03921 0.0
H557 H 0.4866 0.96772 0.98231 0.0
C558 C 0.50932 0.02 0.01273 0.0
C559 C 0.49503 0.9867 0.02812 0.0
C560 C 0.48778 0.97074 0.05529 0.0
C561 C 0.50669 0.01559 0.97541 0.0
C562 C 0.49892 0.99656 0.96423 0.0
C563 C 0.49279 0.98234 0.99079 0.0
C564 C 0.49789 0.99116 0.92526 0.0
C565 C 0.51231 0.03141 0.94836 0.0
C566 C 0.48069 0.97758 0.90968 0.0
C567 C 0.48002 0.97172 0.87357 0.0
C568 C 0.49657 0.97929 0.85243 0.0
C569 C 0.51373 0.99298 0.86806 0.0
C570 C 0.51439 -0.00125 0.90412 0.0
H571 H 0.51189 0.04358 0.96085 0.0
H572 H 0.52702 0.03648 0.93921 0.0
H573 H 0.50293 0.02663 0.92411 0.0
H574 H 0.46779 0.97142 0.92556 0.0
H575 H 0.46659 0.96111 0.8624 0.0
H576 H 0.17998 0.32618 0.98255 0.0
H577 H 0.18444 0.33561 0.91825 0.0
H578 H 0.12643 0.29383 0.89601 0.0
H579 H 0.12198 0.28415 0.95971 0.0
H580 H 0.1514 0.29118 0.84961 0.0
H581 H 0.1659 0.3651 0.85815 0.0
H582 H 0.18078 0.36004 0.88637 0.0
H583 H 0.15587 0.34869 0.89555 0.0
C584 C 0.16808 0.31933 0.9641 0.0
C585 C 0.15066 0.3044 0.97614 0.0
C586 C 0.17064 0.32471 0.92738 0.0
C587 C 0.15574 0.31541 0.9024 0.0
C588 C 0.13813 0.30111 0.9148 0.0
H589 H 0.15058 0.35147 0.68527 0.0
H590 H 0.14322 0.33854 0.74685 0.0
C591 C 0.13561 0.29566 0.95125 0.0
C592 C 0.15861 0.31968 0.86296 0.0
H593 H 0.16986 0.35456 0.8005 0.0
C594 C 0.15541 0.30503 0.83879 0.0
C595 C 0.16372 0.33771 0.84902 0.0
C596 C 0.16662 0.35377 0.87353 0.0
C597 C 0.15712 0.30792 0.80097 0.0
C598 C 0.16246 0.32601 0.78708 0.0
C599 C 0.16575 0.34068 0.81127 0.0
C600 C 0.16451 0.3302 0.74756 0.0
C601 C 0.15281 0.29151 0.77622 0.0
C602 C 0.17831 0.32895 0.72689 0.0
C603 C 0.18236 0.33609 0.69134 0.0
C604 C 0.17286 0.34485 0.67636 0.0
C605 C 0.15815 0.34482 0.69619 0.0
C606 C 0.154 0.33754 0.73144 0.0
H607 H 0.14434 0.27774 0.79032 0.0
H608 H 0.145 0.29169 0.7516 0.0
H609 H 0.16626 0.29256 0.76724 0.0
H610 H 0.18677 0.32357 0.73899 0.0
H611 H 0.19393 0.33615 0.67684 0.0
H612 H 0.66013 0.84994 0.68484 0.0
H613 H 0.67105 0.85344 0.74803 0.0
H614 H 0.63703 0.79319 0.76333 0.0
H615 H 0.62569 0.78969 0.70075 0.0
H616 H 0.63007 0.81213 0.81486 0.0
H617 H 0.70743 0.84208 0.8011 0.0
H618 H 0.69882 0.85539 0.77716 0.0
H619 H 0.69141 0.83158 0.76325 0.0
C620 C 0.65542 0.83741 0.70141 0.0
C621 C 0.64204 0.81956 0.68797 0.0
C622 C 0.66165 0.83942 0.73751 0.0
C623 C 0.65489 0.82355 0.76036 0.0
C624 C 0.64237 0.80562 0.74623 0.0
H625 H 0.6993 0.82577 0.97489 0.0
H626 H 0.68722 0.81737 0.91284 0.0
C627 C 0.63597 0.80364 0.71043 0.0
C628 C 0.65948 0.82568 0.79974 0.0
H629 H 0.69599 0.84303 0.86027 0.0
C630 C 0.64449 0.81876 0.82483 0.0
C631 C 0.67826 0.83423 0.81265 0.0
C632 C 0.6949 0.84108 0.78715 0.0
C633 C 0.64777 0.82025 0.86251 0.0
C634 C 0.66658 0.82932 0.87541 0.0
C635 C 0.68156 0.83613 0.85032 0.0
C636 C 0.67123 0.83191 0.91477 0.0
C637 C 0.63107 0.81182 0.88805 0.0
C638 C 0.66567 0.84229 0.93694 0.0
C639 C 0.6723 0.84684 0.97276 0.0
C640 C 0.68489 0.84139 0.98655 0.0
C641 C 0.68964 0.83019 0.9649 0.0
C642 C 0.68282 0.82545 0.92941 0.0
H643 H 0.61811 0.80075 0.87436 0.0
H644 H 0.63388 0.80553 0.91238 0.0
H645 H 0.62825 0.82308 0.89736 0.0
H646 H 0.65702 0.84772 0.92602 0.0
H647 H 0.66863 0.85569 0.98869 0.0
H648 H 0.16853 0.86922 0.97156 0.0
H649 H 0.17365 0.86348 0.90848 0.0
H650 H 0.14236 0.80342 0.9276 0.0
H651 H 0.13732 0.80905 0.99122 0.0
H652 H 0.17456 0.81573 0.8817 0.0
H653 H 0.12853 0.84389 0.83734 0.0
H654 H 0.14783 0.85984 0.86585 0.0
H655 H 0.12977 0.83769 0.88406 0.0
C656 C 0.16309 0.85478 0.96261 0.0
C657 C 0.15233 0.83956 0.98619 0.0
C658 C 0.1659 0.85154 0.92649 0.0
C659 C 0.15787 0.83304 0.91321 0.0
C660 C 0.14846 0.8178 0.93735 0.0
H661 H 0.14186 0.80158 0.68252 0.0
H662 H 0.13602 0.80657 0.74607 0.0
C663 C 0.14572 0.82104 0.97371 0.0
C664 C 0.15852 0.82977 0.87375 0.0
H665 H 0.14601 0.83903 0.79073 0.0
C666 C 0.16822 0.8207 0.8618 0.0
C667 C 0.14987 0.83593 0.84793 0.0
C668 C 0.13824 0.84471 0.85938 0.0
C669 C 0.1702 0.81831 0.82453 0.0
C670 C 0.16251 0.82548 0.79868 0.0
C671 C 0.15212 0.83384 0.81064 0.0
C672 C 0.16558 0.82474 0.75916 0.0
C673 C 0.1805 0.80814 0.81311 0.0
C674 C 0.18398 0.83423 0.74515 0.0
C675 C 0.18733 0.83146 0.70909 0.0
C676 C 0.17231 0.81927 0.68628 0.0
C677 C 0.1537 0.8111 0.69942 0.0
C678 C 0.15036 0.81381 0.73575 0.0
H679 H 0.18098 0.79922 0.83545 0.0
H680 H 0.1737 0.79907 0.78894 0.0
H681 H 0.19527 0.81868 0.80579 0.0
H682 H 0.19585 0.84311 0.7626 0.0
H683 H 0.20181 0.8381 0.69961 0.0
H684 H 0.32957 0.17426 0.32982 0.0
H685 H 0.31681 0.16515 0.26796 0.0
H686 H 0.36677 0.16373 0.23529 0.0
H687 H 0.37936 0.17234 0.29666 0.0
H688 H 0.33326 0.18603 0.20663 0.0
H689 H 0.32543 0.11508 0.19192 0.0
H690 H 0.32858 0.12642 0.23561 0.0
H691 H 0.34863 0.13247 0.20679 0.0
C692 C 0.33762 0.17158 0.30965 0.0
C693 C 0.35549 0.17406 0.31818 0.0
C694 C 0.33035 0.16646 0.27433 0.0
C695 C 0.34077 0.16359 0.24715 0.0
C696 C 0.35831 0.16548 0.25596 0.0
H697 H 0.32967 0.17519 0.01317 0.0
H698 H 0.34207 0.17908 0.07541 0.0
C699 C 0.36554 0.17054 0.29111 0.0
C700 C 0.33419 0.16019 0.20887 0.0
H701 H 0.32514 0.13051 0.13675 0.0
C702 C 0.33132 0.17381 0.19139 0.0
C703 C 0.33164 0.14422 0.18914 0.0
C704 C 0.33355 0.12862 0.20692 0.0
C705 C 0.32619 0.17203 0.15452 0.0
C706 C 0.32433 0.15642 0.13443 0.0
C707 C 0.32694 0.14265 0.15205 0.0
C708 C 0.31822 0.15334 0.09585 0.0
C709 C 0.32242 0.18666 0.13768 0.0
C710 C 0.30127 0.13713 0.08638 0.0
C711 C 0.29431 0.13476 0.05097 0.0
C712 C 0.30416 0.14858 0.02421 0.0
C713 C 0.3217 0.16434 0.0332 0.0
C714 C 0.32871 0.16667 0.06879 0.0
H715 H 0.32007 0.19506 0.1587 0.0
H716 H 0.33479 0.19654 0.12106 0.0
H717 H 0.30985 0.17994 0.11958 0.0
H718 H 0.29303 0.1266 0.10675 0.0
H719 H 0.28084 0.12235 0.04497 0.0
H720 H 0.87577 0.16351 0.04764 0.0
H721 H 0.87107 0.1692 0.11101 0.0
H722 H 0.8127 0.15123 0.08807 0.0
H723 H 0.81747 0.146 0.0241 0.0
H724 H 0.8284 0.18119 0.13371 0.0
H725 H 0.844 0.12637 0.18266 0.0
H726 H 0.86302 0.14437 0.15649 0.0
H727 H 0.84054 0.12933 0.13511 0.0
C728 C 0.86199 0.16101 0.05596 0.0
C729 C 0.84692 0.15413 0.03104 0.0
C730 C 0.85929 0.1641 0.09225 0.0
C731 C 0.84139 0.16003 0.10447 0.0
C732 C 0.82658 0.15423 0.07923 0.0
H733 H 0.80383 0.14446 0.33008 0.0
H734 H 0.81102 0.13936 0.26769 0.0
C735 C 0.82934 0.15135 0.04269 0.0
C736 C 0.83812 0.16152 0.1437 0.0
H737 H 0.84226 0.14634 0.2281 0.0
C738 C 0.83135 0.17352 0.15434 0.0
C739 C 0.84159 0.15116 0.17052 0.0
C740 C 0.84749 0.13693 0.16064 0.0
C741 C 0.82843 0.17584 0.19116 0.0
C742 C 0.83294 0.16632 0.2181 0.0
C743 C 0.83919 0.1539 0.20743 0.0
C744 C 0.83089 0.16889 0.25743 0.0
C745 C 0.82021 0.18822 0.20076 0.0
C746 C 0.84054 0.18697 0.27293 0.0
C747 C 0.83636 0.18992 0.30831 0.0
C748 C 0.82274 0.17476 0.32904 0.0
C749 C 0.81443 0.15638 0.31475 0.0
C750 C 0.81844 0.15347 0.27906 0.0
H751 H 0.8126 0.18993 0.1773 0.0
H752 H 0.81027 0.18231 0.22406 0.0
H753 H 0.83182 0.20246 0.20851 0.0
H754 H 0.85065 0.19896 0.25707 0.0
H755 H 0.84312 0.20422 0.31882 0.0
H756 H 0.83853 0.71274 0.0427 0.0
H757 H 0.83161 0.70033 0.10429 0.0
H758 H 0.83648 0.65242 0.07044 0.0
H759 H 0.8441 0.66516 0.00828 0.0
H760 H 0.80426 0.66854 0.13333 0.0
H761 H 0.87366 0.67304 0.15448 0.0
H762 H 0.86882 0.68346 0.11563 0.0
H763 H 0.86048 0.65852 0.11659 0.0
C764 C 0.83805 0.6995 0.0481 0.0
C765 C 0.84211 0.69006 0.02056 0.0
C766 C 0.83407 0.69241 0.08344 0.0
C767 C 0.83395 0.67568 0.09218 0.0
C768 C 0.83699 0.66563 0.06445 0.0
H769 H 0.78916 0.61254 0.28954 0.0
H770 H 0.79488 0.62568 0.2286 0.0
C771 C 0.84112 0.67281 0.02889 0.0
C772 C 0.83088 0.66916 0.13055 0.0
H773 H 0.85116 0.6591 0.20198 0.0
C774 C 0.81452 0.66649 0.14834 0.0
C775 C 0.84452 0.66695 0.15036 0.0
C776 C 0.86295 0.67081 0.13347 0.0
C777 C 0.81127 0.6614 0.18521 0.0
C778 C 0.8245 0.65839 0.20458 0.0
C779 C 0.84102 0.66135 0.18702 0.0
C780 C 0.82091 0.65109 0.2424 0.0
C781 C 0.79382 0.65958 0.20314 0.0
C782 C 0.83387 0.66087 0.2705 0.0
C783 C 0.83075 0.65325 0.30572 0.0
C784 C 0.81468 0.63568 0.31319 0.0
C785 C 0.80166 0.62615 0.28496 0.0
C786 C 0.80483 0.63369 0.24999 0.0
H787 H 0.78878 0.66823 0.18889 0.0
H788 H 0.78232 0.64462 0.2019 0.0
H789 H 0.79647 0.66398 0.23216 0.0
H790 H 0.84646 0.6743 0.26509 0.0
H791 H 0.84109 0.66088 0.32677 0.0
H792 H 0.98911 0.52706 0.35538 0.0
H793 H -0.00222 0.53214 0.41979 0.0
H794 H 0.99319 0.47729 0.4252 0.0
H795 H 0.98387 0.4719 0.36115 0.0
H796 H 0.97051 0.4805 0.47361 0.0
H797 H 0.04206 0.54355 0.48397 0.0
H798 H 0.02595 0.54763 0.45767 0.0
H799 H 0.03273 0.53107 0.44164 0.0
C800 C 0.99076 0.51644 0.36989 0.0
C801 C 0.98577 0.49906 0.35334 0.0
C802 C 0.99567 0.51934 0.4068 0.0
C803 C 0.99607 0.50506 0.42739 0.0
C804 C 0.99285 0.48844 0.4099 0.0
H805 H 0.01447 0.48665 0.64788 0.0
H806 H 0.00458 0.48304 0.58416 0.0
C807 C 0.98768 0.48543 0.37324 0.0
C808 C -0.00274 0.50624 0.46771 0.0
H809 H 0.0244 0.53273 0.53902 0.0
C810 C 0.98236 0.49189 0.48787 0.0
C811 C 0.01258 0.52122 0.48632 0.0
C812 C 0.02932 0.53665 0.46631 0.0
C813 C 0.98245 0.49202 0.52606 0.0
C814 C -0.00219 0.50688 0.54455 0.0
C815 C 0.01254 0.52144 0.52458 0.0
C816 C -0.00021 0.50677 0.58453 0.0
C817 C 0.96619 0.47627 0.54647 0.0
C818 C -0.0004 0.52084 0.60609 0.0
C819 C 0.00495 0.52275 0.64276 0.0
C820 C 0.01098 0.51086 0.65794 0.0
C821 C 0.00982 0.49595 0.63689 0.0
C822 C 0.00422 0.4939 0.60049 0.0
H823 H 0.95368 0.46814 0.52867 0.0
H824 H 0.97064 0.46641 0.55724 0.0
H825 H 0.96205 0.48195 0.56999 0.0
H826 H 0.99626 0.53092 0.59409 0.0
H827 H 0.00595 0.5345 0.65819 0.0
H828 H 0.50384 0.53711 0.64698 0.0
H829 H 0.51116 0.53018 0.58669 0.0
H830 H 0.48502 0.47113 0.61446 0.0
H831 H 0.4771 0.47789 0.67501 0.0
H832 H 0.53054 0.51431 0.55878 0.0
H833 H 0.454 0.4706 0.52715 0.0
H834 H 0.4626 0.48499 0.56758 0.0
H835 H 0.4617 0.46259 0.56554 0.0
C836 C 0.49988 0.52265 0.64059 0.0
C837 C 0.48959 0.50798 0.6656 0.0
C838 C 0.5041 0.51873 0.60605 0.0
C839 C 0.49817 0.50009 0.59576 0.0
C840 C 0.48928 0.48557 0.6216 0.0
H841 H 0.52901 0.46936 0.39242 0.0
H842 H 0.52593 0.47628 0.45554 0.0
C843 C 0.48496 0.48948 0.65632 0.0
C844 C 0.50036 0.49601 0.55729 0.0
H845 H 0.47532 0.4731 0.48117 0.0
C846 C 0.51848 0.50523 0.54182 0.0
C847 C 0.48453 0.48456 0.53501 0.0
C848 C 0.46458 0.47524 0.54947 0.0
C849 C 0.52126 0.50323 0.50474 0.0
C850 C 0.50551 0.49131 0.48275 0.0
C851 C 0.48737 0.48218 0.49813 0.0
C852 C 0.50761 0.48764 0.44399 0.0
C853 C 0.54098 0.51427 0.48934 0.0
C854 C 0.49793 0.49131 0.41643 0.0
C855 C 0.49947 0.48714 0.38 0.0
C856 C 0.51068 0.47919 0.37066 0.0
C857 C 0.52036 0.47562 0.39846 0.0
C858 C 0.51873 0.47968 0.43468 0.0
H859 H 0.55014 0.52684 0.50629 0.0
H860 H 0.54744 0.50513 0.48889 0.0
H861 H 0.54082 0.51902 0.46108 0.0
H862 H 0.48915 0.49735 0.42315 0.0
H863 H 0.49177 0.48997 0.35929 0.0
H864 H 0.51617 0.99477 0.65369 0.0
H865 H 0.52017 0.00436 0.5895 0.0
H866 H 0.46098 0.96562 0.57022 0.0
H867 H 0.45694 0.9558 0.63383 0.0
H868 H 0.48433 0.96076 0.52236 0.0
H869 H 0.50364 0.03619 0.53099 0.0
H870 H 0.51781 0.02985 0.5585 0.0
H871 H 0.49314 0.02002 0.56862 0.0
C872 C 0.50393 0.98868 0.63596 0.0
C873 C 0.48626 0.9745 0.64874 0.0
C874 C 0.50624 0.99413 0.5993 0.0
C875 C 0.49085 0.98566 0.57515 0.0
C876 C 0.47304 0.97224 0.58837 0.0
H877 H 0.48455 0.0218 0.35889 0.0
H878 H 0.47772 0.00927 0.42078 0.0
C879 C 0.47076 0.96671 0.62477 0.0
C880 C 0.49338 0.98974 0.53562 0.0
H881 H 0.5057 0.02474 0.47295 0.0
C882 C 0.48898 0.97475 0.51148 0.0
C883 C 0.49936 0.00796 0.52162 0.0
C884 C 0.50362 0.02442 0.54618 0.0
C885 C 0.49032 0.97747 0.47361 0.0
C886 C 0.49646 0.99572 0.45965 0.0
C887 C 0.50097 0.01073 0.4838 0.0
C888 C 0.49808 -0.00028 0.42008 0.0
C889 C 0.48476 0.96075 0.4489 0.0
C890 C 0.51116 0.99767 0.39857 0.0
C891 C 0.51491 0.00461 0.36286 0.0
C892 C 0.50584 0.01394 0.34855 0.0
C893 C 0.49178 0.01471 0.36928 0.0
C894 C 0.48794 0.00765 0.4047 0.0
H895 H 0.47606 0.94715 0.46338 0.0
H896 H 0.47671 0.96126 0.42498 0.0
H897 H 0.4977 0.96108 0.43877 0.0
H898 H 0.51931 0.9918 0.41009 0.0
H899 H 0.52598 0.00404 0.34766 0.0
H900 H 0.2007 0.27153 0.07248 0.0
H901 H 0.21699 0.25545 0.04926 0.0
H902 H 0.16381 0.20344 0.04102 0.0
H903 H 0.14733 0.2193 0.06428 0.0
H904 H 0.19609 0.20051 0.06876 0.0
H905 H 0.21033 0.24024 0.93857 0.0
H906 H 0.21756 0.25415 0.97959 0.0
H907 H 0.19289 0.23851 0.97094 0.0
C908 C 0.19248 0.25657 0.0665 0.0
C909 C 0.17267 0.24676 0.06983 0.0
C910 C 0.20181 0.24746 0.05298 0.0
C911 C 0.19151 0.22841 0.04274 0.0
C912 C 0.17195 0.21821 0.0485 0.0
H913 H 0.21707 0.14746 0.94425 0.0
H914 H 0.20141 0.1638 0.969 0.0
C915 C 0.16257 0.22731 0.06187 0.0
C916 C 0.20093 0.21936 0.02399 0.0
H917 H 0.2226 0.21967 0.94425 0.0
C918 C 0.20189 0.20466 0.04156 0.0
C919 C 0.20843 0.22486 0.98849 0.0
C920 C 0.20719 0.24021 0.96803 0.0
C921 C 0.21044 0.19543 0.0247 0.0
C922 C 0.21778 0.20078 0.989 0.0
C923 C 0.21689 0.21556 0.97153 0.0
C924 C 0.22666 0.19133 0.96965 0.0
C925 C 0.2119 0.1803 0.04557 0.0
C926 C 0.24577 0.20162 0.95965 0.0
C927 C 0.25475 0.19237 0.94503 0.0
C928 C 0.24473 0.17265 0.94023 0.0
C929 C 0.22526 0.16262 0.94795 0.0
C930 C 0.2163 0.1719 0.96239 0.0
H931 H 0.21014 0.18134 0.07535 0.0
H932 H 0.20059 0.16622 0.03632 0.0
H933 H 0.22574 0.18121 0.04071 0.0
H934 H 0.25395 0.21668 0.96467 0.0
H935 H 0.26974 0.20054 0.93931 0.0
H936 H 0.84921 0.07099 0.93959 0.0
H937 H 0.83276 0.03833 0.9611 0.0
H938 H 0.78 0.03828 0.96073 0.0
H939 H 0.79625 0.07094 0.93912 0.0
H940 H 0.79165 0.02876 0.02996 0.0
H941 H 0.79351 0.98716 0.91171 0.0
H942 H 0.81527 0.00831 0.92264 0.0
H943 H 0.79545 0.01005 0.90665 0.0
C944 C 0.83403 0.06391 0.94323 0.0
C945 C 0.82406 0.07362 0.93781 0.0
C946 C 0.82467 0.04524 0.95547 0.0
C947 C 0.80521 0.03597 0.96246 0.0
C948 C 0.79504 0.04525 0.9554 0.0
H949 H 0.72676 0.93119 0.0696 0.0
H950 H 0.74327 0.96338 0.04587 0.0
C951 C 0.80436 0.06388 0.9429 0.0
C952 C 0.79584 0.01729 0.98035 0.0
H953 H 0.78312 0.97111 0.96795 0.0
C954 C 0.78967 0.0161 0.01643 0.0
C955 C 0.79353 0.00095 0.96264 0.0
C956 C 0.79965 0.00152 0.92367 0.0
C957 C 0.78143 -0.00104 0.03555 0.0
C958 C 0.77891 0.98252 0.01774 0.0
C959 C 0.78511 0.98375 0.9816 0.0
C960 C 0.76955 0.96377 0.03566 0.0
C961 C 0.77592 -0.00128 0.07487 0.0
C962 C 0.77885 0.95331 0.03792 0.0
C963 C 0.76939 0.93482 0.05115 0.0
C964 C 0.75042 0.92644 0.06233 0.0
C965 C 0.74141 0.93726 0.06151 0.0
C966 C 0.75085 0.95571 0.04802 0.0
H967 H 0.78383 0.013 0.08735 0.0
H968 H 0.76064 0.99404 0.07635 0.0
H969 H 0.77852 0.98883 0.09124 0.0
H970 H 0.79329 0.95928 0.02852 0.0
H971 H 0.77677 0.9269 0.05144 0.0
H972 H 0.92866 0.72943 0.92226 0.0
H973 H 0.96106 0.74575 0.94577 0.0
H974 H 0.95597 0.79443 0.97155 0.0
H975 H 0.9237 0.77841 0.94808 0.0
H976 H 0.99445 0.78521 0.9292 0.0
H977 H 0.9663 0.77337 0.07073 0.0
H978 H 0.95228 0.75951 0.03251 0.0
H979 H 0.95674 0.78315 0.03892 0.0
C980 C 0.93455 0.74376 0.93218 0.0
C981 C 0.92349 0.75252 0.93365 0.0
C982 C 0.95303 0.75302 0.94567 0.0
C983 C 0.96066 0.7711 0.9609 0.0
C984 C 0.95015 0.78036 0.96028 0.0
H985 H 0.07239 0.85092 0.03708 0.0
H986 H 0.04041 0.83513 0.01217 0.0
C987 C 0.93174 0.77118 0.94669 0.0
C988 C 0.97913 0.77989 0.97953 0.0
H989 H -0.00055 0.79207 0.06383 0.0
C990 C 0.99559 0.7867 0.9586 0.0
C991 C 0.98044 0.78157 0.01792 0.0
C992 C 0.96303 0.77392 0.04153 0.0
C993 C 0.01347 0.79558 0.97513 0.0
C994 C 0.01479 0.7977 0.01345 0.0
C995 C -0.00169 0.79051 0.03444 0.0
C996 C 0.03328 0.80746 0.03202 0.0
C997 C 0.03084 0.80259 0.95163 0.0
C998 C 0.03947 0.79719 0.05275 0.0
C999 C 0.05777 0.80615 0.06711 0.0
C1000 C 0.0701 0.82554 0.06105 0.0
C1001 C 0.06333 0.83595 0.04214 0.0
C1002 C 0.0451 0.82697 0.02769 0.0
H1003 H 0.02731 0.7968 0.92353 0.0
H1004 H 0.0381 0.81823 0.94992 0.0
H1005 H 0.04088 0.79872 0.96379 0.0
H1006 H 0.03041 0.78212 0.05655 0.0
H1007 H 0.06249 0.79773 0.08158 0.0
H1008 H 0.86113 0.78166 0.00576 0.0
H1009 H 0.84517 0.7987 0.02414 0.0
H1010 H 0.8091 0.77762 0.92963 0.0
H1011 H 0.82481 0.75999 0.91132 0.0
H1012 H 0.84137 0.82607 0.9912 0.0
H1013 H 0.77109 0.76233 0.0125 0.0
H1014 H 0.7923 0.76105 0.00572 0.0
H1015 H 0.78047 0.76429 0.96745 0.0
C1016 C 0.84986 0.78067 0.98867 0.0
C1017 C 0.84414 0.76935 0.95716 0.0
C1018 C 0.84075 0.79044 0.99928 0.0
C1019 C 0.82572 0.78914 0.97867 0.0
C1020 C 0.82039 0.77845 0.9464 0.0
H1021 H 0.77849 0.86203 0.99524 0.0
H1022 H 0.79613 0.84629 0.97976 0.0
C1023 C 0.82949 0.76854 0.93578 0.0
C1024 C 0.81575 0.79904 0.9914 0.0
H1025 H 0.7727 0.79201 0.01817 0.0
C1026 C 0.82636 0.81862 0.99714 0.0
C1027 C 0.79625 0.78923 0.99992 0.0
C1028 C 0.78436 0.76804 0.99646 0.0
C1029 C 0.81794 0.82872 0.01055 0.0
C1030 C 0.7983 0.81903 0.01763 0.0
C1031 C 0.78774 0.79941 0.01256 0.0
C1032 C 0.78828 0.82915 0.0285 0.0
C1033 C 0.83023 0.84963 0.01741 0.0
C1034 C 0.77776 0.82456 0.06093 0.0
C1035 C 0.76747 0.83349 0.06986 0.0
C1036 C 0.76747 0.84703 0.04628 0.0
C1037 C 0.77826 0.85174 0.01414 0.0
C1038 C 0.78846 0.84283 0.00528 0.0
H1039 H 0.84523 0.85361 0.02171 0.0
H1040 H 0.82964 0.85752 0.99333 0.0
H1041 H 0.8253 0.85414 0.04157 0.0
H1042 H 0.77737 0.81393 0.07911 0.0
H1043 H 0.7592 0.82949 0.09467 0.0
H1044 H 0.16666 0.9302 0.09028 0.0
H1045 H 0.18158 0.96368 0.07309 0.0
H1046 H 0.15283 0.94789 0.96952 0.0
H1047 H 0.1377 0.91475 0.98655 0.0
H1048 H 0.20524 0.98163 0.01436 0.0
H1049 H 0.14079 0.98763 0.00517 0.0
H1050 H 0.14097 0.968 0.02722 0.0
H1051 H 0.13925 0.96856 0.9784 0.0
C1052 C 0.16336 0.93392 0.06408 0.0
C1053 C 0.15091 0.91984 0.03991 0.0
C1054 C 0.17192 0.95301 0.05425 0.0
C1055 C 0.16807 0.95825 0.02025 0.0
C1056 C 0.15566 0.9442 0.9962 0.0
H1057 H 0.23704 0.06607 0.90877 0.0
H1058 H 0.21989 0.03238 0.92465 0.0
C1059 C 0.1471 0.92523 0.00598 0.0
C1060 C 0.1775 0.97831 0.00899 0.0
H1061 H 0.16872 0.01258 0.97831 0.0
C1062 C 0.19729 0.98847 0.0067 0.0
C1063 C 0.16708 0.9872 0.9992 0.0
C1064 C 0.14586 0.97735 1.00295 0.0
C1065 C 0.20695 0.00724 0.99439 0.0
C1066 C 0.19647 0.01589 0.98338 0.0
C1067 C 0.1767 0.0058 0.98616 0.0
C1068 C 0.20579 0.03586 0.97146 0.0
C1069 C 0.22827 0.01774 0.99406 0.0
C1070 C 0.20284 0.04876 0.99143 0.0
C1071 C 0.21236 0.06784 0.98218 0.0
C1072 C 0.22505 0.07445 0.95271 0.0
C1073 C 0.22738 0.0614 0.93166 0.0
C1074 C 0.21776 0.04221 0.94093 0.0
H1075 H 0.23409 0.01068 0.01128 0.0
H1076 H 0.23329 0.0183 0.96576 0.0
H1077 H 0.23404 0.03247 1.00387 0.0
H1078 H 0.19357 0.04416 0.01492 0.0
H1079 H 0.21016 0.07749 0.99889 0.0
H1080 H 0.929 0.17928 0.92449 0.0
H1081 H 0.96227 0.1964 0.94326 0.0
H1082 H 0.9541 0.14747 1.00309 0.0
H1083 H 0.92091 0.13055 0.98529 0.0
H1084 H 0.97053 0.17913 0.04451 0.0
H1085 H 0.00768 0.19241 0.91178 0.0
H1086 H 0.99102 0.2006 0.91424 0.0
H1087 H 0.9828 0.17572 0.91675 0.0
C1088 C 0.93445 0.17207 0.94093 0.0
C1089 C 0.92238 0.1536 0.95345 0.0
C1090 C 0.95344 0.18185 0.95165 0.0
C1091 C 0.96068 0.17318 0.97451 0.0
C1092 C 0.9488 0.15446 0.9856 0.0
H1093 H 0.07605 0.20772 0.02316 0.0
H1094 H 0.04287 0.19162 0.00532 0.0
C1095 C 0.92986 0.14478 0.97525 0.0
C1096 C 0.98024 0.18379 0.98889 0.0
H1097 H 0.02662 0.20697 0.96371 0.0
C1098 C 0.98281 0.18523 0.02686 0.0
C1099 C 0.99622 0.19166 0.96581 0.0
C1100 C 0.99437 0.18991 0.92489 0.0
C1101 C 0.00093 0.19408 0.04242 0.0
C1102 C 0.01691 0.20206 0.01933 0.0
C1103 C 0.01433 0.20087 0.98136 0.0
C1104 C 0.03646 0.21094 0.03372 0.0
C1105 C 0.00277 0.19425 0.08334 0.0
C1106 C 0.04379 0.22689 0.05648 0.0
C1107 C 0.06279 0.236 0.06722 0.0
C1108 C 0.07475 0.22945 0.05482 0.0
C1109 C 0.06718 0.21312 0.0331 0.0
C1110 C 0.04824 0.20395 0.02273 0.0
H1111 H 0.98943 0.18352 0.09648 0.0
H1112 H 0.01428 0.19155 0.09155 0.0
H1113 H 0.00621 0.20834 0.09388 0.0
H1114 H 0.03504 0.23272 0.06479 0.0
H1115 H 0.06831 0.2487 0.08359 0.0
H1116 H 0.80703 0.55132 0.37047 0.0
H1117 H 0.82362 0.53487 0.35278 0.0
H1118 H 0.8704 0.57155 0.42221 0.0
H1119 H 0.85419 0.58891 0.43846 0.0
H1120 H 0.88323 0.56955 0.35993 0.0
H1121 H 0.83198 0.49635 0.39914 0.0
H1122 H 0.82089 0.50524 0.36936 0.0
H1123 H 0.82937 0.51602 0.4134 0.0
C1124 C 0.82067 0.55566 0.38267 0.0
C1125 C 0.82928 0.57139 0.406 0.0
C1126 C 0.83012 0.54612 0.37265 0.0
C1127 C 0.84814 0.55168 0.38664 0.0
C1128 C 0.85648 0.56694 0.41112 0.0
H1129 H 0.90226 0.48543 0.34455 0.0
H1130 H 0.88475 0.49958 0.36998 0.0
C1131 C 0.84719 0.5768 0.42054 0.0
C1132 C 0.85888 0.54268 0.37304 0.0
H1133 H 0.85486 0.50001 0.35359 0.0
C1134 C 0.87712 0.55434 0.35906 0.0
C1135 C 0.85107 0.52284 0.37223 0.0
C1136 C 0.83234 0.50945 0.38974 0.0
C1137 C 0.88759 0.54674 0.34366 0.0
C1138 C 0.87923 0.52689 0.34054 0.0
C1139 C 0.86115 0.51523 0.35523 0.0
C1140 C 0.88929 0.51785 0.32378 0.0
C1141 C 0.90763 0.56015 0.3318 0.0
C1142 C 0.89734 0.523 0.28883 0.0
C1143 C 0.9078 0.51521 0.2745 0.0
C1144 C 0.90982 0.50165 0.29437 0.0
C1145 C 0.90088 0.49577 0.32843 0.0
C1146 C 0.89087 0.50389 0.34307 0.0
H1147 H 0.91368 0.57385 0.3465 0.0
H1148 H 0.91692 0.55407 0.3366 0.0
H1149 H 0.90777 0.56315 0.30229 0.0
H1150 H 0.89574 0.53322 0.27279 0.0
H1151 H 0.91441 0.51987 0.24806 0.0
H1152 H 0.50866 0.39884 0.26416 0.0
H1153 H 0.49195 0.36648 0.28707 0.0
H1154 H 0.44051 0.36883 0.29442 0.0
H1155 H 0.457 0.40111 0.27112 0.0
H1156 H 0.47586 0.35884 0.35654 0.0
H1157 H 0.42232 0.31625 0.25167 0.0
H1158 H 0.4426 0.33906 0.24191 0.0
H1159 H 0.42244 0.33746 0.26494 0.0
C1160 C 0.49366 0.39232 0.26962 0.0
C1161 C 0.48421 0.40265 0.26608 0.0
C1162 C 0.48416 0.37384 0.28285 0.0
C1163 C 0.46502 0.36529 0.29247 0.0
C1164 C 0.45523 0.37508 0.2867 0.0
H1165 H 0.38833 0.26074 0.40427 0.0
H1166 H 0.40347 0.29277 0.37938 0.0
C1167 C 0.46471 0.39357 0.27342 0.0
C1168 C 0.45594 0.3471 0.3123 0.0
H1169 H 0.41934 0.3017 0.30919 0.0
C1170 C 0.46356 0.3463 0.34611 0.0
C1171 C 0.43978 0.33088 0.2988 0.0
C1172 C 0.43136 0.33083 0.2622 0.0
C1173 C 0.45538 0.3297 0.36693 0.0
C1174 C 0.43933 0.31343 0.35329 0.0
C1175 C 0.4316 0.31426 0.31963 0.0
C1176 C 0.43085 0.2951 0.37259 0.0
C1177 C 0.46382 0.32981 0.40355 0.0
C1178 C 0.44137 0.28602 0.37776 0.0
C1179 C 0.43281 0.26777 0.39207 0.0
C1180 C 0.41351 0.2582 0.40123 0.0
C1181 C 0.40323 0.26771 0.39762 0.0
C1182 C 0.41182 0.28597 0.38322 0.0
H1183 H 0.47242 0.34437 0.41445 0.0
H1184 H 0.45264 0.32116 0.42365 0.0
H1185 H 0.47321 0.32372 0.40063 0.0
H1186 H 0.456 0.29271 0.36923 0.0
H1187 H 0.44114 0.26088 0.39439 0.0
H1188 H 0.58274 0.10139 0.33055 0.0
H1189 H 0.61534 0.11888 0.35129 0.0
H1190 H 0.63246 0.0971 0.26092 0.0
H1191 H 0.59948 0.07866 0.24097 0.0
H1192 H 0.64781 0.09404 0.32015 0.0
H1193 H 0.65918 0.16649 0.31744 0.0
H1194 H 0.63921 0.15154 0.34524 0.0
H1195 H 0.63868 0.14686 0.29711 0.0
C1196 C 0.59346 0.10054 0.31466 0.0
C1197 C 0.58854 0.08871 0.28397 0.0
C1198 C 0.61216 0.11068 0.32648 0.0
C1199 C 0.62647 0.10966 0.30729 0.0
C1200 C 0.62167 0.09818 0.27609 0.0
H1201 H 0.74534 0.18403 0.35174 0.0
H1202 H 0.71314 0.16874 0.32863 0.0
C1203 C 0.60285 0.08771 0.26464 0.0
C1204 C 0.64616 0.11952 0.32133 0.0
H1205 H 0.68103 0.16188 0.35362 0.0
C1206 C 0.65516 0.10894 0.32707 0.0
C1207 C 0.65587 0.13901 0.33001 0.0
C1208 C 0.64779 0.15165 0.32173 0.0
C1209 C 0.67345 0.11719 0.34168 0.0
C1210 C 0.68271 0.13641 0.35236 0.0
C1211 C 0.67382 0.14706 0.34612 0.0
C1212 C 0.70204 0.14606 0.36818 0.0
C1213 C 0.68277 0.10529 0.34452 0.0
C1214 C 0.7065 0.13873 0.39884 0.0
C1215 C 0.7251 0.14728 0.41175 0.0
C1216 C 0.73941 0.16362 0.39486 0.0
C1217 C 0.73465 0.17149 0.3655 0.0
C1218 C 0.71621 0.16274 0.35217 0.0
H1219 H 0.67637 0.09316 0.32532 0.0
H1220 H 0.69815 0.11375 0.33875 0.0
H1221 H 0.68083 0.09949 0.37251 0.0
H1222 H 0.69568 0.12626 0.41248 0.0
H1223 H 0.7283 0.141 0.43464 0.0
H1224 H 0.51667 0.10152 0.36628 0.0
H1225 H 0.50138 0.11899 0.38611 0.0
H1226 H 0.47739 0.1133 0.279 0.0
H1227 H 0.49247 0.09533 0.2589 0.0
H1228 H 0.50548 0.15217 0.36102 0.0
H1229 H 0.43129 0.09408 0.34562 0.0
H1230 H 0.45113 0.09013 0.34428 0.0
H1231 H 0.44527 0.09929 0.30497 0.0
C1232 C 0.50816 0.10395 0.3468 0.0
C1233 C 0.50572 0.09696 0.31099 0.0
C1234 C 0.49942 0.11396 0.35825 0.0
C1235 C 0.48804 0.1172 0.33423 0.0
C1236 C 0.48582 0.1106 0.29819 0.0
H1237 H 0.4515 0.19837 0.3544 0.0
H1238 H 0.46816 0.18127 0.34209 0.0
C1239 C 0.49455 0.10048 0.28666 0.0
C1240 C 0.4788 0.12777 0.34716 0.0
H1241 H 0.43587 0.12444 0.35985 0.0
C1242 C 0.49025 0.14609 0.36087 0.0
C1243 C 0.45893 0.11965 0.34763 0.0
C1244 C 0.44589 0.09964 0.33518 0.0
C1245 C 0.48239 0.1567 0.37429 0.0
C1246 C 0.46256 0.14888 0.37336 0.0
C1247 C 0.45108 0.1304 0.36043 0.0
C1248 C 0.45353 0.16004 0.38352 0.0
C1249 C 0.49537 0.17612 0.38958 0.0
C1250 C 0.43971 0.15377 0.41095 0.0
C1251 C 0.43004 0.16353 0.41805 0.0
C1252 C 0.43394 0.17958 0.39749 0.0
C1253 C 0.44819 0.18609 0.37082 0.0
C1254 C 0.45782 0.17638 0.36383 0.0
H1255 H 0.50902 0.17762 0.3987 0.0
H1256 H 0.49849 0.18682 0.36806 0.0
H1257 H 0.48874 0.17926 0.41293 0.0
H1258 H 0.43615 0.14111 0.42632 0.0
H1259 H 0.41905 0.15811 0.43858 0.0
H1260 H 0.80793 0.25383 0.33357 0.0
H1261 H 0.82528 0.28737 0.31888 0.0
H1262 H 0.85821 0.29855 0.41704 0.0
H1263 H 0.8409 0.26472 0.43198 0.0
H1264 H 0.82954 0.31866 0.35897 0.0
H1265 H 0.898 0.32142 0.33403 0.0
H1266 H 0.87583 0.29947 0.33665 0.0
H1267 H 0.88722 0.31212 0.37752 0.0
C1268 C 0.81879 0.26339 0.35224 0.0
C1269 C 0.82314 0.25662 0.38386 0.0
C1270 C 0.82867 0.28256 0.34376 0.0
C1271 C 0.8432 0.29535 0.36655 0.0
C1272 C 0.84723 0.2888 0.3988 0.0
H1273 H 0.89824 0.41654 0.36154 0.0
H1274 H 0.88012 0.38305 0.37612 0.0
C1275 C 0.83725 0.26953 0.40744 0.0
C1276 C 0.85411 0.31548 0.356 0.0
H1277 H 0.89794 0.35027 0.32979 0.0
C1278 C 0.8445 0.3256 0.35264 0.0
C1279 C 0.87352 0.32432 0.3471 0.0
C1280 C 0.88429 0.31379 0.34865 0.0
C1281 C 0.85388 0.34448 0.34116 0.0
C1282 C 0.8734 0.35348 0.33321 0.0
C1283 C 0.88297 0.34329 0.33599 0.0
C1284 C 0.88429 0.37373 0.32359 0.0
C1285 C 0.8428 0.35461 0.33728 0.0
C1286 C 0.8929 0.37958 0.2893 0.0
C1287 C 0.90335 0.39884 0.28075 0.0
C1288 C 0.90546 0.41245 0.30659 0.0
C1289 C 0.89685 0.40644 0.34092 0.0
C1290 C 0.88641 0.38729 0.34933 0.0
H1291 H 0.82737 0.34456 0.33525 0.0
H1292 H 0.84529 0.36364 0.36158 0.0
H1293 H 0.84739 0.36384 0.31283 0.0
H1294 H 0.89147 0.36925 0.26917 0.0
H1295 H 0.9099 0.40306 0.25417 0.0
H1296 H 0.58442 0.46079 0.30472 0.0
H1297 H 0.61739 0.47952 0.32341 0.0
H1298 H 0.62043 0.52922 0.276 0.0
H1299 H 0.58733 0.5104 0.25654 0.0
H1300 H 0.65285 0.52685 0.26432 0.0
H1301 H 0.6325 0.51575 0.40992 0.0
H1302 H 0.6236 0.49395 0.38536 0.0
H1303 H 0.61553 0.51013 0.37374 0.0
C1304 C 0.59217 0.47564 0.29772 0.0
C1305 C 0.58325 0.48417 0.27946 0.0
C1306 C 0.61095 0.48636 0.30872 0.0
C1307 C 0.62113 0.50585 0.30211 0.0
C1308 C 0.6127 0.51422 0.28178 0.0
H1309 H 0.72837 0.57875 0.41572 0.0
H1310 H 0.69538 0.56425 0.39524 0.0
C1311 C 0.59386 0.50344 0.27048 0.0
C1312 C 0.64038 0.51739 0.3173 0.0
H1313 H 0.66527 0.52762 0.3969 0.0
C1314 C 0.65557 0.5272 0.29332 0.0
C1315 C 0.64385 0.5182 0.35526 0.0
C1316 C 0.62798 0.50911 0.3826 0.0
C1317 C 0.67424 0.53699 0.30613 0.0
C1318 C 0.67778 0.5366 0.3438 0.0
C1319 C 0.66254 0.52764 0.36798 0.0
C1320 C 0.69722 0.54461 0.35825 0.0
C1321 C 0.69001 0.5476 0.27914 0.0
C1322 C 0.70883 0.53778 0.34546 0.0
C1323 C 0.72754 0.54598 0.35701 0.0
C1324 C 0.73496 0.56103 0.382 0.0
C1325 C 0.72301 0.56715 0.3965 0.0
C1326 C 0.70423 0.55897 0.38468 0.0
H1327 H 0.68489 0.5515 0.25441 0.0
H1328 H 0.70169 0.56065 0.29139 0.0
H1329 H 0.69574 0.53845 0.27043 0.0
H1330 H 0.70352 0.52631 0.32594 0.0
H1331 H 0.73633 0.54081 0.34563 0.0
H1332 H 0.55225 0.81503 0.6134 0.0
H1333 H 0.53591 0.83098 0.63682 0.0
H1334 H 0.5873 0.88471 0.62745 0.0
H1335 H 0.60365 0.86897 0.60323 0.0
H1336 H 0.54516 0.8507 0.7001 0.0
H1337 H 0.54898 0.89708 0.58643 0.0
H1338 H 0.55363 0.87788 0.58023 0.0
H1339 H 0.57161 0.90012 0.59842 0.0
C1340 C 0.55998 0.83029 0.61547 0.0
C1341 C 0.57928 0.84072 0.60652 0.0
C1342 C 0.55062 0.83937 0.62898 0.0
C1343 C 0.56036 0.85903 0.63374 0.0
C1344 C 0.5794 0.86957 0.62335 0.0
H1345 H 0.53569 0.93891 0.73932 0.0
H1346 H 0.5513 0.9222 0.71586 0.0
C1347 C 0.58875 0.86052 0.60958 0.0
C1348 C 0.5511 0.86828 0.65258 0.0
H1349 H 0.54054 0.90355 0.64472 0.0
C1350 C 0.54401 0.86215 0.68787 0.0
C1351 C 0.5497 0.88327 0.63664 0.0
C1352 C 0.55622 0.88986 0.59821 0.0
C1353 C 0.5358 0.87083 0.70787 0.0
C1354 C 0.53462 0.88593 0.69207 0.0
C1355 C 0.54166 0.89205 0.65681 0.0
C1356 C 0.52555 0.89525 0.71107 0.0
C1357 C 0.52872 0.86401 0.74593 0.0
C1358 C 0.50599 0.88545 0.71698 0.0
C1359 C 0.497 0.89494 0.73032 0.0
C1360 C 0.50745 0.91441 0.73789 0.0
C1361 C 0.52722 0.92391 0.73388 0.0
C1362 C 0.53617 0.91443 0.72031 0.0
H1363 H 0.53424 0.85505 0.75694 0.0
H1364 H 0.53283 0.87614 0.76461 0.0
H1365 H 0.51306 0.8555 0.74554 0.0
H1366 H 0.49755 0.87068 0.70966 0.0
H1367 H 0.48177 0.88719 0.73307 0.0
H1368 H 0.18449 0.74373 0.65209 0.0
H1369 H 0.16943 0.71097 0.67162 0.0
H1370 H 0.12643 0.69568 0.58938 0.0
H1371 H 0.14098 0.72883 0.57084 0.0
H1372 H 0.11069 0.68099 0.65084 0.0
H1373 H 0.16868 0.66567 0.63225 0.0
H1374 H 0.17616 0.68591 0.66092 0.0
H1375 H 0.16983 0.68672 0.61415 0.0
C1376 C 0.17204 0.73337 0.63761 0.0
C1377 C 0.16395 0.73887 0.60981 0.0
C1378 C 0.16349 0.71456 0.64871 0.0
C1379 C 0.14697 0.70073 0.63157 0.0
C1380 C 0.13921 0.70609 0.60294 0.0
H1381 H 0.09827 0.58118 0.67574 0.0
H1382 H 0.11589 0.61313 0.65159 0.0
C1383 C 0.14756 0.72501 0.59227 0.0
C1384 C 0.137 0.68108 0.64568 0.0
H1385 H 0.14371 0.64494 0.67279 0.0
C1386 C 0.11786 0.67302 0.6552 0.0
C1387 C 0.14626 0.67055 0.65105 0.0
C1388 C 0.1663 0.6776 0.63865 0.0
C1389 C 0.10782 0.6549 0.67047 0.0
C1390 C 0.1174 0.64486 0.67795 0.0
C1391 C 0.13645 0.65278 0.66779 0.0
C1392 C 0.1077 0.62574 0.69455 0.0
C1393 C 0.08694 0.6466 0.6775 0.0
C1394 C 0.09772 0.62223 0.72749 0.0
C1395 C 0.08728 0.60383 0.74108 0.0
C1396 C 0.08712 0.58872 0.72248 0.0
C1397 C 0.09812 0.59249 0.69081 0.0
C1398 C 0.1082 0.61078 0.67688 0.0
H1399 H 0.08083 0.65338 0.66025 0.0
H1400 H 0.07905 0.63117 0.67216 0.0
H1401 H 0.08477 0.64904 0.70638 0.0
H1402 H 0.09768 0.63365 0.74233 0.0
H1403 H 0.07909 0.60138 0.76573 0.0
H1404 H 0.39489 0.47352 0.76958 0.0
H1405 H 0.36219 0.45846 0.74772 0.0
H1406 H 0.37881 0.50156 0.66534 0.0
H1407 H 0.41106 0.51712 0.68814 0.0
H1408 H 0.34655 0.49392 0.69112 0.0
H1409 H 0.34324 0.42609 0.65947 0.0
H1410 H 0.34764 0.43208 0.70681 0.0
H1411 H 0.36482 0.44679 0.67327 0.0
C1412 C 0.39148 0.47987 0.74709 0.0
C1413 C 0.40557 0.49646 0.73051 0.0
C1414 C 0.37284 0.47114 0.73434 0.0
C1415 C 0.36812 0.47856 0.70417 0.0
C1416 C 0.38208 0.49548 0.6885 0.0
H1417 H 0.26713 0.41198 0.57298 0.0
H1418 H 0.29977 0.43045 0.59474 0.0
C1419 C 0.40055 0.50439 0.70165 0.0
C1420 C 0.34878 0.46878 0.68841 0.0
H1421 H 0.31454 0.4266 0.65414 0.0
C1422 C 0.3396 0.47921 0.68289 0.0
C1423 C 0.33984 0.44971 0.67684 0.0
C1424 C 0.34947 0.43807 0.67901 0.0
C1425 C 0.32172 0.47112 0.66644 0.0
C1426 C 0.31237 0.45178 0.65666 0.0
C1427 C 0.32162 0.44138 0.66187 0.0
C1428 C 0.29286 0.44188 0.64171 0.0
C1429 C 0.31337 0.48358 0.65891 0.0
C1430 C 0.27814 0.44226 0.66063 0.0
C1431 C 0.25962 0.43212 0.64778 0.0
C1432 C 0.25531 0.42091 0.61629 0.0
C1433 C 0.27003 0.42054 0.59724 0.0
C1434 C 0.28866 0.43103 0.60974 0.0
H1435 H 0.32458 0.49859 0.65569 0.0
H1436 H 0.30454 0.47911 0.6339 0.0
H1437 H 0.30442 0.48284 0.6823 0.0
H1438 H 0.28085 0.44997 0.68598 0.0
H1439 H 0.24856 0.43246 0.66346 0.0
H1440 H 0.17632 0.42862 0.69058 0.0
H1441 H 0.15872 0.44441 0.70608 0.0
H1442 H 0.14264 0.44223 0.59347 0.0
H1443 H 0.15992 0.42581 0.57774 0.0
H1444 H 0.16309 0.47765 0.68399 0.0
H1445 H 0.092 0.41953 0.64447 0.0
H1446 H 0.11222 0.41629 0.64808 0.0
H1447 H 0.10903 0.42723 0.60829 0.0
C1448 C 0.16905 0.43147 0.66898 0.0
C1449 C 0.16944 0.42588 0.63289 0.0
C1450 C 0.15899 0.44051 0.67796 0.0
C1451 C 0.14911 0.44422 0.65109 0.0
C1452 C 0.1498 0.43909 0.6148 0.0
H1453 H 0.09208 0.50809 0.65006 0.0
H1454 H 0.10906 0.49135 0.63675 0.0
C1455 C 0.15979 0.42986 0.60579 0.0
C1456 C 0.13837 0.45371 0.6614 0.0
H1457 H 0.09432 0.44878 0.66078 0.0
C1458 C 0.14804 0.47128 0.6791 0.0
C1459 C 0.11868 0.44528 0.65528 0.0
C1460 C 0.10731 0.42597 0.63832 0.0
C1461 C 0.13861 0.48081 0.69021 0.0
C1462 C 0.11908 0.47255 0.68343 0.0
C1463 C 0.10934 0.45498 0.66595 0.0
C1464 C 0.10875 0.48253 0.69232 0.0
C1465 C 0.14956 0.49981 0.70851 0.0
C1466 C 0.10296 0.48302 0.72811 0.0
C1467 C 0.09312 0.49255 0.73593 0.0
C1468 C 0.08908 0.50176 0.70801 0.0
C1469 C 0.09501 0.50121 0.67226 0.0
C1470 C 0.10467 0.49162 0.6645 0.0
H1471 H 0.16494 0.50481 0.70995 0.0
H1472 H 0.14748 0.51042 0.69351 0.0
H1473 H 0.14416 0.49891 0.7366 0.0
H1474 H 0.10601 0.47599 0.74987 0.0
H1475 H 0.08871 0.49271 0.76368 0.0
H1476 H 0.50228 0.59988 0.76192 0.0
H1477 H 0.51723 0.63332 0.74443 0.0
H1478 H 0.48966 0.61724 0.63976 0.0
H1479 H 0.47457 0.58412 0.65699 0.0
H1480 H 0.54147 0.65103 0.6851 0.0
H1481 H 0.47698 0.65698 0.67474 0.0
H1482 H 0.47724 0.6376 0.69776 0.0
H1483 H 0.47558 0.63768 0.6489 0.0
C1484 C 0.49926 0.60352 0.73538 0.0
C1485 C 0.48718 0.58937 0.71094 0.0
C1486 C 0.50783 0.62259 0.72539 0.0
C1487 C 0.50432 0.62772 0.69099 0.0
C1488 C 0.49224 0.61361 0.6667 0.0
H1489 H 0.57283 0.73486 0.57748 0.0
H1490 H 0.55561 0.70125 0.59404 0.0
C1491 C 0.48371 0.59466 0.67659 0.0
C1492 C 0.51376 0.64775 0.67958 0.0
H1493 H 0.50503 0.68197 0.64843 0.0
C1494 C 0.53355 0.65787 0.67729 0.0
C1495 C 0.50335 0.65661 0.66959 0.0
C1496 C 0.48212 0.64673 0.67317 0.0
C1497 C 0.54322 0.67659 0.66473 0.0
C1498 C 0.53276 0.68523 0.65359 0.0
C1499 C 0.51299 0.67519 0.65641 0.0
C1500 C 0.54211 0.70515 0.64138 0.0
C1501 C 0.56454 0.68706 0.6642 0.0
C1502 C 0.53955 0.71824 0.66152 0.0
C1503 C 0.54915 0.73728 0.65197 0.0
C1504 C 0.56151 0.74363 0.62197 0.0
C1505 C 0.56344 0.73038 0.60076 0.0
C1506 C 0.55377 0.71124 0.6104 0.0
H1507 H 0.57039 0.67997 0.68124 0.0
H1508 H 0.56948 0.68766 0.63582 0.0
H1509 H 0.57034 0.70178 0.6741 0.0
H1510 H 0.53052 0.71381 0.68536 0.0
H1511 H 0.54726 0.74709 0.66879 0.0
H1512 H 0.2502 0.80917 0.68967 0.0
H1513 H 0.28324 0.82517 0.70779 0.0
H1514 H 0.2992 0.85364 0.60399 0.0
H1515 H 0.26581 0.83784 0.58571 0.0
H1516 H 0.31303 0.82412 0.67774 0.0
H1517 H 0.3249 0.8972 0.67657 0.0
H1518 H 0.30161 0.87662 0.67414 0.0
H1519 H 0.31635 0.88468 0.6343 0.0
C1520 C 0.26068 0.81881 0.67054 0.0
C1521 C 0.25537 0.8223 0.63625 0.0
C1522 C 0.27959 0.82795 0.68101 0.0
C1523 C 0.29363 0.8408 0.6575 0.0
C1524 C 0.2885 0.84405 0.62285 0.0
H1525 H 0.41285 0.88204 0.6761 0.0
H1526 H 0.37934 0.86515 0.66145 0.0
C1527 C 0.26947 0.83491 0.61232 0.0
C1528 C 0.3136 0.85049 0.66957 0.0
H1529 H 0.35171 0.89387 0.68733 0.0
C1530 C 0.32149 0.83938 0.67987 0.0
C1531 C 0.32446 0.87036 0.67302 0.0
C1532 C 0.31639 0.88295 0.66427 0.0
C1533 C 0.34004 0.84759 0.69305 0.0
C1534 C 0.35113 0.86749 0.69526 0.0
C1535 C 0.34317 0.87861 0.68551 0.0
C1536 C 0.3713 0.87706 0.70589 0.0
C1537 C 0.34749 0.83487 0.70491 0.0
C1538 C 0.37798 0.88955 0.73563 0.0
C1539 C 0.39729 0.8994 0.74405 0.0
C1540 C 0.41017 0.89697 0.72262 0.0
C1541 C 0.40331 0.88417 0.69332 0.0
C1542 C 0.38412 0.87441 0.68495 0.0
H1543 H 0.33583 0.82055 0.71218 0.0
H1544 H 0.35553 0.8333 0.68213 0.0
H1545 H 0.3571 0.84086 0.72869 0.0
H1546 H 0.36828 0.89184 0.75201 0.0
H1547 H 0.40216 0.90926 0.76661 0.0
loop_
_geom_bond_atom_site_label_1
_geom_bond_atom_site_label_2
_geom_bond_distance
_geom_bond_site_symmetry_2
_ccdc_geom_bond_type
O0 Cd1 2.223 . S
O0 C8 1.315 . S
Cd1 O0 2.223 . S
Cd1 O4 2.297 . S
Cd1 O5 2.439 . S
Cd1 O11 2.240 . S
Cd2 O3 2.240 . S
Cd2 O10 2.223 1_554 S
Cd2 O12 2.297 . S
Cd2 O13 2.439 . S
O3 Cd2 2.240 . S
O3 C8 1.279 . S
O4 Cd1 2.297 . S
O4 C6 1.247 . S
O5 Cd1 2.439 . S
O5 C6 1.208 . S
C6 O4 1.247 . S
C6 O5 1.208 . S
C7 O12 1.247 . S
C7 O13 1.208 . S
C8 O0 1.315 . S
C8 O3 1.279 . S
C9 O10 1.315 . S
C9 O11 1.279 1_556 S
O10 Cd2 2.223 1_556 S
O10 C9 1.315 . S
O11 Cd1 2.240 . S
O11 C9 1.279 1_554 S
O12 Cd2 2.297 . S
O12 C7 1.247 . S
O13 Cd2 2.439 . S
O13 C7 1.208 . S
O14 Cd15 2.223 . S
O14 C22 1.315 . S
Cd15 O14 2.223 . S
Cd15 O18 2.297 . S
Cd15 O19 2.439 . S
Cd15 O25 2.240 . S
Cd16 O17 2.240 . S
Cd16 O24 2.223 1_554 S
Cd16 O26 2.297 . S
Cd16 O27 2.439 . S
O17 Cd16 2.240 . S
O17 C22 1.279 . S
O18 Cd15 2.297 . S
O18 C20 1.247 . S
O19 Cd15 2.439 . S
O19 C20 1.208 . S
C20 O18 1.247 . S
C20 O19 1.208 . S
C21 O26 1.247 . S
C21 O27 1.208 . S
C22 O14 1.315 . S
C22 O17 1.279 . S
C23 O24 1.315 . S
C23 O25 1.279 1_556 S
O24 Cd16 2.223 1_556 S
O24 C23 1.315 . S
O25 Cd15 2.240 . S
O25 C23 1.279 1_554 S
O26 Cd16 2.297 . S
O26 C21 1.247 . S
O27 Cd16 2.439 . S
O27 C21 1.208 . S
O28 Cd29 2.223 . S
O28 C36 1.315 . S
Cd29 O28 2.223 . S
Cd29 O32 2.297 . S
Cd29 O33 2.439 . S
Cd29 O39 2.240 . S
Cd30 O31 2.240 . S
Cd30 O38 2.223 1_554 S
Cd30 O40 2.297 . S
Cd30 O41 2.439 . S
O31 Cd30 2.240 . S
O31 C36 1.279 . S
O32 Cd29 2.297 . S
O32 C34 1.247 . S
O33 Cd29 2.439 . S
O33 C34 1.208 . S
C34 O32 1.247 . S
C34 O33 1.208 . S
C35 O40 1.247 . S
C35 O41 1.208 . S
C36 O28 1.315 . S
C36 O31 1.279 . S
C37 O38 1.315 . S
C37 O39 1.279 1_556 S
O38 Cd30 2.223 1_556 S
O38 C37 1.315 . S
O39 Cd29 2.240 . S
O39 C37 1.279 1_554 S
O40 Cd30 2.297 . S
O40 C35 1.247 . S
O41 Cd30 2.439 . S
O41 C35 1.208 . S
O42 Cd43 2.223 . S
O42 C50 1.315 . S
Cd43 O42 2.223 . S
Cd43 O46 2.297 . S
Cd43 O47 2.439 . S
Cd43 O53 2.240 . S
Cd44 O45 2.240 . S
Cd44 O52 2.223 1_556 S
Cd44 O54 2.297 . S
Cd44 O55 2.439 . S
O45 Cd44 2.240 . S
O45 C50 1.279 . S
O46 Cd43 2.297 . S
O46 C48 1.247 . S
O47 Cd43 2.439 . S
O47 C48 1.208 . S
C48 O46 1.247 . S
C48 O47 1.208 . S
C49 O54 1.247 . S
C49 O55 1.208 . S
C50 O42 1.315 . S
C50 O45 1.279 . S
C51 O52 1.315 . S
C51 O53 1.279 1_554 S
O52 Cd44 2.223 1_554 S
O52 C51 1.315 . S
O53 Cd43 2.240 . S
O53 C51 1.279 1_556 S
O54 Cd44 2.297 . S
O54 C49 1.247 . S
O55 Cd44 2.439 . S
O55 C49 1.208 . S
O56 Cd57 2.223 . S
O56 C64 1.315 . S
Cd57 O56 2.223 . S
Cd57 O60 2.297 . S
Cd57 O61 2.439 . S
Cd57 O67 2.240 . S
Cd58 O59 2.240 . S
Cd58 O66 2.223 1_556 S
Cd58 O68 2.297 . S
Cd58 O69 2.439 . S
O59 Cd58 2.240 . S
O59 C64 1.279 . S
O60 Cd57 2.297 . S
O60 C62 1.247 . S
O61 Cd57 2.439 . S
O61 C62 1.208 . S
C62 O60 1.247 . S
C62 O61 1.208 . S
C63 O68 1.247 . S
C63 O69 1.208 . S
C64 O56 1.315 . S
C64 O59 1.279 . S
C65 O66 1.315 . S
C65 O67 1.279 1_554 S
O66 Cd58 2.223 1_554 S
O66 C65 1.315 . S
O67 Cd57 2.240 . S
O67 C65 1.279 1_556 S
O68 Cd58 2.297 . S
O68 C63 1.247 . S
O69 Cd58 2.439 . S
O69 C63 1.208 . S
O70 Cd71 2.223 . S
O70 C78 1.315 . S
Cd71 O70 2.223 . S
Cd71 O74 2.297 . S
Cd71 O75 2.439 . S
Cd71 O81 2.240 . S
Cd72 O73 2.240 . S
Cd72 O80 2.223 1_556 S
Cd72 O82 2.297 . S
Cd72 O83 2.439 . S
O73 Cd72 2.240 . S
O73 C78 1.279 . S
O74 Cd71 2.297 . S
O74 C76 1.247 . S
O75 Cd71 2.439 . S
O75 C76 1.208 . S
C76 O74 1.247 . S
C76 O75 1.208 . S
C77 O82 1.247 . S
C77 O83 1.208 . S
C78 O70 1.315 . S
C78 O73 1.279 . S
C79 O80 1.315 . S
C79 O81 1.279 1_554 S
O80 Cd72 2.223 1_554 S
O80 C79 1.315 . S
O81 Cd71 2.240 . S
O81 C79 1.279 1_556 S
O82 Cd72 2.297 . S
O82 C77 1.247 . S
O83 Cd72 2.439 . S
O83 C77 1.208 . S
O84 Cd85 2.223 . S
O84 C92 1.315 . S
Cd85 O84 2.223 . S
Cd85 O88 2.297 . S
Cd85 O89 2.439 . S
Cd85 O95 2.240 . S
Cd86 O87 2.240 . S
Cd86 O94 2.223 . S
Cd86 O96 2.297 . S
Cd86 O97 2.439 . S
O87 Cd86 2.240 . S
O87 C92 1.279 . S
O88 Cd85 2.297 . S
O88 C90 1.247 . S
O89 Cd85 2.439 . S
O89 C90 1.208 . S
C90 O88 1.247 . S
C90 O89 1.208 . S
C91 O96 1.247 . S
C91 O97 1.208 . S
C92 O84 1.315 . S
C92 O87 1.279 . S
C93 O94 1.315 . S
C93 O95 1.279 . S
O94 Cd86 2.223 . S
O94 C93 1.315 . S
O95 Cd85 2.240 . S
O95 C93 1.279 . S
O96 Cd86 2.297 . S
O96 C91 1.247 . S
O97 Cd86 2.439 . S
O97 C91 1.208 . S
O98 Cd99 2.223 . S
O98 C106 1.315 . S
Cd99 O98 2.223 . S
Cd99 O102 2.297 . S
Cd99 O103 2.439 . S
Cd99 O109 2.240 . S
Cd100 O101 2.240 . S
Cd100 O108 2.223 . S
Cd100 O110 2.297 . S
Cd100 O111 2.439 . S
O101 Cd100 2.240 . S
O101 C106 1.279 . S
O102 Cd99 2.297 . S
O102 C104 1.247 . S
O103 Cd99 2.439 . S
O103 C104 1.208 . S
C104 O102 1.247 . S
C104 O103 1.208 . S
C105 O110 1.247 . S
C105 O111 1.208 . S
C106 O98 1.315 . S
C106 O101 1.279 . S
C107 O108 1.315 . S
C107 O109 1.279 . S
O108 Cd100 2.223 . S
O108 C107 1.315 . S
O109 Cd99 2.240 . S
O109 C107 1.279 . S
O110 Cd100 2.297 . S
O110 C105 1.247 . S
O111 Cd100 2.439 . S
O111 C105 1.208 . S
O112 Cd113 2.223 . S
O112 C120 1.315 . S
Cd113 O112 2.223 . S
Cd113 O116 2.297 . S
Cd113 O117 2.439 . S
Cd113 O123 2.240 . S
Cd114 O115 2.240 . S
Cd114 O122 2.223 . S
Cd114 O124 2.297 . S
Cd114 O125 2.439 . S
O115 Cd114 2.240 . S
O115 C120 1.279 . S
O116 Cd113 2.297 . S
O116 C118 1.247 . S
O117 Cd113 2.439 . S
O117 C118 1.208 . S
C118 O116 1.247 . S
C118 O117 1.208 . S
C119 O124 1.247 . S
C119 O125 1.208 . S
C120 O112 1.315 . S
C120 O115 1.279 . S
C121 O122 1.315 . S
C121 O123 1.279 . S
O122 Cd114 2.223 . S
O122 C121 1.315 . S
O123 Cd113 2.240 . S
O123 C121 1.279 . S
O124 Cd114 2.297 . S
O124 C119 1.247 . S
O125 Cd114 2.439 . S
O125 C119 1.208 . S
O126 Cd127 2.223 . S
O126 C134 1.315 . S
Cd127 O126 2.223 . S
Cd127 O130 2.297 . S
Cd127 O131 2.439 . S
Cd127 O137 2.240 . S
Cd128 O129 2.240 . S
Cd128 O136 2.223 . S
Cd128 O138 2.297 . S
Cd128 O139 2.439 . S
O129 Cd128 2.240 . S
O129 C134 1.279 . S
O130 Cd127 2.297 . S
O130 C132 1.247 . S
O131 Cd127 2.439 . S
O131 C132 1.208 . S
C132 O130 1.247 . S
C132 O131 1.208 . S
C133 O138 1.247 . S
C133 O139 1.208 . S
C134 O126 1.315 . S
C134 O129 1.279 . S
C135 O136 1.315 . S
C135 O137 1.279 . S
O136 Cd128 2.223 . S
O136 C135 1.315 . S
O137 Cd127 2.240 . S
O137 C135 1.279 . S
O138 Cd128 2.297 . S
O138 C133 1.247 . S
O139 Cd128 2.439 . S
O139 C133 1.208 . S
O140 Cd141 2.223 . S
O140 C148 1.315 . S
Cd141 O140 2.223 . S
Cd141 O144 2.297 . S
Cd141 O145 2.439 . S
Cd141 O151 2.240 . S
Cd142 O143 2.240 . S
Cd142 O150 2.223 . S
Cd142 O152 2.297 . S
Cd142 O153 2.439 . S
O143 Cd142 2.240 . S
O143 C148 1.279 . S
O144 Cd141 2.297 . S
O144 C146 1.247 . S
O145 Cd141 2.439 . S
O145 C146 1.208 . S
C146 O144 1.247 . S
C146 O145 1.208 . S
C147 O152 1.247 . S
C147 O153 1.208 . S
C148 O140 1.315 . S
C148 O143 1.279 . S
C149 O150 1.315 . S
C149 O151 1.279 . S
O150 Cd142 2.223 . S
O150 C149 1.315 . S
O151 Cd141 2.240 . S
O151 C149 1.279 . S
O152 Cd142 2.297 . S
O152 C147 1.247 . S
O153 Cd142 2.439 . S
O153 C147 1.208 . S
O154 Cd155 2.223 . S
O154 C162 1.315 . S
Cd155 O154 2.223 . S
Cd155 O158 2.297 . S
Cd155 O159 2.439 . S
Cd155 O165 2.240 . S
Cd156 O157 2.240 . S
Cd156 O164 2.223 . S
Cd156 O166 2.297 . S
Cd156 O167 2.439 . S
O157 Cd156 2.240 . S
O157 C162 1.279 . S
O158 Cd155 2.297 . S
O158 C160 1.247 . S
O159 Cd155 2.439 . S
O159 C160 1.208 . S
C160 O158 1.247 . S
C160 O159 1.208 . S
C161 O166 1.247 . S
C161 O167 1.208 . S
C162 O154 1.315 . S
C162 O157 1.279 . S
C163 O164 1.315 . S
C163 O165 1.279 . S
O164 Cd156 2.223 . S
O164 C163 1.315 . S
O165 Cd155 2.240 . S
O165 C163 1.279 . S
O166 Cd156 2.297 . S
O166 C161 1.247 . S
O167 Cd156 2.439 . S
O167 C161 1.208 . S
O168 Cd169 2.223 . S
O168 C176 1.315 . S
Cd169 O168 2.223 . S
Cd169 O172 2.297 . S
Cd169 O173 2.439 . S
Cd169 O179 2.240 . S
Cd170 O171 2.240 . S
Cd170 O178 2.223 . S
Cd170 O180 2.297 . S
Cd170 O181 2.439 . S
O171 Cd170 2.240 . S
O171 C176 1.279 . S
O172 Cd169 2.297 . S
O172 C174 1.247 . S
O173 Cd169 2.439 . S
O173 C174 1.208 . S
C174 O172 1.247 . S
C174 O173 1.208 . S
C175 O180 1.247 . S
C175 O181 1.208 . S
C176 O168 1.315 . S
C176 O171 1.279 . S
C177 O178 1.315 . S
C177 O179 1.279 . S
O178 Cd170 2.223 . S
O178 C177 1.315 . S
O179 Cd169 2.240 . S
O179 C177 1.279 . S
O180 Cd170 2.297 . S
O180 C175 1.247 . S
O181 Cd170 2.439 . S
O181 C175 1.208 . S
O182 Cd183 2.223 . S
O182 C190 1.315 . S
Cd183 O182 2.223 . S
Cd183 O186 2.297 . S
Cd183 O187 2.439 . S
Cd183 O193 2.240 . S
Cd184 O185 2.240 . S
Cd184 O192 2.223 . S
Cd184 O194 2.297 . S
Cd184 O195 2.439 . S
O185 Cd184 2.240 . S
O185 C190 1.279 . S
O186 Cd183 2.297 . S
O186 C188 1.247 . S
O187 Cd183 2.439 . S
O187 C188 1.208 . S
C188 O186 1.247 . S
C188 O187 1.208 . S
C189 O194 1.247 . S
C189 O195 1.208 . S
C190 O182 1.315 . S
C190 O185 1.279 . S
C191 O192 1.315 . S
C191 O193 1.279 . S
O192 Cd184 2.223 . S
O192 C191 1.315 . S
O193 Cd183 2.240 . S
O193 C191 1.279 . S
O194 Cd184 2.297 . S
O194 C189 1.247 . S
O195 Cd184 2.439 . S
O195 C189 1.208 . S
O196 Cd197 2.223 . S
O196 C204 1.315 . S
Cd197 O196 2.223 . S
Cd197 O200 2.297 . S
Cd197 O201 2.439 . S
Cd197 O207 2.240 . S
Cd198 O199 2.240 . S
Cd198 O206 2.223 . S
Cd198 O208 2.297 . S
Cd198 O209 2.439 . S
O199 Cd198 2.240 . S
O199 C204 1.279 . S
O200 Cd197 2.297 . S
O200 C202 1.247 . S
O201 Cd197 2.439 . S
O201 C202 1.208 . S
C202 O200 1.247 . S
C202 O201 1.208 . S
C203 O208 1.247 . S
C203 O209 1.208 . S
C204 O196 1.315 . S
C204 O199 1.279 . S
C205 O206 1.315 . S
C205 O207 1.279 . S
O206 Cd198 2.223 . S
O206 C205 1.315 . S
O207 Cd197 2.240 . S
O207 C205 1.279 . S
O208 Cd198 2.297 . S
O208 C203 1.247 . S
O209 Cd198 2.439 . S
O209 C203 1.208 . S
O210 Cd211 2.223 . S
O210 C218 1.315 . S
Cd211 O210 2.223 . S
Cd211 O214 2.297 . S
Cd211 O215 2.439 . S
Cd211 O221 2.240 . S
Cd212 O213 2.240 . S
Cd212 O220 2.223 . S
Cd212 O222 2.297 . S
Cd212 O223 2.439 . S
O213 Cd212 2.240 . S
O213 C218 1.279 . S
O214 Cd211 2.297 . S
O214 C216 1.247 . S
O215 Cd211 2.439 . S
O215 C216 1.208 . S
C216 O214 1.247 . S
C216 O215 1.208 . S
C217 O222 1.247 . S
C217 O223 1.208 . S
C218 O210 1.315 . S
C218 O213 1.279 . S
C219 O220 1.315 . S
C219 O221 1.279 . S
O220 Cd212 2.223 . S
O220 C219 1.315 . S
O221 Cd211 2.240 . S
O221 C219 1.279 . S
O222 Cd212 2.297 . S
O222 C217 1.247 . S
O223 Cd212 2.439 . S
O223 C217 1.208 . S
O224 Cd225 2.223 . S
O224 C232 1.315 . S
Cd225 O224 2.223 . S
Cd225 O228 2.297 . S
Cd225 O229 2.439 . S
Cd225 O235 2.240 . S
Cd226 O227 2.240 . S
Cd226 O234 2.223 . S
Cd226 O236 2.297 . S
Cd226 O237 2.439 . S
O227 Cd226 2.240 . S
O227 C232 1.279 . S
O228 Cd225 2.297 . S
O228 C230 1.247 . S
O229 Cd225 2.439 . S
O229 C230 1.208 . S
C230 O228 1.247 . S
C230 O229 1.208 . S
C231 O236 1.247 . S
C231 O237 1.208 . S
C232 O224 1.315 . S
C232 O227 1.279 . S
C233 O234 1.315 . S
C233 O235 1.279 . S
O234 Cd226 2.223 . S
O234 C233 1.315 . S
O235 Cd225 2.240 . S
O235 C233 1.279 . S
O236 Cd226 2.297 . S
O236 C231 1.247 . S
O237 Cd226 2.439 . S
O237 C231 1.208 . S
O238 Cd239 2.223 . S
O238 C246 1.315 . S
Cd239 O238 2.223 . S
Cd239 O242 2.297 . S
Cd239 O243 2.439 . S
Cd239 O249 2.240 . S
Cd240 O241 2.240 . S
Cd240 O248 2.223 . S
Cd240 O250 2.297 . S
Cd240 O251 2.439 . S
O241 Cd240 2.240 . S
O241 C246 1.279 . S
O242 Cd239 2.297 . S
O242 C244 1.247 . S
O243 Cd239 2.439 . S
O243 C244 1.208 . S
C244 O242 1.247 . S
C244 O243 1.208 . S
C245 O250 1.247 . S
C245 O251 1.208 . S
C246 O238 1.315 . S
C246 O241 1.279 . S
C247 O248 1.315 . S
C247 O249 1.279 . S
O248 Cd240 2.223 . S
O248 C247 1.315 . S
O249 Cd239 2.240 . S
O249 C247 1.279 . S
O250 Cd240 2.297 . S
O250 C245 1.247 . S
O251 Cd240 2.439 . S
O251 C245 1.208 . S
H252 C260 0.929 . S
H253 C262 0.930 . S
H254 C264 0.930 . S
H255 C267 0.929 . S
H256 C270 0.930 . S
H257 C272 0.960 . S
H258 C272 0.960 . S
H259 C272 0.960 . S
C260 H252 0.929 . S
C260 C261 1.377 . S
C260 C262 1.384 . S
C261 C260 1.377 . S
C261 C267 1.390 . S
C262 H253 0.930 . S
C262 C260 1.384 . S
C262 C263 1.372 . S
C263 C262 1.372 . S
C263 C264 1.400 . S
C263 C268 1.490 . S
C264 H254 0.930 . S
C264 C263 1.400 . S
C264 C267 1.386 . S
H265 C281 0.930 . S
H266 C282 0.931 . S
C267 H255 0.929 . S
C267 C261 1.390 . S
C267 C264 1.386 . S
C268 C263 1.490 . S
C268 C270 1.395 . S
C268 C271 1.403 . S
H269 C275 0.930 . S
C270 H256 0.930 . S
C270 C268 1.395 . S
C270 C273 1.403 . S
C271 C268 1.403 . S
C271 C272 1.524 . S
C271 C275 1.400 . S
C272 H257 0.960 . S
C272 H258 0.960 . S
C272 H259 0.960 . S
C272 C271 1.524 . S
C273 C270 1.403 . S
C273 C274 1.392 . S
C273 C277 1.495 . S
C274 C273 1.392 . S
C274 C275 1.385 . S
C274 C276 1.478 . S
C275 H269 0.930 . S
C275 C271 1.400 . S
C275 C274 1.385 . S
C276 C274 1.478 . S
C276 C278 1.381 . S
C276 C282 1.383 . S
C277 C273 1.495 . S
C277 H283 0.959 . S
C277 H284 0.961 . S
C277 H285 0.960 . S
C278 C276 1.381 . S
C278 C279 1.394 . S
C278 H286 0.930 . S
C279 C278 1.394 . S
C279 C280 1.383 . S
C279 H287 0.929 . S
C280 C279 1.383 . S
C280 C281 1.377 . S
C281 H265 0.930 . S
C281 C280 1.377 . S
C281 C282 1.379 . S
C282 H266 0.931 . S
C282 C276 1.383 . S
C282 C281 1.379 . S
H283 C277 0.959 . S
H284 C277 0.961 . S
H285 C277 0.960 . S
H286 C278 0.930 . S
H287 C279 0.929 . S
H288 C296 0.929 . S
H289 C298 0.930 . S
H290 C300 0.930 . S
H291 C303 0.929 . S
H292 C306 0.930 . S
H293 C308 0.960 . S
H294 C308 0.960 . S
H295 C308 0.960 . S
C296 H288 0.929 . S
C296 C297 1.377 . S
C296 C298 1.384 . S
C297 C296 1.377 . S
C297 C303 1.390 . S
C298 H289 0.930 . S
C298 C296 1.384 . S
C298 C299 1.372 . S
C299 C298 1.372 . S
C299 C300 1.400 . S
C299 C304 1.490 . S
C300 H290 0.930 . S
C300 C299 1.400 . S
C300 C303 1.386 . S
H301 C317 0.930 . S
H302 C318 0.931 . S
C303 H291 0.929 . S
C303 C297 1.390 . S
C303 C300 1.386 . S
C304 C299 1.490 . S
C304 C306 1.395 . S
C304 C307 1.403 . S
H305 C311 0.930 . S
C306 H292 0.930 . S
C306 C304 1.395 . S
C306 C309 1.403 . S
C307 C304 1.403 . S
C307 C308 1.524 . S
C307 C311 1.400 . S
C308 H293 0.960 . S
C308 H294 0.960 . S
C308 H295 0.960 . S
C308 C307 1.524 . S
C309 C306 1.403 . S
C309 C310 1.392 . S
C309 C313 1.495 . S
C310 C309 1.392 . S
C310 C311 1.385 . S
C310 C312 1.478 . S
C311 H305 0.930 . S
C311 C307 1.400 . S
C311 C310 1.385 . S
C312 C310 1.478 . S
C312 C314 1.381 . S
C312 C318 1.383 . S
C313 C309 1.495 . S
C313 H319 0.959 . S
C313 H320 0.961 . S
C313 H321 0.960 . S
C314 C312 1.381 . S
C314 C315 1.394 . S
C314 H322 0.930 . S
C315 C314 1.394 . S
C315 C316 1.383 . S
C315 H323 0.929 . S
C316 C315 1.383 . S
C316 C317 1.377 . S
C317 H301 0.930 . S
C317 C316 1.377 . S
C317 C318 1.379 . S
C318 H302 0.931 . S
C318 C312 1.383 . S
C318 C317 1.379 . S
H319 C313 0.959 . S
H320 C313 0.961 . S
H321 C313 0.960 . S
H322 C314 0.930 . S
H323 C315 0.929 . S
H324 C332 0.929 . S
H325 C334 0.930 . S
H326 C336 0.930 . S
H327 C339 0.929 . S
H328 C342 0.930 . S
H329 C344 0.960 . S
H330 C344 0.960 . S
H331 C344 0.960 . S
C332 H324 0.929 . S
C332 C333 1.377 . S
C332 C334 1.384 . S
C333 C332 1.377 . S
C333 C339 1.390 . S
C334 H325 0.930 . S
C334 C332 1.384 . S
C334 C335 1.372 . S
C335 C334 1.372 . S
C335 C336 1.400 . S
C335 C340 1.490 . S
C336 H326 0.930 . S
C336 C335 1.400 . S
C336 C339 1.386 . S
H337 C353 0.930 . S
H338 C354 0.931 . S
C339 H327 0.929 . S
C339 C333 1.390 . S
C339 C336 1.386 . S
C340 C335 1.490 . S
C340 C342 1.395 . S
C340 C343 1.403 . S
H341 C347 0.930 . S
C342 H328 0.930 . S
C342 C340 1.395 . S
C342 C345 1.403 . S
C343 C340 1.403 . S
C343 C344 1.524 . S
C343 C347 1.400 . S
C344 H329 0.960 . S
C344 H330 0.960 . S
C344 H331 0.960 . S
C344 C343 1.524 . S
C345 C342 1.403 . S
C345 C346 1.392 . S
C345 C349 1.495 . S
C346 C345 1.392 . S
C346 C347 1.385 . S
C346 C348 1.478 . S
C347 H341 0.930 . S
C347 C343 1.400 . S
C347 C346 1.385 . S
C348 C346 1.478 . S
C348 C350 1.381 . S
C348 C354 1.383 . S
C349 C345 1.495 . S
C349 H355 0.959 . S
C349 H356 0.961 . S
C349 H357 0.960 . S
C350 C348 1.381 . S
C350 C351 1.394 . S
C350 H358 0.930 . S
C351 C350 1.394 . S
C351 C352 1.383 . S
C351 H359 0.929 . S
C352 C351 1.383 . S
C352 C353 1.377 . S
C353 H337 0.930 . S
C353 C352 1.377 . S
C353 C354 1.379 . S
C354 H338 0.931 . S
C354 C348 1.383 . S
C354 C353 1.379 . S
H355 C349 0.959 . S
H356 C349 0.961 . S
H357 C349 0.960 . S
H358 C350 0.930 . S
H359 C351 0.929 . S
H360 C368 0.929 . S
H361 C370 0.930 . S
H362 C372 0.930 . S
H363 C375 0.929 . S
H364 C378 0.930 . S
H365 C380 0.960 . S
H366 C380 0.960 . S
H367 C380 0.960 . S
C368 H360 0.929 . S
C368 C369 1.377 . S
C368 C370 1.384 . S
C369 C368 1.377 . S
C369 C375 1.390 . S
C370 H361 0.930 . S
C370 C368 1.384 . S
C370 C371 1.372 . S
C371 C370 1.372 . S
C371 C372 1.400 . S
C371 C376 1.490 . S
C372 H362 0.930 . S
C372 C371 1.400 . S
C372 C375 1.386 . S
H373 C389 0.930 . S
H374 C390 0.931 . S
C375 H363 0.929 . S
C375 C369 1.390 . S
C375 C372 1.386 . S
C376 C371 1.490 . S
C376 C378 1.395 . S
C376 C379 1.403 . S
H377 C383 0.930 . S
C378 H364 0.930 . S
C378 C376 1.395 . S
C378 C381 1.403 . S
C379 C376 1.403 . S
C379 C380 1.524 . S
C379 C383 1.400 . S
C380 H365 0.960 . S
C380 H366 0.960 . S
C380 H367 0.960 . S
C380 C379 1.524 . S
C381 C378 1.403 . S
C381 C382 1.392 . S
C381 C385 1.495 . S
C382 C381 1.392 . S
C382 C383 1.385 . S
C382 C384 1.478 . S
C383 H377 0.930 . S
C383 C379 1.400 . S
C383 C382 1.385 . S
C384 C382 1.478 . S
C384 C386 1.381 . S
C384 C390 1.383 . S
C385 C381 1.495 . S
C385 H391 0.959 . S
C385 H392 0.961 . S
C385 H393 0.960 . S
C386 C384 1.381 . S
C386 C387 1.394 . S
C386 H394 0.930 . S
C387 C386 1.394 . S
C387 C388 1.383 . S
C387 H395 0.929 . S
C388 C387 1.383 . S
C388 C389 1.377 . S
C389 H373 0.930 . S
C389 C388 1.377 . S
C389 C390 1.379 . S
C390 H374 0.931 . S
C390 C384 1.383 . S
C390 C389 1.379 . S
H391 C385 0.959 . S
H392 C385 0.961 . S
H393 C385 0.960 . S
H394 C386 0.930 . S
H395 C387 0.929 . S
H396 C404 0.929 . S
H397 C406 0.930 . S
H398 C408 0.930 . S
H399 C411 0.929 . S
H400 C414 0.930 . S
H401 C416 0.960 . S
H402 C416 0.960 . S
H403 C416 0.960 . S
C404 H396 0.929 . S
C404 C405 1.377 . S
C404 C406 1.384 . S
C405 C404 1.377 . S
C405 C411 1.390 . S
C406 H397 0.930 . S
C406 C404 1.384 . S
C406 C407 1.372 . S
C407 C406 1.372 . S
C407 C408 1.400 . S
C407 C412 1.490 . S
C408 H398 0.930 . S
C408 C407 1.400 . S
C408 C411 1.386 . S
H409 C425 0.930 . S
H410 C426 0.931 . S
C411 H399 0.929 . S
C411 C405 1.390 . S
C411 C408 1.386 . S
C412 C407 1.490 . S
C412 C414 1.395 . S
C412 C415 1.403 . S
H413 C419 0.930 . S
C414 H400 0.930 . S
C414 C412 1.395 . S
C414 C417 1.403 . S
C415 C412 1.403 . S
C415 C416 1.524 . S
C415 C419 1.400 . S
C416 H401 0.960 . S
C416 H402 0.960 . S
C416 H403 0.960 . S
C416 C415 1.524 . S
C417 C414 1.403 . S
C417 C418 1.392 . S
C417 C421 1.495 . S
C418 C417 1.392 . S
C418 C419 1.385 . S
C418 C420 1.478 . S
C419 H413 0.930 . S
C419 C415 1.400 . S
C419 C418 1.385 . S
C420 C418 1.478 . S
C420 C422 1.381 . S
C420 C426 1.383 . S
C421 C417 1.495 . S
C421 H427 0.959 . S
C421 H428 0.961 . S
C421 H429 0.960 . S
C422 C420 1.381 . S
C422 C423 1.394 . S
C422 H430 0.930 . S
C423 C422 1.394 . S
C423 C424 1.383 . S
C423 H431 0.929 . S
C424 C423 1.383 . S
C424 C425 1.377 . S
C425 H409 0.930 . S
C425 C424 1.377 . S
C425 C426 1.379 . S
C426 H410 0.931 . S
C426 C420 1.383 . S
C426 C425 1.379 . S
H427 C421 0.959 . S
H428 C421 0.961 . S
H429 C421 0.960 . S
H430 C422 0.930 . S
H431 C423 0.929 . S
H432 C440 0.929 . S
H433 C442 0.930 . S
H434 C444 0.930 . S
H435 C447 0.929 . S
H436 C450 0.930 . S
H437 C452 0.960 . S
H438 C452 0.960 . S
H439 C452 0.960 . S
C440 H432 0.929 . S
C440 C441 1.377 . S
C440 C442 1.384 . S
C441 C440 1.377 . S
C441 C447 1.390 . S
C442 H433 0.930 . S
C442 C440 1.384 . S
C442 C443 1.372 . S
C443 C442 1.372 . S
C443 C444 1.400 . S
C443 C448 1.490 . S
C444 H434 0.930 . S
C444 C443 1.400 . S
C444 C447 1.386 . S
H445 C461 0.930 . S
H446 C462 0.931 . S
C447 H435 0.929 . S
C447 C441 1.390 . S
C447 C444 1.386 . S
C448 C443 1.490 . S
C448 C450 1.395 . S
C448 C451 1.403 . S
H449 C455 0.930 . S
C450 H436 0.930 . S
C450 C448 1.395 . S
C450 C453 1.403 . S
C451 C448 1.403 . S
C451 C452 1.524 . S
C451 C455 1.400 . S
C452 H437 0.960 . S
C452 H438 0.960 . S
C452 H439 0.960 . S
C452 C451 1.524 . S
C453 C450 1.403 . S
C453 C454 1.392 . S
C453 C457 1.495 . S
C454 C453 1.392 . S
C454 C455 1.385 . S
C454 C456 1.478 . S
C455 H449 0.930 . S
C455 C451 1.400 . S
C455 C454 1.385 . S
C456 C454 1.478 . S
C456 C458 1.381 . S
C456 C462 1.383 . S
C457 C453 1.495 . S
C457 H463 0.959 . S
C457 H464 0.961 . S
C457 H465 0.960 . S
C458 C456 1.381 . S
C458 C459 1.394 . S
C458 H466 0.930 . S
C459 C458 1.394 . S
C459 C460 1.383 . S
C459 H467 0.929 . S
C460 C459 1.383 . S
C460 C461 1.377 . S
C461 H445 0.930 . S
C461 C460 1.377 . S
C461 C462 1.379 . S
C462 H446 0.931 . S
C462 C456 1.383 . S
C462 C461 1.379 . S
H463 C457 0.959 . S
H464 C457 0.961 . S
H465 C457 0.960 . S
H466 C458 0.930 . S
H467 C459 0.929 . S
H468 C476 0.929 . S
H469 C478 0.930 . S
H470 C480 0.930 . S
H471 C483 0.929 . S
H472 C486 0.930 . S
H473 C488 0.960 . S
H474 C488 0.960 . S
H475 C488 0.960 . S
C476 H468 0.929 . S
C476 C477 1.377 . S
C476 C478 1.384 . S
C477 C476 1.377 . S
C477 C483 1.390 . S
C478 H469 0.930 . S
C478 C476 1.384 . S
C478 C479 1.372 . S
C479 C478 1.372 . S
C479 C480 1.400 . S
C479 C484 1.490 . S
C480 H470 0.930 . S
C480 C479 1.400 . S
C480 C483 1.386 . S
H481 C497 0.930 . S
H482 C498 0.931 . S
C483 H471 0.929 . S
C483 C477 1.390 . S
C483 C480 1.386 . S
C484 C479 1.490 . S
C484 C486 1.395 . S
C484 C487 1.403 1_655 S
H485 C491 0.930 . S
C486 H472 0.930 . S
C486 C484 1.395 . S
C486 C489 1.403 1_554 S
C487 C484 1.403 1_455 S
C487 C488 1.524 . S
C487 C491 1.400 1_554 S
C488 H473 0.960 . S
C488 H474 0.960 . S
C488 H475 0.960 . S
C488 C487 1.524 . S
C489 C486 1.403 1_556 S
C489 C490 1.392 1_655 S
C489 C493 1.495 . S
C490 C489 1.392 1_455 S
C490 C491 1.385 . S
C490 C492 1.478 . S
C491 H485 0.930 . S
C491 C487 1.400 1_556 S
C491 C490 1.385 . S
C492 C490 1.478 . S
C492 C494 1.381 . S
C492 C498 1.383 . S
C493 C489 1.495 . S
C493 H499 0.959 . S
C493 H500 0.961 . S
C493 H501 0.960 . S
C494 C492 1.381 . S
C494 C495 1.394 . S
C494 H502 0.930 . S
C495 C494 1.394 . S
C495 C496 1.383 . S
C495 H503 0.929 . S
C496 C495 1.383 . S
C496 C497 1.377 . S
C497 H481 0.930 . S
C497 C496 1.377 . S
C497 C498 1.379 . S
C498 H482 0.931 . S
C498 C492 1.383 . S
C498 C497 1.379 . S
H499 C493 0.959 . S
H500 C493 0.961 . S
H501 C493 0.960 . S
H502 C494 0.930 . S
H503 C495 0.929 . S
H504 C512 0.929 . S
H505 C514 0.930 . S
H506 C516 0.930 . S
H507 C519 0.929 . S
H508 C522 0.930 . S
H509 C524 0.960 1_556 S
H510 C524 0.960 . S
H511 C524 0.960 . S
C512 H504 0.929 . S
C512 C513 1.377 . S
C512 C514 1.384 . S
C513 C512 1.377 . S
C513 C519 1.390 . S
C514 H505 0.930 . S
C514 C512 1.384 . S
C514 C515 1.372 . S
C515 C514 1.372 . S
C515 C516 1.400 . S
C515 C520 1.490 . S
C516 H506 0.930 . S
C516 C515 1.400 . S
C516 C519 1.386 . S
H517 C533 0.930 . S
H518 C534 0.931 . S
C519 H507 0.929 . S
C519 C513 1.390 . S
C519 C516 1.386 . S
C520 C515 1.490 . S
C520 C522 1.395 . S
C520 C523 1.403 . S
H521 C527 0.930 . S
C522 H508 0.930 . S
C522 C520 1.395 . S
C522 C525 1.403 1_554 S
C523 C520 1.403 . S
C523 C524 1.524 . S
C523 C527 1.400 1_554 S
C524 H509 0.960 1_554 S
C524 H510 0.960 . S
C524 H511 0.960 . S
C524 C523 1.524 . S
C525 C522 1.403 1_556 S
C525 C526 1.392 . S
C525 C529 1.495 . S
C526 C525 1.392 . S
C526 C527 1.385 . S
C526 C528 1.478 . S
C527 H521 0.930 . S
C527 C523 1.400 1_556 S
C527 C526 1.385 . S
C528 C526 1.478 . S
C528 C530 1.381 . S
C528 C534 1.383 . S
C529 C525 1.495 . S
C529 H535 0.959 1_556 S
C529 H536 0.961 . S
C529 H537 0.960 . S
C530 C528 1.381 . S
C530 C531 1.394 . S
C530 H538 0.930 . S
C531 C530 1.394 . S
C531 C532 1.383 . S
C531 H539 0.929 . S
C532 C531 1.383 . S
C532 C533 1.377 . S
C533 H517 0.930 . S
C533 C532 1.377 . S
C533 C534 1.379 . S
C534 H518 0.931 . S
C534 C528 1.383 . S
C534 C533 1.379 . S
H535 C529 0.959 1_554 S
H536 C529 0.961 . S
H537 C529 0.960 . S
H538 C530 0.930 . S
H539 C531 0.929 . S
H540 C548 0.929 . S
H541 C550 0.930 . S
H542 C552 0.930 1_565 S
H543 C555 0.929 1_565 S
H544 C558 0.930 . S
H545 C560 0.960 . S
H546 C560 0.960 . S
H547 C560 0.960 . S
C548 H540 0.929 . S
C548 C549 1.377 . S
C548 C550 1.384 . S
C549 C548 1.377 . S
C549 C555 1.390 . S
C550 H541 0.930 . S
C550 C548 1.384 . S
C550 C551 1.372 . S
C551 C550 1.372 . S
C551 C552 1.400 . S
C551 C556 1.490 . S
C552 H542 0.930 1_545 S
C552 C551 1.400 . S
C552 C555 1.386 . S
H553 C569 0.930 . S
H554 C570 0.931 . S
C555 H543 0.929 1_545 S
C555 C549 1.390 . S
C555 C552 1.386 . S
C556 C551 1.490 . S
C556 C558 1.395 . S
C556 C559 1.403 1_545 S
H557 C563 0.930 . S
C558 H544 0.930 . S
C558 C556 1.395 . S
C558 C561 1.403 1_554 S
C559 C556 1.403 1_565 S
C559 C560 1.524 . S
C559 C563 1.400 1_554 S
C560 H545 0.960 . S
C560 H546 0.960 . S
C560 H547 0.960 . S
C560 C559 1.524 . S
C561 C558 1.403 1_556 S
C561 C562 1.392 1_545 S
C561 C565 1.495 . S
C562 C561 1.392 1_565 S
C562 C563 1.385 . S
C562 C564 1.478 . S
C563 H557 0.930 . S
C563 C559 1.400 1_556 S
C563 C562 1.385 . S
C564 C562 1.478 . S
C564 C566 1.381 1_565 S
C564 C570 1.383 . S
C565 C561 1.495 . S
C565 H571 0.959 . S
C565 H572 0.961 . S
C565 H573 0.960 . S
C566 C564 1.381 1_545 S
C566 C567 1.394 1_545 S
C566 H574 0.930 . S
C567 C566 1.394 1_565 S
C567 C568 1.383 . S
C567 H575 0.929 1_565 S
C568 C567 1.383 . S
C568 C569 1.377 . S
C569 H553 0.930 . S
C569 C568 1.377 . S
C569 C570 1.379 . S
C570 H554 0.931 . S
C570 C564 1.383 . S
C570 C569 1.379 . S
H571 C565 0.959 . S
H572 C565 0.961 . S
H573 C565 0.960 . S
H574 C566 0.930 . S
H575 C567 0.929 1_545 S
H576 C584 0.929 . S
H577 C586 0.930 . S
H578 C588 0.930 . S
H579 C591 0.929 . S
H580 C594 0.930 . S
H581 C596 0.960 . S
H582 C596 0.960 . S
H583 C596 0.960 . S
C584 H576 0.929 . S
C584 C585 1.377 . S
C584 C586 1.384 . S
C585 C584 1.377 . S
C585 C591 1.390 . S
C586 H577 0.930 . S
C586 C584 1.384 . S
C586 C587 1.372 . S
C587 C586 1.372 . S
C587 C588 1.400 . S
C587 C592 1.490 . S
C588 H578 0.930 . S
C588 C587 1.400 . S
C588 C591 1.386 . S
H589 C605 0.930 . S
H590 C606 0.931 . S
C591 H579 0.929 . S
C591 C585 1.390 . S
C591 C588 1.386 . S
C592 C587 1.490 . S
C592 C594 1.395 . S
C592 C595 1.403 . S
H593 C599 0.930 . S
C594 H580 0.930 . S
C594 C592 1.395 . S
C594 C597 1.403 . S
C595 C592 1.403 . S
C595 C596 1.524 . S
C595 C599 1.400 . S
C596 H581 0.960 . S
C596 H582 0.960 . S
C596 H583 0.960 . S
C596 C595 1.524 . S
C597 C594 1.403 . S
C597 C598 1.392 . S
C597 C601 1.495 . S
C598 C597 1.392 . S
C598 C599 1.385 . S
C598 C600 1.478 . S
C599 H593 0.930 . S
C599 C595 1.400 . S
C599 C598 1.385 . S
C600 C598 1.478 . S
C600 C602 1.381 . S
C600 C606 1.383 . S
C601 C597 1.495 . S
C601 H607 0.959 . S
C601 H608 0.961 . S
C601 H609 0.960 . S
C602 C600 1.381 . S
C602 C603 1.394 . S
C602 H610 0.930 . S
C603 C602 1.394 . S
C603 C604 1.383 . S
C603 H611 0.929 . S
C604 C603 1.383 . S
C604 C605 1.377 . S
C605 H589 0.930 . S
C605 C604 1.377 . S
C605 C606 1.379 . S
C606 H590 0.931 . S
C606 C600 1.383 . S
C606 C605 1.379 . S
H607 C601 0.959 . S
H608 C601 0.961 . S
H609 C601 0.960 . S
H610 C602 0.930 . S
H611 C603 0.929 . S
H612 C620 0.929 . S
H613 C622 0.930 . S
H614 C624 0.930 . S
H615 C627 0.929 . S
H616 C630 0.930 . S
H617 C632 0.960 . S
H618 C632 0.960 . S
H619 C632 0.960 . S
C620 H612 0.929 . S
C620 C621 1.377 . S
C620 C622 1.384 . S
C621 C620 1.377 . S
C621 C627 1.390 . S
C622 H613 0.930 . S
C622 C620 1.384 . S
C622 C623 1.372 . S
C623 C622 1.372 . S
C623 C624 1.400 . S
C623 C628 1.490 . S
C624 H614 0.930 . S
C624 C623 1.400 . S
C624 C627 1.386 . S
H625 C641 0.930 . S
H626 C642 0.931 . S
C627 H615 0.929 . S
C627 C621 1.390 . S
C627 C624 1.386 . S
C628 C623 1.490 . S
C628 C630 1.395 . S
C628 C631 1.403 . S
H629 C635 0.930 . S
C630 H616 0.930 . S
C630 C628 1.395 . S
C630 C633 1.403 . S
C631 C628 1.403 . S
C631 C632 1.524 . S
C631 C635 1.400 . S
C632 H617 0.960 . S
C632 H618 0.960 . S
C632 H619 0.960 . S
C632 C631 1.524 . S
C633 C630 1.403 . S
C633 C634 1.392 . S
C633 C637 1.495 . S
C634 C633 1.392 . S
C634 C635 1.385 . S
C634 C636 1.478 . S
C635 H629 0.930 . S
C635 C631 1.400 . S
C635 C634 1.385 . S
C636 C634 1.478 . S
C636 C638 1.381 . S
C636 C642 1.383 . S
C637 C633 1.495 . S
C637 H643 0.959 . S
C637 H644 0.961 . S
C637 H645 0.960 . S
C638 C636 1.381 . S
C638 C639 1.394 . S
C638 H646 0.930 . S
C639 C638 1.394 . S
C639 C640 1.383 . S
C639 H647 0.929 . S
C640 C639 1.383 . S
C640 C641 1.377 . S
C641 H625 0.930 . S
C641 C640 1.377 . S
C641 C642 1.379 . S
C642 H626 0.931 . S
C642 C636 1.383 . S
C642 C641 1.379 . S
H643 C637 0.959 . S
H644 C637 0.961 . S
H645 C637 0.960 . S
H646 C638 0.930 . S
H647 C639 0.929 . S
H648 C656 0.929 . S
H649 C658 0.930 . S
H650 C660 0.930 . S
H651 C663 0.929 . S
H652 C666 0.930 . S
H653 C668 0.960 . S
H654 C668 0.960 . S
H655 C668 0.960 . S
C656 H648 0.929 . S
C656 C657 1.377 . S
C656 C658 1.384 . S
C657 C656 1.377 . S
C657 C663 1.390 . S
C658 H649 0.930 . S
C658 C656 1.384 . S
C658 C659 1.372 . S
C659 C658 1.372 . S
C659 C660 1.400 . S
C659 C664 1.490 . S
C660 H650 0.930 . S
C660 C659 1.400 . S
C660 C663 1.386 . S
H661 C677 0.930 . S
H662 C678 0.931 . S
C663 H651 0.929 . S
C663 C657 1.390 . S
C663 C660 1.386 . S
C664 C659 1.490 . S
C664 C666 1.395 . S
C664 C667 1.403 . S
H665 C671 0.930 . S
C666 H652 0.930 . S
C666 C664 1.395 . S
C666 C669 1.403 . S
C667 C664 1.403 . S
C667 C668 1.524 . S
C667 C671 1.400 . S
C668 H653 0.960 . S
C668 H654 0.960 . S
C668 H655 0.960 . S
C668 C667 1.524 . S
C669 C666 1.403 . S
C669 C670 1.392 . S
C669 C673 1.495 . S
C670 C669 1.392 . S
C670 C671 1.385 . S
C670 C672 1.478 . S
C671 H665 0.930 . S
C671 C667 1.400 . S
C671 C670 1.385 . S
C672 C670 1.478 . S
C672 C674 1.381 . S
C672 C678 1.383 . S
C673 C669 1.495 . S
C673 H679 0.959 . S
C673 H680 0.961 . S
C673 H681 0.960 . S
C674 C672 1.381 . S
C674 C675 1.394 . S
C674 H682 0.930 . S
C675 C674 1.394 . S
C675 C676 1.383 . S
C675 H683 0.929 . S
C676 C675 1.383 . S
C676 C677 1.377 . S
C677 H661 0.930 . S
C677 C676 1.377 . S
C677 C678 1.379 . S
C678 H662 0.931 . S
C678 C672 1.383 . S
C678 C677 1.379 . S
H679 C673 0.959 . S
H680 C673 0.961 . S
H681 C673 0.960 . S
H682 C674 0.930 . S
H683 C675 0.929 . S
H684 C692 0.929 . S
H685 C694 0.930 . S
H686 C696 0.930 . S
H687 C699 0.929 . S
H688 C702 0.930 . S
H689 C704 0.960 . S
H690 C704 0.960 . S
H691 C704 0.960 . S
C692 H684 0.929 . S
C692 C693 1.377 . S
C692 C694 1.384 . S
C693 C692 1.377 . S
C693 C699 1.390 . S
C694 H685 0.930 . S
C694 C692 1.384 . S
C694 C695 1.372 . S
C695 C694 1.372 . S
C695 C696 1.400 . S
C695 C700 1.490 . S
C696 H686 0.930 . S
C696 C695 1.400 . S
C696 C699 1.386 . S
H697 C713 0.930 . S
H698 C714 0.931 . S
C699 H687 0.929 . S
C699 C693 1.390 . S
C699 C696 1.386 . S
C700 C695 1.490 . S
C700 C702 1.395 . S
C700 C703 1.403 . S
H701 C707 0.930 . S
C702 H688 0.930 . S
C702 C700 1.395 . S
C702 C705 1.403 . S
C703 C700 1.403 . S
C703 C704 1.524 . S
C703 C707 1.400 . S
C704 H689 0.960 . S
C704 H690 0.960 . S
C704 H691 0.960 . S
C704 C703 1.524 . S
C705 C702 1.403 . S
C705 C706 1.392 . S
C705 C709 1.495 . S
C706 C705 1.392 . S
C706 C707 1.385 . S
C706 C708 1.478 . S
C707 H701 0.930 . S
C707 C703 1.400 . S
C707 C706 1.385 . S
C708 C706 1.478 . S
C708 C710 1.381 . S
C708 C714 1.383 . S
C709 C705 1.495 . S
C709 H715 0.959 . S
C709 H716 0.961 . S
C709 H717 0.960 . S
C710 C708 1.381 . S
C710 C711 1.394 . S
C710 H718 0.930 . S
C711 C710 1.394 . S
C711 C712 1.383 . S
C711 H719 0.929 . S
C712 C711 1.383 . S
C712 C713 1.377 . S
C713 H697 0.930 . S
C713 C712 1.377 . S
C713 C714 1.379 . S
C714 H698 0.931 . S
C714 C708 1.383 . S
C714 C713 1.379 . S
H715 C709 0.959 . S
H716 C709 0.961 . S
H717 C709 0.960 . S
H718 C710 0.930 . S
H719 C711 0.929 . S
H720 C728 0.929 . S
H721 C730 0.930 . S
H722 C732 0.930 . S
H723 C735 0.929 . S
H724 C738 0.930 . S
H725 C740 0.960 . S
H726 C740 0.960 . S
H727 C740 0.960 . S
C728 H720 0.929 . S
C728 C729 1.377 . S
C728 C730 1.384 . S
C729 C728 1.377 . S
C729 C735 1.390 . S
C730 H721 0.930 . S
C730 C728 1.384 . S
C730 C731 1.372 . S
C731 C730 1.372 . S
C731 C732 1.400 . S
C731 C736 1.490 . S
C732 H722 0.930 . S
C732 C731 1.400 . S
C732 C735 1.386 . S
H733 C749 0.930 . S
H734 C750 0.931 . S
C735 H723 0.929 . S
C735 C729 1.390 . S
C735 C732 1.386 . S
C736 C731 1.490 . S
C736 C738 1.395 . S
C736 C739 1.403 . S
H737 C743 0.930 . S
C738 H724 0.930 . S
C738 C736 1.395 . S
C738 C741 1.403 . S
C739 C736 1.403 . S
C739 C740 1.524 . S
C739 C743 1.400 . S
C740 H725 0.960 . S
C740 H726 0.960 . S
C740 H727 0.960 . S
C740 C739 1.524 . S
C741 C738 1.403 . S
C741 C742 1.392 . S
C741 C745 1.495 . S
C742 C741 1.392 . S
C742 C743 1.385 . S
C742 C744 1.478 . S
C743 H737 0.930 . S
C743 C739 1.400 . S
C743 C742 1.385 . S
C744 C742 1.478 . S
C744 C746 1.381 . S
C744 C750 1.383 . S
C745 C741 1.495 . S
C745 H751 0.959 . S
C745 H752 0.961 . S
C745 H753 0.960 . S
C746 C744 1.381 . S
C746 C747 1.394 . S
C746 H754 0.930 . S
C747 C746 1.394 . S
C747 C748 1.383 . S
C747 H755 0.929 . S
C748 C747 1.383 . S
C748 C749 1.377 . S
C749 H733 0.930 . S
C749 C748 1.377 . S
C749 C750 1.379 . S
C750 H734 0.931 . S
C750 C744 1.383 . S
C750 C749 1.379 . S
H751 C745 0.959 . S
H752 C745 0.961 . S
H753 C745 0.960 . S
H754 C746 0.930 . S
H755 C747 0.929 . S
H756 C764 0.929 . S
H757 C766 0.930 . S
H758 C768 0.930 . S
H759 C771 0.929 . S
H760 C774 0.930 . S
H761 C776 0.960 . S
H762 C776 0.960 . S
H763 C776 0.960 . S
C764 H756 0.929 . S
C764 C765 1.377 . S
C764 C766 1.384 . S
C765 C764 1.377 . S
C765 C771 1.390 . S
C766 H757 0.930 . S
C766 C764 1.384 . S
C766 C767 1.372 . S
C767 C766 1.372 . S
C767 C768 1.400 . S
C767 C772 1.490 . S
C768 H758 0.930 . S
C768 C767 1.400 . S
C768 C771 1.386 . S
H769 C785 0.930 . S
H770 C786 0.931 . S
C771 H759 0.929 . S
C771 C765 1.390 . S
C771 C768 1.386 . S
C772 C767 1.490 . S
C772 C774 1.395 . S
C772 C775 1.403 . S
H773 C779 0.930 . S
C774 H760 0.930 . S
C774 C772 1.395 . S
C774 C777 1.403 . S
C775 C772 1.403 . S
C775 C776 1.524 . S
C775 C779 1.400 . S
C776 H761 0.960 . S
C776 H762 0.960 . S
C776 H763 0.960 . S
C776 C775 1.524 . S
C777 C774 1.403 . S
C777 C778 1.392 . S
C777 C781 1.495 . S
C778 C777 1.392 . S
C778 C779 1.385 . S
C778 C780 1.478 . S
C779 H773 0.930 . S
C779 C775 1.400 . S
C779 C778 1.385 . S
C780 C778 1.478 . S
C780 C782 1.381 . S
C780 C786 1.383 . S
C781 C777 1.495 . S
C781 H787 0.959 . S
C781 H788 0.961 . S
C781 H789 0.960 . S
C782 C780 1.381 . S
C782 C783 1.394 . S
C782 H790 0.930 . S
C783 C782 1.394 . S
C783 C784 1.383 . S
C783 H791 0.929 . S
C784 C783 1.383 . S
C784 C785 1.377 . S
C785 H769 0.930 . S
C785 C784 1.377 . S
C785 C786 1.379 . S
C786 H770 0.931 . S
C786 C780 1.383 . S
C786 C785 1.379 . S
H787 C781 0.959 . S
H788 C781 0.961 . S
H789 C781 0.960 . S
H790 C782 0.930 . S
H791 C783 0.929 . S
H792 C800 0.929 . S
H793 C802 0.930 . S
H794 C804 0.930 1_455 S
H795 C807 0.918 1_455 S
H796 C810 0.930 . S
H797 C812 0.960 . S
H798 C812 0.960 . S
H799 C812 0.960 . S
C800 H792 0.929 . S
C800 C801 1.377 . S
C800 C802 1.384 . S
C801 C800 1.377 . S
C801 C807 1.390 . S
C802 H793 0.930 . S
C802 C800 1.384 . S
C802 C803 1.372 . S
C803 C802 1.372 . S
C803 C804 1.400 . S
C803 C808 1.490 . S
C804 H794 0.930 1_655 S
C804 C803 1.400 . S
C804 C807 1.386 . S
H805 C821 0.930 . S
H806 C822 0.931 . S
C807 H795 0.918 1_655 S
C807 C801 1.390 . S
C807 C804 1.386 . S
C808 C803 1.490 . S
C808 C810 1.395 . S
C808 C811 1.403 1_655 S
H809 C815 0.930 . S
C810 H796 0.930 . S
C810 C808 1.395 . S
C810 C813 1.403 . S
C811 C808 1.403 1_455 S
C811 C812 1.524 . S
C811 C815 1.400 . S
C812 H797 0.960 . S
C812 H798 0.960 . S
C812 H799 0.960 . S
C812 C811 1.524 . S
C813 C810 1.403 . S
C813 C814 1.392 1_655 S
C813 C817 1.495 . S
C814 C813 1.392 1_455 S
C814 C815 1.385 . S
C814 C816 1.478 . S
C815 H809 0.930 . S
C815 C811 1.400 . S
C815 C814 1.385 . S
C816 C814 1.478 . S
C816 C818 1.409 . S
C816 C822 1.383 . S
C817 C813 1.495 . S
C817 H823 0.959 . S
C817 H824 0.961 . S
C817 H825 0.960 . S
C818 C816 1.409 . S
C818 C819 1.407 . S
C818 H826 0.889 1_455 S
C819 C818 1.407 . S
C819 C820 1.383 . S
C819 H827 0.929 . S
C820 C819 1.383 . S
C820 C821 1.377 . S
C821 H805 0.930 . S
C821 C820 1.377 . S
C821 C822 1.379 . S
C822 H806 0.931 . S
C822 C816 1.383 . S
C822 C821 1.379 . S
H823 C817 0.959 . S
H824 C817 0.961 . S
H825 C817 0.960 . S
H826 C818 0.889 1_655 S
H827 C819 0.929 . S
H828 C836 0.929 . S
H829 C838 0.930 . S
H830 C840 0.930 . S
H831 C843 0.929 . S
H832 C846 0.930 . S
H833 C848 0.960 . S
H834 C848 0.960 . S
H835 C848 0.960 . S
C836 H828 0.929 . S
C836 C837 1.377 . S
C836 C838 1.384 . S
C837 C836 1.377 . S
C837 C843 1.390 . S
C838 H829 0.930 . S
C838 C836 1.384 . S
C838 C839 1.372 . S
C839 C838 1.372 . S
C839 C840 1.400 . S
C839 C844 1.490 . S
C840 H830 0.930 . S
C840 C839 1.400 . S
C840 C843 1.386 . S
H841 C857 0.930 . S
H842 C858 0.931 . S
C843 H831 0.929 . S
C843 C837 1.390 . S
C843 C840 1.386 . S
C844 C839 1.490 . S
C844 C846 1.395 . S
C844 C847 1.403 . S
H845 C851 0.930 . S
C846 H832 0.930 . S
C846 C844 1.395 . S
C846 C849 1.403 . S
C847 C844 1.403 . S
C847 C848 1.524 . S
C847 C851 1.400 . S
C848 H833 0.960 . S
C848 H834 0.960 . S
C848 H835 0.960 . S
C848 C847 1.524 . S
C849 C846 1.403 . S
C849 C850 1.392 . S
C849 C853 1.495 . S
C850 C849 1.392 . S
C850 C851 1.385 . S
C850 C852 1.478 . S
C851 H845 0.930 . S
C851 C847 1.400 . S
C851 C850 1.385 . S
C852 C850 1.478 . S
C852 C854 1.381 . S
C852 C858 1.383 . S
C853 C849 1.495 . S
C853 H859 0.959 . S
C853 H860 0.961 . S
C853 H861 0.960 . S
C854 C852 1.381 . S
C854 C855 1.394 . S
C854 H862 0.930 . S
C855 C854 1.394 . S
C855 C856 1.383 . S
C855 H863 0.929 . S
C856 C855 1.383 . S
C856 C857 1.377 . S
C857 H841 0.930 . S
C857 C856 1.377 . S
C857 C858 1.379 . S
C858 H842 0.931 . S
C858 C852 1.383 . S
C858 C857 1.379 . S
H859 C853 0.959 . S
H860 C853 0.961 . S
H861 C853 0.960 . S
H862 C854 0.930 . S
H863 C855 0.929 . S
H864 C872 0.929 . S
H865 C874 0.930 . S
H866 C876 0.930 . S
H867 C879 0.929 . S
H868 C882 0.930 . S
H869 C884 0.960 . S
H870 C884 0.960 . S
H871 C884 0.960 . S
C872 H864 0.929 . S
C872 C873 1.377 . S
C872 C874 1.384 . S
C873 C872 1.377 . S
C873 C879 1.390 . S
C874 H865 0.930 . S
C874 C872 1.384 . S
C874 C875 1.372 . S
C875 C874 1.372 . S
C875 C876 1.400 . S
C875 C880 1.490 . S
C876 H866 0.930 . S
C876 C875 1.400 . S
C876 C879 1.386 . S
H877 C893 0.930 . S
H878 C894 0.931 . S
C879 H867 0.929 . S
C879 C873 1.390 . S
C879 C876 1.386 . S
C880 C875 1.490 . S
C880 C882 1.395 . S
C880 C883 1.403 1_565 S
H881 C887 0.930 . S
C882 H868 0.930 . S
C882 C880 1.395 . S
C882 C885 1.403 . S
C883 C880 1.403 1_545 S
C883 C884 1.524 . S
C883 C887 1.400 . S
C884 H869 0.960 . S
C884 H870 0.960 . S
C884 H871 0.960 . S
C884 C883 1.524 . S
C885 C882 1.403 . S
C885 C886 1.392 1_565 S
C885 C889 1.495 . S
C886 C885 1.392 1_545 S
C886 C887 1.385 . S
C886 C888 1.478 . S
C887 H881 0.930 . S
C887 C883 1.400 . S
C887 C886 1.385 . S
C888 C886 1.478 . S
C888 C890 1.381 . S
C888 C894 1.383 . S
C889 C885 1.495 . S
C889 H895 0.959 . S
C889 H896 0.961 . S
C889 H897 0.960 . S
C890 C888 1.381 . S
C890 C891 1.394 . S
C890 H898 0.930 . S
C891 C890 1.394 . S
C891 C892 1.383 . S
C891 H899 0.929 . S
C892 C891 1.383 . S
C892 C893 1.377 . S
C893 H877 0.930 . S
C893 C892 1.377 . S
C893 C894 1.379 . S
C894 H878 0.931 . S
C894 C888 1.383 . S
C894 C893 1.379 . S
H895 C889 0.959 . S
H896 C889 0.961 . S
H897 C889 0.960 . S
H898 C890 0.930 . S
H899 C891 0.929 . S
H900 C908 0.929 . S
H901 C910 0.930 . S
H902 C912 0.922 1_556 S
H903 C915 0.929 1_556 S
H904 C918 0.930 . S
H905 C920 0.960 . S
H906 C920 0.960 . S
H907 C920 0.960 . S
C908 H900 0.929 . S
C908 C909 1.377 . S
C908 C910 1.384 . S
C909 C908 1.377 . S
C909 C915 1.390 . S
C910 H901 0.930 . S
C910 C908 1.384 . S
C910 C911 1.372 . S
C911 C910 1.372 . S
C911 C912 1.405 . S
C911 C916 1.490 . S
C912 H902 0.922 1_554 S
C912 C911 1.405 . S
C912 C915 1.388 . S
H913 C929 0.930 . S
H914 C930 0.931 . S
C915 H903 0.929 1_554 S
C915 C909 1.390 . S
C915 C912 1.388 . S
C916 C911 1.490 . S
C916 C918 1.395 . S
C916 C919 1.403 1_554 S
H917 C923 0.930 . S
C918 H904 0.930 . S
C918 C916 1.395 . S
C918 C921 1.403 . S
C919 C916 1.403 1_556 S
C919 C920 1.524 . S
C919 C923 1.400 . S
C920 H905 0.960 . S
C920 H906 0.960 . S
C920 H907 0.960 . S
C920 C919 1.524 . S
C921 C918 1.403 . S
C921 C922 1.392 1_554 S
C921 C925 1.495 . S
C922 C921 1.392 1_556 S
C922 C923 1.385 . S
C922 C924 1.478 . S
C923 H917 0.930 . S
C923 C919 1.400 . S
C923 C922 1.385 . S
C924 C922 1.478 . S
C924 C926 1.381 1_556 S
C924 C930 1.383 . S
C925 C921 1.495 . S
C925 H931 0.959 . S
C925 H932 0.961 . S
C925 H933 0.960 . S
C926 C924 1.381 1_554 S
C926 C927 1.394 1_554 S
C926 H934 0.930 . S
C927 C926 1.394 1_556 S
C927 C928 1.383 . S
C927 H935 0.929 1_556 S
C928 C927 1.383 . S
C928 C929 1.377 . S
C929 H913 0.930 . S
C929 C928 1.377 . S
C929 C930 1.379 . S
C930 H914 0.931 . S
C930 C924 1.383 . S
C930 C929 1.379 . S
H931 C925 0.959 . S
H932 C925 0.961 . S
H933 C925 0.960 . S
H934 C926 0.930 . S
H935 C927 0.929 1_554 S
H936 C944 0.929 1_554 S
H937 C946 0.930 . S
H938 C948 0.930 . S
H939 C951 0.929 . S
H940 C954 0.930 . S
H941 C956 0.960 1_565 S
H942 C956 0.960 . S
H943 C956 0.960 . S
C944 H936 0.929 1_556 S
C944 C945 1.377 . S
C944 C946 1.384 1_556 S
C945 C944 1.377 . S
C945 C951 1.390 . S
C946 H937 0.930 . S
C946 C944 1.384 1_554 S
C946 C947 1.372 1_554 S
C947 C946 1.372 1_556 S
C947 C948 1.400 . S
C947 C952 1.490 . S
C948 H938 0.930 . S
C948 C947 1.400 . S
C948 C951 1.386 . S
H949 C965 0.930 1_556 S
H950 C966 0.931 1_556 S
C951 H939 0.929 . S
C951 C945 1.390 . S
C951 C948 1.386 . S
C952 C947 1.490 . S
C952 C954 1.395 1_556 S
C952 C955 1.403 . S
H953 C959 0.930 . S
C954 H940 0.930 . S
C954 C952 1.395 1_554 S
C954 C957 1.403 1_545 S
C955 C952 1.403 . S
C955 C956 1.524 . S
C955 C959 1.400 1_545 S
C956 H941 0.960 1_545 S
C956 H942 0.960 . S
C956 H943 0.960 . S
C956 C955 1.524 . S
C957 C954 1.403 1_565 S
C957 C958 1.392 . S
C957 C961 1.495 . S
C958 C957 1.392 . S
C958 C959 1.385 1_554 S
C958 C960 1.478 . S
C959 H953 0.930 . S
C959 C955 1.400 1_565 S
C959 C958 1.385 1_556 S
C960 C958 1.478 . S
C960 C962 1.381 . S
C960 C966 1.383 . S
C961 C957 1.495 . S
C961 H967 0.959 1_565 S
C961 H968 0.961 . S
C961 H969 0.960 . S
C962 C960 1.381 . S
C962 C963 1.394 . S
C962 H970 0.930 . S
C963 C962 1.394 . S
C963 C964 1.383 . S
C963 H971 0.929 . S
C964 C963 1.383 . S
C964 C965 1.377 . S
C965 H949 0.930 1_554 S
C965 C964 1.377 . S
C965 C966 1.379 . S
C966 H950 0.931 1_554 S
C966 C960 1.383 . S
C966 C965 1.379 . S
H967 C961 0.959 1_545 S
H968 C961 0.961 . S
H969 C961 0.960 . S
H970 C962 0.930 . S
H971 C963 0.929 . S
H972 C980 0.929 . S
H973 C982 0.930 . S
H974 C984 0.930 . S
H975 C987 0.929 . S
H976 C990 0.930 . S
H977 C992 0.960 . S
H978 C992 0.960 . S
H979 C992 0.960 . S
C980 H972 0.929 . S
C980 C981 1.377 . S
C980 C982 1.384 . S
C981 C980 1.377 . S
C981 C987 1.390 . S
C982 H973 0.930 . S
C982 C980 1.384 . S
C982 C983 1.372 . S
C983 C982 1.372 . S
C983 C984 1.400 . S
C983 C988 1.490 . S
C984 H974 0.930 . S
C984 C983 1.400 . S
C984 C987 1.386 . S
H985 C1001 0.930 . S
H986 C1002 0.931 . S
C987 H975 0.929 . S
C987 C981 1.390 . S
C987 C984 1.386 . S
C988 C983 1.490 . S
C988 C990 1.395 . S
C988 C991 1.403 1_556 S
H989 C995 0.930 . S
C990 H976 0.930 . S
C990 C988 1.395 . S
C990 C993 1.403 1_655 S
C991 C988 1.403 1_554 S
C991 C992 1.524 . S
C991 C995 1.400 1_655 S
C992 H977 0.960 . S
C992 H978 0.960 . S
C992 H979 0.960 . S
C992 C991 1.524 . S
C993 C990 1.403 1_455 S
C993 C994 1.392 1_556 S
C993 C997 1.495 . S
C994 C993 1.392 1_554 S
C994 C995 1.385 . S
C994 C996 1.478 . S
C995 H989 0.930 . S
C995 C991 1.400 1_455 S
C995 C994 1.385 . S
C996 C994 1.478 . S
C996 C998 1.381 . S
C996 C1002 1.383 . S
C997 C993 1.495 . S
C997 H1003 0.959 . S
C997 H1004 0.961 . S
C997 H1005 0.960 . S
C998 C996 1.381 . S
C998 C999 1.394 . S
C998 H1006 0.930 . S
C999 C998 1.394 . S
C999 C1000 1.383 . S
C999 H1007 0.929 . S
C1000 C999 1.383 . S
C1000 C1001 1.377 . S
C1001 H985 0.930 . S
C1001 C1000 1.377 . S
C1001 C1002 1.379 . S
C1002 H986 0.931 . S
C1002 C996 1.383 . S
C1002 C1001 1.379 . S
H1003 C997 0.959 . S
H1004 C997 0.961 . S
H1005 C997 0.960 . S
H1006 C998 0.930 . S
H1007 C999 0.929 . S
H1008 C1016 0.929 . S
H1009 C1018 0.930 . S
H1010 C1020 0.930 . S
H1011 C1023 0.929 . S
H1012 C1026 0.930 . S
H1013 C1028 0.960 . S
H1014 C1028 0.960 . S
H1015 C1028 0.960 . S
C1016 H1008 0.929 . S
C1016 C1017 1.377 1_554 S
C1016 C1018 1.384 . S
C1017 C1016 1.377 1_556 S
C1017 C1023 1.390 . S
C1018 H1009 0.930 . S
C1018 C1016 1.384 . S
C1018 C1019 1.372 1_554 S
C1019 C1018 1.372 1_556 S
C1019 C1020 1.400 . S
C1019 C1024 1.490 . S
C1020 H1010 0.930 . S
C1020 C1019 1.400 . S
C1020 C1023 1.386 . S
H1021 C1037 0.930 . S
H1022 C1038 0.931 . S
C1023 H1011 0.929 . S
C1023 C1017 1.390 . S
C1023 C1020 1.386 . S
C1024 C1019 1.490 . S
C1024 C1026 1.395 1_556 S
C1024 C1027 1.403 . S
H1025 C1031 0.930 . S
C1026 H1012 0.930 . S
C1026 C1024 1.395 1_554 S
C1026 C1029 1.403 . S
C1027 C1024 1.403 . S
C1027 C1028 1.524 . S
C1027 C1031 1.400 . S
C1028 H1013 0.960 . S
C1028 H1014 0.960 . S
C1028 H1015 0.960 . S
C1028 C1027 1.524 . S
C1029 C1026 1.403 . S
C1029 C1030 1.392 . S
C1029 C1033 1.495 . S
C1030 C1029 1.392 . S
C1030 C1031 1.385 1_554 S
C1030 C1032 1.478 . S
C1031 H1025 0.930 . S
C1031 C1027 1.400 . S
C1031 C1030 1.385 1_556 S
C1032 C1030 1.478 . S
C1032 C1034 1.381 . S
C1032 C1038 1.383 1_554 S
C1033 C1029 1.495 . S
C1033 H1039 0.959 . S
C1033 H1040 0.961 . S
C1033 H1041 0.960 . S
C1034 C1032 1.381 . S
C1034 C1035 1.394 . S
C1034 H1042 0.930 . S
C1035 C1034 1.394 . S
C1035 C1036 1.383 . S
C1035 H1043 0.929 . S
C1036 C1035 1.383 . S
C1036 C1037 1.377 1_554 S
C1037 H1021 0.930 . S
C1037 C1036 1.377 1_556 S
C1037 C1038 1.379 . S
C1038 H1022 0.931 . S
C1038 C1032 1.383 1_556 S
C1038 C1037 1.379 . S
H1039 C1033 0.959 . S
H1040 C1033 0.961 . S
H1041 C1033 0.960 . S
H1042 C1034 0.930 . S
H1043 C1035 0.929 . S
H1044 C1052 0.929 . S
H1045 C1054 0.930 . S
H1046 C1056 0.930 . S
H1047 C1059 0.929 . S
H1048 C1062 0.930 . S
H1049 C1064 0.960 . S
H1050 C1064 0.960 . S
H1051 C1064 0.960 . S
C1052 H1044 0.929 . S
C1052 C1053 1.377 . S
C1052 C1054 1.384 . S
C1053 C1052 1.377 . S
C1053 C1059 1.390 1_554 S
C1054 H1045 0.930 . S
C1054 C1052 1.384 . S
C1054 C1055 1.372 . S
C1055 C1054 1.372 . S
C1055 C1056 1.400 1_554 S
C1055 C1060 1.490 . S
C1056 H1046 0.930 . S
C1056 C1055 1.400 1_556 S
C1056 C1059 1.386 . S
H1057 C1073 0.930 . S
H1058 C1074 0.931 . S
C1059 H1047 0.929 . S
C1059 C1053 1.390 1_556 S
C1059 C1056 1.386 . S
C1060 C1055 1.490 . S
C1060 C1062 1.395 . S
C1060 C1063 1.403 1_554 S
H1061 C1067 0.930 . S
C1062 H1048 0.930 . S
C1062 C1060 1.395 . S
C1062 C1065 1.403 1_565 S
C1063 C1060 1.403 1_556 S
C1063 C1064 1.524 . S
C1063 C1067 1.400 1_565 S
C1064 H1049 0.960 . S
C1064 H1050 0.960 . S
C1064 H1051 0.960 . S
C1064 C1063 1.524 . S
C1065 C1062 1.403 1_545 S
C1065 C1066 1.392 1_554 S
C1065 C1069 1.495 . S
C1066 C1065 1.392 1_556 S
C1066 C1067 1.385 . S
C1066 C1068 1.478 . S
C1067 H1061 0.930 . S
C1067 C1063 1.400 1_545 S
C1067 C1066 1.385 . S
C1068 C1066 1.478 . S
C1068 C1070 1.381 1_556 S
C1068 C1074 1.383 . S
C1069 C1065 1.495 . S
C1069 H1075 0.959 . S
C1069 H1076 0.961 . S
C1069 H1077 0.960 . S
C1070 C1068 1.381 1_554 S
C1070 C1071 1.394 . S
C1070 H1078 0.930 . S
C1071 C1070 1.394 . S
C1071 C1072 1.383 1_554 S
C1071 H1079 0.929 . S
C1072 C1071 1.383 1_556 S
C1072 C1073 1.377 . S
C1073 H1057 0.930 . S
C1073 C1072 1.377 . S
C1073 C1074 1.379 . S
C1074 H1058 0.931 . S
C1074 C1068 1.383 . S
C1074 C1073 1.379 . S
H1075 C1069 0.959 . S
H1076 C1069 0.961 . S
H1077 C1069 0.960 . S
H1078 C1070 0.930 . S
H1079 C1071 0.929 . S
H1080 C1088 0.929 . S
H1081 C1090 0.930 . S
H1082 C1092 0.930 . S
H1083 C1095 0.929 . S
H1084 C1098 0.930 . S
H1085 C1100 0.999 . S
H1086 C1100 0.960 . S
H1087 C1100 0.960 . S
C1088 H1080 0.929 . S
C1088 C1089 1.377 . S
C1088 C1090 1.384 . S
C1089 C1088 1.377 . S
C1089 C1095 1.390 . S
C1090 H1081 0.930 . S
C1090 C1088 1.384 . S
C1090 C1091 1.372 . S
C1091 C1090 1.372 . S
C1091 C1092 1.400 . S
C1091 C1096 1.490 . S
C1092 H1082 0.930 . S
C1092 C1091 1.400 . S
C1092 C1095 1.386 . S
H1093 C1109 0.930 . S
H1094 C1110 0.931 . S
C1095 H1083 0.929 . S
C1095 C1089 1.390 . S
C1095 C1092 1.386 . S
C1096 C1091 1.490 . S
C1096 C1098 1.395 1_556 S
C1096 C1099 1.403 . S
H1097 C1103 0.930 . S
C1098 H1084 0.930 . S
C1098 C1096 1.395 1_554 S
C1098 C1101 1.403 1_655 S
C1099 C1096 1.403 . S
C1099 C1100 1.524 . S
C1099 C1103 1.400 1_655 S
C1100 H1085 0.999 . S
C1100 H1086 0.960 . S
C1100 H1087 0.960 . S
C1100 C1099 1.524 . S
C1101 C1098 1.403 1_455 S
C1101 C1102 1.392 . S
C1101 C1105 1.495 . S
C1102 C1101 1.392 . S
C1102 C1103 1.385 1_554 S
C1102 C1104 1.478 . S
C1103 H1097 0.930 . S
C1103 C1099 1.400 1_455 S
C1103 C1102 1.385 1_556 S
C1104 C1102 1.478 . S
C1104 C1106 1.381 . S
C1104 C1110 1.383 . S
C1105 C1101 1.495 . S
C1105 H1111 0.959 . S
C1105 H1112 0.961 . S
C1105 H1113 0.960 . S
C1106 C1104 1.381 . S
C1106 C1107 1.394 . S
C1106 H1114 0.930 . S
C1107 C1106 1.394 . S
C1107 C1108 1.383 . S
C1107 H1115 0.929 . S
C1108 C1107 1.383 . S
C1108 C1109 1.377 . S
C1109 H1093 0.930 . S
C1109 C1108 1.377 . S
C1109 C1110 1.379 . S
C1110 H1094 0.931 . S
C1110 C1104 1.383 . S
C1110 C1109 1.379 . S
H1111 C1105 0.959 . S
H1112 C1105 0.961 . S
H1113 C1105 0.960 . S
H1114 C1106 0.930 . S
H1115 C1107 0.929 . S
H1116 C1124 0.929 . S
H1117 C1126 0.930 . S
H1118 C1128 0.930 . S
H1119 C1131 0.929 . S
H1120 C1134 0.930 . S
H1121 C1136 0.960 . S
H1122 C1136 0.960 . S
H1123 C1136 0.960 . S
C1124 H1116 0.929 . S
C1124 C1125 1.377 . S
C1124 C1126 1.384 . S
C1125 C1124 1.377 . S
C1125 C1131 1.390 . S
C1126 H1117 0.930 . S
C1126 C1124 1.384 . S
C1126 C1127 1.372 . S
C1127 C1126 1.372 . S
C1127 C1128 1.400 . S
C1127 C1132 1.490 . S
C1128 H1118 0.930 . S
C1128 C1127 1.400 . S
C1128 C1131 1.386 . S
H1129 C1145 0.930 . S
H1130 C1146 0.931 . S
C1131 H1119 0.929 . S
C1131 C1125 1.390 . S
C1131 C1128 1.386 . S
C1132 C1127 1.490 . S
C1132 C1134 1.395 . S
C1132 C1135 1.403 . S
H1133 C1139 0.930 . S
C1134 H1120 0.930 . S
C1134 C1132 1.395 . S
C1134 C1137 1.403 . S
C1135 C1132 1.403 . S
C1135 C1136 1.524 . S
C1135 C1139 1.400 . S
C1136 H1121 0.960 . S
C1136 H1122 0.960 . S
C1136 H1123 0.960 . S
C1136 C1135 1.524 . S
C1137 C1134 1.403 . S
C1137 C1138 1.392 . S
C1137 C1141 1.495 . S
C1138 C1137 1.392 . S
C1138 C1139 1.385 . S
C1138 C1140 1.478 . S
C1139 H1133 0.930 . S
C1139 C1135 1.400 . S
C1139 C1138 1.385 . S
C1140 C1138 1.478 . S
C1140 C1142 1.381 . S
C1140 C1146 1.383 . S
C1141 C1137 1.495 . S
C1141 H1147 0.959 . S
C1141 H1148 0.961 . S
C1141 H1149 0.960 . S
C1142 C1140 1.381 . S
C1142 C1143 1.394 . S
C1142 H1150 0.930 . S
C1143 C1142 1.394 . S
C1143 C1144 1.383 . S
C1143 H1151 0.929 . S
C1144 C1143 1.383 . S
C1144 C1145 1.377 . S
C1145 H1129 0.930 . S
C1145 C1144 1.377 . S
C1145 C1146 1.379 . S
C1146 H1130 0.931 . S
C1146 C1140 1.383 . S
C1146 C1145 1.379 . S
H1147 C1141 0.959 . S
H1148 C1141 0.961 . S
H1149 C1141 0.960 . S
H1150 C1142 0.930 . S
H1151 C1143 0.929 . S
H1152 C1160 0.929 . S
H1153 C1162 0.930 . S
H1154 C1164 0.930 . S
H1155 C1167 0.929 . S
H1156 C1170 0.930 . S
H1157 C1172 0.960 . S
H1158 C1172 0.960 . S
H1159 C1172 0.960 . S
C1160 H1152 0.929 . S
C1160 C1161 1.377 . S
C1160 C1162 1.384 . S
C1161 C1160 1.377 . S
C1161 C1167 1.390 . S
C1162 H1153 0.930 . S
C1162 C1160 1.384 . S
C1162 C1163 1.372 . S
C1163 C1162 1.372 . S
C1163 C1164 1.400 . S
C1163 C1168 1.490 . S
C1164 H1154 0.930 . S
C1164 C1163 1.400 . S
C1164 C1167 1.386 . S
H1165 C1181 0.930 . S
H1166 C1182 0.931 . S
C1167 H1155 0.929 . S
C1167 C1161 1.390 . S
C1167 C1164 1.386 . S
C1168 C1163 1.490 . S
C1168 C1170 1.395 . S
C1168 C1171 1.403 . S
H1169 C1175 0.930 . S
C1170 H1156 0.930 . S
C1170 C1168 1.395 . S
C1170 C1173 1.403 . S
C1171 C1168 1.403 . S
C1171 C1172 1.524 . S
C1171 C1175 1.400 . S
C1172 H1157 0.960 . S
C1172 H1158 0.960 . S
C1172 H1159 0.960 . S
C1172 C1171 1.524 . S
C1173 C1170 1.403 . S
C1173 C1174 1.392 . S
C1173 C1177 1.495 . S
C1174 C1173 1.392 . S
C1174 C1175 1.385 . S
C1174 C1176 1.478 . S
C1175 H1169 0.930 . S
C1175 C1171 1.400 . S
C1175 C1174 1.385 . S
C1176 C1174 1.478 . S
C1176 C1178 1.381 . S
C1176 C1182 1.383 . S
C1177 C1173 1.495 . S
C1177 H1183 0.959 . S
C1177 H1184 0.961 . S
C1177 H1185 0.960 . S
C1178 C1176 1.381 . S
C1178 C1179 1.394 . S
C1178 H1186 0.930 . S
C1179 C1178 1.394 . S
C1179 C1180 1.383 . S
C1179 H1187 0.929 . S
C1180 C1179 1.383 . S
C1180 C1181 1.377 . S
C1181 H1165 0.930 . S
C1181 C1180 1.377 . S
C1181 C1182 1.379 . S
C1182 H1166 0.931 . S
C1182 C1176 1.383 . S
C1182 C1181 1.379 . S
H1183 C1177 0.959 . S
H1184 C1177 0.961 . S
H1185 C1177 0.960 . S
H1186 C1178 0.930 . S
H1187 C1179 0.929 . S
H1188 C1196 0.929 . S
H1189 C1198 0.930 . S
H1190 C1200 0.930 . S
H1191 C1203 0.929 . S
H1192 C1206 0.930 . S
H1193 C1208 0.960 . S
H1194 C1208 0.960 . S
H1195 C1208 0.960 . S
C1196 H1188 0.929 . S
C1196 C1197 1.377 . S
C1196 C1198 1.384 . S
C1197 C1196 1.377 . S
C1197 C1203 1.390 . S
C1198 H1189 0.930 . S
C1198 C1196 1.384 . S
C1198 C1199 1.372 . S
C1199 C1198 1.372 . S
C1199 C1200 1.400 . S
C1199 C1204 1.490 . S
C1200 H1190 0.930 . S
C1200 C1199 1.400 . S
C1200 C1203 1.386 . S
H1201 C1217 0.930 . S
H1202 C1218 0.931 . S
C1203 H1191 0.929 . S
C1203 C1197 1.390 . S
C1203 C1200 1.386 . S
C1204 C1199 1.490 . S
C1204 C1206 1.395 . S
C1204 C1207 1.403 . S
H1205 C1211 0.930 . S
C1206 H1192 0.930 . S
C1206 C1204 1.395 . S
C1206 C1209 1.403 . S
C1207 C1204 1.403 . S
C1207 C1208 1.524 . S
C1207 C1211 1.400 . S
C1208 H1193 0.960 . S
C1208 H1194 0.960 . S
C1208 H1195 0.960 . S
C1208 C1207 1.524 . S
C1209 C1206 1.403 . S
C1209 C1210 1.392 . S
C1209 C1213 1.495 . S
C1210 C1209 1.392 . S
C1210 C1211 1.385 . S
C1210 C1212 1.478 . S
C1211 H1205 0.930 . S
C1211 C1207 1.400 . S
C1211 C1210 1.385 . S
C1212 C1210 1.478 . S
C1212 C1214 1.381 . S
C1212 C1218 1.383 . S
C1213 C1209 1.495 . S
C1213 H1219 0.959 . S
C1213 H1220 0.961 . S
C1213 H1221 0.960 . S
C1214 C1212 1.381 . S
C1214 C1215 1.394 . S
C1214 H1222 0.930 . S
C1215 C1214 1.394 . S
C1215 C1216 1.383 . S
C1215 H1223 0.929 . S
C1216 C1215 1.383 . S
C1216 C1217 1.377 . S
C1217 H1201 0.930 . S
C1217 C1216 1.377 . S
C1217 C1218 1.379 . S
C1218 H1202 0.931 . S
C1218 C1212 1.383 . S
C1218 C1217 1.379 . S
H1219 C1213 0.959 . S
H1220 C1213 0.961 . S
H1221 C1213 0.960 . S
H1222 C1214 0.930 . S
H1223 C1215 0.929 . S
H1224 C1232 0.929 . S
H1225 C1234 0.930 . S
H1226 C1236 0.930 . S
H1227 C1239 0.929 . S
H1228 C1242 0.930 . S
H1229 C1244 0.960 . S
H1230 C1244 0.960 . S
H1231 C1244 0.960 . S
C1232 H1224 0.929 . S
C1232 C1233 1.377 . S
C1232 C1234 1.384 . S
C1233 C1232 1.377 . S
C1233 C1239 1.390 . S
C1234 H1225 0.930 . S
C1234 C1232 1.384 . S
C1234 C1235 1.372 . S
C1235 C1234 1.372 . S
C1235 C1236 1.400 . S
C1235 C1240 1.490 . S
C1236 H1226 0.930 . S
C1236 C1235 1.400 . S
C1236 C1239 1.386 . S
H1237 C1253 0.930 . S
H1238 C1254 0.931 . S
C1239 H1227 0.929 . S
C1239 C1233 1.390 . S
C1239 C1236 1.386 . S
C1240 C1235 1.490 . S
C1240 C1242 1.395 . S
C1240 C1243 1.403 . S
H1241 C1247 0.930 . S
C1242 H1228 0.930 . S
C1242 C1240 1.395 . S
C1242 C1245 1.403 . S
C1243 C1240 1.403 . S
C1243 C1244 1.524 . S
C1243 C1247 1.400 . S
C1244 H1229 0.960 . S
C1244 H1230 0.960 . S
C1244 H1231 0.960 . S
C1244 C1243 1.524 . S
C1245 C1242 1.403 . S
C1245 C1246 1.392 . S
C1245 C1249 1.495 . S
C1246 C1245 1.392 . S
C1246 C1247 1.385 . S
C1246 C1248 1.478 . S
C1247 H1241 0.930 . S
C1247 C1243 1.400 . S
C1247 C1246 1.385 . S
C1248 C1246 1.478 . S
C1248 C1250 1.381 . S
C1248 C1254 1.383 . S
C1249 C1245 1.495 . S
C1249 H1255 0.959 . S
C1249 H1256 0.961 . S
C1249 H1257 0.960 . S
C1250 C1248 1.381 . S
C1250 C1251 1.394 . S
C1250 H1258 0.930 . S
C1251 C1250 1.394 . S
C1251 C1252 1.383 . S
C1251 H1259 0.929 . S
C1252 C1251 1.383 . S
C1252 C1253 1.377 . S
C1253 H1237 0.930 . S
C1253 C1252 1.377 . S
C1253 C1254 1.379 . S
C1254 H1238 0.931 . S
C1254 C1248 1.383 . S
C1254 C1253 1.379 . S
H1255 C1249 0.959 . S
H1256 C1249 0.961 . S
H1257 C1249 0.960 . S
H1258 C1250 0.930 . S
H1259 C1251 0.929 . S
H1260 C1268 0.929 . S
H1261 C1270 0.930 . S
H1262 C1272 0.930 . S
H1263 C1275 0.929 . S
H1264 C1278 0.930 . S
H1265 C1280 0.960 . S
H1266 C1280 0.960 . S
H1267 C1280 0.960 . S
C1268 H1260 0.929 . S
C1268 C1269 1.377 . S
C1268 C1270 1.384 . S
C1269 C1268 1.377 . S
C1269 C1275 1.390 . S
C1270 H1261 0.930 . S
C1270 C1268 1.384 . S
C1270 C1271 1.372 . S
C1271 C1270 1.372 . S
C1271 C1272 1.400 . S
C1271 C1276 1.490 . S
C1272 H1262 0.930 . S
C1272 C1271 1.400 . S
C1272 C1275 1.386 . S
H1273 C1289 0.930 . S
H1274 C1290 0.931 . S
C1275 H1263 0.929 . S
C1275 C1269 1.390 . S
C1275 C1272 1.386 . S
C1276 C1271 1.490 . S
C1276 C1278 1.395 . S
C1276 C1279 1.403 . S
H1277 C1283 0.930 . S
C1278 H1264 0.930 . S
C1278 C1276 1.395 . S
C1278 C1281 1.403 . S
C1279 C1276 1.403 . S
C1279 C1280 1.524 . S
C1279 C1283 1.400 . S
C1280 H1265 0.960 . S
C1280 H1266 0.960 . S
C1280 H1267 0.960 . S
C1280 C1279 1.524 . S
C1281 C1278 1.403 . S
C1281 C1282 1.392 . S
C1281 C1285 1.495 . S
C1282 C1281 1.392 . S
C1282 C1283 1.385 . S
C1282 C1284 1.478 . S
C1283 H1277 0.930 . S
C1283 C1279 1.400 . S
C1283 C1282 1.385 . S
C1284 C1282 1.478 . S
C1284 C1286 1.381 . S
C1284 C1290 1.383 . S
C1285 C1281 1.495 . S
C1285 H1291 0.959 . S
C1285 H1292 0.961 . S
C1285 H1293 0.960 . S
C1286 C1284 1.381 . S
C1286 C1287 1.394 . S
C1286 H1294 0.930 . S
C1287 C1286 1.394 . S
C1287 C1288 1.383 . S
C1287 H1295 0.929 . S
C1288 C1287 1.383 . S
C1288 C1289 1.377 . S
C1289 H1273 0.930 . S
C1289 C1288 1.377 . S
C1289 C1290 1.379 . S
C1290 H1274 0.931 . S
C1290 C1284 1.383 . S
C1290 C1289 1.379 . S
H1291 C1285 0.959 . S
H1292 C1285 0.961 . S
H1293 C1285 0.960 . S
H1294 C1286 0.930 . S
H1295 C1287 0.929 . S
H1296 C1304 0.929 . S
H1297 C1306 0.930 . S
H1298 C1308 0.930 . S
H1299 C1311 0.929 . S
H1300 C1314 0.930 . S
H1301 C1316 0.960 . S
H1302 C1316 0.960 . S
H1303 C1316 0.960 . S
C1304 H1296 0.929 . S
C1304 C1305 1.377 . S
C1304 C1306 1.384 . S
C1305 C1304 1.377 . S
C1305 C1311 1.390 . S
C1306 H1297 0.930 . S
C1306 C1304 1.384 . S
C1306 C1307 1.372 . S
C1307 C1306 1.372 . S
C1307 C1308 1.400 . S
C1307 C1312 1.490 . S
C1308 H1298 0.930 . S
C1308 C1307 1.400 . S
C1308 C1311 1.386 . S
H1309 C1325 0.930 . S
H1310 C1326 0.931 . S
C1311 H1299 0.929 . S
C1311 C1305 1.390 . S
C1311 C1308 1.386 . S
C1312 C1307 1.490 . S
C1312 C1314 1.395 . S
C1312 C1315 1.403 . S
H1313 C1319 0.930 . S
C1314 H1300 0.930 . S
C1314 C1312 1.395 . S
C1314 C1317 1.403 . S
C1315 C1312 1.403 . S
C1315 C1316 1.524 . S
C1315 C1319 1.400 . S
C1316 H1301 0.960 . S
C1316 H1302 0.960 . S
C1316 H1303 0.960 . S
C1316 C1315 1.524 . S
C1317 C1314 1.403 . S
C1317 C1318 1.392 . S
C1317 C1321 1.495 . S
C1318 C1317 1.392 . S
C1318 C1319 1.385 . S
C1318 C1320 1.478 . S
C1319 H1313 0.930 . S
C1319 C1315 1.400 . S
C1319 C1318 1.385 . S
C1320 C1318 1.478 . S
C1320 C1322 1.381 . S
C1320 C1326 1.383 . S
C1321 C1317 1.495 . S
C1321 H1327 0.959 . S
C1321 H1328 0.961 . S
C1321 H1329 0.960 . S
C1322 C1320 1.381 . S
C1322 C1323 1.394 . S
C1322 H1330 0.930 . S
C1323 C1322 1.394 . S
C1323 C1324 1.383 . S
C1323 H1331 0.929 . S
C1324 C1323 1.383 . S
C1324 C1325 1.377 . S
C1325 H1309 0.930 . S
C1325 C1324 1.377 . S
C1325 C1326 1.379 . S
C1326 H1310 0.931 . S
C1326 C1320 1.383 . S
C1326 C1325 1.379 . S
H1327 C1321 0.959 . S
H1328 C1321 0.961 . S
H1329 C1321 0.960 . S
H1330 C1322 0.930 . S
H1331 C1323 0.929 . S
H1332 C1340 0.929 . S
H1333 C1342 0.930 . S
H1334 C1344 0.930 . S
H1335 C1347 0.929 . S
H1336 C1350 0.930 . S
H1337 C1352 0.960 . S
H1338 C1352 0.960 . S
H1339 C1352 0.960 . S
C1340 H1332 0.929 . S
C1340 C1341 1.377 . S
C1340 C1342 1.384 . S
C1341 C1340 1.377 . S
C1341 C1347 1.390 . S
C1342 H1333 0.930 . S
C1342 C1340 1.384 . S
C1342 C1343 1.372 . S
C1343 C1342 1.372 . S
C1343 C1344 1.400 . S
C1343 C1348 1.490 . S
C1344 H1334 0.930 . S
C1344 C1343 1.400 . S
C1344 C1347 1.386 . S
H1345 C1361 0.930 . S
H1346 C1362 0.931 . S
C1347 H1335 0.929 . S
C1347 C1341 1.390 . S
C1347 C1344 1.386 . S
C1348 C1343 1.490 . S
C1348 C1350 1.395 . S
C1348 C1351 1.403 . S
H1349 C1355 0.930 . S
C1350 H1336 0.930 . S
C1350 C1348 1.395 . S
C1350 C1353 1.403 . S
C1351 C1348 1.403 . S
C1351 C1352 1.524 . S
C1351 C1355 1.400 . S
C1352 H1337 0.960 . S
C1352 H1338 0.960 . S
C1352 H1339 0.960 . S
C1352 C1351 1.524 . S
C1353 C1350 1.403 . S
C1353 C1354 1.392 . S
C1353 C1357 1.495 . S
C1354 C1353 1.392 . S
C1354 C1355 1.385 . S
C1354 C1356 1.478 . S
C1355 H1349 0.930 . S
C1355 C1351 1.400 . S
C1355 C1354 1.385 . S
C1356 C1354 1.478 . S
C1356 C1358 1.381 . S
C1356 C1362 1.383 . S
C1357 C1353 1.495 . S
C1357 H1363 0.959 . S
C1357 H1364 0.961 . S
C1357 H1365 0.960 . S
C1358 C1356 1.381 . S
C1358 C1359 1.394 . S
C1358 H1366 0.930 . S
C1359 C1358 1.394 . S
C1359 C1360 1.383 . S
C1359 H1367 0.929 . S
C1360 C1359 1.383 . S
C1360 C1361 1.377 . S
C1361 H1345 0.930 . S
C1361 C1360 1.377 . S
C1361 C1362 1.379 . S
C1362 H1346 0.931 . S
C1362 C1356 1.383 . S
C1362 C1361 1.379 . S
H1363 C1357 0.959 . S
H1364 C1357 0.961 . S
H1365 C1357 0.960 . S
H1366 C1358 0.930 . S
H1367 C1359 0.929 . S
H1368 C1376 0.929 . S
H1369 C1378 0.930 . S
H1370 C1380 0.930 . S
H1371 C1383 0.929 . S
H1372 C1386 0.930 . S
H1373 C1388 0.960 . S
H1374 C1388 0.960 . S
H1375 C1388 0.960 . S
C1376 H1368 0.929 . S
C1376 C1377 1.377 . S
C1376 C1378 1.384 . S
C1377 C1376 1.377 . S
C1377 C1383 1.390 . S
C1378 H1369 0.930 . S
C1378 C1376 1.384 . S
C1378 C1379 1.372 . S
C1379 C1378 1.372 . S
C1379 C1380 1.400 . S
C1379 C1384 1.490 . S
C1380 H1370 0.930 . S
C1380 C1379 1.400 . S
C1380 C1383 1.386 . S
H1381 C1397 0.930 . S
H1382 C1398 0.931 . S
C1383 H1371 0.929 . S
C1383 C1377 1.390 . S
C1383 C1380 1.386 . S
C1384 C1379 1.490 . S
C1384 C1386 1.395 . S
C1384 C1387 1.403 . S
H1385 C1391 0.930 . S
C1386 H1372 0.930 . S
C1386 C1384 1.395 . S
C1386 C1389 1.403 . S
C1387 C1384 1.403 . S
C1387 C1388 1.524 . S
C1387 C1391 1.400 . S
C1388 H1373 0.960 . S
C1388 H1374 0.960 . S
C1388 H1375 0.960 . S
C1388 C1387 1.524 . S
C1389 C1386 1.403 . S
C1389 C1390 1.392 . S
C1389 C1393 1.495 . S
C1390 C1389 1.392 . S
C1390 C1391 1.385 . S
C1390 C1392 1.478 . S
C1391 H1385 0.930 . S
C1391 C1387 1.400 . S
C1391 C1390 1.385 . S
C1392 C1390 1.478 . S
C1392 C1394 1.381 . S
C1392 C1398 1.383 . S
C1393 C1389 1.495 . S
C1393 H1399 0.959 . S
C1393 H1400 0.961 . S
C1393 H1401 0.960 . S
C1394 C1392 1.381 . S
C1394 C1395 1.394 . S
C1394 H1402 0.930 . S
C1395 C1394 1.394 . S
C1395 C1396 1.383 . S
C1395 H1403 0.929 . S
C1396 C1395 1.383 . S
C1396 C1397 1.377 . S
C1397 H1381 0.930 . S
C1397 C1396 1.377 . S
C1397 C1398 1.379 . S
C1398 H1382 0.931 . S
C1398 C1392 1.383 . S
C1398 C1397 1.379 . S
H1399 C1393 0.959 . S
H1400 C1393 0.961 . S
H1401 C1393 0.960 . S
H1402 C1394 0.930 . S
H1403 C1395 0.929 . S
H1404 C1412 0.929 . S
H1405 C1414 0.930 . S
H1406 C1416 0.930 . S
H1407 C1419 0.929 . S
H1408 C1422 0.930 . S
H1409 C1424 0.960 . S
H1410 C1424 0.960 . S
H1411 C1424 0.960 . S
C1412 H1404 0.929 . S
C1412 C1413 1.377 . S
C1412 C1414 1.384 . S
C1413 C1412 1.377 . S
C1413 C1419 1.390 . S
C1414 H1405 0.930 . S
C1414 C1412 1.384 . S
C1414 C1415 1.372 . S
C1415 C1414 1.372 . S
C1415 C1416 1.400 . S
C1415 C1420 1.490 . S
C1416 H1406 0.930 . S
C1416 C1415 1.400 . S
C1416 C1419 1.386 . S
H1417 C1433 0.930 . S
H1418 C1434 0.931 . S
C1419 H1407 0.929 . S
C1419 C1413 1.390 . S
C1419 C1416 1.386 . S
C1420 C1415 1.490 . S
C1420 C1422 1.395 . S
C1420 C1423 1.403 . S
H1421 C1427 0.930 . S
C1422 H1408 0.930 . S
C1422 C1420 1.395 . S
C1422 C1425 1.403 . S
C1423 C1420 1.403 . S
C1423 C1424 1.524 . S
C1423 C1427 1.400 . S
C1424 H1409 0.960 . S
C1424 H1410 0.960 . S
C1424 H1411 0.960 . S
C1424 C1423 1.524 . S
C1425 C1422 1.403 . S
C1425 C1426 1.392 . S
C1425 C1429 1.495 . S
C1426 C1425 1.392 . S
C1426 C1427 1.385 . S
C1426 C1428 1.478 . S
C1427 H1421 0.930 . S
C1427 C1423 1.400 . S
C1427 C1426 1.385 . S
C1428 C1426 1.478 . S
C1428 C1430 1.381 . S
C1428 C1434 1.383 . S
C1429 C1425 1.495 . S
C1429 H1435 0.959 . S
C1429 H1436 0.961 . S
C1429 H1437 0.960 . S
C1430 C1428 1.381 . S
C1430 C1431 1.394 . S
C1430 H1438 0.930 . S
C1431 C1430 1.394 . S
C1431 C1432 1.383 . S
C1431 H1439 0.929 . S
C1432 C1431 1.383 . S
C1432 C1433 1.377 . S
C1433 H1417 0.930 . S
C1433 C1432 1.377 . S
C1433 C1434 1.379 . S
C1434 H1418 0.931 . S
C1434 C1428 1.383 . S
C1434 C1433 1.379 . S
H1435 C1429 0.959 . S
H1436 C1429 0.961 . S
H1437 C1429 0.960 . S
H1438 C1430 0.930 . S
H1439 C1431 0.929 . S
H1440 C1448 0.929 . S
H1441 C1450 0.930 . S
H1442 C1452 0.930 . S
H1443 C1455 0.929 . S
H1444 C1458 0.930 . S
H1445 C1460 0.960 . S
H1446 C1460 0.960 . S
H1447 C1460 0.960 . S
C1448 H1440 0.929 . S
C1448 C1449 1.377 . S
C1448 C1450 1.384 . S
C1449 C1448 1.377 . S
C1449 C1455 1.390 . S
C1450 H1441 0.930 . S
C1450 C1448 1.384 . S
C1450 C1451 1.372 . S
C1451 C1450 1.372 . S
C1451 C1452 1.400 . S
C1451 C1456 1.490 . S
C1452 H1442 0.930 . S
C1452 C1451 1.400 . S
C1452 C1455 1.386 . S
H1453 C1469 0.930 . S
H1454 C1470 0.931 . S
C1455 H1443 0.929 . S
C1455 C1449 1.390 . S
C1455 C1452 1.386 . S
C1456 C1451 1.490 . S
C1456 C1458 1.395 . S
C1456 C1459 1.403 . S
H1457 C1463 0.930 . S
C1458 H1444 0.930 . S
C1458 C1456 1.395 . S
C1458 C1461 1.403 . S
C1459 C1456 1.403 . S
C1459 C1460 1.524 . S
C1459 C1463 1.400 . S
C1460 H1445 0.960 . S
C1460 H1446 0.960 . S
C1460 H1447 0.960 . S
C1460 C1459 1.524 . S
C1461 C1458 1.403 . S
C1461 C1462 1.392 . S
C1461 C1465 1.495 . S
C1462 C1461 1.392 . S
C1462 C1463 1.385 . S
C1462 C1464 1.478 . S
C1463 H1457 0.930 . S
C1463 C1459 1.400 . S
C1463 C1462 1.385 . S
C1464 C1462 1.478 . S
C1464 C1466 1.381 . S
C1464 C1470 1.383 . S
C1465 C1461 1.495 . S
C1465 H1471 0.959 . S
C1465 H1472 0.961 . S
C1465 H1473 0.960 . S
C1466 C1464 1.381 . S
C1466 C1467 1.394 . S
C1466 H1474 0.930 . S
C1467 C1466 1.394 . S
C1467 C1468 1.383 . S
C1467 H1475 0.929 . S
C1468 C1467 1.383 . S
C1468 C1469 1.377 . S
C1469 H1453 0.930 . S
C1469 C1468 1.377 . S
C1469 C1470 1.379 . S
C1470 H1454 0.931 . S
C1470 C1464 1.383 . S
C1470 C1469 1.379 . S
H1471 C1465 0.959 . S
H1472 C1465 0.961 . S
H1473 C1465 0.960 . S
H1474 C1466 0.930 . S
H1475 C1467 0.929 . S
H1476 C1484 0.929 . S
H1477 C1486 0.930 . S
H1478 C1488 0.930 . S
H1479 C1491 0.929 . S
H1480 C1494 0.930 . S
H1481 C1496 0.960 . S
H1482 C1496 0.960 . S
H1483 C1496 0.960 . S
C1484 H1476 0.929 . S
C1484 C1485 1.377 . S
C1484 C1486 1.384 . S
C1485 C1484 1.377 . S
C1485 C1491 1.390 . S
C1486 H1477 0.930 . S
C1486 C1484 1.384 . S
C1486 C1487 1.372 . S
C1487 C1486 1.372 . S
C1487 C1488 1.400 . S
C1487 C1492 1.490 . S
C1488 H1478 0.930 . S
C1488 C1487 1.400 . S
C1488 C1491 1.386 . S
H1489 C1505 0.930 . S
H1490 C1506 0.931 . S
C1491 H1479 0.929 . S
C1491 C1485 1.390 . S
C1491 C1488 1.386 . S
C1492 C1487 1.490 . S
C1492 C1494 1.395 . S
C1492 C1495 1.403 . S
H1493 C1499 0.930 . S
C1494 H1480 0.930 . S
C1494 C1492 1.395 . S
C1494 C1497 1.403 . S
C1495 C1492 1.403 . S
C1495 C1496 1.524 . S
C1495 C1499 1.400 . S
C1496 H1481 0.960 . S
C1496 H1482 0.960 . S
C1496 H1483 0.960 . S
C1496 C1495 1.524 . S
C1497 C1494 1.403 . S
C1497 C1498 1.392 . S
C1497 C1501 1.495 . S
C1498 C1497 1.392 . S
C1498 C1499 1.385 . S
C1498 C1500 1.478 . S
C1499 H1493 0.930 . S
C1499 C1495 1.400 . S
C1499 C1498 1.385 . S
C1500 C1498 1.478 . S
C1500 C1502 1.381 . S
C1500 C1506 1.383 . S
C1501 C1497 1.495 . S
C1501 H1507 0.959 . S
C1501 H1508 0.961 . S
C1501 H1509 0.960 . S
C1502 C1500 1.381 . S
C1502 C1503 1.394 . S
C1502 H1510 0.930 . S
C1503 C1502 1.394 . S
C1503 C1504 1.383 . S
C1503 H1511 0.929 . S
C1504 C1503 1.383 . S
C1504 C1505 1.377 . S
C1505 H1489 0.930 . S
C1505 C1504 1.377 . S
C1505 C1506 1.379 . S
C1506 H1490 0.931 . S
C1506 C1500 1.383 . S
C1506 C1505 1.379 . S
H1507 C1501 0.959 . S
H1508 C1501 0.961 . S
H1509 C1501 0.960 . S
H1510 C1502 0.930 . S
H1511 C1503 0.929 . S
H1512 C1520 0.929 . S
H1513 C1522 0.930 . S
H1514 C1524 0.930 . S
H1515 C1527 0.929 . S
H1516 C1530 0.930 . S
H1517 C1532 0.960 . S
H1518 C1532 0.960 . S
H1519 C1532 0.960 . S
C1520 H1512 0.929 . S
C1520 C1521 1.377 . S
C1520 C1522 1.384 . S
C1521 C1520 1.377 . S
C1521 C1527 1.390 . S
C1522 H1513 0.930 . S
C1522 C1520 1.384 . S
C1522 C1523 1.372 . S
C1523 C1522 1.372 . S
C1523 C1524 1.400 . S
C1523 C1528 1.490 . S
C1524 H1514 0.930 . S
C1524 C1523 1.400 . S
C1524 C1527 1.386 . S
H1525 C1541 0.930 . S
H1526 C1542 0.931 . S
C1527 H1515 0.929 . S
C1527 C1521 1.390 . S
C1527 C1524 1.386 . S
C1528 C1523 1.490 . S
C1528 C1530 1.395 . S
C1528 C1531 1.403 . S
H1529 C1535 0.930 . S
C1530 H1516 0.930 . S
C1530 C1528 1.395 . S
C1530 C1533 1.403 . S
C1531 C1528 1.403 . S
C1531 C1532 1.524 . S
C1531 C1535 1.400 . S
C1532 H1517 0.960 . S
C1532 H1518 0.960 . S
C1532 H1519 0.960 . S
C1532 C1531 1.524 . S
C1533 C1530 1.403 . S
C1533 C1534 1.392 . S
C1533 C1537 1.495 . S
C1534 C1533 1.392 . S
C1534 C1535 1.385 . S
C1534 C1536 1.478 . S
C1535 H1529 0.930 . S
C1535 C1531 1.400 . S
C1535 C1534 1.385 . S
C1536 C1534 1.478 . S
C1536 C1538 1.381 . S
C1536 C1542 1.383 . S
C1537 C1533 1.495 . S
C1537 H1543 0.959 . S
C1537 H1544 0.961 . S
C1537 H1545 0.960 . S
C1538 C1536 1.381 . S
C1538 C1539 1.394 . S
C1538 H1546 0.930 . S
C1539 C1538 1.394 . S
C1539 C1540 1.383 . S
C1539 H1547 0.929 . S
C1540 C1539 1.383 . S
C1540 C1541 1.377 . S
C1541 H1525 0.930 . S
C1541 C1540 1.377 . S
C1541 C1542 1.379 . S
C1542 H1526 0.931 . S
C1542 C1536 1.383 . S
C1542 C1541 1.379 . S
H1543 C1537 0.959 . S
H1544 C1537 0.961 . S
H1545 C1537 0.960 . S
H1546 C1538 0.930 . S
H1547 C1539 0.929 . S
C261 C244 1.709 . S
C280 C6 1.706 . S
C297 C216 1.715 . S
C316 C20 1.710 . S
C333 C230 1.712 . S
C352 C34 1.722 . S
C369 C104 1.711 . S
C388 C48 1.722 . S
C405 C118 1.714 . S
C424 C62 1.698 . S
C441 C76 1.713 . S
C460 C90 1.720 . S
C477 C132 1.711 . S
C496 C188 1.699 . S
C513 C146 1.713 . S
C532 C202 1.721 . S
C549 C160 1.713 . S
C568 C174 1.696 . S
C585 C9 0.627 . S
C604 C247 0.664 . S
C621 C219 0.629 . S
C640 C23 0.671 . S
C657 C37 0.613 . S
C676 C233 0.581 . S
C693 C107 0.627 . S
C712 C51 0.648 . S
C729 C65 0.609 . S
C748 C121 0.578 . S
C765 C79 0.613 . S
C784 C93 0.600 . S
C801 C135 0.622 . S
C820 C191 0.644 . S
C837 C205 0.611 . S
C856 C149 0.588 . S
C873 C177 0.631 . S
C892 C163 0.676 . S
C909 C8 1.838 . S
C928 C50 1.838 . S
C945 C64 1.839 . S
C964 C22 1.831 . S
C981 C78 1.838 . S
C1000 C36 1.835 . S
C1017 C77 1.801 . S
C1036 C21 1.784 . S
C1053 C35 1.797 . S
C1072 C49 1.802 . S
C1089 C63 1.803 . S
C1108 C7 1.815 . S
C1125 C92 1.839 . S
C1144 C134 1.830 . S
C1161 C148 1.839 . S
C1180 C106 1.832 . S
C1197 C162 1.839 . S
C1216 C120 1.830 . S
C1233 C161 1.800 . S
C1252 C105 1.783 . S
C1269 C119 1.796 . S
C1288 C133 1.775 . S
C1305 C147 1.795 . S
C1324 C91 1.780 . S
C1341 C218 1.838 . S
C1360 C176 1.839 . S
C1377 C232 1.839 . S
C1396 C190 1.830 . S
C1413 C204 1.837 . S
C1432 C246 1.839 . S
C1449 C245 1.801 . S
C1468 C189 1.785 . S
C1485 C203 1.796 . S
C1504 C217 1.795 . S
C1521 C231 1.799 . S
C1540 C175 1.778 . S
