# Generated by pormake.
# Topology unc, (4)-cn, num edge types: 1
# Building blocks:
#     Node 0, Type 0, BuildingBlock: QUQFOY_clean_sbu_1, # of connection points: 4
#     Node 1, Type 0, BuildingBlock: QUQFOY_clean_sbu_1, # of connection points: 4
#     Node 2, Type 0, BuildingBlock: QUQFOY_clean_sbu_1, # of connection points: 4
#     Node 3, Type 0, BuildingBlock: QUQFOY_clean_sbu_1, # of connection points: 4
#     Edge 4, Type (0, 0), BuildingBlock: XUDNAN_clean_linker_2, # of connection points: 2
#     Edge 5, Type (0, 0), BuildingBlock: XUDNAN_clean_linker_2, # of connection points: 2
#     Edge 6, Type (0, 0), BuildingBlock: XUDNAN_clean_linker_2, # of connection points: 2
#     Edge 7, Type (0, 0), BuildingBlock: XUDNAN_clean_linker_2, # of connection points: 2
#     Edge 8, Type (0, 0), BuildingBlock: XUDNAN_clean_linker_2, # of connection points: 2
#     Edge 9, Type (0, 0), BuildingBlock: XUDNAN_clean_linker_2, # of connection points: 2
#     Edge 10, Type (0, 0), BuildingBlock: XUDNAN_clean_linker_2, # of connection points: 2
#     Edge 11, Type (0, 0), BuildingBlock: XUDNAN_clean_linker_2, # of connection points: 2
# Relax obj value: 0.070
# Max RMSD: 0.106
# Mean RMSD: 0.106
data_MOF--net-unc--node1-QUQFOY_clean_sbu_1--edge1-XUDNAN_clean_linker_2
_symmetry_space_group_name_H-M    P1
_symmetry_Int_Tables_number       1
_symmetry_cell_setting            triclinic
loop_
_symmetry_equiv_pos_as_xyz
'x, y, z'
_cell_length_a     31.095281
_cell_length_b     31.16147
_cell_length_c     23.168464
_cell_angle_alpha  90.256771
_cell_angle_beta   90.136794
_cell_angle_gamma 90.191204
loop_
_atom_site_label
_atom_site_type_symbol
_atom_site_fract_x
_atom_site_fract_y
_atom_site_fract_z
_atom_type_partial_charge
O0 O 0.98862 0.64262 0.91579 0.0
Cd1 Cd 0.97542 0.67646 -0.0102 0.0
Cd2 Cd 0.06201 0.6631 -0.00211 0.0
O3 O 0.05917 0.63643 0.91597 0.0
O4 O 0.91217 0.68229 0.97977 0.0
O5 O 0.95542 0.73833 0.98065 0.0
C6 C 0.91708 0.72301 0.97468 0.0
C7 C 0.09886 0.72564 0.02194 0.0
C8 C 0.02299 0.62979 0.89187 0.0
C9 C 1.00757 0.62057 0.08663 0.0
O10 O 0.04486 0.62323 0.06461 0.0
O11 O 0.97649 0.64196 0.06573 0.0
O12 O 0.11882 0.68961 0.01556 0.0
O13 O 0.05789 0.72639 0.01202 0.0
O14 O 0.40185 0.03187 0.31587 0.0
Cd15 Cd 0.36489 0.06166 0.25407 0.0
Cd16 Cd 0.3596 0.97632 0.21923 0.0
O17 O 0.39087 0.96345 0.29596 0.0
O18 O 0.36454 0.12144 0.2847 0.0
O19 O 0.30525 0.08312 0.27516 0.0
C20 C 0.32362 0.11835 0.29153 0.0
C21 C 0.29947 0.93644 0.19011 0.0
C22 C 0.40784 0.99249 0.32733 0.0
C23 C 0.4061 0.03892 0.14164 0.0
O24 O 0.39735 1.00011 0.15371 0.0
O25 O 0.39302 0.0692 0.17401 0.0
O26 O 0.33762 0.92038 0.18915 0.0
O27 O 0.29515 0.97514 0.20952 0.0
O28 O 0.0467 0.4048 0.41574 0.0
Cd29 Cd 0.06729 0.37129 0.48702 0.0
Cd30 Cd 0.97913 0.35359 0.4932 0.0
O31 O 0.98043 0.37944 0.41143 0.0
O32 O 0.13026 0.36537 0.47529 0.0
O33 O 0.08585 0.30978 0.47585 0.0
C34 C 0.12435 0.32464 0.46909 0.0
C35 C 0.92168 0.30654 0.51425 0.0
C36 C 1.01048 0.40226 0.39045 0.0
C37 C 0.0222 0.41254 0.58326 0.0
O38 O 0.98892 0.39715 0.55881 0.0
O39 O 0.05944 0.40272 0.56515 0.0
O40 O 0.91586 0.34619 0.50181 0.0
O41 O 0.9606 0.29241 0.5131 0.0
O42 O 0.62331 0.9956 0.81479 0.0
Cd43 Cd 0.66163 0.96705 0.75346 0.0
Cd44 Cd 0.66383 0.05441 0.71838 0.0
O45 O 0.6333 0.0643 0.79645 0.0
O46 O 0.66583 0.90813 0.78539 0.0
O47 O 0.72258 0.94996 0.77495 0.0
C48 C 0.70645 0.91409 0.79249 0.0
C49 C 0.7092 0.10884 0.68324 0.0
C50 C 0.61681 0.03481 0.82706 0.0
C51 C 0.61956 0.98706 0.64171 0.0
O52 O 0.62731 0.02607 0.65428 0.0
O53 O 0.63361 0.95712 0.6736 0.0
O54 O 0.6683 0.11372 0.68756 0.0
O55 O 0.72525 0.07308 0.70094 0.0
H56 H 0.0669 0.5783 0.15334 0.0
H57 H 0.92951 0.59174 0.1248 0.0
H58 H 0.91565 0.53469 0.19587 0.0
H59 H 0.06832 0.46453 0.16987 0.0
H60 H 0.10816 0.46491 0.22652 0.0
H61 H 0.10764 0.50711 0.17364 0.0
H62 H 0.10221 0.56427 0.25491 0.0
H63 H 0.10337 0.52229 0.30804 0.0
H64 H 0.05972 0.56021 0.30743 0.0
H65 H 0.91676 0.47412 0.26682 0.0
H66 H 0.93229 0.42038 0.34185 0.0
H67 H 0.06878 0.44802 0.32642 0.0
C68 C 0.03388 0.56946 0.1623 0.0
C69 C 0.9993 0.58943 0.13336 0.0
C70 C 0.95654 0.57705 0.14655 0.0
C71 C 0.94832 0.54446 0.18658 0.0
C72 C 0.98316 0.52484 0.21341 0.0
C73 C 0.02505 0.5373 0.20255 0.0
C74 C 0.05662 0.51182 0.23844 0.0
C75 C 0.08697 0.48554 0.19979 0.0
C76 C 0.08196 0.54141 0.27966 0.0
C77 C 0.02592 0.48299 0.27102 0.0
C78 C 0.98374 0.49068 0.25546 0.0
C79 C 0.94966 0.46791 0.27957 0.0
C80 C 0.95885 0.43724 0.3219 0.0
C81 C 1.00175 0.42998 0.3401 0.0
C82 C 0.03565 0.45278 0.31348 0.0
H83 H 0.45349 0.04779 0.3955 0.0
H84 H 0.42989 0.91194 0.36678 0.0
H85 H 0.4832 0.8947 0.44289 0.0
H86 H 0.56633 0.04002 0.41674 0.0
H87 H 0.56802 0.08138 0.47136 0.0
H88 H 0.52716 0.08255 0.4162 0.0
H89 H 0.46772 0.08419 0.49452 0.0
H90 H 0.50839 0.08351 0.54991 0.0
H91 H 0.46672 0.04317 0.54913 0.0
H92 H 0.54033 0.89325 0.52307 0.0
H93 H 0.59358 0.90776 0.60055 0.0
H94 H 0.57935 0.04458 0.57176 0.0
C95 C 0.45911 1.01431 0.40528 0.0
C96 C 0.43733 0.98121 0.37522 0.0
C97 C 0.44606 0.93788 0.38938 0.0
C98 C 0.47637 0.9278 0.4324 0.0
C99 C 0.4977 0.96139 0.46054 0.0
C100 C 0.48923 1.00376 0.44749 0.0
C101 C 0.51644 0.03418 0.48312 0.0
C102 C 0.54625 0.0611 0.44454 0.0
C103 C 0.48813 0.06294 0.52145 0.0
C104 C 0.54162 1.00241 0.5186 0.0
C105 C 0.53054 0.96055 0.50522 0.0
C106 C 0.54928 0.92593 0.5337 0.0
C107 C 0.57959 0.93448 0.57751 0.0
C108 C 0.59084 0.9773 0.59218 0.0
C109 C 0.57182 1.01144 0.56155 0.0
H110 H 0.08379 0.57757 0.83908 0.0
H111 H 0.9523 0.62324 0.8238 0.0
H112 H 0.93954 0.57312 0.74385 0.0
H113 H 0.10001 0.56117 0.68099 0.0
H114 H 0.13184 0.51355 0.69116 0.0
H115 H 0.13238 0.5554 0.74513 0.0
H116 H 0.11015 0.49994 0.82252 0.0
H117 H 0.10886 0.45807 0.76869 0.0
H118 H 0.06194 0.46852 0.81201 0.0
H119 H 0.93719 0.51421 0.67479 0.0
H120 H 0.94824 0.45458 0.60748 0.0
H121 H 0.08237 0.44689 0.65997 0.0
C122 C 0.0527 0.57766 0.81794 0.0
C123 C 0.01899 0.60424 0.83809 0.0
C124 C 0.97859 0.60308 0.80962 0.0
C125 C 0.97091 0.57467 0.76406 0.0
C126 C 1.00407 0.54785 0.74674 0.0
C127 C 0.04445 0.54947 0.77164 0.0
C128 C 0.07385 0.51614 0.74444 0.0
C129 C 0.11177 0.53787 0.71359 0.0
C130 C 0.08962 0.48376 0.78963 0.0
C131 C 0.04318 0.49516 0.70151 0.0
C132 C 1.00312 0.51403 0.70424 0.0
C133 C 0.96857 0.4995 0.67142 0.0
C134 C 0.9752 0.46527 0.63356 0.0
C135 C 1.01626 0.446 0.62811 0.0
C136 C 0.05071 0.46109 0.6629 0.0
H137 H 0.44676 0.98104 0.07182 0.0
H138 H 0.43125 0.11791 0.10056 0.0
H139 H 0.48403 0.13251 0.02326 0.0
H140 H 0.55913 0.98346 0.04894 0.0
H141 H 0.5584 0.94219 -0.00582 0.0
H142 H 0.51778 0.94277 0.0494 0.0
H143 H 0.45798 0.94407 0.97122 0.0
H144 H 0.49841 0.94298 0.91574 0.0
H145 H 0.45892 0.98518 0.91674 0.0
H146 H 0.54064 0.1315 0.94368 0.0
H147 H 0.59384 0.11491 0.86746 0.0
H148 H 0.57214 0.97876 0.89468 0.0
C149 C 0.45394 1.01417 0.06156 0.0
C150 C 0.43468 0.04833 0.09218 0.0
C151 C 0.44545 0.09117 0.07756 0.0
C152 C 0.47548 0.09979 0.03382 0.0
C153 C 0.49445 0.06522 0.00529 0.0
C154 C 0.48387 0.02329 0.0185 0.0
C155 C 0.50932 0.99173 0.98268 0.0
C156 C 0.53784 0.96338 0.02111 0.0
C157 C 0.47937 0.9644 0.94432 0.0
C158 C 0.53602 0.02238 0.94721 0.0
C159 C 0.52708 0.06465 0.96062 0.0
C160 C 0.54785 0.09849 0.93285 0.0
C161 C 0.57811 0.08876 0.88976 0.0
C162 C 0.58733 0.04554 0.87511 0.0
C163 C 0.56611 1.01215 0.90484 0.0
H164 H 0.29977 0.85377 0.15009 0.0
H165 H 0.21557 0.96271 0.17783 0.0
H166 H 0.15502 0.92153 0.13517 0.0
H167 H 0.25613 0.82094 0.014 0.0
H168 H 0.26172 0.76443 0.0284 0.0
H169 H 0.29804 0.80238 0.06156 0.0
H170 H 0.27795 0.77355 0.1628 0.0
H171 H 0.24185 0.73527 0.12992 0.0
H172 H 0.22225 0.77192 0.18415 0.0
H173 H 0.10374 0.86782 0.08811 0.0
H174 H 0.06568 0.80552 0.04511 0.0
H175 H 0.18439 0.73266 0.04877 0.0
C176 C 0.26859 0.86904 0.14747 0.0
C177 C 0.26241 0.91151 0.16736 0.0
C178 C 0.22105 0.93017 0.16304 0.0
C179 C 0.18651 0.90708 0.1387 0.0
C180 C 0.19389 0.86538 0.11898 0.0
C181 C 0.23391 0.84651 0.12345 0.0
C182 C 0.23356 0.80123 0.09956 0.0
C183 C 0.26418 0.79703 0.04781 0.0
C184 C 0.24454 0.76858 0.14694 0.0
C185 C 0.18706 0.79743 0.08088 0.0
C186 C 0.16465 0.83474 0.0922 0.0
C187 C 0.12103 0.83848 0.07906 0.0
C188 C 0.09971 0.80296 0.05449 0.0
C189 C 0.12203 0.76421 0.0434 0.0
C190 C 0.16638 0.76182 0.0564 0.0
H191 H 0.23698 0.12198 0.31861 0.0
H192 H 0.35617 0.19484 0.32842 0.0
H193 H 0.31854 0.25309 0.37901 0.0
H194 H 0.16778 0.21278 0.29297 0.0
H195 H 0.1242 0.1924 0.33621 0.0
H196 H 0.1605 0.15571 0.3012 0.0
H197 H 0.17713 0.1205 0.39981 0.0
H198 H 0.14115 0.15735 0.43519 0.0
H199 H 0.19627 0.15338 0.45878 0.0
H200 H 0.26919 0.3036 0.42767 0.0
H201 H 0.20933 0.34571 0.46757 0.0
H202 H 0.12096 0.24146 0.42754 0.0
C203 C 0.25507 0.15025 0.33127 0.0
C204 C 0.29959 0.15374 0.31951 0.0
C205 C 0.3221 0.19129 0.33686 0.0
C206 C 0.30106 0.22459 0.36585 0.0
C207 C 0.25741 0.22001 0.37732 0.0
C208 C 0.23448 0.18402 0.36039 0.0
C209 C 0.18751 0.18796 0.37739 0.0
C210 C 0.15828 0.18718 0.32374 0.0
C211 C 0.17478 0.15269 0.42035 0.0
C212 C 0.18776 0.23187 0.40607 0.0
C213 C 0.22856 0.24953 0.40574 0.0
C214 C 0.23707 0.29012 0.42837 0.0
C215 C 0.20281 0.31378 0.45102 0.0
C216 C 0.16047 0.29688 0.45091 0.0
C217 C 0.15304 0.25505 0.42885 0.0
H218 H 0.79741 0.11021 0.66504 0.0
H219 H 0.68086 0.18447 0.63979 0.0
H220 H 0.72256 0.24038 0.59064 0.0
H221 H 0.86711 0.20121 0.69358 0.0
H222 H 0.91259 0.17899 0.6559 0.0
H223 H 0.87371 0.14385 0.68878 0.0
H224 H 0.86195 0.10554 0.59053 0.0
H225 H 0.90057 0.14081 0.55724 0.0
H226 H 0.84686 0.13663 0.52829 0.0
H227 H 0.77504 0.28797 0.54418 0.0
H228 H 0.83732 0.32788 0.50741 0.0
H229 H 0.92198 0.22507 0.56221 0.0
C230 C 0.78078 0.13831 0.6493 0.0
C231 C 0.73577 0.14284 0.6563 0.0
C232 C 0.71522 0.18013 0.63508 0.0
C233 C 0.7386 0.21211 0.60685 0.0
C234 C 0.78264 0.20655 0.60013 0.0
C235 C 0.80378 0.17089 0.62098 0.0
C236 C 0.8517 0.1738 0.60864 0.0
C237 C 0.87781 0.17452 0.66509 0.0
C238 C 0.86611 0.137 0.5688 0.0
C239 C 0.85397 0.21676 0.57796 0.0
C240 C 0.81356 0.23472 0.57333 0.0
C241 C 0.8069 0.27433 0.54751 0.0
C242 C 0.84259 0.29674 0.52669 0.0
C243 C 0.88461 0.27968 0.53187 0.0
C244 C 0.89025 0.23881 0.55725 0.0
H245 H 0.79403 0.91477 0.81527 0.0
H246 H 0.67759 0.8394 0.83873 0.0
H247 H 0.71848 0.7859 0.89343 0.0
H248 H 0.86468 0.82453 0.79492 0.0
H249 H 0.90923 0.84852 0.83328 0.0
H250 H 0.8707 0.88208 0.79711 0.0
H251 H 0.85681 0.92283 0.89294 0.0
H252 H 0.89501 0.88906 0.92954 0.0
H253 H 0.84072 0.89324 0.95604 0.0
H254 H 0.77049 0.74024 0.94426 0.0
H255 H 0.8328 0.70137 0.98298 0.0
H256 H 0.91729 0.80444 0.92754 0.0
C257 C 0.77723 0.88697 0.83188 0.0
C258 C 0.73252 0.8814 0.82271 0.0
C259 C 0.71175 0.8445 0.84505 0.0
C260 C 0.73465 0.81393 0.87649 0.0
C261 C 0.77842 0.82054 0.88531 0.0
C262 C 0.79975 0.85582 0.86339 0.0
C263 C 0.8474 0.85399 0.8778 0.0
C264 C 0.8746 0.85216 0.82248 0.0
C265 C 0.86076 0.89205 0.91638 0.0
C266 C 0.84937 0.81197 0.91067 0.0
C267 C 0.809 0.7936 0.9148 0.0
C268 C 0.80229 0.75428 0.94153 0.0
C269 C 0.83794 0.73248 0.96344 0.0
C270 C 0.87989 0.7499 0.95848 0.0
C271 C 0.88554 0.79062 0.93268 0.0
loop_
_geom_bond_atom_site_label_1
_geom_bond_atom_site_label_2
_geom_bond_distance
_geom_bond_site_symmetry_2
_ccdc_geom_bond_type
O0 Cd1 2.223 1_556 S
O0 C8 1.315 . S
Cd1 O0 2.223 1_554 S
Cd1 O4 2.297 1_554 S
Cd1 O5 2.439 1_554 S
Cd1 O11 2.240 . S
Cd2 O3 2.240 . S
Cd2 O10 2.223 1_556 S
Cd2 O12 2.297 1_556 S
Cd2 O13 2.439 1_556 S
O3 Cd2 2.240 . S
O3 C8 1.279 1_455 S
O4 Cd1 2.297 1_556 S
O4 C6 1.247 . S
O5 Cd1 2.439 1_556 S
O5 C6 1.208 . S
C6 O4 1.247 . S
C6 O5 1.208 . S
C7 O12 1.247 . S
C7 O13 1.208 . S
C8 O0 1.315 . S
C8 O3 1.279 1_655 S
C9 O10 1.315 . S
C9 O11 1.279 1_455 S
O10 Cd2 2.223 1_554 S
O10 C9 1.315 . S
O11 Cd1 2.240 . S
O11 C9 1.279 1_655 S
O12 Cd2 2.297 1_554 S
O12 C7 1.247 . S
O13 Cd2 2.439 1_554 S
O13 C7 1.208 . S
O14 Cd15 2.223 . S
O14 C22 1.315 . S
Cd15 O14 2.223 . S
Cd15 O18 2.297 . S
Cd15 O19 2.439 . S
Cd15 O25 2.240 . S
Cd16 O17 2.240 . S
Cd16 O24 2.223 . S
Cd16 O26 2.297 . S
Cd16 O27 2.439 . S
O17 Cd16 2.240 . S
O17 C22 1.279 1_565 S
O18 Cd15 2.297 . S
O18 C20 1.247 . S
O19 Cd15 2.439 . S
O19 C20 1.208 . S
C20 O18 1.247 . S
C20 O19 1.208 . S
C21 O26 1.247 . S
C21 O27 1.208 . S
C22 O14 1.315 . S
C22 O17 1.279 1_545 S
C23 O24 1.315 . S
C23 O25 1.279 1_565 S
O24 Cd16 2.223 . S
O24 C23 1.315 . S
O25 Cd15 2.240 . S
O25 C23 1.279 1_545 S
O26 Cd16 2.297 . S
O26 C21 1.247 . S
O27 Cd16 2.439 . S
O27 C21 1.208 . S
O28 Cd29 2.223 . S
O28 C36 1.315 . S
Cd29 O28 2.223 . S
Cd29 O32 2.297 . S
Cd29 O33 2.439 . S
Cd29 O39 2.240 . S
Cd30 O31 2.240 . S
Cd30 O38 2.223 . S
Cd30 O40 2.297 . S
Cd30 O41 2.439 . S
O31 Cd30 2.240 . S
O31 C36 1.279 1_655 S
O32 Cd29 2.297 . S
O32 C34 1.247 . S
O33 Cd29 2.439 . S
O33 C34 1.208 . S
C34 O32 1.247 . S
C34 O33 1.208 . S
C35 O40 1.247 . S
C35 O41 1.208 . S
C36 O28 1.315 . S
C36 O31 1.279 1_455 S
C37 O38 1.315 . S
C37 O39 1.279 1_655 S
O38 Cd30 2.223 . S
O38 C37 1.315 . S
O39 Cd29 2.240 . S
O39 C37 1.279 1_455 S
O40 Cd30 2.297 . S
O40 C35 1.247 . S
O41 Cd30 2.439 . S
O41 C35 1.208 . S
O42 Cd43 2.223 . S
O42 C50 1.315 . S
Cd43 O42 2.223 . S
Cd43 O46 2.297 . S
Cd43 O47 2.439 . S
Cd43 O53 2.240 . S
Cd44 O45 2.240 . S
Cd44 O52 2.223 . S
Cd44 O54 2.297 . S
Cd44 O55 2.439 . S
O45 Cd44 2.240 . S
O45 C50 1.279 1_545 S
O46 Cd43 2.297 . S
O46 C48 1.247 . S
O47 Cd43 2.439 . S
O47 C48 1.208 . S
C48 O46 1.247 . S
C48 O47 1.208 . S
C49 O54 1.247 . S
C49 O55 1.208 . S
C50 O42 1.315 . S
C50 O45 1.279 1_565 S
C51 O52 1.315 . S
C51 O53 1.279 1_545 S
O52 Cd44 2.223 . S
O52 C51 1.315 . S
O53 Cd43 2.240 . S
O53 C51 1.279 1_565 S
O54 Cd44 2.297 . S
O54 C49 1.247 . S
O55 Cd44 2.439 . S
O55 C49 1.208 . S
H56 C68 0.930 . S
H57 C70 0.930 . S
H58 C71 0.930 . S
H59 C75 0.959 . S
H60 C75 0.959 . S
H61 C75 0.961 . S
H62 C76 0.960 . S
H63 C76 0.961 . S
H64 C76 0.959 1_655 S
H65 C79 0.929 . S
H66 C80 0.931 . S
H67 C82 0.930 . S
C68 H56 0.930 . S
C68 C69 1.399 . S
C68 C73 1.399 . S
C69 C68 1.399 . S
C69 C70 1.376 1_455 S
C70 H57 0.930 . S
C70 C69 1.376 1_655 S
C70 C71 1.388 . S
C71 H58 0.930 . S
C71 C70 1.388 . S
C71 C72 1.390 . S
C72 C71 1.390 . S
C72 C73 1.394 1_655 S
C72 C78 1.465 . S
C73 C68 1.399 . S
C73 C72 1.394 1_455 S
C73 C74 1.516 . S
C74 C73 1.516 . S
C74 C75 1.502 . S
C74 C76 1.561 . S
C74 C77 1.526 . S
C75 H59 0.959 . S
C75 H60 0.959 . S
C75 H61 0.961 . S
C75 C74 1.502 . S
C76 H62 0.960 . S
C76 H63 0.961 . S
C76 H64 0.959 1_455 S
C76 C74 1.561 . S
C77 C74 1.526 . S
C77 C78 1.396 1_455 S
C77 C82 1.390 . S
C78 C72 1.465 . S
C78 C77 1.396 1_655 S
C78 C79 1.399 . S
C79 H65 0.929 . S
C79 C78 1.399 . S
C79 C80 1.385 . S
C80 H66 0.931 . S
C80 C79 1.385 . S
C80 C81 1.389 1_655 S
C81 C80 1.389 1_455 S
C81 C82 1.387 . S
C82 H67 0.930 . S
C82 C77 1.390 . S
C82 C81 1.387 . S
H83 C95 0.930 . S
H84 C97 0.930 . S
H85 C98 0.930 . S
H86 C102 0.959 . S
H87 C102 0.959 . S
H88 C102 0.961 . S
H89 C103 0.960 . S
H90 C103 0.961 . S
H91 C103 0.959 . S
H92 C106 0.929 . S
H93 C107 0.931 . S
H94 C109 0.930 . S
C95 H83 0.930 . S
C95 C96 1.399 . S
C95 C100 1.399 . S
C96 C95 1.399 . S
C96 C97 1.376 1_545 S
C97 H84 0.930 . S
C97 C96 1.376 1_565 S
C97 C98 1.388 . S
C98 H85 0.930 . S
C98 C97 1.388 . S
C98 C99 1.390 . S
C99 C98 1.390 . S
C99 C100 1.394 1_565 S
C99 C105 1.465 . S
C100 C95 1.399 . S
C100 C99 1.394 1_545 S
C100 C101 1.516 . S
C101 C100 1.516 . S
C101 C102 1.502 . S
C101 C103 1.561 . S
C101 C104 1.526 . S
C102 H86 0.959 . S
C102 H87 0.959 . S
C102 H88 0.961 . S
C102 C101 1.502 . S
C103 H89 0.960 . S
C103 H90 0.961 . S
C103 H91 0.959 . S
C103 C101 1.561 . S
C104 C101 1.526 . S
C104 C105 1.396 1_545 S
C104 C109 1.390 . S
C105 C99 1.465 . S
C105 C104 1.396 1_565 S
C105 C106 1.399 . S
C106 H92 0.929 . S
C106 C105 1.399 . S
C106 C107 1.385 . S
C107 H93 0.931 . S
C107 C106 1.385 . S
C107 C108 1.389 1_565 S
C108 C107 1.389 1_545 S
C108 C109 1.387 . S
C109 H94 0.930 . S
C109 C104 1.390 . S
C109 C108 1.387 . S
H110 C122 0.930 . S
H111 C124 0.930 . S
H112 C125 0.930 . S
H113 C129 0.959 . S
H114 C129 0.959 . S
H115 C129 0.961 . S
H116 C130 0.960 . S
H117 C130 0.961 . S
H118 C130 0.959 . S
H119 C133 0.929 . S
H120 C134 0.931 . S
H121 C136 0.930 . S
C122 H110 0.930 . S
C122 C123 1.399 1_455 S
C122 C127 1.399 . S
C123 C122 1.399 1_655 S
C123 C124 1.376 . S
C124 H111 0.930 . S
C124 C123 1.376 . S
C124 C125 1.388 . S
C125 H112 0.930 . S
C125 C124 1.388 . S
C125 C126 1.390 . S
C126 C125 1.390 . S
C126 C127 1.394 1_655 S
C126 C132 1.465 . S
C127 C122 1.399 . S
C127 C126 1.394 1_455 S
C127 C128 1.516 . S
C128 C127 1.516 . S
C128 C129 1.502 . S
C128 C130 1.561 . S
C128 C131 1.526 . S
C129 H113 0.959 . S
C129 H114 0.959 . S
C129 H115 0.961 . S
C129 C128 1.502 . S
C130 H116 0.960 . S
C130 H117 0.961 . S
C130 H118 0.959 . S
C130 C128 1.561 . S
C131 C128 1.526 . S
C131 C132 1.396 1_455 S
C131 C136 1.390 . S
C132 C126 1.465 . S
C132 C131 1.396 1_655 S
C132 C133 1.399 . S
C133 H119 0.929 . S
C133 C132 1.399 . S
C133 C134 1.385 . S
C134 H120 0.931 . S
C134 C133 1.385 . S
C134 C135 1.389 . S
C135 C134 1.389 . S
C135 C136 1.387 1_655 S
C136 H121 0.930 . S
C136 C131 1.390 . S
C136 C135 1.387 1_455 S
H137 C149 0.930 . S
H138 C151 0.930 . S
H139 C152 0.930 . S
H140 C156 0.959 . S
H141 C156 0.959 . S
H142 C156 0.961 . S
H143 C157 0.960 . S
H144 C157 0.961 . S
H145 C157 0.973 . S
H146 C160 0.929 . S
H147 C161 0.931 . S
H148 C163 0.930 . S
C149 H137 0.930 . S
C149 C150 1.412 . S
C149 C154 1.399 . S
C150 C149 1.412 . S
C150 C151 1.360 1_565 S
C151 H138 0.930 . S
C151 C150 1.360 1_545 S
C151 C152 1.388 . S
C152 H139 0.930 . S
C152 C151 1.388 . S
C152 C153 1.390 . S
C153 C152 1.390 . S
C153 C154 1.394 1_545 S
C153 C159 1.465 1_554 S
C154 C149 1.399 . S
C154 C153 1.394 1_565 S
C154 C155 1.516 1_554 S
C155 C154 1.516 1_556 S
C155 C156 1.502 . S
C155 C157 1.561 . S
C155 C158 1.526 . S
C156 H140 0.959 . S
C156 H141 0.959 . S
C156 H142 0.961 . S
C156 C155 1.502 . S
C157 H143 0.960 . S
C157 H144 0.961 . S
C157 H145 0.973 . S
C157 C155 1.561 . S
C158 C155 1.526 . S
C158 C159 1.396 1_565 S
C158 C163 1.390 . S
C159 C153 1.465 1_556 S
C159 C158 1.396 1_545 S
C159 C160 1.399 . S
C160 H146 0.929 . S
C160 C159 1.399 . S
C160 C161 1.385 . S
C161 H147 0.931 . S
C161 C160 1.385 . S
C161 C162 1.389 1_545 S
C162 C161 1.389 1_565 S
C162 C163 1.387 . S
C163 H148 0.930 . S
C163 C158 1.390 . S
C163 C162 1.387 . S
H164 C176 0.930 . S
H165 C178 0.930 . S
H166 C179 0.930 . S
H167 C183 0.959 . S
H168 C183 0.959 . S
H169 C183 0.961 . S
H170 C184 0.960 . S
H171 C184 0.961 . S
H172 C184 0.959 . S
H173 C187 0.929 . S
H174 C188 0.931 1_556 S
H175 C190 0.930 . S
C176 H164 0.930 . S
C176 C177 1.399 . S
C176 C181 1.399 . S
C177 C176 1.399 . S
C177 C178 1.376 . S
C178 H165 0.930 . S
C178 C177 1.376 . S
C178 C179 1.388 . S
C179 H166 0.930 . S
C179 C178 1.388 . S
C179 C180 1.390 . S
C180 C179 1.390 . S
C180 C181 1.394 . S
C180 C186 1.465 . S
C181 C176 1.399 . S
C181 C180 1.394 . S
C181 C182 1.516 . S
C182 C181 1.516 . S
C182 C183 1.502 . S
C182 C184 1.561 . S
C182 C185 1.526 . S
C183 H167 0.959 . S
C183 H168 0.959 . S
C183 H169 0.961 . S
C183 C182 1.502 . S
C184 H170 0.960 . S
C184 H171 0.961 . S
C184 H172 0.959 . S
C184 C182 1.561 . S
C185 C182 1.526 . S
C185 C186 1.396 . S
C185 C190 1.390 . S
C186 C180 1.465 . S
C186 C185 1.396 . S
C186 C187 1.399 . S
C187 H173 0.929 . S
C187 C186 1.399 . S
C187 C188 1.385 . S
C188 H174 0.931 1_554 S
C188 C187 1.385 . S
C188 C189 1.389 . S
C189 C188 1.389 . S
C189 C190 1.387 . S
C190 H175 0.930 . S
C190 C185 1.390 . S
C190 C189 1.387 . S
H191 C203 0.930 . S
H192 C205 0.930 . S
H193 C206 0.930 . S
H194 C210 0.959 . S
H195 C210 0.959 . S
H196 C210 0.961 . S
H197 C211 0.960 . S
H198 C211 0.961 . S
H199 C211 0.959 . S
H200 C214 0.929 . S
H201 C215 0.931 . S
H202 C217 0.930 . S
C203 H191 0.930 . S
C203 C204 1.399 . S
C203 C208 1.399 . S
C204 C203 1.399 . S
C204 C205 1.376 . S
C205 H192 0.930 . S
C205 C204 1.376 . S
C205 C206 1.388 . S
C206 H193 0.930 . S
C206 C205 1.388 . S
C206 C207 1.390 . S
C207 C206 1.390 . S
C207 C208 1.394 . S
C207 C213 1.465 . S
C208 C203 1.399 . S
C208 C207 1.394 . S
C208 C209 1.516 . S
C209 C208 1.516 . S
C209 C210 1.502 . S
C209 C211 1.561 . S
C209 C212 1.526 . S
C210 H194 0.959 . S
C210 H195 0.959 . S
C210 H196 0.961 . S
C210 C209 1.502 . S
C211 H197 0.960 . S
C211 H198 0.961 . S
C211 H199 0.959 . S
C211 C209 1.561 . S
C212 C209 1.526 . S
C212 C213 1.396 . S
C212 C217 1.390 . S
C213 C207 1.465 . S
C213 C212 1.396 . S
C213 C214 1.399 . S
C214 H200 0.929 . S
C214 C213 1.399 . S
C214 C215 1.385 . S
C215 H201 0.931 . S
C215 C214 1.385 . S
C215 C216 1.389 . S
C216 C215 1.389 . S
C216 C217 1.387 . S
C217 H202 0.930 . S
C217 C212 1.390 . S
C217 C216 1.387 . S
H218 C230 0.930 . S
H219 C232 0.930 . S
H220 C233 0.930 . S
H221 C237 0.959 . S
H222 C237 0.959 . S
H223 C237 0.961 . S
H224 C238 0.960 . S
H225 C238 0.961 . S
H226 C238 0.959 . S
H227 C241 0.929 . S
H228 C242 0.931 . S
H229 C244 0.930 . S
C230 H218 0.930 . S
C230 C231 1.399 . S
C230 C235 1.399 . S
C231 C230 1.399 . S
C231 C232 1.376 . S
C232 H219 0.930 . S
C232 C231 1.376 . S
C232 C233 1.388 . S
C233 H220 0.930 . S
C233 C232 1.388 . S
C233 C234 1.390 . S
C234 C233 1.390 . S
C234 C235 1.394 . S
C234 C240 1.465 . S
C235 C230 1.399 . S
C235 C234 1.394 . S
C235 C236 1.516 . S
C236 C235 1.516 . S
C236 C237 1.502 . S
C236 C238 1.561 . S
C236 C239 1.526 . S
C237 H221 0.959 . S
C237 H222 0.959 . S
C237 H223 0.961 . S
C237 C236 1.502 . S
C238 H224 0.960 . S
C238 H225 0.961 . S
C238 H226 0.959 . S
C238 C236 1.561 . S
C239 C236 1.526 . S
C239 C240 1.396 . S
C239 C244 1.390 . S
C240 C234 1.465 . S
C240 C239 1.396 . S
C240 C241 1.399 . S
C241 H227 0.929 . S
C241 C240 1.399 . S
C241 C242 1.385 . S
C242 H228 0.931 . S
C242 C241 1.385 . S
C242 C243 1.389 . S
C243 C242 1.389 . S
C243 C244 1.387 . S
C244 H229 0.930 . S
C244 C239 1.390 . S
C244 C243 1.387 . S
H245 C257 0.930 . S
H246 C259 0.930 . S
H247 C260 0.930 . S
H248 C264 0.959 . S
H249 C264 0.959 1_554 S
H250 C264 0.961 . S
H251 C265 0.960 1_554 S
H252 C265 0.961 1_554 S
H253 C265 0.959 . S
H254 C268 0.929 . S
H255 C269 0.931 . S
H256 C271 0.930 . S
C257 H245 0.930 . S
C257 C258 1.399 . S
C257 C262 1.399 . S
C258 C257 1.399 . S
C258 C259 1.376 . S
C259 H246 0.930 . S
C259 C258 1.376 . S
C259 C260 1.388 . S
C260 H247 0.930 . S
C260 C259 1.388 . S
C260 C261 1.390 . S
C261 C260 1.390 . S
C261 C262 1.394 . S
C261 C267 1.465 . S
C262 C257 1.399 . S
C262 C261 1.394 . S
C262 C263 1.516 . S
C263 C262 1.516 . S
C263 C264 1.502 . S
C263 C265 1.561 . S
C263 C266 1.526 . S
C264 H248 0.959 . S
C264 H249 0.959 1_556 S
C264 H250 0.961 . S
C264 C263 1.502 . S
C265 H251 0.960 1_556 S
C265 H252 0.961 1_556 S
C265 H253 0.959 . S
C265 C263 1.561 . S
C266 C263 1.526 . S
C266 C267 1.396 . S
C266 C271 1.390 . S
C267 C261 1.465 . S
C267 C266 1.396 . S
C267 C268 1.399 . S
C268 H254 0.929 . S
C268 C267 1.399 . S
C268 C269 1.385 . S
C269 H255 0.931 . S
C269 C268 1.385 . S
C269 C270 1.389 . S
C270 C269 1.389 . S
C270 C271 1.387 . S
C271 H256 0.930 . S
C271 C266 1.390 . S
C271 C270 1.387 . S
C69 C9 1.657 . S
C81 C36 1.640 . S
C96 C22 1.629 . S
C108 C51 1.652 . S
C123 C8 1.619 . S
C135 C37 1.615 . S
C150 C23 1.662 . S
C162 C50 1.647 . S
C177 C21 1.486 . S
C189 C7 1.447 . S
C204 C20 1.429 . S
C216 C34 1.466 . S
C231 C49 1.431 . S
C243 C35 1.460 . S
C258 C48 1.429 . S
C270 C6 1.472 . S
