# Generated by pormake.
# Topology sst, (4)-cn, num edge types: 1
# Building blocks:
#     Node 0, Type 0, BuildingBlock: MUDLON_clean_sbu_0, # of connection points: 4
#     Node 1, Type 0, BuildingBlock: MUDLON_clean_sbu_0, # of connection points: 4
#     Node 2, Type 0, BuildingBlock: MUDLON_clean_sbu_0, # of connection points: 4
#     Node 3, Type 0, BuildingBlock: MUDLON_clean_sbu_0, # of connection points: 4
#     Node 4, Type 0, BuildingBlock: MUDLON_clean_sbu_0, # of connection points: 4
#     Node 5, Type 0, BuildingBlock: MUDLON_clean_sbu_0, # of connection points: 4
#     Node 6, Type 0, BuildingBlock: MUDLON_clean_sbu_0, # of connection points: 4
#     Node 7, Type 0, BuildingBlock: MUDLON_clean_sbu_0, # of connection points: 4
#     Node 8, Type 0, BuildingBlock: MUDLON_clean_sbu_0, # of connection points: 4
#     Node 9, Type 0, BuildingBlock: MUDLON_clean_sbu_0, # of connection points: 4
#     Node 10, Type 0, BuildingBlock: MUDLON_clean_sbu_0, # of connection points: 4
#     Node 11, Type 0, BuildingBlock: MUDLON_clean_sbu_0, # of connection points: 4
#     Node 12, Type 0, BuildingBlock: MUDLON_clean_sbu_0, # of connection points: 4
#     Node 13, Type 0, BuildingBlock: MUDLON_clean_sbu_0, # of connection points: 4
#     Node 14, Type 0, BuildingBlock: MUDLON_clean_sbu_0, # of connection points: 4
#     Node 15, Type 0, BuildingBlock: MUDLON_clean_sbu_0, # of connection points: 4
#     Node 16, Type 0, BuildingBlock: MUDLON_clean_sbu_0, # of connection points: 4
#     Node 17, Type 0, BuildingBlock: MUDLON_clean_sbu_0, # of connection points: 4
#     Node 18, Type 0, BuildingBlock: MUDLON_clean_sbu_0, # of connection points: 4
#     Node 19, Type 0, BuildingBlock: MUDLON_clean_sbu_0, # of connection points: 4
#     Node 20, Type 0, BuildingBlock: MUDLON_clean_sbu_0, # of connection points: 4
#     Node 21, Type 0, BuildingBlock: MUDLON_clean_sbu_0, # of connection points: 4
#     Node 22, Type 0, BuildingBlock: MUDLON_clean_sbu_0, # of connection points: 4
#     Node 23, Type 0, BuildingBlock: MUDLON_clean_sbu_0, # of connection points: 4
#     Node 24, Type 0, BuildingBlock: MUDLON_clean_sbu_0, # of connection points: 4
#     Node 25, Type 0, BuildingBlock: MUDLON_clean_sbu_0, # of connection points: 4
#     Node 26, Type 0, BuildingBlock: MUDLON_clean_sbu_0, # of connection points: 4
#     Node 27, Type 0, BuildingBlock: MUDLON_clean_sbu_0, # of connection points: 4
#     Node 28, Type 0, BuildingBlock: MUDLON_clean_sbu_0, # of connection points: 4
#     Node 29, Type 0, BuildingBlock: MUDLON_clean_sbu_0, # of connection points: 4
#     Node 30, Type 0, BuildingBlock: MUDLON_clean_sbu_0, # of connection points: 4
#     Node 31, Type 0, BuildingBlock: MUDLON_clean_sbu_0, # of connection points: 4
#     Node 32, Type 0, BuildingBlock: MUDLON_clean_sbu_0, # of connection points: 4
#     Node 33, Type 0, BuildingBlock: MUDLON_clean_sbu_0, # of connection points: 4
#     Node 34, Type 0, BuildingBlock: MUDLON_clean_sbu_0, # of connection points: 4
#     Node 35, Type 0, BuildingBlock: MUDLON_clean_sbu_0, # of connection points: 4
#     Node 36, Type 0, BuildingBlock: MUDLON_clean_sbu_0, # of connection points: 4
#     Node 37, Type 0, BuildingBlock: MUDLON_clean_sbu_0, # of connection points: 4
#     Node 38, Type 0, BuildingBlock: MUDLON_clean_sbu_0, # of connection points: 4
#     Node 39, Type 0, BuildingBlock: MUDLON_clean_sbu_0, # of connection points: 4
#     Node 40, Type 0, BuildingBlock: MUDLON_clean_sbu_0, # of connection points: 4
#     Node 41, Type 0, BuildingBlock: MUDLON_clean_sbu_0, # of connection points: 4
#     Node 42, Type 0, BuildingBlock: MUDLON_clean_sbu_0, # of connection points: 4
#     Node 43, Type 0, BuildingBlock: MUDLON_clean_sbu_0, # of connection points: 4
#     Node 44, Type 0, BuildingBlock: MUDLON_clean_sbu_0, # of connection points: 4
#     Node 45, Type 0, BuildingBlock: MUDLON_clean_sbu_0, # of connection points: 4
#     Node 46, Type 0, BuildingBlock: MUDLON_clean_sbu_0, # of connection points: 4
#     Node 47, Type 0, BuildingBlock: MUDLON_clean_sbu_0, # of connection points: 4
#     Edge 48, Type (0, 0), BuildingBlock: XIVTED_clean_linker_0, # of connection points: 2
#     Edge 49, Type (0, 0), BuildingBlock: XIVTED_clean_linker_0, # of connection points: 2
#     Edge 50, Type (0, 0), BuildingBlock: XIVTED_clean_linker_0, # of connection points: 2
#     Edge 51, Type (0, 0), BuildingBlock: XIVTED_clean_linker_0, # of connection points: 2
#     Edge 52, Type (0, 0), BuildingBlock: XIVTED_clean_linker_0, # of connection points: 2
#     Edge 53, Type (0, 0), BuildingBlock: XIVTED_clean_linker_0, # of connection points: 2
#     Edge 54, Type (0, 0), BuildingBlock: XIVTED_clean_linker_0, # of connection points: 2
#     Edge 55, Type (0, 0), BuildingBlock: XIVTED_clean_linker_0, # of connection points: 2
#     Edge 56, Type (0, 0), BuildingBlock: XIVTED_clean_linker_0, # of connection points: 2
#     Edge 57, Type (0, 0), BuildingBlock: XIVTED_clean_linker_0, # of connection points: 2
#     Edge 58, Type (0, 0), BuildingBlock: XIVTED_clean_linker_0, # of connection points: 2
#     Edge 59, Type (0, 0), BuildingBlock: XIVTED_clean_linker_0, # of connection points: 2
#     Edge 60, Type (0, 0), BuildingBlock: XIVTED_clean_linker_0, # of connection points: 2
#     Edge 61, Type (0, 0), BuildingBlock: XIVTED_clean_linker_0, # of connection points: 2
#     Edge 62, Type (0, 0), BuildingBlock: XIVTED_clean_linker_0, # of connection points: 2
#     Edge 63, Type (0, 0), BuildingBlock: XIVTED_clean_linker_0, # of connection points: 2
#     Edge 64, Type (0, 0), BuildingBlock: XIVTED_clean_linker_0, # of connection points: 2
#     Edge 65, Type (0, 0), BuildingBlock: XIVTED_clean_linker_0, # of connection points: 2
#     Edge 66, Type (0, 0), BuildingBlock: XIVTED_clean_linker_0, # of connection points: 2
#     Edge 67, Type (0, 0), BuildingBlock: XIVTED_clean_linker_0, # of connection points: 2
#     Edge 68, Type (0, 0), BuildingBlock: XIVTED_clean_linker_0, # of connection points: 2
#     Edge 69, Type (0, 0), BuildingBlock: XIVTED_clean_linker_0, # of connection points: 2
#     Edge 70, Type (0, 0), BuildingBlock: XIVTED_clean_linker_0, # of connection points: 2
#     Edge 71, Type (0, 0), BuildingBlock: XIVTED_clean_linker_0, # of connection points: 2
#     Edge 72, Type (0, 0), BuildingBlock: XIVTED_clean_linker_0, # of connection points: 2
#     Edge 73, Type (0, 0), BuildingBlock: XIVTED_clean_linker_0, # of connection points: 2
#     Edge 74, Type (0, 0), BuildingBlock: XIVTED_clean_linker_0, # of connection points: 2
#     Edge 75, Type (0, 0), BuildingBlock: XIVTED_clean_linker_0, # of connection points: 2
#     Edge 76, Type (0, 0), BuildingBlock: XIVTED_clean_linker_0, # of connection points: 2
#     Edge 77, Type (0, 0), BuildingBlock: XIVTED_clean_linker_0, # of connection points: 2
#     Edge 78, Type (0, 0), BuildingBlock: XIVTED_clean_linker_0, # of connection points: 2
#     Edge 79, Type (0, 0), BuildingBlock: XIVTED_clean_linker_0, # of connection points: 2
#     Edge 80, Type (0, 0), BuildingBlock: XIVTED_clean_linker_0, # of connection points: 2
#     Edge 81, Type (0, 0), BuildingBlock: XIVTED_clean_linker_0, # of connection points: 2
#     Edge 82, Type (0, 0), BuildingBlock: XIVTED_clean_linker_0, # of connection points: 2
#     Edge 83, Type (0, 0), BuildingBlock: XIVTED_clean_linker_0, # of connection points: 2
#     Edge 84, Type (0, 0), BuildingBlock: XIVTED_clean_linker_0, # of connection points: 2
#     Edge 85, Type (0, 0), BuildingBlock: XIVTED_clean_linker_0, # of connection points: 2
#     Edge 86, Type (0, 0), BuildingBlock: XIVTED_clean_linker_0, # of connection points: 2
#     Edge 87, Type (0, 0), BuildingBlock: XIVTED_clean_linker_0, # of connection points: 2
#     Edge 88, Type (0, 0), BuildingBlock: XIVTED_clean_linker_0, # of connection points: 2
#     Edge 89, Type (0, 0), BuildingBlock: XIVTED_clean_linker_0, # of connection points: 2
#     Edge 90, Type (0, 0), BuildingBlock: XIVTED_clean_linker_0, # of connection points: 2
#     Edge 91, Type (0, 0), BuildingBlock: XIVTED_clean_linker_0, # of connection points: 2
#     Edge 92, Type (0, 0), BuildingBlock: XIVTED_clean_linker_0, # of connection points: 2
#     Edge 93, Type (0, 0), BuildingBlock: XIVTED_clean_linker_0, # of connection points: 2
#     Edge 94, Type (0, 0), BuildingBlock: XIVTED_clean_linker_0, # of connection points: 2
#     Edge 95, Type (0, 0), BuildingBlock: XIVTED_clean_linker_0, # of connection points: 2
#     Edge 96, Type (0, 0), BuildingBlock: XIVTED_clean_linker_0, # of connection points: 2
#     Edge 97, Type (0, 0), BuildingBlock: XIVTED_clean_linker_0, # of connection points: 2
#     Edge 98, Type (0, 0), BuildingBlock: XIVTED_clean_linker_0, # of connection points: 2
#     Edge 99, Type (0, 0), BuildingBlock: XIVTED_clean_linker_0, # of connection points: 2
#     Edge 100, Type (0, 0), BuildingBlock: XIVTED_clean_linker_0, # of connection points: 2
#     Edge 101, Type (0, 0), BuildingBlock: XIVTED_clean_linker_0, # of connection points: 2
#     Edge 102, Type (0, 0), BuildingBlock: XIVTED_clean_linker_0, # of connection points: 2
#     Edge 103, Type (0, 0), BuildingBlock: XIVTED_clean_linker_0, # of connection points: 2
#     Edge 104, Type (0, 0), BuildingBlock: XIVTED_clean_linker_0, # of connection points: 2
#     Edge 105, Type (0, 0), BuildingBlock: XIVTED_clean_linker_0, # of connection points: 2
#     Edge 106, Type (0, 0), BuildingBlock: XIVTED_clean_linker_0, # of connection points: 2
#     Edge 107, Type (0, 0), BuildingBlock: XIVTED_clean_linker_0, # of connection points: 2
#     Edge 108, Type (0, 0), BuildingBlock: XIVTED_clean_linker_0, # of connection points: 2
#     Edge 109, Type (0, 0), BuildingBlock: XIVTED_clean_linker_0, # of connection points: 2
#     Edge 110, Type (0, 0), BuildingBlock: XIVTED_clean_linker_0, # of connection points: 2
#     Edge 111, Type (0, 0), BuildingBlock: XIVTED_clean_linker_0, # of connection points: 2
#     Edge 112, Type (0, 0), BuildingBlock: XIVTED_clean_linker_0, # of connection points: 2
#     Edge 113, Type (0, 0), BuildingBlock: XIVTED_clean_linker_0, # of connection points: 2
#     Edge 114, Type (0, 0), BuildingBlock: XIVTED_clean_linker_0, # of connection points: 2
#     Edge 115, Type (0, 0), BuildingBlock: XIVTED_clean_linker_0, # of connection points: 2
#     Edge 116, Type (0, 0), BuildingBlock: XIVTED_clean_linker_0, # of connection points: 2
#     Edge 117, Type (0, 0), BuildingBlock: XIVTED_clean_linker_0, # of connection points: 2
#     Edge 118, Type (0, 0), BuildingBlock: XIVTED_clean_linker_0, # of connection points: 2
#     Edge 119, Type (0, 0), BuildingBlock: XIVTED_clean_linker_0, # of connection points: 2
#     Edge 120, Type (0, 0), BuildingBlock: XIVTED_clean_linker_0, # of connection points: 2
#     Edge 121, Type (0, 0), BuildingBlock: XIVTED_clean_linker_0, # of connection points: 2
#     Edge 122, Type (0, 0), BuildingBlock: XIVTED_clean_linker_0, # of connection points: 2
#     Edge 123, Type (0, 0), BuildingBlock: XIVTED_clean_linker_0, # of connection points: 2
#     Edge 124, Type (0, 0), BuildingBlock: XIVTED_clean_linker_0, # of connection points: 2
#     Edge 125, Type (0, 0), BuildingBlock: XIVTED_clean_linker_0, # of connection points: 2
#     Edge 126, Type (0, 0), BuildingBlock: XIVTED_clean_linker_0, # of connection points: 2
#     Edge 127, Type (0, 0), BuildingBlock: XIVTED_clean_linker_0, # of connection points: 2
#     Edge 128, Type (0, 0), BuildingBlock: XIVTED_clean_linker_0, # of connection points: 2
#     Edge 129, Type (0, 0), BuildingBlock: XIVTED_clean_linker_0, # of connection points: 2
#     Edge 130, Type (0, 0), BuildingBlock: XIVTED_clean_linker_0, # of connection points: 2
#     Edge 131, Type (0, 0), BuildingBlock: XIVTED_clean_linker_0, # of connection points: 2
#     Edge 132, Type (0, 0), BuildingBlock: XIVTED_clean_linker_0, # of connection points: 2
#     Edge 133, Type (0, 0), BuildingBlock: XIVTED_clean_linker_0, # of connection points: 2
#     Edge 134, Type (0, 0), BuildingBlock: XIVTED_clean_linker_0, # of connection points: 2
#     Edge 135, Type (0, 0), BuildingBlock: XIVTED_clean_linker_0, # of connection points: 2
#     Edge 136, Type (0, 0), BuildingBlock: XIVTED_clean_linker_0, # of connection points: 2
#     Edge 137, Type (0, 0), BuildingBlock: XIVTED_clean_linker_0, # of connection points: 2
#     Edge 138, Type (0, 0), BuildingBlock: XIVTED_clean_linker_0, # of connection points: 2
#     Edge 139, Type (0, 0), BuildingBlock: XIVTED_clean_linker_0, # of connection points: 2
#     Edge 140, Type (0, 0), BuildingBlock: XIVTED_clean_linker_0, # of connection points: 2
#     Edge 141, Type (0, 0), BuildingBlock: XIVTED_clean_linker_0, # of connection points: 2
#     Edge 142, Type (0, 0), BuildingBlock: XIVTED_clean_linker_0, # of connection points: 2
#     Edge 143, Type (0, 0), BuildingBlock: XIVTED_clean_linker_0, # of connection points: 2
# Relax obj value: 0.001
# Max RMSD: 0.020
# Mean RMSD: 0.015
data_MOF--net-sst--node1-MUDLON_clean_sbu_0--edge1-XIVTED_clean_linker_0
_symmetry_space_group_name_H-M    P1
_symmetry_Int_Tables_number       1
_symmetry_cell_setting            triclinic
loop_
_symmetry_equiv_pos_as_xyz
'x, y, z'
_cell_length_a     60.619227
_cell_length_b     60.535982
_cell_length_c     60.669469
_cell_angle_alpha  91.472227
_cell_angle_beta   91.214349
_cell_angle_gamma 91.38292
loop_
_atom_site_label
_atom_site_type_symbol
_atom_site_fract_x
_atom_site_fract_y
_atom_site_fract_z
_atom_type_partial_charge
Mg0 Mg 0.13487 0.13352 0.36082 0.0
C1 C 0.12131 0.17639 0.38314 0.0
O2 O 0.10178 0.16882 0.37631 0.0
C3 C 0.14148 0.08621 0.36437 0.0
O4 O 0.14692 0.09131 0.34425 0.0
C5 C 0.08976 0.12062 0.3401 0.0
O6 O 0.0948 0.1017 0.3488 0.0
O7 O 0.10417 0.13635 0.34085 0.0
O8 O 0.13784 0.16401 0.38102 0.0
O9 O 0.1673 0.13199 0.34564 0.0
C10 C 0.18099 0.14827 0.34574 0.0
O11 O 0.174 0.16823 0.35018 0.0
O12 O 0.13422 0.10142 0.37705 0.0
Mg13 Mg 0.89035 0.15889 0.36097 0.0
C14 C 0.89119 0.20546 0.35728 0.0
O15 O 0.88814 0.1958 0.33775 0.0
C16 C 0.87988 0.11349 0.3738 0.0
O17 O 0.8662 0.11753 0.35741 0.0
C18 C 0.84487 0.16597 0.36927 0.0
O19 O 0.85666 0.16894 0.38759 0.0
O20 O 0.85494 0.16035 0.3518 0.0
O21 O 0.89444 0.19312 0.37373 0.0
O22 O 0.9182 0.15592 0.33829 0.0
C23 C 0.92687 0.13727 0.33442 0.0
O24 O 0.91621 0.11925 0.34018 0.0
O25 O 0.8927 0.12917 0.3811 0.0
Mg26 Mg 0.90838 0.91072 0.42557 0.0
C27 C 0.89662 0.951 0.39871 0.0
O28 O 0.8797 0.938 0.39289 0.0
C29 C 0.92103 0.87013 0.3976 0.0
O30 O 0.94113 0.87785 0.40196 0.0
C31 C 0.86589 0.92773 0.44628 0.0
O32 O 0.87476 0.94719 0.44231 0.0
O33 O 0.87714 0.91047 0.44302 0.0
O34 O 0.91188 0.94332 0.41079 0.0
O35 O 0.93792 0.90413 0.44535 0.0
C36 C 0.95383 0.91818 0.44739 0.0
O37 O 0.95125 0.93811 0.43981 0.0
O38 O 0.90467 0.88151 0.40354 0.0
Mg39 Mg 0.15357 0.88496 0.42658 0.0
C40 C 0.1651 0.92795 0.40319 0.0
O41 O 0.18539 0.92196 0.40741 0.0
C42 C 0.15819 0.83665 0.41903 0.0
O43 O 0.16458 0.83989 0.43971 0.0
C44 C 0.10914 0.87323 0.4456 0.0
O45 O 0.11112 0.85627 0.43192 0.0
O46 O 0.1254 0.88679 0.44843 0.0
O47 O 0.14912 0.91491 0.40765 0.0
O48 O 0.18644 0.88746 0.44236 0.0
C49 C 0.20211 0.87969 0.43108 0.0
O50 O 0.19741 0.87062 0.41158 0.0
O51 O 0.15194 0.85322 0.40817 0.0
Mg52 Mg 0.16659 0.89302 0.67372 0.0
C53 C 0.14786 0.93733 0.66258 0.0
O54 O 0.12952 0.92601 0.66585 0.0
C55 C 0.1758 0.84866 0.65512 0.0
O56 O 0.1852 0.84898 0.67483 0.0
C57 C 0.12467 0.87057 0.69006 0.0
O58 O 0.13444 0.85311 0.68199 0.0
O59 O 0.13555 0.88884 0.69155 0.0
O60 O 0.16603 0.9272 0.66265 0.0
O61 O 0.19908 0.8906 0.69011 0.0
C62 C 0.21422 0.89061 0.6758 0.0
O63 O 0.20844 0.89289 0.655 0.0
O64 O 0.16611 0.86595 0.64878 0.0
Mg65 Mg 0.15642 0.1451 0.64569 0.0
C66 C 0.16893 0.19271 0.64572 0.0
O67 O 0.1737 0.18539 0.62586 0.0
C68 C 0.14183 0.10312 0.66808 0.0
O69 O 0.12245 0.11048 0.66223 0.0
C70 C 0.10883 0.15354 0.64471 0.0
O71 O 0.11619 0.16396 0.66276 0.0
O72 O 0.12273 0.14435 0.63219 0.0
O73 O 0.16177 0.17886 0.65955 0.0
O74 O 0.18348 0.1405 0.62296 0.0
C75 C 0.19313 0.12208 0.62158 0.0
O76 O 0.18384 0.10463 0.63028 0.0
O77 O 0.15877 0.11577 0.66626 0.0
Mg78 Mg 0.89953 0.12532 0.62258 0.0
C79 C 0.90917 0.17272 0.62451 0.0
O80 O 0.91468 0.16509 0.64388 0.0
C81 C 0.89312 0.07793 0.61234 0.0
O82 O 0.88515 0.08096 0.63211 0.0
C83 C 0.85218 0.11795 0.62624 0.0
O84 O 0.85657 0.11644 0.60514 0.0
O85 O 0.86808 0.12255 0.63984 0.0
O86 O 0.90114 0.1591 0.60983 0.0
O87 O 0.93192 0.12389 0.63897 0.0
C88 C 0.94635 0.12161 0.62414 0.0
O89 O 0.93955 0.1193 0.60348 0.0
O90 O 0.90021 0.09473 0.60208 0.0
Mg91 Mg 0.91681 0.87611 0.64268 0.0
C92 C 0.92682 0.92031 0.62002 0.0
O93 O 0.94714 0.91663 0.62664 0.0
C94 C 0.92452 0.82893 0.63527 0.0
O95 O 0.92742 0.83235 0.65663 0.0
C96 C 0.87292 0.88637 0.66387 0.0
O97 O 0.87908 0.90643 0.65846 0.0
O98 O 0.88621 0.87066 0.66082 0.0
O99 O 0.91176 0.90581 0.62338 0.0
O100 O 0.94786 0.87963 0.66228 0.0
C101 C 0.96473 0.87202 0.65275 0.0
O102 O 0.96234 0.86375 0.63259 0.0
O103 O 0.9195 0.84526 0.62347 0.0
Mg104 Mg 0.40706 0.17793 0.14703 0.0
C105 C 0.43244 0.21577 0.16998 0.0
O106 O 0.42205 0.20791 0.18697 0.0
C107 C 0.40392 0.12899 0.14797 0.0
O108 O 0.38759 0.1341 0.13461 0.0
C109 C 0.40918 0.18849 0.09831 0.0
O110 O 0.42267 0.20397 0.10665 0.0
O111 O 0.39883 0.176 0.11143 0.0
O112 O 0.43181 0.20456 0.15191 0.0
O113 O 0.38223 0.18857 0.17061 0.0
C114 C 0.37133 0.17501 0.1821 0.0
O115 O 0.37119 0.15393 0.17647 0.0
O116 O 0.41643 0.14454 0.15602 0.0
Mg117 Mg 0.90353 0.4049 0.12282 0.0
C118 C 0.94854 0.38856 0.13238 0.0
O119 O 0.94677 0.40507 0.14661 0.0
C120 C 0.85707 0.39395 0.10528 0.0
O121 O 0.86385 0.4071 0.08981 0.0
C122 C 0.91915 0.42688 0.08118 0.0
O123 O 0.93598 0.41409 0.08479 0.0
O124 O 0.90428 0.42817 0.09565 0.0
O125 O 0.93231 0.38361 0.11934 0.0
O126 O 0.90558 0.41839 0.15686 0.0
C127 C 0.90455 0.40339 0.17123 0.0
O128 O 0.90144 0.38278 0.16428 0.0
O129 O 0.87074 0.38859 0.12037 0.0
Mg130 Mg 0.64247 0.89744 0.16532 0.0
C131 C 0.66572 0.93334 0.13967 0.0
O132 O 0.65569 0.92259 0.1231 0.0
C133 C 0.64573 0.85015 0.17542 0.0
O134 O 0.63092 0.8574 0.18916 0.0
C135 C 0.60968 0.88233 0.12909 0.0
O136 O 0.61364 0.86306 0.13762 0.0
O137 O 0.61702 0.89974 0.13925 0.0
O138 O 0.66497 0.9252 0.15879 0.0
O139 O 0.6352 0.90145 0.20042 0.0
C140 C 0.65323 0.90367 0.21154 0.0
O141 O 0.67179 0.90471 0.20077 0.0
O142 O 0.655 0.86389 0.16275 0.0
Mg143 Mg 0.12742 0.66892 0.11432 0.0
C144 C 0.1758 0.67149 0.10636 0.0
O145 O 0.16908 0.65413 0.09441 0.0
C146 C 0.08415 0.69084 0.10281 0.0
O147 O 0.0864 0.67835 0.08505 0.0
C148 C 0.12859 0.66595 0.06562 0.0
O149 O 0.13359 0.68677 0.07051 0.0
O150 O 0.12463 0.65295 0.08137 0.0
O151 O 0.16147 0.68253 0.11678 0.0
O152 O 0.12378 0.64856 0.14359 0.0
C153 C 0.14055 0.64096 0.15356 0.0
O154 O 0.15984 0.64241 0.14419 0.0
O155 O 0.09963 0.69161 0.11742 0.0
Mg156 Mg 0.4012 0.8911 0.93948 0.0
C157 C 0.37758 0.93514 0.9433 0.0
O158 O 0.3859 0.93459 0.96344 0.0
C159 C 0.39442 0.84188 0.94806 0.0
O160 O 0.4106 0.84688 0.96217 0.0
C161 C 0.42859 0.87733 0.90041 0.0
O162 O 0.42219 0.85763 0.90668 0.0
O163 O 0.42455 0.89404 0.91269 0.0
O164 O 0.37948 0.91827 0.93052 0.0
O165 O 0.41351 0.89886 0.97328 0.0
C166 C 0.4303 0.89245 0.98414 0.0
O167 O 0.44423 0.8791 0.97467 0.0
O168 O 0.38618 0.85734 0.93683 0.0
Mg169 Mg 0.12242 0.40727 0.89534 0.0
C170 C 0.16932 0.39987 0.88438 0.0
O171 O 0.1642 0.41671 0.87222 0.0
C172 C 0.07557 0.39401 0.88937 0.0
O173 O 0.07729 0.41291 0.87933 0.0
C174 C 0.11488 0.40613 0.8474 0.0
O175 O 0.11161 0.38564 0.85345 0.0
O176 O 0.11975 0.42087 0.86221 0.0
O177 O 0.15435 0.39105 0.896 0.0
O178 O 0.12254 0.42945 0.92453 0.0
C179 C 0.14058 0.43622 0.93384 0.0
O180 O 0.15919 0.43265 0.9238 0.0
O181 O 0.0927 0.38625 0.89857 0.0
Mg182 Mg 0.63681 0.12565 0.89961 0.0
C183 C 0.65323 0.17388 0.90654 0.0
O184 O 0.64975 0.17005 0.92741 0.0
C185 C 0.66472 0.08506 0.89179 0.0
O186 O 0.66093 0.0901 0.87115 0.0
C187 C 0.61491 0.13194 0.85516 0.0
O188 O 0.61452 0.15234 0.86301 0.0
O189 O 0.62048 0.11668 0.86808 0.0
O190 O 0.65156 0.15793 0.89249 0.0
O191 O 0.61669 0.13015 0.92889 0.0
C192 C 0.61423 0.11433 0.94214 0.0
O193 O 0.6212 0.09469 0.93632 0.0
O194 O 0.65845 0.09819 0.90701 0.0
Mg195 Mg 0.87873 0.60649 0.8568 0.0
C196 C 0.91977 0.58183 0.8428 0.0
O197 O 0.91503 0.59115 0.82404 0.0
C198 C 0.8319 0.61395 0.85606 0.0
O199 O 0.84227 0.63327 0.85625 0.0
C200 C 0.87115 0.61374 0.80994 0.0
O201 O 0.86034 0.59529 0.8141 0.0
O202 O 0.8816 0.62386 0.82578 0.0
O203 O 0.906 0.58312 0.85837 0.0
O204 O 0.88368 0.62522 0.88778 0.0
C205 C 0.8824 0.61254 0.90418 0.0
O206 O 0.87831 0.59136 0.90028 0.0
O207 O 0.84353 0.59667 0.85689 0.0
Mg208 Mg 0.15155 0.40633 0.13135 0.0
C209 C 0.20011 0.39406 0.13826 0.0
O210 O 0.19488 0.396 0.15909 0.0
C211 C 0.10663 0.38973 0.13451 0.0
O212 O 0.10818 0.40788 0.14682 0.0
C213 C 0.15978 0.43968 0.09583 0.0
O214 O 0.18032 0.43644 0.10204 0.0
O215 O 0.14432 0.43172 0.10734 0.0
O216 O 0.18506 0.39574 0.12346 0.0
O217 O 0.14952 0.41335 0.1672 0.0
C218 C 0.14763 0.39552 0.17785 0.0
O219 O 0.14822 0.37666 0.16667 0.0
O220 O 0.12367 0.38321 0.12452 0.0
Mg221 Mg 0.12379 0.61065 0.85824 0.0
C222 C 0.11239 0.61221 0.8116 0.0
O223 O 0.11193 0.5913 0.8169 0.0
C224 C 0.12886 0.61742 0.90564 0.0
O225 O 0.13382 0.59677 0.90128 0.0
C226 C 0.17127 0.61174 0.84598 0.0
O227 O 0.16287 0.62796 0.83483 0.0
O228 O 0.15825 0.59957 0.85698 0.0
O229 O 0.11722 0.62668 0.82671 0.0
O230 O 0.09539 0.58701 0.85933 0.0
C231 C 0.08005 0.59083 0.87291 0.0
O232 O 0.08313 0.6067 0.88788 0.0
O233 O 0.12364 0.62955 0.88954 0.0
Mg234 Mg 0.38072 0.13827 0.89778 0.0
C235 C 0.35691 0.17586 0.92168 0.0
O236 O 0.3612 0.16424 0.93918 0.0
C237 C 0.36986 0.08925 0.89067 0.0
O238 O 0.38237 0.09259 0.87359 0.0
C239 C 0.37825 0.14623 0.84971 0.0
O240 O 0.35842 0.15012 0.857 0.0
O241 O 0.39295 0.14038 0.86361 0.0
O242 O 0.36058 0.16752 0.90263 0.0
O243 O 0.40354 0.14158 0.92626 0.0
C244 C 0.41016 0.16041 0.934 0.0
O245 O 0.40827 0.17772 0.92152 0.0
O246 O 0.36485 0.10579 0.90282 0.0
Mg247 Mg 0.87881 0.40409 0.88366 0.0
C248 C 0.91612 0.37709 0.90196 0.0
O249 O 0.90915 0.38561 0.92062 0.0
C250 C 0.8384 0.37378 0.89644 0.0
O251 O 0.85107 0.35681 0.89291 0.0
C252 C 0.87185 0.39843 0.8355 0.0
O253 O 0.86723 0.37895 0.84355 0.0
O254 O 0.87723 0.41424 0.84902 0.0
O255 O 0.90478 0.37984 0.88438 0.0
O256 O 0.89004 0.42798 0.90951 0.0
C257 C 0.87658 0.4348 0.92387 0.0
O258 O 0.85535 0.43113 0.92026 0.0
O259 O 0.84591 0.39323 0.89341 0.0
Mg260 Mg 0.63765 0.88593 0.92405 0.0
C261 C 0.67057 0.92352 0.91267 0.0
O262 O 0.67227 0.91198 0.89421 0.0
C263 C 0.63362 0.8377 0.92278 0.0
O264 O 0.61343 0.84512 0.9218 0.0
C265 C 0.6369 0.8808 0.87616 0.0
O266 O 0.65406 0.86998 0.88327 0.0
O267 O 0.62415 0.88924 0.89037 0.0
O268 O 0.65983 0.91518 0.9284 0.0
O269 O 0.6158 0.88883 0.95255 0.0
C270 C 0.6207 0.87657 0.96864 0.0
O271 O 0.63707 0.86292 0.96655 0.0
O272 O 0.64963 0.85178 0.92421 0.0
Mg273 Mg 0.883 0.67366 0.1084 0.0
C274 C 0.92477 0.69712 0.12615 0.0
O275 O 0.91955 0.68583 0.14357 0.0
C276 C 0.83666 0.67135 0.09152 0.0
O277 O 0.84511 0.65329 0.08318 0.0
C278 C 0.89246 0.6664 0.06224 0.0
O279 O 0.89224 0.68792 0.06565 0.0
O280 O 0.88974 0.65399 0.07868 0.0
O281 O 0.91112 0.69722 0.10989 0.0
O282 O 0.88155 0.65787 0.14054 0.0
C283 C 0.86895 0.6674 0.15421 0.0
O284 O 0.8576 0.68429 0.14755 0.0
O285 O 0.84935 0.685 0.10238 0.0
Mg286 Mg 0.41757 0.92214 0.19296 0.0
C287 C 0.42397 0.92105 0.1467 0.0
O288 O 0.40341 0.92581 0.15088 0.0
C289 C 0.42386 0.93893 0.24022 0.0
O290 O 0.41069 0.95378 0.23222 0.0
C291 C 0.41986 0.96937 0.18654 0.0
O292 O 0.44013 0.96289 0.19015 0.0
O293 O 0.4042 0.95493 0.18694 0.0
O294 O 0.43704 0.91769 0.163 0.0
O295 O 0.39716 0.89164 0.19091 0.0
C296 C 0.40586 0.87558 0.20085 0.0
O297 O 0.42391 0.87955 0.21281 0.0
O298 O 0.43111 0.924 0.22717 0.0
Mg299 Mg 0.63687 0.13257 0.14699 0.0
C300 C 0.63921 0.18096 0.15988 0.0
O301 O 0.62287 0.17392 0.17196 0.0
C302 C 0.66246 0.09485 0.12603 0.0
O303 O 0.65201 0.10118 0.10818 0.0
C304 C 0.61424 0.14362 0.10373 0.0
O305 O 0.62295 0.16309 0.10929 0.0
O306 O 0.61552 0.12808 0.11745 0.0
O307 O 0.64943 0.16692 0.14814 0.0
O308 O 0.62286 0.1255 0.17919 0.0
C309 C 0.63794 0.12153 0.19341 0.0
O310 O 0.65858 0.12269 0.18728 0.0
O311 O 0.66113 0.10649 0.14371 0.0
Mg312 Mg 0.62558 0.63192 0.87454 0.0
C313 C 0.64636 0.67475 0.89404 0.0
O314 O 0.66266 0.66829 0.8817 0.0
C315 C 0.61365 0.58479 0.87977 0.0
O316 O 0.60229 0.59037 0.86218 0.0
C317 C 0.58121 0.65142 0.86084 0.0
O318 O 0.59085 0.66942 0.86938 0.0
O319 O 0.59253 0.63404 0.85872 0.0
O320 O 0.62948 0.66194 0.89572 0.0
O321 O 0.65599 0.6304 0.85516 0.0
C322 C 0.66592 0.61221 0.85234 0.0
O323 O 0.65562 0.59368 0.85705 0.0
O324 O 0.62464 0.59987 0.89058 0.0
Mg325 Mg 0.37714 0.63161 0.90395 0.0
C326 C 0.36706 0.68016 0.91049 0.0
O327 O 0.35611 0.67524 0.89203 0.0
C328 C 0.36495 0.59384 0.934 0.0
O329 O 0.34558 0.60289 0.93182 0.0
C330 C 0.33542 0.62872 0.87074 0.0
O331 O 0.3474 0.63904 0.85623 0.0
O332 O 0.34399 0.62433 0.88941 0.0
O333 O 0.37711 0.66476 0.92023 0.0
O334 O 0.4064 0.6307 0.88276 0.0
C335 C 0.41772 0.64832 0.87952 0.0
O336 O 0.41003 0.6673 0.88647 0.0
O337 O 0.38167 0.60346 0.92574 0.0
Mg338 Mg 0.37601 0.38745 0.93007 0.0
C339 C 0.36153 0.4309 0.95165 0.0
O340 O 0.34198 0.42276 0.94567 0.0
C341 C 0.37126 0.34081 0.92665 0.0
O342 O 0.37255 0.34923 0.90694 0.0
C343 C 0.32888 0.38005 0.92096 0.0
O344 O 0.33268 0.37255 0.94077 0.0
O345 O 0.34502 0.3885 0.91063 0.0
O346 O 0.37823 0.41866 0.9497 0.0
O347 O 0.4077 0.38557 0.9135 0.0
C348 C 0.42108 0.4021 0.91339 0.0
O349 O 0.41428 0.42155 0.92003 0.0
O350 O 0.37327 0.35403 0.94335 0.0
Mg351 Mg 0.63124 0.37588 0.89704 0.0
C352 C 0.64167 0.42336 0.89781 0.0
O353 O 0.64687 0.41696 0.91774 0.0
C354 C 0.61972 0.32975 0.87845 0.0
O355 O 0.60114 0.33307 0.88863 0.0
C356 C 0.5847 0.38678 0.89729 0.0
O357 O 0.59261 0.39473 0.87905 0.0
O358 O 0.59773 0.37675 0.91022 0.0
O359 O 0.63552 0.40873 0.88333 0.0
O360 O 0.66132 0.37268 0.91744 0.0
C361 C 0.67699 0.36668 0.90508 0.0
O362 O 0.67296 0.36373 0.88386 0.0
O363 O 0.63324 0.34591 0.87635 0.0
Mg364 Mg 0.64653 0.39223 0.13213 0.0
C365 C 0.66072 0.43618 0.15446 0.0
O366 O 0.67978 0.43033 0.14658 0.0
C367 C 0.64878 0.34407 0.13365 0.0
O368 O 0.65438 0.34936 0.11362 0.0
C369 C 0.60991 0.41335 0.10622 0.0
O370 O 0.62214 0.43094 0.11166 0.0
O371 O 0.61733 0.39438 0.11044 0.0
O372 O 0.64446 0.42245 0.15295 0.0
O373 O 0.6794 0.39203 0.11743 0.0
C374 C 0.69417 0.38433 0.1302 0.0
O375 O 0.68831 0.37783 0.14977 0.0
O376 O 0.64359 0.35958 0.14707 0.0
Mg377 Mg 0.63133 0.64132 0.13074 0.0
C378 C 0.64013 0.68895 0.13738 0.0
O379 O 0.64422 0.68457 0.11657 0.0
C380 C 0.65038 0.59954 0.15126 0.0
O381 O 0.6689 0.60878 0.14494 0.0
C382 C 0.58938 0.65795 0.10682 0.0
O383 O 0.60117 0.67635 0.10603 0.0
O384 O 0.59843 0.64072 0.11415 0.0
O385 O 0.63313 0.67324 0.14927 0.0
O386 O 0.66205 0.6438 0.11185 0.0
C387 C 0.67798 0.65153 0.1241 0.0
O388 O 0.67449 0.65495 0.1452 0.0
O389 O 0.63247 0.60994 0.14876 0.0
Mg390 Mg 0.38579 0.66845 0.14594 0.0
C391 C 0.38229 0.7169 0.1528 0.0
O392 O 0.3742 0.71295 0.13278 0.0
C393 C 0.372 0.62391 0.16469 0.0
O394 O 0.35299 0.62929 0.15582 0.0
C395 C 0.33784 0.67642 0.14355 0.0
O396 O 0.34378 0.68215 0.1639 0.0
O397 O 0.35254 0.66914 0.13067 0.0
O398 O 0.38943 0.70066 0.16367 0.0
O399 O 0.41415 0.66479 0.12423 0.0
C400 C 0.4282 0.68042 0.1215 0.0
O401 O 0.42404 0.70028 0.1293 0.0
O402 O 0.38798 0.63799 0.16489 0.0
Mg403 Mg 0.40996 0.41959 0.13998 0.0
C404 C 0.39123 0.46061 0.16303 0.0
O405 O 0.37309 0.44828 0.16191 0.0
C406 C 0.42697 0.37579 0.14578 0.0
O407 O 0.42538 0.37882 0.12445 0.0
C408 C 0.36206 0.41931 0.11861 0.0
O409 O 0.36803 0.43774 0.10917 0.0
O410 O 0.37614 0.40918 0.13021 0.0
O411 O 0.40921 0.4523 0.15666 0.0
O412 O 0.43539 0.42124 0.11477 0.0
C413 C 0.44978 0.43693 0.11571 0.0
O414 O 0.44656 0.454 0.12895 0.0
O415 O 0.42125 0.39139 0.15884 0.0
Mg416 Mg 0.90074 0.625 0.60308 0.0
C417 C 0.91495 0.67039 0.58803 0.0
O418 O 0.89927 0.66567 0.57328 0.0
C419 C 0.92759 0.58779 0.62139 0.0
O420 O 0.9276 0.60141 0.6386 0.0
C421 C 0.88168 0.61569 0.55701 0.0
O422 O 0.89917 0.60331 0.55623 0.0
O423 O 0.87724 0.62545 0.57516 0.0
O424 O 0.92072 0.65552 0.60132 0.0
O425 O 0.88505 0.62726 0.6352 0.0
C426 C 0.89428 0.63976 0.6501 0.0
O427 O 0.91174 0.6517 0.64507 0.0
O428 O 0.91868 0.59386 0.60338 0.0
Mg429 Mg 0.42524 0.88957 0.68998 0.0
C430 C 0.46953 0.86964 0.69332 0.0
O431 O 0.47105 0.88674 0.70709 0.0
C432 C 0.37759 0.88561 0.7016 0.0
O433 O 0.38537 0.90012 0.71643 0.0
C434 C 0.44307 0.91707 0.65227 0.0
O435 O 0.46129 0.90696 0.65756 0.0
O436 O 0.42625 0.91451 0.66426 0.0
O437 O 0.45138 0.86589 0.68269 0.0
O438 O 0.43097 0.89915 0.72489 0.0
C439 C 0.43148 0.88201 0.73666 0.0
O440 O 0.4284 0.86258 0.72675 0.0
O441 O 0.39096 0.87694 0.6881 0.0
Mg442 Mg 0.14193 0.40229 0.63928 0.0
C443 C 0.11913 0.38346 0.59745 0.0
O444 O 0.12508 0.36489 0.60631 0.0
C445 C 0.13826 0.4148 0.68628 0.0
O446 O 0.15904 0.41899 0.68182 0.0
C447 C 0.15208 0.44974 0.64149 0.0
O448 O 0.13179 0.44761 0.64843 0.0
O449 O 0.16237 0.43243 0.63589 0.0
O450 O 0.12213 0.40144 0.60856 0.0
O451 O 0.15822 0.37022 0.64197 0.0
C452 C 0.14909 0.35633 0.65461 0.0
O453 O 0.13174 0.36243 0.66562 0.0
O454 O 0.12537 0.40735 0.6708 0.0
Mg455 Mg 0.64347 0.10924 0.64588 0.0
C456 C 0.69114 0.10761 0.65691 0.0
O457 O 0.68454 0.12522 0.66775 0.0
C458 C 0.5974 0.09392 0.65278 0.0
O459 O 0.59976 0.11159 0.66565 0.0
C460 C 0.62685 0.13059 0.60381 0.0
O461 O 0.60765 0.12401 0.61123 0.0
O462 O 0.644 0.12891 0.61607 0.0
O463 O 0.67676 0.09564 0.64619 0.0
O464 O 0.64011 0.12413 0.67906 0.0
C465 C 0.64128 0.10925 0.69353 0.0
O466 O 0.64548 0.08898 0.68684 0.0
O467 O 0.6138 0.08753 0.64163 0.0
Mg468 Mg 0.901 0.41369 0.37915 0.0
C469 C 0.88702 0.45838 0.39671 0.0
O470 O 0.89409 0.44991 0.41519 0.0
C471 C 0.87997 0.3708 0.36159 0.0
O472 O 0.88576 0.37951 0.3429 0.0
C473 C 0.91841 0.42856 0.33514 0.0
O474 O 0.91095 0.44744 0.3426 0.0
O475 O 0.91894 0.41224 0.34802 0.0
O476 O 0.88523 0.44593 0.37949 0.0
O477 O 0.91853 0.41251 0.41093 0.0
C478 C 0.92086 0.39406 0.42019 0.0
O479 O 0.91751 0.37574 0.40839 0.0
O480 O 0.88137 0.38279 0.37913 0.0
Mg481 Mg 0.65728 0.89696 0.42292 0.0
C482 C 0.70296 0.90121 0.43541 0.0
O483 O 0.69733 0.8801 0.43443 0.0
C484 C 0.61078 0.89831 0.41339 0.0
O485 O 0.61792 0.87995 0.40434 0.0
C486 C 0.66855 0.8982 0.3764 0.0
O487 O 0.67665 0.91679 0.38524 0.0
O488 O 0.66004 0.88401 0.38905 0.0
O489 O 0.68822 0.91516 0.43085 0.0
O490 O 0.65462 0.8762 0.45172 0.0
C491 C 0.64797 0.88814 0.46776 0.0
O492 O 0.64305 0.90874 0.46402 0.0
O493 O 0.62484 0.91181 0.42252 0.0
Mg494 Mg 0.14228 0.63051 0.36604 0.0
C495 C 0.14914 0.67949 0.36163 0.0
O496 O 0.13424 0.67497 0.34603 0.0
C497 C 0.16133 0.58515 0.36027 0.0
O498 O 0.14754 0.58533 0.3433 0.0
C499 C 0.14757 0.62859 0.31787 0.0
O500 O 0.16776 0.62968 0.32624 0.0
O501 O 0.13153 0.62855 0.33112 0.0
O502 O 0.15703 0.66357 0.37241 0.0
O503 O 0.11789 0.62642 0.39189 0.0
C504 C 0.11208 0.64289 0.40372 0.0
O505 O 0.1172 0.66291 0.39738 0.0
O506 O 0.16386 0.60261 0.37236 0.0
Mg507 Mg 0.38214 0.17504 0.38742 0.0
C508 C 0.42945 0.15884 0.3967 0.0
O509 O 0.42187 0.15471 0.41634 0.0
C510 C 0.33855 0.14913 0.39181 0.0
O511 O 0.33914 0.15832 0.41167 0.0
C512 C 0.37532 0.18269 0.34224 0.0
O513 O 0.38116 0.16218 0.34513 0.0
O514 O 0.37501 0.19579 0.35907 0.0
O515 O 0.41624 0.16545 0.38183 0.0
O516 O 0.37877 0.1856 0.42227 0.0
C517 C 0.39402 0.19434 0.43469 0.0
O518 O 0.41253 0.20102 0.42582 0.0
O519 O 0.35556 0.15063 0.37993 0.0
Mg520 Mg 0.66271 0.85819 0.6764 0.0
C521 C 0.66862 0.8586 0.62848 0.0
O522 O 0.68006 0.84168 0.63493 0.0
C523 C 0.63761 0.88194 0.71272 0.0
O524 O 0.6206 0.87224 0.70242 0.0
C525 C 0.7094 0.86876 0.6824 0.0
O526 O 0.69883 0.88747 0.68294 0.0
O527 O 0.69799 0.85082 0.6801 0.0
O528 O 0.65919 0.87039 0.64304 0.0
O529 O 0.63615 0.83336 0.6802 0.0
C530 C 0.62194 0.82996 0.6646 0.0
O531 O 0.62689 0.83623 0.64472 0.0
O532 O 0.65651 0.88105 0.70397 0.0
Mg533 Mg 0.63679 0.14533 0.39161 0.0
C534 C 0.61719 0.11372 0.35524 0.0
O535 O 0.59822 0.11792 0.36432 0.0
C536 C 0.63101 0.14924 0.43972 0.0
O537 O 0.62275 0.16736 0.43185 0.0
C538 C 0.6828 0.1663 0.39764 0.0
O539 O 0.67869 0.16232 0.41836 0.0
O540 O 0.66746 0.16294 0.3832 0.0
O541 O 0.63501 0.11997 0.36528 0.0
O542 O 0.6052 0.16217 0.39019 0.0
C543 C 0.59323 0.16642 0.37342 0.0
O544 O 0.60135 0.16405 0.35361 0.0
O545 O 0.63917 0.13527 0.42625 0.0
Mg546 Mg 0.87623 0.66234 0.36647 0.0
C547 C 0.9004 0.70775 0.36111 0.0
O548 O 0.90425 0.70018 0.34111 0.0
C549 C 0.89736 0.62388 0.38861 0.0
O550 O 0.89234 0.63553 0.40628 0.0
C551 C 0.87923 0.65371 0.31836 0.0
O552 O 0.89817 0.64703 0.32633 0.0
O553 O 0.86521 0.66137 0.33176 0.0
O554 O 0.89088 0.69515 0.37467 0.0
O555 O 0.852 0.65537 0.3918 0.0
C556 C 0.8503 0.66871 0.40821 0.0
O557 O 0.85849 0.68889 0.40675 0.0
O558 O 0.89586 0.63281 0.3699 0.0
Mg559 Mg 0.40906 0.92392 0.45061 0.0
C560 C 0.44733 0.89613 0.43435 0.0
O561 O 0.4345 0.89266 0.41686 0.0
C562 C 0.3621 0.91459 0.46137 0.0
O563 O 0.36627 0.93368 0.47158 0.0
C564 C 0.40253 0.92698 0.40252 0.0
O565 O 0.39181 0.90879 0.40773 0.0
O566 O 0.41055 0.93945 0.41814 0.0
O567 O 0.4396 0.90566 0.45132 0.0
O568 O 0.41113 0.94292 0.48203 0.0
C569 C 0.42966 0.94571 0.49216 0.0
O570 O 0.44775 0.94134 0.48151 0.0
O571 O 0.37771 0.90518 0.45133 0.0
Mg572 Mg 0.1441 0.38889 0.38967 0.0
C573 C 0.13989 0.38227 0.34192 0.0
O574 O 0.156 0.36966 0.34835 0.0
C575 C 0.13203 0.38262 0.43572 0.0
O576 O 0.14938 0.37045 0.43259 0.0
C577 C 0.1693 0.43079 0.40407 0.0
O578 O 0.15691 0.42844 0.42139 0.0
O579 O 0.1697 0.41503 0.38977 0.0
O580 O 0.12946 0.39305 0.35655 0.0
O581 O 0.1522 0.3536 0.39041 0.0
C582 C 0.13451 0.34179 0.39082 0.0
O583 O 0.11558 0.35193 0.39026 0.0
O584 O 0.12463 0.39374 0.4197 0.0
Mg585 Mg 0.40342 0.13678 0.63789 0.0
C586 C 0.4011 0.14925 0.59196 0.0
O587 O 0.39526 0.12825 0.59277 0.0
C588 C 0.38906 0.15153 0.68421 0.0
O589 O 0.36973 0.15023 0.67404 0.0
C590 C 0.43809 0.10305 0.64933 0.0
O591 O 0.4289 0.10498 0.66869 0.0
O592 O 0.4297 0.1131 0.63313 0.0
O593 O 0.40719 0.1593 0.60993 0.0
O594 O 0.36954 0.12396 0.63219 0.0
C595 C 0.35635 0.13891 0.62628 0.0
O596 O 0.36402 0.15933 0.62525 0.0
O597 O 0.40632 0.14849 0.67295 0.0
Mg598 Mg 0.91297 0.38612 0.63148 0.0
C599 C 0.94252 0.42695 0.64651 0.0
O600 O 0.93865 0.42107 0.66679 0.0
C601 C 0.90814 0.33832 0.62243 0.0
O602 O 0.8896 0.34688 0.61554 0.0
C603 C 0.91472 0.38269 0.58465 0.0
O604 O 0.93315 0.3753 0.59317 0.0
O605 O 0.89989 0.38928 0.59775 0.0
O606 O 0.93691 0.41378 0.63058 0.0
O607 O 0.89292 0.38989 0.66124 0.0
C608 C 0.88842 0.40799 0.67118 0.0
O609 O 0.89278 0.42678 0.66162 0.0
O610 O 0.92303 0.3513 0.63108 0.0
Mg611 Mg 0.13511 0.64718 0.60864 0.0
C612 C 0.11456 0.62799 0.56574 0.0
O613 O 0.1234 0.60997 0.57321 0.0
C614 C 0.10997 0.63047 0.64836 0.0
O615 O 0.10968 0.6119 0.63664 0.0
C616 C 0.14257 0.69495 0.60099 0.0
O617 O 0.12294 0.69094 0.59199 0.0
O618 O 0.1531 0.67889 0.60892 0.0
O619 O 0.1154 0.64548 0.57788 0.0
O620 O 0.15508 0.61756 0.60943 0.0
C621 C 0.16302 0.61084 0.62758 0.0
O622 O 0.16176 0.62363 0.64531 0.0
O623 O 0.11765 0.64795 0.63984 0.0
H624 H 0.19342 0.95627 0.38292 0.0
H625 H 0.11993 0.06325 0.39681 0.0
H626 H 0.12756 0.95198 0.40832 0.0
H627 H 0.17021 0.05682 0.34795 0.0
H628 H 0.12492 0.02416 0.40603 0.0
H629 H 0.18751 0.99496 0.37432 0.0
C630 C 0.17766 0.96343 0.38655 0.0
C631 C 0.16092 0.95081 0.3962 0.0
C632 C 0.13481 0.03142 0.39331 0.0
C633 C 0.15421 0.9953 0.38685 0.0
C634 C 0.13209 0.0537 0.38818 0.0
C635 C 0.14462 0.06325 0.37155 0.0
C636 C 0.15049 1.01889 0.38204 0.0
C637 C 0.16007 0.05011 0.36077 0.0
C638 C 0.1743 0.98553 0.38167 0.0
C639 C 0.14083 0.96103 0.40065 0.0
N640 N 0.16264 0.02872 0.36627 0.0
N641 N 0.13809 0.98275 0.39613 0.0
H642 H 0.06882 0.16008 0.33377 0.0
H643 H 0.94942 0.10031 0.32289 0.0
H644 H 0.05741 0.08944 0.33065 0.0
H645 H 0.95849 0.17082 0.3326 0.0
H646 H 0.9892 0.09696 0.31948 0.0
H647 H 0.02909 0.16512 0.32748 0.0
C648 C 0.05807 0.14563 0.33136 0.0
C649 C 0.06652 0.12428 0.33289 0.0
C650 C 0.98254 0.11323 0.32211 0.0
C651 C 0.02098 0.12995 0.32583 0.0
C652 C 0.95973 0.11518 0.32397 0.0
C653 C 0.95048 0.13586 0.32824 0.0
C654 C 0.99645 0.13208 0.32466 0.0
C655 C 0.96482 0.15452 0.32936 0.0
C656 C 0.03535 0.14853 0.32789 0.0
C657 C 0.0517 0.10621 0.32978 0.0
N658 N 0.98708 0.15216 0.32786 0.0
N659 N 0.02975 0.10945 0.32655 0.0
H660 H 0.92654 0.98408 0.41198 0.0
H661 H 0.84997 0.0799 0.36685 0.0
H662 H 0.86462 0.97309 0.37652 0.0
H663 H 0.91458 0.09384 0.39582 0.0
H664 H 0.85472 0.0408 0.37293 0.0
H665 H 0.92266 0.02408 0.40781 0.0
C666 C 0.91225 0.99002 0.40315 0.0
C667 C 0.89588 0.9751 0.39457 0.0
C668 C 0.86789 0.05231 0.37811 0.0
C669 C 0.89122 0.02089 0.39005 0.0
C670 C 0.86514 0.07475 0.37473 0.0
C671 C 0.88193 0.09025 0.38076 0.0
C672 C 0.88765 0.04502 0.38758 0.0
C673 C 0.90116 0.08249 0.39101 0.0
C674 C 0.91001 1.01287 0.40088 0.0
C675 C 0.87768 0.98383 0.3834 0.0
N676 N 0.90357 0.06037 0.39397 0.0
N677 N 0.87584 1.00604 0.38157 0.0
H678 H 0.96768 0.87605 0.45449 0.0
H679 H 0.09542 0.91291 0.46284 0.0
H680 H 0.99101 0.94401 0.45572 0.0
H681 H 0.07203 0.84661 0.44594 0.0
H682 H 0.05729 0.92356 0.46901 0.0
H683 H 1.00569 0.86434 0.45999 0.0
C684 C 0.98072 0.88855 0.45631 0.0
C685 C 0.97613 0.91106 0.45438 0.0
C686 C 0.06055 0.90661 0.46426 0.0
C687 C 0.01976 0.89771 0.46059 0.0
C688 C 0.08235 0.90046 0.46088 0.0
C689 C 0.08694 0.87887 0.4536 0.0
C690 C 0.04322 0.89103 0.4605 0.0
C691 C 0.06926 0.86349 0.4513 0.0
C692 C 1.00246 0.88183 0.45935 0.0
C693 C 0.99377 0.92647 0.45688 0.0
N694 N 0.0482 0.86991 0.45453 0.0
N695 N 1.0148 0.91951 0.45966 0.0
H696 H 0.11177 0.96343 0.66263 0.0
H697 H 0.17982 0.07877 0.6695 0.0
H698 H 0.18296 0.9673 0.66268 0.0
H699 H 0.10893 0.07226 0.67314 0.0
H700 H 0.18196 0.03831 0.66805 0.0
H701 H 0.11097 1.00354 0.66616 0.0
C702 C 0.12728 0.97272 0.6632 0.0
C703 C 0.14747 0.96188 0.66235 0.0
C704 C 0.16597 0.04578 0.66937 0.0
C705 C 0.14668 1.00815 0.66668 0.0
C706 C 0.16474 0.06889 0.67037 0.0
C707 C 0.14414 0.07901 0.67131 0.0
C708 C 0.14647 0.03271 0.66929 0.0
C709 C 0.12518 0.06529 0.6723 0.0
C710 C 0.12682 0.9957 0.66535 0.0
C711 C 0.16701 0.97492 0.66321 0.0
N712 N 0.12681 0.04296 0.67109 0.0
N713 N 0.16613 0.99737 0.66538 0.0
H714 H 0.97938 0.10792 0.598 0.0
H715 H 0.0756 0.16838 0.67057 0.0
H716 H 0.96805 0.14075 0.66056 0.0
H717 H 0.08706 0.12931 0.61158 0.0
H718 H 0.03625 0.15926 0.66687 0.0
H719 H 1.0188 0.11559 0.60292 0.0
C720 C 0.98523 0.11659 0.61293 0.0
C721 C 0.97037 0.12376 0.62889 0.0
C722 C 0.04734 0.1527 0.65471 0.0
C723 C 1.01569 0.13288 0.63449 0.0
C724 C 0.06985 0.158 0.65672 0.0
C725 C 0.08473 0.14961 0.64133 0.0
C726 C 0.03954 0.13895 0.63714 0.0
C727 C 0.07624 0.1362 0.62379 0.0
C728 C 1.00779 0.121 0.61569 0.0
C729 C 0.97893 0.13483 0.64791 0.0
N730 N 0.05423 0.13129 0.62219 0.0
N731 N 1.00105 0.13922 0.6501 0.0
H732 H 0.92922 0.06034 0.59231 0.0
H733 H 0.88554 0.93644 0.61218 0.0
H734 H 0.86461 0.0432 0.61581 0.0
H735 H 0.95466 0.95475 0.60931 0.0
H736 H 0.8762 0.97438 0.60367 0.0
H737 H 0.93705 0.02068 0.5885 0.0
C738 C 0.91644 0.04823 0.59593 0.0
C739 C 0.89624 0.05497 0.60437 0.0
C740 C 0.89342 0.97003 0.60463 0.0
C741 C 0.9051 1.00983 0.60034 0.0
C742 C 0.89878 0.94832 0.60943 0.0
C743 C 0.92095 0.94239 0.61176 0.0
C744 C 0.9103 0.986 0.602 0.0
C745 C 0.93735 0.9586 0.60792 0.0
C746 C 0.92099 0.02564 0.59402 0.0
C747 C 0.8804 0.03864 0.60927 0.0
N748 N 0.9317 0.97969 0.60342 0.0
N749 N 0.8852 1.01689 0.60732 0.0
H750 H 0.09677 0.83454 0.68637 0.0
H751 H 0.98466 0.90214 0.68245 0.0
H752 H 0.0966 0.90524 0.69759 0.0
H753 H 0.99492 0.84024 0.6479 0.0
H754 H 0.02312 0.90151 0.69679 0.0
H755 H 0.05672 0.83432 0.68193 0.0
C756 C 0.08832 0.85001 0.68829 0.0
C757 C 0.10022 0.86999 0.69205 0.0
C758 C 1.01677 0.88799 0.68627 0.0
C759 C 0.05409 0.86982 0.68678 0.0
C760 C 0.99487 0.88829 0.6782 0.0
C761 C 0.9867 0.87129 0.66386 0.0
C762 C 0.03028 0.87031 0.68032 0.0
C763 C 1.00062 0.85379 0.65874 0.0
C764 C 0.0654 0.84987 0.68564 0.0
C765 C 0.08817 0.88946 0.69455 0.0
N766 N 0.02162 0.85375 0.66694 0.0
N767 N 0.06577 0.88894 0.69162 0.0
H768 H 0.39172 0.15221 0.07499 0.0
H769 H 0.42346 0.19831 0.95677 0.0
H770 H 0.42516 0.215 0.06619 0.0
H771 H 0.40339 0.13047 0.96672 0.0
H772 H 0.42303 0.20513 0.99665 0.0
H773 H 0.39365 0.14466 0.03513 0.0
C774 C 0.39927 0.1645 0.06469 0.0
C775 C 0.40827 0.18429 0.07402 0.0
C776 C 0.41893 0.18868 0.99014 0.0
C777 C 0.4107 0.17567 0.02837 0.0
C778 C 0.4193 0.18473 0.96733 0.0
C779 C 0.41354 0.16375 0.95826 0.0
C780 C 0.4125 0.17162 1.00411 0.0
C781 C 0.4081 0.14688 0.97289 0.0
C782 C 0.40053 0.1601 0.04195 0.0
C783 C 0.41801 0.19951 0.0598 0.0
N784 N 0.40752 0.15123 0.99501 0.0
N785 N 0.41894 0.1949 0.03778 0.0
H786 H 0.85251 0.45057 0.95832 0.0
H787 H 0.94771 0.42746 0.04681 0.0
H788 H 0.9189 0.43388 0.94113 0.0
H789 H 0.88176 0.44562 0.0641 0.0
H790 H 0.93907 0.43534 1.00836 0.0
H791 H 0.86443 0.45451 0.99696 0.0
C792 C 0.8697 0.44812 0.96259 0.0
C793 C 0.88465 0.44164 0.9464 0.0
C794 C 0.92656 0.43791 0.02058 0.0
C795 C 0.89838 0.44584 0.99084 0.0
C796 C 0.9315 0.43345 0.04261 0.0
C797 C 0.91536 0.43561 0.05876 0.0
C798 C 0.90524 0.44443 1.01451 0.0
C799 C 0.8947 0.44357 0.05225 0.0
C800 C 0.87649 0.45032 0.98472 0.0
C801 C 0.90674 0.43881 0.95299 0.0
N802 N 0.89015 0.44739 0.03062 0.0
N803 N 0.91285 0.44061 0.97471 0.0
H804 H 0.60757 0.9142 0.99074 0.0
H805 H 0.59342 0.84826 0.10261 0.0
H806 H 0.61107 0.84353 0.99631 0.0
H807 H 0.60939 0.9181 0.10174 0.0
H808 H 0.58916 0.84781 0.06254 0.0
H809 H 0.5981 0.91705 0.03003 0.0
C810 C 0.6057 0.89926 1.00006 0.0
C811 C 0.61018 0.8786 0.99036 0.0
C812 C 0.59328 0.86332 0.07112 0.0
C813 C 0.59948 0.8817 0.03505 0.0
C814 C 0.59562 0.86363 0.09407 0.0
C815 C 0.60215 0.88317 0.10563 0.0
C816 C 0.59751 0.88269 0.05949 0.0
C817 C 0.60454 0.9026 0.09354 0.0
C818 C 0.60049 0.90091 0.02248 0.0
C819 C 0.60786 0.85979 1.0032 0.0
N820 N 0.60255 0.9018 0.0711 0.0
N821 N 0.60281 0.8618 0.02485 0.0
H822 H 0.12309 0.65983 0.92213 0.0
H823 H 0.12484 0.62335 0.04859 0.0
H824 H 0.13276 0.59289 0.9425 0.0
H825 H 0.12973 0.69132 0.02908 0.0
H826 H 0.12412 0.61172 1.00954 0.0
H827 H 0.12206 0.67168 0.96114 0.0
C828 C 0.12498 0.64764 0.93475 0.0
C829 C 0.12811 0.62536 0.92898 0.0
C830 C 0.12533 0.62918 1.01383 0.0
C831 C 0.12677 0.63872 0.97359 0.0
C832 C 0.12568 0.63582 0.03613 0.0
C833 C 0.12745 0.65832 0.04216 0.0
C834 C 0.12655 0.64518 0.99743 0.0
C835 C 0.12849 0.67376 0.02524 0.0
C836 C 0.12441 0.6544 0.95701 0.0
C837 C 0.13043 0.61027 0.94609 0.0
N838 N 0.128 0.66692 1.00371 0.0
N839 N 0.12966 0.6172 0.96753 0.0
H840 H 0.45505 0.89455 0.12672 0.0
H841 H 0.4089 0.92484 1.00659 0.0
H842 H 0.40712 0.9442 0.11325 0.0
H843 H 0.45789 0.87518 1.01588 0.0
H844 H 0.4112 0.934 0.0458 0.0
H845 H 0.4598 0.88918 0.08658 0.0
C846 C 0.4459 0.9046 0.11538 0.0
C847 C 0.43053 0.9197 0.1233 0.0
C848 C 0.42159 0.92115 0.03937 0.0
C849 C 0.43567 0.91358 0.07765 0.0
C850 C 0.42025 0.91588 1.01687 0.0
C851 C 0.43308 0.89908 1.00785 0.0
C852 C 0.43573 0.90944 0.05327 0.0
C853 C 0.44764 0.88823 0.02211 0.0
C854 C 0.44848 0.90144 0.0925 0.0
C855 C 0.41895 0.93217 0.1079 0.0
N856 N 0.44842 0.89344 0.04416 0.0
N857 N 0.42165 0.92874 0.08596 0.0
H858 H 0.10649 0.43705 0.96317 0.0
H859 H 0.18876 0.45752 0.0668 0.0
H860 H 0.17607 0.45251 0.95835 0.0
H861 H 0.12018 0.4382 0.0726 0.0
H862 H 0.18261 0.46236 0.02736 0.0
H863 H 0.1095 0.44375 1.00312 0.0
C864 C 0.12232 0.44224 0.97041 0.0
C865 C 0.14112 0.44396 0.95733 0.0
C866 C 0.16881 0.45736 0.03727 0.0
C867 C 0.14469 0.45149 1.00318 0.0
C868 C 0.17229 0.45468 0.05988 0.0
C869 C 0.15504 0.44717 0.07308 0.0
C870 C 0.14793 0.45238 0.02763 0.0
C871 C 0.13402 0.44389 0.0631 0.0
C872 C 0.12404 0.44598 0.99328 0.0
C873 C 0.16116 0.45075 0.96773 0.0
N874 N 0.13114 0.4462 0.04095 0.0
N875 N 0.16246 0.45403 0.98999 0.0
H876 H 0.60485 0.10333 0.08311 0.0
H877 H 0.60572 0.15425 0.96254 0.0
H878 H 0.60824 0.17324 0.07094 0.0
H879 H 0.60785 0.08439 0.97467 0.0
H880 H 0.60038 0.16132 1.00194 0.0
H881 H 0.59964 0.09599 0.04344 0.0
C882 C 0.60409 0.11717 0.07218 0.0
C883 C 0.60721 0.13894 0.08042 0.0
C884 C 0.60175 0.14441 0.99594 0.0
C885 C 0.60148 0.13063 0.03487 0.0
C886 C 0.60471 0.14036 0.9734 0.0
C887 C 0.60747 0.1187 0.96524 0.0
C888 C 0.60156 0.12671 1.01051 0.0
C889 C 0.606 0.10138 0.98019 0.0
C890 C 0.60124 0.11296 0.04948 0.0
C891 C 0.60612 0.15618 0.06537 0.0
N892 N 0.60337 0.10577 1.00207 0.0
N893 N 0.60356 0.15165 0.04337 0.0
H894 H 0.89124 0.65521 0.91951 0.0
H895 H 0.88733 0.62317 0.04713 0.0
H896 H 0.88032 0.58872 0.94168 0.0
H897 H 0.89984 0.68939 0.02493 0.0
H898 H 0.88618 0.6099 1.00858 0.0
H899 H 0.89556 0.66795 0.95809 0.0
C900 C 0.88977 0.6433 0.93245 0.0
C901 C 0.88534 0.62088 0.9273 0.0
C902 C 0.8893 0.62733 1.01217 0.0
C903 C 0.89028 0.6353 0.9715 0.0
C904 C 0.89003 0.63487 0.0342 0.0
C905 C 0.89359 0.65743 0.03931 0.0
C906 C 0.89212 0.64244 0.99514 0.0
C907 C 0.89692 0.67186 0.02182 0.0
C908 C 0.89226 0.65055 0.95448 0.0
C909 C 0.88366 0.60618 0.9448 0.0
N910 N 0.896 0.66416 1.00059 0.0
N911 N 0.88608 0.61363 0.96605 0.0
H912 H 0.08316 0.37733 0.09672 0.0
H913 H 0.97351 0.37479 0.16638 0.0
H914 H 0.08041 0.37776 0.1676 0.0
H915 H 0.97269 0.37893 0.0956 0.0
H916 H 1.01246 0.36588 0.16574 0.0
H917 H 0.04323 0.36852 0.09463 0.0
C918 C 0.07429 0.37474 0.11178 0.0
C919 C 0.08494 0.37828 0.13237 0.0
C920 C 1.0038 0.36831 0.15023 0.0
C921 C 0.03953 0.36863 0.1302 0.0
C922 C 0.9815 0.37327 0.15062 0.0
C923 C 0.96998 0.37766 0.13104 0.0
C924 C 1.01494 0.36836 0.13015 0.0
C925 C 0.98105 0.37554 0.11104 0.0
C926 C 0.05151 0.36993 0.11062 0.0
C927 C 0.07273 0.3752 0.15142 0.0
N928 N 1.00312 0.37151 0.11112 0.0
N929 N 0.0507 0.37079 0.14988 0.0
H930 H 0.04797 0.5868 0.90343 0.0
H931 H 0.95197 0.57375 0.81283 0.0
H932 H 0.06029 0.57372 0.83464 0.0
H933 H 0.9404 0.57465 0.88277 0.0
H934 H 0.99139 0.56963 0.82051 0.0
H935 H 1.00881 0.57831 0.89653 0.0
C936 C 0.04248 0.5817 0.88692 0.0
C937 C 0.05745 0.58109 0.86957 0.0
C938 C 0.98022 0.57034 0.83418 0.0
C939 C 1.01234 0.57179 0.8614 0.0
C940 C 0.95764 0.57267 0.82981 0.0
C941 C 0.94278 0.57477 0.84718 0.0
C942 C 0.98815 0.57041 0.85611 0.0
C943 C 0.95118 0.57316 0.86883 0.0
C944 C 0.02006 0.57689 0.88298 0.0
C945 C 0.04937 0.57435 0.84853 0.0
N946 N 0.97329 0.57144 0.87267 0.0
N947 N 0.02732 0.57035 0.84496 0.0
H948 H 0.37109 0.94666 0.90007 0.0
H949 H 0.35477 0.07503 0.93052 0.0
H950 H 0.36748 0.97272 0.96673 0.0
H951 H 0.374 0.05082 0.86641 0.0
H952 H 0.35192 0.03681 0.94276 0.0
H953 H 0.36464 0.98375 0.88639 0.0
C954 C 0.36853 0.96006 0.91184 0.0
C955 C 0.37001 0.95653 0.93462 0.0
C956 C 0.35652 0.03986 0.92594 0.0
C957 C 0.36274 0.99914 0.91902 0.0
C958 C 0.35804 0.0617 0.91889 0.0
C959 C 0.36482 0.06622 0.89744 0.0
C960 C 0.36165 0.02235 0.9114 0.0
C961 C 0.36889 0.04818 0.88315 0.0
C962 C 0.36499 0.98129 0.90401 0.0
C963 C 0.36665 0.97464 0.94904 0.0
N964 N 0.36737 0.02711 0.89041 0.0
N965 N 0.36332 0.99513 0.94102 0.0
H966 H 0.0451 0.39023 0.85629 0.0
H967 H 0.94635 0.37173 0.93567 0.0
H968 H 0.05606 0.37346 0.92417 0.0
H969 H 0.93912 0.36684 0.86476 0.0
H970 H 0.98631 0.3687 0.93217 0.0
H971 H 1.00652 0.37842 0.85888 0.0
C972 C 0.03939 0.38365 0.87166 0.0
C973 C 0.05368 0.38288 0.89007 0.0
C974 C 0.97593 0.36781 0.91742 0.0
C975 C 1.00931 0.36987 0.89342 0.0
C976 C 0.95307 0.36952 0.91938 0.0
C977 C 0.93932 0.36996 0.90045 0.0
C978 C 0.98513 0.36682 0.89637 0.0
C979 C 0.94903 0.36688 0.87982 0.0
C980 C 1.01736 0.37688 0.87315 0.0
C981 C 0.04552 0.37421 0.9096 0.0
N982 N 0.97133 0.36589 0.87832 0.0
N983 N 0.0237 0.36846 0.91092 0.0
H984 H 0.68285 0.05446 0.86403 0.0
H985 H 0.66345 0.95486 0.9454 0.0
H986 H 0.66312 0.06404 0.93145 0.0
H987 H 0.69062 0.94723 0.88053 0.0
H988 H 0.66699 0.99505 0.94236 0.0
H989 H 0.68949 1.01567 0.87129 0.0
C990 C 0.68021 0.0485 0.88047 0.0
C991 C 0.67224 0.06256 0.89709 0.0
C992 C 0.67249 0.98457 0.92893 0.0
C993 C 0.6795 1.01787 0.90548 0.0
C994 C 0.67055 0.96157 0.93069 0.0
C995 C 0.6765 0.94754 0.91309 0.0
C996 C 0.68031 0.99365 0.90938 0.0
C997 C 0.6856 0.9573 0.89446 0.0
C998 C 0.68398 0.02628 0.88462 0.0
C999 C 0.66922 0.05383 0.91811 0.0
N1000 N 0.68695 0.97967 0.89299 0.0
N1001 N 0.67255 0.03201 0.92161 0.0
H1002 H 0.06624 0.7027 0.14265 0.0
H1003 H 0.94507 0.71095 0.08862 0.0
H1004 H 0.05183 0.69982 0.07269 0.0
H1005 H 0.95772 0.70042 0.15779 0.0
H1006 H 0.98476 0.71612 0.0835 0.0
H1007 H 0.02743 0.71093 0.14919 0.0
C1008 C 0.05506 0.70432 0.12865 0.0
C1009 C 0.06224 0.70032 0.10709 0.0
C1010 C 0.97882 0.71301 0.09987 0.0
C1011 C 1.01782 0.70956 0.11446 0.0
C1012 C 0.95611 0.71019 0.10284 0.0
C1013 C 0.948 0.70492 0.12362 0.0
C1014 C 0.99359 0.71061 0.1178 0.0
C1015 C 0.96321 0.70418 0.14141 0.0
C1016 C 0.03287 0.70887 0.1324 0.0
C1017 C 0.04697 0.70252 0.08959 0.0
N1018 N 0.98524 0.7067 0.13805 0.0
N1019 N 0.0255 0.70678 0.09366 0.0
H1020 H 0.43718 0.11101 0.17287 0.0
H1021 H 0.3823 0.98872 0.17017 0.0
H1022 H 0.37613 0.09375 0.13799 0.0
H1023 H 0.44901 1.00396 0.1929 0.0
H1024 H 0.37801 0.02784 0.16145 0.0
H1025 H 0.44028 0.07236 0.18338 0.0
C1026 C 0.42445 0.09912 0.16741 0.0
C1027 C 0.40644 0.10566 0.15443 0.0
C1028 C 0.39356 0.02258 0.1684 0.0
C1029 C 0.40976 0.0614 0.16655 0.0
C1030 C 0.39596 1.00028 0.17346 0.0
C1031 C 0.41606 0.99301 0.18218 0.0
C1032 C 0.41131 0.03771 0.1723 0.0
C1033 C 0.43325 1.00873 0.18606 0.0
C1034 C 0.42621 0.07705 0.17341 0.0
C1035 C 0.39039 0.08949 0.14791 0.0
N1036 N 0.43048 0.03026 0.18111 0.0
N1037 N 0.39241 0.06817 0.15405 0.0
H1038 H 0.66689 0.06508 0.09173 0.0
H1039 H 0.6806 0.96342 0.17172 0.0
H1040 H 0.67712 0.07242 0.16218 0.0
H1041 H 0.66766 0.95664 0.1016 0.0
H1042 H 0.68615 1.00327 0.1677 0.0
H1043 H 0.67398 0.02569 0.09423 0.0
C1044 C 0.67101 0.05851 0.1077 0.0
C1045 C 0.6711 0.07211 0.12681 0.0
C1046 C 0.68242 0.99302 0.15314 0.0
C1047 C 0.67898 0.02678 0.12984 0.0
C1048 C 0.67932 0.97021 0.15541 0.0
C1049 C 0.67334 0.95663 0.13701 0.0
C1050 C 0.67947 1.00237 0.13234 0.0
C1051 C 0.67201 0.96644 0.1163 0.0
C1052 C 0.675 0.03595 0.10912 0.0
C1053 C 0.6767 0.0626 0.14701 0.0
N1054 N 0.67476 0.98869 0.11458 0.0
N1055 N 0.68009 0.04049 0.14803 0.0
H1056 H 0.65938 0.4577 0.92283 0.0
H1057 H 0.59311 0.54957 0.85845 0.0
H1058 H 0.61938 0.44365 0.86424 0.0
H1059 H 0.6416 0.56562 0.90988 0.0
H1060 H 0.60109 0.51057 0.8619 0.0
H1061 H 0.6525 0.49703 0.91915 0.0
C1062 C 0.64932 0.46291 0.90903 0.0
C1063 C 0.63992 0.44731 0.89382 0.0
C1064 C 0.60997 0.52257 0.87249 0.0
C1065 C 0.63168 0.49241 0.88972 0.0
C1066 C 0.60533 0.5449 0.87065 0.0
C1067 C 0.61672 0.56099 0.8839 0.0
C1068 C 0.6261 0.5161 0.88776 0.0
C1069 C 0.63235 0.55383 0.89938 0.0
C1070 C 0.64536 0.48539 0.90699 0.0
C1071 C 0.62705 0.45506 0.87628 0.0
N1072 N 0.63661 0.5319 0.90086 0.0
N1073 N 0.62317 0.47705 0.87483 0.0
H1074 H 0.55329 0.68612 0.85887 0.0
H1075 H 0.44327 0.61189 0.87115 0.0
H1076 H 0.5532 0.61484 0.85618 0.0
H1077 H 0.44488 0.68312 0.86935 0.0
H1078 H 0.48266 0.61202 0.86236 0.0
H1079 H 0.51306 0.68482 0.85926 0.0
C1080 C 0.54481 0.67015 0.85807 0.0
C1081 C 0.55676 0.65057 0.8576 0.0
C1082 C 0.47431 0.62759 0.86364 0.0
C1083 C 0.51034 0.64891 0.85841 0.0
C1084 C 0.45177 0.62753 0.86859 0.0
C1085 C 0.44067 0.64754 0.87118 0.0
C1086 C 0.48588 0.6478 0.8613 0.0
C1087 C 0.45266 0.66727 0.86771 0.0
C1088 C 0.52175 0.66941 0.85835 0.0
C1089 C 0.54472 0.63038 0.85652 0.0
N1090 N 0.47453 0.66689 0.86316 0.0
N1091 N 0.52222 0.63007 0.85723 0.0
H1092 H 0.39959 0.4568 0.95075 0.0
H1093 H 0.33242 0.56929 0.95308 0.0
H1094 H 0.3296 0.46055 0.96129 0.0
H1095 H 0.40054 0.56615 0.93422 0.0
H1096 H 0.33307 0.53033 0.96227 0.0
H1097 H 0.40208 0.49734 0.95084 0.0
C1098 C 0.38483 0.4661 0.95354 0.0
C1099 C 0.3643 0.45517 0.95584 0.0
C1100 C 0.34797 0.53816 0.95633 0.0
C1101 C 0.36703 0.50162 0.95577 0.0
C1102 C 0.34764 0.5605 0.95111 0.0
C1103 C 0.3664 0.57108 0.94264 0.0
C1104 C 0.36718 0.52608 0.95303 0.0
C1105 C 0.38564 0.55872 0.94061 0.0
C1106 C 0.38624 0.48927 0.95343 0.0
C1107 C 0.34575 0.46818 0.95928 0.0
N1108 N 0.38548 0.53685 0.94554 0.0
N1109 N 0.34753 0.49061 0.95897 0.0
H1110 H 0.44421 0.3636 0.9144 0.0
H1111 H 0.55924 0.42041 0.88442 0.0
H1112 H 0.45243 0.43359 0.90431 0.0
H1113 H 0.55605 0.35937 0.91947 0.0
H1114 H 0.51946 0.4238 0.88791 0.0
H1115 H 0.48434 0.35978 0.91196 0.0
C1116 C 0.4544 0.37811 0.91137 0.0
C1117 C 0.44491 0.39896 0.90947 0.0
C1118 C 0.52742 0.40973 0.89499 0.0
C1119 C 0.49079 0.39467 0.90681 0.0
C1120 C 0.55015 0.40776 0.89302 0.0
C1121 C 0.56098 0.3896 0.90173 0.0
C1122 C 0.51519 0.39319 0.9054 0.0
C1123 C 0.54835 0.37373 0.9127 0.0
C1124 C 0.4773 0.37593 0.91023 0.0
C1125 C 0.45898 0.4172 0.90585 0.0
N1126 N 0.52602 0.37576 0.91402 0.0
N1127 N 0.48114 0.41461 0.90455 0.0
H1128 H 0.68574 0.57605 0.16472 0.0
H1129 H 0.6218 0.45872 0.15743 0.0
H1130 H 0.6154 0.56947 0.15313 0.0
H1131 H 0.69238 0.46766 0.16513 0.0
H1132 H 0.61794 0.49892 0.16141 0.0
H1133 H 0.68719 0.53648 0.17059 0.0
C1134 C 0.6705 0.56631 0.16365 0.0
C1135 C 0.65044 0.57615 0.1582 0.0
C1136 C 0.63423 0.49203 0.16255 0.0
C1137 C 0.65204 0.53041 0.16466 0.0
C1138 C 0.63644 0.46905 0.16043 0.0
C1139 C 0.65748 0.45976 0.1608 0.0
C1140 C 0.65319 0.5058 0.16514 0.0
C1141 C 0.67586 0.47403 0.16455 0.0
C1142 C 0.67136 0.54362 0.16698 0.0
C1143 C 0.63124 0.56261 0.15726 0.0
N1144 N 0.67329 0.49624 0.16639 0.0
N1145 N 0.63255 0.54038 0.16017 0.0
H1146 H 0.55778 0.62518 0.11319 0.0
H1147 H 0.4593 0.70998 0.10745 0.0
H1148 H 0.56531 0.6925 0.09227 0.0
H1149 H 0.44841 0.64028 0.11736 0.0
H1150 H 0.4978 0.70299 0.09933 0.0
H1151 H 0.51758 0.62922 0.11227 0.0
C1152 C 0.55102 0.64068 0.10806 0.0
C1153 C 0.56505 0.65859 0.10301 0.0
C1154 C 0.48698 0.68913 0.103 0.0
C1155 C 0.51902 0.6634 0.10219 0.0
C1156 C 0.46493 0.69314 0.10763 0.0
C1157 C 0.45057 0.67573 0.11322 0.0
C1158 C 0.49497 0.66758 0.10427 0.0
C1159 C 0.45886 0.65422 0.11311 0.0
C1160 C 0.52805 0.64299 0.1076 0.0
C1161 C 0.55526 0.67827 0.0965 0.0
N1162 N 0.48057 0.6508 0.10904 0.0
N1163 N 0.53296 0.68021 0.09653 0.0
H1164 H 0.42459 0.49247 0.16349 0.0
H1165 H 0.34073 0.59193 0.17228 0.0
H1166 H 0.3549 0.48381 0.1748 0.0
H1167 H 0.41127 0.60232 0.1697 0.0
H1168 H 0.34622 0.5524 0.17599 0.0
H1169 H 0.42081 0.53254 0.16829 0.0
C1170 C 0.40855 0.49893 0.16726 0.0
C1171 C 0.39 0.48466 0.16857 0.0
C1172 C 0.36056 0.56329 0.17488 0.0
C1173 C 0.38553 0.53062 0.1739 0.0
C1174 C 0.35742 0.58594 0.1728 0.0
C1175 C 0.37555 0.60053 0.17055 0.0
C1176 C 0.38199 0.55496 0.17444 0.0
C1177 C 0.3968 0.59173 0.17141 0.0
C1178 C 0.4064 0.52184 0.16997 0.0
C1179 C 0.36966 0.49407 0.1735 0.0
N1180 N 0.39942 0.5695 0.17298 0.0
N1181 N 0.36795 0.51638 0.17576 0.0
H1182 H 0.57731 0.38107 0.09999 0.0
H1183 H 0.48174 0.46851 0.10914 0.0
H1184 H 0.58834 0.45172 0.09869 0.0
H1185 H 0.46883 0.39827 0.10193 0.0
H1186 H 0.52042 0.46259 0.10092 0.0
H1187 H 0.53752 0.38669 0.09634 0.0
C1188 C 0.57144 0.39773 0.09853 0.0
C1189 C 0.58627 0.41596 0.09991 0.0
C1190 C 0.50911 0.44846 0.10078 0.0
C1191 C 0.54063 0.42253 0.09601 0.0
C1192 C 0.48696 0.45186 0.10543 0.0
C1193 C 0.472 0.43387 0.10638 0.0
C1194 C 0.51656 0.42685 0.09738 0.0
C1195 C 0.47975 0.41265 0.10137 0.0
C1196 C 0.54868 0.40094 0.09651 0.0
C1197 C 0.57761 0.43716 0.09791 0.0
N1198 N 0.50155 0.40969 0.09744 0.0
N1199 N 0.55543 0.43985 0.09636 0.0
H1200 H 0.84314 0.69226 0.44637 0.0
H1201 H 0.85132 0.64806 0.55043 0.0
H1202 H 0.84827 0.62541 0.42093 0.0
H1203 H 0.88521 0.59609 0.51608 0.0
H1204 H 0.83651 0.66027 0.51509 0.0
H1205 H 0.84495 0.67857 0.48375 0.0
C1206 C 0.844 0.67461 0.44863 0.0
C1207 C 0.84572 0.66003 0.4304 0.0
C1208 C 0.84721 0.64623 0.51524 0.0
C1209 C 0.84786 0.64408 0.47341 0.0
C1210 C 0.85548 0.63907 0.53549 0.0
C1211 C 0.86985 0.62122 0.53624 0.0
C1212 C 0.85338 0.63548 0.49556 0.0
C1213 C 0.87447 0.61012 0.51631 0.0
C1214 C 0.84495 0.66674 0.47009 0.0
C1215 C 0.84692 0.63731 0.43442 0.0
N1216 N 0.8664 0.61752 0.49682 0.0
N1217 N 0.84847 0.63012 0.45547 0.0
H1218 H 0.47633 0.9288 0.62478 0.0
H1219 H 0.39545 0.94653 0.52145 0.0
H1220 H 0.40546 0.92935 0.62983 0.0
H1221 H 0.4665 0.95094 0.51883 0.0
H1222 H 0.39843 0.9445 0.5617 0.0
H1223 H 0.47283 0.94101 0.58688 0.0
C1224 C 0.46002 0.93178 0.61803 0.0
C1225 C 0.44117 0.92785 0.63055 0.0
C1226 C 0.41335 0.94623 0.55234 0.0
C1227 C 0.43697 0.94161 0.58677 0.0
C1228 C 0.41166 0.9475 0.52932 0.0
C1229 C 0.43076 0.9487 0.51661 0.0
C1230 C 0.43429 0.94607 0.56277 0.0
C1231 C 0.4513 0.94985 0.52783 0.0
C1232 C 0.45802 0.93874 0.59631 0.0
C1233 C 0.42047 0.93211 0.62084 0.0
N1234 N 0.45251 0.94825 0.55015 0.0
N1235 N 0.41891 0.93847 0.59947 0.0
H1236 H 0.11574 0.41818 0.4592 0.0
H1237 H 0.11053 0.34806 0.56949 0.0
H1238 H 0.12732 0.3484 0.46299 0.0
H1239 H 0.11486 0.41934 0.5706 0.0
H1240 H 0.10758 0.34809 0.52937 0.0
H1241 H 0.10677 0.41893 0.49873 0.0
C1242 C 0.11583 0.40296 0.4682 0.0
C1243 C 0.12236 0.38322 0.45791 0.0
C1244 C 0.10892 0.36377 0.53836 0.0
C1245 C 0.11225 0.38392 0.50284 0.0
C1246 C 0.11053 0.36377 0.56134 0.0
C1247 C 0.11327 0.38371 0.57351 0.0
C1248 C 0.11013 0.38385 0.52727 0.0
C1249 C 0.11294 0.40355 0.56191 0.0
C1250 C 0.1109 0.40341 0.49075 0.0
C1251 C 0.12251 0.364 0.47035 0.0
N1252 N 0.11171 0.40312 0.53942 0.0
N1253 N 0.11767 0.36486 0.49208 0.0
H1254 H 0.66345 0.12784 0.57798 0.0
H1255 H 0.60233 0.16685 0.46859 0.0
H1256 H 0.59458 0.14419 0.57544 0.0
H1257 H 0.6584 0.1244 0.46588 0.0
H1258 H 0.60204 0.16346 0.50855 0.0
H1259 H 0.66487 0.13179 0.53782 0.0
C1260 C 0.64873 0.13262 0.56906 0.0
C1261 C 0.62886 0.13577 0.58013 0.0
C1262 C 0.61438 0.15481 0.49926 0.0
C1263 C 0.63041 0.14019 0.53423 0.0
C1264 C 0.6146 0.15675 0.47642 0.0
C1265 C 0.63039 0.14583 0.46384 0.0
C1266 C 0.63033 0.14219 0.50983 0.0
C1267 C 0.64583 0.13294 0.47493 0.0
C1268 C 0.64952 0.13462 0.54613 0.0
C1269 C 0.61024 0.14163 0.56764 0.0
N1270 N 0.64555 0.13162 0.49736 0.0
N1271 N 0.6115 0.14372 0.54542 0.0
H1272 H 0.93135 0.35869 0.44508 0.0
H1273 H 0.89283 0.41293 0.55934 0.0
H1274 H 0.91211 0.42671 0.45093 0.0
H1275 H 0.93266 0.35498 0.55478 0.0
H1276 H 0.89493 0.41637 0.51899 0.0
H1277 H 0.92821 0.35553 0.48496 0.0
C1278 C 0.92672 0.37305 0.45478 0.0
C1279 C 0.92211 0.39302 0.4446 0.0
C1280 C 0.90307 0.40284 0.52689 0.0
C1281 C 0.9179 0.38935 0.49033 0.0
C1282 C 0.90165 0.40075 0.54982 0.0
C1283 C 0.91259 0.38366 0.56036 0.0
C1284 C 0.91522 0.38754 0.51453 0.0
C1285 C 0.92405 0.36847 0.54731 0.0
C1286 C 0.92482 0.37121 0.47755 0.0
C1287 C 0.91601 0.41104 0.45806 0.0
N1288 N 0.92505 0.37075 0.52517 0.0
N1289 N 0.91389 0.40873 0.4802 0.0
H1290 H 0.68663 0.83597 0.59397 0.0
H1291 H 0.62575 0.90601 0.50189 0.0
H1292 H 0.64254 0.8891 0.60844 0.0
H1293 H 0.67052 0.85382 0.48624 0.0
H1294 H 0.62979 0.89798 0.54082 0.0
H1295 H 0.67975 0.84086 0.55462 0.0
C1296 C 0.67554 0.84873 0.58889 0.0
C1297 C 0.6652 0.86222 0.60459 0.0
C1298 C 0.63863 0.88813 0.52894 0.0
C1299 C 0.65714 0.86777 0.55943 0.0
C1300 C 0.63628 0.89265 0.50664 0.0
C1301 C 0.64794 0.88065 0.49078 0.0
C1302 C 0.65289 0.87154 0.5356 0.0
C1303 C 0.6612 0.86344 0.49792 0.0
C1304 C 0.67157 0.85144 0.56638 0.0
C1305 C 0.65096 0.87841 0.59697 0.0
N1306 N 0.66349 0.85953 0.51987 0.0
N1307 N 0.64736 0.88072 0.57495 0.0
H1308 H 0.11126 0.59385 0.53518 0.0
H1309 H 0.09914 0.67436 0.43369 0.0
H1310 H 0.10176 0.66407 0.5424 0.0
H1311 H 0.10884 0.60417 0.42641 0.0
H1312 H 0.09431 0.66995 0.4732 0.0
H1313 H 0.10489 0.59641 0.49545 0.0
C1314 C 0.10753 0.60978 0.52848 0.0
C1315 C 0.1073 0.62882 0.54221 0.0
C1316 C 0.09718 0.65545 0.46294 0.0
C1317 C 0.10016 0.63189 0.49651 0.0
C1318 C 0.09987 0.65793 0.44031 0.0
C1319 C 0.10468 0.63965 0.42665 0.0
C1320 C 0.09943 0.63453 0.47213 0.0
C1321 C 0.1053 0.61878 0.43625 0.0
C1322 C 0.10392 0.61122 0.50573 0.0
C1323 C 0.10224 0.64896 0.5325 0.0
N1324 N 0.10303 0.61685 0.45841 0.0
N1325 N 0.09913 0.65 0.51026 0.0
H1326 H 0.42499 0.1849 0.57581 0.0
H1327 H 0.36036 0.17655 0.45863 0.0
H1328 H 0.3714 0.13893 0.55924 0.0
H1329 H 0.42466 0.20828 0.46668 0.0
H1330 H 0.36065 0.16923 0.49799 0.0
H1331 H 0.42183 0.19972 0.5383 0.0
C1332 C 0.41241 0.17816 0.56443 0.0
C1333 C 0.39859 0.16051 0.57058 0.0
C1334 C 0.37464 0.17798 0.49122 0.0
C1335 C 0.39474 0.1774 0.52794 0.0
C1336 C 0.37443 0.18229 0.46869 0.0
C1337 C 0.3926 0.1929 0.45914 0.0
C1338 C 0.3931 0.18434 0.50452 0.0
C1339 C 0.41032 0.19994 0.47322 0.0
C1340 C 0.41068 0.18651 0.54303 0.0
C1341 C 0.38261 0.15233 0.55515 0.0
N1342 N 0.41022 0.1954 0.49514 0.0
N1343 N 0.38116 0.16079 0.53468 0.0
H1344 H 0.48123 0.84567 0.65622 0.0
H1345 H 0.60302 0.82731 0.70533 0.0
H1346 H 0.50319 0.86352 0.72251 0.0
H1347 H 0.58673 0.82437 0.63569 0.0
H1348 H 0.56386 0.83078 0.71312 0.0
H1349 H 0.51717 0.82877 0.64981 0.0
C1350 C 0.49342 0.84563 0.66953 0.0
C1351 C 0.48935 0.85624 0.68983 0.0
C1352 C 0.56882 0.82899 0.69614 0.0
C1353 C 0.5303 0.83697 0.6827 0.0
C1354 C 0.59121 0.82685 0.69167 0.0
C1355 C 0.59831 0.82601 0.66979 0.0
C1356 C 0.55334 0.8302 0.67863 0.0
C1357 C 0.5821 0.82533 0.65282 0.0
C1358 C 0.51393 0.8361 0.66586 0.0
C1359 C 0.50575 0.8558 0.7065 0.0
N1360 N 0.56043 0.82778 0.65757 0.0
N1361 N 0.52548 0.8465 0.70253 0.0
H1362 H 0.46295 0.15255 0.42674 0.0
H1363 H 0.56063 0.16959 0.3414 0.0
H1364 H 0.45112 0.16612 0.35806 0.0
H1365 H 0.57055 0.16758 0.41199 0.0
H1366 H 0.52064 0.16773 0.34662 0.0
H1367 H 0.50259 0.15617 0.42097 0.0
C1368 C 0.46866 0.15609 0.41038 0.0
C1369 C 0.4536 0.15901 0.39287 0.0
C1370 C 0.53159 0.16789 0.36096 0.0
C1371 C 0.49917 0.16341 0.38616 0.0
C1372 C 0.55445 0.16908 0.358 0.0
C1373 C 0.56907 0.1687 0.37626 0.0
C1374 C 0.52327 0.16612 0.38232 0.0
C1375 C 0.56001 0.16789 0.39738 0.0
C1376 C 0.49135 0.15833 0.40713 0.0
C1377 C 0.46209 0.16372 0.37206 0.0
N1378 N 0.53778 0.16645 0.39979 0.0
N1379 N 0.48428 0.16577 0.36929 0.0
H1380 H 0.8989 0.59903 0.42566 0.0
H1381 H 0.88286 0.48315 0.35945 0.0
H1382 H 0.89823 0.59297 0.3546 0.0
H1383 H 0.88963 0.48938 0.43032 0.0
H1384 H 0.88679 0.5234 0.35725 0.0
H1385 H 0.89531 0.55888 0.42758 0.0
C1386 C 0.89833 0.58926 0.41044 0.0
C1387 C 0.89889 0.59948 0.38994 0.0
C1388 C 0.8873 0.51595 0.37328 0.0
C1389 C 0.89429 0.55333 0.39201 0.0
C1390 C 0.88485 0.49296 0.37457 0.0
C1391 C 0.88595 0.48279 0.39511 0.0
C1392 C 0.8908 0.52891 0.39267 0.0
C1393 C 0.88872 0.49642 0.41411 0.0
C1394 C 0.89612 0.56629 0.41155 0.0
C1395 C 0.89794 0.58587 0.37079 0.0
N1396 N 0.89112 0.5187 0.41242 0.0
N1397 N 0.89553 0.56354 0.37229 0.0
H1398 H 0.46984 0.87679 0.40067 0.0
H1399 H 0.58844 0.92306 0.44402 0.0
H1400 H 0.48003 0.91161 0.4632 0.0
H1401 H 0.57842 0.87857 0.3878 0.0
H1402 H 0.54843 0.92179 0.44992 0.0
H1403 H 0.50956 0.87871 0.39498 0.0
C1404 C 0.48044 0.88459 0.41335 0.0
C1405 C 0.47153 0.89406 0.43243 0.0
C1406 C 0.55503 0.91243 0.43622 0.0
C1407 C 0.51709 0.89674 0.4258 0.0
C1408 C 0.5778 0.91336 0.43271 0.0
C1409 C 0.58673 0.90088 0.41542 0.0
C1410 C 0.54119 0.89906 0.42223 0.0
C1411 C 0.57224 0.88837 0.40141 0.0
C1412 C 0.50314 0.8858 0.41003 0.0
C1413 C 0.48614 0.90403 0.44825 0.0
N1414 N 0.55026 0.88773 0.40515 0.0
N1415 N 0.50818 0.90527 0.44451 0.0
H1416 H 0.17603 0.57304 0.40137 0.0
H1417 H 0.18307 0.44552 0.36402 0.0
H1418 H 0.16738 0.54845 0.3343 0.0
H1419 H 0.17301 0.4677 0.43115 0.0
H1420 H 0.18766 0.48406 0.35345 0.0
H1421 H 0.18487 0.53556 0.4127 0.0
C1422 C 0.17648 0.55989 0.38895 0.0
C1423 C 0.17073 0.56384 0.36688 0.0
C1424 C 0.18483 0.48047 0.37057 0.0
C1425 C 0.18078 0.52098 0.37974 0.0
C1426 C 0.18236 0.45843 0.37667 0.0
C1427 C 0.17733 0.45332 0.39848 0.0
C1428 C 0.18237 0.49756 0.38639 0.0
C1429 C 0.17661 0.47084 0.4141 0.0
C1430 C 0.18139 0.53848 0.39545 0.0
C1431 C 0.17147 0.54612 0.35153 0.0
N1432 N 0.17882 0.49216 0.40771 0.0
N1433 N 0.17621 0.52548 0.35826 0.0
H1434 H 0.46153 0.08195 0.68122 0.0
H1435 H 0.57375 0.08569 0.61426 0.0
H1436 H 0.46512 0.10133 0.6134 0.0
H1437 H 0.56974 0.08202 0.68488 0.0
H1438 H 0.53332 0.08093 0.6113 0.0
H1439 H 0.50012 0.07152 0.68017 0.0
C1440 C 0.4703 0.0837 0.66597 0.0
C1441 C 0.4601 0.09292 0.64749 0.0
C1442 C 0.54138 0.08055 0.62738 0.0
C1443 C 0.50453 0.08111 0.64624 0.0
C1444 C 0.56444 0.08297 0.62904 0.0
C1445 C 0.57498 0.08415 0.64984 0.0
C1446 C 0.52898 0.07918 0.64668 0.0
C1447 C 0.56217 0.08113 0.66854 0.0
C1448 C 0.4924 0.07776 0.6654 0.0
C1449 C 0.47234 0.09453 0.62813 0.0
N1450 N 0.53987 0.07899 0.66654 0.0
N1451 N 0.494 0.089 0.6281 0.0
H1452 H 0.94455 0.44653 0.6062 0.0
H1453 H 0.9448 0.56935 0.65851 0.0
H1454 H 0.95064 0.46159 0.67603 0.0
H1455 H 0.92759 0.55359 0.59043 0.0
H1456 H 0.95334 0.53066 0.66397 0.0
H1457 H 0.94504 0.4861 0.59913 0.0
C1458 C 0.94642 0.45811 0.62006 0.0
C1459 C 0.94735 0.45059 0.64181 0.0
C1460 C 0.94789 0.53567 0.64778 0.0
C1461 C 0.94771 0.49611 0.63373 0.0
C1462 C 0.94303 0.55783 0.6446 0.0
C1463 C 0.93525 0.5648 0.62399 0.0
C1464 C 0.94502 0.52022 0.63023 0.0
C1465 C 0.93341 0.549 0.60663 0.0
C1466 C 0.94656 0.48075 0.61598 0.0
C1467 C 0.94977 0.46651 0.65901 0.0
N1468 N 0.9381 0.52745 0.61018 0.0
N1469 N 0.94965 0.48847 0.65462 0.0
H1470 H 0.17266 0.58897 0.66534 0.0
H1471 H 0.17354 0.46872 0.60699 0.0
H1472 H 0.16705 0.57898 0.59471 0.0
H1473 H 0.1517 0.48195 0.67304 0.0
H1474 H 0.1822 0.50851 0.60342 0.0
H1475 H 0.17635 0.54919 0.66925 0.0
C1476 C 0.17262 0.5785 0.65059 0.0
C1477 C 0.16924 0.58738 0.62967 0.0
C1478 C 0.17595 0.50256 0.61882 0.0
C1479 C 0.17345 0.54168 0.63411 0.0
C1480 C 0.17122 0.47991 0.62092 0.0
C1481 C 0.16193 0.47219 0.64034 0.0
C1482 C 0.1717 0.51733 0.63643 0.0
C1483 C 0.15882 0.48733 0.6578 0.0
C1484 C 0.17464 0.55575 0.65287 0.0
C1485 C 0.16941 0.57287 0.61119 0.0
N1486 N 0.16363 0.50915 0.65542 0.0
N1487 N 0.17125 0.55069 0.61384 0.0
H1488 H 0.08958 0.20592 0.39336 0.0
H1489 H 0.16961 0.31322 0.38871 0.0
H1490 H 0.15998 0.20141 0.38599 0.0
H1491 H 0.09904 0.31442 0.39657 0.0
H1492 H 0.16759 0.27257 0.39015 0.0
H1493 H 0.09388 0.24589 0.39771 0.0
C1494 C 0.10601 0.21332 0.39292 0.0
C1495 C 0.12441 0.20023 0.38919 0.0
C1496 C 0.15261 0.28182 0.39166 0.0
C1497 C 0.12949 0.24636 0.3938 0.0
C1498 C 0.15375 0.305 0.39082 0.0
C1499 C 0.13446 0.31731 0.39234 0.0
C1500 C 0.13203 0.27095 0.3941 0.0
C1501 C 0.11437 0.30575 0.39513 0.0
C1502 C 0.10848 0.23623 0.39533 0.0
C1503 C 0.14532 0.21083 0.38886 0.0
N1504 N 0.11371 0.28336 0.39584 0.0
N1505 N 0.14728 0.2333 0.39088 0.0
H1506 H 0.81179 0.15351 0.33848 0.0
H1507 H 0.71684 0.18284 0.42356 0.0
H1508 H 0.82252 0.18554 0.4023 0.0
H1509 H 0.70167 0.15947 0.35708 0.0
H1510 H 0.75574 0.18535 0.41457 0.0
H1511 H 0.7716 0.15665 0.34329 0.0
C1512 C 0.80577 0.16136 0.35334 0.0
C1513 C 0.8206 0.16903 0.3701 0.0
C1514 C 0.74397 0.17986 0.40179 0.0
C1515 C 0.77486 0.17263 0.37574 0.0
C1516 C 0.72167 0.17848 0.40695 0.0
C1517 C 0.70592 0.17091 0.3911 0.0
C1518 C 0.75084 0.1733 0.38065 0.0
C1519 C 0.71324 0.16551 0.3698 0.0
C1520 C 0.78286 0.16313 0.3561 0.0
C1521 C 0.81184 0.17908 0.38902 0.0
N1522 N 0.73521 0.16653 0.36526 0.0
N1523 N 0.78971 0.18044 0.39133 0.0
H1524 H 0.94998 0.84387 0.37546 0.0
H1525 H 0.88172 0.73235 0.39398 0.0
H1526 H 0.88455 0.84311 0.40208 0.0
H1527 H 0.92792 0.73756 0.34112 0.0
H1528 H 0.88626 0.77216 0.4014 0.0
H1529 H 0.94541 0.80427 0.36611 0.0
C1530 C 0.93458 0.83544 0.37914 0.0
C1531 C 0.91759 0.84688 0.3895 0.0
C1532 C 0.89543 0.76457 0.38821 0.0
C1533 C 0.91253 0.80148 0.37941 0.0
C1534 C 0.89301 0.7418 0.38407 0.0
C1535 C 0.90447 0.73155 0.36689 0.0
C1536 C 0.90975 0.77721 0.37537 0.0
C1537 C 0.91873 0.74476 0.3545 0.0
C1538 C 0.93201 0.81286 0.37383 0.0
C1539 C 0.89803 0.83505 0.39396 0.0
N1540 N 0.92107 0.76688 0.35906 0.0
N1541 N 0.89615 0.81299 0.38915 0.0
H1542 H 0.21961 0.90387 0.46666 0.0
H1543 H 0.34499 0.88048 0.43484 0.0
H1544 H 0.23805 0.86103 0.4125 0.0
H1545 H 0.32649 0.92902 0.48397 0.0
H1546 H 0.30601 0.86949 0.42974 0.0
H1547 H 0.2588 0.90974 0.47646 0.0
C1548 C 0.23186 0.89554 0.45696 0.0
C1549 C 0.22551 0.88209 0.43862 0.0
C1550 C 0.31051 0.88242 0.44176 0.0
C1551 C 0.27039 0.88875 0.44969 0.0
C1552 C 0.33279 0.88864 0.44474 0.0
C1553 C 0.33903 0.90582 0.45972 0.0
C1554 C 0.29436 0.89343 0.45389 0.0
C1555 C 0.32245 0.91581 0.47209 0.0
C1556 C 0.25424 0.89894 0.46252 0.0
C1557 C 0.24215 0.87171 0.42666 0.0
N1558 N 0.30092 0.90957 0.46881 0.0
N1559 N 0.26376 0.87533 0.43233 0.0
H1560 H 0.20183 0.81316 0.66012 0.0
H1561 H 0.12405 0.73233 0.58524 0.0
H1562 H 0.1467 0.83568 0.62134 0.0
H1563 H 0.17933 0.71064 0.62439 0.0
H1564 H 0.13471 0.77066 0.59447 0.0
H1565 H 0.19659 0.77638 0.64336 0.0
C1566 C 0.18874 0.81042 0.64785 0.0
C1567 C 0.17453 0.82749 0.64229 0.0
C1568 C 0.14466 0.75754 0.60086 0.0
C1569 C 0.16826 0.78513 0.62313 0.0
C1570 C 0.1386 0.7356 0.59559 0.0
C1571 C 0.15068 0.71816 0.60424 0.0
C1572 C 0.16291 0.76217 0.61498 0.0
C1573 C 0.16944 0.7235 0.61743 0.0
C1574 C 0.18575 0.78936 0.63829 0.0
C1575 C 0.15801 0.823 0.62613 0.0
N1576 N 0.17484 0.745 0.62256 0.0
N1577 N 0.15515 0.80216 0.61732 0.0
H1578 H 0.22167 0.0878 0.62526 0.0
H1579 H 0.32713 0.16633 0.60724 0.0
H1580 H 0.21866 0.15553 0.605 0.0
H1581 H 0.33158 0.10087 0.63329 0.0
H1582 H 0.2877 0.16023 0.60108 0.0
H1583 H 0.26185 0.08984 0.62258 0.0
C1584 C 0.22938 0.10297 0.61982 0.0
C1585 C 0.21672 0.12163 0.61561 0.0
C1586 C 0.29724 0.1471 0.60803 0.0
C1587 C 0.26279 0.12409 0.61273 0.0
C1588 C 0.31982 0.15058 0.61162 0.0
C1589 C 0.33268 0.13418 0.6211 0.0
C1590 C 0.28721 0.12708 0.61404 0.0
C1591 C 0.32227 0.11401 0.62609 0.0
C1592 C 0.25237 0.10414 0.61843 0.0
C1593 C 0.2277 0.14079 0.6086 0.0
N1594 N 0.30007 0.1111 0.6227 0.0
N1595 N 0.25008 0.14158 0.60762 0.0
H1596 H 0.93606 0.20187 0.64765 0.0
H1597 H 0.88313 0.30909 0.59708 0.0
H1598 H 0.88846 0.19869 0.59373 0.0
H1599 H 0.93908 0.31198 0.6423 0.0
H1600 H 0.88543 0.26895 0.59493 0.0
H1601 H 0.9381 0.24196 0.6451 0.0
C1602 C 0.92611 0.20961 0.63512 0.0
C1603 C 0.91192 0.19684 0.62097 0.0
C1604 C 0.89733 0.27831 0.6052 0.0
C1605 C 0.91407 0.24309 0.61811 0.0
C1606 C 0.89601 0.3013 0.60653 0.0
C1607 C 0.91085 0.31401 0.62006 0.0
C1608 C 0.91348 0.26772 0.61769 0.0
C1609 C 0.92727 0.3029 0.6317 0.0
C1610 C 0.92734 0.23257 0.63367 0.0
C1611 C 0.89962 0.20784 0.60496 0.0
N1612 N 0.92801 0.28039 0.63041 0.0
N1613 N 0.90079 0.23036 0.60414 0.0
H1614 H 0.7361 0.90422 0.69314 0.0
H1615 H 0.85023 0.84633 0.66571 0.0
H1616 H 0.73889 0.83533 0.67353 0.0
H1617 H 0.84257 0.91639 0.67678 0.0
H1618 H 0.81073 0.84047 0.67272 0.0
H1619 H 0.77599 0.90727 0.69158 0.0
C1620 C 0.74511 0.88962 0.68858 0.0
C1621 C 0.73397 0.8695 0.68327 0.0
C1622 C 0.81778 0.85707 0.67379 0.0
C1623 C 0.78022 0.87298 0.68133 0.0
C1624 C 0.84036 0.86044 0.66991 0.0
C1625 C 0.84979 0.88193 0.67058 0.0
C1626 C 0.80458 0.8753 0.67852 0.0
C1627 C 0.83611 0.89955 0.67596 0.0
C1628 C 0.76802 0.8914 0.68768 0.0
C1629 C 0.74675 0.85117 0.67772 0.0
N1630 N 0.81431 0.89585 0.67964 0.0
N1631 N 0.76921 0.85338 0.67673 0.0
H1632 H 0.34393 0.15223 0.20901 0.0
H1633 H 0.38703 0.2186 0.31722 0.0
H1634 H 0.38248 0.21292 0.20649 0.0
H1635 H 0.34667 0.159 0.3163 0.0
H1636 H 0.38023 0.22138 0.27712 0.0
H1637 H 0.33889 0.15907 0.24829 0.0
C1638 C 0.35104 0.16721 0.21664 0.0
C1639 C 0.364 0.18176 0.20445 0.0
C1640 C 0.37242 0.20802 0.28585 0.0
C1641 C 0.3588 0.18951 0.24983 0.0
C1642 C 0.37616 0.20657 0.30872 0.0
C1643 C 0.36741 0.18853 0.31999 0.0
C1644 C 0.35985 0.19132 0.2744 0.0
C1645 C 0.35376 0.17315 0.30821 0.0
C1646 C 0.34824 0.1711 0.23917 0.0
C1647 C 0.37261 0.20105 0.21527 0.0
N1648 N 0.3506 0.17478 0.28613 0.0
N1649 N 0.37026 0.20414 0.23743 0.0
H1650 H 0.92488 0.38971 0.3119 0.0
H1651 H 0.91001 0.44391 0.19307 0.0
H1652 H 0.91798 0.45976 0.30317 0.0
H1653 H 0.90843 0.37375 0.20409 0.0
H1654 H 0.91669 0.45058 0.23283 0.0
H1655 H 0.92355 0.38411 0.27183 0.0
C1656 C 0.92345 0.40397 0.30159 0.0
C1657 C 0.92141 0.42523 0.31101 0.0
C1658 C 0.91492 0.43373 0.22648 0.0
C1659 C 0.91955 0.41889 0.26496 0.0
C1660 C 0.91106 0.42993 0.20379 0.0
C1661 C 0.90849 0.40825 0.19518 0.0
C1662 C 0.91636 0.41572 0.24062 0.0
C1663 C 0.91014 0.39077 0.2099 0.0
C1664 C 0.92252 0.40075 0.27866 0.0
C1665 C 0.9195 0.44305 0.2967 0.0
N1666 N 0.91394 0.39488 0.23179 0.0
N1667 N 0.91846 0.43947 0.27445 0.0
H1668 H 0.68681 0.91908 0.23822 0.0
H1669 H 0.63879 0.87309 0.35062 0.0
H1670 H 0.62248 0.88727 0.24048 0.0
H1671 H 0.69427 0.91869 0.34676 0.0
H1672 H 0.63399 0.87423 0.31021 0.0
H1673 H 0.69085 0.9159 0.27791 0.0
C1674 C 0.67341 0.91153 0.24712 0.0
C1675 C 0.65424 0.9035 0.23598 0.0
C1676 C 0.64727 0.88384 0.31827 0.0
C1677 C 0.6589 0.89951 0.28177 0.0
C1678 C 0.65017 0.88301 0.34126 0.0
C1679 C 0.66699 0.8958 0.35205 0.0
C1680 C 0.66145 0.89736 0.30609 0.0
C1681 C 0.68106 0.90861 0.33917 0.0
C1682 C 0.67575 0.90968 0.26985 0.0
C1683 C 0.63745 0.89387 0.24846 0.0
N1684 N 0.67797 0.90905 0.31698 0.0
N1685 N 0.64021 0.892 0.27073 0.0
H1686 H 0.17277 0.62242 0.17862 0.0
H1687 H 0.10928 0.63407 0.29303 0.0
H1688 H 0.10584 0.64478 0.18212 0.0
H1689 H 0.17843 0.62027 0.28705 0.0
H1690 H 0.10571 0.63382 0.25249 0.0
H1691 H 0.17291 0.61666 0.21819 0.0
C1692 C 0.15797 0.62589 0.18765 0.0
C1693 C 0.13934 0.63428 0.17695 0.0
C1694 C 0.12161 0.63072 0.26012 0.0
C1695 C 0.13947 0.62795 0.22268 0.0
C1696 C 0.12364 0.63083 0.28324 0.0
C1697 C 0.14423 0.62736 0.29351 0.0
C1698 C 0.14025 0.62692 0.24723 0.0
C1699 C 0.16227 0.62324 0.27997 0.0
C1700 C 0.15809 0.62267 0.21035 0.0
C1701 C 0.12061 0.63833 0.18965 0.0
N1702 N 0.15986 0.62319 0.25767 0.0
N1703 N 0.12122 0.63533 0.21187 0.0
H1704 H 0.43035 0.91562 0.8768 0.0
H1705 H 0.443 0.84834 0.76285 0.0
H1706 H 0.44168 0.84563 0.87101 0.0
H1707 H 0.42943 0.91799 0.7657 0.0
H1708 H 0.44707 0.84867 0.80273 0.0
H1709 H 0.43479 0.91842 0.83686 0.0
C1710 C 0.43423 0.90092 0.86724 0.0
C1711 C 0.43545 0.88029 0.8773 0.0
C1712 C 0.44331 0.86397 0.79476 0.0
C1713 C 0.44029 0.88338 0.83156 0.0
C1714 C 0.44092 0.8638 0.77188 0.0
C1715 C 0.43558 0.88313 0.76087 0.0
C1716 C 0.44018 0.88359 0.80699 0.0
C1717 C 0.43344 0.90269 0.77353 0.0
C1718 C 0.43661 0.90253 0.8444 0.0
C1719 C 0.4404 0.86183 0.86402 0.0
N1720 N 0.43552 0.90238 0.79598 0.0
N1721 N 0.44244 0.86379 0.84189 0.0
H1722 H 0.09332 0.38239 0.81456 0.0
H1723 H 0.15735 0.44091 0.71887 0.0
H1724 H 0.13457 0.44077 0.82606 0.0
H1725 H 0.10284 0.3949 0.7062 0.0
H1726 H 0.14833 0.44215 0.7579 0.0
H1727 H 0.09548 0.38759 0.7749 0.0
C1728 C 0.10268 0.39646 0.80872 0.0
C1729 C 0.11395 0.41108 0.82363 0.0
C1730 C 0.13814 0.432 0.74659 0.0
C1731 C 0.1167 0.41698 0.77812 0.0
C1732 C 0.14331 0.43122 0.72429 0.0
C1733 C 0.13093 0.41762 0.70929 0.0
C1734 C 0.12066 0.41879 0.7541 0.0
C1735 C 0.11282 0.40558 0.7172 0.0
C1736 C 0.10384 0.39945 0.78605 0.0
C1737 C 0.12564 0.42912 0.81514 0.0
N1738 N 0.10843 0.40619 0.73914 0.0
N1739 N 0.12699 0.43138 0.79291 0.0
H1740 H 0.62895 0.14823 0.71414 0.0
H1741 H 0.6197 0.09258 0.83249 0.0
H1742 H 0.64167 0.07978 0.72665 0.0
H1743 H 0.60928 0.16193 0.82245 0.0
H1744 H 0.6246 0.08728 0.7929 0.0
H1745 H 0.61953 0.15359 0.75312 0.0
C1746 C 0.62984 0.13438 0.72504 0.0
C1747 C 0.63621 0.11356 0.71707 0.0
C1748 C 0.62105 0.10365 0.7993 0.0
C1749 C 0.62524 0.11947 0.76155 0.0
C1750 C 0.6181 0.10665 0.82194 0.0
C1751 C 0.61418 0.12775 0.83091 0.0
C1752 C 0.62018 0.12188 0.78541 0.0
C1753 C 0.61234 0.14535 0.81633 0.0
C1754 C 0.62437 0.13741 0.74726 0.0
C1755 C 0.63693 0.09616 0.73196 0.0
N1756 N 0.61554 0.14207 0.79435 0.0
N1757 N 0.63154 0.09951 0.75337 0.0
H1758 H 0.8973 0.64677 0.79279 0.0
H1759 H 0.86171 0.61384 0.66796 0.0
H1760 H 0.84734 0.5973 0.77442 0.0
H1761 H 0.91162 0.66367 0.68549 0.0
H1762 H 0.85382 0.61015 0.70707 0.0
H1763 H 0.90054 0.65579 0.75376 0.0
C1764 C 0.88688 0.63797 0.78061 0.0
C1765 C 0.87219 0.62112 0.78688 0.0
C1766 C 0.86638 0.62203 0.70236 0.0
C1767 C 0.87584 0.63124 0.74225 0.0
C1768 C 0.87085 0.62417 0.67999 0.0
C1769 C 0.88748 0.63894 0.6734 0.0
C1770 C 0.87867 0.63468 0.71829 0.0
C1771 C 0.89876 0.65193 0.68978 0.0
C1772 C 0.88875 0.64308 0.75833 0.0
C1773 C 0.85907 0.61026 0.77037 0.0
N1774 N 0.89428 0.64937 0.71144 0.0
N1775 N 0.8613 0.6154 0.74888 0.0
H1776 H 0.21926 0.40631 0.09956 0.0
H1777 H 0.3427 0.38772 0.14392 0.0
H1778 H 0.23496 0.38106 0.16372 0.0
H1779 H 0.32738 0.43429 0.09346 0.0
H1780 H 0.30339 0.37854 0.14653 0.0
H1781 H 0.25891 0.40999 0.09247 0.0
C1782 C 0.231 0.40116 0.112 0.0
C1783 C 0.22375 0.39344 0.13232 0.0
C1784 C 0.30865 0.39064 0.13476 0.0
C1785 C 0.26909 0.39759 0.12426 0.0
C1786 C 0.33113 0.39585 0.13317 0.0
C1787 C 0.33844 0.41195 0.11853 0.0
C1788 C 0.29323 0.40138 0.12147 0.0
C1789 C 0.32253 0.42188 0.10507 0.0
C1790 C 0.25362 0.40343 0.10799 0.0
C1791 C 0.23977 0.3872 0.14787 0.0
N1792 N 0.30069 0.41648 0.10689 0.0
N1793 N 0.26163 0.38942 0.14354 0.0
H1794 H 0.20156 0.62903 0.81831 0.0
H1795 H 0.3061 0.60626 0.89657 0.0
H1796 H 0.19686 0.59119 0.87737 0.0
H1797 H 0.31023 0.63872 0.83424 0.0
H1798 H 0.26663 0.59913 0.88939 0.0
H1799 H 0.24158 0.6309 0.82317 0.0
C1800 C 0.20897 0.62088 0.83222 0.0
C1801 C 0.19573 0.60999 0.84749 0.0
C1802 C 0.27619 0.60768 0.87722 0.0
C1803 C 0.2419 0.61236 0.85338 0.0
C1804 C 0.29877 0.61181 0.88131 0.0
C1805 C 0.31162 0.62324 0.86603 0.0
C1806 C 0.26621 0.6151 0.85774 0.0
C1807 C 0.30109 0.62992 0.84654 0.0
C1808 C 0.2319 0.62199 0.83501 0.0
C1809 C 0.20638 0.59969 0.86513 0.0
N1810 N 0.27907 0.62587 0.84304 0.0
N1811 N 0.2288 0.60132 0.86772 0.0
H1812 H 0.34463 0.20451 0.88978 0.0
H1813 H 0.37275 0.31421 0.96338 0.0
H1814 H 0.36241 0.20244 0.95894 0.0
H1815 H 0.35824 0.31244 0.89339 0.0
H1816 H 0.36561 0.2739 0.96376 0.0
H1817 H 0.34534 0.24475 0.89253 0.0
C1818 C 0.34836 0.21251 0.90564 0.0
C1819 C 0.35353 0.20001 0.9241 0.0
C1820 C 0.36391 0.28246 0.94839 0.0
C1821 C 0.35484 0.24637 0.92736 0.0
C1822 C 0.36799 0.30543 0.94818 0.0
C1823 C 0.36634 0.31674 0.9283 0.0
C1824 C 0.358 0.27088 0.92861 0.0
C1825 C 0.36001 0.30452 0.9091 0.0
C1826 C 0.34889 0.23556 0.90721 0.0
C1827 C 0.35824 0.21139 0.94426 0.0
N1828 N 0.35617 0.2824 0.90975 0.0
N1829 N 0.35903 0.23392 0.9453 0.0
H1830 H 0.8134 0.3353 0.89628 0.0
H1831 H 0.7025 0.39614 0.93025 0.0
H1832 H 0.8105 0.40502 0.91238 0.0
H1833 H 0.70383 0.33288 0.89619 0.0
H1834 H 0.74309 0.39633 0.93323 0.0
H1835 H 0.77424 0.33123 0.90498 0.0
C1836 C 0.80461 0.3497 0.90184 0.0
C1837 C 0.81519 0.37058 0.90327 0.0
C1838 C 0.73443 0.38217 0.92559 0.0
C1839 C 0.77042 0.36602 0.91345 0.0
C1840 C 0.71131 0.38195 0.92417 0.0
C1841 C 0.69994 0.36445 0.91303 0.0
C1842 C 0.74608 0.36469 0.91591 0.0
C1843 C 0.71208 0.34667 0.90493 0.0
C1844 C 0.78226 0.34738 0.90681 0.0
C1845 C 0.80296 0.38865 0.91071 0.0
N1846 N 0.73447 0.34731 0.90636 0.0
N1847 N 0.78122 0.38598 0.91539 0.0
H1848 H 0.68014 0.70572 0.89414 0.0
H1849 H 0.60262 0.8052 0.92841 0.0
H1850 H 0.61239 0.69701 0.9133 0.0
H1851 H 0.67187 0.81471 0.91547 0.0
H1852 H 0.60677 0.76542 0.92481 0.0
H1853 H 0.67838 0.74508 0.9039 0.0
C1854 C 0.66495 0.712 0.90065 0.0
C1855 C 0.64633 0.69795 0.90277 0.0
C1856 C 0.62114 0.77611 0.92287 0.0
C1857 C 0.64418 0.74323 0.9138 0.0
C1858 C 0.61879 0.79893 0.92488 0.0
C1859 C 0.63691 0.81343 0.92209 0.0
C1860 C 0.64176 0.76748 0.9178 0.0
C1861 C 0.65745 0.80419 0.91773 0.0
C1862 C 0.66397 0.73453 0.9062 0.0
C1863 C 0.62716 0.70712 0.91136 0.0
N1864 N 0.65928 0.78181 0.91553 0.0
N1865 N 0.62654 0.72916 0.91634 0.0
H1866 H 0.8063 0.64798 0.06585 0.0
H1867 H 0.7069 0.68199 0.14201 0.0
H1868 H 0.81147 0.69854 0.11727 0.0
H1869 H 0.69871 0.63618 0.08664 0.0
H1870 H 0.74423 0.69071 0.13062 0.0
H1871 H 0.76636 0.64616 0.07034 0.0
C1872 C 0.799 0.65898 0.07787 0.0
C1873 C 0.81232 0.67328 0.09139 0.0
C1874 C 0.73431 0.67887 0.12079 0.0
C1875 C 0.76651 0.67106 0.09677 0.0
C1876 C 0.71296 0.67378 0.12734 0.0
C1877 C 0.69977 0.65805 0.11543 0.0
C1878 C 0.74283 0.66798 0.10228 0.0
C1879 C 0.70838 0.6483 0.09635 0.0
C1880 C 0.77616 0.65789 0.08042 0.0
C1881 C 0.8019 0.68723 0.10653 0.0
N1882 N 0.72953 0.6532 0.09051 0.0
N1883 N 0.77966 0.68554 0.10901 0.0
H1884 H 0.36416 0.7532 0.13464 0.0
H1885 H 0.41794 0.83929 0.22354 0.0
H1886 H 0.40236 0.7335 0.19134 0.0
H1887 H 0.37722 0.85846 0.16841 0.0
H1888 H 0.41017 0.80053 0.21364 0.0
H1889 H 0.36688 0.79145 0.14807 0.0
C1890 C 0.3731 0.75687 0.14999 0.0
C1891 C 0.3832 0.74001 0.16178 0.0
C1892 C 0.40273 0.81316 0.20381 0.0
C1893 C 0.38636 0.78414 0.17733 0.0
C1894 C 0.40712 0.83537 0.20947 0.0
C1895 C 0.39832 0.85225 0.19671 0.0
C1896 C 0.38955 0.80762 0.1851 0.0
C1897 C 0.38435 0.84606 0.17875 0.0
C1898 C 0.37459 0.7788 0.15768 0.0
C1899 C 0.39438 0.74591 0.18165 0.0
N1900 N 0.38058 0.82427 0.17336 0.0
N1901 N 0.39578 0.76748 0.18872 0.0
H1902 H 0.63191 0.32446 0.17065 0.0
H1903 H 0.66624 0.20245 0.13107 0.0
H1904 H 0.66644 0.30978 0.11075 0.0
H1905 H 0.6221 0.21467 0.18468 0.0
H1906 H 0.6703 0.24236 0.1264 0.0
H1907 H 0.63163 0.28486 0.17889 0.0
C1908 C 0.63952 0.31298 0.15932 0.0
C1909 C 0.64905 0.32048 0.1399 0.0
C1910 C 0.65982 0.23632 0.13928 0.0
C1911 C 0.64891 0.27525 0.14925 0.0
C1912 C 0.65758 0.2135 0.14202 0.0
C1913 C 0.64371 0.20512 0.1582 0.0
C1914 C 0.64817 0.25097 0.15287 0.0
C1915 C 0.63288 0.22034 0.17188 0.0
C1916 C 0.63933 0.29039 0.16399 0.0
C1917 C 0.6587 0.30482 0.12582 0.0
N1918 N 0.63526 0.24247 0.16885 0.0
N1919 N 0.65836 0.28305 0.13075 0.0
H1920 H 0.94061 0.68812 0.62226 0.0
H1921 H 0.9132 0.81319 0.59338 0.0
H1922 H 0.90517 0.70615 0.5632 0.0
H1923 H 0.94132 0.79315 0.65546 0.0
H1924 H 0.91507 0.77485 0.57945 0.0
H1925 H 0.94649 0.72731 0.63178 0.0
C1926 C 0.93439 0.70029 0.61108 0.0
C1927 C 0.92215 0.69378 0.59202 0.0
C1928 C 0.92097 0.77892 0.59607 0.0
C1929 C 0.92858 0.73878 0.60298 0.0
C1930 C 0.91992 0.8008 0.604 0.0
C1931 C 0.92687 0.80635 0.6257 0.0
C1932 C 0.92914 0.76254 0.6099 0.0
C1933 C 0.93551 0.78962 0.63871 0.0
C1934 C 0.93763 0.72271 0.6166 0.0
C1935 C 0.91451 0.71037 0.57818 0.0
N1936 N 0.93629 0.76852 0.63067 0.0
N1937 N 0.91765 0.73208 0.58404 0.0
H1938 H 0.23554 0.89406 0.71659 0.0
H1939 H 0.35384 0.86587 0.66696 0.0
H1940 H 0.24659 0.87861 0.64794 0.0
H1941 H 0.346 0.89701 0.731 0.0
H1942 H 0.3136 0.86426 0.662 0.0
H1943 H 0.27519 0.88953 0.7243 0.0
C1944 C 0.24623 0.88959 0.7032 0.0
C1945 C 0.23776 0.88696 0.68156 0.0
C1946 C 0.3207 0.87128 0.67722 0.0
C1947 C 0.28295 0.88154 0.69024 0.0
C1948 C 0.34368 0.87208 0.6801 0.0
C1949 C 0.35335 0.88177 0.69933 0.0
C1950 C 0.30726 0.8801 0.69374 0.0
C1951 C 0.33929 0.88959 0.71579 0.0
C1952 C 0.26884 0.88704 0.70758 0.0
C1953 C 0.25239 0.8811 0.66484 0.0
N1954 N 0.317 0.88869 0.71259 0.0
N1955 N 0.27418 0.87862 0.66952 0.0
H1956 H 0.17836 0.3342 0.62823 0.0
H1957 H 0.15086 0.2161 0.68033 0.0
H1958 H 0.13551 0.32504 0.68332 0.0
H1959 H 0.18872 0.22471 0.6216 0.0
H1960 H 0.149 0.25645 0.68463 0.0
H1961 H 0.18624 0.29463 0.62839 0.0
C1962 C 0.17082 0.32396 0.64051 0.0
C1963 C 0.15611 0.33299 0.65565 0.0
C1964 C 0.15788 0.24949 0.67091 0.0
C1965 C 0.16496 0.28762 0.6559 0.0
C1966 C 0.15903 0.22644 0.66852 0.0
C1967 C 0.1698 0.21695 0.65049 0.0
C1968 C 0.16763 0.26316 0.65519 0.0
C1969 C 0.18004 0.23123 0.63566 0.0
C1970 C 0.17525 0.30133 0.64056 0.0
C1971 C 0.1468 0.31884 0.67118 0.0
N1972 N 0.17859 0.25353 0.63826 0.0
N1973 N 0.15127 0.29692 0.67082 0.0
H1974 H 0.71288 0.08255 0.62606 0.0
H1975 H 0.83338 0.1275 0.66642 0.0
H1976 H 0.72431 0.12521 0.68343 0.0
H1977 H 0.81866 0.09792 0.60215 0.0
H1978 H 0.79453 0.12141 0.67611 0.0
H1979 H 0.75284 0.08217 0.6205 0.0
C1980 C 0.72379 0.09151 0.6377 0.0
C1981 C 0.7152 0.10409 0.65511 0.0
C1982 C 0.7999 0.11616 0.65994 0.0
C1983 C 0.76093 0.10389 0.64878 0.0
C1984 C 0.82206 0.1196 0.65443 0.0
C1985 C 0.82925 0.11346 0.63337 0.0
C1986 C 0.78493 0.10627 0.64435 0.0
C1987 C 0.81385 0.10321 0.6185 0.0
C1988 C 0.74659 0.09143 0.63445 0.0
C1989 C 0.73017 0.11546 0.66964 0.0
N1990 N 0.79249 0.1 0.62424 0.0
N1991 N 0.75224 0.11521 0.66608 0.0
H1992 H 0.88056 0.34463 0.39829 0.0
H1993 H 0.88633 0.2339 0.32386 0.0
H1994 H 0.87376 0.34114 0.32733 0.0
H1995 H 0.89093 0.23285 0.39493 0.0
H1996 H 0.88084 0.2733 0.32591 0.0
H1997 H 0.88248 0.30411 0.39851 0.0
C1998 C 0.87906 0.33537 0.3828 0.0
C1999 C 0.87711 0.34639 0.36272 0.0
C2000 C 0.88303 0.26461 0.34115 0.0
C2001 C 0.87961 0.30008 0.36288 0.0
C2002 C 0.88627 0.24196 0.34001 0.0
C2003 C 0.88915 0.22988 0.35928 0.0
C2004 C 0.88269 0.27568 0.36173 0.0
C2005 C 0.88888 0.24148 0.37965 0.0
C2006 C 0.88033 0.31224 0.38295 0.0
C2007 C 0.87539 0.33348 0.3432 0.0
N2008 N 0.88572 0.26379 0.38036 0.0
N2009 N 0.87683 0.31115 0.34379 0.0
H2010 H 0.84245 0.89089 0.45827 0.0
H2011 H 0.72446 0.94181 0.43141 0.0
H2012 H 0.83442 0.95937 0.44246 0.0
H2013 H 0.7346 0.87508 0.45215 0.0
H2014 H 0.76409 0.94996 0.43797 0.0
H2015 H 0.80243 0.88609 0.45908 0.0
C2016 C 0.83228 0.90501 0.45525 0.0
C2017 C 0.84186 0.92551 0.45016 0.0
C2018 C 0.75753 0.9336 0.44126 0.0
C2019 C 0.79579 0.92008 0.45068 0.0
C2020 C 0.73493 0.92898 0.43753 0.0
C2021 C 0.72622 0.90767 0.44098 0.0
C2022 C 0.77141 0.9168 0.44848 0.0
C2023 C 0.74055 0.89167 0.44896 0.0
C2024 C 0.80936 0.90227 0.45565 0.0
C2025 C 0.82777 0.94324 0.44645 0.0
N2026 N 0.76234 0.89652 0.45228 0.0
N2027 N 0.80545 0.94006 0.44651 0.0
H2028 H 0.17276 0.69557 0.39808 0.0
H2029 H 0.14295 0.8222 0.37783 0.0
H2030 H 0.13598 0.71684 0.34109 0.0
H2031 H 0.17419 0.79938 0.43735 0.0
H2032 H 0.14301 0.78428 0.36252 0.0
H2033 H 0.17663 0.73414 0.41098 0.0
C2034 C 0.16573 0.70834 0.38813 0.0
C2035 C 0.15394 0.70288 0.36851 0.0
C2036 C 0.14991 0.78761 0.3789 0.0
C2037 C 0.15813 0.74715 0.3833 0.0
C2038 C 0.14988 0.80927 0.38764 0.0
C2039 C 0.15846 0.81401 0.40896 0.0
C2040 C 0.15867 0.77058 0.39153 0.0
C2041 C 0.16727 0.79655 0.4209 0.0
C2042 C 0.16784 0.73039 0.39557 0.0
C2043 C 0.14511 0.72021 0.35637 0.0
N2044 N 0.1671 0.77568 0.41206 0.0
N2045 N 0.14729 0.7415 0.364 0.0
H2046 H 0.3246 0.15742 0.34991 0.0
H2047 H 0.20129 0.11206 0.36192 0.0
H2048 H 0.3027 0.12896 0.41031 0.0
H2049 H 0.21531 0.1755 0.33385 0.0
H2050 H 0.24075 0.10859 0.37072 0.0
H2051 H 0.28663 0.15433 0.33503 0.0
C2052 C 0.31194 0.14987 0.35977 0.0
C2053 C 0.31682 0.14328 0.38133 0.0
C2054 C 0.23516 0.12304 0.36225 0.0
C2055 C 0.27351 0.13966 0.36436 0.0
C2056 C 0.21272 0.12499 0.35704 0.0
C2057 C 0.205 0.14414 0.34711 0.0
C2058 C 0.25007 0.14005 0.35695 0.0
C2059 C 0.22056 0.16049 0.3415 0.0
C2060 C 0.29029 0.14835 0.35135 0.0
C2061 C 0.29964 0.13415 0.3936 0.0
N2062 N 0.24239 0.15807 0.34647 0.0
N2063 N 0.27873 0.13255 0.38493 0.0
H2064 H 0.67052 0.89807 0.74079 0.0
H2065 H 0.59965 0.8892 0.85061 0.0
H2066 H 0.6009 0.88114 0.73862 0.0
H2067 H 0.6703 0.88329 0.84752 0.0
H2068 H 0.59838 0.89457 0.81034 0.0
H2069 H 0.669 0.90219 0.78082 0.0
C2070 C 0.65481 0.89559 0.74866 0.0
C2071 C 0.63589 0.88891 0.73627 0.0
C2072 C 0.61412 0.89226 0.81863 0.0
C2073 C 0.63409 0.89339 0.78231 0.0
C2074 C 0.61484 0.88923 0.84153 0.0
C2075 C 0.63506 0.88548 0.85234 0.0
C2076 C 0.63382 0.89202 0.80674 0.0
C2077 C 0.65429 0.88574 0.83985 0.0
C2078 C 0.65398 0.89783 0.77157 0.0
C2079 C 0.61596 0.8861 0.7475 0.0
N2080 N 0.65318 0.88894 0.81782 0.0
N2081 N 0.61562 0.8881 0.76992 0.0
H2082 H 0.12156 0.65142 0.79053 0.0
H2083 H 0.09164 0.59673 0.67147 0.0
H2084 H 0.09394 0.58564 0.77918 0.0
H2085 H 0.11853 0.66312 0.68009 0.0
H2086 H 0.08905 0.59427 0.71136 0.0
H2087 H 0.11756 0.65792 0.75073 0.0
C2088 C 0.11444 0.63847 0.77976 0.0
C2089 C 0.10829 0.61788 0.7882 0.0
C2090 C 0.09534 0.60949 0.70459 0.0
C2091 C 0.10372 0.62513 0.74279 0.0
C2092 C 0.09676 0.61092 0.68173 0.0
C2093 C 0.10543 0.6301 0.67234 0.0
C2094 C 0.10283 0.6273 0.71835 0.0
C2095 C 0.11175 0.64797 0.68658 0.0
C2096 C 0.11221 0.64215 0.75705 0.0
C2097 C 0.09918 0.60169 0.77346 0.0
N2098 N 0.11055 0.64606 0.70887 0.0
N2099 N 0.0973 0.60562 0.75159 0.0
H2100 H 0.41547 0.13556 0.82573 0.0
H2101 H 0.35691 0.16669 0.71088 0.0
H2102 H 0.35052 0.16247 0.81859 0.0
H2103 H 0.42286 0.14159 0.71371 0.0
H2104 H 0.35601 0.16687 0.7509 0.0
H2105 H 0.42013 0.13882 0.78559 0.0
C2106 C 0.40227 0.14223 0.81583 0.0
C2107 C 0.38251 0.14862 0.82568 0.0
C2108 C 0.37081 0.16143 0.74292 0.0
C2109 C 0.38774 0.15242 0.77979 0.0
C2110 C 0.37135 0.16137 0.71994 0.0
C2111 C 0.38997 0.15407 0.70877 0.0
C2112 C 0.38895 0.15392 0.7552 0.0
C2113 C 0.40818 0.14746 0.72159 0.0
C2114 C 0.40493 0.14408 0.79291 0.0
C2115 C 0.366 0.15716 0.81193 0.0
N2116 N 0.40715 0.14734 0.74411 0.0
N2117 N 0.36897 0.15872 0.78989 0.0
H2118 H 0.88705 0.44321 0.70071 0.0
H2119 H 0.86145 0.36698 0.80373 0.0
H2120 H 0.87625 0.37251 0.69595 0.0
H2121 H 0.88205 0.43553 0.81138 0.0
H2122 H 0.86292 0.37006 0.7639 0.0
H2123 H 0.88123 0.44197 0.74053 0.0
C2124 C 0.88315 0.42745 0.70793 0.0
C2125 C 0.88219 0.40791 0.69484 0.0
C2126 C 0.86707 0.38449 0.77421 0.0
C2127 C 0.87565 0.4064 0.74059 0.0
C2128 C 0.86622 0.38278 0.79707 0.0
C2129 C 0.87175 0.40101 0.8111 0.0
C2130 C 0.87348 0.40463 0.765 0.0
C2131 C 0.8777 0.42102 0.80128 0.0
C2132 C 0.87997 0.42676 0.73074 0.0
C2133 C 0.87722 0.388 0.70528 0.0
N2134 N 0.87847 0.42228 0.77885 0.0
N2135 N 0.87422 0.38778 0.72745 0.0
H2136 H 0.58333 0.11385 0.32437 0.0
H2137 H 0.66656 0.10616 0.22413 0.0
H2138 H 0.65293 0.10153 0.33132 0.0
H2139 H 0.59851 0.12414 0.21556 0.0
H2140 H 0.66005 0.09934 0.26274 0.0
H2141 H 0.58677 0.11213 0.2842 0.0
C2142 C 0.59924 0.11026 0.3175 0.0
C2143 C 0.61793 0.10799 0.33131 0.0
C2144 C 0.64645 0.10467 0.25249 0.0
C2145 C 0.62198 0.10631 0.2853 0.0
C2146 C 0.65016 0.10863 0.23035 0.0
C2147 C 0.63311 0.11601 0.21655 0.0
C2148 C 0.62552 0.10819 0.26118 0.0
C2149 C 0.61216 0.11859 0.22561 0.0
C2150 C 0.6012 0.10948 0.29453 0.0
C2151 C 0.63811 0.10354 0.32139 0.0
N2152 N 0.60899 0.11488 0.24743 0.0
N2153 N 0.63961 0.10305 0.29906 0.0
H2154 H 0.84486 0.67125 0.29453 0.0
H2155 H 0.89661 0.64019 0.17715 0.0
H2156 H 0.90467 0.63484 0.28678 0.0
H2157 H 0.84026 0.68163 0.18524 0.0
H2158 H 0.89739 0.63446 0.21705 0.0
H2159 H 0.84054 0.67186 0.25426 0.0
C2160 C 0.85698 0.66325 0.2844 0.0
C2161 C 0.87523 0.65313 0.2941 0.0
C2162 C 0.88475 0.64468 0.21004 0.0
C2163 C 0.87043 0.65377 0.24798 0.0
C2164 C 0.88425 0.64786 0.18725 0.0
C2165 C 0.86846 0.66154 0.17782 0.0
C2166 C 0.86931 0.6552 0.22351 0.0
C2167 C 0.85287 0.6711 0.19176 0.0
C2168 C 0.85454 0.66363 0.2614 0.0
C2169 C 0.89041 0.64301 0.28009 0.0
N2170 N 0.85377 0.66785 0.21385 0.0
N2171 N 0.88773 0.64366 0.25782 0.0
H2172 H 0.4325 0.90272 0.26519 0.0
H2173 H 0.41679 0.96509 0.38211 0.0
H2174 H 0.42077 0.97261 0.2707 0.0
H2175 H 0.40167 0.89585 0.36944 0.0
H2176 H 0.426 0.96867 0.3429 0.0
H2177 H 0.42999 0.9005 0.30541 0.0
C2178 C 0.42991 0.91767 0.27488 0.0
C2179 C 0.42672 0.93785 0.26455 0.0
C2180 C 0.42071 0.95272 0.34884 0.0
C2181 C 0.42367 0.93542 0.31054 0.0
C2182 C 0.41543 0.95069 0.37115 0.0
C2183 C 0.40816 0.93022 0.37905 0.0
C2184 C 0.41919 0.93404 0.33451 0.0
C2185 C 0.40687 0.91205 0.36411 0.0
C2186 C 0.42826 0.91637 0.29781 0.0
C2187 C 0.42318 0.95668 0.27798 0.0
N2188 N 0.41238 0.91437 0.34269 0.0
N2189 N 0.42166 0.95501 0.30024 0.0
H2190 H 0.1427 0.35016 0.31057 0.0
H2191 H 0.1432 0.4306 0.20791 0.0
H2192 H 0.12892 0.41937 0.31864 0.0
H2193 H 0.14429 0.35936 0.20322 0.0
H2194 H 0.13785 0.42806 0.24802 0.0
H2195 H 0.14255 0.35412 0.27081 0.0
C2196 C 0.13929 0.36618 0.30388 0.0
C2197 C 0.13573 0.38442 0.31792 0.0
C2198 C 0.13916 0.41305 0.23809 0.0
C2199 C 0.13612 0.38935 0.27206 0.0
C2200 C 0.14232 0.41448 0.21524 0.0
C2201 C 0.14436 0.39518 0.20211 0.0
C2202 C 0.13815 0.39217 0.24779 0.0
C2203 C 0.14294 0.37475 0.21252 0.0
C2204 C 0.13929 0.36849 0.28111 0.0
C2205 C 0.13149 0.40483 0.30834 0.0
N2206 N 0.14004 0.37384 0.23458 0.0
N2207 N 0.13209 0.40685 0.28595 0.0
H2208 H 0.69223 0.57627 0.84759 0.0
H2209 H 0.80447 0.64877 0.85357 0.0
H2210 H 0.695 0.6476 0.84898 0.0
H2211 H 0.80322 0.57746 0.85363 0.0
H2212 H 0.76449 0.6482 0.84983 0.0
H2213 H 0.73254 0.57605 0.84703 0.0
C2214 C 0.70126 0.59192 0.84747 0.0
C2215 C 0.69008 0.61202 0.84843 0.0
C2216 C 0.77286 0.63263 0.85062 0.0
C2217 C 0.73646 0.61181 0.84805 0.0
C2218 C 0.79581 0.63291 0.85282 0.0
C2219 C 0.80737 0.6131 0.85403 0.0
C2220 C 0.76109 0.61238 0.84962 0.0
C2221 C 0.79505 0.59313 0.85286 0.0
C2222 C 0.72434 0.59174 0.84726 0.0
C2223 C 0.7028 0.63171 0.84824 0.0
N2224 N 0.77257 0.59328 0.85077 0.0
N2225 N 0.72524 0.63109 0.84823 0.0
H2226 H 0.71447 0.40036 0.09326 0.0
H2227 H 0.83579 0.37086 0.13741 0.0
H2228 H 0.72777 0.36602 0.1534 0.0
H2229 H 0.82356 0.40503 0.07694 0.0
H2230 H 0.79595 0.36628 0.1418 0.0
H2231 H 0.75404 0.39995 0.08535 0.0
C2232 C 0.72564 0.39263 0.10471 0.0
C2233 C 0.71775 0.38337 0.1241 0.0
C2234 C 0.80197 0.37463 0.12746 0.0
C2235 C 0.76303 0.38284 0.1152 0.0
C2236 C 0.82477 0.37717 0.12491 0.0
C2237 C 0.83312 0.38848 0.10686 0.0
C2238 C 0.78733 0.38352 0.1119 0.0
C2239 C 0.81793 0.3963 0.0912 0.0
C2240 C 0.74824 0.3924 0.10022 0.0
C2241 C 0.73304 0.37354 0.13833 0.0
N2242 N 0.79583 0.39383 0.09417 0.0
N2243 N 0.75485 0.37363 0.13366 0.0
H2244 H 0.66575 0.7206 0.11925 0.0
H2245 H 0.6291 0.81756 0.20108 0.0
H2246 H 0.62435 0.70936 0.17506 0.0
H2247 H 0.66927 0.82762 0.14414 0.0
H2248 H 0.63046 0.77769 0.19446 0.0
H2249 H 0.67039 0.75917 0.13077 0.0
C2250 C 0.65764 0.72624 0.13404 0.0
C2251 C 0.64434 0.71176 0.14605 0.0
C2252 C 0.63915 0.78858 0.18353 0.0
C2253 C 0.64963 0.75624 0.15937 0.0
C2254 C 0.63842 0.8114 0.18729 0.0
C2255 C 0.64893 0.82602 0.173 0.0
C2256 C 0.65043 0.78025 0.1653 0.0
C2257 C 0.66086 0.81701 0.15553 0.0
C2258 C 0.66038 0.74833 0.14063 0.0
C2259 C 0.63464 0.71998 0.16527 0.0
N2260 N 0.66112 0.79472 0.15207 0.0
N2261 N 0.63728 0.74178 0.17122 0.0
H2262 H 0.20891 0.65545 0.08132 0.0
H2263 H 0.30491 0.69643 0.16592 0.0
H2264 H 0.19771 0.69712 0.13855 0.0
H2265 H 0.31709 0.66067 0.10511 0.0
H2266 H 0.26598 0.69807 0.15541 0.0
H2267 H 0.24857 0.6587 0.08876 0.0
C2268 C 0.2148 0.66549 0.09537 0.0
C2269 C 0.19989 0.67594 0.10941 0.0
C2270 C 0.27713 0.68996 0.14427 0.0
C2271 C 0.24552 0.67953 0.11817 0.0
C2272 C 0.29943 0.68895 0.15028 0.0
C2273 C 0.31436 0.67825 0.13644 0.0
C2274 C 0.26949 0.68007 0.12429 0.0
C2275 C 0.30621 0.66904 0.11632 0.0
C2276 C 0.23751 0.66732 0.0996 0.0
C2277 C 0.20856 0.68881 0.12727 0.0
N2278 N 0.28431 0.67003 0.11093 0.0
N2279 N 0.23078 0.69006 0.13126 0.0
H2280 H 0.45398 0.23828 0.13782 0.0
H2281 H 0.41951 0.35631 0.18583 0.0
H2282 H 0.4257 0.2476 0.20199 0.0
H2283 H 0.44995 0.34526 0.12299 0.0
H2284 H 0.42645 0.31764 0.19485 0.0
H2285 H 0.45788 0.2783 0.13496 0.0
C2286 C 0.44896 0.24871 0.15149 0.0
C2287 C 0.43924 0.2395 0.17004 0.0
C2288 C 0.43188 0.32382 0.17923 0.0
C2289 C 0.44323 0.28555 0.1667 0.0
C2290 C 0.42799 0.3459 0.17413 0.0
C2291 C 0.43385 0.35391 0.1535 0.0
C2292 C 0.44174 0.3098 0.16358 0.0
C2293 C 0.44479 0.3397 0.13894 0.0
C2294 C 0.4511 0.27163 0.14983 0.0
C2295 C 0.43315 0.25393 0.1873 0.0
N2296 N 0.44817 0.31838 0.14416 0.0
N2297 N 0.4349 0.27622 0.18506 0.0
H2298 H 0.29395 0.35647 0.93617 0.0
H2299 H 0.20424 0.41525 0.86095 0.0
H2300 H 0.31115 0.40282 0.88609 0.0
H2301 H 0.18798 0.37026 0.91255 0.0
H2302 H 0.24329 0.408 0.86707 0.0
H2303 H 0.25535 0.35842 0.92485 0.0
C2304 C 0.28963 0.367 0.92265 0.0
C2305 C 0.30585 0.3797 0.91221 0.0
C2306 C 0.2312 0.39956 0.87693 0.0
C2307 C 0.26134 0.38208 0.89918 0.0
C2308 C 0.20884 0.40366 0.87345 0.0
C2309 C 0.19274 0.39348 0.8864 0.0
C2310 C 0.23762 0.38519 0.89353 0.0
C2311 C 0.19977 0.37854 0.90223 0.0
C2312 C 0.2675 0.36808 0.91619 0.0
C2313 C 0.29921 0.39281 0.89464 0.0
N2314 N 0.22168 0.375 0.90546 0.0
N2315 N 0.27741 0.39383 0.8888 0.0
H2316 H 0.66736 0.21143 0.92942 0.0
H2317 H 0.59634 0.29232 0.86523 0.0
H2318 H 0.63953 0.18902 0.86649 0.0
H2319 H 0.66086 0.31522 0.88838 0.0
H2320 H 0.60831 0.25396 0.8686 0.0
H2321 H 0.66234 0.24984 0.9184 0.0
C2322 C 0.6605 0.21457 0.9132 0.0
C2323 C 0.65379 0.19698 0.8989 0.0
C2324 C 0.61992 0.26745 0.8725 0.0
C2325 C 0.64736 0.24065 0.8866 0.0
C2326 C 0.61313 0.28926 0.87055 0.0
C2327 C 0.6277 0.30691 0.87629 0.0
C2328 C 0.64108 0.26336 0.88109 0.0
C2329 C 0.64921 0.30207 0.88347 0.0
C2330 C 0.65767 0.23643 0.90694 0.0
C2331 C 0.64491 0.20202 0.87807 0.0
N2332 N 0.65511 0.28074 0.88616 0.0
N2333 N 0.64146 0.22338 0.87273 0.0
H2334 H 0.39186 0.69812 0.94555 0.0
H2335 H 0.36492 0.82382 0.91685 0.0
H2336 H 0.34733 0.71614 0.89294 0.0
H2337 H 0.40896 0.80576 0.96985 0.0
H2338 H 0.3567 0.78447 0.90908 0.0
H2339 H 0.39683 0.73738 0.95597 0.0
C2340 C 0.38299 0.71027 0.9363 0.0
C2341 C 0.3692 0.70371 0.91829 0.0
C2342 C 0.36807 0.78913 0.9225 0.0
C2343 C 0.37492 0.74884 0.93005 0.0
C2344 C 0.37272 0.81164 0.92697 0.0
C2345 C 0.38771 0.81822 0.944 0.0
C2346 C 0.37849 0.773 0.93509 0.0
C2347 C 0.39735 0.80157 0.9565 0.0
C2348 C 0.38587 0.73273 0.94222 0.0
C2349 C 0.3582 0.72032 0.9069 0.0
N2350 N 0.39266 0.77984 0.95175 0.0
N2351 N 0.36136 0.74201 0.91289 0.0
loop_
_geom_bond_atom_site_label_1
_geom_bond_atom_site_label_2
_geom_bond_distance
_geom_bond_site_symmetry_2
_ccdc_geom_bond_type
Mg0 O7 2.141 . S
Mg0 O8 2.048 . S
Mg0 O9 2.048 . S
Mg0 O12 2.141 . S
C1 O2 1.313 . S
C1 O8 1.195 . S
O2 C1 1.313 . S
C3 O4 1.245 . S
C3 O12 1.289 . S
O4 C3 1.245 . S
C5 O6 1.245 . S
C5 O7 1.289 . S
O6 C5 1.245 . S
O7 Mg0 2.141 . S
O7 C5 1.289 . S
O8 Mg0 2.048 . S
O8 C1 1.195 . S
O9 Mg0 2.048 . S
O9 C10 1.195 . S
C10 O9 1.195 . S
C10 O11 1.313 . S
O11 C10 1.313 . S
O12 Mg0 2.141 . S
O12 C3 1.289 . S
Mg13 O20 2.141 . S
Mg13 O21 2.048 . S
Mg13 O22 2.048 . S
Mg13 O25 2.141 . S
C14 O15 1.313 . S
C14 O21 1.195 . S
O15 C14 1.313 . S
C16 O17 1.245 . S
C16 O25 1.289 . S
O17 C16 1.245 . S
C18 O19 1.245 . S
C18 O20 1.289 . S
O19 C18 1.245 . S
O20 Mg13 2.141 . S
O20 C18 1.289 . S
O21 Mg13 2.048 . S
O21 C14 1.195 . S
O22 Mg13 2.048 . S
O22 C23 1.195 . S
C23 O22 1.195 . S
C23 O24 1.313 . S
O24 C23 1.313 . S
O25 Mg13 2.141 . S
O25 C16 1.289 . S
Mg26 O33 2.141 . S
Mg26 O34 2.048 . S
Mg26 O35 2.048 . S
Mg26 O38 2.141 . S
C27 O28 1.313 . S
C27 O34 1.195 . S
O28 C27 1.313 . S
C29 O30 1.245 . S
C29 O38 1.289 . S
O30 C29 1.245 . S
C31 O32 1.245 . S
C31 O33 1.289 . S
O32 C31 1.245 . S
O33 Mg26 2.141 . S
O33 C31 1.289 . S
O34 Mg26 2.048 . S
O34 C27 1.195 . S
O35 Mg26 2.048 . S
O35 C36 1.195 . S
C36 O35 1.195 . S
C36 O37 1.313 . S
O37 C36 1.313 . S
O38 Mg26 2.141 . S
O38 C29 1.289 . S
Mg39 O46 2.141 . S
Mg39 O47 2.048 . S
Mg39 O48 2.048 . S
Mg39 O51 2.141 . S
C40 O41 1.313 . S
C40 O47 1.195 . S
O41 C40 1.313 . S
C42 O43 1.245 . S
C42 O51 1.289 . S
O43 C42 1.245 . S
C44 O45 1.245 . S
C44 O46 1.289 . S
O45 C44 1.245 . S
O46 Mg39 2.141 . S
O46 C44 1.289 . S
O47 Mg39 2.048 . S
O47 C40 1.195 . S
O48 Mg39 2.048 . S
O48 C49 1.195 . S
C49 O48 1.195 . S
C49 O50 1.313 . S
O50 C49 1.313 . S
O51 Mg39 2.141 . S
O51 C42 1.289 . S
Mg52 O59 2.141 . S
Mg52 O60 2.048 . S
Mg52 O61 2.048 . S
Mg52 O64 2.141 . S
C53 O54 1.313 . S
C53 O60 1.195 . S
O54 C53 1.313 . S
C55 O56 1.245 . S
C55 O64 1.289 . S
O56 C55 1.245 . S
C57 O58 1.245 . S
C57 O59 1.289 . S
O58 C57 1.245 . S
O59 Mg52 2.141 . S
O59 C57 1.289 . S
O60 Mg52 2.048 . S
O60 C53 1.195 . S
O61 Mg52 2.048 . S
O61 C62 1.195 . S
C62 O61 1.195 . S
C62 O63 1.313 . S
O63 C62 1.313 . S
O64 Mg52 2.141 . S
O64 C55 1.289 . S
Mg65 O72 2.141 . S
Mg65 O73 2.048 . S
Mg65 O74 2.048 . S
Mg65 O77 2.141 . S
C66 O67 1.313 . S
C66 O73 1.195 . S
O67 C66 1.313 . S
C68 O69 1.245 . S
C68 O77 1.289 . S
O69 C68 1.245 . S
C70 O71 1.245 . S
C70 O72 1.289 . S
O71 C70 1.245 . S
O72 Mg65 2.141 . S
O72 C70 1.289 . S
O73 Mg65 2.048 . S
O73 C66 1.195 . S
O74 Mg65 2.048 . S
O74 C75 1.195 . S
C75 O74 1.195 . S
C75 O76 1.313 . S
O76 C75 1.313 . S
O77 Mg65 2.141 . S
O77 C68 1.289 . S
Mg78 O85 2.141 . S
Mg78 O86 2.048 . S
Mg78 O87 2.048 . S
Mg78 O90 2.141 . S
C79 O80 1.313 . S
C79 O86 1.195 . S
O80 C79 1.313 . S
C81 O82 1.245 . S
C81 O90 1.289 . S
O82 C81 1.245 . S
C83 O84 1.245 . S
C83 O85 1.289 . S
O84 C83 1.245 . S
O85 Mg78 2.141 . S
O85 C83 1.289 . S
O86 Mg78 2.048 . S
O86 C79 1.195 . S
O87 Mg78 2.048 . S
O87 C88 1.195 . S
C88 O87 1.195 . S
C88 O89 1.313 . S
O89 C88 1.313 . S
O90 Mg78 2.141 . S
O90 C81 1.289 . S
Mg91 O98 2.141 . S
Mg91 O99 2.048 . S
Mg91 O100 2.048 . S
Mg91 O103 2.141 . S
C92 O93 1.313 . S
C92 O99 1.195 . S
O93 C92 1.313 . S
C94 O95 1.245 . S
C94 O103 1.289 . S
O95 C94 1.245 . S
C96 O97 1.245 . S
C96 O98 1.289 . S
O97 C96 1.245 . S
O98 Mg91 2.141 . S
O98 C96 1.289 . S
O99 Mg91 2.048 . S
O99 C92 1.195 . S
O100 Mg91 2.048 . S
O100 C101 1.195 . S
C101 O100 1.195 . S
C101 O102 1.313 . S
O102 C101 1.313 . S
O103 Mg91 2.141 . S
O103 C94 1.289 . S
Mg104 O111 2.141 . S
Mg104 O112 2.048 . S
Mg104 O113 2.048 . S
Mg104 O116 2.141 . S
C105 O106 1.313 . S
C105 O112 1.195 . S
O106 C105 1.313 . S
C107 O108 1.245 . S
C107 O116 1.289 . S
O108 C107 1.245 . S
C109 O110 1.245 . S
C109 O111 1.289 . S
O110 C109 1.245 . S
O111 Mg104 2.141 . S
O111 C109 1.289 . S
O112 Mg104 2.048 . S
O112 C105 1.195 . S
O113 Mg104 2.048 . S
O113 C114 1.195 . S
C114 O113 1.195 . S
C114 O115 1.313 . S
O115 C114 1.313 . S
O116 Mg104 2.141 . S
O116 C107 1.289 . S
Mg117 O124 2.141 . S
Mg117 O125 2.048 . S
Mg117 O126 2.048 . S
Mg117 O129 2.141 . S
C118 O119 1.313 . S
C118 O125 1.195 . S
O119 C118 1.313 . S
C120 O121 1.245 . S
C120 O129 1.289 . S
O121 C120 1.245 . S
C122 O123 1.245 . S
C122 O124 1.289 . S
O123 C122 1.245 . S
O124 Mg117 2.141 . S
O124 C122 1.289 . S
O125 Mg117 2.048 . S
O125 C118 1.195 . S
O126 Mg117 2.048 . S
O126 C127 1.195 . S
C127 O126 1.195 . S
C127 O128 1.313 . S
O128 C127 1.313 . S
O129 Mg117 2.141 . S
O129 C120 1.289 . S
Mg130 O137 2.141 . S
Mg130 O138 2.048 . S
Mg130 O139 2.048 . S
Mg130 O142 2.141 . S
C131 O132 1.313 . S
C131 O138 1.195 . S
O132 C131 1.313 . S
C133 O134 1.245 . S
C133 O142 1.289 . S
O134 C133 1.245 . S
C135 O136 1.245 . S
C135 O137 1.289 . S
O136 C135 1.245 . S
O137 Mg130 2.141 . S
O137 C135 1.289 . S
O138 Mg130 2.048 . S
O138 C131 1.195 . S
O139 Mg130 2.048 . S
O139 C140 1.195 . S
C140 O139 1.195 . S
C140 O141 1.313 . S
O141 C140 1.313 . S
O142 Mg130 2.141 . S
O142 C133 1.289 . S
Mg143 O150 2.141 . S
Mg143 O151 2.048 . S
Mg143 O152 2.048 . S
Mg143 O155 2.141 . S
C144 O145 1.313 . S
C144 O151 1.195 . S
O145 C144 1.313 . S
C146 O147 1.245 . S
C146 O155 1.289 . S
O147 C146 1.245 . S
C148 O149 1.245 . S
C148 O150 1.289 . S
O149 C148 1.245 . S
O150 Mg143 2.141 . S
O150 C148 1.289 . S
O151 Mg143 2.048 . S
O151 C144 1.195 . S
O152 Mg143 2.048 . S
O152 C153 1.195 . S
C153 O152 1.195 . S
C153 O154 1.313 . S
O154 C153 1.313 . S
O155 Mg143 2.141 . S
O155 C146 1.289 . S
Mg156 O163 2.141 . S
Mg156 O164 2.048 . S
Mg156 O165 2.048 . S
Mg156 O168 2.141 . S
C157 O158 1.313 . S
C157 O164 1.195 . S
O158 C157 1.313 . S
C159 O160 1.245 . S
C159 O168 1.289 . S
O160 C159 1.245 . S
C161 O162 1.245 . S
C161 O163 1.289 . S
O162 C161 1.245 . S
O163 Mg156 2.141 . S
O163 C161 1.289 . S
O164 Mg156 2.048 . S
O164 C157 1.195 . S
O165 Mg156 2.048 . S
O165 C166 1.195 . S
C166 O165 1.195 . S
C166 O167 1.313 . S
O167 C166 1.313 . S
O168 Mg156 2.141 . S
O168 C159 1.289 . S
Mg169 O176 2.141 . S
Mg169 O177 2.048 . S
Mg169 O178 2.048 . S
Mg169 O181 2.141 . S
C170 O171 1.313 . S
C170 O177 1.195 . S
O171 C170 1.313 . S
C172 O173 1.245 . S
C172 O181 1.289 . S
O173 C172 1.245 . S
C174 O175 1.245 . S
C174 O176 1.289 . S
O175 C174 1.245 . S
O176 Mg169 2.141 . S
O176 C174 1.289 . S
O177 Mg169 2.048 . S
O177 C170 1.195 . S
O178 Mg169 2.048 . S
O178 C179 1.195 . S
C179 O178 1.195 . S
C179 O180 1.313 . S
O180 C179 1.313 . S
O181 Mg169 2.141 . S
O181 C172 1.289 . S
Mg182 O189 2.141 . S
Mg182 O190 2.048 . S
Mg182 O191 2.048 . S
Mg182 O194 2.141 . S
C183 O184 1.313 . S
C183 O190 1.195 . S
O184 C183 1.313 . S
C185 O186 1.245 . S
C185 O194 1.289 . S
O186 C185 1.245 . S
C187 O188 1.245 . S
C187 O189 1.289 . S
O188 C187 1.245 . S
O189 Mg182 2.141 . S
O189 C187 1.289 . S
O190 Mg182 2.048 . S
O190 C183 1.195 . S
O191 Mg182 2.048 . S
O191 C192 1.195 . S
C192 O191 1.195 . S
C192 O193 1.313 . S
O193 C192 1.313 . S
O194 Mg182 2.141 . S
O194 C185 1.289 . S
Mg195 O202 2.141 . S
Mg195 O203 2.048 . S
Mg195 O204 2.048 . S
Mg195 O207 2.141 . S
C196 O197 1.313 . S
C196 O203 1.195 . S
O197 C196 1.313 . S
C198 O199 1.245 . S
C198 O207 1.289 . S
O199 C198 1.245 . S
C200 O201 1.245 . S
C200 O202 1.289 . S
O201 C200 1.245 . S
O202 Mg195 2.141 . S
O202 C200 1.289 . S
O203 Mg195 2.048 . S
O203 C196 1.195 . S
O204 Mg195 2.048 . S
O204 C205 1.195 . S
C205 O204 1.195 . S
C205 O206 1.313 . S
O206 C205 1.313 . S
O207 Mg195 2.141 . S
O207 C198 1.289 . S
Mg208 O215 2.141 . S
Mg208 O216 2.048 . S
Mg208 O217 2.048 . S
Mg208 O220 2.141 . S
C209 O210 1.313 . S
C209 O216 1.195 . S
O210 C209 1.313 . S
C211 O212 1.245 . S
C211 O220 1.289 . S
O212 C211 1.245 . S
C213 O214 1.245 . S
C213 O215 1.289 . S
O214 C213 1.245 . S
O215 Mg208 2.141 . S
O215 C213 1.289 . S
O216 Mg208 2.048 . S
O216 C209 1.195 . S
O217 Mg208 2.048 . S
O217 C218 1.195 . S
C218 O217 1.195 . S
C218 O219 1.313 . S
O219 C218 1.313 . S
O220 Mg208 2.141 . S
O220 C211 1.289 . S
Mg221 O228 2.141 . S
Mg221 O229 2.048 . S
Mg221 O230 2.048 . S
Mg221 O233 2.141 . S
C222 O223 1.313 . S
C222 O229 1.195 . S
O223 C222 1.313 . S
C224 O225 1.245 . S
C224 O233 1.289 . S
O225 C224 1.245 . S
C226 O227 1.245 . S
C226 O228 1.289 . S
O227 C226 1.245 . S
O228 Mg221 2.141 . S
O228 C226 1.289 . S
O229 Mg221 2.048 . S
O229 C222 1.195 . S
O230 Mg221 2.048 . S
O230 C231 1.195 . S
C231 O230 1.195 . S
C231 O232 1.313 . S
O232 C231 1.313 . S
O233 Mg221 2.141 . S
O233 C224 1.289 . S
Mg234 O241 2.141 . S
Mg234 O242 2.048 . S
Mg234 O243 2.048 . S
Mg234 O246 2.141 . S
C235 O236 1.313 . S
C235 O242 1.195 . S
O236 C235 1.313 . S
C237 O238 1.245 . S
C237 O246 1.289 . S
O238 C237 1.245 . S
C239 O240 1.245 . S
C239 O241 1.289 . S
O240 C239 1.245 . S
O241 Mg234 2.141 . S
O241 C239 1.289 . S
O242 Mg234 2.048 . S
O242 C235 1.195 . S
O243 Mg234 2.048 . S
O243 C244 1.195 . S
C244 O243 1.195 . S
C244 O245 1.313 . S
O245 C244 1.313 . S
O246 Mg234 2.141 . S
O246 C237 1.289 . S
Mg247 O254 2.141 . S
Mg247 O255 2.048 . S
Mg247 O256 2.048 . S
Mg247 O259 2.141 . S
C248 O249 1.313 . S
C248 O255 1.195 . S
O249 C248 1.313 . S
C250 O251 1.245 . S
C250 O259 1.289 . S
O251 C250 1.245 . S
C252 O253 1.245 . S
C252 O254 1.289 . S
O253 C252 1.245 . S
O254 Mg247 2.141 . S
O254 C252 1.289 . S
O255 Mg247 2.048 . S
O255 C248 1.195 . S
O256 Mg247 2.048 . S
O256 C257 1.195 . S
C257 O256 1.195 . S
C257 O258 1.313 . S
O258 C257 1.313 . S
O259 Mg247 2.141 . S
O259 C250 1.289 . S
Mg260 O267 2.141 . S
Mg260 O268 2.048 . S
Mg260 O269 2.048 . S
Mg260 O272 2.141 . S
C261 O262 1.313 . S
C261 O268 1.195 . S
O262 C261 1.313 . S
C263 O264 1.245 . S
C263 O272 1.289 . S
O264 C263 1.245 . S
C265 O266 1.245 . S
C265 O267 1.289 . S
O266 C265 1.245 . S
O267 Mg260 2.141 . S
O267 C265 1.289 . S
O268 Mg260 2.048 . S
O268 C261 1.195 . S
O269 Mg260 2.048 . S
O269 C270 1.195 . S
C270 O269 1.195 . S
C270 O271 1.313 . S
O271 C270 1.313 . S
O272 Mg260 2.141 . S
O272 C263 1.289 . S
Mg273 O280 2.141 . S
Mg273 O281 2.048 . S
Mg273 O282 2.048 . S
Mg273 O285 2.141 . S
C274 O275 1.313 . S
C274 O281 1.195 . S
O275 C274 1.313 . S
C276 O277 1.245 . S
C276 O285 1.289 . S
O277 C276 1.245 . S
C278 O279 1.245 . S
C278 O280 1.289 . S
O279 C278 1.245 . S
O280 Mg273 2.141 . S
O280 C278 1.289 . S
O281 Mg273 2.048 . S
O281 C274 1.195 . S
O282 Mg273 2.048 . S
O282 C283 1.195 . S
C283 O282 1.195 . S
C283 O284 1.313 . S
O284 C283 1.313 . S
O285 Mg273 2.141 . S
O285 C276 1.289 . S
Mg286 O293 2.141 . S
Mg286 O294 2.048 . S
Mg286 O295 2.048 . S
Mg286 O298 2.141 . S
C287 O288 1.313 . S
C287 O294 1.195 . S
O288 C287 1.313 . S
C289 O290 1.245 . S
C289 O298 1.289 . S
O290 C289 1.245 . S
C291 O292 1.245 . S
C291 O293 1.289 . S
O292 C291 1.245 . S
O293 Mg286 2.141 . S
O293 C291 1.289 . S
O294 Mg286 2.048 . S
O294 C287 1.195 . S
O295 Mg286 2.048 . S
O295 C296 1.195 . S
C296 O295 1.195 . S
C296 O297 1.313 . S
O297 C296 1.313 . S
O298 Mg286 2.141 . S
O298 C289 1.289 . S
Mg299 O306 2.141 . S
Mg299 O307 2.048 . S
Mg299 O308 2.048 . S
Mg299 O311 2.141 . S
C300 O301 1.313 . S
C300 O307 1.195 . S
O301 C300 1.313 . S
C302 O303 1.245 . S
C302 O311 1.289 . S
O303 C302 1.245 . S
C304 O305 1.245 . S
C304 O306 1.289 . S
O305 C304 1.245 . S
O306 Mg299 2.141 . S
O306 C304 1.289 . S
O307 Mg299 2.048 . S
O307 C300 1.195 . S
O308 Mg299 2.048 . S
O308 C309 1.195 . S
C309 O308 1.195 . S
C309 O310 1.313 . S
O310 C309 1.313 . S
O311 Mg299 2.141 . S
O311 C302 1.289 . S
Mg312 O319 2.141 . S
Mg312 O320 2.048 . S
Mg312 O321 2.048 . S
Mg312 O324 2.141 . S
C313 O314 1.313 . S
C313 O320 1.195 . S
O314 C313 1.313 . S
C315 O316 1.245 . S
C315 O324 1.289 . S
O316 C315 1.245 . S
C317 O318 1.245 . S
C317 O319 1.289 . S
O318 C317 1.245 . S
O319 Mg312 2.141 . S
O319 C317 1.289 . S
O320 Mg312 2.048 . S
O320 C313 1.195 . S
O321 Mg312 2.048 . S
O321 C322 1.195 . S
C322 O321 1.195 . S
C322 O323 1.313 . S
O323 C322 1.313 . S
O324 Mg312 2.141 . S
O324 C315 1.289 . S
Mg325 O332 2.141 . S
Mg325 O333 2.048 . S
Mg325 O334 2.048 . S
Mg325 O337 2.141 . S
C326 O327 1.313 . S
C326 O333 1.195 . S
O327 C326 1.313 . S
C328 O329 1.245 . S
C328 O337 1.289 . S
O329 C328 1.245 . S
C330 O331 1.245 . S
C330 O332 1.289 . S
O331 C330 1.245 . S
O332 Mg325 2.141 . S
O332 C330 1.289 . S
O333 Mg325 2.048 . S
O333 C326 1.195 . S
O334 Mg325 2.048 . S
O334 C335 1.195 . S
C335 O334 1.195 . S
C335 O336 1.313 . S
O336 C335 1.313 . S
O337 Mg325 2.141 . S
O337 C328 1.289 . S
Mg338 O345 2.141 . S
Mg338 O346 2.048 . S
Mg338 O347 2.048 . S
Mg338 O350 2.141 . S
C339 O340 1.313 . S
C339 O346 1.195 . S
O340 C339 1.313 . S
C341 O342 1.245 . S
C341 O350 1.289 . S
O342 C341 1.245 . S
C343 O344 1.245 . S
C343 O345 1.289 . S
O344 C343 1.245 . S
O345 Mg338 2.141 . S
O345 C343 1.289 . S
O346 Mg338 2.048 . S
O346 C339 1.195 . S
O347 Mg338 2.048 . S
O347 C348 1.195 . S
C348 O347 1.195 . S
C348 O349 1.313 . S
O349 C348 1.313 . S
O350 Mg338 2.141 . S
O350 C341 1.289 . S
Mg351 O358 2.141 . S
Mg351 O359 2.048 . S
Mg351 O360 2.048 . S
Mg351 O363 2.141 . S
C352 O353 1.313 . S
C352 O359 1.195 . S
O353 C352 1.313 . S
C354 O355 1.245 . S
C354 O363 1.289 . S
O355 C354 1.245 . S
C356 O357 1.245 . S
C356 O358 1.289 . S
O357 C356 1.245 . S
O358 Mg351 2.141 . S
O358 C356 1.289 . S
O359 Mg351 2.048 . S
O359 C352 1.195 . S
O360 Mg351 2.048 . S
O360 C361 1.195 . S
C361 O360 1.195 . S
C361 O362 1.313 . S
O362 C361 1.313 . S
O363 Mg351 2.141 . S
O363 C354 1.289 . S
Mg364 O371 2.141 . S
Mg364 O372 2.048 . S
Mg364 O373 2.048 . S
Mg364 O376 2.141 . S
C365 O366 1.313 . S
C365 O372 1.195 . S
O366 C365 1.313 . S
C367 O368 1.245 . S
C367 O376 1.289 . S
O368 C367 1.245 . S
C369 O370 1.245 . S
C369 O371 1.289 . S
O370 C369 1.245 . S
O371 Mg364 2.141 . S
O371 C369 1.289 . S
O372 Mg364 2.048 . S
O372 C365 1.195 . S
O373 Mg364 2.048 . S
O373 C374 1.195 . S
C374 O373 1.195 . S
C374 O375 1.313 . S
O375 C374 1.313 . S
O376 Mg364 2.141 . S
O376 C367 1.289 . S
Mg377 O384 2.141 . S
Mg377 O385 2.048 . S
Mg377 O386 2.048 . S
Mg377 O389 2.141 . S
C378 O379 1.313 . S
C378 O385 1.195 . S
O379 C378 1.313 . S
C380 O381 1.245 . S
C380 O389 1.289 . S
O381 C380 1.245 . S
C382 O383 1.245 . S
C382 O384 1.289 . S
O383 C382 1.245 . S
O384 Mg377 2.141 . S
O384 C382 1.289 . S
O385 Mg377 2.048 . S
O385 C378 1.195 . S
O386 Mg377 2.048 . S
O386 C387 1.195 . S
C387 O386 1.195 . S
C387 O388 1.313 . S
O388 C387 1.313 . S
O389 Mg377 2.141 . S
O389 C380 1.289 . S
Mg390 O397 2.141 . S
Mg390 O398 2.048 . S
Mg390 O399 2.048 . S
Mg390 O402 2.141 . S
C391 O392 1.313 . S
C391 O398 1.195 . S
O392 C391 1.313 . S
C393 O394 1.245 . S
C393 O402 1.289 . S
O394 C393 1.245 . S
C395 O396 1.245 . S
C395 O397 1.289 . S
O396 C395 1.245 . S
O397 Mg390 2.141 . S
O397 C395 1.289 . S
O398 Mg390 2.048 . S
O398 C391 1.195 . S
O399 Mg390 2.048 . S
O399 C400 1.195 . S
C400 O399 1.195 . S
C400 O401 1.313 . S
O401 C400 1.313 . S
O402 Mg390 2.141 . S
O402 C393 1.289 . S
Mg403 O410 2.141 . S
Mg403 O411 2.048 . S
Mg403 O412 2.048 . S
Mg403 O415 2.141 . S
C404 O405 1.313 . S
C404 O411 1.195 . S
O405 C404 1.313 . S
C406 O407 1.245 . S
C406 O415 1.289 . S
O407 C406 1.245 . S
C408 O409 1.245 . S
C408 O410 1.289 . S
O409 C408 1.245 . S
O410 Mg403 2.141 . S
O410 C408 1.289 . S
O411 Mg403 2.048 . S
O411 C404 1.195 . S
O412 Mg403 2.048 . S
O412 C413 1.195 . S
C413 O412 1.195 . S
C413 O414 1.313 . S
O414 C413 1.313 . S
O415 Mg403 2.141 . S
O415 C406 1.289 . S
Mg416 O423 2.141 . S
Mg416 O424 2.048 . S
Mg416 O425 2.048 . S
Mg416 O428 2.141 . S
C417 O418 1.313 . S
C417 O424 1.195 . S
O418 C417 1.313 . S
C419 O420 1.245 . S
C419 O428 1.289 . S
O420 C419 1.245 . S
C421 O422 1.245 . S
C421 O423 1.289 . S
O422 C421 1.245 . S
O423 Mg416 2.141 . S
O423 C421 1.289 . S
O424 Mg416 2.048 . S
O424 C417 1.195 . S
O425 Mg416 2.048 . S
O425 C426 1.195 . S
C426 O425 1.195 . S
C426 O427 1.313 . S
O427 C426 1.313 . S
O428 Mg416 2.141 . S
O428 C419 1.289 . S
Mg429 O436 2.141 . S
Mg429 O437 2.048 . S
Mg429 O438 2.048 . S
Mg429 O441 2.141 . S
C430 O431 1.313 . S
C430 O437 1.195 . S
O431 C430 1.313 . S
C432 O433 1.245 . S
C432 O441 1.289 . S
O433 C432 1.245 . S
C434 O435 1.245 . S
C434 O436 1.289 . S
O435 C434 1.245 . S
O436 Mg429 2.141 . S
O436 C434 1.289 . S
O437 Mg429 2.048 . S
O437 C430 1.195 . S
O438 Mg429 2.048 . S
O438 C439 1.195 . S
C439 O438 1.195 . S
C439 O440 1.313 . S
O440 C439 1.313 . S
O441 Mg429 2.141 . S
O441 C432 1.289 . S
Mg442 O449 2.141 . S
Mg442 O450 2.048 . S
Mg442 O451 2.048 . S
Mg442 O454 2.141 . S
C443 O444 1.313 . S
C443 O450 1.195 . S
O444 C443 1.313 . S
C445 O446 1.245 . S
C445 O454 1.289 . S
O446 C445 1.245 . S
C447 O448 1.245 . S
C447 O449 1.289 . S
O448 C447 1.245 . S
O449 Mg442 2.141 . S
O449 C447 1.289 . S
O450 Mg442 2.048 . S
O450 C443 1.195 . S
O451 Mg442 2.048 . S
O451 C452 1.195 . S
C452 O451 1.195 . S
C452 O453 1.313 . S
O453 C452 1.313 . S
O454 Mg442 2.141 . S
O454 C445 1.289 . S
Mg455 O462 2.141 . S
Mg455 O463 2.048 . S
Mg455 O464 2.048 . S
Mg455 O467 2.141 . S
C456 O457 1.313 . S
C456 O463 1.195 . S
O457 C456 1.313 . S
C458 O459 1.245 . S
C458 O467 1.289 . S
O459 C458 1.245 . S
C460 O461 1.245 . S
C460 O462 1.289 . S
O461 C460 1.245 . S
O462 Mg455 2.141 . S
O462 C460 1.289 . S
O463 Mg455 2.048 . S
O463 C456 1.195 . S
O464 Mg455 2.048 . S
O464 C465 1.195 . S
C465 O464 1.195 . S
C465 O466 1.313 . S
O466 C465 1.313 . S
O467 Mg455 2.141 . S
O467 C458 1.289 . S
Mg468 O475 2.141 . S
Mg468 O476 2.048 . S
Mg468 O477 2.048 . S
Mg468 O480 2.141 . S
C469 O470 1.313 . S
C469 O476 1.195 . S
O470 C469 1.313 . S
C471 O472 1.245 . S
C471 O480 1.289 . S
O472 C471 1.245 . S
C473 O474 1.245 . S
C473 O475 1.289 . S
O474 C473 1.245 . S
O475 Mg468 2.141 . S
O475 C473 1.289 . S
O476 Mg468 2.048 . S
O476 C469 1.195 . S
O477 Mg468 2.048 . S
O477 C478 1.195 . S
C478 O477 1.195 . S
C478 O479 1.313 . S
O479 C478 1.313 . S
O480 Mg468 2.141 . S
O480 C471 1.289 . S
Mg481 O488 2.141 . S
Mg481 O489 2.048 . S
Mg481 O490 2.048 . S
Mg481 O493 2.141 . S
C482 O483 1.313 . S
C482 O489 1.195 . S
O483 C482 1.313 . S
C484 O485 1.245 . S
C484 O493 1.289 . S
O485 C484 1.245 . S
C486 O487 1.245 . S
C486 O488 1.289 . S
O487 C486 1.245 . S
O488 Mg481 2.141 . S
O488 C486 1.289 . S
O489 Mg481 2.048 . S
O489 C482 1.195 . S
O490 Mg481 2.048 . S
O490 C491 1.195 . S
C491 O490 1.195 . S
C491 O492 1.313 . S
O492 C491 1.313 . S
O493 Mg481 2.141 . S
O493 C484 1.289 . S
Mg494 O501 2.141 . S
Mg494 O502 2.048 . S
Mg494 O503 2.048 . S
Mg494 O506 2.141 . S
C495 O496 1.313 . S
C495 O502 1.195 . S
O496 C495 1.313 . S
C497 O498 1.245 . S
C497 O506 1.289 . S
O498 C497 1.245 . S
C499 O500 1.245 . S
C499 O501 1.289 . S
O500 C499 1.245 . S
O501 Mg494 2.141 . S
O501 C499 1.289 . S
O502 Mg494 2.048 . S
O502 C495 1.195 . S
O503 Mg494 2.048 . S
O503 C504 1.195 . S
C504 O503 1.195 . S
C504 O505 1.313 . S
O505 C504 1.313 . S
O506 Mg494 2.141 . S
O506 C497 1.289 . S
Mg507 O514 2.141 . S
Mg507 O515 2.048 . S
Mg507 O516 2.048 . S
Mg507 O519 2.141 . S
C508 O509 1.313 . S
C508 O515 1.195 . S
O509 C508 1.313 . S
C510 O511 1.245 . S
C510 O519 1.289 . S
O511 C510 1.245 . S
C512 O513 1.245 . S
C512 O514 1.289 . S
O513 C512 1.245 . S
O514 Mg507 2.141 . S
O514 C512 1.289 . S
O515 Mg507 2.048 . S
O515 C508 1.195 . S
O516 Mg507 2.048 . S
O516 C517 1.195 . S
C517 O516 1.195 . S
C517 O518 1.313 . S
O518 C517 1.313 . S
O519 Mg507 2.141 . S
O519 C510 1.289 . S
Mg520 O527 2.141 . S
Mg520 O528 2.048 . S
Mg520 O529 2.048 . S
Mg520 O532 2.141 . S
C521 O522 1.313 . S
C521 O528 1.195 . S
O522 C521 1.313 . S
C523 O524 1.245 . S
C523 O532 1.289 . S
O524 C523 1.245 . S
C525 O526 1.245 . S
C525 O527 1.289 . S
O526 C525 1.245 . S
O527 Mg520 2.141 . S
O527 C525 1.289 . S
O528 Mg520 2.048 . S
O528 C521 1.195 . S
O529 Mg520 2.048 . S
O529 C530 1.195 . S
C530 O529 1.195 . S
C530 O531 1.313 . S
O531 C530 1.313 . S
O532 Mg520 2.141 . S
O532 C523 1.289 . S
Mg533 O540 2.141 . S
Mg533 O541 2.048 . S
Mg533 O542 2.048 . S
Mg533 O545 2.141 . S
C534 O535 1.313 . S
C534 O541 1.195 . S
O535 C534 1.313 . S
C536 O537 1.245 . S
C536 O545 1.289 . S
O537 C536 1.245 . S
C538 O539 1.245 . S
C538 O540 1.289 . S
O539 C538 1.245 . S
O540 Mg533 2.141 . S
O540 C538 1.289 . S
O541 Mg533 2.048 . S
O541 C534 1.195 . S
O542 Mg533 2.048 . S
O542 C543 1.195 . S
C543 O542 1.195 . S
C543 O544 1.313 . S
O544 C543 1.313 . S
O545 Mg533 2.141 . S
O545 C536 1.289 . S
Mg546 O553 2.141 . S
Mg546 O554 2.048 . S
Mg546 O555 2.048 . S
Mg546 O558 2.141 . S
C547 O548 1.313 . S
C547 O554 1.195 . S
O548 C547 1.313 . S
C549 O550 1.245 . S
C549 O558 1.289 . S
O550 C549 1.245 . S
C551 O552 1.245 . S
C551 O553 1.289 . S
O552 C551 1.245 . S
O553 Mg546 2.141 . S
O553 C551 1.289 . S
O554 Mg546 2.048 . S
O554 C547 1.195 . S
O555 Mg546 2.048 . S
O555 C556 1.195 . S
C556 O555 1.195 . S
C556 O557 1.313 . S
O557 C556 1.313 . S
O558 Mg546 2.141 . S
O558 C549 1.289 . S
Mg559 O566 2.141 . S
Mg559 O567 2.048 . S
Mg559 O568 2.048 . S
Mg559 O571 2.141 . S
C560 O561 1.313 . S
C560 O567 1.195 . S
O561 C560 1.313 . S
C562 O563 1.245 . S
C562 O571 1.289 . S
O563 C562 1.245 . S
C564 O565 1.245 . S
C564 O566 1.289 . S
O565 C564 1.245 . S
O566 Mg559 2.141 . S
O566 C564 1.289 . S
O567 Mg559 2.048 . S
O567 C560 1.195 . S
O568 Mg559 2.048 . S
O568 C569 1.195 . S
C569 O568 1.195 . S
C569 O570 1.313 . S
O570 C569 1.313 . S
O571 Mg559 2.141 . S
O571 C562 1.289 . S
Mg572 O579 2.141 . S
Mg572 O580 2.048 . S
Mg572 O581 2.048 . S
Mg572 O584 2.141 . S
C573 O574 1.313 . S
C573 O580 1.195 . S
O574 C573 1.313 . S
C575 O576 1.245 . S
C575 O584 1.289 . S
O576 C575 1.245 . S
C577 O578 1.245 . S
C577 O579 1.289 . S
O578 C577 1.245 . S
O579 Mg572 2.141 . S
O579 C577 1.289 . S
O580 Mg572 2.048 . S
O580 C573 1.195 . S
O581 Mg572 2.048 . S
O581 C582 1.195 . S
C582 O581 1.195 . S
C582 O583 1.313 . S
O583 C582 1.313 . S
O584 Mg572 2.141 . S
O584 C575 1.289 . S
Mg585 O592 2.141 . S
Mg585 O593 2.048 . S
Mg585 O594 2.048 . S
Mg585 O597 2.141 . S
C586 O587 1.313 . S
C586 O593 1.195 . S
O587 C586 1.313 . S
C588 O589 1.245 . S
C588 O597 1.289 . S
O589 C588 1.245 . S
C590 O591 1.245 . S
C590 O592 1.289 . S
O591 C590 1.245 . S
O592 Mg585 2.141 . S
O592 C590 1.289 . S
O593 Mg585 2.048 . S
O593 C586 1.195 . S
O594 Mg585 2.048 . S
O594 C595 1.195 . S
C595 O594 1.195 . S
C595 O596 1.313 . S
O596 C595 1.313 . S
O597 Mg585 2.141 . S
O597 C588 1.289 . S
Mg598 O605 2.141 . S
Mg598 O606 2.048 . S
Mg598 O607 2.048 . S
Mg598 O610 2.141 . S
C599 O600 1.313 . S
C599 O606 1.195 . S
O600 C599 1.313 . S
C601 O602 1.245 . S
C601 O610 1.289 . S
O602 C601 1.245 . S
C603 O604 1.245 . S
C603 O605 1.289 . S
O604 C603 1.245 . S
O605 Mg598 2.141 . S
O605 C603 1.289 . S
O606 Mg598 2.048 . S
O606 C599 1.195 . S
O607 Mg598 2.048 . S
O607 C608 1.195 . S
C608 O607 1.195 . S
C608 O609 1.313 . S
O609 C608 1.313 . S
O610 Mg598 2.141 . S
O610 C601 1.289 . S
Mg611 O618 2.141 . S
Mg611 O619 2.048 . S
Mg611 O620 2.048 . S
Mg611 O623 2.141 . S
C612 O613 1.313 . S
C612 O619 1.195 . S
O613 C612 1.313 . S
C614 O615 1.245 . S
C614 O623 1.289 . S
O615 C614 1.245 . S
C616 O617 1.245 . S
C616 O618 1.289 . S
O617 C616 1.245 . S
O618 Mg611 2.141 . S
O618 C616 1.289 . S
O619 Mg611 2.048 . S
O619 C612 1.195 . S
O620 Mg611 2.048 . S
O620 C621 1.195 . S
C621 O620 1.195 . S
C621 O622 1.313 . S
O622 C621 1.313 . S
O623 Mg611 2.141 . S
O623 C614 1.289 . S
H624 C630 0.930 . S
H625 C634 0.930 . S
H626 C639 0.929 . S
H627 C637 0.929 . S
H628 C632 0.929 . S
H629 C638 0.929 . S
C630 H624 0.930 . S
C630 C631 1.367 . S
C630 C638 1.378 . S
C631 C630 1.367 . S
C631 C639 1.433 . S
C632 H628 0.929 . S
C632 C634 1.378 . S
C632 C636 1.350 . S
C633 C636 1.463 1_565 S
C633 C638 1.350 . S
C633 N641 1.427 . S
C634 H625 0.930 . S
C634 C632 1.378 . S
C634 C635 1.367 . S
C635 C634 1.367 . S
C635 C637 1.433 . S
C636 C632 1.350 . S
C636 C633 1.463 1_545 S
C636 N640 1.427 . S
C637 H627 0.929 . S
C637 C635 1.433 . S
C637 N640 1.384 . S
C638 H629 0.929 . S
C638 C630 1.378 . S
C638 C633 1.350 . S
C639 H626 0.929 . S
C639 C631 1.433 . S
C639 N641 1.384 . S
N640 C636 1.427 . S
N640 C637 1.384 . S
N641 C633 1.427 . S
N641 C639 1.384 . S
H642 C648 0.930 . S
H643 C652 0.930 . S
H644 C657 0.929 . S
H645 C655 0.929 . S
H646 C650 0.929 . S
H647 C656 0.929 . S
C648 H642 0.930 . S
C648 C649 1.367 . S
C648 C656 1.378 . S
C649 C648 1.367 . S
C649 C657 1.433 . S
C650 H646 0.929 . S
C650 C652 1.378 . S
C650 C654 1.350 . S
C651 C654 1.463 1_455 S
C651 C656 1.350 . S
C651 N659 1.427 . S
C652 H643 0.930 . S
C652 C650 1.378 . S
C652 C653 1.367 . S
C653 C652 1.367 . S
C653 C655 1.433 . S
C654 C650 1.350 . S
C654 C651 1.463 1_655 S
C654 N658 1.427 . S
C655 H645 0.929 . S
C655 C653 1.433 . S
C655 N658 1.384 . S
C656 H647 0.929 . S
C656 C648 1.378 . S
C656 C651 1.350 . S
C657 H644 0.929 . S
C657 C649 1.433 . S
C657 N659 1.384 . S
N658 C654 1.427 . S
N658 C655 1.384 . S
N659 C651 1.427 . S
N659 C657 1.384 . S
H660 C666 0.930 . S
H661 C670 0.930 . S
H662 C675 0.929 . S
H663 C673 0.929 . S
H664 C668 0.929 . S
H665 C674 0.929 . S
C666 H660 0.930 . S
C666 C667 1.367 . S
C666 C674 1.378 . S
C667 C666 1.367 . S
C667 C675 1.433 . S
C668 H664 0.929 . S
C668 C670 1.378 . S
C668 C672 1.350 . S
C669 C672 1.463 1_565 S
C669 C674 1.350 . S
C669 N677 1.427 . S
C670 H661 0.930 . S
C670 C668 1.378 . S
C670 C671 1.367 . S
C671 C670 1.367 . S
C671 C673 1.433 . S
C672 C668 1.350 . S
C672 C669 1.463 1_545 S
C672 N676 1.427 . S
C673 H663 0.929 . S
C673 C671 1.433 . S
C673 N676 1.384 . S
C674 H665 0.929 . S
C674 C666 1.378 . S
C674 C669 1.350 . S
C675 H662 0.929 . S
C675 C667 1.433 . S
C675 N677 1.384 . S
N676 C672 1.427 . S
N676 C673 1.384 . S
N677 C669 1.427 . S
N677 C675 1.384 . S
H678 C684 0.930 . S
H679 C688 0.930 . S
H680 C693 0.929 . S
H681 C691 0.929 . S
H682 C686 0.929 . S
H683 C692 0.929 . S
C684 H678 0.930 . S
C684 C685 1.367 . S
C684 C692 1.378 . S
C685 C684 1.367 . S
C685 C693 1.433 . S
C686 H682 0.929 . S
C686 C688 1.378 . S
C686 C690 1.350 . S
C687 C690 1.463 1_655 S
C687 C692 1.350 . S
C687 N695 1.427 . S
C688 H679 0.930 . S
C688 C686 1.378 . S
C688 C689 1.367 . S
C689 C688 1.367 . S
C689 C691 1.433 . S
C690 C686 1.350 . S
C690 C687 1.463 1_455 S
C690 N694 1.427 . S
C691 H681 0.929 . S
C691 C689 1.433 . S
C691 N694 1.384 . S
C692 H683 0.929 . S
C692 C684 1.378 . S
C692 C687 1.350 . S
C693 H680 0.929 . S
C693 C685 1.433 . S
C693 N695 1.384 . S
N694 C690 1.427 . S
N694 C691 1.384 . S
N695 C687 1.427 . S
N695 C693 1.384 . S
H696 C702 0.930 . S
H697 C706 0.930 . S
H698 C711 0.929 . S
H699 C709 0.929 . S
H700 C704 0.929 . S
H701 C710 0.929 . S
C702 H696 0.930 . S
C702 C703 1.367 . S
C702 C710 1.378 . S
C703 C702 1.367 . S
C703 C711 1.433 . S
C704 H700 0.929 . S
C704 C706 1.378 . S
C704 C708 1.350 . S
C705 C708 1.463 1_565 S
C705 C710 1.350 . S
C705 N713 1.427 . S
C706 H697 0.930 . S
C706 C704 1.378 . S
C706 C707 1.367 . S
C707 C706 1.367 . S
C707 C709 1.433 . S
C708 C704 1.350 . S
C708 C705 1.463 1_545 S
C708 N712 1.427 . S
C709 H699 0.929 . S
C709 C707 1.433 . S
C709 N712 1.384 . S
C710 H701 0.929 . S
C710 C702 1.378 . S
C710 C705 1.350 . S
C711 H698 0.929 . S
C711 C703 1.433 . S
C711 N713 1.384 . S
N712 C708 1.427 . S
N712 C709 1.384 . S
N713 C705 1.427 . S
N713 C711 1.384 . S
H714 C720 0.930 . S
H715 C724 0.930 . S
H716 C729 0.929 . S
H717 C727 0.929 . S
H718 C722 0.929 . S
H719 C728 0.929 . S
C720 H714 0.930 . S
C720 C721 1.367 . S
C720 C728 1.378 . S
C721 C720 1.367 . S
C721 C729 1.433 . S
C722 H718 0.929 . S
C722 C724 1.378 . S
C722 C726 1.350 . S
C723 C726 1.463 1_655 S
C723 C728 1.350 . S
C723 N731 1.427 . S
C724 H715 0.930 . S
C724 C722 1.378 . S
C724 C725 1.367 . S
C725 C724 1.367 . S
C725 C727 1.433 . S
C726 C722 1.350 . S
C726 C723 1.463 1_455 S
C726 N730 1.427 . S
C727 H717 0.929 . S
C727 C725 1.433 . S
C727 N730 1.384 . S
C728 H719 0.929 . S
C728 C720 1.378 . S
C728 C723 1.350 . S
C729 H716 0.929 . S
C729 C721 1.433 . S
C729 N731 1.384 . S
N730 C726 1.427 . S
N730 C727 1.384 . S
N731 C723 1.427 . S
N731 C729 1.384 . S
H732 C738 0.930 . S
H733 C742 0.930 . S
H734 C747 0.929 . S
H735 C745 0.929 . S
H736 C740 0.929 . S
H737 C746 0.929 . S
C738 H732 0.930 . S
C738 C739 1.367 . S
C738 C746 1.378 . S
C739 C738 1.367 . S
C739 C747 1.433 . S
C740 H736 0.929 . S
C740 C742 1.378 . S
C740 C744 1.350 . S
C741 C744 1.463 1_545 S
C741 C746 1.350 . S
C741 N749 1.427 . S
C742 H733 0.930 . S
C742 C740 1.378 . S
C742 C743 1.367 . S
C743 C742 1.367 . S
C743 C745 1.433 . S
C744 C740 1.350 . S
C744 C741 1.463 1_565 S
C744 N748 1.427 . S
C745 H735 0.929 . S
C745 C743 1.433 . S
C745 N748 1.384 . S
C746 H737 0.929 . S
C746 C738 1.378 . S
C746 C741 1.350 . S
C747 H734 0.929 . S
C747 C739 1.433 . S
C747 N749 1.384 . S
N748 C744 1.427 . S
N748 C745 1.384 . S
N749 C741 1.427 . S
N749 C747 1.384 . S
H750 C756 0.930 . S
H751 C760 0.930 . S
H752 C765 0.929 . S
H753 C763 0.929 . S
H754 C758 0.929 . S
H755 C764 0.929 . S
C756 H750 0.930 . S
C756 C757 1.367 . S
C756 C764 1.378 . S
C757 C756 1.367 . S
C757 C765 1.433 . S
C758 H754 0.929 . S
C758 C760 1.378 . S
C758 C762 1.350 . S
C759 C762 1.463 1_455 S
C759 C764 1.350 . S
C759 N767 1.427 . S
C760 H751 0.930 . S
C760 C758 1.378 . S
C760 C761 1.367 . S
C761 C760 1.367 . S
C761 C763 1.433 . S
C762 C758 1.350 . S
C762 C759 1.463 1_655 S
C762 N766 1.427 . S
C763 H753 0.929 . S
C763 C761 1.433 . S
C763 N766 1.384 . S
C764 H755 0.929 . S
C764 C756 1.378 . S
C764 C759 1.350 . S
C765 H752 0.929 . S
C765 C757 1.433 . S
C765 N767 1.384 . S
N766 C762 1.427 . S
N766 C763 1.384 . S
N767 C759 1.427 . S
N767 C765 1.384 . S
H768 C774 0.930 . S
H769 C778 0.930 . S
H770 C783 0.929 . S
H771 C781 0.929 . S
H772 C776 0.929 . S
H773 C782 0.929 . S
C774 H768 0.930 . S
C774 C775 1.367 . S
C774 C782 1.378 . S
C775 C774 1.367 . S
C775 C783 1.433 . S
C776 H772 0.929 . S
C776 C778 1.378 . S
C776 C780 1.350 . S
C777 C780 1.463 1_554 S
C777 C782 1.350 . S
C777 N785 1.427 . S
C778 H769 0.930 . S
C778 C776 1.378 . S
C778 C779 1.367 . S
C779 C778 1.367 . S
C779 C781 1.433 . S
C780 C776 1.350 . S
C780 C777 1.463 1_556 S
C780 N784 1.427 . S
C781 H771 0.929 . S
C781 C779 1.433 . S
C781 N784 1.384 . S
C782 H773 0.929 . S
C782 C774 1.378 . S
C782 C777 1.350 . S
C783 H770 0.929 . S
C783 C775 1.433 . S
C783 N785 1.384 . S
N784 C780 1.427 . S
N784 C781 1.384 . S
N785 C777 1.427 . S
N785 C783 1.384 . S
H786 C792 0.930 . S
H787 C796 0.930 . S
H788 C801 0.929 . S
H789 C799 0.929 . S
H790 C794 0.929 . S
H791 C800 0.929 . S
C792 H786 0.930 . S
C792 C793 1.367 . S
C792 C800 1.378 . S
C793 C792 1.367 . S
C793 C801 1.433 . S
C794 H790 0.929 . S
C794 C796 1.378 . S
C794 C798 1.350 . S
C795 C798 1.463 1_556 S
C795 C800 1.350 . S
C795 N803 1.427 . S
C796 H787 0.930 . S
C796 C794 1.378 . S
C796 C797 1.367 . S
C797 C796 1.367 . S
C797 C799 1.433 . S
C798 C794 1.350 . S
C798 C795 1.463 1_554 S
C798 N802 1.427 . S
C799 H789 0.929 . S
C799 C797 1.433 . S
C799 N802 1.384 . S
C800 H791 0.929 . S
C800 C792 1.378 . S
C800 C795 1.350 . S
C801 H788 0.929 . S
C801 C793 1.433 . S
C801 N803 1.384 . S
N802 C798 1.427 . S
N802 C799 1.384 . S
N803 C795 1.427 . S
N803 C801 1.384 . S
H804 C810 0.930 . S
H805 C814 0.930 . S
H806 C819 0.929 . S
H807 C817 0.929 . S
H808 C812 0.929 . S
H809 C818 0.929 . S
C810 H804 0.930 . S
C810 C811 1.367 . S
C810 C818 1.378 . S
C811 C810 1.367 . S
C811 C819 1.433 . S
C812 H808 0.929 . S
C812 C814 1.378 . S
C812 C816 1.350 . S
C813 C816 1.463 1_556 S
C813 C818 1.350 . S
C813 N821 1.427 . S
C814 H805 0.930 . S
C814 C812 1.378 . S
C814 C815 1.367 . S
C815 C814 1.367 . S
C815 C817 1.433 . S
C816 C812 1.350 . S
C816 C813 1.463 1_554 S
C816 N820 1.427 . S
C817 H807 0.929 . S
C817 C815 1.433 . S
C817 N820 1.384 . S
C818 H809 0.929 . S
C818 C810 1.378 . S
C818 C813 1.350 . S
C819 H806 0.929 . S
C819 C811 1.433 . S
C819 N821 1.384 . S
N820 C816 1.427 . S
N820 C817 1.384 . S
N821 C813 1.427 . S
N821 C819 1.384 . S
H822 C828 0.930 . S
H823 C832 0.930 . S
H824 C837 0.929 . S
H825 C835 0.929 . S
H826 C830 0.929 . S
H827 C836 0.929 . S
C828 H822 0.930 . S
C828 C829 1.367 . S
C828 C836 1.378 . S
C829 C828 1.367 . S
C829 C837 1.433 . S
C830 H826 0.929 . S
C830 C832 1.378 . S
C830 C834 1.350 . S
C831 C834 1.463 1_556 S
C831 C836 1.350 . S
C831 N839 1.427 . S
C832 H823 0.930 . S
C832 C830 1.378 . S
C832 C833 1.367 . S
C833 C832 1.367 . S
C833 C835 1.433 . S
C834 C830 1.350 . S
C834 C831 1.463 1_554 S
C834 N838 1.427 . S
C835 H825 0.929 . S
C835 C833 1.433 . S
C835 N838 1.384 . S
C836 H827 0.929 . S
C836 C828 1.378 . S
C836 C831 1.350 . S
C837 H824 0.929 . S
C837 C829 1.433 . S
C837 N839 1.384 . S
N838 C834 1.427 . S
N838 C835 1.384 . S
N839 C831 1.427 . S
N839 C837 1.384 . S
H840 C846 0.930 . S
H841 C850 0.930 . S
H842 C855 0.929 . S
H843 C853 0.929 . S
H844 C848 0.929 . S
H845 C854 0.929 . S
C846 H840 0.930 . S
C846 C847 1.367 . S
C846 C854 1.378 . S
C847 C846 1.367 . S
C847 C855 1.433 . S
C848 H844 0.929 . S
C848 C850 1.378 . S
C848 C852 1.350 . S
C849 C852 1.463 1_554 S
C849 C854 1.350 . S
C849 N857 1.427 . S
C850 H841 0.930 . S
C850 C848 1.378 . S
C850 C851 1.367 . S
C851 C850 1.367 . S
C851 C853 1.433 . S
C852 C848 1.350 . S
C852 C849 1.463 1_556 S
C852 N856 1.427 . S
C853 H843 0.929 . S
C853 C851 1.433 . S
C853 N856 1.384 . S
C854 H845 0.929 . S
C854 C846 1.378 . S
C854 C849 1.350 . S
C855 H842 0.929 . S
C855 C847 1.433 . S
C855 N857 1.384 . S
N856 C852 1.427 . S
N856 C853 1.384 . S
N857 C849 1.427 . S
N857 C855 1.384 . S
H858 C864 0.930 . S
H859 C868 0.930 . S
H860 C873 0.929 . S
H861 C871 0.929 . S
H862 C866 0.929 . S
H863 C872 0.929 . S
C864 H858 0.930 . S
C864 C865 1.367 . S
C864 C872 1.378 . S
C865 C864 1.367 . S
C865 C873 1.433 . S
C866 H862 0.929 . S
C866 C868 1.378 . S
C866 C870 1.350 . S
C867 C870 1.463 1_556 S
C867 C872 1.350 . S
C867 N875 1.427 . S
C868 H859 0.930 . S
C868 C866 1.378 . S
C868 C869 1.367 . S
C869 C868 1.367 . S
C869 C871 1.433 . S
C870 C866 1.350 . S
C870 C867 1.463 1_554 S
C870 N874 1.427 . S
C871 H861 0.929 . S
C871 C869 1.433 . S
C871 N874 1.384 . S
C872 H863 0.929 . S
C872 C864 1.378 . S
C872 C867 1.350 . S
C873 H860 0.929 . S
C873 C865 1.433 . S
C873 N875 1.384 . S
N874 C870 1.427 . S
N874 C871 1.384 . S
N875 C867 1.427 . S
N875 C873 1.384 . S
H876 C882 0.930 . S
H877 C886 0.930 . S
H878 C891 0.929 . S
H879 C889 0.929 . S
H880 C884 0.929 . S
H881 C890 0.929 . S
C882 H876 0.930 . S
C882 C883 1.367 . S
C882 C890 1.378 . S
C883 C882 1.367 . S
C883 C891 1.433 . S
C884 H880 0.929 . S
C884 C886 1.378 . S
C884 C888 1.350 . S
C885 C888 1.463 1_554 S
C885 C890 1.350 . S
C885 N893 1.427 . S
C886 H877 0.930 . S
C886 C884 1.378 . S
C886 C887 1.367 . S
C887 C886 1.367 . S
C887 C889 1.433 . S
C888 C884 1.350 . S
C888 C885 1.463 1_556 S
C888 N892 1.427 . S
C889 H879 0.929 . S
C889 C887 1.433 . S
C889 N892 1.384 . S
C890 H881 0.929 . S
C890 C882 1.378 . S
C890 C885 1.350 . S
C891 H878 0.929 . S
C891 C883 1.433 . S
C891 N893 1.384 . S
N892 C888 1.427 . S
N892 C889 1.384 . S
N893 C885 1.427 . S
N893 C891 1.384 . S
H894 C900 0.930 . S
H895 C904 0.930 . S
H896 C909 0.929 . S
H897 C907 0.929 . S
H898 C902 0.929 . S
H899 C908 0.929 . S
C900 H894 0.930 . S
C900 C901 1.367 . S
C900 C908 1.378 . S
C901 C900 1.367 . S
C901 C909 1.433 . S
C902 H898 0.929 . S
C902 C904 1.378 . S
C902 C906 1.350 . S
C903 C906 1.463 1_556 S
C903 C908 1.350 . S
C903 N911 1.427 . S
C904 H895 0.930 . S
C904 C902 1.378 . S
C904 C905 1.367 . S
C905 C904 1.367 . S
C905 C907 1.433 . S
C906 C902 1.350 . S
C906 C903 1.463 1_554 S
C906 N910 1.427 . S
C907 H897 0.929 . S
C907 C905 1.433 . S
C907 N910 1.384 . S
C908 H899 0.929 . S
C908 C900 1.378 . S
C908 C903 1.350 . S
C909 H896 0.929 . S
C909 C901 1.433 . S
C909 N911 1.384 . S
N910 C906 1.427 . S
N910 C907 1.384 . S
N911 C903 1.427 . S
N911 C909 1.384 . S
H912 C918 0.930 . S
H913 C922 0.930 . S
H914 C927 0.929 . S
H915 C925 0.929 . S
H916 C920 0.929 . S
H917 C926 0.929 . S
C918 H912 0.930 . S
C918 C919 1.367 . S
C918 C926 1.378 . S
C919 C918 1.367 . S
C919 C927 1.433 . S
C920 H916 0.929 . S
C920 C922 1.378 . S
C920 C924 1.350 . S
C921 C924 1.463 1_455 S
C921 C926 1.350 . S
C921 N929 1.427 . S
C922 H913 0.930 . S
C922 C920 1.378 . S
C922 C923 1.367 . S
C923 C922 1.367 . S
C923 C925 1.433 . S
C924 C920 1.350 . S
C924 C921 1.463 1_655 S
C924 N928 1.427 . S
C925 H915 0.929 . S
C925 C923 1.433 . S
C925 N928 1.384 . S
C926 H917 0.929 . S
C926 C918 1.378 . S
C926 C921 1.350 . S
C927 H914 0.929 . S
C927 C919 1.433 . S
C927 N929 1.384 . S
N928 C924 1.427 . S
N928 C925 1.384 . S
N929 C921 1.427 . S
N929 C927 1.384 . S
H930 C936 0.930 . S
H931 C940 0.930 . S
H932 C945 0.929 . S
H933 C943 0.929 . S
H934 C938 0.929 . S
H935 C944 0.929 . S
C936 H930 0.930 . S
C936 C937 1.367 . S
C936 C944 1.378 . S
C937 C936 1.367 . S
C937 C945 1.433 . S
C938 H934 0.929 . S
C938 C940 1.378 . S
C938 C942 1.350 . S
C939 C942 1.463 1_455 S
C939 C944 1.350 . S
C939 N947 1.427 . S
C940 H931 0.930 . S
C940 C938 1.378 . S
C940 C941 1.367 . S
C941 C940 1.367 . S
C941 C943 1.433 . S
C942 C938 1.350 . S
C942 C939 1.463 1_655 S
C942 N946 1.427 . S
C943 H933 0.929 . S
C943 C941 1.433 . S
C943 N946 1.384 . S
C944 H935 0.929 . S
C944 C936 1.378 . S
C944 C939 1.350 . S
C945 H932 0.929 . S
C945 C937 1.433 . S
C945 N947 1.384 . S
N946 C942 1.427 . S
N946 C943 1.384 . S
N947 C939 1.427 . S
N947 C945 1.384 . S
H948 C954 0.930 . S
H949 C958 0.930 . S
H950 C963 0.929 . S
H951 C961 0.929 . S
H952 C956 0.929 . S
H953 C962 0.929 . S
C954 H948 0.930 . S
C954 C955 1.367 . S
C954 C962 1.378 . S
C955 C954 1.367 . S
C955 C963 1.433 . S
C956 H952 0.929 . S
C956 C958 1.378 . S
C956 C960 1.350 . S
C957 C960 1.463 1_565 S
C957 C962 1.350 . S
C957 N965 1.427 . S
C958 H949 0.930 . S
C958 C956 1.378 . S
C958 C959 1.367 . S
C959 C958 1.367 . S
C959 C961 1.433 . S
C960 C956 1.350 . S
C960 C957 1.463 1_545 S
C960 N964 1.427 . S
C961 H951 0.929 . S
C961 C959 1.433 . S
C961 N964 1.384 . S
C962 H953 0.929 . S
C962 C954 1.378 . S
C962 C957 1.350 . S
C963 H950 0.929 . S
C963 C955 1.433 . S
C963 N965 1.384 . S
N964 C960 1.427 . S
N964 C961 1.384 . S
N965 C957 1.427 . S
N965 C963 1.384 . S
H966 C972 0.930 . S
H967 C976 0.930 . S
H968 C981 0.929 . S
H969 C979 0.929 . S
H970 C974 0.929 . S
H971 C980 0.929 . S
C972 H966 0.930 . S
C972 C973 1.367 . S
C972 C980 1.378 . S
C973 C972 1.367 . S
C973 C981 1.433 . S
C974 H970 0.929 . S
C974 C976 1.378 . S
C974 C978 1.350 . S
C975 C978 1.463 1_455 S
C975 C980 1.350 . S
C975 N983 1.427 . S
C976 H967 0.930 . S
C976 C974 1.378 . S
C976 C977 1.367 . S
C977 C976 1.367 . S
C977 C979 1.433 . S
C978 C974 1.350 . S
C978 C975 1.463 1_655 S
C978 N982 1.427 . S
C979 H969 0.929 . S
C979 C977 1.433 . S
C979 N982 1.384 . S
C980 H971 0.929 . S
C980 C972 1.378 . S
C980 C975 1.350 . S
C981 H968 0.929 . S
C981 C973 1.433 . S
C981 N983 1.384 . S
N982 C978 1.427 . S
N982 C979 1.384 . S
N983 C975 1.427 . S
N983 C981 1.384 . S
H984 C990 0.930 . S
H985 C994 0.930 . S
H986 C999 0.929 . S
H987 C997 0.929 . S
H988 C992 0.929 . S
H989 C998 0.929 . S
C990 H984 0.930 . S
C990 C991 1.367 . S
C990 C998 1.378 . S
C991 C990 1.367 . S
C991 C999 1.433 . S
C992 H988 0.929 . S
C992 C994 1.378 . S
C992 C996 1.350 . S
C993 C996 1.463 1_545 S
C993 C998 1.350 . S
C993 N1001 1.427 . S
C994 H985 0.930 . S
C994 C992 1.378 . S
C994 C995 1.367 . S
C995 C994 1.367 . S
C995 C997 1.433 . S
C996 C992 1.350 . S
C996 C993 1.463 1_565 S
C996 N1000 1.427 . S
C997 H987 0.929 . S
C997 C995 1.433 . S
C997 N1000 1.384 . S
C998 H989 0.929 . S
C998 C990 1.378 . S
C998 C993 1.350 . S
C999 H986 0.929 . S
C999 C991 1.433 . S
C999 N1001 1.384 . S
N1000 C996 1.427 . S
N1000 C997 1.384 . S
N1001 C993 1.427 . S
N1001 C999 1.384 . S
H1002 C1008 0.930 . S
H1003 C1012 0.930 . S
H1004 C1017 0.929 . S
H1005 C1015 0.929 . S
H1006 C1010 0.929 . S
H1007 C1016 0.929 . S
C1008 H1002 0.930 . S
C1008 C1009 1.367 . S
C1008 C1016 1.378 . S
C1009 C1008 1.367 . S
C1009 C1017 1.433 . S
C1010 H1006 0.929 . S
C1010 C1012 1.378 . S
C1010 C1014 1.350 . S
C1011 C1014 1.463 1_455 S
C1011 C1016 1.350 . S
C1011 N1019 1.427 . S
C1012 H1003 0.930 . S
C1012 C1010 1.378 . S
C1012 C1013 1.367 . S
C1013 C1012 1.367 . S
C1013 C1015 1.433 . S
C1014 C1010 1.350 . S
C1014 C1011 1.463 1_655 S
C1014 N1018 1.427 . S
C1015 H1005 0.929 . S
C1015 C1013 1.433 . S
C1015 N1018 1.384 . S
C1016 H1007 0.929 . S
C1016 C1008 1.378 . S
C1016 C1011 1.350 . S
C1017 H1004 0.929 . S
C1017 C1009 1.433 . S
C1017 N1019 1.384 . S
N1018 C1014 1.427 . S
N1018 C1015 1.384 . S
N1019 C1011 1.427 . S
N1019 C1017 1.384 . S
H1020 C1026 0.930 . S
H1021 C1030 0.930 . S
H1022 C1035 0.929 . S
H1023 C1033 0.929 . S
H1024 C1028 0.929 . S
H1025 C1034 0.929 . S
C1026 H1020 0.930 . S
C1026 C1027 1.367 . S
C1026 C1034 1.378 . S
C1027 C1026 1.367 . S
C1027 C1035 1.433 . S
C1028 H1024 0.929 . S
C1028 C1030 1.378 . S
C1028 C1032 1.350 . S
C1029 C1032 1.463 1_545 S
C1029 C1034 1.350 . S
C1029 N1037 1.427 . S
C1030 H1021 0.930 . S
C1030 C1028 1.378 . S
C1030 C1031 1.367 . S
C1031 C1030 1.367 . S
C1031 C1033 1.433 . S
C1032 C1028 1.350 . S
C1032 C1029 1.463 1_565 S
C1032 N1036 1.427 . S
C1033 H1023 0.929 . S
C1033 C1031 1.433 . S
C1033 N1036 1.384 . S
C1034 H1025 0.929 . S
C1034 C1026 1.378 . S
C1034 C1029 1.350 . S
C1035 H1022 0.929 . S
C1035 C1027 1.433 . S
C1035 N1037 1.384 . S
N1036 C1032 1.427 . S
N1036 C1033 1.384 . S
N1037 C1029 1.427 . S
N1037 C1035 1.384 . S
H1038 C1044 0.930 . S
H1039 C1048 0.930 . S
H1040 C1053 0.929 . S
H1041 C1051 0.929 . S
H1042 C1046 0.929 . S
H1043 C1052 0.929 . S
C1044 H1038 0.930 . S
C1044 C1045 1.367 . S
C1044 C1052 1.378 . S
C1045 C1044 1.367 . S
C1045 C1053 1.433 . S
C1046 H1042 0.929 . S
C1046 C1048 1.378 . S
C1046 C1050 1.350 . S
C1047 C1050 1.463 1_545 S
C1047 C1052 1.350 . S
C1047 N1055 1.427 . S
C1048 H1039 0.930 . S
C1048 C1046 1.378 . S
C1048 C1049 1.367 . S
C1049 C1048 1.367 . S
C1049 C1051 1.433 . S
C1050 C1046 1.350 . S
C1050 C1047 1.463 1_565 S
C1050 N1054 1.427 . S
C1051 H1041 0.929 . S
C1051 C1049 1.433 . S
C1051 N1054 1.384 . S
C1052 H1043 0.929 . S
C1052 C1044 1.378 . S
C1052 C1047 1.350 . S
C1053 H1040 0.929 . S
C1053 C1045 1.433 . S
C1053 N1055 1.384 . S
N1054 C1050 1.427 . S
N1054 C1051 1.384 . S
N1055 C1047 1.427 . S
N1055 C1053 1.384 . S
H1056 C1062 0.930 . S
H1057 C1066 0.930 . S
H1058 C1071 0.929 . S
H1059 C1069 0.929 . S
H1060 C1064 0.929 . S
H1061 C1070 0.929 . S
C1062 H1056 0.930 . S
C1062 C1063 1.367 . S
C1062 C1070 1.378 . S
C1063 C1062 1.367 . S
C1063 C1071 1.433 . S
C1064 H1060 0.929 . S
C1064 C1066 1.378 . S
C1064 C1068 1.350 . S
C1065 C1068 1.463 . S
C1065 C1070 1.350 . S
C1065 N1073 1.427 . S
C1066 H1057 0.930 . S
C1066 C1064 1.378 . S
C1066 C1067 1.367 . S
C1067 C1066 1.367 . S
C1067 C1069 1.433 . S
C1068 C1064 1.350 . S
C1068 C1065 1.463 . S
C1068 N1072 1.427 . S
C1069 H1059 0.929 . S
C1069 C1067 1.433 . S
C1069 N1072 1.384 . S
C1070 H1061 0.929 . S
C1070 C1062 1.378 . S
C1070 C1065 1.350 . S
C1071 H1058 0.929 . S
C1071 C1063 1.433 . S
C1071 N1073 1.384 . S
N1072 C1068 1.427 . S
N1072 C1069 1.384 . S
N1073 C1065 1.427 . S
N1073 C1071 1.384 . S
H1074 C1080 0.930 . S
H1075 C1084 0.930 . S
H1076 C1089 0.929 . S
H1077 C1087 0.929 . S
H1078 C1082 0.929 . S
H1079 C1088 0.929 . S
C1080 H1074 0.930 . S
C1080 C1081 1.367 . S
C1080 C1088 1.378 . S
C1081 C1080 1.367 . S
C1081 C1089 1.433 . S
C1082 H1078 0.929 . S
C1082 C1084 1.378 . S
C1082 C1086 1.350 . S
C1083 C1086 1.463 . S
C1083 C1088 1.350 . S
C1083 N1091 1.427 . S
C1084 H1075 0.930 . S
C1084 C1082 1.378 . S
C1084 C1085 1.367 . S
C1085 C1084 1.367 . S
C1085 C1087 1.433 . S
C1086 C1082 1.350 . S
C1086 C1083 1.463 . S
C1086 N1090 1.427 . S
C1087 H1077 0.929 . S
C1087 C1085 1.433 . S
C1087 N1090 1.384 . S
C1088 H1079 0.929 . S
C1088 C1080 1.378 . S
C1088 C1083 1.350 . S
C1089 H1076 0.929 . S
C1089 C1081 1.433 . S
C1089 N1091 1.384 . S
N1090 C1086 1.427 . S
N1090 C1087 1.384 . S
N1091 C1083 1.427 . S
N1091 C1089 1.384 . S
H1092 C1098 0.930 . S
H1093 C1102 0.930 . S
H1094 C1107 0.929 . S
H1095 C1105 0.929 . S
H1096 C1100 0.929 . S
H1097 C1106 0.929 . S
C1098 H1092 0.930 . S
C1098 C1099 1.367 . S
C1098 C1106 1.378 . S
C1099 C1098 1.367 . S
C1099 C1107 1.433 . S
C1100 H1096 0.929 . S
C1100 C1102 1.378 . S
C1100 C1104 1.350 . S
C1101 C1104 1.463 . S
C1101 C1106 1.350 . S
C1101 N1109 1.427 . S
C1102 H1093 0.930 . S
C1102 C1100 1.378 . S
C1102 C1103 1.367 . S
C1103 C1102 1.367 . S
C1103 C1105 1.433 . S
C1104 C1100 1.350 . S
C1104 C1101 1.463 . S
C1104 N1108 1.427 . S
C1105 H1095 0.929 . S
C1105 C1103 1.433 . S
C1105 N1108 1.384 . S
C1106 H1097 0.929 . S
C1106 C1098 1.378 . S
C1106 C1101 1.350 . S
C1107 H1094 0.929 . S
C1107 C1099 1.433 . S
C1107 N1109 1.384 . S
N1108 C1104 1.427 . S
N1108 C1105 1.384 . S
N1109 C1101 1.427 . S
N1109 C1107 1.384 . S
H1110 C1116 0.930 . S
H1111 C1120 0.930 . S
H1112 C1125 0.929 . S
H1113 C1123 0.929 . S
H1114 C1118 0.929 . S
H1115 C1124 0.929 . S
C1116 H1110 0.930 . S
C1116 C1117 1.367 . S
C1116 C1124 1.378 . S
C1117 C1116 1.367 . S
C1117 C1125 1.433 . S
C1118 H1114 0.929 . S
C1118 C1120 1.378 . S
C1118 C1122 1.350 . S
C1119 C1122 1.463 . S
C1119 C1124 1.350 . S
C1119 N1127 1.427 . S
C1120 H1111 0.930 . S
C1120 C1118 1.378 . S
C1120 C1121 1.367 . S
C1121 C1120 1.367 . S
C1121 C1123 1.433 . S
C1122 C1118 1.350 . S
C1122 C1119 1.463 . S
C1122 N1126 1.427 . S
C1123 H1113 0.929 . S
C1123 C1121 1.433 . S
C1123 N1126 1.384 . S
C1124 H1115 0.929 . S
C1124 C1116 1.378 . S
C1124 C1119 1.350 . S
C1125 H1112 0.929 . S
C1125 C1117 1.433 . S
C1125 N1127 1.384 . S
N1126 C1122 1.427 . S
N1126 C1123 1.384 . S
N1127 C1119 1.427 . S
N1127 C1125 1.384 . S
H1128 C1134 0.930 . S
H1129 C1138 0.930 . S
H1130 C1143 0.929 . S
H1131 C1141 0.929 . S
H1132 C1136 0.929 . S
H1133 C1142 0.929 . S
C1134 H1128 0.930 . S
C1134 C1135 1.367 . S
C1134 C1142 1.378 . S
C1135 C1134 1.367 . S
C1135 C1143 1.433 . S
C1136 H1132 0.929 . S
C1136 C1138 1.378 . S
C1136 C1140 1.350 . S
C1137 C1140 1.463 . S
C1137 C1142 1.350 . S
C1137 N1145 1.427 . S
C1138 H1129 0.930 . S
C1138 C1136 1.378 . S
C1138 C1139 1.367 . S
C1139 C1138 1.367 . S
C1139 C1141 1.433 . S
C1140 C1136 1.350 . S
C1140 C1137 1.463 . S
C1140 N1144 1.427 . S
C1141 H1131 0.929 . S
C1141 C1139 1.433 . S
C1141 N1144 1.384 . S
C1142 H1133 0.929 . S
C1142 C1134 1.378 . S
C1142 C1137 1.350 . S
C1143 H1130 0.929 . S
C1143 C1135 1.433 . S
C1143 N1145 1.384 . S
N1144 C1140 1.427 . S
N1144 C1141 1.384 . S
N1145 C1137 1.427 . S
N1145 C1143 1.384 . S
H1146 C1152 0.930 . S
H1147 C1156 0.930 . S
H1148 C1161 0.929 . S
H1149 C1159 0.929 . S
H1150 C1154 0.929 . S
H1151 C1160 0.929 . S
C1152 H1146 0.930 . S
C1152 C1153 1.367 . S
C1152 C1160 1.378 . S
C1153 C1152 1.367 . S
C1153 C1161 1.433 . S
C1154 H1150 0.929 . S
C1154 C1156 1.378 . S
C1154 C1158 1.350 . S
C1155 C1158 1.463 . S
C1155 C1160 1.350 . S
C1155 N1163 1.427 . S
C1156 H1147 0.930 . S
C1156 C1154 1.378 . S
C1156 C1157 1.367 . S
C1157 C1156 1.367 . S
C1157 C1159 1.433 . S
C1158 C1154 1.350 . S
C1158 C1155 1.463 . S
C1158 N1162 1.427 . S
C1159 H1149 0.929 . S
C1159 C1157 1.433 . S
C1159 N1162 1.384 . S
C1160 H1151 0.929 . S
C1160 C1152 1.378 . S
C1160 C1155 1.350 . S
C1161 H1148 0.929 . S
C1161 C1153 1.433 . S
C1161 N1163 1.384 . S
N1162 C1158 1.427 . S
N1162 C1159 1.384 . S
N1163 C1155 1.427 . S
N1163 C1161 1.384 . S
H1164 C1170 0.930 . S
H1165 C1174 0.930 . S
H1166 C1179 0.929 . S
H1167 C1177 0.929 . S
H1168 C1172 0.929 . S
H1169 C1178 0.929 . S
C1170 H1164 0.930 . S
C1170 C1171 1.367 . S
C1170 C1178 1.378 . S
C1171 C1170 1.367 . S
C1171 C1179 1.433 . S
C1172 H1168 0.929 . S
C1172 C1174 1.378 . S
C1172 C1176 1.350 . S
C1173 C1176 1.463 . S
C1173 C1178 1.350 . S
C1173 N1181 1.427 . S
C1174 H1165 0.930 . S
C1174 C1172 1.378 . S
C1174 C1175 1.367 . S
C1175 C1174 1.367 . S
C1175 C1177 1.433 . S
C1176 C1172 1.350 . S
C1176 C1173 1.463 . S
C1176 N1180 1.427 . S
C1177 H1167 0.929 . S
C1177 C1175 1.433 . S
C1177 N1180 1.384 . S
C1178 H1169 0.929 . S
C1178 C1170 1.378 . S
C1178 C1173 1.350 . S
C1179 H1166 0.929 . S
C1179 C1171 1.433 . S
C1179 N1181 1.384 . S
N1180 C1176 1.427 . S
N1180 C1177 1.384 . S
N1181 C1173 1.427 . S
N1181 C1179 1.384 . S
H1182 C1188 0.930 . S
H1183 C1192 0.930 . S
H1184 C1197 0.929 . S
H1185 C1195 0.929 . S
H1186 C1190 0.929 . S
H1187 C1196 0.929 . S
C1188 H1182 0.930 . S
C1188 C1189 1.367 . S
C1188 C1196 1.378 . S
C1189 C1188 1.367 . S
C1189 C1197 1.433 . S
C1190 H1186 0.929 . S
C1190 C1192 1.378 . S
C1190 C1194 1.350 . S
C1191 C1194 1.463 . S
C1191 C1196 1.350 . S
C1191 N1199 1.427 . S
C1192 H1183 0.930 . S
C1192 C1190 1.378 . S
C1192 C1193 1.367 . S
C1193 C1192 1.367 . S
C1193 C1195 1.433 . S
C1194 C1190 1.350 . S
C1194 C1191 1.463 . S
C1194 N1198 1.427 . S
C1195 H1185 0.929 . S
C1195 C1193 1.433 . S
C1195 N1198 1.384 . S
C1196 H1187 0.929 . S
C1196 C1188 1.378 . S
C1196 C1191 1.350 . S
C1197 H1184 0.929 . S
C1197 C1189 1.433 . S
C1197 N1199 1.384 . S
N1198 C1194 1.427 . S
N1198 C1195 1.384 . S
N1199 C1191 1.427 . S
N1199 C1197 1.384 . S
H1200 C1206 0.930 . S
H1201 C1210 0.930 . S
H1202 C1215 0.929 . S
H1203 C1213 0.929 . S
H1204 C1208 0.929 . S
H1205 C1214 0.929 . S
C1206 H1200 0.930 . S
C1206 C1207 1.367 . S
C1206 C1214 1.378 . S
C1207 C1206 1.367 . S
C1207 C1215 1.433 . S
C1208 H1204 0.929 . S
C1208 C1210 1.378 . S
C1208 C1212 1.350 . S
C1209 C1212 1.463 . S
C1209 C1214 1.350 . S
C1209 N1217 1.427 . S
C1210 H1201 0.930 . S
C1210 C1208 1.378 . S
C1210 C1211 1.367 . S
C1211 C1210 1.367 . S
C1211 C1213 1.433 . S
C1212 C1208 1.350 . S
C1212 C1209 1.463 . S
C1212 N1216 1.427 . S
C1213 H1203 0.929 . S
C1213 C1211 1.433 . S
C1213 N1216 1.384 . S
C1214 H1205 0.929 . S
C1214 C1206 1.378 . S
C1214 C1209 1.350 . S
C1215 H1202 0.929 . S
C1215 C1207 1.433 . S
C1215 N1217 1.384 . S
N1216 C1212 1.427 . S
N1216 C1213 1.384 . S
N1217 C1209 1.427 . S
N1217 C1215 1.384 . S
H1218 C1224 0.930 . S
H1219 C1228 0.930 . S
H1220 C1233 0.929 . S
H1221 C1231 0.929 . S
H1222 C1226 0.929 . S
H1223 C1232 0.929 . S
C1224 H1218 0.930 . S
C1224 C1225 1.367 . S
C1224 C1232 1.378 . S
C1225 C1224 1.367 . S
C1225 C1233 1.433 . S
C1226 H1222 0.929 . S
C1226 C1228 1.378 . S
C1226 C1230 1.350 . S
C1227 C1230 1.463 . S
C1227 C1232 1.350 . S
C1227 N1235 1.427 . S
C1228 H1219 0.930 . S
C1228 C1226 1.378 . S
C1228 C1229 1.367 . S
C1229 C1228 1.367 . S
C1229 C1231 1.433 . S
C1230 C1226 1.350 . S
C1230 C1227 1.463 . S
C1230 N1234 1.427 . S
C1231 H1221 0.929 . S
C1231 C1229 1.433 . S
C1231 N1234 1.384 . S
C1232 H1223 0.929 . S
C1232 C1224 1.378 . S
C1232 C1227 1.350 . S
C1233 H1220 0.929 . S
C1233 C1225 1.433 . S
C1233 N1235 1.384 . S
N1234 C1230 1.427 . S
N1234 C1231 1.384 . S
N1235 C1227 1.427 . S
N1235 C1233 1.384 . S
H1236 C1242 0.930 . S
H1237 C1246 0.930 . S
H1238 C1251 0.929 . S
H1239 C1249 0.929 . S
H1240 C1244 0.929 . S
H1241 C1250 0.929 . S
C1242 H1236 0.930 . S
C1242 C1243 1.367 . S
C1242 C1250 1.378 . S
C1243 C1242 1.367 . S
C1243 C1251 1.433 . S
C1244 H1240 0.929 . S
C1244 C1246 1.378 . S
C1244 C1248 1.350 . S
C1245 C1248 1.463 . S
C1245 C1250 1.350 . S
C1245 N1253 1.427 . S
C1246 H1237 0.930 . S
C1246 C1244 1.378 . S
C1246 C1247 1.367 . S
C1247 C1246 1.367 . S
C1247 C1249 1.433 . S
C1248 C1244 1.350 . S
C1248 C1245 1.463 . S
C1248 N1252 1.427 . S
C1249 H1239 0.929 . S
C1249 C1247 1.433 . S
C1249 N1252 1.384 . S
C1250 H1241 0.929 . S
C1250 C1242 1.378 . S
C1250 C1245 1.350 . S
C1251 H1238 0.929 . S
C1251 C1243 1.433 . S
C1251 N1253 1.384 . S
N1252 C1248 1.427 . S
N1252 C1249 1.384 . S
N1253 C1245 1.427 . S
N1253 C1251 1.384 . S
H1254 C1260 0.930 . S
H1255 C1264 0.930 . S
H1256 C1269 0.929 . S
H1257 C1267 0.929 . S
H1258 C1262 0.929 . S
H1259 C1268 0.929 . S
C1260 H1254 0.930 . S
C1260 C1261 1.367 . S
C1260 C1268 1.378 . S
C1261 C1260 1.367 . S
C1261 C1269 1.433 . S
C1262 H1258 0.929 . S
C1262 C1264 1.378 . S
C1262 C1266 1.350 . S
C1263 C1266 1.463 . S
C1263 C1268 1.350 . S
C1263 N1271 1.427 . S
C1264 H1255 0.930 . S
C1264 C1262 1.378 . S
C1264 C1265 1.367 . S
C1265 C1264 1.367 . S
C1265 C1267 1.433 . S
C1266 C1262 1.350 . S
C1266 C1263 1.463 . S
C1266 N1270 1.427 . S
C1267 H1257 0.929 . S
C1267 C1265 1.433 . S
C1267 N1270 1.384 . S
C1268 H1259 0.929 . S
C1268 C1260 1.378 . S
C1268 C1263 1.350 . S
C1269 H1256 0.929 . S
C1269 C1261 1.433 . S
C1269 N1271 1.384 . S
N1270 C1266 1.427 . S
N1270 C1267 1.384 . S
N1271 C1263 1.427 . S
N1271 C1269 1.384 . S
H1272 C1278 0.930 . S
H1273 C1282 0.930 . S
H1274 C1287 0.929 . S
H1275 C1285 0.929 . S
H1276 C1280 0.929 . S
H1277 C1286 0.929 . S
C1278 H1272 0.930 . S
C1278 C1279 1.367 . S
C1278 C1286 1.378 . S
C1279 C1278 1.367 . S
C1279 C1287 1.433 . S
C1280 H1276 0.929 . S
C1280 C1282 1.378 . S
C1280 C1284 1.350 . S
C1281 C1284 1.463 . S
C1281 C1286 1.350 . S
C1281 N1289 1.427 . S
C1282 H1273 0.930 . S
C1282 C1280 1.378 . S
C1282 C1283 1.367 . S
C1283 C1282 1.367 . S
C1283 C1285 1.433 . S
C1284 C1280 1.350 . S
C1284 C1281 1.463 . S
C1284 N1288 1.427 . S
C1285 H1275 0.929 . S
C1285 C1283 1.433 . S
C1285 N1288 1.384 . S
C1286 H1277 0.929 . S
C1286 C1278 1.378 . S
C1286 C1281 1.350 . S
C1287 H1274 0.929 . S
C1287 C1279 1.433 . S
C1287 N1289 1.384 . S
N1288 C1284 1.427 . S
N1288 C1285 1.384 . S
N1289 C1281 1.427 . S
N1289 C1287 1.384 . S
H1290 C1296 0.930 . S
H1291 C1300 0.930 . S
H1292 C1305 0.929 . S
H1293 C1303 0.929 . S
H1294 C1298 0.929 . S
H1295 C1304 0.929 . S
C1296 H1290 0.930 . S
C1296 C1297 1.367 . S
C1296 C1304 1.378 . S
C1297 C1296 1.367 . S
C1297 C1305 1.433 . S
C1298 H1294 0.929 . S
C1298 C1300 1.378 . S
C1298 C1302 1.350 . S
C1299 C1302 1.463 . S
C1299 C1304 1.350 . S
C1299 N1307 1.427 . S
C1300 H1291 0.930 . S
C1300 C1298 1.378 . S
C1300 C1301 1.367 . S
C1301 C1300 1.367 . S
C1301 C1303 1.433 . S
C1302 C1298 1.350 . S
C1302 C1299 1.463 . S
C1302 N1306 1.427 . S
C1303 H1293 0.929 . S
C1303 C1301 1.433 . S
C1303 N1306 1.384 . S
C1304 H1295 0.929 . S
C1304 C1296 1.378 . S
C1304 C1299 1.350 . S
C1305 H1292 0.929 . S
C1305 C1297 1.433 . S
C1305 N1307 1.384 . S
N1306 C1302 1.427 . S
N1306 C1303 1.384 . S
N1307 C1299 1.427 . S
N1307 C1305 1.384 . S
H1308 C1314 0.930 . S
H1309 C1318 0.930 . S
H1310 C1323 0.929 . S
H1311 C1321 0.929 . S
H1312 C1316 0.929 . S
H1313 C1322 0.929 . S
C1314 H1308 0.930 . S
C1314 C1315 1.367 . S
C1314 C1322 1.378 . S
C1315 C1314 1.367 . S
C1315 C1323 1.433 . S
C1316 H1312 0.929 . S
C1316 C1318 1.378 . S
C1316 C1320 1.350 . S
C1317 C1320 1.463 . S
C1317 C1322 1.350 . S
C1317 N1325 1.427 . S
C1318 H1309 0.930 . S
C1318 C1316 1.378 . S
C1318 C1319 1.367 . S
C1319 C1318 1.367 . S
C1319 C1321 1.433 . S
C1320 C1316 1.350 . S
C1320 C1317 1.463 . S
C1320 N1324 1.427 . S
C1321 H1311 0.929 . S
C1321 C1319 1.433 . S
C1321 N1324 1.384 . S
C1322 H1313 0.929 . S
C1322 C1314 1.378 . S
C1322 C1317 1.350 . S
C1323 H1310 0.929 . S
C1323 C1315 1.433 . S
C1323 N1325 1.384 . S
N1324 C1320 1.427 . S
N1324 C1321 1.384 . S
N1325 C1317 1.427 . S
N1325 C1323 1.384 . S
H1326 C1332 0.930 . S
H1327 C1336 0.930 . S
H1328 C1341 0.929 . S
H1329 C1339 0.929 . S
H1330 C1334 0.929 . S
H1331 C1340 0.929 . S
C1332 H1326 0.930 . S
C1332 C1333 1.367 . S
C1332 C1340 1.378 . S
C1333 C1332 1.367 . S
C1333 C1341 1.433 . S
C1334 H1330 0.929 . S
C1334 C1336 1.378 . S
C1334 C1338 1.350 . S
C1335 C1338 1.463 . S
C1335 C1340 1.350 . S
C1335 N1343 1.427 . S
C1336 H1327 0.930 . S
C1336 C1334 1.378 . S
C1336 C1337 1.367 . S
C1337 C1336 1.367 . S
C1337 C1339 1.433 . S
C1338 C1334 1.350 . S
C1338 C1335 1.463 . S
C1338 N1342 1.427 . S
C1339 H1329 0.929 . S
C1339 C1337 1.433 . S
C1339 N1342 1.384 . S
C1340 H1331 0.929 . S
C1340 C1332 1.378 . S
C1340 C1335 1.350 . S
C1341 H1328 0.929 . S
C1341 C1333 1.433 . S
C1341 N1343 1.384 . S
N1342 C1338 1.427 . S
N1342 C1339 1.384 . S
N1343 C1335 1.427 . S
N1343 C1341 1.384 . S
H1344 C1350 0.930 . S
H1345 C1354 0.930 . S
H1346 C1359 0.929 . S
H1347 C1357 0.929 . S
H1348 C1352 0.929 . S
H1349 C1358 0.929 . S
C1350 H1344 0.930 . S
C1350 C1351 1.367 . S
C1350 C1358 1.378 . S
C1351 C1350 1.367 . S
C1351 C1359 1.433 . S
C1352 H1348 0.929 . S
C1352 C1354 1.378 . S
C1352 C1356 1.350 . S
C1353 C1356 1.463 . S
C1353 C1358 1.350 . S
C1353 N1361 1.427 . S
C1354 H1345 0.930 . S
C1354 C1352 1.378 . S
C1354 C1355 1.367 . S
C1355 C1354 1.367 . S
C1355 C1357 1.433 . S
C1356 C1352 1.350 . S
C1356 C1353 1.463 . S
C1356 N1360 1.427 . S
C1357 H1347 0.929 . S
C1357 C1355 1.433 . S
C1357 N1360 1.384 . S
C1358 H1349 0.929 . S
C1358 C1350 1.378 . S
C1358 C1353 1.350 . S
C1359 H1346 0.929 . S
C1359 C1351 1.433 . S
C1359 N1361 1.384 . S
N1360 C1356 1.427 . S
N1360 C1357 1.384 . S
N1361 C1353 1.427 . S
N1361 C1359 1.384 . S
H1362 C1368 0.930 . S
H1363 C1372 0.930 . S
H1364 C1377 0.929 . S
H1365 C1375 0.929 . S
H1366 C1370 0.929 . S
H1367 C1376 0.929 . S
C1368 H1362 0.930 . S
C1368 C1369 1.367 . S
C1368 C1376 1.378 . S
C1369 C1368 1.367 . S
C1369 C1377 1.433 . S
C1370 H1366 0.929 . S
C1370 C1372 1.378 . S
C1370 C1374 1.350 . S
C1371 C1374 1.463 . S
C1371 C1376 1.350 . S
C1371 N1379 1.427 . S
C1372 H1363 0.930 . S
C1372 C1370 1.378 . S
C1372 C1373 1.367 . S
C1373 C1372 1.367 . S
C1373 C1375 1.433 . S
C1374 C1370 1.350 . S
C1374 C1371 1.463 . S
C1374 N1378 1.427 . S
C1375 H1365 0.929 . S
C1375 C1373 1.433 . S
C1375 N1378 1.384 . S
C1376 H1367 0.929 . S
C1376 C1368 1.378 . S
C1376 C1371 1.350 . S
C1377 H1364 0.929 . S
C1377 C1369 1.433 . S
C1377 N1379 1.384 . S
N1378 C1374 1.427 . S
N1378 C1375 1.384 . S
N1379 C1371 1.427 . S
N1379 C1377 1.384 . S
H1380 C1386 0.930 . S
H1381 C1390 0.930 . S
H1382 C1395 0.929 . S
H1383 C1393 0.929 . S
H1384 C1388 0.929 . S
H1385 C1394 0.929 . S
C1386 H1380 0.930 . S
C1386 C1387 1.367 . S
C1386 C1394 1.378 . S
C1387 C1386 1.367 . S
C1387 C1395 1.433 . S
C1388 H1384 0.929 . S
C1388 C1390 1.378 . S
C1388 C1392 1.350 . S
C1389 C1392 1.463 . S
C1389 C1394 1.350 . S
C1389 N1397 1.427 . S
C1390 H1381 0.930 . S
C1390 C1388 1.378 . S
C1390 C1391 1.367 . S
C1391 C1390 1.367 . S
C1391 C1393 1.433 . S
C1392 C1388 1.350 . S
C1392 C1389 1.463 . S
C1392 N1396 1.427 . S
C1393 H1383 0.929 . S
C1393 C1391 1.433 . S
C1393 N1396 1.384 . S
C1394 H1385 0.929 . S
C1394 C1386 1.378 . S
C1394 C1389 1.350 . S
C1395 H1382 0.929 . S
C1395 C1387 1.433 . S
C1395 N1397 1.384 . S
N1396 C1392 1.427 . S
N1396 C1393 1.384 . S
N1397 C1389 1.427 . S
N1397 C1395 1.384 . S
H1398 C1404 0.930 . S
H1399 C1408 0.930 . S
H1400 C1413 0.929 . S
H1401 C1411 0.929 . S
H1402 C1406 0.929 . S
H1403 C1412 0.929 . S
C1404 H1398 0.930 . S
C1404 C1405 1.367 . S
C1404 C1412 1.378 . S
C1405 C1404 1.367 . S
C1405 C1413 1.433 . S
C1406 H1402 0.929 . S
C1406 C1408 1.378 . S
C1406 C1410 1.350 . S
C1407 C1410 1.463 . S
C1407 C1412 1.350 . S
C1407 N1415 1.427 . S
C1408 H1399 0.930 . S
C1408 C1406 1.378 . S
C1408 C1409 1.367 . S
C1409 C1408 1.367 . S
C1409 C1411 1.433 . S
C1410 C1406 1.350 . S
C1410 C1407 1.463 . S
C1410 N1414 1.427 . S
C1411 H1401 0.929 . S
C1411 C1409 1.433 . S
C1411 N1414 1.384 . S
C1412 H1403 0.929 . S
C1412 C1404 1.378 . S
C1412 C1407 1.350 . S
C1413 H1400 0.929 . S
C1413 C1405 1.433 . S
C1413 N1415 1.384 . S
N1414 C1410 1.427 . S
N1414 C1411 1.384 . S
N1415 C1407 1.427 . S
N1415 C1413 1.384 . S
H1416 C1422 0.930 . S
H1417 C1426 0.930 . S
H1418 C1431 0.929 . S
H1419 C1429 0.929 . S
H1420 C1424 0.929 . S
H1421 C1430 0.929 . S
C1422 H1416 0.930 . S
C1422 C1423 1.367 . S
C1422 C1430 1.378 . S
C1423 C1422 1.367 . S
C1423 C1431 1.433 . S
C1424 H1420 0.929 . S
C1424 C1426 1.378 . S
C1424 C1428 1.350 . S
C1425 C1428 1.463 . S
C1425 C1430 1.350 . S
C1425 N1433 1.427 . S
C1426 H1417 0.930 . S
C1426 C1424 1.378 . S
C1426 C1427 1.367 . S
C1427 C1426 1.367 . S
C1427 C1429 1.433 . S
C1428 C1424 1.350 . S
C1428 C1425 1.463 . S
C1428 N1432 1.427 . S
C1429 H1419 0.929 . S
C1429 C1427 1.433 . S
C1429 N1432 1.384 . S
C1430 H1421 0.929 . S
C1430 C1422 1.378 . S
C1430 C1425 1.350 . S
C1431 H1418 0.929 . S
C1431 C1423 1.433 . S
C1431 N1433 1.384 . S
N1432 C1428 1.427 . S
N1432 C1429 1.384 . S
N1433 C1425 1.427 . S
N1433 C1431 1.384 . S
H1434 C1440 0.930 . S
H1435 C1444 0.930 . S
H1436 C1449 0.929 . S
H1437 C1447 0.929 . S
H1438 C1442 0.929 . S
H1439 C1448 0.929 . S
C1440 H1434 0.930 . S
C1440 C1441 1.367 . S
C1440 C1448 1.378 . S
C1441 C1440 1.367 . S
C1441 C1449 1.433 . S
C1442 H1438 0.929 . S
C1442 C1444 1.378 . S
C1442 C1446 1.350 . S
C1443 C1446 1.463 . S
C1443 C1448 1.350 . S
C1443 N1451 1.427 . S
C1444 H1435 0.930 . S
C1444 C1442 1.378 . S
C1444 C1445 1.367 . S
C1445 C1444 1.367 . S
C1445 C1447 1.433 . S
C1446 C1442 1.350 . S
C1446 C1443 1.463 . S
C1446 N1450 1.427 . S
C1447 H1437 0.929 . S
C1447 C1445 1.433 . S
C1447 N1450 1.384 . S
C1448 H1439 0.929 . S
C1448 C1440 1.378 . S
C1448 C1443 1.350 . S
C1449 H1436 0.929 . S
C1449 C1441 1.433 . S
C1449 N1451 1.384 . S
N1450 C1446 1.427 . S
N1450 C1447 1.384 . S
N1451 C1443 1.427 . S
N1451 C1449 1.384 . S
H1452 C1458 0.930 . S
H1453 C1462 0.930 . S
H1454 C1467 0.929 . S
H1455 C1465 0.929 . S
H1456 C1460 0.929 . S
H1457 C1466 0.929 . S
C1458 H1452 0.930 . S
C1458 C1459 1.367 . S
C1458 C1466 1.378 . S
C1459 C1458 1.367 . S
C1459 C1467 1.433 . S
C1460 H1456 0.929 . S
C1460 C1462 1.378 . S
C1460 C1464 1.350 . S
C1461 C1464 1.463 . S
C1461 C1466 1.350 . S
C1461 N1469 1.427 . S
C1462 H1453 0.930 . S
C1462 C1460 1.378 . S
C1462 C1463 1.367 . S
C1463 C1462 1.367 . S
C1463 C1465 1.433 . S
C1464 C1460 1.350 . S
C1464 C1461 1.463 . S
C1464 N1468 1.427 . S
C1465 H1455 0.929 . S
C1465 C1463 1.433 . S
C1465 N1468 1.384 . S
C1466 H1457 0.929 . S
C1466 C1458 1.378 . S
C1466 C1461 1.350 . S
C1467 H1454 0.929 . S
C1467 C1459 1.433 . S
C1467 N1469 1.384 . S
N1468 C1464 1.427 . S
N1468 C1465 1.384 . S
N1469 C1461 1.427 . S
N1469 C1467 1.384 . S
H1470 C1476 0.930 . S
H1471 C1480 0.930 . S
H1472 C1485 0.929 . S
H1473 C1483 0.929 . S
H1474 C1478 0.929 . S
H1475 C1484 0.929 . S
C1476 H1470 0.930 . S
C1476 C1477 1.367 . S
C1476 C1484 1.378 . S
C1477 C1476 1.367 . S
C1477 C1485 1.433 . S
C1478 H1474 0.929 . S
C1478 C1480 1.378 . S
C1478 C1482 1.350 . S
C1479 C1482 1.463 . S
C1479 C1484 1.350 . S
C1479 N1487 1.427 . S
C1480 H1471 0.930 . S
C1480 C1478 1.378 . S
C1480 C1481 1.367 . S
C1481 C1480 1.367 . S
C1481 C1483 1.433 . S
C1482 C1478 1.350 . S
C1482 C1479 1.463 . S
C1482 N1486 1.427 . S
C1483 H1473 0.929 . S
C1483 C1481 1.433 . S
C1483 N1486 1.384 . S
C1484 H1475 0.929 . S
C1484 C1476 1.378 . S
C1484 C1479 1.350 . S
C1485 H1472 0.929 . S
C1485 C1477 1.433 . S
C1485 N1487 1.384 . S
N1486 C1482 1.427 . S
N1486 C1483 1.384 . S
N1487 C1479 1.427 . S
N1487 C1485 1.384 . S
H1488 C1494 0.930 . S
H1489 C1498 0.930 . S
H1490 C1503 0.929 . S
H1491 C1501 0.929 . S
H1492 C1496 0.929 . S
H1493 C1502 0.929 . S
C1494 H1488 0.930 . S
C1494 C1495 1.367 . S
C1494 C1502 1.378 . S
C1495 C1494 1.367 . S
C1495 C1503 1.433 . S
C1496 H1492 0.929 . S
C1496 C1498 1.378 . S
C1496 C1500 1.350 . S
C1497 C1500 1.463 . S
C1497 C1502 1.350 . S
C1497 N1505 1.427 . S
C1498 H1489 0.930 . S
C1498 C1496 1.378 . S
C1498 C1499 1.367 . S
C1499 C1498 1.367 . S
C1499 C1501 1.433 . S
C1500 C1496 1.350 . S
C1500 C1497 1.463 . S
C1500 N1504 1.427 . S
C1501 H1491 0.929 . S
C1501 C1499 1.433 . S
C1501 N1504 1.384 . S
C1502 H1493 0.929 . S
C1502 C1494 1.378 . S
C1502 C1497 1.350 . S
C1503 H1490 0.929 . S
C1503 C1495 1.433 . S
C1503 N1505 1.384 . S
N1504 C1500 1.427 . S
N1504 C1501 1.384 . S
N1505 C1497 1.427 . S
N1505 C1503 1.384 . S
H1506 C1512 0.930 . S
H1507 C1516 0.930 . S
H1508 C1521 0.929 . S
H1509 C1519 0.929 . S
H1510 C1514 0.929 . S
H1511 C1520 0.929 . S
C1512 H1506 0.930 . S
C1512 C1513 1.367 . S
C1512 C1520 1.378 . S
C1513 C1512 1.367 . S
C1513 C1521 1.433 . S
C1514 H1510 0.929 . S
C1514 C1516 1.378 . S
C1514 C1518 1.350 . S
C1515 C1518 1.463 . S
C1515 C1520 1.350 . S
C1515 N1523 1.427 . S
C1516 H1507 0.930 . S
C1516 C1514 1.378 . S
C1516 C1517 1.367 . S
C1517 C1516 1.367 . S
C1517 C1519 1.433 . S
C1518 C1514 1.350 . S
C1518 C1515 1.463 . S
C1518 N1522 1.427 . S
C1519 H1509 0.929 . S
C1519 C1517 1.433 . S
C1519 N1522 1.384 . S
C1520 H1511 0.929 . S
C1520 C1512 1.378 . S
C1520 C1515 1.350 . S
C1521 H1508 0.929 . S
C1521 C1513 1.433 . S
C1521 N1523 1.384 . S
N1522 C1518 1.427 . S
N1522 C1519 1.384 . S
N1523 C1515 1.427 . S
N1523 C1521 1.384 . S
H1524 C1530 0.930 . S
H1525 C1534 0.930 . S
H1526 C1539 0.929 . S
H1527 C1537 0.929 . S
H1528 C1532 0.929 . S
H1529 C1538 0.929 . S
C1530 H1524 0.930 . S
C1530 C1531 1.367 . S
C1530 C1538 1.378 . S
C1531 C1530 1.367 . S
C1531 C1539 1.433 . S
C1532 H1528 0.929 . S
C1532 C1534 1.378 . S
C1532 C1536 1.350 . S
C1533 C1536 1.463 . S
C1533 C1538 1.350 . S
C1533 N1541 1.427 . S
C1534 H1525 0.930 . S
C1534 C1532 1.378 . S
C1534 C1535 1.367 . S
C1535 C1534 1.367 . S
C1535 C1537 1.433 . S
C1536 C1532 1.350 . S
C1536 C1533 1.463 . S
C1536 N1540 1.427 . S
C1537 H1527 0.929 . S
C1537 C1535 1.433 . S
C1537 N1540 1.384 . S
C1538 H1529 0.929 . S
C1538 C1530 1.378 . S
C1538 C1533 1.350 . S
C1539 H1526 0.929 . S
C1539 C1531 1.433 . S
C1539 N1541 1.384 . S
N1540 C1536 1.427 . S
N1540 C1537 1.384 . S
N1541 C1533 1.427 . S
N1541 C1539 1.384 . S
H1542 C1548 0.930 . S
H1543 C1552 0.930 . S
H1544 C1557 0.929 . S
H1545 C1555 0.929 . S
H1546 C1550 0.929 . S
H1547 C1556 0.929 . S
C1548 H1542 0.930 . S
C1548 C1549 1.367 . S
C1548 C1556 1.378 . S
C1549 C1548 1.367 . S
C1549 C1557 1.433 . S
C1550 H1546 0.929 . S
C1550 C1552 1.378 . S
C1550 C1554 1.350 . S
C1551 C1554 1.463 . S
C1551 C1556 1.350 . S
C1551 N1559 1.427 . S
C1552 H1543 0.930 . S
C1552 C1550 1.378 . S
C1552 C1553 1.367 . S
C1553 C1552 1.367 . S
C1553 C1555 1.433 . S
C1554 C1550 1.350 . S
C1554 C1551 1.463 . S
C1554 N1558 1.427 . S
C1555 H1545 0.929 . S
C1555 C1553 1.433 . S
C1555 N1558 1.384 . S
C1556 H1547 0.929 . S
C1556 C1548 1.378 . S
C1556 C1551 1.350 . S
C1557 H1544 0.929 . S
C1557 C1549 1.433 . S
C1557 N1559 1.384 . S
N1558 C1554 1.427 . S
N1558 C1555 1.384 . S
N1559 C1551 1.427 . S
N1559 C1557 1.384 . S
H1560 C1566 0.930 . S
H1561 C1570 0.930 . S
H1562 C1575 0.929 . S
H1563 C1573 0.929 . S
H1564 C1568 0.929 . S
H1565 C1574 0.929 . S
C1566 H1560 0.930 . S
C1566 C1567 1.367 . S
C1566 C1574 1.378 . S
C1567 C1566 1.367 . S
C1567 C1575 1.433 . S
C1568 H1564 0.929 . S
C1568 C1570 1.378 . S
C1568 C1572 1.350 . S
C1569 C1572 1.463 . S
C1569 C1574 1.350 . S
C1569 N1577 1.427 . S
C1570 H1561 0.930 . S
C1570 C1568 1.378 . S
C1570 C1571 1.367 . S
C1571 C1570 1.367 . S
C1571 C1573 1.433 . S
C1572 C1568 1.350 . S
C1572 C1569 1.463 . S
C1572 N1576 1.427 . S
C1573 H1563 0.929 . S
C1573 C1571 1.433 . S
C1573 N1576 1.384 . S
C1574 H1565 0.929 . S
C1574 C1566 1.378 . S
C1574 C1569 1.350 . S
C1575 H1562 0.929 . S
C1575 C1567 1.433 . S
C1575 N1577 1.384 . S
N1576 C1572 1.427 . S
N1576 C1573 1.384 . S
N1577 C1569 1.427 . S
N1577 C1575 1.384 . S
H1578 C1584 0.930 . S
H1579 C1588 0.930 . S
H1580 C1593 0.929 . S
H1581 C1591 0.929 . S
H1582 C1586 0.929 . S
H1583 C1592 0.929 . S
C1584 H1578 0.930 . S
C1584 C1585 1.367 . S
C1584 C1592 1.378 . S
C1585 C1584 1.367 . S
C1585 C1593 1.433 . S
C1586 H1582 0.929 . S
C1586 C1588 1.378 . S
C1586 C1590 1.350 . S
C1587 C1590 1.463 . S
C1587 C1592 1.350 . S
C1587 N1595 1.427 . S
C1588 H1579 0.930 . S
C1588 C1586 1.378 . S
C1588 C1589 1.367 . S
C1589 C1588 1.367 . S
C1589 C1591 1.433 . S
C1590 C1586 1.350 . S
C1590 C1587 1.463 . S
C1590 N1594 1.427 . S
C1591 H1581 0.929 . S
C1591 C1589 1.433 . S
C1591 N1594 1.384 . S
C1592 H1583 0.929 . S
C1592 C1584 1.378 . S
C1592 C1587 1.350 . S
C1593 H1580 0.929 . S
C1593 C1585 1.433 . S
C1593 N1595 1.384 . S
N1594 C1590 1.427 . S
N1594 C1591 1.384 . S
N1595 C1587 1.427 . S
N1595 C1593 1.384 . S
H1596 C1602 0.930 . S
H1597 C1606 0.930 . S
H1598 C1611 0.929 . S
H1599 C1609 0.929 . S
H1600 C1604 0.929 . S
H1601 C1610 0.929 . S
C1602 H1596 0.930 . S
C1602 C1603 1.367 . S
C1602 C1610 1.378 . S
C1603 C1602 1.367 . S
C1603 C1611 1.433 . S
C1604 H1600 0.929 . S
C1604 C1606 1.378 . S
C1604 C1608 1.350 . S
C1605 C1608 1.463 . S
C1605 C1610 1.350 . S
C1605 N1613 1.427 . S
C1606 H1597 0.930 . S
C1606 C1604 1.378 . S
C1606 C1607 1.367 . S
C1607 C1606 1.367 . S
C1607 C1609 1.433 . S
C1608 C1604 1.350 . S
C1608 C1605 1.463 . S
C1608 N1612 1.427 . S
C1609 H1599 0.929 . S
C1609 C1607 1.433 . S
C1609 N1612 1.384 . S
C1610 H1601 0.929 . S
C1610 C1602 1.378 . S
C1610 C1605 1.350 . S
C1611 H1598 0.929 . S
C1611 C1603 1.433 . S
C1611 N1613 1.384 . S
N1612 C1608 1.427 . S
N1612 C1609 1.384 . S
N1613 C1605 1.427 . S
N1613 C1611 1.384 . S
H1614 C1620 0.930 . S
H1615 C1624 0.930 . S
H1616 C1629 0.929 . S
H1617 C1627 0.929 . S
H1618 C1622 0.929 . S
H1619 C1628 0.929 . S
C1620 H1614 0.930 . S
C1620 C1621 1.367 . S
C1620 C1628 1.378 . S
C1621 C1620 1.367 . S
C1621 C1629 1.433 . S
C1622 H1618 0.929 . S
C1622 C1624 1.378 . S
C1622 C1626 1.350 . S
C1623 C1626 1.463 . S
C1623 C1628 1.350 . S
C1623 N1631 1.427 . S
C1624 H1615 0.930 . S
C1624 C1622 1.378 . S
C1624 C1625 1.367 . S
C1625 C1624 1.367 . S
C1625 C1627 1.433 . S
C1626 C1622 1.350 . S
C1626 C1623 1.463 . S
C1626 N1630 1.427 . S
C1627 H1617 0.929 . S
C1627 C1625 1.433 . S
C1627 N1630 1.384 . S
C1628 H1619 0.929 . S
C1628 C1620 1.378 . S
C1628 C1623 1.350 . S
C1629 H1616 0.929 . S
C1629 C1621 1.433 . S
C1629 N1631 1.384 . S
N1630 C1626 1.427 . S
N1630 C1627 1.384 . S
N1631 C1623 1.427 . S
N1631 C1629 1.384 . S
H1632 C1638 0.930 . S
H1633 C1642 0.930 . S
H1634 C1647 0.929 . S
H1635 C1645 0.929 . S
H1636 C1640 0.929 . S
H1637 C1646 0.929 . S
C1638 H1632 0.930 . S
C1638 C1639 1.367 . S
C1638 C1646 1.378 . S
C1639 C1638 1.367 . S
C1639 C1647 1.433 . S
C1640 H1636 0.929 . S
C1640 C1642 1.378 . S
C1640 C1644 1.350 . S
C1641 C1644 1.463 . S
C1641 C1646 1.350 . S
C1641 N1649 1.427 . S
C1642 H1633 0.930 . S
C1642 C1640 1.378 . S
C1642 C1643 1.367 . S
C1643 C1642 1.367 . S
C1643 C1645 1.433 . S
C1644 C1640 1.350 . S
C1644 C1641 1.463 . S
C1644 N1648 1.427 . S
C1645 H1635 0.929 . S
C1645 C1643 1.433 . S
C1645 N1648 1.384 . S
C1646 H1637 0.929 . S
C1646 C1638 1.378 . S
C1646 C1641 1.350 . S
C1647 H1634 0.929 . S
C1647 C1639 1.433 . S
C1647 N1649 1.384 . S
N1648 C1644 1.427 . S
N1648 C1645 1.384 . S
N1649 C1641 1.427 . S
N1649 C1647 1.384 . S
H1650 C1656 0.930 . S
H1651 C1660 0.930 . S
H1652 C1665 0.929 . S
H1653 C1663 0.929 . S
H1654 C1658 0.929 . S
H1655 C1664 0.929 . S
C1656 H1650 0.930 . S
C1656 C1657 1.367 . S
C1656 C1664 1.378 . S
C1657 C1656 1.367 . S
C1657 C1665 1.433 . S
C1658 H1654 0.929 . S
C1658 C1660 1.378 . S
C1658 C1662 1.350 . S
C1659 C1662 1.463 . S
C1659 C1664 1.350 . S
C1659 N1667 1.427 . S
C1660 H1651 0.930 . S
C1660 C1658 1.378 . S
C1660 C1661 1.367 . S
C1661 C1660 1.367 . S
C1661 C1663 1.433 . S
C1662 C1658 1.350 . S
C1662 C1659 1.463 . S
C1662 N1666 1.427 . S
C1663 H1653 0.929 . S
C1663 C1661 1.433 . S
C1663 N1666 1.384 . S
C1664 H1655 0.929 . S
C1664 C1656 1.378 . S
C1664 C1659 1.350 . S
C1665 H1652 0.929 . S
C1665 C1657 1.433 . S
C1665 N1667 1.384 . S
N1666 C1662 1.427 . S
N1666 C1663 1.384 . S
N1667 C1659 1.427 . S
N1667 C1665 1.384 . S
H1668 C1674 0.930 . S
H1669 C1678 0.930 . S
H1670 C1683 0.929 . S
H1671 C1681 0.929 . S
H1672 C1676 0.929 . S
H1673 C1682 0.929 . S
C1674 H1668 0.930 . S
C1674 C1675 1.367 . S
C1674 C1682 1.378 . S
C1675 C1674 1.367 . S
C1675 C1683 1.433 . S
C1676 H1672 0.929 . S
C1676 C1678 1.378 . S
C1676 C1680 1.350 . S
C1677 C1680 1.463 . S
C1677 C1682 1.350 . S
C1677 N1685 1.427 . S
C1678 H1669 0.930 . S
C1678 C1676 1.378 . S
C1678 C1679 1.367 . S
C1679 C1678 1.367 . S
C1679 C1681 1.433 . S
C1680 C1676 1.350 . S
C1680 C1677 1.463 . S
C1680 N1684 1.427 . S
C1681 H1671 0.929 . S
C1681 C1679 1.433 . S
C1681 N1684 1.384 . S
C1682 H1673 0.929 . S
C1682 C1674 1.378 . S
C1682 C1677 1.350 . S
C1683 H1670 0.929 . S
C1683 C1675 1.433 . S
C1683 N1685 1.384 . S
N1684 C1680 1.427 . S
N1684 C1681 1.384 . S
N1685 C1677 1.427 . S
N1685 C1683 1.384 . S
H1686 C1692 0.930 . S
H1687 C1696 0.930 . S
H1688 C1701 0.929 . S
H1689 C1699 0.929 . S
H1690 C1694 0.929 . S
H1691 C1700 0.929 . S
C1692 H1686 0.930 . S
C1692 C1693 1.367 . S
C1692 C1700 1.378 . S
C1693 C1692 1.367 . S
C1693 C1701 1.433 . S
C1694 H1690 0.929 . S
C1694 C1696 1.378 . S
C1694 C1698 1.350 . S
C1695 C1698 1.463 . S
C1695 C1700 1.350 . S
C1695 N1703 1.427 . S
C1696 H1687 0.930 . S
C1696 C1694 1.378 . S
C1696 C1697 1.367 . S
C1697 C1696 1.367 . S
C1697 C1699 1.433 . S
C1698 C1694 1.350 . S
C1698 C1695 1.463 . S
C1698 N1702 1.427 . S
C1699 H1689 0.929 . S
C1699 C1697 1.433 . S
C1699 N1702 1.384 . S
C1700 H1691 0.929 . S
C1700 C1692 1.378 . S
C1700 C1695 1.350 . S
C1701 H1688 0.929 . S
C1701 C1693 1.433 . S
C1701 N1703 1.384 . S
N1702 C1698 1.427 . S
N1702 C1699 1.384 . S
N1703 C1695 1.427 . S
N1703 C1701 1.384 . S
H1704 C1710 0.930 . S
H1705 C1714 0.930 . S
H1706 C1719 0.929 . S
H1707 C1717 0.929 . S
H1708 C1712 0.929 . S
H1709 C1718 0.929 . S
C1710 H1704 0.930 . S
C1710 C1711 1.367 . S
C1710 C1718 1.378 . S
C1711 C1710 1.367 . S
C1711 C1719 1.433 . S
C1712 H1708 0.929 . S
C1712 C1714 1.378 . S
C1712 C1716 1.350 . S
C1713 C1716 1.463 . S
C1713 C1718 1.350 . S
C1713 N1721 1.427 . S
C1714 H1705 0.930 . S
C1714 C1712 1.378 . S
C1714 C1715 1.367 . S
C1715 C1714 1.367 . S
C1715 C1717 1.433 . S
C1716 C1712 1.350 . S
C1716 C1713 1.463 . S
C1716 N1720 1.427 . S
C1717 H1707 0.929 . S
C1717 C1715 1.433 . S
C1717 N1720 1.384 . S
C1718 H1709 0.929 . S
C1718 C1710 1.378 . S
C1718 C1713 1.350 . S
C1719 H1706 0.929 . S
C1719 C1711 1.433 . S
C1719 N1721 1.384 . S
N1720 C1716 1.427 . S
N1720 C1717 1.384 . S
N1721 C1713 1.427 . S
N1721 C1719 1.384 . S
H1722 C1728 0.930 . S
H1723 C1732 0.930 . S
H1724 C1737 0.929 . S
H1725 C1735 0.929 . S
H1726 C1730 0.929 . S
H1727 C1736 0.929 . S
C1728 H1722 0.930 . S
C1728 C1729 1.367 . S
C1728 C1736 1.378 . S
C1729 C1728 1.367 . S
C1729 C1737 1.433 . S
C1730 H1726 0.929 . S
C1730 C1732 1.378 . S
C1730 C1734 1.350 . S
C1731 C1734 1.463 . S
C1731 C1736 1.350 . S
C1731 N1739 1.427 . S
C1732 H1723 0.930 . S
C1732 C1730 1.378 . S
C1732 C1733 1.367 . S
C1733 C1732 1.367 . S
C1733 C1735 1.433 . S
C1734 C1730 1.350 . S
C1734 C1731 1.463 . S
C1734 N1738 1.427 . S
C1735 H1725 0.929 . S
C1735 C1733 1.433 . S
C1735 N1738 1.384 . S
C1736 H1727 0.929 . S
C1736 C1728 1.378 . S
C1736 C1731 1.350 . S
C1737 H1724 0.929 . S
C1737 C1729 1.433 . S
C1737 N1739 1.384 . S
N1738 C1734 1.427 . S
N1738 C1735 1.384 . S
N1739 C1731 1.427 . S
N1739 C1737 1.384 . S
H1740 C1746 0.930 . S
H1741 C1750 0.930 . S
H1742 C1755 0.929 . S
H1743 C1753 0.929 . S
H1744 C1748 0.929 . S
H1745 C1754 0.929 . S
C1746 H1740 0.930 . S
C1746 C1747 1.367 . S
C1746 C1754 1.378 . S
C1747 C1746 1.367 . S
C1747 C1755 1.433 . S
C1748 H1744 0.929 . S
C1748 C1750 1.378 . S
C1748 C1752 1.350 . S
C1749 C1752 1.463 . S
C1749 C1754 1.350 . S
C1749 N1757 1.427 . S
C1750 H1741 0.930 . S
C1750 C1748 1.378 . S
C1750 C1751 1.367 . S
C1751 C1750 1.367 . S
C1751 C1753 1.433 . S
C1752 C1748 1.350 . S
C1752 C1749 1.463 . S
C1752 N1756 1.427 . S
C1753 H1743 0.929 . S
C1753 C1751 1.433 . S
C1753 N1756 1.384 . S
C1754 H1745 0.929 . S
C1754 C1746 1.378 . S
C1754 C1749 1.350 . S
C1755 H1742 0.929 . S
C1755 C1747 1.433 . S
C1755 N1757 1.384 . S
N1756 C1752 1.427 . S
N1756 C1753 1.384 . S
N1757 C1749 1.427 . S
N1757 C1755 1.384 . S
H1758 C1764 0.930 . S
H1759 C1768 0.930 . S
H1760 C1773 0.929 . S
H1761 C1771 0.929 . S
H1762 C1766 0.929 . S
H1763 C1772 0.929 . S
C1764 H1758 0.930 . S
C1764 C1765 1.367 . S
C1764 C1772 1.378 . S
C1765 C1764 1.367 . S
C1765 C1773 1.433 . S
C1766 H1762 0.929 . S
C1766 C1768 1.378 . S
C1766 C1770 1.350 . S
C1767 C1770 1.463 . S
C1767 C1772 1.350 . S
C1767 N1775 1.427 . S
C1768 H1759 0.930 . S
C1768 C1766 1.378 . S
C1768 C1769 1.367 . S
C1769 C1768 1.367 . S
C1769 C1771 1.433 . S
C1770 C1766 1.350 . S
C1770 C1767 1.463 . S
C1770 N1774 1.427 . S
C1771 H1761 0.929 . S
C1771 C1769 1.433 . S
C1771 N1774 1.384 . S
C1772 H1763 0.929 . S
C1772 C1764 1.378 . S
C1772 C1767 1.350 . S
C1773 H1760 0.929 . S
C1773 C1765 1.433 . S
C1773 N1775 1.384 . S
N1774 C1770 1.427 . S
N1774 C1771 1.384 . S
N1775 C1767 1.427 . S
N1775 C1773 1.384 . S
H1776 C1782 0.930 . S
H1777 C1786 0.930 . S
H1778 C1791 0.929 . S
H1779 C1789 0.929 . S
H1780 C1784 0.929 . S
H1781 C1790 0.929 . S
C1782 H1776 0.930 . S
C1782 C1783 1.367 . S
C1782 C1790 1.378 . S
C1783 C1782 1.367 . S
C1783 C1791 1.433 . S
C1784 H1780 0.929 . S
C1784 C1786 1.378 . S
C1784 C1788 1.350 . S
C1785 C1788 1.463 . S
C1785 C1790 1.350 . S
C1785 N1793 1.427 . S
C1786 H1777 0.930 . S
C1786 C1784 1.378 . S
C1786 C1787 1.367 . S
C1787 C1786 1.367 . S
C1787 C1789 1.433 . S
C1788 C1784 1.350 . S
C1788 C1785 1.463 . S
C1788 N1792 1.427 . S
C1789 H1779 0.929 . S
C1789 C1787 1.433 . S
C1789 N1792 1.384 . S
C1790 H1781 0.929 . S
C1790 C1782 1.378 . S
C1790 C1785 1.350 . S
C1791 H1778 0.929 . S
C1791 C1783 1.433 . S
C1791 N1793 1.384 . S
N1792 C1788 1.427 . S
N1792 C1789 1.384 . S
N1793 C1785 1.427 . S
N1793 C1791 1.384 . S
H1794 C1800 0.930 . S
H1795 C1804 0.930 . S
H1796 C1809 0.929 . S
H1797 C1807 0.929 . S
H1798 C1802 0.929 . S
H1799 C1808 0.929 . S
C1800 H1794 0.930 . S
C1800 C1801 1.367 . S
C1800 C1808 1.378 . S
C1801 C1800 1.367 . S
C1801 C1809 1.433 . S
C1802 H1798 0.929 . S
C1802 C1804 1.378 . S
C1802 C1806 1.350 . S
C1803 C1806 1.463 . S
C1803 C1808 1.350 . S
C1803 N1811 1.427 . S
C1804 H1795 0.930 . S
C1804 C1802 1.378 . S
C1804 C1805 1.367 . S
C1805 C1804 1.367 . S
C1805 C1807 1.433 . S
C1806 C1802 1.350 . S
C1806 C1803 1.463 . S
C1806 N1810 1.427 . S
C1807 H1797 0.929 . S
C1807 C1805 1.433 . S
C1807 N1810 1.384 . S
C1808 H1799 0.929 . S
C1808 C1800 1.378 . S
C1808 C1803 1.350 . S
C1809 H1796 0.929 . S
C1809 C1801 1.433 . S
C1809 N1811 1.384 . S
N1810 C1806 1.427 . S
N1810 C1807 1.384 . S
N1811 C1803 1.427 . S
N1811 C1809 1.384 . S
H1812 C1818 0.930 . S
H1813 C1822 0.930 . S
H1814 C1827 0.929 . S
H1815 C1825 0.929 . S
H1816 C1820 0.929 . S
H1817 C1826 0.929 . S
C1818 H1812 0.930 . S
C1818 C1819 1.367 . S
C1818 C1826 1.378 . S
C1819 C1818 1.367 . S
C1819 C1827 1.433 . S
C1820 H1816 0.929 . S
C1820 C1822 1.378 . S
C1820 C1824 1.350 . S
C1821 C1824 1.463 . S
C1821 C1826 1.350 . S
C1821 N1829 1.427 . S
C1822 H1813 0.930 . S
C1822 C1820 1.378 . S
C1822 C1823 1.367 . S
C1823 C1822 1.367 . S
C1823 C1825 1.433 . S
C1824 C1820 1.350 . S
C1824 C1821 1.463 . S
C1824 N1828 1.427 . S
C1825 H1815 0.929 . S
C1825 C1823 1.433 . S
C1825 N1828 1.384 . S
C1826 H1817 0.929 . S
C1826 C1818 1.378 . S
C1826 C1821 1.350 . S
C1827 H1814 0.929 . S
C1827 C1819 1.433 . S
C1827 N1829 1.384 . S
N1828 C1824 1.427 . S
N1828 C1825 1.384 . S
N1829 C1821 1.427 . S
N1829 C1827 1.384 . S
H1830 C1836 0.930 . S
H1831 C1840 0.930 . S
H1832 C1845 0.929 . S
H1833 C1843 0.929 . S
H1834 C1838 0.929 . S
H1835 C1844 0.929 . S
C1836 H1830 0.930 . S
C1836 C1837 1.367 . S
C1836 C1844 1.378 . S
C1837 C1836 1.367 . S
C1837 C1845 1.433 . S
C1838 H1834 0.929 . S
C1838 C1840 1.378 . S
C1838 C1842 1.350 . S
C1839 C1842 1.463 . S
C1839 C1844 1.350 . S
C1839 N1847 1.427 . S
C1840 H1831 0.930 . S
C1840 C1838 1.378 . S
C1840 C1841 1.367 . S
C1841 C1840 1.367 . S
C1841 C1843 1.433 . S
C1842 C1838 1.350 . S
C1842 C1839 1.463 . S
C1842 N1846 1.427 . S
C1843 H1833 0.929 . S
C1843 C1841 1.433 . S
C1843 N1846 1.384 . S
C1844 H1835 0.929 . S
C1844 C1836 1.378 . S
C1844 C1839 1.350 . S
C1845 H1832 0.929 . S
C1845 C1837 1.433 . S
C1845 N1847 1.384 . S
N1846 C1842 1.427 . S
N1846 C1843 1.384 . S
N1847 C1839 1.427 . S
N1847 C1845 1.384 . S
H1848 C1854 0.930 . S
H1849 C1858 0.930 . S
H1850 C1863 0.929 . S
H1851 C1861 0.929 . S
H1852 C1856 0.929 . S
H1853 C1862 0.929 . S
C1854 H1848 0.930 . S
C1854 C1855 1.367 . S
C1854 C1862 1.378 . S
C1855 C1854 1.367 . S
C1855 C1863 1.433 . S
C1856 H1852 0.929 . S
C1856 C1858 1.378 . S
C1856 C1860 1.350 . S
C1857 C1860 1.463 . S
C1857 C1862 1.350 . S
C1857 N1865 1.427 . S
C1858 H1849 0.930 . S
C1858 C1856 1.378 . S
C1858 C1859 1.367 . S
C1859 C1858 1.367 . S
C1859 C1861 1.433 . S
C1860 C1856 1.350 . S
C1860 C1857 1.463 . S
C1860 N1864 1.427 . S
C1861 H1851 0.929 . S
C1861 C1859 1.433 . S
C1861 N1864 1.384 . S
C1862 H1853 0.929 . S
C1862 C1854 1.378 . S
C1862 C1857 1.350 . S
C1863 H1850 0.929 . S
C1863 C1855 1.433 . S
C1863 N1865 1.384 . S
N1864 C1860 1.427 . S
N1864 C1861 1.384 . S
N1865 C1857 1.427 . S
N1865 C1863 1.384 . S
H1866 C1872 0.930 . S
H1867 C1876 0.930 . S
H1868 C1881 0.929 . S
H1869 C1879 0.929 . S
H1870 C1874 0.929 . S
H1871 C1880 0.929 . S
C1872 H1866 0.930 . S
C1872 C1873 1.367 . S
C1872 C1880 1.378 . S
C1873 C1872 1.367 . S
C1873 C1881 1.433 . S
C1874 H1870 0.929 . S
C1874 C1876 1.378 . S
C1874 C1878 1.350 . S
C1875 C1878 1.463 . S
C1875 C1880 1.350 . S
C1875 N1883 1.427 . S
C1876 H1867 0.930 . S
C1876 C1874 1.378 . S
C1876 C1877 1.367 . S
C1877 C1876 1.367 . S
C1877 C1879 1.433 . S
C1878 C1874 1.350 . S
C1878 C1875 1.463 . S
C1878 N1882 1.427 . S
C1879 H1869 0.929 . S
C1879 C1877 1.433 . S
C1879 N1882 1.384 . S
C1880 H1871 0.929 . S
C1880 C1872 1.378 . S
C1880 C1875 1.350 . S
C1881 H1868 0.929 . S
C1881 C1873 1.433 . S
C1881 N1883 1.384 . S
N1882 C1878 1.427 . S
N1882 C1879 1.384 . S
N1883 C1875 1.427 . S
N1883 C1881 1.384 . S
H1884 C1890 0.930 . S
H1885 C1894 0.930 . S
H1886 C1899 0.929 . S
H1887 C1897 0.929 . S
H1888 C1892 0.929 . S
H1889 C1898 0.929 . S
C1890 H1884 0.930 . S
C1890 C1891 1.367 . S
C1890 C1898 1.378 . S
C1891 C1890 1.367 . S
C1891 C1899 1.433 . S
C1892 H1888 0.929 . S
C1892 C1894 1.378 . S
C1892 C1896 1.350 . S
C1893 C1896 1.463 . S
C1893 C1898 1.350 . S
C1893 N1901 1.427 . S
C1894 H1885 0.930 . S
C1894 C1892 1.378 . S
C1894 C1895 1.367 . S
C1895 C1894 1.367 . S
C1895 C1897 1.433 . S
C1896 C1892 1.350 . S
C1896 C1893 1.463 . S
C1896 N1900 1.427 . S
C1897 H1887 0.929 . S
C1897 C1895 1.433 . S
C1897 N1900 1.384 . S
C1898 H1889 0.929 . S
C1898 C1890 1.378 . S
C1898 C1893 1.350 . S
C1899 H1886 0.929 . S
C1899 C1891 1.433 . S
C1899 N1901 1.384 . S
N1900 C1896 1.427 . S
N1900 C1897 1.384 . S
N1901 C1893 1.427 . S
N1901 C1899 1.384 . S
H1902 C1908 0.930 . S
H1903 C1912 0.930 . S
H1904 C1917 0.929 . S
H1905 C1915 0.929 . S
H1906 C1910 0.929 . S
H1907 C1916 0.929 . S
C1908 H1902 0.930 . S
C1908 C1909 1.367 . S
C1908 C1916 1.378 . S
C1909 C1908 1.367 . S
C1909 C1917 1.433 . S
C1910 H1906 0.929 . S
C1910 C1912 1.378 . S
C1910 C1914 1.350 . S
C1911 C1914 1.463 . S
C1911 C1916 1.350 . S
C1911 N1919 1.427 . S
C1912 H1903 0.930 . S
C1912 C1910 1.378 . S
C1912 C1913 1.367 . S
C1913 C1912 1.367 . S
C1913 C1915 1.433 . S
C1914 C1910 1.350 . S
C1914 C1911 1.463 . S
C1914 N1918 1.427 . S
C1915 H1905 0.929 . S
C1915 C1913 1.433 . S
C1915 N1918 1.384 . S
C1916 H1907 0.929 . S
C1916 C1908 1.378 . S
C1916 C1911 1.350 . S
C1917 H1904 0.929 . S
C1917 C1909 1.433 . S
C1917 N1919 1.384 . S
N1918 C1914 1.427 . S
N1918 C1915 1.384 . S
N1919 C1911 1.427 . S
N1919 C1917 1.384 . S
H1920 C1926 0.930 . S
H1921 C1930 0.930 . S
H1922 C1935 0.929 . S
H1923 C1933 0.929 . S
H1924 C1928 0.929 . S
H1925 C1934 0.929 . S
C1926 H1920 0.930 . S
C1926 C1927 1.367 . S
C1926 C1934 1.378 . S
C1927 C1926 1.367 . S
C1927 C1935 1.433 . S
C1928 H1924 0.929 . S
C1928 C1930 1.378 . S
C1928 C1932 1.350 . S
C1929 C1932 1.463 . S
C1929 C1934 1.350 . S
C1929 N1937 1.427 . S
C1930 H1921 0.930 . S
C1930 C1928 1.378 . S
C1930 C1931 1.367 . S
C1931 C1930 1.367 . S
C1931 C1933 1.433 . S
C1932 C1928 1.350 . S
C1932 C1929 1.463 . S
C1932 N1936 1.427 . S
C1933 H1923 0.929 . S
C1933 C1931 1.433 . S
C1933 N1936 1.384 . S
C1934 H1925 0.929 . S
C1934 C1926 1.378 . S
C1934 C1929 1.350 . S
C1935 H1922 0.929 . S
C1935 C1927 1.433 . S
C1935 N1937 1.384 . S
N1936 C1932 1.427 . S
N1936 C1933 1.384 . S
N1937 C1929 1.427 . S
N1937 C1935 1.384 . S
H1938 C1944 0.930 . S
H1939 C1948 0.930 . S
H1940 C1953 0.929 . S
H1941 C1951 0.929 . S
H1942 C1946 0.929 . S
H1943 C1952 0.929 . S
C1944 H1938 0.930 . S
C1944 C1945 1.367 . S
C1944 C1952 1.378 . S
C1945 C1944 1.367 . S
C1945 C1953 1.433 . S
C1946 H1942 0.929 . S
C1946 C1948 1.378 . S
C1946 C1950 1.350 . S
C1947 C1950 1.463 . S
C1947 C1952 1.350 . S
C1947 N1955 1.427 . S
C1948 H1939 0.930 . S
C1948 C1946 1.378 . S
C1948 C1949 1.367 . S
C1949 C1948 1.367 . S
C1949 C1951 1.433 . S
C1950 C1946 1.350 . S
C1950 C1947 1.463 . S
C1950 N1954 1.427 . S
C1951 H1941 0.929 . S
C1951 C1949 1.433 . S
C1951 N1954 1.384 . S
C1952 H1943 0.929 . S
C1952 C1944 1.378 . S
C1952 C1947 1.350 . S
C1953 H1940 0.929 . S
C1953 C1945 1.433 . S
C1953 N1955 1.384 . S
N1954 C1950 1.427 . S
N1954 C1951 1.384 . S
N1955 C1947 1.427 . S
N1955 C1953 1.384 . S
H1956 C1962 0.930 . S
H1957 C1966 0.930 . S
H1958 C1971 0.929 . S
H1959 C1969 0.929 . S
H1960 C1964 0.929 . S
H1961 C1970 0.929 . S
C1962 H1956 0.930 . S
C1962 C1963 1.367 . S
C1962 C1970 1.378 . S
C1963 C1962 1.367 . S
C1963 C1971 1.433 . S
C1964 H1960 0.929 . S
C1964 C1966 1.378 . S
C1964 C1968 1.350 . S
C1965 C1968 1.463 . S
C1965 C1970 1.350 . S
C1965 N1973 1.427 . S
C1966 H1957 0.930 . S
C1966 C1964 1.378 . S
C1966 C1967 1.367 . S
C1967 C1966 1.367 . S
C1967 C1969 1.433 . S
C1968 C1964 1.350 . S
C1968 C1965 1.463 . S
C1968 N1972 1.427 . S
C1969 H1959 0.929 . S
C1969 C1967 1.433 . S
C1969 N1972 1.384 . S
C1970 H1961 0.929 . S
C1970 C1962 1.378 . S
C1970 C1965 1.350 . S
C1971 H1958 0.929 . S
C1971 C1963 1.433 . S
C1971 N1973 1.384 . S
N1972 C1968 1.427 . S
N1972 C1969 1.384 . S
N1973 C1965 1.427 . S
N1973 C1971 1.384 . S
H1974 C1980 0.930 . S
H1975 C1984 0.930 . S
H1976 C1989 0.929 . S
H1977 C1987 0.929 . S
H1978 C1982 0.929 . S
H1979 C1988 0.929 . S
C1980 H1974 0.930 . S
C1980 C1981 1.367 . S
C1980 C1988 1.378 . S
C1981 C1980 1.367 . S
C1981 C1989 1.433 . S
C1982 H1978 0.929 . S
C1982 C1984 1.378 . S
C1982 C1986 1.350 . S
C1983 C1986 1.463 . S
C1983 C1988 1.350 . S
C1983 N1991 1.427 . S
C1984 H1975 0.930 . S
C1984 C1982 1.378 . S
C1984 C1985 1.367 . S
C1985 C1984 1.367 . S
C1985 C1987 1.433 . S
C1986 C1982 1.350 . S
C1986 C1983 1.463 . S
C1986 N1990 1.427 . S
C1987 H1977 0.929 . S
C1987 C1985 1.433 . S
C1987 N1990 1.384 . S
C1988 H1979 0.929 . S
C1988 C1980 1.378 . S
C1988 C1983 1.350 . S
C1989 H1976 0.929 . S
C1989 C1981 1.433 . S
C1989 N1991 1.384 . S
N1990 C1986 1.427 . S
N1990 C1987 1.384 . S
N1991 C1983 1.427 . S
N1991 C1989 1.384 . S
H1992 C1998 0.930 . S
H1993 C2002 0.930 . S
H1994 C2007 0.929 . S
H1995 C2005 0.929 . S
H1996 C2000 0.929 . S
H1997 C2006 0.929 . S
C1998 H1992 0.930 . S
C1998 C1999 1.367 . S
C1998 C2006 1.378 . S
C1999 C1998 1.367 . S
C1999 C2007 1.433 . S
C2000 H1996 0.929 . S
C2000 C2002 1.378 . S
C2000 C2004 1.350 . S
C2001 C2004 1.463 . S
C2001 C2006 1.350 . S
C2001 N2009 1.427 . S
C2002 H1993 0.930 . S
C2002 C2000 1.378 . S
C2002 C2003 1.367 . S
C2003 C2002 1.367 . S
C2003 C2005 1.433 . S
C2004 C2000 1.350 . S
C2004 C2001 1.463 . S
C2004 N2008 1.427 . S
C2005 H1995 0.929 . S
C2005 C2003 1.433 . S
C2005 N2008 1.384 . S
C2006 H1997 0.929 . S
C2006 C1998 1.378 . S
C2006 C2001 1.350 . S
C2007 H1994 0.929 . S
C2007 C1999 1.433 . S
C2007 N2009 1.384 . S
N2008 C2004 1.427 . S
N2008 C2005 1.384 . S
N2009 C2001 1.427 . S
N2009 C2007 1.384 . S
H2010 C2016 0.930 . S
H2011 C2020 0.930 . S
H2012 C2025 0.929 . S
H2013 C2023 0.929 . S
H2014 C2018 0.929 . S
H2015 C2024 0.929 . S
C2016 H2010 0.930 . S
C2016 C2017 1.367 . S
C2016 C2024 1.378 . S
C2017 C2016 1.367 . S
C2017 C2025 1.433 . S
C2018 H2014 0.929 . S
C2018 C2020 1.378 . S
C2018 C2022 1.350 . S
C2019 C2022 1.463 . S
C2019 C2024 1.350 . S
C2019 N2027 1.427 . S
C2020 H2011 0.930 . S
C2020 C2018 1.378 . S
C2020 C2021 1.367 . S
C2021 C2020 1.367 . S
C2021 C2023 1.433 . S
C2022 C2018 1.350 . S
C2022 C2019 1.463 . S
C2022 N2026 1.427 . S
C2023 H2013 0.929 . S
C2023 C2021 1.433 . S
C2023 N2026 1.384 . S
C2024 H2015 0.929 . S
C2024 C2016 1.378 . S
C2024 C2019 1.350 . S
C2025 H2012 0.929 . S
C2025 C2017 1.433 . S
C2025 N2027 1.384 . S
N2026 C2022 1.427 . S
N2026 C2023 1.384 . S
N2027 C2019 1.427 . S
N2027 C2025 1.384 . S
H2028 C2034 0.930 . S
H2029 C2038 0.930 . S
H2030 C2043 0.929 . S
H2031 C2041 0.929 . S
H2032 C2036 0.929 . S
H2033 C2042 0.929 . S
C2034 H2028 0.930 . S
C2034 C2035 1.367 . S
C2034 C2042 1.378 . S
C2035 C2034 1.367 . S
C2035 C2043 1.433 . S
C2036 H2032 0.929 . S
C2036 C2038 1.378 . S
C2036 C2040 1.350 . S
C2037 C2040 1.463 . S
C2037 C2042 1.350 . S
C2037 N2045 1.427 . S
C2038 H2029 0.930 . S
C2038 C2036 1.378 . S
C2038 C2039 1.367 . S
C2039 C2038 1.367 . S
C2039 C2041 1.433 . S
C2040 C2036 1.350 . S
C2040 C2037 1.463 . S
C2040 N2044 1.427 . S
C2041 H2031 0.929 . S
C2041 C2039 1.433 . S
C2041 N2044 1.384 . S
C2042 H2033 0.929 . S
C2042 C2034 1.378 . S
C2042 C2037 1.350 . S
C2043 H2030 0.929 . S
C2043 C2035 1.433 . S
C2043 N2045 1.384 . S
N2044 C2040 1.427 . S
N2044 C2041 1.384 . S
N2045 C2037 1.427 . S
N2045 C2043 1.384 . S
H2046 C2052 0.930 . S
H2047 C2056 0.930 . S
H2048 C2061 0.929 . S
H2049 C2059 0.929 . S
H2050 C2054 0.929 . S
H2051 C2060 0.929 . S
C2052 H2046 0.930 . S
C2052 C2053 1.367 . S
C2052 C2060 1.378 . S
C2053 C2052 1.367 . S
C2053 C2061 1.433 . S
C2054 H2050 0.929 . S
C2054 C2056 1.378 . S
C2054 C2058 1.350 . S
C2055 C2058 1.463 . S
C2055 C2060 1.350 . S
C2055 N2063 1.427 . S
C2056 H2047 0.930 . S
C2056 C2054 1.378 . S
C2056 C2057 1.367 . S
C2057 C2056 1.367 . S
C2057 C2059 1.433 . S
C2058 C2054 1.350 . S
C2058 C2055 1.463 . S
C2058 N2062 1.427 . S
C2059 H2049 0.929 . S
C2059 C2057 1.433 . S
C2059 N2062 1.384 . S
C2060 H2051 0.929 . S
C2060 C2052 1.378 . S
C2060 C2055 1.350 . S
C2061 H2048 0.929 . S
C2061 C2053 1.433 . S
C2061 N2063 1.384 . S
N2062 C2058 1.427 . S
N2062 C2059 1.384 . S
N2063 C2055 1.427 . S
N2063 C2061 1.384 . S
H2064 C2070 0.930 . S
H2065 C2074 0.930 . S
H2066 C2079 0.929 . S
H2067 C2077 0.929 . S
H2068 C2072 0.929 . S
H2069 C2078 0.929 . S
C2070 H2064 0.930 . S
C2070 C2071 1.367 . S
C2070 C2078 1.378 . S
C2071 C2070 1.367 . S
C2071 C2079 1.433 . S
C2072 H2068 0.929 . S
C2072 C2074 1.378 . S
C2072 C2076 1.350 . S
C2073 C2076 1.463 . S
C2073 C2078 1.350 . S
C2073 N2081 1.427 . S
C2074 H2065 0.930 . S
C2074 C2072 1.378 . S
C2074 C2075 1.367 . S
C2075 C2074 1.367 . S
C2075 C2077 1.433 . S
C2076 C2072 1.350 . S
C2076 C2073 1.463 . S
C2076 N2080 1.427 . S
C2077 H2067 0.929 . S
C2077 C2075 1.433 . S
C2077 N2080 1.384 . S
C2078 H2069 0.929 . S
C2078 C2070 1.378 . S
C2078 C2073 1.350 . S
C2079 H2066 0.929 . S
C2079 C2071 1.433 . S
C2079 N2081 1.384 . S
N2080 C2076 1.427 . S
N2080 C2077 1.384 . S
N2081 C2073 1.427 . S
N2081 C2079 1.384 . S
H2082 C2088 0.930 . S
H2083 C2092 0.930 . S
H2084 C2097 0.929 . S
H2085 C2095 0.929 . S
H2086 C2090 0.929 . S
H2087 C2096 0.929 . S
C2088 H2082 0.930 . S
C2088 C2089 1.367 . S
C2088 C2096 1.378 . S
C2089 C2088 1.367 . S
C2089 C2097 1.433 . S
C2090 H2086 0.929 . S
C2090 C2092 1.378 . S
C2090 C2094 1.350 . S
C2091 C2094 1.463 . S
C2091 C2096 1.350 . S
C2091 N2099 1.427 . S
C2092 H2083 0.930 . S
C2092 C2090 1.378 . S
C2092 C2093 1.367 . S
C2093 C2092 1.367 . S
C2093 C2095 1.433 . S
C2094 C2090 1.350 . S
C2094 C2091 1.463 . S
C2094 N2098 1.427 . S
C2095 H2085 0.929 . S
C2095 C2093 1.433 . S
C2095 N2098 1.384 . S
C2096 H2087 0.929 . S
C2096 C2088 1.378 . S
C2096 C2091 1.350 . S
C2097 H2084 0.929 . S
C2097 C2089 1.433 . S
C2097 N2099 1.384 . S
N2098 C2094 1.427 . S
N2098 C2095 1.384 . S
N2099 C2091 1.427 . S
N2099 C2097 1.384 . S
H2100 C2106 0.930 . S
H2101 C2110 0.930 . S
H2102 C2115 0.929 . S
H2103 C2113 0.929 . S
H2104 C2108 0.929 . S
H2105 C2114 0.929 . S
C2106 H2100 0.930 . S
C2106 C2107 1.367 . S
C2106 C2114 1.378 . S
C2107 C2106 1.367 . S
C2107 C2115 1.433 . S
C2108 H2104 0.929 . S
C2108 C2110 1.378 . S
C2108 C2112 1.350 . S
C2109 C2112 1.463 . S
C2109 C2114 1.350 . S
C2109 N2117 1.427 . S
C2110 H2101 0.930 . S
C2110 C2108 1.378 . S
C2110 C2111 1.367 . S
C2111 C2110 1.367 . S
C2111 C2113 1.433 . S
C2112 C2108 1.350 . S
C2112 C2109 1.463 . S
C2112 N2116 1.427 . S
C2113 H2103 0.929 . S
C2113 C2111 1.433 . S
C2113 N2116 1.384 . S
C2114 H2105 0.929 . S
C2114 C2106 1.378 . S
C2114 C2109 1.350 . S
C2115 H2102 0.929 . S
C2115 C2107 1.433 . S
C2115 N2117 1.384 . S
N2116 C2112 1.427 . S
N2116 C2113 1.384 . S
N2117 C2109 1.427 . S
N2117 C2115 1.384 . S
H2118 C2124 0.930 . S
H2119 C2128 0.930 . S
H2120 C2133 0.929 . S
H2121 C2131 0.929 . S
H2122 C2126 0.929 . S
H2123 C2132 0.929 . S
C2124 H2118 0.930 . S
C2124 C2125 1.367 . S
C2124 C2132 1.378 . S
C2125 C2124 1.367 . S
C2125 C2133 1.433 . S
C2126 H2122 0.929 . S
C2126 C2128 1.378 . S
C2126 C2130 1.350 . S
C2127 C2130 1.463 . S
C2127 C2132 1.350 . S
C2127 N2135 1.427 . S
C2128 H2119 0.930 . S
C2128 C2126 1.378 . S
C2128 C2129 1.367 . S
C2129 C2128 1.367 . S
C2129 C2131 1.433 . S
C2130 C2126 1.350 . S
C2130 C2127 1.463 . S
C2130 N2134 1.427 . S
C2131 H2121 0.929 . S
C2131 C2129 1.433 . S
C2131 N2134 1.384 . S
C2132 H2123 0.929 . S
C2132 C2124 1.378 . S
C2132 C2127 1.350 . S
C2133 H2120 0.929 . S
C2133 C2125 1.433 . S
C2133 N2135 1.384 . S
N2134 C2130 1.427 . S
N2134 C2131 1.384 . S
N2135 C2127 1.427 . S
N2135 C2133 1.384 . S
H2136 C2142 0.930 . S
H2137 C2146 0.930 . S
H2138 C2151 0.929 . S
H2139 C2149 0.929 . S
H2140 C2144 0.929 . S
H2141 C2150 0.929 . S
C2142 H2136 0.930 . S
C2142 C2143 1.367 . S
C2142 C2150 1.378 . S
C2143 C2142 1.367 . S
C2143 C2151 1.433 . S
C2144 H2140 0.929 . S
C2144 C2146 1.378 . S
C2144 C2148 1.350 . S
C2145 C2148 1.463 . S
C2145 C2150 1.350 . S
C2145 N2153 1.427 . S
C2146 H2137 0.930 . S
C2146 C2144 1.378 . S
C2146 C2147 1.367 . S
C2147 C2146 1.367 . S
C2147 C2149 1.433 . S
C2148 C2144 1.350 . S
C2148 C2145 1.463 . S
C2148 N2152 1.427 . S
C2149 H2139 0.929 . S
C2149 C2147 1.433 . S
C2149 N2152 1.384 . S
C2150 H2141 0.929 . S
C2150 C2142 1.378 . S
C2150 C2145 1.350 . S
C2151 H2138 0.929 . S
C2151 C2143 1.433 . S
C2151 N2153 1.384 . S
N2152 C2148 1.427 . S
N2152 C2149 1.384 . S
N2153 C2145 1.427 . S
N2153 C2151 1.384 . S
H2154 C2160 0.930 . S
H2155 C2164 0.930 . S
H2156 C2169 0.929 . S
H2157 C2167 0.929 . S
H2158 C2162 0.929 . S
H2159 C2168 0.929 . S
C2160 H2154 0.930 . S
C2160 C2161 1.367 . S
C2160 C2168 1.378 . S
C2161 C2160 1.367 . S
C2161 C2169 1.433 . S
C2162 H2158 0.929 . S
C2162 C2164 1.378 . S
C2162 C2166 1.350 . S
C2163 C2166 1.463 . S
C2163 C2168 1.350 . S
C2163 N2171 1.427 . S
C2164 H2155 0.930 . S
C2164 C2162 1.378 . S
C2164 C2165 1.367 . S
C2165 C2164 1.367 . S
C2165 C2167 1.433 . S
C2166 C2162 1.350 . S
C2166 C2163 1.463 . S
C2166 N2170 1.427 . S
C2167 H2157 0.929 . S
C2167 C2165 1.433 . S
C2167 N2170 1.384 . S
C2168 H2159 0.929 . S
C2168 C2160 1.378 . S
C2168 C2163 1.350 . S
C2169 H2156 0.929 . S
C2169 C2161 1.433 . S
C2169 N2171 1.384 . S
N2170 C2166 1.427 . S
N2170 C2167 1.384 . S
N2171 C2163 1.427 . S
N2171 C2169 1.384 . S
H2172 C2178 0.930 . S
H2173 C2182 0.930 . S
H2174 C2187 0.929 . S
H2175 C2185 0.929 . S
H2176 C2180 0.929 . S
H2177 C2186 0.929 . S
C2178 H2172 0.930 . S
C2178 C2179 1.367 . S
C2178 C2186 1.378 . S
C2179 C2178 1.367 . S
C2179 C2187 1.433 . S
C2180 H2176 0.929 . S
C2180 C2182 1.378 . S
C2180 C2184 1.350 . S
C2181 C2184 1.463 . S
C2181 C2186 1.350 . S
C2181 N2189 1.427 . S
C2182 H2173 0.930 . S
C2182 C2180 1.378 . S
C2182 C2183 1.367 . S
C2183 C2182 1.367 . S
C2183 C2185 1.433 . S
C2184 C2180 1.350 . S
C2184 C2181 1.463 . S
C2184 N2188 1.427 . S
C2185 H2175 0.929 . S
C2185 C2183 1.433 . S
C2185 N2188 1.384 . S
C2186 H2177 0.929 . S
C2186 C2178 1.378 . S
C2186 C2181 1.350 . S
C2187 H2174 0.929 . S
C2187 C2179 1.433 . S
C2187 N2189 1.384 . S
N2188 C2184 1.427 . S
N2188 C2185 1.384 . S
N2189 C2181 1.427 . S
N2189 C2187 1.384 . S
H2190 C2196 0.930 . S
H2191 C2200 0.930 . S
H2192 C2205 0.929 . S
H2193 C2203 0.929 . S
H2194 C2198 0.929 . S
H2195 C2204 0.929 . S
C2196 H2190 0.930 . S
C2196 C2197 1.367 . S
C2196 C2204 1.378 . S
C2197 C2196 1.367 . S
C2197 C2205 1.433 . S
C2198 H2194 0.929 . S
C2198 C2200 1.378 . S
C2198 C2202 1.350 . S
C2199 C2202 1.463 . S
C2199 C2204 1.350 . S
C2199 N2207 1.427 . S
C2200 H2191 0.930 . S
C2200 C2198 1.378 . S
C2200 C2201 1.367 . S
C2201 C2200 1.367 . S
C2201 C2203 1.433 . S
C2202 C2198 1.350 . S
C2202 C2199 1.463 . S
C2202 N2206 1.427 . S
C2203 H2193 0.929 . S
C2203 C2201 1.433 . S
C2203 N2206 1.384 . S
C2204 H2195 0.929 . S
C2204 C2196 1.378 . S
C2204 C2199 1.350 . S
C2205 H2192 0.929 . S
C2205 C2197 1.433 . S
C2205 N2207 1.384 . S
N2206 C2202 1.427 . S
N2206 C2203 1.384 . S
N2207 C2199 1.427 . S
N2207 C2205 1.384 . S
H2208 C2214 0.930 . S
H2209 C2218 0.930 . S
H2210 C2223 0.929 . S
H2211 C2221 0.929 . S
H2212 C2216 0.929 . S
H2213 C2222 0.929 . S
C2214 H2208 0.930 . S
C2214 C2215 1.367 . S
C2214 C2222 1.378 . S
C2215 C2214 1.367 . S
C2215 C2223 1.433 . S
C2216 H2212 0.929 . S
C2216 C2218 1.378 . S
C2216 C2220 1.350 . S
C2217 C2220 1.463 . S
C2217 C2222 1.350 . S
C2217 N2225 1.427 . S
C2218 H2209 0.930 . S
C2218 C2216 1.378 . S
C2218 C2219 1.367 . S
C2219 C2218 1.367 . S
C2219 C2221 1.433 . S
C2220 C2216 1.350 . S
C2220 C2217 1.463 . S
C2220 N2224 1.427 . S
C2221 H2211 0.929 . S
C2221 C2219 1.433 . S
C2221 N2224 1.384 . S
C2222 H2213 0.929 . S
C2222 C2214 1.378 . S
C2222 C2217 1.350 . S
C2223 H2210 0.929 . S
C2223 C2215 1.433 . S
C2223 N2225 1.384 . S
N2224 C2220 1.427 . S
N2224 C2221 1.384 . S
N2225 C2217 1.427 . S
N2225 C2223 1.384 . S
H2226 C2232 0.930 . S
H2227 C2236 0.930 . S
H2228 C2241 0.929 . S
H2229 C2239 0.929 . S
H2230 C2234 0.929 . S
H2231 C2240 0.929 . S
C2232 H2226 0.930 . S
C2232 C2233 1.367 . S
C2232 C2240 1.378 . S
C2233 C2232 1.367 . S
C2233 C2241 1.433 . S
C2234 H2230 0.929 . S
C2234 C2236 1.378 . S
C2234 C2238 1.350 . S
C2235 C2238 1.463 . S
C2235 C2240 1.350 . S
C2235 N2243 1.427 . S
C2236 H2227 0.930 . S
C2236 C2234 1.378 . S
C2236 C2237 1.367 . S
C2237 C2236 1.367 . S
C2237 C2239 1.433 . S
C2238 C2234 1.350 . S
C2238 C2235 1.463 . S
C2238 N2242 1.427 . S
C2239 H2229 0.929 . S
C2239 C2237 1.433 . S
C2239 N2242 1.384 . S
C2240 H2231 0.929 . S
C2240 C2232 1.378 . S
C2240 C2235 1.350 . S
C2241 H2228 0.929 . S
C2241 C2233 1.433 . S
C2241 N2243 1.384 . S
N2242 C2238 1.427 . S
N2242 C2239 1.384 . S
N2243 C2235 1.427 . S
N2243 C2241 1.384 . S
H2244 C2250 0.930 . S
H2245 C2254 0.930 . S
H2246 C2259 0.929 . S
H2247 C2257 0.929 . S
H2248 C2252 0.929 . S
H2249 C2258 0.929 . S
C2250 H2244 0.930 . S
C2250 C2251 1.367 . S
C2250 C2258 1.378 . S
C2251 C2250 1.367 . S
C2251 C2259 1.433 . S
C2252 H2248 0.929 . S
C2252 C2254 1.378 . S
C2252 C2256 1.350 . S
C2253 C2256 1.463 . S
C2253 C2258 1.350 . S
C2253 N2261 1.427 . S
C2254 H2245 0.930 . S
C2254 C2252 1.378 . S
C2254 C2255 1.367 . S
C2255 C2254 1.367 . S
C2255 C2257 1.433 . S
C2256 C2252 1.350 . S
C2256 C2253 1.463 . S
C2256 N2260 1.427 . S
C2257 H2247 0.929 . S
C2257 C2255 1.433 . S
C2257 N2260 1.384 . S
C2258 H2249 0.929 . S
C2258 C2250 1.378 . S
C2258 C2253 1.350 . S
C2259 H2246 0.929 . S
C2259 C2251 1.433 . S
C2259 N2261 1.384 . S
N2260 C2256 1.427 . S
N2260 C2257 1.384 . S
N2261 C2253 1.427 . S
N2261 C2259 1.384 . S
H2262 C2268 0.930 . S
H2263 C2272 0.930 . S
H2264 C2277 0.929 . S
H2265 C2275 0.929 . S
H2266 C2270 0.929 . S
H2267 C2276 0.929 . S
C2268 H2262 0.930 . S
C2268 C2269 1.367 . S
C2268 C2276 1.378 . S
C2269 C2268 1.367 . S
C2269 C2277 1.433 . S
C2270 H2266 0.929 . S
C2270 C2272 1.378 . S
C2270 C2274 1.350 . S
C2271 C2274 1.463 . S
C2271 C2276 1.350 . S
C2271 N2279 1.427 . S
C2272 H2263 0.930 . S
C2272 C2270 1.378 . S
C2272 C2273 1.367 . S
C2273 C2272 1.367 . S
C2273 C2275 1.433 . S
C2274 C2270 1.350 . S
C2274 C2271 1.463 . S
C2274 N2278 1.427 . S
C2275 H2265 0.929 . S
C2275 C2273 1.433 . S
C2275 N2278 1.384 . S
C2276 H2267 0.929 . S
C2276 C2268 1.378 . S
C2276 C2271 1.350 . S
C2277 H2264 0.929 . S
C2277 C2269 1.433 . S
C2277 N2279 1.384 . S
N2278 C2274 1.427 . S
N2278 C2275 1.384 . S
N2279 C2271 1.427 . S
N2279 C2277 1.384 . S
H2280 C2286 0.930 . S
H2281 C2290 0.930 . S
H2282 C2295 0.929 . S
H2283 C2293 0.929 . S
H2284 C2288 0.929 . S
H2285 C2294 0.929 . S
C2286 H2280 0.930 . S
C2286 C2287 1.367 . S
C2286 C2294 1.378 . S
C2287 C2286 1.367 . S
C2287 C2295 1.433 . S
C2288 H2284 0.929 . S
C2288 C2290 1.378 . S
C2288 C2292 1.350 . S
C2289 C2292 1.463 . S
C2289 C2294 1.350 . S
C2289 N2297 1.427 . S
C2290 H2281 0.930 . S
C2290 C2288 1.378 . S
C2290 C2291 1.367 . S
C2291 C2290 1.367 . S
C2291 C2293 1.433 . S
C2292 C2288 1.350 . S
C2292 C2289 1.463 . S
C2292 N2296 1.427 . S
C2293 H2283 0.929 . S
C2293 C2291 1.433 . S
C2293 N2296 1.384 . S
C2294 H2285 0.929 . S
C2294 C2286 1.378 . S
C2294 C2289 1.350 . S
C2295 H2282 0.929 . S
C2295 C2287 1.433 . S
C2295 N2297 1.384 . S
N2296 C2292 1.427 . S
N2296 C2293 1.384 . S
N2297 C2289 1.427 . S
N2297 C2295 1.384 . S
H2298 C2304 0.930 . S
H2299 C2308 0.930 . S
H2300 C2313 0.929 . S
H2301 C2311 0.929 . S
H2302 C2306 0.929 . S
H2303 C2312 0.929 . S
C2304 H2298 0.930 . S
C2304 C2305 1.367 . S
C2304 C2312 1.378 . S
C2305 C2304 1.367 . S
C2305 C2313 1.433 . S
C2306 H2302 0.929 . S
C2306 C2308 1.378 . S
C2306 C2310 1.350 . S
C2307 C2310 1.463 . S
C2307 C2312 1.350 . S
C2307 N2315 1.427 . S
C2308 H2299 0.930 . S
C2308 C2306 1.378 . S
C2308 C2309 1.367 . S
C2309 C2308 1.367 . S
C2309 C2311 1.433 . S
C2310 C2306 1.350 . S
C2310 C2307 1.463 . S
C2310 N2314 1.427 . S
C2311 H2301 0.929 . S
C2311 C2309 1.433 . S
C2311 N2314 1.384 . S
C2312 H2303 0.929 . S
C2312 C2304 1.378 . S
C2312 C2307 1.350 . S
C2313 H2300 0.929 . S
C2313 C2305 1.433 . S
C2313 N2315 1.384 . S
N2314 C2310 1.427 . S
N2314 C2311 1.384 . S
N2315 C2307 1.427 . S
N2315 C2313 1.384 . S
H2316 C2322 0.930 . S
H2317 C2326 0.930 . S
H2318 C2331 0.929 . S
H2319 C2329 0.929 . S
H2320 C2324 0.929 . S
H2321 C2330 0.929 . S
C2322 H2316 0.930 . S
C2322 C2323 1.367 . S
C2322 C2330 1.378 . S
C2323 C2322 1.367 . S
C2323 C2331 1.433 . S
C2324 H2320 0.929 . S
C2324 C2326 1.378 . S
C2324 C2328 1.350 . S
C2325 C2328 1.463 . S
C2325 C2330 1.350 . S
C2325 N2333 1.427 . S
C2326 H2317 0.930 . S
C2326 C2324 1.378 . S
C2326 C2327 1.367 . S
C2327 C2326 1.367 . S
C2327 C2329 1.433 . S
C2328 C2324 1.350 . S
C2328 C2325 1.463 . S
C2328 N2332 1.427 . S
C2329 H2319 0.929 . S
C2329 C2327 1.433 . S
C2329 N2332 1.384 . S
C2330 H2321 0.929 . S
C2330 C2322 1.378 . S
C2330 C2325 1.350 . S
C2331 H2318 0.929 . S
C2331 C2323 1.433 . S
C2331 N2333 1.384 . S
N2332 C2328 1.427 . S
N2332 C2329 1.384 . S
N2333 C2325 1.427 . S
N2333 C2331 1.384 . S
H2334 C2340 0.930 . S
H2335 C2344 0.930 . S
H2336 C2349 0.929 . S
H2337 C2347 0.929 . S
H2338 C2342 0.929 . S
H2339 C2348 0.929 . S
C2340 H2334 0.930 . S
C2340 C2341 1.367 . S
C2340 C2348 1.378 . S
C2341 C2340 1.367 . S
C2341 C2349 1.433 . S
C2342 H2338 0.929 . S
C2342 C2344 1.378 . S
C2342 C2346 1.350 . S
C2343 C2346 1.463 . S
C2343 C2348 1.350 . S
C2343 N2351 1.427 . S
C2344 H2335 0.930 . S
C2344 C2342 1.378 . S
C2344 C2345 1.367 . S
C2345 C2344 1.367 . S
C2345 C2347 1.433 . S
C2346 C2342 1.350 . S
C2346 C2343 1.463 . S
C2346 N2350 1.427 . S
C2347 H2337 0.929 . S
C2347 C2345 1.433 . S
C2347 N2350 1.384 . S
C2348 H2339 0.929 . S
C2348 C2340 1.378 . S
C2348 C2343 1.350 . S
C2349 H2336 0.929 . S
C2349 C2341 1.433 . S
C2349 N2351 1.384 . S
N2350 C2346 1.427 . S
N2350 C2347 1.384 . S
N2351 C2343 1.427 . S
N2351 C2349 1.384 . S
C631 C40 1.490 . S
C635 C3 1.495 . S
C649 C5 1.463 . S
C653 C23 1.462 . S
C667 C27 1.504 . S
C671 C16 1.503 . S
C685 C36 1.501 . S
C689 C44 1.504 . S
C703 C53 1.488 . S
C707 C68 1.494 . S
C721 C88 1.507 . S
C725 C70 1.514 . S
C739 C81 1.497 . S
C743 C92 1.509 . S
C757 C57 1.481 . S
C761 C101 1.492 . S
C775 C109 1.442 . S
C779 C244 1.435 . S
C793 C257 1.508 . S
C797 C122 1.502 . S
C811 C270 1.513 . S
C815 C135 1.513 . S
C829 C224 1.434 . S
C833 C148 1.433 . S
C847 C287 1.556 . S
C851 C166 1.557 . S
C865 C179 1.468 . S
C869 C213 1.461 . S
C883 C304 1.497 . S
C887 C192 1.500 . S
C901 C205 1.534 . S
C905 C278 1.528 . S
C919 C211 1.475 . S
C923 C118 1.468 . S
C937 C231 1.541 . S
C941 C196 1.539 . S
C955 C157 1.525 . S
C959 C237 1.510 . S
C973 C172 1.511 . S
C977 C248 1.502 . S
C991 C185 1.513 . S
C995 C261 1.514 . S
C1009 C146 1.471 . S
C1013 C274 1.470 . S
C1027 C107 1.440 . S
C1031 C291 1.438 . S
C1045 C302 1.485 . S
C1049 C131 1.495 . S
C1063 C352 1.474 . S
C1067 C315 1.474 . S
C1081 C317 1.453 . S
C1085 C335 1.462 . S
C1099 C339 1.502 . S
C1103 C328 1.507 . S
C1117 C348 1.517 . S
C1121 C356 1.515 . S
C1135 C380 1.476 . S
C1139 C365 1.486 . S
C1153 C382 1.493 . S
C1157 C400 1.499 . S
C1171 C404 1.530 . S
C1175 C393 1.523 . S
C1189 C369 1.494 . S
C1193 C413 1.501 . S
C1207 C556 1.453 . S
C1211 C421 1.452 . S
C1225 C434 1.443 . S
C1229 C569 1.457 . S
C1243 C575 1.469 . S
C1247 C443 1.470 . S
C1261 C460 1.441 . S
C1265 C536 1.443 . S
C1279 C478 1.519 . S
C1283 C603 1.515 . S
C1297 C521 1.502 . S
C1301 C491 1.500 . S
C1315 C612 1.545 . S
C1319 C504 1.546 . S
C1333 C586 1.562 . S
C1337 C517 1.561 . S
C1351 C430 1.508 . S
C1355 C530 1.508 . S
C1369 C508 1.551 . S
C1373 C543 1.552 . S
C1387 C549 1.493 . S
C1391 C469 1.505 . S
C1405 C560 1.472 . S
C1409 C484 1.466 . S
C1423 C497 1.461 . S
C1427 C577 1.460 . S
C1441 C590 1.442 . S
C1445 C458 1.441 . S
C1459 C599 1.480 . S
C1463 C419 1.471 . S
C1477 C621 1.525 . S
C1481 C447 1.518 . S
C1495 C1 1.515 . S
C1499 C582 1.516 . S
C1513 C18 1.453 . S
C1517 C538 1.454 . S
C1531 C29 1.480 . S
C1535 C547 1.491 . S
C1549 C49 1.488 . S
C1553 C562 1.483 . S
C1567 C55 1.459 . S
C1571 C616 1.467 . S
C1585 C75 1.530 . S
C1589 C595 1.525 . S
C1603 C79 1.488 . S
C1607 C601 1.490 . S
C1621 C525 1.460 . S
C1625 C96 1.465 . S
C1639 C114 1.498 . S
C1643 C512 1.495 . S
C1657 C473 1.462 . S
C1661 C127 1.460 . S
C1675 C140 1.500 . S
C1679 C486 1.495 . S
C1693 C153 1.484 . S
C1697 C499 1.489 . S
C1711 C161 1.503 . S
C1715 C439 1.498 . S
C1729 C174 1.495 . S
C1733 C445 1.494 . S
C1747 C465 1.518 . S
C1751 C187 1.513 . S
C1765 C200 1.481 . S
C1769 C426 1.489 . S
C1783 C209 1.494 . S
C1787 C408 1.487 . S
C1801 C226 1.458 . S
C1805 C330 1.464 . S
C1819 C235 1.475 . S
C1823 C341 1.470 . S
C1837 C250 1.485 . S
C1841 C361 1.499 . S
C1855 C313 1.497 . S
C1859 C263 1.490 . S
C1873 C276 1.482 . S
C1877 C387 1.486 . S
C1891 C391 1.513 . S
C1895 C296 1.515 . S
C1909 C367 1.496 . S
C1913 C300 1.503 . S
C1927 C417 1.498 . S
C1931 C94 1.498 . S
C1945 C62 1.506 . S
C1949 C432 1.501 . S
C1963 C452 1.498 . S
C1967 C66 1.508 . S
C1981 C456 1.502 . S
C1985 C83 1.498 . S
C1999 C471 1.499 . S
C2003 C14 1.498 . S
C2017 C31 1.512 . S
C2021 C482 1.513 . S
C2035 C495 1.501 . S
C2039 C42 1.496 . S
C2053 C510 1.491 . S
C2057 C10 1.497 . S
C2071 C523 1.456 . S
C2075 C265 1.458 . S
C2089 C222 1.497 . S
C2093 C614 1.494 . S
C2107 C239 1.475 . S
C2111 C588 1.477 . S
C2125 C608 1.501 . S
C2129 C252 1.491 . S
C2143 C534 1.511 . S
C2147 C309 1.506 . S
C2161 C551 1.494 . S
C2165 C283 1.499 . S
C2179 C289 1.459 . S
C2183 C564 1.461 . S
C2197 C573 1.532 . S
C2201 C218 1.537 . S
C2215 C322 1.502 . S
C2219 C198 1.499 . S
C2233 C374 1.523 . S
C2237 C120 1.519 . S
C2251 C378 1.490 . S
C2255 C133 1.491 . S
C2269 C144 1.514 . S
C2273 C395 1.517 . S
C2287 C105 1.492 . S
C2291 C406 1.486 . S
C2305 C343 1.463 . S
C2309 C170 1.474 . S
C2323 C183 1.488 . S
C2327 C354 1.478 . S
C2341 C326 1.497 . S
C2345 C159 1.495 . S
