# Generated by pormake.
# Topology smd, (6)-cn, num edge types: 1
# Building blocks:
#     Node 0, Type 0, BuildingBlock: GEDQOX_clean_sbu_0, # of connection points: 6
#     Node 1, Type 0, BuildingBlock: GEDQOX_clean_sbu_0, # of connection points: 6
#     Node 2, Type 0, BuildingBlock: GEDQOX_clean_sbu_0, # of connection points: 6
#     Node 3, Type 0, BuildingBlock: GEDQOX_clean_sbu_0, # of connection points: 6
#     Node 4, Type 0, BuildingBlock: GEDQOX_clean_sbu_0, # of connection points: 6
#     Node 5, Type 0, BuildingBlock: GEDQOX_clean_sbu_0, # of connection points: 6
#     Node 6, Type 0, BuildingBlock: GEDQOX_clean_sbu_0, # of connection points: 6
#     Node 7, Type 0, BuildingBlock: GEDQOX_clean_sbu_0, # of connection points: 6
#     Node 8, Type 0, BuildingBlock: GEDQOX_clean_sbu_0, # of connection points: 6
#     Node 9, Type 0, BuildingBlock: GEDQOX_clean_sbu_0, # of connection points: 6
#     Node 10, Type 0, BuildingBlock: GEDQOX_clean_sbu_0, # of connection points: 6
#     Node 11, Type 0, BuildingBlock: GEDQOX_clean_sbu_0, # of connection points: 6
#     Node 12, Type 0, BuildingBlock: GEDQOX_clean_sbu_0, # of connection points: 6
#     Node 13, Type 0, BuildingBlock: GEDQOX_clean_sbu_0, # of connection points: 6
#     Node 14, Type 0, BuildingBlock: GEDQOX_clean_sbu_0, # of connection points: 6
#     Node 15, Type 0, BuildingBlock: GEDQOX_clean_sbu_0, # of connection points: 6
#     Node 16, Type 0, BuildingBlock: GEDQOX_clean_sbu_0, # of connection points: 6
#     Node 17, Type 0, BuildingBlock: GEDQOX_clean_sbu_0, # of connection points: 6
#     Edge 18, Type (0, 0), BuildingBlock: AJUNOK_clean_linker_0, # of connection points: 2
#     Edge 19, Type (0, 0), BuildingBlock: AJUNOK_clean_linker_0, # of connection points: 2
#     Edge 20, Type (0, 0), BuildingBlock: AJUNOK_clean_linker_0, # of connection points: 2
#     Edge 21, Type (0, 0), BuildingBlock: AJUNOK_clean_linker_0, # of connection points: 2
#     Edge 22, Type (0, 0), BuildingBlock: AJUNOK_clean_linker_0, # of connection points: 2
#     Edge 23, Type (0, 0), BuildingBlock: AJUNOK_clean_linker_0, # of connection points: 2
#     Edge 24, Type (0, 0), BuildingBlock: AJUNOK_clean_linker_0, # of connection points: 2
#     Edge 25, Type (0, 0), BuildingBlock: AJUNOK_clean_linker_0, # of connection points: 2
#     Edge 26, Type (0, 0), BuildingBlock: AJUNOK_clean_linker_0, # of connection points: 2
#     Edge 27, Type (0, 0), BuildingBlock: AJUNOK_clean_linker_0, # of connection points: 2
#     Edge 28, Type (0, 0), BuildingBlock: AJUNOK_clean_linker_0, # of connection points: 2
#     Edge 29, Type (0, 0), BuildingBlock: AJUNOK_clean_linker_0, # of connection points: 2
#     Edge 30, Type (0, 0), BuildingBlock: AJUNOK_clean_linker_0, # of connection points: 2
#     Edge 31, Type (0, 0), BuildingBlock: AJUNOK_clean_linker_0, # of connection points: 2
#     Edge 32, Type (0, 0), BuildingBlock: AJUNOK_clean_linker_0, # of connection points: 2
#     Edge 33, Type (0, 0), BuildingBlock: AJUNOK_clean_linker_0, # of connection points: 2
#     Edge 34, Type (0, 0), BuildingBlock: AJUNOK_clean_linker_0, # of connection points: 2
#     Edge 35, Type (0, 0), BuildingBlock: AJUNOK_clean_linker_0, # of connection points: 2
#     Edge 36, Type (0, 0), BuildingBlock: AJUNOK_clean_linker_0, # of connection points: 2
#     Edge 37, Type (0, 0), BuildingBlock: AJUNOK_clean_linker_0, # of connection points: 2
#     Edge 38, Type (0, 0), BuildingBlock: AJUNOK_clean_linker_0, # of connection points: 2
#     Edge 39, Type (0, 0), BuildingBlock: AJUNOK_clean_linker_0, # of connection points: 2
#     Edge 40, Type (0, 0), BuildingBlock: AJUNOK_clean_linker_0, # of connection points: 2
#     Edge 41, Type (0, 0), BuildingBlock: AJUNOK_clean_linker_0, # of connection points: 2
#     Edge 42, Type (0, 0), BuildingBlock: AJUNOK_clean_linker_0, # of connection points: 2
#     Edge 43, Type (0, 0), BuildingBlock: AJUNOK_clean_linker_0, # of connection points: 2
#     Edge 44, Type (0, 0), BuildingBlock: AJUNOK_clean_linker_0, # of connection points: 2
#     Edge 45, Type (0, 0), BuildingBlock: AJUNOK_clean_linker_0, # of connection points: 2
#     Edge 46, Type (0, 0), BuildingBlock: AJUNOK_clean_linker_0, # of connection points: 2
#     Edge 47, Type (0, 0), BuildingBlock: AJUNOK_clean_linker_0, # of connection points: 2
#     Edge 48, Type (0, 0), BuildingBlock: AJUNOK_clean_linker_0, # of connection points: 2
#     Edge 49, Type (0, 0), BuildingBlock: AJUNOK_clean_linker_0, # of connection points: 2
#     Edge 50, Type (0, 0), BuildingBlock: AJUNOK_clean_linker_0, # of connection points: 2
#     Edge 51, Type (0, 0), BuildingBlock: AJUNOK_clean_linker_0, # of connection points: 2
#     Edge 52, Type (0, 0), BuildingBlock: AJUNOK_clean_linker_0, # of connection points: 2
#     Edge 53, Type (0, 0), BuildingBlock: AJUNOK_clean_linker_0, # of connection points: 2
#     Edge 54, Type (0, 0), BuildingBlock: AJUNOK_clean_linker_0, # of connection points: 2
#     Edge 55, Type (0, 0), BuildingBlock: AJUNOK_clean_linker_0, # of connection points: 2
#     Edge 56, Type (0, 0), BuildingBlock: AJUNOK_clean_linker_0, # of connection points: 2
#     Edge 57, Type (0, 0), BuildingBlock: AJUNOK_clean_linker_0, # of connection points: 2
#     Edge 58, Type (0, 0), BuildingBlock: AJUNOK_clean_linker_0, # of connection points: 2
#     Edge 59, Type (0, 0), BuildingBlock: AJUNOK_clean_linker_0, # of connection points: 2
#     Edge 60, Type (0, 0), BuildingBlock: AJUNOK_clean_linker_0, # of connection points: 2
#     Edge 61, Type (0, 0), BuildingBlock: AJUNOK_clean_linker_0, # of connection points: 2
#     Edge 62, Type (0, 0), BuildingBlock: AJUNOK_clean_linker_0, # of connection points: 2
#     Edge 63, Type (0, 0), BuildingBlock: AJUNOK_clean_linker_0, # of connection points: 2
#     Edge 64, Type (0, 0), BuildingBlock: AJUNOK_clean_linker_0, # of connection points: 2
#     Edge 65, Type (0, 0), BuildingBlock: AJUNOK_clean_linker_0, # of connection points: 2
#     Edge 66, Type (0, 0), BuildingBlock: AJUNOK_clean_linker_0, # of connection points: 2
#     Edge 67, Type (0, 0), BuildingBlock: AJUNOK_clean_linker_0, # of connection points: 2
#     Edge 68, Type (0, 0), BuildingBlock: AJUNOK_clean_linker_0, # of connection points: 2
#     Edge 69, Type (0, 0), BuildingBlock: AJUNOK_clean_linker_0, # of connection points: 2
#     Edge 70, Type (0, 0), BuildingBlock: AJUNOK_clean_linker_0, # of connection points: 2
#     Edge 71, Type (0, 0), BuildingBlock: AJUNOK_clean_linker_0, # of connection points: 2
# Relax obj value: 0.284
# Max RMSD: 0.261
# Mean RMSD: 0.260
data_MOF--net-smd--node1-GEDQOX_clean_sbu_0--edge1-AJUNOK_clean_linker_0
_symmetry_space_group_name_H-M    P1
_symmetry_Int_Tables_number       1
_symmetry_cell_setting            triclinic
loop_
_symmetry_equiv_pos_as_xyz
'x, y, z'
_cell_length_a     76.324508
_cell_length_b     76.412236
_cell_length_c     11.578637
_cell_angle_alpha  90.017747
_cell_angle_beta   90.082804
_cell_angle_gamma 120.03452
loop_
_atom_site_label
_atom_site_type_symbol
_atom_site_fract_x
_atom_site_fract_y
_atom_site_fract_z
_atom_type_partial_charge
Nd0 Nd 0.05298 0.24151 0.58645 0.0
Nd1 Nd 1.01506 0.24934 0.59077 0.0
C2 C 0.08866 0.24368 0.61249 0.0
C3 C 0.10604 0.24132 0.57403 0.0
C4 C 0.12498 0.25863 0.55367 0.0
C5 C 0.14233 0.25709 0.53519 0.0
C6 C 0.14129 0.23817 0.53644 0.0
C7 C 0.12226 0.2208 0.55446 0.0
C8 C 0.10488 0.22234 0.57314 0.0
C9 C 1.01486 0.20794 0.55825 0.0
C10 C 0.03388 0.24465 0.3439 0.0
C11 C 0.97901 0.24649 0.60397 0.0
C12 C 0.97144 0.26027 0.63672 0.0
C13 C 0.95296 0.25277 0.69556 0.0
C14 C 0.94595 0.26582 0.73011 0.0
C15 C 0.95734 0.28664 0.70635 0.0
C16 C 0.97591 0.29406 0.64796 0.0
C17 C 0.9829 0.28106 0.61391 0.0
C18 C 0.05101 0.28588 0.57859 0.0
C19 C 0.0346 0.24684 0.83756 0.0
O20 O 0.08659 0.25854 0.57133 0.0
O21 O 0.07138 0.22768 0.63953 0.0
O22 O 0.03104 0.20988 0.50814 0.0
O23 O 0.01952 0.2228 0.62409 0.0
O24 O 0.05081 0.24833 0.39653 0.0
O25 O 0.01726 0.2406 0.40213 0.0
O26 O 0.98689 0.24118 0.68765 0.0
O27 O 0.98938 0.25047 0.5078 0.0
O28 O 0.03335 0.28434 0.58574 0.0
O29 O 0.0488 0.26844 0.58319 0.0
O30 O 0.0199 0.24777 0.78319 0.0
O31 O 0.04916 0.24564 0.78189 0.0
H32 H 0.12655 0.27352 0.55647 0.0
H33 H 0.15673 0.27085 0.5245 0.0
H34 H 0.12085 0.20597 0.55571 0.0
H35 H 0.09066 0.20869 0.59016 0.0
H36 H 0.94393 0.23679 0.71485 0.0
H37 H 0.93152 0.25959 0.77372 0.0
H38 H 0.98516 0.31004 0.62939 0.0
H39 H 0.99733 0.28732 0.57016 0.0
Nd40 Nd 0.82818 0.83711 0.56232 0.0
Nd41 Nd 0.81984 0.79136 0.56627 0.0
C42 C 0.82704 0.87111 0.58956 0.0
C43 C 0.831 0.89159 0.55455 0.0
C44 C 0.81827 0.89405 0.47598 0.0
C45 C 0.82032 0.91318 0.45725 0.0
C46 C 0.83514 0.93036 0.51651 0.0
C47 C 0.84795 0.92787 0.59408 0.0
C48 C 0.84591 0.9088 0.61273 0.0
C49 C 0.86161 0.83239 0.53198 0.0
C50 C 0.82385 0.81475 0.31916 0.0
C51 C 0.82199 0.75779 0.57824 0.0
C52 C 0.80814 0.73692 0.61858 0.0
C53 C 0.81592 0.72517 0.66458 0.0
C54 C 0.80289 0.70593 0.71072 0.0
C55 C 0.78182 0.69813 0.71207 0.0
C56 C 0.77413 0.70987 0.66432 0.0
C57 C 0.78711 0.72902 0.61829 0.0
C58 C 0.78335 0.79098 0.55447 0.0
C59 C 0.82144 0.813 0.81273 0.0
O60 O 0.81284 0.85504 0.53713 0.0
O61 O 0.84193 0.86877 0.62737 0.0
O62 O 0.85961 0.84663 0.48273 0.0
O63 O 0.84687 0.82223 0.59867 0.0
O64 O 0.82061 0.82801 0.37423 0.0
O65 O 0.82777 0.80186 0.37522 0.0
O66 O 0.82899 0.7717 0.65851 0.0
O67 O 0.81674 0.76363 0.48443 0.0
O68 O 0.78483 0.77488 0.56312 0.0
O69 O 0.80086 0.80621 0.55939 0.0
O70 O 0.82104 0.79744 0.76037 0.0
O71 O 0.82263 0.82854 0.75526 0.0
H72 H 0.80635 0.88111 0.43108 0.0
H73 H 0.8102 0.91452 0.39693 0.0
H74 H 0.85918 0.94059 0.64363 0.0
H75 H 0.85561 0.90743 0.67609 0.0
H76 H 0.83211 0.73105 0.6668 0.0
H77 H 0.80933 0.69742 0.74825 0.0
H78 H 0.75798 0.70426 0.66315 0.0
H79 H 0.7807 0.73777 0.58394 0.0
Nd80 Nd 0.23574 0.01659 0.55199 0.0
Nd81 Nd 0.28352 0.05587 0.55389 0.0
C82 C 0.20446 0.9792 0.55881 0.0
C83 C 0.18367 0.96265 0.53033 0.0
C84 C 0.18083 0.94358 0.50073 0.0
C85 C 0.16134 0.92685 0.48758 0.0
C86 C 0.14405 0.92874 0.50268 0.0
C87 C 0.14692 0.94797 0.53074 0.0
C88 C 0.16649 0.96473 0.54457 0.0
C89 C 0.23795 0.05424 0.53726 0.0
C90 C 0.259 0.03676 0.30658 0.0
C91 C 0.31724 0.0913 0.57056 0.0
C92 C 0.33733 0.09813 0.62299 0.0
C93 C 0.35081 0.11874 0.64358 0.0
C94 C 0.36965 0.12507 0.6965 0.0
C95 C 0.37522 0.11084 0.73055 0.0
C96 C 0.36175 0.09024 0.70754 0.0
C97 C 0.343 0.08396 0.65521 0.0
C98 C 0.28178 0.01865 0.55988 0.0
C99 C 0.25984 0.03594 0.79876 0.0
O100 O 0.21902 0.98507 0.48232 0.0
O101 O 0.20677 0.99359 0.62988 0.0
O102 O 0.22091 0.03709 0.5381 0.0
O103 O 0.25199 0.05021 0.54368 0.0
O104 O 0.24463 0.02069 0.3611 0.0
O105 O 0.27355 0.05286 0.36166 0.0
O106 O 0.30212 0.08528 0.64313 0.0
O107 O 0.31264 0.07945 0.47996 0.0
O108 O 0.29855 0.03584 0.56121 0.0
O109 O 0.26741 0.02222 0.56014 0.0
O110 O 0.27429 0.05209 0.74554 0.0
O111 O 0.2458 0.01994 0.74214 0.0
H112 H 0.19375 0.94142 0.49154 0.0
H113 H 0.15984 0.91227 0.46927 0.0
H114 H 0.134 0.95003 0.54283 0.0
H115 H 0.16816 0.97919 0.5686 0.0
H116 H 0.34672 0.12993 0.61944 0.0
H117 H 0.3797 0.14103 0.71244 0.0
H118 H 0.36576 0.07891 0.72937 0.0
H119 H 0.33291 0.06799 0.64008 0.0
Nd120 Nd 0.06153 0.81503 0.4528 0.0
Nd121 Nd 0.02431 0.82389 0.45657 0.0
C122 C 0.09713 0.81694 0.44161 0.0
C123 C 0.10492 0.80423 0.39111 0.0
C124 C 0.10394 0.8005 0.27154 0.0
C125 C 0.11046 0.78774 0.22591 0.0
C126 C 0.11816 0.77838 0.2984 0.0
C127 C 0.1195 0.78243 0.41771 0.0
C128 C 0.11303 0.79526 0.46335 0.0
C129 C 0.02527 0.77894 0.46824 0.0
C130 C 0.04219 0.81737 0.20557 0.0
C131 C 0.98915 0.82276 0.42685 0.0
C132 C 0.97145 0.82462 0.46511 0.0
C133 C 0.95262 0.8071 0.4843 0.0
C134 C 0.93505 0.8083 0.50177 0.0
C135 C 0.93575 0.82707 0.50074 0.0
C136 C 0.95467 0.84464 0.48391 0.0
C137 C 0.97226 0.84344 0.46617 0.0
C138 C 0.0628 0.85691 0.4815 0.0
C139 C 0.0431 0.82045 0.69947 0.0
O140 O 0.0914 0.82632 0.3695 0.0
O141 O 0.08501 0.80948 0.53056 0.0
O142 O 0.04274 0.78014 0.45836 0.0
O143 O 0.0277 0.79649 0.46187 0.0
O144 O 0.05598 0.81485 0.25981 0.0
O145 O 0.02857 0.82018 0.26111 0.0
O146 O 0.9906 0.8071 0.4592 0.0
O147 O 1.00678 0.83903 0.41057 0.0
O148 O 0.04694 0.85542 0.53327 0.0
O149 O 0.05763 0.84183 0.41659 0.0
O150 O 0.0263 0.8172 0.64696 0.0
O151 O 0.05959 0.82413 0.64103 0.0
H152 H 0.09783 0.80715 0.21304 0.0
H153 H 0.10923 0.78498 0.13368 0.0
H154 H 0.12489 0.77514 0.4765 0.0
H155 H 0.11398 0.79785 0.55574 0.0
H156 H 0.9513 0.79231 0.48133 0.0
H157 H 0.92076 0.79439 0.51155 0.0
H158 H 0.95584 0.85936 0.48289 0.0
H159 H 0.98638 0.85724 0.44983 0.0
Nd160 Nd 0.25695 0.27234 0.46978 0.0
Nd161 Nd 0.24753 0.22597 0.47366 0.0
C162 C 0.25536 0.30622 0.45651 0.0
C163 C 0.26886 0.32673 0.41034 0.0
C164 C 0.26133 0.33977 0.38636 0.0
C165 C 0.27393 0.35893 0.33801 0.0
C166 C 0.29432 0.36539 0.31268 0.0
C167 C 0.30174 0.35223 0.33733 0.0
C168 C 0.28917 0.33313 0.38531 0.0
C169 C 0.29275 0.27137 0.48256 0.0
C170 C 0.25458 0.25029 0.22316 0.0
C171 C 0.24873 0.19202 0.44643 0.0
C172 C 0.24556 0.17176 0.48045 0.0
C173 C 0.26003 0.16997 0.54718 0.0
C174 C 0.25877 0.15111 0.56233 0.0
C175 C 0.2431 0.13353 0.51045 0.0
C176 C 0.22824 0.13524 0.44732 0.0
C177 C 0.22951 0.15408 0.43203 0.0
C178 C 0.21469 0.23158 0.50392 0.0
C179 C 0.2517 0.2484 0.7169 0.0
O180 O 0.24726 0.29175 0.3797 0.0
O181 O 0.26173 0.30096 0.54814 0.0
O182 O 0.29205 0.28791 0.4742 0.0
O183 O 0.27498 0.25664 0.47697 0.0
O184 O 0.25619 0.2664 0.27559 0.0
O185 O 0.25234 0.23429 0.2804 0.0
O186 O 0.26337 0.20842 0.49418 0.0
O187 O 0.23333 0.19397 0.41384 0.0
O188 O 0.21618 0.21694 0.552 0.0
O189 O 0.22957 0.24158 0.43768 0.0
O190 O 0.25441 0.23475 0.66235 0.0
O191 O 0.24863 0.26186 0.66065 0.0
H192 H 0.24564 0.33504 0.40385 0.0
H193 H 0.26762 0.36851 0.31845 0.0
H194 H 0.31739 0.35674 0.31989 0.0
H195 H 0.2953 0.32331 0.40221 0.0
H196 H 0.27273 0.18324 0.58496 0.0
H197 H 0.27023 0.15035 0.61367 0.0
H198 H 0.21599 0.12208 0.40586 0.0
H199 H 0.21829 0.15488 0.37846 0.0
Nd200 Nd 0.79549 1.00745 0.46281 0.0
Nd201 Nd 0.84298 0.04734 0.46408 0.0
C202 C 0.76206 0.97175 0.44617 0.0
C203 C 0.74195 0.96493 0.39349 0.0
C204 C 0.72805 0.94427 0.37753 0.0
C205 C 0.70912 0.93798 0.32573 0.0
C206 C 0.70384 0.95228 0.28826 0.0
C207 C 0.71776 0.97293 0.30648 0.0
C208 C 0.7366 0.97916 0.35755 0.0
C209 C 0.7964 0.04431 0.46145 0.0
C210 C 0.81876 0.02787 0.21752 0.0
C211 C 0.87401 0.08491 0.45696 0.0
C212 C 0.89463 0.10166 0.48678 0.0
C213 C 0.89717 0.12076 0.5123 0.0
C214 C 0.91651 0.13759 0.52821 0.0
C215 C 0.93395 0.13579 0.52033 0.0
C216 C 0.93138 0.11654 0.49591 0.0
C217 C 0.91194 0.09967 0.47913 0.0
C218 C 0.84154 0.01005 0.47649 0.0
C219 C 0.82007 0.02672 0.7098 0.0
O220 O 0.77724 0.97793 0.37392 0.0
O221 O 0.76655 0.98354 0.53691 0.0
O222 O 0.77984 0.02693 0.45933 0.0
O223 O 0.81103 0.04111 0.45794 0.0
O224 O 0.80446 0.01161 0.2707 0.0
O225 O 0.8328 0.04389 0.27413 0.0
O226 O 0.85933 0.0789 0.53258 0.0
O227 O 0.872 0.07053 0.3868 0.0
O228 O 0.85835 0.0274 0.47728 0.0
O229 O 0.82724 0.01369 0.47047 0.0
O230 O 0.83442 0.04279 0.6553 0.0
O231 O 0.80563 0.01052 0.65476 0.0
H232 H 0.73185 0.93301 0.40467 0.0
H233 H 0.69873 0.92198 0.31358 0.0
H234 H 0.71402 0.98436 0.28214 0.0
H235 H 0.74701 0.99516 0.36912 0.0
H236 H 0.88414 0.12284 0.5165 0.0
H237 H 0.91779 0.15217 0.54328 0.0
H238 H 0.94441 0.11453 0.4893 0.0
H239 H 0.9105 0.08518 0.45841 0.0
Nd240 Nd 0.7206 0.57612 0.89507 0.0
Nd241 Nd 0.6828 0.58395 0.89805 0.0
C242 C 0.75596 0.57779 0.92568 0.0
C243 C 0.77354 0.57569 0.88885 0.0
C244 C 0.79305 0.59278 0.89174 0.0
C245 C 0.81026 0.59099 0.87409 0.0
C246 C 0.8085 0.57205 0.85237 0.0
C247 C 0.78892 0.55496 0.84733 0.0
C248 C 0.77165 0.55674 0.8655 0.0
C249 C 0.68278 0.5426 0.86163 0.0
C250 C 0.70191 0.57964 0.6517 0.0
C251 C 0.64686 0.58129 0.90926 0.0
C252 C 0.63869 0.59349 0.96226 0.0
C253 C 0.64001 0.59716 0.08197 0.0
C254 C 0.63322 0.60954 0.12992 0.0
C255 C 0.62491 0.61859 0.05967 0.0
C256 C 0.62321 0.61458 0.94023 0.0
C257 C 0.62995 0.60213 0.89226 0.0
C258 C 0.7187 0.62054 0.88481 0.0
C259 C 0.70241 0.58225 0.14562 0.0
O260 O 0.75433 0.5931 0.88838 0.0
O261 O 0.73845 0.56161 0.94603 0.0
O262 O 0.69922 0.54494 0.8132 0.0
O263 O 0.68697 0.55711 0.92987 0.0
O264 O 0.71875 0.58309 0.70475 0.0
O265 O 0.68524 0.57552 0.70943 0.0
O266 O 0.65262 0.57167 0.97945 0.0
O267 O 0.65916 0.58939 0.82161 0.0
O268 O 0.70104 0.61892 0.89377 0.0
O269 O 0.7166 0.60312 0.89064 0.0
O270 O 0.68832 0.58424 0.09116 0.0
O271 O 0.71622 0.57975 0.0902 0.0
H272 H 0.79506 0.60752 0.912 0.0
H273 H 0.82502 0.60443 0.88173 0.0
H274 H 0.78694 0.54013 0.83049 0.0
H275 H 0.75689 0.54321 0.86401 0.0
H276 H 0.6466 0.59075 0.1387 0.0
H277 H 0.63474 0.61227 0.22219 0.0
H278 H 0.61734 0.62165 0.88306 0.0
H279 H 0.62875 0.5996 0.79979 0.0
Nd280 Nd 0.49591 0.17084 0.89159 0.0
Nd281 Nd 0.48815 0.12333 0.89303 0.0
C282 C 0.48919 0.2017 0.89925 0.0
C283 C 0.49283 0.22227 0.87097 0.0
C284 C 0.47615 0.22464 0.84484 0.0
C285 C 0.47843 0.24391 0.83174 0.0
C286 C 0.49752 0.26146 0.84338 0.0
C287 C 0.51431 0.25906 0.86793 0.0
C288 C 0.512 0.2397 0.88175 0.0
C289 C 0.53169 0.1691 0.87876 0.0
C290 C 0.49307 0.14769 0.64604 0.0
C291 C 0.49014 0.08978 0.90746 0.0
C292 C 0.47643 0.06935 0.95461 0.0
C293 C 0.48412 0.05717 0.9949 0.0
C294 C 0.47115 0.03807 0.0432 0.0
C295 C 0.45022 0.03083 0.05218 0.0
C296 C 0.44264 0.04309 1.01093 0.0
C297 C 0.45556 0.06209 0.96304 0.0
C298 C 0.45234 0.12449 0.89774 0.0
C299 C 0.49144 0.1468 0.13803 0.0
O300 O 0.48043 0.18699 0.82356 0.0
O301 O 0.50172 0.19981 0.9689 0.0
O302 O 0.53131 0.18599 0.87743 0.0
O303 O 0.51369 0.15497 0.88513 0.0
O304 O 0.49121 0.16195 0.7007 0.0
O305 O 0.49505 0.13341 0.70101 0.0
O306 O 0.49855 0.10447 0.98338 0.0
O307 O 0.48376 0.0949 0.8151 0.0
O308 O 0.45302 0.10788 0.89927 0.0
O309 O 0.47021 0.139 0.89866 0.0
O310 O 0.49361 0.13264 0.08471 0.0
O311 O 0.48921 0.16067 0.08147 0.0
H312 H 0.46114 0.21151 0.83831 0.0
H313 H 0.46503 0.24504 0.81623 0.0
H314 H 0.52926 0.27218 0.8773 0.0
H315 H 0.52513 0.2384 0.90301 0.0
H316 H 0.5002 0.06252 0.99012 0.0
H317 H 0.47755 0.02919 0.07567 0.0
H318 H 0.42661 0.03795 1.01549 0.0
H319 H 0.44921 0.07116 0.93306 0.0
Nd320 Nd 0.90159 0.35127 0.87341 0.0
Nd321 Nd 0.94759 0.38923 0.86989 0.0
C322 C 0.86966 0.31416 0.87683 0.0
C323 C 0.84829 0.29835 0.85173 0.0
C324 C 0.84442 0.2818 0.78121 0.0
C325 C 0.82487 0.26496 0.77259 0.0
C326 C 0.80863 0.2641 0.835 0.0
C327 C 0.8123 0.28106 0.90126 0.0
C328 C 0.83189 0.29792 0.9101 0.0
C329 C 0.90271 0.38846 0.85467 0.0
C330 C 0.92372 0.37155 0.6277 0.0
C331 C 0.98203 0.42382 0.9002 0.0
C332 C 1.00143 0.4306 0.96069 0.0
C333 C 1.01468 0.45126 0.98078 0.0
C334 C 0.03339 0.45784 0.03538 0.0
C335 C 0.03921 0.44385 0.0705 0.0
C336 C 0.02568 0.42311 0.05151 0.0
C337 C 1.007 0.41656 0.9974 0.0
C338 C 0.94397 0.35217 0.8332 0.0
C339 C 0.92553 0.36924 0.12078 0.0
O340 O 0.88344 0.32046 0.7954 0.0
O341 O 0.87326 0.32794 0.95534 0.0
O342 O 0.8859 0.3712 0.85868 0.0
O343 O 0.91684 0.3847 0.86001 0.0
O344 O 0.91136 0.3547 0.68372 0.0
O345 O 0.93633 0.38852 0.68335 0.0
O346 O 0.96607 0.41812 0.9652 0.0
O347 O 0.97838 0.41189 0.81137 0.0
O348 O 0.95858 0.36902 0.7935 0.0
O349 O 0.93305 0.35537 0.90296 0.0
O350 O 0.94123 0.38389 0.06573 0.0
O351 O 0.9098 0.35467 0.06563 0.0
H352 H 0.85669 0.28153 0.73595 0.0
H353 H 0.82254 0.25238 0.71873 0.0
H354 H 0.80016 0.28093 0.95033 0.0
H355 H 0.83429 0.31028 0.96615 0.0
H356 H 1.01059 0.46232 0.95373 0.0
H357 H 0.04324 0.47386 0.05057 0.0
H358 H 0.02971 0.41192 0.07661 0.0
H359 H 0.99697 0.40054 0.98304 0.0
Nd360 Nd 0.72921 0.14678 0.81773 0.0
Nd361 Nd 0.69109 0.15458 0.81367 0.0
C362 C 0.76369 0.14673 0.78749 0.0
C363 C 0.77004 0.13351 0.73035 0.0
C364 C 0.79058 0.14066 0.7076 0.0
C365 C 0.79676 0.12803 0.65569 0.0
C366 C 0.78248 0.10797 0.62595 0.0
C367 C 0.76187 0.10101 0.64766 0.0
C368 C 0.75572 0.11364 0.69912 0.0
C369 C 0.69224 0.11322 0.85431 0.0
C370 C 0.70919 0.14892 0.56656 0.0
C371 C 0.65375 0.14894 0.81129 0.0
C372 C 0.63798 0.1546 0.83561 0.0
C373 C 0.62245 0.14332 0.91536 0.0
C374 C 0.60577 0.1463 0.92638 0.0
C375 C 0.60414 0.16064 0.8579 0.0
C376 C 0.61985 0.17213 0.77933 0.0
C377 C 0.63651 0.16916 0.76834 0.0
C378 C 0.72834 0.19081 0.83082 0.0
C379 C 0.71165 0.15306 0.05949 0.0
O380 O 0.75769 0.15642 0.71985 0.0
O381 O 0.75222 0.13929 0.87874 0.0
O382 O 0.70916 0.11554 0.89354 0.0
O383 O 0.69526 0.12731 0.78483 0.0
O384 O 0.72397 0.14811 0.62189 0.0
O385 O 0.69444 0.14974 0.6215 0.0
O386 O 0.66051 0.14217 0.89427 0.0
O387 O 0.66721 0.15866 0.73065 0.0
O388 O 0.71102 0.19025 0.82668 0.0
O389 O 0.72459 0.17292 0.82647 0.0
O390 O 0.69471 0.14835 1.00333 0.0
O391 O 0.72863 0.1575 1.00393 0.0
H392 H 0.80187 0.156 0.73036 0.0
H393 H 0.81269 0.13401 0.63823 0.0
H394 H 0.75047 0.08563 0.62665 0.0
H395 H 0.73977 0.10783 0.71555 0.0
H396 H 0.62286 0.13171 0.96697 0.0
H397 H 0.59402 0.1372 0.9879 0.0
H398 H 0.61895 0.18298 0.72312 0.0
H399 H 0.6479 0.17785 0.70419 0.0
Nd400 Nd 0.92517 0.60932 0.80592 0.0
Nd401 Nd 0.91634 0.56157 0.8082 0.0
C402 C 0.92344 0.64305 0.79241 0.0
C403 C 0.93705 0.66371 0.74876 0.0
C404 C 0.92904 0.67551 0.70694 0.0
C405 C 0.94175 0.69457 0.65791 0.0
C406 C 0.96273 0.70213 0.64963 0.0
C407 C 0.97067 0.69031 0.69319 0.0
C408 C 0.95799 0.67132 0.74189 0.0
C409 C 0.96071 0.6076 0.80484 0.0
C410 C 0.92145 0.58572 0.5611 0.0
C411 C 0.92143 0.52968 0.79912 0.0
C412 C 0.91567 0.50834 0.82513 0.0
C413 C 0.92813 0.50443 0.89748 0.0
C414 C 0.92525 0.48487 0.90741 0.0
C415 C 0.9099 0.46865 0.8446 0.0
C416 C 0.89679 0.47233 0.7765 0.0
C417 C 0.89971 0.49195 0.76626 0.0
C418 C 0.88104 0.56412 0.82018 0.0
C419 C 0.91976 0.58488 0.05297 0.0
O420 O 0.9159 0.62883 0.71371 0.0
O421 O 0.92932 0.63759 0.88552 0.0
O422 O 0.96023 0.62433 0.80205 0.0
O423 O 0.94275 0.59317 0.80291 0.0
O424 O 0.91978 0.60019 0.61417 0.0
O425 O 0.92329 0.57165 0.61801 0.0
O426 O 0.9294 0.5435 0.88039 0.0
O427 O 0.91091 0.5333 0.72283 0.0
O428 O 0.881 0.54708 0.82785 0.0
O429 O 0.89911 0.5779 0.80968 0.0
O430 O 0.92186 0.57078 0.99837 0.0
O431 O 0.91775 0.59911 0.99766 0.0
H432 H 0.91288 0.66981 0.71023 0.0
H433 H 0.93511 0.70312 0.62363 0.0
H434 H 0.98676 0.69573 0.68898 0.0
H435 H 0.96453 0.66247 0.77273 0.0
H436 H 0.94067 0.51669 0.94318 0.0
H437 H 0.93537 0.48251 0.96248 0.0
H438 H 0.88481 0.46019 0.72708 0.0
H439 H 0.88992 0.49438 0.7088 0.0
Nd440 Nd 0.46474 0.34331 0.79301 0.0
Nd441 Nd 0.51083 0.38047 0.79737 0.0
C442 C 0.43107 0.30768 0.78034 0.0
C443 C 0.41013 0.29965 0.73472 0.0
C444 C 0.40536 0.29281 0.61977 0.0
C445 C 0.38583 0.28577 0.57576 0.0
C446 C 0.37049 0.28509 0.64592 0.0
C447 C 0.37512 0.29154 0.76138 0.0
C448 C 0.39467 0.29869 0.80532 0.0
C449 C 0.46489 0.37955 0.80941 0.0
C450 C 0.48656 0.36254 0.5461 0.0
C451 C 0.54483 0.41562 0.76843 0.0
C452 C 0.56459 0.4332 0.80522 0.0
C453 C 0.56631 0.45227 0.82139 0.0
C454 C 0.58532 0.46971 0.83599 0.0
C455 C 0.60319 0.46863 0.83382 0.0
C456 C 0.60139 0.44943 0.82283 0.0
C457 C 0.58239 0.43198 0.80803 0.0
C458 C 0.50549 0.34207 0.82271 0.0
C459 C 0.48867 0.36159 0.04002 0.0
O460 O 0.44567 0.31402 0.70435 0.0
O461 O 0.4363 0.31924 0.87228 0.0
O462 O 0.44858 0.3621 0.79972 0.0
O463 O 0.47999 0.37708 0.80278 0.0
O464 O 0.47032 0.34864 0.60005 0.0
O465 O 0.50287 0.37635 0.6019 0.0
O466 O 0.52786 0.41416 0.80397 0.0
O467 O 0.54336 0.39804 0.7489 0.0
O468 O 0.51989 0.35801 0.87404 0.0
O469 O 0.49549 0.34712 0.75761 0.0
O470 O 0.50218 0.37841 0.98783 0.0
O471 O 0.47583 0.34514 0.98119 0.0
H472 H 0.41678 0.29309 0.5631 0.0
H473 H 0.38271 0.28089 0.4865 0.0
H474 H 0.36373 0.29155 0.81706 0.0
H475 H 0.39772 0.30368 0.89437 0.0
H476 H 0.55298 0.45385 0.81808 0.0
H477 H 0.58607 0.4842 0.8442 0.0
H478 H 0.61476 0.4479 0.82374 0.0
H479 H 0.58173 0.41762 0.79516 0.0
Nd480 Nd 0.3869 0.90824 0.22912 0.0
Nd481 Nd 0.34984 0.9172 0.23217 0.0
C482 C 0.42185 0.90886 0.2566 0.0
C483 C 0.43849 0.90516 0.2197 0.0
C484 C 0.45465 0.9193 0.15136 0.0
C485 C 0.4719 0.91751 0.13339 0.0
C486 C 0.47359 0.90165 0.18409 0.0
C487 C 0.4571 0.88711 0.24872 0.0
C488 C 0.43986 0.8889 0.26675 0.0
C489 C 0.34867 0.87521 0.19515 0.0
C490 C 0.36847 0.91238 0.98564 0.0
C491 C 0.31431 0.91553 0.24634 0.0
C492 C 0.30759 0.92901 0.29655 0.0
C493 C 0.28691 0.92236 0.31095 0.0
C494 C 0.28066 0.93504 0.36189 0.0
C495 C 0.295 0.95456 0.40011 0.0
C496 C 0.31568 0.96121 0.38338 0.0
C497 C 0.32188 0.94855 0.33314 0.0
C498 C 0.38633 0.95335 0.2203 0.0
C499 C 0.36942 0.91522 0.47955 0.0
O500 O 0.42035 0.92369 0.21001 0.0
O501 O 0.40437 0.89368 0.28886 0.0
O502 O 0.36502 0.87717 0.14755 0.0
O503 O 0.35315 0.8898 0.2633 0.0
O504 O 0.38511 0.9153 0.03883 0.0
O505 O 0.3519 0.90871 0.0431 0.0
O506 O 0.32042 0.90678 0.32042 0.0
O507 O 0.32609 0.92238 0.15569 0.0
O508 O 0.36885 0.95216 0.22794 0.0
O509 O 0.38374 0.93574 0.22556 0.0
O510 O 0.35518 0.91694 0.42508 0.0
O511 O 0.38328 0.91281 0.42405 0.0
H512 H 0.45428 0.93214 0.11451 0.0
H513 H 0.48408 0.92874 0.08095 0.0
H514 H 0.45784 0.87473 0.28934 0.0
H515 H 0.4279 0.87791 0.32143 0.0
H516 H 0.27561 0.90731 0.28352 0.0
H517 H 0.26463 0.92948 0.37296 0.0
H518 H 0.32715 0.97634 0.40839 0.0
H519 H 0.3379 0.95405 0.32305 0.0
Nd520 Nd 0.16085 0.50362 0.23627 0.0
Nd521 Nd 0.15161 0.45556 0.23742 0.0
C522 C 0.15517 0.53516 0.24349 0.0
C523 C 0.15891 0.55586 0.21809 0.0
C524 C 0.14235 0.55842 0.19195 0.0
C525 C 0.14471 0.5778 0.18229 0.0
C526 C 0.16375 0.59523 0.19857 0.0
C527 C 0.1805 0.59262 0.22052 0.0
C528 C 0.17809 0.57318 0.231 0.0
C529 C 0.19589 0.50061 0.22165 0.0
C530 C 0.15752 0.48026 0.99038 0.0
C531 C 0.15283 0.42161 0.25375 0.0
C532 C 0.13931 0.40141 0.30394 0.0
C533 C 0.14679 0.38855 0.3339 0.0
C534 C 0.13408 0.36969 0.38544 0.0
C535 C 0.11369 0.36346 0.40878 0.0
C536 C 0.10621 0.37626 0.37616 0.0
C537 C 0.11889 0.39504 0.32514 0.0
C538 C 0.11636 0.45774 0.24061 0.0
C539 C 0.15557 0.47932 0.48259 0.0
O540 O 0.14636 0.52065 0.16676 0.0
O541 O 0.16737 0.53283 0.31369 0.0
O542 O 0.19622 0.51786 0.22291 0.0
O543 O 0.17771 0.48689 0.22828 0.0
O544 O 0.15649 0.49499 0.04501 0.0
O545 O 0.1586 0.46545 0.04519 0.0
O546 O 0.16179 0.43654 0.32775 0.0
O547 O 0.146 0.42649 0.16238 0.0
O548 O 0.1166 0.4409 0.24284 0.0
O549 O 0.1344 0.47203 0.24274 0.0
O550 O 0.15706 0.46477 0.42922 0.0
O551 O 0.15399 0.49358 0.42616 0.0
H552 H 0.12735 0.54536 0.18266 0.0
H553 H 0.13144 0.57909 0.16566 0.0
H554 H 0.19551 0.60562 0.23028 0.0
H555 H 0.19117 0.57173 0.2512 0.0
H556 H 0.16252 0.39318 0.31838 0.0
H557 H 0.14027 0.36016 0.40903 0.0
H558 H 0.09047 0.37173 0.38982 0.0
H559 H 0.11272 0.40463 0.30262 0.0
Nd560 Nd 0.56648 0.68283 0.22839 0.0
Nd561 Nd 0.61232 0.72001 0.23269 0.0
C562 C 0.5321 0.64805 0.25715 0.0
C563 C 0.51177 0.63128 0.22117 0.0
C564 C 0.5098 0.61464 0.15794 0.0
C565 C 0.49076 0.59729 0.14192 0.0
C566 C 0.47319 0.59602 0.18941 0.0
C567 C 0.47507 0.61298 0.24855 0.0
C568 C 0.4941 0.63031 0.26478 0.0
C569 C 0.57154 0.72096 0.1949 0.0
C570 C 0.58892 0.70046 0.98541 0.0
C571 C 0.64587 0.7558 0.24413 0.0
C572 C 0.66664 0.76296 0.28748 0.0
C573 C 0.67854 0.78281 0.32889 0.0
C574 C 0.6978 0.78927 0.37617 0.0
C575 C 0.70547 0.77594 0.38311 0.0
C576 C 0.69353 0.75615 0.34023 0.0
C577 C 0.67436 0.74974 0.29322 0.0
C578 C 0.61251 0.68385 0.22028 0.0
C579 C 0.59077 0.70004 0.47917 0.0
O580 O 0.54842 0.64942 0.21123 0.0
O581 O 0.53441 0.6656 0.28772 0.0
O582 O 0.55732 0.70468 0.14552 0.0
O583 O 0.58154 0.71645 0.26357 0.0
O584 O 0.57556 0.684 0.04053 0.0
O585 O 0.60183 0.71729 0.04143 0.0
O586 O 0.63167 0.74922 0.32261 0.0
O587 O 0.64032 0.74435 0.15173 0.0
O588 O 0.62869 0.70141 0.22931 0.0
O589 O 0.5973 0.68618 0.22536 0.0
O590 O 0.60661 0.71488 0.42693 0.0
O591 O 0.57489 0.68606 0.4217 0.0
H592 H 0.52304 0.61471 0.12395 0.0
H593 H 0.48985 0.5847 0.09378 0.0
H594 H 0.46189 0.61254 0.28651 0.0
H595 H 0.49503 0.64266 0.31555 0.0
H596 H 0.67281 0.79322 0.3263 0.0
H597 H 0.70646 0.8045 0.40991 0.0
H598 H 0.69902 0.74555 0.34332 0.0
H599 H 0.66549 0.73434 0.26243 0.0
Nd600 Nd 0.39481 0.47865 0.1508 0.0
Nd601 Nd 0.35556 0.48713 0.15135 0.0
C602 C 0.43047 0.48093 0.13504 0.0
C603 C 0.43868 0.46898 0.07948 0.0
C604 C 0.43783 0.46614 0.95904 0.0
C605 C 0.44479 0.45406 0.90877 0.0
C606 C 0.45277 0.44449 0.97737 0.0
C607 C 0.45398 0.44767 0.09757 0.0
C608 C 0.4471 0.45984 0.14785 0.0
C609 C 0.35771 0.443 0.14772 0.0
C610 C 0.37441 0.48147 0.90517 0.0
C611 C 0.3183 0.48156 0.1467 0.0
C612 C 0.30239 0.48683 0.1737 0.0
C613 C 0.28579 0.47365 0.24242 0.0
C614 C 0.26897 0.4763 0.25433 0.0
C615 C 0.26821 0.49216 0.19731 0.0
C616 C 0.28517 0.50588 0.1324 0.0
C617 C 0.302 0.50318 0.12007 0.0
C618 C 0.39332 0.52252 0.16487 0.0
C619 C 0.37557 0.48372 0.39751 0.0
O620 O 0.42476 0.4909 0.06689 0.0
O621 O 0.41819 0.47247 0.22271 0.0
O622 O 0.37502 0.44365 0.14466 0.0
O623 O 0.36103 0.46089 0.14546 0.0
O624 O 0.3906 0.48321 0.95844 0.0
O625 O 0.35857 0.47989 0.96169 0.0
O626 O 0.32473 0.47414 0.22781 0.0
O627 O 0.33208 0.49199 0.06859 0.0
O628 O 0.37625 0.52254 0.16228 0.0
O629 O 0.38914 0.50444 0.16015 0.0
O630 O 0.35968 0.48236 0.34235 0.0
O631 O 0.39171 0.48533 0.3431 0.0
H632 H 0.43148 0.47296 0.90346 0.0
H633 H 0.44364 0.45194 0.81598 0.0
H634 H 0.45957 0.44017 0.15343 0.0
H635 H 0.44796 0.46175 0.24079 0.0
H636 H 0.2855 0.4608 0.28402 0.0
H637 H 0.25639 0.4657 0.30693 0.0
H638 H 0.2851 0.51827 0.08744 0.0
H639 H 0.3144 0.51353 0.06553 0.0
Nd640 Nd 0.59084 0.94053 0.13112 0.0
Nd641 Nd 0.58245 0.89286 0.13301 0.0
C642 C 0.58875 0.97398 0.11462 0.0
C643 C 0.60217 0.99484 0.07258 0.0
C644 C 0.59406 1.00518 1.01275 0.0
C645 C 0.6067 0.025 0.97302 0.0
C646 C 0.62769 0.03483 0.99293 0.0
C647 C 0.63574 0.02428 0.05154 0.0
C648 C 0.62317 1.00452 0.09046 0.0
C649 C 0.62647 0.93901 0.12645 0.0
C650 C 0.58606 0.91659 0.88641 0.0
C651 C 0.58883 0.86178 0.12502 0.0
C652 C 0.58494 0.84111 0.15233 0.0
C653 C 0.60148 0.83832 0.17448 0.0
C654 C 0.59886 0.81885 0.18463 0.0
C655 C 0.57959 0.80157 0.1727 0.0
C656 C 0.56288 0.80442 0.15496 0.0
C657 C 0.56554 0.82394 0.14412 0.0
C658 C 0.54701 0.89515 0.14825 0.0
C659 C 0.58484 0.91603 0.37839 0.0
O660 O 0.58139 0.95972 0.03588 0.0
O661 O 0.59437 0.9686 0.20914 0.0
O662 O 0.62595 0.95573 0.12524 0.0
O663 O 0.60853 0.92458 0.12515 0.0
O664 O 0.58409 0.93062 0.94214 0.0
O665 O 0.58837 0.90254 0.94071 0.0
O666 O 0.59772 0.87645 0.20089 0.0
O667 O 0.57635 0.86384 0.05572 0.0
O668 O 0.54702 0.87807 0.14795 0.0
O669 O 0.56509 0.90907 0.14073 0.0
O670 O 0.58661 0.90148 0.32596 0.0
O671 O 0.58331 0.93034 0.32125 0.0
H672 H 0.57791 0.99796 0.99744 0.0
H673 H 0.60003 0.03277 0.92903 0.0
H674 H 0.65187 0.03136 0.06711 0.0
H675 H 0.62989 0.99684 0.13491 0.0
H676 H 0.61664 0.85125 0.17999 0.0
H677 H 0.6121 0.81735 0.19799 0.0
H678 H 0.54773 0.79154 0.14855 0.0
H679 H 0.55248 0.82558 0.127 0.0
Nd680 Nd 0.12985 0.676 0.13549 0.0
Nd681 Nd 0.17587 0.71359 0.14018 0.0
C682 C 0.09636 0.64018 0.12299 0.0
C683 C 0.07589 0.63185 0.06963 0.0
C684 C 0.07291 0.62795 0.95018 0.0
C685 C 0.05383 0.62108 0.9 0.0
C686 C 0.03721 0.61795 0.96771 0.0
C687 C 0.03997 0.621 0.0877 0.0
C688 C 0.05906 0.62785 0.13801 0.0
C689 C 0.12979 0.71224 0.14604 0.0
C690 C 0.15151 0.69598 0.88914 0.0
C691 C 0.20986 0.74876 0.11094 0.0
C692 C 0.22983 0.76626 0.14583 0.0
C693 C 0.23179 0.78543 0.1615 0.0
C694 C 0.25091 0.80279 0.17483 0.0
C695 C 0.26867 0.80151 0.17202 0.0
C696 C 0.26664 0.7822 0.16151 0.0
C697 C 0.24752 0.76483 0.14784 0.0
C698 C 0.17088 0.67551 0.17475 0.0
C699 C 0.15325 0.6957 0.38288 0.0
O700 O 0.11178 0.64588 0.05319 0.0
O701 O 0.10064 0.65252 0.21072 0.0
O702 O 0.11353 0.69472 0.13693 0.0
O703 O 0.1449 0.70976 0.14172 0.0
O704 O 0.13539 0.68145 0.9413 0.0
O705 O 0.16762 0.70967 0.94648 0.0
O706 O 0.19312 0.74723 0.1513 0.0
O707 O 0.2082 0.73122 0.08701 0.0
O708 O 0.18515 0.69185 0.22348 0.0
O709 O 0.16087 0.67998 0.10581 0.0
O710 O 0.16661 0.7122 0.32793 0.0
O711 O 0.1403 0.67887 0.32691 0.0
H712 H 0.08539 0.63051 0.89474 0.0
H713 H 0.05214 0.61852 0.80763 0.0
H714 H 0.0275 0.61878 0.14228 0.0
H715 H 0.06072 0.63042 0.2304 0.0
H716 H 0.21854 0.78716 0.15883 0.0
H717 H 0.25181 0.81735 0.18265 0.0
H718 H 0.27991 0.78051 0.16205 0.0
H719 H 0.24666 0.75038 0.13545 0.0
C720 C 0.09844 0.32553 0.4262 0.0
C721 C 0.10001 0.34371 0.46649 0.0
C722 C 0.08353 0.30659 0.46946 0.0
C723 C 0.0697 0.30526 0.55403 0.0
H724 H 0.10807 0.32587 0.35657 0.0
H725 H 0.082 0.29295 0.4312 0.0
S726 S 0.06965 0.34824 0.70249 0.0
N727 N 0.08823 0.35901 0.6078 0.0
N728 N 0.06002 0.32365 0.68578 0.0
C729 C 0.07203 0.32331 0.60026 0.0
C730 C 0.08723 0.34246 0.55742 0.0
C731 C 0.74584 0.77285 0.55994 0.0
C732 C 0.76395 0.79014 0.52667 0.0
C733 C 0.72705 0.76895 0.51705 0.0
C734 C 0.72549 0.78207 0.43786 0.0
H735 H 0.74624 0.76178 0.61668 0.0
H736 H 0.71363 0.75518 0.54375 0.0
S737 S 0.76834 0.82986 0.32532 0.0
N738 N 0.77912 0.82095 0.41296 0.0
N739 N 0.74379 0.81357 0.33088 0.0
C740 C 0.74341 0.79993 0.40757 0.0
C741 C 0.76263 0.80397 0.45221 0.0
C742 C 0.26998 0.98673 0.44531 0.0
C743 C 0.28112 0.99923 0.53834 0.0
C744 C 0.27373 0.97151 0.40433 0.0
C745 C 0.2887 0.96829 0.45533 0.0
H746 H 0.2594 0.98968 0.39874 0.0
H747 H 0.26571 0.96305 0.32813 0.0
S748 S 0.31922 0.99471 0.71465 0.0
N749 N 0.30592 1.00591 0.68822 0.0
N750 N 0.31242 0.97701 0.61488 0.0
C751 C 0.29865 0.97966 0.55436 0.0
C752 C 0.295 0.9952 0.5948 0.0
C753 C 0.41335 0.13266 0.74138 0.0
C754 C 0.39506 0.11716 0.78828 0.0
C755 C 0.43227 0.13648 0.78419 0.0
C756 C 0.43346 0.12488 0.87499 0.0
H757 H 0.41306 0.14106 0.66682 0.0
H758 H 0.44593 0.1475 0.74055 0.0
S759 S 0.39039 0.0852 0.04086 0.0
N760 N 0.37967 0.09234 0.9418 0.0
N761 N 0.41501 0.09905 0.0188 0.0
C762 C 0.4154 0.11044 0.92764 0.0
C763 C 0.39626 0.10671 0.88528 0.0
C764 C 0.94738 0.33048 0.68764 0.0
C765 C 0.94228 0.33262 0.80138 0.0
C766 C 0.95109 0.31491 0.65691 0.0
C767 C 0.95006 0.30086 0.73891 0.0
H768 H 0.94943 0.34154 0.62253 0.0
H769 H 0.95556 0.31435 0.56885 0.0
S770 S 0.93595 0.29902 0.04739 0.0
N771 N 0.93506 0.31869 0.99506 0.0
N772 N 0.94229 0.28939 0.93819 0.0
C773 C 0.94377 0.30207 0.85181 0.0
C774 C 0.93983 0.31798 0.88289 0.0
C775 C 0.75262 0.67676 0.84235 0.0
C776 C 0.7677 0.67822 0.7666 0.0
C777 C 0.73768 0.65806 0.88564 0.0
C778 C 0.73717 0.63995 0.85601 0.0
H779 H 0.75204 0.69017 0.86625 0.0
H780 H 0.72597 0.65773 0.93994 0.0
S781 S 0.77347 0.63535 0.66375 0.0
N782 N 0.78154 0.65986 0.66647 0.0
N783 N 0.75343 0.6247 0.74874 0.0
C784 C 0.75264 0.64119 0.78463 0.0
C785 C 0.76791 0.66032 0.73981 0.0
C786 C 1.00564 0.7415 0.46655 0.0
C787 C 1.00666 0.75977 0.49799 0.0
C788 C 0.99085 0.72296 0.51211 0.0
C789 C 0.97648 0.72185 0.59221 0.0
H790 H 0.01691 0.74159 0.4093 0.0
H791 H 0.99104 0.70941 0.48682 0.0
S792 S 0.97206 0.76526 0.69981 0.0
N793 N 0.99148 0.77557 0.61027 0.0
N794 N 0.9637 0.7407 0.69749 0.0
C795 C 0.97669 0.73991 0.62042 0.0
C796 C 0.99178 0.75888 0.57302 0.0
C797 C 0.32964 0.28486 0.45585 0.0
C798 C 0.31155 0.27115 0.51177 0.0
C799 C 0.34853 0.28847 0.49642 0.0
C800 C 0.35011 0.27896 0.5968 0.0
H801 H 0.32925 0.29343 0.38231 0.0
H802 H 0.36206 0.29959 0.45225 0.0
S803 S 0.30723 0.24131 0.77348 0.0
N804 N 0.29636 0.24743 0.66996 0.0
N805 N 0.33181 0.25455 0.74833 0.0
C806 C 0.33208 0.26476 0.65169 0.0
C807 C 0.31281 0.26075 0.60859 0.0
C808 C 0.77776 0.08155 0.48028 0.0
C809 C 0.78878 0.09405 0.57377 0.0
C810 C 0.78149 0.06645 0.43906 0.0
C811 C 0.79659 0.06337 0.48815 0.0
H812 H 0.76566 0.083 0.44091 0.0
H813 H 0.77189 0.05654 0.37095 0.0
S814 S 0.82983 0.09188 0.73406 0.0
N815 N 0.81569 0.10236 0.71342 0.0
N816 N 0.82272 0.07408 0.63465 0.0
C817 C 0.80833 0.07625 0.57817 0.0
C818 C 0.80444 0.09158 0.62113 0.0
C819 C 0.6466 0.92721 0.24107 0.0
C820 C 0.64528 0.93845 0.14862 0.0
C821 C 0.66559 0.93094 0.28243 0.0
C822 C 0.68382 0.94598 0.2324 0.0
H823 H 0.63304 0.91656 0.28688 0.0
H824 H 0.666 0.92284 0.35819 0.0
S825 S 0.68804 0.97677 0.97482 0.0
N826 N 0.66349 0.96341 1.00027 0.0
N827 N 0.6989 0.96989 0.07432 0.0
C828 C 0.68244 0.95603 0.13392 0.0
C829 C 0.66324 0.95241 0.09311 0.0
C830 C 0.10916 0.74789 0.17639 0.0
C831 C 0.12305 0.76313 0.25069 0.0
C832 C 0.11217 0.73215 0.13864 0.0
C833 C 0.12932 0.73104 0.17207 0.0
H834 H 0.09535 0.7476 0.15094 0.0
H835 H 0.10059 0.72037 0.0853 0.0
S836 S 0.17097 0.76774 0.35988 0.0
N837 N 0.15527 0.77668 0.35142 0.0
N838 N 0.16075 0.74693 0.28092 0.0
C839 C 0.14376 0.74655 0.24258 0.0
C840 C 0.14064 0.76258 0.28199 0.0
C841 C 0.33581 0.40592 0.12628 0.0
C842 C 0.33855 0.4241 0.17316 0.0
C843 C 0.3208 0.38709 0.16788 0.0
C844 C 0.30801 0.38558 0.25955 0.0
H845 H 0.34597 0.40625 0.05996 0.0
H846 H 0.31968 0.37357 0.13047 0.0
S847 S 0.30877 0.42876 0.41152 0.0
N848 N 0.32689 0.43948 0.31402 0.0
N849 N 0.29875 0.40413 0.39359 0.0
C850 C 0.30998 0.40368 0.30391 0.0
C851 C 0.32524 0.42292 0.26052 0.0
C852 C 0.0607 0.44003 0.22161 0.0
C853 C 0.05936 0.45052 0.12515 0.0
C854 C 0.07948 0.44381 0.26444 0.0
C855 C 0.09774 0.45845 0.21405 0.0
H856 H 0.04708 0.42821 0.26172 0.0
H857 H 0.07969 0.43449 0.33442 0.0
S858 S 0.10285 0.49056 0.96219 0.0
N859 N 0.07817 0.47668 0.98243 0.0
N860 N 0.1134 0.48385 0.06451 0.0
C861 C 0.09675 0.46983 0.12173 0.0
C862 C 0.07758 0.46587 0.07704 0.0
C863 C 0.63384 0.64892 0.18299 0.0
C864 C 0.61983 0.63357 0.10967 0.0
C865 C 0.63064 0.66443 0.22285 0.0
C866 C 0.61317 0.6652 0.1926 0.0
H867 H 0.64788 0.64949 0.20597 0.0
H868 H 0.64231 0.67631 0.27523 0.0
S869 S 0.57106 0.62802 1.00917 0.0
N870 N 0.58715 0.61952 1.01361 0.0
N871 N 0.58128 0.64881 0.08831 0.0
C872 C 0.59861 0.64955 0.12331 0.0
C873 C 0.60193 0.63376 0.08167 0.0
C874 C 0.42151 1.00951 0.18585 0.0
C875 C 0.4361 0.01086 0.10651 0.0
C876 C 0.40633 0.9908 0.22773 0.0
C877 C 0.40513 0.97257 0.19342 0.0
H878 H 0.42144 0.02303 0.21338 0.0
H879 H 0.39495 0.99058 0.28455 0.0
S880 S 0.44001 0.96757 0.99143 0.0
N881 N 0.44875 0.99218 0.9983 0.0
N882 N 0.42028 0.95703 0.07868 0.0
C883 C 0.42017 0.97366 0.11893 0.0
C884 C 0.43564 0.99279 0.07521 0.0
C885 C 0.67078 0.08906 1.00389 0.0
C886 C 0.67272 0.09558 0.88867 0.0
C887 C 0.65544 0.06985 0.03752 0.0
C888 C 0.64144 0.05622 0.95711 0.0
H889 H 0.68188 0.09855 0.06788 0.0
H890 H 0.65507 0.06532 0.12657 0.0
S891 S 0.63903 0.06652 0.64588 0.0
N892 N 0.6586 0.08755 0.69523 0.0
N893 N 0.62968 0.05116 0.75787 0.0
C894 C 0.64238 0.06301 0.84275 0.0
C895 C 0.65806 0.08277 0.80859 0.0
C896 C 0.99893 0.59755 0.95673 0.0
C897 C 0.01751 0.61311 0.91297 0.0
C898 C 0.98024 0.59445 0.91422 0.0
C899 C 0.97953 0.60704 0.82795 0.0
H900 H 0.99886 0.58809 0.02655 0.0
H901 H 0.96637 0.58302 0.95425 0.0
S902 S 0.02353 0.64918 0.68072 0.0
N903 N 0.03369 0.64053 0.77431 0.0
N904 N 0.9988 0.63486 0.69635 0.0
C905 C 0.99789 0.62203 0.78054 0.0
C906 C 0.01682 0.62503 0.82243 0.0
C907 C 0.44415 0.41491 0.84821 0.0
C908 C 0.45794 0.42976 0.92474 0.0
C909 C 0.44729 0.39946 0.80662 0.0
C910 C 0.46446 0.39827 0.83829 0.0
H911 H 0.4303 0.41464 0.82421 0.0
H912 H 0.43575 0.38792 0.75195 0.0
S913 S 0.506 0.43413 0.0295 0.0
N914 N 0.49017 0.44296 0.02495 0.0
N915 N 0.49591 0.41376 0.94692 0.0
C916 C 0.47886 0.41346 0.91048 0.0
C917 C 0.4756 0.42919 0.9539 0.0
C918 C 0.16368 0.22438 0.6014 0.0
C919 C 0.1601 0.23663 0.52497 0.0
C920 C 0.18137 0.22299 0.59439 0.0
C921 C 0.19633 0.23379 0.51069 0.0
H922 H 0.15282 0.21596 0.66853 0.0
H923 H 0.18336 0.2134 0.65558 0.0
S924 S 0.19387 0.26697 0.28467 0.0
N925 N 0.17279 0.25908 0.3591 0.0
N926 N 0.20591 0.25651 0.34637 0.0
C927 C 0.19289 0.24594 0.43296 0.0
C928 C 0.17487 0.24736 0.44002 0.0
C929 C 0.82108 0.972 0.4956 0.0
C930 C 0.83996 0.98977 0.48277 0.0
C931 C 0.81957 0.95286 0.50426 0.0
C932 C 0.83689 0.9507 0.50068 0.0
H933 H 0.80738 0.97289 0.50057 0.0
H934 H 0.80475 0.9397 0.51645 0.0
S935 S 0.88972 0.99235 0.45845 0.0
N936 N 0.87623 1.00378 0.46104 0.0
N937 N 0.87338 0.96806 0.4757 0.0
C938 C 0.85577 0.96834 0.48508 0.0
C939 C 0.8573 0.98777 0.47651 0.0
C940 C 0.08891 0.88966 0.57284 0.0
C941 C 0.0835 0.8751 0.48489 0.0
C942 C 0.10833 0.90698 0.57724 0.0
C943 C 0.12319 0.91056 0.49357 0.0
H944 H 0.07811 0.88756 0.63967 0.0
H945 H 0.11184 0.91749 0.6481 0.0
S946 S 0.11601 0.87799 0.23893 0.0
N947 N 0.09426 0.86603 0.30836 0.0
N948 N 0.13046 0.89851 0.31555 0.0
C949 C 0.11777 0.89628 0.40376 0.0
C950 C 0.09805 0.87862 0.39968 0.0
C951 C 0.22407 0.0958 0.54533 0.0
C952 C 0.24238 0.11356 0.51942 0.0
C953 C 0.22288 0.07682 0.55112 0.0
C954 C 0.23994 0.0747 0.53137 0.0
H955 H 0.21051 0.09658 0.56198 0.0
H956 H 0.20844 0.06369 0.57171 0.0
S957 S 0.29109 0.11603 0.45064 0.0
N958 N 0.27775 0.12745 0.46738 0.0
N959 N 0.27547 0.0919 0.47886 0.0
C960 C 0.25828 0.09224 0.50421 0.0
C961 C 0.25951 0.11159 0.4982 0.0
C962 C 0.97036 0.15758 0.45594 0.0
C963 C 0.9547 0.15405 0.53369 0.0
C964 C 0.9897 0.17498 0.46429 0.0
C965 C 0.99423 0.18966 0.5505 0.0
H966 H 0.96757 0.14698 0.38658 0.0
H967 H 1.00113 0.17701 0.40191 0.0
S968 S 0.95928 0.18706 0.78137 0.0
N969 N 0.94568 0.16636 0.70446 0.0
N970 N 0.98168 0.19898 0.71867 0.0
C971 C 0.97884 0.18621 0.62972 0.0
C972 C 0.95921 0.16848 0.6217 0.0
C973 C 0.91307 0.84054 0.43571 0.0
C974 C 0.91674 0.82827 0.51159 0.0
C975 C 0.89522 0.84165 0.44244 0.0
C976 C 0.8802 0.83056 0.52531 0.0
H977 H 0.92398 0.84917 0.36926 0.0
H978 H 0.89315 0.85126 0.38174 0.0
S979 S 0.88281 0.79716 0.74937 0.0
N980 N 0.90404 0.80548 0.67593 0.0
N981 N 0.87063 0.80749 0.68799 0.0
C982 C 0.88372 0.81838 0.60238 0.0
C983 C 0.90191 0.81725 0.59564 0.0
C984 C 0.84584 0.55273 0.89143 0.0
C985 C 0.86285 0.56652 0.82723 0.0
C986 C 0.82836 0.55451 0.89842 0.0
C987 C 0.82703 0.57004 0.84033 0.0
H988 H 0.84613 0.54059 0.93806 0.0
H989 H 0.8159 0.54379 0.95134 0.0
S990 S 0.86637 0.60826 0.64704 0.0
N991 N 0.87654 0.59506 0.69623 0.0
N992 N 0.84383 0.59837 0.70779 0.0
C993 C 0.84376 0.58355 0.77292 0.0
C994 C 0.86159 0.58179 0.76671 0.0
C995 C 0.51312 0.31652 0.91185 0.0
C996 C 0.50322 0.32148 0.82615 0.0
C997 C 0.51139 0.29728 0.91606 0.0
C998 C 0.49971 0.28211 0.83449 0.0
H999 H 0.52219 0.32757 0.97701 0.0
H1000 H 0.51901 0.29415 0.98515 0.0
S1001 S 0.47213 0.28797 0.58632 0.0
N1002 N 0.48214 0.30991 0.6541 0.0
N1003 N 0.47907 0.27402 0.66094 0.0
C1004 C 0.49003 0.28704 0.74704 0.0
C1005 C 0.49174 0.3066 0.74312 0.0
C1006 C 0.75116 0.2286 0.8164 0.0
C1007 C 0.74885 0.20931 0.83435 0.0
C1008 C 0.77042 0.24621 0.81692 0.0
C1009 C 0.78821 0.24527 0.83496 0.0
H1010 H 0.73799 0.23011 0.80076 0.0
H1011 H 0.77141 0.26066 0.80153 0.0
S1012 S 0.79034 0.19872 0.89777 0.0
N1013 N 0.76603 0.1906 0.87827 0.0
N1014 N 0.80199 0.22344 0.87943 0.0
C1015 C 0.78603 0.2261 0.85546 0.0
C1016 C 0.76646 0.20823 0.85515 0.0
C1017 C 0.88948 0.43057 0.86503 0.0
C1018 C 0.90822 0.44824 0.84586 0.0
C1019 C 0.88779 0.41132 0.86706 0.0
C1020 C 0.90475 0.40894 0.8495 0.0
H1021 H 0.87604 0.43164 0.88017 0.0
H1022 H 0.8731 0.39822 0.88358 0.0
S1023 S 0.95682 0.45012 0.78306 0.0
N1024 N 0.94379 0.46184 0.80061 0.0
N1025 N 0.94061 0.4259 0.80424 0.0
C1026 C 0.92345 0.42643 0.82739 0.0
C1027 C 0.92518 0.44599 0.82565 0.0
C1028 C 0.62758 0.50279 0.92076 0.0
C1029 C 0.62357 0.48752 0.83905 0.0
C1030 C 0.64661 0.52062 0.92672 0.0
C1031 C 0.66245 0.52399 0.85109 0.0
H1032 H 0.616 0.50083 0.98185 0.0
H1033 H 0.64898 0.53173 0.9922 0.0
S1034 S 0.65932 0.48977 0.61426 0.0
N1035 N 0.6368 0.47779 0.67558 0.0
N1036 N 0.67241 0.51098 0.68772 0.0
C1037 C 0.65852 0.50907 0.76751 0.0
C1038 C 0.63917 0.49095 0.76133 0.0
C1039 C 0.56614 0.14606 0.86608 0.0
C1040 C 0.58582 0.16311 0.86555 0.0
C1041 C 0.54874 0.14805 0.87007 0.0
C1042 C 0.55024 0.16718 0.87419 0.0
H1043 H 0.56414 0.13101 0.86144 0.0
H1044 H 0.534 0.13449 0.86927 0.0
S1045 S 0.59807 0.21661 0.88171 0.0
N1046 N 0.60558 0.19978 0.87481 0.0
N1047 N 0.5731 0.20351 0.88112 0.0
C1048 C 0.56978 0.18433 0.87506 0.0
C1049 C 0.58747 0.18231 0.87098 0.0
C1050 C 0.50928 0.88051 0.13852 0.0
C1051 C 0.52867 0.89739 0.15649 0.0
C1052 C 0.49166 0.88203 0.14647 0.0
C1053 C 0.49262 0.90051 0.17292 0.0
H1054 H 0.50767 0.86596 0.11761 0.0
H1055 H 0.47714 0.86861 0.13107 0.0
S1056 S 0.53956 0.94884 0.23836 0.0
N1057 N 0.54763 0.93294 0.20809 0.0
N1058 N 0.51471 0.9358 0.22413 0.0
C1059 C 0.51193 0.91744 0.19262 0.0
C1060 C 0.52987 0.91589 0.18423 0.0
C1061 C 0.15722 0.63979 0.10357 0.0
C1062 C 0.1689 0.65508 0.18415 0.0
C1063 C 0.15577 0.62067 0.10835 0.0
C1064 C 0.16585 0.6159 0.19428 0.0
H1065 H 0.14933 0.64268 0.03503 0.0
H1066 H 0.14682 0.60959 0.0431 0.0
S1067 S 0.19696 0.65008 0.43214 0.0
N1068 N 0.18996 0.66381 0.35585 0.0
N1069 N 0.1869 0.62793 0.3666 0.0
C1070 C 0.17725 0.63098 0.27679 0.0
C1071 C 0.17883 0.65048 0.27139 0.0
C1072 C 0.43557 0.57764 0.1491 0.0
C1073 C 0.45305 0.57694 0.18091 0.0
C1074 C 0.41643 0.55999 0.14388 0.0
C1075 C 0.41389 0.54085 0.17011 0.0
H1076 H 0.43671 0.59196 0.12744 0.0
H1077 H 0.4035 0.56136 0.11859 0.0
S1078 S 0.45431 0.53085 0.26891 0.0
N1079 N 0.4662 0.55548 0.24598 0.0
N1080 N 0.43035 0.52249 0.23591 0.0
C1081 C 0.43115 0.53994 0.20344 0.0
C1082 C 0.45065 0.5579 0.20881 0.0
C1083 C 0.58586 0.75679 0.26501 0.0
C1084 C 0.57364 0.74143 0.18602 0.0
C1085 C 0.58756 0.776 0.26065 0.0
C1086 C 0.57717 0.78079 0.17683 0.0
H1087 H 0.59403 0.75389 0.33184 0.0
H1088 H 0.59695 0.78715 0.3245 0.0
S1089 S 0.54454 0.74642 0.94379 0.0
N1090 N 0.5517 0.73263 0.01809 0.0
N1091 N 0.55519 0.76869 1.00824 0.0
C1092 C 0.5652 0.76564 0.09598 0.0
C1093 C 0.56339 0.74604 0.10087 0.0
C1094 C 0.31247 0.85362 0.26123 0.0
C1095 C 0.32823 0.85669 0.18575 0.0
C1096 C 0.29336 0.83585 0.25649 0.0
C1097 C 0.28916 0.82033 0.17614 0.0
H1098 H 0.31497 0.86493 0.32563 0.0
H1099 H 0.28186 0.83414 0.31748 0.0
S1100 S 0.32465 0.82174 0.95207 0.0
N1101 N 0.33791 0.84312 0.02389 0.0
N1102 N 0.30216 0.81006 1.01391 0.0
C1103 C 0.30469 0.82346 0.09851 0.0
C1104 C 0.32412 0.84152 0.1035 0.0
C1105 C 0.25091 0.51269 0.22821 0.0
C1106 C 0.24955 0.49401 0.2027 0.0
C1107 C 0.23351 0.51464 0.23397 0.0
C1108 C 0.214 0.49802 0.21431 0.0
H1109 H 0.26553 0.52588 0.24524 0.0
H1110 H 0.23537 0.52929 0.25492 0.0
S1111 S 0.20231 0.44636 0.13151 0.0
N1112 N 0.22711 0.45892 0.14923 0.0
N1113 N 0.19462 0.46262 0.16005 0.0
C1114 C 0.21248 0.47939 0.18623 0.0
C1115 C 0.23016 0.47739 0.18048 0.0
C1116 C 0.04973 0.24591 0.15121 0.0
C1117 C 0.03357 0.245 0.21503 0.0
C1118 C 0.05001 0.24657 0.02986 0.0
C1119 C 0.03419 0.24649 0.96666 0.0
H1120 H 0.06234 0.24603 0.19514 0.0
H1121 H 0.06277 0.24716 0.98554 0.0
S1122 S 0.98835 0.24458 0.09216 0.0
N1123 N 1.00138 0.24429 0.20515 0.0
N1124 N 1.00179 0.24552 0.97856 0.0
C1125 C 0.01793 0.24566 0.02959 0.0
C1126 C 0.01764 0.24491 0.15308 0.0
C1127 C 0.8257 0.80025 0.12684 0.0
C1128 C 0.82305 0.8145 0.19009 0.0
C1129 C 0.82484 0.79968 1.00548 0.0
C1130 C 0.82135 0.81338 0.94168 0.0
H1131 H 0.8285 0.78941 0.17118 0.0
H1132 H 0.8272 0.78853 0.96149 0.0
S1133 S 0.81275 0.85337 0.06488 0.0
N1134 N 0.81634 0.84249 0.17835 0.0
N1135 N 0.8147 0.84132 0.95182 0.0
C1136 C 0.81848 0.82759 1.00376 0.0
C1137 C 0.81933 0.82817 0.12724 0.0
C1138 C 0.27449 0.05215 0.11358 0.0
C1139 C 0.25876 0.03642 0.17714 0.0
C1140 C 0.27476 0.05185 0.99202 0.0
C1141 C 0.25931 0.0358 0.9281 0.0
H1142 H 0.28684 0.06482 0.15784 0.0
H1143 H 0.28728 0.06435 0.94807 0.0
S1144 S 0.21423 0.99098 0.05189 0.0
N1145 N 0.227 1.00437 0.1653 0.0
N1146 N 0.22755 1.00384 0.93882 0.0
C1147 C 0.2434 0.02001 0.99054 0.0
C1148 C 0.24311 0.02031 0.11416 0.0
C1149 C 0.02679 0.81799 0.89229 0.0
C1150 C 0.04339 0.81992 0.82839 0.0
C1151 C 0.02647 0.8171 1.01358 0.0
C1152 C 0.04265 0.81791 0.07661 0.0
H1153 H 1.01385 0.81718 0.84852 0.0
H1154 H 1.01335 0.81567 0.05803 0.0
S1155 S 0.08988 0.82299 0.95151 0.0
N1156 N 0.07652 0.82262 0.83845 0.0
N1157 N 0.07596 0.82098 0.065 0.0
C1158 C 0.05936 0.81982 1.0138 0.0
C1159 C 0.05973 0.82082 0.89036 0.0
C1160 C 0.25284 0.26465 0.03029 0.0
C1161 C 0.25443 0.24978 0.09419 0.0
C1162 C 0.25179 0.26403 0.90896 0.0
C1163 C 0.25232 0.24854 0.84592 0.0
H1164 H 0.2522 0.27684 0.07416 0.0
H1165 H 0.25061 0.27586 0.86447 0.0
S1166 S 0.25668 0.20599 0.97134 0.0
N1167 N 0.2568 0.21922 0.08417 0.0
N1168 N 0.25463 0.21788 0.8579 0.0
C1169 C 0.25399 0.2336 0.90885 0.0
C1170 C 0.25509 0.23426 0.03221 0.0
C1171 C 0.80503 0.01107 0.02451 0.0
C1172 C 0.81926 0.02804 0.08816 0.0
C1173 C 0.80544 0.01069 0.90301 0.0
C1174 C 0.82014 0.02724 0.83922 0.0
H1175 H 0.79341 0.99785 0.06864 0.0
H1176 H 0.79408 0.99724 0.85901 0.0
S1177 S 0.86089 0.0756 0.96353 0.0
N1178 N 0.84847 0.062 0.07679 0.0
N1179 N 0.84935 0.06129 0.85048 0.0
C1180 C 0.83448 0.04435 0.90189 0.0
C1181 C 0.83401 0.04475 0.02544 0.0
C1182 C 0.71781 0.58158 0.33726 0.0
C1183 C 0.70219 0.58205 0.27473 0.0
C1184 C 0.7176 0.58082 0.45859 0.0
C1185 C 0.70169 0.58031 0.52297 0.0
H1186 H 0.73034 0.58179 0.2924 0.0
H1187 H 0.73001 0.58048 0.50203 0.0
S1188 S 0.65723 0.58165 0.40211 0.0
N1189 N 0.6704 0.58222 0.28797 0.0
N1190 N 0.67007 0.58079 0.51449 0.0
C1191 C 0.68602 0.58088 0.46173 0.0
C1192 C 0.68627 0.58176 0.33831 0.0
C1193 C 0.49516 0.13347 0.45262 0.0
C1194 C 0.49271 0.14779 0.51656 0.0
C1195 C 0.49463 0.13319 0.33104 0.0
C1196 C 0.49161 0.14722 0.26744 0.0
H1197 H 0.49752 0.1223 0.49658 0.0
H1198 H 0.49666 0.12185 0.28683 0.0
S1199 S 0.48408 0.18784 0.39238 0.0
N1200 N 0.48693 0.17639 0.50546 0.0
N1201 N 0.48596 0.17584 0.27898 0.0
C1202 C 0.48907 0.16161 0.33029 0.0
C1203 C 0.48961 0.1619 0.45393 0.0
C1204 C 0.93934 0.38648 0.31278 0.0
C1205 C 0.9252 0.36933 0.25005 0.0
C1206 C 0.93864 0.38724 0.43419 0.0
C1207 C 0.92382 0.37085 0.49847 0.0
H1208 H 0.95097 0.39959 0.26785 0.0
H1209 H 0.94991 0.40078 0.4778 0.0
S1210 S 0.88339 0.32211 0.37652 0.0
N1211 N 0.89607 0.33536 0.26284 0.0
N1212 N 0.89464 0.33679 0.48879 0.0
C1213 C 0.90964 0.35355 0.43668 0.0
C1214 C 0.91036 0.35279 0.31339 0.0
C1215 C 0.72723 0.15363 0.25346 0.0
C1216 C 0.71098 0.15238 0.18874 0.0
C1217 C 0.72641 0.15217 0.37489 0.0
C1218 C 0.70935 0.14946 0.43723 0.0
H1219 H 0.74066 0.15562 0.21017 0.0
H1220 H 0.7394 0.15336 0.42013 0.0
S1221 S 0.66261 0.14518 0.30943 0.0
N1222 N 0.67722 0.14829 0.19755 0.0
N1223 N 0.67568 0.14542 0.42347 0.0
C1224 C 0.69298 0.14815 0.37341 0.0
C1225 C 0.6938 0.14964 0.25012 0.0
C1226 C 0.91947 0.60013 0.24637 0.0
C1227 C 0.91991 0.58466 0.1825 0.0
C1228 C 0.92004 0.6004 0.36797 0.0
C1229 C 0.9211 0.5852 0.43167 0.0
H1230 H 0.91877 0.61228 0.20234 0.0
H1231 H 0.91968 0.6127 0.41213 0.0
S1232 S 0.92219 0.54088 0.307 0.0
N1233 N 0.92116 0.55342 0.19382 0.0
N1234 N 0.92227 0.55399 0.42034 0.0
C1235 C 0.92146 0.56957 0.36891 0.0
C1236 C 0.92085 0.56927 0.24525 0.0
C1237 C 0.50208 0.37823 0.23298 0.0
C1238 C 0.48794 0.36126 0.16899 0.0
C1239 C 0.50153 0.37856 0.35426 0.0
C1240 C 0.4867 0.36201 0.41721 0.0
H1241 H 0.51375 0.39148 0.18929 0.0
H1242 H 0.51277 0.39199 0.3988 0.0
S1243 S 0.44628 0.31361 0.29225 0.0
N1244 N 0.45873 0.32728 0.17913 0.0
N1245 N 0.45767 0.32789 0.40574 0.0
C1246 C 0.47247 0.34489 0.35444 0.0
C1247 C 0.4731 0.34451 0.23098 0.0
C1248 C 0.38393 0.91311 0.67144 0.0
C1249 C 0.36923 0.91517 0.60873 0.0
C1250 C 0.38358 0.91224 0.79276 0.0
C1251 C 0.36841 0.91322 0.85695 0.0
H1252 H 0.39581 0.91204 0.62672 0.0
H1253 H 0.39523 0.91059 0.83634 0.0
S1254 S 0.3268 0.91956 0.73602 0.0
N1255 N 0.33932 0.91884 0.62188 0.0
N1256 N 0.33869 0.9171 0.84843 0.0
C1257 C 0.35373 0.9155 0.79566 0.0
C1258 C 0.35414 0.91652 0.67223 0.0
C1259 C 0.15873 0.46555 0.79696 0.0
C1260 C 0.15717 0.48039 0.86097 0.0
C1261 C 0.15809 0.46525 0.67542 0.0
C1262 C 0.15583 0.47977 0.61196 0.0
H1263 H 0.16046 0.45398 0.84082 0.0
H1264 H 0.15944 0.45349 0.63111 0.0
S1265 S 0.15084 0.5219 0.73719 0.0
N1266 N 0.15314 0.51007 0.85012 0.0
N1267 N 0.15187 0.50942 0.62372 0.0
C1268 C 0.15418 0.49468 0.67489 0.0
C1269 C 0.15488 0.49502 0.79848 0.0
C1270 C 0.60353 0.71684 0.79357 0.0
C1271 C 0.58924 0.69992 0.8564 0.0
C1272 C 0.60416 0.71663 0.67224 0.0
C1273 C 0.59042 0.69948 0.60807 0.0
H1274 H 0.61441 0.73051 0.8383 0.0
H1275 H 0.61532 0.73014 0.62864 0.0
S1276 S 0.5504 0.65078 0.73001 0.0
N1277 N 0.56126 0.66518 0.84387 0.0
N1278 N 0.56246 0.66484 0.61729 0.0
C1279 C 0.57618 0.68235 0.66969 0.0
C1280 C 0.57557 0.68254 0.79317 0.0
C1281 C 0.39115 0.48435 0.7126 0.0
C1282 C 0.37416 0.48161 0.77581 0.0
C1283 C 0.39154 0.48509 0.59111 0.0
C1284 C 0.37495 0.48314 0.52687 0.0
H1285 H 0.40442 0.48606 0.75709 0.0
H1286 H 0.40502 0.48724 0.54751 0.0
S1287 S 0.32646 0.47529 0.64981 0.0
N1288 N 0.34011 0.47664 0.76352 0.0
N1289 N 0.34081 0.47808 0.53711 0.0
C1290 C 0.35779 0.48029 0.58904 0.0
C1291 C 0.3574 0.4795 0.71262 0.0
C1292 C 0.58601 0.90123 0.69307 0.0
C1293 C 0.58564 0.91674 0.75699 0.0
C1294 C 0.58558 0.90105 0.57154 0.0
C1295 C 0.58475 0.91637 0.50783 0.0
H1296 H 0.58662 0.88904 0.737 0.0
H1297 H 0.58594 0.88874 0.52744 0.0
S1298 S 0.58376 0.96072 0.63278 0.0
N1299 N 0.58457 0.94806 0.74596 0.0
N1300 N 0.58371 0.94766 0.5193 0.0
C1301 C 0.58436 0.93199 0.57065 0.0
C1302 C 0.58482 0.93219 0.69437 0.0
C1303 C 0.13829 0.67948 0.57455 0.0
C1304 C 0.153 0.69619 0.51191 0.0
C1305 C 0.13771 0.67968 0.6959 0.0
C1306 C 0.15189 0.69655 0.76025 0.0
H1307 H 0.12707 0.66606 0.52975 0.0
H1308 H 0.12618 0.66633 0.73945 0.0
S1309 S 0.19319 0.74458 0.63877 0.0
N1310 N 0.18192 0.7304 0.52477 0.0
N1311 N 0.18077 0.7307 0.75133 0.0
C1312 C 0.16656 0.71345 0.69877 0.0
C1313 C 0.16713 0.71329 0.5753 0.0
loop_
_geom_bond_atom_site_label_1
_geom_bond_atom_site_label_2
_geom_bond_distance
_geom_bond_site_symmetry_2
_ccdc_geom_bond_type
Nd0 C2 2.836 . S
Nd0 O20 2.500 . S
Nd0 O21 2.492 . S
Nd0 O22 2.487 . S
Nd0 O23 2.682 . S
Nd0 O24 2.410 . S
Nd0 O29 2.414 . S
Nd0 O31 2.424 . S
Nd1 C11 2.836 1_455 S
Nd1 O23 2.414 . S
Nd1 O25 2.424 . S
Nd1 O26 2.500 1_455 S
Nd1 O27 2.492 1_455 S
Nd1 O28 2.487 . S
Nd1 O29 2.682 . S
Nd1 O30 2.410 . S
C2 Nd0 2.836 . S
C2 C3 1.498 . S
C2 O20 1.258 . S
C2 O21 1.239 . S
C3 C2 1.498 . S
C3 C4 1.366 . S
C3 C8 1.407 . S
C4 C3 1.366 . S
C4 C5 1.392 . S
C4 H32 0.930 . S
C5 C4 1.392 . S
C5 C6 1.398 . S
C5 H33 0.929 . S
C6 C5 1.398 . S
C6 C7 1.352 . S
C7 C6 1.352 . S
C7 C8 1.384 . S
C7 H34 0.930 . S
C8 C3 1.407 . S
C8 C7 1.384 . S
C8 H35 0.929 . S
C9 O22 1.273 . S
C9 O23 1.265 . S
C10 O24 1.251 . S
C10 O25 1.268 . S
C11 Nd1 2.836 1_655 S
C11 C12 1.498 . S
C11 O26 1.258 . S
C11 O27 1.239 . S
C12 C11 1.498 . S
C12 C13 1.366 . S
C12 C17 1.407 . S
C13 C12 1.366 . S
C13 C14 1.392 . S
C13 H36 0.930 . S
C14 C13 1.392 . S
C14 C15 1.398 . S
C14 H37 0.929 1_556 S
C15 C14 1.398 . S
C15 C16 1.352 . S
C16 C15 1.352 . S
C16 C17 1.384 . S
C16 H38 0.930 . S
C17 C12 1.407 . S
C17 C16 1.384 . S
C17 H39 0.929 . S
C18 O28 1.241 . S
C18 O29 1.273 . S
C19 O30 1.251 . S
C19 O31 1.268 . S
O20 Nd0 2.500 . S
O20 C2 1.258 . S
O21 Nd0 2.492 . S
O21 C2 1.239 . S
O22 Nd0 2.487 . S
O22 C9 1.273 . S
O23 Nd0 2.682 . S
O23 Nd1 2.414 . S
O23 C9 1.265 . S
O24 Nd0 2.410 . S
O24 C10 1.251 . S
O25 Nd1 2.424 . S
O25 C10 1.268 . S
O26 Nd1 2.500 1_655 S
O26 C11 1.258 . S
O27 Nd1 2.492 1_655 S
O27 C11 1.239 . S
O28 Nd1 2.487 . S
O28 C18 1.241 . S
O29 Nd0 2.414 . S
O29 Nd1 2.682 . S
O29 C18 1.273 . S
O30 Nd1 2.410 . S
O30 C19 1.251 . S
O31 Nd0 2.424 . S
O31 C19 1.268 . S
H32 C4 0.930 . S
H33 C5 0.929 . S
H34 C7 0.930 . S
H35 C8 0.929 . S
H36 C13 0.930 . S
H37 C14 0.929 1_554 S
H38 C16 0.930 . S
H39 C17 0.929 . S
Nd40 C42 2.836 . S
Nd40 O60 2.500 . S
Nd40 O61 2.492 . S
Nd40 O62 2.487 . S
Nd40 O63 2.682 . S
Nd40 O64 2.410 . S
Nd40 O69 2.414 . S
Nd40 O71 2.424 . S
Nd41 C51 2.836 . S
Nd41 O63 2.414 . S
Nd41 O65 2.424 . S
Nd41 O66 2.500 . S
Nd41 O67 2.492 . S
Nd41 O68 2.487 . S
Nd41 O69 2.682 . S
Nd41 O70 2.410 . S
C42 Nd40 2.836 . S
C42 C43 1.498 . S
C42 O60 1.258 . S
C42 O61 1.239 . S
C43 C42 1.498 . S
C43 C44 1.366 . S
C43 C48 1.407 . S
C44 C43 1.366 . S
C44 C45 1.392 . S
C44 H72 0.930 . S
C45 C44 1.392 . S
C45 C46 1.398 . S
C45 H73 0.929 . S
C46 C45 1.398 . S
C46 C47 1.352 . S
C47 C46 1.352 . S
C47 C48 1.384 . S
C47 H74 0.930 . S
C48 C43 1.407 . S
C48 C47 1.384 . S
C48 H75 0.929 . S
C49 O62 1.241 . S
C49 O63 1.273 . S
C50 O64 1.251 . S
C50 O65 1.268 . S
C51 Nd41 2.836 . S
C51 C52 1.498 . S
C51 O66 1.258 . S
C51 O67 1.239 . S
C52 C51 1.498 . S
C52 C53 1.366 . S
C52 C57 1.407 . S
C53 C52 1.366 . S
C53 C54 1.392 . S
C53 H76 0.930 . S
C54 C53 1.392 . S
C54 C55 1.398 . S
C54 H77 0.929 1_556 S
C55 C54 1.398 . S
C55 C56 1.352 . S
C56 C55 1.352 . S
C56 C57 1.384 . S
C56 H78 0.930 . S
C57 C52 1.407 . S
C57 C56 1.384 . S
C57 H79 0.929 . S
C58 O68 1.241 . S
C58 O69 1.273 . S
C59 O70 1.251 . S
C59 O71 1.268 . S
O60 Nd40 2.500 . S
O60 C42 1.258 . S
O61 Nd40 2.492 . S
O61 C42 1.239 . S
O62 Nd40 2.487 . S
O62 C49 1.241 . S
O63 Nd40 2.682 . S
O63 Nd41 2.414 . S
O63 C49 1.273 . S
O64 Nd40 2.410 . S
O64 C50 1.251 . S
O65 Nd41 2.424 . S
O65 C50 1.268 . S
O66 Nd41 2.500 . S
O66 C51 1.258 . S
O67 Nd41 2.492 . S
O67 C51 1.239 . S
O68 Nd41 2.487 . S
O68 C58 1.241 . S
O69 Nd40 2.414 . S
O69 Nd41 2.682 . S
O69 C58 1.273 . S
O70 Nd41 2.410 . S
O70 C59 1.251 . S
O71 Nd40 2.424 . S
O71 C59 1.268 . S
H72 C44 0.930 . S
H73 C45 0.929 . S
H74 C47 0.930 . S
H75 C48 0.929 . S
H76 C53 0.930 . S
H77 C54 0.929 1_554 S
H78 C56 0.930 . S
H79 C57 0.929 . S
Nd80 C82 2.836 1_545 S
Nd80 O100 2.500 1_545 S
Nd80 O101 2.492 1_545 S
Nd80 O102 2.487 . S
Nd80 O103 2.682 . S
Nd80 O104 2.410 . S
Nd80 O109 2.433 . S
Nd80 O111 2.424 . S
Nd81 C91 2.836 . S
Nd81 O103 2.414 . S
Nd81 O105 2.424 . S
Nd81 O106 2.500 . S
Nd81 O107 2.492 . S
Nd81 O108 2.487 . S
Nd81 O109 2.708 . S
Nd81 O110 2.410 . S
C82 Nd80 2.836 1_565 S
C82 C83 1.498 . S
C82 O100 1.258 . S
C82 O101 1.239 . S
C83 C82 1.498 . S
C83 C84 1.366 . S
C83 C88 1.407 . S
C84 C83 1.366 . S
C84 C85 1.392 . S
C84 H112 0.930 . S
C85 C84 1.392 . S
C85 C86 1.398 . S
C85 H113 0.929 . S
C86 C85 1.398 . S
C86 C87 1.352 . S
C87 C86 1.352 . S
C87 C88 1.384 . S
C87 H114 0.930 . S
C88 C83 1.407 . S
C88 C87 1.384 . S
C88 H115 0.929 . S
C89 O102 1.241 . S
C89 O103 1.273 . S
C90 O104 1.251 . S
C90 O105 1.268 . S
C91 Nd81 2.836 . S
C91 C92 1.498 . S
C91 O106 1.258 . S
C91 O107 1.239 . S
C92 C91 1.498 . S
C92 C93 1.366 . S
C92 C97 1.407 . S
C93 C92 1.366 . S
C93 C94 1.392 . S
C93 H116 0.930 . S
C94 C93 1.392 . S
C94 C95 1.398 . S
C94 H117 0.929 1_556 S
C95 C94 1.398 . S
C95 C96 1.352 . S
C96 C95 1.352 . S
C96 C97 1.384 . S
C96 H118 0.930 . S
C97 C92 1.407 . S
C97 C96 1.384 . S
C97 H119 0.929 . S
C98 O108 1.241 1_565 S
C98 O109 1.247 1_565 S
C99 O110 1.251 . S
C99 O111 1.268 . S
O100 Nd80 2.500 1_565 S
O100 C82 1.258 . S
O101 Nd80 2.492 1_565 S
O101 C82 1.239 . S
O102 Nd80 2.487 . S
O102 C89 1.241 . S
O103 Nd80 2.682 . S
O103 Nd81 2.414 . S
O103 C89 1.273 . S
O104 Nd80 2.410 . S
O104 C90 1.251 . S
O105 Nd81 2.424 . S
O105 C90 1.268 . S
O106 Nd81 2.500 . S
O106 C91 1.258 . S
O107 Nd81 2.492 . S
O107 C91 1.239 . S
O108 Nd81 2.487 . S
O108 C98 1.241 1_545 S
O109 Nd80 2.433 . S
O109 Nd81 2.708 . S
O109 C98 1.247 1_545 S
O110 Nd81 2.410 . S
O110 C99 1.251 . S
O111 Nd80 2.424 . S
O111 C99 1.268 . S
H112 C84 0.930 . S
H113 C85 0.929 . S
H114 C87 0.930 . S
H115 C88 0.929 . S
H116 C93 0.930 . S
H117 C94 0.929 1_554 S
H118 C96 0.930 . S
H119 C97 0.929 . S
Nd120 C122 2.836 . S
Nd120 O140 2.500 . S
Nd120 O141 2.492 . S
Nd120 O142 2.487 . S
Nd120 O143 2.682 . S
Nd120 O144 2.410 . S
Nd120 O149 2.414 . S
Nd120 O151 2.424 . S
Nd121 C131 2.836 1_455 S
Nd121 O143 2.414 . S
Nd121 O145 2.424 . S
Nd121 O146 2.500 1_455 S
Nd121 O147 2.492 1_455 S
Nd121 O148 2.487 . S
Nd121 O149 2.682 . S
Nd121 O150 2.410 . S
C122 Nd120 2.836 . S
C122 C123 1.498 . S
C122 O140 1.258 . S
C122 O141 1.239 . S
C123 C122 1.498 . S
C123 C124 1.366 . S
C123 C128 1.407 . S
C124 C123 1.366 . S
C124 C125 1.392 . S
C124 H152 0.930 . S
C125 C124 1.392 . S
C125 C126 1.398 . S
C125 H153 0.929 1_554 S
C126 C125 1.398 . S
C126 C127 1.352 . S
C127 C126 1.352 . S
C127 C128 1.384 . S
C127 H154 0.930 . S
C128 C123 1.407 . S
C128 C127 1.384 . S
C128 H155 0.929 . S
C129 O142 1.241 1_655 S
C129 O143 1.273 1_655 S
C130 O144 1.251 . S
C130 O145 1.268 . S
C131 Nd121 2.836 1_655 S
C131 C132 1.498 . S
C131 O146 1.258 . S
C131 O147 1.239 . S
C132 C131 1.498 . S
C132 C133 1.366 . S
C132 C137 1.407 . S
C133 C132 1.366 . S
C133 C134 1.392 . S
C133 H156 0.930 . S
C134 C133 1.392 . S
C134 C135 1.398 . S
C134 H157 0.929 . S
C135 C134 1.398 . S
C135 C136 1.352 . S
C136 C135 1.352 . S
C136 C137 1.384 . S
C136 H158 0.930 . S
C137 C132 1.407 . S
C137 C136 1.384 . S
C137 H159 0.929 . S
C138 O148 1.241 . S
C138 O149 1.273 . S
C139 O150 1.251 . S
C139 O151 1.268 . S
O140 Nd120 2.500 . S
O140 C122 1.258 . S
O141 Nd120 2.492 . S
O141 C122 1.239 . S
O142 Nd120 2.487 . S
O142 C129 1.241 1_455 S
O143 Nd120 2.682 . S
O143 Nd121 2.414 . S
O143 C129 1.273 1_455 S
O144 Nd120 2.410 . S
O144 C130 1.251 . S
O145 Nd121 2.424 . S
O145 C130 1.268 . S
O146 Nd121 2.500 1_655 S
O146 C131 1.258 . S
O147 Nd121 2.492 1_655 S
O147 C131 1.239 . S
O148 Nd121 2.487 . S
O148 C138 1.241 . S
O149 Nd120 2.414 . S
O149 Nd121 2.682 . S
O149 C138 1.273 . S
O150 Nd121 2.410 . S
O150 C139 1.251 . S
O151 Nd120 2.424 . S
O151 C139 1.268 . S
H152 C124 0.930 . S
H153 C125 0.929 1_556 S
H154 C127 0.930 . S
H155 C128 0.929 . S
H156 C133 0.930 . S
H157 C134 0.929 . S
H158 C136 0.930 . S
H159 C137 0.929 . S
Nd160 C162 2.836 . S
Nd160 O180 2.500 . S
Nd160 O181 2.492 . S
Nd160 O182 2.487 . S
Nd160 O183 2.682 . S
Nd160 O184 2.410 . S
Nd160 O189 2.414 . S
Nd160 O191 2.424 . S
Nd161 C171 2.836 . S
Nd161 O183 2.414 . S
Nd161 O185 2.424 . S
Nd161 O186 2.500 . S
Nd161 O187 2.492 . S
Nd161 O188 2.487 . S
Nd161 O189 2.682 . S
Nd161 O190 2.410 . S
C162 Nd160 2.836 . S
C162 C163 1.498 . S
C162 O180 1.258 . S
C162 O181 1.239 . S
C163 C162 1.498 . S
C163 C164 1.366 . S
C163 C168 1.407 . S
C164 C163 1.366 . S
C164 C165 1.392 . S
C164 H192 0.930 . S
C165 C164 1.392 . S
C165 C166 1.398 . S
C165 H193 0.929 1_554 S
C166 C165 1.398 . S
C166 C167 1.352 . S
C167 C166 1.352 . S
C167 C168 1.384 . S
C167 H194 0.930 . S
C168 C163 1.407 . S
C168 C167 1.384 . S
C168 H195 0.929 . S
C169 O182 1.241 . S
C169 O183 1.273 . S
C170 O184 1.251 . S
C170 O185 1.268 . S
C171 Nd161 2.836 . S
C171 C172 1.498 . S
C171 O186 1.258 . S
C171 O187 1.239 . S
C172 C171 1.498 . S
C172 C173 1.366 . S
C172 C177 1.407 . S
C173 C172 1.366 . S
C173 C174 1.392 . S
C173 H196 0.930 . S
C174 C173 1.392 . S
C174 C175 1.398 . S
C174 H197 0.929 . S
C175 C174 1.398 . S
C175 C176 1.352 . S
C176 C175 1.352 . S
C176 C177 1.384 . S
C176 H198 0.930 . S
C177 C172 1.407 . S
C177 C176 1.384 . S
C177 H199 0.929 . S
C178 O188 1.241 . S
C178 O189 1.273 . S
C179 O190 1.251 . S
C179 O191 1.268 . S
O180 Nd160 2.500 . S
O180 C162 1.258 . S
O181 Nd160 2.492 . S
O181 C162 1.239 . S
O182 Nd160 2.487 . S
O182 C169 1.241 . S
O183 Nd160 2.682 . S
O183 Nd161 2.414 . S
O183 C169 1.273 . S
O184 Nd160 2.410 . S
O184 C170 1.251 . S
O185 Nd161 2.424 . S
O185 C170 1.268 . S
O186 Nd161 2.500 . S
O186 C171 1.258 . S
O187 Nd161 2.492 . S
O187 C171 1.239 . S
O188 Nd161 2.487 . S
O188 C178 1.241 . S
O189 Nd160 2.414 . S
O189 Nd161 2.682 . S
O189 C178 1.273 . S
O190 Nd161 2.410 . S
O190 C179 1.251 . S
O191 Nd160 2.424 . S
O191 C179 1.268 . S
H192 C164 0.930 . S
H193 C165 0.929 1_556 S
H194 C167 0.930 . S
H195 C168 0.929 . S
H196 C173 0.930 . S
H197 C174 0.929 . S
H198 C176 0.930 . S
H199 C177 0.929 . S
Nd200 C202 2.836 1_545 S
Nd200 O220 2.500 1_545 S
Nd200 O221 2.492 1_545 S
Nd200 O222 2.487 . S
Nd200 O223 2.682 . S
Nd200 O224 2.410 . S
Nd200 O229 2.414 . S
Nd200 O231 2.424 . S
Nd201 C211 2.836 . S
Nd201 O223 2.414 . S
Nd201 O225 2.424 . S
Nd201 O226 2.500 . S
Nd201 O227 2.492 . S
Nd201 O228 2.487 . S
Nd201 O229 2.682 . S
Nd201 O230 2.410 . S
C202 Nd200 2.836 1_565 S
C202 C203 1.498 . S
C202 O220 1.258 . S
C202 O221 1.239 . S
C203 C202 1.498 . S
C203 C204 1.366 . S
C203 C208 1.407 . S
C204 C203 1.366 . S
C204 C205 1.392 . S
C204 H232 0.930 . S
C205 C204 1.392 . S
C205 C206 1.398 . S
C205 H233 0.929 1_554 S
C206 C205 1.398 . S
C206 C207 1.352 . S
C207 C206 1.352 . S
C207 C208 1.384 . S
C207 H234 0.930 . S
C208 C203 1.407 . S
C208 C207 1.384 . S
C208 H235 0.929 . S
C209 O222 1.241 . S
C209 O223 1.273 . S
C210 O224 1.251 . S
C210 O225 1.268 . S
C211 Nd201 2.836 . S
C211 C212 1.498 . S
C211 O226 1.258 . S
C211 O227 1.239 . S
C212 C211 1.498 . S
C212 C213 1.366 . S
C212 C217 1.407 . S
C213 C212 1.366 . S
C213 C214 1.392 . S
C213 H236 0.930 . S
C214 C213 1.392 . S
C214 C215 1.398 . S
C214 H237 0.929 . S
C215 C214 1.398 . S
C215 C216 1.352 . S
C216 C215 1.352 . S
C216 C217 1.384 . S
C216 H238 0.930 . S
C217 C212 1.407 . S
C217 C216 1.384 . S
C217 H239 0.929 . S
C218 O228 1.230 1_565 S
C218 O229 1.238 1_565 S
C219 O230 1.251 . S
C219 O231 1.268 . S
O220 Nd200 2.500 1_565 S
O220 C202 1.258 . S
O221 Nd200 2.492 1_565 S
O221 C202 1.239 . S
O222 Nd200 2.487 . S
O222 C209 1.241 . S
O223 Nd200 2.682 . S
O223 Nd201 2.414 . S
O223 C209 1.273 . S
O224 Nd200 2.410 . S
O224 C210 1.251 . S
O225 Nd201 2.424 . S
O225 C210 1.268 . S
O226 Nd201 2.500 . S
O226 C211 1.258 . S
O227 Nd201 2.492 . S
O227 C211 1.239 . S
O228 Nd201 2.487 . S
O228 C218 1.230 1_545 S
O229 Nd200 2.414 . S
O229 Nd201 2.682 . S
O229 C218 1.238 1_545 S
O230 Nd201 2.410 . S
O230 C219 1.251 . S
O231 Nd200 2.424 . S
O231 C219 1.268 . S
H232 C204 0.930 . S
H233 C205 0.929 1_556 S
H234 C207 0.930 . S
H235 C208 0.929 . S
H236 C213 0.930 . S
H237 C214 0.929 . S
H238 C216 0.930 . S
H239 C217 0.929 . S
Nd240 C242 2.836 1_554 S
Nd240 O260 2.500 1_554 S
Nd240 O261 2.492 1_554 S
Nd240 O262 2.487 . S
Nd240 O263 2.682 . S
Nd240 O264 2.410 1_554 S
Nd240 O269 2.414 1_554 S
Nd240 O271 2.424 . S
Nd241 C251 2.836 1_556 S
Nd241 O263 2.414 1_556 S
Nd241 O265 2.424 . S
Nd241 O266 2.500 1_556 S
Nd241 O267 2.492 1_556 S
Nd241 O268 2.487 . S
Nd241 O269 2.682 . S
Nd241 O270 2.410 1_556 S
C242 Nd240 2.836 1_556 S
C242 C243 1.498 . S
C242 O260 1.258 . S
C242 O261 1.239 . S
C243 C242 1.498 . S
C243 C244 1.366 . S
C243 C248 1.407 . S
C244 C243 1.366 . S
C244 C245 1.392 . S
C244 H272 0.930 . S
C245 C244 1.392 . S
C245 C246 1.398 . S
C245 H273 0.929 . S
C246 C245 1.398 . S
C246 C247 1.352 . S
C247 C246 1.352 . S
C247 C248 1.384 . S
C247 H274 0.930 . S
C248 C243 1.407 . S
C248 C247 1.384 . S
C248 H275 0.929 . S
C249 O262 1.241 . S
C249 O263 1.273 . S
C250 O264 1.251 . S
C250 O265 1.268 . S
C251 Nd241 2.836 1_554 S
C251 C252 1.498 . S
C251 O266 1.258 . S
C251 O267 1.239 . S
C252 C251 1.498 . S
C252 C253 1.366 . S
C252 C257 1.407 . S
C253 C252 1.366 . S
C253 C254 1.392 . S
C253 H276 0.930 . S
C254 C253 1.392 . S
C254 C255 1.398 . S
C254 H277 0.929 . S
C255 C254 1.398 . S
C255 C256 1.352 . S
C256 C255 1.352 . S
C256 C257 1.384 . S
C256 H278 0.930 . S
C257 C252 1.407 . S
C257 C256 1.384 . S
C257 H279 0.929 . S
C258 O268 1.241 . S
C258 O269 1.273 . S
C259 O270 1.251 . S
C259 O271 1.268 . S
O260 Nd240 2.500 1_556 S
O260 C242 1.258 . S
O261 Nd240 2.492 1_556 S
O261 C242 1.239 . S
O262 Nd240 2.487 . S
O262 C249 1.241 . S
O263 Nd240 2.682 . S
O263 Nd241 2.414 1_554 S
O263 C249 1.273 . S
O264 Nd240 2.410 1_556 S
O264 C250 1.251 . S
O265 Nd241 2.424 . S
O265 C250 1.268 . S
O266 Nd241 2.500 1_554 S
O266 C251 1.258 . S
O267 Nd241 2.492 1_554 S
O267 C251 1.239 . S
O268 Nd241 2.487 . S
O268 C258 1.241 . S
O269 Nd240 2.414 1_556 S
O269 Nd241 2.682 . S
O269 C258 1.273 . S
O270 Nd241 2.410 1_554 S
O270 C259 1.251 . S
O271 Nd240 2.424 . S
O271 C259 1.268 . S
H272 C244 0.930 . S
H273 C245 0.929 . S
H274 C247 0.930 . S
H275 C248 0.929 . S
H276 C253 0.930 . S
H277 C254 0.929 . S
H278 C256 0.930 . S
H279 C257 0.929 . S
Nd280 C282 2.836 1_554 S
Nd280 O300 2.500 1_554 S
Nd280 O301 2.492 1_554 S
Nd280 O302 2.487 . S
Nd280 O303 2.682 . S
Nd280 O304 2.410 1_554 S
Nd280 O309 2.414 1_554 S
Nd280 O311 2.424 . S
Nd281 C291 2.836 1_556 S
Nd281 O303 2.414 1_556 S
Nd281 O305 2.424 . S
Nd281 O306 2.500 1_556 S
Nd281 O307 2.492 1_556 S
Nd281 O308 2.487 . S
Nd281 O309 2.682 . S
Nd281 O310 2.410 1_556 S
C282 Nd280 2.836 1_556 S
C282 C283 1.498 . S
C282 O300 1.258 . S
C282 O301 1.239 . S
C283 C282 1.498 . S
C283 C284 1.366 . S
C283 C288 1.407 . S
C284 C283 1.366 . S
C284 C285 1.392 . S
C284 H312 0.930 . S
C285 C284 1.392 . S
C285 C286 1.398 . S
C285 H313 0.929 . S
C286 C285 1.398 . S
C286 C287 1.352 . S
C287 C286 1.352 . S
C287 C288 1.384 . S
C287 H314 0.930 . S
C288 C283 1.407 . S
C288 C287 1.384 . S
C288 H315 0.929 . S
C289 O302 1.241 . S
C289 O303 1.273 . S
C290 O304 1.251 . S
C290 O305 1.268 . S
C291 Nd281 2.836 1_554 S
C291 C292 1.498 . S
C291 O306 1.258 . S
C291 O307 1.239 . S
C292 C291 1.498 . S
C292 C293 1.366 . S
C292 C297 1.407 . S
C293 C292 1.366 . S
C293 C294 1.392 . S
C293 H316 0.930 . S
C294 C293 1.392 . S
C294 C295 1.398 . S
C294 H317 0.929 . S
C295 C294 1.398 . S
C295 C296 1.352 . S
C296 C295 1.352 . S
C296 C297 1.384 . S
C296 H318 0.930 . S
C297 C292 1.407 . S
C297 C296 1.384 . S
C297 H319 0.929 . S
C298 O308 1.241 . S
C298 O309 1.273 . S
C299 O310 1.251 . S
C299 O311 1.268 . S
O300 Nd280 2.500 1_556 S
O300 C282 1.258 . S
O301 Nd280 2.492 1_556 S
O301 C282 1.239 . S
O302 Nd280 2.487 . S
O302 C289 1.241 . S
O303 Nd280 2.682 . S
O303 Nd281 2.414 1_554 S
O303 C289 1.273 . S
O304 Nd280 2.410 1_556 S
O304 C290 1.251 . S
O305 Nd281 2.424 . S
O305 C290 1.268 . S
O306 Nd281 2.500 1_554 S
O306 C291 1.258 . S
O307 Nd281 2.492 1_554 S
O307 C291 1.239 . S
O308 Nd281 2.487 . S
O308 C298 1.241 . S
O309 Nd280 2.414 1_556 S
O309 Nd281 2.682 . S
O309 C298 1.273 . S
O310 Nd281 2.410 1_554 S
O310 C299 1.251 . S
O311 Nd280 2.424 . S
O311 C299 1.268 . S
H312 C284 0.930 . S
H313 C285 0.929 . S
H314 C287 0.930 . S
H315 C288 0.929 . S
H316 C293 0.930 . S
H317 C294 0.929 . S
H318 C296 0.930 . S
H319 C297 0.929 . S
Nd320 C322 2.836 1_554 S
Nd320 O340 2.500 1_554 S
Nd320 O341 2.492 1_554 S
Nd320 O342 2.487 . S
Nd320 O343 2.682 . S
Nd320 O344 2.410 1_554 S
Nd320 O349 2.414 1_554 S
Nd320 O351 2.424 . S
Nd321 C331 2.836 1_556 S
Nd321 O343 2.414 1_556 S
Nd321 O345 2.424 . S
Nd321 O346 2.500 1_556 S
Nd321 O347 2.492 1_556 S
Nd321 O348 2.487 . S
Nd321 O349 2.682 . S
Nd321 O350 2.410 1_556 S
C322 Nd320 2.836 1_556 S
C322 C323 1.498 . S
C322 O340 1.258 . S
C322 O341 1.239 . S
C323 C322 1.498 . S
C323 C324 1.366 . S
C323 C328 1.407 . S
C324 C323 1.366 . S
C324 C325 1.392 . S
C324 H352 0.930 . S
C325 C324 1.392 . S
C325 C326 1.398 . S
C325 H353 0.929 . S
C326 C325 1.398 . S
C326 C327 1.352 . S
C327 C326 1.352 . S
C327 C328 1.384 . S
C327 H354 0.930 . S
C328 C323 1.407 . S
C328 C327 1.384 . S
C328 H355 0.929 . S
C329 O342 1.241 . S
C329 O343 1.273 . S
C330 O344 1.251 . S
C330 O345 1.268 . S
C331 Nd321 2.836 1_554 S
C331 C332 1.498 . S
C331 O346 1.258 . S
C331 O347 1.239 . S
C332 C331 1.498 . S
C332 C333 1.366 . S
C332 C337 1.407 . S
C333 C332 1.366 . S
C333 C334 1.392 . S
C333 H356 0.930 . S
C334 C333 1.392 . S
C334 C335 1.398 1_655 S
C334 H357 0.929 . S
C335 C334 1.398 1_455 S
C335 C336 1.352 . S
C336 C335 1.352 . S
C336 C337 1.384 1_455 S
C336 H358 0.930 . S
C337 C332 1.407 . S
C337 C336 1.384 1_655 S
C337 H359 0.929 . S
C338 O348 1.241 . S
C338 O349 1.273 . S
C339 O350 1.251 . S
C339 O351 1.268 . S
O340 Nd320 2.500 1_556 S
O340 C322 1.258 . S
O341 Nd320 2.492 1_556 S
O341 C322 1.239 . S
O342 Nd320 2.487 . S
O342 C329 1.241 . S
O343 Nd320 2.682 . S
O343 Nd321 2.414 1_554 S
O343 C329 1.273 . S
O344 Nd320 2.410 1_556 S
O344 C330 1.251 . S
O345 Nd321 2.424 . S
O345 C330 1.268 . S
O346 Nd321 2.500 1_554 S
O346 C331 1.258 . S
O347 Nd321 2.492 1_554 S
O347 C331 1.239 . S
O348 Nd321 2.487 . S
O348 C338 1.241 . S
O349 Nd320 2.414 1_556 S
O349 Nd321 2.682 . S
O349 C338 1.273 . S
O350 Nd321 2.410 1_554 S
O350 C339 1.251 . S
O351 Nd320 2.424 . S
O351 C339 1.268 . S
H352 C324 0.930 . S
H353 C325 0.929 . S
H354 C327 0.930 . S
H355 C328 0.929 . S
H356 C333 0.930 . S
H357 C334 0.929 . S
H358 C336 0.930 . S
H359 C337 0.929 . S
Nd360 C362 2.836 . S
Nd360 O380 2.500 . S
Nd360 O381 2.492 . S
Nd360 O382 2.487 . S
Nd360 O383 2.682 . S
Nd360 O384 2.410 . S
Nd360 O389 2.414 . S
Nd360 O391 2.424 . S
Nd361 C371 2.836 . S
Nd361 O383 2.414 . S
Nd361 O385 2.424 . S
Nd361 O386 2.500 . S
Nd361 O387 2.492 . S
Nd361 O388 2.487 . S
Nd361 O389 2.682 . S
Nd361 O390 2.410 . S
C362 Nd360 2.836 . S
C362 C363 1.498 . S
C362 O380 1.258 . S
C362 O381 1.239 . S
C363 C362 1.498 . S
C363 C364 1.366 . S
C363 C368 1.407 . S
C364 C363 1.366 . S
C364 C365 1.392 . S
C364 H392 0.930 . S
C365 C364 1.392 . S
C365 C366 1.398 . S
C365 H393 0.929 . S
C366 C365 1.398 . S
C366 C367 1.352 . S
C367 C366 1.352 . S
C367 C368 1.384 . S
C367 H394 0.930 . S
C368 C363 1.407 . S
C368 C367 1.384 . S
C368 H395 0.929 . S
C369 O382 1.241 . S
C369 O383 1.273 . S
C370 O384 1.251 . S
C370 O385 1.268 . S
C371 Nd361 2.836 . S
C371 C372 1.498 . S
C371 O386 1.258 . S
C371 O387 1.239 . S
C372 C371 1.498 . S
C372 C373 1.366 . S
C372 C377 1.407 . S
C373 C372 1.366 . S
C373 C374 1.392 . S
C373 H396 0.930 . S
C374 C373 1.392 . S
C374 C375 1.398 . S
C374 H397 0.929 . S
C375 C374 1.398 . S
C375 C376 1.352 . S
C376 C375 1.352 . S
C376 C377 1.384 . S
C376 H398 0.930 . S
C377 C372 1.407 . S
C377 C376 1.384 . S
C377 H399 0.929 . S
C378 O388 1.241 . S
C378 O389 1.273 . S
C379 O390 1.251 . S
C379 O391 1.268 . S
O380 Nd360 2.500 . S
O380 C362 1.258 . S
O381 Nd360 2.492 . S
O381 C362 1.239 . S
O382 Nd360 2.487 . S
O382 C369 1.241 . S
O383 Nd360 2.682 . S
O383 Nd361 2.414 . S
O383 C369 1.273 . S
O384 Nd360 2.410 . S
O384 C370 1.251 . S
O385 Nd361 2.424 . S
O385 C370 1.268 . S
O386 Nd361 2.500 . S
O386 C371 1.258 . S
O387 Nd361 2.492 . S
O387 C371 1.239 . S
O388 Nd361 2.487 . S
O388 C378 1.241 . S
O389 Nd360 2.414 . S
O389 Nd361 2.682 . S
O389 C378 1.273 . S
O390 Nd361 2.410 . S
O390 C379 1.251 . S
O391 Nd360 2.424 . S
O391 C379 1.268 . S
H392 C364 0.930 . S
H393 C365 0.929 . S
H394 C367 0.930 . S
H395 C368 0.929 . S
H396 C373 0.930 . S
H397 C374 0.929 . S
H398 C376 0.930 . S
H399 C377 0.929 . S
Nd400 C402 2.836 . S
Nd400 O420 2.500 . S
Nd400 O421 2.492 . S
Nd400 O422 2.487 . S
Nd400 O423 2.682 . S
Nd400 O424 2.410 . S
Nd400 O429 2.414 . S
Nd400 O431 2.424 . S
Nd401 C411 2.836 . S
Nd401 O423 2.414 . S
Nd401 O425 2.424 . S
Nd401 O426 2.500 . S
Nd401 O427 2.492 . S
Nd401 O428 2.487 . S
Nd401 O429 2.682 . S
Nd401 O430 2.410 . S
C402 Nd400 2.836 . S
C402 C403 1.498 . S
C402 O420 1.258 . S
C402 O421 1.239 . S
C403 C402 1.498 . S
C403 C404 1.366 . S
C403 C408 1.407 . S
C404 C403 1.366 . S
C404 C405 1.392 . S
C404 H432 0.930 . S
C405 C404 1.392 . S
C405 C406 1.398 . S
C405 H433 0.929 . S
C406 C405 1.398 . S
C406 C407 1.352 . S
C407 C406 1.352 . S
C407 C408 1.384 . S
C407 H434 0.930 . S
C408 C403 1.407 . S
C408 C407 1.384 . S
C408 H435 0.929 . S
C409 O422 1.241 . S
C409 O423 1.273 . S
C410 O424 1.251 . S
C410 O425 1.268 . S
C411 Nd401 2.836 . S
C411 C412 1.498 . S
C411 O426 1.258 . S
C411 O427 1.239 . S
C412 C411 1.498 . S
C412 C413 1.366 . S
C412 C417 1.407 . S
C413 C412 1.366 . S
C413 C414 1.392 . S
C413 H436 0.930 . S
C414 C413 1.392 . S
C414 C415 1.398 . S
C414 H437 0.929 . S
C415 C414 1.398 . S
C415 C416 1.352 . S
C416 C415 1.352 . S
C416 C417 1.384 . S
C416 H438 0.930 . S
C417 C412 1.407 . S
C417 C416 1.384 . S
C417 H439 0.929 . S
C418 O428 1.241 . S
C418 O429 1.273 . S
C419 O430 1.251 . S
C419 O431 1.268 . S
O420 Nd400 2.500 . S
O420 C402 1.258 . S
O421 Nd400 2.492 . S
O421 C402 1.239 . S
O422 Nd400 2.487 . S
O422 C409 1.241 . S
O423 Nd400 2.682 . S
O423 Nd401 2.414 . S
O423 C409 1.273 . S
O424 Nd400 2.410 . S
O424 C410 1.251 . S
O425 Nd401 2.424 . S
O425 C410 1.268 . S
O426 Nd401 2.500 . S
O426 C411 1.258 . S
O427 Nd401 2.492 . S
O427 C411 1.239 . S
O428 Nd401 2.487 . S
O428 C418 1.241 . S
O429 Nd400 2.414 . S
O429 Nd401 2.682 . S
O429 C418 1.273 . S
O430 Nd401 2.410 . S
O430 C419 1.251 . S
O431 Nd400 2.424 . S
O431 C419 1.268 . S
H432 C404 0.930 . S
H433 C405 0.929 . S
H434 C407 0.930 . S
H435 C408 0.929 . S
H436 C413 0.930 . S
H437 C414 0.929 . S
H438 C416 0.930 . S
H439 C417 0.929 . S
Nd440 C442 2.836 . S
Nd440 O460 2.500 . S
Nd440 O461 2.492 . S
Nd440 O462 2.487 . S
Nd440 O463 2.682 . S
Nd440 O464 2.410 . S
Nd440 O469 2.414 . S
Nd440 O471 2.424 . S
Nd441 C451 2.836 . S
Nd441 O463 2.414 . S
Nd441 O465 2.424 . S
Nd441 O466 2.500 . S
Nd441 O467 2.492 . S
Nd441 O468 2.487 . S
Nd441 O469 2.682 . S
Nd441 O470 2.410 . S
C442 Nd440 2.836 . S
C442 C443 1.498 . S
C442 O460 1.258 . S
C442 O461 1.239 . S
C443 C442 1.498 . S
C443 C444 1.366 . S
C443 C448 1.407 . S
C444 C443 1.366 . S
C444 C445 1.392 . S
C444 H472 0.930 . S
C445 C444 1.392 . S
C445 C446 1.398 . S
C445 H473 0.929 . S
C446 C445 1.398 . S
C446 C447 1.352 . S
C447 C446 1.352 . S
C447 C448 1.384 . S
C447 H474 0.930 . S
C448 C443 1.407 . S
C448 C447 1.384 . S
C448 H475 0.929 . S
C449 O462 1.241 . S
C449 O463 1.273 . S
C450 O464 1.251 . S
C450 O465 1.268 . S
C451 Nd441 2.836 . S
C451 C452 1.498 . S
C451 O466 1.258 . S
C451 O467 1.239 . S
C452 C451 1.498 . S
C452 C453 1.366 . S
C452 C457 1.407 . S
C453 C452 1.366 . S
C453 C454 1.392 . S
C453 H476 0.930 . S
C454 C453 1.392 . S
C454 C455 1.398 . S
C454 H477 0.929 . S
C455 C454 1.398 . S
C455 C456 1.352 . S
C456 C455 1.352 . S
C456 C457 1.384 . S
C456 H478 0.930 . S
C457 C452 1.407 . S
C457 C456 1.384 . S
C457 H479 0.929 . S
C458 O468 1.241 . S
C458 O469 1.273 . S
C459 O470 1.251 . S
C459 O471 1.268 . S
O460 Nd440 2.500 . S
O460 C442 1.258 . S
O461 Nd440 2.492 . S
O461 C442 1.239 . S
O462 Nd440 2.487 . S
O462 C449 1.241 . S
O463 Nd440 2.682 . S
O463 Nd441 2.414 . S
O463 C449 1.273 . S
O464 Nd440 2.410 . S
O464 C450 1.251 . S
O465 Nd441 2.424 . S
O465 C450 1.268 . S
O466 Nd441 2.500 . S
O466 C451 1.258 . S
O467 Nd441 2.492 . S
O467 C451 1.239 . S
O468 Nd441 2.487 . S
O468 C458 1.241 . S
O469 Nd440 2.414 . S
O469 Nd441 2.682 . S
O469 C458 1.273 . S
O470 Nd441 2.410 . S
O470 C459 1.251 . S
O471 Nd440 2.424 . S
O471 C459 1.268 . S
H472 C444 0.930 . S
H473 C445 0.929 . S
H474 C447 0.930 . S
H475 C448 0.929 . S
H476 C453 0.930 . S
H477 C454 0.929 . S
H478 C456 0.930 . S
H479 C457 0.929 . S
Nd480 C482 2.836 . S
Nd480 O500 2.500 . S
Nd480 O501 2.492 . S
Nd480 O502 2.487 . S
Nd480 O503 2.682 . S
Nd480 O504 2.410 . S
Nd480 O509 2.414 . S
Nd480 O511 2.424 . S
Nd481 C491 2.836 . S
Nd481 O503 2.414 . S
Nd481 O505 2.424 . S
Nd481 O506 2.500 . S
Nd481 O507 2.492 . S
Nd481 O508 2.487 . S
Nd481 O509 2.682 . S
Nd481 O510 2.410 . S
C482 Nd480 2.836 . S
C482 C483 1.498 . S
C482 O500 1.258 . S
C482 O501 1.239 . S
C483 C482 1.498 . S
C483 C484 1.366 . S
C483 C488 1.407 . S
C484 C483 1.366 . S
C484 C485 1.392 . S
C484 H512 0.930 . S
C485 C484 1.392 . S
C485 C486 1.398 . S
C485 H513 0.929 . S
C486 C485 1.398 . S
C486 C487 1.352 . S
C487 C486 1.352 . S
C487 C488 1.384 . S
C487 H514 0.930 . S
C488 C483 1.407 . S
C488 C487 1.384 . S
C488 H515 0.929 . S
C489 O502 1.241 . S
C489 O503 1.273 . S
C490 O504 1.251 . S
C490 O505 1.268 . S
C491 Nd481 2.836 . S
C491 C492 1.498 . S
C491 O506 1.258 . S
C491 O507 1.239 . S
C492 C491 1.498 . S
C492 C493 1.366 . S
C492 C497 1.407 . S
C493 C492 1.366 . S
C493 C494 1.392 . S
C493 H516 0.930 . S
C494 C493 1.392 . S
C494 C495 1.398 . S
C494 H517 0.929 . S
C495 C494 1.398 . S
C495 C496 1.352 . S
C496 C495 1.352 . S
C496 C497 1.384 . S
C496 H518 0.930 . S
C497 C492 1.407 . S
C497 C496 1.384 . S
C497 H519 0.929 . S
C498 O508 1.241 . S
C498 O509 1.273 . S
C499 O510 1.251 . S
C499 O511 1.268 . S
O500 Nd480 2.500 . S
O500 C482 1.258 . S
O501 Nd480 2.492 . S
O501 C482 1.239 . S
O502 Nd480 2.487 . S
O502 C489 1.241 . S
O503 Nd480 2.682 . S
O503 Nd481 2.414 . S
O503 C489 1.273 . S
O504 Nd480 2.410 . S
O504 C490 1.251 . S
O505 Nd481 2.424 . S
O505 C490 1.268 . S
O506 Nd481 2.500 . S
O506 C491 1.258 . S
O507 Nd481 2.492 . S
O507 C491 1.239 . S
O508 Nd481 2.487 . S
O508 C498 1.241 . S
O509 Nd480 2.414 . S
O509 Nd481 2.682 . S
O509 C498 1.273 . S
O510 Nd481 2.410 . S
O510 C499 1.251 . S
O511 Nd480 2.424 . S
O511 C499 1.268 . S
H512 C484 0.930 . S
H513 C485 0.929 . S
H514 C487 0.930 . S
H515 C488 0.929 . S
H516 C493 0.930 . S
H517 C494 0.929 . S
H518 C496 0.930 . S
H519 C497 0.929 . S
Nd520 C522 2.836 . S
Nd520 O540 2.500 . S
Nd520 O541 2.492 . S
Nd520 O542 2.487 . S
Nd520 O543 2.682 . S
Nd520 O544 2.410 . S
Nd520 O549 2.414 . S
Nd520 O551 2.424 . S
Nd521 C531 2.836 . S
Nd521 O543 2.414 . S
Nd521 O545 2.424 . S
Nd521 O546 2.500 . S
Nd521 O547 2.492 . S
Nd521 O548 2.487 . S
Nd521 O549 2.682 . S
Nd521 O550 2.410 . S
C522 Nd520 2.836 . S
C522 C523 1.498 . S
C522 O540 1.258 . S
C522 O541 1.239 . S
C523 C522 1.498 . S
C523 C524 1.366 . S
C523 C528 1.407 . S
C524 C523 1.366 . S
C524 C525 1.392 . S
C524 H552 0.930 . S
C525 C524 1.392 . S
C525 C526 1.398 . S
C525 H553 0.929 . S
C526 C525 1.398 . S
C526 C527 1.352 . S
C527 C526 1.352 . S
C527 C528 1.384 . S
C527 H554 0.930 . S
C528 C523 1.407 . S
C528 C527 1.384 . S
C528 H555 0.929 . S
C529 O542 1.241 . S
C529 O543 1.273 . S
C530 O544 1.251 . S
C530 O545 1.268 . S
C531 Nd521 2.836 . S
C531 C532 1.498 . S
C531 O546 1.258 . S
C531 O547 1.239 . S
C532 C531 1.498 . S
C532 C533 1.366 . S
C532 C537 1.407 . S
C533 C532 1.366 . S
C533 C534 1.392 . S
C533 H556 0.930 . S
C534 C533 1.392 . S
C534 C535 1.398 . S
C534 H557 0.929 . S
C535 C534 1.398 . S
C535 C536 1.352 . S
C536 C535 1.352 . S
C536 C537 1.384 . S
C536 H558 0.930 . S
C537 C532 1.407 . S
C537 C536 1.384 . S
C537 H559 0.929 . S
C538 O548 1.241 . S
C538 O549 1.273 . S
C539 O550 1.251 . S
C539 O551 1.268 . S
O540 Nd520 2.500 . S
O540 C522 1.258 . S
O541 Nd520 2.492 . S
O541 C522 1.239 . S
O542 Nd520 2.487 . S
O542 C529 1.241 . S
O543 Nd520 2.682 . S
O543 Nd521 2.414 . S
O543 C529 1.273 . S
O544 Nd520 2.410 . S
O544 C530 1.251 . S
O545 Nd521 2.424 . S
O545 C530 1.268 . S
O546 Nd521 2.500 . S
O546 C531 1.258 . S
O547 Nd521 2.492 . S
O547 C531 1.239 . S
O548 Nd521 2.487 . S
O548 C538 1.241 . S
O549 Nd520 2.414 . S
O549 Nd521 2.682 . S
O549 C538 1.273 . S
O550 Nd521 2.410 . S
O550 C539 1.251 . S
O551 Nd520 2.424 . S
O551 C539 1.268 . S
H552 C524 0.930 . S
H553 C525 0.929 . S
H554 C527 0.930 . S
H555 C528 0.929 . S
H556 C533 0.930 . S
H557 C534 0.929 . S
H558 C536 0.930 . S
H559 C537 0.929 . S
Nd560 C562 2.836 . S
Nd560 O580 2.500 . S
Nd560 O581 2.492 . S
Nd560 O582 2.487 . S
Nd560 O583 2.682 . S
Nd560 O584 2.410 . S
Nd560 O589 2.414 . S
Nd560 O591 2.424 . S
Nd561 C571 2.836 . S
Nd561 O583 2.414 . S
Nd561 O585 2.424 . S
Nd561 O586 2.500 . S
Nd561 O587 2.492 . S
Nd561 O588 2.487 . S
Nd561 O589 2.682 . S
Nd561 O590 2.410 . S
C562 Nd560 2.836 . S
C562 C563 1.498 . S
C562 O580 1.258 . S
C562 O581 1.239 . S
C563 C562 1.498 . S
C563 C564 1.366 . S
C563 C568 1.407 . S
C564 C563 1.366 . S
C564 C565 1.392 . S
C564 H592 0.930 . S
C565 C564 1.392 . S
C565 C566 1.398 . S
C565 H593 0.929 . S
C566 C565 1.398 . S
C566 C567 1.352 . S
C567 C566 1.352 . S
C567 C568 1.384 . S
C567 H594 0.930 . S
C568 C563 1.407 . S
C568 C567 1.384 . S
C568 H595 0.929 . S
C569 O582 1.241 . S
C569 O583 1.273 . S
C570 O584 1.251 . S
C570 O585 1.268 . S
C571 Nd561 2.836 . S
C571 C572 1.498 . S
C571 O586 1.258 . S
C571 O587 1.239 . S
C572 C571 1.498 . S
C572 C573 1.366 . S
C572 C577 1.407 . S
C573 C572 1.366 . S
C573 C574 1.392 . S
C573 H596 0.930 . S
C574 C573 1.392 . S
C574 C575 1.398 . S
C574 H597 0.929 . S
C575 C574 1.398 . S
C575 C576 1.352 . S
C576 C575 1.352 . S
C576 C577 1.384 . S
C576 H598 0.930 . S
C577 C572 1.407 . S
C577 C576 1.384 . S
C577 H599 0.929 . S
C578 O588 1.241 . S
C578 O589 1.273 . S
C579 O590 1.251 . S
C579 O591 1.268 . S
O580 Nd560 2.500 . S
O580 C562 1.258 . S
O581 Nd560 2.492 . S
O581 C562 1.239 . S
O582 Nd560 2.487 . S
O582 C569 1.241 . S
O583 Nd560 2.682 . S
O583 Nd561 2.414 . S
O583 C569 1.273 . S
O584 Nd560 2.410 . S
O584 C570 1.251 . S
O585 Nd561 2.424 . S
O585 C570 1.268 . S
O586 Nd561 2.500 . S
O586 C571 1.258 . S
O587 Nd561 2.492 . S
O587 C571 1.239 . S
O588 Nd561 2.487 . S
O588 C578 1.241 . S
O589 Nd560 2.414 . S
O589 Nd561 2.682 . S
O589 C578 1.273 . S
O590 Nd561 2.410 . S
O590 C579 1.251 . S
O591 Nd560 2.424 . S
O591 C579 1.268 . S
H592 C564 0.930 . S
H593 C565 0.929 . S
H594 C567 0.930 . S
H595 C568 0.929 . S
H596 C573 0.930 . S
H597 C574 0.929 . S
H598 C576 0.930 . S
H599 C577 0.929 . S
Nd600 C602 2.836 1_554 S
Nd600 O620 2.500 1_554 S
Nd600 O621 2.492 1_554 S
Nd600 O622 2.487 . S
Nd600 O623 2.682 . S
Nd600 O624 2.410 1_554 S
Nd600 O629 2.414 1_554 S
Nd600 O631 2.424 . S
Nd601 C611 2.836 1_556 S
Nd601 O623 2.414 1_556 S
Nd601 O625 2.424 . S
Nd601 O626 2.500 1_556 S
Nd601 O627 2.492 1_556 S
Nd601 O628 2.487 . S
Nd601 O629 2.682 . S
Nd601 O630 2.410 1_556 S
C602 Nd600 2.836 1_556 S
C602 C603 1.498 . S
C602 O620 1.258 . S
C602 O621 1.239 . S
C603 C602 1.498 . S
C603 C604 1.366 . S
C603 C608 1.407 . S
C604 C603 1.366 . S
C604 C605 1.392 . S
C604 H632 0.930 . S
C605 C604 1.392 . S
C605 C606 1.398 . S
C605 H633 0.929 . S
C606 C605 1.398 . S
C606 C607 1.352 . S
C607 C606 1.352 . S
C607 C608 1.384 . S
C607 H634 0.930 . S
C608 C603 1.407 . S
C608 C607 1.384 . S
C608 H635 0.929 . S
C609 O622 1.241 . S
C609 O623 1.273 . S
C610 O624 1.251 . S
C610 O625 1.268 . S
C611 Nd601 2.836 1_554 S
C611 C612 1.498 . S
C611 O626 1.258 . S
C611 O627 1.239 . S
C612 C611 1.498 . S
C612 C613 1.366 . S
C612 C617 1.407 . S
C613 C612 1.366 . S
C613 C614 1.392 . S
C613 H636 0.930 . S
C614 C613 1.392 . S
C614 C615 1.398 . S
C614 H637 0.929 . S
C615 C614 1.398 . S
C615 C616 1.352 . S
C616 C615 1.352 . S
C616 C617 1.384 . S
C616 H638 0.930 . S
C617 C612 1.407 . S
C617 C616 1.384 . S
C617 H639 0.929 . S
C618 O628 1.241 . S
C618 O629 1.273 . S
C619 O630 1.251 . S
C619 O631 1.268 . S
O620 Nd600 2.500 1_556 S
O620 C602 1.258 . S
O621 Nd600 2.492 1_556 S
O621 C602 1.239 . S
O622 Nd600 2.487 . S
O622 C609 1.241 . S
O623 Nd600 2.682 . S
O623 Nd601 2.414 1_554 S
O623 C609 1.273 . S
O624 Nd600 2.410 1_556 S
O624 C610 1.251 . S
O625 Nd601 2.424 . S
O625 C610 1.268 . S
O626 Nd601 2.500 1_554 S
O626 C611 1.258 . S
O627 Nd601 2.492 1_554 S
O627 C611 1.239 . S
O628 Nd601 2.487 . S
O628 C618 1.241 . S
O629 Nd600 2.414 1_556 S
O629 Nd601 2.682 . S
O629 C618 1.273 . S
O630 Nd601 2.410 1_554 S
O630 C619 1.251 . S
O631 Nd600 2.424 . S
O631 C619 1.268 . S
H632 C604 0.930 . S
H633 C605 0.929 . S
H634 C607 0.930 . S
H635 C608 0.929 . S
H636 C613 0.930 . S
H637 C614 0.929 . S
H638 C616 0.930 . S
H639 C617 0.929 . S
Nd640 C642 2.836 1_554 S
Nd640 O660 2.500 1_554 S
Nd640 O661 2.492 1_554 S
Nd640 O662 2.487 . S
Nd640 O663 2.682 . S
Nd640 O664 2.410 1_554 S
Nd640 O669 2.414 1_554 S
Nd640 O671 2.424 . S
Nd641 C651 2.836 1_556 S
Nd641 O663 2.414 1_556 S
Nd641 O665 2.424 . S
Nd641 O666 2.500 1_556 S
Nd641 O667 2.492 1_556 S
Nd641 O668 2.487 . S
Nd641 O669 2.682 . S
Nd641 O670 2.410 1_556 S
C642 Nd640 2.836 1_556 S
C642 C643 1.498 . S
C642 O660 1.258 . S
C642 O661 1.239 . S
C643 C642 1.498 . S
C643 C644 1.366 . S
C643 C648 1.407 . S
C644 C643 1.366 . S
C644 C645 1.392 . S
C644 H672 0.930 . S
C645 C644 1.392 . S
C645 C646 1.398 1_565 S
C645 H673 0.929 . S
C646 C645 1.398 1_545 S
C646 C647 1.352 . S
C647 C646 1.352 . S
C647 C648 1.384 1_545 S
C647 H674 0.930 . S
C648 C643 1.407 . S
C648 C647 1.384 1_565 S
C648 H675 0.929 . S
C649 O662 1.241 . S
C649 O663 1.273 . S
C650 O664 1.251 . S
C650 O665 1.268 . S
C651 Nd641 2.836 1_554 S
C651 C652 1.498 . S
C651 O666 1.258 . S
C651 O667 1.239 . S
C652 C651 1.498 . S
C652 C653 1.366 . S
C652 C657 1.407 . S
C653 C652 1.366 . S
C653 C654 1.392 . S
C653 H676 0.930 . S
C654 C653 1.392 . S
C654 C655 1.398 . S
C654 H677 0.929 . S
C655 C654 1.398 . S
C655 C656 1.352 . S
C656 C655 1.352 . S
C656 C657 1.384 . S
C656 H678 0.930 . S
C657 C652 1.407 . S
C657 C656 1.384 . S
C657 H679 0.929 . S
C658 O668 1.241 . S
C658 O669 1.273 . S
C659 O670 1.251 . S
C659 O671 1.268 . S
O660 Nd640 2.500 1_556 S
O660 C642 1.258 . S
O661 Nd640 2.492 1_556 S
O661 C642 1.239 . S
O662 Nd640 2.487 . S
O662 C649 1.241 . S
O663 Nd640 2.682 . S
O663 Nd641 2.414 1_554 S
O663 C649 1.273 . S
O664 Nd640 2.410 1_556 S
O664 C650 1.251 . S
O665 Nd641 2.424 . S
O665 C650 1.268 . S
O666 Nd641 2.500 1_554 S
O666 C651 1.258 . S
O667 Nd641 2.492 1_554 S
O667 C651 1.239 . S
O668 Nd641 2.487 . S
O668 C658 1.241 . S
O669 Nd640 2.414 1_556 S
O669 Nd641 2.682 . S
O669 C658 1.273 . S
O670 Nd641 2.410 1_554 S
O670 C659 1.251 . S
O671 Nd640 2.424 . S
O671 C659 1.268 . S
H672 C644 0.930 . S
H673 C645 0.929 . S
H674 C647 0.930 . S
H675 C648 0.929 . S
H676 C653 0.930 . S
H677 C654 0.929 . S
H678 C656 0.930 . S
H679 C657 0.929 . S
Nd680 C682 2.836 1_554 S
Nd680 O700 2.500 1_554 S
Nd680 O701 2.492 1_554 S
Nd680 O702 2.487 . S
Nd680 O703 2.682 . S
Nd680 O704 2.410 1_554 S
Nd680 O709 2.414 1_554 S
Nd680 O711 2.424 . S
Nd681 C691 2.836 1_556 S
Nd681 O703 2.414 1_556 S
Nd681 O705 2.424 . S
Nd681 O706 2.500 1_556 S
Nd681 O707 2.492 1_556 S
Nd681 O708 2.487 . S
Nd681 O709 2.682 . S
Nd681 O710 2.410 1_556 S
C682 Nd680 2.836 1_556 S
C682 C683 1.498 . S
C682 O700 1.258 . S
C682 O701 1.239 . S
C683 C682 1.498 . S
C683 C684 1.366 . S
C683 C688 1.407 . S
C684 C683 1.366 . S
C684 C685 1.392 . S
C684 H712 0.930 . S
C685 C684 1.392 . S
C685 C686 1.398 . S
C685 H713 0.929 . S
C686 C685 1.398 . S
C686 C687 1.352 . S
C687 C686 1.352 . S
C687 C688 1.384 . S
C687 H714 0.930 . S
C688 C683 1.407 . S
C688 C687 1.384 . S
C688 H715 0.929 . S
C689 O702 1.241 . S
C689 O703 1.273 . S
C690 O704 1.251 . S
C690 O705 1.268 . S
C691 Nd681 2.836 1_554 S
C691 C692 1.498 . S
C691 O706 1.258 . S
C691 O707 1.239 . S
C692 C691 1.498 . S
C692 C693 1.366 . S
C692 C697 1.407 . S
C693 C692 1.366 . S
C693 C694 1.392 . S
C693 H716 0.930 . S
C694 C693 1.392 . S
C694 C695 1.398 . S
C694 H717 0.929 . S
C695 C694 1.398 . S
C695 C696 1.352 . S
C696 C695 1.352 . S
C696 C697 1.384 . S
C696 H718 0.930 . S
C697 C692 1.407 . S
C697 C696 1.384 . S
C697 H719 0.929 . S
C698 O708 1.241 . S
C698 O709 1.273 . S
C699 O710 1.251 . S
C699 O711 1.268 . S
O700 Nd680 2.500 1_556 S
O700 C682 1.258 . S
O701 Nd680 2.492 1_556 S
O701 C682 1.239 . S
O702 Nd680 2.487 . S
O702 C689 1.241 . S
O703 Nd680 2.682 . S
O703 Nd681 2.414 1_554 S
O703 C689 1.273 . S
O704 Nd680 2.410 1_556 S
O704 C690 1.251 . S
O705 Nd681 2.424 . S
O705 C690 1.268 . S
O706 Nd681 2.500 1_554 S
O706 C691 1.258 . S
O707 Nd681 2.492 1_554 S
O707 C691 1.239 . S
O708 Nd681 2.487 . S
O708 C698 1.241 . S
O709 Nd680 2.414 1_556 S
O709 Nd681 2.682 . S
O709 C698 1.273 . S
O710 Nd681 2.410 1_554 S
O710 C699 1.251 . S
O711 Nd680 2.424 . S
O711 C699 1.268 . S
H712 C684 0.930 . S
H713 C685 0.929 . S
H714 C687 0.930 . S
H715 C688 0.929 . S
H716 C693 0.930 . S
H717 C694 0.929 . S
H718 C696 0.930 . S
H719 C697 0.929 . S
C720 C721 1.369 . S
C720 C722 1.419 . S
C720 H724 0.930 . S
C721 C720 1.369 . S
C721 C730 1.429 . S
C722 C720 1.419 . S
C722 C723 1.363 . S
C722 H725 0.929 . S
C723 C722 1.363 . S
C723 C729 1.428 . S
H724 C720 0.930 . S
H725 C722 0.929 . S
S726 N727 1.613 . S
S726 N728 1.610 . S
N727 S726 1.613 . S
N727 C730 1.350 . S
N728 S726 1.610 . S
N728 C729 1.351 . S
C729 C723 1.428 . S
C729 N728 1.351 . S
C729 C730 1.434 . S
C730 C721 1.429 . S
C730 N727 1.350 . S
C730 C729 1.434 . S
C731 C732 1.369 . S
C731 C733 1.419 . S
C731 H735 0.930 . S
C732 C731 1.369 . S
C732 C741 1.429 . S
C733 C731 1.419 . S
C733 C734 1.363 . S
C733 H736 0.929 . S
C734 C733 1.363 . S
C734 C740 1.428 . S
H735 C731 0.930 . S
H736 C733 0.929 . S
S737 N738 1.613 . S
S737 N739 1.610 . S
N738 S737 1.613 . S
N738 C741 1.350 . S
N739 S737 1.610 . S
N739 C740 1.351 . S
C740 C734 1.428 . S
C740 N739 1.351 . S
C740 C741 1.434 . S
C741 C732 1.429 . S
C741 N738 1.350 . S
C741 C740 1.434 . S
C742 C743 1.369 . S
C742 C744 1.419 . S
C742 H746 0.930 . S
C743 C742 1.369 . S
C743 C752 1.429 . S
C744 C742 1.419 . S
C744 C745 1.363 . S
C744 H747 0.929 . S
C745 C744 1.363 . S
C745 C751 1.428 . S
H746 C742 0.930 . S
H747 C744 0.929 . S
S748 N749 1.613 . S
S748 N750 1.610 . S
N749 S748 1.613 . S
N749 C752 1.350 . S
N750 S748 1.610 . S
N750 C751 1.351 . S
C751 C745 1.428 . S
C751 N750 1.351 . S
C751 C752 1.434 . S
C752 C743 1.429 . S
C752 N749 1.350 . S
C752 C751 1.434 . S
C753 C754 1.369 1_556 S
C753 C755 1.419 . S
C753 H757 0.930 . S
C754 C753 1.369 1_554 S
C754 C763 1.429 . S
C755 C753 1.419 . S
C755 C756 1.363 . S
C755 H758 0.929 . S
C756 C755 1.363 . S
C756 C762 1.428 1_556 S
H757 C753 0.930 . S
H758 C755 0.929 . S
S759 N760 1.613 . S
S759 N761 1.610 . S
N760 S759 1.613 . S
N760 C763 1.350 . S
N761 S759 1.610 . S
N761 C762 1.351 . S
C762 C756 1.428 1_554 S
C762 N761 1.351 . S
C762 C763 1.434 . S
C763 C754 1.429 . S
C763 N760 1.350 . S
C763 C762 1.434 . S
C764 C765 1.369 . S
C764 C766 1.419 . S
C764 H768 0.930 . S
C765 C764 1.369 . S
C765 C774 1.429 1_556 S
C766 C764 1.419 . S
C766 C767 1.363 1_556 S
C766 H769 0.929 . S
C767 C766 1.363 1_554 S
C767 C773 1.428 . S
H768 C764 0.930 . S
H769 C766 0.929 . S
S770 N771 1.613 . S
S770 N772 1.610 . S
N771 S770 1.613 . S
N771 C774 1.350 . S
N772 S770 1.610 . S
N772 C773 1.351 . S
C773 C767 1.428 . S
C773 N772 1.351 . S
C773 C774 1.434 . S
C774 C765 1.429 1_554 S
C774 N771 1.350 . S
C774 C773 1.434 . S
C775 C776 1.369 . S
C775 C777 1.419 . S
C775 H779 0.930 . S
C776 C775 1.369 . S
C776 C785 1.429 1_554 S
C777 C775 1.419 . S
C777 C778 1.363 1_554 S
C777 H780 0.929 . S
C778 C777 1.363 1_556 S
C778 C784 1.428 . S
H779 C775 0.930 . S
H780 C777 0.929 . S
S781 N782 1.613 . S
S781 N783 1.610 . S
N782 S781 1.613 . S
N782 C785 1.350 . S
N783 S781 1.610 . S
N783 C784 1.351 . S
C784 C778 1.428 . S
C784 N783 1.351 . S
C784 C785 1.434 . S
C785 C776 1.429 1_556 S
C785 N782 1.350 . S
C785 C784 1.434 . S
C786 C787 1.369 . S
C786 C788 1.419 . S
C786 H790 0.930 . S
C787 C786 1.369 . S
C787 C796 1.429 . S
C788 C786 1.419 . S
C788 C789 1.363 . S
C788 H791 0.929 . S
C789 C788 1.363 . S
C789 C795 1.428 . S
H790 C786 0.930 . S
H791 C788 0.929 . S
S792 N793 1.613 . S
S792 N794 1.610 . S
N793 S792 1.613 . S
N793 C796 1.350 . S
N794 S792 1.610 . S
N794 C795 1.351 . S
C795 C789 1.428 . S
C795 N794 1.351 . S
C795 C796 1.434 . S
C796 C787 1.429 . S
C796 N793 1.350 . S
C796 C795 1.434 . S
C797 C798 1.369 . S
C797 C799 1.419 . S
C797 H801 0.930 . S
C798 C797 1.369 . S
C798 C807 1.429 . S
C799 C797 1.419 . S
C799 C800 1.363 . S
C799 H802 0.929 . S
C800 C799 1.363 . S
C800 C806 1.428 . S
H801 C797 0.930 . S
H802 C799 0.929 . S
S803 N804 1.613 . S
S803 N805 1.610 . S
N804 S803 1.613 . S
N804 C807 1.350 . S
N805 S803 1.610 . S
N805 C806 1.351 . S
C806 C800 1.428 . S
C806 N805 1.351 . S
C806 C807 1.434 . S
C807 C798 1.429 . S
C807 N804 1.350 . S
C807 C806 1.434 . S
C808 C809 1.369 . S
C808 C810 1.419 . S
C808 H812 0.930 . S
C809 C808 1.369 . S
C809 C818 1.429 . S
C810 C808 1.419 . S
C810 C811 1.363 . S
C810 H813 0.929 . S
C811 C810 1.363 . S
C811 C817 1.428 . S
H812 C808 0.930 . S
H813 C810 0.929 . S
S814 N815 1.613 . S
S814 N816 1.610 . S
N815 S814 1.613 . S
N815 C818 1.350 . S
N816 S814 1.610 . S
N816 C817 1.351 . S
C817 C811 1.428 . S
C817 N816 1.351 . S
C817 C818 1.434 . S
C818 C809 1.429 . S
C818 N815 1.350 . S
C818 C817 1.434 . S
C819 C820 1.369 . S
C819 C821 1.419 . S
C819 H823 0.930 . S
C820 C819 1.369 . S
C820 C829 1.429 1_554 S
C821 C819 1.419 . S
C821 C822 1.363 1_554 S
C821 H824 0.929 . S
C822 C821 1.363 1_556 S
C822 C828 1.428 . S
H823 C819 0.930 . S
H824 C821 0.929 . S
S825 N826 1.613 . S
S825 N827 1.610 . S
N826 S825 1.613 . S
N826 C829 1.350 . S
N827 S825 1.610 . S
N827 C828 1.351 . S
C828 C822 1.428 . S
C828 N827 1.351 . S
C828 C829 1.434 . S
C829 C820 1.429 1_556 S
C829 N826 1.350 . S
C829 C828 1.434 . S
C830 C831 1.369 . S
C830 C832 1.419 . S
C830 H834 0.930 . S
C831 C830 1.369 . S
C831 C840 1.429 1_556 S
C832 C830 1.419 . S
C832 C833 1.363 1_556 S
C832 H835 0.929 . S
C833 C832 1.363 1_554 S
C833 C839 1.428 . S
H834 C830 0.930 . S
H835 C832 0.929 . S
S836 N837 1.613 . S
S836 N838 1.610 . S
N837 S836 1.613 . S
N837 C840 1.350 . S
N838 S836 1.610 . S
N838 C839 1.351 . S
C839 C833 1.428 . S
C839 N838 1.351 . S
C839 C840 1.434 . S
C840 C831 1.429 1_554 S
C840 N837 1.350 . S
C840 C839 1.434 . S
C841 C842 1.369 1_556 S
C841 C843 1.419 . S
C841 H845 0.930 . S
C842 C841 1.369 1_554 S
C842 C851 1.429 . S
C843 C841 1.419 . S
C843 C844 1.363 . S
C843 H846 0.929 . S
C844 C843 1.363 . S
C844 C850 1.428 1_556 S
H845 C841 0.930 . S
H846 C843 0.929 . S
S847 N848 1.613 . S
S847 N849 1.610 . S
N848 S847 1.613 . S
N848 C851 1.350 . S
N849 S847 1.610 . S
N849 C850 1.351 . S
C850 C844 1.428 1_554 S
C850 N849 1.351 . S
C850 C851 1.434 . S
C851 C842 1.429 . S
C851 N848 1.350 . S
C851 C850 1.434 . S
C852 C853 1.369 . S
C852 C854 1.419 . S
C852 H856 0.930 . S
C853 C852 1.369 . S
C853 C862 1.429 . S
C854 C852 1.419 . S
C854 C855 1.363 . S
C854 H857 0.929 . S
C855 C854 1.363 . S
C855 C861 1.428 . S
H856 C852 0.930 . S
H857 C854 0.929 . S
S858 N859 1.613 . S
S858 N860 1.610 . S
N859 S858 1.613 . S
N859 C862 1.350 . S
N860 S858 1.610 . S
N860 C861 1.351 . S
C861 C855 1.428 . S
C861 N860 1.351 . S
C861 C862 1.434 . S
C862 C853 1.429 . S
C862 N859 1.350 . S
C862 C861 1.434 . S
C863 C864 1.369 . S
C863 C865 1.419 . S
C863 H867 0.930 . S
C864 C863 1.369 . S
C864 C873 1.429 . S
C865 C863 1.419 . S
C865 C866 1.363 . S
C865 H868 0.929 . S
C866 C865 1.363 . S
C866 C872 1.428 . S
H867 C863 0.930 . S
H868 C865 0.929 . S
S869 N870 1.613 . S
S869 N871 1.610 . S
N870 S869 1.613 . S
N870 C873 1.350 . S
N871 S869 1.610 . S
N871 C872 1.351 . S
C872 C866 1.428 . S
C872 N871 1.351 . S
C872 C873 1.434 . S
C873 C864 1.429 . S
C873 N870 1.350 . S
C873 C872 1.434 . S
C874 C875 1.363 . S
C874 C876 1.379 1_545 S
C874 H878 0.981 . S
C875 C874 1.363 . S
C875 C884 1.429 1_545 S
C876 C874 1.379 1_565 S
C876 C877 1.363 . S
C876 H879 0.929 . S
C877 C876 1.363 . S
C877 C883 1.428 . S
H878 C874 0.981 . S
H879 C876 0.929 . S
S880 N881 1.613 . S
S880 N882 1.610 . S
N881 S880 1.613 . S
N881 C884 1.350 . S
N882 S880 1.610 . S
N882 C883 1.351 . S
C883 C877 1.428 . S
C883 N882 1.351 . S
C883 C884 1.434 . S
C884 C875 1.429 1_565 S
C884 N881 1.350 . S
C884 C883 1.434 . S
C885 C886 1.369 . S
C885 C887 1.419 . S
C885 H889 0.930 . S
C886 C885 1.369 . S
C886 C895 1.429 . S
C887 C885 1.419 . S
C887 C888 1.363 . S
C887 H890 0.929 . S
C888 C887 1.363 . S
C888 C894 1.428 . S
H889 C885 0.930 . S
H890 C887 0.929 . S
S891 N892 1.613 . S
S891 N893 1.610 . S
N892 S891 1.613 . S
N892 C895 1.350 . S
N893 S891 1.610 . S
N893 C894 1.351 . S
C894 C888 1.428 . S
C894 N893 1.351 . S
C894 C895 1.434 . S
C895 C886 1.429 . S
C895 N892 1.350 . S
C895 C894 1.434 . S
C896 C897 1.339 1_655 S
C896 C898 1.470 . S
C896 H900 0.909 1_655 S
C897 C896 1.339 1_455 S
C897 C906 1.429 1_455 S
C898 C896 1.470 . S
C898 C899 1.363 . S
C898 H901 0.929 . S
C899 C898 1.363 . S
C899 C905 1.428 . S
H900 C896 0.909 1_455 S
H901 C898 0.929 . S
S902 N903 1.613 1_655 S
S902 N904 1.610 . S
N903 S902 1.613 1_455 S
N903 C906 1.350 1_455 S
N904 S902 1.610 . S
N904 C905 1.351 . S
C905 C899 1.428 . S
C905 N904 1.351 . S
C905 C906 1.434 . S
C906 C897 1.429 1_655 S
C906 N903 1.350 1_655 S
C906 C905 1.434 . S
C907 C908 1.369 . S
C907 C909 1.419 . S
C907 H911 0.930 . S
C908 C907 1.369 . S
C908 C917 1.429 . S
C909 C907 1.419 . S
C909 C910 1.363 . S
C909 H912 0.929 . S
C910 C909 1.363 . S
C910 C916 1.428 . S
H911 C907 0.930 . S
H912 C909 0.929 . S
S913 N914 1.613 . S
S913 N915 1.610 . S
N914 S913 1.613 . S
N914 C917 1.350 . S
N915 S913 1.610 . S
N915 C916 1.351 . S
C916 C910 1.428 . S
C916 N915 1.351 . S
C916 C917 1.434 . S
C917 C908 1.429 . S
C917 N914 1.350 . S
C917 C916 1.434 . S
C918 C919 1.369 . S
C918 C920 1.419 . S
C918 H922 0.930 . S
C919 C918 1.369 . S
C919 C928 1.429 . S
C920 C918 1.419 . S
C920 C921 1.363 . S
C920 H923 0.929 . S
C921 C920 1.363 . S
C921 C927 1.428 . S
H922 C918 0.930 . S
H923 C920 0.929 . S
S924 N925 1.613 . S
S924 N926 1.610 . S
N925 S924 1.613 . S
N925 C928 1.350 . S
N926 S924 1.610 . S
N926 C927 1.351 . S
C927 C921 1.428 . S
C927 N926 1.351 . S
C927 C928 1.434 . S
C928 C919 1.429 . S
C928 N925 1.350 . S
C928 C927 1.434 . S
C929 C930 1.369 . S
C929 C931 1.419 . S
C929 H933 0.930 . S
C930 C929 1.369 . S
C930 C939 1.429 . S
C931 C929 1.419 . S
C931 C932 1.363 . S
C931 H934 0.929 . S
C932 C931 1.363 . S
C932 C938 1.428 . S
H933 C929 0.930 . S
H934 C931 0.929 . S
S935 N936 1.613 . S
S935 N937 1.610 . S
N936 S935 1.613 . S
N936 C939 1.350 . S
N937 S935 1.610 . S
N937 C938 1.351 . S
C938 C932 1.428 . S
C938 N937 1.351 . S
C938 C939 1.434 . S
C939 C930 1.429 . S
C939 N936 1.350 . S
C939 C938 1.434 . S
C940 C941 1.369 . S
C940 C942 1.419 . S
C940 H944 0.930 . S
C941 C940 1.369 . S
C941 C950 1.429 . S
C942 C940 1.419 . S
C942 C943 1.363 . S
C942 H945 0.929 . S
C943 C942 1.363 . S
C943 C949 1.428 . S
H944 C940 0.930 . S
H945 C942 0.929 . S
S946 N947 1.613 . S
S946 N948 1.610 . S
N947 S946 1.613 . S
N947 C950 1.350 . S
N948 S946 1.610 . S
N948 C949 1.351 . S
C949 C943 1.428 . S
C949 N948 1.351 . S
C949 C950 1.434 . S
C950 C941 1.429 . S
C950 N947 1.350 . S
C950 C949 1.434 . S
C951 C952 1.369 . S
C951 C953 1.419 . S
C951 H955 0.930 . S
C952 C951 1.369 . S
C952 C961 1.429 . S
C953 C951 1.419 . S
C953 C954 1.363 . S
C953 H956 0.929 . S
C954 C953 1.363 . S
C954 C960 1.428 . S
H955 C951 0.930 . S
H956 C953 0.929 . S
S957 N958 1.613 . S
S957 N959 1.610 . S
N958 S957 1.613 . S
N958 C961 1.350 . S
N959 S957 1.610 . S
N959 C960 1.351 . S
C960 C954 1.428 . S
C960 N959 1.351 . S
C960 C961 1.434 . S
C961 C952 1.429 . S
C961 N958 1.350 . S
C961 C960 1.434 . S
C962 C963 1.369 . S
C962 C964 1.419 . S
C962 H966 0.930 . S
C963 C962 1.369 . S
C963 C972 1.429 . S
C964 C962 1.419 . S
C964 C965 1.363 . S
C964 H967 0.929 . S
C965 C964 1.363 . S
C965 C971 1.428 . S
H966 C962 0.930 . S
H967 C964 0.929 . S
S968 N969 1.613 . S
S968 N970 1.610 . S
N969 S968 1.613 . S
N969 C972 1.350 . S
N970 S968 1.610 . S
N970 C971 1.351 . S
C971 C965 1.428 . S
C971 N970 1.351 . S
C971 C972 1.434 . S
C972 C963 1.429 . S
C972 N969 1.350 . S
C972 C971 1.434 . S
C973 C974 1.369 . S
C973 C975 1.419 . S
C973 H977 0.930 . S
C974 C973 1.369 . S
C974 C983 1.429 . S
C975 C973 1.419 . S
C975 C976 1.363 . S
C975 H978 0.929 . S
C976 C975 1.363 . S
C976 C982 1.428 . S
H977 C973 0.930 . S
H978 C975 0.929 . S
S979 N980 1.613 . S
S979 N981 1.610 . S
N980 S979 1.613 . S
N980 C983 1.350 . S
N981 S979 1.610 . S
N981 C982 1.351 . S
C982 C976 1.428 . S
C982 N981 1.351 . S
C982 C983 1.434 . S
C983 C974 1.429 . S
C983 N980 1.350 . S
C983 C982 1.434 . S
C984 C985 1.369 . S
C984 C986 1.419 . S
C984 H988 0.930 . S
C985 C984 1.369 . S
C985 C994 1.429 . S
C986 C984 1.419 . S
C986 C987 1.363 . S
C986 H989 0.929 . S
C987 C986 1.363 . S
C987 C993 1.428 . S
H988 C984 0.930 . S
H989 C986 0.929 . S
S990 N991 1.613 . S
S990 N992 1.610 . S
N991 S990 1.613 . S
N991 C994 1.350 . S
N992 S990 1.610 . S
N992 C993 1.351 . S
C993 C987 1.428 . S
C993 N992 1.351 . S
C993 C994 1.434 . S
C994 C985 1.429 . S
C994 N991 1.350 . S
C994 C993 1.434 . S
C995 C996 1.369 . S
C995 C997 1.419 . S
C995 H999 0.930 . S
C996 C995 1.369 . S
C996 C1005 1.429 . S
C997 C995 1.419 . S
C997 C998 1.363 . S
C997 H1000 0.929 . S
C998 C997 1.363 . S
C998 C1004 1.428 . S
H999 C995 0.930 . S
H1000 C997 0.929 . S
S1001 N1002 1.613 . S
S1001 N1003 1.610 . S
N1002 S1001 1.613 . S
N1002 C1005 1.350 . S
N1003 S1001 1.610 . S
N1003 C1004 1.351 . S
C1004 C998 1.428 . S
C1004 N1003 1.351 . S
C1004 C1005 1.434 . S
C1005 C996 1.429 . S
C1005 N1002 1.350 . S
C1005 C1004 1.434 . S
C1006 C1007 1.369 . S
C1006 C1008 1.419 . S
C1006 H1010 0.930 . S
C1007 C1006 1.369 . S
C1007 C1016 1.429 . S
C1008 C1006 1.419 . S
C1008 C1009 1.363 . S
C1008 H1011 0.929 . S
C1009 C1008 1.363 . S
C1009 C1015 1.428 . S
H1010 C1006 0.930 . S
H1011 C1008 0.929 . S
S1012 N1013 1.613 . S
S1012 N1014 1.610 . S
N1013 S1012 1.613 . S
N1013 C1016 1.350 . S
N1014 S1012 1.610 . S
N1014 C1015 1.351 . S
C1015 C1009 1.428 . S
C1015 N1014 1.351 . S
C1015 C1016 1.434 . S
C1016 C1007 1.429 . S
C1016 N1013 1.350 . S
C1016 C1015 1.434 . S
C1017 C1018 1.369 1_554 S
C1017 C1019 1.419 . S
C1017 H1021 0.930 . S
C1018 C1017 1.369 1_556 S
C1018 C1027 1.429 . S
C1019 C1017 1.419 . S
C1019 C1020 1.363 . S
C1019 H1022 0.929 . S
C1020 C1019 1.363 . S
C1020 C1026 1.428 1_554 S
H1021 C1017 0.930 . S
H1022 C1019 0.929 . S
S1023 N1024 1.613 . S
S1023 N1025 1.610 . S
N1024 S1023 1.613 . S
N1024 C1027 1.350 . S
N1025 S1023 1.610 . S
N1025 C1026 1.351 . S
C1026 C1020 1.428 1_556 S
C1026 N1025 1.351 . S
C1026 C1027 1.434 . S
C1027 C1018 1.429 . S
C1027 N1024 1.350 . S
C1027 C1026 1.434 . S
C1028 C1029 1.369 1_554 S
C1028 C1030 1.419 . S
C1028 H1032 0.930 . S
C1029 C1028 1.369 1_556 S
C1029 C1038 1.429 . S
C1030 C1028 1.419 . S
C1030 C1031 1.363 . S
C1030 H1033 0.929 . S
C1031 C1030 1.363 . S
C1031 C1037 1.428 1_554 S
H1032 C1028 0.930 . S
H1033 C1030 0.929 . S
S1034 N1035 1.613 . S
S1034 N1036 1.610 . S
N1035 S1034 1.613 . S
N1035 C1038 1.350 . S
N1036 S1034 1.610 . S
N1036 C1037 1.351 . S
C1037 C1031 1.428 1_556 S
C1037 N1036 1.351 . S
C1037 C1038 1.434 . S
C1038 C1029 1.429 . S
C1038 N1035 1.350 . S
C1038 C1037 1.434 . S
C1039 C1040 1.369 1_554 S
C1039 C1041 1.419 . S
C1039 H1043 0.930 . S
C1040 C1039 1.369 1_556 S
C1040 C1049 1.429 . S
C1041 C1039 1.419 . S
C1041 C1042 1.363 . S
C1041 H1044 0.929 . S
C1042 C1041 1.363 . S
C1042 C1048 1.428 1_554 S
H1043 C1039 0.930 . S
H1044 C1041 0.929 . S
S1045 N1046 1.613 . S
S1045 N1047 1.610 . S
N1046 S1045 1.613 . S
N1046 C1049 1.350 . S
N1047 S1045 1.610 . S
N1047 C1048 1.351 . S
C1048 C1042 1.428 1_556 S
C1048 N1047 1.351 . S
C1048 C1049 1.434 . S
C1049 C1040 1.429 . S
C1049 N1046 1.350 . S
C1049 C1048 1.434 . S
C1050 C1051 1.369 1_554 S
C1050 C1052 1.419 . S
C1050 H1054 0.930 . S
C1051 C1050 1.369 1_556 S
C1051 C1060 1.429 . S
C1052 C1050 1.419 . S
C1052 C1053 1.363 . S
C1052 H1055 0.929 . S
C1053 C1052 1.363 . S
C1053 C1059 1.428 . S
H1054 C1050 0.930 . S
H1055 C1052 0.929 . S
S1056 N1057 1.613 1_554 S
S1056 N1058 1.610 . S
N1057 S1056 1.613 1_556 S
N1057 C1060 1.350 . S
N1058 S1056 1.610 . S
N1058 C1059 1.351 . S
C1059 C1053 1.428 . S
C1059 N1058 1.351 . S
C1059 C1060 1.434 1_554 S
C1060 C1051 1.429 . S
C1060 N1057 1.350 . S
C1060 C1059 1.434 1_556 S
C1061 C1062 1.369 . S
C1061 C1063 1.419 . S
C1061 H1065 0.930 . S
C1062 C1061 1.369 . S
C1062 C1071 1.429 1_556 S
C1063 C1061 1.419 . S
C1063 C1064 1.363 1_556 S
C1063 H1066 0.929 . S
C1064 C1063 1.363 1_554 S
C1064 C1070 1.428 . S
H1065 C1061 0.930 . S
H1066 C1063 0.929 . S
S1067 N1068 1.613 . S
S1067 N1069 1.610 . S
N1068 S1067 1.613 . S
N1068 C1071 1.350 . S
N1069 S1067 1.610 . S
N1069 C1070 1.351 . S
C1070 C1064 1.428 . S
C1070 N1069 1.351 . S
C1070 C1071 1.434 . S
C1071 C1062 1.429 1_554 S
C1071 N1068 1.350 . S
C1071 C1070 1.434 . S
C1072 C1073 1.369 . S
C1072 C1074 1.419 . S
C1072 H1076 0.930 . S
C1073 C1072 1.369 . S
C1073 C1082 1.429 1_554 S
C1074 C1072 1.419 . S
C1074 C1075 1.363 1_554 S
C1074 H1077 0.929 . S
C1075 C1074 1.363 1_556 S
C1075 C1081 1.428 . S
H1076 C1072 0.930 . S
H1077 C1074 0.929 . S
S1078 N1079 1.613 . S
S1078 N1080 1.610 . S
N1079 S1078 1.613 . S
N1079 C1082 1.350 . S
N1080 S1078 1.610 . S
N1080 C1081 1.351 . S
C1081 C1075 1.428 . S
C1081 N1080 1.351 . S
C1081 C1082 1.434 . S
C1082 C1073 1.429 1_556 S
C1082 N1079 1.350 . S
C1082 C1081 1.434 . S
C1083 C1084 1.369 . S
C1083 C1085 1.419 . S
C1083 H1087 0.930 . S
C1084 C1083 1.369 . S
C1084 C1093 1.429 . S
C1085 C1083 1.419 . S
C1085 C1086 1.363 . S
C1085 H1088 0.929 . S
C1086 C1085 1.363 . S
C1086 C1092 1.428 . S
H1087 C1083 0.930 . S
H1088 C1085 0.929 . S
S1089 N1090 1.613 . S
S1089 N1091 1.610 . S
N1090 S1089 1.613 . S
N1090 C1093 1.350 . S
N1091 S1089 1.610 . S
N1091 C1092 1.351 . S
C1092 C1086 1.428 . S
C1092 N1091 1.351 . S
C1092 C1093 1.434 . S
C1093 C1084 1.429 . S
C1093 N1090 1.350 . S
C1093 C1092 1.434 . S
C1094 C1095 1.369 . S
C1094 C1096 1.419 . S
C1094 H1098 0.930 . S
C1095 C1094 1.369 . S
C1095 C1104 1.429 . S
C1096 C1094 1.419 . S
C1096 C1097 1.363 . S
C1096 H1099 0.929 . S
C1097 C1096 1.363 . S
C1097 C1103 1.428 . S
H1098 C1094 0.930 . S
H1099 C1096 0.929 . S
S1100 N1101 1.613 . S
S1100 N1102 1.610 . S
N1101 S1100 1.613 . S
N1101 C1104 1.350 . S
N1102 S1100 1.610 . S
N1102 C1103 1.351 . S
C1103 C1097 1.428 . S
C1103 N1102 1.351 . S
C1103 C1104 1.434 . S
C1104 C1095 1.429 . S
C1104 N1101 1.350 . S
C1104 C1103 1.434 . S
C1105 C1106 1.369 . S
C1105 C1107 1.419 . S
C1105 H1109 0.930 . S
C1106 C1105 1.369 . S
C1106 C1115 1.429 . S
C1107 C1105 1.419 . S
C1107 C1108 1.363 . S
C1107 H1110 0.929 . S
C1108 C1107 1.363 . S
C1108 C1114 1.428 . S
H1109 C1105 0.930 . S
H1110 C1107 0.929 . S
S1111 N1112 1.613 . S
S1111 N1113 1.610 . S
N1112 S1111 1.613 . S
N1112 C1115 1.350 . S
N1113 S1111 1.610 . S
N1113 C1114 1.351 . S
C1114 C1108 1.428 . S
C1114 N1113 1.351 . S
C1114 C1115 1.434 . S
C1115 C1106 1.429 . S
C1115 N1112 1.350 . S
C1115 C1114 1.434 . S
C1116 C1117 1.369 . S
C1116 C1118 1.419 . S
C1116 H1120 0.930 . S
C1117 C1116 1.369 . S
C1117 C1126 1.429 . S
C1118 C1116 1.419 . S
C1118 C1119 1.363 . S
C1118 H1121 0.929 . S
C1119 C1118 1.363 . S
C1119 C1125 1.428 . S
H1120 C1116 0.930 . S
H1121 C1118 0.929 . S
S1122 N1123 1.613 . S
S1122 N1124 1.610 . S
N1123 S1122 1.613 . S
N1123 C1126 1.350 . S
N1124 S1122 1.610 . S
N1124 C1125 1.351 . S
C1125 C1119 1.428 . S
C1125 N1124 1.351 . S
C1125 C1126 1.434 . S
C1126 C1117 1.429 . S
C1126 N1123 1.350 . S
C1126 C1125 1.434 . S
C1127 C1128 1.369 . S
C1127 C1129 1.419 . S
C1127 H1131 0.930 . S
C1128 C1127 1.369 . S
C1128 C1137 1.429 . S
C1129 C1127 1.419 . S
C1129 C1130 1.363 . S
C1129 H1132 0.929 . S
C1130 C1129 1.363 . S
C1130 C1136 1.428 . S
H1131 C1127 0.930 . S
H1132 C1129 0.929 . S
S1133 N1134 1.613 . S
S1133 N1135 1.610 . S
N1134 S1133 1.613 . S
N1134 C1137 1.350 . S
N1135 S1133 1.610 . S
N1135 C1136 1.351 . S
C1136 C1130 1.428 . S
C1136 N1135 1.351 . S
C1136 C1137 1.434 . S
C1137 C1128 1.429 . S
C1137 N1134 1.350 . S
C1137 C1136 1.434 . S
C1138 C1139 1.369 . S
C1138 C1140 1.419 . S
C1138 H1142 0.930 . S
C1139 C1138 1.369 . S
C1139 C1148 1.429 . S
C1140 C1138 1.419 . S
C1140 C1141 1.363 . S
C1140 H1143 0.929 . S
C1141 C1140 1.363 . S
C1141 C1147 1.428 . S
H1142 C1138 0.930 . S
H1143 C1140 0.929 . S
S1144 N1145 1.613 . S
S1144 N1146 1.610 . S
N1145 S1144 1.613 . S
N1145 C1148 1.350 1_565 S
N1146 S1144 1.610 . S
N1146 C1147 1.351 1_565 S
C1147 C1141 1.428 . S
C1147 N1146 1.351 1_545 S
C1147 C1148 1.434 . S
C1148 C1139 1.429 . S
C1148 N1145 1.350 1_545 S
C1148 C1147 1.434 . S
C1149 C1150 1.369 . S
C1149 C1151 1.419 . S
C1149 H1153 0.930 . S
C1150 C1149 1.369 . S
C1150 C1159 1.429 . S
C1151 C1149 1.419 . S
C1151 C1152 1.363 . S
C1151 H1154 0.929 . S
C1152 C1151 1.363 . S
C1152 C1158 1.428 . S
H1153 C1149 0.930 . S
H1154 C1151 0.929 . S
S1155 N1156 1.616 1_655 S
S1155 N1157 1.608 1_655 S
N1156 S1155 1.616 1_455 S
N1156 C1159 1.350 . S
N1157 S1155 1.608 1_455 S
N1157 C1158 1.351 . S
C1158 C1152 1.428 . S
C1158 N1157 1.351 . S
C1158 C1159 1.434 . S
C1159 C1150 1.429 . S
C1159 N1156 1.350 . S
C1159 C1158 1.434 . S
C1160 C1161 1.369 . S
C1160 C1162 1.419 . S
C1160 H1164 0.930 . S
C1161 C1160 1.369 . S
C1161 C1170 1.429 . S
C1162 C1160 1.419 . S
C1162 C1163 1.363 . S
C1162 H1165 0.929 . S
C1163 C1162 1.363 . S
C1163 C1169 1.428 . S
H1164 C1160 0.930 . S
H1165 C1162 0.929 . S
S1166 N1167 1.613 . S
S1166 N1168 1.610 . S
N1167 S1166 1.613 . S
N1167 C1170 1.350 . S
N1168 S1166 1.610 . S
N1168 C1169 1.351 . S
C1169 C1163 1.428 . S
C1169 N1168 1.351 . S
C1169 C1170 1.434 . S
C1170 C1161 1.429 . S
C1170 N1167 1.350 . S
C1170 C1169 1.434 . S
C1171 C1172 1.369 . S
C1171 C1173 1.419 . S
C1171 H1175 0.930 . S
C1172 C1171 1.369 . S
C1172 C1181 1.429 . S
C1173 C1171 1.419 . S
C1173 C1174 1.363 . S
C1173 H1176 0.929 . S
C1174 C1173 1.363 . S
C1174 C1180 1.428 . S
H1175 C1171 0.930 . S
H1176 C1173 0.929 . S
S1177 N1178 1.613 . S
S1177 N1179 1.610 . S
N1178 S1177 1.613 . S
N1178 C1181 1.350 . S
N1179 S1177 1.610 . S
N1179 C1180 1.351 . S
C1180 C1174 1.428 . S
C1180 N1179 1.351 . S
C1180 C1181 1.434 . S
C1181 C1172 1.429 . S
C1181 N1178 1.350 . S
C1181 C1180 1.434 . S
C1182 C1183 1.369 . S
C1182 C1184 1.419 . S
C1182 H1186 0.930 . S
C1183 C1182 1.369 . S
C1183 C1192 1.429 . S
C1184 C1182 1.419 . S
C1184 C1185 1.363 . S
C1184 H1187 0.929 . S
C1185 C1184 1.363 . S
C1185 C1191 1.428 . S
H1186 C1182 0.930 . S
H1187 C1184 0.929 . S
S1188 N1189 1.613 . S
S1188 N1190 1.610 . S
N1189 S1188 1.613 . S
N1189 C1192 1.350 . S
N1190 S1188 1.610 . S
N1190 C1191 1.351 . S
C1191 C1185 1.428 . S
C1191 N1190 1.351 . S
C1191 C1192 1.434 . S
C1192 C1183 1.429 . S
C1192 N1189 1.350 . S
C1192 C1191 1.434 . S
C1193 C1194 1.369 . S
C1193 C1195 1.419 . S
C1193 H1197 0.930 . S
C1194 C1193 1.369 . S
C1194 C1203 1.429 . S
C1195 C1193 1.419 . S
C1195 C1196 1.363 . S
C1195 H1198 0.929 . S
C1196 C1195 1.363 . S
C1196 C1202 1.428 . S
H1197 C1193 0.930 . S
H1198 C1195 0.929 . S
S1199 N1200 1.613 . S
S1199 N1201 1.610 . S
N1200 S1199 1.613 . S
N1200 C1203 1.350 . S
N1201 S1199 1.610 . S
N1201 C1202 1.351 . S
C1202 C1196 1.428 . S
C1202 N1201 1.351 . S
C1202 C1203 1.434 . S
C1203 C1194 1.429 . S
C1203 N1200 1.350 . S
C1203 C1202 1.434 . S
C1204 C1205 1.369 . S
C1204 C1206 1.419 . S
C1204 H1208 0.930 . S
C1205 C1204 1.369 . S
C1205 C1214 1.429 . S
C1206 C1204 1.419 . S
C1206 C1207 1.363 . S
C1206 H1209 0.929 . S
C1207 C1206 1.363 . S
C1207 C1213 1.428 . S
H1208 C1204 0.930 . S
H1209 C1206 0.929 . S
S1210 N1211 1.613 . S
S1210 N1212 1.610 . S
N1211 S1210 1.613 . S
N1211 C1214 1.350 . S
N1212 S1210 1.610 . S
N1212 C1213 1.351 . S
C1213 C1207 1.428 . S
C1213 N1212 1.351 . S
C1213 C1214 1.434 . S
C1214 C1205 1.429 . S
C1214 N1211 1.350 . S
C1214 C1213 1.434 . S
C1215 C1216 1.369 . S
C1215 C1217 1.419 . S
C1215 H1219 0.930 . S
C1216 C1215 1.369 . S
C1216 C1225 1.429 . S
C1217 C1215 1.419 . S
C1217 C1218 1.363 . S
C1217 H1220 0.929 . S
C1218 C1217 1.363 . S
C1218 C1224 1.428 . S
H1219 C1215 0.930 . S
H1220 C1217 0.929 . S
S1221 N1222 1.613 . S
S1221 N1223 1.610 . S
N1222 S1221 1.613 . S
N1222 C1225 1.350 . S
N1223 S1221 1.610 . S
N1223 C1224 1.351 . S
C1224 C1218 1.428 . S
C1224 N1223 1.351 . S
C1224 C1225 1.434 . S
C1225 C1216 1.429 . S
C1225 N1222 1.350 . S
C1225 C1224 1.434 . S
C1226 C1227 1.369 . S
C1226 C1228 1.419 . S
C1226 H1230 0.933 . S
C1227 C1226 1.369 . S
C1227 C1236 1.429 . S
C1228 C1226 1.419 . S
C1228 C1229 1.363 . S
C1228 H1231 0.929 . S
C1229 C1228 1.363 . S
C1229 C1235 1.428 . S
H1230 C1226 0.933 . S
H1231 C1228 0.929 . S
S1232 N1233 1.613 . S
S1232 N1234 1.610 . S
N1233 S1232 1.613 . S
N1233 C1236 1.350 . S
N1234 S1232 1.610 . S
N1234 C1235 1.351 . S
C1235 C1229 1.428 . S
C1235 N1234 1.351 . S
C1235 C1236 1.434 . S
C1236 C1227 1.429 . S
C1236 N1233 1.350 . S
C1236 C1235 1.434 . S
C1237 C1238 1.369 . S
C1237 C1239 1.419 . S
C1237 H1241 0.930 . S
C1238 C1237 1.369 . S
C1238 C1247 1.429 . S
C1239 C1237 1.419 . S
C1239 C1240 1.363 . S
C1239 H1242 0.929 . S
C1240 C1239 1.363 . S
C1240 C1246 1.428 . S
H1241 C1237 0.930 . S
H1242 C1239 0.929 . S
S1243 N1244 1.613 1_554 S
S1243 N1245 1.610 . S
N1244 S1243 1.613 1_556 S
N1244 C1247 1.350 1_556 S
N1245 S1243 1.610 . S
N1245 C1246 1.351 . S
C1246 C1240 1.428 . S
C1246 N1245 1.351 . S
C1246 C1247 1.434 . S
C1247 C1238 1.429 . S
C1247 N1244 1.350 1_554 S
C1247 C1246 1.434 . S
C1248 C1249 1.369 . S
C1248 C1250 1.419 . S
C1248 H1252 0.930 . S
C1249 C1248 1.369 . S
C1249 C1258 1.429 . S
C1250 C1248 1.419 . S
C1250 C1251 1.363 . S
C1250 H1253 0.929 . S
C1251 C1250 1.363 . S
C1251 C1257 1.428 . S
H1252 C1248 0.930 . S
H1253 C1250 0.929 . S
S1254 N1255 1.613 . S
S1254 N1256 1.610 . S
N1255 S1254 1.613 . S
N1255 C1258 1.350 . S
N1256 S1254 1.610 . S
N1256 C1257 1.351 . S
C1257 C1251 1.428 . S
C1257 N1256 1.351 . S
C1257 C1258 1.434 . S
C1258 C1249 1.429 . S
C1258 N1255 1.350 . S
C1258 C1257 1.434 . S
C1259 C1260 1.369 . S
C1259 C1261 1.419 . S
C1259 H1263 0.930 . S
C1260 C1259 1.369 . S
C1260 C1269 1.429 . S
C1261 C1259 1.419 . S
C1261 C1262 1.363 . S
C1261 H1264 0.929 . S
C1262 C1261 1.363 . S
C1262 C1268 1.428 . S
H1263 C1259 0.930 . S
H1264 C1261 0.929 . S
S1265 N1266 1.613 . S
S1265 N1267 1.610 . S
N1266 S1265 1.613 . S
N1266 C1269 1.350 . S
N1267 S1265 1.610 . S
N1267 C1268 1.351 . S
C1268 C1262 1.428 . S
C1268 N1267 1.351 . S
C1268 C1269 1.434 . S
C1269 C1260 1.429 . S
C1269 N1266 1.350 . S
C1269 C1268 1.434 . S
C1270 C1271 1.369 . S
C1270 C1272 1.419 . S
C1270 H1274 0.930 . S
C1271 C1270 1.369 . S
C1271 C1280 1.429 . S
C1272 C1270 1.419 . S
C1272 C1273 1.363 . S
C1272 H1275 0.929 . S
C1273 C1272 1.363 . S
C1273 C1279 1.428 . S
H1274 C1270 0.930 . S
H1275 C1272 0.929 . S
S1276 N1277 1.613 . S
S1276 N1278 1.610 . S
N1277 S1276 1.613 . S
N1277 C1280 1.350 . S
N1278 S1276 1.610 . S
N1278 C1279 1.351 . S
C1279 C1273 1.428 . S
C1279 N1278 1.351 . S
C1279 C1280 1.434 . S
C1280 C1271 1.429 . S
C1280 N1277 1.350 . S
C1280 C1279 1.434 . S
C1281 C1282 1.369 . S
C1281 C1283 1.419 . S
C1281 H1285 0.930 . S
C1282 C1281 1.369 . S
C1282 C1291 1.429 . S
C1283 C1281 1.419 . S
C1283 C1284 1.363 . S
C1283 H1286 0.929 . S
C1284 C1283 1.363 . S
C1284 C1290 1.428 . S
H1285 C1281 0.930 . S
H1286 C1283 0.929 . S
S1287 N1288 1.613 . S
S1287 N1289 1.610 . S
N1288 S1287 1.613 . S
N1288 C1291 1.350 . S
N1289 S1287 1.610 . S
N1289 C1290 1.351 . S
C1290 C1284 1.428 . S
C1290 N1289 1.351 . S
C1290 C1291 1.434 . S
C1291 C1282 1.429 . S
C1291 N1288 1.350 . S
C1291 C1290 1.434 . S
C1292 C1293 1.369 . S
C1292 C1294 1.419 . S
C1292 H1296 0.930 . S
C1293 C1292 1.369 . S
C1293 C1302 1.429 . S
C1294 C1292 1.419 . S
C1294 C1295 1.363 . S
C1294 H1297 0.929 . S
C1295 C1294 1.363 . S
C1295 C1301 1.428 . S
H1296 C1292 0.930 . S
H1297 C1294 0.929 . S
S1298 N1299 1.613 . S
S1298 N1300 1.610 . S
N1299 S1298 1.613 . S
N1299 C1302 1.350 . S
N1300 S1298 1.610 . S
N1300 C1301 1.351 . S
C1301 C1295 1.428 . S
C1301 N1300 1.351 . S
C1301 C1302 1.434 . S
C1302 C1293 1.429 . S
C1302 N1299 1.350 . S
C1302 C1301 1.434 . S
C1303 C1304 1.369 . S
C1303 C1305 1.419 . S
C1303 H1307 0.930 . S
C1304 C1303 1.369 . S
C1304 C1313 1.429 . S
C1305 C1303 1.419 . S
C1305 C1306 1.363 . S
C1305 H1308 0.929 . S
C1306 C1305 1.363 . S
C1306 C1312 1.428 . S
H1307 C1303 0.930 . S
H1308 C1305 0.929 . S
S1309 N1310 1.613 . S
S1309 N1311 1.610 . S
N1310 S1309 1.613 . S
N1310 C1313 1.350 . S
N1311 S1309 1.610 . S
N1311 C1312 1.351 . S
C1312 C1306 1.428 . S
C1312 N1311 1.351 . S
C1312 C1313 1.434 . S
C1313 C1304 1.429 . S
C1313 N1310 1.350 . S
C1313 C1312 1.434 . S
C721 C535 1.757 . S
C723 C18 1.845 . S
C732 C58 1.851 . S
C734 C575 1.760 . S
C743 C98 1.845 . S
C745 C495 1.757 . S
C754 C95 1.775 1_554 S
C756 C298 1.875 . S
C765 C338 1.877 . S
C767 C15 1.777 1_554 S
C776 C55 1.769 1_554 S
C778 C258 1.877 . S
C787 C129 1.850 . S
C789 C406 1.759 . S
C798 C169 1.844 . S
C800 C446 1.757 . S
C809 C366 1.761 . S
C811 C209 1.850 . S
C820 C649 1.874 . S
C822 C206 1.773 1_556 S
C831 C126 1.768 1_556 S
C833 C689 1.876 . S
C842 C609 1.879 . S
C844 C166 1.773 1_556 S
C853 C335 1.774 . S
C855 C538 1.856 . S
C864 C255 1.771 . S
C866 C578 1.854 . S
C875 C295 1.775 . S
C877 C498 1.857 . S
C886 C369 1.858 . S
C888 C646 1.779 . S
C897 C686 1.779 . S
C899 C409 1.854 . S
C908 C606 1.771 . S
C910 C449 1.854 . S
C919 C6 1.848 . S
C921 C178 1.851 . S
C930 C218 1.900 . S
C932 C46 1.848 . S
C941 C138 1.853 . S
C943 C86 1.846 . S
C952 C175 1.842 . S
C954 C89 1.850 . S
C963 C215 1.846 . S
C965 C9 1.836 1_655 S
C974 C135 1.847 . S
C976 C49 1.852 . S
C985 C418 1.885 . S
C987 C246 1.862 . S
C996 C458 1.885 . S
C998 C286 1.863 . S
C1007 C378 1.882 . S
C1009 C326 1.860 . S
C1018 C415 1.835 . S
C1020 C329 1.855 . S
C1029 C455 1.838 . S
C1031 C249 1.853 . S
C1040 C375 1.841 . S
C1042 C289 1.853 . S
C1051 C658 1.857 . S
C1053 C486 1.836 . S
C1062 C698 1.852 . S
C1064 C526 1.837 . S
C1073 C566 1.839 . S
C1075 C618 1.858 . S
C1084 C569 1.882 . S
C1086 C655 1.861 . S
C1095 C489 1.881 . S
C1097 C695 1.861 . S
C1106 C615 1.860 . S
C1108 C529 1.883 . S
C1117 C10 1.865 . S
C1119 C19 1.865 1_554 S
C1128 C50 1.869 . S
C1130 C59 1.863 1_554 S
C1139 C90 1.869 . S
C1141 C99 1.862 1_554 S
C1150 C139 1.867 . S
C1152 C130 1.864 1_556 S
C1161 C170 1.861 1_556 S
C1163 C179 1.868 . S
C1172 C210 1.861 1_556 S
C1174 C219 1.868 . S
C1183 C259 1.858 . S
C1185 C250 1.857 . S
C1194 C290 1.858 . S
C1196 C299 1.857 . S
C1205 C339 1.854 . S
C1207 C330 1.860 . S
C1216 C379 1.868 1_554 S
C1218 C370 1.862 . S
C1227 C419 1.868 1_554 S
C1229 C410 1.862 . S
C1238 C459 1.860 1_554 S
C1240 C450 1.867 . S
C1249 C499 1.864 . S
C1251 C490 1.864 1_556 S
C1260 C530 1.866 1_556 S
C1262 C539 1.863 . S
C1271 C570 1.868 1_556 S
C1273 C579 1.861 . S
C1282 C610 1.855 . S
C1284 C619 1.859 . S
C1293 C650 1.860 . S
C1295 C659 1.856 . S
C1304 C699 1.860 . S
C1306 C690 1.856 . S
